# Generated by pormake.
# Topology anh, (6,3)-cn, num edge types: 1
# Building blocks:
#     Node 0, Type 0, BuildingBlock: CUKXOW_clean_sbu_0, # of connection points: 6
#     Node 1, Type 0, BuildingBlock: CUKXOW_clean_sbu_0, # of connection points: 6
#     Node 2, Type 0, BuildingBlock: CUKXOW_clean_sbu_0, # of connection points: 6
#     Node 3, Type 1, BuildingBlock: ESEHIV_clean_linker_0, # of connection points: 3
#     Node 4, Type 1, BuildingBlock: ESEHIV_clean_linker_0, # of connection points: 3
#     Node 5, Type 1, BuildingBlock: ESEHIV_clean_linker_0, # of connection points: 3
#     Node 6, Type 1, BuildingBlock: ESEHIV_clean_linker_0, # of connection points: 3
#     Node 7, Type 1, BuildingBlock: ESEHIV_clean_linker_0, # of connection points: 3
#     Node 8, Type 1, BuildingBlock: ESEHIV_clean_linker_0, # of connection points: 3
#     Edge 9, Type (0, 1), BuildingBlock: OJICUG_clean_linker_0, # of connection points: 2
#     Edge 10, Type (0, 1), BuildingBlock: OJICUG_clean_linker_0, # of connection points: 2
#     Edge 11, Type (0, 1), BuildingBlock: OJICUG_clean_linker_0, # of connection points: 2
#     Edge 12, Type (0, 1), BuildingBlock: OJICUG_clean_linker_0, # of connection points: 2
#     Edge 13, Type (0, 1), BuildingBlock: OJICUG_clean_linker_0, # of connection points: 2
#     Edge 14, Type (0, 1), BuildingBlock: OJICUG_clean_linker_0, # of connection points: 2
#     Edge 15, Type (0, 1), BuildingBlock: OJICUG_clean_linker_0, # of connection points: 2
#     Edge 16, Type (0, 1), BuildingBlock: OJICUG_clean_linker_0, # of connection points: 2
#     Edge 17, Type (0, 1), BuildingBlock: OJICUG_clean_linker_0, # of connection points: 2
#     Edge 18, Type (0, 1), BuildingBlock: OJICUG_clean_linker_0, # of connection points: 2
#     Edge 19, Type (0, 1), BuildingBlock: OJICUG_clean_linker_0, # of connection points: 2
#     Edge 20, Type (0, 1), BuildingBlock: OJICUG_clean_linker_0, # of connection points: 2
#     Edge 21, Type (0, 1), BuildingBlock: OJICUG_clean_linker_0, # of connection points: 2
#     Edge 22, Type (0, 1), BuildingBlock: OJICUG_clean_linker_0, # of connection points: 2
#     Edge 23, Type (0, 1), BuildingBlock: OJICUG_clean_linker_0, # of connection points: 2
#     Edge 24, Type (0, 1), BuildingBlock: OJICUG_clean_linker_0, # of connection points: 2
#     Edge 25, Type (0, 1), BuildingBlock: OJICUG_clean_linker_0, # of connection points: 2
#     Edge 26, Type (0, 1), BuildingBlock: OJICUG_clean_linker_0, # of connection points: 2
# Relax obj value: 0.144
# Max RMSD: 0.195
# Mean RMSD: 0.144
data_MOF--net-anh--node1-CUKXOW_clean_sbu_0--node2-ESEHIV_clean_linker_0--edge1-OJICUG_clean_linker_0
_symmetry_space_group_name_H-M    P1
_symmetry_Int_Tables_number       1
_symmetry_cell_setting            triclinic
loop_
_symmetry_equiv_pos_as_xyz
'x, y, z'
_cell_length_a     18.744151
_cell_length_b     18.118523
_cell_length_c     35.990553
_cell_angle_alpha  95.161567
_cell_angle_beta   90.213658
_cell_angle_gamma 110.2277
loop_
_atom_site_label
_atom_site_type_symbol
_atom_site_fract_x
_atom_site_fract_y
_atom_site_fract_z
_atom_type_partial_charge
Tb0 Tb 0.11158 0.58149 0.1441 0.0
C1 C 0.06049 0.52022 0.22202 0.0
Tb2 Tb 1.02566 0.39781 0.14947 0.0
O3 O 1.00943 0.61747 0.14474 0.0
O4 O 0.99852 0.50163 0.14659 0.0
O5 O 0.10814 0.5772 0.20428 0.0
C6 C 0.91353 0.2633 0.1585 0.0
O7 O 1.01675 0.45112 0.20514 0.0
C8 C 0.1785 0.43469 0.14728 0.0
C9 C 0.06171 0.46178 0.07101 0.0
O10 O 0.96664 0.3032 0.18318 0.0
O11 O 0.92484 0.29817 0.12793 0.0
O12 O 0.12991 0.3638 0.14981 0.0
O13 O 0.13743 0.47733 0.14649 0.0
O14 O 1.01668 0.40564 0.09022 0.0
O15 O 0.10964 0.53083 0.08651 0.0
C16 C 0.23359 0.71167 0.14667 0.0
O17 O 0.17123 0.70079 0.1274 0.0
O18 O 0.22605 0.65083 0.16463 0.0
C19 C 0.95941 0.54668 0.14608 0.0
Tb20 Tb 0.4773 0.98014 0.49743 0.0
C21 C 0.55282 0.01127 0.42073 0.0
Tb22 Tb 0.65293 0.07398 0.49657 0.0
O23 O 0.45536 0.08468 0.48039 0.0
O24 O 0.55313 0.09759 0.51138 0.0
O25 O 0.49483 0.96441 0.43809 0.0
C26 C 0.76549 0.2052 0.48499 0.0
O27 O 0.61532 0.06164 0.43832 0.0
C28 C 0.62357 0.91888 0.49008 0.0
C29 C 0.57635 0.03466 0.57374 0.0
O30 O 0.69774 0.18129 0.46974 0.0
O31 O 0.77152 0.154 0.50701 0.0
O32 O 0.69236 0.97101 0.49095 0.0
O33 O 0.57921 0.95779 0.49129 0.0
O34 O 0.63618 0.07941 0.55632 0.0
O35 O 0.51119 0.98874 0.55626 0.0
C36 C 0.34198 0.86928 0.50332 0.0
O37 O 0.35423 0.94451 0.50461 0.0
O38 O 0.4055 0.85709 0.49855 0.0
C39 C 0.51987 0.135 0.49423 0.0
Tb40 Tb 0.52613 0.54504 0.82939 0.0
C41 C 0.60443 0.59425 0.9063 0.0
Tb42 Tb 0.68623 0.62924 0.83082 0.0
O43 O 0.54401 0.45265 0.85776 0.0
O44 O 0.62053 0.5075 0.81815 0.0
O45 O 0.54121 0.58877 0.88801 0.0
C46 C 0.83364 0.65504 0.82595 0.0
O47 O 0.66665 0.59742 0.88814 0.0
C48 C 0.6295 0.74072 0.83843 0.0
C49 C 0.6017 0.58271 0.75238 0.0
O50 O 0.79899 0.66139 0.85654 0.0
O51 O 0.78451 0.63478 0.79828 0.0
O52 O 0.70149 0.75254 0.83874 0.0
O53 O 0.5907 0.66759 0.83505 0.0
O54 O 0.66687 0.6215 0.77071 0.0
O55 O 0.53935 0.54674 0.76971 0.0
C56 C 0.37884 0.47705 0.81434 0.0
O57 O 0.42386 0.44084 0.82297 0.0
O58 O 0.41565 0.55254 0.81619 0.0
C59 C 0.60532 0.45483 0.84082 0.0
H60 H 0.43549 0.93325 0.24787 0.0
H61 H 0.66876 0.08519 0.26308 0.0
H62 H 0.56633 0.01386 0.15235 0.0
C63 C 0.48851 0.96855 0.23648 0.0
C64 C 0.4948 0.96795 0.19765 0.0
C65 C 0.55079 0.01197 0.26041 0.0
C66 C 0.61915 0.05539 0.24481 0.0
C67 C 0.6251 0.05966 0.20607 0.0
C68 C 0.56262 0.01402 0.18238 0.0
H69 H 0.59213 0.67042 0.58637 0.0
H70 H 0.58017 0.43059 0.58755 0.0
H71 H 0.57318 0.52524 0.48219 0.0
C72 C 0.58773 0.61447 0.57113 0.0
C73 C 0.58205 0.60618 0.53192 0.0
C74 C 0.58693 0.55155 0.5911 0.0
C75 C 0.58128 0.47921 0.57175 0.0
C76 C 0.57708 0.46837 0.53254 0.0
C77 C 0.57704 0.53251 0.51241 0.0
H78 H 0.9571 0.47542 0.91625 0.0
H79 H 0.12417 0.36555 0.89916 0.0
H80 H 1.02514 0.43098 0.80525 0.0
C81 C 0.98803 0.44875 0.89719 0.0
C82 C 0.98759 0.45922 0.85917 0.0
C83 C 1.03511 0.41206 0.91142 0.0
C84 C 0.08133 0.38522 0.88735 0.0
C85 C 0.07806 0.39261 0.8488 0.0
C86 C 1.02572 0.42311 0.83473 0.0
H87 H 0.95965 0.4297 0.38157 0.0
H88 H 0.12456 0.66568 0.39418 0.0
H89 H 1.03901 0.54487 0.49099 0.0
C90 C 0.99462 0.48176 0.39895 0.0
C91 C 0.99202 0.48109 0.43788 0.0
C92 C 0.0423 0.54785 0.38256 0.0
C93 C 0.08765 0.61364 0.40606 0.0
C94 C 0.08745 0.61223 0.44503 0.0
C95 C 0.03999 0.54559 0.4609 0.0
H96 H 0.61404 0.18924 0.73728 0.0
H97 H 0.56494 0.94095 0.74048 0.0
H98 H 0.60605 0.09355 0.84306 0.0
C99 C 0.60704 0.13957 0.75336 0.0
C100 C 0.6133 0.15121 0.79246 0.0
C101 C 0.58929 0.06407 0.73457 0.0
C102 C 0.57584 0.99897 0.75513 0.0
C103 C 0.58165 0.00897 0.7943 0.0
C104 C 0.60049 0.08537 0.81285 0.0
H105 H 0.46292 0.5143 0.06318 0.0
H106 H 0.69818 0.5363 0.06832 0.0
H107 H 0.56347 0.48111 0.1657 0.0
C108 C 0.5119 0.51391 0.07913 0.0
C109 C 0.50331 0.49819 0.11675 0.0
C110 C 0.58126 0.5276 0.06139 0.0
C111 C 0.64386 0.52345 0.0815 0.0
C112 C 0.63931 0.50561 0.11874 0.0
C113 C 0.56802 0.49305 0.13671 0.0
C114 C 0.30064 0.40243 0.15258 0.0
C115 C 0.26434 0.45625 0.14432 0.0
H116 H 0.40337 0.37325 0.15172 0.0
C117 C 0.3106 0.52745 0.13118 0.0
H118 H 0.26743 0.34654 0.16254 0.0
C119 C 0.38905 0.54325 0.12558 0.0
C120 C 0.42505 0.48829 0.13243 0.0
H121 H 0.28554 0.56949 0.12331 0.0
H122 H 0.42117 0.59757 0.11393 0.0
C123 C 0.37937 0.41812 0.14684 0.0
C124 C 0.90016 0.30111 0.49005 0.0
C125 C 0.82446 0.27903 0.47675 0.0
H126 H 1.01409 0.3845 0.48811 0.0
C127 C 0.80406 0.32708 0.45341 0.0
H128 H 0.91684 0.26502 0.50828 0.0
C129 C 0.85869 0.39391 0.44195 0.0
C130 C 0.93489 0.41452 0.45375 0.0
H131 H 0.74585 0.31213 0.44316 0.0
H132 H 0.84162 0.42889 0.4232 0.0
C133 C 0.95535 0.36909 0.47866 0.0
C134 C 0.5362 0.79767 0.81537 0.0
C135 C 0.60084 0.80609 0.83735 0.0
H136 H 0.47837 0.85743 0.78456 0.0
C137 C 0.64863 0.88177 0.85168 0.0
H138 H 0.49871 0.73967 0.80405 0.0
C139 C 0.63747 0.94864 0.84058 0.0
C140 C 0.5784 0.94073 0.81481 0.0
H141 H 0.69867 0.88939 0.86894 0.0
H142 H 0.67952 1.00601 0.84932 0.0
C143 C 0.52513 0.86491 0.80402 0.0
C144 C 0.84568 0.59086 0.15531 0.0
C145 C 0.87366 0.52852 0.14633 0.0
H146 H 0.75052 0.63175 0.15559 0.0
C147 C 0.81927 0.45384 0.13438 0.0
H148 H 0.88501 0.64946 0.16447 0.0
C149 C 0.7409 0.44379 0.1292 0.0
C150 C 0.71364 0.50734 0.1368 0.0
H151 H 0.8378 0.40434 0.12676 0.0
H152 H 0.70223 0.38721 0.11696 0.0
C153 C 0.76769 0.58052 0.15076 0.0
C154 C 0.2618 0.72877 0.5038 0.0
C155 C 0.26774 0.8062 0.49808 0.0
H156 H 0.19751 0.60557 0.49186 0.0
C157 C 0.20712 0.81992 0.48063 0.0
H158 H 0.30819 0.71719 0.51722 0.0
C159 C 0.14474 0.75615 0.46546 0.0
C160 C 0.14187 0.67848 0.46848 0.0
H161 H 0.21094 0.87931 0.47578 0.0
H162 H 0.10109 0.76728 0.44944 0.0
C163 C 0.19872 0.66516 0.48938 0.0
C164 C 0.67394 0.37397 0.80723 0.0
C165 C 0.62487 0.38266 0.8352 0.0
H166 H 0.71121 0.29308 0.77258 0.0
C167 C 0.58436 0.31698 0.85408 0.0
H168 H 0.70691 0.42397 0.79276 0.0
C169 C 0.58524 0.24203 0.84205 0.0
C170 C 0.62769 0.23163 0.81129 0.0
H171 H 0.54696 0.32223 0.87626 0.0
H172 H 0.54786 0.19178 0.85495 0.0
C173 C 0.67576 0.29896 0.79554 0.0
C174 C 0.54292 0.79289 0.51569 0.0
C175 C 0.60495 0.83321 0.49481 0.0
H176 H 0.4856 0.68847 0.54255 0.0
C177 C 0.65418 0.79334 0.48203 0.0
H178 H 0.50645 0.82285 0.52766 0.0
C179 C 0.64292 0.71599 0.49098 0.0
C180 C 0.58259 0.67712 0.51329 0.0
H181 H 0.70318 0.82318 0.46628 0.0
H182 H 0.68423 0.68878 0.48258 0.0
C183 C 0.53164 0.71592 0.52461 0.0
C184 C 0.94415 0.64645 0.85856 0.0
C185 C 0.89869 0.62952 0.82588 0.0
H186 H 1.00809 0.60439 0.89492 0.0
C187 C 0.89582 0.56523 0.80037 0.0
H188 H 0.94775 0.69668 0.87823 0.0
C189 C 0.92543 0.50964 0.81094 0.0
C190 C 0.96157 0.52046 0.8462 0.0
H191 H 0.86153 0.55168 0.77466 0.0
H192 H 0.91536 0.45599 0.79261 0.0
C193 C 0.97594 0.59216 0.86863 0.0
C194 C 0.29948 0.85801 0.15483 0.0
C195 C 0.30289 0.78166 0.14962 0.0
H196 H 0.36007 0.97942 0.17484 0.0
C197 C 0.37298 0.7709 0.15366 0.0
H198 H 0.24559 0.86711 0.15223 0.0
C199 C 0.43801 0.83465 0.16541 0.0
C200 C 0.43344 0.9097 0.17404 0.0
H201 H 0.3766 0.71232 0.14988 0.0
H202 H 0.49042 0.82409 0.17084 0.0
C203 C 0.36458 0.9219 0.16761 0.0
C204 C 0.60631 0.27085 0.51925 0.0
C205 C 0.54079 0.22295 0.4982 0.0
H206 H 0.67075 0.38628 0.54499 0.0
C207 C 0.49321 0.25967 0.48343 0.0
H208 H 0.64421 0.24495 0.53115 0.0
C209 C 0.50825 0.34144 0.49165 0.0
C210 C 0.57137 0.38824 0.51472 0.0
H211 H 0.44235 0.22457 0.46697 0.0
H212 H 0.4679 0.36689 0.48201 0.0
C213 C 0.62161 0.35216 0.52713 0.0
C214 C 0.25483 0.48524 0.79929 0.0
C215 C 0.29699 0.44031 0.81009 0.0
H216 H 0.15053 0.50473 0.80294 0.0
C217 C 0.26051 0.3664 0.82324 0.0
H218 H 0.28219 0.54159 0.78825 0.0
C219 C 0.18392 0.34402 0.83152 0.0
C220 C 0.14437 0.39558 0.82646 0.0
H221 H 0.29261 0.33015 0.83089 0.0
H222 H 0.15811 0.291 0.84542 0.0
C223 C 0.17874 0.46307 0.80739 0.0
C224 C 0.79723 0.1415 0.14614 0.0
C225 C 0.83952 0.2099 0.16885 0.0
H226 H 0.69648 0.03788 0.14062 0.0
C227 C 0.80929 0.23092 0.20192 0.0
H228 H 0.81951 0.12523 0.12017 0.0
C229 C 0.73843 0.18383 0.21271 0.0
C230 C 0.69707 0.11252 0.19149 0.0
H231 H 0.83999 0.28495 0.21923 0.0
H232 H 0.71636 0.20349 0.238 0.0
C233 C 0.72669 0.09228 0.15768 0.0
C234 C 0.99026 0.39207 0.01228 0.0
C235 C 0.05729 0.44588 0.03013 0.0
H236 H 0.93106 0.33925 0.96016 0.0
C237 C 0.1192 0.48388 0.00859 0.0
H238 H 0.94149 0.36229 0.02821 0.0
C239 C 0.1136 0.469 0.96974 0.0
C240 C 0.04572 0.41689 0.95207 0.0
H241 H 0.17162 0.52524 0.02171 0.0
H242 H 0.16103 0.50047 0.95341 0.0
C243 C 0.98426 0.37841 0.97351 0.0
C244 C 0.58692 0.08006 0.36341 0.0
C245 C 0.54781 0.01076 0.3799 0.0
H246 H 0.61549 0.1357 0.31316 0.0
C247 C 0.50561 0.94235 0.35711 0.0
H248 H 0.61866 0.13417 0.38038 0.0
C249 C 0.50531 0.94257 0.31821 0.0
C250 C 0.54612 0.01168 0.30162 0.0
H251 H 0.47492 0.8882 0.36925 0.0
H252 H 0.475 0.8881 0.30121 0.0
C253 C 0.58536 0.08078 0.32481 0.0
C254 C 0.54004 0.51357 0.69126 0.0
C255 C 0.59821 0.57603 0.71115 0.0
H256 H 0.49143 0.45678 0.63769 0.0
C257 C 0.65258 0.63096 0.69126 0.0
H258 H 0.49752 0.46999 0.70578 0.0
C259 C 0.64839 0.6238 0.65219 0.0
C260 C 0.59071 0.56072 0.63242 0.0
H261 H 0.69789 0.67976 0.70586 0.0
H262 H 0.69089 0.66678 0.63739 0.0
C263 C 0.53669 0.50566 0.65231 0.0
C264 C 0.6416 0.09883 0.63486 0.0
C265 C 0.58093 0.03972 0.61483 0.0
H266 H 0.69188 0.15225 0.68845 0.0
C267 C 0.52406 0.98678 0.63449 0.0
H268 H 0.68644 0.14047 0.62061 0.0
C269 C 0.52724 0.99374 0.67345 0.0
C270 C 0.58702 0.05406 0.69336 0.0
H271 H 0.4768 0.94025 0.61985 0.0
H272 H 0.48212 0.95309 0.68799 0.0
C273 C 0.64452 0.10598 0.67372 0.0
C274 C 0.64348 0.53934 0.96075 0.0
C275 C 0.60146 0.58182 0.94633 0.0
H276 H 0.66742 0.48557 0.00733 0.0
C277 C 0.55314 0.6071 0.96979 0.0
H278 H 0.67992 0.51756 0.94301 0.0
C279 C 0.5476 0.5909 0.0072 0.0
C280 C 0.58853 0.54689 0.02168 0.0
H281 H 0.52004 0.63985 0.95928 0.0
H282 H 0.51139 0.61333 0.02472 0.0
C283 C 0.63639 0.52122 -0.00222 0.0
C284 C 0.11907 0.57851 0.2852 0.0
C285 C 0.05487 0.53344 0.26268 0.0
H286 H 0.16651 0.61607 0.34065 0.0
C287 C 0.98564 0.49733 0.27947 0.0
H288 H 0.17326 0.60646 0.27286 0.0
C289 C 0.98091 0.50483 0.3182 0.0
C290 C 0.04589 0.5467 0.34115 0.0
H291 H 0.93501 0.46306 0.26262 0.0
H292 H 0.92622 0.47703 0.33006 0.0
C293 C 0.1149 0.58433 0.32408 0.0
loop_
_geom_bond_atom_site_label_1
_geom_bond_atom_site_label_2
_geom_bond_distance
_geom_bond_site_symmetry_2
_ccdc_geom_bond_type
Tb0 O3 2.453 1_455 S
Tb0 O4 2.596 1_455 S
Tb0 O5 2.374 . S
Tb0 O13 2.343 . S
Tb0 O15 2.353 . S
Tb0 O17 2.427 . S
Tb0 O18 2.513 . S
C1 O5 1.251 . S
C1 O7 1.263 . S
Tb2 O4 2.343 . S
Tb2 O7 2.353 1_655 S
Tb2 O10 2.427 . S
Tb2 O11 2.513 . S
Tb2 O12 2.453 1_655 S
Tb2 O13 2.596 1_655 S
Tb2 O14 2.374 1_655 S
O3 Tb0 2.453 1_655 S
O3 C19 1.245 . S
O4 Tb0 2.596 1_655 S
O4 Tb2 2.343 . S
O4 C19 1.259 . S
O5 Tb0 2.374 . S
O5 C1 1.251 . S
C6 O10 1.275 . S
C6 O11 1.246 . S
O7 C1 1.263 . S
O7 Tb2 2.353 1_455 S
C8 O12 1.245 . S
C8 O13 1.259 . S
C9 O14 1.250 . S
C9 O15 1.263 . S
O10 Tb2 2.427 . S
O10 C6 1.275 . S
O11 Tb2 2.513 . S
O11 C6 1.246 . S
O12 Tb2 2.453 1_455 S
O12 C8 1.245 . S
O13 Tb0 2.343 . S
O13 Tb2 2.596 1_455 S
O13 C8 1.259 . S
O14 Tb2 2.374 1_455 S
O14 C9 1.250 . S
O15 Tb0 2.353 . S
O15 C9 1.263 . S
C16 O17 1.275 . S
C16 O18 1.246 . S
O17 Tb0 2.427 . S
O17 C16 1.275 . S
O18 Tb0 2.513 . S
O18 C16 1.246 . S
C19 O3 1.245 . S
C19 O4 1.259 . S
Tb20 O23 2.453 . S
Tb20 O24 2.596 . S
Tb20 O25 2.374 . S
Tb20 O33 2.343 1_545 S
Tb20 O35 2.353 . S
Tb20 O37 2.427 1_545 S
Tb20 O38 2.513 1_545 S
C21 O25 1.251 . S
C21 O27 1.263 . S
Tb22 O24 2.343 . S
Tb22 O27 2.353 . S
Tb22 O30 2.427 . S
Tb22 O31 2.513 . S
Tb22 O32 2.453 1_545 S
Tb22 O33 2.596 1_545 S
Tb22 O34 2.374 . S
O23 Tb20 2.453 . S
O23 C39 1.245 . S
O24 Tb20 2.596 . S
O24 Tb22 2.343 . S
O24 C39 1.259 . S
O25 Tb20 2.374 . S
O25 C21 1.251 . S
C26 O30 1.275 . S
C26 O31 1.246 . S
O27 C21 1.263 . S
O27 Tb22 2.353 . S
C28 O32 1.245 . S
C28 O33 1.259 . S
C29 O34 1.250 . S
C29 O35 1.263 . S
O30 Tb22 2.427 . S
O30 C26 1.275 . S
O31 Tb22 2.513 . S
O31 C26 1.246 . S
O32 Tb22 2.453 1_565 S
O32 C28 1.245 . S
O33 Tb20 2.343 1_565 S
O33 Tb22 2.596 1_565 S
O33 C28 1.259 . S
O34 Tb22 2.374 . S
O34 C29 1.250 . S
O35 Tb20 2.353 . S
O35 C29 1.263 . S
C36 O37 1.275 . S
C36 O38 1.246 . S
O37 Tb20 2.427 1_565 S
O37 C36 1.275 . S
O38 Tb20 2.513 1_565 S
O38 C36 1.246 . S
C39 O23 1.245 . S
C39 O24 1.259 . S
Tb40 O43 2.453 . S
Tb40 O44 2.596 . S
Tb40 O45 2.374 . S
Tb40 O53 2.343 . S
Tb40 O55 2.353 . S
Tb40 O57 2.427 . S
Tb40 O58 2.513 . S
C41 O45 1.251 . S
C41 O47 1.263 . S
Tb42 O44 2.343 . S
Tb42 O47 2.353 . S
Tb42 O50 2.427 . S
Tb42 O51 2.513 . S
Tb42 O52 2.453 . S
Tb42 O53 2.596 . S
Tb42 O54 2.374 . S
O43 Tb40 2.453 . S
O43 C59 1.245 . S
O44 Tb40 2.596 . S
O44 Tb42 2.343 . S
O44 C59 1.259 . S
O45 Tb40 2.374 . S
O45 C41 1.251 . S
C46 O50 1.275 . S
C46 O51 1.246 . S
O47 C41 1.263 . S
O47 Tb42 2.353 . S
C48 O52 1.245 . S
C48 O53 1.259 . S
C49 O54 1.250 . S
C49 O55 1.263 . S
O50 Tb42 2.427 . S
O50 C46 1.275 . S
O51 Tb42 2.513 . S
O51 C46 1.246 . S
O52 Tb42 2.453 . S
O52 C48 1.245 . S
O53 Tb40 2.343 . S
O53 Tb42 2.596 . S
O53 C48 1.259 . S
O54 Tb42 2.374 . S
O54 C49 1.250 . S
O55 Tb40 2.353 . S
O55 C49 1.263 . S
C56 O57 1.275 . S
C56 O58 1.246 . S
O57 Tb40 2.427 . S
O57 C56 1.275 . S
O58 Tb40 2.513 . S
O58 C56 1.246 . S
C59 O43 1.245 . S
C59 O44 1.259 . S
H60 C63 0.931 . S
H61 C66 0.928 . S
H62 C68 0.930 . S
C63 H60 0.931 . S
C63 C64 1.413 . S
C63 C65 1.360 1_565 S
C64 C63 1.413 . S
C64 C68 1.429 1_565 S
C65 C63 1.360 1_545 S
C65 C66 1.372 . S
C66 H61 0.928 . S
C66 C65 1.372 . S
C66 C67 1.404 . S
C67 C66 1.404 . S
C67 C68 1.391 . S
C68 H62 0.930 . S
C68 C64 1.429 1_545 S
C68 C67 1.391 . S
H69 C72 0.931 . S
H70 C75 0.928 . S
H71 C77 0.930 . S
C72 H69 0.931 . S
C72 C73 1.413 . S
C72 C74 1.360 . S
C73 C72 1.413 . S
C73 C77 1.429 . S
C74 C72 1.360 . S
C74 C75 1.372 . S
C75 H70 0.928 . S
C75 C74 1.372 . S
C75 C76 1.404 . S
C76 C75 1.404 . S
C76 C77 1.391 . S
C77 H71 0.930 . S
C77 C73 1.429 . S
C77 C76 1.391 . S
H78 C81 0.931 1_655 S
H79 C84 0.928 . S
H80 C86 0.930 . S
C81 H78 0.931 1_455 S
C81 C82 1.413 . S
C81 C83 1.360 . S
C82 C81 1.413 . S
C82 C86 1.429 . S
C83 C81 1.360 . S
C83 C84 1.372 . S
C84 H79 0.928 . S
C84 C83 1.372 . S
C84 C85 1.404 . S
C85 C84 1.404 . S
C85 C86 1.391 . S
C86 H80 0.930 . S
C86 C82 1.429 . S
C86 C85 1.391 . S
H87 C90 0.931 . S
H88 C93 0.928 . S
H89 C95 0.930 . S
C90 H87 0.931 . S
C90 C91 1.413 . S
C90 C92 1.363 . S
C91 C90 1.413 . S
C91 C95 1.429 1_655 S
C92 C90 1.363 . S
C92 C93 1.368 1_655 S
C93 H88 0.928 . S
C93 C92 1.368 1_455 S
C93 C94 1.404 . S
C94 C93 1.404 . S
C94 C95 1.391 . S
C95 H89 0.930 . S
C95 C91 1.429 1_455 S
C95 C94 1.391 . S
H96 C99 0.931 . S
H97 C102 0.928 . S
H98 C104 0.930 . S
C99 H96 0.931 . S
C99 C100 1.413 . S
C99 C101 1.360 . S
C100 C99 1.413 . S
C100 C104 1.429 . S
C101 C99 1.360 . S
C101 C102 1.372 1_545 S
C102 H97 0.928 . S
C102 C101 1.372 1_565 S
C102 C103 1.404 . S
C103 C102 1.404 . S
C103 C104 1.391 1_565 S
C104 H98 0.930 . S
C104 C100 1.429 . S
C104 C103 1.391 1_545 S
H105 C108 0.931 . S
H106 C111 0.928 . S
H107 C113 0.930 . S
C108 H105 0.931 . S
C108 C109 1.413 . S
C108 C110 1.360 . S
C109 C108 1.413 . S
C109 C113 1.429 . S
C110 C108 1.360 . S
C110 C111 1.372 . S
C111 H106 0.928 . S
C111 C110 1.372 . S
C111 C112 1.404 . S
C112 C111 1.404 . S
C112 C113 1.391 . S
C113 H107 0.930 . S
C113 C109 1.429 . S
C113 C112 1.391 . S
C114 C115 1.387 . S
C114 H118 0.950 . S
C114 C123 1.390 . S
C115 C114 1.387 . S
C115 C117 1.387 . S
H116 C123 0.950 . S
C117 C115 1.387 . S
C117 C119 1.390 . S
C117 H121 0.950 . S
H118 C114 0.950 . S
C119 C117 1.390 . S
C119 C120 1.387 . S
C119 H122 0.950 . S
C120 C119 1.387 . S
C120 C123 1.387 . S
H121 C117 0.950 . S
H122 C119 0.950 . S
C123 C114 1.390 . S
C123 H116 0.950 . S
C123 C120 1.387 . S
C124 C125 1.387 . S
C124 H128 0.950 . S
C124 C133 1.390 . S
C125 C124 1.387 . S
C125 C127 1.387 . S
H126 C133 0.950 . S
C127 C125 1.387 . S
C127 C129 1.390 . S
C127 H131 0.950 . S
H128 C124 0.950 . S
C129 C127 1.390 . S
C129 C130 1.387 . S
C129 H132 0.950 . S
C130 C129 1.387 . S
C130 C133 1.387 . S
H131 C127 0.950 . S
H132 C129 0.950 . S
C133 C124 1.390 . S
C133 H126 0.950 . S
C133 C130 1.387 . S
C134 C135 1.387 . S
C134 H138 0.950 . S
C134 C143 1.390 . S
C135 C134 1.387 . S
C135 C137 1.387 . S
H136 C143 0.950 . S
C137 C135 1.387 . S
C137 C139 1.390 . S
C137 H141 0.950 . S
H138 C134 0.950 . S
C139 C137 1.390 . S
C139 C140 1.387 . S
C139 H142 0.950 . S
C140 C139 1.387 . S
C140 C143 1.387 . S
H141 C137 0.950 . S
H142 C139 0.950 . S
C143 C134 1.390 . S
C143 H136 0.950 . S
C143 C140 1.387 . S
C144 C145 1.387 . S
C144 H148 0.950 . S
C144 C153 1.390 . S
C145 C144 1.387 . S
C145 C147 1.387 . S
H146 C153 0.950 . S
C147 C145 1.387 . S
C147 C149 1.390 . S
C147 H151 0.950 . S
H148 C144 0.950 . S
C149 C147 1.390 . S
C149 C150 1.387 . S
C149 H152 0.950 . S
C150 C149 1.387 . S
C150 C153 1.387 . S
H151 C147 0.950 . S
H152 C149 0.950 . S
C153 C144 1.390 . S
C153 H146 0.950 . S
C153 C150 1.387 . S
C154 C155 1.387 . S
C154 H158 0.950 . S
C154 C163 1.390 . S
C155 C154 1.387 . S
C155 C157 1.387 . S
H156 C163 0.950 . S
C157 C155 1.387 . S
C157 C159 1.390 . S
C157 H161 0.950 . S
H158 C154 0.950 . S
C159 C157 1.390 . S
C159 C160 1.387 . S
C159 H162 0.950 . S
C160 C159 1.387 . S
C160 C163 1.387 . S
H161 C157 0.950 . S
H162 C159 0.950 . S
C163 C154 1.390 . S
C163 H156 0.950 . S
C163 C160 1.387 . S
C164 C165 1.387 . S
C164 H168 0.950 . S
C164 C173 1.390 . S
C165 C164 1.387 . S
C165 C167 1.387 . S
H166 C173 0.950 . S
C167 C165 1.387 . S
C167 C169 1.390 . S
C167 H171 0.950 . S
H168 C164 0.950 . S
C169 C167 1.390 . S
C169 C170 1.387 . S
C169 H172 0.950 . S
C170 C169 1.387 . S
C170 C173 1.387 . S
H171 C167 0.950 . S
H172 C169 0.950 . S
C173 C164 1.390 . S
C173 H166 0.950 . S
C173 C170 1.387 . S
C174 C175 1.387 . S
C174 H178 0.950 . S
C174 C183 1.390 . S
C175 C174 1.387 . S
C175 C177 1.387 . S
H176 C183 0.950 . S
C177 C175 1.387 . S
C177 C179 1.390 . S
C177 H181 0.950 . S
H178 C174 0.950 . S
C179 C177 1.390 . S
C179 C180 1.387 . S
C179 H182 0.950 . S
C180 C179 1.387 . S
C180 C183 1.387 . S
H181 C177 0.950 . S
H182 C179 0.950 . S
C183 C174 1.390 . S
C183 H176 0.950 . S
C183 C180 1.387 . S
C184 C185 1.387 . S
C184 H188 0.950 . S
C184 C193 1.390 . S
C185 C184 1.387 . S
C185 C187 1.387 . S
H186 C193 0.950 . S
C187 C185 1.387 . S
C187 C189 1.390 . S
C187 H191 0.950 . S
H188 C184 0.950 . S
C189 C187 1.390 . S
C189 C190 1.387 . S
C189 H192 0.950 . S
C190 C189 1.387 . S
C190 C193 1.387 . S
H191 C187 0.950 . S
H192 C189 0.950 . S
C193 C184 1.390 . S
C193 H186 0.950 . S
C193 C190 1.387 . S
C194 C195 1.387 . S
C194 H198 0.950 . S
C194 C203 1.390 . S
C195 C194 1.387 . S
C195 C197 1.387 . S
H196 C203 0.950 . S
C197 C195 1.387 . S
C197 C199 1.390 . S
C197 H201 0.950 . S
H198 C194 0.950 . S
C199 C197 1.390 . S
C199 C200 1.387 . S
C199 H202 0.950 . S
C200 C199 1.387 . S
C200 C203 1.387 . S
H201 C197 0.950 . S
H202 C199 0.950 . S
C203 C194 1.390 . S
C203 H196 0.950 . S
C203 C200 1.387 . S
C204 C205 1.387 . S
C204 H208 0.950 . S
C204 C213 1.390 . S
C205 C204 1.387 . S
C205 C207 1.387 . S
H206 C213 0.950 . S
C207 C205 1.387 . S
C207 C209 1.390 . S
C207 H211 0.950 . S
H208 C204 0.950 . S
C209 C207 1.390 . S
C209 C210 1.387 . S
C209 H212 0.950 . S
C210 C209 1.387 . S
C210 C213 1.387 . S
H211 C207 0.950 . S
H212 C209 0.950 . S
C213 C204 1.390 . S
C213 H206 0.950 . S
C213 C210 1.387 . S
C214 C215 1.387 . S
C214 H218 0.950 . S
C214 C223 1.390 . S
C215 C214 1.387 . S
C215 C217 1.387 . S
H216 C223 0.950 . S
C217 C215 1.387 . S
C217 C219 1.390 . S
C217 H221 0.950 . S
H218 C214 0.950 . S
C219 C217 1.390 . S
C219 C220 1.387 . S
C219 H222 0.950 . S
C220 C219 1.387 . S
C220 C223 1.387 . S
H221 C217 0.950 . S
H222 C219 0.950 . S
C223 C214 1.390 . S
C223 H216 0.950 . S
C223 C220 1.387 . S
C224 C225 1.387 . S
C224 H228 0.950 . S
C224 C233 1.390 . S
C225 C224 1.387 . S
C225 C227 1.387 . S
H226 C233 0.950 . S
C227 C225 1.387 . S
C227 C229 1.390 . S
C227 H231 0.950 . S
H228 C224 0.950 . S
C229 C227 1.390 . S
C229 C230 1.387 . S
C229 H232 0.950 . S
C230 C229 1.387 . S
C230 C233 1.387 . S
H231 C227 0.950 . S
H232 C229 0.950 . S
C233 C224 1.390 . S
C233 H226 0.950 . S
C233 C230 1.387 . S
C234 C235 1.387 1_655 S
C234 H238 0.950 . S
C234 C243 1.390 1_554 S
C235 C234 1.387 1_455 S
C235 C237 1.387 . S
H236 C243 0.950 . S
C237 C235 1.387 . S
C237 C239 1.390 1_554 S
C237 H241 0.950 . S
H238 C234 0.950 . S
C239 C237 1.390 1_556 S
C239 C240 1.387 . S
C239 H242 0.950 . S
C240 C239 1.387 . S
C240 C243 1.387 1_455 S
H241 C237 0.950 . S
H242 C239 0.950 . S
C243 C234 1.390 1_556 S
C243 H236 0.950 . S
C243 C240 1.387 1_655 S
C244 C245 1.387 . S
C244 H248 0.950 . S
C244 C253 1.390 . S
C245 C244 1.387 . S
C245 C247 1.387 1_545 S
H246 C253 0.950 . S
C247 C245 1.387 1_565 S
C247 C249 1.390 . S
C247 H251 0.950 . S
H248 C244 0.950 . S
C249 C247 1.390 . S
C249 C250 1.387 1_565 S
C249 H252 0.950 . S
C250 C249 1.387 1_545 S
C250 C253 1.387 . S
H251 C247 0.950 . S
H252 C249 0.950 . S
C253 C244 1.390 . S
C253 H246 0.950 . S
C253 C250 1.387 . S
C254 C255 1.387 . S
C254 H258 0.950 . S
C254 C263 1.390 . S
C255 C254 1.387 . S
C255 C257 1.387 . S
H256 C263 0.950 . S
C257 C255 1.387 . S
C257 C259 1.390 . S
C257 H261 0.950 . S
H258 C254 0.950 . S
C259 C257 1.390 . S
C259 C260 1.387 . S
C259 H262 0.950 . S
C260 C259 1.387 . S
C260 C263 1.387 . S
H261 C257 0.950 . S
H262 C259 0.950 . S
C263 C254 1.390 . S
C263 H256 0.950 . S
C263 C260 1.387 . S
C264 C265 1.387 . S
C264 H268 0.950 . S
C264 C273 1.390 . S
C265 C264 1.387 . S
C265 C267 1.387 1_545 S
H266 C273 0.950 . S
C267 C265 1.387 1_565 S
C267 C269 1.390 . S
C267 H271 0.950 . S
H268 C264 0.950 . S
C269 C267 1.390 . S
C269 C270 1.387 1_565 S
C269 H272 0.950 . S
C270 C269 1.387 1_545 S
C270 C273 1.387 . S
H271 C267 0.950 . S
H272 C269 0.950 . S
C273 C264 1.390 . S
C273 H266 0.950 . S
C273 C270 1.387 . S
C274 C275 1.387 . S
C274 H278 0.950 . S
C274 C283 1.390 1_556 S
C275 C274 1.387 . S
C275 C277 1.387 . S
H276 C283 0.950 . S
C277 C275 1.387 . S
C277 C279 1.390 1_556 S
C277 H281 0.950 . S
H278 C274 0.950 . S
C279 C277 1.390 1_554 S
C279 C280 1.387 . S
C279 H282 0.950 . S
C280 C279 1.387 . S
C280 C283 1.387 . S
H281 C277 0.950 . S
H282 C279 0.950 . S
C283 C274 1.390 1_554 S
C283 H276 0.950 . S
C283 C280 1.387 . S
C284 C285 1.387 . S
C284 H288 0.950 . S
C284 C293 1.390 . S
C285 C284 1.387 . S
C285 C287 1.387 1_455 S
H286 C293 0.950 . S
C287 C285 1.387 1_655 S
C287 C289 1.390 . S
C287 H291 0.950 . S
H288 C284 0.950 . S
C289 C287 1.390 . S
C289 C290 1.392 . S
C289 H292 0.950 . S
C290 C289 1.392 . S
C290 C293 1.383 1_655 S
H291 C287 0.950 . S
H292 C289 0.950 . S
C293 C284 1.390 . S
C293 H286 0.950 . S
C293 C290 1.383 1_455 S
C115 C8 1.879 . S
C120 C109 1.925 . S
C125 C26 1.360 . S
C130 C91 1.393 . S
C135 C48 1.475 . S
C140 C103 1.524 . S
C145 C19 1.790 . S
C150 C112 1.869 . S
C160 C94 1.434 . S
C155 C36 1.389 . S
C170 C100 1.649 . S
C165 C59 1.540 . S
C175 C28 1.496 . S
C180 C73 1.543 . S
C185 C46 1.148 . S
C190 C82 1.190 1_655 S
C195 C16 1.430 . S
C200 C64 1.474 . S
C210 C76 1.614 . S
C205 C39 1.537 . S
C220 C85 1.093 . S
C215 C56 1.041 . S
C225 C6 1.434 . S
C230 C67 1.449 . S
C240 C83 1.453 . S
C235 C9 1.409 . S
C245 C21 1.489 . S
C250 C65 1.510 . S
C255 C49 1.464 . S
C260 C74 1.486 . S
C270 C101 1.470 . S
C265 C29 1.455 . S
C280 C110 1.585 . S
C275 C41 1.564 . S
C285 C1 1.491 . S
C290 C92 1.511 . S
