# Generated by pormake.
# Topology eea, (3,6)-cn, num edge types: 1
# Building blocks:
#     Node 0, Type 0, BuildingBlock: CUQRIR_clean_linker_1, # of connection points: 3
#     Node 1, Type 0, BuildingBlock: CUQRIR_clean_linker_1, # of connection points: 3
#     Node 2, Type 0, BuildingBlock: CUQRIR_clean_linker_1, # of connection points: 3
#     Node 3, Type 0, BuildingBlock: CUQRIR_clean_linker_1, # of connection points: 3
#     Node 4, Type 0, BuildingBlock: CUQRIR_clean_linker_1, # of connection points: 3
#     Node 5, Type 0, BuildingBlock: CUQRIR_clean_linker_1, # of connection points: 3
#     Node 6, Type 0, BuildingBlock: CUQRIR_clean_linker_1, # of connection points: 3
#     Node 7, Type 0, BuildingBlock: CUQRIR_clean_linker_1, # of connection points: 3
#     Node 8, Type 0, BuildingBlock: CUQRIR_clean_linker_1, # of connection points: 3
#     Node 9, Type 0, BuildingBlock: CUQRIR_clean_linker_1, # of connection points: 3
#     Node 10, Type 0, BuildingBlock: CUQRIR_clean_linker_1, # of connection points: 3
#     Node 11, Type 0, BuildingBlock: CUQRIR_clean_linker_1, # of connection points: 3
#     Node 12, Type 0, BuildingBlock: CUQRIR_clean_linker_1, # of connection points: 3
#     Node 13, Type 0, BuildingBlock: CUQRIR_clean_linker_1, # of connection points: 3
#     Node 14, Type 0, BuildingBlock: CUQRIR_clean_linker_1, # of connection points: 3
#     Node 15, Type 0, BuildingBlock: CUQRIR_clean_linker_1, # of connection points: 3
#     Node 16, Type 0, BuildingBlock: CUQRIR_clean_linker_1, # of connection points: 3
#     Node 17, Type 0, BuildingBlock: CUQRIR_clean_linker_1, # of connection points: 3
#     Node 18, Type 1, BuildingBlock: NUHQIS_clean_sbu_0, # of connection points: 6
#     Node 19, Type 1, BuildingBlock: NUHQIS_clean_sbu_0, # of connection points: 6
#     Node 20, Type 1, BuildingBlock: NUHQIS_clean_sbu_0, # of connection points: 6
#     Node 21, Type 1, BuildingBlock: NUHQIS_clean_sbu_0, # of connection points: 6
#     Node 22, Type 1, BuildingBlock: NUHQIS_clean_sbu_0, # of connection points: 6
#     Node 23, Type 1, BuildingBlock: NUHQIS_clean_sbu_0, # of connection points: 6
#     Node 24, Type 1, BuildingBlock: NUHQIS_clean_sbu_0, # of connection points: 6
#     Node 25, Type 1, BuildingBlock: NUHQIS_clean_sbu_0, # of connection points: 6
#     Node 26, Type 1, BuildingBlock: NUHQIS_clean_sbu_0, # of connection points: 6
#     Edge 27, Type (0, 1), BuildingBlock: XIVTED_clean_linker_0, # of connection points: 2
#     Edge 28, Type (0, 1), BuildingBlock: XIVTED_clean_linker_0, # of connection points: 2
#     Edge 29, Type (0, 1), BuildingBlock: XIVTED_clean_linker_0, # of connection points: 2
#     Edge 30, Type (0, 1), BuildingBlock: XIVTED_clean_linker_0, # of connection points: 2
#     Edge 31, Type (0, 1), BuildingBlock: XIVTED_clean_linker_0, # of connection points: 2
#     Edge 32, Type (0, 1), BuildingBlock: XIVTED_clean_linker_0, # of connection points: 2
#     Edge 33, Type (0, 1), BuildingBlock: XIVTED_clean_linker_0, # of connection points: 2
#     Edge 34, Type (0, 1), BuildingBlock: XIVTED_clean_linker_0, # of connection points: 2
#     Edge 35, Type (0, 1), BuildingBlock: XIVTED_clean_linker_0, # of connection points: 2
#     Edge 36, Type (0, 1), BuildingBlock: XIVTED_clean_linker_0, # of connection points: 2
#     Edge 37, Type (0, 1), BuildingBlock: XIVTED_clean_linker_0, # of connection points: 2
#     Edge 38, Type (0, 1), BuildingBlock: XIVTED_clean_linker_0, # of connection points: 2
#     Edge 39, Type (0, 1), BuildingBlock: XIVTED_clean_linker_0, # of connection points: 2
#     Edge 40, Type (0, 1), BuildingBlock: XIVTED_clean_linker_0, # of connection points: 2
#     Edge 41, Type (0, 1), BuildingBlock: XIVTED_clean_linker_0, # of connection points: 2
#     Edge 42, Type (0, 1), BuildingBlock: XIVTED_clean_linker_0, # of connection points: 2
#     Edge 43, Type (0, 1), BuildingBlock: XIVTED_clean_linker_0, # of connection points: 2
#     Edge 44, Type (0, 1), BuildingBlock: XIVTED_clean_linker_0, # of connection points: 2
#     Edge 45, Type (0, 1), BuildingBlock: XIVTED_clean_linker_0, # of connection points: 2
#     Edge 46, Type (0, 1), BuildingBlock: XIVTED_clean_linker_0, # of connection points: 2
#     Edge 47, Type (0, 1), BuildingBlock: XIVTED_clean_linker_0, # of connection points: 2
#     Edge 48, Type (0, 1), BuildingBlock: XIVTED_clean_linker_0, # of connection points: 2
#     Edge 49, Type (0, 1), BuildingBlock: XIVTED_clean_linker_0, # of connection points: 2
#     Edge 50, Type (0, 1), BuildingBlock: XIVTED_clean_linker_0, # of connection points: 2
#     Edge 51, Type (0, 1), BuildingBlock: XIVTED_clean_linker_0, # of connection points: 2
#     Edge 52, Type (0, 1), BuildingBlock: XIVTED_clean_linker_0, # of connection points: 2
#     Edge 53, Type (0, 1), BuildingBlock: XIVTED_clean_linker_0, # of connection points: 2
#     Edge 54, Type (0, 1), BuildingBlock: XIVTED_clean_linker_0, # of connection points: 2
#     Edge 55, Type (0, 1), BuildingBlock: XIVTED_clean_linker_0, # of connection points: 2
#     Edge 56, Type (0, 1), BuildingBlock: XIVTED_clean_linker_0, # of connection points: 2
#     Edge 57, Type (0, 1), BuildingBlock: XIVTED_clean_linker_0, # of connection points: 2
#     Edge 58, Type (0, 1), BuildingBlock: XIVTED_clean_linker_0, # of connection points: 2
#     Edge 59, Type (0, 1), BuildingBlock: XIVTED_clean_linker_0, # of connection points: 2
#     Edge 60, Type (0, 1), BuildingBlock: XIVTED_clean_linker_0, # of connection points: 2
#     Edge 61, Type (0, 1), BuildingBlock: XIVTED_clean_linker_0, # of connection points: 2
#     Edge 62, Type (0, 1), BuildingBlock: XIVTED_clean_linker_0, # of connection points: 2
#     Edge 63, Type (0, 1), BuildingBlock: XIVTED_clean_linker_0, # of connection points: 2
#     Edge 64, Type (0, 1), BuildingBlock: XIVTED_clean_linker_0, # of connection points: 2
#     Edge 65, Type (0, 1), BuildingBlock: XIVTED_clean_linker_0, # of connection points: 2
#     Edge 66, Type (0, 1), BuildingBlock: XIVTED_clean_linker_0, # of connection points: 2
#     Edge 67, Type (0, 1), BuildingBlock: XIVTED_clean_linker_0, # of connection points: 2
#     Edge 68, Type (0, 1), BuildingBlock: XIVTED_clean_linker_0, # of connection points: 2
#     Edge 69, Type (0, 1), BuildingBlock: XIVTED_clean_linker_0, # of connection points: 2
#     Edge 70, Type (0, 1), BuildingBlock: XIVTED_clean_linker_0, # of connection points: 2
#     Edge 71, Type (0, 1), BuildingBlock: XIVTED_clean_linker_0, # of connection points: 2
#     Edge 72, Type (0, 1), BuildingBlock: XIVTED_clean_linker_0, # of connection points: 2
#     Edge 73, Type (0, 1), BuildingBlock: XIVTED_clean_linker_0, # of connection points: 2
#     Edge 74, Type (0, 1), BuildingBlock: XIVTED_clean_linker_0, # of connection points: 2
#     Edge 75, Type (0, 1), BuildingBlock: XIVTED_clean_linker_0, # of connection points: 2
#     Edge 76, Type (0, 1), BuildingBlock: XIVTED_clean_linker_0, # of connection points: 2
#     Edge 77, Type (0, 1), BuildingBlock: XIVTED_clean_linker_0, # of connection points: 2
#     Edge 78, Type (0, 1), BuildingBlock: XIVTED_clean_linker_0, # of connection points: 2
#     Edge 79, Type (0, 1), BuildingBlock: XIVTED_clean_linker_0, # of connection points: 2
#     Edge 80, Type (0, 1), BuildingBlock: XIVTED_clean_linker_0, # of connection points: 2
# Relax obj value: 0.106
# Max RMSD: 0.248
# Mean RMSD: 0.181
data_MOF--net-eea--node1-NUHQIS_clean_sbu_0--node2-CUQRIR_clean_linker_1--edge1-XIVTED_clean_linker_0
_symmetry_space_group_name_H-M    P1
_symmetry_Int_Tables_number       1
_symmetry_cell_setting            triclinic
loop_
_symmetry_equiv_pos_as_xyz
'x, y, z'
_cell_length_a     49.810887
_cell_length_b     51.62516
_cell_length_c     65.776066
_cell_angle_alpha  86.066067
_cell_angle_beta   93.933355
_cell_angle_gamma 120.06981
loop_
_atom_site_label
_atom_site_type_symbol
_atom_site_fract_x
_atom_site_fract_y
_atom_site_fract_z
_atom_type_partial_charge
C0 C 0.21286 0.10682 0.40533 0.0
N1 N 0.22456 0.13053 0.41754 0.0
N2 N 0.22267 0.08751 0.4122 0.0
C3 C 0.19136 0.10209 0.38698 0.0
C4 C 0.24095 0.1004 0.42888 0.0
N5 N 0.24237 0.1267 0.43199 0.0
C6 C 0.25624 0.08673 0.44275 0.0
H7 H 0.16705 0.08988 0.39193 0.0
H8 H 0.19371 0.08848 0.37567 0.0
H9 H 0.19604 0.12384 0.37957 0.0
H10 H 0.25121 0.06464 0.43769 0.0
H11 H 0.24833 0.08427 0.4585 0.0
H12 H 0.28175 0.10191 0.44316 0.0
C13 C 0.89194 0.11864 0.41315 0.0
N14 N 0.90677 0.14165 0.426 0.0
N15 N 0.8674 0.09507 0.42218 0.0
C16 C 0.90096 0.11958 0.3916 0.0
C17 C 0.86803 0.10443 0.44101 0.0
N18 N 0.8921 0.13255 0.44345 0.0
C19 C 0.84454 0.0864 0.45686 0.0
H20 H 0.89076 0.09697 0.3855 0.0
H21 H 0.9266 0.1311 0.39081 0.0
H22 H 0.89249 0.13245 0.38166 0.0
H23 H 0.83368 0.06203 0.45457 0.0
H24 H 0.82611 0.09259 0.45565 0.0
H25 H 0.85541 0.09128 0.47244 0.0
C26 C 0.86907 0.75304 0.40955 0.0
N27 N 0.88596 0.74367 0.42163 0.0
N28 N 0.84407 0.74879 0.41932 0.0
C29 C 0.87905 0.76989 0.38932 0.0
C30 C 0.84646 0.73686 0.43782 0.0
N31 N 0.87198 0.7339 0.43928 0.0
C32 C 0.824 0.72823 0.45456 0.0
H33 H 0.90473 0.78282 0.38868 0.0
H34 H 0.87004 0.78563 0.38645 0.0
H35 H 0.86975 0.75363 0.37698 0.0
H36 H 0.80078 0.72339 0.44826 0.0
H37 H 0.83294 0.74702 0.46503 0.0
H38 H 0.82179 0.7083 0.46353 0.0
C39 C 0.12168 0.27271 0.65378 0.0
N40 N 0.14483 0.27941 0.64114 0.0
N41 N 0.10418 0.28475 0.64631 0.0
C42 C 0.11471 0.25273 0.67276 0.0
C43 C 0.11781 0.29936 0.62879 0.0
N44 N 0.14276 0.29646 0.62577 0.0
C45 C 0.10461 0.31337 0.61343 0.0
H46 H 0.09667 0.22959 0.66896 0.0
H47 H 0.10557 0.26031 0.68452 0.0
H48 H 0.13577 0.25251 0.67921 0.0
H49 H 0.08687 0.31681 0.62018 0.0
H50 H 0.09384 0.29855 0.60033 0.0
H51 H 0.12341 0.33522 0.60755 0.0
C52 C 0.78622 0.89593 0.64451 0.0
N53 N 0.77502 0.87305 0.6316 0.0
N54 N 0.78401 0.91931 0.63563 0.0
C55 C 0.80191 0.89653 0.665 0.0
C56 C 0.77117 0.90984 0.61685 0.0
N57 N 0.76607 0.88194 0.61434 0.0
C58 C 0.76194 0.92707 0.60131 0.0
H59 H 0.78418 0.88698 0.6768 0.0
H60 H 0.81941 0.91979 0.66892 0.0
H61 H 0.81347 0.8829 0.66523 0.0
H62 H 0.78151 0.94061 0.59112 0.0
H63 H 0.75639 0.94233 0.60881 0.0
H64 H 0.74152 0.91168 0.59177 0.0
C65 C 0.10146 0.90325 0.63272 0.0
N66 N 0.08661 0.87901 0.62089 0.0
N67 N 0.12908 0.92372 0.62492 0.0
C68 C 0.08841 0.90744 0.6514 0.0
C69 C 0.13062 0.91099 0.60806 0.0
N70 N 0.10501 0.88379 0.60568 0.0
C71 C 0.15686 0.92543 0.59363 0.0
H72 H 0.07365 0.91744 0.64665 0.0
H73 H 0.10696 0.92272 0.66206 0.0
H74 H 0.07385 0.8856 0.65949 0.0
H75 H 0.17887 0.9414 0.6016 0.0
H76 H 0.15124 0.93792 0.58128 0.0
H77 H 0.16002 0.90829 0.58655 0.0
C78 C 0.87748 0.43896 0.74033 0.0
N79 N 0.88862 0.46278 0.7524 0.0
N80 N 0.8868 0.41955 0.74792 0.0
C81 C 0.85651 0.43401 0.72166 0.0
C82 C 0.90418 0.4325 0.76487 0.0
N83 N 0.90556 0.45888 0.76747 0.0
C84 C 0.91825 0.41853 0.77955 0.0
H85 H 0.83202 0.42158 0.72627 0.0
H86 H 0.85944 0.42053 0.71055 0.0
H87 H 0.86114 0.45568 0.71413 0.0
H88 H 0.94078 0.43594 0.78613 0.0
H89 H 0.92181 0.402 0.77197 0.0
H90 H 0.90234 0.4069 0.79225 0.0
C91 C 0.56098 0.45333 0.74804 0.0
N92 N 0.57555 0.47683 0.76053 0.0
N93 N 0.53441 0.43122 0.75618 0.0
C94 C 0.57413 0.45084 0.72881 0.0
C95 C 0.53342 0.4421 0.77412 0.0
N96 N 0.55848 0.46959 0.77686 0.0
C97 C 0.50725 0.42655 0.78861 0.0
H98 H 0.5661 0.46034 0.71574 0.0
H99 H 0.56621 0.42711 0.72591 0.0
H100 H 0.59988 0.46355 0.72974 0.0
H101 H 0.51264 0.41282 0.80005 0.0
H102 H 0.48502 0.41167 0.78038 0.0
H103 H 0.50441 0.44298 0.79689 0.0
C104 C 0.5403 0.09429 0.73856 0.0
N105 N 0.55634 0.08424 0.75096 0.0
N106 N 0.51508 0.09046 0.74787 0.0
C107 C 0.55122 0.11119 0.71846 0.0
C108 C 0.51641 0.07796 0.76638 0.0
N109 N 0.54151 0.07432 0.76832 0.0
C110 C 0.49332 0.06943 0.78269 0.0
H111 H 0.54292 0.12746 0.71543 0.0
H112 H 0.54184 0.09503 0.70605 0.0
H113 H 0.57694 0.12348 0.71816 0.0
H114 H 0.47045 0.0651 0.77599 0.0
H115 H 0.50215 0.08805 0.7933 0.0
H116 H 0.49034 0.0492 0.79163 0.0
C117 C 0.78735 0.60379 0.98308 0.0
N118 N 0.81073 0.61241 0.97021 0.0
N119 N 0.76406 0.60706 0.97375 0.0
C120 C 0.78537 0.58833 1.00368 0.0
C121 C 0.77401 0.61768 0.95474 0.0
N122 N 0.80221 0.62071 0.95252 0.0
C123 C 0.75595 0.62475 0.93822 0.0
H124 H 0.76098 0.57359 1.00804 0.0
H125 H 0.79746 0.60558 1.01528 0.0
H126 H 0.79688 0.57465 1.00387 0.0
H127 H 0.77193 0.64395 0.92832 0.0
H128 H 0.73943 0.63002 0.94486 0.0
H129 H 0.7426 0.60504 0.9286 0.0
C130 C 0.44906 0.22925 0.97586 0.0
N131 N 0.43946 0.20659 0.96292 0.0
N132 N 0.44473 0.25149 0.96703 0.0
C133 C 0.46545 0.23103 0.99624 0.0
C134 C 0.43223 0.24151 0.94828 0.0
N135 N 0.42934 0.21447 0.94573 0.0
C136 C 0.42128 0.25736 0.93273 0.0
H137 H 0.44799 0.22088 1.00821 0.0
H138 H 0.482 0.25465 0.99994 0.0
H139 H 0.47828 0.21858 0.99646 0.0
H140 H 0.44039 0.27167 0.92238 0.0
H141 H 0.41442 0.27168 0.9402 0.0
H142 H 0.40125 0.24102 0.92335 0.0
C143 C 0.77136 0.23875 0.96818 0.0
N144 N 0.75837 0.21432 0.9565 0.0
N145 N 0.8007 0.25846 0.96253 0.0
C146 C 0.75485 0.24384 0.98447 0.0
C147 C 0.80513 0.24497 0.94718 0.0
N148 N 0.7796 0.2181 0.94364 0.0
C149 C 0.83405 0.25849 0.93512 0.0
H150 H 0.74013 0.25263 0.97715 0.0
H151 H 0.77115 0.26033 0.99551 0.0
H152 H 0.73963 0.22247 0.99284 0.0
H153 H 0.85453 0.27493 0.94413 0.0
H154 H 0.83078 0.27013 0.92117 0.0
H155 H 0.83853 0.24087 0.93032 0.0
C156 C 0.54483 0.77271 0.07436 0.0
N157 N 0.55332 0.7959 0.0866 0.0
N158 N 0.55044 0.75167 0.08397 0.0
C159 C 0.53342 0.77181 0.0525 0.0
C160 C 0.56272 0.76303 0.1025 0.0
N161 N 0.56466 0.78991 0.10398 0.0
C162 C 0.57116 0.74721 0.11964 0.0
H163 H 0.50771 0.76072 0.05189 0.0
H164 H 0.54036 0.75898 0.04337 0.0
H165 H 0.54274 0.7948 0.04563 0.0
H166 H 0.59564 0.75299 0.1183 0.0
H167 H 0.5561 0.72256 0.11894 0.0
H168 H 0.56905 0.7543 0.1347 0.0
C169 C 0.2289 0.79064 0.08098 0.0
N170 N 0.24517 0.81383 0.0936 0.0
N171 N 0.20074 0.77105 0.08841 0.0
C172 C 0.24064 0.78677 0.06155 0.0
C173 C 0.20019 0.78317 0.10584 0.0
N174 N 0.22697 0.80922 0.10895 0.0
C175 C 0.17366 0.7692 0.12007 0.0
H176 H 0.22137 0.77366 0.05054 0.0
H177 H 0.2534 0.77443 0.06517 0.0
H178 H 0.25663 0.80882 0.05423 0.0
H179 H 0.17879 0.75659 0.13258 0.0
H180 H 0.15159 0.75351 0.11203 0.0
H181 H 0.17082 0.78664 0.12698 0.0
C182 C 0.22314 0.45829 0.08513 0.0
N183 N 0.23918 0.44872 0.09788 0.0
N184 N 0.19519 0.4499 0.09264 0.0
C185 C 0.23348 0.47333 0.06444 0.0
C186 C 0.19463 0.4346 0.1103 0.0
N187 N 0.22122 0.4336 0.11336 0.0
C188 C 0.16883 0.42192 0.12508 0.0
H189 H 0.2475 0.49792 0.0661 0.0
H190 H 0.21328 0.46846 0.05391 0.0
H191 H 0.24806 0.46581 0.05762 0.0
H192 H 0.1521 0.39834 0.12141 0.0
H193 H 0.15634 0.43475 0.12396 0.0
H194 H 0.17788 0.42211 0.14098 0.0
C195 C 0.43501 0.89825 0.30302 0.0
N196 N 0.45824 0.90649 0.29017 0.0
N197 N 0.41507 0.9074 0.29533 0.0
C198 C 0.43357 0.88396 0.32398 0.0
C199 C 0.42738 0.92196 0.27746 0.0
N200 N 0.45382 0.92167 0.27448 0.0
C201 C 0.41235 0.93423 0.26212 0.0
H202 H 0.42083 0.85925 0.3229 0.0
H203 H 0.42138 0.89018 0.33447 0.0
H204 H 0.45725 0.89091 0.33049 0.0
H205 H 0.42041 0.95784 0.26549 0.0
H206 H 0.38669 0.92122 0.26289 0.0
H207 H 0.41887 0.93377 0.24641 0.0
C208 C 0.1159 0.56121 0.31133 0.0
N209 N 0.10667 0.53859 0.29842 0.0
N210 N 0.11172 0.58336 0.30228 0.0
C211 C 0.12938 0.5622 0.33266 0.0
C212 C 0.09982 0.57351 0.28343 0.0
N213 N 0.09698 0.54646 0.28104 0.0
C214 C 0.09099 0.59029 0.26727 0.0
H215 H 0.11921 0.57072 0.34307 0.0
H216 H 0.15476 0.57801 0.33265 0.0
H217 H 0.12572 0.54014 0.3386 0.0
H218 H 0.10477 0.61479 0.26936 0.0
H219 H 0.06602 0.58292 0.26836 0.0
H220 H 0.09451 0.58541 0.25182 0.0
C221 C 0.43607 0.56563 0.3017 0.0
N222 N 0.42083 0.54146 0.28984 0.0
N223 N 0.46371 0.58583 0.29381 0.0
C224 C 0.42341 0.56998 0.32051 0.0
C225 C 0.46484 0.57304 0.27685 0.0
N226 N 0.43898 0.54602 0.27453 0.0
C227 C 0.49091 0.58724 0.26229 0.0
H228 H 0.4087 0.58007 0.31591 0.0
H229 H 0.44216 0.58522 0.33109 0.0
H230 H 0.4089 0.54818 0.32866 0.0
H231 H 0.49382 0.56995 0.2552 0.0
H232 H 0.51305 0.60316 0.27015 0.0
H233 H 0.48526 0.59973 0.24996 0.0
Tb234 Tb 0.49452 0.98989 1.00252 0.0
Eu235 Eu 0.51735 0.02496 0.04566 0.0
C236 C 0.51918 0.96523 0.03925 0.0
C237 C 0.44905 0.96749 0.03984 0.0
C238 C 0.49489 0.97632 0.94809 0.0
C239 C 0.48951 0.97049 0.91148 0.0
C240 C 0.47789 0.96041 0.93096 0.0
C241 C 0.52379 1.00236 0.94557 0.0
C242 C 0.53552 0.01237 0.92613 0.0
C243 C 0.51844 0.99667 0.90879 0.0
C244 C 0.48244 0.96565 0.96851 0.0
O245 O 0.49161 0.03051 0.99641 0.0
O246 O 0.487 0.04084 0.029 0.0
O247 O 0.54754 0.05694 0.02134 0.0
O248 O 0.5447 0.02089 1.00176 0.0
C249 C 0.48385 0.04399 1.00914 0.0
O250 O 0.50972 0.04199 0.07285 0.0
O251 O 0.55565 0.04973 0.06741 0.0
O252 O 0.53518 0.99238 0.04607 0.0
O253 O 0.49723 0.95854 0.02504 0.0
O254 O 0.45206 0.96937 0.01989 0.0
O255 O 0.47227 0.98337 0.05262 0.0
C256 C 0.55847 0.04895 1.00696 0.0
O257 O 0.50173 0.96439 0.98242 0.0
O258 O 0.46711 0.97743 0.97528 0.0
C259 C 0.53982 0.04046 0.10141 0.0
C260 C 0.53734 0.01684 0.14162 0.0
C261 C 0.53491 0.04276 0.13757 0.0
C262 C 0.53619 0.05446 0.11764 0.0
C263 C 0.54298 0.01503 0.10535 0.0
C264 C 0.54194 1.00342 0.12529 0.0
C265 C 0.5378 0.05114 0.0804 0.0
H266 H 0.47546 0.95813 0.89849 0.0
H267 H 0.4555 0.94031 0.93264 0.0
H268 H 0.5373 0.01496 0.95864 0.0
H269 H 0.55801 0.03239 0.9247 0.0
H270 H 0.53077 0.05338 0.14966 0.0
H271 H 0.53339 0.07392 0.11484 0.0
H272 H 0.54557 0.00373 0.09297 0.0
H273 H 0.54426 0.98368 0.12787 0.0
Tb274 Tb 0.00924 0.52809 1.00202 0.0
Eu275 Eu 0.97937 0.50703 0.04766 0.0
C276 C 0.03861 0.57051 0.0392 0.0
C277 C 0.0361 0.50009 0.03509 0.0
C278 C 0.01678 0.53945 0.94587 0.0
C279 C 0.9749 0.53207 0.92144 0.0
C280 C 0.98752 0.53672 0.94139 0.0
C281 C 0.03312 0.53727 0.9302 0.0
C282 C 0.02043 0.53238 0.91028 0.0
C283 C 0.99115 0.52973 0.90563 0.0
C284 C 0.03042 0.54433 0.96677 0.0
O285 O 0.97662 0.47998 1.00086 0.0
O286 O 0.94397 0.47324 0.02633 0.0
O287 O 0.96155 0.53598 0.03195 0.0
O288 O 0.96487 0.52638 0.99903 0.0
C289 C 0.95028 0.46393 1.01018 0.0
O290 O 0.9583 0.47264 0.07194 0.0
O291 O 0.96666 0.51745 0.07579 0.0
O292 O 0.0268 0.54723 0.05199 0.0
O293 O 0.02922 0.56822 0.01989 0.0
O294 O 0.04288 0.52164 0.02113 0.0
O295 O 0.00948 0.48686 0.04406 0.0
C296 C 0.95433 0.53643 1.0124 0.0
O297 O 0.024 0.56029 0.97793 0.0
O298 O 0.02839 0.52086 0.97692 0.0
C299 C 0.97288 0.49133 0.10495 0.0
C300 C -0.00051 0.49127 0.14428 0.0
C301 C 0.96799 0.47083 0.13974 0.0
C302 C 0.95483 0.47092 0.12026 0.0
C303 C 0.00442 0.51139 0.10923 0.0
C304 C 0.01757 0.51145 0.12872 0.0
C305 C 0.95874 0.49127 0.08455 0.0
H306 H 0.9525 0.53049 0.91842 0.0
H307 H 0.97442 0.53822 0.95329 0.0
H308 H 0.05564 0.53913 0.93341 0.0
H309 H 0.03334 0.53011 0.89861 0.0
H310 H 0.95348 0.45467 0.15121 0.0
H311 H 0.93052 0.45505 0.11716 0.0
H312 H 0.01884 0.52721 0.09755 0.0
H313 H 0.04174 0.52781 0.13167 0.0
Tb314 Tb 0.49582 0.48973 0.05132 0.0
Eu315 Eu 0.47984 0.50458 1.00301 0.0
C316 C 0.47921 0.44368 0.0175 0.0
C317 C 0.54726 0.51699 0.01856 0.0
C318 C 0.49084 0.47862 0.10752 0.0
C319 C 0.45125 0.48124 0.12551 0.0
C320 C 0.46328 0.47983 0.10726 0.0
C321 C 0.50609 0.47866 0.12621 0.0
C322 C 0.49416 0.48017 0.14446 0.0
C323 C 0.46665 0.48162 0.14437 0.0
C324 C 0.50433 0.47817 0.08841 0.0
O325 O 0.49058 0.52895 0.05245 0.0
O326 O 0.50149 0.54772 0.01941 0.0
O327 O 0.44034 0.49813 0.02148 0.0
O328 O 0.44571 0.46774 0.04658 0.0
C329 C 0.49901 0.55102 0.03867 0.0
O330 O 0.4919 0.53594 0.9768 0.0
O331 O 0.45302 0.49098 0.97399 0.0
O332 O 0.46484 0.45564 1.00653 0.0
O333 O 0.49757 0.45682 0.03335 0.0
O334 O 0.54065 0.51715 0.03754 0.0
O335 O 0.5258 0.50665 1.00389 0.0
C336 C 0.42976 0.47932 0.0373 0.0
O337 O 0.48565 0.45803 0.07563 0.0
O338 O 0.52099 0.50413 0.07919 0.0
C339 C 0.48411 0.51388 0.94518 0.0
C340 C 0.50943 0.51265 0.90816 0.0
C341 C 0.48167 0.5137 0.9081 0.0
C342 C 0.46921 0.51437 0.92641 0.0
C343 C 0.51156 0.51247 0.94539 0.0
C344 C 0.52412 0.51194 0.92711 0.0
C345 C 0.47171 0.51609 0.96437 0.0
H346 H 0.42987 0.48201 0.12484 0.0
H347 H 0.45118 0.47988 0.09293 0.0
H348 H 0.5275 0.47794 0.12668 0.0
H349 H 0.50699 0.48097 0.1586 0.0
H350 H 0.46933 0.51372 0.8939 0.0
H351 H 0.448 0.51543 0.9259 0.0
H352 H 0.52354 0.51217 0.95971 0.0
H353 H 0.54568 0.51151 0.92787 0.0
Tb354 Tb 0.15898 0.32206 0.34136 0.0
Eu355 Eu 0.18061 0.3562 0.38477 0.0
C356 C 0.18286 0.29675 0.37808 0.0
C357 C 0.11281 0.29965 0.37788 0.0
C358 C 0.16162 0.31193 0.28704 0.0
C359 C 0.15741 0.31288 0.25004 0.0
C360 C 0.14447 0.30022 0.2689 0.0
C361 C 0.19201 0.33632 0.2861 0.0
C362 C 0.20504 0.34886 0.26727 0.0
C363 C 0.18783 0.33747 0.24897 0.0
C364 C 0.14754 0.29937 0.30687 0.0
O365 O 0.15975 0.36426 0.33507 0.0
O366 O 0.15113 0.37257 0.36713 0.0
O367 O 0.21308 0.38806 0.3613 0.0
O368 O 0.20936 0.35189 0.34138 0.0
C369 C 0.15052 0.3771 0.34724 0.0
O370 O 0.17112 0.37301 0.41133 0.0
O371 O 0.21731 0.38012 0.40769 0.0
O372 O 0.19863 0.32373 0.38526 0.0
O373 O 0.16111 0.29025 0.36372 0.0
O374 O 0.11597 0.30423 0.35795 0.0
O375 O 0.13652 0.31309 0.39085 0.0
C376 C 0.22386 0.3798 0.34696 0.0
O377 O 0.16559 0.29641 0.321 0.0
O378 O 0.13214 0.31093 0.31386 0.0
C379 C 0.20012 0.37354 0.4412 0.0
C380 C 0.19987 0.35604 0.4828 0.0
C381 C 0.20191 0.38369 0.47687 0.0
C382 C 0.20207 0.39233 0.45627 0.0
C383 C 0.19835 0.34605 0.44692 0.0
C384 C 0.19833 0.33741 0.46756 0.0
C385 C 0.19884 0.38248 0.41964 0.0
H386 H 0.14324 0.30384 0.2363 0.0
H387 H 0.1209 0.28157 0.26933 0.0
H388 H 0.20566 0.34583 0.29992 0.0
H389 H 0.22861 0.3675 0.26709 0.0
H390 H 0.20251 0.39835 0.48812 0.0
H391 H 0.20321 0.41353 0.45209 0.0
H392 H 0.19672 0.33119 0.43543 0.0
H393 H 0.19703 0.31613 0.47155 0.0
Tb394 Tb 0.67624 0.85154 0.33551 0.0
Eu395 Eu 0.64528 0.83321 0.38078 0.0
C396 C 0.70411 0.89712 0.37036 0.0
C397 C 0.70257 0.82614 0.37135 0.0
C398 C 0.68397 0.86473 0.27967 0.0
C399 C 0.64192 0.86202 0.25716 0.0
C400 C 0.65547 0.86411 0.27676 0.0
C401 C 0.69884 0.86345 0.26279 0.0
C402 C 0.68526 0.86119 0.24321 0.0
C403 C 0.65652 0.86026 0.24013 0.0
C404 C 0.6977 0.86535 0.30025 0.0
O405 O 0.63124 0.81129 0.33115 0.0
O406 O 0.62688 0.79094 0.36361 0.0
O407 O 0.61067 0.83741 0.35918 0.0
O408 O 0.64592 0.87039 0.33631 0.0
C409 C 0.6193 0.78808 0.34406 0.0
O410 O 0.62795 0.80087 0.40645 0.0
O411 O 0.62737 0.84246 0.40711 0.0
O412 O 0.67711 0.88324 0.37895 0.0
O413 O 0.71052 0.88473 0.35603 0.0
O414 O 0.69439 0.82515 0.35188 0.0
O415 O 0.69142 0.83566 0.38466 0.0
C416 C 0.61825 0.85727 0.34394 0.0
O417 O 0.69816 0.88449 0.31241 0.0
O418 O 0.68865 0.83928 0.30941 0.0
C419 C 0.6377 0.8225 0.43824 0.0
C420 C 0.66592 0.82737 0.47762 0.0
C421 C 0.63571 0.80371 0.47333 0.0
C422 C 0.62177 0.80133 0.45382 0.0
C423 C 0.66776 0.8462 0.44239 0.0
C424 C 0.68166 0.84871 0.46191 0.0
C425 C 0.62365 0.81844 0.41744 0.0
H426 H 0.61998 0.86167 0.25536 0.0
H427 H 0.64355 0.86493 0.28967 0.0
H428 H 0.72071 0.86363 0.26479 0.0
H429 H 0.6969 0.85928 0.23056 0.0
H430 H 0.62303 0.78664 0.48491 0.0
H431 H 0.5987 0.78265 0.4508 0.0
H432 H 0.68061 0.86263 0.4305 0.0
H433 H 0.70471 0.86751 0.46469 0.0
Tb434 Tb 0.16133 0.82391 0.3825 0.0
Eu435 Eu 0.142 0.83562 0.33427 0.0
C436 C 0.14257 0.77573 0.35009 0.0
C437 C 0.21059 0.85004 0.34822 0.0
C438 C 0.16016 0.81756 0.43879 0.0
C439 C 0.16144 0.81619 0.47582 0.0
C440 C 0.17316 0.81412 0.45762 0.0
C441 C 0.13513 0.82287 0.43832 0.0
C442 C 0.12318 0.82466 0.45648 0.0
C443 C 0.13631 0.82158 0.47552 0.0
C444 C 0.17314 0.81621 0.4197 0.0
O445 O 0.15208 0.86083 0.38249 0.0
O446 O 0.1652 0.87946 0.3499 0.0
O447 O 0.10106 0.82553 0.35265 0.0
O448 O 0.11107 0.8001 0.3796 0.0
C449 C 0.16151 0.88306 0.36884 0.0
O450 O 0.14998 0.86654 0.30793 0.0
O451 O 0.11606 0.81962 0.30533 0.0
O452 O 0.12727 0.78693 0.3394 0.0
O453 O 0.16258 0.79031 0.36493 0.0
O454 O 0.20512 0.85028 0.36745 0.0
O455 O 0.18863 0.8395 0.33388 0.0
C456 C 0.09254 0.80785 0.36918 0.0
O457 O 0.15448 0.79452 0.40788 0.0
O458 O 0.18805 0.84157 0.40939 0.0
C459 C 0.14636 0.84532 0.27647 0.0
C460 C 0.17558 0.84738 0.24032 0.0
C461 C 0.16792 0.86951 0.24378 0.0
C462 C 0.15344 0.86843 0.26161 0.0
C463 C 0.15413 0.82329 0.2732 0.0
C464 C 0.1684 0.82422 0.25531 0.0
C465 C 0.13221 0.84531 0.29557 0.0
H466 H 0.1726 0.81427 0.49009 0.0
H467 H 0.19265 0.81022 0.45826 0.0
H468 H 0.12499 0.82584 0.42388 0.0
H469 H 0.10361 0.82843 0.45556 0.0
H470 H 0.17347 0.88798 0.23285 0.0
H471 H 0.14803 0.88588 0.26389 0.0
H472 H 0.14923 0.80533 0.28449 0.0
H473 H 0.17342 0.8065 0.25316 0.0
Tb474 Tb 0.82612 0.65461 0.67252 0.0
Eu475 Eu 0.84896 0.69006 0.71527 0.0
C476 C 0.85127 0.63072 0.70933 0.0
C477 C 0.78073 0.63346 0.70941 0.0
C478 C 0.82673 0.6394 0.61865 0.0
C479 C 0.82148 0.63481 0.58193 0.0
C480 C 0.80915 0.62493 0.60125 0.0
C481 C 0.85695 0.66372 0.61656 0.0
C482 C 0.86936 0.6735 0.59729 0.0
C483 C 0.8517 0.65934 0.57969 0.0
C484 C 0.81344 0.62931 0.63889 0.0
O485 O 0.82523 0.69603 0.66565 0.0
O486 O 0.81908 0.70608 0.69791 0.0
O487 O 0.88019 0.72158 0.69112 0.0
O488 O 0.87632 0.68518 0.67137 0.0
C489 C 0.817 0.70957 0.67799 0.0
O490 O 0.8406 0.70713 0.74214 0.0
O491 O 0.88678 0.71514 0.73723 0.0
O492 O 0.8675 0.65808 0.71576 0.0
O493 O 0.82878 0.62367 0.69548 0.0
O494 O 0.78359 0.63745 0.68945 0.0
O495 O 0.80469 0.64725 0.72217 0.0
C496 C 0.89072 0.71323 0.67668 0.0
O497 O 0.83176 0.62721 0.6532 0.0
O498 O 0.79897 0.64229 0.64515 0.0
C499 C 0.87084 0.7071 0.77107 0.0
C500 C 0.86967 0.68636 0.81193 0.0
C501 C 0.87274 0.71472 0.80723 0.0
C502 C 0.87331 0.72497 0.78695 0.0
C503 C 0.86866 0.67918 0.77562 0.0
C504 C 0.86821 0.66895 0.79588 0.0
C505 C 0.8687 0.7169 0.74986 0.0
H506 H 0.80699 0.62371 0.56872 0.0
H507 H 0.78575 0.60621 0.60258 0.0
H508 H 0.87092 0.67524 0.62983 0.0
H509 H 0.8928 0.69219 0.5962 0.0
H510 H 0.87342 0.72851 0.81916 0.0
H511 H 0.87481 0.74651 0.78366 0.0
H512 H 0.86666 0.66504 0.76349 0.0
H513 H 0.8662 0.64718 0.79897 0.0
Tb514 Tb 0.34172 0.18964 0.66703 0.0
Eu515 Eu 0.31129 0.16957 0.71258 0.0
C516 C 0.37158 0.23382 0.70321 0.0
C517 C 0.36913 0.1638 0.70219 0.0
C518 C 0.35016 0.20232 0.61079 0.0
C519 C 0.35816 0.21861 0.57515 0.0
C520 C 0.36963 0.22077 0.59532 0.0
C521 C 0.31881 0.18223 0.606 0.0
C522 C 0.30734 0.17993 0.58581 0.0
C523 C 0.327 0.19781 0.57009 0.0
C524 C 0.36307 0.20378 0.6317 0.0
O525 O 0.29618 0.1499 0.66266 0.0
O526 O 0.29372 0.12835 0.69448 0.0
O527 O 0.27772 0.17731 0.69215 0.0
O528 O 0.31287 0.20986 0.66904 0.0
C529 C 0.28497 0.12615 0.67512 0.0
O530 O 0.29153 0.13505 0.73673 0.0
O531 O 0.29515 0.17809 0.74016 0.0
O532 O 0.34577 0.21895 0.71314 0.0
O533 O 0.37654 0.22333 0.68706 0.0
O534 O 0.36089 0.16359 0.68276 0.0
O535 O 0.35731 0.1718 0.71602 0.0
C536 C 0.28589 0.19811 0.67749 0.0
O537 O 0.36157 0.22234 0.64338 0.0
O538 O 0.35531 0.17815 0.6412 0.0
C539 C 0.30388 0.15407 0.76958 0.0
C540 C 0.33174 0.1572 0.80887 0.0
C541 C 0.30182 0.15376 0.80638 0.0
C542 C 0.28802 0.15219 0.78689 0.0
C543 C 0.33365 0.1574 0.77194 0.0
C544 C 0.34738 0.15881 0.79138 0.0
C545 C 0.28944 0.15258 0.7491 0.0
H546 H 0.3738 0.23307 0.56349 0.0
H547 H 0.39383 0.23659 0.59881 0.0
H548 H 0.30338 0.16788 0.61781 0.0
H549 H 0.28333 0.16343 0.58246 0.0
H550 H 0.2893 0.15293 0.81945 0.0
H551 H 0.26506 0.14971 0.78533 0.0
H552 H 0.34628 0.15887 0.75874 0.0
H553 H 0.37024 0.16105 0.79269 0.0
Tb554 Tb 0.83303 0.15921 0.71788 0.0
Eu555 Eu 0.81498 0.17008 0.66921 0.0
C556 C 0.81911 0.11174 0.68498 0.0
C557 C 0.88336 0.18709 0.68426 0.0
C558 C 0.83338 0.15429 0.77454 0.0
C559 C 0.83881 0.15778 0.81139 0.0
C560 C 0.84988 0.1557 0.79294 0.0
C561 C 0.80553 0.15482 0.7748 0.0
C562 C 0.79426 0.15664 0.79325 0.0
C563 C 0.81085 0.15835 0.81183 0.0
C564 C 0.8458 0.15303 0.75518 0.0
O565 O 0.82137 0.19459 0.7174 0.0
O566 O 0.83601 0.21359 0.68509 0.0
O567 O 0.77255 0.15776 0.68667 0.0
O568 O 0.78272 0.13456 0.71499 0.0
C569 C 0.83085 0.21684 0.70376 0.0
O570 O 0.82608 0.20114 0.64275 0.0
O571 O 0.78806 0.15562 0.64042 0.0
O572 O 0.80493 0.12266 0.67274 0.0
O573 O 0.83555 0.12527 0.7014 0.0
O574 O 0.87659 0.1886 0.70296 0.0
O575 O 0.86172 0.17388 0.67005 0.0
C576 C 0.76383 0.1407 0.70346 0.0
O577 O 0.8273 0.13083 0.74369 0.0
O578 O 0.8597 0.17821 0.74457 0.0
C579 C 0.81803 0.17898 0.61116 0.0
C580 C 0.84357 0.17801 0.57421 0.0
C581 C 0.83335 0.19856 0.57661 0.0
C582 C 0.82071 0.19899 0.59486 0.0
C583 C 0.82835 0.15854 0.60899 0.0
C584 C 0.84084 0.15796 0.59069 0.0
C585 C 0.80597 0.18081 0.63059 0.0
H586 H 0.8526 0.15966 0.82525 0.0
H587 H 0.87158 0.15557 0.79301 0.0
H588 H 0.79264 0.15403 0.76069 0.0
H589 H 0.77251 0.15666 0.79293 0.0
H590 H 0.83553 0.2147 0.56448 0.0
H591 H 0.81328 0.21522 0.59633 0.0
H592 H 0.82683 0.14308 0.62147 0.0
H593 H 0.84801 0.14153 0.5894 0.0
H594 H 0.26637 0.87374 0.09244 0.0
H595 H 0.40791 0.91088 0.02771 0.0
H596 H 0.29545 0.80865 0.08826 0.0
H597 H 0.42162 0.97478 0.07192 0.0
H598 H 0.35937 0.8742 0.04388 0.0
H599 H 0.3176 0.91323 0.08065 0.0
C600 C 0.28377 0.86792 0.08949 0.0
C601 C 0.27666 0.83792 0.09107 0.0
C602 C 0.37302 0.89633 0.04994 0.0
C603 C 0.3342 0.88231 0.07679 0.0
C604 C 0.4005 0.91727 0.04065 0.0
C605 C 0.41874 0.94582 0.04852 0.0
C606 C 0.36325 0.90431 0.0668 0.0
C607 C 0.40822 0.9529 0.06547 0.0
C608 C 0.31275 0.8903 0.08258 0.0
C609 C 0.29986 0.83144 0.08681 0.0
N610 N 0.38095 0.93239 0.07394 0.0
N611 N 0.32729 0.85327 0.07941 0.0
H612 H 0.13434 0.41037 0.08588 0.0
H613 H 0.09855 0.53209 0.02936 0.0
H614 H 0.20314 0.50382 0.07951 0.0
H615 H 0.02737 0.44958 0.05675 0.0
H616 H 0.13764 0.51932 0.04284 0.0
H617 H 0.0948 0.42183 0.07085 0.0
C618 C 0.14095 0.43329 0.08138 0.0
C619 C 0.17179 0.45625 0.08392 0.0
C620 C 0.11344 0.50402 0.04583 0.0
C621 C 0.12729 0.46943 0.06642 0.0
C622 C 0.09112 0.51118 0.03806 0.0
C623 C 0.05971 0.49189 0.04202 0.0
C624 C 0.10419 0.47722 0.0574 0.0
C625 C 0.05138 0.46516 0.05346 0.0
C626 C 0.11856 0.43981 0.07275 0.0
C627 C 0.17956 0.48556 0.07757 0.0
N628 N 0.07351 0.45857 0.06073 0.0
N629 N 0.15745 0.49135 0.06902 0.0
H630 H 0.58837 0.72796 0.08607 0.0
H631 H 0.4855 0.59078 0.01768 0.0
H632 H 0.49711 0.71053 0.06516 0.0
H633 H 0.52816 0.57832 0.07398 0.0
H634 H 0.49789 0.64043 0.02847 0.0
H635 H 0.57518 0.67812 0.07538 0.0
C636 C 0.56558 0.71363 0.07926 0.0
C637 C 0.54369 0.72323 0.07663 0.0
C638 C 0.50445 0.62671 0.03839 0.0
C639 C 0.52906 0.66708 0.06369 0.0
C640 C 0.49754 0.59858 0.03226 0.0
C641 C 0.50578 0.58057 0.04503 0.0
C642 C 0.5206 0.63714 0.05706 0.0
C643 C 0.52125 0.59154 0.0638 0.0
C644 C 0.55817 0.68539 0.07311 0.0
C645 C 0.51477 0.70414 0.06719 0.0
N646 N 0.52856 0.61937 0.06917 0.0
N647 N 0.50832 0.67699 0.06089 0.0
H648 H 0.82456 0.27338 1.00092 0.0
H649 H 0.94285 0.44375 0.97161 0.0
H650 H 0.82491 0.31061 0.94028 0.0
H651 H 0.906 0.41587 0.03168 0.0
H652 H 0.90562 0.39352 0.95981 0.0
H653 H 0.86035 0.32413 1.01274 0.0
C654 C 0.832 0.29236 0.99019 0.0
C655 C 0.8215 0.28807 0.96973 0.0
C656 C 0.90568 0.3985 0.97555 0.0
C657 C 0.86308 0.34574 0.98283 0.0
C658 C 0.92695 0.42707 0.98231 0.0
C659 C 0.92746 0.434 1.00264 0.0
C660 C 0.88529 0.37652 0.98934 0.0
C661 C 0.90626 0.41155 1.01584 0.0
C662 C 0.85244 0.32118 0.99687 0.0
C663 C 0.8325 0.31316 0.9562 0.0
N664 N 0.88624 0.38373 1.00901 0.0
N665 N 0.85286 0.34095 0.96295 0.0
H666 H 0.71236 0.56464 0.95523 0.0
H667 H 0.60026 0.5511 0.04174 0.0
H668 H 0.7456 0.61958 1.00764 0.0
H669 H 0.56837 0.5109 0.9831 0.0
H670 H 0.65397 0.57324 0.03132 0.0
H671 H 0.65943 0.54179 0.96681 0.0
C672 C 0.70825 0.57208 0.96908 0.0
C673 C 0.73294 0.59425 0.98037 0.0
C674 C 0.63514 0.55953 0.0208 0.0
C675 C 0.67281 0.56792 0.99404 0.0
C676 C 0.60454 0.54678 0.02675 0.0
C677 C 0.57982 0.52924 1.01323 0.0
C678 C 0.64092 0.55445 1.00128 0.0
C679 C 0.58666 0.52444 0.99398 0.0
C680 C 0.67817 0.55896 0.97578 0.0
C681 C 0.72686 0.60265 0.99854 0.0
N682 N 0.61653 0.53698 0.9886 0.0
N683 N 0.69726 0.58944 1.00488 0.0
H684 H 0.46727 0.18496 0.94075 0.0
H685 H 0.45484 0.06685 0.0295 0.0
H686 H 0.41485 0.16693 0.99441 0.0
H687 H 0.48848 0.06885 0.97032 0.0
H688 H 0.4398 0.10333 0.01656 0.0
H689 H 0.47444 0.1419 0.95045 0.0
C690 C 0.45678 0.1715 0.95435 0.0
C691 C 0.44057 0.17936 0.96689 0.0
C692 C 0.45026 0.09566 1.00633 0.0
C693 C 0.44917 0.13079 0.97835 0.0
C694 C 0.45899 0.07489 1.01374 0.0
C695 C 0.47312 0.06488 1.00102 0.0
C696 C 0.45602 0.1069 0.98607 0.0
C697 C 0.47766 0.07595 0.98068 0.0
C698 C 0.46102 0.14711 0.95998 0.0
C699 C 0.42779 0.16163 0.98453 0.0
N700 N 0.46941 0.0966 0.97388 0.0
N701 N 0.43262 0.13837 0.98986 0.0
H702 H 0.7441 0.1565 0.96229 0.0
H703 H 0.57992 0.10892 1.00374 0.0
H704 H 0.70334 0.21312 0.95516 0.0
H705 H 0.6006 0.04199 0.98618 0.0
H706 H 0.62674 0.14765 0.98756 0.0
H707 H 0.69321 0.11391 0.97157 0.0
C708 C 0.72424 0.15974 0.96231 0.0
C709 C 0.72786 0.18833 0.95834 0.0
C710 C 0.621 0.12449 0.9871 0.0
C711 C 0.67013 0.14029 0.96935 0.0
C712 C 0.59436 0.10235 0.99648 0.0
C713 C 0.58646 0.07217 0.99648 0.0
C714 C 0.6404 0.11661 0.97793 0.0
C715 C 0.60589 0.06501 0.98659 0.0
C716 C 0.69533 0.13557 0.96769 0.0
C717 C 0.70159 0.19156 0.95864 0.0
N718 N 0.63224 0.08713 0.97793 0.0
N719 N 0.67397 0.16799 0.9644 0.0
H720 H 0.85505 0.63453 1.00008 0.0
H721 H 0.92697 0.53306 0.97442 0.0
H722 H 0.82346 0.57724 0.94893 0.0
H723 H 0.93739 0.56958 0.03347 0.0
H724 H 0.89566 0.5557 0.96227 0.0
H725 H 0.89304 0.61831 1.00968 0.0
C726 C 0.85673 0.61903 0.99067 0.0
C727 C 0.8365 0.60728 0.97368 0.0
C728 C 0.90483 0.55875 0.97787 0.0
C729 C 0.87919 0.58838 0.98452 0.0
C730 C 0.92267 0.54582 0.98485 0.0
C731 C 0.93463 0.54926 1.00506 0.0
C732 C 0.89915 0.57549 0.99113 0.0
C733 C 0.92838 0.56611 0.01784 0.0
C734 C 0.87812 0.60962 0.99617 0.0
C735 C 0.83914 0.58713 0.96192 0.0
N736 N 0.91109 0.57864 1.01065 0.0
N737 N 0.86 0.57813 0.96763 0.0
H738 H 0.47689 0.30638 0.94874 0.0
H739 H 0.4809 0.39887 0.04142 0.0
H740 H 0.43081 0.26085 1.00398 0.0
H741 H 0.46969 0.42425 0.9789 0.0
H742 H 0.47411 0.35147 0.02989 0.0
H743 H 0.4865 0.35387 0.96164 0.0
C744 C 0.46882 0.30646 0.96359 0.0
C745 C 0.45262 0.27973 0.97521 0.0
C746 C 0.4732 0.36753 0.01878 0.0
C747 C 0.46439 0.33382 0.99028 0.0
C748 C 0.47716 0.3945 0.0253 0.0
C749 C 0.47565 0.4153 1.01107 0.0
C750 C 0.46863 0.36191 0.9979 0.0
C751 C 0.4707 0.40864 0.99036 0.0
C752 C 0.4744 0.33346 0.97095 0.0
C753 C 0.44345 0.28107 0.99463 0.0
N754 N 0.46762 0.38261 0.98437 0.0
N755 N 0.4495 0.30775 1.00163 0.0
H756 H 0.16661 0.76047 0.05308 0.0
H757 H 0.06829 0.58336 0.07694 0.0
H758 H 0.18243 0.71694 0.10689 0.0
H759 H 0.06413 0.62509 0.01853 0.0
H760 H 0.10808 0.63231 0.0889 0.0
H761 H 0.12701 0.71129 0.0407 0.0
C762 C 0.1618 0.74039 0.06213 0.0
C763 C 0.17786 0.74242 0.08081 0.0
C764 C 0.09849 0.63075 0.07346 0.0
C765 C 0.13245 0.68637 0.06715 0.0
C766 C 0.0757 0.60279 0.06662 0.0
C767 C 0.0628 0.60004 0.04667 0.0
C768 C 0.10838 0.65626 0.06033 0.0
C769 C 0.07342 0.62607 0.03401 0.0
C770 C 0.13921 0.71242 0.05517 0.0
C771 C 0.1705 0.71603 0.09234 0.0
N772 N 0.0955 0.65306 0.04106 0.0
N773 N 0.1483 0.68906 0.08534 0.0
H774 H 0.29116 0.50142 0.0919 0.0
H775 H 0.39246 0.431 0.06169 0.0
H776 H 0.25522 0.40619 0.09542 0.0
H777 H 0.4016 0.51329 0.03429 0.0
H778 H 0.34747 0.42336 0.07977 0.0
H779 H 0.33877 0.50859 0.07772 0.0
C780 C 0.29378 0.48213 0.0901 0.0
C781 C 0.26945 0.45322 0.09461 0.0
C782 C 0.35926 0.44296 0.0697 0.0
C783 C 0.3233 0.46103 0.07834 0.0
C784 C 0.38481 0.44731 0.05933 0.0
C785 C 0.40058 0.47271 0.04633 0.0
C786 C 0.34991 0.4645 0.06739 0.0
C787 C 0.38986 0.49322 0.04394 0.0
C788 C 0.32067 0.48614 0.08185 0.0
C789 C 0.27369 0.42879 0.09218 0.0
N790 N 0.36532 0.48879 0.05452 0.0
N791 N 0.30011 0.4332 0.08401 0.0
H792 H 0.49888 0.79284 0.07578 0.0
H793 H 0.56881 0.97037 0.0636 0.0
H794 H 0.59566 0.85525 0.08795 0.0
H795 H 0.48219 0.90508 0.03525 0.0
H796 H 0.57729 0.9294 0.07732 0.0
H797 H 0.4903 0.83476 0.06585 0.0
C798 C 0.51826 0.81551 0.0764 0.0
C799 C 0.54799 0.82075 0.08248 0.0
C800 C 0.55646 0.92417 0.0681 0.0
C801 C 0.53854 0.86886 0.07132 0.0
C802 C 0.55157 0.94749 0.06031 0.0
C803 C 0.52486 0.94117 0.04812 0.0
C804 C 0.53424 0.8944 0.06391 0.0
C805 C 0.50326 0.9111 0.04439 0.0
C806 C 0.51343 0.8394 0.07077 0.0
C807 C 0.57237 0.85045 0.08345 0.0
N808 N 0.50841 0.88892 0.05226 0.0
N809 N 0.56716 0.8735 0.07781 0.0
H810 H 0.91558 0.18234 0.39527 0.0
H811 H 0.09962 0.27603 0.4169 0.0
H812 H 0.96174 0.16391 0.44713 0.0
H813 H 0.05536 0.27511 0.35797 0.0
H814 H 0.0488 0.24119 0.43047 0.0
H815 H 0.96588 0.22336 0.38409 0.0
C816 C 0.93637 0.18736 0.40445 0.0
C817 C 0.93474 0.16965 0.42198 0.0
C818 C 0.05019 0.24867 0.41459 0.0
C819 C -0.00773 0.21637 0.40939 0.0
C820 C 0.07923 0.26861 0.40679 0.0
C821 C 0.08188 0.27849 0.38617 0.0
C822 C 0.02341 0.23867 0.40181 0.0
C823 C 0.05452 0.26798 0.37389 0.0
C824 C 0.96504 0.21061 0.39805 0.0
C825 C 0.96215 0.1772 0.43357 0.0
N826 N 0.02646 0.2487 0.3819 0.0
N827 N 0.98988 0.19984 0.42699 0.0
H828 H 0.80867 0.73481 0.38461 0.0
H829 H 0.73018 0.83077 0.40933 0.0
H830 H 0.83154 0.78571 0.43858 0.0
H831 H 0.72352 0.79665 0.34992 0.0
H832 H 0.76424 0.81119 0.42133 0.0
H833 H 0.77382 0.75388 0.37252 0.0
C834 C 0.80609 0.74991 0.39389 0.0
C835 C 0.82256 0.75865 0.41259 0.0
C836 C 0.75539 0.80808 0.40565 0.0
C837 C 0.78316 0.78045 0.3991 0.0
C838 C 0.73592 0.81921 0.39879 0.0
C839 C 0.72401 0.81534 0.37859 0.0
C840 C 0.7628 0.79276 0.39226 0.0
C841 C 0.73226 0.80022 0.3656 0.0
C842 C 0.78637 0.76081 0.38704 0.0
C843 C 0.81872 0.77818 0.42422 0.0
N844 N 0.75109 0.78937 0.37269 0.0
N845 N 0.79935 0.78846 0.4173 0.0
H846 H 0.23639 0.07408 0.3769 0.0
H847 H 0.15156 0.89831 0.40556 0.0
H848 H 0.18642 0.03485 0.43175 0.0
H849 H 0.18764 0.93594 0.34623 0.0
H850 H 0.16521 0.94818 0.41578 0.0
H851 H 0.21988 0.02366 0.36555 0.0
C852 C 0.22175 0.05466 0.38641 0.0
C853 C 0.21256 0.05821 0.40515 0.0
C854 C 0.17001 0.9455 0.4005 0.0
C855 C 0.19389 1.00085 0.39263 0.0
C856 C 0.16226 0.91702 0.39465 0.0
C857 C 0.16849 0.9129 0.375 0.0
C858 C 0.18434 0.97012 0.38667 0.0
C859 C 0.18236 0.93801 0.36152 0.0
C860 C 0.21237 0.026 0.38003 0.0
C861 C 0.19386 0.03269 0.41719 0.0
N862 N 0.18995 0.96556 0.36764 0.0
N863 N 0.1852 0.00502 0.41077 0.0
H864 H 0.48077 0.6388 0.27381 0.0
H865 H 0.59483 0.73421 0.3654 0.0
H866 H 0.49731 0.5991 0.3294 0.0
H867 H 0.59143 0.77335 0.3058 0.0
H868 H 0.55695 0.68494 0.3531 0.0
H869 H 0.51922 0.68871 0.28572 0.0
C870 C 0.49256 0.64078 0.28856 0.0
C871 C 0.48582 0.61513 0.30081 0.0
C872 C 0.56451 0.70428 0.34269 0.0
C873 C 0.5296 0.67172 0.31457 0.0
C874 C 0.58612 0.73249 0.34971 0.0
C875 C 0.59639 0.75805 0.33662 0.0
C876 C 0.5528 0.70147 0.32243 0.0
C877 C 0.58426 0.7543 0.31643 0.0
C878 C 0.51444 0.66912 0.29536 0.0
C879 C 0.50163 0.61854 0.31975 0.0
N880 N 0.56305 0.72657 0.30998 0.0
N881 N 0.52272 0.64633 0.32611 0.0
H882 H 0.39436 0.94633 0.2991 0.0
H883 H 0.25451 0.8397 0.36773 0.0
H884 H 0.37061 0.85418 0.3105 0.0
H885 H 0.23854 0.88587 0.31529 0.0
H886 H 0.30645 0.85563 0.35559 0.0
H887 H 0.34475 0.93451 0.31322 0.0
C888 C 0.37871 0.92369 0.30456 0.0
C889 C 0.38642 0.90115 0.30369 0.0
C890 C 0.29156 0.86248 0.34697 0.0
C891 C 0.33109 0.88805 0.32053 0.0
C892 C 0.26222 0.85359 0.35388 0.0
C893 C 0.24252 0.86148 0.34236 0.0
C894 C 0.30129 0.88005 0.32888 0.0
C895 C 0.25321 0.87926 0.32443 0.0
C896 C 0.35074 0.91708 0.31271 0.0
C897 C 0.36572 0.87226 0.31131 0.0
N898 N 0.28211 0.88818 0.31824 0.0
N899 N 0.33903 0.86654 0.31962 0.0
H900 H 0.07378 0.49498 0.32621 0.0
H901 H 0.15997 0.40315 0.30878 0.0
H902 H 0.14089 0.52043 0.28023 0.0
H903 H 0.1186 0.39923 0.36531 0.0
H904 H 0.14493 0.43933 0.29464 0.0
H905 H 0.08105 0.45226 0.33693 0.0
C906 C 0.08967 0.49111 0.31822 0.0
C907 C 0.10709 0.51112 0.30257 0.0
C908 C 0.13905 0.43043 0.3101 0.0
C909 C 0.11556 0.46275 0.31453 0.0
C910 C 0.14756 0.40975 0.3182 0.0
C911 C 0.14072 0.3983 0.33834 0.0
C912 C 0.12322 0.43945 0.32213 0.0
C913 C 0.12461 0.40768 0.34979 0.0
C914 C 0.09396 0.46698 0.32435 0.0
C915 C 0.12719 0.50535 0.29241 0.0
N916 N 0.1164 0.42771 0.34152 0.0
N917 N 0.13111 0.48175 0.29866 0.0
H918 H 0.40513 0.48308 0.29444 0.0
H919 H 0.24822 0.44029 0.34558 0.0
H920 H 0.3676 0.54229 0.29294 0.0
H921 H 0.26308 0.37156 0.32397 0.0
H922 H 0.29417 0.47819 0.3282 0.0
H923 H 0.355 0.44152 0.30594 0.0
C924 C 0.38606 0.48708 0.2961 0.0
C925 C 0.39037 0.51603 0.29297 0.0
C926 C 0.28736 0.45483 0.32716 0.0
C927 C 0.33368 0.46926 0.3066 0.0
C928 C 0.26124 0.43315 0.33723 0.0
C929 C 0.2519 0.40269 0.33638 0.0
C930 C 0.30478 0.44618 0.31637 0.0
C931 C 0.26953 0.39481 0.32508 0.0
C932 C 0.35761 0.46352 0.30278 0.0
C933 C 0.3652 0.52032 0.29556 0.0
N934 N 0.29537 0.41647 0.31568 0.0
N935 N 0.33811 0.49734 0.30252 0.0
H936 H 0.52007 0.94532 0.2907 0.0
H937 H 0.55537 0.82468 0.34695 0.0
H938 H 0.45161 0.85175 0.29631 0.0
H939 H 0.62809 0.90572 0.31912 0.0
H940 H 0.51694 0.83605 0.3303 0.0
H941 H 0.56076 0.933 0.30168 0.0
C942 C 0.51385 0.92216 0.29382 0.0
C943 C 0.48272 0.89945 0.2929 0.0
C944 C 0.54132 0.85128 0.32777 0.0
C945 C 0.52835 0.88532 0.30586 0.0
C946 C 0.56325 0.84495 0.33743 0.0
C947 C 0.59493 0.86439 0.3345 0.0
C948 C 0.55116 0.87746 0.31537 0.0
C949 C 0.60385 0.89017 0.3218 0.0
C950 C 0.53687 0.91514 0.30019 0.0
C951 C 0.47546 0.86978 0.29722 0.0
N952 N 0.58205 0.89613 0.31281 0.0
N953 N 0.49805 0.86356 0.30384 0.0
H954 H 0.16479 0.62721 0.31941 0.0
H955 H 0.09355 0.73357 0.32813 0.0
H956 H 0.06885 0.59993 0.30511 0.0
H957 H 0.17923 0.75046 0.3599 0.0
H958 H 0.08557 0.68564 0.31805 0.0
H959 H 0.17212 0.67349 0.33323 0.0
C960 C 0.14525 0.63092 0.31943 0.0
C961 C 0.11622 0.61 0.31114 0.0
C962 C 0.10604 0.6997 0.32733 0.0
C963 C 0.12439 0.6627 0.32642 0.0
C964 C 0.11069 0.72716 0.33303 0.0
C965 C 0.13716 0.74609 0.34483 0.0
C966 C 0.1282 0.69115 0.33322 0.0
C967 C 0.15846 0.73649 0.35084 0.0
C968 C 0.14942 0.65727 0.32721 0.0
C969 C 0.09165 0.61584 0.31115 0.0
N970 N 0.15366 0.70974 0.34481 0.0
N971 N 0.09632 0.64174 0.31854 0.0
H972 H 0.87696 0.05244 0.40823 0.0
H973 H 0.69633 0.93514 0.39313 0.0
H974 H 0.80588 0.07419 0.41725 0.0
H975 H 0.7666 0.92694 0.36393 0.0
H976 H 0.73636 0.98401 0.40512 0.0
H977 H 0.83711 0.00416 0.39466 0.0
C978 C 0.85292 0.04704 0.4071 0.0
C979 C 0.84452 0.06721 0.41354 0.0
C980 C 0.74298 0.97155 0.39603 0.0
C981 C 0.7989 0.0121 0.39869 0.0
C982 C 0.72017 0.94359 0.38924 0.0
C983 C 0.72811 0.92691 0.37748 0.0
C984 C 0.77406 0.98276 0.39131 0.0
C985 C 0.7594 0.93908 0.37287 0.0
C986 C 0.83024 0.01958 0.39947 0.0
C987 C 0.81309 0.05911 0.41233 0.0
N988 N 0.78127 0.96618 0.37991 0.0
N989 N 0.79136 0.0321 0.40513 0.0
H990 H 0.94092 0.77174 0.44296 0.0
H991 H 0.03901 0.79803 0.34787 0.0
H992 H 0.89711 0.72346 0.38843 0.0
H993 H 0.07507 0.79085 0.40828 0.0
H994 H 0.98734 0.77763 0.36187 0.0
H995 H 0.99169 0.78468 0.43055 0.0
C996 C 0.94196 0.76312 0.42869 0.0
C997 C 0.91497 0.74642 0.4167 0.0
C998 C 0.00669 0.78049 0.37195 0.0
C999 C 0.97259 0.76241 0.40198 0.0
C1000 C 0.03609 0.7923 0.36403 0.0
C1001 C 0.06128 0.79615 0.37694 0.0
C1002 C 0.00285 0.77334 0.39294 0.0
C1003 C 0.05626 0.78822 0.39778 0.0
C1004 C 0.97086 0.77082 0.42149 0.0
C1005 C 0.91759 0.73657 0.39797 0.0
N1006 N 0.02768 0.77751 0.40519 0.0
N1007 N 0.94598 0.74522 0.39094 0.0
H1008 H 0.26749 0.18945 0.41633 0.0
H1009 H 0.14352 0.23668 0.3767 0.0
H1010 H 0.16898 0.12804 0.41436 0.0
H1011 H 0.23506 0.30186 0.39889 0.0
H1012 H 0.15347 0.1967 0.38929 0.0
H1013 H 0.25745 0.23139 0.40952 0.0
C1014 C 0.24377 0.18495 0.41466 0.0
C1015 C 0.21898 0.15541 0.41548 0.0
C1016 C 0.17135 0.21972 0.39155 0.0
C1017 C 0.20731 0.20276 0.40748 0.0
C1018 C 0.16576 0.24259 0.38425 0.0
C1019 C 0.1886 0.27266 0.38662 0.0
C1020 C 0.20021 0.22684 0.40103 0.0
C1021 C 0.21684 0.27895 0.39674 0.0
C1022 C 0.23804 0.20875 0.41075 0.0
C1023 C 0.18865 0.15051 0.41327 0.0
N1024 N 0.22203 0.25619 0.40339 0.0
N1025 N 0.18365 0.1739 0.40911 0.0
H1026 H 0.62974 0.50067 0.78305 0.0
H1027 H 0.72364 0.60801 0.68928 0.0
H1028 H 0.58608 0.51467 0.728 0.0
H1029 H 0.76706 0.61118 0.74885 0.0
H1030 H 0.67314 0.57343 0.70342 0.0
H1031 H 0.68027 0.5417 0.77168 0.0
C1032 C 0.63078 0.51296 0.76884 0.0
C1033 C 0.60391 0.50443 0.7564 0.0
C1034 C 0.69368 0.58179 0.71345 0.0
C1035 C 0.66135 0.55052 0.74297 0.0
C1036 C 0.72261 0.60146 0.70533 0.0
C1037 C 0.74976 0.61254 0.71783 0.0
C1038 C 0.69175 0.57273 0.73422 0.0
C1039 C 0.7468 0.60328 0.73859 0.0
C1040 C 0.65956 0.53612 0.76223 0.0
C1041 C 0.60641 0.52062 0.73793 0.0
N1042 N 0.7184 0.58379 0.74609 0.0
N1043 N 0.6346 0.54258 0.73165 0.0
H1044 H 0.48089 0.07784 0.71258 0.0
H1045 H 0.39761 0.16831 0.73983 0.0
H1046 H 0.50261 0.12746 0.76707 0.0
H1047 H 0.39166 0.13665 0.67966 0.0
H1048 H 0.43359 0.15063 0.7508 0.0
H1049 H 0.44553 0.09648 0.70073 0.0
C1050 C 0.47807 0.09266 0.72198 0.0
C1051 C 0.4942 0.101 0.74083 0.0
C1052 C 0.42451 0.14764 0.73518 0.0
C1053 C 0.45412 0.12221 0.72765 0.0
C1054 C 0.40389 0.15766 0.7289 0.0
C1055 C 0.39158 0.15392 0.70879 0.0
C1056 C 0.43272 0.13355 0.7213 0.0
C1057 C 0.40065 0.14006 0.6953 0.0
C1058 C 0.45802 0.10328 0.71528 0.0
C1059 C 0.49002 0.12018 0.75261 0.0
N1060 N 0.4206 0.13024 0.70183 0.0
N1061 N 0.47027 0.13009 0.74586 0.0
H1062 H 0.85207 0.36736 0.76848 0.0
H1063 H 0.85508 0.26907 0.68055 0.0
H1064 H 0.89972 0.40516 0.71264 0.0
H1065 H 0.82085 0.23245 0.74042 0.0
H1066 H 0.8674 0.31839 0.69094 0.0
H1067 H 0.83655 0.31703 0.75752 0.0
C1068 C 0.85909 0.36483 0.75386 0.0
C1069 C 0.87691 0.39005 0.74131 0.0
C1070 C 0.85714 0.29957 0.70179 0.0
C1071 C 0.85944 0.33304 0.72863 0.0
C1072 C 0.84999 0.27133 0.69586 0.0
C1073 C 0.83697 0.24653 0.70965 0.0
C1074 C 0.85113 0.30312 0.72165 0.0
C1075 C 0.83093 0.25092 0.72929 0.0
C1076 C 0.8503 0.33627 0.7476 0.0
C1077 C 0.88562 0.38603 0.72253 0.0
N1078 N 0.8381 0.27868 0.73471 0.0
N1079 N 0.87677 0.35801 0.71671 0.0
H1080 H 0.14591 0.97663 0.60481 0.0
H1081 H 0.26111 0.07207 0.69603 0.0
H1082 H 0.16241 0.93733 0.66061 0.0
H1083 H 0.25616 0.11178 0.63695 0.0
H1084 H 0.22308 0.02297 0.68375 0.0
H1085 H 0.18434 0.02666 0.61659 0.0
C1086 C 0.15765 0.97872 0.61959 0.0
C1087 C 0.15091 0.95312 0.63193 0.0
C1088 C 0.23029 0.04237 0.67343 0.0
C1089 C 0.19472 0.00988 0.64553 0.0
C1090 C 0.25204 0.07052 0.68045 0.0
C1091 C 0.26192 0.09622 0.66752 0.0
C1092 C 0.21805 0.03968 0.65332 0.0
C1093 C 0.24927 0.09263 0.64746 0.0
C1094 C 0.17952 0.00714 0.62631 0.0
C1095 C 0.16669 0.95669 0.65089 0.0
N1096 N 0.22793 0.0649 0.641 0.0
N1097 N 0.1878 0.98455 0.65715 0.0
H1098 H 0.08411 0.29532 0.68025 0.0
H1099 H 0.90579 0.1858 0.64785 0.0
H1100 H 0.05315 0.24932 0.6239 0.0
H1101 H 0.9356 0.22243 0.70767 0.0
H1102 H 0.95964 0.21177 0.63818 0.0
H1103 H 0.02969 0.27215 0.68991 0.0
C1104 C 0.06567 0.28055 0.6699 0.0
C1105 C 0.07267 0.27412 0.65131 0.0
C1106 C 0.95447 0.21413 0.65344 0.0
C1107 C 0.01099 0.24758 0.66206 0.0
C1108 C 0.92367 0.19925 0.65901 0.0
C1109 C 0.91614 0.20187 0.67864 0.0
C1110 C 0.97804 0.23189 0.66756 0.0
C1111 C 0.94036 0.21967 0.6924 0.0
C1112 C 0.03478 0.2673 0.67536 0.0
C1113 C 0.04836 0.25492 0.63827 0.0
N1114 N 0.97027 0.23406 0.68658 0.0
N1115 N 0.01856 0.24224 0.64391 0.0
H1116 H 0.74785 0.83357 0.66274 0.0
H1117 H 0.82177 0.73289 0.63875 0.0
H1118 H 0.80103 0.84928 0.60984 0.0
H1119 H 0.78854 0.73393 0.69744 0.0
H1120 H 0.80655 0.76932 0.62532 0.0
H1121 H 0.75402 0.79019 0.67281 0.0
C1122 C 0.76043 0.82745 0.65313 0.0
C1123 C 0.77415 0.8449 0.63558 0.0
C1124 C 0.80246 0.76142 0.6411 0.0
C1125 C 0.78155 0.79566 0.64691 0.0
C1126 C 0.81109 0.7406 0.64878 0.0
C1127 C 0.80665 0.73051 0.66932 0.0
C1128 C 0.78902 0.77199 0.65399 0.0
C1129 C 0.79269 0.74128 0.68158 0.0
C1130 C 0.76407 0.80286 0.65886 0.0
C1131 C 0.79002 0.83615 0.62342 0.0
N1132 N 0.78443 0.76144 0.67374 0.0
N1133 N 0.79357 0.81224 0.62941 0.0
H1134 H 0.0331 0.87952 0.62336 0.0
H1135 H 0.92999 0.70497 0.65372 0.0
H1136 H 0.07105 0.8206 0.62563 0.0
H1137 H 0.91474 0.77372 0.67481 0.0
H1138 H 0.97654 0.74414 0.63667 0.0
H1139 H 0.9836 0.83761 0.63476 0.0
C1140 C 0.03074 0.85756 0.62601 0.0
C1141 C 0.05613 0.85345 0.62384 0.0
C1142 C 0.96287 0.75051 0.64501 0.0
C1143 C -0.00031 0.80538 0.63676 0.0
C1144 C 0.93634 0.72823 0.65472 0.0
C1145 C 0.91863 0.7361 0.66591 0.0
C1146 C 0.97125 0.78074 0.64614 0.0
C1147 C 0.92787 0.76658 0.6666 0.0
C1148 C 0.00261 0.83371 0.63256 0.0
C1149 C 0.05189 0.82452 0.62711 0.0
N1150 N 0.9534 0.7877 0.65683 0.0
N1151 N 0.02423 0.80152 0.63358 0.0
H1152 H 0.2073 0.31062 0.64027 0.0
H1153 H 0.22348 0.17139 0.68306 0.0
H1154 H 0.12918 0.22118 0.64501 0.0
H1155 H 0.2998 0.25005 0.6557 0.0
H1156 H 0.18884 0.1906 0.67134 0.0
H1157 H 0.24246 0.29019 0.64708 0.0
C1158 C 0.19771 0.28667 0.64255 0.0
C1159 C 0.16556 0.26752 0.64262 0.0
C1160 C 0.21315 0.20354 0.66781 0.0
C1161 C 0.20504 0.2441 0.65064 0.0
C1162 C 0.23294 0.19269 0.67461 0.0
C1163 C 0.26456 0.20919 0.67041 0.0
C1164 C 0.22516 0.2313 0.65702 0.0
C1165 C 0.27555 0.23657 0.65925 0.0
C1166 C 0.21761 0.27502 0.64648 0.0
C1167 C 0.15394 0.23663 0.64548 0.0
N1168 N 0.25592 0.24692 0.65309 0.0
N1169 N 0.17366 0.22586 0.64969 0.0
H1170 H 0.81947 0.97408 0.61803 0.0
H1171 H 0.81823 0.0664 0.70987 0.0
H1172 H 0.76996 0.92924 0.67233 0.0
H1173 H 0.81676 0.09431 0.64665 0.0
H1174 H 0.81277 0.01918 0.69893 0.0
H1175 H 0.83131 0.02219 0.6311 0.0
C1176 C 0.81119 0.97447 0.63273 0.0
C1177 C 0.79335 0.94779 0.64401 0.0
C1178 C 0.81383 0.03582 0.68755 0.0
C1179 C 0.80745 1.00249 0.65927 0.0
C1180 C 0.81706 0.06268 0.69374 0.0
C1181 C 0.81767 0.08403 0.67911 0.0
C1182 C 0.81208 0.03088 0.66664 0.0
C1183 C 0.81601 0.07823 0.6584 0.0
C1184 C 0.81804 1.00182 0.6402 0.0
C1185 C 0.78384 0.94943 0.66325 0.0
N1186 N 0.81343 0.05227 0.65278 0.0
N1187 N 0.79097 0.97639 0.67031 0.0
H1188 H 0.50843 0.42099 0.71789 0.0
H1189 H 0.38275 0.25198 0.74242 0.0
H1190 H 0.51004 0.3765 0.77542 0.0
H1191 H 0.41659 0.28156 0.68173 0.0
H1192 H 0.42377 0.30008 0.75512 0.0
H1193 H 0.46967 0.37232 0.70431 0.0
C1194 C 0.50076 0.40094 0.72758 0.0
C1195 C 0.51231 0.40271 0.74781 0.0
C1196 C 0.42221 0.29597 0.73904 0.0
C1197 C 0.46752 0.34736 0.73267 0.0
C1198 C 0.39874 0.26865 0.73176 0.0
C1199 C 0.39629 0.26281 0.71099 0.0
C1200 C 0.44293 0.3179 0.72539 0.0
C1201 C 0.41778 0.28513 0.69787 0.0
C1202 C 0.47863 0.37328 0.71989 0.0
C1203 C 0.50127 0.37613 0.75988 0.0
N1204 N 0.44005 0.31186 0.70525 0.0
N1205 N 0.47924 0.34959 0.75221 0.0
H1206 H 0.61072 0.11014 0.77318 0.0
H1207 H 0.71145 0.13096 0.68074 0.0
H1208 H 0.56754 0.06363 0.71794 0.0
H1209 H 0.7439 0.12317 0.74218 0.0
H1210 H 0.65932 0.11218 0.69343 0.0
H1211 H 0.66115 0.12007 0.76209 0.0
C1212 C 0.61175 0.10128 0.75902 0.0
C1213 C 0.58504 0.0859 0.74648 0.0
C1214 C 0.67793 0.11445 0.70403 0.0
C1215 C 0.6425 0.09847 0.73325 0.0
C1216 C 0.70762 0.12531 0.69685 0.0
C1217 C 0.73202 0.1287 0.71043 0.0
C1218 C 0.67295 0.10774 0.72497 0.0
C1219 C 0.72577 0.12091 0.73117 0.0
C1220 C 0.6405 0.10725 0.75258 0.0
C1221 C 0.58778 0.07577 0.7279 0.0
N1222 N 0.69694 0.11117 0.73786 0.0
N1223 N 0.61611 0.08271 0.72162 0.0
H1224 H 0.83282 0.45972 0.7484 0.0
H1225 H 0.90321 0.63673 0.73103 0.0
H1226 H 0.93115 0.52179 0.75107 0.0
H1227 H 0.81256 0.57041 0.70827 0.0
H1228 H 0.91241 0.59615 0.74459 0.0
H1229 H 0.82339 0.50158 0.74021 0.0
C1230 C 0.85237 0.48228 0.74729 0.0
C1231 C 0.88277 0.48746 0.74994 0.0
C1232 C 0.89051 0.59061 0.73668 0.0
C1233 C 0.87236 0.5354 0.74093 0.0
C1234 C 0.88522 0.61369 0.72898 0.0
C1235 C 0.8572 0.60693 0.71833 0.0
C1236 C 0.86739 0.56065 0.73398 0.0
C1237 C 0.83465 0.5767 0.71616 0.0
C1238 C 0.84706 0.50612 0.74268 0.0
C1239 C 0.90741 0.51707 0.749 0.0
N1240 N 0.84022 0.55473 0.72392 0.0
N1241 N 0.90171 0.54003 0.74441 0.0
H1242 H 0.4639 0.89315 0.24566 0.0
H1243 H 0.55741 0.04463 0.17822 0.0
H1244 H 0.48702 0.98027 0.26458 0.0
H1245 H 0.50667 0.95693 0.15286 0.0
H1246 H 0.54326 0.02125 0.21229 0.0
H1247 H 0.49127 0.91634 0.21385 0.0
C1248 C 0.47536 0.91723 0.24317 0.0
C1249 C 0.47335 0.93504 0.25741 0.0
C1250 C 0.53556 0.00715 0.19925 0.0
C1251 C 0.5043 0.96156 0.22155 0.0
C1252 C 0.54348 0.02047 0.17979 0.0
C1253 C 0.5328 1.00281 0.16255 0.0
C1254 C 0.51697 0.97593 0.20156 0.0
C1255 C 0.51556 0.97151 0.16563 0.0
C1256 C 0.49075 0.93042 0.22511 0.0
C1257 C 0.48819 0.96606 0.25374 0.0
N1258 N 0.50793 0.95909 0.18474 0.0
N1259 N 0.50295 0.9784 0.23608 0.0
H1260 H 0.03602 0.50995 0.27417 0.0
H1261 H 0.05816 0.50161 0.15588 0.0
H1262 H 0.12501 0.54427 0.24821 0.0
H1263 H 0.97219 0.48359 0.1808 0.0
H1264 H 0.08144 0.50793 0.19043 0.0
H1265 H 0.01057 0.48958 0.24113 0.0
C1266 C 0.05003 0.5122 0.26157 0.0
C1267 C 0.08242 0.52827 0.26373 0.0
C1268 C 0.05739 0.50231 0.18832 0.0
C1269 C 0.05396 0.50618 0.2259 0.0
C1270 C 0.04411 0.49889 0.16857 0.0
C1271 C 0.0132 0.49241 0.1653 0.0
C1272 C 0.03968 0.49915 0.20499 0.0
C1273 C -0.00401 0.48839 0.18247 0.0
C1274 C 0.03566 0.50096 0.24271 0.0
C1275 C 0.09992 0.53149 0.24702 0.0
N1276 N 0.00952 0.49205 0.20151 0.0
N1277 N 0.08548 0.5208 0.22868 0.0
H1278 H 0.41145 0.55114 0.2392 0.0
H1279 H 0.46631 0.4546 0.182 0.0
H1280 H 0.45201 0.50215 0.27009 0.0
H1281 H 0.44027 0.51584 0.15124 0.0
H1282 H 0.45179 0.464 0.21429 0.0
H1283 H 0.4113 0.52981 0.20688 0.0
C1284 C 0.41928 0.535 0.23916 0.0
C1285 C 0.43128 0.52787 0.25714 0.0
C1286 C 0.44898 0.47516 0.20044 0.0
C1287 C 0.4323 0.50422 0.22044 0.0
C1288 C 0.45747 0.46996 0.18198 0.0
C1289 C 0.45495 0.48474 0.16382 0.0
C1290 C 0.43783 0.49527 0.20082 0.0
C1291 C 0.44253 0.50379 0.16476 0.0
C1292 C 0.41958 0.52312 0.22077 0.0
C1293 C 0.44207 0.50761 0.25647 0.0
N1294 N 0.4347 0.50869 0.18295 0.0
N1295 N 0.44262 0.49667 0.23836 0.0
H1296 H 0.96524 0.49815 0.77698 0.0
H1297 H 0.93007 0.49355 0.89355 0.0
H1298 H 0.87279 0.45688 0.79884 0.0
H1299 H 0.02058 0.55202 0.86937 0.0
H1300 H 0.90839 0.48169 0.85886 0.0
H1301 H 0.9861 0.52034 0.81033 0.0
C1302 C 0.94945 0.49443 0.78881 0.0
C1303 C 0.91747 0.476 0.78545 0.0
C1304 C 0.93295 0.49734 0.86113 0.0
C1305 C 0.94071 0.5003 0.82353 0.0
C1306 C 0.94537 0.50425 0.88098 0.0
C1307 C 0.97732 0.5237 0.88449 0.0
C1308 C 0.9526 0.50968 0.84461 0.0
C1309 C -0.00403 0.53641 0.86749 0.0
C1310 C 0.9612 0.50689 0.80779 0.0
C1311 C 0.89762 0.47124 0.80106 0.0
N1312 N 0.98339 0.52898 0.84831 0.0
N1313 N 0.90957 0.48302 0.81957 0.0
H1314 H 0.58315 0.46213 0.81266 0.0
H1315 H 0.51043 0.54208 0.87128 0.0
H1316 H 0.54461 0.51293 0.78188 0.0
H1317 H 0.53919 0.48179 0.90021 0.0
H1318 H 0.53026 0.53863 0.83916 0.0
H1319 H 0.57686 0.47779 0.84554 0.0
C1320 C 0.57459 0.47769 0.81291 0.0
C1321 C 0.5649 0.48676 0.79468 0.0
C1322 C 0.53244 0.52636 0.85259 0.0
C1323 C 0.55609 0.50366 0.83212 0.0
C1324 C 0.52085 0.52809 0.87095 0.0
C1325 C 0.52278 0.51199 0.8886 0.0
C1326 C 0.54619 0.50845 0.85177 0.0
C1327 C 0.53732 0.49485 0.88718 0.0
C1328 C 0.57047 0.48623 0.83163 0.0
C1329 C 0.55293 0.50606 0.79566 0.0
N1330 N 0.54824 0.49342 0.86912 0.0
N1331 N 0.54843 0.51356 0.81409 0.0
H1332 H 0.57257 0.10844 0.79985 0.0
H1333 H 0.51402 0.9648 0.87556 0.0
H1334 H 0.53011 0.01859 0.77931 0.0
H1335 H 0.54923 0.05512 0.89436 0.0
H1336 H 0.52875 0.98437 0.8407 0.0
H1337 H 0.57505 0.08995 0.8348 0.0
C1338 C 0.56494 0.0849 0.80274 0.0
C1339 C 0.55164 0.06498 0.78687 0.0
C1340 C 0.53358 0.9999 0.85252 0.0
C1341 C 0.55274 0.04325 0.82677 0.0
C1342 C 0.52496 0.98874 0.87242 0.0
C1343 C 0.53 0.00827 0.88795 0.0
C1344 C 0.54734 0.03083 0.84809 0.0
C1345 C 0.54499 0.03914 0.88301 0.0
C1346 C 0.5659 0.07423 0.82266 0.0
C1347 C 0.54103 0.03454 0.79124 0.0
N1348 N 0.55283 0.04939 0.86352 0.0
N1349 N 0.54134 0.02446 0.81088 0.0
H1350 H 0.13555 0.25787 0.59764 0.0
H1351 H 0.23109 0.39012 0.51586 0.0
H1352 H 0.1842 0.35123 0.61115 0.0
H1353 H 0.16395 0.29962 0.4999 0.0
H1354 H 0.2229 0.37469 0.5519 0.0
H1355 H 0.15514 0.27122 0.56294 0.0
C1356 C 0.15102 0.28113 0.59331 0.0
C1357 C 0.15845 0.3036 0.60696 0.0
C1358 C 0.21019 0.35817 0.54049 0.0
C1359 C 0.18046 0.31915 0.5676 0.0
C1360 C 0.21471 0.36698 0.51989 0.0
C1361 C 0.19785 0.34626 0.50474 0.0
C1362 C 0.18875 0.32838 0.54604 0.0
C1363 C 0.17759 0.31639 0.51097 0.0
C1364 C 0.16197 0.28879 0.57357 0.0
C1365 C 0.17815 0.33346 0.60085 0.0
N1366 N 0.17341 0.30841 0.53113 0.0
N1367 N 0.18834 0.34046 0.58152 0.0
H1368 H 0.70704 0.83794 0.60817 0.0
H1369 H 0.72714 0.84551 0.4877 0.0
H1370 H 0.79445 0.88996 0.57941 0.0
H1371 H 0.63915 0.81469 0.51496 0.0
H1372 H 0.75198 0.85258 0.52175 0.0
H1373 H 0.6817 0.81886 0.57473 0.0
C1374 C 0.72093 0.84445 0.59482 0.0
C1375 C 0.75272 0.86512 0.5963 0.0
C1376 C 0.7272 0.84408 0.52026 0.0
C1377 C 0.72428 0.84431 0.55823 0.0
C1378 C 0.71299 0.84025 0.50081 0.0
C1379 C 0.68099 0.82989 0.49834 0.0
C1380 C 0.70934 0.83736 0.53749 0.0
C1381 C 0.66381 0.8226 0.51602 0.0
C1382 C 0.70655 0.83394 0.57578 0.0
C1383 C 0.7699 0.8737 0.57869 0.0
N1384 N 0.67823 0.82666 0.53481 0.0
N1385 N 0.75545 0.86342 0.56032 0.0
H1386 H 0.07924 0.89031 0.57 0.0
H1387 H 0.13133 0.79154 0.51269 0.0
H1388 H 0.11725 0.83933 0.60128 0.0
H1389 H 0.11476 0.85972 0.48287 0.0
H1390 H 0.11616 0.8007 0.54484 0.0
H1391 H 0.08049 0.87004 0.53758 0.0
C1392 C 0.08674 0.87392 0.57001 0.0
C1393 C 0.09763 0.86594 0.58816 0.0
C1394 C 0.1156 0.81343 0.53119 0.0
C1395 C 0.10028 0.84349 0.55133 0.0
C1396 C 0.12449 0.8084 0.51282 0.0
C1397 C 0.12472 0.82509 0.49494 0.0
C1398 C 0.10665 0.83519 0.53176 0.0
C1399 C 0.11476 0.84606 0.4961 0.0
C1400 C 0.08788 0.86267 0.55157 0.0
C1401 C 0.1081 0.84541 0.58754 0.0
N1402 N 0.10634 0.8506 0.51417 0.0
N1403 N 0.10945 0.83505 0.56937 0.0
H1404 H 0.62413 0.83029 0.11218 0.0
H1405 H 0.59449 0.82626 0.2294 0.0
H1406 H 0.53262 0.78927 0.13552 0.0
H1407 H 0.68373 0.88426 0.2034 0.0
H1408 H 0.57078 0.81558 0.19507 0.0
H1409 H 0.64615 0.8537 0.14497 0.0
C1410 C 0.60875 0.82703 0.12417 0.0
C1411 C 0.57672 0.80836 0.12135 0.0
C1412 C 0.5955 0.83093 0.19687 0.0
C1413 C 0.60136 0.83382 0.15898 0.0
C1414 C 0.60908 0.83718 0.21652 0.0
C1415 C 0.6413 0.85596 0.21938 0.0
C1416 C 0.61425 0.84329 0.17991 0.0
C1417 C 0.65895 0.86907 0.20199 0.0
C1418 C 0.62119 0.84014 0.14287 0.0
C1419 C 0.55746 0.80397 0.13727 0.0
N1420 N 0.64526 0.86222 0.18304 0.0
N1421 N 0.5701 0.81628 0.15557 0.0
H1422 H 0.21436 0.85325 0.11335 0.0
H1423 H 0.21953 0.83098 0.23499 0.0
H1424 H 0.25168 0.802 0.14506 0.0
H1425 H 0.16584 0.8656 0.20145 0.0
H1426 H 0.24074 0.8293 0.20298 0.0
H1427 H 0.20775 0.86889 0.14619 0.0
C1428 C 0.22255 0.84653 0.12728 0.0
C1429 C 0.23412 0.82686 0.12661 0.0
C1430 C 0.22453 0.83751 0.20268 0.0
C1431 C 0.22532 0.84328 0.16425 0.0
C1432 C 0.21213 0.83824 0.22096 0.0
C1433 C 0.19044 0.84812 0.22107 0.0
C1434 C 0.21539 0.84686 0.18425 0.0
C1435 C 0.18259 0.85801 0.20232 0.0
C1436 C 0.21824 0.85492 0.14602 0.0
C1437 C 0.24329 0.8177 0.14504 0.0
N1438 N 0.19487 0.85695 0.18475 0.0
N1439 N 0.23833 0.82564 0.16314 0.0
H1440 H 0.20076 0.37507 0.12024 0.0
H1441 H 0.22486 0.39745 0.23931 0.0
H1442 H 0.25599 0.46112 0.14654 0.0
H1443 H 0.18087 0.31065 0.21273 0.0
H1444 H 0.24248 0.42095 0.20578 0.0
H1445 H 0.19989 0.35072 0.15372 0.0
C1446 C 0.2137 0.38869 0.13305 0.0
C1447 C 0.22876 0.41993 0.13083 0.0
C1448 C 0.22929 0.39675 0.2073 0.0
C1449 C 0.2268 0.39266 0.16924 0.0
C1450 C 0.21928 0.38324 0.22651 0.0
C1451 C 0.20097 0.35193 0.22891 0.0
C1452 C 0.22074 0.37892 0.19023 0.0
C1453 C 0.19425 0.33486 0.2116 0.0
C1454 C 0.21296 0.37493 0.15217 0.0
C1455 C 0.24456 0.43692 0.14779 0.0
N1456 N 0.20383 0.34857 0.193 0.0
N1457 N 0.24273 0.42308 0.16643 0.0
H1458 H 0.85778 0.66848 0.94338 0.0
H1459 H 0.82981 0.62909 0.82554 0.0
H1460 H 0.78146 0.58808 0.91912 0.0
H1461 H 0.8993 0.71559 0.84712 0.0
H1462 H 0.81867 0.61045 0.86069 0.0
H1463 H 0.87988 0.68292 0.90927 0.0
C1464 C 0.8461 0.65374 0.93085 0.0
C1465 C 0.81778 0.62737 0.9337 0.0
C1466 C 0.83658 0.63345 0.85778 0.0
C1467 C 0.84236 0.64339 0.89505 0.0
C1468 C 0.84316 0.64407 0.83766 0.0
C1469 C 0.86538 0.67407 0.83331 0.0
C1470 C 0.85216 0.65294 0.87377 0.0
C1471 C 0.88156 0.69247 0.84976 0.0
C1472 C 0.8585 0.66193 0.91147 0.0
C1473 C 0.8032 0.60878 0.91724 0.0
N1474 N 0.87443 0.68169 0.86927 0.0
N1475 N 0.81552 0.61724 0.89857 0.0
H1476 H 0.46039 0.22771 0.91151 0.0
H1477 H 0.30567 0.12741 0.84494 0.0
H1478 H 0.37309 0.1664 0.93802 0.0
H1479 H 0.39291 0.19412 0.81999 0.0
H1480 H 0.33107 0.13553 0.87897 0.0
H1481 H 0.43783 0.2087 0.87778 0.0
C1482 C 0.43664 0.20952 0.91013 0.0
C1483 C 0.41851 0.19827 0.92731 0.0
C1484 C 0.34467 0.14815 0.866 0.0
C1485 C 0.39202 0.17716 0.88893 0.0
C1486 C 0.33015 0.14371 0.84657 0.0
C1487 C 0.34707 0.16026 0.82951 0.0
C1488 C 0.37637 0.16932 0.86842 0.0
C1489 C 0.3789 0.1806 0.83257 0.0
C1490 C 0.42363 0.19888 0.89095 0.0
C1491 C 0.38771 0.17521 0.925 0.0
N1492 N 0.39239 0.18467 0.85161 0.0
N1493 N 0.3752 0.16562 0.90606 0.0
H1494 H 0.79875 0.17843 0.93954 0.0
H1495 H 0.78162 0.1901 0.81859 0.0
H1496 H 0.75103 0.22023 0.908 0.0
H1497 H 0.81478 0.13469 0.85009 0.0
H1498 H 0.7667 0.1981 0.85108 0.0
H1499 H 0.80094 0.15837 0.90724 0.0
C1500 C 0.78791 0.18251 0.92581 0.0
C1501 C 0.77443 0.20059 0.92623 0.0
C1502 C 0.77698 0.18396 0.85088 0.0
C1503 C 0.77768 0.17888 0.88924 0.0
C1504 C 0.78541 0.17923 0.83226 0.0
C1505 C 0.79977 0.16182 0.83147 0.0
C1506 C 0.78315 0.17148 0.86901 0.0
C1507 C 0.80445 0.14882 0.84989 0.0
C1508 C 0.78936 0.17136 0.90738 0.0
C1509 C 0.76126 0.20601 0.90813 0.0
N1510 N 0.79645 0.15413 0.86787 0.0
N1511 N 0.76356 0.19554 0.89029 0.0
H1512 H 0.30311 0.15682 0.44301 0.0
H1513 H 0.27003 0.18699 0.55383 0.0
H1514 H 0.21284 0.13614 0.46094 0.0
H1515 H 0.35769 0.19846 0.53687 0.0
H1516 H 0.25036 0.17537 0.51858 0.0
H1517 H 0.32547 0.18002 0.4758 0.0
C1518 C 0.28818 0.15759 0.45388 0.0
C1519 C 0.25624 0.14445 0.44961 0.0
C1520 C 0.274 0.18072 0.52256 0.0
C1521 C 0.28121 0.17053 0.48703 0.0
C1522 C 0.2852 0.1872 0.54271 0.0
C1523 C 0.31551 0.19349 0.54842 0.0
C1524 C 0.29322 0.18049 0.508 0.0
C1525 C 0.33428 0.19402 0.53322 0.0
C1526 C 0.30081 0.17074 0.47254 0.0
C1527 C 0.23763 0.14614 0.46387 0.0
N1528 N 0.32276 0.18738 0.51379 0.0
N1529 N 0.25034 0.15865 0.48211 0.0
H1530 H 0.86919 0.16925 0.44651 0.0
H1531 H 0.89135 0.16713 0.56832 0.0
H1532 H 0.92197 0.13374 0.47939 0.0
H1533 H 0.82572 0.18719 0.53505 0.0
H1534 H 0.91023 0.16339 0.53591 0.0
H1535 H 0.86209 0.18636 0.47861 0.0
C1536 C 0.88033 0.16622 0.46048 0.0
C1537 C 0.89652 0.15056 0.46044 0.0
C1538 C 0.89186 0.16884 0.53573 0.0
C1539 C 0.8876 0.1688 0.49727 0.0
C1540 C 0.88084 0.17074 0.55426 0.0
C1541 C 0.85659 0.17722 0.55457 0.0
C1542 C 0.8787 0.17355 0.51727 0.0
C1543 C 0.84458 0.18241 0.53573 0.0
C1544 C 0.8759 0.1755 0.47881 0.0
C1545 C 0.90979 0.14623 0.47891 0.0
N1546 N 0.85561 0.1803 0.51792 0.0
N1547 N 0.90474 0.15496 0.49665 0.0
H1548 H 0.86329 0.6789 0.44934 0.0
H1549 H 0.88719 0.71794 0.56645 0.0
H1550 H 0.90246 0.76778 0.47108 0.0
H1551 H 0.84429 0.62766 0.54568 0.0
H1552 H 0.9029 0.73703 0.53189 0.0
H1553 H 0.8666 0.66033 0.48436 0.0
C1554 C 0.87383 0.6946 0.46146 0.0
C1555 C 0.883 0.72482 0.45755 0.0
C1556 C 0.89034 0.71302 0.53489 0.0
C1557 C 0.88583 0.704 0.49747 0.0
C1558 C 0.88148 0.70206 0.55472 0.0
C1559 C 0.864 0.67108 0.55903 0.0
C1560 C 0.88148 0.69295 0.51911 0.0
C1561 C 0.85706 0.65172 0.54301 0.0
C1562 C 0.87536 0.68406 0.48142 0.0
C1563 C 0.89563 0.74439 0.47365 0.0
N1564 N 0.8655 0.66296 0.52373 0.0
N1565 N 0.89631 0.73361 0.49297 0.0
loop_
_geom_bond_atom_site_label_1
_geom_bond_atom_site_label_2
_geom_bond_distance
_geom_bond_site_symmetry_2
_ccdc_geom_bond_type
C0 N1 1.317 . S
C0 N2 1.348 . S
C0 C3 1.485 . S
N1 C0 1.317 . S
N1 N5 1.370 . S
N2 C0 1.348 . S
N2 C4 1.346 . S
C3 C0 1.485 . S
C3 H7 0.960 . S
C3 H8 0.961 . S
C3 H9 0.960 . S
C4 N2 1.346 . S
C4 N5 1.307 . S
C4 C6 1.486 . S
N5 N1 1.370 . S
N5 C4 1.307 . S
C6 C4 1.486 . S
C6 H10 0.960 . S
C6 H11 0.960 . S
C6 H12 0.959 . S
H7 C3 0.960 . S
H8 C3 0.961 . S
H9 C3 0.960 . S
H10 C6 0.960 . S
H11 C6 0.960 . S
H12 C6 0.959 . S
C13 N14 1.317 . S
C13 N15 1.348 . S
C13 C16 1.485 . S
N14 C13 1.317 . S
N14 N18 1.370 . S
N15 C13 1.348 . S
N15 C17 1.346 . S
C16 C13 1.485 . S
C16 H20 0.960 . S
C16 H21 0.961 . S
C16 H22 0.960 . S
C17 N15 1.346 . S
C17 N18 1.307 . S
C17 C19 1.486 . S
N18 N14 1.370 . S
N18 C17 1.307 . S
C19 C17 1.486 . S
C19 H23 0.960 . S
C19 H24 0.960 . S
C19 H25 0.959 . S
H20 C16 0.960 . S
H21 C16 0.961 . S
H22 C16 0.960 . S
H23 C19 0.960 . S
H24 C19 0.960 . S
H25 C19 0.959 . S
C26 N27 1.317 . S
C26 N28 1.348 . S
C26 C29 1.485 . S
N27 C26 1.317 . S
N27 N31 1.370 . S
N28 C26 1.348 . S
N28 C30 1.346 . S
C29 C26 1.485 . S
C29 H33 0.960 . S
C29 H34 0.961 . S
C29 H35 0.960 . S
C30 N28 1.346 . S
C30 N31 1.307 . S
C30 C32 1.486 . S
N31 N27 1.370 . S
N31 C30 1.307 . S
C32 C30 1.486 . S
C32 H36 0.960 . S
C32 H37 0.960 . S
C32 H38 0.959 . S
H33 C29 0.960 . S
H34 C29 0.961 . S
H35 C29 0.960 . S
H36 C32 0.960 . S
H37 C32 0.960 . S
H38 C32 0.959 . S
C39 N40 1.317 . S
C39 N41 1.348 . S
C39 C42 1.485 . S
N40 C39 1.317 . S
N40 N44 1.370 . S
N41 C39 1.348 . S
N41 C43 1.346 . S
C42 C39 1.485 . S
C42 H46 0.960 . S
C42 H47 0.961 . S
C42 H48 0.960 . S
C43 N41 1.346 . S
C43 N44 1.307 . S
C43 C45 1.486 . S
N44 N40 1.370 . S
N44 C43 1.307 . S
C45 C43 1.486 . S
C45 H49 0.960 . S
C45 H50 0.960 . S
C45 H51 0.959 . S
H46 C42 0.960 . S
H47 C42 0.961 . S
H48 C42 0.960 . S
H49 C45 0.960 . S
H50 C45 0.960 . S
H51 C45 0.959 . S
C52 N53 1.317 . S
C52 N54 1.348 . S
C52 C55 1.485 . S
N53 C52 1.317 . S
N53 N57 1.370 . S
N54 C52 1.348 . S
N54 C56 1.346 . S
C55 C52 1.485 . S
C55 H59 0.960 . S
C55 H60 0.961 . S
C55 H61 0.960 . S
C56 N54 1.346 . S
C56 N57 1.307 . S
C56 C58 1.486 . S
N57 N53 1.370 . S
N57 C56 1.307 . S
C58 C56 1.486 . S
C58 H62 0.960 . S
C58 H63 0.960 . S
C58 H64 0.959 . S
H59 C55 0.960 . S
H60 C55 0.961 . S
H61 C55 0.960 . S
H62 C58 0.960 . S
H63 C58 0.960 . S
H64 C58 0.959 . S
C65 N66 1.317 . S
C65 N67 1.348 . S
C65 C68 1.485 . S
N66 C65 1.317 . S
N66 N70 1.370 . S
N67 C65 1.348 . S
N67 C69 1.346 . S
C68 C65 1.485 . S
C68 H72 0.960 . S
C68 H73 0.961 . S
C68 H74 0.960 . S
C69 N67 1.346 . S
C69 N70 1.307 . S
C69 C71 1.486 . S
N70 N66 1.370 . S
N70 C69 1.307 . S
C71 C69 1.486 . S
C71 H75 0.960 . S
C71 H76 0.960 . S
C71 H77 0.959 . S
H72 C68 0.960 . S
H73 C68 0.961 . S
H74 C68 0.960 . S
H75 C71 0.960 . S
H76 C71 0.960 . S
H77 C71 0.959 . S
C78 N79 1.317 . S
C78 N80 1.348 . S
C78 C81 1.485 . S
N79 C78 1.317 . S
N79 N83 1.370 . S
N80 C78 1.348 . S
N80 C82 1.346 . S
C81 C78 1.485 . S
C81 H85 0.960 . S
C81 H86 0.961 . S
C81 H87 0.960 . S
C82 N80 1.346 . S
C82 N83 1.307 . S
C82 C84 1.486 . S
N83 N79 1.370 . S
N83 C82 1.307 . S
C84 C82 1.486 . S
C84 H88 0.960 . S
C84 H89 0.960 . S
C84 H90 0.959 . S
H85 C81 0.960 . S
H86 C81 0.961 . S
H87 C81 0.960 . S
H88 C84 0.960 . S
H89 C84 0.960 . S
H90 C84 0.959 . S
C91 N92 1.317 . S
C91 N93 1.348 . S
C91 C94 1.485 . S
N92 C91 1.317 . S
N92 N96 1.370 . S
N93 C91 1.348 . S
N93 C95 1.346 . S
C94 C91 1.485 . S
C94 H98 0.960 . S
C94 H99 0.961 . S
C94 H100 0.960 . S
C95 N93 1.346 . S
C95 N96 1.307 . S
C95 C97 1.486 . S
N96 N92 1.370 . S
N96 C95 1.307 . S
C97 C95 1.486 . S
C97 H101 0.960 . S
C97 H102 0.960 . S
C97 H103 0.959 . S
H98 C94 0.960 . S
H99 C94 0.961 . S
H100 C94 0.960 . S
H101 C97 0.960 . S
H102 C97 0.960 . S
H103 C97 0.959 . S
C104 N105 1.317 . S
C104 N106 1.348 . S
C104 C107 1.485 . S
N105 C104 1.317 . S
N105 N109 1.370 . S
N106 C104 1.348 . S
N106 C108 1.346 . S
C107 C104 1.485 . S
C107 H111 0.960 . S
C107 H112 0.961 . S
C107 H113 0.960 . S
C108 N106 1.346 . S
C108 N109 1.307 . S
C108 C110 1.486 . S
N109 N105 1.370 . S
N109 C108 1.307 . S
C110 C108 1.486 . S
C110 H114 0.960 . S
C110 H115 0.960 . S
C110 H116 0.959 . S
H111 C107 0.960 . S
H112 C107 0.961 . S
H113 C107 0.960 . S
H114 C110 0.960 . S
H115 C110 0.960 . S
H116 C110 0.959 . S
C117 N118 1.317 . S
C117 N119 1.348 . S
C117 C120 1.485 . S
N118 C117 1.317 . S
N118 N122 1.370 . S
N119 C117 1.348 . S
N119 C121 1.346 . S
C120 C117 1.485 . S
C120 H124 0.960 . S
C120 H125 0.961 . S
C120 H126 0.960 . S
C121 N119 1.346 . S
C121 N122 1.307 . S
C121 C123 1.486 . S
N122 N118 1.370 . S
N122 C121 1.307 . S
C123 C121 1.486 . S
C123 H127 0.960 . S
C123 H128 0.960 . S
C123 H129 0.959 . S
H124 C120 0.960 . S
H125 C120 0.961 . S
H126 C120 0.960 . S
H127 C123 0.960 . S
H128 C123 0.960 . S
H129 C123 0.959 . S
C130 N131 1.317 . S
C130 N132 1.348 . S
C130 C133 1.485 1_556 S
N131 C130 1.317 . S
N131 N135 1.370 . S
N132 C130 1.348 . S
N132 C134 1.346 . S
C133 C130 1.485 1_554 S
C133 H137 0.960 . S
C133 H138 0.961 . S
C133 H139 0.960 . S
C134 N132 1.346 . S
C134 N135 1.307 . S
C134 C136 1.486 . S
N135 N131 1.370 . S
N135 C134 1.307 . S
C136 C134 1.486 . S
C136 H140 0.960 . S
C136 H141 0.960 . S
C136 H142 0.959 . S
H137 C133 0.960 . S
H138 C133 0.961 . S
H139 C133 0.960 . S
H140 C136 0.960 . S
H141 C136 0.960 . S
H142 C136 0.959 . S
C143 N144 1.317 . S
C143 N145 1.348 . S
C143 C146 1.485 1_556 S
N144 C143 1.317 . S
N144 N148 1.370 . S
N145 C143 1.348 . S
N145 C147 1.346 . S
C146 C143 1.485 1_554 S
C146 H150 0.960 . S
C146 H151 0.961 . S
C146 H152 0.960 . S
C147 N145 1.346 . S
C147 N148 1.307 . S
C147 C149 1.486 . S
N148 N144 1.370 . S
N148 C147 1.307 . S
C149 C147 1.486 . S
C149 H153 0.960 . S
C149 H154 0.960 . S
C149 H155 0.959 . S
H150 C146 0.960 . S
H151 C146 0.961 . S
H152 C146 0.960 . S
H153 C149 0.960 . S
H154 C149 0.960 . S
H155 C149 0.959 . S
C156 N157 1.317 . S
C156 N158 1.348 . S
C156 C159 1.485 . S
N157 C156 1.317 . S
N157 N161 1.370 . S
N158 C156 1.348 . S
N158 C160 1.346 . S
C159 C156 1.485 . S
C159 H163 0.960 . S
C159 H164 0.945 1_554 S
C159 H165 0.960 . S
C160 N158 1.346 . S
C160 N161 1.307 . S
C160 C162 1.486 . S
N161 N157 1.370 . S
N161 C160 1.307 . S
C162 C160 1.486 . S
C162 H166 0.960 . S
C162 H167 0.960 . S
C162 H168 0.959 . S
H163 C159 0.960 . S
H164 C159 0.945 1_556 S
H165 C159 0.960 . S
H166 C162 0.960 . S
H167 C162 0.960 . S
H168 C162 0.959 . S
C169 N170 1.317 . S
C169 N171 1.348 . S
C169 C172 1.485 . S
N170 C169 1.317 . S
N170 N174 1.370 . S
N171 C169 1.348 . S
N171 C173 1.346 . S
C172 C169 1.485 . S
C172 H176 0.960 . S
C172 H177 0.961 . S
C172 H178 0.960 . S
C173 N171 1.346 . S
C173 N174 1.307 . S
C173 C175 1.486 . S
N174 N170 1.370 . S
N174 C173 1.307 . S
C175 C173 1.486 . S
C175 H179 0.960 . S
C175 H180 0.960 . S
C175 H181 0.959 . S
H176 C172 0.960 . S
H177 C172 0.961 . S
H178 C172 0.960 . S
H179 C175 0.960 . S
H180 C175 0.960 . S
H181 C175 0.959 . S
C182 N183 1.317 . S
C182 N184 1.348 . S
C182 C185 1.485 . S
N183 C182 1.317 . S
N183 N187 1.370 . S
N184 C182 1.348 . S
N184 C186 1.346 . S
C185 C182 1.485 . S
C185 H189 0.960 . S
C185 H190 0.961 . S
C185 H191 0.960 . S
C186 N184 1.346 . S
C186 N187 1.307 . S
C186 C188 1.486 . S
N187 N183 1.370 . S
N187 C186 1.307 . S
C188 C186 1.486 . S
C188 H192 0.960 . S
C188 H193 0.960 . S
C188 H194 0.959 . S
H189 C185 0.960 . S
H190 C185 0.961 . S
H191 C185 0.960 . S
H192 C188 0.960 . S
H193 C188 0.960 . S
H194 C188 0.959 . S
C195 N196 1.317 . S
C195 N197 1.348 . S
C195 C198 1.485 . S
N196 C195 1.317 . S
N196 N200 1.370 . S
N197 C195 1.348 . S
N197 C199 1.346 . S
C198 C195 1.485 . S
C198 H202 0.960 . S
C198 H203 0.961 . S
C198 H204 0.960 . S
C199 N197 1.346 . S
C199 N200 1.307 . S
C199 C201 1.486 . S
N200 N196 1.370 . S
N200 C199 1.307 . S
C201 C199 1.486 . S
C201 H205 0.960 . S
C201 H206 0.960 . S
C201 H207 0.959 . S
H202 C198 0.960 . S
H203 C198 0.961 . S
H204 C198 0.960 . S
H205 C201 0.960 . S
H206 C201 0.960 . S
H207 C201 0.959 . S
C208 N209 1.317 . S
C208 N210 1.348 . S
C208 C211 1.485 . S
N209 C208 1.317 . S
N209 N213 1.370 . S
N210 C208 1.348 . S
N210 C212 1.346 . S
C211 C208 1.485 . S
C211 H215 0.960 . S
C211 H216 0.961 . S
C211 H217 0.960 . S
C212 N210 1.346 . S
C212 N213 1.307 . S
C212 C214 1.486 . S
N213 N209 1.370 . S
N213 C212 1.307 . S
C214 C212 1.486 . S
C214 H218 0.960 . S
C214 H219 0.960 . S
C214 H220 0.959 . S
H215 C211 0.960 . S
H216 C211 0.961 . S
H217 C211 0.960 . S
H218 C214 0.960 . S
H219 C214 0.960 . S
H220 C214 0.959 . S
C221 N222 1.317 . S
C221 N223 1.348 . S
C221 C224 1.485 . S
N222 C221 1.317 . S
N222 N226 1.370 . S
N223 C221 1.348 . S
N223 C225 1.346 . S
C224 C221 1.485 . S
C224 H228 0.960 . S
C224 H229 0.961 . S
C224 H230 0.960 . S
C225 N223 1.346 . S
C225 N226 1.307 . S
C225 C227 1.486 . S
N226 N222 1.370 . S
N226 C225 1.307 . S
C227 C225 1.486 . S
C227 H231 0.960 . S
C227 H232 0.960 . S
C227 H233 0.959 . S
H228 C224 0.960 . S
H229 C224 0.961 . S
H230 C224 0.960 . S
H231 C227 0.960 . S
H232 C227 0.960 . S
H233 C227 0.959 . S
Tb234 C244 2.825 1_565 S
Tb234 O245 2.347 1_566 S
Tb234 O248 2.366 1_565 S
Tb234 O253 2.418 . S
Tb234 O254 2.384 1_556 S
Tb234 O257 2.479 . S
Tb234 O258 2.471 1_565 S
Eu235 O246 2.418 . S
Eu235 O247 2.384 . S
Eu235 O250 2.479 . S
Eu235 O251 2.471 1_545 S
Eu235 O252 2.347 1_545 S
Eu235 O255 2.366 1_545 S
Eu235 C265 2.825 1_545 S
C236 O252 1.259 . S
C236 O253 1.265 1_554 S
C237 O254 1.255 . S
C237 O255 1.265 . S
C238 C240 1.380 . S
C238 C241 1.374 . S
C238 C244 1.507 . S
C239 C240 1.384 . S
C239 C243 1.387 . S
C239 H266 0.930 . S
C240 C238 1.380 . S
C240 C239 1.384 . S
C240 H267 0.931 1_545 S
C241 C238 1.374 . S
C241 C242 1.390 . S
C241 H268 0.930 . S
C242 C241 1.390 . S
C242 C243 1.391 . S
C242 H269 0.930 . S
C243 C239 1.387 . S
C243 C242 1.391 . S
C244 Tb234 2.825 1_545 S
C244 C238 1.507 . S
C244 O257 1.238 1_545 S
C244 O258 1.247 . S
O245 Tb234 2.347 1_544 S
O245 C249 1.259 . S
O246 Eu235 2.418 . S
O246 C249 1.265 . S
O247 Eu235 2.384 . S
O247 C256 1.262 1_554 S
O248 Tb234 2.366 1_545 S
O248 C256 1.260 . S
C249 O245 1.259 . S
C249 O246 1.265 . S
O250 Eu235 2.479 . S
O250 C265 1.238 1_545 S
O251 Eu235 2.471 1_565 S
O251 C265 1.247 . S
O252 Eu235 2.347 1_565 S
O252 C236 1.259 . S
O253 Tb234 2.418 . S
O253 C236 1.265 1_556 S
O254 Tb234 2.384 1_554 S
O254 C237 1.255 . S
O255 Eu235 2.366 1_565 S
O255 C237 1.265 . S
C256 O247 1.262 1_556 S
C256 O248 1.260 . S
O257 Tb234 2.479 . S
O257 C244 1.238 1_565 S
O258 Tb234 2.471 1_545 S
O258 C244 1.247 . S
C259 C262 1.380 . S
C259 C263 1.374 . S
C259 C265 1.507 . S
C260 C261 1.387 . S
C260 C264 1.391 . S
C261 C260 1.387 . S
C261 C262 1.384 . S
C261 H270 0.930 . S
C262 C259 1.380 . S
C262 C261 1.384 . S
C262 H271 0.931 1_565 S
C263 C259 1.374 . S
C263 C264 1.390 . S
C263 H272 0.930 . S
C264 C260 1.391 . S
C264 C263 1.390 . S
C264 H273 0.930 . S
C265 Eu235 2.825 1_565 S
C265 O250 1.238 1_565 S
C265 O251 1.247 . S
C265 C259 1.507 . S
H266 C239 0.930 . S
H267 C240 0.931 1_565 S
H268 C241 0.930 . S
H269 C242 0.930 . S
H270 C261 0.930 . S
H271 C262 0.931 1_545 S
H272 C263 0.930 . S
H273 C264 0.930 . S
Tb274 C284 2.825 . S
Tb274 O285 2.347 1_455 S
Tb274 O288 2.366 1_455 S
Tb274 O293 2.418 . S
Tb274 O294 2.384 1_556 S
Tb274 O297 2.479 . S
Tb274 O298 2.461 1_455 S
Eu275 O286 2.418 . S
Eu275 O287 2.384 . S
Eu275 O290 2.479 . S
Eu275 O291 2.471 1_655 S
Eu275 O292 2.347 1_655 S
Eu275 O295 2.366 1_655 S
Eu275 C305 2.825 1_655 S
C276 O292 1.259 . S
C276 O293 1.265 1_554 S
C277 O294 1.255 . S
C277 O295 1.265 . S
C278 C280 1.376 1_655 S
C278 C281 1.382 . S
C278 C284 1.502 1_655 S
C279 C280 1.384 . S
C279 C283 1.387 1_455 S
C279 H306 0.930 . S
C280 C278 1.376 1_455 S
C280 C279 1.384 . S
C280 H307 0.931 . S
C281 C278 1.382 . S
C281 C282 1.390 . S
C281 H308 0.930 . S
C282 C281 1.390 . S
C282 C283 1.391 . S
C282 H309 0.930 . S
C283 C279 1.387 1_655 S
C283 C282 1.391 . S
C284 Tb274 2.825 . S
C284 C278 1.502 1_455 S
C284 O297 1.238 . S
C284 O298 1.246 1_455 S
O285 Tb274 2.347 1_655 S
O285 C289 1.259 1_556 S
O286 Eu275 2.418 . S
O286 C289 1.265 . S
O287 Eu275 2.384 . S
O287 C296 1.255 1_554 S
O288 Tb274 2.366 1_655 S
O288 C296 1.265 . S
C289 O285 1.259 1_554 S
C289 O286 1.265 . S
O290 Eu275 2.479 . S
O290 C305 1.238 1_655 S
O291 Eu275 2.471 1_455 S
O291 C305 1.247 . S
O292 Eu275 2.347 1_455 S
O292 C276 1.259 . S
O293 Tb274 2.418 . S
O293 C276 1.265 1_556 S
O294 Tb274 2.384 1_554 S
O294 C277 1.255 . S
O295 Eu275 2.366 1_455 S
O295 C277 1.265 . S
C296 O287 1.255 1_556 S
C296 O288 1.265 . S
O297 Tb274 2.479 . S
O297 C284 1.238 . S
O298 Tb274 2.461 1_655 S
O298 C284 1.246 1_655 S
C299 C302 1.373 1_455 S
C299 C303 1.374 . S
C299 C305 1.507 . S
C300 C301 1.387 . S
C300 C304 1.391 . S
C301 C300 1.387 . S
C301 C302 1.377 1_455 S
C301 H310 0.930 1_455 S
C302 C299 1.373 1_655 S
C302 C301 1.377 1_655 S
C302 H311 0.945 . S
C303 C299 1.374 . S
C303 C304 1.390 . S
C303 H312 0.930 . S
C304 C300 1.391 . S
C304 C303 1.390 . S
C304 H313 0.930 . S
C305 Eu275 2.825 1_455 S
C305 O290 1.238 1_455 S
C305 O291 1.247 . S
C305 C299 1.507 . S
H306 C279 0.930 . S
H307 C280 0.931 . S
H308 C281 0.930 . S
H309 C282 0.930 . S
H310 C301 0.930 1_655 S
H311 C302 0.945 . S
H312 C303 0.930 . S
H313 C304 0.930 . S
Tb314 C324 2.825 . S
Tb314 O325 2.347 . S
Tb314 O328 2.366 . S
Tb314 O333 2.418 . S
Tb314 O334 2.384 . S
Tb314 O337 2.479 . S
Tb314 O338 2.471 . S
Eu315 O326 2.418 . S
Eu315 O327 2.384 1_556 S
Eu315 O330 2.479 . S
Eu315 O331 2.471 . S
Eu315 O332 2.347 1_556 S
Eu315 O335 2.366 . S
Eu315 C345 2.825 . S
C316 O332 1.259 . S
C316 O333 1.265 . S
C317 O334 1.266 . S
C317 O335 1.259 1_554 S
C318 C320 1.380 . S
C318 C321 1.374 . S
C318 C324 1.507 . S
C319 C320 1.384 . S
C319 C323 1.387 . S
C319 H346 0.930 . S
C320 C318 1.380 . S
C320 C319 1.384 . S
C320 H347 0.931 . S
C321 C318 1.374 . S
C321 C322 1.390 . S
C321 H348 0.930 . S
C322 C321 1.390 . S
C322 C323 1.391 . S
C322 H349 0.930 . S
C323 C319 1.387 . S
C323 C322 1.391 . S
C324 Tb314 2.825 . S
C324 C318 1.507 . S
C324 O337 1.238 . S
C324 O338 1.247 . S
O325 Tb314 2.347 . S
O325 C329 1.259 . S
O326 Eu315 2.418 . S
O326 C329 1.265 1_556 S
O327 Eu315 2.384 1_554 S
O327 C336 1.255 . S
O328 Tb314 2.366 . S
O328 C336 1.265 . S
C329 O325 1.259 . S
C329 O326 1.265 1_554 S
O330 Eu315 2.479 . S
O330 C345 1.238 . S
O331 Eu315 2.471 . S
O331 C345 1.247 . S
O332 Eu315 2.347 1_554 S
O332 C316 1.259 . S
O333 Tb314 2.418 . S
O333 C316 1.265 . S
O334 Tb314 2.384 . S
O334 C317 1.266 . S
O335 Eu315 2.366 . S
O335 C317 1.259 1_556 S
C336 O327 1.255 . S
C336 O328 1.265 . S
O337 Tb314 2.479 . S
O337 C324 1.238 . S
O338 Tb314 2.471 . S
O338 C324 1.247 . S
C339 C342 1.380 . S
C339 C343 1.374 . S
C339 C345 1.507 . S
C340 C341 1.387 . S
C340 C344 1.391 . S
C341 C340 1.387 . S
C341 C342 1.384 . S
C341 H350 0.930 . S
C342 C339 1.380 . S
C342 C341 1.384 . S
C342 H351 0.931 . S
C343 C339 1.374 . S
C343 C344 1.390 . S
C343 H352 0.930 . S
C344 C340 1.391 . S
C344 C343 1.390 . S
C344 H353 0.930 . S
C345 Eu315 2.825 . S
C345 O330 1.238 . S
C345 O331 1.247 . S
C345 C339 1.507 . S
H346 C319 0.930 . S
H347 C320 0.931 . S
H348 C321 0.930 . S
H349 C322 0.930 . S
H350 C341 0.930 . S
H351 C342 0.931 . S
H352 C343 0.930 . S
H353 C344 0.930 . S
Tb354 C364 2.825 . S
Tb354 O365 2.347 . S
Tb354 O368 2.366 . S
Tb354 O373 2.418 . S
Tb354 O374 2.384 . S
Tb354 O377 2.479 . S
Tb354 O378 2.471 . S
Eu355 O366 2.418 . S
Eu355 O367 2.384 . S
Eu355 O370 2.479 . S
Eu355 O371 2.471 . S
Eu355 O372 2.347 . S
Eu355 O375 2.366 . S
Eu355 C385 2.825 . S
C356 O372 1.259 . S
C356 O373 1.265 . S
C357 O374 1.255 . S
C357 O375 1.265 . S
C358 C360 1.380 . S
C358 C361 1.374 . S
C358 C364 1.507 . S
C359 C360 1.384 . S
C359 C363 1.387 . S
C359 H386 0.930 . S
C360 C358 1.380 . S
C360 C359 1.384 . S
C360 H387 0.931 . S
C361 C358 1.374 . S
C361 C362 1.390 . S
C361 H388 0.930 . S
C362 C361 1.390 . S
C362 C363 1.391 . S
C362 H389 0.930 . S
C363 C359 1.387 . S
C363 C362 1.391 . S
C364 Tb354 2.825 . S
C364 C358 1.507 . S
C364 O377 1.238 . S
C364 O378 1.247 . S
O365 Tb354 2.347 . S
O365 C369 1.259 . S
O366 Eu355 2.418 . S
O366 C369 1.265 . S
O367 Eu355 2.384 . S
O367 C376 1.255 . S
O368 Tb354 2.366 . S
O368 C376 1.265 . S
C369 O365 1.259 . S
C369 O366 1.265 . S
O370 Eu355 2.479 . S
O370 C385 1.238 . S
O371 Eu355 2.471 . S
O371 C385 1.247 . S
O372 Eu355 2.347 . S
O372 C356 1.259 . S
O373 Tb354 2.418 . S
O373 C356 1.265 . S
O374 Tb354 2.384 . S
O374 C357 1.255 . S
O375 Eu355 2.366 . S
O375 C357 1.265 . S
C376 O367 1.255 . S
C376 O368 1.265 . S
O377 Tb354 2.479 . S
O377 C364 1.238 . S
O378 Tb354 2.471 . S
O378 C364 1.247 . S
C379 C382 1.380 . S
C379 C383 1.374 . S
C379 C385 1.507 . S
C380 C381 1.387 . S
C380 C384 1.391 . S
C381 C380 1.387 . S
C381 C382 1.384 . S
C381 H390 0.930 . S
C382 C379 1.380 . S
C382 C381 1.384 . S
C382 H391 0.931 . S
C383 C379 1.374 . S
C383 C384 1.390 . S
C383 H392 0.930 . S
C384 C380 1.391 . S
C384 C383 1.390 . S
C384 H393 0.930 . S
C385 Eu355 2.825 . S
C385 O370 1.238 . S
C385 O371 1.247 . S
C385 C379 1.507 . S
H386 C359 0.930 . S
H387 C360 0.931 . S
H388 C361 0.930 . S
H389 C362 0.930 . S
H390 C381 0.930 . S
H391 C382 0.931 . S
H392 C383 0.930 . S
H393 C384 0.930 . S
Tb394 C404 2.825 . S
Tb394 O405 2.347 . S
Tb394 O408 2.366 . S
Tb394 O413 2.418 . S
Tb394 O414 2.384 . S
Tb394 O417 2.479 . S
Tb394 O418 2.471 . S
Eu395 O406 2.418 . S
Eu395 O407 2.384 . S
Eu395 O410 2.479 . S
Eu395 O411 2.471 . S
Eu395 O412 2.347 . S
Eu395 O415 2.366 . S
Eu395 C425 2.825 . S
C396 O412 1.259 . S
C396 O413 1.265 . S
C397 O414 1.255 . S
C397 O415 1.265 . S
C398 C400 1.380 . S
C398 C401 1.374 . S
C398 C404 1.507 . S
C399 C400 1.384 . S
C399 C403 1.387 . S
C399 H426 0.930 . S
C400 C398 1.380 . S
C400 C399 1.384 . S
C400 H427 0.931 . S
C401 C398 1.374 . S
C401 C402 1.390 . S
C401 H428 0.930 . S
C402 C401 1.390 . S
C402 C403 1.391 . S
C402 H429 0.930 . S
C403 C399 1.387 . S
C403 C402 1.391 . S
C404 Tb394 2.825 . S
C404 C398 1.507 . S
C404 O417 1.238 . S
C404 O418 1.247 . S
O405 Tb394 2.347 . S
O405 C409 1.259 . S
O406 Eu395 2.418 . S
O406 C409 1.265 . S
O407 Eu395 2.384 . S
O407 C416 1.255 . S
O408 Tb394 2.366 . S
O408 C416 1.265 . S
C409 O405 1.259 . S
C409 O406 1.265 . S
O410 Eu395 2.479 . S
O410 C425 1.238 . S
O411 Eu395 2.471 . S
O411 C425 1.247 . S
O412 Eu395 2.347 . S
O412 C396 1.259 . S
O413 Tb394 2.418 . S
O413 C396 1.265 . S
O414 Tb394 2.384 . S
O414 C397 1.255 . S
O415 Eu395 2.366 . S
O415 C397 1.265 . S
C416 O407 1.255 . S
C416 O408 1.265 . S
O417 Tb394 2.479 . S
O417 C404 1.238 . S
O418 Tb394 2.471 . S
O418 C404 1.247 . S
C419 C422 1.380 . S
C419 C423 1.374 . S
C419 C425 1.507 . S
C420 C421 1.387 . S
C420 C424 1.391 . S
C421 C420 1.387 . S
C421 C422 1.384 . S
C421 H430 0.930 . S
C422 C419 1.380 . S
C422 C421 1.384 . S
C422 H431 0.931 . S
C423 C419 1.374 . S
C423 C424 1.390 . S
C423 H432 0.930 . S
C424 C420 1.391 . S
C424 C423 1.390 . S
C424 H433 0.930 . S
C425 Eu395 2.825 . S
C425 O410 1.238 . S
C425 O411 1.247 . S
C425 C419 1.507 . S
H426 C399 0.930 . S
H427 C400 0.931 . S
H428 C401 0.930 . S
H429 C402 0.930 . S
H430 C421 0.930 . S
H431 C422 0.931 . S
H432 C423 0.930 . S
H433 C424 0.930 . S
Tb434 C444 2.825 . S
Tb434 O445 2.347 . S
Tb434 O448 2.366 . S
Tb434 O453 2.418 . S
Tb434 O454 2.384 . S
Tb434 O457 2.479 . S
Tb434 O458 2.471 . S
Eu435 O446 2.418 . S
Eu435 O447 2.384 . S
Eu435 O450 2.479 . S
Eu435 O451 2.471 . S
Eu435 O452 2.347 . S
Eu435 O455 2.366 . S
Eu435 C465 2.825 . S
C436 O452 1.259 . S
C436 O453 1.265 . S
C437 O454 1.255 . S
C437 O455 1.265 . S
C438 C440 1.380 . S
C438 C441 1.374 . S
C438 C444 1.507 . S
C439 C440 1.384 . S
C439 C443 1.387 . S
C439 H466 0.930 . S
C440 C438 1.380 . S
C440 C439 1.384 . S
C440 H467 0.931 . S
C441 C438 1.374 . S
C441 C442 1.390 . S
C441 H468 0.930 . S
C442 C441 1.390 . S
C442 C443 1.391 . S
C442 H469 0.930 . S
C443 C439 1.387 . S
C443 C442 1.391 . S
C444 Tb434 2.825 . S
C444 C438 1.507 . S
C444 O457 1.238 . S
C444 O458 1.247 . S
O445 Tb434 2.347 . S
O445 C449 1.259 . S
O446 Eu435 2.418 . S
O446 C449 1.265 . S
O447 Eu435 2.384 . S
O447 C456 1.255 . S
O448 Tb434 2.366 . S
O448 C456 1.265 . S
C449 O445 1.259 . S
C449 O446 1.265 . S
O450 Eu435 2.479 . S
O450 C465 1.238 . S
O451 Eu435 2.471 . S
O451 C465 1.247 . S
O452 Eu435 2.347 . S
O452 C436 1.259 . S
O453 Tb434 2.418 . S
O453 C436 1.265 . S
O454 Tb434 2.384 . S
O454 C437 1.255 . S
O455 Eu435 2.366 . S
O455 C437 1.265 . S
C456 O447 1.255 . S
C456 O448 1.265 . S
O457 Tb434 2.479 . S
O457 C444 1.238 . S
O458 Tb434 2.471 . S
O458 C444 1.247 . S
C459 C462 1.380 . S
C459 C463 1.374 . S
C459 C465 1.507 . S
C460 C461 1.387 . S
C460 C464 1.391 . S
C461 C460 1.387 . S
C461 C462 1.384 . S
C461 H470 0.930 . S
C462 C459 1.380 . S
C462 C461 1.384 . S
C462 H471 0.931 . S
C463 C459 1.374 . S
C463 C464 1.390 . S
C463 H472 0.930 . S
C464 C460 1.391 . S
C464 C463 1.390 . S
C464 H473 0.930 . S
C465 Eu435 2.825 . S
C465 O450 1.238 . S
C465 O451 1.247 . S
C465 C459 1.507 . S
H466 C439 0.930 . S
H467 C440 0.931 . S
H468 C441 0.930 . S
H469 C442 0.930 . S
H470 C461 0.930 . S
H471 C462 0.931 . S
H472 C463 0.930 . S
H473 C464 0.930 . S
Tb474 C484 2.825 . S
Tb474 O485 2.347 . S
Tb474 O488 2.366 . S
Tb474 O493 2.418 . S
Tb474 O494 2.384 . S
Tb474 O497 2.479 . S
Tb474 O498 2.471 . S
Eu475 O486 2.418 . S
Eu475 O487 2.384 . S
Eu475 O490 2.479 . S
Eu475 O491 2.471 . S
Eu475 O492 2.347 . S
Eu475 O495 2.366 . S
Eu475 C505 2.825 . S
C476 O492 1.259 . S
C476 O493 1.265 . S
C477 O494 1.255 . S
C477 O495 1.265 . S
C478 C480 1.380 . S
C478 C481 1.374 . S
C478 C484 1.507 . S
C479 C480 1.384 . S
C479 C483 1.387 . S
C479 H506 0.930 . S
C480 C478 1.380 . S
C480 C479 1.384 . S
C480 H507 0.931 . S
C481 C478 1.374 . S
C481 C482 1.390 . S
C481 H508 0.930 . S
C482 C481 1.390 . S
C482 C483 1.391 . S
C482 H509 0.930 . S
C483 C479 1.387 . S
C483 C482 1.391 . S
C484 Tb474 2.825 . S
C484 C478 1.507 . S
C484 O497 1.238 . S
C484 O498 1.247 . S
O485 Tb474 2.347 . S
O485 C489 1.259 . S
O486 Eu475 2.418 . S
O486 C489 1.265 . S
O487 Eu475 2.384 . S
O487 C496 1.255 . S
O488 Tb474 2.366 . S
O488 C496 1.265 . S
C489 O485 1.259 . S
C489 O486 1.265 . S
O490 Eu475 2.479 . S
O490 C505 1.238 . S
O491 Eu475 2.471 . S
O491 C505 1.247 . S
O492 Eu475 2.347 . S
O492 C476 1.259 . S
O493 Tb474 2.418 . S
O493 C476 1.265 . S
O494 Tb474 2.384 . S
O494 C477 1.255 . S
O495 Eu475 2.366 . S
O495 C477 1.265 . S
C496 O487 1.255 . S
C496 O488 1.265 . S
O497 Tb474 2.479 . S
O497 C484 1.238 . S
O498 Tb474 2.471 . S
O498 C484 1.247 . S
C499 C502 1.380 . S
C499 C503 1.374 . S
C499 C505 1.507 . S
C500 C501 1.387 . S
C500 C504 1.391 . S
C501 C500 1.387 . S
C501 C502 1.384 . S
C501 H510 0.930 . S
C502 C499 1.380 . S
C502 C501 1.384 . S
C502 H511 0.931 . S
C503 C499 1.374 . S
C503 C504 1.390 . S
C503 H512 0.930 . S
C504 C500 1.391 . S
C504 C503 1.390 . S
C504 H513 0.930 . S
C505 Eu475 2.825 . S
C505 O490 1.238 . S
C505 O491 1.247 . S
C505 C499 1.507 . S
H506 C479 0.930 . S
H507 C480 0.931 . S
H508 C481 0.930 . S
H509 C482 0.930 . S
H510 C501 0.930 . S
H511 C502 0.931 . S
H512 C503 0.930 . S
H513 C504 0.930 . S
Tb514 C524 2.825 . S
Tb514 O525 2.347 . S
Tb514 O528 2.366 . S
Tb514 O533 2.418 . S
Tb514 O534 2.384 . S
Tb514 O537 2.479 . S
Tb514 O538 2.471 . S
Eu515 O526 2.418 . S
Eu515 O527 2.384 . S
Eu515 O530 2.479 . S
Eu515 O531 2.471 . S
Eu515 O532 2.347 . S
Eu515 O535 2.366 . S
Eu515 C545 2.825 . S
C516 O532 1.259 . S
C516 O533 1.265 . S
C517 O534 1.255 . S
C517 O535 1.265 . S
C518 C520 1.380 . S
C518 C521 1.374 . S
C518 C524 1.507 . S
C519 C520 1.384 . S
C519 C523 1.387 . S
C519 H546 0.930 . S
C520 C518 1.380 . S
C520 C519 1.384 . S
C520 H547 0.931 . S
C521 C518 1.374 . S
C521 C522 1.390 . S
C521 H548 0.930 . S
C522 C521 1.390 . S
C522 C523 1.391 . S
C522 H549 0.930 . S
C523 C519 1.387 . S
C523 C522 1.391 . S
C524 Tb514 2.825 . S
C524 C518 1.507 . S
C524 O537 1.238 . S
C524 O538 1.247 . S
O525 Tb514 2.347 . S
O525 C529 1.259 . S
O526 Eu515 2.418 . S
O526 C529 1.265 . S
O527 Eu515 2.384 . S
O527 C536 1.255 . S
O528 Tb514 2.366 . S
O528 C536 1.265 . S
C529 O525 1.259 . S
C529 O526 1.265 . S
O530 Eu515 2.479 . S
O530 C545 1.238 . S
O531 Eu515 2.471 . S
O531 C545 1.247 . S
O532 Eu515 2.347 . S
O532 C516 1.259 . S
O533 Tb514 2.418 . S
O533 C516 1.265 . S
O534 Tb514 2.384 . S
O534 C517 1.255 . S
O535 Eu515 2.366 . S
O535 C517 1.265 . S
C536 O527 1.255 . S
C536 O528 1.265 . S
O537 Tb514 2.479 . S
O537 C524 1.238 . S
O538 Tb514 2.471 . S
O538 C524 1.247 . S
C539 C542 1.380 . S
C539 C543 1.374 . S
C539 C545 1.507 . S
C540 C541 1.387 . S
C540 C544 1.391 . S
C541 C540 1.387 . S
C541 C542 1.384 . S
C541 H550 0.930 . S
C542 C539 1.380 . S
C542 C541 1.384 . S
C542 H551 0.931 . S
C543 C539 1.374 . S
C543 C544 1.390 . S
C543 H552 0.930 . S
C544 C540 1.391 . S
C544 C543 1.390 . S
C544 H553 0.930 . S
C545 Eu515 2.825 . S
C545 O530 1.238 . S
C545 O531 1.247 . S
C545 C539 1.507 . S
H546 C519 0.930 . S
H547 C520 0.931 . S
H548 C521 0.930 . S
H549 C522 0.930 . S
H550 C541 0.930 . S
H551 C542 0.931 . S
H552 C543 0.930 . S
H553 C544 0.930 . S
Tb554 C564 2.825 . S
Tb554 O565 2.347 . S
Tb554 O568 2.366 . S
Tb554 O573 2.418 . S
Tb554 O574 2.384 . S
Tb554 O577 2.479 . S
Tb554 O578 2.471 . S
Eu555 O566 2.418 . S
Eu555 O567 2.384 . S
Eu555 O570 2.479 . S
Eu555 O571 2.471 . S
Eu555 O572 2.347 . S
Eu555 O575 2.366 . S
Eu555 C585 2.825 . S
C556 O572 1.259 . S
C556 O573 1.265 . S
C557 O574 1.255 . S
C557 O575 1.265 . S
C558 C560 1.380 . S
C558 C561 1.374 . S
C558 C564 1.507 . S
C559 C560 1.384 . S
C559 C563 1.387 . S
C559 H586 0.930 . S
C560 C558 1.380 . S
C560 C559 1.384 . S
C560 H587 0.931 . S
C561 C558 1.374 . S
C561 C562 1.390 . S
C561 H588 0.930 . S
C562 C561 1.390 . S
C562 C563 1.391 . S
C562 H589 0.930 . S
C563 C559 1.387 . S
C563 C562 1.391 . S
C564 Tb554 2.825 . S
C564 C558 1.507 . S
C564 O577 1.238 . S
C564 O578 1.247 . S
O565 Tb554 2.347 . S
O565 C569 1.259 . S
O566 Eu555 2.418 . S
O566 C569 1.265 . S
O567 Eu555 2.384 . S
O567 C576 1.255 . S
O568 Tb554 2.366 . S
O568 C576 1.265 . S
C569 O565 1.259 . S
C569 O566 1.265 . S
O570 Eu555 2.479 . S
O570 C585 1.238 . S
O571 Eu555 2.471 . S
O571 C585 1.247 . S
O572 Eu555 2.347 . S
O572 C556 1.259 . S
O573 Tb554 2.418 . S
O573 C556 1.265 . S
O574 Tb554 2.384 . S
O574 C557 1.255 . S
O575 Eu555 2.366 . S
O575 C557 1.265 . S
C576 O567 1.255 . S
C576 O568 1.265 . S
O577 Tb554 2.479 . S
O577 C564 1.238 . S
O578 Tb554 2.471 . S
O578 C564 1.247 . S
C579 C582 1.380 . S
C579 C583 1.374 . S
C579 C585 1.507 . S
C580 C581 1.387 . S
C580 C584 1.391 . S
C581 C580 1.387 . S
C581 C582 1.384 . S
C581 H590 0.930 . S
C582 C579 1.380 . S
C582 C581 1.384 . S
C582 H591 0.931 . S
C583 C579 1.374 . S
C583 C584 1.390 . S
C583 H592 0.930 . S
C584 C580 1.391 . S
C584 C583 1.390 . S
C584 H593 0.930 . S
C585 Eu555 2.825 . S
C585 O570 1.238 . S
C585 O571 1.247 . S
C585 C579 1.507 . S
H586 C559 0.930 . S
H587 C560 0.931 . S
H588 C561 0.930 . S
H589 C562 0.930 . S
H590 C581 0.930 . S
H591 C582 0.931 . S
H592 C583 0.930 . S
H593 C584 0.930 . S
H594 C600 0.930 . S
H595 C604 0.930 . S
H596 C609 0.929 . S
H597 C607 0.929 . S
H598 C602 0.929 . S
H599 C608 0.929 . S
C600 H594 0.930 . S
C600 C601 1.367 . S
C600 C608 1.378 . S
C601 C600 1.367 . S
C601 C609 1.433 . S
C602 H598 0.929 . S
C602 C604 1.378 . S
C602 C606 1.350 . S
C603 C606 1.463 . S
C603 C608 1.350 . S
C603 N611 1.427 . S
C604 H595 0.930 . S
C604 C602 1.378 . S
C604 C605 1.367 . S
C605 C604 1.367 . S
C605 C607 1.433 . S
C606 C602 1.350 . S
C606 C603 1.463 . S
C606 N610 1.427 . S
C607 H597 0.929 . S
C607 C605 1.433 . S
C607 N610 1.384 . S
C608 H599 0.929 . S
C608 C600 1.378 . S
C608 C603 1.350 . S
C609 H596 0.929 . S
C609 C601 1.433 . S
C609 N611 1.384 . S
N610 C606 1.427 . S
N610 C607 1.384 . S
N611 C603 1.427 . S
N611 C609 1.384 . S
H612 C618 0.930 . S
H613 C622 0.930 . S
H614 C627 0.929 . S
H615 C625 0.929 . S
H616 C620 0.929 . S
H617 C626 0.929 . S
C618 H612 0.930 . S
C618 C619 1.367 . S
C618 C626 1.378 . S
C619 C618 1.367 . S
C619 C627 1.433 . S
C620 H616 0.929 . S
C620 C622 1.378 . S
C620 C624 1.350 . S
C621 C624 1.463 . S
C621 C626 1.350 . S
C621 N629 1.427 . S
C622 H613 0.930 . S
C622 C620 1.378 . S
C622 C623 1.367 . S
C623 C622 1.367 . S
C623 C625 1.433 . S
C624 C620 1.350 . S
C624 C621 1.463 . S
C624 N628 1.427 . S
C625 H615 0.929 . S
C625 C623 1.433 . S
C625 N628 1.384 . S
C626 H617 0.929 . S
C626 C618 1.378 . S
C626 C621 1.350 . S
C627 H614 0.929 . S
C627 C619 1.433 . S
C627 N629 1.384 . S
N628 C624 1.427 . S
N628 C625 1.384 . S
N629 C621 1.427 . S
N629 C627 1.384 . S
H630 C636 0.930 . S
H631 C640 0.952 . S
H632 C645 0.929 . S
H633 C643 0.929 . S
H634 C638 0.929 . S
H635 C644 0.929 . S
C636 H630 0.930 . S
C636 C637 1.367 . S
C636 C644 1.378 . S
C637 C636 1.367 . S
C637 C645 1.433 . S
C638 H634 0.929 . S
C638 C640 1.378 . S
C638 C642 1.350 . S
C639 C642 1.463 . S
C639 C644 1.350 . S
C639 N647 1.427 . S
C640 H631 0.952 . S
C640 C638 1.378 . S
C640 C641 1.367 . S
C641 C640 1.367 . S
C641 C643 1.433 . S
C642 C638 1.350 . S
C642 C639 1.463 . S
C642 N646 1.427 . S
C643 H633 0.929 . S
C643 C641 1.433 . S
C643 N646 1.384 . S
C644 H635 0.929 . S
C644 C636 1.378 . S
C644 C639 1.350 . S
C645 H632 0.929 . S
C645 C637 1.433 . S
C645 N647 1.384 . S
N646 C642 1.427 . S
N646 C643 1.384 . S
N647 C639 1.427 . S
N647 C645 1.384 . S
H648 C654 0.930 1_554 S
H649 C658 0.930 . S
H650 C663 0.929 . S
H651 C661 0.929 . S
H652 C656 0.929 . S
H653 C662 0.929 . S
C654 H648 0.930 1_556 S
C654 C655 1.367 . S
C654 C662 1.378 1_556 S
C655 C654 1.367 . S
C655 C663 1.433 . S
C656 H652 0.929 . S
C656 C658 1.378 . S
C656 C660 1.350 . S
C657 C660 1.463 . S
C657 C662 1.350 1_556 S
C657 N665 1.427 . S
C658 H649 0.930 . S
C658 C656 1.378 . S
C658 C659 1.367 . S
C659 C658 1.367 . S
C659 C661 1.433 1_556 S
C660 C656 1.350 . S
C660 C657 1.463 . S
C660 N664 1.427 1_556 S
C661 H651 0.929 . S
C661 C659 1.433 1_554 S
C661 N664 1.384 . S
C662 H653 0.929 . S
C662 C654 1.378 1_554 S
C662 C657 1.350 1_554 S
C663 H650 0.929 . S
C663 C655 1.433 . S
C663 N665 1.384 . S
N664 C660 1.427 1_554 S
N664 C661 1.384 . S
N665 C657 1.427 . S
N665 C663 1.384 . S
H666 C672 0.930 . S
H667 C676 0.930 1_554 S
H668 C681 0.929 . S
H669 C679 0.929 . S
H670 C674 0.929 . S
H671 C680 0.929 . S
C672 H666 0.930 . S
C672 C673 1.367 . S
C672 C680 1.378 . S
C673 C672 1.367 . S
C673 C681 1.433 . S
C674 H670 0.929 . S
C674 C676 1.378 . S
C674 C678 1.350 . S
C675 C678 1.463 . S
C675 C680 1.350 . S
C675 N683 1.427 . S
C676 H667 0.930 1_556 S
C676 C674 1.378 . S
C676 C677 1.367 . S
C677 C676 1.367 . S
C677 C679 1.433 . S
C678 C674 1.350 . S
C678 C675 1.463 . S
C678 N682 1.427 . S
C679 H669 0.929 . S
C679 C677 1.433 . S
C679 N682 1.384 . S
C680 H671 0.929 . S
C680 C672 1.378 . S
C680 C675 1.350 . S
C681 H668 0.929 . S
C681 C673 1.433 . S
C681 N683 1.384 . S
N682 C678 1.427 . S
N682 C679 1.384 . S
N683 C675 1.427 . S
N683 C681 1.384 . S
H684 C690 0.930 . S
H685 C694 0.930 . S
H686 C699 0.929 . S
H687 C697 0.929 . S
H688 C692 0.929 . S
H689 C698 0.929 . S
C690 H684 0.930 . S
C690 C691 1.367 . S
C690 C698 1.378 . S
C691 C690 1.367 . S
C691 C699 1.433 . S
C692 H688 0.929 . S
C692 C694 1.378 . S
C692 C696 1.350 1_554 S
C693 C696 1.463 . S
C693 C698 1.350 . S
C693 N701 1.427 . S
C694 H685 0.930 . S
C694 C692 1.378 . S
C694 C695 1.367 . S
C695 C694 1.367 . S
C695 C697 1.433 1_554 S
C696 C692 1.350 1_556 S
C696 C693 1.463 . S
C696 N700 1.427 . S
C697 H687 0.929 . S
C697 C695 1.433 1_556 S
C697 N700 1.384 . S
C698 H689 0.929 . S
C698 C690 1.378 . S
C698 C693 1.350 . S
C699 H686 0.929 . S
C699 C691 1.433 . S
C699 N701 1.384 . S
N700 C696 1.427 . S
N700 C697 1.384 . S
N701 C693 1.427 . S
N701 C699 1.384 . S
H702 C708 0.930 . S
H703 C712 0.930 . S
H704 C717 0.929 . S
H705 C715 0.929 1_554 S
H706 C710 0.929 . S
H707 C716 0.929 . S
C708 H702 0.930 . S
C708 C709 1.367 . S
C708 C716 1.378 . S
C709 C708 1.367 . S
C709 C717 1.433 . S
C710 H706 0.929 . S
C710 C712 1.378 . S
C710 C714 1.350 . S
C711 C714 1.463 . S
C711 C716 1.350 . S
C711 N719 1.427 . S
C712 H703 0.930 . S
C712 C710 1.378 . S
C712 C713 1.367 . S
C713 C712 1.367 . S
C713 C715 1.433 . S
C714 C710 1.350 . S
C714 C711 1.463 . S
C714 N718 1.427 . S
C715 H705 0.929 1_556 S
C715 C713 1.433 . S
C715 N718 1.384 . S
C716 H707 0.929 . S
C716 C708 1.378 . S
C716 C711 1.350 . S
C717 H704 0.929 . S
C717 C709 1.433 . S
C717 N719 1.384 . S
N718 C714 1.427 . S
N718 C715 1.384 . S
N719 C711 1.427 . S
N719 C717 1.384 . S
H720 C726 0.930 . S
H721 C730 0.930 . S
H722 C735 0.929 . S
H723 C733 0.929 . S
H724 C728 0.929 . S
H725 C734 0.929 . S
C726 H720 0.930 . S
C726 C727 1.367 . S
C726 C734 1.378 . S
C727 C726 1.367 . S
C727 C735 1.433 . S
C728 H724 0.929 . S
C728 C730 1.378 . S
C728 C732 1.350 . S
C729 C732 1.463 . S
C729 C734 1.350 . S
C729 N737 1.427 . S
C730 H721 0.930 . S
C730 C728 1.378 . S
C730 C731 1.367 . S
C731 C730 1.367 . S
C731 C733 1.433 . S
C732 C728 1.350 . S
C732 C729 1.463 . S
C732 N736 1.427 . S
C733 H723 0.929 . S
C733 C731 1.433 . S
C733 N736 1.384 . S
C734 H725 0.929 . S
C734 C726 1.378 . S
C734 C729 1.350 . S
C735 H722 0.929 . S
C735 C727 1.433 . S
C735 N737 1.384 . S
N736 C732 1.427 . S
N736 C733 1.384 . S
N737 C729 1.427 . S
N737 C735 1.384 . S
H738 C744 0.930 . S
H739 C748 0.930 . S
H740 C753 0.929 . S
H741 C751 0.929 . S
H742 C746 0.929 . S
H743 C752 0.929 . S
C744 H738 0.930 . S
C744 C745 1.367 . S
C744 C752 1.378 . S
C745 C744 1.367 . S
C745 C753 1.433 1_556 S
C746 H742 0.929 . S
C746 C748 1.378 . S
C746 C750 1.350 . S
C747 C750 1.463 1_556 S
C747 C752 1.350 . S
C747 N755 1.427 1_556 S
C748 H739 0.930 . S
C748 C746 1.378 . S
C748 C749 1.367 . S
C749 C748 1.367 . S
C749 C751 1.433 1_554 S
C750 C746 1.350 . S
C750 C747 1.463 1_554 S
C750 N754 1.427 1_554 S
C751 H741 0.929 . S
C751 C749 1.433 1_556 S
C751 N754 1.384 . S
C752 H743 0.929 . S
C752 C744 1.378 . S
C752 C747 1.350 . S
C753 H740 0.929 . S
C753 C745 1.433 1_554 S
C753 N755 1.384 . S
N754 C750 1.427 1_556 S
N754 C751 1.384 . S
N755 C747 1.427 1_554 S
N755 C753 1.384 . S
H756 C762 0.930 . S
H757 C766 0.930 . S
H758 C771 0.929 . S
H759 C769 0.929 . S
H760 C764 0.929 . S
H761 C770 0.929 . S
C762 H756 0.930 . S
C762 C763 1.367 . S
C762 C770 1.378 . S
C763 C762 1.367 . S
C763 C771 1.433 . S
C764 H760 0.929 . S
C764 C766 1.378 . S
C764 C768 1.350 . S
C765 C768 1.463 . S
C765 C770 1.350 . S
C765 N773 1.427 . S
C766 H757 0.930 . S
C766 C764 1.378 . S
C766 C767 1.367 . S
C767 C766 1.367 . S
C767 C769 1.433 1_554 S
C768 C764 1.350 . S
C768 C765 1.463 . S
C768 N772 1.427 . S
C769 H759 0.929 . S
C769 C767 1.433 1_556 S
C769 N772 1.384 1_556 S
C770 H761 0.929 . S
C770 C762 1.378 . S
C770 C765 1.350 . S
C771 H758 0.929 . S
C771 C763 1.433 . S
C771 N773 1.384 . S
N772 C768 1.427 . S
N772 C769 1.384 1_554 S
N773 C765 1.427 . S
N773 C771 1.384 . S
H774 C780 0.930 . S
H775 C784 0.930 . S
H776 C789 0.929 . S
H777 C787 0.929 . S
H778 C782 0.929 . S
H779 C788 0.929 . S
C780 H774 0.930 . S
C780 C781 1.367 . S
C780 C788 1.378 . S
C781 C780 1.367 . S
C781 C789 1.433 . S
C782 H778 0.929 . S
C782 C784 1.378 . S
C782 C786 1.350 . S
C783 C786 1.463 . S
C783 C788 1.350 . S
C783 N791 1.427 . S
C784 H775 0.930 . S
C784 C782 1.378 . S
C784 C785 1.367 . S
C785 C784 1.367 . S
C785 C787 1.433 . S
C786 C782 1.350 . S
C786 C783 1.463 . S
C786 N790 1.427 . S
C787 H777 0.929 . S
C787 C785 1.433 . S
C787 N790 1.384 . S
C788 H779 0.929 . S
C788 C780 1.378 . S
C788 C783 1.350 . S
C789 H776 0.929 . S
C789 C781 1.433 . S
C789 N791 1.384 . S
N790 C786 1.427 . S
N790 C787 1.384 . S
N791 C783 1.427 . S
N791 C789 1.384 . S
H792 C798 0.930 . S
H793 C802 0.930 . S
H794 C807 0.929 . S
H795 C805 0.929 1_556 S
H796 C800 0.929 . S
H797 C806 0.929 . S
C798 H792 0.930 . S
C798 C799 1.367 . S
C798 C806 1.378 . S
C799 C798 1.367 . S
C799 C807 1.433 . S
C800 H796 0.929 . S
C800 C802 1.378 . S
C800 C804 1.350 . S
C801 C804 1.463 . S
C801 C806 1.350 . S
C801 N809 1.427 . S
C802 H793 0.930 . S
C802 C800 1.378 . S
C802 C803 1.367 . S
C803 C802 1.367 . S
C803 C805 1.433 . S
C804 C800 1.350 . S
C804 C801 1.463 . S
C804 N808 1.427 . S
C805 H795 0.929 1_554 S
C805 C803 1.433 . S
C805 N808 1.384 . S
C806 H797 0.929 . S
C806 C798 1.378 . S
C806 C801 1.350 . S
C807 H794 0.929 . S
C807 C799 1.433 . S
C807 N809 1.384 . S
N808 C804 1.427 . S
N808 C805 1.384 . S
N809 C801 1.427 . S
N809 C807 1.384 . S
H810 C816 0.930 . S
H811 C820 0.930 . S
H812 C825 0.929 . S
H813 C823 0.929 . S
H814 C818 0.929 . S
H815 C824 0.929 . S
C816 H810 0.930 . S
C816 C817 1.367 . S
C816 C824 1.378 . S
C817 C816 1.367 . S
C817 C825 1.433 . S
C818 H814 0.929 . S
C818 C820 1.378 . S
C818 C822 1.350 . S
C819 C822 1.463 1_655 S
C819 C824 1.350 . S
C819 N827 1.427 . S
C820 H811 0.930 . S
C820 C818 1.378 . S
C820 C821 1.367 . S
C821 C820 1.367 . S
C821 C823 1.433 . S
C822 C818 1.350 . S
C822 C819 1.463 1_455 S
C822 N826 1.427 . S
C823 H813 0.929 . S
C823 C821 1.433 . S
C823 N826 1.384 . S
C824 H815 0.929 . S
C824 C816 1.378 . S
C824 C819 1.350 . S
C825 H812 0.929 . S
C825 C817 1.433 . S
C825 N827 1.384 . S
N826 C822 1.427 . S
N826 C823 1.384 . S
N827 C819 1.427 . S
N827 C825 1.384 . S
H828 C834 0.930 . S
H829 C838 0.930 . S
H830 C843 0.929 . S
H831 C841 0.929 . S
H832 C836 0.929 . S
H833 C842 0.929 . S
C834 H828 0.930 . S
C834 C835 1.367 . S
C834 C842 1.378 . S
C835 C834 1.367 . S
C835 C843 1.433 . S
C836 H832 0.929 . S
C836 C838 1.378 . S
C836 C840 1.350 . S
C837 C840 1.463 . S
C837 C842 1.350 . S
C837 N845 1.427 . S
C838 H829 0.930 . S
C838 C836 1.378 . S
C838 C839 1.367 . S
C839 C838 1.367 . S
C839 C841 1.433 . S
C840 C836 1.350 . S
C840 C837 1.463 . S
C840 N844 1.427 . S
C841 H831 0.929 . S
C841 C839 1.433 . S
C841 N844 1.384 . S
C842 H833 0.929 . S
C842 C834 1.378 . S
C842 C837 1.350 . S
C843 H830 0.929 . S
C843 C835 1.433 . S
C843 N845 1.384 . S
N844 C840 1.427 . S
N844 C841 1.384 . S
N845 C837 1.427 . S
N845 C843 1.384 . S
H846 C852 0.930 . S
H847 C856 0.930 . S
H848 C861 0.929 . S
H849 C859 0.929 . S
H850 C854 0.929 . S
H851 C860 0.929 . S
C852 H846 0.930 . S
C852 C853 1.367 . S
C852 C860 1.378 . S
C853 C852 1.367 . S
C853 C861 1.433 . S
C854 H850 0.929 . S
C854 C856 1.378 . S
C854 C858 1.350 . S
C855 C858 1.463 1_545 S
C855 C860 1.350 . S
C855 N863 1.427 . S
C856 H847 0.930 . S
C856 C854 1.378 . S
C856 C857 1.367 . S
C857 C856 1.367 . S
C857 C859 1.433 . S
C858 C854 1.350 . S
C858 C855 1.463 1_565 S
C858 N862 1.427 . S
C859 H849 0.929 . S
C859 C857 1.433 . S
C859 N862 1.384 . S
C860 H851 0.929 . S
C860 C852 1.378 . S
C860 C855 1.350 . S
C861 H848 0.929 . S
C861 C853 1.433 . S
C861 N863 1.384 . S
N862 C858 1.427 . S
N862 C859 1.384 . S
N863 C855 1.427 . S
N863 C861 1.384 . S
H864 C870 0.930 . S
H865 C874 0.930 . S
H866 C879 0.929 . S
H867 C877 0.929 . S
H868 C872 0.929 . S
H869 C878 0.929 . S
C870 H864 0.930 . S
C870 C871 1.367 . S
C870 C878 1.378 . S
C871 C870 1.367 . S
C871 C879 1.433 . S
C872 H868 0.929 . S
C872 C874 1.378 . S
C872 C876 1.350 . S
C873 C876 1.463 . S
C873 C878 1.350 . S
C873 N881 1.427 . S
C874 H865 0.930 . S
C874 C872 1.378 . S
C874 C875 1.367 . S
C875 C874 1.367 . S
C875 C877 1.433 . S
C876 C872 1.350 . S
C876 C873 1.463 . S
C876 N880 1.427 . S
C877 H867 0.929 . S
C877 C875 1.433 . S
C877 N880 1.384 . S
C878 H869 0.929 . S
C878 C870 1.378 . S
C878 C873 1.350 . S
C879 H866 0.929 . S
C879 C871 1.433 . S
C879 N881 1.384 . S
N880 C876 1.427 . S
N880 C877 1.384 . S
N881 C873 1.427 . S
N881 C879 1.384 . S
H882 C888 0.930 . S
H883 C892 0.930 . S
H884 C897 0.929 . S
H885 C895 0.929 . S
H886 C890 0.929 . S
H887 C896 0.929 . S
C888 H882 0.930 . S
C888 C889 1.367 . S
C888 C896 1.378 . S
C889 C888 1.367 . S
C889 C897 1.433 . S
C890 H886 0.929 . S
C890 C892 1.378 . S
C890 C894 1.350 . S
C891 C894 1.463 . S
C891 C896 1.350 . S
C891 N899 1.427 . S
C892 H883 0.930 . S
C892 C890 1.378 . S
C892 C893 1.367 . S
C893 C892 1.367 . S
C893 C895 1.433 . S
C894 C890 1.350 . S
C894 C891 1.463 . S
C894 N898 1.427 . S
C895 H885 0.929 . S
C895 C893 1.433 . S
C895 N898 1.384 . S
C896 H887 0.929 . S
C896 C888 1.378 . S
C896 C891 1.350 . S
C897 H884 0.929 . S
C897 C889 1.433 . S
C897 N899 1.384 . S
N898 C894 1.427 . S
N898 C895 1.384 . S
N899 C891 1.427 . S
N899 C897 1.384 . S
H900 C906 0.930 . S
H901 C910 0.930 . S
H902 C915 0.929 . S
H903 C913 0.929 . S
H904 C908 0.929 . S
H905 C914 0.929 . S
C906 H900 0.930 . S
C906 C907 1.367 . S
C906 C914 1.378 . S
C907 C906 1.367 . S
C907 C915 1.433 . S
C908 H904 0.929 . S
C908 C910 1.378 . S
C908 C912 1.350 . S
C909 C912 1.463 . S
C909 C914 1.350 . S
C909 N917 1.427 . S
C910 H901 0.930 . S
C910 C908 1.378 . S
C910 C911 1.367 . S
C911 C910 1.367 . S
C911 C913 1.433 . S
C912 C908 1.350 . S
C912 C909 1.463 . S
C912 N916 1.427 . S
C913 H903 0.929 . S
C913 C911 1.433 . S
C913 N916 1.384 . S
C914 H905 0.929 . S
C914 C906 1.378 . S
C914 C909 1.350 . S
C915 H902 0.929 . S
C915 C907 1.433 . S
C915 N917 1.384 . S
N916 C912 1.427 . S
N916 C913 1.384 . S
N917 C909 1.427 . S
N917 C915 1.384 . S
H918 C924 0.930 . S
H919 C928 0.930 . S
H920 C933 0.929 . S
H921 C931 0.929 . S
H922 C926 0.929 . S
H923 C932 0.929 . S
C924 H918 0.930 . S
C924 C925 1.367 . S
C924 C932 1.378 . S
C925 C924 1.367 . S
C925 C933 1.433 . S
C926 H922 0.929 . S
C926 C928 1.378 . S
C926 C930 1.350 . S
C927 C930 1.463 . S
C927 C932 1.350 . S
C927 N935 1.427 . S
C928 H919 0.930 . S
C928 C926 1.378 . S
C928 C929 1.367 . S
C929 C928 1.367 . S
C929 C931 1.433 . S
C930 C926 1.350 . S
C930 C927 1.463 . S
C930 N934 1.427 . S
C931 H921 0.929 . S
C931 C929 1.433 . S
C931 N934 1.384 . S
C932 H923 0.929 . S
C932 C924 1.378 . S
C932 C927 1.350 . S
C933 H920 0.929 . S
C933 C925 1.433 . S
C933 N935 1.384 . S
N934 C930 1.427 . S
N934 C931 1.384 . S
N935 C927 1.427 . S
N935 C933 1.384 . S
H936 C942 0.930 . S
H937 C946 0.930 . S
H938 C951 0.929 . S
H939 C949 0.929 . S
H940 C944 0.929 . S
H941 C950 0.929 . S
C942 H936 0.930 . S
C942 C943 1.367 . S
C942 C950 1.378 . S
C943 C942 1.367 . S
C943 C951 1.433 . S
C944 H940 0.929 . S
C944 C946 1.378 . S
C944 C948 1.350 . S
C945 C948 1.463 . S
C945 C950 1.350 . S
C945 N953 1.427 . S
C946 H937 0.930 . S
C946 C944 1.378 . S
C946 C947 1.367 . S
C947 C946 1.367 . S
C947 C949 1.433 . S
C948 C944 1.350 . S
C948 C945 1.463 . S
C948 N952 1.427 . S
C949 H939 0.929 . S
C949 C947 1.433 . S
C949 N952 1.384 . S
C950 H941 0.929 . S
C950 C942 1.378 . S
C950 C945 1.350 . S
C951 H938 0.929 . S
C951 C943 1.433 . S
C951 N953 1.384 . S
N952 C948 1.427 . S
N952 C949 1.384 . S
N953 C945 1.427 . S
N953 C951 1.384 . S
H954 C960 0.930 . S
H955 C964 0.930 . S
H956 C969 0.929 . S
H957 C967 0.929 . S
H958 C962 0.929 . S
H959 C968 0.929 . S
C960 H954 0.930 . S
C960 C961 1.367 . S
C960 C968 1.378 . S
C961 C960 1.367 . S
C961 C969 1.433 . S
C962 H958 0.929 . S
C962 C964 1.378 . S
C962 C966 1.350 . S
C963 C966 1.463 . S
C963 C968 1.350 . S
C963 N971 1.427 . S
C964 H955 0.930 . S
C964 C962 1.378 . S
C964 C965 1.367 . S
C965 C964 1.367 . S
C965 C967 1.433 . S
C966 C962 1.350 . S
C966 C963 1.463 . S
C966 N970 1.427 . S
C967 H957 0.929 . S
C967 C965 1.433 . S
C967 N970 1.384 . S
C968 H959 0.929 . S
C968 C960 1.378 . S
C968 C963 1.350 . S
C969 H956 0.929 . S
C969 C961 1.433 . S
C969 N971 1.384 . S
N970 C966 1.427 . S
N970 C967 1.384 . S
N971 C963 1.427 . S
N971 C969 1.384 . S
H972 C978 0.930 . S
H973 C982 0.930 . S
H974 C987 0.929 . S
H975 C985 0.929 . S
H976 C980 0.929 . S
H977 C986 0.929 . S
C978 H972 0.930 . S
C978 C979 1.367 . S
C978 C986 1.378 . S
C979 C978 1.367 . S
C979 C987 1.433 . S
C980 H976 0.929 . S
C980 C982 1.378 . S
C980 C984 1.350 . S
C981 C984 1.463 1_545 S
C981 C986 1.350 . S
C981 N989 1.427 . S
C982 H973 0.930 . S
C982 C980 1.378 . S
C982 C983 1.367 . S
C983 C982 1.367 . S
C983 C985 1.433 . S
C984 C980 1.350 . S
C984 C981 1.463 1_565 S
C984 N988 1.427 . S
C985 H975 0.929 . S
C985 C983 1.433 . S
C985 N988 1.384 . S
C986 H977 0.929 . S
C986 C978 1.378 . S
C986 C981 1.350 . S
C987 H974 0.929 . S
C987 C979 1.433 . S
C987 N989 1.384 . S
N988 C984 1.427 . S
N988 C985 1.384 . S
N989 C981 1.427 . S
N989 C987 1.384 . S
H990 C996 0.930 . S
H991 C1000 0.930 . S
H992 C1005 0.929 . S
H993 C1003 0.929 . S
H994 C998 0.929 . S
H995 C1004 0.929 1_455 S
C996 H990 0.930 . S
C996 C997 1.367 . S
C996 C1004 1.378 . S
C997 C996 1.367 . S
C997 C1005 1.433 . S
C998 H994 0.929 . S
C998 C1000 1.378 . S
C998 C1002 1.350 . S
C999 C1002 1.463 . S
C999 C1004 1.350 1_455 S
C999 N1007 1.427 1_455 S
C1000 H991 0.930 . S
C1000 C998 1.378 . S
C1000 C1001 1.367 . S
C1001 C1000 1.367 . S
C1001 C1003 1.433 . S
C1002 C998 1.350 . S
C1002 C999 1.463 . S
C1002 N1006 1.427 . S
C1003 H993 0.929 . S
C1003 C1001 1.433 . S
C1003 N1006 1.384 . S
C1004 H995 0.929 1_655 S
C1004 C996 1.378 . S
C1004 C999 1.350 1_655 S
C1005 H992 0.929 . S
C1005 C997 1.433 . S
C1005 N1007 1.384 . S
N1006 C1002 1.427 . S
N1006 C1003 1.384 . S
N1007 C999 1.427 1_655 S
N1007 C1005 1.384 . S
H1008 C1014 0.930 . S
H1009 C1018 0.930 . S
H1010 C1023 0.929 . S
H1011 C1021 0.929 . S
H1012 C1016 0.929 . S
H1013 C1022 0.929 . S
C1014 H1008 0.930 . S
C1014 C1015 1.367 . S
C1014 C1022 1.378 . S
C1015 C1014 1.367 . S
C1015 C1023 1.433 . S
C1016 H1012 0.929 . S
C1016 C1018 1.378 . S
C1016 C1020 1.350 . S
C1017 C1020 1.463 . S
C1017 C1022 1.350 . S
C1017 N1025 1.427 . S
C1018 H1009 0.930 . S
C1018 C1016 1.378 . S
C1018 C1019 1.367 . S
C1019 C1018 1.367 . S
C1019 C1021 1.433 . S
C1020 C1016 1.350 . S
C1020 C1017 1.463 . S
C1020 N1024 1.427 . S
C1021 H1011 0.929 . S
C1021 C1019 1.433 . S
C1021 N1024 1.384 . S
C1022 H1013 0.929 . S
C1022 C1014 1.378 . S
C1022 C1017 1.350 . S
C1023 H1010 0.929 . S
C1023 C1015 1.433 . S
C1023 N1025 1.384 . S
N1024 C1020 1.427 . S
N1024 C1021 1.384 . S
N1025 C1017 1.427 . S
N1025 C1023 1.384 . S
H1026 C1032 0.930 . S
H1027 C1036 0.930 . S
H1028 C1041 0.929 . S
H1029 C1039 0.929 . S
H1030 C1034 0.929 . S
H1031 C1040 0.929 . S
C1032 H1026 0.930 . S
C1032 C1033 1.367 . S
C1032 C1040 1.378 . S
C1033 C1032 1.367 . S
C1033 C1041 1.433 . S
C1034 H1030 0.929 . S
C1034 C1036 1.378 . S
C1034 C1038 1.350 . S
C1035 C1038 1.463 . S
C1035 C1040 1.350 . S
C1035 N1043 1.427 . S
C1036 H1027 0.930 . S
C1036 C1034 1.378 . S
C1036 C1037 1.367 . S
C1037 C1036 1.367 . S
C1037 C1039 1.433 . S
C1038 C1034 1.350 . S
C1038 C1035 1.463 . S
C1038 N1042 1.427 . S
C1039 H1029 0.929 . S
C1039 C1037 1.433 . S
C1039 N1042 1.384 . S
C1040 H1031 0.929 . S
C1040 C1032 1.378 . S
C1040 C1035 1.350 . S
C1041 H1028 0.929 . S
C1041 C1033 1.433 . S
C1041 N1043 1.384 . S
N1042 C1038 1.427 . S
N1042 C1039 1.384 . S
N1043 C1035 1.427 . S
N1043 C1041 1.384 . S
H1044 C1050 0.930 . S
H1045 C1054 0.930 . S
H1046 C1059 0.929 . S
H1047 C1057 0.929 . S
H1048 C1052 0.929 . S
H1049 C1058 0.929 . S
C1050 H1044 0.930 . S
C1050 C1051 1.367 . S
C1050 C1058 1.378 . S
C1051 C1050 1.367 . S
C1051 C1059 1.433 . S
C1052 H1048 0.929 . S
C1052 C1054 1.378 . S
C1052 C1056 1.350 . S
C1053 C1056 1.463 . S
C1053 C1058 1.350 . S
C1053 N1061 1.427 . S
C1054 H1045 0.930 . S
C1054 C1052 1.378 . S
C1054 C1055 1.367 . S
C1055 C1054 1.367 . S
C1055 C1057 1.433 . S
C1056 C1052 1.350 . S
C1056 C1053 1.463 . S
C1056 N1060 1.427 . S
C1057 H1047 0.929 . S
C1057 C1055 1.433 . S
C1057 N1060 1.384 . S
C1058 H1049 0.929 . S
C1058 C1050 1.378 . S
C1058 C1053 1.350 . S
C1059 H1046 0.929 . S
C1059 C1051 1.433 . S
C1059 N1061 1.384 . S
N1060 C1056 1.427 . S
N1060 C1057 1.384 . S
N1061 C1053 1.427 . S
N1061 C1059 1.384 . S
H1062 C1068 0.930 . S
H1063 C1072 0.930 . S
H1064 C1077 0.929 . S
H1065 C1075 0.929 . S
H1066 C1070 0.929 . S
H1067 C1076 0.929 . S
C1068 H1062 0.930 . S
C1068 C1069 1.367 . S
C1068 C1076 1.378 . S
C1069 C1068 1.367 . S
C1069 C1077 1.433 . S
C1070 H1066 0.929 . S
C1070 C1072 1.378 . S
C1070 C1074 1.350 . S
C1071 C1074 1.463 . S
C1071 C1076 1.350 . S
C1071 N1079 1.427 . S
C1072 H1063 0.930 . S
C1072 C1070 1.378 . S
C1072 C1073 1.367 . S
C1073 C1072 1.367 . S
C1073 C1075 1.433 . S
C1074 C1070 1.350 . S
C1074 C1071 1.463 . S
C1074 N1078 1.427 . S
C1075 H1065 0.929 . S
C1075 C1073 1.433 . S
C1075 N1078 1.384 . S
C1076 H1067 0.929 . S
C1076 C1068 1.378 . S
C1076 C1071 1.350 . S
C1077 H1064 0.929 . S
C1077 C1069 1.433 . S
C1077 N1079 1.384 . S
N1078 C1074 1.427 . S
N1078 C1075 1.384 . S
N1079 C1071 1.427 . S
N1079 C1077 1.384 . S
H1080 C1086 0.930 . S
H1081 C1090 0.930 . S
H1082 C1095 0.929 . S
H1083 C1093 0.929 . S
H1084 C1088 0.929 . S
H1085 C1094 0.929 1_545 S
C1086 H1080 0.930 . S
C1086 C1087 1.367 . S
C1086 C1094 1.378 . S
C1087 C1086 1.367 . S
C1087 C1095 1.433 . S
C1088 H1084 0.929 . S
C1088 C1090 1.378 . S
C1088 C1092 1.350 . S
C1089 C1092 1.491 . S
C1089 C1094 1.351 1_545 S
C1089 N1097 1.399 1_545 S
C1090 H1081 0.930 . S
C1090 C1088 1.378 . S
C1090 C1091 1.367 . S
C1091 C1090 1.367 . S
C1091 C1093 1.433 . S
C1092 C1088 1.350 . S
C1092 C1089 1.491 . S
C1092 N1096 1.427 . S
C1093 H1083 0.929 . S
C1093 C1091 1.433 . S
C1093 N1096 1.384 . S
C1094 H1085 0.929 1_565 S
C1094 C1086 1.378 . S
C1094 C1089 1.351 1_565 S
C1095 H1082 0.929 . S
C1095 C1087 1.433 . S
C1095 N1097 1.384 . S
N1096 C1092 1.427 . S
N1096 C1093 1.384 . S
N1097 C1089 1.399 1_565 S
N1097 C1095 1.384 . S
H1098 C1104 0.930 . S
H1099 C1108 0.930 . S
H1100 C1113 0.929 . S
H1101 C1111 0.929 . S
H1102 C1106 0.929 . S
H1103 C1112 0.929 . S
C1104 H1098 0.930 . S
C1104 C1105 1.367 . S
C1104 C1112 1.378 . S
C1105 C1104 1.367 . S
C1105 C1113 1.433 . S
C1106 H1102 0.929 . S
C1106 C1108 1.378 . S
C1106 C1110 1.350 . S
C1107 C1110 1.463 . S
C1107 C1112 1.350 1_655 S
C1107 N1115 1.427 . S
C1108 H1099 0.930 . S
C1108 C1106 1.378 . S
C1108 C1109 1.367 . S
C1109 C1108 1.367 . S
C1109 C1111 1.433 . S
C1110 C1106 1.350 . S
C1110 C1107 1.463 . S
C1110 N1114 1.427 . S
C1111 H1101 0.929 . S
C1111 C1109 1.433 . S
C1111 N1114 1.384 . S
C1112 H1103 0.929 . S
C1112 C1104 1.378 . S
C1112 C1107 1.350 1_455 S
C1113 H1100 0.929 . S
C1113 C1105 1.433 . S
C1113 N1115 1.384 1_455 S
N1114 C1110 1.427 . S
N1114 C1111 1.384 . S
N1115 C1107 1.427 . S
N1115 C1113 1.384 1_655 S
H1116 C1122 0.930 . S
H1117 C1126 0.930 . S
H1118 C1131 0.929 . S
H1119 C1129 0.929 . S
H1120 C1124 0.929 . S
H1121 C1130 0.929 . S
C1122 H1116 0.930 . S
C1122 C1123 1.367 . S
C1122 C1130 1.378 . S
C1123 C1122 1.367 . S
C1123 C1131 1.433 . S
C1124 H1120 0.929 . S
C1124 C1126 1.378 . S
C1124 C1128 1.350 . S
C1125 C1128 1.463 . S
C1125 C1130 1.350 . S
C1125 N1133 1.427 . S
C1126 H1117 0.930 . S
C1126 C1124 1.378 . S
C1126 C1127 1.367 . S
C1127 C1126 1.367 . S
C1127 C1129 1.433 . S
C1128 C1124 1.350 . S
C1128 C1125 1.463 . S
C1128 N1132 1.427 . S
C1129 H1119 0.929 . S
C1129 C1127 1.433 . S
C1129 N1132 1.384 . S
C1130 H1121 0.929 . S
C1130 C1122 1.378 . S
C1130 C1125 1.350 . S
C1131 H1118 0.929 . S
C1131 C1123 1.433 . S
C1131 N1133 1.384 . S
N1132 C1128 1.427 . S
N1132 C1129 1.384 . S
N1133 C1125 1.427 . S
N1133 C1131 1.384 . S
H1134 C1140 0.930 . S
H1135 C1144 0.930 . S
H1136 C1149 0.929 . S
H1137 C1147 0.929 . S
H1138 C1142 0.929 . S
H1139 C1148 0.929 . S
C1140 H1134 0.930 . S
C1140 C1141 1.367 . S
C1140 C1148 1.378 . S
C1141 C1140 1.367 . S
C1141 C1149 1.433 . S
C1142 H1138 0.929 . S
C1142 C1144 1.378 1_455 S
C1142 C1146 1.350 . S
C1143 C1146 1.463 . S
C1143 C1148 1.350 . S
C1143 N1151 1.427 . S
C1144 H1135 0.930 . S
C1144 C1142 1.378 1_655 S
C1144 C1145 1.367 . S
C1145 C1144 1.367 . S
C1145 C1147 1.433 . S
C1146 C1142 1.350 . S
C1146 C1143 1.463 . S
C1146 N1150 1.427 1_455 S
C1147 H1137 0.929 . S
C1147 C1145 1.433 . S
C1147 N1150 1.384 . S
C1148 H1139 0.929 . S
C1148 C1140 1.378 . S
C1148 C1143 1.350 . S
C1149 H1136 0.929 . S
C1149 C1141 1.433 . S
C1149 N1151 1.384 . S
N1150 C1146 1.427 1_655 S
N1150 C1147 1.384 . S
N1151 C1143 1.427 . S
N1151 C1149 1.384 . S
H1152 C1158 0.930 . S
H1153 C1162 0.930 . S
H1154 C1167 0.929 . S
H1155 C1165 0.929 . S
H1156 C1160 0.929 . S
H1157 C1166 0.929 . S
C1158 H1152 0.930 . S
C1158 C1159 1.367 . S
C1158 C1166 1.378 . S
C1159 C1158 1.367 . S
C1159 C1167 1.433 . S
C1160 H1156 0.929 . S
C1160 C1162 1.378 . S
C1160 C1164 1.350 . S
C1161 C1164 1.463 . S
C1161 C1166 1.350 . S
C1161 N1169 1.427 . S
C1162 H1153 0.930 . S
C1162 C1160 1.378 . S
C1162 C1163 1.367 . S
C1163 C1162 1.367 . S
C1163 C1165 1.433 . S
C1164 C1160 1.350 . S
C1164 C1161 1.463 . S
C1164 N1168 1.427 . S
C1165 H1155 0.929 . S
C1165 C1163 1.433 . S
C1165 N1168 1.384 . S
C1166 H1157 0.929 . S
C1166 C1158 1.378 . S
C1166 C1161 1.350 . S
C1167 H1154 0.929 . S
C1167 C1159 1.433 . S
C1167 N1169 1.384 . S
N1168 C1164 1.427 . S
N1168 C1165 1.384 . S
N1169 C1161 1.427 . S
N1169 C1167 1.384 . S
H1170 C1176 0.930 . S
H1171 C1180 0.930 . S
H1172 C1185 0.929 . S
H1173 C1183 0.929 . S
H1174 C1178 0.929 . S
H1175 C1184 0.929 . S
C1176 H1170 0.930 . S
C1176 C1177 1.367 . S
C1176 C1184 1.378 . S
C1177 C1176 1.367 . S
C1177 C1185 1.433 . S
C1178 H1174 0.929 . S
C1178 C1180 1.378 . S
C1178 C1182 1.350 . S
C1179 C1182 1.463 1_565 S
C1179 C1184 1.350 . S
C1179 N1187 1.427 . S
C1180 H1171 0.930 . S
C1180 C1178 1.378 . S
C1180 C1181 1.367 . S
C1181 C1180 1.367 . S
C1181 C1183 1.433 . S
C1182 C1178 1.350 . S
C1182 C1179 1.463 1_545 S
C1182 N1186 1.427 . S
C1183 H1173 0.929 . S
C1183 C1181 1.433 . S
C1183 N1186 1.384 . S
C1184 H1175 0.929 . S
C1184 C1176 1.378 . S
C1184 C1179 1.350 . S
C1185 H1172 0.929 . S
C1185 C1177 1.433 . S
C1185 N1187 1.384 . S
N1186 C1182 1.427 . S
N1186 C1183 1.384 . S
N1187 C1179 1.427 . S
N1187 C1185 1.384 . S
H1188 C1194 0.930 . S
H1189 C1198 0.930 . S
H1190 C1203 0.929 . S
H1191 C1201 0.929 . S
H1192 C1196 0.929 . S
H1193 C1202 0.929 . S
C1194 H1188 0.930 . S
C1194 C1195 1.367 . S
C1194 C1202 1.378 . S
C1195 C1194 1.367 . S
C1195 C1203 1.433 . S
C1196 H1192 0.929 . S
C1196 C1198 1.378 . S
C1196 C1200 1.350 . S
C1197 C1200 1.463 . S
C1197 C1202 1.350 . S
C1197 N1205 1.427 . S
C1198 H1189 0.930 . S
C1198 C1196 1.378 . S
C1198 C1199 1.367 . S
C1199 C1198 1.367 . S
C1199 C1201 1.433 . S
C1200 C1196 1.350 . S
C1200 C1197 1.463 . S
C1200 N1204 1.427 . S
C1201 H1191 0.929 . S
C1201 C1199 1.433 . S
C1201 N1204 1.384 . S
C1202 H1193 0.929 . S
C1202 C1194 1.378 . S
C1202 C1197 1.350 . S
C1203 H1190 0.929 . S
C1203 C1195 1.433 . S
C1203 N1205 1.384 . S
N1204 C1200 1.427 . S
N1204 C1201 1.384 . S
N1205 C1197 1.427 . S
N1205 C1203 1.384 . S
H1206 C1212 0.930 . S
H1207 C1216 0.930 . S
H1208 C1221 0.929 . S
H1209 C1219 0.929 . S
H1210 C1214 0.929 . S
H1211 C1220 0.929 . S
C1212 H1206 0.930 . S
C1212 C1213 1.367 . S
C1212 C1220 1.378 . S
C1213 C1212 1.367 . S
C1213 C1221 1.433 . S
C1214 H1210 0.929 . S
C1214 C1216 1.378 . S
C1214 C1218 1.350 . S
C1215 C1218 1.463 . S
C1215 C1220 1.350 . S
C1215 N1223 1.427 . S
C1216 H1207 0.930 . S
C1216 C1214 1.378 . S
C1216 C1217 1.367 . S
C1217 C1216 1.367 . S
C1217 C1219 1.433 . S
C1218 C1214 1.350 . S
C1218 C1215 1.463 . S
C1218 N1222 1.427 . S
C1219 H1209 0.929 . S
C1219 C1217 1.433 . S
C1219 N1222 1.384 . S
C1220 H1211 0.929 . S
C1220 C1212 1.378 . S
C1220 C1215 1.350 . S
C1221 H1208 0.929 . S
C1221 C1213 1.433 . S
C1221 N1223 1.384 . S
N1222 C1218 1.427 . S
N1222 C1219 1.384 . S
N1223 C1215 1.427 . S
N1223 C1221 1.384 . S
H1224 C1230 0.930 . S
H1225 C1234 0.930 . S
H1226 C1239 0.929 . S
H1227 C1237 0.929 . S
H1228 C1232 0.929 . S
H1229 C1238 0.929 . S
C1230 H1224 0.930 . S
C1230 C1231 1.367 . S
C1230 C1238 1.378 . S
C1231 C1230 1.367 . S
C1231 C1239 1.433 . S
C1232 H1228 0.929 . S
C1232 C1234 1.378 . S
C1232 C1236 1.350 . S
C1233 C1236 1.463 . S
C1233 C1238 1.350 . S
C1233 N1241 1.427 . S
C1234 H1225 0.930 . S
C1234 C1232 1.378 . S
C1234 C1235 1.367 . S
C1235 C1234 1.367 . S
C1235 C1237 1.433 . S
C1236 C1232 1.350 . S
C1236 C1233 1.463 . S
C1236 N1240 1.427 . S
C1237 H1227 0.929 . S
C1237 C1235 1.433 . S
C1237 N1240 1.384 . S
C1238 H1229 0.929 . S
C1238 C1230 1.378 . S
C1238 C1233 1.350 . S
C1239 H1226 0.929 . S
C1239 C1231 1.433 . S
C1239 N1241 1.384 . S
N1240 C1236 1.427 . S
N1240 C1237 1.384 . S
N1241 C1233 1.427 . S
N1241 C1239 1.384 . S
H1242 C1248 0.930 . S
H1243 C1252 0.930 . S
H1244 C1257 0.929 . S
H1245 C1255 0.929 . S
H1246 C1250 0.929 . S
H1247 C1256 0.929 . S
C1248 H1242 0.930 . S
C1248 C1249 1.367 . S
C1248 C1256 1.378 . S
C1249 C1248 1.367 . S
C1249 C1257 1.433 . S
C1250 H1246 0.929 . S
C1250 C1252 1.378 . S
C1250 C1254 1.350 . S
C1251 C1254 1.463 . S
C1251 C1256 1.350 . S
C1251 N1259 1.427 . S
C1252 H1243 0.930 . S
C1252 C1250 1.378 . S
C1252 C1253 1.367 . S
C1253 C1252 1.367 . S
C1253 C1255 1.433 . S
C1254 C1250 1.350 . S
C1254 C1251 1.463 . S
C1254 N1258 1.427 . S
C1255 H1245 0.929 . S
C1255 C1253 1.433 . S
C1255 N1258 1.384 . S
C1256 H1247 0.929 . S
C1256 C1248 1.378 . S
C1256 C1251 1.350 . S
C1257 H1244 0.929 . S
C1257 C1249 1.433 . S
C1257 N1259 1.384 . S
N1258 C1254 1.427 . S
N1258 C1255 1.384 . S
N1259 C1251 1.427 . S
N1259 C1257 1.384 . S
H1260 C1266 0.930 . S
H1261 C1270 0.930 . S
H1262 C1275 0.929 . S
H1263 C1273 0.929 . S
H1264 C1268 0.929 . S
H1265 C1274 0.929 . S
C1266 H1260 0.930 . S
C1266 C1267 1.367 . S
C1266 C1274 1.378 . S
C1267 C1266 1.367 . S
C1267 C1275 1.433 . S
C1268 H1264 0.929 . S
C1268 C1270 1.378 . S
C1268 C1272 1.350 . S
C1269 C1272 1.463 . S
C1269 C1274 1.350 . S
C1269 N1277 1.427 . S
C1270 H1261 0.930 . S
C1270 C1268 1.378 . S
C1270 C1271 1.367 . S
C1271 C1270 1.367 . S
C1271 C1273 1.433 . S
C1272 C1268 1.350 . S
C1272 C1269 1.463 . S
C1272 N1276 1.427 . S
C1273 H1263 0.929 . S
C1273 C1271 1.433 . S
C1273 N1276 1.384 . S
C1274 H1265 0.929 . S
C1274 C1266 1.378 . S
C1274 C1269 1.350 . S
C1275 H1262 0.929 . S
C1275 C1267 1.433 . S
C1275 N1277 1.384 . S
N1276 C1272 1.427 . S
N1276 C1273 1.384 . S
N1277 C1269 1.427 . S
N1277 C1275 1.384 . S
H1278 C1284 0.930 . S
H1279 C1288 0.930 . S
H1280 C1293 0.929 . S
H1281 C1291 0.929 . S
H1282 C1286 0.929 . S
H1283 C1292 0.929 . S
C1284 H1278 0.930 . S
C1284 C1285 1.367 . S
C1284 C1292 1.378 . S
C1285 C1284 1.367 . S
C1285 C1293 1.433 . S
C1286 H1282 0.929 . S
C1286 C1288 1.378 . S
C1286 C1290 1.350 . S
C1287 C1290 1.463 . S
C1287 C1292 1.350 . S
C1287 N1295 1.427 . S
C1288 H1279 0.930 . S
C1288 C1286 1.378 . S
C1288 C1289 1.367 . S
C1289 C1288 1.367 . S
C1289 C1291 1.433 . S
C1290 C1286 1.350 . S
C1290 C1287 1.463 . S
C1290 N1294 1.427 . S
C1291 H1281 0.929 . S
C1291 C1289 1.433 . S
C1291 N1294 1.384 . S
C1292 H1283 0.929 . S
C1292 C1284 1.378 . S
C1292 C1287 1.350 . S
C1293 H1280 0.929 . S
C1293 C1285 1.433 . S
C1293 N1295 1.384 . S
N1294 C1290 1.427 . S
N1294 C1291 1.384 . S
N1295 C1287 1.427 . S
N1295 C1293 1.384 . S
H1296 C1302 0.930 . S
H1297 C1306 0.930 . S
H1298 C1311 0.929 . S
H1299 C1309 0.929 . S
H1300 C1304 0.929 . S
H1301 C1310 0.929 . S
C1302 H1296 0.930 . S
C1302 C1303 1.367 . S
C1302 C1310 1.378 . S
C1303 C1302 1.367 . S
C1303 C1311 1.433 . S
C1304 H1300 0.929 . S
C1304 C1306 1.378 . S
C1304 C1308 1.350 . S
C1305 C1308 1.463 . S
C1305 C1310 1.350 . S
C1305 N1313 1.427 . S
C1306 H1297 0.930 . S
C1306 C1304 1.378 . S
C1306 C1307 1.367 . S
C1307 C1306 1.367 . S
C1307 C1309 1.433 . S
C1308 C1304 1.350 . S
C1308 C1305 1.463 . S
C1308 N1312 1.427 . S
C1309 H1299 0.929 . S
C1309 C1307 1.433 . S
C1309 N1312 1.384 . S
C1310 H1301 0.929 . S
C1310 C1302 1.378 . S
C1310 C1305 1.350 . S
C1311 H1298 0.929 . S
C1311 C1303 1.433 . S
C1311 N1313 1.384 . S
N1312 C1308 1.427 . S
N1312 C1309 1.384 . S
N1313 C1305 1.427 . S
N1313 C1311 1.384 . S
H1314 C1320 0.930 . S
H1315 C1324 0.930 . S
H1316 C1329 0.929 . S
H1317 C1327 0.929 . S
H1318 C1322 0.929 . S
H1319 C1328 0.929 . S
C1320 H1314 0.930 . S
C1320 C1321 1.367 . S
C1320 C1328 1.378 . S
C1321 C1320 1.367 . S
C1321 C1329 1.433 . S
C1322 H1318 0.929 . S
C1322 C1324 1.378 . S
C1322 C1326 1.350 . S
C1323 C1326 1.463 . S
C1323 C1328 1.350 . S
C1323 N1331 1.427 . S
C1324 H1315 0.930 . S
C1324 C1322 1.378 . S
C1324 C1325 1.367 . S
C1325 C1324 1.367 . S
C1325 C1327 1.433 . S
C1326 C1322 1.350 . S
C1326 C1323 1.463 . S
C1326 N1330 1.427 . S
C1327 H1317 0.929 . S
C1327 C1325 1.433 . S
C1327 N1330 1.384 . S
C1328 H1319 0.929 . S
C1328 C1320 1.378 . S
C1328 C1323 1.350 . S
C1329 H1316 0.929 . S
C1329 C1321 1.433 . S
C1329 N1331 1.384 . S
N1330 C1326 1.427 . S
N1330 C1327 1.384 . S
N1331 C1323 1.427 . S
N1331 C1329 1.384 . S
H1332 C1338 0.930 . S
H1333 C1342 0.930 . S
H1334 C1347 0.929 . S
H1335 C1345 0.929 . S
H1336 C1340 0.929 . S
H1337 C1346 0.929 . S
C1338 H1332 0.930 . S
C1338 C1339 1.367 . S
C1338 C1346 1.378 . S
C1339 C1338 1.367 . S
C1339 C1347 1.433 . S
C1340 H1336 0.929 . S
C1340 C1342 1.378 . S
C1340 C1344 1.350 . S
C1341 C1344 1.463 . S
C1341 C1346 1.350 . S
C1341 N1349 1.427 . S
C1342 H1333 0.930 . S
C1342 C1340 1.378 . S
C1342 C1343 1.367 . S
C1343 C1342 1.367 . S
C1343 C1345 1.433 . S
C1344 C1340 1.350 . S
C1344 C1341 1.463 . S
C1344 N1348 1.427 . S
C1345 H1335 0.929 . S
C1345 C1343 1.433 . S
C1345 N1348 1.384 . S
C1346 H1337 0.929 . S
C1346 C1338 1.378 . S
C1346 C1341 1.350 . S
C1347 H1334 0.929 . S
C1347 C1339 1.433 . S
C1347 N1349 1.384 . S
N1348 C1344 1.427 . S
N1348 C1345 1.384 . S
N1349 C1341 1.427 . S
N1349 C1347 1.384 . S
H1350 C1356 0.930 . S
H1351 C1360 0.930 . S
H1352 C1365 0.929 . S
H1353 C1363 0.929 . S
H1354 C1358 0.929 . S
H1355 C1364 0.929 . S
C1356 H1350 0.930 . S
C1356 C1357 1.367 . S
C1356 C1364 1.378 . S
C1357 C1356 1.367 . S
C1357 C1365 1.433 . S
C1358 H1354 0.929 . S
C1358 C1360 1.378 . S
C1358 C1362 1.350 . S
C1359 C1362 1.463 . S
C1359 C1364 1.350 . S
C1359 N1367 1.427 . S
C1360 H1351 0.930 . S
C1360 C1358 1.378 . S
C1360 C1361 1.367 . S
C1361 C1360 1.367 . S
C1361 C1363 1.433 . S
C1362 C1358 1.350 . S
C1362 C1359 1.463 . S
C1362 N1366 1.427 . S
C1363 H1353 0.929 . S
C1363 C1361 1.433 . S
C1363 N1366 1.384 . S
C1364 H1355 0.929 . S
C1364 C1356 1.378 . S
C1364 C1359 1.350 . S
C1365 H1352 0.929 . S
C1365 C1357 1.433 . S
C1365 N1367 1.384 . S
N1366 C1362 1.427 . S
N1366 C1363 1.384 . S
N1367 C1359 1.427 . S
N1367 C1365 1.384 . S
H1368 C1374 0.930 . S
H1369 C1378 0.930 . S
H1370 C1383 0.929 . S
H1371 C1381 0.929 . S
H1372 C1376 0.929 . S
H1373 C1382 0.929 . S
C1374 H1368 0.930 . S
C1374 C1375 1.367 . S
C1374 C1382 1.378 . S
C1375 C1374 1.367 . S
C1375 C1383 1.433 . S
C1376 H1372 0.929 . S
C1376 C1378 1.378 . S
C1376 C1380 1.350 . S
C1377 C1380 1.463 . S
C1377 C1382 1.350 . S
C1377 N1385 1.427 . S
C1378 H1369 0.930 . S
C1378 C1376 1.378 . S
C1378 C1379 1.367 . S
C1379 C1378 1.367 . S
C1379 C1381 1.433 . S
C1380 C1376 1.350 . S
C1380 C1377 1.463 . S
C1380 N1384 1.427 . S
C1381 H1371 0.929 . S
C1381 C1379 1.433 . S
C1381 N1384 1.384 . S
C1382 H1373 0.929 . S
C1382 C1374 1.378 . S
C1382 C1377 1.350 . S
C1383 H1370 0.929 . S
C1383 C1375 1.433 . S
C1383 N1385 1.384 . S
N1384 C1380 1.427 . S
N1384 C1381 1.384 . S
N1385 C1377 1.427 . S
N1385 C1383 1.384 . S
H1386 C1392 0.930 . S
H1387 C1396 0.930 . S
H1388 C1401 0.929 . S
H1389 C1399 0.929 . S
H1390 C1394 0.929 . S
H1391 C1400 0.929 . S
C1392 H1386 0.930 . S
C1392 C1393 1.367 . S
C1392 C1400 1.378 . S
C1393 C1392 1.367 . S
C1393 C1401 1.433 . S
C1394 H1390 0.929 . S
C1394 C1396 1.378 . S
C1394 C1398 1.350 . S
C1395 C1398 1.463 . S
C1395 C1400 1.350 . S
C1395 N1403 1.427 . S
C1396 H1387 0.930 . S
C1396 C1394 1.378 . S
C1396 C1397 1.367 . S
C1397 C1396 1.367 . S
C1397 C1399 1.433 . S
C1398 C1394 1.350 . S
C1398 C1395 1.463 . S
C1398 N1402 1.427 . S
C1399 H1389 0.929 . S
C1399 C1397 1.433 . S
C1399 N1402 1.384 . S
C1400 H1391 0.929 . S
C1400 C1392 1.378 . S
C1400 C1395 1.350 . S
C1401 H1388 0.929 . S
C1401 C1393 1.433 . S
C1401 N1403 1.384 . S
N1402 C1398 1.427 . S
N1402 C1399 1.384 . S
N1403 C1395 1.427 . S
N1403 C1401 1.384 . S
H1404 C1410 0.930 . S
H1405 C1414 0.930 . S
H1406 C1419 0.929 . S
H1407 C1417 0.929 . S
H1408 C1412 0.929 . S
H1409 C1418 0.929 . S
C1410 H1404 0.930 . S
C1410 C1411 1.367 . S
C1410 C1418 1.378 . S
C1411 C1410 1.367 . S
C1411 C1419 1.433 . S
C1412 H1408 0.929 . S
C1412 C1414 1.378 . S
C1412 C1416 1.350 . S
C1413 C1416 1.463 . S
C1413 C1418 1.350 . S
C1413 N1421 1.427 . S
C1414 H1405 0.930 . S
C1414 C1412 1.378 . S
C1414 C1415 1.367 . S
C1415 C1414 1.367 . S
C1415 C1417 1.433 . S
C1416 C1412 1.350 . S
C1416 C1413 1.463 . S
C1416 N1420 1.427 . S
C1417 H1407 0.929 . S
C1417 C1415 1.433 . S
C1417 N1420 1.384 . S
C1418 H1409 0.929 . S
C1418 C1410 1.378 . S
C1418 C1413 1.350 . S
C1419 H1406 0.929 . S
C1419 C1411 1.433 . S
C1419 N1421 1.384 . S
N1420 C1416 1.427 . S
N1420 C1417 1.384 . S
N1421 C1413 1.427 . S
N1421 C1419 1.384 . S
H1422 C1428 0.930 . S
H1423 C1432 0.930 . S
H1424 C1437 0.929 . S
H1425 C1435 0.929 . S
H1426 C1430 0.929 . S
H1427 C1436 0.929 . S
C1428 H1422 0.930 . S
C1428 C1429 1.367 . S
C1428 C1436 1.378 . S
C1429 C1428 1.367 . S
C1429 C1437 1.433 . S
C1430 H1426 0.929 . S
C1430 C1432 1.378 . S
C1430 C1434 1.350 . S
C1431 C1434 1.463 . S
C1431 C1436 1.350 . S
C1431 N1439 1.427 . S
C1432 H1423 0.930 . S
C1432 C1430 1.378 . S
C1432 C1433 1.367 . S
C1433 C1432 1.367 . S
C1433 C1435 1.433 . S
C1434 C1430 1.350 . S
C1434 C1431 1.463 . S
C1434 N1438 1.427 . S
C1435 H1425 0.929 . S
C1435 C1433 1.433 . S
C1435 N1438 1.384 . S
C1436 H1427 0.929 . S
C1436 C1428 1.378 . S
C1436 C1431 1.350 . S
C1437 H1424 0.929 . S
C1437 C1429 1.433 . S
C1437 N1439 1.384 . S
N1438 C1434 1.427 . S
N1438 C1435 1.384 . S
N1439 C1431 1.427 . S
N1439 C1437 1.384 . S
H1440 C1446 0.930 . S
H1441 C1450 0.930 . S
H1442 C1455 0.929 . S
H1443 C1453 0.929 . S
H1444 C1448 0.929 . S
H1445 C1454 0.929 . S
C1446 H1440 0.930 . S
C1446 C1447 1.367 . S
C1446 C1454 1.378 . S
C1447 C1446 1.367 . S
C1447 C1455 1.433 . S
C1448 H1444 0.929 . S
C1448 C1450 1.378 . S
C1448 C1452 1.350 . S
C1449 C1452 1.463 . S
C1449 C1454 1.350 . S
C1449 N1457 1.427 . S
C1450 H1441 0.930 . S
C1450 C1448 1.378 . S
C1450 C1451 1.367 . S
C1451 C1450 1.367 . S
C1451 C1453 1.433 . S
C1452 C1448 1.350 . S
C1452 C1449 1.463 . S
C1452 N1456 1.427 . S
C1453 H1443 0.929 . S
C1453 C1451 1.433 . S
C1453 N1456 1.384 . S
C1454 H1445 0.929 . S
C1454 C1446 1.378 . S
C1454 C1449 1.350 . S
C1455 H1442 0.929 . S
C1455 C1447 1.433 . S
C1455 N1457 1.384 . S
N1456 C1452 1.427 . S
N1456 C1453 1.384 . S
N1457 C1449 1.427 . S
N1457 C1455 1.384 . S
H1458 C1464 0.930 . S
H1459 C1468 0.930 . S
H1460 C1473 0.929 . S
H1461 C1471 0.929 . S
H1462 C1466 0.929 . S
H1463 C1472 0.929 . S
C1464 H1458 0.930 . S
C1464 C1465 1.367 . S
C1464 C1472 1.378 . S
C1465 C1464 1.367 . S
C1465 C1473 1.433 . S
C1466 H1462 0.929 . S
C1466 C1468 1.378 . S
C1466 C1470 1.350 . S
C1467 C1470 1.463 . S
C1467 C1472 1.350 . S
C1467 N1475 1.427 . S
C1468 H1459 0.930 . S
C1468 C1466 1.378 . S
C1468 C1469 1.367 . S
C1469 C1468 1.367 . S
C1469 C1471 1.433 . S
C1470 C1466 1.350 . S
C1470 C1467 1.463 . S
C1470 N1474 1.427 . S
C1471 H1461 0.929 . S
C1471 C1469 1.433 . S
C1471 N1474 1.384 . S
C1472 H1463 0.929 . S
C1472 C1464 1.378 . S
C1472 C1467 1.350 . S
C1473 H1460 0.929 . S
C1473 C1465 1.433 . S
C1473 N1475 1.384 . S
N1474 C1470 1.427 . S
N1474 C1471 1.384 . S
N1475 C1467 1.427 . S
N1475 C1473 1.384 . S
H1476 C1482 0.930 . S
H1477 C1486 0.930 . S
H1478 C1491 0.929 . S
H1479 C1489 0.929 . S
H1480 C1484 0.929 . S
H1481 C1490 0.929 . S
C1482 H1476 0.930 . S
C1482 C1483 1.367 . S
C1482 C1490 1.378 . S
C1483 C1482 1.367 . S
C1483 C1491 1.433 . S
C1484 H1480 0.929 . S
C1484 C1486 1.378 . S
C1484 C1488 1.350 . S
C1485 C1488 1.463 . S
C1485 C1490 1.350 . S
C1485 N1493 1.427 . S
C1486 H1477 0.930 . S
C1486 C1484 1.378 . S
C1486 C1487 1.367 . S
C1487 C1486 1.367 . S
C1487 C1489 1.433 . S
C1488 C1484 1.350 . S
C1488 C1485 1.463 . S
C1488 N1492 1.427 . S
C1489 H1479 0.929 . S
C1489 C1487 1.433 . S
C1489 N1492 1.384 . S
C1490 H1481 0.929 . S
C1490 C1482 1.378 . S
C1490 C1485 1.350 . S
C1491 H1478 0.929 . S
C1491 C1483 1.433 . S
C1491 N1493 1.384 . S
N1492 C1488 1.427 . S
N1492 C1489 1.384 . S
N1493 C1485 1.427 . S
N1493 C1491 1.384 . S
H1494 C1500 0.930 . S
H1495 C1504 0.930 . S
H1496 C1509 0.929 . S
H1497 C1507 0.929 . S
H1498 C1502 0.929 . S
H1499 C1508 0.929 . S
C1500 H1494 0.930 . S
C1500 C1501 1.367 . S
C1500 C1508 1.378 . S
C1501 C1500 1.367 . S
C1501 C1509 1.433 . S
C1502 H1498 0.929 . S
C1502 C1504 1.378 . S
C1502 C1506 1.350 . S
C1503 C1506 1.463 . S
C1503 C1508 1.350 . S
C1503 N1511 1.427 . S
C1504 H1495 0.930 . S
C1504 C1502 1.378 . S
C1504 C1505 1.367 . S
C1505 C1504 1.367 . S
C1505 C1507 1.433 . S
C1506 C1502 1.350 . S
C1506 C1503 1.463 . S
C1506 N1510 1.427 . S
C1507 H1497 0.929 . S
C1507 C1505 1.433 . S
C1507 N1510 1.384 . S
C1508 H1499 0.929 . S
C1508 C1500 1.378 . S
C1508 C1503 1.350 . S
C1509 H1496 0.929 . S
C1509 C1501 1.433 . S
C1509 N1511 1.384 . S
N1510 C1506 1.427 . S
N1510 C1507 1.384 . S
N1511 C1503 1.427 . S
N1511 C1509 1.384 . S
H1512 C1518 0.930 . S
H1513 C1522 0.930 . S
H1514 C1527 0.929 . S
H1515 C1525 0.929 . S
H1516 C1520 0.929 . S
H1517 C1526 0.929 . S
C1518 H1512 0.930 . S
C1518 C1519 1.367 . S
C1518 C1526 1.378 . S
C1519 C1518 1.367 . S
C1519 C1527 1.433 . S
C1520 H1516 0.929 . S
C1520 C1522 1.378 . S
C1520 C1524 1.350 . S
C1521 C1524 1.463 . S
C1521 C1526 1.350 . S
C1521 N1529 1.427 . S
C1522 H1513 0.930 . S
C1522 C1520 1.378 . S
C1522 C1523 1.367 . S
C1523 C1522 1.367 . S
C1523 C1525 1.433 . S
C1524 C1520 1.350 . S
C1524 C1521 1.463 . S
C1524 N1528 1.427 . S
C1525 H1515 0.929 . S
C1525 C1523 1.433 . S
C1525 N1528 1.384 . S
C1526 H1517 0.929 . S
C1526 C1518 1.378 . S
C1526 C1521 1.350 . S
C1527 H1514 0.929 . S
C1527 C1519 1.433 . S
C1527 N1529 1.384 . S
N1528 C1524 1.427 . S
N1528 C1525 1.384 . S
N1529 C1521 1.427 . S
N1529 C1527 1.384 . S
H1530 C1536 0.930 . S
H1531 C1540 0.930 . S
H1532 C1545 0.929 . S
H1533 C1543 0.929 . S
H1534 C1538 0.929 . S
H1535 C1544 0.929 . S
C1536 H1530 0.930 . S
C1536 C1537 1.367 . S
C1536 C1544 1.378 . S
C1537 C1536 1.367 . S
C1537 C1545 1.433 . S
C1538 H1534 0.929 . S
C1538 C1540 1.378 . S
C1538 C1542 1.350 . S
C1539 C1542 1.463 . S
C1539 C1544 1.350 . S
C1539 N1547 1.427 . S
C1540 H1531 0.930 . S
C1540 C1538 1.378 . S
C1540 C1541 1.367 . S
C1541 C1540 1.367 . S
C1541 C1543 1.433 . S
C1542 C1538 1.350 . S
C1542 C1539 1.463 . S
C1542 N1546 1.427 . S
C1543 H1533 0.929 . S
C1543 C1541 1.433 . S
C1543 N1546 1.384 . S
C1544 H1535 0.929 . S
C1544 C1536 1.378 . S
C1544 C1539 1.350 . S
C1545 H1532 0.929 . S
C1545 C1537 1.433 . S
C1545 N1547 1.384 . S
N1546 C1542 1.427 . S
N1546 C1543 1.384 . S
N1547 C1539 1.427 . S
N1547 C1545 1.384 . S
H1548 C1554 0.930 . S
H1549 C1558 0.930 . S
H1550 C1563 0.929 . S
H1551 C1561 0.929 . S
H1552 C1556 0.929 . S
H1553 C1562 0.929 . S
C1554 H1548 0.930 . S
C1554 C1555 1.367 . S
C1554 C1562 1.378 . S
C1555 C1554 1.367 . S
C1555 C1563 1.433 . S
C1556 H1552 0.929 . S
C1556 C1558 1.378 . S
C1556 C1560 1.350 . S
C1557 C1560 1.463 . S
C1557 C1562 1.350 . S
C1557 N1565 1.427 . S
C1558 H1549 0.930 . S
C1558 C1556 1.378 . S
C1558 C1559 1.367 . S
C1559 C1558 1.367 . S
C1559 C1561 1.433 . S
C1560 C1556 1.350 . S
C1560 C1557 1.463 . S
C1560 N1564 1.427 . S
C1561 H1551 0.929 . S
C1561 C1559 1.433 . S
C1561 N1564 1.384 . S
C1562 H1553 0.929 . S
C1562 C1554 1.378 . S
C1562 C1557 1.350 . S
C1563 H1550 0.929 . S
C1563 C1555 1.433 . S
C1563 N1565 1.384 . S
N1564 C1560 1.427 . S
N1564 C1561 1.384 . S
N1565 C1557 1.427 . S
N1565 C1563 1.384 . S
C601 N170 2.094 . S
C605 C237 2.139 . S
C619 N184 1.157 . S
C623 C277 1.156 . S
C637 N158 1.677 . S
C641 C329 1.665 . S
C655 N145 1.559 . S
C659 C289 1.547 1_556 S
C677 C317 0.830 1_556 S
C673 N119 0.838 . S
C691 N131 1.830 . S
C695 C249 1.866 . S
C713 C256 1.786 . S
C709 N144 1.777 . S
C731 C296 1.670 . S
C727 N118 1.675 . S
C745 N132 1.561 . S
C749 C316 1.571 . S
C763 N171 1.476 . S
C767 C276 1.481 . S
C781 N183 1.322 . S
C785 C336 1.334 . S
C803 C236 1.469 . S
C799 N157 1.473 . S
C821 C357 2.139 . S
C817 N14 2.090 . S
C835 N28 1.159 . S
C839 C397 1.159 . S
C853 N2 1.683 . S
C857 C449 1.675 . S
C871 N223 1.552 . S
C875 C409 1.538 . S
C889 N197 0.838 . S
C893 C437 0.837 . S
C907 N209 1.840 . S
C911 C369 1.869 . S
C925 N222 1.778 . S
C929 C376 1.788 . S
C943 N196 1.675 . S
C947 C416 1.670 . S
C965 C436 1.579 . S
C961 N210 1.562 . S
C979 N15 1.474 . S
C983 C396 1.481 . S
C1001 C456 1.330 . S
C997 N27 1.327 . S
C1015 N1 1.476 . S
C1019 C356 1.459 . S
C1037 C477 2.136 . S
C1033 N92 2.089 . S
C1051 N106 1.159 . S
C1055 C517 1.159 . S
C1073 C569 1.666 . S
C1069 N80 1.675 . S
C1091 C529 1.540 . S
C1087 N67 1.553 . S
C1109 C557 0.838 . S
C1105 N41 0.837 . S
C1123 N53 1.835 . S
C1127 C489 1.872 . S
C1141 N66 1.773 . S
C1145 C496 1.786 . S
C1159 N40 1.675 . S
C1163 C536 1.670 . S
C1181 C556 1.572 . S
C1177 N54 1.562 . S
C1195 N93 1.478 . S
C1199 C516 1.479 . S
C1213 N105 1.326 . S
C1217 C576 1.332 . S
C1231 N79 1.473 . S
C1235 C476 1.469 . S
C1249 N200 1.022 . S
C1253 C260 1.027 . S
C1271 C300 2.015 . S
C1267 N213 1.996 . S
C1285 N226 1.587 . S
C1289 C323 1.581 . S
C1303 N83 1.813 . S
C1307 C283 1.795 . S
C1321 N96 1.808 . S
C1325 C340 1.848 . S
C1343 C243 1.168 . S
C1339 N109 1.177 . S
C1357 N44 1.018 . S
C1361 C380 1.026 . S
C1375 N57 2.001 . S
C1379 C420 2.014 . S
C1393 N70 1.580 . S
C1397 C443 1.588 . S
C1411 N161 1.812 . S
C1415 C403 1.795 . S
C1433 C460 1.848 . S
C1429 N174 1.813 . S
C1447 N187 1.184 . S
C1451 C363 1.157 . S
C1465 N122 1.020 . S
C1469 C500 1.031 . S
C1483 N135 1.993 . S
C1487 C540 2.010 . S
C1505 C563 1.581 . S
C1501 N148 1.588 . S
C1519 N5 1.816 . S
C1523 C523 1.794 . S
C1537 N18 1.813 . S
C1541 C580 1.848 . S
C1555 N31 1.184 . S
C1559 C483 1.158 . S
