# Generated by pormake.
# Topology pts, (4,4)-cn, num edge types: 1
# Building blocks:
#     Node 0, Type 0, BuildingBlock: NAHDIM_clean_linker_0, # of connection points: 4
#     Node 1, Type 0, BuildingBlock: NAHDIM_clean_linker_0, # of connection points: 4
#     Node 2, Type 1, BuildingBlock: AZAVOO_clean_sbu_0, # of connection points: 4
#     Node 3, Type 1, BuildingBlock: AZAVOO_clean_sbu_0, # of connection points: 4
#     Edge 4, Type (0, 1), BuildingBlock: XIVTED_clean_linker_0, # of connection points: 2
#     Edge 5, Type (0, 1), BuildingBlock: XIVTED_clean_linker_0, # of connection points: 2
#     Edge 6, Type (0, 1), BuildingBlock: XIVTED_clean_linker_0, # of connection points: 2
#     Edge 7, Type (0, 1), BuildingBlock: XIVTED_clean_linker_0, # of connection points: 2
#     Edge 8, Type (0, 1), BuildingBlock: XIVTED_clean_linker_0, # of connection points: 2
#     Edge 9, Type (0, 1), BuildingBlock: XIVTED_clean_linker_0, # of connection points: 2
#     Edge 10, Type (0, 1), BuildingBlock: XIVTED_clean_linker_0, # of connection points: 2
#     Edge 11, Type (0, 1), BuildingBlock: XIVTED_clean_linker_0, # of connection points: 2
# Relax obj value: 0.016
# Max RMSD: 0.067
# Mean RMSD: 0.062
data_MOF--net-pts--node1-AZAVOO_clean_sbu_0--node2-NAHDIM_clean_linker_0--edge1-XIVTED_clean_linker_0
_symmetry_space_group_name_H-M    P1
_symmetry_Int_Tables_number       1
_symmetry_cell_setting            triclinic
loop_
_symmetry_equiv_pos_as_xyz
'x, y, z'
_cell_length_a     31.799898
_cell_length_b     32.41317
_cell_length_c     52.899202
_cell_angle_alpha  90.400471
_cell_angle_beta   95.666247
_cell_angle_gamma 89.954905
loop_
_atom_site_label
_atom_site_type_symbol
_atom_site_fract_x
_atom_site_fract_y
_atom_site_fract_z
_atom_type_partial_charge
C0 C 0.7842 0.12057 0.1178 0.0
C1 C 0.76318 0.08906 0.13403 0.0
C2 C 0.70796 0.05488 0.10519 0.0
C3 C 0.69572 0.01732 0.09363 0.0
C4 C 0.65648 0.01287 0.07922 0.0
C5 C 0.62899 0.04718 0.07597 0.0
C6 C 0.6412 0.08546 0.08742 0.0
C7 C 0.68046 0.08893 0.10199 0.0
C8 C 0.64434 0.97143 0.06752 0.0
C9 C 0.61277 0.12274 0.08414 0.0
C10 C 0.39153 0.07527 0.15538 0.0
C11 C 0.36025 0.05126 0.13678 0.0
C12 C 0.41 0.02249 0.10831 0.0
C13 C 0.41857 0.05973 0.09631 0.0
C14 C 0.45111 0.06221 0.08027 0.0
C15 C 0.47511 0.02661 0.07572 0.0
C16 C 0.46545 0.98872 0.08691 0.0
C17 C 0.43296 0.98719 0.10305 0.0
C18 C 0.46051 0.10319 0.06864 0.0
C19 C 0.48998 0.95005 0.08218 0.0
C20 C 0.37741 0.00074 0.90881 0.0
C21 C 0.38415 0.04058 0.91897 0.0
C22 C 0.42247 0.05089 0.93313 0.0
C23 C 0.45442 0.02058 0.93743 0.0
C24 C 0.44791 0.98063 0.92677 0.0
C25 C 0.40963 0.97145 0.91229 0.0
C26 C 0.42895 0.09423 0.94339 0.0
C27 C 0.4813 0.94759 0.93081 0.0
C28 C 0.76355 0.12964 0.92664 0.0
C29 C 0.74824 0.09475 0.90838 0.0
C30 C 0.67299 0.08758 0.91242 0.0
C31 C 0.64094 0.11551 0.91663 0.0
C32 C 0.60675 0.10373 0.92983 0.0
C33 C 0.60409 0.06258 0.93835 0.0
C34 C 0.63548 0.03364 0.93304 0.0
C35 C 0.66982 0.04655 0.92026 0.0
C36 C 0.57378 0.13539 0.93498 0.0
C37 C 0.63281 0.98916 0.94096 0.0
C38 C 0.58735 0.0428 0.06075 0.0
C39 C 0.55178 0.03583 0.07367 0.0
C40 C 0.51187 0.02984 0.06053 0.0
C41 C 0.50742 0.02918 0.03365 0.0
C42 C 0.46837 0.02053 0.0198 0.0
C43 C 0.46428 0.02031 0.99333 0.0
C44 C 0.49885 0.02977 0.97972 0.0
C45 C 0.49482 0.03063 0.95283 0.0
C46 C 0.52971 0.04097 0.93999 0.0
C47 C 0.56887 0.05021 0.95321 0.0
C48 C 0.57374 0.04862 0.98007 0.0
C49 C 0.61281 0.05712 0.994 0.0
C50 C 0.61746 0.05489 0.02038 0.0
C51 C 0.58297 0.04504 0.03392 0.0
C52 C 0.54299 0.0375 0.02032 0.0
C53 C 0.53854 0.03856 0.99335 0.0
C54 C 0.28806 0.96491 0.9199 0.0
C55 C 0.30046 0.99802 0.90152 0.0
O56 O 0.74644 0.05669 0.11899 0.0
O57 O 0.70592 0.1008 0.90014 0.0
O58 O 0.34082 0.99 0.89489 0.0
O59 O 0.38067 0.01931 0.12532 0.0
H60 H 0.73761 0.10482 0.14332 0.0
H61 H 0.76052 0.13435 0.1035 0.0
H62 H 0.80912 0.10574 0.10755 0.0
H63 H 0.7986 0.14589 0.13001 0.0
H64 H 0.71705 0.99124 0.09613 0.0
H65 H 0.68934 0.11841 0.11059 0.0
H66 H 0.61312 0.96176 0.07317 0.0
H67 H 0.66797 0.94713 0.07327 0.0
H68 H 0.64134 0.97388 0.0465 0.0
H69 H 0.62801 0.15104 0.09274 0.0
H70 H 0.58329 0.11693 0.09317 0.0
H71 H 0.60371 0.12825 0.06363 0.0
H72 H 0.34577 0.0725 0.12194 0.0
H73 H 0.3748 0.10004 0.16503 0.0
H74 H 0.41641 0.09009 0.1453 0.0
H75 H 0.40707 0.05428 0.16999 0.0
H76 H 0.40054 0.08719 0.09964 0.0
H77 H 0.42592 0.95847 0.11213 0.0
H78 H 0.49403 0.11178 0.07401 0.0
H79 H 0.43995 0.12834 0.07475 0.0
H80 H 0.45594 0.1006 0.04762 0.0
H81 H 0.47608 0.92228 0.09031 0.0
H82 H 0.52306 0.95358 0.09082 0.0
H83 H 0.49102 0.94519 0.06144 0.0
H84 H 0.29937 0.0285 0.9112 0.0
H85 H 0.36001 0.06394 0.9154 0.0
H86 H 0.40432 0.94099 0.90401 0.0
H87 H 0.43153 0.09372 0.96446 0.0
H88 H 0.40259 0.11512 0.93657 0.0
H89 H 0.45896 0.10704 0.93768 0.0
H90 H 0.47018 0.91728 0.92281 0.0
H91 H 0.49099 0.94399 0.95143 0.0
H92 H 0.50972 0.95692 0.92164 0.0
H93 H 0.75269 0.06509 0.91877 0.0
H94 H 0.79739 0.12521 0.93354 0.0
H95 H 0.74495 0.12977 0.94335 0.0
H96 H 0.75963 0.16002 0.91707 0.0
H97 H 0.64339 0.14695 0.91008 0.0
H98 H 0.69376 0.02445 0.91606 0.0
H99 H 0.57014 0.13674 0.95564 0.0
H100 H 0.5428 0.12621 0.92503 0.0
H101 H 0.58187 0.16669 0.92853 0.0
H102 H 0.65709 0.96961 0.93302 0.0
H103 H 0.60102 0.9765 0.93466 0.0
H104 H 0.63733 0.98724 0.96199 0.0
H105 H 0.55514 0.03543 0.09429 0.0
H106 H 0.44061 0.01347 0.02929 0.0
H107 H 0.43353 0.01308 0.98369 0.0
H108 H 0.52628 0.04201 0.91938 0.0
H109 H 0.6404 0.06528 0.98466 0.0
H110 H 0.64836 0.06141 0.03007 0.0
H111 H 0.28882 0.93379 0.91099 0.0
H112 H 0.2558 0.97089 0.92546 0.0
H113 H 0.31048 0.96531 0.93739 0.0
C114 C 0.16184 0.40444 0.6842 0.0
C115 C 0.12955 0.39176 0.66219 0.0
C116 C 0.12938 0.41416 0.6183 0.0
C117 C 0.08618 0.40952 0.61054 0.0
C118 C 0.06737 0.43062 0.58925 0.0
C119 C 0.09217 0.45744 0.57575 0.0
C120 C 0.13604 0.46116 0.58316 0.0
C121 C 0.15422 0.43869 0.60406 0.0
C122 C 0.02071 0.42518 0.58163 0.0
C123 C 0.16338 0.49008 0.56965 0.0
C124 C 0.90013 0.71064 0.58704 0.0
C125 C 0.94189 0.70347 0.60347 0.0
C126 C 0.98561 0.65989 0.57794 0.0
C127 C 0.02271 0.65931 0.56589 0.0
C128 C 0.03734 0.62285 0.55535 0.0
C129 C 0.0136 0.58609 0.55646 0.0
C130 C 0.97548 0.58653 0.56817 0.0
C131 C 0.96193 0.62338 0.57893 0.0
C132 C 0.07855 0.62354 0.54342 0.0
C133 C 0.94925 0.54798 0.56949 0.0
C134 C 0.95349 0.58814 0.3857 0.0
C135 C 0.99079 0.60364 0.39856 0.0
C136 C 0.01558 0.57907 0.41602 0.0
C137 C 1.00156 0.53885 0.42147 0.0
C138 C 0.96399 0.52315 0.4082 0.0
C139 C 0.9409 0.54782 0.39006 0.0
C140 C 0.05656 0.59628 0.42863 0.0
C141 C 0.94786 0.48055 0.41337 0.0
C142 C 0.22952 0.28077 0.4305 0.0
C143 C 0.18226 0.29035 0.42599 0.0
C144 C 0.15042 0.35859 0.42248 0.0
C145 C 0.16363 0.39964 0.42257 0.0
C146 C 0.13869 0.43122 0.43156 0.0
C147 C 0.09888 0.42146 0.43985 0.0
C148 C 0.08432 0.38015 0.43845 0.0
C149 C 0.11052 0.34903 0.43009 0.0
C150 C 0.1552 0.4749 0.43259 0.0
C151 C 0.04126 0.36885 0.44596 0.0
C152 C 0.07129 0.48461 0.55575 0.0
C153 C 0.05141 0.52013 0.56383 0.0
C154 C 0.02998 0.54693 0.54647 0.0
C155 C 0.02713 0.53761 0.52021 0.0
C156 C 0.00329 0.56229 0.50237 0.0
C157 C 0.00182 0.55366 0.47649 0.0
C158 C 0.02522 0.52082 0.46741 0.0
C159 C 0.02585 0.51318 0.44106 0.0
C160 C 0.04982 0.48043 0.43281 0.0
C161 C 0.07282 0.45451 0.45011 0.0
C162 C 0.07192 0.46119 0.47653 0.0
C163 C 0.09399 0.4353 0.49454 0.0
C164 C 0.09288 0.44217 0.52049 0.0
C165 C 0.07115 0.47619 0.52945 0.0
C166 C 0.0488 0.50278 0.51163 0.0
C167 C 0.04853 0.49483 0.48517 0.0
C168 C 0.86506 0.64967 0.36484 0.0
C169 C 0.91158 0.64899 0.37537 0.0
O170 O 0.14783 0.39586 0.63958 0.0
O171 O 0.1769 0.32896 0.41508 0.0
O172 O 0.92918 0.61169 0.369 0.0
O173 O 0.97413 0.69631 0.58818 0.0
H174 H 0.10222 0.41328 0.66256 0.0
H175 H 0.17172 0.43692 0.68174 0.0
H176 H 0.1903 0.3844 0.68485 0.0
H177 H 0.14779 0.40216 0.70256 0.0
H178 H 0.06715 0.38959 0.62118 0.0
H179 H 0.18765 0.44167 0.61012 0.0
H180 H 0.00373 0.4536 0.58656 0.0
H181 H 0.00737 0.39871 0.59142 0.0
H182 H 0.01475 0.42039 0.56077 0.0
H183 H 0.19635 0.49136 0.57879 0.0
H184 H 0.14985 0.52169 0.56938 0.0
H185 H 0.16412 0.47989 0.54964 0.0
H186 H 0.93852 0.67655 0.61607 0.0
H187 H 0.87425 0.71649 0.59927 0.0
H188 H 0.89156 0.68309 0.57506 0.0
H189 H 0.90276 0.73748 0.57433 0.0
H190 H 0.04066 0.68762 0.56514 0.0
H191 H 0.93288 0.62328 0.58796 0.0
H192 H 0.07241 0.61746 0.52271 0.0
H193 H 0.09985 0.59884 0.5516 0.0
H194 H 0.09507 0.65366 0.54621 0.0
H195 H 0.91785 0.55449 0.57616 0.0
H196 H 0.96627 0.52591 0.58281 0.0
H197 H 0.94456 0.53279 0.55054 0.0
H198 H 0.9124 0.65189 0.39646 0.0
H199 H 1.0007 0.63474 0.39468 0.0
H200 H 0.91211 0.5362 0.37979 0.0
H201 H 0.05204 0.60623 0.44828 0.0
H202 H 0.06741 0.6234 0.41831 0.0
H203 H 0.08176 0.57243 0.42975 0.0
H204 H 0.91551 0.47513 0.40396 0.0
H205 H 0.94753 0.47587 0.43413 0.0
H206 H 0.96933 0.45709 0.40625 0.0
H207 H 0.17038 0.29046 0.44514 0.0
H208 H 0.23453 0.2497 0.43903 0.0
H209 H 0.24526 0.30391 0.44384 0.0
H210 H 0.24461 0.28188 0.41245 0.0
H211 H 0.19427 0.40668 0.41636 0.0
H212 H 0.09971 0.31734 0.42932 0.0
H213 H 0.15394 0.48805 0.45195 0.0
H214 H 0.13485 0.49431 0.41918 0.0
H215 H 0.18822 0.4768 0.42751 0.0
H216 H 0.03244 0.33656 0.44063 0.0
H217 H 0.01689 0.38996 0.43679 0.0
H218 H 0.04104 0.37237 0.46683 0.0
H219 H 0.05308 0.52731 0.58398 0.0
H220 H 0.98536 0.58848 0.50825 0.0
H221 H 0.98263 0.57356 0.46368 0.0
H222 H 0.05069 0.47508 0.4126 0.0
H223 H 0.11218 0.40924 0.48879 0.0
H224 H 0.11002 0.42098 0.53347 0.0
H225 H 0.85004 0.67909 0.37005 0.0
H226 H 0.84803 0.6238 0.37298 0.0
H227 H 0.86183 0.6463 0.34381 0.0
Mg228 Mg 0.07858 0.9649 0.29081 0.0
O229 O 0.01567 0.98281 0.2682 0.0
O230 O 0.96634 0.98382 0.29552 0.0
Mg231 Mg 0.99638 0.96416 0.33469 0.0
C232 C 0.97762 0.98874 0.27323 0.0
C233 C 0.14687 0.96281 0.2538 0.0
O234 O 0.15451 0.92938 0.26741 0.0
O235 O 0.0832 0.02895 0.3095 0.0
O236 O 0.03524 0.02404 0.33753 0.0
O237 O 0.06522 0.89756 0.28353 0.0
O238 O 0.04657 0.93223 0.31665 0.0
C239 C 0.06415 0.04397 0.32766 0.0
C240 C 0.04636 0.89807 0.30413 0.0
O241 O 0.11589 0.98558 0.25837 0.0
Mg242 Mg 0.98478 0.03454 0.72715 0.0
O243 O 0.04534 0.01851 0.75236 0.0
O244 O 0.0947 0.99822 0.72773 0.0
Mg245 Mg 0.06531 0.00157 0.6864 0.0
C246 C 0.08268 0.00592 0.74961 0.0
C247 C 0.9201 0.07796 0.75888 0.0
O248 O 0.90065 0.08145 0.7359 0.0
O249 O 0.01494 0.09511 0.71635 0.0
O250 O 0.06141 0.07238 0.69032 0.0
O251 O 0.96296 0.96921 0.72719 0.0
O252 O 1.0015 0.99488 0.69856 0.0
C253 C 0.04333 0.10179 0.70134 0.0
C254 C 0.98294 0.96349 0.70729 0.0
O255 O 0.95693 0.06232 0.76154 0.0
H256 H 0.36023 0.97994 0.16511 0.0
H257 H 0.14183 0.03036 0.22246 0.0
H258 H 0.28251 0.08507 0.14265 0.0
H259 H 0.21669 0.92152 0.24088 0.0
H260 H 0.19129 0.04978 0.19192 0.0
H261 H 0.30631 0.95667 0.19167 0.0
C262 C 0.33142 0.99771 0.16543 0.0
C263 C 0.32541 0.03404 0.15122 0.0
C264 C 0.19676 0.02155 0.20257 0.0
C265 C 0.26397 0.00823 0.18217 0.0
C266 C 0.16853 0.01045 0.22002 0.0
C267 C 0.1752 0.97434 0.23437 0.0
C268 C 0.23199 0.99644 0.1995 0.0
C269 C 0.21031 0.94971 0.23034 0.0
C270 C 0.30073 0.98457 0.18071 0.0
C271 C 0.28801 0.05651 0.15294 0.0
N272 N 0.23742 0.9613 0.2134 0.0
N273 N 0.25877 0.04332 0.16817 0.0
H274 H 0.16774 0.31878 0.64959 0.0
H275 H 0.0075 0.17415 0.71641 0.0
H276 H 0.06014 0.36543 0.68441 0.0
H277 H 0.10667 0.1277 0.67373 0.0
H278 H 0.02727 0.24452 0.70599 0.0
H279 H 0.14642 0.24842 0.65893 0.0
C280 C 0.13926 0.3141 0.65886 0.0
C281 C 0.11514 0.34787 0.66577 0.0
C282 C 0.04466 0.21888 0.69891 0.0
C283 C 0.0911 0.26756 0.67715 0.0
C284 C 0.03348 0.17867 0.70493 0.0
C285 C 0.0554 0.14482 0.69594 0.0
C286 C 0.07812 0.22535 0.6839 0.0
C287 C 0.08874 0.15271 0.68107 0.0
C288 C 0.1272 0.27399 0.66433 0.0
C289 C 0.07916 0.34016 0.67839 0.0
N290 N 0.09906 0.19206 0.67556 0.0
N291 N 0.06824 0.30085 0.6837 0.0
H292 H 0.83296 0.0401 0.12878 0.0
H293 H 0.8982 0.01861 0.27797 0.0
H294 H 0.76586 0.09983 0.18586 0.0
H295 H 0.98361 0.98998 0.22171 0.0
H296 H 0.84591 0.04174 0.24419 0.0
H297 H 0.88519 0.01487 0.16236 0.0
C298 C 0.82925 0.04785 0.14839 0.0
C299 C 0.79509 0.0722 0.15455 0.0
C300 C 0.87609 0.03042 0.23923 0.0
C301 C 0.85441 0.04319 0.193 0.0
C302 C 0.90598 0.01704 0.25851 0.0
C303 C 0.9455 0.00234 0.25272 0.0
C304 C 0.88547 0.02876 0.21387 0.0
C305 C 0.95367 0.00122 0.2271 0.0
C306 C 0.85904 0.03351 0.16751 0.0
C307 C 0.79165 0.08116 0.18026 0.0
N308 N 0.92387 0.01414 0.20861 0.0
N309 N 0.82085 0.06659 0.19853 0.0
H310 H 0.9797 0.77607 0.59081 0.0
H311 H 0.94974 0.8906 0.72219 0.0
H312 H 0.92668 0.71691 0.65319 0.0
H313 H 0.01489 0.94412 0.66254 0.0
H314 H 0.94315 0.8259 0.69806 0.0
H315 H 0.99428 0.83738 0.61735 0.0
C316 C 0.9716 0.77586 0.61022 0.0
C317 C 0.9527 0.74106 0.62 0.0
C318 C 0.95922 0.85168 0.69036 0.0
C319 C 0.96852 0.8115 0.65037 0.0
C320 C 0.96307 0.88863 0.70415 0.0
C321 C 0.98279 0.92289 0.69434 0.0
C322 C 0.97494 0.84908 0.66649 0.0
C323 C 0.99947 0.91854 0.67087 0.0
C324 C 0.97984 0.81089 0.62536 0.0
C325 C 0.94188 0.74286 0.64507 0.0
N326 N 0.99487 0.88245 0.65768 0.0
N327 N 0.94989 0.7775 0.65939 0.0
H328 H 0.30116 0.9532 0.85659 0.0
H329 H 0.07409 0.03254 0.79813 0.0
H330 H 0.22681 0.04197 0.89393 0.0
H331 H 0.16193 0.97116 0.75317 0.0
H332 H 0.12672 0.02964 0.83492 0.0
H333 H 0.2478 0.95343 0.81986 0.0
C334 C 0.27386 0.97311 0.85693 0.0
C335 C 0.26896 0.99853 0.87807 0.0
C336 C 0.13445 0.01675 0.81701 0.0
C337 C 0.2072 0.99794 0.83645 0.0
C338 C 0.10432 0.01819 0.79599 0.0
C339 C 0.11356 0.00218 0.77242 0.0
C340 C 0.17409 0.99884 0.81461 0.0
C341 C 0.15342 0.98407 0.77089 0.0
C342 C 0.24334 0.97309 0.83602 0.0
C343 C 0.23223 0.02264 0.8778 0.0
N344 N 0.18219 0.98287 0.79169 0.0
N345 N 0.20281 0.02178 0.85734 0.0
H346 H 0.1227 0.23497 0.4385 0.0
H347 H 0.12454 0.0977 0.31319 0.0
H348 H 0.19045 0.27148 0.37558 0.0
H349 H 0.034 0.08284 0.3682 0.0
H350 H 0.14953 0.1613 0.33511 0.0
H351 H 0.09013 0.17879 0.41259 0.0
C352 C 0.13047 0.23127 0.41913 0.0
C353 C 0.1595 0.25771 0.40922 0.0
C354 C 0.12392 0.14424 0.34217 0.0
C355 C 0.12276 0.19306 0.37947 0.0
C356 C 0.10965 0.1079 0.3297 0.0
C357 C 0.07734 0.08455 0.33895 0.0
C358 C 0.10601 0.15705 0.36418 0.0
C359 C 0.05917 0.09949 0.36039 0.0
C360 C 0.11187 0.19921 0.40432 0.0
C361 C 0.16842 0.25155 0.38397 0.0
N362 N 0.07401 0.13446 0.37236 0.0
N363 N 0.15045 0.21957 0.37002 0.0
H364 H 0.82176 0.05247 0.90406 0.0
H365 H 0.84352 0.11621 0.76046 0.0
H366 H 0.73579 0.13654 0.86259 0.0
H367 H 0.94382 0.05817 0.80854 0.0
H368 H 0.8026 0.12281 0.79708 0.0
H369 H 0.86571 0.05215 0.86859 0.0
C370 C 0.81197 0.07053 0.88735 0.0
C371 C 0.77449 0.09363 0.88599 0.0
C372 C 0.83372 0.10897 0.79965 0.0
C373 C 0.82488 0.09397 0.84545 0.0
C374 C 0.85713 0.10521 0.77876 0.0
C375 C 0.89711 0.08644 0.78138 0.0
C376 C 0.85017 0.09341 0.82331 0.0
C377 C 0.91315 0.07283 0.80559 0.0
C378 C 0.83717 0.07059 0.8672 0.0
C379 C 0.76384 0.11744 0.86418 0.0
N380 N 0.88946 0.07622 0.82554 0.0
N381 N 0.78871 0.1167 0.84469 0.0
H382 H 0.93132 0.72314 0.39846 0.0
H383 H 0.03459 0.82237 0.28066 0.0
H384 H 0.94239 0.65703 0.32844 0.0
H385 H 0.01175 0.88895 0.34892 0.0
H386 H 0.00314 0.7607 0.29777 0.0
H387 H 0.96383 0.7833 0.38085 0.0
C388 C 0.94111 0.72122 0.37945 0.0
C389 C 0.93481 0.68491 0.36504 0.0
C390 C 0.00489 0.7889 0.30891 0.0
C391 C 0.97139 0.75394 0.34445 0.0
C392 C 0.02275 0.82411 0.29915 0.0
C393 C 0.0256 0.86097 0.31331 0.0
C394 C 0.99003 0.79058 0.33306 0.0
C395 C 0.00992 0.8614 0.3372 0.0
C396 C 0.95946 0.75562 0.36932 0.0
C397 C 0.94732 0.68428 0.3403 0.0
N398 N 0.99296 0.82679 0.34631 0.0
N399 N 0.96507 0.7183 0.33077 0.0
loop_
_geom_bond_atom_site_label_1
_geom_bond_atom_site_label_2
_geom_bond_distance
_geom_bond_site_symmetry_2
_ccdc_geom_bond_type
C0 C1 1.560 . S
C0 H61 0.959 . S
C0 H62 0.959 . S
C0 H63 0.960 . S
C1 C0 1.560 . S
C1 O56 1.426 . S
C1 H60 0.980 . S
C2 C3 1.407 1_545 S
C2 C7 1.418 . S
C2 O56 1.334 . S
C3 C2 1.407 1_565 S
C3 C4 1.360 . S
C3 H64 0.929 . S
C4 C3 1.360 . S
C4 C5 1.401 1_565 S
C4 C8 1.527 . S
C5 C4 1.401 1_545 S
C5 C6 1.405 . S
C5 C38 1.587 1_545 S
C6 C5 1.405 . S
C6 C7 1.332 . S
C6 C9 1.496 . S
C7 C2 1.418 . S
C7 C6 1.332 . S
C7 H65 0.929 . S
C8 C4 1.527 . S
C8 H66 0.959 . S
C8 H67 0.961 . S
C8 H68 0.961 . S
C9 C6 1.496 . S
C9 H69 0.960 . S
C9 H70 0.960 . S
C9 H71 0.961 . S
C10 C11 1.517 . S
C10 H73 0.946 1_565 S
C10 H74 0.960 . S
C10 H75 0.959 . S
C11 C10 1.517 . S
C11 O59 1.468 . S
C11 H72 0.980 1_565 S
C12 C13 1.340 1_565 S
C12 C17 1.367 . S
C12 O59 1.408 . S
C13 C12 1.340 1_545 S
C13 C14 1.409 . S
C13 H76 0.938 . S
C14 C13 1.409 . S
C14 C15 1.449 1_545 S
C14 C18 1.535 . S
C15 C14 1.449 1_565 S
C15 C16 1.384 . S
C15 C40 1.553 . S
C16 C15 1.384 . S
C16 C17 1.364 . S
C16 C19 1.450 . S
C17 C12 1.367 . S
C17 C16 1.364 . S
C17 H77 0.931 . S
C18 C14 1.535 . S
C18 H78 0.959 . S
C18 H79 0.961 . S
C18 H80 0.959 . S
C19 C16 1.450 . S
C19 H81 0.960 . S
C19 H82 0.960 . S
C19 H83 0.960 . S
C20 C21 1.309 1_565 S
C20 C25 1.304 . S
C20 O58 1.435 . S
C21 C20 1.309 1_545 S
C21 C22 1.476 . S
C21 H85 0.930 . S
C22 C21 1.476 . S
C22 C23 1.400 1_545 S
C22 C26 1.567 . S
C23 C22 1.400 1_565 S
C23 C24 1.373 . S
C23 C45 1.432 . S
C24 C23 1.373 . S
C24 C25 1.339 . S
C24 C27 1.530 . S
C25 C20 1.304 . S
C25 C24 1.339 . S
C25 H86 0.930 . S
C26 C22 1.567 . S
C26 H87 0.961 . S
C26 H88 0.960 . S
C26 H89 0.958 . S
C27 C24 1.530 . S
C27 H90 0.961 . S
C27 H91 0.960 . S
C27 H92 0.960 . S
C28 C29 1.530 . S
C28 H94 0.961 . S
C28 H95 0.961 . S
C28 H96 0.959 . S
C29 C28 1.530 . S
C29 O57 1.412 . S
C29 H93 0.980 . S
C30 C31 1.288 . S
C30 C35 1.377 1_545 S
C30 O57 1.393 . S
C31 C30 1.288 . S
C31 C32 1.369 . S
C31 H97 0.932 . S
C32 C31 1.369 . S
C32 C33 1.398 . S
C32 C36 1.527 . S
C33 C32 1.398 . S
C33 C34 1.380 1_545 S
C33 C47 1.497 . S
C34 C33 1.380 1_565 S
C34 C35 1.383 . S
C34 C37 1.603 . S
C35 C30 1.377 1_565 S
C35 C34 1.383 . S
C35 H98 0.929 . S
C36 C32 1.527 . S
C36 H99 0.961 . S
C36 H100 0.959 . S
C36 H101 0.959 . S
C37 C34 1.603 . S
C37 H102 0.960 . S
C37 H103 0.962 . S
C37 H104 0.961 . S
C38 C5 1.587 1_565 S
C38 C39 1.360 . S
C38 C51 1.412 . S
C39 C38 1.360 . S
C39 C40 1.365 . S
C39 H105 0.929 . S
C40 C15 1.553 . S
C40 C39 1.365 . S
C40 C41 1.404 . S
C41 C40 1.404 . S
C41 C42 1.395 . S
C41 C52 1.451 . S
C42 C41 1.395 . S
C42 C43 1.322 1_554 S
C42 H106 0.930 . S
C43 C42 1.322 1_556 S
C43 C44 1.459 . S
C43 H107 0.929 . S
C44 C43 1.459 . S
C44 C45 1.445 . S
C44 C53 1.395 . S
C45 C23 1.432 . S
C45 C44 1.445 . S
C45 C46 1.370 . S
C46 C45 1.370 . S
C46 C47 1.438 1_565 S
C46 H108 0.930 . S
C47 C33 1.497 . S
C47 C46 1.438 1_545 S
C47 C48 1.360 1_545 S
C48 C47 1.360 1_565 S
C48 C49 1.401 1_565 S
C48 C53 1.446 . S
C49 C48 1.401 1_545 S
C49 C50 1.347 1_556 S
C49 H109 0.929 . S
C50 C49 1.347 1_554 S
C50 C51 1.455 1_545 S
C50 H110 0.930 . S
C51 C38 1.412 . S
C51 C50 1.455 1_565 S
C51 C52 1.331 . S
C52 C41 1.451 . S
C52 C51 1.331 . S
C52 C53 1.497 1_554 S
C53 C44 1.395 . S
C53 C48 1.446 . S
C53 C52 1.497 1_556 S
C54 C55 1.578 1_565 S
C54 H111 0.962 . S
C54 H112 0.959 . S
C54 H113 0.958 . S
C55 C54 1.578 1_545 S
C55 O58 1.453 1_545 S
C55 H84 0.982 . S
O56 C1 1.426 . S
O56 C2 1.334 . S
O57 C29 1.412 . S
O57 C30 1.393 . S
O58 C20 1.435 . S
O58 C55 1.453 1_565 S
O59 C11 1.468 . S
O59 C12 1.408 . S
H60 C1 0.980 . S
H61 C0 0.959 . S
H62 C0 0.959 . S
H63 C0 0.960 . S
H64 C3 0.929 . S
H65 C7 0.929 . S
H66 C8 0.959 . S
H67 C8 0.961 . S
H68 C8 0.961 . S
H69 C9 0.960 . S
H70 C9 0.960 . S
H71 C9 0.961 . S
H72 C11 0.980 1_545 S
H73 C10 0.946 1_545 S
H74 C10 0.960 . S
H75 C10 0.959 . S
H76 C13 0.938 . S
H77 C17 0.931 . S
H78 C18 0.959 . S
H79 C18 0.961 . S
H80 C18 0.959 . S
H81 C19 0.960 . S
H82 C19 0.960 . S
H83 C19 0.960 . S
H84 C55 0.982 . S
H85 C21 0.930 . S
H86 C25 0.930 . S
H87 C26 0.961 . S
H88 C26 0.960 . S
H89 C26 0.958 . S
H90 C27 0.961 . S
H91 C27 0.960 . S
H92 C27 0.960 . S
H93 C29 0.980 . S
H94 C28 0.961 . S
H95 C28 0.961 . S
H96 C28 0.959 . S
H97 C31 0.932 . S
H98 C35 0.929 . S
H99 C36 0.961 . S
H100 C36 0.959 . S
H101 C36 0.959 . S
H102 C37 0.960 . S
H103 C37 0.962 . S
H104 C37 0.961 . S
H105 C39 0.929 . S
H106 C42 0.930 . S
H107 C43 0.929 . S
H108 C46 0.930 . S
H109 C49 0.929 . S
H110 C50 0.930 . S
H111 C54 0.962 . S
H112 C54 0.959 . S
H113 C54 0.958 . S
C114 C115 1.560 . S
C114 H175 0.959 . S
C114 H176 0.959 . S
C114 H177 0.960 . S
C115 C114 1.560 . S
C115 O170 1.426 . S
C115 H174 0.980 . S
C116 C117 1.407 . S
C116 C121 1.418 . S
C116 O170 1.334 . S
C117 C116 1.407 . S
C117 C118 1.360 . S
C117 H178 0.929 1_455 S
C118 C117 1.360 . S
C118 C119 1.401 . S
C118 C122 1.527 1_455 S
C119 C118 1.401 . S
C119 C120 1.405 . S
C119 C152 1.587 . S
C120 C119 1.405 . S
C120 C121 1.332 . S
C120 C123 1.496 . S
C121 C116 1.418 . S
C121 C120 1.332 . S
C121 H179 0.929 . S
C122 C118 1.527 1_655 S
C122 H180 0.959 . S
C122 H181 0.961 . S
C122 H182 0.961 . S
C123 C120 1.496 . S
C123 H183 0.960 . S
C123 H184 0.960 . S
C123 H185 0.961 . S
C124 C125 1.517 1_655 S
C124 H187 0.961 1_655 S
C124 H188 0.960 . S
C124 H189 0.959 . S
C125 C124 1.517 1_455 S
C125 O173 1.468 1_455 S
C125 H186 0.980 . S
C126 C127 1.349 1_655 S
C126 C131 1.367 . S
C126 O173 1.408 . S
C127 C126 1.349 1_455 S
C127 C128 1.407 . S
C127 H190 0.930 . S
C128 C127 1.407 . S
C128 C129 1.449 1_455 S
C128 C132 1.535 . S
C129 C128 1.449 1_655 S
C129 C130 1.384 . S
C129 C154 1.553 1_655 S
C130 C129 1.384 . S
C130 C131 1.364 . S
C130 C133 1.450 . S
C131 C126 1.367 . S
C131 C130 1.364 . S
C131 H191 0.931 . S
C132 C128 1.535 . S
C132 H192 0.959 . S
C132 H193 0.961 . S
C132 H194 0.959 . S
C133 C130 1.450 . S
C133 H195 0.960 . S
C133 H196 0.960 . S
C133 H197 0.960 . S
C134 C135 1.309 . S
C134 C139 1.304 1_455 S
C134 O172 1.435 . S
C135 C134 1.309 . S
C135 C136 1.476 . S
C135 H199 0.930 . S
C136 C135 1.476 . S
C136 C137 1.400 . S
C136 C140 1.567 . S
C137 C136 1.400 . S
C137 C138 1.373 1_455 S
C137 C159 1.432 . S
C138 C137 1.373 1_655 S
C138 C139 1.339 . S
C138 C141 1.530 . S
C139 C134 1.304 1_655 S
C139 C138 1.339 . S
C139 H200 0.930 . S
C140 C136 1.567 . S
C140 H201 0.961 . S
C140 H202 0.960 . S
C140 H203 0.958 . S
C141 C138 1.530 . S
C141 H204 0.961 . S
C141 H205 0.960 . S
C141 H206 0.960 . S
C142 C143 1.530 . S
C142 H208 0.961 . S
C142 H209 0.961 . S
C142 H210 0.959 . S
C143 C142 1.530 . S
C143 O171 1.412 . S
C143 H207 0.980 . S
C144 C145 1.288 . S
C144 C149 1.377 . S
C144 O171 1.393 . S
C145 C144 1.288 . S
C145 C146 1.369 . S
C145 H211 0.932 . S
C146 C145 1.369 . S
C146 C147 1.398 . S
C146 C150 1.527 . S
C147 C146 1.398 . S
C147 C148 1.380 . S
C147 C161 1.497 . S
C148 C147 1.380 . S
C148 C149 1.383 . S
C148 C151 1.603 1_455 S
C149 C144 1.377 . S
C149 C148 1.383 . S
C149 H212 0.929 . S
C150 C146 1.527 . S
C150 H213 0.961 . S
C150 H214 0.959 . S
C150 H215 0.959 . S
C151 C148 1.603 1_655 S
C151 H216 0.960 . S
C151 H217 0.962 . S
C151 H218 0.961 . S
C152 C119 1.587 . S
C152 C153 1.360 . S
C152 C165 1.412 . S
C153 C152 1.360 . S
C153 C154 1.365 . S
C153 H219 0.929 . S
C154 C129 1.553 1_455 S
C154 C153 1.365 . S
C154 C155 1.404 . S
C155 C154 1.404 . S
C155 C156 1.395 . S
C155 C166 1.451 . S
C156 C155 1.395 . S
C156 C157 1.322 . S
C156 H220 0.930 . S
C157 C156 1.322 . S
C157 C158 1.459 . S
C157 H221 0.929 . S
C158 C157 1.459 . S
C158 C159 1.445 . S
C158 C167 1.395 . S
C159 C137 1.432 . S
C159 C158 1.445 . S
C159 C160 1.370 . S
C160 C159 1.370 . S
C160 C161 1.438 . S
C160 H222 0.930 . S
C161 C147 1.497 . S
C161 C160 1.438 . S
C161 C162 1.360 . S
C162 C161 1.360 . S
C162 C163 1.401 . S
C162 C167 1.446 . S
C163 C162 1.401 . S
C163 C164 1.347 . S
C163 H223 0.929 . S
C164 C163 1.347 . S
C164 C165 1.455 . S
C164 H224 0.930 . S
C165 C152 1.412 . S
C165 C164 1.455 . S
C165 C166 1.331 . S
C166 C155 1.451 . S
C166 C165 1.331 . S
C166 C167 1.497 . S
C167 C158 1.395 . S
C167 C162 1.446 . S
C167 C166 1.497 . S
C168 C169 1.582 . S
C168 H225 0.962 . S
C168 H226 0.959 . S
C168 H227 0.958 . S
C169 C168 1.582 . S
C169 O172 1.458 . S
C169 H198 0.980 . S
O170 C115 1.426 . S
O170 C116 1.334 . S
O171 C143 1.412 . S
O171 C144 1.393 . S
O172 C134 1.435 . S
O172 C169 1.458 . S
O173 C125 1.468 1_655 S
O173 C126 1.408 . S
H174 C115 0.980 . S
H175 C114 0.959 . S
H176 C114 0.959 . S
H177 C114 0.960 . S
H178 C117 0.929 1_655 S
H179 C121 0.929 . S
H180 C122 0.959 . S
H181 C122 0.961 . S
H182 C122 0.961 . S
H183 C123 0.960 . S
H184 C123 0.960 . S
H185 C123 0.961 . S
H186 C125 0.980 . S
H187 C124 0.961 1_455 S
H188 C124 0.960 . S
H189 C124 0.959 . S
H190 C127 0.930 . S
H191 C131 0.931 . S
H192 C132 0.959 . S
H193 C132 0.961 . S
H194 C132 0.959 . S
H195 C133 0.960 . S
H196 C133 0.960 . S
H197 C133 0.960 . S
H198 C169 0.980 . S
H199 C135 0.930 . S
H200 C139 0.930 . S
H201 C140 0.961 . S
H202 C140 0.960 . S
H203 C140 0.958 . S
H204 C141 0.961 . S
H205 C141 0.960 . S
H206 C141 0.960 . S
H207 C143 0.980 . S
H208 C142 0.961 . S
H209 C142 0.961 . S
H210 C142 0.959 . S
H211 C145 0.932 . S
H212 C149 0.929 . S
H213 C150 0.961 . S
H214 C150 0.959 . S
H215 C150 0.959 . S
H216 C151 0.960 . S
H217 C151 0.962 . S
H218 C151 0.961 . S
H219 C153 0.929 . S
H220 C156 0.930 . S
H221 C157 0.929 . S
H222 C160 0.930 . S
H223 C163 0.929 . S
H224 C164 0.930 . S
H225 C168 0.962 . S
H226 C168 0.959 . S
H227 C168 0.958 . S
Mg228 O229 2.028 . S
Mg228 O235 1.986 . S
Mg228 O237 2.114 1_545 S
Mg228 O238 2.251 1_545 S
Mg228 O241 2.010 . S
O229 Mg228 2.028 . S
O229 C232 1.250 . S
O230 Mg231 2.028 . S
O230 C232 1.248 1_655 S
Mg231 O230 2.028 . S
Mg231 O236 2.032 1_655 S
Mg231 O238 2.079 1_645 S
C232 O229 1.250 . S
C232 O230 1.248 1_455 S
C233 O234 1.264 . S
C233 O241 1.249 . S
O234 C233 1.264 . S
O235 Mg228 1.986 . S
O235 C239 1.246 . S
O236 Mg231 2.032 1_455 S
O236 C239 1.259 . S
O237 Mg228 2.114 1_565 S
O237 C240 1.252 . S
O238 Mg228 2.251 1_565 S
O238 Mg231 2.079 1_465 S
O238 C240 1.273 . S
C239 O235 1.246 . S
C239 O236 1.259 . S
C240 O237 1.252 . S
C240 O238 1.273 . S
O241 Mg228 2.010 . S
O241 C233 1.249 . S
Mg242 O243 2.028 1_655 S
Mg242 O249 1.986 . S
Mg242 O251 2.114 1_545 S
Mg242 O252 2.251 1_645 S
Mg242 O255 2.010 . S
O243 Mg242 2.028 1_455 S
O243 C246 1.250 . S
O244 Mg245 2.028 . S
O244 C246 1.248 . S
Mg245 O244 2.028 . S
Mg245 O250 2.032 . S
Mg245 O252 2.079 1_545 S
C246 O243 1.250 . S
C246 O244 1.248 . S
C247 O248 1.264 . S
C247 O255 1.249 . S
O248 C247 1.264 . S
O249 Mg242 1.986 . S
O249 C253 1.246 1_655 S
O250 Mg245 2.032 . S
O250 C253 1.259 . S
O251 Mg242 2.114 1_565 S
O251 C254 1.252 1_655 S
O252 Mg242 2.251 1_465 S
O252 Mg245 2.079 1_565 S
O252 C254 1.273 . S
C253 O249 1.246 1_455 S
C253 O250 1.259 . S
C254 O251 1.252 1_455 S
C254 O252 1.273 . S
O255 Mg242 2.010 . S
O255 C247 1.249 . S
H256 C262 0.930 . S
H257 C266 0.930 . S
H258 C271 0.929 . S
H259 C269 0.929 . S
H260 C264 0.929 . S
H261 C270 0.929 . S
C262 H256 0.930 . S
C262 C263 1.367 1_565 S
C262 C270 1.378 . S
C263 C262 1.367 1_545 S
C263 C271 1.433 . S
C264 H260 0.929 . S
C264 C266 1.378 . S
C264 C268 1.350 . S
C265 C268 1.463 . S
C265 C270 1.350 1_545 S
C265 N273 1.427 . S
C266 H257 0.930 . S
C266 C264 1.378 . S
C266 C267 1.367 . S
C267 C266 1.367 . S
C267 C269 1.433 1_545 S
C268 C264 1.350 . S
C268 C265 1.463 . S
C268 N272 1.427 1_545 S
C269 H259 0.929 . S
C269 C267 1.433 1_565 S
C269 N272 1.384 . S
C270 H261 0.929 . S
C270 C262 1.378 . S
C270 C265 1.350 1_565 S
C271 H258 0.929 . S
C271 C263 1.433 . S
C271 N273 1.384 . S
N272 C268 1.427 1_565 S
N272 C269 1.384 . S
N273 C265 1.427 . S
N273 C271 1.384 . S
H274 C280 0.930 . S
H275 C284 0.930 . S
H276 C289 0.929 1_655 S
H277 C287 0.929 . S
H278 C282 0.929 . S
H279 C288 0.929 . S
C280 H274 0.930 . S
C280 C281 1.367 . S
C280 C288 1.378 . S
C281 C280 1.367 . S
C281 C289 1.433 . S
C282 H278 0.929 . S
C282 C284 1.378 . S
C282 C286 1.350 1_655 S
C283 C286 1.463 . S
C283 C288 1.350 . S
C283 N291 1.427 . S
C284 H275 0.930 . S
C284 C282 1.378 . S
C284 C285 1.367 1_655 S
C285 C284 1.367 1_455 S
C285 C287 1.433 . S
C286 C282 1.350 1_455 S
C286 C283 1.463 . S
C286 N290 1.427 . S
C287 H277 0.929 . S
C287 C285 1.433 . S
C287 N290 1.384 . S
C288 H279 0.929 . S
C288 C280 1.378 . S
C288 C283 1.350 . S
C289 H276 0.929 1_455 S
C289 C281 1.433 . S
C289 N291 1.384 . S
N290 C286 1.427 . S
N290 C287 1.384 . S
N291 C283 1.427 . S
N291 C289 1.384 . S
H292 C298 0.930 . S
H293 C302 0.930 . S
H294 C307 0.929 . S
H295 C305 0.929 1_455 S
H296 C300 0.929 . S
H297 C306 0.929 . S
C298 H292 0.930 . S
C298 C299 1.367 . S
C298 C306 1.378 . S
C299 C298 1.367 . S
C299 C307 1.433 . S
C300 H296 0.929 . S
C300 C302 1.378 . S
C300 C304 1.350 . S
C301 C304 1.463 . S
C301 C306 1.350 . S
C301 N309 1.427 . S
C302 H293 0.930 . S
C302 C300 1.378 . S
C302 C303 1.367 . S
C303 C302 1.367 . S
C303 C305 1.433 . S
C304 C300 1.350 . S
C304 C301 1.463 . S
C304 N308 1.427 . S
C305 H295 0.929 1_655 S
C305 C303 1.433 . S
C305 N308 1.384 . S
C306 H297 0.929 . S
C306 C298 1.378 . S
C306 C301 1.350 . S
C307 H294 0.929 . S
C307 C299 1.433 . S
C307 N309 1.384 . S
N308 C304 1.427 . S
N308 C305 1.384 . S
N309 C301 1.427 . S
N309 C307 1.384 . S
H310 C316 0.930 . S
H311 C320 0.930 . S
H312 C325 0.929 . S
H313 C323 0.929 . S
H314 C318 0.929 . S
H315 C324 0.929 . S
C316 H310 0.930 . S
C316 C317 1.367 1_655 S
C316 C324 1.378 . S
C317 C316 1.367 1_455 S
C317 C325 1.433 . S
C318 H314 0.929 . S
C318 C320 1.378 . S
C318 C322 1.350 . S
C319 C322 1.463 . S
C319 C324 1.350 1_455 S
C319 N327 1.427 . S
C320 H311 0.930 . S
C320 C318 1.378 . S
C320 C321 1.367 . S
C321 C320 1.367 . S
C321 C323 1.433 1_455 S
C322 C318 1.350 . S
C322 C319 1.463 . S
C322 N326 1.427 1_455 S
C323 H313 0.929 . S
C323 C321 1.433 1_655 S
C323 N326 1.384 . S
C324 H315 0.929 . S
C324 C316 1.378 . S
C324 C319 1.350 1_655 S
C325 H312 0.929 . S
C325 C317 1.433 . S
C325 N327 1.384 . S
N326 C322 1.427 1_655 S
N326 C323 1.384 . S
N327 C319 1.427 . S
N327 C325 1.384 . S
H328 C334 0.930 . S
H329 C338 0.930 . S
H330 C343 0.929 . S
H331 C341 0.929 . S
H332 C336 0.929 . S
H333 C342 0.929 . S
C334 H328 0.930 . S
C334 C335 1.367 . S
C334 C342 1.378 . S
C335 C334 1.367 . S
C335 C343 1.433 . S
C336 H332 0.929 . S
C336 C338 1.378 . S
C336 C340 1.350 . S
C337 C340 1.463 . S
C337 C342 1.350 . S
C337 N345 1.427 . S
C338 H329 0.930 . S
C338 C336 1.378 . S
C338 C339 1.367 . S
C339 C338 1.367 . S
C339 C341 1.433 . S
C340 C336 1.350 . S
C340 C337 1.463 . S
C340 N344 1.427 . S
C341 H331 0.929 . S
C341 C339 1.433 . S
C341 N344 1.384 . S
C342 H333 0.929 . S
C342 C334 1.378 . S
C342 C337 1.350 . S
C343 H330 0.929 . S
C343 C335 1.433 . S
C343 N345 1.384 . S
N344 C340 1.427 . S
N344 C341 1.384 . S
N345 C337 1.427 . S
N345 C343 1.384 . S
H346 C352 0.930 . S
H347 C356 0.930 . S
H348 C361 0.929 . S
H349 C359 0.929 . S
H350 C354 0.929 . S
H351 C360 0.929 . S
C352 H346 0.930 . S
C352 C353 1.367 . S
C352 C360 1.378 . S
C353 C352 1.367 . S
C353 C361 1.433 . S
C354 H350 0.929 . S
C354 C356 1.378 . S
C354 C358 1.350 . S
C355 C358 1.463 . S
C355 C360 1.350 . S
C355 N363 1.427 . S
C356 H347 0.930 . S
C356 C354 1.378 . S
C356 C357 1.367 . S
C357 C356 1.367 . S
C357 C359 1.433 . S
C358 C354 1.350 . S
C358 C355 1.463 . S
C358 N362 1.427 . S
C359 H349 0.929 . S
C359 C357 1.433 . S
C359 N362 1.384 . S
C360 H351 0.929 . S
C360 C352 1.378 . S
C360 C355 1.350 . S
C361 H348 0.929 . S
C361 C353 1.433 . S
C361 N363 1.384 . S
N362 C358 1.427 . S
N362 C359 1.384 . S
N363 C355 1.427 . S
N363 C361 1.384 . S
H364 C370 0.930 . S
H365 C374 0.930 . S
H366 C379 0.929 . S
H367 C377 0.929 . S
H368 C372 0.929 . S
H369 C378 0.929 . S
C370 H364 0.930 . S
C370 C371 1.367 . S
C370 C378 1.378 . S
C371 C370 1.367 . S
C371 C379 1.433 1_545 S
C372 H368 0.929 . S
C372 C374 1.378 . S
C372 C376 1.350 1_565 S
C373 C376 1.463 . S
C373 C378 1.350 . S
C373 N381 1.427 1_545 S
C374 H365 0.930 . S
C374 C372 1.378 . S
C374 C375 1.367 1_565 S
C375 C374 1.367 1_545 S
C375 C377 1.433 . S
C376 C372 1.350 1_545 S
C376 C373 1.463 . S
C376 N380 1.427 . S
C377 H367 0.929 . S
C377 C375 1.433 . S
C377 N380 1.384 . S
C378 H369 0.929 . S
C378 C370 1.378 . S
C378 C373 1.350 . S
C379 H366 0.929 . S
C379 C371 1.433 1_565 S
C379 N381 1.384 . S
N380 C376 1.427 . S
N380 C377 1.384 . S
N381 C373 1.427 1_565 S
N381 C379 1.384 . S
H382 C388 0.930 . S
H383 C392 0.930 . S
H384 C397 0.929 . S
H385 C395 0.929 . S
H386 C390 0.929 . S
H387 C396 0.929 . S
C388 H382 0.930 . S
C388 C389 1.367 . S
C388 C396 1.378 . S
C389 C388 1.367 . S
C389 C397 1.433 . S
C390 H386 0.929 . S
C390 C392 1.378 . S
C390 C394 1.350 . S
C391 C394 1.463 . S
C391 C396 1.350 . S
C391 N399 1.427 . S
C392 H383 0.930 . S
C392 C390 1.378 . S
C392 C393 1.367 . S
C393 C392 1.367 . S
C393 C395 1.433 . S
C394 C390 1.350 . S
C394 C391 1.463 . S
C394 N398 1.427 . S
C395 H385 0.929 . S
C395 C393 1.433 . S
C395 N398 1.384 . S
C396 H387 0.929 . S
C396 C388 1.378 . S
C396 C391 1.350 . S
C397 H384 0.929 . S
C397 C389 1.433 . S
C397 N399 1.384 . S
N398 C394 1.427 . S
N398 C395 1.384 . S
N399 C391 1.427 . S
N399 C397 1.384 . S
C267 C233 1.277 . S
C263 C11 0.938 1_545 S
C285 C253 1.320 . S
C281 C115 1.090 . S
C303 C232 1.309 1_655 S
C299 C1 1.089 . S
C321 C254 1.499 . S
C317 C125 0.924 . S
C339 C246 1.556 . S
C335 C55 1.187 . S
C357 C239 1.408 . S
C353 C143 1.120 . S
C375 C247 1.193 . S
C371 C29 1.098 . S
C389 C169 1.143 . S
C393 C240 1.588 . S
