# Generated by pormake.
# Topology ctn, (3,4)-cn, num edge types: 1
# Building blocks:
#     Node 0, Type 0, BuildingBlock: QEWDON_clean_linker_0, # of connection points: 3
#     Node 1, Type 0, BuildingBlock: QEWDON_clean_linker_0, # of connection points: 3
#     Node 2, Type 0, BuildingBlock: QEWDON_clean_linker_0, # of connection points: 3
#     Node 3, Type 0, BuildingBlock: QEWDON_clean_linker_0, # of connection points: 3
#     Node 4, Type 0, BuildingBlock: QEWDON_clean_linker_0, # of connection points: 3
#     Node 5, Type 0, BuildingBlock: QEWDON_clean_linker_0, # of connection points: 3
#     Node 6, Type 0, BuildingBlock: QEWDON_clean_linker_0, # of connection points: 3
#     Node 7, Type 0, BuildingBlock: QEWDON_clean_linker_0, # of connection points: 3
#     Node 8, Type 0, BuildingBlock: QEWDON_clean_linker_0, # of connection points: 3
#     Node 9, Type 0, BuildingBlock: QEWDON_clean_linker_0, # of connection points: 3
#     Node 10, Type 0, BuildingBlock: QEWDON_clean_linker_0, # of connection points: 3
#     Node 11, Type 0, BuildingBlock: QEWDON_clean_linker_0, # of connection points: 3
#     Node 12, Type 0, BuildingBlock: QEWDON_clean_linker_0, # of connection points: 3
#     Node 13, Type 0, BuildingBlock: QEWDON_clean_linker_0, # of connection points: 3
#     Node 14, Type 0, BuildingBlock: QEWDON_clean_linker_0, # of connection points: 3
#     Node 15, Type 0, BuildingBlock: QEWDON_clean_linker_0, # of connection points: 3
#     Node 16, Type 1, BuildingBlock: NAHDIM_clean_sbu_0, # of connection points: 4
#     Node 17, Type 1, BuildingBlock: NAHDIM_clean_sbu_0, # of connection points: 4
#     Node 18, Type 1, BuildingBlock: NAHDIM_clean_sbu_0, # of connection points: 4
#     Node 19, Type 1, BuildingBlock: NAHDIM_clean_sbu_0, # of connection points: 4
#     Node 20, Type 1, BuildingBlock: NAHDIM_clean_sbu_0, # of connection points: 4
#     Node 21, Type 1, BuildingBlock: NAHDIM_clean_sbu_0, # of connection points: 4
#     Node 22, Type 1, BuildingBlock: NAHDIM_clean_sbu_0, # of connection points: 4
#     Node 23, Type 1, BuildingBlock: NAHDIM_clean_sbu_0, # of connection points: 4
#     Node 24, Type 1, BuildingBlock: NAHDIM_clean_sbu_0, # of connection points: 4
#     Node 25, Type 1, BuildingBlock: NAHDIM_clean_sbu_0, # of connection points: 4
#     Node 26, Type 1, BuildingBlock: NAHDIM_clean_sbu_0, # of connection points: 4
#     Node 27, Type 1, BuildingBlock: NAHDIM_clean_sbu_0, # of connection points: 4
#     Edge 28, Type (0, 1), BuildingBlock: ZUJKAS_clean_linker_0, # of connection points: 2
#     Edge 29, Type (0, 1), BuildingBlock: ZUJKAS_clean_linker_0, # of connection points: 2
#     Edge 30, Type (0, 1), BuildingBlock: ZUJKAS_clean_linker_0, # of connection points: 2
#     Edge 31, Type (0, 1), BuildingBlock: ZUJKAS_clean_linker_0, # of connection points: 2
#     Edge 32, Type (0, 1), BuildingBlock: ZUJKAS_clean_linker_0, # of connection points: 2
#     Edge 33, Type (0, 1), BuildingBlock: ZUJKAS_clean_linker_0, # of connection points: 2
#     Edge 34, Type (0, 1), BuildingBlock: ZUJKAS_clean_linker_0, # of connection points: 2
#     Edge 35, Type (0, 1), BuildingBlock: ZUJKAS_clean_linker_0, # of connection points: 2
#     Edge 36, Type (0, 1), BuildingBlock: ZUJKAS_clean_linker_0, # of connection points: 2
#     Edge 37, Type (0, 1), BuildingBlock: ZUJKAS_clean_linker_0, # of connection points: 2
#     Edge 38, Type (0, 1), BuildingBlock: ZUJKAS_clean_linker_0, # of connection points: 2
#     Edge 39, Type (0, 1), BuildingBlock: ZUJKAS_clean_linker_0, # of connection points: 2
#     Edge 40, Type (0, 1), BuildingBlock: ZUJKAS_clean_linker_0, # of connection points: 2
#     Edge 41, Type (0, 1), BuildingBlock: ZUJKAS_clean_linker_0, # of connection points: 2
#     Edge 42, Type (0, 1), BuildingBlock: ZUJKAS_clean_linker_0, # of connection points: 2
#     Edge 43, Type (0, 1), BuildingBlock: ZUJKAS_clean_linker_0, # of connection points: 2
#     Edge 44, Type (0, 1), BuildingBlock: ZUJKAS_clean_linker_0, # of connection points: 2
#     Edge 45, Type (0, 1), BuildingBlock: ZUJKAS_clean_linker_0, # of connection points: 2
#     Edge 46, Type (0, 1), BuildingBlock: ZUJKAS_clean_linker_0, # of connection points: 2
#     Edge 47, Type (0, 1), BuildingBlock: ZUJKAS_clean_linker_0, # of connection points: 2
#     Edge 48, Type (0, 1), BuildingBlock: ZUJKAS_clean_linker_0, # of connection points: 2
#     Edge 49, Type (0, 1), BuildingBlock: ZUJKAS_clean_linker_0, # of connection points: 2
#     Edge 50, Type (0, 1), BuildingBlock: ZUJKAS_clean_linker_0, # of connection points: 2
#     Edge 51, Type (0, 1), BuildingBlock: ZUJKAS_clean_linker_0, # of connection points: 2
#     Edge 52, Type (0, 1), BuildingBlock: ZUJKAS_clean_linker_0, # of connection points: 2
#     Edge 53, Type (0, 1), BuildingBlock: ZUJKAS_clean_linker_0, # of connection points: 2
#     Edge 54, Type (0, 1), BuildingBlock: ZUJKAS_clean_linker_0, # of connection points: 2
#     Edge 55, Type (0, 1), BuildingBlock: ZUJKAS_clean_linker_0, # of connection points: 2
#     Edge 56, Type (0, 1), BuildingBlock: ZUJKAS_clean_linker_0, # of connection points: 2
#     Edge 57, Type (0, 1), BuildingBlock: ZUJKAS_clean_linker_0, # of connection points: 2
#     Edge 58, Type (0, 1), BuildingBlock: ZUJKAS_clean_linker_0, # of connection points: 2
#     Edge 59, Type (0, 1), BuildingBlock: ZUJKAS_clean_linker_0, # of connection points: 2
#     Edge 60, Type (0, 1), BuildingBlock: ZUJKAS_clean_linker_0, # of connection points: 2
#     Edge 61, Type (0, 1), BuildingBlock: ZUJKAS_clean_linker_0, # of connection points: 2
#     Edge 62, Type (0, 1), BuildingBlock: ZUJKAS_clean_linker_0, # of connection points: 2
#     Edge 63, Type (0, 1), BuildingBlock: ZUJKAS_clean_linker_0, # of connection points: 2
#     Edge 64, Type (0, 1), BuildingBlock: ZUJKAS_clean_linker_0, # of connection points: 2
#     Edge 65, Type (0, 1), BuildingBlock: ZUJKAS_clean_linker_0, # of connection points: 2
#     Edge 66, Type (0, 1), BuildingBlock: ZUJKAS_clean_linker_0, # of connection points: 2
#     Edge 67, Type (0, 1), BuildingBlock: ZUJKAS_clean_linker_0, # of connection points: 2
#     Edge 68, Type (0, 1), BuildingBlock: ZUJKAS_clean_linker_0, # of connection points: 2
#     Edge 69, Type (0, 1), BuildingBlock: ZUJKAS_clean_linker_0, # of connection points: 2
#     Edge 70, Type (0, 1), BuildingBlock: ZUJKAS_clean_linker_0, # of connection points: 2
#     Edge 71, Type (0, 1), BuildingBlock: ZUJKAS_clean_linker_0, # of connection points: 2
#     Edge 72, Type (0, 1), BuildingBlock: ZUJKAS_clean_linker_0, # of connection points: 2
#     Edge 73, Type (0, 1), BuildingBlock: ZUJKAS_clean_linker_0, # of connection points: 2
#     Edge 74, Type (0, 1), BuildingBlock: ZUJKAS_clean_linker_0, # of connection points: 2
#     Edge 75, Type (0, 1), BuildingBlock: ZUJKAS_clean_linker_0, # of connection points: 2
# Relax obj value: 0.113
# Max RMSD: 0.276
# Mean RMSD: 0.159
data_MOF--net-ctn--node1-NAHDIM_clean_sbu_0--node2-QEWDON_clean_linker_0--edge1-ZUJKAS_clean_linker_0
_symmetry_space_group_name_H-M    P1
_symmetry_Int_Tables_number       1
_symmetry_cell_setting            triclinic
loop_
_symmetry_equiv_pos_as_xyz
'x, y, z'
_cell_length_a     68.592009
_cell_length_b     71.635692
_cell_length_c     75.550576
_cell_angle_alpha  99.156803
_cell_angle_beta   91.986904
_cell_angle_gamma 97.492363
loop_
_atom_site_label
_atom_site_type_symbol
_atom_site_fract_x
_atom_site_fract_y
_atom_site_fract_z
_atom_type_partial_charge
H0 H 0.09217 0.04575 0.05486 0.0
C1 C 0.08264 0.04252 0.06544 0.0
C2 C 0.08232 0.025 0.07173 0.0
C3 C 0.07135 0.05631 0.0733 0.0
H4 H 0.06994 0.00799 0.09089 0.0
C5 C 0.07008 0.02127 0.08572 0.0
C6 C 0.05845 0.03483 0.09349 0.0
C7 C 0.05919 0.05229 0.08716 0.0
C8 C 0.07382 0.07571 0.06851 0.0
H9 H 0.0508 0.0631 0.09347 0.0
C10 C 0.07051 0.07866 0.05071 0.0
C11 C 0.07301 0.09732 0.04656 0.0
C12 C 0.07969 0.09149 0.08205 0.0
H13 H 0.08242 0.08953 0.09581 0.0
C14 C 0.08235 0.10992 0.07798 0.0
H15 H 0.06591 0.06654 0.04021 0.0
C16 C 0.07904 0.11285 0.06039 0.0
H17 H 0.08083 0.12735 0.05766 0.0
H18 H 0.0869 0.12199 0.08851 0.0
H19 H 0.33359 0.7425 0.24418 0.0
C20 C 0.32293 0.72966 0.24197 0.0
C21 C 0.32764 0.71294 0.24762 0.0
C22 C 0.30429 0.73018 0.23393 0.0
H23 H 0.31665 0.68381 0.24968 0.0
C24 C 0.31336 0.69664 0.24499 0.0
C25 C 0.29451 0.69699 0.23719 0.0
C26 C 0.2902 0.71379 0.23139 0.0
C27 C 0.29868 0.74869 0.23093 0.0
H28 H 0.27553 0.71453 0.22596 0.0
C29 C 0.29702 0.75338 0.21358 0.0
C30 C 0.2926 0.77159 0.2113 0.0
C31 C 0.29552 0.76204 0.24589 0.0
H32 H 0.29676 0.75863 0.25932 0.0
C33 C 0.2907 0.77985 0.24367 0.0
H34 H 0.29975 0.74316 0.20204 0.0
C35 C 0.28928 0.78464 0.22654 0.0
H36 H 0.28548 0.79858 0.22521 0.0
H37 H 0.28816 0.79004 0.25528 0.0
H38 H 0.03196 0.47417 0.03531 0.0
C39 C 0.02038 0.4829 0.03403 0.0
C40 C 0.01279 0.49241 0.0495 0.0
C41 C 0.0136 0.48506 0.01686 0.0
H42 H 0.99211 0.51145 0.05929 0.0
C43 C 0.99772 0.50368 0.0475 0.0
C44 C 0.99059 0.50578 0.03032 0.0
C45 C 0.99865 0.49635 0.01512 0.0
C46 C 0.02294 0.47656 1.00068 0.0
H47 H 0.99322 0.49767 0.00179 0.0
C48 C 0.02493 0.45701 0.99748 0.0
C49 C 0.03392 0.44918 0.98206 0.0
C50 C 0.03006 0.48821 0.98836 0.0
H51 H 0.0288 0.50331 0.99061 0.0
C52 C 0.03914 0.48055 0.97318 0.0
H53 H 0.0194 0.44794 0.00691 0.0
C54 C 0.04108 0.46118 0.97001 0.0
H55 H 0.04785 0.45551 0.95794 0.0
H56 H 0.04461 0.48964 0.96377 0.0
H57 H 0.77015 0.79316 0.24253 0.0
C58 C 0.77136 0.78688 0.22864 0.0
C59 C 0.77875 0.79843 0.21629 0.0
C60 C 0.76626 0.76711 0.22331 0.0
H61 H 0.78629 0.79871 0.18881 0.0
C62 C 0.78043 0.78997 0.19837 0.0
C63 C 0.77524 0.77021 0.19282 0.0
C64 C 0.76819 0.75891 0.20543 0.0
C65 C 0.76044 0.75469 0.23666 0.0
H66 H 0.76467 0.74357 0.20147 0.0
C67 C 0.74413 0.75745 0.2471 0.0
C68 C 0.73853 0.74521 0.25948 0.0
C69 C 0.77125 0.73978 0.23882 0.0
H70 H 0.7839 0.73747 0.23097 0.0
C71 C 0.76595 0.72783 0.25123 0.0
H72 H 0.73574 0.76892 0.24542 0.0
C73 C 0.74971 0.73046 0.26147 0.0
H74 H 0.74563 0.72065 0.27067 0.0
H75 H 0.77437 0.71636 0.2528 0.0
H76 H 0.09613 0.95043 0.47881 0.0
C77 C 0.08548 0.95523 0.47024 0.0
C78 C 0.08884 0.97383 0.46608 0.0
C79 C 0.06883 0.94254 0.46266 0.0
H80 H 0.07797 0.99374 0.45082 0.0
C81 C 0.07523 0.97962 0.45445 0.0
C82 C 0.05855 0.96712 0.44681 0.0
C83 C 0.05535 0.94867 0.45114 0.0
C84 C 0.06645 0.92223 0.46503 0.0
H85 H 0.04276 0.93876 0.44493 0.0
C86 C 0.06613 0.91689 0.48221 0.0
C87 C 0.06324 0.8974 0.48401 0.0
C88 C 0.06419 0.90798 0.44973 0.0
H89 H 0.06455 0.91175 0.4364 0.0
C90 C 0.06155 0.88877 0.45144 0.0
H91 H 0.06789 0.92784 0.49404 0.0
C92 C 0.06097 0.88348 0.46839 0.0
H93 H 0.0583 0.86842 0.46922 0.0
H94 H 0.05973 0.87791 0.43955 0.0
H95 H 0.26276 0.6842 0.78037 0.0
C96 C 0.25963 0.69231 0.79308 0.0
C97 C 0.26656 0.68744 0.80921 0.0
C98 C 0.24929 0.70799 0.79314 0.0
H99 H 0.26824 0.69479 0.83806 0.0
C100 C 0.263 0.69852 0.82556 0.0
C101 C 0.25273 0.71435 0.82591 0.0
C102 C 0.24562 0.71879 0.80958 0.0
C103 C 0.24398 0.71399 0.77592 0.0
H104 H 0.23824 0.73129 0.80959 0.0
C105 C 0.22454 0.71673 0.7715 0.0
C106 C 0.21967 0.7217 0.75472 0.0
C107 C 0.25858 0.71673 0.76363 0.0
H108 H 0.27366 0.71488 0.76681 0.0
C109 C 0.25393 0.72208 0.74723 0.0
H110 H 0.21318 0.71432 0.78082 0.0
C111 C 0.23464 0.72452 0.74276 0.0
H112 H 0.23147 0.72873 0.72993 0.0
H113 H 0.26531 0.72429 0.73791 0.0
H114 H 0.97529 0.57598 0.46482 0.0
C115 C 0.96626 0.56406 0.46901 0.0
C116 C 0.96213 0.56462 0.4872 0.0
C117 C 0.95751 0.54879 0.45596 0.0
H118 H 0.94683 0.54941 0.50622 0.0
C119 C 0.94972 0.54931 0.49219 0.0
C120 C 0.94081 0.53396 0.47928 0.0
C121 C 0.94484 0.53386 0.46116 0.0
C122 C 0.9593 0.54961 0.43665 0.0
H123 H 0.93752 0.52252 0.45094 0.0
C124 C 0.97716 0.54768 0.42832 0.0
C125 C 0.97826 0.54802 0.40974 0.0
C126 C 0.94265 0.55202 0.4264 0.0
H127 H 0.9288 0.55351 0.43259 0.0
C128 C 0.94371 0.55259 0.40811 0.0
H129 H 0.99001 0.54577 0.43624 0.0
C130 C 0.96133 0.55056 0.39981 0.0
H131 H 0.96155 0.55056 0.38548 0.0
H132 H 0.93078 0.55441 0.40029 0.0
H133 H 0.83129 0.81596 0.79807 0.0
C134 C 0.82901 0.80483 0.80627 0.0
C135 C 0.83719 0.78778 0.8016 0.0
C136 C 0.81859 0.80796 0.8219 0.0
H137 H 0.84116 0.76076 0.80952 0.0
C138 C 0.83434 0.77362 0.81261 0.0
C139 C 0.82384 0.77648 0.82826 0.0
C140 C 0.81592 0.79363 0.83266 0.0
C141 C 0.81212 0.8268 0.82811 0.0
H142 H 0.80773 0.79597 0.84465 0.0
C143 C 0.80125 0.83586 0.81662 0.0
C144 C 0.79535 0.8538 0.82295 0.0
C145 C 0.8171 0.83589 0.84589 0.0
H146 H 0.82564 0.82935 0.85493 0.0
C147 C 0.81137 0.85358 0.85215 0.0
H148 H 0.79734 0.82898 0.80289 0.0
C149 C 0.80056 0.86247 0.84083 0.0
H150 H 0.79599 0.87607 0.8462 0.0
H151 H 0.81526 0.86042 0.86588 0.0
H152 H 0.33031 0.31435 0.2967 0.0
C153 C 0.32819 0.30326 0.30495 0.0
C154 C 0.33734 0.28671 0.30087 0.0
C155 C 0.31695 0.30597 0.3201 0.0
H156 H 0.34248 0.26035 0.30951 0.0
C157 C 0.33477 0.27269 0.31207 0.0
C158 C 0.32329 0.27503 0.32716 0.0
C159 C 0.31427 0.29165 0.33085 0.0
C160 C 0.30978 0.32454 0.32601 0.0
H161 H 0.30526 0.29366 0.34232 0.0
C162 C 0.29892 0.33327 0.31421 0.0
C163 C 0.29257 0.35105 0.32028 0.0
C164 C 0.3142 0.33378 0.34382 0.0
H165 H 0.3227 0.32749 0.3531 0.0
C166 C 0.30799 0.35132 0.34982 0.0
H167 H 0.29542 0.32628 0.30045 0.0
C168 C 0.29726 0.35991 0.33818 0.0
H169 H 0.29236 0.37342 0.34329 0.0
H170 H 0.31148 0.35828 0.36356 0.0
H171 H 0.53013 0.97383 0.53894 0.0
C172 C 0.51801 0.98189 0.53752 0.0
C173 C 0.50961 0.99069 0.55287 0.0
C174 C 0.5117 0.98443 0.52032 0.0
H175 H 0.48738 0.00803 0.56238 0.0
C176 C 0.49427 0.0016 0.55068 0.0
C177 C 0.48764 0.00408 0.53347 0.0
C178 C 0.49662 0.99553 0.51841 0.0
C179 C 0.52156 0.97646 0.50428 0.0
H180 H 0.49211 0.99775 0.50509 0.0
C181 C 0.5224 0.95674 0.50004 0.0
C182 C 0.53102 0.94919 0.48427 0.0
C183 C 0.52971 0.98866 0.49284 0.0
H184 H 0.52926 0.00389 0.4959 0.0
C185 C 0.53857 0.98133 0.4774 0.0
H186 H 0.51608 0.94731 0.50886 0.0
C187 C 0.53916 0.96176 0.47307 0.0
H188 H 0.5456 0.95644 0.4607 0.0
H189 H 0.54477 0.99084 0.46863 0.0
H190 H 0.2717 0.28949 0.73874 0.0
C191 C 0.27158 0.28306 0.72473 0.0
C192 C 0.28032 0.29363 0.71217 0.0
C193 C 0.2639 0.26373 0.71952 0.0
H194 H 0.28694 0.29276 0.6843 0.0
C195 C 0.28063 0.28469 0.6942 0.0
C196 C 0.27298 0.26539 0.68884 0.0
C197 C 0.2646 0.25502 0.7016 0.0
C198 C 0.25706 0.25195 0.73303 0.0
H199 H 0.25917 0.23995 0.69775 0.0
C200 C 0.23972 0.25464 0.74195 0.0
C201 C 0.23277 0.24239 0.75393 0.0
C202 C 0.26768 0.23732 0.73647 0.0
H203 H 0.28106 0.23507 0.72971 0.0
C204 C 0.26115 0.22552 0.74867 0.0
H205 H 0.23132 0.2657 0.73903 0.0
C206 C 0.2438 0.22796 0.7573 0.0
H207 H 0.23902 0.21855 0.76667 0.0
H208 H 0.26949 0.21434 0.75133 0.0
H209 H 0.83417 0.23823 0.74048 0.0
C210 C 0.82389 0.22521 0.73692 0.0
C211 C 0.82835 0.20825 0.7422 0.0
C212 C 0.80614 0.22566 0.72725 0.0
H213 H 0.81773 0.17863 0.74222 0.0
C214 C 0.81482 0.19155 0.73748 0.0
C215 C 0.79694 0.19168 0.72778 0.0
C216 C 0.79278 0.20883 0.72255 0.0
C217 C 0.80107 0.24425 0.72369 0.0
H218 H 0.77894 0.20924 0.71536 0.0
C219 C 0.79729 0.24759 0.70608 0.0
C220 C 0.79441 0.26599 0.70311 0.0
C221 C 0.80111 0.25921 0.7382 0.0
H222 H 0.80388 0.25691 0.75185 0.0
C223 C 0.79773 0.27726 0.73527 0.0
H224 H 0.7975 0.23623 0.69477 0.0
C225 C 0.79458 0.28071 0.71783 0.0
H226 H 0.79234 0.29493 0.71579 0.0
H227 H 0.79783 0.2887 0.74654 0.0
H228 H 0.59052 0.54711 0.55803 0.0
C229 C 0.58125 0.54427 0.56888 0.0
C230 C 0.58082 0.52688 0.57543 0.0
C231 C 0.57042 0.5584 0.57685 0.0
H232 H 0.56918 0.51066 0.59539 0.0
C233 C 0.56896 0.52365 0.58979 0.0
C234 C 0.55786 0.53758 0.59778 0.0
C235 C 0.55865 0.55487 0.59111 0.0
C236 C 0.57292 0.57765 0.57169 0.0
H237 H 0.55021 0.56578 0.59711 0.0
C238 C 0.56944 0.58029 0.55382 0.0
C239 C 0.57184 0.59883 0.54937 0.0
C240 C 0.57892 0.59363 0.585 0.0
H241 H 0.58178 0.59192 0.59881 0.0
C242 C 0.58148 0.61192 0.58063 0.0
H243 H 0.56476 0.56802 0.5435 0.0
C244 C 0.57796 0.61455 0.56298 0.0
H245 H 0.57965 0.62897 0.56005 0.0
H246 H 0.5861 0.62414 0.59099 0.0
H247 H 0.60377 0.45444 0.98119 0.0
C248 C 0.59234 0.45765 0.97233 0.0
C249 C 0.59401 0.47553 0.96661 0.0
C250 C 0.5764 0.44354 0.96599 0.0
H251 H 0.58083 0.49265 0.94975 0.0
C252 C 0.57921 0.47922 0.95479 0.0
C253 C 0.5631 0.46525 0.94838 0.0
C254 C 0.56185 0.44741 0.9541 0.0
C255 C 0.57618 0.42395 0.96987 0.0
H256 H 0.54969 0.43636 0.94914 0.0
C257 C 0.57284 0.41961 0.98714 0.0
C258 C 0.57263 0.40073 0.99041 0.0
C259 C 0.57934 0.4094 0.95593 0.0
H260 H 0.58192 0.4125 0.94257 0.0
C261 C 0.57936 0.39078 0.95915 0.0
H262 H 0.57033 0.43084 0.9979 0.0
C263 C 0.57603 0.38644 0.97623 0.0
H264 H 0.57569 0.37177 0.97824 0.0
H265 H 0.58182 0.37963 0.94832 0.0
H266 H 0.76603 0.18922 0.28014 0.0
C267 C 0.76301 0.19739 0.29286 0.0
C268 C 0.77002 0.19254 0.30898 0.0
C269 C 0.75213 0.2127 0.29292 0.0
H270 H 0.77145 0.19974 0.33786 0.0
C271 C 0.76585 0.20319 0.32536 0.0
C272 C 0.75497 0.2186 0.32571 0.0
C273 C 0.74792 0.22308 0.30939 0.0
C274 C 0.74653 0.21858 0.27569 0.0
H275 H 0.74007 0.23528 0.30945 0.0
C276 C 0.72714 0.22174 0.27167 0.0
C277 C 0.72198 0.22662 0.25492 0.0
C278 C 0.76081 0.22082 0.26301 0.0
H279 H 0.77588 0.21869 0.26587 0.0
C280 C 0.75587 0.22602 0.24661 0.0
H281 H 0.71599 0.21977 0.28128 0.0
C282 C 0.73662 0.22886 0.24254 0.0
H283 H 0.73322 0.23297 0.22971 0.0
H284 H 0.76701 0.22782 0.23698 0.0
H285 H 0.46952 0.07622 0.96411 0.0
C286 C 0.46058 0.06423 0.96827 0.0
C287 C 0.45653 0.06465 0.98647 0.0
C288 C 0.45178 0.04906 0.95514 0.0
H289 H 0.44151 0.04907 0.00537 0.0
C290 C 0.44422 0.0492 0.99135 0.0
C291 C 0.43494 0.03415 0.97833 0.0
C292 C 0.43892 0.03417 0.96022 0.0
C293 C 0.45364 0.05015 0.93589 0.0
H294 H 0.43138 0.02304 0.94992 0.0
C295 C 0.47148 0.04814 0.92756 0.0
C296 C 0.47284 0.04944 0.90919 0.0
C297 C 0.43722 0.05337 0.92579 0.0
H298 H 0.42339 0.05494 0.93199 0.0
C299 C 0.43856 0.05481 0.90768 0.0
H300 H 0.48417 0.04558 0.93531 0.0
C301 C 0.45622 0.0529 0.89942 0.0
H302 H 0.45678 0.05377 0.88525 0.0
H303 H 0.42584 0.05735 0.89999 0.0
C304 C 0.22169 0.89544 0.01836 0.0
O305 O 0.23176 0.897 0.00406 0.0
O306 O 0.24207 0.84903 1.00058 0.0
Zn307 Zn 0.24839 0.86821 0.02343 0.0
O308 O 0.273 0.8857 0.01959 0.0
C309 C 0.26962 0.85213 0.05044 0.0
O310 O 0.28532 0.85924 0.043 0.0
O311 O 0.226 0.88382 0.0285 0.0
C312 C 0.27748 0.90253 0.02827 0.0
O313 O 0.26604 0.90891 0.04078 0.0
C314 C 0.25593 0.84012 0.99451 0.0
O315 O 0.27308 0.84345 0.00356 0.0
O316 O 0.25267 0.8543 0.04436 0.0
C317 C 0.17092 0.47632 0.2593 0.0
O318 O 0.1788 0.49423 0.26408 0.0
O319 O 0.11975 0.49944 0.26923 0.0
Zn320 Zn 0.13798 0.49448 0.24894 0.0
O321 O 0.15694 0.51847 0.24842 0.0
C322 C 0.10377 0.4884 0.22337 0.0
O323 O 0.09391 0.49126 0.23793 0.0
O324 O 0.15333 0.47268 0.25246 0.0
C325 C 0.1509 0.53315 0.24383 0.0
O326 O 0.13203 0.53269 0.23985 0.0
C327 C 0.12601 0.50414 0.28559 0.0
O328 O 0.14499 0.50561 0.28963 0.0
O329 O 0.12233 0.48852 0.22491 0.0
C330 C 0.83389 0.60907 0.98626 0.0
O331 O 0.8231 0.60197 0.97142 0.0
O332 O 0.80904 0.65138 0.9711 0.0
Zn333 Zn 0.80495 0.63548 0.99097 0.0
O334 O 0.78169 0.6147 0.98488 0.0
C335 C 0.8115 0.66703 0.02049 0.0
O336 O 0.82794 0.671 0.01258 0.0
O337 O 0.82919 0.62357 0.99636 0.0
C338 C 0.76427 0.61886 0.98603 0.0
O339 O 0.76175 0.63686 0.99034 0.0
C340 C 0.80534 0.64471 0.95451 0.0
O341 O 0.79881 0.62647 0.94967 0.0
O342 O 0.79935 0.65256 0.01357 0.0
C343 C 0.88791 0.03908 0.29023 0.0
O344 O 0.88514 0.02497 0.29945 0.0
O345 O 0.93334 0.01564 0.29604 0.0
Zn346 Zn 0.91637 0.01654 0.27382 0.0
O347 O 0.89774 0.99188 0.26893 0.0
C348 C 0.95136 0.02092 0.25257 0.0
O349 O 0.9612 0.02192 0.26799 0.0
O350 O 0.9007 0.03867 0.27844 0.0
C351 C 0.88471 0.98788 0.25603 0.0
O352 O 0.88299 1.00034 0.24524 0.0
C353 C 0.94156 1.00084 0.29678 0.0
O354 O 0.93937 0.98705 0.28284 0.0
O355 O 0.93262 0.01887 0.25206 0.0
C356 C 0.34192 0.12204 0.49559 0.0
O357 O 0.34604 0.14073 0.49793 0.0
O358 O 0.30687 0.14363 0.46594 0.0
Zn359 Zn 0.30227 0.12959 0.48716 0.0
O360 O 0.2771 0.11071 0.48321 0.0
C361 C 0.29414 0.16369 0.51167 0.0
O362 O 0.28671 0.16879 0.49721 0.0
O363 O 0.32445 0.11428 0.49058 0.0
C364 C 0.26084 0.1143 0.48964 0.0
O365 O 0.25971 0.13136 0.49863 0.0
C366 C 0.29281 0.14893 0.4574 0.0
O367 O 0.27472 0.14497 0.46222 0.0
O368 O 0.30143 0.14811 0.51032 0.0
C369 C 0.38506 0.53433 0.79118 0.0
O370 O 0.37815 0.51772 0.79539 0.0
O371 O 0.43311 0.51089 0.7996 0.0
Zn372 Zn 0.41632 0.5135 0.77767 0.0
O373 O 0.39649 0.48955 0.77064 0.0
C374 C 0.44926 0.51071 0.75412 0.0
O375 O 0.45517 0.50004 0.76529 0.0
O376 O 0.40137 0.53605 0.78368 0.0
C377 C 0.39852 0.47654 0.75754 0.0
O378 O 0.41395 0.4786 0.74786 0.0
C379 C 0.43659 0.49455 0.80239 0.0
O380 O 0.42936 0.47937 0.79076 0.0
O381 O 0.43341 0.51793 0.75684 0.0
C382 C 0.72595 0.40062 0.53894 0.0
O383 O 0.74166 0.40481 0.55003 0.0
O384 O 0.74524 0.35329 0.49996 0.0
Zn385 Zn 0.74936 0.37313 0.52265 0.0
O386 O 0.77279 0.39294 0.52048 0.0
C387 C 0.76235 0.34543 0.54309 0.0
O388 O 0.76926 0.33878 0.52769 0.0
O389 O 0.72547 0.38698 0.52583 0.0
C390 C 0.79075 0.39079 0.52292 0.0
O391 O 0.79502 0.37488 0.52769 0.0
C392 C 0.75302 0.35643 0.48549 0.0
O393 O 0.7636 0.37302 0.48516 0.0
O394 O 0.75341 0.36003 0.54419 0.0
C395 C 0.6712 0.97792 0.76287 0.0
O396 O 0.67757 0.99584 0.76955 0.0
O397 O 0.62132 0.99942 0.77369 0.0
Zn398 Zn 0.63798 0.9951 0.75203 0.0
O399 O 0.65621 0.01932 0.75023 0.0
C400 C 0.61198 1.00139 0.72378 0.0
O401 O 0.61507 0.01863 0.73329 0.0
O402 O 0.65432 0.97383 0.75458 0.0
C403 C 0.66483 0.02081 0.73578 0.0
O404 O 0.6619 0.00642 0.72239 0.0
C405 C 0.61689 0.01584 0.77981 0.0
O406 O 0.62345 0.03041 0.77205 0.0
O407 O 0.62015 0.98822 0.72924 0.0
C408 C 0.02594 0.18667 0.89841 0.0
O409 O 0.00846 0.1847 0.8901 0.0
O410 O 0.00986 0.2129 0.86419 0.0
Zn411 Zn 0.03491 0.22019 0.88044 0.0
O412 O 0.03344 0.24511 0.89691 0.0
C413 C 0.05922 0.23525 0.85406 0.0
O414 O 0.04459 0.24514 0.85251 0.0
O415 O 0.03893 0.20026 0.89597 0.0
C416 C 0.04858 0.25716 0.90236 0.0
O417 O 0.066 0.25323 0.89753 0.0
C418 C 0.99885 0.22554 0.86235 0.0
O419 O 0.0038 0.24292 0.87125 0.0
O420 O 0.05828 0.22353 0.8651 0.0
C421 C 0.52524 0.68599 0.39971 0.0
O422 O 0.50786 0.68385 0.3912 0.0
O423 O 0.51125 0.71246 0.3641 0.0
Zn424 Zn 0.53498 0.7197 0.38175 0.0
O425 O 0.53225 0.74448 0.39785 0.0
C426 C 0.55945 0.72743 0.35223 0.0
O427 O 0.54251 0.72845 0.34404 0.0
O428 O 0.53821 0.69965 0.39739 0.0
C429 C 0.53097 0.75945 0.39108 0.0
O430 O 0.53131 0.75844 0.37358 0.0
C431 C 0.4942 0.71585 0.36861 0.0
O432 O 0.4918 0.72311 0.38536 0.0
O433 O 0.55971 0.72376 0.36817 0.0
C434 C 0.01154 0.78508 0.61806 0.0
O435 O 0.99829 0.77043 0.61154 0.0
O436 O 0.99088 0.76904 0.66363 0.0
Zn437 Zn 0.0133 0.76383 0.64743 0.0
O438 O 0.00615 0.73919 0.62981 0.0
C439 C 0.03613 0.75176 0.67543 0.0
O440 O 0.01876 0.74343 0.67881 0.0
O441 O 0.01985 0.78567 0.6335 0.0
C442 C 0.01899 0.73336 0.6193 0.0
O443 O 0.03655 0.74342 0.62033 0.0
C444 C 0.97708 0.75603 0.66579 0.0
O445 O 0.97702 0.73867 0.65698 0.0
O446 O 0.03743 0.76142 0.66267 0.0
C447 C 0.51225 0.29808 0.13018 0.0
O448 O 0.4937 0.29554 0.13414 0.0
O449 O 0.49191 0.26979 0.16291 0.0
Zn450 Zn 0.5145 0.26433 0.14695 0.0
O451 O 0.50638 0.24175 0.12708 0.0
C452 C 0.54105 0.26573 0.17834 0.0
O453 O 0.52963 0.27751 0.18624 0.0
O454 O 0.52375 0.28692 0.13481 0.0
C455 C 0.50888 0.22479 0.12864 0.0
O456 O 0.51618 0.22145 0.14395 0.0
C457 C 0.48028 0.25635 0.16765 0.0
O458 O 0.48267 0.2386 0.1617 0.0
O459 O 0.53739 0.2586 0.16186 0.0
H460 H 0.28053 0.72658 0.85349 0.0
H461 H 0.27769 0.74784 0.88164 0.0
H462 H 0.21793 0.75279 0.86549 0.0
H463 H 0.22046 0.73102 0.83735 0.0
H464 H 0.26915 0.78577 0.88505 0.0
H465 H 0.21369 0.73968 0.91676 0.0
H466 H 0.22738 0.73028 0.89817 0.0
H467 H 0.20731 0.74318 0.89434 0.0
C468 C 0.26664 0.73188 0.85603 0.0
C469 C 0.25065 0.72695 0.84322 0.0
C470 C 0.2651 0.74416 0.87208 0.0
C471 C 0.24754 0.75172 0.87574 0.0
C472 C 0.23151 0.74687 0.86304 0.0
H473 H 0.223 0.83072 0.97139 0.0
H474 H 0.21965 0.80982 0.94205 0.0
C475 C 0.23305 0.73458 0.84691 0.0
C476 C 0.24649 0.76526 0.89261 0.0
H477 H 0.22491 0.77045 0.93287 0.0
C478 C 0.25941 0.78246 0.89548 0.0
C479 C 0.23366 0.76096 0.90611 0.0
C480 C 0.21979 0.74248 0.90385 0.0
C481 C 0.26009 0.79537 0.9116 0.0
C482 C 0.24776 0.79079 0.92537 0.0
C483 C 0.23438 0.77387 0.92231 0.0
C484 C 0.2494 0.80293 0.94333 0.0
C485 C 0.27403 0.81382 0.91377 0.0
C486 C 0.26706 0.80562 0.9539 0.0
C487 C 0.26903 0.81749 0.9706 0.0
C488 C 0.2533 0.82686 0.97714 0.0
C489 C 0.23541 0.82376 0.96672 0.0
C490 C 0.23346 0.81183 0.94997 0.0
H491 H 0.27814 0.81762 0.90057 0.0
H492 H 0.26743 0.82576 0.92142 0.0
H493 H 0.28773 0.8122 0.92129 0.0
H494 H 0.27941 0.79858 0.94919 0.0
H495 H 0.28296 0.81942 0.9783 0.0
H496 H 0.99456 0.56721 0.38415 0.0
H497 H 0.02178 0.55938 0.36562 0.0
H498 H 0.03107 0.51452 0.39555 0.0
H499 H 0.00333 0.52187 0.41382 0.0
H500 H 0.06122 0.55804 0.37314 0.0
H501 H 0.0222 0.48622 0.34385 0.0
H502 H 0.01002 0.50417 0.35689 0.0
H503 H 0.02559 0.49068 0.36791 0.0
C504 C 0.0024 0.55567 0.38682 0.0
C505 C 0.99657 0.54498 0.4003 0.0
C506 C 0.01804 0.55129 0.37628 0.0
C507 C 0.02821 0.53612 0.37894 0.0
C508 C 0.02316 0.52604 0.39301 0.0
H509 H 0.1343 0.51335 0.32191 0.0
H510 H 0.1114 0.52068 0.34534 0.0
C511 C 0.00745 0.53041 0.40359 0.0
C512 C 0.04352 0.53052 0.36646 0.0
H513 H 0.05408 0.49452 0.33434 0.0
C514 C 0.05975 0.54411 0.36474 0.0
C515 C 0.0414 0.51243 0.35531 0.0
C516 C 0.0238 0.49756 0.3559 0.0
C517 C 0.07385 0.54016 0.35209 0.0
C518 C 0.07182 0.52201 0.34106 0.0
C519 C 0.05568 0.50838 0.34289 0.0
C520 C 0.08578 0.51716 0.32697 0.0
C521 C 0.09038 0.5557 0.35022 0.0
C522 C 0.07892 0.51222 0.30888 0.0
C523 C 0.09194 0.50787 0.29546 0.0
C524 C 0.11211 0.50832 0.29986 0.0
C525 C 0.11889 0.513 0.31803 0.0
C526 C 0.10584 0.5173 0.33145 0.0
H527 H 0.08717 0.57001 0.35648 0.0
H528 H 0.10405 0.55291 0.35701 0.0
H529 H 0.09318 0.55599 0.33587 0.0
H530 H 0.06349 0.51194 0.30511 0.0
H531 H 0.0862 0.50429 0.28163 0.0
H532 H 0.81553 0.73742 0.81952 0.0
H533 H 0.81208 0.71406 0.8401 0.0
H534 H 0.82499 0.75966 0.88528 0.0
H535 H 0.82846 0.78299 0.86491 0.0
H536 H 0.83882 0.70635 0.86565 0.0
H537 H 0.77355 0.73118 0.89824 0.0
H538 H 0.7819 0.73833 0.87762 0.0
H539 H 0.79382 0.74989 0.89886 0.0
C540 C 0.81768 0.74245 0.83384 0.0
C541 C 0.82201 0.7621 0.84057 0.0
C542 C 0.81565 0.7291 0.84558 0.0
C543 C 0.81786 0.73514 0.86425 0.0
C544 C 0.82266 0.75469 0.87096 0.0
H545 H 0.81638 0.68344 0.96014 0.0
H546 H 0.81968 0.70457 0.93765 0.0
C547 C 0.82464 0.76802 0.85928 0.0
C548 C 0.81548 0.72107 0.87679 0.0
H549 H 0.78989 0.7097 0.91251 0.0
C550 C 0.82801 0.70696 0.8758 0.0
C551 C 0.80134 0.72186 0.89001 0.0
C552 C 0.78675 0.73601 0.89118 0.0
C553 C 0.82719 0.69402 0.88802 0.0
C554 C 0.81331 0.69507 0.90145 0.0
C555 C 0.8006 0.709 0.90228 0.0
C556 C 0.81182 0.68201 0.91492 0.0
C557 C 0.84156 0.67968 0.88682 0.0
C558 C 0.80618 0.6623 0.90962 0.0
C559 C 0.80424 0.65016 0.92245 0.0
C560 C 0.80785 0.65751 0.94085 0.0
C561 C 0.81353 0.67727 0.9461 0.0
C562 C 0.81541 0.68939 0.93326 0.0
H563 H 0.85406 0.68351 0.87851 0.0
H564 H 0.84751 0.67848 0.90039 0.0
H565 H 0.83384 0.66545 0.88056 0.0
H566 H 0.803 0.65633 0.89556 0.0
H567 H 0.79977 0.63503 0.91793 0.0
H568 H 0.0692 0.98365 0.41789 0.0
H569 H 0.04772 0.99132 0.3944 0.0
H570 H 0.99669 0.97095 0.4213 0.0
H571 H 0.01823 0.96277 0.44467 0.0
H572 H 0.99252 0.95714 0.3868 0.0
H573 H 0.01668 0.03474 0.39402 0.0
H574 H 0.03711 0.02159 0.39061 0.0
H575 H 0.02352 0.02079 0.41053 0.0
C576 C 0.0534 0.98111 0.41895 0.0
C577 C 0.04538 0.97276 0.43318 0.0
C578 C 0.04112 0.98558 0.40555 0.0
C579 C 0.02056 0.98213 0.40626 0.0
C580 C 0.0125 0.97387 0.42053 0.0
H581 H 0.94305 0.0227 0.33018 0.0
H582 H 0.96096 0.01824 0.35749 0.0
C583 C 0.0248 0.96918 0.43385 0.0
C584 C 0.00755 0.98598 0.39149 0.0
H585 H 0.9992 0.01989 0.36612 0.0
C586 C 0.99383 0.97094 0.38242 0.0
C587 C 0.00895 0.00407 0.38594 0.0
C588 C 0.02221 0.02125 0.39593 0.0
C589 C 0.98204 0.97326 0.36759 0.0
C590 C 0.98444 0.99096 0.36127 0.0
C591 C 0.99759 0.00623 0.37075 0.0
C592 C 0.97371 0.99379 0.34468 0.0
C593 C 0.96701 0.95674 0.35896 0.0
C594 C 0.97523 0.98181 0.32832 0.0
C595 C 0.96487 0.98419 0.31277 0.0
C596 C 0.95305 0.99886 0.31317 0.0
C597 C 0.95202 0.01125 0.32944 0.0
C598 C 0.96223 0.00871 0.34505 0.0
H599 H 0.96253 0.94699 0.36861 0.0
H600 H 0.95364 0.96176 0.35373 0.0
H601 H 0.97356 0.94836 0.34761 0.0
H602 H 0.98448 0.97059 0.32754 0.0
H603 H 0.96618 0.97455 0.30041 0.0
H604 H 0.24477 0.24151 0.66661 0.0
H605 H 0.24833 0.22499 0.63614 0.0
H606 H 0.30906 0.25071 0.63876 0.0
H607 H 0.30546 0.26753 0.66902 0.0
H608 H 0.29109 0.25176 0.60692 0.0
H609 H 0.27575 0.17868 0.62319 0.0
H610 H 0.25617 0.19261 0.62848 0.0
H611 H 0.2799 0.19965 0.64029 0.0
C612 C 0.25887 0.24358 0.66067 0.0
C613 C 0.27484 0.25576 0.67019 0.0
C614 C 0.26092 0.23408 0.64331 0.0
C615 C 0.27907 0.23631 0.63529 0.0
C616 C 0.29493 0.24872 0.64468 0.0
H617 H 0.31234 0.16015 0.54351 0.0
H618 H 0.30935 0.17861 0.57319 0.0
C619 C 0.29284 0.25837 0.66195 0.0
C620 C 0.2816 0.22583 0.61709 0.0
H621 H 0.2776 0.18115 0.59229 0.0
C622 C 0.2882 0.23631 0.60373 0.0
C623 C 0.27814 0.20565 0.61301 0.0
C624 C 0.27229 0.19347 0.62704 0.0
C625 C 0.29123 0.22721 0.58636 0.0
C626 C 0.28704 0.20708 0.58209 0.0
C627 C 0.28064 0.19659 0.59551 0.0
C628 C 0.28942 0.19652 0.56389 0.0
C629 C 0.29933 0.23925 0.57291 0.0
C630 C 0.27919 0.2004 0.54877 0.0
C631 C 0.28105 0.19002 0.53174 0.0
C632 C 0.29291 0.1753 0.52955 0.0
C633 C 0.30308 0.17139 0.54473 0.0
C634 C 0.30137 0.18191 0.56171 0.0
H635 H 0.3072 0.25326 0.57965 0.0
H636 H 0.30963 0.23186 0.56418 0.0
H637 H 0.28698 0.24205 0.56428 0.0
H638 H 0.26948 0.21125 0.55016 0.0
H639 H 0.27286 0.19326 0.52036 0.0
H640 H 0.55414 0.56354 0.62793 0.0
H641 H 0.53539 0.55857 0.65404 0.0
H642 H 0.51746 0.49967 0.63045 0.0
H643 H 0.53548 0.50473 0.60382 0.0
H644 H 0.48689 0.51638 0.64504 0.0
H645 H 0.55134 0.53109 0.69391 0.0
H646 H 0.54925 0.55027 0.68162 0.0
H647 H 0.55382 0.52746 0.66995 0.0
C648 C 0.54603 0.54956 0.62814 0.0
C649 C 0.54634 0.53453 0.61371 0.0
C650 C 0.53554 0.54668 0.64323 0.0
C651 C 0.52533 0.52866 0.64438 0.0
C652 C 0.52537 0.51367 0.62993 0.0
H653 H 0.48117 0.49405 0.74244 0.0
H654 H 0.49905 0.49796 0.71556 0.0
C655 C 0.53579 0.51655 0.61477 0.0
C656 C 0.51439 0.52554 0.66053 0.0
H657 H 0.51974 0.52923 0.70613 0.0
C658 C 0.49408 0.51911 0.65839 0.0
C659 C 0.52382 0.52882 0.67792 0.0
C660 C 0.54579 0.5346 0.68102 0.0
C661 C 0.48289 0.51622 0.6732 0.0
C662 C 0.49219 0.52027 0.69068 0.0
C663 C 0.51256 0.52635 0.69276 0.0
C664 C 0.48116 0.51797 0.70696 0.0
C665 C 0.4613 0.50851 0.66993 0.0
C666 C 0.4653 0.52812 0.71124 0.0
C667 C 0.45495 0.52583 0.72657 0.0
C668 C 0.46042 0.51351 0.73805 0.0
C669 C 0.47654 0.50364 0.7339 0.0
C670 C 0.4868 0.50586 0.71852 0.0
H671 H 0.45782 0.50114 0.65587 0.0
H672 H 0.45663 0.49836 0.67915 0.0
H673 H 0.45251 0.52053 0.67231 0.0
H674 H 0.46098 0.53792 0.70279 0.0
H675 H 0.4427 0.53376 0.72944 0.0
H676 H 0.76403 0.25282 0.67803 0.0
H677 H 0.75824 0.26444 0.64966 0.0
H678 H 0.81406 0.30106 0.65889 0.0
H679 H 0.81934 0.29006 0.6875 0.0
H680 H 0.7866 0.32057 0.65074 0.0
H681 H 0.77934 0.254 0.60097 0.0
H682 H 0.76233 0.25264 0.61837 0.0
H683 H 0.78839 0.25514 0.62388 0.0
C684 C 0.77518 0.26305 0.67373 0.0
C685 C 0.79216 0.27051 0.68479 0.0
C686 C 0.77192 0.26964 0.65751 0.0
C687 C 0.78581 0.2835 0.65197 0.0
C688 C 0.80311 0.29039 0.66282 0.0
H689 H 0.7876 0.31984 0.5476 0.0
H690 H 0.79288 0.30501 0.57404 0.0
C691 C 0.80619 0.28405 0.67911 0.0
C692 C 0.78182 0.29201 0.63568 0.0
H693 H 0.7699 0.28143 0.59058 0.0
C694 C 0.78305 0.31198 0.63757 0.0
C695 C 0.77735 0.28089 0.61844 0.0
C696 C 0.77697 0.2595 0.61522 0.0
C697 C 0.77999 0.32111 0.62279 0.0
C698 C 0.77482 0.30996 0.60566 0.0
C699 C 0.77364 0.28999 0.60373 0.0
C700 C 0.77118 0.31877 0.58949 0.0
C701 C 0.78295 0.34266 0.62568 0.0
C702 C 0.75704 0.33128 0.58922 0.0
C703 C 0.75423 0.34005 0.57421 0.0
C704 C 0.7652 0.33613 0.559 0.0
C705 C 0.77893 0.32318 0.5591 0.0
C706 C 0.78194 0.31465 0.5742 0.0
H707 H 0.79249 0.34882 0.63794 0.0
H708 H 0.78969 0.34814 0.61403 0.0
H709 H 0.76847 0.34784 0.62743 0.0
H710 H 0.74813 0.33428 0.60061 0.0
H711 H 0.74335 0.34975 0.57447 0.0
H712 H 0.52136 0.95943 0.56491 0.0
H713 H 0.53653 0.95805 0.59443 0.0
H714 H 0.53141 0.01746 0.61158 0.0
H715 H 0.51648 0.01905 0.58215 0.0
H716 H 0.57133 0.97963 0.61054 0.0
H717 H 0.50842 0.99252 0.65275 0.0
H718 H 0.50551 0.98564 0.62865 0.0
H719 H 0.51392 0.01005 0.63845 0.0
C720 C 0.52341 0.97219 0.57498 0.0
C721 C 0.51761 0.98934 0.57115 0.0
C722 C 0.53201 0.97135 0.59186 0.0
C723 C 0.53483 0.98757 0.60529 0.0
C724 C 0.52893 0.00464 0.60157 0.0
H725 H 0.59326 0.02686 0.70875 0.0
H726 H 0.57424 0.02153 0.68008 0.0
C727 C 0.52037 0.00552 0.58472 0.0
C728 C 0.54495 0.98704 0.62287 0.0
H729 H 0.54009 0.99621 0.66814 0.0
C730 C 0.56443 0.98299 0.62314 0.0
C731 C 0.53591 0.99142 0.63928 0.0
C732 C 0.51472 0.99498 0.63983 0.0
C733 C 0.57542 0.98406 0.63941 0.0
C734 C 0.56655 0.98897 0.65584 0.0
C735 C 0.54688 0.99248 0.65555 0.0
C736 C 0.57776 0.9917 0.67344 0.0
C737 C 0.59669 0.98073 0.63888 0.0
C738 C 0.58587 0.97661 0.67939 0.0
C739 C 0.59685 0.97962 0.69583 0.0
C740 C 0.59982 0.99777 0.70664 0.0
C741 C 0.59133 0.01272 0.70077 0.0
C742 C 0.5804 0.0097 0.68438 0.0
H743 H 0.60242 0.98113 0.62535 0.0
H744 H 0.60611 0.99159 0.64879 0.0
H745 H 0.598 0.96646 0.64239 0.0
H746 H 0.5837 0.96251 0.67131 0.0
H747 H 0.60309 0.96778 0.69999 0.0
H748 H 0.84422 0.23534 0.7705 0.0
H749 H 0.87346 0.23512 0.78978 0.0
H750 H 0.88215 0.18055 0.76003 0.0
H751 H 0.85326 0.18098 0.74017 0.0
H752 H 0.87976 0.20857 0.81157 0.0
H753 H 0.93661 0.21175 0.76101 0.0
H754 H 0.91199 0.21701 0.75686 0.0
H755 H 0.91651 0.19269 0.75544 0.0
C756 C 0.85255 0.22345 0.76779 0.0
C757 C 0.84647 0.20826 0.75366 0.0
C758 C 0.86917 0.22327 0.77895 0.0
C759 C 0.88012 0.20793 0.77623 0.0
C760 C 0.87412 0.19269 0.76218 0.0
H761 H 0.98638 0.19274 0.83828 0.0
H762 H 0.9571 0.18636 0.81743 0.0
C763 C 0.85748 0.19288 0.75097 0.0
C764 C 0.89743 0.20778 0.78853 0.0
H765 H 0.94746 0.20911 0.7904 0.0
C766 C 0.89455 0.20861 0.80693 0.0
C767 C 0.91671 0.2077 0.78242 0.0
C768 C 0.92077 0.20739 0.76288 0.0
C769 C 0.91043 0.20968 0.81943 0.0
C770 C 0.92975 0.21016 0.8134 0.0
C771 C 0.93261 0.20871 0.79495 0.0
C772 C 0.94722 0.21364 0.82618 0.0
C773 C 0.90645 0.2104 0.83902 0.0
C774 C 0.95141 0.23112 0.83784 0.0
C775 C 0.96807 0.23483 0.84965 0.0
C776 C 0.98094 0.22112 0.85006 0.0
C777 C 0.97671 0.20356 0.83837 0.0
C778 C 0.96003 0.1999 0.82643 0.0
H779 H 0.89091 0.20474 0.84086 0.0
H780 H 0.91632 0.20212 0.84561 0.0
H781 H 0.90923 0.22545 0.84592 0.0
H782 H 0.94188 0.24203 0.83766 0.0
H783 H 0.97088 0.24852 0.85842 0.0
H784 H 0.50102 0.92049 0.48657 0.0
H785 H 0.49969 0.8864 0.47504 0.0
H786 H 0.55863 0.89663 0.45726 0.0
H787 H 0.56041 0.93048 0.46943 0.0
H788 H 0.50159 0.87076 0.44061 0.0
H789 H 0.56201 0.85027 0.48049 0.0
H790 H 0.55216 0.87242 0.48674 0.0
H791 H 0.57031 0.8705 0.47011 0.0
C792 C 0.51391 0.91541 0.48066 0.0
C793 C 0.53082 0.92824 0.47891 0.0
C794 C 0.51306 0.89593 0.47395 0.0
C795 C 0.52914 0.8889 0.46546 0.0
C796 C 0.5462 0.90161 0.46409 0.0
H797 H 0.53093 0.79437 0.38095 0.0
H798 H 0.52903 0.82484 0.40008 0.0
C799 C 0.54708 0.92104 0.47085 0.0
C800 C 0.52756 0.86865 0.45665 0.0
H801 H 0.55154 0.82942 0.45255 0.0
C802 C 0.51235 0.86163 0.44341 0.0
C803 C 0.54141 0.8566 0.46046 0.0
C804 C 0.55725 0.86277 0.47537 0.0
C805 C 0.51115 0.84325 0.43332 0.0
C806 C 0.52581 0.83172 0.43627 0.0
C807 C 0.54047 0.83837 0.45009 0.0
C808 C 0.52665 0.81307 0.42472 0.0
C809 C 0.4942 0.83639 0.41958 0.0
C810 C 0.52651 0.79636 0.43225 0.0
C811 C 0.52781 0.77889 0.42135 0.0
C812 C 0.52936 0.77784 0.4027 0.0
C813 C 0.52959 0.79463 0.39523 0.0
C814 C 0.52837 0.81206 0.40614 0.0
H815 H 0.48132 0.84396 0.42293 0.0
H816 H 0.49884 0.83935 0.40626 0.0
H817 H 0.48952 0.8208 0.41851 0.0
H818 H 0.52533 0.79684 0.44658 0.0
H819 H 0.52762 0.76624 0.42754 0.0
H820 H 0.20366 0.21367 0.75738 0.0
H821 H 0.17342 0.21592 0.77323 0.0
H822 H 0.18847 0.27708 0.7858 0.0
H823 H 0.2191 0.2749 0.77013 0.0
H824 H 0.17757 0.25928 0.81561 0.0
H825 H 0.12279 0.23576 0.75814 0.0
H826 H 0.14088 0.21991 0.75918 0.0
H827 H 0.14838 0.24386 0.75531 0.0
C828 C 0.20054 0.22762 0.76349 0.0
C829 C 0.21381 0.24411 0.76259 0.0
C830 C 0.18315 0.22889 0.77238 0.0
C831 C 0.17858 0.24668 0.78049 0.0
C832 C 0.19167 0.26323 0.7795 0.0
H833 H 0.06517 0.25793 0.82826 0.0
H834 H 0.09423 0.26255 0.81068 0.0
C835 C 0.20909 0.26198 0.77049 0.0
C836 C 0.16067 0.24768 0.79085 0.0
H837 H 0.11079 0.23488 0.78744 0.0
C838 C 0.16294 0.25417 0.80944 0.0
C839 C 0.14159 0.2412 0.78274 0.0
C840 C 0.13818 0.23496 0.76272 0.0
C841 C 0.14668 0.25358 0.82024 0.0
C842 C 0.12773 0.24609 0.81225 0.0
C843 C 0.12536 0.24039 0.79357 0.0
C844 C 0.11028 0.24354 0.82312 0.0
C845 C 0.14994 0.26088 0.84012 0.0
C846 C 0.10958 0.23111 0.83577 0.0
C847 C 0.093 0.22839 0.8458 0.0
C848 C 0.07675 0.23801 0.84332 0.0
C849 C 0.07745 0.25035 0.83054 0.0
C850 C 0.09403 0.25301 0.82047 0.0
H851 H 0.16395 0.27077 0.84329 0.0
H852 H 0.13761 0.2684 0.84529 0.0
H853 H 0.15074 0.24863 0.84732 0.0
H854 H 0.12181 0.22337 0.83776 0.0
H855 H 0.09293 0.21874 0.85547 0.0
H856 H 0.59366 0.6225 0.53034 0.0
H857 H 0.58408 0.63189 0.50191 0.0
H858 H 0.53048 0.59227 0.49787 0.0
H859 H 0.53981 0.58307 0.52662 0.0
H860 H 0.57394 0.61109 0.46675 0.0
H861 H 0.51133 0.64448 0.49701 0.0
H862 H 0.53052 0.63751 0.51048 0.0
H863 H 0.51169 0.61975 0.49858 0.0
C864 C 0.57989 0.61569 0.52335 0.0
C865 C 0.56737 0.60223 0.53084 0.0
C866 C 0.57448 0.621 0.50706 0.0
C867 C 0.55642 0.61303 0.49794 0.0
C868 C 0.54434 0.59882 0.50485 0.0
H869 H 0.50063 0.65614 0.40901 0.0
H870 H 0.50751 0.63591 0.4311 0.0
C871 C 0.54978 0.59344 0.52117 0.0
C872 C 0.54996 0.62053 0.48181 0.0
H873 H 0.51717 0.64752 0.46712 0.0
C874 C 0.56141 0.61889 0.46674 0.0
C875 C 0.53359 0.63069 0.48182 0.0
C876 C 0.5211 0.6334 0.49785 0.0
C877 C 0.55714 0.62743 0.45181 0.0
C878 C 0.54124 0.63822 0.45212 0.0
C879 C 0.52936 0.63927 0.46691 0.0
C880 C 0.53745 0.64959 0.43785 0.0
C881 C 0.56976 0.62487 0.43587 0.0
C882 C 0.55193 0.66408 0.43438 0.0
C883 C 0.54806 0.67566 0.42179 0.0
C884 C 0.52954 0.6731 0.41248 0.0
C885 C 0.51507 0.65849 0.4159 0.0
C886 C 0.51897 0.6469 0.42852 0.0
H887 H 0.57684 0.61169 0.43521 0.0
H888 H 0.56099 0.62416 0.42309 0.0
H889 H 0.58164 0.63718 0.43716 0.0
H890 H 0.56613 0.66676 0.44172 0.0
H891 H 0.55953 0.68682 0.41958 0.0
H892 H 0.86526 0.81426 0.79144 0.0
H893 H 0.88748 0.8097 0.76699 0.0
H894 H 0.86115 0.75093 0.75272 0.0
H895 H 0.83842 0.75552 0.77681 0.0
H896 H 0.9149 0.78439 0.76329 0.0
H897 H 0.86151 0.76929 0.70423 0.0
H898 H 0.85517 0.77974 0.72627 0.0
H899 H 0.85588 0.75447 0.72095 0.0
C900 C 0.86387 0.80047 0.78286 0.0
C901 C 0.84994 0.78528 0.78604 0.0
C902 C 0.8767 0.79785 0.76897 0.0
C903 C 0.87584 0.78005 0.75788 0.0
C904 C 0.86186 0.76489 0.76089 0.0
H905 H 0.94621 0.73124 0.67404 0.0
H906 H 0.92179 0.73764 0.69624 0.0
C907 C 0.84901 0.76749 0.77479 0.0
C908 C 0.89029 0.77709 0.74384 0.0
H909 H 0.89437 0.76365 0.69879 0.0
C910 C 0.91042 0.77999 0.74916 0.0
C911 C 0.88443 0.77128 0.72543 0.0
C912 C 0.86309 0.76867 0.7188 0.0
C913 C 0.92482 0.77686 0.73666 0.0
C914 C 0.91896 0.771 0.71825 0.0
C915 C 0.89883 0.76815 0.7129 0.0
C916 C 0.9335 0.76743 0.7044 0.0
C917 C 0.94615 0.77934 0.74333 0.0
C918 C 0.948 0.78214 0.70137 0.0
C919 C 0.96204 0.77853 0.6887 0.0
C920 C 0.96176 0.76014 0.67872 0.0
C921 C 0.94692 0.74555 0.68151 0.0
C922 C 0.93291 0.74918 0.69419 0.0
H923 H 0.9477 0.77917 0.75799 0.0
H924 H 0.95387 0.76793 0.73618 0.0
H925 H 0.95358 0.79329 0.74078 0.0
H926 H 0.9485 0.79643 0.70884 0.0
H927 H 0.97317 0.79012 0.68682 0.0
H928 H 0.04411 0.91289 0.51302 0.0
H929 H 0.03788 0.89985 0.54069 0.0
H930 H 0.07126 0.85413 0.52243 0.0
H931 H 0.07842 0.8676 0.4954 0.0
H932 H 0.01732 0.86708 0.54298 0.0
H933 H 0.09129 0.8665 0.57347 0.0
H934 H 0.08729 0.87988 0.55566 0.0
H935 H 0.08978 0.85485 0.55057 0.0
C936 C 0.05066 0.90042 0.51518 0.0
C937 C 0.06167 0.89124 0.50191 0.0
C938 C 0.04696 0.89289 0.53095 0.0
C939 C 0.05426 0.87609 0.53381 0.0
C940 C 0.06583 0.86733 0.52085 0.0
H941 H 1.00106 0.78485 0.58287 0.0
H942 H 0.01113 0.80904 0.56447 0.0
C943 C 0.06966 0.87491 0.50521 0.0
C944 C 0.04812 0.86647 0.54921 0.0
H945 H 0.06547 0.84286 0.58101 0.0
C946 C 0.0279 0.86211 0.55152 0.0
C947 C 0.06183 0.86025 0.56066 0.0
C948 C 0.08375 0.86583 0.56008 0.0
C949 C 0.02101 0.85077 0.56415 0.0
C950 C 0.03468 0.84306 0.5744 0.0
C951 C 0.05493 0.84841 0.57292 0.0
C952 C 0.02829 0.8286 0.58592 0.0
C953 C 0.99912 0.84709 0.56625 0.0
C954 C 0.03511 0.83115 0.60402 0.0
C955 C 0.02961 0.81711 0.61456 0.0
C956 C 0.01718 0.80024 0.60718 0.0
C957 C 0.01044 0.79774 0.58906 0.0
C958 C 0.01608 0.81167 0.57853 0.0
H959 H 0.99168 0.85899 0.56273 0.0
H960 H 0.99278 0.83392 0.55698 0.0
H961 H 0.99578 0.84521 0.58019 0.0
H962 H 0.04468 0.84401 0.61 0.0
H963 H 0.0351 0.81946 0.62846 0.0
H964 H 0.19268 0.73939 0.77493 0.0
H965 H 0.15937 0.74393 0.76506 0.0
H966 H 0.16725 0.71351 0.71234 0.0
H967 H 0.2001 0.70846 0.72219 0.0
H968 H 0.14919 0.76304 0.73776 0.0
H969 H 0.11376 0.68791 0.72362 0.0
H970 H 0.13679 0.69522 0.73673 0.0
H971 H 0.13636 0.69142 0.71257 0.0
C972 C 0.18714 0.73339 0.76134 0.0
C973 C 0.19906 0.72362 0.74933 0.0
C974 C 0.16818 0.73608 0.75569 0.0
C975 C 0.16073 0.72886 0.73803 0.0
C976 C 0.17251 0.7189 0.72613 0.0
H977 H 0.07458 0.76463 0.67034 0.0
H978 H 0.10401 0.75981 0.68727 0.0
C979 C 0.1914 0.71623 0.73172 0.0
C980 C 0.14113 0.73255 0.73156 0.0
H981 H 0.09778 0.71034 0.70989 0.0
C982 C 0.13783 0.75153 0.73188 0.0
C983 C 0.1262 0.71753 0.72412 0.0
C984 C 0.12835 0.69688 0.72439 0.0
C985 C 0.12036 0.75588 0.72423 0.0
C986 C 0.10598 0.74084 0.71574 0.0
C987 C 0.10891 0.72188 0.71616 0.0
C988 C 0.08805 0.7444 0.70591 0.0
C989 C 0.1175 0.77655 0.72529 0.0
C990 C 0.06928 0.73697 0.71047 0.0
C991 C 0.05242 0.73953 0.70069 0.0
C992 C 0.05399 0.74951 0.68609 0.0
C993 C 0.07282 0.75698 0.68158 0.0
C994 C 0.08967 0.75436 0.69133 0.0
H995 H 0.12652 0.78574 0.7367 0.0
H996 H 0.12222 0.78156 0.71275 0.0
H997 H 0.10181 0.77845 0.72683 0.0
H998 H 0.06768 0.72913 0.72159 0.0
H999 H 0.03816 0.73357 0.70452 0.0
H1000 H 0.9988 0.58614 0.49115 0.0
H1001 H 0.01027 0.61446 0.51372 0.0
H1002 H 0.9533 0.61028 0.5363 0.0
H1003 H 0.94173 0.58225 0.51386 0.0
H1004 H 0.99493 0.64938 0.52052 0.0
H1005 H 0.99096 0.61317 0.58016 0.0
H1006 H 0.99037 0.60025 0.55754 0.0
H1007 H 0.9685 0.6087 0.56632 0.0
C1008 C 0.98873 0.59127 0.50092 0.0
C1009 C 0.96944 0.58175 0.50084 0.0
C1010 C 0.99532 0.6074 0.51383 0.0
C1011 C 0.98276 0.61423 0.52691 0.0
C1012 C 0.96342 0.60496 0.52665 0.0
H1013 H 0.98411 0.7092 0.61337 0.0
H1014 H 0.97617 0.68047 0.59065 0.0
C1015 C 0.95684 0.58889 0.51381 0.0
C1016 C 0.98953 0.63138 0.54057 0.0
H1017 H 0.99462 0.64719 0.58582 0.0
C1018 C 0.99508 0.6489 0.53479 0.0
C1019 C 0.98966 0.6307 0.55919 0.0
C1020 C 0.98474 0.61217 0.56621 0.0
C1021 C 1.00013 0.66586 0.54715 0.0
C1022 C 0.99991 0.66522 0.56578 0.0
C1023 C 0.99467 0.64766 0.57154 0.0
C1024 C 0.00487 0.68265 0.57952 0.0
C1025 C 0.00503 0.68442 0.54018 0.0
C1026 C 0.02371 0.69326 0.58096 0.0
C1027 C 0.0283 0.70967 0.59392 0.0
C1028 C 0.01414 0.71576 0.60577 0.0
C1029 C 0.99534 0.70496 0.60444 0.0
C1030 C 0.99078 0.68852 0.59147 0.0
H1031 H 0.99994 0.68316 0.52586 0.0
H1032 H 0.99825 0.69601 0.54821 0.0
H1033 H 0.02123 0.68861 0.54126 0.0
H1034 H 0.03493 0.68877 0.57212 0.0
H1035 H 0.04296 0.71759 0.59462 0.0
H1036 H 0.80138 0.81467 0.2467 0.0
H1037 H 0.81671 0.84787 0.25495 0.0
H1038 H 0.78953 0.86165 0.20723 0.0
H1039 H 0.77369 0.82857 0.19913 0.0
H1040 H 0.84308 0.86605 0.23373 0.0
H1041 H 0.779 0.90538 0.24629 0.0
H1042 H 0.7774 0.87993 0.24584 0.0
H1043 H 0.77721 0.88942 0.22522 0.0
C1044 C 0.79822 0.82486 0.2382 0.0
C1045 C 0.78628 0.81898 0.22226 0.0
C1046 C 0.80711 0.8438 0.24287 0.0
C1047 C 0.80412 0.85726 0.23179 0.0
C1048 C 0.79178 0.85158 0.21613 0.0
H1049 H 0.85676 0.97372 0.22872 0.0
H1050 H 0.83697 0.94211 0.22312 0.0
C1051 C 0.7829 0.83263 0.21143 0.0
C1052 C 0.81522 0.87678 0.23584 0.0
H1053 H 0.80998 0.92408 0.24459 0.0
C1054 C 0.83586 0.87874 0.23624 0.0
C1055 C 0.80573 0.89329 0.23894 0.0
C1056 C 0.78362 0.89198 0.23922 0.0
C1057 C 0.8473 0.89679 0.23939 0.0
C1058 C 0.83784 0.91332 0.24259 0.0
C1059 C 0.81718 0.91138 0.24215 0.0
C1060 C 0.84921 0.93272 0.24642 0.0
C1061 C 0.8694 0.89799 0.23884 0.0
C1062 C 0.86236 0.93803 0.26157 0.0
C1063 C 0.87373 0.95601 0.26477 0.0
C1064 C 0.87207 0.96911 0.25295 0.0
C1065 C 0.85847 0.96394 0.23805 0.0
C1066 C 0.84712 0.94591 0.23484 0.0
H1067 H 0.87388 0.88459 0.23165 0.0
H1068 H 0.87557 0.91002 0.23217 0.0
H1069 H 0.87601 0.90046 0.25277 0.0
H1070 H 0.86391 0.9282 0.27088 0.0
H1071 H 0.88393 0.95957 0.27646 0.0
H1072 H 0.79987 0.18511 0.287 0.0
H1073 H 0.81953 0.15887 0.28561 0.0
H1074 H 0.78838 0.13862 0.32897 0.0
H1075 H 0.76821 0.16461 0.33014 0.0
H1076 H 0.84422 0.14992 0.31279 0.0
H1077 H 0.78316 0.09107 0.28955 0.0
H1078 H 0.78097 0.11574 0.28862 0.0
H1079 H 0.77916 0.107 0.30959 0.0
C1080 C 0.79702 0.17496 0.29612 0.0
C1081 C 0.78231 0.17683 0.30856 0.0
C1082 C 0.80838 0.16005 0.29539 0.0
C1083 C 0.80523 0.14665 0.307 0.0
C1084 C 0.79082 0.14863 0.31967 0.0
H1085 H 0.85956 0.0443 0.31447 0.0
H1086 H 0.84001 0.0707 0.31956 0.0
C1087 C 0.77944 0.16358 0.32044 0.0
C1088 C 0.81721 0.13073 0.30584 0.0
H1089 H 0.8144 0.08223 0.29548 0.0
C1090 C 0.83771 0.13511 0.30903 0.0
C1091 C 0.80867 0.11143 0.30098 0.0
C1092 C 0.7868 0.10594 0.29683 0.0
C1093 C 0.84991 0.1207 0.30752 0.0
C1094 C 0.84142 0.10143 0.30233 0.0
C1095 C 0.82088 0.09702 0.29943 0.0
C1096 C 0.85359 0.08564 0.29945 0.0
C1097 C 0.87177 0.12625 0.3117 0.0
C1098 C 0.86758 0.08517 0.2863 0.0
C1099 C 0.8788 0.07012 0.28337 0.0
C1100 C 0.87615 0.05515 0.29344 0.0
C1101 C 0.86202 0.05561 0.3065 0.0
C1102 C 0.85081 0.07068 0.30943 0.0
H1103 H 0.87516 0.14054 0.32022 0.0
H1104 H 0.87799 0.11564 0.31866 0.0
H1105 H 0.87924 0.12683 0.29896 0.0
H1106 H 0.86967 0.09634 0.27816 0.0
H1107 H 0.88946 0.07016 0.27312 0.0
H1108 H 0.40675 0.03947 0.00264 0.0
H1109 H 0.38152 0.01566 0.01095 0.0
H1110 H 0.40262 0.97183 0.97353 0.0
H1111 H 0.42852 0.99553 0.96557 0.0
H1112 H 0.35185 0.99325 0.98888 0.0
H1113 H 0.39924 0.94809 0.01924 0.0
H1114 H 0.40848 0.97161 0.0149 0.0
H1115 H 0.40481 0.95164 0.99686 0.0
C1116 C 0.40635 0.02471 0.99642 0.0
C1117 C 0.41986 0.01939 0.98358 0.0
C1118 C 0.39178 0.01113 1.00109 0.0
C1119 C 0.39034 0.99193 0.99306 0.0
C1120 C 0.4037 0.98651 0.98016 0.0
H1121 H 0.30453 0.89358 0.00357 0.0
H1122 H 0.33204 0.91493 0.99479 0.0
C1123 C 0.41836 1.00011 0.97549 0.0
C1124 C 0.37428 0.97786 0.99774 0.0
H1125 H 0.36498 0.93721 0.01615 0.0
C1126 C 0.35473 0.98101 0.99486 0.0
C1127 C 0.37806 0.96185 0.00548 0.0
C1128 C 0.39877 0.95811 0.00947 0.0
C1129 C 0.33885 0.96861 0.99949 0.0
C1130 C 0.34263 0.95278 0.00745 0.0
C1131 C 0.36215 0.94941 0.01008 0.0
C1132 C 0.32646 0.9397 0.01332 0.0
C1133 C 0.31814 0.97244 0.99562 0.0
C1134 C 0.31447 0.94646 0.02691 0.0
C1135 C 0.29876 0.93431 0.03199 0.0
C1136 C 0.29477 0.91513 0.02358 0.0
C1137 C 0.30714 0.90829 0.01027 0.0
C1138 C 0.32288 0.92045 0.00524 0.0
H1139 H 0.31761 0.98215 0.98556 0.0
H1140 H 0.30826 0.95894 0.9906 0.0
H1141 H 0.31236 0.97933 0.0082 0.0
H1142 H 0.31721 0.9612 0.03353 0.0
H1143 H 0.28961 0.94004 0.04234 0.0
H1144 H 0.29813 0.38832 0.31582 0.0
H1145 H 0.27588 0.40516 0.30029 0.0
H1146 H 0.23778 0.35219 0.28238 0.0
H1147 H 0.25995 0.33522 0.29826 0.0
H1148 H 0.26107 0.40051 0.26403 0.0
H1149 H 0.20179 0.38677 0.31078 0.0
H1150 H 0.22682 0.38295 0.31541 0.0
H1151 H 0.21117 0.36627 0.29899 0.0
C1152 C 0.28509 0.38022 0.30845 0.0
C1153 C 0.28065 0.36049 0.30844 0.0
C1154 C 0.27243 0.38985 0.29953 0.0
C1155 C 0.255 0.38 0.29045 0.0
C1156 C 0.251 0.36011 0.28956 0.0
H1157 H 0.15907 0.43752 0.25262 0.0
H1158 H 0.17856 0.41221 0.25761 0.0
C1159 C 0.26376 0.35041 0.29847 0.0
C1160 C 0.24074 0.39097 0.28286 0.0
H1161 H 0.19625 0.40672 0.28987 0.0
C1162 C 0.24678 0.40168 0.26951 0.0
C1163 C 0.22208 0.39245 0.28999 0.0
C1164 C 0.21502 0.38163 0.30467 0.0
C1165 C 0.23493 0.41424 0.26347 0.0
C1166 C 0.21671 0.41643 0.27124 0.0
C1167 C 0.21024 0.40506 0.28397 0.0
C1168 C 0.20498 0.43155 0.26748 0.0
C1169 C 0.24215 0.42523 0.24897 0.0
C1170 C 0.21325 0.4508 0.2716 0.0
C1171 C 0.20219 0.46524 0.26884 0.0
C1172 C 0.18252 0.46077 0.26196 0.0
C1173 C 0.17419 0.44145 0.25788 0.0
C1174 C 0.18531 0.42698 0.26071 0.0
H1175 H 0.25266 0.41771 0.24059 0.0
H1176 H 0.22972 0.42752 0.24012 0.0
H1177 H 0.24998 0.43939 0.2553 0.0
H1178 H 0.22824 0.45471 0.27725 0.0
H1179 H 0.20908 0.47993 0.27222 0.0
H1180 H 0.09286 0.01175 0.48031 0.0
H1181 H 0.12346 0.03412 0.48625 0.0
H1182 H 0.15713 0.98776 0.47172 0.0
H1183 H 0.12656 0.9653 0.46557 0.0
H1184 H 0.15923 0.034 0.50946 0.0
H1185 H 0.1718 0.02664 0.43641 0.0
H1186 H 0.14812 0.01935 0.44473 0.0
H1187 H 0.16752 0.00491 0.44564 0.0
C1188 C 0.1068 0.0063 0.47858 0.0
C1189 C 0.10732 0.98679 0.47237 0.0
C1190 C 0.12424 0.01907 0.48202 0.0
C1191 C 0.14249 0.01261 0.47917 0.0
C1192 C 0.14315 0.99303 0.47381 0.0
H1193 H 0.25928 0.0764 0.4756 0.0
H1194 H 0.23114 0.05126 0.4739 0.0
C1195 C 0.1257 0.9802 0.47047 0.0
C1196 C 0.16068 0.02655 0.48085 0.0
H1197 H 0.19547 0.04724 0.45609 0.0
C1198 C 0.16723 0.03688 0.49783 0.0
C1199 C 0.17104 0.03021 0.46563 0.0
C1200 C 0.16428 0.01983 0.44702 0.0
C1201 C 0.18399 0.05078 0.50002 0.0
C1202 C 0.19412 0.05476 0.48473 0.0
C1203 C 0.18768 0.0442 0.46779 0.0
C1204 C 0.2112 0.07005 0.48593 0.0
C1205 C 0.19082 0.06084 0.51872 0.0
C1206 C 0.20926 0.08903 0.49293 0.0
C1207 C 0.22533 0.10342 0.49399 0.0
C1208 C 0.24363 0.09915 0.48785 0.0
C1209 C 0.24541 0.08018 0.48046 0.0
C1210 C 0.22935 0.06578 0.4795 0.0
H1211 H 0.18539 0.05232 0.52906 0.0
H1212 H 0.20715 0.06374 0.52029 0.0
H1213 H 0.18494 0.07467 0.52131 0.0
H1214 H 0.19527 0.09277 0.4975 0.0
H1215 H 0.22339 0.11789 0.49962 0.0
H1216 H 0.80323 0.15481 0.71666 0.0
H1217 H 0.77983 0.12575 0.71564 0.0
H1218 H 0.73395 0.1598 0.73127 0.0
H1219 H 0.75729 0.18894 0.7324 0.0
H1220 H 0.76046 0.11574 0.74509 0.0
H1221 H 0.70689 0.12003 0.6896 0.0
H1222 H 0.73101 0.13402 0.69267 0.0
H1223 H 0.71147 0.14117 0.70632 0.0
C1224 C 0.7881 0.15611 0.71967 0.0
C1225 C 0.78214 0.17419 0.72464 0.0
C1226 C 0.77474 0.1395 0.71905 0.0
C1227 C 0.75512 0.1406 0.72327 0.0
C1228 C 0.74892 0.15861 0.72763 0.0
H1229 H 0.67504 0.05287 0.7611 0.0
H1230 H 0.69676 0.08196 0.75792 0.0
C1231 C 0.76229 0.17526 0.72825 0.0
C1232 C 0.74164 0.12294 0.72452 0.0
H1233 H 0.69788 0.09649 0.70791 0.0
C1234 C 0.74681 0.11149 0.73691 0.0
C1235 C 0.72392 0.11735 0.71375 0.0
C1236 C 0.71802 0.12867 0.69971 0.0
C1237 C 0.73463 0.09475 0.73901 0.0
C1238 C 0.71664 0.08945 0.7286 0.0
C1239 C 0.71159 0.10071 0.716 0.0
C1240 C 0.70307 0.07204 0.73042 0.0
C1241 C 0.74124 0.08273 0.75216 0.0
C1242 C 0.6991 0.05699 0.7159 0.0
C1243 C 0.68668 0.04036 0.71765 0.0
C1244 C 0.67788 0.03852 0.73395 0.0
C1245 C 0.68166 0.05377 0.7484 0.0
C1246 C 0.69412 0.07038 0.74663 0.0
H1247 H 0.75726 0.08627 0.75588 0.0
H1248 H 0.73318 0.08537 0.7646 0.0
H1249 H 0.73796 0.0673 0.74652 0.0
H1250 H 0.70581 0.05802 0.70325 0.0
H1251 H 0.68403 0.02894 0.70623 0.0
H1252 H 0.45738 0.99711 0.50764 0.0
H1253 H 0.43308 0.01794 0.50213 0.0
H1254 H 0.45732 0.05871 0.54835 0.0
H1255 H 0.48208 0.03818 0.55376 0.0
H1256 H 0.41366 0.04929 0.54445 0.0
H1257 H 0.44795 0.07021 0.48362 0.0
H1258 H 0.44373 0.045 0.48418 0.0
H1259 H 0.46116 0.06027 0.50016 0.0
C1260 C 0.45766 0.01056 0.5166 0.0
C1261 C 0.47184 0.01605 0.53105 0.0
C1262 C 0.44372 0.02241 0.51345 0.0
C1263 C 0.4436 0.03995 0.52469 0.0
C1264 C 0.45724 0.04523 0.53949 0.0
H1265 H 0.38126 0.13357 0.50407 0.0
H1266 H 0.40611 0.11406 0.51171 0.0
C1267 C 0.47129 0.03342 0.54262 0.0
C1268 C 0.42939 0.05286 0.52079 0.0
H1269 H 0.41683 0.07992 0.48993 0.0
C1270 C 0.41437 0.05606 0.53258 0.0
C1271 C 0.43051 0.0618 0.50539 0.0
C1272 C 0.44678 0.05933 0.49264 0.0
C1273 C 0.4001 0.06763 0.52911 0.0
C1274 C 0.40089 0.0761 0.51342 0.0
C1275 C 0.4162 0.07328 0.50188 0.0
C1276 C 0.38584 0.08783 0.50869 0.0
C1277 C 0.38435 0.0708 0.54228 0.0
C1278 C 0.36629 0.07946 0.50416 0.0
C1279 C 0.35209 0.09051 0.49967 0.0
C1280 C 0.35716 0.11019 0.49965 0.0
C1281 C 0.37684 0.11848 0.504 0.0
C1282 C 0.39106 0.10737 0.50837 0.0
H1283 H 0.38825 0.06679 0.55544 0.0
H1284 H 0.3818 0.08597 0.54447 0.0
H1285 H 0.37034 0.06191 0.53675 0.0
H1286 H 0.36204 0.06433 0.50406 0.0
H1287 H 0.33709 0.08365 0.49637 0.0
H1288 H 0.6193 0.53376 0.56689 0.0
H1289 H 0.64159 0.51044 0.5579 0.0
H1290 H 0.59464 0.46456 0.55957 0.0
H1291 H 0.57214 0.48783 0.56845 0.0
H1292 H 0.62859 0.46078 0.57854 0.0
H1293 H 0.64578 0.47521 0.51047 0.0
H1294 H 0.6495 0.49626 0.5273 0.0
H1295 H 0.6251 0.48348 0.522 0.0
C1296 C 0.61355 0.51871 0.56493 0.0
C1297 C 0.59389 0.51268 0.56835 0.0
C1298 C 0.62635 0.50538 0.55979 0.0
C1299 C 0.61974 0.48574 0.55785 0.0
C1300 C 0.60004 0.47965 0.56094 0.0
H1301 H 0.69215 0.39747 0.51745 0.0
H1302 H 0.66525 0.41692 0.52167 0.0
C1303 C 0.58723 0.49297 0.56607 0.0
C1304 C 0.63374 0.47165 0.55387 0.0
H1305 H 0.6671 0.45689 0.524 0.0
C1306 C 0.63686 0.4598 0.56653 0.0
C1307 C 0.64437 0.47021 0.53811 0.0
C1308 C 0.64091 0.48183 0.52359 0.0
C1309 C 0.65082 0.44704 0.56415 0.0
C1310 C 0.66216 0.44629 0.54882 0.0
C1311 C 0.65854 0.45762 0.53584 0.0
C1312 C 0.67827 0.4343 0.54635 0.0
C1313 C 0.65332 0.43448 0.57808 0.0
C1314 C 0.69458 0.43776 0.55872 0.0
C1315 C 0.70995 0.42671 0.55635 0.0
C1316 C 0.70937 0.41201 0.5415 0.0
C1317 C 0.69303 0.40862 0.52907 0.0
C1318 C 0.67766 0.41974 0.53144 0.0
H1319 H 0.64011 0.43287 0.5861 0.0
H1320 H 0.65618 0.42009 0.57174 0.0
H1321 H 0.66609 0.44104 0.58744 0.0
H1322 H 0.69554 0.44916 0.57014 0.0
H1323 H 0.72233 0.4298 0.56614 0.0
H1324 H 0.7823 0.2323 0.35344 0.0
H1325 H 0.77838 0.25377 0.3812 0.0
H1326 H 0.71763 0.25449 0.3649 0.0
H1327 H 0.72151 0.23304 0.33691 0.0
H1328 H 0.7363 0.28993 0.37666 0.0
H1329 H 0.75146 0.24357 0.42599 0.0
H1330 H 0.77087 0.2458 0.41084 0.0
H1331 H 0.74662 0.23449 0.40234 0.0
C1332 C 0.76798 0.23672 0.3559 0.0
C1333 C 0.75216 0.23084 0.34302 0.0
C1334 C 0.76576 0.24898 0.37181 0.0
C1335 C 0.7476 0.25546 0.37532 0.0
C1336 C 0.73174 0.24957 0.36253 0.0
H1337 H 0.73003 0.32145 0.48046 0.0
H1338 H 0.72657 0.29681 0.45361 0.0
C1339 C 0.73399 0.23737 0.34654 0.0
C1340 C 0.74562 0.2693 0.39182 0.0
H1341 H 0.7539 0.27713 0.43741 0.0
C1342 C 0.73992 0.28704 0.38996 0.0
C1343 C 0.75001 0.26544 0.40922 0.0
C1344 C 0.75487 0.24621 0.41226 0.0
C1345 C 0.73927 0.3013 0.40494 0.0
C1346 C 0.74494 0.29789 0.42221 0.0
C1347 C 0.74983 0.27986 0.42415 0.0
C1348 C 0.74656 0.31302 0.43832 0.0
C1349 C 0.73249 0.31986 0.40207 0.0
C1350 C 0.7591 0.33023 0.43873 0.0
C1351 C 0.76101 0.34436 0.45398 0.0
C1352 C 0.75061 0.34148 0.46926 0.0
C1353 C 0.7382 0.32414 0.4689 0.0
C1354 C 0.73622 0.31004 0.45357 0.0
H1355 H 0.72284 0.31796 0.38962 0.0
H1356 H 0.72433 0.32589 0.41359 0.0
H1357 H 0.74551 0.33034 0.40065 0.0
H1358 H 0.76766 0.33265 0.42733 0.0
H1359 H 0.77084 0.35745 0.45384 0.0
H1360 H 0.49517 0.02046 0.90947 0.0
H1361 H 0.52285 0.01387 0.8907 0.0
H1362 H 0.51904 0.06528 0.86863 0.0
H1363 H 0.49148 0.07191 0.88727 0.0
H1364 H 0.51945 0.00977 0.85147 0.0
H1365 H 0.57892 0.0671 0.88201 0.0
H1366 H 0.55792 0.05923 0.89409 0.0
H1367 H 0.55554 0.07495 0.87807 0.0
C1368 C 0.50055 0.03055 0.9009 0.0
C1369 C 0.49118 0.04669 0.89981 0.0
C1370 C 0.51627 0.02672 0.89014 0.0
C1371 C 0.52308 0.03916 0.87839 0.0
C1372 C 0.51419 0.05563 0.87777 0.0
H1373 H 0.60056 0.04771 0.79276 0.0
H1374 H 0.57856 0.05199 0.81736 0.0
C1375 C 0.49839 0.05934 0.88835 0.0
C1376 C 0.53834 0.0343 0.86564 0.0
H1377 H 0.58374 0.05083 0.85278 0.0
C1378 C 0.53364 0.01855 0.85187 0.0
C1379 C 0.55674 0.04589 0.86615 0.0
C1380 C 0.56273 0.06266 0.88095 0.0
C1381 C 0.5465 0.01455 0.8381 0.0
C1382 C 0.56482 0.02635 0.83841 0.0
C1383 C 0.56972 0.04179 0.85252 0.0
C1384 C 0.57862 0.02359 0.82373 0.0
C1385 C 0.5399 0.99828 0.82292 0.0
C1386 C 0.58624 0.00627 0.81923 0.0
C1387 C 0.5987 0.0037 0.80499 0.0
C1388 C 0.60402 0.01852 0.79515 0.0
C1389 C 0.59675 0.03599 0.80001 0.0
C1390 C 0.58419 0.03847 0.81412 0.0
H1391 H 0.52372 0.99389 0.82231 0.0
H1392 H 0.54407 0.00223 0.8098 0.0
H1393 H 0.54713 0.98576 0.825 0.0
H1394 H 0.58256 0.99473 0.82672 0.0
H1395 H 0.60418 0.99013 0.80172 0.0
H1396 H 0.32253 0.28163 0.36394 0.0
H1397 H 0.31859 0.25837 0.38419 0.0
H1398 H 0.3174 0.21262 0.33937 0.0
H1399 H 0.32003 0.23583 0.31874 0.0
H1400 H 0.28984 0.20379 0.36118 0.0
H1401 H 0.35897 0.22981 0.40239 0.0
H1402 H 0.34406 0.24854 0.40221 0.0
H1403 H 0.3537 0.23806 0.38162 0.0
C1404 C 0.32119 0.26663 0.35826 0.0
C1405 C 0.32151 0.26068 0.3396 0.0
C1406 C 0.3193 0.25331 0.36997 0.0
C1407 C 0.31816 0.23371 0.36341 0.0
C1408 C 0.31845 0.22767 0.3448 0.0
H1409 H 0.32683 0.15424 0.4397 0.0
H1410 H 0.33323 0.17303 0.4156 0.0
C1411 C 0.32011 0.24099 0.33302 0.0
C1412 C 0.31585 0.21958 0.37595 0.0
H1413 H 0.33461 0.20958 0.41533 0.0
C1414 C 0.29977 0.20494 0.37291 0.0
C1415 C 0.329 0.22074 0.39109 0.0
C1416 C 0.34751 0.23501 0.39441 0.0
C1417 C 0.29607 0.19193 0.3849 0.0
C1418 C 0.30841 0.19398 0.40072 0.0
C1419 C 0.32492 0.20815 0.40339 0.0
C1420 C 0.30425 0.1819 0.41487 0.0
C1421 C 0.27906 0.17603 0.38034 0.0
C1422 C 0.28592 0.18071 0.42266 0.0
C1423 C 0.28215 0.16977 0.43624 0.0
C1424 C 0.29678 0.16009 0.44265 0.0
C1425 C 0.31524 0.1615 0.43505 0.0
C1426 C 0.31891 0.17225 0.42127 0.0
H1427 H 0.27569 0.17247 0.3656 0.0
H1428 H 0.28217 0.16292 0.38536 0.0
H1429 H 0.26572 0.1807 0.38657 0.0
H1430 H 0.27457 0.1885 0.41843 0.0
H1431 H 0.26786 0.16921 0.44195 0.0
H1432 H 0.54625 0.44074 0.91858 0.0
H1433 H 0.52341 0.44727 0.89551 0.0
H1434 H 0.52429 0.50461 0.9238 0.0
H1435 H 0.54686 0.49812 0.94721 0.0
H1436 H 0.48515 0.46057 0.89949 0.0
H1437 H 0.5402 0.51099 0.87203 0.0
H1438 H 0.54724 0.4946 0.88617 0.0
H1439 H 0.53748 0.51574 0.89586 0.0
C1440 C 0.54136 0.45465 0.92009 0.0
C1441 C 0.54843 0.46891 0.93478 0.0
C1442 C 0.52841 0.45839 0.90681 0.0
C1443 C 0.52238 0.47648 0.90784 0.0
C1444 C 0.52904 0.49065 0.92262 0.0
H1445 H 0.4522 0.52248 0.83031 0.0
H1446 H 0.47204 0.51869 0.85679 0.0
C1447 C 0.54195 0.48691 0.93596 0.0
C1448 C 0.50923 0.48048 0.89332 0.0
H1449 H 0.50793 0.50591 0.85881 0.0
C1450 C 0.49008 0.47051 0.89061 0.0
C1451 C 0.51571 0.49355 0.88186 0.0
C1452 C 0.53631 0.50428 0.88396 0.0
C1453 C 0.4772 0.47324 0.87668 0.0
C1454 C 0.48383 0.48593 0.86489 0.0
C1455 C 0.50287 0.49617 0.86784 0.0
C1456 C 0.47154 0.48821 0.84901 0.0
C1457 C 0.45653 0.46265 0.87487 0.0
C1458 C 0.46492 0.47241 0.83572 0.0
C1459 C 0.45355 0.4745 0.82064 0.0
C1460 C 0.44872 0.49251 0.81842 0.0
C1461 C 0.45561 0.5084 0.83163 0.0
C1462 C 0.46695 0.50627 0.84676 0.0
H1463 H 0.45193 0.45842 0.88779 0.0
H1464 H 0.4458 0.47145 0.87026 0.0
H1465 H 0.45595 0.44943 0.86486 0.0
H1466 H 0.46871 0.45843 0.83691 0.0
H1467 H 0.44865 0.46198 0.81068 0.0
H1468 H 0.80678 0.77764 0.17255 0.0
H1469 H 0.81221 0.76185 0.14232 0.0
H1470 H 0.75641 0.72596 0.14097 0.0
H1471 H 0.75056 0.74208 0.17099 0.0
H1472 H 0.81455 0.72328 0.13193 0.0
H1473 H 0.75391 0.74531 0.09297 0.0
H1474 H 0.76202 0.75699 0.11548 0.0
H1475 H 0.74607 0.73457 0.11192 0.0
C1476 C 0.79547 0.76666 0.16569 0.0
C1477 C 0.77818 0.76119 0.17415 0.0
C1478 C 0.79866 0.75757 0.14846 0.0
C1479 C 0.7846 0.74292 0.13931 0.0
C1480 C 0.76728 0.73748 0.14765 0.0
H1481 H 0.77908 0.6625 0.0403 0.0
H1482 H 0.77296 0.68143 0.06897 0.0
C1483 C 0.76407 0.74656 0.16489 0.0
C1484 C 0.78856 0.73263 0.12145 0.0
H1485 H 0.7707 0.72096 0.07777 0.0
C1486 C 0.80506 0.72289 0.12004 0.0
C1487 C 0.7761 0.7321 0.106 0.0
C1488 C 0.75863 0.74294 0.10656 0.0
C1489 C 0.80922 0.71227 0.10368 0.0
C1490 C 0.7967 0.71165 0.08826 0.0
C1491 C 0.78026 0.72147 0.08963 0.0
C1492 C 0.8003 0.70062 0.07063 0.0
C1493 C 0.82666 0.70138 0.10316 0.0
C1494 C 0.81755 0.70536 0.06192 0.0
C1495 C 0.82112 0.69456 0.04554 0.0
C1496 C 0.80744 0.67887 0.03753 0.0
C1497 C 0.78996 0.67444 0.04613 0.0
C1498 C 0.78642 0.68525 0.0625 0.0
H1499 H 0.83184 0.6996 0.11681 0.0
H1500 H 0.82296 0.68704 0.09479 0.0
H1501 H 0.839 0.70933 0.09714 0.0
H1502 H 0.82828 0.7174 0.06781 0.0
H1503 H 0.83467 0.69844 0.03924 0.0
H1504 H 0.0696 0.02124 0.12358 0.0
H1505 H 0.05058 0.01773 0.15003 0.0
H1506 H 0.00151 0.03764 0.1251 0.0
H1507 H 0.02041 0.04114 0.09857 0.0
H1508 H 0.03248 0.05035 0.17088 0.0
H1509 H 0.97903 0.98608 0.14333 0.0
H1510 H 0.00267 0.99118 0.134 0.0
H1511 H 0.98318 0.00458 0.12976 0.0
C1512 C 0.05465 0.02456 0.12361 0.0
C1513 C 0.04647 0.03141 0.10897 0.0
C1514 C 0.04386 0.02266 0.13875 0.0
C1515 C 0.02463 0.02731 0.13944 0.0
C1516 C 0.01627 0.03382 0.12475 0.0
H1517 H 0.93631 0.02435 0.21932 0.0
H1518 H 0.95418 0.02642 0.19205 0.0
C1519 C 0.02711 0.0359 0.10966 0.0
C1520 C 0.01365 0.02627 0.15587 0.0
H1521 H 0.97458 1.00146 0.17264 0.0
C1522 C 0.01986 0.03964 0.17133 0.0
C1523 C 0.99709 0.01241 0.15628 0.0
C1524 C 0.99006 0.99762 0.14003 0.0
C1525 C 0.00978 0.03967 0.1872 0.0
C1526 C 0.99339 0.02556 0.18778 0.0
C1527 C 0.98715 0.01223 0.17223 0.0
C1528 C 0.9826 0.02433 0.20438 0.0
C1529 C 0.01651 0.05515 0.20303 0.0
C1530 C 0.99254 0.0222 0.22034 0.0
C1531 C 0.98241 0.02121 0.23599 0.0
C1532 C 0.96203 0.02201 0.23594 0.0
C1533 C 0.95201 0.02374 0.21984 0.0
C1534 C 0.9622 0.0249 0.20423 0.0
H1535 H 0.02493 0.06785 0.19876 0.0
H1536 H 0.00384 0.05973 0.21051 0.0
H1537 H 0.02638 0.04963 0.21231 0.0
H1538 H 0.00816 0.02117 0.2207 0.0
H1539 H 0.99056 0.01965 0.24808 0.0
H1540 H 0.27455 0.75112 0.17978 0.0
H1541 H 0.27061 0.76238 0.15097 0.0
H1542 H 0.30454 0.81647 0.17347 0.0
H1543 H 0.3085 0.80537 0.20213 0.0
H1544 H 0.26894 0.82015 0.15695 0.0
H1545 H 0.31001 0.77151 0.1124 0.0
H1546 H 0.29145 0.75995 0.12476 0.0
H1547 H 0.3127 0.77449 0.13659 0.0
C1548 C 0.28145 0.76528 0.17845 0.0
C1549 C 0.29169 0.77741 0.19327 0.0
C1550 C 0.2792 0.77169 0.16199 0.0
C1551 C 0.28735 0.79025 0.16005 0.0
C1552 C 0.29806 0.80213 0.17468 0.0
H1553 H 0.30363 0.84575 0.0671 0.0
H1554 H 0.30702 0.82986 0.09318 0.0
C1555 C 0.30026 0.79578 0.19107 0.0
C1556 C 0.28386 0.79791 0.14322 0.0
H1557 H 0.29292 0.79257 0.09863 0.0
C1558 C 0.27413 0.81408 0.14418 0.0
C1559 C 0.29079 0.79007 0.12662 0.0
C1560 C 0.30197 0.77314 0.12495 0.0
C1561 C 0.27123 0.82271 0.12904 0.0
C1562 C 0.27795 0.81476 0.11238 0.0
C1563 C 0.28765 0.79855 0.11138 0.0
C1564 C 0.27569 0.82356 0.09603 0.0
C1565 C 0.26151 0.84061 0.13115 0.0
C1566 C 0.25693 0.82504 0.08879 0.0
C1567 C 0.25493 0.83419 0.07391 0.0
C1568 C 0.27167 0.84195 0.06591 0.0
C1569 C 0.29043 0.84002 0.07296 0.0
C1570 C 0.2924 0.83089 0.08784 0.0
H1571 H 0.2615 0.84734 0.14546 0.0
H1572 H 0.26905 0.85121 0.12354 0.0
H1573 H 0.24598 0.83695 0.12579 0.0
H1574 H 0.24382 0.81919 0.0947 0.0
H1575 H 0.24026 0.83528 0.06876 0.0
H1576 H 0.99353 0.48913 0.08043 0.0
H1577 H 0.0081 0.48808 0.1103 0.0
H1578 H 0.06589 0.49155 0.08932 0.0
H1579 H 0.05163 0.49336 0.05974 0.0
H1580 H 0.03064 0.46201 0.12151 0.0
H1581 H 0.0733 0.5345 0.13215 0.0
H1582 H 0.0541 0.52673 0.1146 0.0
H1583 H 0.0783 0.52001 0.11162 0.0
C1584 C 0.00936 0.48988 0.08223 0.0
C1585 C 0.02139 0.49135 0.06766 0.0
C1586 C 0.01765 0.48915 0.09928 0.0
C1587 C 0.03811 0.49003 0.10211 0.0
C1588 C 0.0501 0.49121 0.08755 0.0
H1589 H 0.12024 0.48642 0.19071 0.0
H1590 H 0.1036 0.48573 0.16137 0.0
C1591 C 0.04187 0.49199 0.07056 0.0
C1592 C 0.04701 0.48948 0.12019 0.0
H1593 H 0.08099 0.51403 0.15256 0.0
C1594 C 0.04153 0.47344 0.12838 0.0
C1595 C 0.06121 0.50442 0.12915 0.0
C1596 C 0.06695 0.52247 0.12153 0.0
C1597 C 0.05028 0.47172 0.14505 0.0
C1598 C 0.06471 0.48652 0.15382 0.0
C1599 C 0.07003 0.50263 0.14573 0.0
C1600 C 0.07447 0.4857 0.17147 0.0
C1601 C 0.04438 0.45389 0.15294 0.0
C1602 C 0.0636 0.48588 0.18687 0.0
C1603 C 0.07306 0.48631 0.20367 0.0
C1604 C 0.0936 0.48661 0.2054 0.0
C1605 C 0.1044 0.48613 0.18987 0.0
C1606 C 0.09493 0.48578 0.17309 0.0
H1607 H 0.0366 0.44213 0.14277 0.0
H1608 H 0.05748 0.44893 0.15878 0.0
H1609 H 0.03432 0.45707 0.16388 0.0
H1610 H 0.04785 0.48615 0.18597 0.0
H1611 H 0.06429 0.48673 0.21534 0.0
H1612 H 0.34714 0.74095 0.27349 0.0
H1613 H 0.37712 0.73982 0.29146 0.0
H1614 H 0.38101 0.68337 0.26308 0.0
H1615 H 0.35116 0.68449 0.24474 0.0
H1616 H 0.38382 0.6867 0.30099 0.0
H1617 H 0.43494 0.74302 0.2774 0.0
H1618 H 0.41181 0.75033 0.284 0.0
H1619 H 0.41234 0.73187 0.26495 0.0
C1620 C 0.3546 0.72846 0.27073 0.0
C1621 C 0.34674 0.71283 0.25759 0.0
C1622 C 0.37173 0.72783 0.28107 0.0
C1623 C 0.3814 0.7116 0.27848 0.0
C1624 C 0.37378 0.69606 0.26526 0.0
H1625 H 0.49518 0.7059 0.33212 0.0
H1626 H 0.46801 0.70319 0.30954 0.0
C1627 C 0.35668 0.6967 0.25485 0.0
C1628 C 0.39877 0.71046 0.29031 0.0
H1629 H 0.44517 0.73254 0.30426 0.0
C1630 C 0.39731 0.69661 0.30159 0.0
C1631 C 0.41641 0.72327 0.29095 0.0
C1632 C 0.41912 0.73786 0.27857 0.0
C1633 C 0.41278 0.69564 0.31395 0.0
C1634 C 0.43008 0.709 0.31514 0.0
C1635 C 0.43182 0.72242 0.30342 0.0
C1636 C 0.44629 0.70968 0.32884 0.0
C1637 C 0.4105 0.68037 0.32564 0.0
C1638 C 0.44307 0.71425 0.34717 0.0
C1639 C 0.45855 0.71586 0.3601 0.0
C1640 C 0.47758 0.71295 0.35494 0.0
C1641 C 0.4807 0.70814 0.33656 0.0
C1642 C 0.46521 0.70663 0.32363 0.0
H1643 H 0.39886 0.66842 0.31997 0.0
H1644 H 0.42456 0.67457 0.32736 0.0
H1645 H 0.40625 0.68664 0.33911 0.0
H1646 H 0.42865 0.71696 0.35146 0.0
H1647 H 0.45564 0.71965 0.37412 0.0
H1648 H 0.00512 0.41933 0.98359 0.0
H1649 H 0.00662 0.38522 0.97381 0.0
H1650 H 0.06717 0.39827 0.96113 0.0
H1651 H 0.06584 0.43228 0.97102 0.0
H1652 H 0.01589 0.36986 0.9381 0.0
H1653 H 0.06769 0.35348 0.98971 0.0
H1654 H 0.05464 0.37399 0.99338 0.0
H1655 H 0.07606 0.37444 0.98032 0.0
C1656 C 0.01886 0.41486 0.97909 0.0
C1657 C 0.03536 0.42845 0.97803 0.0
C1658 C 0.01967 0.39542 0.97344 0.0
C1659 C 0.03706 0.38924 0.96692 0.0
C1660 C 0.05371 0.40272 0.96637 0.0
H1661 H 0.07708 0.28784 0.91249 0.0
H1662 H 0.07313 0.31922 0.92902 0.0
C1663 C 0.05287 0.42214 0.97188 0.0
C1664 C 0.03742 0.36894 0.95923 0.0
H1665 H 0.06109 0.33055 0.96291 0.0
C1666 C 0.02556 0.36114 0.94363 0.0
C1667 C 0.05017 0.35772 0.96643 0.0
C1668 C 0.06276 0.36523 0.98348 0.0
C1669 C 0.02665 0.34263 0.93462 0.0
C1670 C 0.03962 0.33145 0.94168 0.0
C1671 C 0.05117 0.33913 0.95752 0.0
C1672 C 0.042 0.31207 0.93241 0.0
C1673 C 0.01454 0.33555 0.91721 0.0
C1674 C 0.02589 0.29749 0.92913 0.0
C1675 C 0.02805 0.27957 0.91955 0.0
C1676 C 0.04645 0.27582 0.91326 0.0
C1677 C 0.0627 0.29026 0.91709 0.0
C1678 C 0.06048 0.3082 0.92657 0.0
H1679 H 0.00938 0.34745 0.91138 0.0
H1680 H 0.02311 0.32753 0.90715 0.0
H1681 H 0.00136 0.3258 0.91975 0.0
H1682 H 0.01159 0.30001 0.93388 0.0
H1683 H 0.01528 0.26871 0.91697 0.0
H1684 H 0.70224 0.75151 0.24736 0.0
H1685 H 0.67197 0.75099 0.26363 0.0
H1686 H 0.70399 0.74222 0.31107 0.0
H1687 H 0.7343 0.74279 0.29493 0.0
H1688 H 0.67051 0.71571 0.30124 0.0
H1689 H 0.65308 0.78953 0.30314 0.0
H1690 H 0.65736 0.77745 0.28119 0.0
H1691 H 0.67713 0.78304 0.29824 0.0
C1692 C 0.70293 0.74992 0.26138 0.0
C1693 C 0.72066 0.74713 0.26984 0.0
C1694 C 0.68561 0.74963 0.27066 0.0
C1695 C 0.68575 0.74671 0.2886 0.0
C1696 C 0.70355 0.74449 0.29723 0.0
H1697 H 0.59703 0.72695 0.36546 0.0
H1698 H 0.62761 0.73193 0.35009 0.0
C1699 C 0.72083 0.74475 0.28797 0.0
C1700 C 0.66717 0.74447 0.298 0.0
H1701 H 0.62841 0.7672 0.31242 0.0
C1702 C 0.66136 0.72701 0.30379 0.0
C1703 C 0.6552 0.75918 0.30117 0.0
C1704 C 0.66104 0.77843 0.29576 0.0
C1705 C 0.64379 0.72375 0.31248 0.0
C1706 C 0.63187 0.73849 0.31576 0.0
C1707 C 0.63761 0.75594 0.30991 0.0
C1708 C 0.61337 0.73601 0.32525 0.0
C1709 C 0.63792 0.7044 0.3177 0.0
C1710 C 0.59527 0.73715 0.31655 0.0
C1711 C 0.57776 0.7344 0.32532 0.0
C1712 C 0.57804 0.73055 0.34301 0.0
C1713 C 0.59626 0.72974 0.35179 0.0
C1714 C 0.61375 0.73251 0.34301 0.0
H1715 H 0.64583 0.69334 0.31019 0.0
H1716 H 0.64166 0.70521 0.33224 0.0
H1717 H 0.62183 0.69982 0.31524 0.0
H1718 H 0.59467 0.73993 0.30287 0.0
H1719 H 0.564 0.7352 0.31818 0.0
H1720 H 0.04071 0.08263 0.02389 0.0
H1721 H 0.03178 0.09234 0.99526 0.0
H1722 H 0.08634 0.13064 0.9995 0.0
H1723 H 0.09543 0.12083 0.02784 0.0
H1724 H 0.02716 0.12997 0.99204 0.0
H1725 H 0.08357 0.10436 0.9471 0.0
H1726 H 0.07827 0.09525 0.96764 0.0
H1727 H 0.09391 0.11758 0.96827 0.0
C1728 C 0.05101 0.09274 0.01845 0.0
C1729 C 0.06875 0.10101 0.02811 0.0
C1730 C 0.04585 0.09835 0.00217 0.0
C1731 C 0.05848 0.11208 0.99516 0.0
C1732 C 0.07652 0.11978 0.00446 0.0
H1733 H 0.05981 0.18827 0.91913 0.0
H1734 H 0.06629 0.16823 0.94138 0.0
C1735 C 0.08162 0.11429 0.02074 0.0
C1736 C 0.05214 0.11983 0.97913 0.0
H1737 H 0.06664 0.12896 0.9382 0.0
C1738 C 0.03556 0.12948 0.98011 0.0
C1739 C 0.06319 0.11924 0.96364 0.0
C1740 C 0.08062 0.10839 0.96148 0.0
C1741 C 0.03031 0.13936 0.96643 0.0
C1742 C 0.04173 0.13928 0.95117 0.0
C1743 C 0.05792 0.12907 0.94992 0.0
C1744 C 0.03786 0.15065 0.93694 0.0
C1745 C 0.01317 0.1506 0.96886 0.0
C1746 C 0.01984 0.14721 0.92678 0.0
C1747 C 0.01603 0.15873 0.91408 0.0
C1748 C 0.03024 0.17382 0.91119 0.0
C1749 C 0.04849 0.17683 0.92103 0.0
C1750 C 0.05225 0.16536 0.93374 0.0
H1751 H 0.00876 0.15266 0.98297 0.0
H1752 H 0.01681 0.16484 0.96482 0.0
H1753 H 1.00031 0.14279 0.96023 0.0
H1754 H 0.00867 0.13569 0.92876 0.0
H1755 H 0.00188 0.1559 0.90664 0.0
H1756 H 0.36419 0.31414 0.29037 0.0
H1757 H 0.38691 0.31024 0.26626 0.0
H1758 H 0.36432 0.25033 0.25354 0.0
H1759 H 0.34097 0.25425 0.27713 0.0
H1760 H 0.41623 0.28802 0.26328 0.0
H1761 H 0.36326 0.26572 0.20431 0.0
H1762 H 0.35599 0.27603 0.22604 0.0
H1763 H 0.35904 0.25118 0.22144 0.0
C1764 C 0.36371 0.30021 0.28219 0.0
C1765 C 0.35061 0.28453 0.28565 0.0
C1766 C 0.37684 0.29798 0.26849 0.0
C1767 C 0.37716 0.28006 0.25789 0.0
C1768 C 0.36409 0.26439 0.26126 0.0
H1769 H 0.45208 0.23091 0.17889 0.0
H1770 H 0.42715 0.23759 0.2005 0.0
C1771 C 0.3509 0.26661 0.27492 0.0
C1772 C 0.39186 0.27756 0.24398 0.0
H1773 H 0.39673 0.26145 0.19948 0.0
C1774 C 0.41196 0.28239 0.24929 0.0
C1775 C 0.38629 0.27019 0.22573 0.0
C1776 C 0.36497 0.26565 0.21898 0.0
C1777 C 0.42662 0.27957 0.23698 0.0
C1778 C 0.42104 0.27193 0.21881 0.0
C1779 C 0.40096 0.26728 0.21344 0.0
C1780 C 0.43586 0.26817 0.20529 0.0
C1781 C 0.44797 0.28425 0.24362 0.0
C1782 C 0.44885 0.28318 0.20057 0.0
C1783 C 0.46313 0.27943 0.18817 0.0
C1784 C 0.46467 0.26056 0.18024 0.0
C1785 C 0.45138 0.2456 0.18477 0.0
C1786 C 0.43708 0.24938 0.19711 0.0
H1787 H 0.44977 0.28611 0.25849 0.0
H1788 H 0.45651 0.27284 0.23777 0.0
H1789 H 0.45437 0.29777 0.23937 0.0
H1790 H 0.44796 0.29782 0.20652 0.0
H1791 H 0.47308 0.29128 0.18494 0.0
H1792 H 0.59166 0.37809 0.009 0.0
H1793 H 0.58136 0.36553 0.036 0.0
H1794 H 0.53311 0.39872 0.03916 0.0
H1795 H 0.54319 0.41117 0.01193 0.0
H1796 H 0.57425 0.38404 0.072 0.0
H1797 H 0.50704 0.34209 0.03471 0.0
H1798 H 0.52749 0.35243 0.02342 0.0
H1799 H 0.51076 0.3673 0.03417 0.0
C1800 C 0.57895 0.38284 0.01553 0.0
C1801 C 0.5681 0.39545 0.00823 0.0
C1802 C 0.57314 0.37573 0.031 0.0
C1803 C 0.55632 0.38098 0.03941 0.0
C1804 C 0.54602 0.39432 0.03272 0.0
H1805 H 0.49204 0.32506 0.11904 0.0
H1806 H 0.50285 0.34753 0.09896 0.0
C1807 C 0.55188 0.40154 0.01727 0.0
C1808 C 0.54897 0.37147 0.05443 0.0
H1809 H 0.51231 0.3386 0.06478 0.0
C1810 C 0.56062 0.37422 0.07052 0.0
C1811 C 0.5312 0.35867 0.05244 0.0
C1812 C 0.51839 0.35476 0.03524 0.0
C1813 C 0.55503 0.3644 0.08464 0.0
C1814 C 0.53756 0.35113 0.08243 0.0
C1815 C 0.52568 0.34877 0.06649 0.0
C1816 C 0.53175 0.33879 0.09598 0.0
C1817 C 0.56785 0.36844 0.10182 0.0
C1818 C 0.54441 0.32642 0.10107 0.0
C1819 C 0.53831 0.31362 0.11263 0.0
C1820 C 0.51931 0.31275 0.11916 0.0
C1821 C 0.50676 0.32535 0.11427 0.0
C1822 C 0.51292 0.33821 0.10278 0.0
H1823 H 0.57654 0.3829 0.10365 0.0
H1824 H 0.55893 0.36732 0.11369 0.0
H1825 H 0.57841 0.35789 0.10126 0.0
H1826 H 0.5588 0.32621 0.09566 0.0
H1827 H 0.54831 0.30405 0.11601 0.0
H1828 H 0.7011 0.21314 0.22308 0.0
H1829 H 0.66847 0.21948 0.21385 0.0
H1830 H 0.66332 0.25165 0.26639 0.0
H1831 H 0.69634 0.24574 0.27565 0.0
H1832 H 0.63143 0.21133 0.22832 0.0
H1833 H 0.65418 0.28941 0.23195 0.0
H1834 H 0.67182 0.27283 0.23229 0.0
H1835 H 0.65887 0.27976 0.252 0.0
C1836 C 0.69308 0.22164 0.23267 0.0
C1837 C 0.70143 0.22918 0.25002 0.0
C1838 C 0.67437 0.22513 0.22741 0.0
C1839 C 0.66361 0.23628 0.23933 0.0
C1840 C 0.67154 0.24327 0.25689 0.0
H1841 H 0.55357 0.27897 0.21348 0.0
H1842 H 0.58207 0.27127 0.22992 0.0
C1843 C 0.69031 0.23974 0.26221 0.0
C1844 C 0.64434 0.24085 0.23301 0.0
H1845 H 0.6214 0.27738 0.22212 0.0
C1846 C 0.62916 0.22578 0.2271 0.0
C1847 C 0.64142 0.25973 0.23146 0.0
C1848 C 0.65743 0.2764 0.23712 0.0
C1849 C 0.61123 0.22904 0.21942 0.0
C1850 C 0.60857 0.24783 0.21728 0.0
C1851 C 0.62349 0.26298 0.22374 0.0
C1852 C 0.59087 0.25196 0.20754 0.0
C1853 C 0.59531 0.21233 0.21364 0.0
C1854 C 0.58648 0.24382 0.18945 0.0
C1855 C 0.57024 0.24819 0.18002 0.0
C1856 C 0.55811 0.26091 0.18846 0.0
C1857 C 0.56257 0.26909 0.20658 0.0
C1858 C 0.57885 0.26471 0.21601 0.0
H1859 H 0.59716 0.20034 0.22097 0.0
H1860 H 0.58046 0.21653 0.21589 0.0
H1861 H 0.59614 0.20705 0.19909 0.0
H1862 H 0.59582 0.23429 0.18253 0.0
H1863 H 0.5673 0.2417 0.16607 0.0
H1864 H 0.43644 0.08065 0.01434 0.0
H1865 H 0.44743 0.10859 0.03683 0.0
H1866 H 0.50277 0.1168 0.01181 0.0
H1867 H 0.4923 0.08794 0.98968 0.0
H1868 H 0.50834 0.12205 0.04767 0.0
H1869 H 0.44977 0.16322 0.03039 0.0
H1870 H 0.43949 0.14053 0.03553 0.0
H1871 H 0.45426 0.14155 0.01634 0.0
C1872 C 0.4511 0.08813 0.0137 0.0
C1873 C 0.46353 0.08186 1.00018 0.0
C1874 C 0.45723 0.10439 0.02643 0.0
C1875 C 0.47574 0.1151 0.02579 0.0
C1876 C 0.48832 0.10887 0.01246 0.0
H1877 H 0.502 0.2276 0.09331 0.0
H1878 H 0.49577 0.20162 0.06768 0.0
C1879 C 0.48226 0.09243 0.99975 0.0
C1880 C 0.48199 0.13248 0.03938 0.0
H1881 H 0.4667 0.17386 0.05935 0.0
C1882 C 0.49936 0.1335 0.05009 0.0
C1883 C 0.47052 0.14764 0.04233 0.0
C1884 C 0.4526 0.14829 0.03039 0.0
C1885 C 0.50513 0.14885 0.06412 0.0
C1886 C 0.49288 0.1633 0.0679 0.0
C1887 C 0.47595 0.16266 0.0567 0.0
C1888 C 0.49714 0.17908 0.08348 0.0
C1889 C 0.5244 0.14946 0.07461 0.0
C1890 C 0.49969 0.1751 0.10097 0.0
C1891 C 0.50349 0.18994 0.11563 0.0
C1892 C 0.50439 0.20907 0.11315 0.0
C1893 C 0.50137 0.21302 0.09569 0.0
C1894 C 0.49784 0.19818 0.08101 0.0
H1895 H 0.53477 0.14147 0.0665 0.0
H1896 H 0.53158 0.16436 0.07908 0.0
H1897 H 0.52161 0.14264 0.08664 0.0
H1898 H 0.49858 0.1605 0.10335 0.0
H1899 H 0.50555 0.1864 0.12892 0.0
H1900 H 0.26833 0.32247 0.73619 0.0
H1901 H 0.2852 0.35522 0.74522 0.0
H1902 H 0.33157 0.34245 0.71008 0.0
H1903 H 0.31525 0.3098 0.70135 0.0
H1904 H 0.32598 0.36712 0.76038 0.0
H1905 H 0.31233 0.39112 0.69533 0.0
H1906 H 0.29798 0.37054 0.7018 0.0
H1907 H 0.32201 0.3688 0.69345 0.0
C1908 C 0.28217 0.32662 0.73047 0.0
C1909 C 0.29028 0.31355 0.71785 0.0
C1910 C 0.29172 0.34534 0.73558 0.0
C1911 C 0.30942 0.3513 0.72805 0.0
C1912 C 0.31769 0.33824 0.71573 0.0
H1913 H 0.39995 0.44533 0.7319 0.0
H1914 H 0.37676 0.41589 0.72588 0.0
C1915 C 0.30827 0.31958 0.7107 0.0
C1916 C 0.3197 0.37103 0.73323 0.0
H1917 H 0.33696 0.41062 0.71564 0.0
C1918 C 0.32816 0.3768 0.75073 0.0
C1919 C 0.32249 0.38354 0.72055 0.0
C1920 C 0.31309 0.3783 0.70176 0.0
C1921 C 0.34023 0.39444 0.75565 0.0
C1922 C 0.34355 0.4067 0.74278 0.0
C1923 C 0.33447 0.40117 0.72547 0.0
C1924 C 0.35734 0.4248 0.7466 0.0
C1925 C 0.35008 0.39937 0.77429 0.0
C1926 C 0.35399 0.43972 0.76012 0.0
C1927 C 0.3673 0.4566 0.76367 0.0
C1928 C 0.38411 0.45891 0.75363 0.0
C1929 C 0.3872 0.44404 0.7399 0.0
C1930 C 0.37394 0.42719 0.73642 0.0
H1931 H 0.34946 0.38671 0.78116 0.0
H1932 H 0.36573 0.40553 0.77383 0.0
H1933 H 0.34247 0.41019 0.78248 0.0
H1934 H 0.34106 0.43833 0.7679 0.0
H1935 H 0.36443 0.46782 0.77426 0.0
H1936 H 0.30069 0.68678 0.82886 0.0
H1937 H 0.32125 0.66111 0.82683 0.0
H1938 H 0.27987 0.62628 0.78676 0.0
H1939 H 0.2593 0.65192 0.78865 0.0
H1940 H 0.31383 0.62394 0.83254 0.0
H1941 H 0.33146 0.62631 0.76179 0.0
H1942 H 0.3201 0.64472 0.77511 0.0
H1943 H 0.3055 0.62267 0.76492 0.0
C1944 C 0.29587 0.67358 0.81975 0.0
C1945 C 0.27842 0.67142 0.80883 0.0
C1946 C 0.30767 0.65896 0.81855 0.0
C1947 C 0.3023 0.64193 0.8064 0.0
C1948 C 0.28457 0.63949 0.7959 0.0
H1949 H 0.34841 0.53446 0.80431 0.0
H1950 H 0.329 0.56093 0.80873 0.0
C1951 C 0.27281 0.65413 0.79703 0.0
C1952 C 0.31527 0.62675 0.80464 0.0
H1953 H 0.34087 0.60025 0.77443 0.0
C1954 C 0.31981 0.6188 0.81986 0.0
C1955 C 0.32336 0.62029 0.78816 0.0
C1956 C 0.32004 0.62905 0.7716 0.0
C1957 C 0.33185 0.60427 0.81894 0.0
C1958 C 0.33924 0.59726 0.80227 0.0
C1959 C 0.33505 0.6055 0.78716 0.0
C1960 C 0.35129 0.58133 0.80014 0.0
C1961 C 0.33677 0.59679 0.83589 0.0
C1962 C 0.37014 0.58384 0.79345 0.0
C1963 C 0.38122 0.56866 0.79072 0.0
C1964 C 0.37363 0.55063 0.79458 0.0
C1965 C 0.35477 0.54818 0.80132 0.0
C1966 C 0.34368 0.56335 0.80398 0.0
H1967 H 0.33494 0.60721 0.84808 0.0
H1968 H 0.32666 0.5835 0.83643 0.0
H1969 H 0.35212 0.59344 0.83623 0.0
H1970 H 0.37627 0.59757 0.79031 0.0
H1971 H 0.39568 0.57104 0.78549 0.0
H1972 H 0.93656 0.49537 0.4671 0.0
H1973 H 0.91175 0.47067 0.47501 0.0
H1974 H 0.88751 0.51338 0.51122 0.0
H1975 H 0.91208 0.53814 0.50331 0.0
H1976 H 0.89225 0.4804 0.52584 0.0
H1977 H 0.85302 0.4627 0.45846 0.0
H1978 H 0.87899 0.46137 0.45853 0.0
H1979 H 0.87051 0.48401 0.46513 0.0
C1980 C 0.92588 0.49951 0.47668 0.0
C1981 C 0.92631 0.51875 0.48455 0.0
C1982 C 0.91172 0.48539 0.48117 0.0
C1983 C 0.89764 0.49023 0.49353 0.0
C1984 C 0.89824 0.50934 0.50165 0.0
H1985 H 0.78695 0.42435 0.51102 0.0
H1986 H 0.81321 0.44845 0.50458 0.0
C1987 C 0.91238 0.52346 0.49718 0.0
C1988 C 0.88218 0.47547 0.49798 0.0
H1989 H 0.84254 0.44332 0.4799 0.0
C1990 C 0.88139 0.47226 0.51581 0.0
C1991 C 0.86787 0.46507 0.4849 0.0
C1992 C 0.86745 0.46852 0.4657 0.0
C1993 C 0.86678 0.4588 0.52089 0.0
C1994 C 0.85273 0.44812 0.50773 0.0
C1995 C 0.85342 0.45144 0.48993 0.0
C1996 C 0.83694 0.43367 0.51219 0.0
C1997 C 0.86623 0.4564 0.54036 0.0
C1998 C 0.84157 0.41731 0.51854 0.0
C1999 C 0.82658 0.40348 0.52224 0.0
C2000 C 0.80667 0.40573 0.51959 0.0
C2001 C 0.80211 0.42218 0.51326 0.0
C2002 C 0.8171 0.43596 0.50954 0.0
H2003 H 0.87493 0.46868 0.54932 0.0
H2004 H 0.85085 0.45482 0.54461 0.0
H2005 H 0.87258 0.4433 0.54215 0.0
H2006 H 0.85678 0.41509 0.52039 0.0
H2007 H 0.83062 0.39096 0.52702 0.0
H2008 H 0.80054 0.89142 0.8195 0.0
H2009 H 0.77828 0.90849 0.80429 0.0
H2010 H 0.74092 0.85545 0.78475 0.0
H2011 H 0.76296 0.83826 0.80045 0.0
H2012 H 0.76455 0.90553 0.76865 0.0
H2013 H 0.7034 0.88797 0.81238 0.0
H2014 H 0.72831 0.88401 0.81735 0.0
H2015 H 0.71315 0.86802 0.80002 0.0
C2016 C 0.78762 0.88335 0.81192 0.0
C2017 C 0.78336 0.86352 0.81141 0.0
C2018 C 0.77496 0.89313 0.80314 0.0
C2019 C 0.75773 0.88332 0.79368 0.0
C2020 C 0.75394 0.86336 0.79228 0.0
H2021 H 0.66158 0.93899 0.75363 0.0
H2022 H 0.68197 0.91435 0.75855 0.0
C2023 C 0.76665 0.85353 0.80109 0.0
C2024 C 0.74349 0.89435 0.78611 0.0
H2025 H 0.69797 0.90825 0.79173 0.0
C2026 C 0.74991 0.90596 0.77355 0.0
C2027 C 0.72436 0.89489 0.79248 0.0
C2028 C 0.71685 0.88319 0.8064 0.0
C2029 C 0.73794 0.91845 0.76754 0.0
C2030 C 0.71916 0.91957 0.77449 0.0
C2031 C 0.71238 0.90737 0.78644 0.0
C2032 C 0.70703 0.93436 0.77069 0.0
C2033 C 0.74561 0.9305 0.75396 0.0
C2034 C 0.71425 0.95377 0.77605 0.0
C2035 C 0.70266 0.96783 0.77334 0.0
C2036 C 0.68351 0.96281 0.76526 0.0
C2037 C 0.67628 0.94335 0.75984 0.0
C2038 C 0.6879 0.92925 0.76264 0.0
H2039 H 0.75708 0.92398 0.74604 0.0
H2040 H 0.73353 0.93255 0.74459 0.0
H2041 H 0.75238 0.94474 0.7611 0.0
H2042 H 0.72879 0.95805 0.78264 0.0
H2043 H 0.7087 0.98265 0.77774 0.0
H2044 H 0.63248 0.46911 0.96735 0.0
H2045 H 0.66202 0.49289 0.9725 0.0
H2046 H 0.6257 0.53795 0.98112 0.0
H2047 H 0.59611 0.51426 0.97647 0.0
H2048 H 0.67136 0.52151 0.95185 0.0
H2049 H 0.6667 0.55279 0.02337 0.0
H2050 H 0.65279 0.53021 0.01329 0.0
H2051 H 0.64459 0.55223 0.00975 0.0
C2052 C 0.63078 0.48405 0.9708 0.0
C2053 C 0.61193 0.48979 0.97157 0.0
C2054 C 0.64767 0.49762 0.97359 0.0
C2055 C 0.64607 0.51717 0.97736 0.0
C2056 C 0.6273 0.52293 0.97853 0.0
H2057 H 0.72532 0.62307 0.98799 0.0
H2058 H 0.6971 0.59796 0.98544 0.0
C2059 C 0.6104 0.50938 0.97572 0.0
C2060 C 0.66393 0.53158 0.97883 0.0
H2061 H 0.6898 0.56961 0.00671 0.0
C2062 C 0.67551 0.53193 0.96389 0.0
C2063 C 0.66924 0.5452 0.99452 0.0
C2064 C 0.6578 0.54504 0.01121 0.0
C2065 C 0.69199 0.54585 0.96406 0.0
C2066 C 0.69722 0.55957 0.97971 0.0
C2067 C 0.68573 0.55911 0.99471 0.0
C2068 C 0.71442 0.57467 0.98075 0.0
C2069 C 0.7033 0.54609 0.9473 0.0
C2070 C 0.73356 0.56991 0.97899 0.0
C2071 C 0.74975 0.58425 0.98037 0.0
C2072 C 0.7471 0.60362 0.98368 0.0
C2073 C 0.7279 0.60831 0.9854 0.0
C2074 C 0.71174 0.59398 0.98399 0.0
H2075 H 0.69459 0.53786 0.93523 0.0
H2076 H 0.70768 0.56093 0.94495 0.0
H2077 H 0.71689 0.5395 0.94889 0.0
H2078 H 0.73602 0.55511 0.97682 0.0
H2079 H 0.76434 0.58013 0.9791 0.0
H2080 H 0.28625 0.67588 0.2637 0.0
H2081 H 0.26101 0.64838 0.26305 0.0
H2082 H 0.24157 0.65331 0.20931 0.0
H2083 H 0.26724 0.68074 0.20969 0.0
H2084 H 0.21984 0.6468 0.25779 0.0
H2085 H 0.25063 0.59673 0.20554 0.0
H2086 H 0.26493 0.61845 0.21715 0.0
H2087 H 0.24693 0.6194 0.19961 0.0
C2088 C 0.27681 0.67098 0.25162 0.0
C2089 C 0.27894 0.68034 0.23663 0.0
C2090 C 0.26228 0.65535 0.25134 0.0
C2091 C 0.24958 0.64867 0.23607 0.0
C2092 C 0.25144 0.65808 0.22113 0.0
H2093 H 0.14275 0.56695 0.23483 0.0
H2094 H 0.16609 0.59519 0.23236 0.0
C2095 C 0.26599 0.67381 0.22142 0.0
C2096 C 0.2343 0.63199 0.23608 0.0
H2097 H 0.22053 0.58539 0.21697 0.0
C2098 C 0.2199 0.6334 0.2488 0.0
C2099 C 0.23459 0.61448 0.22447 0.0
C2100 C 0.25016 0.612 0.21099 0.0
C2101 C 0.20581 0.61772 0.25029 0.0
C2102 C 0.20602 0.60025 0.23861 0.0
C2103 C 0.22037 0.59885 0.22583 0.0
C2104 C 0.19184 0.58307 0.23985 0.0
C2105 C 0.19118 0.61983 0.26469 0.0
C2106 C 0.19861 0.56677 0.24457 0.0
C2107 C 0.18533 0.55059 0.24598 0.0
C2108 C 0.165 0.55036 0.24256 0.0
C2109 C 0.15829 0.56667 0.23766 0.0
C2110 C 0.17159 0.58286 0.23629 0.0
H2111 H 0.19568 0.63273 0.27498 0.0
H2112 H 0.17663 0.62112 0.25846 0.0
H2113 H 0.18939 0.60709 0.27148 0.0
H2114 H 0.2142 0.56664 0.24733 0.0
H2115 H 0.19101 0.53826 0.24972 0.0
H2116 H 0.95727 0.50913 0.04915 0.0
H2117 H 0.93099 0.52809 0.04395 0.0
H2118 H 0.9622 0.54865 1.00075 0.0
H2119 H 0.98883 0.5305 0.00636 0.0
H2120 H 0.94682 0.57696 0.02157 0.0
H2121 H 0.88988 0.51361 0.00237 0.0
H2122 H 0.90153 0.51551 0.02436 0.0
H2123 H 0.91575 0.51167 0.00488 0.0
C2124 C 0.95865 0.51789 0.0387 0.0
C2125 C 0.97505 0.51807 0.02801 0.0
C2126 C 0.9435 0.52854 0.0356 0.0
C2127 C 0.9444 0.53946 0.02169 0.0
C2128 C 0.96107 0.54019 0.01144 0.0
H2129 H 0.84938 0.57949 0.96681 0.0
H2130 H 0.87647 0.56344 0.97601 0.0
C2131 C 0.97622 0.52965 0.01457 0.0
C2132 C 0.92798 0.54997 0.0175 0.0
H2133 H 0.87926 0.54387 0.00373 0.0
C2134 C 0.93203 0.56975 0.01772 0.0
C2135 C 0.90875 0.54049 0.01221 0.0
C2136 C 0.90369 0.51913 0.01075 0.0
C2137 C 0.91742 0.58028 0.01276 0.0
C2138 C 0.8981 0.57086 0.0078 0.0
C2139 C 0.89404 0.5511 0.00764 0.0
C2140 C 0.882 0.58107 0.00221 0.0
C2141 C 0.923 0.60129 0.01233 0.0
C2142 C 0.87603 0.59629 0.01389 0.0
C2143 C 0.86064 0.60561 0.00861 0.0
C2144 C 0.85073 0.59972 0.99161 0.0
C2145 C 0.8567 0.58442 0.97997 0.0
C2146 C 0.87216 0.57519 0.98523 0.0
H2147 H 0.93916 0.60511 0.01172 0.0
H2148 H 0.91555 0.60557 1.00063 0.0
H2149 H 0.91839 0.60967 0.02475 0.0
H2150 H 0.88308 0.60081 0.0272 0.0
H2151 H 0.85631 0.61724 0.01796 0.0
H2152 H 0.07414 0.98595 0.06366 0.0
H2153 H 0.09698 0.96319 0.05412 0.0
H2154 H 0.14347 0.00985 0.05385 0.0
H2155 H 0.12095 0.03265 0.06389 0.0
H2156 H 0.11955 0.95881 0.02363 0.0
H2157 H 0.16697 0.97697 0.08667 0.0
H2158 H 0.14284 0.98421 0.0848 0.0
H2159 H 0.16357 0.99711 0.07603 0.0
C2160 C 0.08925 0.99136 0.06164 0.0
C2161 C 0.09572 0.01114 0.06463 0.0
C2162 C 0.10225 0.97834 0.05609 0.0
C2163 C 0.122 0.98481 0.05355 0.0
C2164 C 0.12837 0.00453 0.05602 0.0
H2165 H 0.20951 0.92224 0.99999 0.0
H2166 H 0.18466 0.94314 0.00823 0.0
C2167 C 0.1154 0.01755 0.06156 0.0
C2168 C 0.136 0.97097 0.04849 0.0
H2169 H 0.17872 0.95671 0.06257 0.0
C2170 C 0.13246 0.95829 0.03215 0.0
C2171 C 0.15267 0.97013 0.05975 0.0
C2172 C 0.1567 0.98269 0.07788 0.0
C2173 C 0.14539 0.94508 0.02661 0.0
C2174 C 0.16244 0.94471 0.03759 0.0
C2175 C 0.16574 0.95712 0.05409 0.0
C2176 C 0.17708 0.93158 0.03225 0.0
C2177 C 0.14055 0.93145 0.00916 0.0
C2178 C 0.18136 0.91836 0.04319 0.0
C2179 C 0.19566 0.90645 0.03858 0.0
C2180 C 0.20607 0.90761 0.02298 0.0
C2181 C 0.20172 0.92087 0.01204 0.0
C2182 C 0.18741 0.93277 0.01667 0.0
H2183 H 0.12469 0.93005 0.00487 0.0
H2184 H 0.14924 0.93692 0.99849 0.0
H2185 H 0.14435 0.91708 0.01032 0.0
H2186 H 0.17364 0.91727 0.05533 0.0
H2187 H 0.19866 0.89645 0.04733 0.0
loop_
_geom_bond_atom_site_label_1
_geom_bond_atom_site_label_2
_geom_bond_distance
_geom_bond_site_symmetry_2
_ccdc_geom_bond_type
H0 C1 0.949 . S
C1 H0 0.949 . S
C1 C2 1.395 . S
C1 C3 1.391 . S
C2 C1 1.395 . S
C2 C5 1.390 . S
C3 C1 1.391 . S
C3 C7 1.387 . S
C3 C8 1.491 . S
H4 C5 0.950 . S
C5 C2 1.390 . S
C5 H4 0.950 . S
C5 C6 1.378 . S
C6 C5 1.378 . S
C6 C7 1.409 . S
C7 C3 1.387 . S
C7 C6 1.409 . S
C7 H9 0.951 . S
C8 C3 1.491 . S
C8 C10 1.382 . S
C8 C12 1.404 . S
H9 C7 0.951 . S
C10 C8 1.382 . S
C10 C11 1.390 . S
C10 H15 0.949 . S
C11 C10 1.390 . S
C11 C16 1.399 . S
C12 C8 1.404 . S
C12 H13 0.950 . S
C12 C14 1.375 . S
H13 C12 0.950 . S
C14 C12 1.375 . S
C14 C16 1.382 . S
C14 H18 0.950 . S
H15 C10 0.949 . S
C16 C11 1.399 . S
C16 C14 1.382 . S
C16 H17 0.952 . S
H17 C16 0.952 . S
H18 C14 0.950 . S
H19 C20 0.949 . S
C20 H19 0.949 . S
C20 C21 1.395 . S
C20 C22 1.391 . S
C21 C20 1.395 . S
C21 C24 1.390 . S
C22 C20 1.391 . S
C22 C26 1.387 . S
C22 C27 1.491 . S
H23 C24 0.950 . S
C24 C21 1.390 . S
C24 H23 0.950 . S
C24 C25 1.378 . S
C25 C24 1.378 . S
C25 C26 1.409 . S
C26 C22 1.387 . S
C26 C25 1.409 . S
C26 H28 0.951 . S
C27 C22 1.491 . S
C27 C29 1.382 . S
C27 C31 1.404 . S
H28 C26 0.951 . S
C29 C27 1.382 . S
C29 C30 1.390 . S
C29 H34 0.949 . S
C30 C29 1.390 . S
C30 C35 1.399 . S
C31 C27 1.404 . S
C31 H32 0.950 . S
C31 C33 1.375 . S
H32 C31 0.950 . S
C33 C31 1.375 . S
C33 C35 1.382 . S
C33 H37 0.950 . S
H34 C29 0.949 . S
C35 C30 1.399 . S
C35 C33 1.382 . S
C35 H36 0.952 . S
H36 C35 0.952 . S
H37 C33 0.950 . S
H38 C39 0.949 . S
C39 H38 0.949 . S
C39 C40 1.395 . S
C39 C41 1.391 1_455 S
C40 C39 1.395 . S
C40 C43 1.390 1_455 S
C41 C39 1.391 1_655 S
C41 C45 1.387 . S
C41 C46 1.488 1_654 S
H42 C43 0.950 . S
C43 C40 1.390 1_655 S
C43 H42 0.950 . S
C43 C44 1.378 . S
C44 C43 1.378 . S
C44 C45 1.409 . S
C45 C41 1.387 . S
C45 C44 1.409 . S
C45 H47 0.951 1_554 S
C46 C41 1.488 1_456 S
C46 C48 1.385 . S
C46 C50 1.404 . S
H47 C45 0.951 1_556 S
C48 C46 1.385 . S
C48 C49 1.390 . S
C48 H53 0.949 1_556 S
C49 C48 1.390 . S
C49 C54 1.399 . S
C50 C46 1.404 . S
C50 H51 0.938 1_455 S
C50 C52 1.383 . S
H51 C50 0.938 1_655 S
C52 C50 1.383 . S
C52 C54 1.382 . S
C52 H56 0.950 . S
H53 C48 0.949 1_554 S
C54 C49 1.399 . S
C54 C52 1.382 . S
C54 H55 0.952 . S
H55 C54 0.952 . S
H56 C52 0.950 . S
H57 C58 0.949 . S
C58 H57 0.949 . S
C58 C59 1.395 . S
C58 C60 1.391 . S
C59 C58 1.395 . S
C59 C62 1.390 . S
C60 C58 1.391 . S
C60 C64 1.387 . S
C60 C65 1.491 . S
H61 C62 0.950 . S
C62 C59 1.390 . S
C62 H61 0.950 . S
C62 C63 1.378 . S
C63 C62 1.378 . S
C63 C64 1.409 . S
C64 C60 1.387 . S
C64 C63 1.409 . S
C64 H66 0.951 . S
C65 C60 1.491 . S
C65 C67 1.382 . S
C65 C69 1.404 . S
H66 C64 0.951 . S
C67 C65 1.382 . S
C67 C68 1.390 . S
C67 H72 0.949 . S
C68 C67 1.390 . S
C68 C73 1.399 . S
C69 C65 1.404 . S
C69 H70 0.950 . S
C69 C71 1.375 . S
H70 C69 0.950 . S
C71 C69 1.375 . S
C71 C73 1.382 . S
C71 H75 0.950 . S
H72 C67 0.949 . S
C73 C68 1.399 . S
C73 C71 1.382 . S
C73 H74 0.952 . S
H74 C73 0.952 . S
H75 C71 0.950 . S
H76 C77 0.949 . S
C77 H76 0.949 . S
C77 C78 1.395 . S
C77 C79 1.391 . S
C78 C77 1.395 . S
C78 C81 1.390 . S
C79 C77 1.391 . S
C79 C83 1.387 . S
C79 C84 1.491 . S
H80 C81 0.950 . S
C81 C78 1.390 . S
C81 H80 0.950 . S
C81 C82 1.378 . S
C82 C81 1.378 . S
C82 C83 1.409 . S
C83 C79 1.387 . S
C83 C82 1.409 . S
C83 H85 0.951 . S
C84 C79 1.491 . S
C84 C86 1.382 . S
C84 C88 1.404 . S
H85 C83 0.951 . S
C86 C84 1.382 . S
C86 C87 1.390 . S
C86 H91 0.949 . S
C87 C86 1.390 . S
C87 C92 1.399 . S
C88 C84 1.404 . S
C88 H89 0.950 . S
C88 C90 1.375 . S
H89 C88 0.950 . S
C90 C88 1.375 . S
C90 C92 1.382 . S
C90 H94 0.950 . S
H91 C86 0.949 . S
C92 C87 1.399 . S
C92 C90 1.382 . S
C92 H93 0.952 . S
H93 C92 0.952 . S
H94 C90 0.950 . S
H95 C96 0.949 . S
C96 H95 0.949 . S
C96 C97 1.395 . S
C96 C98 1.391 . S
C97 C96 1.395 . S
C97 C100 1.390 . S
C98 C96 1.391 . S
C98 C102 1.387 . S
C98 C103 1.491 . S
H99 C100 0.950 . S
C100 C97 1.390 . S
C100 H99 0.950 . S
C100 C101 1.378 . S
C101 C100 1.378 . S
C101 C102 1.409 . S
C102 C98 1.387 . S
C102 C101 1.409 . S
C102 H104 0.951 . S
C103 C98 1.491 . S
C103 C105 1.382 . S
C103 C107 1.404 . S
H104 C102 0.951 . S
C105 C103 1.382 . S
C105 C106 1.390 . S
C105 H110 0.949 . S
C106 C105 1.390 . S
C106 C111 1.399 . S
C107 C103 1.404 . S
C107 H108 0.950 . S
C107 C109 1.375 . S
H108 C107 0.950 . S
C109 C107 1.375 . S
C109 C111 1.382 . S
C109 H113 0.950 . S
H110 C105 0.949 . S
C111 C106 1.399 . S
C111 C109 1.382 . S
C111 H112 0.952 . S
H112 C111 0.952 . S
H113 C109 0.950 . S
H114 C115 0.949 . S
C115 H114 0.949 . S
C115 C116 1.395 . S
C115 C117 1.391 . S
C116 C115 1.395 . S
C116 C119 1.390 . S
C117 C115 1.391 . S
C117 C121 1.387 . S
C117 C122 1.491 . S
H118 C119 0.950 . S
C119 C116 1.390 . S
C119 H118 0.950 . S
C119 C120 1.378 . S
C120 C119 1.378 . S
C120 C121 1.409 . S
C121 C117 1.387 . S
C121 C120 1.409 . S
C121 H123 0.951 . S
C122 C117 1.491 . S
C122 C124 1.382 . S
C122 C126 1.404 . S
H123 C121 0.951 . S
C124 C122 1.382 . S
C124 C125 1.393 . S
C124 H129 0.949 1_655 S
C125 C124 1.393 . S
C125 C130 1.406 . S
C126 C122 1.404 . S
C126 H127 0.950 . S
C126 C128 1.375 . S
H127 C126 0.950 . S
C128 C126 1.375 . S
C128 C130 1.382 . S
C128 H132 0.950 . S
H129 C124 0.949 1_455 S
C130 C125 1.406 . S
C130 C128 1.382 . S
C130 H131 0.952 . S
H131 C130 0.952 . S
H132 C128 0.950 . S
H133 C134 0.949 . S
C134 H133 0.949 . S
C134 C135 1.395 . S
C134 C136 1.391 . S
C135 C134 1.395 . S
C135 C138 1.390 . S
C136 C134 1.391 . S
C136 C140 1.387 . S
C136 C141 1.491 . S
H137 C138 0.950 . S
C138 C135 1.390 . S
C138 H137 0.950 . S
C138 C139 1.378 . S
C139 C138 1.378 . S
C139 C140 1.409 . S
C140 C136 1.387 . S
C140 C139 1.409 . S
C140 H142 0.951 . S
C141 C136 1.491 . S
C141 C143 1.382 . S
C141 C145 1.404 . S
H142 C140 0.951 . S
C143 C141 1.382 . S
C143 C144 1.390 . S
C143 H148 0.949 . S
C144 C143 1.390 . S
C144 C149 1.399 . S
C145 C141 1.404 . S
C145 H146 0.950 . S
C145 C147 1.375 . S
H146 C145 0.950 . S
C147 C145 1.375 . S
C147 C149 1.382 . S
C147 H151 0.950 . S
H148 C143 0.949 . S
C149 C144 1.399 . S
C149 C147 1.382 . S
C149 H150 0.952 . S
H150 C149 0.952 . S
H151 C147 0.950 . S
H152 C153 0.949 . S
C153 H152 0.949 . S
C153 C154 1.395 . S
C153 C155 1.391 . S
C154 C153 1.395 . S
C154 C157 1.390 . S
C155 C153 1.391 . S
C155 C159 1.387 . S
C155 C160 1.491 . S
H156 C157 0.950 . S
C157 C154 1.390 . S
C157 H156 0.950 . S
C157 C158 1.378 . S
C158 C157 1.378 . S
C158 C159 1.409 . S
C159 C155 1.387 . S
C159 C158 1.409 . S
C159 H161 0.951 . S
C160 C155 1.491 . S
C160 C162 1.382 . S
C160 C164 1.404 . S
H161 C159 0.951 . S
C162 C160 1.382 . S
C162 C163 1.390 . S
C162 H167 0.949 . S
C163 C162 1.390 . S
C163 C168 1.399 . S
C164 C160 1.404 . S
C164 H165 0.950 . S
C164 C166 1.375 . S
H165 C164 0.950 . S
C166 C164 1.375 . S
C166 C168 1.382 . S
C166 H170 0.950 . S
H167 C162 0.949 . S
C168 C163 1.399 . S
C168 C166 1.382 . S
C168 H169 0.952 . S
H169 C168 0.952 . S
H170 C166 0.950 . S
H171 C172 0.949 . S
C172 H171 0.949 . S
C172 C173 1.395 . S
C172 C174 1.391 . S
C173 C172 1.395 . S
C173 C176 1.390 . S
C174 C172 1.391 . S
C174 C178 1.387 . S
C174 C179 1.491 . S
H175 C176 0.950 . S
C176 C173 1.390 . S
C176 H175 0.950 . S
C176 C177 1.378 . S
C177 C176 1.378 . S
C177 C178 1.409 . S
C178 C174 1.387 . S
C178 C177 1.409 . S
C178 H180 0.951 . S
C179 C174 1.491 . S
C179 C181 1.382 . S
C179 C183 1.404 . S
H180 C178 0.951 . S
C181 C179 1.382 . S
C181 C182 1.390 . S
C181 H186 0.949 . S
C182 C181 1.390 . S
C182 C187 1.399 . S
C183 C179 1.404 . S
C183 H184 0.950 . S
C183 C185 1.375 . S
H184 C183 0.950 . S
C185 C183 1.375 . S
C185 C187 1.382 . S
C185 H189 0.950 . S
H186 C181 0.949 . S
C187 C182 1.399 . S
C187 C185 1.382 . S
C187 H188 0.952 . S
H188 C187 0.952 . S
H189 C185 0.950 . S
H190 C191 0.949 . S
C191 H190 0.949 . S
C191 C192 1.395 . S
C191 C193 1.391 . S
C192 C191 1.395 . S
C192 C195 1.390 . S
C193 C191 1.391 . S
C193 C197 1.387 . S
C193 C198 1.491 . S
H194 C195 0.950 . S
C195 C192 1.390 . S
C195 H194 0.950 . S
C195 C196 1.378 . S
C196 C195 1.378 . S
C196 C197 1.409 . S
C197 C193 1.387 . S
C197 C196 1.409 . S
C197 H199 0.951 . S
C198 C193 1.491 . S
C198 C200 1.382 . S
C198 C202 1.404 . S
H199 C197 0.951 . S
C200 C198 1.382 . S
C200 C201 1.390 . S
C200 H205 0.949 . S
C201 C200 1.390 . S
C201 C206 1.399 . S
C202 C198 1.404 . S
C202 H203 0.950 . S
C202 C204 1.375 . S
H203 C202 0.950 . S
C204 C202 1.375 . S
C204 C206 1.382 . S
C204 H208 0.950 . S
H205 C200 0.949 . S
C206 C201 1.399 . S
C206 C204 1.382 . S
C206 H207 0.952 . S
H207 C206 0.952 . S
H208 C204 0.950 . S
H209 C210 0.949 . S
C210 H209 0.949 . S
C210 C211 1.395 . S
C210 C212 1.391 . S
C211 C210 1.395 . S
C211 C214 1.390 . S
C212 C210 1.391 . S
C212 C216 1.387 . S
C212 C217 1.491 . S
H213 C214 0.950 . S
C214 C211 1.390 . S
C214 H213 0.950 . S
C214 C215 1.378 . S
C215 C214 1.378 . S
C215 C216 1.409 . S
C216 C212 1.387 . S
C216 C215 1.409 . S
C216 H218 0.951 . S
C217 C212 1.491 . S
C217 C219 1.382 . S
C217 C221 1.404 . S
H218 C216 0.951 . S
C219 C217 1.382 . S
C219 C220 1.390 . S
C219 H224 0.949 . S
C220 C219 1.390 . S
C220 C225 1.399 . S
C221 C217 1.404 . S
C221 H222 0.950 . S
C221 C223 1.375 . S
H222 C221 0.950 . S
C223 C221 1.375 . S
C223 C225 1.382 . S
C223 H227 0.950 . S
H224 C219 0.949 . S
C225 C220 1.399 . S
C225 C223 1.382 . S
C225 H226 0.952 . S
H226 C225 0.952 . S
H227 C223 0.950 . S
H228 C229 0.949 . S
C229 H228 0.949 . S
C229 C230 1.395 . S
C229 C231 1.391 . S
C230 C229 1.395 . S
C230 C233 1.390 . S
C231 C229 1.391 . S
C231 C235 1.387 . S
C231 C236 1.491 . S
H232 C233 0.950 . S
C233 C230 1.390 . S
C233 H232 0.950 . S
C233 C234 1.378 . S
C234 C233 1.378 . S
C234 C235 1.409 . S
C235 C231 1.387 . S
C235 C234 1.409 . S
C235 H237 0.951 . S
C236 C231 1.491 . S
C236 C238 1.382 . S
C236 C240 1.404 . S
H237 C235 0.951 . S
C238 C236 1.382 . S
C238 C239 1.390 . S
C238 H243 0.949 . S
C239 C238 1.390 . S
C239 C244 1.399 . S
C240 C236 1.404 . S
C240 H241 0.950 . S
C240 C242 1.375 . S
H241 C240 0.950 . S
C242 C240 1.375 . S
C242 C244 1.382 . S
C242 H246 0.950 . S
H243 C238 0.949 . S
C244 C239 1.399 . S
C244 C242 1.382 . S
C244 H245 0.952 . S
H245 C244 0.952 . S
H246 C242 0.950 . S
H247 C248 0.949 . S
C248 H247 0.949 . S
C248 C249 1.395 . S
C248 C250 1.391 . S
C249 C248 1.395 . S
C249 C252 1.390 . S
C250 C248 1.391 . S
C250 C254 1.387 . S
C250 C255 1.491 . S
H251 C252 0.950 . S
C252 C249 1.390 . S
C252 H251 0.950 . S
C252 C253 1.378 . S
C253 C252 1.378 . S
C253 C254 1.409 . S
C254 C250 1.387 . S
C254 C253 1.409 . S
C254 H256 0.951 . S
C255 C250 1.491 . S
C255 C257 1.382 1_556 S
C255 C259 1.404 . S
H256 C254 0.951 . S
C257 C255 1.382 1_554 S
C257 C258 1.390 . S
C257 H262 0.949 . S
C258 C257 1.390 . S
C258 C263 1.421 . S
C259 C255 1.404 . S
C259 H260 0.950 . S
C259 C261 1.375 . S
H260 C259 0.950 . S
C261 C259 1.375 . S
C261 C263 1.341 1_556 S
C261 H265 0.950 . S
H262 C257 0.949 . S
C263 C258 1.421 . S
C263 C261 1.341 1_554 S
C263 H264 0.972 . S
H264 C263 0.972 . S
H265 C261 0.950 . S
H266 C267 0.949 . S
C267 H266 0.949 . S
C267 C268 1.395 . S
C267 C269 1.391 . S
C268 C267 1.395 . S
C268 C271 1.390 . S
C269 C267 1.391 . S
C269 C273 1.387 . S
C269 C274 1.491 . S
H270 C271 0.950 . S
C271 C268 1.390 . S
C271 H270 0.950 . S
C271 C272 1.378 . S
C272 C271 1.378 . S
C272 C273 1.409 . S
C273 C269 1.387 . S
C273 C272 1.409 . S
C273 H275 0.951 . S
C274 C269 1.491 . S
C274 C276 1.382 . S
C274 C278 1.404 . S
H275 C273 0.951 . S
C276 C274 1.382 . S
C276 C277 1.390 . S
C276 H281 0.949 . S
C277 C276 1.390 . S
C277 C282 1.399 . S
C278 C274 1.404 . S
C278 H279 0.950 . S
C278 C280 1.375 . S
H279 C278 0.950 . S
C280 C278 1.375 . S
C280 C282 1.382 . S
C280 H284 0.950 . S
H281 C276 0.949 . S
C282 C277 1.399 . S
C282 C280 1.382 . S
C282 H283 0.952 . S
H283 C282 0.952 . S
H284 C280 0.950 . S
H285 C286 0.949 . S
C286 H285 0.949 . S
C286 C287 1.395 . S
C286 C288 1.391 . S
C287 C286 1.395 . S
C287 C290 1.390 . S
C288 C286 1.391 . S
C288 C292 1.387 . S
C288 C293 1.491 . S
H289 C290 0.950 . S
C290 C287 1.390 . S
C290 H289 0.950 . S
C290 C291 1.378 . S
C291 C290 1.378 . S
C291 C292 1.409 . S
C292 C288 1.387 . S
C292 C291 1.409 . S
C292 H294 0.951 . S
C293 C288 1.491 . S
C293 C295 1.382 . S
C293 C297 1.404 . S
H294 C292 0.951 . S
C295 C293 1.382 . S
C295 C296 1.390 . S
C295 H300 0.949 . S
C296 C295 1.390 . S
C296 C301 1.399 . S
C297 C293 1.404 . S
C297 H298 0.950 . S
C297 C299 1.375 . S
H298 C297 0.950 . S
C299 C297 1.375 . S
C299 C301 1.382 . S
C299 H303 0.950 . S
H300 C295 0.949 . S
C301 C296 1.399 . S
C301 C299 1.382 . S
C301 H302 0.952 . S
H302 C301 0.952 . S
H303 C299 0.950 . S
C304 O305 1.160 . S
C304 O311 1.185 . S
O305 C304 1.160 . S
O306 Zn307 1.899 . S
O306 C314 1.284 . S
Zn307 O306 1.899 . S
Zn307 O308 2.032 . S
Zn307 O311 2.086 . S
Zn307 O316 1.977 . S
O308 Zn307 2.032 . S
O308 C312 1.278 . S
C309 O310 1.203 . S
C309 O316 1.267 . S
O310 C309 1.203 . S
O311 C304 1.185 . S
O311 Zn307 2.086 . S
C312 O308 1.278 . S
C312 O313 1.211 . S
O313 C312 1.211 . S
C314 O306 1.284 . S
C314 O315 1.273 . S
O315 C314 1.273 . S
O316 Zn307 1.977 . S
O316 C309 1.267 . S
C317 O318 1.160 . S
C317 O324 1.185 . S
O318 C317 1.160 . S
O319 Zn320 1.899 . S
O319 C327 1.284 . S
Zn320 O319 1.899 . S
Zn320 O321 2.032 . S
Zn320 O324 2.086 . S
Zn320 O329 1.977 . S
O321 Zn320 2.032 . S
O321 C325 1.278 . S
C322 O323 1.203 . S
C322 O329 1.267 . S
O323 C322 1.203 . S
O324 C317 1.185 . S
O324 Zn320 2.086 . S
C325 O321 1.278 . S
C325 O326 1.211 . S
O326 C325 1.211 . S
C327 O319 1.284 . S
C327 O328 1.273 . S
O328 C327 1.273 . S
O329 Zn320 1.977 . S
O329 C322 1.267 . S
C330 O331 1.160 . S
C330 O337 1.185 1_556 S
O331 C330 1.160 . S
O332 Zn333 1.899 1_556 S
O332 C340 1.284 . S
Zn333 O332 1.899 1_554 S
Zn333 O334 2.032 1_554 S
Zn333 O337 2.086 . S
Zn333 O342 1.977 . S
O334 Zn333 2.032 1_556 S
O334 C338 1.290 . S
C335 O336 1.203 . S
C335 O342 1.267 . S
O336 C335 1.203 . S
O337 C330 1.185 1_554 S
O337 Zn333 2.086 . S
C338 O334 1.290 . S
C338 O339 1.194 1_556 S
O339 C338 1.194 1_554 S
C340 O332 1.284 . S
C340 O341 1.273 . S
O341 C340 1.273 . S
O342 Zn333 1.977 . S
O342 C335 1.267 . S
C343 O344 1.160 . S
C343 O350 1.185 . S
O344 C343 1.160 . S
O345 Zn346 1.899 . S
O345 C353 1.284 . S
Zn346 O345 1.899 . S
Zn346 O347 2.032 . S
Zn346 O350 2.086 . S
Zn346 O355 1.977 . S
O347 Zn346 2.032 . S
O347 C351 1.278 1_545 S
C348 O349 1.203 . S
C348 O355 1.267 . S
O349 C348 1.203 . S
O350 C343 1.185 . S
O350 Zn346 2.086 . S
C351 O347 1.278 1_565 S
C351 O352 1.211 . S
O352 C351 1.211 . S
C353 O345 1.284 . S
C353 O354 1.273 . S
O354 C353 1.273 . S
O355 Zn346 1.977 . S
O355 C348 1.267 . S
C356 O357 1.160 . S
C356 O363 1.185 . S
O357 C356 1.160 . S
O358 Zn359 1.899 . S
O358 C366 1.284 . S
Zn359 O358 1.899 . S
Zn359 O360 2.032 . S
Zn359 O363 2.086 . S
Zn359 O368 1.977 . S
O360 Zn359 2.032 . S
O360 C364 1.278 . S
C361 O362 1.203 . S
C361 O368 1.267 . S
O362 C361 1.203 . S
O363 C356 1.185 . S
O363 Zn359 2.086 . S
C364 O360 1.278 . S
C364 O365 1.211 . S
O365 C364 1.211 . S
C366 O358 1.284 . S
C366 O367 1.273 . S
O367 C366 1.273 . S
O368 Zn359 1.977 . S
O368 C361 1.267 . S
C369 O370 1.160 . S
C369 O376 1.185 . S
O370 C369 1.160 . S
O371 Zn372 1.899 . S
O371 C379 1.284 . S
Zn372 O371 1.899 . S
Zn372 O373 2.032 . S
Zn372 O376 2.086 . S
Zn372 O381 1.977 . S
O373 Zn372 2.032 . S
O373 C377 1.278 . S
C374 O375 1.203 . S
C374 O381 1.267 . S
O375 C374 1.203 . S
O376 C369 1.185 . S
O376 Zn372 2.086 . S
C377 O373 1.278 . S
C377 O378 1.211 . S
O378 C377 1.211 . S
C379 O371 1.284 . S
C379 O380 1.273 . S
O380 C379 1.273 . S
O381 Zn372 1.977 . S
O381 C374 1.267 . S
C382 O383 1.160 . S
C382 O389 1.185 . S
O383 C382 1.160 . S
O384 Zn385 1.899 . S
O384 C392 1.284 . S
Zn385 O384 1.899 . S
Zn385 O386 2.032 . S
Zn385 O389 2.086 . S
Zn385 O394 1.977 . S
O386 Zn385 2.032 . S
O386 C390 1.278 . S
C387 O388 1.203 . S
C387 O394 1.267 . S
O388 C387 1.203 . S
O389 C382 1.185 . S
O389 Zn385 2.086 . S
C390 O386 1.278 . S
C390 O391 1.211 . S
O391 C390 1.211 . S
C392 O384 1.284 . S
C392 O393 1.273 . S
O393 C392 1.273 . S
O394 Zn385 1.977 . S
O394 C387 1.267 . S
C395 O396 1.160 . S
C395 O402 1.185 . S
O396 C395 1.160 . S
O397 Zn398 1.899 . S
O397 C405 1.284 . S
Zn398 O397 1.899 . S
Zn398 O399 2.032 . S
Zn398 O402 2.086 1_545 S
Zn398 O407 1.978 . S
O399 Zn398 2.032 . S
O399 C403 1.278 . S
C400 O401 1.203 . S
C400 O407 1.271 . S
O401 C400 1.203 . S
O402 C395 1.185 . S
O402 Zn398 2.086 1_565 S
C403 O399 1.278 . S
C403 O404 1.211 . S
O404 C403 1.211 . S
C405 O397 1.284 . S
C405 O406 1.273 . S
O406 C405 1.273 . S
O407 Zn398 1.978 . S
O407 C400 1.271 . S
C408 O409 1.160 1_455 S
C408 O415 1.185 . S
O409 C408 1.160 1_655 S
O410 Zn411 1.899 1_655 S
O410 C418 1.284 . S
Zn411 O410 1.899 1_455 S
Zn411 O412 2.032 . S
Zn411 O415 2.086 . S
Zn411 O420 1.977 . S
O412 Zn411 2.032 . S
O412 C416 1.278 . S
C413 O414 1.203 . S
C413 O420 1.267 . S
O414 C413 1.203 . S
O415 C408 1.185 . S
O415 Zn411 2.086 . S
C416 O412 1.278 . S
C416 O417 1.211 . S
O417 C416 1.211 . S
C418 O410 1.284 . S
C418 O419 1.273 . S
O419 C418 1.273 . S
O420 Zn411 1.977 . S
O420 C413 1.267 . S
C421 O422 1.160 . S
C421 O428 1.185 . S
O422 C421 1.160 . S
O423 Zn424 1.899 . S
O423 C431 1.284 . S
Zn424 O423 1.899 . S
Zn424 O425 2.032 . S
Zn424 O428 2.086 . S
Zn424 O433 1.977 . S
O425 Zn424 2.032 . S
O425 C429 1.278 . S
C426 O427 1.203 . S
C426 O433 1.267 . S
O427 C426 1.203 . S
O428 C421 1.185 . S
O428 Zn424 2.086 . S
C429 O425 1.278 . S
C429 O430 1.211 . S
O430 C429 1.211 . S
C431 O423 1.284 . S
C431 O432 1.273 . S
O432 C431 1.273 . S
O433 Zn424 1.977 . S
O433 C426 1.267 . S
C434 O435 1.160 1_455 S
C434 O441 1.185 . S
O435 C434 1.160 1_655 S
O436 Zn437 1.899 1_655 S
O436 C444 1.284 . S
Zn437 O436 1.899 1_455 S
Zn437 O438 2.032 1_455 S
Zn437 O441 2.086 . S
Zn437 O446 1.977 . S
O438 Zn437 2.032 1_655 S
O438 C442 1.278 . S
C439 O440 1.203 . S
C439 O446 1.267 . S
O440 C439 1.203 . S
O441 C434 1.185 . S
O441 Zn437 2.086 . S
C442 O438 1.278 . S
C442 O443 1.211 1_655 S
O443 C442 1.211 1_455 S
C444 O436 1.284 . S
C444 O445 1.273 . S
O445 C444 1.273 . S
O446 Zn437 1.977 . S
O446 C439 1.267 . S
C447 O448 1.160 . S
C447 O454 1.185 . S
O448 C447 1.160 . S
O449 Zn450 1.899 . S
O449 C457 1.284 . S
Zn450 O449 1.899 . S
Zn450 O451 2.032 . S
Zn450 O454 2.086 . S
Zn450 O459 1.977 . S
O451 Zn450 2.032 . S
O451 C455 1.278 . S
C452 O453 1.203 . S
C452 O459 1.267 . S
O453 C452 1.203 . S
O454 C447 1.185 . S
O454 Zn450 2.086 . S
C455 O451 1.278 . S
C455 O456 1.211 . S
O456 C455 1.211 . S
C457 O449 1.284 . S
C457 O458 1.273 . S
O458 C457 1.273 . S
O459 Zn450 1.977 . S
O459 C452 1.267 . S
H460 C468 0.929 . S
H461 C470 0.930 . S
H462 C472 0.930 . S
H463 C475 0.929 . S
H464 C478 0.930 . S
H465 C480 0.960 . S
H466 C480 0.960 . S
H467 C480 0.960 . S
C468 H460 0.929 . S
C468 C469 1.377 . S
C468 C470 1.384 . S
C469 C468 1.377 . S
C469 C475 1.390 . S
C470 H461 0.930 . S
C470 C468 1.384 . S
C470 C471 1.372 . S
C471 C470 1.372 . S
C471 C472 1.400 . S
C471 C476 1.490 . S
C472 H462 0.930 . S
C472 C471 1.400 . S
C472 C475 1.386 . S
H473 C489 0.930 . S
H474 C490 0.931 . S
C475 H463 0.929 . S
C475 C469 1.390 . S
C475 C472 1.386 . S
C476 C471 1.490 . S
C476 C478 1.395 . S
C476 C479 1.403 . S
H477 C483 0.930 . S
C478 H464 0.930 . S
C478 C476 1.395 . S
C478 C481 1.403 . S
C479 C476 1.403 . S
C479 C480 1.524 . S
C479 C483 1.400 . S
C480 H465 0.960 . S
C480 H466 0.960 . S
C480 H467 0.960 . S
C480 C479 1.524 . S
C481 C478 1.403 . S
C481 C482 1.392 . S
C481 C485 1.495 . S
C482 C481 1.392 . S
C482 C483 1.385 . S
C482 C484 1.478 . S
C483 H477 0.930 . S
C483 C479 1.400 . S
C483 C482 1.385 . S
C484 C482 1.478 . S
C484 C486 1.381 . S
C484 C490 1.383 . S
C485 C481 1.495 . S
C485 H491 0.959 . S
C485 H492 0.961 . S
C485 H493 0.960 . S
C486 C484 1.381 . S
C486 C487 1.394 . S
C486 H494 0.930 . S
C487 C486 1.394 . S
C487 C488 1.383 . S
C487 H495 0.929 . S
C488 C487 1.383 . S
C488 C489 1.377 . S
C489 H473 0.930 . S
C489 C488 1.377 . S
C489 C490 1.379 . S
C490 H474 0.931 . S
C490 C484 1.383 . S
C490 C489 1.379 . S
H491 C485 0.959 . S
H492 C485 0.961 . S
H493 C485 0.960 . S
H494 C486 0.930 . S
H495 C487 0.929 . S
H496 C504 0.929 1_655 S
H497 C506 0.930 . S
H498 C508 0.930 . S
H499 C511 0.929 . S
H500 C514 0.930 . S
H501 C516 0.960 . S
H502 C516 0.960 . S
H503 C516 0.960 . S
C504 H496 0.929 1_455 S
C504 C505 1.377 . S
C504 C506 1.384 . S
C505 C504 1.377 . S
C505 C511 1.390 . S
C506 H497 0.930 . S
C506 C504 1.384 . S
C506 C507 1.372 . S
C507 C506 1.372 . S
C507 C508 1.400 . S
C507 C512 1.490 . S
C508 H498 0.930 . S
C508 C507 1.400 . S
C508 C511 1.386 . S
H509 C525 0.930 . S
H510 C526 0.931 . S
C511 H499 0.929 . S
C511 C505 1.390 . S
C511 C508 1.386 . S
C512 C507 1.490 . S
C512 C514 1.395 . S
C512 C515 1.403 . S
H513 C519 0.930 . S
C514 H500 0.930 . S
C514 C512 1.395 . S
C514 C517 1.403 . S
C515 C512 1.403 . S
C515 C516 1.524 . S
C515 C519 1.400 . S
C516 H501 0.960 . S
C516 H502 0.960 . S
C516 H503 0.960 . S
C516 C515 1.524 . S
C517 C514 1.403 . S
C517 C518 1.392 . S
C517 C521 1.495 . S
C518 C517 1.392 . S
C518 C519 1.385 . S
C518 C520 1.478 . S
C519 H513 0.930 . S
C519 C515 1.400 . S
C519 C518 1.385 . S
C520 C518 1.478 . S
C520 C522 1.381 . S
C520 C526 1.383 . S
C521 C517 1.495 . S
C521 H527 0.959 . S
C521 H528 0.961 . S
C521 H529 0.960 . S
C522 C520 1.381 . S
C522 C523 1.394 . S
C522 H530 0.930 . S
C523 C522 1.394 . S
C523 C524 1.383 . S
C523 H531 0.929 . S
C524 C523 1.383 . S
C524 C525 1.377 . S
C525 H509 0.930 . S
C525 C524 1.377 . S
C525 C526 1.379 . S
C526 H510 0.931 . S
C526 C520 1.383 . S
C526 C525 1.379 . S
H527 C521 0.959 . S
H528 C521 0.961 . S
H529 C521 0.960 . S
H530 C522 0.930 . S
H531 C523 0.929 . S
H532 C540 0.929 . S
H533 C542 0.930 . S
H534 C544 0.930 . S
H535 C547 0.929 . S
H536 C550 0.930 . S
H537 C552 0.960 . S
H538 C552 0.960 . S
H539 C552 0.960 . S
C540 H532 0.929 . S
C540 C541 1.377 . S
C540 C542 1.384 . S
C541 C540 1.377 . S
C541 C547 1.390 . S
C542 H533 0.930 . S
C542 C540 1.384 . S
C542 C543 1.372 . S
C543 C542 1.372 . S
C543 C544 1.400 . S
C543 C548 1.490 . S
C544 H534 0.930 . S
C544 C543 1.400 . S
C544 C547 1.386 . S
H545 C561 0.930 . S
H546 C562 0.931 . S
C547 H535 0.929 . S
C547 C541 1.390 . S
C547 C544 1.386 . S
C548 C543 1.490 . S
C548 C550 1.395 . S
C548 C551 1.403 . S
H549 C555 0.930 . S
C550 H536 0.930 . S
C550 C548 1.395 . S
C550 C553 1.403 . S
C551 C548 1.403 . S
C551 C552 1.524 . S
C551 C555 1.400 . S
C552 H537 0.960 . S
C552 H538 0.960 . S
C552 H539 0.960 . S
C552 C551 1.524 . S
C553 C550 1.403 . S
C553 C554 1.392 . S
C553 C557 1.495 . S
C554 C553 1.392 . S
C554 C555 1.385 . S
C554 C556 1.478 . S
C555 H549 0.930 . S
C555 C551 1.400 . S
C555 C554 1.385 . S
C556 C554 1.478 . S
C556 C558 1.381 . S
C556 C562 1.383 . S
C557 C553 1.495 . S
C557 H563 0.959 . S
C557 H564 0.961 . S
C557 H565 0.960 . S
C558 C556 1.381 . S
C558 C559 1.394 . S
C558 H566 0.930 . S
C559 C558 1.394 . S
C559 C560 1.383 . S
C559 H567 0.929 . S
C560 C559 1.383 . S
C560 C561 1.377 . S
C561 H545 0.930 . S
C561 C560 1.377 . S
C561 C562 1.379 . S
C562 H546 0.931 . S
C562 C556 1.383 . S
C562 C561 1.379 . S
H563 C557 0.959 . S
H564 C557 0.961 . S
H565 C557 0.960 . S
H566 C558 0.930 . S
H567 C559 0.929 . S
H568 C576 0.929 . S
H569 C578 0.930 . S
H570 C580 0.961 . S
H571 C583 0.929 . S
H572 C586 0.930 . S
H573 C588 0.960 . S
H574 C588 0.960 . S
H575 C588 0.960 . S
C576 H568 0.929 . S
C576 C577 1.377 . S
C576 C578 1.384 . S
C577 C576 1.377 . S
C577 C583 1.390 . S
C578 H569 0.930 . S
C578 C576 1.384 . S
C578 C579 1.372 . S
C579 C578 1.372 . S
C579 C580 1.400 . S
C579 C584 1.490 . S
C580 H570 0.961 . S
C580 C579 1.400 . S
C580 C583 1.386 . S
H581 C597 0.930 . S
H582 C598 0.931 . S
C583 H571 0.929 . S
C583 C577 1.390 . S
C583 C580 1.386 . S
C584 C579 1.490 . S
C584 C586 1.395 . S
C584 C587 1.403 1_565 S
H585 C591 0.930 . S
C586 H572 0.930 . S
C586 C584 1.395 . S
C586 C589 1.403 . S
C587 C584 1.403 1_545 S
C587 C588 1.524 . S
C587 C591 1.400 . S
C588 H573 0.960 . S
C588 H574 0.960 . S
C588 H575 0.960 . S
C588 C587 1.524 . S
C589 C586 1.403 . S
C589 C590 1.380 1_565 S
C589 C593 1.495 . S
C590 C589 1.380 1_545 S
C590 C591 1.392 . S
C590 C592 1.483 1_455 S
C591 H585 0.930 . S
C591 C587 1.400 . S
C591 C590 1.392 . S
C592 C590 1.483 1_655 S
C592 C594 1.381 1_655 S
C592 C598 1.383 . S
C593 C589 1.495 . S
C593 H599 0.959 . S
C593 H600 0.961 1_455 S
C593 H601 0.960 . S
C594 C592 1.381 1_455 S
C594 C595 1.394 1_455 S
C594 H602 0.911 1_545 S
C595 C594 1.394 1_655 S
C595 C596 1.383 . S
C595 H603 0.954 . S
C596 C595 1.383 . S
C596 C597 1.377 . S
C597 H581 0.930 . S
C597 C596 1.377 . S
C597 C598 1.379 . S
C598 H582 0.931 . S
C598 C592 1.383 . S
C598 C597 1.379 . S
H599 C593 0.959 . S
H600 C593 0.961 1_655 S
H601 C593 0.960 . S
H602 C594 0.911 1_565 S
H603 C595 0.954 . S
H604 C612 0.929 . S
H605 C614 0.930 . S
H606 C616 0.930 . S
H607 C619 0.929 . S
H608 C622 0.930 . S
H609 C624 0.960 . S
H610 C624 0.960 . S
H611 C624 0.960 . S
C612 H604 0.929 . S
C612 C613 1.377 . S
C612 C614 1.384 . S
C613 C612 1.377 . S
C613 C619 1.390 . S
C614 H605 0.930 . S
C614 C612 1.384 . S
C614 C615 1.372 . S
C615 C614 1.372 . S
C615 C616 1.400 . S
C615 C620 1.490 . S
C616 H606 0.930 . S
C616 C615 1.400 . S
C616 C619 1.386 . S
H617 C633 0.930 . S
H618 C634 0.931 . S
C619 H607 0.929 . S
C619 C613 1.390 . S
C619 C616 1.386 . S
C620 C615 1.490 . S
C620 C622 1.395 . S
C620 C623 1.403 . S
H621 C627 0.930 . S
C622 H608 0.930 . S
C622 C620 1.395 . S
C622 C625 1.403 . S
C623 C620 1.403 . S
C623 C624 1.524 . S
C623 C627 1.400 . S
C624 H609 0.960 . S
C624 H610 0.960 . S
C624 H611 0.960 . S
C624 C623 1.524 . S
C625 C622 1.403 . S
C625 C626 1.392 . S
C625 C629 1.495 . S
C626 C625 1.392 . S
C626 C627 1.385 . S
C626 C628 1.478 . S
C627 H621 0.930 . S
C627 C623 1.400 . S
C627 C626 1.385 . S
C628 C626 1.478 . S
C628 C630 1.381 . S
C628 C634 1.383 . S
C629 C625 1.495 . S
C629 H635 0.959 . S
C629 H636 0.961 . S
C629 H637 0.960 . S
C630 C628 1.381 . S
C630 C631 1.394 . S
C630 H638 0.930 . S
C631 C630 1.394 . S
C631 C632 1.383 . S
C631 H639 0.929 . S
C632 C631 1.383 . S
C632 C633 1.377 . S
C633 H617 0.930 . S
C633 C632 1.377 . S
C633 C634 1.379 . S
C634 H618 0.931 . S
C634 C628 1.383 . S
C634 C633 1.379 . S
H635 C629 0.959 . S
H636 C629 0.961 . S
H637 C629 0.960 . S
H638 C630 0.930 . S
H639 C631 0.929 . S
H640 C648 0.929 . S
H641 C650 0.930 . S
H642 C652 0.930 . S
H643 C655 0.929 . S
H644 C658 0.930 . S
H645 C660 0.960 . S
H646 C660 0.960 . S
H647 C660 0.960 . S
C648 H640 0.929 . S
C648 C649 1.377 . S
C648 C650 1.384 . S
C649 C648 1.377 . S
C649 C655 1.390 . S
C650 H641 0.930 . S
C650 C648 1.384 . S
C650 C651 1.372 . S
C651 C650 1.372 . S
C651 C652 1.400 . S
C651 C656 1.490 . S
C652 H642 0.930 . S
C652 C651 1.400 . S
C652 C655 1.386 . S
H653 C669 0.930 . S
H654 C670 0.931 . S
C655 H643 0.929 . S
C655 C649 1.390 . S
C655 C652 1.386 . S
C656 C651 1.490 . S
C656 C658 1.395 . S
C656 C659 1.403 . S
H657 C663 0.930 . S
C658 H644 0.930 . S
C658 C656 1.395 . S
C658 C661 1.403 . S
C659 C656 1.403 . S
C659 C660 1.524 . S
C659 C663 1.400 . S
C660 H645 0.960 . S
C660 H646 0.960 . S
C660 H647 0.960 . S
C660 C659 1.524 . S
C661 C658 1.403 . S
C661 C662 1.392 . S
C661 C665 1.495 . S
C662 C661 1.392 . S
C662 C663 1.385 . S
C662 C664 1.478 . S
C663 H657 0.930 . S
C663 C659 1.400 . S
C663 C662 1.385 . S
C664 C662 1.478 . S
C664 C666 1.381 . S
C664 C670 1.383 . S
C665 C661 1.495 . S
C665 H671 0.959 . S
C665 H672 0.961 . S
C665 H673 0.960 . S
C666 C664 1.381 . S
C666 C667 1.394 . S
C666 H674 0.930 . S
C667 C666 1.394 . S
C667 C668 1.383 . S
C667 H675 0.929 . S
C668 C667 1.383 . S
C668 C669 1.377 . S
C669 H653 0.930 . S
C669 C668 1.377 . S
C669 C670 1.379 . S
C670 H654 0.931 . S
C670 C664 1.383 . S
C670 C669 1.379 . S
H671 C665 0.959 . S
H672 C665 0.961 . S
H673 C665 0.960 . S
H674 C666 0.930 . S
H675 C667 0.929 . S
H676 C684 0.929 . S
H677 C686 0.930 . S
H678 C688 0.930 . S
H679 C691 0.929 . S
H680 C694 0.930 . S
H681 C696 0.960 . S
H682 C696 0.960 . S
H683 C696 0.960 . S
C684 H676 0.929 . S
C684 C685 1.377 . S
C684 C686 1.384 . S
C685 C684 1.377 . S
C685 C691 1.390 . S
C686 H677 0.930 . S
C686 C684 1.384 . S
C686 C687 1.372 . S
C687 C686 1.372 . S
C687 C688 1.400 . S
C687 C692 1.490 . S
C688 H678 0.930 . S
C688 C687 1.400 . S
C688 C691 1.386 . S
H689 C705 0.930 . S
H690 C706 0.931 . S
C691 H679 0.929 . S
C691 C685 1.390 . S
C691 C688 1.386 . S
C692 C687 1.490 . S
C692 C694 1.395 . S
C692 C695 1.403 . S
H693 C699 0.930 . S
C694 H680 0.930 . S
C694 C692 1.395 . S
C694 C697 1.403 . S
C695 C692 1.403 . S
C695 C696 1.524 . S
C695 C699 1.400 . S
C696 H681 0.960 . S
C696 H682 0.960 . S
C696 H683 0.960 . S
C696 C695 1.524 . S
C697 C694 1.403 . S
C697 C698 1.392 . S
C697 C701 1.495 . S
C698 C697 1.392 . S
C698 C699 1.385 . S
C698 C700 1.478 . S
C699 H693 0.930 . S
C699 C695 1.400 . S
C699 C698 1.385 . S
C700 C698 1.478 . S
C700 C702 1.381 . S
C700 C706 1.383 . S
C701 C697 1.495 . S
C701 H707 0.959 . S
C701 H708 0.961 . S
C701 H709 0.960 . S
C702 C700 1.381 . S
C702 C703 1.394 . S
C702 H710 0.930 . S
C703 C702 1.394 . S
C703 C704 1.383 . S
C703 H711 0.929 . S
C704 C703 1.383 . S
C704 C705 1.377 . S
C705 H689 0.930 . S
C705 C704 1.377 . S
C705 C706 1.379 . S
C706 H690 0.931 . S
C706 C700 1.383 . S
C706 C705 1.379 . S
H707 C701 0.959 . S
H708 C701 0.961 . S
H709 C701 0.960 . S
H710 C702 0.930 . S
H711 C703 0.929 . S
H712 C720 0.929 . S
H713 C722 0.930 . S
H714 C724 0.930 1_545 S
H715 C727 0.977 . S
H716 C730 0.930 . S
H717 C732 0.960 . S
H718 C732 0.960 . S
H719 C732 0.960 . S
C720 H712 0.929 . S
C720 C721 1.377 . S
C720 C722 1.384 . S
C721 C720 1.377 . S
C721 C727 1.390 . S
C722 H713 0.930 . S
C722 C720 1.384 . S
C722 C723 1.372 . S
C723 C722 1.372 . S
C723 C724 1.400 . S
C723 C728 1.490 . S
C724 H714 0.930 1_565 S
C724 C723 1.400 . S
C724 C727 1.386 . S
H725 C741 0.930 . S
H726 C742 0.931 . S
C727 H715 0.977 . S
C727 C721 1.390 . S
C727 C724 1.386 . S
C728 C723 1.490 . S
C728 C730 1.395 . S
C728 C731 1.403 . S
H729 C735 0.930 . S
C730 H716 0.930 . S
C730 C728 1.395 . S
C730 C733 1.403 . S
C731 C728 1.403 . S
C731 C732 1.524 . S
C731 C735 1.400 . S
C732 H717 0.960 . S
C732 H718 0.960 . S
C732 H719 0.960 . S
C732 C731 1.524 . S
C733 C730 1.403 . S
C733 C734 1.392 . S
C733 C737 1.495 . S
C734 C733 1.392 . S
C734 C735 1.385 . S
C734 C736 1.478 . S
C735 H729 0.930 . S
C735 C731 1.400 . S
C735 C734 1.385 . S
C736 C734 1.478 . S
C736 C738 1.381 . S
C736 C742 1.383 1_565 S
C737 C733 1.495 . S
C737 H743 0.959 . S
C737 H744 0.961 . S
C737 H745 0.960 . S
C738 C736 1.381 . S
C738 C739 1.394 . S
C738 H746 0.930 . S
C739 C738 1.394 . S
C739 C740 1.375 1_565 S
C739 H747 0.929 . S
C740 C739 1.375 1_545 S
C740 C741 1.385 . S
C741 H725 0.930 . S
C741 C740 1.385 . S
C741 C742 1.379 . S
C742 H726 0.931 . S
C742 C736 1.383 1_545 S
C742 C741 1.379 . S
H743 C737 0.959 . S
H744 C737 0.961 . S
H745 C737 0.960 . S
H746 C738 0.930 . S
H747 C739 0.929 . S
H748 C756 0.929 . S
H749 C758 0.930 . S
H750 C760 0.930 . S
H751 C763 0.929 . S
H752 C766 0.930 . S
H753 C768 0.960 . S
H754 C768 0.960 . S
H755 C768 0.960 . S
C756 H748 0.929 . S
C756 C757 1.377 . S
C756 C758 1.384 . S
C757 C756 1.377 . S
C757 C763 1.390 . S
C758 H749 0.930 . S
C758 C756 1.384 . S
C758 C759 1.372 . S
C759 C758 1.372 . S
C759 C760 1.400 . S
C759 C764 1.490 . S
C760 H750 0.930 . S
C760 C759 1.400 . S
C760 C763 1.386 . S
H761 C777 0.930 . S
H762 C778 0.931 . S
C763 H751 0.929 . S
C763 C757 1.390 . S
C763 C760 1.386 . S
C764 C759 1.490 . S
C764 C766 1.395 . S
C764 C767 1.403 . S
H765 C771 0.930 . S
C766 H752 0.930 . S
C766 C764 1.395 . S
C766 C769 1.403 . S
C767 C764 1.403 . S
C767 C768 1.524 . S
C767 C771 1.400 . S
C768 H753 0.960 . S
C768 H754 0.960 . S
C768 H755 0.960 . S
C768 C767 1.524 . S
C769 C766 1.403 . S
C769 C770 1.392 . S
C769 C773 1.495 . S
C770 C769 1.392 . S
C770 C771 1.385 . S
C770 C772 1.478 . S
C771 H765 0.930 . S
C771 C767 1.400 . S
C771 C770 1.385 . S
C772 C770 1.478 . S
C772 C774 1.381 . S
C772 C778 1.383 . S
C773 C769 1.495 . S
C773 H779 0.959 . S
C773 H780 0.961 . S
C773 H781 0.960 . S
C774 C772 1.381 . S
C774 C775 1.394 . S
C774 H782 0.930 . S
C775 C774 1.394 . S
C775 C776 1.383 . S
C775 H783 0.929 . S
C776 C775 1.383 . S
C776 C777 1.377 . S
C777 H761 0.930 . S
C777 C776 1.377 . S
C777 C778 1.379 . S
C778 H762 0.931 . S
C778 C772 1.383 . S
C778 C777 1.379 . S
H779 C773 0.959 . S
H780 C773 0.961 . S
H781 C773 0.960 . S
H782 C774 0.930 . S
H783 C775 0.929 . S
H784 C792 0.929 . S
H785 C794 0.930 . S
H786 C796 0.930 . S
H787 C799 0.929 . S
H788 C802 0.930 . S
H789 C804 0.960 . S
H790 C804 0.960 . S
H791 C804 0.960 . S
C792 H784 0.929 . S
C792 C793 1.377 . S
C792 C794 1.384 . S
C793 C792 1.377 . S
C793 C799 1.390 . S
C794 H785 0.930 . S
C794 C792 1.384 . S
C794 C795 1.372 . S
C795 C794 1.372 . S
C795 C796 1.400 . S
C795 C800 1.490 . S
C796 H786 0.930 . S
C796 C795 1.400 . S
C796 C799 1.386 . S
H797 C813 0.930 . S
H798 C814 0.931 . S
C799 H787 0.929 . S
C799 C793 1.390 . S
C799 C796 1.386 . S
C800 C795 1.490 . S
C800 C802 1.395 . S
C800 C803 1.403 . S
H801 C807 0.930 . S
C802 H788 0.930 . S
C802 C800 1.395 . S
C802 C805 1.403 . S
C803 C800 1.403 . S
C803 C804 1.524 . S
C803 C807 1.400 . S
C804 H789 0.960 . S
C804 H790 0.960 . S
C804 H791 0.960 . S
C804 C803 1.524 . S
C805 C802 1.403 . S
C805 C806 1.392 . S
C805 C809 1.495 . S
C806 C805 1.392 . S
C806 C807 1.385 . S
C806 C808 1.478 . S
C807 H801 0.930 . S
C807 C803 1.400 . S
C807 C806 1.385 . S
C808 C806 1.478 . S
C808 C810 1.381 . S
C808 C814 1.383 . S
C809 C805 1.495 . S
C809 H815 0.959 . S
C809 H816 0.961 . S
C809 H817 0.960 . S
C810 C808 1.381 . S
C810 C811 1.394 . S
C810 H818 0.930 . S
C811 C810 1.394 . S
C811 C812 1.383 . S
C811 H819 0.929 . S
C812 C811 1.383 . S
C812 C813 1.377 . S
C813 H797 0.930 . S
C813 C812 1.377 . S
C813 C814 1.379 . S
C814 H798 0.931 . S
C814 C808 1.383 . S
C814 C813 1.379 . S
H815 C809 0.959 . S
H816 C809 0.961 . S
H817 C809 0.960 . S
H818 C810 0.930 . S
H819 C811 0.929 . S
H820 C828 0.929 . S
H821 C830 0.930 . S
H822 C832 0.930 . S
H823 C835 0.929 . S
H824 C838 0.930 . S
H825 C840 0.960 . S
H826 C840 0.960 . S
H827 C840 0.960 . S
C828 H820 0.929 . S
C828 C829 1.377 . S
C828 C830 1.384 . S
C829 C828 1.377 . S
C829 C835 1.390 . S
C830 H821 0.930 . S
C830 C828 1.384 . S
C830 C831 1.372 . S
C831 C830 1.372 . S
C831 C832 1.400 . S
C831 C836 1.490 . S
C832 H822 0.930 . S
C832 C831 1.400 . S
C832 C835 1.386 . S
H833 C849 0.930 . S
H834 C850 0.931 . S
C835 H823 0.929 . S
C835 C829 1.390 . S
C835 C832 1.386 . S
C836 C831 1.490 . S
C836 C838 1.395 . S
C836 C839 1.403 . S
H837 C843 0.930 . S
C838 H824 0.930 . S
C838 C836 1.395 . S
C838 C841 1.403 . S
C839 C836 1.403 . S
C839 C840 1.524 . S
C839 C843 1.400 . S
C840 H825 0.960 . S
C840 H826 0.960 . S
C840 H827 0.960 . S
C840 C839 1.524 . S
C841 C838 1.403 . S
C841 C842 1.392 . S
C841 C845 1.495 . S
C842 C841 1.392 . S
C842 C843 1.385 . S
C842 C844 1.478 . S
C843 H837 0.930 . S
C843 C839 1.400 . S
C843 C842 1.385 . S
C844 C842 1.478 . S
C844 C846 1.381 . S
C844 C850 1.383 . S
C845 C841 1.495 . S
C845 H851 0.959 . S
C845 H852 0.961 . S
C845 H853 0.960 . S
C846 C844 1.381 . S
C846 C847 1.394 . S
C846 H854 0.930 . S
C847 C846 1.394 . S
C847 C848 1.383 . S
C847 H855 0.929 . S
C848 C847 1.383 . S
C848 C849 1.377 . S
C849 H833 0.930 . S
C849 C848 1.377 . S
C849 C850 1.379 . S
C850 H834 0.931 . S
C850 C844 1.383 . S
C850 C849 1.379 . S
H851 C845 0.959 . S
H852 C845 0.961 . S
H853 C845 0.960 . S
H854 C846 0.930 . S
H855 C847 0.929 . S
H856 C864 0.929 . S
H857 C866 0.930 . S
H858 C868 0.930 . S
H859 C871 0.929 . S
H860 C874 0.930 . S
H861 C876 0.960 . S
H862 C876 0.960 . S
H863 C876 0.960 . S
C864 H856 0.929 . S
C864 C865 1.377 . S
C864 C866 1.384 . S
C865 C864 1.377 . S
C865 C871 1.390 . S
C866 H857 0.930 . S
C866 C864 1.384 . S
C866 C867 1.372 . S
C867 C866 1.372 . S
C867 C868 1.400 . S
C867 C872 1.490 . S
C868 H858 0.930 . S
C868 C867 1.400 . S
C868 C871 1.386 . S
H869 C885 0.930 . S
H870 C886 0.931 . S
C871 H859 0.929 . S
C871 C865 1.390 . S
C871 C868 1.386 . S
C872 C867 1.490 . S
C872 C874 1.395 . S
C872 C875 1.403 . S
H873 C879 0.930 . S
C874 H860 0.930 . S
C874 C872 1.395 . S
C874 C877 1.403 . S
C875 C872 1.403 . S
C875 C876 1.524 . S
C875 C879 1.400 . S
C876 H861 0.960 . S
C876 H862 0.960 . S
C876 H863 0.960 . S
C876 C875 1.524 . S
C877 C874 1.403 . S
C877 C878 1.392 . S
C877 C881 1.495 . S
C878 C877 1.392 . S
C878 C879 1.385 . S
C878 C880 1.478 . S
C879 H873 0.930 . S
C879 C875 1.400 . S
C879 C878 1.385 . S
C880 C878 1.478 . S
C880 C882 1.381 . S
C880 C886 1.383 . S
C881 C877 1.495 . S
C881 H887 0.959 . S
C881 H888 0.961 . S
C881 H889 0.960 . S
C882 C880 1.381 . S
C882 C883 1.394 . S
C882 H890 0.930 . S
C883 C882 1.394 . S
C883 C884 1.383 . S
C883 H891 0.929 . S
C884 C883 1.383 . S
C884 C885 1.377 . S
C885 H869 0.930 . S
C885 C884 1.377 . S
C885 C886 1.379 . S
C886 H870 0.931 . S
C886 C880 1.383 . S
C886 C885 1.379 . S
H887 C881 0.959 . S
H888 C881 0.961 . S
H889 C881 0.960 . S
H890 C882 0.930 . S
H891 C883 0.929 . S
H892 C900 0.929 . S
H893 C902 0.930 . S
H894 C904 0.930 . S
H895 C907 0.929 . S
H896 C910 0.930 . S
H897 C912 0.960 . S
H898 C912 0.960 . S
H899 C912 0.960 . S
C900 H892 0.929 . S
C900 C901 1.377 . S
C900 C902 1.384 . S
C901 C900 1.377 . S
C901 C907 1.390 . S
C902 H893 0.930 . S
C902 C900 1.384 . S
C902 C903 1.372 . S
C903 C902 1.372 . S
C903 C904 1.400 . S
C903 C908 1.490 . S
C904 H894 0.930 . S
C904 C903 1.400 . S
C904 C907 1.386 . S
H905 C921 0.930 . S
H906 C922 0.931 . S
C907 H895 0.929 . S
C907 C901 1.390 . S
C907 C904 1.386 . S
C908 C903 1.490 . S
C908 C910 1.395 . S
C908 C911 1.403 . S
H909 C915 0.930 . S
C910 H896 0.930 . S
C910 C908 1.395 . S
C910 C913 1.403 . S
C911 C908 1.403 . S
C911 C912 1.524 . S
C911 C915 1.400 . S
C912 H897 0.960 . S
C912 H898 0.960 . S
C912 H899 0.960 . S
C912 C911 1.524 . S
C913 C910 1.403 . S
C913 C914 1.392 . S
C913 C917 1.495 . S
C914 C913 1.392 . S
C914 C915 1.385 . S
C914 C916 1.478 . S
C915 H909 0.930 . S
C915 C911 1.400 . S
C915 C914 1.385 . S
C916 C914 1.478 . S
C916 C918 1.381 . S
C916 C922 1.383 . S
C917 C913 1.495 . S
C917 H923 0.959 . S
C917 H924 0.961 . S
C917 H925 0.960 . S
C918 C916 1.381 . S
C918 C919 1.394 . S
C918 H926 0.930 . S
C919 C918 1.394 . S
C919 C920 1.383 . S
C919 H927 0.929 . S
C920 C919 1.383 . S
C920 C921 1.377 . S
C921 H905 0.930 . S
C921 C920 1.377 . S
C921 C922 1.379 . S
C922 H906 0.931 . S
C922 C916 1.383 . S
C922 C921 1.379 . S
H923 C917 0.959 . S
H924 C917 0.961 . S
H925 C917 0.960 . S
H926 C918 0.930 . S
H927 C919 0.929 . S
H928 C936 0.929 . S
H929 C938 0.930 . S
H930 C940 0.930 . S
H931 C943 0.929 . S
H932 C946 0.930 . S
H933 C948 0.960 . S
H934 C948 0.960 . S
H935 C948 0.960 . S
C936 H928 0.929 . S
C936 C937 1.377 . S
C936 C938 1.384 . S
C937 C936 1.377 . S
C937 C943 1.390 . S
C938 H929 0.930 . S
C938 C936 1.384 . S
C938 C939 1.372 . S
C939 C938 1.372 . S
C939 C940 1.400 . S
C939 C944 1.490 . S
C940 H930 0.930 . S
C940 C939 1.400 . S
C940 C943 1.386 . S
H941 C957 0.930 . S
H942 C958 0.931 . S
C943 H931 0.929 . S
C943 C937 1.390 . S
C943 C940 1.386 . S
C944 C939 1.490 . S
C944 C946 1.395 . S
C944 C947 1.403 . S
H945 C951 0.930 . S
C946 H932 0.930 . S
C946 C944 1.395 . S
C946 C949 1.403 . S
C947 C944 1.403 . S
C947 C948 1.524 . S
C947 C951 1.400 . S
C948 H933 0.960 . S
C948 H934 0.960 . S
C948 H935 0.960 . S
C948 C947 1.524 . S
C949 C946 1.403 . S
C949 C950 1.392 . S
C949 C953 1.495 . S
C950 C949 1.392 . S
C950 C951 1.385 . S
C950 C952 1.478 . S
C951 H945 0.930 . S
C951 C947 1.400 . S
C951 C950 1.385 . S
C952 C950 1.478 . S
C952 C954 1.381 . S
C952 C958 1.383 . S
C953 C949 1.495 . S
C953 H959 0.959 . S
C953 H960 0.961 1_455 S
C953 H961 0.960 . S
C954 C952 1.381 . S
C954 C955 1.394 . S
C954 H962 0.930 . S
C955 C954 1.394 . S
C955 C956 1.383 . S
C955 H963 0.929 . S
C956 C955 1.383 . S
C956 C957 1.377 . S
C957 H941 0.930 . S
C957 C956 1.377 . S
C957 C958 1.379 . S
C958 H942 0.931 . S
C958 C952 1.383 . S
C958 C957 1.379 . S
H959 C953 0.959 . S
H960 C953 0.961 1_655 S
H961 C953 0.960 . S
H962 C954 0.930 . S
H963 C955 0.929 . S
H964 C972 0.929 . S
H965 C974 0.930 . S
H966 C976 0.930 . S
H967 C979 0.929 . S
H968 C982 0.930 . S
H969 C984 0.960 . S
H970 C984 0.960 . S
H971 C984 0.960 . S
C972 H964 0.929 . S
C972 C973 1.377 . S
C972 C974 1.384 . S
C973 C972 1.377 . S
C973 C979 1.390 . S
C974 H965 0.930 . S
C974 C972 1.384 . S
C974 C975 1.372 . S
C975 C974 1.372 . S
C975 C976 1.400 . S
C975 C980 1.490 . S
C976 H966 0.930 . S
C976 C975 1.400 . S
C976 C979 1.386 . S
H977 C993 0.930 . S
H978 C994 0.931 . S
C979 H967 0.929 . S
C979 C973 1.390 . S
C979 C976 1.386 . S
C980 C975 1.490 . S
C980 C982 1.395 . S
C980 C983 1.403 . S
H981 C987 0.930 . S
C982 H968 0.930 . S
C982 C980 1.395 . S
C982 C985 1.403 . S
C983 C980 1.403 . S
C983 C984 1.524 . S
C983 C987 1.400 . S
C984 H969 0.960 . S
C984 H970 0.960 . S
C984 H971 0.960 . S
C984 C983 1.524 . S
C985 C982 1.403 . S
C985 C986 1.392 . S
C985 C989 1.495 . S
C986 C985 1.392 . S
C986 C987 1.385 . S
C986 C988 1.478 . S
C987 H981 0.930 . S
C987 C983 1.400 . S
C987 C986 1.385 . S
C988 C986 1.478 . S
C988 C990 1.381 . S
C988 C994 1.383 . S
C989 C985 1.495 . S
C989 H995 0.959 . S
C989 H996 0.961 . S
C989 H997 0.960 . S
C990 C988 1.381 . S
C990 C991 1.394 . S
C990 H998 0.930 . S
C991 C990 1.394 . S
C991 C992 1.383 . S
C991 H999 0.929 . S
C992 C991 1.383 . S
C992 C993 1.377 . S
C993 H977 0.930 . S
C993 C992 1.377 . S
C993 C994 1.379 . S
C994 H978 0.931 . S
C994 C988 1.383 . S
C994 C993 1.379 . S
H995 C989 0.959 . S
H996 C989 0.961 . S
H997 C989 0.960 . S
H998 C990 0.930 . S
H999 C991 0.929 . S
H1000 C1008 0.929 1_455 S
H1001 C1010 0.930 1_455 S
H1002 C1012 0.930 . S
H1003 C1015 0.929 . S
H1004 C1018 0.930 . S
H1005 C1020 0.960 . S
H1006 C1020 0.960 . S
H1007 C1020 0.960 . S
C1008 H1000 0.929 1_655 S
C1008 C1009 1.377 . S
C1008 C1010 1.384 . S
C1009 C1008 1.377 . S
C1009 C1015 1.390 . S
C1010 H1001 0.930 1_655 S
C1010 C1008 1.384 . S
C1010 C1011 1.372 . S
C1011 C1010 1.372 . S
C1011 C1012 1.400 . S
C1011 C1016 1.490 . S
C1012 H1002 0.930 . S
C1012 C1011 1.400 . S
C1012 C1015 1.386 . S
H1013 C1029 0.930 . S
H1014 C1030 0.931 . S
C1015 H1003 0.929 . S
C1015 C1009 1.390 . S
C1015 C1012 1.386 . S
C1016 C1011 1.490 . S
C1016 C1018 1.395 . S
C1016 C1019 1.403 . S
H1017 C1023 0.930 . S
C1018 H1004 0.930 . S
C1018 C1016 1.395 . S
C1018 C1021 1.403 . S
C1019 C1016 1.403 . S
C1019 C1020 1.524 . S
C1019 C1023 1.400 . S
C1020 H1005 0.960 . S
C1020 H1006 0.960 . S
C1020 H1007 0.960 . S
C1020 C1019 1.524 . S
C1021 C1018 1.403 . S
C1021 C1022 1.392 . S
C1021 C1025 1.482 1_655 S
C1022 C1021 1.392 . S
C1022 C1023 1.385 . S
C1022 C1024 1.478 . S
C1023 H1017 0.930 . S
C1023 C1019 1.400 . S
C1023 C1022 1.385 . S
C1024 C1022 1.478 . S
C1024 C1026 1.381 1_655 S
C1024 C1030 1.383 . S
C1025 C1021 1.482 1_455 S
C1025 H1031 0.973 . S
C1025 H1032 0.919 1_455 S
C1025 H1033 1.004 . S
C1026 C1024 1.381 1_455 S
C1026 C1027 1.394 . S
C1026 H1034 0.930 . S
C1027 C1026 1.394 . S
C1027 C1028 1.383 1_455 S
C1027 H1035 0.929 . S
C1028 C1027 1.383 1_655 S
C1028 C1029 1.377 . S
C1029 H1013 0.930 . S
C1029 C1028 1.377 . S
C1029 C1030 1.379 . S
C1030 H1014 0.931 . S
C1030 C1024 1.383 . S
C1030 C1029 1.379 . S
H1031 C1025 0.973 . S
H1032 C1025 0.919 1_655 S
H1033 C1025 1.004 . S
H1034 C1026 0.930 . S
H1035 C1027 0.929 . S
H1036 C1044 0.929 . S
H1037 C1046 0.930 . S
H1038 C1048 0.930 . S
H1039 C1051 0.929 . S
H1040 C1054 0.930 . S
H1041 C1056 0.960 . S
H1042 C1056 0.960 . S
H1043 C1056 0.960 . S
C1044 H1036 0.929 . S
C1044 C1045 1.377 . S
C1044 C1046 1.384 . S
C1045 C1044 1.377 . S
C1045 C1051 1.390 . S
C1046 H1037 0.930 . S
C1046 C1044 1.384 . S
C1046 C1047 1.372 . S
C1047 C1046 1.372 . S
C1047 C1048 1.400 . S
C1047 C1052 1.490 . S
C1048 H1038 0.930 . S
C1048 C1047 1.400 . S
C1048 C1051 1.386 . S
H1049 C1065 0.930 . S
H1050 C1066 0.931 . S
C1051 H1039 0.929 . S
C1051 C1045 1.390 . S
C1051 C1048 1.386 . S
C1052 C1047 1.490 . S
C1052 C1054 1.395 . S
C1052 C1055 1.403 . S
H1053 C1059 0.930 . S
C1054 H1040 0.930 . S
C1054 C1052 1.395 . S
C1054 C1057 1.403 . S
C1055 C1052 1.403 . S
C1055 C1056 1.524 . S
C1055 C1059 1.400 . S
C1056 H1041 0.960 . S
C1056 H1042 0.960 . S
C1056 H1043 0.960 . S
C1056 C1055 1.524 . S
C1057 C1054 1.403 . S
C1057 C1058 1.392 . S
C1057 C1061 1.495 . S
C1058 C1057 1.392 . S
C1058 C1059 1.385 . S
C1058 C1060 1.478 . S
C1059 H1053 0.930 . S
C1059 C1055 1.400 . S
C1059 C1058 1.385 . S
C1060 C1058 1.478 . S
C1060 C1062 1.381 . S
C1060 C1066 1.383 . S
C1061 C1057 1.495 . S
C1061 H1067 0.959 . S
C1061 H1068 0.961 . S
C1061 H1069 0.960 . S
C1062 C1060 1.381 . S
C1062 C1063 1.394 . S
C1062 H1070 0.930 . S
C1063 C1062 1.394 . S
C1063 C1064 1.383 . S
C1063 H1071 0.929 . S
C1064 C1063 1.383 . S
C1064 C1065 1.377 . S
C1065 H1049 0.930 . S
C1065 C1064 1.377 . S
C1065 C1066 1.379 . S
C1066 H1050 0.931 . S
C1066 C1060 1.383 . S
C1066 C1065 1.379 . S
H1067 C1061 0.959 . S
H1068 C1061 0.961 . S
H1069 C1061 0.960 . S
H1070 C1062 0.930 . S
H1071 C1063 0.929 . S
H1072 C1080 0.929 . S
H1073 C1082 0.930 . S
H1074 C1084 0.930 . S
H1075 C1087 0.929 . S
H1076 C1090 0.930 . S
H1077 C1092 0.960 . S
H1078 C1092 0.960 . S
H1079 C1092 0.960 . S
C1080 H1072 0.929 . S
C1080 C1081 1.377 . S
C1080 C1082 1.384 . S
C1081 C1080 1.377 . S
C1081 C1087 1.390 . S
C1082 H1073 0.930 . S
C1082 C1080 1.384 . S
C1082 C1083 1.372 . S
C1083 C1082 1.372 . S
C1083 C1084 1.400 . S
C1083 C1088 1.490 . S
C1084 H1074 0.930 . S
C1084 C1083 1.400 . S
C1084 C1087 1.386 . S
H1085 C1101 0.930 . S
H1086 C1102 0.931 . S
C1087 H1075 0.929 . S
C1087 C1081 1.390 . S
C1087 C1084 1.386 . S
C1088 C1083 1.490 . S
C1088 C1090 1.395 . S
C1088 C1091 1.403 . S
H1089 C1095 0.930 . S
C1090 H1076 0.930 . S
C1090 C1088 1.395 . S
C1090 C1093 1.403 . S
C1091 C1088 1.403 . S
C1091 C1092 1.524 . S
C1091 C1095 1.400 . S
C1092 H1077 0.960 . S
C1092 H1078 0.960 . S
C1092 H1079 0.960 . S
C1092 C1091 1.524 . S
C1093 C1090 1.403 . S
C1093 C1094 1.392 . S
C1093 C1097 1.495 . S
C1094 C1093 1.392 . S
C1094 C1095 1.385 . S
C1094 C1096 1.478 . S
C1095 H1089 0.930 . S
C1095 C1091 1.400 . S
C1095 C1094 1.385 . S
C1096 C1094 1.478 . S
C1096 C1098 1.381 . S
C1096 C1102 1.383 . S
C1097 C1093 1.495 . S
C1097 H1103 0.959 . S
C1097 H1104 0.961 . S
C1097 H1105 0.960 . S
C1098 C1096 1.381 . S
C1098 C1099 1.394 . S
C1098 H1106 0.930 . S
C1099 C1098 1.394 . S
C1099 C1100 1.383 . S
C1099 H1107 0.929 . S
C1100 C1099 1.383 . S
C1100 C1101 1.377 . S
C1101 H1085 0.930 . S
C1101 C1100 1.377 . S
C1101 C1102 1.379 . S
C1102 H1086 0.931 . S
C1102 C1096 1.383 . S
C1102 C1101 1.379 . S
H1103 C1097 0.959 . S
H1104 C1097 0.961 . S
H1105 C1097 0.960 . S
H1106 C1098 0.930 . S
H1107 C1099 0.929 . S
H1108 C1116 0.929 . S
H1109 C1118 0.930 1_554 S
H1110 C1120 0.930 . S
H1111 C1123 0.929 . S
H1112 C1126 0.930 . S
H1113 C1128 0.960 . S
H1114 C1128 0.960 . S
H1115 C1128 0.960 1_556 S
C1116 H1108 0.929 . S
C1116 C1117 1.377 . S
C1116 C1118 1.384 . S
C1117 C1116 1.377 . S
C1117 C1123 1.390 1_545 S
C1118 H1109 0.930 1_556 S
C1118 C1116 1.384 . S
C1118 C1119 1.372 1_545 S
C1119 C1118 1.372 1_565 S
C1119 C1120 1.400 . S
C1119 C1124 1.490 . S
C1120 H1110 0.930 . S
C1120 C1119 1.400 . S
C1120 C1123 1.386 . S
H1121 C1137 0.930 . S
H1122 C1138 0.931 1_556 S
C1123 H1111 0.929 . S
C1123 C1117 1.390 1_565 S
C1123 C1120 1.386 . S
C1124 C1119 1.490 . S
C1124 C1126 1.395 . S
C1124 C1127 1.403 1_556 S
H1125 C1131 0.930 . S
C1126 H1112 0.930 . S
C1126 C1124 1.395 . S
C1126 C1129 1.403 1_556 S
C1127 C1124 1.403 1_554 S
C1127 C1128 1.524 . S
C1127 C1131 1.400 . S
C1128 H1113 0.960 . S
C1128 H1114 0.960 . S
C1128 H1115 0.960 1_554 S
C1128 C1127 1.524 . S
C1129 C1126 1.403 1_554 S
C1129 C1130 1.392 . S
C1129 C1133 1.495 . S
C1130 C1129 1.392 . S
C1130 C1131 1.385 . S
C1130 C1132 1.478 . S
C1131 H1125 0.930 . S
C1131 C1127 1.400 . S
C1131 C1130 1.385 . S
C1132 C1130 1.478 . S
C1132 C1134 1.381 . S
C1132 C1138 1.383 . S
C1133 C1129 1.495 . S
C1133 H1139 0.959 1_554 S
C1133 H1140 0.961 1_554 S
C1133 H1141 0.960 . S
C1134 C1132 1.381 . S
C1134 C1135 1.394 . S
C1134 H1142 0.930 . S
C1135 C1134 1.394 . S
C1135 C1136 1.383 . S
C1135 H1143 0.929 . S
C1136 C1135 1.383 . S
C1136 C1137 1.377 . S
C1137 H1121 0.930 . S
C1137 C1136 1.377 . S
C1137 C1138 1.379 . S
C1138 H1122 0.931 1_554 S
C1138 C1132 1.383 . S
C1138 C1137 1.379 . S
H1139 C1133 0.959 1_556 S
H1140 C1133 0.961 1_556 S
H1141 C1133 0.960 . S
H1142 C1134 0.930 . S
H1143 C1135 0.929 . S
H1144 C1152 0.929 . S
H1145 C1154 0.930 . S
H1146 C1156 0.930 . S
H1147 C1159 0.929 . S
H1148 C1162 0.930 . S
H1149 C1164 0.960 . S
H1150 C1164 0.960 . S
H1151 C1164 0.960 . S
C1152 H1144 0.929 . S
C1152 C1153 1.377 . S
C1152 C1154 1.384 . S
C1153 C1152 1.377 . S
C1153 C1159 1.390 . S
C1154 H1145 0.930 . S
C1154 C1152 1.384 . S
C1154 C1155 1.372 . S
C1155 C1154 1.372 . S
C1155 C1156 1.400 . S
C1155 C1160 1.490 . S
C1156 H1146 0.930 . S
C1156 C1155 1.400 . S
C1156 C1159 1.386 . S
H1157 C1173 0.930 . S
H1158 C1174 0.931 . S
C1159 H1147 0.929 . S
C1159 C1153 1.390 . S
C1159 C1156 1.386 . S
C1160 C1155 1.490 . S
C1160 C1162 1.395 . S
C1160 C1163 1.403 . S
H1161 C1167 0.930 . S
C1162 H1148 0.930 . S
C1162 C1160 1.395 . S
C1162 C1165 1.403 . S
C1163 C1160 1.403 . S
C1163 C1164 1.524 . S
C1163 C1167 1.400 . S
C1164 H1149 0.960 . S
C1164 H1150 0.960 . S
C1164 H1151 0.960 . S
C1164 C1163 1.524 . S
C1165 C1162 1.403 . S
C1165 C1166 1.392 . S
C1165 C1169 1.495 . S
C1166 C1165 1.392 . S
C1166 C1167 1.385 . S
C1166 C1168 1.478 . S
C1167 H1161 0.930 . S
C1167 C1163 1.400 . S
C1167 C1166 1.385 . S
C1168 C1166 1.478 . S
C1168 C1170 1.381 . S
C1168 C1174 1.383 . S
C1169 C1165 1.495 . S
C1169 H1175 0.959 . S
C1169 H1176 0.961 . S
C1169 H1177 0.960 . S
C1170 C1168 1.381 . S
C1170 C1171 1.394 . S
C1170 H1178 0.930 . S
C1171 C1170 1.394 . S
C1171 C1172 1.383 . S
C1171 H1179 0.929 . S
C1172 C1171 1.383 . S
C1172 C1173 1.377 . S
C1173 H1157 0.930 . S
C1173 C1172 1.377 . S
C1173 C1174 1.379 . S
C1174 H1158 0.931 . S
C1174 C1168 1.383 . S
C1174 C1173 1.379 . S
H1175 C1169 0.959 . S
H1176 C1169 0.961 . S
H1177 C1169 0.960 . S
H1178 C1170 0.930 . S
H1179 C1171 0.929 . S
H1180 C1188 0.929 . S
H1181 C1190 0.930 . S
H1182 C1192 0.930 . S
H1183 C1195 0.929 . S
H1184 C1198 0.930 . S
H1185 C1200 0.960 . S
H1186 C1200 0.960 . S
H1187 C1200 0.960 . S
C1188 H1180 0.929 . S
C1188 C1189 1.335 1_545 S
C1188 C1190 1.384 . S
C1189 C1188 1.335 1_565 S
C1189 C1195 1.406 . S
C1190 H1181 0.930 . S
C1190 C1188 1.384 . S
C1190 C1191 1.372 . S
C1191 C1190 1.372 . S
C1191 C1192 1.400 . S
C1191 C1196 1.490 . S
C1192 H1182 0.930 . S
C1192 C1191 1.400 . S
C1192 C1195 1.386 1_545 S
H1193 C1209 0.930 . S
H1194 C1210 0.931 . S
C1195 H1183 0.929 . S
C1195 C1189 1.406 . S
C1195 C1192 1.386 1_565 S
C1196 C1191 1.490 . S
C1196 C1198 1.395 . S
C1196 C1199 1.403 . S
H1197 C1203 0.930 . S
C1198 H1184 0.930 . S
C1198 C1196 1.395 . S
C1198 C1201 1.403 . S
C1199 C1196 1.403 . S
C1199 C1200 1.524 . S
C1199 C1203 1.400 . S
C1200 H1185 0.960 . S
C1200 H1186 0.960 . S
C1200 H1187 0.960 . S
C1200 C1199 1.524 . S
C1201 C1198 1.403 . S
C1201 C1202 1.392 . S
C1201 C1205 1.495 . S
C1202 C1201 1.392 . S
C1202 C1203 1.385 . S
C1202 C1204 1.478 . S
C1203 H1197 0.930 . S
C1203 C1199 1.400 . S
C1203 C1202 1.385 . S
C1204 C1202 1.478 . S
C1204 C1206 1.381 . S
C1204 C1210 1.383 . S
C1205 C1201 1.495 . S
C1205 H1211 0.959 . S
C1205 H1212 0.961 . S
C1205 H1213 0.960 . S
C1206 C1204 1.381 . S
C1206 C1207 1.394 . S
C1206 H1214 0.930 . S
C1207 C1206 1.394 . S
C1207 C1208 1.383 . S
C1207 H1215 0.929 . S
C1208 C1207 1.383 . S
C1208 C1209 1.377 . S
C1209 H1193 0.930 . S
C1209 C1208 1.377 . S
C1209 C1210 1.379 . S
C1210 H1194 0.931 . S
C1210 C1204 1.383 . S
C1210 C1209 1.379 . S
H1211 C1205 0.959 . S
H1212 C1205 0.961 . S
H1213 C1205 0.960 . S
H1214 C1206 0.930 . S
H1215 C1207 0.929 . S
H1216 C1224 0.929 . S
H1217 C1226 0.930 . S
H1218 C1228 0.930 . S
H1219 C1231 0.929 . S
H1220 C1234 0.930 . S
H1221 C1236 0.960 . S
H1222 C1236 0.960 . S
H1223 C1236 0.960 . S
C1224 H1216 0.929 . S
C1224 C1225 1.377 . S
C1224 C1226 1.384 . S
C1225 C1224 1.377 . S
C1225 C1231 1.390 . S
C1226 H1217 0.930 . S
C1226 C1224 1.384 . S
C1226 C1227 1.372 . S
C1227 C1226 1.372 . S
C1227 C1228 1.400 . S
C1227 C1232 1.490 . S
C1228 H1218 0.930 . S
C1228 C1227 1.400 . S
C1228 C1231 1.386 . S
H1229 C1245 0.930 . S
H1230 C1246 0.931 . S
C1231 H1219 0.929 . S
C1231 C1225 1.390 . S
C1231 C1228 1.386 . S
C1232 C1227 1.490 . S
C1232 C1234 1.395 . S
C1232 C1235 1.403 . S
H1233 C1239 0.930 . S
C1234 H1220 0.930 . S
C1234 C1232 1.395 . S
C1234 C1237 1.403 . S
C1235 C1232 1.403 . S
C1235 C1236 1.524 . S
C1235 C1239 1.400 . S
C1236 H1221 0.960 . S
C1236 H1222 0.960 . S
C1236 H1223 0.960 . S
C1236 C1235 1.524 . S
C1237 C1234 1.403 . S
C1237 C1238 1.392 . S
C1237 C1241 1.495 . S
C1238 C1237 1.392 . S
C1238 C1239 1.385 . S
C1238 C1240 1.478 . S
C1239 H1233 0.930 . S
C1239 C1235 1.400 . S
C1239 C1238 1.385 . S
C1240 C1238 1.478 . S
C1240 C1242 1.381 . S
C1240 C1246 1.383 . S
C1241 C1237 1.495 . S
C1241 H1247 0.959 . S
C1241 H1248 0.961 . S
C1241 H1249 0.960 . S
C1242 C1240 1.381 . S
C1242 C1243 1.394 . S
C1242 H1250 0.930 . S
C1243 C1242 1.394 . S
C1243 C1244 1.383 . S
C1243 H1251 0.929 . S
C1244 C1243 1.383 . S
C1244 C1245 1.377 . S
C1245 H1229 0.930 . S
C1245 C1244 1.377 . S
C1245 C1246 1.379 . S
C1246 H1230 0.931 . S
C1246 C1240 1.383 . S
C1246 C1245 1.379 . S
H1247 C1241 0.959 . S
H1248 C1241 0.961 . S
H1249 C1241 0.960 . S
H1250 C1242 0.930 . S
H1251 C1243 0.929 . S
H1252 C1260 0.929 . S
H1253 C1262 0.930 . S
H1254 C1264 0.930 . S
H1255 C1267 0.929 . S
H1256 C1270 0.930 . S
H1257 C1272 0.960 . S
H1258 C1272 0.960 . S
H1259 C1272 0.960 . S
C1260 H1252 0.929 . S
C1260 C1261 1.375 1_565 S
C1260 C1262 1.384 1_565 S
C1261 C1260 1.375 1_545 S
C1261 C1267 1.413 . S
C1262 H1253 0.930 . S
C1262 C1260 1.384 1_545 S
C1262 C1263 1.372 . S
C1263 C1262 1.372 . S
C1263 C1264 1.400 . S
C1263 C1268 1.490 . S
C1264 H1254 0.930 . S
C1264 C1263 1.400 . S
C1264 C1267 1.386 . S
H1265 C1281 0.930 . S
H1266 C1282 0.931 . S
C1267 H1255 0.929 . S
C1267 C1261 1.413 . S
C1267 C1264 1.386 . S
C1268 C1263 1.490 . S
C1268 C1270 1.395 . S
C1268 C1271 1.403 . S
H1269 C1275 0.930 . S
C1270 H1256 0.930 . S
C1270 C1268 1.395 . S
C1270 C1273 1.403 . S
C1271 C1268 1.403 . S
C1271 C1272 1.524 . S
C1271 C1275 1.400 . S
C1272 H1257 0.960 . S
C1272 H1258 0.960 . S
C1272 H1259 0.960 . S
C1272 C1271 1.524 . S
C1273 C1270 1.403 . S
C1273 C1274 1.392 . S
C1273 C1277 1.495 . S
C1274 C1273 1.392 . S
C1274 C1275 1.385 . S
C1274 C1276 1.478 . S
C1275 H1269 0.930 . S
C1275 C1271 1.400 . S
C1275 C1274 1.385 . S
C1276 C1274 1.478 . S
C1276 C1278 1.381 . S
C1276 C1282 1.383 . S
C1277 C1273 1.495 . S
C1277 H1283 0.959 . S
C1277 H1284 0.961 . S
C1277 H1285 0.960 . S
C1278 C1276 1.381 . S
C1278 C1279 1.394 . S
C1278 H1286 0.930 . S
C1279 C1278 1.394 . S
C1279 C1280 1.383 . S
C1279 H1287 0.929 . S
C1280 C1279 1.383 . S
C1280 C1281 1.377 . S
C1281 H1265 0.930 . S
C1281 C1280 1.377 . S
C1281 C1282 1.379 . S
C1282 H1266 0.931 . S
C1282 C1276 1.383 . S
C1282 C1281 1.379 . S
H1283 C1277 0.959 . S
H1284 C1277 0.961 . S
H1285 C1277 0.960 . S
H1286 C1278 0.930 . S
H1287 C1279 0.929 . S
H1288 C1296 0.929 . S
H1289 C1298 0.930 . S
H1290 C1300 0.930 . S
H1291 C1303 0.929 . S
H1292 C1306 0.930 . S
H1293 C1308 0.960 . S
H1294 C1308 0.960 . S
H1295 C1308 0.960 . S
C1296 H1288 0.929 . S
C1296 C1297 1.377 . S
C1296 C1298 1.384 . S
C1297 C1296 1.377 . S
C1297 C1303 1.390 . S
C1298 H1289 0.930 . S
C1298 C1296 1.384 . S
C1298 C1299 1.372 . S
C1299 C1298 1.372 . S
C1299 C1300 1.400 . S
C1299 C1304 1.490 . S
C1300 H1290 0.930 . S
C1300 C1299 1.400 . S
C1300 C1303 1.386 . S
H1301 C1317 0.930 . S
H1302 C1318 0.931 . S
C1303 H1291 0.929 . S
C1303 C1297 1.390 . S
C1303 C1300 1.386 . S
C1304 C1299 1.490 . S
C1304 C1306 1.395 . S
C1304 C1307 1.403 . S
H1305 C1311 0.930 . S
C1306 H1292 0.930 . S
C1306 C1304 1.395 . S
C1306 C1309 1.403 . S
C1307 C1304 1.403 . S
C1307 C1308 1.524 . S
C1307 C1311 1.400 . S
C1308 H1293 0.960 . S
C1308 H1294 0.960 . S
C1308 H1295 0.960 . S
C1308 C1307 1.524 . S
C1309 C1306 1.403 . S
C1309 C1310 1.392 . S
C1309 C1313 1.495 . S
C1310 C1309 1.392 . S
C1310 C1311 1.385 . S
C1310 C1312 1.478 . S
C1311 H1305 0.930 . S
C1311 C1307 1.400 . S
C1311 C1310 1.385 . S
C1312 C1310 1.478 . S
C1312 C1314 1.381 . S
C1312 C1318 1.383 . S
C1313 C1309 1.495 . S
C1313 H1319 0.959 . S
C1313 H1320 0.961 . S
C1313 H1321 0.960 . S
C1314 C1312 1.381 . S
C1314 C1315 1.394 . S
C1314 H1322 0.930 . S
C1315 C1314 1.394 . S
C1315 C1316 1.383 . S
C1315 H1323 0.929 . S
C1316 C1315 1.383 . S
C1316 C1317 1.377 . S
C1317 H1301 0.930 . S
C1317 C1316 1.377 . S
C1317 C1318 1.379 . S
C1318 H1302 0.931 . S
C1318 C1312 1.383 . S
C1318 C1317 1.379 . S
H1319 C1313 0.959 . S
H1320 C1313 0.961 . S
H1321 C1313 0.960 . S
H1322 C1314 0.930 . S
H1323 C1315 0.929 . S
H1324 C1332 0.929 . S
H1325 C1334 0.930 . S
H1326 C1336 0.930 . S
H1327 C1339 0.929 . S
H1328 C1342 0.930 . S
H1329 C1344 0.960 . S
H1330 C1344 0.960 . S
H1331 C1344 0.960 . S
C1332 H1324 0.929 . S
C1332 C1333 1.377 . S
C1332 C1334 1.384 . S
C1333 C1332 1.377 . S
C1333 C1339 1.390 . S
C1334 H1325 0.930 . S
C1334 C1332 1.384 . S
C1334 C1335 1.372 . S
C1335 C1334 1.372 . S
C1335 C1336 1.400 . S
C1335 C1340 1.490 . S
C1336 H1326 0.930 . S
C1336 C1335 1.400 . S
C1336 C1339 1.386 . S
H1337 C1353 0.930 . S
H1338 C1354 0.931 . S
C1339 H1327 0.929 . S
C1339 C1333 1.390 . S
C1339 C1336 1.386 . S
C1340 C1335 1.490 . S
C1340 C1342 1.395 . S
C1340 C1343 1.403 . S
H1341 C1347 0.930 . S
C1342 H1328 0.930 . S
C1342 C1340 1.395 . S
C1342 C1345 1.403 . S
C1343 C1340 1.403 . S
C1343 C1344 1.524 . S
C1343 C1347 1.400 . S
C1344 H1329 0.960 . S
C1344 H1330 0.960 . S
C1344 H1331 0.960 . S
C1344 C1343 1.524 . S
C1345 C1342 1.403 . S
C1345 C1346 1.392 . S
C1345 C1349 1.495 . S
C1346 C1345 1.392 . S
C1346 C1347 1.385 . S
C1346 C1348 1.478 . S
C1347 H1341 0.930 . S
C1347 C1343 1.400 . S
C1347 C1346 1.385 . S
C1348 C1346 1.478 . S
C1348 C1350 1.381 . S
C1348 C1354 1.383 . S
C1349 C1345 1.495 . S
C1349 H1355 0.959 . S
C1349 H1356 0.961 . S
C1349 H1357 0.960 . S
C1350 C1348 1.381 . S
C1350 C1351 1.394 . S
C1350 H1358 0.930 . S
C1351 C1350 1.394 . S
C1351 C1352 1.383 . S
C1351 H1359 0.929 . S
C1352 C1351 1.383 . S
C1352 C1353 1.377 . S
C1353 H1337 0.930 . S
C1353 C1352 1.377 . S
C1353 C1354 1.379 . S
C1354 H1338 0.931 . S
C1354 C1348 1.383 . S
C1354 C1353 1.379 . S
H1355 C1349 0.959 . S
H1356 C1349 0.961 . S
H1357 C1349 0.960 . S
H1358 C1350 0.930 . S
H1359 C1351 0.929 . S
H1360 C1368 0.929 . S
H1361 C1370 0.930 . S
H1362 C1372 0.930 . S
H1363 C1375 0.929 . S
H1364 C1378 0.930 . S
H1365 C1380 0.960 . S
H1366 C1380 0.960 . S
H1367 C1380 0.960 . S
C1368 H1360 0.929 . S
C1368 C1369 1.377 . S
C1368 C1370 1.384 . S
C1369 C1368 1.377 . S
C1369 C1375 1.390 . S
C1370 H1361 0.930 . S
C1370 C1368 1.384 . S
C1370 C1371 1.372 . S
C1371 C1370 1.372 . S
C1371 C1372 1.400 . S
C1371 C1376 1.490 . S
C1372 H1362 0.930 . S
C1372 C1371 1.400 . S
C1372 C1375 1.386 . S
H1373 C1389 0.930 . S
H1374 C1390 0.931 . S
C1375 H1363 0.929 . S
C1375 C1369 1.390 . S
C1375 C1372 1.386 . S
C1376 C1371 1.490 . S
C1376 C1378 1.395 . S
C1376 C1379 1.403 . S
H1377 C1383 0.930 . S
C1378 H1364 0.930 . S
C1378 C1376 1.395 . S
C1378 C1381 1.403 . S
C1379 C1376 1.403 . S
C1379 C1380 1.524 . S
C1379 C1383 1.400 . S
C1380 H1365 0.960 . S
C1380 H1366 0.960 . S
C1380 H1367 0.960 . S
C1380 C1379 1.524 . S
C1381 C1378 1.403 . S
C1381 C1382 1.392 . S
C1381 C1385 1.495 1_545 S
C1382 C1381 1.392 . S
C1382 C1383 1.385 . S
C1382 C1384 1.478 . S
C1383 H1377 0.930 . S
C1383 C1379 1.400 . S
C1383 C1382 1.385 . S
C1384 C1382 1.478 . S
C1384 C1386 1.381 . S
C1384 C1390 1.383 . S
C1385 C1381 1.495 1_565 S
C1385 H1391 0.959 . S
C1385 H1392 0.961 1_565 S
C1385 H1393 0.960 . S
C1386 C1384 1.381 . S
C1386 C1387 1.394 . S
C1386 H1394 0.930 1_545 S
C1387 C1386 1.394 . S
C1387 C1388 1.383 . S
C1387 H1395 0.929 1_545 S
C1388 C1387 1.383 . S
C1388 C1389 1.377 . S
C1389 H1373 0.930 . S
C1389 C1388 1.377 . S
C1389 C1390 1.379 . S
C1390 H1374 0.931 . S
C1390 C1384 1.383 . S
C1390 C1389 1.379 . S
H1391 C1385 0.959 . S
H1392 C1385 0.961 1_545 S
H1393 C1385 0.960 . S
H1394 C1386 0.930 1_565 S
H1395 C1387 0.929 1_565 S
H1396 C1404 0.929 . S
H1397 C1406 0.930 . S
H1398 C1408 0.930 . S
H1399 C1411 0.929 . S
H1400 C1414 0.930 . S
H1401 C1416 0.960 . S
H1402 C1416 0.960 . S
H1403 C1416 0.960 . S
C1404 H1396 0.929 . S
C1404 C1405 1.377 . S
C1404 C1406 1.384 . S
C1405 C1404 1.377 . S
C1405 C1411 1.390 . S
C1406 H1397 0.930 . S
C1406 C1404 1.384 . S
C1406 C1407 1.372 . S
C1407 C1406 1.372 . S
C1407 C1408 1.400 . S
C1407 C1412 1.490 . S
C1408 H1398 0.930 . S
C1408 C1407 1.400 . S
C1408 C1411 1.386 . S
H1409 C1425 0.930 . S
H1410 C1426 0.931 . S
C1411 H1399 0.929 . S
C1411 C1405 1.390 . S
C1411 C1408 1.386 . S
C1412 C1407 1.490 . S
C1412 C1414 1.395 . S
C1412 C1415 1.403 . S
H1413 C1419 0.930 . S
C1414 H1400 0.930 . S
C1414 C1412 1.395 . S
C1414 C1417 1.403 . S
C1415 C1412 1.403 . S
C1415 C1416 1.524 . S
C1415 C1419 1.400 . S
C1416 H1401 0.960 . S
C1416 H1402 0.960 . S
C1416 H1403 0.960 . S
C1416 C1415 1.524 . S
C1417 C1414 1.403 . S
C1417 C1418 1.392 . S
C1417 C1421 1.495 . S
C1418 C1417 1.392 . S
C1418 C1419 1.385 . S
C1418 C1420 1.478 . S
C1419 H1413 0.930 . S
C1419 C1415 1.400 . S
C1419 C1418 1.385 . S
C1420 C1418 1.478 . S
C1420 C1422 1.381 . S
C1420 C1426 1.383 . S
C1421 C1417 1.495 . S
C1421 H1427 0.959 . S
C1421 H1428 0.961 . S
C1421 H1429 0.960 . S
C1422 C1420 1.381 . S
C1422 C1423 1.394 . S
C1422 H1430 0.930 . S
C1423 C1422 1.394 . S
C1423 C1424 1.383 . S
C1423 H1431 0.929 . S
C1424 C1423 1.383 . S
C1424 C1425 1.377 . S
C1425 H1409 0.930 . S
C1425 C1424 1.377 . S
C1425 C1426 1.379 . S
C1426 H1410 0.931 . S
C1426 C1420 1.383 . S
C1426 C1425 1.379 . S
H1427 C1421 0.959 . S
H1428 C1421 0.961 . S
H1429 C1421 0.960 . S
H1430 C1422 0.930 . S
H1431 C1423 0.929 . S
H1432 C1440 0.929 . S
H1433 C1442 0.930 . S
H1434 C1444 0.930 . S
H1435 C1447 0.929 . S
H1436 C1450 0.930 . S
H1437 C1452 0.960 . S
H1438 C1452 0.960 . S
H1439 C1452 0.960 . S
C1440 H1432 0.929 . S
C1440 C1441 1.377 . S
C1440 C1442 1.384 . S
C1441 C1440 1.377 . S
C1441 C1447 1.390 . S
C1442 H1433 0.930 . S
C1442 C1440 1.384 . S
C1442 C1443 1.372 . S
C1443 C1442 1.372 . S
C1443 C1444 1.400 . S
C1443 C1448 1.490 . S
C1444 H1434 0.930 . S
C1444 C1443 1.400 . S
C1444 C1447 1.386 . S
H1445 C1461 0.930 . S
H1446 C1462 0.931 . S
C1447 H1435 0.929 . S
C1447 C1441 1.390 . S
C1447 C1444 1.386 . S
C1448 C1443 1.490 . S
C1448 C1450 1.395 . S
C1448 C1451 1.403 . S
H1449 C1455 0.930 . S
C1450 H1436 0.930 . S
C1450 C1448 1.395 . S
C1450 C1453 1.403 . S
C1451 C1448 1.403 . S
C1451 C1452 1.524 . S
C1451 C1455 1.400 . S
C1452 H1437 0.960 . S
C1452 H1438 0.960 . S
C1452 H1439 0.960 . S
C1452 C1451 1.524 . S
C1453 C1450 1.403 . S
C1453 C1454 1.392 . S
C1453 C1457 1.495 . S
C1454 C1453 1.392 . S
C1454 C1455 1.385 . S
C1454 C1456 1.478 . S
C1455 H1449 0.930 . S
C1455 C1451 1.400 . S
C1455 C1454 1.385 . S
C1456 C1454 1.478 . S
C1456 C1458 1.381 . S
C1456 C1462 1.383 . S
C1457 C1453 1.495 . S
C1457 H1463 0.959 . S
C1457 H1464 0.961 . S
C1457 H1465 0.960 . S
C1458 C1456 1.381 . S
C1458 C1459 1.394 . S
C1458 H1466 0.930 . S
C1459 C1458 1.394 . S
C1459 C1460 1.383 . S
C1459 H1467 0.929 . S
C1460 C1459 1.383 . S
C1460 C1461 1.377 . S
C1461 H1445 0.930 . S
C1461 C1460 1.377 . S
C1461 C1462 1.379 . S
C1462 H1446 0.931 . S
C1462 C1456 1.383 . S
C1462 C1461 1.379 . S
H1463 C1457 0.959 . S
H1464 C1457 0.961 . S
H1465 C1457 0.960 . S
H1466 C1458 0.930 . S
H1467 C1459 0.929 . S
H1468 C1476 0.929 . S
H1469 C1478 0.930 . S
H1470 C1480 0.930 . S
H1471 C1483 0.929 . S
H1472 C1486 0.930 . S
H1473 C1488 0.960 . S
H1474 C1488 0.960 . S
H1475 C1488 0.960 . S
C1476 H1468 0.929 . S
C1476 C1477 1.377 . S
C1476 C1478 1.384 . S
C1477 C1476 1.377 . S
C1477 C1483 1.390 . S
C1478 H1469 0.930 . S
C1478 C1476 1.384 . S
C1478 C1479 1.372 . S
C1479 C1478 1.372 . S
C1479 C1480 1.400 . S
C1479 C1484 1.490 . S
C1480 H1470 0.930 . S
C1480 C1479 1.400 . S
C1480 C1483 1.386 . S
H1481 C1497 0.930 . S
H1482 C1498 0.931 . S
C1483 H1471 0.929 . S
C1483 C1477 1.390 . S
C1483 C1480 1.386 . S
C1484 C1479 1.490 . S
C1484 C1486 1.395 . S
C1484 C1487 1.403 . S
H1485 C1491 0.930 . S
C1486 H1472 0.930 . S
C1486 C1484 1.395 . S
C1486 C1489 1.403 . S
C1487 C1484 1.403 . S
C1487 C1488 1.524 . S
C1487 C1491 1.400 . S
C1488 H1473 0.960 . S
C1488 H1474 0.960 . S
C1488 H1475 0.960 . S
C1488 C1487 1.524 . S
C1489 C1486 1.403 . S
C1489 C1490 1.392 . S
C1489 C1493 1.495 . S
C1490 C1489 1.392 . S
C1490 C1491 1.385 . S
C1490 C1492 1.478 . S
C1491 H1485 0.930 . S
C1491 C1487 1.400 . S
C1491 C1490 1.385 . S
C1492 C1490 1.478 . S
C1492 C1494 1.381 . S
C1492 C1498 1.383 . S
C1493 C1489 1.495 . S
C1493 H1499 0.959 . S
C1493 H1500 0.961 . S
C1493 H1501 0.960 . S
C1494 C1492 1.381 . S
C1494 C1495 1.394 . S
C1494 H1502 0.930 . S
C1495 C1494 1.394 . S
C1495 C1496 1.383 . S
C1495 H1503 0.929 . S
C1496 C1495 1.383 . S
C1496 C1497 1.377 . S
C1497 H1481 0.930 . S
C1497 C1496 1.377 . S
C1497 C1498 1.379 . S
C1498 H1482 0.931 . S
C1498 C1492 1.383 . S
C1498 C1497 1.379 . S
H1499 C1493 0.959 . S
H1500 C1493 0.961 . S
H1501 C1493 0.960 . S
H1502 C1494 0.930 . S
H1503 C1495 0.929 . S
H1504 C1512 0.929 . S
H1505 C1514 0.930 . S
H1506 C1516 0.930 1_655 S
H1507 C1519 0.929 . S
H1508 C1522 0.930 . S
H1509 C1524 0.960 1_565 S
H1510 C1524 0.960 1_565 S
H1511 C1524 0.960 . S
C1512 H1504 0.929 . S
C1512 C1513 1.377 . S
C1512 C1514 1.384 . S
C1513 C1512 1.377 . S
C1513 C1519 1.390 . S
C1514 H1505 0.930 . S
C1514 C1512 1.384 . S
C1514 C1515 1.372 . S
C1515 C1514 1.372 . S
C1515 C1516 1.400 . S
C1515 C1520 1.490 . S
C1516 H1506 0.930 1_455 S
C1516 C1515 1.400 . S
C1516 C1519 1.386 . S
H1517 C1533 0.930 . S
H1518 C1534 0.931 . S
C1519 H1507 0.929 . S
C1519 C1513 1.390 . S
C1519 C1516 1.386 . S
C1520 C1515 1.490 . S
C1520 C1522 1.395 . S
C1520 C1523 1.403 1_455 S
H1521 C1527 0.930 . S
C1522 H1508 0.930 . S
C1522 C1520 1.395 . S
C1522 C1525 1.403 . S
C1523 C1520 1.403 1_655 S
C1523 C1524 1.524 . S
C1523 C1527 1.400 . S
C1524 H1509 0.960 1_545 S
C1524 H1510 0.960 1_545 S
C1524 H1511 0.960 . S
C1524 C1523 1.524 . S
C1525 C1522 1.403 . S
C1525 C1526 1.390 . S
C1525 C1529 1.495 . S
C1526 C1525 1.390 . S
C1526 C1527 1.386 1_455 S
C1526 C1528 1.479 1_455 S
C1527 H1521 0.930 . S
C1527 C1523 1.400 . S
C1527 C1526 1.386 1_655 S
C1528 C1526 1.479 1_655 S
C1528 C1530 1.362 1_655 S
C1528 C1534 1.383 . S
C1529 C1525 1.495 . S
C1529 H1535 0.959 . S
C1529 H1536 0.961 . S
C1529 H1537 0.960 . S
C1530 C1528 1.362 1_455 S
C1530 C1531 1.376 1_455 S
C1530 H1538 0.970 . S
C1531 C1530 1.376 1_655 S
C1531 C1532 1.383 . S
C1531 H1539 0.929 . S
C1532 C1531 1.383 . S
C1532 C1533 1.377 . S
C1533 H1517 0.930 . S
C1533 C1532 1.377 . S
C1533 C1534 1.379 . S
C1534 H1518 0.931 . S
C1534 C1528 1.383 . S
C1534 C1533 1.379 . S
H1535 C1529 0.959 . S
H1536 C1529 0.961 . S
H1537 C1529 0.960 . S
H1538 C1530 0.970 . S
H1539 C1531 0.929 . S
H1540 C1548 0.929 . S
H1541 C1550 0.930 . S
H1542 C1552 0.930 . S
H1543 C1555 0.929 . S
H1544 C1558 0.930 . S
H1545 C1560 0.960 . S
H1546 C1560 0.960 . S
H1547 C1560 0.960 . S
C1548 H1540 0.929 . S
C1548 C1549 1.377 . S
C1548 C1550 1.384 . S
C1549 C1548 1.377 . S
C1549 C1555 1.390 . S
C1550 H1541 0.930 . S
C1550 C1548 1.384 . S
C1550 C1551 1.372 . S
C1551 C1550 1.372 . S
C1551 C1552 1.400 . S
C1551 C1556 1.490 . S
C1552 H1542 0.930 . S
C1552 C1551 1.400 . S
C1552 C1555 1.386 . S
H1553 C1569 0.930 . S
H1554 C1570 0.931 . S
C1555 H1543 0.929 . S
C1555 C1549 1.390 . S
C1555 C1552 1.386 . S
C1556 C1551 1.490 . S
C1556 C1558 1.395 . S
C1556 C1559 1.403 . S
H1557 C1563 0.930 . S
C1558 H1544 0.930 . S
C1558 C1556 1.395 . S
C1558 C1561 1.403 . S
C1559 C1556 1.403 . S
C1559 C1560 1.524 . S
C1559 C1563 1.400 . S
C1560 H1545 0.960 . S
C1560 H1546 0.960 . S
C1560 H1547 0.960 . S
C1560 C1559 1.524 . S
C1561 C1558 1.403 . S
C1561 C1562 1.392 . S
C1561 C1565 1.495 . S
C1562 C1561 1.392 . S
C1562 C1563 1.385 . S
C1562 C1564 1.478 . S
C1563 H1557 0.930 . S
C1563 C1559 1.400 . S
C1563 C1562 1.385 . S
C1564 C1562 1.478 . S
C1564 C1566 1.381 . S
C1564 C1570 1.383 . S
C1565 C1561 1.495 . S
C1565 H1571 0.959 . S
C1565 H1572 0.961 . S
C1565 H1573 0.960 . S
C1566 C1564 1.381 . S
C1566 C1567 1.394 . S
C1566 H1574 0.930 . S
C1567 C1566 1.394 . S
C1567 C1568 1.383 . S
C1567 H1575 0.929 . S
C1568 C1567 1.383 . S
C1568 C1569 1.377 . S
C1569 H1553 0.930 . S
C1569 C1568 1.377 . S
C1569 C1570 1.379 . S
C1570 H1554 0.931 . S
C1570 C1564 1.383 . S
C1570 C1569 1.379 . S
H1571 C1565 0.959 . S
H1572 C1565 0.961 . S
H1573 C1565 0.960 . S
H1574 C1566 0.930 . S
H1575 C1567 0.929 . S
H1576 C1584 0.929 1_655 S
H1577 C1586 0.930 . S
H1578 C1588 0.930 . S
H1579 C1591 0.929 . S
H1580 C1594 0.930 . S
H1581 C1596 0.960 . S
H1582 C1596 0.960 . S
H1583 C1596 0.960 . S
C1584 H1576 0.929 1_455 S
C1584 C1585 1.377 . S
C1584 C1586 1.384 . S
C1585 C1584 1.377 . S
C1585 C1591 1.390 . S
C1586 H1577 0.930 . S
C1586 C1584 1.384 . S
C1586 C1587 1.372 . S
C1587 C1586 1.372 . S
C1587 C1588 1.400 . S
C1587 C1592 1.490 . S
C1588 H1578 0.930 . S
C1588 C1587 1.400 . S
C1588 C1591 1.386 . S
H1589 C1605 0.930 . S
H1590 C1606 0.931 . S
C1591 H1579 0.929 . S
C1591 C1585 1.390 . S
C1591 C1588 1.386 . S
C1592 C1587 1.490 . S
C1592 C1594 1.395 . S
C1592 C1595 1.403 . S
H1593 C1599 0.930 . S
C1594 H1580 0.930 . S
C1594 C1592 1.395 . S
C1594 C1597 1.403 . S
C1595 C1592 1.403 . S
C1595 C1596 1.524 . S
C1595 C1599 1.400 . S
C1596 H1581 0.960 . S
C1596 H1582 0.960 . S
C1596 H1583 0.960 . S
C1596 C1595 1.524 . S
C1597 C1594 1.403 . S
C1597 C1598 1.392 . S
C1597 C1601 1.495 . S
C1598 C1597 1.392 . S
C1598 C1599 1.385 . S
C1598 C1600 1.478 . S
C1599 H1593 0.930 . S
C1599 C1595 1.400 . S
C1599 C1598 1.385 . S
C1600 C1598 1.478 . S
C1600 C1602 1.381 . S
C1600 C1606 1.383 . S
C1601 C1597 1.495 . S
C1601 H1607 0.959 . S
C1601 H1608 0.961 . S
C1601 H1609 0.960 . S
C1602 C1600 1.381 . S
C1602 C1603 1.394 . S
C1602 H1610 0.930 . S
C1603 C1602 1.394 . S
C1603 C1604 1.383 . S
C1603 H1611 0.929 . S
C1604 C1603 1.383 . S
C1604 C1605 1.377 . S
C1605 H1589 0.930 . S
C1605 C1604 1.377 . S
C1605 C1606 1.379 . S
C1606 H1590 0.931 . S
C1606 C1600 1.383 . S
C1606 C1605 1.379 . S
H1607 C1601 0.959 . S
H1608 C1601 0.961 . S
H1609 C1601 0.960 . S
H1610 C1602 0.930 . S
H1611 C1603 0.929 . S
H1612 C1620 0.929 . S
H1613 C1622 0.930 . S
H1614 C1624 0.930 . S
H1615 C1627 0.929 . S
H1616 C1630 0.930 . S
H1617 C1632 0.960 . S
H1618 C1632 0.960 . S
H1619 C1632 0.960 . S
C1620 H1612 0.929 . S
C1620 C1621 1.377 . S
C1620 C1622 1.384 . S
C1621 C1620 1.377 . S
C1621 C1627 1.390 . S
C1622 H1613 0.930 . S
C1622 C1620 1.384 . S
C1622 C1623 1.372 . S
C1623 C1622 1.372 . S
C1623 C1624 1.400 . S
C1623 C1628 1.490 . S
C1624 H1614 0.930 . S
C1624 C1623 1.400 . S
C1624 C1627 1.386 . S
H1625 C1641 0.930 . S
H1626 C1642 0.931 . S
C1627 H1615 0.929 . S
C1627 C1621 1.390 . S
C1627 C1624 1.386 . S
C1628 C1623 1.490 . S
C1628 C1630 1.395 . S
C1628 C1631 1.403 . S
H1629 C1635 0.930 . S
C1630 H1616 0.930 . S
C1630 C1628 1.395 . S
C1630 C1633 1.403 . S
C1631 C1628 1.403 . S
C1631 C1632 1.524 . S
C1631 C1635 1.400 . S
C1632 H1617 0.960 . S
C1632 H1618 0.960 . S
C1632 H1619 0.960 . S
C1632 C1631 1.524 . S
C1633 C1630 1.403 . S
C1633 C1634 1.392 . S
C1633 C1637 1.495 . S
C1634 C1633 1.392 . S
C1634 C1635 1.385 . S
C1634 C1636 1.478 . S
C1635 H1629 0.930 . S
C1635 C1631 1.400 . S
C1635 C1634 1.385 . S
C1636 C1634 1.478 . S
C1636 C1638 1.381 . S
C1636 C1642 1.383 . S
C1637 C1633 1.495 . S
C1637 H1643 0.959 . S
C1637 H1644 0.961 . S
C1637 H1645 0.960 . S
C1638 C1636 1.381 . S
C1638 C1639 1.394 . S
C1638 H1646 0.930 . S
C1639 C1638 1.394 . S
C1639 C1640 1.383 . S
C1639 H1647 0.929 . S
C1640 C1639 1.383 . S
C1640 C1641 1.377 . S
C1641 H1625 0.930 . S
C1641 C1640 1.377 . S
C1641 C1642 1.379 . S
C1642 H1626 0.931 . S
C1642 C1636 1.383 . S
C1642 C1641 1.379 . S
H1643 C1637 0.959 . S
H1644 C1637 0.961 . S
H1645 C1637 0.960 . S
H1646 C1638 0.930 . S
H1647 C1639 0.929 . S
H1648 C1656 0.929 . S
H1649 C1658 0.930 . S
H1650 C1660 0.930 . S
H1651 C1663 0.929 . S
H1652 C1666 0.930 . S
H1653 C1668 0.960 . S
H1654 C1668 0.960 . S
H1655 C1668 0.960 . S
C1656 H1648 0.929 . S
C1656 C1657 1.377 1_655 S
C1656 C1658 1.384 . S
C1657 C1656 1.377 1_455 S
C1657 C1663 1.390 . S
C1658 H1649 0.930 . S
C1658 C1656 1.384 . S
C1658 C1659 1.372 1_655 S
C1659 C1658 1.372 1_455 S
C1659 C1660 1.400 . S
C1659 C1664 1.490 . S
C1660 H1650 0.930 . S
C1660 C1659 1.400 . S
C1660 C1663 1.386 . S
H1661 C1677 0.930 . S
H1662 C1678 0.931 . S
C1663 H1651 0.929 . S
C1663 C1657 1.390 . S
C1663 C1660 1.386 . S
C1664 C1659 1.490 . S
C1664 C1666 1.395 1_455 S
C1664 C1667 1.403 . S
H1665 C1671 0.930 . S
C1666 H1652 0.930 . S
C1666 C1664 1.395 1_655 S
C1666 C1669 1.403 . S
C1667 C1664 1.403 . S
C1667 C1668 1.524 . S
C1667 C1671 1.400 . S
C1668 H1653 0.960 . S
C1668 H1654 0.960 . S
C1668 H1655 0.960 . S
C1668 C1667 1.524 . S
C1669 C1666 1.403 . S
C1669 C1670 1.392 1_655 S
C1669 C1673 1.495 . S
C1670 C1669 1.392 1_455 S
C1670 C1671 1.385 . S
C1670 C1672 1.478 . S
C1671 H1665 0.930 . S
C1671 C1667 1.400 . S
C1671 C1670 1.385 . S
C1672 C1670 1.478 . S
C1672 C1674 1.381 1_455 S
C1672 C1678 1.383 . S
C1673 C1669 1.495 . S
C1673 H1679 0.959 . S
C1673 H1680 0.961 . S
C1673 H1681 0.960 . S
C1674 C1672 1.381 1_655 S
C1674 C1675 1.394 . S
C1674 H1682 0.930 . S
C1675 C1674 1.394 . S
C1675 C1676 1.383 1_655 S
C1675 H1683 0.929 . S
C1676 C1675 1.383 1_455 S
C1676 C1677 1.377 . S
C1677 H1661 0.930 . S
C1677 C1676 1.377 . S
C1677 C1678 1.379 . S
C1678 H1662 0.931 . S
C1678 C1672 1.383 . S
C1678 C1677 1.379 . S
H1679 C1673 0.959 . S
H1680 C1673 0.961 . S
H1681 C1673 0.960 . S
H1682 C1674 0.930 . S
H1683 C1675 0.929 . S
H1684 C1692 0.929 . S
H1685 C1694 0.930 . S
H1686 C1696 0.930 . S
H1687 C1699 0.929 . S
H1688 C1702 0.930 . S
H1689 C1704 0.960 . S
H1690 C1704 0.960 . S
H1691 C1704 0.960 . S
C1692 H1684 0.929 . S
C1692 C1693 1.377 . S
C1692 C1694 1.384 . S
C1693 C1692 1.377 . S
C1693 C1699 1.390 . S
C1694 H1685 0.930 . S
C1694 C1692 1.384 . S
C1694 C1695 1.372 . S
C1695 C1694 1.372 . S
C1695 C1696 1.400 . S
C1695 C1700 1.490 . S
C1696 H1686 0.930 . S
C1696 C1695 1.400 . S
C1696 C1699 1.386 . S
H1697 C1713 0.930 . S
H1698 C1714 0.931 . S
C1699 H1687 0.929 . S
C1699 C1693 1.390 . S
C1699 C1696 1.386 . S
C1700 C1695 1.490 . S
C1700 C1702 1.395 . S
C1700 C1703 1.403 . S
H1701 C1707 0.930 . S
C1702 H1688 0.930 . S
C1702 C1700 1.395 . S
C1702 C1705 1.403 . S
C1703 C1700 1.403 . S
C1703 C1704 1.524 . S
C1703 C1707 1.400 . S
C1704 H1689 0.960 . S
C1704 H1690 0.960 . S
C1704 H1691 0.960 . S
C1704 C1703 1.524 . S
C1705 C1702 1.403 . S
C1705 C1706 1.392 . S
C1705 C1709 1.495 . S
C1706 C1705 1.392 . S
C1706 C1707 1.385 . S
C1706 C1708 1.478 . S
C1707 H1701 0.930 . S
C1707 C1703 1.400 . S
C1707 C1706 1.385 . S
C1708 C1706 1.478 . S
C1708 C1710 1.381 . S
C1708 C1714 1.383 . S
C1709 C1705 1.495 . S
C1709 H1715 0.959 . S
C1709 H1716 0.961 . S
C1709 H1717 0.960 . S
C1710 C1708 1.381 . S
C1710 C1711 1.394 . S
C1710 H1718 0.930 . S
C1711 C1710 1.394 . S
C1711 C1712 1.383 . S
C1711 H1719 0.929 . S
C1712 C1711 1.383 . S
C1712 C1713 1.377 . S
C1713 H1697 0.930 . S
C1713 C1712 1.377 . S
C1713 C1714 1.379 . S
C1714 H1698 0.931 . S
C1714 C1708 1.383 . S
C1714 C1713 1.379 . S
H1715 C1709 0.959 . S
H1716 C1709 0.961 . S
H1717 C1709 0.960 . S
H1718 C1710 0.930 . S
H1719 C1711 0.929 . S
H1720 C1728 0.912 1_554 S
H1721 C1730 0.930 . S
H1722 C1732 0.930 . S
H1723 C1735 0.929 . S
H1724 C1738 0.930 . S
H1725 C1740 0.960 . S
H1726 C1740 0.960 . S
H1727 C1740 0.960 . S
C1728 H1720 0.912 1_556 S
C1728 C1729 1.378 . S
C1728 C1730 1.401 . S
C1729 C1728 1.378 . S
C1729 C1735 1.390 . S
C1730 H1721 0.930 . S
C1730 C1728 1.401 . S
C1730 C1731 1.372 . S
C1731 C1730 1.372 . S
C1731 C1732 1.400 . S
C1731 C1736 1.490 . S
C1732 H1722 0.930 . S
C1732 C1731 1.400 . S
C1732 C1735 1.386 . S
H1733 C1749 0.930 . S
H1734 C1750 0.931 . S
C1735 H1723 0.929 . S
C1735 C1729 1.390 . S
C1735 C1732 1.386 . S
C1736 C1731 1.490 . S
C1736 C1738 1.395 . S
C1736 C1739 1.403 . S
H1737 C1743 0.930 . S
C1738 H1724 0.930 . S
C1738 C1736 1.395 . S
C1738 C1741 1.403 . S
C1739 C1736 1.403 . S
C1739 C1740 1.524 . S
C1739 C1743 1.400 . S
C1740 H1725 0.960 . S
C1740 H1726 0.960 . S
C1740 H1727 0.960 . S
C1740 C1739 1.524 . S
C1741 C1738 1.403 . S
C1741 C1742 1.392 . S
C1741 C1745 1.495 . S
C1742 C1741 1.392 . S
C1742 C1743 1.385 . S
C1742 C1744 1.478 . S
C1743 H1737 0.930 . S
C1743 C1739 1.400 . S
C1743 C1742 1.385 . S
C1744 C1742 1.478 . S
C1744 C1746 1.381 . S
C1744 C1750 1.383 . S
C1745 C1741 1.495 . S
C1745 H1751 0.959 . S
C1745 H1752 0.961 . S
C1745 H1753 0.960 . S
C1746 C1744 1.381 . S
C1746 C1747 1.386 1_455 S
C1746 H1754 0.930 1_455 S
C1747 C1746 1.386 1_655 S
C1747 C1748 1.358 1_655 S
C1747 H1755 0.964 . S
C1748 C1747 1.358 1_455 S
C1748 C1749 1.377 . S
C1749 H1733 0.930 . S
C1749 C1748 1.377 . S
C1749 C1750 1.379 . S
C1750 H1734 0.931 . S
C1750 C1744 1.383 . S
C1750 C1749 1.379 . S
H1751 C1745 0.959 . S
H1752 C1745 0.961 . S
H1753 C1745 0.960 . S
H1754 C1746 0.930 1_655 S
H1755 C1747 0.964 . S
H1756 C1764 0.929 . S
H1757 C1766 0.930 . S
H1758 C1768 0.930 . S
H1759 C1771 0.929 . S
H1760 C1774 0.930 . S
H1761 C1776 0.960 . S
H1762 C1776 0.960 . S
H1763 C1776 0.960 . S
C1764 H1756 0.929 . S
C1764 C1765 1.377 . S
C1764 C1766 1.384 . S
C1765 C1764 1.377 . S
C1765 C1771 1.390 . S
C1766 H1757 0.930 . S
C1766 C1764 1.384 . S
C1766 C1767 1.372 . S
C1767 C1766 1.372 . S
C1767 C1768 1.400 . S
C1767 C1772 1.490 . S
C1768 H1758 0.930 . S
C1768 C1767 1.400 . S
C1768 C1771 1.386 . S
H1769 C1785 0.930 . S
H1770 C1786 0.931 . S
C1771 H1759 0.929 . S
C1771 C1765 1.390 . S
C1771 C1768 1.386 . S
C1772 C1767 1.490 . S
C1772 C1774 1.395 . S
C1772 C1775 1.403 . S
H1773 C1779 0.930 . S
C1774 H1760 0.930 . S
C1774 C1772 1.395 . S
C1774 C1777 1.403 . S
C1775 C1772 1.403 . S
C1775 C1776 1.524 . S
C1775 C1779 1.400 . S
C1776 H1761 0.960 . S
C1776 H1762 0.960 . S
C1776 H1763 0.960 . S
C1776 C1775 1.524 . S
C1777 C1774 1.403 . S
C1777 C1778 1.392 . S
C1777 C1781 1.495 . S
C1778 C1777 1.392 . S
C1778 C1779 1.385 . S
C1778 C1780 1.478 . S
C1779 H1773 0.930 . S
C1779 C1775 1.400 . S
C1779 C1778 1.385 . S
C1780 C1778 1.478 . S
C1780 C1782 1.381 . S
C1780 C1786 1.383 . S
C1781 C1777 1.495 . S
C1781 H1787 0.959 . S
C1781 H1788 0.961 . S
C1781 H1789 0.960 . S
C1782 C1780 1.381 . S
C1782 C1783 1.394 . S
C1782 H1790 0.930 . S
C1783 C1782 1.394 . S
C1783 C1784 1.383 . S
C1783 H1791 0.929 . S
C1784 C1783 1.383 . S
C1784 C1785 1.377 . S
C1785 H1769 0.930 . S
C1785 C1784 1.377 . S
C1785 C1786 1.379 . S
C1786 H1770 0.931 . S
C1786 C1780 1.383 . S
C1786 C1785 1.379 . S
H1787 C1781 0.959 . S
H1788 C1781 0.961 . S
H1789 C1781 0.960 . S
H1790 C1782 0.930 . S
H1791 C1783 0.929 . S
H1792 C1800 0.929 . S
H1793 C1802 0.930 . S
H1794 C1804 0.930 . S
H1795 C1807 0.929 . S
H1796 C1810 0.930 . S
H1797 C1812 0.960 . S
H1798 C1812 0.960 . S
H1799 C1812 0.960 . S
C1800 H1792 0.929 . S
C1800 C1801 1.377 . S
C1800 C1802 1.384 . S
C1801 C1800 1.377 . S
C1801 C1807 1.390 . S
C1802 H1793 0.930 . S
C1802 C1800 1.384 . S
C1802 C1803 1.372 . S
C1803 C1802 1.372 . S
C1803 C1804 1.400 . S
C1803 C1808 1.490 . S
C1804 H1794 0.930 . S
C1804 C1803 1.400 . S
C1804 C1807 1.386 . S
H1805 C1821 0.930 . S
H1806 C1822 0.931 . S
C1807 H1795 0.929 . S
C1807 C1801 1.390 . S
C1807 C1804 1.386 . S
C1808 C1803 1.490 . S
C1808 C1810 1.395 . S
C1808 C1811 1.403 . S
H1809 C1815 0.930 . S
C1810 H1796 0.930 . S
C1810 C1808 1.395 . S
C1810 C1813 1.403 . S
C1811 C1808 1.403 . S
C1811 C1812 1.524 . S
C1811 C1815 1.400 . S
C1812 H1797 0.960 . S
C1812 H1798 0.960 . S
C1812 H1799 0.960 . S
C1812 C1811 1.524 . S
C1813 C1810 1.403 . S
C1813 C1814 1.392 . S
C1813 C1817 1.495 . S
C1814 C1813 1.392 . S
C1814 C1815 1.385 . S
C1814 C1816 1.478 . S
C1815 H1809 0.930 . S
C1815 C1811 1.400 . S
C1815 C1814 1.385 . S
C1816 C1814 1.478 . S
C1816 C1818 1.381 . S
C1816 C1822 1.383 . S
C1817 C1813 1.495 . S
C1817 H1823 0.959 . S
C1817 H1824 0.961 . S
C1817 H1825 0.960 . S
C1818 C1816 1.381 . S
C1818 C1819 1.394 . S
C1818 H1826 0.930 . S
C1819 C1818 1.394 . S
C1819 C1820 1.383 . S
C1819 H1827 0.929 . S
C1820 C1819 1.383 . S
C1820 C1821 1.377 . S
C1821 H1805 0.930 . S
C1821 C1820 1.377 . S
C1821 C1822 1.379 . S
C1822 H1806 0.931 . S
C1822 C1816 1.383 . S
C1822 C1821 1.379 . S
H1823 C1817 0.959 . S
H1824 C1817 0.961 . S
H1825 C1817 0.960 . S
H1826 C1818 0.930 . S
H1827 C1819 0.929 . S
H1828 C1836 0.929 . S
H1829 C1838 0.930 . S
H1830 C1840 0.930 . S
H1831 C1843 0.929 . S
H1832 C1846 0.930 . S
H1833 C1848 0.960 . S
H1834 C1848 0.960 . S
H1835 C1848 0.960 . S
C1836 H1828 0.929 . S
C1836 C1837 1.377 . S
C1836 C1838 1.384 . S
C1837 C1836 1.377 . S
C1837 C1843 1.390 . S
C1838 H1829 0.930 . S
C1838 C1836 1.384 . S
C1838 C1839 1.372 . S
C1839 C1838 1.372 . S
C1839 C1840 1.400 . S
C1839 C1844 1.490 . S
C1840 H1830 0.930 . S
C1840 C1839 1.400 . S
C1840 C1843 1.386 . S
H1841 C1857 0.930 . S
H1842 C1858 0.931 . S
C1843 H1831 0.929 . S
C1843 C1837 1.390 . S
C1843 C1840 1.386 . S
C1844 C1839 1.490 . S
C1844 C1846 1.395 . S
C1844 C1847 1.403 . S
H1845 C1851 0.930 . S
C1846 H1832 0.930 . S
C1846 C1844 1.395 . S
C1846 C1849 1.403 . S
C1847 C1844 1.403 . S
C1847 C1848 1.524 . S
C1847 C1851 1.400 . S
C1848 H1833 0.960 . S
C1848 H1834 0.960 . S
C1848 H1835 0.960 . S
C1848 C1847 1.524 . S
C1849 C1846 1.403 . S
C1849 C1850 1.392 . S
C1849 C1853 1.495 . S
C1850 C1849 1.392 . S
C1850 C1851 1.385 . S
C1850 C1852 1.478 . S
C1851 H1845 0.930 . S
C1851 C1847 1.400 . S
C1851 C1850 1.385 . S
C1852 C1850 1.478 . S
C1852 C1854 1.381 . S
C1852 C1858 1.383 . S
C1853 C1849 1.495 . S
C1853 H1859 0.959 . S
C1853 H1860 0.961 . S
C1853 H1861 0.960 . S
C1854 C1852 1.381 . S
C1854 C1855 1.394 . S
C1854 H1862 0.930 . S
C1855 C1854 1.394 . S
C1855 C1856 1.383 . S
C1855 H1863 0.929 . S
C1856 C1855 1.383 . S
C1856 C1857 1.377 . S
C1857 H1841 0.930 . S
C1857 C1856 1.377 . S
C1857 C1858 1.379 . S
C1858 H1842 0.931 . S
C1858 C1852 1.383 . S
C1858 C1857 1.379 . S
H1859 C1853 0.959 . S
H1860 C1853 0.961 . S
H1861 C1853 0.960 . S
H1862 C1854 0.930 . S
H1863 C1855 0.929 . S
H1864 C1872 0.929 . S
H1865 C1874 0.930 . S
H1866 C1876 0.930 . S
H1867 C1879 0.929 . S
H1868 C1882 0.930 . S
H1869 C1884 0.960 . S
H1870 C1884 0.960 . S
H1871 C1884 0.960 . S
C1872 H1864 0.929 . S
C1872 C1873 1.377 . S
C1872 C1874 1.384 1_556 S
C1873 C1872 1.377 . S
C1873 C1879 1.390 . S
C1874 H1865 0.930 . S
C1874 C1872 1.384 1_554 S
C1874 C1875 1.372 . S
C1875 C1874 1.372 . S
C1875 C1876 1.400 . S
C1875 C1880 1.490 . S
C1876 H1866 0.930 . S
C1876 C1875 1.400 . S
C1876 C1879 1.386 1_554 S
H1877 C1893 0.930 . S
H1878 C1894 0.931 . S
C1879 H1867 0.929 . S
C1879 C1873 1.390 . S
C1879 C1876 1.386 1_556 S
C1880 C1875 1.490 . S
C1880 C1882 1.395 . S
C1880 C1883 1.403 . S
H1881 C1887 0.930 . S
C1882 H1868 0.930 . S
C1882 C1880 1.395 . S
C1882 C1885 1.403 . S
C1883 C1880 1.403 . S
C1883 C1884 1.524 . S
C1883 C1887 1.400 . S
C1884 H1869 0.960 . S
C1884 H1870 0.960 . S
C1884 H1871 0.960 . S
C1884 C1883 1.524 . S
C1885 C1882 1.403 . S
C1885 C1886 1.392 . S
C1885 C1889 1.495 . S
C1886 C1885 1.392 . S
C1886 C1887 1.385 . S
C1886 C1888 1.478 . S
C1887 H1881 0.930 . S
C1887 C1883 1.400 . S
C1887 C1886 1.385 . S
C1888 C1886 1.478 . S
C1888 C1890 1.381 . S
C1888 C1894 1.383 . S
C1889 C1885 1.495 . S
C1889 H1895 0.959 . S
C1889 H1896 0.961 . S
C1889 H1897 0.960 . S
C1890 C1888 1.381 . S
C1890 C1891 1.394 . S
C1890 H1898 0.930 . S
C1891 C1890 1.394 . S
C1891 C1892 1.383 . S
C1891 H1899 0.929 . S
C1892 C1891 1.383 . S
C1892 C1893 1.377 . S
C1893 H1877 0.930 . S
C1893 C1892 1.377 . S
C1893 C1894 1.379 . S
C1894 H1878 0.931 . S
C1894 C1888 1.383 . S
C1894 C1893 1.379 . S
H1895 C1889 0.959 . S
H1896 C1889 0.961 . S
H1897 C1889 0.960 . S
H1898 C1890 0.930 . S
H1899 C1891 0.929 . S
H1900 C1908 0.929 . S
H1901 C1910 0.930 . S
H1902 C1912 0.930 . S
H1903 C1915 0.929 . S
H1904 C1918 0.930 . S
H1905 C1920 0.960 . S
H1906 C1920 0.960 . S
H1907 C1920 0.960 . S
C1908 H1900 0.929 . S
C1908 C1909 1.377 . S
C1908 C1910 1.384 . S
C1909 C1908 1.377 . S
C1909 C1915 1.390 . S
C1910 H1901 0.930 . S
C1910 C1908 1.384 . S
C1910 C1911 1.372 . S
C1911 C1910 1.372 . S
C1911 C1912 1.400 . S
C1911 C1916 1.490 . S
C1912 H1902 0.930 . S
C1912 C1911 1.400 . S
C1912 C1915 1.386 . S
H1913 C1929 0.930 . S
H1914 C1930 0.931 . S
C1915 H1903 0.929 . S
C1915 C1909 1.390 . S
C1915 C1912 1.386 . S
C1916 C1911 1.490 . S
C1916 C1918 1.395 . S
C1916 C1919 1.403 . S
H1917 C1923 0.930 . S
C1918 H1904 0.930 . S
C1918 C1916 1.395 . S
C1918 C1921 1.403 . S
C1919 C1916 1.403 . S
C1919 C1920 1.524 . S
C1919 C1923 1.400 . S
C1920 H1905 0.960 . S
C1920 H1906 0.960 . S
C1920 H1907 0.960 . S
C1920 C1919 1.524 . S
C1921 C1918 1.403 . S
C1921 C1922 1.392 . S
C1921 C1925 1.495 . S
C1922 C1921 1.392 . S
C1922 C1923 1.385 . S
C1922 C1924 1.478 . S
C1923 H1917 0.930 . S
C1923 C1919 1.400 . S
C1923 C1922 1.385 . S
C1924 C1922 1.478 . S
C1924 C1926 1.381 . S
C1924 C1930 1.383 . S
C1925 C1921 1.495 . S
C1925 H1931 0.959 . S
C1925 H1932 0.961 . S
C1925 H1933 0.960 . S
C1926 C1924 1.381 . S
C1926 C1927 1.394 . S
C1926 H1934 0.930 . S
C1927 C1926 1.394 . S
C1927 C1928 1.383 . S
C1927 H1935 0.929 . S
C1928 C1927 1.383 . S
C1928 C1929 1.377 . S
C1929 H1913 0.930 . S
C1929 C1928 1.377 . S
C1929 C1930 1.379 . S
C1930 H1914 0.931 . S
C1930 C1924 1.383 . S
C1930 C1929 1.379 . S
H1931 C1925 0.959 . S
H1932 C1925 0.961 . S
H1933 C1925 0.960 . S
H1934 C1926 0.930 . S
H1935 C1927 0.929 . S
H1936 C1944 0.929 . S
H1937 C1946 0.930 . S
H1938 C1948 0.930 . S
H1939 C1951 0.929 . S
H1940 C1954 0.930 . S
H1941 C1956 0.960 . S
H1942 C1956 0.960 . S
H1943 C1956 0.960 . S
C1944 H1936 0.929 . S
C1944 C1945 1.377 . S
C1944 C1946 1.384 . S
C1945 C1944 1.377 . S
C1945 C1951 1.390 . S
C1946 H1937 0.930 . S
C1946 C1944 1.384 . S
C1946 C1947 1.372 . S
C1947 C1946 1.372 . S
C1947 C1948 1.400 . S
C1947 C1952 1.490 . S
C1948 H1938 0.930 . S
C1948 C1947 1.400 . S
C1948 C1951 1.386 . S
H1949 C1965 0.930 . S
H1950 C1966 0.931 . S
C1951 H1939 0.929 . S
C1951 C1945 1.390 . S
C1951 C1948 1.386 . S
C1952 C1947 1.490 . S
C1952 C1954 1.395 . S
C1952 C1955 1.403 . S
H1953 C1959 0.930 . S
C1954 H1940 0.930 . S
C1954 C1952 1.395 . S
C1954 C1957 1.403 . S
C1955 C1952 1.403 . S
C1955 C1956 1.524 . S
C1955 C1959 1.400 . S
C1956 H1941 0.960 . S
C1956 H1942 0.960 . S
C1956 H1943 0.960 . S
C1956 C1955 1.524 . S
C1957 C1954 1.403 . S
C1957 C1958 1.392 . S
C1957 C1961 1.495 . S
C1958 C1957 1.392 . S
C1958 C1959 1.385 . S
C1958 C1960 1.478 . S
C1959 H1953 0.930 . S
C1959 C1955 1.400 . S
C1959 C1958 1.385 . S
C1960 C1958 1.478 . S
C1960 C1962 1.381 . S
C1960 C1966 1.383 . S
C1961 C1957 1.495 . S
C1961 H1967 0.959 . S
C1961 H1968 0.961 . S
C1961 H1969 0.960 . S
C1962 C1960 1.381 . S
C1962 C1963 1.394 . S
C1962 H1970 0.930 . S
C1963 C1962 1.394 . S
C1963 C1964 1.383 . S
C1963 H1971 0.929 . S
C1964 C1963 1.383 . S
C1964 C1965 1.377 . S
C1965 H1949 0.930 . S
C1965 C1964 1.377 . S
C1965 C1966 1.379 . S
C1966 H1950 0.931 . S
C1966 C1960 1.383 . S
C1966 C1965 1.379 . S
H1967 C1961 0.959 . S
H1968 C1961 0.961 . S
H1969 C1961 0.960 . S
H1970 C1962 0.930 . S
H1971 C1963 0.929 . S
H1972 C1980 0.929 . S
H1973 C1982 0.930 . S
H1974 C1984 0.930 . S
H1975 C1987 0.929 . S
H1976 C1990 0.930 . S
H1977 C1992 0.960 . S
H1978 C1992 0.960 . S
H1979 C1992 0.960 . S
C1980 H1972 0.929 . S
C1980 C1981 1.377 . S
C1980 C1982 1.384 . S
C1981 C1980 1.377 . S
C1981 C1987 1.390 . S
C1982 H1973 0.930 . S
C1982 C1980 1.384 . S
C1982 C1983 1.372 . S
C1983 C1982 1.372 . S
C1983 C1984 1.400 . S
C1983 C1988 1.490 . S
C1984 H1974 0.930 . S
C1984 C1983 1.400 . S
C1984 C1987 1.386 . S
H1985 C2001 0.930 . S
H1986 C2002 0.931 . S
C1987 H1975 0.929 . S
C1987 C1981 1.390 . S
C1987 C1984 1.386 . S
C1988 C1983 1.490 . S
C1988 C1990 1.395 . S
C1988 C1991 1.403 . S
H1989 C1995 0.930 . S
C1990 H1976 0.930 . S
C1990 C1988 1.395 . S
C1990 C1993 1.403 . S
C1991 C1988 1.403 . S
C1991 C1992 1.524 . S
C1991 C1995 1.400 . S
C1992 H1977 0.960 . S
C1992 H1978 0.960 . S
C1992 H1979 0.960 . S
C1992 C1991 1.524 . S
C1993 C1990 1.403 . S
C1993 C1994 1.392 . S
C1993 C1997 1.495 . S
C1994 C1993 1.392 . S
C1994 C1995 1.385 . S
C1994 C1996 1.478 . S
C1995 H1989 0.930 . S
C1995 C1991 1.400 . S
C1995 C1994 1.385 . S
C1996 C1994 1.478 . S
C1996 C1998 1.381 . S
C1996 C2002 1.383 . S
C1997 C1993 1.495 . S
C1997 H2003 0.959 . S
C1997 H2004 0.961 . S
C1997 H2005 0.960 . S
C1998 C1996 1.381 . S
C1998 C1999 1.394 . S
C1998 H2006 0.930 . S
C1999 C1998 1.394 . S
C1999 C2000 1.383 . S
C1999 H2007 0.929 . S
C2000 C1999 1.383 . S
C2000 C2001 1.377 . S
C2001 H1985 0.930 . S
C2001 C2000 1.377 . S
C2001 C2002 1.379 . S
C2002 H1986 0.931 . S
C2002 C1996 1.383 . S
C2002 C2001 1.379 . S
H2003 C1997 0.959 . S
H2004 C1997 0.961 . S
H2005 C1997 0.960 . S
H2006 C1998 0.930 . S
H2007 C1999 0.929 . S
H2008 C2016 0.929 . S
H2009 C2018 0.930 . S
H2010 C2020 0.930 . S
H2011 C2023 0.929 . S
H2012 C2026 0.930 . S
H2013 C2028 0.960 . S
H2014 C2028 0.960 . S
H2015 C2028 0.960 . S
C2016 H2008 0.929 . S
C2016 C2017 1.377 . S
C2016 C2018 1.384 . S
C2017 C2016 1.377 . S
C2017 C2023 1.390 . S
C2018 H2009 0.930 . S
C2018 C2016 1.384 . S
C2018 C2019 1.372 . S
C2019 C2018 1.372 . S
C2019 C2020 1.400 . S
C2019 C2024 1.490 . S
C2020 H2010 0.930 . S
C2020 C2019 1.400 . S
C2020 C2023 1.386 . S
H2021 C2037 0.930 . S
H2022 C2038 0.931 . S
C2023 H2011 0.929 . S
C2023 C2017 1.390 . S
C2023 C2020 1.386 . S
C2024 C2019 1.490 . S
C2024 C2026 1.395 . S
C2024 C2027 1.403 . S
H2025 C2031 0.930 . S
C2026 H2012 0.930 . S
C2026 C2024 1.395 . S
C2026 C2029 1.403 . S
C2027 C2024 1.403 . S
C2027 C2028 1.524 . S
C2027 C2031 1.400 . S
C2028 H2013 0.960 . S
C2028 H2014 0.960 . S
C2028 H2015 0.960 . S
C2028 C2027 1.524 . S
C2029 C2026 1.403 . S
C2029 C2030 1.392 . S
C2029 C2033 1.495 . S
C2030 C2029 1.392 . S
C2030 C2031 1.385 . S
C2030 C2032 1.478 . S
C2031 H2025 0.930 . S
C2031 C2027 1.400 . S
C2031 C2030 1.385 . S
C2032 C2030 1.478 . S
C2032 C2034 1.381 . S
C2032 C2038 1.383 . S
C2033 C2029 1.495 . S
C2033 H2039 0.959 . S
C2033 H2040 0.961 . S
C2033 H2041 0.960 . S
C2034 C2032 1.381 . S
C2034 C2035 1.394 . S
C2034 H2042 0.930 . S
C2035 C2034 1.394 . S
C2035 C2036 1.383 . S
C2035 H2043 0.929 . S
C2036 C2035 1.383 . S
C2036 C2037 1.377 . S
C2037 H2021 0.930 . S
C2037 C2036 1.377 . S
C2037 C2038 1.379 . S
C2038 H2022 0.931 . S
C2038 C2032 1.383 . S
C2038 C2037 1.379 . S
H2039 C2033 0.959 . S
H2040 C2033 0.961 . S
H2041 C2033 0.960 . S
H2042 C2034 0.930 . S
H2043 C2035 0.929 . S
H2044 C2052 0.929 . S
H2045 C2054 0.930 . S
H2046 C2056 0.930 . S
H2047 C2059 0.929 . S
H2048 C2062 0.930 . S
H2049 C2064 0.960 . S
H2050 C2064 0.960 . S
H2051 C2064 0.960 . S
C2052 H2044 0.929 . S
C2052 C2053 1.377 . S
C2052 C2054 1.384 . S
C2053 C2052 1.377 . S
C2053 C2059 1.390 . S
C2054 H2045 0.930 . S
C2054 C2052 1.384 . S
C2054 C2055 1.372 . S
C2055 C2054 1.372 . S
C2055 C2056 1.400 . S
C2055 C2060 1.490 . S
C2056 H2046 0.930 . S
C2056 C2055 1.400 . S
C2056 C2059 1.386 . S
H2057 C2073 0.930 . S
H2058 C2074 0.931 . S
C2059 H2047 0.929 . S
C2059 C2053 1.390 . S
C2059 C2056 1.386 . S
C2060 C2055 1.490 . S
C2060 C2062 1.395 . S
C2060 C2063 1.403 1_556 S
H2061 C2067 0.930 . S
C2062 H2048 0.930 . S
C2062 C2060 1.395 . S
C2062 C2065 1.403 . S
C2063 C2060 1.403 1_554 S
C2063 C2064 1.524 . S
C2063 C2067 1.400 . S
C2064 H2049 0.960 . S
C2064 H2050 0.960 . S
C2064 H2051 0.960 . S
C2064 C2063 1.524 . S
C2065 C2062 1.403 . S
C2065 C2066 1.392 . S
C2065 C2069 1.495 . S
C2066 C2065 1.392 . S
C2066 C2067 1.385 1_556 S
C2066 C2068 1.478 . S
C2067 H2061 0.930 . S
C2067 C2063 1.400 . S
C2067 C2066 1.385 1_554 S
C2068 C2066 1.478 . S
C2068 C2070 1.381 . S
C2068 C2074 1.383 . S
C2069 C2065 1.495 . S
C2069 H2075 0.959 . S
C2069 H2076 0.961 . S
C2069 H2077 0.960 . S
C2070 C2068 1.381 . S
C2070 C2071 1.394 . S
C2070 H2078 0.930 . S
C2071 C2070 1.394 . S
C2071 C2072 1.383 . S
C2071 H2079 0.929 . S
C2072 C2071 1.383 . S
C2072 C2073 1.377 . S
C2073 H2057 0.930 . S
C2073 C2072 1.377 . S
C2073 C2074 1.379 . S
C2074 H2058 0.931 . S
C2074 C2068 1.383 . S
C2074 C2073 1.379 . S
H2075 C2069 0.959 . S
H2076 C2069 0.961 . S
H2077 C2069 0.960 . S
H2078 C2070 0.930 . S
H2079 C2071 0.929 . S
H2080 C2088 0.929 . S
H2081 C2090 0.930 . S
H2082 C2092 0.930 . S
H2083 C2095 0.929 . S
H2084 C2098 0.930 . S
H2085 C2100 0.960 . S
H2086 C2100 0.960 . S
H2087 C2100 0.960 . S
C2088 H2080 0.929 . S
C2088 C2089 1.377 . S
C2088 C2090 1.384 . S
C2089 C2088 1.377 . S
C2089 C2095 1.390 . S
C2090 H2081 0.930 . S
C2090 C2088 1.384 . S
C2090 C2091 1.372 . S
C2091 C2090 1.372 . S
C2091 C2092 1.400 . S
C2091 C2096 1.490 . S
C2092 H2082 0.930 . S
C2092 C2091 1.400 . S
C2092 C2095 1.386 . S
H2093 C2109 0.930 . S
H2094 C2110 0.931 . S
C2095 H2083 0.929 . S
C2095 C2089 1.390 . S
C2095 C2092 1.386 . S
C2096 C2091 1.490 . S
C2096 C2098 1.395 . S
C2096 C2099 1.403 . S
H2097 C2103 0.930 . S
C2098 H2084 0.930 . S
C2098 C2096 1.395 . S
C2098 C2101 1.403 . S
C2099 C2096 1.403 . S
C2099 C2100 1.524 . S
C2099 C2103 1.400 . S
C2100 H2085 0.960 . S
C2100 H2086 0.960 . S
C2100 H2087 0.960 . S
C2100 C2099 1.524 . S
C2101 C2098 1.403 . S
C2101 C2102 1.392 . S
C2101 C2105 1.495 . S
C2102 C2101 1.392 . S
C2102 C2103 1.385 . S
C2102 C2104 1.478 . S
C2103 H2097 0.930 . S
C2103 C2099 1.400 . S
C2103 C2102 1.385 . S
C2104 C2102 1.478 . S
C2104 C2106 1.381 . S
C2104 C2110 1.383 . S
C2105 C2101 1.495 . S
C2105 H2111 0.959 . S
C2105 H2112 0.961 . S
C2105 H2113 0.960 . S
C2106 C2104 1.381 . S
C2106 C2107 1.394 . S
C2106 H2114 0.930 . S
C2107 C2106 1.394 . S
C2107 C2108 1.383 . S
C2107 H2115 0.929 . S
C2108 C2107 1.383 . S
C2108 C2109 1.377 . S
C2109 H2093 0.930 . S
C2109 C2108 1.377 . S
C2109 C2110 1.379 . S
C2110 H2094 0.931 . S
C2110 C2104 1.383 . S
C2110 C2109 1.379 . S
H2111 C2105 0.959 . S
H2112 C2105 0.961 . S
H2113 C2105 0.960 . S
H2114 C2106 0.930 . S
H2115 C2107 0.929 . S
H2116 C2124 0.929 . S
H2117 C2126 0.930 . S
H2118 C2128 0.930 1_556 S
H2119 C2131 0.929 1_556 S
H2120 C2134 0.930 . S
H2121 C2136 0.959 . S
H2122 C2136 0.960 . S
H2123 C2136 0.960 1_556 S
C2124 H2116 0.929 . S
C2124 C2125 1.377 . S
C2124 C2126 1.384 . S
C2125 C2124 1.377 . S
C2125 C2131 1.390 . S
C2126 H2117 0.930 . S
C2126 C2124 1.384 . S
C2126 C2127 1.372 . S
C2127 C2126 1.372 . S
C2127 C2128 1.400 . S
C2127 C2132 1.490 . S
C2128 H2118 0.930 1_554 S
C2128 C2127 1.400 . S
C2128 C2131 1.386 . S
H2129 C2145 0.930 . S
H2130 C2146 0.931 . S
C2131 H2119 0.929 1_554 S
C2131 C2125 1.390 . S
C2131 C2128 1.386 . S
C2132 C2127 1.490 . S
C2132 C2134 1.395 . S
C2132 C2135 1.403 . S
H2133 C2139 0.930 . S
C2134 H2120 0.930 . S
C2134 C2132 1.395 . S
C2134 C2137 1.403 . S
C2135 C2132 1.403 . S
C2135 C2136 1.524 . S
C2135 C2139 1.400 . S
C2136 H2121 0.959 . S
C2136 H2122 0.960 . S
C2136 H2123 0.960 1_554 S
C2136 C2135 1.524 . S
C2137 C2134 1.403 . S
C2137 C2138 1.392 . S
C2137 C2141 1.495 . S
C2138 C2137 1.392 . S
C2138 C2139 1.385 . S
C2138 C2140 1.478 . S
C2139 H2133 0.930 . S
C2139 C2135 1.400 . S
C2139 C2138 1.385 . S
C2140 C2138 1.478 . S
C2140 C2142 1.381 . S
C2140 C2146 1.383 1_554 S
C2141 C2137 1.495 . S
C2141 H2147 0.959 . S
C2141 H2148 0.961 . S
C2141 H2149 0.960 . S
C2142 C2140 1.381 . S
C2142 C2143 1.394 . S
C2142 H2150 0.930 . S
C2143 C2142 1.394 . S
C2143 C2144 1.383 . S
C2143 H2151 0.929 . S
C2144 C2143 1.383 . S
C2144 C2145 1.377 1_554 S
C2145 H2129 0.930 . S
C2145 C2144 1.377 1_556 S
C2145 C2146 1.379 . S
C2146 H2130 0.931 . S
C2146 C2140 1.383 1_556 S
C2146 C2145 1.379 . S
H2147 C2141 0.959 . S
H2148 C2141 0.961 . S
H2149 C2141 0.960 . S
H2150 C2142 0.930 . S
H2151 C2143 0.929 . S
H2152 C2160 0.929 . S
H2153 C2162 0.930 . S
H2154 C2164 0.930 . S
H2155 C2167 0.929 . S
H2156 C2170 0.930 . S
H2157 C2172 0.960 . S
H2158 C2172 0.960 . S
H2159 C2172 0.960 . S
C2160 H2152 0.929 . S
C2160 C2161 1.377 1_565 S
C2160 C2162 1.384 . S
C2161 C2160 1.377 1_545 S
C2161 C2167 1.390 . S
C2162 H2153 0.930 . S
C2162 C2160 1.384 . S
C2162 C2163 1.372 . S
C2163 C2162 1.372 . S
C2163 C2164 1.400 1_565 S
C2163 C2168 1.490 . S
C2164 H2154 0.930 . S
C2164 C2163 1.400 1_545 S
C2164 C2167 1.386 . S
H2165 C2181 0.930 . S
H2166 C2182 0.931 . S
C2167 H2155 0.929 . S
C2167 C2161 1.390 . S
C2167 C2164 1.386 . S
C2168 C2163 1.490 . S
C2168 C2170 1.395 . S
C2168 C2171 1.403 . S
H2169 C2175 0.930 . S
C2170 H2156 0.930 . S
C2170 C2168 1.395 . S
C2170 C2173 1.403 . S
C2171 C2168 1.403 . S
C2171 C2172 1.524 1_565 S
C2171 C2175 1.400 . S
C2172 H2157 0.960 . S
C2172 H2158 0.960 . S
C2172 H2159 0.960 . S
C2172 C2171 1.524 1_545 S
C2173 C2170 1.403 . S
C2173 C2174 1.392 . S
C2173 C2177 1.495 . S
C2174 C2173 1.392 . S
C2174 C2175 1.385 . S
C2174 C2176 1.478 . S
C2175 H2169 0.930 . S
C2175 C2171 1.400 . S
C2175 C2174 1.385 . S
C2176 C2174 1.478 . S
C2176 C2178 1.381 . S
C2176 C2182 1.383 . S
C2177 C2173 1.495 . S
C2177 H2183 0.959 . S
C2177 H2184 0.961 . S
C2177 H2185 0.960 . S
C2178 C2176 1.381 . S
C2178 C2179 1.394 . S
C2178 H2186 0.930 . S
C2179 C2178 1.394 . S
C2179 C2180 1.383 . S
C2179 H2187 0.929 . S
C2180 C2179 1.383 . S
C2180 C2181 1.377 . S
C2181 H2165 0.930 . S
C2181 C2180 1.377 . S
C2181 C2182 1.379 . S
C2182 H2166 0.931 . S
C2182 C2176 1.383 . S
C2182 C2181 1.379 . S
H2183 C2177 0.959 . S
H2184 C2177 0.961 . S
H2185 C2177 0.960 . S
H2186 C2178 0.930 . S
H2187 C2179 0.929 . S
C488 C314 1.842 1_556 S
C469 C101 1.866 . S
C524 C327 1.084 . S
C505 C125 1.015 1_455 S
C541 C139 2.045 . S
C560 C340 1.998 . S
C596 C353 1.800 . S
C577 C82 1.870 . S
C632 C361 1.490 . S
C613 C196 1.529 . S
C668 C374 1.790 . S
C649 C234 1.802 . S
C685 C220 0.732 . S
C704 C387 0.784 . S
C740 C400 1.680 . S
C721 C173 1.684 . S
C757 C211 0.963 . S
C776 C418 0.910 . S
C812 C429 0.989 . S
C793 C182 0.981 . S
C829 C201 1.219 . S
C848 C413 1.340 . S
C884 C421 1.283 . S
C865 C239 1.179 . S
C901 C135 1.635 . S
C920 C444 1.637 . S
C937 C87 1.888 . S
C956 C434 2.004 . S
C973 C106 1.159 . S
C992 C439 1.293 . S
C1009 C116 1.227 . S
C1028 C442 1.233 . S
C1045 C59 1.899 . S
C1064 C351 1.877 . S
C1081 C268 2.284 . S
C1100 C343 2.287 . S
C1136 C312 1.235 . S
C1117 C291 1.228 . S
C1172 C317 1.427 . S
C1153 C163 1.332 . S
C1189 C78 2.201 . S
C1208 C364 2.136 . S
C1244 C403 1.114 . S
C1225 C215 1.121 . S
C1280 C356 1.605 . S
C1261 C177 1.585 1_545 S
C1316 C382 1.781 . S
C1297 C230 1.812 . S
C1352 C392 1.842 . S
C1333 C272 1.866 . S
C1369 C296 1.041 . S
C1388 C405 1.107 . S
C1405 C158 2.044 . S
C1424 C366 1.985 . S
C1460 C379 1.808 . S
C1441 C253 1.869 . S
C1477 C63 1.530 . S
C1496 C335 1.513 . S
C1532 C348 1.788 . S
C1513 C6 1.804 . S
C1568 C309 0.771 . S
C1549 C30 0.739 . S
C1604 C322 1.678 . S
C1585 C40 1.684 . S
C1621 C21 0.957 . S
C1640 C431 0.985 . S
C1657 C49 0.979 . S
C1676 C416 0.979 . S
C1693 C68 1.221 . S
C1712 C426 1.342 . S
C1729 C11 1.190 1_556 S
C1748 C408 1.280 . S
C1784 C457 1.640 . S
C1765 C154 1.635 . S
C1820 C447 2.020 . S
C1801 C258 1.878 . S
C1856 C452 1.291 . S
C1837 C277 1.144 . S
C1873 C287 1.226 . S
C1892 C455 1.212 . S
C1909 C192 1.898 . S
C1928 C377 1.889 . S
C1964 C369 2.276 . S
C1945 C97 2.282 . S
C2000 C390 1.213 . S
C1981 C120 1.231 . S
C2036 C395 1.424 . S
C2017 C144 1.333 . S
C2053 C249 2.181 . S
C2072 C338 2.169 . S
C2108 C325 1.105 . S
C2089 C25 1.123 . S
C2125 C44 1.607 . S
C2144 C330 1.596 1_554 S
C2180 C304 1.747 . S
C2161 C2 1.809 . S
