# Generated by pormake.
# Topology eea, (3,6)-cn, num edge types: 1
# Building blocks:
#     Node 0, Type 0, BuildingBlock: BETDIP_clean_linker_0, # of connection points: 3
#     Node 1, Type 0, BuildingBlock: BETDIP_clean_linker_0, # of connection points: 3
#     Node 2, Type 0, BuildingBlock: BETDIP_clean_linker_0, # of connection points: 3
#     Node 3, Type 0, BuildingBlock: BETDIP_clean_linker_0, # of connection points: 3
#     Node 4, Type 0, BuildingBlock: BETDIP_clean_linker_0, # of connection points: 3
#     Node 5, Type 0, BuildingBlock: BETDIP_clean_linker_0, # of connection points: 3
#     Node 6, Type 0, BuildingBlock: BETDIP_clean_linker_0, # of connection points: 3
#     Node 7, Type 0, BuildingBlock: BETDIP_clean_linker_0, # of connection points: 3
#     Node 8, Type 0, BuildingBlock: BETDIP_clean_linker_0, # of connection points: 3
#     Node 9, Type 0, BuildingBlock: BETDIP_clean_linker_0, # of connection points: 3
#     Node 10, Type 0, BuildingBlock: BETDIP_clean_linker_0, # of connection points: 3
#     Node 11, Type 0, BuildingBlock: BETDIP_clean_linker_0, # of connection points: 3
#     Node 12, Type 0, BuildingBlock: BETDIP_clean_linker_0, # of connection points: 3
#     Node 13, Type 0, BuildingBlock: BETDIP_clean_linker_0, # of connection points: 3
#     Node 14, Type 0, BuildingBlock: BETDIP_clean_linker_0, # of connection points: 3
#     Node 15, Type 0, BuildingBlock: BETDIP_clean_linker_0, # of connection points: 3
#     Node 16, Type 0, BuildingBlock: BETDIP_clean_linker_0, # of connection points: 3
#     Node 17, Type 0, BuildingBlock: BETDIP_clean_linker_0, # of connection points: 3
#     Node 18, Type 1, BuildingBlock: KUMBUR_clean_sbu_0, # of connection points: 6
#     Node 19, Type 1, BuildingBlock: KUMBUR_clean_sbu_0, # of connection points: 6
#     Node 20, Type 1, BuildingBlock: KUMBUR_clean_sbu_0, # of connection points: 6
#     Node 21, Type 1, BuildingBlock: KUMBUR_clean_sbu_0, # of connection points: 6
#     Node 22, Type 1, BuildingBlock: KUMBUR_clean_sbu_0, # of connection points: 6
#     Node 23, Type 1, BuildingBlock: KUMBUR_clean_sbu_0, # of connection points: 6
#     Node 24, Type 1, BuildingBlock: KUMBUR_clean_sbu_0, # of connection points: 6
#     Node 25, Type 1, BuildingBlock: KUMBUR_clean_sbu_0, # of connection points: 6
#     Node 26, Type 1, BuildingBlock: KUMBUR_clean_sbu_0, # of connection points: 6
#     Edge 27, Type (0, 1), BuildingBlock: XIVTED_clean_linker_0, # of connection points: 2
#     Edge 28, Type (0, 1), BuildingBlock: XIVTED_clean_linker_0, # of connection points: 2
#     Edge 29, Type (0, 1), BuildingBlock: XIVTED_clean_linker_0, # of connection points: 2
#     Edge 30, Type (0, 1), BuildingBlock: XIVTED_clean_linker_0, # of connection points: 2
#     Edge 31, Type (0, 1), BuildingBlock: XIVTED_clean_linker_0, # of connection points: 2
#     Edge 32, Type (0, 1), BuildingBlock: XIVTED_clean_linker_0, # of connection points: 2
#     Edge 33, Type (0, 1), BuildingBlock: XIVTED_clean_linker_0, # of connection points: 2
#     Edge 34, Type (0, 1), BuildingBlock: XIVTED_clean_linker_0, # of connection points: 2
#     Edge 35, Type (0, 1), BuildingBlock: XIVTED_clean_linker_0, # of connection points: 2
#     Edge 36, Type (0, 1), BuildingBlock: XIVTED_clean_linker_0, # of connection points: 2
#     Edge 37, Type (0, 1), BuildingBlock: XIVTED_clean_linker_0, # of connection points: 2
#     Edge 38, Type (0, 1), BuildingBlock: XIVTED_clean_linker_0, # of connection points: 2
#     Edge 39, Type (0, 1), BuildingBlock: XIVTED_clean_linker_0, # of connection points: 2
#     Edge 40, Type (0, 1), BuildingBlock: XIVTED_clean_linker_0, # of connection points: 2
#     Edge 41, Type (0, 1), BuildingBlock: XIVTED_clean_linker_0, # of connection points: 2
#     Edge 42, Type (0, 1), BuildingBlock: XIVTED_clean_linker_0, # of connection points: 2
#     Edge 43, Type (0, 1), BuildingBlock: XIVTED_clean_linker_0, # of connection points: 2
#     Edge 44, Type (0, 1), BuildingBlock: XIVTED_clean_linker_0, # of connection points: 2
#     Edge 45, Type (0, 1), BuildingBlock: XIVTED_clean_linker_0, # of connection points: 2
#     Edge 46, Type (0, 1), BuildingBlock: XIVTED_clean_linker_0, # of connection points: 2
#     Edge 47, Type (0, 1), BuildingBlock: XIVTED_clean_linker_0, # of connection points: 2
#     Edge 48, Type (0, 1), BuildingBlock: XIVTED_clean_linker_0, # of connection points: 2
#     Edge 49, Type (0, 1), BuildingBlock: XIVTED_clean_linker_0, # of connection points: 2
#     Edge 50, Type (0, 1), BuildingBlock: XIVTED_clean_linker_0, # of connection points: 2
#     Edge 51, Type (0, 1), BuildingBlock: XIVTED_clean_linker_0, # of connection points: 2
#     Edge 52, Type (0, 1), BuildingBlock: XIVTED_clean_linker_0, # of connection points: 2
#     Edge 53, Type (0, 1), BuildingBlock: XIVTED_clean_linker_0, # of connection points: 2
#     Edge 54, Type (0, 1), BuildingBlock: XIVTED_clean_linker_0, # of connection points: 2
#     Edge 55, Type (0, 1), BuildingBlock: XIVTED_clean_linker_0, # of connection points: 2
#     Edge 56, Type (0, 1), BuildingBlock: XIVTED_clean_linker_0, # of connection points: 2
#     Edge 57, Type (0, 1), BuildingBlock: XIVTED_clean_linker_0, # of connection points: 2
#     Edge 58, Type (0, 1), BuildingBlock: XIVTED_clean_linker_0, # of connection points: 2
#     Edge 59, Type (0, 1), BuildingBlock: XIVTED_clean_linker_0, # of connection points: 2
#     Edge 60, Type (0, 1), BuildingBlock: XIVTED_clean_linker_0, # of connection points: 2
#     Edge 61, Type (0, 1), BuildingBlock: XIVTED_clean_linker_0, # of connection points: 2
#     Edge 62, Type (0, 1), BuildingBlock: XIVTED_clean_linker_0, # of connection points: 2
#     Edge 63, Type (0, 1), BuildingBlock: XIVTED_clean_linker_0, # of connection points: 2
#     Edge 64, Type (0, 1), BuildingBlock: XIVTED_clean_linker_0, # of connection points: 2
#     Edge 65, Type (0, 1), BuildingBlock: XIVTED_clean_linker_0, # of connection points: 2
#     Edge 66, Type (0, 1), BuildingBlock: XIVTED_clean_linker_0, # of connection points: 2
#     Edge 67, Type (0, 1), BuildingBlock: XIVTED_clean_linker_0, # of connection points: 2
#     Edge 68, Type (0, 1), BuildingBlock: XIVTED_clean_linker_0, # of connection points: 2
#     Edge 69, Type (0, 1), BuildingBlock: XIVTED_clean_linker_0, # of connection points: 2
#     Edge 70, Type (0, 1), BuildingBlock: XIVTED_clean_linker_0, # of connection points: 2
#     Edge 71, Type (0, 1), BuildingBlock: XIVTED_clean_linker_0, # of connection points: 2
#     Edge 72, Type (0, 1), BuildingBlock: XIVTED_clean_linker_0, # of connection points: 2
#     Edge 73, Type (0, 1), BuildingBlock: XIVTED_clean_linker_0, # of connection points: 2
#     Edge 74, Type (0, 1), BuildingBlock: XIVTED_clean_linker_0, # of connection points: 2
#     Edge 75, Type (0, 1), BuildingBlock: XIVTED_clean_linker_0, # of connection points: 2
#     Edge 76, Type (0, 1), BuildingBlock: XIVTED_clean_linker_0, # of connection points: 2
#     Edge 77, Type (0, 1), BuildingBlock: XIVTED_clean_linker_0, # of connection points: 2
#     Edge 78, Type (0, 1), BuildingBlock: XIVTED_clean_linker_0, # of connection points: 2
#     Edge 79, Type (0, 1), BuildingBlock: XIVTED_clean_linker_0, # of connection points: 2
#     Edge 80, Type (0, 1), BuildingBlock: XIVTED_clean_linker_0, # of connection points: 2
# Relax obj value: 0.025
# Max RMSD: 0.166
# Mean RMSD: 0.120
data_MOF--net-eea--node1-KUMBUR_clean_sbu_0--node2-BETDIP_clean_linker_0--edge1-XIVTED_clean_linker_0
_symmetry_space_group_name_H-M    P1
_symmetry_Int_Tables_number       1
_symmetry_cell_setting            triclinic
loop_
_symmetry_equiv_pos_as_xyz
'x, y, z'
_cell_length_a     54.352876
_cell_length_b     55.976549
_cell_length_c     67.046141
_cell_angle_alpha  89.8954
_cell_angle_beta   89.878517
_cell_angle_gamma 119.94961
loop_
_atom_site_label
_atom_site_type_symbol
_atom_site_fract_x
_atom_site_fract_y
_atom_site_fract_z
_atom_type_partial_charge
H0 H 0.19954 0.08319 0.39569 0.0
H1 H 0.2427 0.14344 0.44159 0.0
H2 H 0.25364 0.07314 0.43778 0.0
H3 H 0.20676 0.1513 0.43712 0.0
C4 C 0.20418 0.15029 0.42103 0.0
C5 C 0.21375 0.09034 0.40835 0.0
C6 C 0.22561 0.07468 0.41562 0.0
C7 C 0.21945 0.11498 0.41771 0.0
C8 C 0.23763 0.12429 0.43433 0.0
C9 C 0.24925 0.10876 0.44189 0.0
C10 C 0.24356 0.08436 0.43229 0.0
N11 N 0.20706 0.1302 0.40992 0.0
H12 H 0.92919 0.13076 0.38025 0.0
H13 H 0.86944 0.10297 0.42878 0.0
H14 H 0.9431 0.18379 0.43063 0.0
H15 H 0.83941 0.08713 0.4002 0.0
C16 C 0.84924 0.07592 0.39407 0.0
C17 C 0.92285 0.13437 0.39475 0.0
C18 C 0.93948 0.15976 0.40447 0.0
C19 C 0.89707 0.11422 0.40315 0.0
C20 C 0.88872 0.11897 0.42189 0.0
C21 C 0.90511 0.14398 0.43193 0.0
C22 C 0.93049 0.16426 0.42311 0.0
N23 N 0.87938 0.08945 0.39256 0.0
H24 H 0.89099 0.80478 0.38291 0.0
H25 H 0.92497 0.78199 0.43262 0.0
H26 H 0.84059 0.77017 0.43599 0.0
H27 H 0.96646 0.82866 0.4183 0.0
C28 C 0.96396 0.81763 0.40444 0.0
C29 C 0.88861 0.79671 0.39793 0.0
C30 C 0.86305 0.78802 0.40849 0.0
C31 C 0.91116 0.79491 0.40667 0.0
C32 C 0.90785 0.78388 0.42601 0.0
C33 C 0.88238 0.77477 0.43668 0.0
C34 C 0.86029 0.77718 0.42785 0.0
N35 N 0.93656 0.80305 0.39559 0.0
H36 H 0.09368 0.20237 0.64603 0.0
H37 H 0.15044 0.22526 0.59584 0.0
H38 H 0.07973 0.23961 0.5942 0.0
H39 H 0.1432 0.17787 0.60951 0.0
C40 C 0.15262 0.18904 0.62322 0.0
C41 C 0.09962 0.21085 0.63111 0.0
C42 C 0.08333 0.22034 0.62107 0.0
C43 C 0.12368 0.21235 0.62197 0.0
C44 C 0.1317 0.2238 0.60275 0.0
C45 C 0.11613 0.23394 0.59263 0.0
C46 C 0.09188 0.23188 0.60188 0.0
N47 N 0.14054 0.20364 0.63259 0.0
H48 H 0.8289 0.89488 0.62999 0.0
H49 H 0.78032 0.91252 0.58814 0.0
H50 H 0.76716 0.83066 0.5922 0.0
H51 H 0.81868 0.95495 0.58961 0.0
C52 C 0.82221 0.95699 0.60561 0.0
C53 C 0.81278 0.88788 0.61852 0.0
C54 C 0.79912 0.86027 0.61207 0.0
C55 C 0.80639 0.90692 0.60985 0.0
C56 C 0.78573 0.89814 0.59479 0.0
C57 C 0.77196 0.8708 0.5881 0.0
C58 C 0.77855 0.85198 0.59694 0.0
N59 N 0.82036 0.93458 0.61685 0.0
H60 H 0.12433 0.91719 0.6427 0.0
H61 H 0.10144 0.85736 0.596 0.0
H62 H 0.1778 0.93573 0.5907 0.0
H63 H 0.08908 0.82952 0.62572 0.0
C64 C 0.07587 0.83713 0.63205 0.0
C65 C 0.12894 0.9114 0.62835 0.0
C66 C 0.15342 0.93009 0.61756 0.0
C67 C 0.11053 0.88491 0.62092 0.0
C68 C 0.11608 0.8774 0.60214 0.0
C69 C 0.14003 0.89586 0.59098 0.0
C70 C 0.15862 0.922 0.59889 0.0
N71 N 0.08644 0.86608 0.63239 0.0
H72 H 0.8896 0.42574 0.7175 0.0
H73 H 0.91875 0.47878 0.76854 0.0
H74 H 0.92665 0.40609 0.76707 0.0
H75 H 0.86725 0.4711 0.75755 0.0
C76 C 0.87797 0.48094 0.74369 0.0
C77 C 0.89916 0.43035 0.73217 0.0
C78 C 0.90775 0.41294 0.74103 0.0
C79 C 0.90238 0.45355 0.74232 0.0
C80 C 0.91532 0.46017 0.76114 0.0
C81 C 0.92502 0.44359 0.7699 0.0
C82 C 0.92057 0.41974 0.75991 0.0
N83 N 0.89331 0.47062 0.73312 0.0
H84 H 0.60199 0.46184 0.71827 0.0
H85 H 0.54264 0.43688 0.76711 0.0
H86 H 0.61058 0.52047 0.76328 0.0
H87 H 0.53926 0.39619 0.7619 0.0
C88 C 0.53838 0.39487 0.74573 0.0
C89 C 0.59484 0.46673 0.73197 0.0
C90 C 0.60917 0.49388 0.73944 0.0
C91 C 0.57107 0.44582 0.74202 0.0
C92 C 0.56136 0.45247 0.75948 0.0
C93 C 0.5756 0.47924 0.76732 0.0
C94 C 0.59952 0.49976 0.75726 0.0
N95 N 0.55662 0.41855 0.73406 0.0
H96 H 0.55927 0.13644 0.71607 0.0
H97 H 0.59244 0.11465 0.76682 0.0
H98 H 0.50859 0.10427 0.76931 0.0
H99 H 0.63447 0.16 0.75208 0.0
C100 C 0.63187 0.1488 0.73828 0.0
C101 C 0.55674 0.12887 0.73125 0.0
C102 C 0.53121 0.12089 0.74167 0.0
C103 C 0.57907 0.127 0.74034 0.0
C104 C 0.57553 0.11662 0.75992 0.0
C105 C 0.5501 0.10826 0.77047 0.0
C106 C 0.52825 0.11071 0.76126 0.0
N107 N 0.60445 0.13444 0.72941 0.0
H108 H 0.75713 0.53723 0.98041 0.0
H109 H 0.81399 0.5589 0.93043 0.0
H110 H 0.74395 0.57422 0.92807 0.0
H111 H 0.80561 0.51123 0.9445 0.0
C112 C 0.81547 0.52277 0.958 0.0
C113 C 0.7632 0.54553 0.96545 0.0
C114 C 0.74712 0.55507 0.95518 0.0
C115 C 0.78718 0.54667 0.95648 0.0
C116 C 0.79535 0.55782 0.93721 0.0
C117 C 0.78012 0.56815 0.92687 0.0
C118 C 0.7559 0.56642 0.93594 0.0
N119 N 0.80382 0.53783 0.96724 0.0
H120 H 0.48494 0.22628 0.97009 0.0
H121 H 0.44437 0.24549 0.92285 0.0
H122 H 0.43101 0.1636 0.92812 0.0
H123 H 0.48224 0.28759 0.92593 0.0
C124 C 0.48429 0.28961 0.94204 0.0
C125 C 0.47148 0.21987 0.95702 0.0
C126 C 0.45846 0.19235 0.95046 0.0
C127 C 0.46712 0.23934 0.94688 0.0
C128 C 0.4487 0.23093 0.93044 0.0
C129 C 0.43561 0.20366 0.92364 0.0
C130 C 0.44085 0.18459 0.93355 0.0
N131 N 0.48055 0.26696 0.95392 0.0
H132 H 0.78948 0.25011 0.97297 0.0
H133 H 0.77077 0.19416 0.92389 0.0
H134 H 0.85003 0.26984 0.92537 0.0
H135 H 0.72671 0.17883 0.93197 0.0
C136 C 0.72593 0.18098 0.94799 0.0
C137 C 0.79548 0.24511 0.95883 0.0
C138 C 0.82252 0.26276 0.9506 0.0
C139 C 0.77615 0.22066 0.94907 0.0
C140 C 0.78445 0.21363 0.93106 0.0
C141 C 0.81111 0.23122 0.92246 0.0
C142 C 0.82979 0.2558 0.93225 0.0
N143 N 0.74914 0.20307 0.95809 0.0
H144 H 0.54819 0.75717 0.05674 0.0
H145 H 0.59109 0.81635 0.10308 0.0
H146 H 0.58869 0.73879 0.10495 0.0
H147 H 0.60202 0.84583 0.07628 0.0
C148 C 0.58126 0.83696 0.06931 0.0
C149 C 0.56044 0.76287 0.07038 0.0
C150 C 0.56692 0.74422 0.07989 0.0
C151 C 0.57004 0.78924 0.07819 0.0
C152 C 0.58492 0.7966 0.09634 0.0
C153 C 0.59106 0.77814 0.10624 0.0
C154 C 0.5825 0.75231 0.09775 0.0
N155 N 0.56408 0.80787 0.06775 0.0
H156 H 0.26868 0.79232 0.05287 0.0
H157 H 0.20875 0.77003 0.10106 0.0
H158 H 0.28 0.85192 0.09791 0.0
H159 H 0.20288 0.72839 0.09602 0.0
C160 C 0.20259 0.72712 0.07985 0.0
C161 C 0.26189 0.79777 0.06648 0.0
C162 C 0.27739 0.82482 0.07405 0.0
C163 C 0.23741 0.77764 0.07634 0.0
C164 C 0.22803 0.78499 0.09362 0.0
C165 C 0.24333 0.81165 0.10153 0.0
C166 C 0.26807 0.83136 0.09175 0.0
N167 N 0.222 0.75046 0.06835 0.0
H168 H 0.22441 0.47202 0.04956 0.0
H169 H 0.25337 0.44566 0.10027 0.0
H170 H 0.16974 0.43603 0.10045 0.0
H171 H 0.29735 0.49058 0.08786 0.0
C172 C 0.29513 0.48099 0.07339 0.0
C173 C 0.22073 0.46328 0.06443 0.0
C174 C 0.19439 0.45436 0.07391 0.0
C175 C 0.24231 0.4607 0.07404 0.0
C176 C 0.23723 0.4487 0.09321 0.0
C177 C 0.21078 0.43906 0.10269 0.0
C178 C 0.18984 0.44252 0.09301 0.0
N179 N 0.26825 0.46856 0.06373 0.0
H180 H 0.42418 0.86843 0.31306 0.0
H181 H 0.48157 0.89114 0.26333 0.0
H182 H 0.41135 0.90621 0.26104 0.0
H183 H 0.47335 0.84325 0.27703 0.0
C184 C 0.48277 0.8544 0.29074 0.0
C185 C 0.43035 0.87697 0.29817 0.0
C186 C 0.41431 0.88664 0.28799 0.0
C187 C 0.45443 0.87831 0.28923 0.0
C188 C 0.46281 0.88985 0.27007 0.0
C189 C 0.44764 0.90033 0.25982 0.0
C190 C 0.42326 0.89833 0.26885 0.0
N191 N 0.47095 0.86931 0.29997 0.0
H192 H 0.14908 0.55892 0.30215 0.0
H193 H 0.1101 0.57987 0.25479 0.0
H194 H 0.09734 0.49806 0.25841 0.0
H195 H 0.14767 0.62183 0.259 0.0
C196 C 0.14928 0.6233 0.27514 0.0
C197 C 0.13616 0.55303 0.28881 0.0
C198 C 0.12368 0.52584 0.28158 0.0
C199 C 0.13199 0.57284 0.27898 0.0
C200 C 0.11427 0.56507 0.26216 0.0
C201 C 0.10171 0.53815 0.2547 0.0
C202 C 0.10676 0.51877 0.26434 0.0
N203 N 0.14498 0.60014 0.28666 0.0
H204 H 0.459 0.58256 0.30954 0.0
H205 H 0.42928 0.52521 0.26102 0.0
H206 H 0.5121 0.59706 0.25777 0.0
H207 H 0.38621 0.52971 0.27444 0.0
C208 C 0.38912 0.52203 0.28864 0.0
C209 C 0.46291 0.57659 0.29505 0.0
C210 C 0.48835 0.5937 0.2846 0.0
C211 C 0.44161 0.55206 0.28658 0.0
C212 C 0.4457 0.54421 0.26753 0.0
C213 C 0.47101 0.56066 0.25699 0.0
C214 C 0.49221 0.5851 0.26569 0.0
N215 N 0.4164 0.53514 0.2976 0.0
Tb216 Tb 0.49254 0.99026 0.99163 0.0
C217 C 0.54888 0.08545 0.05167 0.0
C218 C 0.599 0.10056 0.05039 0.0
C219 C 0.5835 0.13324 0.05874 0.0
C220 C 0.57039 0.07976 0.04821 0.0
C221 C 0.55506 0.1121 0.05734 0.0
C222 C 0.60546 0.12748 0.05526 0.0
C223 C 0.50468 0.09436 0.06127 0.0
N224 N 0.52178 0.06438 0.05032 0.0
C225 C 0.49968 0.06823 0.05571 0.0
C226 C 0.53248 0.11648 0.06188 0.0
Tb227 Tb 0.51557 0.02254 0.04034 0.0
N228 N 0.56317 0.05345 0.04373 0.0
C229 C 0.58371 0.04618 0.04259 0.0
C230 C 0.62015 0.09349 0.04812 0.0
C231 C 0.61243 0.06609 0.04446 0.0
H232 H 0.47809 0.05135 0.05517 0.0
H233 H 0.62858 0.06028 0.04302 0.0
H234 H 0.62731 0.14381 0.05683 0.0
H235 H 0.48709 0.09742 0.06507 0.0
H236 H 0.57828 0.02521 0.03964 0.0
H237 H 0.37983 0.95451 0.99001 0.0
H238 H 0.64239 0.10885 0.04961 0.0
H239 H 0.52833 0.96058 0.97498 0.0
H240 H 0.43042 0.98892 0.99275 0.0
H241 H 0.51816 0.91423 0.96488 0.0
H242 H 0.58873 0.15394 0.06292 0.0
H243 H 0.3649 0.90558 0.98385 0.0
H244 H 0.37883 0.86981 0.97656 0.0
H245 H 0.53631 0.13667 0.06628 0.0
H246 H 0.41659 0.85878 0.96967 0.0
N247 N 0.44466 0.95997 0.98869 0.0
C248 C 0.42453 0.96779 0.98997 0.0
C249 C 0.38728 0.92066 0.98503 0.0
C250 C 0.40797 0.91302 0.98256 0.0
C251 C 0.39564 0.94826 0.98845 0.0
C252 C 0.43678 0.93347 0.98434 0.0
H253 H 0.46869 0.87534 0.96495 0.0
N254 N 0.4851 0.94808 0.98133 0.0
C255 C 0.50097 0.91757 0.96934 0.0
C256 C 0.45782 0.92727 0.98053 0.0
C257 C 0.50663 0.94387 0.97504 0.0
C258 C 0.47303 0.89566 0.96946 0.0
C259 C 0.45096 0.90045 0.97476 0.0
O260 O 0.51511 0.00231 0.96445 0.0
O261 O 0.52549 0.02285 0.00916 0.0
O262 O 0.51205 0.05184 0.02078 0.0
O263 O 0.47961 0.0213 0.99767 0.0
O264 O 0.53801 0.00571 0.98751 0.0
O265 O 0.47688 0.0042 0.96831 0.0
O266 O 0.49403 0.01186 0.06794 0.0
O267 O 0.48306 0.98999 0.02277 0.0
O268 O 0.4979 0.96141 0.01064 0.0
O269 O 0.52903 0.99196 0.03448 0.0
O270 O 0.46968 0.00579 0.04466 0.0
O271 O 0.53099 0.00785 0.06327 0.0
C272 C 0.54717 0.02447 1.00096 0.0
C273 C 0.48783 0.99614 0.93571 0.0
C274 C 0.49245 0.00252 0.89949 0.0
C275 C 0.4998 0.01335 0.91893 0.0
C276 C 0.47276 0.9743 0.89715 0.0
C277 C 0.46811 0.96813 0.93297 0.0
C278 C 0.46063 0.95731 0.91378 0.0
C279 C 0.49305 0.04576 0.00652 0.0
C280 C 0.4968 0.00747 0.95591 0.0
C281 C 0.42234 0.87961 0.97388 0.0
C282 C 0.40084 0.88589 0.97779 0.0
C283 C 0.46103 0.98726 0.03106 0.0
C284 C 0.52198 0.01671 0.09617 0.0
C285 C 0.51135 0.99919 0.11293 0.0
C286 C 0.52111 0.0094 0.13227 0.0
C287 C 0.5414 0.03751 0.1345 0.0
C288 C 0.54223 0.04457 0.09883 0.0
C289 C 0.55181 0.05488 0.11789 0.0
C290 C 0.51676 0.96784 0.02511 0.0
C291 C 0.51185 0.00563 0.07606 0.0
H292 H 0.5152 0.03498 0.92102 0.0
H293 H 0.46644 0.96541 0.88242 0.0
H294 H 0.45854 0.95462 0.94561 0.0
H295 H 0.44539 0.93566 0.91179 0.0
H296 H 0.49587 0.97758 0.11085 0.0
H297 H 0.54903 0.04618 0.14913 0.0
H298 H 0.55067 0.05833 0.08621 0.0
H299 H 0.56738 0.07646 0.11982 0.0
Tb300 Tb 0.02906 0.50201 0.99118 0.0
C301 C 0.92484 0.46171 0.04477 0.0
C302 C 0.91061 0.49609 0.04144 0.0
C303 C 0.87509 0.44837 0.0482 0.0
C304 C 0.93176 0.48853 0.04102 0.0
C305 C 0.89656 0.44137 0.04887 0.0
C306 C 0.88212 0.47573 0.0445 0.0
C307 C 0.91333 0.40957 0.05586 0.0
N308 N 0.94627 0.45596 0.04554 0.0
C309 C 0.94109 0.43055 0.05181 0.0
C310 C 0.8909 0.41489 0.05413 0.0
Tb311 Tb 0.99091 0.49133 0.03789 0.0
N312 N 0.95957 0.50756 0.03846 0.0
C313 C 0.96786 0.535 0.03779 0.0
C314 C 0.91887 0.52399 0.03958 0.0
C315 C 0.94768 0.54357 0.03814 0.0
H316 H 0.95826 0.42619 0.05306 0.0
H317 H 0.95437 0.56527 0.03713 0.0
H318 H 0.8655 0.48106 0.04463 0.0
H319 H 0.90926 0.38931 0.0603 0.0
H320 H 0.98998 0.55047 0.03649 0.0
H321 H 0.0678 0.42978 0.99252 0.0
H322 H 0.90329 0.53068 0.03981 0.0
H323 H 0.05995 0.56648 0.97479 0.0
H324 H 0.0315 0.44367 0.99332 0.0
H325 H 0.10818 0.6035 0.96591 0.0
H326 H 0.85316 0.433 0.05111 0.0
H327 H 0.1185 0.46493 0.98855 0.0
H328 H 0.15532 0.51456 0.98239 0.0
H329 H 0.86944 0.39865 0.05739 0.0
H330 H 0.16638 0.56203 0.97499 0.0
N331 N 0.06116 0.48666 0.99046 0.0
C332 C 0.05344 0.45938 0.99154 0.0
C333 C 0.10262 0.47123 0.98894 0.0
C334 C 0.11025 0.49891 0.98658 0.0
C335 C 0.07403 0.45133 0.99111 0.0
C336 C 0.08873 0.50598 0.98731 0.0
H337 H 0.14879 0.59527 0.96831 0.0
N338 N 0.07311 0.53768 0.98266 0.0
C339 C 0.10478 0.58365 0.97085 0.0
C340 C 0.09495 0.53251 0.98318 0.0
C341 C 0.07745 0.56258 0.97586 0.0
C342 C 0.12767 0.57897 0.97229 0.0
C343 C 0.12285 0.55298 0.9782 0.0
O344 O 0.02094 0.51237 0.96272 0.0
O345 O 0.9939 0.50104 0.00672 0.0
O346 O 0.96307 0.45864 0.01753 0.0
O347 O 0.99666 0.45812 0.9961 0.0
O348 O 0.01193 0.52967 0.98491 0.0
O349 O 0.01722 0.47277 0.96824 0.0
O350 O 0.99771 0.47969 0.0663 0.0
O351 O 0.02633 0.49246 0.02251 0.0
O352 O 0.05718 0.53521 0.01117 0.0
O353 O 0.02405 0.53508 0.03351 0.0
O354 O 0.00741 0.46327 0.04405 0.0
O355 O 1.00252 0.51988 0.06127 0.0
C356 C 0.99177 0.51973 0.99784 0.0
C357 C 0.03155 0.49182 0.93601 0.0
C358 C 0.03066 0.48871 0.89969 0.0
C359 C 0.01671 0.4862 0.91796 0.0
C360 C 0.0598 0.49722 0.89982 0.0
C361 C 0.06046 0.4999 0.93579 0.0
C362 C 0.07451 0.50269 0.91778 0.0
C363 C 0.97069 0.44647 0.00392 0.0
C364 C 0.01658 0.48935 0.95485 0.0
C365 C 0.14472 0.54652 0.97856 0.0
C366 C 0.13843 0.5195 0.98277 0.0
C367 C 0.02798 0.4735 0.03144 0.0
C368 C 0.98716 0.50001 0.09319 0.0
C369 C 1.00122 0.5031 0.11132 0.0
C370 C 0.98729 0.50058 0.12958 0.0
C371 C 0.95894 0.49476 0.1294 0.0
C372 C 0.95896 0.49436 0.09331 0.0
C373 C 0.94493 0.49168 0.11134 0.0
C374 C 0.04986 0.54693 0.02537 0.0
C375 C 1.00235 0.50266 0.07444 0.0
H376 H 0.99423 0.47946 0.91822 0.0
H377 H 0.07129 0.49984 0.88602 0.0
H378 H 0.07218 0.504 0.94943 0.0
H379 H 0.09689 0.50913 0.91774 0.0
H380 H 0.02318 0.50793 0.11114 0.0
H381 H 0.94753 0.49237 0.1432 0.0
H382 H 0.94781 0.49211 0.07956 0.0
H383 H 0.92312 0.48722 0.11132 0.0
Tb384 Tb 0.52855 0.50693 0.03554 0.0
C385 C 0.47214 0.55046 0.97877 0.0
C386 C 0.42232 0.51624 0.98073 0.0
C387 C 0.43657 0.56398 0.97339 0.0
C388 C 0.45114 0.52368 0.98221 0.0
C389 C 0.4652 0.57082 0.97371 0.0
C390 C 0.41513 0.53669 0.97694 0.0
C391 C 0.51505 0.60214 0.9675 0.0
N392 N 0.49942 0.556 0.9789 0.0
C393 C 0.52082 0.58119 0.97266 0.0
C394 C 0.48716 0.59707 0.96833 0.0
Tb395 Tb 0.50696 0.52055 0.98764 0.0
N396 N 0.45908 0.50453 0.98523 0.0
C397 C 0.43909 0.4771 0.98523 0.0
C398 C 0.4017 0.48834 0.98215 0.0
C399 C 0.41017 0.46865 0.98399 0.0
H400 H 0.54247 0.58539 0.9721 0.0
H401 H 0.39444 0.44694 0.98457 0.0
H402 H 0.3931 0.53145 0.97597 0.0
H403 H 0.53213 0.62219 0.96297 0.0
H404 H 0.44516 0.46156 0.98678 0.0
H405 H 0.64094 0.58093 0.03967 0.0
H406 H 0.37931 0.48173 0.98112 0.0
H407 H 0.49258 0.44133 0.0494 0.0
H408 H 0.59033 0.56616 0.03647 0.0
H409 H 0.50285 0.40449 0.05851 0.0
H410 H 0.43076 0.57938 0.96976 0.0
H411 H 0.65606 0.54634 0.04455 0.0
H412 H 0.64231 0.49673 0.05013 0.0
H413 H 0.48273 0.61329 0.96428 0.0
H414 H 0.60463 0.44856 0.05539 0.0
N415 N 0.57638 0.52322 0.03883 0.0
C416 C 0.59635 0.55067 0.0386 0.0
C417 C 0.63369 0.53965 0.0431 0.0
C418 C 0.6131 0.51175 0.04455 0.0
C419 C 0.62523 0.55922 0.0404 0.0
C420 C 0.5843 0.50417 0.04244 0.0
H421 H 0.55248 0.41403 0.05896 0.0
N422 N 0.53594 0.47138 0.04422 0.0
C423 C 0.52006 0.42483 0.05472 0.0
C424 C 0.56329 0.47723 0.04528 0.0
C425 C 0.51433 0.44581 0.04957 0.0
C426 C 0.5481 0.43028 0.0549 0.0
C427 C 0.57019 0.45686 0.05045 0.0
O428 O 0.50558 0.49429 0.0625 0.0
O429 O 0.49612 0.509 0.0184 0.0
O430 O 0.51091 0.55272 0.00793 0.0
O431 O 0.54088 0.55077 0.03201 0.0
O432 O 0.48268 0.47792 0.03853 0.0
O433 O 0.54366 0.53383 0.06007 0.0
O434 O 0.52864 0.53291 0.96013 0.0
O435 O 0.53951 0.51879 0.0048 0.0
O436 O 0.52572 0.47556 0.01501 0.0
O437 O 0.495 0.47672 0.99123 0.0
O438 O 0.55277 0.5493 0.98418 0.0
O439 O 0.49147 0.49289 0.96359 0.0
C440 C 0.47397 0.48914 0.02575 0.0
C441 C 0.53257 0.51213 0.09167 0.0
C442 C 0.5282 0.51192 0.12794 0.0
C443 C 0.5207 0.51668 0.10886 0.0
C444 C 0.54775 0.5025 0.12954 0.0
C445 C 0.55226 0.50304 0.09361 0.0
C446 C 0.55973 0.49819 0.11246 0.0
C447 C 0.52827 0.56318 0.02333 0.0
C448 C 0.52369 0.51644 0.07192 0.0
C449 C 0.59884 0.46395 0.05164 0.0
C450 C 0.62029 0.49137 0.04866 0.0
C451 C 0.56158 0.53847 0.99719 0.0
C452 C 0.49979 0.51378 0.93182 0.0
C453 C 0.51104 0.50977 0.91407 0.0
C454 C 0.50087 0.51261 0.8954 0.0
C455 C 0.47958 0.51992 0.89482 0.0
C456 C 0.47841 0.52078 0.93084 0.0
C457 C 0.46848 0.52397 0.91244 0.0
C458 C 0.50815 0.46473 0.99977 0.0
C459 C 0.51041 0.51035 0.95117 0.0
H460 H 0.50538 0.5236 0.10736 0.0
H461 H 0.55418 0.49895 0.14401 0.0
H462 H 0.56188 0.49972 0.08064 0.0
H463 H 0.57494 0.49116 0.11383 0.0
H464 H 0.52725 0.50392 0.91484 0.0
H465 H 0.47162 0.52269 0.88072 0.0
H466 H 0.46925 0.52365 0.94423 0.0
H467 H 0.45205 0.52951 0.91184 0.0
Tb468 Tb 0.15723 0.3224 0.32441 0.0
C469 C 0.21335 0.41892 0.38278 0.0
C470 C 0.26305 0.43238 0.38198 0.0
C471 C 0.24916 0.46673 0.38851 0.0
C472 C 0.23419 0.41215 0.38003 0.0
C473 C 0.22044 0.44613 0.38751 0.0
C474 C 0.27046 0.45986 0.38573 0.0
C475 C 0.17038 0.42996 0.39162 0.0
N476 N 0.18597 0.39834 0.3819 0.0
C477 C 0.16448 0.40325 0.38699 0.0
C478 C 0.19848 0.45158 0.39164 0.0
Tb479 Tb 0.17818 0.35553 0.37305 0.0
N480 N 0.22603 0.38534 0.37666 0.0
C481 C 0.24581 0.37702 0.37668 0.0
C482 C 0.28346 0.42419 0.38077 0.0
C483 C 0.27474 0.39631 0.37847 0.0
H484 H 0.14268 0.38674 0.38688 0.0
H485 H 0.29031 0.38964 0.37795 0.0
H486 H 0.29253 0.47576 0.38708 0.0
H487 H 0.15326 0.43385 0.39516 0.0
H488 H 0.23962 0.35564 0.37475 0.0
H489 H 0.04488 0.28682 0.31856 0.0
H490 H 0.30587 0.43907 0.38215 0.0
H491 H 0.19392 0.29239 0.31071 0.0
H492 H 0.09531 0.32127 0.32243 0.0
H493 H 0.18428 0.24588 0.30144 0.0
H494 H 0.2551 0.48784 0.39193 0.0
H495 H 0.03018 0.23771 0.31361 0.0
H496 H 0.04442 0.20174 0.30825 0.0
H497 H 0.20301 0.47223 0.39532 0.0
H498 H 0.08249 0.19055 0.30344 0.0
N499 N 0.10959 0.29212 0.32033 0.0
C500 C 0.08949 0.30003 0.32023 0.0
C501 C 0.05248 0.25278 0.31535 0.0
C502 C 0.07324 0.24504 0.31419 0.0
C503 C 0.0607 0.28049 0.31806 0.0
C504 C 0.10192 0.26549 0.31665 0.0
H505 H 0.13481 0.20703 0.30045 0.0
N506 N 0.15037 0.27998 0.31542 0.0
C507 C 0.16687 0.2493 0.30506 0.0
C508 C 0.12313 0.25917 0.31406 0.0
C509 C 0.17224 0.27567 0.31028 0.0
C510 C 0.13892 0.2274 0.30458 0.0
C511 C 0.11658 0.23227 0.3088 0.0
O512 O 0.18049 0.33274 0.29752 0.0
O513 O 0.18914 0.35483 0.34237 0.0
O514 O 0.17503 0.38435 0.35275 0.0
O515 O 0.14441 0.3539 0.3287 0.0
O516 O 0.20323 0.33835 0.32155 0.0
O517 O 0.14319 0.33654 0.30024 0.0
O518 O 0.15589 0.34641 0.40033 0.0
O519 O 0.14598 0.32319 0.35513 0.0
O520 O 0.15976 0.29317 0.34478 0.0
O521 O 0.19044 0.32374 0.3687 0.0
O522 O 0.13247 0.34022 0.37613 0.0
O523 O 0.19168 0.34028 0.39678 0.0
C524 C 0.21148 0.35706 0.33501 0.0
C525 C 0.15398 0.32647 0.26826 0.0
C526 C 0.15439 0.33214 0.232 0.0
C527 C 0.16308 0.34356 0.25121 0.0
C528 C 0.13691 0.30337 0.23022 0.0
C529 C 0.13635 0.29796 0.26601 0.0
C530 C 0.12799 0.2865 0.2471 0.0
C531 C 0.15711 0.37827 0.33773 0.0
C532 C 0.16305 0.33852 0.28828 0.0
C533 C 0.08802 0.21144 0.30727 0.0
C534 C 0.06635 0.21781 0.31 0.0
C535 C 0.12394 0.32155 0.36264 0.0
C536 C 0.1828 0.35079 0.4291 0.0
C537 C 0.17344 0.33325 0.44587 0.0
C538 C 0.1834 0.34375 0.46511 0.0
C539 C 0.20266 0.37215 0.46723 0.0
C540 C 0.20202 0.37896 0.43161 0.0
C541 C 0.21183 0.38955 0.45059 0.0
C542 C 0.17729 0.29913 0.36005 0.0
C543 C 0.17266 0.33934 0.4091 0.0
H544 H 0.17645 0.36565 0.25294 0.0
H545 H 0.13026 0.29381 0.21571 0.0
H546 H 0.12906 0.28453 0.27882 0.0
H547 H 0.11451 0.26442 0.24551 0.0
H548 H 0.15881 0.31141 0.44387 0.0
H549 H 0.21041 0.38101 0.4818 0.0
H550 H 0.2095 0.39274 0.41895 0.0
H551 H 0.22661 0.41135 0.45243 0.0
Tb552 Tb 0.6947 0.8322 0.32746 0.0
C553 C 0.59069 0.78972 0.3828 0.0
C554 C 0.57354 0.82168 0.37804 0.0
C555 C 0.54059 0.77425 0.38757 0.0
C556 C 0.59577 0.81559 0.37767 0.0
C557 C 0.56321 0.76888 0.38835 0.0
C558 C 0.54575 0.80064 0.3824 0.0
C559 C 0.58312 0.74013 0.39697 0.0
N560 N 0.61319 0.78559 0.38361 0.0
C561 C 0.60998 0.76149 0.39127 0.0
C562 C 0.55954 0.74368 0.39522 0.0
Tb563 Tb 0.65643 0.8217 0.37406 0.0
N564 N 0.62301 0.83541 0.37409 0.0
C565 C 0.62975 0.86239 0.37251 0.0
C566 C 0.58013 0.84896 0.37499 0.0
C567 C 0.60844 0.86949 0.37263 0.0
H568 H 0.62795 0.75837 0.39261 0.0
H569 H 0.6139 0.89079 0.37078 0.0
H570 H 0.52832 0.80482 0.38253 0.0
H571 H 0.58063 0.72093 0.40264 0.0
H572 H 0.65147 0.87855 0.37054 0.0
H573 H 0.73296 0.75959 0.32897 0.0
H574 H 0.56368 0.85453 0.37512 0.0
H575 H 0.72609 0.89706 0.31185 0.0
H576 H 0.69679 0.77365 0.32975 0.0
H577 H 0.77463 0.93423 0.30375 0.0
H578 H 0.51924 0.75843 0.39156 0.0
H579 H 0.78371 0.79461 0.32503 0.0
H580 H 0.82073 0.84424 0.31917 0.0
H581 H 0.53879 0.72714 0.39968 0.0
H582 H 0.83215 0.89195 0.3123 0.0
N583 N 0.72658 0.81662 0.32684 0.0
C584 C 0.71876 0.78931 0.32798 0.0
C585 C 0.76789 0.80098 0.32538 0.0
C586 C 0.77564 0.8287 0.32307 0.0
C587 C 0.73926 0.78116 0.32755 0.0
C588 C 0.75419 0.83587 0.32374 0.0
H589 H 0.815 0.92564 0.30616 0.0
N590 N 0.73892 0.86791 0.31939 0.0
C591 C 0.77101 0.91418 0.30837 0.0
C592 C 0.76062 0.86254 0.31988 0.0
C593 C 0.74351 0.89304 0.31291 0.0
C594 C 0.79375 0.90929 0.30981 0.0
C595 C 0.78865 0.88305 0.31527 0.0
O596 O 0.68714 0.84305 0.29901 0.0
O597 O 0.65878 0.83036 0.34261 0.0
O598 O 0.62879 0.78735 0.35473 0.0
O599 O 0.66218 0.78832 0.33215 0.0
O600 O 0.67722 0.8594 0.32092 0.0
O601 O 0.68366 0.80344 0.30427 0.0
O602 O 0.66601 0.81337 0.40276 0.0
O603 O 0.6921 0.82318 0.35879 0.0
O604 O 0.72215 0.86558 0.34755 0.0
O605 O 0.68782 0.86566 0.36843 0.0
O606 O 0.67409 0.79476 0.38086 0.0
O607 O 0.6673 0.85172 0.3963 0.0
C608 C 0.6566 0.8489 0.33349 0.0
C609 C 0.69782 0.82285 0.2721 0.0
C610 C 0.69643 0.82069 0.23578 0.0
C611 C 0.68278 0.81776 0.25421 0.0
C612 C 0.72547 0.82896 0.23551 0.0
C613 C 0.7267 0.83078 0.27157 0.0
C614 C 0.74045 0.83389 0.25334 0.0
C615 C 0.63646 0.77596 0.34047 0.0
C616 C 0.68297 0.82015 0.29102 0.0
C617 C 0.8104 0.87643 0.3156 0.0
C618 C 0.8039 0.84927 0.31951 0.0
C619 C 0.6943 0.80471 0.36799 0.0
C620 C 0.6539 0.83359 0.42889 0.0
C621 C 0.6675 0.83518 0.44697 0.0
C622 C 0.65374 0.83278 0.46528 0.0
C623 C 0.62597 0.82857 0.46521 0.0
C624 C 0.62626 0.82954 0.42911 0.0
C625 C 0.61236 0.82694 0.4472 0.0
C626 C 0.71383 0.87778 0.36066 0.0
C627 C 0.66899 0.83618 0.41008 0.0
H628 H 0.66049 0.81183 0.25465 0.0
H629 H 0.73647 0.83115 0.22154 0.0
H630 H 0.7386 0.83454 0.28514 0.0
H631 H 0.76275 0.84004 0.25304 0.0
H632 H 0.68905 0.8388 0.44673 0.0
H633 H 0.6147 0.82635 0.47905 0.0
H634 H 0.61547 0.82854 0.41541 0.0
H635 H 0.591 0.82373 0.44725 0.0
Tb636 Tb 0.19796 0.84252 0.36886 0.0
C637 C 0.14045 0.88494 0.31214 0.0
C638 C 0.09069 0.85058 0.31419 0.0
C639 C 0.10472 0.89826 0.30682 0.0
C640 C 0.11955 0.85814 0.31562 0.0
C641 C 0.13339 0.90522 0.3071 0.0
C642 C 0.08338 0.87095 0.31039 0.0
C643 C 0.18321 0.93674 0.30094 0.0
N644 N 0.16778 0.89061 0.31225 0.0
C645 C 0.18911 0.91586 0.30603 0.0
C646 C 0.15526 0.93153 0.30176 0.0
Tb647 Tb 0.17553 0.85528 0.32097 0.0
N648 N 0.1276 0.83907 0.31868 0.0
C649 C 0.10767 0.81162 0.31883 0.0
C650 C 0.07015 0.82267 0.31571 0.0
C651 C 0.07872 0.80307 0.31763 0.0
H652 H 0.21079 0.92017 0.30546 0.0
H653 H 0.06305 0.78135 0.31831 0.0
H654 H 0.06131 0.86563 0.30947 0.0
H655 H 0.20022 0.95685 0.29644 0.0
H656 H 0.1138 0.79614 0.32045 0.0
H657 H 0.31043 0.9165 0.3719 0.0
H658 H 0.04774 0.81598 0.31473 0.0
H659 H 0.16224 0.77728 0.38357 0.0
H660 H 0.25976 0.90171 0.36916 0.0
H661 H 0.17261 0.74058 0.39293 0.0
H662 H 0.09882 0.9136 0.30321 0.0
H663 H 0.32562 0.88196 0.37676 0.0
H664 H 0.31192 0.83242 0.38274 0.0
H665 H 0.15074 0.9477 0.29775 0.0
H666 H 0.2743 0.78439 0.38865 0.0
N667 N 0.24584 0.85881 0.37177 0.0
C668 C 0.26581 0.88624 0.37131 0.0
C669 C 0.30323 0.87526 0.37552 0.0
C670 C 0.28265 0.84739 0.37727 0.0
C671 C 0.29473 0.89481 0.37284 0.0
C672 C 0.25381 0.83981 0.37542 0.0
H673 H 0.22222 0.75003 0.39292 0.0
N674 N 0.20549 0.80715 0.37784 0.0
C675 C 0.18976 0.76083 0.38884 0.0
C676 C 0.23284 0.81295 0.37865 0.0
C677 C 0.18397 0.78172 0.38356 0.0
C678 C 0.21778 0.76621 0.38876 0.0
C679 C 0.2398 0.79267 0.38392 0.0
O680 O 0.1758 0.83045 0.39618 0.0
O681 O 0.16525 0.8441 0.35181 0.0
O682 O 0.17939 0.88745 0.34115 0.0
O683 O 0.21021 0.88632 0.36486 0.0
O684 O 0.1521 0.8137 0.37246 0.0
O685 O 0.21332 0.87026 0.39289 0.0
O686 O 0.19699 0.86743 0.29338 0.0
O687 O 0.20838 0.85374 0.33795 0.0
O688 O 0.19449 0.81052 0.34861 0.0
O689 O 0.16357 0.81152 0.32491 0.0
O690 O 0.22126 0.88407 0.31719 0.0
O691 O 0.15983 0.82744 0.29702 0.0
C692 C 0.14322 0.8245 0.35947 0.0
C693 C 0.20356 0.84979 0.4249 0.0
C694 C 0.20056 0.85121 0.46122 0.0
C695 C 0.19206 0.85478 0.44212 0.0
C696 C 0.22076 0.84258 0.46276 0.0
C697 C 0.22382 0.84142 0.4268 0.0
C698 C 0.23232 0.8378 0.44565 0.0
C699 C 0.19717 0.89838 0.35628 0.0
C700 C 0.19387 0.85308 0.40514 0.0
C701 C 0.26847 0.79973 0.38483 0.0
C702 C 0.28989 0.82707 0.38147 0.0
C703 C 0.23028 0.87339 0.33016 0.0
C704 C 0.16789 0.84821 0.26522 0.0
C705 C 0.17913 0.8443 0.24745 0.0
C706 C 0.16898 0.84727 0.22881 0.0
C707 C 0.1477 0.85458 0.22829 0.0
C708 C 0.14648 0.85519 0.26432 0.0
C709 C 0.13656 0.85849 0.24595 0.0
C710 C 0.17664 0.7995 0.33351 0.0
C711 C 0.17865 0.84483 0.28452 0.0
H712 H 0.17627 0.86109 0.44064 0.0
H713 H 0.22801 0.83998 0.47721 0.0
H714 H 0.23311 0.83774 0.4138 0.0
H715 H 0.248 0.83135 0.44699 0.0
H716 H 0.19535 0.83845 0.24818 0.0
H717 H 0.13976 0.85747 0.21422 0.0
H718 H 0.13732 0.85796 0.27773 0.0
H719 H 0.12013 0.86402 0.2454 0.0
Tb720 Tb 0.82558 0.65493 0.65734 0.0
C721 C 0.8854 0.74983 0.71735 0.0
C722 C 0.93472 0.7619 0.71678 0.0
C723 C 0.92209 0.79681 0.72466 0.0
C724 C 0.90572 0.74244 0.71423 0.0
C725 C 0.89319 0.77689 0.72311 0.0
C726 C 0.94285 0.78932 0.72147 0.0
C727 C 0.84336 0.76176 0.72724 0.0
N728 N 0.85779 0.72985 0.71597 0.0
C729 C 0.83674 0.73519 0.7215 0.0
C730 C 0.8717 0.78282 0.72779 0.0
Tb731 Tb 0.84886 0.68702 0.70612 0.0
N732 N 0.89686 0.71565 0.71014 0.0
C733 C 0.91599 0.70653 0.71 0.0
C734 C 0.95453 0.75297 0.7153 0.0
C735 C 0.94505 0.72506 0.71223 0.0
H736 H 0.81475 0.71917 0.721 0.0
H737 H 0.96011 0.71778 0.71152 0.0
H738 H 0.96505 0.80466 0.72328 0.0
H739 H 0.82659 0.766 0.73118 0.0
H740 H 0.90918 0.68509 0.70758 0.0
H741 H 0.7149 0.62682 0.65338 0.0
H742 H 0.97702 0.76726 0.71709 0.0
H743 H 0.85787 0.62064 0.6433 0.0
H744 H 0.76611 0.65861 0.65674 0.0
H745 H 0.84447 0.5729 0.63452 0.0
H746 H 0.92856 0.81781 0.72886 0.0
H747 H 0.69666 0.57708 0.64794 0.0
H748 H 0.70713 0.53863 0.64207 0.0
H749 H 0.87678 0.80335 0.7323 0.0
H750 H 0.74247 0.52388 0.63693 0.0
N751 N 0.77736 0.62731 0.6537 0.0
C752 C 0.75875 0.63706 0.65429 0.0
C753 C 0.7193 0.59098 0.64939 0.0
C754 C 0.7385 0.58134 0.64771 0.0
C755 C 0.72952 0.61904 0.6524 0.0
C756 C 0.76772 0.60031 0.6498 0.0
H757 H 0.79382 0.53661 0.63384 0.0
N758 N 0.81525 0.61143 0.64814 0.0
C759 C 0.82819 0.57797 0.63807 0.0
C760 C 0.78741 0.59203 0.64695 0.0
C761 C 0.83569 0.60505 0.64299 0.0
C762 C 0.79958 0.55753 0.63776 0.0
C763 C 0.77873 0.56453 0.6419 0.0
O764 O 0.84841 0.66446 0.63031 0.0
O765 O 0.85921 0.6863 0.67515 0.0
O766 O 0.84787 0.71763 0.68628 0.0
O767 O 0.8158 0.68826 0.66245 0.0
O768 O 0.87066 0.66781 0.65379 0.0
O769 O 0.81246 0.67042 0.63349 0.0
O770 O 0.82673 0.67756 0.73348 0.0
O771 O 0.8155 0.65586 0.6882 0.0
O772 O 0.82685 0.62481 0.67733 0.0
O773 O 0.8597 0.65431 0.70077 0.0
O774 O 0.80334 0.673 0.7098 0.0
O775 O 0.86172 0.67035 0.72933 0.0
C776 C 0.8804 0.68652 0.66729 0.0
C777 C 0.82247 0.6605 0.60121 0.0
C778 C 0.82593 0.66761 0.56506 0.0
C779 C 0.83369 0.67808 0.58456 0.0
C780 C 0.80658 0.63933 0.56255 0.0
C781 C 0.80308 0.63245 0.59833 0.0
C782 C 0.79519 0.62196 0.57909 0.0
C783 C 0.83021 0.7127 0.67121 0.0
C784 C 0.83183 0.67162 0.62139 0.0
C785 C 0.74962 0.54519 0.64062 0.0
C786 C 0.72951 0.55359 0.64353 0.0
C787 C 0.79388 0.65459 0.69611 0.0
C788 C 0.85365 0.68081 0.76195 0.0
C789 C 0.84287 0.66351 0.77881 0.0
C790 C 0.85312 0.6738 0.79806 0.0
C791 C 0.87401 0.70174 0.8001 0.0
C792 C 0.87452 0.7085 0.76444 0.0
C793 C 0.88456 0.71889 0.78341 0.0
C794 C 0.84535 0.63 0.69181 0.0
C795 C 0.84311 0.66973 0.7419 0.0
H796 H 0.84883 0.69976 0.58677 0.0
H797 H 0.79994 0.6307 0.54778 0.0
H798 H 0.79414 0.61865 0.6109 0.0
H799 H 0.78021 0.60026 0.57699 0.0
H800 H 0.82693 0.64202 0.77688 0.0
H801 H 0.88201 0.71047 0.81467 0.0
H802 H 0.88309 0.72209 0.75176 0.0
H803 H 0.9006 0.74034 0.78518 0.0
Tb804 Tb 0.36437 0.16755 0.65934 0.0
C805 C 0.2613 0.1291 0.71399 0.0
C806 C 0.24772 0.16367 0.70894 0.0
C807 C 0.21186 0.11682 0.71767 0.0
C808 C 0.26851 0.15562 0.70899 0.0
C809 C 0.2331 0.10958 0.71914 0.0
C810 C 0.21917 0.14388 0.71254 0.0
C811 C 0.24989 0.07897 0.72968 0.0
N812 N 0.28258 0.12329 0.71571 0.0
C813 C 0.27755 0.09914 0.72443 0.0
C814 C 0.22745 0.08398 0.72662 0.0
Tb815 Tb 0.32717 0.15708 0.70638 0.0
N816 N 0.29641 0.17414 0.70621 0.0
C817 C 0.30519 0.20168 0.70512 0.0
C818 C 0.25646 0.19158 0.70635 0.0
C819 C 0.28539 0.21073 0.70492 0.0
H820 H 0.29474 0.09499 0.7267 0.0
H821 H 0.29248 0.23249 0.70348 0.0
H822 H 0.20282 0.14956 0.71228 0.0
H823 H 0.24591 0.05956 0.73603 0.0
H824 H 0.32739 0.21687 0.70381 0.0
H825 H 0.39913 0.09226 0.66035 0.0
H826 H 0.24119 0.19865 0.70621 0.0
H827 H 0.39705 0.23207 0.64306 0.0
H828 H 0.36418 0.10788 0.66154 0.0
H829 H 0.44574 0.26788 0.63384 0.0
H830 H 0.18998 0.10203 0.72129 0.0
H831 H 0.45015 0.12606 0.65585 0.0
H832 H 0.48819 0.17517 0.64945 0.0
H833 H 0.20609 0.06841 0.7308 0.0
H834 H 0.50097 0.22316 0.6422 0.0
N835 N 0.39498 0.15051 0.65834 0.0
C836 C 0.38629 0.123 0.65952 0.0
C837 C 0.43488 0.13312 0.6564 0.0
C838 C 0.44347 0.16103 0.65398 0.0
C839 C 0.40609 0.11398 0.65887 0.0
C840 C 0.42273 0.1691 0.65492 0.0
H841 H 0.48514 0.25782 0.63587 0.0
N842 N 0.40886 0.20225 0.65078 0.0
C843 C 0.44163 0.24779 0.63877 0.0
C844 C 0.42996 0.196 0.65101 0.0
C845 C 0.41405 0.22743 0.64397 0.0
C846 C 0.46383 0.24207 0.64 0.0
C847 C 0.45807 0.21574 0.64584 0.0
O848 O 0.35636 0.17926 0.63136 0.0
O849 O 0.32892 0.16598 0.675 0.0
O850 O 0.29908 0.12174 0.68788 0.0
O851 O 0.33049 0.12397 0.66287 0.0
O852 O 0.34819 0.19603 0.65405 0.0
O853 O 0.35339 0.13967 0.63555 0.0
O854 O 0.33584 0.14675 0.73472 0.0
O855 O 0.36214 0.15788 0.69059 0.0
O856 O 0.39322 0.20062 0.67914 0.0
O857 O 0.36062 0.20069 0.7018 0.0
O858 O 0.34331 0.12868 0.71215 0.0
O859 O 0.33899 0.18611 0.72945 0.0
C860 C 0.32734 0.18522 0.66645 0.0
C861 C 0.36672 0.16014 0.60361 0.0
C862 C 0.36403 0.15804 0.56734 0.0
C863 C 0.3509 0.15441 0.58605 0.0
C864 C 0.39337 0.16779 0.56641 0.0
C865 C 0.39587 0.16939 0.60246 0.0
C866 C 0.40914 0.17332 0.58392 0.0
C867 C 0.30577 0.11113 0.67253 0.0
C868 C 0.35228 0.15672 0.62282 0.0
C869 C 0.47916 0.20823 0.6459 0.0
C870 C 0.47188 0.1809 0.65001 0.0
C871 C 0.36364 0.13869 0.69933 0.0
C872 C 0.32414 0.1664 0.76142 0.0
C873 C 0.33744 0.16797 0.77964 0.0
C874 C 0.32316 0.16511 0.79779 0.0
C875 C 0.29516 0.16029 0.79741 0.0
C876 C 0.29635 0.16192 0.76135 0.0
C877 C 0.2819 0.15871 0.77926 0.0
C878 C 0.38627 0.21244 0.69347 0.0
C879 C 0.33964 0.16946 0.74274 0.0
H880 H 0.32836 0.14735 0.58697 0.0
H881 H 0.40396 0.17059 0.55218 0.0
H882 H 0.40837 0.17354 0.61576 0.0
H883 H 0.43167 0.18052 0.58314 0.0
H884 H 0.35914 0.17202 0.77963 0.0
H885 H 0.28348 0.15764 0.81111 0.0
H886 H 0.28586 0.16106 0.74755 0.0
H887 H 0.2604 0.15512 0.77908 0.0
Tb888 Tb 0.86609 0.17261 0.70223 0.0
C889 C 0.80743 0.215 0.64687 0.0
C890 C 0.75768 0.18054 0.6488 0.0
C891 C 0.77164 0.22847 0.64254 0.0
C892 C 0.78656 0.18807 0.64995 0.0
C893 C 0.80033 0.23548 0.64264 0.0
C894 C 0.75033 0.20101 0.64562 0.0
C895 C 0.85018 0.26745 0.63704 0.0
N896 N 0.83478 0.22074 0.64682 0.0
C897 C 0.8561 0.24633 0.6412 0.0
C898 C 0.8222 0.2621 0.63802 0.0
Tb899 Tb 0.84258 0.18516 0.65468 0.0
N900 N 0.79464 0.16896 0.65263 0.0
C901 C 0.7747 0.14151 0.65272 0.0
C902 C 0.73716 0.1526 0.65011 0.0
C903 C 0.74575 0.13298 0.6517 0.0
H904 H 0.87781 0.25071 0.64054 0.0
H905 H 0.73007 0.11125 0.65228 0.0
H906 H 0.72826 0.1957 0.64492 0.0
H907 H 0.8672 0.28783 0.6331 0.0
H908 H 0.78083 0.126 0.65411 0.0
H909 H 0.97911 0.24465 0.70455 0.0
H910 H 0.71474 0.14594 0.64933 0.0
H911 H 0.82931 0.10723 0.71664 0.0
H912 H 0.9287 0.23093 0.70215 0.0
H913 H 0.83871 0.06977 0.7255 0.0
H914 H 0.76571 0.24394 0.63952 0.0
H915 H 0.99325 0.2093 0.70913 0.0
H916 H 0.97851 0.15946 0.71486 0.0
H917 H 0.81766 0.27845 0.63469 0.0
H918 H 0.94019 0.11172 0.72072 0.0
N919 N 0.91383 0.18784 0.70471 0.0
C920 C 0.93427 0.21512 0.70419 0.0
C921 C 0.97096 0.20308 0.70804 0.0
C922 C 0.94994 0.17536 0.70979 0.0
C923 C 0.96305 0.22308 0.70553 0.0
C924 C 0.92126 0.1684 0.70815 0.0
H925 H 0.88794 0.07815 0.72514 0.0
N926 N 0.87274 0.13654 0.71084 0.0
C927 C 0.85613 0.08989 0.72146 0.0
C928 C 0.89989 0.14172 0.71139 0.0
C929 C 0.85089 0.11123 0.71647 0.0
C930 C 0.88393 0.09468 0.72119 0.0
C931 C 0.9063 0.12098 0.7164 0.0
O932 O 0.84519 0.16113 0.73003 0.0
O933 O 0.83307 0.17424 0.68559 0.0
O934 O 0.84701 0.2171 0.67526 0.0
O935 O 0.87945 0.21663 0.69776 0.0
O936 O 0.82017 0.14445 0.70664 0.0
O937 O 0.88223 0.20108 0.72581 0.0
O938 O 0.86357 0.19775 0.62697 0.0
O939 O 0.87569 0.18354 0.67122 0.0
O940 O 0.86215 0.14065 0.68177 0.0
O941 O 0.83046 0.14136 0.65862 0.0
O942 O 0.88831 0.21354 0.65019 0.0
O943 O 0.8267 0.15751 0.63063 0.0
C944 C 0.81111 0.155 0.69359 0.0
C945 C 0.87445 0.18137 0.75798 0.0
C946 C 0.87529 0.18566 0.79429 0.0
C947 C 0.8651 0.18812 0.77552 0.0
C948 C 0.89478 0.17607 0.79518 0.0
C949 C 0.89405 0.1721 0.75926 0.0
C950 C 0.90408 0.1694 0.77776 0.0
C951 C 0.86627 0.22871 0.68944 0.0
C952 C 0.86353 0.18405 0.73854 0.0
C953 C 0.93479 0.12741 0.71709 0.0
C954 C 0.9566 0.15459 0.71376 0.0
C955 C 0.89749 0.20287 0.66307 0.0
C956 C 0.8345 0.17838 0.59886 0.0
C957 C 0.84544 0.17408 0.58108 0.0
C958 C 0.83542 0.17718 0.56244 0.0
C959 C 0.81446 0.18494 0.56193 0.0
C960 C 0.81349 0.18588 0.59798 0.0
C961 C 0.80361 0.18922 0.5796 0.0
C962 C 0.84391 0.1295 0.66689 0.0
C963 C 0.84537 0.17508 0.61812 0.0
H964 H 0.85025 0.19567 0.77448 0.0
H965 H 0.90266 0.17345 0.80936 0.0
H966 H 0.90164 0.16697 0.74603 0.0
H967 H 0.91909 0.16207 0.7786 0.0
H968 H 0.8614 0.16789 0.58182 0.0
H969 H 0.80661 0.18796 0.54787 0.0
H970 H 0.80469 0.18912 0.61143 0.0
H971 H 0.78747 0.19516 0.57905 0.0
H972 H 0.32067 0.81986 0.05678 0.0
H973 H 0.45038 0.93385 0.0287 0.0
H974 H 0.29356 0.8791 0.06787 0.0
H975 H 0.40997 0.98194 0.03993 0.0
H976 H 0.40581 0.892 0.03549 0.0
H977 H 0.36487 0.85647 0.04279 0.0
C978 C 0.32395 0.84059 0.05612 0.0
C979 C 0.30348 0.84641 0.06383 0.0
C980 C 0.40621 0.91145 0.03628 0.0
C981 C 0.3547 0.88907 0.04815 0.0
C982 C 0.43188 0.93551 0.03221 0.0
C983 C 0.43367 0.96135 0.03327 0.0
C984 C 0.3822 0.91329 0.04185 0.0
C985 C 0.40932 0.96235 0.03869 0.0
C986 C 0.34949 0.86175 0.04826 0.0
C987 C 0.30897 0.87369 0.06259 0.0
N988 N 0.38466 0.93873 0.04276 0.0
N989 N 0.33402 0.89391 0.05508 0.0
H990 H 0.139 0.41417 0.07017 0.0
H991 H 0.08423 0.51491 0.03131 0.0
H992 H 0.19623 0.49953 0.0557 0.0
H993 H 0.03018 0.42758 0.04059 0.0
H994 H 0.12578 0.51017 0.03893 0.0
H995 H 0.09939 0.41883 0.0579 0.0
C996 C 0.14323 0.4339 0.06426 0.0
C997 C 0.17096 0.45655 0.06412 0.0
C998 C 0.10487 0.492 0.03911 0.0
C999 C 0.12543 0.4622 0.05011 0.0
C1000 C 0.08116 0.49468 0.03463 0.0
C1001 C 0.0538 0.47143 0.03476 0.0
C1002 C 0.10111 0.46596 0.04414 0.0
C1003 C 0.05096 0.44592 0.03999 0.0
C1004 C 0.12058 0.43657 0.05724 0.0
C1005 C 0.17521 0.48154 0.05606 0.0
N1006 N 0.07424 0.44386 0.0444 0.0
N1007 N 0.15265 0.48379 0.04957 0.0
H1008 H 0.56222 0.72983 0.0401 0.0
H1009 H 0.55922 0.59004 0.05646 0.0
H1010 H 0.55208 0.69547 0.09941 0.0
H1011 H 0.5083 0.59664 0.00975 0.0
H1012 H 0.56657 0.63351 0.07029 0.0
H1013 H 0.55109 0.68517 0.02626 0.0
C1014 C 0.55741 0.713 0.05027 0.0
C1015 C 0.55841 0.71675 0.07106 0.0
C1016 C 0.55395 0.62537 0.05692 0.0
C1017 C 0.54685 0.66605 0.05516 0.0
C1018 C 0.54981 0.60066 0.04894 0.0
C1019 C 0.53351 0.58981 0.03161 0.0
C1020 C 0.54227 0.63963 0.04728 0.0
C1021 C 0.52166 0.6045 0.02273 0.0
C1022 C 0.55128 0.6876 0.0423 0.0
C1023 C 0.55248 0.69404 0.08333 0.0
N1024 N 0.52654 0.62886 0.03052 0.0
N1025 N 0.54736 0.66981 0.0752 0.0
H1026 H 0.81324 0.30071 0.97041 0.0
H1027 H 0.97891 0.4089 0.98306 0.0
H1028 H 0.87986 0.2837 0.95416 0.0
H1029 H 0.91299 0.42069 0.00902 0.0
H1030 H 0.94265 0.3633 0.97171 0.0
H1031 H 0.84911 0.34473 0.98467 0.0
C1032 C 0.83533 0.30606 0.97001 0.0
C1033 C 0.84352 0.28856 0.96084 0.0
C1034 C 0.93612 0.3758 0.97999 0.0
C1035 C 0.88473 0.3391 0.97686 0.0
C1036 C 0.95684 0.4019 0.98642 0.0
C1037 C 0.94905 0.41864 0.99711 0.0
C1038 C 0.90732 0.36639 0.98409 0.0
C1039 C 0.92005 0.40841 1.00102 0.0
C1040 C 0.85583 0.33128 0.97805 0.0
C1041 C 0.87255 0.29675 0.96065 0.0
N1042 N 0.90026 0.38302 0.99445 0.0
N1043 N 0.89205 0.32144 0.96838 0.0
H1044 H 0.73235 0.59522 0.95632 0.0
H1045 H 0.57519 0.49694 0.99817 0.0
H1046 H 0.70282 0.51136 0.97479 0.0
H1047 H 0.61157 0.58436 0.989 0.0
H1048 H 0.62149 0.50137 0.99063 0.0
H1049 H 0.68831 0.5914 0.96886 0.0
C1050 C 0.71659 0.57598 0.96307 0.0
C1051 C 0.72126 0.55351 0.96434 0.0
C1052 C 0.61945 0.51965 0.99051 0.0
C1053 C 0.67042 0.54891 0.97878 0.0
C1054 C 0.59303 0.51715 0.99498 0.0
C1055 C 0.5897 0.54046 0.99471 0.0
C1056 C 0.64253 0.54555 0.98525 0.0
C1057 C 0.61334 0.56594 0.98965 0.0
C1058 C 0.69143 0.57383 0.97031 0.0
C1059 C 0.70018 0.52923 0.97354 0.0
N1060 N 0.63864 0.5678 0.9851 0.0
N1061 N 0.67558 0.52747 0.98022 0.0
H1062 H 0.50786 0.19935 0.96718 0.0
H1063 H 0.4474 0.03919 0.98501 0.0
H1064 H 0.41994 0.13795 0.9579 0.0
H1065 H 0.52439 0.10144 0.01292 0.0
H1066 H 0.43827 0.07527 0.97316 0.0
H1067 H 0.51555 0.16405 0.98271 0.0
C1068 C 0.49009 0.17857 0.96857 0.0
C1069 C 0.46325 0.17162 0.96101 0.0
C1070 C 0.45706 0.08101 0.982 0.0
C1071 C 0.47211 0.13106 0.97842 0.0
C1072 C 0.46234 0.06043 0.98871 0.0
C1073 C 0.48669 0.0673 0.99997 0.0
C1074 C 0.47646 0.10873 0.98631 0.0
C1075 C 0.50527 0.0952 0.00435 0.0
C1076 C 0.49456 0.15841 0.97736 0.0
C1077 C 0.44116 0.1442 0.96305 0.0
N1078 N 0.49989 0.11494 0.99737 0.0
N1079 N 0.44614 0.12491 0.97139 0.0
H1080 H 0.69483 0.12813 0.93659 0.0
H1081 H 0.56294 0.0796 0.00466 0.0
H1082 H 0.70111 0.18348 0.98348 0.0
H1083 H 0.5953 0.02523 0.99066 0.0
H1084 H 0.60918 0.11924 0.99514 0.0
H1085 H 0.65324 0.09079 0.95318 0.0
C1086 C 0.68742 0.13234 0.95044 0.0
C1087 C 0.70141 0.15875 0.95877 0.0
C1088 C 0.60623 0.09864 0.99462 0.0
C1089 C 0.65353 0.11637 0.97756 0.0
C1090 C 0.57997 0.07606 1.00015 0.0
C1091 C 0.57555 0.04916 0.9988 0.0
C1092 C 0.62754 0.09399 0.98696 0.0
C1093 C 0.59798 0.04567 0.99208 0.0
C1094 C 0.66382 0.11106 0.95992 0.0
C1095 C 0.69095 0.16324 0.97672 0.0
N1096 N 0.62283 0.06775 0.98612 0.0
N1097 N 0.66725 0.14227 0.98544 0.0
H1098 H 0.82801 0.48207 0.95272 0.0
H1099 H 0.98585 0.56461 0.9914 0.0
H1100 H 0.85878 0.56037 0.98193 0.0
H1101 H 0.93744 0.47595 0.99471 0.0
H1102 H 0.94185 0.56527 0.9839 0.0
H1103 H 0.8701 0.48074 0.96427 0.0
C1104 C 0.84356 0.49888 0.96172 0.0
C1105 C 0.83985 0.52125 0.9665 0.0
C1106 C 0.94088 0.54572 0.98653 0.0
C1107 C 0.88843 0.52026 0.97926 0.0
C1108 C 0.96591 0.54533 0.99073 0.0
C1109 C 0.96512 0.52025 0.99432 0.0
C1110 C 0.91508 0.52077 0.98508 0.0
C1111 C 0.9389 0.49578 0.99275 0.0
C1112 C 0.86752 0.49809 0.96831 0.0
C1113 C 0.86072 0.54261 0.97809 0.0
N1114 N 0.91497 0.49663 0.98813 0.0
N1115 N 0.88437 0.5418 0.98385 0.0
H1116 H 0.50036 0.30809 0.98043 0.0
H1117 H 0.47366 0.4348 0.96875 0.0
H1118 H 0.47719 0.32915 0.92433 0.0
H1119 H 0.5329 0.43471 0.01156 0.0
H1120 H 0.46783 0.39193 0.95483 0.0
H1121 H 0.50567 0.35069 0.99484 0.0
C1122 C 0.49638 0.32168 0.97118 0.0
C1123 C 0.48836 0.31526 0.95118 0.0
C1124 C 0.48197 0.40131 0.96736 0.0
C1125 C 0.49395 0.36348 0.96756 0.0
C1126 C 0.48526 0.42573 0.97536 0.0
C1127 C 0.50354 0.43829 0.99157 0.0
C1128 C 0.49674 0.38918 0.97577 0.0
C1129 C 0.51812 0.42556 0.99939 0.0
C1130 C 0.49947 0.34594 0.97937 0.0
C1131 C 0.48351 0.33352 0.9398 0.0
N1132 N 0.51428 0.40162 0.9915 0.0
N1133 N 0.48618 0.35675 0.94819 0.0
H1134 H 0.19992 0.70827 0.04141 0.0
H1135 H 0.0443 0.57889 0.05412 0.0
H1136 H 0.15465 0.68776 0.09742 0.0
H1137 H 0.10586 0.57739 0.0141 0.0
H1138 H 0.08132 0.62348 0.06671 0.0
H1139 H 0.16211 0.66467 0.02744 0.0
C1140 C 0.18198 0.69467 0.0507 0.0
C1141 C 0.18032 0.70146 0.07059 0.0
C1142 C 0.08655 0.61339 0.05504 0.0
C1143 C 0.13709 0.65216 0.05472 0.0
C1144 C 0.06544 0.58796 0.0478 0.0
C1145 C 0.07177 0.57439 0.03277 0.0
C1146 C 0.11408 0.62558 0.047 0.0
C1147 C 0.09971 0.58725 0.0253 0.0
C1148 C 0.16053 0.66984 0.04277 0.0
C1149 C 0.1567 0.68313 0.08203 0.0
N1150 N 0.11978 0.61217 0.0324 0.0
N1151 N 0.13591 0.6594 0.07391 0.0
H1152 H 0.34982 0.52078 0.07951 0.0
H1153 H 0.42186 0.44392 0.03064 0.0
H1154 H 0.29915 0.4471 0.04533 0.0
H1155 H 0.46422 0.53266 0.02985 0.0
H1156 H 0.37722 0.44254 0.0395 0.0
H1157 H 0.39295 0.52398 0.06509 0.0
C1158 C 0.34781 0.50539 0.06885 0.0
C1159 C 0.32093 0.48375 0.06351 0.0
C1160 C 0.39622 0.46228 0.0371 0.0
C1161 C 0.37013 0.48684 0.04741 0.0
C1162 C 0.42164 0.46308 0.0321 0.0
C1163 C 0.4466 0.48841 0.02908 0.0
C1164 C 0.39603 0.48702 0.03996 0.0
C1165 C 0.44536 0.51269 0.03156 0.0
C1166 C 0.37238 0.50728 0.0606 0.0
C1167 C 0.31948 0.46424 0.0497 0.0
N1168 N 0.42058 0.51142 0.0371 0.0
N1169 N 0.34377 0.46599 0.04236 0.0
H1170 H 0.60925 0.89239 0.07202 0.0
H1171 H 0.49141 0.91282 0.01545 0.0
H1172 H 0.53182 0.82422 0.0493 0.0
H1173 H 0.56209 0.97684 0.04792 0.0
H1174 H 0.50713 0.88032 0.02515 0.0
H1175 H 0.59369 0.92409 0.06053 0.0
C1176 C 0.58897 0.88415 0.06454 0.0
C1177 C 0.57177 0.85574 0.06166 0.0
C1178 C 0.51916 0.90151 0.03009 0.0
C1179 C 0.5537 0.8918 0.04846 0.0
C1180 C 0.5103 0.92011 0.02449 0.0
C1181 C 0.52556 0.94768 0.03076 0.0
C1182 C 0.54348 0.91064 0.04197 0.0
C1183 C 0.54962 0.95585 0.0427 0.0
C1184 C 0.58005 0.90221 0.05802 0.0
C1185 C 0.5457 0.84603 0.05187 0.0
N1186 N 0.55783 0.93745 0.04785 0.0
N1187 N 0.53741 0.86408 0.04561 0.0
H1188 H 0.98327 0.15677 0.38611 0.0
H1189 H 0.07424 0.3202 0.36833 0.0
H1190 H 0.95481 0.214 0.40097 0.0
H1191 H 0.10967 0.26684 0.36191 0.0
H1192 H 0.02791 0.27997 0.37546 0.0
H1193 H 0.02733 0.19528 0.37245 0.0
C1194 C 0.9862 0.17737 0.38635 0.0
C1195 C 0.96554 0.18226 0.39494 0.0
C1196 C 0.04569 0.27692 0.37225 0.0
C1197 C 0.01568 0.22626 0.37937 0.0
C1198 C 0.07207 0.29988 0.36812 0.0
C1199 C 0.09559 0.29674 0.36416 0.0
C1200 C 0.04284 0.25056 0.37283 0.0
C1201 C 0.09189 0.27006 0.36441 0.0
C1202 C 0.01135 0.19933 0.37863 0.0
C1203 C 0.9704 0.20936 0.39486 0.0
N1204 N 0.06598 0.24795 0.36875 0.0
N1205 N 0.99494 0.23027 0.38729 0.0
H1206 H 0.80715 0.74798 0.40766 0.0
H1207 H 0.75041 0.84642 0.36734 0.0
H1208 H 0.86365 0.83191 0.38925 0.0
H1209 H 0.69704 0.75918 0.37743 0.0
H1210 H 0.79229 0.84216 0.37483 0.0
H1211 H 0.76684 0.75202 0.3961 0.0
C1212 C 0.81107 0.76728 0.4011 0.0
C1213 C 0.83883 0.78971 0.39958 0.0
C1214 C 0.77145 0.8239 0.3752 0.0
C1215 C 0.79252 0.79461 0.38632 0.0
C1216 C 0.74756 0.8263 0.37079 0.0
C1217 C 0.7203 0.80293 0.37115 0.0
C1218 C 0.76796 0.79804 0.38046 0.0
C1219 C 0.71774 0.77759 0.37661 0.0
C1220 C 0.78802 0.76957 0.39444 0.0
C1221 C 0.84262 0.81408 0.39067 0.0
N1222 N 0.74119 0.77581 0.38099 0.0
N1223 N 0.81972 0.81599 0.38456 0.0
H1224 H 0.21721 0.06042 0.37574 0.0
H1225 H 0.23007 0.92696 0.38825 0.0
H1226 H 0.21958 0.02804 0.43387 0.0
H1227 H 0.17458 0.93001 0.34355 0.0
H1228 H 0.23598 0.96973 0.40239 0.0
H1229 H 0.2098 0.01739 0.36077 0.0
C1230 C 0.216 0.04435 0.3854 0.0
C1231 C 0.21944 0.04819 0.40614 0.0
C1232 C 0.22271 0.96103 0.38937 0.0
C1233 C 0.21197 0.99952 0.38898 0.0
C1234 C 0.21937 0.93668 0.38123 0.0
C1235 C 0.20207 0.92495 0.36445 0.0
C1236 C 0.20911 0.97401 0.38047 0.0
C1237 C 0.18864 0.93854 0.35614 0.0
C1238 C 0.21197 0.01992 0.3768 0.0
C1239 C 0.218 0.02658 0.41779 0.0
N1240 N 0.1926 0.96249 0.36414 0.0
N1241 N 0.21474 0.00336 0.40903 0.0
H1242 H 0.52599 0.64132 0.26448 0.0
H1243 H 0.58245 0.74182 0.35462 0.0
H1244 H 0.50209 0.60827 0.32427 0.0
H1245 H 0.64079 0.74739 0.30861 0.0
H1246 H 0.54732 0.69662 0.34196 0.0
H1247 H 0.56314 0.68439 0.27849 0.0
C1248 C 0.52856 0.64277 0.28051 0.0
C1249 C 0.51075 0.62056 0.2931 0.0
C1250 C 0.56795 0.70772 0.33482 0.0
C1251 C 0.55267 0.67072 0.30914 0.0
C1252 C 0.58815 0.73347 0.34211 0.0
C1253 C 0.61502 0.74832 0.33305 0.0
C1254 C 0.57422 0.69715 0.31787 0.0
C1255 C 0.62055 0.73668 0.31626 0.0
C1256 C 0.54973 0.66757 0.28844 0.0
C1257 C 0.51477 0.62465 0.31384 0.0
N1258 N 0.60019 0.71192 0.30907 0.0
N1259 N 0.53512 0.64931 0.3212 0.0
H1260 H 0.37061 0.84293 0.30806 0.0
H1261 H 0.27999 0.91947 0.32197 0.0
H1262 H 0.39863 0.92622 0.28884 0.0
H1263 H 0.24429 0.83211 0.33098 0.0
H1264 H 0.3258 0.92334 0.31404 0.0
H1265 H 0.32661 0.83968 0.32086 0.0
C1266 C 0.36766 0.86062 0.3067 0.0
C1267 C 0.38831 0.88481 0.29717 0.0
C1268 C 0.30807 0.90332 0.31796 0.0
C1269 C 0.33794 0.88119 0.31174 0.0
C1270 C 0.28195 0.90114 0.32254 0.0
C1271 C 0.25846 0.87556 0.32756 0.0
C1272 C 0.3108 0.87964 0.31808 0.0
C1273 C 0.262 0.85235 0.32771 0.0
C1274 C 0.34246 0.85868 0.3139 0.0
C1275 C 0.38318 0.907 0.29575 0.0
N1276 N 0.28768 0.85494 0.32305 0.0
N1277 N 0.3586 0.90463 0.30288 0.0
H1278 H 0.17254 0.53259 0.29908 0.0
H1279 H 0.11268 0.37186 0.31471 0.0
H1280 H 0.08542 0.4709 0.28738 0.0
H1281 H 0.18815 0.43389 0.34427 0.0
H1282 H 0.10392 0.40804 0.30242 0.0
H1283 H 0.18008 0.49693 0.31413 0.0
C1284 C 0.15491 0.51165 0.29983 0.0
C1285 C 0.12834 0.50478 0.29177 0.0
C1286 C 0.1223 0.4137 0.3117 0.0
C1287 C 0.13706 0.46379 0.30861 0.0
C1288 C 0.12738 0.39306 0.31866 0.0
C1289 C 0.15114 0.39984 0.33058 0.0
C1290 C 0.14133 0.44136 0.31644 0.0
C1291 C 0.16944 0.4277 0.33525 0.0
C1292 C 0.15929 0.49128 0.30833 0.0
C1293 C 0.10645 0.47714 0.29295 0.0
N1294 N 0.16425 0.44748 0.32805 0.0
N1295 N 0.11136 0.45767 0.30105 0.0
H1296 H 0.38744 0.48504 0.31642 0.0
H1297 H 0.22003 0.40953 0.33229 0.0
H1298 H 0.33404 0.50791 0.28375 0.0
H1299 H 0.26417 0.36352 0.33068 0.0
H1300 H 0.26442 0.45151 0.324 0.0
H1301 H 0.34462 0.44573 0.3309 0.0
C1302 C 0.36674 0.48201 0.31254 0.0
C1303 C 0.36411 0.49961 0.29887 0.0
C1304 C 0.26442 0.43228 0.3258 0.0
C1305 C 0.31552 0.45531 0.31552 0.0
C1306 C 0.23918 0.40837 0.33074 0.0
C1307 C 0.23859 0.38313 0.33259 0.0
C1308 C 0.28925 0.43095 0.32278 0.0
C1309 C 0.26391 0.38269 0.32959 0.0
C1310 C 0.34243 0.45959 0.32071 0.0
C1311 C 0.33686 0.4947 0.29419 0.0
N1312 N 0.28834 0.40631 0.32493 0.0
N1313 N 0.31358 0.47307 0.30258 0.0
H1314 H 0.4946 0.81309 0.28586 0.0
H1315 H 0.65133 0.89372 0.3257 0.0
H1316 H 0.52541 0.89117 0.31541 0.0
H1317 H 0.6019 0.80532 0.33131 0.0
H1318 H 0.60773 0.89472 0.3176 0.0
H1319 H 0.53583 0.81083 0.29836 0.0
C1320 C 0.50996 0.82964 0.29513 0.0
C1321 C 0.50654 0.85224 0.29973 0.0
C1322 C 0.60643 0.87517 0.32083 0.0
C1323 C 0.5541 0.85019 0.31354 0.0
C1324 C 0.63124 0.87457 0.32536 0.0
C1325 C 0.63006 0.84949 0.32967 0.0
C1326 C 0.58043 0.85037 0.31978 0.0
C1327 C 0.60363 0.82515 0.32862 0.0
C1328 C 0.5334 0.82831 0.30227 0.0
C1329 C 0.52714 0.87325 0.31169 0.0
N1330 N 0.57988 0.82617 0.32361 0.0
N1331 N 0.55031 0.87194 0.31794 0.0
H1332 H 0.165 0.64083 0.31382 0.0
H1333 H 0.14176 0.76971 0.30267 0.0
H1334 H 0.14346 0.66377 0.25785 0.0
H1335 H 0.20041 0.76858 0.34552 0.0
H1336 H 0.13503 0.72653 0.28885 0.0
H1337 H 0.17124 0.68365 0.32861 0.0
C1338 C 0.16155 0.65486 0.30469 0.0
C1339 C 0.15372 0.64891 0.28461 0.0
C1340 C 0.14924 0.73573 0.30137 0.0
C1341 C 0.16036 0.69736 0.3014 0.0
C1342 C 0.15306 0.76035 0.30932 0.0
C1343 C 0.17148 0.77276 0.32548 0.0
C1344 C 0.16362 0.72319 0.30977 0.0
C1345 C 0.18559 0.75958 0.33336 0.0
C1346 C 0.16518 0.67924 0.31309 0.0
C1347 C 0.14959 0.66775 0.27338 0.0
N1348 N 0.18126 0.73543 0.3255 0.0
N1349 N 0.15275 0.69105 0.28196 0.0
H1350 H 0.86367 0.03903 0.37791 0.0
H1351 H 0.7025 0.91446 0.3797 0.0
H1352 H 0.7923 0.04655 0.39771 0.0
H1353 H 0.77148 0.90701 0.35443 0.0
H1354 H 0.73586 0.96249 0.38763 0.0
H1355 H 0.83097 0.99036 0.36996 0.0
C1356 C 0.84114 0.03046 0.38052 0.0
C1357 C 0.83058 0.04676 0.38844 0.0
C1358 C 0.74374 0.9504 0.38031 0.0
C1359 C 0.79321 0.99128 0.37957 0.0
C1360 C 0.72467 0.92288 0.37583 0.0
C1361 C 0.7341 0.9067 0.36618 0.0
C1362 C 0.77258 0.9619 0.37522 0.0
C1363 C 0.76316 0.91882 0.36159 0.0
C1364 C 0.8225 0.0027 0.37601 0.0
C1365 C 0.80125 0.03465 0.39159 0.0
N1366 N 0.78136 0.9457 0.36612 0.0
N1367 N 0.78363 0.00769 0.38719 0.0
H1368 H 0.01838 0.85865 0.40904 0.0
H1369 H 0.09118 0.77926 0.36476 0.0
H1370 H 0.9681 0.78159 0.37844 0.0
H1371 H 0.13328 0.86796 0.36271 0.0
H1372 H 0.04637 0.77795 0.37293 0.0
H1373 H 0.06158 0.86127 0.39537 0.0
C1374 C 0.01647 0.8424 0.39929 0.0
C1375 C 0.98968 0.81997 0.39476 0.0
C1376 C 0.06535 0.79766 0.37039 0.0
C1377 C 0.03899 0.82244 0.37952 0.0
C1378 C 0.09087 0.79842 0.3658 0.0
C1379 C 0.1158 0.82371 0.36258 0.0
C1380 C 0.06503 0.82244 0.37262 0.0
C1381 C 0.11445 0.84801 0.36453 0.0
C1382 C 0.04108 0.84394 0.39147 0.0
C1383 C 0.98836 0.79936 0.38215 0.0
N1384 N 0.08957 0.84678 0.36963 0.0
N1385 N 0.01271 0.80086 0.37521 0.0
H1386 H 0.18706 0.15096 0.38242 0.0
H1387 H 0.21218 0.30325 0.39086 0.0
H1388 H 0.21079 0.19719 0.43727 0.0
H1389 H 0.15314 0.24493 0.34842 0.0
H1390 H 0.21848 0.26666 0.40522 0.0
H1391 H 0.18067 0.1873 0.36687 0.0
C1392 C 0.19093 0.16875 0.39116 0.0
C1393 C 0.19948 0.17122 0.41114 0.0
C1394 C 0.20425 0.26194 0.39269 0.0
C1395 C 0.19264 0.21272 0.39346 0.0
C1396 C 0.20066 0.28284 0.38441 0.0
C1397 C 0.18222 0.27729 0.36824 0.0
C1398 C 0.1896 0.23532 0.38463 0.0
C1399 C 0.16791 0.25033 0.36063 0.0
C1400 C 0.18722 0.18938 0.38231 0.0
C1401 C 0.20413 0.19458 0.42183 0.0
N1402 N 0.17199 0.23034 0.36883 0.0
N1403 N 0.20087 0.21455 0.41283 0.0
H1404 H 0.62052 0.54644 0.73182 0.0
H1405 H 0.77953 0.59994 0.69453 0.0
H1406 H 0.65524 0.49269 0.72337 0.0
H1407 H 0.74406 0.65279 0.70377 0.0
H1408 H 0.73307 0.55977 0.70146 0.0
H1409 H 0.66408 0.58469 0.71814 0.0
C1410 C 0.63731 0.54266 0.727 0.0
C1411 C 0.63435 0.51637 0.729 0.0
C1412 C 0.7353 0.5801 0.70172 0.0
C1413 C 0.68451 0.56025 0.71325 0.0
C1414 C 0.76184 0.60307 0.69756 0.0
C1415 C 0.7655 0.62972 0.69807 0.0
C1416 C 0.71236 0.58384 0.70682 0.0
C1417 C 0.74201 0.63255 0.70295 0.0
C1418 C 0.66219 0.56452 0.71912 0.0
C1419 C 0.6566 0.5126 0.7221 0.0
N1420 N 0.71648 0.60994 0.70715 0.0
N1421 N 0.68086 0.53436 0.71474 0.0
H1422 H 0.47513 0.08126 0.741 0.0
H1423 H 0.42003 0.17996 0.69854 0.0
H1424 H 0.5324 0.16446 0.72147 0.0
H1425 H 0.36588 0.09298 0.70923 0.0
H1426 H 0.46157 0.17531 0.70634 0.0
H1427 H 0.43514 0.08547 0.72889 0.0
C1428 C 0.47929 0.10042 0.73406 0.0
C1429 C 0.50718 0.12261 0.73239 0.0
C1430 C 0.44063 0.15718 0.70678 0.0
C1431 C 0.46122 0.12772 0.71852 0.0
C1432 C 0.41691 0.15981 0.70219 0.0
C1433 C 0.38951 0.13663 0.70267 0.0
C1434 C 0.43685 0.13131 0.71234 0.0
C1435 C 0.38667 0.11125 0.70835 0.0
C1436 C 0.45642 0.10281 0.7271 0.0
C1437 C 0.51127 0.14682 0.72302 0.0
N1438 N 0.40996 0.10927 0.71292 0.0
N1439 N 0.48854 0.14885 0.71662 0.0
H1440 H 0.86071 0.37577 0.7202 0.0
H1441 H 0.91252 0.26543 0.71104 0.0
H1442 H 0.94324 0.39135 0.73928 0.0
H1443 H 0.83629 0.25535 0.6833 0.0
H1444 H 0.9238 0.3114 0.72196 0.0
H1445 H 0.85141 0.33171 0.70633 0.0
C1446 C 0.87703 0.37011 0.72125 0.0
C1447 C 0.90272 0.38722 0.73106 0.0
C1448 C 0.90469 0.29919 0.71337 0.0
C1449 C 0.89199 0.33657 0.71555 0.0
C1450 C 0.89818 0.27288 0.7072 0.0
C1451 C 0.87351 0.25657 0.69614 0.0
C1452 C 0.88626 0.30915 0.70861 0.0
C1453 C 0.85572 0.26733 0.69159 0.0
C1454 C 0.87162 0.34485 0.71345 0.0
C1455 C 0.92291 0.37859 0.7322 0.0
N1456 N 0.8624 0.2929 0.6979 0.0
N1457 N 0.91704 0.35381 0.72467 0.0
H1458 H 0.18373 0.97955 0.59771 0.0
H1459 H 0.26778 0.06566 0.69383 0.0
H1460 H 0.17126 0.94351 0.65647 0.0
H1461 H 0.29387 0.09464 0.63373 0.0
H1462 H 0.2295 0.02225 0.68084 0.0
H1463 H 0.22105 0.02326 0.61103 0.0
C1464 C 0.18881 0.98075 0.61342 0.0
C1465 C 0.17437 0.95756 0.62592 0.0
C1466 C 0.24356 0.03808 0.67047 0.0
C1467 C 0.21703 0.00793 0.64133 0.0
C1468 C 0.26527 0.06302 0.67792 0.0
C1469 C 0.28377 0.08398 0.6649 0.0
C1470 C 0.24016 0.03409 0.64977 0.0
C1471 C 0.28013 0.07898 0.64432 0.0
C1472 C 0.21012 0.00579 0.62101 0.0
C1473 C 0.18153 0.96076 0.64626 0.0
N1474 N 0.25863 0.05463 0.63738 0.0
N1475 N 0.20236 0.98541 0.6533 0.0
H1476 H 0.06875 0.26053 0.62294 0.0
H1477 H 0.91116 0.16142 0.66385 0.0
H1478 H 0.03892 0.17622 0.64028 0.0
H1479 H 0.94733 0.24883 0.65472 0.0
H1480 H 0.95754 0.166 0.65634 0.0
H1481 H 0.02457 0.25645 0.6354 0.0
C1482 C 0.05289 0.24114 0.62944 0.0
C1483 C 0.0575 0.21862 0.6304 0.0
C1484 C 0.95543 0.18423 0.65621 0.0
C1485 C 1.00649 0.21369 0.64472 0.0
C1486 C 0.92897 0.18165 0.66065 0.0
C1487 C 0.92559 0.20493 0.66043 0.0
C1488 C 0.9785 0.21019 0.65104 0.0
C1489 C 0.94916 0.23044 0.65536 0.0
C1490 C 0.02765 0.23883 0.63663 0.0
C1491 C 0.03631 0.19413 0.63928 0.0
N1492 N 0.97451 0.23238 0.65087 0.0
N1493 N 0.01162 0.19221 0.64591 0.0
H1494 H 0.80176 0.81821 0.59307 0.0
H1495 H 0.8549 0.76642 0.68432 0.0
H1496 H 0.81317 0.856 0.65101 0.0
H1497 H 0.79772 0.71125 0.63964 0.0
H1498 H 0.84844 0.80349 0.6705 0.0
H1499 H 0.80969 0.78292 0.60794 0.0
C1500 C 0.80576 0.81909 0.60894 0.0
C1501 C 0.80619 0.83995 0.62084 0.0
C1502 C 0.83726 0.78316 0.66388 0.0
C1503 C 0.81626 0.79992 0.63778 0.0
C1504 C 0.84076 0.76194 0.67181 0.0
C1505 C 0.82648 0.73546 0.66339 0.0
C1506 C 0.82002 0.77802 0.64708 0.0
C1507 C 0.80909 0.7312 0.64676 0.0
C1508 C 0.81045 0.79898 0.61736 0.0
C1509 C 0.81269 0.84045 0.6412 0.0
N1510 N 0.80653 0.75229 0.63908 0.0
N1511 N 0.81748 0.8207 0.64905 0.0
H1512 H 0.03276 0.8453 0.64663 0.0
H1513 H 0.92745 0.68293 0.66196 0.0
H1514 H 0.05494 0.78244 0.63596 0.0
H1515 H 0.89986 0.74249 0.66867 0.0
H1516 H 0.97578 0.72039 0.65598 0.0
H1517 H 0.98548 0.80936 0.65811 0.0
C1518 C 0.02776 0.824 0.64685 0.0
C1519 C 0.04771 0.81675 0.64027 0.0
C1520 C 0.95933 0.72544 0.65896 0.0
C1521 C 0.9939 0.77571 0.65331 0.0
C1522 C 0.93176 0.70403 0.66243 0.0
C1523 C 0.90985 0.7097 0.66619 0.0
C1524 C 0.96508 0.75287 0.6588 0.0
C1525 C 0.91635 0.73733 0.66629 0.0
C1526 C 1.00079 0.80351 0.65337 0.0
C1527 C 0.04015 0.78889 0.64084 0.0
N1528 N 0.94343 0.75796 0.66258 0.0
N1529 N 0.01392 0.76946 0.64716 0.0
H1530 H 0.16507 0.14818 0.61808 0.0
H1531 H 0.32174 0.22984 0.65831 0.0
H1532 H 0.19517 0.22601 0.64786 0.0
H1533 H 0.27292 0.14137 0.66361 0.0
H1534 H 0.27801 0.23046 0.64991 0.0
H1535 H 0.20664 0.14638 0.63042 0.0
C1536 C 0.18036 0.16478 0.62736 0.0
C1537 C 0.17662 0.18717 0.63208 0.0
C1538 C 0.27688 0.21096 0.65311 0.0
C1539 C 0.22457 0.18565 0.6457 0.0
C1540 C 0.30176 0.21059 0.6578 0.0
C1541 C 0.30078 0.1856 0.66218 0.0
C1542 C 0.25102 0.18605 0.65193 0.0
C1543 C 0.27449 0.16113 0.66088 0.0
C1544 C 0.20399 0.16371 0.6344 0.0
C1545 C 0.19713 0.20825 0.64404 0.0
N1546 N 0.25067 0.16194 0.65573 0.0
N1547 N 0.22048 0.20719 0.6502 0.0
H1548 H 0.84001 0.9751 0.64389 0.0
H1549 H 0.80871 0.09952 0.63621 0.0
H1550 H 0.81261 0.99584 0.58948 0.0
H1551 H 0.86913 0.09958 0.67799 0.0
H1552 H 0.8033 0.0572 0.6216 0.0
H1553 H 0.84453 0.0168 0.65941 0.0
C1554 C 0.83495 0.98843 0.63524 0.0
C1555 C 0.82596 0.98217 0.61539 0.0
C1556 C 0.8176 0.06647 0.63406 0.0
C1557 C 0.83065 0.02938 0.63305 0.0
C1558 C 0.82066 0.09058 0.64247 0.0
C1559 C 0.83922 0.10309 0.65854 0.0
C1560 C 0.83294 0.05457 0.64191 0.0
C1561 C 0.85419 0.0905 0.66591 0.0
C1562 C 0.83757 0.01218 0.64407 0.0
C1563 C 0.81971 1.00009 0.60481 0.0
N1564 N 0.85064 0.06688 0.65759 0.0
N1565 N 0.82198 0.02281 0.61381 0.0
H1566 H 0.53499 0.37563 0.70728 0.0
H1567 H 0.381 0.24475 0.72206 0.0
H1568 H 0.49156 0.35493 0.764 0.0
H1569 H 0.44221 0.24294 0.68185 0.0
H1570 H 0.41794 0.28974 0.73408 0.0
H1571 H 0.49751 0.33132 0.6939 0.0
C1572 C 0.51752 0.36184 0.71685 0.0
C1573 C 0.51628 0.3688 0.73676 0.0
C1574 C 0.42312 0.2795 0.72249 0.0
C1575 C 0.47343 0.31869 0.72157 0.0
C1576 C 0.40206 0.25382 0.71558 0.0
C1577 C 0.40828 0.24006 0.70063 0.0
C1578 C 0.45052 0.29177 0.71421 0.0
C1579 C 0.43612 0.25295 0.69297 0.0
C1580 C 0.49627 0.33661 0.70926 0.0
C1581 C 0.49328 0.35021 0.74858 0.0
N1582 N 0.45615 0.27815 0.69973 0.0
N1583 N 0.47265 0.32611 0.74078 0.0
H1584 H 0.68636 0.18972 0.74279 0.0
H1585 H 0.75894 0.10983 0.69877 0.0
H1586 H 0.63594 0.11249 0.71245 0.0
H1587 H 0.80129 0.19854 0.69689 0.0
H1588 H 0.71416 0.10864 0.70689 0.0
H1589 H 0.72951 0.19214 0.72922 0.0
C1590 C 0.6844 0.17338 0.73312 0.0
C1591 C 0.65757 0.15097 0.72864 0.0
C1592 C 0.73319 0.12832 0.70439 0.0
C1593 C 0.70688 0.15321 0.71352 0.0
C1594 C 0.7587 0.12902 0.69982 0.0
C1595 C 0.78369 0.15428 0.69664 0.0
C1596 C 0.73292 0.15313 0.70665 0.0
C1597 C 0.78241 0.1786 0.69864 0.0
C1598 C 0.709 0.1748 0.72536 0.0
C1599 C 0.65622 0.13025 0.71613 0.0
N1600 N 0.75754 0.17744 0.70372 0.0
N1601 N 0.68056 0.13164 0.70924 0.0
H1602 H 0.91375 0.52336 0.71923 0.0
H1603 H 0.80747 0.57481 0.69157 0.0
H1604 H 0.83212 0.48753 0.74839 0.0
H1605 H 0.8941 0.63411 0.70658 0.0
H1606 H 0.81533 0.53775 0.70371 0.0
H1607 H 0.90604 0.56002 0.70574 0.0
C1608 C 0.89412 0.52311 0.7226 0.0
C1609 C 0.87345 0.50254 0.73486 0.0
C1610 C 0.83254 0.55892 0.70426 0.0
C1611 C 0.86442 0.54366 0.71929 0.0
C1612 C 0.82816 0.58 0.69732 0.0
C1613 C 0.85013 0.60752 0.69831 0.0
C1614 C 0.85928 0.56541 0.7116 0.0
C1615 C 0.87656 0.61315 0.70581 0.0
C1616 C 0.88984 0.54399 0.71502 0.0
C1617 C 0.8485 0.50315 0.73899 0.0
N1618 N 0.88052 0.5922 0.71204 0.0
N1619 N 0.84448 0.52328 0.73102 0.0
H1620 H 0.41631 0.89691 0.2265 0.0
H1621 H 0.55168 0.00799 0.16423 0.0
H1622 H 0.50248 0.93605 0.2481 0.0
H1623 H 0.46626 0.96912 0.14127 0.0
H1624 H 0.53382 0.98029 0.19451 0.0
H1625 H 0.43387 0.92176 0.19485 0.0
C1626 C 0.43891 0.91072 0.22463 0.0
C1627 C 0.4579 0.91434 0.24009 0.0
C1628 C 0.51893 0.9777 0.18286 0.0
C1629 C 0.47818 0.94277 0.20375 0.0
C1630 C 0.52912 0.99364 0.16556 0.0
C1631 C 0.51044 0.99112 0.15019 0.0
C1632 C 0.48973 0.95901 0.18499 0.0
C1633 C 0.48148 0.97169 0.15266 0.0
C1634 C 0.44893 0.92479 0.20649 0.0
C1635 C 0.48701 0.93225 0.2366 0.0
N1636 N 0.47199 0.95653 0.16977 0.0
N1637 N 0.49618 0.9458 0.2189 0.0
H1638 H 0.10117 0.50764 0.22256 0.0
H1639 H 0.98561 0.52812 0.16283 0.0
H1640 H 0.0606 0.55117 0.24597 0.0
H1641 H 0.02375 0.48207 0.13993 0.0
H1642 H 0.01184 0.53546 0.19384 0.0
H1643 H 0.07192 0.49669 0.19261 0.0
C1644 C 0.08594 0.51469 0.22147 0.0
C1645 C 0.08341 0.53045 0.23674 0.0
C1646 C 0.01442 0.52368 0.18206 0.0
C1647 C 0.0501 0.51827 0.20244 0.0
C1648 C 0.99931 0.51933 0.16438 0.0
C1649 C 1.00251 0.50449 0.14872 0.0
C1650 C 0.03294 0.51314 0.18413 0.0
C1651 C 0.02094 0.49398 0.15149 0.0
C1652 C 0.06936 0.50857 0.20432 0.0
C1653 C 0.06357 0.53934 0.23442 0.0
N1654 N 0.03549 0.49855 0.16883 0.0
N1655 N 0.04775 0.53319 0.21758 0.0
H1656 H 0.49159 0.59266 0.22353 0.0
H1657 H 0.50748 0.4796 0.16139 0.0
H1658 H 0.46152 0.50992 0.24501 0.0
H1659 H 0.52173 0.55642 0.13609 0.0
H1660 H 0.49055 0.49017 0.19214 0.0
H1661 H 0.50268 0.57972 0.19136 0.0
C1662 C 0.48725 0.57172 0.22142 0.0
C1663 C 0.47579 0.55237 0.23698 0.0
C1664 C 0.49718 0.50463 0.17981 0.0
C1665 C 0.48848 0.5374 0.20021 0.0
C1666 C 0.50699 0.49867 0.16231 0.0
C1667 C 0.51617 0.51723 0.1462 0.0
C1668 C 0.49683 0.52947 0.18133 0.0
C1669 C 0.5147 0.54146 0.14809 0.0
C1670 C 0.49346 0.56431 0.20304 0.0
C1671 C 0.47023 0.52543 0.23338 0.0
N1672 N 0.50546 0.54699 0.1654 0.0
N1673 N 0.47688 0.5188 0.21542 0.0
H1674 H 0.91373 0.46492 0.80344 0.0
H1675 H 0.03592 0.46157 0.86752 0.0
H1676 H 0.97165 0.44 0.78025 0.0
H1677 H 0.98933 0.50062 0.88828 0.0
H1678 H 0.01055 0.45146 0.836 0.0
H1679 H 0.9394 0.47649 0.83517 0.0
C1680 C 0.9319 0.46201 0.80497 0.0
C1681 C 0.94041 0.45127 0.7892 0.0
C1682 C 1.00588 0.4623 0.84742 0.0
C1683 C 0.9696 0.46416 0.82546 0.0
C1684 C 0.02049 0.46822 0.86541 0.0
C1685 C 0.01491 0.48214 0.88056 0.0
C1686 C 0.98536 0.4702 0.8445 0.0
C1687 C 0.99414 0.48962 0.8771 0.0
C1688 C 0.94645 0.4685 0.8231 0.0
C1689 C 0.96394 0.44769 0.7921 0.0
N1690 N 0.98011 0.48356 0.85942 0.0
N1691 N 0.97762 0.45403 0.80986 0.0
H1692 H 0.60703 0.50947 0.79938 0.0
H1693 H 0.47079 0.4849 0.86235 0.0
H1694 H 0.52086 0.46328 0.77803 0.0
H1695 H 0.55617 0.52875 0.88544 0.0
H1696 H 0.48919 0.47773 0.83112 0.0
H1697 H 0.58933 0.51804 0.83064 0.0
C1698 C 0.58441 0.50131 0.80121 0.0
C1699 C 0.56539 0.48555 0.78609 0.0
C1700 C 0.50396 0.48893 0.84299 0.0
C1701 C 0.54497 0.49504 0.82187 0.0
C1702 C 0.49346 0.49316 0.86082 0.0
C1703 C 0.51197 0.50759 0.87653 0.0
C1704 C 0.53324 0.49921 0.84074 0.0
C1705 C 0.54109 0.51733 0.87379 0.0
C1706 C 0.57431 0.50605 0.8191 0.0
C1707 C 0.53627 0.4752 0.78937 0.0
N1708 N 0.55085 0.51303 0.85622 0.0
N1709 N 0.52699 0.48012 0.80687 0.0
H1710 H 0.52755 0.11915 0.80359 0.0
H1711 H 0.5145 0.99189 0.86616 0.0
H1712 H 0.56193 0.06861 0.78348 0.0
H1713 H 0.49873 0.05356 0.89187 0.0
H1714 H 0.53163 0.01958 0.8357 0.0
H1715 H 0.51653 0.09547 0.83591 0.0
C1716 C 0.5329 0.10315 0.80601 0.0
C1717 C 0.54559 0.09578 0.79076 0.0
C1718 C 0.52464 0.0272 0.84803 0.0
C1719 C 0.5329 0.06846 0.82772 0.0
C1720 C 0.51473 0.01133 0.8654 0.0
C1721 C 0.505 0.02034 0.88155 0.0
C1722 C 0.52452 0.05218 0.84661 0.0
C1723 C 0.50613 0.04588 0.87982 0.0
C1724 C 0.52671 0.08972 0.82449 0.0
C1725 C 0.55233 0.0751 0.79483 0.0
N1726 N 0.51541 0.06077 0.8626 0.0
N1727 N 0.54566 0.062 0.81281 0.0
H1728 H 0.0838 0.22927 0.55969 0.0
H1729 H 0.21557 0.344 0.49663 0.0
H1730 H 0.1705 0.27035 0.58031 0.0
H1731 H 0.12965 0.3017 0.47451 0.0
H1732 H 0.19943 0.31588 0.52685 0.0
H1733 H 0.10007 0.25425 0.52801 0.0
C1734 C 0.10626 0.24353 0.55758 0.0
C1735 C 0.12578 0.24773 0.57279 0.0
C1736 C 0.18407 0.31263 0.51538 0.0
C1737 C 0.14459 0.27635 0.53642 0.0
C1738 C 0.19326 0.32881 0.49813 0.0
C1739 C 0.17392 0.32543 0.48303 0.0
C1740 C 0.15522 0.29287 0.51771 0.0
C1741 C 0.14536 0.30496 0.48569 0.0
C1742 C 0.11555 0.25769 0.53943 0.0
C1743 C 0.15467 0.26617 0.56901 0.0
N1744 N 0.13685 0.28961 0.50274 0.0
N1745 N 0.16314 0.27985 0.5513 0.0
H1746 H 0.73016 0.88388 0.58183 0.0
H1747 H 0.68746 0.81094 0.47498 0.0
H1748 H 0.76726 0.8384 0.55618 0.0
H1749 H 0.65406 0.86053 0.49902 0.0
H1750 H 0.71408 0.81775 0.50577 0.0
H1751 H 0.69924 0.87242 0.55278 0.0
C1752 C 0.73176 0.87144 0.57009 0.0
C1753 C 0.75146 0.86224 0.57137 0.0
C1754 C 0.70082 0.82704 0.50436 0.0
C1755 C 0.71602 0.8489 0.53813 0.0
C1756 C 0.68573 0.82327 0.48674 0.0
C1757 C 0.66865 0.83534 0.48436 0.0
C1758 C 0.69889 0.84304 0.51973 0.0
C1759 C 0.66678 0.85066 0.50025 0.0
C1760 C 0.71403 0.86482 0.55355 0.0
C1761 C 0.75225 0.84576 0.5559 0.0
N1762 N 0.68185 0.8542 0.51721 0.0
N1763 N 0.73491 0.83977 0.53987 0.0
H1764 H 0.13619 0.84675 0.58047 0.0
H1765 H 0.1917 0.89455 0.46859 0.0
H1766 H 0.15789 0.92656 0.55659 0.0
H1767 H 0.18267 0.82056 0.49562 0.0
H1768 H 0.17451 0.90442 0.49953 0.0
H1769 H 0.14832 0.83467 0.54832 0.0
C1770 C 0.14326 0.86165 0.56841 0.0
C1771 C 0.14614 0.88776 0.57127 0.0
C1772 C 0.17621 0.88598 0.49867 0.0
C1773 C 0.16027 0.87413 0.53443 0.0
C1774 C 0.18585 0.88024 0.48096 0.0
C1775 C 0.18878 0.85677 0.47954 0.0
C1776 C 0.16927 0.86803 0.51506 0.0
C1777 C 0.18115 0.83911 0.49614 0.0
C1778 C 0.15035 0.8548 0.55009 0.0
C1779 C 0.15571 0.90634 0.55514 0.0
N1780 N 0.17179 0.84511 0.5132 0.0
N1781 N 0.16245 0.89918 0.53744 0.0
H1782 H 0.63851 0.82671 0.11641 0.0
H1783 H 0.64375 0.77725 0.22764 0.0
H1784 H 0.57824 0.74656 0.13989 0.0
H1785 H 0.71234 0.85072 0.20107 0.0
H1786 H 0.61743 0.76767 0.19643 0.0
H1787 H 0.66389 0.83792 0.14824 0.0
C1788 C 0.63055 0.81156 0.12831 0.0
C1789 C 0.60634 0.78563 0.12552 0.0
C1790 C 0.63824 0.78589 0.19741 0.0
C1791 C 0.63522 0.79822 0.16184 0.0
C1792 C 0.65319 0.79146 0.21525 0.0
C1793 C 0.68027 0.81481 0.21693 0.0
C1794 C 0.65036 0.80389 0.18112 0.0
C1795 C 0.69165 0.83233 0.20032 0.0
C1796 C 0.64511 0.81789 0.14641 0.0
C1797 C 0.59704 0.76665 0.14135 0.0
N1798 N 0.67661 0.82654 0.18311 0.0
N1799 N 0.61147 0.77334 0.15884 0.0
H1800 H 0.27476 0.84076 0.13394 0.0
H1801 H 0.13901 0.82013 0.19557 0.0
H1802 H 0.18908 0.79846 0.11136 0.0
H1803 H 0.22423 0.86301 0.21901 0.0
H1804 H 0.15743 0.81276 0.16443 0.0
H1805 H 0.25722 0.85023 0.16491 0.0
C1806 C 0.2523 0.83366 0.13544 0.0
C1807 C 0.23334 0.81868 0.12007 0.0
C1808 C 0.17216 0.82382 0.17635 0.0
C1809 C 0.21309 0.82918 0.15551 0.0
C1810 C 0.16166 0.82816 0.19413 0.0
C1811 C 0.18011 0.84233 0.20993 0.0
C1812 C 0.2014 0.83368 0.17426 0.0
C1813 C 0.2092 0.85176 0.2073 0.0
C1814 C 0.24228 0.83892 0.15316 0.0
C1815 C 0.20441 0.80971 0.12291 0.0
N1816 N 0.21895 0.84731 0.1898 0.0
N1817 N 0.1952 0.81505 0.14027 0.0
H1818 H 0.24485 0.45047 0.13602 0.0
H1819 H 0.12141 0.32758 0.19993 0.0
H1820 H 0.16129 0.39318 0.11383 0.0
H1821 H 0.20666 0.37694 0.22231 0.0
H1822 H 0.13583 0.35387 0.169 0.0
H1823 H 0.23183 0.42575 0.16812 0.0
C1824 C 0.22385 0.43269 0.13784 0.0
C1825 C 0.20406 0.42413 0.1222 0.0
C1826 C 0.15149 0.35905 0.18062 0.0
C1827 C 0.18897 0.39596 0.15892 0.0
C1828 C 0.14326 0.34394 0.19832 0.0
C1829 C 0.16291 0.34976 0.21371 0.0
C1830 C 0.17968 0.38037 0.17809 0.0
C1831 C 0.19076 0.37174 0.21088 0.0
C1832 C 0.2164 0.41869 0.1562 0.0
C1833 C 0.1771 0.40101 0.1255 0.0
N1834 N 0.19838 0.38617 0.19337 0.0
N1835 N 0.17041 0.38788 0.14341 0.0
H1836 H 0.74845 0.56423 0.89363 0.0
H1837 H 0.88382 0.67176 0.82966 0.0
H1838 H 0.83487 0.60327 0.91472 0.0
H1839 H 0.79802 0.63479 0.80766 0.0
H1840 H 0.86598 0.64483 0.86025 0.0
H1841 H 0.76579 0.58812 0.86161 0.0
C1842 C 0.77105 0.57782 0.89157 0.0
C1843 C 0.79019 0.58169 0.90698 0.0
C1844 C 0.85099 0.64248 0.84875 0.0
C1845 C 0.81022 0.60896 0.87024 0.0
C1846 C 0.86118 0.65797 0.83127 0.0
C1847 C 0.84239 0.65579 0.8161 0.0
C1848 C 0.82169 0.62459 0.85125 0.0
C1849 C 0.8133 0.63708 0.8189 0.0
C1850 C 0.78094 0.59134 0.87323 0.0
C1851 C 0.81929 0.59928 0.90327 0.0
N1852 N 0.80382 0.62234 0.83619 0.0
N1853 N 0.82834 0.61226 0.88537 0.0
H1854 H 0.39411 0.21626 0.91553 0.0
H1855 H 0.35804 0.14473 0.80814 0.0
H1856 H 0.43389 0.17218 0.8918 0.0
H1857 H 0.32169 0.19225 0.83129 0.0
H1858 H 0.38379 0.15195 0.83944 0.0
H1859 H 0.36502 0.2049 0.88558 0.0
C1860 C 0.39671 0.20419 0.90399 0.0
C1861 C 0.41661 0.19535 0.90607 0.0
C1862 C 0.37007 0.16068 0.8377 0.0
C1863 C 0.38323 0.18208 0.87177 0.0
C1864 C 0.35548 0.15668 0.8198 0.0
C1865 C 0.33776 0.168 0.81705 0.0
C1866 C 0.36698 0.17614 0.85295 0.0
C1867 C 0.33487 0.1829 0.83281 0.0
C1868 C 0.38002 0.1976 0.88692 0.0
C1869 C 0.4187 0.17929 0.89083 0.0
N1870 N 0.34942 0.18664 0.85003 0.0
N1871 N 0.40233 0.1733 0.87426 0.0
H1872 H 0.77888 0.20803 0.8889 0.0
H1873 H 0.90744 0.21302 0.82679 0.0
H1874 H 0.86304 0.2377 0.91246 0.0
H1875 H 0.82175 0.1755 0.80439 0.0
H1876 H 0.89158 0.22368 0.85781 0.0
H1877 H 0.79406 0.19701 0.85751 0.0
C1878 C 0.80049 0.21208 0.88753 0.0
C1879 C 0.81972 0.22391 0.90336 0.0
C1880 C 0.8762 0.2131 0.84613 0.0
C1881 C 0.83732 0.21165 0.86737 0.0
C1882 C 0.88523 0.20689 0.82841 0.0
C1883 C 0.86588 0.19314 0.81296 0.0
C1884 C 0.84756 0.20563 0.84851 0.0
C1885 C 0.83747 0.1863 0.81581 0.0
C1886 C 0.80918 0.20593 0.86956 0.0
C1887 C 0.84757 0.22903 0.9006 0.0
N1888 N 0.82915 0.19255 0.83326 0.0
N1889 N 0.8555 0.2229 0.88299 0.0
H1890 H 0.29366 0.15985 0.45156 0.0
H1891 H 0.313 0.11213 0.56008 0.0
H1892 H 0.24364 0.07683 0.47411 0.0
H1893 H 0.37619 0.18817 0.53276 0.0
H1894 H 0.28476 0.10083 0.52969 0.0
H1895 H 0.32181 0.17266 0.48232 0.0
C1896 C 0.28859 0.14439 0.46302 0.0
C1897 C 0.26646 0.11723 0.46031 0.0
C1898 C 0.30481 0.11999 0.53031 0.0
C1899 C 0.29832 0.13164 0.49534 0.0
C1900 C 0.32084 0.12651 0.54768 0.0
C1901 C 0.34693 0.15112 0.5489 0.0
C1902 C 0.31482 0.13829 0.51404 0.0
C1903 C 0.35629 0.16886 0.53232 0.0
C1904 C 0.30469 0.15164 0.48048 0.0
C1905 C 0.26078 0.09791 0.47552 0.0
N1906 N 0.34017 0.16215 0.51556 0.0
N1907 N 0.27656 0.10551 0.4924 0.0
H1908 H 0.85102 0.13078 0.44218 0.0
H1909 H 0.89051 0.19195 0.55283 0.0
H1910 H 0.93616 0.16898 0.46566 0.0
H1911 H 0.80552 0.1508 0.52893 0.0
H1912 H 0.90796 0.18388 0.5213 0.0
H1913 H 0.83435 0.13833 0.47401 0.0
C1914 C 0.86622 0.14061 0.45409 0.0
C1915 C 0.89503 0.14908 0.45125 0.0
C1916 C 0.8855 0.17663 0.52297 0.0
C1917 C 0.87607 0.15817 0.48783 0.0
C1918 C 0.87549 0.18109 0.54102 0.0
C1919 C 0.84649 0.17214 0.54354 0.0
C1920 C 0.86638 0.16309 0.50734 0.0
C1921 C 0.8281 0.15848 0.52759 0.0
C1922 C 0.85669 0.14507 0.47226 0.0
C1923 C 0.91381 0.16229 0.46713 0.0
N1924 N 0.83835 0.15441 0.51022 0.0
N1925 N 0.90399 0.16638 0.48475 0.0
H1926 H 0.89531 0.73538 0.44836 0.0
H1927 H 0.83159 0.71865 0.55885 0.0
H1928 H 0.85939 0.78374 0.47041 0.0
H1929 H 0.84712 0.65814 0.53076 0.0
H1930 H 0.84841 0.74694 0.52848 0.0
H1931 H 0.88466 0.71122 0.48045 0.0
C1932 C 0.88551 0.74117 0.46004 0.0
C1933 C 0.87812 0.76154 0.45665 0.0
C1934 C 0.84824 0.72752 0.52901 0.0
C1935 C 0.86568 0.73382 0.49342 0.0
C1936 C 0.83881 0.71146 0.54637 0.0
C1937 C 0.83776 0.6859 0.54729 0.0
C1938 C 0.85702 0.71813 0.51252 0.0
C1939 C 0.84719 0.67751 0.53061 0.0
C1940 C 0.87924 0.72722 0.47831 0.0
C1941 C 0.86515 0.76795 0.47229 0.0
N1942 N 0.8564 0.69355 0.51394 0.0
N1943 N 0.85931 0.75413 0.48997 0.0
loop_
_geom_bond_atom_site_label_1
_geom_bond_atom_site_label_2
_geom_bond_distance
_geom_bond_site_symmetry_2
_ccdc_geom_bond_type
H0 C5 0.930 . S
H1 C8 0.930 . S
H2 C10 0.930 . S
H3 C4 1.016 . S
C4 H3 1.016 . S
C4 N11 1.286 . S
C5 H0 0.930 . S
C5 C6 1.397 . S
C5 C7 1.361 . S
C6 C5 1.397 . S
C6 C10 1.390 . S
C7 C5 1.361 . S
C7 C8 1.393 . S
C7 N11 1.413 . S
C8 H1 0.930 . S
C8 C7 1.393 . S
C8 C9 1.399 . S
C9 C8 1.399 . S
C9 C10 1.381 . S
C10 H2 0.930 . S
C10 C6 1.390 . S
C10 C9 1.381 . S
N11 C4 1.286 . S
N11 C7 1.413 . S
H12 C17 0.930 . S
H13 C20 0.930 . S
H14 C22 0.930 . S
H15 C16 1.016 . S
C16 H15 1.016 . S
C16 N23 1.286 . S
C17 H12 0.930 . S
C17 C18 1.397 . S
C17 C19 1.361 . S
C18 C17 1.397 . S
C18 C22 1.390 . S
C19 C17 1.361 . S
C19 C20 1.393 . S
C19 N23 1.413 . S
C20 H13 0.930 . S
C20 C19 1.393 . S
C20 C21 1.399 . S
C21 C20 1.399 . S
C21 C22 1.381 . S
C22 H14 0.930 . S
C22 C18 1.390 . S
C22 C21 1.381 . S
N23 C16 1.286 . S
N23 C19 1.413 . S
H24 C29 0.930 . S
H25 C32 0.930 . S
H26 C34 0.930 . S
H27 C28 1.016 . S
C28 H27 1.016 . S
C28 N35 1.286 . S
C29 H24 0.930 . S
C29 C30 1.397 . S
C29 C31 1.361 . S
C30 C29 1.397 . S
C30 C34 1.390 . S
C31 C29 1.361 . S
C31 C32 1.393 . S
C31 N35 1.413 . S
C32 H25 0.930 . S
C32 C31 1.393 . S
C32 C33 1.399 . S
C33 C32 1.399 . S
C33 C34 1.381 . S
C34 H26 0.930 . S
C34 C30 1.390 . S
C34 C33 1.381 . S
N35 C28 1.286 . S
N35 C31 1.413 . S
H36 C41 0.930 . S
H37 C44 0.930 . S
H38 C46 0.930 . S
H39 C40 1.016 . S
C40 H39 1.016 . S
C40 N47 1.286 . S
C41 H36 0.930 . S
C41 C42 1.397 . S
C41 C43 1.361 . S
C42 C41 1.397 . S
C42 C46 1.390 . S
C43 C41 1.361 . S
C43 C44 1.393 . S
C43 N47 1.413 . S
C44 H37 0.930 . S
C44 C43 1.393 . S
C44 C45 1.399 . S
C45 C44 1.399 . S
C45 C46 1.381 . S
C46 H38 0.930 . S
C46 C42 1.390 . S
C46 C45 1.381 . S
N47 C40 1.286 . S
N47 C43 1.413 . S
H48 C53 0.930 . S
H49 C56 0.930 . S
H50 C58 0.930 . S
H51 C52 1.016 . S
C52 H51 1.016 . S
C52 N59 1.286 . S
C53 H48 0.930 . S
C53 C54 1.397 . S
C53 C55 1.361 . S
C54 C53 1.397 . S
C54 C58 1.390 . S
C55 C53 1.361 . S
C55 C56 1.393 . S
C55 N59 1.413 . S
C56 H49 0.930 . S
C56 C55 1.393 . S
C56 C57 1.399 . S
C57 C56 1.399 . S
C57 C58 1.381 . S
C58 H50 0.930 . S
C58 C54 1.390 . S
C58 C57 1.381 . S
N59 C52 1.286 . S
N59 C55 1.413 . S
H60 C65 0.930 . S
H61 C68 0.930 . S
H62 C70 0.930 . S
H63 C64 1.016 . S
C64 H63 1.016 . S
C64 N71 1.286 . S
C65 H60 0.930 . S
C65 C66 1.397 . S
C65 C67 1.361 . S
C66 C65 1.397 . S
C66 C70 1.390 . S
C67 C65 1.361 . S
C67 C68 1.393 . S
C67 N71 1.413 . S
C68 H61 0.930 . S
C68 C67 1.393 . S
C68 C69 1.399 . S
C69 C68 1.399 . S
C69 C70 1.381 . S
C70 H62 0.930 . S
C70 C66 1.390 . S
C70 C69 1.381 . S
N71 C64 1.286 . S
N71 C67 1.413 . S
H72 C77 0.930 . S
H73 C80 0.930 . S
H74 C82 0.930 . S
H75 C76 1.016 . S
C76 H75 1.016 . S
C76 N83 1.286 . S
C77 H72 0.930 . S
C77 C78 1.397 . S
C77 C79 1.361 . S
C78 C77 1.397 . S
C78 C82 1.390 . S
C79 C77 1.361 . S
C79 C80 1.393 . S
C79 N83 1.413 . S
C80 H73 0.930 . S
C80 C79 1.393 . S
C80 C81 1.399 . S
C81 C80 1.399 . S
C81 C82 1.381 . S
C82 H74 0.930 . S
C82 C78 1.390 . S
C82 C81 1.381 . S
N83 C76 1.286 . S
N83 C79 1.413 . S
H84 C89 0.930 . S
H85 C92 0.930 . S
H86 C94 0.930 . S
H87 C88 1.016 . S
C88 H87 1.016 . S
C88 N95 1.286 . S
C89 H84 0.930 . S
C89 C90 1.397 . S
C89 C91 1.361 . S
C90 C89 1.397 . S
C90 C94 1.390 . S
C91 C89 1.361 . S
C91 C92 1.393 . S
C91 N95 1.413 . S
C92 H85 0.930 . S
C92 C91 1.393 . S
C92 C93 1.399 . S
C93 C92 1.399 . S
C93 C94 1.381 . S
C94 H86 0.930 . S
C94 C90 1.390 . S
C94 C93 1.381 . S
N95 C88 1.286 . S
N95 C91 1.413 . S
H96 C101 0.930 . S
H97 C104 0.930 . S
H98 C106 0.930 . S
H99 C100 1.016 . S
C100 H99 1.016 . S
C100 N107 1.286 . S
C101 H96 0.930 . S
C101 C102 1.397 . S
C101 C103 1.361 . S
C102 C101 1.397 . S
C102 C106 1.390 . S
C103 C101 1.361 . S
C103 C104 1.393 . S
C103 N107 1.413 . S
C104 H97 0.930 . S
C104 C103 1.393 . S
C104 C105 1.399 . S
C105 C104 1.399 . S
C105 C106 1.381 . S
C106 H98 0.930 . S
C106 C102 1.390 . S
C106 C105 1.381 . S
N107 C100 1.286 . S
N107 C103 1.413 . S
H108 C113 0.930 . S
H109 C116 0.930 . S
H110 C118 0.930 . S
H111 C112 1.016 . S
C112 H111 1.016 . S
C112 N119 1.286 . S
C113 H108 0.930 . S
C113 C114 1.397 . S
C113 C115 1.361 . S
C114 C113 1.397 . S
C114 C118 1.390 . S
C115 C113 1.361 . S
C115 C116 1.393 . S
C115 N119 1.413 . S
C116 H109 0.930 . S
C116 C115 1.393 . S
C116 C117 1.399 . S
C117 C116 1.399 . S
C117 C118 1.381 . S
C118 H110 0.930 . S
C118 C114 1.390 . S
C118 C117 1.381 . S
N119 C112 1.286 . S
N119 C115 1.413 . S
H120 C125 0.930 . S
H121 C128 0.930 . S
H122 C130 0.930 . S
H123 C124 1.016 . S
C124 H123 1.016 . S
C124 N131 1.286 . S
C125 H120 0.930 . S
C125 C126 1.397 . S
C125 C127 1.361 . S
C126 C125 1.397 . S
C126 C130 1.390 . S
C127 C125 1.361 . S
C127 C128 1.393 . S
C127 N131 1.413 . S
C128 H121 0.930 . S
C128 C127 1.393 . S
C128 C129 1.399 . S
C129 C128 1.399 . S
C129 C130 1.381 . S
C130 H122 0.930 . S
C130 C126 1.390 . S
C130 C129 1.381 . S
N131 C124 1.286 . S
N131 C127 1.413 . S
H132 C137 0.930 . S
H133 C140 0.930 . S
H134 C142 0.930 . S
H135 C136 1.016 . S
C136 H135 1.016 . S
C136 N143 1.286 . S
C137 H132 0.930 . S
C137 C138 1.397 . S
C137 C139 1.361 . S
C138 C137 1.397 . S
C138 C142 1.390 . S
C139 C137 1.361 . S
C139 C140 1.393 . S
C139 N143 1.413 . S
C140 H133 0.930 . S
C140 C139 1.393 . S
C140 C141 1.399 . S
C141 C140 1.399 . S
C141 C142 1.381 . S
C142 H134 0.930 . S
C142 C138 1.390 . S
C142 C141 1.381 . S
N143 C136 1.286 . S
N143 C139 1.413 . S
H144 C149 0.930 . S
H145 C152 0.930 . S
H146 C154 0.930 . S
H147 C148 1.016 . S
C148 H147 1.016 . S
C148 N155 1.286 . S
C149 H144 0.930 . S
C149 C150 1.397 . S
C149 C151 1.361 . S
C150 C149 1.397 . S
C150 C154 1.390 . S
C151 C149 1.361 . S
C151 C152 1.393 . S
C151 N155 1.413 . S
C152 H145 0.930 . S
C152 C151 1.393 . S
C152 C153 1.399 . S
C153 C152 1.399 . S
C153 C154 1.381 . S
C154 H146 0.930 . S
C154 C150 1.390 . S
C154 C153 1.381 . S
N155 C148 1.286 . S
N155 C151 1.413 . S
H156 C161 0.930 . S
H157 C164 0.930 . S
H158 C166 0.930 . S
H159 C160 1.016 . S
C160 H159 1.016 . S
C160 N167 1.286 . S
C161 H156 0.930 . S
C161 C162 1.397 . S
C161 C163 1.361 . S
C162 C161 1.397 . S
C162 C166 1.390 . S
C163 C161 1.361 . S
C163 C164 1.393 . S
C163 N167 1.413 . S
C164 H157 0.930 . S
C164 C163 1.393 . S
C164 C165 1.399 . S
C165 C164 1.399 . S
C165 C166 1.381 . S
C166 H158 0.930 . S
C166 C162 1.390 . S
C166 C165 1.381 . S
N167 C160 1.286 . S
N167 C163 1.413 . S
H168 C173 0.930 . S
H169 C176 0.930 . S
H170 C178 0.930 . S
H171 C172 1.016 . S
C172 H171 1.016 . S
C172 N179 1.286 . S
C173 H168 0.930 . S
C173 C174 1.397 . S
C173 C175 1.361 . S
C174 C173 1.397 . S
C174 C178 1.390 . S
C175 C173 1.361 . S
C175 C176 1.393 . S
C175 N179 1.413 . S
C176 H169 0.930 . S
C176 C175 1.393 . S
C176 C177 1.399 . S
C177 C176 1.399 . S
C177 C178 1.381 . S
C178 H170 0.930 . S
C178 C174 1.390 . S
C178 C177 1.381 . S
N179 C172 1.286 . S
N179 C175 1.413 . S
H180 C185 0.930 . S
H181 C188 0.930 . S
H182 C190 0.930 . S
H183 C184 1.016 . S
C184 H183 1.016 . S
C184 N191 1.286 . S
C185 H180 0.930 . S
C185 C186 1.397 . S
C185 C187 1.361 . S
C186 C185 1.397 . S
C186 C190 1.390 . S
C187 C185 1.361 . S
C187 C188 1.393 . S
C187 N191 1.413 . S
C188 H181 0.930 . S
C188 C187 1.393 . S
C188 C189 1.399 . S
C189 C188 1.399 . S
C189 C190 1.381 . S
C190 H182 0.930 . S
C190 C186 1.390 . S
C190 C189 1.381 . S
N191 C184 1.286 . S
N191 C187 1.413 . S
H192 C197 0.930 . S
H193 C200 0.930 . S
H194 C202 0.930 . S
H195 C196 1.016 . S
C196 H195 1.016 . S
C196 N203 1.286 . S
C197 H192 0.930 . S
C197 C198 1.397 . S
C197 C199 1.361 . S
C198 C197 1.397 . S
C198 C202 1.390 . S
C199 C197 1.361 . S
C199 C200 1.393 . S
C199 N203 1.413 . S
C200 H193 0.930 . S
C200 C199 1.393 . S
C200 C201 1.399 . S
C201 C200 1.399 . S
C201 C202 1.381 . S
C202 H194 0.930 . S
C202 C198 1.390 . S
C202 C201 1.381 . S
N203 C196 1.286 . S
N203 C199 1.413 . S
H204 C209 0.930 . S
H205 C212 0.930 . S
H206 C214 0.930 . S
H207 C208 1.016 . S
C208 H207 1.016 . S
C208 N215 1.286 . S
C209 H204 0.930 . S
C209 C210 1.397 . S
C209 C211 1.361 . S
C210 C209 1.397 . S
C210 C214 1.390 . S
C211 C209 1.361 . S
C211 C212 1.393 . S
C211 N215 1.413 . S
C212 H205 0.930 . S
C212 C211 1.393 . S
C212 C213 1.399 . S
C213 C212 1.399 . S
C213 C214 1.381 . S
C214 H206 0.930 . S
C214 C210 1.390 . S
C214 C213 1.381 . S
N215 C208 1.286 . S
N215 C211 1.413 . S
Tb216 N247 2.660 . S
Tb216 N254 2.600 . S
Tb216 O260 2.546 . S
Tb216 O261 2.610 1_566 S
Tb216 O263 2.320 1_565 S
Tb216 O264 2.552 1_565 S
Tb216 O265 2.413 1_565 S
Tb216 O267 2.362 1_556 S
Tb216 O268 2.421 . S
Tb216 C280 2.832 1_565 S
C217 C220 1.432 . S
C217 C221 1.414 . S
C217 N224 1.359 . S
C218 C220 1.417 . S
C218 C222 1.432 . S
C218 C230 1.410 . S
C219 C221 1.444 . S
C219 C222 1.317 . S
C219 H242 0.929 . S
C220 C217 1.432 . S
C220 C218 1.417 . S
C220 N228 1.360 . S
C221 C217 1.414 . S
C221 C219 1.444 . S
C221 C226 1.385 . S
C222 C218 1.432 . S
C222 C219 1.317 . S
C222 H234 0.930 . S
C223 C225 1.392 . S
C223 C226 1.370 . S
C223 H235 0.931 . S
N224 C217 1.359 . S
N224 C225 1.327 . S
N224 Tb227 2.600 . S
C225 C223 1.392 . S
C225 N224 1.327 . S
C225 H232 0.930 . S
C226 C221 1.385 . S
C226 C223 1.370 . S
C226 H245 0.930 . S
Tb227 N224 2.600 . S
Tb227 N228 2.660 . S
Tb227 O261 2.362 . S
Tb227 O262 2.421 . S
Tb227 O266 2.546 . S
Tb227 O267 2.610 1_545 S
Tb227 O269 2.320 1_545 S
Tb227 O270 2.552 1_545 S
Tb227 O271 2.413 1_545 S
Tb227 C291 2.833 . S
N228 C220 1.360 . S
N228 Tb227 2.660 . S
N228 C229 1.305 . S
C229 N228 1.305 . S
C229 C231 1.407 . S
C229 H236 0.930 . S
C230 C218 1.410 . S
C230 C231 1.345 . S
C230 H238 0.930 . S
C231 C229 1.407 . S
C231 C230 1.345 . S
C231 H233 0.930 . S
H232 C225 0.930 . S
H233 C231 0.930 . S
H234 C222 0.930 . S
H235 C223 0.931 . S
H236 C229 0.930 . S
H237 C251 0.930 . S
H238 C230 0.930 . S
H239 C257 0.930 . S
H240 C248 0.930 . S
H241 C255 0.931 . S
H242 C219 0.929 . S
H243 C249 0.930 . S
H244 C282 0.930 . S
H245 C226 0.930 . S
H246 C281 0.929 . S
N247 Tb216 2.660 . S
N247 C248 1.305 . S
N247 C252 1.360 . S
C248 H240 0.930 . S
C248 N247 1.305 . S
C248 C251 1.407 . S
C249 H243 0.930 . S
C249 C250 1.410 . S
C249 C251 1.345 . S
C250 C249 1.410 . S
C250 C252 1.417 . S
C250 C282 1.432 . S
C251 H237 0.930 . S
C251 C248 1.407 . S
C251 C249 1.345 . S
C252 N247 1.360 . S
C252 C250 1.417 . S
C252 C256 1.432 . S
H253 C258 0.930 . S
N254 Tb216 2.600 . S
N254 C256 1.359 . S
N254 C257 1.327 . S
C255 H241 0.931 . S
C255 C257 1.392 . S
C255 C258 1.370 . S
C256 C252 1.432 . S
C256 N254 1.359 . S
C256 C259 1.414 . S
C257 H239 0.930 . S
C257 N254 1.327 . S
C257 C255 1.392 . S
C258 H253 0.930 . S
C258 C255 1.370 . S
C258 C259 1.385 . S
C259 C256 1.414 . S
C259 C258 1.385 . S
C259 C281 1.444 . S
O260 Tb216 2.546 . S
O260 C280 1.245 1_565 S
O261 Tb216 2.610 1_544 S
O261 Tb227 2.362 . S
O261 C272 1.283 1_554 S
O262 Tb227 2.421 . S
O262 C279 1.262 . S
O263 Tb216 2.320 1_545 S
O263 C279 1.260 1_556 S
O264 Tb216 2.552 1_545 S
O264 C272 1.243 . S
O265 Tb216 2.413 1_545 S
O265 C280 1.261 . S
O266 Tb227 2.546 . S
O266 C291 1.251 . S
O267 Tb216 2.362 1_554 S
O267 Tb227 2.610 1_565 S
O267 C283 1.283 . S
O268 Tb216 2.421 . S
O268 C290 1.261 1_556 S
O269 Tb227 2.320 1_565 S
O269 C290 1.260 . S
O270 Tb227 2.552 1_565 S
O270 C283 1.243 . S
O271 Tb227 2.413 1_565 S
O271 C291 1.256 1_565 S
C272 O261 1.283 1_556 S
C272 O264 1.243 . S
C273 C275 1.382 . S
C273 C277 1.393 1_545 S
C273 C280 1.501 . S
C274 C275 1.400 . S
C274 C276 1.384 . S
C275 C273 1.382 . S
C275 C274 1.400 . S
C275 H292 0.930 . S
C276 C274 1.384 . S
C276 C278 1.392 1_545 S
C276 H293 0.931 . S
C277 C273 1.393 1_565 S
C277 C278 1.401 . S
C277 H294 0.930 . S
C278 C276 1.392 1_565 S
C278 C277 1.401 . S
C278 H295 0.930 . S
C279 O262 1.262 . S
C279 O263 1.260 1_554 S
C280 Tb216 2.832 1_545 S
C280 O260 1.245 1_545 S
C280 O265 1.261 . S
C280 C273 1.501 . S
C281 H246 0.929 . S
C281 C259 1.444 . S
C281 C282 1.317 . S
C282 H244 0.930 . S
C282 C250 1.432 . S
C282 C281 1.317 . S
C283 O267 1.283 . S
C283 O270 1.243 . S
C284 C285 1.382 1_545 S
C284 C288 1.393 . S
C284 C291 1.500 . S
C285 C284 1.382 1_565 S
C285 C286 1.400 . S
C285 H296 0.930 . S
C286 C285 1.400 . S
C286 C287 1.384 . S
C287 C286 1.384 . S
C287 C289 1.392 1_565 S
C287 H297 0.931 . S
C288 C284 1.393 . S
C288 C289 1.401 . S
C288 H298 0.930 . S
C289 C287 1.392 1_545 S
C289 C288 1.401 . S
C289 H299 0.930 . S
C290 O268 1.261 1_554 S
C290 O269 1.260 . S
C291 Tb227 2.833 . S
C291 O266 1.251 . S
C291 O271 1.256 1_545 S
C291 C284 1.500 . S
H292 C275 0.930 . S
H293 C276 0.931 . S
H294 C277 0.930 . S
H295 C278 0.930 . S
H296 C285 0.930 . S
H297 C287 0.931 . S
H298 C288 0.930 . S
H299 C289 0.930 . S
Tb300 N331 2.660 . S
Tb300 N338 2.600 . S
Tb300 O344 2.546 . S
Tb300 O345 2.610 1_456 S
Tb300 O347 2.320 1_455 S
Tb300 O348 2.552 1_455 S
Tb300 O349 2.418 . S
Tb300 O351 2.362 1_556 S
Tb300 O352 2.395 1_556 S
Tb300 C364 2.833 . S
C301 C304 1.432 . S
C301 C305 1.414 . S
C301 N308 1.359 . S
C302 C304 1.417 . S
C302 C306 1.432 . S
C302 C314 1.410 . S
C303 C305 1.444 . S
C303 C306 1.317 . S
C303 H326 0.929 . S
C304 C301 1.432 . S
C304 C302 1.417 . S
C304 N312 1.360 . S
C305 C301 1.414 . S
C305 C303 1.444 . S
C305 C310 1.385 . S
C306 C302 1.432 . S
C306 C303 1.317 . S
C306 H318 0.930 . S
C307 C309 1.392 . S
C307 C310 1.370 . S
C307 H319 0.931 . S
N308 C301 1.359 . S
N308 C309 1.327 . S
N308 Tb311 2.600 . S
C309 C307 1.392 . S
C309 N308 1.327 . S
C309 H316 0.930 . S
C310 C305 1.385 . S
C310 C307 1.370 . S
C310 H329 0.930 . S
Tb311 N308 2.600 . S
Tb311 N312 2.660 . S
Tb311 O345 2.362 . S
Tb311 O346 2.421 . S
Tb311 O350 2.546 . S
Tb311 O351 2.610 1_655 S
Tb311 O353 2.320 1_655 S
Tb311 O354 2.552 1_655 S
Tb311 O355 2.413 1_655 S
Tb311 C375 2.833 . S
N312 C304 1.360 . S
N312 Tb311 2.660 . S
N312 C313 1.305 . S
C313 N312 1.305 . S
C313 C315 1.407 . S
C313 H320 0.930 . S
C314 C302 1.410 . S
C314 C315 1.345 . S
C314 H322 0.930 . S
C315 C313 1.407 . S
C315 C314 1.345 . S
C315 H317 0.930 . S
H316 C309 0.930 . S
H317 C315 0.930 . S
H318 C306 0.930 . S
H319 C307 0.931 . S
H320 C313 0.930 . S
H321 C335 0.930 . S
H322 C314 0.930 . S
H323 C341 0.930 . S
H324 C332 0.930 . S
H325 C339 0.931 . S
H326 C303 0.929 . S
H327 C333 0.930 . S
H328 C366 0.930 . S
H329 C310 0.930 . S
H330 C365 0.929 . S
N331 Tb300 2.660 . S
N331 C332 1.305 . S
N331 C336 1.360 . S
C332 H324 0.930 . S
C332 N331 1.305 . S
C332 C335 1.407 . S
C333 H327 0.930 . S
C333 C334 1.410 . S
C333 C335 1.345 . S
C334 C333 1.410 . S
C334 C336 1.417 . S
C334 C366 1.432 . S
C335 H321 0.930 . S
C335 C332 1.407 . S
C335 C333 1.345 . S
C336 N331 1.360 . S
C336 C334 1.417 . S
C336 C340 1.432 . S
H337 C342 0.930 . S
N338 Tb300 2.600 . S
N338 C340 1.359 . S
N338 C341 1.327 . S
C339 H325 0.931 . S
C339 C341 1.392 . S
C339 C342 1.370 . S
C340 C336 1.432 . S
C340 N338 1.359 . S
C340 C343 1.414 . S
C341 H323 0.930 . S
C341 N338 1.327 . S
C341 C339 1.392 . S
C342 H337 0.930 . S
C342 C339 1.370 . S
C342 C343 1.385 . S
C343 C340 1.414 . S
C343 C342 1.385 . S
C343 C365 1.444 . S
O344 Tb300 2.546 . S
O344 C364 1.251 . S
O345 Tb300 2.610 1_654 S
O345 Tb311 2.362 . S
O345 C356 1.283 1_554 S
O346 Tb311 2.421 . S
O346 C363 1.262 . S
O347 Tb300 2.320 1_655 S
O347 C363 1.260 1_556 S
O348 Tb300 2.552 1_655 S
O348 C356 1.243 . S
O349 Tb300 2.418 . S
O349 C364 1.255 . S
O350 Tb311 2.546 . S
O350 C375 1.251 . S
O351 Tb300 2.362 1_554 S
O351 Tb311 2.610 1_455 S
O351 C367 1.283 . S
O352 Tb300 2.395 1_554 S
O352 C374 1.314 . S
O353 Tb311 2.320 1_455 S
O353 C374 1.260 . S
O354 Tb311 2.552 1_455 S
O354 C367 1.243 . S
O355 Tb311 2.413 1_455 S
O355 C375 1.256 1_455 S
C356 O345 1.283 1_556 S
C356 O348 1.243 . S
C357 C359 1.382 1_455 S
C357 C361 1.393 . S
C357 C364 1.500 . S
C358 C359 1.400 . S
C358 C360 1.384 . S
C359 C357 1.382 1_655 S
C359 C358 1.400 . S
C359 H376 0.930 . S
C360 C358 1.384 . S
C360 C362 1.392 1_655 S
C360 H377 0.931 . S
C361 C357 1.393 . S
C361 C362 1.401 . S
C361 H378 0.930 . S
C362 C360 1.392 1_455 S
C362 C361 1.401 . S
C362 H379 0.930 . S
C363 O346 1.262 . S
C363 O347 1.260 1_554 S
C364 Tb300 2.833 . S
C364 O344 1.251 . S
C364 O349 1.255 . S
C364 C357 1.500 . S
C365 H330 0.929 . S
C365 C343 1.444 . S
C365 C366 1.317 . S
C366 H328 0.930 . S
C366 C334 1.432 . S
C366 C365 1.317 . S
C367 O351 1.283 . S
C367 O354 1.243 . S
C368 C369 1.382 . S
C368 C372 1.393 1_455 S
C368 C375 1.500 1_455 S
C369 C368 1.382 . S
C369 C370 1.400 . S
C369 H380 0.930 . S
C370 C369 1.400 . S
C370 C371 1.384 . S
C371 C370 1.384 . S
C371 C373 1.392 1_455 S
C371 H381 0.931 . S
C372 C368 1.393 1_655 S
C372 C373 1.401 . S
C372 H382 0.930 . S
C373 C371 1.392 1_655 S
C373 C372 1.401 . S
C373 H383 0.930 . S
C374 O352 1.314 . S
C374 O353 1.260 . S
C375 Tb311 2.833 . S
C375 O350 1.251 . S
C375 O355 1.256 1_655 S
C375 C368 1.500 1_655 S
H376 C359 0.930 . S
H377 C360 0.931 . S
H378 C361 0.930 . S
H379 C362 0.930 . S
H380 C369 0.930 . S
H381 C371 0.931 . S
H382 C372 0.930 . S
H383 C373 0.930 . S
Tb384 N415 2.660 . S
Tb384 N422 2.600 . S
Tb384 O428 2.546 . S
Tb384 O429 2.610 . S
Tb384 O431 2.320 . S
Tb384 O432 2.552 . S
Tb384 O433 2.413 . S
Tb384 O435 2.362 . S
Tb384 O436 2.421 . S
Tb384 C448 2.833 . S
C385 C388 1.432 . S
C385 C389 1.414 . S
C385 N392 1.359 . S
C386 C388 1.417 . S
C386 C390 1.432 . S
C386 C398 1.410 . S
C387 C389 1.444 . S
C387 C390 1.317 . S
C387 H410 0.929 . S
C388 C385 1.432 . S
C388 C386 1.417 . S
C388 N396 1.360 . S
C389 C385 1.414 . S
C389 C387 1.444 . S
C389 C394 1.385 . S
C390 C386 1.432 . S
C390 C387 1.317 . S
C390 H402 0.930 . S
C391 C393 1.392 . S
C391 C394 1.370 . S
C391 H403 0.931 . S
N392 C385 1.359 . S
N392 C393 1.327 . S
N392 Tb395 2.600 . S
C393 C391 1.392 . S
C393 N392 1.327 . S
C393 H400 0.930 . S
C394 C389 1.385 . S
C394 C391 1.370 . S
C394 H413 0.930 . S
Tb395 N392 2.600 . S
Tb395 N396 2.660 . S
Tb395 O429 2.362 1_556 S
Tb395 O430 2.421 1_556 S
Tb395 O434 2.546 . S
Tb395 O435 2.610 1_556 S
Tb395 O437 2.320 . S
Tb395 O438 2.552 . S
Tb395 O439 2.413 . S
Tb395 C459 2.833 . S
N396 C388 1.360 . S
N396 Tb395 2.660 . S
N396 C397 1.305 . S
C397 N396 1.305 . S
C397 C399 1.407 . S
C397 H404 0.930 . S
C398 C386 1.410 . S
C398 C399 1.345 . S
C398 H406 0.930 . S
C399 C397 1.407 . S
C399 C398 1.345 . S
C399 H401 0.930 . S
H400 C393 0.930 . S
H401 C399 0.930 . S
H402 C390 0.930 . S
H403 C391 0.931 . S
H404 C397 0.930 . S
H405 C419 0.930 . S
H406 C398 0.930 . S
H407 C425 0.930 . S
H408 C416 0.930 . S
H409 C423 0.931 . S
H410 C387 0.929 . S
H411 C417 0.930 . S
H412 C450 0.930 . S
H413 C394 0.930 . S
H414 C449 0.929 . S
N415 Tb384 2.660 . S
N415 C416 1.305 . S
N415 C420 1.360 . S
C416 H408 0.930 . S
C416 N415 1.305 . S
C416 C419 1.407 . S
C417 H411 0.930 . S
C417 C418 1.410 . S
C417 C419 1.345 . S
C418 C417 1.410 . S
C418 C420 1.417 . S
C418 C450 1.432 . S
C419 H405 0.930 . S
C419 C416 1.407 . S
C419 C417 1.345 . S
C420 N415 1.360 . S
C420 C418 1.417 . S
C420 C424 1.432 . S
H421 C426 0.930 . S
N422 Tb384 2.600 . S
N422 C424 1.359 . S
N422 C425 1.327 . S
C423 H409 0.931 . S
C423 C425 1.392 . S
C423 C426 1.370 . S
C424 C420 1.432 . S
C424 N422 1.359 . S
C424 C427 1.414 . S
C425 H407 0.930 . S
C425 N422 1.327 . S
C425 C423 1.392 . S
C426 H421 0.930 . S
C426 C423 1.370 . S
C426 C427 1.385 . S
C427 C424 1.414 . S
C427 C426 1.385 . S
C427 C449 1.444 . S
O428 Tb384 2.546 . S
O428 C448 1.251 . S
O429 Tb384 2.610 . S
O429 Tb395 2.362 1_554 S
O429 C440 1.283 . S
O430 Tb395 2.421 1_554 S
O430 C447 1.262 . S
O431 Tb384 2.320 . S
O431 C447 1.260 . S
O432 Tb384 2.552 . S
O432 C440 1.243 . S
O433 Tb384 2.413 . S
O433 C448 1.256 . S
O434 Tb395 2.546 . S
O434 C459 1.251 . S
O435 Tb384 2.362 . S
O435 Tb395 2.610 1_554 S
O435 C451 1.283 1_554 S
O436 Tb384 2.421 . S
O436 C458 1.262 . S
O437 Tb395 2.320 . S
O437 C458 1.260 1_556 S
O438 Tb395 2.552 . S
O438 C451 1.243 . S
O439 Tb395 2.413 . S
O439 C459 1.256 . S
C440 O429 1.283 . S
C440 O432 1.243 . S
C441 C443 1.382 . S
C441 C445 1.393 . S
C441 C448 1.500 . S
C442 C443 1.400 . S
C442 C444 1.384 . S
C443 C441 1.382 . S
C443 C442 1.400 . S
C443 H460 0.930 . S
C444 C442 1.384 . S
C444 C446 1.392 . S
C444 H461 0.931 . S
C445 C441 1.393 . S
C445 C446 1.401 . S
C445 H462 0.930 . S
C446 C444 1.392 . S
C446 C445 1.401 . S
C446 H463 0.930 . S
C447 O430 1.262 . S
C447 O431 1.260 . S
C448 Tb384 2.833 . S
C448 O428 1.251 . S
C448 O433 1.256 . S
C448 C441 1.500 . S
C449 H414 0.929 . S
C449 C427 1.444 . S
C449 C450 1.317 . S
C450 H412 0.930 . S
C450 C418 1.432 . S
C450 C449 1.317 . S
C451 O435 1.283 1_556 S
C451 O438 1.243 . S
C452 C453 1.382 . S
C452 C456 1.393 . S
C452 C459 1.500 . S
C453 C452 1.382 . S
C453 C454 1.400 . S
C453 H464 0.930 . S
C454 C453 1.400 . S
C454 C455 1.384 . S
C455 C454 1.384 . S
C455 C457 1.392 . S
C455 H465 0.931 . S
C456 C452 1.393 . S
C456 C457 1.401 . S
C456 H466 0.930 . S
C457 C455 1.392 . S
C457 C456 1.401 . S
C457 H467 0.930 . S
C458 O436 1.262 . S
C458 O437 1.260 1_554 S
C459 Tb395 2.833 . S
C459 O434 1.251 . S
C459 O439 1.256 . S
C459 C452 1.500 . S
H460 C443 0.930 . S
H461 C444 0.931 . S
H462 C445 0.930 . S
H463 C446 0.930 . S
H464 C453 0.930 . S
H465 C455 0.931 . S
H466 C456 0.930 . S
H467 C457 0.930 . S
Tb468 N499 2.660 . S
Tb468 N506 2.600 . S
Tb468 O512 2.546 . S
Tb468 O513 2.610 . S
Tb468 O515 2.320 . S
Tb468 O516 2.552 . S
Tb468 O517 2.413 . S
Tb468 O519 2.362 . S
Tb468 O520 2.421 . S
Tb468 C532 2.833 . S
C469 C472 1.432 . S
C469 C473 1.414 . S
C469 N476 1.359 . S
C470 C472 1.417 . S
C470 C474 1.432 . S
C470 C482 1.410 . S
C471 C473 1.444 . S
C471 C474 1.317 . S
C471 H494 0.929 . S
C472 C469 1.432 . S
C472 C470 1.417 . S
C472 N480 1.360 . S
C473 C469 1.414 . S
C473 C471 1.444 . S
C473 C478 1.385 . S
C474 C470 1.432 . S
C474 C471 1.317 . S
C474 H486 0.930 . S
C475 C477 1.392 . S
C475 C478 1.370 . S
C475 H487 0.931 . S
N476 C469 1.359 . S
N476 C477 1.327 . S
N476 Tb479 2.600 . S
C477 C475 1.392 . S
C477 N476 1.327 . S
C477 H484 0.930 . S
C478 C473 1.385 . S
C478 C475 1.370 . S
C478 H497 0.930 . S
Tb479 N476 2.600 . S
Tb479 N480 2.660 . S
Tb479 O513 2.362 . S
Tb479 O514 2.421 . S
Tb479 O518 2.546 . S
Tb479 O519 2.610 . S
Tb479 O521 2.320 . S
Tb479 O522 2.552 . S
Tb479 O523 2.413 . S
Tb479 C543 2.833 . S
N480 C472 1.360 . S
N480 Tb479 2.660 . S
N480 C481 1.305 . S
C481 N480 1.305 . S
C481 C483 1.407 . S
C481 H488 0.930 . S
C482 C470 1.410 . S
C482 C483 1.345 . S
C482 H490 0.930 . S
C483 C481 1.407 . S
C483 C482 1.345 . S
C483 H485 0.930 . S
H484 C477 0.930 . S
H485 C483 0.930 . S
H486 C474 0.930 . S
H487 C475 0.931 . S
H488 C481 0.930 . S
H489 C503 0.930 . S
H490 C482 0.930 . S
H491 C509 0.930 . S
H492 C500 0.930 . S
H493 C507 0.931 . S
H494 C471 0.929 . S
H495 C501 0.930 1_655 S
H496 C534 0.938 . S
H497 C478 0.930 . S
H498 C533 0.929 . S
N499 Tb468 2.660 . S
N499 C500 1.305 . S
N499 C504 1.360 . S
C500 H492 0.930 . S
C500 N499 1.305 . S
C500 C503 1.407 . S
C501 H495 0.930 1_455 S
C501 C502 1.410 . S
C501 C503 1.345 . S
C502 C501 1.410 . S
C502 C504 1.417 . S
C502 C534 1.432 . S
C503 H489 0.930 . S
C503 C500 1.407 . S
C503 C501 1.345 . S
C504 N499 1.360 . S
C504 C502 1.417 . S
C504 C508 1.432 . S
H505 C510 0.930 . S
N506 Tb468 2.600 . S
N506 C508 1.359 . S
N506 C509 1.327 . S
C507 H493 0.931 . S
C507 C509 1.392 . S
C507 C510 1.370 . S
C508 C504 1.432 . S
C508 N506 1.359 . S
C508 C511 1.414 . S
C509 H491 0.930 . S
C509 N506 1.327 . S
C509 C507 1.392 . S
C510 H505 0.930 . S
C510 C507 1.370 . S
C510 C511 1.385 . S
C511 C508 1.414 . S
C511 C510 1.385 . S
C511 C533 1.444 . S
O512 Tb468 2.546 . S
O512 C532 1.251 . S
O513 Tb468 2.610 . S
O513 Tb479 2.362 . S
O513 C524 1.283 . S
O514 Tb479 2.421 . S
O514 C531 1.262 . S
O515 Tb468 2.320 . S
O515 C531 1.260 . S
O516 Tb468 2.552 . S
O516 C524 1.243 . S
O517 Tb468 2.413 . S
O517 C532 1.256 . S
O518 Tb479 2.546 . S
O518 C543 1.251 . S
O519 Tb468 2.362 . S
O519 Tb479 2.610 . S
O519 C535 1.283 . S
O520 Tb468 2.421 . S
O520 C542 1.262 . S
O521 Tb479 2.320 . S
O521 C542 1.260 . S
O522 Tb479 2.552 . S
O522 C535 1.243 . S
O523 Tb479 2.413 . S
O523 C543 1.256 . S
C524 O513 1.283 . S
C524 O516 1.243 . S
C525 C527 1.382 . S
C525 C529 1.393 . S
C525 C532 1.500 . S
C526 C527 1.400 . S
C526 C528 1.384 . S
C527 C525 1.382 . S
C527 C526 1.400 . S
C527 H544 0.930 . S
C528 C526 1.384 . S
C528 C530 1.392 . S
C528 H545 0.931 . S
C529 C525 1.393 . S
C529 C530 1.401 . S
C529 H546 0.930 . S
C530 C528 1.392 . S
C530 C529 1.401 . S
C530 H547 0.930 . S
C531 O514 1.262 . S
C531 O515 1.260 . S
C532 Tb468 2.833 . S
C532 O512 1.251 . S
C532 O517 1.256 . S
C532 C525 1.500 . S
C533 H498 0.929 . S
C533 C511 1.444 . S
C533 C534 1.317 . S
C534 H496 0.938 . S
C534 C502 1.432 . S
C534 C533 1.317 . S
C535 O519 1.283 . S
C535 O522 1.243 . S
C536 C537 1.382 . S
C536 C540 1.393 . S
C536 C543 1.500 . S
C537 C536 1.382 . S
C537 C538 1.400 . S
C537 H548 0.930 . S
C538 C537 1.400 . S
C538 C539 1.384 . S
C539 C538 1.384 . S
C539 C541 1.392 . S
C539 H549 0.931 . S
C540 C536 1.393 . S
C540 C541 1.401 . S
C540 H550 0.930 . S
C541 C539 1.392 . S
C541 C540 1.401 . S
C541 H551 0.930 . S
C542 O520 1.262 . S
C542 O521 1.260 . S
C543 Tb479 2.833 . S
C543 O518 1.251 . S
C543 O523 1.256 . S
C543 C536 1.500 . S
H544 C527 0.930 . S
H545 C528 0.931 . S
H546 C529 0.930 . S
H547 C530 0.930 . S
H548 C537 0.930 . S
H549 C539 0.931 . S
H550 C540 0.930 . S
H551 C541 0.930 . S
Tb552 N583 2.660 . S
Tb552 N590 2.600 . S
Tb552 O596 2.546 . S
Tb552 O597 2.610 . S
Tb552 O599 2.320 . S
Tb552 O600 2.552 . S
Tb552 O601 2.413 . S
Tb552 O603 2.362 . S
Tb552 O604 2.421 . S
Tb552 C616 2.833 . S
C553 C556 1.432 . S
C553 C557 1.414 . S
C553 N560 1.359 . S
C554 C556 1.417 . S
C554 C558 1.432 . S
C554 C566 1.410 . S
C555 C557 1.444 . S
C555 C558 1.317 . S
C555 H578 0.929 . S
C556 C553 1.432 . S
C556 C554 1.417 . S
C556 N564 1.360 . S
C557 C553 1.414 . S
C557 C555 1.444 . S
C557 C562 1.385 . S
C558 C554 1.432 . S
C558 C555 1.317 . S
C558 H570 0.930 . S
C559 C561 1.392 . S
C559 C562 1.370 . S
C559 H571 0.931 . S
N560 C553 1.359 . S
N560 C561 1.327 . S
N560 Tb563 2.600 . S
C561 C559 1.392 . S
C561 N560 1.327 . S
C561 H568 0.930 . S
C562 C557 1.385 . S
C562 C559 1.370 . S
C562 H581 0.930 . S
Tb563 N560 2.600 . S
Tb563 N564 2.660 . S
Tb563 O597 2.362 . S
Tb563 O598 2.421 . S
Tb563 O602 2.546 . S
Tb563 O603 2.610 . S
Tb563 O605 2.320 . S
Tb563 O606 2.552 . S
Tb563 O607 2.413 . S
Tb563 C627 2.833 . S
N564 C556 1.360 . S
N564 Tb563 2.660 . S
N564 C565 1.305 . S
C565 N564 1.305 . S
C565 C567 1.407 . S
C565 H572 0.930 . S
C566 C554 1.410 . S
C566 C567 1.345 . S
C566 H574 0.930 . S
C567 C565 1.407 . S
C567 C566 1.345 . S
C567 H569 0.930 . S
H568 C561 0.930 . S
H569 C567 0.930 . S
H570 C558 0.930 . S
H571 C559 0.931 . S
H572 C565 0.930 . S
H573 C587 0.930 . S
H574 C566 0.930 . S
H575 C593 0.930 . S
H576 C584 0.930 . S
H577 C591 0.931 . S
H578 C555 0.929 . S
H579 C585 0.930 . S
H580 C618 0.930 . S
H581 C562 0.930 . S
H582 C617 0.929 . S
N583 Tb552 2.660 . S
N583 C584 1.305 . S
N583 C588 1.360 . S
C584 H576 0.930 . S
C584 N583 1.305 . S
C584 C587 1.407 . S
C585 H579 0.930 . S
C585 C586 1.410 . S
C585 C587 1.345 . S
C586 C585 1.410 . S
C586 C588 1.417 . S
C586 C618 1.432 . S
C587 H573 0.930 . S
C587 C584 1.407 . S
C587 C585 1.345 . S
C588 N583 1.360 . S
C588 C586 1.417 . S
C588 C592 1.432 . S
H589 C594 0.930 . S
N590 Tb552 2.600 . S
N590 C592 1.359 . S
N590 C593 1.327 . S
C591 H577 0.931 . S
C591 C593 1.392 . S
C591 C594 1.370 . S
C592 C588 1.432 . S
C592 N590 1.359 . S
C592 C595 1.414 . S
C593 H575 0.930 . S
C593 N590 1.327 . S
C593 C591 1.392 . S
C594 H589 0.930 . S
C594 C591 1.370 . S
C594 C595 1.385 . S
C595 C592 1.414 . S
C595 C594 1.385 . S
C595 C617 1.444 . S
O596 Tb552 2.546 . S
O596 C616 1.251 . S
O597 Tb552 2.610 . S
O597 Tb563 2.362 . S
O597 C608 1.283 . S
O598 Tb563 2.421 . S
O598 C615 1.262 . S
O599 Tb552 2.320 . S
O599 C615 1.260 . S
O600 Tb552 2.552 . S
O600 C608 1.243 . S
O601 Tb552 2.413 . S
O601 C616 1.256 . S
O602 Tb563 2.546 . S
O602 C627 1.251 . S
O603 Tb552 2.362 . S
O603 Tb563 2.610 . S
O603 C619 1.283 . S
O604 Tb552 2.421 . S
O604 C626 1.262 . S
O605 Tb563 2.320 . S
O605 C626 1.260 . S
O606 Tb563 2.552 . S
O606 C619 1.243 . S
O607 Tb563 2.413 . S
O607 C627 1.256 . S
C608 O597 1.283 . S
C608 O600 1.243 . S
C609 C611 1.382 . S
C609 C613 1.393 . S
C609 C616 1.500 . S
C610 C611 1.400 . S
C610 C612 1.384 . S
C611 C609 1.382 . S
C611 C610 1.400 . S
C611 H628 0.930 . S
C612 C610 1.384 . S
C612 C614 1.392 . S
C612 H629 0.931 . S
C613 C609 1.393 . S
C613 C614 1.401 . S
C613 H630 0.930 . S
C614 C612 1.392 . S
C614 C613 1.401 . S
C614 H631 0.930 . S
C615 O598 1.262 . S
C615 O599 1.260 . S
C616 Tb552 2.833 . S
C616 O596 1.251 . S
C616 O601 1.256 . S
C616 C609 1.500 . S
C617 H582 0.929 . S
C617 C595 1.444 . S
C617 C618 1.317 . S
C618 H580 0.930 . S
C618 C586 1.432 . S
C618 C617 1.317 . S
C619 O603 1.283 . S
C619 O606 1.243 . S
C620 C621 1.382 . S
C620 C624 1.393 . S
C620 C627 1.500 . S
C621 C620 1.382 . S
C621 C622 1.400 . S
C621 H632 0.930 . S
C622 C621 1.400 . S
C622 C623 1.384 . S
C623 C622 1.384 . S
C623 C625 1.392 . S
C623 H633 0.931 . S
C624 C620 1.393 . S
C624 C625 1.401 . S
C624 H634 0.930 . S
C625 C623 1.392 . S
C625 C624 1.401 . S
C625 H635 0.930 . S
C626 O604 1.262 . S
C626 O605 1.260 . S
C627 Tb563 2.833 . S
C627 O602 1.251 . S
C627 O607 1.256 . S
C627 C620 1.500 . S
H628 C611 0.930 . S
H629 C612 0.931 . S
H630 C613 0.930 . S
H631 C614 0.930 . S
H632 C621 0.930 . S
H633 C623 0.931 . S
H634 C624 0.930 . S
H635 C625 0.930 . S
Tb636 N667 2.660 . S
Tb636 N674 2.600 . S
Tb636 O680 2.546 . S
Tb636 O681 2.610 . S
Tb636 O683 2.320 . S
Tb636 O684 2.552 . S
Tb636 O685 2.413 . S
Tb636 O687 2.362 . S
Tb636 O688 2.421 . S
Tb636 C700 2.833 . S
C637 C640 1.432 . S
C637 C641 1.414 . S
C637 N644 1.359 . S
C638 C640 1.417 . S
C638 C642 1.432 . S
C638 C650 1.410 . S
C639 C641 1.444 . S
C639 C642 1.317 . S
C639 H662 0.929 . S
C640 C637 1.432 . S
C640 C638 1.417 . S
C640 N648 1.360 . S
C641 C637 1.414 . S
C641 C639 1.444 . S
C641 C646 1.385 . S
C642 C638 1.432 . S
C642 C639 1.317 . S
C642 H654 0.930 . S
C643 C645 1.392 . S
C643 C646 1.370 . S
C643 H655 0.931 . S
N644 C637 1.359 . S
N644 C645 1.327 . S
N644 Tb647 2.600 . S
C645 C643 1.392 . S
C645 N644 1.327 . S
C645 H652 0.930 . S
C646 C641 1.385 . S
C646 C643 1.370 . S
C646 H665 0.930 . S
Tb647 N644 2.600 . S
Tb647 N648 2.660 . S
Tb647 O681 2.362 . S
Tb647 O682 2.421 . S
Tb647 O686 2.546 . S
Tb647 O687 2.610 . S
Tb647 O689 2.320 . S
Tb647 O690 2.552 . S
Tb647 O691 2.413 . S
Tb647 C711 2.833 . S
N648 C640 1.360 . S
N648 Tb647 2.660 . S
N648 C649 1.305 . S
C649 N648 1.305 . S
C649 C651 1.407 . S
C649 H656 0.930 . S
C650 C638 1.410 . S
C650 C651 1.345 . S
C650 H658 0.930 . S
C651 C649 1.407 . S
C651 C650 1.345 . S
C651 H653 0.930 . S
H652 C645 0.930 . S
H653 C651 0.930 . S
H654 C642 0.930 . S
H655 C643 0.931 . S
H656 C649 0.930 . S
H657 C671 0.930 . S
H658 C650 0.930 . S
H659 C677 0.930 . S
H660 C668 0.930 . S
H661 C675 0.931 . S
H662 C639 0.929 . S
H663 C669 0.930 . S
H664 C702 0.930 . S
H665 C646 0.930 . S
H666 C701 0.929 . S
N667 Tb636 2.660 . S
N667 C668 1.305 . S
N667 C672 1.360 . S
C668 H660 0.930 . S
C668 N667 1.305 . S
C668 C671 1.407 . S
C669 H663 0.930 . S
C669 C670 1.410 . S
C669 C671 1.345 . S
C670 C669 1.410 . S
C670 C672 1.417 . S
C670 C702 1.432 . S
C671 H657 0.930 . S
C671 C668 1.407 . S
C671 C669 1.345 . S
C672 N667 1.360 . S
C672 C670 1.417 . S
C672 C676 1.432 . S
H673 C678 0.930 . S
N674 Tb636 2.600 . S
N674 C676 1.359 . S
N674 C677 1.327 . S
C675 H661 0.931 . S
C675 C677 1.392 . S
C675 C678 1.370 . S
C676 C672 1.432 . S
C676 N674 1.359 . S
C676 C679 1.414 . S
C677 H659 0.930 . S
C677 N674 1.327 . S
C677 C675 1.392 . S
C678 H673 0.930 . S
C678 C675 1.370 . S
C678 C679 1.385 . S
C679 C676 1.414 . S
C679 C678 1.385 . S
C679 C701 1.444 . S
O680 Tb636 2.546 . S
O680 C700 1.251 . S
O681 Tb636 2.610 . S
O681 Tb647 2.362 . S
O681 C692 1.283 . S
O682 Tb647 2.421 . S
O682 C699 1.262 . S
O683 Tb636 2.320 . S
O683 C699 1.260 . S
O684 Tb636 2.552 . S
O684 C692 1.243 . S
O685 Tb636 2.413 . S
O685 C700 1.256 . S
O686 Tb647 2.546 . S
O686 C711 1.251 . S
O687 Tb636 2.362 . S
O687 Tb647 2.610 . S
O687 C703 1.283 . S
O688 Tb636 2.421 . S
O688 C710 1.262 . S
O689 Tb647 2.320 . S
O689 C710 1.260 . S
O690 Tb647 2.552 . S
O690 C703 1.243 . S
O691 Tb647 2.413 . S
O691 C711 1.256 . S
C692 O681 1.283 . S
C692 O684 1.243 . S
C693 C695 1.382 . S
C693 C697 1.393 . S
C693 C700 1.500 . S
C694 C695 1.400 . S
C694 C696 1.384 . S
C695 C693 1.382 . S
C695 C694 1.400 . S
C695 H712 0.930 . S
C696 C694 1.384 . S
C696 C698 1.392 . S
C696 H713 0.931 . S
C697 C693 1.393 . S
C697 C698 1.401 . S
C697 H714 0.930 . S
C698 C696 1.392 . S
C698 C697 1.401 . S
C698 H715 0.930 . S
C699 O682 1.262 . S
C699 O683 1.260 . S
C700 Tb636 2.833 . S
C700 O680 1.251 . S
C700 O685 1.256 . S
C700 C693 1.500 . S
C701 H666 0.929 . S
C701 C679 1.444 . S
C701 C702 1.317 . S
C702 H664 0.930 . S
C702 C670 1.432 . S
C702 C701 1.317 . S
C703 O687 1.283 . S
C703 O690 1.243 . S
C704 C705 1.382 . S
C704 C708 1.393 . S
C704 C711 1.500 . S
C705 C704 1.382 . S
C705 C706 1.400 . S
C705 H716 0.930 . S
C706 C705 1.400 . S
C706 C707 1.384 . S
C707 C706 1.384 . S
C707 C709 1.392 . S
C707 H717 0.931 . S
C708 C704 1.393 . S
C708 C709 1.401 . S
C708 H718 0.930 . S
C709 C707 1.392 . S
C709 C708 1.401 . S
C709 H719 0.930 . S
C710 O688 1.262 . S
C710 O689 1.260 . S
C711 Tb647 2.833 . S
C711 O686 1.251 . S
C711 O691 1.256 . S
C711 C704 1.500 . S
H712 C695 0.930 . S
H713 C696 0.931 . S
H714 C697 0.930 . S
H715 C698 0.930 . S
H716 C705 0.930 . S
H717 C707 0.931 . S
H718 C708 0.930 . S
H719 C709 0.930 . S
Tb720 N751 2.660 . S
Tb720 N758 2.600 . S
Tb720 O764 2.546 . S
Tb720 O765 2.610 . S
Tb720 O767 2.320 . S
Tb720 O768 2.552 . S
Tb720 O769 2.413 . S
Tb720 O771 2.362 . S
Tb720 O772 2.421 . S
Tb720 C784 2.833 . S
C721 C724 1.432 . S
C721 C725 1.414 . S
C721 N728 1.359 . S
C722 C724 1.417 . S
C722 C726 1.432 . S
C722 C734 1.410 . S
C723 C725 1.444 . S
C723 C726 1.317 . S
C723 H746 0.929 . S
C724 C721 1.432 . S
C724 C722 1.417 . S
C724 N732 1.360 . S
C725 C721 1.414 . S
C725 C723 1.444 . S
C725 C730 1.385 . S
C726 C722 1.432 . S
C726 C723 1.317 . S
C726 H738 0.930 . S
C727 C729 1.392 . S
C727 C730 1.370 . S
C727 H739 0.931 . S
N728 C721 1.359 . S
N728 C729 1.327 . S
N728 Tb731 2.600 . S
C729 C727 1.392 . S
C729 N728 1.327 . S
C729 H736 0.930 . S
C730 C725 1.385 . S
C730 C727 1.370 . S
C730 H749 0.930 . S
Tb731 N728 2.600 . S
Tb731 N732 2.660 . S
Tb731 O765 2.362 . S
Tb731 O766 2.421 . S
Tb731 O770 2.546 . S
Tb731 O771 2.610 . S
Tb731 O773 2.320 . S
Tb731 O774 2.552 . S
Tb731 O775 2.413 . S
Tb731 C795 2.833 . S
N732 C724 1.360 . S
N732 Tb731 2.660 . S
N732 C733 1.305 . S
C733 N732 1.305 . S
C733 C735 1.407 . S
C733 H740 0.930 . S
C734 C722 1.410 . S
C734 C735 1.345 . S
C734 H742 0.930 . S
C735 C733 1.407 . S
C735 C734 1.345 . S
C735 H737 0.930 . S
H736 C729 0.930 . S
H737 C735 0.930 . S
H738 C726 0.930 . S
H739 C727 0.931 . S
H740 C733 0.930 . S
H741 C755 0.930 . S
H742 C734 0.930 . S
H743 C761 0.930 . S
H744 C752 0.930 . S
H745 C759 0.931 . S
H746 C723 0.929 . S
H747 C753 0.930 . S
H748 C786 0.930 . S
H749 C730 0.930 . S
H750 C785 0.929 . S
N751 Tb720 2.660 . S
N751 C752 1.305 . S
N751 C756 1.360 . S
C752 H744 0.930 . S
C752 N751 1.305 . S
C752 C755 1.407 . S
C753 H747 0.930 . S
C753 C754 1.410 . S
C753 C755 1.345 . S
C754 C753 1.410 . S
C754 C756 1.417 . S
C754 C786 1.432 . S
C755 H741 0.930 . S
C755 C752 1.407 . S
C755 C753 1.345 . S
C756 N751 1.360 . S
C756 C754 1.417 . S
C756 C760 1.432 . S
H757 C762 0.930 . S
N758 Tb720 2.600 . S
N758 C760 1.359 . S
N758 C761 1.327 . S
C759 H745 0.931 . S
C759 C761 1.392 . S
C759 C762 1.370 . S
C760 C756 1.432 . S
C760 N758 1.359 . S
C760 C763 1.414 . S
C761 H743 0.930 . S
C761 N758 1.327 . S
C761 C759 1.392 . S
C762 H757 0.930 . S
C762 C759 1.370 . S
C762 C763 1.385 . S
C763 C760 1.414 . S
C763 C762 1.385 . S
C763 C785 1.444 . S
O764 Tb720 2.546 . S
O764 C784 1.251 . S
O765 Tb720 2.610 . S
O765 Tb731 2.362 . S
O765 C776 1.283 . S
O766 Tb731 2.421 . S
O766 C783 1.262 . S
O767 Tb720 2.320 . S
O767 C783 1.260 . S
O768 Tb720 2.552 . S
O768 C776 1.243 . S
O769 Tb720 2.413 . S
O769 C784 1.256 . S
O770 Tb731 2.546 . S
O770 C795 1.251 . S
O771 Tb720 2.362 . S
O771 Tb731 2.610 . S
O771 C787 1.283 . S
O772 Tb720 2.421 . S
O772 C794 1.262 . S
O773 Tb731 2.320 . S
O773 C794 1.260 . S
O774 Tb731 2.552 . S
O774 C787 1.243 . S
O775 Tb731 2.413 . S
O775 C795 1.256 . S
C776 O765 1.283 . S
C776 O768 1.243 . S
C777 C779 1.382 . S
C777 C781 1.393 . S
C777 C784 1.500 . S
C778 C779 1.400 . S
C778 C780 1.384 . S
C779 C777 1.382 . S
C779 C778 1.400 . S
C779 H796 0.930 . S
C780 C778 1.384 . S
C780 C782 1.392 . S
C780 H797 0.931 . S
C781 C777 1.393 . S
C781 C782 1.401 . S
C781 H798 0.930 . S
C782 C780 1.392 . S
C782 C781 1.401 . S
C782 H799 0.930 . S
C783 O766 1.262 . S
C783 O767 1.260 . S
C784 Tb720 2.833 . S
C784 O764 1.251 . S
C784 O769 1.256 . S
C784 C777 1.500 . S
C785 H750 0.929 . S
C785 C763 1.444 . S
C785 C786 1.317 . S
C786 H748 0.930 . S
C786 C754 1.432 . S
C786 C785 1.317 . S
C787 O771 1.283 . S
C787 O774 1.243 . S
C788 C789 1.382 . S
C788 C792 1.393 . S
C788 C795 1.500 . S
C789 C788 1.382 . S
C789 C790 1.400 . S
C789 H800 0.930 . S
C790 C789 1.400 . S
C790 C791 1.384 . S
C791 C790 1.384 . S
C791 C793 1.392 . S
C791 H801 0.931 . S
C792 C788 1.393 . S
C792 C793 1.401 . S
C792 H802 0.930 . S
C793 C791 1.392 . S
C793 C792 1.401 . S
C793 H803 0.930 . S
C794 O772 1.262 . S
C794 O773 1.260 . S
C795 Tb731 2.833 . S
C795 O770 1.251 . S
C795 O775 1.256 . S
C795 C788 1.500 . S
H796 C779 0.930 . S
H797 C780 0.931 . S
H798 C781 0.930 . S
H799 C782 0.930 . S
H800 C789 0.930 . S
H801 C791 0.931 . S
H802 C792 0.930 . S
H803 C793 0.930 . S
Tb804 N835 2.660 . S
Tb804 N842 2.600 . S
Tb804 O848 2.546 . S
Tb804 O849 2.610 . S
Tb804 O851 2.320 . S
Tb804 O852 2.552 . S
Tb804 O853 2.413 . S
Tb804 O855 2.362 . S
Tb804 O856 2.421 . S
Tb804 C868 2.833 . S
C805 C808 1.432 . S
C805 C809 1.414 . S
C805 N812 1.359 . S
C806 C808 1.417 . S
C806 C810 1.432 . S
C806 C818 1.410 . S
C807 C809 1.444 . S
C807 C810 1.317 . S
C807 H830 0.929 . S
C808 C805 1.432 . S
C808 C806 1.417 . S
C808 N816 1.360 . S
C809 C805 1.414 . S
C809 C807 1.444 . S
C809 C814 1.385 . S
C810 C806 1.432 . S
C810 C807 1.317 . S
C810 H822 0.930 . S
C811 C813 1.392 . S
C811 C814 1.370 . S
C811 H823 0.931 . S
N812 C805 1.359 . S
N812 C813 1.327 . S
N812 Tb815 2.600 . S
C813 C811 1.392 . S
C813 N812 1.327 . S
C813 H820 0.930 . S
C814 C809 1.385 . S
C814 C811 1.370 . S
C814 H833 0.930 . S
Tb815 N812 2.600 . S
Tb815 N816 2.660 . S
Tb815 O849 2.362 . S
Tb815 O850 2.421 . S
Tb815 O854 2.546 . S
Tb815 O855 2.610 . S
Tb815 O857 2.320 . S
Tb815 O858 2.552 . S
Tb815 O859 2.413 . S
Tb815 C879 2.833 . S
N816 C808 1.360 . S
N816 Tb815 2.660 . S
N816 C817 1.305 . S
C817 N816 1.305 . S
C817 C819 1.407 . S
C817 H824 0.930 . S
C818 C806 1.410 . S
C818 C819 1.345 . S
C818 H826 0.930 . S
C819 C817 1.407 . S
C819 C818 1.345 . S
C819 H821 0.930 . S
H820 C813 0.930 . S
H821 C819 0.930 . S
H822 C810 0.930 . S
H823 C811 0.931 . S
H824 C817 0.930 . S
H825 C839 0.930 . S
H826 C818 0.930 . S
H827 C845 0.930 . S
H828 C836 0.930 . S
H829 C843 0.931 . S
H830 C807 0.929 . S
H831 C837 0.930 . S
H832 C870 0.930 . S
H833 C814 0.930 . S
H834 C869 0.929 . S
N835 Tb804 2.660 . S
N835 C836 1.305 . S
N835 C840 1.360 . S
C836 H828 0.930 . S
C836 N835 1.305 . S
C836 C839 1.407 . S
C837 H831 0.930 . S
C837 C838 1.410 . S
C837 C839 1.345 . S
C838 C837 1.410 . S
C838 C840 1.417 . S
C838 C870 1.432 . S
C839 H825 0.930 . S
C839 C836 1.407 . S
C839 C837 1.345 . S
C840 N835 1.360 . S
C840 C838 1.417 . S
C840 C844 1.432 . S
H841 C846 0.930 . S
N842 Tb804 2.600 . S
N842 C844 1.359 . S
N842 C845 1.327 . S
C843 H829 0.931 . S
C843 C845 1.392 . S
C843 C846 1.370 . S
C844 C840 1.432 . S
C844 N842 1.359 . S
C844 C847 1.414 . S
C845 H827 0.930 . S
C845 N842 1.327 . S
C845 C843 1.392 . S
C846 H841 0.930 . S
C846 C843 1.370 . S
C846 C847 1.385 . S
C847 C844 1.414 . S
C847 C846 1.385 . S
C847 C869 1.444 . S
O848 Tb804 2.546 . S
O848 C868 1.251 . S
O849 Tb804 2.610 . S
O849 Tb815 2.362 . S
O849 C860 1.283 . S
O850 Tb815 2.421 . S
O850 C867 1.262 . S
O851 Tb804 2.320 . S
O851 C867 1.260 . S
O852 Tb804 2.552 . S
O852 C860 1.243 . S
O853 Tb804 2.413 . S
O853 C868 1.256 . S
O854 Tb815 2.546 . S
O854 C879 1.251 . S
O855 Tb804 2.362 . S
O855 Tb815 2.610 . S
O855 C871 1.283 . S
O856 Tb804 2.421 . S
O856 C878 1.262 . S
O857 Tb815 2.320 . S
O857 C878 1.260 . S
O858 Tb815 2.552 . S
O858 C871 1.243 . S
O859 Tb815 2.413 . S
O859 C879 1.256 . S
C860 O849 1.283 . S
C860 O852 1.243 . S
C861 C863 1.382 . S
C861 C865 1.393 . S
C861 C868 1.500 . S
C862 C863 1.400 . S
C862 C864 1.384 . S
C863 C861 1.382 . S
C863 C862 1.400 . S
C863 H880 0.930 . S
C864 C862 1.384 . S
C864 C866 1.392 . S
C864 H881 0.931 . S
C865 C861 1.393 . S
C865 C866 1.401 . S
C865 H882 0.930 . S
C866 C864 1.392 . S
C866 C865 1.401 . S
C866 H883 0.930 . S
C867 O850 1.262 . S
C867 O851 1.260 . S
C868 Tb804 2.833 . S
C868 O848 1.251 . S
C868 O853 1.256 . S
C868 C861 1.500 . S
C869 H834 0.929 . S
C869 C847 1.444 . S
C869 C870 1.317 . S
C870 H832 0.930 . S
C870 C838 1.432 . S
C870 C869 1.317 . S
C871 O855 1.283 . S
C871 O858 1.243 . S
C872 C873 1.382 . S
C872 C876 1.393 . S
C872 C879 1.500 . S
C873 C872 1.382 . S
C873 C874 1.400 . S
C873 H884 0.930 . S
C874 C873 1.400 . S
C874 C875 1.384 . S
C875 C874 1.384 . S
C875 C877 1.392 . S
C875 H885 0.931 . S
C876 C872 1.393 . S
C876 C877 1.401 . S
C876 H886 0.930 . S
C877 C875 1.392 . S
C877 C876 1.401 . S
C877 H887 0.930 . S
C878 O856 1.262 . S
C878 O857 1.260 . S
C879 Tb815 2.833 . S
C879 O854 1.251 . S
C879 O859 1.256 . S
C879 C872 1.500 . S
H880 C863 0.930 . S
H881 C864 0.931 . S
H882 C865 0.930 . S
H883 C866 0.930 . S
H884 C873 0.930 . S
H885 C875 0.931 . S
H886 C876 0.930 . S
H887 C877 0.930 . S
Tb888 N919 2.660 . S
Tb888 N926 2.600 . S
Tb888 O932 2.546 . S
Tb888 O933 2.610 . S
Tb888 O935 2.320 . S
Tb888 O936 2.552 . S
Tb888 O937 2.413 . S
Tb888 O939 2.362 . S
Tb888 O940 2.421 . S
Tb888 C952 2.833 . S
C889 C892 1.432 . S
C889 C893 1.414 . S
C889 N896 1.359 . S
C890 C892 1.417 . S
C890 C894 1.432 . S
C890 C902 1.410 . S
C891 C893 1.444 . S
C891 C894 1.317 . S
C891 H914 0.929 . S
C892 C889 1.432 . S
C892 C890 1.417 . S
C892 N900 1.360 . S
C893 C889 1.414 . S
C893 C891 1.444 . S
C893 C898 1.385 . S
C894 C890 1.432 . S
C894 C891 1.317 . S
C894 H906 0.930 . S
C895 C897 1.392 . S
C895 C898 1.370 . S
C895 H907 0.931 . S
N896 C889 1.359 . S
N896 C897 1.327 . S
N896 Tb899 2.600 . S
C897 C895 1.392 . S
C897 N896 1.327 . S
C897 H904 0.930 . S
C898 C893 1.385 . S
C898 C895 1.370 . S
C898 H917 0.930 . S
Tb899 N896 2.600 . S
Tb899 N900 2.660 . S
Tb899 O933 2.362 . S
Tb899 O934 2.421 . S
Tb899 O938 2.546 . S
Tb899 O939 2.610 . S
Tb899 O941 2.320 . S
Tb899 O942 2.552 . S
Tb899 O943 2.413 . S
Tb899 C963 2.833 . S
N900 C892 1.360 . S
N900 Tb899 2.660 . S
N900 C901 1.305 . S
C901 N900 1.305 . S
C901 C903 1.407 . S
C901 H908 0.930 . S
C902 C890 1.410 . S
C902 C903 1.345 . S
C902 H910 0.930 . S
C903 C901 1.407 . S
C903 C902 1.345 . S
C903 H905 0.930 . S
H904 C897 0.930 . S
H905 C903 0.930 . S
H906 C894 0.930 . S
H907 C895 0.931 . S
H908 C901 0.930 . S
H909 C923 0.930 . S
H910 C902 0.930 . S
H911 C929 0.930 . S
H912 C920 0.930 . S
H913 C927 0.931 . S
H914 C891 0.929 . S
H915 C921 0.930 1_455 S
H916 C954 0.930 1_455 S
H917 C898 0.930 . S
H918 C953 0.929 . S
N919 Tb888 2.660 . S
N919 C920 1.305 . S
N919 C924 1.360 . S
C920 H912 0.930 . S
C920 N919 1.305 . S
C920 C923 1.407 . S
C921 H915 0.930 1_655 S
C921 C922 1.410 . S
C921 C923 1.345 . S
C922 C921 1.410 . S
C922 C924 1.417 . S
C922 C954 1.432 . S
C923 H909 0.930 . S
C923 C920 1.407 . S
C923 C921 1.345 . S
C924 N919 1.360 . S
C924 C922 1.417 . S
C924 C928 1.432 . S
H925 C930 0.930 . S
N926 Tb888 2.600 . S
N926 C928 1.359 . S
N926 C929 1.327 . S
C927 H913 0.931 . S
C927 C929 1.392 . S
C927 C930 1.370 . S
C928 C924 1.432 . S
C928 N926 1.359 . S
C928 C931 1.414 . S
C929 H911 0.930 . S
C929 N926 1.327 . S
C929 C927 1.392 . S
C930 H925 0.930 . S
C930 C927 1.370 . S
C930 C931 1.385 . S
C931 C928 1.414 . S
C931 C930 1.385 . S
C931 C953 1.444 . S
O932 Tb888 2.546 . S
O932 C952 1.251 . S
O933 Tb888 2.610 . S
O933 Tb899 2.362 . S
O933 C944 1.283 . S
O934 Tb899 2.421 . S
O934 C951 1.262 . S
O935 Tb888 2.320 . S
O935 C951 1.260 . S
O936 Tb888 2.552 . S
O936 C944 1.243 . S
O937 Tb888 2.413 . S
O937 C952 1.256 . S
O938 Tb899 2.546 . S
O938 C963 1.251 . S
O939 Tb888 2.362 . S
O939 Tb899 2.610 . S
O939 C955 1.283 . S
O940 Tb888 2.421 . S
O940 C962 1.262 . S
O941 Tb899 2.320 . S
O941 C962 1.260 . S
O942 Tb899 2.552 . S
O942 C955 1.243 . S
O943 Tb899 2.413 . S
O943 C963 1.256 . S
C944 O933 1.283 . S
C944 O936 1.243 . S
C945 C947 1.382 . S
C945 C949 1.393 . S
C945 C952 1.500 . S
C946 C947 1.400 . S
C946 C948 1.384 . S
C947 C945 1.382 . S
C947 C946 1.400 . S
C947 H964 0.930 . S
C948 C946 1.384 . S
C948 C950 1.392 . S
C948 H965 0.931 . S
C949 C945 1.393 . S
C949 C950 1.401 . S
C949 H966 0.930 . S
C950 C948 1.392 . S
C950 C949 1.401 . S
C950 H967 0.930 . S
C951 O934 1.262 . S
C951 O935 1.260 . S
C952 Tb888 2.833 . S
C952 O932 1.251 . S
C952 O937 1.256 . S
C952 C945 1.500 . S
C953 H918 0.929 . S
C953 C931 1.444 . S
C953 C954 1.317 . S
C954 H916 0.930 1_655 S
C954 C922 1.432 . S
C954 C953 1.317 . S
C955 O939 1.283 . S
C955 O942 1.243 . S
C956 C957 1.382 . S
C956 C960 1.393 . S
C956 C963 1.500 . S
C957 C956 1.382 . S
C957 C958 1.400 . S
C957 H968 0.930 . S
C958 C957 1.400 . S
C958 C959 1.384 . S
C959 C958 1.384 . S
C959 C961 1.392 . S
C959 H969 0.931 . S
C960 C956 1.393 . S
C960 C961 1.401 . S
C960 H970 0.930 . S
C961 C959 1.392 . S
C961 C960 1.401 . S
C961 H971 0.930 . S
C962 O940 1.262 . S
C962 O941 1.260 . S
C963 Tb899 2.833 . S
C963 O938 1.251 . S
C963 O943 1.256 . S
C963 C956 1.500 . S
H964 C947 0.930 . S
H965 C948 0.931 . S
H966 C949 0.930 . S
H967 C950 0.930 . S
H968 C957 0.930 . S
H969 C959 0.931 . S
H970 C960 0.930 . S
H971 C961 0.930 . S
H972 C978 0.930 . S
H973 C982 0.900 1_556 S
H974 C987 0.929 . S
H975 C985 0.929 . S
H976 C980 0.929 . S
H977 C986 0.929 . S
C978 H972 0.930 . S
C978 C979 1.367 . S
C978 C986 1.378 . S
C979 C978 1.367 . S
C979 C987 1.433 . S
C980 H976 0.929 . S
C980 C982 1.378 . S
C980 C984 1.350 . S
C981 C984 1.463 . S
C981 C986 1.350 . S
C981 N989 1.427 . S
C982 H973 0.900 1_554 S
C982 C980 1.378 . S
C982 C983 1.367 . S
C983 C982 1.367 . S
C983 C985 1.433 . S
C984 C980 1.350 . S
C984 C981 1.463 . S
C984 N988 1.427 . S
C985 H975 0.929 . S
C985 C983 1.433 . S
C985 N988 1.384 . S
C986 H977 0.929 . S
C986 C978 1.378 . S
C986 C981 1.350 . S
C987 H974 0.929 . S
C987 C979 1.433 . S
C987 N989 1.384 . S
N988 C984 1.427 . S
N988 C985 1.384 . S
N989 C981 1.427 . S
N989 C987 1.384 . S
H990 C996 0.930 . S
H991 C1000 0.930 . S
H992 C1005 0.929 . S
H993 C1003 0.929 . S
H994 C998 0.929 . S
H995 C1004 0.929 . S
C996 H990 0.930 . S
C996 C997 1.367 . S
C996 C1004 1.378 . S
C997 C996 1.367 . S
C997 C1005 1.433 . S
C998 H994 0.929 . S
C998 C1000 1.378 . S
C998 C1002 1.350 . S
C999 C1002 1.463 . S
C999 C1004 1.350 . S
C999 N1007 1.427 . S
C1000 H991 0.930 . S
C1000 C998 1.378 . S
C1000 C1001 1.367 . S
C1001 C1000 1.367 . S
C1001 C1003 1.433 . S
C1002 C998 1.350 . S
C1002 C999 1.463 . S
C1002 N1006 1.427 . S
C1003 H993 0.929 . S
C1003 C1001 1.433 . S
C1003 N1006 1.384 . S
C1004 H995 0.929 . S
C1004 C996 1.378 . S
C1004 C999 1.350 . S
C1005 H992 0.929 . S
C1005 C997 1.433 . S
C1005 N1007 1.384 . S
N1006 C1002 1.427 . S
N1006 C1003 1.384 . S
N1007 C999 1.427 . S
N1007 C1005 1.384 . S
H1008 C1014 0.930 . S
H1009 C1018 0.930 . S
H1010 C1023 0.929 . S
H1011 C1021 0.908 1_556 S
H1012 C1016 0.929 . S
H1013 C1022 0.929 . S
C1014 H1008 0.930 . S
C1014 C1015 1.367 . S
C1014 C1022 1.378 . S
C1015 C1014 1.367 . S
C1015 C1023 1.433 . S
C1016 H1012 0.929 . S
C1016 C1018 1.378 . S
C1016 C1020 1.350 . S
C1017 C1020 1.463 . S
C1017 C1022 1.350 . S
C1017 N1025 1.427 . S
C1018 H1009 0.930 . S
C1018 C1016 1.378 . S
C1018 C1019 1.367 . S
C1019 C1018 1.367 . S
C1019 C1021 1.433 . S
C1020 C1016 1.350 . S
C1020 C1017 1.463 . S
C1020 N1024 1.427 . S
C1021 H1011 0.908 1_554 S
C1021 C1019 1.433 . S
C1021 N1024 1.384 . S
C1022 H1013 0.929 . S
C1022 C1014 1.378 . S
C1022 C1017 1.350 . S
C1023 H1010 0.929 . S
C1023 C1015 1.433 . S
C1023 N1025 1.384 . S
N1024 C1020 1.427 . S
N1024 C1021 1.384 . S
N1025 C1017 1.427 . S
N1025 C1023 1.384 . S
H1026 C1032 0.930 . S
H1027 C1036 0.930 . S
H1028 C1041 0.929 . S
H1029 C1039 0.929 . S
H1030 C1034 0.929 . S
H1031 C1040 0.929 1_554 S
C1032 H1026 0.930 . S
C1032 C1033 1.367 . S
C1032 C1040 1.378 . S
C1033 C1032 1.367 . S
C1033 C1041 1.433 . S
C1034 H1030 0.929 . S
C1034 C1036 1.378 . S
C1034 C1038 1.350 . S
C1035 C1038 1.463 . S
C1035 C1040 1.350 . S
C1035 N1043 1.427 . S
C1036 H1027 0.930 . S
C1036 C1034 1.378 . S
C1036 C1037 1.367 . S
C1037 C1036 1.367 . S
C1037 C1039 1.433 1_556 S
C1038 C1034 1.350 . S
C1038 C1035 1.463 . S
C1038 N1042 1.427 1_556 S
C1039 H1029 0.929 . S
C1039 C1037 1.433 1_554 S
C1039 N1042 1.384 . S
C1040 H1031 0.929 1_556 S
C1040 C1032 1.378 . S
C1040 C1035 1.350 . S
C1041 H1028 0.929 . S
C1041 C1033 1.433 . S
C1041 N1043 1.384 . S
N1042 C1038 1.427 1_554 S
N1042 C1039 1.384 . S
N1043 C1035 1.427 . S
N1043 C1041 1.384 . S
H1044 C1050 0.930 . S
H1045 C1054 0.957 . S
H1046 C1059 0.929 . S
H1047 C1057 0.929 . S
H1048 C1052 0.929 . S
H1049 C1058 0.929 . S
C1050 H1044 0.930 . S
C1050 C1051 1.367 . S
C1050 C1058 1.378 . S
C1051 C1050 1.367 . S
C1051 C1059 1.433 . S
C1052 H1048 0.929 . S
C1052 C1054 1.365 1_556 S
C1052 C1056 1.350 . S
C1053 C1056 1.463 . S
C1053 C1058 1.350 . S
C1053 N1061 1.427 . S
C1054 H1045 0.957 . S
C1054 C1052 1.365 1_554 S
C1054 C1055 1.355 1_554 S
C1055 C1054 1.355 1_556 S
C1055 C1057 1.433 . S
C1056 C1052 1.350 . S
C1056 C1053 1.463 . S
C1056 N1060 1.427 . S
C1057 H1047 0.929 . S
C1057 C1055 1.433 . S
C1057 N1060 1.384 . S
C1058 H1049 0.929 . S
C1058 C1050 1.378 . S
C1058 C1053 1.350 . S
C1059 H1046 0.929 . S
C1059 C1051 1.433 . S
C1059 N1061 1.384 . S
N1060 C1056 1.427 . S
N1060 C1057 1.384 . S
N1061 C1053 1.427 . S
N1061 C1059 1.384 . S
H1062 C1068 0.930 . S
H1063 C1072 0.930 . S
H1064 C1077 0.929 . S
H1065 C1075 0.929 . S
H1066 C1070 0.929 . S
H1067 C1076 0.929 . S
C1068 H1062 0.930 . S
C1068 C1069 1.367 . S
C1068 C1076 1.378 . S
C1069 C1068 1.367 . S
C1069 C1077 1.433 . S
C1070 H1066 0.929 . S
C1070 C1072 1.378 1_556 S
C1070 C1074 1.350 . S
C1071 C1074 1.463 . S
C1071 C1076 1.350 . S
C1071 N1079 1.427 . S
C1072 H1063 0.930 . S
C1072 C1070 1.378 1_554 S
C1072 C1073 1.367 1_554 S
C1073 C1072 1.367 1_556 S
C1073 C1075 1.433 . S
C1074 C1070 1.350 . S
C1074 C1071 1.463 . S
C1074 N1078 1.427 . S
C1075 H1065 0.929 . S
C1075 C1073 1.433 . S
C1075 N1078 1.384 . S
C1076 H1067 0.929 . S
C1076 C1068 1.378 . S
C1076 C1071 1.350 . S
C1077 H1064 0.929 . S
C1077 C1069 1.433 . S
C1077 N1079 1.384 . S
N1078 C1074 1.427 . S
N1078 C1075 1.384 . S
N1079 C1071 1.427 . S
N1079 C1077 1.384 . S
H1080 C1086 0.930 . S
H1081 C1090 0.930 . S
H1082 C1095 0.931 1_554 S
H1083 C1093 0.929 . S
H1084 C1088 0.929 . S
H1085 C1094 0.929 . S
C1086 H1080 0.930 . S
C1086 C1087 1.367 . S
C1086 C1094 1.378 . S
C1087 C1086 1.367 . S
C1087 C1095 1.433 . S
C1088 H1084 0.929 . S
C1088 C1090 1.378 . S
C1088 C1092 1.350 1_554 S
C1089 C1092 1.463 . S
C1089 C1094 1.350 . S
C1089 N1097 1.427 . S
C1090 H1081 0.930 . S
C1090 C1088 1.378 . S
C1090 C1091 1.367 1_554 S
C1091 C1090 1.367 1_556 S
C1091 C1093 1.433 . S
C1092 C1088 1.350 1_556 S
C1092 C1089 1.463 . S
C1092 N1096 1.427 . S
C1093 H1083 0.929 . S
C1093 C1091 1.433 . S
C1093 N1096 1.384 . S
C1094 H1085 0.929 . S
C1094 C1086 1.378 . S
C1094 C1089 1.350 . S
C1095 H1082 0.931 1_556 S
C1095 C1087 1.433 . S
C1095 N1097 1.384 . S
N1096 C1092 1.427 . S
N1096 C1093 1.384 . S
N1097 C1089 1.427 . S
N1097 C1095 1.384 . S
H1098 C1104 0.930 . S
H1099 C1108 0.930 . S
H1100 C1113 0.929 . S
H1101 C1111 0.929 . S
H1102 C1106 0.929 . S
H1103 C1112 0.929 . S
C1104 H1098 0.930 . S
C1104 C1105 1.367 . S
C1104 C1112 1.378 . S
C1105 C1104 1.367 . S
C1105 C1113 1.433 . S
C1106 H1102 0.929 . S
C1106 C1108 1.378 . S
C1106 C1110 1.350 . S
C1107 C1110 1.463 . S
C1107 C1112 1.350 . S
C1107 N1115 1.427 . S
C1108 H1099 0.930 . S
C1108 C1106 1.378 . S
C1108 C1109 1.367 . S
C1109 C1108 1.367 . S
C1109 C1111 1.433 . S
C1110 C1106 1.350 . S
C1110 C1107 1.463 . S
C1110 N1114 1.427 . S
C1111 H1101 0.929 . S
C1111 C1109 1.433 . S
C1111 N1114 1.384 . S
C1112 H1103 0.929 . S
C1112 C1104 1.378 . S
C1112 C1107 1.350 . S
C1113 H1100 0.929 . S
C1113 C1105 1.433 . S
C1113 N1115 1.384 . S
N1114 C1110 1.427 . S
N1114 C1111 1.384 . S
N1115 C1107 1.427 . S
N1115 C1113 1.384 . S
H1116 C1122 0.930 1_554 S
H1117 C1126 0.930 . S
H1118 C1131 0.929 . S
H1119 C1129 0.929 . S
H1120 C1124 0.929 . S
H1121 C1130 0.929 1_554 S
C1122 H1116 0.930 1_556 S
C1122 C1123 1.367 . S
C1122 C1130 1.378 . S
C1123 C1122 1.367 . S
C1123 C1131 1.433 . S
C1124 H1120 0.929 . S
C1124 C1126 1.378 . S
C1124 C1128 1.350 . S
C1125 C1128 1.463 . S
C1125 C1130 1.350 . S
C1125 N1133 1.427 . S
C1126 H1117 0.930 . S
C1126 C1124 1.378 . S
C1126 C1127 1.367 . S
C1127 C1126 1.367 . S
C1127 C1129 1.433 1_556 S
C1128 C1124 1.350 . S
C1128 C1125 1.463 . S
C1128 N1132 1.427 1_556 S
C1129 H1119 0.929 . S
C1129 C1127 1.433 1_554 S
C1129 N1132 1.384 . S
C1130 H1121 0.929 1_556 S
C1130 C1122 1.378 . S
C1130 C1125 1.350 . S
C1131 H1118 0.929 . S
C1131 C1123 1.433 . S
C1131 N1133 1.384 . S
N1132 C1128 1.427 1_554 S
N1132 C1129 1.384 . S
N1133 C1125 1.427 . S
N1133 C1131 1.384 . S
H1134 C1140 0.930 . S
H1135 C1144 0.930 . S
H1136 C1149 0.929 . S
H1137 C1147 0.929 . S
H1138 C1142 0.929 . S
H1139 C1148 0.929 . S
C1140 H1134 0.930 . S
C1140 C1141 1.367 . S
C1140 C1148 1.378 . S
C1141 C1140 1.367 . S
C1141 C1149 1.433 . S
C1142 H1138 0.929 . S
C1142 C1144 1.378 . S
C1142 C1146 1.350 . S
C1143 C1146 1.463 . S
C1143 C1148 1.350 . S
C1143 N1151 1.427 . S
C1144 H1135 0.930 . S
C1144 C1142 1.378 . S
C1144 C1145 1.367 . S
C1145 C1144 1.367 . S
C1145 C1147 1.433 . S
C1146 C1142 1.350 . S
C1146 C1143 1.463 . S
C1146 N1150 1.427 . S
C1147 H1137 0.929 . S
C1147 C1145 1.433 . S
C1147 N1150 1.384 . S
C1148 H1139 0.929 . S
C1148 C1140 1.378 . S
C1148 C1143 1.350 . S
C1149 H1136 0.929 . S
C1149 C1141 1.433 . S
C1149 N1151 1.384 . S
N1150 C1146 1.427 . S
N1150 C1147 1.384 . S
N1151 C1143 1.427 . S
N1151 C1149 1.384 . S
H1152 C1158 0.930 . S
H1153 C1162 0.930 . S
H1154 C1167 0.929 . S
H1155 C1165 0.929 . S
H1156 C1160 0.929 . S
H1157 C1166 0.929 . S
C1158 H1152 0.930 . S
C1158 C1159 1.367 . S
C1158 C1166 1.378 . S
C1159 C1158 1.367 . S
C1159 C1167 1.433 . S
C1160 H1156 0.929 . S
C1160 C1162 1.378 . S
C1160 C1164 1.350 . S
C1161 C1164 1.463 . S
C1161 C1166 1.350 . S
C1161 N1169 1.427 . S
C1162 H1153 0.930 . S
C1162 C1160 1.378 . S
C1162 C1163 1.367 . S
C1163 C1162 1.367 . S
C1163 C1165 1.433 . S
C1164 C1160 1.350 . S
C1164 C1161 1.463 . S
C1164 N1168 1.427 . S
C1165 H1155 0.929 . S
C1165 C1163 1.433 . S
C1165 N1168 1.384 . S
C1166 H1157 0.929 . S
C1166 C1158 1.378 . S
C1166 C1161 1.350 . S
C1167 H1154 0.929 . S
C1167 C1159 1.433 . S
C1167 N1169 1.384 . S
N1168 C1164 1.427 . S
N1168 C1165 1.384 . S
N1169 C1161 1.427 . S
N1169 C1167 1.384 . S
H1170 C1176 0.930 . S
H1171 C1180 0.930 . S
H1172 C1185 0.929 . S
H1173 C1183 0.929 . S
H1174 C1178 0.929 . S
H1175 C1184 0.929 . S
C1176 H1170 0.930 . S
C1176 C1177 1.367 . S
C1176 C1184 1.378 . S
C1177 C1176 1.367 . S
C1177 C1185 1.433 . S
C1178 H1174 0.929 . S
C1178 C1180 1.378 . S
C1178 C1182 1.350 . S
C1179 C1182 1.463 . S
C1179 C1184 1.350 . S
C1179 N1187 1.427 . S
C1180 H1171 0.930 . S
C1180 C1178 1.378 . S
C1180 C1181 1.367 . S
C1181 C1180 1.367 . S
C1181 C1183 1.433 . S
C1182 C1178 1.350 . S
C1182 C1179 1.463 . S
C1182 N1186 1.427 . S
C1183 H1173 0.929 . S
C1183 C1181 1.433 . S
C1183 N1186 1.384 . S
C1184 H1175 0.929 . S
C1184 C1176 1.378 . S
C1184 C1179 1.350 . S
C1185 H1172 0.929 . S
C1185 C1177 1.433 . S
C1185 N1187 1.384 . S
N1186 C1182 1.427 . S
N1186 C1183 1.384 . S
N1187 C1179 1.427 . S
N1187 C1185 1.384 . S
H1188 C1194 0.930 . S
H1189 C1198 0.930 . S
H1190 C1203 0.929 . S
H1191 C1201 0.929 . S
H1192 C1196 0.929 1_655 S
H1193 C1202 0.929 1_455 S
C1194 H1188 0.930 . S
C1194 C1195 1.367 . S
C1194 C1202 1.378 . S
C1195 C1194 1.367 . S
C1195 C1203 1.433 . S
C1196 H1192 0.929 1_455 S
C1196 C1198 1.378 . S
C1196 C1200 1.350 . S
C1197 C1200 1.463 1_655 S
C1197 C1202 1.350 . S
C1197 N1205 1.427 . S
C1198 H1189 0.930 . S
C1198 C1196 1.378 . S
C1198 C1199 1.367 . S
C1199 C1198 1.367 . S
C1199 C1201 1.433 . S
C1200 C1196 1.350 . S
C1200 C1197 1.463 1_455 S
C1200 N1204 1.427 . S
C1201 H1191 0.929 . S
C1201 C1199 1.433 . S
C1201 N1204 1.384 . S
C1202 H1193 0.929 1_655 S
C1202 C1194 1.378 . S
C1202 C1197 1.350 . S
C1203 H1190 0.929 . S
C1203 C1195 1.433 . S
C1203 N1205 1.384 . S
N1204 C1200 1.427 . S
N1204 C1201 1.384 . S
N1205 C1197 1.427 . S
N1205 C1203 1.384 . S
H1206 C1212 0.930 . S
H1207 C1216 0.930 . S
H1208 C1221 0.929 . S
H1209 C1219 0.929 . S
H1210 C1214 0.929 . S
H1211 C1220 0.929 . S
C1212 H1206 0.930 . S
C1212 C1213 1.367 . S
C1212 C1220 1.378 . S
C1213 C1212 1.367 . S
C1213 C1221 1.433 . S
C1214 H1210 0.929 . S
C1214 C1216 1.378 . S
C1214 C1218 1.350 . S
C1215 C1218 1.463 . S
C1215 C1220 1.350 . S
C1215 N1223 1.427 . S
C1216 H1207 0.930 . S
C1216 C1214 1.378 . S
C1216 C1217 1.367 . S
C1217 C1216 1.367 . S
C1217 C1219 1.433 . S
C1218 C1214 1.350 . S
C1218 C1215 1.463 . S
C1218 N1222 1.427 . S
C1219 H1209 0.929 . S
C1219 C1217 1.433 . S
C1219 N1222 1.384 . S
C1220 H1211 0.929 . S
C1220 C1212 1.378 . S
C1220 C1215 1.350 . S
C1221 H1208 0.929 . S
C1221 C1213 1.433 . S
C1221 N1223 1.384 . S
N1222 C1218 1.427 . S
N1222 C1219 1.384 . S
N1223 C1215 1.427 . S
N1223 C1221 1.384 . S
H1224 C1230 0.930 . S
H1225 C1234 0.930 . S
H1226 C1239 0.929 . S
H1227 C1237 0.929 . S
H1228 C1232 0.929 . S
H1229 C1238 0.929 . S
C1230 H1224 0.930 . S
C1230 C1231 1.367 . S
C1230 C1238 1.378 . S
C1231 C1230 1.367 . S
C1231 C1239 1.433 . S
C1232 H1228 0.929 . S
C1232 C1234 1.378 . S
C1232 C1236 1.350 . S
C1233 C1236 1.463 1_545 S
C1233 C1238 1.350 . S
C1233 N1241 1.427 . S
C1234 H1225 0.930 . S
C1234 C1232 1.378 . S
C1234 C1235 1.367 . S
C1235 C1234 1.367 . S
C1235 C1237 1.433 . S
C1236 C1232 1.350 . S
C1236 C1233 1.463 1_565 S
C1236 N1240 1.427 . S
C1237 H1227 0.929 . S
C1237 C1235 1.433 . S
C1237 N1240 1.384 . S
C1238 H1229 0.929 . S
C1238 C1230 1.378 . S
C1238 C1233 1.350 . S
C1239 H1226 0.929 . S
C1239 C1231 1.433 . S
C1239 N1241 1.384 . S
N1240 C1236 1.427 . S
N1240 C1237 1.384 . S
N1241 C1233 1.427 . S
N1241 C1239 1.384 . S
H1242 C1248 0.930 . S
H1243 C1252 0.930 . S
H1244 C1257 0.929 . S
H1245 C1255 0.929 . S
H1246 C1250 0.929 . S
H1247 C1256 0.929 . S
C1248 H1242 0.930 . S
C1248 C1249 1.367 . S
C1248 C1256 1.378 . S
C1249 C1248 1.367 . S
C1249 C1257 1.433 . S
C1250 H1246 0.929 . S
C1250 C1252 1.378 . S
C1250 C1254 1.350 . S
C1251 C1254 1.463 . S
C1251 C1256 1.350 . S
C1251 N1259 1.427 . S
C1252 H1243 0.930 . S
C1252 C1250 1.378 . S
C1252 C1253 1.367 . S
C1253 C1252 1.367 . S
C1253 C1255 1.433 . S
C1254 C1250 1.350 . S
C1254 C1251 1.463 . S
C1254 N1258 1.427 . S
C1255 H1245 0.929 . S
C1255 C1253 1.433 . S
C1255 N1258 1.384 . S
C1256 H1247 0.929 . S
C1256 C1248 1.378 . S
C1256 C1251 1.350 . S
C1257 H1244 0.929 . S
C1257 C1249 1.433 . S
C1257 N1259 1.384 . S
N1258 C1254 1.427 . S
N1258 C1255 1.384 . S
N1259 C1251 1.427 . S
N1259 C1257 1.384 . S
H1260 C1266 0.930 . S
H1261 C1270 0.930 . S
H1262 C1275 0.929 . S
H1263 C1273 0.929 . S
H1264 C1268 0.929 . S
H1265 C1274 0.929 . S
C1266 H1260 0.930 . S
C1266 C1267 1.367 . S
C1266 C1274 1.378 . S
C1267 C1266 1.367 . S
C1267 C1275 1.433 . S
C1268 H1264 0.929 . S
C1268 C1270 1.378 . S
C1268 C1272 1.350 . S
C1269 C1272 1.463 . S
C1269 C1274 1.350 . S
C1269 N1277 1.427 . S
C1270 H1261 0.930 . S
C1270 C1268 1.378 . S
C1270 C1271 1.367 . S
C1271 C1270 1.367 . S
C1271 C1273 1.433 . S
C1272 C1268 1.350 . S
C1272 C1269 1.463 . S
C1272 N1276 1.427 . S
C1273 H1263 0.929 . S
C1273 C1271 1.433 . S
C1273 N1276 1.384 . S
C1274 H1265 0.929 . S
C1274 C1266 1.378 . S
C1274 C1269 1.350 . S
C1275 H1262 0.929 . S
C1275 C1267 1.433 . S
C1275 N1277 1.384 . S
N1276 C1272 1.427 . S
N1276 C1273 1.384 . S
N1277 C1269 1.427 . S
N1277 C1275 1.384 . S
H1278 C1284 0.930 . S
H1279 C1288 0.930 . S
H1280 C1293 0.929 . S
H1281 C1291 0.929 . S
H1282 C1286 0.929 . S
H1283 C1292 0.929 . S
C1284 H1278 0.930 . S
C1284 C1285 1.367 . S
C1284 C1292 1.378 . S
C1285 C1284 1.367 . S
C1285 C1293 1.433 . S
C1286 H1282 0.929 . S
C1286 C1288 1.378 . S
C1286 C1290 1.350 . S
C1287 C1290 1.463 . S
C1287 C1292 1.350 . S
C1287 N1295 1.427 . S
C1288 H1279 0.930 . S
C1288 C1286 1.378 . S
C1288 C1289 1.367 . S
C1289 C1288 1.367 . S
C1289 C1291 1.433 . S
C1290 C1286 1.350 . S
C1290 C1287 1.463 . S
C1290 N1294 1.427 . S
C1291 H1281 0.929 . S
C1291 C1289 1.433 . S
C1291 N1294 1.384 . S
C1292 H1283 0.929 . S
C1292 C1284 1.378 . S
C1292 C1287 1.350 . S
C1293 H1280 0.929 . S
C1293 C1285 1.433 . S
C1293 N1295 1.384 . S
N1294 C1290 1.427 . S
N1294 C1291 1.384 . S
N1295 C1287 1.427 . S
N1295 C1293 1.384 . S
H1296 C1302 0.930 . S
H1297 C1306 0.930 . S
H1298 C1311 0.929 . S
H1299 C1309 0.929 . S
H1300 C1304 0.929 . S
H1301 C1310 0.929 . S
C1302 H1296 0.930 . S
C1302 C1303 1.367 . S
C1302 C1310 1.378 . S
C1303 C1302 1.367 . S
C1303 C1311 1.433 . S
C1304 H1300 0.929 . S
C1304 C1306 1.378 . S
C1304 C1308 1.350 . S
C1305 C1308 1.463 . S
C1305 C1310 1.350 . S
C1305 N1313 1.427 . S
C1306 H1297 0.930 . S
C1306 C1304 1.378 . S
C1306 C1307 1.367 . S
C1307 C1306 1.367 . S
C1307 C1309 1.433 . S
C1308 C1304 1.350 . S
C1308 C1305 1.463 . S
C1308 N1312 1.427 . S
C1309 H1299 0.929 . S
C1309 C1307 1.433 . S
C1309 N1312 1.384 . S
C1310 H1301 0.929 . S
C1310 C1302 1.378 . S
C1310 C1305 1.350 . S
C1311 H1298 0.929 . S
C1311 C1303 1.433 . S
C1311 N1313 1.384 . S
N1312 C1308 1.427 . S
N1312 C1309 1.384 . S
N1313 C1305 1.427 . S
N1313 C1311 1.384 . S
H1314 C1320 0.930 . S
H1315 C1324 0.930 . S
H1316 C1329 0.929 . S
H1317 C1327 0.929 . S
H1318 C1322 0.929 . S
H1319 C1328 0.929 . S
C1320 H1314 0.930 . S
C1320 C1321 1.367 . S
C1320 C1328 1.378 . S
C1321 C1320 1.367 . S
C1321 C1329 1.433 . S
C1322 H1318 0.929 . S
C1322 C1324 1.378 . S
C1322 C1326 1.350 . S
C1323 C1326 1.463 . S
C1323 C1328 1.350 . S
C1323 N1331 1.427 . S
C1324 H1315 0.930 . S
C1324 C1322 1.378 . S
C1324 C1325 1.367 . S
C1325 C1324 1.367 . S
C1325 C1327 1.433 . S
C1326 C1322 1.350 . S
C1326 C1323 1.463 . S
C1326 N1330 1.427 . S
C1327 H1317 0.929 . S
C1327 C1325 1.433 . S
C1327 N1330 1.384 . S
C1328 H1319 0.929 . S
C1328 C1320 1.378 . S
C1328 C1323 1.350 . S
C1329 H1316 0.929 . S
C1329 C1321 1.433 . S
C1329 N1331 1.384 . S
N1330 C1326 1.427 . S
N1330 C1327 1.384 . S
N1331 C1323 1.427 . S
N1331 C1329 1.384 . S
H1332 C1338 0.930 . S
H1333 C1342 0.930 . S
H1334 C1347 0.929 . S
H1335 C1345 0.929 . S
H1336 C1340 0.929 . S
H1337 C1346 0.929 . S
C1338 H1332 0.930 . S
C1338 C1339 1.367 . S
C1338 C1346 1.378 . S
C1339 C1338 1.367 . S
C1339 C1347 1.433 . S
C1340 H1336 0.929 . S
C1340 C1342 1.378 . S
C1340 C1344 1.350 . S
C1341 C1344 1.463 . S
C1341 C1346 1.350 . S
C1341 N1349 1.427 . S
C1342 H1333 0.930 . S
C1342 C1340 1.378 . S
C1342 C1343 1.367 . S
C1343 C1342 1.367 . S
C1343 C1345 1.433 . S
C1344 C1340 1.350 . S
C1344 C1341 1.463 . S
C1344 N1348 1.427 . S
C1345 H1335 0.929 . S
C1345 C1343 1.433 . S
C1345 N1348 1.384 . S
C1346 H1337 0.929 . S
C1346 C1338 1.378 . S
C1346 C1341 1.350 . S
C1347 H1334 0.929 . S
C1347 C1339 1.433 . S
C1347 N1349 1.384 . S
N1348 C1344 1.427 . S
N1348 C1345 1.384 . S
N1349 C1341 1.427 . S
N1349 C1347 1.384 . S
H1350 C1356 0.930 . S
H1351 C1360 0.930 . S
H1352 C1365 0.929 . S
H1353 C1363 0.929 . S
H1354 C1358 0.929 . S
H1355 C1364 0.929 . S
C1356 H1350 0.930 . S
C1356 C1357 1.367 . S
C1356 C1364 1.378 1_545 S
C1357 C1356 1.367 . S
C1357 C1365 1.433 . S
C1358 H1354 0.929 . S
C1358 C1360 1.378 . S
C1358 C1362 1.350 . S
C1359 C1362 1.463 . S
C1359 C1364 1.350 . S
C1359 N1367 1.427 . S
C1360 H1351 0.930 . S
C1360 C1358 1.378 . S
C1360 C1361 1.367 . S
C1361 C1360 1.367 . S
C1361 C1363 1.433 . S
C1362 C1358 1.350 . S
C1362 C1359 1.463 . S
C1362 N1366 1.427 . S
C1363 H1353 0.929 . S
C1363 C1361 1.433 . S
C1363 N1366 1.384 . S
C1364 H1355 0.929 . S
C1364 C1356 1.378 1_565 S
C1364 C1359 1.350 . S
C1365 H1352 0.929 . S
C1365 C1357 1.433 . S
C1365 N1367 1.384 1_545 S
N1366 C1362 1.427 . S
N1366 C1363 1.384 . S
N1367 C1359 1.427 . S
N1367 C1365 1.384 1_565 S
H1368 C1374 0.930 . S
H1369 C1378 0.930 . S
H1370 C1383 0.929 1_655 S
H1371 C1381 0.929 . S
H1372 C1376 0.929 . S
H1373 C1382 0.929 . S
C1374 H1368 0.930 . S
C1374 C1375 1.367 1_455 S
C1374 C1382 1.378 . S
C1375 C1374 1.367 1_655 S
C1375 C1383 1.433 1_655 S
C1376 H1372 0.929 . S
C1376 C1378 1.378 . S
C1376 C1380 1.350 . S
C1377 C1380 1.463 . S
C1377 C1382 1.350 . S
C1377 N1385 1.427 . S
C1378 H1369 0.930 . S
C1378 C1376 1.378 . S
C1378 C1379 1.367 . S
C1379 C1378 1.367 . S
C1379 C1381 1.433 . S
C1380 C1376 1.350 . S
C1380 C1377 1.463 . S
C1380 N1384 1.427 . S
C1381 H1371 0.929 . S
C1381 C1379 1.433 . S
C1381 N1384 1.384 . S
C1382 H1373 0.929 . S
C1382 C1374 1.378 . S
C1382 C1377 1.350 . S
C1383 H1370 0.929 1_455 S
C1383 C1375 1.433 1_455 S
C1383 N1385 1.384 . S
N1384 C1380 1.427 . S
N1384 C1381 1.384 . S
N1385 C1377 1.427 . S
N1385 C1383 1.384 . S
H1386 C1392 0.930 . S
H1387 C1396 0.930 . S
H1388 C1401 0.929 . S
H1389 C1399 0.929 . S
H1390 C1394 0.929 . S
H1391 C1400 0.929 . S
C1392 H1386 0.930 . S
C1392 C1393 1.367 . S
C1392 C1400 1.378 . S
C1393 C1392 1.367 . S
C1393 C1401 1.433 . S
C1394 H1390 0.929 . S
C1394 C1396 1.378 . S
C1394 C1398 1.350 . S
C1395 C1398 1.463 . S
C1395 C1400 1.350 . S
C1395 N1403 1.427 . S
C1396 H1387 0.930 . S
C1396 C1394 1.378 . S
C1396 C1397 1.367 . S
C1397 C1396 1.367 . S
C1397 C1399 1.433 . S
C1398 C1394 1.350 . S
C1398 C1395 1.463 . S
C1398 N1402 1.427 . S
C1399 H1389 0.929 . S
C1399 C1397 1.433 . S
C1399 N1402 1.384 . S
C1400 H1391 0.929 . S
C1400 C1392 1.378 . S
C1400 C1395 1.350 . S
C1401 H1388 0.929 . S
C1401 C1393 1.433 . S
C1401 N1403 1.384 . S
N1402 C1398 1.427 . S
N1402 C1399 1.384 . S
N1403 C1395 1.427 . S
N1403 C1401 1.384 . S
H1404 C1410 0.930 . S
H1405 C1414 0.930 . S
H1406 C1419 0.929 . S
H1407 C1417 0.929 . S
H1408 C1412 0.929 . S
H1409 C1418 0.929 . S
C1410 H1404 0.930 . S
C1410 C1411 1.367 . S
C1410 C1418 1.378 . S
C1411 C1410 1.367 . S
C1411 C1419 1.433 . S
C1412 H1408 0.929 . S
C1412 C1414 1.378 . S
C1412 C1416 1.350 . S
C1413 C1416 1.463 . S
C1413 C1418 1.350 . S
C1413 N1421 1.427 . S
C1414 H1405 0.930 . S
C1414 C1412 1.378 . S
C1414 C1415 1.367 . S
C1415 C1414 1.367 . S
C1415 C1417 1.433 . S
C1416 C1412 1.350 . S
C1416 C1413 1.463 . S
C1416 N1420 1.427 . S
C1417 H1407 0.929 . S
C1417 C1415 1.433 . S
C1417 N1420 1.384 . S
C1418 H1409 0.929 . S
C1418 C1410 1.378 . S
C1418 C1413 1.350 . S
C1419 H1406 0.929 . S
C1419 C1411 1.433 . S
C1419 N1421 1.384 . S
N1420 C1416 1.427 . S
N1420 C1417 1.384 . S
N1421 C1413 1.427 . S
N1421 C1419 1.384 . S
H1422 C1428 0.930 . S
H1423 C1432 0.930 . S
H1424 C1437 0.929 . S
H1425 C1435 0.929 . S
H1426 C1430 0.929 . S
H1427 C1436 0.929 . S
C1428 H1422 0.930 . S
C1428 C1429 1.367 . S
C1428 C1436 1.378 . S
C1429 C1428 1.367 . S
C1429 C1437 1.433 . S
C1430 H1426 0.929 . S
C1430 C1432 1.378 . S
C1430 C1434 1.350 . S
C1431 C1434 1.463 . S
C1431 C1436 1.350 . S
C1431 N1439 1.427 . S
C1432 H1423 0.930 . S
C1432 C1430 1.378 . S
C1432 C1433 1.367 . S
C1433 C1432 1.367 . S
C1433 C1435 1.433 . S
C1434 C1430 1.350 . S
C1434 C1431 1.463 . S
C1434 N1438 1.427 . S
C1435 H1425 0.929 . S
C1435 C1433 1.433 . S
C1435 N1438 1.384 . S
C1436 H1427 0.929 . S
C1436 C1428 1.378 . S
C1436 C1431 1.350 . S
C1437 H1424 0.929 . S
C1437 C1429 1.433 . S
C1437 N1439 1.384 . S
N1438 C1434 1.427 . S
N1438 C1435 1.384 . S
N1439 C1431 1.427 . S
N1439 C1437 1.384 . S
H1440 C1446 0.930 . S
H1441 C1450 0.930 . S
H1442 C1455 0.929 . S
H1443 C1453 0.929 . S
H1444 C1448 0.929 . S
H1445 C1454 0.929 . S
C1446 H1440 0.930 . S
C1446 C1447 1.367 . S
C1446 C1454 1.378 . S
C1447 C1446 1.367 . S
C1447 C1455 1.433 . S
C1448 H1444 0.929 . S
C1448 C1450 1.378 . S
C1448 C1452 1.350 . S
C1449 C1452 1.463 . S
C1449 C1454 1.350 . S
C1449 N1457 1.427 . S
C1450 H1441 0.930 . S
C1450 C1448 1.378 . S
C1450 C1451 1.367 . S
C1451 C1450 1.367 . S
C1451 C1453 1.433 . S
C1452 C1448 1.350 . S
C1452 C1449 1.463 . S
C1452 N1456 1.427 . S
C1453 H1443 0.929 . S
C1453 C1451 1.433 . S
C1453 N1456 1.384 . S
C1454 H1445 0.929 . S
C1454 C1446 1.378 . S
C1454 C1449 1.350 . S
C1455 H1442 0.929 . S
C1455 C1447 1.433 . S
C1455 N1457 1.384 . S
N1456 C1452 1.427 . S
N1456 C1453 1.384 . S
N1457 C1449 1.427 . S
N1457 C1455 1.384 . S
H1458 C1464 0.930 . S
H1459 C1468 0.930 . S
H1460 C1473 0.929 . S
H1461 C1471 0.929 . S
H1462 C1466 0.929 1_565 S
H1463 C1472 0.929 1_545 S
C1464 H1458 0.930 . S
C1464 C1465 1.367 . S
C1464 C1472 1.378 . S
C1465 C1464 1.367 . S
C1465 C1473 1.433 . S
C1466 H1462 0.929 1_545 S
C1466 C1468 1.378 . S
C1466 C1470 1.350 . S
C1467 C1470 1.463 1_565 S
C1467 C1472 1.350 . S
C1467 N1475 1.427 . S
C1468 H1459 0.930 . S
C1468 C1466 1.378 . S
C1468 C1469 1.367 . S
C1469 C1468 1.367 . S
C1469 C1471 1.433 . S
C1470 C1466 1.350 . S
C1470 C1467 1.463 1_545 S
C1470 N1474 1.427 . S
C1471 H1461 0.929 . S
C1471 C1469 1.433 . S
C1471 N1474 1.384 . S
C1472 H1463 0.929 1_565 S
C1472 C1464 1.378 . S
C1472 C1467 1.350 . S
C1473 H1460 0.929 . S
C1473 C1465 1.433 . S
C1473 N1475 1.384 . S
N1474 C1470 1.427 . S
N1474 C1471 1.384 . S
N1475 C1467 1.427 . S
N1475 C1473 1.384 . S
H1476 C1482 0.930 . S
H1477 C1486 0.930 . S
H1478 C1491 0.929 . S
H1479 C1489 0.929 . S
H1480 C1484 0.929 . S
H1481 C1490 0.929 . S
C1482 H1476 0.930 . S
C1482 C1483 1.367 . S
C1482 C1490 1.378 . S
C1483 C1482 1.367 . S
C1483 C1491 1.433 . S
C1484 H1480 0.929 . S
C1484 C1486 1.378 . S
C1484 C1488 1.350 . S
C1485 C1488 1.463 1_455 S
C1485 C1490 1.350 . S
C1485 N1493 1.427 . S
C1486 H1477 0.930 . S
C1486 C1484 1.378 . S
C1486 C1487 1.367 . S
C1487 C1486 1.367 . S
C1487 C1489 1.433 . S
C1488 C1484 1.350 . S
C1488 C1485 1.463 1_655 S
C1488 N1492 1.427 . S
C1489 H1479 0.929 . S
C1489 C1487 1.433 . S
C1489 N1492 1.384 . S
C1490 H1481 0.929 . S
C1490 C1482 1.378 . S
C1490 C1485 1.350 . S
C1491 H1478 0.929 . S
C1491 C1483 1.433 . S
C1491 N1493 1.384 . S
N1492 C1488 1.427 . S
N1492 C1489 1.384 . S
N1493 C1485 1.427 . S
N1493 C1491 1.384 . S
H1494 C1500 0.930 . S
H1495 C1504 0.930 . S
H1496 C1509 0.929 . S
H1497 C1507 0.929 . S
H1498 C1502 0.929 . S
H1499 C1508 0.929 . S
C1500 H1494 0.930 . S
C1500 C1501 1.367 . S
C1500 C1508 1.378 . S
C1501 C1500 1.367 . S
C1501 C1509 1.433 . S
C1502 H1498 0.929 . S
C1502 C1504 1.378 . S
C1502 C1506 1.350 . S
C1503 C1506 1.463 . S
C1503 C1508 1.350 . S
C1503 N1511 1.427 . S
C1504 H1495 0.930 . S
C1504 C1502 1.378 . S
C1504 C1505 1.367 . S
C1505 C1504 1.367 . S
C1505 C1507 1.433 . S
C1506 C1502 1.350 . S
C1506 C1503 1.463 . S
C1506 N1510 1.427 . S
C1507 H1497 0.929 . S
C1507 C1505 1.433 . S
C1507 N1510 1.384 . S
C1508 H1499 0.929 . S
C1508 C1500 1.378 . S
C1508 C1503 1.350 . S
C1509 H1496 0.929 . S
C1509 C1501 1.433 . S
C1509 N1511 1.384 . S
N1510 C1506 1.427 . S
N1510 C1507 1.384 . S
N1511 C1503 1.427 . S
N1511 C1509 1.384 . S
H1512 C1518 0.930 1_455 S
H1513 C1522 0.930 . S
H1514 C1527 0.929 . S
H1515 C1525 0.929 . S
H1516 C1520 0.929 . S
H1517 C1526 0.929 . S
C1518 H1512 0.930 1_655 S
C1518 C1519 1.367 1_655 S
C1518 C1526 1.378 . S
C1519 C1518 1.367 1_455 S
C1519 C1527 1.433 . S
C1520 H1516 0.929 . S
C1520 C1522 1.378 . S
C1520 C1524 1.350 . S
C1521 C1524 1.463 . S
C1521 C1526 1.350 . S
C1521 N1529 1.427 . S
C1522 H1513 0.930 . S
C1522 C1520 1.378 . S
C1522 C1523 1.367 . S
C1523 C1522 1.367 . S
C1523 C1525 1.433 . S
C1524 C1520 1.350 . S
C1524 C1521 1.463 . S
C1524 N1528 1.427 . S
C1525 H1515 0.929 . S
C1525 C1523 1.433 . S
C1525 N1528 1.384 . S
C1526 H1517 0.929 . S
C1526 C1518 1.378 . S
C1526 C1521 1.350 . S
C1527 H1514 0.929 . S
C1527 C1519 1.433 . S
C1527 N1529 1.384 1_455 S
N1528 C1524 1.427 . S
N1528 C1525 1.384 . S
N1529 C1521 1.427 . S
N1529 C1527 1.384 1_655 S
H1530 C1536 0.930 . S
H1531 C1540 0.930 . S
H1532 C1545 0.929 . S
H1533 C1543 0.929 . S
H1534 C1538 0.929 . S
H1535 C1544 0.929 . S
C1536 H1530 0.930 . S
C1536 C1537 1.367 . S
C1536 C1544 1.378 . S
C1537 C1536 1.367 . S
C1537 C1545 1.433 . S
C1538 H1534 0.929 . S
C1538 C1540 1.378 . S
C1538 C1542 1.350 . S
C1539 C1542 1.463 . S
C1539 C1544 1.350 . S
C1539 N1547 1.427 . S
C1540 H1531 0.930 . S
C1540 C1538 1.378 . S
C1540 C1541 1.367 . S
C1541 C1540 1.367 . S
C1541 C1543 1.433 . S
C1542 C1538 1.350 . S
C1542 C1539 1.463 . S
C1542 N1546 1.427 . S
C1543 H1533 0.929 . S
C1543 C1541 1.433 . S
C1543 N1546 1.384 . S
C1544 H1535 0.929 . S
C1544 C1536 1.378 . S
C1544 C1539 1.350 . S
C1545 H1532 0.929 . S
C1545 C1537 1.433 . S
C1545 N1547 1.384 . S
N1546 C1542 1.427 . S
N1546 C1543 1.384 . S
N1547 C1539 1.427 . S
N1547 C1545 1.384 . S
H1548 C1554 0.930 1_565 S
H1549 C1558 0.930 . S
H1550 C1563 0.927 1_565 S
H1551 C1561 0.929 . S
H1552 C1556 0.929 . S
H1553 C1562 0.929 . S
C1554 H1548 0.930 1_545 S
C1554 C1555 1.367 1_545 S
C1554 C1562 1.378 . S
C1555 C1554 1.367 1_565 S
C1555 C1563 1.424 1_565 S
C1556 H1552 0.929 . S
C1556 C1558 1.378 . S
C1556 C1560 1.350 . S
C1557 C1560 1.463 . S
C1557 C1562 1.350 . S
C1557 N1565 1.427 . S
C1558 H1549 0.930 . S
C1558 C1556 1.378 . S
C1558 C1559 1.367 . S
C1559 C1558 1.367 . S
C1559 C1561 1.433 . S
C1560 C1556 1.350 . S
C1560 C1557 1.463 . S
C1560 N1564 1.427 . S
C1561 H1551 0.929 . S
C1561 C1559 1.433 . S
C1561 N1564 1.384 . S
C1562 H1553 0.929 . S
C1562 C1554 1.378 . S
C1562 C1557 1.350 . S
C1563 H1550 0.927 1_545 S
C1563 C1555 1.424 1_545 S
C1563 N1565 1.395 . S
N1564 C1560 1.427 . S
N1564 C1561 1.384 . S
N1565 C1557 1.427 . S
N1565 C1563 1.395 . S
H1566 C1572 0.930 . S
H1567 C1576 0.930 . S
H1568 C1581 0.929 . S
H1569 C1579 0.929 . S
H1570 C1574 0.929 . S
H1571 C1580 0.929 . S
C1572 H1566 0.930 . S
C1572 C1573 1.367 . S
C1572 C1580 1.378 . S
C1573 C1572 1.367 . S
C1573 C1581 1.433 . S
C1574 H1570 0.929 . S
C1574 C1576 1.378 . S
C1574 C1578 1.350 . S
C1575 C1578 1.463 . S
C1575 C1580 1.350 . S
C1575 N1583 1.427 . S
C1576 H1567 0.930 . S
C1576 C1574 1.378 . S
C1576 C1577 1.367 . S
C1577 C1576 1.367 . S
C1577 C1579 1.433 . S
C1578 C1574 1.350 . S
C1578 C1575 1.463 . S
C1578 N1582 1.427 . S
C1579 H1569 0.929 . S
C1579 C1577 1.433 . S
C1579 N1582 1.384 . S
C1580 H1571 0.929 . S
C1580 C1572 1.378 . S
C1580 C1575 1.350 . S
C1581 H1568 0.929 . S
C1581 C1573 1.433 . S
C1581 N1583 1.384 . S
N1582 C1578 1.427 . S
N1582 C1579 1.384 . S
N1583 C1575 1.427 . S
N1583 C1581 1.384 . S
H1584 C1590 0.930 . S
H1585 C1594 0.930 . S
H1586 C1599 0.929 . S
H1587 C1597 0.929 . S
H1588 C1592 0.929 . S
H1589 C1598 0.929 . S
C1590 H1584 0.930 . S
C1590 C1591 1.367 . S
C1590 C1598 1.378 . S
C1591 C1590 1.367 . S
C1591 C1599 1.433 . S
C1592 H1588 0.929 . S
C1592 C1594 1.378 . S
C1592 C1596 1.350 . S
C1593 C1596 1.463 . S
C1593 C1598 1.350 . S
C1593 N1601 1.427 . S
C1594 H1585 0.930 . S
C1594 C1592 1.378 . S
C1594 C1595 1.367 . S
C1595 C1594 1.367 . S
C1595 C1597 1.433 . S
C1596 C1592 1.350 . S
C1596 C1593 1.463 . S
C1596 N1600 1.427 . S
C1597 H1587 0.929 . S
C1597 C1595 1.433 . S
C1597 N1600 1.384 . S
C1598 H1589 0.929 . S
C1598 C1590 1.378 . S
C1598 C1593 1.350 . S
C1599 H1586 0.929 . S
C1599 C1591 1.433 . S
C1599 N1601 1.384 . S
N1600 C1596 1.427 . S
N1600 C1597 1.384 . S
N1601 C1593 1.427 . S
N1601 C1599 1.384 . S
H1602 C1608 0.930 . S
H1603 C1612 0.930 . S
H1604 C1617 0.929 . S
H1605 C1615 0.929 . S
H1606 C1610 0.929 . S
H1607 C1616 0.929 . S
C1608 H1602 0.930 . S
C1608 C1609 1.367 . S
C1608 C1616 1.378 . S
C1609 C1608 1.367 . S
C1609 C1617 1.433 . S
C1610 H1606 0.929 . S
C1610 C1612 1.378 . S
C1610 C1614 1.350 . S
C1611 C1614 1.463 . S
C1611 C1616 1.350 . S
C1611 N1619 1.427 . S
C1612 H1603 0.930 . S
C1612 C1610 1.378 . S
C1612 C1613 1.367 . S
C1613 C1612 1.367 . S
C1613 C1615 1.433 . S
C1614 C1610 1.350 . S
C1614 C1611 1.463 . S
C1614 N1618 1.427 . S
C1615 H1605 0.929 . S
C1615 C1613 1.433 . S
C1615 N1618 1.384 . S
C1616 H1607 0.929 . S
C1616 C1608 1.378 . S
C1616 C1611 1.350 . S
C1617 H1604 0.929 . S
C1617 C1609 1.433 . S
C1617 N1619 1.384 . S
N1618 C1614 1.427 . S
N1618 C1615 1.384 . S
N1619 C1611 1.427 . S
N1619 C1617 1.384 . S
H1620 C1626 0.930 . S
H1621 C1630 0.930 . S
H1622 C1635 0.929 . S
H1623 C1633 0.929 . S
H1624 C1628 0.929 . S
H1625 C1634 0.929 . S
C1626 H1620 0.930 . S
C1626 C1627 1.367 . S
C1626 C1634 1.378 . S
C1627 C1626 1.367 . S
C1627 C1635 1.433 . S
C1628 H1624 0.929 . S
C1628 C1630 1.378 . S
C1628 C1632 1.350 . S
C1629 C1632 1.463 . S
C1629 C1634 1.350 . S
C1629 N1637 1.427 . S
C1630 H1621 0.930 . S
C1630 C1628 1.378 . S
C1630 C1631 1.367 . S
C1631 C1630 1.367 . S
C1631 C1633 1.433 . S
C1632 C1628 1.350 . S
C1632 C1629 1.463 . S
C1632 N1636 1.427 . S
C1633 H1623 0.929 . S
C1633 C1631 1.433 . S
C1633 N1636 1.384 . S
C1634 H1625 0.929 . S
C1634 C1626 1.378 . S
C1634 C1629 1.350 . S
C1635 H1622 0.929 . S
C1635 C1627 1.433 . S
C1635 N1637 1.384 . S
N1636 C1632 1.427 . S
N1636 C1633 1.384 . S
N1637 C1629 1.427 . S
N1637 C1635 1.384 . S
H1638 C1644 0.930 . S
H1639 C1648 0.930 . S
H1640 C1653 0.929 . S
H1641 C1651 0.929 . S
H1642 C1646 0.929 . S
H1643 C1652 0.929 . S
C1644 H1638 0.930 . S
C1644 C1645 1.367 . S
C1644 C1652 1.378 . S
C1645 C1644 1.367 . S
C1645 C1653 1.433 . S
C1646 H1642 0.929 . S
C1646 C1648 1.378 . S
C1646 C1650 1.350 . S
C1647 C1650 1.463 . S
C1647 C1652 1.350 . S
C1647 N1655 1.427 . S
C1648 H1639 0.930 . S
C1648 C1646 1.378 . S
C1648 C1649 1.367 . S
C1649 C1648 1.367 . S
C1649 C1651 1.433 . S
C1650 C1646 1.350 . S
C1650 C1647 1.463 . S
C1650 N1654 1.427 . S
C1651 H1641 0.929 . S
C1651 C1649 1.433 . S
C1651 N1654 1.384 . S
C1652 H1643 0.929 . S
C1652 C1644 1.378 . S
C1652 C1647 1.350 . S
C1653 H1640 0.929 . S
C1653 C1645 1.433 . S
C1653 N1655 1.384 . S
N1654 C1650 1.427 . S
N1654 C1651 1.384 . S
N1655 C1647 1.427 . S
N1655 C1653 1.384 . S
H1656 C1662 0.930 . S
H1657 C1666 0.930 . S
H1658 C1671 0.929 . S
H1659 C1669 0.929 . S
H1660 C1664 0.929 . S
H1661 C1670 0.929 . S
C1662 H1656 0.930 . S
C1662 C1663 1.367 . S
C1662 C1670 1.378 . S
C1663 C1662 1.367 . S
C1663 C1671 1.433 . S
C1664 H1660 0.929 . S
C1664 C1666 1.378 . S
C1664 C1668 1.350 . S
C1665 C1668 1.463 . S
C1665 C1670 1.350 . S
C1665 N1673 1.427 . S
C1666 H1657 0.930 . S
C1666 C1664 1.378 . S
C1666 C1667 1.367 . S
C1667 C1666 1.367 . S
C1667 C1669 1.433 . S
C1668 C1664 1.350 . S
C1668 C1665 1.463 . S
C1668 N1672 1.427 . S
C1669 H1659 0.929 . S
C1669 C1667 1.433 . S
C1669 N1672 1.384 . S
C1670 H1661 0.929 . S
C1670 C1662 1.378 . S
C1670 C1665 1.350 . S
C1671 H1658 0.929 . S
C1671 C1663 1.433 . S
C1671 N1673 1.384 . S
N1672 C1668 1.427 . S
N1672 C1669 1.384 . S
N1673 C1665 1.427 . S
N1673 C1671 1.384 . S
H1674 C1680 0.930 . S
H1675 C1684 0.930 . S
H1676 C1689 0.929 . S
H1677 C1687 0.929 . S
H1678 C1682 0.929 . S
H1679 C1688 0.929 . S
C1680 H1674 0.930 . S
C1680 C1681 1.367 . S
C1680 C1688 1.378 . S
C1681 C1680 1.367 . S
C1681 C1689 1.433 . S
C1682 H1678 0.929 . S
C1682 C1684 1.378 . S
C1682 C1686 1.350 . S
C1683 C1686 1.463 . S
C1683 C1688 1.350 . S
C1683 N1691 1.427 . S
C1684 H1675 0.930 . S
C1684 C1682 1.378 . S
C1684 C1685 1.367 . S
C1685 C1684 1.367 . S
C1685 C1687 1.433 . S
C1686 C1682 1.350 . S
C1686 C1683 1.463 . S
C1686 N1690 1.427 . S
C1687 H1677 0.929 . S
C1687 C1685 1.433 . S
C1687 N1690 1.384 . S
C1688 H1679 0.929 . S
C1688 C1680 1.378 . S
C1688 C1683 1.350 . S
C1689 H1676 0.929 . S
C1689 C1681 1.433 . S
C1689 N1691 1.384 . S
N1690 C1686 1.427 . S
N1690 C1687 1.384 . S
N1691 C1683 1.427 . S
N1691 C1689 1.384 . S
H1692 C1698 0.930 . S
H1693 C1702 0.930 . S
H1694 C1707 0.929 . S
H1695 C1705 0.929 . S
H1696 C1700 0.929 . S
H1697 C1706 0.929 . S
C1698 H1692 0.930 . S
C1698 C1699 1.367 . S
C1698 C1706 1.378 . S
C1699 C1698 1.367 . S
C1699 C1707 1.433 . S
C1700 H1696 0.929 . S
C1700 C1702 1.378 . S
C1700 C1704 1.350 . S
C1701 C1704 1.463 . S
C1701 C1706 1.350 . S
C1701 N1709 1.427 . S
C1702 H1693 0.930 . S
C1702 C1700 1.378 . S
C1702 C1703 1.367 . S
C1703 C1702 1.367 . S
C1703 C1705 1.433 . S
C1704 C1700 1.350 . S
C1704 C1701 1.463 . S
C1704 N1708 1.427 . S
C1705 H1695 0.929 . S
C1705 C1703 1.433 . S
C1705 N1708 1.384 . S
C1706 H1697 0.929 . S
C1706 C1698 1.378 . S
C1706 C1701 1.350 . S
C1707 H1694 0.929 . S
C1707 C1699 1.433 . S
C1707 N1709 1.384 . S
N1708 C1704 1.427 . S
N1708 C1705 1.384 . S
N1709 C1701 1.427 . S
N1709 C1707 1.384 . S
H1710 C1716 0.930 . S
H1711 C1720 0.930 . S
H1712 C1725 0.929 . S
H1713 C1723 0.929 . S
H1714 C1718 0.929 . S
H1715 C1724 0.929 . S
C1716 H1710 0.930 . S
C1716 C1717 1.367 . S
C1716 C1724 1.378 . S
C1717 C1716 1.367 . S
C1717 C1725 1.433 . S
C1718 H1714 0.929 . S
C1718 C1720 1.378 . S
C1718 C1722 1.350 . S
C1719 C1722 1.463 . S
C1719 C1724 1.350 . S
C1719 N1727 1.427 . S
C1720 H1711 0.930 . S
C1720 C1718 1.378 . S
C1720 C1721 1.367 . S
C1721 C1720 1.367 . S
C1721 C1723 1.433 . S
C1722 C1718 1.350 . S
C1722 C1719 1.463 . S
C1722 N1726 1.427 . S
C1723 H1713 0.929 . S
C1723 C1721 1.433 . S
C1723 N1726 1.384 . S
C1724 H1715 0.929 . S
C1724 C1716 1.378 . S
C1724 C1719 1.350 . S
C1725 H1712 0.929 . S
C1725 C1717 1.433 . S
C1725 N1727 1.384 . S
N1726 C1722 1.427 . S
N1726 C1723 1.384 . S
N1727 C1719 1.427 . S
N1727 C1725 1.384 . S
H1728 C1734 0.930 . S
H1729 C1738 0.930 . S
H1730 C1743 0.929 . S
H1731 C1741 0.929 . S
H1732 C1736 0.929 . S
H1733 C1742 0.929 . S
C1734 H1728 0.930 . S
C1734 C1735 1.367 . S
C1734 C1742 1.378 . S
C1735 C1734 1.367 . S
C1735 C1743 1.433 . S
C1736 H1732 0.929 . S
C1736 C1738 1.378 . S
C1736 C1740 1.350 . S
C1737 C1740 1.463 . S
C1737 C1742 1.350 . S
C1737 N1745 1.427 . S
C1738 H1729 0.930 . S
C1738 C1736 1.378 . S
C1738 C1739 1.367 . S
C1739 C1738 1.367 . S
C1739 C1741 1.433 . S
C1740 C1736 1.350 . S
C1740 C1737 1.463 . S
C1740 N1744 1.427 . S
C1741 H1731 0.929 . S
C1741 C1739 1.433 . S
C1741 N1744 1.384 . S
C1742 H1733 0.929 . S
C1742 C1734 1.378 . S
C1742 C1737 1.350 . S
C1743 H1730 0.929 . S
C1743 C1735 1.433 . S
C1743 N1745 1.384 . S
N1744 C1740 1.427 . S
N1744 C1741 1.384 . S
N1745 C1737 1.427 . S
N1745 C1743 1.384 . S
H1746 C1752 0.930 . S
H1747 C1756 0.930 . S
H1748 C1761 0.929 . S
H1749 C1759 0.929 . S
H1750 C1754 0.929 . S
H1751 C1760 0.929 . S
C1752 H1746 0.930 . S
C1752 C1753 1.367 . S
C1752 C1760 1.378 . S
C1753 C1752 1.367 . S
C1753 C1761 1.433 . S
C1754 H1750 0.929 . S
C1754 C1756 1.378 . S
C1754 C1758 1.350 . S
C1755 C1758 1.463 . S
C1755 C1760 1.350 . S
C1755 N1763 1.427 . S
C1756 H1747 0.930 . S
C1756 C1754 1.378 . S
C1756 C1757 1.367 . S
C1757 C1756 1.367 . S
C1757 C1759 1.433 . S
C1758 C1754 1.350 . S
C1758 C1755 1.463 . S
C1758 N1762 1.427 . S
C1759 H1749 0.929 . S
C1759 C1757 1.433 . S
C1759 N1762 1.384 . S
C1760 H1751 0.929 . S
C1760 C1752 1.378 . S
C1760 C1755 1.350 . S
C1761 H1748 0.929 . S
C1761 C1753 1.433 . S
C1761 N1763 1.384 . S
N1762 C1758 1.427 . S
N1762 C1759 1.384 . S
N1763 C1755 1.427 . S
N1763 C1761 1.384 . S
H1764 C1770 0.930 . S
H1765 C1774 0.930 . S
H1766 C1779 0.929 . S
H1767 C1777 0.929 . S
H1768 C1772 0.929 . S
H1769 C1778 0.929 . S
C1770 H1764 0.930 . S
C1770 C1771 1.367 . S
C1770 C1778 1.378 . S
C1771 C1770 1.367 . S
C1771 C1779 1.433 . S
C1772 H1768 0.929 . S
C1772 C1774 1.378 . S
C1772 C1776 1.350 . S
C1773 C1776 1.463 . S
C1773 C1778 1.350 . S
C1773 N1781 1.427 . S
C1774 H1765 0.930 . S
C1774 C1772 1.378 . S
C1774 C1775 1.367 . S
C1775 C1774 1.367 . S
C1775 C1777 1.433 . S
C1776 C1772 1.350 . S
C1776 C1773 1.463 . S
C1776 N1780 1.427 . S
C1777 H1767 0.929 . S
C1777 C1775 1.433 . S
C1777 N1780 1.384 . S
C1778 H1769 0.929 . S
C1778 C1770 1.378 . S
C1778 C1773 1.350 . S
C1779 H1766 0.929 . S
C1779 C1771 1.433 . S
C1779 N1781 1.384 . S
N1780 C1776 1.427 . S
N1780 C1777 1.384 . S
N1781 C1773 1.427 . S
N1781 C1779 1.384 . S
H1782 C1788 0.930 . S
H1783 C1792 0.930 . S
H1784 C1797 0.929 . S
H1785 C1795 0.929 . S
H1786 C1790 0.929 . S
H1787 C1796 0.929 . S
C1788 H1782 0.930 . S
C1788 C1789 1.367 . S
C1788 C1796 1.378 . S
C1789 C1788 1.367 . S
C1789 C1797 1.433 . S
C1790 H1786 0.929 . S
C1790 C1792 1.378 . S
C1790 C1794 1.350 . S
C1791 C1794 1.463 . S
C1791 C1796 1.350 . S
C1791 N1799 1.427 . S
C1792 H1783 0.930 . S
C1792 C1790 1.378 . S
C1792 C1793 1.367 . S
C1793 C1792 1.367 . S
C1793 C1795 1.433 . S
C1794 C1790 1.350 . S
C1794 C1791 1.463 . S
C1794 N1798 1.427 . S
C1795 H1785 0.929 . S
C1795 C1793 1.433 . S
C1795 N1798 1.384 . S
C1796 H1787 0.929 . S
C1796 C1788 1.378 . S
C1796 C1791 1.350 . S
C1797 H1784 0.929 . S
C1797 C1789 1.433 . S
C1797 N1799 1.384 . S
N1798 C1794 1.427 . S
N1798 C1795 1.384 . S
N1799 C1791 1.427 . S
N1799 C1797 1.384 . S
H1800 C1806 0.930 . S
H1801 C1810 0.930 . S
H1802 C1815 0.929 . S
H1803 C1813 0.929 . S
H1804 C1808 0.929 . S
H1805 C1814 0.929 . S
C1806 H1800 0.930 . S
C1806 C1807 1.367 . S
C1806 C1814 1.378 . S
C1807 C1806 1.367 . S
C1807 C1815 1.433 . S
C1808 H1804 0.929 . S
C1808 C1810 1.378 . S
C1808 C1812 1.350 . S
C1809 C1812 1.463 . S
C1809 C1814 1.350 . S
C1809 N1817 1.427 . S
C1810 H1801 0.930 . S
C1810 C1808 1.378 . S
C1810 C1811 1.367 . S
C1811 C1810 1.367 . S
C1811 C1813 1.433 . S
C1812 C1808 1.350 . S
C1812 C1809 1.463 . S
C1812 N1816 1.427 . S
C1813 H1803 0.929 . S
C1813 C1811 1.433 . S
C1813 N1816 1.384 . S
C1814 H1805 0.929 . S
C1814 C1806 1.378 . S
C1814 C1809 1.350 . S
C1815 H1802 0.929 . S
C1815 C1807 1.433 . S
C1815 N1817 1.384 . S
N1816 C1812 1.427 . S
N1816 C1813 1.384 . S
N1817 C1809 1.427 . S
N1817 C1815 1.384 . S
H1818 C1824 0.930 . S
H1819 C1828 0.930 . S
H1820 C1833 0.929 . S
H1821 C1831 0.929 . S
H1822 C1826 0.929 . S
H1823 C1832 0.929 . S
C1824 H1818 0.930 . S
C1824 C1825 1.367 . S
C1824 C1832 1.378 . S
C1825 C1824 1.367 . S
C1825 C1833 1.433 . S
C1826 H1822 0.929 . S
C1826 C1828 1.378 . S
C1826 C1830 1.350 . S
C1827 C1830 1.463 . S
C1827 C1832 1.350 . S
C1827 N1835 1.427 . S
C1828 H1819 0.930 . S
C1828 C1826 1.378 . S
C1828 C1829 1.367 . S
C1829 C1828 1.367 . S
C1829 C1831 1.433 . S
C1830 C1826 1.350 . S
C1830 C1827 1.463 . S
C1830 N1834 1.427 . S
C1831 H1821 0.929 . S
C1831 C1829 1.433 . S
C1831 N1834 1.384 . S
C1832 H1823 0.929 . S
C1832 C1824 1.378 . S
C1832 C1827 1.350 . S
C1833 H1820 0.929 . S
C1833 C1825 1.433 . S
C1833 N1835 1.384 . S
N1834 C1830 1.427 . S
N1834 C1831 1.384 . S
N1835 C1827 1.427 . S
N1835 C1833 1.384 . S
H1836 C1842 0.930 . S
H1837 C1846 0.930 . S
H1838 C1851 0.929 . S
H1839 C1849 0.929 . S
H1840 C1844 0.929 . S
H1841 C1850 0.929 . S
C1842 H1836 0.930 . S
C1842 C1843 1.367 . S
C1842 C1850 1.378 . S
C1843 C1842 1.367 . S
C1843 C1851 1.433 . S
C1844 H1840 0.929 . S
C1844 C1846 1.378 . S
C1844 C1848 1.350 . S
C1845 C1848 1.463 . S
C1845 C1850 1.350 . S
C1845 N1853 1.427 . S
C1846 H1837 0.930 . S
C1846 C1844 1.378 . S
C1846 C1847 1.367 . S
C1847 C1846 1.367 . S
C1847 C1849 1.433 . S
C1848 C1844 1.350 . S
C1848 C1845 1.463 . S
C1848 N1852 1.427 . S
C1849 H1839 0.929 . S
C1849 C1847 1.433 . S
C1849 N1852 1.384 . S
C1850 H1841 0.929 . S
C1850 C1842 1.378 . S
C1850 C1845 1.350 . S
C1851 H1838 0.929 . S
C1851 C1843 1.433 . S
C1851 N1853 1.384 . S
N1852 C1848 1.427 . S
N1852 C1849 1.384 . S
N1853 C1845 1.427 . S
N1853 C1851 1.384 . S
H1854 C1860 0.930 . S
H1855 C1864 0.930 . S
H1856 C1869 0.929 . S
H1857 C1867 0.929 . S
H1858 C1862 0.929 . S
H1859 C1868 0.929 . S
C1860 H1854 0.930 . S
C1860 C1861 1.367 . S
C1860 C1868 1.378 . S
C1861 C1860 1.367 . S
C1861 C1869 1.433 . S
C1862 H1858 0.929 . S
C1862 C1864 1.378 . S
C1862 C1866 1.350 . S
C1863 C1866 1.463 . S
C1863 C1868 1.350 . S
C1863 N1871 1.427 . S
C1864 H1855 0.930 . S
C1864 C1862 1.378 . S
C1864 C1865 1.367 . S
C1865 C1864 1.367 . S
C1865 C1867 1.433 . S
C1866 C1862 1.350 . S
C1866 C1863 1.463 . S
C1866 N1870 1.427 . S
C1867 H1857 0.929 . S
C1867 C1865 1.433 . S
C1867 N1870 1.384 . S
C1868 H1859 0.929 . S
C1868 C1860 1.378 . S
C1868 C1863 1.350 . S
C1869 H1856 0.929 . S
C1869 C1861 1.433 . S
C1869 N1871 1.384 . S
N1870 C1866 1.427 . S
N1870 C1867 1.384 . S
N1871 C1863 1.427 . S
N1871 C1869 1.384 . S
H1872 C1878 0.930 . S
H1873 C1882 0.930 . S
H1874 C1887 0.929 . S
H1875 C1885 0.929 . S
H1876 C1880 0.929 . S
H1877 C1886 0.929 . S
C1878 H1872 0.930 . S
C1878 C1879 1.367 . S
C1878 C1886 1.378 . S
C1879 C1878 1.367 . S
C1879 C1887 1.433 . S
C1880 H1876 0.929 . S
C1880 C1882 1.378 . S
C1880 C1884 1.350 . S
C1881 C1884 1.463 . S
C1881 C1886 1.350 . S
C1881 N1889 1.427 . S
C1882 H1873 0.930 . S
C1882 C1880 1.378 . S
C1882 C1883 1.367 . S
C1883 C1882 1.367 . S
C1883 C1885 1.433 . S
C1884 C1880 1.350 . S
C1884 C1881 1.463 . S
C1884 N1888 1.427 . S
C1885 H1875 0.929 . S
C1885 C1883 1.433 . S
C1885 N1888 1.384 . S
C1886 H1877 0.929 . S
C1886 C1878 1.378 . S
C1886 C1881 1.350 . S
C1887 H1874 0.929 . S
C1887 C1879 1.433 . S
C1887 N1889 1.384 . S
N1888 C1884 1.427 . S
N1888 C1885 1.384 . S
N1889 C1881 1.427 . S
N1889 C1887 1.384 . S
H1890 C1896 0.930 . S
H1891 C1900 0.930 . S
H1892 C1905 0.929 . S
H1893 C1903 0.929 . S
H1894 C1898 0.929 . S
H1895 C1904 0.929 . S
C1896 H1890 0.930 . S
C1896 C1897 1.367 . S
C1896 C1904 1.378 . S
C1897 C1896 1.367 . S
C1897 C1905 1.433 . S
C1898 H1894 0.929 . S
C1898 C1900 1.378 . S
C1898 C1902 1.350 . S
C1899 C1902 1.463 . S
C1899 C1904 1.350 . S
C1899 N1907 1.427 . S
C1900 H1891 0.930 . S
C1900 C1898 1.378 . S
C1900 C1901 1.367 . S
C1901 C1900 1.367 . S
C1901 C1903 1.433 . S
C1902 C1898 1.350 . S
C1902 C1899 1.463 . S
C1902 N1906 1.427 . S
C1903 H1893 0.929 . S
C1903 C1901 1.433 . S
C1903 N1906 1.384 . S
C1904 H1895 0.929 . S
C1904 C1896 1.378 . S
C1904 C1899 1.350 . S
C1905 H1892 0.929 . S
C1905 C1897 1.433 . S
C1905 N1907 1.384 . S
N1906 C1902 1.427 . S
N1906 C1903 1.384 . S
N1907 C1899 1.427 . S
N1907 C1905 1.384 . S
H1908 C1914 0.930 . S
H1909 C1918 0.930 . S
H1910 C1923 0.929 . S
H1911 C1921 0.929 . S
H1912 C1916 0.929 . S
H1913 C1922 0.929 . S
C1914 H1908 0.930 . S
C1914 C1915 1.367 . S
C1914 C1922 1.378 . S
C1915 C1914 1.367 . S
C1915 C1923 1.433 . S
C1916 H1912 0.929 . S
C1916 C1918 1.378 . S
C1916 C1920 1.350 . S
C1917 C1920 1.463 . S
C1917 C1922 1.350 . S
C1917 N1925 1.427 . S
C1918 H1909 0.930 . S
C1918 C1916 1.378 . S
C1918 C1919 1.367 . S
C1919 C1918 1.367 . S
C1919 C1921 1.433 . S
C1920 C1916 1.350 . S
C1920 C1917 1.463 . S
C1920 N1924 1.427 . S
C1921 H1911 0.929 . S
C1921 C1919 1.433 . S
C1921 N1924 1.384 . S
C1922 H1913 0.929 . S
C1922 C1914 1.378 . S
C1922 C1917 1.350 . S
C1923 H1910 0.929 . S
C1923 C1915 1.433 . S
C1923 N1925 1.384 . S
N1924 C1920 1.427 . S
N1924 C1921 1.384 . S
N1925 C1917 1.427 . S
N1925 C1923 1.384 . S
H1926 C1932 0.930 . S
H1927 C1936 0.930 . S
H1928 C1941 0.929 . S
H1929 C1939 0.929 . S
H1930 C1934 0.929 . S
H1931 C1940 0.929 . S
C1932 H1926 0.930 . S
C1932 C1933 1.367 . S
C1932 C1940 1.378 . S
C1933 C1932 1.367 . S
C1933 C1941 1.433 . S
C1934 H1930 0.929 . S
C1934 C1936 1.378 . S
C1934 C1938 1.350 . S
C1935 C1938 1.463 . S
C1935 C1940 1.350 . S
C1935 N1943 1.427 . S
C1936 H1927 0.930 . S
C1936 C1934 1.378 . S
C1936 C1937 1.367 . S
C1937 C1936 1.367 . S
C1937 C1939 1.433 . S
C1938 C1934 1.350 . S
C1938 C1935 1.463 . S
C1938 N1942 1.427 . S
C1939 H1929 0.929 . S
C1939 C1937 1.433 . S
C1939 N1942 1.384 . S
C1940 H1931 0.929 . S
C1940 C1932 1.378 . S
C1940 C1935 1.350 . S
C1941 H1928 0.929 . S
C1941 C1933 1.433 . S
C1941 N1943 1.384 . S
N1942 C1938 1.427 . S
N1942 C1939 1.384 . S
N1943 C1935 1.427 . S
N1943 C1941 1.384 . S
C979 C162 1.450 . S
C983 C283 1.402 . S
C997 C174 1.476 . S
C1001 C367 1.423 . S
C1015 C150 1.449 . S
C1019 C447 1.444 . S
C1033 C138 1.431 . S
C1037 C363 1.426 1_556 S
C1055 C451 1.383 . S
C1051 C114 1.433 . S
C1069 C126 1.406 . S
C1073 C279 1.396 1_556 S
C1091 C272 1.452 . S
C1087 C136 1.492 . S
C1109 C356 1.464 . S
C1105 C112 1.521 . S
C1123 C124 1.518 . S
C1127 C458 1.485 1_556 S
C1141 C160 1.487 . S
C1145 C374 1.451 . S
C1159 C172 1.470 . S
C1163 C440 1.416 . S
C1181 C290 1.439 . S
C1177 C148 1.463 . S
C1199 C535 1.394 . S
C1195 C18 1.453 . S
C1213 C30 1.476 . S
C1217 C619 1.424 . S
C1231 C6 1.448 . S
C1235 C699 1.445 . S
C1249 C210 1.427 . S
C1253 C615 1.422 . S
C1267 C186 1.438 . S
C1271 C703 1.373 . S
C1285 C198 1.409 . S
C1289 C531 1.399 . S
C1303 C208 1.501 . S
C1307 C524 1.441 . S
C1321 C184 1.518 . S
C1325 C608 1.468 . S
C1343 C710 1.484 . S
C1339 C196 1.517 . S
C1357 C16 1.487 . S
C1361 C626 1.451 . S
C1379 C692 1.413 . S
C1375 C28 1.472 . S
C1393 C4 1.470 . S
C1397 C542 1.437 . S
C1415 C787 1.389 . S
C1411 C90 1.452 . S
C1429 C102 1.475 . S
C1433 C871 1.428 . S
C1451 C951 1.442 . S
C1447 C78 1.450 . S
C1469 C867 1.422 . S
C1465 C66 1.428 . S
C1487 C955 1.369 . S
C1483 C42 1.436 . S
C1501 C54 1.404 . S
C1505 C783 1.398 . S
C1519 C64 1.499 . S
C1523 C776 1.437 . S
C1537 C40 1.516 . S
C1541 C860 1.476 . S
C1559 C962 1.478 . S
C1555 C52 1.515 . S
C1573 C88 1.489 . S
C1577 C878 1.454 . S
C1591 C100 1.469 . S
C1595 C944 1.418 . S
C1609 C76 1.465 . S
C1613 C794 1.442 . S
C1627 C189 1.569 . S
C1631 C286 1.435 . S
C1649 C370 1.469 . S
C1645 C201 1.629 . S
C1663 C213 1.574 . S
C1667 C442 1.376 . S
C1681 C81 1.601 . S
C1685 C358 1.400 . S
C1699 C93 1.590 . S
C1703 C454 1.439 . S
C1721 C274 1.356 . S
C1717 C105 1.535 . S
C1735 C45 1.567 . S
C1739 C538 1.439 . S
C1753 C57 1.632 . S
C1757 C622 1.483 . S
C1771 C69 1.578 . S
C1775 C694 1.399 . S
C1789 C153 1.601 . S
C1793 C610 1.408 . S
C1811 C706 1.441 . S
C1807 C165 1.587 . S
C1825 C177 1.538 . S
C1829 C526 1.356 . S
C1843 C117 1.567 . S
C1847 C790 1.440 . S
C1861 C129 1.630 . S
C1865 C874 1.490 . S
C1883 C946 1.397 . S
C1879 C141 1.579 . S
C1897 C9 1.601 . S
C1901 C862 1.408 . S
C1915 C21 1.587 . S
C1919 C958 1.461 . S
C1933 C33 1.538 . S
C1937 C778 1.381 . S
