# Generated by pormake.
# Topology anh, (6,3)-cn, num edge types: 1
# Building blocks:
#     Node 0, Type 0, BuildingBlock: BETDAH_clean_sbu_0, # of connection points: 6
#     Node 1, Type 0, BuildingBlock: BETDAH_clean_sbu_0, # of connection points: 6
#     Node 2, Type 0, BuildingBlock: BETDAH_clean_sbu_0, # of connection points: 6
#     Node 3, Type 1, BuildingBlock: CUQRIR_clean_linker_1, # of connection points: 3
#     Node 4, Type 1, BuildingBlock: CUQRIR_clean_linker_1, # of connection points: 3
#     Node 5, Type 1, BuildingBlock: CUQRIR_clean_linker_1, # of connection points: 3
#     Node 6, Type 1, BuildingBlock: CUQRIR_clean_linker_1, # of connection points: 3
#     Node 7, Type 1, BuildingBlock: CUQRIR_clean_linker_1, # of connection points: 3
#     Node 8, Type 1, BuildingBlock: CUQRIR_clean_linker_1, # of connection points: 3
#     Edge 9, Type (0, 1), BuildingBlock: AJUNOK_clean_linker_0, # of connection points: 2
#     Edge 10, Type (0, 1), BuildingBlock: AJUNOK_clean_linker_0, # of connection points: 2
#     Edge 11, Type (0, 1), BuildingBlock: AJUNOK_clean_linker_0, # of connection points: 2
#     Edge 12, Type (0, 1), BuildingBlock: AJUNOK_clean_linker_0, # of connection points: 2
#     Edge 13, Type (0, 1), BuildingBlock: AJUNOK_clean_linker_0, # of connection points: 2
#     Edge 14, Type (0, 1), BuildingBlock: AJUNOK_clean_linker_0, # of connection points: 2
#     Edge 15, Type (0, 1), BuildingBlock: AJUNOK_clean_linker_0, # of connection points: 2
#     Edge 16, Type (0, 1), BuildingBlock: AJUNOK_clean_linker_0, # of connection points: 2
#     Edge 17, Type (0, 1), BuildingBlock: AJUNOK_clean_linker_0, # of connection points: 2
#     Edge 18, Type (0, 1), BuildingBlock: AJUNOK_clean_linker_0, # of connection points: 2
#     Edge 19, Type (0, 1), BuildingBlock: AJUNOK_clean_linker_0, # of connection points: 2
#     Edge 20, Type (0, 1), BuildingBlock: AJUNOK_clean_linker_0, # of connection points: 2
#     Edge 21, Type (0, 1), BuildingBlock: AJUNOK_clean_linker_0, # of connection points: 2
#     Edge 22, Type (0, 1), BuildingBlock: AJUNOK_clean_linker_0, # of connection points: 2
#     Edge 23, Type (0, 1), BuildingBlock: AJUNOK_clean_linker_0, # of connection points: 2
#     Edge 24, Type (0, 1), BuildingBlock: AJUNOK_clean_linker_0, # of connection points: 2
#     Edge 25, Type (0, 1), BuildingBlock: AJUNOK_clean_linker_0, # of connection points: 2
#     Edge 26, Type (0, 1), BuildingBlock: AJUNOK_clean_linker_0, # of connection points: 2
# Relax obj value: 0.277
# Max RMSD: 0.228
# Mean RMSD: 0.175
data_MOF--net-anh--node1-BETDAH_clean_sbu_0--node2-CUQRIR_clean_linker_1--edge1-AJUNOK_clean_linker_0
_symmetry_space_group_name_H-M    P1
_symmetry_Int_Tables_number       1
_symmetry_cell_setting            triclinic
loop_
_symmetry_equiv_pos_as_xyz
'x, y, z'
_cell_length_a     20.308483
_cell_length_b     27.089017
_cell_length_c     32.990886
_cell_angle_alpha  86.487699
_cell_angle_beta   89.793991
_cell_angle_gamma 134.58141
loop_
_atom_site_label
_atom_site_type_symbol
_atom_site_fract_x
_atom_site_fract_y
_atom_site_fract_z
_atom_type_partial_charge
Ho0 Ho 0.23652 0.49762 0.17204 0.0
Ho1 Ho 1.12025 0.51911 0.16493 0.0
C2 C 0.32539 0.65781 0.16955 0.0
C3 C 0.38154 0.52531 0.16873 0.0
C4 C 0.4586 0.58612 0.18874 0.0
C5 C 0.53759 0.64611 0.16581 0.0
C6 C 0.61615 0.69714 0.18654 0.0
C7 C 0.61865 0.67548 0.22616 0.0
C8 C 0.53621 0.63944 0.25018 0.0
C9 C 0.45345 0.58858 0.23133 0.0
C10 C 0.16277 0.48159 0.24576 0.0
C11 C 1.02938 0.36128 0.169 0.0
C12 C 0.99612 0.51042 0.19229 0.0
C13 C 0.90449 0.44424 0.2064 0.0
C14 C 0.85128 0.4425 0.2347 0.0
C15 C 0.75748 0.39951 0.22797 0.0
C16 C 0.72555 0.36375 0.19255 0.0
C17 C 0.7654 0.34097 0.18012 0.0
C18 C 0.86016 0.38761 0.18275 0.0
C19 C 0.16249 0.51801 0.08654 0.0
O20 O 0.33624 0.61538 0.17838 0.0
O21 O 0.24457 0.63227 0.15996 0.0
O22 O 0.31118 0.47229 0.19295 0.0
O23 O 0.35816 0.53927 0.13647 0.0
O24 O 0.16624 0.43923 0.23285 0.0
O25 O 0.19619 0.52958 0.21764 0.0
O26 O 1.02082 0.40263 0.17951 0.0
O27 O 1.11189 0.38889 0.15663 0.0
O28 O 1.01657 0.51984 0.15309 0.0
O29 O 1.06166 0.52847 0.21421 0.0
O30 O 1.11164 0.5284 0.0967 0.0
O31 O 0.18992 0.51046 0.11815 0.0
H32 H 0.54024 0.65148 0.13287 0.0
H33 H 0.67942 0.74073 0.16871 0.0
H34 H 0.53543 0.63442 0.28302 0.0
H35 H 0.38972 0.54848 0.25003 0.0
H36 H 0.88394 0.48337 0.25495 0.0
H37 H 0.72092 0.41022 0.24219 0.0
H38 H 0.73537 0.30551 0.15648 0.0
H39 H 0.89766 0.38691 0.16 0.0
Ho40 Ho 0.80361 0.05832 0.48612 0.0
Ho41 Ho 0.67506 0.07174 0.47813 0.0
C42 C 0.58446 0.91903 0.48153 0.0
C43 C 0.87304 1.01029 0.50594 0.0
C44 C 0.82745 0.93732 0.51157 0.0
C45 C 0.80481 0.90473 0.55102 0.0
C46 C 0.76352 0.8364 0.55688 0.0
C47 C 0.74445 0.79937 0.5234 0.0
C48 C 0.76107 0.83012 0.48392 0.0
C49 C 0.80289 0.89868 0.47801 0.0
C50 C 0.78576 0.08302 0.40816 0.0
C51 C 0.8971 0.21288 0.48182 0.0
C52 C 0.59402 0.11008 0.45614 0.0
C53 C 0.6136 0.17206 0.46398 0.0
C54 C 0.69136 0.23809 0.44482 0.0
C55 C 0.71902 0.2978 0.45834 0.0
C56 C 0.67039 0.29234 0.49164 0.0
C57 C 0.58729 0.22601 0.50765 0.0
C58 C 0.55954 0.16647 0.49417 0.0
C59 C 0.69219 0.04936 0.557 0.0
O60 O 0.66311 0.94622 0.49667 0.0
O61 O 0.57681 0.96029 0.46539 0.0
O62 O 0.88078 0.0344 0.46884 0.0
O63 O 0.84792 1.02892 0.53275 0.0
O64 O 0.8632 0.10918 0.42236 0.0
O65 O 0.72082 0.04158 0.43526 0.0
O66 O 0.81339 0.185 0.47388 0.0
O67 O 0.91199 0.17341 0.49123 0.0
O68 O 0.56515 0.06661 0.48801 0.0
O69 O 0.65596 0.12091 0.43287 0.0
O70 O 0.61528 1.02151 0.54135 0.0
O71 O 0.75815 0.08951 0.52986 0.0
H72 H 0.82109 0.93267 0.57744 0.0
H73 H 0.75143 0.81397 0.58766 0.0
H74 H 0.7451 0.80209 0.45758 0.0
H75 H 0.81728 0.92159 0.44714 0.0
H76 H 0.73346 0.24407 0.42074 0.0
H77 H 0.78127 0.34813 0.44423 0.0
H78 H 0.54469 0.21993 0.53147 0.0
H79 H 0.49796 0.11613 0.50868 0.0
Ho80 Ho 0.81206 0.67428 0.8408 0.0
Ho81 Ho 0.67078 0.52438 0.8476 0.0
C82 C 0.58924 0.59248 0.85732 0.0
C83 C 0.90297 0.8028 0.82322 0.0
C84 C 0.86843 0.83496 0.81414 0.0
C85 C 0.82059 0.82115 0.77898 0.0
C86 C 0.78477 0.84948 0.77162 0.0
C87 C 0.79579 0.89155 0.79931 0.0
C88 C 0.84132 0.90423 0.83488 0.0
C89 C 0.87743 0.87602 0.84228 0.0
C90 C 0.78453 0.61497 0.91485 0.0
C91 C 0.89545 0.60661 0.8402 0.0
C92 C 0.58289 0.39635 0.86535 0.0
C93 C 0.61142 0.36044 0.85697 0.0
C94 C 0.63857 0.34162 0.88856 0.0
C95 C 0.66765 0.30904 0.88031 0.0
C96 C 0.66964 0.29482 0.8404 0.0
C97 C 0.64621 0.31625 0.80876 0.0
C98 C 0.61717 0.34844 0.81691 0.0
C99 C 0.69782 0.57944 0.77104 0.0
O100 O 0.6753 0.65016 0.84246 0.0
O101 O 0.57232 0.5356 0.86667 0.0
O102 O 0.88445 0.77538 0.86057 0.0
O103 O 0.88984 0.76334 0.79641 0.0
O104 O 0.86553 0.67167 0.89944 0.0
O105 O 0.72261 0.59721 0.89213 0.0
O106 O 0.80556 0.54696 0.84498 0.0
O107 O 0.91753 0.66615 0.83535 0.0
O108 O 0.56608 0.41706 0.83386 0.0
O109 O 0.63093 0.44326 0.89134 0.0
O110 O 0.61787 0.52671 0.78944 0.0
O111 O 0.76153 0.60094 0.79437 0.0
H112 H 0.81125 0.78891 0.75695 0.0
H113 H 0.75089 0.84034 0.74373 0.0
H114 H 0.85119 0.9375 0.85624 0.0
H115 H 0.91281 0.88656 0.86986 0.0
H116 H 0.63658 0.35161 0.91961 0.0
H117 H 0.68554 0.293 0.90517 0.0
H118 H 0.64889 0.30695 0.77759 0.0
H119 H 0.59899 0.36361 0.79165 0.0
C120 C 0.65596 1.01117 0.18134 0.0
N121 N 0.70988 0.06237 0.20707 0.0
N122 N 0.58865 0.94797 0.20247 0.0
C123 C 0.66809 1.02197 0.13573 0.0
C124 C 0.60205 0.96278 0.24175 0.0
N125 N 0.67556 0.03157 0.24472 0.0
C126 C 0.54462 0.90939 0.27773 0.0
H127 H 0.59949 0.98952 0.12268 0.0
H128 H 0.70056 1.00477 0.12485 0.0
H129 H 0.71184 0.07729 0.12467 0.0
H130 H 0.57901 0.89342 0.28944 0.0
H131 H 0.47444 0.86257 0.26904 0.0
H132 H 0.53852 0.93189 0.30269 0.0
C133 C 0.69675 0.53005 0.54519 0.0
N134 N 0.7035 0.57165 0.56942 0.0
N135 N 0.74203 0.51368 0.56001 0.0
C136 C 0.64173 0.50321 0.50792 0.0
C137 C 0.77622 0.54694 0.59442 0.0
N138 N 0.75183 0.58139 0.60048 0.0
C139 C 0.83775 0.54958 0.62162 0.0
H140 H 0.6039 0.44803 0.50575 0.0
H141 H 0.68932 0.5344 0.48032 0.0
H142 H 0.59138 0.50762 0.50864 0.0
H143 H 0.86823 0.53351 0.60632 0.0
H144 H 0.79722 0.51532 0.65001 0.0
H145 H 0.8944 0.60326 0.63057 0.0
C146 C 0.24356 0.59802 0.85312 0.0
N147 N 0.28102 0.5843 0.88164 0.0
N148 N 0.1756 0.59272 0.87004 0.0
C149 C 0.27188 0.61565 0.80859 0.0
C150 C 0.17301 0.57508 0.90961 0.0
N151 N 0.23387 0.56944 0.91677 0.0
C152 C 1.11216 0.56652 0.94219 0.0
H153 H 0.33325 0.67255 0.80285 0.0
H154 H 0.21528 0.60158 0.79071 0.0
H155 H 0.29067 0.58833 0.79844 0.0
H156 H 1.0456 0.54393 0.9302 0.0
H157 H 1.14849 0.61857 0.95188 0.0
H158 H 1.09607 0.53307 0.96947 0.0
C159 C 0.24642 0.56352 0.47619 0.0
N160 N 0.19758 0.51281 0.45002 0.0
N161 N 0.30807 0.62758 0.45547 0.0
C162 C 0.23178 0.551 0.52172 0.0
C163 C 0.29565 0.61409 0.41601 0.0
N164 N 0.22784 0.54479 0.41252 0.0
C165 C 0.35276 0.66919 0.38074 0.0
H166 H 0.18571 0.557 0.53185 0.0
H167 H 0.29867 0.59002 0.5359 0.0
H168 H 0.19906 0.49779 0.53219 0.0
H169 H 0.42421 0.71388 0.38937 0.0
H170 H 0.32134 0.68881 0.37211 0.0
H171 H 0.35582 0.64795 0.3539 0.0
C172 C 0.73356 0.093 0.79252 0.0
N173 N 0.73214 0.06255 0.76098 0.0
N174 N 0.75277 0.15017 0.77894 0.0
C175 C 0.71534 0.06679 0.83671 0.0
C176 C 0.76343 0.15365 0.73808 0.0
N177 N 0.75188 0.10084 0.72689 0.0
C178 C 0.78107 0.20741 0.70904 0.0
H179 H 0.63965 1.02213 0.84348 0.0
H180 H 0.74063 0.10775 0.85686 0.0
H181 H 0.74925 0.04861 0.84356 0.0
H182 H 0.82754 0.25827 0.72233 0.0
H183 H 0.71464 0.19158 0.70399 0.0
H184 H 0.81254 0.21307 0.67934 0.0
C185 C 0.59765 0.46595 0.13944 0.0
N186 N 0.62802 0.46642 0.10273 0.0
N187 N 0.57142 0.49967 0.13615 0.0
C188 C 0.61203 0.44618 0.17997 0.0
C189 C 0.58004 0.51559 0.09557 0.0
N190 N 0.62061 0.49985 0.07531 0.0
C191 C 0.53194 0.53359 0.07571 0.0
H192 H 0.59539 0.39788 0.17921 0.0
H193 H 0.56646 0.43614 0.20487 0.0
H194 H 0.68482 0.48926 0.18784 0.0
H195 H 0.56331 0.58514 0.08396 0.0
H196 H 0.45832 0.49482 0.08757 0.0
H197 H 0.5344 0.53303 0.04212 0.0
C198 C 0.57643 0.56393 0.23385 0.0
C199 C 0.64739 0.63719 0.22446 0.0
C200 C 0.54567 0.5201 0.20291 0.0
C201 C 0.59787 0.54633 0.16582 0.0
H202 H 0.53149 0.54146 0.26134 0.0
H203 H 0.48142 0.46561 0.20793 0.0
S204 S 0.83126 0.72433 0.14221 0.0
N205 N 0.79477 0.72777 0.18577 0.0
N206 N 0.74852 0.64316 0.13055 0.0
C207 C 0.68612 0.61521 0.16253 0.0
C208 C 0.71252 0.66033 0.19293 0.0
C209 C 1.06474 0.32228 0.4631 0.0
C210 C 0.97594 0.2903 0.47779 0.0
C211 C 1.13722 0.39505 0.45458 0.0
C212 C 1.12355 0.43842 0.46026 0.0
H213 H 1.07772 0.29079 0.45705 0.0
H214 H 0.20448 0.41764 0.44348 0.0
S215 S 0.91219 0.38333 0.50645 0.0
N216 N 0.8836 0.30961 0.50336 0.0
N217 N 1.01979 0.44582 0.48677 0.0
C218 C 1.03743 0.40784 0.47726 0.0
C219 C 0.96358 0.33394 0.48601 0.0
C220 C 0.8428 0.99728 0.76685 0.0
C221 C 0.77356 0.93123 0.7877 0.0
C222 C 0.82607 0.03801 0.75583 0.0
C223 C 0.73949 1.01369 0.76492 0.0
H224 H 0.91108 1.0182 0.75994 0.0
H225 H 0.88268 0.09048 0.74208 0.0
S226 S 0.5352 0.84376 0.81925 0.0
N227 N 0.61541 0.84253 0.8173 0.0
N228 N 0.58316 0.9193 0.79578 0.0
C229 C 0.66881 0.94695 0.78514 0.0
C230 C 0.68611 0.90554 0.79675 0.0
C231 C 0.64549 0.35095 0.13143 0.0
C232 C 0.71697 0.39488 0.15736 0.0
C233 C 0.62819 0.37866 0.10141 0.0
C234 C 0.68033 0.44995 0.09815 0.0
H235 H 0.59776 0.29498 0.13696 0.0
H236 H 0.56344 0.34328 0.08683 0.0
S237 S 0.90003 0.58951 0.14363 0.0
N238 N 0.85962 0.51635 0.16692 0.0
N239 N 0.82588 0.5653 0.10904 0.0
C240 C 0.76611 0.49489 0.11488 0.0
C241 C 0.78298 0.46795 0.14656 0.0
C242 C 0.51841 0.79771 0.49294 0.0
C243 C 0.50677 0.8419 0.48028 0.0
C244 C 0.4499 0.72599 0.4877 0.0
C245 C 0.36704 0.69577 0.47005 0.0
H246 H 0.58243 0.81899 0.50543 0.0
H247 H 0.46376 0.69468 0.49543 0.0
S248 S 0.29708 0.78528 0.43549 0.0
N249 N 0.40129 0.84749 0.45191 0.0
N250 N 0.27361 0.71328 0.44283 0.0
C251 C 0.35214 0.73812 0.45955 0.0
C252 C 0.42163 0.81094 0.46447 0.0
C253 C 0.62521 0.19593 0.80782 0.0
C254 C 0.68811 0.25273 0.83102 0.0
C255 C 0.64548 0.16078 0.79255 0.0
C256 C 0.72927 0.18122 0.79985 0.0
H257 H 0.56097 0.17997 0.80027 0.0
H258 H 0.59704 0.11887 0.77355 0.0
S259 S 0.91243 0.32034 0.86278 0.0
N260 N 0.83373 0.32319 0.86414 0.0
N261 N 0.87228 0.25689 0.83433 0.0
C262 C 0.79055 0.23487 0.82495 0.0
C263 C 0.76964 0.27064 0.84097 0.0
C264 C 0.65571 0.68262 0.5612 0.0
C265 C 0.72175 0.73415 0.53004 0.0
C266 C 0.64721 0.62767 0.57333 0.0
C267 C 0.70411 0.62275 0.55444 0.0
H268 H 0.61287 0.68633 0.57726 0.0
H269 H 0.59802 0.59002 0.59819 0.0
S270 S 0.88689 0.74309 0.47162 0.0
N271 N 0.84379 0.7754 0.48042 0.0
N272 N 0.82746 0.67244 0.5034 0.0
C273 C 0.76795 0.67234 0.52253 0.0
C274 C 0.77657 0.72785 0.51012 0.0
C275 C 1.05724 0.65892 0.86113 0.0
C276 C 0.97263 0.60644 0.84274 0.0
C277 C 1.12553 0.65682 0.86703 0.0
C278 C 1.11657 0.60323 0.85399 0.0
H279 H 1.06946 0.70105 0.87288 0.0
H280 H 0.18505 0.69668 0.88363 0.0
S281 S 0.91368 0.45559 0.80066 0.0
N282 N 0.88826 0.50021 0.80953 0.0
N283 N 1.01479 0.49725 0.81983 0.0
C284 C 1.03395 0.55174 0.83428 0.0
C285 C 0.96345 0.55316 0.82888 0.0
C286 C 0.39032 0.7787 0.15913 0.0
C287 C 0.40111 0.7346 0.17386 0.0
C288 C 0.45414 0.8495 0.16656 0.0
C289 C 0.53211 0.87942 0.18849 0.0
H290 H 0.33029 0.75794 0.14279 0.0
H291 H 0.44048 0.88027 0.15658 0.0
S292 S 0.59592 0.79046 0.23319 0.0
N293 N 0.49811 0.72862 0.2118 0.0
N294 N 0.61982 0.8621 0.22318 0.0
C295 C 0.54634 0.83747 0.20169 0.0
C296 C 0.48067 0.76515 0.19502 0.0
C297 C 0.74105 0.41437 0.48577 0.0
C298 C 0.70577 0.35496 0.51031 0.0
C299 C 0.76064 0.46919 0.50289 0.0
C300 C 0.7422 0.46518 0.54472 0.0
H301 H 0.74929 0.4172 0.45301 0.0
H302 H 0.78567 0.51341 0.48298 0.0
S303 S 0.6686 0.32754 0.62289 0.0
N304 N 0.67368 0.30283 0.5795 0.0
N305 N 0.69635 0.4005 0.61077 0.0
C306 C 0.71351 0.4085 0.56987 0.0
C307 C 0.69862 0.35465 0.55279 0.0
C308 C 0.5143 0.64228 0.84528 0.0
C309 C 0.51053 0.59117 0.86387 0.0
C310 C 0.44099 0.63977 0.85085 0.0
C311 C 0.35735 0.5862 0.87576 0.0
H312 H 0.5748 0.68507 0.82573 0.0
H313 H 0.45115 0.68139 0.83563 0.0
S314 S 0.30988 0.43884 0.93207 0.0
N315 N 0.4134 0.48557 0.90937 0.0
N316 N 0.27872 0.47925 0.91822 0.0
C317 C 0.35335 0.53504 0.89438 0.0
C318 C 0.42792 0.53783 0.88885 0.0
C319 C 0.86785 0.25726 0.20006 0.0
C320 C 0.94711 0.28379 0.17662 0.0
C321 C 0.79103 0.18532 0.20967 0.0
C322 C 0.78982 0.13632 0.19663 0.0
H323 H 0.8653 0.29224 0.21193 0.0
H324 H 0.73176 0.16782 0.22726 0.0
S325 S 0.97672 0.17613 0.13426 0.0
N326 N 1.01679 0.25335 0.13984 0.0
N327 N 0.87384 0.1187 0.15915 0.0
C328 C 0.86763 0.16147 0.17312 0.0
C329 C 0.94574 0.23484 0.16291 0.0
C330 C 0.27433 0.59583 0.02592 0.0
C331 C 0.19825 0.52835 0.04416 0.0
C332 C 0.29718 0.60824 0.98359 0.0
C333 C 0.24392 0.55388 0.95777 0.0
H334 H 0.31254 0.6399 0.04401 0.0
H335 H 0.34991 0.66155 0.9703 0.0
S336 S 1.04145 0.36731 0.99136 0.0
N337 N 1.07532 0.40599 0.03403 0.0
N338 N 1.11405 0.42949 0.95467 0.0
C339 C 0.17221 0.48563 0.9765 0.0
C340 C 1.14996 0.47295 0.01953 0.0
C341 C 0.73109 0.10164 0.34669 0.0
C342 C 0.7707 0.07951 0.36426 0.0
C343 C 0.70685 0.09133 0.30601 0.0
C344 C 0.72269 0.05946 0.2816 0.0
H345 H 0.71638 0.12528 0.36469 0.0
H346 H 0.67078 0.10464 0.29432 0.0
S347 S 0.82215 0.99072 0.31339 0.0
N348 N 0.8236 1.02371 0.35427 0.0
N349 N 0.77977 1.00573 0.27774 0.0
C350 C 0.76525 0.0395 0.29846 0.0
C351 C 0.78891 0.04922 0.33982 0.0
C352 C 0.63893 0.52986 0.70442 0.0
C353 C 0.70961 0.58696 0.72602 0.0
C354 C 0.65127 0.5307 0.6626 0.0
C355 C 0.73409 0.58877 0.64069 0.0
H356 H 0.5752 0.48251 0.72018 0.0
H357 H 0.59782 0.48419 0.64753 0.0
S358 S 0.93353 0.75569 0.68064 0.0
N359 N 0.86107 0.70627 0.72101 0.0
N360 N 0.8831 0.70752 0.64178 0.0
C361 C 0.8026 0.6479 0.66092 0.0
C362 C 0.79061 0.64704 0.7038 0.0
C363 C 0.78039 0.07445 0.61952 0.0
C364 C 0.7034 0.05601 0.60161 0.0
C365 C 0.79379 0.08508 0.6613 0.0
C366 C 0.7304 0.07726 0.68649 0.0
H367 H 0.83156 0.08216 0.60099 0.0
H368 H 0.85592 0.10239 0.67344 0.0
S369 S 0.51972 0.03184 0.65493 0.0
N370 N 0.5642 0.03195 0.61292 0.0
N371 N 0.58861 0.04997 0.69086 0.0
C372 C 0.65234 0.05711 0.66921 0.0
C373 C 0.63902 0.047 0.62696 0.0
C374 C 0.7233 0.52597 0.97163 0.0
C375 C 0.76361 0.59272 0.95791 0.0
C376 C 0.67773 0.49596 0.01037 0.0
C377 C 0.67313 0.53272 0.03651 0.0
H378 H 0.72374 0.49584 0.95183 0.0
H379 H 0.64269 0.44285 0.01908 0.0
S380 S 0.78312 0.71462 0.01542 0.0
N381 N 0.80463 0.69727 0.9732 0.0
N382 N 0.72603 0.64418 0.04709 0.0
C383 C 0.72138 0.60234 0.02383 0.0
C384 C 0.76536 0.63173 0.98422 0.0
C385 C 0.18785 0.46181 0.31683 0.0
C386 C 0.16398 0.48953 0.29032 0.0
C387 C 0.20198 0.47526 0.35798 0.0
C388 C 0.18831 0.51397 0.37481 0.0
H389 H 0.20188 0.43324 0.3052 0.0
H390 H 0.2299 0.45938 0.37581 0.0
S391 S 1.11267 0.58981 0.32144 0.0
N392 N 1.12261 0.55489 0.28576 0.0
N393 N 1.13836 0.57243 0.36385 0.0
C394 C 1.15609 0.5363 0.3499 0.0
C395 C 1.14685 0.52622 0.30751 0.0
loop_
_geom_bond_atom_site_label_1
_geom_bond_atom_site_label_2
_geom_bond_distance
_geom_bond_site_symmetry_2
_ccdc_geom_bond_type
Ho0 C3 2.811 . S
Ho0 O20 2.322 . S
Ho0 O22 2.378 . S
Ho0 O23 2.524 . S
Ho0 O24 2.381 . S
Ho0 O25 2.669 1_455 S
Ho0 O27 2.346 1_455 S
Ho0 O31 2.305 . S
Ho1 C12 2.811 . S
Ho1 O21 2.346 1_655 S
Ho1 O25 2.305 . S
Ho1 O26 2.322 . S
Ho1 O28 2.378 . S
Ho1 O29 2.524 . S
Ho1 O30 2.381 . S
Ho1 O31 2.669 1_655 S
C2 O20 1.259 . S
C2 O21 1.268 . S
C3 Ho0 2.811 . S
C3 C4 1.488 . S
C3 O22 1.215 . S
C3 O23 1.289 . S
C4 C3 1.488 . S
C4 C5 1.348 . S
C4 C9 1.413 . S
C5 C4 1.348 . S
C5 C6 1.442 . S
C5 H32 0.930 . S
C6 C5 1.442 . S
C6 C7 1.381 . S
C6 H33 0.931 . S
C7 C6 1.381 . S
C7 C8 1.321 . S
C8 C7 1.321 . S
C8 C9 1.403 . S
C8 H34 0.934 . S
C9 C4 1.413 . S
C9 C8 1.403 . S
C9 H35 0.930 . S
C10 O24 1.275 . S
C10 O25 1.256 1_455 S
C11 O26 1.259 . S
C11 O27 1.268 . S
C12 Ho1 2.811 . S
C12 C13 1.488 . S
C12 O28 1.215 . S
C12 O29 1.289 . S
C13 C12 1.488 . S
C13 C14 1.348 . S
C13 C18 1.413 . S
C14 C13 1.348 . S
C14 C15 1.442 . S
C14 H36 0.930 . S
C15 C14 1.442 . S
C15 C16 1.381 . S
C15 H37 0.931 . S
C16 C15 1.381 . S
C16 C17 1.321 . S
C17 C16 1.321 . S
C17 C18 1.403 . S
C17 H38 0.934 . S
C18 C13 1.413 . S
C18 C17 1.403 . S
C18 H39 0.930 . S
C19 O30 1.275 1_455 S
C19 O31 1.256 . S
O20 Ho0 2.322 . S
O20 C2 1.259 . S
O21 Ho1 2.346 1_455 S
O21 C2 1.268 . S
O22 Ho0 2.378 . S
O22 C3 1.215 . S
O23 Ho0 2.524 . S
O23 C3 1.289 . S
O24 Ho0 2.381 . S
O24 C10 1.275 . S
O25 Ho0 2.669 1_655 S
O25 Ho1 2.305 . S
O25 C10 1.256 1_655 S
O26 Ho1 2.322 . S
O26 C11 1.259 . S
O27 Ho0 2.346 1_655 S
O27 C11 1.268 . S
O28 Ho1 2.378 . S
O28 C12 1.215 . S
O29 Ho1 2.524 . S
O29 C12 1.289 . S
O30 Ho1 2.381 . S
O30 C19 1.275 1_655 S
O31 Ho0 2.305 . S
O31 Ho1 2.669 1_455 S
O31 C19 1.256 . S
H32 C5 0.930 . S
H33 C6 0.931 . S
H34 C8 0.934 . S
H35 C9 0.930 . S
H36 C14 0.930 . S
H37 C15 0.931 . S
H38 C17 0.934 . S
H39 C18 0.930 . S
Ho40 C43 2.811 1_545 S
Ho40 O60 2.322 1_545 S
Ho40 O62 2.378 1_545 S
Ho40 O63 2.524 1_545 S
Ho40 O64 2.381 . S
Ho40 O65 2.669 . S
Ho40 O67 2.346 . S
Ho40 O71 2.305 . S
Ho41 C52 2.811 . S
Ho41 O61 2.346 1_545 S
Ho41 O65 2.305 . S
Ho41 O66 2.322 . S
Ho41 O68 2.378 . S
Ho41 O69 2.524 . S
Ho41 O70 2.381 . S
Ho41 O71 2.669 . S
C42 O60 1.259 . S
C42 O61 1.268 . S
C43 Ho40 2.811 1_565 S
C43 C44 1.488 . S
C43 O62 1.215 . S
C43 O63 1.289 . S
C44 C43 1.488 . S
C44 C45 1.348 . S
C44 C49 1.413 . S
C45 C44 1.348 . S
C45 C46 1.442 . S
C45 H72 0.930 . S
C46 C45 1.442 . S
C46 C47 1.381 . S
C46 H73 0.931 . S
C47 C46 1.381 . S
C47 C48 1.321 . S
C48 C47 1.321 . S
C48 C49 1.403 . S
C48 H74 0.934 . S
C49 C44 1.413 . S
C49 C48 1.403 . S
C49 H75 0.930 . S
C50 O64 1.275 . S
C50 O65 1.256 . S
C51 O66 1.259 . S
C51 O67 1.268 . S
C52 Ho41 2.811 . S
C52 C53 1.488 . S
C52 O68 1.215 . S
C52 O69 1.289 . S
C53 C52 1.488 . S
C53 C54 1.348 . S
C53 C58 1.413 . S
C54 C53 1.348 . S
C54 C55 1.442 . S
C54 H76 0.930 . S
C55 C54 1.442 . S
C55 C56 1.381 . S
C55 H77 0.931 . S
C56 C55 1.381 . S
C56 C57 1.321 . S
C57 C56 1.321 . S
C57 C58 1.403 . S
C57 H78 0.934 . S
C58 C53 1.413 . S
C58 C57 1.403 . S
C58 H79 0.930 . S
C59 O70 1.275 . S
C59 O71 1.256 . S
O60 Ho40 2.322 1_565 S
O60 C42 1.259 . S
O61 Ho41 2.346 1_565 S
O61 C42 1.268 . S
O62 Ho40 2.378 1_565 S
O62 C43 1.215 . S
O63 Ho40 2.524 1_565 S
O63 C43 1.289 . S
O64 Ho40 2.381 . S
O64 C50 1.275 . S
O65 Ho40 2.669 . S
O65 Ho41 2.305 . S
O65 C50 1.256 . S
O66 Ho41 2.322 . S
O66 C51 1.259 . S
O67 Ho40 2.346 . S
O67 C51 1.268 . S
O68 Ho41 2.378 . S
O68 C52 1.215 . S
O69 Ho41 2.524 . S
O69 C52 1.289 . S
O70 Ho41 2.381 . S
O70 C59 1.275 . S
O71 Ho40 2.305 . S
O71 Ho41 2.669 . S
O71 C59 1.256 . S
H72 C45 0.930 . S
H73 C46 0.931 . S
H74 C48 0.934 . S
H75 C49 0.930 . S
H76 C54 0.930 . S
H77 C55 0.931 . S
H78 C57 0.934 . S
H79 C58 0.930 . S
Ho80 C83 2.811 . S
Ho80 O100 2.322 . S
Ho80 O102 2.378 . S
Ho80 O103 2.524 . S
Ho80 O104 2.381 . S
Ho80 O105 2.669 . S
Ho80 O107 2.346 . S
Ho80 O111 2.305 . S
Ho81 C92 2.811 . S
Ho81 O101 2.346 . S
Ho81 O105 2.305 . S
Ho81 O106 2.322 . S
Ho81 O108 2.378 . S
Ho81 O109 2.524 . S
Ho81 O110 2.381 . S
Ho81 O111 2.669 . S
C82 O100 1.259 . S
C82 O101 1.268 . S
C83 Ho80 2.811 . S
C83 C84 1.488 . S
C83 O102 1.215 . S
C83 O103 1.289 . S
C84 C83 1.488 . S
C84 C85 1.348 . S
C84 C89 1.413 . S
C85 C84 1.348 . S
C85 C86 1.442 . S
C85 H112 0.930 . S
C86 C85 1.442 . S
C86 C87 1.381 . S
C86 H113 0.931 . S
C87 C86 1.381 . S
C87 C88 1.321 . S
C88 C87 1.321 . S
C88 C89 1.403 . S
C88 H114 0.934 . S
C89 C84 1.413 . S
C89 C88 1.403 . S
C89 H115 0.930 . S
C90 O104 1.275 . S
C90 O105 1.256 . S
C91 O106 1.259 . S
C91 O107 1.268 . S
C92 Ho81 2.811 . S
C92 C93 1.488 . S
C92 O108 1.215 . S
C92 O109 1.289 . S
C93 C92 1.488 . S
C93 C94 1.348 . S
C93 C98 1.413 . S
C94 C93 1.348 . S
C94 C95 1.442 . S
C94 H116 0.930 . S
C95 C94 1.442 . S
C95 C96 1.381 . S
C95 H117 0.931 . S
C96 C95 1.381 . S
C96 C97 1.321 . S
C97 C96 1.321 . S
C97 C98 1.403 . S
C97 H118 0.934 . S
C98 C93 1.413 . S
C98 C97 1.403 . S
C98 H119 0.930 . S
C99 O110 1.275 . S
C99 O111 1.256 . S
O100 Ho80 2.322 . S
O100 C82 1.259 . S
O101 Ho81 2.346 . S
O101 C82 1.268 . S
O102 Ho80 2.378 . S
O102 C83 1.215 . S
O103 Ho80 2.524 . S
O103 C83 1.289 . S
O104 Ho80 2.381 . S
O104 C90 1.275 . S
O105 Ho80 2.669 . S
O105 Ho81 2.305 . S
O105 C90 1.256 . S
O106 Ho81 2.322 . S
O106 C91 1.259 . S
O107 Ho80 2.346 . S
O107 C91 1.268 . S
O108 Ho81 2.378 . S
O108 C92 1.215 . S
O109 Ho81 2.524 . S
O109 C92 1.289 . S
O110 Ho81 2.381 . S
O110 C99 1.275 . S
O111 Ho80 2.305 . S
O111 Ho81 2.669 . S
O111 C99 1.256 . S
H112 C85 0.930 . S
H113 C86 0.931 . S
H114 C88 0.934 . S
H115 C89 0.930 . S
H116 C94 0.930 . S
H117 C95 0.931 . S
H118 C97 0.934 . S
H119 C98 0.930 . S
C120 N121 1.317 1_565 S
C120 N122 1.348 . S
C120 C123 1.485 1_565 S
N121 C120 1.317 1_545 S
N121 N125 1.370 . S
N122 C120 1.348 . S
N122 C124 1.346 . S
C123 C120 1.485 1_545 S
C123 H127 0.960 . S
C123 H128 0.961 1_545 S
C123 H129 0.960 . S
C124 N122 1.346 . S
C124 N125 1.307 1_565 S
C124 C126 1.486 . S
N125 N121 1.370 . S
N125 C124 1.307 1_545 S
C126 C124 1.486 . S
C126 H130 0.960 . S
C126 H131 0.960 . S
C126 H132 0.959 . S
H127 C123 0.960 . S
H128 C123 0.961 1_565 S
H129 C123 0.960 . S
H130 C126 0.960 . S
H131 C126 0.960 . S
H132 C126 0.959 . S
C133 N134 1.317 . S
C133 N135 1.348 . S
C133 C136 1.485 . S
N134 C133 1.317 . S
N134 N138 1.370 . S
N135 C133 1.348 . S
N135 C137 1.346 . S
C136 C133 1.485 . S
C136 H140 0.960 . S
C136 H141 0.961 . S
C136 H142 0.960 . S
C137 N135 1.346 . S
C137 N138 1.307 . S
C137 C139 1.486 . S
N138 N134 1.370 . S
N138 C137 1.307 . S
C139 C137 1.486 . S
C139 H143 0.960 . S
C139 H144 0.960 . S
C139 H145 0.959 . S
H140 C136 0.960 . S
H141 C136 0.961 . S
H142 C136 0.960 . S
H143 C139 0.960 . S
H144 C139 0.960 . S
H145 C139 0.959 . S
C146 N147 1.317 . S
C146 N148 1.348 . S
C146 C149 1.485 . S
N147 C146 1.317 . S
N147 N151 1.370 . S
N148 C146 1.348 . S
N148 C150 1.346 . S
C149 C146 1.485 . S
C149 H153 0.960 . S
C149 H154 0.961 . S
C149 H155 0.960 . S
C150 N148 1.346 . S
C150 N151 1.307 . S
C150 C152 1.486 1_455 S
N151 N147 1.370 . S
N151 C150 1.307 . S
C152 C150 1.486 1_655 S
C152 H156 0.960 . S
C152 H157 0.960 . S
C152 H158 0.959 . S
H153 C149 0.960 . S
H154 C149 0.961 . S
H155 C149 0.960 . S
H156 C152 0.960 . S
H157 C152 0.960 . S
H158 C152 0.959 . S
C159 N160 1.317 . S
C159 N161 1.348 . S
C159 C162 1.485 . S
N160 C159 1.317 . S
N160 N164 1.370 . S
N161 C159 1.348 . S
N161 C163 1.346 . S
C162 C159 1.485 . S
C162 H166 0.960 . S
C162 H167 0.961 . S
C162 H168 0.960 . S
C163 N161 1.346 . S
C163 N164 1.307 . S
C163 C165 1.486 . S
N164 N160 1.370 . S
N164 C163 1.307 . S
C165 C163 1.486 . S
C165 H169 0.960 . S
C165 H170 0.960 . S
C165 H171 0.959 . S
H166 C162 0.960 . S
H167 C162 0.961 . S
H168 C162 0.960 . S
H169 C165 0.960 . S
H170 C165 0.960 . S
H171 C165 0.959 . S
C172 N173 1.317 . S
C172 N174 1.348 . S
C172 C175 1.485 . S
N173 C172 1.317 . S
N173 N177 1.370 . S
N174 C172 1.348 . S
N174 C176 1.346 . S
C175 C172 1.485 . S
C175 H179 0.960 . S
C175 H180 0.961 . S
C175 H181 0.960 . S
C176 N174 1.346 . S
C176 N177 1.307 . S
C176 C178 1.486 . S
N177 N173 1.370 . S
N177 C176 1.307 . S
C178 C176 1.486 . S
C178 H182 0.960 . S
C178 H183 0.960 . S
C178 H184 0.959 . S
H179 C175 0.960 . S
H180 C175 0.961 . S
H181 C175 0.960 . S
H182 C178 0.960 . S
H183 C178 0.960 . S
H184 C178 0.959 . S
C185 N186 1.317 . S
C185 N187 1.348 . S
C185 C188 1.485 . S
N186 C185 1.317 . S
N186 N190 1.370 . S
N187 C185 1.348 . S
N187 C189 1.346 . S
C188 C185 1.485 . S
C188 H192 0.960 . S
C188 H193 0.961 . S
C188 H194 0.960 . S
C189 N187 1.346 . S
C189 N190 1.307 . S
C189 C191 1.486 . S
N190 N186 1.370 . S
N190 C189 1.307 . S
C191 C189 1.486 . S
C191 H195 0.960 . S
C191 H196 0.960 . S
C191 H197 0.959 . S
H192 C188 0.960 . S
H193 C188 0.961 . S
H194 C188 0.960 . S
H195 C191 0.960 . S
H196 C191 0.960 . S
H197 C191 0.959 . S
C198 C199 1.369 . S
C198 C200 1.419 . S
C198 H202 0.930 . S
C199 C198 1.369 . S
C199 C208 1.429 . S
C200 C198 1.419 . S
C200 C201 1.363 . S
C200 H203 0.929 . S
C201 C200 1.363 . S
C201 C207 1.428 . S
H202 C198 0.930 . S
H203 C200 0.929 . S
S204 N205 1.613 . S
S204 N206 1.610 . S
N205 S204 1.613 . S
N205 C208 1.350 . S
N206 S204 1.610 . S
N206 C207 1.351 . S
C207 C201 1.428 . S
C207 N206 1.351 . S
C207 C208 1.434 . S
C208 C199 1.429 . S
C208 N205 1.350 . S
C208 C207 1.434 . S
C209 C210 1.369 . S
C209 C211 1.419 . S
C209 H213 0.930 . S
C210 C209 1.369 . S
C210 C219 1.429 . S
C211 C209 1.419 . S
C211 C212 1.363 . S
C211 H214 0.929 . S
C212 C211 1.363 . S
C212 C218 1.428 . S
H213 C209 0.930 . S
H214 C211 0.929 . S
S215 N216 1.613 . S
S215 N217 1.610 . S
N216 S215 1.613 . S
N216 C219 1.350 . S
N217 S215 1.610 . S
N217 C218 1.351 . S
C218 C212 1.428 . S
C218 N217 1.351 . S
C218 C219 1.434 . S
C219 C210 1.429 . S
C219 N216 1.350 . S
C219 C218 1.434 . S
C220 C221 1.369 . S
C220 C222 1.424 . S
C220 H224 0.938 1_565 S
C221 C220 1.369 . S
C221 C230 1.429 . S
C222 C220 1.424 . S
C222 C223 1.361 . S
C222 H225 0.926 1_565 S
C223 C222 1.361 . S
C223 C229 1.428 . S
H224 C220 0.938 1_545 S
H225 C222 0.926 1_545 S
S226 N227 1.613 . S
S226 N228 1.610 . S
N227 S226 1.613 . S
N227 C230 1.350 . S
N228 S226 1.610 . S
N228 C229 1.351 . S
C229 C223 1.428 . S
C229 N228 1.351 . S
C229 C230 1.434 . S
C230 C221 1.429 . S
C230 N227 1.350 . S
C230 C229 1.434 . S
C231 C232 1.369 . S
C231 C233 1.419 . S
C231 H235 0.930 . S
C232 C231 1.369 . S
C232 C241 1.429 . S
C233 C231 1.419 . S
C233 C234 1.363 . S
C233 H236 0.929 . S
C234 C233 1.363 . S
C234 C240 1.428 . S
H235 C231 0.930 . S
H236 C233 0.929 . S
S237 N238 1.613 . S
S237 N239 1.610 . S
N238 S237 1.613 . S
N238 C241 1.350 . S
N239 S237 1.610 . S
N239 C240 1.351 . S
C240 C234 1.428 . S
C240 N239 1.351 . S
C240 C241 1.434 . S
C241 C232 1.429 . S
C241 N238 1.350 . S
C241 C240 1.434 . S
C242 C243 1.369 . S
C242 C244 1.419 . S
C242 H246 0.930 . S
C243 C242 1.369 . S
C243 C252 1.429 . S
C244 C242 1.419 . S
C244 C245 1.363 . S
C244 H247 0.929 . S
C245 C244 1.363 . S
C245 C251 1.428 . S
H246 C242 0.930 . S
H247 C244 0.929 . S
S248 N249 1.613 . S
S248 N250 1.610 . S
N249 S248 1.613 . S
N249 C252 1.350 . S
N250 S248 1.610 . S
N250 C251 1.351 . S
C251 C245 1.428 . S
C251 N250 1.351 . S
C251 C252 1.434 . S
C252 C243 1.429 . S
C252 N249 1.350 . S
C252 C251 1.434 . S
C253 C254 1.369 . S
C253 C255 1.419 . S
C253 H257 0.930 . S
C254 C253 1.369 . S
C254 C263 1.429 . S
C255 C253 1.419 . S
C255 C256 1.363 . S
C255 H258 0.929 . S
C256 C255 1.363 . S
C256 C262 1.428 . S
H257 C253 0.930 . S
H258 C255 0.929 . S
S259 N260 1.613 . S
S259 N261 1.610 . S
N260 S259 1.613 . S
N260 C263 1.350 . S
N261 S259 1.610 . S
N261 C262 1.351 . S
C262 C256 1.428 . S
C262 N261 1.351 . S
C262 C263 1.434 . S
C263 C254 1.429 . S
C263 N260 1.350 . S
C263 C262 1.434 . S
C264 C265 1.369 . S
C264 C266 1.419 . S
C264 H268 0.930 . S
C265 C264 1.369 . S
C265 C274 1.429 . S
C266 C264 1.419 . S
C266 C267 1.363 . S
C266 H269 0.929 . S
C267 C266 1.363 . S
C267 C273 1.428 . S
H268 C264 0.930 . S
H269 C266 0.929 . S
S270 N271 1.613 . S
S270 N272 1.610 . S
N271 S270 1.613 . S
N271 C274 1.350 . S
N272 S270 1.610 . S
N272 C273 1.351 . S
C273 C267 1.428 . S
C273 N272 1.351 . S
C273 C274 1.434 . S
C274 C265 1.429 . S
C274 N271 1.350 . S
C274 C273 1.434 . S
C275 C276 1.369 . S
C275 C277 1.419 . S
C275 H279 0.930 . S
C276 C275 1.369 . S
C276 C285 1.429 . S
C277 C275 1.419 . S
C277 C278 1.363 . S
C277 H280 0.929 . S
C278 C277 1.363 . S
C278 C284 1.428 . S
H279 C275 0.930 . S
H280 C277 0.929 . S
S281 N282 1.613 . S
S281 N283 1.610 . S
N282 S281 1.613 . S
N282 C285 1.350 . S
N283 S281 1.610 . S
N283 C284 1.351 . S
C284 C278 1.428 . S
C284 N283 1.351 . S
C284 C285 1.434 . S
C285 C276 1.429 . S
C285 N282 1.350 . S
C285 C284 1.434 . S
C286 C287 1.369 . S
C286 C288 1.419 . S
C286 H290 0.930 . S
C287 C286 1.369 . S
C287 C296 1.429 . S
C288 C286 1.419 . S
C288 C289 1.363 . S
C288 H291 0.929 . S
C289 C288 1.363 . S
C289 C295 1.428 . S
H290 C286 0.930 . S
H291 C288 0.929 . S
S292 N293 1.613 . S
S292 N294 1.610 . S
N293 S292 1.613 . S
N293 C296 1.350 . S
N294 S292 1.610 . S
N294 C295 1.351 . S
C295 C289 1.428 . S
C295 N294 1.351 . S
C295 C296 1.434 . S
C296 C287 1.429 . S
C296 N293 1.350 . S
C296 C295 1.434 . S
C297 C298 1.369 . S
C297 C299 1.419 . S
C297 H301 0.930 . S
C298 C297 1.369 . S
C298 C307 1.429 . S
C299 C297 1.419 . S
C299 C300 1.363 . S
C299 H302 0.929 . S
C300 C299 1.363 . S
C300 C306 1.428 . S
H301 C297 0.930 . S
H302 C299 0.929 . S
S303 N304 1.613 . S
S303 N305 1.610 . S
N304 S303 1.613 . S
N304 C307 1.350 . S
N305 S303 1.610 . S
N305 C306 1.351 . S
C306 C300 1.428 . S
C306 N305 1.351 . S
C306 C307 1.434 . S
C307 C298 1.429 . S
C307 N304 1.350 . S
C307 C306 1.434 . S
C308 C309 1.369 . S
C308 C310 1.419 . S
C308 H312 0.930 . S
C309 C308 1.369 . S
C309 C318 1.429 . S
C310 C308 1.419 . S
C310 C311 1.363 . S
C310 H313 0.929 . S
C311 C310 1.363 . S
C311 C317 1.428 . S
H312 C308 0.930 . S
H313 C310 0.929 . S
S314 N315 1.613 . S
S314 N316 1.610 . S
N315 S314 1.613 . S
N315 C318 1.350 . S
N316 S314 1.610 . S
N316 C317 1.351 . S
C317 C311 1.428 . S
C317 N316 1.351 . S
C317 C318 1.434 . S
C318 C309 1.429 . S
C318 N315 1.350 . S
C318 C317 1.434 . S
C319 C320 1.369 . S
C319 C321 1.419 . S
C319 H323 0.930 . S
C320 C319 1.369 . S
C320 C329 1.429 . S
C321 C319 1.419 . S
C321 C322 1.363 . S
C321 H324 0.929 . S
C322 C321 1.363 . S
C322 C328 1.428 . S
H323 C319 0.930 . S
H324 C321 0.929 . S
S325 N326 1.613 . S
S325 N327 1.610 . S
N326 S325 1.613 . S
N326 C329 1.350 . S
N327 S325 1.610 . S
N327 C328 1.351 . S
C328 C322 1.428 . S
C328 N327 1.351 . S
C328 C329 1.434 . S
C329 C320 1.429 . S
C329 N326 1.350 . S
C329 C328 1.434 . S
C330 C331 1.369 . S
C330 C332 1.419 1_554 S
C330 H334 0.930 . S
C331 C330 1.369 . S
C331 C340 1.429 1_455 S
C332 C330 1.419 1_556 S
C332 C333 1.363 . S
C332 H335 0.929 . S
C333 C332 1.363 . S
C333 C339 1.428 . S
H334 C330 0.930 . S
H335 C332 0.929 . S
S336 N337 1.613 1_556 S
S336 N338 1.610 . S
N337 S336 1.613 1_554 S
N337 C340 1.350 . S
N338 S336 1.610 . S
N338 C339 1.351 1_655 S
C339 C333 1.428 . S
C339 N338 1.351 1_455 S
C339 C340 1.434 1_456 S
C340 C331 1.429 1_655 S
C340 N337 1.350 . S
C340 C339 1.434 1_654 S
C341 C342 1.369 . S
C341 C343 1.419 . S
C341 H345 0.930 . S
C342 C341 1.369 . S
C342 C351 1.429 1_545 S
C343 C341 1.419 . S
C343 C344 1.363 . S
C343 H346 0.929 . S
C344 C343 1.363 . S
C344 C350 1.428 1_545 S
H345 C341 0.930 . S
H346 C343 0.929 . S
S347 N348 1.613 . S
S347 N349 1.610 . S
N348 S347 1.613 . S
N348 C351 1.350 . S
N349 S347 1.610 . S
N349 C350 1.351 . S
C350 C344 1.428 1_565 S
C350 N349 1.351 . S
C350 C351 1.434 . S
C351 C342 1.429 1_565 S
C351 N348 1.350 . S
C351 C350 1.434 . S
C352 C353 1.369 . S
C352 C354 1.419 . S
C352 H356 0.930 . S
C353 C352 1.369 . S
C353 C362 1.429 . S
C354 C352 1.419 . S
C354 C355 1.363 . S
C354 H357 0.929 . S
C355 C354 1.363 . S
C355 C361 1.428 . S
H356 C352 0.930 . S
H357 C354 0.929 . S
S358 N359 1.613 . S
S358 N360 1.610 . S
N359 S358 1.613 . S
N359 C362 1.350 . S
N360 S358 1.610 . S
N360 C361 1.351 . S
C361 C355 1.428 . S
C361 N360 1.351 . S
C361 C362 1.434 . S
C362 C353 1.429 . S
C362 N359 1.350 . S
C362 C361 1.434 . S
C363 C364 1.369 1_565 S
C363 C365 1.419 . S
C363 H367 0.930 . S
C364 C363 1.369 1_545 S
C364 C373 1.429 . S
C365 C363 1.419 . S
C365 C366 1.363 1_565 S
C365 H368 0.929 . S
C366 C365 1.363 1_545 S
C366 C372 1.428 . S
H367 C363 0.930 . S
H368 C365 0.929 . S
S369 N370 1.613 . S
S369 N371 1.610 . S
N370 S369 1.613 . S
N370 C373 1.350 . S
N371 S369 1.610 . S
N371 C372 1.351 . S
C372 C366 1.428 . S
C372 N371 1.351 . S
C372 C373 1.434 . S
C373 C364 1.429 . S
C373 N370 1.350 . S
C373 C372 1.434 . S
C374 C375 1.369 . S
C374 C376 1.419 1_556 S
C374 H378 0.930 . S
C375 C374 1.369 . S
C375 C384 1.429 . S
C376 C374 1.419 1_554 S
C376 C377 1.363 . S
C376 H379 0.929 . S
C377 C376 1.363 . S
C377 C383 1.428 . S
H378 C374 0.930 . S
H379 C376 0.929 . S
S380 N381 1.613 1_554 S
S380 N382 1.610 . S
N381 S380 1.613 1_556 S
N381 C384 1.350 . S
N382 S380 1.610 . S
N382 C383 1.351 . S
C383 C377 1.428 . S
C383 N382 1.351 . S
C383 C384 1.434 1_554 S
C384 C375 1.429 . S
C384 N381 1.350 . S
C384 C383 1.434 1_556 S
C385 C386 1.369 1_455 S
C385 C387 1.419 . S
C385 H389 0.930 . S
C386 C385 1.369 1_655 S
C386 C395 1.429 . S
C387 C385 1.419 . S
C387 C388 1.363 . S
C387 H390 0.929 . S
C388 C387 1.363 . S
C388 C394 1.428 . S
H389 C385 0.930 . S
H390 C387 0.929 . S
S391 N392 1.613 . S
S391 N393 1.610 1_655 S
N392 S391 1.613 . S
N392 C395 1.350 . S
N393 S391 1.610 1_455 S
N393 C394 1.351 . S
C394 C388 1.428 . S
C394 N393 1.351 . S
C394 C395 1.434 1_455 S
C395 C386 1.429 . S
C395 N392 1.350 . S
C395 C394 1.434 1_655 S
C199 C7 0.796 . S
C201 N187 0.801 . S
C210 C51 1.865 . S
C212 N160 1.863 1_655 S
C221 C87 1.363 . S
C223 N173 1.371 1_565 S
C232 C16 1.017 . S
C234 N186 1.146 . S
C245 N161 1.991 . S
C243 C42 1.999 . S
C256 N174 1.492 . S
C254 C96 1.429 . S
C265 C47 1.185 . S
C267 N134 1.181 . S
C276 C91 2.948 . S
C278 N148 2.901 1_655 S
C287 C2 2.032 . S
C289 N122 2.042 . S
C300 N135 1.561 . S
C298 C56 1.469 . S
C311 N147 3.287 . S
C309 C82 3.243 . S
C320 C11 1.868 . S
C322 N121 1.903 . S
C333 N151 1.765 . S
C331 C19 1.783 . S
C342 C50 1.446 . S
C344 N125 1.453 . S
C353 C99 1.492 . S
C355 N138 1.584 . S
C366 N177 1.524 . S
C364 C59 1.450 . S
C377 N190 1.169 . S
C375 C90 1.192 . S
C386 C10 1.402 1_655 S
C388 N164 1.427 . S
