# Generated by pormake.
# Topology pyr, (3,6)-cn, num edge types: 1
# Building blocks:
#     Node 0, Type 0, BuildingBlock: PAMTOO_clean_linker_0, # of connection points: 3
#     Node 1, Type 0, BuildingBlock: PAMTOO_clean_linker_0, # of connection points: 3
#     Node 2, Type 0, BuildingBlock: PAMTOO_clean_linker_0, # of connection points: 3
#     Node 3, Type 0, BuildingBlock: PAMTOO_clean_linker_0, # of connection points: 3
#     Node 4, Type 0, BuildingBlock: PAMTOO_clean_linker_0, # of connection points: 3
#     Node 5, Type 0, BuildingBlock: PAMTOO_clean_linker_0, # of connection points: 3
#     Node 6, Type 0, BuildingBlock: PAMTOO_clean_linker_0, # of connection points: 3
#     Node 7, Type 0, BuildingBlock: PAMTOO_clean_linker_0, # of connection points: 3
#     Node 8, Type 1, BuildingBlock: BETGAK_clean_sbu_0, # of connection points: 6
#     Node 9, Type 1, BuildingBlock: BETGAK_clean_sbu_0, # of connection points: 6
#     Node 10, Type 1, BuildingBlock: BETGAK_clean_sbu_0, # of connection points: 6
#     Node 11, Type 1, BuildingBlock: BETGAK_clean_sbu_0, # of connection points: 6
#     Edge 12, Type (0, 1), BuildingBlock: EZIPEK_clean_linker_0, # of connection points: 2
#     Edge 13, Type (0, 1), BuildingBlock: EZIPEK_clean_linker_0, # of connection points: 2
#     Edge 14, Type (0, 1), BuildingBlock: EZIPEK_clean_linker_0, # of connection points: 2
#     Edge 15, Type (0, 1), BuildingBlock: EZIPEK_clean_linker_0, # of connection points: 2
#     Edge 16, Type (0, 1), BuildingBlock: EZIPEK_clean_linker_0, # of connection points: 2
#     Edge 17, Type (0, 1), BuildingBlock: EZIPEK_clean_linker_0, # of connection points: 2
#     Edge 18, Type (0, 1), BuildingBlock: EZIPEK_clean_linker_0, # of connection points: 2
#     Edge 19, Type (0, 1), BuildingBlock: EZIPEK_clean_linker_0, # of connection points: 2
#     Edge 20, Type (0, 1), BuildingBlock: EZIPEK_clean_linker_0, # of connection points: 2
#     Edge 21, Type (0, 1), BuildingBlock: EZIPEK_clean_linker_0, # of connection points: 2
#     Edge 22, Type (0, 1), BuildingBlock: EZIPEK_clean_linker_0, # of connection points: 2
#     Edge 23, Type (0, 1), BuildingBlock: EZIPEK_clean_linker_0, # of connection points: 2
#     Edge 24, Type (0, 1), BuildingBlock: EZIPEK_clean_linker_0, # of connection points: 2
#     Edge 25, Type (0, 1), BuildingBlock: EZIPEK_clean_linker_0, # of connection points: 2
#     Edge 26, Type (0, 1), BuildingBlock: EZIPEK_clean_linker_0, # of connection points: 2
#     Edge 27, Type (0, 1), BuildingBlock: EZIPEK_clean_linker_0, # of connection points: 2
#     Edge 28, Type (0, 1), BuildingBlock: EZIPEK_clean_linker_0, # of connection points: 2
#     Edge 29, Type (0, 1), BuildingBlock: EZIPEK_clean_linker_0, # of connection points: 2
#     Edge 30, Type (0, 1), BuildingBlock: EZIPEK_clean_linker_0, # of connection points: 2
#     Edge 31, Type (0, 1), BuildingBlock: EZIPEK_clean_linker_0, # of connection points: 2
#     Edge 32, Type (0, 1), BuildingBlock: EZIPEK_clean_linker_0, # of connection points: 2
#     Edge 33, Type (0, 1), BuildingBlock: EZIPEK_clean_linker_0, # of connection points: 2
#     Edge 34, Type (0, 1), BuildingBlock: EZIPEK_clean_linker_0, # of connection points: 2
#     Edge 35, Type (0, 1), BuildingBlock: EZIPEK_clean_linker_0, # of connection points: 2
# Relax obj value: 0.263
# Max RMSD: 0.244
# Mean RMSD: 0.154
data_MOF--net-pyr--node1-BETGAK_clean_sbu_0--node2-PAMTOO_clean_linker_0--edge1-EZIPEK_clean_linker_0
_symmetry_space_group_name_H-M    P1
_symmetry_Int_Tables_number       1
_symmetry_cell_setting            triclinic
loop_
_symmetry_equiv_pos_as_xyz
'x, y, z'
_cell_length_a     27.03093
_cell_length_b     30.469631
_cell_length_c     27.646013
_cell_angle_alpha  92.118873
_cell_angle_beta   90.05943
_cell_angle_gamma 107.52408
loop_
_atom_site_label
_atom_site_type_symbol
_atom_site_fract_x
_atom_site_fract_y
_atom_site_fract_z
_atom_type_partial_charge
H0 H 0.34586 0.36692 0.27972 0.0
H1 H 0.43026 0.27074 0.30375 0.0
H2 H 0.45758 0.35013 0.17609 0.0
H3 H 0.54279 0.29482 0.25872 0.0
C4 C 0.5271 0.28799 0.22126 0.0
O5 O 0.4745 0.28117 0.22016 0.0
H6 H 0.5477 0.31992 0.20254 0.0
C7 C 0.37734 0.35316 0.27001 0.0
C8 C 0.40282 0.36465 0.22616 0.0
C9 C 0.38695 0.31934 0.29801 0.0
C10 C 0.42515 0.29914 0.28392 0.0
C11 C 0.45054 0.31018 0.23994 0.0
C12 C 0.44042 0.34382 0.21153 0.0
H13 H 0.31252 0.97872 0.68615 0.0
H14 H 0.23465 0.89747 0.56186 0.0
H15 H 0.31224 0.83835 0.66534 0.0
H16 H 0.31062 0.84501 0.52242 0.0
C17 C 0.29891 0.81683 0.54828 0.0
O18 O 0.26417 0.82509 0.58142 0.0
H19 H 0.27834 0.78664 0.52455 0.0
C20 C 0.30168 0.9468 0.66444 0.0
C21 C 0.3151 0.90889 0.68063 0.0
C22 C 0.27085 0.94274 0.62262 0.0
C23 C 0.2578 0.9012 0.59464 0.0
C24 C 0.27465 0.8643 0.6091 0.0
C25 C 0.30162 0.86766 0.65296 0.0
H26 H 0.78959 0.35595 0.97351 0.0
H27 H 0.6783 0.33545 0.85588 0.0
H28 H 0.79575 0.46684 0.879 0.0
H29 H 0.66437 0.44814 0.84015 0.0
C30 C 0.67879 0.43581 0.80642 0.0
O31 O 0.72199 0.42062 0.81809 0.0
H32 H 0.64656 0.40472 0.79518 0.0
C33 C 0.77337 0.36914 0.94344 0.0
C34 C 0.79792 0.41506 0.92996 0.0
C35 C 0.72904 0.33954 0.91869 0.0
C36 C 0.71042 0.35772 0.87705 0.0
C37 C 0.73389 0.40438 0.8622 0.0
C38 C 0.77667 0.43219 0.89021 0.0
H39 H 0.90229 0.79341 0.48291 0.0
H40 H 0.89918 0.68332 0.3793 0.0
H41 H 1.0303 0.80715 0.38478 0.0
H42 H 1.01322 0.75792 0.27843 0.0
C43 C 0.98933 0.72309 0.28863 0.0
O44 O 0.99135 0.7215 0.34012 0.0
H45 H 0.9496 0.72239 0.2776 0.0
C46 C 0.92043 0.78004 0.45325 0.0
C47 C 0.96949 0.80755 0.4369 0.0
C48 C 0.89466 0.73517 0.43366 0.0
C49 C 0.9182 0.71768 0.39414 0.0
C50 C 0.96691 0.74302 0.37474 0.0
C51 C 0.9923 0.78794 0.39731 0.0
H52 H 0.77622 0.90156 0.8824 0.0
H53 H 0.6921 0.84113 1.00797 0.0
H54 H 0.8157 0.79339 0.95254 0.0
H55 H 0.70108 0.72286 0.98734 0.0
C56 C 0.73146 0.73579 1.01549 0.0
O57 O 0.74527 0.7833 1.02012 0.0
H58 H 0.71107 0.72092 0.04865 0.0
C59 C 0.768 0.87566 0.90961 0.0
C60 C 0.7991 0.84649 0.9129 0.0
C61 C 0.73043 0.87516 0.94474 0.0
C62 C 0.72044 0.84157 0.98014 0.0
C63 C 0.75017 0.8111 0.98227 0.0
C64 C 0.78996 0.81425 0.94903 0.0
H65 H 0.87397 0.14291 0.47627 0.0
H66 H 0.76677 0.22231 0.48559 0.0
H67 H 0.8235 0.18003 0.61549 0.0
H68 H 0.70307 0.19544 0.62557 0.0
C69 C 0.7103 0.20471 0.58731 0.0
O70 O 0.76288 0.22414 0.58043 0.0
H71 H 0.69531 0.17043 0.56876 0.0
C72 C 0.85163 0.16037 0.4979 0.0
C73 C 0.8537 0.15997 0.54861 0.0
C74 C 0.81942 0.18198 0.4751 0.0
C75 C 0.79102 0.20493 0.5031 0.0
C76 C 0.79179 0.20345 0.55362 0.0
C77 C 0.8228 0.18076 0.57633 0.0
H78 H 0.41184 0.8013 0.13495 0.0
H79 H 0.40122 0.69756 0.23997 0.0
H80 H 0.52963 0.82312 0.24687 0.0
H81 H 0.53785 0.70936 0.27142 0.0
C82 C 0.50533 0.70573 0.29692 0.0
O83 O 0.48535 0.74337 0.29183 0.0
H84 H 0.47562 0.67396 0.28295 0.0
C85 C 0.42793 0.7893 0.16591 0.0
C86 C 0.47452 0.81855 0.18788 0.0
C87 C 0.40125 0.7451 0.18354 0.0
C88 C 0.42202 0.73034 0.2252 0.0
C89 C 0.46892 0.75733 0.24843 0.0
C90 C 0.49477 0.80139 0.22891 0.0
H91 H 0.14132 0.358 0.81896 0.0
H92 H 0.25907 0.4886 0.79794 0.0
H93 H 0.25296 0.37235 0.70359 0.0
H94 H 0.36078 0.4368 0.739 0.0
C95 C 0.35299 0.46844 0.72679 0.0
O96 O 0.29947 0.45983 0.71964 0.0
H97 H 0.36578 0.49315 0.75818 0.0
C98 C 0.17453 0.37876 0.79978 0.0
C99 C 0.19313 0.35791 0.75792 0.0
C100 C 0.19852 0.42658 0.81653 0.0
C101 C 0.24107 0.45247 0.78849 0.0
C102 C 0.26105 0.43296 0.74833 0.0
C103 C 0.23746 0.38629 0.73465 0.0
La104 La 0.08733 0.10201 0.5565 0.0
La105 La 0.08603 1.0571 0.64706 0.0
C106 C 0.08414 0.15366 0.48865 0.0
C107 C 0.12798 0.18972 0.47014 0.0
C108 C 0.17714 0.1972 0.49155 0.0
C109 C 0.22139 0.22411 0.46912 0.0
C110 C 0.21688 0.24372 0.425 0.0
C111 C 0.16749 0.23885 0.4052 0.0
C112 C 0.12307 0.21172 0.42769 0.0
C113 C 0.17526 0.08205 0.57601 0.0
C114 C 0.12082 0.16686 0.65527 0.0
C115 C 0.09344 1.00648 0.71492 0.0
C116 C 0.05389 0.97474 0.74402 0.0
C117 C 1.01952 0.99118 0.77223 0.0
C118 C 0.98024 0.96082 0.79747 0.0
C119 C 0.97442 0.91358 0.7949 0.0
C120 C 1.0087 0.89676 0.76724 0.0
C121 C 0.04839 0.92732 0.74188 0.0
C122 C 0.99936 0.07687 0.62838 0.0
C123 C 0.04991 0.99363 0.54749 0.0
O124 O 0.08835 0.11233 0.48199 0.0
O125 O 0.0705 0.16086 0.53285 0.0
O126 O 0.15526 0.0814 0.5336 0.0
O127 O 0.14739 0.09646 0.6049 0.0
O128 O 0.09953 0.16172 0.61096 0.0
O129 O 0.12735 0.12932 0.67425 0.0
O130 O 0.0979 1.05018 0.72089 0.0
O131 O 0.09466 0.99443 0.66927 0.0
O132 O 1.01633 0.07441 0.67143 0.0
O133 O 1.02642 1.06261 0.59883 0.0
O134 O 0.07388 0.99838 0.59072 0.0
O135 O 0.04176 1.03117 0.53019 0.0
H136 H 0.18154 0.17976 0.52399 0.0
H137 H 0.25924 0.2271 0.48442 0.0
H138 H 0.16367 0.25349 0.37079 0.0
H139 H 0.08543 0.20581 0.41057 0.0
H140 H 1.02245 1.02744 0.77451 0.0
H141 H 0.95408 0.97417 0.81898 0.0
H142 H 1.00461 0.86027 0.76528 0.0
H143 H 0.07439 0.91396 0.72018 0.0
La144 La 0.64867 0.08324 0.08443 0.0
La145 La 0.5659 0.07251 1.02386 0.0
C146 C 0.73635 0.09977 0.12581 0.0
C147 C 0.75817 0.12169 0.1725 0.0
C148 C 0.7904 0.10245 0.19873 0.0
C149 C 0.8046 0.11747 0.24649 0.0
C150 C 0.78696 0.1521 0.26842 0.0
C151 C 0.75705 0.17319 0.24146 0.0
C152 C 0.74243 0.15786 0.19377 0.0
C153 C 0.5693 1.00945 0.11067 0.0
C154 C 0.5734 0.13446 0.11951 0.0
C155 C 0.47695 1.05438 0.98526 0.0
C156 C 0.44819 1.02094 0.9482 0.0
C157 C 0.41114 1.03226 0.91996 0.0
C158 C 0.38923 1.00472 0.87944 0.0
C159 C 0.40423 0.96564 0.86678 0.0
C160 C 0.43933 0.95285 0.89639 0.0
C161 C 0.46153 0.98063 0.93689 0.0
C162 C 0.64516 0.14677 0.99686 0.0
C163 C 0.64106 1.02074 0.98978 0.0
O164 O 0.69894 1.06144 0.12899 0.0
O165 O 0.72566 0.12606 0.09376 0.0
O166 O 0.59775 1.04186 0.13943 0.0
O167 O 0.58419 1.02098 0.06773 0.0
O168 O 0.62072 0.13246 0.12526 0.0
O169 O 0.54284 0.1092 0.08533 0.0
O170 O 0.51811 0.08479 0.96961 0.0
O171 O 0.48584 1.03815 1.02632 0.0
O172 O 0.61491 0.11482 0.96884 0.0
O173 O 0.63064 0.13477 1.03992 0.0
O174 O 0.59296 1.02116 0.98544 0.0
O175 O 0.67235 1.04957 1.02117 0.0
H176 H 0.80253 0.0743 0.18302 0.0
H177 H 0.82745 0.10075 0.26703 0.0
H178 H 0.74284 0.19971 0.25815 0.0
H179 H 0.71711 0.1729 0.17433 0.0
H180 H 0.40081 1.06343 0.92809 0.0
H181 H 0.36203 1.01483 0.85687 0.0
H182 H 0.45107 0.92266 0.88697 0.0
H183 H 0.49039 0.97163 0.95823 0.0
La184 La 0.60143 0.55105 0.52936 0.0
La185 La 0.61536 0.63119 0.58808 0.0
C186 C 0.61929 0.48361 0.48547 0.0
C187 C 0.62545 0.43922 0.49982 0.0
C188 C 0.58284 0.39887 0.49905 0.0
C189 C 0.58911 0.35717 0.51305 0.0
C190 C 0.63806 0.35529 0.52775 0.0
C191 C 0.68059 0.39529 0.52829 0.0
C192 C 0.67446 0.4368 0.51418 0.0
C193 C 0.5157 0.5473 0.58099 0.0
C194 C 0.64707 0.55072 0.63946 0.0
C195 C 0.59167 0.69539 0.63479 0.0
C196 C 0.55418 0.72113 0.62578 0.0
C197 C 0.54934 0.75571 0.65888 0.0
C198 C 0.51025 0.77682 0.65239 0.0
C199 C 0.47584 0.76357 0.61258 0.0
C200 C 0.48142 0.7298 0.57928 0.0
C201 C 0.5199 0.7088 0.58595 0.0
C202 C 0.70212 0.63611 0.53889 0.0
C203 C 0.56995 0.62823 0.47681 0.0
O204 O 0.57295 0.4885 0.48908 0.0
O205 O 0.65551 0.52078 0.50072 0.0
O206 O 0.51624 0.53187 0.53664 0.0
O207 O 0.56283 0.56302 0.59458 0.0
O208 O 0.63236 0.5285 0.59687 0.0
O209 O 0.64507 0.59394 0.64445 0.0
O210 O 0.63121 0.70225 0.60587 0.0
O211 O 0.57085 0.65161 0.64163 0.0
O212 O 0.70017 0.65047 0.58359 0.0
O213 O 0.6553 0.61988 0.52325 0.0
O214 O 0.57553 0.64701 0.52157 0.0
O215 O 0.58257 0.58986 0.46938 0.0
H216 H 0.54471 0.39954 0.48775 0.0
H217 H 0.55595 0.32645 0.51247 0.0
H218 H 0.71864 0.3943 0.53955 0.0
H219 H 0.70821 0.46702 0.51473 0.0
H220 H 0.57485 0.76554 0.69026 0.0
H221 H 0.50616 0.80264 0.67875 0.0
H222 H 0.45493 0.71873 0.54866 0.0
H223 H 0.52103 0.6817 0.56066 0.0
La224 La 0.09719 0.54096 0.08976 0.0
La225 La 0.101 0.60683 1.02691 0.0
C226 C 0.1197 0.47846 0.13436 0.0
C227 C 0.16945 0.4695 0.14197 0.0
C228 C 0.17596 0.44388 0.18113 0.0
C229 C 0.22242 0.43346 0.18711 0.0
C230 C 0.26288 0.44878 0.15414 0.0
C231 C 0.25699 0.47543 0.1156 0.0
C232 C 0.21036 0.48557 0.10943 0.0
C233 C 0.05224 0.6008 0.13341 0.0
C234 C 0.202 0.62822 0.08888 0.0
C235 C 0.07507 0.66758 0.98229 0.0
C236 C 1.02548 0.67821 0.98612 0.0
C237 C 1.00883 0.70185 0.95 0.0
C238 C 0.96064 0.71016 0.95378 0.0
C239 C 0.92835 0.69424 0.99336 0.0
C240 C 0.94502 0.67031 1.02917 0.0
C241 C 0.99333 0.66287 1.02587 0.0
C242 C 0.14182 0.54271 0.98303 0.0
C243 C 0.99557 0.52415 1.02945 0.0
O244 O 0.11466 0.51568 0.15562 0.0
O245 O 0.1034 0.47405 0.08963 0.0
O246 O 0.03577 0.55612 0.13409 0.0
O247 O 0.09262 0.61048 0.10632 0.0
O248 O 0.17985 0.5851 0.10145 0.0
O249 O 0.17706 0.64584 0.05778 0.0
O250 O 0.07195 0.62706 0.96338 0.0
O251 O 0.10353 0.67615 1.02159 0.0
O252 O 0.15904 0.58725 0.98015 0.0
O253 O 0.10258 0.53619 1.01091 0.0
O254 O 1.01702 0.56824 1.02185 0.0
O255 O 1.02186 0.50316 0.05545 0.0
H256 H 0.14484 0.43127 0.20651 0.0
H257 H 0.22653 0.41267 0.21694 0.0
H258 H 0.28778 0.48718 0.08973 0.0
H259 H 0.20576 0.50504 0.07867 0.0
H260 H 1.03299 0.71383 0.91903 0.0
H261 H 0.94847 0.72891 0.92591 0.0
H262 H 0.92085 0.65794 0.06006 0.0
H263 H 1.00556 0.64503 0.05452 0.0
C264 C 0.34456 0.32166 0.37826 0.0
C265 C 0.34779 0.29759 0.33408 0.0
C266 C 0.27127 0.235 0.35505 0.0
C267 C 0.26357 0.262 0.39549 0.0
N268 N 0.29015 0.33221 0.44481 0.0
N269 N 0.30834 0.2354 0.27582 0.0
C270 C 0.2997 0.30562 0.40721 0.0
C271 C 0.30978 0.25518 0.32127 0.0
N272 N 0.38455 0.35951 0.39247 0.0
N273 N 0.24243 0.18973 0.34933 0.0
H274 H 0.33484 0.24924 0.24895 0.0
H275 H 0.27773 0.20744 0.26318 0.0
H276 H 0.21395 0.17328 0.37361 0.0
H277 H 0.25039 0.16732 0.32322 0.0
H278 H 0.38683 0.37623 0.42629 0.0
H279 H 0.41777 0.37189 0.37175 0.0
H280 H 0.3122 0.36625 0.45214 0.0
H281 H 0.25779 0.32121 0.46685 0.0
C282 C 0.30903 0.90141 0.77031 0.0
C283 C 0.34026 0.91229 0.72862 0.0
C284 C 0.41671 0.94991 0.77881 0.0
C285 C 0.38512 0.94045 0.82046 0.0
N286 N 0.30596 0.89741 0.85786 0.0
N287 N 0.42476 0.93496 0.69279 0.0
C288 C 0.33274 0.91269 0.81678 0.0
C289 C 0.39461 0.93239 0.73285 0.0
N290 N 0.25648 0.88245 0.76533 0.0
N291 N 0.46676 0.978 0.7828 0.0
H292 H 0.40916 0.92279 0.65861 0.0
H293 H 0.46514 0.94518 0.69404 0.0
H294 H 0.48471 0.99104 0.81589 0.0
H295 H 0.48966 0.9907 0.75319 0.0
H296 H 0.23084 0.87894 0.79401 0.0
H297 H 0.23798 0.87226 0.73183 0.0
H298 H 0.26899 0.87378 0.85771 0.0
H299 H 0.32278 0.90532 0.89234 0.0
C300 C 0.66909 0.51238 0.77168 0.0
C301 C 0.68412 0.47144 0.76379 0.0
C302 C 0.68805 0.49012 0.67546 0.0
C303 C 0.66244 0.52494 0.68285 0.0
N304 N 0.61826 0.5595 0.74227 0.0
N305 N 0.70454 0.4206 0.70367 0.0
C306 C 0.65051 0.53353 0.73221 0.0
C307 C 0.69262 0.46027 0.71427 0.0
N308 N 0.67378 0.53252 0.81704 0.0
N309 N 0.71045 0.4866 0.63185 0.0
H310 H 0.70934 0.39876 0.73021 0.0
H311 H 0.70675 0.40812 0.66844 0.0
H312 H 0.71165 0.50931 0.6043 0.0
H313 H 0.7334 0.46509 0.62514 0.0
H314 H 0.66721 0.56411 0.82429 0.0
H315 H 0.69153 0.52133 0.8456 0.0
H316 H 0.60475 0.56326 0.77701 0.0
H317 H 0.59945 0.57204 0.71567 0.0
C318 C 0.06078 0.69173 0.24406 0.0
C319 C 1.0074 0.68583 0.25561 0.0
C320 C 0.98477 0.62726 0.18568 0.0
C321 C 0.038 0.63185 0.17499 0.0
N322 N 0.12558 0.66074 0.2061 0.0
N323 N 0.92037 0.63534 0.24453 0.0
C324 C 0.07563 0.66214 0.20754 0.0
C325 C 0.97017 0.64974 0.22846 0.0
N326 N 0.09806 0.72613 0.2679 0.0
N327 N 0.94728 0.60243 0.15376 0.0
H328 H 0.90912 0.64834 0.27672 0.0
H329 H 0.89216 0.60671 0.22959 0.0
H330 H 0.95566 0.58622 0.1223 0.0
H331 H 0.9086 0.60179 0.15593 0.0
H332 H 0.13669 0.73692 0.25732 0.0
H333 H 0.08969 0.74531 0.29707 0.0
H334 H 0.15394 0.67796 0.23146 0.0
H335 H 0.13749 0.63854 0.18254 0.0
C336 C 0.5428 0.20884 0.22212 0.0
C337 C 0.53667 0.24629 0.19561 0.0
C338 C 0.55022 0.20792 0.11938 0.0
C339 C 0.55772 0.17125 0.14571 0.0
N340 N 0.55383 0.13224 0.22021 0.0
N341 N 0.51727 0.27315 0.11847 0.0
C342 C 0.5523 0.17058 0.19667 0.0
C343 C 0.53528 0.24335 0.14411 0.0
N344 N 0.5385 0.2093 0.27142 0.0
N345 N 0.55944 0.21018 0.07074 0.0
H346 H 0.50519 0.29969 0.13421 0.0
H347 H 0.50904 0.26876 0.08148 0.0
H348 H 0.5685 0.18448 0.05011 0.0
H349 H 0.56243 0.23946 0.05125 0.0
H350 H 0.55043 0.18744 0.29355 0.0
H351 H 0.52252 0.23145 0.29096 0.0
H352 H 0.54587 0.12701 0.25668 0.0
H353 H 0.56 0.10361 0.20236 0.0
C354 C 0.26125 1.00248 0.56464 0.0
C355 C 0.25056 0.98155 0.61016 0.0
C356 C 0.21393 1.04233 0.63723 0.0
C357 C 0.21151 1.0553 0.58895 0.0
N358 N 0.24261 1.05386 0.50719 0.0
N359 N 0.20849 0.97844 0.68786 0.0
C360 C 0.23801 1.0371 0.55261 0.0
C361 C 0.22458 1.00064 0.64601 0.0
N362 N 0.29593 0.99141 0.53425 0.0
N363 N 0.20909 0.07091 0.67481 0.0
H364 H 0.21065 0.94549 0.69391 0.0
H365 H 0.18815 0.99074 0.71435 0.0
H366 H 0.20895 0.10453 0.66938 0.0
H367 H 0.21382 1.06396 0.71089 0.0
H368 H 0.30906 1.00846 0.50263 0.0
H369 H 0.31565 0.96808 0.54289 0.0
H370 H 0.25385 1.03738 0.47739 0.0
H371 H 0.23563 0.08471 0.49948 0.0
C372 C 0.89501 0.46127 0.92971 0.0
C373 C 0.84814 0.44427 0.95591 0.0
C374 C 0.89856 0.47693 1.03149 0.0
C375 C 0.94402 0.49756 1.00449 0.0
N376 N 0.98048 0.51671 0.92534 0.0
N377 N 0.80437 0.44437 1.03178 0.0
C378 C 0.94047 0.49221 0.9529 0.0
C379 C 0.84981 0.45435 1.00692 0.0
N380 N 0.89754 0.44562 0.88309 0.0
N381 N 0.90165 0.4791 0.08087 0.0
H382 H 0.76826 0.42952 1.01512 0.0
H383 H 0.80192 0.4548 0.06775 0.0
H384 H 0.93534 0.49725 0.09993 0.0
H385 H 0.87197 0.46048 0.10277 0.0
H386 H 0.93204 0.45257 0.86392 0.0
H387 H 0.86653 0.42147 0.86531 0.0
H388 H 0.97745 0.51857 0.88794 0.0
H389 H 1.01545 0.53787 0.93982 0.0
C390 C 0.84048 0.6667 0.48332 0.0
C391 C 0.84333 0.70659 0.45645 0.0
C392 C 0.75348 0.70047 0.48362 0.0
C393 C 0.74923 0.65872 0.50746 0.0
N394 N 0.78716 0.59875 0.52346 0.0
N395 N 0.79702 0.75515 0.42365 0.0
C396 C 0.79233 0.6409 0.50512 0.0
C397 C 0.79809 0.72148 0.45454 0.0
N398 N 0.88462 0.65465 0.4904 0.0
N399 N 0.71588 0.72156 0.49042 0.0
H400 H 0.8282 0.77085 0.40167 0.0
H401 H 0.76367 0.76425 0.41632 0.0
H402 H 0.6827 0.70749 0.51061 0.0
H403 H 0.71935 0.75455 0.47907 0.0
H404 H 0.88707 0.62949 0.51397 0.0
H405 H 0.92024 0.67246 0.47582 0.0
H406 H 0.81439 0.58108 0.5185 0.0
H407 H 0.7534 0.57964 0.54029 0.0
C408 C 0.34132 0.36658 0.15932 0.0
C409 C 0.38095 0.39102 0.19266 0.0
C410 C 0.35164 0.45939 0.18896 0.0
C411 C 0.3097 0.43362 0.15888 0.0
N412 N 0.27367 0.36948 0.10292 0.0
N413 N 0.43331 0.4629 0.22856 0.0
C414 C 0.30798 0.38956 0.1395 0.0
C415 C 0.38952 0.43853 0.20346 0.0
N416 N 0.33272 0.3205 0.14978 0.0
N417 N 0.35355 0.50272 0.20542 0.0
H418 H 0.46124 0.4477 0.23919 0.0
H419 H 0.44411 0.49837 0.23524 0.0
H420 H 0.32727 0.51926 0.19376 0.0
H421 H 0.37981 0.5217 0.23159 0.0
H422 H 0.30011 0.29952 0.13125 0.0
H423 H 0.35679 0.30237 0.16258 0.0
H424 H 0.27375 0.33928 0.08406 0.0
H425 H 0.24817 0.38539 0.08831 0.0
C426 C 0.70737 0.24954 0.90959 0.0
C427 C 0.70517 0.28953 0.93717 0.0
C428 C 0.67733 0.23789 1.00755 0.0
C429 C 0.67145 0.19674 0.97828 0.0
N430 N 0.68616 0.16606 0.89955 0.0
N431 N 0.6782 0.31817 1.01168 0.0
C432 C 0.68765 0.20362 0.9287 0.0
C433 C 0.68724 0.28236 0.98585 0.0
N434 N 0.73159 0.25547 0.86589 0.0
N435 N 0.6771 0.23572 0.05675 0.0
H436 H 0.68378 0.35047 0.99733 0.0
H437 H 0.65991 0.31434 1.04511 0.0
H438 H 0.67584 0.20592 0.07444 0.0
H439 H 0.68552 0.26481 0.07996 0.0
H440 H 0.74072 0.22932 0.84606 0.0
H441 H 0.7466 0.28764 0.85097 0.0
H442 H 0.68801 0.16685 0.86196 0.0
H443 H 0.68282 0.1338 0.91291 0.0
C444 C 1.01076 0.89836 0.44002 0.0
C445 C 0.99558 0.85554 0.46403 0.0
C446 C 1.0113 0.90309 0.54234 0.0
C447 C 1.03161 0.94575 0.51856 0.0
N448 N 0.06227 0.97932 0.44225 0.0
N449 N 0.99685 0.82015 0.54037 0.0
C450 C 0.03447 0.9419 0.46667 0.0
C451 C 1.00059 0.85906 0.51583 0.0
N452 N 1.00076 0.89825 0.39163 0.0
N453 N 0.999 0.90392 0.59018 0.0
H454 H 0.99167 0.78814 0.52284 0.0
H455 H 1.00502 0.82072 0.57728 0.0
H456 H 1.00215 0.93426 0.61025 0.0
H457 H 0.9796 0.87437 0.6083 0.0
H458 H 1.00543 0.92831 0.373 0.0
H459 H 0.98308 0.86818 0.37115 0.0
H460 H 0.07011 0.97776 0.40544 0.0
H461 H 0.08281 1.0104 0.45963 0.0
C462 C 0.39485 0.8397 0.5739 0.0
C463 C 0.34454 0.80692 0.57361 0.0
C464 C 0.38063 0.75335 0.6155 0.0
C465 C 0.43135 0.78211 0.60621 0.0
N466 N 0.48774 0.85202 0.57476 0.0
N467 N 0.28867 0.73285 0.5972 0.0
C468 C 0.4388 0.82538 0.5854 0.0
C469 C 0.33709 0.76401 0.59589 0.0
N470 N 0.40074 0.88475 0.56473 0.0
N471 N 0.3743 0.71607 0.64358 0.0
H472 H 0.25504 0.7401 0.58663 0.0
H473 H 0.28181 0.69883 0.60676 0.0
H474 H 0.40556 0.70758 0.65848 0.0
H475 H 0.33851 0.6961 0.65588 0.0
H476 H 0.43606 0.91063 0.56849 0.0
H477 H 0.36966 0.89764 0.55947 0.0
H478 H 0.49519 0.88112 0.55404 0.0
H479 H 0.52095 0.84329 0.58385 0.0
C480 C 0.89573 0.87368 0.90365 0.0
C481 C 0.84562 0.85414 0.88239 0.0
C482 C 0.88281 0.86316 0.80145 0.0
C483 C 0.93251 0.883 0.82297 0.0
N484 N 0.98868 0.89373 0.89264 0.0
N485 N 0.79277 0.81907 0.81281 0.0
C486 C 0.93968 0.88323 0.87356 0.0
C487 C 0.83962 0.84503 0.83171 0.0
N488 N 0.90124 0.88651 0.95178 0.0
N489 N 0.87666 0.86384 0.75245 0.0
H490 H 0.76058 0.80521 0.83437 0.0
H491 H 0.78707 0.80793 0.7766 0.0
H492 H 0.90794 0.87537 0.72924 0.0
H493 H 0.8406 0.8551 0.7351 0.0
H494 H 0.93651 0.90539 0.96775 0.0
H495 H 0.87011 0.88222 0.97518 0.0
H496 H 0.99626 0.89039 0.92905 0.0
H497 H 1.02155 0.90118 0.87096 0.0
C498 C 0.76623 0.14144 0.40369 0.0
C499 C 0.8108 0.17602 0.42203 0.0
C500 C 0.8406 0.19492 0.33944 0.0
C501 C 0.79459 0.16209 0.32123 0.0
N502 N 0.70988 0.10884 0.3349 0.0
N503 N 0.88706 0.23981 0.40897 0.0
C504 C 0.75622 0.13685 0.35308 0.0
C505 C 0.84712 0.204 0.39032 0.0
N506 N 0.73458 0.11171 0.43459 0.0
N507 N 0.87838 0.21659 0.30805 0.0
H508 H 0.89319 0.24687 0.4461 0.0
H509 H 0.91197 0.26445 0.38798 0.0
H510 H 0.87393 0.21191 0.27054 0.0
H511 H 0.91521 0.23707 0.31895 0.0
H512 H 0.70513 0.08239 0.42308 0.0
H513 H 0.74009 0.1141 0.47205 0.0
H514 H 0.67798 0.09402 0.35629 0.0
H515 H 0.70169 0.10289 0.29794 0.0
C516 C 0.48468 0.67142 0.38413 0.0
C517 C 0.52193 0.69558 0.34993 0.0
C518 C 0.58998 0.67621 0.39925 0.0
C519 C 0.55314 0.65256 0.43383 0.0
N520 N 0.4659 0.63591 0.46288 0.0
N521 N 0.61247 0.73374 0.33738 0.0
C522 C 0.50074 0.65308 0.42742 0.0
C523 C 0.57526 0.70177 0.36146 0.0
N524 N 0.43334 0.66471 0.37456 0.0
N525 N 0.63948 0.67367 0.4016 0.0
H526 H 0.6033 0.75516 0.31257 0.0
H527 H 0.65177 0.74318 0.34653 0.0
H528 H 0.65199 0.65603 0.42829 0.0
H529 H 0.6668 0.68567 0.37484 0.0
H530 H 0.40342 0.64275 0.39371 0.0
H531 H 0.42062 0.68 0.34586 0.0
H532 H 0.42882 0.6395 0.46394 0.0
H533 H 0.47546 0.62072 0.49329 0.0
C534 C 0.12928 0.45259 0.87053 0.0
C535 C 0.18141 0.45151 0.86253 0.0
C536 C 0.20675 0.50935 0.93347 0.0
C537 C 0.1542 0.50799 0.94366 0.0
N538 N 0.06471 0.46449 0.92691 0.0
N539 N 0.26651 0.47065 0.89914 0.0
C540 C 0.11542 0.4753 0.91383 0.0
C541 C 0.21901 0.47776 0.89771 0.0
N542 N 0.09262 0.43405 0.83548 0.0
N543 N 0.24607 0.54086 0.95845 0.0
H544 H 0.27603 0.44634 0.8765 0.0
H545 H 0.29398 0.48456 0.9264 0.0
H546 H 0.23969 0.56192 0.98679 0.0
H547 H 0.28492 0.54806 0.94895 0.0
H548 H 0.05565 0.438 0.83619 0.0
H549 H 0.10084 0.41904 0.80323 0.0
H550 H 0.03539 0.4382 0.90966 0.0
H551 H 0.05278 0.47769 0.95841 0.0
C552 C 0.73682 0.9597 0.95285 0.0
C553 C 0.70577 0.91288 0.94786 0.0
C554 C 0.62833 0.93631 0.96478 0.0
C555 C 0.65926 0.9836 0.96632 0.0
N556 N 0.73946 1.03891 0.94364 0.0
N557 N 0.62068 0.85922 0.9334 0.0
C558 C 0.71231 0.99474 0.95392 0.0
C559 C 0.65104 0.9021 0.94838 0.0
N560 N 0.78923 0.971 0.96026 0.0
N561 N 0.57906 0.92287 0.98248 0.0
H562 H 0.63619 0.83364 0.9204 0.0
H563 H 0.58056 0.85097 0.92901 0.0
H564 H 0.5605 0.94502 0.99805 0.0
H565 H 0.55826 0.88839 0.98665 0.0
H566 H 0.81225 1.00466 0.96828 0.0
H567 H 0.80885 0.94667 0.96414 0.0
H568 H 0.77739 1.04797 0.93097 0.0
H569 H 0.72193 0.06506 0.94239 0.0
C570 C 0.93129 0.16474 0.60078 0.0
C571 C 0.88828 0.13754 0.57271 0.0
C572 C 0.91569 0.06897 0.58474 0.0
C573 C 0.95716 0.09589 0.61485 0.0
N574 N 0.9953 0.16644 0.66235 0.0
N575 N 0.83265 1.0624 0.54688 0.0
C576 C 0.96188 0.14275 0.62661 0.0
C577 C 0.87842 0.08916 0.56726 0.0
N578 N 0.94472 0.21175 0.60073 0.0
N579 N 0.91191 1.02411 0.57285 0.0
H580 H 0.80404 0.07597 0.5345 0.0
H581 H 0.82093 1.02655 0.54617 0.0
H582 H 0.93554 1.00681 0.58835 0.0
H583 H 0.88682 1.00463 0.54606 0.0
H584 H 0.97919 0.23322 0.61598 0.0
H585 H 0.92415 0.22942 0.58135 0.0
H586 H 0.99657 0.19937 0.67514 0.0
H587 H 1.01783 0.15174 0.683 0.0
C588 C 0.34809 0.67346 0.13205 0.0
C589 C 0.3502 0.7148 0.15922 0.0
C590 C 0.25694 0.70133 0.13734 0.0
C591 C 0.25367 0.65826 0.11263 0.0
N592 N 0.29696 0.60206 0.09065 0.0
N593 N 0.30311 0.76327 0.19431 0.0
C594 C 0.2995 0.64396 0.11163 0.0
C595 C 0.30364 0.7274 0.16329 0.0
N596 N 0.39334 0.66331 0.1237 0.0
N597 N 0.21522 0.71783 0.13636 0.0
H598 H 0.33581 0.78294 0.21383 0.0
H599 H 0.26949 0.77108 0.20421 0.0
H600 H 0.17891 0.699 0.12256 0.0
H601 H 0.21715 0.75143 0.14706 0.0
H602 H 0.39647 0.63699 0.09998 0.0
H603 H 0.42907 0.68366 0.1377 0.0
H604 H 0.32587 0.58624 0.09428 0.0
H605 H 0.26456 0.58183 0.0713 0.0
C606 C 0.40278 0.53588 0.67235 0.0
C607 C 0.38734 0.48789 0.68196 0.0
C608 C 0.45538 0.47892 0.62519 0.0
C609 C 0.47071 0.52671 0.61523 0.0
N610 N 0.44987 0.59795 0.62105 0.0
N611 N 0.38761 0.41252 0.65285 0.0
C612 C 0.44164 0.55434 0.63651 0.0
C613 C 0.4102 0.45911 0.65379 0.0
N614 N 0.38069 0.56416 0.69792 0.0
N615 N 0.48501 0.45234 0.60881 0.0
H616 H 0.35286 0.39715 0.67035 0.0
H617 H 0.39947 0.3898 0.62992 0.0
H618 H 0.5183 0.46517 0.58838 0.0
H619 H 0.47929 0.41869 0.61926 0.0
H620 H 0.39453 0.59995 0.69786 0.0
H621 H 0.34926 0.5517 0.72071 0.0
H622 H 0.42721 0.61894 0.63106 0.0
H623 H 0.47683 0.61162 0.5945 0.0
C624 C 0.81954 0.73514 1.04699 0.0
C625 C 0.78069 0.7212 1.0098 0.0
C626 C 0.83673 0.68399 0.96484 0.0
C627 C 0.87762 0.70369 0.99853 0.0
N628 N 0.91127 0.75677 0.06605 0.0
N629 N 0.7594 0.69096 0.92687 0.0
C630 C 0.86995 0.73168 1.03809 0.0
C631 C 0.791 0.69791 0.96687 0.0
N632 N 0.8087 0.7518 0.09103 0.0
N633 N 0.84084 0.65103 0.93153 0.0
H634 H 0.72643 0.70152 0.92423 0.0
H635 H 0.76923 0.67881 0.89363 0.0
H636 H 0.87342 0.6395 0.9292 0.0
H637 H 0.80986 0.63191 0.90961 0.0
H638 H 0.83395 0.75736 0.12069 0.0
H639 H 0.77302 0.75629 0.09974 0.0
H640 H 0.90876 0.78163 0.09205 0.0
H641 H 0.9492 0.75639 0.0599 0.0
C642 C 0.48149 0.90557 0.18265 0.0
C643 C 0.50002 0.86774 0.16844 0.0
C644 C 0.56542 0.92265 0.11725 0.0
C645 C 0.54412 0.95958 0.12833 0.0
N646 N 0.47695 0.98311 0.16852 0.0
N647 N 0.55549 0.84013 0.11547 0.0
C648 C 0.50088 0.94995 0.16037 0.0
C649 C 0.54075 0.87645 0.13374 0.0
N650 N 0.44582 0.89944 0.21872 0.0
N651 N 0.61132 0.93205 0.09321 0.0
H652 H 0.53992 0.80674 0.12744 0.0
H653 H 0.57999 0.84236 0.086 0.0
H654 H 0.63119 0.96479 0.08176 0.0
H655 H 0.63211 0.90852 0.08833 0.0
H656 H 0.43457 0.92611 0.23524 0.0
H657 H 0.43024 0.86794 0.23495 0.0
H658 H 0.44204 0.97756 0.1867 0.0
H659 H 0.48988 1.0155 0.1536 0.0
C660 C 0.15823 0.3018 0.68328 0.0
C661 C 0.16771 0.30794 0.73449 0.0
C662 C 0.1374 0.2211 0.73544 0.0
C663 C 0.13731 0.21553 0.68337 0.0
N664 N 0.16361 0.25715 0.61018 0.0
N665 N 0.17329 0.26904 0.80761 0.0
C666 C 0.15192 0.2578 0.65814 0.0
C667 C 0.15912 0.26623 0.75999 0.0
N668 N 0.15396 0.33812 0.65795 0.0
N669 N 0.11434 0.18387 0.76221 0.0
H670 H 0.18955 0.30037 0.82644 0.0
H671 H 0.17334 0.24029 0.8269 0.0
H672 H 0.09462 0.15166 0.74678 0.0
H673 H 0.10907 0.18644 0.79943 0.0
H674 H 0.14263 0.3349 0.62159 0.0
H675 H 0.15551 0.36976 0.67473 0.0
H676 H 0.17843 0.28708 0.59109 0.0
H677 H 0.16591 0.22766 0.59139 0.0
C678 C 0.67935 0.27452 0.6065 0.0
C679 C 0.68275 0.2391 0.57255 0.0
C680 C 0.65267 0.27901 0.50813 0.0
C681 C 0.64588 0.31175 0.54307 0.0
N682 N 0.63743 0.33252 0.62666 0.0
N683 N 0.66174 0.20354 0.49161 0.0
C684 C 0.65388 0.30655 0.59267 0.0
C685 C 0.66576 0.23982 0.52361 0.0
N686 N 0.70333 0.28001 0.65089 0.0
N687 N 0.64912 0.28641 0.45994 0.0
H688 H 0.67239 0.17447 0.49911 0.0
H689 H 0.64366 0.20057 0.45783 0.0
H690 H 0.63831 0.31402 0.44717 0.0
H691 H 0.66063 0.26717 0.43269 0.0
H692 H 0.706 0.30828 0.6743 0.0
H693 H 0.72562 0.25986 0.66265 0.0
H694 H 0.63749 0.32667 0.66358 0.0
H695 H 0.61894 0.35668 0.61753 0.0
loop_
_geom_bond_atom_site_label_1
_geom_bond_atom_site_label_2
_geom_bond_distance
_geom_bond_site_symmetry_2
_ccdc_geom_bond_type
H0 C7 0.929 . S
H1 C10 0.930 . S
H2 C12 0.929 . S
H3 C4 0.969 . S
C4 H3 0.969 . S
C4 O5 1.550 . S
C4 H6 0.973 . S
O5 C4 1.550 . S
O5 C11 1.412 . S
H6 C4 0.973 . S
C7 H0 0.929 . S
C7 C8 1.400 . S
C7 C9 1.364 . S
C8 C7 1.400 . S
C8 C12 1.377 . S
C9 C7 1.364 . S
C9 C10 1.374 . S
C10 H1 0.930 . S
C10 C9 1.374 . S
C10 C11 1.383 . S
C11 O5 1.412 . S
C11 C10 1.383 . S
C11 C12 1.394 . S
C12 H2 0.929 . S
C12 C8 1.377 . S
C12 C11 1.394 . S
H13 C20 0.929 . S
H14 C23 0.930 . S
H15 C25 0.929 . S
H16 C17 0.969 . S
C17 H16 0.969 . S
C17 O18 1.550 . S
C17 H19 0.973 . S
O18 C17 1.550 . S
O18 C24 1.412 . S
H19 C17 0.973 . S
C20 H13 0.929 . S
C20 C21 1.400 . S
C20 C22 1.364 . S
C21 C20 1.400 . S
C21 C25 1.377 . S
C22 C20 1.364 . S
C22 C23 1.374 . S
C23 H14 0.930 . S
C23 C22 1.374 . S
C23 C24 1.383 . S
C24 O18 1.412 . S
C24 C23 1.383 . S
C24 C25 1.394 . S
C25 H15 0.929 . S
C25 C21 1.377 . S
C25 C24 1.394 . S
H26 C33 0.929 . S
H27 C36 0.930 . S
H28 C38 0.929 . S
H29 C30 0.969 . S
C30 H29 0.969 . S
C30 O31 1.550 . S
C30 H32 0.973 . S
O31 C30 1.550 . S
O31 C37 1.412 . S
H32 C30 0.973 . S
C33 H26 0.929 . S
C33 C34 1.400 . S
C33 C35 1.364 . S
C34 C33 1.400 . S
C34 C38 1.377 . S
C35 C33 1.364 . S
C35 C36 1.374 . S
C36 H27 0.930 . S
C36 C35 1.374 . S
C36 C37 1.383 . S
C37 O31 1.412 . S
C37 C36 1.383 . S
C37 C38 1.394 . S
C38 H28 0.929 . S
C38 C34 1.377 . S
C38 C37 1.394 . S
H39 C46 0.929 . S
H40 C49 0.930 . S
H41 C51 0.929 . S
H42 C43 0.969 . S
C43 H42 0.969 . S
C43 O44 1.550 . S
C43 H45 0.973 . S
O44 C43 1.550 . S
O44 C50 1.412 . S
H45 C43 0.973 . S
C46 H39 0.929 . S
C46 C47 1.400 . S
C46 C48 1.364 . S
C47 C46 1.400 . S
C47 C51 1.377 . S
C48 C46 1.364 . S
C48 C49 1.374 . S
C49 H40 0.930 . S
C49 C48 1.374 . S
C49 C50 1.383 . S
C50 O44 1.412 . S
C50 C49 1.383 . S
C50 C51 1.394 . S
C51 H41 0.929 . S
C51 C47 1.377 . S
C51 C50 1.394 . S
H52 C59 0.929 . S
H53 C62 0.930 . S
H54 C64 0.929 . S
H55 C56 0.969 . S
C56 H55 0.969 . S
C56 O57 1.550 . S
C56 H58 0.973 . S
O57 C56 1.550 . S
O57 C63 1.412 . S
H58 C56 0.973 . S
C59 H52 0.929 . S
C59 C60 1.400 . S
C59 C61 1.364 . S
C60 C59 1.400 . S
C60 C64 1.377 . S
C61 C59 1.364 . S
C61 C62 1.374 . S
C62 H53 0.930 . S
C62 C61 1.374 . S
C62 C63 1.383 . S
C63 O57 1.412 . S
C63 C62 1.383 . S
C63 C64 1.394 . S
C64 H54 0.929 . S
C64 C60 1.377 . S
C64 C63 1.394 . S
H65 C72 0.929 . S
H66 C75 0.930 . S
H67 C77 0.929 . S
H68 C69 0.969 . S
C69 H68 0.969 . S
C69 O70 1.550 . S
C69 H71 0.973 . S
O70 C69 1.550 . S
O70 C76 1.412 . S
H71 C69 0.973 . S
C72 H65 0.929 . S
C72 C73 1.400 . S
C72 C74 1.364 . S
C73 C72 1.400 . S
C73 C77 1.377 . S
C74 C72 1.364 . S
C74 C75 1.374 . S
C75 H66 0.930 . S
C75 C74 1.374 . S
C75 C76 1.383 . S
C76 O70 1.412 . S
C76 C75 1.383 . S
C76 C77 1.394 . S
C77 H67 0.929 . S
C77 C73 1.377 . S
C77 C76 1.394 . S
H78 C85 0.929 . S
H79 C88 0.930 . S
H80 C90 0.929 . S
H81 C82 0.969 . S
C82 H81 0.969 . S
C82 O83 1.550 . S
C82 H84 0.973 . S
O83 C82 1.550 . S
O83 C89 1.412 . S
H84 C82 0.973 . S
C85 H78 0.929 . S
C85 C86 1.400 . S
C85 C87 1.364 . S
C86 C85 1.400 . S
C86 C90 1.377 . S
C87 C85 1.364 . S
C87 C88 1.374 . S
C88 H79 0.930 . S
C88 C87 1.374 . S
C88 C89 1.383 . S
C89 O83 1.412 . S
C89 C88 1.383 . S
C89 C90 1.394 . S
C90 H80 0.929 . S
C90 C86 1.377 . S
C90 C89 1.394 . S
H91 C98 0.929 . S
H92 C101 0.930 . S
H93 C103 0.929 . S
H94 C95 0.969 . S
C95 H94 0.969 . S
C95 O96 1.550 . S
C95 H97 0.973 . S
O96 C95 1.550 . S
O96 C102 1.412 . S
H97 C95 0.973 . S
C98 H91 0.929 . S
C98 C99 1.400 . S
C98 C100 1.364 . S
C99 C98 1.400 . S
C99 C103 1.377 . S
C100 C98 1.364 . S
C100 C101 1.374 . S
C101 H92 0.930 . S
C101 C100 1.374 . S
C101 C102 1.383 . S
C102 O96 1.412 . S
C102 C101 1.383 . S
C102 C103 1.394 . S
C103 H93 0.929 . S
C103 C99 1.377 . S
C103 C102 1.394 . S
La104 C106 2.928 . S
La104 O124 2.521 . S
La104 O125 2.628 . S
La104 O126 2.557 . S
La104 O127 2.757 1_545 S
La104 O128 2.470 . S
La104 O133 2.482 . S
La104 O135 2.503 1_545 S
La105 C115 2.928 1_545 S
La105 O127 2.482 1_645 S
La105 O129 2.503 1_655 S
La105 O130 2.521 1_545 S
La105 O131 2.628 1_545 S
La105 O132 2.554 . S
La105 O133 2.757 1_655 S
La105 O134 2.470 1_545 S
C106 La104 2.928 . S
C106 C107 1.503 . S
C106 O124 1.261 . S
C106 O125 1.243 . S
C107 C106 1.503 . S
C107 C108 1.394 . S
C107 C112 1.373 . S
C108 C107 1.394 . S
C108 C109 1.380 . S
C108 H136 0.930 . S
C109 C108 1.380 . S
C109 C110 1.376 . S
C109 H137 0.930 . S
C110 C109 1.376 . S
C110 C111 1.370 . S
C111 C110 1.370 . S
C111 C112 1.396 . S
C111 H138 0.929 . S
C112 C107 1.373 . S
C112 C111 1.396 . S
C112 H139 0.929 . S
C113 O126 1.239 1_565 S
C113 O127 1.289 . S
C114 O128 1.258 . S
C114 O129 1.256 . S
C115 La105 2.928 1_565 S
C115 C116 1.503 . S
C115 O130 1.261 . S
C115 O131 1.243 . S
C116 C115 1.503 . S
C116 C117 1.394 . S
C116 C121 1.373 . S
C117 C116 1.394 . S
C117 C118 1.380 . S
C117 H140 0.930 . S
C118 C117 1.380 . S
C118 C119 1.376 . S
C118 H141 0.930 . S
C119 C118 1.376 . S
C119 C120 1.370 . S
C120 C119 1.370 . S
C120 C121 1.396 . S
C120 H142 0.929 . S
C121 C116 1.373 . S
C121 C120 1.396 . S
C121 H143 0.929 . S
C122 O132 1.240 . S
C122 O133 1.289 1_655 S
C123 O134 1.258 . S
C123 O135 1.256 1_655 S
O124 La104 2.521 . S
O124 C106 1.261 . S
O125 La104 2.628 . S
O125 C106 1.243 . S
O126 La104 2.557 . S
O126 C113 1.239 1_545 S
O127 La104 2.757 1_565 S
O127 La105 2.482 1_465 S
O127 C113 1.289 . S
O128 La104 2.470 . S
O128 C114 1.258 . S
O129 La105 2.503 1_455 S
O129 C114 1.256 . S
O130 La105 2.521 1_565 S
O130 C115 1.261 . S
O131 La105 2.628 1_565 S
O131 C115 1.243 . S
O132 La105 2.554 . S
O132 C122 1.240 . S
O133 La104 2.482 . S
O133 La105 2.757 1_455 S
O133 C122 1.289 1_455 S
O134 La105 2.470 1_565 S
O134 C123 1.258 . S
O135 La104 2.503 1_565 S
O135 C123 1.256 1_455 S
H136 C108 0.930 . S
H137 C109 0.930 . S
H138 C111 0.929 . S
H139 C112 0.929 . S
H140 C117 0.930 . S
H141 C118 0.930 . S
H142 C120 0.929 . S
H143 C121 0.929 . S
La144 C146 2.928 . S
La144 O164 2.521 . S
La144 O165 2.628 . S
La144 O166 2.554 1_545 S
La144 O167 2.757 1_545 S
La144 O168 2.470 . S
La144 O173 2.482 1_554 S
La144 O175 2.503 1_544 S
La145 C155 2.928 1_545 S
La145 O167 2.482 1_546 S
La145 O169 2.503 1_556 S
La145 O170 2.521 1_545 S
La145 O171 2.628 1_545 S
La145 O172 2.554 . S
La145 O173 2.757 . S
La145 O174 2.470 1_545 S
C146 La144 2.928 . S
C146 C147 1.503 . S
C146 O164 1.261 . S
C146 O165 1.243 . S
C147 C146 1.503 . S
C147 C148 1.394 . S
C147 C152 1.373 . S
C148 C147 1.394 . S
C148 C149 1.380 . S
C148 H176 0.930 . S
C149 C148 1.380 . S
C149 C150 1.376 . S
C149 H177 0.930 . S
C150 C149 1.376 . S
C150 C151 1.370 . S
C151 C150 1.370 . S
C151 C152 1.396 . S
C151 H178 0.929 . S
C152 C147 1.373 . S
C152 C151 1.396 . S
C152 H179 0.929 . S
C153 O166 1.240 . S
C153 O167 1.289 . S
C154 O168 1.258 . S
C154 O169 1.256 . S
C155 La145 2.928 1_565 S
C155 C156 1.503 . S
C155 O170 1.261 . S
C155 O171 1.243 . S
C156 C155 1.503 . S
C156 C157 1.394 . S
C156 C161 1.373 . S
C157 C156 1.394 . S
C157 C158 1.380 . S
C157 H180 0.930 . S
C158 C157 1.380 . S
C158 C159 1.376 . S
C158 H181 0.930 . S
C159 C158 1.376 . S
C159 C160 1.370 . S
C160 C159 1.370 . S
C160 C161 1.396 . S
C160 H182 0.929 . S
C161 C156 1.373 . S
C161 C160 1.396 . S
C161 H183 0.929 . S
C162 O172 1.240 . S
C162 O173 1.289 . S
C163 O174 1.258 . S
C163 O175 1.256 . S
O164 La144 2.521 . S
O164 C146 1.261 . S
O165 La144 2.628 . S
O165 C146 1.243 . S
O166 La144 2.554 1_565 S
O166 C153 1.240 . S
O167 La144 2.757 1_565 S
O167 La145 2.482 1_564 S
O167 C153 1.289 . S
O168 La144 2.470 . S
O168 C154 1.258 . S
O169 La145 2.503 1_554 S
O169 C154 1.256 . S
O170 La145 2.521 1_565 S
O170 C155 1.261 . S
O171 La145 2.628 1_565 S
O171 C155 1.243 . S
O172 La145 2.554 . S
O172 C162 1.240 . S
O173 La144 2.482 1_556 S
O173 La145 2.757 . S
O173 C162 1.289 . S
O174 La145 2.470 1_565 S
O174 C163 1.258 . S
O175 La144 2.503 1_566 S
O175 C163 1.256 . S
H176 C148 0.930 . S
H177 C149 0.930 . S
H178 C151 0.929 . S
H179 C152 0.929 . S
H180 C157 0.930 . S
H181 C158 0.930 . S
H182 C160 0.929 . S
H183 C161 0.929 . S
La184 C186 2.928 . S
La184 O204 2.521 . S
La184 O205 2.628 . S
La184 O206 2.554 . S
La184 O207 2.757 . S
La184 O208 2.470 . S
La184 O213 2.482 . S
La184 O215 2.503 . S
La185 C195 2.928 . S
La185 O207 2.482 . S
La185 O209 2.503 . S
La185 O210 2.521 . S
La185 O211 2.628 . S
La185 O212 2.554 . S
La185 O213 2.757 . S
La185 O214 2.470 . S
C186 La184 2.928 . S
C186 C187 1.503 . S
C186 O204 1.261 . S
C186 O205 1.243 . S
C187 C186 1.503 . S
C187 C188 1.394 . S
C187 C192 1.373 . S
C188 C187 1.394 . S
C188 C189 1.380 . S
C188 H216 0.930 . S
C189 C188 1.380 . S
C189 C190 1.376 . S
C189 H217 0.930 . S
C190 C189 1.376 . S
C190 C191 1.370 . S
C191 C190 1.370 . S
C191 C192 1.396 . S
C191 H218 0.929 . S
C192 C187 1.373 . S
C192 C191 1.396 . S
C192 H219 0.929 . S
C193 O206 1.240 . S
C193 O207 1.289 . S
C194 O208 1.258 . S
C194 O209 1.256 . S
C195 La185 2.928 . S
C195 C196 1.503 . S
C195 O210 1.261 . S
C195 O211 1.243 . S
C196 C195 1.503 . S
C196 C197 1.394 . S
C196 C201 1.373 . S
C197 C196 1.394 . S
C197 C198 1.380 . S
C197 H220 0.930 . S
C198 C197 1.380 . S
C198 C199 1.376 . S
C198 H221 0.930 . S
C199 C198 1.376 . S
C199 C200 1.370 . S
C200 C199 1.370 . S
C200 C201 1.396 . S
C200 H222 0.929 . S
C201 C196 1.373 . S
C201 C200 1.396 . S
C201 H223 0.929 . S
C202 O212 1.240 . S
C202 O213 1.289 . S
C203 O214 1.258 . S
C203 O215 1.256 . S
O204 La184 2.521 . S
O204 C186 1.261 . S
O205 La184 2.628 . S
O205 C186 1.243 . S
O206 La184 2.554 . S
O206 C193 1.240 . S
O207 La184 2.757 . S
O207 La185 2.482 . S
O207 C193 1.289 . S
O208 La184 2.470 . S
O208 C194 1.258 . S
O209 La185 2.503 . S
O209 C194 1.256 . S
O210 La185 2.521 . S
O210 C195 1.261 . S
O211 La185 2.628 . S
O211 C195 1.243 . S
O212 La185 2.554 . S
O212 C202 1.240 . S
O213 La184 2.482 . S
O213 La185 2.757 . S
O213 C202 1.289 . S
O214 La185 2.470 . S
O214 C203 1.258 . S
O215 La184 2.503 . S
O215 C203 1.256 . S
H216 C188 0.930 . S
H217 C189 0.930 . S
H218 C191 0.929 . S
H219 C192 0.929 . S
H220 C197 0.930 . S
H221 C198 0.930 . S
H222 C200 0.929 . S
H223 C201 0.929 . S
La224 C226 2.928 . S
La224 O244 2.521 . S
La224 O245 2.628 . S
La224 O246 2.554 . S
La224 O247 2.757 . S
La224 O248 2.470 . S
La224 O253 2.482 . S
La224 O255 2.503 1_455 S
La225 C235 2.928 1_454 S
La225 O247 2.482 . S
La225 O249 2.503 . S
La225 O250 2.521 1_454 S
La225 O251 2.628 1_455 S
La225 O252 2.554 1_554 S
La225 O253 2.757 . S
La225 O254 2.470 1_454 S
C226 La224 2.928 . S
C226 C227 1.503 . S
C226 O244 1.261 . S
C226 O245 1.243 . S
C227 C226 1.503 . S
C227 C228 1.394 . S
C227 C232 1.373 . S
C228 C227 1.394 . S
C228 C229 1.380 . S
C228 H256 0.930 . S
C229 C228 1.380 . S
C229 C230 1.376 . S
C229 H257 0.930 . S
C230 C229 1.376 . S
C230 C231 1.370 . S
C231 C230 1.370 . S
C231 C232 1.396 . S
C231 H258 0.929 . S
C232 C227 1.373 . S
C232 C231 1.396 . S
C232 H259 0.929 . S
C233 O246 1.240 . S
C233 O247 1.289 . S
C234 O248 1.258 . S
C234 O249 1.256 . S
C235 La225 2.928 1_656 S
C235 C236 1.503 . S
C235 O250 1.261 . S
C235 O251 1.243 1_556 S
C236 C235 1.503 . S
C236 C237 1.394 . S
C236 C241 1.373 . S
C237 C236 1.394 . S
C237 C238 1.380 . S
C237 H260 0.930 . S
C238 C237 1.380 . S
C238 C239 1.376 . S
C238 H261 0.930 . S
C239 C238 1.376 . S
C239 C240 1.370 . S
C240 C239 1.370 . S
C240 C241 1.396 . S
C240 H262 0.929 . S
C241 C236 1.373 . S
C241 C240 1.396 . S
C241 H263 0.949 . S
C242 O252 1.240 . S
C242 O253 1.289 1_556 S
C243 O254 1.258 1_554 S
C243 O255 1.256 . S
O244 La224 2.521 . S
O244 C226 1.261 . S
O245 La224 2.628 . S
O245 C226 1.243 . S
O246 La224 2.554 . S
O246 C233 1.240 . S
O247 La224 2.757 . S
O247 La225 2.482 . S
O247 C233 1.289 . S
O248 La224 2.470 . S
O248 C234 1.258 . S
O249 La225 2.503 . S
O249 C234 1.256 . S
O250 La225 2.521 1_656 S
O250 C235 1.261 . S
O251 La225 2.628 1_655 S
O251 C235 1.243 1_554 S
O252 La225 2.554 1_556 S
O252 C242 1.240 . S
O253 La224 2.482 . S
O253 La225 2.757 . S
O253 C242 1.289 1_554 S
O254 La225 2.470 1_656 S
O254 C243 1.258 1_556 S
O255 La224 2.503 1_655 S
O255 C243 1.256 . S
H256 C228 0.930 . S
H257 C229 0.930 . S
H258 C231 0.929 . S
H259 C232 0.929 . S
H260 C237 0.930 . S
H261 C238 0.930 . S
H262 C240 0.929 . S
H263 C241 0.949 . S
C264 C265 1.363 . S
C264 C270 1.379 . S
C264 N272 1.356 . S
C265 C264 1.363 . S
C265 C271 1.363 . S
C266 C267 1.363 . S
C266 C271 1.379 . S
C266 N273 1.356 . S
C267 C266 1.363 . S
C267 C270 1.363 . S
N268 C270 1.356 . S
N268 H280 0.984 . S
N268 H281 0.985 . S
N269 C271 1.356 . S
N269 H274 0.984 . S
N269 H275 0.985 . S
C270 C264 1.379 . S
C270 C267 1.363 . S
C270 N268 1.356 . S
C271 C265 1.363 . S
C271 C266 1.379 . S
C271 N269 1.356 . S
N272 C264 1.356 . S
N272 H278 0.984 . S
N272 H279 0.984 . S
N273 C266 1.356 . S
N273 H276 0.984 . S
N273 H277 0.985 . S
H274 N269 0.984 . S
H275 N269 0.985 . S
H276 N273 0.984 . S
H277 N273 0.985 . S
H278 N272 0.984 . S
H279 N272 0.984 . S
H280 N268 0.984 . S
H281 N268 0.985 . S
C282 C283 1.363 . S
C282 C288 1.379 . S
C282 N290 1.356 . S
C283 C282 1.363 . S
C283 C289 1.363 . S
C284 C285 1.363 . S
C284 C289 1.379 . S
C284 N291 1.356 . S
C285 C284 1.363 . S
C285 C288 1.363 . S
N286 C288 1.356 . S
N286 H298 0.984 . S
N286 H299 0.985 . S
N287 C289 1.356 . S
N287 H292 0.984 . S
N287 H293 0.985 . S
C288 C282 1.379 . S
C288 C285 1.363 . S
C288 N286 1.356 . S
C289 C283 1.363 . S
C289 C284 1.379 . S
C289 N287 1.356 . S
N290 C282 1.356 . S
N290 H296 0.984 . S
N290 H297 0.984 . S
N291 C284 1.356 . S
N291 H294 0.984 . S
N291 H295 0.985 . S
H292 N287 0.984 . S
H293 N287 0.985 . S
H294 N291 0.984 . S
H295 N291 0.985 . S
H296 N290 0.984 . S
H297 N290 0.984 . S
H298 N286 0.984 . S
H299 N286 0.985 . S
C300 C301 1.363 . S
C300 C306 1.379 . S
C300 N308 1.356 . S
C301 C300 1.363 . S
C301 C307 1.363 . S
C302 C303 1.363 . S
C302 C307 1.379 . S
C302 N309 1.356 . S
C303 C302 1.363 . S
C303 C306 1.363 . S
N304 C306 1.356 . S
N304 H316 0.984 . S
N304 H317 0.985 . S
N305 C307 1.356 . S
N305 H310 0.984 . S
N305 H311 0.985 . S
C306 C300 1.379 . S
C306 C303 1.363 . S
C306 N304 1.356 . S
C307 C301 1.363 . S
C307 C302 1.379 . S
C307 N305 1.356 . S
N308 C300 1.356 . S
N308 H314 0.984 . S
N308 H315 0.984 . S
N309 C302 1.356 . S
N309 H312 0.984 . S
N309 H313 0.985 . S
H310 N305 0.984 . S
H311 N305 0.985 . S
H312 N309 0.984 . S
H313 N309 0.985 . S
H314 N308 0.984 . S
H315 N308 0.984 . S
H316 N304 0.984 . S
H317 N304 0.985 . S
C318 C319 1.363 . S
C318 C324 1.379 . S
C318 N326 1.356 . S
C319 C318 1.363 . S
C319 C325 1.363 . S
C320 C321 1.363 . S
C320 C325 1.379 . S
C320 N327 1.356 . S
C321 C320 1.363 . S
C321 C324 1.363 . S
N322 C324 1.356 1_455 S
N322 H334 0.984 . S
N322 H335 0.985 . S
N323 C325 1.356 . S
N323 H328 0.984 . S
N323 H329 0.985 . S
C324 C318 1.379 . S
C324 C321 1.363 . S
C324 N322 1.356 1_655 S
C325 C319 1.363 . S
C325 C320 1.379 . S
C325 N323 1.356 . S
N326 C318 1.356 . S
N326 H332 0.984 1_655 S
N326 H333 0.984 . S
N327 C320 1.356 . S
N327 H330 0.984 . S
N327 H331 0.985 . S
H328 N323 0.984 . S
H329 N323 0.985 . S
H330 N327 0.984 . S
H331 N327 0.985 . S
H332 N326 0.984 1_455 S
H333 N326 0.984 . S
H334 N322 0.984 . S
H335 N322 0.985 . S
C336 C337 1.363 . S
C336 C342 1.379 . S
C336 N344 1.356 . S
C337 C336 1.363 . S
C337 C343 1.363 . S
C338 C339 1.363 . S
C338 C343 1.379 . S
C338 N345 1.356 . S
C339 C338 1.363 . S
C339 C342 1.363 . S
N340 C342 1.356 . S
N340 H352 0.984 . S
N340 H353 0.985 . S
N341 C343 1.356 . S
N341 H346 0.984 . S
N341 H347 0.985 . S
C342 C336 1.379 . S
C342 C339 1.363 . S
C342 N340 1.356 . S
C343 C337 1.363 . S
C343 C338 1.379 . S
C343 N341 1.356 . S
N344 C336 1.356 . S
N344 H350 0.984 . S
N344 H351 0.984 . S
N345 C338 1.356 . S
N345 H348 0.984 . S
N345 H349 0.985 . S
H346 N341 0.984 . S
H347 N341 0.985 . S
H348 N345 0.984 . S
H349 N345 0.985 . S
H350 N344 0.984 . S
H351 N344 0.984 . S
H352 N340 0.984 . S
H353 N340 0.985 . S
C354 C355 1.363 . S
C354 C360 1.379 . S
C354 N362 1.356 . S
C355 C354 1.363 . S
C355 C361 1.363 . S
C356 C357 1.363 . S
C356 C361 1.379 . S
C356 N363 1.356 . S
C357 C356 1.363 . S
C357 C360 1.363 . S
N358 C360 1.356 . S
N358 H370 0.984 1_565 S
N358 H371 0.985 1_565 S
N359 C361 1.356 . S
N359 H364 0.984 . S
N359 H365 0.985 . S
C360 C354 1.379 . S
C360 C357 1.363 . S
C360 N358 1.356 . S
C361 C355 1.363 . S
C361 C356 1.379 . S
C361 N359 1.356 . S
N362 C354 1.356 . S
N362 H368 0.984 . S
N362 H369 0.984 . S
N363 C356 1.356 . S
N363 H366 0.984 . S
N363 H367 0.985 . S
H364 N359 0.984 . S
H365 N359 0.985 . S
H366 N363 0.984 . S
H367 N363 0.985 . S
H368 N362 0.984 . S
H369 N362 0.984 . S
H370 N358 0.984 1_545 S
H371 N358 0.985 1_545 S
C372 C373 1.363 . S
C372 C378 1.379 . S
C372 N380 1.356 . S
C373 C372 1.363 . S
C373 C379 1.363 . S
C374 C375 1.363 . S
C374 C379 1.379 . S
C374 N381 1.356 1_556 S
C375 C374 1.363 . S
C375 C378 1.363 . S
N376 C378 1.356 . S
N376 H388 0.984 . S
N376 H389 0.985 . S
N377 C379 1.356 . S
N377 H382 0.984 . S
N377 H383 0.985 . S
C378 C372 1.379 . S
C378 C375 1.363 . S
C378 N376 1.356 . S
C379 C373 1.363 . S
C379 C374 1.379 . S
C379 N377 1.356 . S
N380 C372 1.356 . S
N380 H386 0.984 . S
N380 H387 0.984 . S
N381 C374 1.356 1_554 S
N381 H384 0.984 . S
N381 H385 0.985 . S
H382 N377 0.984 . S
H383 N377 0.985 . S
H384 N381 0.984 . S
H385 N381 0.985 . S
H386 N380 0.984 . S
H387 N380 0.984 . S
H388 N376 0.984 . S
H389 N376 0.985 . S
C390 C391 1.363 . S
C390 C396 1.379 . S
C390 N398 1.356 . S
C391 C390 1.363 . S
C391 C397 1.363 . S
C392 C393 1.363 . S
C392 C397 1.379 . S
C392 N399 1.356 . S
C393 C392 1.363 . S
C393 C396 1.363 . S
N394 C396 1.356 . S
N394 H406 0.984 . S
N394 H407 0.985 . S
N395 C397 1.356 . S
N395 H400 0.984 . S
N395 H401 0.985 . S
C396 C390 1.379 . S
C396 C393 1.363 . S
C396 N394 1.356 . S
C397 C391 1.363 . S
C397 C392 1.379 . S
C397 N395 1.356 . S
N398 C390 1.356 . S
N398 H404 0.984 . S
N398 H405 0.984 . S
N399 C392 1.356 . S
N399 H402 0.984 . S
N399 H403 0.985 . S
H400 N395 0.984 . S
H401 N395 0.985 . S
H402 N399 0.984 . S
H403 N399 0.985 . S
H404 N398 0.984 . S
H405 N398 0.984 . S
H406 N394 0.984 . S
H407 N394 0.985 . S
C408 C409 1.363 . S
C408 C414 1.379 . S
C408 N416 1.356 . S
C409 C408 1.363 . S
C409 C415 1.363 . S
C410 C411 1.363 . S
C410 C415 1.379 . S
C410 N417 1.356 . S
C411 C410 1.363 . S
C411 C414 1.363 . S
N412 C414 1.356 . S
N412 H424 0.984 . S
N412 H425 0.985 . S
N413 C415 1.356 . S
N413 H418 0.984 . S
N413 H419 0.985 . S
C414 C408 1.379 . S
C414 C411 1.363 . S
C414 N412 1.356 . S
C415 C409 1.363 . S
C415 C410 1.379 . S
C415 N413 1.356 . S
N416 C408 1.356 . S
N416 H422 0.984 . S
N416 H423 0.984 . S
N417 C410 1.356 . S
N417 H420 0.984 . S
N417 H421 0.985 . S
H418 N413 0.984 . S
H419 N413 0.985 . S
H420 N417 0.984 . S
H421 N417 0.985 . S
H422 N416 0.984 . S
H423 N416 0.984 . S
H424 N412 0.984 . S
H425 N412 0.985 . S
C426 C427 1.363 . S
C426 C432 1.379 . S
C426 N434 1.356 . S
C427 C426 1.363 . S
C427 C433 1.363 . S
C428 C429 1.363 . S
C428 C433 1.379 . S
C428 N435 1.356 . S
C429 C428 1.363 . S
C429 C432 1.363 . S
N430 C432 1.356 . S
N430 H442 0.984 . S
N430 H443 0.985 . S
N431 C433 1.356 . S
N431 H436 0.984 . S
N431 H437 0.985 . S
C432 C426 1.379 . S
C432 C429 1.363 . S
C432 N430 1.356 . S
C433 C427 1.363 . S
C433 C428 1.379 . S
C433 N431 1.356 . S
N434 C426 1.356 . S
N434 H440 0.984 . S
N434 H441 0.984 . S
N435 C428 1.356 . S
N435 H438 0.984 1_556 S
N435 H439 0.985 1_556 S
H436 N431 0.984 . S
H437 N431 0.985 . S
H438 N435 0.984 1_554 S
H439 N435 0.985 1_554 S
H440 N434 0.984 . S
H441 N434 0.984 . S
H442 N430 0.984 . S
H443 N430 0.985 . S
C444 C445 1.363 . S
C444 C450 1.379 . S
C444 N452 1.356 . S
C445 C444 1.363 . S
C445 C451 1.363 . S
C446 C447 1.363 . S
C446 C451 1.379 . S
C446 N453 1.356 . S
C447 C446 1.363 . S
C447 C450 1.363 . S
N448 C450 1.356 1_455 S
N448 H460 0.984 . S
N448 H461 0.985 . S
N449 C451 1.356 . S
N449 H454 0.984 . S
N449 H455 0.985 . S
C450 C444 1.379 . S
C450 C447 1.363 . S
C450 N448 1.356 1_655 S
C451 C445 1.363 . S
C451 C446 1.379 . S
C451 N449 1.356 . S
N452 C444 1.356 . S
N452 H458 0.984 1_655 S
N452 H459 0.984 . S
N453 C446 1.356 . S
N453 H456 0.984 . S
N453 H457 0.985 . S
H454 N449 0.984 . S
H455 N449 0.985 . S
H456 N453 0.984 . S
H457 N453 0.985 . S
H458 N452 0.984 1_455 S
H459 N452 0.984 . S
H460 N448 0.984 . S
H461 N448 0.985 . S
C462 C463 1.363 . S
C462 C468 1.379 . S
C462 N470 1.356 . S
C463 C462 1.363 . S
C463 C469 1.363 . S
C464 C465 1.363 . S
C464 C469 1.379 . S
C464 N471 1.356 . S
C465 C464 1.363 . S
C465 C468 1.363 . S
N466 C468 1.356 . S
N466 H478 0.984 . S
N466 H479 0.985 . S
N467 C469 1.356 . S
N467 H472 0.984 . S
N467 H473 0.985 . S
C468 C462 1.379 . S
C468 C465 1.363 . S
C468 N466 1.356 . S
C469 C463 1.363 . S
C469 C464 1.379 . S
C469 N467 1.356 . S
N470 C462 1.356 . S
N470 H476 0.984 . S
N470 H477 0.984 . S
N471 C464 1.356 . S
N471 H474 0.984 . S
N471 H475 0.985 . S
H472 N467 0.984 . S
H473 N467 0.985 . S
H474 N471 0.984 . S
H475 N471 0.985 . S
H476 N470 0.984 . S
H477 N470 0.984 . S
H478 N466 0.984 . S
H479 N466 0.985 . S
C480 C481 1.363 . S
C480 C486 1.379 . S
C480 N488 1.356 . S
C481 C480 1.363 . S
C481 C487 1.363 . S
C482 C483 1.363 . S
C482 C487 1.379 . S
C482 N489 1.356 . S
C483 C482 1.363 . S
C483 C486 1.363 . S
N484 C486 1.356 . S
N484 H496 0.984 . S
N484 H497 0.985 . S
N485 C487 1.356 . S
N485 H490 0.984 . S
N485 H491 0.985 . S
C486 C480 1.379 . S
C486 C483 1.363 . S
C486 N484 1.356 . S
C487 C481 1.363 . S
C487 C482 1.379 . S
C487 N485 1.356 . S
N488 C480 1.356 . S
N488 H494 0.984 . S
N488 H495 0.984 . S
N489 C482 1.356 . S
N489 H492 0.984 . S
N489 H493 0.985 . S
H490 N485 0.984 . S
H491 N485 0.985 . S
H492 N489 0.984 . S
H493 N489 0.985 . S
H494 N488 0.984 . S
H495 N488 0.984 . S
H496 N484 0.984 . S
H497 N484 0.985 . S
C498 C499 1.363 . S
C498 C504 1.379 . S
C498 N506 1.356 . S
C499 C498 1.363 . S
C499 C505 1.363 . S
C500 C501 1.363 . S
C500 C505 1.379 . S
C500 N507 1.356 . S
C501 C500 1.363 . S
C501 C504 1.363 . S
N502 C504 1.356 . S
N502 H514 0.984 . S
N502 H515 0.985 . S
N503 C505 1.356 . S
N503 H508 0.984 . S
N503 H509 0.985 . S
C504 C498 1.379 . S
C504 C501 1.363 . S
C504 N502 1.356 . S
C505 C499 1.363 . S
C505 C500 1.379 . S
C505 N503 1.356 . S
N506 C498 1.356 . S
N506 H512 0.984 . S
N506 H513 0.984 . S
N507 C500 1.356 . S
N507 H510 0.984 . S
N507 H511 0.985 . S
H508 N503 0.984 . S
H509 N503 0.985 . S
H510 N507 0.984 . S
H511 N507 0.985 . S
H512 N506 0.984 . S
H513 N506 0.984 . S
H514 N502 0.984 . S
H515 N502 0.985 . S
C516 C517 1.363 . S
C516 C522 1.379 . S
C516 N524 1.356 . S
C517 C516 1.363 . S
C517 C523 1.363 . S
C518 C519 1.363 . S
C518 C523 1.379 . S
C518 N525 1.356 . S
C519 C518 1.363 . S
C519 C522 1.363 . S
N520 C522 1.356 . S
N520 H532 0.984 . S
N520 H533 0.985 . S
N521 C523 1.356 . S
N521 H526 0.984 . S
N521 H527 0.985 . S
C522 C516 1.379 . S
C522 C519 1.363 . S
C522 N520 1.356 . S
C523 C517 1.363 . S
C523 C518 1.379 . S
C523 N521 1.356 . S
N524 C516 1.356 . S
N524 H530 0.984 . S
N524 H531 0.984 . S
N525 C518 1.356 . S
N525 H528 0.984 . S
N525 H529 0.985 . S
H526 N521 0.984 . S
H527 N521 0.985 . S
H528 N525 0.984 . S
H529 N525 0.985 . S
H530 N524 0.984 . S
H531 N524 0.984 . S
H532 N520 0.984 . S
H533 N520 0.985 . S
C534 C535 1.363 . S
C534 C540 1.379 . S
C534 N542 1.356 . S
C535 C534 1.363 . S
C535 C541 1.363 . S
C536 C537 1.363 . S
C536 C541 1.379 . S
C536 N543 1.356 . S
C537 C536 1.363 . S
C537 C540 1.363 . S
N538 C540 1.356 . S
N538 H550 0.984 . S
N538 H551 0.985 . S
N539 C541 1.356 . S
N539 H544 0.984 . S
N539 H545 0.985 . S
C540 C534 1.379 . S
C540 C537 1.363 . S
C540 N538 1.356 . S
C541 C535 1.363 . S
C541 C536 1.379 . S
C541 N539 1.356 . S
N542 C534 1.356 . S
N542 H548 0.984 . S
N542 H549 0.984 . S
N543 C536 1.356 . S
N543 H546 0.984 . S
N543 H547 0.985 . S
H544 N539 0.984 . S
H545 N539 0.985 . S
H546 N543 0.984 . S
H547 N543 0.985 . S
H548 N542 0.984 . S
H549 N542 0.984 . S
H550 N538 0.984 . S
H551 N538 0.985 . S
C552 C553 1.363 . S
C552 C558 1.379 . S
C552 N560 1.356 . S
C553 C552 1.363 . S
C553 C559 1.363 . S
C554 C555 1.363 . S
C554 C559 1.379 . S
C554 N561 1.356 . S
C555 C554 1.363 . S
C555 C558 1.363 . S
N556 C558 1.356 . S
N556 H568 0.984 . S
N556 H569 0.985 . S
N557 C559 1.356 . S
N557 H562 0.984 . S
N557 H563 0.985 . S
C558 C552 1.379 . S
C558 C555 1.363 . S
C558 N556 1.356 . S
C559 C553 1.363 . S
C559 C554 1.379 . S
C559 N557 1.356 . S
N560 C552 1.356 . S
N560 H566 0.984 . S
N560 H567 0.984 . S
N561 C554 1.356 . S
N561 H564 0.984 . S
N561 H565 0.985 . S
H562 N557 0.984 . S
H563 N557 0.985 . S
H564 N561 0.984 . S
H565 N561 0.985 . S
H566 N560 0.984 . S
H567 N560 0.984 . S
H568 N556 0.984 . S
H569 N556 0.985 . S
C570 C571 1.363 . S
C570 C576 1.379 . S
C570 N578 1.356 . S
C571 C570 1.363 . S
C571 C577 1.363 . S
C572 C573 1.363 . S
C572 C577 1.379 . S
C572 N579 1.356 . S
C573 C572 1.363 . S
C573 C576 1.363 . S
N574 C576 1.356 . S
N574 H586 0.984 1_655 S
N574 H587 0.985 1_655 S
N575 C577 1.356 . S
N575 H580 0.984 . S
N575 H581 0.985 . S
C576 C570 1.379 . S
C576 C573 1.363 . S
C576 N574 1.356 . S
C577 C571 1.363 . S
C577 C572 1.379 . S
C577 N575 1.356 . S
N578 C570 1.356 . S
N578 H584 0.984 . S
N578 H585 0.984 . S
N579 C572 1.356 . S
N579 H582 0.984 . S
N579 H583 0.985 . S
H580 N575 0.984 . S
H581 N575 0.985 . S
H582 N579 0.984 . S
H583 N579 0.985 . S
H584 N578 0.984 . S
H585 N578 0.984 . S
H586 N574 0.984 1_455 S
H587 N574 0.985 1_455 S
C588 C589 1.363 . S
C588 C594 1.379 . S
C588 N596 1.356 . S
C589 C588 1.363 . S
C589 C595 1.363 . S
C590 C591 1.363 . S
C590 C595 1.379 . S
C590 N597 1.356 . S
C591 C590 1.363 . S
C591 C594 1.363 . S
N592 C594 1.356 . S
N592 H604 0.984 . S
N592 H605 0.985 . S
N593 C595 1.356 . S
N593 H598 0.984 . S
N593 H599 0.985 . S
C594 C588 1.379 . S
C594 C591 1.363 . S
C594 N592 1.356 . S
C595 C589 1.363 . S
C595 C590 1.379 . S
C595 N593 1.356 . S
N596 C588 1.356 . S
N596 H602 0.984 . S
N596 H603 0.984 . S
N597 C590 1.356 . S
N597 H600 0.984 . S
N597 H601 0.985 . S
H598 N593 0.984 . S
H599 N593 0.985 . S
H600 N597 0.984 . S
H601 N597 0.985 . S
H602 N596 0.984 . S
H603 N596 0.984 . S
H604 N592 0.984 . S
H605 N592 0.985 . S
C606 C607 1.363 . S
C606 C612 1.379 . S
C606 N614 1.356 . S
C607 C606 1.363 . S
C607 C613 1.363 . S
C608 C609 1.363 . S
C608 C613 1.379 . S
C608 N615 1.356 . S
C609 C608 1.363 . S
C609 C612 1.363 . S
N610 C612 1.356 . S
N610 H622 0.984 . S
N610 H623 0.985 . S
N611 C613 1.356 . S
N611 H616 0.984 . S
N611 H617 0.985 . S
C612 C606 1.379 . S
C612 C609 1.363 . S
C612 N610 1.356 . S
C613 C607 1.363 . S
C613 C608 1.379 . S
C613 N611 1.356 . S
N614 C606 1.356 . S
N614 H620 0.984 . S
N614 H621 0.984 . S
N615 C608 1.356 . S
N615 H618 0.984 . S
N615 H619 0.985 . S
H616 N611 0.984 . S
H617 N611 0.985 . S
H618 N615 0.984 . S
H619 N615 0.985 . S
H620 N614 0.984 . S
H621 N614 0.984 . S
H622 N610 0.984 . S
H623 N610 0.985 . S
C624 C625 1.363 . S
C624 C630 1.379 . S
C624 N632 1.356 . S
C625 C624 1.363 . S
C625 C631 1.363 . S
C626 C627 1.363 . S
C626 C631 1.379 . S
C626 N633 1.356 . S
C627 C626 1.363 . S
C627 C630 1.363 . S
N628 C630 1.356 . S
N628 H640 0.984 . S
N628 H641 0.985 . S
N629 C631 1.356 . S
N629 H634 0.984 . S
N629 H635 0.985 . S
C630 C624 1.379 . S
C630 C627 1.363 . S
C630 N628 1.356 . S
C631 C625 1.363 . S
C631 C626 1.379 . S
C631 N629 1.356 . S
N632 C624 1.356 . S
N632 H638 0.984 . S
N632 H639 0.984 . S
N633 C626 1.356 . S
N633 H636 0.984 . S
N633 H637 0.985 . S
H634 N629 0.984 . S
H635 N629 0.985 . S
H636 N633 0.984 . S
H637 N633 0.985 . S
H638 N632 0.984 . S
H639 N632 0.984 . S
H640 N628 0.984 . S
H641 N628 0.985 . S
C642 C643 1.363 . S
C642 C648 1.379 . S
C642 N650 1.356 . S
C643 C642 1.363 . S
C643 C649 1.363 . S
C644 C645 1.363 . S
C644 C649 1.379 . S
C644 N651 1.356 . S
C645 C644 1.363 . S
C645 C648 1.363 . S
N646 C648 1.356 . S
N646 H658 0.984 . S
N646 H659 0.985 . S
N647 C649 1.356 . S
N647 H652 0.984 . S
N647 H653 0.985 . S
C648 C642 1.379 . S
C648 C645 1.363 . S
C648 N646 1.356 . S
C649 C643 1.363 . S
C649 C644 1.379 . S
C649 N647 1.356 . S
N650 C642 1.356 . S
N650 H656 0.984 . S
N650 H657 0.984 . S
N651 C644 1.356 . S
N651 H654 0.984 . S
N651 H655 0.985 . S
H652 N647 0.984 . S
H653 N647 0.985 . S
H654 N651 0.984 . S
H655 N651 0.985 . S
H656 N650 0.984 . S
H657 N650 0.984 . S
H658 N646 0.984 . S
H659 N646 0.985 . S
C660 C661 1.363 . S
C660 C666 1.379 . S
C660 N668 1.356 . S
C661 C660 1.363 . S
C661 C667 1.363 . S
C662 C663 1.363 . S
C662 C667 1.379 . S
C662 N669 1.356 . S
C663 C662 1.363 . S
C663 C666 1.363 . S
N664 C666 1.356 . S
N664 H676 0.984 . S
N664 H677 0.985 . S
N665 C667 1.356 . S
N665 H670 0.984 . S
N665 H671 0.985 . S
C666 C660 1.379 . S
C666 C663 1.363 . S
C666 N664 1.356 . S
C667 C661 1.363 . S
C667 C662 1.379 . S
C667 N665 1.356 . S
N668 C660 1.356 . S
N668 H674 0.984 . S
N668 H675 0.984 . S
N669 C662 1.356 . S
N669 H672 0.984 . S
N669 H673 0.985 . S
H670 N665 0.984 . S
H671 N665 0.985 . S
H672 N669 0.984 . S
H673 N669 0.985 . S
H674 N668 0.984 . S
H675 N668 0.984 . S
H676 N664 0.984 . S
H677 N664 0.985 . S
C678 C679 1.363 . S
C678 C684 1.379 . S
C678 N686 1.356 . S
C679 C678 1.363 . S
C679 C685 1.363 . S
C680 C681 1.363 . S
C680 C685 1.379 . S
C680 N687 1.356 . S
C681 C680 1.363 . S
C681 C684 1.363 . S
N682 C684 1.356 . S
N682 H694 0.984 . S
N682 H695 0.985 . S
N683 C685 1.356 . S
N683 H688 0.984 . S
N683 H689 0.985 . S
C684 C678 1.379 . S
C684 C681 1.363 . S
C684 N682 1.356 . S
C685 C679 1.363 . S
C685 C680 1.379 . S
C685 N683 1.356 . S
N686 C678 1.356 . S
N686 H692 0.984 . S
N686 H693 0.984 . S
N687 C680 1.356 . S
N687 H690 0.984 . S
N687 H691 0.985 . S
H688 N683 0.984 . S
H689 N683 0.985 . S
H690 N687 0.984 . S
H691 N687 0.985 . S
H692 N686 0.984 . S
H693 N686 0.984 . S
H694 N682 0.984 . S
H695 N682 0.985 . S
C265 C9 1.410 . S
C267 C110 1.468 . S
C283 C21 1.244 . S
C285 C159 1.267 . S
C303 C194 2.295 . S
C301 C30 2.369 . S
C319 C43 2.291 . S
C321 C233 2.397 1_655 S
C339 C154 2.144 . S
C337 C4 1.751 . S
C357 C113 1.374 . S
C355 C22 1.422 . S
C375 C243 1.684 1_556 S
C373 C34 1.772 . S
C393 C202 1.716 . S
C391 C48 1.739 . S
C409 C8 1.548 . S
C411 C230 1.627 . S
C429 C162 2.303 . S
C427 C35 2.410 . S
C445 C47 2.609 . S
C447 C123 2.607 . S
C463 C17 1.195 . S
C465 C199 1.209 . S
C483 C119 1.063 . S
C481 C60 1.047 . S
C499 C74 1.203 . S
C501 C150 1.182 . S
C517 C82 2.065 . S
C519 C203 2.097 . S
C535 C100 2.856 . S
C537 C242 2.781 . S
C553 C61 2.269 . S
C555 C163 2.450 . S
C573 C122 0.630 . S
C571 C73 0.607 . S
C591 C234 2.144 . S
C589 C87 2.236 . S
C609 C193 1.538 . S
C607 C95 1.530 . S
C625 C56 1.502 . S
C627 C239 1.481 . S
C645 C153 2.495 . S
C643 C86 2.573 . S
C663 C114 2.469 . S
C661 C99 2.478 . S
C679 C69 0.880 . S
C681 C190 0.986 . S
