# Generated by pormake.
# Topology zzz, (3,6)-cn, num edge types: 1
# Building blocks:
#     Node 0, Type 0, BuildingBlock: KAKCAD_clean_linker_0, # of connection points: 3
#     Node 1, Type 0, BuildingBlock: KAKCAD_clean_linker_0, # of connection points: 3
#     Node 2, Type 0, BuildingBlock: KAKCAD_clean_linker_0, # of connection points: 3
#     Node 3, Type 0, BuildingBlock: KAKCAD_clean_linker_0, # of connection points: 3
#     Node 4, Type 0, BuildingBlock: KAKCAD_clean_linker_0, # of connection points: 3
#     Node 5, Type 0, BuildingBlock: KAKCAD_clean_linker_0, # of connection points: 3
#     Node 6, Type 0, BuildingBlock: KAKCAD_clean_linker_0, # of connection points: 3
#     Node 7, Type 0, BuildingBlock: KAKCAD_clean_linker_0, # of connection points: 3
#     Node 8, Type 1, BuildingBlock: INOVEN_clean_sbu_0, # of connection points: 6
#     Node 9, Type 1, BuildingBlock: INOVEN_clean_sbu_0, # of connection points: 6
#     Node 10, Type 1, BuildingBlock: INOVEN_clean_sbu_0, # of connection points: 6
#     Node 11, Type 1, BuildingBlock: INOVEN_clean_sbu_0, # of connection points: 6
#     Edge 12, Type (0, 1), BuildingBlock: EZIPEK_clean_linker_0, # of connection points: 2
#     Edge 13, Type (0, 1), BuildingBlock: EZIPEK_clean_linker_0, # of connection points: 2
#     Edge 14, Type (0, 1), BuildingBlock: EZIPEK_clean_linker_0, # of connection points: 2
#     Edge 15, Type (0, 1), BuildingBlock: EZIPEK_clean_linker_0, # of connection points: 2
#     Edge 16, Type (0, 1), BuildingBlock: EZIPEK_clean_linker_0, # of connection points: 2
#     Edge 17, Type (0, 1), BuildingBlock: EZIPEK_clean_linker_0, # of connection points: 2
#     Edge 18, Type (0, 1), BuildingBlock: EZIPEK_clean_linker_0, # of connection points: 2
#     Edge 19, Type (0, 1), BuildingBlock: EZIPEK_clean_linker_0, # of connection points: 2
#     Edge 20, Type (0, 1), BuildingBlock: EZIPEK_clean_linker_0, # of connection points: 2
#     Edge 21, Type (0, 1), BuildingBlock: EZIPEK_clean_linker_0, # of connection points: 2
#     Edge 22, Type (0, 1), BuildingBlock: EZIPEK_clean_linker_0, # of connection points: 2
#     Edge 23, Type (0, 1), BuildingBlock: EZIPEK_clean_linker_0, # of connection points: 2
#     Edge 24, Type (0, 1), BuildingBlock: EZIPEK_clean_linker_0, # of connection points: 2
#     Edge 25, Type (0, 1), BuildingBlock: EZIPEK_clean_linker_0, # of connection points: 2
#     Edge 26, Type (0, 1), BuildingBlock: EZIPEK_clean_linker_0, # of connection points: 2
#     Edge 27, Type (0, 1), BuildingBlock: EZIPEK_clean_linker_0, # of connection points: 2
#     Edge 28, Type (0, 1), BuildingBlock: EZIPEK_clean_linker_0, # of connection points: 2
#     Edge 29, Type (0, 1), BuildingBlock: EZIPEK_clean_linker_0, # of connection points: 2
#     Edge 30, Type (0, 1), BuildingBlock: EZIPEK_clean_linker_0, # of connection points: 2
#     Edge 31, Type (0, 1), BuildingBlock: EZIPEK_clean_linker_0, # of connection points: 2
#     Edge 32, Type (0, 1), BuildingBlock: EZIPEK_clean_linker_0, # of connection points: 2
#     Edge 33, Type (0, 1), BuildingBlock: EZIPEK_clean_linker_0, # of connection points: 2
#     Edge 34, Type (0, 1), BuildingBlock: EZIPEK_clean_linker_0, # of connection points: 2
#     Edge 35, Type (0, 1), BuildingBlock: EZIPEK_clean_linker_0, # of connection points: 2
# Relax obj value: 0.480
# Max RMSD: 0.263
# Mean RMSD: 0.252
data_MOF--net-zzz--node1-INOVEN_clean_sbu_0--node2-KAKCAD_clean_linker_0--edge1-EZIPEK_clean_linker_0
_symmetry_space_group_name_H-M    P1
_symmetry_Int_Tables_number       1
_symmetry_cell_setting            triclinic
loop_
_symmetry_equiv_pos_as_xyz
'x, y, z'
_cell_length_a     46.630656
_cell_length_b     46.673311
_cell_length_c     14.516369
_cell_angle_alpha  89.997721
_cell_angle_beta   89.805925
_cell_angle_gamma 90.144115
loop_
_atom_site_label
_atom_site_type_symbol
_atom_site_fract_x
_atom_site_fract_y
_atom_site_fract_z
_atom_type_partial_charge
C0 C 0.81832 0.45277 0.98544 0.0
C1 C 0.8067 0.42572 0.96535 0.0
C2 C 0.80375 0.47169 0.04248 0.0
C3 C 0.77718 0.464 0.08042 0.0
C4 C 0.76428 0.43797 0.05431 0.0
C5 C 0.77902 0.41884 0.99669 0.0
C6 C 0.76486 0.48189 0.15439 0.0
C7 C 0.7369 0.49212 0.14917 0.0
C8 C 0.72582 0.51015 0.21791 0.0
C9 C 0.74307 0.51721 0.29547 0.0
C10 C 0.77133 0.50596 0.30286 0.0
C11 C 0.78181 0.48899 0.23025 0.0
C12 C 0.79121 0.5111 0.38283 0.0
C13 C 0.79637 0.53863 0.41897 0.0
C14 C 0.80883 0.48848 0.41347 0.0
C15 C 0.83258 0.49357 0.4697 0.0
C16 C 0.83905 0.5213 0.50088 0.0
C17 C 0.69628 0.52108 0.20218 0.0
C18 C 0.69234 0.54369 0.1394 0.0
C19 C 0.67265 0.50343 0.22339 0.0
C20 C 0.64632 0.50703 0.17795 0.0
C21 C 0.64322 0.52817 0.1096 0.0
C22 C 0.66608 0.54723 0.09372 0.0
C23 C 0.81982 0.5436 0.47843 0.0
H24 H 0.83947 0.45869 0.96073 0.0
H25 H 0.81386 0.49186 0.06042 0.0
H26 H 0.74366 0.43175 0.0826 0.0
H27 H 0.7695 0.39827 0.98048 0.0
H28 H 0.7239 0.48669 0.08977 0.0
H29 H 0.80363 0.48104 0.23241 0.0
H30 H 0.73454 0.53085 0.34926 0.0
H31 H 0.78334 0.55657 0.39734 0.0
H32 H 0.80518 0.4668 0.38949 0.0
H33 H 0.84654 0.47581 0.48649 0.0
H34 H 0.71038 0.55702 0.11948 0.0
H35 H 0.6753 0.48528 0.26909 0.0
H36 H 0.82388 0.56515 0.50279 0.0
H37 H 0.6643 0.56358 0.0411 0.0
H38 H 0.62908 0.49198 0.19112 0.0
C39 C 0.12454 0.81151 0.12092 0.0
C40 C 0.14456 0.82193 0.1846 0.0
C41 C 0.1068 0.78861 0.14424 0.0
C42 C 0.10858 0.77634 0.23223 0.0
C43 C 0.13186 0.78353 0.28924 0.0
C44 C 0.15034 0.80595 0.26431 0.0
C45 C 0.08205 0.76416 0.272 0.0
C46 C 0.06682 0.7429 0.2253 0.0
C47 C 0.03784 0.73721 0.24609 0.0
C48 C 0.02414 0.75348 0.31638 0.0
C49 C 0.03977 0.77468 0.36541 0.0
C50 C 0.06871 0.77917 0.34345 0.0
C51 C 0.02675 0.79545 0.4317 0.0
C52 C 1.00842 0.81715 0.39953 0.0
C53 C 0.0392 0.79877 0.5194 0.0
C54 C 0.0352 0.82397 0.57051 0.0
C55 C 0.01862 0.84648 0.53532 0.0
C56 C 0.02271 0.71519 0.18891 0.0
C57 C 0.0268 0.71504 0.09261 0.0
C58 C 1.00787 0.69207 0.22929 0.0
C59 C 0.99903 0.66859 0.17519 0.0
C60 C 1.00509 0.66775 0.07998 0.0
C61 C 0.01829 0.69162 0.03912 0.0
C62 C 1.00438 0.84243 0.45092 0.0
H63 H 0.12022 0.82321 0.05799 0.0
H64 H 0.08915 0.78338 0.09879 0.0
H65 H 0.13371 0.77415 0.35722 0.0
H66 H 0.16615 0.81343 0.31328 0.0
H67 H 0.07742 0.73155 0.16965 0.0
H68 H 0.08021 0.79661 0.37645 0.0
H69 H 1.00157 0.75024 0.33095 0.0
H70 H 0.99919 0.81563 0.33134 0.0
H71 H 0.0539 0.78274 0.54519 0.0
H72 H 0.04641 0.82656 0.63523 0.0
H73 H 0.03776 0.73268 0.05891 0.0
H74 H 1.00446 0.69144 0.3031 0.0
H75 H 0.99156 0.85954 0.42221 0.0
H76 H 0.0228 0.69176 0.96585 0.0
H77 H 0.9885 0.65057 0.20813 0.0
C78 C 0.71238 0.03401 0.97153 0.0
C79 C 0.72628 0.05637 0.92392 0.0
C80 C 0.72652 0.01887 0.03946 0.0
C81 C 0.75434 0.0268 0.06493 0.0
C82 C 0.76958 0.04652 1.00974 0.0
C83 C 0.75571 0.06076 0.93772 0.0
C84 C 0.76481 0.01885 0.15741 0.0
C85 C 0.79353 0.01283 0.17269 0.0
C86 C 0.804 1.0086 0.26208 0.0
C87 C 0.78495 0.01108 0.33883 0.0
C88 C 0.75544 0.01737 0.32364 0.0
C89 C 0.74602 0.02029 0.23242 0.0
C90 C 0.73306 0.022 0.39745 0.0
C91 C 0.72788 1.00201 0.46825 0.0
C92 C 0.71267 0.04398 0.38472 0.0
C93 C 0.68643 0.04379 0.43147 0.0
C94 C 0.68029 0.02296 0.49844 0.0
C95 C 0.83543 1.00333 0.26716 0.0
C96 C 0.84595 0.97818 0.22549 0.0
C97 C 0.85398 0.02706 0.2739 0.0
C98 C 0.88093 0.0268 0.23 0.0
C99 C 0.88958 1.00296 0.17731 0.0
C100 C 0.87259 0.97808 0.1803 0.0
C101 C 0.70201 1.00286 0.51947 0.0
H102 H 0.68984 0.02943 0.96081 0.0
H103 H 0.71469 1.00282 0.07802 0.0
H104 H 0.79136 0.05264 0.02657 0.0
H105 H 0.76735 0.07662 0.89792 0.0
H106 H 0.80807 0.01178 0.11424 0.0
H107 H 0.72363 0.02492 0.21962 0.0
H108 H 0.793 1.0087 0.40828 0.0
H109 H 0.74293 0.9848 0.48031 0.0
H110 H 0.71608 0.0603 0.33271 0.0
H111 H 0.67055 0.05973 0.41352 0.0
H112 H 0.83196 0.95979 0.2173 0.0
H113 H 0.8463 0.04695 0.30333 0.0
H114 H 0.69823 0.98677 0.57191 0.0
H115 H 0.87874 0.95937 0.14083 0.0
H116 H 0.89371 0.04621 0.22934 0.0
C117 C 0.49483 0.72091 0.56039 0.0
C118 C 0.50748 0.69693 0.51798 0.0
C119 C 0.49037 0.74634 0.51061 0.0
C120 C 0.49899 0.74863 0.41788 0.0
C121 C 0.51348 0.72534 0.37764 0.0
C122 C 0.51764 0.69977 0.42704 0.0
C123 C 0.48496 0.77016 0.35704 0.0
C124 C 0.49944 0.79353 0.31492 0.0
C125 C 0.4853 0.81024 0.24707 0.0
C126 C 0.45721 0.80285 0.2212 0.0
C127 C 0.44299 0.77973 0.26218 0.0
C128 C 0.45662 0.76419 0.33172 0.0
C129 C 0.4177 0.76671 0.21791 0.0
C130 C 0.39407 0.7578 0.27125 0.0
C131 C 0.42119 0.75572 0.12868 0.0
C132 C 0.40461 0.7326 0.0999 0.0
C133 C 0.38406 0.72065 0.15935 0.0
C134 C 0.49931 0.83432 0.19624 0.0
C135 C 0.50567 0.86034 0.24059 0.0
C136 C 0.50104 0.8332 0.09942 0.0
C137 C 0.50755 0.85776 0.04785 0.0
C138 C 0.51234 0.88412 0.09172 0.0
C139 C 0.51214 0.88504 0.18874 0.0
C140 C 0.37677 0.73516 0.24087 0.0
H141 H 0.4868 0.71933 0.63031 0.0
H142 H 0.47835 0.76353 0.54256 0.0
H143 H 0.51949 0.72607 0.30552 0.0
H144 H 0.52741 0.68165 0.39259 0.0
H145 H 0.52156 0.79805 0.33232 0.0
H146 H 0.44609 0.74537 0.36013 0.0
H147 H 0.44673 0.81441 0.16596 0.0
H148 H 0.39097 0.76615 0.34019 0.0
H149 H 0.43921 0.76229 0.08622 0.0
H150 H 0.41013 0.72202 0.03578 0.0
H151 H 0.50398 0.86197 0.31484 0.0
H152 H 0.49595 0.81352 0.06334 0.0
H153 H 0.36057 0.72646 0.2867 0.0
H154 H 0.51587 0.90513 0.22411 0.0
H155 H 0.50771 0.85644 0.97334 0.0
C156 C 0.21291 0.4414 0.35496 0.0
C157 C 0.19091 0.43401 0.29337 0.0
C158 C 0.24149 0.43842 0.32755 0.0
C159 C 0.24763 0.42866 0.23795 0.0
C160 C 0.22628 0.41241 0.19306 0.0
C161 C 0.19754 0.41654 0.2177 0.0
C162 C 0.26603 0.44787 0.18058 0.0
C163 C 0.29178 0.45924 0.21426 0.0
C164 C 0.30302 0.48507 0.17903 0.0
C165 C 0.28745 0.50025 0.11062 0.0
C166 C 0.26229 0.48801 0.07247 0.0
C167 C 0.25304 0.46134 0.10525 0.0
C168 C 0.24205 0.50291 1.00822 0.0
C169 C 0.22821 0.52839 0.03482 0.0
C170 C 0.23003 0.487 0.93532 0.0
C171 C 0.20318 0.494 0.8991 0.0
C172 C 0.18805 0.51811 0.93067 0.0
C173 C 0.3299 0.49613 0.22161 0.0
C174 C 0.32889 0.51792 0.28842 0.0
C175 C 0.35548 0.48054 0.21088 0.0
C176 C 0.37904 0.48562 0.26849 0.0
C177 C 0.37741 0.5061 0.33927 0.0
C178 C 0.35244 0.52285 0.34677 0.0
C179 C 0.20175 0.53619 0.99515 0.0
H180 H 0.20814 0.45399 0.4158 0.0
H181 H 0.25765 0.4495 0.36756 0.0
H182 H 0.23082 0.40282 0.12663 0.0
H183 H 0.18087 0.40977 0.17061 0.0
H184 H 0.30209 0.449 0.27244 0.0
H185 H 0.2328 0.45314 0.07993 0.0
H186 H 0.29484 0.52106 0.0874 0.0
H187 H 0.23653 0.54096 0.09149 0.0
H188 H 0.24004 0.46722 0.91311 0.0
H189 H 0.19358 0.47966 0.8492 0.0
H190 H 0.30926 0.52979 0.2996 0.0
H191 H 0.35665 0.46327 0.16114 0.0
H192 H 0.19098 0.55526 0.01976 0.0
H193 H 0.35062 0.53872 0.4009 0.0
H194 H 0.398 0.47243 0.26123 0.0
C195 C 0.92191 0.24962 0.52504 0.0
C196 C 0.92711 0.22077 0.54533 0.0
C197 C 0.93814 0.26343 0.45681 0.0
C198 C 0.96003 0.24863 0.40942 0.0
C199 C 0.96567 0.22004 0.43292 0.0
C200 C 0.94927 0.20626 0.49955 0.0
C201 C 0.97721 0.26271 0.33599 0.0
C202 C 0.986 0.29115 0.34558 0.0
C203 C 1.00285 0.30474 0.27807 0.0
C204 C 0.01202 0.28876 0.20005 0.0
C205 C 1.00304 0.25985 0.18961 0.0
C206 C 0.9855 0.24743 0.25732 0.0
C207 C 0.01105 0.24105 0.11065 0.0
C208 C 0.99059 0.23536 0.04192 0.0
C209 C 0.03433 0.22215 0.11981 0.0
C210 C 0.03619 0.1973 0.06529 0.0
C211 C 0.01474 0.19077 1.00069 0.0
C212 C 1.01002 0.3355 0.29485 0.0
C213 C 0.98764 0.35432 0.31902 0.0
C214 C 0.03845 0.34453 0.30918 0.0
C215 C 0.04414 0.37079 0.35357 0.0
C216 C 0.02148 0.38808 0.38617 0.0
C217 C 0.99326 0.38005 0.36485 0.0
C218 C 0.99246 0.21055 0.98736 0.0
H219 H 0.90502 0.26116 0.56039 0.0
H220 H 0.93319 0.28548 0.44005 0.0
H221 H 0.98285 0.20824 0.39998 0.0
H222 H 0.95379 0.18401 0.51518 0.0
H223 H 0.98015 0.30281 0.40747 0.0
H224 H 0.9783 0.22549 0.24833 0.0
H225 H 0.0254 0.29873 0.14795 0.0
H226 H 0.97187 0.24891 0.03557 0.0
H227 H 0.04983 0.22538 0.17426 0.0
H228 H 0.05344 0.18229 0.07749 0.0
H229 H 0.96549 0.34799 0.30888 0.0
H230 H 0.05612 0.33042 0.29241 0.0
H231 H 0.97543 0.2058 0.93929 0.0
H232 H 0.9754 0.39304 0.38783 0.0
H233 H 0.06615 0.37668 0.36798 0.0
C234 C 0.28003 0.89701 0.44319 0.0
C235 C 0.30875 0.90316 0.46361 0.0
C236 C 0.2652 0.91415 0.37994 0.0
C237 C 0.27901 0.93755 0.33695 0.0
C238 C 0.3078 0.94331 0.35797 0.0
C239 C 0.32246 0.92627 0.42019 0.0
C240 C 0.2635 0.9572 0.27427 0.0
C241 C 0.23612 0.96702 0.29723 0.0
C242 C 0.22241 0.98848 0.24533 0.0
C243 C 0.23752 1.00093 0.16979 0.0
C244 C 0.26519 0.99072 0.14544 0.0
C245 C 0.27739 0.96856 0.1969 0.0
C246 C 0.28374 1.00327 0.07184 0.0
C247 C 0.28708 0.98857 0.98782 0.0
C248 C 0.30467 0.02361 0.09652 0.0
C249 C 0.32919 0.02787 0.04155 0.0
C250 C 0.33339 0.01185 0.96059 0.0
C251 C 0.19328 0.99807 0.27752 0.0
C252 C 0.17399 0.9777 0.31448 0.0
C253 C 0.18605 0.02725 0.2852 0.0
C254 C 0.16141 0.03572 0.33471 0.0
C255 C 0.14389 0.01522 0.37929 0.0
C256 C 0.15004 0.98613 0.36588 0.0
C257 C 0.31151 0.99298 0.93239 0.0
H258 H 0.26917 0.87925 0.47648 0.0
H259 H 0.243 0.90921 0.36488 0.0
H260 H 0.31889 0.96154 0.32826 0.0
H261 H 0.34456 0.93148 0.43597 0.0
H262 H 0.22607 0.95892 0.35943 0.0
H263 H 0.29858 0.96085 0.17837 0.0
H264 H 0.22796 0.01818 0.13065 0.0
H265 H 0.27187 0.97207 0.96854 0.0
H266 H 0.30323 0.03451 0.16227 0.0
H267 H 0.34569 0.0425 0.06499 0.0
H268 H 0.17827 0.95499 0.30784 0.0
H269 H 0.20025 0.04358 0.25784 0.0
H270 H 0.3142 0.98034 0.8704 0.0
H271 H 0.13677 0.96984 0.39797 0.0
H272 H 0.15692 0.05834 0.34267 0.0
C273 C 0.48617 0.33551 0.99157 0.0
C274 C 0.51068 0.34743 0.94931 0.0
C275 C 0.48825 0.31042 0.04509 0.0
C276 C 0.51485 0.29676 0.05696 0.0
C277 C 0.53882 0.30765 1.00888 0.0
C278 C 0.53678 0.33269 0.95594 0.0
C279 C 0.51966 0.27735 0.13725 0.0
C280 C 0.50784 0.24943 0.14604 0.0
C281 C 0.51371 0.2329 0.22589 0.0
C282 C 0.5304 0.24477 0.29666 0.0
C283 C 0.54141 0.27253 0.2895 0.0
C284 C 0.5364 0.28832 0.20915 0.0
C285 C 0.55706 0.28592 0.36713 0.0
C286 C 0.55101 0.3144 0.39089 0.0
C287 C 0.57836 0.27101 0.41626 0.0
C288 C 0.59419 0.28495 0.48508 0.0
C289 C 0.58889 0.31388 0.5047 0.0
C290 C 0.50302 0.20323 0.2412 0.0
C291 C 0.47786 0.19895 0.29316 0.0
C292 C 0.52228 0.18027 0.23155 0.0
C293 C 0.5177 0.15445 0.27898 0.0
C294 C 0.49378 0.15111 0.33719 0.0
C295 C 0.47323 0.17308 0.34052 0.0
C296 C 0.56683 0.32823 0.45844 0.0
H297 H 0.46585 0.34663 0.98802 0.0
H298 H 0.46961 0.30306 0.0831 0.0
H299 H 0.5597 0.29797 0.01816 0.0
H300 H 0.55598 0.34152 0.92466 0.0
H301 H 0.4947 0.24062 0.09152 0.0
H302 H 0.54531 0.30974 0.20289 0.0
H303 H 0.53417 0.23247 0.35888 0.0
H304 H 0.53422 0.32621 0.35626 0.0
H305 H 0.58336 0.24897 0.3995 0.0
H306 H 0.611 0.27352 0.52082 0.0
H307 H 0.46314 0.21655 0.30421 0.0
H308 H 0.54224 0.18327 0.19434 0.0
H309 H 0.56225 0.35052 0.47331 0.0
H310 H 0.45486 0.17117 0.38599 0.0
H311 H 0.53402 0.13799 0.2763 0.0
Gd312 Gd 0.04075 0.01231 0.83688 0.0
Gd313 Gd 0.99409 0.02211 0.71533 0.0
C314 C 0.01832 0.95935 0.70913 0.0
C315 C 0.0771 0.99641 0.96126 0.0
C316 C 0.0976 0.9736 0.98315 0.0
C317 C 0.12388 0.98083 0.0243 0.0
C318 C 0.09037 0.94468 0.97072 0.0
C319 C 0.13352 0.93061 0.05188 0.0
C320 C 0.10821 0.92334 1.00524 0.0
C321 C 0.14194 0.95939 0.05797 0.0
C322 C 0.05877 0.03146 0.66723 0.0
C323 C 0.01633 0.07555 0.8411 0.0
C324 C 0.95714 0.04177 0.59982 0.0
C325 C 0.93729 0.06615 0.60652 0.0
C326 C 0.91772 0.06866 0.68034 0.0
C327 C 0.94102 0.08923 0.54607 0.0
C328 C 0.91002 0.11847 0.64183 0.0
C329 C 0.92754 0.11519 0.56372 0.0
C330 C 0.90414 0.09479 0.69803 0.0
C331 C 0.97589 1.00443 0.88541 0.0
O332 O 0.03136 0.96657 0.78677 0.0
O333 O 1.00525 0.97885 0.65945 0.0
O334 O 0.08381 0.01339 0.89317 0.0
O335 O 0.04982 0.98975 0.96338 0.0
O336 O 0.06855 0.03982 0.74609 0.0
O337 O 0.03959 0.01281 0.68262 0.0
O338 O 1.00289 0.06787 0.76487 0.0
O339 O 0.03005 0.05624 0.88999 0.0
O340 O 0.95193 0.01988 0.65346 0.0
O341 O 0.98434 0.04874 0.59757 0.0
O342 O 0.96583 0.99543 0.80776 0.0
O343 O 0.99551 0.02249 0.86915 0.0
H344 H 0.12981 1.00308 0.03411 0.0
H345 H 0.07037 0.9386 0.93831 0.0
H346 H 0.1015 0.90115 0.99995 0.0
H347 H 0.16139 0.96528 0.094 0.0
H348 H 0.91403 0.05097 0.72708 0.0
H349 H 0.95581 0.08774 0.48851 0.0
H350 H 0.93203 0.13327 0.51906 0.0
H351 H 0.89041 0.09695 0.75795 0.0
Gd352 Gd 0.51071 0.04156 0.7871 0.0
Gd353 Gd 0.50012 0.99712 0.65968 0.0
C354 C 0.56307 0.02053 0.6518 0.0
C355 C 0.53294 0.07417 0.91205 0.0
C356 C 0.56167 0.08733 0.91688 0.0
C357 C 0.57175 0.10514 0.84544 0.0
C358 C 0.58109 0.07735 0.98307 0.0
C359 C 0.62054 0.0964 0.89287 0.0
C360 C 0.61042 0.08191 0.97116 0.0
C361 C 0.60113 0.10928 0.83257 0.0
C362 C 0.49163 0.06283 0.62288 0.0
C363 C 0.44692 0.01906 0.7888 0.0
C364 C 0.48013 0.9607 0.54269 0.0
C365 C 0.45782 0.93858 0.55114 0.0
C366 C 0.4554 0.92151 0.63091 0.0
C367 C 0.43683 0.93667 0.4829 0.0
C368 C 0.40961 0.90336 0.57781 0.0
C369 C 0.4129 0.91927 0.49624 0.0
C370 C 0.43157 0.90362 0.6435 0.0
C371 C 0.51837 0.97678 0.82693 0.0
O372 O 0.55612 0.03157 0.733 0.0
O373 O 0.54292 1.00922 0.60003 0.0
O374 O 0.51569 0.08372 0.84842 0.0
O375 O 0.53283 0.0462 0.91707 0.0
O376 O 0.48304 0.07109 0.70356 0.0
O377 O 0.50991 0.043 0.63278 0.0
O378 O 0.45458 1.00598 0.71169 0.0
O379 O 0.46612 0.03272 0.83847 0.0
O380 O 0.50364 0.95643 0.58921 0.0
O381 O 0.47098 0.98711 0.5482 0.0
O382 O 0.52705 0.96783 0.74743 0.0
O383 O 0.50004 0.99617 0.81336 0.0
H384 H 0.55724 0.11409 0.79552 0.0
H385 H 0.57384 0.06384 0.03926 0.0
H386 H 0.62532 0.07188 0.01831 0.0
H387 H 0.60872 0.12068 0.77219 0.0
H388 H 0.4713 0.92279 0.685 0.0
H389 H 0.43829 0.94967 0.42118 0.0
H390 H 0.39628 0.91914 0.44426 0.0
H391 H 0.42955 0.89122 0.70627 0.0
Gd392 Gd 0.48543 0.52824 0.80294 0.0
Gd393 Gd 0.52873 0.51771 0.67108 0.0
C394 C 0.50841 0.5819 0.67951 0.0
C395 C 0.45238 0.54551 0.9353 0.0
C396 C 0.43203 0.5686 0.95672 0.0
C397 C 0.40499 0.56164 0.99364 0.0
C398 C 0.43986 0.59748 0.94672 0.0
C399 C 0.39561 0.61191 0.02178 0.0
C400 C 0.4218 0.61895 0.97946 0.0
C401 C 0.38669 0.58323 0.02525 0.0
C402 C 0.46215 0.51367 0.63644 0.0
C403 C 0.5072 0.46387 0.79728 0.0
C404 C 0.56213 0.49647 0.54753 0.0
C405 C 0.58078 0.47112 0.55399 0.0
C406 C 0.60027 0.46794 0.62741 0.0
C407 C 0.57565 0.44788 0.49531 0.0
C408 C 0.60565 0.41766 0.59081 0.0
C409 C 0.58795 0.42135 0.5137 0.0
C410 C 0.61268 0.44129 0.6457 0.0
C411 C 0.55151 0.53237 0.83759 0.0
O412 O 0.49735 0.57401 0.75975 0.0
O413 O 0.51886 0.56236 0.62326 0.0
O414 O 0.44434 0.52702 0.87324 0.0
O415 O 0.47954 0.55236 0.92874 0.0
O416 O 0.45336 0.50462 0.71577 0.0
O417 O 0.48341 0.53016 0.64832 0.0
O418 O 0.51966 0.4719 0.71953 0.0
O419 O 0.49479 0.48328 0.84969 0.0
O420 O 0.56928 0.51857 0.59781 0.0
O421 O 0.53461 0.49088 0.55084 0.0
O422 O 0.56035 0.54176 0.75873 0.0
O423 O 0.53059 0.51553 0.8248 0.0
H424 H 0.39851 0.53945 1.00136 0.0
H425 H 0.4604 0.60345 0.91721 0.0
H426 H 0.42889 0.64106 0.97588 0.0
H427 H 0.36649 0.57751 0.05753 0.0
H428 H 0.60479 0.48559 0.67351 0.0
H429 H 0.56074 0.44979 0.43855 0.0
H430 H 0.58255 0.40327 0.47015 0.0
H431 H 0.62651 0.43879 0.70493 0.0
Gd432 Gd 1.00334 0.50892 0.80963 0.0
Gd433 Gd 0.01857 0.54745 0.662 0.0
C434 C 0.95305 0.52967 0.6698 0.0
C435 C 0.97892 0.47905 0.93724 0.0
C436 C 0.95663 0.45667 0.93154 0.0
C437 C 0.95923 0.43326 0.87062 0.0
C438 C 0.93113 0.46026 0.98116 0.0
C439 C 0.91029 0.41886 0.9044 0.0
C440 C 0.90818 0.44161 0.96753 0.0
C441 C 0.93626 0.41427 0.85791 0.0
C442 C 0.02317 0.48049 0.6557 0.0
C443 C 0.06804 0.52667 0.80636 0.0
C444 C 0.04305 0.5655 0.51355 0.0
C445 C 0.06014 0.54599 0.45609 0.0
C446 C 0.06719 0.55169 0.36388 0.0
C447 C 0.06876 0.52007 0.49577 0.0
C448 C 0.09511 0.50753 0.35866 0.0
C449 C 0.08636 0.50129 0.44857 0.0
C450 C 0.08432 0.53219 0.31456 0.0
C451 C 0.99818 0.57625 0.81293 0.0
O452 O 0.95932 0.52127 0.7542 0.0
O453 O 0.9738 0.53787 0.61415 0.0
O454 O 1.00402 0.47273 0.90296 0.0
O455 O 0.97058 0.50488 0.91538 0.0
O456 O 0.02782 0.4732 0.74002 0.0
O457 O 1.00646 0.50168 0.65783 0.0
O458 O 0.06186 0.53353 0.72027 0.0
O459 O 0.04698 0.52034 0.86371 0.0
O460 O 0.05362 0.5703 0.59535 0.0
O461 O 0.01584 0.55934 0.5172 0.0
O462 O 0.99485 0.58419 0.72787 0.0
O463 O 0.01492 0.55496 0.81359 0.0
H464 H 0.97867 0.43003 0.83094 0.0
H465 H 0.92859 0.47812 0.02817 0.0
H466 H 0.88841 0.44534 1.00497 0.0
H467 H 0.93853 0.39653 0.81039 0.0
H468 H 0.05995 0.57118 0.33094 0.0
H469 H 0.06226 0.5145 0.56455 0.0
H470 H 0.09391 0.48224 0.48359 0.0
H471 H 0.09053 0.5371 0.24434 0.0
C472 C 0.12607 0.04019 0.52413 0.0
C473 C 0.12007 0.0237 0.44419 0.0
C474 C 0.07009 0.01768 0.49884 0.0
C475 C 0.07677 0.03344 0.58018 0.0
N476 N 0.10622 0.07186 0.63914 0.0
N477 N 0.08432 1.00356 0.34361 0.0
C478 C 0.1032 0.04859 0.58304 0.0
C479 C 0.09139 0.01441 0.42804 0.0
N480 N 0.15369 0.04662 0.54757 0.0
N481 N 0.04331 1.0064 0.48796 0.0
H482 H 0.0991 1.00189 0.28978 0.0
H483 H 0.06346 0.9986 0.32385 0.0
H484 H 0.02588 0.01306 0.52738 0.0
H485 H 0.03832 0.99084 0.43913 0.0
H486 H 0.15901 0.05622 0.61011 0.0
H487 H 0.17143 0.03972 0.50988 0.0
H488 H 0.12453 0.08474 0.63885 0.0
H489 H 0.08895 0.08069 0.675 0.0
C490 C 0.47807 0.10177 0.39308 0.0
C491 C 0.49342 0.1277 0.408 0.0
C492 C 0.51051 0.10913 0.55644 0.0
C493 C 0.49323 0.08421 0.54579 0.0
N494 N 0.45816 0.05792 0.45865 0.0
N495 N 0.52097 0.1579 0.50978 0.0
C496 C 0.47641 0.08077 0.46506 0.0
C497 C 0.50875 0.13183 0.4913 0.0
N498 N 0.46548 0.0971 0.30958 0.0
N499 N 0.52937 0.11079 0.62792 0.0
H500 H 0.52094 0.17497 0.46343 0.0
H501 H 0.52917 0.16349 0.57394 0.0
H502 H 0.53104 0.09485 0.67762 0.0
H503 H 0.5452 0.12648 0.63316 0.0
H504 H 0.4564 0.07762 0.29021 0.0
H505 H 0.46583 0.11229 0.25682 0.0
H506 H 0.4431 0.05549 0.40649 0.0
H507 H 0.45679 0.04217 0.50947 0.0
C508 C 0.40436 0.48515 0.47427 0.0
C509 C 0.40061 0.50793 0.41077 0.0
C510 C 0.43771 0.53561 0.4927 0.0
C511 C 0.44323 0.51174 0.552 0.0
N512 N 0.43619 0.46115 0.57991 0.0
N513 N 0.41809 0.55228 0.3473 0.0
C514 C 0.42786 0.48574 0.53668 0.0
C515 C 0.41871 0.53233 0.41616 0.0
N516 N 0.38476 0.46334 0.478 0.0
N517 N 0.44888 0.562 0.51171 0.0
H518 H 0.4044 0.55061 0.29084 0.0
H519 H 0.43294 0.56892 0.34177 0.0
H520 H 0.46211 0.56616 0.56718 0.0
H521 H 0.44271 0.58057 0.47732 0.0
H522 H 0.38463 0.44789 0.52983 0.0
H523 H 0.36694 0.46219 0.43492 0.0
H524 H 0.42776 0.44105 0.56414 0.0
H525 H 0.45368 0.46032 0.62412 0.0
C526 C 0.04002 0.4105 0.53427 0.0
C527 C 0.02655 0.41365 0.4473 0.0
C528 C 0.01498 0.46374 0.48712 0.0
C529 C 0.0282 0.46025 0.57517 0.0
N530 N 0.06562 0.43474 0.6556 0.0
N531 N 1.00913 0.44581 0.33086 0.0
C532 C 0.04463 0.43505 0.59026 0.0
C533 C 0.01637 0.44108 0.42077 0.0
N534 N 0.04706 0.38397 0.56671 0.0
N535 N 1.00123 0.48855 0.46557 0.0
H536 H 0.01085 0.43 0.28033 0.0
H537 H 1.00439 0.46596 0.30432 0.0
H538 H 1.00429 0.5074 0.50175 0.0
H539 H 0.98706 0.49044 0.4106 0.0
H540 H 0.05431 0.38062 0.63371 0.0
H541 H 0.04287 0.36508 0.5309 0.0
H542 H 0.07954 0.4175 0.66414 0.0
H543 H 0.0718 0.45308 0.69145 0.0
C544 C 0.91079 0.02398 0.03119 0.0
C545 C 0.91362 1.00529 0.10814 0.0
C546 C 0.95842 0.9864 0.04051 0.0
C547 C 0.95639 1.00644 0.96726 0.0
N548 N 0.93422 0.04891 0.90543 0.0
N549 N 0.94284 0.97239 0.19424 0.0
C550 C 0.93378 0.02676 0.96697 0.0
C551 C 0.93832 0.98759 0.11523 0.0
N552 N 0.88538 0.03768 0.01537 0.0
N553 N 0.97907 0.9657 0.03741 0.0
H554 H 0.92872 0.97303 0.25011 0.0
H555 H 0.96166 0.96119 0.20763 0.0
H556 H 0.99449 0.96476 0.98524 0.0
H557 H 0.9798 0.94848 0.0829 0.0
H558 H 0.88111 0.04894 0.955 0.0
H559 H 0.8674 0.03543 0.05759 0.0
H560 H 0.92013 0.06618 0.90904 0.0
H561 H 0.95032 0.05154 0.85617 0.0
C562 C 0.54211 0.91564 0.98593 0.0
C563 C 0.51615 0.9108 0.0351 0.0
C564 C 0.49763 0.95659 0.97653 0.0
C565 C 0.52053 0.95816 0.91194 0.0
N566 N 0.56778 0.94243 0.86762 0.0
N567 N 0.46775 0.92564 0.07021 0.0
C568 C 0.54383 0.93864 0.92081 0.0
C569 C 0.49357 0.93109 0.0289 0.0
N570 N 0.56528 0.8986 1.00341 0.0
N571 N 0.48075 0.97991 0.99236 0.0
H572 H 0.46375 0.90731 0.10932 0.0
H573 H 0.44959 0.93811 0.05879 0.0
H574 H 0.4859 1.00009 0.96662 0.0
H575 H 0.46474 0.98037 0.04256 0.0
H576 H 0.58567 0.90212 0.9764 0.0
H577 H 0.56464 0.88183 0.05091 0.0
H578 H 0.58386 0.92719 0.86003 0.0
H579 H 0.57157 0.96122 0.83055 0.0
C580 C 0.59659 0.5496 0.05156 0.0
C581 C 0.61785 0.5279 0.04587 0.0
C582 C 0.59182 0.50594 0.91611 0.0
C583 C 0.57235 0.52936 0.91528 0.0
N584 N 0.55725 0.57472 0.97725 0.0
N585 N 0.63808 0.48771 0.96386 0.0
C586 C 0.57498 0.55149 0.98198 0.0
C587 C 0.61594 0.50653 0.97625 0.0
N588 N 0.59677 0.56804 0.12466 0.0
N589 N 0.58733 0.48301 0.85931 0.0
H590 H 0.65626 0.48738 1.00544 0.0
H591 H 0.6397 0.47399 0.90752 0.0
H592 H 0.57082 0.48213 0.81131 0.0
H593 H 0.59852 0.46381 0.86477 0.0
H594 H 0.58042 0.58257 0.13842 0.0
H595 H 0.61233 0.56726 0.1761 0.0
H596 H 0.56002 0.59317 0.01651 0.0
H597 H 0.54055 0.57621 0.92983 0.0
C598 C 0.01361 0.6158 0.03563 0.0
C599 C 0.99851 0.64187 0.02204 0.0
C600 C 0.97584 0.62114 0.88372 0.0
C601 C 0.99298 0.59609 0.89378 0.0
N602 N 0.01401 0.56481 1.00692 0.0
N603 N 0.9596 0.66658 0.94834 0.0
C604 C 1.00756 0.59185 0.97825 0.0
C605 C 0.97784 0.64369 0.95042 0.0
N606 N 0.03476 0.61409 0.10026 0.0
N607 N 0.95709 0.62296 0.8119 0.0
H608 H 0.96012 0.68283 0.99765 0.0
H609 H 0.94262 0.66865 0.90262 0.0
H610 H 0.95103 0.60508 0.7734 0.0
H611 H 0.94702 0.64178 0.79157 0.0
H612 H 0.04834 0.59646 0.10569 0.0
H613 H 0.04044 0.63114 0.14286 0.0
H614 H 0.02267 0.56044 0.07151 0.0
H615 H 1.00682 0.54667 0.9721 0.0
C616 C 0.92436 0.19371 0.69019 0.0
C617 C 0.90975 0.20432 0.61238 0.0
C618 C 0.88078 0.16086 0.60664 0.0
C619 C 0.90073 0.14774 0.66593 0.0
N620 N 0.93644 0.15385 0.78532 0.0
N621 N 0.86783 0.20126 0.51496 0.0
C622 C 0.92001 0.16499 0.71698 0.0
C623 C 0.88539 0.18948 0.57913 0.0
N624 N 0.94469 0.21014 0.732 0.0
N625 N 0.85901 0.14512 0.56991 0.0
H626 H 0.87013 0.22219 0.49108 0.0
H627 H 0.87013 0.22219 0.49108 0.0
H628 H 0.85552 0.12382 0.5892 0.0
H629 H 0.8444 0.15372 0.52314 0.0
H630 H 0.95711 0.20256 0.78636 0.0
H631 H 0.94833 0.23139 0.71228 0.0
H632 H 0.93467 0.13265 0.80806 0.0
H633 H 0.93467 0.13265 0.80806 0.0
C634 C 0.33133 0.90123 0.61531 0.0
C635 C 0.32549 0.88687 0.53197 0.0
C636 C 0.37375 0.86738 0.52999 0.0
C637 C 0.38176 0.88878 0.59385 0.0
N638 N 0.36797 0.92145 0.7148 0.0
N639 N 0.3382 0.84876 0.4277 0.0
C640 C 0.36029 0.90345 0.64493 0.0
C641 C 0.34533 0.86675 0.49756 0.0
N642 N 0.30934 0.91444 0.66041 0.0
N643 N 0.39398 0.84963 0.49357 0.0
H644 H 0.31755 0.84774 0.40022 0.0
H645 H 0.31755 0.84774 0.40022 0.0
H646 H 0.41521 0.85005 0.51633 0.0
H647 H 0.38909 0.83429 0.44362 0.0
H648 H 0.31139 0.92468 0.72372 0.0
H649 H 0.28833 0.91306 0.63592 0.0
H650 H 0.35383 0.9351 0.74866 0.0
H651 H 0.38893 0.92277 0.73893 0.0
C652 C 0.59232 0.34207 0.6469 0.0
C653 C 0.6066 0.33093 0.56906 0.0
C654 C 0.63485 0.37486 0.55631 0.0
C655 C 0.61456 0.38821 0.61456 0.0
N656 N 0.57902 0.38293 0.73579 0.0
N657 N 0.64717 0.33235 0.46719 0.0
C658 C 0.59574 0.37126 0.66869 0.0
C659 C 0.63055 0.34565 0.53173 0.0
N660 N 0.57308 0.32548 0.69355 0.0
N661 N 0.6568 0.39087 0.521 0.0
H662 H 0.64425 0.31079 0.45068 0.0
H663 H 0.66384 0.34218 0.4314 0.0
H664 H 0.65956 0.41232 0.53968 0.0
H665 H 0.67287 0.38288 0.47841 0.0
H666 H 0.56128 0.33317 0.7495 0.0
H667 H 0.57001 0.30391 0.67685 0.0
H668 H 0.58007 0.40446 0.75506 0.0
H669 H 0.58007 0.40446 0.75506 0.0
C670 C 0.16786 0.48189 0.27605 0.0
C671 C 0.16464 0.45201 0.29172 0.0
C672 C 0.11308 0.45913 0.31166 0.0
C673 C 0.11775 0.4892 0.31753 0.0
N674 N 0.15154 0.52883 0.31898 0.0
N675 N 0.13399 0.41174 0.32579 0.0
C676 C 0.14556 0.50062 0.30202 0.0
C677 C 0.13707 0.44035 0.30864 0.0
N678 N 0.19224 0.49246 0.23606 0.0
N679 N 0.08569 0.44873 0.30961 0.0
H680 H 0.1512 0.39752 0.32365 0.0
H681 H 0.11483 0.40254 0.34821 0.0
H682 H 0.06791 0.46227 0.30992 0.0
H683 H 0.08075 0.42724 0.29852 0.0
H684 H 0.1945 0.5138 0.21603 0.0
H685 H 0.2088 0.47934 0.21337 0.0
H686 H 0.17234 0.53705 0.31857 0.0
H687 H 0.13647 0.54356 0.34234 0.0
C688 C 0.1385 0.87356 0.22726 0.0
C689 C 0.15345 0.85235 0.17546 0.0
C690 C 0.16574 0.88787 0.05782 0.0
C691 C 0.14823 0.90789 0.1046 0.0
N692 N 0.12694 0.92376 0.24685 0.0
N693 N 0.1884 0.84093 0.05969 0.0
C694 C 0.13816 0.90214 0.19463 0.0
C695 C 0.16988 0.86031 0.0973 0.0
N696 N 0.12206 0.86605 0.30174 0.0
N697 N 0.17683 0.89482 0.97355 0.0
H698 H 0.19134 0.82067 0.0887 0.0
H699 H 0.20232 0.84559 1.00552 0.0
H700 H 0.1748 0.91535 0.94579 0.0
H701 H 0.18727 0.88032 0.93062 0.0
H702 H 0.10734 0.87976 0.33276 0.0
H703 H 0.12166 0.84567 0.33047 0.0
H704 H 0.12186 0.92153 0.31641 0.0
H705 H 0.12534 0.94476 0.22313 0.0
C706 C 0.70052 0.10295 0.9059 0.0
C707 C 0.7081 0.07585 0.86829 0.0
C708 C 0.65926 0.06738 0.82013 0.0
C709 C 0.65082 0.09285 0.86599 0.0
N710 N 0.66357 0.13925 0.92487 0.0
N711 N 0.69863 0.04022 0.7543 0.0
C712 C 0.67165 0.11238 0.89839 0.0
C713 C 0.6888 0.06172 0.80945 0.0
N714 N 0.72004 0.11832 0.9554 0.0
N715 N 0.63934 0.04734 0.79549 0.0
H716 H 0.7205 0.0355 0.75035 0.0
H717 H 0.6856 0.029 0.70865 0.0
H718 H 0.61732 0.05062 0.80226 0.0
H719 H 0.64481 0.02683 0.77332 0.0
H720 H 0.71472 0.13602 0.99556 0.0
H721 H 0.7417 0.11316 0.95711 0.0
H722 H 0.67806 0.15531 0.94265 0.0
H723 H 0.64232 0.14613 0.92113 0.0
C724 C 0.38888 0.66837 0.19695 0.0
C725 C 0.37571 0.69034 0.14372 0.0
C726 C 0.36494 0.65579 0.02184 0.0
C727 C 0.38014 0.63477 0.07194 0.0
N728 N 0.39603 0.61749 0.21927 0.0
N729 N 0.34377 0.70339 0.02131 0.0
C730 C 0.38801 0.63982 0.16435 0.0
C731 C 0.36085 0.68331 0.06174 0.0
N732 N 0.40485 0.67489 0.27307 0.0
N733 N 0.35599 0.64977 0.9345 0.0
H734 H 0.34075 0.72362 0.05043 0.0
H735 H 0.33089 0.69926 0.96438 0.0
H736 H 0.35788 0.62928 0.90619 0.0
H737 H 0.3476 0.665 0.88977 0.0
H738 H 0.418 0.66011 0.30606 0.0
H739 H 0.40696 0.69539 0.30017 0.0
H740 H 0.39952 0.61957 0.28982 0.0
H741 H 0.39618 0.59635 0.19628 0.0
C742 C 0.8364 0.41188 0.83195 0.0
C743 C 0.82586 0.40463 0.92027 0.0
C744 C 0.87272 0.38642 0.96441 0.0
C745 C 0.88432 0.40118 0.8879 0.0
N746 N 0.87784 0.41493 0.73006 0.0
N747 N 0.82985 0.3738 0.05185 0.0
C748 C 0.86622 0.40901 0.81418 0.0
C749 C 0.8426 0.3873 0.97913 0.0
N750 N 0.81823 0.42427 0.77033 0.0
N751 N 0.89099 0.3742 0.02612 0.0
H752 H 0.80773 0.37451 0.06212 0.0
H753 H 0.84057 0.36038 0.09732 0.0
H754 H 0.91305 0.37351 0.01355 0.0
H755 H 0.88462 0.36502 0.0882 0.0
H756 H 0.82465 0.43289 0.70744 0.0
H757 H 0.79632 0.42606 0.78455 0.0
H758 H 0.86582 0.41997 0.67205 0.0
H759 H 0.89974 0.41266 0.71734 0.0
C760 C 0.02801 0.15671 0.87071 0.0
C761 C 0.01372 0.16172 0.95581 0.0
C762 C 1.00005 0.11065 0.96345 0.0
C763 C 0.01396 0.10562 0.87743 0.0
N764 N 0.03799 0.12434 0.74299 0.0
N765 N 0.98231 0.14484 0.07633 0.0
C766 C 0.02682 0.12889 0.82895 0.0
C767 C 0.99862 0.13904 1.00002 0.0
N768 N 0.04348 0.17844 0.83134 0.0
N769 N 0.98847 0.08811 0.01112 0.0
H770 H 0.98153 0.16497 0.10734 0.0
H771 H 0.96795 0.13037 0.10572 0.0
H772 H 0.98695 0.06748 0.98428 0.0
H773 H 0.98151 0.08934 0.07918 0.0
H774 H 0.05707 0.17584 0.775 0.0
H775 H 0.04403 0.19913 0.85852 0.0
H776 H 0.04488 0.14065 0.69932 0.0
H777 H 0.03892 0.10416 0.71237 0.0
C778 C 0.38098 0.98947 0.91513 0.0
C779 C 0.36171 0.01305 0.91033 0.0
C780 C 0.39826 0.0406 0.82421 0.0
C781 C 0.41682 0.01646 0.82464 0.0
N782 N 0.42404 0.96633 0.85721 0.0
N783 N 0.35006 0.05921 0.84692 0.0
C784 C 0.40749 0.99035 0.86546 0.0
C785 C 0.36985 0.03812 0.86103 0.0
N786 N 0.37471 0.96681 0.97155 0.0
N787 N 0.40794 0.06608 0.78945 0.0
H788 H 0.32915 0.05802 0.8724 0.0
H789 H 0.35348 0.07671 0.80378 0.0
H790 H 0.42782 0.06827 0.75712 0.0
H791 H 0.39704 0.08537 0.79708 0.0
H792 H 0.3892 0.95056 0.98665 0.0
H793 H 0.35588 0.96541 0.01022 0.0
H794 H 0.41711 0.94595 0.87627 0.0
H795 H 0.44404 0.96627 0.82489 0.0
C796 C 0.51545 0.40107 0.96543 0.0
C797 C 0.51005 0.37699 0.90826 0.0
C798 C 0.50343 0.40939 0.77564 0.0
C799 C 0.50998 0.43353 0.83234 0.0
N800 N 0.53076 0.45054 0.97458 0.0
N801 N 0.504 0.35758 0.75612 0.0
C802 C 0.51831 0.42884 0.92548 0.0
C803 C 0.50564 0.38099 0.81242 0.0
N804 N 0.51762 0.39752 0.05866 0.0
N805 N 0.49392 0.41346 0.68775 0.0
H806 H 0.50439 0.33662 0.78108 0.0
H807 H 0.50448 0.35882 0.68451 0.0
H808 H 0.49279 0.43347 0.65667 0.0
H809 H 0.48533 0.39717 0.64726 0.0
H810 H 0.51795 0.41458 0.10492 0.0
H811 H 0.51681 0.37753 0.09072 0.0
H812 H 0.54014 0.44761 0.03891 0.0
H813 H 0.53484 0.47075 0.94711 0.0
C814 C 0.1346 0.5264 0.96329 0.0
C815 C 0.15751 0.52299 0.89908 0.0
C816 C 0.12157 0.51811 0.77629 0.0
C817 C 0.09901 0.52586 0.83801 0.0
N818 N 0.08762 0.54678 0.9864 0.0
N819 N 0.17178 0.52437 0.73901 0.0
C820 C 0.10652 0.53279 0.9305 0.0
C821 C 0.15066 0.52174 0.8038 0.0
N822 N 0.13893 0.52218 0.05525 0.0
N823 N 0.11568 0.50535 0.69389 0.0
H824 H 0.19311 0.52848 0.75621 0.0
H825 H 0.16743 0.52578 0.66872 0.0
H826 H 0.09519 0.49873 0.67553 0.0
H827 H 0.13167 0.49762 0.65014 0.0
H828 H 0.12215 0.52211 0.10293 0.0
H829 H 0.15841 0.51538 0.08225 0.0
H830 H 0.09304 0.55385 0.05226 0.0
H831 H 0.06827 0.55488 0.9624 0.0
C832 C 0.99883 0.88122 0.65407 0.0
C833 C 0.01876 0.87519 0.58237 0.0
C834 C 0.04126 0.92257 0.60578 0.0
C835 C 0.01994 0.92945 0.67223 0.0
N836 N 0.97708 0.91667 0.75549 0.0
N837 N 0.05749 0.89075 0.48373 0.0
C838 C 0.99842 0.90906 0.69554 0.0
C839 C 0.03961 0.89607 0.55666 0.0
N840 N 0.98056 0.86012 0.68335 0.0
N841 N 0.06349 0.94123 0.59122 0.0
H842 H 0.05773 0.87132 0.44829 0.0
H843 H 0.07086 0.9061 0.45409 0.0
H844 H 0.0653 0.96072 0.62589 0.0
H845 H 0.08133 0.93665 0.55061 0.0
H846 H 0.96758 0.86182 0.74152 0.0
H847 H 0.9796 0.83997 0.6524 0.0
H848 H 0.95882 0.90436 0.76766 0.0
H849 H 0.97688 0.93626 0.79006 0.0
C850 C 0.63836 0.04723 0.58087 0.0
C851 C 0.65072 0.02197 0.54244 0.0
C852 C 0.6071 0.99532 0.5882 0.0
C853 C 0.59359 0.02112 0.61691 0.0
N854 N 0.59499 0.07271 0.6222 0.0
N855 N 0.6424 0.97372 0.48765 0.0
C856 C 0.60881 0.0474 0.60752 0.0
C857 C 0.63391 0.99643 0.54036 0.0
N858 N 0.65515 0.07077 0.59644 0.0
N859 N 0.59472 0.96951 0.60839 0.0
H860 H 0.66065 0.97413 0.44607 0.0
H861 H 0.62954 0.95576 0.47665 0.0
H862 H 0.57544 0.96765 0.64447 0.0
H863 H 0.60505 0.95002 0.59761 0.0
H864 H 0.64793 0.08893 0.63113 0.0
H865 H 0.67723 0.07093 0.5849 0.0
H866 H 0.60393 0.09261 0.60653 0.0
H867 H 0.57361 0.07369 0.64234 0.0
C868 C 0.48168 0.65343 0.58311 0.0
C869 C 0.50785 0.66824 0.56569 0.0
C870 C 0.53452 0.62685 0.62715 0.0
C871 C 0.50824 0.61274 0.6492 0.0
N872 N 0.45676 0.61598 0.66698 0.0
N873 N 0.55893 0.67129 0.58686 0.0
C874 C 0.48184 0.62718 0.63372 0.0
C875 C 0.53422 0.65553 0.59215 0.0
N876 N 0.45668 0.6635 0.5464 0.0
N877 N 0.55991 0.61283 0.63968 0.0
H878 H 0.55944 0.6923 0.56238 0.0
H879 H 0.57845 0.66458 0.61381 0.0
H880 H 0.56132 0.59304 0.6726 0.0
H881 H 0.57944 0.62017 0.61385 0.0
H882 H 0.43755 0.65193 0.54719 0.0
H883 H 0.45556 0.68212 0.50691 0.0
H884 H 0.4375 0.62724 0.66717 0.0
H885 H 0.45541 0.59646 0.70138 0.0
C886 C 0.88769 0.54612 0.51963 0.0
C887 C 0.8667 0.52644 0.55277 0.0
C888 C 0.90241 0.50792 0.66257 0.0
C889 C 0.92245 0.52951 0.6354 0.0
N890 N 0.9285 0.57544 0.56031 0.0
N891 N 0.85217 0.49483 0.67599 0.0
C892 C 0.91336 0.55057 0.57082 0.0
C893 C 0.87344 0.50945 0.63113 0.0
N894 N 0.88421 0.55953 0.43681 0.0
N895 N 0.91108 0.48481 0.71295 0.0
H896 H 0.8307 0.49615 0.65651 0.0
H897 H 0.85543 0.48413 0.73812 0.0
H898 H 0.93239 0.48053 0.72858 0.0
H899 H 0.89746 0.46791 0.72963 0.0
H900 H 0.90032 0.57192 0.40651 0.0
H901 H 0.86679 0.55581 0.39371 0.0
H902 H 0.92138 0.59227 0.51912 0.0
H903 H 0.94593 0.58079 0.60175 0.0
loop_
_geom_bond_atom_site_label_1
_geom_bond_atom_site_label_2
_geom_bond_distance
_geom_bond_site_symmetry_2
_ccdc_geom_bond_type
C0 C1 1.386 . S
C0 C2 1.397 . S
C0 H24 0.931 . S
C1 C0 1.386 . S
C1 C5 1.397 . S
C2 C0 1.397 . S
C2 C3 1.384 . S
C2 H25 0.930 . S
C3 C2 1.384 . S
C3 C4 1.377 . S
C3 C6 1.481 . S
C4 C3 1.377 . S
C4 C5 1.389 . S
C4 H26 0.929 . S
C5 C1 1.397 . S
C5 C4 1.389 . S
C5 H27 0.931 . S
C6 C3 1.481 . S
C6 C7 1.387 . S
C6 C11 1.390 . S
C7 C6 1.387 . S
C7 C8 1.401 . S
C7 H28 0.930 . S
C8 C7 1.401 . S
C8 C9 1.376 . S
C8 C17 1.511 . S
C9 C8 1.376 . S
C9 C10 1.392 . S
C9 H30 0.931 . S
C10 C9 1.392 . S
C10 C11 1.361 . S
C10 C12 1.500 . S
C11 C6 1.390 . S
C11 C10 1.361 . S
C11 H29 0.931 . S
C12 C10 1.500 . S
C12 C13 1.371 . S
C12 C14 1.365 . S
C13 C12 1.371 . S
C13 C23 1.386 . S
C13 H31 0.931 . S
C14 C12 1.365 . S
C14 C15 1.409 . S
C14 H32 0.929 . S
C15 C14 1.409 . S
C15 C16 1.380 . S
C15 H33 0.930 . S
C16 C15 1.380 . S
C16 C23 1.357 . S
C17 C8 1.511 . S
C17 C18 1.341 . S
C17 C19 1.371 . S
C18 C17 1.341 . S
C18 C22 1.394 . S
C18 H34 0.930 . S
C19 C17 1.371 . S
C19 C20 1.392 . S
C19 H35 0.931 . S
C20 C19 1.392 . S
C20 C21 1.331 . S
C20 H38 0.932 . S
C21 C20 1.331 . S
C21 C22 1.336 . S
C22 C18 1.394 . S
C22 C21 1.336 . S
C22 H37 0.929 . S
C23 C13 1.386 . S
C23 C16 1.357 . S
C23 H36 0.928 . S
H24 C0 0.931 . S
H25 C2 0.930 . S
H26 C4 0.929 . S
H27 C5 0.931 . S
H28 C7 0.930 . S
H29 C11 0.931 . S
H30 C9 0.931 . S
H31 C13 0.931 . S
H32 C14 0.929 . S
H33 C15 0.930 . S
H34 C18 0.930 . S
H35 C19 0.931 . S
H36 C23 0.928 . S
H37 C22 0.929 . S
H38 C20 0.932 . S
C39 C40 1.394 . S
C39 C41 1.397 . S
C39 H63 0.931 . S
C40 C39 1.394 . S
C40 C44 1.389 1_655 S
C41 C39 1.397 . S
C41 C42 1.389 . S
C41 H64 0.930 . S
C42 C41 1.389 . S
C42 C43 1.373 1_655 S
C42 C45 1.480 . S
C43 C42 1.373 1_455 S
C43 C44 1.389 . S
C43 H65 0.929 . S
C44 C40 1.389 1_455 S
C44 C43 1.389 . S
C44 H66 0.931 . S
C45 C42 1.480 . S
C45 C46 1.388 . S
C45 C50 1.390 . S
C46 C45 1.388 . S
C46 C47 1.402 . S
C46 H67 0.930 . S
C47 C46 1.402 . S
C47 C48 1.377 . S
C47 C56 1.513 . S
C48 C47 1.377 . S
C48 C49 1.392 . S
C48 H69 0.931 . S
C49 C48 1.392 . S
C49 C50 1.361 . S
C49 C51 1.499 1_655 S
C50 C45 1.390 . S
C50 C49 1.361 . S
C50 H68 0.931 . S
C51 C49 1.499 1_455 S
C51 C52 1.361 1_455 S
C51 C53 1.376 . S
C52 C51 1.361 1_655 S
C52 C62 1.386 . S
C52 H70 0.931 . S
C53 C51 1.376 . S
C53 C54 1.409 . S
C53 H71 0.929 . S
C54 C53 1.409 . S
C54 C55 1.380 . S
C54 H72 0.930 . S
C55 C54 1.380 . S
C55 C62 1.357 1_455 S
C56 C47 1.513 . S
C56 C57 1.341 . S
C56 C58 1.371 1_655 S
C57 C56 1.341 . S
C57 C61 1.394 . S
C57 H73 0.930 . S
C58 C56 1.371 1_455 S
C58 C59 1.392 . S
C58 H74 0.931 . S
C59 C58 1.392 . S
C59 C60 1.322 1_455 S
C59 H77 0.932 . S
C60 C59 1.322 1_655 S
C60 C61 1.345 . S
C61 C57 1.394 . S
C61 C60 1.345 . S
C61 H76 0.929 . S
C62 C52 1.386 . S
C62 C55 1.357 1_655 S
C62 H75 0.928 . S
H63 C39 0.931 . S
H64 C41 0.930 . S
H65 C43 0.929 . S
H66 C44 0.931 . S
H67 C46 0.930 . S
H68 C50 0.931 . S
H69 C48 0.931 . S
H70 C52 0.931 . S
H71 C53 0.929 . S
H72 C54 0.930 . S
H73 C57 0.930 . S
H74 C58 0.931 . S
H75 C62 0.928 . S
H76 C61 0.929 . S
H77 C59 0.932 . S
C78 C79 1.394 . S
C78 C80 1.397 . S
C78 H102 0.931 . S
C79 C78 1.394 . S
C79 C83 1.389 1_565 S
C80 C78 1.397 . S
C80 C81 1.389 . S
C80 H103 0.930 . S
C81 C80 1.389 . S
C81 C82 1.373 1_565 S
C81 C84 1.480 . S
C82 C81 1.373 1_545 S
C82 C83 1.389 . S
C82 H104 0.929 . S
C83 C79 1.389 1_545 S
C83 C82 1.389 . S
C83 H105 0.931 . S
C84 C81 1.480 . S
C84 C85 1.388 . S
C84 C89 1.390 . S
C85 C84 1.388 . S
C85 C86 1.402 . S
C85 H106 0.930 . S
C86 C85 1.402 . S
C86 C87 1.377 . S
C86 C95 1.513 . S
C87 C86 1.377 . S
C87 C88 1.392 . S
C87 H108 0.931 . S
C88 C87 1.392 . S
C88 C89 1.361 . S
C88 C90 1.499 1_565 S
C89 C84 1.390 . S
C89 C88 1.361 . S
C89 H107 0.931 . S
C90 C88 1.499 1_545 S
C90 C91 1.361 1_545 S
C90 C92 1.376 . S
C91 C90 1.361 1_565 S
C91 C101 1.386 . S
C91 H109 0.931 . S
C92 C90 1.376 . S
C92 C93 1.409 . S
C92 H110 0.929 . S
C93 C92 1.409 . S
C93 C94 1.380 . S
C93 H111 0.930 . S
C94 C93 1.380 . S
C94 C101 1.357 1_545 S
C95 C86 1.513 . S
C95 C96 1.341 . S
C95 C97 1.371 1_565 S
C96 C95 1.341 . S
C96 C100 1.394 . S
C96 H112 0.930 . S
C97 C95 1.371 1_545 S
C97 C98 1.392 . S
C97 H113 0.931 . S
C98 C97 1.392 . S
C98 C99 1.322 1_545 S
C98 H116 0.932 . S
C99 C98 1.322 1_565 S
C99 C100 1.345 . S
C100 C96 1.394 . S
C100 C99 1.345 . S
C100 H115 0.929 . S
C101 C91 1.386 . S
C101 C94 1.357 1_565 S
C101 H114 0.928 . S
H102 C78 0.931 . S
H103 C80 0.930 . S
H104 C82 0.929 . S
H105 C83 0.931 . S
H106 C85 0.930 . S
H107 C89 0.931 . S
H108 C87 0.931 . S
H109 C91 0.931 . S
H110 C92 0.929 . S
H111 C93 0.930 . S
H112 C96 0.930 . S
H113 C97 0.931 . S
H114 C101 0.928 . S
H115 C100 0.929 . S
H116 C98 0.932 . S
C117 C118 1.386 . S
C117 C119 1.397 . S
C117 H141 0.931 . S
C118 C117 1.386 . S
C118 C122 1.397 . S
C119 C117 1.397 . S
C119 C120 1.384 . S
C119 H142 0.930 . S
C120 C119 1.384 . S
C120 C121 1.377 . S
C120 C123 1.481 . S
C121 C120 1.377 . S
C121 C122 1.389 . S
C121 H143 0.929 . S
C122 C118 1.397 . S
C122 C121 1.389 . S
C122 H144 0.931 . S
C123 C120 1.481 . S
C123 C124 1.387 . S
C123 C128 1.390 . S
C124 C123 1.387 . S
C124 C125 1.401 . S
C124 H145 0.930 . S
C125 C124 1.401 . S
C125 C126 1.376 . S
C125 C134 1.511 . S
C126 C125 1.376 . S
C126 C127 1.392 . S
C126 H147 0.931 . S
C127 C126 1.392 . S
C127 C128 1.361 . S
C127 C129 1.500 . S
C128 C123 1.390 . S
C128 C127 1.361 . S
C128 H146 0.931 . S
C129 C127 1.500 . S
C129 C130 1.371 . S
C129 C131 1.365 . S
C130 C129 1.371 . S
C130 C140 1.386 . S
C130 H148 0.931 . S
C131 C129 1.365 . S
C131 C132 1.409 . S
C131 H149 0.929 . S
C132 C131 1.409 . S
C132 C133 1.380 . S
C132 H150 0.930 . S
C133 C132 1.380 . S
C133 C140 1.357 . S
C134 C125 1.511 . S
C134 C135 1.341 . S
C134 C136 1.371 . S
C135 C134 1.341 . S
C135 C139 1.394 . S
C135 H151 0.930 . S
C136 C134 1.371 . S
C136 C137 1.392 . S
C136 H152 0.931 . S
C137 C136 1.392 . S
C137 C138 1.331 . S
C137 H155 0.932 . S
C138 C137 1.331 . S
C138 C139 1.336 . S
C139 C135 1.394 . S
C139 C138 1.336 . S
C139 H154 0.929 . S
C140 C130 1.386 . S
C140 C133 1.357 . S
C140 H153 0.928 . S
H141 C117 0.931 . S
H142 C119 0.930 . S
H143 C121 0.929 . S
H144 C122 0.931 . S
H145 C124 0.930 . S
H146 C128 0.931 . S
H147 C126 0.931 . S
H148 C130 0.931 . S
H149 C131 0.929 . S
H150 C132 0.930 . S
H151 C135 0.930 . S
H152 C136 0.931 . S
H153 C140 0.928 . S
H154 C139 0.929 . S
H155 C137 0.932 . S
C156 C157 1.386 . S
C156 C158 1.397 . S
C156 H180 0.931 . S
C157 C156 1.386 . S
C157 C161 1.397 . S
C158 C156 1.397 . S
C158 C159 1.384 . S
C158 H181 0.930 . S
C159 C158 1.384 . S
C159 C160 1.377 . S
C159 C162 1.481 . S
C160 C159 1.377 . S
C160 C161 1.389 . S
C160 H182 0.929 . S
C161 C157 1.397 . S
C161 C160 1.389 . S
C161 H183 0.931 . S
C162 C159 1.481 . S
C162 C163 1.387 . S
C162 C167 1.390 . S
C163 C162 1.387 . S
C163 C164 1.401 . S
C163 H184 0.930 . S
C164 C163 1.401 . S
C164 C165 1.376 1_554 S
C164 C173 1.511 . S
C165 C164 1.376 1_556 S
C165 C166 1.392 . S
C165 H186 0.931 . S
C166 C165 1.392 . S
C166 C167 1.361 1_556 S
C166 C168 1.500 . S
C167 C162 1.390 . S
C167 C166 1.361 1_554 S
C167 H185 0.931 . S
C168 C166 1.500 . S
C168 C169 1.371 . S
C168 C170 1.365 . S
C169 C168 1.371 . S
C169 C179 1.386 . S
C169 H187 0.931 . S
C170 C168 1.365 . S
C170 C171 1.409 . S
C170 H188 0.929 . S
C171 C170 1.409 . S
C171 C172 1.380 . S
C171 H189 0.930 . S
C172 C171 1.380 . S
C172 C179 1.357 . S
C173 C164 1.511 . S
C173 C174 1.341 . S
C173 C175 1.371 . S
C174 C173 1.341 . S
C174 C178 1.394 . S
C174 H190 0.930 . S
C175 C173 1.371 . S
C175 C176 1.392 . S
C175 H191 0.931 1_554 S
C176 C175 1.392 . S
C176 C177 1.331 . S
C176 H194 0.924 1_554 S
C177 C176 1.331 . S
C177 C178 1.336 . S
C178 C174 1.394 . S
C178 C177 1.336 . S
C178 H193 0.929 . S
C179 C169 1.386 . S
C179 C172 1.357 . S
C179 H192 0.928 . S
H180 C156 0.931 . S
H181 C158 0.930 . S
H182 C160 0.929 . S
H183 C161 0.931 . S
H184 C163 0.930 . S
H185 C167 0.931 . S
H186 C165 0.931 . S
H187 C169 0.931 . S
H188 C170 0.929 . S
H189 C171 0.930 . S
H190 C174 0.930 . S
H191 C175 0.931 1_556 S
H192 C179 0.928 . S
H193 C178 0.929 . S
H194 C176 0.924 1_556 S
C195 C196 1.389 . S
C195 C197 1.397 . S
C195 H219 0.931 . S
C196 C195 1.389 . S
C196 C200 1.394 1_655 S
C197 C195 1.397 . S
C197 C198 1.383 . S
C197 H220 0.930 . S
C198 C197 1.383 . S
C198 C199 1.378 1_655 S
C198 C201 1.480 . S
C199 C198 1.378 1_455 S
C199 C200 1.389 . S
C199 H221 0.929 . S
C200 C196 1.394 1_455 S
C200 C199 1.389 . S
C200 H222 0.931 . S
C201 C198 1.480 . S
C201 C202 1.388 . S
C201 C206 1.390 . S
C202 C201 1.388 . S
C202 C203 1.402 . S
C202 H223 0.930 . S
C203 C202 1.402 . S
C203 C204 1.376 1_554 S
C203 C212 1.512 . S
C204 C203 1.376 1_556 S
C204 C205 1.392 1_655 S
C204 H225 0.933 . S
C205 C204 1.392 1_455 S
C205 C206 1.361 1_456 S
C205 C207 1.499 . S
C206 C201 1.390 . S
C206 C205 1.361 1_654 S
C206 H224 0.931 . S
C207 C205 1.499 . S
C207 C208 1.357 1_455 S
C207 C209 1.380 . S
C208 C207 1.357 1_655 S
C208 C218 1.386 . S
C208 H226 0.931 . S
C209 C207 1.380 . S
C209 C210 1.409 . S
C209 H227 0.929 . S
C210 C209 1.409 . S
C210 C211 1.384 . S
C210 H228 0.930 . S
C211 C210 1.384 . S
C211 C218 1.353 1_455 S
C212 C203 1.512 . S
C212 C213 1.341 . S
C212 C214 1.371 1_655 S
C213 C212 1.341 . S
C213 C217 1.394 . S
C213 H229 0.930 . S
C214 C212 1.371 1_455 S
C214 C215 1.392 . S
C214 H230 0.931 1_554 S
C215 C214 1.392 . S
C215 C216 1.325 1_455 S
C215 H233 0.927 1_554 S
C216 C215 1.325 1_655 S
C216 C217 1.342 . S
C217 C213 1.394 . S
C217 C216 1.342 . S
C217 H232 0.929 . S
C218 C208 1.386 . S
C218 C211 1.353 1_655 S
C218 H231 0.928 . S
H219 C195 0.931 . S
H220 C197 0.930 . S
H221 C199 0.929 . S
H222 C200 0.931 . S
H223 C202 0.930 . S
H224 C206 0.931 . S
H225 C204 0.933 . S
H226 C208 0.931 . S
H227 C209 0.929 . S
H228 C210 0.930 . S
H229 C213 0.930 . S
H230 C214 0.931 1_556 S
H231 C218 0.928 . S
H232 C217 0.929 . S
H233 C215 0.927 1_556 S
C234 C235 1.389 . S
C234 C236 1.397 . S
C234 H258 0.931 . S
C235 C234 1.389 . S
C235 C239 1.394 1_565 S
C236 C234 1.397 . S
C236 C237 1.383 . S
C236 H259 0.930 . S
C237 C236 1.383 . S
C237 C238 1.378 1_565 S
C237 C240 1.480 . S
C238 C237 1.378 1_545 S
C238 C239 1.389 . S
C238 H260 0.929 . S
C239 C235 1.394 1_545 S
C239 C238 1.389 . S
C239 H261 0.931 . S
C240 C237 1.480 . S
C240 C241 1.388 . S
C240 C245 1.390 . S
C241 C240 1.388 . S
C241 C242 1.402 . S
C241 H262 0.930 . S
C242 C241 1.402 . S
C242 C243 1.376 1_554 S
C242 C251 1.512 . S
C243 C242 1.376 1_556 S
C243 C244 1.392 1_565 S
C243 H264 0.934 . S
C244 C243 1.392 1_545 S
C244 C245 1.361 1_546 S
C244 C246 1.499 . S
C245 C240 1.390 . S
C245 C244 1.361 1_564 S
C245 H263 0.931 . S
C246 C244 1.499 . S
C246 C247 1.357 1_545 S
C246 C248 1.380 . S
C247 C246 1.357 1_565 S
C247 C257 1.386 . S
C247 H265 0.931 . S
C248 C246 1.380 . S
C248 C249 1.409 . S
C248 H266 0.929 . S
C249 C248 1.409 . S
C249 C250 1.384 . S
C249 H267 0.930 . S
C250 C249 1.384 . S
C250 C257 1.353 1_545 S
C251 C242 1.512 . S
C251 C252 1.341 . S
C251 C253 1.371 1_565 S
C252 C251 1.341 . S
C252 C256 1.394 . S
C252 H268 0.930 . S
C253 C251 1.371 1_545 S
C253 C254 1.392 . S
C253 H269 0.931 1_554 S
C254 C253 1.392 . S
C254 C255 1.325 1_545 S
C254 H272 0.927 1_554 S
C255 C254 1.325 1_565 S
C255 C256 1.342 . S
C256 C252 1.394 . S
C256 C255 1.342 . S
C256 H271 0.929 . S
C257 C247 1.386 . S
C257 C250 1.353 1_565 S
C257 H270 0.928 . S
H258 C234 0.931 . S
H259 C236 0.930 . S
H260 C238 0.929 . S
H261 C239 0.931 . S
H262 C241 0.930 . S
H263 C245 0.931 . S
H264 C243 0.934 . S
H265 C247 0.931 . S
H266 C248 0.929 . S
H267 C249 0.930 . S
H268 C252 0.930 . S
H269 C253 0.931 1_556 S
H270 C257 0.928 . S
H271 C256 0.929 . S
H272 C254 0.927 1_556 S
C273 C274 1.386 . S
C273 C275 1.397 . S
C273 H297 0.931 . S
C274 C273 1.386 . S
C274 C278 1.397 . S
C275 C273 1.397 . S
C275 C276 1.384 . S
C275 H298 0.930 . S
C276 C275 1.384 . S
C276 C277 1.377 . S
C276 C279 1.481 . S
C277 C276 1.377 . S
C277 C278 1.389 . S
C277 H299 0.929 . S
C278 C274 1.397 . S
C278 C277 1.389 . S
C278 H300 0.931 . S
C279 C276 1.481 . S
C279 C280 1.387 . S
C279 C284 1.390 1_556 S
C280 C279 1.387 . S
C280 C281 1.401 1_556 S
C280 H301 0.930 . S
C281 C280 1.401 1_554 S
C281 C282 1.376 . S
C281 C290 1.511 . S
C282 C281 1.376 . S
C282 C283 1.392 . S
C282 H303 0.931 . S
C283 C282 1.392 . S
C283 C284 1.361 . S
C283 C285 1.500 . S
C284 C279 1.390 1_554 S
C284 C283 1.361 . S
C284 H302 0.931 . S
C285 C283 1.500 . S
C285 C286 1.371 . S
C285 C287 1.365 . S
C286 C285 1.371 . S
C286 C296 1.386 . S
C286 H304 0.931 . S
C287 C285 1.365 . S
C287 C288 1.409 . S
C287 H305 0.929 . S
C288 C287 1.409 . S
C288 C289 1.380 . S
C288 H306 0.930 . S
C289 C288 1.380 . S
C289 C296 1.357 . S
C290 C281 1.511 . S
C290 C291 1.341 . S
C290 C292 1.371 . S
C291 C290 1.341 . S
C291 C295 1.394 . S
C291 H307 0.930 1_554 S
C292 C290 1.371 . S
C292 C293 1.392 . S
C292 H308 0.931 . S
C293 C292 1.392 . S
C293 C294 1.331 . S
C293 H311 0.932 . S
C294 C293 1.331 . S
C294 C295 1.336 . S
C295 C291 1.394 . S
C295 C294 1.336 . S
C295 H310 0.929 1_554 S
C296 C286 1.386 . S
C296 C289 1.357 . S
C296 H309 0.928 . S
H297 C273 0.931 . S
H298 C275 0.930 . S
H299 C277 0.929 . S
H300 C278 0.931 . S
H301 C280 0.930 . S
H302 C284 0.931 . S
H303 C282 0.931 . S
H304 C286 0.931 . S
H305 C287 0.929 . S
H306 C288 0.930 . S
H307 C291 0.930 1_556 S
H308 C292 0.931 . S
H309 C296 0.928 . S
H310 C295 0.929 1_556 S
H311 C293 0.932 . S
Gd312 C315 2.818 . S
Gd312 O332 2.377 . S
Gd312 O334 2.448 . S
Gd312 O335 2.506 . S
Gd312 O336 2.435 . S
Gd312 O337 2.717 1_565 S
Gd312 O339 2.395 1_565 S
Gd312 O343 2.327 1_455 S
Gd313 C324 2.818 . S
Gd313 O333 2.395 1_545 S
Gd313 O337 2.327 1_655 S
Gd313 O338 2.377 . S
Gd313 O340 2.448 . S
Gd313 O341 2.506 . S
Gd313 O342 2.435 . S
Gd313 O343 2.717 1_545 S
C314 O332 1.240 1_655 S
C314 O333 1.240 . S
C315 Gd312 2.818 . S
C315 C316 1.510 . S
C315 O334 1.249 . S
C315 O335 1.252 . S
C316 C315 1.510 . S
C316 C317 1.404 . S
C316 C318 1.352 1_556 S
C317 C316 1.404 . S
C317 C321 1.389 1_556 S
C317 H344 0.930 . S
C318 C316 1.352 1_554 S
C318 C320 1.374 . S
C318 H345 0.931 1_454 S
C319 C320 1.359 . S
C319 C321 1.364 . S
C320 C318 1.374 . S
C320 C319 1.359 . S
C320 H346 0.960 . S
C321 C317 1.389 1_554 S
C321 C319 1.364 . S
C321 H347 0.931 . S
C322 O336 1.256 . S
C322 O337 1.257 1_565 S
C323 O338 1.240 1_455 S
C323 O339 1.240 . S
C324 Gd313 2.818 . S
C324 C325 1.510 . S
C324 O340 1.249 . S
C324 O341 1.252 . S
C325 C324 1.510 . S
C325 C326 1.404 . S
C325 C327 1.352 . S
C326 C325 1.404 . S
C326 C330 1.389 . S
C326 H348 0.930 . S
C327 C325 1.352 . S
C327 C329 1.374 . S
C327 H349 0.931 1_655 S
C328 C329 1.359 . S
C328 C330 1.364 . S
C329 C327 1.374 . S
C329 C328 1.359 . S
C329 H350 0.953 . S
C330 C326 1.389 . S
C330 C328 1.364 . S
C330 H351 0.931 . S
C331 O342 1.256 . S
C331 O343 1.257 1_545 S
O332 Gd312 2.377 . S
O332 C314 1.240 1_455 S
O333 Gd313 2.395 1_565 S
O333 C314 1.240 . S
O334 Gd312 2.448 . S
O334 C315 1.249 . S
O335 Gd312 2.506 . S
O335 C315 1.252 . S
O336 Gd312 2.435 . S
O336 C322 1.256 . S
O337 Gd312 2.717 1_545 S
O337 Gd313 2.327 1_455 S
O337 C322 1.257 1_545 S
O338 Gd313 2.377 . S
O338 C323 1.240 1_655 S
O339 Gd312 2.395 1_545 S
O339 C323 1.240 . S
O340 Gd313 2.448 . S
O340 C324 1.249 . S
O341 Gd313 2.506 . S
O341 C324 1.252 . S
O342 Gd313 2.435 . S
O342 C331 1.256 . S
O343 Gd312 2.327 1_655 S
O343 Gd313 2.717 1_565 S
O343 C331 1.257 1_565 S
H344 C317 0.930 . S
H345 C318 0.931 1_656 S
H346 C320 0.960 . S
H347 C321 0.931 . S
H348 C326 0.930 . S
H349 C327 0.931 1_455 S
H350 C329 0.953 . S
H351 C330 0.931 . S
Gd352 C355 2.818 . S
Gd352 O372 2.377 . S
Gd352 O374 2.448 . S
Gd352 O375 2.506 . S
Gd352 O376 2.435 . S
Gd352 O377 2.717 . S
Gd352 O379 2.395 . S
Gd352 O383 2.327 1_545 S
Gd353 C364 2.818 . S
Gd353 O373 2.395 . S
Gd353 O377 2.327 1_565 S
Gd353 O378 2.377 . S
Gd353 O380 2.448 . S
Gd353 O381 2.506 . S
Gd353 O382 2.435 . S
Gd353 O383 2.717 . S
C354 O372 1.240 1_565 S
C354 O373 1.240 . S
C355 Gd352 2.818 . S
C355 C356 1.510 . S
C355 O374 1.249 . S
C355 O375 1.252 . S
C356 C355 1.510 . S
C356 C357 1.404 . S
C356 C358 1.352 1_556 S
C357 C356 1.404 . S
C357 C361 1.389 1_556 S
C357 H384 0.930 . S
C358 C356 1.352 1_554 S
C358 C360 1.374 . S
C358 H385 0.931 1_544 S
C359 C360 1.359 . S
C359 C361 1.364 . S
C360 C358 1.374 . S
C360 C359 1.359 . S
C360 H386 0.944 . S
C361 C357 1.389 1_554 S
C361 C359 1.364 . S
C361 H387 0.931 . S
C362 O376 1.256 . S
C362 O377 1.257 . S
C363 O378 1.240 1_545 S
C363 O379 1.240 . S
C364 Gd353 2.818 . S
C364 C365 1.510 . S
C364 O380 1.249 . S
C364 O381 1.252 . S
C365 C364 1.510 . S
C365 C366 1.404 . S
C365 C367 1.352 . S
C366 C365 1.404 . S
C366 C370 1.389 . S
C366 H388 0.930 . S
C367 C365 1.352 . S
C367 C369 1.374 . S
C367 H389 0.931 1_565 S
C368 C369 1.359 . S
C368 C370 1.364 . S
C369 C367 1.374 . S
C369 C368 1.359 . S
C369 H390 0.936 . S
C370 C366 1.389 . S
C370 C368 1.364 . S
C370 H391 0.931 . S
C371 O382 1.256 . S
C371 O383 1.257 . S
O372 Gd352 2.377 . S
O372 C354 1.240 1_545 S
O373 Gd353 2.395 . S
O373 C354 1.240 . S
O374 Gd352 2.448 . S
O374 C355 1.249 . S
O375 Gd352 2.506 . S
O375 C355 1.252 . S
O376 Gd352 2.435 . S
O376 C362 1.256 . S
O377 Gd352 2.717 . S
O377 Gd353 2.327 1_545 S
O377 C362 1.257 . S
O378 Gd353 2.377 . S
O378 C363 1.240 1_565 S
O379 Gd352 2.395 . S
O379 C363 1.240 . S
O380 Gd353 2.448 . S
O380 C364 1.249 . S
O381 Gd353 2.506 . S
O381 C364 1.252 . S
O382 Gd353 2.435 . S
O382 C371 1.256 . S
O383 Gd352 2.327 1_565 S
O383 Gd353 2.717 . S
O383 C371 1.257 . S
H384 C357 0.930 . S
H385 C358 0.931 1_566 S
H386 C360 0.944 . S
H387 C361 0.931 . S
H388 C366 0.930 . S
H389 C367 0.931 1_545 S
H390 C369 0.936 . S
H391 C370 0.931 . S
Gd392 C395 2.818 . S
Gd392 O412 2.377 . S
Gd392 O414 2.448 . S
Gd392 O415 2.506 . S
Gd392 O416 2.435 . S
Gd392 O417 2.717 . S
Gd392 O419 2.395 . S
Gd392 O423 2.327 . S
Gd393 C404 2.818 . S
Gd393 O413 2.395 . S
Gd393 O417 2.327 . S
Gd393 O418 2.377 . S
Gd393 O420 2.448 . S
Gd393 O421 2.506 . S
Gd393 O422 2.435 . S
Gd393 O423 2.717 . S
C394 O412 1.240 . S
C394 O413 1.240 . S
C395 Gd392 2.818 . S
C395 C396 1.510 . S
C395 O414 1.249 . S
C395 O415 1.252 . S
C396 C395 1.510 . S
C396 C397 1.404 . S
C396 C398 1.352 1_556 S
C397 C396 1.404 . S
C397 C401 1.389 1_556 S
C397 H424 0.930 . S
C398 C396 1.352 1_554 S
C398 C400 1.374 . S
C398 H425 0.931 1_554 S
C399 C400 1.359 . S
C399 C401 1.364 . S
C400 C398 1.374 . S
C400 C399 1.359 . S
C400 H426 0.931 . S
C401 C397 1.389 1_554 S
C401 C399 1.364 . S
C401 H427 0.931 . S
C402 O416 1.256 . S
C402 O417 1.257 . S
C403 O418 1.240 . S
C403 O419 1.240 . S
C404 Gd393 2.818 . S
C404 C405 1.510 . S
C404 O420 1.249 . S
C404 O421 1.252 . S
C405 C404 1.510 . S
C405 C406 1.404 . S
C405 C407 1.352 . S
C406 C405 1.404 . S
C406 C410 1.389 . S
C406 H428 0.930 . S
C407 C405 1.352 . S
C407 C409 1.374 . S
C407 H429 0.931 . S
C408 C409 1.359 . S
C408 C410 1.364 . S
C409 C407 1.374 . S
C409 C408 1.359 . S
C409 H430 0.931 . S
C410 C406 1.389 . S
C410 C408 1.364 . S
C410 H431 0.931 . S
C411 O422 1.256 . S
C411 O423 1.257 . S
O412 Gd392 2.377 . S
O412 C394 1.240 . S
O413 Gd393 2.395 . S
O413 C394 1.240 . S
O414 Gd392 2.448 . S
O414 C395 1.249 . S
O415 Gd392 2.506 . S
O415 C395 1.252 . S
O416 Gd392 2.435 . S
O416 C402 1.256 . S
O417 Gd392 2.717 . S
O417 Gd393 2.327 . S
O417 C402 1.257 . S
O418 Gd393 2.377 . S
O418 C403 1.240 . S
O419 Gd392 2.395 . S
O419 C403 1.240 . S
O420 Gd393 2.448 . S
O420 C404 1.249 . S
O421 Gd393 2.506 . S
O421 C404 1.252 . S
O422 Gd393 2.435 . S
O422 C411 1.256 . S
O423 Gd392 2.327 . S
O423 Gd393 2.717 . S
O423 C411 1.257 . S
H424 C397 0.930 . S
H425 C398 0.931 1_556 S
H426 C400 0.931 . S
H427 C401 0.931 . S
H428 C406 0.930 . S
H429 C407 0.931 . S
H430 C409 0.931 . S
H431 C410 0.931 . S
Gd432 C435 2.818 . S
Gd432 O452 2.377 . S
Gd432 O454 2.448 . S
Gd432 O455 2.506 . S
Gd432 O456 2.435 . S
Gd432 O457 2.717 1_655 S
Gd432 O459 2.395 1_655 S
Gd432 O463 2.327 . S
Gd433 C444 2.818 . S
Gd433 O453 2.395 1_455 S
Gd433 O457 2.327 . S
Gd433 O458 2.377 . S
Gd433 O460 2.448 . S
Gd433 O461 2.506 . S
Gd433 O462 2.435 . S
Gd433 O463 2.717 1_455 S
C434 O452 1.240 . S
C434 O453 1.240 . S
C435 Gd432 2.818 . S
C435 C436 1.510 . S
C435 O454 1.249 . S
C435 O455 1.252 . S
C436 C435 1.510 . S
C436 C437 1.404 . S
C436 C438 1.352 1_556 S
C437 C436 1.404 . S
C437 C441 1.389 1_556 S
C437 H464 0.930 . S
C438 C436 1.352 1_554 S
C438 C440 1.374 . S
C438 H465 0.931 1_554 S
C439 C440 1.359 . S
C439 C441 1.364 . S
C440 C438 1.374 . S
C440 C439 1.359 . S
C440 H466 0.931 . S
C441 C437 1.389 1_554 S
C441 C439 1.364 . S
C441 H467 0.931 . S
C442 O456 1.272 . S
C442 O457 1.249 1_655 S
C443 O458 1.240 . S
C443 O459 1.240 . S
C444 Gd433 2.818 . S
C444 C445 1.510 . S
C444 O460 1.249 . S
C444 O461 1.252 . S
C445 C444 1.510 . S
C445 C446 1.404 . S
C445 C447 1.352 . S
C446 C445 1.404 . S
C446 C450 1.389 . S
C446 H468 0.930 . S
C447 C445 1.352 . S
C447 C449 1.374 . S
C447 H469 0.931 . S
C448 C449 1.359 . S
C448 C450 1.364 . S
C449 C447 1.374 . S
C449 C448 1.359 . S
C449 H470 0.931 . S
C450 C446 1.389 . S
C450 C448 1.364 . S
C450 H471 0.931 . S
C451 O462 1.256 . S
C451 O463 1.257 1_455 S
O452 Gd432 2.377 . S
O452 C434 1.240 . S
O453 Gd433 2.395 1_655 S
O453 C434 1.240 . S
O454 Gd432 2.448 . S
O454 C435 1.249 . S
O455 Gd432 2.506 . S
O455 C435 1.252 . S
O456 Gd432 2.435 . S
O456 C442 1.272 . S
O457 Gd432 2.717 1_455 S
O457 Gd433 2.327 . S
O457 C442 1.249 1_455 S
O458 Gd433 2.377 . S
O458 C443 1.240 . S
O459 Gd432 2.395 1_455 S
O459 C443 1.240 . S
O460 Gd433 2.448 . S
O460 C444 1.249 . S
O461 Gd433 2.506 . S
O461 C444 1.252 . S
O462 Gd433 2.435 . S
O462 C451 1.256 . S
O463 Gd432 2.327 . S
O463 Gd433 2.717 1_655 S
O463 C451 1.257 1_655 S
H464 C437 0.930 . S
H465 C438 0.931 1_556 S
H466 C440 0.931 . S
H467 C441 0.931 . S
H468 C446 0.930 . S
H469 C447 0.931 . S
H470 C449 0.931 . S
H471 C450 0.931 . S
C472 C473 1.386 . S
C472 C478 1.379 . S
C472 N480 1.356 . S
C473 C472 1.386 . S
C473 C479 1.341 1_545 S
C474 C475 1.363 1_565 S
C474 C479 1.379 . S
C474 N481 1.356 . S
C475 C474 1.363 1_545 S
C475 C478 1.363 . S
N476 C478 1.356 . S
N476 H488 0.984 . S
N476 H489 0.985 . S
N477 C479 1.356 . S
N477 H482 0.984 . S
N477 H483 0.985 . S
C478 C472 1.379 . S
C478 C475 1.363 . S
C478 N476 1.356 . S
C479 C473 1.341 1_565 S
C479 C474 1.379 . S
C479 N477 1.356 . S
N480 C472 1.356 . S
N480 H486 0.984 . S
N480 H487 0.984 . S
N481 C474 1.356 . S
N481 H484 0.984 . S
N481 H485 0.985 . S
H482 N477 0.984 . S
H483 N477 0.985 . S
H484 N481 0.984 . S
H485 N481 0.985 . S
H486 N480 0.984 . S
H487 N480 0.984 . S
H488 N476 0.984 . S
H489 N476 0.985 . S
C490 C491 1.363 . S
C490 C496 1.379 . S
C490 N498 1.356 . S
C491 C490 1.363 . S
C491 C497 1.363 . S
C492 C493 1.363 . S
C492 C497 1.379 . S
C492 N499 1.356 . S
C493 C492 1.363 . S
C493 C496 1.363 . S
N494 C496 1.356 . S
N494 H506 0.984 . S
N494 H507 0.985 . S
N495 C497 1.356 . S
N495 H500 0.984 . S
N495 H501 0.985 . S
C496 C490 1.379 . S
C496 C493 1.363 . S
C496 N494 1.356 . S
C497 C491 1.363 . S
C497 C492 1.379 . S
C497 N495 1.356 . S
N498 C490 1.356 . S
N498 H504 0.984 . S
N498 H505 0.984 . S
N499 C492 1.356 . S
N499 H502 0.984 . S
N499 H503 0.985 . S
H500 N495 0.984 . S
H501 N495 0.985 . S
H502 N499 0.984 . S
H503 N499 0.985 . S
H504 N498 0.984 . S
H505 N498 0.984 . S
H506 N494 0.984 . S
H507 N494 0.985 . S
C508 C509 1.363 . S
C508 C514 1.379 . S
C508 N516 1.356 . S
C509 C508 1.363 . S
C509 C515 1.363 . S
C510 C511 1.363 . S
C510 C515 1.379 . S
C510 N517 1.356 . S
C511 C510 1.363 . S
C511 C514 1.363 . S
N512 C514 1.356 . S
N512 H524 0.984 . S
N512 H525 0.985 . S
N513 C515 1.356 . S
N513 H518 0.984 . S
N513 H519 0.985 . S
C514 C508 1.379 . S
C514 C511 1.363 . S
C514 N512 1.356 . S
C515 C509 1.363 . S
C515 C510 1.379 . S
C515 N513 1.356 . S
N516 C508 1.356 . S
N516 H522 0.984 . S
N516 H523 0.984 . S
N517 C510 1.356 . S
N517 H520 0.984 . S
N517 H521 0.985 . S
H518 N513 0.984 . S
H519 N513 0.985 . S
H520 N517 0.984 . S
H521 N517 0.985 . S
H522 N516 0.984 . S
H523 N516 0.984 . S
H524 N512 0.984 . S
H525 N512 0.985 . S
C526 C527 1.381 . S
C526 C532 1.379 . S
C526 N534 1.356 . S
C527 C526 1.381 . S
C527 C533 1.346 1_455 S
C528 C529 1.363 1_655 S
C528 C533 1.379 . S
C528 N535 1.356 . S
C529 C528 1.363 1_455 S
C529 C532 1.363 . S
N530 C532 1.356 . S
N530 H542 0.984 . S
N530 H543 0.985 . S
N531 C533 1.356 . S
N531 H536 0.984 . S
N531 H537 0.985 . S
C532 C526 1.379 . S
C532 C529 1.363 . S
C532 N530 1.356 . S
C533 C527 1.346 1_655 S
C533 C528 1.379 . S
C533 N531 1.356 . S
N534 C526 1.356 . S
N534 H540 0.984 . S
N534 H541 0.984 . S
N535 C528 1.356 . S
N535 H538 0.984 . S
N535 H539 0.985 . S
H536 N531 0.984 . S
H537 N531 0.985 . S
H538 N535 0.984 . S
H539 N535 0.985 . S
H540 N534 0.984 . S
H541 N534 0.984 . S
H542 N530 0.984 . S
H543 N530 0.985 . S
C544 C545 1.348 1_545 S
C544 C550 1.379 . S
C544 N552 1.356 . S
C545 C544 1.348 1_565 S
C545 C551 1.379 . S
C546 C547 1.363 . S
C546 C551 1.379 . S
C546 N553 1.356 1_554 S
C547 C546 1.363 . S
C547 C550 1.363 1_565 S
N548 C550 1.356 1_556 S
N548 H560 0.984 . S
N548 H561 0.985 . S
N549 C551 1.356 . S
N549 H554 0.984 . S
N549 H555 0.985 . S
C550 C544 1.379 . S
C550 C547 1.363 1_545 S
C550 N548 1.356 1_554 S
C551 C545 1.379 . S
C551 C546 1.379 . S
C551 N549 1.356 . S
N552 C544 1.356 . S
N552 H558 0.984 . S
N552 H559 0.984 . S
N553 C546 1.356 1_556 S
N553 H556 0.984 . S
N553 H557 0.985 1_556 S
H554 N549 0.984 . S
H555 N549 0.985 . S
H556 N553 0.984 . S
H557 N553 0.985 1_554 S
H558 N552 0.984 . S
H559 N552 0.984 . S
H560 N548 0.984 . S
H561 N548 0.985 . S
C562 C563 1.363 . S
C562 C568 1.379 . S
C562 N570 1.356 . S
C563 C562 1.363 . S
C563 C569 1.363 . S
C564 C565 1.363 . S
C564 C569 1.379 . S
C564 N571 1.356 1_554 S
C565 C564 1.363 . S
C565 C568 1.363 . S
N566 C568 1.356 1_556 S
N566 H578 0.984 . S
N566 H579 0.985 . S
N567 C569 1.356 . S
N567 H572 0.984 . S
N567 H573 0.985 . S
C568 C562 1.379 . S
C568 C565 1.363 . S
C568 N566 1.356 1_554 S
C569 C563 1.363 . S
C569 C564 1.379 . S
C569 N567 1.356 . S
N570 C562 1.356 . S
N570 H576 0.984 . S
N570 H577 0.984 . S
N571 C564 1.356 1_556 S
N571 H574 0.984 . S
N571 H575 0.985 1_556 S
H572 N567 0.984 . S
H573 N567 0.985 . S
H574 N571 0.984 . S
H575 N571 0.985 1_554 S
H576 N570 0.984 . S
H577 N570 0.984 . S
H578 N566 0.984 . S
H579 N566 0.985 . S
C580 C581 1.363 . S
C580 C586 1.379 . S
C580 N588 1.356 . S
C581 C580 1.363 . S
C581 C587 1.363 . S
C582 C583 1.363 . S
C582 C587 1.379 . S
C582 N589 1.356 1_554 S
C583 C582 1.363 . S
C583 C586 1.363 . S
N584 C586 1.356 1_556 S
N584 H596 0.984 1_556 S
N584 H597 0.985 . S
N585 C587 1.356 . S
N585 H590 0.984 . S
N585 H591 0.985 . S
C586 C580 1.379 . S
C586 C583 1.363 . S
C586 N584 1.356 1_554 S
C587 C581 1.363 . S
C587 C582 1.379 . S
C587 N585 1.356 . S
N588 C580 1.356 . S
N588 H594 0.984 . S
N588 H595 0.984 . S
N589 C582 1.356 1_556 S
N589 H592 0.984 . S
N589 H593 0.985 . S
H590 N585 0.984 . S
H591 N585 0.985 . S
H592 N589 0.984 . S
H593 N589 0.985 . S
H594 N588 0.984 . S
H595 N588 0.984 . S
H596 N584 0.984 1_554 S
H597 N584 0.985 . S
C598 C599 1.342 1_455 S
C598 C604 1.379 . S
C598 N606 1.356 . S
C599 C598 1.342 1_655 S
C599 C605 1.385 . S
C600 C601 1.363 . S
C600 C605 1.379 . S
C600 N607 1.356 1_554 S
C601 C600 1.363 . S
C601 C604 1.363 1_655 S
N602 C604 1.356 1_556 S
N602 H614 0.984 1_556 S
N602 H615 0.985 . S
N603 C605 1.356 . S
N603 H608 0.984 . S
N603 H609 0.985 . S
C604 C598 1.379 . S
C604 C601 1.363 1_455 S
C604 N602 1.356 1_554 S
C605 C599 1.385 . S
C605 C600 1.379 . S
C605 N603 1.356 . S
N606 C598 1.356 . S
N606 H612 0.984 . S
N606 H613 0.984 . S
N607 C600 1.356 1_556 S
N607 H610 0.984 . S
N607 H611 0.985 . S
H608 N603 0.984 . S
H609 N603 0.985 . S
H610 N607 0.984 . S
H611 N607 0.985 . S
H612 N606 0.984 . S
H613 N606 0.984 . S
H614 N602 0.984 1_554 S
H615 N602 0.985 . S
C616 C617 1.363 . S
C616 C622 1.379 . S
C616 N624 1.356 1_655 S
C617 C616 1.363 . S
C617 C623 1.363 . S
C618 C619 1.363 . S
C618 C623 1.379 . S
C618 N625 1.356 . S
C619 C618 1.363 . S
C619 C622 1.363 . S
N620 C622 1.356 . S
N620 H632 0.984 . S
N620 H633 0.985 . S
N621 C623 1.356 . S
N621 H626 0.984 1_655 S
N621 H627 0.985 . S
C622 C616 1.379 . S
C622 C619 1.363 . S
C622 N620 1.356 . S
C623 C617 1.363 . S
C623 C618 1.379 . S
C623 N621 1.356 . S
N624 C616 1.356 1_455 S
N624 H630 0.984 . S
N624 H631 0.984 . S
N625 C618 1.356 . S
N625 H628 0.984 . S
N625 H629 0.985 . S
H626 N621 0.984 1_455 S
H627 N621 0.985 . S
H628 N625 0.984 . S
H629 N625 0.985 . S
H630 N624 0.984 . S
H631 N624 0.984 . S
H632 N620 0.984 . S
H633 N620 0.985 . S
C634 C635 1.363 . S
C634 C640 1.379 . S
C634 N642 1.356 . S
C635 C634 1.363 . S
C635 C641 1.363 . S
C636 C637 1.363 . S
C636 C641 1.379 . S
C636 N643 1.356 . S
C637 C636 1.363 . S
C637 C640 1.363 . S
N638 C640 1.356 . S
N638 H650 0.984 . S
N638 H651 0.985 . S
N639 C641 1.356 1_545 S
N639 H644 0.984 . S
N639 H645 0.985 . S
C640 C634 1.379 . S
C640 C637 1.363 . S
C640 N638 1.356 . S
C641 C635 1.363 . S
C641 C636 1.379 . S
C641 N639 1.356 1_565 S
N642 C634 1.356 . S
N642 H648 0.984 . S
N642 H649 0.984 1_565 S
N643 C636 1.356 . S
N643 H646 0.984 . S
N643 H647 0.985 . S
H644 N639 0.984 . S
H645 N639 0.985 . S
H646 N643 0.984 . S
H647 N643 0.985 . S
H648 N642 0.984 . S
H649 N642 0.984 1_545 S
H650 N638 0.984 . S
H651 N638 0.985 . S
C652 C653 1.363 . S
C652 C658 1.379 . S
C652 N660 1.356 . S
C653 C652 1.363 . S
C653 C659 1.363 . S
C654 C655 1.363 . S
C654 C659 1.379 . S
C654 N661 1.356 . S
C655 C654 1.363 . S
C655 C658 1.363 . S
N656 C658 1.356 . S
N656 H668 0.984 . S
N656 H669 0.985 . S
N657 C659 1.356 . S
N657 H662 0.984 . S
N657 H663 0.985 . S
C658 C652 1.379 . S
C658 C655 1.363 . S
C658 N656 1.356 . S
C659 C653 1.363 . S
C659 C654 1.379 . S
C659 N657 1.356 . S
N660 C652 1.356 . S
N660 H666 0.984 . S
N660 H667 0.984 . S
N661 C654 1.356 . S
N661 H664 0.984 . S
N661 H665 0.985 . S
H662 N657 0.984 . S
H663 N657 0.985 . S
H664 N661 0.984 . S
H665 N661 0.985 . S
H666 N660 0.984 . S
H667 N660 0.984 . S
H668 N656 0.984 . S
H669 N656 0.985 . S
C670 C671 1.363 . S
C670 C676 1.379 . S
C670 N678 1.356 . S
C671 C670 1.363 . S
C671 C677 1.363 . S
C672 C673 1.363 . S
C672 C677 1.379 . S
C672 N679 1.356 . S
C673 C672 1.363 . S
C673 C676 1.363 . S
N674 C676 1.356 . S
N674 H686 0.984 . S
N674 H687 0.985 . S
N675 C677 1.356 . S
N675 H680 0.984 . S
N675 H681 0.985 . S
C676 C670 1.379 . S
C676 C673 1.363 . S
C676 N674 1.356 . S
C677 C671 1.363 . S
C677 C672 1.379 . S
C677 N675 1.356 . S
N678 C670 1.356 . S
N678 H684 0.984 . S
N678 H685 0.984 . S
N679 C672 1.356 . S
N679 H682 0.984 . S
N679 H683 0.985 . S
H680 N675 0.984 . S
H681 N675 0.985 . S
H682 N679 0.984 . S
H683 N679 0.985 . S
H684 N678 0.984 . S
H685 N678 0.984 . S
H686 N674 0.984 . S
H687 N674 0.985 . S
C688 C689 1.363 . S
C688 C694 1.379 . S
C688 N696 1.356 1_455 S
C689 C688 1.363 . S
C689 C695 1.363 . S
C690 C691 1.363 . S
C690 C695 1.379 . S
C690 N697 1.356 1_554 S
C691 C690 1.363 . S
C691 C694 1.363 . S
N692 C694 1.356 . S
N692 H704 0.984 . S
N692 H705 0.985 . S
N693 C695 1.356 . S
N693 H698 0.984 1_455 S
N693 H699 0.985 1_554 S
C694 C688 1.379 . S
C694 C691 1.363 . S
C694 N692 1.356 . S
C695 C689 1.363 . S
C695 C690 1.379 . S
C695 N693 1.356 . S
N696 C688 1.356 1_655 S
N696 H702 0.984 . S
N696 H703 0.984 . S
N697 C690 1.356 1_556 S
N697 H700 0.984 . S
N697 H701 0.985 . S
H698 N693 0.984 1_655 S
H699 N693 0.985 1_556 S
H700 N697 0.984 . S
H701 N697 0.985 . S
H702 N696 0.984 . S
H703 N696 0.984 . S
H704 N692 0.984 . S
H705 N692 0.985 . S
C706 C707 1.363 1_565 S
C706 C712 1.379 1_565 S
C706 N714 1.356 . S
C707 C706 1.363 1_545 S
C707 C713 1.363 . S
C708 C709 1.363 . S
C708 C713 1.379 . S
C708 N715 1.356 . S
C709 C708 1.363 . S
C709 C712 1.363 . S
N710 C712 1.356 . S
N710 H722 0.984 . S
N710 H723 0.985 . S
N711 C713 1.356 . S
N711 H716 0.984 . S
N711 H717 0.985 . S
C712 C706 1.379 1_545 S
C712 C709 1.363 . S
C712 N710 1.356 . S
C713 C707 1.363 . S
C713 C708 1.379 . S
C713 N711 1.356 . S
N714 C706 1.356 . S
N714 H720 0.984 . S
N714 H721 0.984 . S
N715 C708 1.356 . S
N715 H718 0.984 . S
N715 H719 0.985 . S
H716 N711 0.984 . S
H717 N711 0.985 . S
H718 N715 0.984 . S
H719 N715 0.985 . S
H720 N714 0.984 . S
H721 N714 0.984 . S
H722 N710 0.984 . S
H723 N710 0.985 . S
C724 C725 1.363 . S
C724 C730 1.379 . S
C724 N732 1.356 . S
C725 C724 1.363 . S
C725 C731 1.363 . S
C726 C727 1.363 . S
C726 C731 1.379 . S
C726 N733 1.356 . S
C727 C726 1.363 . S
C727 C730 1.363 . S
N728 C730 1.356 . S
N728 H740 0.984 . S
N728 H741 0.985 . S
N729 C731 1.356 . S
N729 H734 0.984 . S
N729 H735 0.985 . S
C730 C724 1.379 . S
C730 C727 1.363 . S
C730 N728 1.356 . S
C731 C725 1.363 . S
C731 C726 1.379 . S
C731 N729 1.356 . S
N732 C724 1.356 . S
N732 H738 0.984 . S
N732 H739 0.984 . S
N733 C726 1.356 . S
N733 H736 0.984 . S
N733 H737 0.985 1_554 S
H734 N729 0.984 . S
H735 N729 0.985 . S
H736 N733 0.984 . S
H737 N733 0.985 1_556 S
H738 N732 0.984 . S
H739 N732 0.984 . S
H740 N728 0.984 . S
H741 N728 0.985 . S
C742 C743 1.363 . S
C742 C748 1.379 . S
C742 N750 1.356 1_554 S
C743 C742 1.363 . S
C743 C749 1.363 . S
C744 C745 1.363 . S
C744 C749 1.379 . S
C744 N751 1.356 . S
C745 C744 1.363 . S
C745 C748 1.363 . S
N746 C748 1.356 1_556 S
N746 H758 0.984 . S
N746 H759 0.985 . S
N747 C749 1.356 . S
N747 H752 0.984 . S
N747 H753 0.985 . S
C748 C742 1.379 . S
C748 C745 1.363 . S
C748 N746 1.356 1_554 S
C749 C743 1.363 . S
C749 C744 1.379 . S
C749 N747 1.356 . S
N750 C742 1.356 1_556 S
N750 H756 0.984 . S
N750 H757 0.984 1_556 S
N751 C744 1.356 . S
N751 H754 0.984 . S
N751 H755 0.985 . S
H752 N747 0.984 . S
H753 N747 0.985 . S
H754 N751 0.984 . S
H755 N751 0.985 . S
H756 N750 0.984 . S
H757 N750 0.984 1_554 S
H758 N746 0.984 . S
H759 N746 0.985 . S
C760 C761 1.363 . S
C760 C766 1.379 . S
C760 N768 1.356 . S
C761 C760 1.363 . S
C761 C767 1.363 . S
C762 C763 1.363 . S
C762 C767 1.379 . S
C762 N769 1.356 . S
C763 C762 1.363 . S
C763 C766 1.363 . S
N764 C766 1.356 . S
N764 H776 0.984 . S
N764 H777 0.985 . S
N765 C767 1.356 1_655 S
N765 H770 0.984 . S
N765 H771 0.985 . S
C766 C760 1.379 . S
C766 C763 1.363 . S
C766 N764 1.356 . S
C767 C761 1.363 . S
C767 C762 1.379 . S
C767 N765 1.356 1_455 S
N768 C760 1.356 . S
N768 H774 0.984 . S
N768 H775 0.984 . S
N769 C762 1.356 . S
N769 H772 0.984 . S
N769 H773 0.985 1_455 S
H770 N765 0.984 . S
H771 N765 0.985 . S
H772 N769 0.984 . S
H773 N769 0.985 1_655 S
H774 N768 0.984 . S
H775 N768 0.984 . S
H776 N764 0.984 . S
H777 N764 0.985 . S
C778 C779 1.363 1_565 S
C778 C784 1.379 . S
C778 N786 1.356 . S
C779 C778 1.363 1_545 S
C779 C785 1.363 . S
C780 C781 1.363 . S
C780 C785 1.379 . S
C780 N787 1.356 . S
C781 C780 1.363 . S
C781 C784 1.363 1_545 S
N782 C784 1.356 . S
N782 H794 0.984 . S
N782 H795 0.985 . S
N783 C785 1.356 . S
N783 H788 0.984 . S
N783 H789 0.985 . S
C784 C778 1.379 . S
C784 C781 1.363 1_565 S
C784 N782 1.356 . S
C785 C779 1.363 . S
C785 C780 1.379 . S
C785 N783 1.356 . S
N786 C778 1.356 . S
N786 H792 0.984 . S
N786 H793 0.984 . S
N787 C780 1.356 . S
N787 H790 0.984 . S
N787 H791 0.985 . S
H788 N783 0.984 . S
H789 N783 0.985 . S
H790 N787 0.984 . S
H791 N787 0.985 . S
H792 N786 0.984 . S
H793 N786 0.984 . S
H794 N782 0.984 . S
H795 N782 0.985 . S
C796 C797 1.363 . S
C796 C802 1.379 . S
C796 N804 1.356 . S
C797 C796 1.363 . S
C797 C803 1.363 . S
C798 C799 1.363 . S
C798 C803 1.379 . S
C798 N805 1.356 . S
C799 C798 1.363 . S
C799 C802 1.363 . S
N800 C802 1.356 . S
N800 H812 0.984 . S
N800 H813 0.985 . S
N801 C803 1.356 . S
N801 H806 0.984 . S
N801 H807 0.985 . S
C802 C796 1.379 . S
C802 C799 1.363 . S
C802 N800 1.356 . S
C803 C797 1.363 . S
C803 C798 1.379 . S
C803 N801 1.356 . S
N804 C796 1.356 . S
N804 H810 0.984 . S
N804 H811 0.984 . S
N805 C798 1.356 . S
N805 H808 0.984 . S
N805 H809 0.985 . S
H806 N801 0.984 . S
H807 N801 0.985 . S
H808 N805 0.984 . S
H809 N805 0.985 . S
H810 N804 0.984 . S
H811 N804 0.984 . S
H812 N800 0.984 . S
H813 N800 0.985 . S
C814 C815 1.363 . S
C814 C820 1.379 . S
C814 N822 1.356 . S
C815 C814 1.363 . S
C815 C821 1.363 . S
C816 C817 1.363 . S
C816 C821 1.379 . S
C816 N823 1.356 . S
C817 C816 1.363 . S
C817 C820 1.363 . S
N818 C820 1.356 . S
N818 H830 0.984 . S
N818 H831 0.985 . S
N819 C821 1.356 . S
N819 H824 0.984 . S
N819 H825 0.985 . S
C820 C814 1.379 . S
C820 C817 1.363 . S
C820 N818 1.356 . S
C821 C815 1.363 . S
C821 C816 1.379 . S
C821 N819 1.356 . S
N822 C814 1.356 . S
N822 H828 0.984 . S
N822 H829 0.984 . S
N823 C816 1.356 . S
N823 H826 0.984 . S
N823 H827 0.985 . S
H824 N819 0.984 . S
H825 N819 0.985 . S
H826 N823 0.984 . S
H827 N823 0.985 . S
H828 N822 0.984 . S
H829 N822 0.984 . S
H830 N818 0.984 . S
H831 N818 0.985 . S
C832 C833 1.363 . S
C832 C838 1.379 . S
C832 N840 1.356 . S
C833 C832 1.363 . S
C833 C839 1.363 1_655 S
C834 C835 1.349 1_455 S
C834 C839 1.382 . S
C834 N841 1.364 . S
C835 C834 1.349 1_655 S
C835 C838 1.363 . S
N836 C838 1.356 . S
N836 H848 0.984 . S
N836 H849 0.985 . S
N837 C839 1.356 . S
N837 H842 0.984 . S
N837 H843 0.985 . S
C838 C832 1.379 . S
C838 C835 1.363 . S
C838 N836 1.356 . S
C839 C833 1.363 1_455 S
C839 C834 1.382 . S
C839 N837 1.356 . S
N840 C832 1.356 . S
N840 H846 0.984 . S
N840 H847 0.984 . S
N841 C834 1.364 . S
N841 H844 0.984 . S
N841 H845 0.985 . S
H842 N837 0.984 . S
H843 N837 0.985 . S
H844 N841 0.984 . S
H845 N841 0.985 . S
H846 N840 0.984 . S
H847 N840 0.984 . S
H848 N836 0.984 . S
H849 N836 0.985 . S
C850 C851 1.363 1_545 S
C850 C856 1.379 . S
C850 N858 1.356 . S
C851 C850 1.363 1_565 S
C851 C857 1.363 . S
C852 C853 1.363 . S
C852 C857 1.379 . S
C852 N859 1.356 . S
C853 C852 1.363 . S
C853 C856 1.363 1_565 S
N854 C856 1.356 . S
N854 H866 0.984 . S
N854 H867 0.985 . S
N855 C857 1.356 . S
N855 H860 0.984 . S
N855 H861 0.985 . S
C856 C850 1.379 . S
C856 C853 1.363 1_545 S
C856 N854 1.356 . S
C857 C851 1.363 . S
C857 C852 1.379 . S
C857 N855 1.356 . S
N858 C850 1.356 . S
N858 H864 0.984 . S
N858 H865 0.984 . S
N859 C852 1.356 . S
N859 H862 0.984 . S
N859 H863 0.985 . S
H860 N855 0.984 . S
H861 N855 0.985 . S
H862 N859 0.984 . S
H863 N859 0.985 . S
H864 N858 0.984 . S
H865 N858 0.984 . S
H866 N854 0.984 . S
H867 N854 0.985 . S
C868 C869 1.363 . S
C868 C874 1.379 . S
C868 N876 1.356 . S
C869 C868 1.363 . S
C869 C875 1.363 . S
C870 C871 1.363 . S
C870 C875 1.379 . S
C870 N877 1.356 . S
C871 C870 1.363 . S
C871 C874 1.363 . S
N872 C874 1.356 . S
N872 H884 0.984 . S
N872 H885 0.985 . S
N873 C875 1.356 . S
N873 H878 0.984 . S
N873 H879 0.985 . S
C874 C868 1.379 . S
C874 C871 1.363 . S
C874 N872 1.356 . S
C875 C869 1.363 . S
C875 C870 1.379 . S
C875 N873 1.356 . S
N876 C868 1.356 . S
N876 H882 0.984 . S
N876 H883 0.984 . S
N877 C870 1.356 . S
N877 H880 0.984 . S
N877 H881 0.985 . S
H878 N873 0.984 . S
H879 N873 0.985 . S
H880 N877 0.984 . S
H881 N877 0.985 . S
H882 N876 0.984 . S
H883 N876 0.984 . S
H884 N872 0.984 . S
H885 N872 0.985 . S
C886 C887 1.363 . S
C886 C892 1.379 . S
C886 N894 1.356 . S
C887 C886 1.363 . S
C887 C893 1.363 . S
C888 C889 1.363 . S
C888 C893 1.379 . S
C888 N895 1.356 . S
C889 C888 1.363 . S
C889 C892 1.363 . S
N890 C892 1.356 . S
N890 H902 0.984 . S
N890 H903 0.985 . S
N891 C893 1.356 . S
N891 H896 0.984 . S
N891 H897 0.985 . S
C892 C886 1.379 . S
C892 C889 1.363 . S
C892 N890 1.356 . S
C893 C887 1.363 . S
C893 C888 1.379 . S
C893 N891 1.356 . S
N894 C886 1.356 . S
N894 H900 0.984 . S
N894 H901 0.984 . S
N895 C888 1.356 . S
N895 H898 0.984 . S
N895 H899 0.985 . S
H896 N891 0.984 . S
H897 N891 0.985 . S
H898 N895 0.984 . S
H899 N895 0.985 . S
H900 N894 0.984 . S
H901 N894 0.984 . S
H902 N890 0.984 . S
H903 N890 0.985 . S
C473 C255 2.539 1_545 S
C475 C322 2.855 1_545 S
C493 C362 2.874 . S
C491 C294 2.519 . S
C511 C402 2.862 . S
C509 C177 2.549 . S
C529 C442 2.861 1_455 S
C527 C216 2.547 1_455 S
C547 C331 2.856 1_564 S
C545 C99 2.542 . S
C563 C138 2.523 . S
C565 C371 2.876 1_554 S
C581 C21 2.547 . S
C583 C411 2.862 1_554 S
C599 C60 2.546 . S
C601 C451 2.862 1_654 S
C619 C328 0.797 . S
C617 C196 0.804 . S
C637 C368 0.798 . S
C635 C235 0.807 . S
C655 C408 0.785 . S
C653 C289 0.792 . S
C671 C157 0.797 . S
C673 C448 0.785 . S
C689 C40 0.808 1_455 S
C691 C319 0.800 . S
C709 C359 0.798 . S
C707 C79 0.808 1_545 S
C727 C399 0.785 . S
C725 C133 0.793 . S
C743 C1 0.800 . S
C745 C439 0.794 . S
C761 C211 3.208 . S
C763 C323 3.736 . S
C779 C250 3.193 . S
C781 C363 3.726 . S
C799 C403 3.730 . S
C797 C274 3.203 . S
C817 C443 3.733 . S
C815 C172 3.195 . S
C833 C55 3.209 1_655 S
C835 C314 3.744 . S
C853 C354 3.726 . S
C851 C94 3.193 1_565 S
C871 C394 3.730 . S
C869 C118 3.206 . S
C887 C16 3.201 . S
C889 C434 3.737 . S
