# Generated by pormake.
# Topology tsx, (6,3)-cn, num edge types: 1
# Building blocks:
#     Node 0, Type 0, BuildingBlock: LEVNOQ01_clean_sbu_1, # of connection points: 6
#     Node 1, Type 0, BuildingBlock: LEVNOQ01_clean_sbu_1, # of connection points: 6
#     Node 2, Type 1, BuildingBlock: MIDCAF_clean_linker_0, # of connection points: 3
#     Node 3, Type 1, BuildingBlock: MIDCAF_clean_linker_0, # of connection points: 3
#     Node 4, Type 1, BuildingBlock: MIDCAF_clean_linker_0, # of connection points: 3
#     Node 5, Type 1, BuildingBlock: MIDCAF_clean_linker_0, # of connection points: 3
#     Edge 6, Type (0, 1), BuildingBlock: XIVTED_clean_linker_0, # of connection points: 2
#     Edge 7, Type (0, 1), BuildingBlock: XIVTED_clean_linker_0, # of connection points: 2
#     Edge 8, Type (0, 1), BuildingBlock: XIVTED_clean_linker_0, # of connection points: 2
#     Edge 9, Type (0, 1), BuildingBlock: XIVTED_clean_linker_0, # of connection points: 2
#     Edge 10, Type (0, 1), BuildingBlock: XIVTED_clean_linker_0, # of connection points: 2
#     Edge 11, Type (0, 1), BuildingBlock: XIVTED_clean_linker_0, # of connection points: 2
#     Edge 12, Type (0, 1), BuildingBlock: XIVTED_clean_linker_0, # of connection points: 2
#     Edge 13, Type (0, 1), BuildingBlock: XIVTED_clean_linker_0, # of connection points: 2
#     Edge 14, Type (0, 1), BuildingBlock: XIVTED_clean_linker_0, # of connection points: 2
#     Edge 15, Type (0, 1), BuildingBlock: XIVTED_clean_linker_0, # of connection points: 2
#     Edge 16, Type (0, 1), BuildingBlock: XIVTED_clean_linker_0, # of connection points: 2
#     Edge 17, Type (0, 1), BuildingBlock: XIVTED_clean_linker_0, # of connection points: 2
# Relax obj value: 0.132
# Max RMSD: 0.159
# Mean RMSD: 0.121
data_MOF--net-tsx--node1-LEVNOQ01_clean_sbu_1--node2-MIDCAF_clean_linker_0--edge1-XIVTED_clean_linker_0
_symmetry_space_group_name_H-M    P1
_symmetry_Int_Tables_number       1
_symmetry_cell_setting            triclinic
loop_
_symmetry_equiv_pos_as_xyz
'x, y, z'
_cell_length_a     22.349723
_cell_length_b     27.141846
_cell_length_c     45.056347
_cell_angle_alpha  97.599853
_cell_angle_beta   90.429362
_cell_angle_gamma 91.12999
loop_
_atom_site_label
_atom_site_type_symbol
_atom_site_fract_x
_atom_site_fract_y
_atom_site_fract_z
_atom_type_partial_charge
O0 O 0.09782 0.06714 0.08008 0.0
Mg1 Mg 0.16385 0.0602 0.04707 0.0
O2 O 0.03189 0.02148 0.05066 0.0
Mg3 Mg 0.05782 0.02586 0.00033 0.0
O4 O 0.1307 0.08623 0.01031 0.0
O5 O 0.20832 0.12256 0.03617 0.0
O6 O 0.08437 0.03027 0.9501 0.0
O7 O 0.99014 0.09067 0.00101 0.0
Mg8 Mg 0.94944 -0.00318 0.95567 0.0
O9 O 0.98651 0.96349 0.98897 0.0
O10 O 0.00921 -0.00072 0.9205 0.0
O11 O 0.90899 0.06302 0.97481 0.0
O12 O 0.90999 0.93007 0.96049 0.0
C13 C 0.17241 0.95375 0.01618 0.0
C14 C 0.04919 0.04221 0.07652 0.0
C15 C 0.17063 0.12172 0.0143 0.0
C16 C 0.06195 0.01691 0.92404 0.0
C17 C 0.93685 0.09681 0.99196 0.0
C18 C 0.94646 0.92836 0.98264 0.0
O19 O 0.19658 0.98765 0.03483 0.0
O20 O 0.1248 0.96158 0.00176 0.0
O21 O 0.6586 0.54789 0.5722 0.0
Mg22 Mg 0.69904 0.54427 0.5294 0.0
O23 O 0.5682 0.52508 0.55379 0.0
Mg24 Mg 0.56485 0.52804 0.50243 0.0
O25 O 0.64631 0.58067 0.50287 0.0
O26 O 0.73934 0.60604 0.51508 0.0
O27 O 0.56062 0.53058 0.45116 0.0
O28 O 0.51647 0.60629 0.51191 0.0
Mg29 Mg 0.45354 0.53534 0.49338 0.0
O30 O 0.48403 0.4681 0.50154 0.0
O31 O 0.47029 0.56073 0.45156 0.0
O32 O 0.43116 0.58699 0.53055 0.0
O33 O 0.3907 0.48147 0.48548 0.0
C34 C 0.67525 0.44239 0.49523 0.0
C35 C 0.60451 0.53501 0.57586 0.0
C36 C 0.68949 0.61286 0.50178 0.0
C37 C 0.51808 0.54923 0.43767 0.0
C38 C 0.4688 0.62005 0.52575 0.0
C39 C 0.42974 0.45214 0.49431 0.0
O40 O 0.71528 0.47296 0.50678 0.0
O41 O 0.6206 0.45486 0.49326 0.0
C42 C 0.84326 0.07245 0.4496 0.0
C43 C 0.86688 0.11142 0.4702 0.0
C44 C 0.92562 0.10817 0.48106 0.0
C45 C 0.96178 0.0688 0.46961 0.0
H46 H 0.06334 0.91251 0.47849 0.0
H47 H 0.14115 0.86797 0.50123 0.0
H48 H 0.25858 0.88846 0.42767 0.0
H49 H 0.17925 0.92981 0.40419 0.0
H50 H 0.07743 0.9123 0.33637 0.0
H51 H 0.0753 0.91969 0.28253 0.0
H52 H 0.96235 0.04729 0.29997 0.0
H53 H 0.96444 0.04037 0.35288 0.0
H54 H 0.86185 0.00579 0.42031 0.0
H55 H 0.79833 0.07424 0.44066 0.0
H56 H 0.94461 0.13779 0.497 0.0
H57 H 0.00815 0.06889 0.47682 0.0
N58 N 0.02538 0.97586 0.44228 0.0
N59 N 0.06521 0.9488 0.39476 0.0
N60 N 0.97994 -0.00216 0.39904 0.0
C61 C 0.067 0.94983 0.42511 0.0
C62 C 0.02157 0.97287 0.38161 0.0
C63 C 0.98139 -0.00049 0.42919 0.0
C64 C 0.115 0.92422 0.43942 0.0
C65 C 0.10585 0.90734 0.46722 0.0
C66 C 0.15084 0.88213 0.48039 0.0
C67 C 0.2066 0.87417 0.46638 0.0
C68 C 0.21597 0.89245 0.43889 0.0
C69 C 0.17052 0.91655 0.42542 0.0
C70 C 0.02094 0.9756 0.34896 0.0
C71 C 0.05218 0.94184 0.32859 0.0
C72 C 0.05071 0.94586 0.29782 0.0
C73 C 0.01884 0.98421 0.2871 0.0
C74 C 0.9878 0.01767 0.30754 0.0
C75 C 0.98869 0.01338 0.33795 0.0
C76 C 0.93969 0.03231 0.44704 0.0
C77 C 0.87962 0.03348 0.43786 0.0
C78 C 0.81428 0.95306 0.55719 0.0
C79 C 0.82017 0.94229 0.52593 0.0
C80 C 0.86473 0.96793 0.51181 0.0
C81 C 0.90386 0.00172 0.52866 0.0
H82 H 0.03299 0.12951 0.526 0.0
H83 H 0.1132 0.17855 0.50645 0.0
H84 H 0.22033 0.16543 0.58525 0.0
H85 H 0.13991 0.11909 0.605 0.0
H86 H 0.04346 0.14463 0.66505 0.0
H87 H 0.06801 0.13885 0.71701 0.0
H88 H 0.96193 0.00322 0.71247 0.0
H89 H 0.9381 0.00844 0.65991 0.0
H90 H 0.84779 -0.00653 0.59803 0.0
H91 H 0.78146 0.93348 0.56906 0.0
H92 H 0.8704 0.96104 0.48778 0.0
H93 H 0.93915 0.01911 0.51722 0.0
N94 N 0.987 0.06878 0.56448 0.0
N95 N 0.02834 0.09942 0.61134 0.0
N96 N 0.94355 0.04715 0.60857 0.0
C97 C 0.0297 0.0964 0.58114 0.0
C98 C 0.98563 0.07532 0.6253 0.0
C99 C 0.94358 0.04403 0.57811 0.0
C100 C 0.07955 0.12141 0.56725 0.0
C101 C 0.07386 0.13707 0.53891 0.0
C102 C 0.12002 0.16492 0.52772 0.0
C103 C 0.17299 0.17693 0.54456 0.0
C104 C 0.17959 0.15852 0.57208 0.0
C105 C 0.1334 0.1316 0.58337 0.0
C106 C 0.98979 0.07642 0.65817 0.0
C107 C 0.02464 0.11384 0.67518 0.0
C108 C 0.03848 0.11074 0.70508 0.0
C109 C 0.0179 0.07009 0.71869 0.0
C110 C 0.97956 0.03443 0.70233 0.0
C111 C 0.9654 0.03766 0.67234 0.0
C112 C 0.89907 0.01127 0.55997 0.0
C113 C 0.85302 0.98718 0.57396 0.0
C114 C 0.36709 0.61118 0.94305 0.0
C115 C 0.37305 0.629 0.97367 0.0
C116 C 0.41869 0.61004 0.99038 0.0
C117 C 0.45854 0.57531 0.97643 0.0
H118 H 0.57666 0.45583 0.98885 0.0
H119 H 0.64665 0.4081 0.01504 0.0
H120 H 0.75367 0.38264 0.93531 0.0
H121 H 0.68409 0.43 0.90908 0.0
H122 H 0.61912 0.44206 0.84427 0.0
H123 H 0.62078 0.44302 0.78986 0.0
H124 H 0.45516 0.52252 0.79482 0.0
H125 H 0.45269 0.52143 0.84847 0.0
H126 H 0.40055 0.56432 0.90552 0.0
H127 H 0.33363 0.62573 0.92923 0.0
H128 H 0.42445 0.62279 0.01405 0.0
H129 H 0.49467 0.56297 0.98952 0.0
N130 N 0.53869 0.50165 0.94514 0.0
N131 N 0.57923 0.46524 0.89951 0.0
N132 N 0.49685 0.51701 0.89961 0.0
C133 C 0.5799 0.4719 0.93006 0.0
C134 C 0.53738 0.48763 0.88415 0.0
C135 C 0.49702 0.52441 0.92992 0.0
C136 C 0.62449 0.44635 0.94675 0.0
C137 C 0.61553 0.4406 0.97701 0.0
C138 C 0.6555 0.41325 0.99204 0.0
C139 C 0.70568 0.39188 0.97726 0.0
C140 C 0.71584 0.39931 0.94742 0.0
C141 C 0.67557 0.426 0.93229 0.0
C142 C 0.5364 0.48247 0.85092 0.0
C143 C 0.58265 0.45909 0.83368 0.0
C144 C 0.58354 0.45944 0.80257 0.0
C145 C 0.53845 0.48344 0.78834 0.0
C146 C 0.49089 0.50445 0.80534 0.0
C147 C 0.4897 0.5038 0.83616 0.0
C148 C 0.45303 0.55839 0.94566 0.0
C149 C 0.40626 0.57626 0.9293 0.0
C150 C 0.32625 0.45137 0.04462 0.0
C151 C 0.34481 0.43166 0.01577 0.0
C152 C 0.39936 0.44889 0.00509 0.0
C153 C 0.43515 0.4838 0.02322 0.0
H154 H 0.57294 0.60351 0.02356 0.0
H155 H 0.65097 0.65998 0.00894 0.0
H156 H 0.65257 0.73976 0.09863 0.0
H157 H 0.574 0.68543 0.11261 0.0
H158 H 0.56558 0.61756 0.16301 0.0
H159 H 0.5724 0.612 0.21618 0.0
H160 H 0.43371 0.49786 0.20697 0.0
H161 H 0.42627 0.50339 0.15332 0.0
H162 H 0.34678 0.49983 0.08494 0.0
H163 H 0.28529 0.43831 0.05395 0.0
H164 H 0.41512 0.43455 0.98301 0.0
H165 H 0.47816 0.49464 0.01502 0.0
N166 N 0.49243 0.57047 0.06124 0.0
N167 N 0.52684 0.59878 0.10988 0.0
N168 N 0.45602 0.53388 0.10237 0.0
C169 C 0.52737 0.60225 0.08018 0.0
C170 C 0.4919 0.56475 0.12124 0.0
C171 C 0.45606 0.53656 0.07238 0.0
C172 C 0.56793 0.63951 0.06933 0.0
C173 C 0.58915 0.63383 0.03984 0.0
C174 C 0.63432 0.66581 0.03162 0.0
C175 C 0.65871 0.70401 0.05275 0.0
C176 C 0.63481 0.7111 0.08167 0.0
C177 C 0.58996 0.67945 0.0898 0.0
C178 C 0.49513 0.56099 0.15375 0.0
C179 C 0.53638 0.59112 0.17212 0.0
C180 C 0.54078 0.58773 0.20266 0.0
C181 C 0.50385 0.55438 0.21571 0.0
C182 C 0.46252 0.52417 0.19749 0.0
C183 C 0.45834 0.52729 0.16678 0.0
C184 C 0.41699 0.50233 0.05226 0.0
C185 C 0.36193 0.48616 0.06263 0.0
H186 H 0.09746 0.19967 0.01086 0.0
H187 H 0.38848 0.34858 0.98215 0.0
H188 H 0.25998 0.13342 0.9758 0.0
H189 H 0.22256 0.41761 0.0108 0.0
H190 H 0.33335 0.27183 0.96505 0.0
H191 H 0.13108 0.27928 -0.00396 0.0
C192 C 0.13883 0.2014 -0.00136 0.0
C193 C 0.17628 0.16038 -0.00541 0.0
C194 C 0.30865 0.304 0.9745 0.0
C195 C 0.21642 0.25127 0.97889 0.0
C196 C 0.34023 0.34816 0.98415 0.0
C197 C 0.31042 0.38936 -0.0012 0.0
C198 C 0.24695 0.30065 0.98001 0.0
C199 C 0.24773 0.38621 0.00065 0.0
C200 C 0.15852 0.24697 0.99052 0.0
C201 C 0.23008 0.16453 0.97933 0.0
N202 N 0.21826 0.34229 0.99208 0.0
N203 N 0.24924 0.20948 0.97262 0.0
H204 H 0.26861 0.92311 0.04613 0.0
H205 H 0.2541 0.64456 0.96268 0.0
H206 H 0.1346 0.86952 0.97939 0.0
H207 H 0.40626 0.7093 0.01445 0.0
H208 H 0.20021 0.72162 0.97614 0.0
H209 H 0.31026 0.84036 0.04147 0.0
C210 C 0.24802 0.89403 0.03035 0.0
C211 C 0.19845 0.90361 0.01278 0.0
C212 C 0.24513 0.71867 0.98481 0.0
C213 C 0.24598 0.80832 0.00756 0.0
C214 C 0.27602 0.67474 0.97713 0.0
C215 C 0.33547 0.67076 0.98683 0.0
C216 C 0.27367 0.75882 0.00253 0.0
C217 C 0.36071 0.71051 0.00631 0.0
C218 C 0.27176 0.84666 0.02783 0.0
C219 C 0.17324 0.86405 0.99312 0.0
N220 N 0.32993 0.75307 0.01321 0.0
N221 N 0.1975 0.81814 0.99093 0.0
H222 H 0.95001 0.82936 0.96518 0.0
H223 H 0.68086 0.80334 0.07081 0.0
H224 H 0.91457 0.93866 0.04094 0.0
H225 H 0.75678 0.67475 0.01895 0.0
H226 H 0.77008 0.8518 0.06173 0.0
H227 H 0.88912 0.76848 0.98753 0.0
C228 C 0.93158 0.83971 0.98726 0.0
C229 C 0.93675 0.88884 0.00129 0.0
C230 C 0.76758 0.81282 0.05263 0.0
C231 C 0.8645 0.82075 0.02607 0.0
C232 C 0.71644 0.78511 0.05768 0.0
C233 C 0.71109 0.73476 0.04562 0.0
C234 C 0.81352 0.79044 0.03492 0.0
C235 C 0.75834 0.71362 0.02825 0.0
C236 C 0.89619 0.80522 -0.00017 0.0
C237 C 0.91154 0.90094 0.02957 0.0
N238 N 0.80736 0.74167 0.02322 0.0
N239 N 0.87482 0.86747 0.04069 0.0
H240 H 0.81875 0.10907 0.00321 0.0
H241 H 0.82823 0.38877 0.97821 0.0
H242 H 0.98531 0.19134 0.00109 0.0
H243 H 0.67044 0.31632 0.00801 0.0
H244 H 0.88879 0.32114 0.99224 0.0
H245 H 0.76535 0.18711 0.01077 0.0
C246 C 0.8441 0.14377 0.00468 0.0
C247 C 0.9063 0.14394 0.00103 0.0
C248 C 0.84111 0.32057 -0.00367 0.0
C249 C 0.84548 0.23347 0.00915 0.0
C250 C 0.80655 0.35904 0.98823 0.0
C251 C 0.74417 0.35762 0.99148 0.0
C252 C 0.81284 0.27998 0.00719 0.0
C253 C 0.71837 0.31876 0.00499 0.0
C254 C 0.81367 0.18835 0.00916 0.0
C255 C 0.93722 0.18978 0.00362 0.0
N256 N 0.75265 0.28094 0.01178 0.0
N257 N 0.90631 0.23285 0.00686 0.0
H258 H 0.60648 0.68438 0.51467 0.0
H259 H 0.85589 0.87445 0.47896 0.0
H260 H 0.76133 0.64714 0.46072 0.0
H261 H 0.70254 0.91448 0.53407 0.0
H262 H 0.80474 0.79727 0.45896 0.0
H263 H 0.62218 0.77199 0.50829 0.0
C264 C 0.64192 0.6944 0.5002 0.0
C265 C 0.68291 0.65889 0.48832 0.0
C266 C 0.7817 0.82327 0.47504 0.0
C267 C 0.70293 0.75874 0.48201 0.0
C268 C 0.81086 0.86778 0.4864 0.0
C269 C 0.78435 0.9007 0.50898 0.0
C270 C 0.726 0.81097 0.48667 0.0
C271 C 0.72579 0.88944 0.51756 0.0
C272 C 0.65153 0.7445 0.49692 0.0
C273 C 0.72908 0.67373 0.4704 0.0
N274 N 0.69916 0.84506 0.50693 0.0
N275 N 0.73862 0.72267 0.46829 0.0
H276 H 0.77341 0.41402 0.46357 0.0
H277 H 0.74954 0.12702 0.48706 0.0
H278 H 0.62112 0.35496 0.50638 0.0
H279 H 0.91072 0.20333 0.46466 0.0
H280 H 0.69613 0.20616 0.49019 0.0
H281 H 0.81679 0.33174 0.45684 0.0
C282 C 0.74871 0.38332 0.47112 0.0
C283 C 0.69384 0.39109 0.48556 0.0
C284 C 0.74323 0.20543 0.48473 0.0
C285 C 0.7441 0.29695 0.47894 0.0
C286 C 0.77366 0.16049 0.48307 0.0
C287 C 0.83468 0.15886 0.47586 0.0
C288 C 0.77396 0.2485 0.47848 0.0
C289 C 0.86397 0.20305 0.47079 0.0
C290 C 0.77369 0.33644 0.46755 0.0
C291 C 0.66341 0.35017 0.49489 0.0
N292 N 0.83329 0.24582 0.47199 0.0
N293 N 0.68937 0.30472 0.49177 0.0
H294 H 0.45401 0.39943 0.54045 0.0
H295 H 0.21216 0.18398 0.48715 0.0
H296 H 0.35837 0.39075 0.4564 0.0
H297 H 0.24102 0.24761 0.57936 0.0
H298 H 0.28738 0.2428 0.47211 0.0
H299 H 0.39999 0.3239 0.55095 0.0
C300 C 0.42304 0.3807 0.52385 0.0
C301 C 0.40989 0.40128 0.49773 0.0
C302 C 0.27749 0.24317 0.49564 0.0
C303 C 0.34846 0.31572 0.50946 0.0
C304 C 0.23427 0.21 0.50424 0.0
C305 C 0.22007 0.21059 0.53462 0.0
C306 C 0.30714 0.27665 0.51758 0.0
C307 C 0.25112 0.24477 0.55576 0.0
C308 C 0.39194 0.33804 0.52993 0.0
C309 C 0.36905 0.37607 0.47697 0.0
N310 N 0.29305 0.27634 0.54684 0.0
N311 N 0.33937 0.3347 0.48336 0.0
H312 H 0.50551 0.68852 0.49028 0.0
H313 H 0.23156 0.86892 0.52628 0.0
H314 H 0.3821 0.66731 0.56094 0.0
H315 H 0.29029 0.81302 0.43711 0.0
H316 H 0.30608 0.81716 0.54678 0.0
H317 H 0.44945 0.76074 0.48003 0.0
C318 C 0.46812 0.70016 0.50448 0.0
C319 C 0.448 0.67149 0.52629 0.0
C320 C 0.3028 0.81709 0.52277 0.0
C321 C 0.38338 0.75359 0.51428 0.0
C322 C 0.25992 0.84614 0.51093 0.0
C323 C 0.25401 0.84556 0.47973 0.0
C324 C 0.341 0.78828 0.50336 0.0
C325 C 0.29348 0.81597 0.46124 0.0
C326 C 0.43572 0.74102 0.49832 0.0
C327 C 0.39861 0.68813 0.54369 0.0
N328 N 0.33517 0.78869 0.47333 0.0
N329 N 0.3673 0.72781 0.53703 0.0
H330 H 0.01514 0.95202 0.09238 0.0
H331 H 0.03584 0.0703 0.26338 0.0
H332 H 0.01896 0.10914 0.12347 0.0
H333 H 9e-05 0.91365 0.23772 0.0
H334 H 0.02625 0.08356 0.21133 0.0
H335 H 4e-05 0.93538 0.14421 0.0
C336 C 0.01031 0.98297 0.10997 0.0
C337 C 0.01863 0.03201 0.10389 0.0
C338 C 0.01998 0.04622 0.21692 0.0
C339 C 0.00339 0.01346 0.16288 0.0
C340 C 0.02568 0.03864 0.24671 0.0
C341 C 0.01812 -0.00911 0.25494 0.0
C342 C 0.00703 0.00575 0.19487 0.0
C343 C 0.00644 0.95104 0.23226 0.0
C344 C 0.00258 0.97348 0.13955 0.0
C345 C 0.01309 0.07082 0.12738 0.0
N346 N 0.00121 0.95934 0.20316 0.0
N347 N 0.00666 0.06071 0.15585 0.0
H348 H 0.09291 0.10666 0.90761 0.0
H349 H 0.05492 0.98428 0.73791 0.0
H350 H 0.09464 0.94926 0.87792 0.0
H351 H 0.03345 0.14051 0.76814 0.0
H352 H 0.09189 0.97316 0.78759 0.0
H353 H 0.09911 0.1223 0.85532 0.0
C354 C 0.09768 0.07551 0.89014 0.0
C355 C 0.09303 0.02663 0.89683 0.0
C356 C 0.0795 0.00998 0.78335 0.0
C357 C 0.09764 0.0439 0.83727 0.0
C358 C 0.05761 0.01622 0.75508 0.0
C359 C 0.03999 0.06321 0.749 0.0
C360 C 0.08351 0.05095 0.80591 0.0
C361 C 0.04633 0.10356 0.77187 0.0
C362 C 0.10014 0.08436 0.86028 0.0
C363 C 0.09809 0.98747 0.87349 0.0
N364 N 0.06699 0.09641 0.79941 0.0
N365 N 0.09898 -0.00311 0.84467 0.0
H366 H 0.5452 0.45534 0.59356 0.0
H367 H 0.53078 0.5703 0.76507 0.0
H368 H 0.62098 0.59952 0.62683 0.0
H369 H 0.55619 0.4134 0.73934 0.0
H370 H 0.53924 0.58339 0.71257 0.0
H371 H 0.52431 0.44132 0.64545 0.0
C372 C 0.55636 0.48431 0.6118 0.0
C373 C 0.58487 0.52859 0.60619 0.0
C374 C 0.54274 0.5461 0.71842 0.0
C375 C 0.56075 0.51316 0.66494 0.0
C376 C 0.53774 0.53856 0.74827 0.0
C377 C 0.54296 0.49071 0.75644 0.0
C378 C 0.55211 0.50542 0.69648 0.0
C379 C 0.55237 0.45088 0.73387 0.0
C380 C 0.54494 0.47615 0.64125 0.0
C381 C 0.59918 0.56484 0.63041 0.0
N382 N 0.55639 0.45907 0.70476 0.0
N383 N 0.58666 0.55646 0.65878 0.0
H384 H 0.61352 0.53226 0.39932 0.0
H385 H 0.41132 0.55239 0.25472 0.0
H386 H 0.42902 0.57701 0.40232 0.0
H387 H 0.6042 0.55306 0.25111 0.0
H388 H 0.41744 0.55333 0.30889 0.0
H389 H 0.61229 0.53411 0.3449 0.0
C390 C 0.57298 0.54271 0.38862 0.0
C391 C 0.52116 0.55406 0.40539 0.0
C392 C 0.4585 0.55331 0.29628 0.0
C393 C 0.51926 0.55559 0.34342 0.0
C394 C 0.45496 0.55229 0.26533 0.0
C395 C 0.50728 0.5526 0.24842 0.0
C396 C 0.51477 0.55419 0.3105 0.0
C397 C 0.56276 0.5532 0.2634 0.0
C398 C 0.57231 0.54375 0.35762 0.0
C399 C 0.46998 0.56766 0.39039 0.0
N400 N 0.56511 0.55382 0.29363 0.0
N401 N 0.47022 0.5676 0.36031 0.0
loop_
_geom_bond_atom_site_label_1
_geom_bond_atom_site_label_2
_geom_bond_distance
_geom_bond_site_symmetry_2
_ccdc_geom_bond_type
O0 Mg1 1.990 . S
O0 C14 1.253 . S
Mg1 O0 1.990 . S
Mg1 O4 2.180 . S
Mg1 O5 2.117 . S
Mg1 O19 2.030 1_545 S
O2 Mg3 2.072 . S
O2 C14 1.260 . S
Mg3 O2 2.072 . S
Mg3 O4 2.099 . S
Mg3 O6 2.079 1_554 S
Mg3 O7 2.072 . S
Mg3 O9 2.099 1_444 S
Mg3 O20 2.079 1_544 S
O4 Mg1 2.180 . S
O4 Mg3 2.099 . S
O4 C15 1.279 . S
O5 Mg1 2.117 . S
O5 C15 1.250 . S
O6 Mg3 2.079 1_556 S
O6 C16 1.264 . S
O7 Mg3 2.072 . S
O7 C17 1.260 1_455 S
Mg8 O9 2.180 1_545 S
Mg8 O10 2.030 . S
Mg8 O11 1.990 . S
Mg8 O12 2.117 1_545 S
O9 Mg3 2.099 1_666 S
O9 Mg8 2.180 1_565 S
O9 C18 1.279 1_556 S
O10 Mg8 2.030 . S
O10 C16 1.248 1_655 S
O11 Mg8 1.990 . S
O11 C17 1.253 1_556 S
O12 Mg8 2.117 1_565 S
O12 C18 1.250 1_556 S
C13 O19 1.248 . S
C13 O20 1.264 1_554 S
C14 O0 1.253 . S
C14 O2 1.260 . S
C15 O4 1.279 . S
C15 O5 1.250 . S
C16 O6 1.264 . S
C16 O10 1.248 1_455 S
C17 O7 1.260 1_655 S
C17 O11 1.253 1_554 S
C18 O9 1.279 1_554 S
C18 O12 1.250 1_554 S
O19 Mg1 2.030 1_565 S
O19 C13 1.248 . S
O20 Mg3 2.079 1_566 S
O20 C13 1.264 1_556 S
O21 Mg22 1.990 . S
O21 C35 1.253 . S
Mg22 O21 1.990 . S
Mg22 O25 2.180 . S
Mg22 O26 2.117 . S
Mg22 O40 2.030 . S
O23 Mg24 2.072 . S
O23 C35 1.260 . S
Mg24 O23 2.072 . S
Mg24 O25 2.099 . S
Mg24 O27 2.079 . S
Mg24 O28 2.072 . S
Mg24 O30 2.099 . S
Mg24 O41 2.079 . S
O25 Mg22 2.180 . S
O25 Mg24 2.099 . S
O25 C36 1.279 . S
O26 Mg22 2.117 . S
O26 C36 1.250 . S
O27 Mg24 2.079 . S
O27 C37 1.264 . S
O28 Mg24 2.072 . S
O28 C38 1.260 . S
Mg29 O30 2.180 . S
Mg29 O31 2.030 . S
Mg29 O32 1.990 . S
Mg29 O33 2.117 . S
O30 Mg24 2.099 . S
O30 Mg29 2.180 . S
O30 C39 1.279 . S
O31 Mg29 2.030 . S
O31 C37 1.248 . S
O32 Mg29 1.990 . S
O32 C38 1.253 . S
O33 Mg29 2.117 . S
O33 C39 1.250 . S
C34 O40 1.248 . S
C34 O41 1.264 . S
C35 O21 1.253 . S
C35 O23 1.260 . S
C36 O25 1.279 . S
C36 O26 1.250 . S
C37 O27 1.264 . S
C37 O31 1.248 . S
C38 O28 1.260 . S
C38 O32 1.253 . S
C39 O30 1.279 . S
C39 O33 1.250 . S
O40 Mg22 2.030 . S
O40 C34 1.248 . S
O41 Mg24 2.079 . S
O41 C34 1.264 . S
C42 C43 1.384 . S
C42 H55 0.947 . S
C42 C77 1.382 . S
C43 C42 1.384 . S
C43 C44 1.378 . S
C44 C43 1.378 . S
C44 C45 1.378 . S
C44 H56 0.952 . S
C45 C44 1.378 . S
C45 H57 0.950 1_655 S
C45 C76 1.383 . S
H46 C65 0.947 . S
H47 C66 0.946 . S
H48 C68 0.953 . S
H49 C69 0.945 . S
H50 C71 0.952 . S
H51 C72 0.949 . S
H52 C74 0.950 . S
H53 C75 0.948 . S
H54 C77 0.951 . S
H55 C42 0.947 . S
H56 C44 0.952 . S
H57 C45 0.950 1_455 S
N58 C61 1.382 1_545 S
N58 C63 1.363 . S
N59 C61 1.371 . S
N59 C62 1.372 1_565 S
N60 C62 1.361 . S
N60 C63 1.377 . S
C61 N58 1.382 1_565 S
C61 N59 1.371 . S
C61 C64 1.480 . S
C62 N59 1.372 1_545 S
C62 N60 1.361 . S
C62 C70 1.457 . S
C63 N58 1.363 . S
C63 N60 1.377 . S
C63 C76 1.479 1_455 S
C64 C61 1.480 . S
C64 C65 1.383 . S
C64 C69 1.385 . S
C65 H46 0.947 . S
C65 C64 1.383 . S
C65 C66 1.388 . S
C66 H47 0.946 . S
C66 C65 1.388 . S
C66 C67 1.384 . S
C67 C66 1.384 . S
C67 C68 1.377 . S
C68 H48 0.953 . S
C68 C67 1.377 . S
C68 C69 1.369 . S
C69 H49 0.945 . S
C69 C64 1.385 . S
C69 C68 1.369 . S
C70 C62 1.457 . S
C70 C71 1.372 1_545 S
C70 C75 1.364 . S
C71 H50 0.952 . S
C71 C70 1.372 1_565 S
C71 C72 1.389 . S
C72 H51 0.949 . S
C72 C71 1.389 . S
C72 C73 1.387 . S
C73 C72 1.387 . S
C73 C74 1.372 1_565 S
C74 H52 0.950 . S
C74 C73 1.372 1_545 S
C74 C75 1.379 . S
C75 H53 0.948 . S
C75 C70 1.364 . S
C75 C74 1.379 . S
C76 C45 1.383 . S
C76 C63 1.479 1_655 S
C76 C77 1.398 . S
C77 C42 1.382 . S
C77 H54 0.951 . S
C77 C76 1.398 . S
C78 C79 1.384 . S
C78 H91 0.947 . S
C78 C113 1.382 . S
C79 C78 1.384 . S
C79 C80 1.378 . S
C80 C79 1.378 . S
C80 C81 1.378 . S
C80 H92 0.952 . S
C81 C80 1.378 . S
C81 H93 0.950 1_565 S
C81 C112 1.383 1_565 S
H82 C101 0.947 . S
H83 C102 0.946 . S
H84 C104 0.953 . S
H85 C105 0.945 . S
H86 C107 0.952 . S
H87 C108 0.949 . S
H88 C110 0.950 . S
H89 C111 0.948 . S
H90 C113 0.951 . S
H91 C78 0.947 . S
H92 C80 0.952 . S
H93 C81 0.950 1_545 S
N94 C97 1.382 . S
N94 C99 1.363 1_455 S
N95 C97 1.371 . S
N95 C98 1.372 . S
N96 C98 1.361 1_655 S
N96 C99 1.377 . S
C97 N94 1.382 . S
C97 N95 1.371 . S
C97 C100 1.480 . S
C98 N95 1.372 . S
C98 N96 1.361 1_455 S
C98 C106 1.457 . S
C99 N94 1.363 1_655 S
C99 N96 1.377 . S
C99 C112 1.479 . S
C100 C97 1.480 . S
C100 C101 1.383 . S
C100 C105 1.385 . S
C101 H82 0.947 . S
C101 C100 1.383 . S
C101 C102 1.388 . S
C102 H83 0.946 . S
C102 C101 1.388 . S
C102 C103 1.384 . S
C103 C102 1.384 . S
C103 C104 1.377 . S
C104 H84 0.953 . S
C104 C103 1.377 . S
C104 C105 1.369 . S
C105 H85 0.945 . S
C105 C100 1.385 . S
C105 C104 1.369 . S
C106 C98 1.457 . S
C106 C107 1.372 . S
C106 C111 1.364 1_455 S
C107 H86 0.952 . S
C107 C106 1.372 . S
C107 C108 1.389 . S
C108 H87 0.949 . S
C108 C107 1.389 . S
C108 C109 1.387 . S
C109 C108 1.387 . S
C109 C110 1.372 1_455 S
C110 H88 0.950 . S
C110 C109 1.372 1_655 S
C110 C111 1.379 . S
C111 H89 0.948 . S
C111 C106 1.364 1_655 S
C111 C110 1.379 . S
C112 C81 1.383 1_545 S
C112 C99 1.479 . S
C112 C113 1.398 1_545 S
C113 C78 1.382 . S
C113 H90 0.951 . S
C113 C112 1.398 1_565 S
C114 C115 1.384 . S
C114 H127 0.947 . S
C114 C149 1.382 . S
C115 C114 1.384 . S
C115 C116 1.384 . S
C116 C115 1.384 . S
C116 C117 1.382 . S
C116 H128 0.943 1_556 S
C117 C116 1.382 . S
C117 H129 0.950 . S
C117 C148 1.383 . S
H118 C137 0.947 . S
H119 C138 0.946 1_554 S
H120 C140 0.953 . S
H121 C141 0.945 . S
H122 C143 0.952 . S
H123 C144 0.949 . S
H124 C146 0.950 . S
H125 C147 0.948 . S
H126 C149 0.951 . S
H127 C114 0.947 . S
H128 C116 0.943 1_554 S
H129 C117 0.950 . S
N130 C133 1.382 . S
N130 C135 1.363 . S
N131 C133 1.371 . S
N131 C134 1.372 . S
N132 C134 1.361 . S
N132 C135 1.377 . S
C133 N130 1.382 . S
C133 N131 1.371 . S
C133 C136 1.480 . S
C134 N131 1.372 . S
C134 N132 1.361 . S
C134 C142 1.457 . S
C135 N130 1.363 . S
C135 N132 1.377 . S
C135 C148 1.479 . S
C136 C133 1.480 . S
C136 C137 1.383 . S
C136 C141 1.385 . S
C137 H118 0.947 . S
C137 C136 1.383 . S
C137 C138 1.388 . S
C138 H119 0.946 1_556 S
C138 C137 1.388 . S
C138 C139 1.384 . S
C139 C138 1.384 . S
C139 C140 1.377 . S
C140 H120 0.953 . S
C140 C139 1.377 . S
C140 C141 1.369 . S
C141 H121 0.945 . S
C141 C136 1.385 . S
C141 C140 1.369 . S
C142 C134 1.457 . S
C142 C143 1.372 . S
C142 C147 1.364 . S
C143 H122 0.952 . S
C143 C142 1.372 . S
C143 C144 1.389 . S
C144 H123 0.949 . S
C144 C143 1.389 . S
C144 C145 1.387 . S
C145 C144 1.387 . S
C145 C146 1.372 . S
C146 H124 0.950 . S
C146 C145 1.372 . S
C146 C147 1.379 . S
C147 H125 0.948 . S
C147 C142 1.364 . S
C147 C146 1.379 . S
C148 C117 1.383 . S
C148 C135 1.479 . S
C148 C149 1.398 . S
C149 C114 1.382 . S
C149 H126 0.951 . S
C149 C148 1.398 . S
C150 C151 1.384 . S
C150 H163 0.947 . S
C150 C185 1.382 . S
C151 C150 1.384 . S
C151 C152 1.378 . S
C152 C151 1.378 . S
C152 C153 1.378 . S
C152 H164 0.952 1_554 S
C153 C152 1.378 . S
C153 H165 0.950 . S
C153 C184 1.383 . S
H154 C173 0.947 . S
H155 C174 0.946 . S
H156 C176 0.953 . S
H157 C177 0.945 . S
H158 C179 0.952 . S
H159 C180 0.949 . S
H160 C182 0.950 . S
H161 C183 0.948 . S
H162 C185 0.951 . S
H163 C150 0.947 . S
H164 C152 0.952 1_556 S
H165 C153 0.950 . S
N166 C169 1.382 . S
N166 C171 1.363 . S
N167 C169 1.371 . S
N167 C170 1.372 . S
N168 C170 1.361 . S
N168 C171 1.377 . S
C169 N166 1.382 . S
C169 N167 1.371 . S
C169 C172 1.480 . S
C170 N167 1.372 . S
C170 N168 1.361 . S
C170 C178 1.457 . S
C171 N166 1.363 . S
C171 N168 1.377 . S
C171 C184 1.479 . S
C172 C169 1.480 . S
C172 C173 1.383 . S
C172 C177 1.385 . S
C173 H154 0.947 . S
C173 C172 1.383 . S
C173 C174 1.388 . S
C174 H155 0.946 . S
C174 C173 1.388 . S
C174 C175 1.384 . S
C175 C174 1.384 . S
C175 C176 1.377 . S
C176 H156 0.953 . S
C176 C175 1.377 . S
C176 C177 1.369 . S
C177 H157 0.945 . S
C177 C172 1.385 . S
C177 C176 1.369 . S
C178 C170 1.457 . S
C178 C179 1.372 . S
C178 C183 1.364 . S
C179 H158 0.952 . S
C179 C178 1.372 . S
C179 C180 1.389 . S
C180 H159 0.949 . S
C180 C179 1.389 . S
C180 C181 1.387 . S
C181 C180 1.387 . S
C181 C182 1.372 . S
C182 H160 0.950 . S
C182 C181 1.372 . S
C182 C183 1.379 . S
C183 H161 0.948 . S
C183 C178 1.364 . S
C183 C182 1.379 . S
C184 C153 1.383 . S
C184 C171 1.479 . S
C184 C185 1.398 . S
C185 C150 1.382 . S
C185 H162 0.951 . S
C185 C184 1.398 . S
H186 C192 0.930 . S
H187 C196 0.930 . S
H188 C201 0.929 . S
H189 C199 0.929 1_556 S
H190 C194 0.929 . S
H191 C200 0.929 . S
C192 H186 0.930 . S
C192 C193 1.367 1_556 S
C192 C200 1.378 . S
C193 C192 1.367 1_554 S
C193 C201 1.433 . S
C194 H190 0.929 . S
C194 C196 1.378 . S
C194 C198 1.350 . S
C195 C198 1.463 . S
C195 C200 1.350 1_554 S
C195 N203 1.427 . S
C196 H187 0.930 . S
C196 C194 1.378 . S
C196 C197 1.367 . S
C197 C196 1.367 . S
C197 C199 1.433 . S
C198 C194 1.350 . S
C198 C195 1.463 . S
C198 N202 1.427 . S
C199 H189 0.929 1_554 S
C199 C197 1.433 . S
C199 N202 1.384 . S
C200 H191 0.929 . S
C200 C192 1.378 . S
C200 C195 1.350 1_556 S
C201 H188 0.929 . S
C201 C193 1.433 . S
C201 N203 1.384 . S
N202 C198 1.427 . S
N202 C199 1.384 . S
N203 C195 1.427 . S
N203 C201 1.384 . S
H204 C210 0.930 . S
H205 C214 0.930 . S
H206 C219 0.929 . S
H207 C217 0.929 . S
H208 C212 0.929 . S
H209 C218 0.929 . S
C210 H204 0.930 . S
C210 C211 1.367 . S
C210 C218 1.378 . S
C211 C210 1.367 . S
C211 C219 1.433 1_554 S
C212 H208 0.929 . S
C212 C214 1.378 . S
C212 C216 1.350 . S
C213 C216 1.463 1_554 S
C213 C218 1.350 . S
C213 N221 1.427 1_554 S
C214 H205 0.930 . S
C214 C212 1.378 . S
C214 C215 1.367 . S
C215 C214 1.367 . S
C215 C217 1.433 1_556 S
C216 C212 1.350 . S
C216 C213 1.463 1_556 S
C216 N220 1.427 1_556 S
C217 H207 0.929 . S
C217 C215 1.433 1_554 S
C217 N220 1.384 . S
C218 H209 0.929 . S
C218 C210 1.378 . S
C218 C213 1.350 . S
C219 H206 0.929 . S
C219 C211 1.433 1_556 S
C219 N221 1.384 . S
N220 C216 1.427 1_554 S
N220 C217 1.384 . S
N221 C213 1.427 1_556 S
N221 C219 1.384 . S
H222 C228 0.930 . S
H223 C232 0.930 . S
H224 C237 0.929 . S
H225 C235 0.929 1_556 S
H226 C230 0.929 . S
H227 C236 0.929 . S
C228 H222 0.930 . S
C228 C229 1.367 1_556 S
C228 C236 1.378 . S
C229 C228 1.367 1_554 S
C229 C237 1.433 . S
C230 H226 0.929 . S
C230 C232 1.378 . S
C230 C234 1.350 . S
C231 C234 1.463 . S
C231 C236 1.350 1_554 S
C231 N239 1.427 . S
C232 H223 0.930 . S
C232 C230 1.378 . S
C232 C233 1.367 . S
C233 C232 1.367 . S
C233 C235 1.433 . S
C234 C230 1.350 . S
C234 C231 1.463 . S
C234 N238 1.427 . S
C235 H225 0.929 1_554 S
C235 C233 1.433 . S
C235 N238 1.384 . S
C236 H227 0.929 . S
C236 C228 1.378 . S
C236 C231 1.350 1_556 S
C237 H224 0.929 . S
C237 C229 1.433 . S
C237 N239 1.384 . S
N238 C234 1.427 . S
N238 C235 1.384 . S
N239 C231 1.427 . S
N239 C237 1.384 . S
H240 C246 0.928 . S
H241 C250 0.930 . S
H242 C255 0.929 . S
H243 C253 0.929 . S
H244 C248 0.929 . S
H245 C254 0.929 . S
C246 H240 0.928 . S
C246 C247 1.365 1_556 S
C246 C254 1.382 . S
C247 C246 1.365 1_554 S
C247 C255 1.433 . S
C248 H244 0.929 . S
C248 C250 1.378 . S
C248 C252 1.350 . S
C249 C252 1.463 . S
C249 C254 1.350 . S
C249 N257 1.427 . S
C250 H241 0.930 . S
C250 C248 1.378 . S
C250 C251 1.367 . S
C251 C250 1.367 . S
C251 C253 1.433 . S
C252 C248 1.350 . S
C252 C249 1.463 . S
C252 N256 1.427 . S
C253 H243 0.929 . S
C253 C251 1.433 . S
C253 N256 1.384 . S
C254 H245 0.929 . S
C254 C246 1.382 . S
C254 C249 1.350 . S
C255 H242 0.929 . S
C255 C247 1.433 . S
C255 N257 1.384 1_554 S
N256 C252 1.427 . S
N256 C253 1.384 . S
N257 C249 1.427 . S
N257 C255 1.384 1_556 S
H258 C264 0.930 . S
H259 C268 0.930 . S
H260 C273 0.929 . S
H261 C271 0.929 . S
H262 C266 0.929 . S
H263 C272 0.929 . S
C264 H258 0.930 . S
C264 C265 1.367 . S
C264 C272 1.378 . S
C265 C264 1.367 . S
C265 C273 1.433 . S
C266 H262 0.929 . S
C266 C268 1.378 . S
C266 C270 1.350 . S
C267 C270 1.463 . S
C267 C272 1.350 . S
C267 N275 1.427 . S
C268 H259 0.930 . S
C268 C266 1.378 . S
C268 C269 1.367 . S
C269 C268 1.367 . S
C269 C271 1.433 . S
C270 C266 1.350 . S
C270 C267 1.463 . S
C270 N274 1.427 . S
C271 H261 0.929 . S
C271 C269 1.433 . S
C271 N274 1.384 . S
C272 H263 0.929 . S
C272 C264 1.378 . S
C272 C267 1.350 . S
C273 H260 0.929 . S
C273 C265 1.433 . S
C273 N275 1.384 . S
N274 C270 1.427 . S
N274 C271 1.384 . S
N275 C267 1.427 . S
N275 C273 1.384 . S
H276 C282 0.930 . S
H277 C286 0.930 . S
H278 C291 0.929 . S
H279 C289 0.929 . S
H280 C284 0.929 . S
H281 C290 0.929 . S
C282 H276 0.930 . S
C282 C283 1.367 . S
C282 C290 1.378 . S
C283 C282 1.367 . S
C283 C291 1.433 . S
C284 H280 0.929 . S
C284 C286 1.378 . S
C284 C288 1.350 . S
C285 C288 1.463 . S
C285 C290 1.350 . S
C285 N293 1.427 . S
C286 H277 0.930 . S
C286 C284 1.378 . S
C286 C287 1.367 . S
C287 C286 1.367 . S
C287 C289 1.433 . S
C288 C284 1.350 . S
C288 C285 1.463 . S
C288 N292 1.427 . S
C289 H279 0.929 . S
C289 C287 1.433 . S
C289 N292 1.384 . S
C290 H281 0.929 . S
C290 C282 1.378 . S
C290 C285 1.350 . S
C291 H278 0.929 . S
C291 C283 1.433 . S
C291 N293 1.384 . S
N292 C288 1.427 . S
N292 C289 1.384 . S
N293 C285 1.427 . S
N293 C291 1.384 . S
H294 C300 0.930 . S
H295 C304 0.930 . S
H296 C309 0.929 . S
H297 C307 0.929 . S
H298 C302 0.929 . S
H299 C308 0.929 . S
C300 H294 0.930 . S
C300 C301 1.367 . S
C300 C308 1.378 . S
C301 C300 1.367 . S
C301 C309 1.433 . S
C302 H298 0.929 . S
C302 C304 1.378 . S
C302 C306 1.350 . S
C303 C306 1.463 . S
C303 C308 1.350 . S
C303 N311 1.427 . S
C304 H295 0.930 . S
C304 C302 1.378 . S
C304 C305 1.367 . S
C305 C304 1.367 . S
C305 C307 1.433 . S
C306 C302 1.350 . S
C306 C303 1.463 . S
C306 N310 1.427 . S
C307 H297 0.929 . S
C307 C305 1.433 . S
C307 N310 1.384 . S
C308 H299 0.929 . S
C308 C300 1.378 . S
C308 C303 1.350 . S
C309 H296 0.929 . S
C309 C301 1.433 . S
C309 N311 1.384 . S
N310 C306 1.427 . S
N310 C307 1.384 . S
N311 C303 1.427 . S
N311 C309 1.384 . S
H312 C318 0.930 . S
H313 C322 0.930 . S
H314 C327 0.929 . S
H315 C325 0.929 . S
H316 C320 0.929 . S
H317 C326 0.929 . S
C318 H312 0.930 . S
C318 C319 1.367 . S
C318 C326 1.378 . S
C319 C318 1.367 . S
C319 C327 1.433 . S
C320 H316 0.929 . S
C320 C322 1.378 . S
C320 C324 1.350 . S
C321 C324 1.463 . S
C321 C326 1.350 . S
C321 N329 1.427 . S
C322 H313 0.930 . S
C322 C320 1.378 . S
C322 C323 1.367 . S
C323 C322 1.367 . S
C323 C325 1.433 . S
C324 C320 1.350 . S
C324 C321 1.463 . S
C324 N328 1.427 . S
C325 H315 0.929 . S
C325 C323 1.433 . S
C325 N328 1.384 . S
C326 H317 0.929 . S
C326 C318 1.378 . S
C326 C321 1.350 . S
C327 H314 0.929 . S
C327 C319 1.433 . S
C327 N329 1.384 . S
N328 C324 1.427 . S
N328 C325 1.384 . S
N329 C321 1.427 . S
N329 C327 1.384 . S
H330 C336 0.930 . S
H331 C340 0.930 . S
H332 C345 0.929 . S
H333 C343 0.929 . S
H334 C338 0.929 . S
H335 C344 0.929 . S
C336 H330 0.930 . S
C336 C337 1.367 1_565 S
C336 C344 1.378 . S
C337 C336 1.367 1_545 S
C337 C345 1.433 . S
C338 H334 0.929 . S
C338 C340 1.378 . S
C338 C342 1.350 . S
C339 C342 1.463 . S
C339 C344 1.350 1_545 S
C339 N347 1.427 . S
C340 H331 0.930 . S
C340 C338 1.378 . S
C340 C341 1.367 1_545 S
C341 C340 1.367 1_565 S
C341 C343 1.433 . S
C342 C338 1.350 . S
C342 C339 1.463 . S
C342 N346 1.427 1_545 S
C343 H333 0.929 . S
C343 C341 1.433 . S
C343 N346 1.384 . S
C344 H335 0.929 . S
C344 C336 1.378 . S
C344 C339 1.350 1_565 S
C345 H332 0.929 . S
C345 C337 1.433 . S
C345 N347 1.384 . S
N346 C342 1.427 1_565 S
N346 C343 1.384 . S
N347 C339 1.427 . S
N347 C345 1.384 . S
H348 C354 0.930 . S
H349 C358 0.930 . S
H350 C363 0.929 1_565 S
H351 C361 0.929 . S
H352 C356 0.929 1_565 S
H353 C362 0.929 . S
C354 H348 0.930 . S
C354 C355 1.367 . S
C354 C362 1.378 . S
C355 C354 1.367 . S
C355 C363 1.433 . S
C356 H352 0.929 1_545 S
C356 C358 1.378 . S
C356 C360 1.350 . S
C357 C360 1.463 . S
C357 C362 1.350 . S
C357 N365 1.427 . S
C358 H349 0.930 . S
C358 C356 1.378 . S
C358 C359 1.367 . S
C359 C358 1.367 . S
C359 C361 1.433 . S
C360 C356 1.350 . S
C360 C357 1.463 . S
C360 N364 1.427 . S
C361 H351 0.929 . S
C361 C359 1.433 . S
C361 N364 1.384 . S
C362 H353 0.929 . S
C362 C354 1.378 . S
C362 C357 1.350 . S
C363 H350 0.929 1_545 S
C363 C355 1.433 . S
C363 N365 1.384 . S
N364 C360 1.427 . S
N364 C361 1.384 . S
N365 C357 1.427 . S
N365 C363 1.384 . S
H366 C372 0.930 . S
H367 C376 0.930 . S
H368 C381 0.929 . S
H369 C379 0.929 . S
H370 C374 0.929 . S
H371 C380 0.929 . S
C372 H366 0.930 . S
C372 C373 1.367 . S
C372 C380 1.378 . S
C373 C372 1.367 . S
C373 C381 1.433 . S
C374 H370 0.929 . S
C374 C376 1.378 . S
C374 C378 1.350 . S
C375 C378 1.463 . S
C375 C380 1.350 . S
C375 N383 1.427 . S
C376 H367 0.930 . S
C376 C374 1.378 . S
C376 C377 1.367 . S
C377 C376 1.367 . S
C377 C379 1.433 . S
C378 C374 1.350 . S
C378 C375 1.463 . S
C378 N382 1.427 . S
C379 H369 0.929 . S
C379 C377 1.433 . S
C379 N382 1.384 . S
C380 H371 0.929 . S
C380 C372 1.378 . S
C380 C375 1.350 . S
C381 H368 0.929 . S
C381 C373 1.433 . S
C381 N383 1.384 . S
N382 C378 1.427 . S
N382 C379 1.384 . S
N383 C375 1.427 . S
N383 C381 1.384 . S
H384 C390 0.930 . S
H385 C394 0.930 . S
H386 C399 0.929 . S
H387 C397 0.929 . S
H388 C392 0.929 . S
H389 C398 0.929 . S
C390 H384 0.930 . S
C390 C391 1.367 . S
C390 C398 1.378 . S
C391 C390 1.367 . S
C391 C399 1.433 . S
C392 H388 0.929 . S
C392 C394 1.378 . S
C392 C396 1.350 . S
C393 C396 1.463 . S
C393 C398 1.350 . S
C393 N401 1.427 . S
C394 H385 0.930 . S
C394 C392 1.378 . S
C394 C395 1.367 . S
C395 C394 1.367 . S
C395 C397 1.433 . S
C396 C392 1.350 . S
C396 C393 1.463 . S
C396 N400 1.427 . S
C397 H387 0.929 . S
C397 C395 1.433 . S
C397 N400 1.384 . S
C398 H389 0.929 . S
C398 C390 1.378 . S
C398 C393 1.350 . S
C399 H386 0.929 . S
C399 C391 1.433 . S
C399 N401 1.384 . S
N400 C396 1.427 . S
N400 C397 1.384 . S
N401 C393 1.427 . S
N401 C399 1.384 . S
C197 C151 1.465 . S
C193 C15 1.360 . S
C211 C13 1.526 . S
C215 C115 1.514 . S
C229 C18 1.295 . S
C233 C175 1.459 . S
C247 C17 1.334 . S
C251 C139 1.365 . S
C265 C36 1.339 . S
C269 C79 1.478 . S
C283 C34 1.532 . S
C287 C43 1.525 . S
C305 C103 1.468 . S
C301 C39 1.304 . S
C323 C67 1.375 . S
C319 C38 1.339 . S
C337 C14 1.520 . S
C341 C73 1.551 . S
C355 C16 1.384 . S
C359 C109 1.415 . S
C377 C145 1.551 . S
C373 C35 1.516 . S
C391 C37 1.391 . S
C395 C181 1.421 . S
