# Generated by pormake.
# Topology ctn, (3,4)-cn, num edge types: 1
# Building blocks:
#     Node 0, Type 0, BuildingBlock: ESEHIV_clean_linker_0, # of connection points: 3
#     Node 1, Type 0, BuildingBlock: ESEHIV_clean_linker_0, # of connection points: 3
#     Node 2, Type 0, BuildingBlock: ESEHIV_clean_linker_0, # of connection points: 3
#     Node 3, Type 0, BuildingBlock: ESEHIV_clean_linker_0, # of connection points: 3
#     Node 4, Type 0, BuildingBlock: ESEHIV_clean_linker_0, # of connection points: 3
#     Node 5, Type 0, BuildingBlock: ESEHIV_clean_linker_0, # of connection points: 3
#     Node 6, Type 0, BuildingBlock: ESEHIV_clean_linker_0, # of connection points: 3
#     Node 7, Type 0, BuildingBlock: ESEHIV_clean_linker_0, # of connection points: 3
#     Node 8, Type 0, BuildingBlock: ESEHIV_clean_linker_0, # of connection points: 3
#     Node 9, Type 0, BuildingBlock: ESEHIV_clean_linker_0, # of connection points: 3
#     Node 10, Type 0, BuildingBlock: ESEHIV_clean_linker_0, # of connection points: 3
#     Node 11, Type 0, BuildingBlock: ESEHIV_clean_linker_0, # of connection points: 3
#     Node 12, Type 0, BuildingBlock: ESEHIV_clean_linker_0, # of connection points: 3
#     Node 13, Type 0, BuildingBlock: ESEHIV_clean_linker_0, # of connection points: 3
#     Node 14, Type 0, BuildingBlock: ESEHIV_clean_linker_0, # of connection points: 3
#     Node 15, Type 0, BuildingBlock: ESEHIV_clean_linker_0, # of connection points: 3
#     Node 16, Type 1, BuildingBlock: TATPOV_clean_sbu_0, # of connection points: 4
#     Node 17, Type 1, BuildingBlock: TATPOV_clean_sbu_0, # of connection points: 4
#     Node 18, Type 1, BuildingBlock: TATPOV_clean_sbu_0, # of connection points: 4
#     Node 19, Type 1, BuildingBlock: TATPOV_clean_sbu_0, # of connection points: 4
#     Node 20, Type 1, BuildingBlock: TATPOV_clean_sbu_0, # of connection points: 4
#     Node 21, Type 1, BuildingBlock: TATPOV_clean_sbu_0, # of connection points: 4
#     Node 22, Type 1, BuildingBlock: TATPOV_clean_sbu_0, # of connection points: 4
#     Node 23, Type 1, BuildingBlock: TATPOV_clean_sbu_0, # of connection points: 4
#     Node 24, Type 1, BuildingBlock: TATPOV_clean_sbu_0, # of connection points: 4
#     Node 25, Type 1, BuildingBlock: TATPOV_clean_sbu_0, # of connection points: 4
#     Node 26, Type 1, BuildingBlock: TATPOV_clean_sbu_0, # of connection points: 4
#     Node 27, Type 1, BuildingBlock: TATPOV_clean_sbu_0, # of connection points: 4
#     Edge 28, Type (0, 1), BuildingBlock: OJICUG_clean_linker_0, # of connection points: 2
#     Edge 29, Type (0, 1), BuildingBlock: OJICUG_clean_linker_0, # of connection points: 2
#     Edge 30, Type (0, 1), BuildingBlock: OJICUG_clean_linker_0, # of connection points: 2
#     Edge 31, Type (0, 1), BuildingBlock: OJICUG_clean_linker_0, # of connection points: 2
#     Edge 32, Type (0, 1), BuildingBlock: OJICUG_clean_linker_0, # of connection points: 2
#     Edge 33, Type (0, 1), BuildingBlock: OJICUG_clean_linker_0, # of connection points: 2
#     Edge 34, Type (0, 1), BuildingBlock: OJICUG_clean_linker_0, # of connection points: 2
#     Edge 35, Type (0, 1), BuildingBlock: OJICUG_clean_linker_0, # of connection points: 2
#     Edge 36, Type (0, 1), BuildingBlock: OJICUG_clean_linker_0, # of connection points: 2
#     Edge 37, Type (0, 1), BuildingBlock: OJICUG_clean_linker_0, # of connection points: 2
#     Edge 38, Type (0, 1), BuildingBlock: OJICUG_clean_linker_0, # of connection points: 2
#     Edge 39, Type (0, 1), BuildingBlock: OJICUG_clean_linker_0, # of connection points: 2
#     Edge 40, Type (0, 1), BuildingBlock: OJICUG_clean_linker_0, # of connection points: 2
#     Edge 41, Type (0, 1), BuildingBlock: OJICUG_clean_linker_0, # of connection points: 2
#     Edge 42, Type (0, 1), BuildingBlock: OJICUG_clean_linker_0, # of connection points: 2
#     Edge 43, Type (0, 1), BuildingBlock: OJICUG_clean_linker_0, # of connection points: 2
#     Edge 44, Type (0, 1), BuildingBlock: OJICUG_clean_linker_0, # of connection points: 2
#     Edge 45, Type (0, 1), BuildingBlock: OJICUG_clean_linker_0, # of connection points: 2
#     Edge 46, Type (0, 1), BuildingBlock: OJICUG_clean_linker_0, # of connection points: 2
#     Edge 47, Type (0, 1), BuildingBlock: OJICUG_clean_linker_0, # of connection points: 2
#     Edge 48, Type (0, 1), BuildingBlock: OJICUG_clean_linker_0, # of connection points: 2
#     Edge 49, Type (0, 1), BuildingBlock: OJICUG_clean_linker_0, # of connection points: 2
#     Edge 50, Type (0, 1), BuildingBlock: OJICUG_clean_linker_0, # of connection points: 2
#     Edge 51, Type (0, 1), BuildingBlock: OJICUG_clean_linker_0, # of connection points: 2
#     Edge 52, Type (0, 1), BuildingBlock: OJICUG_clean_linker_0, # of connection points: 2
#     Edge 53, Type (0, 1), BuildingBlock: OJICUG_clean_linker_0, # of connection points: 2
#     Edge 54, Type (0, 1), BuildingBlock: OJICUG_clean_linker_0, # of connection points: 2
#     Edge 55, Type (0, 1), BuildingBlock: OJICUG_clean_linker_0, # of connection points: 2
#     Edge 56, Type (0, 1), BuildingBlock: OJICUG_clean_linker_0, # of connection points: 2
#     Edge 57, Type (0, 1), BuildingBlock: OJICUG_clean_linker_0, # of connection points: 2
#     Edge 58, Type (0, 1), BuildingBlock: OJICUG_clean_linker_0, # of connection points: 2
#     Edge 59, Type (0, 1), BuildingBlock: OJICUG_clean_linker_0, # of connection points: 2
#     Edge 60, Type (0, 1), BuildingBlock: OJICUG_clean_linker_0, # of connection points: 2
#     Edge 61, Type (0, 1), BuildingBlock: OJICUG_clean_linker_0, # of connection points: 2
#     Edge 62, Type (0, 1), BuildingBlock: OJICUG_clean_linker_0, # of connection points: 2
#     Edge 63, Type (0, 1), BuildingBlock: OJICUG_clean_linker_0, # of connection points: 2
#     Edge 64, Type (0, 1), BuildingBlock: OJICUG_clean_linker_0, # of connection points: 2
#     Edge 65, Type (0, 1), BuildingBlock: OJICUG_clean_linker_0, # of connection points: 2
#     Edge 66, Type (0, 1), BuildingBlock: OJICUG_clean_linker_0, # of connection points: 2
#     Edge 67, Type (0, 1), BuildingBlock: OJICUG_clean_linker_0, # of connection points: 2
#     Edge 68, Type (0, 1), BuildingBlock: OJICUG_clean_linker_0, # of connection points: 2
#     Edge 69, Type (0, 1), BuildingBlock: OJICUG_clean_linker_0, # of connection points: 2
#     Edge 70, Type (0, 1), BuildingBlock: OJICUG_clean_linker_0, # of connection points: 2
#     Edge 71, Type (0, 1), BuildingBlock: OJICUG_clean_linker_0, # of connection points: 2
#     Edge 72, Type (0, 1), BuildingBlock: OJICUG_clean_linker_0, # of connection points: 2
#     Edge 73, Type (0, 1), BuildingBlock: OJICUG_clean_linker_0, # of connection points: 2
#     Edge 74, Type (0, 1), BuildingBlock: OJICUG_clean_linker_0, # of connection points: 2
#     Edge 75, Type (0, 1), BuildingBlock: OJICUG_clean_linker_0, # of connection points: 2
# Relax obj value: 0.003
# Max RMSD: 0.045
# Mean RMSD: 0.021
data_MOF--net-ctn--node1-TATPOV_clean_sbu_0--node2-ESEHIV_clean_linker_0--edge1-OJICUG_clean_linker_0
_symmetry_space_group_name_H-M    P1
_symmetry_Int_Tables_number       1
_symmetry_cell_setting            triclinic
loop_
_symmetry_equiv_pos_as_xyz
'x, y, z'
_cell_length_a     36.456282
_cell_length_b     36.421728
_cell_length_c     36.352248
_cell_angle_alpha  91.410651
_cell_angle_beta   91.695264
_cell_angle_gamma 91.704042
loop_
_atom_site_label
_atom_site_type_symbol
_atom_site_fract_x
_atom_site_fract_y
_atom_site_fract_z
_atom_type_partial_charge
H0 H 0.98299 0.08082 0.03681 0.0
H1 H 0.03329 0.98618 0.0827 0.0
H2 H 0.07974 0.03774 0.98886 0.0
C3 C 0.00413 0.06052 0.03624 0.0
C4 C 0.03111 0.0624 0.00945 0.0
C5 C 0.00466 0.03311 0.06279 0.0
C6 C 0.03247 0.00719 0.06211 0.0
C7 C 0.05967 0.00861 0.03553 0.0
C8 C 0.05866 0.03624 0.00923 0.0
H9 H 0.27088 0.69554 0.29828 0.0
H10 H 0.29883 0.77099 0.21354 0.0
H11 H 0.19893 0.70611 0.20308 0.0
C12 C 0.26409 0.70865 0.27264 0.0
C13 C 0.2316 0.6979 0.25282 0.0
C14 C 0.28859 0.73511 0.2589 0.0
C15 C 0.2797 0.75153 0.22534 0.0
C16 C 0.24742 0.74125 0.2054 0.0
C17 C 0.2235 0.71442 0.21905 0.0
H18 H 0.97731 0.48902 0.10479 0.0
H19 H 0.03349 0.38886 0.0807 0.0
H20 H 0.96595 0.43712 0.9975 0.0
C21 C 0.98349 0.46675 0.08587 0.0
C22 C 0.96898 0.46666 0.04968 0.0
C23 C 0.00672 0.4387 0.09748 0.0
C24 C 0.01486 0.41003 0.07254 0.0
C25 C 0.00067 0.41 0.03628 0.0
C26 C 0.97742 0.43789 0.02539 0.0
H27 H 0.68911 0.69365 0.19935 0.0
H28 H 0.78119 0.76686 0.1803 0.0
H29 H 0.70662 0.79089 0.26682 0.0
C30 C 0.70595 0.7178 0.20707 0.0
C31 C 0.6949 0.74116 0.23552 0.0
C32 C 0.73771 0.72641 0.18761 0.0
C33 C 0.75757 0.75947 0.19621 0.0
C34 C 0.74632 0.78353 0.22429 0.0
C35 C 0.71567 0.77317 0.2447 0.0
H36 H 0.99485 0.9608 0.43179 0.0
H37 H 0.07087 0.03933 0.38843 0.0
H38 H 0.10473 0.97103 0.47791 0.0
C39 C 0.02223 0.9733 0.43214 0.0
C40 C 0.049 0.96178 0.4574 0.0
C41 C 0.02999 0.00081 0.40713 0.0
C42 C 0.065 0.0177 0.40755 0.0
C43 C 0.09183 0.00773 0.43383 0.0
C44 C 0.08373 0.97957 0.4585 0.0
H45 H 0.17504 0.77305 0.77912 0.0
H46 H 0.25659 0.69915 0.81805 0.0
H47 H 0.19199 0.67086 0.72042 0.0
C48 C 0.18982 0.74785 0.77587 0.0
C49 C 0.18029 0.72312 0.74649 0.0
C50 C 0.21769 0.73967 0.80164 0.0
C51 C 0.23584 0.70639 0.79772 0.0
C52 C 0.22678 0.68161 0.76854 0.0
C53 C 0.19932 0.69026 0.74273 0.0
H54 H 0.88295 0.58219 0.51522 0.0
H55 H 0.99654 0.59383 0.48494 0.0
H56 H 0.93258 0.49825 0.4504 0.0
C57 C 0.90691 0.57185 0.50197 0.0
C58 C 0.90416 0.53753 0.48339 0.0
C59 C 0.94004 0.59307 0.50227 0.0
C60 C 0.9704 0.57889 0.48406 0.0
C61 C 0.96767 0.54506 0.46495 0.0
C62 C 0.93464 0.52458 0.465 0.0
H63 H 0.78766 0.83008 0.8722 0.0
H64 H 0.83321 0.88122 0.7781 0.0
H65 H 0.88556 0.78876 0.82571 0.0
C66 C 0.80915 0.83219 0.85239 0.0
C67 C 0.83686 0.80614 0.85232 0.0
C68 C 0.8076 0.85941 0.82567 0.0
C69 C 0.83497 0.86099 0.79929 0.0
C70 C 0.86309 0.83538 0.79866 0.0
C71 C 0.86429 0.8088 0.82606 0.0
H72 H 0.29383 0.33229 0.37351 0.0
H73 H 0.33877 0.39016 0.28285 0.0
H74 H 0.37596 0.28296 0.30766 0.0
C75 C 0.31288 0.33397 0.35143 0.0
C76 C 0.33643 0.30462 0.34507 0.0
C77 C 0.312 0.36422 0.32805 0.0
C78 C 0.33775 0.36642 0.30017 0.0
C79 C 0.36043 0.337 0.29235 0.0
C80 C 0.3599 0.30641 0.31505 0.0
H81 H 0.46961 0.99083 0.59872 0.0
H82 H 0.54093 0.9032 0.56879 0.0
H83 H 0.46703 0.94632 0.48796 0.0
C84 C 0.47983 0.97204 0.57811 0.0
C85 C 0.4643 0.97112 0.54228 0.0
C86 C 0.50765 0.94774 0.58788 0.0
C87 C 0.51967 0.92215 0.56154 0.0
C88 C 0.50522 0.92196 0.5254 0.0
C89 C 0.478 0.94665 0.51602 0.0
H90 H 0.18015 0.20276 0.6945 0.0
H91 H 0.28274 0.26342 0.68425 0.0
H92 H 0.20389 0.29927 0.76192 0.0
C93 C 0.19922 0.22479 0.7035 0.0
C94 C 0.18897 0.24977 0.73101 0.0
C95 C 0.23291 0.22978 0.68596 0.0
C96 C 0.25652 0.25961 0.69713 0.0
C97 C 0.24651 0.28463 0.72478 0.0
C98 C 0.21264 0.27941 0.74151 0.0
H99 H 0.76989 0.18319 0.77878 0.0
H100 H 0.80619 0.27177 0.71166 0.0
H101 H 0.71219 0.20475 0.67659 0.0
C102 C 0.76617 0.19973 0.75465 0.0
C103 C 0.7375 0.19076 0.72885 0.0
C104 C 0.7909 0.22914 0.74883 0.0
C105 C 0.7866 0.24968 0.71694 0.0
C106 C 0.75852 0.241 0.6907 0.0
C107 C 0.73365 0.21183 0.69702 0.0
H108 H 0.4784 0.58489 0.53896 0.0
H109 H 0.52576 0.48674 0.58043 0.0
H110 H 0.57342 0.54063 0.4886 0.0
C111 C 0.49883 0.56394 0.53736 0.0
C112 C 0.52578 0.56611 0.51056 0.0
C113 C 0.49852 0.53533 0.5626 0.0
C114 C 0.52548 0.50861 0.56073 0.0
C115 C 0.55258 0.5103 0.53412 0.0
C116 C 0.5524 0.53902 0.50902 0.0
H117 H 0.50432 0.45955 0.92243 0.0
H118 H 0.58761 0.5315 0.88101 0.0
H119 H 0.60857 0.47198 0.98046 0.0
C120 C 0.53185 0.47168 0.92508 0.0
C121 C 0.5548 0.46301 0.95496 0.0
C122 C 0.54335 0.49643 0.89873 0.0
C123 C 0.57903 0.51177 0.90112 0.0
C124 C 0.60289 0.50293 0.93062 0.0
C125 C 0.59055 0.47849 0.95744 0.0
H126 H 0.66543 0.27124 0.27286 0.0
H127 H 0.75512 0.20271 0.3035 0.0
H128 H 0.69191 0.17809 0.20446 0.0
C129 C 0.68337 0.24883 0.2668 0.0
C130 C 0.67641 0.22679 0.23483 0.0
C131 C 0.71145 0.24025 0.29224 0.0
C132 C 0.73323 0.20996 0.28446 0.0
C133 C 0.72602 0.18742 0.25319 0.0
C134 C 0.69799 0.19613 0.22816 0.0
H135 H 0.39346 0.07001 0.03131 0.0
H136 H 0.49202 0.09518 0.97301 0.0
H137 H 0.44095 0.98738 0.96301 0.0
C138 C 0.41448 0.06184 0.01257 0.0
C139 C 0.41457 0.02554 0.99875 0.0
C140 C 0.44265 0.08705 0.00352 0.0
C141 C 0.47028 0.07583 0.97987 0.0
C142 C 0.47005 0.03985 0.96517 0.0
C143 C 0.44196 0.01507 0.97471 0.0
Zn144 Zn 0.29752 0.82668 0.00482 0.0
Zn145 Zn 0.23788 0.86515 0.00671 0.0
O146 O 0.23457 0.83297 0.05304 0.0
O147 O 0.28054 0.79576 0.04634 0.0
O148 O 0.19207 0.89496 0.00756 0.0
O149 O 0.32861 0.87243 0.01538 0.0
O150 O 0.27923 0.90537 0.01008 0.0
C151 C 0.25294 0.80576 0.06388 0.0
C152 C 0.25524 0.81774 0.93819 0.0
O153 O 0.23293 0.83709 0.95619 0.0
O154 O 0.28615 0.8105 0.95253 0.0
C155 C 0.1821 0.91069 0.03707 0.0
O156 O 0.20164 0.90669 0.06759 0.0
C157 C 0.31392 0.90348 0.01472 0.0
Zn158 Zn 0.09644 0.42789 0.31697 0.0
Zn159 Zn 0.12153 0.4966 0.29918 0.0
O160 O 0.0898 0.50728 0.3435 0.0
O161 O 0.06833 0.45229 0.35739 0.0
O162 O 0.14109 0.54584 0.2837 0.0
O163 O 0.14902 0.41456 0.32831 0.0
O164 O 0.16845 0.46889 0.30998 0.0
C165 C 0.07033 0.4867 0.36354 0.0
C166 C 0.07567 0.44847 0.24312 0.0
O167 O 0.09254 0.47824 0.25336 0.0
O168 O 0.07385 0.42177 0.26481 0.0
C169 C 0.15116 0.57177 0.30611 0.0
O170 O 0.14799 0.56714 0.34162 0.0
C171 C 0.17497 0.43726 0.32226 0.0
Zn172 Zn 0.82261 0.59058 0.92484 0.0
Zn173 Zn 0.8034 0.61999 0.99064 0.0
O174 O 0.84638 0.58798 0.00614 0.0
O175 O 0.86275 0.56474 0.95273 0.0
O176 O 0.78974 0.64655 0.0369 0.0
O177 O 0.83334 0.64119 0.90538 0.0
O178 O 0.81493 0.66388 0.95825 0.0
C179 C 0.86722 0.56777 0.9874 0.0
C180 C 0.74802 0.5715 0.9456 0.0
O181 O 0.75703 0.59042 0.97458 0.0
O182 O 0.77071 0.5678 0.92007 0.0
C183 C 0.77902 0.63196 0.06623 0.0
O184 O 0.77654 0.59599 0.06799 0.0
C185 C 0.82683 0.66846 0.92611 0.0
Zn186 Zn 0.8257 0.9906 0.3014 0.0
Zn187 Zn 0.86023 0.99666 0.23908 0.0
O188 O 0.82462 0.04047 0.23757 0.0
O189 O 0.79551 0.03322 0.2892 0.0
O190 O 0.88813 -0.00031 0.19201 0.0
O191 O 0.87276 -0.00041 0.33038 0.0
O192 O 0.90206 0.00351 0.27851 0.0
C193 C 0.80046 0.05073 0.26007 0.0
C194 C 0.81467 0.92645 0.25671 0.0
O195 O 0.83526 0.94443 0.23529 0.0
O196 O 0.80624 0.94023 0.28746 0.0
C197 C 0.9037 0.02968 0.18292 0.0
O198 O 0.90006 0.05923 0.2038 0.0
C199 C 0.90231 0.00467 0.31358 0.0
Zn200 Zn 0.3108 0.09054 0.42252 0.0
Zn201 Zn 0.29525 0.12335 0.48702 0.0
O202 O 0.33761 0.0904 0.50256 0.0
O203 O 0.34484 0.05844 0.4511 0.0
O204 O 0.2833 0.15112 0.53348 0.0
O205 O 0.32911 0.13897 0.40263 0.0
O206 O 0.30775 0.16533 0.4525 0.0
C207 C 0.35283 0.06468 0.48486 0.0
C208 C 0.23606 0.07802 0.44309 0.0
O209 O 0.24748 0.09487 0.47257 0.0
O210 O 0.2572 0.07442 0.41626 0.0
C211 C 0.26876 0.1367 0.56123 0.0
O212 O 0.26112 0.10121 0.56061 0.0
C213 C 0.3221 0.16765 0.42112 0.0
Zn214 Zn 0.33646 0.48628 0.80926 0.0
Zn215 Zn 0.36253 0.4939 0.74282 0.0
O216 O 0.32655 0.5369 0.74668 0.0
O217 O 0.30221 0.52723 0.80042 0.0
O218 O 0.385 0.49867 0.69315 0.0
O219 O 0.386 0.4989 0.83232 0.0
O220 O 0.40882 0.49982 0.77697 0.0
C221 C 0.30417 0.54578 0.77152 0.0
C222 C 0.32313 0.42175 0.76433 0.0
O223 O 0.33779 0.44194 0.74026 0.0
O224 O 0.32045 0.43392 0.79703 0.0
C225 C 0.40079 0.52882 0.68489 0.0
O226 O 0.39992 0.557 0.70811 0.0
C227 C 0.41322 0.50268 0.81181 0.0
Zn228 Zn 0.7949 0.34052 0.4869 0.0
Zn229 Zn 0.73079 0.37064 0.49587 0.0
O230 O 0.73538 0.33789 0.54185 0.0
O231 O 0.79155 0.31826 0.53653 0.0
O232 O 0.68256 0.39578 0.50058 0.0
O233 O 0.81892 0.39029 0.48089 0.0
O234 O 0.76701 0.41546 0.49581 0.0
C235 C 0.76224 0.31966 0.55427 0.0
C236 C 0.74406 0.31874 0.4296 0.0
O237 O 0.72415 0.34195 0.44582 0.0
O238 O 0.77543 0.31155 0.4428 0.0
C239 C 0.67391 0.4115 0.53056 0.0
O240 O 0.69599 0.40946 0.55963 0.0
C241 C 0.80073 0.4185 0.48793 0.0
Zn242 Zn 0.5932 0.9291 0.80722 0.0
Zn243 Zn 0.62091 0.99779 0.79292 0.0
O244 O 0.58836 0.00714 0.83704 0.0
O245 O 0.56601 0.95196 0.84911 0.0
O246 O 0.64297 0.04792 0.78283 0.0
O247 O 0.64459 0.91225 0.81699 0.0
O248 O 0.66651 0.9671 0.80275 0.0
C249 C 0.56846 0.98618 0.85629 0.0
C250 C 0.57389 0.95421 0.73444 0.0
O251 O 0.59173 0.98313 0.74567 0.0
O252 O 0.57093 0.92685 0.75515 0.0
C253 C 0.65509 0.05535 0.75134 0.0
O254 O 0.65255 0.03006 0.72491 0.0
C255 C 0.6715 0.93426 0.81258 0.0
Zn256 Zn 0.99559 0.30434 0.83393 0.0
Zn257 Zn -0.00026 0.24151 0.86696 0.0
O258 O 0.0431 0.23971 0.83092 0.0
O259 O 0.03518 0.29007 0.79984 0.0
O260 O 0.00177 0.19397 0.89413 0.0
O261 O 0.00917 0.33221 0.88074 0.0
O262 O 0.00631 0.28004 0.90985 0.0
C263 C 0.05258 0.26105 0.80528 0.0
C264 C 0.92872 0.26252 0.82553 0.0
O265 O 0.94779 0.23873 0.84198 0.0
O266 O 0.94254 0.29408 0.81986 0.0
C267 C 0.03117 0.18487 0.91072 0.0
O268 O 0.06077 0.20609 0.90854 0.0
C269 C 0.01085 0.31489 0.91046 0.0
Zn270 Zn 0.50359 0.80567 0.32596 0.0
Zn271 Zn 0.50287 0.74616 0.36689 0.0
O272 O 0.54713 0.73845 0.3336 0.0
O273 O 0.54263 0.78378 0.29484 0.0
O274 O 0.50142 0.70094 0.39777 0.0
O275 O 0.51758 0.83659 0.3714 0.0
O276 O 0.51096 0.78798 0.4056 0.0
C277 C 0.55821 0.75511 0.30539 0.0
C278 C 0.43438 0.76747 0.32092 0.0
O279 O 0.45157 0.74476 0.34073 0.0
O280 O 0.45027 0.79706 0.3117 0.0
C281 C 0.53036 0.69059 0.41435 0.0
O282 O 0.56123 0.70951 0.41066 0.0
C283 C 0.51748 0.82235 0.40285 0.0
Zn284 Zn 0.93591 0.81123 0.58677 0.0
Zn285 Zn 0.00174 0.79567 0.61481 0.0
O286 O 0.01492 0.83861 0.58195 0.0
O287 O 0.96248 0.84341 0.55094 0.0
O288 O 0.0499 0.78353 0.63917 0.0
O289 O 0.92088 0.83183 0.63604 0.0
O290 O 0.97065 0.80731 0.65936 0.0
C291 C 0.99608 0.85252 0.5561 0.0
C292 C 0.95428 0.73674 0.5734 0.0
O293 O 0.98555 0.74875 0.58569 0.0
O294 O 0.92673 0.75707 0.57379 0.0
C295 C 0.05284 0.75304 0.65507 0.0
O296 O 0.02467 0.72963 0.65397 0.0
C297 C 0.94055 0.82343 0.66362 0.0
Zn298 Zn 0.42864 0.31118 0.0732 0.0
Zn299 Zn 0.49411 0.29621 0.10655 0.0
O300 O 0.50855 0.33786 0.07278 0.0
O301 O 0.45571 0.35126 0.04616 0.0
O302 O 0.5417 0.2852 0.1324 0.0
O303 O 0.40877 0.32297 0.12319 0.0
O304 O 0.46183 0.31017 0.14957 0.0
C305 C 0.49001 0.35713 0.05071 0.0
C306 C 0.45068 0.23682 0.06022 0.0
O307 O 0.47858 0.24802 0.07971 0.0
O308 O 0.42497 0.25846 0.05315 0.0
C309 C 0.54642 0.25406 0.14647 0.0
O310 O 0.51997 0.22878 0.14331 0.0
C311 C 0.42881 0.32015 0.15198 0.0
C312 C 0.1994 0.77981 0.85516 0.0
C313 C 0.22701 0.76439 0.83393 0.0
H314 H 0.18661 0.80903 0.90497 0.0
C315 C 0.26386 0.77005 0.84559 0.0
H316 H 0.17073 0.77576 0.84699 0.0
C317 C 0.27285 0.78857 0.87878 0.0
C318 C 0.24525 0.80225 0.90108 0.0
H319 H 0.28581 0.75923 0.82948 0.0
H320 H 0.30152 0.79139 0.88738 0.0
C321 C 0.20847 0.7987 0.88843 0.0
C322 C 0.00674 0.49406 0.44322 0.0
C323 C 0.99843 0.53146 0.44317 0.0
H324 H 0.03605 0.45065 0.4182 0.0
C325 C 0.01711 0.55489 0.41938 0.0
H326 H 0.99333 0.4755 0.46179 0.0
C327 C 0.0419 0.5407 0.3945 0.0
C328 C 0.04824 0.50282 0.39291 0.0
H329 H 0.01112 0.58382 0.41863 0.0
H330 H 0.05474 0.5591 0.37541 0.0
C331 C 0.03125 0.47986 0.41828 0.0
C332 C 0.80011 0.75667 0.88299 0.0
C333 C 0.83453 0.77333 0.87604 0.0
H334 H 0.77103 0.71051 0.90495 0.0
C335 C 0.86649 0.75615 0.88875 0.0
H336 H 0.77484 0.76832 0.87302 0.0
C337 C 0.8641 0.72222 0.90587 0.0
C338 C 0.82973 0.70551 0.91158 0.0
H339 H 0.89344 0.76839 0.88466 0.0
H340 H 0.88904 0.7088 0.91415 0.0
C341 C 0.79779 0.72329 0.90093 0.0
C342 C 0.0028 0.00353 0.3433 0.0
C343 C 0.00038 0.01105 0.3812 0.0
H344 H 0.97315 0.99561 0.29163 0.0
C345 C 0.96678 0.02144 0.39537 0.0
H346 H 0.02847 0.99511 0.33196 0.0
C347 C 0.93535 0.02124 0.37272 0.0
C348 C 0.93689 0.01076 0.33537 0.0
H349 H 0.96441 0.0274 0.42455 0.0
H350 H 0.90949 0.02769 0.38493 0.0
C351 C 0.97116 0.00352 0.3204 0.0
C352 C 0.23541 0.16732 0.65483 0.0
C353 C 0.2425 0.20548 0.65442 0.0
H354 H 0.2383 0.11556 0.62585 0.0
C355 C 0.25836 0.22061 0.6232 0.0
H356 H 0.22345 0.15479 0.67857 0.0
C357 C 0.26704 0.19822 0.5932 0.0
C358 C 0.25996 0.16009 0.59353 0.0
H359 H 0.26354 0.24995 0.62161 0.0
H360 H 0.27906 0.21095 0.56959 0.0
C361 C 0.24408 0.14484 0.6247 0.0
C362 C 0.45347 0.50085 0.60086 0.0
C363 C 0.47115 0.53417 0.59205 0.0
H364 H 0.41698 0.47308 0.63672 0.0
C365 C 0.46368 0.56613 0.6126 0.0
H366 H 0.45837 0.47587 0.58522 0.0
C367 C 0.43999 0.56457 0.64211 0.0
C368 C 0.4231 0.53106 0.65158 0.0
H369 H 0.47712 0.59215 0.60668 0.0
H370 H 0.43557 0.58953 0.65796 0.0
C371 C 0.4296 0.49933 0.63022 0.0
C372 C 0.726 0.27583 0.64076 0.0
C373 C 0.75805 0.26038 0.65529 0.0
H374 H 0.70209 0.30742 0.59747 0.0
C375 C 0.79075 0.26418 0.63618 0.0
H376 H 0.70044 0.27328 0.65506 0.0
C377 C 0.79175 0.28342 0.60364 0.0
C378 C 0.76004 0.29955 0.58917 0.0
H379 H 0.81575 0.2521 0.64642 0.0
H380 H 0.81765 0.28573 0.5899 0.0
C381 C 0.72703 0.29551 0.60802 0.0
C382 C 0.52839 0.91711 0.64551 0.0
C383 C 0.52427 0.94932 0.62555 0.0
H384 H 0.54695 0.89342 0.69578 0.0
C385 C 0.53642 0.98314 0.64164 0.0
H386 H 0.51903 0.89072 0.63378 0.0
C387 C 0.55271 0.98471 0.67693 0.0
C388 C 0.55669 0.95252 0.69705 0.0
H389 H 0.53381 0.00834 0.62668 0.0
H390 H 0.562 0.01118 0.68851 0.0
C391 C 0.54421 0.91871 0.68103 0.0
C392 C 0.84522 0.20858 0.78655 0.0
C393 C 0.82317 0.23707 0.77401 0.0
H394 H 0.89606 0.19423 0.81295 0.0
C395 C 0.83435 0.27363 0.78242 0.0
H396 H 0.83747 0.18012 0.7803 0.0
C397 C 0.86796 0.28166 0.80056 0.0
C398 C 0.8911 0.25333 0.81109 0.0
H399 H 0.81764 0.29616 0.7738 0.0
H400 H 0.87628 0.31022 0.80536 0.0
C401 C 0.87886 0.21665 0.80506 0.0
C402 C 0.52711 0.90849 0.46251 0.0
C403 C 0.51687 0.89554 0.49687 0.0
H404 H 0.53582 0.89544 0.40598 0.0
C405 C 0.512 0.85758 0.50149 0.0
H406 H 0.53123 0.93768 0.45842 0.0
C407 C 0.51435 0.83319 0.47129 0.0
C408 C 0.52165 0.84653 0.43615 0.0
H409 H 0.50387 0.84705 0.52774 0.0
H410 H 0.50839 0.80424 0.47508 0.0
C411 C 0.52956 0.88426 0.43249 0.0
C412 C 0.14246 0.22268 0.77299 0.0
C413 C 0.15191 0.24814 0.74622 0.0
H414 H 0.10322 0.20662 0.813 0.0
C415 C 0.12724 0.27532 0.73677 0.0
H416 H 0.1614 0.20165 0.78077 0.0
C417 C 0.09426 0.27816 0.75484 0.0
C418 C 0.08531 0.25408 0.78314 0.0
H419 H 0.13413 0.29524 0.71621 0.0
H420 H 0.0764 0.30023 0.74745 0.0
C421 C 0.10932 0.22563 0.79141 0.0
C422 C 0.56044 0.6157 0.4782 0.0
C423 C 0.52694 0.59741 0.4851 0.0
H424 H 0.58779 0.65941 0.45064 0.0
C425 C 0.49459 0.60967 0.46807 0.0
H426 H 0.58579 0.60721 0.49127 0.0
C427 C 0.4957 0.63967 0.44478 0.0
C428 C 0.52918 0.65819 0.43819 0.0
H429 H 0.46841 0.59593 0.47258 0.0
H430 H 0.47026 0.64849 0.43218 0.0
C431 C 0.56154 0.64577 0.45507 0.0
C432 C 0.89727 0.8651 0.74702 0.0
C433 C 0.88799 0.83344 0.76676 0.0
H434 H 0.9206 0.8866 0.69809 0.0
C435 C 0.89984 0.79917 0.75352 0.0
H436 H 0.88972 0.89212 0.75661 0.0
C437 C 0.91917 0.79653 0.7211 0.0
C438 C 0.92596 0.82777 0.70048 0.0
H439 H 0.89265 0.77386 0.76689 0.0
H440 H 0.9268 0.76967 0.71095 0.0
C441 C 0.91535 0.86215 0.71373 0.0
C442 C 0.05145 0.93251 0.51965 0.0
C443 C 0.03972 0.93139 0.48238 0.0
H444 H 0.04695 0.90782 0.57253 0.0
C445 C 0.01648 0.90207 0.46939 0.0
H446 H 0.06927 0.95473 0.53058 0.0
C447 C 0.00292 0.87625 0.49346 0.0
C448 C 0.01324 0.87834 0.53087 0.0
H449 H 0.00793 0.89951 0.44063 0.0
H450 H 0.98404 0.85473 0.48282 0.0
C451 C 0.03855 0.90588 0.54369 0.0
C452 C 0.1446 0.7653 0.70634 0.0
C453 C 0.14882 0.73041 0.72125 0.0
H454 H 0.11115 0.79974 0.67326 0.0
C455 C 0.122 0.70269 0.71303 0.0
H456 H 0.16501 0.78708 0.71203 0.0
C457 C 0.09116 0.7099 0.69101 0.0
C458 C 0.0866 0.74493 0.67652 0.0
H459 H 0.12433 0.67565 0.72448 0.0
H460 H 0.07067 0.68811 0.68574 0.0
C461 C 0.11387 0.77244 0.68401 0.0
C462 C 0.96688 0.65765 0.50722 0.0
C463 C 0.94318 0.63016 0.52081 0.0
H464 H 0.98961 0.71242 0.51407 0.0
C465 C 0.92293 0.63858 0.55222 0.0
H466 H 0.98202 0.65308 0.48245 0.0
C467 C 0.92624 0.67345 0.56929 0.0
C468 C 0.95068 0.70005 0.55601 0.0
H469 H 0.90486 0.61823 0.56402 0.0
H470 H 0.91024 0.67942 0.59324 0.0
C471 C 0.97108 0.6919 0.52505 0.0
C472 C 0.74347 0.8506 0.24137 0.0
C473 C 0.76452 0.82054 0.23072 0.0
H474 H 0.74317 0.90724 0.25823 0.0
C475 C 0.80252 0.82654 0.22615 0.0
H476 H 0.71401 0.84781 0.24376 0.0
C477 C 0.81898 0.86147 0.23298 0.0
C478 C 0.79786 0.89063 0.24527 0.0
H479 H 0.81974 0.80417 0.21819 0.0
H480 H 0.84832 0.86532 0.23007 0.0
C481 C 0.76004 0.88494 0.24916 0.0
C482 C 0.73352 0.1255 0.27739 0.0
C483 C 0.74298 0.15128 0.25115 0.0
H484 H 0.74358 0.07348 0.30016 0.0
C485 C 0.76948 0.14287 0.22525 0.0
H486 H 0.71289 0.13146 0.2974 0.0
C487 C 0.78761 0.10941 0.22688 0.0
C488 C 0.77913 0.08418 0.25434 0.0
H489 H 0.77698 0.16259 0.20474 0.0
H490 H 0.80895 0.10388 0.20758 0.0
C491 C 0.7512 0.09232 0.27889 0.0
C492 C 0.34951 0.00138 0.00254 0.0
C493 C 0.38724 0.99734 0.0096 0.0
H494 H 0.29623 0.97452 0.99864 0.0
C495 C 0.39964 0.9639 0.02282 0.0
H496 H 0.33941 0.02696 0.99222 0.0
C497 C 0.37529 0.93414 0.02638 0.0
C498 C 0.3379 0.93706 0.01673 0.0
H499 H 0.42859 0.9603 0.02882 0.0
H500 H 0.38614 0.90833 0.03526 0.0
C501 C 0.32493 0.97137 0.00608 0.0
C502 C 0.26667 0.40392 0.29532 0.0
C503 C 0.28052 0.38968 0.32858 0.0
H504 H 0.22277 0.43109 0.26783 0.0
C505 C 0.26091 0.39603 0.36089 0.0
H506 H 0.27993 0.39919 0.26948 0.0
C507 C 0.22693 0.41285 0.35925 0.0
C508 C 0.21282 0.42519 0.32566 0.0
H509 H 0.27092 0.38675 0.38728 0.0
H510 H 0.21126 0.41543 0.384 0.0
C511 C 0.23351 0.42198 0.29408 0.0
C512 C 0.1433 0.0397 0.47002 0.0
C513 C 0.12825 0.02683 0.43591 0.0
H514 H 0.18896 0.06643 0.499 0.0
C515 C 0.14836 0.03195 0.40401 0.0
H516 H 0.12814 0.03641 0.49498 0.0
C517 C 0.18327 0.04891 0.40629 0.0
C518 C 0.19851 0.0615 0.44047 0.0
H519 H 0.13742 0.02213 0.37741 0.0
H520 H 0.19836 0.05199 0.38128 0.0
C521 C 0.17799 0.05708 0.47226 0.0
C522 C 0.70613 0.1325 0.70454 0.0
C523 C 0.7136 0.15763 0.73396 0.0
H524 H 0.6819 0.08056 0.68694 0.0
C525 C 0.69999 0.1497 0.76876 0.0
H526 H 0.7166 0.13759 0.6775 0.0
C527 C 0.68018 0.11691 0.77423 0.0
C528 C 0.67372 0.09125 0.74506 0.0
H529 H 0.705 0.1687 0.79188 0.0
H530 H 0.67061 0.11138 0.80153 0.0
C531 C 0.68647 0.09966 0.71003 0.0
C532 C 0.4055 0.98066 0.50727 0.0
C533 C 0.43342 0.99481 0.5316 0.0
H534 H 0.35864 0.99191 0.47325 0.0
C535 C 0.43242 0.03185 0.54351 0.0
H536 H 0.40454 0.95199 0.49853 0.0
C537 C 0.40514 0.05461 0.52968 0.0
C538 C 0.37901 0.04072 0.50336 0.0
H539 H 0.45349 0.0436 0.56225 0.0
H540 H 0.40553 0.08334 0.53819 0.0
C541 C 0.37901 0.00344 0.49292 0.0
C542 C 0.6008 0.47394 0.56617 0.0
C543 C 0.58207 0.48305 0.53346 0.0
H544 H 0.6445 0.44425 0.59094 0.0
C545 C 0.59259 0.46697 0.50001 0.0
H546 H 0.59351 0.48615 0.59232 0.0
C547 C 0.6217 0.44285 0.49921 0.0
C548 C 0.64115 0.43456 0.5318 0.0
H549 H 0.57841 0.47322 0.47442 0.0
H550 H 0.62946 0.43137 0.47289 0.0
C551 C 0.63012 0.45007 0.56534 0.0
C552 C 0.72707 0.24192 0.35998 0.0
C553 C 0.7165 0.26073 0.32817 0.0
H554 H 0.7443 0.24583 0.41673 0.0
C555 C 0.71144 0.2989 0.33122 0.0
H556 H 0.7298 0.2124 0.35936 0.0
C557 C 0.71833 0.31786 0.3649 0.0
C558 C 0.73102 0.29902 0.39574 0.0
H559 H 0.70338 0.31435 0.30739 0.0
H560 H 0.71551 0.34738 0.36637 0.0
C561 C 0.73485 0.26093 0.39311 0.0
C562 C 0.51178 0.99195 0.94118 0.0
C563 C 0.49864 0.0278 0.93957 0.0
H564 H 0.54399 0.95075 0.91605 0.0
C565 C 0.51144 0.05104 0.91205 0.0
H566 H 0.50338 0.97364 0.96261 0.0
C567 C 0.53553 0.03809 0.88578 0.0
C568 C 0.54678 0.00156 0.88628 0.0
H569 H 0.50171 0.07873 0.90986 0.0
H570 H 0.544 0.05615 0.86416 0.0
C571 C 0.53525 0.97887 0.91463 0.0
C572 C 0.36421 0.24802 0.37212 0.0
C573 C 0.33371 0.27053 0.36712 0.0
H574 H 0.38421 0.19724 0.39255 0.0
C575 C 0.30001 0.25913 0.38194 0.0
H576 H 0.39083 0.25595 0.36195 0.0
C577 C 0.29695 0.22648 0.40102 0.0
C578 C 0.327 0.20369 0.40452 0.0
H579 H 0.27539 0.27455 0.37788 0.0
H580 H 0.27056 0.21819 0.41158 0.0
C581 C 0.36066 0.21457 0.38998 0.0
C582 C 0.5137 0.49155 0.83593 0.0
C583 C 0.51568 0.50782 0.87137 0.0
H584 H 0.47907 0.47765 0.78843 0.0
C585 C 0.48589 0.52747 0.88407 0.0
H586 H 0.53624 0.47573 0.826 0.0
C587 C 0.45325 0.52784 0.86326 0.0
C588 C 0.44998 0.50892 0.82918 0.0
H589 H 0.48683 0.53983 0.91153 0.0
H590 H 0.42986 0.54115 0.87483 0.0
C591 C 0.48099 0.49243 0.81468 0.0
C592 C 0.74744 0.66356 0.16005 0.0
C593 C 0.7488 0.70199 0.15682 0.0
H594 H 0.75606 0.61119 0.13405 0.0
C595 C 0.76029 0.717 0.12371 0.0
H596 H 0.73896 0.65119 0.18534 0.0
C597 C 0.77026 0.6942 0.09453 0.0
C598 C 0.76887 0.65578 0.09765 0.0
H599 H 0.761 0.74643 0.12004 0.0
H600 H 0.7788 0.7068 0.06936 0.0
C601 C 0.75739 0.64067 0.13075 0.0
C602 C 0.96052 0.99906 0.10254 0.0
C603 C 0.97715 0.0324 0.09218 0.0
H604 H 0.924 0.97204 0.13896 0.0
C605 C 0.96821 0.065 0.11092 0.0
H606 H 0.96655 0.97354 0.08836 0.0
C607 C 0.94385 0.06418 0.13991 0.0
C608 C 0.92772 0.03076 0.15072 0.0
H609 H 0.98083 0.09108 0.10386 0.0
H610 H 0.9381 0.08973 0.15418 0.0
C611 C 0.93598 0.99826 0.1314 0.0
C612 C 0.25344 0.73508 0.13788 0.0
C613 C 0.24166 0.75554 0.16819 0.0
H614 H 0.26602 0.73509 0.08079 0.0
C615 C 0.22944 0.79131 0.16321 0.0
H616 H 0.26329 0.70755 0.14136 0.0
C617 C 0.23043 0.80698 0.12842 0.0
C618 C 0.24458 0.78732 0.09852 0.0
H619 H 0.22062 0.80758 0.1865 0.0
H620 H 0.2224 0.83518 0.12547 0.0
C621 C 0.25511 0.75089 0.10338 0.0
C622 C 0.02588 0.40956 0.15679 0.0
C623 C 0.02422 0.44077 0.13488 0.0
H624 H 0.04317 0.38748 0.20838 0.0
C625 C 0.03979 0.47423 0.14873 0.0
H626 H 0.01397 0.38345 0.14683 0.0
C627 C 0.05654 0.47655 0.18374 0.0
C628 C 0.058 0.44549 0.20589 0.0
H629 H 0.03946 0.49862 0.13227 0.0
H630 H 0.06827 0.50282 0.19345 0.0
C631 C 0.04246 0.41193 0.19205 0.0
C632 C 0.3454 0.71587 0.29367 0.0
C633 C 0.32466 0.7438 0.27791 0.0
H634 H 0.39627 0.70139 0.3198 0.0
C635 C 0.33964 0.77982 0.27849 0.0
H636 H 0.33498 0.68771 0.29327 0.0
C637 C 0.37496 0.78748 0.29307 0.0
C638 C 0.39608 0.75939 0.30784 0.0
H639 H 0.32421 0.80213 0.26726 0.0
H640 H 0.38583 0.81545 0.29245 0.0
C641 C 0.38066 0.72363 0.30867 0.0
C642 C 0.02722 0.39558 0.97597 0.0
C643 C 0.01128 0.38281 0.00807 0.0
H644 H 0.03999 0.38384 0.92012 0.0
C645 C 0.00025 0.34565 0.00987 0.0
H646 H 0.03607 0.42413 0.97411 0.0
C647 C 0.00241 0.32233 0.97873 0.0
C648 C 0.01543 0.33615 0.94555 0.0
H649 H 0.98768 0.33538 0.03437 0.0
H650 H 0.99166 0.29436 0.9799 0.0
C651 C 0.02926 0.37253 0.94505 0.0
C652 C 0.62722 0.74446 0.23124 0.0
C653 C 0.65873 0.73597 0.25198 0.0
H654 H 0.57033 0.75733 0.23226 0.0
C655 C 0.6559 0.729 0.2896 0.0
H656 H 0.62902 0.75042 0.20228 0.0
C657 C 0.62214 0.73215 0.30664 0.0
C658 C 0.59124 0.74348 0.28641 0.0
H659 H 0.68011 0.72289 0.30607 0.0
H660 H 0.62088 0.72841 0.33606 0.0
C661 C 0.5938 0.74857 0.2484 0.0
C662 C 0.99861 0.10298 0.96489 0.0
C663 C 0.03132 0.09259 0.98266 0.0
H664 H 0.97293 0.13993 0.92793 0.0
C665 C 0.06418 0.11191 0.97544 0.0
H666 H 0.97294 0.08836 0.9696 0.0
C667 C 0.06422 0.14144 0.95158 0.0
C668 C 0.03142 0.15222 0.93426 0.0
H669 H 0.08977 0.10482 0.98899 0.0
H670 H 0.08992 0.15611 0.94714 0.0
C671 C 0.99868 0.13239 0.94086 0.0
C672 C 0.36153 0.34577 0.22455 0.0
C673 C 0.37994 0.33574 0.25713 0.0
H674 H 0.36252 0.34889 0.16608 0.0
C675 C 0.41552 0.32216 0.25513 0.0
H676 H 0.33381 0.35566 0.22502 0.0
C677 C 0.43203 0.31806 0.22105 0.0
C678 C 0.41307 0.32715 0.18841 0.0
H679 H 0.43033 0.3143 0.27983 0.0
H680 H 0.45922 0.30691 0.22022 0.0
C681 C 0.37788 0.34155 0.19065 0.0
C682 C 0.50376 0.44146 0.99425 0.0
C683 C 0.5403 0.43838 0.98342 0.0
H684 H 0.45928 0.41801 0.02358 0.0
C685 C 0.5614 0.41014 0.99789 0.0
H686 H 0.48706 0.46356 0.98454 0.0
C687 C 0.54554 0.38433 0.02107 0.0
C688 C 0.50828 0.38619 0.02971 0.0
H689 H 0.58959 0.40703 0.99004 0.0
H690 H 0.56195 0.36206 0.03088 0.0
C691 C 0.48784 0.41545 0.01673 0.0
C692 C 0.6372 0.26923 0.19874 0.0
C693 C 0.64422 0.23363 0.2105 0.0
H694 H 0.60091 0.30359 0.16883 0.0
C695 C 0.61946 0.20466 0.20015 0.0
H696 H 0.65596 0.29198 0.20626 0.0
C697 C 0.5879 0.21125 0.17898 0.0
C698 C 0.58061 0.24691 0.16751 0.0
H699 H 0.62398 0.17701 0.20926 0.0
H700 H 0.56907 0.18843 0.1719 0.0
C701 C 0.60578 0.27579 0.17724 0.0
C702 C 0.41301 0.14684 0.01749 0.0
C703 C 0.44404 0.12497 0.01921 0.0
H704 H 0.39085 0.19962 0.02866 0.0
C705 C 0.477 0.13989 0.03499 0.0
H706 H 0.38734 0.13599 0.00526 0.0
C707 C 0.47904 0.1761 0.0485 0.0
C708 C 0.44823 0.19832 0.04618 0.0
H709 H 0.50124 0.12346 0.03695 0.0
H710 H 0.50489 0.18677 0.06044 0.0
C711 C 0.41514 0.18328 0.03064 0.0
C712 C 0.28583 0.33918 0.70765 0.0
C713 C 0.27003 0.31756 0.73492 0.0
H714 H 0.31509 0.38915 0.69546 0.0
C715 C 0.27455 0.32911 0.77196 0.0
H716 H 0.28258 0.33115 0.67883 0.0
C717 C 0.2929 0.3623 0.78145 0.0
C718 C 0.30726 0.38482 0.75413 0.0
H719 H 0.26322 0.31276 0.79364 0.0
H720 H 0.29503 0.37069 0.81025 0.0
C721 C 0.30428 0.3725 0.71717 0.0
C722 C 0.26307 0.63353 0.7362 0.0
C723 C 0.24424 0.64553 0.76723 0.0
H724 H 0.29735 0.59241 0.71313 0.0
C725 C 0.24331 0.62352 0.79827 0.0
H726 H 0.26407 0.65019 0.71194 0.0
C727 C 0.26177 0.59064 0.79888 0.0
C728 C 0.28201 0.57908 0.76857 0.0
H729 H 0.2286 0.63203 0.82235 0.0
H730 H 0.26089 0.57479 0.82368 0.0
C731 C 0.2821 0.60061 0.73694 0.0
C732 C 0.85357 0.50527 0.51668 0.0
C733 C 0.87034 0.51381 0.48347 0.0
H734 H 0.81733 0.46786 0.54404 0.0
C735 C 0.85847 0.49476 0.45094 0.0
H736 H 0.86231 0.51939 0.54216 0.0
C737 C 0.83354 0.46512 0.4522 0.0
C738 C 0.81919 0.45466 0.48579 0.0
H739 H 0.8704 0.50119 0.42483 0.0
H740 H 0.82697 0.4491 0.42722 0.0
C741 C 0.82799 0.47581 0.5178 0.0
C742 C 0.7599 0.8914 0.78781 0.0
C743 C 0.77506 0.88314 0.82266 0.0
H744 H 0.71539 0.91498 0.75761 0.0
C745 C 0.75709 0.89526 0.85432 0.0
H746 H 0.7722 0.88185 0.76272 0.0
C747 C 0.72388 0.91333 0.85112 0.0
C748 C 0.70866 0.92046 0.8163 0.0
H749 H 0.76816 0.88998 0.88158 0.0
H750 H 0.70965 0.92097 0.87579 0.0
C751 C 0.72719 0.91018 0.78472 0.0
C752 C 0.65294 0.53564 0.96839 0.0
C753 C 0.64012 0.5204 0.93436 0.0
H754 H 0.6969 0.56392 0.99859 0.0
C755 C 0.66298 0.52211 0.90398 0.0
H756 H 0.63573 0.53508 0.99217 0.0
C757 C 0.69812 0.53848 0.90766 0.0
C758 C 0.71093 0.55387 0.94169 0.0
H759 H 0.65383 0.51039 0.87748 0.0
H760 H 0.71514 0.53926 0.88375 0.0
C761 C 0.6879 0.55235 0.97199 0.0
C762 C 0.19418 0.6396 0.24158 0.0
C763 C 0.20791 0.66742 0.26617 0.0
H764 H 0.16545 0.58775 0.23483 0.0
C765 C 0.20079 0.66459 0.30383 0.0
H766 H 0.19955 0.64066 0.21247 0.0
C767 C 0.18149 0.63401 0.31676 0.0
C768 C 0.16886 0.60562 0.29228 0.0
H769 H 0.21057 0.68582 0.32341 0.0
H770 H 0.17712 0.63232 0.34601 0.0
C771 C 0.17484 0.60909 0.25447 0.0
C772 C 0.9172 0.51039 0.05741 0.0
C773 C 0.94564 0.49661 0.03624 0.0
H774 H 0.86993 0.54418 0.05858 0.0
C775 C 0.95023 0.5098 0.00059 0.0
H776 H 0.91296 0.50076 0.08496 0.0
C777 C 0.92545 0.53398 0.98541 0.0
C778 C 0.89581 0.54616 0.0057 0.0
H779 H 0.97251 0.50062 0.98393 0.0
H780 H 0.92908 0.54252 0.95737 0.0
C781 C 0.89254 0.53514 0.0423 0.0
C782 C 0.10815 0.97399 0.06934 0.0
C783 C 0.08998 0.9822 0.03603 0.0
H784 H 0.15143 0.94512 0.0958 0.0
C785 C 0.1017 0.96583 0.00316 0.0
H786 H 0.10004 0.98647 0.09509 0.0
C787 C 0.13119 0.94213 0.00354 0.0
C788 C 0.14978 0.93444 0.03679 0.0
H789 H 0.08801 0.97133 0.97711 0.0
H790 H 0.13969 0.93021 0.97768 0.0
C791 C 0.13775 0.95045 0.06971 0.0
loop_
_geom_bond_atom_site_label_1
_geom_bond_atom_site_label_2
_geom_bond_distance
_geom_bond_site_symmetry_2
_ccdc_geom_bond_type
H0 C3 0.931 1_655 S
H1 C6 0.928 1_565 S
H2 C8 0.930 1_556 S
C3 H0 0.931 1_455 S
C3 C4 1.413 . S
C3 C5 1.360 . S
C4 C3 1.413 . S
C4 C8 1.429 . S
C5 C3 1.360 . S
C5 C6 1.372 . S
C6 H1 0.928 1_545 S
C6 C5 1.372 . S
C6 C7 1.404 . S
C7 C6 1.404 . S
C7 C8 1.391 . S
C8 H2 0.930 1_554 S
C8 C4 1.429 . S
C8 C7 1.391 . S
H9 C12 0.931 . S
H10 C15 0.928 . S
H11 C17 0.930 . S
C12 H9 0.931 . S
C12 C13 1.413 . S
C12 C14 1.360 . S
C13 C12 1.413 . S
C13 C17 1.429 . S
C14 C12 1.360 . S
C14 C15 1.372 . S
C15 H10 0.928 . S
C15 C14 1.372 . S
C15 C16 1.404 . S
C16 C15 1.404 . S
C16 C17 1.391 . S
C17 H11 0.930 . S
C17 C13 1.429 . S
C17 C16 1.391 . S
H18 C21 0.931 . S
H19 C24 0.928 1_455 S
H20 C26 0.930 . S
C21 H18 0.931 . S
C21 C22 1.413 . S
C21 C23 1.360 . S
C22 C21 1.413 . S
C22 C26 1.429 . S
C23 C21 1.360 . S
C23 C24 1.372 . S
C24 H19 0.928 1_655 S
C24 C23 1.372 . S
C24 C25 1.404 . S
C25 C24 1.404 . S
C25 C26 1.391 . S
C26 H20 0.930 . S
C26 C22 1.429 . S
C26 C25 1.391 . S
H27 C30 0.931 . S
H28 C33 0.928 . S
H29 C35 0.930 . S
C30 H27 0.931 . S
C30 C31 1.413 . S
C30 C32 1.360 . S
C31 C30 1.413 . S
C31 C35 1.429 . S
C32 C30 1.360 . S
C32 C33 1.372 . S
C33 H28 0.928 . S
C33 C32 1.372 . S
C33 C34 1.404 . S
C34 C33 1.404 . S
C34 C35 1.391 . S
C35 H29 0.930 . S
C35 C31 1.429 . S
C35 C34 1.391 . S
H36 C39 0.931 . S
H37 C42 0.948 . S
H38 C44 0.930 . S
C39 H36 0.931 . S
C39 C40 1.413 . S
C39 C41 1.360 . S
C40 C39 1.413 . S
C40 C44 1.429 . S
C41 C39 1.360 . S
C41 C42 1.372 . S
C42 H37 0.948 . S
C42 C41 1.372 . S
C42 C43 1.404 . S
C43 C42 1.404 . S
C43 C44 1.391 . S
C44 H38 0.930 . S
C44 C40 1.429 . S
C44 C43 1.391 . S
H45 C48 0.931 . S
H46 C51 0.928 . S
H47 C53 0.930 . S
C48 H45 0.931 . S
C48 C49 1.413 . S
C48 C50 1.360 . S
C49 C48 1.413 . S
C49 C53 1.429 . S
C50 C48 1.360 . S
C50 C51 1.372 . S
C51 H46 0.928 . S
C51 C50 1.372 . S
C51 C52 1.404 . S
C52 C51 1.404 . S
C52 C53 1.391 . S
C53 H47 0.930 . S
C53 C49 1.429 . S
C53 C52 1.391 . S
H54 C57 0.931 . S
H55 C60 0.928 1_455 S
H56 C62 0.930 . S
C57 H54 0.931 . S
C57 C58 1.413 . S
C57 C59 1.360 . S
C58 C57 1.413 . S
C58 C62 1.429 . S
C59 C57 1.360 . S
C59 C60 1.372 . S
C60 H55 0.928 1_655 S
C60 C59 1.372 . S
C60 C61 1.404 . S
C61 C60 1.404 . S
C61 C62 1.391 . S
C62 H56 0.930 . S
C62 C58 1.429 . S
C62 C61 1.391 . S
H63 C66 0.931 . S
H64 C69 0.928 . S
H65 C71 0.930 . S
C66 H63 0.931 . S
C66 C67 1.413 . S
C66 C68 1.360 . S
C67 C66 1.413 . S
C67 C71 1.429 . S
C68 C66 1.360 . S
C68 C69 1.372 . S
C69 H64 0.928 . S
C69 C68 1.372 . S
C69 C70 1.404 . S
C70 C69 1.404 . S
C70 C71 1.391 . S
C71 H65 0.930 . S
C71 C67 1.429 . S
C71 C70 1.391 . S
H72 C75 0.931 . S
H73 C78 0.928 . S
H74 C80 0.930 . S
C75 H72 0.931 . S
C75 C76 1.413 . S
C75 C77 1.360 . S
C76 C75 1.413 . S
C76 C80 1.429 . S
C77 C75 1.360 . S
C77 C78 1.372 . S
C78 H73 0.928 . S
C78 C77 1.372 . S
C78 C79 1.404 . S
C79 C78 1.404 . S
C79 C80 1.391 . S
C80 H74 0.930 . S
C80 C76 1.429 . S
C80 C79 1.391 . S
H81 C84 0.931 1_545 S
H82 C87 0.928 . S
H83 C89 0.930 . S
C84 H81 0.931 1_565 S
C84 C85 1.413 . S
C84 C86 1.360 . S
C85 C84 1.413 . S
C85 C89 1.429 . S
C86 C84 1.360 . S
C86 C87 1.372 . S
C87 H82 0.928 . S
C87 C86 1.372 . S
C87 C88 1.404 . S
C88 C87 1.404 . S
C88 C89 1.391 . S
C89 H83 0.930 . S
C89 C85 1.429 . S
C89 C88 1.391 . S
H90 C93 0.931 . S
H91 C96 0.928 . S
H92 C98 0.930 . S
C93 H90 0.931 . S
C93 C94 1.413 . S
C93 C95 1.360 . S
C94 C93 1.413 . S
C94 C98 1.429 . S
C95 C93 1.360 . S
C95 C96 1.372 . S
C96 H91 0.928 . S
C96 C95 1.372 . S
C96 C97 1.404 . S
C97 C96 1.404 . S
C97 C98 1.391 . S
C98 H92 0.930 . S
C98 C94 1.429 . S
C98 C97 1.391 . S
H99 C102 0.931 . S
H100 C105 0.928 . S
H101 C107 0.930 . S
C102 H99 0.931 . S
C102 C103 1.413 . S
C102 C104 1.360 . S
C103 C102 1.413 . S
C103 C107 1.429 . S
C104 C102 1.360 . S
C104 C105 1.372 . S
C105 H100 0.928 . S
C105 C104 1.372 . S
C105 C106 1.404 . S
C106 C105 1.404 . S
C106 C107 1.391 . S
C107 H101 0.930 . S
C107 C103 1.429 . S
C107 C106 1.391 . S
H108 C111 0.931 . S
H109 C114 0.928 . S
H110 C116 0.930 . S
C111 H108 0.931 . S
C111 C112 1.413 . S
C111 C113 1.360 . S
C112 C111 1.413 . S
C112 C116 1.429 . S
C113 C111 1.360 . S
C113 C114 1.372 . S
C114 H109 0.928 . S
C114 C113 1.372 . S
C114 C115 1.404 . S
C115 C114 1.404 . S
C115 C116 1.391 . S
C116 H110 0.930 . S
C116 C112 1.429 . S
C116 C115 1.391 . S
H117 C120 0.931 . S
H118 C123 0.928 . S
H119 C125 0.930 1_554 S
C120 H117 0.931 . S
C120 C121 1.413 . S
C120 C122 1.360 . S
C121 C120 1.413 . S
C121 C125 1.429 . S
C122 C120 1.360 . S
C122 C123 1.372 . S
C123 H118 0.928 . S
C123 C122 1.372 . S
C123 C124 1.404 . S
C124 C123 1.404 . S
C124 C125 1.391 . S
C125 H119 0.930 1_556 S
C125 C121 1.429 . S
C125 C124 1.391 . S
H126 C129 0.931 . S
H127 C132 0.928 . S
H128 C134 0.930 . S
C129 H126 0.931 . S
C129 C130 1.413 . S
C129 C131 1.360 . S
C130 C129 1.413 . S
C130 C134 1.429 . S
C131 C129 1.360 . S
C131 C132 1.372 . S
C132 H127 0.928 . S
C132 C131 1.372 . S
C132 C133 1.404 . S
C133 C132 1.404 . S
C133 C134 1.391 . S
C134 H128 0.930 . S
C134 C130 1.429 . S
C134 C133 1.391 . S
H135 C138 0.928 1_554 S
H136 C141 0.928 . S
H137 C143 0.930 . S
C138 H135 0.928 1_556 S
C138 C139 1.413 . S
C138 C140 1.360 . S
C139 C138 1.413 . S
C139 C143 1.429 . S
C140 C138 1.360 . S
C140 C141 1.372 . S
C141 H136 0.928 . S
C141 C140 1.372 . S
C141 C142 1.404 . S
C142 C141 1.404 . S
C142 C143 1.391 . S
C143 H137 0.930 . S
C143 C139 1.429 . S
C143 C142 1.391 . S
Zn144 O147 2.031 1_556 S
Zn144 O149 2.049 . S
Zn144 O154 2.067 . S
Zn145 O146 1.962 . S
Zn145 O148 1.986 . S
Zn145 O150 1.996 . S
Zn145 O153 1.943 1_554 S
O146 Zn145 1.962 . S
O146 C151 1.254 . S
O147 Zn144 2.031 1_554 S
O147 C151 1.269 . S
O148 Zn145 1.986 . S
O148 C155 1.262 . S
O149 Zn144 2.049 . S
O149 C157 1.260 . S
O150 Zn145 1.996 . S
O150 C157 1.257 1_554 S
C151 O146 1.254 . S
C151 O147 1.269 . S
C152 O153 1.249 . S
C152 O154 1.270 . S
O153 Zn145 1.943 1_556 S
O153 C152 1.249 . S
O154 Zn144 2.067 . S
O154 C152 1.270 . S
C155 O148 1.262 . S
C155 O156 1.232 . S
O156 C155 1.232 . S
C157 O149 1.260 . S
C157 O150 1.257 1_556 S
Zn158 O161 2.031 . S
Zn158 O163 2.049 . S
Zn158 O168 2.067 . S
Zn159 O160 1.962 . S
Zn159 O162 1.986 . S
Zn159 O164 1.996 . S
Zn159 O167 1.943 . S
O160 Zn159 1.962 . S
O160 C165 1.254 . S
O161 Zn158 2.031 . S
O161 C165 1.269 . S
O162 Zn159 1.986 . S
O162 C169 1.262 . S
O163 Zn158 2.049 . S
O163 C171 1.260 . S
O164 Zn159 1.996 . S
O164 C171 1.257 . S
C165 O160 1.254 . S
C165 O161 1.269 . S
C166 O167 1.249 . S
C166 O168 1.270 . S
O167 Zn159 1.943 . S
O167 C166 1.249 . S
O168 Zn158 2.067 . S
O168 C166 1.270 . S
C169 O162 1.262 . S
C169 O170 1.232 . S
O170 C169 1.232 . S
C171 O163 1.260 . S
C171 O164 1.257 . S
Zn172 O175 2.031 . S
Zn172 O177 2.049 . S
Zn172 O182 2.067 . S
Zn173 O174 1.962 . S
Zn173 O176 1.986 . S
Zn173 O178 1.996 1_554 S
Zn173 O181 1.943 . S
O174 Zn173 1.962 . S
O174 C179 1.254 . S
O175 Zn172 2.031 . S
O175 C179 1.269 1_556 S
O176 Zn173 1.986 . S
O176 C183 1.262 . S
O177 Zn172 2.049 . S
O177 C185 1.260 . S
O178 Zn173 1.996 1_556 S
O178 C185 1.257 . S
C179 O174 1.254 . S
C179 O175 1.269 1_554 S
C180 O181 1.249 1_556 S
C180 O182 1.270 . S
O181 Zn173 1.943 . S
O181 C180 1.249 1_554 S
O182 Zn172 2.067 . S
O182 C180 1.270 . S
C183 O176 1.262 . S
C183 O184 1.232 . S
O184 C183 1.232 . S
C185 O177 1.260 . S
C185 O178 1.257 . S
Zn186 O189 2.030 . S
Zn186 O191 2.050 1_545 S
Zn186 O196 2.069 1_545 S
Zn187 O188 1.962 . S
Zn187 O190 1.986 . S
Zn187 O192 1.996 . S
Zn187 O195 1.943 1_545 S
O188 Zn187 1.962 . S
O188 C193 1.254 . S
O189 Zn186 2.030 . S
O189 C193 1.269 . S
O190 Zn187 1.986 . S
O190 C197 1.262 . S
O191 Zn186 2.050 1_565 S
O191 C199 1.260 . S
O192 Zn187 1.996 . S
O192 C199 1.257 1_545 S
C193 O188 1.254 . S
C193 O189 1.269 . S
C194 O195 1.249 . S
C194 O196 1.270 . S
O195 Zn187 1.943 1_565 S
O195 C194 1.249 . S
O196 Zn186 2.069 1_565 S
O196 C194 1.270 . S
C197 O190 1.262 . S
C197 O198 1.232 . S
O198 C197 1.232 . S
C199 O191 1.260 . S
C199 O192 1.257 1_565 S
Zn200 O203 2.031 . S
Zn200 O205 2.049 . S
Zn200 O210 2.067 . S
Zn201 O202 1.962 . S
Zn201 O204 1.986 . S
Zn201 O206 1.996 . S
Zn201 O209 1.943 . S
O202 Zn201 1.962 . S
O202 C207 1.254 . S
O203 Zn200 2.031 . S
O203 C207 1.269 . S
O204 Zn201 1.986 . S
O204 C211 1.262 . S
O205 Zn200 2.049 . S
O205 C213 1.260 . S
O206 Zn201 1.996 . S
O206 C213 1.257 . S
C207 O202 1.254 . S
C207 O203 1.269 . S
C208 O209 1.249 . S
C208 O210 1.270 . S
O209 Zn201 1.943 . S
O209 C208 1.249 . S
O210 Zn200 2.067 . S
O210 C208 1.270 . S
C211 O204 1.262 . S
C211 O212 1.232 . S
O212 C211 1.232 . S
C213 O205 1.260 . S
C213 O206 1.257 . S
Zn214 O217 2.031 . S
Zn214 O219 2.049 . S
Zn214 O224 2.067 . S
Zn215 O216 1.962 . S
Zn215 O218 1.986 . S
Zn215 O220 1.996 . S
Zn215 O223 1.943 . S
O216 Zn215 1.962 . S
O216 C221 1.254 . S
O217 Zn214 2.031 . S
O217 C221 1.269 . S
O218 Zn215 1.986 . S
O218 C225 1.262 . S
O219 Zn214 2.049 . S
O219 C227 1.260 . S
O220 Zn215 1.996 . S
O220 C227 1.257 . S
C221 O216 1.254 . S
C221 O217 1.269 . S
C222 O223 1.249 . S
C222 O224 1.270 . S
O223 Zn215 1.943 . S
O223 C222 1.249 . S
O224 Zn214 2.067 . S
O224 C222 1.270 . S
C225 O218 1.262 . S
C225 O226 1.232 . S
O226 C225 1.232 . S
C227 O219 1.260 . S
C227 O220 1.257 . S
Zn228 O231 2.031 . S
Zn228 O233 2.049 . S
Zn228 O238 2.067 . S
Zn229 O230 1.962 . S
Zn229 O232 1.986 . S
Zn229 O234 1.996 . S
Zn229 O237 1.943 . S
O230 Zn229 1.962 . S
O230 C235 1.254 . S
O231 Zn228 2.031 . S
O231 C235 1.269 . S
O232 Zn229 1.986 . S
O232 C239 1.262 . S
O233 Zn228 2.049 . S
O233 C241 1.260 . S
O234 Zn229 1.996 . S
O234 C241 1.257 . S
C235 O230 1.254 . S
C235 O231 1.269 . S
C236 O237 1.249 . S
C236 O238 1.270 . S
O237 Zn229 1.943 . S
O237 C236 1.249 . S
O238 Zn228 2.067 . S
O238 C236 1.270 . S
C239 O232 1.262 . S
C239 O240 1.232 . S
O240 C239 1.232 . S
C241 O233 1.260 . S
C241 O234 1.257 . S
Zn242 O245 2.031 . S
Zn242 O247 2.049 . S
Zn242 O252 2.067 . S
Zn243 O244 1.962 . S
Zn243 O246 1.986 . S
Zn243 O248 1.996 1_545 S
Zn243 O251 1.943 . S
O244 Zn243 1.962 . S
O244 C249 1.254 . S
O245 Zn242 2.031 . S
O245 C249 1.269 1_565 S
O246 Zn243 1.986 . S
O246 C253 1.262 . S
O247 Zn242 2.049 . S
O247 C255 1.260 . S
O248 Zn243 1.996 1_565 S
O248 C255 1.257 . S
C249 O244 1.254 . S
C249 O245 1.269 1_545 S
C250 O251 1.249 1_565 S
C250 O252 1.270 . S
O251 Zn243 1.943 . S
O251 C250 1.249 1_545 S
O252 Zn242 2.067 . S
O252 C250 1.270 . S
C253 O246 1.262 . S
C253 O254 1.232 . S
O254 C253 1.232 . S
C255 O247 1.260 . S
C255 O248 1.257 . S
Zn256 O259 2.027 1_655 S
Zn256 O261 2.052 . S
Zn256 O266 2.073 . S
Zn257 O258 1.962 . S
Zn257 O260 1.986 . S
Zn257 O262 1.996 . S
Zn257 O265 1.943 1_455 S
O258 Zn257 1.962 . S
O258 C263 1.254 . S
O259 Zn256 2.027 1_455 S
O259 C263 1.269 . S
O260 Zn257 1.986 . S
O260 C267 1.262 . S
O261 Zn256 2.052 . S
O261 C269 1.260 . S
O262 Zn257 1.996 . S
O262 C269 1.257 1_455 S
C263 O258 1.254 . S
C263 O259 1.269 . S
C264 O265 1.249 . S
C264 O266 1.270 . S
O265 Zn257 1.943 1_655 S
O265 C264 1.249 . S
O266 Zn256 2.073 . S
O266 C264 1.270 . S
C267 O260 1.262 . S
C267 O268 1.232 . S
O268 C267 1.232 . S
C269 O261 1.260 . S
C269 O262 1.257 1_655 S
Zn270 O273 2.031 . S
Zn270 O275 2.049 . S
Zn270 O280 2.067 . S
Zn271 O272 1.962 . S
Zn271 O274 1.986 . S
Zn271 O276 1.996 . S
Zn271 O279 1.943 . S
O272 Zn271 1.962 . S
O272 C277 1.254 . S
O273 Zn270 2.031 . S
O273 C277 1.269 . S
O274 Zn271 1.986 . S
O274 C281 1.262 . S
O275 Zn270 2.049 . S
O275 C283 1.260 . S
O276 Zn271 1.996 . S
O276 C283 1.257 . S
C277 O272 1.254 . S
C277 O273 1.269 . S
C278 O279 1.249 . S
C278 O280 1.270 . S
O279 Zn271 1.943 . S
O279 C278 1.249 . S
O280 Zn270 2.067 . S
O280 C278 1.270 . S
C281 O274 1.262 . S
C281 O282 1.232 . S
O282 C281 1.232 . S
C283 O275 1.260 . S
C283 O276 1.257 . S
Zn284 O287 2.031 . S
Zn284 O289 2.049 . S
Zn284 O294 2.067 . S
Zn285 O286 1.962 . S
Zn285 O288 1.986 . S
Zn285 O290 1.996 1_455 S
Zn285 O293 1.943 . S
O286 Zn285 1.962 . S
O286 C291 1.254 . S
O287 Zn284 2.031 . S
O287 C291 1.269 1_655 S
O288 Zn285 1.986 . S
O288 C295 1.262 . S
O289 Zn284 2.049 . S
O289 C297 1.260 . S
O290 Zn285 1.996 1_655 S
O290 C297 1.257 . S
C291 O286 1.254 . S
C291 O287 1.269 1_455 S
C292 O293 1.249 1_655 S
C292 O294 1.270 . S
O293 Zn285 1.943 . S
O293 C292 1.249 1_455 S
O294 Zn284 2.067 . S
O294 C292 1.270 . S
C295 O288 1.262 . S
C295 O296 1.232 . S
O296 C295 1.232 . S
C297 O289 1.260 . S
C297 O290 1.257 . S
Zn298 O301 2.031 . S
Zn298 O303 2.049 . S
Zn298 O308 2.067 . S
Zn299 O300 1.962 . S
Zn299 O302 1.986 . S
Zn299 O304 1.996 . S
Zn299 O307 1.943 . S
O300 Zn299 1.962 . S
O300 C305 1.254 . S
O301 Zn298 2.031 . S
O301 C305 1.269 . S
O302 Zn299 1.986 . S
O302 C309 1.262 . S
O303 Zn298 2.049 . S
O303 C311 1.260 . S
O304 Zn299 1.996 . S
O304 C311 1.257 . S
C305 O300 1.254 . S
C305 O301 1.269 . S
C306 O307 1.249 . S
C306 O308 1.270 . S
O307 Zn299 1.943 . S
O307 C306 1.249 . S
O308 Zn298 2.067 . S
O308 C306 1.270 . S
C309 O302 1.262 . S
C309 O310 1.232 . S
O310 C309 1.232 . S
C311 O303 1.260 . S
C311 O304 1.257 . S
C312 C313 1.387 . S
C312 H316 0.950 . S
C312 C321 1.390 . S
C313 C312 1.387 . S
C313 C315 1.387 . S
H314 C321 0.950 . S
C315 C313 1.387 . S
C315 C317 1.390 . S
C315 H319 0.950 . S
H316 C312 0.950 . S
C317 C315 1.390 . S
C317 C318 1.387 . S
C317 H320 0.950 . S
C318 C317 1.387 . S
C318 C321 1.387 . S
H319 C315 0.950 . S
H320 C317 0.950 . S
C321 C312 1.390 . S
C321 H314 0.950 . S
C321 C318 1.387 . S
C322 C323 1.387 . S
C322 H326 0.945 1_455 S
C322 C331 1.390 . S
C323 C322 1.387 . S
C323 C325 1.387 . S
H324 C331 0.950 . S
C325 C323 1.387 . S
C325 C327 1.390 . S
C325 H329 0.950 . S
H326 C322 0.945 1_655 S
C327 C325 1.390 . S
C327 C328 1.387 . S
C327 H330 0.950 . S
C328 C327 1.387 . S
C328 C331 1.387 . S
H329 C325 0.950 . S
H330 C327 0.950 . S
C331 C322 1.390 . S
C331 H324 0.950 . S
C331 C328 1.387 . S
C332 C333 1.387 . S
C332 H336 0.950 . S
C332 C341 1.390 . S
C333 C332 1.387 . S
C333 C335 1.387 . S
H334 C341 0.950 . S
C335 C333 1.387 . S
C335 C337 1.390 . S
C335 H339 0.950 . S
H336 C332 0.950 . S
C337 C335 1.390 . S
C337 C338 1.387 . S
C337 H340 0.950 . S
C338 C337 1.387 . S
C338 C341 1.387 . S
H339 C335 0.950 . S
H340 C337 0.950 . S
C341 C332 1.390 . S
C341 H334 0.950 . S
C341 C338 1.387 . S
C342 C343 1.387 1_655 S
C342 H346 0.950 1_655 S
C342 C351 1.390 . S
C343 C342 1.387 1_455 S
C343 C345 1.395 1_455 S
H344 C351 0.950 . S
C345 C343 1.395 1_655 S
C345 C347 1.388 1_565 S
C345 H349 0.944 1_665 S
H346 C342 0.950 1_455 S
C347 C345 1.388 1_545 S
C347 C348 1.387 1_545 S
C347 H350 0.950 . S
C348 C347 1.387 1_565 S
C348 C351 1.387 . S
H349 C345 0.944 1_445 S
H350 C347 0.950 . S
C351 C342 1.390 . S
C351 H344 0.950 . S
C351 C348 1.387 . S
C352 C353 1.387 . S
C352 H356 0.950 . S
C352 C361 1.390 . S
C353 C352 1.387 . S
C353 C355 1.387 . S
H354 C361 0.950 . S
C355 C353 1.387 . S
C355 C357 1.390 . S
C355 H359 0.950 . S
H356 C352 0.950 . S
C357 C355 1.390 . S
C357 C358 1.387 . S
C357 H360 0.950 . S
C358 C357 1.387 . S
C358 C361 1.387 . S
H359 C355 0.950 . S
H360 C357 0.950 . S
C361 C352 1.390 . S
C361 H354 0.950 . S
C361 C358 1.387 . S
C362 C363 1.387 . S
C362 H366 0.950 . S
C362 C371 1.390 . S
C363 C362 1.387 . S
C363 C365 1.387 . S
H364 C371 0.950 . S
C365 C363 1.387 . S
C365 C367 1.390 . S
C365 H369 0.950 . S
H366 C362 0.950 . S
C367 C365 1.390 . S
C367 C368 1.387 . S
C367 H370 0.950 . S
C368 C367 1.387 . S
C368 C371 1.387 . S
H369 C365 0.950 . S
H370 C367 0.950 . S
C371 C362 1.390 . S
C371 H364 0.950 . S
C371 C368 1.387 . S
C372 C373 1.387 . S
C372 H376 0.950 . S
C372 C381 1.390 . S
C373 C372 1.387 . S
C373 C375 1.387 . S
H374 C381 0.950 . S
C375 C373 1.387 . S
C375 C377 1.390 . S
C375 H379 0.950 . S
H376 C372 0.950 . S
C377 C375 1.390 . S
C377 C378 1.387 . S
C377 H380 0.950 . S
C378 C377 1.387 . S
C378 C381 1.387 . S
H379 C375 0.950 . S
H380 C377 0.950 . S
C381 C372 1.390 . S
C381 H374 0.950 . S
C381 C378 1.387 . S
C382 C383 1.387 . S
C382 H386 0.950 . S
C382 C391 1.390 . S
C383 C382 1.387 . S
C383 C385 1.387 1_565 S
H384 C391 0.950 . S
C385 C383 1.387 1_545 S
C385 C387 1.390 . S
C385 H389 0.950 . S
H386 C382 0.950 . S
C387 C385 1.390 . S
C387 C388 1.387 1_545 S
C387 H390 0.950 . S
C388 C387 1.387 1_565 S
C388 C391 1.387 . S
H389 C385 0.950 . S
H390 C387 0.950 . S
C391 C382 1.390 . S
C391 H384 0.950 . S
C391 C388 1.387 . S
C392 C393 1.387 . S
C392 H396 0.950 . S
C392 C401 1.390 . S
C393 C392 1.387 . S
C393 C395 1.387 . S
H394 C401 0.950 . S
C395 C393 1.387 . S
C395 C397 1.390 . S
C395 H399 0.950 . S
H396 C392 0.950 . S
C397 C395 1.390 . S
C397 C398 1.387 . S
C397 H400 0.950 . S
C398 C397 1.387 . S
C398 C401 1.387 . S
H399 C395 0.950 . S
H400 C397 0.950 . S
C401 C392 1.390 . S
C401 H394 0.950 . S
C401 C398 1.387 . S
C402 C403 1.387 . S
C402 H406 0.950 . S
C402 C411 1.390 . S
C403 C402 1.387 . S
C403 C405 1.387 . S
H404 C411 0.950 . S
C405 C403 1.387 . S
C405 C407 1.390 . S
C405 H409 0.950 . S
H406 C402 0.950 . S
C407 C405 1.390 . S
C407 C408 1.387 . S
C407 H410 0.950 . S
C408 C407 1.387 . S
C408 C411 1.387 . S
H409 C405 0.950 . S
H410 C407 0.950 . S
C411 C402 1.390 . S
C411 H404 0.950 . S
C411 C408 1.387 . S
C412 C413 1.387 . S
C412 H416 0.950 . S
C412 C421 1.390 . S
C413 C412 1.387 . S
C413 C415 1.387 . S
H414 C421 0.950 . S
C415 C413 1.387 . S
C415 C417 1.390 . S
C415 H419 0.950 . S
H416 C412 0.950 . S
C417 C415 1.390 . S
C417 C418 1.387 . S
C417 H420 0.950 . S
C418 C417 1.387 . S
C418 C421 1.387 . S
H419 C415 0.950 . S
H420 C417 0.950 . S
C421 C412 1.390 . S
C421 H414 0.950 . S
C421 C418 1.387 . S
C422 C423 1.387 . S
C422 H426 0.950 . S
C422 C431 1.390 . S
C423 C422 1.387 . S
C423 C425 1.387 . S
H424 C431 0.950 . S
C425 C423 1.387 . S
C425 C427 1.390 . S
C425 H429 0.950 . S
H426 C422 0.950 . S
C427 C425 1.390 . S
C427 C428 1.387 . S
C427 H430 0.950 . S
C428 C427 1.387 . S
C428 C431 1.387 . S
H429 C425 0.950 . S
H430 C427 0.950 . S
C431 C422 1.390 . S
C431 H424 0.950 . S
C431 C428 1.387 . S
C432 C433 1.387 . S
C432 H436 0.950 . S
C432 C441 1.390 . S
C433 C432 1.387 . S
C433 C435 1.387 . S
H434 C441 0.950 . S
C435 C433 1.387 . S
C435 C437 1.390 . S
C435 H439 0.950 . S
H436 C432 0.950 . S
C437 C435 1.390 . S
C437 C438 1.387 . S
C437 H440 0.950 . S
C438 C437 1.387 . S
C438 C441 1.387 . S
H439 C435 0.950 . S
H440 C437 0.950 . S
C441 C432 1.390 . S
C441 H434 0.950 . S
C441 C438 1.387 . S
C442 C443 1.387 . S
C442 H446 0.950 . S
C442 C451 1.390 . S
C443 C442 1.387 . S
C443 C445 1.387 . S
H444 C451 0.950 . S
C445 C443 1.387 . S
C445 C447 1.390 . S
C445 H449 0.950 . S
H446 C442 0.950 . S
C447 C445 1.390 . S
C447 C448 1.387 . S
C447 H450 0.950 . S
C448 C447 1.387 . S
C448 C451 1.387 . S
H449 C445 0.950 . S
H450 C447 0.950 . S
C451 C442 1.390 . S
C451 H444 0.950 . S
C451 C448 1.387 . S
C452 C453 1.387 . S
C452 H456 0.950 . S
C452 C461 1.390 . S
C453 C452 1.387 . S
C453 C455 1.387 . S
H454 C461 0.950 . S
C455 C453 1.387 . S
C455 C457 1.390 . S
C455 H459 0.950 . S
H456 C452 0.950 . S
C457 C455 1.390 . S
C457 C458 1.387 . S
C457 H460 0.950 . S
C458 C457 1.387 . S
C458 C461 1.387 . S
H459 C455 0.950 . S
H460 C457 0.950 . S
C461 C452 1.390 . S
C461 H454 0.950 . S
C461 C458 1.387 . S
C462 C463 1.387 . S
C462 H466 0.950 . S
C462 C471 1.390 . S
C463 C462 1.387 . S
C463 C465 1.387 . S
H464 C471 0.950 . S
C465 C463 1.387 . S
C465 C467 1.390 . S
C465 H469 0.950 . S
H466 C462 0.950 . S
C467 C465 1.390 . S
C467 C468 1.387 . S
C467 H470 0.950 . S
C468 C467 1.387 . S
C468 C471 1.387 . S
H469 C465 0.950 . S
H470 C467 0.950 . S
C471 C462 1.390 . S
C471 H464 0.950 . S
C471 C468 1.387 . S
C472 C473 1.387 . S
C472 H476 0.950 . S
C472 C481 1.390 . S
C473 C472 1.387 . S
C473 C475 1.387 . S
H474 C481 0.950 . S
C475 C473 1.387 . S
C475 C477 1.390 . S
C475 H479 0.950 . S
H476 C472 0.950 . S
C477 C475 1.390 . S
C477 C478 1.387 . S
C477 H480 0.950 . S
C478 C477 1.387 . S
C478 C481 1.387 . S
H479 C475 0.950 . S
H480 C477 0.950 . S
C481 C472 1.390 . S
C481 H474 0.950 . S
C481 C478 1.387 . S
C482 C483 1.387 . S
C482 H486 0.950 . S
C482 C491 1.390 . S
C483 C482 1.387 . S
C483 C485 1.387 . S
H484 C491 0.950 . S
C485 C483 1.387 . S
C485 C487 1.390 . S
C485 H489 0.950 . S
H486 C482 0.950 . S
C487 C485 1.390 . S
C487 C488 1.387 . S
C487 H490 0.950 . S
C488 C487 1.387 . S
C488 C491 1.387 . S
H489 C485 0.950 . S
H490 C487 0.950 . S
C491 C482 1.390 . S
C491 H484 0.950 . S
C491 C488 1.387 . S
C492 C493 1.387 1_565 S
C492 H496 0.950 . S
C492 C501 1.390 . S
C493 C492 1.387 1_545 S
C493 C495 1.405 . S
H494 C501 0.950 . S
C495 C493 1.405 . S
C495 C497 1.386 1_546 S
C495 H499 0.936 1_556 S
H496 C492 0.950 . S
C497 C495 1.386 1_564 S
C497 C498 1.387 1_554 S
C497 H500 0.950 . S
C498 C497 1.387 1_556 S
C498 C501 1.387 . S
H499 C495 0.936 1_554 S
H500 C497 0.950 . S
C501 C492 1.390 . S
C501 H494 0.950 . S
C501 C498 1.387 . S
C502 C503 1.387 . S
C502 H506 0.950 . S
C502 C511 1.390 . S
C503 C502 1.387 . S
C503 C505 1.387 . S
H504 C511 0.950 . S
C505 C503 1.387 . S
C505 C507 1.390 . S
C505 H509 0.950 . S
H506 C502 0.950 . S
C507 C505 1.390 . S
C507 C508 1.387 . S
C507 H510 0.950 . S
C508 C507 1.387 . S
C508 C511 1.387 . S
H509 C505 0.950 . S
H510 C507 0.950 . S
C511 C502 1.390 . S
C511 H504 0.950 . S
C511 C508 1.387 . S
C512 C513 1.387 . S
C512 H516 0.950 . S
C512 C521 1.390 . S
C513 C512 1.387 . S
C513 C515 1.387 . S
H514 C521 0.950 . S
C515 C513 1.387 . S
C515 C517 1.390 . S
C515 H519 0.950 . S
H516 C512 0.950 . S
C517 C515 1.390 . S
C517 C518 1.387 . S
C517 H520 0.950 . S
C518 C517 1.387 . S
C518 C521 1.387 . S
H519 C515 0.950 . S
H520 C517 0.950 . S
C521 C512 1.390 . S
C521 H514 0.950 . S
C521 C518 1.387 . S
C522 C523 1.387 . S
C522 H526 0.950 . S
C522 C531 1.390 . S
C523 C522 1.387 . S
C523 C525 1.387 . S
H524 C531 0.950 . S
C525 C523 1.387 . S
C525 C527 1.390 . S
C525 H529 0.950 . S
H526 C522 0.950 . S
C527 C525 1.390 . S
C527 C528 1.387 . S
C527 H530 0.950 . S
C528 C527 1.387 . S
C528 C531 1.387 . S
H529 C525 0.950 . S
H530 C527 0.950 . S
C531 C522 1.390 . S
C531 H524 0.950 . S
C531 C528 1.387 . S
C532 C533 1.393 . S
C532 H536 0.924 1_545 S
C532 C541 1.411 . S
C533 C532 1.393 . S
C533 C535 1.387 . S
H534 C541 0.950 . S
C535 C533 1.387 . S
C535 C537 1.390 . S
C535 H539 0.950 . S
H536 C532 0.924 1_565 S
C537 C535 1.390 . S
C537 C538 1.387 . S
C537 H540 0.950 . S
C538 C537 1.387 . S
C538 C541 1.387 . S
H539 C535 0.950 . S
H540 C537 0.950 . S
C541 C532 1.411 . S
C541 H534 0.950 . S
C541 C538 1.387 . S
C542 C543 1.387 . S
C542 H546 0.950 . S
C542 C551 1.390 . S
C543 C542 1.387 . S
C543 C545 1.387 . S
H544 C551 0.950 . S
C545 C543 1.387 . S
C545 C547 1.390 . S
C545 H549 0.950 . S
H546 C542 0.950 . S
C547 C545 1.390 . S
C547 C548 1.387 . S
C547 H550 0.950 . S
C548 C547 1.387 . S
C548 C551 1.387 . S
H549 C545 0.950 . S
H550 C547 0.950 . S
C551 C542 1.390 . S
C551 H544 0.950 . S
C551 C548 1.387 . S
C552 C553 1.387 . S
C552 H556 0.950 . S
C552 C561 1.390 . S
C553 C552 1.387 . S
C553 C555 1.387 . S
H554 C561 0.950 . S
C555 C553 1.387 . S
C555 C557 1.390 . S
C555 H559 0.950 . S
H556 C552 0.950 . S
C557 C555 1.390 . S
C557 C558 1.387 . S
C557 H560 0.950 . S
C558 C557 1.387 . S
C558 C561 1.387 . S
H559 C555 0.950 . S
H560 C557 0.950 . S
C561 C552 1.390 . S
C561 H554 0.950 . S
C561 C558 1.387 . S
C562 C563 1.387 . S
C562 H566 0.950 . S
C562 C571 1.390 . S
C563 C562 1.387 . S
C563 C565 1.387 . S
H564 C571 0.950 1_565 S
C565 C563 1.387 . S
C565 C567 1.390 . S
C565 H569 0.950 . S
H566 C562 0.950 . S
C567 C565 1.390 . S
C567 C568 1.387 . S
C567 H570 0.950 . S
C568 C567 1.387 . S
C568 C571 1.387 . S
H569 C565 0.950 . S
H570 C567 0.950 . S
C571 C562 1.390 . S
C571 H564 0.950 1_545 S
C571 C568 1.387 . S
C572 C573 1.387 . S
C572 H576 0.950 . S
C572 C581 1.390 . S
C573 C572 1.387 . S
C573 C575 1.387 . S
H574 C581 0.950 . S
C575 C573 1.387 . S
C575 C577 1.390 . S
C575 H579 0.950 . S
H576 C572 0.950 . S
C577 C575 1.390 . S
C577 C578 1.387 . S
C577 H580 0.950 . S
C578 C577 1.387 . S
C578 C581 1.387 . S
H579 C575 0.950 . S
H580 C577 0.950 . S
C581 C572 1.390 . S
C581 H574 0.950 . S
C581 C578 1.387 . S
C582 C583 1.387 . S
C582 H586 0.950 . S
C582 C591 1.390 . S
C583 C582 1.387 . S
C583 C585 1.387 . S
H584 C591 0.950 . S
C585 C583 1.387 . S
C585 C587 1.390 . S
C585 H589 0.950 . S
H586 C582 0.950 . S
C587 C585 1.390 . S
C587 C588 1.387 . S
C587 H590 0.950 . S
C588 C587 1.387 . S
C588 C591 1.387 . S
H589 C585 0.950 . S
H590 C587 0.950 . S
C591 C582 1.390 . S
C591 H584 0.950 . S
C591 C588 1.387 . S
C592 C593 1.387 . S
C592 H596 0.950 . S
C592 C601 1.390 . S
C593 C592 1.387 . S
C593 C595 1.387 . S
H594 C601 0.950 . S
C595 C593 1.387 . S
C595 C597 1.390 . S
C595 H599 0.950 . S
H596 C592 0.950 . S
C597 C595 1.390 . S
C597 C598 1.387 . S
C597 H600 0.950 . S
C598 C597 1.387 . S
C598 C601 1.387 . S
H599 C595 0.950 . S
H600 C597 0.950 . S
C601 C592 1.390 . S
C601 H594 0.950 . S
C601 C598 1.387 . S
C602 C603 1.387 1_565 S
C602 H606 0.950 . S
C602 C611 1.390 . S
C603 C602 1.387 1_545 S
C603 C605 1.387 . S
H604 C611 0.950 . S
C605 C603 1.387 . S
C605 C607 1.390 . S
C605 H609 0.950 . S
H606 C602 0.950 . S
C607 C605 1.390 . S
C607 C608 1.387 . S
C607 H610 0.950 . S
C608 C607 1.387 . S
C608 C611 1.387 1_545 S
H609 C605 0.950 . S
H610 C607 0.950 . S
C611 C602 1.390 . S
C611 H604 0.950 . S
C611 C608 1.387 1_565 S
C612 C613 1.387 . S
C612 H616 0.950 . S
C612 C621 1.390 . S
C613 C612 1.387 . S
C613 C615 1.387 . S
H614 C621 0.950 . S
C615 C613 1.387 . S
C615 C617 1.390 . S
C615 H619 0.950 . S
H616 C612 0.950 . S
C617 C615 1.390 . S
C617 C618 1.387 . S
C617 H620 0.950 . S
C618 C617 1.387 . S
C618 C621 1.387 . S
H619 C615 0.950 . S
H620 C617 0.950 . S
C621 C612 1.390 . S
C621 H614 0.950 . S
C621 C618 1.387 . S
C622 C623 1.387 . S
C622 H626 0.950 . S
C622 C631 1.390 . S
C623 C622 1.387 . S
C623 C625 1.387 . S
H624 C631 0.950 . S
C625 C623 1.387 . S
C625 C627 1.390 . S
C625 H629 0.950 . S
H626 C622 0.950 . S
C627 C625 1.390 . S
C627 C628 1.387 . S
C627 H630 0.950 . S
C628 C627 1.387 . S
C628 C631 1.387 . S
H629 C625 0.950 . S
H630 C627 0.950 . S
C631 C622 1.390 . S
C631 H624 0.950 . S
C631 C628 1.387 . S
C632 C633 1.387 . S
C632 H636 0.950 . S
C632 C641 1.390 . S
C633 C632 1.387 . S
C633 C635 1.387 . S
H634 C641 0.950 . S
C635 C633 1.387 . S
C635 C637 1.390 . S
C635 H639 0.950 . S
H636 C632 0.950 . S
C637 C635 1.390 . S
C637 C638 1.387 . S
C637 H640 0.950 . S
C638 C637 1.387 . S
C638 C641 1.387 . S
H639 C635 0.950 . S
H640 C637 0.950 . S
C641 C632 1.390 . S
C641 H634 0.950 . S
C641 C638 1.387 . S
C642 C643 1.374 1_456 S
C642 H646 0.960 1_556 S
C642 C651 1.393 . S
C643 C642 1.374 1_654 S
C643 C645 1.387 1_554 S
H644 C651 0.950 . S
C645 C643 1.387 1_556 S
C645 C647 1.390 . S
C645 H649 0.950 . S
H646 C642 0.960 1_554 S
C647 C645 1.390 . S
C647 C648 1.387 . S
C647 H650 0.950 . S
C648 C647 1.387 . S
C648 C651 1.387 1_655 S
H649 C645 0.950 . S
H650 C647 0.950 . S
C651 C642 1.393 . S
C651 H644 0.950 . S
C651 C648 1.387 1_455 S
C652 C653 1.387 . S
C652 H656 0.950 . S
C652 C661 1.390 . S
C653 C652 1.387 . S
C653 C655 1.387 . S
H654 C661 0.950 . S
C655 C653 1.387 . S
C655 C657 1.390 . S
C655 H659 0.950 . S
H656 C652 0.950 . S
C657 C655 1.390 . S
C657 C658 1.387 . S
C657 H660 0.950 . S
C658 C657 1.387 . S
C658 C661 1.387 . S
H659 C655 0.950 . S
H660 C657 0.950 . S
C661 C652 1.390 . S
C661 H654 0.950 . S
C661 C658 1.387 . S
C662 C663 1.387 1_655 S
C662 H666 0.941 1_556 S
C662 C671 1.390 . S
C663 C662 1.387 1_455 S
C663 C665 1.387 . S
H664 C671 0.950 . S
C665 C663 1.387 . S
C665 C667 1.390 . S
C665 H669 0.950 . S
H666 C662 0.941 1_554 S
C667 C665 1.390 . S
C667 C668 1.387 . S
C667 H670 0.950 . S
C668 C667 1.387 . S
C668 C671 1.387 1_455 S
H669 C665 0.950 . S
H670 C667 0.950 . S
C671 C662 1.390 . S
C671 H664 0.950 . S
C671 C668 1.387 1_655 S
C672 C673 1.387 . S
C672 H676 0.950 . S
C672 C681 1.390 . S
C673 C672 1.387 . S
C673 C675 1.387 . S
H674 C681 0.950 . S
C675 C673 1.387 . S
C675 C677 1.390 . S
C675 H679 0.950 . S
H676 C672 0.950 . S
C677 C675 1.390 . S
C677 C678 1.387 . S
C677 H680 0.950 . S
C678 C677 1.387 . S
C678 C681 1.387 . S
H679 C675 0.950 . S
H680 C677 0.950 . S
C681 C672 1.390 . S
C681 H674 0.950 . S
C681 C678 1.387 . S
C682 C683 1.387 . S
C682 H686 0.950 . S
C682 C691 1.390 . S
C683 C682 1.387 . S
C683 C685 1.387 . S
H684 C691 0.950 . S
C685 C683 1.387 . S
C685 C687 1.390 . S
C685 H689 0.950 . S
H686 C682 0.950 . S
C687 C685 1.390 . S
C687 C688 1.387 . S
C687 H690 0.950 . S
C688 C687 1.387 . S
C688 C691 1.387 . S
H689 C685 0.950 . S
H690 C687 0.950 . S
C691 C682 1.390 . S
C691 H684 0.950 . S
C691 C688 1.387 . S
C692 C693 1.387 . S
C692 H696 0.950 . S
C692 C701 1.390 . S
C693 C692 1.387 . S
C693 C695 1.387 . S
H694 C701 0.950 . S
C695 C693 1.387 . S
C695 C697 1.390 . S
C695 H699 0.950 . S
H696 C692 0.950 . S
C697 C695 1.390 . S
C697 C698 1.387 . S
C697 H700 0.950 . S
C698 C697 1.387 . S
C698 C701 1.387 . S
H699 C695 0.950 . S
H700 C697 0.950 . S
C701 C692 1.390 . S
C701 H694 0.950 . S
C701 C698 1.387 . S
C702 C703 1.387 . S
C702 H706 0.950 1_554 S
C702 C711 1.390 . S
C703 C702 1.387 . S
C703 C705 1.387 . S
H704 C711 0.950 . S
C705 C703 1.387 . S
C705 C707 1.390 . S
C705 H709 0.950 . S
H706 C702 0.950 1_556 S
C707 C705 1.390 . S
C707 C708 1.387 . S
C707 H710 0.950 . S
C708 C707 1.387 . S
C708 C711 1.387 . S
H709 C705 0.950 . S
H710 C707 0.950 . S
C711 C702 1.390 . S
C711 H704 0.950 . S
C711 C708 1.387 . S
C712 C713 1.387 . S
C712 H716 0.950 . S
C712 C721 1.390 . S
C713 C712 1.387 . S
C713 C715 1.387 . S
H714 C721 0.950 . S
C715 C713 1.387 . S
C715 C717 1.390 . S
C715 H719 0.950 . S
H716 C712 0.950 . S
C717 C715 1.390 . S
C717 C718 1.387 . S
C717 H720 0.950 . S
C718 C717 1.387 . S
C718 C721 1.387 . S
H719 C715 0.950 . S
H720 C717 0.950 . S
C721 C712 1.390 . S
C721 H714 0.950 . S
C721 C718 1.387 . S
C722 C723 1.387 . S
C722 H726 0.950 . S
C722 C731 1.390 . S
C723 C722 1.387 . S
C723 C725 1.387 . S
H724 C731 0.950 . S
C725 C723 1.387 . S
C725 C727 1.390 . S
C725 H729 0.950 . S
H726 C722 0.950 . S
C727 C725 1.390 . S
C727 C728 1.387 . S
C727 H730 0.950 . S
C728 C727 1.387 . S
C728 C731 1.387 . S
H729 C725 0.950 . S
H730 C727 0.950 . S
C731 C722 1.390 . S
C731 H724 0.950 . S
C731 C728 1.387 . S
C732 C733 1.387 . S
C732 H736 0.950 . S
C732 C741 1.390 . S
C733 C732 1.387 . S
C733 C735 1.387 . S
H734 C741 0.950 . S
C735 C733 1.387 . S
C735 C737 1.390 . S
C735 H739 0.950 . S
H736 C732 0.950 . S
C737 C735 1.390 . S
C737 C738 1.387 . S
C737 H740 0.950 . S
C738 C737 1.387 . S
C738 C741 1.387 . S
H739 C735 0.950 . S
H740 C737 0.950 . S
C741 C732 1.390 . S
C741 H734 0.950 . S
C741 C738 1.387 . S
C742 C743 1.387 . S
C742 H746 0.950 . S
C742 C751 1.390 . S
C743 C742 1.387 . S
C743 C745 1.387 . S
H744 C751 0.950 . S
C745 C743 1.387 . S
C745 C747 1.390 . S
C745 H749 0.950 . S
H746 C742 0.950 . S
C747 C745 1.390 . S
C747 C748 1.387 . S
C747 H750 0.950 . S
C748 C747 1.387 . S
C748 C751 1.387 . S
H749 C745 0.950 . S
H750 C747 0.950 . S
C751 C742 1.390 . S
C751 H744 0.950 . S
C751 C748 1.387 . S
C752 C753 1.387 1_554 S
C752 H756 0.950 . S
C752 C761 1.390 . S
C753 C752 1.387 1_556 S
C753 C755 1.387 . S
H754 C761 0.950 . S
C755 C753 1.387 . S
C755 C757 1.390 . S
C755 H759 0.950 . S
H756 C752 0.950 . S
C757 C755 1.390 . S
C757 C758 1.387 . S
C757 H760 0.950 . S
C758 C757 1.387 . S
C758 C761 1.387 1_556 S
H759 C755 0.950 . S
H760 C757 0.950 . S
C761 C752 1.390 . S
C761 H754 0.950 . S
C761 C758 1.387 1_554 S
C762 C763 1.387 . S
C762 H766 0.950 . S
C762 C771 1.390 . S
C763 C762 1.387 . S
C763 C765 1.387 . S
H764 C771 0.950 . S
C765 C763 1.387 . S
C765 C767 1.390 . S
C765 H769 0.950 . S
H766 C762 0.950 . S
C767 C765 1.390 . S
C767 C768 1.387 . S
C767 H770 0.950 . S
C768 C767 1.387 . S
C768 C771 1.387 . S
H769 C765 0.950 . S
H770 C767 0.950 . S
C771 C762 1.390 . S
C771 H764 0.950 . S
C771 C768 1.387 . S
C772 C773 1.387 . S
C772 H776 0.950 . S
C772 C781 1.390 . S
C773 C772 1.387 . S
C773 C775 1.387 . S
H774 C781 0.950 . S
C775 C773 1.387 . S
C775 C777 1.395 . S
C775 H779 0.950 1_554 S
H776 C772 0.950 . S
C777 C775 1.395 . S
C777 C778 1.403 . S
C777 H780 0.930 1_554 S
C778 C777 1.403 . S
C778 C781 1.387 . S
H779 C775 0.950 1_556 S
H780 C777 0.930 1_556 S
C781 C772 1.390 . S
C781 H774 0.950 . S
C781 C778 1.387 . S
C782 C783 1.387 . S
C782 H786 0.950 . S
C782 C791 1.390 . S
C783 C782 1.387 . S
C783 C785 1.387 1_554 S
H784 C791 0.950 . S
C785 C783 1.387 1_556 S
C785 C787 1.390 . S
C785 H789 0.950 1_565 S
H786 C782 0.950 . S
C787 C785 1.390 . S
C787 C788 1.387 1_556 S
C787 H790 0.950 . S
C788 C787 1.387 1_554 S
C788 C791 1.387 . S
H789 C785 0.950 1_545 S
H790 C787 0.950 . S
C791 C782 1.390 . S
C791 H784 0.950 . S
C791 C788 1.387 . S
C318 C152 1.490 . S
C313 C50 1.514 . S
C328 C165 1.482 . S
C323 C61 1.489 1_455 S
C333 C67 1.595 . S
C338 C185 1.487 . S
C348 C199 1.387 . S
C343 C41 1.460 . S
C358 C211 1.499 . S
C353 C95 1.502 . S
C368 C225 1.459 . S
C363 C113 1.460 . S
C373 C106 1.482 . S
C378 C235 1.472 . S
C388 C250 1.510 . S
C383 C86 1.539 . S
C393 C104 1.506 . S
C398 C264 1.482 . S
C408 C283 1.397 . S
C403 C88 1.465 . S
C413 C94 1.501 . S
C418 C263 1.492 . S
C428 C281 1.450 . S
C423 C112 1.451 . S
C433 C70 1.587 . S
C438 C297 1.483 . S
C443 C40 1.497 . S
C448 C291 1.490 . S
C453 C49 1.507 . S
C458 C295 1.502 . S
C463 C59 1.540 . S
C468 C292 1.507 . S
C473 C34 1.505 . S
C478 C194 1.479 . S
C483 C133 1.488 . S
C488 C193 1.478 . S
C498 C157 1.394 . S
C493 C139 1.466 . S
C508 C171 1.487 . S
C503 C77 1.595 . S
C513 C43 1.526 1_545 S
C518 C208 1.495 . S
C528 C253 1.501 . S
C523 C103 1.505 . S
C538 C207 1.499 . S
C533 C85 1.505 1_545 S
C548 C239 1.446 . S
C543 C115 1.447 . S
C558 C236 1.488 . S
C553 C131 1.514 . S
C563 C142 1.489 . S
C568 C249 1.482 . S
C573 C76 1.595 . S
C578 C213 1.490 . S
C588 C227 1.387 . S
C583 C122 1.460 . S
C593 C32 1.502 . S
C598 C183 1.499 . S
C608 C197 1.459 . S
C603 C5 1.460 1_655 S
C618 C151 1.472 . S
C613 C16 1.482 . S
C628 C166 1.510 . S
C623 C23 1.539 1_455 S
C633 C14 1.506 . S
C638 C278 1.481 . S
C643 C25 1.465 . S
C648 C269 1.398 . S
C653 C31 1.501 . S
C658 C277 1.491 . S
C663 C4 1.452 1_556 S
C668 C267 1.451 . S
C678 C311 1.480 . S
C673 C79 1.587 . S
C688 C305 1.490 . S
C683 C121 1.497 1_554 S
C698 C309 1.502 . S
C693 C130 1.507 . S
C703 C140 1.539 1_554 S
C708 C306 1.507 . S
C713 C97 1.505 . S
C718 C222 1.480 . S
C728 C221 1.478 . S
C723 C52 1.488 . S
C738 C241 1.397 . S
C733 C58 1.465 . S
C748 C255 1.487 . S
C743 C68 1.595 . S
C753 C124 1.526 . S
C758 C180 1.494 . S
C768 C169 1.501 . S
C763 C13 1.505 . S
C773 C22 1.505 . S
C778 C179 1.499 . S
C788 C155 1.446 . S
C783 C7 1.447 1_565 S
