# Generated by pormake.
# Topology ctn, (3,4)-cn, num edge types: 1
# Building blocks:
#     Node 0, Type 0, BuildingBlock: VETTIZ_charged_linker_0, # of connection points: 3
#     Node 1, Type 0, BuildingBlock: VETTIZ_charged_linker_0, # of connection points: 3
#     Node 2, Type 0, BuildingBlock: VETTIZ_charged_linker_0, # of connection points: 3
#     Node 3, Type 0, BuildingBlock: VETTIZ_charged_linker_0, # of connection points: 3
#     Node 4, Type 0, BuildingBlock: VETTIZ_charged_linker_0, # of connection points: 3
#     Node 5, Type 0, BuildingBlock: VETTIZ_charged_linker_0, # of connection points: 3
#     Node 6, Type 0, BuildingBlock: VETTIZ_charged_linker_0, # of connection points: 3
#     Node 7, Type 0, BuildingBlock: VETTIZ_charged_linker_0, # of connection points: 3
#     Node 8, Type 0, BuildingBlock: VETTIZ_charged_linker_0, # of connection points: 3
#     Node 9, Type 0, BuildingBlock: VETTIZ_charged_linker_0, # of connection points: 3
#     Node 10, Type 0, BuildingBlock: VETTIZ_charged_linker_0, # of connection points: 3
#     Node 11, Type 0, BuildingBlock: VETTIZ_charged_linker_0, # of connection points: 3
#     Node 12, Type 0, BuildingBlock: VETTIZ_charged_linker_0, # of connection points: 3
#     Node 13, Type 0, BuildingBlock: VETTIZ_charged_linker_0, # of connection points: 3
#     Node 14, Type 0, BuildingBlock: VETTIZ_charged_linker_0, # of connection points: 3
#     Node 15, Type 0, BuildingBlock: VETTIZ_charged_linker_0, # of connection points: 3
#     Node 16, Type 1, BuildingBlock: TATPOV_clean_sbu_0, # of connection points: 4
#     Node 17, Type 1, BuildingBlock: TATPOV_clean_sbu_0, # of connection points: 4
#     Node 18, Type 1, BuildingBlock: TATPOV_clean_sbu_0, # of connection points: 4
#     Node 19, Type 1, BuildingBlock: TATPOV_clean_sbu_0, # of connection points: 4
#     Node 20, Type 1, BuildingBlock: TATPOV_clean_sbu_0, # of connection points: 4
#     Node 21, Type 1, BuildingBlock: TATPOV_clean_sbu_0, # of connection points: 4
#     Node 22, Type 1, BuildingBlock: TATPOV_clean_sbu_0, # of connection points: 4
#     Node 23, Type 1, BuildingBlock: TATPOV_clean_sbu_0, # of connection points: 4
#     Node 24, Type 1, BuildingBlock: TATPOV_clean_sbu_0, # of connection points: 4
#     Node 25, Type 1, BuildingBlock: TATPOV_clean_sbu_0, # of connection points: 4
#     Node 26, Type 1, BuildingBlock: TATPOV_clean_sbu_0, # of connection points: 4
#     Node 27, Type 1, BuildingBlock: TATPOV_clean_sbu_0, # of connection points: 4
#     Edge 28, Type (0, 1), BuildingBlock: CIFDUS_clean_linker_0, # of connection points: 2
#     Edge 29, Type (0, 1), BuildingBlock: CIFDUS_clean_linker_0, # of connection points: 2
#     Edge 30, Type (0, 1), BuildingBlock: CIFDUS_clean_linker_0, # of connection points: 2
#     Edge 31, Type (0, 1), BuildingBlock: CIFDUS_clean_linker_0, # of connection points: 2
#     Edge 32, Type (0, 1), BuildingBlock: CIFDUS_clean_linker_0, # of connection points: 2
#     Edge 33, Type (0, 1), BuildingBlock: CIFDUS_clean_linker_0, # of connection points: 2
#     Edge 34, Type (0, 1), BuildingBlock: CIFDUS_clean_linker_0, # of connection points: 2
#     Edge 35, Type (0, 1), BuildingBlock: CIFDUS_clean_linker_0, # of connection points: 2
#     Edge 36, Type (0, 1), BuildingBlock: CIFDUS_clean_linker_0, # of connection points: 2
#     Edge 37, Type (0, 1), BuildingBlock: CIFDUS_clean_linker_0, # of connection points: 2
#     Edge 38, Type (0, 1), BuildingBlock: CIFDUS_clean_linker_0, # of connection points: 2
#     Edge 39, Type (0, 1), BuildingBlock: CIFDUS_clean_linker_0, # of connection points: 2
#     Edge 40, Type (0, 1), BuildingBlock: CIFDUS_clean_linker_0, # of connection points: 2
#     Edge 41, Type (0, 1), BuildingBlock: CIFDUS_clean_linker_0, # of connection points: 2
#     Edge 42, Type (0, 1), BuildingBlock: CIFDUS_clean_linker_0, # of connection points: 2
#     Edge 43, Type (0, 1), BuildingBlock: CIFDUS_clean_linker_0, # of connection points: 2
#     Edge 44, Type (0, 1), BuildingBlock: CIFDUS_clean_linker_0, # of connection points: 2
#     Edge 45, Type (0, 1), BuildingBlock: CIFDUS_clean_linker_0, # of connection points: 2
#     Edge 46, Type (0, 1), BuildingBlock: CIFDUS_clean_linker_0, # of connection points: 2
#     Edge 47, Type (0, 1), BuildingBlock: CIFDUS_clean_linker_0, # of connection points: 2
#     Edge 48, Type (0, 1), BuildingBlock: CIFDUS_clean_linker_0, # of connection points: 2
#     Edge 49, Type (0, 1), BuildingBlock: CIFDUS_clean_linker_0, # of connection points: 2
#     Edge 50, Type (0, 1), BuildingBlock: CIFDUS_clean_linker_0, # of connection points: 2
#     Edge 51, Type (0, 1), BuildingBlock: CIFDUS_clean_linker_0, # of connection points: 2
#     Edge 52, Type (0, 1), BuildingBlock: CIFDUS_clean_linker_0, # of connection points: 2
#     Edge 53, Type (0, 1), BuildingBlock: CIFDUS_clean_linker_0, # of connection points: 2
#     Edge 54, Type (0, 1), BuildingBlock: CIFDUS_clean_linker_0, # of connection points: 2
#     Edge 55, Type (0, 1), BuildingBlock: CIFDUS_clean_linker_0, # of connection points: 2
#     Edge 56, Type (0, 1), BuildingBlock: CIFDUS_clean_linker_0, # of connection points: 2
#     Edge 57, Type (0, 1), BuildingBlock: CIFDUS_clean_linker_0, # of connection points: 2
#     Edge 58, Type (0, 1), BuildingBlock: CIFDUS_clean_linker_0, # of connection points: 2
#     Edge 59, Type (0, 1), BuildingBlock: CIFDUS_clean_linker_0, # of connection points: 2
#     Edge 60, Type (0, 1), BuildingBlock: CIFDUS_clean_linker_0, # of connection points: 2
#     Edge 61, Type (0, 1), BuildingBlock: CIFDUS_clean_linker_0, # of connection points: 2
#     Edge 62, Type (0, 1), BuildingBlock: CIFDUS_clean_linker_0, # of connection points: 2
#     Edge 63, Type (0, 1), BuildingBlock: CIFDUS_clean_linker_0, # of connection points: 2
#     Edge 64, Type (0, 1), BuildingBlock: CIFDUS_clean_linker_0, # of connection points: 2
#     Edge 65, Type (0, 1), BuildingBlock: CIFDUS_clean_linker_0, # of connection points: 2
#     Edge 66, Type (0, 1), BuildingBlock: CIFDUS_clean_linker_0, # of connection points: 2
#     Edge 67, Type (0, 1), BuildingBlock: CIFDUS_clean_linker_0, # of connection points: 2
#     Edge 68, Type (0, 1), BuildingBlock: CIFDUS_clean_linker_0, # of connection points: 2
#     Edge 69, Type (0, 1), BuildingBlock: CIFDUS_clean_linker_0, # of connection points: 2
#     Edge 70, Type (0, 1), BuildingBlock: CIFDUS_clean_linker_0, # of connection points: 2
#     Edge 71, Type (0, 1), BuildingBlock: CIFDUS_clean_linker_0, # of connection points: 2
#     Edge 72, Type (0, 1), BuildingBlock: CIFDUS_clean_linker_0, # of connection points: 2
#     Edge 73, Type (0, 1), BuildingBlock: CIFDUS_clean_linker_0, # of connection points: 2
#     Edge 74, Type (0, 1), BuildingBlock: CIFDUS_clean_linker_0, # of connection points: 2
#     Edge 75, Type (0, 1), BuildingBlock: CIFDUS_clean_linker_0, # of connection points: 2
# Relax obj value: 0.003
# Max RMSD: 0.048
# Mean RMSD: 0.021
data_MOF--net-ctn--node1-TATPOV_clean_sbu_0--node2-VETTIZ_charged_linker_0--edge1-CIFDUS_clean_linker_0
_symmetry_space_group_name_H-M    P1
_symmetry_Int_Tables_number       1
_symmetry_cell_setting            triclinic
loop_
_symmetry_equiv_pos_as_xyz
'x, y, z'
_cell_length_a     60.002728
_cell_length_b     60.067106
_cell_length_c     60.056971
_cell_angle_alpha  91.086719
_cell_angle_beta   91.140031
_cell_angle_gamma 91.06904
loop_
_atom_site_label
_atom_site_type_symbol
_atom_site_fract_x
_atom_site_fract_y
_atom_site_fract_z
_atom_type_partial_charge
C0 C 0.03186 0.09016 0.97046 0.0
C1 C 0.01444 0.10553 0.96959 0.0
C2 C 0.99691 0.10348 0.98478 0.0
C3 C 0.01446 0.07163 0.0015 0.0
C4 C 0.03155 0.07346 0.9865 0.0
C5 C 0.04896 0.05606 0.99 0.0
H6 H 0.08698 0.96817 0.04793 0.0
C7 C 0.01932 0.05277 0.01624 0.0
C8 C 0.03952 0.04356 0.00959 0.0
H9 H 0.11712 0.00055 0.99198 0.0
H10 H 0.08675 0.0261 0.99002 0.0
H11 H 0.07266 0.01301 0.073 0.0
H12 H 0.03576 0.96871 0.02791 0.0
H13 H 0.01834 0.97582 0.05006 0.0
H14 H 0.04363 0.961 0.05568 0.0
H15 H 0.06298 0.98597 0.08117 0.0
H16 H 0.04554 0.01004 0.08316 0.0
C17 C 0.07135 0.06813 0.99618 0.0
C18 C 0.04955 0.04119 0.96867 0.0
C19 C 0.96584 0.03358 0.07795 0.0
C20 C 0.96589 0.01742 0.09461 0.0
C21 C 0.98377 0.00251 0.09569 0.0
C22 C 0.00119 0.00363 0.08045 0.0
C23 C 0.00087 0.0199 0.06391 0.0
C24 C 0.98339 0.03454 0.06292 0.0
C25 C 0.98591 0.05094 0.04448 0.0
C26 C 0.00772 0.0437 0.03448 0.0
C27 C 0.01643 0.02548 0.04588 0.0
C28 C 0.98782 0.07464 0.05511 0.0
C29 C 0.96598 0.04739 0.0279 0.0
C30 C 0.08691 0.98065 0.03515 0.0
C31 C 0.10459 0.98236 0.02015 0.0
C32 C 0.10393 0.99904 0.00394 0.0
C33 C 0.08618 0.01382 0.00274 0.0
C34 C 0.06876 0.01206 0.01794 0.0
C35 C 0.06928 0.99567 0.03379 0.0
C36 C 0.0494 0.99655 0.0487 0.0
C37 C 0.03687 0.01607 0.03911 0.0
C38 C 0.04831 0.02507 0.02107 0.0
C39 C 0.05791 0.00149 0.07285 0.0
C40 C 0.03603 0.97436 0.04567 0.0
H41 H 0.98301 0.0861 0.01171 0.0
H42 H 0.0457 0.09135 0.95921 0.0
H43 H 0.03253 0.03875 0.96122 0.0
H44 H 0.05537 0.0242 0.97189 0.0
H45 H 0.0602 0.04888 0.95587 0.0
H46 H 0.06853 0.08338 0.00648 0.0
H47 H 0.08025 0.07331 0.98104 0.0
H48 H 0.08253 0.05798 0.0065 0.0
H49 H 0.95256 0.0455 0.0768 0.0
H50 H 0.98414 0.98975 0.10819 0.0
H51 H 0.01423 0.99177 0.08213 0.0
H52 H 0.99696 0.0744 0.07141 0.0
H53 H 0.9711 0.08158 0.05812 0.0
H54 H 0.9975 0.0864 0.04501 0.0
H55 H 0.96119 0.02943 0.02631 0.0
H56 H 0.96987 0.05239 0.01079 0.0
H57 H 0.95113 0.05652 0.03356 0.0
H58 H 0.98311 0.11483 0.9843 0.0
C59 C 0.99682 0.08667 0.00065 0.0
C60 C 0.23475 0.64543 0.24416 0.0
C61 C 0.21543 0.64145 0.23094 0.0
C62 C 0.20989 0.65679 0.21431 0.0
C63 C 0.24311 0.67898 0.22374 0.0
C64 C 0.24823 0.66415 0.24031 0.0
C65 C 0.26948 0.67042 0.25273 0.0
H66 H 0.3595 0.73898 0.26582 0.0
C67 C 0.26092 0.6964 0.22385 0.0
C68 C 0.27631 0.69149 0.24093 0.0
H69 H 0.3439 0.67939 0.30224 0.0
H70 H 0.30923 0.67491 0.28152 0.0
H71 H 0.31008 0.75901 0.26503 0.0
H72 H 0.34583 0.71833 0.21871 0.0
H73 H 0.33089 0.73743 0.20286 0.0
H74 H 0.3518 0.74752 0.22274 0.0
H75 H 0.33223 0.76991 0.24853 0.0
H76 H 0.30374 0.7687 0.23826 0.0
C77 C 0.26383 0.67512 0.27742 0.0
C78 C 0.28631 0.65146 0.24909 0.0
C79 C 0.26163 0.75567 0.16418 0.0
C80 C 0.27713 0.77267 0.15933 0.0
C81 C 0.2951 0.77714 0.17432 0.0
C82 C 0.29825 0.76427 0.19326 0.0
C83 C 0.28341 0.74651 0.19725 0.0
C84 C 0.26517 0.74273 0.18315 0.0
C85 C 0.25135 0.72292 0.19007 0.0
C86 C 0.26466 0.71517 0.21022 0.0
C87 C 0.28347 0.72903 0.21425 0.0
C88 C 0.22803 0.73121 0.19655 0.0
C89 C 0.25102 0.70544 0.17077 0.0
C90 C 0.34874 0.72485 0.26928 0.0
C91 C 0.35465 0.70945 0.2857 0.0
C92 C 0.33977 0.69163 0.28988 0.0
C93 C 0.31968 0.68895 0.27767 0.0
C94 C 0.31434 0.70417 0.26095 0.0
C95 C 0.32873 0.72182 0.25711 0.0
C96 C 0.32068 0.73604 0.23833 0.0
C97 C 0.29901 0.72406 0.23156 0.0
C98 C 0.29542 0.70541 0.24484 0.0
C99 C 0.31657 0.75975 0.24782 0.0
C100 C 0.33815 0.73503 0.21965 0.0
H101 H 0.21863 0.68644 0.1976 0.0
H102 H 0.23931 0.63421 0.25733 0.0
H103 H 0.28417 0.6438 0.23215 0.0
H104 H 0.30385 0.65735 0.24991 0.0
H105 H 0.28394 0.63805 0.26135 0.0
H106 H 0.24742 0.68332 0.27874 0.0
H107 H 0.26292 0.65944 0.2869 0.0
H108 H 0.27583 0.68676 0.28589 0.0
H109 H 0.24774 0.75179 0.15288 0.0
H110 H 0.3071 0.79033 0.17104 0.0
H111 H 0.31249 0.7683 0.20374 0.0
H112 H 0.22926 0.74802 0.20464 0.0
H113 H 0.21688 0.73241 0.18165 0.0
H114 H 0.21991 0.72057 0.20894 0.0
H115 H 0.2677 0.70451 0.16306 0.0
H116 H 0.24725 0.68838 0.17624 0.0
H117 H 0.23878 0.70983 0.15753 0.0
H118 H 0.19518 0.65407 0.2038 0.0
C119 C 0.22361 0.67552 0.21065 0.0
C120 C 0.01119 0.37289 0.99554 0.0
C121 C 0.99665 0.36376 0.97902 0.0
C122 C 0.97624 0.37402 0.9745 0.0
C123 C 0.98493 0.40239 0.00261 0.0
C124 C 0.00483 0.39206 0.00736 0.0
C125 C 0.01756 0.40358 0.02629 0.0
H126 H 0.01929 0.48164 0.10936 0.0
C127 C 0.98309 0.42176 0.01787 0.0
C128 C 0.00198 0.42244 0.03204 0.0
H129 H 0.06963 0.43337 0.09467 0.0
H130 H 0.0487 0.42093 0.06168 0.0
H131 H 0.97761 0.45172 0.09958 0.0
H132 H 0.01264 0.49648 0.05669 0.0
H133 H 0.98397 0.50015 0.05207 0.0
H134 H 0.99601 0.50606 0.07933 0.0
H135 H 0.9755 0.48142 0.10229 0.0
H136 H 0.9574 0.4653 0.08354 0.0
C137 C 0.01986 0.38688 0.04549 0.0
C138 C 0.04005 0.41236 0.01738 0.0
C139 C 0.91756 0.47331 0.00932 0.0
C140 C 0.91023 0.49181 0.02175 0.0
C141 C 0.92242 0.49839 0.04124 0.0
C142 C 0.94175 0.48726 0.04775 0.0
C143 C 0.94895 0.46909 0.03488 0.0
C144 C 0.93661 0.46212 0.01632 0.0
C145 C 0.94581 0.44155 0.00554 0.0
C146 C 0.96644 0.43807 0.02 0.0
C147 C 0.96828 0.45433 0.03703 0.0
C148 C 0.92835 0.4223 0.0076 0.0
C149 C 0.95187 0.44706 0.98128 0.0
C150 C 0.02581 0.46849 0.0989 0.0
C151 C 0.04594 0.45828 0.10459 0.0
C152 C 0.05415 0.44145 0.0905 0.0
C153 C 0.04187 0.43413 0.07153 0.0
C154 C 0.02123 0.44382 0.0666 0.0
C155 C 0.01387 0.46116 0.07984 0.0
C156 C 0.99205 0.47011 0.07165 0.0
C157 C 0.98706 0.45476 0.05178 0.0
C158 C 0.00407 0.43922 0.04901 0.0
C159 C 0.97465 0.46721 0.09017 0.0
C160 C 0.99615 0.49452 0.06466 0.0
H161 H 0.95474 0.40057 0.98163 0.0
H162 H 0.02698 0.36519 0.99925 0.0
H163 H 0.03815 0.41781 -0.00015 0.0
H164 H 0.0465 0.42726 0.02666 0.0
H165 H 0.05285 0.39925 0.01775 0.0
H166 H 0.00407 0.37716 0.04739 0.0
H167 H 0.03331 0.37487 0.04217 0.0
H168 H 0.02313 0.39501 0.06186 0.0
H169 H 0.90889 0.46768 0.99422 0.0
H170 H 0.91698 0.51208 0.05164 0.0
H171 H 0.95028 0.49319 0.06264 0.0
H172 H 0.91643 0.4256 0.02118 0.0
H173 H 0.9184 0.41979 0.99194 0.0
H174 H 0.93613 0.40638 0.01211 0.0
H175 H 0.96066 0.4635 0.98068 0.0
H176 H 0.96329 0.43497 0.9738 0.0
H177 H 0.93666 0.44781 0.9705 0.0
H178 H 0.965 0.36725 0.96162 0.0
C179 C 0.97035 0.39335 0.9861 0.0
C180 C 0.67278 0.74912 0.26687 0.0
C181 C 0.65904 0.73015 0.26307 0.0
C182 C 0.66412 0.71508 0.24576 0.0
C183 C 0.69436 0.73932 0.23447 0.0
C184 C 0.69026 0.75345 0.25228 0.0
C185 C 0.70513 0.77396 0.25238 0.0
H186 H 0.77625 0.84075 0.19702 0.0
C187 C 0.71177 0.74981 0.2209 0.0
C188 C 0.7184 0.77 0.23137 0.0
H189 H 0.74864 0.85128 0.26231 0.0
H190 H 0.73163 0.81475 0.26061 0.0
H191 H 0.73274 0.81552 0.17371 0.0
H192 H 0.79142 0.79054 0.20667 0.0
H193 H 0.78408 0.77161 0.18499 0.0
H194 H 0.79205 0.79989 0.17849 0.0
H195 H 0.76045 0.81916 0.1634 0.0
H196 H 0.74434 0.79429 0.15713 0.0
C197 C 0.69005 0.79454 0.25049 0.0
C198 C 0.72017 0.77391 0.27366 0.0
C199 C 0.72929 0.71501 0.14596 0.0
C200 C 0.74392 0.72089 0.12907 0.0
C201 C 0.75808 0.73971 0.13213 0.0
C202 C 0.75703 0.753 0.15157 0.0
C203 C 0.7418 0.74723 0.16813 0.0
C204 C 0.72868 0.72819 0.16534 0.0
C205 C 0.71413 0.72399 0.18489 0.0
C206 C 0.72046 0.74379 0.19989 0.0
C207 C 0.73635 0.75761 0.18985 0.0
C208 C 0.68951 0.7247 0.17658 0.0
C209 C 0.72098 0.70164 0.19536 0.0
C210 C 0.76667 0.83512 0.211 0.0
C211 C 0.7633 0.84927 0.22955 0.0
C212 C 0.75091 0.84109 0.24749 0.0
C213 C 0.74109 0.81978 0.24655 0.0
C214 C 0.74356 0.80634 0.22746 0.0
C215 C 0.7567 0.81375 0.21035 0.0
C216 C 0.75812 0.7966 0.19181 0.0
C217 C 0.74311 0.77809 0.20038 0.0
C218 C 0.7344 0.78406 0.22117 0.0
C219 C 0.74854 0.80681 0.17026 0.0
C220 C 0.78267 0.78929 0.19017 0.0
H221 H 0.68439 0.70763 0.21833 0.0
H222 H 0.66908 0.76105 0.27997 0.0
H223 H 0.72332 0.75663 0.27915 0.0
H224 H 0.73695 0.78117 0.27092 0.0
H225 H 0.71233 0.78294 0.28768 0.0
H226 H 0.67631 0.79127 0.23806 0.0
H227 H 0.68238 0.7986 0.26671 0.0
H228 H 0.69886 0.80952 0.24466 0.0
H229 H 0.71854 0.70035 0.14413 0.0
H230 H 0.76957 0.74437 0.11926 0.0
H231 H 0.76792 0.76736 0.15288 0.0
H232 H 0.6873 0.73792 0.16402 0.0
H233 H 0.68418 0.70859 0.16859 0.0
H234 H 0.67775 0.72888 0.18981 0.0
H235 H 0.73888 0.6982 0.1926 0.0
H236 H 0.71936 0.70174 0.21368 0.0
H237 H 0.71106 0.68743 0.18801 0.0
H238 H 0.65379 0.70031 0.24268 0.0
C239 C 0.68181 0.71946 0.23157 0.0
C240 C 0.02906 0.9181 0.49876 0.0
C241 C 0.01035 0.90383 0.49577 0.0
C242 C 0.99825 0.90398 0.47541 0.0
C243 C 0.02213 0.93357 0.46223 0.0
C244 C 0.0346 0.93283 0.48179 0.0
C245 C 0.05342 0.94977 0.48236 0.0
H246 H 0.10869 0.03411 0.43279 0.0
C247 C 0.03137 0.95155 0.44857 0.0
C248 C 0.0498 0.96104 0.46014 0.0
H249 H 0.12399 0.00352 0.49575 0.0
H250 H 0.09203 0.97892 0.49097 0.0
H251 H 0.05532 0.03573 0.44037 0.0
H252 H 0.09569 0.98842 0.40526 0.0
H253 H 0.07203 0.99412 0.38864 0.0
H254 H 0.09168 0.01627 0.3958 0.0
H255 H 0.06776 0.04201 0.41423 0.0
H256 H 0.04109 0.02779 0.41557 0.0
C257 C 0.04993 0.96597 0.50233 0.0
C258 C 0.07568 0.93709 0.48327 0.0
C259 C 0.9905 0.97214 0.37762 0.0
C260 C 0.99321 0.9894 0.36241 0.0
C261 C 0.01231 0.00339 0.36436 0.0
C262 C 0.02787 0.00083 0.38193 0.0
C263 C 0.02424 0.98413 0.39769 0.0
C264 C 0.00595 0.96994 0.39508 0.0
C265 C 0.00421 0.95349 0.41348 0.0
C266 C 0.02426 0.96033 0.42791 0.0
C267 C 0.03599 0.97825 0.41865 0.0
C268 C 0.98193 0.95745 0.42552 0.0
C269 C 0.00658 0.92977 0.40324 0.0
C270 C 0.10514 0.02204 0.44548 0.0
C271 C 0.11887 0.02073 0.46467 0.0
C272 C 0.11353 0.00502 0.48096 0.0
C273 C 0.09506 0.99061 0.47806 0.0
C274 C 0.08165 0.99193 0.4587 0.0
C275 C 0.08665 0.00756 0.44287 0.0
C276 C 0.07022 0.00677 0.42358 0.0
C277 C 0.05494 0.98766 0.43016 0.0
C278 C 0.06174 0.9791 0.45079 0.0
C279 C 0.05796 0.02923 0.42316 0.0
C280 C 0.08294 0.00125 0.40206 0.0
H281 H 0.99394 0.91816 0.44373 0.0
H282 H 0.0387 0.91833 0.51421 0.0
H283 H 0.07425 0.92105 0.47371 0.0
H284 H 0.08953 0.94624 0.47548 0.0
H285 H 0.08053 0.93319 0.50069 0.0
H286 H 0.03189 0.96919 0.50452 0.0
H287 H 0.05648 0.95896 0.51808 0.0
H288 H 0.05764 0.98258 0.50003 0.0
H289 H 0.97621 0.96085 0.37634 0.0
H290 H 0.01478 0.0168 0.35281 0.0
H291 H 0.04186 0.01223 0.38285 0.0
H292 H 0.97806 0.9755 0.42622 0.0
H293 H 0.9678 0.94866 0.41668 0.0
H294 H 0.98229 0.95239 0.44308 0.0
H295 H 0.01752 0.92997 0.3885 0.0
H296 H 0.01468 0.91817 0.41482 0.0
H297 H 0.99014 0.92265 0.39768 0.0
H298 H 0.98407 0.89279 0.47251 0.0
C299 C 0.00406 0.91869 0.45865 0.0
C300 C 0.25528 0.67331 0.77032 0.0
C301 C 0.25222 0.65792 0.75263 0.0
C302 C 0.2361 0.66204 0.73592 0.0
C303 C 0.22487 0.69541 0.7561 0.0
C304 C 0.24153 0.69176 0.77175 0.0
C305 C 0.24195 0.70873 0.79041 0.0
H306 H 0.19798 0.79854 0.84133 0.0
C307 C 0.21236 0.71515 0.76375 0.0
C308 C 0.22245 0.72299 0.78378 0.0
H309 H 0.25593 0.7612 0.86069 0.0
H310 H 0.25047 0.73674 0.82898 0.0
H311 H 0.16711 0.75449 0.8264 0.0
H312 H 0.20844 0.79955 0.78964 0.0
H313 H 0.18444 0.79364 0.77322 0.0
H314 H 0.18179 0.80741 0.79999 0.0
H315 H 0.15954 0.78275 0.82134 0.0
H316 H 0.15274 0.76059 0.80156 0.0
C317 C 0.23774 0.6964 0.81248 0.0
C318 C 0.26446 0.72182 0.78976 0.0
C319 C 0.14281 0.73935 0.72136 0.0
C320 C 0.12735 0.75629 0.72522 0.0
C321 C 0.13093 0.77093 0.74365 0.0
C322 C 0.14925 0.76854 0.75817 0.0
C323 C 0.16427 0.75129 0.75436 0.0
C324 C 0.16106 0.73716 0.73609 0.0
C325 C 0.17875 0.71974 0.73477 0.0
C326 C 0.19301 0.7257 0.75529 0.0
C327 C 0.18435 0.74418 0.76676 0.0
C328 C 0.16728 0.69656 0.73657 0.0
C329 C 0.1917 0.72303 0.71301 0.0
C330 C 0.2093 0.78494 0.83874 0.0
C331 C 0.22754 0.78192 0.85342 0.0
C332 C 0.24198 0.7641 0.84944 0.0
C333 C 0.23876 0.74984 0.83099 0.0
C334 C 0.22084 0.75326 0.81618 0.0
C335 C 0.20637 0.77048 0.82015 0.0
C336 C 0.18843 0.77148 0.80227 0.0
C337 C 0.19475 0.7522 0.78693 0.0
C338 C 0.21368 0.74161 0.7953 0.0
C339 C 0.16567 0.76728 0.81331 0.0
C340 C 0.19063 0.79422 0.79067 0.0
H341 H 0.20994 0.68275 0.72469 0.0
H342 H 0.26761 0.67052 0.78336 0.0
H343 H 0.2705 0.72305 0.77241 0.0
H344 H 0.26315 0.73931 0.79559 0.0
H345 H 0.27758 0.71353 0.79972 0.0
H346 H 0.22605 0.68198 0.80968 0.0
H347 H 0.2535 0.68993 0.81964 0.0
H348 H 0.22966 0.70686 0.82518 0.0
H349 H 0.14049 0.72771 0.70748 0.0
H350 H 0.11957 0.78438 0.74681 0.0
H351 H 0.15094 0.78018 0.77188 0.0
H352 H 0.15392 0.697 0.74916 0.0
H353 H 0.1595 0.69113 0.72038 0.0
H354 H 0.17873 0.68358 0.74222 0.0
H355 H 0.19378 0.74105 0.70941 0.0
H356 H 0.20882 0.71664 0.71399 0.0
H357 H 0.1827 0.71497 0.69857 0.0
H358 H 0.23343 0.65025 0.72221 0.0
C359 C 0.22237 0.68075 0.73756 0.0
C360 C 0.89776 0.49145 0.51045 0.0
C361 C 0.89538 0.47011 0.50055 0.0
C362 C 0.90868 0.46439 0.48233 0.0
C363 C 0.92609 0.50106 0.48368 0.0
C364 C 0.91341 0.50656 0.50189 0.0
C365 C 0.91904 0.52963 0.51088 0.0
H366 H 0.97324 0.62847 0.49823 0.0
C367 C 0.94031 0.52052 0.47848 0.0
C368 C 0.93642 0.5373 0.49442 0.0
H369 H 0.93167 0.60874 0.55258 0.0
H370 H 0.92684 0.5718 0.53599 0.0
H371 H 0.94485 0.60471 0.45886 0.0
H372 H 0.00126 0.58261 0.49745 0.0
H373 H 0.00541 0.57469 0.46956 0.0
H374 H 0.00364 0.60383 0.47694 0.0
H375 H 0.9725 0.61578 0.45523 0.0
H376 H 0.96266 0.59093 0.44051 0.0
C377 C 0.89773 0.54367 0.50953 0.0
C378 C 0.92902 0.52761 0.53476 0.0
C379 C 0.98864 0.51773 0.41017 0.0
C380 C 0.0021 0.5336 0.39955 0.0
C381 C 0.00422 0.55522 0.40906 0.0
C382 C 0.99309 0.56089 0.42866 0.0
C383 C 0.97958 0.54481 0.43889 0.0
C384 C 0.97745 0.52372 0.42949 0.0
C385 C 0.96178 0.50895 0.44201 0.0
C386 C 0.9551 0.52454 0.46078 0.0
C387 C 0.96565 0.54546 0.45897 0.0
C388 C 0.9418 0.50258 0.42622 0.0
C389 C 0.97504 0.4889 0.45077 0.0
C390 C 0.96317 0.61609 0.50652 0.0
C391 C 0.95269 0.62132 0.52657 0.0
C392 C 0.93991 0.60488 0.53713 0.0
C393 C 0.93707 0.58355 0.52743 0.0
C394 C 0.94733 0.57863 0.50711 0.0
C395 C 0.96051 0.59464 0.49726 0.0
C396 C 0.97106 0.58612 0.47635 0.0
C397 C 0.96187 0.56243 0.47514 0.0
C398 C 0.94767 0.55824 0.49299 0.0
C399 C 0.96255 0.60011 0.45661 0.0
C400 C 0.9967 0.58692 0.48002 0.0
H401 H 0.93346 0.47434 0.45986 0.0
H402 H 0.88797 0.49607 0.52471 0.0
H403 H 0.93675 0.51111 0.53722 0.0
H404 H 0.94272 0.53983 0.5383 0.0
H405 H 0.91601 0.52956 0.54752 0.0
H406 H 0.8893 0.54131 0.49296 0.0
H407 H 0.88573 0.53862 0.52243 0.0
H408 H 0.90113 0.56171 0.51147 0.0
H409 H 0.98684 0.50084 0.40368 0.0
H410 H 0.01422 0.5679 0.40116 0.0
H411 H 0.9953 0.57762 0.43499 0.0
H412 H 0.93776 0.51649 0.41494 0.0
H413 H 0.94558 0.48783 0.41561 0.0
H414 H 0.92619 0.49929 0.43511 0.0
H415 H 0.99252 0.49396 0.45526 0.0
H416 H 0.96823 0.4821 0.46625 0.0
H417 H 0.97569 0.47534 0.43797 0.0
H418 H 0.90704 0.44803 0.47449 0.0
C419 C 0.92395 0.47973 0.47383 0.0
C420 C 0.82411 0.75144 0.8649 0.0
C421 C 0.80587 0.74618 0.87826 0.0
C422 C 0.78854 0.76158 0.88029 0.0
C423 C 0.80667 0.78581 0.85405 0.0
C424 C 0.82415 0.77121 0.85299 0.0
C425 C 0.84162 0.77851 0.83697 0.0
H426 H 0.86973 0.84145 0.75026 0.0
C427 C 0.8109 0.8037 0.83802 0.0
C428 C 0.83148 0.79965 0.82815 0.0
H429 H 0.90673 0.78833 0.78036 0.0
H430 H 0.88073 0.78689 0.81032 0.0
H431 H 0.85943 0.86743 0.79797 0.0
H432 H 0.82171 0.82056 0.75634 0.0
H433 H 0.804 0.84216 0.7644 0.0
H434 H 0.82803 0.84854 0.74814 0.0
H435 H 0.84591 0.8756 0.77258 0.0
H436 H 0.83141 0.87532 0.79866 0.0
C437 C 0.86368 0.78333 0.85025 0.0
C438 C 0.84318 0.76011 0.81862 0.0
C439 C 0.75035 0.85924 0.82152 0.0
C440 C 0.7481 0.87605 0.80568 0.0
C441 C 0.76631 0.88109 0.79204 0.0
C442 C 0.78609 0.86905 0.79361 0.0
C443 C 0.78766 0.85164 0.80885 0.0
C444 C 0.7701 0.84728 0.82275 0.0
C445 C 0.77448 0.828 0.8377 0.0
C446 C 0.79761 0.82151 0.83056 0.0
C447 C 0.80519 0.83527 0.81351 0.0
C448 C 0.77446 0.8366 0.86218 0.0
C449 C 0.75675 0.80951 0.83204 0.0
C450 C 0.87227 0.82964 0.76343 0.0
C451 C 0.8901 0.81474 0.76276 0.0
C452 C 0.89318 0.79999 0.78047 0.0
C453 C 0.87789 0.79898 0.79773 0.0
C454 C 0.85918 0.81268 0.79719 0.0
C455 C 0.85707 0.82835 0.78079 0.0
C456 C 0.83633 0.84185 0.78331 0.0
C457 C 0.82597 0.83107 0.80342 0.0
C458 C 0.83926 0.81373 0.81116 0.0
C459 C 0.84346 0.8664 0.78824 0.0
C460 C 0.82168 0.83832 0.76195 0.0
H461 H 0.77498 0.7922 0.87016 0.0
H462 H 0.83787 0.74013 0.86336 0.0
H463 H 0.82625 0.75391 0.81338 0.0
H464 H 0.85091 0.76589 0.80324 0.0
H465 H 0.85267 0.7457 0.82479 0.0
H466 H 0.86049 0.78802 0.8679 0.0
H467 H 0.87448 0.76852 0.85034 0.0
H468 H 0.87315 0.79771 0.84371 0.0
H469 H 0.73686 0.85517 0.83253 0.0
H470 H 0.76502 0.89386 0.77961 0.0
H471 H 0.79918 0.87338 0.78248 0.0
H472 H 0.78162 0.85381 0.86363 0.0
H473 H 0.75726 0.83699 0.86867 0.0
H474 H 0.78499 0.82664 0.87337 0.0
H475 H 0.75268 0.80893 0.81387 0.0
H476 H 0.76244 0.79262 0.83577 0.0
H477 H 0.74101 0.81256 0.84095 0.0
H478 H 0.77429 0.7579 0.89048 0.0
C479 C 0.78889 0.7814 0.86832 0.0
C480 C 0.32564 0.26206 0.37551 0.0
C481 C 0.307 0.25685 0.38836 0.0
C482 C 0.28952 0.27216 0.38957 0.0
C483 C 0.30796 0.29565 0.36284 0.0
C484 C 0.32567 0.28129 0.36278 0.0
C485 C 0.34296 0.28756 0.34614 0.0
H486 H 0.36939 0.34421 0.25465 0.0
C487 C 0.31199 0.31247 0.34562 0.0
C488 C 0.33253 0.30787 0.33589 0.0
H489 H 0.40681 0.29291 0.2873 0.0
H490 H 0.38148 0.2936 0.31793 0.0
H491 H 0.36031 0.37328 0.30027 0.0
H492 H 0.32166 0.32385 0.26283 0.0
H493 H 0.30405 0.34593 0.26969 0.0
H494 H 0.32781 0.35118 0.25268 0.0
H495 H 0.34553 0.37992 0.27508 0.0
H496 H 0.33232 0.38111 0.30185 0.0
C497 C 0.36499 0.29357 0.35896 0.0
C498 C 0.34465 0.26793 0.32911 0.0
C499 C 0.25125 0.36691 0.32581 0.0
C500 C 0.24903 0.38272 0.30895 0.0
C501 C 0.26722 0.38678 0.29496 0.0
C502 C 0.28693 0.3748 0.29725 0.0
C503 C 0.28848 0.35838 0.31354 0.0
C504 C 0.27098 0.35497 0.32776 0.0
C505 C 0.27543 0.33662 0.34386 0.0
C506 C 0.29856 0.32969 0.33706 0.0
C507 C 0.306 0.34232 0.31912 0.0
C508 C 0.27552 0.34668 0.36779 0.0
C509 C 0.25768 0.31786 0.33941 0.0
C510 C 0.37216 0.33323 0.2685 0.0
C511 C 0.38988 0.3182 0.26838 0.0
C512 C 0.3933 0.30462 0.28696 0.0
C513 C 0.37842 0.30487 0.30463 0.0
C514 C 0.35976 0.31865 0.30361 0.0
C515 C 0.35735 0.33317 0.28622 0.0
C516 C 0.33669 0.34686 0.28816 0.0
C517 C 0.32666 0.33747 0.30912 0.0
C518 C 0.34008 0.32072 0.31784 0.0
C519 C 0.34391 0.37163 0.29135 0.0
C520 C 0.32169 0.34193 0.26726 0.0
H521 H 0.27587 0.30227 0.37804 0.0
H522 H 0.33951 0.25083 0.37454 0.0
H523 H 0.32789 0.26041 0.32525 0.0
H524 H 0.35105 0.2729 0.31285 0.0
H525 H 0.35533 0.2546 0.33579 0.0
H526 H 0.36168 0.30076 0.37576 0.0
H527 H 0.37536 0.27864 0.36131 0.0
H528 H 0.37492 0.30658 0.35065 0.0
H529 H 0.23777 0.36359 0.33708 0.0
H530 H 0.26596 0.3987 0.28172 0.0
H531 H 0.29999 0.37836 0.28583 0.0
H532 H 0.28348 0.36357 0.36828 0.0
H533 H 0.25828 0.34831 0.37395 0.0
H534 H 0.28535 0.33691 0.37974 0.0
H535 H 0.25298 0.31659 0.32141 0.0
H536 H 0.2637 0.30116 0.34349 0.0
H537 H 0.24225 0.32108 0.34876 0.0
H538 H 0.27495 0.26856 0.39934 0.0
C539 C 0.28997 0.29161 0.37697 0.0
C540 C 0.5083 0.88631 0.49293 0.0
C541 C 0.49614 0.88176 0.47306 0.0
C542 C 0.47698 0.894 0.46817 0.0
C543 C 0.48281 0.91598 0.50198 0.0
C544 C 0.50138 0.90364 0.5071 0.0
C545 C 0.5129 0.91195 0.52831 0.0
H546 H 0.51537 0.98421 0.61676 0.0
C547 C 0.48068 0.93349 0.5193 0.0
C548 C 0.4982 0.93131 0.53485 0.0
H549 H 0.56185 0.93219 0.60199 0.0
H550 H 0.54142 0.92283 0.56781 0.0
H551 H 0.47 0.95751 0.60116 0.0
H552 H 0.51372 0.00249 0.56688 0.0
H553 H 0.48635 0.00827 0.5583 0.0
H554 H 0.49449 0.01223 0.58722 0.0
H555 H 0.47275 0.98663 0.60828 0.0
H556 H 0.45363 0.97675 0.58664 0.0
C557 C 0.51193 0.89303 0.54541 0.0
C558 C 0.53682 0.91986 0.52265 0.0
C559 C 0.41961 0.98979 0.5108 0.0
C560 C 0.41401 0.00908 0.52284 0.0
C561 C 0.42549 0.01422 0.54306 0.0
C562 C 0.44291 0.00076 0.55062 0.0
C563 C 0.44888 0.98201 0.53781 0.0
C564 C 0.43704 0.97672 0.51842 0.0
C565 C 0.44578 0.95661 0.50654 0.0
C566 C 0.46515 0.95082 0.52176 0.0
C567 C 0.46692 0.96563 0.54008 0.0
C568 C 0.42723 0.93826 0.50617 0.0
C569 C 0.45361 0.96384 0.48321 0.0
C570 C 0.52108 0.97082 0.6061 0.0
C571 C 0.54009 0.9588 0.612 0.0
C572 C 0.54728 0.9417 0.59764 0.0
C573 C 0.53532 0.93621 0.57792 0.0
C574 C 0.5161 0.94814 0.5724 0.0
C575 C 0.50949 0.96537 0.58622 0.0
C576 C 0.4893 0.9769 0.57721 0.0
C577 C 0.48442 0.96331 0.55607 0.0
C578 C 0.50009 0.94638 0.55338 0.0
C579 C 0.47035 0.97454 0.59417 0.0
C580 C 0.4961 0.0013 0.57222 0.0
H581 H 0.45555 0.91977 0.47768 0.0
H582 H 0.52321 0.87718 0.4969 0.0
H583 H 0.53728 0.92696 0.50568 0.0
H584 H 0.54319 0.93344 0.53383 0.0
H585 H 0.54862 0.90584 0.5231 0.0
H586 H 0.49525 0.88461 0.54485 0.0
H587 H 0.52457 0.88025 0.54178 0.0
H588 H 0.51435 0.89905 0.56277 0.0
H589 H 0.41084 0.98511 0.49542 0.0
H590 H 0.42147 0.029 0.55266 0.0
H591 H 0.45128 0.00568 0.56594 0.0
H592 H 0.41719 0.93913 0.52153 0.0
H593 H 0.41561 0.94011 0.49171 0.0
H594 H 0.43389 0.92123 0.50592 0.0
H595 H 0.45984 0.98141 0.48362 0.0
H596 H 0.46783 0.9542 0.47713 0.0
H597 H 0.43975 0.96258 0.47069 0.0
H598 H 0.4674 0.89058 0.45295 0.0
C599 C 0.47017 0.91096 0.48255 0.0
C600 C 0.17469 0.26517 0.75401 0.0
C601 C 0.16066 0.24626 0.75181 0.0
C602 C 0.16775 0.22773 0.73932 0.0
C603 C 0.20139 0.24815 0.72947 0.0
C604 C 0.1949 0.26574 0.74284 0.0
C605 C 0.21124 0.28501 0.74282 0.0
H606 H 0.30102 0.33514 0.69794 0.0
C607 C 0.22236 0.25494 0.71864 0.0
C608 C 0.22832 0.27642 0.72664 0.0
H609 H 0.2599 0.35945 0.75122 0.0
H610 H 0.23869 0.32512 0.7502 0.0
H611 H 0.2615 0.31178 0.66848 0.0
H612 H 0.30681 0.28681 0.71801 0.0
H613 H 0.30282 0.26534 0.69802 0.0
H614 H 0.31522 0.29155 0.68997 0.0
H615 H 0.29078 0.30865 0.66399 0.0
H616 H 0.27115 0.28607 0.65856 0.0
C617 C 0.19896 0.30555 0.73378 0.0
C618 C 0.22122 0.28824 0.76672 0.0
C619 C 0.25448 0.20608 0.6575 0.0
C620 C 0.27277 0.20888 0.64343 0.0
C621 C 0.28666 0.22795 0.64636 0.0
C622 C 0.28219 0.24415 0.66263 0.0
C623 C 0.26353 0.24143 0.67611 0.0
C624 C 0.25022 0.22249 0.67369 0.0
C625 C 0.23117 0.22246 0.68963 0.0
C626 C 0.23518 0.24461 0.70184 0.0
C627 C 0.25406 0.25571 0.69366 0.0
C628 C 0.20913 0.22205 0.67575 0.0
C629 C 0.23382 0.2025 0.70535 0.0
C630 C 0.28756 0.33302 0.70951 0.0
C631 C 0.28191 0.35034 0.72435 0.0
C632 C 0.26426 0.34673 0.73914 0.0
C633 C 0.25202 0.32666 0.73867 0.0
C634 C 0.25739 0.30983 0.72328 0.0
C635 C 0.27517 0.31297 0.70934 0.0
C636 C 0.27881 0.29291 0.69456 0.0
C637 C 0.26015 0.27736 0.70184 0.0
C638 C 0.2475 0.28751 0.71844 0.0
C639 C 0.27557 0.30006 0.67006 0.0
C640 C 0.30215 0.28363 0.70019 0.0
H641 H 0.19239 0.21419 0.71835 0.0
H642 H 0.1697 0.27952 0.76378 0.0
H643 H 0.22102 0.27235 0.77595 0.0
H644 H 0.23899 0.29352 0.76677 0.0
H645 H 0.21164 0.30052 0.77652 0.0
H646 H 0.18793 0.30067 0.71932 0.0
H647 H 0.18839 0.31312 0.74676 0.0
H648 H 0.2103 0.31855 0.72754 0.0
H649 H 0.24365 0.19149 0.65587 0.0
H650 H 0.3007 0.23069 0.63562 0.0
H651 H 0.29325 0.25838 0.66378 0.0
H652 H 0.21041 0.23341 0.66139 0.0
H653 H 0.20524 0.20504 0.66901 0.0
H654 H 0.19473 0.22789 0.68517 0.0
H655 H 0.25173 0.19904 0.70864 0.0
H656 H 0.22686 0.2057 0.72198 0.0
H657 H 0.22593 0.18713 0.69795 0.0
H658 H 0.15714 0.213 0.73748 0.0
C659 C 0.18809 0.22858 0.72811 0.0
C660 C 0.72903 0.14243 0.74953 0.0
C661 C 0.7085 0.13846 0.73826 0.0
C662 C 0.70138 0.15379 0.72221 0.0
C663 C 0.73503 0.17616 0.7286 0.0
C664 C 0.74193 0.16129 0.74448 0.0
C665 C 0.76419 0.16787 0.75484 0.0
H666 H 0.85414 0.23763 0.75812 0.0
C667 C 0.75236 0.19389 0.72719 0.0
C668 C 0.76945 0.18918 0.74262 0.0
H669 H 0.84238 0.17959 0.79818 0.0
H670 H 0.80643 0.1737 0.78014 0.0
H671 H 0.80663 0.25749 0.76433 0.0
H672 H 0.83316 0.21705 0.7116 0.0
H673 H 0.81852 0.23911 0.6996 0.0
H674 H 0.8422 0.24523 0.71764 0.0
H675 H 0.82368 0.26927 0.7432 0.0
H676 H 0.7938 0.26624 0.73957 0.0
C677 C 0.76099 0.17226 0.78007 0.0
C678 C 0.78088 0.14927 0.74935 0.0
C679 C 0.7442 0.2547 0.66988 0.0
C680 C 0.75749 0.27339 0.66479 0.0
C681 C 0.77684 0.27819 0.67781 0.0
C682 C 0.78329 0.26422 0.69513 0.0
C683 C 0.77021 0.24524 0.6996 0.0
C684 C 0.75075 0.24103 0.68741 0.0
C685 C 0.73853 0.22056 0.69514 0.0
C686 C 0.75415 0.21291 0.71358 0.0
C687 C 0.77281 0.22727 0.71591 0.0
C688 C 0.7157 0.22776 0.70422 0.0
C689 C 0.73695 0.20356 0.67543 0.0
C690 C 0.84379 0.22376 0.76325 0.0
C691 C 0.85132 0.20903 0.77964 0.0
C692 C 0.83727 0.19102 0.7854 0.0
C693 C 0.81629 0.1877 0.77499 0.0
C694 C 0.80912 0.20253 0.7586 0.0
C695 C 0.82275 0.22031 0.75314 0.0
C696 C 0.81228 0.23467 0.73571 0.0
C697 C 0.79022 0.22241 0.73135 0.0
C698 C 0.78852 0.20352 0.7447 0.0
C699 C 0.809 0.25822 0.74603 0.0
C700 C 0.82727 0.23421 0.71501 0.0
H701 H 0.70813 0.18352 0.70494 0.0
H702 H 0.73517 0.13092 0.76178 0.0
H703 H 0.77786 0.14251 0.73215 0.0
H704 H 0.79839 0.1552 0.74965 0.0
H705 H 0.77917 0.13522 0.76099 0.0
H706 H 0.74447 0.17972 0.78319 0.0
H707 H 0.76182 0.15655 0.7895 0.0
H708 H 0.77325 0.18442 0.78732 0.0
H709 H 0.7291 0.25075 0.6603 0.0
H710 H 0.78743 0.2924 0.6741 0.0
H711 H 0.79842 0.26856 0.70413 0.0
H712 H 0.71672 0.24492 0.71154 0.0
H713 H 0.7027 0.22763 0.69078 0.0
H714 H 0.70995 0.21727 0.71797 0.0
H715 H 0.75282 0.20339 0.66615 0.0
H716 H 0.73428 0.18625 0.68075 0.0
H717 H 0.72338 0.20786 0.6635 0.0
H718 H 0.6855 0.15137 0.71351 0.0
C719 C 0.71449 0.17256 0.71734 0.0
C720 C 0.53581 0.58394 0.48233 0.0
C721 C 0.51863 0.59957 0.48315 0.0
C722 C 0.50229 0.59743 0.49958 0.0
C723 C 0.52054 0.56494 0.51415 0.0
C724 C 0.53646 0.56688 0.49795 0.0
C725 C 0.55379 0.54916 0.49973 0.0
H726 H 0.59507 0.4598 0.55293 0.0
C727 C 0.52618 0.54566 0.52802 0.0
C728 C 0.54564 0.53631 0.51967 0.0
H729 H 0.62115 0.49306 0.49547 0.0
H730 H 0.59089 0.51874 0.49622 0.0
H731 H 0.58242 0.5046 0.57993 0.0
H732 H 0.54248 0.46101 0.53664 0.0
H733 H 0.52677 0.46786 0.56014 0.0
H734 H 0.55223 0.45272 0.56365 0.0
H735 H 0.57403 0.47709 0.58792 0.0
H736 H 0.55627 0.50062 0.59208 0.0
C737 C 0.5767 0.56081 0.50456 0.0
C738 C 0.55262 0.53478 0.47803 0.0
C739 C 0.47734 0.52644 0.59326 0.0
C740 C 0.47827 0.51002 0.60962 0.0
C741 C 0.49566 0.4945 0.60892 0.0
C742 C 0.51181 0.49541 0.59231 0.0
C743 C 0.5107 0.51205 0.57619 0.0
C744 C 0.4936 0.52715 0.57686 0.0
C745 C 0.49505 0.54386 0.55863 0.0
C746 C 0.51582 0.53636 0.54685 0.0
C747 C 0.52499 0.51771 0.55715 0.0
C748 C 0.49829 0.56732 0.56959 0.0
C749 C 0.47389 0.54104 0.54354 0.0
C750 C 0.59413 0.4725 0.54041 0.0
C751 C 0.61068 0.47443 0.52419 0.0
C752 C 0.60889 0.49139 0.50836 0.0
C753 C 0.59119 0.50625 0.50874 0.0
C754 C 0.57496 0.50431 0.52516 0.0
C755 C 0.57652 0.48762 0.54062 0.0
C756 C 0.55776 0.48835 0.55696 0.0
C757 C 0.54474 0.50817 0.54869 0.0
C758 C 0.55495 0.51743 0.53004 0.0
C759 C 0.56798 0.49274 0.58055 0.0
C760 C 0.54406 0.46633 0.55446 0.0
H761 H 0.49021 0.57964 0.52708 0.0
H762 H 0.54876 0.58521 0.47008 0.0
H763 H 0.53512 0.53283 0.47172 0.0
H764 H 0.5583 0.5176 0.48043 0.0
H765 H 0.5625 0.54258 0.4647 0.0
H766 H 0.57484 0.57588 0.51538 0.0
H767 H 0.58456 0.56619 0.48891 0.0
H768 H 0.58843 0.55029 0.51383 0.0
H769 H 0.46447 0.53885 0.59345 0.0
H770 H 0.49668 0.48153 0.62116 0.0
H771 H 0.52458 0.48314 0.59271 0.0
H772 H 0.50848 0.56654 0.58523 0.0
H773 H 0.48202 0.57463 0.57389 0.0
H774 H 0.50754 0.57905 0.55908 0.0
H775 H 0.46846 0.52324 0.54215 0.0
H776 H 0.47664 0.54606 0.52619 0.0
H777 H 0.4598 0.55057 0.55038 0.0
H778 H 0.48869 0.60901 0.50041 0.0
C779 C 0.50314 0.58026 0.51501 0.0
C780 C 0.52632 0.43082 0.0129 0.0
C781 C 0.50571 0.41932 0.01363 0.0
C782 C 0.48988 0.42212 0.9963 0.0
C783 C 0.51458 0.4482 0.97849 0.0
C784 C 0.53035 0.44522 0.9952 0.0
C785 C 0.55106 0.45923 0.99185 0.0
H786 H 0.6073 0.53383 0.92968 0.0
C787 C 0.52359 0.46449 0.9628 0.0
C788 C 0.54499 0.47103 0.97042 0.0
H789 H 0.62905 0.50336 0.99084 0.0
H790 H 0.59394 0.48336 0.99276 0.0
H791 H 0.55674 0.54329 0.94592 0.0
H792 H 0.58447 0.48967 0.90719 0.0
H793 H 0.55898 0.49699 0.89462 0.0
H794 H 0.58158 0.5172 0.89647 0.0
H795 H 0.56641 0.54704 0.91811 0.0
H796 H 0.53851 0.53706 0.92329 0.0
C797 C 0.55384 0.47574 0.01191 0.0
C798 C 0.57085 0.44336 0.98873 0.0
C799 C 0.47506 0.48818 0.8979 0.0
C800 C 0.47803 0.50332 0.88063 0.0
C801 C 0.49889 0.51421 0.87863 0.0
C802 C 0.51625 0.51062 0.89417 0.0
C803 C 0.51271 0.4959 0.91179 0.0
C804 C 0.49244 0.48477 0.91316 0.0
C805 C 0.49145 0.4696 0.93268 0.0
C806 C 0.51435 0.47369 0.94318 0.0
C807 C 0.52677 0.48913 0.931 0.0
C808 C 0.47263 0.4777 0.94805 0.0
C809 C 0.48837 0.44534 0.92363 0.0
C810 C 0.6045 0.52277 0.94343 0.0
C811 C 0.62098 0.52013 0.96012 0.0
C812 C 0.61655 0.50584 0.97791 0.0
C813 C 0.59621 0.49411 0.9789 0.0
C814 C 0.58001 0.49673 0.96198 0.0
C815 C 0.58421 0.51101 0.94471 0.0
C816 C 0.56489 0.51199 0.92842 0.0
C817 C 0.54852 0.49573 0.93859 0.0
C818 C 0.55751 0.48681 0.95824 0.0
C819 C 0.55614 0.53608 0.92871 0.0
C820 C 0.57276 0.5037 0.90536 0.0
H821 H 0.48135 0.43783 0.96628 0.0
H822 H 0.53881 0.429 0.02598 0.0
H823 H 0.56556 0.42831 0.97876 0.0
H824 H 0.58465 0.45088 0.97939 0.0
H825 H 0.5774 0.43769 0.00505 0.0
H826 H 0.53733 0.4811 0.01795 0.0
H827 H 0.56278 0.46797 0.02606 0.0
H828 H 0.5626 0.49136 0.00764 0.0
H829 H 0.45937 0.47922 0.89962 0.0
H830 H 0.50155 0.52593 0.86541 0.0
H831 H 0.53166 0.51961 0.89201 0.0
H832 H 0.47175 0.4962 0.94823 0.0
H833 H 0.45611 0.47096 0.94225 0.0
H834 H 0.47532 0.47337 0.96567 0.0
H835 H 0.49611 0.44319 0.90706 0.0
H836 H 0.49673 0.43304 0.93425 0.0
H837 H 0.47043 0.44066 0.92165 0.0
H838 H 0.47407 0.41309 0.99622 0.0
C839 C 0.49419 0.43643 0.97881 0.0
C840 C 0.7624 0.16991 0.27551 0.0
C841 C 0.76121 0.15441 0.25768 0.0
C842 C 0.74662 0.15835 0.23956 0.0
C843 C 0.73312 0.19153 0.25841 0.0
C844 C 0.74824 0.18813 0.2756 0.0
C845 C 0.74651 0.20511 0.29414 0.0
H846 H 0.69433 0.29296 0.3404 0.0
C847 C 0.71966 0.21108 0.26464 0.0
C848 C 0.72753 0.21909 0.28554 0.0
H849 H 0.75128 0.25762 0.36585 0.0
H850 H 0.75059 0.23374 0.33333 0.0
H851 H 0.66689 0.24844 0.32118 0.0
H852 H 0.71109 0.29569 0.29076 0.0
H853 H 0.68996 0.28891 0.27104 0.0
H854 H 0.68283 0.30227 0.29706 0.0
H855 H 0.65946 0.27677 0.31627 0.0
H856 H 0.65521 0.25529 0.29518 0.0
C857 C 0.74028 0.19271 0.31565 0.0
C858 C 0.76881 0.21858 0.29578 0.0
C859 C 0.65518 0.23463 0.21458 0.0
C860 C 0.63929 0.25149 0.21648 0.0
C861 C 0.64046 0.26603 0.23522 0.0
C862 C 0.65688 0.26365 0.25188 0.0
C863 C 0.67239 0.24654 0.2499 0.0
C864 C 0.6715 0.23248 0.2314 0.0
C865 C 0.68939 0.21525 0.23217 0.0
C866 C 0.70117 0.22134 0.25412 0.0
C867 C 0.69103 0.23962 0.26451 0.0
C868 C 0.6779 0.19196 0.2327 0.0
C869 C 0.70476 0.21871 0.21207 0.0
C870 C 0.7065 0.27994 0.33897 0.0
C871 C 0.72296 0.27727 0.35569 0.0
C872 C 0.73864 0.26026 0.35309 0.0
C873 C 0.73817 0.24631 0.33418 0.0
C874 C 0.7218 0.24922 0.31753 0.0
C875 C 0.70635 0.26584 0.32 0.0
C876 C 0.69053 0.26663 0.30022 0.0
C877 C 0.69905 0.24773 0.28564 0.0
C878 C 0.71726 0.23755 0.29599 0.0
C879 C 0.66669 0.26169 0.30848 0.0
C880 C 0.69351 0.28957 0.28916 0.0
H881 H 0.72139 0.17866 0.22583 0.0
H882 H 0.77364 0.16749 0.28956 0.0
H883 H 0.77651 0.22006 0.27916 0.0
H884 H 0.76664 0.23598 0.30156 0.0
H885 H 0.78104 0.21042 0.30694 0.0
H886 H 0.72873 0.1784 0.31174 0.0
H887 H 0.75532 0.18605 0.32408 0.0
H888 H 0.73125 0.20315 0.32764 0.0
H889 H 0.65467 0.22306 0.20052 0.0
H890 H 0.62873 0.27941 0.23695 0.0
H891 H 0.65679 0.27522 0.2657 0.0
H892 H 0.66285 0.19238 0.24322 0.0
H893 H 0.6725 0.18624 0.21571 0.0
H894 H 0.68855 0.1792 0.24016 0.0
H895 H 0.70702 0.23675 0.20865 0.0
H896 H 0.72178 0.2126 0.21504 0.0
H897 H 0.69757 0.21051 0.19675 0.0
H898 H 0.74535 0.1466 0.22567 0.0
C899 C 0.73256 0.17684 0.23982 0.0
C900 C 0.38651 0.00314 0.99178 0.0
C901 C 0.38516 0.98231 0.98057 0.0
C902 C 0.40373 0.97521 0.96839 0.0
C903 C 0.4233 0.01 0.97682 0.0
C904 C 0.40577 0.01656 0.98982 0.0
C905 C 0.41028 0.03895 0.00088 0.0
H906 H 0.47671 0.131 0.01392 0.0
C907 C 0.44026 0.02813 0.97721 0.0
C908 C 0.43296 0.04502 0.99157 0.0
H909 H 0.415 0.11563 0.04675 0.0
H910 H 0.41245 0.08006 0.0275 0.0
H911 H 0.46032 0.11435 0.96687 0.0
H912 H 0.49827 0.08001 0.01681 0.0
H913 H 0.5109 0.0764 0.99072 0.0
H914 H 0.50862 0.10399 0.00255 0.0
H915 H 0.48967 0.11951 0.97102 0.0
H916 H 0.47908 0.09739 0.95273 0.0
C917 C 0.39201 0.05504 0.99295 0.0
C918 C 0.41139 0.03575 0.02645 0.0
C919 C 0.50485 0.02389 0.92433 0.0
C920 C 0.52136 0.03931 0.91795 0.0
C921 C 0.52342 0.05982 0.92974 0.0
C922 C 0.50876 0.06511 0.94697 0.0
C923 C 0.49171 0.04984 0.95235 0.0
C924 C 0.4901 0.02959 0.94111 0.0
C925 C 0.47036 0.0158 0.94799 0.0
C926 C 0.46017 0.03117 0.96515 0.0
C927 C 0.47282 0.051 0.96782 0.0
C928 C 0.45489 0.01202 0.9272 0.0
C929 C 0.47899 0.99415 0.95854 0.0
C930 C 0.46288 0.11976 0.01718 0.0
C931 C 0.44605 0.12603 0.03188 0.0
C932 C 0.42806 0.11118 0.03539 0.0
C933 C 0.42664 0.09052 0.02423 0.0
C934 C 0.44329 0.08465 0.00923 0.0
C935 C 0.4611 0.09909 0.00598 0.0
C936 C 0.47682 0.09023 0.98885 0.0
C937 C 0.46585 0.06784 0.98294 0.0
C938 C 0.44612 0.06477 0.99483 0.0
C939 C 0.47671 0.10616 0.96882 0.0
C940 C 0.49998 0.08757 0.00015 0.0
H941 H 0.436 0.98254 0.9567 0.0
H942 H 0.37278 0.00911 0.00152 0.0
H943 H 0.41681 0.01869 0.03066 0.0
H944 H 0.42386 0.04695 0.0349 0.0
H945 H 0.39486 0.03824 0.03401 0.0
H946 H 0.38861 0.05274 0.97476 0.0
H947 H 0.37615 0.05191 0.00169 0.0
H948 H 0.39685 0.07275 0.99529 0.0
H949 H 0.50304 0.00774 0.91611 0.0
H950 H 0.5359 0.07208 0.92522 0.0
H951 H 0.51097 0.08108 0.95511 0.0
H952 H 0.45409 0.02738 0.91716 0.0
H953 H 0.46114 0.99847 0.91628 0.0
H954 H 0.43745 0.00811 0.93128 0.0
H955 H 0.49575 0.99687 0.96652 0.0
H956 H 0.46834 0.98825 0.97214 0.0
H957 H 0.48044 0.98062 0.94582 0.0
H958 H 0.40371 0.95893 0.96032 0.0
C959 C 0.42265 0.98889 0.96643 0.0
Zn960 Zn 0.2771 0.85102 0.005 0.0
Zn961 Zn 0.24101 0.87372 0.013 0.0
O962 O 0.24335 0.8537 0.04102 0.0
O963 O 0.27419 0.83573 0.03419 0.0
O964 O 0.21394 0.89283 0.01797 0.0
O965 O 0.29594 0.87847 0.00266 0.0
O966 O 0.26636 0.89792 0.01105 0.0
C967 C 0.25804 0.83968 0.04682 0.0
C968 C 0.24443 0.84374 0.9707 0.0
O969 O 0.23323 0.857 0.98281 0.0
O970 O 0.26376 0.83815 0.9769 0.0
C971 C 0.1943 0.88515 0.02068 0.0
O972 O 0.19097 0.86348 0.02091 0.0
C973 C 0.28699 0.897 0.0064 0.0
Zn974 Zn 0.09611 0.46067 0.27549 0.0
Zn975 Zn 0.11786 0.49861 0.26519 0.0
O976 O 0.09793 0.50856 0.2912 0.0
O977 O 0.07971 0.47754 0.29902 0.0
O978 O 0.13489 0.52657 0.25745 0.0
O979 O 0.12567 0.44634 0.28244 0.0
O980 O 0.14301 0.47759 0.27411 0.0
C981 C 0.0835 0.49812 0.30255 0.0
C982 C 0.08741 0.47383 0.23063 0.0
O983 O 0.10097 0.48977 0.23585 0.0
O984 O 0.0825 0.4592 0.24469 0.0
C985 C 0.12542 0.54464 0.25254 0.0
O986 O 0.10355 0.54536 0.2524 0.0
C987 C 0.14362 0.4575 0.28051 0.0
Zn988 Zn 0.78287 0.58912 0.95147 0.0
Zn989 Zn 0.77876 0.60986 0.99168 0.0
O990 O 0.80587 0.59022 0.99626 0.0
O991 O 0.80782 0.57089 0.9648 0.0
O992 O 0.77728 0.62665 0.02081 0.0
O993 O 0.78926 0.61923 0.93769 0.0
O994 O 0.78322 0.63527 0.97018 0.0
C995 C 0.81497 0.57528 0.98441 0.0
C996 C 0.73999 0.58164 0.97183 0.0
O997 O 0.74868 0.59306 0.988 0.0
O998 O 0.75093 0.57823 0.95429 0.0
C999 C 0.76125 0.6396 0.02463 0.0
O1000 O 0.74494 0.64088 0.00981 0.0
C1001 C 0.78761 0.63673 0.94962 0.0
Zn1002 Zn 0.83639 0.00036 0.27443 0.0
Zn1003 Zn 0.86293 0.00444 0.24101 0.0
O1004 O 0.84422 0.03368 0.23948 0.0
O1005 O 0.82366 0.03011 0.26918 0.0
O1006 O 0.88535 0.007 0.2163 0.0
O1007 O 0.86155 0.99754 0.29641 0.0
O1008 O 0.88427 0.00276 0.26868 0.0
C1009 C 0.82954 0.04132 0.25261 0.0
C1010 C 0.82913 0.96506 0.243 0.0
O1011 O 0.84545 0.97466 0.23345 0.0
O1012 O 0.82156 0.97331 0.26077 0.0
C1013 C 0.8809 0.00927 0.19568 0.0
O1014 O 0.85998 0.01041 0.18898 0.0
C1015 C 0.88118 0.9997 0.28936 0.0
Zn1016 Zn 0.282 0.09638 0.45065 0.0
Zn1017 Zn 0.26961 0.11266 0.49054 0.0
O1018 O 0.29643 0.09319 0.49837 0.0
O1019 O 0.30725 0.08046 0.46581 0.0
O1020 O 0.26137 0.12594 0.52024 0.0
O1021 O 0.2871 0.12756 0.44002 0.0
O1022 O 0.27683 0.14071 0.4726 0.0
C1023 C 0.30976 0.08173 0.48679 0.0
C1024 C 0.23704 0.08373 0.46196 0.0
O1025 O 0.2416 0.09504 0.47971 0.0
O1026 O 0.2515 0.08178 0.44699 0.0
C1027 C 0.27704 0.13383 0.53277 0.0
O1028 O 0.29769 0.13255 0.52602 0.0
C1029 C 0.28357 0.14398 0.45292 0.0
Zn1030 Zn 0.33759 0.51047 0.77522 0.0
Zn1031 Zn 0.3611 0.51308 0.73899 0.0
O1032 O 0.3415 0.54166 0.73702 0.0
O1033 O 0.3234 0.53923 0.76842 0.0
O1034 O 0.38146 0.51396 0.71248 0.0
O1035 O 0.3647 0.51003 0.79516 0.0
O1036 O 0.38452 0.51323 0.76497 0.0
C1037 C 0.32736 0.54945 0.75066 0.0
C1038 C 0.32822 0.4738 0.74579 0.0
O1039 O 0.34327 0.48317 0.73429 0.0
O1040 O 0.32244 0.4824 0.76411 0.0
C1041 C 0.37508 0.5154 0.69225 0.0
O1042 O 0.3537 0.51701 0.68755 0.0
C1043 C 0.38348 0.51182 0.78609 0.0
Zn1044 Zn 0.78193 0.34024 0.51122 0.0
Zn1045 Zn 0.74701 0.36505 0.51275 0.0
O1046 O 0.74409 0.34432 0.54019 0.0
O1047 O 0.77079 0.3202 0.53493 0.0
O1048 O 0.72007 0.38496 0.51498 0.0
O1049 O 0.8025 0.36612 0.51865 0.0
O1050 O 0.7736 0.38781 0.51502 0.0
C1051 C 0.75428 0.32678 0.54585 0.0
C1052 C 0.75738 0.33813 0.47019 0.0
O1053 O 0.74349 0.34962 0.48119 0.0
O1054 O 0.77566 0.33271 0.47922 0.0
C1055 C 0.70063 0.37742 0.51902 0.0
O1056 O 0.69768 0.35589 0.52151 0.0
C1057 C 0.79455 0.38547 0.51798 0.0
Zn1058 Zn 0.59362 0.95396 0.78139 0.0
Zn1059 Zn 0.61446 0.99296 0.77334 0.0
O1060 O 0.59439 0.00082 0.80002 0.0
O1061 O 0.57719 0.96881 0.8062 0.0
O1062 O 0.63064 0.02187 0.76711 0.0
O1063 O 0.6236 0.93985 0.7867 0.0
O1064 O 0.64026 0.972 0.78045 0.0
C1065 C 0.58043 0.98926 0.81089 0.0
C1066 C 0.58386 0.9698 0.7377 0.0
O1067 O 0.59731 0.98559 0.7437 0.0
O1068 O 0.57934 0.95422 0.75085 0.0
C1069 C 0.64131 0.03233 0.78268 0.0
O1070 O 0.64124 0.02424 0.80285 0.0
C1071 C 0.64134 0.95148 0.78529 0.0
Zn1072 Zn 0.0121 0.27379 0.83182 0.0
Zn1073 Zn 0.01298 0.23734 0.85512 0.0
O1074 O 0.04025 0.23396 0.83431 0.0
O1075 O 0.03652 0.26284 0.81267 0.0
O1076 O 0.01376 0.21032 0.87486 0.0
O1077 O 0.02017 0.29308 0.85843 0.0
O1078 O 0.01623 0.26309 0.87861 0.0
C1079 C 0.04684 0.24547 0.81793 0.0
C1080 C 0.97082 0.24938 0.82827 0.0
O1081 O 0.98168 0.2352 0.83951 0.0
O1082 O 0.97993 0.26781 0.82349 0.0
C1083 C 0.01936 0.19088 0.86866 0.0
O1084 O 0.02498 0.18736 0.84788 0.0
C1085 C 0.01984 0.28401 0.87725 0.0
Zn1086 Zn 0.51494 0.76693 0.34275 0.0
Zn1087 Zn 0.51363 0.73238 0.36987 0.0
O1088 O 0.54382 0.72915 0.35372 0.0
O1089 O 0.5437 0.75695 0.33025 0.0
O1090 O 0.5133 0.70614 0.39051 0.0
O1091 O 0.51459 0.78784 0.36935 0.0
O1092 O 0.51265 0.7593 0.3917 0.0
C1093 C 0.55298 0.74008 0.33825 0.0
C1094 C 0.47691 0.73871 0.33377 0.0
O1095 O 0.48493 0.7277 0.34995 0.0
O1096 O 0.48669 0.75628 0.32751 0.0
C1097 C 0.51778 0.68659 0.38369 0.0
O1098 O 0.52223 0.68329 0.36256 0.0
C1099 C 0.51342 0.78028 0.38884 0.0
Zn1100 Zn 0.94767 0.78135 0.59761 0.0
Zn1101 Zn 0.98519 0.77617 0.62087 0.0
O1102 O 0.99391 0.80112 0.59905 0.0
O1103 O 0.96184 0.80666 0.58176 0.0
O1104 O 0.0131 0.77204 0.63965 0.0
O1105 O 0.93067 0.78769 0.62525 0.0
O1106 O 0.96216 0.78549 0.6444 0.0
C1107 C 0.98224 0.81171 0.58492 0.0
C1108 C 0.96497 0.73782 0.5917 0.0
O1109 O 0.97952 0.74511 0.60594 0.0
O1110 O 0.94962 0.75036 0.58496 0.0
C1111 C 0.03167 0.76701 0.63124 0.0
O1112 O 0.0329 0.76445 0.60952 0.0
C1113 C 0.94128 0.78918 0.64364 0.0
Zn1114 Zn 0.44712 0.28694 0.10279 0.0
Zn1115 Zn 0.48457 0.28028 0.12599 0.0
O1116 O 0.4941 0.30664 0.10644 0.0
O1117 O 0.46228 0.3132 0.089 0.0
O1118 O 0.51122 0.27512 0.14613 0.0
O1119 O 0.42942 0.292 0.13016 0.0
O1120 O 0.46069 0.28811 0.14927 0.0
C1121 C 0.4826 0.31814 0.09297 0.0
C1122 C 0.46472 0.24357 0.09463 0.0
O1123 O 0.47975 0.25037 0.10861 0.0
O1124 O 0.44895 0.25623 0.08925 0.0
C1125 C 0.53063 0.27 0.13991 0.0
O1126 O 0.53448 0.2677 0.11854 0.0
C1127 C 0.43988 0.2921 0.14865 0.0
H1128 H 0.19916 0.79698 0.88553 0.0
H1129 H 0.26726 0.80163 0.86399 0.0
H1130 H 0.27789 0.82246 0.89781 0.0
H1131 H 0.26887 0.83627 0.93471 0.0
H1132 H 0.20123 0.83284 0.95736 0.0
H1133 H 0.18924 0.81488 0.9218 0.0
C1134 C 0.2162 0.80294 0.88814 0.0
C1135 C 0.23251 0.79742 0.87249 0.0
C1136 C 0.2223 0.8149 0.90785 0.0
C1137 C 0.25453 0.80527 0.876 0.0
C1138 C 0.26063 0.81721 0.89531 0.0
C1139 C 0.25144 0.83171 0.93184 0.0
C1140 C 0.236 0.83547 0.94871 0.0
C1141 C 0.24482 0.82154 0.91157 0.0
C1142 C 0.21342 0.82998 0.94461 0.0
C1143 C 0.20662 0.81966 0.92434 0.0
H1144 H 0.04377 0.54685 0.38627 0.0
H1145 H 0.98637 0.50656 0.36546 0.0
H1146 H 0.00642 0.49268 0.33347 0.0
H1147 H 0.04079 0.4901 0.31261 0.0
H1148 H 0.09755 0.53192 0.33109 0.0
H1149 H 0.07698 0.54758 0.3625 0.0
C1150 C 0.03547 0.53537 0.37454 0.0
C1151 C 0.01372 0.52736 0.37871 0.0
C1152 C 0.04697 0.52771 0.35577 0.0
C1153 C 0.00333 0.51245 0.36321 0.0
C1154 C 0.01471 0.50461 0.34475 0.0
C1155 C 0.04859 0.50277 0.32344 0.0
C1156 C 0.07069 0.50965 0.31984 0.0
C1157 C 0.03665 0.51176 0.34115 0.0
C1158 C 0.08053 0.52636 0.33365 0.0
C1159 C 0.06881 0.53521 0.35162 0.0
H1160 H 0.79342 0.73717 0.92056 0.0
H1161 H 0.81464 0.70576 0.85956 0.0
H1162 H 0.81122 0.6692 0.87631 0.0
H1163 H 0.80147 0.64608 0.90794 0.0
H1164 H 0.78025 0.67735 0.96909 0.0
H1165 H 0.78425 0.71397 0.95256 0.0
C1166 C 0.79722 0.7223 0.91095 0.0
C1167 C 0.80432 0.72417 0.8889 0.0
C1168 C 0.79516 0.7013 0.92066 0.0
C1169 C 0.80943 0.70478 0.87669 0.0
C1170 C 0.80734 0.68386 0.88619 0.0
C1171 C 0.79772 0.66089 0.91768 0.0
C1172 C 0.7905 0.65893 0.93969 0.0
C1173 C 0.80014 0.68191 0.90813 0.0
C1174 C 0.78585 0.67834 0.95209 0.0
C1175 C 0.78811 0.69932 0.94266 0.0
H1176 H 0.94909 0.98986 0.36966 0.0
H1177 H 0.997 0.9983 0.31781 0.0
H1178 H 0.96658 0.00285 0.2904 0.0
H1179 H 0.92605 0.0029 0.28116 0.0
H1180 H 0.87902 0.99377 0.33398 0.0
H1181 H 0.90944 0.99073 0.36088 0.0
C1182 C 0.95291 0.99253 0.35232 0.0
C1183 C 0.97523 0.99342 0.3457 0.0
C1184 C 0.93547 0.9949 0.33679 0.0
C1185 C 0.97992 0.99754 0.3233 0.0
C1186 C 0.96254 2e-05 0.30764 0.0
C1187 C 0.92249 0.00029 0.29856 0.0
C1188 C 0.9002 0.99846 0.30542 0.0
C1189 C 0.94019 0.9985 0.31416 0.0
C1190 C 0.89593 0.99516 0.32809 0.0
C1191 C 0.91333 0.99343 0.34358 0.0
H1192 H 0.24222 0.18894 0.61507 0.0
H1193 H 0.31278 0.19256 0.63049 0.0
H1194 H 0.32016 0.16891 0.59807 0.0
H1195 H 0.30683 0.14894 0.56434 0.0
H1196 H 0.23629 0.145 0.54887 0.0
H1197 H 0.22863 0.16673 0.58257 0.0
C1198 C 0.25917 0.18422 0.61157 0.0
C1199 C 0.27694 0.19266 0.62509 0.0
C1200 C 0.26332 0.17065 0.59286 0.0
C1201 C 0.29884 0.18659 0.62015 0.0
C1202 C 0.30307 0.17301 0.60166 0.0
C1203 C 0.28976 0.15272 0.56837 0.0
C1204 C 0.27219 0.14551 0.55399 0.0
C1205 C 0.28549 0.16527 0.5877 0.0
C1206 C 0.25015 0.15039 0.55961 0.0
C1207 C 0.24575 0.16286 0.57886 0.0
H1208 H 0.4334 0.51605 0.60561 0.0
H1209 H 0.48536 0.50287 0.65404 0.0
H1210 H 0.45812 0.50322 0.68372 0.0
H1211 H 0.4197 0.50805 0.69609 0.0
H1212 H 0.36772 0.52142 0.64769 0.0
H1213 H 0.39488 0.52052 0.61795 0.0
C1214 C 0.4388 0.51338 0.62268 0.0
C1215 C 0.46145 0.50946 0.62754 0.0
C1216 C 0.42306 0.51375 0.63972 0.0
C1217 C 0.46804 0.50566 0.64973 0.0
C1218 C 0.45248 0.50602 0.66676 0.0
C1219 C 0.41427 0.5108 0.67904 0.0
C1220 C 0.39166 0.51488 0.6742 0.0
C1221 C 0.42997 0.51015 0.66197 0.0
C1222 C 0.38498 0.51827 0.65196 0.0
C1223 C 0.40052 0.51775 0.63491 0.0
H1224 H 0.74791 0.25847 0.62286 0.0
H1225 H 0.75598 0.31876 0.66248 0.0
H1226 H 0.75199 0.34111 0.62898 0.0
H1227 H 0.75047 0.34323 0.5879 0.0
H1228 H 0.74619 0.28258 0.54848 0.0
H1229 H 0.74385 0.26063 0.58227 0.0
C1230 C 0.7483 0.27651 0.62419 0.0
C1231 C 0.75225 0.28698 0.64505 0.0
C1232 C 0.74668 0.28917 0.60482 0.0
C1233 C 0.75311 0.31036 0.64653 0.0
C1234 C 0.75081 0.32312 0.6274 0.0
C1235 C 0.74838 0.32526 0.58682 0.0
C1236 C 0.74823 0.31446 0.56587 0.0
C1237 C 0.74816 0.3127 0.60637 0.0
C1238 C 0.74614 0.29116 0.56452 0.0
C1239 C 0.74496 0.27863 0.58381 0.0
H1240 H 0.52174 0.95898 0.65252 0.0
H1241 H 0.58433 0.96823 0.61972 0.0
H1242 H 0.60343 0.97456 0.65587 0.0
H1243 H 0.60235 0.97585 0.69715 0.0
H1244 H 0.54001 0.96295 0.72939 0.0
H1245 H 0.52066 0.95996 0.69325 0.0
C1246 C 0.53953 0.9626 0.65335 0.0
C1247 C 0.55165 0.9633 0.63363 0.0
C1248 C 0.55038 0.96559 0.67411 0.0
C1249 C 0.57474 0.9676 0.63479 0.0
C1250 C 0.58561 0.97125 0.65541 0.0
C1251 C 0.5845 0.97266 0.69613 0.0
C1252 C 0.57251 0.96977 0.71575 0.0
C1253 C 0.57363 0.9701 0.67522 0.0
C1254 C 0.54949 0.96523 0.7144 0.0
C1255 C 0.53844 0.96349 0.69379 0.0
H1256 H 0.87168 0.24841 0.79179 0.0
H1257 H 0.88147 0.17741 0.79218 0.0
H1258 H 0.91866 0.18338 0.80878 0.0
H1259 H 0.94937 0.20904 0.82145 0.0
H1260 H 0.93977 0.27996 0.81823 0.0
H1261 H 0.90182 0.2737 0.80417 0.0
C1262 C 0.88198 0.23419 0.79524 0.0
C1263 C 0.87371 0.2125 0.79055 0.0
C1264 C 0.90354 0.23773 0.80423 0.0
C1265 C 0.88721 0.19432 0.79579 0.0
C1266 C 0.90859 0.19771 0.80515 0.0
C1267 C 0.93888 0.22307 0.81781 0.0
C1268 C 0.94745 0.24492 0.82082 0.0
C1269 C 0.91705 0.21938 0.80924 0.0
C1270 C 0.93369 0.26296 0.8159 0.0
C1271 C 0.91194 0.25942 0.80788 0.0
H1272 H 0.49946 0.83688 0.47737 0.0
H1273 H 0.50901 0.89026 0.43138 0.0
H1274 H 0.51666 0.86346 0.40154 0.0
H1275 H 0.51773 0.82514 0.38792 0.0
H1276 H 0.50684 0.77101 0.43294 0.0
H1277 H 0.5027 0.79775 0.46382 0.0
C1278 C 0.50363 0.8425 0.46088 0.0
C1279 C 0.50374 0.86538 0.45642 0.0
C1280 C 0.50748 0.82691 0.44364 0.0
C1281 C 0.50887 0.87266 0.43503 0.0
C1282 C 0.51315 0.85737 0.41801 0.0
C1283 C 0.51456 0.81909 0.40448 0.0
C1284 C 0.51238 0.79609 0.40803 0.0
C1285 C 0.512 0.83448 0.422 0.0
C1286 C 0.50848 0.78864 0.4297 0.0
C1287 C 0.5061 0.80392 0.44737 0.0
H1288 H 0.14077 0.21763 0.78073 0.0
H1289 H 0.12972 0.27679 0.74276 0.0
H1290 H 0.09282 0.28047 0.75852 0.0
H1291 H 0.06484 0.26844 0.78435 0.0
H1292 H 0.07549 0.2106 0.8245 0.0
H1293 H 0.1113 0.20464 0.80645 0.0
C1294 C 0.13011 0.23115 0.77585 0.0
C1295 C 0.1379 0.24703 0.76076 0.0
C1296 C 0.10895 0.23343 0.78537 0.0
C1297 C 0.12409 0.26455 0.75454 0.0
C1298 C 0.103 0.26663 0.76349 0.0
C1299 C 0.07482 0.25437 0.78914 0.0
C1300 C 0.06747 0.24006 0.80587 0.0
C1301 C 0.09544 0.2514 0.77914 0.0
C1302 C 0.08073 0.22192 0.8117 0.0
C1303 C 0.10124 0.21855 0.80143 0.0
H1304 H 0.52589 0.59802 0.43843 0.0
H1305 H 0.50944 0.64313 0.49216 0.0
H1306 H 0.50734 0.67382 0.4662 0.0
H1307 H 0.51035 0.68797 0.42831 0.0
H1308 H 0.52712 0.64303 0.37451 0.0
H1309 H 0.52907 0.61228 0.40044 0.0
C1310 C 0.52203 0.61461 0.44448 0.0
C1311 C 0.51776 0.61822 0.46722 0.0
C1312 C 0.52089 0.63224 0.42944 0.0
C1313 C 0.51249 0.63979 0.47471 0.0
C1314 C 0.5114 0.65739 0.45989 0.0
C1315 C 0.5144 0.67145 0.42221 0.0
C1316 C 0.51857 0.66787 0.39946 0.0
C1317 C 0.51552 0.65381 0.43722 0.0
C1318 C 0.52381 0.64632 0.39192 0.0
C1319 C 0.52496 0.62869 0.40675 0.0
H1320 H 0.87526 0.81385 0.72006 0.0
H1321 H 0.9354 0.80988 0.76019 0.0
H1322 H 0.95684 0.80192 0.72677 0.0
H1323 H 0.958 0.79448 0.68622 0.0
H1324 H 0.89718 0.79816 0.6468 0.0
H1325 H 0.8766 0.80801 0.67988 0.0
C1326 C 0.89314 0.81174 0.72147 0.0
C1327 C 0.90374 0.81258 0.74254 0.0
C1328 C 0.90522 0.80689 0.70232 0.0
C1329 C 0.92685 0.80924 0.74413 0.0
C1330 C 0.93909 0.80467 0.72505 0.0
C1331 C 0.94026 0.79748 0.68487 0.0
C1332 C 0.92919 0.79544 0.66402 0.0
C1333 C 0.92838 0.80312 0.70407 0.0
C1334 C 0.90618 0.79949 0.6626 0.0
C1335 C 0.89434 0.80518 0.68152 0.0
H1336 H 0.03511 0.87705 0.52273 0.0
H1337 H 0.96797 0.89871 0.5097 0.0
H1338 H 0.9538 0.8731 0.53719 0.0
H1339 H 0.95993 0.84321 0.56301 0.0
H1340 H 0.02653 0.8206 0.5768 0.0
H1341 H 0.04156 0.84828 0.55124 0.0
C1342 C 0.01744 0.8763 0.52616 0.0
C1343 C 0.00255 0.88946 0.51393 0.0
C1344 C 0.00932 0.8614 0.54204 0.0
C1345 C 0.97969 0.88838 0.51852 0.0
C1346 C 0.97158 0.87383 0.53431 0.0
C1347 C 0.97778 0.84433 0.56054 0.0
C1348 C 0.99207 0.82969 0.57154 0.0
C1349 C 0.98616 0.86 0.54581 0.0
C1350 C 0.01517 0.83167 0.56845 0.0
C1351 C 0.02374 0.84741 0.55378 0.0
H1352 H 0.12474 0.75266 0.6798 0.0
H1353 H 0.08477 0.76491 0.73757 0.0
H1354 H 0.05188 0.76947 0.7137 0.0
H1355 H 0.03437 0.77005 0.67651 0.0
H1356 H 0.07402 0.7573 0.61861 0.0
H1357 H 0.10699 0.75263 0.64246 0.0
C1358 C 0.10879 0.75612 0.68717 0.0
C1359 C 0.10731 0.75856 0.71046 0.0
C1360 C 0.08984 0.75863 0.67333 0.0
C1361 C 0.08652 0.76331 0.7197 0.0
C1362 C 0.06764 0.7658 0.70607 0.0
C1363 C 0.0502 0.76624 0.66907 0.0
C1364 C 0.05166 0.76407 0.64577 0.0
C1365 C 0.06911 0.76357 0.68287 0.0
C1366 C 0.07236 0.75909 0.63648 0.0
C1367 C 0.09126 0.75641 0.65011 0.0
H1368 H 0.97014 0.63526 0.5667 0.0
H1369 H 0.93846 0.65848 0.50666 0.0
H1370 H 0.93963 0.69667 0.52156 0.0
H1371 H 0.94902 0.72319 0.55174 0.0
H1372 H 0.98279 0.70104 0.61114 0.0
H1373 H 0.98171 0.66264 0.59639 0.0
C1374 C 0.96354 0.64878 0.55699 0.0
C1375 C 0.95409 0.64426 0.53575 0.0
C1376 C 0.96471 0.67075 0.5655 0.0
C1377 C 0.9458 0.66175 0.52306 0.0
C1378 C 0.94644 0.6835 0.53157 0.0
C1379 C 0.95616 0.70996 0.56148 0.0
C1380 C 0.96575 0.71484 0.58258 0.0
C1381 C 0.95576 0.68816 0.55278 0.0
C1382 C 0.9753 0.69764 0.59484 0.0
C1383 C 0.97461 0.67571 0.58645 0.0
H1384 H 0.80377 0.8657 0.21571 0.0
H1385 H 0.74172 0.88583 0.24452 0.0
H1386 H 0.75616 0.92371 0.24941 0.0
H1387 H 0.78705 0.95044 0.24828 0.0
H1388 H 0.84914 0.93173 0.219 0.0
H1389 H 0.83383 0.89415 0.21089 0.0
C1390 C 0.79332 0.87845 0.22274 0.0
C1391 C 0.77186 0.87272 0.23026 0.0
C1392 C 0.80169 0.90046 0.22539 0.0
C1393 C 0.75853 0.88953 0.23925 0.0
C1394 C 0.7667 0.91129 0.24191 0.0
C1395 C 0.79718 0.93821 0.23989 0.0
C1396 C 0.81926 0.94373 0.23449 0.0
C1397 C 0.78838 0.91679 0.23552 0.0
C1398 C 0.83207 0.92786 0.2233 0.0
C1399 C 0.82337 0.90635 0.21884 0.0
H1400 H 0.78656 0.13336 0.22613 0.0
H1401 H 0.76277 0.12759 0.2932 0.0
H1402 H 0.78221 0.09275 0.29737 0.0
H1403 H 0.80536 0.06391 0.28237 0.0
H1404 H 0.83017 0.06818 0.21562 0.0
H1405 H 0.81104 0.10371 0.21095 0.0
C1406 C 0.78566 0.12439 0.24159 0.0
C1407 C 0.77338 0.13318 0.2594 0.0
C1408 C 0.79705 0.10418 0.24396 0.0
C1409 C 0.77239 0.12143 0.27938 0.0
C1410 C 0.78341 0.10143 0.28176 0.0
C1411 C 0.80665 0.07249 0.2667 0.0
C1412 C 0.81909 0.06326 0.24931 0.0
C1413 C 0.79574 0.09269 0.26421 0.0
C1414 C 0.82071 0.07489 0.22929 0.0
C1415 C 0.80971 0.09516 0.22661 0.0
H1416 H 0.3565 0.97621 0.01533 0.0
H1417 H 0.36716 0.95613 0.94692 0.0
H1418 H 0.33672 0.92907 0.94864 0.0
H1419 H 0.30917 0.90882 0.97031 0.0
H1420 H 0.29613 0.92981 0.03765 0.0
H1421 H 0.32495 0.95931 0.03544 0.0
C1422 C 0.35193 0.96626 0.00064 0.0
C1423 C 0.3647 0.96784 0.98123 0.0
C1424 C 0.33392 0.95093 0.00153 0.0
C1425 C 0.35832 0.95475 0.96239 0.0
C1426 C 0.34072 0.93937 0.96324 0.0
C1427 C 0.31238 0.92019 0.98432 0.0
C1428 C 0.30076 0.91729 0.0041 0.0
C1429 C 0.32879 0.93695 0.98285 0.0
C1430 C 0.30486 0.93199 0.0222 0.0
C1431 C 0.32144 0.94867 0.02097 0.0
H1432 H 0.24233 0.42616 0.29822 0.0
H1433 H 0.20714 0.36447 0.3109 0.0
H1434 H 0.17164 0.38231 0.30385 0.0
H1435 H 0.15056 0.41498 0.29318 0.0
H1436 H 0.18544 0.47654 0.27932 0.0
H1437 H 0.22107 0.45906 0.28742 0.0
C1438 C 0.22691 0.41658 0.29932 0.0
C1439 C 0.22747 0.39401 0.30519 0.0
C1440 C 0.20648 0.42687 0.29492 0.0
C1441 C 0.20725 0.38196 0.30681 0.0
C1442 C 0.18691 0.39209 0.3026 0.0
C1443 C 0.16593 0.42463 0.29194 0.0
C1444 C 0.16527 0.44705 0.28561 0.0
C1445 C 0.18633 0.41449 0.29655 0.0
C1446 C 0.18541 0.45925 0.28412 0.0
C1447 C 0.20581 0.44927 0.28876 0.0
H1448 H 0.1499 0.02914 0.43366 0.0
H1449 H 0.13359 0.04389 0.50191 0.0
H1450 H 0.16841 0.06539 0.50699 0.0
H1451 H 0.20411 0.07888 0.49231 0.0
H1452 H 0.22044 0.06324 0.42413 0.0
H1453 H 0.18491 0.04344 0.41873 0.0
C1454 C 0.15383 0.03734 0.44954 0.0
C1455 C 0.13923 0.03495 0.46737 0.0
C1456 C 0.17393 0.04945 0.45239 0.0
C1457 C 0.14469 0.04534 0.48798 0.0
C1458 C 0.16455 0.05767 0.49088 0.0
C1459 C 0.19985 0.07125 0.47624 0.0
C1460 C 0.215 0.07251 0.45871 0.0
C1461 C 0.17942 0.05964 0.47326 0.0
C1462 C 0.20919 0.06246 0.43799 0.0
C1463 C 0.18884 0.05113 0.43484 0.0
H1464 H 0.70052 0.12023 0.77866 0.0
H1465 H 0.68537 0.11138 0.70845 0.0
H1466 H 0.66275 0.07831 0.71603 0.0
H1467 H 0.64785 0.05142 0.74246 0.0
H1468 H 0.66382 0.05968 0.81258 0.0
H1469 H 0.68572 0.09326 0.80509 0.0
C1470 C 0.69243 0.11096 0.76499 0.0
C1471 C 0.69466 0.11835 0.74302 0.0
C1472 C 0.67961 0.0918 0.76943 0.0
C1473 C 0.68373 0.1063 0.72556 0.0
C1474 C 0.67088 0.08728 0.72985 0.0
C1475 C 0.65606 0.06059 0.75613 0.0
C1476 C 0.65417 0.05299 0.77805 0.0
C1477 C 0.66875 0.07985 0.75171 0.0
C1478 C 0.66499 0.06509 0.79554 0.0
C1479 C 0.67753 0.08432 0.79128 0.0
H1480 H 0.38029 0.0298 0.54471 0.0
H1481 H 0.40953 0.02209 0.47997 0.0
H1482 H 0.38004 0.04395 0.46335 0.0
H1483 H 0.34541 0.06402 0.46673 0.0
H1484 H 0.316 0.07308 0.53119 0.0
H1485 H 0.34624 0.05216 0.54842 0.0
C1486 C 0.38031 0.03316 0.52703 0.0
C1487 C 0.39688 0.02401 0.51355 0.0
C1488 C 0.36326 0.04589 0.5175 0.0
C1489 C 0.39669 0.02849 0.49064 0.0
C1490 C 0.37989 0.04108 0.48112 0.0
C1491 C 0.34556 0.06145 0.48457 0.0
C1492 C 0.32835 0.06989 0.4976 0.0
C1493 C 0.36295 0.04957 0.49431 0.0
C1494 C 0.32902 0.06667 0.52074 0.0
C1495 C 0.34629 0.0547 0.5306 0.0
H1496 H 0.6103 0.42929 0.52931 0.0
H1497 H 0.65446 0.48525 0.51791 0.0
H1498 H 0.686 0.46036 0.51525 0.0
H1499 H 0.7011 0.42267 0.51563 0.0
H1500 H 0.65711 0.36656 0.52714 0.0
H1501 H 0.62562 0.3915 0.53043 0.0
C1502 C 0.62687 0.43605 0.52648 0.0
C1503 C 0.62993 0.45912 0.52369 0.0
C1504 C 0.64501 0.42159 0.52491 0.0
C1505 C 0.65152 0.46755 0.51979 0.0
C1506 C 0.66962 0.45333 0.51835 0.0
C1507 C 0.68464 0.41586 0.51886 0.0
C1508 C 0.68155 0.39272 0.52107 0.0
C1509 C 0.66655 0.4303 0.52073 0.0
C1510 C 0.66005 0.38428 0.52532 0.0
C1511 C 0.64199 0.39854 0.52722 0.0
H1512 H 0.75985 0.29757 0.37333 0.0
H1513 H 0.6892 0.29014 0.38315 0.0
H1514 H 0.69291 0.31065 0.41883 0.0
H1515 H 0.71729 0.32743 0.44909 0.0
H1516 H 0.78816 0.33271 0.43868 0.0
H1517 H 0.78333 0.31641 0.40153 0.0
C1518 C 0.74524 0.30051 0.38324 0.0
C1519 C 0.72437 0.29207 0.37581 0.0
C1520 C 0.74759 0.31185 0.40377 0.0
C1521 C 0.70548 0.29646 0.38855 0.0
C1522 C 0.70763 0.30807 0.40901 0.0
C1523 C 0.73154 0.32532 0.43849 0.0
C1524 C 0.75307 0.33105 0.44673 0.0
C1525 C 0.72873 0.31539 0.41708 0.0
C1526 C 0.77144 0.32816 0.43286 0.0
C1527 C 0.76873 0.31885 0.41158 0.0
H1528 H 0.5086 0.01779 0.87958 0.0
H1529 H 0.56592 0.04947 0.91215 0.0
H1530 H 0.58905 0.03886 0.88066 0.0
H1531 H 0.59346 0.01794 0.84486 0.0
H1532 H 0.53633 0.98324 0.81529 0.0
H1533 H 0.51274 0.99735 0.84476 0.0
C1534 C 0.52622 0.02216 0.88006 0.0
C1535 C 0.53551 0.03411 0.89847 0.0
C1536 C 0.5395 0.01536 0.86238 0.0
C1537 C 0.55824 0.04033 0.89822 0.0
C1538 C 0.57153 0.03413 0.88026 0.0
C1539 C 0.5758 0.01375 0.84486 0.0
C1540 C 0.56656 0.99962 0.82802 0.0
C1541 C 0.56241 0.02132 0.86238 0.0
C1542 C 0.54375 0.99402 0.8282 0.0
C1543 C 0.53027 0.00207 0.84502 0.0
H1544 H 0.29147 0.24615 0.42951 0.0
H1545 H 0.31717 0.21721 0.36909 0.0
H1546 H 0.31279 0.18011 0.38405 0.0
H1547 H 0.30085 0.15576 0.41352 0.0
H1548 H 0.27452 0.18368 0.47408 0.0
H1549 H 0.27982 0.22127 0.45975 0.0
C1550 C 0.29607 0.2317 0.41966 0.0
C1551 C 0.30484 0.2345 0.3983 0.0
C1552 C 0.29332 0.21023 0.42831 0.0
C1553 C 0.31084 0.21561 0.38576 0.0
C1554 C 0.30817 0.19433 0.39421 0.0
C1555 C 0.29626 0.17002 0.42367 0.0
C1556 C 0.28721 0.16687 0.4448 0.0
C1557 C 0.29934 0.19145 0.41538 0.0
C1558 C 0.2815 0.18561 0.45772 0.0
C1559 C 0.28451 0.20711 0.44953 0.0
H1560 H 0.4775 0.50483 0.83509 0.0
H1561 H 0.43571 0.51221 0.89231 0.0
H1562 H 0.40308 0.51625 0.86805 0.0
H1563 H 0.38607 0.51572 0.83097 0.0
H1564 H 0.42701 0.50834 0.77312 0.0
H1565 H 0.46035 0.50649 0.79722 0.0
C1566 C 0.46128 0.50763 0.84216 0.0
C1567 C 0.45896 0.50796 0.86545 0.0
C1568 C 0.44245 0.5098 0.82805 0.0
C1569 C 0.43785 0.51152 0.87444 0.0
C1570 C 0.41919 0.51389 0.86059 0.0
C1571 C 0.40227 0.51376 0.82354 0.0
C1572 C 0.40399 0.51195 0.80027 0.0
C1573 C 0.42123 0.51265 0.83742 0.0
C1574 C 0.42519 0.5097 0.791 0.0
C1575 C 0.44426 0.50861 0.80477 0.0
H1576 H 0.77872 0.69905 0.11143 0.0
H1577 H 0.70903 0.71226 0.10077 0.0
H1578 H 0.70818 0.6884 0.06725 0.0
H1579 H 0.72713 0.66329 0.04144 0.0
H1580 H 0.79643 0.64841 0.05317 0.0
H1581 H 0.79757 0.67324 0.08586 0.0
C1582 C 0.76347 0.69679 0.10158 0.0
C1583 C 0.74401 0.70741 0.10829 0.0
C1584 C 0.76299 0.68263 0.08268 0.0
C1585 C 0.72418 0.70419 0.09575 0.0
C1586 C 0.7237 0.69056 0.07666 0.0
C1587 C 0.74248 0.66547 0.05114 0.0
C1588 C 0.76165 0.65404 0.04486 0.0
C1589 C 0.74296 0.67958 0.07005 0.0
C1590 C 0.78139 0.65694 0.0577 0.0
C1591 C 0.78209 0.67121 0.07636 0.0
H1592 H 0.96898 0.01127 0.13944 0.0
H1593 H 0.92116 0.02085 0.08605 0.0
H1594 H 0.89075 0.01938 0.11246 0.0
H1595 H 0.87764 0.01525 0.15076 0.0
H1596 H 0.9256 0.00563 0.2041 0.0
H1597 H 0.9559 0.00704 0.17768 0.0
C1598 C 0.95189 0.01283 0.13354 0.0
C1599 C 0.9474 0.01617 0.11077 0.0
C1600 C 0.93445 0.01196 0.14884 0.0
C1601 C 0.92514 0.01852 0.10351 0.0
C1602 C 0.90771 0.01757 0.11859 0.0
C1603 C 0.89471 0.01346 0.15663 0.0
C1604 C 0.89925 0.01032 0.17944 0.0
C1605 C 0.91215 0.01433 0.14131 0.0
C1606 C 0.92153 0.00807 0.18668 0.0
C1607 C 0.93892 0.00886 0.17156 0.0
H1608 H 0.24184 0.79411 0.13998 0.0
H1609 H 0.31051 0.77695 0.13022 0.0
H1610 H 0.31039 0.79592 0.09475 0.0
H1611 H 0.29126 0.8174 0.06674 0.0
H1612 H 0.22299 0.83634 0.0758 0.0
H1613 H 0.22244 0.81674 0.11133 0.0
C1614 C 0.25669 0.79454 0.12998 0.0
C1615 C 0.27621 0.78426 0.13774 0.0
C1616 C 0.25659 0.8058 0.10956 0.0
C1617 C 0.29539 0.78497 0.12473 0.0
C1618 C 0.29532 0.79574 0.10441 0.0
C1619 C 0.27616 0.81724 0.07637 0.0
C1620 C 0.25714 0.82823 0.06851 0.0
C1621 C 0.27608 0.80624 0.09672 0.0
C1622 C 0.23787 0.82802 0.08145 0.0
C1623 C 0.23755 0.81678 0.10174 0.0
H1624 H 0.02738 0.45738 0.14483 0.0
H1625 H 0.08954 0.47087 0.11258 0.0
H1626 H 0.10779 0.47884 0.14892 0.0
H1627 H 0.10609 0.4805 0.19021 0.0
H1628 H 0.04425 0.46359 0.22173 0.0
H1629 H 0.02569 0.45871 0.1854 0.0
C1630 C 0.04487 0.4623 0.1458 0.0
C1631 C 0.05711 0.46376 0.12621 0.0
C1632 C 0.05525 0.46624 0.16662 0.0
C1633 C 0.07986 0.46968 0.12756 0.0
C1634 C 0.09024 0.47426 0.14828 0.0
C1635 C 0.08852 0.47599 0.18899 0.0
C1636 C 0.07646 0.47249 0.20849 0.0
C1637 C 0.07812 0.47242 0.16797 0.0
C1638 C 0.0538 0.4663 0.20687 0.0
C1639 C 0.0432 0.46351 0.18614 0.0
H1640 H 0.39455 0.72218 0.26901 0.0
H1641 H 0.36398 0.70161 0.32991 0.0
H1642 H 0.39971 0.70652 0.34988 0.0
H1643 H 0.43938 0.71911 0.35049 0.0
H1644 H 0.46833 0.74232 0.28979 0.0
H1645 H 0.43355 0.73409 0.2694 0.0
C1646 C 0.39556 0.71898 0.2867 0.0
C1647 C 0.37647 0.71175 0.29792 0.0
C1648 C 0.41597 0.72233 0.29817 0.0
C1649 C 0.37839 0.70706 0.32075 0.0
C1650 C 0.39882 0.70999 0.33224 0.0
C1651 C 0.43807 0.72205 0.33276 0.0
C1652 C 0.45634 0.73131 0.32164 0.0
C1653 C 0.4177 0.71788 0.32118 0.0
C1654 C 0.45442 0.7353 0.29871 0.0
C1655 C 0.43455 0.73063 0.28704 0.0
H1656 H 0.02779 0.36246 0.94754 0.0
H1657 H 0.97821 0.32218 0.97951 0.0
H1658 H 0.98357 0.2919 0.95227 0.0
H1659 H 0.99893 0.27906 0.91659 0.0
H1660 H 0.04551 0.32139 0.88263 0.0
H1661 H 0.04511 0.34854 0.9134 0.0
C1662 C 0.01864 0.34678 0.94877 0.0
C1663 C 0.00282 0.34427 0.96543 0.0
C1664 C 0.02114 0.32996 0.93254 0.0
C1665 C 0.99061 0.32422 0.9668 0.0
C1666 C 0.99359 0.30703 0.95119 0.0
C1667 C 0.00935 0.29401 0.91623 0.0
C1668 C 0.02218 0.29831 0.89743 0.0
C1669 C 0.00831 0.30998 0.93357 0.0
C1670 C 0.0354 0.31784 0.89693 0.0
C1671 C 0.03515 0.33338 0.91448 0.0
H1672 H 0.65199 0.73036 0.30797 0.0
H1673 H 0.61821 0.72512 0.24396 0.0
H1674 H 0.58215 0.72548 0.26193 0.0
H1675 H 0.56029 0.73097 0.29542 0.0
H1676 H 0.59299 0.73486 0.35985 0.0
H1677 H 0.62946 0.73103 0.34233 0.0
C1678 C 0.63668 0.72902 0.2981 0.0
C1679 C 0.63767 0.72781 0.27472 0.0
C1680 C 0.61591 0.72903 0.30859 0.0
C1681 C 0.61781 0.72592 0.26199 0.0
C1682 C 0.5972 0.72623 0.27223 0.0
C1683 C 0.57542 0.73049 0.30559 0.0
C1684 C 0.57419 0.73322 0.32875 0.0
C1685 C 0.59607 0.72825 0.29544 0.0
C1686 C 0.59371 0.73257 0.34195 0.0
C1687 C 0.6145 0.7306 0.33191 0.0
H1688 H 0.02544 0.10346 0.92564 0.0
H1689 H 0.00383 0.14902 0.97692 0.0
H1690 H 0.00325 0.1792 0.95032 0.0
H1691 H 0.00884 0.19278 0.91257 0.0
H1692 H 0.03074 0.14748 0.86116 0.0
H1693 H 0.03142 0.11722 0.88777 0.0
C1694 C 0.02079 0.12004 0.93104 0.0
C1695 C 0.01459 0.12389 0.95326 0.0
C1696 C 0.02053 0.1374 0.91562 0.0
C1697 C 0.00835 0.14546 0.95987 0.0
C1698 C 0.00813 0.16278 0.94468 0.0
C1699 C 0.01377 0.1763 0.90713 0.0
C1700 C 0.01971 0.17247 0.88484 0.0
C1701 C 0.01412 0.15895 0.92251 0.0
C1702 C 0.02606 0.15096 0.87818 0.0
C1703 C 0.02647 0.13361 0.89341 0.0
H1704 H 0.37426 0.31507 0.22599 0.0
H1705 H 0.43512 0.3131 0.26527 0.0
H1706 H 0.45613 0.30463 0.23168 0.0
H1707 H 0.4569 0.29711 0.19112 0.0
H1708 H 0.39545 0.29914 0.15251 0.0
H1709 H 0.37506 0.3084 0.18589 0.0
C1710 C 0.39219 0.3132 0.22717 0.0
C1711 C 0.40314 0.3149 0.24805 0.0
C1712 C 0.40405 0.30818 0.20793 0.0
C1713 C 0.4263 0.31184 0.24937 0.0
C1714 C 0.43831 0.307 0.23019 0.0
C1715 C 0.43906 0.29956 0.19002 0.0
C1716 C 0.42778 0.29737 0.16929 0.0
C1717 C 0.42731 0.30495 0.20937 0.0
C1718 C 0.40463 0.30067 0.16819 0.0
C1719 C 0.3929 0.30601 0.18729 0.0
H1720 H 0.53167 0.38751 0.03261 0.0
H1721 H 0.46719 0.4179 0.03641 0.0
H1722 H 0.45513 0.39008 0.06278 0.0
H1723 H 0.46143 0.35523 0.08167 0.0
H1724 H 0.52559 0.32433 0.07905 0.0
H1725 H 0.53948 0.35447 0.0556 0.0
C1726 C 0.51517 0.38825 0.03958 0.0
C1727 C 0.50017 0.40444 0.03222 0.0
C1728 C 0.50825 0.37206 0.05476 0.0
C1729 C 0.47884 0.40527 0.04142 0.0
C1730 C 0.47194 0.38942 0.05653 0.0
C1731 C 0.47854 0.3552 0.07613 0.0
C1732 C 0.49238 0.33749 0.08169 0.0
C1733 C 0.48625 0.3724 0.06277 0.0
C1734 C 0.51463 0.33782 0.07485 0.0
C1735 C 0.5225 0.35497 0.06139 0.0
H1736 H 0.59557 0.26018 0.22302 0.0
H1737 H 0.64273 0.24794 0.17109 0.0
H1738 H 0.61329 0.25212 0.14282 0.0
H1739 H 0.5742 0.25996 0.13284 0.0
H1740 H 0.52747 0.27284 0.18512 0.0
H1741 H 0.55677 0.268 0.21316 0.0
C1742 C 0.59949 0.25865 0.20552 0.0
C1743 C 0.62137 0.25384 0.19923 0.0
C1744 C 0.58255 0.26125 0.18937 0.0
C1745 C 0.626 0.25143 0.17644 0.0
C1746 C 0.60919 0.25395 0.16025 0.0
C1747 C 0.57042 0.2617 0.15036 0.0
C1748 C 0.54862 0.2668 0.15679 0.0
C1749 C 0.58741 0.25893 0.16651 0.0
C1750 C 0.54406 0.26896 0.17961 0.0
C1751 C 0.56082 0.26619 0.19572 0.0
H1752 H 0.48056 0.14686 0.05471 0.0
H1753 H 0.41231 0.15535 0.03304 0.0
H1754 H 0.41219 0.19228 0.05061 0.0
H1755 H 0.43126 0.22206 0.07187 0.0
H1756 H 0.49922 0.21405 0.09477 0.0
H1757 H 0.49969 0.17697 0.07701 0.0
C1758 C 0.46574 0.15689 0.05382 0.0
C1759 C 0.44645 0.14842 0.04266 0.0
C1760 C 0.46572 0.17811 0.06418 0.0
C1761 C 0.42726 0.16144 0.04175 0.0
C1762 C 0.42721 0.18257 0.05171 0.0
C1763 C 0.44624 0.21227 0.07299 0.0
C1764 C 0.46522 0.22088 0.08454 0.0
C1765 C 0.44631 0.19104 0.06296 0.0
C1766 C 0.48437 0.20781 0.08599 0.0
C1767 C 0.48466 0.18664 0.0758 0.0
H1768 H 0.2643 0.39137 0.72915 0.0
H1769 H 0.32685 0.35855 0.71963 0.0
H1770 H 0.34669 0.39449 0.72241 0.0
H1771 H 0.34651 0.43509 0.73107 0.0
H1772 H 0.28394 0.46649 0.74399 0.0
H1773 H 0.26388 0.43135 0.73645 0.0
C1774 C 0.2823 0.39199 0.72783 0.0
C1775 C 0.29404 0.37221 0.7245 0.0
C1776 C 0.29362 0.41255 0.73007 0.0
C1777 C 0.31732 0.3735 0.72213 0.0
C1778 C 0.32872 0.39405 0.72385 0.0
C1779 C 0.32847 0.4342 0.73177 0.0
C1780 C 0.31662 0.45323 0.73796 0.0
C1781 C 0.31708 0.41366 0.72824 0.0
C1782 C 0.29331 0.45196 0.73924 0.0
C1783 C 0.28186 0.43189 0.73501 0.0
H1784 H 0.28056 0.6392 0.72232 0.0
H1785 H 0.24977 0.62868 0.78566 0.0
H1786 H 0.27008 0.59432 0.79023 0.0
H1787 H 0.29705 0.56813 0.77725 0.0
H1788 H 0.3294 0.57739 0.71446 0.0
H1789 H 0.30811 0.61147 0.70865 0.0
C1790 C 0.27826 0.62918 0.73695 0.0
C1791 C 0.26379 0.63641 0.7537 0.0
C1792 C 0.29035 0.60942 0.73966 0.0
C1793 C 0.26094 0.62346 0.77267 0.0
C1794 C 0.27255 0.60385 0.7753 0.0
C1795 C 0.29958 0.57747 0.7622 0.0
C1796 C 0.31493 0.57017 0.74635 0.0
C1797 C 0.28743 0.59683 0.75906 0.0
C1798 C 0.31777 0.58264 0.72699 0.0
C1799 C 0.30556 0.6021 0.72366 0.0
H1800 H 0.85054 0.47426 0.50474 0.0
H1801 H 0.9043 0.42859 0.5144 0.0
H1802 H 0.87766 0.39893 0.52314 0.0
H1803 H 0.83933 0.38513 0.52436 0.0
H1804 H 0.78491 0.4297 0.51264 0.0
H1805 H 0.81151 0.46073 0.5087 0.0
C1806 C 0.85633 0.4579 0.50919 0.0
C1807 C 0.87926 0.45348 0.50889 0.0
C1808 C 0.84082 0.44074 0.51362 0.0
C1809 C 0.88668 0.43224 0.51444 0.0
C1810 C 0.87147 0.41531 0.51939 0.0
C1811 C 0.83318 0.40165 0.52119 0.0
C1812 C 0.81012 0.40498 0.51857 0.0
C1813 C 0.84852 0.41922 0.51844 0.0
C1814 C 0.80256 0.42661 0.51464 0.0
C1815 C 0.81777 0.44436 0.51231 0.0
H1816 H 0.74083 0.92018 0.79831 0.0
H1817 H 0.70653 0.85702 0.80588 0.0
H1818 H 0.67075 0.87487 0.80084 0.0
H1819 H 0.64912 0.90807 0.79373 0.0
H1820 H 0.68289 0.97133 0.78517 0.0
H1821 H 0.71891 0.95371 0.79089 0.0
C1822 C 0.72553 0.91032 0.79872 0.0
C1823 C 0.72642 0.88731 0.80265 0.0
C1824 C 0.70489 0.92067 0.79557 0.0
C1825 C 0.70638 0.87482 0.80333 0.0
C1826 C 0.68587 0.88498 0.80028 0.0
C1827 C 0.66432 0.91808 0.79315 0.0
C1828 C 0.66325 0.94101 0.78902 0.0
C1829 C 0.68493 0.90786 0.79637 0.0
C1830 C 0.68319 0.95364 0.7883 0.0
C1831 C 0.70382 0.94357 0.79157 0.0
H1832 H 0.64453 0.5421 0.99332 0.0
H1833 H 0.64675 0.52392 0.92354 0.0
H1834 H 0.68344 0.5418 0.92099 0.0
H1835 H 0.7152 0.56161 0.93867 0.0
H1836 H 0.71339 0.58012 0.00842 0.0
H1837 H 0.67623 0.56299 0.0109 0.0
C1838 C 0.65312 0.54201 0.97759 0.0
C1839 C 0.64295 0.53168 0.95865 0.0
C1840 C 0.67426 0.5523 0.97625 0.0
C1841 C 0.6541 0.53196 0.9383 0.0
C1842 C 0.67513 0.54206 0.93686 0.0
C1843 C 0.70672 0.56194 0.95445 0.0
C1844 C 0.71716 0.57202 0.97336 0.0
C1845 C 0.6854 0.55216 0.95574 0.0
C1846 C 0.70578 0.57244 0.9936 0.0
C1847 C 0.68454 0.56262 0.99504 0.0
H1848 H 0.16998 0.63799 0.23142 0.0
H1849 H 0.22952 0.59925 0.23814 0.0
H1850 H 0.207 0.56604 0.24531 0.0
H1851 H 0.17055 0.54805 0.2502 0.0
H1852 H 0.11078 0.5864 0.24317 0.0
H1853 H 0.13323 0.6196 0.23535 0.0
C1854 C 0.178 0.62222 0.23422 0.0
C1855 C 0.20142 0.62117 0.23439 0.0
C1856 C 0.16492 0.60311 0.2383 0.0
C1857 C 0.21155 0.60064 0.23828 0.0
C1858 C 0.19868 0.58159 0.24227 0.0
C1859 C 0.16239 0.56364 0.24693 0.0
C1860 C 0.13899 0.5647 0.24735 0.0
C1861 C 0.17538 0.58266 0.24247 0.0
C1862 C 0.12875 0.58508 0.24299 0.0
C1863 C 0.14158 0.6041 0.23852 0.0
H1864 H 0.90233 0.53642 0.02678 0.0
H1865 H 0.87253 0.47529 -0.00012 0.0
H1866 H 0.84128 0.4959 0.98507 0.0
H1867 H 0.82233 0.53132 0.9794 0.0
H1868 H 0.84952 0.59153 0.0102 0.0
H1869 H 0.88162 0.5711 0.02439 0.0
C1870 C 0.88886 0.52741 0.01812 0.0
C1871 C 0.89021 0.50425 0.01424 0.0
C1872 C 0.8704 0.53922 0.01033 0.0
C1873 C 0.87252 0.49315 0.0026 0.0
C1874 C 0.85443 0.5049 0.99426 0.0
C1875 C 0.83533 0.5399 0.98923 0.0
C1876 C 0.83384 0.56285 0.99358 0.0
C1877 C 0.8533 0.52795 0.99786 0.0
C1878 C 0.85045 0.57383 0.00666 0.0
C1879 C 0.86877 0.56217 0.01471 0.0
H1880 H 0.1037 0.93731 0.02592 0.0
H1881 H 0.14878 0.99308 0.01697 0.0
H1882 H 0.1804 0.96812 0.01689 0.0
H1883 H 0.19525 0.93042 0.01833 0.0
H1884 H 0.15036 0.87442 0.02704 0.0
H1885 H 0.1188 0.89949 0.0285 0.0
C1886 C 0.12047 0.94401 0.02421 0.0
C1887 C 0.12381 0.96704 0.0213 0.0
C1888 C 0.13865 0.92952 0.02409 0.0
C1889 C 0.14566 0.97541 0.01888 0.0
C1890 C 0.16379 0.96115 0.01893 0.0
C1891 C 0.17859 0.92366 0.02065 0.0
C1892 C 0.17525 0.90051 0.02251 0.0
C1893 C 0.16048 0.93816 0.02132 0.0
C1894 C 0.15348 0.89213 0.02551 0.0
C1895 C 0.13539 0.90648 0.02634 0.0
loop_
_geom_bond_atom_site_label_1
_geom_bond_atom_site_label_2
_geom_bond_distance
_geom_bond_site_symmetry_2
_ccdc_geom_bond_type
C0 C1 1.391 . S
C0 C4 1.391 . S
C0 H42 0.948 . S
C1 C0 1.391 . S
C1 C2 1.391 1_556 S
C2 C1 1.391 1_554 S
C2 H58 0.947 1_455 S
C2 C59 1.392 . S
C3 C4 1.391 1_554 S
C3 C7 1.397 . S
C3 C59 1.419 . S
C4 C0 1.391 . S
C4 C3 1.391 1_556 S
C4 C5 1.400 . S
C5 C4 1.400 . S
C5 C8 1.389 1_556 S
C5 C17 1.453 1_556 S
C5 C18 1.691 . S
H6 C30 0.948 . S
C7 C3 1.397 . S
C7 C8 1.394 . S
C7 C26 1.723 . S
C8 C5 1.389 1_554 S
C8 C7 1.394 . S
C8 C38 1.723 . S
H9 C32 0.947 1_556 S
H10 C33 0.948 1_556 S
H11 C39 0.982 . S
H12 C40 0.979 . S
H13 C40 0.980 . S
H14 C40 0.983 . S
H15 C39 0.979 1_565 S
H16 C39 0.977 . S
C17 C5 1.453 1_554 S
C17 H46 0.982 . S
C17 H47 0.979 1_554 S
C17 H48 0.977 . S
C18 C5 1.691 . S
C18 H43 0.979 . S
C18 H44 0.980 . S
C18 H45 0.983 . S
C19 C20 1.391 . S
C19 C24 1.391 . S
C19 H49 0.948 . S
C20 C19 1.391 . S
C20 C21 1.391 1_655 S
C21 C20 1.391 1_455 S
C21 C22 1.392 . S
C21 H50 0.947 1_545 S
C22 C21 1.392 . S
C22 C23 1.419 . S
C22 H51 0.948 1_545 S
C23 C22 1.419 . S
C23 C24 1.391 1_455 S
C23 C27 1.397 . S
C24 C19 1.391 . S
C24 C23 1.391 1_655 S
C24 C25 1.400 . S
C25 C24 1.400 . S
C25 C26 1.389 1_655 S
C25 C28 1.453 1_655 S
C25 C29 1.691 . S
C26 C7 1.723 . S
C26 C25 1.389 1_455 S
C26 C27 1.394 . S
C27 C23 1.397 . S
C27 C26 1.394 . S
C27 C37 1.723 . S
C28 C25 1.453 1_455 S
C28 H52 0.982 . S
C28 H53 0.979 1_455 S
C28 H54 0.977 . S
C29 C25 1.691 . S
C29 H55 0.979 . S
C29 H56 0.980 . S
C29 H57 0.983 . S
C30 H6 0.948 . S
C30 C31 1.391 . S
C30 C35 1.391 . S
C31 C30 1.391 . S
C31 C32 1.391 1_565 S
C32 H9 0.947 1_554 S
C32 C31 1.391 1_545 S
C32 C33 1.392 . S
C33 H10 0.948 1_554 S
C33 C32 1.392 . S
C33 C34 1.419 . S
C34 C33 1.419 . S
C34 C35 1.391 1_545 S
C34 C38 1.397 . S
C35 C30 1.391 . S
C35 C34 1.391 1_565 S
C35 C36 1.400 . S
C36 C35 1.400 . S
C36 C37 1.389 1_565 S
C36 C39 1.453 1_565 S
C36 C40 1.691 . S
C37 C27 1.723 . S
C37 C36 1.389 1_545 S
C37 C38 1.394 . S
C38 C8 1.723 . S
C38 C34 1.397 . S
C38 C37 1.394 . S
C39 H11 0.982 . S
C39 H15 0.979 1_545 S
C39 H16 0.977 . S
C39 C36 1.453 1_545 S
C40 H12 0.979 . S
C40 H13 0.980 . S
C40 H14 0.983 . S
C40 C36 1.691 . S
H41 C59 0.948 1_655 S
H42 C0 0.948 . S
H43 C18 0.979 . S
H44 C18 0.980 . S
H45 C18 0.983 . S
H46 C17 0.982 . S
H47 C17 0.979 1_556 S
H48 C17 0.977 . S
H49 C19 0.948 . S
H50 C21 0.947 1_565 S
H51 C22 0.948 1_565 S
H52 C28 0.982 . S
H53 C28 0.979 1_655 S
H54 C28 0.977 . S
H55 C29 0.979 . S
H56 C29 0.980 . S
H57 C29 0.983 . S
H58 C2 0.947 1_655 S
C59 C2 1.392 . S
C59 C3 1.419 . S
C59 H41 0.948 1_455 S
C60 C61 1.391 . S
C60 C64 1.391 . S
C60 H102 0.948 . S
C61 C60 1.391 . S
C61 C62 1.391 . S
C62 C61 1.391 . S
C62 H118 0.947 . S
C62 C119 1.392 . S
C63 C64 1.391 . S
C63 C67 1.397 . S
C63 C119 1.419 . S
C64 C60 1.391 . S
C64 C63 1.391 . S
C64 C65 1.399 . S
C65 C64 1.399 . S
C65 C68 1.396 . S
C65 C77 1.453 . S
C65 C78 1.684 . S
H66 C90 0.948 . S
C67 C63 1.397 . S
C67 C68 1.394 . S
C67 C86 1.723 . S
C68 C65 1.396 . S
C68 C67 1.394 . S
C68 C98 1.723 . S
H69 C92 0.947 . S
H70 C93 0.948 . S
H71 C99 0.982 . S
H72 C100 0.979 . S
H73 C100 0.980 . S
H74 C100 0.983 . S
H75 C99 0.979 . S
H76 C99 0.977 . S
C77 C65 1.453 . S
C77 H106 0.982 . S
C77 H107 0.979 . S
C77 H108 0.977 . S
C78 C65 1.684 . S
C78 H103 0.979 . S
C78 H104 0.980 . S
C78 H105 0.983 . S
C79 C80 1.391 . S
C79 C84 1.391 . S
C79 H109 0.948 . S
C80 C79 1.391 . S
C80 C81 1.391 . S
C81 C80 1.391 . S
C81 C82 1.392 . S
C81 H110 0.947 . S
C82 C81 1.392 . S
C82 C83 1.419 . S
C82 H111 0.948 . S
C83 C82 1.419 . S
C83 C84 1.391 . S
C83 C87 1.397 . S
C84 C79 1.391 . S
C84 C83 1.391 . S
C84 C85 1.399 . S
C85 C84 1.399 . S
C85 C86 1.396 . S
C85 C88 1.453 . S
C85 C89 1.684 . S
C86 C67 1.723 . S
C86 C85 1.396 . S
C86 C87 1.394 . S
C87 C83 1.397 . S
C87 C86 1.394 . S
C87 C97 1.723 . S
C88 C85 1.453 . S
C88 H112 0.982 . S
C88 H113 0.979 . S
C88 H114 0.977 . S
C89 C85 1.684 . S
C89 H115 0.979 . S
C89 H116 0.980 . S
C89 H117 0.983 . S
C90 H66 0.948 . S
C90 C91 1.391 . S
C90 C95 1.391 . S
C91 C90 1.391 . S
C91 C92 1.391 . S
C92 H69 0.947 . S
C92 C91 1.391 . S
C92 C93 1.392 . S
C93 H70 0.948 . S
C93 C92 1.392 . S
C93 C94 1.419 . S
C94 C93 1.419 . S
C94 C95 1.391 . S
C94 C98 1.397 . S
C95 C90 1.391 . S
C95 C94 1.391 . S
C95 C96 1.399 . S
C96 C95 1.399 . S
C96 C97 1.396 . S
C96 C99 1.453 . S
C96 C100 1.684 . S
C97 C87 1.723 . S
C97 C96 1.396 . S
C97 C98 1.394 . S
C98 C68 1.723 . S
C98 C94 1.397 . S
C98 C97 1.394 . S
C99 H71 0.982 . S
C99 H75 0.979 . S
C99 H76 0.977 . S
C99 C96 1.453 . S
C100 H72 0.979 . S
C100 H73 0.980 . S
C100 H74 0.983 . S
C100 C96 1.684 . S
H101 C119 0.948 . S
H102 C60 0.948 . S
H103 C78 0.979 . S
H104 C78 0.980 . S
H105 C78 0.983 . S
H106 C77 0.982 . S
H107 C77 0.979 . S
H108 C77 0.977 . S
H109 C79 0.948 . S
H110 C81 0.947 . S
H111 C82 0.948 . S
H112 C88 0.982 . S
H113 C88 0.979 . S
H114 C88 0.977 . S
H115 C89 0.979 . S
H116 C89 0.980 . S
H117 C89 0.983 . S
H118 C62 0.947 . S
C119 C62 1.392 . S
C119 C63 1.419 . S
C119 H101 0.948 . S
C120 C121 1.391 1_554 S
C120 C124 1.391 . S
C120 H162 0.948 . S
C121 C120 1.391 1_556 S
C121 C122 1.391 . S
C122 C121 1.391 . S
C122 H178 0.947 . S
C122 C179 1.385 1_556 S
C123 C124 1.391 . S
C123 C127 1.397 . S
C123 C179 1.429 . S
C124 C120 1.391 . S
C124 C123 1.391 . S
C124 C125 1.399 . S
C125 C124 1.399 . S
C125 C128 1.396 . S
C125 C137 1.453 . S
C125 C138 1.684 1_655 S
H126 C150 0.948 . S
C127 C123 1.397 . S
C127 C128 1.394 . S
C127 C146 1.723 . S
C128 C125 1.396 . S
C128 C127 1.394 . S
C128 C158 1.723 . S
H129 C152 0.947 . S
H130 C153 0.948 . S
H131 C159 0.982 . S
H132 C160 0.979 . S
H133 C160 0.980 . S
H134 C160 0.983 . S
H135 C159 0.979 . S
H136 C159 0.977 . S
C137 C125 1.453 . S
C137 H166 0.982 . S
C137 H167 0.979 . S
C137 H168 0.977 . S
C138 C125 1.684 1_455 S
C138 H163 0.979 . S
C138 H164 0.980 . S
C138 H165 0.983 . S
C139 C140 1.391 . S
C139 C144 1.391 . S
C139 H169 0.948 . S
C140 C139 1.391 . S
C140 C141 1.391 . S
C141 C140 1.391 . S
C141 C142 1.392 . S
C141 H170 0.947 . S
C142 C141 1.392 . S
C142 C143 1.419 . S
C142 H171 0.948 . S
C143 C142 1.419 . S
C143 C144 1.391 . S
C143 C147 1.397 . S
C144 C139 1.391 . S
C144 C143 1.391 . S
C144 C145 1.399 . S
C145 C144 1.399 . S
C145 C146 1.396 . S
C145 C148 1.453 . S
C145 C149 1.684 1_554 S
C146 C127 1.723 . S
C146 C145 1.396 . S
C146 C147 1.394 . S
C147 C143 1.397 . S
C147 C146 1.394 . S
C147 C157 1.723 . S
C148 C145 1.453 . S
C148 H172 0.982 . S
C148 H173 0.979 . S
C148 H174 0.977 . S
C149 C145 1.684 1_556 S
C149 H175 0.979 . S
C149 H176 0.980 . S
C149 H177 0.983 . S
C150 H126 0.948 . S
C150 C151 1.391 1_655 S
C150 C155 1.391 . S
C151 C150 1.391 1_455 S
C151 C152 1.391 . S
C152 H129 0.947 . S
C152 C151 1.391 . S
C152 C153 1.392 . S
C153 H130 0.948 . S
C153 C152 1.392 . S
C153 C154 1.419 1_455 S
C154 C153 1.419 1_655 S
C154 C155 1.391 . S
C154 C158 1.397 . S
C155 C150 1.391 . S
C155 C154 1.391 . S
C155 C156 1.399 . S
C156 C155 1.399 . S
C156 C157 1.396 . S
C156 C159 1.453 . S
C156 C160 1.684 . S
C157 C147 1.723 . S
C157 C156 1.396 . S
C157 C158 1.394 . S
C158 C128 1.723 . S
C158 C154 1.397 . S
C158 C157 1.394 . S
C159 H131 0.982 . S
C159 H135 0.979 . S
C159 H136 0.977 . S
C159 C156 1.453 . S
C160 H132 0.979 . S
C160 H133 0.980 . S
C160 H134 0.983 . S
C160 C156 1.684 . S
H161 C179 0.945 1_556 S
H162 C120 0.948 . S
H163 C138 0.979 . S
H164 C138 0.980 . S
H165 C138 0.983 . S
H166 C137 0.982 . S
H167 C137 0.979 . S
H168 C137 0.977 . S
H169 C139 0.948 . S
H170 C141 0.947 . S
H171 C142 0.948 . S
H172 C148 0.982 . S
H173 C148 0.979 . S
H174 C148 0.977 . S
H175 C149 0.979 . S
H176 C149 0.980 . S
H177 C149 0.983 . S
H178 C122 0.947 . S
C179 C122 1.385 1_554 S
C179 C123 1.429 . S
C179 H161 0.945 1_554 S
C180 C181 1.391 . S
C180 C184 1.391 . S
C180 H222 0.948 . S
C181 C180 1.391 . S
C181 C182 1.391 . S
C182 C181 1.391 . S
C182 H238 0.947 . S
C182 C239 1.392 . S
C183 C184 1.391 . S
C183 C187 1.397 . S
C183 C239 1.419 . S
C184 C180 1.391 . S
C184 C183 1.391 . S
C184 C185 1.399 . S
C185 C184 1.399 . S
C185 C188 1.396 . S
C185 C197 1.453 . S
C185 C198 1.684 . S
H186 C210 0.948 . S
C187 C183 1.397 . S
C187 C188 1.394 . S
C187 C206 1.723 . S
C188 C185 1.396 . S
C188 C187 1.394 . S
C188 C218 1.723 . S
H189 C212 0.947 . S
H190 C213 0.948 . S
H191 C219 0.982 . S
H192 C220 0.979 . S
H193 C220 0.980 . S
H194 C220 0.983 . S
H195 C219 0.979 . S
H196 C219 0.977 . S
C197 C185 1.453 . S
C197 H226 0.982 . S
C197 H227 0.979 . S
C197 H228 0.977 . S
C198 C185 1.684 . S
C198 H223 0.979 . S
C198 H224 0.980 . S
C198 H225 0.983 . S
C199 C200 1.391 . S
C199 C204 1.391 . S
C199 H229 0.948 . S
C200 C199 1.391 . S
C200 C201 1.391 . S
C201 C200 1.391 . S
C201 C202 1.392 . S
C201 H230 0.947 . S
C202 C201 1.392 . S
C202 C203 1.419 . S
C202 H231 0.948 . S
C203 C202 1.419 . S
C203 C204 1.391 . S
C203 C207 1.397 . S
C204 C199 1.391 . S
C204 C203 1.391 . S
C204 C205 1.399 . S
C205 C204 1.399 . S
C205 C206 1.396 . S
C205 C208 1.453 . S
C205 C209 1.684 . S
C206 C187 1.723 . S
C206 C205 1.396 . S
C206 C207 1.394 . S
C207 C203 1.397 . S
C207 C206 1.394 . S
C207 C217 1.723 . S
C208 C205 1.453 . S
C208 H232 0.982 . S
C208 H233 0.979 . S
C208 H234 0.977 . S
C209 C205 1.684 . S
C209 H235 0.979 . S
C209 H236 0.980 . S
C209 H237 0.983 . S
C210 H186 0.948 . S
C210 C211 1.391 . S
C210 C215 1.391 . S
C211 C210 1.391 . S
C211 C212 1.391 . S
C212 H189 0.947 . S
C212 C211 1.391 . S
C212 C213 1.392 . S
C213 H190 0.948 . S
C213 C212 1.392 . S
C213 C214 1.419 . S
C214 C213 1.419 . S
C214 C215 1.391 . S
C214 C218 1.397 . S
C215 C210 1.391 . S
C215 C214 1.391 . S
C215 C216 1.399 . S
C216 C215 1.399 . S
C216 C217 1.396 . S
C216 C219 1.453 . S
C216 C220 1.684 . S
C217 C207 1.723 . S
C217 C216 1.396 . S
C217 C218 1.394 . S
C218 C188 1.723 . S
C218 C214 1.397 . S
C218 C217 1.394 . S
C219 H191 0.982 . S
C219 H195 0.979 . S
C219 H196 0.977 . S
C219 C216 1.453 . S
C220 H192 0.979 . S
C220 H193 0.980 . S
C220 H194 0.983 . S
C220 C216 1.684 . S
H221 C239 0.948 . S
H222 C180 0.948 . S
H223 C198 0.979 . S
H224 C198 0.980 . S
H225 C198 0.983 . S
H226 C197 0.982 . S
H227 C197 0.979 . S
H228 C197 0.977 . S
H229 C199 0.948 . S
H230 C201 0.947 . S
H231 C202 0.948 . S
H232 C208 0.982 . S
H233 C208 0.979 . S
H234 C208 0.977 . S
H235 C209 0.979 . S
H236 C209 0.980 . S
H237 C209 0.983 . S
H238 C182 0.947 . S
C239 C182 1.392 . S
C239 C183 1.419 . S
C239 H221 0.948 . S
C240 C241 1.391 . S
C240 C244 1.391 . S
C240 H282 0.948 . S
C241 C240 1.391 . S
C241 C242 1.391 . S
C242 C241 1.391 . S
C242 H298 0.947 . S
C242 C299 1.392 . S
C243 C244 1.391 . S
C243 C247 1.397 . S
C243 C299 1.419 . S
C244 C240 1.391 . S
C244 C243 1.391 . S
C244 C245 1.399 . S
C245 C244 1.399 . S
C245 C248 1.396 . S
C245 C257 1.453 . S
C245 C258 1.684 . S
H246 C270 0.948 . S
C247 C243 1.397 . S
C247 C248 1.394 . S
C247 C266 1.723 . S
C248 C245 1.396 . S
C248 C247 1.394 . S
C248 C278 1.723 . S
H249 C272 0.947 . S
H250 C273 0.948 . S
H251 C279 0.982 . S
H252 C280 0.979 . S
H253 C280 0.980 . S
H254 C280 0.983 1_545 S
H255 C279 0.979 . S
H256 C279 0.977 . S
C257 C245 1.453 . S
C257 H286 0.982 . S
C257 H287 0.979 . S
C257 H288 0.977 . S
C258 C245 1.684 . S
C258 H283 0.979 . S
C258 H284 0.980 . S
C258 H285 0.983 . S
C259 C260 1.396 . S
C259 C264 1.391 1_655 S
C259 H289 0.948 . S
C260 C259 1.396 . S
C260 C261 1.353 1_655 S
C261 C260 1.353 1_455 S
C261 C262 1.392 . S
C261 H290 0.947 . S
C262 C261 1.392 . S
C262 C263 1.419 . S
C262 H291 0.948 . S
C263 C262 1.419 . S
C263 C264 1.391 . S
C263 C267 1.397 . S
C264 C259 1.391 1_455 S
C264 C263 1.391 . S
C264 C265 1.399 . S
C265 C264 1.399 . S
C265 C266 1.396 . S
C265 C268 1.453 1_455 S
C265 C269 1.684 . S
C266 C247 1.723 . S
C266 C265 1.396 . S
C266 C267 1.394 . S
C267 C263 1.397 . S
C267 C266 1.394 . S
C267 C277 1.723 . S
C268 C265 1.453 1_655 S
C268 H292 0.982 . S
C268 H293 0.979 . S
C268 H294 0.977 . S
C269 C265 1.684 . S
C269 H295 0.979 . S
C269 H296 0.980 . S
C269 H297 0.983 1_455 S
C270 H246 0.948 . S
C270 C271 1.391 . S
C270 C275 1.391 1_545 S
C271 C270 1.391 . S
C271 C272 1.391 1_545 S
C272 H249 0.947 . S
C272 C271 1.391 1_565 S
C272 C273 1.392 . S
C273 H250 0.948 . S
C273 C272 1.392 . S
C273 C274 1.419 . S
C274 C273 1.419 . S
C274 C275 1.391 . S
C274 C278 1.397 . S
C275 C270 1.391 1_565 S
C275 C274 1.391 . S
C275 C276 1.399 . S
C276 C275 1.399 . S
C276 C277 1.396 . S
C276 C279 1.453 1_565 S
C276 C280 1.684 . S
C277 C267 1.723 . S
C277 C276 1.396 . S
C277 C278 1.394 . S
C278 C248 1.723 . S
C278 C274 1.397 . S
C278 C277 1.394 . S
C279 H251 0.982 . S
C279 H255 0.979 . S
C279 H256 0.977 . S
C279 C276 1.453 1_545 S
C280 H252 0.979 . S
C280 H253 0.980 . S
C280 H254 0.983 1_565 S
C280 C276 1.684 . S
H281 C299 0.948 . S
H282 C240 0.948 . S
H283 C258 0.979 . S
H284 C258 0.980 . S
H285 C258 0.983 . S
H286 C257 0.982 . S
H287 C257 0.979 . S
H288 C257 0.977 . S
H289 C259 0.948 . S
H290 C261 0.947 . S
H291 C262 0.948 . S
H292 C268 0.982 . S
H293 C268 0.979 . S
H294 C268 0.977 . S
H295 C269 0.979 . S
H296 C269 0.980 . S
H297 C269 0.983 1_655 S
H298 C242 0.947 . S
C299 C242 1.392 . S
C299 C243 1.419 . S
C299 H281 0.948 . S
C300 C301 1.391 . S
C300 C304 1.391 . S
C300 H342 0.948 . S
C301 C300 1.391 . S
C301 C302 1.391 . S
C302 C301 1.391 . S
C302 H358 0.947 . S
C302 C359 1.392 . S
C303 C304 1.391 . S
C303 C307 1.397 . S
C303 C359 1.419 . S
C304 C300 1.391 . S
C304 C303 1.391 . S
C304 C305 1.399 . S
C305 C304 1.399 . S
C305 C308 1.396 . S
C305 C317 1.453 . S
C305 C318 1.684 . S
H306 C330 0.948 . S
C307 C303 1.397 . S
C307 C308 1.394 . S
C307 C326 1.723 . S
C308 C305 1.396 . S
C308 C307 1.394 . S
C308 C338 1.723 . S
H309 C332 0.947 . S
H310 C333 0.948 . S
H311 C339 0.982 . S
H312 C340 0.979 . S
H313 C340 0.980 . S
H314 C340 0.983 . S
H315 C339 0.979 . S
H316 C339 0.977 . S
C317 C305 1.453 . S
C317 H346 0.982 . S
C317 H347 0.979 . S
C317 H348 0.977 . S
C318 C305 1.684 . S
C318 H343 0.979 . S
C318 H344 0.980 . S
C318 H345 0.983 . S
C319 C320 1.391 . S
C319 C324 1.391 . S
C319 H349 0.948 . S
C320 C319 1.391 . S
C320 C321 1.391 . S
C321 C320 1.391 . S
C321 C322 1.392 . S
C321 H350 0.947 . S
C322 C321 1.392 . S
C322 C323 1.419 . S
C322 H351 0.948 . S
C323 C322 1.419 . S
C323 C324 1.391 . S
C323 C327 1.397 . S
C324 C319 1.391 . S
C324 C323 1.391 . S
C324 C325 1.399 . S
C325 C324 1.399 . S
C325 C326 1.396 . S
C325 C328 1.453 . S
C325 C329 1.684 . S
C326 C307 1.723 . S
C326 C325 1.396 . S
C326 C327 1.394 . S
C327 C323 1.397 . S
C327 C326 1.394 . S
C327 C337 1.723 . S
C328 C325 1.453 . S
C328 H352 0.982 . S
C328 H353 0.979 . S
C328 H354 0.977 . S
C329 C325 1.684 . S
C329 H355 0.979 . S
C329 H356 0.980 . S
C329 H357 0.983 . S
C330 H306 0.948 . S
C330 C331 1.391 . S
C330 C335 1.391 . S
C331 C330 1.391 . S
C331 C332 1.391 . S
C332 H309 0.947 . S
C332 C331 1.391 . S
C332 C333 1.392 . S
C333 H310 0.948 . S
C333 C332 1.392 . S
C333 C334 1.419 . S
C334 C333 1.419 . S
C334 C335 1.391 . S
C334 C338 1.397 . S
C335 C330 1.391 . S
C335 C334 1.391 . S
C335 C336 1.399 . S
C336 C335 1.399 . S
C336 C337 1.396 . S
C336 C339 1.453 . S
C336 C340 1.684 . S
C337 C327 1.723 . S
C337 C336 1.396 . S
C337 C338 1.394 . S
C338 C308 1.723 . S
C338 C334 1.397 . S
C338 C337 1.394 . S
C339 H311 0.982 . S
C339 H315 0.979 . S
C339 H316 0.977 . S
C339 C336 1.453 . S
C340 H312 0.979 . S
C340 H313 0.980 . S
C340 H314 0.983 . S
C340 C336 1.684 . S
H341 C359 0.948 . S
H342 C300 0.948 . S
H343 C318 0.979 . S
H344 C318 0.980 . S
H345 C318 0.983 . S
H346 C317 0.982 . S
H347 C317 0.979 . S
H348 C317 0.977 . S
H349 C319 0.948 . S
H350 C321 0.947 . S
H351 C322 0.948 . S
H352 C328 0.982 . S
H353 C328 0.979 . S
H354 C328 0.977 . S
H355 C329 0.979 . S
H356 C329 0.980 . S
H357 C329 0.983 . S
H358 C302 0.947 . S
C359 C302 1.392 . S
C359 C303 1.419 . S
C359 H341 0.948 . S
C360 C361 1.391 . S
C360 C364 1.391 . S
C360 H402 0.948 . S
C361 C360 1.391 . S
C361 C362 1.391 . S
C362 C361 1.391 . S
C362 H418 0.947 . S
C362 C419 1.392 . S
C363 C364 1.391 . S
C363 C367 1.397 . S
C363 C419 1.419 . S
C364 C360 1.391 . S
C364 C363 1.391 . S
C364 C365 1.399 . S
C365 C364 1.399 . S
C365 C368 1.396 . S
C365 C377 1.453 . S
C365 C378 1.684 . S
H366 C390 0.948 . S
C367 C363 1.397 . S
C367 C368 1.394 . S
C367 C386 1.723 . S
C368 C365 1.396 . S
C368 C367 1.394 . S
C368 C398 1.723 . S
H369 C392 0.947 . S
H370 C393 0.948 . S
H371 C399 0.982 . S
H372 C400 0.979 . S
H373 C400 0.980 . S
H374 C400 0.983 . S
H375 C399 0.979 1_455 S
H376 C399 0.977 . S
C377 C365 1.453 . S
C377 H406 0.982 . S
C377 H407 0.979 . S
C377 H408 0.977 . S
C378 C365 1.684 . S
C378 H403 0.979 . S
C378 H404 0.980 . S
C378 H405 0.983 . S
C379 C380 1.367 1_655 S
C379 C384 1.410 . S
C379 H409 0.955 . S
C380 C379 1.367 1_455 S
C380 C381 1.391 . S
C381 C380 1.391 . S
C381 C382 1.392 . S
C381 H410 0.947 . S
C382 C381 1.392 . S
C382 C383 1.419 1_455 S
C382 H411 0.948 . S
C383 C382 1.419 1_655 S
C383 C384 1.391 . S
C383 C387 1.397 . S
C384 C379 1.410 . S
C384 C383 1.391 . S
C384 C385 1.399 . S
C385 C384 1.399 . S
C385 C386 1.396 . S
C385 C388 1.453 . S
C385 C389 1.684 . S
C386 C367 1.723 . S
C386 C385 1.396 . S
C386 C387 1.394 . S
C387 C383 1.397 . S
C387 C386 1.394 . S
C387 C397 1.723 . S
C388 C385 1.453 . S
C388 H412 0.982 . S
C388 H413 0.979 . S
C388 H414 0.977 . S
C389 C385 1.684 . S
C389 H415 0.979 . S
C389 H416 0.980 . S
C389 H417 0.983 . S
C390 H366 0.948 . S
C390 C391 1.391 . S
C390 C395 1.391 . S
C391 C390 1.391 . S
C391 C392 1.391 . S
C392 H369 0.947 . S
C392 C391 1.391 . S
C392 C393 1.392 . S
C393 H370 0.948 . S
C393 C392 1.392 . S
C393 C394 1.419 . S
C394 C393 1.419 . S
C394 C395 1.391 . S
C394 C398 1.397 . S
C395 C390 1.391 . S
C395 C394 1.391 . S
C395 C396 1.399 . S
C396 C395 1.399 . S
C396 C397 1.396 . S
C396 C399 1.453 . S
C396 C400 1.684 1_655 S
C397 C387 1.723 . S
C397 C396 1.396 . S
C397 C398 1.394 . S
C398 C368 1.723 . S
C398 C394 1.397 . S
C398 C397 1.394 . S
C399 H371 0.982 . S
C399 H375 0.979 1_655 S
C399 H376 0.977 . S
C399 C396 1.453 . S
C400 H372 0.979 . S
C400 H373 0.980 . S
C400 H374 0.983 . S
C400 C396 1.684 1_455 S
H401 C419 0.948 . S
H402 C360 0.948 . S
H403 C378 0.979 . S
H404 C378 0.980 . S
H405 C378 0.983 . S
H406 C377 0.982 . S
H407 C377 0.979 . S
H408 C377 0.977 . S
H409 C379 0.955 . S
H410 C381 0.947 . S
H411 C382 0.948 . S
H412 C388 0.982 . S
H413 C388 0.979 . S
H414 C388 0.977 . S
H415 C389 0.979 . S
H416 C389 0.980 . S
H417 C389 0.983 . S
H418 C362 0.947 . S
C419 C362 1.392 . S
C419 C363 1.419 . S
C419 H401 0.948 . S
C420 C421 1.391 . S
C420 C424 1.391 . S
C420 H462 0.948 . S
C421 C420 1.391 . S
C421 C422 1.391 . S
C422 C421 1.391 . S
C422 H478 0.947 . S
C422 C479 1.392 . S
C423 C424 1.391 . S
C423 C427 1.397 . S
C423 C479 1.419 . S
C424 C420 1.391 . S
C424 C423 1.391 . S
C424 C425 1.399 . S
C425 C424 1.399 . S
C425 C428 1.396 . S
C425 C437 1.453 . S
C425 C438 1.684 . S
H426 C450 0.948 . S
C427 C423 1.397 . S
C427 C428 1.394 . S
C427 C446 1.723 . S
C428 C425 1.396 . S
C428 C427 1.394 . S
C428 C458 1.723 . S
H429 C452 0.947 . S
H430 C453 0.948 . S
H431 C459 0.982 . S
H432 C460 0.979 . S
H433 C460 0.980 . S
H434 C460 0.983 . S
H435 C459 0.979 . S
H436 C459 0.977 . S
C437 C425 1.453 . S
C437 H466 0.982 . S
C437 H467 0.979 . S
C437 H468 0.977 . S
C438 C425 1.684 . S
C438 H463 0.979 . S
C438 H464 0.980 . S
C438 H465 0.983 . S
C439 C440 1.391 . S
C439 C444 1.391 . S
C439 H469 0.948 . S
C440 C439 1.391 . S
C440 C441 1.391 . S
C441 C440 1.391 . S
C441 C442 1.392 . S
C441 H470 0.947 . S
C442 C441 1.392 . S
C442 C443 1.419 . S
C442 H471 0.948 . S
C443 C442 1.419 . S
C443 C444 1.391 . S
C443 C447 1.397 . S
C444 C439 1.391 . S
C444 C443 1.391 . S
C444 C445 1.399 . S
C445 C444 1.399 . S
C445 C446 1.396 . S
C445 C448 1.453 . S
C445 C449 1.684 . S
C446 C427 1.723 . S
C446 C445 1.396 . S
C446 C447 1.394 . S
C447 C443 1.397 . S
C447 C446 1.394 . S
C447 C457 1.723 . S
C448 C445 1.453 . S
C448 H472 0.982 . S
C448 H473 0.979 . S
C448 H474 0.977 . S
C449 C445 1.684 . S
C449 H475 0.979 . S
C449 H476 0.980 . S
C449 H477 0.983 . S
C450 H426 0.948 . S
C450 C451 1.391 . S
C450 C455 1.391 . S
C451 C450 1.391 . S
C451 C452 1.391 . S
C452 H429 0.947 . S
C452 C451 1.391 . S
C452 C453 1.392 . S
C453 H430 0.948 . S
C453 C452 1.392 . S
C453 C454 1.419 . S
C454 C453 1.419 . S
C454 C455 1.391 . S
C454 C458 1.397 . S
C455 C450 1.391 . S
C455 C454 1.391 . S
C455 C456 1.399 . S
C456 C455 1.399 . S
C456 C457 1.396 . S
C456 C459 1.453 . S
C456 C460 1.684 . S
C457 C447 1.723 . S
C457 C456 1.396 . S
C457 C458 1.394 . S
C458 C428 1.723 . S
C458 C454 1.397 . S
C458 C457 1.394 . S
C459 H431 0.982 . S
C459 H435 0.979 . S
C459 H436 0.977 . S
C459 C456 1.453 . S
C460 H432 0.979 . S
C460 H433 0.980 . S
C460 H434 0.983 . S
C460 C456 1.684 . S
H461 C479 0.948 . S
H462 C420 0.948 . S
H463 C438 0.979 . S
H464 C438 0.980 . S
H465 C438 0.983 . S
H466 C437 0.982 . S
H467 C437 0.979 . S
H468 C437 0.977 . S
H469 C439 0.948 . S
H470 C441 0.947 . S
H471 C442 0.948 . S
H472 C448 0.982 . S
H473 C448 0.979 . S
H474 C448 0.977 . S
H475 C449 0.979 . S
H476 C449 0.980 . S
H477 C449 0.983 . S
H478 C422 0.947 . S
C479 C422 1.392 . S
C479 C423 1.419 . S
C479 H461 0.948 . S
C480 C481 1.391 . S
C480 C484 1.391 . S
C480 H522 0.948 . S
C481 C480 1.391 . S
C481 C482 1.391 . S
C482 C481 1.391 . S
C482 H538 0.947 . S
C482 C539 1.392 . S
C483 C484 1.391 . S
C483 C487 1.397 . S
C483 C539 1.419 . S
C484 C480 1.391 . S
C484 C483 1.391 . S
C484 C485 1.399 . S
C485 C484 1.399 . S
C485 C488 1.396 . S
C485 C497 1.453 . S
C485 C498 1.684 . S
H486 C510 0.948 . S
C487 C483 1.397 . S
C487 C488 1.394 . S
C487 C506 1.723 . S
C488 C485 1.396 . S
C488 C487 1.394 . S
C488 C518 1.723 . S
H489 C512 0.947 . S
H490 C513 0.948 . S
H491 C519 0.982 . S
H492 C520 0.979 . S
H493 C520 0.980 . S
H494 C520 0.983 . S
H495 C519 0.979 . S
H496 C519 0.977 . S
C497 C485 1.453 . S
C497 H526 0.982 . S
C497 H527 0.979 . S
C497 H528 0.977 . S
C498 C485 1.684 . S
C498 H523 0.979 . S
C498 H524 0.980 . S
C498 H525 0.983 . S
C499 C500 1.391 . S
C499 C504 1.391 . S
C499 H529 0.948 . S
C500 C499 1.391 . S
C500 C501 1.391 . S
C501 C500 1.391 . S
C501 C502 1.392 . S
C501 H530 0.947 . S
C502 C501 1.392 . S
C502 C503 1.419 . S
C502 H531 0.948 . S
C503 C502 1.419 . S
C503 C504 1.391 . S
C503 C507 1.397 . S
C504 C499 1.391 . S
C504 C503 1.391 . S
C504 C505 1.399 . S
C505 C504 1.399 . S
C505 C506 1.396 . S
C505 C508 1.453 . S
C505 C509 1.684 . S
C506 C487 1.723 . S
C506 C505 1.396 . S
C506 C507 1.394 . S
C507 C503 1.397 . S
C507 C506 1.394 . S
C507 C517 1.723 . S
C508 C505 1.453 . S
C508 H532 0.982 . S
C508 H533 0.979 . S
C508 H534 0.977 . S
C509 C505 1.684 . S
C509 H535 0.979 . S
C509 H536 0.980 . S
C509 H537 0.983 . S
C510 H486 0.948 . S
C510 C511 1.391 . S
C510 C515 1.391 . S
C511 C510 1.391 . S
C511 C512 1.391 . S
C512 H489 0.947 . S
C512 C511 1.391 . S
C512 C513 1.392 . S
C513 H490 0.948 . S
C513 C512 1.392 . S
C513 C514 1.419 . S
C514 C513 1.419 . S
C514 C515 1.391 . S
C514 C518 1.397 . S
C515 C510 1.391 . S
C515 C514 1.391 . S
C515 C516 1.399 . S
C516 C515 1.399 . S
C516 C517 1.396 . S
C516 C519 1.453 . S
C516 C520 1.684 . S
C517 C507 1.723 . S
C517 C516 1.396 . S
C517 C518 1.394 . S
C518 C488 1.723 . S
C518 C514 1.397 . S
C518 C517 1.394 . S
C519 H491 0.982 . S
C519 H495 0.979 . S
C519 H496 0.977 . S
C519 C516 1.453 . S
C520 H492 0.979 . S
C520 H493 0.980 . S
C520 H494 0.983 . S
C520 C516 1.684 . S
H521 C539 0.948 . S
H522 C480 0.948 . S
H523 C498 0.979 . S
H524 C498 0.980 . S
H525 C498 0.983 . S
H526 C497 0.982 . S
H527 C497 0.979 . S
H528 C497 0.977 . S
H529 C499 0.948 . S
H530 C501 0.947 . S
H531 C502 0.948 . S
H532 C508 0.982 . S
H533 C508 0.979 . S
H534 C508 0.977 . S
H535 C509 0.979 . S
H536 C509 0.980 . S
H537 C509 0.983 . S
H538 C482 0.947 . S
C539 C482 1.392 . S
C539 C483 1.419 . S
C539 H521 0.948 . S
C540 C541 1.391 . S
C540 C544 1.391 . S
C540 H582 0.948 . S
C541 C540 1.391 . S
C541 C542 1.391 . S
C542 C541 1.391 . S
C542 H598 0.947 . S
C542 C599 1.392 . S
C543 C544 1.391 . S
C543 C547 1.397 . S
C543 C599 1.419 . S
C544 C540 1.391 . S
C544 C543 1.391 . S
C544 C545 1.399 . S
C545 C544 1.399 . S
C545 C548 1.396 . S
C545 C557 1.453 . S
C545 C558 1.684 . S
H546 C570 0.948 . S
C547 C543 1.397 . S
C547 C548 1.394 . S
C547 C566 1.723 . S
C548 C545 1.396 . S
C548 C547 1.394 . S
C548 C578 1.723 . S
H549 C572 0.947 . S
H550 C573 0.948 . S
H551 C579 0.982 . S
H552 C580 0.979 . S
H553 C580 0.980 . S
H554 C580 0.983 . S
H555 C579 0.979 1_545 S
H556 C579 0.977 . S
C557 C545 1.453 . S
C557 H586 0.982 . S
C557 H587 0.979 . S
C557 H588 0.977 . S
C558 C545 1.684 . S
C558 H583 0.979 . S
C558 H584 0.980 . S
C558 H585 0.983 . S
C559 C560 1.367 1_565 S
C559 C564 1.410 . S
C559 H589 0.955 . S
C560 C559 1.367 1_545 S
C560 C561 1.391 . S
C561 C560 1.391 . S
C561 C562 1.392 . S
C561 H590 0.947 . S
C562 C561 1.392 . S
C562 C563 1.419 1_545 S
C562 H591 0.948 . S
C563 C562 1.419 1_565 S
C563 C564 1.391 . S
C563 C567 1.397 . S
C564 C559 1.410 . S
C564 C563 1.391 . S
C564 C565 1.399 . S
C565 C564 1.399 . S
C565 C566 1.396 . S
C565 C568 1.453 . S
C565 C569 1.684 . S
C566 C547 1.723 . S
C566 C565 1.396 . S
C566 C567 1.394 . S
C567 C563 1.397 . S
C567 C566 1.394 . S
C567 C577 1.723 . S
C568 C565 1.453 . S
C568 H592 0.982 . S
C568 H593 0.979 . S
C568 H594 0.977 . S
C569 C565 1.684 . S
C569 H595 0.979 . S
C569 H596 0.980 . S
C569 H597 0.983 . S
C570 H546 0.948 . S
C570 C571 1.391 . S
C570 C575 1.391 . S
C571 C570 1.391 . S
C571 C572 1.391 . S
C572 H549 0.947 . S
C572 C571 1.391 . S
C572 C573 1.392 . S
C573 H550 0.948 . S
C573 C572 1.392 . S
C573 C574 1.419 . S
C574 C573 1.419 . S
C574 C575 1.391 . S
C574 C578 1.397 . S
C575 C570 1.391 . S
C575 C574 1.391 . S
C575 C576 1.399 . S
C576 C575 1.399 . S
C576 C577 1.396 . S
C576 C579 1.453 . S
C576 C580 1.684 1_565 S
C577 C567 1.723 . S
C577 C576 1.396 . S
C577 C578 1.394 . S
C578 C548 1.723 . S
C578 C574 1.397 . S
C578 C577 1.394 . S
C579 H551 0.982 . S
C579 H555 0.979 1_565 S
C579 H556 0.977 . S
C579 C576 1.453 . S
C580 H552 0.979 . S
C580 H553 0.980 . S
C580 H554 0.983 . S
C580 C576 1.684 1_545 S
H581 C599 0.948 . S
H582 C540 0.948 . S
H583 C558 0.979 . S
H584 C558 0.980 . S
H585 C558 0.983 . S
H586 C557 0.982 . S
H587 C557 0.979 . S
H588 C557 0.977 . S
H589 C559 0.955 . S
H590 C561 0.947 . S
H591 C562 0.948 . S
H592 C568 0.982 . S
H593 C568 0.979 . S
H594 C568 0.977 . S
H595 C569 0.979 . S
H596 C569 0.980 . S
H597 C569 0.983 . S
H598 C542 0.947 . S
C599 C542 1.392 . S
C599 C543 1.419 . S
C599 H581 0.948 . S
C600 C601 1.391 . S
C600 C604 1.391 . S
C600 H642 0.948 . S
C601 C600 1.391 . S
C601 C602 1.391 . S
C602 C601 1.391 . S
C602 H658 0.947 . S
C602 C659 1.392 . S
C603 C604 1.391 . S
C603 C607 1.397 . S
C603 C659 1.419 . S
C604 C600 1.391 . S
C604 C603 1.391 . S
C604 C605 1.399 . S
C605 C604 1.399 . S
C605 C608 1.396 . S
C605 C617 1.453 . S
C605 C618 1.684 . S
H606 C630 0.948 . S
C607 C603 1.397 . S
C607 C608 1.394 . S
C607 C626 1.723 . S
C608 C605 1.396 . S
C608 C607 1.394 . S
C608 C638 1.723 . S
H609 C632 0.947 . S
H610 C633 0.948 . S
H611 C639 0.982 . S
H612 C640 0.979 . S
H613 C640 0.980 . S
H614 C640 0.983 . S
H615 C639 0.979 . S
H616 C639 0.977 . S
C617 C605 1.453 . S
C617 H646 0.982 . S
C617 H647 0.979 . S
C617 H648 0.977 . S
C618 C605 1.684 . S
C618 H643 0.979 . S
C618 H644 0.980 . S
C618 H645 0.983 . S
C619 C620 1.391 . S
C619 C624 1.391 . S
C619 H649 0.948 . S
C620 C619 1.391 . S
C620 C621 1.391 . S
C621 C620 1.391 . S
C621 C622 1.392 . S
C621 H650 0.947 . S
C622 C621 1.392 . S
C622 C623 1.419 . S
C622 H651 0.948 . S
C623 C622 1.419 . S
C623 C624 1.391 . S
C623 C627 1.397 . S
C624 C619 1.391 . S
C624 C623 1.391 . S
C624 C625 1.399 . S
C625 C624 1.399 . S
C625 C626 1.396 . S
C625 C628 1.453 . S
C625 C629 1.684 . S
C626 C607 1.723 . S
C626 C625 1.396 . S
C626 C627 1.394 . S
C627 C623 1.397 . S
C627 C626 1.394 . S
C627 C637 1.723 . S
C628 C625 1.453 . S
C628 H652 0.982 . S
C628 H653 0.979 . S
C628 H654 0.977 . S
C629 C625 1.684 . S
C629 H655 0.979 . S
C629 H656 0.980 . S
C629 H657 0.983 . S
C630 H606 0.948 . S
C630 C631 1.391 . S
C630 C635 1.391 . S
C631 C630 1.391 . S
C631 C632 1.391 . S
C632 H609 0.947 . S
C632 C631 1.391 . S
C632 C633 1.392 . S
C633 H610 0.948 . S
C633 C632 1.392 . S
C633 C634 1.419 . S
C634 C633 1.419 . S
C634 C635 1.391 . S
C634 C638 1.397 . S
C635 C630 1.391 . S
C635 C634 1.391 . S
C635 C636 1.399 . S
C636 C635 1.399 . S
C636 C637 1.396 . S
C636 C639 1.453 . S
C636 C640 1.684 . S
C637 C627 1.723 . S
C637 C636 1.396 . S
C637 C638 1.394 . S
C638 C608 1.723 . S
C638 C634 1.397 . S
C638 C637 1.394 . S
C639 H611 0.982 . S
C639 H615 0.979 . S
C639 H616 0.977 . S
C639 C636 1.453 . S
C640 H612 0.979 . S
C640 H613 0.980 . S
C640 H614 0.983 . S
C640 C636 1.684 . S
H641 C659 0.948 . S
H642 C600 0.948 . S
H643 C618 0.979 . S
H644 C618 0.980 . S
H645 C618 0.983 . S
H646 C617 0.982 . S
H647 C617 0.979 . S
H648 C617 0.977 . S
H649 C619 0.948 . S
H650 C621 0.947 . S
H651 C622 0.948 . S
H652 C628 0.982 . S
H653 C628 0.979 . S
H654 C628 0.977 . S
H655 C629 0.979 . S
H656 C629 0.980 . S
H657 C629 0.983 . S
H658 C602 0.947 . S
C659 C602 1.392 . S
C659 C603 1.419 . S
C659 H641 0.948 . S
C660 C661 1.391 . S
C660 C664 1.391 . S
C660 H702 0.948 . S
C661 C660 1.391 . S
C661 C662 1.391 . S
C662 C661 1.391 . S
C662 H718 0.947 . S
C662 C719 1.392 . S
C663 C664 1.391 . S
C663 C667 1.397 . S
C663 C719 1.419 . S
C664 C660 1.391 . S
C664 C663 1.391 . S
C664 C665 1.399 . S
C665 C664 1.399 . S
C665 C668 1.396 . S
C665 C677 1.453 . S
C665 C678 1.684 . S
H666 C690 0.948 . S
C667 C663 1.397 . S
C667 C668 1.394 . S
C667 C686 1.723 . S
C668 C665 1.396 . S
C668 C667 1.394 . S
C668 C698 1.723 . S
H669 C692 0.947 . S
H670 C693 0.948 . S
H671 C699 0.982 . S
H672 C700 0.979 . S
H673 C700 0.980 . S
H674 C700 0.983 . S
H675 C699 0.979 . S
H676 C699 0.977 . S
C677 C665 1.453 . S
C677 H706 0.982 . S
C677 H707 0.979 . S
C677 H708 0.977 . S
C678 C665 1.684 . S
C678 H703 0.979 . S
C678 H704 0.980 . S
C678 H705 0.983 . S
C679 C680 1.391 . S
C679 C684 1.391 . S
C679 H709 0.948 . S
C680 C679 1.391 . S
C680 C681 1.391 . S
C681 C680 1.391 . S
C681 C682 1.392 . S
C681 H710 0.947 . S
C682 C681 1.392 . S
C682 C683 1.419 . S
C682 H711 0.948 . S
C683 C682 1.419 . S
C683 C684 1.391 . S
C683 C687 1.397 . S
C684 C679 1.391 . S
C684 C683 1.391 . S
C684 C685 1.399 . S
C685 C684 1.399 . S
C685 C686 1.396 . S
C685 C688 1.453 . S
C685 C689 1.684 . S
C686 C667 1.723 . S
C686 C685 1.396 . S
C686 C687 1.394 . S
C687 C683 1.397 . S
C687 C686 1.394 . S
C687 C697 1.723 . S
C688 C685 1.453 . S
C688 H712 0.982 . S
C688 H713 0.979 . S
C688 H714 0.977 . S
C689 C685 1.684 . S
C689 H715 0.979 . S
C689 H716 0.980 . S
C689 H717 0.983 . S
C690 H666 0.948 . S
C690 C691 1.391 . S
C690 C695 1.391 . S
C691 C690 1.391 . S
C691 C692 1.391 . S
C692 H669 0.947 . S
C692 C691 1.391 . S
C692 C693 1.392 . S
C693 H670 0.948 . S
C693 C692 1.392 . S
C693 C694 1.419 . S
C694 C693 1.419 . S
C694 C695 1.391 . S
C694 C698 1.397 . S
C695 C690 1.391 . S
C695 C694 1.391 . S
C695 C696 1.399 . S
C696 C695 1.399 . S
C696 C697 1.396 . S
C696 C699 1.453 . S
C696 C700 1.684 . S
C697 C687 1.723 . S
C697 C696 1.396 . S
C697 C698 1.394 . S
C698 C668 1.723 . S
C698 C694 1.397 . S
C698 C697 1.394 . S
C699 H671 0.982 . S
C699 H675 0.979 . S
C699 H676 0.977 . S
C699 C696 1.453 . S
C700 H672 0.979 . S
C700 H673 0.980 . S
C700 H674 0.983 . S
C700 C696 1.684 . S
H701 C719 0.948 . S
H702 C660 0.948 . S
H703 C678 0.979 . S
H704 C678 0.980 . S
H705 C678 0.983 . S
H706 C677 0.982 . S
H707 C677 0.979 . S
H708 C677 0.977 . S
H709 C679 0.948 . S
H710 C681 0.947 . S
H711 C682 0.948 . S
H712 C688 0.982 . S
H713 C688 0.979 . S
H714 C688 0.977 . S
H715 C689 0.979 . S
H716 C689 0.980 . S
H717 C689 0.983 . S
H718 C662 0.947 . S
C719 C662 1.392 . S
C719 C663 1.419 . S
C719 H701 0.948 . S
C720 C721 1.391 . S
C720 C724 1.391 . S
C720 H762 0.948 . S
C721 C720 1.391 . S
C721 C722 1.391 . S
C722 C721 1.391 . S
C722 H778 0.947 . S
C722 C779 1.392 . S
C723 C724 1.391 . S
C723 C727 1.397 . S
C723 C779 1.419 . S
C724 C720 1.391 . S
C724 C723 1.391 . S
C724 C725 1.399 . S
C725 C724 1.399 . S
C725 C728 1.396 . S
C725 C737 1.453 . S
C725 C738 1.684 . S
H726 C750 0.948 . S
C727 C723 1.397 . S
C727 C728 1.394 . S
C727 C746 1.723 . S
C728 C725 1.396 . S
C728 C727 1.394 . S
C728 C758 1.723 . S
H729 C752 0.947 . S
H730 C753 0.948 . S
H731 C759 0.982 . S
H732 C760 0.979 . S
H733 C760 0.980 . S
H734 C760 0.983 . S
H735 C759 0.979 . S
H736 C759 0.977 . S
C737 C725 1.453 . S
C737 H766 0.982 . S
C737 H767 0.979 . S
C737 H768 0.977 . S
C738 C725 1.684 . S
C738 H763 0.979 . S
C738 H764 0.980 . S
C738 H765 0.983 . S
C739 C740 1.391 . S
C739 C744 1.391 . S
C739 H769 0.948 . S
C740 C739 1.391 . S
C740 C741 1.391 . S
C741 C740 1.391 . S
C741 C742 1.392 . S
C741 H770 0.947 . S
C742 C741 1.392 . S
C742 C743 1.419 . S
C742 H771 0.948 . S
C743 C742 1.419 . S
C743 C744 1.391 . S
C743 C747 1.397 . S
C744 C739 1.391 . S
C744 C743 1.391 . S
C744 C745 1.399 . S
C745 C744 1.399 . S
C745 C746 1.396 . S
C745 C748 1.453 . S
C745 C749 1.684 . S
C746 C727 1.723 . S
C746 C745 1.396 . S
C746 C747 1.394 . S
C747 C743 1.397 . S
C747 C746 1.394 . S
C747 C757 1.723 . S
C748 C745 1.453 . S
C748 H772 0.982 . S
C748 H773 0.979 . S
C748 H774 0.977 . S
C749 C745 1.684 . S
C749 H775 0.979 . S
C749 H776 0.980 . S
C749 H777 0.983 . S
C750 H726 0.948 . S
C750 C751 1.391 . S
C750 C755 1.391 . S
C751 C750 1.391 . S
C751 C752 1.391 . S
C752 H729 0.947 . S
C752 C751 1.391 . S
C752 C753 1.392 . S
C753 H730 0.948 . S
C753 C752 1.392 . S
C753 C754 1.419 . S
C754 C753 1.419 . S
C754 C755 1.391 . S
C754 C758 1.397 . S
C755 C750 1.391 . S
C755 C754 1.391 . S
C755 C756 1.399 . S
C756 C755 1.399 . S
C756 C757 1.396 . S
C756 C759 1.453 . S
C756 C760 1.684 . S
C757 C747 1.723 . S
C757 C756 1.396 . S
C757 C758 1.394 . S
C758 C728 1.723 . S
C758 C754 1.397 . S
C758 C757 1.394 . S
C759 H731 0.982 . S
C759 H735 0.979 . S
C759 H736 0.977 . S
C759 C756 1.453 . S
C760 H732 0.979 . S
C760 H733 0.980 . S
C760 H734 0.983 . S
C760 C756 1.684 . S
H761 C779 0.948 . S
H762 C720 0.948 . S
H763 C738 0.979 . S
H764 C738 0.980 . S
H765 C738 0.983 . S
H766 C737 0.982 . S
H767 C737 0.979 . S
H768 C737 0.977 . S
H769 C739 0.948 . S
H770 C741 0.947 . S
H771 C742 0.948 . S
H772 C748 0.982 . S
H773 C748 0.979 . S
H774 C748 0.977 . S
H775 C749 0.979 . S
H776 C749 0.980 . S
H777 C749 0.983 . S
H778 C722 0.947 . S
C779 C722 1.392 . S
C779 C723 1.419 . S
C779 H761 0.948 . S
C780 C781 1.391 . S
C780 C784 1.391 1_554 S
C780 H822 0.948 . S
C781 C780 1.391 . S
C781 C782 1.391 1_554 S
C782 C781 1.391 1_556 S
C782 H838 0.947 . S
C782 C839 1.392 . S
C783 C784 1.391 . S
C783 C787 1.397 . S
C783 C839 1.419 . S
C784 C780 1.391 1_556 S
C784 C783 1.391 . S
C784 C785 1.399 . S
C785 C784 1.399 . S
C785 C788 1.396 . S
C785 C797 1.453 1_556 S
C785 C798 1.682 1_556 S
H786 C810 0.948 . S
C787 C783 1.397 . S
C787 C788 1.394 . S
C787 C806 1.723 . S
C788 C785 1.396 . S
C788 C787 1.394 . S
C788 C818 1.723 . S
H789 C812 0.947 1_554 S
H790 C813 0.948 . S
H791 C819 0.982 . S
H792 C820 0.979 . S
H793 C820 0.980 . S
H794 C820 0.983 . S
H795 C819 0.979 . S
H796 C819 0.977 . S
C797 C785 1.453 1_554 S
C797 H826 0.982 . S
C797 H827 0.979 . S
C797 H828 0.977 . S
C798 C785 1.682 1_554 S
C798 H823 0.968 1_554 S
C798 H824 0.980 . S
C798 H825 0.997 . S
C799 C800 1.391 . S
C799 C804 1.391 . S
C799 H829 0.948 . S
C800 C799 1.391 . S
C800 C801 1.391 . S
C801 C800 1.391 . S
C801 C802 1.392 . S
C801 H830 0.947 . S
C802 C801 1.392 . S
C802 C803 1.419 . S
C802 H831 0.948 . S
C803 C802 1.419 . S
C803 C804 1.391 . S
C803 C807 1.397 . S
C804 C799 1.391 . S
C804 C803 1.391 . S
C804 C805 1.399 . S
C805 C804 1.399 . S
C805 C806 1.396 . S
C805 C808 1.453 . S
C805 C809 1.684 . S
C806 C787 1.723 . S
C806 C805 1.396 . S
C806 C807 1.394 . S
C807 C803 1.397 . S
C807 C806 1.394 . S
C807 C817 1.723 . S
C808 C805 1.453 . S
C808 H832 0.982 . S
C808 H833 0.979 . S
C808 H834 0.977 . S
C809 C805 1.684 . S
C809 H835 0.979 . S
C809 H836 0.980 . S
C809 H837 0.983 . S
C810 H786 0.948 . S
C810 C811 1.391 . S
C810 C815 1.391 . S
C811 C810 1.391 . S
C811 C812 1.391 . S
C812 H789 0.947 1_556 S
C812 C811 1.391 . S
C812 C813 1.392 . S
C813 H790 0.948 . S
C813 C812 1.392 . S
C813 C814 1.419 . S
C814 C813 1.419 . S
C814 C815 1.391 . S
C814 C818 1.397 . S
C815 C810 1.391 . S
C815 C814 1.391 . S
C815 C816 1.399 . S
C816 C815 1.399 . S
C816 C817 1.396 . S
C816 C819 1.453 . S
C816 C820 1.684 . S
C817 C807 1.723 . S
C817 C816 1.396 . S
C817 C818 1.394 . S
C818 C788 1.723 . S
C818 C814 1.397 . S
C818 C817 1.394 . S
C819 H791 0.982 . S
C819 H795 0.979 . S
C819 H796 0.977 . S
C819 C816 1.453 . S
C820 H792 0.979 . S
C820 H793 0.980 . S
C820 H794 0.983 . S
C820 C816 1.684 . S
H821 C839 0.948 . S
H822 C780 0.948 . S
H823 C798 0.968 1_556 S
H824 C798 0.980 . S
H825 C798 0.997 . S
H826 C797 0.982 . S
H827 C797 0.979 . S
H828 C797 0.977 . S
H829 C799 0.948 . S
H830 C801 0.947 . S
H831 C802 0.948 . S
H832 C808 0.982 . S
H833 C808 0.979 . S
H834 C808 0.977 . S
H835 C809 0.979 . S
H836 C809 0.980 . S
H837 C809 0.983 . S
H838 C782 0.947 . S
C839 C782 1.392 . S
C839 C783 1.419 . S
C839 H821 0.948 . S
C840 C841 1.391 . S
C840 C844 1.391 . S
C840 H882 0.948 . S
C841 C840 1.391 . S
C841 C842 1.391 . S
C842 C841 1.391 . S
C842 H898 0.947 . S
C842 C899 1.392 . S
C843 C844 1.391 . S
C843 C847 1.397 . S
C843 C899 1.419 . S
C844 C840 1.391 . S
C844 C843 1.391 . S
C844 C845 1.399 . S
C845 C844 1.399 . S
C845 C848 1.396 . S
C845 C857 1.453 . S
C845 C858 1.684 . S
H846 C870 0.948 . S
C847 C843 1.397 . S
C847 C848 1.394 . S
C847 C866 1.723 . S
C848 C845 1.396 . S
C848 C847 1.394 . S
C848 C878 1.723 . S
H849 C872 0.947 . S
H850 C873 0.948 . S
H851 C879 0.982 . S
H852 C880 0.979 . S
H853 C880 0.980 . S
H854 C880 0.983 . S
H855 C879 0.979 . S
H856 C879 0.977 . S
C857 C845 1.453 . S
C857 H886 0.982 . S
C857 H887 0.979 . S
C857 H888 0.977 . S
C858 C845 1.684 . S
C858 H883 0.979 . S
C858 H884 0.980 . S
C858 H885 0.983 . S
C859 C860 1.391 . S
C859 C864 1.391 . S
C859 H889 0.948 . S
C860 C859 1.391 . S
C860 C861 1.391 . S
C861 C860 1.391 . S
C861 C862 1.392 . S
C861 H890 0.947 . S
C862 C861 1.392 . S
C862 C863 1.419 . S
C862 H891 0.948 . S
C863 C862 1.419 . S
C863 C864 1.391 . S
C863 C867 1.397 . S
C864 C859 1.391 . S
C864 C863 1.391 . S
C864 C865 1.399 . S
C865 C864 1.399 . S
C865 C866 1.396 . S
C865 C868 1.453 . S
C865 C869 1.684 . S
C866 C847 1.723 . S
C866 C865 1.396 . S
C866 C867 1.394 . S
C867 C863 1.397 . S
C867 C866 1.394 . S
C867 C877 1.723 . S
C868 C865 1.453 . S
C868 H892 0.982 . S
C868 H893 0.979 . S
C868 H894 0.977 . S
C869 C865 1.684 . S
C869 H895 0.979 . S
C869 H896 0.980 . S
C869 H897 0.983 . S
C870 H846 0.948 . S
C870 C871 1.391 . S
C870 C875 1.391 . S
C871 C870 1.391 . S
C871 C872 1.391 . S
C872 H849 0.947 . S
C872 C871 1.391 . S
C872 C873 1.392 . S
C873 H850 0.948 . S
C873 C872 1.392 . S
C873 C874 1.419 . S
C874 C873 1.419 . S
C874 C875 1.391 . S
C874 C878 1.397 . S
C875 C870 1.391 . S
C875 C874 1.391 . S
C875 C876 1.399 . S
C876 C875 1.399 . S
C876 C877 1.396 . S
C876 C879 1.453 . S
C876 C880 1.684 . S
C877 C867 1.723 . S
C877 C876 1.396 . S
C877 C878 1.394 . S
C878 C848 1.723 . S
C878 C874 1.397 . S
C878 C877 1.394 . S
C879 H851 0.982 . S
C879 H855 0.979 . S
C879 H856 0.977 . S
C879 C876 1.453 . S
C880 H852 0.979 . S
C880 H853 0.980 . S
C880 H854 0.983 . S
C880 C876 1.684 . S
H881 C899 0.948 . S
H882 C840 0.948 . S
H883 C858 0.979 . S
H884 C858 0.980 . S
H885 C858 0.983 . S
H886 C857 0.982 . S
H887 C857 0.979 . S
H888 C857 0.977 . S
H889 C859 0.948 . S
H890 C861 0.947 . S
H891 C862 0.948 . S
H892 C868 0.982 . S
H893 C868 0.979 . S
H894 C868 0.977 . S
H895 C869 0.979 . S
H896 C869 0.980 . S
H897 C869 0.983 . S
H898 C842 0.947 . S
C899 C842 1.392 . S
C899 C843 1.419 . S
C899 H881 0.948 . S
C900 C901 1.391 1_545 S
C900 C904 1.391 . S
C900 H942 0.948 . S
C901 C900 1.391 1_565 S
C901 C902 1.391 . S
C902 C901 1.391 . S
C902 H958 0.947 . S
C902 C959 1.385 1_565 S
C903 C904 1.391 . S
C903 C907 1.397 . S
C903 C959 1.429 . S
C904 C900 1.391 . S
C904 C903 1.391 . S
C904 C905 1.399 . S
C905 C904 1.399 . S
C905 C908 1.396 . S
C905 C917 1.453 . S
C905 C918 1.684 1_556 S
H906 C930 0.948 . S
C907 C903 1.397 . S
C907 C908 1.394 . S
C907 C926 1.723 . S
C908 C905 1.396 . S
C908 C907 1.394 . S
C908 C938 1.723 . S
H909 C932 0.947 . S
H910 C933 0.948 . S
H911 C939 0.982 . S
H912 C940 0.979 . S
H913 C940 0.980 . S
H914 C940 0.983 . S
H915 C939 0.979 . S
H916 C939 0.977 . S
C917 C905 1.453 . S
C917 H946 0.982 . S
C917 H947 0.979 . S
C917 H948 0.977 . S
C918 C905 1.684 1_554 S
C918 H943 0.979 . S
C918 H944 0.980 . S
C918 H945 0.983 . S
C919 C920 1.391 . S
C919 C924 1.391 . S
C919 H949 0.948 . S
C920 C919 1.391 . S
C920 C921 1.391 . S
C921 C920 1.391 . S
C921 C922 1.392 . S
C921 H950 0.947 . S
C922 C921 1.392 . S
C922 C923 1.419 . S
C922 H951 0.948 . S
C923 C922 1.419 . S
C923 C924 1.391 . S
C923 C927 1.397 . S
C924 C919 1.391 . S
C924 C923 1.391 . S
C924 C925 1.399 . S
C925 C924 1.399 . S
C925 C926 1.396 . S
C925 C928 1.453 . S
C925 C929 1.684 1_545 S
C926 C907 1.723 . S
C926 C925 1.396 . S
C926 C927 1.394 . S
C927 C923 1.397 . S
C927 C926 1.394 . S
C927 C937 1.723 . S
C928 C925 1.453 . S
C928 H952 0.982 . S
C928 H953 0.979 . S
C928 H954 0.977 . S
C929 C925 1.684 1_565 S
C929 H955 0.979 . S
C929 H956 0.980 . S
C929 H957 0.983 . S
C930 H906 0.948 . S
C930 C931 1.391 1_556 S
C930 C935 1.391 . S
C931 C930 1.391 1_554 S
C931 C932 1.391 . S
C932 H909 0.947 . S
C932 C931 1.391 . S
C932 C933 1.392 . S
C933 H910 0.948 . S
C933 C932 1.392 . S
C933 C934 1.419 1_554 S
C934 C933 1.419 1_556 S
C934 C935 1.391 . S
C934 C938 1.397 . S
C935 C930 1.391 . S
C935 C934 1.391 . S
C935 C936 1.399 . S
C936 C935 1.399 . S
C936 C937 1.396 . S
C936 C939 1.453 . S
C936 C940 1.684 . S
C937 C927 1.723 . S
C937 C936 1.396 . S
C937 C938 1.394 . S
C938 C908 1.723 . S
C938 C934 1.397 . S
C938 C937 1.394 . S
C939 H911 0.982 . S
C939 H915 0.979 . S
C939 H916 0.977 . S
C939 C936 1.453 . S
C940 H912 0.979 . S
C940 H913 0.980 . S
C940 H914 0.983 . S
C940 C936 1.684 . S
H941 C959 0.945 1_565 S
H942 C900 0.948 . S
H943 C918 0.979 . S
H944 C918 0.980 . S
H945 C918 0.983 . S
H946 C917 0.982 . S
H947 C917 0.979 . S
H948 C917 0.977 . S
H949 C919 0.948 . S
H950 C921 0.947 . S
H951 C922 0.948 . S
H952 C928 0.982 . S
H953 C928 0.979 . S
H954 C928 0.977 . S
H955 C929 0.979 . S
H956 C929 0.980 . S
H957 C929 0.983 . S
H958 C902 0.947 . S
C959 C902 1.385 1_545 S
C959 C903 1.429 . S
C959 H941 0.945 1_545 S
Zn960 O963 2.028 1_556 S
Zn960 O965 2.052 . S
Zn960 O970 2.072 . S
Zn961 O962 1.962 . S
Zn961 O964 1.986 . S
Zn961 O966 1.996 . S
Zn961 O969 1.943 1_554 S
O962 Zn961 1.962 . S
O962 C967 1.254 . S
O963 Zn960 2.028 1_554 S
O963 C967 1.269 . S
O964 Zn961 1.986 . S
O964 C971 1.262 . S
O965 Zn960 2.052 . S
O965 C973 1.260 . S
O966 Zn961 1.996 . S
O966 C973 1.257 1_554 S
C967 O962 1.254 . S
C967 O963 1.269 . S
C968 O969 1.249 . S
C968 O970 1.270 . S
O969 Zn961 1.943 1_556 S
O969 C968 1.249 . S
O970 Zn960 2.072 . S
O970 C968 1.270 . S
C971 O964 1.262 . S
C971 O972 1.232 . S
O972 C971 1.232 . S
C973 O965 1.260 . S
C973 O966 1.257 1_556 S
Zn974 O977 2.031 . S
Zn974 O979 2.049 . S
Zn974 O984 2.067 . S
Zn975 O976 1.962 . S
Zn975 O978 1.986 . S
Zn975 O980 1.996 . S
Zn975 O983 1.943 . S
O976 Zn975 1.962 . S
O976 C981 1.254 . S
O977 Zn974 2.031 . S
O977 C981 1.269 . S
O978 Zn975 1.986 . S
O978 C985 1.262 . S
O979 Zn974 2.049 . S
O979 C987 1.260 . S
O980 Zn975 1.996 . S
O980 C987 1.257 . S
C981 O976 1.254 . S
C981 O977 1.269 . S
C982 O983 1.249 . S
C982 O984 1.270 . S
O983 Zn975 1.943 . S
O983 C982 1.249 . S
O984 Zn974 2.067 . S
O984 C982 1.270 . S
C985 O978 1.262 . S
C985 O986 1.232 . S
O986 C985 1.232 . S
C987 O979 1.260 . S
C987 O980 1.257 . S
Zn988 O991 2.031 . S
Zn988 O993 2.049 . S
Zn988 O998 2.067 . S
Zn989 O990 1.962 . S
Zn989 O992 1.986 . S
Zn989 O994 1.996 1_554 S
Zn989 O997 1.943 . S
O990 Zn989 1.962 . S
O990 C995 1.254 . S
O991 Zn988 2.031 . S
O991 C995 1.269 1_556 S
O992 Zn989 1.986 . S
O992 C999 1.262 . S
O993 Zn988 2.049 . S
O993 C1001 1.260 . S
O994 Zn989 1.996 1_556 S
O994 C1001 1.257 . S
C995 O990 1.254 . S
C995 O991 1.269 1_554 S
C996 O997 1.249 1_556 S
C996 O998 1.270 . S
O997 Zn989 1.943 . S
O997 C996 1.249 1_554 S
O998 Zn988 2.067 . S
O998 C996 1.270 . S
C999 O992 1.262 . S
C999 O1000 1.232 . S
O1000 C999 1.232 . S
C1001 O993 1.260 . S
C1001 O994 1.257 . S
Zn1002 O1005 2.028 1_565 S
Zn1002 O1007 2.052 . S
Zn1002 O1012 2.072 . S
Zn1003 O1004 1.962 . S
Zn1003 O1006 1.986 . S
Zn1003 O1008 1.996 . S
Zn1003 O1011 1.943 1_545 S
O1004 Zn1003 1.962 . S
O1004 C1009 1.254 . S
O1005 Zn1002 2.028 1_545 S
O1005 C1009 1.269 . S
O1006 Zn1003 1.986 . S
O1006 C1013 1.262 . S
O1007 Zn1002 2.052 . S
O1007 C1015 1.260 . S
O1008 Zn1003 1.996 . S
O1008 C1015 1.257 1_545 S
C1009 O1004 1.254 . S
C1009 O1005 1.269 . S
C1010 O1011 1.249 . S
C1010 O1012 1.270 . S
O1011 Zn1003 1.943 1_565 S
O1011 C1010 1.249 . S
O1012 Zn1002 2.072 . S
O1012 C1010 1.270 . S
C1013 O1006 1.262 . S
C1013 O1014 1.232 . S
O1014 C1013 1.232 . S
C1015 O1007 1.260 . S
C1015 O1008 1.257 1_565 S
Zn1016 O1019 2.031 . S
Zn1016 O1021 2.049 . S
Zn1016 O1026 2.067 . S
Zn1017 O1018 1.962 . S
Zn1017 O1020 1.986 . S
Zn1017 O1022 1.996 . S
Zn1017 O1025 1.943 . S
O1018 Zn1017 1.962 . S
O1018 C1023 1.254 . S
O1019 Zn1016 2.031 . S
O1019 C1023 1.269 . S
O1020 Zn1017 1.986 . S
O1020 C1027 1.262 . S
O1021 Zn1016 2.049 . S
O1021 C1029 1.260 . S
O1022 Zn1017 1.996 . S
O1022 C1029 1.257 . S
C1023 O1018 1.254 . S
C1023 O1019 1.269 . S
C1024 O1025 1.249 . S
C1024 O1026 1.270 . S
O1025 Zn1017 1.943 . S
O1025 C1024 1.249 . S
O1026 Zn1016 2.067 . S
O1026 C1024 1.270 . S
C1027 O1020 1.262 . S
C1027 O1028 1.232 . S
O1028 C1027 1.232 . S
C1029 O1021 1.260 . S
C1029 O1022 1.257 . S
Zn1030 O1033 2.031 . S
Zn1030 O1035 2.049 . S
Zn1030 O1040 2.067 . S
Zn1031 O1032 1.962 . S
Zn1031 O1034 1.986 . S
Zn1031 O1036 1.996 . S
Zn1031 O1039 1.943 . S
O1032 Zn1031 1.962 . S
O1032 C1037 1.254 . S
O1033 Zn1030 2.031 . S
O1033 C1037 1.269 . S
O1034 Zn1031 1.986 . S
O1034 C1041 1.262 . S
O1035 Zn1030 2.049 . S
O1035 C1043 1.260 . S
O1036 Zn1031 1.996 . S
O1036 C1043 1.257 . S
C1037 O1032 1.254 . S
C1037 O1033 1.269 . S
C1038 O1039 1.249 . S
C1038 O1040 1.270 . S
O1039 Zn1031 1.943 . S
O1039 C1038 1.249 . S
O1040 Zn1030 2.067 . S
O1040 C1038 1.270 . S
C1041 O1034 1.262 . S
C1041 O1042 1.232 . S
O1042 C1041 1.232 . S
C1043 O1035 1.260 . S
C1043 O1036 1.257 . S
Zn1044 O1047 2.031 . S
Zn1044 O1049 2.049 . S
Zn1044 O1054 2.067 . S
Zn1045 O1046 1.962 . S
Zn1045 O1048 1.986 . S
Zn1045 O1050 1.996 . S
Zn1045 O1053 1.943 . S
O1046 Zn1045 1.962 . S
O1046 C1051 1.254 . S
O1047 Zn1044 2.031 . S
O1047 C1051 1.269 . S
O1048 Zn1045 1.986 . S
O1048 C1055 1.262 . S
O1049 Zn1044 2.049 . S
O1049 C1057 1.260 . S
O1050 Zn1045 1.996 . S
O1050 C1057 1.257 . S
C1051 O1046 1.254 . S
C1051 O1047 1.269 . S
C1052 O1053 1.249 . S
C1052 O1054 1.270 . S
O1053 Zn1045 1.943 . S
O1053 C1052 1.249 . S
O1054 Zn1044 2.067 . S
O1054 C1052 1.270 . S
C1055 O1048 1.262 . S
C1055 O1056 1.232 . S
O1056 C1055 1.232 . S
C1057 O1049 1.260 . S
C1057 O1050 1.257 . S
Zn1058 O1061 2.031 . S
Zn1058 O1063 2.049 . S
Zn1058 O1068 2.067 . S
Zn1059 O1060 1.962 . S
Zn1059 O1062 1.986 . S
Zn1059 O1064 1.996 1_545 S
Zn1059 O1067 1.943 . S
O1060 Zn1059 1.962 . S
O1060 C1065 1.254 . S
O1061 Zn1058 2.031 . S
O1061 C1065 1.269 1_565 S
O1062 Zn1059 1.986 . S
O1062 C1069 1.262 . S
O1063 Zn1058 2.049 . S
O1063 C1071 1.260 . S
O1064 Zn1059 1.996 1_565 S
O1064 C1071 1.257 . S
C1065 O1060 1.254 . S
C1065 O1061 1.269 1_545 S
C1066 O1067 1.249 1_565 S
C1066 O1068 1.270 . S
O1067 Zn1059 1.943 . S
O1067 C1066 1.249 1_545 S
O1068 Zn1058 2.067 . S
O1068 C1066 1.270 . S
C1069 O1062 1.262 . S
C1069 O1070 1.232 . S
O1070 C1069 1.232 . S
C1071 O1063 1.260 . S
C1071 O1064 1.257 . S
Zn1072 O1075 2.028 1_655 S
Zn1072 O1077 2.052 . S
Zn1072 O1082 2.072 . S
Zn1073 O1074 1.962 . S
Zn1073 O1076 1.986 . S
Zn1073 O1078 1.996 . S
Zn1073 O1081 1.943 1_455 S
O1074 Zn1073 1.962 . S
O1074 C1079 1.254 . S
O1075 Zn1072 2.028 1_455 S
O1075 C1079 1.269 . S
O1076 Zn1073 1.986 . S
O1076 C1083 1.262 . S
O1077 Zn1072 2.052 . S
O1077 C1085 1.260 . S
O1078 Zn1073 1.996 . S
O1078 C1085 1.257 1_455 S
C1079 O1074 1.254 . S
C1079 O1075 1.269 . S
C1080 O1081 1.249 . S
C1080 O1082 1.270 . S
O1081 Zn1073 1.943 1_655 S
O1081 C1080 1.249 . S
O1082 Zn1072 2.072 . S
O1082 C1080 1.270 . S
C1083 O1076 1.262 . S
C1083 O1084 1.232 . S
O1084 C1083 1.232 . S
C1085 O1077 1.260 . S
C1085 O1078 1.257 1_655 S
Zn1086 O1089 2.031 . S
Zn1086 O1091 2.049 . S
Zn1086 O1096 2.067 . S
Zn1087 O1088 1.962 . S
Zn1087 O1090 1.986 . S
Zn1087 O1092 1.996 . S
Zn1087 O1095 1.943 . S
O1088 Zn1087 1.962 . S
O1088 C1093 1.254 . S
O1089 Zn1086 2.031 . S
O1089 C1093 1.269 . S
O1090 Zn1087 1.986 . S
O1090 C1097 1.262 . S
O1091 Zn1086 2.049 . S
O1091 C1099 1.260 . S
O1092 Zn1087 1.996 . S
O1092 C1099 1.257 . S
C1093 O1088 1.254 . S
C1093 O1089 1.269 . S
C1094 O1095 1.249 . S
C1094 O1096 1.270 . S
O1095 Zn1087 1.943 . S
O1095 C1094 1.249 . S
O1096 Zn1086 2.067 . S
O1096 C1094 1.270 . S
C1097 O1090 1.262 . S
C1097 O1098 1.232 . S
O1098 C1097 1.232 . S
C1099 O1091 1.260 . S
C1099 O1092 1.257 . S
Zn1100 O1103 2.031 . S
Zn1100 O1105 2.049 . S
Zn1100 O1110 2.067 . S
Zn1101 O1102 1.962 . S
Zn1101 O1104 1.986 . S
Zn1101 O1106 1.996 1_455 S
Zn1101 O1109 1.943 . S
O1102 Zn1101 1.962 . S
O1102 C1107 1.254 . S
O1103 Zn1100 2.031 . S
O1103 C1107 1.269 1_655 S
O1104 Zn1101 1.986 . S
O1104 C1111 1.262 . S
O1105 Zn1100 2.049 . S
O1105 C1113 1.260 . S
O1106 Zn1101 1.996 1_655 S
O1106 C1113 1.257 . S
C1107 O1102 1.254 . S
C1107 O1103 1.269 1_455 S
C1108 O1109 1.249 1_655 S
C1108 O1110 1.270 . S
O1109 Zn1101 1.943 . S
O1109 C1108 1.249 1_455 S
O1110 Zn1100 2.067 . S
O1110 C1108 1.270 . S
C1111 O1104 1.262 . S
C1111 O1112 1.232 . S
O1112 C1111 1.232 . S
C1113 O1105 1.260 . S
C1113 O1106 1.257 . S
Zn1114 O1117 2.031 . S
Zn1114 O1119 2.049 . S
Zn1114 O1124 2.067 . S
Zn1115 O1116 1.962 . S
Zn1115 O1118 1.986 . S
Zn1115 O1120 1.996 . S
Zn1115 O1123 1.943 . S
O1116 Zn1115 1.962 . S
O1116 C1121 1.254 . S
O1117 Zn1114 2.031 . S
O1117 C1121 1.269 . S
O1118 Zn1115 1.986 . S
O1118 C1125 1.262 . S
O1119 Zn1114 2.049 . S
O1119 C1127 1.260 . S
O1120 Zn1115 1.996 . S
O1120 C1127 1.257 . S
C1121 O1116 1.254 . S
C1121 O1117 1.269 . S
C1122 O1123 1.249 . S
C1122 O1124 1.270 . S
O1123 Zn1115 1.943 . S
O1123 C1122 1.249 . S
O1124 Zn1114 2.067 . S
O1124 C1122 1.270 . S
C1125 O1118 1.262 . S
C1125 O1126 1.232 . S
O1126 C1125 1.232 . S
C1127 O1119 1.260 . S
C1127 O1120 1.257 . S
H1128 C1134 0.930 . S
H1129 C1137 0.930 . S
H1130 C1138 0.930 . S
H1131 C1139 0.930 . S
H1132 C1142 0.930 . S
H1133 C1143 0.930 . S
C1134 H1128 0.930 . S
C1134 C1135 1.355 . S
C1134 C1136 1.415 . S
C1135 C1134 1.355 . S
C1135 C1137 1.419 . S
C1136 C1134 1.415 . S
C1136 C1141 1.425 . S
C1136 C1143 1.409 . S
C1137 H1129 0.930 . S
C1137 C1135 1.419 . S
C1137 C1138 1.362 . S
C1138 H1130 0.930 . S
C1138 C1137 1.362 . S
C1138 C1141 1.409 . S
C1139 H1131 0.930 . S
C1139 C1140 1.355 . S
C1139 C1141 1.415 . S
C1140 C1139 1.355 . S
C1140 C1142 1.419 . S
C1141 C1136 1.425 . S
C1141 C1138 1.409 . S
C1141 C1139 1.415 . S
C1142 H1132 0.930 . S
C1142 C1140 1.419 . S
C1142 C1143 1.362 . S
C1143 H1133 0.930 . S
C1143 C1136 1.409 . S
C1143 C1142 1.362 . S
H1144 C1150 0.930 . S
H1145 C1153 0.980 . S
H1146 C1154 0.930 . S
H1147 C1155 0.930 . S
H1148 C1158 0.930 . S
H1149 C1159 0.930 . S
C1150 H1144 0.930 . S
C1150 C1151 1.355 . S
C1150 C1152 1.415 . S
C1151 C1150 1.355 . S
C1151 C1153 1.419 . S
C1152 C1150 1.415 . S
C1152 C1157 1.425 . S
C1152 C1159 1.409 . S
C1153 H1145 0.980 . S
C1153 C1151 1.419 . S
C1153 C1154 1.362 . S
C1154 H1146 0.930 . S
C1154 C1153 1.362 . S
C1154 C1157 1.409 . S
C1155 H1147 0.930 . S
C1155 C1156 1.355 . S
C1155 C1157 1.415 . S
C1156 C1155 1.355 . S
C1156 C1158 1.419 . S
C1157 C1152 1.425 . S
C1157 C1154 1.409 . S
C1157 C1155 1.415 . S
C1158 H1148 0.930 . S
C1158 C1156 1.419 . S
C1158 C1159 1.362 . S
C1159 H1149 0.930 . S
C1159 C1152 1.409 . S
C1159 C1158 1.362 . S
H1160 C1166 0.930 . S
H1161 C1169 0.930 . S
H1162 C1170 0.930 . S
H1163 C1171 0.930 . S
H1164 C1174 0.930 . S
H1165 C1175 0.930 . S
C1166 H1160 0.930 . S
C1166 C1167 1.355 . S
C1166 C1168 1.415 . S
C1167 C1166 1.355 . S
C1167 C1169 1.419 . S
C1168 C1166 1.415 . S
C1168 C1173 1.425 . S
C1168 C1175 1.409 . S
C1169 H1161 0.930 . S
C1169 C1167 1.419 . S
C1169 C1170 1.362 . S
C1170 H1162 0.930 . S
C1170 C1169 1.362 . S
C1170 C1173 1.409 . S
C1171 H1163 0.930 . S
C1171 C1172 1.355 . S
C1171 C1173 1.415 . S
C1172 C1171 1.355 . S
C1172 C1174 1.419 . S
C1173 C1168 1.425 . S
C1173 C1170 1.409 . S
C1173 C1171 1.415 . S
C1174 H1164 0.930 . S
C1174 C1172 1.419 . S
C1174 C1175 1.362 . S
C1175 H1165 0.930 . S
C1175 C1168 1.409 . S
C1175 C1174 1.362 . S
H1176 C1182 0.930 . S
H1177 C1185 0.930 . S
H1178 C1186 0.930 . S
H1179 C1187 0.930 . S
H1180 C1190 0.931 1_545 S
H1181 C1191 0.930 1_545 S
C1182 H1176 0.930 . S
C1182 C1183 1.355 . S
C1182 C1184 1.415 . S
C1183 C1182 1.355 . S
C1183 C1185 1.419 . S
C1184 C1182 1.415 . S
C1184 C1189 1.425 . S
C1184 C1191 1.409 . S
C1185 H1177 0.930 . S
C1185 C1183 1.419 . S
C1185 C1186 1.362 . S
C1186 H1178 0.930 . S
C1186 C1185 1.362 . S
C1186 C1189 1.409 . S
C1187 H1179 0.930 . S
C1187 C1188 1.355 . S
C1187 C1189 1.415 . S
C1188 C1187 1.355 . S
C1188 C1190 1.418 . S
C1189 C1184 1.425 . S
C1189 C1186 1.409 . S
C1189 C1187 1.415 . S
C1190 H1180 0.931 1_565 S
C1190 C1188 1.418 . S
C1190 C1191 1.362 . S
C1191 H1181 0.930 1_565 S
C1191 C1184 1.409 . S
C1191 C1190 1.362 . S
H1192 C1198 0.930 . S
H1193 C1201 0.930 . S
H1194 C1202 0.930 . S
H1195 C1203 0.930 . S
H1196 C1206 0.930 . S
H1197 C1207 0.930 . S
C1198 H1192 0.930 . S
C1198 C1199 1.355 . S
C1198 C1200 1.415 . S
C1199 C1198 1.355 . S
C1199 C1201 1.419 . S
C1200 C1198 1.415 . S
C1200 C1205 1.425 . S
C1200 C1207 1.409 . S
C1201 H1193 0.930 . S
C1201 C1199 1.419 . S
C1201 C1202 1.362 . S
C1202 H1194 0.930 . S
C1202 C1201 1.362 . S
C1202 C1205 1.409 . S
C1203 H1195 0.930 . S
C1203 C1204 1.355 . S
C1203 C1205 1.415 . S
C1204 C1203 1.355 . S
C1204 C1206 1.419 . S
C1205 C1200 1.425 . S
C1205 C1202 1.409 . S
C1205 C1203 1.415 . S
C1206 H1196 0.930 . S
C1206 C1204 1.419 . S
C1206 C1207 1.362 . S
C1207 H1197 0.930 . S
C1207 C1200 1.409 . S
C1207 C1206 1.362 . S
H1208 C1214 0.930 . S
H1209 C1217 0.930 . S
H1210 C1218 0.930 . S
H1211 C1219 0.930 . S
H1212 C1222 0.930 . S
H1213 C1223 0.930 . S
C1214 H1208 0.930 . S
C1214 C1215 1.355 . S
C1214 C1216 1.415 . S
C1215 C1214 1.355 . S
C1215 C1217 1.419 . S
C1216 C1214 1.415 . S
C1216 C1221 1.425 . S
C1216 C1223 1.409 . S
C1217 H1209 0.930 . S
C1217 C1215 1.419 . S
C1217 C1218 1.362 . S
C1218 H1210 0.930 . S
C1218 C1217 1.362 . S
C1218 C1221 1.409 . S
C1219 H1211 0.930 . S
C1219 C1220 1.355 . S
C1219 C1221 1.415 . S
C1220 C1219 1.355 . S
C1220 C1222 1.419 . S
C1221 C1216 1.425 . S
C1221 C1218 1.409 . S
C1221 C1219 1.415 . S
C1222 H1212 0.930 . S
C1222 C1220 1.419 . S
C1222 C1223 1.362 . S
C1223 H1213 0.930 . S
C1223 C1216 1.409 . S
C1223 C1222 1.362 . S
H1224 C1230 0.930 . S
H1225 C1233 0.930 . S
H1226 C1234 0.930 . S
H1227 C1235 0.930 . S
H1228 C1238 0.930 . S
H1229 C1239 0.930 . S
C1230 H1224 0.930 . S
C1230 C1231 1.355 . S
C1230 C1232 1.415 . S
C1231 C1230 1.355 . S
C1231 C1233 1.419 . S
C1232 C1230 1.415 . S
C1232 C1237 1.425 . S
C1232 C1239 1.409 . S
C1233 H1225 0.930 . S
C1233 C1231 1.419 . S
C1233 C1234 1.362 . S
C1234 H1226 0.930 . S
C1234 C1233 1.362 . S
C1234 C1237 1.409 . S
C1235 H1227 0.930 . S
C1235 C1236 1.355 . S
C1235 C1237 1.415 . S
C1236 C1235 1.355 . S
C1236 C1238 1.419 . S
C1237 C1232 1.425 . S
C1237 C1234 1.409 . S
C1237 C1235 1.415 . S
C1238 H1228 0.930 . S
C1238 C1236 1.419 . S
C1238 C1239 1.362 . S
C1239 H1229 0.930 . S
C1239 C1232 1.409 . S
C1239 C1238 1.362 . S
H1240 C1246 0.930 . S
H1241 C1249 0.930 . S
H1242 C1250 0.930 . S
H1243 C1251 0.930 . S
H1244 C1254 0.930 . S
H1245 C1255 0.930 . S
C1246 H1240 0.930 . S
C1246 C1247 1.355 . S
C1246 C1248 1.415 . S
C1247 C1246 1.355 . S
C1247 C1249 1.419 . S
C1248 C1246 1.415 . S
C1248 C1253 1.425 . S
C1248 C1255 1.409 . S
C1249 H1241 0.930 . S
C1249 C1247 1.419 . S
C1249 C1250 1.362 . S
C1250 H1242 0.930 . S
C1250 C1249 1.362 . S
C1250 C1253 1.409 . S
C1251 H1243 0.930 . S
C1251 C1252 1.355 . S
C1251 C1253 1.415 . S
C1252 C1251 1.355 . S
C1252 C1254 1.419 . S
C1253 C1248 1.425 . S
C1253 C1250 1.409 . S
C1253 C1251 1.415 . S
C1254 H1244 0.930 . S
C1254 C1252 1.419 . S
C1254 C1255 1.362 . S
C1255 H1245 0.930 . S
C1255 C1248 1.409 . S
C1255 C1254 1.362 . S
H1256 C1262 0.930 . S
H1257 C1265 0.930 . S
H1258 C1266 0.930 . S
H1259 C1267 0.930 . S
H1260 C1270 0.930 . S
H1261 C1271 0.930 . S
C1262 H1256 0.930 . S
C1262 C1263 1.355 . S
C1262 C1264 1.415 . S
C1263 C1262 1.355 . S
C1263 C1265 1.419 . S
C1264 C1262 1.415 . S
C1264 C1269 1.425 . S
C1264 C1271 1.409 . S
C1265 H1257 0.930 . S
C1265 C1263 1.419 . S
C1265 C1266 1.362 . S
C1266 H1258 0.930 . S
C1266 C1265 1.362 . S
C1266 C1269 1.409 . S
C1267 H1259 0.930 . S
C1267 C1268 1.355 . S
C1267 C1269 1.415 . S
C1268 C1267 1.355 . S
C1268 C1270 1.419 . S
C1269 C1264 1.425 . S
C1269 C1266 1.409 . S
C1269 C1267 1.415 . S
C1270 H1260 0.930 . S
C1270 C1268 1.419 . S
C1270 C1271 1.362 . S
C1271 H1261 0.930 . S
C1271 C1264 1.409 . S
C1271 C1270 1.362 . S
H1272 C1278 0.930 . S
H1273 C1281 0.930 . S
H1274 C1282 0.930 . S
H1275 C1283 0.930 . S
H1276 C1286 0.930 . S
H1277 C1287 0.930 . S
C1278 H1272 0.930 . S
C1278 C1279 1.355 . S
C1278 C1280 1.415 . S
C1279 C1278 1.355 . S
C1279 C1281 1.419 . S
C1280 C1278 1.415 . S
C1280 C1285 1.425 . S
C1280 C1287 1.409 . S
C1281 H1273 0.930 . S
C1281 C1279 1.419 . S
C1281 C1282 1.362 . S
C1282 H1274 0.930 . S
C1282 C1281 1.362 . S
C1282 C1285 1.409 . S
C1283 H1275 0.930 . S
C1283 C1284 1.355 . S
C1283 C1285 1.415 . S
C1284 C1283 1.355 . S
C1284 C1286 1.419 . S
C1285 C1280 1.425 . S
C1285 C1282 1.409 . S
C1285 C1283 1.415 . S
C1286 H1276 0.930 . S
C1286 C1284 1.419 . S
C1286 C1287 1.362 . S
C1287 H1277 0.930 . S
C1287 C1280 1.409 . S
C1287 C1286 1.362 . S
H1288 C1294 0.930 . S
H1289 C1297 0.930 . S
H1290 C1298 0.930 . S
H1291 C1299 0.930 . S
H1292 C1302 0.930 . S
H1293 C1303 0.930 . S
C1294 H1288 0.930 . S
C1294 C1295 1.355 . S
C1294 C1296 1.415 . S
C1295 C1294 1.355 . S
C1295 C1297 1.419 . S
C1296 C1294 1.415 . S
C1296 C1301 1.425 . S
C1296 C1303 1.409 . S
C1297 H1289 0.930 . S
C1297 C1295 1.419 . S
C1297 C1298 1.362 . S
C1298 H1290 0.930 . S
C1298 C1297 1.362 . S
C1298 C1301 1.409 . S
C1299 H1291 0.930 . S
C1299 C1300 1.355 . S
C1299 C1301 1.415 . S
C1300 C1299 1.355 . S
C1300 C1302 1.419 . S
C1301 C1296 1.425 . S
C1301 C1298 1.409 . S
C1301 C1299 1.415 . S
C1302 H1292 0.930 . S
C1302 C1300 1.419 . S
C1302 C1303 1.362 . S
C1303 H1293 0.930 . S
C1303 C1296 1.409 . S
C1303 C1302 1.362 . S
H1304 C1310 0.930 . S
H1305 C1313 0.930 . S
H1306 C1314 0.930 . S
H1307 C1315 0.930 . S
H1308 C1318 0.930 . S
H1309 C1319 0.930 . S
C1310 H1304 0.930 . S
C1310 C1311 1.355 . S
C1310 C1312 1.415 . S
C1311 C1310 1.355 . S
C1311 C1313 1.419 . S
C1312 C1310 1.415 . S
C1312 C1317 1.425 . S
C1312 C1319 1.409 . S
C1313 H1305 0.930 . S
C1313 C1311 1.419 . S
C1313 C1314 1.362 . S
C1314 H1306 0.930 . S
C1314 C1313 1.362 . S
C1314 C1317 1.409 . S
C1315 H1307 0.930 . S
C1315 C1316 1.355 . S
C1315 C1317 1.415 . S
C1316 C1315 1.355 . S
C1316 C1318 1.419 . S
C1317 C1312 1.425 . S
C1317 C1314 1.409 . S
C1317 C1315 1.415 . S
C1318 H1308 0.930 . S
C1318 C1316 1.419 . S
C1318 C1319 1.362 . S
C1319 H1309 0.930 . S
C1319 C1312 1.409 . S
C1319 C1318 1.362 . S
H1320 C1326 0.930 . S
H1321 C1329 0.930 . S
H1322 C1330 0.930 . S
H1323 C1331 0.930 . S
H1324 C1334 0.930 . S
H1325 C1335 0.930 . S
C1326 H1320 0.930 . S
C1326 C1327 1.355 . S
C1326 C1328 1.415 . S
C1327 C1326 1.355 . S
C1327 C1329 1.419 . S
C1328 C1326 1.415 . S
C1328 C1333 1.425 . S
C1328 C1335 1.409 . S
C1329 H1321 0.930 . S
C1329 C1327 1.419 . S
C1329 C1330 1.362 . S
C1330 H1322 0.930 . S
C1330 C1329 1.362 . S
C1330 C1333 1.409 . S
C1331 H1323 0.930 . S
C1331 C1332 1.355 . S
C1331 C1333 1.415 . S
C1332 C1331 1.355 . S
C1332 C1334 1.419 . S
C1333 C1328 1.425 . S
C1333 C1330 1.409 . S
C1333 C1331 1.415 . S
C1334 H1324 0.930 . S
C1334 C1332 1.419 . S
C1334 C1335 1.362 . S
C1335 H1325 0.930 . S
C1335 C1328 1.409 . S
C1335 C1334 1.362 . S
H1336 C1342 0.930 . S
H1337 C1345 0.930 . S
H1338 C1346 0.930 1_655 S
H1339 C1347 0.930 1_655 S
H1340 C1350 0.930 . S
H1341 C1351 0.930 . S
C1342 H1336 0.930 . S
C1342 C1343 1.355 . S
C1342 C1344 1.415 . S
C1343 C1342 1.355 . S
C1343 C1345 1.419 . S
C1344 C1342 1.415 . S
C1344 C1349 1.425 . S
C1344 C1351 1.409 . S
C1345 H1337 0.930 . S
C1345 C1343 1.419 . S
C1345 C1346 1.362 . S
C1346 H1338 0.930 1_455 S
C1346 C1345 1.362 . S
C1346 C1349 1.409 . S
C1347 H1339 0.930 1_455 S
C1347 C1348 1.355 . S
C1347 C1349 1.415 . S
C1348 C1347 1.355 . S
C1348 C1350 1.419 . S
C1349 C1344 1.425 . S
C1349 C1346 1.409 . S
C1349 C1347 1.415 . S
C1350 H1340 0.930 . S
C1350 C1348 1.419 . S
C1350 C1351 1.362 . S
C1351 H1341 0.930 . S
C1351 C1344 1.409 . S
C1351 C1350 1.362 . S
H1352 C1358 0.930 . S
H1353 C1361 0.930 . S
H1354 C1362 0.930 . S
H1355 C1363 0.930 . S
H1356 C1366 0.930 . S
H1357 C1367 0.930 . S
C1358 H1352 0.930 . S
C1358 C1359 1.355 . S
C1358 C1360 1.415 . S
C1359 C1358 1.355 . S
C1359 C1361 1.419 . S
C1360 C1358 1.415 . S
C1360 C1365 1.425 . S
C1360 C1367 1.409 . S
C1361 H1353 0.930 . S
C1361 C1359 1.419 . S
C1361 C1362 1.362 . S
C1362 H1354 0.930 . S
C1362 C1361 1.362 . S
C1362 C1365 1.409 . S
C1363 H1355 0.930 . S
C1363 C1364 1.355 . S
C1363 C1365 1.415 . S
C1364 C1363 1.355 . S
C1364 C1366 1.419 . S
C1365 C1360 1.425 . S
C1365 C1362 1.409 . S
C1365 C1363 1.415 . S
C1366 H1356 0.930 . S
C1366 C1364 1.419 . S
C1366 C1367 1.362 . S
C1367 H1357 0.930 . S
C1367 C1360 1.409 . S
C1367 C1366 1.362 . S
H1368 C1374 0.930 . S
H1369 C1377 0.930 . S
H1370 C1378 0.930 1_455 S
H1371 C1379 0.930 1_455 S
H1372 C1382 0.930 . S
H1373 C1383 0.930 . S
C1374 H1368 0.930 . S
C1374 C1375 1.355 . S
C1374 C1376 1.415 . S
C1375 C1374 1.355 . S
C1375 C1377 1.419 . S
C1376 C1374 1.415 . S
C1376 C1381 1.425 . S
C1376 C1383 1.409 . S
C1377 H1369 0.930 . S
C1377 C1375 1.419 . S
C1377 C1378 1.362 . S
C1378 H1370 0.930 1_655 S
C1378 C1377 1.362 . S
C1378 C1381 1.409 . S
C1379 H1371 0.930 1_655 S
C1379 C1380 1.355 . S
C1379 C1381 1.415 . S
C1380 C1379 1.355 . S
C1380 C1382 1.419 . S
C1381 C1376 1.425 . S
C1381 C1378 1.409 . S
C1381 C1379 1.415 . S
C1382 H1372 0.930 . S
C1382 C1380 1.419 . S
C1382 C1383 1.362 . S
C1383 H1373 0.930 . S
C1383 C1376 1.409 . S
C1383 C1382 1.362 . S
H1384 C1390 0.930 . S
H1385 C1393 0.930 . S
H1386 C1394 0.930 . S
H1387 C1395 0.930 . S
H1388 C1398 0.930 . S
H1389 C1399 0.930 . S
C1390 H1384 0.930 . S
C1390 C1391 1.355 . S
C1390 C1392 1.415 . S
C1391 C1390 1.355 . S
C1391 C1393 1.419 . S
C1392 C1390 1.415 . S
C1392 C1397 1.425 . S
C1392 C1399 1.409 . S
C1393 H1385 0.930 . S
C1393 C1391 1.419 . S
C1393 C1394 1.362 . S
C1394 H1386 0.930 . S
C1394 C1393 1.362 . S
C1394 C1397 1.409 . S
C1395 H1387 0.930 . S
C1395 C1396 1.355 . S
C1395 C1397 1.415 . S
C1396 C1395 1.355 . S
C1396 C1398 1.419 . S
C1397 C1392 1.425 . S
C1397 C1394 1.409 . S
C1397 C1395 1.415 . S
C1398 H1388 0.930 . S
C1398 C1396 1.419 . S
C1398 C1399 1.362 . S
C1399 H1389 0.930 . S
C1399 C1392 1.409 . S
C1399 C1398 1.362 . S
H1400 C1406 0.930 . S
H1401 C1409 0.930 . S
H1402 C1410 0.930 . S
H1403 C1411 0.930 . S
H1404 C1414 0.930 . S
H1405 C1415 0.930 . S
C1406 H1400 0.930 . S
C1406 C1407 1.355 . S
C1406 C1408 1.415 . S
C1407 C1406 1.355 . S
C1407 C1409 1.419 . S
C1408 C1406 1.415 . S
C1408 C1413 1.425 . S
C1408 C1415 1.409 . S
C1409 H1401 0.930 . S
C1409 C1407 1.419 . S
C1409 C1410 1.362 . S
C1410 H1402 0.930 . S
C1410 C1409 1.362 . S
C1410 C1413 1.409 . S
C1411 H1403 0.930 . S
C1411 C1412 1.355 . S
C1411 C1413 1.415 . S
C1412 C1411 1.355 . S
C1412 C1414 1.419 . S
C1413 C1408 1.425 . S
C1413 C1410 1.409 . S
C1413 C1411 1.415 . S
C1414 H1404 0.930 . S
C1414 C1412 1.419 . S
C1414 C1415 1.362 . S
C1415 H1405 0.930 . S
C1415 C1408 1.409 . S
C1415 C1414 1.362 . S
H1416 C1422 0.930 . S
H1417 C1425 0.930 1_545 S
H1418 C1426 0.930 . S
H1419 C1427 0.930 . S
H1420 C1430 0.930 . S
H1421 C1431 0.930 . S
C1422 H1416 0.930 . S
C1422 C1423 1.355 . S
C1422 C1424 1.415 . S
C1423 C1422 1.355 . S
C1423 C1425 1.419 . S
C1424 C1422 1.415 . S
C1424 C1429 1.425 . S
C1424 C1431 1.409 . S
C1425 H1417 0.930 1_565 S
C1425 C1423 1.419 . S
C1425 C1426 1.362 . S
C1426 H1418 0.930 . S
C1426 C1425 1.362 . S
C1426 C1429 1.409 . S
C1427 H1419 0.930 . S
C1427 C1428 1.355 . S
C1427 C1429 1.415 . S
C1428 C1427 1.355 . S
C1428 C1430 1.419 . S
C1429 C1424 1.425 . S
C1429 C1426 1.409 . S
C1429 C1427 1.415 . S
C1430 H1420 0.930 . S
C1430 C1428 1.419 . S
C1430 C1431 1.362 . S
C1431 H1421 0.930 . S
C1431 C1424 1.409 . S
C1431 C1430 1.362 . S
H1432 C1438 0.930 . S
H1433 C1441 0.930 . S
H1434 C1442 0.930 . S
H1435 C1443 0.930 . S
H1436 C1446 0.930 . S
H1437 C1447 0.930 . S
C1438 H1432 0.930 . S
C1438 C1439 1.355 . S
C1438 C1440 1.415 . S
C1439 C1438 1.355 . S
C1439 C1441 1.419 . S
C1440 C1438 1.415 . S
C1440 C1445 1.425 . S
C1440 C1447 1.409 . S
C1441 H1433 0.930 . S
C1441 C1439 1.419 . S
C1441 C1442 1.362 . S
C1442 H1434 0.930 . S
C1442 C1441 1.362 . S
C1442 C1445 1.409 . S
C1443 H1435 0.930 . S
C1443 C1444 1.355 . S
C1443 C1445 1.415 . S
C1444 C1443 1.355 . S
C1444 C1446 1.419 . S
C1445 C1440 1.425 . S
C1445 C1442 1.409 . S
C1445 C1443 1.415 . S
C1446 H1436 0.930 . S
C1446 C1444 1.419 . S
C1446 C1447 1.362 . S
C1447 H1437 0.930 . S
C1447 C1440 1.409 . S
C1447 C1446 1.362 . S
H1448 C1454 0.930 . S
H1449 C1457 0.930 . S
H1450 C1458 0.930 . S
H1451 C1459 0.930 . S
H1452 C1462 0.930 . S
H1453 C1463 0.930 . S
C1454 H1448 0.930 . S
C1454 C1455 1.355 . S
C1454 C1456 1.415 . S
C1455 C1454 1.355 . S
C1455 C1457 1.419 . S
C1456 C1454 1.415 . S
C1456 C1461 1.425 . S
C1456 C1463 1.409 . S
C1457 H1449 0.930 . S
C1457 C1455 1.419 . S
C1457 C1458 1.362 . S
C1458 H1450 0.930 . S
C1458 C1457 1.362 . S
C1458 C1461 1.409 . S
C1459 H1451 0.930 . S
C1459 C1460 1.355 . S
C1459 C1461 1.415 . S
C1460 C1459 1.355 . S
C1460 C1462 1.419 . S
C1461 C1456 1.425 . S
C1461 C1458 1.409 . S
C1461 C1459 1.415 . S
C1462 H1452 0.930 . S
C1462 C1460 1.419 . S
C1462 C1463 1.362 . S
C1463 H1453 0.930 . S
C1463 C1456 1.409 . S
C1463 C1462 1.362 . S
H1464 C1470 0.930 . S
H1465 C1473 0.930 . S
H1466 C1474 0.930 . S
H1467 C1475 0.930 . S
H1468 C1478 0.930 . S
H1469 C1479 0.930 . S
C1470 H1464 0.930 . S
C1470 C1471 1.355 . S
C1470 C1472 1.415 . S
C1471 C1470 1.355 . S
C1471 C1473 1.419 . S
C1472 C1470 1.415 . S
C1472 C1477 1.425 . S
C1472 C1479 1.409 . S
C1473 H1465 0.930 . S
C1473 C1471 1.419 . S
C1473 C1474 1.362 . S
C1474 H1466 0.930 . S
C1474 C1473 1.362 . S
C1474 C1477 1.409 . S
C1475 H1467 0.930 . S
C1475 C1476 1.355 . S
C1475 C1477 1.415 . S
C1476 C1475 1.355 . S
C1476 C1478 1.419 . S
C1477 C1472 1.425 . S
C1477 C1474 1.409 . S
C1477 C1475 1.415 . S
C1478 H1468 0.930 . S
C1478 C1476 1.419 . S
C1478 C1479 1.362 . S
C1479 H1469 0.930 . S
C1479 C1472 1.409 . S
C1479 C1478 1.362 . S
H1480 C1486 0.930 . S
H1481 C1489 0.930 . S
H1482 C1490 0.930 . S
H1483 C1491 0.930 . S
H1484 C1494 0.930 . S
H1485 C1495 0.930 . S
C1486 H1480 0.930 . S
C1486 C1487 1.355 . S
C1486 C1488 1.415 . S
C1487 C1486 1.355 . S
C1487 C1489 1.419 . S
C1488 C1486 1.415 . S
C1488 C1493 1.425 . S
C1488 C1495 1.409 . S
C1489 H1481 0.930 . S
C1489 C1487 1.419 . S
C1489 C1490 1.362 . S
C1490 H1482 0.930 . S
C1490 C1489 1.362 . S
C1490 C1493 1.409 . S
C1491 H1483 0.930 . S
C1491 C1492 1.355 . S
C1491 C1493 1.415 . S
C1492 C1491 1.355 . S
C1492 C1494 1.419 . S
C1493 C1488 1.425 . S
C1493 C1490 1.409 . S
C1493 C1491 1.415 . S
C1494 H1484 0.930 . S
C1494 C1492 1.419 . S
C1494 C1495 1.362 . S
C1495 H1485 0.930 . S
C1495 C1488 1.409 . S
C1495 C1494 1.362 . S
H1496 C1502 0.930 . S
H1497 C1505 0.930 . S
H1498 C1506 0.930 . S
H1499 C1507 0.930 . S
H1500 C1510 0.930 . S
H1501 C1511 0.930 . S
C1502 H1496 0.930 . S
C1502 C1503 1.355 . S
C1502 C1504 1.415 . S
C1503 C1502 1.355 . S
C1503 C1505 1.419 . S
C1504 C1502 1.415 . S
C1504 C1509 1.425 . S
C1504 C1511 1.409 . S
C1505 H1497 0.930 . S
C1505 C1503 1.419 . S
C1505 C1506 1.362 . S
C1506 H1498 0.930 . S
C1506 C1505 1.362 . S
C1506 C1509 1.409 . S
C1507 H1499 0.930 . S
C1507 C1508 1.355 . S
C1507 C1509 1.415 . S
C1508 C1507 1.355 . S
C1508 C1510 1.419 . S
C1509 C1504 1.425 . S
C1509 C1506 1.409 . S
C1509 C1507 1.415 . S
C1510 H1500 0.930 . S
C1510 C1508 1.419 . S
C1510 C1511 1.362 . S
C1511 H1501 0.930 . S
C1511 C1504 1.409 . S
C1511 C1510 1.362 . S
H1512 C1518 0.930 . S
H1513 C1521 0.930 . S
H1514 C1522 0.930 . S
H1515 C1523 0.930 . S
H1516 C1526 0.930 . S
H1517 C1527 0.930 . S
C1518 H1512 0.930 . S
C1518 C1519 1.355 . S
C1518 C1520 1.415 . S
C1519 C1518 1.355 . S
C1519 C1521 1.419 . S
C1520 C1518 1.415 . S
C1520 C1525 1.425 . S
C1520 C1527 1.409 . S
C1521 H1513 0.930 . S
C1521 C1519 1.419 . S
C1521 C1522 1.362 . S
C1522 H1514 0.930 . S
C1522 C1521 1.362 . S
C1522 C1525 1.409 . S
C1523 H1515 0.930 . S
C1523 C1524 1.355 . S
C1523 C1525 1.415 . S
C1524 C1523 1.355 . S
C1524 C1526 1.419 . S
C1525 C1520 1.425 . S
C1525 C1522 1.409 . S
C1525 C1523 1.415 . S
C1526 H1516 0.930 . S
C1526 C1524 1.419 . S
C1526 C1527 1.362 . S
C1527 H1517 0.930 . S
C1527 C1520 1.409 . S
C1527 C1526 1.362 . S
H1528 C1534 0.930 . S
H1529 C1537 0.930 . S
H1530 C1538 0.930 . S
H1531 C1539 0.930 . S
H1532 C1542 0.930 1_565 S
H1533 C1543 0.930 1_565 S
C1534 H1528 0.930 . S
C1534 C1535 1.355 . S
C1534 C1536 1.415 . S
C1535 C1534 1.355 . S
C1535 C1537 1.419 . S
C1536 C1534 1.415 . S
C1536 C1541 1.425 . S
C1536 C1543 1.409 . S
C1537 H1529 0.930 . S
C1537 C1535 1.419 . S
C1537 C1538 1.362 . S
C1538 H1530 0.930 . S
C1538 C1537 1.362 . S
C1538 C1541 1.409 . S
C1539 H1531 0.930 . S
C1539 C1540 1.355 . S
C1539 C1541 1.415 . S
C1540 C1539 1.355 . S
C1540 C1542 1.419 . S
C1541 C1536 1.425 . S
C1541 C1538 1.409 . S
C1541 C1539 1.415 . S
C1542 H1532 0.930 1_545 S
C1542 C1540 1.419 . S
C1542 C1543 1.362 . S
C1543 H1533 0.930 1_545 S
C1543 C1536 1.409 . S
C1543 C1542 1.362 . S
H1544 C1550 0.930 . S
H1545 C1553 0.930 . S
H1546 C1554 0.930 . S
H1547 C1555 0.930 . S
H1548 C1558 0.930 . S
H1549 C1559 0.930 . S
C1550 H1544 0.930 . S
C1550 C1551 1.355 . S
C1550 C1552 1.415 . S
C1551 C1550 1.355 . S
C1551 C1553 1.419 . S
C1552 C1550 1.415 . S
C1552 C1557 1.425 . S
C1552 C1559 1.409 . S
C1553 H1545 0.930 . S
C1553 C1551 1.419 . S
C1553 C1554 1.362 . S
C1554 H1546 0.930 . S
C1554 C1553 1.362 . S
C1554 C1557 1.409 . S
C1555 H1547 0.930 . S
C1555 C1556 1.355 . S
C1555 C1557 1.415 . S
C1556 C1555 1.355 . S
C1556 C1558 1.419 . S
C1557 C1552 1.425 . S
C1557 C1554 1.409 . S
C1557 C1555 1.415 . S
C1558 H1548 0.930 . S
C1558 C1556 1.419 . S
C1558 C1559 1.362 . S
C1559 H1549 0.930 . S
C1559 C1552 1.409 . S
C1559 C1558 1.362 . S
H1560 C1566 0.930 . S
H1561 C1569 0.930 . S
H1562 C1570 0.930 . S
H1563 C1571 0.930 . S
H1564 C1574 0.930 . S
H1565 C1575 0.930 . S
C1566 H1560 0.930 . S
C1566 C1567 1.355 . S
C1566 C1568 1.415 . S
C1567 C1566 1.355 . S
C1567 C1569 1.419 . S
C1568 C1566 1.415 . S
C1568 C1573 1.425 . S
C1568 C1575 1.409 . S
C1569 H1561 0.930 . S
C1569 C1567 1.419 . S
C1569 C1570 1.362 . S
C1570 H1562 0.930 . S
C1570 C1569 1.362 . S
C1570 C1573 1.409 . S
C1571 H1563 0.930 . S
C1571 C1572 1.355 . S
C1571 C1573 1.415 . S
C1572 C1571 1.355 . S
C1572 C1574 1.419 . S
C1573 C1568 1.425 . S
C1573 C1570 1.409 . S
C1573 C1571 1.415 . S
C1574 H1564 0.930 . S
C1574 C1572 1.419 . S
C1574 C1575 1.362 . S
C1575 H1565 0.930 . S
C1575 C1568 1.409 . S
C1575 C1574 1.362 . S
H1576 C1582 0.930 . S
H1577 C1585 0.930 . S
H1578 C1586 0.930 . S
H1579 C1587 0.930 . S
H1580 C1590 0.930 . S
H1581 C1591 0.930 . S
C1582 H1576 0.930 . S
C1582 C1583 1.355 . S
C1582 C1584 1.415 . S
C1583 C1582 1.355 . S
C1583 C1585 1.419 . S
C1584 C1582 1.415 . S
C1584 C1589 1.425 . S
C1584 C1591 1.409 . S
C1585 H1577 0.930 . S
C1585 C1583 1.419 . S
C1585 C1586 1.362 . S
C1586 H1578 0.930 . S
C1586 C1585 1.362 . S
C1586 C1589 1.409 . S
C1587 H1579 0.930 . S
C1587 C1588 1.355 . S
C1587 C1589 1.415 . S
C1588 C1587 1.355 . S
C1588 C1590 1.419 . S
C1589 C1584 1.425 . S
C1589 C1586 1.409 . S
C1589 C1587 1.415 . S
C1590 H1580 0.930 . S
C1590 C1588 1.419 . S
C1590 C1591 1.362 . S
C1591 H1581 0.930 . S
C1591 C1584 1.409 . S
C1591 C1590 1.362 . S
H1592 C1598 0.930 . S
H1593 C1601 0.930 . S
H1594 C1602 0.930 . S
H1595 C1603 0.930 . S
H1596 C1606 0.930 . S
H1597 C1607 0.930 . S
C1598 H1592 0.930 . S
C1598 C1599 1.355 . S
C1598 C1600 1.415 . S
C1599 C1598 1.355 . S
C1599 C1601 1.419 . S
C1600 C1598 1.415 . S
C1600 C1605 1.425 . S
C1600 C1607 1.409 . S
C1601 H1593 0.930 . S
C1601 C1599 1.419 . S
C1601 C1602 1.362 . S
C1602 H1594 0.930 . S
C1602 C1601 1.362 . S
C1602 C1605 1.409 . S
C1603 H1595 0.930 . S
C1603 C1604 1.355 . S
C1603 C1605 1.415 . S
C1604 C1603 1.355 . S
C1604 C1606 1.419 . S
C1605 C1600 1.425 . S
C1605 C1602 1.409 . S
C1605 C1603 1.415 . S
C1606 H1596 0.930 . S
C1606 C1604 1.419 . S
C1606 C1607 1.362 . S
C1607 H1597 0.930 . S
C1607 C1600 1.409 . S
C1607 C1606 1.362 . S
H1608 C1614 0.930 . S
H1609 C1617 0.930 . S
H1610 C1618 0.930 . S
H1611 C1619 0.930 . S
H1612 C1622 0.930 . S
H1613 C1623 0.930 . S
C1614 H1608 0.930 . S
C1614 C1615 1.355 . S
C1614 C1616 1.415 . S
C1615 C1614 1.355 . S
C1615 C1617 1.419 . S
C1616 C1614 1.415 . S
C1616 C1621 1.425 . S
C1616 C1623 1.409 . S
C1617 H1609 0.930 . S
C1617 C1615 1.419 . S
C1617 C1618 1.362 . S
C1618 H1610 0.930 . S
C1618 C1617 1.362 . S
C1618 C1621 1.409 . S
C1619 H1611 0.930 . S
C1619 C1620 1.355 . S
C1619 C1621 1.415 . S
C1620 C1619 1.355 . S
C1620 C1622 1.419 . S
C1621 C1616 1.425 . S
C1621 C1618 1.409 . S
C1621 C1619 1.415 . S
C1622 H1612 0.930 . S
C1622 C1620 1.419 . S
C1622 C1623 1.362 . S
C1623 H1613 0.930 . S
C1623 C1616 1.409 . S
C1623 C1622 1.362 . S
H1624 C1630 0.930 . S
H1625 C1633 0.930 . S
H1626 C1634 0.930 . S
H1627 C1635 0.930 . S
H1628 C1638 0.930 . S
H1629 C1639 0.930 . S
C1630 H1624 0.930 . S
C1630 C1631 1.355 . S
C1630 C1632 1.415 . S
C1631 C1630 1.355 . S
C1631 C1633 1.419 . S
C1632 C1630 1.415 . S
C1632 C1637 1.425 . S
C1632 C1639 1.409 . S
C1633 H1625 0.930 . S
C1633 C1631 1.419 . S
C1633 C1634 1.362 . S
C1634 H1626 0.930 . S
C1634 C1633 1.362 . S
C1634 C1637 1.409 . S
C1635 H1627 0.930 . S
C1635 C1636 1.355 . S
C1635 C1637 1.415 . S
C1636 C1635 1.355 . S
C1636 C1638 1.419 . S
C1637 C1632 1.425 . S
C1637 C1634 1.409 . S
C1637 C1635 1.415 . S
C1638 H1628 0.930 . S
C1638 C1636 1.419 . S
C1638 C1639 1.362 . S
C1639 H1629 0.930 . S
C1639 C1632 1.409 . S
C1639 C1638 1.362 . S
H1640 C1646 0.930 . S
H1641 C1649 0.930 . S
H1642 C1650 0.930 . S
H1643 C1651 0.930 . S
H1644 C1654 0.930 . S
H1645 C1655 0.930 . S
C1646 H1640 0.930 . S
C1646 C1647 1.355 . S
C1646 C1648 1.415 . S
C1647 C1646 1.355 . S
C1647 C1649 1.419 . S
C1648 C1646 1.415 . S
C1648 C1653 1.425 . S
C1648 C1655 1.409 . S
C1649 H1641 0.930 . S
C1649 C1647 1.419 . S
C1649 C1650 1.362 . S
C1650 H1642 0.930 . S
C1650 C1649 1.362 . S
C1650 C1653 1.409 . S
C1651 H1643 0.930 . S
C1651 C1652 1.355 . S
C1651 C1653 1.415 . S
C1652 C1651 1.355 . S
C1652 C1654 1.419 . S
C1653 C1648 1.425 . S
C1653 C1650 1.409 . S
C1653 C1651 1.415 . S
C1654 H1644 0.930 . S
C1654 C1652 1.419 . S
C1654 C1655 1.362 . S
C1655 H1645 0.930 . S
C1655 C1648 1.409 . S
C1655 C1654 1.362 . S
H1656 C1662 0.930 . S
H1657 C1665 0.930 1_554 S
H1658 C1666 0.930 1_455 S
H1659 C1667 0.930 1_455 S
H1660 C1670 0.930 . S
H1661 C1671 0.930 . S
C1662 H1656 0.930 . S
C1662 C1663 1.355 . S
C1662 C1664 1.415 . S
C1663 C1662 1.355 . S
C1663 C1665 1.419 . S
C1664 C1662 1.415 . S
C1664 C1669 1.425 . S
C1664 C1671 1.409 . S
C1665 H1657 0.930 1_556 S
C1665 C1663 1.419 . S
C1665 C1666 1.362 . S
C1666 H1658 0.930 1_655 S
C1666 C1665 1.362 . S
C1666 C1669 1.409 . S
C1667 H1659 0.930 1_655 S
C1667 C1668 1.355 . S
C1667 C1669 1.415 . S
C1668 C1667 1.355 . S
C1668 C1670 1.419 . S
C1669 C1664 1.425 . S
C1669 C1666 1.409 . S
C1669 C1667 1.415 . S
C1670 H1660 0.930 . S
C1670 C1668 1.419 . S
C1670 C1671 1.362 . S
C1671 H1661 0.930 . S
C1671 C1664 1.409 . S
C1671 C1670 1.362 . S
H1672 C1678 0.930 . S
H1673 C1681 0.930 . S
H1674 C1682 0.930 . S
H1675 C1683 0.930 . S
H1676 C1686 0.930 . S
H1677 C1687 0.930 . S
C1678 H1672 0.930 . S
C1678 C1679 1.355 . S
C1678 C1680 1.415 . S
C1679 C1678 1.355 . S
C1679 C1681 1.419 . S
C1680 C1678 1.415 . S
C1680 C1685 1.425 . S
C1680 C1687 1.409 . S
C1681 H1673 0.930 . S
C1681 C1679 1.419 . S
C1681 C1682 1.362 . S
C1682 H1674 0.930 . S
C1682 C1681 1.362 . S
C1682 C1685 1.409 . S
C1683 H1675 0.930 . S
C1683 C1684 1.355 . S
C1683 C1685 1.415 . S
C1684 C1683 1.355 . S
C1684 C1686 1.419 . S
C1685 C1680 1.425 . S
C1685 C1682 1.409 . S
C1685 C1683 1.415 . S
C1686 H1676 0.930 . S
C1686 C1684 1.419 . S
C1686 C1687 1.362 . S
C1687 H1677 0.930 . S
C1687 C1680 1.409 . S
C1687 C1686 1.362 . S
H1688 C1694 0.930 . S
H1689 C1697 0.930 . S
H1690 C1698 0.930 . S
H1691 C1699 0.930 . S
H1692 C1702 0.930 1_655 S
H1693 C1703 0.930 1_655 S
C1694 H1688 0.930 . S
C1694 C1695 1.355 . S
C1694 C1696 1.415 . S
C1695 C1694 1.355 . S
C1695 C1697 1.419 . S
C1696 C1694 1.415 . S
C1696 C1701 1.425 . S
C1696 C1703 1.409 . S
C1697 H1689 0.930 . S
C1697 C1695 1.419 . S
C1697 C1698 1.362 . S
C1698 H1690 0.930 . S
C1698 C1697 1.362 . S
C1698 C1701 1.409 . S
C1699 H1691 0.930 . S
C1699 C1700 1.355 . S
C1699 C1701 1.415 . S
C1700 C1699 1.355 . S
C1700 C1702 1.419 . S
C1701 C1696 1.425 . S
C1701 C1698 1.409 . S
C1701 C1699 1.415 . S
C1702 H1692 0.930 1_455 S
C1702 C1700 1.419 . S
C1702 C1703 1.362 . S
C1703 H1693 0.930 1_455 S
C1703 C1696 1.409 . S
C1703 C1702 1.362 . S
H1704 C1710 0.930 . S
H1705 C1713 0.930 . S
H1706 C1714 0.930 . S
H1707 C1715 0.930 . S
H1708 C1718 0.930 . S
H1709 C1719 0.930 . S
C1710 H1704 0.930 . S
C1710 C1711 1.355 . S
C1710 C1712 1.415 . S
C1711 C1710 1.355 . S
C1711 C1713 1.419 . S
C1712 C1710 1.415 . S
C1712 C1717 1.425 . S
C1712 C1719 1.409 . S
C1713 H1705 0.930 . S
C1713 C1711 1.419 . S
C1713 C1714 1.362 . S
C1714 H1706 0.930 . S
C1714 C1713 1.362 . S
C1714 C1717 1.409 . S
C1715 H1707 0.930 . S
C1715 C1716 1.355 . S
C1715 C1717 1.415 . S
C1716 C1715 1.355 . S
C1716 C1718 1.419 . S
C1717 C1712 1.425 . S
C1717 C1714 1.409 . S
C1717 C1715 1.415 . S
C1718 H1708 0.930 . S
C1718 C1716 1.419 . S
C1718 C1719 1.362 . S
C1719 H1709 0.930 . S
C1719 C1712 1.409 . S
C1719 C1718 1.362 . S
H1720 C1726 0.930 . S
H1721 C1729 0.930 . S
H1722 C1730 0.930 . S
H1723 C1731 0.930 . S
H1724 C1734 0.930 . S
H1725 C1735 0.930 . S
C1726 H1720 0.930 . S
C1726 C1727 1.355 . S
C1726 C1728 1.415 . S
C1727 C1726 1.355 . S
C1727 C1729 1.419 . S
C1728 C1726 1.415 . S
C1728 C1733 1.425 . S
C1728 C1735 1.409 . S
C1729 H1721 0.930 . S
C1729 C1727 1.419 . S
C1729 C1730 1.362 . S
C1730 H1722 0.930 . S
C1730 C1729 1.362 . S
C1730 C1733 1.409 . S
C1731 H1723 0.930 . S
C1731 C1732 1.355 . S
C1731 C1733 1.415 . S
C1732 C1731 1.355 . S
C1732 C1734 1.419 . S
C1733 C1728 1.425 . S
C1733 C1730 1.409 . S
C1733 C1731 1.415 . S
C1734 H1724 0.930 . S
C1734 C1732 1.419 . S
C1734 C1735 1.362 . S
C1735 H1725 0.930 . S
C1735 C1728 1.409 . S
C1735 C1734 1.362 . S
H1736 C1742 0.930 . S
H1737 C1745 0.930 . S
H1738 C1746 0.930 . S
H1739 C1747 0.930 . S
H1740 C1750 0.930 . S
H1741 C1751 0.930 . S
C1742 H1736 0.930 . S
C1742 C1743 1.355 . S
C1742 C1744 1.415 . S
C1743 C1742 1.355 . S
C1743 C1745 1.419 . S
C1744 C1742 1.415 . S
C1744 C1749 1.425 . S
C1744 C1751 1.409 . S
C1745 H1737 0.930 . S
C1745 C1743 1.419 . S
C1745 C1746 1.362 . S
C1746 H1738 0.930 . S
C1746 C1745 1.362 . S
C1746 C1749 1.409 . S
C1747 H1739 0.930 . S
C1747 C1748 1.355 . S
C1747 C1749 1.415 . S
C1748 C1747 1.355 . S
C1748 C1750 1.419 . S
C1749 C1744 1.425 . S
C1749 C1746 1.409 . S
C1749 C1747 1.415 . S
C1750 H1740 0.930 . S
C1750 C1748 1.419 . S
C1750 C1751 1.362 . S
C1751 H1741 0.930 . S
C1751 C1744 1.409 . S
C1751 C1750 1.362 . S
H1752 C1758 0.930 . S
H1753 C1761 0.930 . S
H1754 C1762 0.930 . S
H1755 C1763 0.930 . S
H1756 C1766 0.930 . S
H1757 C1767 0.930 . S
C1758 H1752 0.930 . S
C1758 C1759 1.355 . S
C1758 C1760 1.415 . S
C1759 C1758 1.355 . S
C1759 C1761 1.419 . S
C1760 C1758 1.415 . S
C1760 C1765 1.425 . S
C1760 C1767 1.409 . S
C1761 H1753 0.930 . S
C1761 C1759 1.419 . S
C1761 C1762 1.362 . S
C1762 H1754 0.930 . S
C1762 C1761 1.362 . S
C1762 C1765 1.409 . S
C1763 H1755 0.930 . S
C1763 C1764 1.355 . S
C1763 C1765 1.415 . S
C1764 C1763 1.355 . S
C1764 C1766 1.419 . S
C1765 C1760 1.425 . S
C1765 C1762 1.409 . S
C1765 C1763 1.415 . S
C1766 H1756 0.930 . S
C1766 C1764 1.419 . S
C1766 C1767 1.362 . S
C1767 H1757 0.930 . S
C1767 C1760 1.409 . S
C1767 C1766 1.362 . S
H1768 C1774 0.930 . S
H1769 C1777 0.930 . S
H1770 C1778 0.930 . S
H1771 C1779 0.930 . S
H1772 C1782 0.930 . S
H1773 C1783 0.930 . S
C1774 H1768 0.930 . S
C1774 C1775 1.355 . S
C1774 C1776 1.415 . S
C1775 C1774 1.355 . S
C1775 C1777 1.419 . S
C1776 C1774 1.415 . S
C1776 C1781 1.425 . S
C1776 C1783 1.409 . S
C1777 H1769 0.930 . S
C1777 C1775 1.419 . S
C1777 C1778 1.362 . S
C1778 H1770 0.930 . S
C1778 C1777 1.362 . S
C1778 C1781 1.409 . S
C1779 H1771 0.930 . S
C1779 C1780 1.355 . S
C1779 C1781 1.415 . S
C1780 C1779 1.355 . S
C1780 C1782 1.419 . S
C1781 C1776 1.425 . S
C1781 C1778 1.409 . S
C1781 C1779 1.415 . S
C1782 H1772 0.930 . S
C1782 C1780 1.419 . S
C1782 C1783 1.362 . S
C1783 H1773 0.930 . S
C1783 C1776 1.409 . S
C1783 C1782 1.362 . S
H1784 C1790 0.930 . S
H1785 C1793 0.930 . S
H1786 C1794 0.930 . S
H1787 C1795 0.930 . S
H1788 C1798 0.930 . S
H1789 C1799 0.930 . S
C1790 H1784 0.930 . S
C1790 C1791 1.355 . S
C1790 C1792 1.415 . S
C1791 C1790 1.355 . S
C1791 C1793 1.419 . S
C1792 C1790 1.415 . S
C1792 C1797 1.425 . S
C1792 C1799 1.409 . S
C1793 H1785 0.930 . S
C1793 C1791 1.419 . S
C1793 C1794 1.362 . S
C1794 H1786 0.930 . S
C1794 C1793 1.362 . S
C1794 C1797 1.409 . S
C1795 H1787 0.930 . S
C1795 C1796 1.355 . S
C1795 C1797 1.415 . S
C1796 C1795 1.355 . S
C1796 C1798 1.419 . S
C1797 C1792 1.425 . S
C1797 C1794 1.409 . S
C1797 C1795 1.415 . S
C1798 H1788 0.930 . S
C1798 C1796 1.419 . S
C1798 C1799 1.362 . S
C1799 H1789 0.930 . S
C1799 C1792 1.409 . S
C1799 C1798 1.362 . S
H1800 C1806 0.930 . S
H1801 C1809 0.930 . S
H1802 C1810 0.930 . S
H1803 C1811 0.930 . S
H1804 C1814 0.930 . S
H1805 C1815 0.930 . S
C1806 H1800 0.930 . S
C1806 C1807 1.355 . S
C1806 C1808 1.415 . S
C1807 C1806 1.355 . S
C1807 C1809 1.419 . S
C1808 C1806 1.415 . S
C1808 C1813 1.425 . S
C1808 C1815 1.409 . S
C1809 H1801 0.930 . S
C1809 C1807 1.419 . S
C1809 C1810 1.362 . S
C1810 H1802 0.930 . S
C1810 C1809 1.362 . S
C1810 C1813 1.409 . S
C1811 H1803 0.930 . S
C1811 C1812 1.355 . S
C1811 C1813 1.415 . S
C1812 C1811 1.355 . S
C1812 C1814 1.419 . S
C1813 C1808 1.425 . S
C1813 C1810 1.409 . S
C1813 C1811 1.415 . S
C1814 H1804 0.930 . S
C1814 C1812 1.419 . S
C1814 C1815 1.362 . S
C1815 H1805 0.930 . S
C1815 C1808 1.409 . S
C1815 C1814 1.362 . S
H1816 C1822 0.930 . S
H1817 C1825 0.930 . S
H1818 C1826 0.930 . S
H1819 C1827 0.930 . S
H1820 C1830 0.930 . S
H1821 C1831 0.930 . S
C1822 H1816 0.930 . S
C1822 C1823 1.355 . S
C1822 C1824 1.415 . S
C1823 C1822 1.355 . S
C1823 C1825 1.419 . S
C1824 C1822 1.415 . S
C1824 C1829 1.425 . S
C1824 C1831 1.409 . S
C1825 H1817 0.930 . S
C1825 C1823 1.419 . S
C1825 C1826 1.362 . S
C1826 H1818 0.930 . S
C1826 C1825 1.362 . S
C1826 C1829 1.409 . S
C1827 H1819 0.930 . S
C1827 C1828 1.355 . S
C1827 C1829 1.415 . S
C1828 C1827 1.355 . S
C1828 C1830 1.419 . S
C1829 C1824 1.425 . S
C1829 C1826 1.409 . S
C1829 C1827 1.415 . S
C1830 H1820 0.930 . S
C1830 C1828 1.419 . S
C1830 C1831 1.362 . S
C1831 H1821 0.930 . S
C1831 C1824 1.409 . S
C1831 C1830 1.362 . S
H1832 C1838 0.930 . S
H1833 C1841 0.930 . S
H1834 C1842 0.930 . S
H1835 C1843 0.930 . S
H1836 C1846 0.930 . S
H1837 C1847 0.930 . S
C1838 H1832 0.930 . S
C1838 C1839 1.355 . S
C1838 C1840 1.415 . S
C1839 C1838 1.355 . S
C1839 C1841 1.419 . S
C1840 C1838 1.415 . S
C1840 C1845 1.425 . S
C1840 C1847 1.409 . S
C1841 H1833 0.930 . S
C1841 C1839 1.419 . S
C1841 C1842 1.362 . S
C1842 H1834 0.930 . S
C1842 C1841 1.362 . S
C1842 C1845 1.409 . S
C1843 H1835 0.930 . S
C1843 C1844 1.355 . S
C1843 C1845 1.415 . S
C1844 C1843 1.355 . S
C1844 C1846 1.419 . S
C1845 C1840 1.425 . S
C1845 C1842 1.409 . S
C1845 C1843 1.415 . S
C1846 H1836 0.930 . S
C1846 C1844 1.419 . S
C1846 C1847 1.362 . S
C1847 H1837 0.930 . S
C1847 C1840 1.409 . S
C1847 C1846 1.362 . S
H1848 C1854 0.930 . S
H1849 C1857 0.930 . S
H1850 C1858 0.930 . S
H1851 C1859 0.930 . S
H1852 C1862 0.930 . S
H1853 C1863 0.930 . S
C1854 H1848 0.930 . S
C1854 C1855 1.355 . S
C1854 C1856 1.415 . S
C1855 C1854 1.355 . S
C1855 C1857 1.419 . S
C1856 C1854 1.415 . S
C1856 C1861 1.425 . S
C1856 C1863 1.409 . S
C1857 H1849 0.930 . S
C1857 C1855 1.419 . S
C1857 C1858 1.362 . S
C1858 H1850 0.930 . S
C1858 C1857 1.362 . S
C1858 C1861 1.409 . S
C1859 H1851 0.930 . S
C1859 C1860 1.355 . S
C1859 C1861 1.415 . S
C1860 C1859 1.355 . S
C1860 C1862 1.419 . S
C1861 C1856 1.425 . S
C1861 C1858 1.409 . S
C1861 C1859 1.415 . S
C1862 H1852 0.930 . S
C1862 C1860 1.419 . S
C1862 C1863 1.362 . S
C1863 H1853 0.930 . S
C1863 C1856 1.409 . S
C1863 C1862 1.362 . S
H1864 C1870 0.930 . S
H1865 C1873 0.930 . S
H1866 C1874 0.930 . S
H1867 C1875 0.930 . S
H1868 C1878 0.930 . S
H1869 C1879 0.930 . S
C1870 H1864 0.930 . S
C1870 C1871 1.355 . S
C1870 C1872 1.415 . S
C1871 C1870 1.355 . S
C1871 C1873 1.419 . S
C1872 C1870 1.415 . S
C1872 C1877 1.425 . S
C1872 C1879 1.409 . S
C1873 H1865 0.930 . S
C1873 C1871 1.419 . S
C1873 C1874 1.362 . S
C1874 H1866 0.930 . S
C1874 C1873 1.362 . S
C1874 C1877 1.409 . S
C1875 H1867 0.930 . S
C1875 C1876 1.355 . S
C1875 C1877 1.415 . S
C1876 C1875 1.355 . S
C1876 C1878 1.419 . S
C1877 C1872 1.425 . S
C1877 C1874 1.409 . S
C1877 C1875 1.415 . S
C1878 H1868 0.930 . S
C1878 C1876 1.419 . S
C1878 C1879 1.362 . S
C1879 H1869 0.930 . S
C1879 C1872 1.409 . S
C1879 C1878 1.362 . S
H1880 C1886 0.930 . S
H1881 C1889 0.930 1_545 S
H1882 C1890 0.930 . S
H1883 C1891 0.930 . S
H1884 C1894 0.930 . S
H1885 C1895 0.930 . S
C1886 H1880 0.930 . S
C1886 C1887 1.355 . S
C1886 C1888 1.415 . S
C1887 C1886 1.355 . S
C1887 C1889 1.419 . S
C1888 C1886 1.415 . S
C1888 C1893 1.425 . S
C1888 C1895 1.409 . S
C1889 H1881 0.930 1_565 S
C1889 C1887 1.419 . S
C1889 C1890 1.362 . S
C1890 H1882 0.930 . S
C1890 C1889 1.362 . S
C1890 C1893 1.409 . S
C1891 H1883 0.930 . S
C1891 C1892 1.355 . S
C1891 C1893 1.415 . S
C1892 C1891 1.355 . S
C1892 C1894 1.419 . S
C1893 C1888 1.425 . S
C1893 C1890 1.409 . S
C1893 C1891 1.415 . S
C1894 H1884 0.930 . S
C1894 C1892 1.419 . S
C1894 C1895 1.362 . S
C1895 H1885 0.930 . S
C1895 C1888 1.409 . S
C1895 C1894 1.362 . S
C1140 C968 1.510 . S
C1135 C331 1.465 . S
C1156 C981 1.479 . S
C1151 C380 1.479 . S
C1167 C421 1.630 . S
C1172 C1001 1.551 . S
C1188 C1015 1.349 . S
C1183 C260 1.468 . S
C1204 C1027 1.516 . S
C1199 C620 1.459 . S
C1220 C1041 1.421 . S
C1215 C740 1.410 . S
C1231 C680 1.490 . S
C1236 C1051 1.460 . S
C1252 C1066 1.490 . S
C1247 C571 1.477 . S
C1263 C691 1.470 . S
C1268 C1080 1.460 . S
C1284 C1099 1.419 . S
C1279 C541 1.388 . S
C1295 C601 1.435 . S
C1300 C1079 1.464 . S
C1316 C1097 1.418 . S
C1311 C721 1.400 . S
C1327 C451 1.611 . S
C1332 C1113 1.483 . S
C1343 C241 1.446 . S
C1348 C1107 1.491 . S
C1359 C320 1.476 . S
C1364 C1111 1.498 . S
C1375 C391 1.530 . S
C1380 C1108 1.503 . S
C1391 C211 1.473 . S
C1396 C1010 1.495 . S
C1407 C841 1.445 . S
C1412 C1009 1.471 . S
C1428 C973 1.335 . S
C1423 C901 1.442 . S
C1444 C987 1.558 . S
C1439 C500 1.633 . S
C1455 C271 1.537 . S
C1460 C1024 1.491 . S
C1476 C1069 1.495 . S
C1471 C661 1.482 . S
C1492 C1023 1.484 . S
C1487 C560 1.434 . S
C1508 C1055 1.428 . S
C1503 C751 1.427 . S
C1524 C1052 1.463 . S
C1519 C871 1.503 . S
C1535 C920 1.426 . S
C1540 C1065 1.473 . S
C1551 C481 1.621 . S
C1556 C1029 1.530 . S
C1572 C1043 1.350 . S
C1567 C800 1.403 . S
C1583 C200 1.507 . S
C1588 C999 1.503 . S
C1604 C1013 1.432 . S
C1599 C20 1.414 . S
C1620 C967 1.492 . S
C1615 C80 1.447 . S
C1636 C982 1.512 . S
C1631 C151 1.468 . S
C1647 C91 1.471 . S
C1652 C1094 1.481 . S
C1663 C121 1.442 . S
C1668 C1085 1.344 . S
C1679 C181 1.438 . S
C1684 C1093 1.466 . S
C1695 C1 1.424 . S
C1700 C1083 1.427 . S
C1716 C1127 1.485 . S
C1711 C511 1.611 . S
C1732 C1121 1.493 . S
C1727 C781 1.455 . S
C1748 C1125 1.513 . S
C1743 C860 1.488 . S
C1759 C931 1.472 . S
C1764 C1122 1.524 . S
C1775 C631 1.503 . S
C1780 C1038 1.475 . S
C1796 C1037 1.484 . S
C1791 C301 1.468 . S
C1812 C1057 1.420 . S
C1807 C361 1.390 . S
C1828 C1071 1.571 . S
C1823 C440 1.647 . S
C1839 C811 1.518 . S
C1844 C996 1.517 . S
C1860 C985 1.502 . S
C1855 C61 1.504 . S
C1871 C140 1.478 . S
C1876 C995 1.478 . S
C1892 C971 1.424 . S
C1887 C31 1.417 . S
