# Generated by pormake.
# Topology pyr, (3,6)-cn, num edge types: 1
# Building blocks:
#     Node 0, Type 0, BuildingBlock: PAMTOO_clean_linker_0, # of connection points: 3
#     Node 1, Type 0, BuildingBlock: PAMTOO_clean_linker_0, # of connection points: 3
#     Node 2, Type 0, BuildingBlock: PAMTOO_clean_linker_0, # of connection points: 3
#     Node 3, Type 0, BuildingBlock: PAMTOO_clean_linker_0, # of connection points: 3
#     Node 4, Type 0, BuildingBlock: PAMTOO_clean_linker_0, # of connection points: 3
#     Node 5, Type 0, BuildingBlock: PAMTOO_clean_linker_0, # of connection points: 3
#     Node 6, Type 0, BuildingBlock: PAMTOO_clean_linker_0, # of connection points: 3
#     Node 7, Type 0, BuildingBlock: PAMTOO_clean_linker_0, # of connection points: 3
#     Node 8, Type 1, BuildingBlock: FUNLAD_clean_sbu_0, # of connection points: 6
#     Node 9, Type 1, BuildingBlock: FUNLAD_clean_sbu_0, # of connection points: 6
#     Node 10, Type 1, BuildingBlock: FUNLAD_clean_sbu_0, # of connection points: 6
#     Node 11, Type 1, BuildingBlock: FUNLAD_clean_sbu_0, # of connection points: 6
#     Edge 12, Type (0, 1), BuildingBlock: TEMPAE_clean_linker_10, # of connection points: 2
#     Edge 13, Type (0, 1), BuildingBlock: TEMPAE_clean_linker_10, # of connection points: 2
#     Edge 14, Type (0, 1), BuildingBlock: TEMPAE_clean_linker_10, # of connection points: 2
#     Edge 15, Type (0, 1), BuildingBlock: TEMPAE_clean_linker_10, # of connection points: 2
#     Edge 16, Type (0, 1), BuildingBlock: TEMPAE_clean_linker_10, # of connection points: 2
#     Edge 17, Type (0, 1), BuildingBlock: TEMPAE_clean_linker_10, # of connection points: 2
#     Edge 18, Type (0, 1), BuildingBlock: TEMPAE_clean_linker_10, # of connection points: 2
#     Edge 19, Type (0, 1), BuildingBlock: TEMPAE_clean_linker_10, # of connection points: 2
#     Edge 20, Type (0, 1), BuildingBlock: TEMPAE_clean_linker_10, # of connection points: 2
#     Edge 21, Type (0, 1), BuildingBlock: TEMPAE_clean_linker_10, # of connection points: 2
#     Edge 22, Type (0, 1), BuildingBlock: TEMPAE_clean_linker_10, # of connection points: 2
#     Edge 23, Type (0, 1), BuildingBlock: TEMPAE_clean_linker_10, # of connection points: 2
#     Edge 24, Type (0, 1), BuildingBlock: TEMPAE_clean_linker_10, # of connection points: 2
#     Edge 25, Type (0, 1), BuildingBlock: TEMPAE_clean_linker_10, # of connection points: 2
#     Edge 26, Type (0, 1), BuildingBlock: TEMPAE_clean_linker_10, # of connection points: 2
#     Edge 27, Type (0, 1), BuildingBlock: TEMPAE_clean_linker_10, # of connection points: 2
#     Edge 28, Type (0, 1), BuildingBlock: TEMPAE_clean_linker_10, # of connection points: 2
#     Edge 29, Type (0, 1), BuildingBlock: TEMPAE_clean_linker_10, # of connection points: 2
#     Edge 30, Type (0, 1), BuildingBlock: TEMPAE_clean_linker_10, # of connection points: 2
#     Edge 31, Type (0, 1), BuildingBlock: TEMPAE_clean_linker_10, # of connection points: 2
#     Edge 32, Type (0, 1), BuildingBlock: TEMPAE_clean_linker_10, # of connection points: 2
#     Edge 33, Type (0, 1), BuildingBlock: TEMPAE_clean_linker_10, # of connection points: 2
#     Edge 34, Type (0, 1), BuildingBlock: TEMPAE_clean_linker_10, # of connection points: 2
#     Edge 35, Type (0, 1), BuildingBlock: TEMPAE_clean_linker_10, # of connection points: 2
# Relax obj value: 0.184
# Max RMSD: 0.214
# Mean RMSD: 0.136
data_MOF--net-pry--node1-FUNLAD_clean_sbu_0--node2-PAMTOO_clean_linker_0--edge1-TEMPAE_clean_linker_10
_symmetry_space_group_name_H-M    P1
_symmetry_Int_Tables_number       1
_symmetry_cell_setting            triclinic
loop_
_symmetry_equiv_pos_as_xyz
'x, y, z'
_cell_length_a     34.935186
_cell_length_b     38.390146
_cell_length_c     38.46038
_cell_angle_alpha  90.066448
_cell_angle_beta   91.127353
_cell_angle_gamma 89.331522
loop_
_atom_site_label
_atom_site_type_symbol
_atom_site_fract_x
_atom_site_fract_y
_atom_site_fract_z
_atom_type_partial_charge
H0 H 0.13861 0.22643 0.26328 0.0
H1 H 0.22773 0.14755 0.25638 0.0
H2 H 0.22074 0.22895 0.18077 0.0
H3 H 0.237 0.15549 0.15561 0.0
C4 C 0.25826 0.14774 0.1762 0.0
O5 O 0.25962 0.17376 0.20136 0.0
H6 H 0.24826 0.12325 0.18824 0.0
C7 C 0.16292 0.21507 0.25021 0.0
C8 C 0.1771 0.23192 0.22011 0.0
C9 C 0.18115 0.18461 0.26438 0.0
C10 C 0.21343 0.17095 0.24694 0.0
C11 C 0.22759 0.1868 0.21692 0.0
C12 C 0.20944 0.21706 0.20389 0.0
H13 H 0.37272 0.94786 0.74171 0.0
H14 H 0.37453 0.86484 0.66623 0.0
H15 H 0.45744 0.86507 0.74986 0.0
H16 H 0.48589 0.84442 0.67847 0.0
C17 C 0.46078 0.82896 0.66955 0.0
O18 O 0.43287 0.83091 0.69473 0.0
H19 H 0.44945 0.84084 0.64502 0.0
C20 C 0.38519 0.92374 0.73234 0.0
C21 C 0.41748 0.90891 0.75002 0.0
C22 C 0.36951 0.90836 0.70183 0.0
C23 C 0.38643 0.87738 0.6892 0.0
C24 C 0.41816 0.86184 0.70638 0.0
C25 C 0.43347 0.8777 0.73656 0.0
H26 H 0.70344 0.41581 0.99074 0.0
H27 H 0.59026 0.45501 0.96558 0.0
H28 H 0.67334 0.52254 1.01266 0.0
H29 H 0.62657 0.56242 0.9705 0.0
C30 C 0.60218 0.54476 0.96492 0.0
O31 O 0.6029 0.5178 0.98869 0.0
H32 H 0.57568 0.56047 0.96872 0.0
C33 C 0.68278 0.4371 0.98986 0.0
C34 C 0.69326 0.46991 1.00282 0.0
C35 C 0.64564 0.43124 0.9766 0.0
C36 C 0.61906 0.45894 0.97569 0.0
C37 C 0.62921 0.49172 0.98856 0.0
C38 C 0.66608 0.49716 1.00229 0.0
H39 H 0.91466 0.65296 0.48993 0.0
H40 H 0.9478 0.54779 0.51711 0.0
H41 H 0.03247 0.61996 0.48427 0.0
H42 H 1.00443 0.509 0.48609 0.0
C43 C 0.02661 0.5291 0.48219 0.0
O44 O 0.02053 0.55642 0.50493 0.0
H45 H 0.05457 0.51653 0.489 0.0
C46 C 0.93642 0.63277 0.49302 0.0
C47 C 0.97468 0.6406 0.48621 0.0
C48 C 0.92612 0.59929 0.50387 0.0
C49 C 0.95481 0.57356 0.5079 0.0
C50 C 0.99289 0.58098 0.50027 0.0
C51 C 1.00272 0.61428 0.48908 0.0
H52 H 0.87643 0.93701 0.8406 0.0
H53 H 0.87875 0.85778 0.91983 0.0
H54 H 0.95937 0.85249 0.8372 0.0
H55 H 0.95226 0.83561 0.94322 0.0
C56 C 0.96202 0.81916 0.92121 0.0
O57 O 0.93504 0.82106 0.89407 0.0
H58 H 0.98928 0.83023 0.91195 0.0
C59 C 0.88871 0.91316 0.85116 0.0
C60 C 0.92005 0.89688 0.83423 0.0
C61 C 0.87374 0.8997 0.88234 0.0
C62 C 0.89031 0.869 0.89649 0.0
C63 C 0.92124 0.85197 0.88058 0.0
C64 C 0.93606 0.86614 0.84965 0.0
H65 H 0.75899 0.11352 0.33893 0.0
H66 H 0.67343 0.19578 0.33152 0.0
H67 H 0.75132 0.19179 0.41888 0.0
H68 H 0.67559 0.20914 0.43722 0.0
C69 C 0.66631 0.22631 0.41528 0.0
O70 O 0.69439 0.22653 0.39021 0.0
H71 H 0.63978 0.21528 0.40345 0.0
C72 C 0.74557 0.13691 0.349 0.0
C73 C 0.75897 0.15051 0.38119 0.0
C74 C 0.71424 0.15253 0.33051 0.0
C75 C 0.69682 0.18261 0.34516 0.0
C76 C 0.71013 0.19669 0.37702 0.0
C77 C 0.74102 0.18053 0.39464 0.0
H78 H 0.39938 0.65184 0.07181 0.0
H79 H 0.41049 0.55945 0.13524 0.0
H80 H 0.50323 0.63043 0.1303 0.0
H81 H 0.52661 0.5555 0.13541 0.0
C82 C 0.50381 0.54726 0.15337 0.0
O83 O 0.47827 0.57418 0.15871 0.0
H84 H 0.4887 0.52455 0.14179 0.0
C85 C 0.41615 0.63482 0.08879 0.0
C86 C 0.45335 0.64464 0.09902 0.0
C87 C 0.40016 0.6039 0.10139 0.0
C88 C 0.42254 0.5824 0.12353 0.0
C89 C 0.45973 0.5918 0.1332 0.0
C90 C 0.47519 0.62259 0.12082 0.0
H91 H 0.08432 0.42517 0.67227 0.0
H92 H 0.15374 0.51714 0.67411 0.0
H93 H 0.17773 0.43492 0.60212 0.0
H94 H 0.23223 0.46573 0.6652 0.0
C95 C 0.23284 0.49074 0.65049 0.0
O96 O 0.20143 0.49399 0.62828 0.0
H97 H 0.23185 0.51207 0.67006 0.0
C98 C 0.10625 0.44112 0.66095 0.0
C99 C 0.12799 0.42739 0.63378 0.0
C100 C 0.11578 0.47309 0.67639 0.0
C101 C 0.14555 0.49258 0.66237 0.0
C102 C 0.16815 0.47855 0.63604 0.0
C103 C 0.1593 0.4461 0.62165 0.0
C104 C 0.09347 0.05796 0.48587 0.0
N105 N 0.07185 0.1028 0.58272 0.0
C106 C 0.10642 0.11756 0.57721 0.0
C107 C 0.11206 0.15261 0.5845 0.0
C108 C 0.08198 0.17256 0.59793 0.0
C109 C 0.04739 0.15632 0.60565 0.0
C110 C 0.04278 0.12107 0.59752 0.0
Zn111 Zn 0.06363 0.05529 0.56075 0.0
C112 C 0.98933 0.05323 0.5189 0.0
N113 N 0.04963 0.95801 0.50995 0.0
C114 C 0.07991 0.94167 0.49497 0.0
C115 C 0.01474 0.94276 0.51113 0.0
C116 C 1.0095 0.9094 0.49766 0.0
C117 C 0.0406 0.89139 0.48328 0.0
C118 C 0.07607 0.90801 0.48161 0.0
Zn119 Zn 0.05677 1.00508 0.53348 0.0
O120 O 0.08948 0.07534 0.51379 0.0
C121 C 0.13148 1.0069 0.57504 0.0
O122 O 0.0835 0.02605 0.48608 0.0
H123 H 0.99117 0.9561 0.52345 0.0
H124 H 0.12907 0.10263 0.56528 0.0
H125 H 0.10734 0.95438 0.4942 0.0
O126 O 0.11893 0.03746 0.58152 0.0
O127 O 0.11164 0.98755 0.55489 0.0
H128 H 0.01546 0.10882 0.60134 0.0
O129 O 0.02971 0.98513 0.58099 0.0
O130 O 0.03684 0.03506 0.60773 0.0
O131 O 1.00211 0.02274 0.51259 0.0
O132 O 1.00868 0.07271 0.53935 0.0
C133 C 0.02567 1.00349 0.60847 0.0
H134 H 0.13923 0.16433 0.57858 0.0
H135 H 0.02361 0.17113 0.616 0.0
H136 H 0.98186 0.89719 0.49994 0.0
H137 H 0.10067 0.89486 0.47069 0.0
C138 C 0.64298 1.00758 1.00634 0.0
N139 N 0.58985 0.10741 1.00246 0.0
C140 C 0.6255 0.12086 1.00648 0.0
C141 C 0.63266 0.15494 0.99621 0.0
C142 C 0.60278 0.17549 0.9819 0.0
C143 C 0.56664 0.16045 0.97676 0.0
C144 C 0.56078 0.12616 0.98728 0.0
Zn145 Zn 0.57935 0.05964 0.0227 0.0
C146 C 0.53597 1.01348 0.97282 0.0
N147 N 0.55752 0.96065 0.06613 0.0
C148 C 0.58544 0.9392 0.07941 0.0
C149 C 0.52135 0.9491 0.06002 0.0
C150 C 0.51263 0.91429 0.06518 0.0
C151 C 0.54132 0.89115 0.07695 0.0
C152 C 0.5778 0.90402 0.0853 0.0
Zn153 Zn 0.56925 1.0087 0.04724 0.0
O154 O 0.63274 0.03922 1.00147 0.0
C155 C 0.61205 0.0547 0.09763 0.0
O156 O 0.62206 0.98857 0.02517 0.0
H157 H 0.49963 0.96649 0.04928 0.0
H158 H 0.64816 0.10545 1.01861 0.0
H159 H 0.61407 0.94895 0.08378 0.0
O160 O 0.60855 0.07466 0.0712 0.0
O161 O 0.59898 0.02385 0.09516 0.0
H162 H 0.53267 0.11489 0.98437 0.0
O163 O 0.51643 0.02919 0.0688 0.0
O164 O 0.52608 0.07955 0.04425 0.0
O165 O 0.5397 0.99401 0.99944 0.0
O166 O 0.54964 0.0441 0.97457 0.0
C167 C 0.50555 0.06054 0.06341 0.0
H168 H 0.6611 0.16534 1.00014 0.0
H169 H 0.54272 0.17546 0.96615 0.0
H170 H 0.48403 0.90527 0.05892 0.0
H171 H 0.60057 0.88676 0.09445 0.0
C172 C 0.59811 0.45757 0.53404 0.0
N173 N 0.59599 0.50387 0.63511 0.0
C174 C 0.58073 0.47638 0.65214 0.0
C175 C 0.58397 0.47412 0.68846 0.0
C176 C 0.6029 0.50052 0.70714 0.0
C177 C 0.62037 0.52725 0.68861 0.0
C178 C 0.61639 0.52853 0.65257 0.0
Zn179 Zn 0.58292 0.51464 0.58406 0.0
C180 C 0.64915 0.54624 0.54822 0.0
N181 N 0.55477 0.54404 0.48035 0.0
C182 C 0.53688 0.51824 0.46225 0.0
C183 C 0.56862 0.57255 0.464 0.0
C184 C 0.56637 0.57494 0.42772 0.0
C185 C 0.55034 0.54743 0.40855 0.0
C186 C 0.53457 0.51932 0.42617 0.0
Zn187 Zn 0.56749 0.53352 0.53108 0.0
O188 O 0.60025 0.46255 0.56684 0.0
C189 C 0.50129 0.50208 0.56696 0.0
O190 O 0.58562 0.48237 0.51493 0.0
H191 H 0.58304 0.59256 0.47893 0.0
H192 H 0.56436 0.45719 0.63781 0.0
H193 H 0.52619 0.49574 0.47568 0.0
O194 O 0.52643 0.49772 0.59091 0.0
O195 O 0.51081 0.51607 0.53853 0.0
H196 H 0.62794 0.55041 0.63874 0.0
O197 O 0.54972 0.58469 0.54754 0.0
O198 O 0.56473 0.567 0.60022 0.0
O199 O 0.62406 0.55104 0.52431 0.0
O200 O 0.63957 0.53168 0.57632 0.0
C201 C 0.55167 0.59091 0.58007 0.0
H202 H 0.57001 0.45313 0.70185 0.0
H203 H 0.63572 0.54781 0.70198 0.0
H204 H 0.5787 0.59705 0.41474 0.0
H205 H 0.52156 0.4979 0.41208 0.0
C206 C 0.02415 0.58738 0.04691 0.0
N207 N 0.03056 0.54874 0.15159 0.0
C208 C 0.0477 0.57691 0.16648 0.0
C209 C 0.04588 0.58226 0.20248 0.0
C210 C 0.02643 0.55824 0.22304 0.0
C211 C 1.00711 0.53078 0.20658 0.0
C212 C 1.00971 0.52639 0.17082 0.0
Zn213 Zn 0.04061 0.53325 0.10161 0.0
C214 C 0.97071 0.5013 0.06871 0.0
N215 N 0.06069 0.49475 1.00003 0.0
C216 C 0.07962 0.51799 0.9802 0.0
C217 C 0.04372 0.46629 0.98562 0.0
C218 C 0.0438 0.46142 0.94954 0.0
C219 C 0.06121 0.4863 0.92849 0.0
C220 C 0.08029 0.51422 0.94432 0.0
Zn221 Zn 0.05141 0.50986 0.04994 0.0
O222 O 0.02467 0.5848 0.08006 0.0
C223 C 0.12097 0.54258 0.0816 0.0
O224 O 0.03356 0.56058 0.02936 0.0
H225 H 0.0285 0.44834 1.00185 0.0
H226 H 0.06437 0.59421 0.15076 0.0
H227 H 0.09253 0.54069 0.99197 0.0
O228 O 0.09861 0.54868 0.10661 0.0
O229 O 0.1084 0.52686 0.05476 0.0
H230 H 0.99667 0.50393 0.15872 0.0
O231 O 0.06909 0.45908 0.0711 0.0
O232 O 0.05744 0.4815 0.12219 0.0
O233 O 0.99447 0.49337 0.04538 0.0
O234 O 0.98228 0.5179 0.09545 0.0
C235 C 0.06861 0.45551 0.10411 0.0
H236 H 0.06123 0.60373 0.21429 0.0
H237 H 0.99133 0.51198 0.22145 0.0
H238 H 0.02893 0.43946 0.93814 0.0
H239 H 0.09471 0.53355 0.92898 0.0
C240 C 0.12844 0.16467 0.30536 0.0
C241 C 0.16756 0.16697 0.29744 0.0
C242 C 0.11586 0.14693 0.33543 0.0
C243 C 0.14276 0.13076 0.35872 0.0
C244 C 0.18222 0.13332 0.35109 0.0
C245 C 0.19398 0.1513 0.32104 0.0
C246 C 0.07354 0.14532 0.3422 0.0
C247 C 0.21229 0.11696 0.37481 0.0
C248 C 0.11544 0.11175 0.45369 0.0
C249 C 0.10726 0.07586 0.45333 0.0
C250 C 0.12655 0.12972 0.42341 0.0
C251 C 0.12996 0.11176 0.39128 0.0
C252 C 0.12196 0.07549 0.39072 0.0
C253 C 0.11071 0.05812 0.42145 0.0
C254 C 0.13454 0.16821 0.42585 0.0
C255 C 0.12528 0.0549 0.35747 0.0
H256 H 0.10739 0.17618 0.28764 0.0
H257 H 0.22432 0.15327 0.31625 0.0
H258 H 0.06437 0.11776 0.34291 0.0
H259 H 0.0674 0.15687 0.36798 0.0
H260 H 0.05612 0.15933 0.32206 0.0
H261 H 0.24175 0.12057 0.36516 0.0
H262 H 0.21055 0.1285 0.40119 0.0
H263 H 0.20704 0.08864 0.37739 0.0
H264 H 0.11283 0.12612 0.47782 0.0
H265 H 0.10441 0.03057 0.42042 0.0
H266 H 0.11553 0.18276 0.40739 0.0
H267 H 0.16447 0.17326 0.41835 0.0
H268 H 0.1302 0.17866 0.45244 0.0
H269 H 0.10592 0.06623 0.33715 0.0
H270 H 0.11804 0.02704 0.36098 0.0
H271 H 0.1549 0.05648 0.34774 0.0
C272 C 0.41099 0.9425 0.80693 0.0
C273 C 0.4344 0.92578 0.78244 0.0
C274 C 0.42647 0.95793 0.83747 0.0
C275 C 0.46656 0.95672 0.84428 0.0
C276 C 0.49038 0.94011 0.81965 0.0
C277 C 0.47418 0.92506 0.78924 0.0
C278 C 0.39976 0.97524 0.86274 0.0
C279 C 0.53319 0.93799 0.82552 0.0
C280 C 0.51261 0.02038 0.91006 0.0
C281 C 0.51708 0.99974 0.94009 0.0
C282 C 0.49597 1.00697 0.879 0.0
C283 C 0.48347 0.97189 0.87751 0.0
C284 C 0.48768 0.95105 0.90783 0.0
C285 C 0.50423 0.96513 0.9385 0.0
C286 C 0.49201 0.03034 0.8476 0.0
C287 C 0.47506 0.91358 0.9078 0.0
H288 H 0.38025 0.94301 0.80263 0.0
H289 H 0.49294 0.91294 0.77056 0.0
H290 H 0.40147 0.96154 0.88812 0.0
H291 H 0.40853 1.00255 0.86744 0.0
H292 H 0.36952 0.97526 0.85324 0.0
H293 H 0.54796 0.92458 0.80387 0.0
H294 H 0.54501 0.96455 0.82842 0.0
H295 H 0.53987 0.92375 0.85003 0.0
H296 H 0.52232 0.04709 0.91073 0.0
H297 H 0.50743 0.94871 0.96131 0.0
H298 H 0.46161 0.03183 0.83877 0.0
H299 H 0.50863 0.01927 0.82584 0.0
H300 H 0.50222 0.05715 0.85299 0.0
H301 H 0.4442 0.9121 0.90065 0.0
H302 H 0.47977 0.90087 0.9335 0.0
H303 H 0.49102 0.8986 0.88798 0.0
C304 C 0.63677 0.53266 0.90916 0.0
C305 C 0.60283 0.53172 0.92788 0.0
C306 C 0.63724 0.52299 0.87399 0.0
C307 C 0.60297 0.51187 0.85735 0.0
C308 C 0.56919 0.50875 0.87684 0.0
C309 C 0.56955 0.51872 0.91198 0.0
C310 C 0.6739 0.52651 0.85422 0.0
C311 C 0.53222 0.49662 0.86015 0.0
C312 C 0.59291 0.53414 0.76172 0.0
C313 C 0.60179 0.50232 0.74567 0.0
C314 C 0.59265 0.53729 0.79796 0.0
C315 C 0.60143 0.50785 0.81887 0.0
C316 C 0.60962 0.47537 0.80293 0.0
C317 C 0.60958 0.47295 0.7664 0.0
C318 C 0.58344 0.57234 0.81386 0.0
C319 C 0.61908 0.44345 0.82445 0.0
H320 H 0.6627 0.54199 0.92182 0.0
H321 H 0.54356 0.51733 0.92684 0.0
H322 H 0.67992 0.50242 0.83926 0.0
H323 H 0.67081 0.54818 0.83526 0.0
H324 H 0.69884 0.5319 0.8717 0.0
H325 H 0.50995 0.49154 0.87968 0.0
H326 H 0.52113 0.51683 0.84186 0.0
H327 H 0.53712 0.47251 0.84487 0.0
H328 H 0.586 0.55673 0.74581 0.0
H329 H 0.61645 0.44832 0.75406 0.0
H330 H 0.60822 0.5814 0.8298 0.0
H331 H 0.55878 0.5701 0.83142 0.0
H332 H 0.57644 0.59245 0.79391 0.0
H333 H 0.64596 0.44766 0.83964 0.0
H334 H 0.62269 0.41977 0.80816 0.0
H335 H 0.59616 0.43877 0.84339 0.0
C336 C 0.06027 0.55291 0.42986 0.0
C337 C 0.02667 0.54081 0.4447 0.0
C338 C 0.06119 0.56127 0.39435 0.0
C339 C 0.02759 0.55768 0.3735 0.0
C340 C 0.99293 0.54787 0.38907 0.0
C341 C 0.9929 0.53955 0.42455 0.0
C342 C 0.0986 0.57195 0.3788 0.0
C343 C 0.95637 0.54412 0.36788 0.0
C344 C 0.02205 0.59041 0.27999 0.0
C345 C 0.02877 0.55945 0.26158 0.0
C346 C 0.02234 0.59061 0.31661 0.0
C347 C 0.02974 0.55917 0.33496 0.0
C348 C 0.03778 0.52819 0.31638 0.0
C349 C 0.03723 0.52875 0.28002 0.0
C350 C 0.01369 0.62413 0.33562 0.0
C351 C 0.04619 0.49416 0.33489 0.0
H352 H 0.08612 0.55463 0.4458 0.0
H353 H 0.96671 0.531 0.43639 0.0
H354 H 0.10969 0.55047 0.36235 0.0
H355 H 0.09434 0.59506 0.36183 0.0
H356 H 0.12061 0.57803 0.39909 0.0
H357 H 0.93108 0.54051 0.38453 0.0
H358 H 0.95132 0.56738 0.35126 0.0
H359 H 0.95891 0.52123 0.3504 0.0
H360 H 0.01555 0.61419 0.26577 0.0
H361 H 0.04332 0.50493 0.26588 0.0
H362 H 0.03603 0.62915 0.35585 0.0
H363 H 0.98605 0.62187 0.34911 0.0
H364 H 0.01185 0.64684 0.31777 0.0
H365 H 0.07057 0.49726 0.35351 0.0
H366 H 0.05322 0.47272 0.31658 0.0
H367 H 0.02098 0.48643 0.35007 0.0
C368 C 0.29804 0.12965 0.12455 0.0
C369 C 0.29704 0.14012 0.15958 0.0
C370 C 0.33222 0.11805 0.10907 0.0
C371 C 0.36683 0.11649 0.12894 0.0
C372 C 0.36618 0.12736 0.16429 0.0
C373 C 0.33137 0.13863 0.17924 0.0
C374 C 0.33098 0.10648 0.07153 0.0
C375 C 0.40218 0.12638 0.18658 0.0
C376 C 0.44539 0.05307 0.09831 0.0
C377 C 0.47004 0.07493 0.08008 0.0
C378 C 0.41219 0.06623 0.11447 0.0
C379 C 0.40313 0.10236 0.11291 0.0
C380 C 0.42808 0.12461 0.09482 0.0
C381 C 0.46092 0.11071 0.07858 0.0
C382 C 0.3865 0.04126 0.13299 0.0
C383 C 0.42003 0.16325 0.09253 0.0
H384 H 0.27162 0.12977 0.1093 0.0
H385 H 0.33088 0.14571 0.20651 0.0
H386 H 0.35206 0.12122 0.05636 0.0
H387 H 0.33905 0.0785 0.06981 0.0
H388 H 0.30218 0.11023 0.05925 0.0
H389 H 0.39764 0.13762 0.21283 0.0
H390 H 0.41239 0.09907 0.1896 0.0
H391 H 0.42521 0.14101 0.17379 0.0
H392 H 0.4519 0.02544 0.0998 0.0
H393 H 0.47966 0.12804 0.06486 0.0
H394 H 0.35748 0.04189 0.12074 0.0
H395 H 0.38341 0.04932 0.16051 0.0
H396 H 0.39763 1.01404 0.13238 0.0
H397 H 0.39229 0.16798 0.0787 0.0
H398 H 0.44275 0.17733 0.07867 0.0
H399 H 0.41749 0.1744 0.11903 0.0
C400 C 0.30228 0.93397 0.70125 0.0
C401 C 0.33533 0.92436 0.68315 0.0
C402 C 0.26943 0.94762 0.68374 0.0
C403 C 0.26962 0.95273 0.64717 0.0
C404 C 0.30326 0.94377 0.6289 0.0
C405 C 0.33534 0.92938 0.64695 0.0
C406 C 0.23417 0.95592 0.70436 0.0
C407 C 0.30543 0.94943 0.59017 0.0
C408 C 0.17444 0.9572 0.59532 0.0
C409 C 0.16759 0.99325 0.59231 0.0
C410 C 0.20711 0.94379 0.61323 0.0
C411 C 0.23451 0.96681 0.62797 0.0
C412 C 0.22813 1.00325 0.62439 0.0
C413 C 0.19469 0.01596 0.6071 0.0
C414 C 0.21195 0.90484 0.6169 0.0
C415 C 0.25675 0.02891 0.6388 0.0
H416 H 0.30176 0.92994 0.72913 0.0
H417 H 0.36077 0.92236 0.6327 0.0
H418 H 0.22621 0.98381 0.70127 0.0
H419 H 0.2097 0.94045 0.69429 0.0
H420 H 0.23836 0.95029 0.73252 0.0
H421 H 0.33411 0.94269 0.57997 0.0
H422 H 0.28375 0.93331 0.57645 0.0
H423 H 0.29877 0.97706 0.58384 0.0
H424 H 0.15367 0.9393 0.58437 0.0
H425 H 0.18988 0.04383 0.60494 0.0
H426 H 0.21394 0.89773 0.64484 0.0
H427 H 0.23902 0.89617 0.60483 0.0
H428 H 0.18788 0.89038 0.60459 0.0
H429 H 0.25937 0.02604 0.66745 0.0
H430 H 0.24855 0.05631 0.63272 0.0
H431 H 0.28542 0.02342 0.628 0.0
C432 C 0.7501 0.45035 0.03869 0.0
C433 C 0.73259 0.47538 1.01688 0.0
C434 C 0.78826 0.45379 0.05004 0.0
C435 C 0.80937 0.48298 0.03937 0.0
C436 C 0.79148 0.50891 1.01827 0.0
C437 C 0.75326 0.5048 1.00729 0.0
C438 C 0.8063 0.42569 0.07264 0.0
C439 C 0.81311 0.54042 1.00634 0.0
C440 C 0.9022 0.50697 0.08614 0.0
C441 C 0.92958 0.49379 0.06322 0.0
C442 C 0.86288 0.50304 0.07912 0.0
C443 C 0.85077 0.48547 0.04853 0.0
C444 C 0.87828 0.47112 0.02592 0.0
C445 C 0.91733 0.47546 0.03353 0.0
C446 C 0.83433 0.51859 0.10387 0.0
C447 C 0.86647 0.45199 0.99315 0.0
H448 H 0.734 0.42784 0.04664 0.0
H449 H 0.73992 0.52406 0.99023 0.0
H450 H 0.82976 0.41256 0.05844 0.0
H451 H 0.81916 0.4373 0.0965 0.0
H452 H 0.78533 0.40572 0.08035 0.0
H453 H 0.79444 0.55917 0.99174 0.0
H454 H 0.82617 0.55404 0.02901 0.0
H455 H 0.83678 0.53205 0.98931 0.0
H456 H 0.91142 0.52118 0.10913 0.0
H457 H 0.93827 0.46509 1.01572 0.0
H458 H 0.81373 0.49853 0.11198 0.0
H459 H 0.81758 0.53956 0.09054 0.0
H460 H 0.84836 0.5297 0.12749 0.0
H461 H 0.84708 0.43032 0.99948 0.0
H462 H 0.89141 0.44117 0.97908 0.0
H463 H 0.85039 0.46995 0.97545 0.0
C464 C 0.86306 0.61591 0.52944 0.0
C465 C 0.88558 0.5916 0.51148 0.0
C466 C 0.82441 0.60954 0.5359 0.0
C467 C 0.80795 0.57796 0.52438 0.0
C468 C 0.83059 0.55313 0.50659 0.0
C469 C 0.86914 0.56028 0.50028 0.0
C470 C 0.80116 0.63664 0.55496 0.0
C471 C 0.81402 0.5191 0.49401 0.0
C472 C 0.71788 0.54674 0.56757 0.0
C473 C 0.68948 0.5559 0.54282 0.0
C474 C 0.75653 0.55393 0.56197 0.0
C475 C 0.76702 0.57088 0.53099 0.0
C476 C 0.73846 0.58078 0.50619 0.0
C477 C 0.70002 0.57308 0.51236 0.0
C478 C 0.78622 0.54289 0.58897 0.0
C479 C 0.74856 0.59918 0.47298 0.0
H480 H 0.87575 0.63992 0.53867 0.0
H481 H 0.88627 0.54158 0.48604 0.0
H482 H 0.77623 0.64504 0.5386 0.0
H483 H 0.78976 0.62533 0.57912 0.0
H484 H 0.81821 0.65997 0.56194 0.0
H485 H 0.83561 0.50235 0.48105 0.0
H486 H 0.80225 0.50454 0.51621 0.0
H487 H 0.78997 0.52425 0.47537 0.0
H488 H 0.71 0.53341 0.59116 0.0
H489 H 0.67825 0.58031 0.49314 0.0
H490 H 0.8028 0.56579 0.59794 0.0
H491 H 0.80681 0.52422 0.57733 0.0
H492 H 0.77327 0.53043 0.61191 0.0
H493 H 0.76417 0.6235 0.4791 0.0
H494 H 0.72287 0.60585 0.45675 0.0
H495 H 0.76791 0.58242 0.45749 0.0
C496 C 0.11938 0.26991 0.20165 0.0
C497 C 0.15929 0.26531 0.20543 0.0
C498 C 0.10304 0.30013 0.18563 0.0
C499 C 0.12687 0.32708 0.17327 0.0
C500 C 0.1671 0.32289 0.17781 0.0
C501 C 0.18263 0.29236 0.19352 0.0
C502 C 0.06011 0.30291 0.18134 0.0
C503 C 0.19399 0.35073 0.16586 0.0
C504 C 0.09155 0.3921 0.1024 0.0
C505 C 0.08204 0.42207 0.1217 0.0
C506 C 0.10519 0.36108 0.11875 0.0
C507 C 0.11009 0.35952 0.15553 0.0
C508 C 0.10028 0.38962 0.17513 0.0
C509 C 0.08634 0.42015 0.15816 0.0
C510 C 0.11476 0.32992 0.09648 0.0
C511 C 0.10521 0.38985 0.21419 0.0
H512 H 0.10083 0.24938 0.21035 0.0
H513 H 0.21342 0.28974 0.19661 0.0
H514 H 0.04946 0.32698 0.19406 0.0
H515 H 0.05224 0.30482 0.15331 0.0
H516 H 0.04533 0.2802 0.19259 0.0
H517 H 0.22445 0.34416 0.17193 0.0
H518 H 0.19062 0.35451 0.13737 0.0
H519 H 0.18681 0.37593 0.17845 0.0
H520 H 0.08844 0.39287 0.07433 0.0
H521 H 0.07933 0.44287 0.17364 0.0
H522 H 0.09884 0.30684 0.1054 0.0
H523 H 0.14573 0.32356 0.09919 0.0
H524 H 0.10775 0.33445 0.06854 0.0
H525 H 0.08891 0.36824 0.2257 0.0
H526 H 0.09544 0.41478 0.22594 0.0
H527 H 0.13582 0.38554 0.22137 0.0
C528 C 0.65904 0.37373 0.9483 0.0
C529 C 0.63416 0.3954 0.96692 0.0
C530 C 0.65212 0.33797 0.94497 0.0
C531 C 0.61954 0.32367 0.96064 0.0
C532 C 0.59271 0.3459 0.97697 0.0
C533 C 0.60037 0.38156 0.97994 0.0
C534 C 0.6812 0.31518 0.92704 0.0
C535 C 0.55751 0.33167 0.99384 0.0
C536 C 0.59232 0.22917 0.94533 0.0
C537 C 0.60855 0.21308 0.97498 0.0
C538 C 0.59611 0.26514 0.93985 0.0
C539 C 0.6165 0.28534 0.96464 0.0
C540 C 0.63338 0.26912 0.99431 0.0
C541 C 0.62912 0.23327 0.99913 0.0
C542 C 0.57787 0.2816 0.90789 0.0
C543 C 0.65532 0.28977 0.02143 0.0
H544 H 0.68485 0.38451 0.93765 0.0
H545 H 0.58111 0.39814 0.99449 0.0
H546 H 0.69789 0.30008 0.94685 0.0
H547 H 0.66683 0.2962 0.90954 0.0
H548 H 0.70149 0.3307 0.91166 0.0
H549 H 0.53695 0.35266 1.00096 0.0
H550 H 0.54273 0.31301 0.97628 0.0
H551 H 0.56612 0.31733 1.01784 0.0
H552 H 0.57665 0.21363 0.92644 0.0
H553 H 0.64109 0.22118 0.02242 0.0
H554 H 0.59961 0.29602 0.89316 0.0
H555 H 0.55565 0.30079 0.91569 0.0
H556 H 0.5644 0.26204 0.89037 0.0
H557 H 0.67903 0.30394 1.00915 0.0
H558 H 0.66757 0.27302 0.04249 0.0
H559 H 0.63614 0.30953 0.03327 0.0
C560 C 0.97353 0.70321 0.50223 0.0
C561 C 0.98564 0.677 0.47949 0.0
C562 C 0.98479 0.73773 0.49783 0.0
C563 C 1.00838 0.74636 0.46966 0.0
C564 C 0.02012 0.72011 0.44611 0.0
C565 C 1.00891 0.68552 0.45154 0.0
C566 C 0.97203 0.76483 0.52382 0.0
C567 C 0.04467 0.72852 0.41546 0.0
C568 C 1.0049 0.84337 0.45358 0.0
C569 C 0.03659 0.85433 0.47345 0.0
C570 C 0.99718 0.80783 0.44938 0.0
C571 C 0.02134 0.78285 0.46605 0.0
C572 C 0.05483 0.79376 0.4841 0.0
C573 C 0.06218 0.82944 0.48741 0.0
C574 C 0.96164 0.79718 0.4293 0.0
C575 C 0.08111 0.76799 0.50256 0.0
H576 H 0.95596 0.69649 0.52412 0.0
H577 H 0.01811 0.66516 0.4339 0.0
H578 H 0.99739 0.77686 0.5366 0.0
H579 H 0.95565 0.78593 0.51036 0.0
H580 H 0.95378 0.75372 0.54428 0.0
H581 H 0.04915 0.70559 0.3983 0.0
H582 H 0.03124 0.74987 0.39989 0.0
H583 H 0.07301 0.73783 0.42478 0.0
H584 H 0.98535 0.86267 0.44244 0.0
H585 H 0.08656 0.83789 0.50298 0.0
H586 H 0.93938 0.78918 0.44777 0.0
H587 H 0.96779 0.77453 0.41228 0.0
H588 H 0.94979 0.81882 0.41306 0.0
H589 H 0.06656 0.75757 0.52567 0.0
H590 H 0.10837 0.78009 0.51137 0.0
H591 H 0.08783 0.74562 0.48539 0.0
C592 C 0.51232 0.78409 0.65577 0.0
C593 C 0.47345 0.79154 0.66149 0.0
C594 C 0.52474 0.75116 0.6438 0.0
C595 C 0.49773 0.72457 0.637 0.0
C596 C 0.45843 0.73174 0.64318 0.0
C597 C 0.44676 0.76511 0.65498 0.0
C598 C 0.56681 0.74516 0.63747 0.0
C599 C 0.42854 0.70436 0.63652 0.0
C600 C 0.52589 0.65249 0.57253 0.0
C601 C 0.53792 0.62514 0.5946 0.0
C602 C 0.51251 0.68462 0.58591 0.0
C603 C 0.51066 0.68986 0.6224 0.0
C604 C 0.52247 0.66225 0.64481 0.0
C605 C 0.53601 0.63047 0.63074 0.0
C606 C 0.50063 0.71318 0.56087 0.0
C607 C 0.52092 0.6663 0.68379 0.0
H608 H 0.53314 0.80447 0.65989 0.0
H609 H 0.41662 0.77077 0.65848 0.0
H610 H 0.57737 0.7221 0.6523 0.0
H611 H 0.57124 0.73962 0.60951 0.0
H612 H 0.58438 0.76797 0.64509 0.0
H613 H 0.39958 0.71313 0.64447 0.0
H614 H 0.42741 0.69775 0.60843 0.0
H615 H 0.43628 0.68013 0.65085 0.0
H616 H 0.52709 0.64888 0.54462 0.0
H617 H 0.54496 0.60965 0.6482 0.0
H618 H 0.51868 0.73641 0.56535 0.0
H619 H 0.47053 0.72121 0.56542 0.0
H620 H 0.50319 0.70501 0.53328 0.0
H621 H 0.53976 0.68785 0.69238 0.0
H622 H 0.52999 0.64217 0.69775 0.0
H623 H 0.49137 0.6733 0.69151 0.0
C624 C 0.91114 0.92836 0.77577 0.0
C625 C 0.93559 0.91196 0.80058 0.0
C626 C 0.92511 0.94307 0.74468 0.0
C627 C 0.96483 0.94165 0.73739 0.0
C628 C 0.98967 0.92497 0.76211 0.0
C629 C 0.97494 0.91047 0.79304 0.0
C630 C 0.89713 0.96021 0.7195 0.0
C631 C 0.03215 0.92263 0.75601 0.0
C632 C 0.9976 0.95291 0.64235 0.0
C633 C 1.00932 0.9879 0.64126 0.0
C634 C 0.98323 0.93772 0.67307 0.0
C635 C 0.98025 0.95764 0.70412 0.0
C636 C 0.99192 0.993 0.70315 0.0
C637 C 1.00616 1.00755 0.67207 0.0
C638 C 0.9713 0.90008 0.67227 0.0
C639 C 0.98949 0.0156 0.73516 0.0
H640 H 0.88067 0.92941 0.78036 0.0
H641 H 0.99459 0.89847 0.8117 0.0
H642 H 0.90502 0.98781 0.71552 0.0
H643 H 0.89842 0.94709 0.69382 0.0
H644 H 0.86721 0.95939 0.72869 0.0
H645 H 0.0478 0.90855 0.77723 0.0
H646 H 0.03754 0.90903 0.73108 0.0
H647 H 0.04406 0.94919 0.75383 0.0
H648 H 0.99978 0.93714 0.61907 0.0
H649 H 0.01505 0.03449 0.67203 0.0
H650 H 0.94079 0.89803 0.67939 0.0
H651 H 0.98836 0.88495 0.69177 0.0
H652 H 0.97511 0.88797 0.6463 0.0
H653 H 0.95948 0.01697 0.74402 0.0
H654 H 0.99956 0.0425 0.73048 0.0
H655 H 1.007 1.00394 0.75662 0.0
C656 C 0.72524 0.12243 0.27222 0.0
C657 C 0.69986 0.13757 0.29612 0.0
C658 C 0.7122 0.10839 0.24008 0.0
C659 C 0.67262 0.1094 0.23095 0.0
C660 C 0.64684 0.12461 0.25485 0.0
C661 C 0.66062 0.13831 0.28688 0.0
C662 C 0.74097 0.09259 0.21573 0.0
C663 C 0.60445 0.12643 0.2466 0.0
C664 C 0.64116 0.10286 0.13453 0.0
C665 C 0.62925 0.06806 0.13136 0.0
C666 C 0.65545 0.11643 0.16642 0.0
C667 C 0.65822 0.0949 0.19638 0.0
C668 C 0.64673 0.05963 0.19327 0.0
C669 C 0.63242 0.04674 0.16106 0.0
C670 C 0.66715 0.15412 0.16811 0.0
C671 C 0.64918 0.03547 0.22416 0.0
H672 H 0.75564 0.12197 0.27833 0.0
H673 H 0.64035 0.14926 0.30495 0.0
H674 H 0.73339 0.06519 0.20986 0.0
H675 H 0.74031 0.10696 0.19072 0.0
H676 H 0.7706 0.09307 0.22672 0.0
H677 H 0.58803 0.13915 0.26766 0.0
H678 H 0.59924 0.14117 0.22213 0.0
H679 H 0.59324 0.09981 0.24242 0.0
H680 H 0.63888 0.11982 0.11206 0.0
H681 H 0.62336 0.01989 0.15926 0.0
H682 H 0.69741 0.156 0.17713 0.0
H683 H 0.64942 0.16828 0.18727 0.0
H684 H 0.66397 0.16738 0.14254 0.0
H685 H 0.67899 0.03436 0.23464 0.0
H686 H 0.64004 1.00861 0.21752 0.0
H687 H 0.63083 0.04561 0.2452 0.0
C688 C 0.49735 0.52049 0.21194 0.0
C689 C 0.52037 0.53794 0.18839 0.0
C690 C 0.50679 0.51987 0.24748 0.0
C691 C 0.54025 0.53691 0.25954 0.0
C692 C 0.5651 0.55232 0.2355 0.0
C693 C 0.55455 0.55308 0.20013 0.0
C694 C 0.47937 0.50343 0.27233 0.0
C695 C 0.60142 0.57005 0.24736 0.0
C696 C 0.53398 0.57351 0.35079 0.0
C697 C 0.55135 0.54678 0.37029 0.0
C698 C 0.5312 0.57108 0.31445 0.0
C699 C 0.54689 0.54154 0.29745 0.0
C700 C 0.56626 0.51539 0.31704 0.0
C701 C 0.5679 0.51816 0.35335 0.0
C702 C 0.50994 0.59931 0.29441 0.0
C703 C 0.58408 0.48399 0.29976 0.0
H704 H 0.47053 0.50947 0.20281 0.0
H705 H 0.57196 0.56712 0.18194 0.0
H706 H 0.49487 0.48533 0.29027 0.0
H707 H 0.46592 0.52402 0.28846 0.0
H708 H 0.45633 0.48887 0.25855 0.0
H709 H 0.62039 0.57572 0.22527 0.0
H710 H 0.59414 0.59499 0.26037 0.0
H711 H 0.61745 0.55366 0.26656 0.0
H712 H 0.52115 0.59552 0.36409 0.0
H713 H 0.5817 0.4977 0.36864 0.0
H714 H 0.48414 0.58822 0.28147 0.0
H715 H 0.52822 0.60981 0.27373 0.0
H716 H 0.50078 0.62117 0.3114 0.0
H717 H 0.56127 0.46739 0.28837 0.0
H718 H 0.60156 0.46801 0.31832 0.0
H719 H 0.60249 0.49225 0.27815 0.0
C720 C 0.12589 0.49193 0.73782 0.0
C721 C 0.10045 0.48192 0.71106 0.0
C722 C 0.11411 0.49401 0.77229 0.0
C723 C 0.07596 0.48567 0.78033 0.0
C724 C 0.04952 0.47731 0.75335 0.0
C725 C 0.0621 0.47555 0.71892 0.0
C726 C 0.14315 0.50331 0.80035 0.0
C727 C 1.00853 0.46857 0.761 0.0
C728 C 0.0685 0.45343 0.8728 0.0
C729 C 0.05895 0.48431 0.89012 0.0
C730 C 0.07166 0.4529 0.83649 0.0
C731 C 0.06491 0.48396 0.81731 0.0
C732 C 0.05256 0.51452 0.83451 0.0
C733 C 0.04977 0.51432 0.87077 0.0
C734 C 0.08474 0.41976 0.81895 0.0
C735 C 0.04477 0.54802 0.81496 0.0
H736 H 0.15576 0.49618 0.73222 0.0
H737 H 0.04226 0.46801 0.69831 0.0
H738 H 0.13211 0.52496 0.81659 0.0
H739 H 0.14826 0.48058 0.8177 0.0
H740 H 0.17098 0.51118 0.78949 0.0
H741 H 0.99058 0.46668 0.73692 0.0
H742 H 1.00768 0.44324 0.77481 0.0
H743 H 0.99578 0.48849 0.77834 0.0
H744 H 0.0755 0.43022 0.88775 0.0
H745 H 0.04155 0.53805 0.88416 0.0
H746 H 0.11435 0.423 0.80964 0.0
H747 H 0.06624 0.41408 0.79592 0.0
H748 H 0.08444 0.39704 0.8368 0.0
H749 H 0.07224 0.55897 0.80628 0.0
H750 H 0.03018 0.56782 0.83129 0.0
H751 H 0.02684 0.54317 0.79137 0.0
C752 C 0.80754 0.92807 0.88162 0.0
C753 C 0.84062 0.91735 0.90029 0.0
C754 C 0.77563 0.94302 0.89853 0.0
C755 C 0.77672 0.94825 0.93513 0.0
C756 C 0.8104 0.93817 0.95398 0.0
C757 C 0.84154 0.92263 0.93651 0.0
C758 C 0.74033 0.95259 0.87724 0.0
C759 C 0.8136 0.94376 0.99276 0.0
C760 C 0.70563 1.0142 0.97467 0.0
C761 C 0.67781 0.99255 0.98899 0.0
C762 C 0.73794 1.00027 0.95757 0.0
C763 C 0.74254 0.96364 0.95377 0.0
C764 C 0.7144 0.9417 0.968 0.0
C765 C 0.68284 0.95629 0.98563 0.0
C766 C 0.76733 0.02484 0.94365 0.0
C767 C 0.71734 0.90263 0.96423 0.0
H768 H 0.80617 0.92389 0.85375 0.0
H769 H 0.86695 0.91485 0.95129 0.0
H770 H 0.71544 0.93788 0.8867 0.0
H771 H 0.73354 0.98069 0.88037 0.0
H772 H 0.74379 0.94695 0.84913 0.0
H773 H 0.84217 0.93596 1.00352 0.0
H774 H 0.8083 0.9716 0.99902 0.0
H775 H 0.79146 0.92846 1.00604 0.0
H776 H 0.70231 0.0422 0.97705 0.0
H777 H 0.66156 0.93916 0.99622 0.0
H778 H 0.76932 0.02172 0.91507 0.0
H779 H 0.79597 0.01845 0.95508 0.0
H780 H 0.76037 0.05252 0.94948 0.0
H781 H 0.7185 0.89553 0.93628 0.0
H782 H 0.69282 0.88909 0.97597 0.0
H783 H 0.74422 0.89291 0.97682 0.0
C784 C 0.82634 0.12546 0.3849 0.0
C785 C 0.79174 0.13378 0.40112 0.0
C786 C 0.85815 0.11202 0.40407 0.0
C787 C 0.85527 0.10596 0.44036 0.0
C788 C 0.82003 0.11347 0.45663 0.0
C789 C 0.789 0.12753 0.43699 0.0
C790 C 0.89517 0.10503 0.3856 0.0
C791 C 0.81511 0.10682 0.49495 0.0
C792 C 0.92839 0.04361 0.48386 0.0
C793 C 0.95384 0.0666 0.50056 0.0
C794 C 0.89607 0.05596 0.46473 0.0
C795 C 0.88917 0.09231 0.46138 0.0
C796 C 0.91475 0.11564 0.47824 0.0
C797 C 0.94639 0.10256 0.49782 0.0
C798 C 0.86933 0.03 0.44797 0.0
C799 C 0.9091 0.15455 0.47507 0.0
H800 H 0.82893 0.13048 0.35732 0.0
H801 H 0.76233 0.13355 0.44975 0.0
H802 H 0.91827 0.1211 0.39734 0.0
H803 H 0.90391 0.07735 0.38886 0.0
H804 H 0.89287 0.11094 0.35737 0.0
H805 H 0.78549 0.11255 0.50344 0.0
H806 H 0.8222 0.07923 0.50109 0.0
H807 H 0.83518 0.1232 0.51034 0.0
H808 H 0.93372 0.0158 0.48574 0.0
H809 H 0.96596 0.12065 0.51024 0.0
H810 H 0.86888 0.03346 0.41934 0.0
H811 H 0.83971 0.03462 0.45696 0.0
H812 H 0.87778 1.00265 0.45399 0.0
H813 H 0.90931 0.16224 0.44727 0.0
H814 H 0.93164 0.16927 0.48935 0.0
H815 H 0.88079 0.16232 0.48532 0.0
C816 C 0.34738 0.56105 0.09091 0.0
C817 C 0.35913 0.59573 0.09459 0.0
C818 C 0.30846 0.55274 0.08813 0.0
C819 C 0.28062 0.57981 0.08816 0.0
C820 C 0.29224 0.61492 0.09048 0.0
C821 C 0.3313 0.62244 0.09408 0.0
C822 C 0.2971 0.51495 0.08604 0.0
C823 C 0.26336 0.64451 0.08993 0.0
C824 C 0.18177 0.55778 0.0528 0.0
C825 C 0.16136 0.55329 0.08347 0.0
C826 C 0.22043 0.56714 0.05392 0.0
C827 C 0.23928 0.57131 0.08652 0.0
C828 C 0.21879 0.56687 0.1176 0.0
C829 C 0.17987 0.5583 0.11569 0.0
C830 C 0.24111 0.57248 0.02026 0.0
C831 C 0.23816 0.57051 0.15284 0.0
H832 H 0.36863 0.54027 0.09069 0.0
H833 H 0.33984 0.64927 0.09757 0.0
H834 H 0.27882 0.50843 0.10834 0.0
H835 H 0.27994 0.51023 0.06196 0.0
H836 H 0.32229 0.49701 0.08628 0.0
H837 H 0.27722 0.67041 0.08943 0.0
H838 H 0.24402 0.64227 0.06682 0.0
H839 H 0.24532 0.64316 0.11328 0.0
H840 H 0.16741 0.55423 0.02782 0.0
H841 H 0.16417 0.55465 0.13943 0.0
H842 H 0.26501 0.55336 1.01822 0.0
H843 H 0.25378 0.59885 1.0198 0.0
H844 H 0.22187 0.56958 0.99711 0.0
H845 H 0.26228 0.55155 0.15525 0.0
H846 H 0.2182 0.56608 0.17449 0.0
H847 H 0.25036 0.59693 0.15572 0.0
C848 C 0.29206 0.52153 0.63169 0.0
C849 C 0.26934 0.49176 0.63062 0.0
C850 C 0.3285 0.52128 0.61708 0.0
C851 C 0.34225 0.49057 0.60086 0.0
C852 C 0.31838 0.46113 0.59785 0.0
C853 C 0.28206 0.4621 0.6128 0.0
C854 C 0.35301 0.55329 0.62064 0.0
C855 C 0.3319 0.42809 0.58041 0.0
C856 C 0.43211 0.50256 0.54864 0.0
C857 C 0.46072 0.49419 0.57348 0.0
C858 C 0.39319 0.49983 0.55651 0.0
C859 C 0.38277 0.48856 0.59 0.0
C860 C 0.4115 0.47822 0.61446 0.0
C861 C 0.45012 0.48111 0.60588 0.0
C862 C 0.36333 0.51073 0.52965 0.0
C863 C 0.40152 0.46589 0.65042 0.0
H864 H 0.28192 0.54457 0.64516 0.0
H865 H 0.26411 0.43925 0.61178 0.0
H866 H 0.37811 0.54745 0.63789 0.0
H867 H 0.36411 0.56092 0.59496 0.0
H868 H 0.33706 0.57579 0.63169 0.0
H869 H 0.30837 0.40918 0.57654 0.0
H870 H 0.34438 0.434 0.55482 0.0
H871 H 0.35477 0.41558 0.59666 0.0
H872 H 0.44005 0.51251 0.52345 0.0
H873 H 0.47202 0.47435 0.62515 0.0
H874 H 0.3497 0.53561 0.53776 0.0
H875 H 0.34043 0.49102 0.52754 0.0
H876 H 0.3758 0.51447 0.50358 0.0
H877 H 0.38831 0.48767 0.66511 0.0
H878 H 0.42704 0.45625 0.66536 0.0
H879 H 0.38025 0.44471 0.64873 0.0
C880 C 1.0069 0.77076 0.94325 0.0
C881 C 0.96923 0.78204 0.93535 0.0
C882 C 0.0148 0.73912 0.96097 0.0
C883 C 0.9844 0.71761 0.97162 0.0
C884 C 0.94623 0.7286 0.96338 0.0
C885 C 0.93913 0.76063 0.94574 0.0
C886 C 0.05593 0.72909 0.96902 0.0
C887 C 0.91274 0.70678 0.97381 0.0
C888 C 1.00946 0.62145 0.99163 0.0
C889 C 0.01283 0.62077 0.02822 0.0
C890 C 0.99951 0.65226 0.97318 0.0
C891 C 0.99282 0.68389 0.99134 0.0
C892 C 0.99588 0.68339 0.0283 0.0
C893 C 1.00564 0.65205 0.04618 0.0
C894 C 0.99654 0.65095 0.934 0.0
C895 C 0.9894 0.71622 0.04905 0.0
H896 H 0.03048 0.78729 0.93626 0.0
H897 H 0.90992 0.76932 0.9407 0.0
H898 H 0.06054 0.72712 0.99758 0.0
H899 H 0.06251 0.70311 0.95782 0.0
H900 H 0.07642 0.74819 0.95863 0.0
H901 H 0.88495 0.71793 0.96438 0.0
H902 H 0.91592 0.67999 0.96332 0.0
H903 H 0.91215 0.70464 1.00255 0.0
H904 H 0.01472 0.5977 0.97714 0.0
H905 H 1.00806 0.6522 0.07431 0.0
H906 H 0.01818 0.66829 0.92265 0.0
H907 H 0.96796 0.66064 0.92507 0.0
H908 H 1.00101 0.62421 0.92365 0.0
H909 H 1.0107 0.73604 0.04184 0.0
H910 H 0.99176 0.71161 0.07753 0.0
H911 H 0.96061 0.72731 0.04284 0.0
C912 C 0.44427 0.70903 0.09762 0.0
C913 C 0.46754 0.67986 0.09115 0.0
C914 C 0.45843 0.7428 0.0943 0.0
C915 C 0.49669 0.74747 0.08395 0.0
C916 C 0.52004 0.71814 0.07645 0.0
C917 C 0.50522 0.68458 0.08037 0.0
C918 C 0.43273 0.77346 0.10273 0.0
C919 C 0.56076 0.72222 0.06483 0.0
C920 C 0.51706 0.83718 0.0489 0.0
C921 C 0.53334 0.85351 0.07815 0.0
C922 C 0.50654 0.80215 0.04996 0.0
C923 C 0.51202 0.78319 0.0812 0.0
C924 C 0.52963 0.79925 0.11051 0.0
C925 C 0.5404 0.8343 0.10854 0.0
C926 C 0.48839 0.78578 1.01803 0.0
C927 C 0.53561 0.77986 0.14435 0.0
H928 H 0.41536 0.70541 0.10659 0.0
H929 H 0.52318 0.66198 0.07534 0.0
H930 H 0.44555 0.78869 0.12447 0.0
H931 H 0.43003 0.7911 0.07997 0.0
H932 H 0.40361 0.76532 0.11019 0.0
H933 H 0.5746 0.6968 0.05869 0.0
H934 H 0.56146 0.73907 0.04144 0.0
H935 H 0.57792 0.73522 0.08554 0.0
H936 H 0.51218 0.85204 0.02522 0.0
H937 H 0.55297 0.84706 0.13111 0.0
H938 H 0.45807 0.77963 0.02316 0.0
H939 H 0.50319 0.76091 1.01172 0.0
H940 H 0.48922 0.80317 0.99499 0.0
H941 H 0.50743 0.7732 0.15522 0.0
H942 H 0.5518 0.79538 0.16396 0.0
H943 H 0.55129 0.75502 0.13987 0.0
C944 C 0.08433 0.38063 0.61273 0.0
C945 C 0.12126 0.39121 0.62244 0.0
C946 C 0.0765 0.3454 0.60656 0.0
C947 C 0.10619 0.3203 0.61093 0.0
C948 C 0.14377 0.33102 0.61985 0.0
C949 C 0.15091 0.36647 0.62526 0.0
C950 C 0.03629 0.33496 0.59635 0.0
C951 C 0.17606 0.30494 0.6251 0.0
C952 C 0.07994 0.22737 0.6329 0.0
C953 C 0.08614 0.2106 0.60118 0.0
C954 C 0.08606 0.26328 0.63639 0.0
C955 C 0.09785 0.28269 0.60723 0.0
C956 C 0.1029 0.26593 0.57486 0.0
C957 C 0.0973 0.22997 0.57231 0.0
C958 C 0.0809 0.28027 0.67144 0.0
C959 C 0.11471 0.28589 0.54307 0.0
H960 H 0.06147 0.3999 0.61065 0.0
H961 H 0.17932 0.37468 0.63335 0.0
H962 H 0.03663 0.31865 0.57251 0.0
H963 H 0.02395 0.31902 0.6173 0.0
H964 H 0.01721 0.35788 0.59155 0.0
H965 H 0.20384 0.31767 0.63101 0.0
H966 H 0.16937 0.28723 0.64689 0.0
H967 H 0.17925 0.28861 0.6015 0.0
H968 H 0.0714 0.21221 0.65516 0.0
H969 H 0.10159 0.21688 0.54766 0.0
H970 H 0.05976 0.30198 0.6693 0.0
H971 H 0.10841 0.29157 0.68059 0.0
H972 H 0.07108 0.2616 0.69133 0.0
H973 H 0.09466 0.30806 0.53821 0.0
H974 H 0.11533 0.26926 0.51942 0.0
H975 H 0.1436 0.29694 0.54747 0.0
C976 C 0.62022 0.27134 0.43944 0.0
C977 C 0.65784 0.26247 0.43027 0.0
C978 C 0.61155 0.30279 0.45676 0.0
C979 C 0.6412 0.32632 0.4656 0.0
C980 C 0.67935 0.31752 0.45649 0.0
C981 C 0.68724 0.28565 0.43932 0.0
C982 C 0.57053 0.31066 0.46595 0.0
C983 C 0.71191 0.34169 0.46513 0.0
C984 C 0.6109 0.42133 0.48074 0.0
C985 C 0.61021 0.4239 0.51726 0.0
C986 C 0.62166 0.39022 0.46383 0.0
C987 C 0.63192 0.36031 0.48363 0.0
C988 C 0.63163 0.3627 0.52053 0.0
C989 C 0.62096 0.39437 0.53685 0.0
C990 C 0.62162 0.3893 0.42457 0.0
C991 C 0.64206 0.33157 0.5428 0.0
H992 H 0.59741 0.25326 0.43346 0.0
H993 H 0.71652 0.27867 0.43328 0.0
H994 H 0.56828 0.31425 0.49447 0.0
H995 H 0.56089 0.33537 0.45346 0.0
H996 H 0.55079 0.28963 0.4576 0.0
H997 H 0.73983 0.33146 0.45598 0.0
H998 H 0.70638 0.36755 0.45306 0.0
H999 H 0.71398 0.34575 0.49366 0.0
H1000 H 0.6029 0.44382 0.46508 0.0
H1001 H 0.62064 0.39586 0.56498 0.0
H1002 H 0.60048 0.37007 0.41487 0.0
H1003 H 0.65013 0.38077 0.41535 0.0
H1004 H 0.61444 0.41506 0.41287 0.0
H1005 H 0.6217 0.31017 0.5374 0.0
H1006 H 0.6416 0.33774 0.57102 0.0
H1007 H 0.67103 0.32175 0.53628 0.0
loop_
_geom_bond_atom_site_label_1
_geom_bond_atom_site_label_2
_geom_bond_distance
_geom_bond_site_symmetry_2
_ccdc_geom_bond_type
H0 C7 0.929 . S
H1 C10 0.930 . S
H2 C12 0.929 . S
H3 C4 0.969 . S
C4 H3 0.969 . S
C4 O5 1.550 . S
C4 H6 0.973 . S
O5 C4 1.550 . S
O5 C11 1.412 . S
H6 C4 0.973 . S
C7 H0 0.929 . S
C7 C8 1.400 . S
C7 C9 1.364 . S
C8 C7 1.400 . S
C8 C12 1.377 . S
C9 C7 1.364 . S
C9 C10 1.374 . S
C10 H1 0.930 . S
C10 C9 1.374 . S
C10 C11 1.383 . S
C11 O5 1.412 . S
C11 C10 1.383 . S
C11 C12 1.394 . S
C12 H2 0.929 . S
C12 C8 1.377 . S
C12 C11 1.394 . S
H13 C20 0.929 . S
H14 C23 0.930 . S
H15 C25 0.929 . S
H16 C17 0.969 . S
C17 H16 0.969 . S
C17 O18 1.550 . S
C17 H19 0.973 . S
O18 C17 1.550 . S
O18 C24 1.412 . S
H19 C17 0.973 . S
C20 H13 0.929 . S
C20 C21 1.400 . S
C20 C22 1.364 . S
C21 C20 1.400 . S
C21 C25 1.377 . S
C22 C20 1.364 . S
C22 C23 1.374 . S
C23 H14 0.930 . S
C23 C22 1.374 . S
C23 C24 1.383 . S
C24 O18 1.412 . S
C24 C23 1.383 . S
C24 C25 1.394 . S
C25 H15 0.929 . S
C25 C21 1.377 . S
C25 C24 1.394 . S
H26 C33 0.929 . S
H27 C36 0.930 . S
H28 C38 0.929 . S
H29 C30 0.969 . S
C30 H29 0.969 . S
C30 O31 1.550 . S
C30 H32 0.973 . S
O31 C30 1.550 . S
O31 C37 1.412 . S
H32 C30 0.973 . S
C33 H26 0.929 . S
C33 C34 1.400 . S
C33 C35 1.364 . S
C34 C33 1.400 . S
C34 C38 1.377 . S
C35 C33 1.364 . S
C35 C36 1.374 . S
C36 H27 0.930 . S
C36 C35 1.374 . S
C36 C37 1.383 . S
C37 O31 1.412 . S
C37 C36 1.383 . S
C37 C38 1.394 . S
C38 H28 0.929 . S
C38 C34 1.377 . S
C38 C37 1.394 . S
H39 C46 0.929 . S
H40 C49 0.930 . S
H41 C51 0.929 . S
H42 C43 0.969 . S
C43 H42 0.969 . S
C43 O44 1.550 . S
C43 H45 0.973 . S
O44 C43 1.550 . S
O44 C50 1.412 . S
H45 C43 0.973 . S
C46 H39 0.929 . S
C46 C47 1.400 . S
C46 C48 1.364 . S
C47 C46 1.400 . S
C47 C51 1.377 . S
C48 C46 1.364 . S
C48 C49 1.374 . S
C49 H40 0.930 . S
C49 C48 1.374 . S
C49 C50 1.383 . S
C50 O44 1.412 . S
C50 C49 1.383 . S
C50 C51 1.394 . S
C51 H41 0.929 . S
C51 C47 1.377 . S
C51 C50 1.394 . S
H52 C59 0.929 . S
H53 C62 0.930 . S
H54 C64 0.929 . S
H55 C56 0.969 . S
C56 H55 0.969 . S
C56 O57 1.550 . S
C56 H58 0.973 . S
O57 C56 1.550 . S
O57 C63 1.412 . S
H58 C56 0.973 . S
C59 H52 0.929 . S
C59 C60 1.400 . S
C59 C61 1.364 . S
C60 C59 1.400 . S
C60 C64 1.377 . S
C61 C59 1.364 . S
C61 C62 1.374 . S
C62 H53 0.930 . S
C62 C61 1.374 . S
C62 C63 1.383 . S
C63 O57 1.412 . S
C63 C62 1.383 . S
C63 C64 1.394 . S
C64 H54 0.929 . S
C64 C60 1.377 . S
C64 C63 1.394 . S
H65 C72 0.929 . S
H66 C75 0.930 . S
H67 C77 0.929 . S
H68 C69 0.969 . S
C69 H68 0.969 . S
C69 O70 1.550 . S
C69 H71 0.973 . S
O70 C69 1.550 . S
O70 C76 1.412 . S
H71 C69 0.973 . S
C72 H65 0.929 . S
C72 C73 1.400 . S
C72 C74 1.364 . S
C73 C72 1.400 . S
C73 C77 1.377 . S
C74 C72 1.364 . S
C74 C75 1.374 . S
C75 H66 0.930 . S
C75 C74 1.374 . S
C75 C76 1.383 . S
C76 O70 1.412 . S
C76 C75 1.383 . S
C76 C77 1.394 . S
C77 H67 0.929 . S
C77 C73 1.377 . S
C77 C76 1.394 . S
H78 C85 0.929 . S
H79 C88 0.930 . S
H80 C90 0.929 . S
H81 C82 0.969 . S
C82 H81 0.969 . S
C82 O83 1.550 . S
C82 H84 0.973 . S
O83 C82 1.550 . S
O83 C89 1.412 . S
H84 C82 0.973 . S
C85 H78 0.929 . S
C85 C86 1.400 . S
C85 C87 1.364 . S
C86 C85 1.400 . S
C86 C90 1.377 . S
C87 C85 1.364 . S
C87 C88 1.374 . S
C88 H79 0.930 . S
C88 C87 1.374 . S
C88 C89 1.383 . S
C89 O83 1.412 . S
C89 C88 1.383 . S
C89 C90 1.394 . S
C90 H80 0.929 . S
C90 C86 1.377 . S
C90 C89 1.394 . S
H91 C98 0.929 . S
H92 C101 0.930 . S
H93 C103 0.929 . S
H94 C95 0.969 . S
C95 H94 0.969 . S
C95 O96 1.550 . S
C95 H97 0.973 . S
O96 C95 1.550 . S
O96 C102 1.412 . S
H97 C95 0.973 . S
C98 H91 0.929 . S
C98 C99 1.400 . S
C98 C100 1.364 . S
C99 C98 1.400 . S
C99 C103 1.377 . S
C100 C98 1.364 . S
C100 C101 1.374 . S
C101 H92 0.930 . S
C101 C100 1.374 . S
C101 C102 1.383 . S
C102 O96 1.412 . S
C102 C101 1.383 . S
C102 C103 1.394 . S
C103 H93 0.929 . S
C103 C99 1.377 . S
C103 C102 1.394 . S
C104 O120 1.251 . S
C104 O122 1.254 . S
N105 C106 1.333 . S
N105 C110 1.307 . S
N105 Zn111 2.020 . S
C106 N105 1.333 . S
C106 C107 1.379 . S
C106 H124 0.952 . S
C107 C106 1.379 . S
C107 C108 1.390 . S
C107 H134 0.949 . S
C108 C107 1.390 . S
C108 C109 1.357 . S
C109 C108 1.357 . S
C109 C110 1.370 . S
C109 H135 0.950 . S
C110 N105 1.307 . S
C110 C109 1.370 . S
C110 H128 0.948 . S
Zn111 N105 2.020 . S
Zn111 O120 2.039 . S
Zn111 O126 2.034 . S
Zn111 O130 2.025 . S
Zn111 O132 2.024 1_455 S
C112 O131 1.246 . S
C112 O132 1.249 . S
N113 C114 1.306 1_655 S
N113 C115 1.334 . S
N113 Zn119 2.019 1_655 S
C114 N113 1.306 1_455 S
C114 C118 1.370 . S
C114 H125 0.948 . S
C115 N113 1.334 . S
C115 C116 1.379 . S
C115 H123 0.952 . S
C116 C115 1.379 . S
C116 C117 1.390 . S
C116 H136 0.949 . S
C117 C116 1.390 . S
C117 C118 1.357 1_655 S
C118 C114 1.370 . S
C118 C117 1.357 1_455 S
C118 H137 0.950 . S
Zn119 N113 2.019 1_455 S
Zn119 O122 2.025 1_565 S
Zn119 O127 2.024 . S
Zn119 O129 2.039 . S
Zn119 O131 2.034 1_465 S
O120 C104 1.251 . S
O120 Zn111 2.039 . S
C121 O126 1.246 . S
C121 O127 1.249 1_545 S
O122 C104 1.254 . S
O122 Zn119 2.025 1_545 S
H123 C115 0.952 . S
H124 C106 0.952 . S
H125 C114 0.948 . S
O126 Zn111 2.034 . S
O126 C121 1.246 . S
O127 Zn119 2.024 . S
O127 C121 1.249 1_565 S
H128 C110 0.948 . S
O129 Zn119 2.039 . S
O129 C133 1.251 1_565 S
O130 Zn111 2.025 . S
O130 C133 1.254 . S
O131 C112 1.246 . S
O131 Zn119 2.034 1_645 S
O132 Zn111 2.024 1_655 S
O132 C112 1.249 . S
C133 O129 1.251 1_545 S
C133 O130 1.254 . S
H134 C107 0.949 . S
H135 C109 0.950 . S
H136 C116 0.949 . S
H137 C118 0.950 . S
C138 O154 1.254 1_565 S
C138 O156 1.254 . S
N139 C140 1.333 . S
N139 C144 1.307 . S
N139 Zn145 2.020 1_556 S
C140 N139 1.333 . S
C140 C141 1.379 . S
C140 H158 0.952 1_556 S
C141 C140 1.379 . S
C141 C142 1.390 . S
C141 H168 0.949 . S
C142 C141 1.390 . S
C142 C143 1.357 . S
C143 C142 1.357 . S
C143 C144 1.370 . S
C143 H169 0.950 . S
C144 N139 1.307 . S
C144 C143 1.370 . S
C144 H162 0.948 . S
Zn145 N139 2.020 1_554 S
Zn145 O154 2.044 . S
Zn145 O160 2.034 . S
Zn145 O164 2.025 . S
Zn145 O166 2.024 1_554 S
C146 O165 1.246 1_545 S
C146 O166 1.249 . S
N147 C148 1.307 . S
N147 C149 1.333 . S
N147 Zn153 2.020 . S
C148 N147 1.307 . S
C148 C152 1.370 . S
C148 H159 0.948 . S
C149 N147 1.333 . S
C149 C150 1.379 . S
C149 H157 0.952 . S
C150 C149 1.379 . S
C150 C151 1.390 . S
C150 H170 0.949 . S
C151 C150 1.390 . S
C151 C152 1.357 . S
C152 C148 1.370 . S
C152 C151 1.357 . S
C152 H171 0.950 . S
Zn153 N147 2.020 . S
Zn153 O156 2.025 . S
Zn153 O161 2.016 1_565 S
Zn153 O163 2.039 1_565 S
Zn153 O165 2.034 1_554 S
O154 C138 1.254 1_545 S
O154 Zn145 2.044 . S
C155 O160 1.246 . S
C155 O161 1.272 . S
O156 C138 1.254 . S
O156 Zn153 2.025 . S
H157 C149 0.952 . S
H158 C140 0.952 1_554 S
H159 C148 0.948 . S
O160 Zn145 2.034 . S
O160 C155 1.246 . S
O161 Zn153 2.016 1_545 S
O161 C155 1.272 . S
H162 C144 0.948 . S
O163 Zn153 2.039 1_545 S
O163 C167 1.251 . S
O164 Zn145 2.025 . S
O164 C167 1.254 . S
O165 C146 1.246 1_565 S
O165 Zn153 2.034 1_556 S
O166 Zn145 2.024 1_556 S
O166 C146 1.249 . S
C167 O163 1.251 . S
C167 O164 1.254 . S
H168 C141 0.949 . S
H169 C143 0.950 . S
H170 C150 0.949 . S
H171 C152 0.950 . S
C172 O188 1.251 . S
C172 O190 1.254 . S
N173 C174 1.333 . S
N173 C178 1.307 . S
N173 Zn179 2.020 . S
C174 N173 1.333 . S
C174 C175 1.379 . S
C174 H192 0.952 . S
C175 C174 1.379 . S
C175 C176 1.390 . S
C175 H202 0.949 . S
C176 C175 1.390 . S
C176 C177 1.357 . S
C177 C176 1.357 . S
C177 C178 1.370 . S
C177 H203 0.950 . S
C178 N173 1.307 . S
C178 C177 1.370 . S
C178 H196 0.948 . S
Zn179 N173 2.020 . S
Zn179 O188 2.039 . S
Zn179 O194 2.034 . S
Zn179 O198 2.025 . S
Zn179 O200 2.024 . S
C180 O199 1.246 . S
C180 O200 1.249 . S
N181 C182 1.307 . S
N181 C183 1.333 . S
N181 Zn187 2.020 . S
C182 N181 1.307 . S
C182 C186 1.370 . S
C182 H193 0.948 . S
C183 N181 1.333 . S
C183 C184 1.379 . S
C183 H191 0.952 . S
C184 C183 1.379 . S
C184 C185 1.390 . S
C184 H204 0.949 . S
C185 C184 1.390 . S
C185 C186 1.357 . S
C186 C182 1.370 . S
C186 C185 1.357 . S
C186 H205 0.950 . S
Zn187 N181 2.020 . S
Zn187 O190 2.025 . S
Zn187 O195 2.024 . S
Zn187 O197 2.039 . S
Zn187 O199 2.034 . S
O188 C172 1.251 . S
O188 Zn179 2.039 . S
C189 O194 1.246 . S
C189 O195 1.249 . S
O190 C172 1.254 . S
O190 Zn187 2.025 . S
H191 C183 0.952 . S
H192 C174 0.952 . S
H193 C182 0.948 . S
O194 Zn179 2.034 . S
O194 C189 1.246 . S
O195 Zn187 2.024 . S
O195 C189 1.249 . S
H196 C178 0.948 . S
O197 Zn187 2.039 . S
O197 C201 1.251 . S
O198 Zn179 2.025 . S
O198 C201 1.254 . S
O199 C180 1.246 . S
O199 Zn187 2.034 . S
O200 Zn179 2.024 . S
O200 C180 1.249 . S
C201 O197 1.251 . S
C201 O198 1.254 . S
H202 C175 0.949 . S
H203 C177 0.950 . S
H204 C184 0.949 . S
H205 C186 0.950 . S
C206 O222 1.251 . S
C206 O224 1.254 1_554 S
N207 C208 1.333 . S
N207 C212 1.307 . S
N207 Zn213 2.020 . S
C208 N207 1.333 . S
C208 C209 1.379 . S
C208 H226 0.952 . S
C209 C208 1.379 . S
C209 C210 1.390 1_455 S
C209 H236 0.949 . S
C210 C209 1.390 1_655 S
C210 C211 1.357 . S
C211 C210 1.357 . S
C211 C212 1.370 1_655 S
C211 H237 0.950 . S
C212 N207 1.307 . S
C212 C211 1.370 1_455 S
C212 H230 0.948 . S
Zn213 N207 2.020 . S
Zn213 O222 2.039 . S
Zn213 O228 2.034 . S
Zn213 O232 2.025 . S
Zn213 O234 2.024 1_455 S
C214 O233 1.246 1_654 S
C214 O234 1.249 . S
N215 C216 1.307 . S
N215 C217 1.333 . S
N215 Zn221 2.020 . S
C216 N215 1.307 . S
C216 C220 1.370 . S
C216 H227 0.948 . S
C217 N215 1.333 . S
C217 C218 1.379 . S
C217 H225 0.952 . S
C218 C217 1.379 . S
C218 C219 1.390 . S
C218 H238 0.949 . S
C219 C218 1.390 . S
C219 C220 1.357 . S
C220 C216 1.370 . S
C220 C219 1.357 . S
C220 H239 0.950 . S
Zn221 N215 2.020 . S
Zn221 O224 2.025 . S
Zn221 O229 2.024 1_556 S
Zn221 O231 2.039 1_556 S
Zn221 O233 2.034 . S
O222 C206 1.251 . S
O222 Zn213 2.039 . S
C223 O228 1.246 . S
C223 O229 1.249 . S
O224 C206 1.254 1_556 S
O224 Zn221 2.025 . S
H225 C217 0.952 . S
H226 C208 0.952 . S
H227 C216 0.948 . S
O228 Zn213 2.034 . S
O228 C223 1.246 . S
O229 Zn221 2.024 1_554 S
O229 C223 1.249 . S
H230 C212 0.948 . S
O231 Zn221 2.039 1_554 S
O231 C235 1.251 . S
O232 Zn213 2.025 . S
O232 C235 1.254 . S
O233 C214 1.246 1_456 S
O233 Zn221 2.034 . S
O234 Zn213 2.024 1_655 S
O234 C214 1.249 . S
C235 O231 1.251 . S
C235 O232 1.254 . S
H236 C209 0.949 . S
H237 C211 0.950 . S
H238 C218 0.949 . S
H239 C220 0.950 . S
C240 C241 1.391 . S
C240 C242 1.394 . S
C240 H256 0.931 . S
C241 C240 1.391 . S
C241 C245 1.376 . S
C242 C240 1.394 . S
C242 C243 1.369 . S
C242 C246 1.531 . S
C243 C242 1.369 . S
C243 C244 1.410 . S
C243 C251 1.503 . S
C244 C243 1.410 . S
C244 C245 1.392 . S
C244 C247 1.511 . S
C245 C241 1.376 . S
C245 C244 1.392 . S
C245 H257 0.929 . S
C246 C242 1.531 . S
C246 H258 0.960 . S
C246 H259 0.962 . S
C246 H260 0.960 . S
C247 C244 1.511 . S
C247 H261 0.961 . S
C247 H262 0.961 . S
C247 H263 0.961 . S
C248 C249 1.370 . S
C248 C250 1.363 . S
C248 H264 0.931 . S
C249 C248 1.370 . S
C249 C253 1.408 . S
C250 C248 1.363 . S
C250 C251 1.370 . S
C250 C254 1.524 . S
C251 C243 1.503 . S
C251 C250 1.370 . S
C251 C252 1.403 . S
C252 C251 1.403 . S
C252 C253 1.404 . S
C252 C255 1.539 . S
C253 C249 1.408 . S
C253 C252 1.404 . S
C253 H265 0.930 . S
C254 C250 1.524 . S
C254 H266 0.956 . S
C254 H267 0.961 . S
C254 H268 0.961 . S
C255 C252 1.539 . S
C255 H269 0.958 . S
C255 H270 0.961 1_455 S
C255 H271 0.960 . S
H256 C240 0.931 . S
H257 C245 0.929 . S
H258 C246 0.960 . S
H259 C246 0.962 . S
H260 C246 0.960 . S
H261 C247 0.961 . S
H262 C247 0.961 . S
H263 C247 0.961 . S
H264 C248 0.931 . S
H265 C253 0.930 . S
H266 C254 0.956 . S
H267 C254 0.961 . S
H268 C254 0.961 . S
H269 C255 0.958 . S
H270 C255 0.961 1_655 S
H271 C255 0.960 . S
C272 C273 1.391 . S
C272 C274 1.394 . S
C272 H288 0.931 . S
C273 C272 1.391 . S
C273 C277 1.376 . S
C274 C272 1.394 . S
C274 C275 1.369 . S
C274 C278 1.531 . S
C275 C274 1.369 . S
C275 C276 1.410 . S
C275 C283 1.503 . S
C276 C275 1.410 . S
C276 C277 1.392 . S
C276 C279 1.511 . S
C277 C273 1.376 . S
C277 C276 1.392 . S
C277 H289 0.929 . S
C278 C274 1.531 . S
C278 H290 0.960 . S
C278 H291 0.962 . S
C278 H292 0.960 . S
C279 C276 1.511 . S
C279 H293 0.961 . S
C279 H294 0.961 . S
C279 H295 0.961 . S
C280 C281 1.370 1_545 S
C280 C282 1.363 1_545 S
C280 H296 0.931 . S
C281 C280 1.370 1_565 S
C281 C285 1.408 . S
C282 C280 1.363 1_565 S
C282 C283 1.370 . S
C282 C286 1.524 1_565 S
C283 C275 1.503 . S
C283 C282 1.370 . S
C283 C284 1.403 . S
C284 C283 1.403 . S
C284 C285 1.404 . S
C284 C287 1.539 . S
C285 C281 1.408 . S
C285 C284 1.404 . S
C285 H297 0.930 . S
C286 C282 1.524 1_545 S
C286 H298 0.956 . S
C286 H299 0.961 . S
C286 H300 0.961 . S
C287 C284 1.539 . S
C287 H301 0.958 . S
C287 H302 0.961 . S
C287 H303 0.960 . S
H288 C272 0.931 . S
H289 C277 0.929 . S
H290 C278 0.960 . S
H291 C278 0.962 . S
H292 C278 0.960 . S
H293 C279 0.961 . S
H294 C279 0.961 . S
H295 C279 0.961 . S
H296 C280 0.931 . S
H297 C285 0.930 . S
H298 C286 0.956 . S
H299 C286 0.961 . S
H300 C286 0.961 . S
H301 C287 0.958 . S
H302 C287 0.961 . S
H303 C287 0.960 . S
C304 C305 1.391 . S
C304 C306 1.394 . S
C304 H320 0.931 . S
C305 C304 1.391 . S
C305 C309 1.376 . S
C306 C304 1.394 . S
C306 C307 1.369 . S
C306 C310 1.531 . S
C307 C306 1.369 . S
C307 C308 1.410 . S
C307 C315 1.503 . S
C308 C307 1.410 . S
C308 C309 1.392 . S
C308 C311 1.511 . S
C309 C305 1.376 . S
C309 C308 1.392 . S
C309 H321 0.929 . S
C310 C306 1.531 . S
C310 H322 0.960 . S
C310 H323 0.962 . S
C310 H324 0.960 . S
C311 C308 1.511 . S
C311 H325 0.961 . S
C311 H326 0.961 . S
C311 H327 0.961 . S
C312 C313 1.370 . S
C312 C314 1.363 . S
C312 H328 0.931 . S
C313 C312 1.370 . S
C313 C317 1.408 . S
C314 C312 1.363 . S
C314 C315 1.370 . S
C314 C318 1.524 . S
C315 C307 1.503 . S
C315 C314 1.370 . S
C315 C316 1.403 . S
C316 C315 1.403 . S
C316 C317 1.404 . S
C316 C319 1.539 . S
C317 C313 1.408 . S
C317 C316 1.404 . S
C317 H329 0.930 . S
C318 C314 1.524 . S
C318 H330 0.956 . S
C318 H331 0.961 . S
C318 H332 0.961 . S
C319 C316 1.539 . S
C319 H333 0.958 . S
C319 H334 0.961 . S
C319 H335 0.960 . S
H320 C304 0.931 . S
H321 C309 0.929 . S
H322 C310 0.960 . S
H323 C310 0.962 . S
H324 C310 0.960 . S
H325 C311 0.961 . S
H326 C311 0.961 . S
H327 C311 0.961 . S
H328 C312 0.931 . S
H329 C317 0.930 . S
H330 C318 0.956 . S
H331 C318 0.961 . S
H332 C318 0.961 . S
H333 C319 0.958 . S
H334 C319 0.961 . S
H335 C319 0.960 . S
C336 C337 1.391 . S
C336 C338 1.394 . S
C336 H352 0.936 . S
C337 C336 1.391 . S
C337 C341 1.376 . S
C338 C336 1.394 . S
C338 C339 1.369 . S
C338 C342 1.531 1_655 S
C339 C338 1.369 . S
C339 C340 1.410 . S
C339 C347 1.503 . S
C340 C339 1.410 . S
C340 C341 1.392 . S
C340 C343 1.511 . S
C341 C337 1.376 . S
C341 C340 1.392 . S
C341 H353 0.929 . S
C342 C338 1.531 1_455 S
C342 H354 0.960 . S
C342 H355 0.962 . S
C342 H356 0.960 . S
C343 C340 1.511 . S
C343 H357 0.961 . S
C343 H358 0.961 . S
C343 H359 0.961 . S
C344 C345 1.370 . S
C344 C346 1.363 . S
C344 H360 0.931 1_655 S
C345 C344 1.370 . S
C345 C349 1.408 . S
C346 C344 1.363 . S
C346 C347 1.370 . S
C346 C350 1.524 . S
C347 C339 1.503 . S
C347 C346 1.370 . S
C347 C348 1.403 . S
C348 C347 1.403 . S
C348 C349 1.404 . S
C348 C351 1.539 . S
C349 C345 1.408 . S
C349 C348 1.404 . S
C349 H361 0.930 . S
C350 C346 1.524 . S
C350 H362 0.956 1_655 S
C350 H363 0.961 . S
C350 H364 0.961 . S
C351 C348 1.539 . S
C351 H365 0.958 . S
C351 H366 0.961 . S
C351 H367 0.960 . S
H352 C336 0.936 . S
H353 C341 0.929 . S
H354 C342 0.960 . S
H355 C342 0.962 . S
H356 C342 0.960 . S
H357 C343 0.961 . S
H358 C343 0.961 . S
H359 C343 0.961 . S
H360 C344 0.931 1_455 S
H361 C349 0.930 . S
H362 C350 0.956 1_455 S
H363 C350 0.961 . S
H364 C350 0.961 . S
H365 C351 0.958 . S
H366 C351 0.961 . S
H367 C351 0.960 . S
C368 C369 1.391 . S
C368 C370 1.394 . S
C368 H384 0.931 . S
C369 C368 1.391 . S
C369 C373 1.376 . S
C370 C368 1.394 . S
C370 C371 1.369 . S
C370 C374 1.531 . S
C371 C370 1.369 . S
C371 C372 1.410 . S
C371 C379 1.503 . S
C372 C371 1.410 . S
C372 C373 1.392 . S
C372 C375 1.511 . S
C373 C369 1.376 . S
C373 C372 1.392 . S
C373 H385 0.929 . S
C374 C370 1.531 . S
C374 H386 0.960 . S
C374 H387 0.962 . S
C374 H388 0.960 . S
C375 C372 1.511 . S
C375 H389 0.961 . S
C375 H390 0.961 . S
C375 H391 0.961 . S
C376 C377 1.370 . S
C376 C378 1.363 . S
C376 H392 0.931 . S
C377 C376 1.370 . S
C377 C381 1.408 . S
C378 C376 1.363 . S
C378 C379 1.370 . S
C378 C382 1.524 . S
C379 C371 1.503 . S
C379 C378 1.370 . S
C379 C380 1.403 . S
C380 C379 1.403 . S
C380 C381 1.404 . S
C380 C383 1.539 . S
C381 C377 1.408 . S
C381 C380 1.404 . S
C381 H393 0.930 . S
C382 C378 1.524 . S
C382 H394 0.956 . S
C382 H395 0.961 . S
C382 H396 0.961 . S
C383 C380 1.539 . S
C383 H397 0.958 . S
C383 H398 0.961 . S
C383 H399 0.960 . S
H384 C368 0.931 . S
H385 C373 0.929 . S
H386 C374 0.960 . S
H387 C374 0.962 . S
H388 C374 0.960 . S
H389 C375 0.961 . S
H390 C375 0.961 . S
H391 C375 0.961 . S
H392 C376 0.931 . S
H393 C381 0.930 . S
H394 C382 0.956 . S
H395 C382 0.961 . S
H396 C382 0.961 . S
H397 C383 0.958 . S
H398 C383 0.961 . S
H399 C383 0.960 . S
C400 C401 1.391 . S
C400 C402 1.394 . S
C400 H416 0.931 . S
C401 C400 1.391 . S
C401 C405 1.376 . S
C402 C400 1.394 . S
C402 C403 1.369 . S
C402 C406 1.531 . S
C403 C402 1.369 . S
C403 C404 1.410 . S
C403 C411 1.503 . S
C404 C403 1.410 . S
C404 C405 1.392 . S
C404 C407 1.511 1_565 S
C405 C401 1.376 . S
C405 C404 1.392 . S
C405 H417 0.929 . S
C406 C402 1.531 . S
C406 H418 0.960 . S
C406 H419 0.962 . S
C406 H420 0.960 . S
C407 C404 1.511 1_545 S
C407 H421 0.961 . S
C407 H422 0.961 . S
C407 H423 0.961 . S
C408 C409 1.370 . S
C408 C410 1.363 . S
C408 H424 0.931 . S
C409 C408 1.370 . S
C409 C413 1.408 1_565 S
C410 C408 1.363 . S
C410 C411 1.370 . S
C410 C414 1.524 . S
C411 C403 1.503 . S
C411 C410 1.370 . S
C411 C412 1.403 . S
C412 C411 1.403 . S
C412 C413 1.404 1_565 S
C412 C415 1.539 1_565 S
C413 C409 1.408 1_545 S
C413 C412 1.404 1_545 S
C413 H425 0.930 . S
C414 C410 1.524 . S
C414 H426 0.956 . S
C414 H427 0.961 . S
C414 H428 0.961 . S
C415 C412 1.539 1_545 S
C415 H429 0.958 1_545 S
C415 H430 0.961 . S
C415 H431 0.960 . S
H416 C400 0.931 . S
H417 C405 0.929 . S
H418 C406 0.960 . S
H419 C406 0.962 . S
H420 C406 0.960 . S
H421 C407 0.961 . S
H422 C407 0.961 . S
H423 C407 0.961 . S
H424 C408 0.931 . S
H425 C413 0.930 . S
H426 C414 0.956 . S
H427 C414 0.961 . S
H428 C414 0.961 . S
H429 C415 0.958 1_565 S
H430 C415 0.961 . S
H431 C415 0.960 . S
C432 C433 1.391 . S
C432 C434 1.394 . S
C432 H448 0.931 1_556 S
C433 C432 1.391 . S
C433 C437 1.376 . S
C434 C432 1.394 . S
C434 C435 1.369 . S
C434 C438 1.531 1_556 S
C435 C434 1.369 . S
C435 C436 1.410 . S
C435 C443 1.503 . S
C436 C435 1.410 . S
C436 C437 1.392 . S
C436 C439 1.511 . S
C437 C433 1.376 . S
C437 C436 1.392 . S
C437 H449 0.929 . S
C438 C434 1.531 1_554 S
C438 H450 0.960 . S
C438 H451 0.962 . S
C438 H452 0.960 . S
C439 C436 1.511 . S
C439 H453 0.961 . S
C439 H454 0.961 . S
C439 H455 0.961 . S
C440 C441 1.370 . S
C440 C442 1.363 . S
C440 H456 0.931 . S
C441 C440 1.370 . S
C441 C445 1.408 1_554 S
C442 C440 1.363 . S
C442 C443 1.370 1_554 S
C442 C446 1.524 . S
C443 C435 1.503 . S
C443 C442 1.370 1_556 S
C443 C444 1.403 . S
C444 C443 1.403 . S
C444 C445 1.404 . S
C444 C447 1.539 . S
C445 C441 1.408 1_556 S
C445 C444 1.404 . S
C445 H457 0.930 . S
C446 C442 1.524 . S
C446 H458 0.956 . S
C446 H459 0.961 . S
C446 H460 0.961 . S
C447 C444 1.539 . S
C447 H461 0.958 . S
C447 H462 0.961 . S
C447 H463 0.960 . S
H448 C432 0.931 1_554 S
H449 C437 0.929 . S
H450 C438 0.960 . S
H451 C438 0.962 . S
H452 C438 0.960 . S
H453 C439 0.961 . S
H454 C439 0.961 . S
H455 C439 0.961 . S
H456 C440 0.931 . S
H457 C445 0.930 . S
H458 C446 0.956 . S
H459 C446 0.961 . S
H460 C446 0.961 . S
H461 C447 0.958 . S
H462 C447 0.961 . S
H463 C447 0.960 . S
C464 C465 1.391 . S
C464 C466 1.394 . S
C464 H480 0.931 . S
C465 C464 1.391 . S
C465 C469 1.376 . S
C466 C464 1.394 . S
C466 C467 1.369 . S
C466 C470 1.531 . S
C467 C466 1.369 . S
C467 C468 1.410 . S
C467 C475 1.503 . S
C468 C467 1.410 . S
C468 C469 1.392 . S
C468 C471 1.511 . S
C469 C465 1.376 . S
C469 C468 1.392 . S
C469 H481 0.929 . S
C470 C466 1.531 . S
C470 H482 0.960 . S
C470 H483 0.962 . S
C470 H484 0.960 . S
C471 C468 1.511 . S
C471 H485 0.961 . S
C471 H486 0.961 . S
C471 H487 0.961 . S
C472 C473 1.370 . S
C472 C474 1.363 . S
C472 H488 0.931 . S
C473 C472 1.370 . S
C473 C477 1.408 . S
C474 C472 1.363 . S
C474 C475 1.370 . S
C474 C478 1.524 . S
C475 C467 1.503 . S
C475 C474 1.370 . S
C475 C476 1.403 . S
C476 C475 1.403 . S
C476 C477 1.404 . S
C476 C479 1.539 . S
C477 C473 1.408 . S
C477 C476 1.404 . S
C477 H489 0.930 . S
C478 C474 1.524 . S
C478 H490 0.956 . S
C478 H491 0.961 . S
C478 H492 0.961 . S
C479 C476 1.539 . S
C479 H493 0.958 . S
C479 H494 0.961 . S
C479 H495 0.960 . S
H480 C464 0.931 . S
H481 C469 0.929 . S
H482 C470 0.960 . S
H483 C470 0.962 . S
H484 C470 0.960 . S
H485 C471 0.961 . S
H486 C471 0.961 . S
H487 C471 0.961 . S
H488 C472 0.931 . S
H489 C477 0.930 . S
H490 C478 0.956 . S
H491 C478 0.961 . S
H492 C478 0.961 . S
H493 C479 0.958 . S
H494 C479 0.961 . S
H495 C479 0.960 . S
C496 C497 1.391 . S
C496 C498 1.394 . S
C496 H512 0.931 . S
C497 C496 1.391 . S
C497 C501 1.376 . S
C498 C496 1.394 . S
C498 C499 1.369 . S
C498 C502 1.531 . S
C499 C498 1.369 . S
C499 C500 1.410 . S
C499 C507 1.503 . S
C500 C499 1.410 . S
C500 C501 1.392 . S
C500 C503 1.511 . S
C501 C497 1.376 . S
C501 C500 1.392 . S
C501 H513 0.929 . S
C502 C498 1.531 . S
C502 H514 0.960 . S
C502 H515 0.962 . S
C502 H516 0.960 . S
C503 C500 1.511 . S
C503 H517 0.961 . S
C503 H518 0.961 . S
C503 H519 0.961 . S
C504 C505 1.370 . S
C504 C506 1.363 . S
C504 H520 0.931 . S
C505 C504 1.370 . S
C505 C509 1.408 . S
C506 C504 1.363 . S
C506 C507 1.370 . S
C506 C510 1.524 . S
C507 C499 1.503 . S
C507 C506 1.370 . S
C507 C508 1.403 . S
C508 C507 1.403 . S
C508 C509 1.404 . S
C508 C511 1.539 . S
C509 C505 1.408 . S
C509 C508 1.404 . S
C509 H521 0.930 . S
C510 C506 1.524 . S
C510 H522 0.956 . S
C510 H523 0.961 . S
C510 H524 0.961 . S
C511 C508 1.539 . S
C511 H525 0.958 . S
C511 H526 0.961 . S
C511 H527 0.960 . S
H512 C496 0.931 . S
H513 C501 0.929 . S
H514 C502 0.960 . S
H515 C502 0.962 . S
H516 C502 0.960 . S
H517 C503 0.961 . S
H518 C503 0.961 . S
H519 C503 0.961 . S
H520 C504 0.931 . S
H521 C509 0.930 . S
H522 C510 0.956 . S
H523 C510 0.961 . S
H524 C510 0.961 . S
H525 C511 0.958 . S
H526 C511 0.961 . S
H527 C511 0.960 . S
C528 C529 1.391 . S
C528 C530 1.394 . S
C528 H544 0.931 . S
C529 C528 1.391 . S
C529 C533 1.376 . S
C530 C528 1.394 . S
C530 C531 1.369 . S
C530 C534 1.531 . S
C531 C530 1.369 . S
C531 C532 1.410 . S
C531 C539 1.503 . S
C532 C531 1.410 . S
C532 C533 1.392 . S
C532 C535 1.511 1_556 S
C533 C529 1.376 . S
C533 C532 1.392 . S
C533 H545 0.929 . S
C534 C530 1.531 . S
C534 H546 0.960 . S
C534 H547 0.962 . S
C534 H548 0.960 . S
C535 C532 1.511 1_554 S
C535 H549 0.961 1_554 S
C535 H550 0.961 1_554 S
C535 H551 0.961 . S
C536 C537 1.370 . S
C536 C538 1.363 . S
C536 H552 0.931 . S
C537 C536 1.370 . S
C537 C541 1.408 . S
C538 C536 1.363 . S
C538 C539 1.370 . S
C538 C542 1.524 . S
C539 C531 1.503 . S
C539 C538 1.370 . S
C539 C540 1.403 . S
C540 C539 1.403 . S
C540 C541 1.404 . S
C540 C543 1.539 1_556 S
C541 C537 1.408 . S
C541 C540 1.404 . S
C541 H553 0.930 1_556 S
C542 C538 1.524 . S
C542 H554 0.956 . S
C542 H555 0.961 . S
C542 H556 0.961 . S
C543 C540 1.539 1_554 S
C543 H557 0.958 . S
C543 H558 0.961 . S
C543 H559 0.960 . S
H544 C528 0.931 . S
H545 C533 0.929 . S
H546 C534 0.960 . S
H547 C534 0.962 . S
H548 C534 0.960 . S
H549 C535 0.961 1_556 S
H550 C535 0.961 1_556 S
H551 C535 0.961 . S
H552 C536 0.931 . S
H553 C541 0.930 1_554 S
H554 C542 0.956 . S
H555 C542 0.961 . S
H556 C542 0.961 . S
H557 C543 0.958 . S
H558 C543 0.961 . S
H559 C543 0.960 . S
C560 C561 1.391 . S
C560 C562 1.394 . S
C560 H576 0.931 . S
C561 C560 1.391 . S
C561 C565 1.376 . S
C562 C560 1.394 . S
C562 C563 1.369 . S
C562 C566 1.531 . S
C563 C562 1.369 . S
C563 C564 1.410 . S
C563 C571 1.503 . S
C564 C563 1.410 . S
C564 C565 1.392 . S
C564 C567 1.523 . S
C565 C561 1.376 . S
C565 C564 1.392 . S
C565 H577 0.929 . S
C566 C562 1.531 . S
C566 H578 0.960 . S
C566 H579 0.962 . S
C566 H580 0.960 . S
C567 C564 1.523 . S
C567 H581 0.959 1_655 S
C567 H582 0.965 . S
C567 H583 0.946 1_655 S
C568 C569 1.370 . S
C568 C570 1.363 . S
C568 H584 0.931 . S
C569 C568 1.370 . S
C569 C573 1.408 . S
C570 C568 1.363 . S
C570 C571 1.370 . S
C570 C574 1.524 . S
C571 C563 1.503 . S
C571 C570 1.370 . S
C571 C572 1.403 . S
C572 C571 1.403 . S
C572 C573 1.404 . S
C572 C575 1.539 1_655 S
C573 C569 1.408 . S
C573 C572 1.404 . S
C573 H585 0.930 1_655 S
C574 C570 1.524 . S
C574 H586 0.956 . S
C574 H587 0.961 . S
C574 H588 0.961 . S
C575 C572 1.539 1_455 S
C575 H589 0.958 1_455 S
C575 H590 0.961 . S
C575 H591 0.960 . S
H576 C560 0.931 . S
H577 C565 0.929 . S
H578 C566 0.960 . S
H579 C566 0.962 . S
H580 C566 0.960 . S
H581 C567 0.959 1_455 S
H582 C567 0.965 . S
H583 C567 0.946 1_455 S
H584 C568 0.931 . S
H585 C573 0.930 1_455 S
H586 C574 0.956 . S
H587 C574 0.961 . S
H588 C574 0.961 . S
H589 C575 0.958 1_655 S
H590 C575 0.961 . S
H591 C575 0.960 . S
C592 C593 1.391 . S
C592 C594 1.394 . S
C592 H608 0.931 . S
C593 C592 1.391 . S
C593 C597 1.376 . S
C594 C592 1.394 . S
C594 C595 1.369 . S
C594 C598 1.531 . S
C595 C594 1.369 . S
C595 C596 1.410 . S
C595 C603 1.503 . S
C596 C595 1.410 . S
C596 C597 1.392 . S
C596 C599 1.511 . S
C597 C593 1.376 . S
C597 C596 1.392 . S
C597 H609 0.929 . S
C598 C594 1.531 . S
C598 H610 0.960 . S
C598 H611 0.962 . S
C598 H612 0.960 . S
C599 C596 1.511 . S
C599 H613 0.961 . S
C599 H614 0.961 . S
C599 H615 0.961 . S
C600 C601 1.370 . S
C600 C602 1.363 . S
C600 H616 0.931 . S
C601 C600 1.370 . S
C601 C605 1.408 . S
C602 C600 1.363 . S
C602 C603 1.370 . S
C602 C606 1.524 . S
C603 C595 1.503 . S
C603 C602 1.370 . S
C603 C604 1.403 . S
C604 C603 1.403 . S
C604 C605 1.404 . S
C604 C607 1.539 . S
C605 C601 1.408 . S
C605 C604 1.404 . S
C605 H617 0.930 . S
C606 C602 1.524 . S
C606 H618 0.956 . S
C606 H619 0.961 . S
C606 H620 0.961 . S
C607 C604 1.539 . S
C607 H621 0.958 . S
C607 H622 0.961 . S
C607 H623 0.960 . S
H608 C592 0.931 . S
H609 C597 0.929 . S
H610 C598 0.960 . S
H611 C598 0.962 . S
H612 C598 0.960 . S
H613 C599 0.961 . S
H614 C599 0.961 . S
H615 C599 0.961 . S
H616 C600 0.931 . S
H617 C605 0.930 . S
H618 C606 0.956 . S
H619 C606 0.961 . S
H620 C606 0.961 . S
H621 C607 0.958 . S
H622 C607 0.961 . S
H623 C607 0.960 . S
C624 C625 1.391 . S
C624 C626 1.394 . S
C624 H640 0.931 . S
C625 C624 1.391 . S
C625 C629 1.376 . S
C626 C624 1.394 . S
C626 C627 1.369 . S
C626 C630 1.531 . S
C627 C626 1.369 . S
C627 C628 1.410 . S
C627 C635 1.503 . S
C628 C627 1.410 . S
C628 C629 1.392 . S
C628 C631 1.511 1_655 S
C629 C625 1.376 . S
C629 C628 1.392 . S
C629 H641 0.929 1_655 S
C630 C626 1.531 . S
C630 H642 0.960 1_565 S
C630 H643 0.962 . S
C630 H644 0.960 1_565 S
C631 C628 1.511 1_455 S
C631 H645 0.961 . S
C631 H646 0.961 . S
C631 H647 0.961 . S
C632 C633 1.370 . S
C632 C634 1.363 . S
C632 H648 0.931 . S
C633 C632 1.370 . S
C633 C637 1.408 1_665 S
C634 C632 1.363 . S
C634 C635 1.370 . S
C634 C638 1.524 . S
C635 C627 1.503 . S
C635 C634 1.370 . S
C635 C636 1.403 1_665 S
C636 C635 1.403 1_445 S
C636 C637 1.404 . S
C636 C639 1.539 . S
C637 C633 1.408 1_445 S
C637 C636 1.404 . S
C637 H649 0.930 . S
C638 C634 1.524 . S
C638 H650 0.956 . S
C638 H651 0.961 . S
C638 H652 0.961 . S
C639 C636 1.539 . S
C639 H653 0.958 . S
C639 H654 0.961 . S
C639 H655 0.960 . S
H640 C624 0.931 . S
H641 C629 0.929 1_455 S
H642 C630 0.960 1_545 S
H643 C630 0.962 . S
H644 C630 0.960 1_545 S
H645 C631 0.961 . S
H646 C631 0.961 . S
H647 C631 0.961 . S
H648 C632 0.931 . S
H649 C637 0.930 . S
H650 C638 0.956 . S
H651 C638 0.961 . S
H652 C638 0.961 . S
H653 C639 0.958 . S
H654 C639 0.961 . S
H655 C639 0.960 . S
C656 C657 1.391 . S
C656 C658 1.394 . S
C656 H672 0.931 . S
C657 C656 1.391 . S
C657 C661 1.376 . S
C658 C656 1.394 . S
C658 C659 1.369 . S
C658 C662 1.531 . S
C659 C658 1.369 . S
C659 C660 1.410 . S
C659 C667 1.503 . S
C660 C659 1.410 . S
C660 C661 1.392 . S
C660 C663 1.511 . S
C661 C657 1.376 . S
C661 C660 1.392 . S
C661 H673 0.929 . S
C662 C658 1.531 . S
C662 H674 0.960 . S
C662 H675 0.962 . S
C662 H676 0.960 . S
C663 C660 1.511 . S
C663 H677 0.961 . S
C663 H678 0.961 . S
C663 H679 0.961 . S
C664 C665 1.370 . S
C664 C666 1.363 . S
C664 H680 0.931 . S
C665 C664 1.370 . S
C665 C669 1.408 . S
C666 C664 1.363 . S
C666 C667 1.370 . S
C666 C670 1.524 . S
C667 C659 1.503 . S
C667 C666 1.370 . S
C667 C668 1.403 . S
C668 C667 1.403 . S
C668 C669 1.404 . S
C668 C671 1.539 . S
C669 C665 1.408 . S
C669 C668 1.404 . S
C669 H681 0.930 . S
C670 C666 1.524 . S
C670 H682 0.956 . S
C670 H683 0.961 . S
C670 H684 0.961 . S
C671 C668 1.539 . S
C671 H685 0.957 . S
C671 H686 0.961 . S
C671 H687 0.960 . S
H672 C656 0.931 . S
H673 C661 0.929 . S
H674 C662 0.960 . S
H675 C662 0.962 . S
H676 C662 0.960 . S
H677 C663 0.961 . S
H678 C663 0.961 . S
H679 C663 0.961 . S
H680 C664 0.931 . S
H681 C669 0.930 . S
H682 C670 0.956 . S
H683 C670 0.961 . S
H684 C670 0.961 . S
H685 C671 0.957 . S
H686 C671 0.961 . S
H687 C671 0.960 . S
C688 C689 1.391 . S
C688 C690 1.394 . S
C688 H704 0.931 . S
C689 C688 1.391 . S
C689 C693 1.376 . S
C690 C688 1.394 . S
C690 C691 1.369 . S
C690 C694 1.531 . S
C691 C690 1.369 . S
C691 C692 1.410 . S
C691 C699 1.503 . S
C692 C691 1.410 . S
C692 C693 1.392 . S
C692 C695 1.511 . S
C693 C689 1.376 . S
C693 C692 1.392 . S
C693 H705 0.929 . S
C694 C690 1.531 . S
C694 H706 0.960 . S
C694 H707 0.962 . S
C694 H708 0.960 . S
C695 C692 1.511 . S
C695 H709 0.961 . S
C695 H710 0.961 . S
C695 H711 0.961 . S
C696 C697 1.370 . S
C696 C698 1.363 . S
C696 H712 0.931 . S
C697 C696 1.370 . S
C697 C701 1.408 . S
C698 C696 1.363 . S
C698 C699 1.370 . S
C698 C702 1.524 . S
C699 C691 1.503 . S
C699 C698 1.370 . S
C699 C700 1.403 . S
C700 C699 1.403 . S
C700 C701 1.404 . S
C700 C703 1.539 . S
C701 C697 1.408 . S
C701 C700 1.404 . S
C701 H713 0.930 . S
C702 C698 1.524 . S
C702 H714 0.956 . S
C702 H715 0.961 . S
C702 H716 0.961 . S
C703 C700 1.539 . S
C703 H717 0.958 . S
C703 H718 0.961 . S
C703 H719 0.960 . S
H704 C688 0.931 . S
H705 C693 0.929 . S
H706 C694 0.960 . S
H707 C694 0.962 . S
H708 C694 0.960 . S
H709 C695 0.961 . S
H710 C695 0.961 . S
H711 C695 0.961 . S
H712 C696 0.931 . S
H713 C701 0.930 . S
H714 C702 0.956 . S
H715 C702 0.961 . S
H716 C702 0.961 . S
H717 C703 0.958 . S
H718 C703 0.961 . S
H719 C703 0.960 . S
C720 C721 1.391 . S
C720 C722 1.394 . S
C720 H736 0.931 . S
C721 C720 1.391 . S
C721 C725 1.376 . S
C722 C720 1.394 . S
C722 C723 1.369 . S
C722 C726 1.531 . S
C723 C722 1.369 . S
C723 C724 1.410 . S
C723 C731 1.503 . S
C724 C723 1.410 . S
C724 C725 1.392 . S
C724 C727 1.511 . S
C725 C721 1.376 . S
C725 C724 1.392 . S
C725 H737 0.929 . S
C726 C722 1.531 . S
C726 H738 0.960 . S
C726 H739 0.962 . S
C726 H740 0.960 . S
C727 C724 1.511 . S
C727 H741 0.961 . S
C727 H742 0.961 . S
C727 H743 0.961 . S
C728 C729 1.370 . S
C728 C730 1.363 . S
C728 H744 0.931 . S
C729 C728 1.370 . S
C729 C733 1.408 . S
C730 C728 1.363 . S
C730 C731 1.370 . S
C730 C734 1.524 . S
C731 C723 1.503 . S
C731 C730 1.370 . S
C731 C732 1.403 . S
C732 C731 1.403 . S
C732 C733 1.404 . S
C732 C735 1.539 . S
C733 C729 1.408 . S
C733 C732 1.404 . S
C733 H745 0.930 . S
C734 C730 1.524 . S
C734 H746 0.956 . S
C734 H747 0.961 . S
C734 H748 0.961 . S
C735 C732 1.539 . S
C735 H749 0.958 . S
C735 H750 0.961 . S
C735 H751 0.960 . S
H736 C720 0.931 . S
H737 C725 0.929 . S
H738 C726 0.960 . S
H739 C726 0.962 . S
H740 C726 0.960 . S
H741 C727 0.961 . S
H742 C727 0.961 . S
H743 C727 0.961 . S
H744 C728 0.931 . S
H745 C733 0.930 . S
H746 C734 0.956 . S
H747 C734 0.961 . S
H748 C734 0.961 . S
H749 C735 0.958 . S
H750 C735 0.961 . S
H751 C735 0.960 . S
C752 C753 1.391 . S
C752 C754 1.394 . S
C752 H768 0.931 . S
C753 C752 1.391 . S
C753 C757 1.376 . S
C754 C752 1.394 . S
C754 C755 1.369 . S
C754 C758 1.531 . S
C755 C754 1.369 . S
C755 C756 1.410 . S
C755 C763 1.503 . S
C756 C755 1.410 . S
C756 C757 1.392 . S
C756 C759 1.511 1_556 S
C757 C753 1.376 . S
C757 C756 1.392 . S
C757 H769 0.929 . S
C758 C754 1.531 . S
C758 H770 0.960 . S
C758 H771 0.962 . S
C758 H772 0.960 . S
C759 C756 1.511 1_554 S
C759 H773 0.961 . S
C759 H774 0.961 . S
C759 H775 0.961 . S
C760 C761 1.370 . S
C760 C762 1.363 . S
C760 H776 0.931 1_565 S
C761 C760 1.370 . S
C761 C765 1.408 . S
C762 C760 1.363 . S
C762 C763 1.370 . S
C762 C766 1.524 1_565 S
C763 C755 1.503 . S
C763 C762 1.370 . S
C763 C764 1.403 . S
C764 C763 1.403 . S
C764 C765 1.404 . S
C764 C767 1.539 . S
C765 C761 1.408 . S
C765 C764 1.404 . S
C765 H777 0.930 . S
C766 C762 1.524 1_545 S
C766 H778 0.956 . S
C766 H779 0.961 1_545 S
C766 H780 0.961 . S
C767 C764 1.539 . S
C767 H781 0.958 . S
C767 H782 0.961 . S
C767 H783 0.960 . S
H768 C752 0.931 . S
H769 C757 0.929 . S
H770 C758 0.960 . S
H771 C758 0.962 . S
H772 C758 0.960 . S
H773 C759 0.961 . S
H774 C759 0.961 . S
H775 C759 0.961 . S
H776 C760 0.931 1_545 S
H777 C765 0.930 . S
H778 C766 0.956 . S
H779 C766 0.961 1_565 S
H780 C766 0.961 . S
H781 C767 0.958 . S
H782 C767 0.961 . S
H783 C767 0.960 . S
C784 C785 1.391 . S
C784 C786 1.394 . S
C784 H800 0.931 . S
C785 C784 1.391 . S
C785 C789 1.376 . S
C786 C784 1.394 . S
C786 C787 1.369 . S
C786 C790 1.531 . S
C787 C786 1.369 . S
C787 C788 1.410 . S
C787 C795 1.503 . S
C788 C787 1.410 . S
C788 C789 1.392 . S
C788 C791 1.511 . S
C789 C785 1.376 . S
C789 C788 1.392 . S
C789 H801 0.929 . S
C790 C786 1.531 . S
C790 H802 0.960 . S
C790 H803 0.962 . S
C790 H804 0.960 . S
C791 C788 1.511 . S
C791 H805 0.961 . S
C791 H806 0.961 . S
C791 H807 0.961 . S
C792 C793 1.370 . S
C792 C794 1.363 . S
C792 H808 0.931 . S
C793 C792 1.370 . S
C793 C797 1.408 . S
C794 C792 1.363 . S
C794 C795 1.370 . S
C794 C798 1.524 . S
C795 C787 1.503 . S
C795 C794 1.370 . S
C795 C796 1.403 . S
C796 C795 1.403 . S
C796 C797 1.404 . S
C796 C799 1.539 . S
C797 C793 1.408 . S
C797 C796 1.404 . S
C797 H809 0.930 . S
C798 C794 1.524 . S
C798 H810 0.956 . S
C798 H811 0.961 . S
C798 H812 0.961 . S
C799 C796 1.539 . S
C799 H813 0.958 . S
C799 H814 0.961 . S
C799 H815 0.960 . S
H800 C784 0.931 . S
H801 C789 0.929 . S
H802 C790 0.960 . S
H803 C790 0.962 . S
H804 C790 0.960 . S
H805 C791 0.961 . S
H806 C791 0.961 . S
H807 C791 0.961 . S
H808 C792 0.931 . S
H809 C797 0.930 . S
H810 C798 0.956 . S
H811 C798 0.961 . S
H812 C798 0.961 . S
H813 C799 0.958 . S
H814 C799 0.961 . S
H815 C799 0.960 . S
C816 C817 1.391 . S
C816 C818 1.394 . S
C816 H832 0.931 . S
C817 C816 1.391 . S
C817 C821 1.376 . S
C818 C816 1.394 . S
C818 C819 1.369 . S
C818 C822 1.531 . S
C819 C818 1.369 . S
C819 C820 1.410 . S
C819 C827 1.503 . S
C820 C819 1.410 . S
C820 C821 1.392 . S
C820 C823 1.511 . S
C821 C817 1.376 . S
C821 C820 1.392 . S
C821 H833 0.929 . S
C822 C818 1.531 . S
C822 H834 0.960 . S
C822 H835 0.962 . S
C822 H836 0.960 . S
C823 C820 1.511 . S
C823 H837 0.961 . S
C823 H838 0.961 . S
C823 H839 0.961 . S
C824 C825 1.370 . S
C824 C826 1.363 . S
C824 H840 0.931 . S
C825 C824 1.370 . S
C825 C829 1.408 . S
C826 C824 1.363 . S
C826 C827 1.370 . S
C826 C830 1.524 . S
C827 C819 1.503 . S
C827 C826 1.370 . S
C827 C828 1.403 . S
C828 C827 1.403 . S
C828 C829 1.404 . S
C828 C831 1.539 . S
C829 C825 1.408 . S
C829 C828 1.404 . S
C829 H841 0.930 . S
C830 C826 1.524 . S
C830 H842 0.956 . S
C830 H843 0.961 . S
C830 H844 0.961 . S
C831 C828 1.539 . S
C831 H845 0.958 . S
C831 H846 0.961 . S
C831 H847 0.960 . S
H832 C816 0.931 . S
H833 C821 0.929 . S
H834 C822 0.960 . S
H835 C822 0.962 . S
H836 C822 0.960 . S
H837 C823 0.961 . S
H838 C823 0.961 . S
H839 C823 0.961 . S
H840 C824 0.931 . S
H841 C829 0.930 . S
H842 C830 0.956 . S
H843 C830 0.961 . S
H844 C830 0.961 . S
H845 C831 0.958 . S
H846 C831 0.961 . S
H847 C831 0.960 . S
C848 C849 1.391 . S
C848 C850 1.394 . S
C848 H864 0.931 . S
C849 C848 1.391 . S
C849 C853 1.376 . S
C850 C848 1.394 . S
C850 C851 1.369 . S
C850 C854 1.531 . S
C851 C850 1.369 . S
C851 C852 1.410 . S
C851 C859 1.503 . S
C852 C851 1.410 . S
C852 C853 1.392 . S
C852 C855 1.511 . S
C853 C849 1.376 . S
C853 C852 1.392 . S
C853 H865 0.929 . S
C854 C850 1.531 . S
C854 H866 0.960 . S
C854 H867 0.962 . S
C854 H868 0.960 . S
C855 C852 1.511 . S
C855 H869 0.961 . S
C855 H870 0.961 . S
C855 H871 0.961 . S
C856 C857 1.370 . S
C856 C858 1.363 . S
C856 H872 0.931 . S
C857 C856 1.370 . S
C857 C861 1.408 . S
C858 C856 1.363 . S
C858 C859 1.370 . S
C858 C862 1.524 . S
C859 C851 1.503 . S
C859 C858 1.370 . S
C859 C860 1.403 . S
C860 C859 1.403 . S
C860 C861 1.404 . S
C860 C863 1.539 . S
C861 C857 1.408 . S
C861 C860 1.404 . S
C861 H873 0.930 . S
C862 C858 1.524 . S
C862 H874 0.956 . S
C862 H875 0.961 . S
C862 H876 0.961 . S
C863 C860 1.539 . S
C863 H877 0.958 . S
C863 H878 0.961 . S
C863 H879 0.960 . S
H864 C848 0.931 . S
H865 C853 0.929 . S
H866 C854 0.960 . S
H867 C854 0.962 . S
H868 C854 0.960 . S
H869 C855 0.961 . S
H870 C855 0.961 . S
H871 C855 0.961 . S
H872 C856 0.931 . S
H873 C861 0.930 . S
H874 C862 0.956 . S
H875 C862 0.961 . S
H876 C862 0.961 . S
H877 C863 0.958 . S
H878 C863 0.961 . S
H879 C863 0.960 . S
C880 C881 1.391 1_455 S
C880 C882 1.394 . S
C880 H896 0.931 . S
C881 C880 1.391 1_655 S
C881 C885 1.376 . S
C882 C880 1.394 . S
C882 C883 1.369 1_455 S
C882 C886 1.531 1_556 S
C883 C882 1.369 1_655 S
C883 C884 1.410 . S
C883 C891 1.503 . S
C884 C883 1.410 . S
C884 C885 1.392 . S
C884 C887 1.511 . S
C885 C881 1.376 . S
C885 C884 1.392 . S
C885 H897 0.929 . S
C886 C882 1.531 1_554 S
C886 H898 0.960 . S
C886 H899 0.962 1_554 S
C886 H900 0.960 . S
C887 C884 1.511 . S
C887 H901 0.961 . S
C887 H902 0.961 . S
C887 H903 0.961 . S
C888 C889 1.391 . S
C888 C890 1.363 . S
C888 H904 0.931 . S
C889 C888 1.391 . S
C889 C893 1.391 1_456 S
C890 C888 1.363 . S
C890 C891 1.370 1_455 S
C890 C894 1.524 . S
C891 C883 1.503 . S
C891 C890 1.370 1_655 S
C891 C892 1.403 1_556 S
C892 C891 1.403 1_554 S
C892 C893 1.404 . S
C892 C895 1.539 . S
C893 C889 1.391 1_654 S
C893 C892 1.404 . S
C893 H905 0.930 . S
C894 C890 1.524 . S
C894 H906 0.956 . S
C894 H907 0.961 . S
C894 H908 0.961 . S
C895 C892 1.539 . S
C895 H909 0.958 . S
C895 H910 0.961 . S
C895 H911 0.960 . S
H896 C880 0.931 . S
H897 C885 0.929 . S
H898 C886 0.960 . S
H899 C886 0.962 1_556 S
H900 C886 0.960 . S
H901 C887 0.961 . S
H902 C887 0.961 . S
H903 C887 0.961 . S
H904 C888 0.931 . S
H905 C893 0.930 . S
H906 C894 0.956 . S
H907 C894 0.961 . S
H908 C894 0.961 . S
H909 C895 0.958 . S
H910 C895 0.961 . S
H911 C895 0.960 . S
C912 C913 1.391 . S
C912 C914 1.394 . S
C912 H928 0.931 . S
C913 C912 1.391 . S
C913 C917 1.376 . S
C914 C912 1.394 . S
C914 C915 1.369 . S
C914 C918 1.531 . S
C915 C914 1.369 . S
C915 C916 1.410 . S
C915 C923 1.503 . S
C916 C915 1.410 . S
C916 C917 1.392 . S
C916 C919 1.511 . S
C917 C913 1.376 . S
C917 C916 1.392 . S
C917 H929 0.929 . S
C918 C914 1.531 . S
C918 H930 0.960 . S
C918 H931 0.962 . S
C918 H932 0.960 . S
C919 C916 1.511 . S
C919 H933 0.961 . S
C919 H934 0.961 . S
C919 H935 0.961 . S
C920 C921 1.370 . S
C920 C922 1.363 . S
C920 H936 0.931 . S
C921 C920 1.370 . S
C921 C925 1.408 . S
C922 C920 1.363 . S
C922 C923 1.370 . S
C922 C926 1.524 . S
C923 C915 1.503 . S
C923 C922 1.370 . S
C923 C924 1.403 . S
C924 C923 1.403 . S
C924 C925 1.404 . S
C924 C927 1.539 . S
C925 C921 1.408 . S
C925 C924 1.404 . S
C925 H937 0.930 . S
C926 C922 1.524 . S
C926 H938 0.956 . S
C926 H939 0.961 . S
C926 H940 0.961 . S
C927 C924 1.539 . S
C927 H941 0.958 . S
C927 H942 0.961 . S
C927 H943 0.960 . S
H928 C912 0.931 . S
H929 C917 0.929 . S
H930 C918 0.960 . S
H931 C918 0.962 . S
H932 C918 0.960 . S
H933 C919 0.961 . S
H934 C919 0.961 . S
H935 C919 0.961 . S
H936 C920 0.931 . S
H937 C925 0.930 . S
H938 C926 0.956 . S
H939 C926 0.961 . S
H940 C926 0.961 . S
H941 C927 0.958 . S
H942 C927 0.961 . S
H943 C927 0.960 . S
C944 C945 1.391 . S
C944 C946 1.394 . S
C944 H960 0.931 . S
C945 C944 1.391 . S
C945 C949 1.376 . S
C946 C944 1.394 . S
C946 C947 1.369 . S
C946 C950 1.531 . S
C947 C946 1.369 . S
C947 C948 1.410 . S
C947 C955 1.503 . S
C948 C947 1.410 . S
C948 C949 1.392 . S
C948 C951 1.511 . S
C949 C945 1.376 . S
C949 C948 1.392 . S
C949 H961 0.929 . S
C950 C946 1.531 . S
C950 H962 0.960 . S
C950 H963 0.962 . S
C950 H964 0.960 . S
C951 C948 1.511 . S
C951 H965 0.961 . S
C951 H966 0.961 . S
C951 H967 0.961 . S
C952 C953 1.370 . S
C952 C954 1.363 . S
C952 H968 0.931 . S
C953 C952 1.370 . S
C953 C957 1.408 . S
C954 C952 1.363 . S
C954 C955 1.370 . S
C954 C958 1.524 . S
C955 C947 1.503 . S
C955 C954 1.370 . S
C955 C956 1.403 . S
C956 C955 1.403 . S
C956 C957 1.404 . S
C956 C959 1.539 . S
C957 C953 1.408 . S
C957 C956 1.404 . S
C957 H969 0.930 . S
C958 C954 1.524 . S
C958 H970 0.956 . S
C958 H971 0.961 . S
C958 H972 0.961 . S
C959 C956 1.539 . S
C959 H973 0.958 . S
C959 H974 0.961 . S
C959 H975 0.960 . S
H960 C944 0.931 . S
H961 C949 0.929 . S
H962 C950 0.960 . S
H963 C950 0.962 . S
H964 C950 0.960 . S
H965 C951 0.961 . S
H966 C951 0.961 . S
H967 C951 0.961 . S
H968 C952 0.931 . S
H969 C957 0.930 . S
H970 C958 0.956 . S
H971 C958 0.961 . S
H972 C958 0.961 . S
H973 C959 0.958 . S
H974 C959 0.961 . S
H975 C959 0.960 . S
C976 C977 1.391 . S
C976 C978 1.394 . S
C976 H992 0.931 . S
C977 C976 1.391 . S
C977 C981 1.376 . S
C978 C976 1.394 . S
C978 C979 1.369 . S
C978 C982 1.531 . S
C979 C978 1.369 . S
C979 C980 1.410 . S
C979 C987 1.503 . S
C980 C979 1.410 . S
C980 C981 1.392 . S
C980 C983 1.511 . S
C981 C977 1.376 . S
C981 C980 1.392 . S
C981 H993 0.929 . S
C982 C978 1.531 . S
C982 H994 0.960 . S
C982 H995 0.962 . S
C982 H996 0.960 . S
C983 C980 1.511 . S
C983 H997 0.961 . S
C983 H998 0.961 . S
C983 H999 0.961 . S
C984 C985 1.370 . S
C984 C986 1.363 . S
C984 H1000 0.931 . S
C985 C984 1.370 . S
C985 C989 1.408 . S
C986 C984 1.363 . S
C986 C987 1.370 . S
C986 C990 1.524 . S
C987 C979 1.503 . S
C987 C986 1.370 . S
C987 C988 1.403 . S
C988 C987 1.403 . S
C988 C989 1.404 . S
C988 C991 1.539 . S
C989 C985 1.408 . S
C989 C988 1.404 . S
C989 H1001 0.930 . S
C990 C986 1.524 . S
C990 H1002 0.956 . S
C990 H1003 0.961 . S
C990 H1004 0.961 . S
C991 C988 1.539 . S
C991 H1005 0.958 . S
C991 H1006 0.961 . S
C991 H1007 0.960 . S
H992 C976 0.931 . S
H993 C981 0.929 . S
H994 C982 0.960 . S
H995 C982 0.962 . S
H996 C982 0.960 . S
H997 C983 0.961 . S
H998 C983 0.961 . S
H999 C983 0.961 . S
H1000 C984 0.931 . S
H1001 C989 0.930 . S
H1002 C990 0.956 . S
H1003 C990 0.961 . S
H1004 C990 0.961 . S
H1005 C991 0.958 . S
H1006 C991 0.961 . S
H1007 C991 0.960 . S
C241 C9 2.749 . S
C249 C104 2.767 . S
C273 C21 2.223 . S
C281 C146 2.246 1_565 S
C313 C176 0.735 . S
C305 C30 0.780 . S
C337 C43 0.790 . S
C345 C210 0.805 . S
C377 C167 1.763 . S
C369 C4 1.756 . S
C409 C121 2.332 1_565 S
C401 C22 2.313 . S
C441 C214 0.963 . S
C433 C34 0.914 . S
C473 C180 1.171 . S
C465 C48 1.112 . S
C497 C8 2.269 . S
C505 C235 2.292 . S
C537 C142 1.169 . S
C529 C35 1.173 . S
C561 C47 1.167 . S
C569 C117 1.156 . S
C593 C17 1.930 . S
C601 C201 1.958 . S
C633 C133 2.338 1_665 S
C625 C60 2.330 . S
C657 C74 2.554 . S
C665 C155 2.568 . S
C689 C82 0.616 . S
C697 C185 0.607 . S
C721 C100 1.285 . S
C729 C219 1.261 . S
C753 C61 2.149 . S
C761 C138 2.175 1_556 S
C793 C112 1.938 . S
C785 C73 1.915 . S
C825 C223 1.443 . S
C817 C87 1.422 . S
C857 C189 0.859 . S
C849 C95 0.765 . S
C881 C56 2.187 . S
C889 C206 2.309 1_556 S
C921 C151 1.210 . S
C913 C86 1.155 . S
C953 C108 1.052 . S
C945 C99 1.061 . S
C977 C69 2.064 . S
C985 C172 2.080 . S
