# Generated by pormake.
# Topology zzz, (3,6)-cn, num edge types: 1
# Building blocks:
#     Node 0, Type 0, BuildingBlock: MIDCAF_clean_linker_0, # of connection points: 3
#     Node 1, Type 0, BuildingBlock: MIDCAF_clean_linker_0, # of connection points: 3
#     Node 2, Type 0, BuildingBlock: MIDCAF_clean_linker_0, # of connection points: 3
#     Node 3, Type 0, BuildingBlock: MIDCAF_clean_linker_0, # of connection points: 3
#     Node 4, Type 0, BuildingBlock: MIDCAF_clean_linker_0, # of connection points: 3
#     Node 5, Type 0, BuildingBlock: MIDCAF_clean_linker_0, # of connection points: 3
#     Node 6, Type 0, BuildingBlock: MIDCAF_clean_linker_0, # of connection points: 3
#     Node 7, Type 0, BuildingBlock: MIDCAF_clean_linker_0, # of connection points: 3
#     Node 8, Type 1, BuildingBlock: INOVEN_clean_sbu_0, # of connection points: 6
#     Node 9, Type 1, BuildingBlock: INOVEN_clean_sbu_0, # of connection points: 6
#     Node 10, Type 1, BuildingBlock: INOVEN_clean_sbu_0, # of connection points: 6
#     Node 11, Type 1, BuildingBlock: INOVEN_clean_sbu_0, # of connection points: 6
#     Edge 12, Type (0, 1), BuildingBlock: OJICUG_clean_linker_0, # of connection points: 2
#     Edge 13, Type (0, 1), BuildingBlock: OJICUG_clean_linker_0, # of connection points: 2
#     Edge 14, Type (0, 1), BuildingBlock: OJICUG_clean_linker_0, # of connection points: 2
#     Edge 15, Type (0, 1), BuildingBlock: OJICUG_clean_linker_0, # of connection points: 2
#     Edge 16, Type (0, 1), BuildingBlock: OJICUG_clean_linker_0, # of connection points: 2
#     Edge 17, Type (0, 1), BuildingBlock: OJICUG_clean_linker_0, # of connection points: 2
#     Edge 18, Type (0, 1), BuildingBlock: OJICUG_clean_linker_0, # of connection points: 2
#     Edge 19, Type (0, 1), BuildingBlock: OJICUG_clean_linker_0, # of connection points: 2
#     Edge 20, Type (0, 1), BuildingBlock: OJICUG_clean_linker_0, # of connection points: 2
#     Edge 21, Type (0, 1), BuildingBlock: OJICUG_clean_linker_0, # of connection points: 2
#     Edge 22, Type (0, 1), BuildingBlock: OJICUG_clean_linker_0, # of connection points: 2
#     Edge 23, Type (0, 1), BuildingBlock: OJICUG_clean_linker_0, # of connection points: 2
#     Edge 24, Type (0, 1), BuildingBlock: OJICUG_clean_linker_0, # of connection points: 2
#     Edge 25, Type (0, 1), BuildingBlock: OJICUG_clean_linker_0, # of connection points: 2
#     Edge 26, Type (0, 1), BuildingBlock: OJICUG_clean_linker_0, # of connection points: 2
#     Edge 27, Type (0, 1), BuildingBlock: OJICUG_clean_linker_0, # of connection points: 2
#     Edge 28, Type (0, 1), BuildingBlock: OJICUG_clean_linker_0, # of connection points: 2
#     Edge 29, Type (0, 1), BuildingBlock: OJICUG_clean_linker_0, # of connection points: 2
#     Edge 30, Type (0, 1), BuildingBlock: OJICUG_clean_linker_0, # of connection points: 2
#     Edge 31, Type (0, 1), BuildingBlock: OJICUG_clean_linker_0, # of connection points: 2
#     Edge 32, Type (0, 1), BuildingBlock: OJICUG_clean_linker_0, # of connection points: 2
#     Edge 33, Type (0, 1), BuildingBlock: OJICUG_clean_linker_0, # of connection points: 2
#     Edge 34, Type (0, 1), BuildingBlock: OJICUG_clean_linker_0, # of connection points: 2
#     Edge 35, Type (0, 1), BuildingBlock: OJICUG_clean_linker_0, # of connection points: 2
# Relax obj value: 0.488
# Max RMSD: 0.264
# Mean RMSD: 0.254
data_MOF--net-zzz--node1-INOVEN_clean_sbu_0--node2-MIDCAF_clean_linker_0--edge1-OJICUG_clean_linker_0
_symmetry_space_group_name_H-M    P1
_symmetry_Int_Tables_number       1
_symmetry_cell_setting            triclinic
loop_
_symmetry_equiv_pos_as_xyz
'x, y, z'
_cell_length_a     46.045279
_cell_length_b     46.086053
_cell_length_c     14.424306
_cell_angle_alpha  89.912457
_cell_angle_beta   90.050907
_cell_angle_gamma 89.966754
loop_
_atom_site_label
_atom_site_type_symbol
_atom_site_fract_x
_atom_site_fract_y
_atom_site_fract_z
_atom_type_partial_charge
C0 C 0.81941 0.53536 0.43878 0.0
C1 C 0.82972 0.51409 0.50128 0.0
C2 C 0.81163 0.49013 0.51993 0.0
C3 C 0.78522 0.48653 0.47288 0.0
H4 H 0.68794 0.55119 0.22808 0.0
H5 H 0.64236 0.56221 0.14746 0.0
H6 H 0.61747 0.47197 0.16905 0.0
H7 H 0.66196 0.46175 0.2524 0.0
H8 H 0.74663 0.4075 0.20342 0.0
H9 H 0.77547 0.37698 0.09868 0.0
H10 H 0.80286 0.4541 0.95095 0.0
H11 H 0.77372 0.48375 0.05363 0.0
H12 H 0.78672 0.54725 0.3388 0.0
H13 H 0.83239 0.55434 0.42331 0.0
H14 H 0.81871 0.47302 0.56621 0.0
H15 H 0.77307 0.46666 0.48339 0.0
N16 N 0.72689 0.50741 0.32838 0.0
N17 N 0.71911 0.47608 0.20151 0.0
N18 N 0.76441 0.47706 0.27402 0.0
C19 C 0.70885 0.49627 0.26141 0.0
C20 C 0.74666 0.46648 0.20765 0.0
C21 C 0.75485 0.49723 0.33504 0.0
C22 C 0.67841 0.50567 0.24705 0.0
C23 C 0.67194 0.53418 0.21973 0.0
C24 C 0.64602 0.54026 0.17159 0.0
C25 C 0.62623 0.51788 0.14904 0.0
C26 C 0.63171 0.48997 0.18484 0.0
C27 C 0.65736 0.48403 0.23314 0.0
C28 C 0.7585 0.44768 0.13603 0.0
C29 C 0.75816 0.41748 0.14625 0.0
C30 C 0.77457 0.40015 0.08644 0.0
C31 C 0.79166 0.41301 0.01673 0.0
C32 C 0.78968 0.44321 1.00249 0.0
C33 C 0.7733 0.46037 0.06192 0.0
C34 C 0.77587 0.50685 0.40655 0.0
C35 C 0.79288 0.5317 0.39169 0.0
C36 C 0.99993 0.82227 0.4312 0.0
C37 C 1.00666 0.82625 0.52588 0.0
C38 C 0.0167 0.80192 0.57606 0.0
C39 C 0.02214 0.77537 0.53148 0.0
H40 H 0.06918 0.66023 0.24319 0.0
H41 H 0.05509 0.62063 0.14349 0.0
H42 H 0.9676 0.6545 0.13158 0.0
H43 H 0.98238 0.69536 0.2301 0.0
H44 H 0.09648 0.73927 0.13315 0.0
H45 H 0.12434 0.77817 0.0655 0.0
H46 H 0.15062 0.80603 0.33933 0.0
H47 H 0.12046 0.76812 0.40696 0.0
H48 H 1.00198 0.79414 0.31276 0.0
H49 H 0.99262 0.84027 0.38895 0.0
H50 H 0.02159 0.80361 0.64925 0.0
H51 H 0.03229 0.75798 0.5704 0.0
N52 N 0.02144 0.72583 0.34432 0.0
N53 N 0.06635 0.71547 0.27309 0.0
N54 N 0.06179 0.75638 0.36674 0.0
C55 C 0.03831 0.70796 0.29044 0.0
C56 C 0.07824 0.73944 0.31136 0.0
C57 C 0.03365 0.74996 0.38402 0.0
C58 C 0.02701 0.68129 0.24413 0.0
C59 C 0.04678 0.65919 0.22038 0.0
C60 C 0.03856 0.63611 0.16346 0.0
C61 C 0.01015 0.6341 0.12824 0.0
C62 C 0.98983 0.65542 0.15593 0.0
C63 C 0.99814 0.67872 0.21345 0.0
C64 C 0.1055 0.75151 0.27514 0.0
C65 C 0.10932 0.75282 0.17881 0.0
C66 C 0.12552 0.77532 0.13988 0.0
C67 C 0.13849 0.7964 0.19718 0.0
C68 C 0.13964 0.79108 0.29329 0.0
C69 C 0.12265 0.76916 0.33224 0.0
C70 C 0.01702 0.7721 0.43605 0.0
C71 C 1.00501 0.79558 0.38712 0.0
C72 C 0.69716 0.98276 0.48241 0.0
C73 C 0.68527 1.0068 0.52993 0.0
C74 C 0.70116 0.03291 0.52914 0.0
C75 C 0.72677 0.03551 0.47715 0.0
H76 H 0.82567 0.96432 0.24882 0.0
H77 H 0.87138 0.95305 0.16951 0.0
H78 H 0.89212 0.04448 0.16162 0.0
H79 H 0.84724 0.0552 0.24267 0.0
H80 H 0.78358 0.08804 0.10127 0.0
H81 H 0.75842 0.11472 0.97615 0.0
H82 H 0.68513 0.05694 1.00315 0.0
H83 H 0.70942 0.03134 0.12874 0.0
H84 H 0.7301 0.96726 0.38867 0.0
H85 H 0.68597 0.96211 0.48223 0.0
H86 H 0.69282 0.05207 0.56335 0.0
H87 H 0.73704 0.05661 0.47207 0.0
N88 N 0.78562 0.01005 0.341 0.0
N89 N 0.79002 0.03517 0.19891 0.0
N90 N 0.74549 0.03445 0.27588 0.0
C91 C 0.80219 0.01879 0.26681 0.0
C92 C 0.76175 0.04273 0.20255 0.0
C93 C 0.75705 0.01854 0.34577 0.0
C94 C 0.83306 0.01059 0.25324 0.0
C95 C 0.84079 0.98173 0.23431 0.0
C96 C 0.86677 0.97542 0.18694 0.0
C97 C 0.88551 0.99786 0.15703 0.0
C98 C 0.87873 0.02646 0.18362 0.0
C99 C 0.8529 0.03268 0.23071 0.0
C100 C 0.74814 0.05797 0.12463 0.0
C101 C 0.76219 0.08107 0.07933 0.0
C102 C 0.74802 0.09614 1.00796 0.0
C103 C 0.72026 0.08739 0.9795 0.0
C104 C 0.70683 0.06365 0.02293 0.0
C105 C 0.72051 0.04927 0.09538 0.0
C106 C 0.73755 0.01209 0.42509 0.0
C107 C 0.72289 0.98543 0.43029 0.0
C108 C 0.45795 0.70908 0.01216 0.0
C109 C 0.43206 0.72021 0.9747 0.0
C110 C 0.42076 0.74639 1.00866 0.0
C111 C 0.43514 0.76105 0.08022 0.0
H112 H 0.45799 0.84716 0.24549 0.0
H113 H 0.4683 0.89279 0.16814 0.0
H114 H 0.56026 0.87466 0.18587 0.0
H115 H 0.54946 0.82825 0.26172 0.0
H116 H 0.46138 0.73949 0.48061 0.0
H117 H 0.46512 0.69408 0.56685 0.0
H118 H 0.55212 0.68202 0.46161 0.0
H119 H 0.54771 0.72724 0.37348 0.0
H120 H 0.49117 0.71365 0.11451 0.0
H121 H 0.46673 0.68856 0.98847 0.0
H122 H 0.40056 0.755 0.9816 0.0
H123 H 0.42603 0.78102 0.10701 0.0
N124 N 0.48034 0.79101 0.20037 0.0
N125 N 0.50458 0.78623 0.34388 0.0
N126 N 0.48286 0.74572 0.27253 0.0
C127 C 0.49559 0.80315 0.27083 0.0
C128 C 0.49755 0.7573 0.34488 0.0
C129 C 0.47425 0.7624 0.20046 0.0
C130 C 0.50291 0.83427 0.26058 0.0
C131 C 0.48047 0.85356 0.23665 0.0
C132 C 0.48646 0.87981 0.19176 0.0
C133 C 0.51516 0.88748 0.16886 0.0
C134 C 0.53784 0.86932 0.20063 0.0
C135 C 0.53176 0.84295 0.24592 0.0
C136 C 0.50455 0.73736 0.42233 0.0
C137 C 0.4818 0.72779 0.47961 0.0
C138 C 0.4839 0.70151 0.52848 0.0
C139 C 0.50878 0.68387 0.52054 0.0
C140 C 0.53238 0.69461 0.46832 0.0
C141 C 0.5302 0.72091 0.41934 0.0
C142 C 0.46021 0.74896 0.1203 0.0
C143 C 0.47171 0.72316 0.08494 0.0
C144 C 0.19713 0.52659 0.94986 0.0
C145 C 0.18289 0.50006 0.93328 0.0
C146 C 0.19584 0.47449 0.96854 0.0
C147 C 0.22115 0.47571 0.02343 0.0
H148 H 0.32574 0.45144 0.222 0.0
H149 H 0.37194 0.44394 0.30237 0.0
H150 H 0.38949 0.5359 0.28322 0.0
H151 H 0.34418 0.54273 0.19998 0.0
H152 H 0.28303 0.57039 0.36849 0.0
H153 H 0.25883 0.59894 0.49012 0.0
H154 H 0.18671 0.53909 0.485 0.0
H155 H 0.21014 0.51158 0.36182 0.0
H156 H 0.23133 0.54878 0.02157 0.0
H157 H 0.18786 0.54683 0.92564 0.0
H158 H 0.18584 0.45358 0.95658 0.0
H159 H 0.22935 0.45596 0.05482 0.0
N160 N 0.28299 0.49806 0.12214 0.0
N161 N 0.28864 0.51783 0.27189 0.0
N162 N 0.24311 0.51861 0.20081 0.0
C163 C 0.30024 0.50436 0.1972 0.0
C164 C 0.26021 0.52462 0.27456 0.0
C165 C 0.25414 0.50561 0.12424 0.0
C166 C 0.33157 0.49758 0.20319 0.0
C167 C 0.34039 0.46965 0.23005 0.0
C168 C 0.36661 0.46557 0.27839 0.0
C169 C 0.38439 0.48942 0.30218 0.0
C170 C 0.3768 0.51686 0.26645 0.0
C171 C 0.35077 0.52083 0.21768 0.0
C172 C 0.24807 0.53919 0.35579 0.0
C173 C 0.26227 0.56317 0.3952 0.0
C174 C 0.24864 0.57931 0.46472 0.0
C175 C 0.22125 0.57088 0.49742 0.0
C176 C 0.20813 0.54567 0.46211 0.0
C177 C 0.22127 0.53016 0.391 0.0
C178 C 0.2342 0.50247 0.0439 0.0
C179 C 0.22225 0.52775 1.0047 0.0
C180 C 0.99108 0.19309 0.98976 0.0
C181 C 0.01619 0.18124 0.94875 0.0
C182 C 0.04199 0.19786 0.95269 0.0
C183 C 0.04303 0.22431 1.00163 0.0
H184 H 0.97645 0.33818 0.16595 0.0
H185 H 0.97075 0.38428 0.24743 0.0
H186 H 0.06232 0.38448 0.31073 0.0
H187 H 0.06781 0.33837 0.22925 0.0
H188 H 0.97818 0.28475 0.40832 0.0
H189 H 0.95214 0.25781 0.52879 0.0
H190 H 1.00835 0.18416 0.48343 0.0
H191 H 0.03359 0.21057 0.36136 0.0
H192 H 0.97286 0.22669 0.07426 0.0
H193 H 0.97085 0.18116 0.99042 0.0
H194 H 0.06174 0.18998 0.92086 0.0
H195 H 0.06366 0.23531 1.00954 0.0
N196 N 0.02301 0.28539 0.11408 0.0
N197 N 0.01892 0.29069 0.27624 0.0
N198 N 0.01751 0.24451 0.21089 0.0
C199 C 0.0226 0.30276 0.19147 0.0
C200 C 0.01661 0.26174 0.28651 0.0
C201 C 0.02082 0.25582 0.12481 0.0
C202 C 0.02269 0.33483 0.18949 0.0
C203 C 0.99569 0.34905 0.19171 0.0
C204 C 0.99235 0.37523 0.24021 0.0
C205 C 0.01599 0.38787 0.28728 0.0
C206 C 0.04367 0.37552 0.27505 0.0
C207 C 0.04693 0.3492 0.22714 0.0
C208 C 1.00758 0.24943 0.37545 0.0
C209 C 0.98566 0.26321 0.42693 0.0
C210 C 0.97074 0.24791 0.49552 0.0
C211 C 0.97828 0.21908 0.5148 0.0
C212 C 1.00237 0.20654 0.47035 0.0
C213 C 0.01671 0.22151 0.40028 0.0
C214 C 0.01822 0.23505 0.04663 0.0
C215 C 0.99213 0.21948 0.03779 0.0
C216 C 0.31601 0.99449 0.99156 0.0
C217 C 0.33034 0.01952 0.95874 0.0
C218 C 0.31572 0.04636 0.96779 0.0
C219 C 0.28897 0.04832 0.01462 0.0
H220 H 0.17207 0.07246 0.20519 0.0
H221 H 0.12629 0.07219 0.29051 0.0
H222 H 0.12911 0.97859 0.30136 0.0
H223 H 0.17439 0.97915 0.21404 0.0
H224 H 0.22771 0.99276 0.43349 0.0
H225 H 0.25545 0.96951 0.55755 0.0
H226 H 0.33102 0.01929 0.47884 0.0
H227 H 0.30363 0.04196 0.35426 0.0
H228 H 0.28012 0.97708 0.06847 0.0
H229 H 0.32631 0.97342 0.98786 0.0
H230 H 0.32545 0.06616 0.94204 0.0
H231 H 0.27967 0.06954 0.02733 0.0
N232 N 0.22555 0.02654 0.12183 0.0
N233 N 0.22146 0.02535 0.2848 0.0
N234 N 0.26729 0.0254 0.21653 0.0
C235 C 0.20869 0.02652 0.20042 0.0
C236 C 0.25058 0.025 0.29349 0.0
C237 C 0.25527 0.02628 0.13084 0.0
C238 C 0.17661 0.02583 0.20108 0.0
C239 C 0.16187 0.0518 0.22039 0.0
C240 C 0.13595 0.05161 0.27162 0.0
C241 C 0.12425 0.02539 0.30555 0.0
C242 C 0.13724 0.99924 0.27666 0.0
C243 C 0.16312 0.9995 0.22517 0.0
C244 C 0.26387 0.01865 0.38354 0.0
C245 C 0.24992 0.99957 0.44528 0.0
C246 C 0.2657 0.98623 0.51607 0.0
C247 C 0.29529 0.99243 0.52687 0.0
C248 C 0.30813 0.01425 0.47235 0.0
C249 C 0.29257 0.02709 0.40059 0.0
C250 C 0.27573 0.02347 0.05192 0.0
C251 C 0.28919 0.99648 0.03741 0.0
C252 C 0.56041 0.30224 0.47261 0.0
C253 C 0.58826 0.29332 0.50076 0.0
C254 C 0.60109 0.26902 0.45868 0.0
C255 C 0.58638 0.25427 0.38796 0.0
H256 H 0.46968 0.20373 0.32822 0.0
H257 H 0.46119 0.15904 0.41243 0.0
H258 H 0.52448 0.11542 0.2403 0.0
H259 H 0.53382 0.1612 0.15949 0.0
H260 H 0.46904 0.28137 0.07881 0.0
H261 H 0.46233 0.32545 0.98506 0.0
H262 H 0.55447 0.32761 0.93001 0.0
H263 H 0.56091 0.28401 0.02355 0.0
H264 H 0.52521 0.29602 0.37813 0.0
H265 H 0.55031 0.32137 0.50205 0.0
H266 H 0.62273 0.26212 0.47836 0.0
H267 H 0.59664 0.23591 0.35447 0.0
N268 N 0.5329 0.22483 0.28489 0.0
N269 N 0.50884 0.23139 0.14179 0.0
N270 N 0.53866 0.26818 0.2031 0.0
C271 C 0.51527 0.21441 0.21744 0.0
C272 C 0.52124 0.25838 0.13421 0.0
C273 C 0.5446 0.25154 0.27788 0.0
C274 C 0.50185 0.18584 0.23565 0.0
C275 C 0.48069 0.18422 0.30539 0.0
C276 C 0.47602 0.15837 0.35435 0.0
C277 C 0.49235 0.13319 0.33484 0.0
C278 C 0.51184 0.13429 0.25931 0.0
C279 C 0.51672 0.16039 0.21101 0.0
C280 C 0.51538 0.2788 0.05667 0.0
C281 C 0.48757 0.29062 0.04327 0.0
C282 C 0.48387 0.31617 0.99084 0.0
C283 C 0.5079 0.33031 0.95004 0.0
C284 C 0.5354 0.3173 0.95903 0.0
C285 C 0.5391 0.29213 0.01236 0.0
C286 C 0.55929 0.26441 0.35732 0.0
C287 C 0.5462 0.28807 0.40099 0.0
Gd288 Gd 0.03372 0.99717 0.79675 0.0
Gd289 Gd 0.98435 1.00856 0.68641 0.0
C290 C 1.00625 0.94423 0.67669 0.0
C291 C 0.07364 0.97921 0.90982 0.0
C292 C 0.08706 0.95279 0.9484 0.0
C293 C 0.11532 0.94484 0.92155 0.0
C294 C 0.07289 0.93663 0.01737 0.0
C295 C 0.11517 0.90541 0.03322 0.0
C296 C 0.08679 0.91318 0.05915 0.0
C297 C 0.12921 0.92118 0.96313 0.0
C298 C 0.04821 0.01849 0.62695 0.0
C299 C 0.01256 0.06198 0.80795 0.0
C300 C 0.94512 0.03003 0.57815 0.0
C301 C 0.92957 0.05772 0.58395 0.0
C302 C 0.9249 0.0706 0.67092 0.0
C303 C 0.92541 0.07411 0.50325 0.0
C304 C 0.91971 0.1175 0.59677 0.0
C305 C 0.92039 0.10391 0.50957 0.0
C306 C 0.91974 0.10034 0.67718 0.0
C307 C 0.96901 0.98842 0.85645 0.0
O308 O 0.02051 0.95128 0.75323 0.0
O309 O 0.99308 0.96451 0.62808 0.0
O310 O 0.07845 0.98486 0.8225 0.0
O311 O 0.0471 0.98537 0.93534 0.0
O312 O 0.05873 0.02766 0.70475 0.0
O313 O 0.0294 0.9991 0.64246 0.0
O314 O 0.99464 0.05424 0.74045 0.0
O315 O 0.02929 0.04261 0.84795 0.0
O316 O 0.93934 0.01106 0.64283 0.0
O317 O 0.97297 0.03263 0.56263 0.0
O318 O 0.95857 0.97909 0.77871 0.0
O319 O 0.9885 1.00719 0.84042 0.0
H320 H 0.12686 0.95721 0.86936 0.0
H321 H 0.05119 0.94224 0.04008 0.0
H322 H 0.0752 0.90099 0.11164 0.0
H323 H 0.15106 0.91558 0.94191 0.0
H324 H 0.92811 0.05835 0.7343 0.0
H325 H 0.92902 0.06451 0.43569 0.0
H326 H 0.92065 0.11667 0.44643 0.0
H327 H 0.9191 0.11039 0.74501 0.0
Gd328 Gd 0.51379 0.03423 0.80233 0.0
Gd329 Gd 0.50285 0.9848 0.6978 0.0
C330 C 0.56691 1.00703 0.67986 0.0
C331 C 0.53461 0.07623 0.90002 0.0
C332 C 0.55973 0.09493 0.88358 0.0
C333 C 0.57163 0.09709 0.79424 0.0
C334 C 0.57429 0.10723 0.95878 0.0
C335 C 0.6153 0.11865 0.85857 0.0
C336 C 0.60187 0.11909 0.94646 0.0
C337 C 0.59915 0.10913 0.78168 0.0
C338 C 0.49318 0.04777 0.63039 0.0
C339 C 0.45036 0.01213 0.8245 0.0
C340 C 0.48111 0.94449 0.59437 0.0
C341 C 0.45274 0.93014 0.5988 0.0
C342 C 0.43934 0.92572 0.6852 0.0
C343 C 0.43627 0.9277 0.5175 0.0
C344 C 0.39241 0.9254 0.60997 0.0
C345 C 0.40611 0.92526 0.52305 0.0
C346 C 0.40924 0.92306 0.69056 0.0
C347 C 0.52369 0.97063 0.86823 0.0
O348 O 0.55976 0.02259 0.75343 0.0
O349 O 0.54669 0.99243 0.63566 0.0
O350 O 0.5131 0.07946 0.84213 0.0
O351 O 0.54091 0.04899 0.91563 0.0
O352 O 0.4833 0.05823 0.70708 0.0
O353 O 0.51264 0.02927 0.64832 0.0
O354 O 0.45714 0.99673 0.74998 0.0
O355 O 0.47081 0.02627 0.86888 0.0
O356 O 0.49898 0.93921 0.66258 0.0
O357 O 0.47978 0.97208 0.57356 0.0
O358 O 0.53329 0.96027 0.79075 0.0
O359 O 0.50443 0.98959 0.85188 0.0
H360 H 0.56056 0.08766 0.73519 0.0
H361 H 0.56534 0.10568 0.02809 0.0
H362 H 0.61366 0.12584 1.0077 0.0
H363 H 0.60873 0.10872 0.71313 0.0
H364 H 0.45161 0.92754 0.74906 0.0
H365 H 0.44625 0.93109 0.45035 0.0
H366 H 0.39345 0.92728 0.45999 0.0
H367 H 0.39893 0.92293 0.75804 0.0
Gd368 Gd 0.48067 0.51112 0.78191 0.0
Gd369 Gd 0.5288 0.50104 0.67306 0.0
C370 C 0.50557 0.5642 0.65659 0.0
C371 C 0.43952 0.53163 0.88419 0.0
C372 C 0.42145 0.55742 0.87135 0.0
C373 C 0.41932 0.57038 0.78344 0.0
C374 C 0.41013 0.57163 0.94874 0.0
C375 C 0.3998 0.61409 0.85346 0.0
C376 C 0.39929 0.59976 0.93994 0.0
C377 C 0.40833 0.59846 0.77443 0.0
C378 C 0.46516 0.49026 0.61226 0.0
C379 C 0.50411 0.44798 0.79986 0.0
C380 C 0.56996 0.48082 0.57031 0.0
C381 C 0.58955 0.45628 0.58533 0.0
C382 C 0.59296 0.44458 0.67464 0.0
C383 C 0.60149 0.44194 0.50918 0.0
C384 C 0.61533 0.40153 0.60906 0.0
C385 C 0.61436 0.41478 0.52084 0.0
C386 C 0.60602 0.4175 0.68654 0.0
C387 C 0.54438 0.52165 0.84283 0.0
O388 O 0.49234 0.55712 0.73465 0.0
O389 O 0.51818 0.54375 0.60766 0.0
O390 O 0.43556 0.51091 0.82416 0.0
O391 O 0.46698 0.53705 0.89912 0.0
O392 O 0.4558 0.48047 0.69063 0.0
O393 O 0.48379 0.5099 0.62672 0.0
O394 O 0.51794 0.45509 0.72281 0.0
O395 O 0.49067 0.46827 0.84721 0.0
O396 O 0.57343 0.50272 0.62631 0.0
O397 O 0.5427 0.47376 0.55928 0.0
O398 O 0.55386 0.53143 0.76459 0.0
O399 O 0.52568 0.50212 0.82801 0.0
H400 H 0.42804 0.55963 0.72275 0.0
H401 H 0.41174 0.5619 0.01701 0.0
H402 H 0.3933 0.61114 1.00269 0.0
H403 H 0.40877 0.60876 0.70689 0.0
H404 H 0.58379 0.45547 0.73441 0.0
H405 H 0.59895 0.45071 0.43987 0.0
H406 H 0.62087 0.40313 0.45915 0.0
H407 H 0.6067 0.4081 0.75538 0.0
Gd408 Gd 0.99821 0.48689 0.78012 0.0
Gd409 Gd 0.01343 0.53439 0.65484 0.0
C410 C 0.94863 0.51299 0.6459 0.0
C411 C 0.97856 0.45741 0.91792 0.0
C412 C 0.95644 0.43471 0.9234 0.0
C413 C 0.94544 0.42209 0.84213 0.0
C414 C 0.94375 0.42817 1.00874 0.0
C415 C 0.90607 0.40043 0.92989 0.0
C416 C 0.91874 0.41116 0.01212 0.0
C417 C 0.92061 0.40481 0.84544 0.0
C418 C 1.00427 0.46126 0.61118 0.0
C419 C 0.06551 0.50457 0.777 0.0
C420 C 0.03538 0.57246 0.54419 0.0
C421 C 0.06037 0.59149 0.55866 0.0
C422 C 0.0706 0.59646 0.64903 0.0
C423 C 0.07693 0.60041 0.48276 0.0
C424 C 0.11658 0.61317 0.58685 0.0
C425 C 0.10483 0.61131 0.49666 0.0
C426 C 0.09846 0.60749 0.66305 0.0
C427 C 0.99504 0.55263 0.82423 0.0
O428 O 0.9541 0.50235 0.72929 0.0
O429 O 0.97009 0.52268 0.59395 0.0
O430 O 1.00234 0.45041 0.87357 0.0
O431 O 0.9686 0.48316 0.89562 0.0
O432 O 0.99781 0.44799 0.68693 0.0
O433 O 1.00764 0.48805 0.62674 0.0
O434 O 0.0585 0.5235 0.71147 0.0
O435 O 0.04548 0.48846 0.81688 0.0
O436 O 0.0129 0.5777 0.59653 0.0
O437 O 0.04176 0.54485 0.53982 0.0
O438 O 0.98586 0.56279 0.74596 0.0
O439 O 0.01251 0.53201 0.80882 0.0
H440 H 0.95494 0.42696 0.77541 0.0
H441 H 0.95199 0.4378 0.07201 0.0
H442 H 0.90805 0.40869 0.07848 0.0
H443 H 0.91168 0.39662 0.78111 0.0
H444 H 0.05801 0.58963 0.70865 0.0
H445 H 0.0693 0.59665 0.41269 0.0
H446 H 0.11817 0.61517 0.43608 0.0
H447 H 0.10676 0.60894 0.73319 0.0
C448 C 0.10335 0.04609 0.45287 0.0
C449 C 0.10172 0.02547 0.38102 0.0
H450 H 0.08775 0.06007 0.58536 0.0
C451 C 0.08029 1.00368 0.38757 0.0
H452 H 0.11979 0.06288 0.45194 0.0
C453 C 0.06175 1.0021 0.46508 0.0
C454 C 0.06443 0.02207 0.53831 0.0
H455 H 0.07821 0.98749 0.33366 0.0
H456 H 0.04613 0.98458 0.46932 0.0
C457 C 0.08506 0.04437 0.53019 0.0
C458 C 0.46587 0.10112 0.45053 0.0
C459 C 0.4912 0.10741 0.39934 0.0
H460 H 0.44679 0.07749 0.56351 0.0
C461 C 0.51625 0.09061 0.41781 0.0
H462 H 0.44583 0.1127 0.43736 0.0
C463 C 0.51637 0.06956 0.48846 0.0
C464 C 0.49164 0.0651 0.54361 0.0
H465 H 0.53638 0.09476 0.38154 0.0
H466 H 0.53639 0.05815 0.50379 0.0
C467 C 0.46623 0.0806 0.52241 0.0
C468 C 0.40455 0.46767 0.4497 0.0
C469 C 0.40802 0.48668 0.37392 0.0
H470 H 0.41992 0.45368 0.58248 0.0
C471 C 0.43259 0.50505 0.37356 0.0
H472 H 0.38585 0.45352 0.45438 0.0
C473 C 0.45208 0.50543 0.44878 0.0
C474 C 0.44757 0.48737 0.52605 0.0
H475 H 0.43642 0.51972 0.31619 0.0
H476 H 0.47005 0.52058 0.44786 0.0
C477 C 0.42405 0.46795 0.5242 0.0
C478 C 0.98899 0.405 0.42761 0.0
C479 C 0.01098 0.40994 0.36185 0.0
H480 H 0.96997 0.41731 0.55697 0.0
C481 C 0.0295 0.434 0.37476 0.0
H482 H 0.97466 0.38648 0.42125 0.0
C483 C 0.0264 0.45221 0.45275 0.0
C484 C 1.00526 0.44613 0.52033 0.0
H485 H 0.04676 0.43832 0.3257 0.0
H486 H 0.04143 0.47001 0.46262 0.0
C487 C 0.9864 0.42262 0.50594 0.0
C488 C 0.9351 0.00953 0.08796 0.0
C489 C 0.90973 0.99229 0.08915 0.0
H490 H 0.97391 0.02175 0.01455 0.0
C491 C 0.90624 0.97162 0.01818 0.0
H492 H 0.93895 0.02539 0.14186 0.0
C493 C 0.9265 0.96934 0.94608 0.0
C494 C 0.95085 0.98771 0.94206 0.0
H495 H 0.887 0.95817 0.01505 0.0
H496 H 0.92231 0.95396 0.89092 0.0
C497 C 0.95537 1.0073 0.01531 0.0
C498 C 0.50293 0.93683 0.09988 0.0
C499 C 0.52072 0.91187 0.10187 0.0
H500 H 0.49 0.97519 0.02534 0.0
C501 C 0.5418 0.90877 0.03186 0.0
H502 H 0.48674 0.94031 0.1531 0.0
C503 C 0.54383 0.92895 0.95942 0.0
C504 C 0.52482 0.95279 0.95435 0.0
H505 H 0.55568 0.88983 0.02957 0.0
H506 H 0.55945 0.92504 0.90473 0.0
C507 C 0.50493 0.95702 0.02698 0.0
C508 C 0.60673 0.54103 1.00283 0.0
C509 C 0.60241 0.52233 0.0789 0.0
H510 H 0.5917 0.55576 0.8705 0.0
C511 C 0.57668 0.50562 0.08077 0.0
H512 H 0.62626 0.55395 0.9971 0.0
C513 C 0.55695 0.50627 1.00629 0.0
C514 C 0.5623 0.52384 0.92849 0.0
H515 H 0.57212 0.49135 0.13859 0.0
H516 H 0.5381 0.49223 1.00818 0.0
C517 C 0.58692 0.54187 0.92919 0.0
C518 C 0.01638 0.58368 0.05933 0.0
C519 C 1.0029 0.61124 0.05744 0.0
H520 H 0.02447 0.54351 0.98798 0.0
C521 C 0.98446 0.61767 0.98224 0.0
H522 H 0.03025 0.57751 0.11669 0.0
C523 C 0.9808 0.5979 0.90937 0.0
C524 C 0.9956 0.57116 0.90889 0.0
H525 H 0.97391 0.6386 0.97698 0.0
H526 H 0.96726 0.60416 0.85123 0.0
C527 C 0.01287 0.56397 0.98587 0.0
C528 C 0.96904 0.18053 0.63043 0.0
C529 C 0.9581 0.19981 0.56411 0.0
H530 H 0.96512 0.13871 0.69025 0.0
C531 C 0.93036 0.19504 0.52619 0.0
H532 H 0.99053 0.18364 0.65955 0.0
C533 C 0.91556 0.16924 0.545 0.0
C534 C 0.92829 0.14828 0.60271 0.0
H535 H 0.9217 0.20956 0.47385 0.0
H536 H 0.89568 0.16449 0.50781 0.0
C537 C 0.95428 0.15491 0.64906 0.0
C538 C 0.31493 0.94295 0.55291 0.0
C539 C 0.31443 0.97247 0.57799 0.0
H540 H 0.34075 0.9042 0.54399 0.0
C541 C 0.33713 0.98386 0.63112 0.0
H542 H 0.29782 0.93385 0.51036 0.0
C543 C 0.3616 0.96711 0.64844 0.0
C544 C 0.36339 0.93847 0.61607 0.0
H545 H 0.33738 1.00662 0.64998 0.0
H546 H 0.38045 0.97768 0.67725 0.0
C547 C 0.33947 0.92604 0.57136 0.0
C548 C 0.62958 0.32674 0.52358 0.0
C549 C 0.60498 0.31306 0.56075 0.0
H550 H 0.6534 0.36644 0.51366 0.0
C551 C 0.59131 0.32527 0.63832 0.0
H552 H 0.64072 0.31756 0.46433 0.0
C553 C 0.5981 0.35347 0.66523 0.0
C554 C 0.6188 0.36955 0.61502 0.0
H555 H 0.57255 0.3148 0.66899 0.0
H556 H 0.58419 0.36375 0.71593 0.0
C557 C 0.6366 0.35491 0.55114 0.0
C558 C 0.18817 0.57934 0.62961 0.0
C559 C 0.20324 0.59056 0.55325 0.0
H560 H 0.14819 0.57883 0.70303 0.0
C561 C 0.19364 0.61645 0.51205 0.0
H562 H 0.19545 0.55951 0.66283 0.0
C563 C 0.16634 0.62755 0.53455 0.0
C564 C 0.1486 0.61269 0.59804 0.0
H565 H 0.20511 0.62559 0.45331 0.0
H566 H 0.15764 0.64524 0.49348 0.0
C567 C 0.16099 0.5905 0.65242 0.0
C568 C 0.13299 0.85 0.21532 0.0
C569 C 0.14244 0.82644 0.16091 0.0
H570 H 0.11747 0.89366 0.21725 0.0
C571 C 0.14884 0.83148 0.06675 0.0
H572 H 0.12764 0.84737 0.28787 0.0
C573 C 0.14213 0.85819 0.02568 0.0
C574 C 0.12929 0.8803 0.07852 0.0
H575 H 0.15686 0.81414 0.02316 0.0
H576 H 0.14481 0.86066 0.95149 0.0
C577 C 0.12659 0.87661 0.17455 0.0
C578 C 0.69033 0.13039 0.94592 0.0
C579 C 0.70275 0.10447 0.91408 0.0
H580 H 0.65189 0.15645 0.94921 0.0
C581 C 0.69017 0.09012 0.83848 0.0
H582 H 0.69985 0.14186 1.00399 0.0
C583 C 0.6626 0.09814 0.80803 0.0
C584 C 0.64744 0.12052 0.85344 0.0
H585 H 0.69959 0.07014 0.81269 0.0
H586 H 0.65177 0.08398 0.75921 0.0
C587 C 0.66272 0.13851 0.91523 0.0
C588 C 0.38956 0.68896 0.94509 0.0
C589 C 0.41534 0.7014 0.91201 0.0
H590 H 0.36329 0.6507 0.94891 0.0
C591 C 0.42954 0.68874 0.83625 0.0
H592 H 0.37818 0.69851 1.00328 0.0
C593 C 0.4213 0.66127 0.80594 0.0
C594 C 0.39882 0.64625 0.85147 0.0
H595 H 0.44937 0.69818 0.80932 0.0
H596 H 0.43519 0.65046 0.75632 0.0
C597 C 0.38124 0.66144 0.91461 0.0
C598 C 0.82645 0.40522 0.88635 0.0
C599 C 0.81632 0.39712 0.97448 0.0
H600 H 0.86365 0.41293 0.80258 0.0
C601 C 0.83455 0.38048 0.03205 0.0
H602 H 0.81258 0.41715 0.83902 0.0
C603 C 0.86385 0.37722 0.00996 0.0
C604 C 0.87526 0.391 0.93111 0.0
H605 H 0.8274 0.37333 0.09983 0.0
H606 H 0.87811 0.36711 0.0603 0.0
C607 C 0.85586 0.40252 0.86513 0.0
C608 C 0.04014 0.1326 0.91461 0.0
C609 C 0.0157 0.151 0.90829 0.0
H610 H 0.05833 0.09047 0.88836 0.0
C611 C 0.99028 0.13949 0.86779 0.0
H612 H 0.05996 0.14001 0.94724 0.0
C613 C 0.98933 0.11076 0.83515 0.0
C614 C 0.01374 0.09267 0.84101 0.0
H615 H 0.97093 0.15265 0.86084 0.0
H616 H 0.96925 0.10249 0.80661 0.0
C617 C 0.03913 0.10391 0.88172 0.0
C618 C 0.38091 0.04071 0.93624 0.0
C619 C 0.36103 0.01783 0.92185 0.0
H620 H 0.42426 0.05688 0.91724 0.0
C621 C 0.37138 0.9928 0.87614 0.0
H622 H 0.37445 0.06006 0.97335 0.0
C623 C 0.40036 0.99086 0.84592 0.0
C624 C 0.41978 0.01391 0.85855 0.0
H625 H 0.35713 0.97461 0.86298 0.0
H626 H 0.40774 0.97114 0.81321 0.0
C627 C 0.40977 0.03877 0.90514 0.0
C628 C 0.52132 0.3673 0.82681 0.0
C629 C 0.50507 0.35973 0.90607 0.0
H630 H 0.53385 0.4008 0.73112 0.0
C631 C 0.48781 0.38131 0.94759 0.0
H632 H 0.53467 0.35125 0.7924 0.0
C633 C 0.48737 0.40971 0.91256 0.0
C634 C 0.50407 0.41743 0.83459 0.0
H635 H 0.47534 0.37654 1.00938 0.0
H636 H 0.47416 0.42574 0.94763 0.0
C637 C 0.52079 0.39574 0.79145 0.0
C638 C 0.13158 0.48083 0.91837 0.0
C639 C 0.15356 0.49963 0.88682 0.0
H640 H 0.08713 0.46759 0.90918 0.0
C641 C 0.14651 0.51929 0.81509 0.0
H642 H 0.13577 0.46569 0.97428 0.0
C643 C 0.11824 0.52061 0.77795 0.0
C644 C 0.09616 0.50229 0.81141 0.0
H645 H 0.16284 0.53386 0.78792 0.0
H646 H 0.11361 0.53631 0.72399 0.0
C647 C 0.10341 0.48213 0.88133 0.0
C648 C 0.98499 0.87685 0.53927 0.0
C649 C 1.00527 0.85597 0.5697 0.0
H650 H 0.96946 0.92059 0.54837 0.0
C651 C 0.02522 0.86436 0.63923 0.0
H652 H 0.96885 0.87143 0.48757 0.0
C653 C 0.02512 0.89264 0.67577 0.0
C654 C 1.0054 0.91357 0.643 0.0
H655 H 0.04162 0.84939 0.66382 0.0
H656 H 0.04109 0.89832 0.72785 0.0
C657 C 0.98521 0.90518 0.57477 0.0
C658 C 0.64836 0.02178 0.65271 0.0
C659 C 0.6554 1.00558 0.57278 0.0
H660 H 0.61531 0.03512 0.749 0.0
C661 C 0.63302 0.98949 0.53045 0.0
H662 H 0.66489 0.03422 0.68823 0.0
C663 C 0.60464 0.98983 0.56584 0.0
C664 C 0.59752 1.00634 0.64472 0.0
H665 H 0.63713 0.97719 0.46794 0.0
H666 H 0.58815 0.97735 0.5302 0.0
C667 C 0.61985 0.0222 0.68805 0.0
C668 C 0.49476 0.6464 0.6425 0.0
C669 C 0.50894 0.65346 0.55876 0.0
H670 H 0.4824 0.61301 0.73894 0.0
C671 C 0.52199 0.63073 0.50852 0.0
H672 H 0.48466 0.66321 0.68377 0.0
C673 C 0.52085 0.60202 0.54047 0.0
C674 C 0.50652 0.59495 0.62363 0.0
H675 H 0.53255 0.63493 0.44284 0.0
H676 H 0.53107 0.58528 0.49917 0.0
C677 C 0.49354 0.61756 0.67444 0.0
C678 C 0.86616 0.50472 0.63048 0.0
C679 C 0.85996 0.51545 0.54098 0.0
H680 H 0.89855 0.49545 0.73347 0.0
C681 C 0.88334 0.52591 0.48745 0.0
H682 H 0.84888 0.49676 0.67455 0.0
C683 C 0.91191 0.5253 0.52165 0.0
C684 C 0.91809 0.51417 0.61046 0.0
H685 H 0.87977 0.53385 0.4177 0.0
H686 H 0.92922 0.53327 0.4777 0.0
C687 C 0.89475 0.50407 0.66461 0.0
loop_
_geom_bond_atom_site_label_1
_geom_bond_atom_site_label_2
_geom_bond_distance
_geom_bond_site_symmetry_2
_ccdc_geom_bond_type
C0 C1 1.384 . S
C0 H13 0.947 . S
C0 C35 1.382 . S
C1 C0 1.384 . S
C1 C2 1.378 . S
C2 C1 1.378 . S
C2 C3 1.378 . S
C2 H14 0.952 . S
C3 C2 1.378 . S
C3 H15 0.950 . S
C3 C34 1.383 . S
H4 C23 0.947 . S
H5 C24 0.946 . S
H6 C26 0.953 . S
H7 C27 0.945 . S
H8 C29 0.952 . S
H9 C30 0.949 . S
H10 C32 0.950 . S
H11 C33 0.948 . S
H12 C35 0.951 . S
H13 C0 0.947 . S
H14 C2 0.952 . S
H15 C3 0.950 . S
N16 C19 1.382 . S
N16 C21 1.363 . S
N17 C19 1.371 . S
N17 C20 1.372 . S
N18 C20 1.361 . S
N18 C21 1.377 . S
C19 N16 1.382 . S
C19 N17 1.371 . S
C19 C22 1.480 . S
C20 N17 1.372 . S
C20 N18 1.361 . S
C20 C28 1.457 . S
C21 N16 1.363 . S
C21 N18 1.377 . S
C21 C34 1.479 . S
C22 C19 1.480 . S
C22 C23 1.383 . S
C22 C27 1.385 . S
C23 H4 0.947 . S
C23 C22 1.383 . S
C23 C24 1.388 . S
C24 H5 0.946 . S
C24 C23 1.388 . S
C24 C25 1.384 . S
C25 C24 1.384 . S
C25 C26 1.377 . S
C26 H6 0.953 . S
C26 C25 1.377 . S
C26 C27 1.369 . S
C27 H7 0.945 . S
C27 C22 1.385 . S
C27 C26 1.369 . S
C28 C20 1.457 . S
C28 C29 1.372 . S
C28 C33 1.364 . S
C29 H8 0.952 . S
C29 C28 1.372 . S
C29 C30 1.389 . S
C30 H9 0.949 . S
C30 C29 1.389 . S
C30 C31 1.387 . S
C31 C30 1.387 . S
C31 C32 1.372 . S
C32 H10 0.950 . S
C32 C31 1.372 . S
C32 C33 1.379 . S
C33 H11 0.948 . S
C33 C28 1.364 . S
C33 C32 1.379 . S
C34 C3 1.383 . S
C34 C21 1.479 . S
C34 C35 1.398 . S
C35 C0 1.382 . S
C35 H12 0.951 . S
C35 C34 1.398 . S
C36 C37 1.384 1_655 S
C36 H49 0.948 . S
C36 C71 1.382 1_655 S
C37 C36 1.384 1_455 S
C37 C38 1.378 . S
C38 C37 1.378 . S
C38 C39 1.378 . S
C38 H50 0.952 . S
C39 C38 1.378 . S
C39 H51 0.950 . S
C39 C70 1.383 . S
H40 C59 0.947 . S
H41 C60 0.952 . S
H42 C62 0.953 . S
H43 C63 0.945 . S
H44 C65 0.949 1_655 S
H45 C66 0.949 . S
H46 C68 0.950 . S
H47 C69 0.948 . S
H48 C71 0.951 1_655 S
H49 C36 0.948 . S
H50 C38 0.952 . S
H51 C39 0.950 . S
N52 C55 1.382 . S
N52 C57 1.363 . S
N53 C55 1.371 . S
N53 C56 1.372 . S
N54 C56 1.361 . S
N54 C57 1.377 . S
C55 N52 1.382 . S
C55 N53 1.371 . S
C55 C58 1.480 . S
C56 N53 1.372 . S
C56 N54 1.361 . S
C56 C64 1.457 . S
C57 N52 1.363 . S
C57 N54 1.377 . S
C57 C70 1.479 . S
C58 C55 1.480 . S
C58 C59 1.383 . S
C58 C63 1.385 . S
C59 H40 0.947 . S
C59 C58 1.383 . S
C59 C60 1.386 1_455 S
C60 H41 0.952 . S
C60 C59 1.386 1_655 S
C60 C61 1.381 1_655 S
C61 C60 1.381 1_455 S
C61 C62 1.377 . S
C62 H42 0.953 . S
C62 C61 1.377 . S
C62 C63 1.369 . S
C63 H43 0.945 . S
C63 C58 1.385 . S
C63 C62 1.369 . S
C64 C56 1.457 . S
C64 C65 1.377 . S
C64 C69 1.364 . S
C65 H44 0.949 1_455 S
C65 C64 1.377 . S
C65 C66 1.387 1_455 S
C66 H45 0.949 . S
C66 C65 1.387 1_655 S
C66 C67 1.387 1_655 S
C67 C66 1.387 1_455 S
C67 C68 1.372 . S
C68 H46 0.950 . S
C68 C67 1.372 . S
C68 C69 1.379 . S
C69 H47 0.948 . S
C69 C64 1.364 . S
C69 C68 1.379 . S
C70 C39 1.383 . S
C70 C57 1.479 . S
C70 C71 1.398 . S
C71 C36 1.382 1_455 S
C71 H48 0.951 1_455 S
C71 C70 1.398 . S
C72 C73 1.384 1_565 S
C72 H85 0.948 . S
C72 C107 1.382 1_565 S
C73 C72 1.384 1_545 S
C73 C74 1.378 . S
C74 C73 1.378 . S
C74 C75 1.378 . S
C74 H86 0.952 . S
C75 C74 1.378 . S
C75 H87 0.950 . S
C75 C106 1.383 . S
H76 C95 0.947 . S
H77 C96 0.952 . S
H78 C98 0.953 . S
H79 C99 0.945 . S
H80 C101 0.949 1_565 S
H81 C102 0.949 . S
H82 C104 0.950 . S
H83 C105 0.948 . S
H84 C107 0.951 1_565 S
H85 C72 0.948 . S
H86 C74 0.952 . S
H87 C75 0.950 . S
N88 C91 1.382 . S
N88 C93 1.363 . S
N89 C91 1.371 . S
N89 C92 1.372 . S
N90 C92 1.361 . S
N90 C93 1.377 . S
C91 N88 1.382 . S
C91 N89 1.371 . S
C91 C94 1.480 . S
C92 N89 1.372 . S
C92 N90 1.361 . S
C92 C100 1.457 . S
C93 N88 1.363 . S
C93 N90 1.377 . S
C93 C106 1.479 . S
C94 C91 1.480 . S
C94 C95 1.383 . S
C94 C99 1.385 . S
C95 H76 0.947 . S
C95 C94 1.383 . S
C95 C96 1.386 1_545 S
C96 H77 0.952 . S
C96 C95 1.386 1_565 S
C96 C97 1.382 1_565 S
C97 C96 1.382 1_545 S
C97 C98 1.377 . S
C98 H78 0.953 . S
C98 C97 1.377 . S
C98 C99 1.369 . S
C99 H79 0.945 . S
C99 C94 1.385 . S
C99 C98 1.369 . S
C100 C92 1.457 . S
C100 C101 1.377 . S
C100 C105 1.364 . S
C101 H80 0.949 1_545 S
C101 C100 1.377 . S
C101 C102 1.387 1_545 S
C102 H81 0.949 . S
C102 C101 1.387 1_565 S
C102 C103 1.387 1_565 S
C103 C102 1.387 1_545 S
C103 C104 1.372 . S
C104 H82 0.950 . S
C104 C103 1.372 . S
C104 C105 1.379 . S
C105 H83 0.948 . S
C105 C100 1.364 . S
C105 C104 1.379 . S
C106 C75 1.383 . S
C106 C93 1.479 . S
C106 C107 1.398 . S
C107 C72 1.382 1_545 S
C107 H84 0.951 1_545 S
C107 C106 1.398 . S
C108 C109 1.384 . S
C108 H121 0.947 . S
C108 C143 1.382 . S
C109 C108 1.384 . S
C109 C110 1.378 . S
C110 C109 1.378 . S
C110 C111 1.378 . S
C110 H122 0.952 . S
C111 C110 1.378 . S
C111 H123 0.950 . S
C111 C142 1.383 . S
H112 C131 0.947 . S
H113 C132 0.946 . S
H114 C134 0.953 . S
H115 C135 0.945 . S
H116 C137 0.952 . S
H117 C138 0.949 . S
H118 C140 0.950 . S
H119 C141 0.948 . S
H120 C143 0.951 . S
H121 C108 0.947 . S
H122 C110 0.952 . S
H123 C111 0.950 . S
N124 C127 1.382 . S
N124 C129 1.363 . S
N125 C127 1.371 . S
N125 C128 1.372 . S
N126 C128 1.361 . S
N126 C129 1.377 . S
C127 N124 1.382 . S
C127 N125 1.371 . S
C127 C130 1.480 . S
C128 N125 1.372 . S
C128 N126 1.361 . S
C128 C136 1.457 . S
C129 N124 1.363 . S
C129 N126 1.377 . S
C129 C142 1.479 . S
C130 C127 1.480 . S
C130 C131 1.383 . S
C130 C135 1.385 . S
C131 H112 0.947 . S
C131 C130 1.383 . S
C131 C132 1.388 . S
C132 H113 0.946 . S
C132 C131 1.388 . S
C132 C133 1.384 . S
C133 C132 1.384 . S
C133 C134 1.377 . S
C134 H114 0.953 . S
C134 C133 1.377 . S
C134 C135 1.369 . S
C135 H115 0.945 . S
C135 C130 1.385 . S
C135 C134 1.369 . S
C136 C128 1.457 . S
C136 C137 1.372 . S
C136 C141 1.364 . S
C137 H116 0.952 . S
C137 C136 1.372 . S
C137 C138 1.389 . S
C138 H117 0.949 . S
C138 C137 1.389 . S
C138 C139 1.387 . S
C139 C138 1.387 . S
C139 C140 1.372 . S
C140 H118 0.950 . S
C140 C139 1.372 . S
C140 C141 1.379 . S
C141 H119 0.948 . S
C141 C136 1.364 . S
C141 C140 1.379 . S
C142 C111 1.383 . S
C142 C129 1.479 . S
C142 C143 1.398 . S
C143 C108 1.382 . S
C143 H120 0.951 . S
C143 C142 1.398 . S
C144 C145 1.384 . S
C144 H157 0.947 . S
C144 C179 1.382 . S
C145 C144 1.384 . S
C145 C146 1.378 . S
C146 C145 1.378 . S
C146 C147 1.378 . S
C146 H158 0.952 . S
C147 C146 1.378 . S
C147 H159 0.950 . S
C147 C178 1.383 . S
H148 C167 0.947 1_556 S
H149 C168 0.946 1_556 S
H150 C170 0.953 . S
H151 C171 0.945 . S
H152 C173 0.952 . S
H153 C174 0.949 . S
H154 C176 0.950 . S
H155 C177 0.948 . S
H156 C179 0.951 . S
H157 C144 0.947 . S
H158 C146 0.952 . S
H159 C147 0.950 . S
N160 C163 1.382 1_556 S
N160 C165 1.363 . S
N161 C163 1.371 . S
N161 C164 1.372 . S
N162 C164 1.361 . S
N162 C165 1.377 1_554 S
C163 N160 1.382 1_554 S
C163 N161 1.371 . S
C163 C166 1.480 . S
C164 N161 1.372 . S
C164 N162 1.361 . S
C164 C172 1.457 . S
C165 N160 1.363 . S
C165 N162 1.377 1_556 S
C165 C178 1.479 . S
C166 C163 1.480 . S
C166 C167 1.383 . S
C166 C171 1.385 . S
C167 H148 0.947 1_554 S
C167 C166 1.383 . S
C167 C168 1.388 . S
C168 H149 0.946 1_554 S
C168 C167 1.388 . S
C168 C169 1.384 . S
C169 C168 1.384 . S
C169 C170 1.377 . S
C170 H150 0.953 . S
C170 C169 1.377 . S
C170 C171 1.369 . S
C171 H151 0.945 . S
C171 C166 1.385 . S
C171 C170 1.369 . S
C172 C164 1.457 . S
C172 C173 1.372 . S
C172 C177 1.364 . S
C173 H152 0.952 . S
C173 C172 1.372 . S
C173 C174 1.389 . S
C174 H153 0.949 . S
C174 C173 1.389 . S
C174 C175 1.387 . S
C175 C174 1.387 . S
C175 C176 1.372 . S
C176 H154 0.950 . S
C176 C175 1.372 . S
C176 C177 1.379 . S
C177 H155 0.948 . S
C177 C172 1.364 . S
C177 C176 1.379 . S
C178 C147 1.383 . S
C178 C165 1.479 . S
C178 C179 1.398 . S
C179 C144 1.382 . S
C179 H156 0.951 . S
C179 C178 1.398 . S
C180 C181 1.384 1_655 S
C180 H193 0.947 . S
C180 C215 1.382 1_655 S
C181 C180 1.384 1_455 S
C181 C182 1.378 . S
C182 C181 1.378 . S
C182 C183 1.378 . S
C182 H194 0.952 . S
C183 C182 1.378 . S
C183 H195 0.950 . S
C183 C214 1.383 . S
H184 C203 0.947 1_556 S
H185 C204 0.950 1_556 S
H186 C206 0.953 . S
H187 C207 0.945 . S
H188 C209 0.947 1_655 S
H189 C210 0.955 . S
H190 C212 0.950 . S
H191 C213 0.948 . S
H192 C215 0.950 1_655 S
H193 C180 0.947 . S
H194 C182 0.952 . S
H195 C183 0.950 . S
N196 C199 1.382 1_556 S
N196 C201 1.363 . S
N197 C199 1.371 . S
N197 C200 1.372 . S
N198 C200 1.361 . S
N198 C201 1.377 1_554 S
C199 N196 1.382 1_554 S
C199 N197 1.371 . S
C199 C202 1.480 . S
C200 N197 1.372 . S
C200 N198 1.361 . S
C200 C208 1.457 . S
C201 N196 1.363 . S
C201 N198 1.377 1_556 S
C201 C214 1.479 . S
C202 C199 1.480 . S
C202 C203 1.383 . S
C202 C207 1.385 . S
C203 H184 0.947 1_554 S
C203 C202 1.383 . S
C203 C204 1.387 1_455 S
C204 H185 0.950 1_554 S
C204 C203 1.387 1_655 S
C204 C205 1.382 1_655 S
C205 C204 1.382 1_455 S
C205 C206 1.377 . S
C206 H186 0.953 . S
C206 C205 1.377 . S
C206 C207 1.369 . S
C207 H187 0.945 . S
C207 C202 1.385 . S
C207 C206 1.369 . S
C208 C200 1.457 . S
C208 C209 1.379 . S
C208 C213 1.364 . S
C209 H188 0.947 1_455 S
C209 C208 1.379 . S
C209 C210 1.387 1_455 S
C210 H189 0.955 . S
C210 C209 1.387 1_655 S
C210 C211 1.383 1_655 S
C211 C210 1.383 1_455 S
C211 C212 1.372 . S
C212 H190 0.950 . S
C212 C211 1.372 . S
C212 C213 1.379 . S
C213 H191 0.948 . S
C213 C208 1.364 . S
C213 C212 1.379 . S
C214 C183 1.383 . S
C214 C201 1.479 . S
C214 C215 1.399 . S
C215 C180 1.382 1_455 S
C215 H192 0.950 1_455 S
C215 C214 1.399 . S
C216 C217 1.384 1_565 S
C216 H229 0.947 . S
C216 C251 1.382 1_565 S
C217 C216 1.384 1_545 S
C217 C218 1.378 . S
C218 C217 1.378 . S
C218 C219 1.378 . S
C218 H230 0.952 . S
C219 C218 1.378 . S
C219 H231 0.950 . S
C219 C250 1.383 . S
H220 C239 0.947 1_556 S
H221 C240 0.950 1_556 S
H222 C242 0.953 . S
H223 C243 0.945 . S
H224 C245 0.947 1_565 S
H225 C246 0.954 . S
H226 C248 0.950 . S
H227 C249 0.948 . S
H228 C251 0.950 1_565 S
H229 C216 0.947 . S
H230 C218 0.952 . S
H231 C219 0.950 . S
N232 C235 1.382 1_556 S
N232 C237 1.363 . S
N233 C235 1.371 . S
N233 C236 1.372 . S
N234 C236 1.361 . S
N234 C237 1.377 1_554 S
C235 N232 1.382 1_554 S
C235 N233 1.371 . S
C235 C238 1.480 . S
C236 N233 1.372 . S
C236 N234 1.361 . S
C236 C244 1.457 . S
C237 N232 1.363 . S
C237 N234 1.377 1_556 S
C237 C250 1.479 . S
C238 C235 1.480 . S
C238 C239 1.383 . S
C238 C243 1.385 . S
C239 H220 0.947 1_554 S
C239 C238 1.383 . S
C239 C240 1.387 1_545 S
C240 H221 0.950 1_554 S
C240 C239 1.387 1_565 S
C240 C241 1.382 1_565 S
C241 C240 1.382 1_545 S
C241 C242 1.377 . S
C242 H222 0.953 . S
C242 C241 1.377 . S
C242 C243 1.369 . S
C243 H223 0.945 . S
C243 C238 1.385 . S
C243 C242 1.369 . S
C244 C236 1.457 . S
C244 C245 1.379 . S
C244 C249 1.364 . S
C245 H224 0.947 1_545 S
C245 C244 1.379 . S
C245 C246 1.387 1_545 S
C246 H225 0.954 . S
C246 C245 1.387 1_565 S
C246 C247 1.383 1_565 S
C247 C246 1.383 1_545 S
C247 C248 1.372 . S
C248 H226 0.950 . S
C248 C247 1.372 . S
C248 C249 1.379 . S
C249 H227 0.948 . S
C249 C244 1.364 . S
C249 C248 1.379 . S
C250 C219 1.383 . S
C250 C237 1.479 . S
C250 C251 1.399 . S
C251 C216 1.382 1_545 S
C251 H228 0.950 1_545 S
C251 C250 1.399 . S
C252 C253 1.384 . S
C252 H265 0.947 . S
C252 C287 1.382 . S
C253 C252 1.384 . S
C253 C254 1.378 . S
C254 C253 1.378 . S
C254 C255 1.378 . S
C254 H266 0.952 . S
C255 C254 1.378 . S
C255 H267 0.950 . S
C255 C286 1.383 . S
H256 C275 0.947 . S
H257 C276 0.946 . S
H258 C278 0.953 1_556 S
H259 C279 0.945 1_556 S
H260 C281 0.952 . S
H261 C282 0.949 . S
H262 C284 0.950 . S
H263 C285 0.948 . S
H264 C287 0.951 . S
H265 C252 0.947 . S
H266 C254 0.952 . S
H267 C255 0.950 . S
N268 C271 1.382 . S
N268 C273 1.363 . S
N269 C271 1.371 1_556 S
N269 C272 1.372 . S
N270 C272 1.361 1_554 S
N270 C273 1.377 . S
C271 N268 1.382 . S
C271 N269 1.371 1_554 S
C271 C274 1.480 . S
C272 N269 1.372 . S
C272 N270 1.361 1_556 S
C272 C280 1.457 . S
C273 N268 1.363 . S
C273 N270 1.377 . S
C273 C286 1.479 . S
C274 C271 1.480 . S
C274 C275 1.383 . S
C274 C279 1.385 . S
C275 H256 0.947 . S
C275 C274 1.383 . S
C275 C276 1.388 . S
C276 H257 0.946 . S
C276 C275 1.388 . S
C276 C277 1.384 . S
C277 C276 1.384 . S
C277 C278 1.377 . S
C278 H258 0.953 1_554 S
C278 C277 1.377 . S
C278 C279 1.369 . S
C279 H259 0.945 1_554 S
C279 C274 1.385 . S
C279 C278 1.369 . S
C280 C272 1.457 . S
C280 C281 1.372 . S
C280 C285 1.364 . S
C281 H260 0.952 . S
C281 C280 1.372 . S
C281 C282 1.389 . S
C282 H261 0.949 . S
C282 C281 1.389 . S
C282 C283 1.387 . S
C283 C282 1.387 . S
C283 C284 1.372 . S
C284 H262 0.950 . S
C284 C283 1.372 . S
C284 C285 1.379 . S
C285 H263 0.948 . S
C285 C280 1.364 . S
C285 C284 1.379 . S
C286 C255 1.383 . S
C286 C273 1.479 . S
C286 C287 1.398 . S
C287 C252 1.382 . S
C287 H264 0.951 . S
C287 C286 1.398 . S
Gd288 C291 2.818 . S
Gd288 O308 2.377 . S
Gd288 O310 2.448 . S
Gd288 O311 2.506 . S
Gd288 O312 2.435 . S
Gd288 O313 2.717 1_565 S
Gd288 O315 2.395 1_565 S
Gd288 O319 2.327 1_455 S
Gd289 C300 2.818 . S
Gd289 O309 2.395 1_545 S
Gd289 O313 2.327 1_655 S
Gd289 O314 2.377 . S
Gd289 O316 2.448 . S
Gd289 O317 2.506 . S
Gd289 O318 2.435 . S
Gd289 O319 2.717 1_545 S
C290 O308 1.240 1_655 S
C290 O309 1.240 . S
C291 Gd288 2.818 . S
C291 C292 1.510 . S
C291 O310 1.249 . S
C291 O311 1.252 . S
C292 C291 1.510 . S
C292 C293 1.404 . S
C292 C294 1.352 1_556 S
C293 C292 1.404 . S
C293 C297 1.389 1_556 S
C293 H320 0.930 . S
C294 C292 1.352 1_554 S
C294 C296 1.374 . S
C294 H321 0.931 1_454 S
C295 C296 1.359 . S
C295 C297 1.364 . S
C296 C294 1.374 . S
C296 C295 1.359 . S
C296 H322 0.931 . S
C297 C293 1.389 1_554 S
C297 C295 1.364 . S
C297 H323 0.931 . S
C298 O312 1.256 . S
C298 O313 1.257 1_565 S
C299 O314 1.240 1_455 S
C299 O315 1.240 . S
C300 Gd289 2.818 . S
C300 C301 1.510 . S
C300 O316 1.249 . S
C300 O317 1.252 . S
C301 C300 1.510 . S
C301 C302 1.404 . S
C301 C303 1.352 . S
C302 C301 1.404 . S
C302 C306 1.389 . S
C302 H324 0.930 . S
C303 C301 1.352 . S
C303 C305 1.374 . S
C303 H325 0.931 1_655 S
C304 C305 1.359 . S
C304 C306 1.364 . S
C305 C303 1.374 . S
C305 C304 1.359 . S
C305 H326 0.931 . S
C306 C302 1.389 . S
C306 C304 1.364 . S
C306 H327 0.931 . S
C307 O318 1.256 . S
C307 O319 1.257 1_545 S
O308 Gd288 2.377 . S
O308 C290 1.240 1_455 S
O309 Gd289 2.395 1_565 S
O309 C290 1.240 . S
O310 Gd288 2.448 . S
O310 C291 1.249 . S
O311 Gd288 2.506 . S
O311 C291 1.252 . S
O312 Gd288 2.435 . S
O312 C298 1.256 . S
O313 Gd288 2.717 1_545 S
O313 Gd289 2.327 1_455 S
O313 C298 1.257 1_545 S
O314 Gd289 2.377 . S
O314 C299 1.240 1_655 S
O315 Gd288 2.395 1_545 S
O315 C299 1.240 . S
O316 Gd289 2.448 . S
O316 C300 1.249 . S
O317 Gd289 2.506 . S
O317 C300 1.252 . S
O318 Gd289 2.435 . S
O318 C307 1.256 . S
O319 Gd288 2.327 1_655 S
O319 Gd289 2.717 1_565 S
O319 C307 1.257 1_565 S
H320 C293 0.930 . S
H321 C294 0.931 1_656 S
H322 C296 0.931 . S
H323 C297 0.931 . S
H324 C302 0.930 . S
H325 C303 0.931 1_455 S
H326 C305 0.931 . S
H327 C306 0.931 . S
Gd328 C331 2.818 . S
Gd328 O348 2.377 . S
Gd328 O350 2.448 . S
Gd328 O351 2.506 . S
Gd328 O352 2.435 . S
Gd328 O353 2.717 . S
Gd328 O355 2.395 . S
Gd328 O359 2.327 1_545 S
Gd329 C340 2.818 . S
Gd329 O349 2.395 . S
Gd329 O353 2.327 1_565 S
Gd329 O354 2.377 . S
Gd329 O356 2.448 . S
Gd329 O357 2.506 . S
Gd329 O358 2.435 . S
Gd329 O359 2.717 . S
C330 O348 1.240 1_565 S
C330 O349 1.240 . S
C331 Gd328 2.818 . S
C331 C332 1.510 . S
C331 O350 1.249 . S
C331 O351 1.252 . S
C332 C331 1.510 . S
C332 C333 1.404 . S
C332 C334 1.352 1_556 S
C333 C332 1.404 . S
C333 C337 1.389 1_556 S
C333 H360 0.930 . S
C334 C332 1.352 1_554 S
C334 C336 1.374 . S
C334 H361 0.931 1_544 S
C335 C336 1.359 . S
C335 C337 1.364 . S
C336 C334 1.374 . S
C336 C335 1.359 . S
C336 H362 0.959 . S
C337 C333 1.389 1_554 S
C337 C335 1.364 . S
C337 H363 0.931 . S
C338 O352 1.256 . S
C338 O353 1.257 . S
C339 O354 1.240 1_545 S
C339 O355 1.240 . S
C340 Gd329 2.818 . S
C340 C341 1.510 . S
C340 O356 1.249 . S
C340 O357 1.252 . S
C341 C340 1.510 . S
C341 C342 1.404 . S
C341 C343 1.352 . S
C342 C341 1.404 . S
C342 C346 1.389 . S
C342 H364 0.930 . S
C343 C341 1.352 . S
C343 C345 1.374 . S
C343 H365 0.931 1_565 S
C344 C345 1.359 . S
C344 C346 1.364 . S
C345 C343 1.374 . S
C345 C344 1.359 . S
C345 H366 0.951 . S
C346 C342 1.389 . S
C346 C344 1.364 . S
C346 H367 0.931 . S
C347 O358 1.256 . S
C347 O359 1.257 . S
O348 Gd328 2.377 . S
O348 C330 1.240 1_545 S
O349 Gd329 2.395 . S
O349 C330 1.240 . S
O350 Gd328 2.448 . S
O350 C331 1.249 . S
O351 Gd328 2.506 . S
O351 C331 1.252 . S
O352 Gd328 2.435 . S
O352 C338 1.256 . S
O353 Gd328 2.717 . S
O353 Gd329 2.327 1_545 S
O353 C338 1.257 . S
O354 Gd329 2.377 . S
O354 C339 1.240 1_565 S
O355 Gd328 2.395 . S
O355 C339 1.240 . S
O356 Gd329 2.448 . S
O356 C340 1.249 . S
O357 Gd329 2.506 . S
O357 C340 1.252 . S
O358 Gd329 2.435 . S
O358 C347 1.256 . S
O359 Gd328 2.327 1_565 S
O359 Gd329 2.717 . S
O359 C347 1.257 . S
H360 C333 0.930 . S
H361 C334 0.931 1_566 S
H362 C336 0.959 . S
H363 C337 0.931 . S
H364 C342 0.930 . S
H365 C343 0.931 1_545 S
H366 C345 0.951 . S
H367 C346 0.931 . S
Gd368 C371 2.818 . S
Gd368 O388 2.377 . S
Gd368 O390 2.448 . S
Gd368 O391 2.506 . S
Gd368 O392 2.435 . S
Gd368 O393 2.717 . S
Gd368 O395 2.395 . S
Gd368 O399 2.327 . S
Gd369 C380 2.818 . S
Gd369 O389 2.395 . S
Gd369 O393 2.327 . S
Gd369 O394 2.377 . S
Gd369 O396 2.448 . S
Gd369 O397 2.506 . S
Gd369 O398 2.435 . S
Gd369 O399 2.717 . S
C370 O388 1.240 . S
C370 O389 1.240 . S
C371 Gd368 2.818 . S
C371 C372 1.510 . S
C371 O390 1.249 . S
C371 O391 1.252 . S
C372 C371 1.510 . S
C372 C373 1.404 . S
C372 C374 1.352 1_556 S
C373 C372 1.404 . S
C373 C377 1.389 1_556 S
C373 H400 0.930 . S
C374 C372 1.352 1_554 S
C374 C376 1.374 . S
C374 H401 0.931 1_554 S
C375 C376 1.359 . S
C375 C377 1.364 . S
C376 C374 1.374 . S
C376 C375 1.359 . S
C376 H402 0.931 . S
C377 C373 1.389 1_554 S
C377 C375 1.364 . S
C377 H403 0.931 . S
C378 O392 1.256 . S
C378 O393 1.257 . S
C379 O394 1.240 . S
C379 O395 1.240 . S
C380 Gd369 2.818 . S
C380 C381 1.510 . S
C380 O396 1.249 . S
C380 O397 1.252 . S
C381 C380 1.510 . S
C381 C382 1.404 . S
C381 C383 1.352 . S
C382 C381 1.404 . S
C382 C386 1.389 . S
C382 H404 0.930 . S
C383 C381 1.352 . S
C383 C385 1.374 . S
C383 H405 0.931 . S
C384 C385 1.359 . S
C384 C386 1.364 . S
C385 C383 1.374 . S
C385 C384 1.359 . S
C385 H406 0.931 . S
C386 C382 1.389 . S
C386 C384 1.364 . S
C386 H407 0.931 . S
C387 O398 1.256 . S
C387 O399 1.257 . S
O388 Gd368 2.377 . S
O388 C370 1.240 . S
O389 Gd369 2.395 . S
O389 C370 1.240 . S
O390 Gd368 2.448 . S
O390 C371 1.249 . S
O391 Gd368 2.506 . S
O391 C371 1.252 . S
O392 Gd368 2.435 . S
O392 C378 1.256 . S
O393 Gd368 2.717 . S
O393 Gd369 2.327 . S
O393 C378 1.257 . S
O394 Gd369 2.377 . S
O394 C379 1.240 . S
O395 Gd368 2.395 . S
O395 C379 1.240 . S
O396 Gd369 2.448 . S
O396 C380 1.249 . S
O397 Gd369 2.506 . S
O397 C380 1.252 . S
O398 Gd369 2.435 . S
O398 C387 1.256 . S
O399 Gd368 2.327 . S
O399 Gd369 2.717 . S
O399 C387 1.257 . S
H400 C373 0.930 . S
H401 C374 0.931 1_556 S
H402 C376 0.931 . S
H403 C377 0.931 . S
H404 C382 0.930 . S
H405 C383 0.931 . S
H406 C385 0.931 . S
H407 C386 0.931 . S
Gd408 C411 2.818 . S
Gd408 O428 2.377 . S
Gd408 O430 2.448 . S
Gd408 O431 2.506 . S
Gd408 O432 2.435 . S
Gd408 O433 2.717 1_655 S
Gd408 O435 2.395 1_655 S
Gd408 O439 2.327 . S
Gd409 C420 2.818 . S
Gd409 O429 2.395 1_455 S
Gd409 O433 2.327 . S
Gd409 O434 2.377 . S
Gd409 O436 2.448 . S
Gd409 O437 2.506 . S
Gd409 O438 2.435 . S
Gd409 O439 2.717 1_455 S
C410 O428 1.240 . S
C410 O429 1.240 . S
C411 Gd408 2.818 . S
C411 C412 1.510 . S
C411 O430 1.249 . S
C411 O431 1.252 . S
C412 C411 1.510 . S
C412 C413 1.404 . S
C412 C414 1.352 1_556 S
C413 C412 1.404 . S
C413 C417 1.389 1_556 S
C413 H440 0.930 . S
C414 C412 1.352 1_554 S
C414 C416 1.374 . S
C414 H441 0.931 1_554 S
C415 C416 1.359 . S
C415 C417 1.364 . S
C416 C414 1.374 . S
C416 C415 1.359 . S
C416 H442 0.931 . S
C417 C413 1.389 1_554 S
C417 C415 1.364 . S
C417 H443 0.931 . S
C418 O432 1.271 . S
C418 O433 1.249 1_655 S
C419 O434 1.240 . S
C419 O435 1.240 . S
C420 Gd409 2.818 . S
C420 C421 1.510 . S
C420 O436 1.249 . S
C420 O437 1.252 . S
C421 C420 1.510 . S
C421 C422 1.404 . S
C421 C423 1.352 . S
C422 C421 1.404 . S
C422 C426 1.389 . S
C422 H444 0.930 . S
C423 C421 1.352 . S
C423 C425 1.374 . S
C423 H445 0.931 . S
C424 C425 1.359 . S
C424 C426 1.364 . S
C425 C423 1.374 . S
C425 C424 1.359 . S
C425 H446 0.931 . S
C426 C422 1.389 . S
C426 C424 1.364 . S
C426 H447 0.931 . S
C427 O438 1.276 . S
C427 O439 1.247 1_455 S
O428 Gd408 2.377 . S
O428 C410 1.240 . S
O429 Gd409 2.395 1_655 S
O429 C410 1.240 . S
O430 Gd408 2.448 . S
O430 C411 1.249 . S
O431 Gd408 2.506 . S
O431 C411 1.252 . S
O432 Gd408 2.435 . S
O432 C418 1.271 . S
O433 Gd408 2.717 1_455 S
O433 Gd409 2.327 . S
O433 C418 1.249 1_455 S
O434 Gd409 2.377 . S
O434 C419 1.240 . S
O435 Gd408 2.395 1_455 S
O435 C419 1.240 . S
O436 Gd409 2.448 . S
O436 C420 1.249 . S
O437 Gd409 2.506 . S
O437 C420 1.252 . S
O438 Gd409 2.435 . S
O438 C427 1.276 . S
O439 Gd408 2.327 . S
O439 Gd409 2.717 1_655 S
O439 C427 1.247 1_655 S
H440 C413 0.930 . S
H441 C414 0.931 1_556 S
H442 C416 0.931 . S
H443 C417 0.931 . S
H444 C422 0.930 . S
H445 C423 0.931 . S
H446 C425 0.931 . S
H447 C426 0.931 . S
C448 C449 1.416 . S
C448 H452 0.950 . S
C448 C457 1.390 . S
C449 C448 1.416 . S
C449 C451 1.360 1_545 S
H450 C457 0.950 . S
C451 C449 1.360 1_565 S
C451 C453 1.390 . S
C451 H455 0.950 . S
H452 C448 0.950 . S
C453 C451 1.390 . S
C453 C454 1.387 1_565 S
C453 H456 0.950 . S
C454 C453 1.387 1_545 S
C454 C457 1.387 . S
H455 C451 0.950 . S
H456 C453 0.950 . S
C457 C448 1.390 . S
C457 H450 0.950 . S
C457 C454 1.387 . S
C458 C459 1.387 . S
C458 H462 0.950 . S
C458 C467 1.390 . S
C459 C458 1.387 . S
C459 C461 1.387 . S
H460 C467 0.950 . S
C461 C459 1.387 . S
C461 C463 1.390 . S
C461 H465 0.950 . S
H462 C458 0.950 . S
C463 C461 1.390 . S
C463 C464 1.387 . S
C463 H466 0.950 . S
C464 C463 1.387 . S
C464 C467 1.387 . S
H465 C461 0.950 . S
H466 C463 0.950 . S
C467 C458 1.390 . S
C467 H460 0.950 . S
C467 C464 1.387 . S
C468 C469 1.387 . S
C468 H472 0.950 . S
C468 C477 1.390 . S
C469 C468 1.387 . S
C469 C471 1.387 . S
H470 C477 0.950 . S
C471 C469 1.387 . S
C471 C473 1.390 . S
C471 H475 0.950 . S
H472 C468 0.950 . S
C473 C471 1.390 . S
C473 C474 1.387 . S
C473 H476 0.950 . S
C474 C473 1.387 . S
C474 C477 1.387 . S
H475 C471 0.950 . S
H476 C473 0.950 . S
C477 C468 1.390 . S
C477 H470 0.950 . S
C477 C474 1.387 . S
C478 C479 1.364 1_655 S
C478 H482 0.950 . S
C478 C487 1.390 . S
C479 C478 1.364 1_455 S
C479 C481 1.412 . S
H480 C487 0.950 . S
C481 C479 1.412 . S
C481 C483 1.390 . S
C481 H485 0.950 . S
H482 C478 0.950 . S
C483 C481 1.390 . S
C483 C484 1.387 . S
C483 H486 0.950 . S
C484 C483 1.387 . S
C484 C487 1.387 1_455 S
H485 C481 0.950 . S
H486 C483 0.950 . S
C487 C478 1.390 . S
C487 H480 0.950 . S
C487 C484 1.387 1_655 S
C488 C489 1.368 1_545 S
C488 H492 0.950 . S
C488 C497 1.390 . S
C489 C488 1.368 1_565 S
C489 C491 1.408 . S
H490 C497 0.950 . S
C491 C489 1.408 . S
C491 C493 1.390 . S
C491 H495 0.950 . S
H492 C488 0.950 . S
C493 C491 1.390 . S
C493 C494 1.387 . S
C493 H496 0.950 . S
C494 C493 1.387 . S
C494 C497 1.387 1_565 S
H495 C491 0.950 . S
H496 C493 0.950 . S
C497 C488 1.390 . S
C497 H490 0.950 . S
C497 C494 1.387 1_545 S
C498 C499 1.387 . S
C498 H502 0.950 . S
C498 C507 1.390 . S
C499 C498 1.387 . S
C499 C501 1.387 . S
H500 C507 0.950 . S
C501 C499 1.387 . S
C501 C503 1.390 . S
C501 H505 0.950 . S
H502 C498 0.950 . S
C503 C501 1.390 . S
C503 C504 1.387 . S
C503 H506 0.950 . S
C504 C503 1.387 . S
C504 C507 1.387 . S
H505 C501 0.950 . S
H506 C503 0.950 . S
C507 C498 1.390 . S
C507 H500 0.950 . S
C507 C504 1.387 . S
C508 C509 1.387 . S
C508 H512 0.950 . S
C508 C517 1.390 . S
C509 C508 1.387 . S
C509 C511 1.387 . S
H510 C517 0.950 . S
C511 C509 1.387 . S
C511 C513 1.390 . S
C511 H515 0.950 . S
H512 C508 0.950 . S
C513 C511 1.390 . S
C513 C514 1.387 . S
C513 H516 0.950 . S
C514 C513 1.387 . S
C514 C517 1.387 . S
H515 C511 0.950 . S
H516 C513 0.950 . S
C517 C508 1.390 . S
C517 H510 0.950 . S
C517 C514 1.387 . S
C518 C519 1.397 . S
C518 H522 0.950 . S
C518 C527 1.390 . S
C519 C518 1.397 . S
C519 C521 1.379 1_655 S
H520 C527 0.950 . S
C521 C519 1.379 1_455 S
C521 C523 1.390 . S
C521 H525 0.950 . S
H522 C518 0.950 . S
C523 C521 1.390 . S
C523 C524 1.387 1_455 S
C523 H526 0.953 . S
C524 C523 1.387 1_655 S
C524 C527 1.387 . S
H525 C521 0.950 . S
H526 C523 0.953 . S
C527 C518 1.390 . S
C527 H520 0.950 . S
C527 C524 1.387 . S
C528 C529 1.387 . S
C528 H532 0.950 . S
C528 C537 1.390 . S
C529 C528 1.387 . S
C529 C531 1.387 . S
H530 C537 0.950 . S
C531 C529 1.387 . S
C531 C533 1.390 . S
C531 H535 0.950 1_655 S
H532 C528 0.950 . S
C533 C531 1.390 . S
C533 C534 1.387 . S
C533 H536 0.950 . S
C534 C533 1.387 . S
C534 C537 1.387 . S
H535 C531 0.950 1_455 S
H536 C533 0.950 . S
C537 C528 1.390 . S
C537 H530 0.950 . S
C537 C534 1.387 . S
C538 C539 1.387 . S
C538 H542 0.950 . S
C538 C547 1.390 . S
C539 C538 1.387 . S
C539 C541 1.387 . S
H540 C547 0.950 . S
C541 C539 1.387 . S
C541 C543 1.390 . S
C541 H545 0.950 1_565 S
H542 C538 0.950 . S
C543 C541 1.390 . S
C543 C544 1.387 . S
C543 H546 0.950 . S
C544 C543 1.387 . S
C544 C547 1.387 . S
H545 C541 0.950 1_545 S
H546 C543 0.950 . S
C547 C538 1.390 . S
C547 H540 0.950 . S
C547 C544 1.387 . S
C548 C549 1.387 . S
C548 H552 0.950 . S
C548 C557 1.390 . S
C549 C548 1.387 . S
C549 C551 1.387 . S
H550 C557 0.950 . S
C551 C549 1.387 . S
C551 C553 1.390 . S
C551 H555 0.950 . S
H552 C548 0.950 . S
C553 C551 1.390 . S
C553 C554 1.387 . S
C553 H556 0.950 . S
C554 C553 1.387 . S
C554 C557 1.387 . S
H555 C551 0.950 . S
H556 C553 0.950 . S
C557 C548 1.390 . S
C557 H550 0.950 . S
C557 C554 1.387 . S
C558 C559 1.387 . S
C558 H562 0.950 . S
C558 C567 1.390 . S
C559 C558 1.387 . S
C559 C561 1.387 . S
H560 C567 0.950 . S
C561 C559 1.387 . S
C561 C563 1.390 . S
C561 H565 0.950 . S
H562 C558 0.950 . S
C563 C561 1.390 . S
C563 C564 1.387 . S
C563 H566 0.950 . S
C564 C563 1.387 . S
C564 C567 1.387 . S
H565 C561 0.950 . S
H566 C563 0.950 . S
C567 C558 1.390 . S
C567 H560 0.950 . S
C567 C564 1.387 . S
C568 C569 1.387 . S
C568 H572 0.950 . S
C568 C577 1.390 . S
C569 C568 1.387 . S
C569 C571 1.387 . S
H570 C577 0.950 . S
C571 C569 1.387 . S
C571 C573 1.390 . S
C571 H575 0.950 1_554 S
H572 C568 0.950 . S
C573 C571 1.390 . S
C573 C574 1.387 . S
C573 H576 0.950 1_554 S
C574 C573 1.387 . S
C574 C577 1.387 . S
H575 C571 0.950 1_556 S
H576 C573 0.950 1_556 S
C577 C568 1.390 . S
C577 H570 0.950 . S
C577 C574 1.387 . S
C578 C579 1.387 . S
C578 H582 0.950 . S
C578 C587 1.390 . S
C579 C578 1.387 . S
C579 C581 1.387 . S
H580 C587 0.950 . S
C581 C579 1.387 . S
C581 C583 1.390 . S
C581 H585 0.950 1_544 S
H582 C578 0.950 . S
C583 C581 1.390 . S
C583 C584 1.387 . S
C583 H586 0.950 1_554 S
C584 C583 1.387 . S
C584 C587 1.387 . S
H585 C581 0.950 1_566 S
H586 C583 0.950 1_556 S
C587 C578 1.390 . S
C587 H580 0.950 . S
C587 C584 1.387 . S
C588 C589 1.387 . S
C588 H592 0.950 . S
C588 C597 1.390 . S
C589 C588 1.387 . S
C589 C591 1.387 . S
H590 C597 0.950 . S
C591 C589 1.387 . S
C591 C593 1.390 . S
C591 H595 0.950 1_554 S
H592 C588 0.950 . S
C593 C591 1.390 . S
C593 C594 1.387 . S
C593 H596 0.950 1_554 S
C594 C593 1.387 . S
C594 C597 1.387 . S
H595 C591 0.950 1_556 S
H596 C593 0.950 1_556 S
C597 C588 1.390 . S
C597 H590 0.950 . S
C597 C594 1.387 . S
C598 C599 1.387 . S
C598 H602 0.950 1_554 S
C598 C607 1.390 . S
C599 C598 1.387 . S
C599 C601 1.387 . S
H600 C607 0.950 1_556 S
C601 C599 1.387 . S
C601 C603 1.390 . S
C601 H605 0.950 . S
H602 C598 0.950 1_556 S
C603 C601 1.390 . S
C603 C604 1.387 . S
C603 H606 0.950 . S
C604 C603 1.387 . S
C604 C607 1.387 . S
H605 C601 0.950 . S
H606 C603 0.950 . S
C607 C598 1.390 . S
C607 H600 0.950 1_554 S
C607 C604 1.387 . S
C608 C609 1.387 . S
C608 H612 0.950 . S
C608 C617 1.390 . S
C609 C608 1.387 . S
C609 C611 1.387 1_455 S
H610 C617 0.950 . S
C611 C609 1.387 1_655 S
C611 C613 1.390 . S
C611 H615 0.950 . S
H612 C608 0.950 . S
C613 C611 1.390 . S
C613 C614 1.387 1_655 S
C613 H616 0.950 . S
C614 C613 1.387 1_455 S
C614 C617 1.387 . S
H615 C611 0.950 . S
H616 C613 0.950 . S
C617 C608 1.390 . S
C617 H610 0.950 . S
C617 C614 1.387 . S
C618 C619 1.387 . S
C618 H622 0.950 . S
C618 C627 1.390 . S
C619 C618 1.387 . S
C619 C621 1.387 1_545 S
H620 C627 0.950 . S
C621 C619 1.387 1_565 S
C621 C623 1.390 . S
C621 H625 0.950 . S
H622 C618 0.950 . S
C623 C621 1.390 . S
C623 C624 1.387 1_565 S
C623 H626 0.950 . S
C624 C623 1.387 1_545 S
C624 C627 1.387 . S
H625 C621 0.950 . S
H626 C623 0.950 . S
C627 C618 1.390 . S
C627 H620 0.950 . S
C627 C624 1.387 . S
C628 C629 1.387 . S
C628 H632 0.950 . S
C628 C637 1.390 . S
C629 C628 1.387 . S
C629 C631 1.387 . S
H630 C637 0.950 . S
C631 C629 1.387 . S
C631 C633 1.390 . S
C631 H635 0.950 . S
H632 C628 0.950 . S
C633 C631 1.390 . S
C633 C634 1.387 . S
C633 H636 0.950 . S
C634 C633 1.387 . S
C634 C637 1.387 . S
H635 C631 0.950 . S
H636 C633 0.950 . S
C637 C628 1.390 . S
C637 H630 0.950 . S
C637 C634 1.387 . S
C638 C639 1.387 . S
C638 H642 0.950 . S
C638 C647 1.390 . S
C639 C638 1.387 . S
C639 C641 1.387 . S
H640 C647 0.950 . S
C641 C639 1.387 . S
C641 C643 1.390 . S
C641 H645 0.950 . S
H642 C638 0.950 . S
C643 C641 1.390 . S
C643 C644 1.387 . S
C643 H646 0.950 . S
C644 C643 1.387 . S
C644 C647 1.387 . S
H645 C641 0.950 . S
H646 C643 0.950 . S
C647 C638 1.390 . S
C647 H640 0.950 . S
C647 C644 1.387 . S
C648 C649 1.387 . S
C648 H652 0.950 . S
C648 C657 1.390 . S
C649 C648 1.387 . S
C649 C651 1.387 1_655 S
H650 C657 0.950 . S
C651 C649 1.387 1_455 S
C651 C653 1.390 . S
C651 H655 0.950 . S
H652 C648 0.950 . S
C653 C651 1.390 . S
C653 C654 1.387 1_455 S
C653 H656 0.950 . S
C654 C653 1.387 1_655 S
C654 C657 1.387 . S
H655 C651 0.950 . S
H656 C653 0.950 . S
C657 C648 1.390 . S
C657 H650 0.950 . S
C657 C654 1.387 . S
C658 C659 1.387 1_545 S
C658 H662 0.950 . S
C658 C667 1.390 . S
C659 C658 1.387 1_565 S
C659 C661 1.387 . S
H660 C667 0.950 . S
C661 C659 1.387 . S
C661 C663 1.390 . S
C661 H665 0.950 . S
H662 C658 0.950 . S
C663 C661 1.390 . S
C663 C664 1.387 . S
C663 H666 0.950 . S
C664 C663 1.387 . S
C664 C667 1.387 1_565 S
H665 C661 0.950 . S
H666 C663 0.950 . S
C667 C658 1.390 . S
C667 H660 0.950 . S
C667 C664 1.387 1_545 S
C668 C669 1.387 . S
C668 H672 0.950 . S
C668 C677 1.390 . S
C669 C668 1.387 . S
C669 C671 1.387 . S
H670 C677 0.950 . S
C671 C669 1.387 . S
C671 C673 1.390 . S
C671 H675 0.950 . S
H672 C668 0.950 . S
C673 C671 1.390 . S
C673 C674 1.387 . S
C673 H676 0.950 . S
C674 C673 1.387 . S
C674 C677 1.387 . S
H675 C671 0.950 . S
H676 C673 0.950 . S
C677 C668 1.390 . S
C677 H670 0.950 . S
C677 C674 1.387 . S
C678 C679 1.387 . S
C678 H682 0.950 . S
C678 C687 1.390 . S
C679 C678 1.387 . S
C679 C681 1.387 . S
H680 C687 0.950 . S
C681 C679 1.387 . S
C681 C683 1.390 . S
C681 H685 0.950 . S
H682 C678 0.950 . S
C683 C681 1.390 . S
C683 C684 1.387 . S
C683 H686 0.950 . S
C684 C683 1.387 . S
C684 C687 1.387 . S
H685 C681 0.950 . S
H686 C683 0.950 . S
C687 C678 1.390 . S
C687 H680 0.950 . S
C687 C684 1.387 . S
C449 C241 2.460 . S
C454 C298 2.840 1_545 S
C464 C338 2.868 . S
C459 C277 2.572 . S
C474 C378 2.848 . S
C469 C169 2.465 . S
C484 C418 2.851 1_455 S
C479 C205 2.474 . S
C494 C307 2.842 1_564 S
C489 C97 2.462 1_565 S
C499 C133 2.568 . S
C504 C347 2.871 1_554 S
C509 C25 2.476 . S
C514 C387 2.849 1_554 S
C519 C61 2.473 1_655 S
C524 C427 2.851 1_654 S
C534 C304 0.811 . S
C529 C211 0.826 1_655 S
C544 C344 0.802 . S
C539 C247 0.824 1_565 S
C554 C384 0.788 . S
C549 C253 0.794 . S
C559 C175 0.814 . S
C564 C424 0.796 . S
C569 C67 0.809 . S
C574 C295 0.813 . S
C584 C335 0.810 . S
C579 C103 0.808 . S
C594 C375 0.795 . S
C589 C109 0.809 . S
C599 C31 0.795 . S
C604 C415 0.798 . S
C609 C181 3.226 . S
C614 C299 3.717 . S
C619 C217 3.207 . S
C624 C339 3.703 . S
C634 C379 3.710 . S
C629 C283 3.143 . S
C644 C419 3.711 . S
C639 C145 3.209 . S
C649 C37 3.236 1_655 S
C654 C290 3.724 . S
C664 C330 3.703 . S
C659 C73 3.219 1_565 S
C674 C370 3.710 . S
C669 C139 3.125 . S
C679 C1 3.229 . S
C684 C410 3.715 . S
