# Generated by pormake.
# Topology pyr, (3,6)-cn, num edge types: 1
# Building blocks:
#     Node 0, Type 0, BuildingBlock: BETDAH_clean_linker_0, # of connection points: 3
#     Node 1, Type 0, BuildingBlock: BETDAH_clean_linker_0, # of connection points: 3
#     Node 2, Type 0, BuildingBlock: BETDAH_clean_linker_0, # of connection points: 3
#     Node 3, Type 0, BuildingBlock: BETDAH_clean_linker_0, # of connection points: 3
#     Node 4, Type 0, BuildingBlock: BETDAH_clean_linker_0, # of connection points: 3
#     Node 5, Type 0, BuildingBlock: BETDAH_clean_linker_0, # of connection points: 3
#     Node 6, Type 0, BuildingBlock: BETDAH_clean_linker_0, # of connection points: 3
#     Node 7, Type 0, BuildingBlock: BETDAH_clean_linker_0, # of connection points: 3
#     Node 8, Type 1, BuildingBlock: BETGAK_clean_sbu_0, # of connection points: 6
#     Node 9, Type 1, BuildingBlock: BETGAK_clean_sbu_0, # of connection points: 6
#     Node 10, Type 1, BuildingBlock: BETGAK_clean_sbu_0, # of connection points: 6
#     Node 11, Type 1, BuildingBlock: BETGAK_clean_sbu_0, # of connection points: 6
#     Edge 12, Type (0, 1), BuildingBlock: KIFKEQ_clean_linker_1, # of connection points: 2
#     Edge 13, Type (0, 1), BuildingBlock: KIFKEQ_clean_linker_1, # of connection points: 2
#     Edge 14, Type (0, 1), BuildingBlock: KIFKEQ_clean_linker_1, # of connection points: 2
#     Edge 15, Type (0, 1), BuildingBlock: KIFKEQ_clean_linker_1, # of connection points: 2
#     Edge 16, Type (0, 1), BuildingBlock: KIFKEQ_clean_linker_1, # of connection points: 2
#     Edge 17, Type (0, 1), BuildingBlock: KIFKEQ_clean_linker_1, # of connection points: 2
#     Edge 18, Type (0, 1), BuildingBlock: KIFKEQ_clean_linker_1, # of connection points: 2
#     Edge 19, Type (0, 1), BuildingBlock: KIFKEQ_clean_linker_1, # of connection points: 2
#     Edge 20, Type (0, 1), BuildingBlock: KIFKEQ_clean_linker_1, # of connection points: 2
#     Edge 21, Type (0, 1), BuildingBlock: KIFKEQ_clean_linker_1, # of connection points: 2
#     Edge 22, Type (0, 1), BuildingBlock: KIFKEQ_clean_linker_1, # of connection points: 2
#     Edge 23, Type (0, 1), BuildingBlock: KIFKEQ_clean_linker_1, # of connection points: 2
#     Edge 24, Type (0, 1), BuildingBlock: KIFKEQ_clean_linker_1, # of connection points: 2
#     Edge 25, Type (0, 1), BuildingBlock: KIFKEQ_clean_linker_1, # of connection points: 2
#     Edge 26, Type (0, 1), BuildingBlock: KIFKEQ_clean_linker_1, # of connection points: 2
#     Edge 27, Type (0, 1), BuildingBlock: KIFKEQ_clean_linker_1, # of connection points: 2
#     Edge 28, Type (0, 1), BuildingBlock: KIFKEQ_clean_linker_1, # of connection points: 2
#     Edge 29, Type (0, 1), BuildingBlock: KIFKEQ_clean_linker_1, # of connection points: 2
#     Edge 30, Type (0, 1), BuildingBlock: KIFKEQ_clean_linker_1, # of connection points: 2
#     Edge 31, Type (0, 1), BuildingBlock: KIFKEQ_clean_linker_1, # of connection points: 2
#     Edge 32, Type (0, 1), BuildingBlock: KIFKEQ_clean_linker_1, # of connection points: 2
#     Edge 33, Type (0, 1), BuildingBlock: KIFKEQ_clean_linker_1, # of connection points: 2
#     Edge 34, Type (0, 1), BuildingBlock: KIFKEQ_clean_linker_1, # of connection points: 2
#     Edge 35, Type (0, 1), BuildingBlock: KIFKEQ_clean_linker_1, # of connection points: 2
# Relax obj value: 0.145
# Max RMSD: 0.193
# Mean RMSD: 0.140
data_MOF--net-pyr--node1-BETGAK_clean_sbu_0--node2-BETDAH_clean_linker_0--edge1-KIFKEQ_clean_linker_1
_symmetry_space_group_name_H-M    P1
_symmetry_Int_Tables_number       1
_symmetry_cell_setting            triclinic
loop_
_symmetry_equiv_pos_as_xyz
'x, y, z'
_cell_length_a     37.952218
_cell_length_b     40.93688
_cell_length_c     38.093212
_cell_angle_alpha  91.569339
_cell_angle_beta   89.424263
_cell_angle_gamma 107.0308
loop_
_atom_site_label
_atom_site_type_symbol
_atom_site_fract_x
_atom_site_fract_y
_atom_site_fract_z
_atom_type_partial_charge
H0 H 0.37558 0.26716 0.29206 0.0
H1 H 0.43533 0.34838 0.22572 0.0
H2 H 0.34142 0.35799 0.28438 0.0
C3 C 0.37987 0.29258 0.28205 0.0
C4 C 0.35545 0.31129 0.29168 0.0
C5 C 0.40851 0.30552 0.25802 0.0
C6 C 0.41363 0.33826 0.24466 0.0
C7 C 0.38956 0.35726 0.25401 0.0
C8 C 0.3606 0.34373 0.27768 0.0
N9 N 0.39368 0.38896 0.23774 0.0
C10 C 0.36397 0.40168 0.23282 0.0
H11 H 0.33987 0.90311 0.70945 0.0
H12 H 0.34532 1.00761 0.69032 0.0
H13 H 0.36287 0.94292 0.60562 0.0
C14 C 0.34343 0.92394 0.69153 0.0
C15 C 0.35116 0.91893 0.65601 0.0
C16 C 0.34189 0.95593 0.70451 0.0
C17 C 0.34622 0.98263 0.68096 0.0
C18 C 0.35375 0.9778 0.64537 0.0
C19 C 0.35689 0.94628 0.63314 0.0
N20 N 0.35782 1.00445 0.62149 0.0
C21 C 0.33031 1.02019 0.61886 0.0
H22 H 0.71148 0.37965 0.97649 0.0
H23 H 0.72288 0.44814 0.89008 0.0
H24 H 0.63883 0.35181 0.88763 0.0
C25 C 0.70205 0.38575 0.95156 0.0
C26 C 0.67167 0.36176 0.93515 0.0
C27 C 0.72132 0.41703 0.9359 0.0
C28 C 0.70839 0.42485 0.90312 0.0
C29 C 0.67781 0.40169 0.88609 0.0
C30 C 0.66044 0.37027 0.90211 0.0
N31 N 0.66957 0.40506 0.84984 0.0
C32 C 0.65793 0.43067 0.83355 0.0
H33 H 0.84045 0.7569 0.47453 0.0
H34 H 0.90641 0.77082 0.38009 0.0
H35 H 0.81119 0.68321 0.38907 0.0
C36 C 0.84661 0.74751 0.44901 0.0
C37 C 0.82245 0.71708 0.43478 0.0
C38 C 0.87689 0.76744 0.42964 0.0
C39 C 0.88403 0.75539 0.39577 0.0
C40 C 0.86107 0.72425 0.3814 0.0
C41 C 0.82999 0.70599 0.40085 0.0
N42 N 0.86318 0.71506 0.34501 0.0
C43 C 0.89102 0.70456 0.3275 0.0
H44 H 0.76903 0.81185 0.87861 0.0
H45 H 0.7015 0.79181 0.97145 0.0
H46 H 0.68583 0.86256 0.89595 0.0
C47 C 0.74664 0.81577 0.89442 0.0
C48 C 0.72825 0.83877 0.88326 0.0
C49 C 0.73808 0.79928 0.92656 0.0
C50 C 0.7086 0.80416 0.94649 0.0
C51 C 0.6897 0.8269 0.93569 0.0
C52 C 0.69993 0.84458 0.90423 0.0
N53 N 0.66123 0.83207 0.95756 0.0
C54 C 0.65072 0.86188 0.95823 0.0
H55 H 0.82687 0.22549 0.44024 0.0
H56 H 0.84009 0.24224 0.5517 0.0
H57 H 0.75598 0.27255 0.49855 0.0
C58 C 0.81912 0.23586 0.46462 0.0
C59 C 0.78966 0.25023 0.46537 0.0
C60 C 0.83769 0.23338 0.49554 0.0
C61 C 0.82674 0.24516 0.52743 0.0
C62 C 0.79729 0.25888 0.52894 0.0
C63 C 0.77886 0.2618 0.49774 0.0
N64 N 0.78621 0.26808 0.56251 0.0
C65 C 0.75821 0.28304 0.56743 0.0
H66 H 0.34539 0.79004 0.20203 0.0
H67 H 0.34983 0.71537 0.27896 0.0
H68 H 0.4357 0.81124 0.27429 0.0
C69 C 0.35897 0.78231 0.22384 0.0
C70 C 0.39232 0.80479 0.23636 0.0
C71 C 0.34279 0.7501 0.23905 0.0
C72 C 0.36146 0.74002 0.26723 0.0
C73 C 0.39516 0.76228 0.28018 0.0
C74 C 0.40979 0.79438 0.2646 0.0
N75 N 0.41674 0.75412 0.30762 0.0
C76 C 0.40926 0.72743 0.33169 0.0
H77 H 0.21482 0.3887 0.68702 0.0
H78 H 0.21937 0.45533 0.77752 0.0
H79 H 0.14004 0.35591 0.77371 0.0
C80 C 0.20418 0.39322 0.71257 0.0
C81 C 0.17479 0.36765 0.72748 0.0
C82 C 0.22097 0.4246 0.73041 0.0
C83 C 0.20662 0.4315 0.76344 0.0
C84 C 0.17642 0.40692 0.77856 0.0
C85 C 0.16166 0.37514 0.76076 0.0
N86 N 0.16232 0.41082 0.81309 0.0
C87 C 0.15956 0.44025 0.83154 0.0
La88 La 0.03913 0.08325 0.53746 0.0
La89 La 0.02292 0.05497 0.60889 0.0
C90 C 0.04395 0.11815 0.48316 0.0
C91 C 0.07294 0.14632 0.46821 0.0
C92 C 0.10862 0.15572 0.48226 0.0
C93 C 0.13732 0.17948 0.46529 0.0
C94 C 0.13074 0.19429 0.43405 0.0
C95 C 0.09444 0.18607 0.42121 0.0
C96 C 0.06579 0.16215 0.43812 0.0
C97 C 0.09014 0.05793 0.56191 0.0
C98 C 0.0663 0.13264 0.60551 0.0
C99 C 1.01358 1.02175 0.66467 0.0
C100 C 0.98057 0.99911 0.68092 0.0
C101 C 0.94628 0.99201 0.66416 0.0
C102 C 0.91397 0.97502 0.68192 0.0
C103 C 0.91549 0.965 0.71676 0.0
C104 C 0.95015 0.97099 0.73282 0.0
C105 C 0.9824 0.98803 0.71507 0.0
C106 C 0.97235 0.07988 0.58242 0.0
C107 C 0.99789 1.00502 0.54107 0.0
O108 O 0.05166 0.0891 0.48397 0.0
O109 O 0.02927 0.125 0.51262 0.0
O110 O 0.08233 0.05879 0.52909 0.0
O111 O 0.07251 0.07432 0.57955 0.0
O112 O 0.05763 0.1301 0.57161 0.0
O113 O 0.06091 0.10475 0.62419 0.0
O114 O 1.01323 0.05344 0.66303 0.0
O115 O 0.02476 1.01088 0.63519 0.0
O116 O 0.97972 0.08066 0.61543 0.0
O117 O 0.99058 0.06322 0.56666 0.0
O118 O 1.00681 1.00794 0.57493 0.0
O119 O 1.00269 1.03269 0.52211 0.0
H120 H 0.11452 0.14366 0.50557 0.0
H121 H 0.16493 0.18491 0.47573 0.0
H122 H 0.08833 0.19747 0.39758 0.0
H123 H 0.03831 0.15524 0.42709 0.0
H124 H 0.94442 1.00082 0.63786 0.0
H125 H 0.88775 0.97101 0.66889 0.0
H126 H 0.95232 0.96299 0.75938 0.0
H127 H 1.00865 0.99352 0.72842 0.0
La128 La 0.56814 0.09659 0.11231 0.0
La129 La 0.49192 0.0756 0.07791 0.0
C130 C 0.62861 0.12677 0.14166 0.0
C131 C 0.63971 0.1497 0.17252 0.0
C132 C 0.61451 0.14989 0.19968 0.0
C133 C 0.62621 0.16883 0.23065 0.0
C134 C 0.66339 0.18776 0.23511 0.0
C135 C 0.68819 0.18868 0.20716 0.0
C136 C 0.6764 0.16976 0.17612 0.0
C137 C 0.5239 1.03508 0.12824 0.0
C138 C 0.50429 0.12502 0.14371 0.0
C139 C 0.42813 0.04149 0.05908 0.0
C140 C 0.40957 1.03339 1.02506 0.0
C141 C 0.42569 0.05102 0.99517 0.0
C142 C 0.40866 0.04262 0.96255 0.0
C143 C 0.37533 1.01626 0.95922 0.0
C144 C 0.35909 0.99882 0.98933 0.0
C145 C 0.3761 1.00743 1.02208 0.0
C146 C 0.53514 0.13208 0.04737 0.0
C147 C 0.55837 0.0526 0.04403 0.0
O148 O 0.60886 0.09564 0.14849 0.0
O149 O 0.61575 0.13898 0.11483 0.0
O150 O 0.55913 0.04243 0.12329 0.0
O151 O 0.51444 0.0621 0.12506 0.0
O152 O 0.53986 0.12763 0.1426 0.0
O153 O 0.4799 0.10273 0.12387 0.0
O154 O 0.43699 0.07373 0.06915 0.0
O155 O 0.45499 1.02799 0.06397 0.0
O156 O 0.50109 0.11698 0.03926 0.0
O157 O 0.54258 0.11449 0.07126 0.0
O158 O 0.52225 0.0455 0.04873 0.0
O159 O 0.58213 0.07696 0.06246 0.0
H160 H 0.58606 0.13444 0.19747 0.0
H161 H 0.60634 0.16793 0.25149 0.0
H162 H 0.71709 0.20269 0.20989 0.0
H163 H 0.69623 0.16983 0.15544 0.0
H164 H 0.45175 0.07092 0.99696 0.0
H165 H 0.42222 0.05603 0.93973 0.0
H166 H 0.3334 0.97844 0.98751 0.0
H167 H 0.36338 0.99356 0.04498 0.0
La168 La 0.51985 0.54778 0.56382 0.0
La169 La 0.52425 0.60493 0.61061 0.0
C170 C 0.53305 0.50073 0.52691 0.0
C171 C 0.55462 0.47717 0.53325 0.0
C172 C 0.54392 0.44427 0.51796 0.0
C173 C 0.56372 0.42132 0.52496 0.0
C174 C 0.59437 0.43105 0.5475 0.0
C175 C 0.60471 0.464 0.56298 0.0
C176 C 0.58514 0.48691 0.55576 0.0
C177 C 0.45714 0.5428 0.59799 0.0
C178 C 0.55462 0.54864 0.64129 0.0
C179 C 0.5097 0.65053 0.64894 0.0
C180 C 0.48686 0.67353 0.64575 0.0
C181 C 0.49286 0.702 0.66852 0.0
C182 C 0.47141 0.72425 0.66578 0.0
C183 C 0.44391 0.71843 0.63995 0.0
C184 C 0.43799 0.68989 0.61709 0.0
C185 C 0.45911 0.66738 0.62022 0.0
C186 C 0.58709 0.61017 0.57631 0.0
C187 C 0.49111 0.60463 0.53257 0.0
O188 O 0.50363 0.49642 0.54638 0.0
O189 O 0.55191 0.53295 0.52497 0.0
O190 O 0.45967 0.53424 0.56528 0.0
O191 O 0.48937 0.55338 0.61056 0.0
O192 O 0.55124 0.53598 0.60857 0.0
O193 O 0.54285 0.57523 0.6494 0.0
O194 O 0.53825 0.65626 0.62807 0.0
O195 O 0.49181 0.61804 0.65021 0.0
O196 O 0.58456 0.61941 0.60884 0.0
O197 O 0.55481 0.59935 0.5639 0.0
O198 O 0.49316 0.61667 0.56551 0.0
O199 O 0.5035 0.5784 0.52458 0.0
H200 H 0.5203 0.43637 0.50064 0.0
H201 H 0.5554 0.39621 0.51236 0.0
H202 H 0.62783 0.47206 0.58087 0.0
H203 H 0.59387 0.51222 0.56788 0.0
H204 H 0.51416 0.70704 0.68839 0.0
H205 H 0.47668 0.74631 0.68348 0.0
H206 H 0.41675 0.6848 0.59717 0.0
H207 H 0.45361 0.64513 0.60287 0.0
La208 La 0.03749 0.54534 0.09802 0.0
La209 La 0.03748 0.61207 0.06362 0.0
C210 C 0.05559 0.49164 0.10638 0.0
C211 C 0.08108 0.48134 0.12933 0.0
C212 C 0.08507 0.4485 0.12538 0.0
C213 C 0.11319 0.44002 0.143 0.0
C214 C 0.13801 0.46443 0.16457 0.0
C215 C 0.13294 0.49693 0.16955 0.0
C216 C 0.10455 0.50524 0.1522 0.0
C217 C 1.01023 0.58292 0.14377 0.0
C218 C 0.10353 0.61448 0.11426 0.0
C219 C 0.02027 0.66301 0.04236 0.0
C220 C 0.98559 0.66969 1.03222 0.0
C221 C 0.96452 0.6522 1.00362 0.0
C222 C 0.93261 0.65994 0.99362 0.0
C223 C 0.92101 0.68514 1.01213 0.0
C224 C 0.9415 0.70189 0.04133 0.0
C225 C 0.97356 0.69433 0.05117 0.0
C226 C 0.0735 0.5744 1.02867 0.0
C227 C 0.96705 0.54507 0.05386 0.0
O228 O 0.02644 0.49724 0.12115 0.0
O229 O 0.07169 0.51532 0.08415 0.0
O230 O 1.01392 0.55304 0.1499 0.0
O231 O 0.02184 0.58969 0.11275 0.0
O232 O 0.09141 0.58051 0.1147 0.0
O233 O 0.08518 0.6326 0.09787 0.0
O234 O 0.03227 0.64246 1.02172 0.0
O235 O 0.02362 0.65718 0.07558 0.0
O236 O 0.08392 0.60758 1.03082 0.0
O237 O 0.04341 0.56386 0.0454 0.0
O238 O 0.98165 0.57861 0.05061 0.0
O239 O 0.98478 0.52629 0.07013 0.0
H240 H 0.06736 0.42985 0.1076 0.0
H241 H 0.1166 0.41489 0.13839 0.0
H242 H 0.15138 0.51612 0.1863 0.0
H243 H 0.10171 0.53067 0.15563 0.0
H244 H 0.97285 0.63284 0.98863 0.0
H245 H 0.91718 0.64645 0.97119 0.0
H246 H 0.93346 0.72172 0.05582 0.0
H247 H 0.98931 0.70813 0.07331 0.0
H248 H 0.30986 0.24603 0.2874 0.0
H249 H 0.32667 0.34146 0.34555 0.0
H250 H 0.25542 0.2204 0.32239 0.0
H251 H 0.27097 0.31605 0.37983 0.0
H252 H 0.19279 0.24295 0.45829 0.0
H253 H 0.24719 0.27264 0.42441 0.0
H254 H 0.19335 0.22427 0.3291 0.0
H255 H 0.13993 0.19351 0.36291 0.0
C256 C 0.30207 0.2615 0.30784 0.0
C257 C 0.32275 0.29573 0.31385 0.0
C258 C 0.2705 0.24695 0.32756 0.0
C259 C 0.25866 0.26629 0.35368 0.0
C260 C 0.27949 0.30045 0.35999 0.0
C261 C 0.31118 0.31506 0.3402 0.0
C262 C 0.1926 0.2387 0.4301 0.0
C263 C 0.16205 0.21568 0.41337 0.0
C264 C 0.22362 0.25596 0.41066 0.0
C265 C 0.22472 0.25051 0.37413 0.0
C266 C 0.19361 0.22857 0.3573 0.0
C267 C 0.16273 0.2113 0.37667 0.0
H268 H 0.37498 0.93188 0.75701 0.0
H269 H 0.30293 0.99431 0.73904 0.0
H270 H 0.37344 0.9437 0.81954 0.0
H271 H 0.30232 1.00694 0.80226 0.0
H272 H 0.36683 0.05709 0.90631 0.0
H273 H 0.35088 0.03993 0.84523 0.0
H274 H 0.33163 0.93415 0.87149 0.0
H275 H 0.34841 0.95134 0.93234 0.0
C276 C 0.35811 0.94754 0.76642 0.0
C277 C 0.33886 0.96195 0.74292 0.0
C278 C 0.35729 0.95434 0.80237 0.0
C279 C 0.33754 0.97602 0.81579 0.0
C280 C 0.31785 0.99019 0.79253 0.0
C281 C 0.31836 0.98309 0.7564 0.0
C282 C 0.35869 1.03015 0.89908 0.0
C283 C 0.35935 1.00559 0.92394 0.0
C284 C 0.3492 1.02031 0.86422 0.0
C285 C 0.34039 0.98575 0.8536 0.0
C286 C 0.33871 0.96102 0.87894 0.0
C287 C 0.34804 0.97084 0.91381 0.0
H288 H 0.66932 0.50024 0.82756 0.0
H289 H 0.61259 0.40276 0.77979 0.0
H290 H 0.64576 0.52923 0.78145 0.0
H291 H 0.58863 0.43118 0.73415 0.0
H292 H 0.57816 0.49064 0.63675 0.0
H293 H 0.60344 0.46379 0.68282 0.0
H294 H 0.59344 0.54211 0.75709 0.0
H295 H 0.56873 0.56922 0.71081 0.0
C296 C 0.65153 0.48497 0.80741 0.0
C297 C 0.6427 0.4491 0.80759 0.0
C298 C 0.63784 0.50158 0.78083 0.0
C299 C 0.61514 0.48286 0.75339 0.0
C300 C 0.60637 0.44688 0.75405 0.0
C301 C 0.61987 0.43042 0.78059 0.0
C302 C 0.58144 0.50232 0.66282 0.0
C303 C 0.57115 0.53233 0.66961 0.0
C304 C 0.5958 0.48666 0.68959 0.0
C305 C 0.60061 0.50036 0.72433 0.0
C306 C 0.59074 0.53066 0.73093 0.0
C307 C 0.57623 0.54623 0.70419 0.0
H308 H 0.89082 0.71005 0.25697 0.0
H309 H 0.93883 0.66699 0.33913 0.0
H310 H 0.92067 0.68285 0.21258 0.0
H311 H 0.96983 0.64037 0.29495 0.0
H312 H 0.98571 0.56503 0.20969 0.0
H313 H 0.95973 0.59568 0.25337 0.0
H314 H 0.97398 0.6789 0.18219 0.0
H315 H 0.99932 0.6473 0.13793 0.0
C316 C 0.9084 0.69521 0.26556 0.0
C317 C 0.91261 0.69093 0.30165 0.0
C318 C 0.92574 0.67959 0.23998 0.0
C319 C 0.9479 0.65896 0.2496 0.0
C320 C 0.95264 0.6554 0.28601 0.0
C321 C 0.93516 0.67101 0.31158 0.0
C322 C 0.98342 0.58992 0.20319 0.0
C323 C 0.99478 0.60349 0.16992 0.0
C324 C 0.96867 0.60782 0.22863 0.0
C325 C 0.96465 0.64026 0.22202 0.0
C326 C 0.97609 0.65395 0.1886 0.0
C327 C 0.99092 0.63587 0.16301 0.0
H328 H 0.42007 0.29269 0.18927 0.0
H329 H 0.44267 0.26613 0.29389 0.0
H330 H 0.44545 0.2487 0.16461 0.0
H331 H 0.46846 0.22205 0.26895 0.0
H332 H 0.54296 0.17111 0.19374 0.0
H333 H 0.52349 0.21669 0.22379 0.0
H334 H 0.41805 0.18144 0.17202 0.0
H335 H 0.43681 0.13576 0.14257 0.0
C336 C 0.43133 0.27803 0.20695 0.0
C337 C 0.42943 0.28281 0.24348 0.0
C338 C 0.44551 0.25268 0.19285 0.0
C339 C 0.45851 0.23189 0.21496 0.0
C340 C 0.45857 0.23782 0.25143 0.0
C341 C 0.4438 0.26291 0.26562 0.0
C342 C 0.51541 0.17271 0.18923 0.0
C343 C 0.4915 0.14978 0.16565 0.0
C344 C 0.50436 0.19881 0.2064 0.0
C345 C 0.46953 0.20273 0.19973 0.0
C346 C 0.44525 0.17917 0.17719 0.0
C347 C 0.45598 0.15285 0.16054 0.0
H348 H 0.27342 1.00999 0.66381 0.0
H349 H 0.31472 0.05375 0.56447 0.0
H350 H 0.21402 1.02019 0.65255 0.0
H351 H 0.25576 0.0645 0.55321 0.0
H352 H 0.13488 1.03058 0.52315 0.0
H353 H 0.19435 1.02463 0.53982 0.0
H354 H 0.1823 0.06533 0.64362 0.0
H355 H 0.12214 0.07099 0.6269 0.0
C356 C 0.26988 1.02257 0.63999 0.0
C357 C 0.29814 1.03132 0.61495 0.0
C358 C 0.23607 1.02841 0.63355 0.0
C359 C 0.2302 0.04277 0.60184 0.0
C360 C 0.25937 0.05289 0.57762 0.0
C361 C 0.2931 0.04709 0.58411 0.0
C362 C 0.14482 0.03809 0.54959 0.0
C363 C 0.1242 0.05151 0.57367 0.0
C364 C 0.17899 1.03497 0.55903 0.0
C365 C 0.19324 0.04515 0.59279 0.0
C366 C 0.17198 0.0574 0.61739 0.0
C367 C 0.13766 0.06061 0.60786 0.0
H368 H 0.73735 0.42902 1.0069 0.0
H369 H 0.78555 0.45732 0.90484 0.0
H370 H 0.79561 0.45949 1.03463 0.0
H371 H 0.84344 0.48938 0.93311 0.0
H372 H 0.93105 0.56948 1.0028 0.0
H373 H 0.87215 0.54088 0.97421 0.0
H374 H 0.86003 0.45297 1.0382 0.0
H375 H 0.91923 0.48127 0.06637 0.0
C376 C 0.76021 0.44157 0.99013 0.0
C377 C 0.75619 0.4398 0.95319 0.0
C378 C 0.79382 0.45931 1.00626 0.0
C379 C 0.82464 0.47673 0.98627 0.0
C380 C 0.82038 0.4764 0.9495 0.0
C381 C 0.78686 0.45807 0.93323 0.0
C382 C 0.91587 0.54408 1.01092 0.0
C383 C 0.93022 0.52785 1.03712 0.0
C384 C 0.88207 0.52754 0.99428 0.0
C385 C 0.86104 0.4945 1.00377 0.0
C386 C 0.87516 0.47847 1.03029 0.0
C387 C 0.9093 0.49471 0.04642 0.0
H388 H 0.75101 0.69265 0.41069 0.0
H389 H 0.81599 0.6992 0.50413 0.0
H390 H 0.69509 0.66594 0.44378 0.0
H391 H 0.76066 0.67095 0.53705 0.0
H392 H 0.65373 0.65198 0.59825 0.0
H393 H 0.70914 0.67621 0.56421 0.0
H394 H 0.65545 0.62067 0.47182 0.0
H395 H 0.59903 0.59808 0.50602 0.0
C396 C 0.75346 0.68782 0.43824 0.0
C397 C 0.78822 0.69831 0.45464 0.0
C398 C 0.72119 0.67226 0.4574 0.0
C399 C 0.72251 0.66612 0.49363 0.0
C400 C 0.75765 0.67582 0.50964 0.0
C401 C 0.78975 0.69191 0.49061 0.0
C402 C 0.6537 0.64483 0.57066 0.0
C403 C 0.62168 0.62299 0.55502 0.0
C404 C 0.68589 0.6586 0.55094 0.0
C405 C 0.68768 0.65063 0.51478 0.0
C406 C 0.6556 0.6282 0.49927 0.0
C407 C 0.62309 0.61481 0.51901 0.0
H408 H 0.35339 0.46344 0.24573 0.0
H409 H 0.30113 0.36153 0.20531 0.0
H410 H 0.29749 0.4796 0.23343 0.0
H411 H 0.24565 0.37751 0.19196 0.0
H412 H 0.14015 0.40654 0.19766 0.0
H413 H 0.19446 0.39207 0.21778 0.0
H414 H 0.26376 0.49007 0.18416 0.0
H415 H 0.2094 0.50468 0.1648 0.0
C416 C 0.32981 0.4446 0.23418 0.0
C417 C 0.33116 0.4114 0.22629 0.0
C418 C 0.29793 0.4538 0.22696 0.0
C419 C 0.26698 0.42985 0.21169 0.0
C420 C 0.26862 0.39645 0.20423 0.0
C421 C 0.30042 0.38733 0.21155 0.0
C422 C 0.167 0.42503 0.19482 0.0
C423 C 0.17052 0.4567 0.17962 0.0
C424 C 0.19815 0.41672 0.20621 0.0
C425 C 0.23358 0.4398 0.20237 0.0
C426 C 0.23693 0.47186 0.18801 0.0
C427 C 0.20575 0.48025 0.17687 0.0
H428 H 0.59936 0.32039 0.92751 0.0
H429 H 0.70005 0.32368 0.98136 0.0
H430 H 0.5694 0.26599 0.95299 0.0
H431 H 0.66879 0.27118 1.01011 0.0
H432 H 0.61125 0.16018 0.04116 0.0
H433 H 0.64456 0.21397 1.01369 0.0
H434 H 0.54098 0.2356 0.99762 0.0
H435 H 0.5085 0.18125 1.02232 0.0
C436 C 0.61538 0.30989 0.9449 0.0
C437 C 0.65262 0.32759 0.95197 0.0
C438 C 0.59765 0.27845 0.96046 0.0
C439 C 0.61589 0.2634 0.98469 0.0
C440 C 0.6532 0.28102 0.99168 0.0
C441 C 0.67121 0.3121 0.97544 0.0
C442 C 0.59582 0.17662 1.03174 0.0
C443 C 0.55713 0.16617 1.03386 0.0
C444 C 0.61493 0.20781 1.01594 0.0
C445 C 0.59598 0.22996 1.00246 0.0
C446 C 0.55723 0.21955 1.00605 0.0
C447 C 0.5383 0.1882 1.02087 0.0
H448 H 0.89276 0.82997 0.39846 0.0
H449 H 0.90907 0.78344 0.49458 0.0
H450 H 0.92103 0.88646 0.42472 0.0
H451 H 0.9395 0.83953 0.52049 0.0
H452 H 0.96272 0.94457 0.57307 0.0
H453 H 0.93491 0.88849 0.54601 0.0
H454 H 0.96937 0.92998 0.44381 0.0
H455 H 0.99491 0.98635 0.47104 0.0
C456 C 0.90326 0.83179 0.425 0.0
C457 C 0.89863 0.80198 0.44427 0.0
C458 C 0.91972 0.86443 0.44029 0.0
C459 C 0.93283 0.8685 0.47528 0.0
C460 C 0.92915 0.83832 0.49399 0.0
C461 C 0.91201 0.80579 0.47893 0.0
C462 C 0.96426 0.94172 0.54479 0.0
C463 C 0.98108 0.97026 0.52438 0.0
C464 C 0.94849 0.90919 0.52904 0.0
C465 C 0.94963 0.90372 0.49225 0.0
C466 C 0.96687 0.9325 0.47198 0.0
C467 C 0.98193 0.96514 0.48771 0.0
H468 H 0.40506 0.90823 0.61321 0.0
H469 H 0.30828 0.85481 0.67195 0.0
H470 H 0.41976 0.85467 0.60292 0.0
H471 H 0.32343 0.80128 0.6621 0.0
H472 H 0.40787 0.74198 0.69209 0.0
H473 H 0.37744 0.78661 0.68861 0.0
H474 H 0.40017 0.79398 0.57727 0.0
H475 H 0.43086 0.74914 0.58087 0.0
C476 C 0.38633 0.88491 0.62302 0.0
C477 C 0.3559 0.88578 0.64392 0.0
C478 C 0.39475 0.85424 0.61711 0.0
C479 C 0.37295 0.824 0.63212 0.0
C480 C 0.34095 0.82439 0.65069 0.0
C481 C 0.3324 0.85499 0.65642 0.0
C482 C 0.40591 0.75287 0.66683 0.0
C483 C 0.42192 0.7425 0.63682 0.0
C484 C 0.38819 0.7781 0.66473 0.0
C485 C 0.38646 0.79366 0.63264 0.0
C486 C 0.40124 0.78238 0.60231 0.0
C487 C 0.41862 0.75675 0.60434 0.0
H488 H 0.74475 0.81546 0.81926 0.0
H489 H 0.74435 0.90784 0.87646 0.0
H490 H 0.78401 0.8492 0.77448 0.0
H491 H 0.78244 0.9419 0.83079 0.0
H492 H 0.90071 0.97866 0.78488 0.0
H493 H 0.84684 0.95076 0.81952 0.0
H494 H 0.79735 0.88993 0.72844 0.0
H495 H 0.85235 0.91694 0.69403 0.0
C496 C 0.75213 0.84308 0.82162 0.0
C497 C 0.74217 0.85903 0.85168 0.0
C498 C 0.77443 0.86248 0.7958 0.0
C499 C 0.78708 0.89828 0.79942 0.0
C500 C 0.77388 0.91431 0.82767 0.0
C501 C 0.75165 0.89485 0.85361 0.0
C502 C 0.87842 0.95925 0.77223 0.0
C503 C 0.88115 0.94957 0.73687 0.0
C504 C 0.84714 0.94367 0.79194 0.0
C505 C 0.81764 0.91808 0.77679 0.0
C506 C 0.8197 0.90934 0.741 0.0
C507 C 0.85113 0.92494 0.72124 0.0
H508 H 0.71481 0.23355 0.45721 0.0
H509 H 0.81713 0.26685 0.3995 0.0
H510 H 0.68056 0.22564 0.40226 0.0
H511 H 0.78306 0.2575 0.34457 0.0
H512 H 0.71345 0.25033 0.24901 0.0
H513 H 0.74097 0.27283 0.30571 0.0
H514 H 0.6721 0.18294 0.35589 0.0
H515 H 0.64465 0.16077 0.29965 0.0
C516 C 0.72998 0.2398 0.43286 0.0
C517 C 0.76872 0.2504 0.43267 0.0
C518 C 0.71036 0.23491 0.40133 0.0
C519 C 0.72905 0.24045 0.36895 0.0
C520 C 0.76772 0.25314 0.36897 0.0
C521 C 0.7873 0.25811 0.40046 0.0
C522 C 0.70399 0.23561 0.27226 0.0
C523 C 0.67698 0.20371 0.26979 0.0
C524 C 0.71973 0.24847 0.30472 0.0
C525 C 0.70887 0.22964 0.33535 0.0
C526 C 0.68071 0.19845 0.33301 0.0
C527 C 0.66496 0.18567 0.30066 0.0
H528 H 0.40285 0.65871 0.3337 0.0
H529 H 0.42949 0.75104 0.39742 0.0
H530 H 0.4193 0.62801 0.38241 0.0
H531 H 0.44731 0.72129 0.44562 0.0
H532 H 0.45776 0.65652 0.53792 0.0
H533 H 0.43384 0.68356 0.49116 0.0
H534 H 0.467 0.6187 0.41432 0.0
H535 H 0.48945 0.59093 0.46123 0.0
C536 C 0.41173 0.67235 0.35833 0.0
C537 C 0.41417 0.70723 0.36178 0.0
C538 C 0.42179 0.65487 0.38634 0.0
C539 C 0.43508 0.6718 0.41865 0.0
C540 C 0.43676 0.70671 0.42191 0.0
C541 C 0.42652 0.72399 0.39405 0.0
C542 C 0.45978 0.64782 0.5111 0.0
C543 C 0.47569 0.62127 0.5038 0.0
C544 C 0.4462 0.66364 0.48391 0.0
C545 C 0.44823 0.65378 0.4482 0.0
C546 C 0.46401 0.62702 0.44109 0.0
C547 C 0.47731 0.61107 0.46828 0.0
H548 H 0.20371 0.48975 0.87508 0.0
H549 H 0.09029 0.44038 0.8484 0.0
H550 H 0.18395 0.52156 0.92325 0.0
H551 H 0.07026 0.47215 0.89607 0.0
H552 H 0.04374 0.50707 1.00639 0.0
H553 H 0.06515 0.47615 0.95869 0.0
H554 H 0.15646 0.56572 0.93968 0.0
H555 H 0.13519 0.59626 0.98752 0.0
C556 C 0.17454 0.4862 0.87907 0.0
C557 C 0.14862 0.4629 0.85747 0.0
C558 C 0.16306 0.50441 0.90684 0.0
C559 C 0.12526 0.49956 0.91418 0.0
C560 C 0.09952 0.47645 0.89201 0.0
C561 C 0.11102 0.45847 0.86422 0.0
C562 C 0.06854 0.52008 0.9922 0.0
C563 C 0.08763 0.55428 1.00103 0.0
C564 C 0.08075 0.50241 0.96447 0.0
C565 C 0.11265 0.51823 0.94466 0.0
C566 C 0.13207 0.55227 0.95414 0.0
C567 C 0.11972 0.56995 0.98168 0.0
H568 H 0.68124 0.91339 1.00332 0.0
H569 H 0.59649 0.87927 0.92483 0.0
H570 H 0.66015 0.96316 1.01706 0.0
H571 H 0.57555 0.92967 0.93773 0.0
H572 H 0.51929 0.99231 1.01222 0.0
H573 H 0.54371 0.94894 0.98533 0.0
H574 H 0.65441 1.01649 0.99735 0.0
H575 H 0.63002 0.05962 1.02521 0.0
C576 C 0.65848 0.91708 0.98857 0.0
C577 C 0.64035 0.89285 0.96315 0.0
C578 C 0.64651 0.94566 0.9962 0.0
C579 C 0.61612 0.95053 0.97847 0.0
C580 C 0.59876 0.92655 0.95212 0.0
C581 C 0.61079 0.89787 0.94456 0.0
C582 C 0.54881 0.99826 1.00852 0.0
C583 C 0.57271 1.02931 1.02137 0.0
C584 C 0.56284 0.97335 0.99292 0.0
C585 C 0.6011 0.97898 0.98962 0.0
C586 C 0.62484 1.01101 1.00021 0.0
C587 C 0.61082 1.03585 1.01597 0.0
H588 H 0.83073 0.16951 0.46926 0.0
H589 H 0.90597 0.25468 0.52455 0.0
H590 H 0.86793 0.13277 0.48558 0.0
H591 H 0.94358 0.21814 0.54051 0.0
H592 H 0.95231 0.13243 0.61268 0.0
H593 H 0.92605 0.17225 0.58377 0.0
H594 H 0.92733 0.11878 0.48454 0.0
H595 H 0.95307 0.07842 0.51381 0.0
C596 C 0.85607 0.18064 0.48367 0.0
C597 C 0.86538 0.21465 0.49613 0.0
C598 C 0.8773 0.15963 0.49309 0.0
C599 C 0.90808 0.1725 0.515 0.0
C600 C 0.91944 0.20745 0.5243 0.0
C601 C 0.89816 0.22836 0.51501 0.0
C602 C 0.94678 0.12913 0.58475 0.0
C603 C 0.95458 0.10252 0.56538 0.0
C604 C 0.93229 0.15217 0.56809 0.0
C605 C 0.92526 0.1489 0.53179 0.0
C606 C 0.93259 0.1219 0.51251 0.0
C607 C 0.94717 0.09885 0.52922 0.0
H608 H 0.28093 0.76889 0.22498 0.0
H609 H 0.32179 0.68114 0.22015 0.0
H610 H 0.22409 0.73581 0.19672 0.0
H611 H 0.26505 0.64784 0.19054 0.0
H612 H 0.14568 0.58867 0.15871 0.0
H613 H 0.20151 0.61944 0.19067 0.0
H614 H 0.19835 0.71335 0.14362 0.0
H615 H 0.14202 0.68283 0.11297 0.0
C616 C 0.27783 0.74241 0.21777 0.0
C617 C 0.30635 0.72792 0.22478 0.0
C618 C 0.24509 0.72333 0.20112 0.0
C619 C 0.23955 0.68893 0.19033 0.0
C620 C 0.26769 0.67405 0.19839 0.0
C621 C 0.30046 0.69319 0.21548 0.0
C622 C 0.15683 0.6159 0.15519 0.0
C623 C 0.13877 0.63306 0.13318 0.0
C624 C 0.18924 0.63369 0.17351 0.0
C625 C 0.20498 0.66932 0.17037 0.0
C626 C 0.1871 0.68624 0.14782 0.0
C627 C 0.15463 0.66854 0.12979 0.0
H628 H 0.29084 0.44933 0.7579 0.0
H629 H 0.22758 0.45327 0.66577 0.0
H630 H 0.34746 0.48007 0.72744 0.0
H631 H 0.28335 0.48556 0.63578 0.0
H632 H 0.3899 0.50423 0.57438 0.0
H633 H 0.33407 0.47933 0.60746 0.0
H634 H 0.38849 0.52771 0.70263 0.0
H635 H 0.4454 0.55121 0.66916 0.0
C636 C 0.28893 0.45766 0.73142 0.0
C637 C 0.2546 0.44879 0.71432 0.0
C638 C 0.32153 0.47538 0.71377 0.0
C639 C 0.32077 0.48518 0.67853 0.0
C640 C 0.28588 0.47776 0.66232 0.0
C641 C 0.25354 0.45957 0.67972 0.0
C642 C 0.39003 0.50974 0.60236 0.0
C643 C 0.42237 0.52983 0.61896 0.0
C644 C 0.35759 0.4956 0.62154 0.0
C645 C 0.35588 0.50139 0.65815 0.0
C646 C 0.3883 0.52204 0.67471 0.0
C647 C 0.42105 0.53589 0.65544 0.0
H648 H 0.71828 0.73936 0.96349 0.0
H649 H 0.81289 0.81514 0.92146 0.0
H650 H 0.75923 0.70757 0.98481 0.0
H651 H 0.85282 0.78276 0.9412 0.0
H652 H 0.90696 0.69848 0.94502 0.0
H653 H 0.85923 0.72239 0.92463 0.0
H654 H 0.81622 0.72076 1.03008 0.0
H655 H 0.86417 0.69664 0.05069 0.0
C656 C 0.74762 0.74922 0.95874 0.0
C657 C 0.76212 0.7795 0.94012 0.0
C658 C 0.77095 0.73097 0.97082 0.0
C659 C 0.809 0.7425 0.96406 0.0
C660 C 0.82346 0.77292 0.94602 0.0
C661 C 0.80044 0.79133 0.93452 0.0
C662 C 0.88689 0.70253 0.96375 0.0
C663 C 0.88938 0.69586 0.99947 0.0
C664 C 0.85974 0.71638 0.95211 0.0
C665 C 0.83427 0.72353 0.97586 0.0
C666 C 0.83548 0.71531 1.01127 0.0
C667 C 0.86302 0.70181 1.02305 0.0
H668 H 0.40605 0.81853 0.16635 0.0
H669 H 0.41717 0.86862 0.26837 0.0
H670 H 0.43525 0.87367 0.13927 0.0
H671 H 0.44544 0.92396 0.24116 0.0
H672 H 0.46117 1.02078 0.16992 0.0
H673 H 0.42802 0.96571 0.19592 0.0
H674 H 0.50131 0.9179 0.14239 0.0
H675 H 0.53499 0.97285 0.11756 0.0
C676 C 0.41438 0.84133 0.18301 0.0
C677 C 0.40923 0.83892 0.21965 0.0
C678 C 0.43127 0.873 0.16747 0.0
C679 C 0.44269 0.90348 0.18792 0.0
C680 C 0.4368 0.90118 0.22449 0.0
C681 C 0.42078 0.86937 0.24014 0.0
C682 C 0.46997 0.99844 0.16351 0.0
C683 C 0.50079 1.00134 0.14158 0.0
C684 C 0.45113 0.96689 0.17859 0.0
C685 C 0.46193 0.93718 0.17135 0.0
C686 C 0.49201 0.94002 0.1485 0.0
C687 C 0.51138 0.97163 0.13426 0.0
H688 H 0.20838 0.33285 0.67998 0.0
H689 H 0.10391 0.32234 0.73197 0.0
H690 H 0.18217 0.27804 0.64981 0.0
H691 H 0.07895 0.26641 0.70338 0.0
H692 H 0.06613 0.15038 0.6755 0.0
H693 H 0.09134 0.20669 0.70401 0.0
H694 H 0.12994 0.2498 0.60377 0.0
H695 H 0.10372 0.19355 0.57498 0.0
C696 C 0.17979 0.31938 0.68501 0.0
C697 C 0.15862 0.33308 0.70883 0.0
C698 C 0.16482 0.2875 0.66768 0.0
C699 C 0.1284 0.26756 0.67409 0.0
C700 C 0.10723 0.28082 0.69799 0.0
C701 C 0.12186 0.31307 0.71471 0.0
C702 C 0.08002 0.1718 0.65944 0.0
C703 C 0.08287 0.16716 0.62283 0.0
C704 C 0.09431 0.20421 0.67583 0.0
C705 C 0.11275 0.23298 0.65631 0.0
C706 C 0.1161 0.22829 0.61973 0.0
C707 C 0.10095 0.19599 0.60318 0.0
H708 H 0.69345 0.26682 0.5336 0.0
H709 H 0.762 0.33832 0.608 0.0
H710 H 0.65034 0.30118 0.53303 0.0
H711 H 0.71883 0.37258 0.60801 0.0
H712 H 0.66903 0.44635 0.55022 0.0
H713 H 0.70564 0.40787 0.5606 0.0
H714 H 0.60624 0.32358 0.56947 0.0
H715 H 0.56924 0.36241 0.55954 0.0
C716 C 0.69868 0.28956 0.55035 0.0
C717 C 0.73064 0.30036 0.57074 0.0
C718 C 0.67408 0.30906 0.55019 0.0
C719 C 0.68149 0.3396 0.5703 0.0
C720 C 0.71278 0.34934 0.59198 0.0
C721 C 0.73729 0.32981 0.59213 0.0
C722 C 0.6549 0.41975 0.55498 0.0
C723 C 0.61627 0.4074 0.5542 0.0
C724 C 0.67587 0.39773 0.56097 0.0
C725 C 0.65869 0.36286 0.56612 0.0
C726 C 0.62008 0.35038 0.56542 0.0
C727 C 0.599 0.37252 0.55959 0.0
loop_
_geom_bond_atom_site_label_1
_geom_bond_atom_site_label_2
_geom_bond_distance
_geom_bond_site_symmetry_2
_ccdc_geom_bond_type
H0 C3 0.929 . S
H1 C6 0.929 . S
H2 C8 0.930 . S
C3 H0 0.929 . S
C3 C4 1.398 . S
C3 C5 1.396 . S
C4 C3 1.398 . S
C4 C8 1.407 . S
C5 C3 1.396 . S
C5 C6 1.394 . S
C6 H1 0.929 . S
C6 C5 1.394 . S
C6 C7 1.382 . S
C7 C6 1.382 . S
C7 C8 1.392 . S
C7 N9 1.420 . S
C8 H2 0.930 . S
C8 C4 1.407 . S
C8 C7 1.392 . S
N9 C7 1.420 . S
N9 C10 1.244 . S
C10 N9 1.244 . S
H11 C14 0.929 . S
H12 C17 0.929 . S
H13 C19 0.930 . S
C14 H11 0.929 . S
C14 C15 1.398 . S
C14 C16 1.396 . S
C15 C14 1.398 . S
C15 C19 1.407 . S
C16 C14 1.396 . S
C16 C17 1.394 . S
C17 H12 0.929 . S
C17 C16 1.394 . S
C17 C18 1.382 . S
C18 C17 1.382 . S
C18 C19 1.392 . S
C18 N20 1.420 . S
C19 H13 0.930 . S
C19 C15 1.407 . S
C19 C18 1.392 . S
N20 C18 1.420 . S
N20 C21 1.244 . S
C21 N20 1.244 . S
H22 C25 0.929 . S
H23 C28 0.929 . S
H24 C30 0.930 . S
C25 H22 0.929 . S
C25 C26 1.398 . S
C25 C27 1.396 . S
C26 C25 1.398 . S
C26 C30 1.407 . S
C27 C25 1.396 . S
C27 C28 1.394 . S
C28 H23 0.929 . S
C28 C27 1.394 . S
C28 C29 1.382 . S
C29 C28 1.382 . S
C29 C30 1.392 . S
C29 N31 1.420 . S
C30 H24 0.930 . S
C30 C26 1.407 . S
C30 C29 1.392 . S
N31 C29 1.420 . S
N31 C32 1.244 . S
C32 N31 1.244 . S
H33 C36 0.929 . S
H34 C39 0.929 . S
H35 C41 0.930 . S
C36 H33 0.929 . S
C36 C37 1.398 . S
C36 C38 1.396 . S
C37 C36 1.398 . S
C37 C41 1.407 . S
C38 C36 1.396 . S
C38 C39 1.394 . S
C39 H34 0.929 . S
C39 C38 1.394 . S
C39 C40 1.382 . S
C40 C39 1.382 . S
C40 C41 1.392 . S
C40 N42 1.420 . S
C41 H35 0.930 . S
C41 C37 1.407 . S
C41 C40 1.392 . S
N42 C40 1.420 . S
N42 C43 1.244 . S
C43 N42 1.244 . S
H44 C47 0.929 . S
H45 C50 0.929 . S
H46 C52 0.930 . S
C47 H44 0.929 . S
C47 C48 1.398 . S
C47 C49 1.396 . S
C48 C47 1.398 . S
C48 C52 1.407 . S
C49 C47 1.396 . S
C49 C50 1.394 . S
C50 H45 0.929 . S
C50 C49 1.394 . S
C50 C51 1.382 . S
C51 C50 1.382 . S
C51 C52 1.392 . S
C51 N53 1.420 . S
C52 H46 0.930 . S
C52 C48 1.407 . S
C52 C51 1.392 . S
N53 C51 1.420 . S
N53 C54 1.244 . S
C54 N53 1.244 . S
H55 C58 0.929 . S
H56 C61 0.929 . S
H57 C63 0.930 . S
C58 H55 0.929 . S
C58 C59 1.398 . S
C58 C60 1.396 . S
C59 C58 1.398 . S
C59 C63 1.407 . S
C60 C58 1.396 . S
C60 C61 1.394 . S
C61 H56 0.929 . S
C61 C60 1.394 . S
C61 C62 1.382 . S
C62 C61 1.382 . S
C62 C63 1.392 . S
C62 N64 1.420 . S
C63 H57 0.930 . S
C63 C59 1.407 . S
C63 C62 1.392 . S
N64 C62 1.420 . S
N64 C65 1.244 . S
C65 N64 1.244 . S
H66 C69 0.929 . S
H67 C72 0.929 . S
H68 C74 0.930 . S
C69 H66 0.929 . S
C69 C70 1.398 . S
C69 C71 1.396 . S
C70 C69 1.398 . S
C70 C74 1.407 . S
C71 C69 1.396 . S
C71 C72 1.394 . S
C72 H67 0.929 . S
C72 C71 1.394 . S
C72 C73 1.382 . S
C73 C72 1.382 . S
C73 C74 1.392 . S
C73 N75 1.420 . S
C74 H68 0.930 . S
C74 C70 1.407 . S
C74 C73 1.392 . S
N75 C73 1.420 . S
N75 C76 1.244 . S
C76 N75 1.244 . S
H77 C80 0.929 . S
H78 C83 0.929 . S
H79 C85 0.930 . S
C80 H77 0.929 . S
C80 C81 1.398 . S
C80 C82 1.396 . S
C81 C80 1.398 . S
C81 C85 1.407 . S
C82 C80 1.396 . S
C82 C83 1.394 . S
C83 H78 0.929 . S
C83 C82 1.394 . S
C83 C84 1.382 . S
C84 C83 1.382 . S
C84 C85 1.392 . S
C84 N86 1.420 . S
C85 H79 0.930 . S
C85 C81 1.407 . S
C85 C84 1.392 . S
N86 C84 1.420 . S
N86 C87 1.244 . S
C87 N86 1.244 . S
La88 C90 2.928 . S
La88 O108 2.521 . S
La88 O109 2.628 . S
La88 O110 2.554 . S
La88 O111 2.757 . S
La88 O112 2.470 . S
La88 O117 2.482 1_455 S
La88 O119 2.503 1_445 S
La89 C99 2.928 1_545 S
La89 O111 2.482 1_655 S
La89 O113 2.503 1_655 S
La89 O114 2.521 1_545 S
La89 O115 2.628 1_545 S
La89 O116 2.554 . S
La89 O117 2.757 . S
La89 O118 2.470 1_545 S
C90 La88 2.928 . S
C90 C91 1.503 . S
C90 O108 1.261 . S
C90 O109 1.243 . S
C91 C90 1.503 . S
C91 C92 1.394 . S
C91 C96 1.373 . S
C92 C91 1.394 . S
C92 C93 1.380 . S
C92 H120 0.930 . S
C93 C92 1.380 . S
C93 C94 1.376 . S
C93 H121 0.930 . S
C94 C93 1.376 . S
C94 C95 1.370 . S
C95 C94 1.370 . S
C95 C96 1.396 . S
C95 H122 0.929 . S
C96 C91 1.373 . S
C96 C95 1.396 . S
C96 H123 0.929 . S
C97 O110 1.246 . S
C97 O111 1.298 . S
C98 O112 1.258 . S
C98 O113 1.256 . S
C99 La89 2.928 1_565 S
C99 C100 1.503 . S
C99 O114 1.261 . S
C99 O115 1.243 . S
C100 C99 1.503 . S
C100 C101 1.394 . S
C100 C105 1.373 . S
C101 C100 1.394 . S
C101 C102 1.380 . S
C101 H124 0.930 . S
C102 C101 1.380 . S
C102 C103 1.376 . S
C102 H125 0.930 . S
C103 C102 1.376 . S
C103 C104 1.370 . S
C104 C103 1.370 . S
C104 C105 1.396 . S
C104 H126 0.929 . S
C105 C100 1.373 . S
C105 C104 1.396 . S
C105 H127 0.929 . S
C106 O116 1.240 . S
C106 O117 1.289 . S
C107 O118 1.258 . S
C107 O119 1.256 . S
O108 La88 2.521 . S
O108 C90 1.261 . S
O109 La88 2.628 . S
O109 C90 1.243 . S
O110 La88 2.554 . S
O110 C97 1.246 . S
O111 La88 2.757 . S
O111 La89 2.482 1_455 S
O111 C97 1.298 . S
O112 La88 2.470 . S
O112 C98 1.258 . S
O113 La89 2.503 1_455 S
O113 C98 1.256 . S
O114 La89 2.521 1_565 S
O114 C99 1.261 . S
O115 La89 2.628 1_565 S
O115 C99 1.243 . S
O116 La89 2.554 . S
O116 C106 1.240 . S
O117 La88 2.482 1_655 S
O117 La89 2.757 . S
O117 C106 1.289 . S
O118 La89 2.470 1_565 S
O118 C107 1.258 . S
O119 La88 2.503 1_665 S
O119 C107 1.256 . S
H120 C92 0.930 . S
H121 C93 0.930 . S
H122 C95 0.929 . S
H123 C96 0.929 . S
H124 C101 0.930 . S
H125 C102 0.930 . S
H126 C104 0.929 . S
H127 C105 0.929 . S
La128 C130 2.928 . S
La128 O148 2.521 . S
La128 O149 2.628 . S
La128 O150 2.554 1_545 S
La128 O151 2.757 1_545 S
La128 O152 2.470 . S
La128 O157 2.482 . S
La128 O159 2.503 1_545 S
La129 C139 2.928 1_544 S
La129 O151 2.482 1_545 S
La129 O153 2.503 . S
La129 O154 2.521 1_554 S
La129 O155 2.628 1_544 S
La129 O156 2.554 . S
La129 O157 2.757 . S
La129 O158 2.470 . S
C130 La128 2.928 . S
C130 C131 1.503 . S
C130 O148 1.261 . S
C130 O149 1.243 . S
C131 C130 1.503 . S
C131 C132 1.394 . S
C131 C136 1.373 . S
C132 C131 1.394 . S
C132 C133 1.380 . S
C132 H160 0.930 . S
C133 C132 1.380 . S
C133 C134 1.376 . S
C133 H161 0.930 . S
C134 C133 1.376 . S
C134 C135 1.370 . S
C135 C134 1.370 . S
C135 C136 1.396 . S
C135 H162 0.929 . S
C136 C131 1.373 . S
C136 C135 1.396 . S
C136 H163 0.929 . S
C137 O150 1.240 . S
C137 O151 1.289 . S
C138 O152 1.258 . S
C138 O153 1.256 . S
C139 La129 2.928 1_566 S
C139 C140 1.503 . S
C139 O154 1.261 1_565 S
C139 O155 1.243 . S
C140 C139 1.503 . S
C140 C141 1.394 . S
C140 C145 1.373 . S
C141 C140 1.394 . S
C141 C142 1.380 . S
C141 H164 0.930 1_565 S
C142 C141 1.380 . S
C142 C143 1.376 . S
C142 H165 0.930 . S
C143 C142 1.376 . S
C143 C144 1.370 . S
C144 C143 1.370 . S
C144 C145 1.396 . S
C144 H166 0.929 . S
C145 C140 1.373 . S
C145 C144 1.396 . S
C145 H167 0.929 . S
C146 O156 1.240 . S
C146 O157 1.289 . S
C147 O158 1.258 1_565 S
C147 O159 1.256 . S
O148 La128 2.521 . S
O148 C130 1.261 . S
O149 La128 2.628 . S
O149 C130 1.243 . S
O150 La128 2.554 1_565 S
O150 C137 1.240 . S
O151 La128 2.757 1_565 S
O151 La129 2.482 1_565 S
O151 C137 1.289 . S
O152 La128 2.470 . S
O152 C138 1.258 . S
O153 La129 2.503 . S
O153 C138 1.256 . S
O154 La129 2.521 1_556 S
O154 C139 1.261 1_545 S
O155 La129 2.628 1_566 S
O155 C139 1.243 . S
O156 La129 2.554 . S
O156 C146 1.240 . S
O157 La128 2.482 . S
O157 La129 2.757 . S
O157 C146 1.289 . S
O158 La129 2.470 . S
O158 C147 1.258 1_545 S
O159 La128 2.503 1_565 S
O159 C147 1.256 . S
H160 C132 0.930 . S
H161 C133 0.930 . S
H162 C135 0.929 . S
H163 C136 0.929 . S
H164 C141 0.930 1_545 S
H165 C142 0.930 . S
H166 C144 0.929 . S
H167 C145 0.929 . S
La168 C170 2.928 . S
La168 O188 2.521 . S
La168 O189 2.628 . S
La168 O190 2.554 . S
La168 O191 2.757 . S
La168 O192 2.470 . S
La168 O197 2.482 . S
La168 O199 2.503 . S
La169 C179 2.928 . S
La169 O191 2.482 . S
La169 O193 2.503 . S
La169 O194 2.521 . S
La169 O195 2.628 . S
La169 O196 2.554 . S
La169 O197 2.757 . S
La169 O198 2.470 . S
C170 La168 2.928 . S
C170 C171 1.503 . S
C170 O188 1.261 . S
C170 O189 1.243 . S
C171 C170 1.503 . S
C171 C172 1.394 . S
C171 C176 1.373 . S
C172 C171 1.394 . S
C172 C173 1.380 . S
C172 H200 0.930 . S
C173 C172 1.380 . S
C173 C174 1.376 . S
C173 H201 0.930 . S
C174 C173 1.376 . S
C174 C175 1.370 . S
C175 C174 1.370 . S
C175 C176 1.396 . S
C175 H202 0.929 . S
C176 C171 1.373 . S
C176 C175 1.396 . S
C176 H203 0.929 . S
C177 O190 1.240 . S
C177 O191 1.289 . S
C178 O192 1.258 . S
C178 O193 1.256 . S
C179 La169 2.928 . S
C179 C180 1.503 . S
C179 O194 1.261 . S
C179 O195 1.243 . S
C180 C179 1.503 . S
C180 C181 1.394 . S
C180 C185 1.373 . S
C181 C180 1.394 . S
C181 C182 1.380 . S
C181 H204 0.930 . S
C182 C181 1.380 . S
C182 C183 1.376 . S
C182 H205 0.930 . S
C183 C182 1.376 . S
C183 C184 1.370 . S
C184 C183 1.370 . S
C184 C185 1.396 . S
C184 H206 0.929 . S
C185 C180 1.373 . S
C185 C184 1.396 . S
C185 H207 0.929 . S
C186 O196 1.240 . S
C186 O197 1.289 . S
C187 O198 1.258 . S
C187 O199 1.256 . S
O188 La168 2.521 . S
O188 C170 1.261 . S
O189 La168 2.628 . S
O189 C170 1.243 . S
O190 La168 2.554 . S
O190 C177 1.240 . S
O191 La168 2.757 . S
O191 La169 2.482 . S
O191 C177 1.289 . S
O192 La168 2.470 . S
O192 C178 1.258 . S
O193 La169 2.503 . S
O193 C178 1.256 . S
O194 La169 2.521 . S
O194 C179 1.261 . S
O195 La169 2.628 . S
O195 C179 1.243 . S
O196 La169 2.554 . S
O196 C186 1.240 . S
O197 La168 2.482 . S
O197 La169 2.757 . S
O197 C186 1.289 . S
O198 La169 2.470 . S
O198 C187 1.258 . S
O199 La168 2.503 . S
O199 C187 1.256 . S
H200 C172 0.930 . S
H201 C173 0.930 . S
H202 C175 0.929 . S
H203 C176 0.929 . S
H204 C181 0.930 . S
H205 C182 0.930 . S
H206 C184 0.929 . S
H207 C185 0.929 . S
La208 C210 2.928 . S
La208 O228 2.521 . S
La208 O229 2.628 . S
La208 O230 2.554 . S
La208 O231 2.757 . S
La208 O232 2.470 . S
La208 O237 2.482 1_554 S
La208 O239 2.503 1_455 S
La209 C219 2.922 1_454 S
La209 O231 2.493 . S
La209 O233 2.510 . S
La209 O234 2.511 1_454 S
La209 O235 2.627 1_454 S
La209 O236 2.544 1_554 S
La209 O237 2.757 1_554 S
La209 O238 2.467 1_454 S
C210 La208 2.928 . S
C210 C211 1.503 . S
C210 O228 1.261 . S
C210 O229 1.243 . S
C211 C210 1.503 . S
C211 C212 1.394 . S
C211 C216 1.373 . S
C212 C211 1.394 . S
C212 C213 1.380 . S
C212 H240 0.930 . S
C213 C212 1.380 . S
C213 C214 1.376 . S
C213 H241 0.930 . S
C214 C213 1.376 . S
C214 C215 1.370 . S
C215 C214 1.370 . S
C215 C216 1.396 . S
C215 H242 0.929 . S
C216 C211 1.373 . S
C216 C215 1.396 . S
C216 H243 0.929 . S
C217 O230 1.240 1_655 S
C217 O231 1.289 1_655 S
C218 O232 1.258 . S
C218 O233 1.256 . S
C219 La209 2.922 1_656 S
C219 C220 1.503 . S
C219 O234 1.261 . S
C219 O235 1.243 . S
C220 C219 1.503 . S
C220 C221 1.394 . S
C220 C225 1.373 . S
C221 C220 1.394 . S
C221 C222 1.380 . S
C221 H244 0.930 . S
C222 C221 1.380 . S
C222 C223 1.376 . S
C222 H245 0.930 . S
C223 C222 1.376 . S
C223 C224 1.370 . S
C224 C223 1.370 . S
C224 C225 1.396 . S
C224 H246 0.929 . S
C225 C220 1.373 . S
C225 C224 1.396 . S
C225 H247 0.929 . S
C226 O236 1.240 . S
C226 O237 1.289 . S
C227 O238 1.258 . S
C227 O239 1.256 1_556 S
O228 La208 2.521 . S
O228 C210 1.261 . S
O229 La208 2.628 . S
O229 C210 1.243 . S
O230 La208 2.554 . S
O230 C217 1.240 1_455 S
O231 La208 2.757 . S
O231 La209 2.493 . S
O231 C217 1.289 1_455 S
O232 La208 2.470 . S
O232 C218 1.258 . S
O233 La209 2.510 . S
O233 C218 1.256 . S
O234 La209 2.511 1_656 S
O234 C219 1.261 . S
O235 La209 2.627 1_656 S
O235 C219 1.243 . S
O236 La209 2.544 1_556 S
O236 C226 1.240 . S
O237 La208 2.482 1_556 S
O237 La209 2.757 1_556 S
O237 C226 1.289 . S
O238 La209 2.467 1_656 S
O238 C227 1.258 . S
O239 La208 2.503 1_655 S
O239 C227 1.256 1_554 S
H240 C212 0.930 . S
H241 C213 0.930 . S
H242 C215 0.929 . S
H243 C216 0.929 . S
H244 C221 0.930 . S
H245 C222 0.930 . S
H246 C224 0.929 . S
H247 C225 0.929 . S
H248 C256 0.950 . S
H249 C261 0.950 . S
H250 C258 0.950 . S
H251 C260 0.950 . S
H252 C262 0.950 . S
H253 C264 0.950 . S
H254 C266 0.950 . S
H255 C267 0.950 . S
C256 H248 0.950 . S
C256 C257 1.386 . S
C256 C258 1.391 . S
C257 C256 1.386 . S
C257 C261 1.393 . S
C258 H250 0.950 . S
C258 C256 1.391 . S
C258 C259 1.400 . S
C259 C258 1.400 . S
C259 C260 1.398 . S
C259 C265 1.491 . S
C260 H251 0.950 . S
C260 C259 1.398 . S
C260 C261 1.391 . S
C261 H249 0.950 . S
C261 C257 1.393 . S
C261 C260 1.391 . S
C262 H252 0.950 . S
C262 C263 1.386 . S
C262 C264 1.391 . S
C263 C262 1.386 . S
C263 C267 1.393 . S
C264 H253 0.950 . S
C264 C262 1.391 . S
C264 C265 1.400 . S
C265 C259 1.491 . S
C265 C264 1.400 . S
C265 C266 1.398 . S
C266 H254 0.950 . S
C266 C265 1.398 . S
C266 C267 1.391 . S
C267 H255 0.950 . S
C267 C263 1.393 . S
C267 C266 1.391 . S
H268 C276 0.950 . S
H269 C281 0.950 . S
H270 C278 0.950 . S
H271 C280 0.950 . S
H272 C282 0.950 . S
H273 C284 0.950 . S
H274 C286 0.950 . S
H275 C287 0.950 . S
C276 H268 0.950 . S
C276 C277 1.386 . S
C276 C278 1.391 . S
C277 C276 1.386 . S
C277 C281 1.393 . S
C278 H270 0.950 . S
C278 C276 1.391 . S
C278 C279 1.400 . S
C279 C278 1.400 . S
C279 C280 1.398 . S
C279 C285 1.491 . S
C280 H271 0.950 . S
C280 C279 1.398 . S
C280 C281 1.391 . S
C281 H269 0.950 . S
C281 C277 1.393 . S
C281 C280 1.391 . S
C282 H272 0.950 . S
C282 C283 1.386 . S
C282 C284 1.391 . S
C283 C282 1.386 . S
C283 C287 1.393 . S
C284 H273 0.950 . S
C284 C282 1.391 . S
C284 C285 1.400 . S
C285 C279 1.491 . S
C285 C284 1.400 . S
C285 C286 1.398 . S
C286 H274 0.950 . S
C286 C285 1.398 . S
C286 C287 1.391 . S
C287 H275 0.950 . S
C287 C283 1.393 . S
C287 C286 1.391 . S
H288 C296 0.950 . S
H289 C301 0.950 . S
H290 C298 0.950 . S
H291 C300 0.950 . S
H292 C302 0.950 . S
H293 C304 0.950 . S
H294 C306 0.950 . S
H295 C307 0.950 . S
C296 H288 0.950 . S
C296 C297 1.386 . S
C296 C298 1.391 . S
C297 C296 1.386 . S
C297 C301 1.393 . S
C298 H290 0.950 . S
C298 C296 1.391 . S
C298 C299 1.400 . S
C299 C298 1.400 . S
C299 C300 1.398 . S
C299 C305 1.491 . S
C300 H291 0.950 . S
C300 C299 1.398 . S
C300 C301 1.391 . S
C301 H289 0.950 . S
C301 C297 1.393 . S
C301 C300 1.391 . S
C302 H292 0.950 . S
C302 C303 1.386 . S
C302 C304 1.391 . S
C303 C302 1.386 . S
C303 C307 1.393 . S
C304 H293 0.950 . S
C304 C302 1.391 . S
C304 C305 1.400 . S
C305 C299 1.491 . S
C305 C304 1.400 . S
C305 C306 1.398 . S
C306 H294 0.950 . S
C306 C305 1.398 . S
C306 C307 1.391 . S
C307 H295 0.950 . S
C307 C303 1.393 . S
C307 C306 1.391 . S
H308 C316 0.950 . S
H309 C321 0.950 . S
H310 C318 0.950 . S
H311 C320 0.950 . S
H312 C322 0.950 1_455 S
H313 C324 0.950 . S
H314 C326 0.950 . S
H315 C327 0.950 . S
C316 H308 0.950 . S
C316 C317 1.386 . S
C316 C318 1.391 . S
C317 C316 1.386 . S
C317 C321 1.393 . S
C318 H310 0.950 . S
C318 C316 1.391 . S
C318 C319 1.400 . S
C319 C318 1.400 . S
C319 C320 1.398 . S
C319 C325 1.491 . S
C320 H311 0.950 . S
C320 C319 1.398 . S
C320 C321 1.391 . S
C321 H309 0.950 . S
C321 C317 1.393 . S
C321 C320 1.391 . S
C322 H312 0.950 1_655 S
C322 C323 1.386 . S
C322 C324 1.391 . S
C323 C322 1.386 . S
C323 C327 1.393 . S
C324 H313 0.950 . S
C324 C322 1.391 . S
C324 C325 1.400 . S
C325 C319 1.491 . S
C325 C324 1.400 . S
C325 C326 1.398 . S
C326 H314 0.950 . S
C326 C325 1.398 . S
C326 C327 1.391 . S
C327 H315 0.950 . S
C327 C323 1.393 . S
C327 C326 1.391 . S
H328 C336 0.950 . S
H329 C341 0.950 . S
H330 C338 0.950 . S
H331 C340 0.950 . S
H332 C342 0.950 . S
H333 C344 0.950 . S
H334 C346 0.950 . S
H335 C347 0.950 . S
C336 H328 0.950 . S
C336 C337 1.386 . S
C336 C338 1.391 . S
C337 C336 1.386 . S
C337 C341 1.393 . S
C338 H330 0.950 . S
C338 C336 1.391 . S
C338 C339 1.400 . S
C339 C338 1.400 . S
C339 C340 1.398 . S
C339 C345 1.491 . S
C340 H331 0.950 . S
C340 C339 1.398 . S
C340 C341 1.391 . S
C341 H329 0.950 . S
C341 C337 1.393 . S
C341 C340 1.391 . S
C342 H332 0.950 . S
C342 C343 1.386 . S
C342 C344 1.391 . S
C343 C342 1.386 . S
C343 C347 1.393 . S
C344 H333 0.950 . S
C344 C342 1.391 . S
C344 C345 1.400 . S
C345 C339 1.491 . S
C345 C344 1.400 . S
C345 C346 1.398 . S
C346 H334 0.950 . S
C346 C345 1.398 . S
C346 C347 1.391 . S
C347 H335 0.950 . S
C347 C343 1.393 . S
C347 C346 1.391 . S
H348 C356 0.950 . S
H349 C361 0.950 . S
H350 C358 0.950 . S
H351 C360 0.950 . S
H352 C362 0.950 . S
H353 C364 0.950 . S
H354 C366 0.950 1_545 S
H355 C367 0.950 . S
C356 H348 0.950 . S
C356 C357 1.386 . S
C356 C358 1.391 . S
C357 C356 1.386 . S
C357 C361 1.393 . S
C358 H350 0.950 . S
C358 C356 1.391 . S
C358 C359 1.400 . S
C359 C358 1.400 . S
C359 C360 1.398 . S
C359 C365 1.491 . S
C360 H351 0.950 . S
C360 C359 1.398 . S
C360 C361 1.391 . S
C361 H349 0.950 . S
C361 C357 1.393 . S
C361 C360 1.391 . S
C362 H352 0.950 . S
C362 C363 1.386 . S
C362 C364 1.391 . S
C363 C362 1.386 . S
C363 C367 1.393 1_565 S
C364 H353 0.950 . S
C364 C362 1.391 . S
C364 C365 1.400 . S
C365 C359 1.491 . S
C365 C364 1.400 . S
C365 C366 1.398 . S
C366 H354 0.950 1_565 S
C366 C365 1.398 . S
C366 C367 1.391 1_565 S
C367 H355 0.950 . S
C367 C363 1.393 1_545 S
C367 C366 1.391 1_545 S
H368 C376 0.950 . S
H369 C381 0.950 . S
H370 C378 0.950 . S
H371 C380 0.950 . S
H372 C382 0.950 . S
H373 C384 0.950 . S
H374 C386 0.950 1_554 S
H375 C387 0.950 . S
C376 H368 0.950 . S
C376 C377 1.386 . S
C376 C378 1.391 . S
C377 C376 1.386 . S
C377 C381 1.393 . S
C378 H370 0.950 . S
C378 C376 1.391 . S
C378 C379 1.400 . S
C379 C378 1.400 . S
C379 C380 1.398 . S
C379 C385 1.491 . S
C380 H371 0.950 . S
C380 C379 1.398 . S
C380 C381 1.391 . S
C381 H369 0.950 . S
C381 C377 1.393 . S
C381 C380 1.391 . S
C382 H372 0.950 . S
C382 C383 1.386 . S
C382 C384 1.391 . S
C383 C382 1.386 . S
C383 C387 1.393 1_556 S
C384 H373 0.950 . S
C384 C382 1.391 . S
C384 C385 1.400 . S
C385 C379 1.491 . S
C385 C384 1.400 . S
C385 C386 1.398 . S
C386 H374 0.950 1_556 S
C386 C385 1.398 . S
C386 C387 1.391 1_556 S
C387 H375 0.950 . S
C387 C383 1.393 1_554 S
C387 C386 1.391 1_554 S
H388 C396 0.950 . S
H389 C401 0.950 . S
H390 C398 0.950 . S
H391 C400 0.950 . S
H392 C402 0.950 . S
H393 C404 0.950 . S
H394 C406 0.950 . S
H395 C407 0.950 . S
C396 H388 0.950 . S
C396 C397 1.386 . S
C396 C398 1.391 . S
C397 C396 1.386 . S
C397 C401 1.393 . S
C398 H390 0.950 . S
C398 C396 1.391 . S
C398 C399 1.400 . S
C399 C398 1.400 . S
C399 C400 1.398 . S
C399 C405 1.491 . S
C400 H391 0.950 . S
C400 C399 1.398 . S
C400 C401 1.391 . S
C401 H389 0.950 . S
C401 C397 1.393 . S
C401 C400 1.391 . S
C402 H392 0.950 . S
C402 C403 1.386 . S
C402 C404 1.391 . S
C403 C402 1.386 . S
C403 C407 1.393 . S
C404 H393 0.950 . S
C404 C402 1.391 . S
C404 C405 1.400 . S
C405 C399 1.491 . S
C405 C404 1.400 . S
C405 C406 1.398 . S
C406 H394 0.950 . S
C406 C405 1.398 . S
C406 C407 1.391 . S
C407 H395 0.950 . S
C407 C403 1.393 . S
C407 C406 1.391 . S
H408 C416 0.950 . S
H409 C421 0.950 . S
H410 C418 0.950 . S
H411 C420 0.950 . S
H412 C422 0.950 . S
H413 C424 0.950 . S
H414 C426 0.950 . S
H415 C427 0.950 . S
C416 H408 0.950 . S
C416 C417 1.386 . S
C416 C418 1.391 . S
C417 C416 1.386 . S
C417 C421 1.393 . S
C418 H410 0.950 . S
C418 C416 1.391 . S
C418 C419 1.400 . S
C419 C418 1.400 . S
C419 C420 1.398 . S
C419 C425 1.491 . S
C420 H411 0.950 . S
C420 C419 1.398 . S
C420 C421 1.391 . S
C421 H409 0.950 . S
C421 C417 1.393 . S
C421 C420 1.391 . S
C422 H412 0.950 . S
C422 C423 1.386 . S
C422 C424 1.391 . S
C423 C422 1.386 . S
C423 C427 1.393 . S
C424 H413 0.950 . S
C424 C422 1.391 . S
C424 C425 1.400 . S
C425 C419 1.491 . S
C425 C424 1.400 . S
C425 C426 1.398 . S
C426 H414 0.950 . S
C426 C425 1.398 . S
C426 C427 1.391 . S
C427 H415 0.950 . S
C427 C423 1.393 . S
C427 C426 1.391 . S
H428 C436 0.950 . S
H429 C441 0.950 . S
H430 C438 0.950 . S
H431 C440 0.950 . S
H432 C442 0.950 . S
H433 C444 0.950 . S
H434 C446 0.950 . S
H435 C447 0.950 . S
C436 H428 0.950 . S
C436 C437 1.386 . S
C436 C438 1.391 . S
C437 C436 1.386 . S
C437 C441 1.393 . S
C438 H430 0.950 . S
C438 C436 1.391 . S
C438 C439 1.400 . S
C439 C438 1.400 . S
C439 C440 1.398 . S
C439 C445 1.491 . S
C440 H431 0.950 . S
C440 C439 1.398 . S
C440 C441 1.391 . S
C441 H429 0.950 . S
C441 C437 1.393 . S
C441 C440 1.391 . S
C442 H432 0.950 . S
C442 C443 1.386 . S
C442 C444 1.391 1_554 S
C443 C442 1.386 . S
C443 C447 1.393 1_554 S
C444 H433 0.950 . S
C444 C442 1.391 1_556 S
C444 C445 1.400 . S
C445 C439 1.491 . S
C445 C444 1.400 . S
C445 C446 1.398 . S
C446 H434 0.950 . S
C446 C445 1.398 . S
C446 C447 1.391 . S
C447 H435 0.950 . S
C447 C443 1.393 1_556 S
C447 C446 1.391 . S
H448 C456 0.950 . S
H449 C461 0.950 . S
H450 C458 0.950 . S
H451 C460 0.950 . S
H452 C462 0.950 . S
H453 C464 0.950 . S
H454 C466 0.950 . S
H455 C467 0.950 . S
C456 H448 0.950 . S
C456 C457 1.386 . S
C456 C458 1.391 . S
C457 C456 1.386 . S
C457 C461 1.393 . S
C458 H450 0.950 . S
C458 C456 1.391 . S
C458 C459 1.400 . S
C459 C458 1.400 . S
C459 C460 1.398 . S
C459 C465 1.491 . S
C460 H451 0.950 . S
C460 C459 1.398 . S
C460 C461 1.391 . S
C461 H449 0.950 . S
C461 C457 1.393 . S
C461 C460 1.391 . S
C462 H452 0.950 . S
C462 C463 1.386 . S
C462 C464 1.391 . S
C463 C462 1.386 . S
C463 C467 1.393 . S
C464 H453 0.950 . S
C464 C462 1.391 . S
C464 C465 1.400 . S
C465 C459 1.491 . S
C465 C464 1.400 . S
C465 C466 1.398 . S
C466 H454 0.950 . S
C466 C465 1.398 . S
C466 C467 1.391 . S
C467 H455 0.950 . S
C467 C463 1.393 . S
C467 C466 1.391 . S
H468 C476 0.950 . S
H469 C481 0.950 . S
H470 C478 0.950 . S
H471 C480 0.950 . S
H472 C482 0.950 . S
H473 C484 0.950 . S
H474 C486 0.950 . S
H475 C487 0.950 . S
C476 H468 0.950 . S
C476 C477 1.386 . S
C476 C478 1.391 . S
C477 C476 1.386 . S
C477 C481 1.393 . S
C478 H470 0.950 . S
C478 C476 1.391 . S
C478 C479 1.400 . S
C479 C478 1.400 . S
C479 C480 1.398 . S
C479 C485 1.491 . S
C480 H471 0.950 . S
C480 C479 1.398 . S
C480 C481 1.391 . S
C481 H469 0.950 . S
C481 C477 1.393 . S
C481 C480 1.391 . S
C482 H472 0.950 . S
C482 C483 1.386 . S
C482 C484 1.391 . S
C483 C482 1.386 . S
C483 C487 1.393 . S
C484 H473 0.950 . S
C484 C482 1.391 . S
C484 C485 1.400 . S
C485 C479 1.491 . S
C485 C484 1.400 . S
C485 C486 1.398 . S
C486 H474 0.950 . S
C486 C485 1.398 . S
C486 C487 1.391 . S
C487 H475 0.950 . S
C487 C483 1.393 . S
C487 C486 1.391 . S
H488 C496 0.950 . S
H489 C501 0.950 . S
H490 C498 0.950 . S
H491 C500 0.950 . S
H492 C502 0.950 . S
H493 C504 0.950 . S
H494 C506 0.950 . S
H495 C507 0.950 . S
C496 H488 0.950 . S
C496 C497 1.386 . S
C496 C498 1.391 . S
C497 C496 1.386 . S
C497 C501 1.393 . S
C498 H490 0.950 . S
C498 C496 1.391 . S
C498 C499 1.400 . S
C499 C498 1.400 . S
C499 C500 1.398 . S
C499 C505 1.491 . S
C500 H491 0.950 . S
C500 C499 1.398 . S
C500 C501 1.391 . S
C501 H489 0.950 . S
C501 C497 1.393 . S
C501 C500 1.391 . S
C502 H492 0.950 . S
C502 C503 1.386 . S
C502 C504 1.391 . S
C503 C502 1.386 . S
C503 C507 1.393 . S
C504 H493 0.950 . S
C504 C502 1.391 . S
C504 C505 1.400 . S
C505 C499 1.491 . S
C505 C504 1.400 . S
C505 C506 1.398 . S
C506 H494 0.950 . S
C506 C505 1.398 . S
C506 C507 1.391 . S
C507 H495 0.950 . S
C507 C503 1.393 . S
C507 C506 1.391 . S
H508 C516 0.950 . S
H509 C521 0.950 . S
H510 C518 0.950 . S
H511 C520 0.950 . S
H512 C522 0.950 . S
H513 C524 0.950 . S
H514 C526 0.950 . S
H515 C527 0.950 . S
C516 H508 0.950 . S
C516 C517 1.386 . S
C516 C518 1.391 . S
C517 C516 1.386 . S
C517 C521 1.393 . S
C518 H510 0.950 . S
C518 C516 1.391 . S
C518 C519 1.400 . S
C519 C518 1.400 . S
C519 C520 1.398 . S
C519 C525 1.491 . S
C520 H511 0.950 . S
C520 C519 1.398 . S
C520 C521 1.391 . S
C521 H509 0.950 . S
C521 C517 1.393 . S
C521 C520 1.391 . S
C522 H512 0.950 . S
C522 C523 1.386 . S
C522 C524 1.391 . S
C523 C522 1.386 . S
C523 C527 1.393 . S
C524 H513 0.950 . S
C524 C522 1.391 . S
C524 C525 1.400 . S
C525 C519 1.491 . S
C525 C524 1.400 . S
C525 C526 1.398 . S
C526 H514 0.950 . S
C526 C525 1.398 . S
C526 C527 1.391 . S
C527 H515 0.950 . S
C527 C523 1.393 . S
C527 C526 1.391 . S
H528 C536 0.950 . S
H529 C541 0.950 . S
H530 C538 0.950 . S
H531 C540 0.950 . S
H532 C542 0.950 . S
H533 C544 0.950 . S
H534 C546 0.950 . S
H535 C547 0.950 . S
C536 H528 0.950 . S
C536 C537 1.386 . S
C536 C538 1.391 . S
C537 C536 1.386 . S
C537 C541 1.393 . S
C538 H530 0.950 . S
C538 C536 1.391 . S
C538 C539 1.400 . S
C539 C538 1.400 . S
C539 C540 1.398 . S
C539 C545 1.491 . S
C540 H531 0.950 . S
C540 C539 1.398 . S
C540 C541 1.391 . S
C541 H529 0.950 . S
C541 C537 1.393 . S
C541 C540 1.391 . S
C542 H532 0.950 . S
C542 C543 1.386 . S
C542 C544 1.391 . S
C543 C542 1.386 . S
C543 C547 1.393 . S
C544 H533 0.950 . S
C544 C542 1.391 . S
C544 C545 1.400 . S
C545 C539 1.491 . S
C545 C544 1.400 . S
C545 C546 1.398 . S
C546 H534 0.950 . S
C546 C545 1.398 . S
C546 C547 1.391 . S
C547 H535 0.950 . S
C547 C543 1.393 . S
C547 C546 1.391 . S
H548 C556 0.950 . S
H549 C561 0.950 . S
H550 C558 0.950 . S
H551 C560 0.950 . S
H552 C562 0.950 . S
H553 C564 0.950 . S
H554 C566 0.950 . S
H555 C567 0.950 . S
C556 H548 0.950 . S
C556 C557 1.386 . S
C556 C558 1.391 . S
C557 C556 1.386 . S
C557 C561 1.393 . S
C558 H550 0.950 . S
C558 C556 1.391 . S
C558 C559 1.400 . S
C559 C558 1.400 . S
C559 C560 1.398 . S
C559 C565 1.491 . S
C560 H551 0.950 . S
C560 C559 1.398 . S
C560 C561 1.391 . S
C561 H549 0.950 . S
C561 C557 1.393 . S
C561 C560 1.391 . S
C562 H552 0.950 . S
C562 C563 1.386 . S
C562 C564 1.391 . S
C563 C562 1.386 . S
C563 C567 1.393 . S
C564 H553 0.950 . S
C564 C562 1.391 . S
C564 C565 1.400 . S
C565 C559 1.491 . S
C565 C564 1.400 . S
C565 C566 1.398 . S
C566 H554 0.950 . S
C566 C565 1.398 . S
C566 C567 1.391 . S
C567 H555 0.950 . S
C567 C563 1.393 . S
C567 C566 1.391 . S
H568 C576 0.950 . S
H569 C581 0.950 . S
H570 C578 0.950 . S
H571 C580 0.950 . S
H572 C582 0.950 . S
H573 C584 0.950 . S
H574 C586 0.950 . S
H575 C587 0.957 . S
C576 H568 0.950 . S
C576 C577 1.386 . S
C576 C578 1.391 . S
C577 C576 1.386 . S
C577 C581 1.393 . S
C578 H570 0.950 . S
C578 C576 1.391 . S
C578 C579 1.400 . S
C579 C578 1.400 . S
C579 C580 1.398 . S
C579 C585 1.491 . S
C580 H571 0.950 . S
C580 C579 1.398 . S
C580 C581 1.391 . S
C581 H569 0.950 . S
C581 C577 1.393 . S
C581 C580 1.391 . S
C582 H572 0.950 . S
C582 C583 1.386 . S
C582 C584 1.391 . S
C583 C582 1.386 . S
C583 C587 1.390 1_556 S
C584 H573 0.950 . S
C584 C582 1.391 . S
C584 C585 1.400 . S
C585 C579 1.491 . S
C585 C584 1.400 . S
C585 C586 1.398 . S
C586 H574 0.950 . S
C586 C585 1.398 . S
C586 C587 1.387 1_556 S
C587 H575 0.957 . S
C587 C583 1.390 1_554 S
C587 C586 1.387 1_554 S
H588 C596 0.950 . S
H589 C601 0.950 . S
H590 C598 0.950 . S
H591 C600 0.950 . S
H592 C602 0.950 . S
H593 C604 0.950 . S
H594 C606 0.950 . S
H595 C607 0.950 . S
C596 H588 0.950 . S
C596 C597 1.386 . S
C596 C598 1.391 . S
C597 C596 1.386 . S
C597 C601 1.393 . S
C598 H590 0.950 . S
C598 C596 1.391 . S
C598 C599 1.400 . S
C599 C598 1.400 . S
C599 C600 1.398 . S
C599 C605 1.491 . S
C600 H591 0.950 . S
C600 C599 1.398 . S
C600 C601 1.391 . S
C601 H589 0.950 . S
C601 C597 1.393 . S
C601 C600 1.391 . S
C602 H592 0.950 . S
C602 C603 1.386 . S
C602 C604 1.391 . S
C603 C602 1.386 . S
C603 C607 1.393 . S
C604 H593 0.950 . S
C604 C602 1.391 . S
C604 C605 1.400 . S
C605 C599 1.491 . S
C605 C604 1.400 . S
C605 C606 1.398 . S
C606 H594 0.950 . S
C606 C605 1.398 . S
C606 C607 1.391 . S
C607 H595 0.950 . S
C607 C603 1.393 . S
C607 C606 1.391 . S
H608 C616 0.950 . S
H609 C621 0.950 . S
H610 C618 0.950 . S
H611 C620 0.950 . S
H612 C622 0.950 . S
H613 C624 0.950 . S
H614 C626 0.950 . S
H615 C627 0.950 . S
C616 H608 0.950 . S
C616 C617 1.386 . S
C616 C618 1.391 . S
C617 C616 1.386 . S
C617 C621 1.393 . S
C618 H610 0.950 . S
C618 C616 1.391 . S
C618 C619 1.400 . S
C619 C618 1.400 . S
C619 C620 1.398 . S
C619 C625 1.491 . S
C620 H611 0.950 . S
C620 C619 1.398 . S
C620 C621 1.391 . S
C621 H609 0.950 . S
C621 C617 1.393 . S
C621 C620 1.391 . S
C622 H612 0.950 . S
C622 C623 1.386 . S
C622 C624 1.391 . S
C623 C622 1.386 . S
C623 C627 1.393 . S
C624 H613 0.950 . S
C624 C622 1.391 . S
C624 C625 1.400 . S
C625 C619 1.491 . S
C625 C624 1.400 . S
C625 C626 1.398 . S
C626 H614 0.950 . S
C626 C625 1.398 . S
C626 C627 1.391 . S
C627 H615 0.950 . S
C627 C623 1.393 . S
C627 C626 1.391 . S
H628 C636 0.950 . S
H629 C641 0.950 . S
H630 C638 0.950 . S
H631 C640 0.950 . S
H632 C642 0.950 . S
H633 C644 0.950 . S
H634 C646 0.950 . S
H635 C647 0.950 . S
C636 H628 0.950 . S
C636 C637 1.386 . S
C636 C638 1.391 . S
C637 C636 1.386 . S
C637 C641 1.393 . S
C638 H630 0.950 . S
C638 C636 1.391 . S
C638 C639 1.400 . S
C639 C638 1.400 . S
C639 C640 1.398 . S
C639 C645 1.491 . S
C640 H631 0.950 . S
C640 C639 1.398 . S
C640 C641 1.391 . S
C641 H629 0.950 . S
C641 C637 1.393 . S
C641 C640 1.391 . S
C642 H632 0.950 . S
C642 C643 1.386 . S
C642 C644 1.391 . S
C643 C642 1.386 . S
C643 C647 1.393 . S
C644 H633 0.950 . S
C644 C642 1.391 . S
C644 C645 1.400 . S
C645 C639 1.491 . S
C645 C644 1.400 . S
C645 C646 1.398 . S
C646 H634 0.950 . S
C646 C645 1.398 . S
C646 C647 1.391 . S
C647 H635 0.950 . S
C647 C643 1.393 . S
C647 C646 1.391 . S
H648 C656 0.950 . S
H649 C661 0.950 . S
H650 C658 0.950 . S
H651 C660 0.950 . S
H652 C662 0.950 . S
H653 C664 0.950 . S
H654 C666 0.950 . S
H655 C667 0.950 . S
C656 H648 0.950 . S
C656 C657 1.386 . S
C656 C658 1.391 . S
C657 C656 1.386 . S
C657 C661 1.393 . S
C658 H650 0.950 . S
C658 C656 1.391 . S
C658 C659 1.400 . S
C659 C658 1.400 . S
C659 C660 1.398 . S
C659 C665 1.491 . S
C660 H651 0.950 . S
C660 C659 1.398 . S
C660 C661 1.391 . S
C661 H649 0.950 . S
C661 C657 1.393 . S
C661 C660 1.391 . S
C662 H652 0.950 . S
C662 C663 1.386 . S
C662 C664 1.391 . S
C663 C662 1.386 . S
C663 C667 1.393 . S
C664 H653 0.950 . S
C664 C662 1.391 . S
C664 C665 1.400 . S
C665 C659 1.491 . S
C665 C664 1.400 . S
C665 C666 1.398 . S
C666 H654 0.950 . S
C666 C665 1.398 . S
C666 C667 1.391 . S
C667 H655 0.950 . S
C667 C663 1.393 . S
C667 C666 1.391 . S
H668 C676 0.950 . S
H669 C681 0.950 . S
H670 C678 0.950 . S
H671 C680 0.950 . S
H672 C682 0.950 . S
H673 C684 0.950 . S
H674 C686 0.950 . S
H675 C687 0.950 . S
C676 H668 0.950 . S
C676 C677 1.386 . S
C676 C678 1.391 . S
C677 C676 1.386 . S
C677 C681 1.393 . S
C678 H670 0.950 . S
C678 C676 1.391 . S
C678 C679 1.400 . S
C679 C678 1.400 . S
C679 C680 1.398 . S
C679 C685 1.491 . S
C680 H671 0.950 . S
C680 C679 1.398 . S
C680 C681 1.391 . S
C681 H669 0.950 . S
C681 C677 1.393 . S
C681 C680 1.391 . S
C682 H672 0.950 . S
C682 C683 1.386 . S
C682 C684 1.391 . S
C683 C682 1.386 . S
C683 C687 1.393 . S
C684 H673 0.950 . S
C684 C682 1.391 . S
C684 C685 1.400 . S
C685 C679 1.491 . S
C685 C684 1.400 . S
C685 C686 1.398 . S
C686 H674 0.950 . S
C686 C685 1.398 . S
C686 C687 1.391 . S
C687 H675 0.950 . S
C687 C683 1.393 . S
C687 C686 1.391 . S
H688 C696 0.950 . S
H689 C701 0.950 . S
H690 C698 0.950 . S
H691 C700 0.950 . S
H692 C702 0.950 . S
H693 C704 0.950 . S
H694 C706 0.950 . S
H695 C707 0.950 . S
C696 H688 0.950 . S
C696 C697 1.386 . S
C696 C698 1.391 . S
C697 C696 1.386 . S
C697 C701 1.393 . S
C698 H690 0.950 . S
C698 C696 1.391 . S
C698 C699 1.400 . S
C699 C698 1.400 . S
C699 C700 1.398 . S
C699 C705 1.491 . S
C700 H691 0.950 . S
C700 C699 1.398 . S
C700 C701 1.391 . S
C701 H689 0.950 . S
C701 C697 1.393 . S
C701 C700 1.391 . S
C702 H692 0.950 . S
C702 C703 1.386 . S
C702 C704 1.391 . S
C703 C702 1.386 . S
C703 C707 1.393 . S
C704 H693 0.950 . S
C704 C702 1.391 . S
C704 C705 1.400 . S
C705 C699 1.491 . S
C705 C704 1.400 . S
C705 C706 1.398 . S
C706 H694 0.950 . S
C706 C705 1.398 . S
C706 C707 1.391 . S
C707 H695 0.950 . S
C707 C703 1.393 . S
C707 C706 1.391 . S
H708 C716 0.950 . S
H709 C721 0.950 . S
H710 C718 0.950 . S
H711 C720 0.950 . S
H712 C722 0.950 . S
H713 C724 0.950 . S
H714 C726 0.950 . S
H715 C727 0.950 . S
C716 H708 0.950 . S
C716 C717 1.386 . S
C716 C718 1.391 . S
C717 C716 1.386 . S
C717 C721 1.393 . S
C718 H710 0.950 . S
C718 C716 1.391 . S
C718 C719 1.400 . S
C719 C718 1.400 . S
C719 C720 1.398 . S
C719 C725 1.491 . S
C720 H711 0.950 . S
C720 C719 1.398 . S
C720 C721 1.391 . S
C721 H709 0.950 . S
C721 C717 1.393 . S
C721 C720 1.391 . S
C722 H712 0.950 . S
C722 C723 1.386 . S
C722 C724 1.391 . S
C723 C722 1.386 . S
C723 C727 1.393 . S
C724 H713 0.950 . S
C724 C722 1.391 . S
C724 C725 1.400 . S
C725 C719 1.491 . S
C725 C724 1.400 . S
C725 C726 1.398 . S
C726 H714 0.950 . S
C726 C725 1.398 . S
C726 C727 1.391 . S
C727 H715 0.950 . S
C727 C723 1.393 . S
C727 C726 1.391 . S
C257 C4 1.088 . S
C263 C94 1.105 . S
C277 C16 1.234 . S
C283 C143 1.244 . S
C303 C178 2.057 . S
C297 C32 2.104 . S
C317 C43 2.295 . S
C323 C217 2.234 . S
C343 C138 2.630 . S
C337 C5 2.535 . S
C363 C97 0.500 1_565 S
C357 C21 0.453 . S
C383 C227 1.877 . S
C377 C27 1.923 . S
C403 C186 1.589 . S
C397 C37 1.604 . S
C417 C10 1.428 . S
C423 C214 1.461 . S
C443 C146 2.518 . S
C437 C26 2.612 . S
C457 C38 2.087 . S
C463 C107 2.078 . S
C477 C15 1.011 . S
C483 C183 1.022 . S
C503 C103 1.270 . S
C497 C48 1.252 . S
C517 C59 1.023 . S
C523 C134 1.025 . S
C537 C76 2.491 . S
C543 C187 2.442 . S
C557 C87 2.128 . S
C563 C226 2.113 . S
C577 C54 1.880 . S
C583 C147 1.976 1_556 S
C603 C106 1.368 . S
C597 C60 1.431 . S
C623 C218 1.741 . S
C617 C71 1.787 . S
C643 C177 1.562 . S
C637 C82 1.610 . S
C657 C49 1.702 . S
C663 C223 1.786 . S
C683 C137 1.967 . S
C677 C70 2.060 . S
C703 C98 2.543 . S
C697 C81 2.557 . S
C717 C65 0.868 . S
C723 C174 0.859 . S
