# Generated by pormake.
# Topology tbo, (3,4)-cn, num edge types: 1
# Building blocks:
#     Node 0, Type 0, BuildingBlock: WUSLED_clean_sbu_0, # of connection points: 3
#     Node 1, Type 0, BuildingBlock: WUSLED_clean_sbu_0, # of connection points: 3
#     Node 2, Type 0, BuildingBlock: WUSLED_clean_sbu_0, # of connection points: 3
#     Node 3, Type 0, BuildingBlock: WUSLED_clean_sbu_0, # of connection points: 3
#     Node 4, Type 0, BuildingBlock: WUSLED_clean_sbu_0, # of connection points: 3
#     Node 5, Type 0, BuildingBlock: WUSLED_clean_sbu_0, # of connection points: 3
#     Node 6, Type 0, BuildingBlock: WUSLED_clean_sbu_0, # of connection points: 3
#     Node 7, Type 0, BuildingBlock: WUSLED_clean_sbu_0, # of connection points: 3
#     Node 8, Type 0, BuildingBlock: WUSLED_clean_sbu_0, # of connection points: 3
#     Node 9, Type 0, BuildingBlock: WUSLED_clean_sbu_0, # of connection points: 3
#     Node 10, Type 0, BuildingBlock: WUSLED_clean_sbu_0, # of connection points: 3
#     Node 11, Type 0, BuildingBlock: WUSLED_clean_sbu_0, # of connection points: 3
#     Node 12, Type 0, BuildingBlock: WUSLED_clean_sbu_0, # of connection points: 3
#     Node 13, Type 0, BuildingBlock: WUSLED_clean_sbu_0, # of connection points: 3
#     Node 14, Type 0, BuildingBlock: WUSLED_clean_sbu_0, # of connection points: 3
#     Node 15, Type 0, BuildingBlock: WUSLED_clean_sbu_0, # of connection points: 3
#     Node 16, Type 0, BuildingBlock: WUSLED_clean_sbu_0, # of connection points: 3
#     Node 17, Type 0, BuildingBlock: WUSLED_clean_sbu_0, # of connection points: 3
#     Node 18, Type 0, BuildingBlock: WUSLED_clean_sbu_0, # of connection points: 3
#     Node 19, Type 0, BuildingBlock: WUSLED_clean_sbu_0, # of connection points: 3
#     Node 20, Type 0, BuildingBlock: WUSLED_clean_sbu_0, # of connection points: 3
#     Node 21, Type 0, BuildingBlock: WUSLED_clean_sbu_0, # of connection points: 3
#     Node 22, Type 0, BuildingBlock: WUSLED_clean_sbu_0, # of connection points: 3
#     Node 23, Type 0, BuildingBlock: WUSLED_clean_sbu_0, # of connection points: 3
#     Node 24, Type 0, BuildingBlock: WUSLED_clean_sbu_0, # of connection points: 3
#     Node 25, Type 0, BuildingBlock: WUSLED_clean_sbu_0, # of connection points: 3
#     Node 26, Type 0, BuildingBlock: WUSLED_clean_sbu_0, # of connection points: 3
#     Node 27, Type 0, BuildingBlock: WUSLED_clean_sbu_0, # of connection points: 3
#     Node 28, Type 0, BuildingBlock: WUSLED_clean_sbu_0, # of connection points: 3
#     Node 29, Type 0, BuildingBlock: WUSLED_clean_sbu_0, # of connection points: 3
#     Node 30, Type 0, BuildingBlock: WUSLED_clean_sbu_0, # of connection points: 3
#     Node 31, Type 0, BuildingBlock: WUSLED_clean_sbu_0, # of connection points: 3
#     Node 32, Type 1, BuildingBlock: KUFVIS_clean_linker_0, # of connection points: 4
#     Node 33, Type 1, BuildingBlock: KUFVIS_clean_linker_0, # of connection points: 4
#     Node 34, Type 1, BuildingBlock: KUFVIS_clean_linker_0, # of connection points: 4
#     Node 35, Type 1, BuildingBlock: KUFVIS_clean_linker_0, # of connection points: 4
#     Node 36, Type 1, BuildingBlock: KUFVIS_clean_linker_0, # of connection points: 4
#     Node 37, Type 1, BuildingBlock: KUFVIS_clean_linker_0, # of connection points: 4
#     Node 38, Type 1, BuildingBlock: KUFVIS_clean_linker_0, # of connection points: 4
#     Node 39, Type 1, BuildingBlock: KUFVIS_clean_linker_0, # of connection points: 4
#     Node 40, Type 1, BuildingBlock: KUFVIS_clean_linker_0, # of connection points: 4
#     Node 41, Type 1, BuildingBlock: KUFVIS_clean_linker_0, # of connection points: 4
#     Node 42, Type 1, BuildingBlock: KUFVIS_clean_linker_0, # of connection points: 4
#     Node 43, Type 1, BuildingBlock: KUFVIS_clean_linker_0, # of connection points: 4
#     Node 44, Type 1, BuildingBlock: KUFVIS_clean_linker_0, # of connection points: 4
#     Node 45, Type 1, BuildingBlock: KUFVIS_clean_linker_0, # of connection points: 4
#     Node 46, Type 1, BuildingBlock: KUFVIS_clean_linker_0, # of connection points: 4
#     Node 47, Type 1, BuildingBlock: KUFVIS_clean_linker_0, # of connection points: 4
#     Node 48, Type 1, BuildingBlock: KUFVIS_clean_linker_0, # of connection points: 4
#     Node 49, Type 1, BuildingBlock: KUFVIS_clean_linker_0, # of connection points: 4
#     Node 50, Type 1, BuildingBlock: KUFVIS_clean_linker_0, # of connection points: 4
#     Node 51, Type 1, BuildingBlock: KUFVIS_clean_linker_0, # of connection points: 4
#     Node 52, Type 1, BuildingBlock: KUFVIS_clean_linker_0, # of connection points: 4
#     Node 53, Type 1, BuildingBlock: KUFVIS_clean_linker_0, # of connection points: 4
#     Node 54, Type 1, BuildingBlock: KUFVIS_clean_linker_0, # of connection points: 4
#     Node 55, Type 1, BuildingBlock: KUFVIS_clean_linker_0, # of connection points: 4
#     Edge 56, Type (0, 1), BuildingBlock: AJUNOK_clean_linker_0, # of connection points: 2
#     Edge 57, Type (0, 1), BuildingBlock: AJUNOK_clean_linker_0, # of connection points: 2
#     Edge 58, Type (0, 1), BuildingBlock: AJUNOK_clean_linker_0, # of connection points: 2
#     Edge 59, Type (0, 1), BuildingBlock: AJUNOK_clean_linker_0, # of connection points: 2
#     Edge 60, Type (0, 1), BuildingBlock: AJUNOK_clean_linker_0, # of connection points: 2
#     Edge 61, Type (0, 1), BuildingBlock: AJUNOK_clean_linker_0, # of connection points: 2
#     Edge 62, Type (0, 1), BuildingBlock: AJUNOK_clean_linker_0, # of connection points: 2
#     Edge 63, Type (0, 1), BuildingBlock: AJUNOK_clean_linker_0, # of connection points: 2
#     Edge 64, Type (0, 1), BuildingBlock: AJUNOK_clean_linker_0, # of connection points: 2
#     Edge 65, Type (0, 1), BuildingBlock: AJUNOK_clean_linker_0, # of connection points: 2
#     Edge 66, Type (0, 1), BuildingBlock: AJUNOK_clean_linker_0, # of connection points: 2
#     Edge 67, Type (0, 1), BuildingBlock: AJUNOK_clean_linker_0, # of connection points: 2
#     Edge 68, Type (0, 1), BuildingBlock: AJUNOK_clean_linker_0, # of connection points: 2
#     Edge 69, Type (0, 1), BuildingBlock: AJUNOK_clean_linker_0, # of connection points: 2
#     Edge 70, Type (0, 1), BuildingBlock: AJUNOK_clean_linker_0, # of connection points: 2
#     Edge 71, Type (0, 1), BuildingBlock: AJUNOK_clean_linker_0, # of connection points: 2
#     Edge 72, Type (0, 1), BuildingBlock: AJUNOK_clean_linker_0, # of connection points: 2
#     Edge 73, Type (0, 1), BuildingBlock: AJUNOK_clean_linker_0, # of connection points: 2
#     Edge 74, Type (0, 1), BuildingBlock: AJUNOK_clean_linker_0, # of connection points: 2
#     Edge 75, Type (0, 1), BuildingBlock: AJUNOK_clean_linker_0, # of connection points: 2
#     Edge 76, Type (0, 1), BuildingBlock: AJUNOK_clean_linker_0, # of connection points: 2
#     Edge 77, Type (0, 1), BuildingBlock: AJUNOK_clean_linker_0, # of connection points: 2
#     Edge 78, Type (0, 1), BuildingBlock: AJUNOK_clean_linker_0, # of connection points: 2
#     Edge 79, Type (0, 1), BuildingBlock: AJUNOK_clean_linker_0, # of connection points: 2
#     Edge 80, Type (0, 1), BuildingBlock: AJUNOK_clean_linker_0, # of connection points: 2
#     Edge 81, Type (0, 1), BuildingBlock: AJUNOK_clean_linker_0, # of connection points: 2
#     Edge 82, Type (0, 1), BuildingBlock: AJUNOK_clean_linker_0, # of connection points: 2
#     Edge 83, Type (0, 1), BuildingBlock: AJUNOK_clean_linker_0, # of connection points: 2
#     Edge 84, Type (0, 1), BuildingBlock: AJUNOK_clean_linker_0, # of connection points: 2
#     Edge 85, Type (0, 1), BuildingBlock: AJUNOK_clean_linker_0, # of connection points: 2
#     Edge 86, Type (0, 1), BuildingBlock: AJUNOK_clean_linker_0, # of connection points: 2
#     Edge 87, Type (0, 1), BuildingBlock: AJUNOK_clean_linker_0, # of connection points: 2
#     Edge 88, Type (0, 1), BuildingBlock: AJUNOK_clean_linker_0, # of connection points: 2
#     Edge 89, Type (0, 1), BuildingBlock: AJUNOK_clean_linker_0, # of connection points: 2
#     Edge 90, Type (0, 1), BuildingBlock: AJUNOK_clean_linker_0, # of connection points: 2
#     Edge 91, Type (0, 1), BuildingBlock: AJUNOK_clean_linker_0, # of connection points: 2
#     Edge 92, Type (0, 1), BuildingBlock: AJUNOK_clean_linker_0, # of connection points: 2
#     Edge 93, Type (0, 1), BuildingBlock: AJUNOK_clean_linker_0, # of connection points: 2
#     Edge 94, Type (0, 1), BuildingBlock: AJUNOK_clean_linker_0, # of connection points: 2
#     Edge 95, Type (0, 1), BuildingBlock: AJUNOK_clean_linker_0, # of connection points: 2
#     Edge 96, Type (0, 1), BuildingBlock: AJUNOK_clean_linker_0, # of connection points: 2
#     Edge 97, Type (0, 1), BuildingBlock: AJUNOK_clean_linker_0, # of connection points: 2
#     Edge 98, Type (0, 1), BuildingBlock: AJUNOK_clean_linker_0, # of connection points: 2
#     Edge 99, Type (0, 1), BuildingBlock: AJUNOK_clean_linker_0, # of connection points: 2
#     Edge 100, Type (0, 1), BuildingBlock: AJUNOK_clean_linker_0, # of connection points: 2
#     Edge 101, Type (0, 1), BuildingBlock: AJUNOK_clean_linker_0, # of connection points: 2
#     Edge 102, Type (0, 1), BuildingBlock: AJUNOK_clean_linker_0, # of connection points: 2
#     Edge 103, Type (0, 1), BuildingBlock: AJUNOK_clean_linker_0, # of connection points: 2
#     Edge 104, Type (0, 1), BuildingBlock: AJUNOK_clean_linker_0, # of connection points: 2
#     Edge 105, Type (0, 1), BuildingBlock: AJUNOK_clean_linker_0, # of connection points: 2
#     Edge 106, Type (0, 1), BuildingBlock: AJUNOK_clean_linker_0, # of connection points: 2
#     Edge 107, Type (0, 1), BuildingBlock: AJUNOK_clean_linker_0, # of connection points: 2
#     Edge 108, Type (0, 1), BuildingBlock: AJUNOK_clean_linker_0, # of connection points: 2
#     Edge 109, Type (0, 1), BuildingBlock: AJUNOK_clean_linker_0, # of connection points: 2
#     Edge 110, Type (0, 1), BuildingBlock: AJUNOK_clean_linker_0, # of connection points: 2
#     Edge 111, Type (0, 1), BuildingBlock: AJUNOK_clean_linker_0, # of connection points: 2
#     Edge 112, Type (0, 1), BuildingBlock: AJUNOK_clean_linker_0, # of connection points: 2
#     Edge 113, Type (0, 1), BuildingBlock: AJUNOK_clean_linker_0, # of connection points: 2
#     Edge 114, Type (0, 1), BuildingBlock: AJUNOK_clean_linker_0, # of connection points: 2
#     Edge 115, Type (0, 1), BuildingBlock: AJUNOK_clean_linker_0, # of connection points: 2
#     Edge 116, Type (0, 1), BuildingBlock: AJUNOK_clean_linker_0, # of connection points: 2
#     Edge 117, Type (0, 1), BuildingBlock: AJUNOK_clean_linker_0, # of connection points: 2
#     Edge 118, Type (0, 1), BuildingBlock: AJUNOK_clean_linker_0, # of connection points: 2
#     Edge 119, Type (0, 1), BuildingBlock: AJUNOK_clean_linker_0, # of connection points: 2
#     Edge 120, Type (0, 1), BuildingBlock: AJUNOK_clean_linker_0, # of connection points: 2
#     Edge 121, Type (0, 1), BuildingBlock: AJUNOK_clean_linker_0, # of connection points: 2
#     Edge 122, Type (0, 1), BuildingBlock: AJUNOK_clean_linker_0, # of connection points: 2
#     Edge 123, Type (0, 1), BuildingBlock: AJUNOK_clean_linker_0, # of connection points: 2
#     Edge 124, Type (0, 1), BuildingBlock: AJUNOK_clean_linker_0, # of connection points: 2
#     Edge 125, Type (0, 1), BuildingBlock: AJUNOK_clean_linker_0, # of connection points: 2
#     Edge 126, Type (0, 1), BuildingBlock: AJUNOK_clean_linker_0, # of connection points: 2
#     Edge 127, Type (0, 1), BuildingBlock: AJUNOK_clean_linker_0, # of connection points: 2
#     Edge 128, Type (0, 1), BuildingBlock: AJUNOK_clean_linker_0, # of connection points: 2
#     Edge 129, Type (0, 1), BuildingBlock: AJUNOK_clean_linker_0, # of connection points: 2
#     Edge 130, Type (0, 1), BuildingBlock: AJUNOK_clean_linker_0, # of connection points: 2
#     Edge 131, Type (0, 1), BuildingBlock: AJUNOK_clean_linker_0, # of connection points: 2
#     Edge 132, Type (0, 1), BuildingBlock: AJUNOK_clean_linker_0, # of connection points: 2
#     Edge 133, Type (0, 1), BuildingBlock: AJUNOK_clean_linker_0, # of connection points: 2
#     Edge 134, Type (0, 1), BuildingBlock: AJUNOK_clean_linker_0, # of connection points: 2
#     Edge 135, Type (0, 1), BuildingBlock: AJUNOK_clean_linker_0, # of connection points: 2
#     Edge 136, Type (0, 1), BuildingBlock: AJUNOK_clean_linker_0, # of connection points: 2
#     Edge 137, Type (0, 1), BuildingBlock: AJUNOK_clean_linker_0, # of connection points: 2
#     Edge 138, Type (0, 1), BuildingBlock: AJUNOK_clean_linker_0, # of connection points: 2
#     Edge 139, Type (0, 1), BuildingBlock: AJUNOK_clean_linker_0, # of connection points: 2
#     Edge 140, Type (0, 1), BuildingBlock: AJUNOK_clean_linker_0, # of connection points: 2
#     Edge 141, Type (0, 1), BuildingBlock: AJUNOK_clean_linker_0, # of connection points: 2
#     Edge 142, Type (0, 1), BuildingBlock: AJUNOK_clean_linker_0, # of connection points: 2
#     Edge 143, Type (0, 1), BuildingBlock: AJUNOK_clean_linker_0, # of connection points: 2
#     Edge 144, Type (0, 1), BuildingBlock: AJUNOK_clean_linker_0, # of connection points: 2
#     Edge 145, Type (0, 1), BuildingBlock: AJUNOK_clean_linker_0, # of connection points: 2
#     Edge 146, Type (0, 1), BuildingBlock: AJUNOK_clean_linker_0, # of connection points: 2
#     Edge 147, Type (0, 1), BuildingBlock: AJUNOK_clean_linker_0, # of connection points: 2
#     Edge 148, Type (0, 1), BuildingBlock: AJUNOK_clean_linker_0, # of connection points: 2
#     Edge 149, Type (0, 1), BuildingBlock: AJUNOK_clean_linker_0, # of connection points: 2
#     Edge 150, Type (0, 1), BuildingBlock: AJUNOK_clean_linker_0, # of connection points: 2
#     Edge 151, Type (0, 1), BuildingBlock: AJUNOK_clean_linker_0, # of connection points: 2
# Relax obj value: 0.000
# Max RMSD: 0.055
# Mean RMSD: 0.026
data_MOF--net-tbo--node1-WUSLED_clean_sbu_0--node2-KUFVIS_clean_linker_0--edge1-AJUNOK_clean_linker_0
_symmetry_space_group_name_H-M    P1
_symmetry_Int_Tables_number       1
_symmetry_cell_setting            triclinic
loop_
_symmetry_equiv_pos_as_xyz
'x, y, z'
_cell_length_a     73.783094
_cell_length_b     74.081903
_cell_length_c     73.864318
_cell_angle_alpha  89.601444
_cell_angle_beta   90.169352
_cell_angle_gamma 90.711486
loop_
_atom_site_label
_atom_site_type_symbol
_atom_site_fract_x
_atom_site_fract_y
_atom_site_fract_z
_atom_type_partial_charge
C0 C 0.19475 0.14067 0.21851 0.0
C1 C 0.21308 0.13922 0.21366 0.0
C2 C 0.2157 0.11175 0.23189 0.0
C3 C 0.22348 0.12489 0.22032 0.0
C4 C 0.19719 0.11296 0.23612 0.0
C5 C 0.18683 0.12726 0.22949 0.0
U6 U 0.18425 0.18232 0.18869 0.0
O7 O 0.15777 0.19302 0.18025 0.0
O8 O 0.17598 0.20941 0.19715 0.0
C9 C 0.15992 0.20798 0.18954 0.0
C10 C 0.18395 0.15657 0.21339 0.0
C11 C 0.1445 0.21344 0.20081 0.0
C12 C 0.1241 0.20886 0.22634 0.0
C13 C 0.13836 0.20286 0.21545 0.0
C14 C 0.12198 0.23596 0.20798 0.0
C15 C 0.11574 0.2255 0.22271 0.0
C16 C 0.13615 0.22995 0.19713 0.0
C17 C 0.21486 0.19452 0.14811 0.0
C18 C 0.20924 0.21902 0.12677 0.0
C19 C 0.23805 0.20373 0.12652 0.0
C20 C 0.23216 0.1925 0.14067 0.0
C21 C 0.22677 0.21727 0.11951 0.0
C22 C 0.20336 0.20778 0.141 0.0
C23 C 0.20938 0.1829 0.16349 0.0
O24 O 0.1919 0.17236 0.2157 0.0
O25 O 0.17478 0.15549 0.19814 0.0
O26 O 0.19385 0.17416 0.1618 0.0
O27 O 0.21171 0.18994 0.17962 0.0
H28 H 0.21947 0.14947 0.20521 0.0
H29 H 0.23777 0.12454 0.21706 0.0
H30 H 0.19081 0.10304 0.24496 0.0
H31 H 0.17272 0.12812 0.23338 0.0
H32 H 0.11968 0.20055 0.23765 0.0
H33 H 0.14471 0.19009 0.21857 0.0
H34 H 0.11627 0.24907 0.20512 0.0
H35 H 0.14082 0.23839 0.186 0.0
H36 H 0.2001 0.22911 0.12148 0.0
H37 H 0.25167 0.20213 0.12137 0.0
H38 H 0.24124 0.18237 0.146 0.0
H39 H 0.18992 0.20952 0.14655 0.0
C40 C 0.83574 0.19331 0.15128 0.0
C41 C 0.84665 0.2066 0.14295 0.0
C42 C 0.82169 0.21474 0.12285 0.0
C43 C 0.83968 0.21722 0.12884 0.0
C44 C 0.8109 0.20131 0.13121 0.0
C45 C 0.81789 0.19068 0.14524 0.0
U46 U 0.86975 0.18452 0.18958 0.0
O47 O 0.86482 0.17598 0.2177 0.0
O48 O 0.88067 0.1588 0.19977 0.0
C49 C 0.87283 0.16039 0.21563 0.0
C50 C 0.84246 0.18255 0.16668 0.0
C51 C 0.86254 0.14448 0.22215 0.0
C52 C 0.83489 0.12628 0.22326 0.0
C53 C 0.84491 0.14075 0.21591 0.0
C54 C 0.86021 0.11887 0.24278 0.0
C55 C 0.84238 0.11529 0.23691 0.0
C56 C 0.87019 0.13332 0.23545 0.0
C57 C 0.9096 0.21766 0.19674 0.0
C58 C 0.92873 0.21796 0.22362 0.0
C59 C 0.93454 0.23925 0.19922 0.0
C60 C 0.92001 0.23187 0.18943 0.0
C61 C 0.93895 0.23252 0.2165 0.0
C62 C 0.91417 0.21057 0.2138 0.0
C63 C 0.89348 0.21116 0.18681 0.0
O64 O 0.8579 0.17426 0.16421 0.0
O65 O 0.8414 0.19037 0.18255 0.0
O66 O 0.87804 0.21246 0.19549 0.0
O67 O 0.89514 0.19577 0.17826 0.0
H68 H 0.86045 0.20891 0.14751 0.0
H69 H 0.84831 0.22749 0.12272 0.0
H70 H 0.79685 0.19939 0.12731 0.0
H71 H 0.80922 0.1806 0.15164 0.0
H72 H 0.82107 0.12411 0.21872 0.0
H73 H 0.83876 0.14928 0.20569 0.0
H74 H 0.86633 0.11064 0.25326 0.0
H75 H 0.88378 0.13601 0.24043 0.0
H76 H 0.93155 0.21272 0.23704 0.0
H77 H 0.94216 0.25044 0.19339 0.0
H78 H 0.91666 0.23753 0.1763 0.0
H79 H 0.90621 0.19965 0.2197 0.0
C80 C 0.83717 0.86035 0.14602 0.0
C81 C 0.84305 0.84266 0.14302 0.0
C82 C 0.82301 0.84016 0.11675 0.0
C83 C 0.83602 0.83264 0.12849 0.0
C84 C 0.81758 0.85804 0.11959 0.0
C85 C 0.82462 0.86802 0.13405 0.0
U86 U 0.86784 0.8698 0.18765 0.0
O87 O 0.87706 0.89602 0.19841 0.0
O88 O 0.85965 0.87826 0.2149 0.0
C89 C 0.86766 0.89413 0.21341 0.0
C90 C 0.84297 0.8707 0.16207 0.0
C91 C 0.85665 0.90967 0.21875 0.0
C92 C 0.83171 0.93033 0.2137 0.0
C93 C 0.8424 0.91597 0.20786 0.0
C94 C 0.8495 0.93226 0.24124 0.0
C95 C 0.83514 0.93864 0.23048 0.0
C96 C 0.86016 0.91797 0.2354 0.0
C97 C 0.90766 0.83901 0.19995 0.0
C98 C 0.92775 0.84413 0.22568 0.0
C99 C 0.9298 0.81647 0.20858 0.0
C100 C 0.91589 0.82232 0.19714 0.0
C101 C 0.93577 0.82718 0.22313 0.0
C102 C 0.91376 0.84997 0.21422 0.0
C103 C 0.89245 0.84441 0.18817 0.0
O104 O 0.84058 0.86262 0.17779 0.0
O105 O 0.85856 0.8794 0.16088 0.0
O106 O 0.89451 0.85976 0.17933 0.0
O107 O 0.87622 0.84234 0.19521 0.0
H108 H 0.85269 0.83647 0.15217 0.0
H109 H 0.84023 0.8188 0.12687 0.0
H110 H 0.80761 0.86419 0.11078 0.0
H111 H 0.8199 0.88164 0.13615 0.0
H112 H 0.82068 0.93487 0.20516 0.0
H113 H 0.83944 0.90965 0.19499 0.0
H114 H 0.85217 0.93794 0.25446 0.0
H115 H 0.87099 0.91318 0.24406 0.0
H116 H 0.93223 0.85284 0.23657 0.0
H117 H 0.93556 0.8033 0.20633 0.0
H118 H 0.91134 0.81365 0.18623 0.0
H119 H 0.90759 0.86294 0.21658 0.0
C120 C 0.14302 0.83545 0.19799 0.0
C121 C 0.13503 0.8466 0.21093 0.0
C122 C 0.11368 0.82247 0.21913 0.0
C123 C 0.12048 0.84017 0.22141 0.0
C124 C 0.12173 0.81143 0.20606 0.0
C125 C 0.13621 0.81789 0.19557 0.0
U126 U 0.18319 0.86773 0.18891 0.0
O127 O 0.2111 0.86135 0.18091 0.0
O128 O 0.19415 0.87786 0.16302 0.0
C129 C 0.20952 0.86924 0.16501 0.0
C130 C 0.15885 0.84154 0.18736 0.0
C131 C 0.21545 0.85845 0.14945 0.0
C132 C 0.20988 0.83556 0.12655 0.0
C133 C 0.20365 0.84623 0.14079 0.0
C134 C 0.23968 0.84933 0.12937 0.0
C135 C 0.22807 0.83678 0.12087 0.0
C136 C 0.23343 0.86003 0.14352 0.0
C137 C 0.19198 0.90742 0.22146 0.0
C138 C 0.21928 0.92619 0.22163 0.0
C139 C 0.1954 0.93165 0.24327 0.0
C140 C 0.18517 0.9175 0.23586 0.0
C141 C 0.21265 0.93606 0.23638 0.0
C142 C 0.20902 0.91197 0.21422 0.0
C143 C 0.1815 0.89169 0.21495 0.0
O144 O 0.15721 0.85696 0.17861 0.0
O145 O 0.1746 0.83991 0.19551 0.0
O146 O 0.18946 0.87601 0.21677 0.0
O147 O 0.1732 0.8936 0.1993 0.0
H148 H 0.14018 0.86018 0.21307 0.0
H149 H 0.11463 0.84897 0.23141 0.0
H150 H 0.11723 0.79758 0.20432 0.0
H151 H 0.14232 0.80902 0.18578 0.0
H152 H 0.2005 0.82627 0.12008 0.0
H153 H 0.1897 0.84482 0.14516 0.0
H154 H 0.25378 0.85051 0.12543 0.0
H155 H 0.24275 0.86936 0.15006 0.0
H156 H 0.23266 0.92903 0.21625 0.0
H157 H 0.18994 0.93901 0.2546 0.0
H158 H 0.17206 0.91416 0.24164 0.0
H159 H 0.21454 0.90427 0.20316 0.0
C160 C 0.14375 0.83456 0.86374 0.0
C161 C 0.13442 0.84642 0.85222 0.0
C162 C 0.11581 0.82146 0.84094 0.0
C163 C 0.12049 0.83995 0.841 0.0
C164 C 0.12494 0.80974 0.85281 0.0
C165 C 0.13878 0.81624 0.86409 0.0
U166 U 0.18277 0.86761 0.87385 0.0
O167 O 0.19298 0.87784 0.89991 0.0
O168 O 0.21068 0.8619 0.88256 0.0
C169 C 0.20854 0.86952 0.89841 0.0
C170 C 0.15912 0.84081 0.87494 0.0
C171 C 0.21409 0.85848 0.9141 0.0
C172 C 0.20819 0.83453 0.9361 0.0
C173 C 0.20231 0.84553 0.92178 0.0
C174 C 0.23758 0.84944 0.93532 0.0
C175 C 0.226 0.83618 0.94284 0.0
C176 C 0.23168 0.86046 0.92107 0.0
C177 C 0.19096 0.90761 0.84092 0.0
C178 C 0.21877 0.92544 0.83841 0.0
C179 C 0.19259 0.93325 0.82024 0.0
C180 C 0.18279 0.91897 0.82812 0.0
C181 C 0.21082 0.93638 0.82499 0.0
C182 C 0.20893 0.91112 0.84629 0.0
C183 C 0.18087 0.8916 0.84752 0.0
O184 O 0.17511 0.8396 0.86731 0.0
O185 O 0.15692 0.85607 0.88361 0.0
O186 O 0.1723 0.89329 0.86298 0.0
O187 O 0.18926 0.87614 0.84606 0.0
H188 H 0.13806 0.86063 0.85174 0.0
H189 H 0.11348 0.84938 0.83227 0.0
H190 H 0.12175 0.79543 0.853 0.0
H191 H 0.14586 0.80687 0.87285 0.0
H192 H 0.19885 0.82465 0.94179 0.0
H193 H 0.18867 0.8438 0.91657 0.0
H194 H 0.25141 0.85095 0.9401 0.0
H195 H 0.24098 0.87034 0.91528 0.0
H196 H 0.2328 0.92753 0.8423 0.0
H197 H 0.18603 0.94166 0.81019 0.0
H198 H 0.16891 0.91652 0.82386 0.0
H199 H 0.21547 0.9025 0.85619 0.0
C200 C 0.14228 0.19001 0.84393 0.0
C201 C 0.14082 0.20826 0.8487 0.0
C202 C 0.11353 0.21103 0.83014 0.0
C203 C 0.12658 0.21869 0.84184 0.0
C204 C 0.11477 0.1926 0.82592 0.0
C205 C 0.12899 0.18221 0.83275 0.0
U206 U 0.18312 0.17997 0.87486 0.0
O207 O 0.1934 0.15379 0.88462 0.0
O208 O 0.21054 0.17135 0.86763 0.0
C209 C 0.20877 0.15562 0.87581 0.0
C210 C 0.15799 0.17912 0.84954 0.0
C211 C 0.21483 0.13982 0.86549 0.0
C212 C 0.21674 0.12269 0.83756 0.0
C213 C 0.20943 0.13694 0.84748 0.0
C214 C 0.23446 0.11376 0.8637 0.0
C215 C 0.22953 0.11108 0.8455 0.0
C216 C 0.22716 0.12796 0.87358 0.0
C217 C 0.19392 0.2118 0.91472 0.0
C218 C 0.22279 0.21446 0.93061 0.0
C219 C 0.19672 0.23075 0.94134 0.0
C220 C 0.1862 0.22341 0.92737 0.0
C221 C 0.2152 0.2266 0.94297 0.0
C222 C 0.21222 0.2071 0.9166 0.0
C223 C 0.18289 0.20573 0.89917 0.0
O224 O 0.17399 0.18682 0.84734 0.0
O225 O 0.15645 0.17036 0.86501 0.0
O226 O 0.17404 0.19035 0.90121 0.0
O227 O 0.19049 0.20752 0.88318 0.0
H228 H 0.15096 0.21456 0.8573 0.0
H229 H 0.12623 0.23291 0.84508 0.0
H230 H 0.10492 0.18629 0.81699 0.0
H231 H 0.12985 0.16815 0.82893 0.0
H232 H 0.21292 0.12119 0.82348 0.0
H233 H 0.19998 0.146 0.84096 0.0
H234 H 0.24424 0.10504 0.8702 0.0
H235 H 0.23151 0.12996 0.88746 0.0
H236 H 0.23705 0.21125 0.9313 0.0
H237 H 0.19048 0.24001 0.95068 0.0
H238 H 0.1721 0.22719 0.92616 0.0
H239 H 0.21845 0.19817 0.90694 0.0
C240 C 0.85562 0.14667 0.8463 0.0
C241 C 0.85955 0.1384 0.8298 0.0
C242 C 0.83391 0.11769 0.83362 0.0
C243 C 0.84879 0.12411 0.82348 0.0
C244 C 0.83004 0.12598 0.85024 0.0
C245 C 0.84083 0.14036 0.85656 0.0
U246 U 0.86701 0.18672 0.87768 0.0
O247 O 0.83973 0.19428 0.88659 0.0
O248 O 0.85676 0.17758 0.90422 0.0
C249 C 0.84163 0.18666 0.90259 0.0
C250 C 0.8668 0.16221 0.85209 0.0
C251 C 0.83666 0.19797 0.91809 0.0
C252 C 0.81409 0.20673 0.94013 0.0
C253 C 0.81957 0.19557 0.92603 0.0
C254 C 0.84293 0.22266 0.93885 0.0
C255 C 0.82559 0.22057 0.94657 0.0
C256 C 0.84839 0.21149 0.92467 0.0
C257 C 0.90791 0.21708 0.86616 0.0
C258 C 0.92989 0.23987 0.85656 0.0
C259 C 0.92889 0.21083 0.8417 0.0
C260 C 0.91465 0.2053 0.85306 0.0
C261 C 0.93648 0.2283 0.84314 0.0
C262 C 0.91574 0.23431 0.86793 0.0
C263 C 0.89236 0.21198 0.87765 0.0
O264 O 0.87565 0.16033 0.86745 0.0
O265 O 0.85926 0.17809 0.85026 0.0
O266 O 0.87636 0.21407 0.87014 0.0
O267 O 0.89375 0.19672 0.88672 0.0
H268 H 0.8708 0.14322 0.82161 0.0
H269 H 0.85183 0.11844 0.81038 0.0
H270 H 0.8186 0.12141 0.8583 0.0
H271 H 0.83754 0.14667 0.8693 0.0
H272 H 0.80061 0.20487 0.94566 0.0
H273 H 0.81031 0.18525 0.9211 0.0
H274 H 0.85221 0.23299 0.94369 0.0
H275 H 0.86167 0.21353 0.9187 0.0
H276 H 0.93534 0.25344 0.85793 0.0
H277 H 0.93387 0.20149 0.83171 0.0
H278 H 0.90878 0.19192 0.8515 0.0
H279 H 0.91067 0.24361 0.87793 0.0
C280 C 0.86047 0.91024 0.83893 0.0
C281 C 0.84173 0.91094 0.84209 0.0
C282 C 0.83997 0.9394 0.82533 0.0
C283 C 0.83157 0.9254 0.83536 0.0
C284 C 0.85884 0.93895 0.82281 0.0
C285 C 0.86896 0.92449 0.82951 0.0
U286 U 0.8708 0.86905 0.86952 0.0
O287 O 0.87977 0.84202 0.86179 0.0
O288 O 0.89732 0.85903 0.8788 0.0
C289 C 0.89567 0.84392 0.86968 0.0
C290 C 0.87129 0.89448 0.84448 0.0
C291 C 0.91149 0.83851 0.85891 0.0
C292 C 0.92739 0.83617 0.83018 0.0
C293 C 0.91315 0.84309 0.84049 0.0
C294 C 0.93879 0.82062 0.85674 0.0
C295 C 0.9402 0.8246 0.83815 0.0
C296 C 0.9246 0.82752 0.867 0.0
C297 C 0.83963 0.85697 0.90971 0.0
C298 C 0.84354 0.83073 0.92931 0.0
C299 C 0.81781 0.85023 0.93348 0.0
C300 C 0.82381 0.86117 0.91914 0.0
C301 C 0.82759 0.83487 0.93878 0.0
C302 C 0.84954 0.84171 0.91491 0.0
C303 C 0.84515 0.8684 0.89421 0.0
O304 O 0.88013 0.89586 0.85989 0.0
O305 O 0.86359 0.87856 0.84221 0.0
O306 O 0.84332 0.86103 0.87816 0.0
O307 O 0.86046 0.87748 0.89606 0.0
H308 H 0.83489 0.90013 0.8494 0.0
H309 H 0.81706 0.92535 0.8375 0.0
H310 H 0.86576 0.9497 0.81549 0.0
H311 H 0.88342 0.92428 0.82702 0.0
H312 H 0.92791 0.83924 0.81584 0.0
H313 H 0.90315 0.85154 0.83397 0.0
H314 H 0.94846 0.8118 0.86326 0.0
H315 H 0.92356 0.82384 0.88118 0.0
H316 H 0.85132 0.81895 0.933 0.0
H317 H 0.8052 0.85353 0.94008 0.0
H318 H 0.81589 0.87279 0.91522 0.0
H319 H 0.86177 0.83821 0.90773 0.0
C320 C 0.19344 0.64274 0.71791 0.0
C321 C 0.21235 0.64239 0.71566 0.0
C322 C 0.21387 0.61413 0.73271 0.0
C323 C 0.22247 0.6282 0.723 0.0
C324 C 0.19486 0.61409 0.73411 0.0
C325 C 0.18477 0.6283 0.72684 0.0
U326 U 0.18419 0.68283 0.68602 0.0
O327 O 0.15825 0.69337 0.67576 0.0
O328 O 0.17601 0.7105 0.6924 0.0
C329 C 0.16026 0.70884 0.68419 0.0
C330 C 0.18265 0.65839 0.71194 0.0
C331 C 0.14445 0.71524 0.69439 0.0
C332 C 0.12587 0.71574 0.72157 0.0
C333 C 0.14018 0.70841 0.71166 0.0
C334 C 0.11973 0.73649 0.69689 0.0
C335 C 0.11561 0.73002 0.71436 0.0
C336 C 0.13397 0.72915 0.68701 0.0
C337 C 0.21729 0.69164 0.64635 0.0
C338 C 0.22013 0.7195 0.62888 0.0
C339 C 0.23791 0.69352 0.62077 0.0
C340 C 0.22995 0.68362 0.63491 0.0
C341 C 0.23339 0.71168 0.61785 0.0
C342 C 0.21216 0.70956 0.64306 0.0
C343 C 0.21048 0.68135 0.66212 0.0
O344 O 0.19044 0.67432 0.71386 0.0
O345 O 0.17394 0.65666 0.69649 0.0
O346 O 0.19483 0.67294 0.66007 0.0
O347 O 0.21213 0.68938 0.67786 0.0
H348 H 0.21934 0.65333 0.70868 0.0
H349 H 0.23709 0.62861 0.72171 0.0
H350 H 0.18781 0.60325 0.74117 0.0
H351 H 0.17019 0.62822 0.72859 0.0
H352 H 0.12328 0.7107 0.73513 0.0
H353 H 0.14818 0.69772 0.71763 0.0
H354 H 0.11207 0.74744 0.69097 0.0
H355 H 0.13706 0.73461 0.67372 0.0
H356 H 0.21642 0.73348 0.62694 0.0
H357 H 0.24784 0.68705 0.6123 0.0
H358 H 0.23401 0.66977 0.63718 0.0
H359 H 0.20237 0.71598 0.65173 0.0
C360 C 0.83412 0.6917 0.64916 0.0
C361 C 0.84056 0.70932 0.6458 0.0
C362 C 0.81871 0.71271 0.62121 0.0
C363 C 0.83293 0.71973 0.63189 0.0
C364 C 0.8128 0.69483 0.62423 0.0
C365 C 0.82043 0.68445 0.6381 0.0
U366 U 0.86734 0.68208 0.68836 0.0
O367 O 0.86134 0.67281 0.71602 0.0
O368 O 0.87741 0.65581 0.69808 0.0
C369 C 0.86896 0.65706 0.71366 0.0
C370 C 0.84078 0.68095 0.66458 0.0
C371 C 0.85803 0.64121 0.71926 0.0
C372 C 0.82896 0.62561 0.72225 0.0
C373 C 0.83941 0.63998 0.71535 0.0
C374 C 0.85575 0.61317 0.73639 0.0
C375 C 0.83698 0.61218 0.73309 0.0
C376 C 0.86616 0.62755 0.72954 0.0
C377 C 0.90761 0.71372 0.69825 0.0
C378 C 0.92924 0.70834 0.72258 0.0
C379 C 0.93022 0.73657 0.70585 0.0
C380 C 0.91559 0.73072 0.69524 0.0
C381 C 0.93725 0.72546 0.71964 0.0
C382 C 0.91455 0.70251 0.71195 0.0
C383 C 0.89171 0.70825 0.6874 0.0
O384 O 0.85628 0.67275 0.66224 0.0
O385 O 0.83939 0.68852 0.68054 0.0
O386 O 0.87599 0.70965 0.69555 0.0
O387 O 0.89325 0.69319 0.67825 0.0
H388 H 0.85116 0.71513 0.6542 0.0
H389 H 0.8377 0.73348 0.62987 0.0
H390 H 0.80209 0.68897 0.61602 0.0
H391 H 0.81536 0.67084 0.64044 0.0
H392 H 0.81449 0.62543 0.71976 0.0
H393 H 0.83287 0.65041 0.70742 0.0
H394 H 0.86231 0.60301 0.74465 0.0
H395 H 0.88051 0.62825 0.73266 0.0
H396 H 0.93429 0.69953 0.73316 0.0
H397 H 0.93569 0.75004 0.70358 0.0
H398 H 0.9103 0.73963 0.68485 0.0
H399 H 0.90847 0.68936 0.71455 0.0
C400 C 0.83884 0.35749 0.64814 0.0
C401 C 0.85064 0.34464 0.64098 0.0
C402 C 0.82757 0.33533 0.61903 0.0
C403 C 0.84507 0.3337 0.6265 0.0
C404 C 0.81598 0.34847 0.62608 0.0
C405 C 0.82157 0.35941 0.64048 0.0
U406 U 0.86923 0.36859 0.68909 0.0
O407 O 0.87848 0.395 0.6995 0.0
O408 O 0.86161 0.37714 0.71644 0.0
C409 C 0.86965 0.393 0.71483 0.0
C410 C 0.84401 0.36869 0.66383 0.0
C411 C 0.85915 0.4086 0.72105 0.0
C412 C 0.83156 0.42629 0.72166 0.0
C413 C 0.84175 0.41225 0.71431 0.0
C414 C 0.85623 0.43339 0.74221 0.0
C415 C 0.83862 0.43686 0.73588 0.0
C416 C 0.86639 0.41943 0.73484 0.0
C417 C 0.90943 0.33761 0.7003 0.0
C418 C 0.93064 0.34233 0.72518 0.0
C419 C 0.93146 0.31464 0.70798 0.0
C420 C 0.91717 0.32075 0.69717 0.0
C421 C 0.93841 0.32535 0.72212 0.0
C422 C 0.91627 0.34843 0.71435 0.0
C423 C 0.8939 0.34325 0.68909 0.0
O424 O 0.84182 0.361 0.67977 0.0
O425 O 0.85934 0.37783 0.66247 0.0
O426 O 0.89577 0.35863 0.68027 0.0
O427 O 0.87788 0.34121 0.69661 0.0
H428 H 0.86406 0.34297 0.6467 0.0
H429 H 0.85443 0.32393 0.62121 0.0
H430 H 0.80238 0.34998 0.62078 0.0
H431 H 0.81225 0.36922 0.64583 0.0
H432 H 0.81792 0.42842 0.71671 0.0
H433 H 0.83589 0.40396 0.70371 0.0
H434 H 0.86204 0.4413 0.75311 0.0
H435 H 0.87978 0.41682 0.74024 0.0
H436 H 0.93561 0.35084 0.73603 0.0
H437 H 0.9367 0.30129 0.70559 0.0
H438 H 0.91196 0.31213 0.68651 0.0
H439 H 0.91038 0.36146 0.71703 0.0
C440 C 0.14313 0.33669 0.6979 0.0
C441 C 0.14137 0.34034 0.71644 0.0
C442 C 0.11464 0.32071 0.71806 0.0
C443 C 0.12721 0.33242 0.72644 0.0
C444 C 0.11601 0.31777 0.69934 0.0
C445 C 0.13016 0.32565 0.68937 0.0
U446 U 0.18303 0.36963 0.6889 0.0
O447 O 0.2108 0.36365 0.68042 0.0
O448 O 0.19338 0.37991 0.66274 0.0
C449 C 0.2088 0.37137 0.66446 0.0
C450 C 0.15885 0.34332 0.6874 0.0
C451 C 0.21451 0.36062 0.64876 0.0
C452 C 0.21866 0.33172 0.6339 0.0
C453 C 0.21169 0.34183 0.6482 0.0
C454 C 0.23059 0.35912 0.62012 0.0
C455 C 0.22856 0.34021 0.61992 0.0
C456 C 0.2237 0.3692 0.63444 0.0
C457 C 0.19179 0.40931 0.72164 0.0
C458 C 0.21965 0.42712 0.72383 0.0
C459 C 0.19375 0.43475 0.7422 0.0
C460 C 0.18382 0.42055 0.73448 0.0
C461 C 0.2119 0.43795 0.73727 0.0
C462 C 0.20968 0.41286 0.7161 0.0
C463 C 0.18149 0.39347 0.71507 0.0
O464 O 0.15688 0.35882 0.6789 0.0
O465 O 0.17473 0.34174 0.69532 0.0
O466 O 0.18963 0.37786 0.7167 0.0
O467 O 0.17297 0.39539 0.69953 0.0
H468 H 0.15121 0.3489 0.72327 0.0
H469 H 0.12648 0.33491 0.74085 0.0
H470 H 0.10633 0.3091 0.69245 0.0
H471 H 0.13123 0.32277 0.67506 0.0
H472 H 0.21689 0.31718 0.63413 0.0
H473 H 0.20452 0.33493 0.65905 0.0
H474 H 0.23783 0.36608 0.60936 0.0
H475 H 0.22588 0.38369 0.63452 0.0
H476 H 0.23362 0.42927 0.71979 0.0
H477 H 0.18733 0.44306 0.75229 0.0
H478 H 0.17 0.41807 0.73887 0.0
H479 H 0.21607 0.40435 0.70617 0.0
C480 C 0.14555 0.33877 0.36298 0.0
C481 C 0.13984 0.3489 0.34792 0.0
C482 C 0.11689 0.32597 0.34088 0.0
C483 C 0.12563 0.34254 0.33694 0.0
C484 C 0.12265 0.31598 0.35606 0.0
C485 C 0.1368 0.32235 0.36701 0.0
U486 U 0.18522 0.37101 0.37349 0.0
O487 O 0.19524 0.38104 0.39978 0.0
O488 O 0.21289 0.36495 0.38251 0.0
C489 C 0.21087 0.37289 0.39822 0.0
C490 C 0.16098 0.34471 0.37424 0.0
C491 C 0.2171 0.36257 0.41412 0.0
C492 C 0.2191 0.33457 0.43137 0.0
C493 C 0.2116 0.34458 0.41708 0.0
C494 C 0.23712 0.36061 0.44023 0.0
C495 C 0.23225 0.34238 0.44282 0.0
C496 C 0.22964 0.37059 0.42598 0.0
C497 C 0.19588 0.41093 0.34206 0.0
C498 C 0.22106 0.4317 0.34758 0.0
C499 C 0.20459 0.43306 0.31919 0.0
C500 C 0.19327 0.41892 0.32503 0.0
C501 C 0.21879 0.43945 0.33027 0.0
C502 C 0.20973 0.4175 0.3534 0.0
C503 C 0.18458 0.39528 0.3474 0.0
O504 O 0.17702 0.3432 0.36675 0.0
O505 O 0.15898 0.36003 0.38285 0.0
O506 O 0.17547 0.39687 0.36256 0.0
O507 O 0.1924 0.37954 0.34582 0.0
H508 H 0.14651 0.36159 0.34455 0.0
H509 H 0.12156 0.3505 0.3253 0.0
H510 H 0.11659 0.30294 0.35918 0.0
H511 H 0.14114 0.31427 0.37848 0.0
H512 H 0.21513 0.32053 0.43304 0.0
H513 H 0.2019 0.33816 0.40807 0.0
H514 H 0.24698 0.36706 0.44903 0.0
H515 H 0.23398 0.38448 0.42395 0.0
H516 H 0.23167 0.43652 0.35655 0.0
H517 H 0.20259 0.43864 0.30574 0.0
H518 H 0.18269 0.41398 0.31608 0.0
H519 H 0.21194 0.41148 0.36662 0.0
C520 C 0.14173 0.69563 0.34257 0.0
C521 C 0.13538 0.70898 0.35428 0.0
C522 C 0.11299 0.71824 0.33174 0.0
C523 C 0.12108 0.72015 0.34894 0.0
C524 C 0.1192 0.70456 0.32028 0.0
C525 C 0.13342 0.6934 0.32564 0.0
U526 U 0.1826 0.68404 0.37262 0.0
O527 O 0.19288 0.65749 0.38119 0.0
O528 O 0.20993 0.6756 0.36471 0.0
C529 C 0.20812 0.65953 0.37219 0.0
C530 C 0.15734 0.68431 0.34741 0.0
C531 C 0.21361 0.6442 0.36089 0.0
C532 C 0.21027 0.62538 0.33415 0.0
C533 C 0.20413 0.63948 0.34506 0.0
C534 C 0.23523 0.62048 0.35488 0.0
C535 C 0.22593 0.61572 0.33892 0.0
C536 C 0.2291 0.63452 0.36575 0.0
C537 C 0.19311 0.71503 0.41357 0.0
C538 C 0.22114 0.71611 0.43103 0.0
C539 C 0.19613 0.73525 0.43922 0.0
C540 C 0.18581 0.72803 0.42505 0.0
C541 C 0.21399 0.72956 0.44226 0.0
C542 C 0.21078 0.7089 0.41678 0.0
C543 C 0.18239 0.70902 0.39778 0.0
O544 O 0.17333 0.69206 0.34542 0.0
O545 O 0.15591 0.67492 0.36252 0.0
O546 O 0.17372 0.69349 0.3994 0.0
O547 O 0.19013 0.71125 0.38191 0.0
H548 H 0.14162 0.71089 0.36744 0.0
H549 H 0.11642 0.73035 0.35821 0.0
H550 H 0.11339 0.70282 0.3069 0.0
H551 H 0.13817 0.6832 0.31639 0.0
H552 H 0.20286 0.62211 0.32189 0.0
H553 H 0.19217 0.64686 0.34104 0.0
H554 H 0.24762 0.61374 0.3587 0.0
H555 H 0.23669 0.63806 0.37783 0.0
H556 H 0.23497 0.71168 0.43283 0.0
H557 H 0.19025 0.74555 0.44765 0.0
H558 H 0.17221 0.73295 0.42278 0.0
H559 H 0.21669 0.69893 0.408 0.0
C560 C 0.83514 0.64396 0.36971 0.0
C561 C 0.83924 0.64212 0.35126 0.0
C562 C 0.82055 0.61476 0.34973 0.0
C563 C 0.83202 0.62763 0.34136 0.0
C564 C 0.81713 0.61627 0.36838 0.0
C565 C 0.82432 0.63076 0.37824 0.0
U566 U 0.8672 0.68445 0.3778 0.0
O567 O 0.86084 0.71219 0.38572 0.0
O568 O 0.87773 0.69549 0.40349 0.0
C569 C 0.86915 0.71082 0.40143 0.0
C570 C 0.84127 0.65988 0.38008 0.0
C571 C 0.85899 0.71729 0.41724 0.0
C572 C 0.831 0.72 0.43435 0.0
C573 C 0.84077 0.71235 0.42012 0.0
C574 C 0.85771 0.73706 0.44335 0.0
C575 C 0.83927 0.73276 0.44586 0.0
C576 C 0.86744 0.72942 0.42916 0.0
C577 C 0.90657 0.69317 0.34443 0.0
C578 C 0.92523 0.72048 0.3434 0.0
C579 C 0.93104 0.6961 0.3226 0.0
C580 C 0.91684 0.68604 0.3303 0.0
C581 C 0.93531 0.7135 0.32893 0.0
C582 C 0.91097 0.71038 0.3511 0.0
C583 C 0.89088 0.68275 0.35132 0.0
O584 O 0.85688 0.65843 0.38854 0.0
O585 O 0.83928 0.67558 0.37195 0.0
O586 O 0.87508 0.69062 0.34973 0.0
O587 O 0.89306 0.67457 0.36701 0.0
H588 H 0.84766 0.65211 0.34442 0.0
H589 H 0.83486 0.62684 0.32701 0.0
H590 H 0.80864 0.60639 0.37528 0.0
H591 H 0.82111 0.63187 0.3925 0.0
H592 H 0.81681 0.71646 0.43594 0.0
H593 H 0.834 0.70296 0.4111 0.0
H594 H 0.86453 0.74658 0.4522 0.0
H595 H 0.88151 0.73333 0.42723 0.0
H596 H 0.92795 0.73398 0.34833 0.0
H597 H 0.93856 0.69036 0.3115 0.0
H598 H 0.91363 0.67278 0.32497 0.0
H599 H 0.90313 0.71615 0.36195 0.0
C600 C 0.86345 0.40968 0.3394 0.0
C601 C 0.8459 0.41323 0.34564 0.0
C602 C 0.84355 0.43862 0.32456 0.0
C603 C 0.83604 0.42762 0.33831 0.0
C604 C 0.86138 0.4354 0.31888 0.0
C605 C 0.8712 0.42104 0.3262 0.0
U606 U 0.8712 0.36953 0.37186 0.0
O607 O 0.87865 0.34162 0.36537 0.0
O608 O 0.89681 0.3583 0.38205 0.0
C609 C 0.8945 0.34296 0.37344 0.0
C610 C 0.87352 0.39374 0.34571 0.0
C611 C 0.91008 0.33656 0.3629 0.0
C612 C 0.93377 0.34127 0.34043 0.0
C613 C 0.91935 0.34791 0.35066 0.0
C614 C 0.92983 0.31192 0.35461 0.0
C615 C 0.93917 0.32317 0.34227 0.0
C616 C 0.91549 0.31858 0.36484 0.0
C617 C 0.83839 0.3613 0.4118 0.0
C618 C 0.83449 0.33317 0.42867 0.0
C619 C 0.81901 0.36006 0.43836 0.0
C620 C 0.82691 0.36982 0.42409 0.0
C621 C 0.82238 0.34153 0.44058 0.0
C622 C 0.84241 0.34297 0.41436 0.0
C623 C 0.84515 0.37157 0.39597 0.0
O624 O 0.88214 0.39534 0.36122 0.0
O625 O 0.86501 0.37815 0.34402 0.0
O626 O 0.84317 0.36366 0.3802 0.0
O627 O 0.86097 0.37972 0.39786 0.0
H628 H 0.83968 0.40462 0.35585 0.0
H629 H 0.82232 0.42975 0.34292 0.0
H630 H 0.86764 0.44382 0.30855 0.0
H631 H 0.88476 0.41857 0.32128 0.0
H632 H 0.94064 0.35026 0.33099 0.0
H633 H 0.91532 0.36183 0.34888 0.0
H634 H 0.93323 0.2978 0.35598 0.0
H635 H 0.9084 0.30956 0.37411 0.0
H636 H 0.83731 0.31892 0.43003 0.0
H637 H 0.81001 0.36694 0.44752 0.0
H638 H 0.82372 0.38397 0.4224 0.0
H639 H 0.8513 0.33615 0.40505 0.0
C640 C 0.6944 0.14479 0.71912 0.0
C641 C 0.70918 0.13904 0.70881 0.0
C642 C 0.71626 0.11617 0.73167 0.0
C643 C 0.72004 0.12486 0.71505 0.0
C644 C 0.70136 0.12199 0.74184 0.0
C645 C 0.69052 0.1361 0.73559 0.0
U646 U 0.68374 0.18468 0.68739 0.0
O647 O 0.65733 0.19451 0.67759 0.0
O648 O 0.67489 0.21205 0.69404 0.0
C649 C 0.6591 0.21003 0.68597 0.0
C650 C 0.68323 0.16018 0.71334 0.0
C651 C 0.64324 0.21626 0.69619 0.0
C652 C 0.62595 0.21851 0.72408 0.0
C653 C 0.64016 0.21094 0.71422 0.0
C654 C 0.61742 0.23625 0.69782 0.0
C655 C 0.6147 0.23157 0.71609 0.0
C656 C 0.63157 0.22869 0.68799 0.0
C657 C 0.71501 0.19579 0.64731 0.0
C658 C 0.70966 0.22056 0.62623 0.0
C659 C 0.73802 0.20448 0.62534 0.0
C660 C 0.73208 0.19331 0.63952 0.0
C661 C 0.727 0.21841 0.61868 0.0
C662 C 0.70374 0.20939 0.64049 0.0
C663 C 0.70957 0.18452 0.66294 0.0
O664 O 0.69086 0.17619 0.71509 0.0
O665 O 0.67441 0.15829 0.69796 0.0
O666 O 0.69428 0.17538 0.66124 0.0
O667 O 0.71135 0.19225 0.67881 0.0
H668 H 0.71243 0.14566 0.69608 0.0
H669 H 0.73147 0.12076 0.70695 0.0
H670 H 0.69837 0.116 0.75492 0.0
H671 H 0.67928 0.14046 0.74382 0.0
H672 H 0.62418 0.21467 0.73815 0.0
H673 H 0.64903 0.20134 0.72079 0.0
H674 H 0.60879 0.24605 0.69123 0.0
H675 H 0.63368 0.23291 0.67407 0.0
H676 H 0.70073 0.23097 0.62121 0.0
H677 H 0.75148 0.20256 0.61994 0.0
H678 H 0.74098 0.18292 0.64464 0.0
H679 H 0.69049 0.21149 0.64633 0.0
C680 C 0.33614 0.19541 0.64831 0.0
C681 C 0.34809 0.20841 0.64098 0.0
C682 C 0.32439 0.21892 0.62051 0.0
C683 C 0.34228 0.22001 0.62712 0.0
C684 C 0.31262 0.20565 0.62773 0.0
C685 C 0.31844 0.19404 0.6415 0.0
U686 U 0.36791 0.1833 0.6875 0.0
O687 O 0.36153 0.17363 0.71494 0.0
O688 O 0.37747 0.1567 0.69681 0.0
C689 C 0.36912 0.15788 0.71244 0.0
C690 C 0.34165 0.18357 0.6634 0.0
C691 C 0.35828 0.142 0.71812 0.0
C692 C 0.32943 0.12592 0.72071 0.0
C693 C 0.33983 0.14026 0.71362 0.0
C694 C 0.35595 0.11461 0.73627 0.0
C695 C 0.33733 0.1131 0.73236 0.0
C696 C 0.36631 0.12891 0.72921 0.0
C697 C 0.40851 0.21436 0.69811 0.0
C698 C 0.42892 0.20944 0.72354 0.0
C699 C 0.43185 0.2366 0.70528 0.0
C700 C 0.41739 0.23079 0.69443 0.0
C701 C 0.43778 0.22603 0.71999 0.0
C702 C 0.4144 0.20364 0.71267 0.0
C703 C 0.39265 0.20914 0.68713 0.0
O704 O 0.35684 0.17477 0.66117 0.0
O705 O 0.34014 0.19058 0.67961 0.0
O706 O 0.37691 0.21059 0.69523 0.0
O707 O 0.39409 0.19417 0.67781 0.0
H708 H 0.36183 0.20967 0.64607 0.0
H709 H 0.35177 0.22987 0.62163 0.0
H710 H 0.29872 0.20456 0.62304 0.0
H711 H 0.30902 0.18413 0.64704 0.0
H712 H 0.31505 0.12533 0.71772 0.0
H713 H 0.33337 0.15026 0.70509 0.0
H714 H 0.36242 0.10492 0.74515 0.0
H715 H 0.38052 0.13003 0.73282 0.0
H716 H 0.43312 0.20106 0.73483 0.0
H717 H 0.43799 0.24968 0.70249 0.0
H718 H 0.4129 0.23932 0.68336 0.0
H719 H 0.40761 0.19094 0.71577 0.0
C720 C 0.33689 0.85917 0.64893 0.0
C721 C 0.3486 0.84739 0.64002 0.0
C722 C 0.32425 0.83841 0.61933 0.0
C723 C 0.34233 0.83711 0.62534 0.0
C724 C 0.31264 0.8503 0.62832 0.0
C725 C 0.31892 0.86059 0.64291 0.0
U726 U 0.36897 0.86875 0.68912 0.0
O727 O 0.37847 0.89478 0.70008 0.0
O728 O 0.36212 0.87644 0.71701 0.0
C729 C 0.36983 0.89245 0.71549 0.0
C730 C 0.34283 0.86969 0.66482 0.0
C731 C 0.35894 0.90775 0.72181 0.0
C732 C 0.33662 0.93121 0.71675 0.0
C733 C 0.34706 0.91697 0.7102 0.0
C734 C 0.34982 0.92715 0.74653 0.0
C735 C 0.33788 0.93648 0.73501 0.0
C736 C 0.36027 0.913 0.73996 0.0
C737 C 0.40964 0.83728 0.69769 0.0
C738 C 0.42649 0.83394 0.7259 0.0
C739 C 0.43629 0.81828 0.69905 0.0
C740 C 0.42201 0.82588 0.68922 0.0
C741 C 0.43845 0.82188 0.7176 0.0
C742 C 0.41216 0.84154 0.71604 0.0
C743 C 0.3937 0.84353 0.68739 0.0
O744 O 0.34127 0.86139 0.68052 0.0
O745 O 0.35814 0.87883 0.66318 0.0
O746 O 0.39532 0.85922 0.6791 0.0
O747 O 0.37793 0.84122 0.69536 0.0
H748 H 0.3625 0.84601 0.64452 0.0
H749 H 0.35159 0.82802 0.61877 0.0
H750 H 0.29851 0.85125 0.62445 0.0
H751 H 0.30963 0.86948 0.64971 0.0
H752 H 0.3275 0.93806 0.70755 0.0
H753 H 0.34575 0.91307 0.69614 0.0
H754 H 0.35074 0.93044 0.76076 0.0
H755 H 0.36924 0.90595 0.74917 0.0
H756 H 0.42781 0.83694 0.74018 0.0
H757 H 0.44546 0.80931 0.69221 0.0
H758 H 0.42035 0.82248 0.67506 0.0
H759 H 0.40279 0.85035 0.72283 0.0
C760 C 0.64496 0.83887 0.70028 0.0
C761 C 0.63891 0.84969 0.71452 0.0
C762 C 0.61639 0.82673 0.72286 0.0
C763 C 0.62469 0.8437 0.72568 0.0
C764 C 0.62226 0.81617 0.70829 0.0
C765 C 0.63642 0.82218 0.69714 0.0
U766 U 0.68486 0.87066 0.69001 0.0
O767 O 0.71275 0.86452 0.68188 0.0
O768 O 0.69556 0.88068 0.66392 0.0
C769 C 0.71111 0.87245 0.666 0.0
C770 C 0.66057 0.84442 0.68906 0.0
C771 C 0.71755 0.86202 0.65039 0.0
C772 C 0.71674 0.83524 0.63148 0.0
C773 C 0.70958 0.84539 0.64569 0.0
C774 C 0.73964 0.8584 0.62636 0.0
C775 C 0.73197 0.84158 0.62176 0.0
C776 C 0.73247 0.86853 0.64051 0.0
C777 C 0.69308 0.91065 0.72253 0.0
C778 C 0.72065 0.92891 0.72444 0.0
C779 C 0.69503 0.93569 0.74356 0.0
C780 C 0.68519 0.92147 0.73578 0.0
C781 C 0.713 0.93932 0.73826 0.0
C782 C 0.71078 0.91462 0.71666 0.0
C783 C 0.68295 0.89474 0.71591 0.0
O784 O 0.65886 0.85966 0.68001 0.0
O785 O 0.67648 0.84286 0.6969 0.0
O786 O 0.69116 0.8792 0.71777 0.0
O787 O 0.67466 0.89652 0.70024 0.0
H788 H 0.64534 0.86264 0.71714 0.0
H789 H 0.62029 0.85227 0.7366 0.0
H790 H 0.61625 0.803 0.70584 0.0
H791 H 0.64094 0.81363 0.68624 0.0
H792 H 0.71075 0.82217 0.6285 0.0
H793 H 0.6981 0.8401 0.65324 0.0
H794 H 0.75136 0.86364 0.61914 0.0
H795 H 0.73881 0.88132 0.64395 0.0
H796 H 0.73448 0.93139 0.72014 0.0
H797 H 0.6887 0.94368 0.75396 0.0
H798 H 0.67152 0.91864 0.74042 0.0
H799 H 0.71709 0.90641 0.70643 0.0
C800 C 0.6443 0.83699 0.36354 0.0
C801 C 0.63898 0.84735 0.3485 0.0
C802 C 0.61605 0.82467 0.34072 0.0
C803 C 0.62496 0.84123 0.33716 0.0
C804 C 0.62141 0.81445 0.3559 0.0
C805 C 0.63537 0.82059 0.36721 0.0
U806 U 0.68418 0.8686 0.37485 0.0
O807 O 0.69398 0.87819 0.40132 0.0
O808 O 0.71163 0.86193 0.38421 0.0
C809 C 0.70937 0.86953 0.40005 0.0
C810 C 0.65961 0.84262 0.37508 0.0
C811 C 0.71442 0.85833 0.41577 0.0
C812 C 0.7089 0.83286 0.43607 0.0
C813 C 0.70327 0.84403 0.42177 0.0
C814 C 0.73671 0.8504 0.43865 0.0
C815 C 0.72583 0.83576 0.44447 0.0
C816 C 0.73105 0.86155 0.42442 0.0
C817 C 0.69511 0.90866 0.34323 0.0
C818 C 0.721 0.92888 0.34735 0.0
C819 C 0.70202 0.93172 0.32068 0.0
C820 C 0.69111 0.91743 0.32687 0.0
C821 C 0.71712 0.93761 0.33082 0.0
C822 C 0.71005 0.91452 0.35353 0.0
C823 C 0.68398 0.89298 0.34883 0.0
O824 O 0.67572 0.84096 0.3678 0.0
O825 O 0.65767 0.85791 0.38377 0.0
O826 O 0.67489 0.89467 0.36399 0.0
O827 O 0.69183 0.87724 0.34735 0.0
H828 H 0.64582 0.86003 0.34541 0.0
H829 H 0.62119 0.84934 0.32553 0.0
H830 H 0.61521 0.80141 0.35873 0.0
H831 H 0.63943 0.81234 0.37866 0.0
H832 H 0.70009 0.82188 0.44044 0.0
H833 H 0.69035 0.84136 0.41524 0.0
H834 H 0.74987 0.8529 0.44473 0.0
H835 H 0.73986 0.8725 0.41993 0.0
H836 H 0.73258 0.93306 0.3554 0.0
H837 H 0.69896 0.93778 0.30766 0.0
H838 H 0.67973 0.91296 0.31867 0.0
H839 H 0.71339 0.90782 0.36617 0.0
C840 C 0.6421 0.19308 0.3413 0.0
C841 C 0.63446 0.20612 0.35257 0.0
C842 C 0.61312 0.21446 0.32866 0.0
C843 C 0.62009 0.21673 0.34629 0.0
C844 C 0.62084 0.20132 0.31751 0.0
C845 C 0.63513 0.19072 0.3238 0.0
U846 U 0.68231 0.18199 0.37295 0.0
O847 O 0.69173 0.15532 0.38226 0.0
O848 O 0.70952 0.17275 0.36578 0.0
C849 C 0.70713 0.15683 0.37345 0.0
C850 C 0.65755 0.18204 0.34723 0.0
C851 C 0.71248 0.14114 0.36257 0.0
C852 C 0.71557 0.12596 0.33363 0.0
C853 C 0.70862 0.14008 0.34397 0.0
C854 C 0.72963 0.11343 0.36051 0.0
C855 C 0.72644 0.11265 0.34175 0.0
C856 C 0.72271 0.12753 0.3708 0.0
C857 C 0.69393 0.21275 0.4135 0.0
C858 C 0.72317 0.21623 0.4286 0.0
C859 C 0.69647 0.22975 0.44147 0.0
C860 C 0.68593 0.22277 0.42731 0.0
C861 C 0.71526 0.22685 0.44213 0.0
C862 C 0.71259 0.20921 0.41442 0.0
C863 C 0.68277 0.20728 0.39777 0.0
O864 O 0.67364 0.18962 0.34542 0.0
O865 O 0.65561 0.17322 0.36263 0.0
O866 O 0.67339 0.19216 0.39947 0.0
O867 O 0.69042 0.20917 0.38181 0.0
H868 H 0.63972 0.20821 0.36611 0.0
H869 H 0.6145 0.2268 0.35517 0.0
H870 H 0.61622 0.19957 0.30369 0.0
H871 H 0.64094 0.18082 0.31485 0.0
H872 H 0.71314 0.12591 0.31916 0.0
H873 H 0.70075 0.15047 0.33734 0.0
H874 H 0.7379 0.10337 0.36715 0.0
H875 H 0.72582 0.12809 0.38513 0.0
H876 H 0.73765 0.21401 0.42853 0.0
H877 H 0.68997 0.23782 0.4517 0.0
H878 H 0.67157 0.22564 0.42688 0.0
H879 H 0.71906 0.20152 0.40389 0.0
C880 C 0.3347 0.14321 0.3654 0.0
C881 C 0.34573 0.13632 0.3517 0.0
C882 C 0.32247 0.1138 0.34425 0.0
C883 C 0.33966 0.12173 0.3412 0.0
C884 C 0.31157 0.12075 0.35809 0.0
C885 C 0.31766 0.13526 0.36858 0.0
U886 U 0.36589 0.18405 0.37537 0.0
O887 O 0.35847 0.21135 0.38391 0.0
O888 O 0.37526 0.19455 0.40166 0.0
C889 C 0.36627 0.20966 0.39983 0.0
C890 C 0.34033 0.15899 0.37617 0.0
C891 C 0.35518 0.21498 0.41541 0.0
C892 C 0.32883 0.21099 0.43485 0.0
C893 C 0.33966 0.20506 0.42054 0.0
C894 C 0.34907 0.23661 0.43912 0.0
C895 C 0.3334 0.22687 0.44428 0.0
C896 C 0.35986 0.23068 0.42488 0.0
C897 C 0.4062 0.19535 0.34425 0.0
C898 C 0.42586 0.22169 0.34809 0.0
C899 C 0.42989 0.20208 0.32234 0.0
C900 C 0.41556 0.1911 0.32841 0.0
C901 C 0.43522 0.21753 0.33209 0.0
C902 C 0.41148 0.21067 0.35415 0.0
C903 C 0.3906 0.18401 0.34979 0.0
O904 O 0.35575 0.15762 0.38501 0.0
O905 O 0.33837 0.17475 0.36817 0.0
O906 O 0.37463 0.19142 0.34782 0.0
O907 O 0.39234 0.17518 0.36519 0.0
H908 H 0.3589 0.14235 0.34899 0.0
H909 H 0.34833 0.11674 0.33059 0.0
H910 H 0.29807 0.11535 0.36046 0.0
H911 H 0.3089 0.14051 0.37899 0.0
H912 H 0.3168 0.20326 0.43844 0.0
H913 H 0.3358 0.19292 0.41331 0.0
H914 H 0.3527 0.24916 0.44572 0.0
H915 H 0.37169 0.23859 0.421 0.0
H916 H 0.42959 0.23353 0.35584 0.0
H917 H 0.43642 0.19877 0.30971 0.0
H918 H 0.41157 0.17943 0.32051 0.0
H919 H 0.40434 0.2142 0.36639 0.0
C920 C 0.36212 0.90716 0.33905 0.0
C921 C 0.34979 0.91554 0.35064 0.0
C922 C 0.34077 0.93611 0.32631 0.0
C923 C 0.33922 0.92989 0.34432 0.0
C924 C 0.35321 0.92766 0.31483 0.0
C925 C 0.3638 0.91339 0.32116 0.0
U926 U 0.37216 0.86734 0.37123 0.0
O927 O 0.38053 0.83977 0.3647 0.0
O928 O 0.39842 0.85713 0.38096 0.0
C929 C 0.39637 0.84158 0.37268 0.0
C930 C 0.37298 0.89162 0.34506 0.0
C931 C 0.41203 0.83519 0.36231 0.0
C932 C 0.43131 0.83598 0.33563 0.0
C933 C 0.41714 0.84323 0.34579 0.0
C934 C 0.43558 0.81287 0.35856 0.0
C935 C 0.44055 0.82059 0.34183 0.0
C936 C 0.42149 0.82013 0.3687 0.0
C937 C 0.34105 0.85677 0.41152 0.0
C938 C 0.34594 0.83145 0.43207 0.0
C939 C 0.31841 0.84877 0.43411 0.0
C940 C 0.32438 0.85988 0.4199 0.0
C941 C 0.32898 0.83425 0.44021 0.0
C942 C 0.3519 0.84258 0.41779 0.0
C943 C 0.34648 0.86796 0.39583 0.0
O944 O 0.38187 0.89349 0.36041 0.0
O945 O 0.36505 0.87572 0.34347 0.0
O946 O 0.34449 0.86024 0.37998 0.0
O947 O 0.36189 0.87693 0.3974 0.0
H948 H 0.34821 0.91087 0.36448 0.0
H949 H 0.32971 0.93605 0.35349 0.0
H950 H 0.35438 0.93169 0.30076 0.0
H951 H 0.37312 0.90699 0.31196 0.0
H952 H 0.4346 0.84202 0.32264 0.0
H953 H 0.4099 0.85481 0.3406 0.0
H954 H 0.44245 0.80104 0.36367 0.0
H955 H 0.41772 0.81374 0.3814 0.0
H956 H 0.35454 0.82058 0.43664 0.0
H957 H 0.30523 0.8512 0.43998 0.0
H958 H 0.3158 0.87073 0.41521 0.0
H959 H 0.36484 0.83998 0.41148 0.0
C960 C 0.69612 0.6421 0.21893 0.0
C961 C 0.71507 0.64193 0.21703 0.0
C962 C 0.7165 0.61361 0.234 0.0
C963 C 0.72518 0.62778 0.22449 0.0
C964 C 0.69747 0.61338 0.23499 0.0
C965 C 0.6874 0.62752 0.22759 0.0
U966 U 0.68582 0.68297 0.18798 0.0
O967 O 0.65941 0.69333 0.17893 0.0
O968 O 0.6773 0.71023 0.19566 0.0
C969 C 0.66129 0.70845 0.18801 0.0
C970 C 0.6853 0.65781 0.21324 0.0
C971 C 0.64578 0.71377 0.19926 0.0
C972 C 0.62409 0.70789 0.22345 0.0
C973 C 0.63832 0.70212 0.21243 0.0
C974 C 0.62452 0.7369 0.20813 0.0
C975 C 0.61718 0.72546 0.22158 0.0
C976 C 0.63867 0.73111 0.19711 0.0
C977 C 0.71732 0.69426 0.14771 0.0
C978 C 0.71134 0.71597 0.1236 0.0
C979 C 0.74174 0.70483 0.12814 0.0
C980 C 0.73557 0.69406 0.14253 0.0
C981 C 0.72976 0.71607 0.11861 0.0
C982 C 0.70518 0.70522 0.13809 0.0
C983 C 0.71143 0.68308 0.16328 0.0
O984 O 0.69302 0.67374 0.21535 0.0
O985 O 0.67635 0.6563 0.1979 0.0
O986 O 0.69597 0.67423 0.1615 0.0
O987 O 0.71343 0.69053 0.17927 0.0
H988 H 0.72211 0.653 0.2103 0.0
H989 H 0.73982 0.62832 0.22352 0.0
H990 H 0.69039 0.60247 0.24192 0.0
H991 H 0.6728 0.62732 0.2291 0.0
H992 H 0.61854 0.69864 0.23347 0.0
H993 H 0.64363 0.68866 0.21428 0.0
H994 H 0.61965 0.75054 0.20643 0.0
H995 H 0.64427 0.74032 0.18707 0.0
H996 H 0.70169 0.72423 0.11633 0.0
H997 H 0.75601 0.7047 0.12476 0.0
H998 H 0.74515 0.6857 0.14979 0.0
H999 H 0.69101 0.70555 0.14184 0.0
C1000 C 0.33707 0.69324 0.14868 0.0
C1001 C 0.34779 0.70708 0.14101 0.0
C1002 C 0.32342 0.71447 0.11992 0.0
C1003 C 0.34101 0.7176 0.12675 0.0
C1004 C 0.31284 0.70048 0.1276 0.0
C1005 C 0.31964 0.68994 0.1418 0.0
U1006 U 0.37068 0.68502 0.18731 0.0
O1007 O 0.36558 0.67733 0.21565 0.0
O1008 O 0.38138 0.65954 0.1983 0.0
C1009 C 0.37352 0.66164 0.21408 0.0
C1010 C 0.3435 0.68268 0.16433 0.0
C1011 C 0.3631 0.646 0.22102 0.0
C1012 C 0.3359 0.62711 0.22136 0.0
C1013 C 0.34609 0.64134 0.21377 0.0
C1014 C 0.35981 0.62185 0.24325 0.0
C1015 C 0.3426 0.6173 0.23629 0.0
C1016 C 0.36997 0.63605 0.23566 0.0
C1017 C 0.41065 0.71817 0.19367 0.0
C1018 C 0.42935 0.71954 0.2208 0.0
C1019 C 0.43578 0.7396 0.19552 0.0
C1020 C 0.42136 0.73187 0.18585 0.0
C1021 C 0.43968 0.73379 0.21325 0.0
C1022 C 0.41491 0.71181 0.2111 0.0
C1023 C 0.39457 0.71144 0.18386 0.0
O1024 O 0.35888 0.67418 0.16215 0.0
O1025 O 0.34241 0.69084 0.18002 0.0
O1026 O 0.37909 0.71308 0.19241 0.0
O1027 O 0.3962 0.69578 0.1758 0.0
H1028 H 0.36126 0.70989 0.14624 0.0
H1029 H 0.34946 0.72833 0.12117 0.0
H1030 H 0.29907 0.69804 0.12305 0.0
H1031 H 0.31112 0.67944 0.14768 0.0
H1032 H 0.32254 0.6242 0.21594 0.0
H1033 H 0.34053 0.64896 0.20252 0.0
H1034 H 0.36532 0.61454 0.25472 0.0
H1035 H 0.38307 0.63947 0.24144 0.0
H1036 H 0.43202 0.71483 0.23446 0.0
H1037 H 0.4437 0.75033 0.18925 0.0
H1038 H 0.41831 0.73689 0.17238 0.0
H1039 H 0.40678 0.70121 0.21735 0.0
C1040 C 0.33746 0.35918 0.14765 0.0
C1041 C 0.3492 0.34609 0.14086 0.0
C1042 C 0.32604 0.33623 0.11928 0.0
C1043 C 0.34356 0.33476 0.12673 0.0
C1044 C 0.31451 0.34961 0.12596 0.0
C1045 C 0.32017 0.36094 0.14001 0.0
U1046 U 0.36822 0.37107 0.18796 0.0
O1047 O 0.37739 0.39766 0.19784 0.0
O1048 O 0.36077 0.38005 0.21527 0.0
C1049 C 0.3684 0.39604 0.21312 0.0
C1050 C 0.34269 0.37071 0.16304 0.0
C1051 C 0.35719 0.41153 0.2183 0.0
C1052 C 0.33304 0.43288 0.21221 0.0
C1053 C 0.34396 0.41859 0.20661 0.0
C1054 C 0.34859 0.4333 0.24112 0.0
C1055 C 0.33507 0.44026 0.22965 0.0
C1056 C 0.3595 0.41909 0.2355 0.0
C1057 C 0.40865 0.33948 0.19826 0.0
C1058 C 0.42629 0.33809 0.22613 0.0
C1059 C 0.43391 0.31886 0.20096 0.0
C1060 C 0.41982 0.32632 0.19079 0.0
C1061 C 0.43719 0.32448 0.21882 0.0
C1062 C 0.41211 0.34554 0.21593 0.0
C1063 C 0.39286 0.34568 0.18773 0.0
O1064 O 0.34073 0.36326 0.17912 0.0
O1065 O 0.35796 0.37989 0.16134 0.0
O1066 O 0.39474 0.36107 0.17893 0.0
O1067 O 0.37702 0.34384 0.19567 0.0
H1068 H 0.36263 0.34453 0.14659 0.0
H1069 H 0.35288 0.3248 0.12169 0.0
H1070 H 0.3009 0.351 0.12064 0.0
H1071 H 0.3109 0.37092 0.14511 0.0
H1072 H 0.32297 0.43811 0.20293 0.0
H1073 H 0.34198 0.41295 0.19325 0.0
H1074 H 0.35041 0.43854 0.25467 0.0
H1075 H 0.3696 0.41382 0.24473 0.0
H1076 H 0.42827 0.34247 0.23996 0.0
H1077 H 0.44208 0.30844 0.19496 0.0
H1078 H 0.41734 0.32145 0.17719 0.0
H1079 H 0.40357 0.35563 0.22197 0.0
C1080 C 0.64291 0.33942 0.20162 0.0
C1081 C 0.63636 0.35075 0.21521 0.0
C1082 C 0.61419 0.32769 0.22423 0.0
C1083 C 0.62206 0.34497 0.22638 0.0
C1084 C 0.62057 0.31661 0.2103 0.0
C1085 C 0.6348 0.32241 0.19913 0.0
U1086 U 0.68337 0.37059 0.19152 0.0
O1087 O 0.71123 0.36389 0.18366 0.0
O1088 O 0.69448 0.38035 0.16555 0.0
C1089 C 0.70985 0.37179 0.16775 0.0
C1090 C 0.65866 0.34475 0.19048 0.0
C1091 C 0.71616 0.36116 0.15223 0.0
C1092 C 0.71157 0.33799 0.12942 0.0
C1093 C 0.70493 0.34831 0.14375 0.0
C1094 C 0.74064 0.35331 0.13189 0.0
C1095 C 0.72953 0.34034 0.12334 0.0
C1096 C 0.734 0.36363 0.14613 0.0
C1097 C 0.69241 0.41045 0.22382 0.0
C1098 C 0.72025 0.42835 0.22484 0.0
C1099 C 0.69559 0.43508 0.2452 0.0
C1100 C 0.68524 0.42111 0.2376 0.0
C1101 C 0.71335 0.4386 0.23917 0.0
C1102 C 0.70987 0.41432 0.21725 0.0
C1103 C 0.68182 0.39479 0.21734 0.0
O1104 O 0.65724 0.36 0.1814 0.0
O1105 O 0.67449 0.34294 0.19841 0.0
O1106 O 0.68962 0.37905 0.21931 0.0
O1107 O 0.67364 0.39668 0.20162 0.0
H1108 H 0.64246 0.36395 0.21734 0.0
H1109 H 0.61726 0.35395 0.23678 0.0
H1110 H 0.61491 0.30319 0.20838 0.0
H1111 H 0.63972 0.31346 0.18875 0.0
H1112 H 0.7027 0.32806 0.12318 0.0
H1113 H 0.69114 0.34613 0.14833 0.0
H1114 H 0.75468 0.35511 0.12795 0.0
H1115 H 0.74292 0.37337 0.15262 0.0
H1116 H 0.73391 0.43075 0.21997 0.0
H1117 H 0.68983 0.44295 0.25601 0.0
H1118 H 0.67176 0.41836 0.24279 0.0
H1119 H 0.71562 0.40621 0.2066 0.0
C1120 C 0.64251 0.33448 0.86646 0.0
C1121 C 0.63324 0.34644 0.85499 0.0
C1122 C 0.61452 0.32161 0.84361 0.0
C1123 C 0.61928 0.34008 0.84376 0.0
C1124 C 0.62359 0.3098 0.85544 0.0
C1125 C 0.63746 0.31619 0.86674 0.0
U1126 U 0.68203 0.36699 0.87631 0.0
O1127 O 0.69228 0.3774 0.9023 0.0
O1128 O 0.70979 0.36098 0.88523 0.0
C1129 C 0.70773 0.36887 0.90095 0.0
C1130 C 0.65792 0.34062 0.87766 0.0
C1131 C 0.71315 0.358 0.91678 0.0
C1132 C 0.70761 0.33348 0.93823 0.0
C1133 C 0.70173 0.34439 0.92384 0.0
C1134 C 0.73623 0.34986 0.93879 0.0
C1135 C 0.72506 0.33591 0.94566 0.0
C1136 C 0.73032 0.36078 0.92448 0.0
C1137 C 0.69151 0.40631 0.84316 0.0
C1138 C 0.71503 0.4292 0.84739 0.0
C1139 C 0.69962 0.42672 0.8185 0.0
C1140 C 0.68908 0.41243 0.82533 0.0
C1141 C 0.71276 0.43527 0.82942 0.0
C1142 C 0.7045 0.41482 0.85421 0.0
C1143 C 0.68085 0.39061 0.8496 0.0
O1144 O 0.67393 0.339 0.87016 0.0
O1145 O 0.65595 0.35605 0.8861 0.0
O1146 O 0.67209 0.39259 0.86492 0.0
O1147 O 0.68895 0.37497 0.8484 0.0
H1148 H 0.63695 0.36064 0.85456 0.0
H1149 H 0.61232 0.34957 0.83505 0.0
H1150 H 0.62034 0.2955 0.85556 0.0
H1151 H 0.6445 0.30675 0.87546 0.0
H1152 H 0.69858 0.32305 0.94342 0.0
H1153 H 0.6884 0.34205 0.91806 0.0
H1154 H 0.74978 0.35198 0.94412 0.0
H1155 H 0.73934 0.37118 0.91916 0.0
H1156 H 0.72509 0.43546 0.85611 0.0
H1157 H 0.69788 0.43067 0.80446 0.0
H1158 H 0.67924 0.4059 0.81655 0.0
H1159 H 0.70665 0.4102 0.86799 0.0
C1160 C 0.64304 0.69031 0.84018 0.0
C1161 C 0.63918 0.70735 0.84732 0.0
C1162 C 0.61444 0.71098 0.82559 0.0
C1163 C 0.62499 0.71761 0.84008 0.0
C1164 C 0.61817 0.69374 0.81879 0.0
C1165 C 0.6323 0.68352 0.82604 0.0
U1166 U 0.68306 0.68136 0.87262 0.0
O1167 O 0.69315 0.6554 0.88317 0.0
O1168 O 0.71066 0.67263 0.86623 0.0
C1169 C 0.70869 0.65703 0.87463 0.0
C1170 C 0.65865 0.67976 0.8466 0.0
C1171 C 0.71482 0.64104 0.86463 0.0
C1172 C 0.71652 0.62323 0.83711 0.0
C1173 C 0.70926 0.6377 0.84675 0.0
C1174 C 0.73455 0.61502 0.86328 0.0
C1175 C 0.72943 0.61185 0.84521 0.0
C1176 C 0.72729 0.62944 0.87288 0.0
C1177 C 0.69273 0.71421 0.91205 0.0
C1178 C 0.72115 0.71756 0.92861 0.0
C1179 C 0.6946 0.73367 0.9384 0.0
C1180 C 0.68453 0.72593 0.9243 0.0
C1181 C 0.71313 0.72991 0.94047 0.0
C1182 C 0.71104 0.70979 0.91448 0.0
C1183 C 0.68216 0.70766 0.89635 0.0
O1184 O 0.67461 0.68762 0.84472 0.0
O1185 O 0.65672 0.67144 0.86226 0.0
O1186 O 0.67331 0.69229 0.89851 0.0
O1187 O 0.69017 0.7091 0.88052 0.0
H1188 H 0.64738 0.71287 0.85819 0.0
H1189 H 0.62271 0.73098 0.84538 0.0
H1190 H 0.61029 0.68827 0.80767 0.0
H1191 H 0.63508 0.6704 0.82034 0.0
H1192 H 0.71255 0.62137 0.82311 0.0
H1193 H 0.69968 0.64655 0.84011 0.0
H1194 H 0.74442 0.6065 0.86989 0.0
H1195 H 0.73176 0.6318 0.88666 0.0
H1196 H 0.7354 0.71442 0.92986 0.0
H1197 H 0.68797 0.74287 0.94751 0.0
H1198 H 0.6704 0.72943 0.92272 0.0
H1199 H 0.71762 0.70072 0.9052 0.0
C1200 C 0.33613 0.64428 0.86594 0.0
C1201 C 0.34189 0.64152 0.84808 0.0
C1202 C 0.3217 0.61529 0.84555 0.0
C1203 C 0.33472 0.62714 0.83795 0.0
C1204 C 0.3164 0.61786 0.86361 0.0
C1205 C 0.32356 0.63219 0.87369 0.0
U1206 U 0.36788 0.68503 0.87524 0.0
O1207 O 0.36071 0.71255 0.88339 0.0
O1208 O 0.37734 0.69582 0.90137 0.0
C1209 C 0.36848 0.71099 0.89934 0.0
C1210 C 0.34214 0.66016 0.8764 0.0
C1211 C 0.35742 0.71668 0.91482 0.0
C1212 C 0.33363 0.71114 0.93698 0.0
C1213 C 0.34455 0.70505 0.92282 0.0
C1214 C 0.34851 0.74043 0.93538 0.0
C1215 C 0.33529 0.72901 0.94323 0.0
C1216 C 0.35944 0.73432 0.92132 0.0
C1217 C 0.40821 0.69572 0.84402 0.0
C1218 C 0.42808 0.72192 0.84769 0.0
C1219 C 0.43192 0.70214 0.82206 0.0
C1220 C 0.41752 0.6913 0.82819 0.0
C1221 C 0.4374 0.71758 0.83172 0.0
C1222 C 0.41362 0.71105 0.85382 0.0
C1223 C 0.39256 0.6845 0.84965 0.0
O1224 O 0.35757 0.6587 0.88519 0.0
O1225 O 0.34031 0.67587 0.86826 0.0
O1226 O 0.37662 0.69198 0.84758 0.0
O1227 O 0.39425 0.67585 0.86515 0.0
H1228 H 0.35154 0.65075 0.84182 0.0
H1229 H 0.33882 0.62574 0.82398 0.0
H1230 H 0.30644 0.60894 0.86984 0.0
H1231 H 0.31895 0.6341 0.88745 0.0
H1232 H 0.32381 0.7019 0.94295 0.0
H1233 H 0.34281 0.69136 0.91799 0.0
H1234 H 0.35004 0.75429 0.93977 0.0
H1235 H 0.36928 0.74351 0.91528 0.0
H1236 H 0.43191 0.73378 0.85537 0.0
H1237 H 0.43842 0.6987 0.80944 0.0
H1238 H 0.41343 0.67962 0.82036 0.0
H1239 H 0.40651 0.71471 0.86605 0.0
C1240 C 0.36002 0.40955 0.83938 0.0
C1241 C 0.3497 0.41935 0.85177 0.0
C1242 C 0.33839 0.43853 0.8273 0.0
C1243 C 0.33906 0.43378 0.8458 0.0
C1244 C 0.34906 0.42887 0.81505 0.0
C1245 C 0.35974 0.41453 0.82104 0.0
U1246 U 0.37049 0.36939 0.87104 0.0
O1247 O 0.37861 0.34186 0.86387 0.0
O1248 O 0.39691 0.35897 0.87995 0.0
C1249 C 0.39476 0.34369 0.87121 0.0
C1250 C 0.37087 0.39388 0.84508 0.0
C1251 C 0.41003 0.33813 0.85978 0.0
C1252 C 0.43117 0.34356 0.83502 0.0
C1253 C 0.41711 0.3495 0.84617 0.0
C1254 C 0.43132 0.31497 0.85112 0.0
C1255 C 0.43828 0.32611 0.83722 0.0
C1256 C 0.41734 0.32092 0.86225 0.0
C1257 C 0.33936 0.35969 0.91221 0.0
C1258 C 0.33429 0.33106 0.92792 0.0
C1259 C 0.32235 0.3586 0.94038 0.0
C1260 C 0.32988 0.36845 0.92596 0.0
C1261 C 0.32408 0.33973 0.94129 0.0
C1262 C 0.34184 0.34095 0.91347 0.0
C1263 C 0.34536 0.37024 0.89621 0.0
O1264 O 0.38014 0.39555 0.86022 0.0
O1265 O 0.36277 0.37807 0.84353 0.0
O1266 O 0.34303 0.36246 0.88042 0.0
O1267 O 0.36097 0.37888 0.89761 0.0
H1268 H 0.34974 0.41575 0.86601 0.0
H1269 H 0.33125 0.44115 0.85563 0.0
H1270 H 0.34875 0.43207 0.80072 0.0
H1271 H 0.36759 0.40713 0.81126 0.0
H1272 H 0.43643 0.35258 0.82465 0.0
H1273 H 0.41166 0.36286 0.84407 0.0
H1274 H 0.43636 0.30142 0.85307 0.0
H1275 H 0.41202 0.31194 0.87265 0.0
H1276 H 0.33583 0.31654 0.92826 0.0
H1277 H 0.31486 0.3657 0.95065 0.0
H1278 H 0.32788 0.38291 0.9253 0.0
H1279 H 0.34917 0.3339 0.90303 0.0
H1280 H 0.27227 0.28187 0.96706 0.0
H1281 H 0.29448 0.30108 1.01666 0.0
H1282 H 0.25699 0.2552 1.01613 0.0
H1283 H 0.25379 0.25804 0.04411 0.0
H1284 H 0.2771 0.27617 0.09367 0.0
H1285 H 0.29945 0.29584 0.0441 0.0
C1286 C 0.27333 0.28069 0.98168 0.0
C1287 C 0.26315 0.2675 0.9908 0.0
C1288 C 0.28485 0.29241 0.99106 0.0
C1289 C 0.28602 0.29116 1.01002 0.0
C1290 C 0.27595 0.27788 1.01993 0.0
C1291 C 0.26482 0.26581 1.00972 0.0
C1292 C 0.27656 0.27704 0.04058 0.0
C1293 C 0.26413 0.26608 0.05065 0.0
C1294 C 0.26439 0.26568 0.0697 0.0
C1295 C 0.27703 0.27634 0.07899 0.0
C1296 C 0.28946 0.28731 0.06971 0.0
C1297 C 0.28932 0.28751 0.05066 0.0
H1298 H 0.77517 0.2778 0.09825 0.0
H1299 H 0.79206 0.25426 0.04859 0.0
H1300 H 0.75908 0.30241 0.04837 0.0
H1301 H 0.7523 0.29594 1.02113 0.0
H1302 H 0.77593 0.27862 0.97165 0.0
H1303 H 0.79927 0.26107 1.02157 0.0
C1304 C 0.77528 0.27796 0.08356 0.0
C1305 C 0.76557 0.29119 0.07422 0.0
C1306 C 0.78512 0.26493 0.07433 0.0
C1307 C 0.78486 0.26489 0.05529 0.0
C1308 C 0.7756 0.27836 0.04524 0.0
C1309 C 0.76616 0.29165 0.05517 0.0
C1310 C 0.77576 0.2785 1.02466 0.0
C1311 C 0.76287 0.28851 1.01455 0.0
C1312 C 0.76305 0.28874 0.99551 0.0
C1313 C 0.77591 0.27861 0.98634 0.0
C1314 C 0.7887 0.26841 0.99575 0.0
C1315 C 0.78876 0.26856 1.01479 0.0
H1316 H 0.77461 0.77854 0.96515 0.0
H1317 H 0.7518 0.76045 1.0152 0.0
H1318 H 0.80108 0.79311 1.01467 0.0
H1319 H 0.79302 0.8017 0.04129 0.0
H1320 H 0.77459 0.77948 0.09154 0.0
H1321 H 0.75971 0.75289 0.04241 0.0
C1322 C 0.77537 0.77786 0.97981 0.0
C1323 C 0.78909 0.78736 0.98893 0.0
C1324 C 0.76227 0.76786 0.98928 0.0
C1325 C 0.76269 0.76751 1.00831 0.0
C1326 C 0.77648 0.77682 1.01811 0.0
C1327 C 0.78987 0.78638 1.00798 0.0
C1328 C 0.77646 0.77716 0.03866 0.0
C1329 C 0.78576 0.79101 0.0483 0.0
C1330 C 0.78528 0.79169 0.06732 0.0
C1331 C 0.77497 0.77891 0.07687 0.0
C1332 C 0.76536 0.76527 0.06789 0.0
C1333 C 0.76663 0.76403 0.04892 0.0
H1334 H 0.27513 0.77567 0.09531 0.0
H1335 H 0.29381 0.75402 0.04555 0.0
H1336 H 0.25736 0.79972 0.04591 0.0
H1337 H 0.25297 0.7959 1.01816 0.0
H1338 H 0.27485 0.77721 0.96851 0.0
H1339 H 0.29772 0.75814 1.0179 0.0
C1340 C 0.27522 0.77597 0.08062 0.0
C1341 C 0.26458 0.78852 0.07142 0.0
C1342 C 0.28593 0.76376 0.07126 0.0
C1343 C 0.28574 0.76397 0.05221 0.0
C1344 C 0.27548 0.77682 0.04223 0.0
C1345 C 0.26518 0.78932 0.05239 0.0
C1346 C 0.27537 0.777 1.02157 0.0
C1347 C 0.26289 0.78768 1.01157 0.0
C1348 C 0.26267 0.78774 0.99253 0.0
C1349 C 0.27469 0.77682 0.98319 0.0
C1350 C 0.28686 0.76576 0.99241 0.0
C1351 C 0.28756 0.76629 1.01143 0.0
H1352 H 0.09116 0.27505 0.282 0.0
H1353 H 0.04072 0.25314 0.26325 0.0
H1354 H 0.04195 0.29945 0.29888 0.0
H1355 H 1.0144 0.29266 0.30517 0.0
H1356 H 0.96466 0.27951 0.27826 0.0
H1357 H 1.0144 0.26218 0.25516 0.0
C1358 C 0.07647 0.27537 0.28175 0.0
C1359 C 0.06746 0.28798 0.29237 0.0
C1360 C 0.06688 0.26324 0.27075 0.0
C1361 C 0.04779 0.2634 0.27092 0.0
C1362 C 0.03814 0.27639 0.281 0.0
C1363 C 0.04843 0.2888 0.29151 0.0
C1364 C 1.01759 0.27714 0.28039 0.0
C1365 C 1.00763 0.28635 0.29386 0.0
C1366 C 0.98863 0.28773 0.29282 0.0
C1367 C 0.97934 0.27906 0.27875 0.0
C1368 C 0.98861 0.26945 0.26554 0.0
C1369 C 1.00763 0.26885 0.26616 0.0
H1370 H 0.77583 0.96349 0.27955 0.0
H1371 H 0.79515 1.01365 0.25781 0.0
H1372 H 0.75939 1.01237 0.30442 0.0
H1373 H 0.75469 0.0401 0.29973 0.0
H1374 H 0.78259 0.08933 0.28707 0.0
H1375 H 0.80257 0.0402 0.2655 0.0
C1376 C 0.7762 0.97811 0.27994 0.0
C1377 C 0.76568 0.98708 0.29269 0.0
C1378 C 0.78729 0.98768 0.2678 0.0
C1379 C 0.78732 1.00668 0.26808 0.0
C1380 C 0.77734 1.01632 0.28122 0.0
C1381 C 0.76671 1.00602 0.29362 0.0
C1382 C 0.77836 0.03681 0.28229 0.0
C1383 C 0.76583 0.0467 0.29282 0.0
C1384 C 0.76774 0.06547 0.29503 0.0
C1385 C 0.78143 0.07478 0.28573 0.0
C1386 C 0.79354 0.06569 0.27464 0.0
C1387 C 0.79226 0.0468 0.27327 0.0
H1388 H 0.08743 0.77623 0.28176 0.0
H1389 H 0.03742 0.75897 0.30558 0.0
H1390 H 0.03781 0.7938 0.25802 0.0
H1391 H 1.01062 0.80049 0.26491 0.0
H1392 H 0.96072 0.77475 0.27992 0.0
H1393 H 1.01038 0.75158 0.29775 0.0
C1394 C 0.07273 0.77662 0.28205 0.0
C1395 C 0.06357 0.78678 0.26899 0.0
C1396 C 0.06332 0.76639 0.295 0.0
C1397 C 0.04425 0.76649 0.295 0.0
C1398 C 0.03437 0.77637 0.28175 0.0
C1399 C 0.04449 0.78633 0.26865 0.0
C1400 C 1.01377 0.77614 0.28149 0.0
C1401 C 1.00385 0.78944 0.27182 0.0
C1402 C 0.98478 0.78891 0.27111 0.0
C1403 C 0.9754 0.77529 0.28052 0.0
C1404 C 0.98463 0.7622 0.2905 0.0
C1405 C 1.0037 0.76247 0.29072 0.0
H1406 H 0.27375 0.08741 0.28424 0.0
H1407 H 0.25708 0.03792 0.25975 0.0
H1408 H 0.2953 0.03805 0.30467 0.0
H1409 H 0.30152 1.01109 0.29758 0.0
H1410 H 0.27586 0.96126 0.28295 0.0
H1411 H 0.25118 1.01061 0.26689 0.0
C1412 C 0.27467 0.07282 0.28352 0.0
C1413 C 0.28634 0.0637 0.29527 0.0
C1414 C 0.26387 0.06348 0.27109 0.0
C1415 C 0.26513 0.04459 0.26999 0.0
C1416 C 0.27626 0.03468 0.28218 0.0
C1417 C 0.28676 0.04471 0.29488 0.0
C1418 C 0.27647 1.01414 0.28204 0.0
C1419 C 0.29034 1.00428 0.29099 0.0
C1420 C 0.28986 0.98526 0.29182 0.0
C1421 C 0.27597 0.97591 0.28285 0.0
C1422 C 0.26239 0.98507 0.27347 0.0
C1423 C 0.26247 1.00405 0.27338 0.0
H1424 H 0.09091 0.77754 0.77545 0.0
H1425 H 0.04069 0.75976 0.75258 0.0
H1426 H 0.04182 0.79093 0.80225 0.0
H1427 H 1.01406 0.79629 0.79784 0.0
H1428 H 0.96424 0.77232 0.7805 0.0
H1429 H 1.01378 0.75215 0.75935 0.0
C1430 C 0.07621 0.77711 0.77588 0.0
C1431 C 0.06718 0.78609 0.78968 0.0
C1432 C 0.06667 0.76726 0.76284 0.0
C1433 C 0.0476 0.76665 0.76346 0.0
C1434 C 0.03789 0.77518 0.77758 0.0
C1435 C 0.0482 0.78457 0.79088 0.0
C1436 C 1.01728 0.7744 0.77838 0.0
C1437 C 1.00736 0.78615 0.78972 0.0
C1438 C 0.98838 0.78488 0.79098 0.0
C1439 C 0.97893 0.77269 0.78001 0.0
C1440 C 0.98807 0.76139 0.76812 0.0
C1441 C 1.00715 0.76187 0.7678 0.0
H1442 H 0.27264 0.96182 0.77724 0.0
H1443 H 0.30072 1.01134 0.76556 0.0
H1444 H 0.25025 1.01124 0.79567 0.0
H1445 H 0.25913 0.03694 0.80601 0.0
H1446 H 0.28144 0.08727 0.78766 0.0
H1447 H 0.29525 0.03913 0.75966 0.0
C1448 C 0.27338 0.97643 0.77797 0.0
C1449 C 0.26011 0.98563 0.78756 0.0
C1450 C 0.28782 0.98569 0.76973 0.0
C1451 C 0.28914 1.00458 0.77154 0.0
C1452 C 0.27571 1.01445 0.7809 0.0
C1453 C 0.26114 1.00453 0.78879 0.0
C1454 C 0.27694 0.03485 0.78252 0.0
C1455 C 0.26734 0.04414 0.79619 0.0
C1456 C 0.26867 0.06303 0.79784 0.0
C1457 C 0.28021 0.07273 0.78628 0.0
C1458 C 0.29 0.06407 0.77279 0.0
C1459 C 0.28796 0.04531 0.7706 0.0
H1460 H 0.0894 0.26791 0.77642 0.0
H1461 H 0.04007 0.25382 0.80317 0.0
H1462 H 0.04061 0.292 0.75802 0.0
H1463 H 1.0134 0.29715 0.76263 0.0
H1464 H 0.96306 0.27668 0.7826 0.0
H1465 H 1.01182 0.25299 0.80178 0.0
C1466 C 0.07484 0.2694 0.77769 0.0
C1467 C 0.0658 0.28127 0.76617 0.0
C1468 C 0.06547 0.25939 0.7908 0.0
C1469 C 0.04665 0.26165 0.79269 0.0
C1470 C 0.03678 0.27334 0.78095 0.0
C1471 C 0.04695 0.28316 0.76772 0.0
C1472 C 1.01616 0.27472 0.78191 0.0
C1473 C 1.0065 0.28738 0.77107 0.0
C1474 C 0.98742 0.28788 0.77099 0.0
C1475 C 0.97774 0.27622 0.78244 0.0
C1476 C 0.98663 0.26385 0.79359 0.0
C1477 C 1.00566 0.26308 0.79327 0.0
H1478 H 0.77525 0.0916 0.78246 0.0
H1479 H 0.75774 0.04155 0.75934 0.0
H1480 H 0.79378 0.04217 0.8058 0.0
H1481 H 0.80218 1.01581 0.79657 0.0
H1482 H 0.77667 0.96552 0.78332 0.0
H1483 H 0.75023 1.0146 0.7687 0.0
C1484 C 0.7754 0.07697 0.78248 0.0
C1485 C 0.78635 0.06789 0.795 0.0
C1486 C 0.76465 0.06752 0.77 0.0
C1487 C 0.76531 0.04852 0.76976 0.0
C1488 C 0.77586 0.03881 0.78254 0.0
C1489 C 0.78611 0.04889 0.79531 0.0
C1490 C 0.77614 1.01836 0.78264 0.0
C1491 C 0.79063 1.00879 0.7908 0.0
C1492 C 0.7906 0.98982 0.79132 0.0
C1493 C 0.77645 0.98017 0.78319 0.0
C1494 C 0.76211 0.98912 0.77477 0.0
C1495 C 0.76186 1.0081 0.77467 0.0
H1496 H 0.2755 0.77834 0.4666 0.0
H1497 H 0.25354 0.75982 0.51694 0.0
H1498 H 0.30236 0.79316 0.51579 0.0
H1499 H 0.2948 0.8006 0.54315 0.0
H1500 H 0.28146 0.77363 0.59287 0.0
H1501 H 0.26364 0.7505 0.54301 0.0
C1502 C 0.27636 0.77765 0.48125 0.0
C1503 C 0.29024 0.78703 0.49022 0.0
C1504 C 0.26346 0.7675 0.49084 0.0
C1505 C 0.26419 0.76707 0.50987 0.0
C1506 C 0.27811 0.77637 0.51949 0.0
C1507 C 0.29117 0.78625 0.50924 0.0
C1508 C 0.27899 0.77573 0.53999 0.0
C1509 C 0.28839 0.78927 0.54997 0.0
C1510 C 0.28974 0.78831 0.56899 0.0
C1511 C 0.28101 0.77413 0.57819 0.0
C1512 C 0.27137 0.76076 0.56886 0.0
C1513 C 0.27054 0.76145 0.54986 0.0
H1514 H 0.77493 0.77736 0.59671 0.0
H1515 H 0.78972 0.75246 0.54689 0.0
H1516 H 0.76206 0.80381 0.54668 0.0
H1517 H 0.7523 0.79476 0.51988 0.0
H1518 H 0.77853 0.78033 0.4705 0.0
H1519 H 0.80094 0.76242 0.52086 0.0
C1520 C 0.77517 0.77759 0.58202 0.0
C1521 C 0.76715 0.7919 0.57266 0.0
C1522 C 0.78345 0.76354 0.57276 0.0
C1523 C 0.78374 0.76378 0.55374 0.0
C1524 C 0.77595 0.77816 0.54379 0.0
C1525 C 0.7677 0.79226 0.55362 0.0
C1526 C 0.77648 0.77848 0.52335 0.0
C1527 C 0.76332 0.788 0.5132 0.0
C1528 C 0.764 0.78869 0.49418 0.0
C1529 C 0.77778 0.77962 0.48516 0.0
C1530 C 0.79087 0.76994 0.49472 0.0
C1531 C 0.79027 0.76943 0.51374 0.0
H1532 H 0.77087 0.2826 0.46635 0.0
H1533 H 0.75779 0.25515 0.51563 0.0
H1534 H 0.79326 0.30256 0.5157 0.0
H1535 H 0.80019 0.29608 0.54275 0.0
H1536 H 0.77843 0.27657 0.59273 0.0
H1537 H 0.75357 0.25952 0.54349 0.0
C1538 C 0.77227 0.28149 0.48095 0.0
C1539 C 0.78354 0.29363 0.49014 0.0
C1540 C 0.76276 0.26792 0.49022 0.0
C1541 C 0.76494 0.26616 0.50908 0.0
C1542 C 0.77578 0.27866 0.51909 0.0
C1543 C 0.78512 0.29236 0.50909 0.0
C1544 C 0.77682 0.27781 0.5397 0.0
C1545 C 0.79001 0.28797 0.54955 0.0
C1546 C 0.79051 0.28768 0.56861 0.0
C1547 C 0.77804 0.27687 0.57805 0.0
C1548 C 0.76497 0.26658 0.56895 0.0
C1549 C 0.7643 0.26715 0.54992 0.0
H1550 H 0.27788 0.28147 0.5952 0.0
H1551 H 0.2552 0.29971 0.54535 0.0
H1552 H 0.29775 0.25953 0.54594 0.0
H1553 H 0.29142 0.25418 0.51867 0.0
H1554 H 0.27882 0.28039 0.46863 0.0
H1555 H 0.26109 0.30414 0.51773 0.0
C1556 C 0.27762 0.28095 0.58053 0.0
C1557 C 0.28877 0.26891 0.57144 0.0
C1558 C 0.26599 0.29229 0.571 0.0
C1559 C 0.26488 0.29114 0.55206 0.0
C1560 C 0.27632 0.27943 0.54222 0.0
C1561 C 0.2883 0.26838 0.55242 0.0
C1562 C 0.27629 0.2792 0.52161 0.0
C1563 C 0.28533 0.26551 0.51184 0.0
C1564 C 0.28665 0.26609 0.49284 0.0
C1565 C 0.27794 0.27985 0.48329 0.0
C1566 C 0.26844 0.29322 0.49233 0.0
C1567 C 0.26781 0.29303 0.51133 0.0
H1568 H 0.77655 0.46081 0.78338 0.0
H1569 H 0.75192 0.5101 0.7994 0.0
H1570 H 0.80118 0.51076 0.7673 0.0
H1571 H 0.79503 0.53812 0.76081 0.0
H1572 H 0.78084 0.58681 0.78754 0.0
H1573 H 0.75911 0.53684 0.80739 0.0
C1574 C 0.77656 0.47546 0.78343 0.0
C1575 C 0.78993 0.48494 0.77383 0.0
C1576 C 0.76306 0.48451 0.79289 0.0
C1577 C 0.76277 0.50351 0.79237 0.0
C1578 C 0.77644 0.51368 0.78324 0.0
C1579 C 0.79004 0.50393 0.77399 0.0
C1580 C 0.7769 0.53419 0.78391 0.0
C1581 C 0.78767 0.54447 0.77159 0.0
C1582 C 0.7895 0.56329 0.77328 0.0
C1583 C 0.77966 0.57223 0.78652 0.0
C1584 C 0.76826 0.56274 0.79837 0.0
C1585 C 0.76716 0.54379 0.79729 0.0
H1586 H 0.27031 0.58973 0.78662 0.0
H1587 H 0.25583 0.54055 0.7602 0.0
H1588 H 0.2927 0.54044 0.80625 0.0
H1589 H 0.30007 0.51381 0.79816 0.0
H1590 H 0.27438 0.46389 0.78394 0.0
H1591 H 0.24979 0.5131 0.76726 0.0
C1592 C 0.27161 0.5752 0.78555 0.0
C1593 C 0.28326 0.56607 0.7973 0.0
C1594 C 0.26147 0.56592 0.77254 0.0
C1595 C 0.26342 0.54716 0.77083 0.0
C1596 C 0.27454 0.53724 0.78299 0.0
C1597 C 0.28448 0.54716 0.79621 0.0
C1598 C 0.275 0.51674 0.78258 0.0
C1599 C 0.28886 0.50696 0.79163 0.0
C1600 C 0.28823 0.48799 0.79273 0.0
C1601 C 0.27451 0.47854 0.78363 0.0
C1602 C 0.26094 0.48762 0.77421 0.0
C1603 C 0.26105 0.50659 0.77386 0.0
H1604 H 0.27716 0.46555 0.27927 0.0
H1605 H 0.26027 0.51449 0.30387 0.0
H1606 H 0.29577 0.5158 0.25702 0.0
H1607 H 0.30341 0.54242 0.26583 0.0
H1608 H 0.28035 0.59158 0.28412 0.0
H1609 H 0.2534 0.54165 0.29666 0.0
C1610 C 0.2774 0.48019 0.27958 0.0
C1611 C 0.28791 0.48978 0.26698 0.0
C1612 C 0.26725 0.48911 0.29263 0.0
C1613 C 0.26771 0.50807 0.29317 0.0
C1614 C 0.27797 0.51837 0.28047 0.0
C1615 C 0.28802 0.50878 0.26731 0.0
C1616 C 0.27835 0.53885 0.28114 0.0
C1617 C 0.2924 0.549 0.27265 0.0
C1618 C 0.29286 0.56797 0.27331 0.0
C1619 C 0.27966 0.57698 0.2832 0.0
C1620 C 0.26573 0.5675 0.29206 0.0
C1621 C 0.26484 0.54856 0.29056 0.0
H1622 H 0.77118 0.58902 0.29028 0.0
H1623 H 0.75856 0.54042 0.26176 0.0
H1624 H 0.79404 0.53939 0.30878 0.0
H1625 H 0.80401 0.51415 0.29699 0.0
H1626 H 0.77954 0.46389 0.2814 0.0
H1627 H 0.75151 0.51287 0.2703 0.0
C1628 C 0.77276 0.57456 0.28876 0.0
C1629 C 0.78409 0.56521 0.30065 0.0
C1630 C 0.76326 0.56558 0.27507 0.0
C1631 C 0.76564 0.54694 0.27281 0.0
C1632 C 0.77662 0.53689 0.28496 0.0
C1633 C 0.7859 0.54643 0.29886 0.0
C1634 C 0.77772 0.51657 0.28364 0.0
C1635 C 0.79266 0.50703 0.29095 0.0
C1636 C 0.79329 0.48807 0.2902 0.0
C1637 C 0.7791 0.47851 0.28194 0.0
C1638 C 0.76425 0.48748 0.27454 0.0
C1639 C 0.76352 0.50639 0.27547 0.0
H1640 H 0.46338 0.27589 0.77884 0.0
H1641 H 0.51332 0.29897 0.79744 0.0
H1642 H 0.51313 0.25254 0.76189 0.0
H1643 H 0.53989 0.26117 0.75405 0.0
H1644 H 0.58998 0.27805 0.77791 0.0
H1645 H 0.54052 0.29147 0.80424 0.0
C1646 C 0.47808 0.27586 0.77904 0.0
C1647 C 0.48734 0.26332 0.76858 0.0
C1648 C 0.48744 0.28844 0.78969 0.0
C1649 C 0.50651 0.28857 0.78971 0.0
C1650 C 0.51642 0.27584 0.77954 0.0
C1651 C 0.50639 0.26302 0.76928 0.0
C1652 C 0.53698 0.27614 0.77929 0.0
C1653 C 0.54677 0.26776 0.76516 0.0
C1654 C 0.56581 0.26831 0.76477 0.0
C1655 C 0.57528 0.27771 0.77819 0.0
C1656 C 0.56613 0.28656 0.79201 0.0
C1657 C 0.54713 0.28521 0.79291 0.0
H1658 H 0.59013 0.77352 0.77862 0.0
H1659 H 0.53978 0.75026 0.7959 0.0
H1660 H 0.54082 0.79963 0.76385 0.0
H1661 H 0.51373 0.79154 0.75538 0.0
H1662 H 0.46362 0.77343 0.7783 0.0
H1663 H 0.51326 0.75911 0.80455 0.0
C1664 C 0.57546 0.77412 0.77922 0.0
C1665 C 0.56645 0.78794 0.77003 0.0
C1666 C 0.5659 0.76085 0.7889 0.0
C1667 C 0.54684 0.76123 0.78912 0.0
C1668 C 0.53717 0.77511 0.78005 0.0
C1669 C 0.5474 0.78853 0.77065 0.0
C1670 C 0.51662 0.77526 0.77998 0.0
C1671 C 0.50682 0.78449 0.76624 0.0
C1672 C 0.48776 0.7841 0.76589 0.0
C1673 C 0.4783 0.77413 0.779 0.0
C1674 C 0.48745 0.76473 0.79266 0.0
C1675 C 0.50651 0.76574 0.79338 0.0
H1676 H 0.46524 0.77772 0.277 0.0
H1677 H 0.51505 0.78959 0.30432 0.0
H1678 H 0.51513 0.76306 0.25208 0.0
H1679 H 0.54155 0.7531 0.26032 0.0
H1680 H 0.59165 0.77429 0.2809 0.0
H1681 H 0.54206 0.79868 0.29687 0.0
C1682 C 0.47994 0.77738 0.27733 0.0
C1683 C 0.48925 0.76924 0.26317 0.0
C1684 C 0.48925 0.7851 0.29189 0.0
C1685 C 0.50828 0.78431 0.29246 0.0
C1686 C 0.51822 0.77634 0.27821 0.0
C1687 C 0.50829 0.76887 0.26353 0.0
C1688 C 0.53872 0.77581 0.27873 0.0
C1689 C 0.54851 0.76303 0.26854 0.0
C1690 C 0.56758 0.7626 0.26911 0.0
C1691 C 0.57697 0.77469 0.28032 0.0
C1692 C 0.56776 0.7873 0.29076 0.0
C1693 C 0.54877 0.78813 0.28953 0.0
H1694 H 0.58799 0.27696 0.28242 0.0
H1695 H 0.53854 0.30083 0.26484 0.0
H1696 H 0.53785 0.25346 0.29986 0.0
H1697 H 0.51059 0.26013 0.30602 0.0
H1698 H 0.46131 0.2744 0.27931 0.0
H1699 H 0.51147 0.29353 0.25744 0.0
C1700 C 0.57329 0.27729 0.28276 0.0
C1701 C 0.56384 0.26433 0.29296 0.0
C1702 C 0.56418 0.29022 0.27244 0.0
C1703 C 0.54511 0.29027 0.27245 0.0
C1704 C 0.53493 0.27709 0.28228 0.0
C1705 C 0.54475 0.26403 0.29238 0.0
C1706 C 0.51432 0.2768 0.28177 0.0
C1707 C 0.50407 0.26686 0.2948 0.0
C1708 C 0.48504 0.2656 0.29373 0.0
C1709 C 0.47598 0.2752 0.28016 0.0
C1710 C 0.4855 0.28568 0.26749 0.0
C1711 C 0.50456 0.28616 0.26809 0.0
C1712 C 0.24337 0.22326 0.09029 0.0
C1713 C 0.23382 0.22993 0.1053 0.0
C1714 C 0.2522 0.23497 0.07801 0.0
C1715 C 0.25192 0.25378 0.08037 0.0
H1716 H 0.24448 0.20884 0.08832 0.0
H1717 H 0.26009 0.22923 0.06719 0.0
S1718 S 0.22774 0.27825 0.11646 0.0
N1719 N 0.22386 0.25672 0.12111 0.0
N1720 N 0.24018 0.27862 0.09792 0.0
C1721 C 0.24165 0.26065 0.09471 0.0
C1722 C 0.23265 0.24877 0.10719 0.0
C1723 C 0.81609 0.24582 0.1107 0.0
C1724 C 0.81374 0.22704 0.10897 0.0
C1725 C 0.8073 0.25787 0.099 0.0
C1726 C 0.79582 0.25166 0.08504 0.0
H1727 H 0.82425 0.25131 0.12161 0.0
H1728 H 0.80919 0.27222 0.10116 0.0
S1729 S 0.78628 0.20378 0.07376 0.0
N1730 N 0.80012 0.20276 0.09134 0.0
N1731 N 0.78328 0.22548 0.06959 0.0
C1732 C 0.79391 0.23293 0.08267 0.0
C1733 C 0.80288 0.22062 0.09461 0.0
C1734 C 0.79482 0.82827 0.10183 0.0
C1735 C 0.81389 0.82899 0.10261 0.0
C1736 C 0.78569 0.81679 0.08974 0.0
C1737 C 0.79524 0.80576 0.07774 0.0
H1738 H 0.78686 0.83612 0.11114 0.0
H1739 H 0.77101 0.81616 0.09012 0.0
S1740 S 0.84518 0.80341 0.07341 0.0
N1741 N 0.842 0.81829 0.08962 0.0
N1742 N 0.82475 0.79675 0.06682 0.0
C1743 C 0.81427 0.80683 0.07783 0.0
C1744 C 0.8236 0.81839 0.09031 0.0
C1745 C 0.24662 0.83124 0.0929 0.0
C1746 C 0.23535 0.82445 0.10683 0.0
C1747 C 0.25525 0.81964 0.08074 0.0
C1748 C 0.25303 0.8008 0.08217 0.0
H1749 H 0.24912 0.84564 0.09165 0.0
H1750 H 0.26435 0.82538 0.07071 0.0
S1751 S 0.22415 0.77615 0.11536 0.0
N1752 N 0.22193 0.7976 0.12072 0.0
N1753 N 0.23782 0.77593 0.09772 0.0
C1754 C 0.24118 0.7939 0.09548 0.0
C1755 C 0.23242 0.80566 0.10783 0.0
C1756 C 0.24307 0.83027 0.97178 0.0
C1757 C 0.23297 0.82358 0.95699 0.0
C1758 C 0.25164 0.81855 0.98407 0.0
C1759 C 0.25053 0.79973 0.98191 0.0
H1760 H 0.24479 0.84469 0.97358 0.0
H1761 H 0.25996 0.82427 0.99474 0.0
S1762 S 0.22486 0.77526 0.94628 0.0
N1763 N 0.22172 0.7968 0.9415 0.0
N1764 N 0.23758 0.77489 0.9647 0.0
C1765 C 0.23977 0.79286 0.96774 0.0
C1766 C 0.23104 0.80475 0.95526 0.0
C1767 C 0.22587 0.25524 0.95747 0.0
C1768 C 0.22676 0.23631 0.95643 0.0
C1769 C 0.23731 0.26504 0.96905 0.0
C1770 C 0.25005 0.25636 0.98021 0.0
H1771 H 0.21662 0.26262 0.94884 0.0
H1772 H 0.23639 0.27963 0.96906 0.0
S1773 S 0.25721 0.20701 0.98344 0.0
N1774 N 0.24093 0.20915 0.96819 0.0
N1775 N 0.26251 0.2277 0.98998 0.0
C1776 C 0.25076 0.23742 0.97976 0.0
C1777 C 0.23916 0.22738 0.96782 0.0
C1778 C 0.80972 0.22645 0.97602 0.0
C1779 C 0.8189 0.2332 0.96064 0.0
C1780 C 0.80108 0.23805 0.98814 0.0
C1781 C 0.80119 0.25684 0.98527 0.0
H1782 H 0.80871 0.21203 0.97838 0.0
H1783 H 0.79341 0.23221 0.99926 0.0
S1784 S 0.82458 0.28154 0.94807 0.0
N1785 N 0.82846 0.26006 0.94392 0.0
N1786 N 0.81249 0.2818 0.96685 0.0
C1787 C 0.81117 0.26383 0.97056 0.0
C1788 C 0.81997 0.25205 0.95823 0.0
C1789 C 0.81875 0.80394 0.95003 0.0
C1790 C 0.82035 0.8226 0.95323 0.0
C1791 C 0.80959 0.79244 0.96222 0.0
C1792 C 0.80172 0.79908 0.97816 0.0
H1793 H 0.8238 0.7983 0.93756 0.0
H1794 H 0.80806 0.7783 0.95878 0.0
S1795 S 0.80396 0.84651 0.99392 0.0
N1796 N 0.81488 0.84688 0.97444 0.0
N1797 N 0.79734 0.82535 0.99711 0.0
C1798 C 0.80416 0.81752 0.98207 0.0
C1799 C 0.8135 0.82924 0.96964 0.0
C1800 C 0.10431 0.23279 0.25379 0.0
C1801 C 0.10148 0.23267 0.23494 0.0
C1802 C 0.09246 0.24179 0.26539 0.0
C1803 C 0.07724 0.25102 0.25866 0.0
H1804 H 0.11627 0.22664 0.25956 0.0
H1805 H 0.0956 0.24206 0.27973 0.0
S1806 S 0.06255 0.25297 0.2106 0.0
N1807 N 0.08127 0.241 0.21027 0.0
N1808 N 0.05929 0.2583 0.23201 0.0
C1809 C 0.07366 0.25011 0.23996 0.0
C1810 C 0.08573 0.2409 0.22814 0.0
C1811 C 0.83028 0.10075 0.26515 0.0
C1812 C 0.83119 0.10111 0.24612 0.0
C1813 C 0.81866 0.08868 0.27427 0.0
C1814 C 0.8076 0.07637 0.26476 0.0
H1815 H 0.8381 0.11033 0.27307 0.0
H1816 H 0.81798 0.08929 0.28891 0.0
S1817 S 0.80582 0.07087 0.21494 0.0
N1818 N 0.82079 0.08733 0.2181 0.0
N1819 N 0.79885 0.06469 0.23532 0.0
C1820 C 0.80888 0.07606 0.24578 0.0
C1821 C 0.82065 0.08846 0.23645 0.0
C1822 C 0.96539 0.81172 0.22929 0.0
C1823 C 0.94971 0.82008 0.23594 0.0
C1824 C 0.97747 0.80277 0.24093 0.0
C1825 C 0.97426 0.80171 0.25967 0.0
H1826 H 0.96804 0.81161 0.21486 0.0
H1827 H 0.98884 0.79577 0.23511 0.0
S1828 S 0.93617 0.82259 0.28422 0.0
N1829 N 0.93235 0.8276 0.26274 0.0
N1830 N 0.95516 0.81102 0.28455 0.0
C1831 C 0.95923 0.81085 0.26661 0.0
C1832 C 0.94694 0.81998 0.2548 0.0
C1833 C 0.22667 0.94891 0.26445 0.0
C1834 C 0.2242 0.94989 0.24557 0.0
C1835 C 0.23848 0.96083 0.27344 0.0
C1836 C 0.24816 0.97434 0.26395 0.0
H1837 H 0.21989 0.93844 0.2723 0.0
H1838 H 0.24039 0.9592 0.28791 0.0
S1839 S 0.24569 0.98342 0.21459 0.0
N1840 N 0.23176 0.96607 0.21779 0.0
N1841 N 0.254 0.98849 0.23475 0.0
C1842 C 0.24535 0.97592 0.24518 0.0
C1843 C 0.23342 0.96366 0.23597 0.0
C1844 C 0.08873 0.80169 0.83386 0.0
C1845 C 0.10214 0.8141 0.82795 0.0
C1846 C 0.07681 0.79329 0.82154 0.0
C1847 C 0.07799 0.79688 0.80287 0.0
H1848 H 0.08765 0.7982 0.84808 0.0
H1849 H 0.06711 0.78339 0.82659 0.0
S1850 S 0.10998 0.82891 0.78047 0.0
N1851 N 0.11541 0.82991 0.80214 0.0
N1852 N 0.09284 0.81444 0.77916 0.0
C1853 C 0.09086 0.80974 0.79687 0.0
C1854 C 0.10296 0.81828 0.80936 0.0
C1855 C 0.25803 0.09666 0.83471 0.0
C1856 C 0.23896 0.09725 0.83451 0.0
C1857 C 0.26748 0.08492 0.82343 0.0
C1858 C 0.25827 0.07312 0.81162 0.0
H1859 H 0.26576 0.10585 0.84316 0.0
H1860 H 0.28216 0.08542 0.82358 0.0
S1861 S 0.20843 0.06835 0.80678 0.0
N1862 N 0.21118 0.08423 0.82218 0.0
N1863 N 0.22902 0.06214 0.80095 0.0
C1864 C 0.23922 0.07301 0.81178 0.0
C1865 C 0.22956 0.08511 0.82318 0.0
C1866 C 0.96597 0.24448 0.83666 0.0
C1867 C 0.9506 0.23498 0.83024 0.0
C1868 C 0.9783 0.25282 0.82468 0.0
C1869 C 0.97561 0.2521 0.80585 0.0
H1870 H 0.96823 0.24588 0.85109 0.0
H1871 H 0.98948 0.26065 0.83021 0.0
S1872 S 0.93838 0.2279 0.782 0.0
N1873 N 0.934 0.22463 0.80369 0.0
N1874 N 0.95728 0.24005 0.78127 0.0
C1875 C 0.96083 0.24191 0.79924 0.0
C1876 C 0.94831 0.23341 0.81139 0.0
C1877 C 0.81561 0.96285 0.82703 0.0
C1878 C 0.82889 0.95393 0.81687 0.0
C1879 C 0.80398 0.97545 0.8189 0.0
C1880 C 0.8052 0.97954 0.80033 0.0
H1881 H 0.81396 0.95979 0.8413 0.0
H1882 H 0.79348 0.98148 0.82701 0.0
S1883 S 0.8374 0.96012 0.76767 0.0
N1884 N 0.84251 0.95032 0.78716 0.0
N1885 N 0.82063 0.97397 0.77204 0.0
C1886 C 0.81861 0.97111 0.79012 0.0
C1887 C 0.83049 0.95834 0.79835 0.0
C1888 C 0.22608 0.09592 0.26001 0.0
C1889 C 0.22714 0.09797 0.24108 0.0
C1890 C 0.23755 0.08418 0.26941 0.0
C1891 C 0.25048 0.07385 0.26029 0.0
H1892 H 0.21672 0.10394 0.26773 0.0
H1893 H 0.23661 0.08349 0.28404 0.0
S1894 S 0.25807 0.07323 0.21075 0.0
N1895 N 0.24164 0.08792 0.21344 0.0
N1896 N 0.26325 0.0658 0.23125 0.0
C1897 C 0.25132 0.07522 0.24134 0.0
C1898 C 0.23969 0.08733 0.23172 0.0
C1899 C 0.23249 0.96291 0.82477 0.0
C1900 C 0.22187 0.95024 0.81517 0.0
C1901 C 0.24404 0.97517 0.81567 0.0
C1902 C 0.24555 0.97499 0.7967 0.0
H1903 H 0.23208 0.96314 0.83943 0.0
H1904 H 0.25245 0.98429 0.82357 0.0
S1905 S 0.22041 0.94494 0.76525 0.0
N1906 N 0.21336 0.93867 0.78557 0.0
N1907 N 0.23504 0.96165 0.76859 0.0
C1908 C 0.23466 0.96277 0.78694 0.0
C1909 C 0.22283 0.95042 0.79615 0.0
C1910 C 0.09769 0.2214 0.802 0.0
C1911 C 0.09975 0.22248 0.82092 0.0
C1912 C 0.086 0.23291 0.79257 0.0
C1913 C 0.07573 0.24591 0.80164 0.0
H1914 H 0.10568 0.21202 0.7943 0.0
H1915 H 0.08531 0.23193 0.77795 0.0
S1916 S 0.07511 0.25351 0.85116 0.0
N1917 N 0.08971 0.23701 0.84851 0.0
N1918 N 0.06774 0.25872 0.83065 0.0
C1919 C 0.07709 0.24674 0.82059 0.0
C1920 C 0.08914 0.23506 0.83024 0.0
C1921 C 0.80294 0.10586 0.82552 0.0
C1922 C 0.8218 0.10329 0.82611 0.0
C1923 C 0.79146 0.0938 0.81626 0.0
C1924 C 0.79833 0.07865 0.80727 0.0
H1925 H 0.79709 0.11773 0.83151 0.0
H1926 H 0.7771 0.0967 0.81565 0.0
S1927 S 0.84646 0.06474 0.80645 0.0
N1928 N 0.84663 0.0835 0.81839 0.0
N1929 N 0.8251 0.06111 0.80063 0.0
C1930 C 0.81704 0.07538 0.80861 0.0
C1931 C 0.82873 0.08766 0.81806 0.0
C1932 C 0.95539 0.79635 0.82826 0.0
C1933 C 0.95388 0.81523 0.82689 0.0
C1934 C 0.96709 0.78681 0.81701 0.0
C1935 C 0.97794 0.79576 0.80406 0.0
H1936 H 0.94699 0.78877 0.8377 0.0
H1937 H 0.96739 0.77223 0.81818 0.0
S1938 S 0.97992 0.84509 0.79561 0.0
N1939 N 0.96486 0.84262 0.81199 0.0
N1940 N 0.98694 0.82457 0.79084 0.0
C1941 C 0.97705 0.81465 0.80288 0.0
C1942 C 0.96496 0.82441 0.81425 0.0
C1943 C 0.80412 0.95034 0.23725 0.0
C1944 C 0.82304 0.95299 0.23748 0.0
C1945 C 0.79255 0.96227 0.24614 0.0
C1946 C 0.79939 0.97736 0.25558 0.0
H1947 H 0.79825 0.93848 0.23095 0.0
H1948 H 0.77813 0.95926 0.2462 0.0
S1949 S 0.84772 0.99154 0.25841 0.0
N1950 N 0.84795 0.97287 0.24633 0.0
N1951 N 0.82625 0.99501 0.2634 0.0
C1952 C 0.81819 0.98076 0.25498 0.0
C1953 C 0.82998 0.96862 0.2459 0.0
C1954 C 0.10083 0.81729 0.25013 0.0
C1955 C 0.09927 0.81503 0.23129 0.0
C1956 C 0.08871 0.80875 0.2621 0.0
C1957 C 0.07446 0.79762 0.25577 0.0
H1958 H 0.11197 0.82512 0.25575 0.0
H1959 H 0.09082 0.81046 0.27651 0.0
S1960 S 0.0634 0.78857 0.20765 0.0
N1961 N 0.08144 0.80198 0.20679 0.0
N1962 N 0.05889 0.7856 0.22937 0.0
C1963 C 0.07222 0.79588 0.23696 0.0
C1964 C 0.08459 0.8046 0.22472 0.0
C1965 C 0.95272 0.26057 0.22969 0.0
C1966 C 0.95314 0.2417 0.22763 0.0
C1967 C 0.9648 0.26951 0.24135 0.0
C1968 C 0.97792 0.26 0.25129 0.0
H1969 H 0.9425 0.26842 0.22277 0.0
H1970 H 0.96356 0.28398 0.24298 0.0
S1971 S 0.98564 0.21068 0.24978 0.0
N1972 N 0.96851 0.21392 0.23572 0.0
N1973 N 0.9912 0.2308 0.25773 0.0
C1974 C 0.97902 0.24125 0.24882 0.0
C1975 C 0.9666 0.23209 0.23703 0.0
C1976 C 0.23378 0.73333 0.59139 0.0
C1977 C 0.24329 0.72278 0.60411 0.0
C1978 C 0.243 0.74481 0.57917 0.0
C1979 C 0.26202 0.74632 0.57944 0.0
H1980 H 0.2191 0.73289 0.59108 0.0
H1981 H 0.23518 0.75315 0.57 0.0
S1982 S 0.29327 0.72143 0.60972 0.0
N1983 N 0.27286 0.71438 0.61586 0.0
N1984 N 0.29006 0.73594 0.59298 0.0
C1985 C 0.27168 0.73553 0.59174 0.0
C1986 C 0.26235 0.72376 0.60404 0.0
C1987 C 0.81935 0.73427 0.59473 0.0
C1988 C 0.80935 0.72435 0.60772 0.0
C1989 C 0.81075 0.74621 0.58267 0.0
C1990 C 0.79192 0.7488 0.58338 0.0
H1991 H 0.83393 0.73296 0.59406 0.0
H1992 H 0.81896 0.754 0.57324 0.0
S1993 S 0.75958 0.7259 0.61451 0.0
N1994 N 0.77953 0.71772 0.62022 0.0
N1995 N 0.76348 0.74014 0.59763 0.0
C1996 C 0.78175 0.73867 0.59597 0.0
C1997 C 0.79043 0.72644 0.60812 0.0
C1998 C 0.81119 0.32982 0.58956 0.0
C1999 C 0.82084 0.32293 0.60455 0.0
C2000 C 0.80256 0.31829 0.57708 0.0
C2001 C 0.80314 0.29943 0.57919 0.0
H2002 H 0.8098 0.34427 0.58778 0.0
H2003 H 0.7945 0.32419 0.56633 0.0
S2004 S 0.8278 0.27443 0.61508 0.0
N2005 N 0.83131 0.29589 0.62003 0.0
N2006 N 0.81535 0.27434 0.59647 0.0
C2007 C 0.81359 0.29236 0.59348 0.0
C2008 C 0.82238 0.30406 0.60616 0.0
C2009 C 0.22832 0.31539 0.5967 0.0
C2010 C 0.23776 0.32924 0.60591 0.0
C2011 C 0.23725 0.30401 0.58452 0.0
C2012 C 0.25593 0.30603 0.58129 0.0
H2013 H 0.214 0.31315 0.59917 0.0
H2014 H 0.22969 0.29315 0.57814 0.0
S2015 S 0.28686 0.34001 0.60177 0.0
N2016 N 0.26689 0.34424 0.61071 0.0
N2017 N 0.2835 0.32292 0.58788 0.0
C2018 C 0.26541 0.32001 0.59006 0.0
C2019 C 0.25637 0.33161 0.60234 0.0
C2020 C 0.23174 0.32041 0.46898 0.0
C2021 C 0.24169 0.3312 0.45666 0.0
C2022 C 0.24052 0.30885 0.48129 0.0
C2023 C 0.25952 0.30753 0.4815 0.0
H2024 H 0.21707 0.32072 0.46892 0.0
H2025 H 0.23239 0.30036 0.49017 0.0
S2026 S 0.29179 0.33306 0.45239 0.0
N2027 N 0.27163 0.34 0.44579 0.0
N2028 N 0.28801 0.3183 0.46885 0.0
C2029 C 0.26961 0.31854 0.4696 0.0
C2030 C 0.26073 0.33037 0.4572 0.0
C2031 C 0.22665 0.75779 0.45615 0.0
C2032 C 0.22552 0.7388 0.45608 0.0
C2033 C 0.23836 0.76697 0.46801 0.0
C2034 C 0.24926 0.75756 0.48047 0.0
H2035 H 0.2189 0.76562 0.44649 0.0
H2036 H 0.23926 0.78156 0.46713 0.0
S2037 S 0.25059 0.70791 0.48665 0.0
N2038 N 0.2357 0.71094 0.47019 0.0
N2039 N 0.25771 0.72828 0.49254 0.0
C2040 C 0.2478 0.73863 0.48105 0.0
C2041 C 0.23599 0.72924 0.46881 0.0
C2042 C 0.81712 0.7327 0.47181 0.0
C2043 C 0.82838 0.74237 0.45969 0.0
C2044 C 0.80579 0.74169 0.48402 0.0
C2045 C 0.80518 0.76065 0.48434 0.0
H2046 H 0.81685 0.71808 0.47165 0.0
H2047 H 0.79687 0.73378 0.49269 0.0
S2048 S 0.83209 0.79226 0.45573 0.0
N2049 N 0.83835 0.77203 0.44912 0.0
N2050 N 0.8171 0.78879 0.47198 0.0
C2051 C 0.81668 0.77045 0.47266 0.0
C2052 C 0.82827 0.76135 0.46036 0.0
C2053 C 0.8218 0.31899 0.46631 0.0
C2054 C 0.81244 0.3307 0.45453 0.0
C2055 C 0.81243 0.30776 0.47867 0.0
C2056 C 0.79339 0.30771 0.4795 0.0
H2057 H 0.83645 0.31831 0.46576 0.0
H2058 H 0.82008 0.29852 0.48707 0.0
S2059 S 0.76253 0.33601 0.45199 0.0
N2060 N 0.78302 0.34171 0.44486 0.0
N2061 N 0.76555 0.32069 0.46803 0.0
C2062 C 0.78393 0.31967 0.46817 0.0
C2063 C 0.79342 0.33114 0.45571 0.0
C2064 C 0.10224 0.75811 0.72713 0.0
C2065 C 0.10166 0.73919 0.72549 0.0
C2066 C 0.09029 0.76713 0.73859 0.0
C2067 C 0.07713 0.75763 0.74874 0.0
H2068 H 0.11246 0.76599 0.72001 0.0
H2069 H 0.09168 0.78164 0.73991 0.0
S2070 S 0.06905 0.70815 0.74839 0.0
N2071 N 0.08614 0.71135 0.73427 0.0
N2072 N 0.06369 0.72836 0.75586 0.0
C2073 C 0.0759 0.73881 0.74672 0.0
C2074 C 0.08819 0.72957 0.73514 0.0
C2075 C 0.82775 0.59564 0.76124 0.0
C2076 C 0.82564 0.59825 0.74246 0.0
C2077 C 0.81637 0.58379 0.77089 0.0
C2078 C 0.80254 0.57393 0.76216 0.0
H2079 H 0.83786 0.60331 0.76868 0.0
H2080 H 0.81815 0.58262 0.78542 0.0
S2081 S 0.79194 0.57493 0.71312 0.0
N2082 N 0.80912 0.58928 0.71535 0.0
N2083 N 0.7877 0.56695 0.73364 0.0
C2084 C 0.80061 0.57588 0.74334 0.0
C2085 C 0.81213 0.5881 0.73346 0.0
C2086 C 0.95044 0.31875 0.75327 0.0
C2087 C 0.95277 0.31813 0.73438 0.0
C2088 C 0.96235 0.30983 0.76506 0.0
C2089 C 0.97711 0.29994 0.75849 0.0
H2090 H 0.93883 0.32544 0.75897 0.0
H2091 H 0.95959 0.31012 0.77947 0.0
S2092 S 0.9904 0.29585 0.7103 0.0
N2093 N 0.97202 0.30834 0.70974 0.0
N2094 N 0.9941 0.29119 0.73188 0.0
C2095 C 0.9802 0.30008 0.7397 0.0
C2096 C 0.96807 0.30921 0.72768 0.0
C2097 C 0.23334 0.46471 0.73718 0.0
C2098 C 0.22305 0.45178 0.74691 0.0
C2099 C 0.24481 0.47709 0.74615 0.0
C2100 C 0.24654 0.47678 0.76511 0.0
H2101 H 0.23271 0.46508 0.72253 0.0
H2102 H 0.25294 0.48645 0.73817 0.0
S2103 S 0.22243 0.44591 0.79685 0.0
N2104 N 0.21519 0.43974 0.77662 0.0
N2105 N 0.23668 0.46292 0.79334 0.0
C2106 C 0.23601 0.46425 0.77498 0.0
C2107 C 0.22428 0.45177 0.76592 0.0
C2108 C 0.106 0.31779 0.30976 0.0
C2109 C 0.10274 0.31843 0.3285 0.0
C2110 C 0.09404 0.30871 0.29804 0.0
C2111 C 0.07829 0.29994 0.30457 0.0
H2112 H 0.11831 0.32367 0.30418 0.0
H2113 H 0.09744 0.30809 0.2838 0.0
S2114 S 0.06255 0.29922 0.35223 0.0
N2115 N 0.08176 0.31089 0.35282 0.0
N2116 N 0.0595 0.29349 0.33086 0.0
C2117 C 0.07438 0.30127 0.32313 0.0
C2118 C 0.08657 0.31053 0.33508 0.0
C2119 C 0.23569 0.60557 0.30811 0.0
C2120 C 0.23348 0.60173 0.32667 0.0
C2121 C 0.24517 0.59386 0.29677 0.0
C2122 C 0.25279 0.57778 0.30347 0.0
H2123 H 0.23086 0.61815 0.30246 0.0
H2124 H 0.24714 0.59777 0.28273 0.0
S2125 S 0.24893 0.5604 0.35055 0.0
N2126 N 0.23808 0.57976 0.35081 0.0
N2127 N 0.25623 0.558 0.3296 0.0
C2128 C 0.24973 0.57324 0.32174 0.0
C2129 C 0.24006 0.58517 0.3333 0.0
C2130 C 0.94852 0.72661 0.30047 0.0
C2131 C 0.94924 0.72479 0.31945 0.0
C2132 C 0.96053 0.73815 0.29117 0.0
C2133 C 0.97389 0.74822 0.30043 0.0
H2134 H 0.93816 0.71953 0.29278 0.0
H2135 H 0.95908 0.73955 0.27663 0.0
S2136 S 0.98235 0.74744 0.34992 0.0
N2137 N 0.96507 0.73333 0.34707 0.0
N2138 N 0.98764 0.7551 0.32952 0.0
C2139 C 0.97523 0.74605 0.3193 0.0
C2140 C 0.96288 0.73438 0.32882 0.0
C2141 C 0.82262 0.46523 0.32571 0.0
C2142 C 0.83239 0.45268 0.31546 0.0
C2143 C 0.81087 0.47759 0.31734 0.0
C2144 C 0.80833 0.47768 0.29846 0.0
H2145 H 0.8238 0.46524 0.34033 0.0
H2146 H 0.80308 0.48654 0.32575 0.0
S2147 S 0.83095 0.44804 0.26546 0.0
N2148 N 0.83898 0.44153 0.28532 0.0
N2149 N 0.81695 0.4647 0.26972 0.0
C2150 C 0.81841 0.46562 0.28805 0.0
C2151 C 0.83043 0.45315 0.2965 0.0
C2152 C 0.23901 0.59131 0.7337 0.0
C2153 C 0.22482 0.60033 0.74248 0.0
C2154 C 0.25032 0.57931 0.74321 0.0
C2155 C 0.24792 0.57613 0.76183 0.0
H2156 H 0.24155 0.59376 0.71945 0.0
H2157 H 0.26142 0.57306 0.73614 0.0
S2158 S 0.21283 0.59607 0.79112 0.0
N2159 N 0.20904 0.60494 0.77091 0.0
N2160 N 0.23018 0.58245 0.78859 0.0
C2161 C 0.23357 0.58469 0.77063 0.0
C2162 C 0.22205 0.59676 0.76101 0.0
C2163 C 0.22501 0.46893 0.31427 0.0
C2164 C 0.23162 0.45347 0.3232 0.0
C2165 C 0.23676 0.48115 0.30543 0.0
C2166 C 0.25556 0.47826 0.30507 0.0
H2167 H 0.21056 0.47132 0.31367 0.0
H2168 H 0.23102 0.49239 0.29803 0.0
S2169 S 0.27996 0.44077 0.32753 0.0
N2170 N 0.25837 0.43659 0.33193 0.0
N2171 N 0.28041 0.45968 0.31558 0.0
C2172 C 0.26243 0.46341 0.31473 0.0
C2173 C 0.2505 0.451 0.32374 0.0
C2174 C 0.08322 0.72423 0.31621 0.0
C2175 C 0.09879 0.73091 0.32517 0.0
C2176 C 0.07095 0.7359 0.30764 0.0
C2177 C 0.07386 0.75469 0.30758 0.0
H2178 H 0.08081 0.7098 0.31531 0.0
H2179 H 0.0597 0.73011 0.30011 0.0
S2180 S 0.11156 0.77923 0.33035 0.0
N2181 N 0.11572 0.75772 0.33434 0.0
N2182 N 0.09256 0.77957 0.31849 0.0
C2183 C 0.08877 0.76161 0.31735 0.0
C2184 C 0.10124 0.74975 0.32609 0.0
C2185 C 0.82121 0.58998 0.32653 0.0
C2186 C 0.81133 0.60052 0.33877 0.0
C2187 C 0.81245 0.5776 0.31498 0.0
C2188 C 0.79348 0.5755 0.31515 0.0
H2189 H 0.8358 0.59158 0.32563 0.0
H2190 H 0.82045 0.57025 0.30529 0.0
S2191 S 0.76139 0.59939 0.34482 0.0
N2192 N 0.7815 0.6076 0.35053 0.0
N2193 N 0.76516 0.58437 0.3289 0.0
C2194 C 0.78353 0.58551 0.32767 0.0
C2195 C 0.7924 0.59799 0.33947 0.0
C2196 C 0.95289 0.31897 0.31159 0.0
C2197 C 0.9535 0.31563 0.33036 0.0
C2198 C 0.96485 0.31049 0.29974 0.0
C2199 C 0.97796 0.29831 0.30611 0.0
H2200 H 0.94261 0.32765 0.3059 0.0
H2201 H 0.96348 0.31313 0.28535 0.0
S2202 S 0.98641 0.28622 0.35417 0.0
N2203 N 0.96935 0.30043 0.35492 0.0
N2204 N 0.99155 0.28416 0.33254 0.0
C2205 C 0.97931 0.29546 0.3249 0.0
C2206 C 0.96711 0.30414 0.33701 0.0
C2207 C 0.82557 0.44979 0.76418 0.0
C2208 C 0.82722 0.45043 0.74519 0.0
C2209 C 0.81404 0.4615 0.77336 0.0
C2210 C 0.80386 0.47451 0.76398 0.0
H2211 H 0.83279 0.43972 0.77197 0.0
H2212 H 0.81275 0.4601 0.78791 0.0
S2213 S 0.80408 0.48259 0.7144 0.0
N2214 N 0.81828 0.46575 0.71741 0.0
N2215 N 0.79663 0.48783 0.73476 0.0
C2216 C 0.80583 0.47577 0.74509 0.0
C2217 C 0.81745 0.46368 0.73568 0.0
C2218 C 0.08985 0.31979 0.74145 0.0
C2219 C 0.1009 0.31068 0.72905 0.0
C2220 C 0.07771 0.3103 0.75279 0.0
C2221 C 0.07643 0.29135 0.75228 0.0
H2222 H 0.09078 0.33436 0.74254 0.0
H2223 H 0.06983 0.31774 0.7625 0.0
S2224 S 0.10199 0.26112 0.72211 0.0
N2225 N 0.10942 0.2816 0.71682 0.0
N2226 N 0.08665 0.26387 0.73806 0.0
C2227 C 0.08704 0.28214 0.73967 0.0
C2228 C 0.09926 0.29176 0.72808 0.0
C2229 C 0.94996 0.73115 0.75065 0.0
C2230 C 0.95197 0.73235 0.73174 0.0
C2231 C 0.96232 0.73969 0.76236 0.0
C2232 C 0.97723 0.74972 0.75566 0.0
H2233 H 0.93827 0.72431 0.75645 0.0
H2234 H 0.95981 0.73897 0.77679 0.0
S2235 S 0.98976 0.75527 0.70732 0.0
N2236 N 0.97102 0.74285 0.7069 0.0
N2237 N 0.99399 0.75925 0.72891 0.0
C2238 C 0.97998 0.75015 0.73683 0.0
C2239 C 0.96739 0.74144 0.72488 0.0
C2240 C 0.74323 0.22442 0.58928 0.0
C2241 C 0.73418 0.23109 0.60458 0.0
C2242 C 0.75214 0.23608 0.57704 0.0
C2243 C 0.75246 0.25485 0.57973 0.0
H2244 H 0.74386 0.21 0.58703 0.0
H2245 H 0.75963 0.23031 0.56594 0.0
S2246 S 0.72977 0.27937 0.61676 0.0
N2247 N 0.72535 0.25787 0.62109 0.0
N2248 N 0.74184 0.27972 0.59797 0.0
C2249 C 0.74271 0.26177 0.59441 0.0
C2250 C 0.73362 0.24993 0.60685 0.0
C2251 C 0.3072 0.22568 0.59186 0.0
C2252 C 0.31757 0.23192 0.60666 0.0
C2253 C 0.29883 0.23775 0.57981 0.0
C2254 C 0.3004 0.25652 0.5822 0.0
H2255 H 0.30517 0.21132 0.58984 0.0
H2256 H 0.29035 0.23235 0.56909 0.0
S2257 S 0.32711 0.27989 0.61784 0.0
N2258 N 0.32965 0.25821 0.62238 0.0
N2259 N 0.31423 0.28082 0.59955 0.0
C2260 C 0.31144 0.26295 0.59637 0.0
C2261 C 0.31996 0.25068 0.60863 0.0
C2262 C 0.32066 0.80779 0.60539 0.0
C2263 C 0.31707 0.82639 0.60474 0.0
C2264 C 0.31242 0.79578 0.5932 0.0
C2265 C 0.30025 0.80182 0.57978 0.0
H2266 H 0.32931 0.80231 0.6159 0.0
H2267 H 0.31519 0.78151 0.59463 0.0
S2268 S 0.28764 0.8494 0.57111 0.0
N2269 N 0.30171 0.85049 0.58852 0.0
N2270 N 0.2859 0.82781 0.56587 0.0
C2271 C 0.29721 0.82047 0.57839 0.0
C2272 C 0.30563 0.83275 0.59082 0.0
C2273 C 0.75953 0.82702 0.60892 0.0
C2274 C 0.74077 0.83013 0.60786 0.0
C2275 C 0.76807 0.81525 0.59695 0.0
C2276 C 0.75826 0.80628 0.58328 0.0
H2277 H 0.76759 0.83323 0.61952 0.0
H2278 H 0.78242 0.81279 0.59869 0.0
S2279 S 0.70913 0.81061 0.57389 0.0
N2280 N 0.71281 0.82394 0.5914 0.0
N2281 N 0.72894 0.8018 0.56888 0.0
C2282 C 0.73965 0.80975 0.58159 0.0
C2283 C 0.73088 0.82163 0.59392 0.0
C2284 C 0.74103 0.82989 0.47441 0.0
C2285 C 0.73282 0.82311 0.45855 0.0
C2286 C 0.75 0.81845 0.48665 0.0
C2287 C 0.75121 0.79982 0.48339 0.0
H2288 H 0.74102 0.84425 0.47708 0.0
H2289 H 0.75689 0.82436 0.49818 0.0
S2290 S 0.73075 0.77503 0.44481 0.0
N2291 N 0.7256 0.79634 0.44093 0.0
N2292 N 0.74221 0.77488 0.46405 0.0
C2293 C 0.74221 0.79273 0.46816 0.0
C2294 C 0.73307 0.80435 0.45572 0.0
C2295 C 0.72449 0.2551 0.45829 0.0
C2296 C 0.7267 0.23643 0.45582 0.0
C2297 C 0.73582 0.26493 0.46997 0.0
C2298 C 0.74972 0.25652 0.47984 0.0
H2299 H 0.71431 0.26233 0.45064 0.0
H2300 H 0.73394 0.27938 0.47099 0.0
S2301 S 0.7606 0.20784 0.4792 0.0
N2302 N 0.74341 0.20974 0.46494 0.0
N2303 N 0.76472 0.22836 0.48696 0.0
C2304 C 0.75175 0.23779 0.47803 0.0
C2305 C 0.74029 0.22774 0.46597 0.0
C2306 C 0.30255 0.23588 0.45482 0.0
C2307 C 0.32119 0.23416 0.45844 0.0
C2308 C 0.29121 0.24523 0.46664 0.0
C2309 C 0.29801 0.25319 0.48258 0.0
H2310 H 0.29685 0.2308 0.4423 0.0
H2311 H 0.27711 0.24689 0.46288 0.0
S2312 S 0.34536 0.25065 0.49936 0.0
N2313 N 0.34555 0.23956 0.48005 0.0
N2314 N 0.32432 0.25748 0.50203 0.0
C2315 C 0.31637 0.25059 0.48692 0.0
C2316 C 0.32793 0.24106 0.47488 0.0
C2317 C 0.31346 0.82847 0.47003 0.0
C2318 C 0.32168 0.82165 0.45433 0.0
C2319 C 0.30438 0.81701 0.48236 0.0
C2320 C 0.30306 0.79832 0.47934 0.0
H2321 H 0.31358 0.84287 0.47254 0.0
H2322 H 0.29752 0.82293 0.49377 0.0
S2323 S 0.32337 0.77343 0.44119 0.0
N2324 N 0.3287 0.79478 0.4371 0.0
N2325 N 0.31189 0.77331 0.46034 0.0
C2326 C 0.31201 0.79122 0.46424 0.0
C2327 C 0.32127 0.80285 0.45173 0.0
C2328 C 0.58831 0.23139 0.73769 0.0
C2329 C 0.60098 0.24113 0.7271 0.0
C2330 C 0.57609 0.24032 0.74906 0.0
C2331 C 0.57632 0.25925 0.7504 0.0
H2332 H 0.58803 0.21678 0.73737 0.0
H2333 H 0.56696 0.23234 0.75743 0.0
S2334 S 0.60653 0.29098 0.72542 0.0
N2335 N 0.61268 0.27081 0.71853 0.0
N2336 N 0.58982 0.28744 0.73988 0.0
C2337 C 0.58859 0.26912 0.73958 0.0
C2338 C 0.60088 0.2601 0.72794 0.0
C2339 C 0.32743 0.0975 0.76082 0.0
C2340 C 0.32597 0.09929 0.7419 0.0
C2341 C 0.31611 0.08564 0.77052 0.0
C2342 C 0.30295 0.07495 0.76172 0.0
H2343 H 0.33702 0.10578 0.76831 0.0
H2344 H 0.31745 0.08506 0.78513 0.0
S2345 S 0.29423 0.07371 0.7123 0.0
N2346 N 0.31083 0.08872 0.7146 0.0
N2347 N 0.28946 0.0664 0.73295 0.0
C2348 C 0.30167 0.07613 0.74277 0.0
C2349 C 0.31315 0.08835 0.73284 0.0
C2350 C 0.4642 0.82175 0.74013 0.0
C2351 C 0.45236 0.81221 0.72852 0.0
C2352 C 0.47652 0.81263 0.75144 0.0
C2353 C 0.47724 0.79367 0.75167 0.0
H2354 H 0.46374 0.83634 0.74067 0.0
H2355 H 0.48498 0.8204 0.7606 0.0
S2356 S 0.44943 0.7624 0.72384 0.0
N2357 N 0.44247 0.78269 0.71786 0.0
N2358 N 0.4655 0.7657 0.73911 0.0
C2359 C 0.46582 0.78402 0.73986 0.0
C2360 C 0.45342 0.79325 0.72828 0.0
C2361 C 0.73386 0.96649 0.73815 0.0
C2362 C 0.7241 0.95317 0.74789 0.0
C2363 C 0.74534 0.97888 0.74704 0.0
C2364 C 0.74765 0.9782 0.76594 0.0
H2365 H 0.73279 0.96715 0.72353 0.0
H2366 H 0.75306 0.98855 0.73903 0.0
S2367 S 0.72503 0.94627 0.7977 0.0
N2368 N 0.7173 0.94039 0.77756 0.0
N2369 N 0.7389 0.96359 0.79415 0.0
C2370 C 0.73766 0.96527 0.77585 0.0
C2371 C 0.72588 0.95279 0.76686 0.0
C2372 C 0.60593 0.81683 0.30929 0.0
C2373 C 0.60219 0.81734 0.32795 0.0
C2374 C 0.59425 0.80788 0.29722 0.0
C2375 C 0.57831 0.79912 0.3033 0.0
H2376 H 0.6184 0.82269 0.30406 0.0
H2377 H 0.59801 0.80734 0.28307 0.0
S2378 S 0.56137 0.79812 0.35054 0.0
N2379 N 0.58059 0.80973 0.35168 0.0
N2380 N 0.55884 0.79255 0.32907 0.0
C2381 C 0.57393 0.80034 0.32176 0.0
C2382 C 0.58583 0.80947 0.33407 0.0
C2383 C 0.75492 0.09721 0.33274 0.0
C2384 C 0.73609 0.09918 0.33054 0.0
C2385 C 0.76482 0.08577 0.32158 0.0
C2386 C 0.75632 0.07568 0.30783 0.0
H2387 H 0.7622 0.10505 0.34279 0.0
H2388 H 0.77937 0.08509 0.32347 0.0
S2389 S 0.70723 0.07501 0.29711 0.0
N2390 N 0.70917 0.08935 0.31407 0.0
N2391 N 0.72791 0.06778 0.29304 0.0
C2392 C 0.73744 0.07699 0.30583 0.0
C2393 C 0.72731 0.0888 0.31714 0.0
C2394 C 0.44618 0.24853 0.32321 0.0
C2395 C 0.44954 0.22992 0.32474 0.0
C2396 C 0.45827 0.26016 0.31406 0.0
C2397 C 0.47425 0.25369 0.30613 0.0
H2398 H 0.4337 0.25403 0.32834 0.0
H2399 H 0.45475 0.27426 0.31264 0.0
S2400 S 0.49036 0.20647 0.30809 0.0
N2401 N 0.47089 0.20587 0.31907 0.0
N2402 N 0.49339 0.22765 0.30155 0.0
C2403 C 0.47828 0.23531 0.30846 0.0
C2404 C 0.46596 0.22345 0.31778 0.0
C2405 C 0.30973 0.94903 0.32241 0.0
C2406 C 0.32847 0.95033 0.31907 0.0
C2407 C 0.29753 0.96091 0.31415 0.0
C2408 C 0.3035 0.97465 0.30222 0.0
H2409 H 0.30433 0.93827 0.33089 0.0
H2410 H 0.28318 0.95901 0.31676 0.0
S2411 S 0.35131 0.98498 0.29028 0.0
N2412 N 0.35256 0.96746 0.30417 0.0
N2413 N 0.32953 0.98954 0.28834 0.0
C2414 C 0.32225 0.97667 0.29941 0.0
C2415 C 0.33473 0.96454 0.30784 0.0
C2416 C 0.7474 0.10523 0.73951 0.0
C2417 C 0.72856 0.10207 0.73912 0.0
C2418 C 0.75909 0.09343 0.74864 0.0
C2419 C 0.75246 0.07792 0.75771 0.0
H2420 H 0.7531 0.11738 0.73347 0.0
H2421 H 0.77342 0.09681 0.74912 0.0
S2422 S 0.70448 0.06237 0.75899 0.0
N2423 N 0.70401 0.08132 0.74709 0.0
N2424 N 0.72593 0.05937 0.76458 0.0
C2425 C 0.73378 0.07404 0.75655 0.0
C2426 C 0.72186 0.08607 0.74723 0.0
C2427 C 0.74828 0.94873 0.32266 0.0
C2428 C 0.72952 0.95183 0.32337 0.0
C2429 C 0.76001 0.9607 0.31351 0.0
C2430 C 0.75349 0.97628 0.30475 0.0
H2431 H 0.75385 0.93654 0.32849 0.0
H2432 H 0.77427 0.95742 0.31281 0.0
S2433 S 0.7058 0.99157 0.30427 0.0
N2434 N 0.70519 0.97249 0.31596 0.0
N2435 N 0.7272 0.99476 0.29843 0.0
C2436 C 0.73491 0.98005 0.30619 0.0
C2437 C 0.72295 0.96785 0.31552 0.0
C2438 C 0.60071 0.24544 0.32347 0.0
C2439 C 0.59884 0.22665 0.32136 0.0
C2440 C 0.58879 0.2574 0.31492 0.0
C2441 C 0.57444 0.25112 0.30391 0.0
H2442 H 0.61196 0.25101 0.33116 0.0
H2443 H 0.59116 0.27177 0.31651 0.0
S2444 S 0.56248 0.20314 0.29544 0.0
N2445 N 0.58052 0.20226 0.3087 0.0
N2446 N 0.55838 0.2248 0.29228 0.0
C2447 C 0.57185 0.23236 0.30238 0.0
C2448 C 0.58401 0.22013 0.31113 0.0
C2449 C 0.31634 0.10159 0.31324 0.0
C2450 C 0.31526 0.09935 0.33214 0.0
C2451 C 0.30769 0.08946 0.30147 0.0
C2452 C 0.29764 0.07453 0.30806 0.0
H2453 H 0.32325 0.11326 0.30749 0.0
H2454 H 0.3084 0.0921 0.28704 0.0
S2455 S 0.29209 0.06154 0.35631 0.0
N2456 N 0.30463 0.08015 0.35687 0.0
N2457 N 0.28803 0.05757 0.33469 0.0
C2458 C 0.29719 0.0716 0.32687 0.0
C2459 C 0.30602 0.08397 0.33891 0.0
C2460 C 0.45262 0.79308 0.32678 0.0
C2461 C 0.4543 0.81167 0.33031 0.0
C2462 C 0.46448 0.78445 0.31494 0.0
C2463 C 0.47865 0.79401 0.30632 0.0
H2464 H 0.44164 0.78523 0.33273 0.0
H2465 H 0.46229 0.77025 0.31216 0.0
S2466 S 0.4897 0.84261 0.31184 0.0
N2467 N 0.47183 0.83918 0.32491 0.0
N2468 N 0.49416 0.82289 0.30264 0.0
C2469 C 0.48093 0.81243 0.31022 0.0
C2470 C 0.46872 0.8213 0.32216 0.0
C2471 C 0.30718 0.9502 0.73851 0.0
C2472 C 0.32586 0.95073 0.74239 0.0
C2473 C 0.29518 0.9621 0.74682 0.0
C2474 C 0.30132 0.97509 0.75934 0.0
H2475 H 0.30164 0.94002 0.72954 0.0
H2476 H 0.28085 0.96079 0.74377 0.0
S2477 S 0.34914 0.98326 0.77292 0.0
N2478 N 0.35013 0.96637 0.75849 0.0
N2479 N 0.32749 0.98844 0.77443 0.0
C2480 C 0.32005 0.97635 0.76274 0.0
C2481 C 0.33231 0.96421 0.75424 0.0
C2482 C 0.58641 0.81119 0.72861 0.0
C2483 C 0.60229 0.81944 0.73547 0.0
C2484 C 0.57409 0.80212 0.74008 0.0
C2485 C 0.57728 0.80085 0.75882 0.0
H2486 H 0.58376 0.81126 0.71417 0.0
H2487 H 0.56254 0.79521 0.7341 0.0
S2488 S 0.61597 0.82128 0.78384 0.0
N2489 N 0.6199 0.82657 0.76244 0.0
N2490 N 0.59666 0.80977 0.78392 0.0
C2491 C 0.59257 0.80985 0.76597 0.0
C2492 C 0.60508 0.81909 0.75433 0.0
C2493 C 0.44912 0.23324 0.75116 0.0
C2494 C 0.45215 0.23308 0.73237 0.0
C2495 C 0.46115 0.24215 0.76293 0.0
C2496 C 0.47673 0.2512 0.75639 0.0
H2497 H 0.43689 0.22722 0.75676 0.0
H2498 H 0.45788 0.24252 0.77721 0.0
S2499 S 0.49193 0.25302 0.70857 0.0
N2500 N 0.4728 0.24122 0.70797 0.0
N2501 N 0.49519 0.25832 0.73002 0.0
C2502 C 0.48047 0.25024 0.73776 0.0
C2503 C 0.46822 0.24115 0.72577 0.0
C2504 C 0.74898 0.72203 0.09099 0.0
C2505 C 0.73684 0.72841 0.10414 0.0
C2506 C 0.7574 0.73383 0.0785 0.0
C2507 C 0.75409 0.75247 0.07881 0.0
H2508 H 0.75233 0.70783 0.09063 0.0
H2509 H 0.76718 0.72846 0.06912 0.0
S2510 S 0.72269 0.77597 0.10962 0.0
N2511 N 0.72145 0.75461 0.11607 0.0
N2512 N 0.73698 0.77662 0.09247 0.0
C2513 C 0.74139 0.7589 0.09132 0.0
C2514 C 0.73283 0.74693 0.10399 0.0
C2515 C 0.31694 0.74549 0.10803 0.0
C2516 C 0.31554 0.72667 0.1059 0.0
C2517 C 0.30795 0.75733 0.09628 0.0
C2518 C 0.2972 0.75087 0.08186 0.0
H2519 H 0.32444 0.75113 0.11933 0.0
H2520 H 0.30904 0.7717 0.09878 0.0
S2521 S 0.29046 0.70286 0.06935 0.0
N2522 N 0.30378 0.70216 0.08735 0.0
N2523 N 0.2865 0.72444 0.06551 0.0
C2524 C 0.29633 0.73213 0.07906 0.0
C2525 C 0.30553 0.72004 0.09104 0.0
C2526 C 0.30972 0.32998 0.08997 0.0
C2527 C 0.31927 0.32346 0.10519 0.0
C2528 C 0.30117 0.31815 0.07775 0.0
C2529 C 0.30172 0.29934 0.08036 0.0
H2530 H 0.3084 0.34439 0.08779 0.0
H2531 H 0.29325 0.32378 0.06676 0.0
S2532 S 0.32605 0.27525 0.1171 0.0
N2533 N 0.32955 0.29684 0.1215 0.0
N2534 N 0.31375 0.27468 0.0984 0.0
C2535 C 0.31201 0.29263 0.09493 0.0
C2536 C 0.32072 0.30464 0.10736 0.0
C2537 C 0.7345 0.30958 0.11047 0.0
C2538 C 0.73714 0.32838 0.10914 0.0
C2539 C 0.74315 0.29779 0.09861 0.0
C2540 C 0.75478 0.30427 0.08487 0.0
H2541 H 0.72627 0.30385 0.12123 0.0
H2542 H 0.74109 0.28339 0.10052 0.0
S2543 S 0.76495 0.35237 0.07451 0.0
N2544 N 0.75109 0.35302 0.09201 0.0
N2545 N 0.76766 0.33077 0.06997 0.0
C2546 C 0.75691 0.32305 0.08283 0.0
C2547 C 0.74808 0.3351 0.09494 0.0
C2548 C 0.74146 0.33038 0.97505 0.0
C2549 C 0.73219 0.32345 0.95985 0.0
C2550 C 0.75037 0.31894 0.98734 0.0
C2551 C 0.75045 0.30015 0.98479 0.0
H2552 H 0.7423 0.34483 0.97716 0.0
H2553 H 0.75807 0.32491 0.99833 0.0
S2554 S 0.72706 0.27501 0.94811 0.0
N2555 N 0.72285 0.29642 0.94361 0.0
N2556 N 0.73932 0.27498 0.96684 0.0
C2557 C 0.74044 0.29297 0.97024 0.0
C2558 C 0.73136 0.30459 0.95775 0.0
C2559 C 0.73591 0.73016 0.966 0.0
C2560 C 0.72432 0.73966 0.95421 0.0
C2561 C 0.74744 0.73932 0.97818 0.0
C2562 C 0.74792 0.75829 0.97881 0.0
H2563 H 0.73625 0.71555 0.96562 0.0
H2564 H 0.75656 0.73156 0.98662 0.0
S2565 S 0.72023 0.78948 0.95111 0.0
N2566 N 0.71395 0.76916 0.94428 0.0
N2567 N 0.7356 0.78623 0.96706 0.0
C2568 C 0.73614 0.7679 0.96744 0.0
C2569 C 0.72434 0.75863 0.95518 0.0
C2570 C 0.32962 0.74676 0.97157 0.0
C2571 C 0.32279 0.73623 0.95719 0.0
C2572 C 0.31796 0.75547 0.98364 0.0
C2573 C 0.29904 0.75407 0.98168 0.0
H2574 H 0.34411 0.74865 0.97324 0.0
H2575 H 0.32379 0.76403 0.99402 0.0
S2576 S 0.27419 0.72722 0.94717 0.0
N2577 N 0.29578 0.72432 0.9423 0.0
N2578 N 0.27398 0.74033 0.96514 0.0
C2579 C 0.29205 0.74291 0.96792 0.0
C2580 C 0.30387 0.73407 0.95565 0.0
C2581 C 0.32336 0.31572 0.96567 0.0
C2582 C 0.3143 0.329 0.95545 0.0
C2583 C 0.31396 0.3046 0.97811 0.0
C2584 C 0.29517 0.30625 0.98058 0.0
H2585 H 0.33776 0.31373 0.96383 0.0
H2586 H 0.32129 0.29415 0.98527 0.0
S2587 S 0.26512 0.3388 0.95737 0.0
N2588 N 0.28542 0.34318 0.94893 0.0
N2589 N 0.26791 0.32226 0.97217 0.0
C2590 C 0.28605 0.31968 0.97078 0.0
C2591 C 0.29558 0.33107 0.95826 0.0
C2592 C 0.58823 0.74221 0.22703 0.0
C2593 C 0.60296 0.73238 0.23401 0.0
C2594 C 0.57601 0.75092 0.23852 0.0
C2595 C 0.57814 0.75026 0.25744 0.0
H2596 H 0.58644 0.74363 0.21253 0.0
H2597 H 0.56542 0.75904 0.23253 0.0
S2598 S 0.6134 0.72513 0.2827 0.0
N2599 N 0.61823 0.72167 0.26119 0.0
N2600 N 0.59513 0.73777 0.2827 0.0
C2601 C 0.59218 0.73968 0.26462 0.0
C2602 C 0.60461 0.7308 0.25295 0.0
C2603 C 0.32873 0.6041 0.26438 0.0
C2604 C 0.33116 0.60334 0.24551 0.0
C2605 C 0.31689 0.59213 0.27334 0.0
C2606 C 0.30711 0.57879 0.26383 0.0
H2607 H 0.33555 0.61447 0.27223 0.0
H2608 H 0.31506 0.59357 0.28781 0.0
S2609 S 0.30956 0.5702 0.21451 0.0
N2610 N 0.32358 0.58744 0.21775 0.0
N2611 N 0.3012 0.56499 0.23463 0.0
C2612 C 0.30991 0.57739 0.24508 0.0
C2613 C 0.3219 0.58969 0.23591 0.0
C2614 C 0.45055 0.29601 0.23119 0.0
C2615 C 0.45089 0.315 0.23018 0.0
C2616 C 0.46232 0.28663 0.24272 0.0
C2617 C 0.47508 0.29582 0.25357 0.0
H2618 H 0.44066 0.28834 0.22345 0.0
H2619 H 0.46115 0.27205 0.24349 0.0
S2620 S 0.48237 0.34538 0.25516 0.0
N2621 N 0.46569 0.34262 0.24041 0.0
N2622 N 0.48787 0.32491 0.26209 0.0
C2623 C 0.47605 0.31474 0.25224 0.0
C2624 C 0.46391 0.32435 0.2406 0.0
C2625 C 0.73447 0.46557 0.23865 0.0
C2626 C 0.72504 0.45213 0.24856 0.0
C2627 C 0.74642 0.47772 0.24728 0.0
C2628 C 0.74952 0.47665 0.26605 0.0
H2629 H 0.73275 0.46653 0.22411 0.0
H2630 H 0.75382 0.48753 0.23915 0.0
S2631 S 0.72814 0.44421 0.29813 0.0
N2632 N 0.71948 0.43878 0.27823 0.0
N2633 N 0.74197 0.46151 0.29432 0.0
C2634 C 0.73992 0.46357 0.27613 0.0
C2635 C 0.72767 0.45134 0.26742 0.0
C2636 C 0.58741 0.30197 0.83635 0.0
C2637 C 0.60088 0.31436 0.83055 0.0
C2638 C 0.57554 0.29364 0.82395 0.0
C2639 C 0.57684 0.29729 0.8053 0.0
H2640 H 0.58625 0.29844 0.85056 0.0
H2641 H 0.56578 0.28375 0.82891 0.0
S2642 S 0.60901 0.32931 0.78316 0.0
N2643 N 0.61433 0.33023 0.80486 0.0
N2644 N 0.59183 0.3149 0.78172 0.0
C2645 C 0.58976 0.31015 0.79941 0.0
C2646 C 0.60181 0.31861 0.81198 0.0
C2647 C 0.75785 0.5972 0.83454 0.0
C2648 C 0.73878 0.59777 0.83447 0.0
C2649 C 0.76723 0.5852 0.82347 0.0
C2650 C 0.75794 0.57311 0.81201 0.0
H2651 H 0.76565 0.6066 0.8427 0.0
H2652 H 0.78191 0.58572 0.82349 0.0
S2653 S 0.70807 0.56815 0.80769 0.0
N2654 N 0.71093 0.5844 0.82268 0.0
N2655 N 0.72863 0.56183 0.80184 0.0
C2656 C 0.7389 0.57298 0.81232 0.0
C2657 C 0.72931 0.58534 0.8235 0.0
C2658 C 0.44867 0.74842 0.82261 0.0
C2659 C 0.45184 0.72979 0.82431 0.0
C2660 C 0.46083 0.75983 0.81331 0.0
C2661 C 0.47671 0.75312 0.80537 0.0
H2662 H 0.43625 0.75409 0.82772 0.0
H2663 H 0.45743 0.77395 0.81173 0.0
S2664 S 0.49236 0.70576 0.8078 0.0
N2665 N 0.47294 0.70547 0.81885 0.0
N2666 N 0.49557 0.72685 0.80102 0.0
C2667 C 0.48058 0.73473 0.8079 0.0
C2668 C 0.46819 0.72309 0.81739 0.0
C2669 C 0.33203 0.46578 0.80774 0.0
C2670 C 0.32593 0.45278 0.82046 0.0
C2671 C 0.32 0.478 0.79956 0.0
C2672 C 0.30143 0.47752 0.8037 0.0
H2673 H 0.34615 0.46623 0.80375 0.0
H2674 H 0.3251 0.48727 0.78932 0.0
S2675 S 0.27865 0.44694 0.83672 0.0
N2676 N 0.30008 0.4408 0.83722 0.0
N2677 N 0.27766 0.46385 0.8221 0.0
C2678 C 0.29531 0.46516 0.81695 0.0
C2679 C 0.3075 0.45278 0.82527 0.0
C2680 C 0.74159 0.59079 0.23564 0.0
C2681 C 0.72734 0.59999 0.2441 0.0
C2682 C 0.75269 0.57884 0.24545 0.0
C2683 C 0.75002 0.57592 0.26409 0.0
H2684 H 0.74432 0.59303 0.22139 0.0
H2685 H 0.76381 0.5724 0.23861 0.0
S2686 S 0.71464 0.59645 0.2926 0.0
N2687 N 0.71119 0.60509 0.27223 0.0
N2688 N 0.73193 0.5827 0.29051 0.0
C2689 C 0.73562 0.5847 0.27258 0.0
C2690 C 0.7243 0.59671 0.26264 0.0
C2691 C 0.74388 0.44807 0.82406 0.0
C2692 C 0.72503 0.44942 0.82159 0.0
C2693 C 0.75594 0.45993 0.81526 0.0
C2694 C 0.74971 0.47367 0.80362 0.0
H2695 H 0.74942 0.43732 0.83232 0.0
H2696 H 0.77036 0.45805 0.81726 0.0
S2697 S 0.70162 0.48401 0.79377 0.0
N2698 N 0.70063 0.46651 0.80773 0.0
N2699 N 0.72339 0.48855 0.79085 0.0
C2700 C 0.73089 0.47569 0.80161 0.0
C2701 C 0.71856 0.46359 0.81061 0.0
C2702 C 0.601 0.72475 0.79761 0.0
C2703 C 0.60061 0.72251 0.81655 0.0
C2704 C 0.58917 0.73657 0.78874 0.0
C2705 C 0.57631 0.74651 0.79838 0.0
H2706 H 0.61099 0.7178 0.78962 0.0
H2707 H 0.59039 0.73829 0.7742 0.0
S2708 S 0.56876 0.74465 0.84795 0.0
N2709 N 0.58555 0.73052 0.84456 0.0
N2710 N 0.56331 0.75278 0.8278 0.0
C2711 C 0.57525 0.74391 0.81722 0.0
C2712 C 0.58743 0.73196 0.82632 0.0
C2713 C 0.29337 0.60031 0.83404 0.0
C2714 C 0.31245 0.60129 0.8343 0.0
C2715 C 0.2841 0.58832 0.82258 0.0
C2716 C 0.29349 0.57668 0.81105 0.0
H2717 H 0.28551 0.60935 0.84228 0.0
H2718 H 0.26941 0.58847 0.82242 0.0
S2719 S 0.34339 0.57297 0.80739 0.0
N2720 N 0.34041 0.58885 0.82266 0.0
N2721 N 0.32289 0.5663 0.80109 0.0
C2722 C 0.31253 0.57699 0.81163 0.0
C2723 C 0.32202 0.58934 0.82321 0.0
C2724 C 0.46732 0.3096 0.83164 0.0
C2725 C 0.4523 0.31901 0.8247 0.0
C2726 C 0.47943 0.30076 0.82013 0.0
C2727 C 0.47688 0.30087 0.80126 0.0
H2728 H 0.46944 0.30861 0.84613 0.0
H2729 H 0.49028 0.29298 0.8261 0.0
S2730 S 0.44068 0.32473 0.77608 0.0
N2731 N 0.43627 0.32872 0.79758 0.0
N2732 N 0.45915 0.31237 0.77603 0.0
C2733 C 0.46251 0.31102 0.79409 0.0
C2734 C 0.45021 0.32003 0.80577 0.0
C2735 C 0.3298 0.4695 0.24594 0.0
C2736 C 0.32272 0.45453 0.23643 0.0
C2737 C 0.31838 0.48175 0.25465 0.0
C2738 C 0.29944 0.47943 0.25429 0.0
H2739 H 0.34433 0.47142 0.24716 0.0
H2740 H 0.32445 0.49249 0.26259 0.0
S2741 S 0.2739 0.44351 0.23006 0.0
N2742 N 0.29539 0.43885 0.22633 0.0
N2743 N 0.27403 0.46199 0.24243 0.0
C2744 C 0.29215 0.46517 0.24398 0.0
C2745 C 0.30374 0.45271 0.23511 0.0
C2746 C 0.58449 0.31169 0.23022 0.0
C2747 C 0.60004 0.32068 0.23694 0.0
C2748 C 0.57216 0.30294 0.24191 0.0
C2749 C 0.57499 0.30274 0.26074 0.0
H2750 H 0.58213 0.31095 0.21576 0.0
H2751 H 0.56089 0.29545 0.23609 0.0
S2752 S 0.61268 0.32538 0.28538 0.0
N2753 N 0.61693 0.32962 0.26382 0.0
N2754 N 0.59364 0.31343 0.2857 0.0
C2755 C 0.58992 0.31246 0.2677 0.0
C2756 C 0.60245 0.32138 0.25583 0.0
C2757 C 0.46692 0.73343 0.23384 0.0
C2758 C 0.4537 0.74327 0.22431 0.0
C2759 C 0.47925 0.74209 0.24556 0.0
C2760 C 0.47861 0.76083 0.24831 0.0
H2761 H 0.4675 0.7189 0.23248 0.0
H2762 H 0.48878 0.73397 0.25315 0.0
S2763 S 0.44709 0.79281 0.22626 0.0
N2764 N 0.44114 0.77289 0.21811 0.0
N2765 N 0.46429 0.78905 0.24007 0.0
C2766 C 0.46587 0.77087 0.23845 0.0
C2767 C 0.45343 0.76213 0.22646 0.0
loop_
_geom_bond_atom_site_label_1
_geom_bond_atom_site_label_2
_geom_bond_distance
_geom_bond_site_symmetry_2
_ccdc_geom_bond_type
C0 C1 1.264 . S
C0 C5 1.479 . S
C0 C10 1.465 . S
C1 C0 1.264 . S
C1 C3 1.339 . S
C1 H28 0.931 . S
C2 C3 1.395 . S
C2 C4 1.320 . S
C3 C1 1.339 . S
C3 C2 1.395 . S
C3 H29 0.929 . S
C4 C2 1.320 . S
C4 C5 1.405 . S
C4 H30 0.930 . S
C5 C0 1.479 . S
C5 C4 1.405 . S
C5 H31 0.931 . S
U6 O7 2.454 . S
U6 O8 2.458 . S
U6 C9 2.984 . S
U6 C10 2.847 . S
U6 C23 2.882 . S
U6 O24 2.441 . S
U6 O25 2.420 . S
U6 O26 2.455 . S
U6 O27 2.449 . S
O7 U6 2.454 . S
O7 C9 1.353 . S
O8 U6 2.458 . S
O8 C9 1.286 . S
C9 U6 2.984 . S
C9 O7 1.353 . S
C9 O8 1.286 . S
C9 C11 1.363 . S
C10 C0 1.465 . S
C10 U6 2.847 . S
C10 O24 1.249 . S
C10 O25 1.202 . S
C11 C9 1.363 . S
C11 C13 1.408 . S
C11 C16 1.342 . S
C12 C13 1.310 . S
C12 C15 1.461 . S
C12 H32 0.932 . S
C13 C11 1.408 . S
C13 C12 1.310 . S
C13 H33 0.930 . S
C14 C15 1.474 . S
C14 C16 1.285 . S
C14 H34 0.929 . S
C15 C12 1.461 . S
C15 C14 1.474 . S
C16 C11 1.342 . S
C16 C14 1.285 . S
C16 H35 0.930 . S
C17 C20 1.424 . S
C17 C22 1.245 . S
C17 C23 1.428 . S
C18 C21 1.260 . S
C18 C22 1.477 . S
C18 H36 0.932 . S
C19 C20 1.384 . S
C19 C21 1.479 . S
C19 H37 0.929 . S
C20 C17 1.424 . S
C20 C19 1.384 . S
C20 H38 0.928 . S
C21 C18 1.260 . S
C21 C19 1.479 . S
C22 C17 1.245 . S
C22 C18 1.477 . S
C22 H39 0.932 . S
C23 U6 2.882 . S
C23 C17 1.428 . S
C23 O26 1.301 . S
C23 O27 1.282 . S
O24 U6 2.441 . S
O24 C10 1.249 . S
O25 U6 2.420 . S
O25 C10 1.202 . S
O26 U6 2.455 . S
O26 C23 1.301 . S
O27 U6 2.449 . S
O27 C23 1.282 . S
H28 C1 0.931 . S
H29 C3 0.929 . S
H30 C4 0.930 . S
H31 C5 0.931 . S
H32 C12 0.932 . S
H33 C13 0.930 . S
H34 C14 0.929 . S
H35 C16 0.930 . S
H36 C18 0.932 . S
H37 C19 0.929 . S
H38 C20 0.928 . S
H39 C22 0.932 . S
C40 C41 1.264 . S
C40 C45 1.479 . S
C40 C50 1.465 . S
C41 C40 1.264 . S
C41 C43 1.339 . S
C41 H68 0.931 . S
C42 C43 1.395 . S
C42 C44 1.320 . S
C43 C41 1.339 . S
C43 C42 1.395 . S
C43 H69 0.929 . S
C44 C42 1.320 . S
C44 C45 1.405 . S
C44 H70 0.930 . S
C45 C40 1.479 . S
C45 C44 1.405 . S
C45 H71 0.931 . S
U46 O47 2.454 . S
U46 O48 2.458 . S
U46 C49 2.984 . S
U46 C50 2.847 . S
U46 C63 2.882 . S
U46 O64 2.441 . S
U46 O65 2.420 . S
U46 O66 2.455 . S
U46 O67 2.449 . S
O47 U46 2.454 . S
O47 C49 1.353 . S
O48 U46 2.458 . S
O48 C49 1.286 . S
C49 U46 2.984 . S
C49 O47 1.353 . S
C49 O48 1.286 . S
C49 C51 1.363 . S
C50 C40 1.465 . S
C50 U46 2.847 . S
C50 O64 1.249 . S
C50 O65 1.202 . S
C51 C49 1.363 . S
C51 C53 1.408 . S
C51 C56 1.342 . S
C52 C53 1.310 . S
C52 C55 1.461 . S
C52 H72 0.932 . S
C53 C51 1.408 . S
C53 C52 1.310 . S
C53 H73 0.930 . S
C54 C55 1.474 . S
C54 C56 1.285 . S
C54 H74 0.929 . S
C55 C52 1.461 . S
C55 C54 1.474 . S
C56 C51 1.342 . S
C56 C54 1.285 . S
C56 H75 0.930 . S
C57 C60 1.424 . S
C57 C62 1.245 . S
C57 C63 1.428 . S
C58 C61 1.260 . S
C58 C62 1.477 . S
C58 H76 0.932 . S
C59 C60 1.384 . S
C59 C61 1.479 . S
C59 H77 0.929 . S
C60 C57 1.424 . S
C60 C59 1.384 . S
C60 H78 0.928 . S
C61 C58 1.260 . S
C61 C59 1.479 . S
C62 C57 1.245 . S
C62 C58 1.477 . S
C62 H79 0.932 . S
C63 U46 2.882 . S
C63 C57 1.428 . S
C63 O66 1.301 . S
C63 O67 1.282 . S
O64 U46 2.441 . S
O64 C50 1.249 . S
O65 U46 2.420 . S
O65 C50 1.202 . S
O66 U46 2.455 . S
O66 C63 1.301 . S
O67 U46 2.449 . S
O67 C63 1.282 . S
H68 C41 0.931 . S
H69 C43 0.929 . S
H70 C44 0.930 . S
H71 C45 0.931 . S
H72 C52 0.932 . S
H73 C53 0.930 . S
H74 C54 0.929 . S
H75 C56 0.930 . S
H76 C58 0.932 . S
H77 C59 0.929 . S
H78 C60 0.928 . S
H79 C62 0.932 . S
C80 C81 1.264 . S
C80 C85 1.479 . S
C80 C90 1.465 . S
C81 C80 1.264 . S
C81 C83 1.339 . S
C81 H108 0.931 . S
C82 C83 1.395 . S
C82 C84 1.320 . S
C83 C81 1.339 . S
C83 C82 1.395 . S
C83 H109 0.929 . S
C84 C82 1.320 . S
C84 C85 1.405 . S
C84 H110 0.930 . S
C85 C80 1.479 . S
C85 C84 1.405 . S
C85 H111 0.931 . S
U86 O87 2.454 . S
U86 O88 2.458 . S
U86 C89 2.984 . S
U86 C90 2.847 . S
U86 C103 2.882 . S
U86 O104 2.441 . S
U86 O105 2.420 . S
U86 O106 2.455 . S
U86 O107 2.449 . S
O87 U86 2.454 . S
O87 C89 1.353 . S
O88 U86 2.458 . S
O88 C89 1.286 . S
C89 U86 2.984 . S
C89 O87 1.353 . S
C89 O88 1.286 . S
C89 C91 1.363 . S
C90 C80 1.465 . S
C90 U86 2.847 . S
C90 O104 1.249 . S
C90 O105 1.202 . S
C91 C89 1.363 . S
C91 C93 1.408 . S
C91 C96 1.342 . S
C92 C93 1.310 . S
C92 C95 1.461 . S
C92 H112 0.932 . S
C93 C91 1.408 . S
C93 C92 1.310 . S
C93 H113 0.930 . S
C94 C95 1.474 . S
C94 C96 1.285 . S
C94 H114 0.929 . S
C95 C92 1.461 . S
C95 C94 1.474 . S
C96 C91 1.342 . S
C96 C94 1.285 . S
C96 H115 0.930 . S
C97 C100 1.424 . S
C97 C102 1.245 . S
C97 C103 1.428 . S
C98 C101 1.260 . S
C98 C102 1.477 . S
C98 H116 0.932 . S
C99 C100 1.384 . S
C99 C101 1.479 . S
C99 H117 0.929 . S
C100 C97 1.424 . S
C100 C99 1.384 . S
C100 H118 0.928 . S
C101 C98 1.260 . S
C101 C99 1.479 . S
C102 C97 1.245 . S
C102 C98 1.477 . S
C102 H119 0.932 . S
C103 U86 2.882 . S
C103 C97 1.428 . S
C103 O106 1.301 . S
C103 O107 1.282 . S
O104 U86 2.441 . S
O104 C90 1.249 . S
O105 U86 2.420 . S
O105 C90 1.202 . S
O106 U86 2.455 . S
O106 C103 1.301 . S
O107 U86 2.449 . S
O107 C103 1.282 . S
H108 C81 0.931 . S
H109 C83 0.929 . S
H110 C84 0.930 . S
H111 C85 0.931 . S
H112 C92 0.932 . S
H113 C93 0.930 . S
H114 C94 0.929 . S
H115 C96 0.930 . S
H116 C98 0.932 . S
H117 C99 0.929 . S
H118 C100 0.928 . S
H119 C102 0.932 . S
C120 C121 1.264 . S
C120 C125 1.479 . S
C120 C130 1.465 . S
C121 C120 1.264 . S
C121 C123 1.339 . S
C121 H148 0.931 . S
C122 C123 1.395 . S
C122 C124 1.320 . S
C123 C121 1.339 . S
C123 C122 1.395 . S
C123 H149 0.929 . S
C124 C122 1.320 . S
C124 C125 1.405 . S
C124 H150 0.930 . S
C125 C120 1.479 . S
C125 C124 1.405 . S
C125 H151 0.931 . S
U126 O127 2.454 . S
U126 O128 2.458 . S
U126 C129 2.984 . S
U126 C130 2.847 . S
U126 C143 2.882 . S
U126 O144 2.441 . S
U126 O145 2.420 . S
U126 O146 2.455 . S
U126 O147 2.449 . S
O127 U126 2.454 . S
O127 C129 1.353 . S
O128 U126 2.458 . S
O128 C129 1.286 . S
C129 U126 2.984 . S
C129 O127 1.353 . S
C129 O128 1.286 . S
C129 C131 1.363 . S
C130 C120 1.465 . S
C130 U126 2.847 . S
C130 O144 1.249 . S
C130 O145 1.202 . S
C131 C129 1.363 . S
C131 C133 1.408 . S
C131 C136 1.342 . S
C132 C133 1.310 . S
C132 C135 1.461 . S
C132 H152 0.932 . S
C133 C131 1.408 . S
C133 C132 1.310 . S
C133 H153 0.930 . S
C134 C135 1.474 . S
C134 C136 1.285 . S
C134 H154 0.929 . S
C135 C132 1.461 . S
C135 C134 1.474 . S
C136 C131 1.342 . S
C136 C134 1.285 . S
C136 H155 0.930 . S
C137 C140 1.424 . S
C137 C142 1.245 . S
C137 C143 1.428 . S
C138 C141 1.260 . S
C138 C142 1.477 . S
C138 H156 0.932 . S
C139 C140 1.384 . S
C139 C141 1.479 . S
C139 H157 0.929 . S
C140 C137 1.424 . S
C140 C139 1.384 . S
C140 H158 0.928 . S
C141 C138 1.260 . S
C141 C139 1.479 . S
C142 C137 1.245 . S
C142 C138 1.477 . S
C142 H159 0.932 . S
C143 U126 2.882 . S
C143 C137 1.428 . S
C143 O146 1.301 . S
C143 O147 1.282 . S
O144 U126 2.441 . S
O144 C130 1.249 . S
O145 U126 2.420 . S
O145 C130 1.202 . S
O146 U126 2.455 . S
O146 C143 1.301 . S
O147 U126 2.449 . S
O147 C143 1.282 . S
H148 C121 0.931 . S
H149 C123 0.929 . S
H150 C124 0.930 . S
H151 C125 0.931 . S
H152 C132 0.932 . S
H153 C133 0.930 . S
H154 C134 0.929 . S
H155 C136 0.930 . S
H156 C138 0.932 . S
H157 C139 0.929 . S
H158 C140 0.928 . S
H159 C142 0.932 . S
C160 C161 1.264 . S
C160 C165 1.479 . S
C160 C170 1.465 . S
C161 C160 1.264 . S
C161 C163 1.339 . S
C161 H188 0.931 . S
C162 C163 1.395 . S
C162 C164 1.320 . S
C163 C161 1.339 . S
C163 C162 1.395 . S
C163 H189 0.929 . S
C164 C162 1.320 . S
C164 C165 1.405 . S
C164 H190 0.930 . S
C165 C160 1.479 . S
C165 C164 1.405 . S
C165 H191 0.931 . S
U166 O167 2.454 . S
U166 O168 2.458 . S
U166 C169 2.984 . S
U166 C170 2.847 . S
U166 C183 2.882 . S
U166 O184 2.441 . S
U166 O185 2.420 . S
U166 O186 2.455 . S
U166 O187 2.449 . S
O167 U166 2.454 . S
O167 C169 1.353 . S
O168 U166 2.458 . S
O168 C169 1.286 . S
C169 U166 2.984 . S
C169 O167 1.353 . S
C169 O168 1.286 . S
C169 C171 1.363 . S
C170 C160 1.465 . S
C170 U166 2.847 . S
C170 O184 1.249 . S
C170 O185 1.202 . S
C171 C169 1.363 . S
C171 C173 1.408 . S
C171 C176 1.342 . S
C172 C173 1.310 . S
C172 C175 1.461 . S
C172 H192 0.932 . S
C173 C171 1.408 . S
C173 C172 1.310 . S
C173 H193 0.930 . S
C174 C175 1.474 . S
C174 C176 1.285 . S
C174 H194 0.929 . S
C175 C172 1.461 . S
C175 C174 1.474 . S
C176 C171 1.342 . S
C176 C174 1.285 . S
C176 H195 0.930 . S
C177 C180 1.424 . S
C177 C182 1.245 . S
C177 C183 1.428 . S
C178 C181 1.260 . S
C178 C182 1.477 . S
C178 H196 0.932 . S
C179 C180 1.384 . S
C179 C181 1.479 . S
C179 H197 0.929 . S
C180 C177 1.424 . S
C180 C179 1.384 . S
C180 H198 0.928 . S
C181 C178 1.260 . S
C181 C179 1.479 . S
C182 C177 1.245 . S
C182 C178 1.477 . S
C182 H199 0.932 . S
C183 U166 2.882 . S
C183 C177 1.428 . S
C183 O186 1.301 . S
C183 O187 1.282 . S
O184 U166 2.441 . S
O184 C170 1.249 . S
O185 U166 2.420 . S
O185 C170 1.202 . S
O186 U166 2.455 . S
O186 C183 1.301 . S
O187 U166 2.449 . S
O187 C183 1.282 . S
H188 C161 0.931 . S
H189 C163 0.929 . S
H190 C164 0.930 . S
H191 C165 0.931 . S
H192 C172 0.932 . S
H193 C173 0.930 . S
H194 C174 0.929 . S
H195 C176 0.930 . S
H196 C178 0.932 . S
H197 C179 0.929 . S
H198 C180 0.928 . S
H199 C182 0.932 . S
C200 C201 1.264 . S
C200 C205 1.479 . S
C200 C210 1.465 . S
C201 C200 1.264 . S
C201 C203 1.339 . S
C201 H228 0.931 . S
C202 C203 1.395 . S
C202 C204 1.320 . S
C203 C201 1.339 . S
C203 C202 1.395 . S
C203 H229 0.929 . S
C204 C202 1.320 . S
C204 C205 1.405 . S
C204 H230 0.930 . S
C205 C200 1.479 . S
C205 C204 1.405 . S
C205 H231 0.931 . S
U206 O207 2.454 . S
U206 O208 2.458 . S
U206 C209 2.984 . S
U206 C210 2.847 . S
U206 C223 2.882 . S
U206 O224 2.441 . S
U206 O225 2.420 . S
U206 O226 2.455 . S
U206 O227 2.449 . S
O207 U206 2.454 . S
O207 C209 1.353 . S
O208 U206 2.458 . S
O208 C209 1.286 . S
C209 U206 2.984 . S
C209 O207 1.353 . S
C209 O208 1.286 . S
C209 C211 1.363 . S
C210 C200 1.465 . S
C210 U206 2.847 . S
C210 O224 1.249 . S
C210 O225 1.202 . S
C211 C209 1.363 . S
C211 C213 1.408 . S
C211 C216 1.342 . S
C212 C213 1.310 . S
C212 C215 1.461 . S
C212 H232 0.932 . S
C213 C211 1.408 . S
C213 C212 1.310 . S
C213 H233 0.930 . S
C214 C215 1.474 . S
C214 C216 1.285 . S
C214 H234 0.929 . S
C215 C212 1.461 . S
C215 C214 1.474 . S
C216 C211 1.342 . S
C216 C214 1.285 . S
C216 H235 0.930 . S
C217 C220 1.424 . S
C217 C222 1.245 . S
C217 C223 1.428 . S
C218 C221 1.260 . S
C218 C222 1.477 . S
C218 H236 0.932 . S
C219 C220 1.384 . S
C219 C221 1.479 . S
C219 H237 0.929 . S
C220 C217 1.424 . S
C220 C219 1.384 . S
C220 H238 0.928 . S
C221 C218 1.260 . S
C221 C219 1.479 . S
C222 C217 1.245 . S
C222 C218 1.477 . S
C222 H239 0.932 . S
C223 U206 2.882 . S
C223 C217 1.428 . S
C223 O226 1.301 . S
C223 O227 1.282 . S
O224 U206 2.441 . S
O224 C210 1.249 . S
O225 U206 2.420 . S
O225 C210 1.202 . S
O226 U206 2.455 . S
O226 C223 1.301 . S
O227 U206 2.449 . S
O227 C223 1.282 . S
H228 C201 0.931 . S
H229 C203 0.929 . S
H230 C204 0.930 . S
H231 C205 0.931 . S
H232 C212 0.932 . S
H233 C213 0.930 . S
H234 C214 0.929 . S
H235 C216 0.930 . S
H236 C218 0.932 . S
H237 C219 0.929 . S
H238 C220 0.928 . S
H239 C222 0.932 . S
C240 C241 1.264 . S
C240 C245 1.479 . S
C240 C250 1.465 . S
C241 C240 1.264 . S
C241 C243 1.339 . S
C241 H268 0.931 . S
C242 C243 1.395 . S
C242 C244 1.320 . S
C243 C241 1.339 . S
C243 C242 1.395 . S
C243 H269 0.929 . S
C244 C242 1.320 . S
C244 C245 1.405 . S
C244 H270 0.930 . S
C245 C240 1.479 . S
C245 C244 1.405 . S
C245 H271 0.931 . S
U246 O247 2.454 . S
U246 O248 2.458 . S
U246 C249 2.984 . S
U246 C250 2.847 . S
U246 C263 2.882 . S
U246 O264 2.441 . S
U246 O265 2.420 . S
U246 O266 2.455 . S
U246 O267 2.449 . S
O247 U246 2.454 . S
O247 C249 1.353 . S
O248 U246 2.458 . S
O248 C249 1.286 . S
C249 U246 2.984 . S
C249 O247 1.353 . S
C249 O248 1.286 . S
C249 C251 1.363 . S
C250 C240 1.465 . S
C250 U246 2.847 . S
C250 O264 1.249 . S
C250 O265 1.202 . S
C251 C249 1.363 . S
C251 C253 1.408 . S
C251 C256 1.342 . S
C252 C253 1.310 . S
C252 C255 1.461 . S
C252 H272 0.932 . S
C253 C251 1.408 . S
C253 C252 1.310 . S
C253 H273 0.930 . S
C254 C255 1.474 . S
C254 C256 1.285 . S
C254 H274 0.929 . S
C255 C252 1.461 . S
C255 C254 1.474 . S
C256 C251 1.342 . S
C256 C254 1.285 . S
C256 H275 0.930 . S
C257 C260 1.424 . S
C257 C262 1.245 . S
C257 C263 1.428 . S
C258 C261 1.260 . S
C258 C262 1.477 . S
C258 H276 0.932 . S
C259 C260 1.384 . S
C259 C261 1.479 . S
C259 H277 0.929 . S
C260 C257 1.424 . S
C260 C259 1.384 . S
C260 H278 0.928 . S
C261 C258 1.260 . S
C261 C259 1.479 . S
C262 C257 1.245 . S
C262 C258 1.477 . S
C262 H279 0.932 . S
C263 U246 2.882 . S
C263 C257 1.428 . S
C263 O266 1.301 . S
C263 O267 1.282 . S
O264 U246 2.441 . S
O264 C250 1.249 . S
O265 U246 2.420 . S
O265 C250 1.202 . S
O266 U246 2.455 . S
O266 C263 1.301 . S
O267 U246 2.449 . S
O267 C263 1.282 . S
H268 C241 0.931 . S
H269 C243 0.929 . S
H270 C244 0.930 . S
H271 C245 0.931 . S
H272 C252 0.932 . S
H273 C253 0.930 . S
H274 C254 0.929 . S
H275 C256 0.930 . S
H276 C258 0.932 . S
H277 C259 0.929 . S
H278 C260 0.928 . S
H279 C262 0.932 . S
C280 C281 1.264 . S
C280 C285 1.479 . S
C280 C290 1.465 . S
C281 C280 1.264 . S
C281 C283 1.339 . S
C281 H308 0.931 . S
C282 C283 1.395 . S
C282 C284 1.320 . S
C283 C281 1.339 . S
C283 C282 1.395 . S
C283 H309 0.929 . S
C284 C282 1.320 . S
C284 C285 1.405 . S
C284 H310 0.930 . S
C285 C280 1.479 . S
C285 C284 1.405 . S
C285 H311 0.931 . S
U286 O287 2.454 . S
U286 O288 2.458 . S
U286 C289 2.984 . S
U286 C290 2.847 . S
U286 C303 2.882 . S
U286 O304 2.441 . S
U286 O305 2.420 . S
U286 O306 2.455 . S
U286 O307 2.449 . S
O287 U286 2.454 . S
O287 C289 1.353 . S
O288 U286 2.458 . S
O288 C289 1.286 . S
C289 U286 2.984 . S
C289 O287 1.353 . S
C289 O288 1.286 . S
C289 C291 1.363 . S
C290 C280 1.465 . S
C290 U286 2.847 . S
C290 O304 1.249 . S
C290 O305 1.202 . S
C291 C289 1.363 . S
C291 C293 1.408 . S
C291 C296 1.342 . S
C292 C293 1.310 . S
C292 C295 1.461 . S
C292 H312 0.932 . S
C293 C291 1.408 . S
C293 C292 1.310 . S
C293 H313 0.930 . S
C294 C295 1.474 . S
C294 C296 1.285 . S
C294 H314 0.929 . S
C295 C292 1.461 . S
C295 C294 1.474 . S
C296 C291 1.342 . S
C296 C294 1.285 . S
C296 H315 0.930 . S
C297 C300 1.424 . S
C297 C302 1.245 . S
C297 C303 1.428 . S
C298 C301 1.260 . S
C298 C302 1.477 . S
C298 H316 0.932 . S
C299 C300 1.384 . S
C299 C301 1.479 . S
C299 H317 0.929 . S
C300 C297 1.424 . S
C300 C299 1.384 . S
C300 H318 0.928 . S
C301 C298 1.260 . S
C301 C299 1.479 . S
C302 C297 1.245 . S
C302 C298 1.477 . S
C302 H319 0.932 . S
C303 U286 2.882 . S
C303 C297 1.428 . S
C303 O306 1.301 . S
C303 O307 1.282 . S
O304 U286 2.441 . S
O304 C290 1.249 . S
O305 U286 2.420 . S
O305 C290 1.202 . S
O306 U286 2.455 . S
O306 C303 1.301 . S
O307 U286 2.449 . S
O307 C303 1.282 . S
H308 C281 0.931 . S
H309 C283 0.929 . S
H310 C284 0.930 . S
H311 C285 0.931 . S
H312 C292 0.932 . S
H313 C293 0.930 . S
H314 C294 0.929 . S
H315 C296 0.930 . S
H316 C298 0.932 . S
H317 C299 0.929 . S
H318 C300 0.928 . S
H319 C302 0.932 . S
C320 C321 1.264 . S
C320 C325 1.479 . S
C320 C330 1.465 . S
C321 C320 1.264 . S
C321 C323 1.339 . S
C321 H348 0.931 . S
C322 C323 1.395 . S
C322 C324 1.320 . S
C323 C321 1.339 . S
C323 C322 1.395 . S
C323 H349 0.929 . S
C324 C322 1.320 . S
C324 C325 1.405 . S
C324 H350 0.930 . S
C325 C320 1.479 . S
C325 C324 1.405 . S
C325 H351 0.931 . S
U326 O327 2.454 . S
U326 O328 2.458 . S
U326 C329 2.984 . S
U326 C330 2.847 . S
U326 C343 2.882 . S
U326 O344 2.441 . S
U326 O345 2.420 . S
U326 O346 2.455 . S
U326 O347 2.449 . S
O327 U326 2.454 . S
O327 C329 1.353 . S
O328 U326 2.458 . S
O328 C329 1.286 . S
C329 U326 2.984 . S
C329 O327 1.353 . S
C329 O328 1.286 . S
C329 C331 1.363 . S
C330 C320 1.465 . S
C330 U326 2.847 . S
C330 O344 1.249 . S
C330 O345 1.202 . S
C331 C329 1.363 . S
C331 C333 1.408 . S
C331 C336 1.342 . S
C332 C333 1.310 . S
C332 C335 1.461 . S
C332 H352 0.932 . S
C333 C331 1.408 . S
C333 C332 1.310 . S
C333 H353 0.930 . S
C334 C335 1.474 . S
C334 C336 1.285 . S
C334 H354 0.929 . S
C335 C332 1.461 . S
C335 C334 1.474 . S
C336 C331 1.342 . S
C336 C334 1.285 . S
C336 H355 0.930 . S
C337 C340 1.424 . S
C337 C342 1.245 . S
C337 C343 1.428 . S
C338 C341 1.260 . S
C338 C342 1.477 . S
C338 H356 0.932 . S
C339 C340 1.384 . S
C339 C341 1.479 . S
C339 H357 0.929 . S
C340 C337 1.424 . S
C340 C339 1.384 . S
C340 H358 0.928 . S
C341 C338 1.260 . S
C341 C339 1.479 . S
C342 C337 1.245 . S
C342 C338 1.477 . S
C342 H359 0.932 . S
C343 U326 2.882 . S
C343 C337 1.428 . S
C343 O346 1.301 . S
C343 O347 1.282 . S
O344 U326 2.441 . S
O344 C330 1.249 . S
O345 U326 2.420 . S
O345 C330 1.202 . S
O346 U326 2.455 . S
O346 C343 1.301 . S
O347 U326 2.449 . S
O347 C343 1.282 . S
H348 C321 0.931 . S
H349 C323 0.929 . S
H350 C324 0.930 . S
H351 C325 0.931 . S
H352 C332 0.932 . S
H353 C333 0.930 . S
H354 C334 0.929 . S
H355 C336 0.930 . S
H356 C338 0.932 . S
H357 C339 0.929 . S
H358 C340 0.928 . S
H359 C342 0.932 . S
C360 C361 1.264 . S
C360 C365 1.479 . S
C360 C370 1.465 . S
C361 C360 1.264 . S
C361 C363 1.339 . S
C361 H388 0.931 . S
C362 C363 1.395 . S
C362 C364 1.320 . S
C363 C361 1.339 . S
C363 C362 1.395 . S
C363 H389 0.929 . S
C364 C362 1.320 . S
C364 C365 1.405 . S
C364 H390 0.930 . S
C365 C360 1.479 . S
C365 C364 1.405 . S
C365 H391 0.931 . S
U366 O367 2.454 . S
U366 O368 2.458 . S
U366 C369 2.984 . S
U366 C370 2.847 . S
U366 C383 2.882 . S
U366 O384 2.441 . S
U366 O385 2.420 . S
U366 O386 2.455 . S
U366 O387 2.449 . S
O367 U366 2.454 . S
O367 C369 1.353 . S
O368 U366 2.458 . S
O368 C369 1.286 . S
C369 U366 2.984 . S
C369 O367 1.353 . S
C369 O368 1.286 . S
C369 C371 1.363 . S
C370 C360 1.465 . S
C370 U366 2.847 . S
C370 O384 1.249 . S
C370 O385 1.202 . S
C371 C369 1.363 . S
C371 C373 1.408 . S
C371 C376 1.342 . S
C372 C373 1.310 . S
C372 C375 1.461 . S
C372 H392 0.932 . S
C373 C371 1.408 . S
C373 C372 1.310 . S
C373 H393 0.930 . S
C374 C375 1.474 . S
C374 C376 1.285 . S
C374 H394 0.929 . S
C375 C372 1.461 . S
C375 C374 1.474 . S
C376 C371 1.342 . S
C376 C374 1.285 . S
C376 H395 0.930 . S
C377 C380 1.424 . S
C377 C382 1.245 . S
C377 C383 1.428 . S
C378 C381 1.260 . S
C378 C382 1.477 . S
C378 H396 0.932 . S
C379 C380 1.384 . S
C379 C381 1.479 . S
C379 H397 0.929 . S
C380 C377 1.424 . S
C380 C379 1.384 . S
C380 H398 0.928 . S
C381 C378 1.260 . S
C381 C379 1.479 . S
C382 C377 1.245 . S
C382 C378 1.477 . S
C382 H399 0.932 . S
C383 U366 2.882 . S
C383 C377 1.428 . S
C383 O386 1.301 . S
C383 O387 1.282 . S
O384 U366 2.441 . S
O384 C370 1.249 . S
O385 U366 2.420 . S
O385 C370 1.202 . S
O386 U366 2.455 . S
O386 C383 1.301 . S
O387 U366 2.449 . S
O387 C383 1.282 . S
H388 C361 0.931 . S
H389 C363 0.929 . S
H390 C364 0.930 . S
H391 C365 0.931 . S
H392 C372 0.932 . S
H393 C373 0.930 . S
H394 C374 0.929 . S
H395 C376 0.930 . S
H396 C378 0.932 . S
H397 C379 0.929 . S
H398 C380 0.928 . S
H399 C382 0.932 . S
C400 C401 1.264 . S
C400 C405 1.479 . S
C400 C410 1.465 . S
C401 C400 1.264 . S
C401 C403 1.339 . S
C401 H428 0.931 . S
C402 C403 1.395 . S
C402 C404 1.320 . S
C403 C401 1.339 . S
C403 C402 1.395 . S
C403 H429 0.929 . S
C404 C402 1.320 . S
C404 C405 1.405 . S
C404 H430 0.930 . S
C405 C400 1.479 . S
C405 C404 1.405 . S
C405 H431 0.931 . S
U406 O407 2.454 . S
U406 O408 2.458 . S
U406 C409 2.984 . S
U406 C410 2.847 . S
U406 C423 2.882 . S
U406 O424 2.441 . S
U406 O425 2.420 . S
U406 O426 2.455 . S
U406 O427 2.449 . S
O407 U406 2.454 . S
O407 C409 1.353 . S
O408 U406 2.458 . S
O408 C409 1.286 . S
C409 U406 2.984 . S
C409 O407 1.353 . S
C409 O408 1.286 . S
C409 C411 1.363 . S
C410 C400 1.465 . S
C410 U406 2.847 . S
C410 O424 1.249 . S
C410 O425 1.202 . S
C411 C409 1.363 . S
C411 C413 1.408 . S
C411 C416 1.342 . S
C412 C413 1.310 . S
C412 C415 1.461 . S
C412 H432 0.932 . S
C413 C411 1.408 . S
C413 C412 1.310 . S
C413 H433 0.930 . S
C414 C415 1.474 . S
C414 C416 1.285 . S
C414 H434 0.929 . S
C415 C412 1.461 . S
C415 C414 1.474 . S
C416 C411 1.342 . S
C416 C414 1.285 . S
C416 H435 0.930 . S
C417 C420 1.424 . S
C417 C422 1.245 . S
C417 C423 1.428 . S
C418 C421 1.260 . S
C418 C422 1.477 . S
C418 H436 0.932 . S
C419 C420 1.384 . S
C419 C421 1.479 . S
C419 H437 0.929 . S
C420 C417 1.424 . S
C420 C419 1.384 . S
C420 H438 0.928 . S
C421 C418 1.260 . S
C421 C419 1.479 . S
C422 C417 1.245 . S
C422 C418 1.477 . S
C422 H439 0.932 . S
C423 U406 2.882 . S
C423 C417 1.428 . S
C423 O426 1.301 . S
C423 O427 1.282 . S
O424 U406 2.441 . S
O424 C410 1.249 . S
O425 U406 2.420 . S
O425 C410 1.202 . S
O426 U406 2.455 . S
O426 C423 1.301 . S
O427 U406 2.449 . S
O427 C423 1.282 . S
H428 C401 0.931 . S
H429 C403 0.929 . S
H430 C404 0.930 . S
H431 C405 0.931 . S
H432 C412 0.932 . S
H433 C413 0.930 . S
H434 C414 0.929 . S
H435 C416 0.930 . S
H436 C418 0.932 . S
H437 C419 0.929 . S
H438 C420 0.928 . S
H439 C422 0.932 . S
C440 C441 1.264 . S
C440 C445 1.479 . S
C440 C450 1.465 . S
C441 C440 1.264 . S
C441 C443 1.339 . S
C441 H468 0.931 . S
C442 C443 1.395 . S
C442 C444 1.320 . S
C443 C441 1.339 . S
C443 C442 1.395 . S
C443 H469 0.929 . S
C444 C442 1.320 . S
C444 C445 1.405 . S
C444 H470 0.930 . S
C445 C440 1.479 . S
C445 C444 1.405 . S
C445 H471 0.931 . S
U446 O447 2.454 . S
U446 O448 2.458 . S
U446 C449 2.984 . S
U446 C450 2.847 . S
U446 C463 2.882 . S
U446 O464 2.441 . S
U446 O465 2.420 . S
U446 O466 2.455 . S
U446 O467 2.449 . S
O447 U446 2.454 . S
O447 C449 1.353 . S
O448 U446 2.458 . S
O448 C449 1.286 . S
C449 U446 2.984 . S
C449 O447 1.353 . S
C449 O448 1.286 . S
C449 C451 1.363 . S
C450 C440 1.465 . S
C450 U446 2.847 . S
C450 O464 1.249 . S
C450 O465 1.202 . S
C451 C449 1.363 . S
C451 C453 1.408 . S
C451 C456 1.342 . S
C452 C453 1.310 . S
C452 C455 1.461 . S
C452 H472 0.932 . S
C453 C451 1.408 . S
C453 C452 1.310 . S
C453 H473 0.930 . S
C454 C455 1.474 . S
C454 C456 1.285 . S
C454 H474 0.929 . S
C455 C452 1.461 . S
C455 C454 1.474 . S
C456 C451 1.342 . S
C456 C454 1.285 . S
C456 H475 0.930 . S
C457 C460 1.424 . S
C457 C462 1.245 . S
C457 C463 1.428 . S
C458 C461 1.260 . S
C458 C462 1.477 . S
C458 H476 0.932 . S
C459 C460 1.384 . S
C459 C461 1.479 . S
C459 H477 0.929 . S
C460 C457 1.424 . S
C460 C459 1.384 . S
C460 H478 0.928 . S
C461 C458 1.260 . S
C461 C459 1.479 . S
C462 C457 1.245 . S
C462 C458 1.477 . S
C462 H479 0.932 . S
C463 U446 2.882 . S
C463 C457 1.428 . S
C463 O466 1.301 . S
C463 O467 1.282 . S
O464 U446 2.441 . S
O464 C450 1.249 . S
O465 U446 2.420 . S
O465 C450 1.202 . S
O466 U446 2.455 . S
O466 C463 1.301 . S
O467 U446 2.449 . S
O467 C463 1.282 . S
H468 C441 0.931 . S
H469 C443 0.929 . S
H470 C444 0.930 . S
H471 C445 0.931 . S
H472 C452 0.932 . S
H473 C453 0.930 . S
H474 C454 0.929 . S
H475 C456 0.930 . S
H476 C458 0.932 . S
H477 C459 0.929 . S
H478 C460 0.928 . S
H479 C462 0.932 . S
C480 C481 1.264 . S
C480 C485 1.479 . S
C480 C490 1.465 . S
C481 C480 1.264 . S
C481 C483 1.339 . S
C481 H508 0.931 . S
C482 C483 1.395 . S
C482 C484 1.320 . S
C483 C481 1.339 . S
C483 C482 1.395 . S
C483 H509 0.929 . S
C484 C482 1.320 . S
C484 C485 1.405 . S
C484 H510 0.930 . S
C485 C480 1.479 . S
C485 C484 1.405 . S
C485 H511 0.931 . S
U486 O487 2.454 . S
U486 O488 2.458 . S
U486 C489 2.984 . S
U486 C490 2.847 . S
U486 C503 2.882 . S
U486 O504 2.441 . S
U486 O505 2.420 . S
U486 O506 2.455 . S
U486 O507 2.449 . S
O487 U486 2.454 . S
O487 C489 1.353 . S
O488 U486 2.458 . S
O488 C489 1.286 . S
C489 U486 2.984 . S
C489 O487 1.353 . S
C489 O488 1.286 . S
C489 C491 1.363 . S
C490 C480 1.465 . S
C490 U486 2.847 . S
C490 O504 1.249 . S
C490 O505 1.202 . S
C491 C489 1.363 . S
C491 C493 1.408 . S
C491 C496 1.342 . S
C492 C493 1.310 . S
C492 C495 1.461 . S
C492 H512 0.932 . S
C493 C491 1.408 . S
C493 C492 1.310 . S
C493 H513 0.930 . S
C494 C495 1.474 . S
C494 C496 1.285 . S
C494 H514 0.929 . S
C495 C492 1.461 . S
C495 C494 1.474 . S
C496 C491 1.342 . S
C496 C494 1.285 . S
C496 H515 0.930 . S
C497 C500 1.424 . S
C497 C502 1.245 . S
C497 C503 1.428 . S
C498 C501 1.260 . S
C498 C502 1.477 . S
C498 H516 0.932 . S
C499 C500 1.384 . S
C499 C501 1.479 . S
C499 H517 0.929 . S
C500 C497 1.424 . S
C500 C499 1.384 . S
C500 H518 0.928 . S
C501 C498 1.260 . S
C501 C499 1.479 . S
C502 C497 1.245 . S
C502 C498 1.477 . S
C502 H519 0.932 . S
C503 U486 2.882 . S
C503 C497 1.428 . S
C503 O506 1.301 . S
C503 O507 1.282 . S
O504 U486 2.441 . S
O504 C490 1.249 . S
O505 U486 2.420 . S
O505 C490 1.202 . S
O506 U486 2.455 . S
O506 C503 1.301 . S
O507 U486 2.449 . S
O507 C503 1.282 . S
H508 C481 0.931 . S
H509 C483 0.929 . S
H510 C484 0.930 . S
H511 C485 0.931 . S
H512 C492 0.932 . S
H513 C493 0.930 . S
H514 C494 0.929 . S
H515 C496 0.930 . S
H516 C498 0.932 . S
H517 C499 0.929 . S
H518 C500 0.928 . S
H519 C502 0.932 . S
C520 C521 1.264 . S
C520 C525 1.479 . S
C520 C530 1.465 . S
C521 C520 1.264 . S
C521 C523 1.339 . S
C521 H548 0.931 . S
C522 C523 1.395 . S
C522 C524 1.320 . S
C523 C521 1.339 . S
C523 C522 1.395 . S
C523 H549 0.929 . S
C524 C522 1.320 . S
C524 C525 1.405 . S
C524 H550 0.930 . S
C525 C520 1.479 . S
C525 C524 1.405 . S
C525 H551 0.931 . S
U526 O527 2.454 . S
U526 O528 2.458 . S
U526 C529 2.984 . S
U526 C530 2.847 . S
U526 C543 2.882 . S
U526 O544 2.441 . S
U526 O545 2.420 . S
U526 O546 2.455 . S
U526 O547 2.449 . S
O527 U526 2.454 . S
O527 C529 1.353 . S
O528 U526 2.458 . S
O528 C529 1.286 . S
C529 U526 2.984 . S
C529 O527 1.353 . S
C529 O528 1.286 . S
C529 C531 1.363 . S
C530 C520 1.465 . S
C530 U526 2.847 . S
C530 O544 1.249 . S
C530 O545 1.202 . S
C531 C529 1.363 . S
C531 C533 1.408 . S
C531 C536 1.342 . S
C532 C533 1.310 . S
C532 C535 1.461 . S
C532 H552 0.932 . S
C533 C531 1.408 . S
C533 C532 1.310 . S
C533 H553 0.930 . S
C534 C535 1.474 . S
C534 C536 1.285 . S
C534 H554 0.929 . S
C535 C532 1.461 . S
C535 C534 1.474 . S
C536 C531 1.342 . S
C536 C534 1.285 . S
C536 H555 0.930 . S
C537 C540 1.424 . S
C537 C542 1.245 . S
C537 C543 1.428 . S
C538 C541 1.260 . S
C538 C542 1.477 . S
C538 H556 0.932 . S
C539 C540 1.384 . S
C539 C541 1.479 . S
C539 H557 0.929 . S
C540 C537 1.424 . S
C540 C539 1.384 . S
C540 H558 0.928 . S
C541 C538 1.260 . S
C541 C539 1.479 . S
C542 C537 1.245 . S
C542 C538 1.477 . S
C542 H559 0.932 . S
C543 U526 2.882 . S
C543 C537 1.428 . S
C543 O546 1.301 . S
C543 O547 1.282 . S
O544 U526 2.441 . S
O544 C530 1.249 . S
O545 U526 2.420 . S
O545 C530 1.202 . S
O546 U526 2.455 . S
O546 C543 1.301 . S
O547 U526 2.449 . S
O547 C543 1.282 . S
H548 C521 0.931 . S
H549 C523 0.929 . S
H550 C524 0.930 . S
H551 C525 0.931 . S
H552 C532 0.932 . S
H553 C533 0.930 . S
H554 C534 0.929 . S
H555 C536 0.930 . S
H556 C538 0.932 . S
H557 C539 0.929 . S
H558 C540 0.928 . S
H559 C542 0.932 . S
C560 C561 1.264 . S
C560 C565 1.479 . S
C560 C570 1.465 . S
C561 C560 1.264 . S
C561 C563 1.339 . S
C561 H588 0.931 . S
C562 C563 1.395 . S
C562 C564 1.320 . S
C563 C561 1.339 . S
C563 C562 1.395 . S
C563 H589 0.929 . S
C564 C562 1.320 . S
C564 C565 1.405 . S
C564 H590 0.930 . S
C565 C560 1.479 . S
C565 C564 1.405 . S
C565 H591 0.931 . S
U566 O567 2.454 . S
U566 O568 2.458 . S
U566 C569 2.984 . S
U566 C570 2.847 . S
U566 C583 2.882 . S
U566 O584 2.441 . S
U566 O585 2.420 . S
U566 O586 2.455 . S
U566 O587 2.449 . S
O567 U566 2.454 . S
O567 C569 1.353 . S
O568 U566 2.458 . S
O568 C569 1.286 . S
C569 U566 2.984 . S
C569 O567 1.353 . S
C569 O568 1.286 . S
C569 C571 1.363 . S
C570 C560 1.465 . S
C570 U566 2.847 . S
C570 O584 1.249 . S
C570 O585 1.202 . S
C571 C569 1.363 . S
C571 C573 1.408 . S
C571 C576 1.342 . S
C572 C573 1.310 . S
C572 C575 1.461 . S
C572 H592 0.932 . S
C573 C571 1.408 . S
C573 C572 1.310 . S
C573 H593 0.930 . S
C574 C575 1.474 . S
C574 C576 1.285 . S
C574 H594 0.929 . S
C575 C572 1.461 . S
C575 C574 1.474 . S
C576 C571 1.342 . S
C576 C574 1.285 . S
C576 H595 0.930 . S
C577 C580 1.424 . S
C577 C582 1.245 . S
C577 C583 1.428 . S
C578 C581 1.260 . S
C578 C582 1.477 . S
C578 H596 0.932 . S
C579 C580 1.384 . S
C579 C581 1.479 . S
C579 H597 0.929 . S
C580 C577 1.424 . S
C580 C579 1.384 . S
C580 H598 0.928 . S
C581 C578 1.260 . S
C581 C579 1.479 . S
C582 C577 1.245 . S
C582 C578 1.477 . S
C582 H599 0.932 . S
C583 U566 2.882 . S
C583 C577 1.428 . S
C583 O586 1.301 . S
C583 O587 1.282 . S
O584 U566 2.441 . S
O584 C570 1.249 . S
O585 U566 2.420 . S
O585 C570 1.202 . S
O586 U566 2.455 . S
O586 C583 1.301 . S
O587 U566 2.449 . S
O587 C583 1.282 . S
H588 C561 0.931 . S
H589 C563 0.929 . S
H590 C564 0.930 . S
H591 C565 0.931 . S
H592 C572 0.932 . S
H593 C573 0.930 . S
H594 C574 0.929 . S
H595 C576 0.930 . S
H596 C578 0.932 . S
H597 C579 0.929 . S
H598 C580 0.928 . S
H599 C582 0.932 . S
C600 C601 1.264 . S
C600 C605 1.479 . S
C600 C610 1.465 . S
C601 C600 1.264 . S
C601 C603 1.339 . S
C601 H628 0.931 . S
C602 C603 1.395 . S
C602 C604 1.320 . S
C603 C601 1.339 . S
C603 C602 1.395 . S
C603 H629 0.929 . S
C604 C602 1.320 . S
C604 C605 1.405 . S
C604 H630 0.930 . S
C605 C600 1.479 . S
C605 C604 1.405 . S
C605 H631 0.931 . S
U606 O607 2.454 . S
U606 O608 2.458 . S
U606 C609 2.984 . S
U606 C610 2.847 . S
U606 C623 2.882 . S
U606 O624 2.441 . S
U606 O625 2.420 . S
U606 O626 2.455 . S
U606 O627 2.449 . S
O607 U606 2.454 . S
O607 C609 1.353 . S
O608 U606 2.458 . S
O608 C609 1.286 . S
C609 U606 2.984 . S
C609 O607 1.353 . S
C609 O608 1.286 . S
C609 C611 1.363 . S
C610 C600 1.465 . S
C610 U606 2.847 . S
C610 O624 1.249 . S
C610 O625 1.202 . S
C611 C609 1.363 . S
C611 C613 1.408 . S
C611 C616 1.342 . S
C612 C613 1.310 . S
C612 C615 1.461 . S
C612 H632 0.932 . S
C613 C611 1.408 . S
C613 C612 1.310 . S
C613 H633 0.930 . S
C614 C615 1.474 . S
C614 C616 1.285 . S
C614 H634 0.929 . S
C615 C612 1.461 . S
C615 C614 1.474 . S
C616 C611 1.342 . S
C616 C614 1.285 . S
C616 H635 0.930 . S
C617 C620 1.424 . S
C617 C622 1.245 . S
C617 C623 1.428 . S
C618 C621 1.260 . S
C618 C622 1.477 . S
C618 H636 0.932 . S
C619 C620 1.384 . S
C619 C621 1.479 . S
C619 H637 0.929 . S
C620 C617 1.424 . S
C620 C619 1.384 . S
C620 H638 0.928 . S
C621 C618 1.260 . S
C621 C619 1.479 . S
C622 C617 1.245 . S
C622 C618 1.477 . S
C622 H639 0.932 . S
C623 U606 2.882 . S
C623 C617 1.428 . S
C623 O626 1.301 . S
C623 O627 1.282 . S
O624 U606 2.441 . S
O624 C610 1.249 . S
O625 U606 2.420 . S
O625 C610 1.202 . S
O626 U606 2.455 . S
O626 C623 1.301 . S
O627 U606 2.449 . S
O627 C623 1.282 . S
H628 C601 0.931 . S
H629 C603 0.929 . S
H630 C604 0.930 . S
H631 C605 0.931 . S
H632 C612 0.932 . S
H633 C613 0.930 . S
H634 C614 0.929 . S
H635 C616 0.930 . S
H636 C618 0.932 . S
H637 C619 0.929 . S
H638 C620 0.928 . S
H639 C622 0.932 . S
C640 C641 1.264 . S
C640 C645 1.479 . S
C640 C650 1.465 . S
C641 C640 1.264 . S
C641 C643 1.339 . S
C641 H668 0.931 . S
C642 C643 1.395 . S
C642 C644 1.320 . S
C643 C641 1.339 . S
C643 C642 1.395 . S
C643 H669 0.929 . S
C644 C642 1.320 . S
C644 C645 1.405 . S
C644 H670 0.930 . S
C645 C640 1.479 . S
C645 C644 1.405 . S
C645 H671 0.931 . S
U646 O647 2.454 . S
U646 O648 2.458 . S
U646 C649 2.984 . S
U646 C650 2.847 . S
U646 C663 2.882 . S
U646 O664 2.441 . S
U646 O665 2.420 . S
U646 O666 2.455 . S
U646 O667 2.449 . S
O647 U646 2.454 . S
O647 C649 1.353 . S
O648 U646 2.458 . S
O648 C649 1.286 . S
C649 U646 2.984 . S
C649 O647 1.353 . S
C649 O648 1.286 . S
C649 C651 1.363 . S
C650 C640 1.465 . S
C650 U646 2.847 . S
C650 O664 1.249 . S
C650 O665 1.202 . S
C651 C649 1.363 . S
C651 C653 1.408 . S
C651 C656 1.342 . S
C652 C653 1.310 . S
C652 C655 1.461 . S
C652 H672 0.932 . S
C653 C651 1.408 . S
C653 C652 1.310 . S
C653 H673 0.930 . S
C654 C655 1.474 . S
C654 C656 1.285 . S
C654 H674 0.929 . S
C655 C652 1.461 . S
C655 C654 1.474 . S
C656 C651 1.342 . S
C656 C654 1.285 . S
C656 H675 0.930 . S
C657 C660 1.424 . S
C657 C662 1.245 . S
C657 C663 1.428 . S
C658 C661 1.260 . S
C658 C662 1.477 . S
C658 H676 0.932 . S
C659 C660 1.384 . S
C659 C661 1.479 . S
C659 H677 0.929 . S
C660 C657 1.424 . S
C660 C659 1.384 . S
C660 H678 0.928 . S
C661 C658 1.260 . S
C661 C659 1.479 . S
C662 C657 1.245 . S
C662 C658 1.477 . S
C662 H679 0.932 . S
C663 U646 2.882 . S
C663 C657 1.428 . S
C663 O666 1.301 . S
C663 O667 1.282 . S
O664 U646 2.441 . S
O664 C650 1.249 . S
O665 U646 2.420 . S
O665 C650 1.202 . S
O666 U646 2.455 . S
O666 C663 1.301 . S
O667 U646 2.449 . S
O667 C663 1.282 . S
H668 C641 0.931 . S
H669 C643 0.929 . S
H670 C644 0.930 . S
H671 C645 0.931 . S
H672 C652 0.932 . S
H673 C653 0.930 . S
H674 C654 0.929 . S
H675 C656 0.930 . S
H676 C658 0.932 . S
H677 C659 0.929 . S
H678 C660 0.928 . S
H679 C662 0.932 . S
C680 C681 1.264 . S
C680 C685 1.479 . S
C680 C690 1.465 . S
C681 C680 1.264 . S
C681 C683 1.339 . S
C681 H708 0.931 . S
C682 C683 1.395 . S
C682 C684 1.320 . S
C683 C681 1.339 . S
C683 C682 1.395 . S
C683 H709 0.929 . S
C684 C682 1.320 . S
C684 C685 1.405 . S
C684 H710 0.930 . S
C685 C680 1.479 . S
C685 C684 1.405 . S
C685 H711 0.931 . S
U686 O687 2.454 . S
U686 O688 2.458 . S
U686 C689 2.984 . S
U686 C690 2.847 . S
U686 C703 2.882 . S
U686 O704 2.441 . S
U686 O705 2.420 . S
U686 O706 2.455 . S
U686 O707 2.449 . S
O687 U686 2.454 . S
O687 C689 1.353 . S
O688 U686 2.458 . S
O688 C689 1.286 . S
C689 U686 2.984 . S
C689 O687 1.353 . S
C689 O688 1.286 . S
C689 C691 1.363 . S
C690 C680 1.465 . S
C690 U686 2.847 . S
C690 O704 1.249 . S
C690 O705 1.202 . S
C691 C689 1.363 . S
C691 C693 1.408 . S
C691 C696 1.342 . S
C692 C693 1.310 . S
C692 C695 1.461 . S
C692 H712 0.932 . S
C693 C691 1.408 . S
C693 C692 1.310 . S
C693 H713 0.930 . S
C694 C695 1.474 . S
C694 C696 1.285 . S
C694 H714 0.929 . S
C695 C692 1.461 . S
C695 C694 1.474 . S
C696 C691 1.342 . S
C696 C694 1.285 . S
C696 H715 0.930 . S
C697 C700 1.424 . S
C697 C702 1.245 . S
C697 C703 1.428 . S
C698 C701 1.260 . S
C698 C702 1.477 . S
C698 H716 0.932 . S
C699 C700 1.384 . S
C699 C701 1.479 . S
C699 H717 0.929 . S
C700 C697 1.424 . S
C700 C699 1.384 . S
C700 H718 0.928 . S
C701 C698 1.260 . S
C701 C699 1.479 . S
C702 C697 1.245 . S
C702 C698 1.477 . S
C702 H719 0.932 . S
C703 U686 2.882 . S
C703 C697 1.428 . S
C703 O706 1.301 . S
C703 O707 1.282 . S
O704 U686 2.441 . S
O704 C690 1.249 . S
O705 U686 2.420 . S
O705 C690 1.202 . S
O706 U686 2.455 . S
O706 C703 1.301 . S
O707 U686 2.449 . S
O707 C703 1.282 . S
H708 C681 0.931 . S
H709 C683 0.929 . S
H710 C684 0.930 . S
H711 C685 0.931 . S
H712 C692 0.932 . S
H713 C693 0.930 . S
H714 C694 0.929 . S
H715 C696 0.930 . S
H716 C698 0.932 . S
H717 C699 0.929 . S
H718 C700 0.928 . S
H719 C702 0.932 . S
C720 C721 1.264 . S
C720 C725 1.479 . S
C720 C730 1.465 . S
C721 C720 1.264 . S
C721 C723 1.339 . S
C721 H748 0.931 . S
C722 C723 1.395 . S
C722 C724 1.320 . S
C723 C721 1.339 . S
C723 C722 1.395 . S
C723 H749 0.929 . S
C724 C722 1.320 . S
C724 C725 1.405 . S
C724 H750 0.930 . S
C725 C720 1.479 . S
C725 C724 1.405 . S
C725 H751 0.931 . S
U726 O727 2.454 . S
U726 O728 2.458 . S
U726 C729 2.984 . S
U726 C730 2.847 . S
U726 C743 2.882 . S
U726 O744 2.441 . S
U726 O745 2.420 . S
U726 O746 2.455 . S
U726 O747 2.449 . S
O727 U726 2.454 . S
O727 C729 1.353 . S
O728 U726 2.458 . S
O728 C729 1.286 . S
C729 U726 2.984 . S
C729 O727 1.353 . S
C729 O728 1.286 . S
C729 C731 1.363 . S
C730 C720 1.465 . S
C730 U726 2.847 . S
C730 O744 1.249 . S
C730 O745 1.202 . S
C731 C729 1.363 . S
C731 C733 1.408 . S
C731 C736 1.342 . S
C732 C733 1.310 . S
C732 C735 1.461 . S
C732 H752 0.932 . S
C733 C731 1.408 . S
C733 C732 1.310 . S
C733 H753 0.930 . S
C734 C735 1.474 . S
C734 C736 1.285 . S
C734 H754 0.929 . S
C735 C732 1.461 . S
C735 C734 1.474 . S
C736 C731 1.342 . S
C736 C734 1.285 . S
C736 H755 0.930 . S
C737 C740 1.424 . S
C737 C742 1.245 . S
C737 C743 1.428 . S
C738 C741 1.260 . S
C738 C742 1.477 . S
C738 H756 0.932 . S
C739 C740 1.384 . S
C739 C741 1.479 . S
C739 H757 0.929 . S
C740 C737 1.424 . S
C740 C739 1.384 . S
C740 H758 0.928 . S
C741 C738 1.260 . S
C741 C739 1.479 . S
C742 C737 1.245 . S
C742 C738 1.477 . S
C742 H759 0.932 . S
C743 U726 2.882 . S
C743 C737 1.428 . S
C743 O746 1.301 . S
C743 O747 1.282 . S
O744 U726 2.441 . S
O744 C730 1.249 . S
O745 U726 2.420 . S
O745 C730 1.202 . S
O746 U726 2.455 . S
O746 C743 1.301 . S
O747 U726 2.449 . S
O747 C743 1.282 . S
H748 C721 0.931 . S
H749 C723 0.929 . S
H750 C724 0.930 . S
H751 C725 0.931 . S
H752 C732 0.932 . S
H753 C733 0.930 . S
H754 C734 0.929 . S
H755 C736 0.930 . S
H756 C738 0.932 . S
H757 C739 0.929 . S
H758 C740 0.928 . S
H759 C742 0.932 . S
C760 C761 1.264 . S
C760 C765 1.479 . S
C760 C770 1.465 . S
C761 C760 1.264 . S
C761 C763 1.339 . S
C761 H788 0.931 . S
C762 C763 1.395 . S
C762 C764 1.320 . S
C763 C761 1.339 . S
C763 C762 1.395 . S
C763 H789 0.929 . S
C764 C762 1.320 . S
C764 C765 1.405 . S
C764 H790 0.930 . S
C765 C760 1.479 . S
C765 C764 1.405 . S
C765 H791 0.931 . S
U766 O767 2.454 . S
U766 O768 2.458 . S
U766 C769 2.984 . S
U766 C770 2.847 . S
U766 C783 2.882 . S
U766 O784 2.441 . S
U766 O785 2.420 . S
U766 O786 2.455 . S
U766 O787 2.449 . S
O767 U766 2.454 . S
O767 C769 1.353 . S
O768 U766 2.458 . S
O768 C769 1.286 . S
C769 U766 2.984 . S
C769 O767 1.353 . S
C769 O768 1.286 . S
C769 C771 1.363 . S
C770 C760 1.465 . S
C770 U766 2.847 . S
C770 O784 1.249 . S
C770 O785 1.202 . S
C771 C769 1.363 . S
C771 C773 1.408 . S
C771 C776 1.342 . S
C772 C773 1.310 . S
C772 C775 1.461 . S
C772 H792 0.932 . S
C773 C771 1.408 . S
C773 C772 1.310 . S
C773 H793 0.930 . S
C774 C775 1.474 . S
C774 C776 1.285 . S
C774 H794 0.929 . S
C775 C772 1.461 . S
C775 C774 1.474 . S
C776 C771 1.342 . S
C776 C774 1.285 . S
C776 H795 0.930 . S
C777 C780 1.424 . S
C777 C782 1.245 . S
C777 C783 1.428 . S
C778 C781 1.260 . S
C778 C782 1.477 . S
C778 H796 0.932 . S
C779 C780 1.384 . S
C779 C781 1.479 . S
C779 H797 0.929 . S
C780 C777 1.424 . S
C780 C779 1.384 . S
C780 H798 0.928 . S
C781 C778 1.260 . S
C781 C779 1.479 . S
C782 C777 1.245 . S
C782 C778 1.477 . S
C782 H799 0.932 . S
C783 U766 2.882 . S
C783 C777 1.428 . S
C783 O786 1.301 . S
C783 O787 1.282 . S
O784 U766 2.441 . S
O784 C770 1.249 . S
O785 U766 2.420 . S
O785 C770 1.202 . S
O786 U766 2.455 . S
O786 C783 1.301 . S
O787 U766 2.449 . S
O787 C783 1.282 . S
H788 C761 0.931 . S
H789 C763 0.929 . S
H790 C764 0.930 . S
H791 C765 0.931 . S
H792 C772 0.932 . S
H793 C773 0.930 . S
H794 C774 0.929 . S
H795 C776 0.930 . S
H796 C778 0.932 . S
H797 C779 0.929 . S
H798 C780 0.928 . S
H799 C782 0.932 . S
C800 C801 1.264 . S
C800 C805 1.479 . S
C800 C810 1.465 . S
C801 C800 1.264 . S
C801 C803 1.339 . S
C801 H828 0.931 . S
C802 C803 1.395 . S
C802 C804 1.320 . S
C803 C801 1.339 . S
C803 C802 1.395 . S
C803 H829 0.929 . S
C804 C802 1.320 . S
C804 C805 1.405 . S
C804 H830 0.930 . S
C805 C800 1.479 . S
C805 C804 1.405 . S
C805 H831 0.931 . S
U806 O807 2.454 . S
U806 O808 2.458 . S
U806 C809 2.984 . S
U806 C810 2.847 . S
U806 C823 2.882 . S
U806 O824 2.441 . S
U806 O825 2.420 . S
U806 O826 2.455 . S
U806 O827 2.449 . S
O807 U806 2.454 . S
O807 C809 1.353 . S
O808 U806 2.458 . S
O808 C809 1.286 . S
C809 U806 2.984 . S
C809 O807 1.353 . S
C809 O808 1.286 . S
C809 C811 1.363 . S
C810 C800 1.465 . S
C810 U806 2.847 . S
C810 O824 1.249 . S
C810 O825 1.202 . S
C811 C809 1.363 . S
C811 C813 1.408 . S
C811 C816 1.342 . S
C812 C813 1.310 . S
C812 C815 1.461 . S
C812 H832 0.932 . S
C813 C811 1.408 . S
C813 C812 1.310 . S
C813 H833 0.930 . S
C814 C815 1.474 . S
C814 C816 1.285 . S
C814 H834 0.929 . S
C815 C812 1.461 . S
C815 C814 1.474 . S
C816 C811 1.342 . S
C816 C814 1.285 . S
C816 H835 0.930 . S
C817 C820 1.424 . S
C817 C822 1.245 . S
C817 C823 1.428 . S
C818 C821 1.260 . S
C818 C822 1.477 . S
C818 H836 0.932 . S
C819 C820 1.384 . S
C819 C821 1.479 . S
C819 H837 0.929 . S
C820 C817 1.424 . S
C820 C819 1.384 . S
C820 H838 0.928 . S
C821 C818 1.260 . S
C821 C819 1.479 . S
C822 C817 1.245 . S
C822 C818 1.477 . S
C822 H839 0.932 . S
C823 U806 2.882 . S
C823 C817 1.428 . S
C823 O826 1.301 . S
C823 O827 1.282 . S
O824 U806 2.441 . S
O824 C810 1.249 . S
O825 U806 2.420 . S
O825 C810 1.202 . S
O826 U806 2.455 . S
O826 C823 1.301 . S
O827 U806 2.449 . S
O827 C823 1.282 . S
H828 C801 0.931 . S
H829 C803 0.929 . S
H830 C804 0.930 . S
H831 C805 0.931 . S
H832 C812 0.932 . S
H833 C813 0.930 . S
H834 C814 0.929 . S
H835 C816 0.930 . S
H836 C818 0.932 . S
H837 C819 0.929 . S
H838 C820 0.928 . S
H839 C822 0.932 . S
C840 C841 1.264 . S
C840 C845 1.479 . S
C840 C850 1.465 . S
C841 C840 1.264 . S
C841 C843 1.339 . S
C841 H868 0.931 . S
C842 C843 1.395 . S
C842 C844 1.320 . S
C843 C841 1.339 . S
C843 C842 1.395 . S
C843 H869 0.929 . S
C844 C842 1.320 . S
C844 C845 1.405 . S
C844 H870 0.930 . S
C845 C840 1.479 . S
C845 C844 1.405 . S
C845 H871 0.931 . S
U846 O847 2.454 . S
U846 O848 2.458 . S
U846 C849 2.984 . S
U846 C850 2.847 . S
U846 C863 2.882 . S
U846 O864 2.441 . S
U846 O865 2.420 . S
U846 O866 2.455 . S
U846 O867 2.449 . S
O847 U846 2.454 . S
O847 C849 1.353 . S
O848 U846 2.458 . S
O848 C849 1.286 . S
C849 U846 2.984 . S
C849 O847 1.353 . S
C849 O848 1.286 . S
C849 C851 1.363 . S
C850 C840 1.465 . S
C850 U846 2.847 . S
C850 O864 1.249 . S
C850 O865 1.202 . S
C851 C849 1.363 . S
C851 C853 1.408 . S
C851 C856 1.342 . S
C852 C853 1.310 . S
C852 C855 1.461 . S
C852 H872 0.932 . S
C853 C851 1.408 . S
C853 C852 1.310 . S
C853 H873 0.930 . S
C854 C855 1.474 . S
C854 C856 1.285 . S
C854 H874 0.929 . S
C855 C852 1.461 . S
C855 C854 1.474 . S
C856 C851 1.342 . S
C856 C854 1.285 . S
C856 H875 0.930 . S
C857 C860 1.424 . S
C857 C862 1.245 . S
C857 C863 1.428 . S
C858 C861 1.260 . S
C858 C862 1.477 . S
C858 H876 0.932 . S
C859 C860 1.384 . S
C859 C861 1.479 . S
C859 H877 0.929 . S
C860 C857 1.424 . S
C860 C859 1.384 . S
C860 H878 0.928 . S
C861 C858 1.260 . S
C861 C859 1.479 . S
C862 C857 1.245 . S
C862 C858 1.477 . S
C862 H879 0.932 . S
C863 U846 2.882 . S
C863 C857 1.428 . S
C863 O866 1.301 . S
C863 O867 1.282 . S
O864 U846 2.441 . S
O864 C850 1.249 . S
O865 U846 2.420 . S
O865 C850 1.202 . S
O866 U846 2.455 . S
O866 C863 1.301 . S
O867 U846 2.449 . S
O867 C863 1.282 . S
H868 C841 0.931 . S
H869 C843 0.929 . S
H870 C844 0.930 . S
H871 C845 0.931 . S
H872 C852 0.932 . S
H873 C853 0.930 . S
H874 C854 0.929 . S
H875 C856 0.930 . S
H876 C858 0.932 . S
H877 C859 0.929 . S
H878 C860 0.928 . S
H879 C862 0.932 . S
C880 C881 1.264 . S
C880 C885 1.479 . S
C880 C890 1.465 . S
C881 C880 1.264 . S
C881 C883 1.339 . S
C881 H908 0.931 . S
C882 C883 1.395 . S
C882 C884 1.320 . S
C883 C881 1.339 . S
C883 C882 1.395 . S
C883 H909 0.929 . S
C884 C882 1.320 . S
C884 C885 1.405 . S
C884 H910 0.930 . S
C885 C880 1.479 . S
C885 C884 1.405 . S
C885 H911 0.931 . S
U886 O887 2.454 . S
U886 O888 2.458 . S
U886 C889 2.984 . S
U886 C890 2.847 . S
U886 C903 2.882 . S
U886 O904 2.441 . S
U886 O905 2.420 . S
U886 O906 2.455 . S
U886 O907 2.449 . S
O887 U886 2.454 . S
O887 C889 1.353 . S
O888 U886 2.458 . S
O888 C889 1.286 . S
C889 U886 2.984 . S
C889 O887 1.353 . S
C889 O888 1.286 . S
C889 C891 1.363 . S
C890 C880 1.465 . S
C890 U886 2.847 . S
C890 O904 1.249 . S
C890 O905 1.202 . S
C891 C889 1.363 . S
C891 C893 1.408 . S
C891 C896 1.342 . S
C892 C893 1.310 . S
C892 C895 1.461 . S
C892 H912 0.932 . S
C893 C891 1.408 . S
C893 C892 1.310 . S
C893 H913 0.930 . S
C894 C895 1.474 . S
C894 C896 1.285 . S
C894 H914 0.929 . S
C895 C892 1.461 . S
C895 C894 1.474 . S
C896 C891 1.342 . S
C896 C894 1.285 . S
C896 H915 0.930 . S
C897 C900 1.424 . S
C897 C902 1.245 . S
C897 C903 1.428 . S
C898 C901 1.260 . S
C898 C902 1.477 . S
C898 H916 0.932 . S
C899 C900 1.384 . S
C899 C901 1.479 . S
C899 H917 0.929 . S
C900 C897 1.424 . S
C900 C899 1.384 . S
C900 H918 0.928 . S
C901 C898 1.260 . S
C901 C899 1.479 . S
C902 C897 1.245 . S
C902 C898 1.477 . S
C902 H919 0.932 . S
C903 U886 2.882 . S
C903 C897 1.428 . S
C903 O906 1.301 . S
C903 O907 1.282 . S
O904 U886 2.441 . S
O904 C890 1.249 . S
O905 U886 2.420 . S
O905 C890 1.202 . S
O906 U886 2.455 . S
O906 C903 1.301 . S
O907 U886 2.449 . S
O907 C903 1.282 . S
H908 C881 0.931 . S
H909 C883 0.929 . S
H910 C884 0.930 . S
H911 C885 0.931 . S
H912 C892 0.932 . S
H913 C893 0.930 . S
H914 C894 0.929 . S
H915 C896 0.930 . S
H916 C898 0.932 . S
H917 C899 0.929 . S
H918 C900 0.928 . S
H919 C902 0.932 . S
C920 C921 1.264 . S
C920 C925 1.479 . S
C920 C930 1.465 . S
C921 C920 1.264 . S
C921 C923 1.339 . S
C921 H948 0.931 . S
C922 C923 1.395 . S
C922 C924 1.320 . S
C923 C921 1.339 . S
C923 C922 1.395 . S
C923 H949 0.929 . S
C924 C922 1.320 . S
C924 C925 1.405 . S
C924 H950 0.930 . S
C925 C920 1.479 . S
C925 C924 1.405 . S
C925 H951 0.931 . S
U926 O927 2.454 . S
U926 O928 2.458 . S
U926 C929 2.984 . S
U926 C930 2.847 . S
U926 C943 2.882 . S
U926 O944 2.441 . S
U926 O945 2.420 . S
U926 O946 2.455 . S
U926 O947 2.449 . S
O927 U926 2.454 . S
O927 C929 1.353 . S
O928 U926 2.458 . S
O928 C929 1.286 . S
C929 U926 2.984 . S
C929 O927 1.353 . S
C929 O928 1.286 . S
C929 C931 1.363 . S
C930 C920 1.465 . S
C930 U926 2.847 . S
C930 O944 1.249 . S
C930 O945 1.202 . S
C931 C929 1.363 . S
C931 C933 1.408 . S
C931 C936 1.342 . S
C932 C933 1.310 . S
C932 C935 1.461 . S
C932 H952 0.932 . S
C933 C931 1.408 . S
C933 C932 1.310 . S
C933 H953 0.930 . S
C934 C935 1.474 . S
C934 C936 1.285 . S
C934 H954 0.929 . S
C935 C932 1.461 . S
C935 C934 1.474 . S
C936 C931 1.342 . S
C936 C934 1.285 . S
C936 H955 0.930 . S
C937 C940 1.424 . S
C937 C942 1.245 . S
C937 C943 1.428 . S
C938 C941 1.260 . S
C938 C942 1.477 . S
C938 H956 0.932 . S
C939 C940 1.384 . S
C939 C941 1.479 . S
C939 H957 0.929 . S
C940 C937 1.424 . S
C940 C939 1.384 . S
C940 H958 0.928 . S
C941 C938 1.260 . S
C941 C939 1.479 . S
C942 C937 1.245 . S
C942 C938 1.477 . S
C942 H959 0.932 . S
C943 U926 2.882 . S
C943 C937 1.428 . S
C943 O946 1.301 . S
C943 O947 1.282 . S
O944 U926 2.441 . S
O944 C930 1.249 . S
O945 U926 2.420 . S
O945 C930 1.202 . S
O946 U926 2.455 . S
O946 C943 1.301 . S
O947 U926 2.449 . S
O947 C943 1.282 . S
H948 C921 0.931 . S
H949 C923 0.929 . S
H950 C924 0.930 . S
H951 C925 0.931 . S
H952 C932 0.932 . S
H953 C933 0.930 . S
H954 C934 0.929 . S
H955 C936 0.930 . S
H956 C938 0.932 . S
H957 C939 0.929 . S
H958 C940 0.928 . S
H959 C942 0.932 . S
C960 C961 1.264 . S
C960 C965 1.479 . S
C960 C970 1.465 . S
C961 C960 1.264 . S
C961 C963 1.339 . S
C961 H988 0.931 . S
C962 C963 1.395 . S
C962 C964 1.320 . S
C963 C961 1.339 . S
C963 C962 1.395 . S
C963 H989 0.929 . S
C964 C962 1.320 . S
C964 C965 1.405 . S
C964 H990 0.930 . S
C965 C960 1.479 . S
C965 C964 1.405 . S
C965 H991 0.931 . S
U966 O967 2.454 . S
U966 O968 2.458 . S
U966 C969 2.984 . S
U966 C970 2.847 . S
U966 C983 2.882 . S
U966 O984 2.441 . S
U966 O985 2.420 . S
U966 O986 2.455 . S
U966 O987 2.449 . S
O967 U966 2.454 . S
O967 C969 1.353 . S
O968 U966 2.458 . S
O968 C969 1.286 . S
C969 U966 2.984 . S
C969 O967 1.353 . S
C969 O968 1.286 . S
C969 C971 1.363 . S
C970 C960 1.465 . S
C970 U966 2.847 . S
C970 O984 1.249 . S
C970 O985 1.202 . S
C971 C969 1.363 . S
C971 C973 1.408 . S
C971 C976 1.342 . S
C972 C973 1.310 . S
C972 C975 1.461 . S
C972 H992 0.932 . S
C973 C971 1.408 . S
C973 C972 1.310 . S
C973 H993 0.930 . S
C974 C975 1.474 . S
C974 C976 1.285 . S
C974 H994 0.929 . S
C975 C972 1.461 . S
C975 C974 1.474 . S
C976 C971 1.342 . S
C976 C974 1.285 . S
C976 H995 0.930 . S
C977 C980 1.424 . S
C977 C982 1.245 . S
C977 C983 1.428 . S
C978 C981 1.260 . S
C978 C982 1.477 . S
C978 H996 0.932 . S
C979 C980 1.384 . S
C979 C981 1.479 . S
C979 H997 0.929 . S
C980 C977 1.424 . S
C980 C979 1.384 . S
C980 H998 0.928 . S
C981 C978 1.260 . S
C981 C979 1.479 . S
C982 C977 1.245 . S
C982 C978 1.477 . S
C982 H999 0.932 . S
C983 U966 2.882 . S
C983 C977 1.428 . S
C983 O986 1.301 . S
C983 O987 1.282 . S
O984 U966 2.441 . S
O984 C970 1.249 . S
O985 U966 2.420 . S
O985 C970 1.202 . S
O986 U966 2.455 . S
O986 C983 1.301 . S
O987 U966 2.449 . S
O987 C983 1.282 . S
H988 C961 0.931 . S
H989 C963 0.929 . S
H990 C964 0.930 . S
H991 C965 0.931 . S
H992 C972 0.932 . S
H993 C973 0.930 . S
H994 C974 0.929 . S
H995 C976 0.930 . S
H996 C978 0.932 . S
H997 C979 0.929 . S
H998 C980 0.928 . S
H999 C982 0.932 . S
C1000 C1001 1.264 . S
C1000 C1005 1.479 . S
C1000 C1010 1.465 . S
C1001 C1000 1.264 . S
C1001 C1003 1.339 . S
C1001 H1028 0.931 . S
C1002 C1003 1.395 . S
C1002 C1004 1.320 . S
C1003 C1001 1.339 . S
C1003 C1002 1.395 . S
C1003 H1029 0.929 . S
C1004 C1002 1.320 . S
C1004 C1005 1.405 . S
C1004 H1030 0.930 . S
C1005 C1000 1.479 . S
C1005 C1004 1.405 . S
C1005 H1031 0.931 . S
U1006 O1007 2.454 . S
U1006 O1008 2.458 . S
U1006 C1009 2.984 . S
U1006 C1010 2.847 . S
U1006 C1023 2.882 . S
U1006 O1024 2.441 . S
U1006 O1025 2.420 . S
U1006 O1026 2.455 . S
U1006 O1027 2.449 . S
O1007 U1006 2.454 . S
O1007 C1009 1.353 . S
O1008 U1006 2.458 . S
O1008 C1009 1.286 . S
C1009 U1006 2.984 . S
C1009 O1007 1.353 . S
C1009 O1008 1.286 . S
C1009 C1011 1.363 . S
C1010 C1000 1.465 . S
C1010 U1006 2.847 . S
C1010 O1024 1.249 . S
C1010 O1025 1.202 . S
C1011 C1009 1.363 . S
C1011 C1013 1.408 . S
C1011 C1016 1.342 . S
C1012 C1013 1.310 . S
C1012 C1015 1.461 . S
C1012 H1032 0.932 . S
C1013 C1011 1.408 . S
C1013 C1012 1.310 . S
C1013 H1033 0.930 . S
C1014 C1015 1.474 . S
C1014 C1016 1.285 . S
C1014 H1034 0.929 . S
C1015 C1012 1.461 . S
C1015 C1014 1.474 . S
C1016 C1011 1.342 . S
C1016 C1014 1.285 . S
C1016 H1035 0.930 . S
C1017 C1020 1.424 . S
C1017 C1022 1.245 . S
C1017 C1023 1.428 . S
C1018 C1021 1.260 . S
C1018 C1022 1.477 . S
C1018 H1036 0.932 . S
C1019 C1020 1.384 . S
C1019 C1021 1.479 . S
C1019 H1037 0.929 . S
C1020 C1017 1.424 . S
C1020 C1019 1.384 . S
C1020 H1038 0.928 . S
C1021 C1018 1.260 . S
C1021 C1019 1.479 . S
C1022 C1017 1.245 . S
C1022 C1018 1.477 . S
C1022 H1039 0.932 . S
C1023 U1006 2.882 . S
C1023 C1017 1.428 . S
C1023 O1026 1.301 . S
C1023 O1027 1.282 . S
O1024 U1006 2.441 . S
O1024 C1010 1.249 . S
O1025 U1006 2.420 . S
O1025 C1010 1.202 . S
O1026 U1006 2.455 . S
O1026 C1023 1.301 . S
O1027 U1006 2.449 . S
O1027 C1023 1.282 . S
H1028 C1001 0.931 . S
H1029 C1003 0.929 . S
H1030 C1004 0.930 . S
H1031 C1005 0.931 . S
H1032 C1012 0.932 . S
H1033 C1013 0.930 . S
H1034 C1014 0.929 . S
H1035 C1016 0.930 . S
H1036 C1018 0.932 . S
H1037 C1019 0.929 . S
H1038 C1020 0.928 . S
H1039 C1022 0.932 . S
C1040 C1041 1.264 . S
C1040 C1045 1.479 . S
C1040 C1050 1.465 . S
C1041 C1040 1.264 . S
C1041 C1043 1.339 . S
C1041 H1068 0.931 . S
C1042 C1043 1.395 . S
C1042 C1044 1.320 . S
C1043 C1041 1.339 . S
C1043 C1042 1.395 . S
C1043 H1069 0.929 . S
C1044 C1042 1.320 . S
C1044 C1045 1.405 . S
C1044 H1070 0.930 . S
C1045 C1040 1.479 . S
C1045 C1044 1.405 . S
C1045 H1071 0.931 . S
U1046 O1047 2.454 . S
U1046 O1048 2.458 . S
U1046 C1049 2.984 . S
U1046 C1050 2.847 . S
U1046 C1063 2.882 . S
U1046 O1064 2.441 . S
U1046 O1065 2.420 . S
U1046 O1066 2.455 . S
U1046 O1067 2.449 . S
O1047 U1046 2.454 . S
O1047 C1049 1.353 . S
O1048 U1046 2.458 . S
O1048 C1049 1.286 . S
C1049 U1046 2.984 . S
C1049 O1047 1.353 . S
C1049 O1048 1.286 . S
C1049 C1051 1.363 . S
C1050 C1040 1.465 . S
C1050 U1046 2.847 . S
C1050 O1064 1.249 . S
C1050 O1065 1.202 . S
C1051 C1049 1.363 . S
C1051 C1053 1.408 . S
C1051 C1056 1.342 . S
C1052 C1053 1.310 . S
C1052 C1055 1.461 . S
C1052 H1072 0.932 . S
C1053 C1051 1.408 . S
C1053 C1052 1.310 . S
C1053 H1073 0.930 . S
C1054 C1055 1.474 . S
C1054 C1056 1.285 . S
C1054 H1074 0.929 . S
C1055 C1052 1.461 . S
C1055 C1054 1.474 . S
C1056 C1051 1.342 . S
C1056 C1054 1.285 . S
C1056 H1075 0.930 . S
C1057 C1060 1.424 . S
C1057 C1062 1.245 . S
C1057 C1063 1.428 . S
C1058 C1061 1.260 . S
C1058 C1062 1.477 . S
C1058 H1076 0.932 . S
C1059 C1060 1.384 . S
C1059 C1061 1.479 . S
C1059 H1077 0.929 . S
C1060 C1057 1.424 . S
C1060 C1059 1.384 . S
C1060 H1078 0.928 . S
C1061 C1058 1.260 . S
C1061 C1059 1.479 . S
C1062 C1057 1.245 . S
C1062 C1058 1.477 . S
C1062 H1079 0.932 . S
C1063 U1046 2.882 . S
C1063 C1057 1.428 . S
C1063 O1066 1.301 . S
C1063 O1067 1.282 . S
O1064 U1046 2.441 . S
O1064 C1050 1.249 . S
O1065 U1046 2.420 . S
O1065 C1050 1.202 . S
O1066 U1046 2.455 . S
O1066 C1063 1.301 . S
O1067 U1046 2.449 . S
O1067 C1063 1.282 . S
H1068 C1041 0.931 . S
H1069 C1043 0.929 . S
H1070 C1044 0.930 . S
H1071 C1045 0.931 . S
H1072 C1052 0.932 . S
H1073 C1053 0.930 . S
H1074 C1054 0.929 . S
H1075 C1056 0.930 . S
H1076 C1058 0.932 . S
H1077 C1059 0.929 . S
H1078 C1060 0.928 . S
H1079 C1062 0.932 . S
C1080 C1081 1.264 . S
C1080 C1085 1.479 . S
C1080 C1090 1.465 . S
C1081 C1080 1.264 . S
C1081 C1083 1.339 . S
C1081 H1108 0.931 . S
C1082 C1083 1.395 . S
C1082 C1084 1.320 . S
C1083 C1081 1.339 . S
C1083 C1082 1.395 . S
C1083 H1109 0.929 . S
C1084 C1082 1.320 . S
C1084 C1085 1.405 . S
C1084 H1110 0.930 . S
C1085 C1080 1.479 . S
C1085 C1084 1.405 . S
C1085 H1111 0.931 . S
U1086 O1087 2.454 . S
U1086 O1088 2.458 . S
U1086 C1089 2.984 . S
U1086 C1090 2.847 . S
U1086 C1103 2.882 . S
U1086 O1104 2.441 . S
U1086 O1105 2.420 . S
U1086 O1106 2.455 . S
U1086 O1107 2.449 . S
O1087 U1086 2.454 . S
O1087 C1089 1.353 . S
O1088 U1086 2.458 . S
O1088 C1089 1.286 . S
C1089 U1086 2.984 . S
C1089 O1087 1.353 . S
C1089 O1088 1.286 . S
C1089 C1091 1.363 . S
C1090 C1080 1.465 . S
C1090 U1086 2.847 . S
C1090 O1104 1.249 . S
C1090 O1105 1.202 . S
C1091 C1089 1.363 . S
C1091 C1093 1.408 . S
C1091 C1096 1.342 . S
C1092 C1093 1.310 . S
C1092 C1095 1.461 . S
C1092 H1112 0.932 . S
C1093 C1091 1.408 . S
C1093 C1092 1.310 . S
C1093 H1113 0.930 . S
C1094 C1095 1.474 . S
C1094 C1096 1.285 . S
C1094 H1114 0.929 . S
C1095 C1092 1.461 . S
C1095 C1094 1.474 . S
C1096 C1091 1.342 . S
C1096 C1094 1.285 . S
C1096 H1115 0.930 . S
C1097 C1100 1.424 . S
C1097 C1102 1.245 . S
C1097 C1103 1.428 . S
C1098 C1101 1.260 . S
C1098 C1102 1.477 . S
C1098 H1116 0.932 . S
C1099 C1100 1.384 . S
C1099 C1101 1.479 . S
C1099 H1117 0.929 . S
C1100 C1097 1.424 . S
C1100 C1099 1.384 . S
C1100 H1118 0.928 . S
C1101 C1098 1.260 . S
C1101 C1099 1.479 . S
C1102 C1097 1.245 . S
C1102 C1098 1.477 . S
C1102 H1119 0.932 . S
C1103 U1086 2.882 . S
C1103 C1097 1.428 . S
C1103 O1106 1.301 . S
C1103 O1107 1.282 . S
O1104 U1086 2.441 . S
O1104 C1090 1.249 . S
O1105 U1086 2.420 . S
O1105 C1090 1.202 . S
O1106 U1086 2.455 . S
O1106 C1103 1.301 . S
O1107 U1086 2.449 . S
O1107 C1103 1.282 . S
H1108 C1081 0.931 . S
H1109 C1083 0.929 . S
H1110 C1084 0.930 . S
H1111 C1085 0.931 . S
H1112 C1092 0.932 . S
H1113 C1093 0.930 . S
H1114 C1094 0.929 . S
H1115 C1096 0.930 . S
H1116 C1098 0.932 . S
H1117 C1099 0.929 . S
H1118 C1100 0.928 . S
H1119 C1102 0.932 . S
C1120 C1121 1.264 . S
C1120 C1125 1.479 . S
C1120 C1130 1.465 . S
C1121 C1120 1.264 . S
C1121 C1123 1.339 . S
C1121 H1148 0.931 . S
C1122 C1123 1.395 . S
C1122 C1124 1.320 . S
C1123 C1121 1.339 . S
C1123 C1122 1.395 . S
C1123 H1149 0.929 . S
C1124 C1122 1.320 . S
C1124 C1125 1.405 . S
C1124 H1150 0.930 . S
C1125 C1120 1.479 . S
C1125 C1124 1.405 . S
C1125 H1151 0.931 . S
U1126 O1127 2.454 . S
U1126 O1128 2.458 . S
U1126 C1129 2.984 . S
U1126 C1130 2.847 . S
U1126 C1143 2.882 . S
U1126 O1144 2.441 . S
U1126 O1145 2.420 . S
U1126 O1146 2.455 . S
U1126 O1147 2.449 . S
O1127 U1126 2.454 . S
O1127 C1129 1.353 . S
O1128 U1126 2.458 . S
O1128 C1129 1.286 . S
C1129 U1126 2.984 . S
C1129 O1127 1.353 . S
C1129 O1128 1.286 . S
C1129 C1131 1.363 . S
C1130 C1120 1.465 . S
C1130 U1126 2.847 . S
C1130 O1144 1.249 . S
C1130 O1145 1.202 . S
C1131 C1129 1.363 . S
C1131 C1133 1.408 . S
C1131 C1136 1.342 . S
C1132 C1133 1.310 . S
C1132 C1135 1.461 . S
C1132 H1152 0.932 . S
C1133 C1131 1.408 . S
C1133 C1132 1.310 . S
C1133 H1153 0.930 . S
C1134 C1135 1.474 . S
C1134 C1136 1.285 . S
C1134 H1154 0.929 . S
C1135 C1132 1.461 . S
C1135 C1134 1.474 . S
C1136 C1131 1.342 . S
C1136 C1134 1.285 . S
C1136 H1155 0.930 . S
C1137 C1140 1.424 . S
C1137 C1142 1.245 . S
C1137 C1143 1.428 . S
C1138 C1141 1.260 . S
C1138 C1142 1.477 . S
C1138 H1156 0.932 . S
C1139 C1140 1.384 . S
C1139 C1141 1.479 . S
C1139 H1157 0.929 . S
C1140 C1137 1.424 . S
C1140 C1139 1.384 . S
C1140 H1158 0.928 . S
C1141 C1138 1.260 . S
C1141 C1139 1.479 . S
C1142 C1137 1.245 . S
C1142 C1138 1.477 . S
C1142 H1159 0.932 . S
C1143 U1126 2.882 . S
C1143 C1137 1.428 . S
C1143 O1146 1.301 . S
C1143 O1147 1.282 . S
O1144 U1126 2.441 . S
O1144 C1130 1.249 . S
O1145 U1126 2.420 . S
O1145 C1130 1.202 . S
O1146 U1126 2.455 . S
O1146 C1143 1.301 . S
O1147 U1126 2.449 . S
O1147 C1143 1.282 . S
H1148 C1121 0.931 . S
H1149 C1123 0.929 . S
H1150 C1124 0.930 . S
H1151 C1125 0.931 . S
H1152 C1132 0.932 . S
H1153 C1133 0.930 . S
H1154 C1134 0.929 . S
H1155 C1136 0.930 . S
H1156 C1138 0.932 . S
H1157 C1139 0.929 . S
H1158 C1140 0.928 . S
H1159 C1142 0.932 . S
C1160 C1161 1.264 . S
C1160 C1165 1.479 . S
C1160 C1170 1.465 . S
C1161 C1160 1.264 . S
C1161 C1163 1.339 . S
C1161 H1188 0.931 . S
C1162 C1163 1.395 . S
C1162 C1164 1.320 . S
C1163 C1161 1.339 . S
C1163 C1162 1.395 . S
C1163 H1189 0.929 . S
C1164 C1162 1.320 . S
C1164 C1165 1.405 . S
C1164 H1190 0.930 . S
C1165 C1160 1.479 . S
C1165 C1164 1.405 . S
C1165 H1191 0.931 . S
U1166 O1167 2.454 . S
U1166 O1168 2.458 . S
U1166 C1169 2.984 . S
U1166 C1170 2.847 . S
U1166 C1183 2.882 . S
U1166 O1184 2.441 . S
U1166 O1185 2.420 . S
U1166 O1186 2.455 . S
U1166 O1187 2.449 . S
O1167 U1166 2.454 . S
O1167 C1169 1.353 . S
O1168 U1166 2.458 . S
O1168 C1169 1.286 . S
C1169 U1166 2.984 . S
C1169 O1167 1.353 . S
C1169 O1168 1.286 . S
C1169 C1171 1.363 . S
C1170 C1160 1.465 . S
C1170 U1166 2.847 . S
C1170 O1184 1.249 . S
C1170 O1185 1.202 . S
C1171 C1169 1.363 . S
C1171 C1173 1.408 . S
C1171 C1176 1.342 . S
C1172 C1173 1.310 . S
C1172 C1175 1.461 . S
C1172 H1192 0.932 . S
C1173 C1171 1.408 . S
C1173 C1172 1.310 . S
C1173 H1193 0.930 . S
C1174 C1175 1.474 . S
C1174 C1176 1.285 . S
C1174 H1194 0.929 . S
C1175 C1172 1.461 . S
C1175 C1174 1.474 . S
C1176 C1171 1.342 . S
C1176 C1174 1.285 . S
C1176 H1195 0.930 . S
C1177 C1180 1.424 . S
C1177 C1182 1.245 . S
C1177 C1183 1.428 . S
C1178 C1181 1.260 . S
C1178 C1182 1.477 . S
C1178 H1196 0.932 . S
C1179 C1180 1.384 . S
C1179 C1181 1.479 . S
C1179 H1197 0.929 . S
C1180 C1177 1.424 . S
C1180 C1179 1.384 . S
C1180 H1198 0.928 . S
C1181 C1178 1.260 . S
C1181 C1179 1.479 . S
C1182 C1177 1.245 . S
C1182 C1178 1.477 . S
C1182 H1199 0.932 . S
C1183 U1166 2.882 . S
C1183 C1177 1.428 . S
C1183 O1186 1.301 . S
C1183 O1187 1.282 . S
O1184 U1166 2.441 . S
O1184 C1170 1.249 . S
O1185 U1166 2.420 . S
O1185 C1170 1.202 . S
O1186 U1166 2.455 . S
O1186 C1183 1.301 . S
O1187 U1166 2.449 . S
O1187 C1183 1.282 . S
H1188 C1161 0.931 . S
H1189 C1163 0.929 . S
H1190 C1164 0.930 . S
H1191 C1165 0.931 . S
H1192 C1172 0.932 . S
H1193 C1173 0.930 . S
H1194 C1174 0.929 . S
H1195 C1176 0.930 . S
H1196 C1178 0.932 . S
H1197 C1179 0.929 . S
H1198 C1180 0.928 . S
H1199 C1182 0.932 . S
C1200 C1201 1.264 . S
C1200 C1205 1.479 . S
C1200 C1210 1.465 . S
C1201 C1200 1.264 . S
C1201 C1203 1.339 . S
C1201 H1228 0.931 . S
C1202 C1203 1.395 . S
C1202 C1204 1.320 . S
C1203 C1201 1.339 . S
C1203 C1202 1.395 . S
C1203 H1229 0.929 . S
C1204 C1202 1.320 . S
C1204 C1205 1.405 . S
C1204 H1230 0.930 . S
C1205 C1200 1.479 . S
C1205 C1204 1.405 . S
C1205 H1231 0.931 . S
U1206 O1207 2.454 . S
U1206 O1208 2.458 . S
U1206 C1209 2.984 . S
U1206 C1210 2.847 . S
U1206 C1223 2.882 . S
U1206 O1224 2.441 . S
U1206 O1225 2.420 . S
U1206 O1226 2.455 . S
U1206 O1227 2.449 . S
O1207 U1206 2.454 . S
O1207 C1209 1.353 . S
O1208 U1206 2.458 . S
O1208 C1209 1.286 . S
C1209 U1206 2.984 . S
C1209 O1207 1.353 . S
C1209 O1208 1.286 . S
C1209 C1211 1.363 . S
C1210 C1200 1.465 . S
C1210 U1206 2.847 . S
C1210 O1224 1.249 . S
C1210 O1225 1.202 . S
C1211 C1209 1.363 . S
C1211 C1213 1.408 . S
C1211 C1216 1.342 . S
C1212 C1213 1.310 . S
C1212 C1215 1.461 . S
C1212 H1232 0.932 . S
C1213 C1211 1.408 . S
C1213 C1212 1.310 . S
C1213 H1233 0.930 . S
C1214 C1215 1.474 . S
C1214 C1216 1.285 . S
C1214 H1234 0.929 . S
C1215 C1212 1.461 . S
C1215 C1214 1.474 . S
C1216 C1211 1.342 . S
C1216 C1214 1.285 . S
C1216 H1235 0.930 . S
C1217 C1220 1.424 . S
C1217 C1222 1.245 . S
C1217 C1223 1.428 . S
C1218 C1221 1.260 . S
C1218 C1222 1.477 . S
C1218 H1236 0.932 . S
C1219 C1220 1.384 . S
C1219 C1221 1.479 . S
C1219 H1237 0.929 . S
C1220 C1217 1.424 . S
C1220 C1219 1.384 . S
C1220 H1238 0.928 . S
C1221 C1218 1.260 . S
C1221 C1219 1.479 . S
C1222 C1217 1.245 . S
C1222 C1218 1.477 . S
C1222 H1239 0.932 . S
C1223 U1206 2.882 . S
C1223 C1217 1.428 . S
C1223 O1226 1.301 . S
C1223 O1227 1.282 . S
O1224 U1206 2.441 . S
O1224 C1210 1.249 . S
O1225 U1206 2.420 . S
O1225 C1210 1.202 . S
O1226 U1206 2.455 . S
O1226 C1223 1.301 . S
O1227 U1206 2.449 . S
O1227 C1223 1.282 . S
H1228 C1201 0.931 . S
H1229 C1203 0.929 . S
H1230 C1204 0.930 . S
H1231 C1205 0.931 . S
H1232 C1212 0.932 . S
H1233 C1213 0.930 . S
H1234 C1214 0.929 . S
H1235 C1216 0.930 . S
H1236 C1218 0.932 . S
H1237 C1219 0.929 . S
H1238 C1220 0.928 . S
H1239 C1222 0.932 . S
C1240 C1241 1.264 . S
C1240 C1245 1.479 . S
C1240 C1250 1.465 . S
C1241 C1240 1.264 . S
C1241 C1243 1.339 . S
C1241 H1268 0.931 . S
C1242 C1243 1.395 . S
C1242 C1244 1.320 . S
C1243 C1241 1.339 . S
C1243 C1242 1.395 . S
C1243 H1269 0.929 . S
C1244 C1242 1.320 . S
C1244 C1245 1.405 . S
C1244 H1270 0.930 . S
C1245 C1240 1.479 . S
C1245 C1244 1.405 . S
C1245 H1271 0.931 . S
U1246 O1247 2.454 . S
U1246 O1248 2.458 . S
U1246 C1249 2.984 . S
U1246 C1250 2.847 . S
U1246 C1263 2.882 . S
U1246 O1264 2.441 . S
U1246 O1265 2.420 . S
U1246 O1266 2.455 . S
U1246 O1267 2.449 . S
O1247 U1246 2.454 . S
O1247 C1249 1.353 . S
O1248 U1246 2.458 . S
O1248 C1249 1.286 . S
C1249 U1246 2.984 . S
C1249 O1247 1.353 . S
C1249 O1248 1.286 . S
C1249 C1251 1.363 . S
C1250 C1240 1.465 . S
C1250 U1246 2.847 . S
C1250 O1264 1.249 . S
C1250 O1265 1.202 . S
C1251 C1249 1.363 . S
C1251 C1253 1.408 . S
C1251 C1256 1.342 . S
C1252 C1253 1.310 . S
C1252 C1255 1.461 . S
C1252 H1272 0.932 . S
C1253 C1251 1.408 . S
C1253 C1252 1.310 . S
C1253 H1273 0.930 . S
C1254 C1255 1.474 . S
C1254 C1256 1.285 . S
C1254 H1274 0.929 . S
C1255 C1252 1.461 . S
C1255 C1254 1.474 . S
C1256 C1251 1.342 . S
C1256 C1254 1.285 . S
C1256 H1275 0.930 . S
C1257 C1260 1.424 . S
C1257 C1262 1.245 . S
C1257 C1263 1.428 . S
C1258 C1261 1.260 . S
C1258 C1262 1.477 . S
C1258 H1276 0.932 . S
C1259 C1260 1.384 . S
C1259 C1261 1.479 . S
C1259 H1277 0.929 . S
C1260 C1257 1.424 . S
C1260 C1259 1.384 . S
C1260 H1278 0.928 . S
C1261 C1258 1.260 . S
C1261 C1259 1.479 . S
C1262 C1257 1.245 . S
C1262 C1258 1.477 . S
C1262 H1279 0.932 . S
C1263 U1246 2.882 . S
C1263 C1257 1.428 . S
C1263 O1266 1.301 . S
C1263 O1267 1.282 . S
O1264 U1246 2.441 . S
O1264 C1250 1.249 . S
O1265 U1246 2.420 . S
O1265 C1250 1.202 . S
O1266 U1246 2.455 . S
O1266 C1263 1.301 . S
O1267 U1246 2.449 . S
O1267 C1263 1.282 . S
H1268 C1241 0.931 . S
H1269 C1243 0.929 . S
H1270 C1244 0.930 . S
H1271 C1245 0.931 . S
H1272 C1252 0.932 . S
H1273 C1253 0.930 . S
H1274 C1254 0.929 . S
H1275 C1256 0.930 . S
H1276 C1258 0.932 . S
H1277 C1259 0.929 . S
H1278 C1260 0.928 . S
H1279 C1262 0.932 . S
H1280 C1286 0.930 . S
H1281 C1289 0.931 . S
H1282 C1291 0.931 . S
H1283 C1293 0.930 . S
H1284 C1295 0.930 . S
H1285 C1297 0.931 . S
C1286 H1280 0.930 . S
C1286 C1287 1.380 . S
C1286 C1288 1.394 . S
C1287 C1286 1.380 . S
C1287 C1291 1.382 . S
C1288 C1286 1.394 . S
C1288 C1289 1.400 . S
C1289 H1281 0.931 . S
C1289 C1288 1.400 . S
C1289 C1290 1.375 . S
C1290 C1289 1.375 . S
C1290 C1291 1.415 . S
C1290 C1292 1.501 1_556 S
C1291 H1282 0.931 . S
C1291 C1287 1.382 . S
C1291 C1290 1.415 . S
C1292 C1290 1.501 1_554 S
C1292 C1293 1.384 . S
C1292 C1297 1.408 . S
C1293 H1283 0.930 . S
C1293 C1292 1.384 . S
C1293 C1294 1.389 . S
C1294 C1293 1.389 . S
C1294 C1295 1.405 . S
C1295 H1284 0.930 . S
C1295 C1294 1.405 . S
C1295 C1296 1.364 . S
C1296 C1295 1.364 . S
C1296 C1297 1.400 . S
C1297 H1285 0.931 . S
C1297 C1292 1.408 . S
C1297 C1296 1.400 . S
H1298 C1304 0.930 . S
H1299 C1307 0.931 . S
H1300 C1309 0.931 . S
H1301 C1311 0.930 . S
H1302 C1313 0.930 . S
H1303 C1315 0.931 . S
C1304 H1298 0.930 . S
C1304 C1305 1.380 . S
C1304 C1306 1.394 . S
C1305 C1304 1.380 . S
C1305 C1309 1.382 . S
C1306 C1304 1.394 . S
C1306 C1307 1.400 . S
C1307 H1299 0.931 . S
C1307 C1306 1.400 . S
C1307 C1308 1.375 . S
C1308 C1307 1.375 . S
C1308 C1309 1.415 . S
C1308 C1310 1.501 1_554 S
C1309 H1300 0.931 . S
C1309 C1305 1.382 . S
C1309 C1308 1.415 . S
C1310 C1308 1.501 1_556 S
C1310 C1311 1.384 . S
C1310 C1315 1.408 . S
C1311 H1301 0.930 . S
C1311 C1310 1.384 . S
C1311 C1312 1.389 . S
C1312 C1311 1.389 . S
C1312 C1313 1.405 . S
C1313 H1302 0.930 . S
C1313 C1312 1.405 . S
C1313 C1314 1.364 . S
C1314 C1313 1.364 . S
C1314 C1315 1.400 . S
C1315 H1303 0.931 . S
C1315 C1310 1.408 . S
C1315 C1314 1.400 . S
H1316 C1322 0.930 . S
H1317 C1325 0.931 . S
H1318 C1327 0.931 . S
H1319 C1329 0.930 . S
H1320 C1331 0.930 . S
H1321 C1333 0.931 . S
C1322 H1316 0.930 . S
C1322 C1323 1.380 . S
C1322 C1324 1.394 . S
C1323 C1322 1.380 . S
C1323 C1327 1.382 . S
C1324 C1322 1.394 . S
C1324 C1325 1.400 . S
C1325 H1317 0.931 . S
C1325 C1324 1.400 . S
C1325 C1326 1.375 . S
C1326 C1325 1.375 . S
C1326 C1327 1.415 . S
C1326 C1328 1.501 1_556 S
C1327 H1318 0.931 . S
C1327 C1323 1.382 . S
C1327 C1326 1.415 . S
C1328 C1326 1.501 1_554 S
C1328 C1329 1.384 . S
C1328 C1333 1.408 . S
C1329 H1319 0.930 . S
C1329 C1328 1.384 . S
C1329 C1330 1.389 . S
C1330 C1329 1.389 . S
C1330 C1331 1.405 . S
C1331 H1320 0.930 . S
C1331 C1330 1.405 . S
C1331 C1332 1.364 . S
C1332 C1331 1.364 . S
C1332 C1333 1.400 . S
C1333 H1321 0.931 . S
C1333 C1328 1.408 . S
C1333 C1332 1.400 . S
H1334 C1340 0.930 . S
H1335 C1343 0.931 . S
H1336 C1345 0.931 . S
H1337 C1347 0.930 . S
H1338 C1349 0.930 . S
H1339 C1351 0.931 . S
C1340 H1334 0.930 . S
C1340 C1341 1.380 . S
C1340 C1342 1.394 . S
C1341 C1340 1.380 . S
C1341 C1345 1.382 . S
C1342 C1340 1.394 . S
C1342 C1343 1.400 . S
C1343 H1335 0.931 . S
C1343 C1342 1.400 . S
C1343 C1344 1.375 . S
C1344 C1343 1.375 . S
C1344 C1345 1.415 . S
C1344 C1346 1.501 1_554 S
C1345 H1336 0.931 . S
C1345 C1341 1.382 . S
C1345 C1344 1.415 . S
C1346 C1344 1.501 1_556 S
C1346 C1347 1.384 . S
C1346 C1351 1.408 . S
C1347 H1337 0.930 . S
C1347 C1346 1.384 . S
C1347 C1348 1.389 . S
C1348 C1347 1.389 . S
C1348 C1349 1.405 . S
C1349 H1338 0.930 . S
C1349 C1348 1.405 . S
C1349 C1350 1.364 . S
C1350 C1349 1.364 . S
C1350 C1351 1.400 . S
C1351 H1339 0.931 . S
C1351 C1346 1.408 . S
C1351 C1350 1.400 . S
H1352 C1358 0.930 . S
H1353 C1361 0.931 . S
H1354 C1363 0.931 . S
H1355 C1365 0.930 . S
H1356 C1367 0.930 . S
H1357 C1369 0.931 . S
C1358 H1352 0.930 . S
C1358 C1359 1.380 . S
C1358 C1360 1.394 . S
C1359 C1358 1.380 . S
C1359 C1363 1.382 . S
C1360 C1358 1.394 . S
C1360 C1361 1.400 . S
C1361 H1353 0.931 . S
C1361 C1360 1.400 . S
C1361 C1362 1.375 . S
C1362 C1361 1.375 . S
C1362 C1363 1.415 . S
C1362 C1364 1.501 1_455 S
C1363 H1354 0.931 . S
C1363 C1359 1.382 . S
C1363 C1362 1.415 . S
C1364 C1362 1.501 1_655 S
C1364 C1365 1.384 . S
C1364 C1369 1.408 . S
C1365 H1355 0.930 . S
C1365 C1364 1.384 . S
C1365 C1366 1.389 . S
C1366 C1365 1.389 . S
C1366 C1367 1.405 . S
C1367 H1356 0.930 . S
C1367 C1366 1.405 . S
C1367 C1368 1.364 . S
C1368 C1367 1.364 . S
C1368 C1369 1.400 . S
C1369 H1357 0.931 . S
C1369 C1364 1.408 . S
C1369 C1368 1.400 . S
H1370 C1376 0.930 . S
H1371 C1379 0.931 . S
H1372 C1381 0.931 . S
H1373 C1383 0.930 . S
H1374 C1385 0.930 . S
H1375 C1387 0.931 . S
C1376 H1370 0.930 . S
C1376 C1377 1.380 . S
C1376 C1378 1.394 . S
C1377 C1376 1.380 . S
C1377 C1381 1.382 . S
C1378 C1376 1.394 . S
C1378 C1379 1.400 . S
C1379 H1371 0.931 . S
C1379 C1378 1.400 . S
C1379 C1380 1.375 . S
C1380 C1379 1.375 . S
C1380 C1381 1.415 . S
C1380 C1382 1.501 1_565 S
C1381 H1372 0.931 . S
C1381 C1377 1.382 . S
C1381 C1380 1.415 . S
C1382 C1380 1.501 1_545 S
C1382 C1383 1.384 . S
C1382 C1387 1.408 . S
C1383 H1373 0.930 . S
C1383 C1382 1.384 . S
C1383 C1384 1.389 . S
C1384 C1383 1.389 . S
C1384 C1385 1.405 . S
C1385 H1374 0.930 . S
C1385 C1384 1.405 . S
C1385 C1386 1.364 . S
C1386 C1385 1.364 . S
C1386 C1387 1.400 . S
C1387 H1375 0.931 . S
C1387 C1382 1.408 . S
C1387 C1386 1.400 . S
H1388 C1394 0.930 . S
H1389 C1397 0.931 . S
H1390 C1399 0.931 . S
H1391 C1401 0.930 . S
H1392 C1403 0.930 . S
H1393 C1405 0.931 . S
C1394 H1388 0.930 . S
C1394 C1395 1.380 . S
C1394 C1396 1.394 . S
C1395 C1394 1.380 . S
C1395 C1399 1.382 . S
C1396 C1394 1.394 . S
C1396 C1397 1.400 . S
C1397 H1389 0.931 . S
C1397 C1396 1.400 . S
C1397 C1398 1.375 . S
C1398 C1397 1.375 . S
C1398 C1399 1.415 . S
C1398 C1400 1.501 1_455 S
C1399 H1390 0.931 . S
C1399 C1395 1.382 . S
C1399 C1398 1.415 . S
C1400 C1398 1.501 1_655 S
C1400 C1401 1.384 . S
C1400 C1405 1.408 . S
C1401 H1391 0.930 . S
C1401 C1400 1.384 . S
C1401 C1402 1.389 . S
C1402 C1401 1.389 . S
C1402 C1403 1.405 . S
C1403 H1392 0.930 . S
C1403 C1402 1.405 . S
C1403 C1404 1.364 . S
C1404 C1403 1.364 . S
C1404 C1405 1.400 . S
C1405 H1393 0.931 . S
C1405 C1400 1.408 . S
C1405 C1404 1.400 . S
H1406 C1412 0.930 . S
H1407 C1415 0.931 . S
H1408 C1417 0.931 . S
H1409 C1419 0.930 . S
H1410 C1421 0.930 . S
H1411 C1423 0.931 . S
C1412 H1406 0.930 . S
C1412 C1413 1.380 . S
C1412 C1414 1.394 . S
C1413 C1412 1.380 . S
C1413 C1417 1.382 . S
C1414 C1412 1.394 . S
C1414 C1415 1.400 . S
C1415 H1407 0.931 . S
C1415 C1414 1.400 . S
C1415 C1416 1.375 . S
C1416 C1415 1.375 . S
C1416 C1417 1.415 . S
C1416 C1418 1.501 1_545 S
C1417 H1408 0.931 . S
C1417 C1413 1.382 . S
C1417 C1416 1.415 . S
C1418 C1416 1.501 1_565 S
C1418 C1419 1.384 . S
C1418 C1423 1.408 . S
C1419 H1409 0.930 . S
C1419 C1418 1.384 . S
C1419 C1420 1.389 . S
C1420 C1419 1.389 . S
C1420 C1421 1.405 . S
C1421 H1410 0.930 . S
C1421 C1420 1.405 . S
C1421 C1422 1.364 . S
C1422 C1421 1.364 . S
C1422 C1423 1.400 . S
C1423 H1411 0.931 . S
C1423 C1418 1.408 . S
C1423 C1422 1.400 . S
H1424 C1430 0.930 . S
H1425 C1433 0.931 . S
H1426 C1435 0.931 . S
H1427 C1437 0.930 . S
H1428 C1439 0.930 . S
H1429 C1441 0.931 . S
C1430 H1424 0.930 . S
C1430 C1431 1.380 . S
C1430 C1432 1.394 . S
C1431 C1430 1.380 . S
C1431 C1435 1.382 . S
C1432 C1430 1.394 . S
C1432 C1433 1.400 . S
C1433 H1425 0.931 . S
C1433 C1432 1.400 . S
C1433 C1434 1.375 . S
C1434 C1433 1.375 . S
C1434 C1435 1.415 . S
C1434 C1436 1.501 1_455 S
C1435 H1426 0.931 . S
C1435 C1431 1.382 . S
C1435 C1434 1.415 . S
C1436 C1434 1.501 1_655 S
C1436 C1437 1.384 . S
C1436 C1441 1.408 . S
C1437 H1427 0.930 . S
C1437 C1436 1.384 . S
C1437 C1438 1.389 . S
C1438 C1437 1.389 . S
C1438 C1439 1.405 . S
C1439 H1428 0.930 . S
C1439 C1438 1.405 . S
C1439 C1440 1.364 . S
C1440 C1439 1.364 . S
C1440 C1441 1.400 . S
C1441 H1429 0.931 . S
C1441 C1436 1.408 . S
C1441 C1440 1.400 . S
H1442 C1448 0.930 . S
H1443 C1451 0.931 . S
H1444 C1453 0.931 . S
H1445 C1455 0.930 . S
H1446 C1457 0.930 . S
H1447 C1459 0.931 . S
C1448 H1442 0.930 . S
C1448 C1449 1.380 . S
C1448 C1450 1.394 . S
C1449 C1448 1.380 . S
C1449 C1453 1.382 . S
C1450 C1448 1.394 . S
C1450 C1451 1.400 . S
C1451 H1443 0.931 . S
C1451 C1450 1.400 . S
C1451 C1452 1.375 . S
C1452 C1451 1.375 . S
C1452 C1453 1.415 . S
C1452 C1454 1.501 1_565 S
C1453 H1444 0.931 . S
C1453 C1449 1.382 . S
C1453 C1452 1.415 . S
C1454 C1452 1.501 1_545 S
C1454 C1455 1.384 . S
C1454 C1459 1.408 . S
C1455 H1445 0.930 . S
C1455 C1454 1.384 . S
C1455 C1456 1.389 . S
C1456 C1455 1.389 . S
C1456 C1457 1.405 . S
C1457 H1446 0.930 . S
C1457 C1456 1.405 . S
C1457 C1458 1.364 . S
C1458 C1457 1.364 . S
C1458 C1459 1.400 . S
C1459 H1447 0.931 . S
C1459 C1454 1.408 . S
C1459 C1458 1.400 . S
H1460 C1466 0.930 . S
H1461 C1469 0.931 . S
H1462 C1471 0.931 . S
H1463 C1473 0.930 . S
H1464 C1475 0.930 . S
H1465 C1477 0.931 . S
C1466 H1460 0.930 . S
C1466 C1467 1.380 . S
C1466 C1468 1.394 . S
C1467 C1466 1.380 . S
C1467 C1471 1.382 . S
C1468 C1466 1.394 . S
C1468 C1469 1.400 . S
C1469 H1461 0.931 . S
C1469 C1468 1.400 . S
C1469 C1470 1.375 . S
C1470 C1469 1.375 . S
C1470 C1471 1.415 . S
C1470 C1472 1.501 1_455 S
C1471 H1462 0.931 . S
C1471 C1467 1.382 . S
C1471 C1470 1.415 . S
C1472 C1470 1.501 1_655 S
C1472 C1473 1.384 . S
C1472 C1477 1.408 . S
C1473 H1463 0.930 . S
C1473 C1472 1.384 . S
C1473 C1474 1.389 . S
C1474 C1473 1.389 . S
C1474 C1475 1.405 . S
C1475 H1464 0.930 . S
C1475 C1474 1.405 . S
C1475 C1476 1.364 . S
C1476 C1475 1.364 . S
C1476 C1477 1.400 . S
C1477 H1465 0.931 . S
C1477 C1472 1.408 . S
C1477 C1476 1.400 . S
H1478 C1484 0.930 . S
H1479 C1487 0.931 . S
H1480 C1489 0.931 . S
H1481 C1491 0.930 . S
H1482 C1493 0.930 . S
H1483 C1495 0.931 . S
C1484 H1478 0.930 . S
C1484 C1485 1.380 . S
C1484 C1486 1.394 . S
C1485 C1484 1.380 . S
C1485 C1489 1.382 . S
C1486 C1484 1.394 . S
C1486 C1487 1.400 . S
C1487 H1479 0.931 . S
C1487 C1486 1.400 . S
C1487 C1488 1.375 . S
C1488 C1487 1.375 . S
C1488 C1489 1.415 . S
C1488 C1490 1.501 1_545 S
C1489 H1480 0.931 . S
C1489 C1485 1.382 . S
C1489 C1488 1.415 . S
C1490 C1488 1.501 1_565 S
C1490 C1491 1.384 . S
C1490 C1495 1.408 . S
C1491 H1481 0.930 . S
C1491 C1490 1.384 . S
C1491 C1492 1.389 . S
C1492 C1491 1.389 . S
C1492 C1493 1.405 . S
C1493 H1482 0.930 . S
C1493 C1492 1.405 . S
C1493 C1494 1.364 . S
C1494 C1493 1.364 . S
C1494 C1495 1.400 . S
C1495 H1483 0.931 . S
C1495 C1490 1.408 . S
C1495 C1494 1.400 . S
H1496 C1502 0.930 . S
H1497 C1505 0.931 . S
H1498 C1507 0.931 . S
H1499 C1509 0.930 . S
H1500 C1511 0.930 . S
H1501 C1513 0.931 . S
C1502 H1496 0.930 . S
C1502 C1503 1.380 . S
C1502 C1504 1.394 . S
C1503 C1502 1.380 . S
C1503 C1507 1.382 . S
C1504 C1502 1.394 . S
C1504 C1505 1.400 . S
C1505 H1497 0.931 . S
C1505 C1504 1.400 . S
C1505 C1506 1.375 . S
C1506 C1505 1.375 . S
C1506 C1507 1.415 . S
C1506 C1508 1.501 . S
C1507 H1498 0.931 . S
C1507 C1503 1.382 . S
C1507 C1506 1.415 . S
C1508 C1506 1.501 . S
C1508 C1509 1.384 . S
C1508 C1513 1.408 . S
C1509 H1499 0.930 . S
C1509 C1508 1.384 . S
C1509 C1510 1.389 . S
C1510 C1509 1.389 . S
C1510 C1511 1.405 . S
C1511 H1500 0.930 . S
C1511 C1510 1.405 . S
C1511 C1512 1.364 . S
C1512 C1511 1.364 . S
C1512 C1513 1.400 . S
C1513 H1501 0.931 . S
C1513 C1508 1.408 . S
C1513 C1512 1.400 . S
H1514 C1520 0.930 . S
H1515 C1523 0.931 . S
H1516 C1525 0.931 . S
H1517 C1527 0.930 . S
H1518 C1529 0.930 . S
H1519 C1531 0.931 . S
C1520 H1514 0.930 . S
C1520 C1521 1.380 . S
C1520 C1522 1.394 . S
C1521 C1520 1.380 . S
C1521 C1525 1.382 . S
C1522 C1520 1.394 . S
C1522 C1523 1.400 . S
C1523 H1515 0.931 . S
C1523 C1522 1.400 . S
C1523 C1524 1.375 . S
C1524 C1523 1.375 . S
C1524 C1525 1.415 . S
C1524 C1526 1.501 . S
C1525 H1516 0.931 . S
C1525 C1521 1.382 . S
C1525 C1524 1.415 . S
C1526 C1524 1.501 . S
C1526 C1527 1.384 . S
C1526 C1531 1.408 . S
C1527 H1517 0.930 . S
C1527 C1526 1.384 . S
C1527 C1528 1.389 . S
C1528 C1527 1.389 . S
C1528 C1529 1.405 . S
C1529 H1518 0.930 . S
C1529 C1528 1.405 . S
C1529 C1530 1.364 . S
C1530 C1529 1.364 . S
C1530 C1531 1.400 . S
C1531 H1519 0.931 . S
C1531 C1526 1.408 . S
C1531 C1530 1.400 . S
H1532 C1538 0.930 . S
H1533 C1541 0.931 . S
H1534 C1543 0.931 . S
H1535 C1545 0.930 . S
H1536 C1547 0.930 . S
H1537 C1549 0.931 . S
C1538 H1532 0.930 . S
C1538 C1539 1.380 . S
C1538 C1540 1.394 . S
C1539 C1538 1.380 . S
C1539 C1543 1.382 . S
C1540 C1538 1.394 . S
C1540 C1541 1.400 . S
C1541 H1533 0.931 . S
C1541 C1540 1.400 . S
C1541 C1542 1.375 . S
C1542 C1541 1.375 . S
C1542 C1543 1.415 . S
C1542 C1544 1.501 . S
C1543 H1534 0.931 . S
C1543 C1539 1.382 . S
C1543 C1542 1.415 . S
C1544 C1542 1.501 . S
C1544 C1545 1.384 . S
C1544 C1549 1.408 . S
C1545 H1535 0.930 . S
C1545 C1544 1.384 . S
C1545 C1546 1.389 . S
C1546 C1545 1.389 . S
C1546 C1547 1.405 . S
C1547 H1536 0.930 . S
C1547 C1546 1.405 . S
C1547 C1548 1.364 . S
C1548 C1547 1.364 . S
C1548 C1549 1.400 . S
C1549 H1537 0.931 . S
C1549 C1544 1.408 . S
C1549 C1548 1.400 . S
H1550 C1556 0.930 . S
H1551 C1559 0.931 . S
H1552 C1561 0.931 . S
H1553 C1563 0.930 . S
H1554 C1565 0.930 . S
H1555 C1567 0.931 . S
C1556 H1550 0.930 . S
C1556 C1557 1.380 . S
C1556 C1558 1.394 . S
C1557 C1556 1.380 . S
C1557 C1561 1.382 . S
C1558 C1556 1.394 . S
C1558 C1559 1.400 . S
C1559 H1551 0.931 . S
C1559 C1558 1.400 . S
C1559 C1560 1.375 . S
C1560 C1559 1.375 . S
C1560 C1561 1.415 . S
C1560 C1562 1.501 . S
C1561 H1552 0.931 . S
C1561 C1557 1.382 . S
C1561 C1560 1.415 . S
C1562 C1560 1.501 . S
C1562 C1563 1.384 . S
C1562 C1567 1.408 . S
C1563 H1553 0.930 . S
C1563 C1562 1.384 . S
C1563 C1564 1.389 . S
C1564 C1563 1.389 . S
C1564 C1565 1.405 . S
C1565 H1554 0.930 . S
C1565 C1564 1.405 . S
C1565 C1566 1.364 . S
C1566 C1565 1.364 . S
C1566 C1567 1.400 . S
C1567 H1555 0.931 . S
C1567 C1562 1.408 . S
C1567 C1566 1.400 . S
H1568 C1574 0.930 . S
H1569 C1577 0.931 . S
H1570 C1579 0.931 . S
H1571 C1581 0.930 . S
H1572 C1583 0.930 . S
H1573 C1585 0.931 . S
C1574 H1568 0.930 . S
C1574 C1575 1.380 . S
C1574 C1576 1.394 . S
C1575 C1574 1.380 . S
C1575 C1579 1.382 . S
C1576 C1574 1.394 . S
C1576 C1577 1.400 . S
C1577 H1569 0.931 . S
C1577 C1576 1.400 . S
C1577 C1578 1.375 . S
C1578 C1577 1.375 . S
C1578 C1579 1.415 . S
C1578 C1580 1.501 . S
C1579 H1570 0.931 . S
C1579 C1575 1.382 . S
C1579 C1578 1.415 . S
C1580 C1578 1.501 . S
C1580 C1581 1.384 . S
C1580 C1585 1.408 . S
C1581 H1571 0.930 . S
C1581 C1580 1.384 . S
C1581 C1582 1.389 . S
C1582 C1581 1.389 . S
C1582 C1583 1.405 . S
C1583 H1572 0.930 . S
C1583 C1582 1.405 . S
C1583 C1584 1.364 . S
C1584 C1583 1.364 . S
C1584 C1585 1.400 . S
C1585 H1573 0.931 . S
C1585 C1580 1.408 . S
C1585 C1584 1.400 . S
H1586 C1592 0.930 . S
H1587 C1595 0.931 . S
H1588 C1597 0.931 . S
H1589 C1599 0.930 . S
H1590 C1601 0.930 . S
H1591 C1603 0.931 . S
C1592 H1586 0.930 . S
C1592 C1593 1.380 . S
C1592 C1594 1.394 . S
C1593 C1592 1.380 . S
C1593 C1597 1.382 . S
C1594 C1592 1.394 . S
C1594 C1595 1.400 . S
C1595 H1587 0.931 . S
C1595 C1594 1.400 . S
C1595 C1596 1.375 . S
C1596 C1595 1.375 . S
C1596 C1597 1.415 . S
C1596 C1598 1.501 . S
C1597 H1588 0.931 . S
C1597 C1593 1.382 . S
C1597 C1596 1.415 . S
C1598 C1596 1.501 . S
C1598 C1599 1.384 . S
C1598 C1603 1.408 . S
C1599 H1589 0.930 . S
C1599 C1598 1.384 . S
C1599 C1600 1.389 . S
C1600 C1599 1.389 . S
C1600 C1601 1.405 . S
C1601 H1590 0.930 . S
C1601 C1600 1.405 . S
C1601 C1602 1.364 . S
C1602 C1601 1.364 . S
C1602 C1603 1.400 . S
C1603 H1591 0.931 . S
C1603 C1598 1.408 . S
C1603 C1602 1.400 . S
H1604 C1610 0.930 . S
H1605 C1613 0.931 . S
H1606 C1615 0.931 . S
H1607 C1617 0.930 . S
H1608 C1619 0.930 . S
H1609 C1621 0.931 . S
C1610 H1604 0.930 . S
C1610 C1611 1.380 . S
C1610 C1612 1.394 . S
C1611 C1610 1.380 . S
C1611 C1615 1.382 . S
C1612 C1610 1.394 . S
C1612 C1613 1.400 . S
C1613 H1605 0.931 . S
C1613 C1612 1.400 . S
C1613 C1614 1.375 . S
C1614 C1613 1.375 . S
C1614 C1615 1.415 . S
C1614 C1616 1.501 . S
C1615 H1606 0.931 . S
C1615 C1611 1.382 . S
C1615 C1614 1.415 . S
C1616 C1614 1.501 . S
C1616 C1617 1.384 . S
C1616 C1621 1.408 . S
C1617 H1607 0.930 . S
C1617 C1616 1.384 . S
C1617 C1618 1.389 . S
C1618 C1617 1.389 . S
C1618 C1619 1.405 . S
C1619 H1608 0.930 . S
C1619 C1618 1.405 . S
C1619 C1620 1.364 . S
C1620 C1619 1.364 . S
C1620 C1621 1.400 . S
C1621 H1609 0.931 . S
C1621 C1616 1.408 . S
C1621 C1620 1.400 . S
H1622 C1628 0.930 . S
H1623 C1631 0.931 . S
H1624 C1633 0.931 . S
H1625 C1635 0.930 . S
H1626 C1637 0.930 . S
H1627 C1639 0.931 . S
C1628 H1622 0.930 . S
C1628 C1629 1.380 . S
C1628 C1630 1.394 . S
C1629 C1628 1.380 . S
C1629 C1633 1.382 . S
C1630 C1628 1.394 . S
C1630 C1631 1.400 . S
C1631 H1623 0.931 . S
C1631 C1630 1.400 . S
C1631 C1632 1.375 . S
C1632 C1631 1.375 . S
C1632 C1633 1.415 . S
C1632 C1634 1.501 . S
C1633 H1624 0.931 . S
C1633 C1629 1.382 . S
C1633 C1632 1.415 . S
C1634 C1632 1.501 . S
C1634 C1635 1.384 . S
C1634 C1639 1.408 . S
C1635 H1625 0.930 . S
C1635 C1634 1.384 . S
C1635 C1636 1.389 . S
C1636 C1635 1.389 . S
C1636 C1637 1.405 . S
C1637 H1626 0.930 . S
C1637 C1636 1.405 . S
C1637 C1638 1.364 . S
C1638 C1637 1.364 . S
C1638 C1639 1.400 . S
C1639 H1627 0.931 . S
C1639 C1634 1.408 . S
C1639 C1638 1.400 . S
H1640 C1646 0.930 . S
H1641 C1649 0.931 . S
H1642 C1651 0.931 . S
H1643 C1653 0.930 . S
H1644 C1655 0.930 . S
H1645 C1657 0.931 . S
C1646 H1640 0.930 . S
C1646 C1647 1.380 . S
C1646 C1648 1.394 . S
C1647 C1646 1.380 . S
C1647 C1651 1.382 . S
C1648 C1646 1.394 . S
C1648 C1649 1.400 . S
C1649 H1641 0.931 . S
C1649 C1648 1.400 . S
C1649 C1650 1.375 . S
C1650 C1649 1.375 . S
C1650 C1651 1.415 . S
C1650 C1652 1.501 . S
C1651 H1642 0.931 . S
C1651 C1647 1.382 . S
C1651 C1650 1.415 . S
C1652 C1650 1.501 . S
C1652 C1653 1.384 . S
C1652 C1657 1.408 . S
C1653 H1643 0.930 . S
C1653 C1652 1.384 . S
C1653 C1654 1.389 . S
C1654 C1653 1.389 . S
C1654 C1655 1.405 . S
C1655 H1644 0.930 . S
C1655 C1654 1.405 . S
C1655 C1656 1.364 . S
C1656 C1655 1.364 . S
C1656 C1657 1.400 . S
C1657 H1645 0.931 . S
C1657 C1652 1.408 . S
C1657 C1656 1.400 . S
H1658 C1664 0.930 . S
H1659 C1667 0.931 . S
H1660 C1669 0.931 . S
H1661 C1671 0.930 . S
H1662 C1673 0.930 . S
H1663 C1675 0.931 . S
C1664 H1658 0.930 . S
C1664 C1665 1.380 . S
C1664 C1666 1.394 . S
C1665 C1664 1.380 . S
C1665 C1669 1.382 . S
C1666 C1664 1.394 . S
C1666 C1667 1.400 . S
C1667 H1659 0.931 . S
C1667 C1666 1.400 . S
C1667 C1668 1.375 . S
C1668 C1667 1.375 . S
C1668 C1669 1.415 . S
C1668 C1670 1.501 . S
C1669 H1660 0.931 . S
C1669 C1665 1.382 . S
C1669 C1668 1.415 . S
C1670 C1668 1.501 . S
C1670 C1671 1.384 . S
C1670 C1675 1.408 . S
C1671 H1661 0.930 . S
C1671 C1670 1.384 . S
C1671 C1672 1.389 . S
C1672 C1671 1.389 . S
C1672 C1673 1.405 . S
C1673 H1662 0.930 . S
C1673 C1672 1.405 . S
C1673 C1674 1.364 . S
C1674 C1673 1.364 . S
C1674 C1675 1.400 . S
C1675 H1663 0.931 . S
C1675 C1670 1.408 . S
C1675 C1674 1.400 . S
H1676 C1682 0.930 . S
H1677 C1685 0.931 . S
H1678 C1687 0.931 . S
H1679 C1689 0.930 . S
H1680 C1691 0.930 . S
H1681 C1693 0.931 . S
C1682 H1676 0.930 . S
C1682 C1683 1.380 . S
C1682 C1684 1.394 . S
C1683 C1682 1.380 . S
C1683 C1687 1.382 . S
C1684 C1682 1.394 . S
C1684 C1685 1.400 . S
C1685 H1677 0.931 . S
C1685 C1684 1.400 . S
C1685 C1686 1.375 . S
C1686 C1685 1.375 . S
C1686 C1687 1.415 . S
C1686 C1688 1.501 . S
C1687 H1678 0.931 . S
C1687 C1683 1.382 . S
C1687 C1686 1.415 . S
C1688 C1686 1.501 . S
C1688 C1689 1.384 . S
C1688 C1693 1.408 . S
C1689 H1679 0.930 . S
C1689 C1688 1.384 . S
C1689 C1690 1.389 . S
C1690 C1689 1.389 . S
C1690 C1691 1.405 . S
C1691 H1680 0.930 . S
C1691 C1690 1.405 . S
C1691 C1692 1.364 . S
C1692 C1691 1.364 . S
C1692 C1693 1.400 . S
C1693 H1681 0.931 . S
C1693 C1688 1.408 . S
C1693 C1692 1.400 . S
H1694 C1700 0.930 . S
H1695 C1703 0.931 . S
H1696 C1705 0.931 . S
H1697 C1707 0.930 . S
H1698 C1709 0.930 . S
H1699 C1711 0.931 . S
C1700 H1694 0.930 . S
C1700 C1701 1.380 . S
C1700 C1702 1.394 . S
C1701 C1700 1.380 . S
C1701 C1705 1.382 . S
C1702 C1700 1.394 . S
C1702 C1703 1.400 . S
C1703 H1695 0.931 . S
C1703 C1702 1.400 . S
C1703 C1704 1.375 . S
C1704 C1703 1.375 . S
C1704 C1705 1.415 . S
C1704 C1706 1.501 . S
C1705 H1696 0.931 . S
C1705 C1701 1.382 . S
C1705 C1704 1.415 . S
C1706 C1704 1.501 . S
C1706 C1707 1.384 . S
C1706 C1711 1.408 . S
C1707 H1697 0.930 . S
C1707 C1706 1.384 . S
C1707 C1708 1.389 . S
C1708 C1707 1.389 . S
C1708 C1709 1.405 . S
C1709 H1698 0.930 . S
C1709 C1708 1.405 . S
C1709 C1710 1.364 . S
C1710 C1709 1.364 . S
C1710 C1711 1.400 . S
C1711 H1699 0.931 . S
C1711 C1706 1.408 . S
C1711 C1710 1.400 . S
C1712 C1713 1.369 . S
C1712 C1714 1.419 . S
C1712 H1716 0.930 . S
C1713 C1712 1.369 . S
C1713 C1722 1.429 . S
C1714 C1712 1.419 . S
C1714 C1715 1.363 . S
C1714 H1717 0.929 . S
C1715 C1714 1.363 . S
C1715 C1721 1.428 . S
H1716 C1712 0.930 . S
H1717 C1714 0.929 . S
S1718 N1719 1.613 . S
S1718 N1720 1.610 . S
N1719 S1718 1.613 . S
N1719 C1722 1.350 . S
N1720 S1718 1.610 . S
N1720 C1721 1.351 . S
C1721 C1715 1.428 . S
C1721 N1720 1.351 . S
C1721 C1722 1.434 . S
C1722 C1713 1.429 . S
C1722 N1719 1.350 . S
C1722 C1721 1.434 . S
C1723 C1724 1.369 . S
C1723 C1725 1.419 . S
C1723 H1727 0.930 . S
C1724 C1723 1.369 . S
C1724 C1733 1.429 . S
C1725 C1723 1.419 . S
C1725 C1726 1.363 . S
C1725 H1728 0.929 . S
C1726 C1725 1.363 . S
C1726 C1732 1.428 . S
H1727 C1723 0.930 . S
H1728 C1725 0.929 . S
S1729 N1730 1.613 . S
S1729 N1731 1.610 . S
N1730 S1729 1.613 . S
N1730 C1733 1.350 . S
N1731 S1729 1.610 . S
N1731 C1732 1.351 . S
C1732 C1726 1.428 . S
C1732 N1731 1.351 . S
C1732 C1733 1.434 . S
C1733 C1724 1.429 . S
C1733 N1730 1.350 . S
C1733 C1732 1.434 . S
C1734 C1735 1.369 . S
C1734 C1736 1.419 . S
C1734 H1738 0.930 . S
C1735 C1734 1.369 . S
C1735 C1744 1.429 . S
C1736 C1734 1.419 . S
C1736 C1737 1.363 . S
C1736 H1739 0.929 . S
C1737 C1736 1.363 . S
C1737 C1743 1.428 . S
H1738 C1734 0.930 . S
H1739 C1736 0.929 . S
S1740 N1741 1.613 . S
S1740 N1742 1.610 . S
N1741 S1740 1.613 . S
N1741 C1744 1.350 . S
N1742 S1740 1.610 . S
N1742 C1743 1.351 . S
C1743 C1737 1.428 . S
C1743 N1742 1.351 . S
C1743 C1744 1.434 . S
C1744 C1735 1.429 . S
C1744 N1741 1.350 . S
C1744 C1743 1.434 . S
C1745 C1746 1.369 . S
C1745 C1747 1.419 . S
C1745 H1749 0.930 . S
C1746 C1745 1.369 . S
C1746 C1755 1.429 . S
C1747 C1745 1.419 . S
C1747 C1748 1.363 . S
C1747 H1750 0.929 . S
C1748 C1747 1.363 . S
C1748 C1754 1.428 . S
H1749 C1745 0.930 . S
H1750 C1747 0.929 . S
S1751 N1752 1.613 . S
S1751 N1753 1.610 . S
N1752 S1751 1.613 . S
N1752 C1755 1.350 . S
N1753 S1751 1.610 . S
N1753 C1754 1.351 . S
C1754 C1748 1.428 . S
C1754 N1753 1.351 . S
C1754 C1755 1.434 . S
C1755 C1746 1.429 . S
C1755 N1752 1.350 . S
C1755 C1754 1.434 . S
C1756 C1757 1.369 . S
C1756 C1758 1.419 . S
C1756 H1760 0.930 . S
C1757 C1756 1.369 . S
C1757 C1766 1.429 . S
C1758 C1756 1.419 . S
C1758 C1759 1.363 . S
C1758 H1761 0.929 . S
C1759 C1758 1.363 . S
C1759 C1765 1.428 . S
H1760 C1756 0.930 . S
H1761 C1758 0.929 . S
S1762 N1763 1.613 . S
S1762 N1764 1.610 . S
N1763 S1762 1.613 . S
N1763 C1766 1.350 . S
N1764 S1762 1.610 . S
N1764 C1765 1.351 . S
C1765 C1759 1.428 . S
C1765 N1764 1.351 . S
C1765 C1766 1.434 . S
C1766 C1757 1.429 . S
C1766 N1763 1.350 . S
C1766 C1765 1.434 . S
C1767 C1768 1.369 . S
C1767 C1769 1.419 . S
C1767 H1771 0.930 . S
C1768 C1767 1.369 . S
C1768 C1777 1.429 . S
C1769 C1767 1.419 . S
C1769 C1770 1.363 . S
C1769 H1772 0.929 . S
C1770 C1769 1.363 . S
C1770 C1776 1.428 . S
H1771 C1767 0.930 . S
H1772 C1769 0.929 . S
S1773 N1774 1.613 . S
S1773 N1775 1.610 . S
N1774 S1773 1.613 . S
N1774 C1777 1.350 . S
N1775 S1773 1.610 . S
N1775 C1776 1.351 . S
C1776 C1770 1.428 . S
C1776 N1775 1.351 . S
C1776 C1777 1.434 . S
C1777 C1768 1.429 . S
C1777 N1774 1.350 . S
C1777 C1776 1.434 . S
C1778 C1779 1.369 . S
C1778 C1780 1.419 . S
C1778 H1782 0.930 . S
C1779 C1778 1.369 . S
C1779 C1788 1.429 . S
C1780 C1778 1.419 . S
C1780 C1781 1.363 . S
C1780 H1783 0.929 . S
C1781 C1780 1.363 . S
C1781 C1787 1.428 . S
H1782 C1778 0.930 . S
H1783 C1780 0.929 . S
S1784 N1785 1.613 . S
S1784 N1786 1.610 . S
N1785 S1784 1.613 . S
N1785 C1788 1.350 . S
N1786 S1784 1.610 . S
N1786 C1787 1.351 . S
C1787 C1781 1.428 . S
C1787 N1786 1.351 . S
C1787 C1788 1.434 . S
C1788 C1779 1.429 . S
C1788 N1785 1.350 . S
C1788 C1787 1.434 . S
C1789 C1790 1.369 . S
C1789 C1791 1.419 . S
C1789 H1793 0.930 . S
C1790 C1789 1.369 . S
C1790 C1799 1.429 . S
C1791 C1789 1.419 . S
C1791 C1792 1.363 . S
C1791 H1794 0.929 . S
C1792 C1791 1.363 . S
C1792 C1798 1.428 . S
H1793 C1789 0.930 . S
H1794 C1791 0.929 . S
S1795 N1796 1.613 . S
S1795 N1797 1.610 . S
N1796 S1795 1.613 . S
N1796 C1799 1.350 . S
N1797 S1795 1.610 . S
N1797 C1798 1.351 . S
C1798 C1792 1.428 . S
C1798 N1797 1.351 . S
C1798 C1799 1.434 . S
C1799 C1790 1.429 . S
C1799 N1796 1.350 . S
C1799 C1798 1.434 . S
C1800 C1801 1.369 . S
C1800 C1802 1.419 . S
C1800 H1804 0.930 . S
C1801 C1800 1.369 . S
C1801 C1810 1.429 . S
C1802 C1800 1.419 . S
C1802 C1803 1.363 . S
C1802 H1805 0.929 . S
C1803 C1802 1.363 . S
C1803 C1809 1.428 . S
H1804 C1800 0.930 . S
H1805 C1802 0.929 . S
S1806 N1807 1.613 . S
S1806 N1808 1.610 . S
N1807 S1806 1.613 . S
N1807 C1810 1.350 . S
N1808 S1806 1.610 . S
N1808 C1809 1.351 . S
C1809 C1803 1.428 . S
C1809 N1808 1.351 . S
C1809 C1810 1.434 . S
C1810 C1801 1.429 . S
C1810 N1807 1.350 . S
C1810 C1809 1.434 . S
C1811 C1812 1.369 . S
C1811 C1813 1.419 . S
C1811 H1815 0.930 . S
C1812 C1811 1.369 . S
C1812 C1821 1.429 . S
C1813 C1811 1.419 . S
C1813 C1814 1.363 . S
C1813 H1816 0.929 . S
C1814 C1813 1.363 . S
C1814 C1820 1.428 . S
H1815 C1811 0.930 . S
H1816 C1813 0.929 . S
S1817 N1818 1.613 . S
S1817 N1819 1.610 . S
N1818 S1817 1.613 . S
N1818 C1821 1.350 . S
N1819 S1817 1.610 . S
N1819 C1820 1.351 . S
C1820 C1814 1.428 . S
C1820 N1819 1.351 . S
C1820 C1821 1.434 . S
C1821 C1812 1.429 . S
C1821 N1818 1.350 . S
C1821 C1820 1.434 . S
C1822 C1823 1.369 . S
C1822 C1824 1.419 . S
C1822 H1826 0.930 . S
C1823 C1822 1.369 . S
C1823 C1832 1.429 . S
C1824 C1822 1.419 . S
C1824 C1825 1.363 . S
C1824 H1827 0.929 . S
C1825 C1824 1.363 . S
C1825 C1831 1.428 . S
H1826 C1822 0.930 . S
H1827 C1824 0.929 . S
S1828 N1829 1.613 . S
S1828 N1830 1.610 . S
N1829 S1828 1.613 . S
N1829 C1832 1.350 . S
N1830 S1828 1.610 . S
N1830 C1831 1.351 . S
C1831 C1825 1.428 . S
C1831 N1830 1.351 . S
C1831 C1832 1.434 . S
C1832 C1823 1.429 . S
C1832 N1829 1.350 . S
C1832 C1831 1.434 . S
C1833 C1834 1.369 . S
C1833 C1835 1.419 . S
C1833 H1837 0.930 . S
C1834 C1833 1.369 . S
C1834 C1843 1.429 . S
C1835 C1833 1.419 . S
C1835 C1836 1.363 . S
C1835 H1838 0.929 . S
C1836 C1835 1.363 . S
C1836 C1842 1.428 . S
H1837 C1833 0.930 . S
H1838 C1835 0.929 . S
S1839 N1840 1.613 . S
S1839 N1841 1.610 . S
N1840 S1839 1.613 . S
N1840 C1843 1.350 . S
N1841 S1839 1.610 . S
N1841 C1842 1.351 . S
C1842 C1836 1.428 . S
C1842 N1841 1.351 . S
C1842 C1843 1.434 . S
C1843 C1834 1.429 . S
C1843 N1840 1.350 . S
C1843 C1842 1.434 . S
C1844 C1845 1.369 . S
C1844 C1846 1.419 . S
C1844 H1848 0.930 . S
C1845 C1844 1.369 . S
C1845 C1854 1.429 . S
C1846 C1844 1.419 . S
C1846 C1847 1.363 . S
C1846 H1849 0.929 . S
C1847 C1846 1.363 . S
C1847 C1853 1.428 . S
H1848 C1844 0.930 . S
H1849 C1846 0.929 . S
S1850 N1851 1.613 . S
S1850 N1852 1.610 . S
N1851 S1850 1.613 . S
N1851 C1854 1.350 . S
N1852 S1850 1.610 . S
N1852 C1853 1.351 . S
C1853 C1847 1.428 . S
C1853 N1852 1.351 . S
C1853 C1854 1.434 . S
C1854 C1845 1.429 . S
C1854 N1851 1.350 . S
C1854 C1853 1.434 . S
C1855 C1856 1.369 . S
C1855 C1857 1.419 . S
C1855 H1859 0.930 . S
C1856 C1855 1.369 . S
C1856 C1865 1.429 . S
C1857 C1855 1.419 . S
C1857 C1858 1.363 . S
C1857 H1860 0.929 . S
C1858 C1857 1.363 . S
C1858 C1864 1.428 . S
H1859 C1855 0.930 . S
H1860 C1857 0.929 . S
S1861 N1862 1.613 . S
S1861 N1863 1.610 . S
N1862 S1861 1.613 . S
N1862 C1865 1.350 . S
N1863 S1861 1.610 . S
N1863 C1864 1.351 . S
C1864 C1858 1.428 . S
C1864 N1863 1.351 . S
C1864 C1865 1.434 . S
C1865 C1856 1.429 . S
C1865 N1862 1.350 . S
C1865 C1864 1.434 . S
C1866 C1867 1.369 . S
C1866 C1868 1.419 . S
C1866 H1870 0.930 . S
C1867 C1866 1.369 . S
C1867 C1876 1.429 . S
C1868 C1866 1.419 . S
C1868 C1869 1.363 . S
C1868 H1871 0.929 . S
C1869 C1868 1.363 . S
C1869 C1875 1.428 . S
H1870 C1866 0.930 . S
H1871 C1868 0.929 . S
S1872 N1873 1.613 . S
S1872 N1874 1.610 . S
N1873 S1872 1.613 . S
N1873 C1876 1.350 . S
N1874 S1872 1.610 . S
N1874 C1875 1.351 . S
C1875 C1869 1.428 . S
C1875 N1874 1.351 . S
C1875 C1876 1.434 . S
C1876 C1867 1.429 . S
C1876 N1873 1.350 . S
C1876 C1875 1.434 . S
C1877 C1878 1.369 . S
C1877 C1879 1.419 . S
C1877 H1881 0.930 . S
C1878 C1877 1.369 . S
C1878 C1887 1.429 . S
C1879 C1877 1.419 . S
C1879 C1880 1.363 . S
C1879 H1882 0.929 . S
C1880 C1879 1.363 . S
C1880 C1886 1.428 . S
H1881 C1877 0.930 . S
H1882 C1879 0.929 . S
S1883 N1884 1.613 . S
S1883 N1885 1.610 . S
N1884 S1883 1.613 . S
N1884 C1887 1.350 . S
N1885 S1883 1.610 . S
N1885 C1886 1.351 . S
C1886 C1880 1.428 . S
C1886 N1885 1.351 . S
C1886 C1887 1.434 . S
C1887 C1878 1.429 . S
C1887 N1884 1.350 . S
C1887 C1886 1.434 . S
C1888 C1889 1.369 . S
C1888 C1890 1.419 . S
C1888 H1892 0.930 . S
C1889 C1888 1.369 . S
C1889 C1898 1.429 . S
C1890 C1888 1.419 . S
C1890 C1891 1.363 . S
C1890 H1893 0.929 . S
C1891 C1890 1.363 . S
C1891 C1897 1.428 . S
H1892 C1888 0.930 . S
H1893 C1890 0.929 . S
S1894 N1895 1.613 . S
S1894 N1896 1.610 . S
N1895 S1894 1.613 . S
N1895 C1898 1.350 . S
N1896 S1894 1.610 . S
N1896 C1897 1.351 . S
C1897 C1891 1.428 . S
C1897 N1896 1.351 . S
C1897 C1898 1.434 . S
C1898 C1889 1.429 . S
C1898 N1895 1.350 . S
C1898 C1897 1.434 . S
C1899 C1900 1.369 . S
C1899 C1901 1.419 . S
C1899 H1903 0.930 . S
C1900 C1899 1.369 . S
C1900 C1909 1.429 . S
C1901 C1899 1.419 . S
C1901 C1902 1.363 . S
C1901 H1904 0.929 . S
C1902 C1901 1.363 . S
C1902 C1908 1.428 . S
H1903 C1899 0.930 . S
H1904 C1901 0.929 . S
S1905 N1906 1.613 . S
S1905 N1907 1.610 . S
N1906 S1905 1.613 . S
N1906 C1909 1.350 . S
N1907 S1905 1.610 . S
N1907 C1908 1.351 . S
C1908 C1902 1.428 . S
C1908 N1907 1.351 . S
C1908 C1909 1.434 . S
C1909 C1900 1.429 . S
C1909 N1906 1.350 . S
C1909 C1908 1.434 . S
C1910 C1911 1.369 . S
C1910 C1912 1.419 . S
C1910 H1914 0.930 . S
C1911 C1910 1.369 . S
C1911 C1920 1.429 . S
C1912 C1910 1.419 . S
C1912 C1913 1.363 . S
C1912 H1915 0.929 . S
C1913 C1912 1.363 . S
C1913 C1919 1.428 . S
H1914 C1910 0.930 . S
H1915 C1912 0.929 . S
S1916 N1917 1.613 . S
S1916 N1918 1.610 . S
N1917 S1916 1.613 . S
N1917 C1920 1.350 . S
N1918 S1916 1.610 . S
N1918 C1919 1.351 . S
C1919 C1913 1.428 . S
C1919 N1918 1.351 . S
C1919 C1920 1.434 . S
C1920 C1911 1.429 . S
C1920 N1917 1.350 . S
C1920 C1919 1.434 . S
C1921 C1922 1.369 . S
C1921 C1923 1.419 . S
C1921 H1925 0.930 . S
C1922 C1921 1.369 . S
C1922 C1931 1.429 . S
C1923 C1921 1.419 . S
C1923 C1924 1.363 . S
C1923 H1926 0.929 . S
C1924 C1923 1.363 . S
C1924 C1930 1.428 . S
H1925 C1921 0.930 . S
H1926 C1923 0.929 . S
S1927 N1928 1.613 . S
S1927 N1929 1.610 . S
N1928 S1927 1.613 . S
N1928 C1931 1.350 . S
N1929 S1927 1.610 . S
N1929 C1930 1.351 . S
C1930 C1924 1.428 . S
C1930 N1929 1.351 . S
C1930 C1931 1.434 . S
C1931 C1922 1.429 . S
C1931 N1928 1.350 . S
C1931 C1930 1.434 . S
C1932 C1933 1.369 . S
C1932 C1934 1.419 . S
C1932 H1936 0.930 . S
C1933 C1932 1.369 . S
C1933 C1942 1.429 . S
C1934 C1932 1.419 . S
C1934 C1935 1.363 . S
C1934 H1937 0.929 . S
C1935 C1934 1.363 . S
C1935 C1941 1.428 . S
H1936 C1932 0.930 . S
H1937 C1934 0.929 . S
S1938 N1939 1.613 . S
S1938 N1940 1.610 . S
N1939 S1938 1.613 . S
N1939 C1942 1.350 . S
N1940 S1938 1.610 . S
N1940 C1941 1.351 . S
C1941 C1935 1.428 . S
C1941 N1940 1.351 . S
C1941 C1942 1.434 . S
C1942 C1933 1.429 . S
C1942 N1939 1.350 . S
C1942 C1941 1.434 . S
C1943 C1944 1.369 . S
C1943 C1945 1.419 . S
C1943 H1947 0.930 . S
C1944 C1943 1.369 . S
C1944 C1953 1.429 . S
C1945 C1943 1.419 . S
C1945 C1946 1.363 . S
C1945 H1948 0.929 . S
C1946 C1945 1.363 . S
C1946 C1952 1.428 . S
H1947 C1943 0.930 . S
H1948 C1945 0.929 . S
S1949 N1950 1.613 . S
S1949 N1951 1.610 . S
N1950 S1949 1.613 . S
N1950 C1953 1.350 . S
N1951 S1949 1.610 . S
N1951 C1952 1.351 . S
C1952 C1946 1.428 . S
C1952 N1951 1.351 . S
C1952 C1953 1.434 . S
C1953 C1944 1.429 . S
C1953 N1950 1.350 . S
C1953 C1952 1.434 . S
C1954 C1955 1.369 . S
C1954 C1956 1.419 . S
C1954 H1958 0.930 . S
C1955 C1954 1.369 . S
C1955 C1964 1.429 . S
C1956 C1954 1.419 . S
C1956 C1957 1.363 . S
C1956 H1959 0.929 . S
C1957 C1956 1.363 . S
C1957 C1963 1.428 . S
H1958 C1954 0.930 . S
H1959 C1956 0.929 . S
S1960 N1961 1.613 . S
S1960 N1962 1.610 . S
N1961 S1960 1.613 . S
N1961 C1964 1.350 . S
N1962 S1960 1.610 . S
N1962 C1963 1.351 . S
C1963 C1957 1.428 . S
C1963 N1962 1.351 . S
C1963 C1964 1.434 . S
C1964 C1955 1.429 . S
C1964 N1961 1.350 . S
C1964 C1963 1.434 . S
C1965 C1966 1.369 . S
C1965 C1967 1.419 . S
C1965 H1969 0.930 . S
C1966 C1965 1.369 . S
C1966 C1975 1.429 . S
C1967 C1965 1.419 . S
C1967 C1968 1.363 . S
C1967 H1970 0.929 . S
C1968 C1967 1.363 . S
C1968 C1974 1.428 . S
H1969 C1965 0.930 . S
H1970 C1967 0.929 . S
S1971 N1972 1.613 . S
S1971 N1973 1.610 . S
N1972 S1971 1.613 . S
N1972 C1975 1.350 . S
N1973 S1971 1.610 . S
N1973 C1974 1.351 . S
C1974 C1968 1.428 . S
C1974 N1973 1.351 . S
C1974 C1975 1.434 . S
C1975 C1966 1.429 . S
C1975 N1972 1.350 . S
C1975 C1974 1.434 . S
C1976 C1977 1.369 . S
C1976 C1978 1.419 . S
C1976 H1980 0.930 . S
C1977 C1976 1.369 . S
C1977 C1986 1.429 . S
C1978 C1976 1.419 . S
C1978 C1979 1.363 . S
C1978 H1981 0.929 . S
C1979 C1978 1.363 . S
C1979 C1985 1.428 . S
H1980 C1976 0.930 . S
H1981 C1978 0.929 . S
S1982 N1983 1.613 . S
S1982 N1984 1.610 . S
N1983 S1982 1.613 . S
N1983 C1986 1.350 . S
N1984 S1982 1.610 . S
N1984 C1985 1.351 . S
C1985 C1979 1.428 . S
C1985 N1984 1.351 . S
C1985 C1986 1.434 . S
C1986 C1977 1.429 . S
C1986 N1983 1.350 . S
C1986 C1985 1.434 . S
C1987 C1988 1.369 . S
C1987 C1989 1.419 . S
C1987 H1991 0.930 . S
C1988 C1987 1.369 . S
C1988 C1997 1.429 . S
C1989 C1987 1.419 . S
C1989 C1990 1.363 . S
C1989 H1992 0.929 . S
C1990 C1989 1.363 . S
C1990 C1996 1.428 . S
H1991 C1987 0.930 . S
H1992 C1989 0.929 . S
S1993 N1994 1.613 . S
S1993 N1995 1.610 . S
N1994 S1993 1.613 . S
N1994 C1997 1.350 . S
N1995 S1993 1.610 . S
N1995 C1996 1.351 . S
C1996 C1990 1.428 . S
C1996 N1995 1.351 . S
C1996 C1997 1.434 . S
C1997 C1988 1.429 . S
C1997 N1994 1.350 . S
C1997 C1996 1.434 . S
C1998 C1999 1.369 . S
C1998 C2000 1.419 . S
C1998 H2002 0.930 . S
C1999 C1998 1.369 . S
C1999 C2008 1.429 . S
C2000 C1998 1.419 . S
C2000 C2001 1.363 . S
C2000 H2003 0.929 . S
C2001 C2000 1.363 . S
C2001 C2007 1.428 . S
H2002 C1998 0.930 . S
H2003 C2000 0.929 . S
S2004 N2005 1.613 . S
S2004 N2006 1.610 . S
N2005 S2004 1.613 . S
N2005 C2008 1.350 . S
N2006 S2004 1.610 . S
N2006 C2007 1.351 . S
C2007 C2001 1.428 . S
C2007 N2006 1.351 . S
C2007 C2008 1.434 . S
C2008 C1999 1.429 . S
C2008 N2005 1.350 . S
C2008 C2007 1.434 . S
C2009 C2010 1.369 . S
C2009 C2011 1.419 . S
C2009 H2013 0.930 . S
C2010 C2009 1.369 . S
C2010 C2019 1.429 . S
C2011 C2009 1.419 . S
C2011 C2012 1.363 . S
C2011 H2014 0.929 . S
C2012 C2011 1.363 . S
C2012 C2018 1.428 . S
H2013 C2009 0.930 . S
H2014 C2011 0.929 . S
S2015 N2016 1.613 . S
S2015 N2017 1.610 . S
N2016 S2015 1.613 . S
N2016 C2019 1.350 . S
N2017 S2015 1.610 . S
N2017 C2018 1.351 . S
C2018 C2012 1.428 . S
C2018 N2017 1.351 . S
C2018 C2019 1.434 . S
C2019 C2010 1.429 . S
C2019 N2016 1.350 . S
C2019 C2018 1.434 . S
C2020 C2021 1.369 . S
C2020 C2022 1.419 . S
C2020 H2024 0.930 . S
C2021 C2020 1.369 . S
C2021 C2030 1.429 . S
C2022 C2020 1.419 . S
C2022 C2023 1.363 . S
C2022 H2025 0.929 . S
C2023 C2022 1.363 . S
C2023 C2029 1.428 . S
H2024 C2020 0.930 . S
H2025 C2022 0.929 . S
S2026 N2027 1.613 . S
S2026 N2028 1.610 . S
N2027 S2026 1.613 . S
N2027 C2030 1.350 . S
N2028 S2026 1.610 . S
N2028 C2029 1.351 . S
C2029 C2023 1.428 . S
C2029 N2028 1.351 . S
C2029 C2030 1.434 . S
C2030 C2021 1.429 . S
C2030 N2027 1.350 . S
C2030 C2029 1.434 . S
C2031 C2032 1.369 . S
C2031 C2033 1.419 . S
C2031 H2035 0.930 . S
C2032 C2031 1.369 . S
C2032 C2041 1.429 . S
C2033 C2031 1.419 . S
C2033 C2034 1.363 . S
C2033 H2036 0.929 . S
C2034 C2033 1.363 . S
C2034 C2040 1.428 . S
H2035 C2031 0.930 . S
H2036 C2033 0.929 . S
S2037 N2038 1.613 . S
S2037 N2039 1.610 . S
N2038 S2037 1.613 . S
N2038 C2041 1.350 . S
N2039 S2037 1.610 . S
N2039 C2040 1.351 . S
C2040 C2034 1.428 . S
C2040 N2039 1.351 . S
C2040 C2041 1.434 . S
C2041 C2032 1.429 . S
C2041 N2038 1.350 . S
C2041 C2040 1.434 . S
C2042 C2043 1.369 . S
C2042 C2044 1.419 . S
C2042 H2046 0.930 . S
C2043 C2042 1.369 . S
C2043 C2052 1.429 . S
C2044 C2042 1.419 . S
C2044 C2045 1.363 . S
C2044 H2047 0.929 . S
C2045 C2044 1.363 . S
C2045 C2051 1.428 . S
H2046 C2042 0.930 . S
H2047 C2044 0.929 . S
S2048 N2049 1.613 . S
S2048 N2050 1.610 . S
N2049 S2048 1.613 . S
N2049 C2052 1.350 . S
N2050 S2048 1.610 . S
N2050 C2051 1.351 . S
C2051 C2045 1.428 . S
C2051 N2050 1.351 . S
C2051 C2052 1.434 . S
C2052 C2043 1.429 . S
C2052 N2049 1.350 . S
C2052 C2051 1.434 . S
C2053 C2054 1.369 . S
C2053 C2055 1.419 . S
C2053 H2057 0.930 . S
C2054 C2053 1.369 . S
C2054 C2063 1.429 . S
C2055 C2053 1.419 . S
C2055 C2056 1.363 . S
C2055 H2058 0.929 . S
C2056 C2055 1.363 . S
C2056 C2062 1.428 . S
H2057 C2053 0.930 . S
H2058 C2055 0.929 . S
S2059 N2060 1.613 . S
S2059 N2061 1.610 . S
N2060 S2059 1.613 . S
N2060 C2063 1.350 . S
N2061 S2059 1.610 . S
N2061 C2062 1.351 . S
C2062 C2056 1.428 . S
C2062 N2061 1.351 . S
C2062 C2063 1.434 . S
C2063 C2054 1.429 . S
C2063 N2060 1.350 . S
C2063 C2062 1.434 . S
C2064 C2065 1.369 . S
C2064 C2066 1.419 . S
C2064 H2068 0.930 . S
C2065 C2064 1.369 . S
C2065 C2074 1.429 . S
C2066 C2064 1.419 . S
C2066 C2067 1.363 . S
C2066 H2069 0.929 . S
C2067 C2066 1.363 . S
C2067 C2073 1.428 . S
H2068 C2064 0.930 . S
H2069 C2066 0.929 . S
S2070 N2071 1.613 . S
S2070 N2072 1.610 . S
N2071 S2070 1.613 . S
N2071 C2074 1.350 . S
N2072 S2070 1.610 . S
N2072 C2073 1.351 . S
C2073 C2067 1.428 . S
C2073 N2072 1.351 . S
C2073 C2074 1.434 . S
C2074 C2065 1.429 . S
C2074 N2071 1.350 . S
C2074 C2073 1.434 . S
C2075 C2076 1.369 . S
C2075 C2077 1.419 . S
C2075 H2079 0.930 . S
C2076 C2075 1.369 . S
C2076 C2085 1.429 . S
C2077 C2075 1.419 . S
C2077 C2078 1.363 . S
C2077 H2080 0.929 . S
C2078 C2077 1.363 . S
C2078 C2084 1.428 . S
H2079 C2075 0.930 . S
H2080 C2077 0.929 . S
S2081 N2082 1.613 . S
S2081 N2083 1.610 . S
N2082 S2081 1.613 . S
N2082 C2085 1.350 . S
N2083 S2081 1.610 . S
N2083 C2084 1.351 . S
C2084 C2078 1.428 . S
C2084 N2083 1.351 . S
C2084 C2085 1.434 . S
C2085 C2076 1.429 . S
C2085 N2082 1.350 . S
C2085 C2084 1.434 . S
C2086 C2087 1.369 . S
C2086 C2088 1.419 . S
C2086 H2090 0.930 . S
C2087 C2086 1.369 . S
C2087 C2096 1.429 . S
C2088 C2086 1.419 . S
C2088 C2089 1.363 . S
C2088 H2091 0.929 . S
C2089 C2088 1.363 . S
C2089 C2095 1.428 . S
H2090 C2086 0.930 . S
H2091 C2088 0.929 . S
S2092 N2093 1.613 . S
S2092 N2094 1.610 . S
N2093 S2092 1.613 . S
N2093 C2096 1.350 . S
N2094 S2092 1.610 . S
N2094 C2095 1.351 . S
C2095 C2089 1.428 . S
C2095 N2094 1.351 . S
C2095 C2096 1.434 . S
C2096 C2087 1.429 . S
C2096 N2093 1.350 . S
C2096 C2095 1.434 . S
C2097 C2098 1.369 . S
C2097 C2099 1.419 . S
C2097 H2101 0.930 . S
C2098 C2097 1.369 . S
C2098 C2107 1.429 . S
C2099 C2097 1.419 . S
C2099 C2100 1.363 . S
C2099 H2102 0.929 . S
C2100 C2099 1.363 . S
C2100 C2106 1.428 . S
H2101 C2097 0.930 . S
H2102 C2099 0.929 . S
S2103 N2104 1.613 . S
S2103 N2105 1.610 . S
N2104 S2103 1.613 . S
N2104 C2107 1.350 . S
N2105 S2103 1.610 . S
N2105 C2106 1.351 . S
C2106 C2100 1.428 . S
C2106 N2105 1.351 . S
C2106 C2107 1.434 . S
C2107 C2098 1.429 . S
C2107 N2104 1.350 . S
C2107 C2106 1.434 . S
C2108 C2109 1.369 . S
C2108 C2110 1.419 . S
C2108 H2112 0.930 . S
C2109 C2108 1.369 . S
C2109 C2118 1.429 . S
C2110 C2108 1.419 . S
C2110 C2111 1.363 . S
C2110 H2113 0.929 . S
C2111 C2110 1.363 . S
C2111 C2117 1.428 . S
H2112 C2108 0.930 . S
H2113 C2110 0.929 . S
S2114 N2115 1.613 . S
S2114 N2116 1.610 . S
N2115 S2114 1.613 . S
N2115 C2118 1.350 . S
N2116 S2114 1.610 . S
N2116 C2117 1.351 . S
C2117 C2111 1.428 . S
C2117 N2116 1.351 . S
C2117 C2118 1.434 . S
C2118 C2109 1.429 . S
C2118 N2115 1.350 . S
C2118 C2117 1.434 . S
C2119 C2120 1.369 . S
C2119 C2121 1.419 . S
C2119 H2123 0.930 . S
C2120 C2119 1.369 . S
C2120 C2129 1.429 . S
C2121 C2119 1.419 . S
C2121 C2122 1.363 . S
C2121 H2124 0.929 . S
C2122 C2121 1.363 . S
C2122 C2128 1.428 . S
H2123 C2119 0.930 . S
H2124 C2121 0.929 . S
S2125 N2126 1.613 . S
S2125 N2127 1.610 . S
N2126 S2125 1.613 . S
N2126 C2129 1.350 . S
N2127 S2125 1.610 . S
N2127 C2128 1.351 . S
C2128 C2122 1.428 . S
C2128 N2127 1.351 . S
C2128 C2129 1.434 . S
C2129 C2120 1.429 . S
C2129 N2126 1.350 . S
C2129 C2128 1.434 . S
C2130 C2131 1.369 . S
C2130 C2132 1.419 . S
C2130 H2134 0.930 . S
C2131 C2130 1.369 . S
C2131 C2140 1.429 . S
C2132 C2130 1.419 . S
C2132 C2133 1.363 . S
C2132 H2135 0.929 . S
C2133 C2132 1.363 . S
C2133 C2139 1.428 . S
H2134 C2130 0.930 . S
H2135 C2132 0.929 . S
S2136 N2137 1.613 . S
S2136 N2138 1.610 . S
N2137 S2136 1.613 . S
N2137 C2140 1.350 . S
N2138 S2136 1.610 . S
N2138 C2139 1.351 . S
C2139 C2133 1.428 . S
C2139 N2138 1.351 . S
C2139 C2140 1.434 . S
C2140 C2131 1.429 . S
C2140 N2137 1.350 . S
C2140 C2139 1.434 . S
C2141 C2142 1.369 . S
C2141 C2143 1.419 . S
C2141 H2145 0.930 . S
C2142 C2141 1.369 . S
C2142 C2151 1.429 . S
C2143 C2141 1.419 . S
C2143 C2144 1.363 . S
C2143 H2146 0.929 . S
C2144 C2143 1.363 . S
C2144 C2150 1.428 . S
H2145 C2141 0.930 . S
H2146 C2143 0.929 . S
S2147 N2148 1.613 . S
S2147 N2149 1.610 . S
N2148 S2147 1.613 . S
N2148 C2151 1.350 . S
N2149 S2147 1.610 . S
N2149 C2150 1.351 . S
C2150 C2144 1.428 . S
C2150 N2149 1.351 . S
C2150 C2151 1.434 . S
C2151 C2142 1.429 . S
C2151 N2148 1.350 . S
C2151 C2150 1.434 . S
C2152 C2153 1.369 . S
C2152 C2154 1.419 . S
C2152 H2156 0.930 . S
C2153 C2152 1.369 . S
C2153 C2162 1.429 . S
C2154 C2152 1.419 . S
C2154 C2155 1.363 . S
C2154 H2157 0.929 . S
C2155 C2154 1.363 . S
C2155 C2161 1.428 . S
H2156 C2152 0.930 . S
H2157 C2154 0.929 . S
S2158 N2159 1.613 . S
S2158 N2160 1.610 . S
N2159 S2158 1.613 . S
N2159 C2162 1.350 . S
N2160 S2158 1.610 . S
N2160 C2161 1.351 . S
C2161 C2155 1.428 . S
C2161 N2160 1.351 . S
C2161 C2162 1.434 . S
C2162 C2153 1.429 . S
C2162 N2159 1.350 . S
C2162 C2161 1.434 . S
C2163 C2164 1.369 . S
C2163 C2165 1.419 . S
C2163 H2167 0.930 . S
C2164 C2163 1.369 . S
C2164 C2173 1.429 . S
C2165 C2163 1.419 . S
C2165 C2166 1.363 . S
C2165 H2168 0.929 . S
C2166 C2165 1.363 . S
C2166 C2172 1.428 . S
H2167 C2163 0.930 . S
H2168 C2165 0.929 . S
S2169 N2170 1.613 . S
S2169 N2171 1.610 . S
N2170 S2169 1.613 . S
N2170 C2173 1.350 . S
N2171 S2169 1.610 . S
N2171 C2172 1.351 . S
C2172 C2166 1.428 . S
C2172 N2171 1.351 . S
C2172 C2173 1.434 . S
C2173 C2164 1.429 . S
C2173 N2170 1.350 . S
C2173 C2172 1.434 . S
C2174 C2175 1.369 . S
C2174 C2176 1.419 . S
C2174 H2178 0.930 . S
C2175 C2174 1.369 . S
C2175 C2184 1.429 . S
C2176 C2174 1.419 . S
C2176 C2177 1.363 . S
C2176 H2179 0.929 . S
C2177 C2176 1.363 . S
C2177 C2183 1.428 . S
H2178 C2174 0.930 . S
H2179 C2176 0.929 . S
S2180 N2181 1.613 . S
S2180 N2182 1.610 . S
N2181 S2180 1.613 . S
N2181 C2184 1.350 . S
N2182 S2180 1.610 . S
N2182 C2183 1.351 . S
C2183 C2177 1.428 . S
C2183 N2182 1.351 . S
C2183 C2184 1.434 . S
C2184 C2175 1.429 . S
C2184 N2181 1.350 . S
C2184 C2183 1.434 . S
C2185 C2186 1.369 . S
C2185 C2187 1.419 . S
C2185 H2189 0.930 . S
C2186 C2185 1.369 . S
C2186 C2195 1.429 . S
C2187 C2185 1.419 . S
C2187 C2188 1.363 . S
C2187 H2190 0.929 . S
C2188 C2187 1.363 . S
C2188 C2194 1.428 . S
H2189 C2185 0.930 . S
H2190 C2187 0.929 . S
S2191 N2192 1.613 . S
S2191 N2193 1.610 . S
N2192 S2191 1.613 . S
N2192 C2195 1.350 . S
N2193 S2191 1.610 . S
N2193 C2194 1.351 . S
C2194 C2188 1.428 . S
C2194 N2193 1.351 . S
C2194 C2195 1.434 . S
C2195 C2186 1.429 . S
C2195 N2192 1.350 . S
C2195 C2194 1.434 . S
C2196 C2197 1.369 . S
C2196 C2198 1.419 . S
C2196 H2200 0.930 . S
C2197 C2196 1.369 . S
C2197 C2206 1.429 . S
C2198 C2196 1.419 . S
C2198 C2199 1.363 . S
C2198 H2201 0.929 . S
C2199 C2198 1.363 . S
C2199 C2205 1.428 . S
H2200 C2196 0.930 . S
H2201 C2198 0.929 . S
S2202 N2203 1.613 . S
S2202 N2204 1.610 . S
N2203 S2202 1.613 . S
N2203 C2206 1.350 . S
N2204 S2202 1.610 . S
N2204 C2205 1.351 . S
C2205 C2199 1.428 . S
C2205 N2204 1.351 . S
C2205 C2206 1.434 . S
C2206 C2197 1.429 . S
C2206 N2203 1.350 . S
C2206 C2205 1.434 . S
C2207 C2208 1.369 . S
C2207 C2209 1.419 . S
C2207 H2211 0.930 . S
C2208 C2207 1.369 . S
C2208 C2217 1.429 . S
C2209 C2207 1.419 . S
C2209 C2210 1.363 . S
C2209 H2212 0.929 . S
C2210 C2209 1.363 . S
C2210 C2216 1.428 . S
H2211 C2207 0.930 . S
H2212 C2209 0.929 . S
S2213 N2214 1.613 . S
S2213 N2215 1.610 . S
N2214 S2213 1.613 . S
N2214 C2217 1.350 . S
N2215 S2213 1.610 . S
N2215 C2216 1.351 . S
C2216 C2210 1.428 . S
C2216 N2215 1.351 . S
C2216 C2217 1.434 . S
C2217 C2208 1.429 . S
C2217 N2214 1.350 . S
C2217 C2216 1.434 . S
C2218 C2219 1.369 . S
C2218 C2220 1.419 . S
C2218 H2222 0.930 . S
C2219 C2218 1.369 . S
C2219 C2228 1.429 . S
C2220 C2218 1.419 . S
C2220 C2221 1.363 . S
C2220 H2223 0.929 . S
C2221 C2220 1.363 . S
C2221 C2227 1.428 . S
H2222 C2218 0.930 . S
H2223 C2220 0.929 . S
S2224 N2225 1.613 . S
S2224 N2226 1.610 . S
N2225 S2224 1.613 . S
N2225 C2228 1.350 . S
N2226 S2224 1.610 . S
N2226 C2227 1.351 . S
C2227 C2221 1.428 . S
C2227 N2226 1.351 . S
C2227 C2228 1.434 . S
C2228 C2219 1.429 . S
C2228 N2225 1.350 . S
C2228 C2227 1.434 . S
C2229 C2230 1.369 . S
C2229 C2231 1.419 . S
C2229 H2233 0.930 . S
C2230 C2229 1.369 . S
C2230 C2239 1.429 . S
C2231 C2229 1.419 . S
C2231 C2232 1.363 . S
C2231 H2234 0.929 . S
C2232 C2231 1.363 . S
C2232 C2238 1.428 . S
H2233 C2229 0.930 . S
H2234 C2231 0.929 . S
S2235 N2236 1.613 . S
S2235 N2237 1.610 . S
N2236 S2235 1.613 . S
N2236 C2239 1.350 . S
N2237 S2235 1.610 . S
N2237 C2238 1.351 . S
C2238 C2232 1.428 . S
C2238 N2237 1.351 . S
C2238 C2239 1.434 . S
C2239 C2230 1.429 . S
C2239 N2236 1.350 . S
C2239 C2238 1.434 . S
C2240 C2241 1.369 . S
C2240 C2242 1.419 . S
C2240 H2244 0.930 . S
C2241 C2240 1.369 . S
C2241 C2250 1.429 . S
C2242 C2240 1.419 . S
C2242 C2243 1.363 . S
C2242 H2245 0.929 . S
C2243 C2242 1.363 . S
C2243 C2249 1.428 . S
H2244 C2240 0.930 . S
H2245 C2242 0.929 . S
S2246 N2247 1.613 . S
S2246 N2248 1.610 . S
N2247 S2246 1.613 . S
N2247 C2250 1.350 . S
N2248 S2246 1.610 . S
N2248 C2249 1.351 . S
C2249 C2243 1.428 . S
C2249 N2248 1.351 . S
C2249 C2250 1.434 . S
C2250 C2241 1.429 . S
C2250 N2247 1.350 . S
C2250 C2249 1.434 . S
C2251 C2252 1.369 . S
C2251 C2253 1.419 . S
C2251 H2255 0.930 . S
C2252 C2251 1.369 . S
C2252 C2261 1.429 . S
C2253 C2251 1.419 . S
C2253 C2254 1.363 . S
C2253 H2256 0.929 . S
C2254 C2253 1.363 . S
C2254 C2260 1.428 . S
H2255 C2251 0.930 . S
H2256 C2253 0.929 . S
S2257 N2258 1.613 . S
S2257 N2259 1.610 . S
N2258 S2257 1.613 . S
N2258 C2261 1.350 . S
N2259 S2257 1.610 . S
N2259 C2260 1.351 . S
C2260 C2254 1.428 . S
C2260 N2259 1.351 . S
C2260 C2261 1.434 . S
C2261 C2252 1.429 . S
C2261 N2258 1.350 . S
C2261 C2260 1.434 . S
C2262 C2263 1.369 . S
C2262 C2264 1.419 . S
C2262 H2266 0.930 . S
C2263 C2262 1.369 . S
C2263 C2272 1.429 . S
C2264 C2262 1.419 . S
C2264 C2265 1.363 . S
C2264 H2267 0.929 . S
C2265 C2264 1.363 . S
C2265 C2271 1.428 . S
H2266 C2262 0.930 . S
H2267 C2264 0.929 . S
S2268 N2269 1.613 . S
S2268 N2270 1.610 . S
N2269 S2268 1.613 . S
N2269 C2272 1.350 . S
N2270 S2268 1.610 . S
N2270 C2271 1.351 . S
C2271 C2265 1.428 . S
C2271 N2270 1.351 . S
C2271 C2272 1.434 . S
C2272 C2263 1.429 . S
C2272 N2269 1.350 . S
C2272 C2271 1.434 . S
C2273 C2274 1.369 . S
C2273 C2275 1.419 . S
C2273 H2277 0.930 . S
C2274 C2273 1.369 . S
C2274 C2283 1.429 . S
C2275 C2273 1.419 . S
C2275 C2276 1.363 . S
C2275 H2278 0.929 . S
C2276 C2275 1.363 . S
C2276 C2282 1.428 . S
H2277 C2273 0.930 . S
H2278 C2275 0.929 . S
S2279 N2280 1.613 . S
S2279 N2281 1.610 . S
N2280 S2279 1.613 . S
N2280 C2283 1.350 . S
N2281 S2279 1.610 . S
N2281 C2282 1.351 . S
C2282 C2276 1.428 . S
C2282 N2281 1.351 . S
C2282 C2283 1.434 . S
C2283 C2274 1.429 . S
C2283 N2280 1.350 . S
C2283 C2282 1.434 . S
C2284 C2285 1.369 . S
C2284 C2286 1.419 . S
C2284 H2288 0.930 . S
C2285 C2284 1.369 . S
C2285 C2294 1.429 . S
C2286 C2284 1.419 . S
C2286 C2287 1.363 . S
C2286 H2289 0.929 . S
C2287 C2286 1.363 . S
C2287 C2293 1.428 . S
H2288 C2284 0.930 . S
H2289 C2286 0.929 . S
S2290 N2291 1.613 . S
S2290 N2292 1.610 . S
N2291 S2290 1.613 . S
N2291 C2294 1.350 . S
N2292 S2290 1.610 . S
N2292 C2293 1.351 . S
C2293 C2287 1.428 . S
C2293 N2292 1.351 . S
C2293 C2294 1.434 . S
C2294 C2285 1.429 . S
C2294 N2291 1.350 . S
C2294 C2293 1.434 . S
C2295 C2296 1.369 . S
C2295 C2297 1.419 . S
C2295 H2299 0.930 . S
C2296 C2295 1.369 . S
C2296 C2305 1.429 . S
C2297 C2295 1.419 . S
C2297 C2298 1.363 . S
C2297 H2300 0.929 . S
C2298 C2297 1.363 . S
C2298 C2304 1.428 . S
H2299 C2295 0.930 . S
H2300 C2297 0.929 . S
S2301 N2302 1.613 . S
S2301 N2303 1.610 . S
N2302 S2301 1.613 . S
N2302 C2305 1.350 . S
N2303 S2301 1.610 . S
N2303 C2304 1.351 . S
C2304 C2298 1.428 . S
C2304 N2303 1.351 . S
C2304 C2305 1.434 . S
C2305 C2296 1.429 . S
C2305 N2302 1.350 . S
C2305 C2304 1.434 . S
C2306 C2307 1.369 . S
C2306 C2308 1.419 . S
C2306 H2310 0.930 . S
C2307 C2306 1.369 . S
C2307 C2316 1.429 . S
C2308 C2306 1.419 . S
C2308 C2309 1.363 . S
C2308 H2311 0.929 . S
C2309 C2308 1.363 . S
C2309 C2315 1.428 . S
H2310 C2306 0.930 . S
H2311 C2308 0.929 . S
S2312 N2313 1.613 . S
S2312 N2314 1.610 . S
N2313 S2312 1.613 . S
N2313 C2316 1.350 . S
N2314 S2312 1.610 . S
N2314 C2315 1.351 . S
C2315 C2309 1.428 . S
C2315 N2314 1.351 . S
C2315 C2316 1.434 . S
C2316 C2307 1.429 . S
C2316 N2313 1.350 . S
C2316 C2315 1.434 . S
C2317 C2318 1.369 . S
C2317 C2319 1.419 . S
C2317 H2321 0.930 . S
C2318 C2317 1.369 . S
C2318 C2327 1.429 . S
C2319 C2317 1.419 . S
C2319 C2320 1.363 . S
C2319 H2322 0.929 . S
C2320 C2319 1.363 . S
C2320 C2326 1.428 . S
H2321 C2317 0.930 . S
H2322 C2319 0.929 . S
S2323 N2324 1.613 . S
S2323 N2325 1.610 . S
N2324 S2323 1.613 . S
N2324 C2327 1.350 . S
N2325 S2323 1.610 . S
N2325 C2326 1.351 . S
C2326 C2320 1.428 . S
C2326 N2325 1.351 . S
C2326 C2327 1.434 . S
C2327 C2318 1.429 . S
C2327 N2324 1.350 . S
C2327 C2326 1.434 . S
C2328 C2329 1.369 . S
C2328 C2330 1.419 . S
C2328 H2332 0.930 . S
C2329 C2328 1.369 . S
C2329 C2338 1.429 . S
C2330 C2328 1.419 . S
C2330 C2331 1.363 . S
C2330 H2333 0.929 . S
C2331 C2330 1.363 . S
C2331 C2337 1.428 . S
H2332 C2328 0.930 . S
H2333 C2330 0.929 . S
S2334 N2335 1.613 . S
S2334 N2336 1.610 . S
N2335 S2334 1.613 . S
N2335 C2338 1.350 . S
N2336 S2334 1.610 . S
N2336 C2337 1.351 . S
C2337 C2331 1.428 . S
C2337 N2336 1.351 . S
C2337 C2338 1.434 . S
C2338 C2329 1.429 . S
C2338 N2335 1.350 . S
C2338 C2337 1.434 . S
C2339 C2340 1.369 . S
C2339 C2341 1.419 . S
C2339 H2343 0.930 . S
C2340 C2339 1.369 . S
C2340 C2349 1.429 . S
C2341 C2339 1.419 . S
C2341 C2342 1.363 . S
C2341 H2344 0.929 . S
C2342 C2341 1.363 . S
C2342 C2348 1.428 . S
H2343 C2339 0.930 . S
H2344 C2341 0.929 . S
S2345 N2346 1.613 . S
S2345 N2347 1.610 . S
N2346 S2345 1.613 . S
N2346 C2349 1.350 . S
N2347 S2345 1.610 . S
N2347 C2348 1.351 . S
C2348 C2342 1.428 . S
C2348 N2347 1.351 . S
C2348 C2349 1.434 . S
C2349 C2340 1.429 . S
C2349 N2346 1.350 . S
C2349 C2348 1.434 . S
C2350 C2351 1.369 . S
C2350 C2352 1.419 . S
C2350 H2354 0.930 . S
C2351 C2350 1.369 . S
C2351 C2360 1.429 . S
C2352 C2350 1.419 . S
C2352 C2353 1.363 . S
C2352 H2355 0.929 . S
C2353 C2352 1.363 . S
C2353 C2359 1.428 . S
H2354 C2350 0.930 . S
H2355 C2352 0.929 . S
S2356 N2357 1.613 . S
S2356 N2358 1.610 . S
N2357 S2356 1.613 . S
N2357 C2360 1.350 . S
N2358 S2356 1.610 . S
N2358 C2359 1.351 . S
C2359 C2353 1.428 . S
C2359 N2358 1.351 . S
C2359 C2360 1.434 . S
C2360 C2351 1.429 . S
C2360 N2357 1.350 . S
C2360 C2359 1.434 . S
C2361 C2362 1.369 . S
C2361 C2363 1.419 . S
C2361 H2365 0.930 . S
C2362 C2361 1.369 . S
C2362 C2371 1.429 . S
C2363 C2361 1.419 . S
C2363 C2364 1.363 . S
C2363 H2366 0.929 . S
C2364 C2363 1.363 . S
C2364 C2370 1.428 . S
H2365 C2361 0.930 . S
H2366 C2363 0.929 . S
S2367 N2368 1.613 . S
S2367 N2369 1.610 . S
N2368 S2367 1.613 . S
N2368 C2371 1.350 . S
N2369 S2367 1.610 . S
N2369 C2370 1.351 . S
C2370 C2364 1.428 . S
C2370 N2369 1.351 . S
C2370 C2371 1.434 . S
C2371 C2362 1.429 . S
C2371 N2368 1.350 . S
C2371 C2370 1.434 . S
C2372 C2373 1.369 . S
C2372 C2374 1.419 . S
C2372 H2376 0.930 . S
C2373 C2372 1.369 . S
C2373 C2382 1.429 . S
C2374 C2372 1.419 . S
C2374 C2375 1.363 . S
C2374 H2377 0.929 . S
C2375 C2374 1.363 . S
C2375 C2381 1.428 . S
H2376 C2372 0.930 . S
H2377 C2374 0.929 . S
S2378 N2379 1.613 . S
S2378 N2380 1.610 . S
N2379 S2378 1.613 . S
N2379 C2382 1.350 . S
N2380 S2378 1.610 . S
N2380 C2381 1.351 . S
C2381 C2375 1.428 . S
C2381 N2380 1.351 . S
C2381 C2382 1.434 . S
C2382 C2373 1.429 . S
C2382 N2379 1.350 . S
C2382 C2381 1.434 . S
C2383 C2384 1.369 . S
C2383 C2385 1.419 . S
C2383 H2387 0.930 . S
C2384 C2383 1.369 . S
C2384 C2393 1.429 . S
C2385 C2383 1.419 . S
C2385 C2386 1.363 . S
C2385 H2388 0.929 . S
C2386 C2385 1.363 . S
C2386 C2392 1.428 . S
H2387 C2383 0.930 . S
H2388 C2385 0.929 . S
S2389 N2390 1.613 . S
S2389 N2391 1.610 . S
N2390 S2389 1.613 . S
N2390 C2393 1.350 . S
N2391 S2389 1.610 . S
N2391 C2392 1.351 . S
C2392 C2386 1.428 . S
C2392 N2391 1.351 . S
C2392 C2393 1.434 . S
C2393 C2384 1.429 . S
C2393 N2390 1.350 . S
C2393 C2392 1.434 . S
C2394 C2395 1.369 . S
C2394 C2396 1.419 . S
C2394 H2398 0.930 . S
C2395 C2394 1.369 . S
C2395 C2404 1.429 . S
C2396 C2394 1.419 . S
C2396 C2397 1.363 . S
C2396 H2399 0.929 . S
C2397 C2396 1.363 . S
C2397 C2403 1.428 . S
H2398 C2394 0.930 . S
H2399 C2396 0.929 . S
S2400 N2401 1.613 . S
S2400 N2402 1.610 . S
N2401 S2400 1.613 . S
N2401 C2404 1.350 . S
N2402 S2400 1.610 . S
N2402 C2403 1.351 . S
C2403 C2397 1.428 . S
C2403 N2402 1.351 . S
C2403 C2404 1.434 . S
C2404 C2395 1.429 . S
C2404 N2401 1.350 . S
C2404 C2403 1.434 . S
C2405 C2406 1.369 . S
C2405 C2407 1.419 . S
C2405 H2409 0.930 . S
C2406 C2405 1.369 . S
C2406 C2415 1.429 . S
C2407 C2405 1.419 . S
C2407 C2408 1.363 . S
C2407 H2410 0.929 . S
C2408 C2407 1.363 . S
C2408 C2414 1.428 . S
H2409 C2405 0.930 . S
H2410 C2407 0.929 . S
S2411 N2412 1.613 . S
S2411 N2413 1.610 . S
N2412 S2411 1.613 . S
N2412 C2415 1.350 . S
N2413 S2411 1.610 . S
N2413 C2414 1.351 . S
C2414 C2408 1.428 . S
C2414 N2413 1.351 . S
C2414 C2415 1.434 . S
C2415 C2406 1.429 . S
C2415 N2412 1.350 . S
C2415 C2414 1.434 . S
C2416 C2417 1.369 . S
C2416 C2418 1.419 . S
C2416 H2420 0.930 . S
C2417 C2416 1.369 . S
C2417 C2426 1.429 . S
C2418 C2416 1.419 . S
C2418 C2419 1.363 . S
C2418 H2421 0.929 . S
C2419 C2418 1.363 . S
C2419 C2425 1.428 . S
H2420 C2416 0.930 . S
H2421 C2418 0.929 . S
S2422 N2423 1.613 . S
S2422 N2424 1.610 . S
N2423 S2422 1.613 . S
N2423 C2426 1.350 . S
N2424 S2422 1.610 . S
N2424 C2425 1.351 . S
C2425 C2419 1.428 . S
C2425 N2424 1.351 . S
C2425 C2426 1.434 . S
C2426 C2417 1.429 . S
C2426 N2423 1.350 . S
C2426 C2425 1.434 . S
C2427 C2428 1.369 . S
C2427 C2429 1.419 . S
C2427 H2431 0.930 . S
C2428 C2427 1.369 . S
C2428 C2437 1.429 . S
C2429 C2427 1.419 . S
C2429 C2430 1.363 . S
C2429 H2432 0.929 . S
C2430 C2429 1.363 . S
C2430 C2436 1.428 . S
H2431 C2427 0.930 . S
H2432 C2429 0.929 . S
S2433 N2434 1.613 . S
S2433 N2435 1.610 . S
N2434 S2433 1.613 . S
N2434 C2437 1.350 . S
N2435 S2433 1.610 . S
N2435 C2436 1.351 . S
C2436 C2430 1.428 . S
C2436 N2435 1.351 . S
C2436 C2437 1.434 . S
C2437 C2428 1.429 . S
C2437 N2434 1.350 . S
C2437 C2436 1.434 . S
C2438 C2439 1.369 . S
C2438 C2440 1.419 . S
C2438 H2442 0.930 . S
C2439 C2438 1.369 . S
C2439 C2448 1.429 . S
C2440 C2438 1.419 . S
C2440 C2441 1.363 . S
C2440 H2443 0.929 . S
C2441 C2440 1.363 . S
C2441 C2447 1.428 . S
H2442 C2438 0.930 . S
H2443 C2440 0.929 . S
S2444 N2445 1.613 . S
S2444 N2446 1.610 . S
N2445 S2444 1.613 . S
N2445 C2448 1.350 . S
N2446 S2444 1.610 . S
N2446 C2447 1.351 . S
C2447 C2441 1.428 . S
C2447 N2446 1.351 . S
C2447 C2448 1.434 . S
C2448 C2439 1.429 . S
C2448 N2445 1.350 . S
C2448 C2447 1.434 . S
C2449 C2450 1.369 . S
C2449 C2451 1.419 . S
C2449 H2453 0.930 . S
C2450 C2449 1.369 . S
C2450 C2459 1.429 . S
C2451 C2449 1.419 . S
C2451 C2452 1.363 . S
C2451 H2454 0.929 . S
C2452 C2451 1.363 . S
C2452 C2458 1.428 . S
H2453 C2449 0.930 . S
H2454 C2451 0.929 . S
S2455 N2456 1.613 . S
S2455 N2457 1.610 . S
N2456 S2455 1.613 . S
N2456 C2459 1.350 . S
N2457 S2455 1.610 . S
N2457 C2458 1.351 . S
C2458 C2452 1.428 . S
C2458 N2457 1.351 . S
C2458 C2459 1.434 . S
C2459 C2450 1.429 . S
C2459 N2456 1.350 . S
C2459 C2458 1.434 . S
C2460 C2461 1.369 . S
C2460 C2462 1.419 . S
C2460 H2464 0.930 . S
C2461 C2460 1.369 . S
C2461 C2470 1.429 . S
C2462 C2460 1.419 . S
C2462 C2463 1.363 . S
C2462 H2465 0.929 . S
C2463 C2462 1.363 . S
C2463 C2469 1.428 . S
H2464 C2460 0.930 . S
H2465 C2462 0.929 . S
S2466 N2467 1.613 . S
S2466 N2468 1.610 . S
N2467 S2466 1.613 . S
N2467 C2470 1.350 . S
N2468 S2466 1.610 . S
N2468 C2469 1.351 . S
C2469 C2463 1.428 . S
C2469 N2468 1.351 . S
C2469 C2470 1.434 . S
C2470 C2461 1.429 . S
C2470 N2467 1.350 . S
C2470 C2469 1.434 . S
C2471 C2472 1.369 . S
C2471 C2473 1.419 . S
C2471 H2475 0.930 . S
C2472 C2471 1.369 . S
C2472 C2481 1.429 . S
C2473 C2471 1.419 . S
C2473 C2474 1.363 . S
C2473 H2476 0.929 . S
C2474 C2473 1.363 . S
C2474 C2480 1.428 . S
H2475 C2471 0.930 . S
H2476 C2473 0.929 . S
S2477 N2478 1.613 . S
S2477 N2479 1.610 . S
N2478 S2477 1.613 . S
N2478 C2481 1.350 . S
N2479 S2477 1.610 . S
N2479 C2480 1.351 . S
C2480 C2474 1.428 . S
C2480 N2479 1.351 . S
C2480 C2481 1.434 . S
C2481 C2472 1.429 . S
C2481 N2478 1.350 . S
C2481 C2480 1.434 . S
C2482 C2483 1.369 . S
C2482 C2484 1.419 . S
C2482 H2486 0.930 . S
C2483 C2482 1.369 . S
C2483 C2492 1.429 . S
C2484 C2482 1.419 . S
C2484 C2485 1.363 . S
C2484 H2487 0.929 . S
C2485 C2484 1.363 . S
C2485 C2491 1.428 . S
H2486 C2482 0.930 . S
H2487 C2484 0.929 . S
S2488 N2489 1.613 . S
S2488 N2490 1.610 . S
N2489 S2488 1.613 . S
N2489 C2492 1.350 . S
N2490 S2488 1.610 . S
N2490 C2491 1.351 . S
C2491 C2485 1.428 . S
C2491 N2490 1.351 . S
C2491 C2492 1.434 . S
C2492 C2483 1.429 . S
C2492 N2489 1.350 . S
C2492 C2491 1.434 . S
C2493 C2494 1.369 . S
C2493 C2495 1.419 . S
C2493 H2497 0.930 . S
C2494 C2493 1.369 . S
C2494 C2503 1.429 . S
C2495 C2493 1.419 . S
C2495 C2496 1.363 . S
C2495 H2498 0.929 . S
C2496 C2495 1.363 . S
C2496 C2502 1.428 . S
H2497 C2493 0.930 . S
H2498 C2495 0.929 . S
S2499 N2500 1.613 . S
S2499 N2501 1.610 . S
N2500 S2499 1.613 . S
N2500 C2503 1.350 . S
N2501 S2499 1.610 . S
N2501 C2502 1.351 . S
C2502 C2496 1.428 . S
C2502 N2501 1.351 . S
C2502 C2503 1.434 . S
C2503 C2494 1.429 . S
C2503 N2500 1.350 . S
C2503 C2502 1.434 . S
C2504 C2505 1.369 . S
C2504 C2506 1.419 . S
C2504 H2508 0.930 . S
C2505 C2504 1.369 . S
C2505 C2514 1.429 . S
C2506 C2504 1.419 . S
C2506 C2507 1.363 . S
C2506 H2509 0.929 . S
C2507 C2506 1.363 . S
C2507 C2513 1.428 . S
H2508 C2504 0.930 . S
H2509 C2506 0.929 . S
S2510 N2511 1.613 . S
S2510 N2512 1.610 . S
N2511 S2510 1.613 . S
N2511 C2514 1.350 . S
N2512 S2510 1.610 . S
N2512 C2513 1.351 . S
C2513 C2507 1.428 . S
C2513 N2512 1.351 . S
C2513 C2514 1.434 . S
C2514 C2505 1.429 . S
C2514 N2511 1.350 . S
C2514 C2513 1.434 . S
C2515 C2516 1.369 . S
C2515 C2517 1.419 . S
C2515 H2519 0.930 . S
C2516 C2515 1.369 . S
C2516 C2525 1.429 . S
C2517 C2515 1.419 . S
C2517 C2518 1.363 . S
C2517 H2520 0.929 . S
C2518 C2517 1.363 . S
C2518 C2524 1.428 . S
H2519 C2515 0.930 . S
H2520 C2517 0.929 . S
S2521 N2522 1.613 . S
S2521 N2523 1.610 . S
N2522 S2521 1.613 . S
N2522 C2525 1.350 . S
N2523 S2521 1.610 . S
N2523 C2524 1.351 . S
C2524 C2518 1.428 . S
C2524 N2523 1.351 . S
C2524 C2525 1.434 . S
C2525 C2516 1.429 . S
C2525 N2522 1.350 . S
C2525 C2524 1.434 . S
C2526 C2527 1.369 . S
C2526 C2528 1.419 . S
C2526 H2530 0.930 . S
C2527 C2526 1.369 . S
C2527 C2536 1.429 . S
C2528 C2526 1.419 . S
C2528 C2529 1.363 . S
C2528 H2531 0.929 . S
C2529 C2528 1.363 . S
C2529 C2535 1.428 . S
H2530 C2526 0.930 . S
H2531 C2528 0.929 . S
S2532 N2533 1.613 . S
S2532 N2534 1.610 . S
N2533 S2532 1.613 . S
N2533 C2536 1.350 . S
N2534 S2532 1.610 . S
N2534 C2535 1.351 . S
C2535 C2529 1.428 . S
C2535 N2534 1.351 . S
C2535 C2536 1.434 . S
C2536 C2527 1.429 . S
C2536 N2533 1.350 . S
C2536 C2535 1.434 . S
C2537 C2538 1.369 . S
C2537 C2539 1.419 . S
C2537 H2541 0.930 . S
C2538 C2537 1.369 . S
C2538 C2547 1.429 . S
C2539 C2537 1.419 . S
C2539 C2540 1.363 . S
C2539 H2542 0.929 . S
C2540 C2539 1.363 . S
C2540 C2546 1.428 . S
H2541 C2537 0.930 . S
H2542 C2539 0.929 . S
S2543 N2544 1.613 . S
S2543 N2545 1.610 . S
N2544 S2543 1.613 . S
N2544 C2547 1.350 . S
N2545 S2543 1.610 . S
N2545 C2546 1.351 . S
C2546 C2540 1.428 . S
C2546 N2545 1.351 . S
C2546 C2547 1.434 . S
C2547 C2538 1.429 . S
C2547 N2544 1.350 . S
C2547 C2546 1.434 . S
C2548 C2549 1.369 . S
C2548 C2550 1.419 . S
C2548 H2552 0.930 . S
C2549 C2548 1.369 . S
C2549 C2558 1.429 . S
C2550 C2548 1.419 . S
C2550 C2551 1.363 . S
C2550 H2553 0.929 . S
C2551 C2550 1.363 . S
C2551 C2557 1.428 . S
H2552 C2548 0.930 . S
H2553 C2550 0.929 . S
S2554 N2555 1.613 . S
S2554 N2556 1.610 . S
N2555 S2554 1.613 . S
N2555 C2558 1.350 . S
N2556 S2554 1.610 . S
N2556 C2557 1.351 . S
C2557 C2551 1.428 . S
C2557 N2556 1.351 . S
C2557 C2558 1.434 . S
C2558 C2549 1.429 . S
C2558 N2555 1.350 . S
C2558 C2557 1.434 . S
C2559 C2560 1.369 . S
C2559 C2561 1.419 . S
C2559 H2563 0.930 . S
C2560 C2559 1.369 . S
C2560 C2569 1.429 . S
C2561 C2559 1.419 . S
C2561 C2562 1.363 . S
C2561 H2564 0.929 . S
C2562 C2561 1.363 . S
C2562 C2568 1.428 . S
H2563 C2559 0.930 . S
H2564 C2561 0.929 . S
S2565 N2566 1.613 . S
S2565 N2567 1.610 . S
N2566 S2565 1.613 . S
N2566 C2569 1.350 . S
N2567 S2565 1.610 . S
N2567 C2568 1.351 . S
C2568 C2562 1.428 . S
C2568 N2567 1.351 . S
C2568 C2569 1.434 . S
C2569 C2560 1.429 . S
C2569 N2566 1.350 . S
C2569 C2568 1.434 . S
C2570 C2571 1.369 . S
C2570 C2572 1.419 . S
C2570 H2574 0.930 . S
C2571 C2570 1.369 . S
C2571 C2580 1.429 . S
C2572 C2570 1.419 . S
C2572 C2573 1.363 . S
C2572 H2575 0.929 . S
C2573 C2572 1.363 . S
C2573 C2579 1.428 . S
H2574 C2570 0.930 . S
H2575 C2572 0.929 . S
S2576 N2577 1.613 . S
S2576 N2578 1.610 . S
N2577 S2576 1.613 . S
N2577 C2580 1.350 . S
N2578 S2576 1.610 . S
N2578 C2579 1.351 . S
C2579 C2573 1.428 . S
C2579 N2578 1.351 . S
C2579 C2580 1.434 . S
C2580 C2571 1.429 . S
C2580 N2577 1.350 . S
C2580 C2579 1.434 . S
C2581 C2582 1.369 . S
C2581 C2583 1.419 . S
C2581 H2585 0.930 . S
C2582 C2581 1.369 . S
C2582 C2591 1.429 . S
C2583 C2581 1.419 . S
C2583 C2584 1.363 . S
C2583 H2586 0.929 . S
C2584 C2583 1.363 . S
C2584 C2590 1.428 . S
H2585 C2581 0.930 . S
H2586 C2583 0.929 . S
S2587 N2588 1.613 . S
S2587 N2589 1.610 . S
N2588 S2587 1.613 . S
N2588 C2591 1.350 . S
N2589 S2587 1.610 . S
N2589 C2590 1.351 . S
C2590 C2584 1.428 . S
C2590 N2589 1.351 . S
C2590 C2591 1.434 . S
C2591 C2582 1.429 . S
C2591 N2588 1.350 . S
C2591 C2590 1.434 . S
C2592 C2593 1.369 . S
C2592 C2594 1.419 . S
C2592 H2596 0.930 . S
C2593 C2592 1.369 . S
C2593 C2602 1.429 . S
C2594 C2592 1.419 . S
C2594 C2595 1.363 . S
C2594 H2597 0.929 . S
C2595 C2594 1.363 . S
C2595 C2601 1.428 . S
H2596 C2592 0.930 . S
H2597 C2594 0.929 . S
S2598 N2599 1.613 . S
S2598 N2600 1.610 . S
N2599 S2598 1.613 . S
N2599 C2602 1.350 . S
N2600 S2598 1.610 . S
N2600 C2601 1.351 . S
C2601 C2595 1.428 . S
C2601 N2600 1.351 . S
C2601 C2602 1.434 . S
C2602 C2593 1.429 . S
C2602 N2599 1.350 . S
C2602 C2601 1.434 . S
C2603 C2604 1.369 . S
C2603 C2605 1.419 . S
C2603 H2607 0.930 . S
C2604 C2603 1.369 . S
C2604 C2613 1.429 . S
C2605 C2603 1.419 . S
C2605 C2606 1.363 . S
C2605 H2608 0.929 . S
C2606 C2605 1.363 . S
C2606 C2612 1.428 . S
H2607 C2603 0.930 . S
H2608 C2605 0.929 . S
S2609 N2610 1.613 . S
S2609 N2611 1.610 . S
N2610 S2609 1.613 . S
N2610 C2613 1.350 . S
N2611 S2609 1.610 . S
N2611 C2612 1.351 . S
C2612 C2606 1.428 . S
C2612 N2611 1.351 . S
C2612 C2613 1.434 . S
C2613 C2604 1.429 . S
C2613 N2610 1.350 . S
C2613 C2612 1.434 . S
C2614 C2615 1.369 . S
C2614 C2616 1.419 . S
C2614 H2618 0.930 . S
C2615 C2614 1.369 . S
C2615 C2624 1.429 . S
C2616 C2614 1.419 . S
C2616 C2617 1.363 . S
C2616 H2619 0.929 . S
C2617 C2616 1.363 . S
C2617 C2623 1.428 . S
H2618 C2614 0.930 . S
H2619 C2616 0.929 . S
S2620 N2621 1.613 . S
S2620 N2622 1.610 . S
N2621 S2620 1.613 . S
N2621 C2624 1.350 . S
N2622 S2620 1.610 . S
N2622 C2623 1.351 . S
C2623 C2617 1.428 . S
C2623 N2622 1.351 . S
C2623 C2624 1.434 . S
C2624 C2615 1.429 . S
C2624 N2621 1.350 . S
C2624 C2623 1.434 . S
C2625 C2626 1.369 . S
C2625 C2627 1.419 . S
C2625 H2629 0.930 . S
C2626 C2625 1.369 . S
C2626 C2635 1.429 . S
C2627 C2625 1.419 . S
C2627 C2628 1.363 . S
C2627 H2630 0.929 . S
C2628 C2627 1.363 . S
C2628 C2634 1.428 . S
H2629 C2625 0.930 . S
H2630 C2627 0.929 . S
S2631 N2632 1.613 . S
S2631 N2633 1.610 . S
N2632 S2631 1.613 . S
N2632 C2635 1.350 . S
N2633 S2631 1.610 . S
N2633 C2634 1.351 . S
C2634 C2628 1.428 . S
C2634 N2633 1.351 . S
C2634 C2635 1.434 . S
C2635 C2626 1.429 . S
C2635 N2632 1.350 . S
C2635 C2634 1.434 . S
C2636 C2637 1.369 . S
C2636 C2638 1.419 . S
C2636 H2640 0.930 . S
C2637 C2636 1.369 . S
C2637 C2646 1.429 . S
C2638 C2636 1.419 . S
C2638 C2639 1.363 . S
C2638 H2641 0.929 . S
C2639 C2638 1.363 . S
C2639 C2645 1.428 . S
H2640 C2636 0.930 . S
H2641 C2638 0.929 . S
S2642 N2643 1.613 . S
S2642 N2644 1.610 . S
N2643 S2642 1.613 . S
N2643 C2646 1.350 . S
N2644 S2642 1.610 . S
N2644 C2645 1.351 . S
C2645 C2639 1.428 . S
C2645 N2644 1.351 . S
C2645 C2646 1.434 . S
C2646 C2637 1.429 . S
C2646 N2643 1.350 . S
C2646 C2645 1.434 . S
C2647 C2648 1.369 . S
C2647 C2649 1.419 . S
C2647 H2651 0.930 . S
C2648 C2647 1.369 . S
C2648 C2657 1.429 . S
C2649 C2647 1.419 . S
C2649 C2650 1.363 . S
C2649 H2652 0.929 . S
C2650 C2649 1.363 . S
C2650 C2656 1.428 . S
H2651 C2647 0.930 . S
H2652 C2649 0.929 . S
S2653 N2654 1.613 . S
S2653 N2655 1.610 . S
N2654 S2653 1.613 . S
N2654 C2657 1.350 . S
N2655 S2653 1.610 . S
N2655 C2656 1.351 . S
C2656 C2650 1.428 . S
C2656 N2655 1.351 . S
C2656 C2657 1.434 . S
C2657 C2648 1.429 . S
C2657 N2654 1.350 . S
C2657 C2656 1.434 . S
C2658 C2659 1.369 . S
C2658 C2660 1.419 . S
C2658 H2662 0.930 . S
C2659 C2658 1.369 . S
C2659 C2668 1.429 . S
C2660 C2658 1.419 . S
C2660 C2661 1.363 . S
C2660 H2663 0.929 . S
C2661 C2660 1.363 . S
C2661 C2667 1.428 . S
H2662 C2658 0.930 . S
H2663 C2660 0.929 . S
S2664 N2665 1.613 . S
S2664 N2666 1.610 . S
N2665 S2664 1.613 . S
N2665 C2668 1.350 . S
N2666 S2664 1.610 . S
N2666 C2667 1.351 . S
C2667 C2661 1.428 . S
C2667 N2666 1.351 . S
C2667 C2668 1.434 . S
C2668 C2659 1.429 . S
C2668 N2665 1.350 . S
C2668 C2667 1.434 . S
C2669 C2670 1.369 . S
C2669 C2671 1.419 . S
C2669 H2673 0.930 . S
C2670 C2669 1.369 . S
C2670 C2679 1.429 . S
C2671 C2669 1.419 . S
C2671 C2672 1.363 . S
C2671 H2674 0.929 . S
C2672 C2671 1.363 . S
C2672 C2678 1.428 . S
H2673 C2669 0.930 . S
H2674 C2671 0.929 . S
S2675 N2676 1.613 . S
S2675 N2677 1.610 . S
N2676 S2675 1.613 . S
N2676 C2679 1.350 . S
N2677 S2675 1.610 . S
N2677 C2678 1.351 . S
C2678 C2672 1.428 . S
C2678 N2677 1.351 . S
C2678 C2679 1.434 . S
C2679 C2670 1.429 . S
C2679 N2676 1.350 . S
C2679 C2678 1.434 . S
C2680 C2681 1.369 . S
C2680 C2682 1.419 . S
C2680 H2684 0.930 . S
C2681 C2680 1.369 . S
C2681 C2690 1.429 . S
C2682 C2680 1.419 . S
C2682 C2683 1.363 . S
C2682 H2685 0.929 . S
C2683 C2682 1.363 . S
C2683 C2689 1.428 . S
H2684 C2680 0.930 . S
H2685 C2682 0.929 . S
S2686 N2687 1.613 . S
S2686 N2688 1.610 . S
N2687 S2686 1.613 . S
N2687 C2690 1.350 . S
N2688 S2686 1.610 . S
N2688 C2689 1.351 . S
C2689 C2683 1.428 . S
C2689 N2688 1.351 . S
C2689 C2690 1.434 . S
C2690 C2681 1.429 . S
C2690 N2687 1.350 . S
C2690 C2689 1.434 . S
C2691 C2692 1.369 . S
C2691 C2693 1.419 . S
C2691 H2695 0.930 . S
C2692 C2691 1.369 . S
C2692 C2701 1.429 . S
C2693 C2691 1.419 . S
C2693 C2694 1.363 . S
C2693 H2696 0.929 . S
C2694 C2693 1.363 . S
C2694 C2700 1.428 . S
H2695 C2691 0.930 . S
H2696 C2693 0.929 . S
S2697 N2698 1.613 . S
S2697 N2699 1.610 . S
N2698 S2697 1.613 . S
N2698 C2701 1.350 . S
N2699 S2697 1.610 . S
N2699 C2700 1.351 . S
C2700 C2694 1.428 . S
C2700 N2699 1.351 . S
C2700 C2701 1.434 . S
C2701 C2692 1.429 . S
C2701 N2698 1.350 . S
C2701 C2700 1.434 . S
C2702 C2703 1.369 . S
C2702 C2704 1.419 . S
C2702 H2706 0.930 . S
C2703 C2702 1.369 . S
C2703 C2712 1.429 . S
C2704 C2702 1.419 . S
C2704 C2705 1.363 . S
C2704 H2707 0.929 . S
C2705 C2704 1.363 . S
C2705 C2711 1.428 . S
H2706 C2702 0.930 . S
H2707 C2704 0.929 . S
S2708 N2709 1.613 . S
S2708 N2710 1.610 . S
N2709 S2708 1.613 . S
N2709 C2712 1.350 . S
N2710 S2708 1.610 . S
N2710 C2711 1.351 . S
C2711 C2705 1.428 . S
C2711 N2710 1.351 . S
C2711 C2712 1.434 . S
C2712 C2703 1.429 . S
C2712 N2709 1.350 . S
C2712 C2711 1.434 . S
C2713 C2714 1.369 . S
C2713 C2715 1.419 . S
C2713 H2717 0.930 . S
C2714 C2713 1.369 . S
C2714 C2723 1.429 . S
C2715 C2713 1.419 . S
C2715 C2716 1.363 . S
C2715 H2718 0.929 . S
C2716 C2715 1.363 . S
C2716 C2722 1.428 . S
H2717 C2713 0.930 . S
H2718 C2715 0.929 . S
S2719 N2720 1.613 . S
S2719 N2721 1.610 . S
N2720 S2719 1.613 . S
N2720 C2723 1.350 . S
N2721 S2719 1.610 . S
N2721 C2722 1.351 . S
C2722 C2716 1.428 . S
C2722 N2721 1.351 . S
C2722 C2723 1.434 . S
C2723 C2714 1.429 . S
C2723 N2720 1.350 . S
C2723 C2722 1.434 . S
C2724 C2725 1.369 . S
C2724 C2726 1.419 . S
C2724 H2728 0.930 . S
C2725 C2724 1.369 . S
C2725 C2734 1.429 . S
C2726 C2724 1.419 . S
C2726 C2727 1.363 . S
C2726 H2729 0.929 . S
C2727 C2726 1.363 . S
C2727 C2733 1.428 . S
H2728 C2724 0.930 . S
H2729 C2726 0.929 . S
S2730 N2731 1.613 . S
S2730 N2732 1.610 . S
N2731 S2730 1.613 . S
N2731 C2734 1.350 . S
N2732 S2730 1.610 . S
N2732 C2733 1.351 . S
C2733 C2727 1.428 . S
C2733 N2732 1.351 . S
C2733 C2734 1.434 . S
C2734 C2725 1.429 . S
C2734 N2731 1.350 . S
C2734 C2733 1.434 . S
C2735 C2736 1.369 . S
C2735 C2737 1.419 . S
C2735 H2739 0.930 . S
C2736 C2735 1.369 . S
C2736 C2745 1.429 . S
C2737 C2735 1.419 . S
C2737 C2738 1.363 . S
C2737 H2740 0.929 . S
C2738 C2737 1.363 . S
C2738 C2744 1.428 . S
H2739 C2735 0.930 . S
H2740 C2737 0.929 . S
S2741 N2742 1.613 . S
S2741 N2743 1.610 . S
N2742 S2741 1.613 . S
N2742 C2745 1.350 . S
N2743 S2741 1.610 . S
N2743 C2744 1.351 . S
C2744 C2738 1.428 . S
C2744 N2743 1.351 . S
C2744 C2745 1.434 . S
C2745 C2736 1.429 . S
C2745 N2742 1.350 . S
C2745 C2744 1.434 . S
C2746 C2747 1.369 . S
C2746 C2748 1.419 . S
C2746 H2750 0.930 . S
C2747 C2746 1.369 . S
C2747 C2756 1.429 . S
C2748 C2746 1.419 . S
C2748 C2749 1.363 . S
C2748 H2751 0.929 . S
C2749 C2748 1.363 . S
C2749 C2755 1.428 . S
H2750 C2746 0.930 . S
H2751 C2748 0.929 . S
S2752 N2753 1.613 . S
S2752 N2754 1.610 . S
N2753 S2752 1.613 . S
N2753 C2756 1.350 . S
N2754 S2752 1.610 . S
N2754 C2755 1.351 . S
C2755 C2749 1.428 . S
C2755 N2754 1.351 . S
C2755 C2756 1.434 . S
C2756 C2747 1.429 . S
C2756 N2753 1.350 . S
C2756 C2755 1.434 . S
C2757 C2758 1.369 . S
C2757 C2759 1.419 . S
C2757 H2761 0.930 . S
C2758 C2757 1.369 . S
C2758 C2767 1.429 . S
C2759 C2757 1.419 . S
C2759 C2760 1.363 . S
C2759 H2762 0.929 . S
C2760 C2759 1.363 . S
C2760 C2766 1.428 . S
H2761 C2757 0.930 . S
H2762 C2759 0.929 . S
S2763 N2764 1.613 . S
S2763 N2765 1.610 . S
N2764 S2763 1.613 . S
N2764 C2767 1.350 . S
N2765 S2763 1.610 . S
N2765 C2766 1.351 . S
C2766 C2760 1.428 . S
C2766 N2765 1.351 . S
C2766 C2767 1.434 . S
C2767 C2758 1.429 . S
C2767 N2764 1.350 . S
C2767 C2766 1.434 . S
C1715 C1294 1.490 . S
C1713 C21 1.536 . S
C1726 C1306 1.435 . S
C1724 C42 1.524 . S
C1735 C82 1.519 . S
C1737 C1330 1.479 . S
C1748 C1341 1.455 . S
C1746 C135 1.550 . S
C1757 C175 1.508 . S
C1759 C1348 1.419 . S
C1768 C221 1.531 . S
C1770 C1287 1.488 . S
C1779 C255 1.543 . S
C1781 C1314 1.443 . S
C1792 C1323 1.500 . S
C1790 C301 1.587 . S
C1803 C1360 1.471 . S
C1801 C15 1.542 . S
C1812 C55 1.521 . S
C1814 C1386 1.426 . S
C1823 C101 1.543 . S
C1825 C1402 1.494 . S
C1836 C1422 1.465 . S
C1834 C141 1.561 . S
C1845 C162 1.497 . S
C1847 C1431 1.447 . S
C1858 C1456 1.473 . S
C1856 C215 1.545 . S
C1867 C261 1.560 . S
C1869 C1476 1.466 . S
C1880 C1492 1.479 . S
C1878 C282 1.557 . S
C1889 C2 1.517 . S
C1891 C1414 1.481 . S
C1900 C181 1.483 . S
C1902 C1449 1.427 . S
C1913 C1468 1.495 . S
C1911 C202 1.534 . S
C1922 C242 1.562 . S
C1924 C1485 1.467 . S
C1935 C1438 1.466 . S
C1933 C295 1.543 . S
C1946 C1378 1.470 . S
C1944 C95 1.548 . S
C1955 C122 1.551 . S
C1957 C1395 1.462 . S
C1968 C1368 1.438 . S
C1966 C61 1.548 . S
C1979 C1512 1.481 . S
C1977 C341 1.540 . S
C1988 C362 1.525 . S
C1990 C1522 1.430 . S
C1999 C402 1.529 . S
C2001 C1546 1.475 . S
C2012 C1558 1.465 . S
C2010 C455 1.544 . S
C2021 C495 1.507 . S
C2023 C1566 1.416 . S
C2032 C541 1.527 . S
C2034 C1504 1.492 . S
C2043 C575 1.546 . S
C2045 C1530 1.445 . S
C2054 C621 1.587 . S
C2056 C1539 1.496 . S
C2067 C1432 1.474 . S
C2065 C335 1.541 . S
C2076 C375 1.522 . S
C2078 C1582 1.431 . S
C2089 C1474 1.503 . S
C2087 C421 1.541 . S
C2098 C461 1.560 . S
C2100 C1602 1.456 . S
C2109 C482 1.496 . S
C2111 C1359 1.443 . S
C2122 C1620 1.461 . S
C2120 C535 1.545 . S
C2131 C581 1.560 . S
C2133 C1404 1.465 . S
C2144 C1636 1.473 . S
C2142 C602 1.558 . S
C2153 C322 1.522 . S
C2155 C1594 1.471 . S
C2166 C1612 1.433 . S
C2164 C501 1.480 . S
C2175 C522 1.535 . S
C2177 C1396 1.492 . S
C2188 C1629 1.468 . S
C2186 C562 1.558 . S
C2197 C615 1.542 . S
C2199 C1366 1.467 . S
C2208 C415 1.546 . S
C2210 C1575 1.469 . S
C2219 C442 1.551 . S
C2221 C1467 1.456 . S
C2230 C381 1.546 . S
C2232 C1440 1.443 . S
C2241 C661 1.542 . S
C2243 C1548 1.484 . S
C2254 C1557 1.425 . S
C2252 C682 1.528 . S
C2263 C722 1.519 . S
C2265 C1510 1.479 . S
C2274 C775 1.549 . S
C2276 C1521 1.456 . S
C2285 C815 1.505 . S
C2287 C1528 1.422 . S
C2296 C861 1.531 . S
C2298 C1540 1.496 . S
C2309 C1564 1.460 . S
C2307 C895 1.540 . S
C2318 C941 1.585 . S
C2320 C1503 1.491 . S
C2331 C1654 1.465 . S
C2329 C655 1.548 . S
C2340 C695 1.519 . S
C2342 C1458 1.432 . S
C2353 C1672 1.492 . S
C2351 C741 1.544 . S
C2362 C781 1.561 . S
C2364 C1494 1.462 . S
C2373 C802 1.494 . S
C2375 C1692 1.447 . S
C2384 C855 1.544 . S
C2386 C1384 1.471 . S
C2397 C1708 1.472 . S
C2395 C901 1.559 . S
C2406 C922 1.557 . S
C2408 C1420 1.479 . S
C2419 C1486 1.480 . S
C2417 C642 1.518 . S
C2430 C1377 1.431 . S
C2428 C821 1.477 . S
C2439 C842 1.536 . S
C2441 C1701 1.488 . S
C2450 C882 1.559 . S
C2452 C1413 1.471 . S
C2463 C1684 1.467 . S
C2461 C935 1.541 . S
C2474 C1450 1.472 . S
C2472 C735 1.548 . S
C2485 C1665 1.455 . S
C2483 C762 1.553 . S
C2496 C1647 1.442 . S
C2494 C701 1.546 . S
C2505 C981 1.542 . S
C2507 C1332 1.485 . S
C2516 C1002 1.523 . S
C2518 C1342 1.437 . S
C2529 C1296 1.469 . S
C2527 C1042 1.528 . S
C2540 C1305 1.458 . S
C2538 C1095 1.543 . S
C2551 C1312 1.417 . S
C2549 C1135 1.507 . S
C2562 C1324 1.484 . S
C2560 C1181 1.535 . S
C2573 C1350 1.444 . S
C2571 C1215 1.546 . S
C2582 C1261 1.583 . S
C2584 C1288 1.498 . S
C2593 C975 1.546 . S
C2595 C1690 1.472 . S
C2606 C1618 1.437 . S
C2604 C1015 1.518 . S
C2617 C1710 1.496 . S
C2615 C1061 1.539 . S
C2628 C1638 1.458 . S
C2626 C1101 1.560 . S
C2637 C1122 1.497 . S
C2639 C1656 1.446 . S
C2650 C1584 1.464 . S
C2648 C1175 1.541 . S
C2661 C1674 1.468 . S
C2659 C1221 1.561 . S
C2670 C1242 1.556 . S
C2672 C1600 1.469 . S
C2683 C1630 1.474 . S
C2681 C962 1.524 . S
C2694 C1576 1.440 . S
C2692 C1141 1.474 . S
C2705 C1666 1.494 . S
C2703 C1162 1.531 . S
C2714 C1202 1.561 . S
C2716 C1593 1.467 . S
C2725 C1255 1.542 . S
C2727 C1648 1.458 . S
C2736 C1055 1.549 . S
C2738 C1611 1.463 . S
C2747 C1082 1.550 . S
C2749 C1702 1.461 . S
C2760 C1683 1.433 . S
C2758 C1021 1.545 . S
