# Generated by pormake.
# Topology pyr, (3,6)-cn, num edge types: 1
# Building blocks:
#     Node 0, Type 0, BuildingBlock: PAMTOO_clean_linker_0, # of connection points: 3
#     Node 1, Type 0, BuildingBlock: PAMTOO_clean_linker_0, # of connection points: 3
#     Node 2, Type 0, BuildingBlock: PAMTOO_clean_linker_0, # of connection points: 3
#     Node 3, Type 0, BuildingBlock: PAMTOO_clean_linker_0, # of connection points: 3
#     Node 4, Type 0, BuildingBlock: PAMTOO_clean_linker_0, # of connection points: 3
#     Node 5, Type 0, BuildingBlock: PAMTOO_clean_linker_0, # of connection points: 3
#     Node 6, Type 0, BuildingBlock: PAMTOO_clean_linker_0, # of connection points: 3
#     Node 7, Type 0, BuildingBlock: PAMTOO_clean_linker_0, # of connection points: 3
#     Node 8, Type 1, BuildingBlock: VOLQOD_clean_sbu_1, # of connection points: 6
#     Node 9, Type 1, BuildingBlock: VOLQOD_clean_sbu_1, # of connection points: 6
#     Node 10, Type 1, BuildingBlock: VOLQOD_clean_sbu_1, # of connection points: 6
#     Node 11, Type 1, BuildingBlock: VOLQOD_clean_sbu_1, # of connection points: 6
#     Edge 12, Type (0, 1), BuildingBlock: EZIPEK_clean_linker_0, # of connection points: 2
#     Edge 13, Type (0, 1), BuildingBlock: EZIPEK_clean_linker_0, # of connection points: 2
#     Edge 14, Type (0, 1), BuildingBlock: EZIPEK_clean_linker_0, # of connection points: 2
#     Edge 15, Type (0, 1), BuildingBlock: EZIPEK_clean_linker_0, # of connection points: 2
#     Edge 16, Type (0, 1), BuildingBlock: EZIPEK_clean_linker_0, # of connection points: 2
#     Edge 17, Type (0, 1), BuildingBlock: EZIPEK_clean_linker_0, # of connection points: 2
#     Edge 18, Type (0, 1), BuildingBlock: EZIPEK_clean_linker_0, # of connection points: 2
#     Edge 19, Type (0, 1), BuildingBlock: EZIPEK_clean_linker_0, # of connection points: 2
#     Edge 20, Type (0, 1), BuildingBlock: EZIPEK_clean_linker_0, # of connection points: 2
#     Edge 21, Type (0, 1), BuildingBlock: EZIPEK_clean_linker_0, # of connection points: 2
#     Edge 22, Type (0, 1), BuildingBlock: EZIPEK_clean_linker_0, # of connection points: 2
#     Edge 23, Type (0, 1), BuildingBlock: EZIPEK_clean_linker_0, # of connection points: 2
#     Edge 24, Type (0, 1), BuildingBlock: EZIPEK_clean_linker_0, # of connection points: 2
#     Edge 25, Type (0, 1), BuildingBlock: EZIPEK_clean_linker_0, # of connection points: 2
#     Edge 26, Type (0, 1), BuildingBlock: EZIPEK_clean_linker_0, # of connection points: 2
#     Edge 27, Type (0, 1), BuildingBlock: EZIPEK_clean_linker_0, # of connection points: 2
#     Edge 28, Type (0, 1), BuildingBlock: EZIPEK_clean_linker_0, # of connection points: 2
#     Edge 29, Type (0, 1), BuildingBlock: EZIPEK_clean_linker_0, # of connection points: 2
#     Edge 30, Type (0, 1), BuildingBlock: EZIPEK_clean_linker_0, # of connection points: 2
#     Edge 31, Type (0, 1), BuildingBlock: EZIPEK_clean_linker_0, # of connection points: 2
#     Edge 32, Type (0, 1), BuildingBlock: EZIPEK_clean_linker_0, # of connection points: 2
#     Edge 33, Type (0, 1), BuildingBlock: EZIPEK_clean_linker_0, # of connection points: 2
#     Edge 34, Type (0, 1), BuildingBlock: EZIPEK_clean_linker_0, # of connection points: 2
#     Edge 35, Type (0, 1), BuildingBlock: EZIPEK_clean_linker_0, # of connection points: 2
# Relax obj value: 0.126
# Max RMSD: 0.195
# Mean RMSD: 0.159
data_MOF--net-pry--node1-VOLQOD_clean_sbu_1--node2-PAMTOO_clean_linker_0--edge1-EZIPEK_clean_linker_0
_symmetry_space_group_name_H-M    P1
_symmetry_Int_Tables_number       1
_symmetry_cell_setting            triclinic
loop_
_symmetry_equiv_pos_as_xyz
'x, y, z'
_cell_length_a     26.831647
_cell_length_b     27.790314
_cell_length_c     27.549049
_cell_angle_alpha  90.067716
_cell_angle_beta   91.3204
_cell_angle_gamma 95.712471
loop_
_atom_site_label
_atom_site_type_symbol
_atom_site_fract_x
_atom_site_fract_y
_atom_site_fract_z
_atom_type_partial_charge
H0 H 0.07463 0.19748 0.20792 0.0
H1 H 0.18972 0.10029 0.20593 0.0
H2 H 0.17473 0.19832 0.08762 0.0
H3 H 0.19425 0.08372 0.06884 0.0
C4 C 0.22197 0.08497 0.09932 0.0
O5 O 0.22515 0.12937 0.12225 0.0
H6 H 0.20644 0.056 0.12414 0.0
C7 C 0.10526 0.18286 0.18977 0.0
C8 C 0.12208 0.20265 0.14537 0.0
C9 C 0.12954 0.14559 0.21168 0.0
C10 C 0.17032 0.12833 0.18879 0.0
C11 C 0.18556 0.14624 0.14356 0.0
C12 C 0.16144 0.18328 0.12179 0.0
H13 H 0.36003 0.9749 0.69573 0.0
H14 H 0.34755 0.86877 0.58059 0.0
H15 H 0.45679 0.86062 0.6958 0.0
H16 H 0.49524 0.83494 0.61049 0.0
C17 C 0.46211 0.81871 0.58908 0.0
O18 O 0.41912 0.82002 0.6154 0.0
H19 H 0.4609 0.8423 0.55675 0.0
C20 C 0.3732 0.94377 0.67814 0.0
C21 C 0.41188 0.92048 0.70011 0.0
C22 C 0.34922 0.92499 0.63525 0.0
C23 C 0.3661 0.88405 0.61326 0.0
C24 C 0.40532 0.86127 0.63472 0.0
C25 C 0.42768 0.87923 0.67834 0.0
H26 H 0.70047 0.33268 0.98601 0.0
H27 H 0.55403 0.34319 0.92318 0.0
H28 H 0.67018 0.45971 0.90561 0.0
H29 H 0.51685 0.39783 0.842 0.0
C30 C 0.55802 0.4062 0.83886 0.0
O31 O 0.57698 0.42705 0.88201 0.0
H32 H 0.57138 0.37004 0.83255 0.0
C33 C 0.67424 0.35349 0.96671 0.0
C34 C 0.69024 0.39957 0.9493 0.0
C35 C 0.62547 0.33293 0.95671 0.0
C36 C 0.59168 0.35946 0.93145 0.0
C37 C 0.608 0.40473 0.91198 0.0
C38 C 0.65736 0.42495 0.92104 0.0
H39 H 0.87199 0.69912 0.4792 0.0
H40 H 0.88533 0.55764 0.42142 0.0
H41 H 0.99826 0.67381 0.39177 0.0
H42 H 0.90486 0.5907 0.32104 0.0
C43 C 0.93594 0.56786 0.32901 0.0
O44 O 0.96361 0.5839 0.36997 0.0
H45 H 0.91617 0.53165 0.33643 0.0
C46 C 0.89304 0.67478 0.45898 0.0
C47 C 0.93887 0.69205 0.43841 0.0
C48 C 0.87413 0.62629 0.45338 0.0
C49 C 0.90079 0.59483 0.42705 0.0
C50 C 0.94417 0.61244 0.40296 0.0
C51 C 0.96397 0.66069 0.40955 0.0
H52 H 0.86198 0.9808 0.83503 0.0
H53 H 0.86345 0.87414 0.94842 0.0
H54 H 0.97056 0.87675 0.83508 0.0
H55 H 0.91322 0.78236 0.86156 0.0
C56 C 0.91721 0.78677 0.90163 0.0
O57 O 0.9384 0.83258 0.91375 0.0
H58 H 0.87806 0.78141 0.9145 0.0
C59 C 0.87881 0.95117 0.85237 0.0
C60 C 0.919 0.93157 0.83047 0.0
C61 C 0.85819 0.93041 0.89491 0.0
C62 C 0.87951 0.89114 0.9162 0.0
C63 C 0.9202 0.87222 0.89485 0.0
C64 C 0.94008 0.89257 0.85225 0.0
H65 H 0.72129 0.0381 0.33954 0.0
H66 H 0.5982 0.12761 0.33718 0.0
H67 H 0.71367 0.14879 0.44554 0.0
H68 H 0.61565 0.15621 0.47899 0.0
C69 C 0.59716 0.1739 0.44842 0.0
O70 O 0.63095 0.17867 0.41124 0.0
H71 H 0.56322 0.14998 0.43693 0.0
C72 C 0.69917 0.06403 0.35537 0.0
C73 C 0.72089 0.09044 0.39538 0.0
C74 C 0.65145 0.07281 0.33591 0.0
C75 C 0.63077 0.11419 0.35402 0.0
C76 C 0.65252 0.14056 0.39372 0.0
C77 C 0.69703 0.12818 0.4148 0.0
H78 H 0.37203 0.67529 0.04444 0.0
H79 H 0.38037 0.54902 0.1332 0.0
H80 H 0.50299 0.66025 0.13434 0.0
H81 H 0.53311 0.56338 0.15937 0.0
C82 C 0.49845 0.54917 0.17793 0.0
O83 O 0.4638 0.58238 0.17694 0.0
H84 H 0.48524 0.51662 0.15618 0.0
C85 C 0.39329 0.65384 0.06864 0.0
C86 C 0.441 0.67242 0.08591 0.0
C87 C 0.37186 0.60871 0.08457 0.0
C88 C 0.39802 0.58239 0.11831 0.0
C89 C 0.4449 0.60137 0.13648 0.0
C90 C 0.46719 0.6453 0.119 0.0
H91 H 0.07189 0.32857 0.69505 0.0
H92 H 0.14327 0.47362 0.68167 0.0
H93 H 0.15461 0.37091 0.56718 0.0
H94 H 0.23583 0.47052 0.64719 0.0
C95 C 0.22677 0.47772 0.60842 0.0
O96 O 0.17806 0.46079 0.59573 0.0
H97 H 0.23036 0.51785 0.60702 0.0
C98 C 0.09383 0.35597 0.67444 0.0
C99 C 0.11172 0.34435 0.62885 0.0
C100 C 0.10594 0.40236 0.69431 0.0
C101 C 0.13381 0.43758 0.66697 0.0
C102 C 0.15102 0.42638 0.62123 0.0
C103 C 0.14048 0.37965 0.60231 0.0
O104 O 0.02551 0.12616 0.56977 0.0
Zn105 Zn 0.99321 0.05886 0.55652 0.0
O106 O 0.03783 0.02125 0.51959 0.0
Zn107 Zn 0.00378 0.9997 0.45855 0.0
Zn108 Zn 0.10101 0.06092 0.50704 0.0
Zn109 Zn 0.05321 0.96451 0.55623 0.0
O110 O 0.99388 0.9266 0.45271 0.0
O111 O 0.031 0.9032 0.52021 0.0
O112 O 0.92764 0.06503 0.52028 0.0
O113 O 0.93549 0.02218 0.45318 0.0
O114 O 0.04019 0.03076 0.40186 0.0
O115 O 0.10773 0.07235 0.43506 0.0
O116 O 0.1619 0.03124 0.53488 0.0
O117 O 0.97768 0.02772 0.62111 0.0
O118 O 0.12674 0.96466 0.56966 0.0
O119 O 0.01866 0.96182 0.62047 0.0
C120 C 0.06837 0.14761 0.56055 0.0
C121 C 0.00699 0.89324 0.48053 0.0
C122 C 0.08019 0.05919 0.39813 0.0
C123 C 0.91052 0.04793 0.47967 0.0
C124 C 0.16537 0.99269 0.55922 0.0
C125 C 0.99047 0.98944 0.64115 0.0
O126 O 0.10094 0.12687 0.53762 0.0
O127 O 0.5394 0.10849 0.9709 0.0
Zn128 Zn 0.5045 0.04199 0.97623 0.0
O129 O 0.54475 0.0002 0.01444 0.0
Zn130 Zn 0.56079 0.94613 0.97446 0.0
Zn131 Zn 0.6071 0.03698 0.03748 0.0
Zn132 Zn 0.50571 0.97489 0.06916 0.0
O133 O 0.53995 0.88201 0.00531 0.0
O134 O 0.49329 0.9027 0.06597 0.0
O135 O 0.48751 0.01454 0.90952 0.0
O136 O 0.52477 0.94644 0.90947 0.0
O137 O 0.6343 0.94988 0.96259 0.0
O138 O 0.66767 0.01342 0.00537 0.0
O139 O 0.61425 0.03426 0.11096 0.0
O140 O 0.43964 0.05073 0.00815 0.0
O141 O 0.54248 0.99325 0.13217 0.0
O142 O 0.43836 0.00068 0.07085 0.0
C143 C 0.57851 0.12942 0.99161 0.0
C144 C 0.51068 0.87064 0.04004 0.0
C145 C 0.67208 0.97828 0.9765 0.0
C146 C 0.49774 0.9759 0.88878 0.0
C147 C 0.58468 0.01629 0.14329 0.0
C148 C 0.4179 0.03133 0.04479 0.0
O149 O 0.60698 0.10694 0.01916 0.0
O150 O 0.58312 0.52203 0.62892 0.0
Zn151 Zn 0.5809 0.54735 0.56038 0.0
O152 O 0.54366 0.50028 0.51656 0.0
Zn153 Zn 0.58874 0.47785 0.46851 0.0
Zn154 Zn 0.5148 0.44485 0.55339 0.0
Zn155 Zn 0.48972 0.53079 0.48371 0.0
O156 O 0.56539 0.49209 0.40087 0.0
O157 O 0.49932 0.53312 0.41154 0.0
O158 O 0.65155 0.56324 0.53853 0.0
O159 O 0.65755 0.51297 0.47636 0.0
O160 O 0.59169 0.40575 0.47125 0.0
O161 O 0.5368 0.38263 0.52801 0.0
O162 O 0.43946 0.43806 0.54847 0.0
O163 O 0.54878 0.60989 0.56191 0.0
O164 O 0.42293 0.49401 0.49539 0.0
O165 O 0.48491 0.59826 0.50907 0.0
C166 C 0.56282 0.48357 0.64821 0.0
C167 C 0.53027 0.51518 0.38408 0.0
C168 C 0.56765 0.37281 0.49593 0.0
C169 C 0.67655 0.54615 0.50504 0.0
C170 C 0.40814 0.45823 0.52196 0.0
C171 C 0.51095 0.62473 0.53994 0.0
O172 O 0.53579 0.45153 0.62377 0.0
O173 O 0.98747 0.49346 0.12346 0.0
Zn174 Zn 0.9899 0.45857 0.05954 0.0
O175 O 0.03297 0.49725 0.01451 0.0
Zn176 Zn 0.99419 0.50993 0.95604 0.0
Zn177 Zn 0.05783 0.55897 0.04475 0.0
Zn178 Zn 0.08989 0.46245 0.99684 0.0
O179 O 0.02135 0.4803 0.89726 0.0
O180 O 0.09065 0.45091 0.92449 0.0
O181 O 0.9188 0.44559 0.03271 0.0
O182 O 0.92345 0.48172 0.96073 0.0
O183 O 0.99079 0.58115 0.94561 0.0
O184 O 0.03092 0.61507 0.01051 0.0
O185 O 0.13274 0.56874 0.04574 0.0
O186 O 0.0176 0.39499 0.07426 0.0
O187 O 0.15543 0.49979 0.01643 0.0
O188 O 0.08741 0.39839 0.03162 0.0
C189 C 0.00853 0.53347 0.13988 0.0
C190 C 0.06031 0.459 0.88987 0.0
C191 C 0.00558 0.61816 0.97124 0.0
C192 C 0.89865 0.45759 0.99276 0.0
C193 C 0.16634 0.54173 0.0346 0.0
C194 C 0.05668 0.37664 0.06075 0.0
O195 O 0.03725 0.56158 0.11408 0.0
C196 C 0.09712 0.07436 0.26193 0.0
C197 C 0.11357 0.12444 0.25913 0.0
C198 C 0.10095 0.13253 0.34631 0.0
C199 C 0.0921 0.08138 0.35027 0.0
N200 N 0.09052 0.00283 0.3123 0.0
N201 N 0.14088 0.19934 0.30086 0.0
C202 C 0.09246 0.05199 0.30815 0.0
C203 C 0.11821 0.15311 0.30192 0.0
N204 N 0.0848 0.04839 0.22047 0.0
N205 N 0.09058 0.16177 0.38396 0.0
H206 H 0.15536 0.21554 0.26941 0.0
H207 H 0.1497 0.21983 0.33216 0.0
H208 H 0.07512 0.14863 0.4163 0.0
H209 H 0.09193 0.19926 0.38092 0.0
H210 H 0.0681 0.0129 0.22065 0.0
H211 H 0.08647 0.06386 0.18598 0.0
H212 H 0.09564 0.98012 0.2831 0.0
H213 H 0.08899 0.98508 0.34564 0.0
C214 C 0.41278 0.91311 0.79069 0.0
C215 C 0.43285 0.93634 0.74852 0.0
C216 C 0.49429 0.98716 0.7985 0.0
C217 C 0.47485 0.96321 0.84053 0.0
N218 N 0.41851 0.90196 0.87804 0.0
N219 N 0.48815 0.99819 0.71096 0.0
C220 C 0.43476 0.92585 0.837 0.0
C221 C 0.47238 0.97422 0.75207 0.0
N222 N 0.37144 0.88015 0.78634 0.0
N223 N 0.53515 0.02066 0.80307 0.0
H224 H 0.47391 0.98855 0.67636 0.0
H225 H 0.51349 0.02901 0.7107 0.0
H226 H 0.55179 0.03109 0.83654 0.0
H227 H 0.55449 0.03667 0.77406 0.0
H228 H 0.35133 0.86538 0.81547 0.0
H229 H 0.35489 0.86922 0.75299 0.0
H230 H 0.39386 0.87063 0.87802 0.0
H231 H 0.43142 0.9122 0.91291 0.0
C232 C 0.60985 0.43099 0.7653 0.0
C233 C 0.56936 0.43888 0.79558 0.0
C234 C 0.53524 0.49055 0.73366 0.0
C235 C 0.57042 0.47543 0.70065 0.0
N236 N 0.64333 0.43476 0.68404 0.0
N237 N 0.50541 0.48961 0.81645 0.0
C238 C 0.60908 0.44751 0.71649 0.0
C239 C 0.53589 0.4733 0.78228 0.0
N240 N 0.64916 0.40848 0.78366 0.0
N241 N 0.49974 0.51923 0.71758 0.0
H242 H 0.5065 0.4785 0.85257 0.0
H243 H 0.48226 0.51699 0.81055 0.0
H244 H 0.4997 0.53387 0.68271 0.0
H245 H 0.46944 0.52749 0.73778 0.0
H246 H 0.68182 0.40478 0.76497 0.0
H247 H 0.65126 0.39748 0.81973 0.0
H248 H 0.66879 0.40963 0.69121 0.0
H249 H 0.64499 0.44809 0.64864 0.0
C250 C 0.99289 0.52326 0.276 0.0
C251 C 0.96852 0.56531 0.28507 0.0
C252 C 0.97837 0.59079 0.20077 0.0
C253 C -0.00033 0.54721 0.19061 0.0
N254 N 0.04151 0.4799 0.22037 0.0
N255 N 0.95876 0.64758 0.26261 0.0
C256 C 0.01149 0.51584 0.22891 0.0
C257 C 0.96835 0.60205 0.24956 0.0
N258 N 0.99702 0.49002 0.312 0.0
N259 N 0.96456 0.61987 0.16384 0.0
H260 H 0.95337 0.65708 0.29862 0.0
H261 H 0.96209 0.67689 0.23895 0.0
H262 H 0.96986 0.61254 0.12732 0.0
H263 H 0.94385 0.64914 0.16918 0.0
H264 H 0.00821 0.45571 0.30623 0.0
H265 H 0.98796 0.49647 0.34789 0.0
H266 H 0.05517 0.45833 0.24747 0.0
H267 H 0.05668 0.47448 0.1865 0.0
C268 C 0.31061 0.06571 0.1213 0.0
C269 C 0.27408 0.07429 0.08478 0.0
C270 C 0.33044 0.0504 0.02254 0.0
C271 C 0.36851 0.04625 0.05848 0.0
N272 N 0.39888 0.06524 0.14027 0.0
N273 N 0.25897 0.0922 0.99983 0.0
C274 C 0.35982 0.05818 0.10744 0.0
C275 C 0.28679 0.07202 0.03508 0.0
N276 N 0.29874 0.06451 0.16928 0.0
N277 N 0.33473 0.03217 0.97691 0.0
H278 H 0.22983 0.11298 0.00732 0.0
H279 H 0.26949 0.09413 0.96363 0.0
H280 H 0.36471 0.01352 0.96675 0.0
H281 H 0.30566 0.03074 0.95101 0.0
H282 H 0.3224 0.05257 0.19627 0.0
H283 H 0.26417 0.07194 0.18208 0.0
H284 H 0.39506 0.07863 0.1752 0.0
H285 H 0.43606 0.06347 0.13097 0.0
C286 C 0.30248 0.96548 0.56857 0.0
C287 C 0.30344 0.94543 0.61594 0.0
C288 C 0.21884 0.96806 0.62854 0.0
C289 C 0.21475 0.98071 0.57882 0.0
N290 N 0.25097 0.9844 0.49918 0.0
N291 N 0.25757 0.91815 0.68704 0.0
C292 C 0.25622 0.97788 0.54811 0.0
C293 C 0.26028 0.94417 0.64494 0.0
N294 N 0.34584 0.97366 0.54351 0.0
N295 N 0.18387 0.98006 0.66055 0.0
H296 H 0.28594 0.89789 0.69939 0.0
H297 H 0.22489 0.9124 0.70685 0.0
H298 H 0.15413 0.99971 0.65047 0.0
H299 H 0.18773 0.97545 0.69795 0.0
H300 H 0.34814 0.99252 0.51085 0.0
H301 H 0.38048 0.96576 0.55767 0.0
H302 H 0.2785 0.97765 0.47472 0.0
H303 H 0.21752 0.9922 0.48242 0.0
C304 C 0.75654 0.44734 0.9999 0.0
C305 C 0.74311 0.41871 0.95809 0.0
C306 C 0.83146 0.41173 0.94229 0.0
C307 C 0.84508 0.4429 0.98229 0.0
N308 N 0.82161 0.49736 0.04414 0.0
N309 N 0.76654 0.38029 0.88473 0.0
C310 C 0.8079 0.46264 0.00984 0.0
C311 C 0.78028 0.40305 0.92773 0.0
N312 N 0.72026 0.45881 0.03073 0.0
N313 N 0.8673 0.38874 0.9196 0.0
H314 H 0.72925 0.37279 0.87324 0.0
H315 H 0.79196 0.37255 0.85854 0.0
H316 H 0.90516 0.3935 0.9298 0.0
H317 H 0.85916 0.3617 0.89363 0.0
H318 H 0.728 0.47453 0.06474 0.0
H319 H 0.6821 0.44982 0.0236 0.0
H320 H 0.79616 0.51695 0.06164 0.0
H321 H 0.85886 0.50947 0.05251 0.0
C322 C 0.81672 0.58411 0.51391 0.0
C323 C 0.82318 0.60945 0.46949 0.0
C324 C 0.73269 0.60002 0.45356 0.0
C325 C 0.72683 0.56976 0.49484 0.0
N326 N 0.76222 0.52991 0.56316 0.0
N327 N 0.78891 0.63738 0.39397 0.0
C328 C 0.76853 0.56121 0.52503 0.0
C329 C 0.78157 0.61648 0.43853 0.0
N330 N 0.85655 0.58258 0.54552 0.0
N331 N 0.69139 0.61422 0.42964 0.0
H332 H 0.82404 0.6511 0.38189 0.0
H333 H 0.76071 0.63799 0.36744 0.0
H334 H 0.65486 0.60335 0.44003 0.0
H335 H 0.69319 0.64024 0.4024 0.0
H336 H 0.85354 0.56876 0.58054 0.0
H337 H 0.89238 0.59861 0.538 0.0
H338 H 0.79174 0.51799 0.58349 0.0
H339 H 0.72724 0.51329 0.57269 0.0
C340 C 0.0682 0.24308 0.08498 0.0
C341 C 0.10198 0.24673 0.12553 0.0
C342 C 0.09964 0.33472 0.12731 0.0
C343 C 0.07002 0.33153 0.0839 0.0
N344 N 0.02919 0.28418 0.01848 0.0
N345 N 0.15584 0.29607 0.18132 0.0
C346 C 0.055 0.28606 0.06193 0.0
C347 C 0.1191 0.29256 0.14586 0.0
N348 N 0.04806 0.1985 0.06926 0.0
N349 N 0.10879 0.37807 0.15106 0.0
H350 H 0.17137 0.26616 0.19583 0.0
H351 H 0.174 0.32881 0.19364 0.0
H352 H 0.09657 0.41013 0.13781 0.0
H353 H 0.12503 0.3817 0.18573 0.0
H354 H 0.01953 0.19321 0.043 0.0
H355 H 0.05725 0.16643 0.08525 0.0
H356 H 0.02182 0.25283 0.99777 0.0
H357 H 0.01771 0.31489 0.00149 0.0
C358 C 0.5928 0.26544 0.01106 0.0
C359 C 0.61252 0.28091 0.96581 0.0
C360 C 0.60819 0.19716 0.93691 0.0
C361 C 0.59113 0.18146 0.98315 0.0
N362 N 0.57063 0.19871 0.06581 0.0
N363 N 0.64466 0.26298 0.88737 0.0
C364 C 0.58455 0.21508 0.02079 0.0
C365 C 0.62166 0.24717 0.9291 0.0
N366 N 0.58083 0.29905 0.04404 0.0
N367 N 0.61106 0.1642 0.90035 0.0
H368 H 0.65353 0.29945 0.87934 0.0
H369 H 0.65799 0.24014 0.8618 0.0
H370 H 0.60484 0.12692 0.90544 0.0
H371 H 0.61694 0.17358 0.86423 0.0
H372 H 0.56156 0.29058 0.07572 0.0
H373 H 0.5874 0.33622 0.03824 0.0
H374 H 0.5705 0.22079 0.09631 0.0
H375 H 0.56159 0.16222 0.0736 0.0
C376 C 0.97026 0.77621 0.40951 0.0
C377 C 0.9599 0.74299 0.44802 0.0
C378 C 0.97354 0.80954 0.5063 0.0
C379 C 0.99095 0.84157 0.46873 0.0
N380 N 0.01742 0.85075 0.38554 0.0
N381 N 0.96678 0.72694 0.53402 0.0
C382 C 0.99276 0.82363 0.4205 0.0
C383 C 0.96648 0.75929 0.49674 0.0
N384 N 0.95667 0.76361 0.36277 0.0
N385 N 0.96052 0.82684 0.55022 0.0
H386 H 0.964 0.68962 0.52844 0.0
H387 H 0.97553 0.73748 0.5698 0.0
H388 H 0.9599 0.86355 0.55765 0.0
H389 H 0.94391 0.80451 0.57697 0.0
H390 H 0.95943 0.78825 0.33423 0.0
H391 H 0.93776 0.73021 0.35335 0.0
H392 H 0.02324 0.83727 0.35101 0.0
H393 H 0.03698 0.88443 0.39256 0.0
C394 C 0.48418 0.73471 0.61397 0.0
C395 C 0.46952 0.76644 0.57686 0.0
C396 C 0.48363 0.70578 0.51541 0.0
C397 C 0.49548 0.67307 0.55248 0.0
N398 N 0.49115 0.65172 0.6374 0.0
N399 N 0.43644 0.77273 0.49482 0.0
C400 C 0.49125 0.68615 0.60195 0.0
C401 C 0.46334 0.74917 0.52831 0.0
N402 N 0.49168 0.75067 0.66076 0.0
N403 N 0.49359 0.69673 0.46803 0.0
H404 H 0.41668 0.80186 0.50363 0.0
H405 H 0.428 0.75914 0.45999 0.0
H406 H 0.5107 0.6666 0.45701 0.0
H407 H 0.48987 0.72192 0.4405 0.0
H408 H 0.50863 0.73095 0.68752 0.0
H409 H 0.4839 0.78467 0.67249 0.0
H410 H 0.48312 0.65838 0.67347 0.0
H411 H 0.49324 0.61517 0.63006 0.0
C412 C 0.91441 0.92391 0.73986 0.0
C413 C 0.93577 0.9483 0.78188 0.0
C414 C 0.9941 0.99888 0.7316 0.0
C415 C 0.97113 0.97604 0.68953 0.0
N416 N 0.90527 0.92237 0.65198 0.0
N417 N 0.99073 0.01272 0.81851 0.0
C418 C 0.93008 0.94006 0.69319 0.0
C419 C 0.97407 0.98702 0.77795 0.0
N420 N 0.87996 0.88456 0.74471 0.0
N421 N 0.03611 0.03063 0.72724 0.0
H422 H 0.97777 0.0041 0.85316 0.0
H423 H 0.01471 0.04452 0.81767 0.0
H424 H 0.0513 0.0407 0.69379 0.0
H425 H 0.058 0.04457 0.75663 0.0
H426 H 0.86747 0.86161 0.71613 0.0
H427 H 0.8659 0.87277 0.77809 0.0
H428 H 0.87172 0.90008 0.65206 0.0
H429 H 0.9162 0.93285 0.61714 0.0
C430 C 0.57784 0.05295 0.27584 0.0
C431 C 0.62596 0.04371 0.29348 0.0
C432 C 0.63967 0.00305 0.21661 0.0
C433 C 0.59823 0.02408 0.19543 0.0
N434 N 0.52755 0.07065 0.20573 0.0
N435 N 0.67392 0.97516 0.29202 0.0
C436 C 0.56668 0.04884 0.22541 0.0
C437 C 0.64989 0.00886 0.26731 0.0
N438 N 0.54098 0.05942 0.30777 0.0
N439 N 0.66893 0.97705 0.18882 0.0
H440 H 0.67178 0.97213 0.32973 0.0
H441 H 0.68845 0.94615 0.27523 0.0
H442 H 0.66107 0.96939 0.15221 0.0
H443 H 0.70253 0.9655 0.20184 0.0
H444 H 0.50382 0.06188 0.29696 0.0
H445 H 0.54681 0.05592 0.34517 0.0
H446 H 0.50657 0.09276 0.22597 0.0
H447 H 0.51919 0.0705 0.16859 0.0
C448 C 0.54621 0.56693 0.25785 0.0
C449 C 0.50833 0.53788 0.23102 0.0
C450 C 0.48332 0.4948 0.30614 0.0
C451 C 0.52446 0.5206 0.33103 0.0
N452 N 0.60021 0.57503 0.32953 0.0
N453 N 0.43837 0.47537 0.23031 0.0
C454 C 0.55773 0.55437 0.3064 0.0
C455 C 0.47622 0.50204 0.25535 0.0
N456 N 0.56864 0.60879 0.23857 0.0
N457 N 0.45024 0.46433 0.33155 0.0
H458 H 0.42597 0.48371 0.19556 0.0
H459 H 0.41924 0.44391 0.24361 0.0
H460 H 0.45601 0.45569 0.36796 0.0
H461 H 0.41587 0.44911 0.31764 0.0
H462 H 0.59247 0.63365 0.25859 0.0
H463 H 0.55925 0.62221 0.20467 0.0
H464 H 0.62882 0.59539 0.31158 0.0
H465 H 0.60896 0.56856 0.36584 0.0
C466 C 0.06449 0.45527 0.75188 0.0
C467 C 0.09102 0.41435 0.74429 0.0
C468 C 0.08853 0.39776 0.83143 0.0
C469 C 0.07042 0.44335 0.83972 0.0
N470 N 0.05369 0.52106 0.80641 0.0
N471 N 0.13897 0.35322 0.77965 0.0
C472 C 0.06169 0.47375 0.79956 0.0
C473 C 0.1061 0.38729 0.78482 0.0
N474 N 0.04122 0.47607 0.71384 0.0
N475 N 0.08714 0.36355 0.86708 0.0
H476 H 0.15532 0.34618 0.74677 0.0
H477 H 0.1542 0.33588 0.80921 0.0
H478 H 0.07115 0.36809 0.90069 0.0
H479 H 0.09624 0.32847 0.86095 0.0
H480 H 0.01797 0.50355 0.71848 0.0
H481 H 0.04063 0.46224 0.67858 0.0
H482 H 0.05134 0.54523 0.77772 0.0
H483 H 0.05575 0.53775 0.84039 0.0
C484 C 0.81158 0.96377 0.96387 0.0
C485 C 0.81174 0.94693 0.91517 0.0
C486 C 0.72418 0.96301 0.90498 0.0
C487 C 0.7215 0.97137 0.95566 0.0
N488 N 0.76198 0.97188 0.03511 0.0
N489 N 0.76392 0.92046 0.84271 0.0
C490 C 0.7651 0.97 0.98572 0.0
C491 C 0.7669 0.94387 0.88649 0.0
N492 N 0.85577 0.97468 0.98895 0.0
N493 N 0.68663 0.97467 0.87413 0.0
H494 H 0.79331 0.90333 0.82868 0.0
H495 H 0.73041 0.91346 0.82289 0.0
H496 H 0.65588 0.99141 0.8858 0.0
H497 H 0.68911 0.97304 0.83646 0.0
H498 H 0.85797 0.99133 0.02295 0.0
H499 H 0.89056 0.97168 0.97369 0.0
H500 H 0.79182 0.96605 0.05853 0.0
H501 H 0.72849 0.97441 0.0529 0.0
C502 C 0.77105 0.03912 0.44881 0.0
C503 C 0.76953 0.07916 0.41702 0.0
C504 C 0.85903 0.10236 0.43253 0.0
C505 C 0.86138 0.06011 0.46097 0.0
N506 N 0.82203 0.98524 0.49245 0.0
N507 N 0.8124 0.14508 0.37285 0.0
C508 C 0.81802 0.02759 0.46809 0.0
C509 C 0.81363 0.10986 0.40737 0.0
N510 N 0.72741 0.01312 0.46172 0.0
N511 N 0.90011 0.13556 0.43012 0.0
H512 H 0.77979 0.15157 0.35364 0.0
H513 H 0.84423 0.1653 0.3603 0.0
H514 H 0.93434 0.13075 0.44726 0.0
H515 H 0.89938 0.16952 0.41438 0.0
H516 H 0.72537 0.98694 0.48878 0.0
H517 H 0.69236 0.0201 0.44785 0.0
H518 H 0.79319 0.95736 0.494 0.0
H519 H 0.85545 0.9766 0.5088 0.0
C520 C 0.28179 0.59275 0.1063 0.0
C521 C 0.31927 0.5919 0.07095 0.0
C522 C 0.25562 0.56215 0.01 0.0
C523 C 0.21922 0.55823 0.04676 0.0
N524 N 0.20013 0.55935 0.13206 0.0
N525 N 0.3439 0.56943 0.99108 0.0
C526 C 0.23295 0.57065 0.09556 0.0
C527 C 0.3068 0.57477 0.02325 0.0
N528 N 0.29237 0.61605 0.14963 0.0
N529 N 0.2411 0.55576 0.96235 0.0
H530 H 0.38176 0.57865 0.99949 0.0
H531 H 0.33756 0.55229 0.95755 0.0
H532 H 0.20387 0.54715 0.95118 0.0
H533 H 0.26522 0.56312 0.93363 0.0
H534 H 0.26502 0.62212 0.17454 0.0
H535 H 0.32757 0.63353 0.15873 0.0
H536 H 0.21019 0.56305 0.16873 0.0
H537 H 0.16442 0.54155 0.12612 0.0
C538 C 0.29143 0.41939 0.58906 0.0
C539 C 0.26373 0.45823 0.57442 0.0
C540 C 0.31809 0.47301 0.50474 0.0
C541 C 0.35308 0.44549 0.52823 0.0
N542 N 0.35972 0.37119 0.57115 0.0
N543 N 0.24285 0.51392 0.51159 0.0
C544 C 0.33564 0.4117 0.56388 0.0
C545 C 0.27397 0.48178 0.52942 0.0
N546 N 0.27661 0.39129 0.62779 0.0
N547 N 0.32599 0.48811 0.45816 0.0
H548 H 0.20831 0.51836 0.52668 0.0
H549 H 0.25168 0.53697 0.48262 0.0
H550 H 0.35544 0.47714 0.43812 0.0
H551 H 0.30052 0.50587 0.43755 0.0
H552 H 0.29853 0.36677 0.64419 0.0
H553 H 0.24225 0.39292 0.64422 0.0
H554 H 0.34753 0.34333 0.59455 0.0
H555 H 0.38859 0.36278 0.54886 0.0
C556 C 0.93654 0.73092 0.97066 0.0
C557 C 0.94812 0.74913 0.92376 0.0
C558 C 0.00835 0.68878 0.91457 0.0
C559 C 0.98917 0.6654 0.95694 0.0
N560 N 0.93278 0.66191 0.02427 0.0
N561 N 0.00212 0.75232 0.85477 0.0
C562 C 0.95319 0.68617 0.98514 0.0
C563 C 0.9866 0.73035 0.89694 0.0
N564 N 0.91063 0.75701 0.00176 0.0
N565 N 0.04808 0.67171 0.89217 0.0
H566 H 0.99194 0.78608 0.84422 0.0
H567 H 0.02505 0.73753 0.83003 0.0
H568 H 0.06482 0.64159 0.90465 0.0
H569 H 0.06675 0.68865 0.86323 0.0
H570 H 0.9052 0.74773 0.03801 0.0
H571 H 0.89956 0.79094 0.99306 0.0
H572 H 0.90218 0.67259 0.0426 0.0
H573 H 0.9436 0.62882 0.03619 0.0
C574 C 0.46873 0.73611 0.02458 0.0
C575 C 0.46097 0.72262 0.07367 0.0
C576 C 0.49593 0.80326 0.09982 0.0
C577 C 0.49611 0.81898 0.05086 0.0
N578 N 0.47138 0.80165 0.96695 0.0
N579 N 0.45519 0.74808 0.1573 0.0
C580 C 0.47962 0.78578 0.0131 0.0
C581 C 0.47119 0.75749 0.11121 0.0
N582 N 0.46664 0.70162 0.98902 0.0
N583 N 0.52068 0.83118 0.13537 0.0
H584 H 0.43403 0.71613 0.16685 0.0
H585 H 0.45803 0.77428 0.18461 0.0
H586 H 0.5419 0.86381 0.12822 0.0
H587 H 0.52498 0.81909 0.17089 0.0
H588 H 0.47665 0.7094 0.95334 0.0
H589 H 0.4599 0.66472 0.9962 0.0
H590 H 0.4548 0.77918 0.93953 0.0
H591 H 0.4757 0.83801 0.9572 0.0
C592 C 0.13244 0.25853 0.62576 0.0
C593 C 0.10172 0.29435 0.60978 0.0
C594 C 0.05302 0.23501 0.55719 0.0
C595 C 0.08051 0.19823 0.57685 0.0
N596 N 0.14137 0.17306 0.6349 0.0
N597 N 0.02922 0.31656 0.56511 0.0
C598 C 0.11908 0.20946 0.61237 0.0
C599 C 0.06099 0.28258 0.57677 0.0
N600 N 0.17491 0.2716 0.65298 0.0
N601 N 0.02068 0.22484 0.51859 0.0
H602 H 0.03457 0.35209 0.5779 0.0
H603 H 0.99563 0.30875 0.54571 0.0
H604 H 0.01421 0.19052 0.50294 0.0
H605 H 0.00353 0.25114 0.49933 0.0
H606 H 0.20177 0.2481 0.66124 0.0
H607 H 0.18553 0.30712 0.66409 0.0
H608 H 0.16568 0.17852 0.66484 0.0
H609 H 0.1324 0.1366 0.62637 0.0
C610 C 0.58735 0.24015 0.51103 0.0
C611 C 0.58192 0.22347 0.46221 0.0
C612 C 0.55675 0.30287 0.4378 0.0
C613 C 0.57242 0.32148 0.48433 0.0
N614 N 0.60762 0.30902 0.56415 0.0
N615 N 0.5555 0.23748 0.37936 0.0
C616 C 0.58899 0.29043 0.52071 0.0
C617 C 0.56459 0.25442 0.42566 0.0
N618 N 0.58773 0.208 0.54851 0.0
N619 N 0.53214 0.33073 0.40613 0.0
H620 H 0.55444 0.201 0.37014 0.0
H621 H 0.55033 0.25973 0.34966 0.0
H622 H 0.52487 0.36606 0.41394 0.0
H623 H 0.51497 0.31776 0.37379 0.0
H624 H 0.58778 0.21844 0.58485 0.0
H625 H 0.58039 0.17076 0.54365 0.0
H626 H 0.62514 0.28856 0.5899 0.0
H627 H 0.60982 0.34579 0.5726 0.0
loop_
_geom_bond_atom_site_label_1
_geom_bond_atom_site_label_2
_geom_bond_distance
_geom_bond_site_symmetry_2
_ccdc_geom_bond_type
H0 C7 0.929 . S
H1 C10 0.930 . S
H2 C12 0.929 . S
H3 C4 0.969 . S
C4 H3 0.969 . S
C4 O5 1.550 . S
C4 H6 0.973 . S
O5 C4 1.550 . S
O5 C11 1.412 . S
H6 C4 0.973 . S
C7 H0 0.929 . S
C7 C8 1.400 . S
C7 C9 1.364 . S
C8 C7 1.400 . S
C8 C12 1.377 . S
C9 C7 1.364 . S
C9 C10 1.374 . S
C10 H1 0.930 . S
C10 C9 1.374 . S
C10 C11 1.383 . S
C11 O5 1.412 . S
C11 C10 1.383 . S
C11 C12 1.394 . S
C12 H2 0.929 . S
C12 C8 1.377 . S
C12 C11 1.394 . S
H13 C20 0.929 . S
H14 C23 0.930 . S
H15 C25 0.929 . S
H16 C17 0.969 . S
C17 H16 0.969 . S
C17 O18 1.550 . S
C17 H19 0.973 . S
O18 C17 1.550 . S
O18 C24 1.412 . S
H19 C17 0.973 . S
C20 H13 0.929 . S
C20 C21 1.400 . S
C20 C22 1.364 . S
C21 C20 1.400 . S
C21 C25 1.377 . S
C22 C20 1.364 . S
C22 C23 1.374 . S
C23 H14 0.930 . S
C23 C22 1.374 . S
C23 C24 1.383 . S
C24 O18 1.412 . S
C24 C23 1.383 . S
C24 C25 1.394 . S
C25 H15 0.929 . S
C25 C21 1.377 . S
C25 C24 1.394 . S
H26 C33 0.929 . S
H27 C36 0.930 . S
H28 C38 0.929 . S
H29 C30 0.969 . S
C30 H29 0.969 . S
C30 O31 1.550 . S
C30 H32 0.973 . S
O31 C30 1.550 . S
O31 C37 1.412 . S
H32 C30 0.973 . S
C33 H26 0.929 . S
C33 C34 1.400 . S
C33 C35 1.364 . S
C34 C33 1.400 . S
C34 C38 1.377 . S
C35 C33 1.364 . S
C35 C36 1.374 . S
C36 H27 0.930 . S
C36 C35 1.374 . S
C36 C37 1.383 . S
C37 O31 1.412 . S
C37 C36 1.383 . S
C37 C38 1.394 . S
C38 H28 0.929 . S
C38 C34 1.377 . S
C38 C37 1.394 . S
H39 C46 0.929 . S
H40 C49 0.930 . S
H41 C51 0.929 . S
H42 C43 0.969 . S
C43 H42 0.969 . S
C43 O44 1.550 . S
C43 H45 0.973 . S
O44 C43 1.550 . S
O44 C50 1.412 . S
H45 C43 0.973 . S
C46 H39 0.929 . S
C46 C47 1.400 . S
C46 C48 1.364 . S
C47 C46 1.400 . S
C47 C51 1.377 . S
C48 C46 1.364 . S
C48 C49 1.374 . S
C49 H40 0.930 . S
C49 C48 1.374 . S
C49 C50 1.383 . S
C50 O44 1.412 . S
C50 C49 1.383 . S
C50 C51 1.394 . S
C51 H41 0.929 . S
C51 C47 1.377 . S
C51 C50 1.394 . S
H52 C59 0.939 . S
H53 C62 0.930 . S
H54 C64 0.933 . S
H55 C56 0.969 . S
C56 H55 0.969 . S
C56 O57 1.550 . S
C56 H58 0.973 1_556 S
O57 C56 1.550 . S
O57 C63 1.412 . S
H58 C56 0.973 1_554 S
C59 H52 0.939 . S
C59 C60 1.400 . S
C59 C61 1.364 . S
C60 C59 1.400 . S
C60 C64 1.377 . S
C61 C59 1.364 . S
C61 C62 1.374 . S
C62 H53 0.930 . S
C62 C61 1.374 . S
C62 C63 1.383 . S
C63 O57 1.412 . S
C63 C62 1.383 . S
C63 C64 1.394 . S
C64 H54 0.933 . S
C64 C60 1.377 . S
C64 C63 1.394 . S
H65 C72 0.929 . S
H66 C75 0.930 . S
H67 C77 0.929 . S
H68 C69 0.969 . S
C69 H68 0.969 . S
C69 O70 1.550 . S
C69 H71 0.973 . S
O70 C69 1.550 . S
O70 C76 1.412 . S
H71 C69 0.973 . S
C72 H65 0.929 . S
C72 C73 1.400 . S
C72 C74 1.364 . S
C73 C72 1.400 . S
C73 C77 1.377 . S
C74 C72 1.364 . S
C74 C75 1.374 . S
C75 H66 0.930 . S
C75 C74 1.374 . S
C75 C76 1.383 . S
C76 O70 1.412 . S
C76 C75 1.383 . S
C76 C77 1.394 . S
C77 H67 0.929 . S
C77 C73 1.377 . S
C77 C76 1.394 . S
H78 C85 0.929 . S
H79 C88 0.930 . S
H80 C90 0.929 . S
H81 C82 0.969 . S
C82 H81 0.969 . S
C82 O83 1.550 . S
C82 H84 0.973 . S
O83 C82 1.550 . S
O83 C89 1.412 . S
H84 C82 0.973 . S
C85 H78 0.929 . S
C85 C86 1.400 . S
C85 C87 1.364 . S
C86 C85 1.400 . S
C86 C90 1.377 . S
C87 C85 1.364 . S
C87 C88 1.374 . S
C88 H79 0.930 . S
C88 C87 1.374 . S
C88 C89 1.383 . S
C89 O83 1.412 . S
C89 C88 1.383 . S
C89 C90 1.394 . S
C90 H80 0.929 . S
C90 C86 1.377 . S
C90 C89 1.394 . S
H91 C98 0.929 . S
H92 C101 0.930 . S
H93 C103 0.929 . S
H94 C95 0.969 . S
C95 H94 0.969 . S
C95 O96 1.550 . S
C95 H97 0.973 . S
O96 C95 1.550 . S
O96 C102 1.412 . S
H97 C95 0.973 . S
C98 H91 0.929 . S
C98 C99 1.400 . S
C98 C100 1.364 . S
C99 C98 1.400 . S
C99 C103 1.377 . S
C100 C98 1.364 . S
C100 C101 1.374 . S
C101 H92 0.930 . S
C101 C100 1.374 . S
C101 C102 1.383 . S
C102 O96 1.412 . S
C102 C101 1.383 . S
C102 C103 1.394 . S
C103 H93 0.929 . S
C103 C99 1.377 . S
C103 C102 1.394 . S
O104 Zn105 1.953 1_455 S
O104 C120 1.225 . S
Zn105 O104 1.953 1_655 S
Zn105 O106 1.949 1_655 S
Zn105 O112 1.919 . S
Zn105 O117 1.924 . S
O106 Zn105 1.949 1_455 S
O106 Zn107 1.923 1_445 S
O106 Zn108 1.950 . S
O106 Zn109 1.945 1_545 S
Zn107 O106 1.923 1_665 S
Zn107 O110 1.933 . S
Zn107 O113 1.941 1_565 S
Zn107 O114 1.965 1_665 S
Zn108 O106 1.950 . S
Zn108 O115 1.938 . S
Zn108 O116 1.906 . S
Zn108 O126 1.953 . S
Zn109 O106 1.945 1_565 S
Zn109 O111 1.932 1_455 S
Zn109 O118 1.977 . S
Zn109 O119 1.910 1_455 S
O110 Zn107 1.933 . S
O110 C121 1.226 . S
O111 Zn109 1.932 1_655 S
O111 C121 1.307 . S
O112 Zn105 1.919 . S
O112 C123 1.253 . S
O113 Zn107 1.941 1_545 S
O113 C123 1.283 . S
O114 Zn107 1.965 1_445 S
O114 C122 1.303 . S
O115 Zn108 1.938 . S
O115 C122 1.247 . S
O116 Zn108 1.906 . S
O116 C124 1.304 1_545 S
O117 Zn105 1.924 . S
O117 C125 1.295 1_545 S
O118 Zn109 1.977 . S
O118 C124 1.272 . S
O119 Zn109 1.910 1_655 S
O119 C125 1.249 . S
C120 O104 1.225 . S
C120 O126 1.298 . S
C121 O110 1.226 . S
C121 O111 1.307 . S
C122 O114 1.303 . S
C122 O115 1.247 . S
C123 O112 1.253 . S
C123 O113 1.283 . S
C124 O116 1.304 1_565 S
C124 O118 1.272 . S
C125 O117 1.295 1_565 S
C125 O119 1.249 . S
O126 Zn108 1.953 . S
O126 C120 1.298 . S
O127 Zn128 1.953 . S
O127 C143 1.225 . S
Zn128 O127 1.953 . S
Zn128 O129 1.949 1_556 S
Zn128 O135 1.919 . S
Zn128 O140 1.924 . S
O129 Zn128 1.949 1_554 S
O129 Zn130 1.923 1_544 S
O129 Zn131 1.950 . S
O129 Zn132 1.945 1_545 S
Zn130 O129 1.923 1_566 S
Zn130 O133 1.933 1_556 S
Zn130 O136 1.941 . S
Zn130 O137 1.965 . S
Zn131 O129 1.950 . S
Zn131 O138 1.938 . S
Zn131 O139 1.906 . S
Zn131 O149 1.953 . S
Zn132 O129 1.945 1_565 S
Zn132 O134 1.932 . S
Zn132 O141 1.977 1_565 S
Zn132 O142 1.910 1_565 S
O133 Zn130 1.933 1_554 S
O133 C144 1.226 . S
O134 Zn132 1.932 . S
O134 C144 1.307 . S
O135 Zn128 1.919 . S
O135 C146 1.253 1_545 S
O136 Zn130 1.941 . S
O136 C146 1.283 . S
O137 Zn130 1.965 . S
O137 C145 1.303 . S
O138 Zn131 1.938 . S
O138 C145 1.247 1_544 S
O139 Zn131 1.906 . S
O139 C147 1.304 . S
O140 Zn128 1.924 . S
O140 C148 1.311 1_556 S
O141 Zn132 1.977 1_545 S
O141 C147 1.272 . S
O142 Zn132 1.910 1_545 S
O142 C148 1.231 . S
C143 O127 1.225 . S
C143 O149 1.298 1_556 S
C144 O133 1.226 . S
C144 O134 1.307 . S
C145 O137 1.303 . S
C145 O138 1.247 1_566 S
C146 O135 1.253 1_565 S
C146 O136 1.283 . S
C147 O139 1.304 . S
C147 O141 1.272 . S
C148 O140 1.311 1_554 S
C148 O142 1.231 . S
O149 Zn131 1.953 . S
O149 C143 1.298 1_554 S
O150 Zn151 1.953 . S
O150 C166 1.225 . S
Zn151 O150 1.953 . S
Zn151 O152 1.949 . S
Zn151 O158 1.919 . S
Zn151 O163 1.924 . S
O152 Zn151 1.949 . S
O152 Zn153 1.923 . S
O152 Zn154 1.950 . S
O152 Zn155 1.945 . S
Zn153 O152 1.923 . S
Zn153 O156 1.933 . S
Zn153 O159 1.941 . S
Zn153 O160 1.965 . S
Zn154 O152 1.950 . S
Zn154 O161 1.938 . S
Zn154 O162 1.906 . S
Zn154 O172 1.953 . S
Zn155 O152 1.945 . S
Zn155 O157 1.932 . S
Zn155 O164 1.977 . S
Zn155 O165 1.910 . S
O156 Zn153 1.933 . S
O156 C167 1.226 . S
O157 Zn155 1.932 . S
O157 C167 1.307 . S
O158 Zn151 1.919 . S
O158 C169 1.253 . S
O159 Zn153 1.941 . S
O159 C169 1.283 . S
O160 Zn153 1.965 . S
O160 C168 1.303 . S
O161 Zn154 1.938 . S
O161 C168 1.247 . S
O162 Zn154 1.906 . S
O162 C170 1.304 . S
O163 Zn151 1.924 . S
O163 C171 1.311 . S
O164 Zn155 1.977 . S
O164 C170 1.272 . S
O165 Zn155 1.910 . S
O165 C171 1.231 . S
C166 O150 1.225 . S
C166 O172 1.298 . S
C167 O156 1.226 . S
C167 O157 1.307 . S
C168 O160 1.303 . S
C168 O161 1.247 . S
C169 O158 1.253 . S
C169 O159 1.283 . S
C170 O162 1.304 . S
C170 O164 1.272 . S
C171 O163 1.311 . S
C171 O165 1.231 . S
O172 Zn154 1.953 . S
O172 C166 1.298 . S
O173 Zn174 1.953 . S
O173 C189 1.225 1_655 S
Zn174 O173 1.953 . S
Zn174 O175 1.949 1_655 S
Zn174 O181 1.919 . S
Zn174 O186 1.924 1_655 S
O175 Zn174 1.949 1_455 S
O175 Zn176 1.923 1_554 S
O175 Zn177 1.950 . S
O175 Zn178 1.941 1_554 S
Zn176 O175 1.923 1_556 S
Zn176 O179 1.933 . S
Zn176 O182 1.941 1_455 S
Zn176 O183 1.965 . S
Zn177 O175 1.950 . S
Zn177 O184 1.938 . S
Zn177 O185 1.906 . S
Zn177 O195 1.953 . S
Zn178 O175 1.941 1_556 S
Zn178 O180 1.949 . S
Zn178 O187 1.972 1_556 S
Zn178 O188 1.901 1_556 S
O179 Zn176 1.933 . S
O179 C190 1.226 . S
O180 Zn178 1.949 . S
O180 C190 1.307 . S
O181 Zn174 1.919 . S
O181 C192 1.253 1_554 S
O182 Zn176 1.941 1_655 S
O182 C192 1.283 . S
O183 Zn176 1.965 . S
O183 C191 1.303 . S
O184 Zn177 1.938 . S
O184 C191 1.247 1_554 S
O185 Zn177 1.906 . S
O185 C193 1.304 . S
O186 Zn174 1.924 1_455 S
O186 C194 1.311 . S
O187 Zn178 1.972 1_554 S
O187 C193 1.272 . S
O188 Zn178 1.901 1_554 S
O188 C194 1.231 . S
C189 O173 1.225 1_455 S
C189 O195 1.298 . S
C190 O179 1.226 . S
C190 O180 1.307 . S
C191 O183 1.303 . S
C191 O184 1.247 1_556 S
C192 O181 1.253 1_556 S
C192 O182 1.283 . S
C193 O185 1.304 . S
C193 O187 1.272 . S
C194 O186 1.311 . S
C194 O188 1.231 . S
O195 Zn177 1.953 . S
O195 C189 1.298 . S
C196 C197 1.363 . S
C196 C202 1.379 . S
C196 N204 1.356 . S
C197 C196 1.363 . S
C197 C203 1.363 . S
C198 C199 1.363 . S
C198 C203 1.379 . S
C198 N205 1.356 . S
C199 C198 1.363 . S
C199 C202 1.363 . S
N200 C202 1.356 . S
N200 H212 0.984 . S
N200 H213 0.985 . S
N201 C203 1.356 . S
N201 H206 0.984 . S
N201 H207 0.985 . S
C202 C196 1.379 . S
C202 C199 1.363 . S
C202 N200 1.356 . S
C203 C197 1.363 . S
C203 C198 1.379 . S
C203 N201 1.356 . S
N204 C196 1.356 . S
N204 H210 0.984 . S
N204 H211 0.984 . S
N205 C198 1.356 . S
N205 H208 0.984 . S
N205 H209 0.985 . S
H206 N201 0.984 . S
H207 N201 0.985 . S
H208 N205 0.984 . S
H209 N205 0.985 . S
H210 N204 0.984 . S
H211 N204 0.984 . S
H212 N200 0.984 . S
H213 N200 0.985 . S
C214 C215 1.363 . S
C214 C220 1.379 . S
C214 N222 1.356 . S
C215 C214 1.363 . S
C215 C221 1.363 . S
C216 C217 1.363 . S
C216 C221 1.379 . S
C216 N223 1.356 1_565 S
C217 C216 1.363 . S
C217 C220 1.363 . S
N218 C220 1.356 . S
N218 H230 0.984 . S
N218 H231 0.985 . S
N219 C221 1.356 . S
N219 H224 0.984 . S
N219 H225 0.985 1_565 S
C220 C214 1.379 . S
C220 C217 1.363 . S
C220 N218 1.356 . S
C221 C215 1.363 . S
C221 C216 1.379 . S
C221 N219 1.356 . S
N222 C214 1.356 . S
N222 H228 0.984 . S
N222 H229 0.984 . S
N223 C216 1.356 1_545 S
N223 H226 0.984 . S
N223 H227 0.985 . S
H224 N219 0.984 . S
H225 N219 0.985 1_545 S
H226 N223 0.984 . S
H227 N223 0.985 . S
H228 N222 0.984 . S
H229 N222 0.984 . S
H230 N218 0.984 . S
H231 N218 0.985 . S
C232 C233 1.363 . S
C232 C238 1.379 . S
C232 N240 1.356 . S
C233 C232 1.363 . S
C233 C239 1.363 . S
C234 C235 1.363 . S
C234 C239 1.379 . S
C234 N241 1.356 . S
C235 C234 1.363 . S
C235 C238 1.363 . S
N236 C238 1.356 . S
N236 H248 0.984 . S
N236 H249 0.985 . S
N237 C239 1.356 . S
N237 H242 0.984 . S
N237 H243 0.985 . S
C238 C232 1.379 . S
C238 C235 1.363 . S
C238 N236 1.356 . S
C239 C233 1.363 . S
C239 C234 1.379 . S
C239 N237 1.356 . S
N240 C232 1.356 . S
N240 H246 0.984 . S
N240 H247 0.984 . S
N241 C234 1.356 . S
N241 H244 0.984 . S
N241 H245 0.985 . S
H242 N237 0.984 . S
H243 N237 0.985 . S
H244 N241 0.984 . S
H245 N241 0.985 . S
H246 N240 0.984 . S
H247 N240 0.984 . S
H248 N236 0.984 . S
H249 N236 0.985 . S
C250 C251 1.363 . S
C250 C256 1.379 1_655 S
C250 N258 1.356 . S
C251 C250 1.363 . S
C251 C257 1.363 . S
C252 C253 1.363 . S
C252 C257 1.379 . S
C252 N259 1.356 . S
C253 C252 1.363 . S
C253 C256 1.363 1_655 S
N254 C256 1.356 . S
N254 H266 0.984 . S
N254 H267 0.985 . S
N255 C257 1.356 . S
N255 H260 0.984 . S
N255 H261 0.985 . S
C256 C250 1.379 1_455 S
C256 C253 1.363 1_455 S
C256 N254 1.356 . S
C257 C251 1.363 . S
C257 C252 1.379 . S
C257 N255 1.356 . S
N258 C250 1.356 . S
N258 H264 0.984 1_655 S
N258 H265 0.984 . S
N259 C252 1.356 . S
N259 H262 0.984 . S
N259 H263 0.985 . S
H260 N255 0.984 . S
H261 N255 0.985 . S
H262 N259 0.984 . S
H263 N259 0.985 . S
H264 N258 0.984 1_455 S
H265 N258 0.984 . S
H266 N254 0.984 . S
H267 N254 0.985 . S
C268 C269 1.363 . S
C268 C274 1.379 . S
C268 N276 1.356 . S
C269 C268 1.363 . S
C269 C275 1.363 . S
C270 C271 1.363 . S
C270 C275 1.379 . S
C270 N277 1.356 1_554 S
C271 C270 1.363 . S
C271 C274 1.363 . S
N272 C274 1.356 . S
N272 H284 0.984 . S
N272 H285 0.985 . S
N273 C275 1.356 . S
N273 H278 0.984 . S
N273 H279 0.985 . S
C274 C268 1.379 . S
C274 C271 1.363 . S
C274 N272 1.356 . S
C275 C269 1.363 . S
C275 C270 1.379 . S
C275 N273 1.356 . S
N276 C268 1.356 . S
N276 H282 0.984 . S
N276 H283 0.984 . S
N277 C270 1.356 1_556 S
N277 H280 0.984 . S
N277 H281 0.985 . S
H278 N273 0.984 . S
H279 N273 0.985 . S
H280 N277 0.984 . S
H281 N277 0.985 . S
H282 N276 0.984 . S
H283 N276 0.984 . S
H284 N272 0.984 . S
H285 N272 0.985 . S
C286 C287 1.363 . S
C286 C292 1.379 . S
C286 N294 1.356 . S
C287 C286 1.363 . S
C287 C293 1.363 . S
C288 C289 1.363 . S
C288 C293 1.379 . S
C288 N295 1.356 . S
C289 C288 1.363 . S
C289 C292 1.363 . S
N290 C292 1.356 . S
N290 H302 0.984 . S
N290 H303 0.985 . S
N291 C293 1.356 . S
N291 H296 0.984 . S
N291 H297 0.985 . S
C292 C286 1.379 . S
C292 C289 1.363 . S
C292 N290 1.356 . S
C293 C287 1.363 . S
C293 C288 1.379 . S
C293 N291 1.356 . S
N294 C286 1.356 . S
N294 H300 0.984 . S
N294 H301 0.984 . S
N295 C288 1.356 . S
N295 H298 0.984 . S
N295 H299 0.985 . S
H296 N291 0.984 . S
H297 N291 0.985 . S
H298 N295 0.984 . S
H299 N295 0.985 . S
H300 N294 0.984 . S
H301 N294 0.984 . S
H302 N290 0.984 . S
H303 N290 0.985 . S
C304 C305 1.363 . S
C304 C310 1.379 . S
C304 N312 1.356 1_556 S
C305 C304 1.363 . S
C305 C311 1.363 . S
C306 C307 1.363 . S
C306 C311 1.379 . S
C306 N313 1.356 . S
C307 C306 1.363 . S
C307 C310 1.363 . S
N308 C310 1.356 1_554 S
N308 H320 0.984 . S
N308 H321 0.985 . S
N309 C311 1.356 . S
N309 H314 0.984 . S
N309 H315 0.985 . S
C310 C304 1.379 . S
C310 C307 1.363 . S
C310 N308 1.356 1_556 S
C311 C305 1.363 . S
C311 C306 1.379 . S
C311 N309 1.356 . S
N312 C304 1.356 1_554 S
N312 H318 0.984 . S
N312 H319 0.988 . S
N313 C306 1.356 . S
N313 H316 0.984 . S
N313 H317 0.985 . S
H314 N309 0.984 . S
H315 N309 0.985 . S
H316 N313 0.984 . S
H317 N313 0.985 . S
H318 N312 0.984 . S
H319 N312 0.988 . S
H320 N308 0.984 . S
H321 N308 0.985 . S
C322 C323 1.363 . S
C322 C328 1.379 . S
C322 N330 1.356 . S
C323 C322 1.363 . S
C323 C329 1.363 . S
C324 C325 1.363 . S
C324 C329 1.379 . S
C324 N331 1.356 . S
C325 C324 1.363 . S
C325 C328 1.363 . S
N326 C328 1.356 . S
N326 H338 0.984 . S
N326 H339 0.985 . S
N327 C329 1.356 . S
N327 H332 0.984 . S
N327 H333 0.985 . S
C328 C322 1.379 . S
C328 C325 1.363 . S
C328 N326 1.356 . S
C329 C323 1.363 . S
C329 C324 1.379 . S
C329 N327 1.356 . S
N330 C322 1.356 . S
N330 H336 0.984 . S
N330 H337 0.984 . S
N331 C324 1.356 . S
N331 H334 0.984 . S
N331 H335 0.985 . S
H332 N327 0.984 . S
H333 N327 0.985 . S
H334 N331 0.984 . S
H335 N331 0.985 . S
H336 N330 0.984 . S
H337 N330 0.984 . S
H338 N326 0.984 . S
H339 N326 0.985 . S
C340 C341 1.363 . S
C340 C346 1.379 . S
C340 N348 1.356 . S
C341 C340 1.363 . S
C341 C347 1.363 . S
C342 C343 1.363 . S
C342 C347 1.379 . S
C342 N349 1.356 . S
C343 C342 1.363 . S
C343 C346 1.363 . S
N344 C346 1.356 . S
N344 H356 0.984 . S
N344 H357 0.985 . S
N345 C347 1.356 . S
N345 H350 0.984 . S
N345 H351 0.985 . S
C346 C340 1.379 . S
C346 C343 1.363 . S
C346 N344 1.356 . S
C347 C341 1.363 . S
C347 C342 1.379 . S
C347 N345 1.356 . S
N348 C340 1.356 . S
N348 H354 0.984 . S
N348 H355 0.984 . S
N349 C342 1.356 . S
N349 H352 0.984 . S
N349 H353 0.985 1_455 S
H350 N345 0.984 . S
H351 N345 0.985 . S
H352 N349 0.984 . S
H353 N349 0.985 1_655 S
H354 N348 0.984 . S
H355 N348 0.984 . S
H356 N344 0.984 . S
H357 N344 0.985 . S
C358 C359 1.363 . S
C358 C364 1.379 . S
C358 N366 1.356 . S
C359 C358 1.363 . S
C359 C365 1.363 . S
C360 C361 1.363 . S
C360 C365 1.379 . S
C360 N367 1.356 . S
C361 C360 1.363 . S
C361 C364 1.363 . S
N362 C364 1.356 1_554 S
N362 H374 0.984 . S
N362 H375 0.985 . S
N363 C365 1.356 . S
N363 H368 0.984 . S
N363 H369 0.985 . S
C364 C358 1.379 . S
C364 C361 1.363 . S
C364 N362 1.356 1_556 S
C365 C359 1.363 . S
C365 C360 1.379 . S
C365 N363 1.356 . S
N366 C358 1.356 . S
N366 H372 0.984 1_556 S
N366 H373 0.984 . S
N367 C360 1.356 . S
N367 H370 0.984 . S
N367 H371 0.985 . S
H368 N363 0.984 . S
H369 N363 0.985 . S
H370 N367 0.984 . S
H371 N367 0.985 . S
H372 N366 0.984 1_554 S
H373 N366 0.984 . S
H374 N362 0.984 . S
H375 N362 0.985 . S
C376 C377 1.363 . S
C376 C382 1.379 . S
C376 N384 1.356 . S
C377 C376 1.363 . S
C377 C383 1.363 . S
C378 C379 1.363 . S
C378 C383 1.379 . S
C378 N385 1.356 . S
C379 C378 1.363 . S
C379 C382 1.363 . S
N380 C382 1.356 . S
N380 H392 0.984 . S
N380 H393 0.985 . S
N381 C383 1.356 . S
N381 H386 0.984 . S
N381 H387 0.985 . S
C382 C376 1.379 . S
C382 C379 1.363 . S
C382 N380 1.356 . S
C383 C377 1.363 . S
C383 C378 1.379 . S
C383 N381 1.356 . S
N384 C376 1.356 . S
N384 H390 0.984 . S
N384 H391 0.984 . S
N385 C378 1.356 . S
N385 H388 0.984 . S
N385 H389 0.985 . S
H386 N381 0.984 . S
H387 N381 0.985 . S
H388 N385 0.984 . S
H389 N385 0.985 . S
H390 N384 0.984 . S
H391 N384 0.984 . S
H392 N380 0.984 . S
H393 N380 0.985 . S
C394 C395 1.363 . S
C394 C400 1.379 . S
C394 N402 1.356 . S
C395 C394 1.363 . S
C395 C401 1.363 . S
C396 C397 1.363 . S
C396 C401 1.379 . S
C396 N403 1.356 . S
C397 C396 1.363 . S
C397 C400 1.363 . S
N398 C400 1.356 . S
N398 H410 0.984 . S
N398 H411 0.985 . S
N399 C401 1.356 . S
N399 H404 0.984 . S
N399 H405 0.985 . S
C400 C394 1.379 . S
C400 C397 1.363 . S
C400 N398 1.356 . S
C401 C395 1.363 . S
C401 C396 1.379 . S
C401 N399 1.356 . S
N402 C394 1.356 . S
N402 H408 0.984 . S
N402 H409 0.984 . S
N403 C396 1.356 . S
N403 H406 0.984 . S
N403 H407 0.985 . S
H404 N399 0.984 . S
H405 N399 0.985 . S
H406 N403 0.984 . S
H407 N403 0.985 . S
H408 N402 0.984 . S
H409 N402 0.984 . S
H410 N398 0.984 . S
H411 N398 0.985 . S
C412 C413 1.363 . S
C412 C418 1.379 . S
C412 N420 1.356 . S
C413 C412 1.363 . S
C413 C419 1.363 1_655 S
C414 C415 1.363 1_455 S
C414 C419 1.379 . S
C414 N421 1.356 1_565 S
C415 C414 1.363 1_655 S
C415 C418 1.363 . S
N416 C418 1.356 . S
N416 H428 0.984 . S
N416 H429 0.985 . S
N417 C419 1.356 . S
N417 H422 0.984 . S
N417 H423 0.985 . S
C418 C412 1.379 . S
C418 C415 1.363 . S
C418 N416 1.356 . S
C419 C413 1.363 1_455 S
C419 C414 1.379 . S
C419 N417 1.356 . S
N420 C412 1.356 . S
N420 H426 0.984 . S
N420 H427 0.984 . S
N421 C414 1.356 1_545 S
N421 H424 0.984 . S
N421 H425 0.985 . S
H422 N417 0.984 . S
H423 N417 0.985 . S
H424 N421 0.984 . S
H425 N421 0.985 . S
H426 N420 0.984 . S
H427 N420 0.984 . S
H428 N416 0.984 . S
H429 N416 0.985 . S
C430 C431 1.363 . S
C430 C436 1.379 . S
C430 N438 1.356 . S
C431 C430 1.363 . S
C431 C437 1.363 . S
C432 C433 1.363 . S
C432 C437 1.379 . S
C432 N439 1.356 1_545 S
C433 C432 1.363 . S
C433 C436 1.363 . S
N434 C436 1.356 . S
N434 H446 0.984 . S
N434 H447 0.985 . S
N435 C437 1.356 . S
N435 H440 0.984 . S
N435 H441 0.985 1_545 S
C436 C430 1.379 . S
C436 C433 1.363 . S
C436 N434 1.356 . S
C437 C431 1.363 . S
C437 C432 1.379 . S
C437 N435 1.356 . S
N438 C430 1.356 . S
N438 H444 0.984 . S
N438 H445 0.984 . S
N439 C432 1.356 1_565 S
N439 H442 0.984 . S
N439 H443 0.985 . S
H440 N435 0.984 . S
H441 N435 0.985 1_565 S
H442 N439 0.984 . S
H443 N439 0.985 . S
H444 N438 0.984 . S
H445 N438 0.984 . S
H446 N434 0.984 . S
H447 N434 0.985 . S
C448 C449 1.363 . S
C448 C454 1.379 . S
C448 N456 1.356 . S
C449 C448 1.363 . S
C449 C455 1.363 . S
C450 C451 1.363 . S
C450 C455 1.379 . S
C450 N457 1.356 . S
C451 C450 1.363 . S
C451 C454 1.363 . S
N452 C454 1.356 . S
N452 H464 0.984 . S
N452 H465 0.985 . S
N453 C455 1.356 . S
N453 H458 0.984 . S
N453 H459 0.985 . S
C454 C448 1.379 . S
C454 C451 1.363 . S
C454 N452 1.356 . S
C455 C449 1.363 . S
C455 C450 1.379 . S
C455 N453 1.356 . S
N456 C448 1.356 . S
N456 H462 0.984 . S
N456 H463 0.984 . S
N457 C450 1.356 . S
N457 H460 0.984 . S
N457 H461 0.985 . S
H458 N453 0.984 . S
H459 N453 0.985 . S
H460 N457 0.984 . S
H461 N457 0.985 . S
H462 N456 0.984 . S
H463 N456 0.984 . S
H464 N452 0.984 . S
H465 N452 0.985 . S
C466 C467 1.363 . S
C466 C472 1.379 . S
C466 N474 1.356 . S
C467 C466 1.363 . S
C467 C473 1.363 . S
C468 C469 1.363 . S
C468 C473 1.379 . S
C468 N475 1.356 . S
C469 C468 1.363 . S
C469 C472 1.363 . S
N470 C472 1.356 . S
N470 H482 0.984 . S
N470 H483 0.985 . S
N471 C473 1.356 . S
N471 H476 0.984 . S
N471 H477 0.985 . S
C472 C466 1.379 . S
C472 C469 1.363 . S
C472 N470 1.356 . S
C473 C467 1.363 . S
C473 C468 1.379 . S
C473 N471 1.356 . S
N474 C466 1.356 . S
N474 H480 0.984 . S
N474 H481 0.984 . S
N475 C468 1.356 . S
N475 H478 0.984 . S
N475 H479 0.985 . S
H476 N471 0.984 . S
H477 N471 0.985 . S
H478 N475 0.984 . S
H479 N475 0.985 . S
H480 N474 0.984 . S
H481 N474 0.984 . S
H482 N470 0.984 . S
H483 N470 0.985 . S
C484 C485 1.380 . S
C484 C490 1.377 1_556 S
C484 N492 1.345 1_556 S
C485 C484 1.380 . S
C485 C491 1.363 . S
C486 C487 1.363 . S
C486 C491 1.379 . S
C486 N493 1.356 1_565 S
C487 C486 1.363 . S
C487 C490 1.363 1_556 S
N488 C490 1.356 . S
N488 H500 0.984 . S
N488 H501 0.985 . S
N489 C491 1.356 . S
N489 H494 0.984 . S
N489 H495 0.985 . S
C490 C484 1.377 1_554 S
C490 C487 1.363 1_554 S
C490 N488 1.356 . S
C491 C485 1.363 . S
C491 C486 1.379 . S
C491 N489 1.356 . S
N492 C484 1.345 1_554 S
N492 H498 0.984 . S
N492 H499 0.984 . S
N493 C486 1.356 1_545 S
N493 H496 0.984 . S
N493 H497 0.985 . S
H494 N489 0.984 . S
H495 N489 0.985 . S
H496 N493 0.984 . S
H497 N493 0.985 . S
H498 N492 0.984 . S
H499 N492 0.984 . S
H500 N488 0.984 . S
H501 N488 0.985 . S
C502 C503 1.345 1_565 S
C502 C508 1.382 . S
C502 N510 1.366 . S
C503 C502 1.345 1_545 S
C503 C509 1.363 . S
C504 C505 1.363 . S
C504 C509 1.379 . S
C504 N511 1.356 . S
C505 C504 1.363 . S
C505 C508 1.363 1_545 S
N506 C508 1.356 . S
N506 H518 0.984 . S
N506 H519 0.985 . S
N507 C509 1.356 . S
N507 H512 0.984 . S
N507 H513 0.985 . S
C508 C502 1.382 . S
C508 C505 1.363 1_565 S
C508 N506 1.356 . S
C509 C503 1.363 . S
C509 C504 1.379 . S
C509 N507 1.356 . S
N510 C502 1.366 . S
N510 H516 0.984 . S
N510 H517 0.984 . S
N511 C504 1.356 . S
N511 H514 0.984 . S
N511 H515 0.985 . S
H512 N507 0.984 . S
H513 N507 0.985 . S
H514 N511 0.984 . S
H515 N511 0.985 . S
H516 N510 0.984 . S
H517 N510 0.984 . S
H518 N506 0.984 . S
H519 N506 0.985 . S
C520 C521 1.363 . S
C520 C526 1.379 . S
C520 N528 1.356 . S
C521 C520 1.363 . S
C521 C527 1.363 . S
C522 C523 1.363 . S
C522 C527 1.379 . S
C522 N529 1.356 1_554 S
C523 C522 1.363 . S
C523 C526 1.363 . S
N524 C526 1.356 . S
N524 H536 0.984 . S
N524 H537 0.985 . S
N525 C527 1.356 1_556 S
N525 H530 0.984 1_556 S
N525 H531 0.985 . S
C526 C520 1.379 . S
C526 C523 1.363 . S
C526 N524 1.356 . S
C527 C521 1.363 . S
C527 C522 1.379 . S
C527 N525 1.356 1_554 S
N528 C520 1.356 . S
N528 H534 0.984 . S
N528 H535 0.984 . S
N529 C522 1.356 1_556 S
N529 H532 0.984 . S
N529 H533 0.985 . S
H530 N525 0.984 1_554 S
H531 N525 0.985 . S
H532 N529 0.984 . S
H533 N529 0.985 . S
H534 N528 0.984 . S
H535 N528 0.984 . S
H536 N524 0.984 . S
H537 N524 0.985 . S
C538 C539 1.363 . S
C538 C544 1.379 . S
C538 N546 1.356 . S
C539 C538 1.363 . S
C539 C545 1.363 . S
C540 C541 1.363 . S
C540 C545 1.379 . S
C540 N547 1.356 . S
C541 C540 1.363 . S
C541 C544 1.363 . S
N542 C544 1.356 . S
N542 H554 0.984 . S
N542 H555 0.985 . S
N543 C545 1.356 . S
N543 H548 0.984 . S
N543 H549 0.985 . S
C544 C538 1.379 . S
C544 C541 1.363 . S
C544 N542 1.356 . S
C545 C539 1.363 . S
C545 C540 1.379 . S
C545 N543 1.356 . S
N546 C538 1.356 . S
N546 H552 0.984 . S
N546 H553 0.984 . S
N547 C540 1.356 . S
N547 H550 0.984 . S
N547 H551 0.985 . S
H548 N543 0.984 . S
H549 N543 0.985 . S
H550 N547 0.984 . S
H551 N547 0.985 . S
H552 N546 0.984 . S
H553 N546 0.984 . S
H554 N542 0.984 . S
H555 N542 0.985 . S
C556 C557 1.363 1_454 S
C556 C562 1.379 . S
C556 N564 1.356 . S
C557 C556 1.363 1_656 S
C557 C563 1.363 . S
C558 C559 1.363 . S
C558 C563 1.379 . S
C558 N565 1.356 . S
C559 C558 1.363 . S
C559 C562 1.363 1_656 S
N560 C562 1.356 . S
N560 H572 0.984 . S
N560 H573 0.985 . S
N561 C563 1.356 . S
N561 H566 0.984 . S
N561 H567 0.985 . S
C562 C556 1.379 . S
C562 C559 1.363 1_454 S
C562 N560 1.356 . S
C563 C557 1.363 . S
C563 C558 1.379 . S
C563 N561 1.356 . S
N564 C556 1.356 . S
N564 H570 0.984 . S
N564 H571 0.984 . S
N565 C558 1.356 . S
N565 H568 0.984 . S
N565 H569 0.985 . S
H566 N561 0.984 . S
H567 N561 0.985 . S
H568 N565 0.984 . S
H569 N565 0.985 . S
H570 N564 0.984 . S
H571 N564 0.984 . S
H572 N560 0.984 . S
H573 N560 0.985 . S
C574 C575 1.363 . S
C574 C580 1.379 . S
C574 N582 1.356 1_554 S
C575 C574 1.363 . S
C575 C581 1.363 . S
C576 C577 1.363 . S
C576 C581 1.379 . S
C576 N583 1.356 . S
C577 C576 1.363 . S
C577 C580 1.363 . S
N578 C580 1.356 1_556 S
N578 H590 0.984 . S
N578 H591 0.985 1_556 S
N579 C581 1.356 . S
N579 H584 0.984 . S
N579 H585 0.985 . S
C580 C574 1.379 . S
C580 C577 1.363 . S
C580 N578 1.356 1_554 S
C581 C575 1.363 . S
C581 C576 1.379 . S
C581 N579 1.356 . S
N582 C574 1.356 1_556 S
N582 H588 0.984 . S
N582 H589 0.984 . S
N583 C576 1.356 . S
N583 H586 0.984 . S
N583 H587 0.985 . S
H584 N579 0.984 . S
H585 N579 0.985 . S
H586 N583 0.984 . S
H587 N583 0.985 . S
H588 N582 0.984 . S
H589 N582 0.984 . S
H590 N578 0.984 . S
H591 N578 0.985 1_554 S
C592 C593 1.363 . S
C592 C598 1.379 . S
C592 N600 1.356 . S
C593 C592 1.363 . S
C593 C599 1.363 . S
C594 C595 1.363 . S
C594 C599 1.379 . S
C594 N601 1.356 . S
C595 C594 1.363 . S
C595 C598 1.363 . S
N596 C598 1.356 . S
N596 H608 0.984 . S
N596 H609 0.985 . S
N597 C599 1.356 . S
N597 H602 0.984 . S
N597 H603 0.985 . S
C598 C592 1.379 . S
C598 C595 1.363 . S
C598 N596 1.356 . S
C599 C593 1.363 . S
C599 C594 1.379 . S
C599 N597 1.356 . S
N600 C592 1.356 . S
N600 H606 0.984 . S
N600 H607 0.984 . S
N601 C594 1.356 . S
N601 H604 0.984 . S
N601 H605 0.985 1_455 S
H602 N597 0.984 . S
H603 N597 0.985 . S
H604 N601 0.984 . S
H605 N601 0.985 1_655 S
H606 N600 0.984 . S
H607 N600 0.984 . S
H608 N596 0.984 . S
H609 N596 0.985 . S
C610 C611 1.363 . S
C610 C616 1.379 . S
C610 N618 1.356 . S
C611 C610 1.363 . S
C611 C617 1.363 . S
C612 C613 1.363 . S
C612 C617 1.379 . S
C612 N619 1.356 . S
C613 C612 1.363 . S
C613 C616 1.363 . S
N614 C616 1.356 . S
N614 H626 0.984 . S
N614 H627 0.985 . S
N615 C617 1.356 . S
N615 H620 0.984 . S
N615 H621 0.985 . S
C616 C610 1.379 . S
C616 C613 1.363 . S
C616 N614 1.356 . S
C617 C611 1.363 . S
C617 C612 1.379 . S
C617 N615 1.356 . S
N618 C610 1.356 . S
N618 H624 0.984 . S
N618 H625 0.984 . S
N619 C612 1.356 . S
N619 H622 0.984 . S
N619 H623 0.985 . S
H620 N615 0.984 . S
H621 N615 0.985 . S
H622 N619 0.984 . S
H623 N619 0.985 . S
H624 N618 0.984 . S
H625 N618 0.984 . S
H626 N614 0.984 . S
H627 N614 0.985 . S
C197 C9 1.910 . S
C199 C122 1.870 . S
C215 C21 1.603 . S
C217 C146 1.570 . S
C235 C166 1.274 . S
C233 C30 1.269 . S
C251 C43 1.201 . S
C253 C189 1.285 1_655 S
C271 C148 1.546 . S
C269 C4 1.614 . S
C289 C124 2.001 . S
C287 C22 2.058 . S
C307 C192 1.325 . S
C305 C34 1.371 . S
C325 C169 1.437 . S
C323 C48 1.483 . S
C341 C8 1.564 . S
C343 C194 1.533 . S
C361 C143 1.624 . S
C359 C35 1.608 . S
C377 C47 1.629 . S
C379 C121 1.645 . S
C395 C17 1.458 . S
C397 C171 1.372 . S
C415 C125 1.650 . S
C413 C60 1.632 . S
C431 C74 1.803 . S
C433 C147 1.790 . S
C449 C82 1.329 . S
C451 C167 1.349 . S
C467 C100 1.879 . S
C469 C190 1.909 . S
C485 C61 1.773 . S
C487 C145 1.744 . S
C505 C123 1.586 . S
C503 C73 1.569 . S
C523 C193 1.550 . S
C521 C87 1.563 . S
C541 C170 1.221 . S
C539 C95 1.239 . S
C557 C56 1.672 . S
C559 C191 1.758 1_655 S
C577 C144 1.662 . S
C575 C86 1.628 . S
C595 C120 1.517 . S
C593 C99 1.479 . S
C611 C69 1.671 . S
C613 C168 1.623 . S
