# Generated by pormake.
# Topology ptr, (4,4)-cn, num edge types: 1
# Building blocks:
#     Node 0, Type 0, BuildingBlock: KUFVIS_clean_sbu_0, # of connection points: 4
#     Node 1, Type 0, BuildingBlock: KUFVIS_clean_sbu_0, # of connection points: 4
#     Node 2, Type 0, BuildingBlock: KUFVIS_clean_sbu_0, # of connection points: 4
#     Node 3, Type 0, BuildingBlock: KUFVIS_clean_sbu_0, # of connection points: 4
#     Node 4, Type 0, BuildingBlock: KUFVIS_clean_sbu_0, # of connection points: 4
#     Node 5, Type 0, BuildingBlock: KUFVIS_clean_sbu_0, # of connection points: 4
#     Node 6, Type 0, BuildingBlock: KUFVIS_clean_sbu_0, # of connection points: 4
#     Node 7, Type 0, BuildingBlock: KUFVIS_clean_sbu_0, # of connection points: 4
#     Node 8, Type 0, BuildingBlock: KUFVIS_clean_sbu_0, # of connection points: 4
#     Node 9, Type 0, BuildingBlock: KUFVIS_clean_sbu_0, # of connection points: 4
#     Node 10, Type 0, BuildingBlock: KUFVIS_clean_sbu_0, # of connection points: 4
#     Node 11, Type 0, BuildingBlock: KUFVIS_clean_sbu_0, # of connection points: 4
#     Node 12, Type 0, BuildingBlock: KUFVIS_clean_sbu_0, # of connection points: 4
#     Node 13, Type 0, BuildingBlock: KUFVIS_clean_sbu_0, # of connection points: 4
#     Node 14, Type 0, BuildingBlock: KUFVIS_clean_sbu_0, # of connection points: 4
#     Node 15, Type 0, BuildingBlock: KUFVIS_clean_sbu_0, # of connection points: 4
#     Node 16, Type 0, BuildingBlock: KUFVIS_clean_sbu_0, # of connection points: 4
#     Node 17, Type 0, BuildingBlock: KUFVIS_clean_sbu_0, # of connection points: 4
#     Node 18, Type 1, BuildingBlock: NAWXER_clean_linker_0, # of connection points: 4
#     Node 19, Type 1, BuildingBlock: NAWXER_clean_linker_0, # of connection points: 4
#     Node 20, Type 1, BuildingBlock: NAWXER_clean_linker_0, # of connection points: 4
#     Node 21, Type 1, BuildingBlock: NAWXER_clean_linker_0, # of connection points: 4
#     Node 22, Type 1, BuildingBlock: NAWXER_clean_linker_0, # of connection points: 4
#     Node 23, Type 1, BuildingBlock: NAWXER_clean_linker_0, # of connection points: 4
#     Node 24, Type 1, BuildingBlock: NAWXER_clean_linker_0, # of connection points: 4
#     Node 25, Type 1, BuildingBlock: NAWXER_clean_linker_0, # of connection points: 4
#     Node 26, Type 1, BuildingBlock: NAWXER_clean_linker_0, # of connection points: 4
#     Node 27, Type 1, BuildingBlock: NAWXER_clean_linker_0, # of connection points: 4
#     Node 28, Type 1, BuildingBlock: NAWXER_clean_linker_0, # of connection points: 4
#     Node 29, Type 1, BuildingBlock: NAWXER_clean_linker_0, # of connection points: 4
#     Node 30, Type 1, BuildingBlock: NAWXER_clean_linker_0, # of connection points: 4
#     Node 31, Type 1, BuildingBlock: NAWXER_clean_linker_0, # of connection points: 4
#     Node 32, Type 1, BuildingBlock: NAWXER_clean_linker_0, # of connection points: 4
#     Node 33, Type 1, BuildingBlock: NAWXER_clean_linker_0, # of connection points: 4
#     Node 34, Type 1, BuildingBlock: NAWXER_clean_linker_0, # of connection points: 4
#     Node 35, Type 1, BuildingBlock: NAWXER_clean_linker_0, # of connection points: 4
#     Edge 36, Type (0, 1), BuildingBlock: XUDNAN_clean_linker_2, # of connection points: 2
#     Edge 37, Type (0, 1), BuildingBlock: XUDNAN_clean_linker_2, # of connection points: 2
#     Edge 38, Type (0, 1), BuildingBlock: XUDNAN_clean_linker_2, # of connection points: 2
#     Edge 39, Type (0, 1), BuildingBlock: XUDNAN_clean_linker_2, # of connection points: 2
#     Edge 40, Type (0, 1), BuildingBlock: XUDNAN_clean_linker_2, # of connection points: 2
#     Edge 41, Type (0, 1), BuildingBlock: XUDNAN_clean_linker_2, # of connection points: 2
#     Edge 42, Type (0, 1), BuildingBlock: XUDNAN_clean_linker_2, # of connection points: 2
#     Edge 43, Type (0, 1), BuildingBlock: XUDNAN_clean_linker_2, # of connection points: 2
#     Edge 44, Type (0, 1), BuildingBlock: XUDNAN_clean_linker_2, # of connection points: 2
#     Edge 45, Type (0, 1), BuildingBlock: XUDNAN_clean_linker_2, # of connection points: 2
#     Edge 46, Type (0, 1), BuildingBlock: XUDNAN_clean_linker_2, # of connection points: 2
#     Edge 47, Type (0, 1), BuildingBlock: XUDNAN_clean_linker_2, # of connection points: 2
#     Edge 48, Type (0, 1), BuildingBlock: XUDNAN_clean_linker_2, # of connection points: 2
#     Edge 49, Type (0, 1), BuildingBlock: XUDNAN_clean_linker_2, # of connection points: 2
#     Edge 50, Type (0, 1), BuildingBlock: XUDNAN_clean_linker_2, # of connection points: 2
#     Edge 51, Type (0, 1), BuildingBlock: XUDNAN_clean_linker_2, # of connection points: 2
#     Edge 52, Type (0, 1), BuildingBlock: XUDNAN_clean_linker_2, # of connection points: 2
#     Edge 53, Type (0, 1), BuildingBlock: XUDNAN_clean_linker_2, # of connection points: 2
#     Edge 54, Type (0, 1), BuildingBlock: XUDNAN_clean_linker_2, # of connection points: 2
#     Edge 55, Type (0, 1), BuildingBlock: XUDNAN_clean_linker_2, # of connection points: 2
#     Edge 56, Type (0, 1), BuildingBlock: XUDNAN_clean_linker_2, # of connection points: 2
#     Edge 57, Type (0, 1), BuildingBlock: XUDNAN_clean_linker_2, # of connection points: 2
#     Edge 58, Type (0, 1), BuildingBlock: XUDNAN_clean_linker_2, # of connection points: 2
#     Edge 59, Type (0, 1), BuildingBlock: XUDNAN_clean_linker_2, # of connection points: 2
#     Edge 60, Type (0, 1), BuildingBlock: XUDNAN_clean_linker_2, # of connection points: 2
#     Edge 61, Type (0, 1), BuildingBlock: XUDNAN_clean_linker_2, # of connection points: 2
#     Edge 62, Type (0, 1), BuildingBlock: XUDNAN_clean_linker_2, # of connection points: 2
#     Edge 63, Type (0, 1), BuildingBlock: XUDNAN_clean_linker_2, # of connection points: 2
#     Edge 64, Type (0, 1), BuildingBlock: XUDNAN_clean_linker_2, # of connection points: 2
#     Edge 65, Type (0, 1), BuildingBlock: XUDNAN_clean_linker_2, # of connection points: 2
#     Edge 66, Type (0, 1), BuildingBlock: XUDNAN_clean_linker_2, # of connection points: 2
#     Edge 67, Type (0, 1), BuildingBlock: XUDNAN_clean_linker_2, # of connection points: 2
#     Edge 68, Type (0, 1), BuildingBlock: XUDNAN_clean_linker_2, # of connection points: 2
#     Edge 69, Type (0, 1), BuildingBlock: XUDNAN_clean_linker_2, # of connection points: 2
#     Edge 70, Type (0, 1), BuildingBlock: XUDNAN_clean_linker_2, # of connection points: 2
#     Edge 71, Type (0, 1), BuildingBlock: XUDNAN_clean_linker_2, # of connection points: 2
#     Edge 72, Type (0, 1), BuildingBlock: XUDNAN_clean_linker_2, # of connection points: 2
#     Edge 73, Type (0, 1), BuildingBlock: XUDNAN_clean_linker_2, # of connection points: 2
#     Edge 74, Type (0, 1), BuildingBlock: XUDNAN_clean_linker_2, # of connection points: 2
#     Edge 75, Type (0, 1), BuildingBlock: XUDNAN_clean_linker_2, # of connection points: 2
#     Edge 76, Type (0, 1), BuildingBlock: XUDNAN_clean_linker_2, # of connection points: 2
#     Edge 77, Type (0, 1), BuildingBlock: XUDNAN_clean_linker_2, # of connection points: 2
#     Edge 78, Type (0, 1), BuildingBlock: XUDNAN_clean_linker_2, # of connection points: 2
#     Edge 79, Type (0, 1), BuildingBlock: XUDNAN_clean_linker_2, # of connection points: 2
#     Edge 80, Type (0, 1), BuildingBlock: XUDNAN_clean_linker_2, # of connection points: 2
#     Edge 81, Type (0, 1), BuildingBlock: XUDNAN_clean_linker_2, # of connection points: 2
#     Edge 82, Type (0, 1), BuildingBlock: XUDNAN_clean_linker_2, # of connection points: 2
#     Edge 83, Type (0, 1), BuildingBlock: XUDNAN_clean_linker_2, # of connection points: 2
#     Edge 84, Type (0, 1), BuildingBlock: XUDNAN_clean_linker_2, # of connection points: 2
#     Edge 85, Type (0, 1), BuildingBlock: XUDNAN_clean_linker_2, # of connection points: 2
#     Edge 86, Type (0, 1), BuildingBlock: XUDNAN_clean_linker_2, # of connection points: 2
#     Edge 87, Type (0, 1), BuildingBlock: XUDNAN_clean_linker_2, # of connection points: 2
#     Edge 88, Type (0, 1), BuildingBlock: XUDNAN_clean_linker_2, # of connection points: 2
#     Edge 89, Type (0, 1), BuildingBlock: XUDNAN_clean_linker_2, # of connection points: 2
#     Edge 90, Type (0, 1), BuildingBlock: XUDNAN_clean_linker_2, # of connection points: 2
#     Edge 91, Type (0, 1), BuildingBlock: XUDNAN_clean_linker_2, # of connection points: 2
#     Edge 92, Type (0, 1), BuildingBlock: XUDNAN_clean_linker_2, # of connection points: 2
#     Edge 93, Type (0, 1), BuildingBlock: XUDNAN_clean_linker_2, # of connection points: 2
#     Edge 94, Type (0, 1), BuildingBlock: XUDNAN_clean_linker_2, # of connection points: 2
#     Edge 95, Type (0, 1), BuildingBlock: XUDNAN_clean_linker_2, # of connection points: 2
#     Edge 96, Type (0, 1), BuildingBlock: XUDNAN_clean_linker_2, # of connection points: 2
#     Edge 97, Type (0, 1), BuildingBlock: XUDNAN_clean_linker_2, # of connection points: 2
#     Edge 98, Type (0, 1), BuildingBlock: XUDNAN_clean_linker_2, # of connection points: 2
#     Edge 99, Type (0, 1), BuildingBlock: XUDNAN_clean_linker_2, # of connection points: 2
#     Edge 100, Type (0, 1), BuildingBlock: XUDNAN_clean_linker_2, # of connection points: 2
#     Edge 101, Type (0, 1), BuildingBlock: XUDNAN_clean_linker_2, # of connection points: 2
#     Edge 102, Type (0, 1), BuildingBlock: XUDNAN_clean_linker_2, # of connection points: 2
#     Edge 103, Type (0, 1), BuildingBlock: XUDNAN_clean_linker_2, # of connection points: 2
#     Edge 104, Type (0, 1), BuildingBlock: XUDNAN_clean_linker_2, # of connection points: 2
#     Edge 105, Type (0, 1), BuildingBlock: XUDNAN_clean_linker_2, # of connection points: 2
#     Edge 106, Type (0, 1), BuildingBlock: XUDNAN_clean_linker_2, # of connection points: 2
#     Edge 107, Type (0, 1), BuildingBlock: XUDNAN_clean_linker_2, # of connection points: 2
# Relax obj value: 0.038
# Max RMSD: 0.167
# Mean RMSD: 0.064
data_MOF--net-ptr--node1-KUFVIS_clean_sbu_0--node2-NAWXER_clean_linker_0--edge1-XUDNAN_clean_linker_2
_symmetry_space_group_name_H-M    P1
_symmetry_Int_Tables_number       1
_symmetry_cell_setting            triclinic
loop_
_symmetry_equiv_pos_as_xyz
'x, y, z'
_cell_length_a     86.894622
_cell_length_b     86.407496
_cell_length_c     64.1744
_cell_angle_alpha  89.85766
_cell_angle_beta   90.548965
_cell_angle_gamma 119.46132
loop_
_atom_site_label
_atom_site_type_symbol
_atom_site_fract_x
_atom_site_fract_y
_atom_site_fract_z
_atom_type_partial_charge
Mn0 Mn 0.99974 0.34903 0.99755 0.0
Mn1 Mn 0.03833 0.38663 0.00633 0.0
C2 C 0.00809 0.3733 0.97614 0.0
C3 C 0.98455 0.32126 0.98138 0.0
C4 C 0.00531 0.37607 0.03169 0.0
O5 O 0.01274 0.34077 0.01715 0.0
O6 O 0.03852 0.36631 0.02072 0.0
C7 C 0.06158 0.37692 0.983 0.0
N8 N 0.05509 0.3882 0.98618 0.0
C9 C 0.07255 0.40722 0.9583 0.0
C10 C 0.07952 0.39587 0.95481 0.0
C11 C 0.07398 0.38064 0.96719 0.0
C12 C 0.06028 0.40286 0.97432 0.0
H13 H 0.0573 0.36516 0.99242 0.0
C14 C 0.02842 0.34974 0.02444 0.0
O15 O 0.97805 0.32494 0.99759 0.0
O16 O 0.9999 0.33345 0.97515 0.0
N17 N 0.0401 0.40736 0.99325 0.0
C18 C 0.03181 0.41672 0.99834 0.0
C19 C 0.03583 0.43231 0.98735 0.0
C20 C 0.04834 0.43814 0.97133 0.0
C21 C 0.05682 0.42839 0.96652 0.0
C22 C 0.05247 0.4131 0.9782 0.0
H23 H 0.0222 0.41231 0.01065 0.0
O24 O 0.99166 0.36099 0.97707 0.0
O25 O 0.01917 0.37089 0.98754 0.0
O26 O 0.99517 0.36167 0.02186 0.0
O27 O 0.02159 0.38614 0.02724 0.0
C28 C 0.06929 0.43315 0.95047 0.0
C29 C 0.07712 0.42255 0.94632 0.0
H30 H 0.08903 0.39865 0.94257 0.0
H31 H 0.07924 0.37177 0.96453 0.0
H32 H 0.02926 0.4398 0.9912 0.0
H33 H 0.05133 0.45012 0.9628 0.0
H34 H 0.07284 0.44486 0.9411 0.0
H35 H 0.08655 0.42625 0.93381 0.0
Mn36 Mn 0.64813 0.64041 0.01929 0.0
Mn37 Mn 0.6449 0.60056 0.02978 0.0
C38 C 0.62617 0.62063 0.04127 0.0
C39 C 0.65996 0.67065 0.02692 0.0
C40 C 0.63023 0.60772 0.99031 0.0
O41 O 0.67171 0.64388 0.0084 0.0
O42 O 0.66748 0.61676 0.0161 0.0
C43 C 0.67332 0.61397 0.06174 0.0
N44 N 0.65628 0.60256 0.05601 0.0
C45 C 0.65059 0.58697 0.08857 0.0
C46 C 0.66808 0.59853 0.09485 0.0
C47 C 0.67945 0.61219 0.08144 0.0
C48 C 0.64507 0.58977 0.06904 0.0
H49 H 0.68218 0.62426 0.05129 0.0
C50 C 0.67665 0.63221 0.0082 0.0
O51 O 0.65359 0.66433 0.00854 0.0
O52 O 0.66014 0.65959 0.04045 0.0
N53 N 0.62391 0.58281 0.04288 0.0
C54 C 0.60779 0.57213 0.03397 0.0
C55 C 0.59479 0.55787 0.04539 0.0
C56 C 0.59879 0.55419 0.06541 0.0
C57 C 0.61578 0.56477 0.0738 0.0
C58 C 0.62799 0.57917 0.062 0.0
H59 H 0.60485 0.57453 0.0183 0.0
O60 O 0.62503 0.63356 0.03255 0.0
O61 O 0.64058 0.61997 0.03768 0.0
O62 O 0.63523 0.62409 0.99407 0.0
O63 O 0.6328 0.59764 0.00282 0.0
C64 C 0.62124 0.56127 0.09315 0.0
C65 C 0.63853 0.57253 0.10069 0.0
H66 H 0.67294 0.59698 0.10988 0.0
H67 H 0.69297 0.62116 0.08616 0.0
H68 H 0.58181 0.54956 0.03862 0.0
H69 H 0.58882 0.543 0.07403 0.0
H70 H 0.61215 0.55008 0.1025 0.0
H71 H 0.64247 0.56988 0.11575 0.0
Mn72 Mn 0.34725 0.0032 0.02236 0.0
Mn73 Mn 0.38525 0.04157 0.01464 0.0
C74 C 0.37065 0.01155 0.04535 0.0
C75 C 0.31893 0.98803 0.0362 0.0
C76 C 0.37448 0.00796 0.9895 0.0
O77 O 0.34002 0.01649 0.00178 0.0
O78 O 0.36549 0.04253 0.99986 0.0
C79 C 0.37693 0.06624 0.03744 0.0
N80 N 0.38759 0.05902 0.03454 0.0
C81 C 0.40741 0.07714 0.06184 0.0
C82 C 0.3967 0.08484 0.06504 0.0
C83 C 0.38137 0.07934 0.05281 0.0
C84 C 0.40237 0.06422 0.04621 0.0
H85 H 0.36511 0.06201 0.02811 0.0
C86 C 0.3491 0.03246 0.99531 0.0
O87 O 0.32346 0.98155 0.02069 0.0
O88 O 0.33069 0.00343 0.04334 0.0
N89 N 0.40542 0.04255 0.02822 0.0
C90 C 0.41373 0.03305 0.02399 0.0
C91 C 0.42904 0.03657 0.03528 0.0
C92 C 0.43568 0.04985 0.05071 0.0
C93 C 0.42697 0.05953 0.05467 0.0
C94 C 0.41187 0.05556 0.04278 0.0
H95 H 0.40869 0.02282 0.01216 0.0
O96 O 0.35826 0.99509 0.04409 0.0
O97 O 0.36886 0.02271 0.03328 0.0
O98 O 0.36028 0.99797 0.99932 0.0
O99 O 0.38436 0.02444 0.99369 0.0
C100 C 0.43248 0.07272 0.07023 0.0
C101 C 0.4227 0.08151 0.07383 0.0
H102 H 0.40002 0.09488 0.07697 0.0
H103 H 0.37299 0.08517 0.05526 0.0
H104 H 0.43568 0.02903 0.03213 0.0
H105 H 0.4474 0.05241 0.05951 0.0
H106 H 0.44407 0.07603 0.07973 0.0
H107 H 0.42692 0.09144 0.08604 0.0
Mn108 Mn 0.00504 0.6559 0.99949 0.0
Mn109 Mn 0.04502 0.65889 0.00377 0.0
C110 C 0.01156 0.63776 0.97931 0.0
C111 C 0.98835 0.66711 0.98332 0.0
C112 C 0.01611 0.64138 0.03626 0.0
O113 O 0.01994 0.67923 0.01506 0.0
O114 O 0.04707 0.68192 0.0124 0.0
C115 C 0.0642 0.68547 0.97099 0.0
N116 N 0.05842 0.66896 0.97911 0.0
C117 C 0.07177 0.66112 0.95138 0.0
C118 C 0.07796 0.67808 0.94278 0.0
C119 C 0.07413 0.69028 0.95261 0.0
C120 C 0.062 0.6571 0.96977 0.0
H121 H 0.0612 0.69485 0.97845 0.0
C122 C 0.0367 0.68786 0.01739 0.0
O123 O 0.98342 0.65874 1.001 0.0
O124 O 0.00278 0.66893 0.97544 0.0
N125 N 0.04476 0.63747 0.99565 0.0
C126 C 0.03694 0.62134 0.00528 0.0
C127 C 0.03929 0.60755 0.99725 0.0
C128 C 0.04965 0.61049 0.97946 0.0
C129 C 0.05741 0.62713 0.96969 0.0
C130 C 0.05483 0.64045 0.97858 0.0
H131 H 0.02903 0.61903 0.01901 0.0
O132 O 0.99525 0.6337 0.9822 0.0
O133 O 0.02337 0.65235 0.98813 0.0
O134 O 0.00364 0.64192 0.0261 0.0
O135 O 0.03195 0.64805 0.02965 0.0
C136 C 0.06744 0.63096 0.95138 0.0
C137 C 0.07457 0.64793 0.94219 0.0
H138 H 0.08553 0.68181 0.92854 0.0
H139 H 0.07878 0.70336 0.946 0.0
H140 H 0.03316 0.5947 0.00479 0.0
H141 H 0.05155 0.59987 0.97341 0.0
H142 H 0.06957 0.62088 0.94409 0.0
H143 H 0.08205 0.65064 0.92795 0.0
Mn144 Mn 0.34289 0.35167 0.01772 0.0
Mn145 Mn 0.38097 0.35023 0.01556 0.0
C146 C 0.36517 0.36745 0.04162 0.0
C147 C 0.31386 0.34063 0.02832 0.0
C148 C 0.37238 0.37253 0.98639 0.0
O149 O 0.33625 0.33001 0.99958 0.0
O150 O 0.36209 0.32985 0.99963 0.0
C151 C 0.36964 0.31736 0.04008 0.0
N152 N 0.381 0.33501 0.03721 0.0
C153 C 0.39781 0.33629 0.06781 0.0
C154 C 0.38636 0.3181 0.07103 0.0
C155 C 0.3722 0.30861 0.05712 0.0
C156 C 0.39463 0.34428 0.05053 0.0
H157 H 0.3587 0.31002 0.02948 0.0
C158 C 0.34581 0.32329 0.99424 0.0
O159 O 0.31985 0.3503 0.01172 0.0
O160 O 0.32465 0.33703 0.03863 0.0
N161 N 0.40037 0.36895 0.0304 0.0
C162 C 0.40992 0.3865 0.0254 0.0
C163 C 0.42453 0.39788 0.03782 0.0
C164 C 0.42919 0.3911 0.05521 0.0
C165 C 0.41926 0.37297 0.05994 0.0
C166 C 0.405 0.36222 0.04681 0.0
H167 H 0.40642 0.39179 0.01204 0.0
O168 O 0.35322 0.37196 0.03776 0.0
O169 O 0.36366 0.35373 0.03148 0.0
O170 O 0.35735 0.36808 0.99416 0.0
O171 O 0.38237 0.36657 0.99302 0.0
C172 C 0.42285 0.36518 0.07728 0.0
C173 C 0.4121 0.34686 0.08125 0.0
H174 H 0.38824 0.31132 0.08419 0.0
H175 H 0.36325 0.29459 0.05954 0.0
H176 H 0.43216 0.41185 0.03403 0.0
H177 H 0.44039 0.39994 0.06485 0.0
H178 H 0.43373 0.37318 0.08777 0.0
H179 H 0.41487 0.34105 0.09475 0.0
Mn180 Mn 0.65712 0.00897 0.00823 0.0
Mn181 Mn 0.61887 0.96999 0.01159 0.0
C182 C 0.63487 0.00204 0.98393 0.0
C183 C 0.68613 0.02661 0.99718 0.0
C184 C 0.62797 0.00148 0.03971 0.0
O185 O 0.6638 0.99416 0.0271 0.0
O186 O 0.63795 0.96839 0.02713 0.0
C187 C 0.62882 0.94697 0.98779 0.0
N188 N 0.61782 0.95381 0.99066 0.0
C189 C 0.59918 0.93667 0.96201 0.0
C190 C 0.61026 0.92938 0.95882 0.0
C191 C 0.62516 0.93459 0.97174 0.0
C192 C 0.60343 0.94888 0.97833 0.0
H193 H 0.64028 0.95093 0.99769 0.0
C194 C 0.65426 0.97792 0.03241 0.0
O195 O 0.68015 0.03059 0.01357 0.0
O196 O 0.67538 0.012 0.98745 0.0
N197 N 0.59933 0.96956 0.99707 0.0
C198 C 0.59071 0.97875 1.00132 0.0
C199 C 0.57582 0.97556 0.98936 0.0
C200 C 0.56991 0.96293 0.97321 0.0
C201 C 0.57892 0.95353 0.96923 0.0
C202 C 0.59358 0.95717 0.9818 0.0
H203 H 0.59518 0.98848 0.01371 0.0
O204 O 0.64671 0.01848 0.98739 0.0
O205 O 0.63629 0.9901 0.99491 0.0
O206 O 0.64284 0.01182 0.03152 0.0
O207 O 0.61809 0.98549 0.03366 0.0
C208 C 0.57416 0.94101 0.953 0.0
C209 C 0.58429 0.93259 0.94938 0.0
H210 H 0.60754 0.9199 0.94638 0.0
H211 H 0.63381 0.92907 0.96931 0.0
H212 H 0.56893 0.98285 0.99255 0.0
H213 H 0.55854 0.96065 0.96385 0.0
H214 H 0.56293 0.93798 0.94297 0.0
H215 H 0.58068 0.9232 0.93664 0.0
Mn216 Mn 0.66132 0.68055 0.33611 0.0
Mn217 Mn 0.69785 0.72078 0.34118 0.0
C218 C 0.66373 0.70426 0.31686 0.0
C219 C 0.64694 0.65255 0.32063 0.0
C220 C 0.66826 0.70545 0.37292 0.0
O221 O 0.67871 0.67501 0.35133 0.0
O222 O 0.70333 0.70189 0.3498 0.0
C223 C 0.72009 0.71736 0.30887 0.0
N224 N 0.71203 0.72612 0.31682 0.0
C225 C 0.72491 0.74887 0.29069 0.0
C226 C 0.73343 0.74015 0.28228 0.0
C227 C 0.7309 0.72425 0.29133 0.0
C228 C 0.71401 0.74117 0.30791 0.0
H229 H 0.71831 0.70525 0.31591 0.0
C230 C 0.69522 0.6853 0.35417 0.0
O231 O 0.64198 0.65545 0.33854 0.0
O232 O 0.66046 0.66577 0.31198 0.0
N233 N 0.69467 0.74041 0.33326 0.0
C234 C 0.6858 0.7474 0.34347 0.0
C235 C 0.6866 0.76309 0.33606 0.0
C236 C 0.69687 0.77167 0.31856 0.0
C237 C 0.70636 0.76457 0.30873 0.0
C238 C 0.70488 0.74878 0.31666 0.0
H239 H 0.67808 0.74104 0.35711 0.0
O240 O 0.64846 0.69022 0.3195 0.0
O241 O 0.67727 0.70378 0.32491 0.0
O242 O 0.65785 0.69143 0.36273 0.0
O243 O 0.68376 0.71667 0.36673 0.0
C244 C 0.71748 0.7727 0.29161 0.0
C245 C 0.72685 0.76492 0.28269 0.0
H246 H 0.74192 0.74552 0.26887 0.0
H247 H 0.73739 0.71741 0.2849 0.0
H248 H 0.6794 0.7686 0.34389 0.0
H249 H 0.69753 0.78382 0.31295 0.0
H250 H 0.71895 0.78495 0.28519 0.0
H251 H 0.73531 0.77126 0.26948 0.0
Mn252 Mn 0.32153 0.98749 0.35429 0.0
Mn253 Mn 0.31536 0.94591 0.3596 0.0
C254 C 0.30255 0.9685 0.37946 0.0
C255 C 0.33593 0.0178 0.36225 0.0
C256 C 0.29772 0.95598 0.32565 0.0
O257 O 0.34265 0.98921 0.33841 0.0
O258 O 0.33637 0.96082 0.34241 0.0
C259 C 0.34731 0.95587 0.38544 0.0
N260 N 0.32947 0.94606 0.3827 0.0
C261 C 0.32609 0.9317 0.41584 0.0
C262 C 0.34443 0.94158 0.41898 0.0
C263 C 0.35508 0.95375 0.40373 0.0
C264 C 0.3191 0.93443 0.39735 0.0
H265 H 0.35552 0.96527 0.37378 0.0
C266 C 0.34576 0.97645 0.33496 0.0
O267 O 0.32704 0.01166 0.34502 0.0
O268 O 0.33716 0.00644 0.37444 0.0
N269 N 0.29554 0.92977 0.37575 0.0
C270 C 0.27813 0.92111 0.37014 0.0
C271 C 0.26575 0.90809 0.38338 0.0
C272 C 0.27134 0.90421 0.40234 0.0
C273 C 0.28936 0.91309 0.40761 0.0
C274 C 0.30115 0.9256 0.39351 0.0
H275 H 0.27375 0.92399 0.35559 0.0
O276 O 0.30083 0.9817 0.37262 0.0
O277 O 0.31532 0.96679 0.37145 0.0
O278 O 0.30506 0.97241 0.33053 0.0
O279 O 0.30012 0.94461 0.33584 0.0
C280 C 0.2961 0.90999 0.42626 0.0
C281 C 0.31444 0.91936 0.43042 0.0
H282 H 0.35048 0.93998 0.43306 0.0
H283 H 0.36924 0.96147 0.40607 0.0
H284 H 0.25192 0.90104 0.37894 0.0
H285 H 0.26171 0.89431 0.41264 0.0
H286 H 0.28728 0.90051 0.43754 0.0
H287 H 0.31946 0.91698 0.44488 0.0
Mn288 Mn 0.00681 0.32991 0.34892 0.0
Mn289 Mn 0.0449 0.36904 0.34526 0.0
C290 C 0.02932 0.33687 0.37291 0.0
C291 C 0.9778 0.31242 0.36005 0.0
C292 C 0.03589 0.33751 0.31727 0.0
O293 O 0.99999 0.34454 0.32993 0.0
O294 O 0.02568 0.37042 0.32968 0.0
C295 C 0.03461 0.3917 0.36923 0.0
N296 N 0.04582 0.38514 0.36621 0.0
C297 C 0.0645 0.40248 0.39473 0.0
C298 C 0.0532 0.4095 0.39808 0.0
C299 C 0.03818 0.40405 0.38531 0.0
C300 C 0.0603 0.39028 0.37842 0.0
H301 H 0.02306 0.38754 0.35944 0.0
C302 C 0.00942 0.36072 0.32434 0.0
O303 O 0.98367 0.30832 0.34368 0.0
O304 O 0.98866 0.32695 0.36984 0.0
N305 N 0.06467 0.36982 0.35958 0.0
C306 C 0.07361 0.361 0.35505 0.0
C307 C 0.08874 0.36456 0.36674 0.0
C308 C 0.09456 0.37717 0.3829 0.0
C309 C 0.08526 0.38623 0.38712 0.0
C310 C 0.07037 0.38226 0.3748 0.0
H311 H 0.06923 0.3513 0.34263 0.0
O312 O 0.01735 0.32044 0.36964 0.0
O313 O 0.02777 0.34882 0.36209 0.0
O314 O 0.02106 0.32708 0.32552 0.0
O315 O 0.0457 0.35353 0.32325 0.0
C316 C 0.08995 0.39875 0.40334 0.0
C317 C 0.07955 0.40685 0.40717 0.0
H318 H 0.05586 0.41897 0.41052 0.0
H319 H 0.02936 0.40936 0.38785 0.0
H320 H 0.0959 0.35758 0.36329 0.0
H321 H 0.10611 0.37971 0.39206 0.0
H322 H 0.10134 0.40203 0.4132 0.0
H323 H 0.08313 0.41625 0.41989 0.0
Mn324 Mn 0.66407 0.97803 0.3302 0.0
Mn325 Mn 0.70093 0.975 0.33902 0.0
C326 C 0.66841 0.95773 0.31155 0.0
C327 C 0.64988 0.99169 0.31393 0.0
C328 C 0.66902 0.95819 0.36714 0.0
O329 O 0.67986 1.00056 0.3465 0.0
O330 O 0.70421 0.99787 0.35042 0.0
C331 C 0.7249 0.00413 0.31117 0.0
N332 N 0.71716 0.98675 0.31695 0.0
C333 C 0.73368 0.98068 0.29155 0.0
C334 C 0.74188 0.99853 0.28535 0.0
C335 C 0.73737 0.01028 0.29511 0.0
C336 C 0.72106 0.97524 0.30732 0.0
H337 H 0.72162 0.01324 0.31882 0.0
C338 C 0.69565 0.00627 0.35292 0.0
O339 O 0.64405 0.98302 0.33123 0.0
O340 O 0.66398 0.99253 0.30609 0.0
N341 N 0.70018 0.95378 0.32912 0.0
C342 C 0.69142 0.9371 0.33732 0.0
C343 C 0.69421 0.92366 0.32904 0.0
C344 C 0.70643 0.92765 0.31295 0.0
C345 C 0.7158 0.94507 0.30534 0.0
C346 C 0.71218 0.95782 0.31388 0.0
H347 H 0.68228 0.93403 0.34998 0.0
O348 O 0.65283 0.95619 0.31285 0.0
O349 O 0.68135 0.97167 0.32049 0.0
O350 O 0.65946 0.96295 0.35667 0.0
O351 O 0.68474 0.96225 0.36204 0.0
C352 C 0.72883 0.95036 0.28989 0.0
C353 C 0.73767 0.96812 0.28289 0.0
H354 H 0.75167 0.00337 0.27314 0.0
H355 H 0.74363 0.02407 0.2904 0.0
H356 H 0.68709 0.9103 0.33519 0.0
H357 H 0.70868 0.91729 0.30674 0.0
H358 H 0.73203 0.94083 0.28313 0.0
H359 H 0.74749 0.97196 0.27079 0.0
Mn360 Mn 0.01475 0.68573 0.34769 0.0
Mn361 Mn 0.0521 0.68288 0.35007 0.0
C362 C 0.03818 0.70573 0.36774 0.0
C363 C 0.98623 0.67757 0.35856 0.0
C364 C 0.04458 0.70148 0.31515 0.0
O365 O 0.00668 0.6613 0.33567 0.0
O366 O 0.03276 0.66192 0.33522 0.0
C367 C 0.03741 0.65206 0.3787 0.0
N368 N 0.05002 0.66903 0.37426 0.0
C369 C 0.06595 0.671 0.4059 0.0
C370 C 0.05317 0.65353 0.41079 0.0
C371 C 0.03878 0.64406 0.39717 0.0
C372 C 0.06368 0.67841 0.38749 0.0
H373 H 0.02641 0.64464 0.36821 0.0
C374 C 0.01623 0.65451 0.33085 0.0
O375 O 0.99169 0.68388 0.34006 0.0
O376 O 0.99724 0.67561 0.37062 0.0
N377 N 0.07231 0.70162 0.36382 0.0
C378 C 0.08417 0.71787 0.35616 0.0
C379 C 0.09937 0.72904 0.36789 0.0
C380 C 0.10262 0.72309 0.38694 0.0
C381 C 0.09072 0.70596 0.39398 0.0
C382 C 0.07559 0.69559 0.38186 0.0
H383 H 0.08192 0.72237 0.34136 0.0
O384 O 0.02593 0.70918 0.36163 0.0
O385 O 0.03605 0.69012 0.36278 0.0
O386 O 0.02894 0.69711 0.32108 0.0
O387 O 0.05501 0.69764 0.32529 0.0
C388 C 0.09349 0.69862 0.41231 0.0
C389 C 0.081 0.68124 0.41841 0.0
H390 H 0.0543 0.64724 0.42489 0.0
H391 H 0.02885 0.63057 0.40082 0.0
H392 H 0.10863 0.74213 0.36216 0.0
H393 H 0.11443 0.73167 0.39585 0.0
H394 H 0.10515 0.70627 0.4219 0.0
H395 H 0.0832 0.67582 0.43265 0.0
Mn396 Mn 0.31861 0.33014 0.33461 0.0
Mn397 Mn 0.27693 0.29531 0.33568 0.0
C398 C 0.29877 0.32612 0.30791 0.0
C399 C 0.34825 0.34332 0.32511 0.0
C400 C 0.28935 0.32816 0.36262 0.0
O401 O 0.32065 0.31358 0.35609 0.0
O402 O 0.2927 0.29074 0.35388 0.0
C403 C 0.28333 0.26844 0.315 0.0
N404 N 0.27435 0.27763 0.31601 0.0
C405 C 0.25587 0.26146 0.28681 0.0
C406 C 0.26487 0.25176 0.2855 0.0
C407 C 0.2787 0.25532 0.29961 0.0
C408 C 0.26109 0.27438 0.30245 0.0
H409 H 0.29392 0.27113 0.32587 0.0
C410 C 0.30844 0.29809 0.36135 0.0
O411 O 0.34312 0.34957 0.34027 0.0
O412 O 0.33631 0.32884 0.3162 0.0
N413 N 0.26004 0.29782 0.31884 0.0
C414 C 0.25314 0.30879 0.32181 0.0
C415 C 0.23924 0.30706 0.30894 0.0
C416 C 0.23261 0.29413 0.2931 0.0
C417 C 0.23975 0.28283 0.29053 0.0
C418 C 0.25339 0.28497 0.30409 0.0
H419 H 0.25812 0.31869 0.33403 0.0
O420 O 0.31231 0.34165 0.31144 0.0
O421 O 0.29717 0.31336 0.32007 0.0
O422 O 0.30504 0.33668 0.35559 0.0
O423 O 0.27797 0.31267 0.35628 0.0
C424 C 0.23402 0.26965 0.27492 0.0
C425 C 0.24212 0.25902 0.27302 0.0
H426 H 0.26136 0.24165 0.27363 0.0
H427 H 0.28574 0.24793 0.29865 0.0
H428 H 0.23362 0.31565 0.31128 0.0
H429 H 0.22203 0.293 0.28301 0.0
H430 H 0.22357 0.26775 0.26413 0.0
H431 H 0.23779 0.24911 0.26076 0.0
Mn432 Mn 0.33264 0.01604 0.6706 0.0
Mn433 Mn 0.37107 0.05404 0.67933 0.0
C434 C 0.33936 0.04084 0.65077 0.0
C435 C 0.31707 0.98822 0.65486 0.0
C436 C 0.33874 0.0419 0.70641 0.0
O437 O 0.34665 0.00788 0.68859 0.0
O438 O 0.37235 0.03349 0.69141 0.0
C439 C 0.39384 0.04605 0.65256 0.0
N440 N 0.38718 0.05687 0.65769 0.0
C441 C 0.40488 0.07827 0.63179 0.0
C442 C 0.41197 0.06738 0.62624 0.0
C443 C 0.40634 0.05115 0.63658 0.0
C444 C 0.39217 0.07229 0.64748 0.0
H445 H 0.38969 0.03366 0.66064 0.0
C446 C 0.36263 0.01684 0.69488 0.0
O447 O 0.31141 0.99199 0.6717 0.0
O448 O 0.3319 1.0005 0.64734 0.0
N449 N 0.37226 0.07532 0.66876 0.0
C450 C 0.36497 0.08479 0.67683 0.0
C451 C 0.36923 0.10136 0.66822 0.0
C452 C 0.3814 0.10831 0.65189 0.0
C453 C 0.38938 0.09872 0.64451 0.0
C454 C 0.3844 0.08214 0.65348 0.0
H455 H 0.35586 0.0797 0.68966 0.0
O456 O 0.32326 0.02782 0.65175 0.0
O457 O 0.35132 0.03871 0.66072 0.0
O458 O 0.32855 0.0279 0.69599 0.0
O459 O 0.35493 0.05225 0.70183 0.0
C460 C 0.40241 0.10517 0.629 0.0
C461 C 0.4101 0.09491 0.62256 0.0
H462 H 0.42178 0.07138 0.6141 0.0
H463 H 0.41174 0.04267 0.63239 0.0
H464 H 0.36324 0.10882 0.67427 0.0
H465 H 0.38476 0.12116 0.64539 0.0
H466 H 0.40658 0.11797 0.62184 0.0
H467 H 0.42 0.09995 0.61048 0.0
Mn468 Mn 0.98405 0.31804 0.67958 0.0
Mn469 Mn 0.9871 0.2805 0.67869 0.0
C470 C 0.96812 0.29549 0.70301 0.0
C471 C 0.99383 0.34722 0.69023 0.0
C472 C 0.96541 0.28809 0.64742 0.0
O473 O 0.0064 0.32545 0.66304 0.0
O474 O 0.00752 0.29995 0.66376 0.0
C475 C 0.01912 0.29291 0.70518 0.0
N476 N 0.00184 0.28096 0.70124 0.0
C477 C 1.00052 0.26355 0.7312 0.0
C478 C 0.01834 0.27562 0.73552 0.0
C479 C 0.02766 0.29038 0.72248 0.0
C480 C 0.99274 0.26672 0.7137 0.0
H481 H 0.02633 0.30428 0.69521 0.0
C482 C 0.01375 0.31626 0.65845 0.0
O483 O 0.98486 0.34092 0.6731 0.0
O484 O 0.99736 0.33665 0.70115 0.0
N485 N 0.96846 0.26057 0.6926 0.0
C486 C 0.95111 0.25079 0.68697 0.0
C487 C 0.93984 0.23572 0.69863 0.0
C488 C 0.94651 0.23088 0.71598 0.0
C489 C 0.96443 0.24109 0.7214 0.0
C490 C 0.97509 0.25583 0.709 0.0
H491 H 0.94588 0.25452 0.67378 0.0
O492 O 0.96315 0.307 0.69833 0.0
O493 O 0.98229 0.29748 0.69384 0.0
O494 O 0.96906 0.30319 0.65484 0.0
O495 O 0.97133 0.2784 0.65518 0.0
C496 C 0.97207 0.23744 0.73886 0.0
C497 C 0.9901 0.24868 0.74378 0.0
H498 H 0.02496 0.27377 0.74889 0.0
H499 H 0.0414 0.2998 0.72576 0.0
H500 H 0.92604 0.22789 0.69428 0.0
H501 H 0.93771 0.21938 0.72511 0.0
H502 H 0.96414 0.22618 0.74879 0.0
H503 H 0.99576 0.24589 0.75742 0.0
Mn504 Mn 0.68053 0.66237 0.68548 0.0
Mn505 Mn 0.71649 0.70324 0.68279 0.0
C506 C 0.70318 0.67082 0.7096 0.0
C507 C 0.65206 0.64206 0.69608 0.0
C508 C 0.71021 0.67314 0.65373 0.0
O509 O 0.67196 0.67588 0.66709 0.0
O510 O 0.69636 0.70295 0.6673 0.0
C511 C 0.70333 0.72324 0.70733 0.0
N512 N 0.71562 0.71806 0.70427 0.0
C513 C 0.73269 0.73501 0.73394 0.0
C514 C 0.72026 0.7406 0.73734 0.0
C515 C 0.7055 0.73466 0.724 0.0
C516 C 0.72988 0.7237 0.717 0.0
H517 H 0.69195 0.71867 0.69714 0.0
C518 C 0.68029 0.69226 0.66192 0.0
O519 O 0.65902 0.63952 0.67959 0.0
O520 O 0.6614 0.65689 0.70619 0.0
N521 N 0.73683 0.70547 0.69727 0.0
C522 C 0.74702 0.69801 0.69256 0.0
C523 C 0.76208 0.70221 0.70475 0.0
C524 C 0.76653 0.71406 0.7216 0.0
C525 C 0.75592 0.72165 0.72605 0.0
C526 C 0.74117 0.71711 0.71322 0.0
H527 H 0.74365 0.68888 0.67965 0.0
O528 O 0.69246 0.65412 0.70581 0.0
O529 O 0.70037 0.68214 0.69915 0.0
O530 O 0.69579 0.66177 0.66199 0.0
O531 O 0.71909 0.68917 0.66014 0.0
C532 C 0.75919 0.73327 0.74296 0.0
C533 C 0.74757 0.73993 0.74691 0.0
H534 H 0.72183 0.74933 0.75025 0.0
H535 H 0.69581 0.73886 0.72658 0.0
H536 H 0.7702 0.69628 0.70122 0.0
H537 H 0.77806 0.71712 0.7311 0.0
H538 H 0.77045 0.73696 0.7532 0.0
H539 H 0.75008 0.74865 0.76014 0.0
Mn540 Mn 0.33428 0.32221 0.66377 0.0
Mn541 Mn 0.37367 0.32404 0.67203 0.0
C542 C 0.34365 0.30796 0.64089 0.0
C543 C 0.31675 0.33376 0.65117 0.0
C544 C 0.3408 0.30025 0.69658 0.0
O545 O 0.34688 0.3428 0.6843 0.0
O546 O 0.37335 0.34408 0.68678 0.0
C547 C 0.39675 0.35732 0.64941 0.0
N548 N 0.39061 0.33964 0.6524 0.0
C549 C 0.40988 0.33911 0.62606 0.0
C550 C 0.41648 0.35734 0.62277 0.0
C551 C 0.40985 0.36647 0.63446 0.0
C552 C 0.39687 0.33072 0.64121 0.0
H553 H 0.39169 0.36438 0.65838 0.0
C554 C 0.36278 0.34994 0.69112 0.0
O555 O 0.31203 0.323 0.66688 0.0
O556 O 0.33187 0.33808 0.6427 0.0
N557 N 0.37604 0.30557 0.65867 0.0
C558 C 0.36764 0.28786 0.66303 0.0
C559 C 0.37248 0.27674 0.65241 0.0
C560 C 0.3859 0.28393 0.63745 0.0
C561 C 0.39449 0.30223 0.6334 0.0
C562 C 0.38925 0.31269 0.64467 0.0
H563 H 0.35734 0.28224 0.67453 0.0
O564 O 0.32701 0.30327 0.64211 0.0
O565 O 0.35442 0.32106 0.65289 0.0
O566 O 0.33052 0.30423 0.68657 0.0
O567 O 0.3573 0.3073 0.69296 0.0
C568 C 0.40781 0.31045 0.61836 0.0
C569 C 0.41547 0.32887 0.61466 0.0
H570 H 0.42653 0.36443 0.6112 0.0
H571 H 0.41483 0.38052 0.63196 0.0
H572 H 0.36587 0.26266 0.65576 0.0
H573 H 0.38943 0.27527 0.6291 0.0
H574 H 0.41207 0.30269 0.60932 0.0
H575 H 0.42552 0.335 0.60284 0.0
Mn576 Mn 0.67622 0.01477 0.68401 0.0
Mn577 Mn 0.71319 0.01112 0.68246 0.0
C578 C 0.69891 0.0304 0.70759 0.0
C579 C 0.64746 0.00524 0.69516 0.0
C580 C 0.70563 0.03334 0.65186 0.0
O581 O 0.6685 0.99239 0.66667 0.0
O582 O 0.69349 0.99057 0.66773 0.0
C583 C 0.70128 0.97919 0.70888 0.0
N584 N 0.7131 0.99652 0.70491 0.0
C585 C 0.73082 0.99818 0.73478 0.0
C586 C 0.71888 0.98031 0.73912 0.0
C587 C 0.70403 0.97079 0.72614 0.0
C588 C 0.72743 0.00581 0.71731 0.0
H589 H 0.68983 0.97184 0.69896 0.0
C590 C 0.67734 0.98466 0.66214 0.0
O591 O 0.65348 0.01429 0.67814 0.0
O592 O 0.65798 0.00129 0.70548 0.0
N593 N 0.73331 0.02998 0.69616 0.0
C594 C 0.74301 0.04735 0.69043 0.0
C595 C 0.75811 0.05882 0.7021 0.0
C596 C 0.76311 0.05233 0.71946 0.0
C597 C 0.75302 0.03436 0.72493 0.0
C598 C 0.73821 0.02351 0.71258 0.0
H599 H 0.73924 0.05242 0.6771 0.0
O600 O 0.68749 0.03555 0.70335 0.0
O601 O 0.69669 0.01619 0.69795 0.0
O602 O 0.69097 0.03022 0.65976 0.0
O603 O 0.71487 0.02669 0.65897 0.0
C604 C 0.75687 0.02688 0.74237 0.0
C605 C 0.74576 0.00881 0.74731 0.0
H606 H 0.7209 0.9738 0.75248 0.0
H607 H 0.69471 0.95701 0.72945 0.0
H608 H 0.76586 0.07266 0.69773 0.0
H609 H 0.77466 0.06127 0.72856 0.0
H610 H 0.76819 0.03497 0.75227 0.0
H611 H 0.74871 0.00327 0.76093 0.0
Mn612 Mn 0.98608 0.67654 0.6722 0.0
Mn613 Mn 0.94743 0.63866 0.67912 0.0
C614 C 0.96299 0.66885 0.64888 0.0
C615 C 0.01441 0.69129 0.65822 0.0
C616 C 0.95874 0.67216 0.70476 0.0
O617 O 0.99274 0.66261 0.69259 0.0
O618 O 0.96675 0.63704 0.69395 0.0
C619 C 0.95506 0.6135 0.65631 0.0
N620 N 0.94478 0.62116 0.65911 0.0
C621 C 0.92488 0.60347 0.63163 0.0
C622 C 0.93521 0.59533 0.62852 0.0
C623 C 0.95038 0.60039 0.6409 0.0
C624 C 0.93013 0.61637 0.64732 0.0
H625 H 0.96675 0.61737 0.66576 0.0
C626 C 0.98318 0.64657 0.69868 0.0
O627 O 0.01017 0.69789 0.67388 0.0
O628 O 0.00242 0.67598 0.65115 0.0
N629 N 0.92768 0.63839 0.66531 0.0
C630 C 0.91981 0.64834 0.66939 0.0
C631 C 0.90474 0.64532 0.65792 0.0
C632 C 0.89788 0.63208 0.64245 0.0
C633 C 0.90615 0.62196 0.6386 0.0
C634 C 0.92103 0.62545 0.65067 0.0
H635 H 0.92502 0.65854 0.68126 0.0
O636 O 0.97554 0.68522 0.65049 0.0
O637 O 0.96436 0.65745 0.66092 0.0
O638 O 0.97321 0.682 0.69531 0.0
O639 O 0.94858 0.65581 0.70019 0.0
C640 C 0.90043 0.6088 0.62298 0.0
C641 C 0.90979 0.59957 0.61949 0.0
H642 H 0.93171 0.58529 0.61656 0.0
H643 H 0.95846 0.59422 0.63853 0.0
H644 H 0.89846 0.65322 0.66094 0.0
H645 H 0.88634 0.62988 0.63351 0.0
H646 H 0.889 0.60586 0.61335 0.0
H647 H 0.90542 0.58967 0.60723 0.0
C648 C 0.21216 0.32848 0.12248 0.0
C649 C 0.20761 0.31759 0.10468 0.0
C650 C 0.19908 0.3269 0.13624 0.0
C651 C 0.1813 0.31409 0.13271 0.0
C652 C 0.1898 0.305 0.10103 0.0
C653 C 0.17678 0.30329 0.11489 0.0
C654 C 0.16713 0.31237 0.14672 0.0
C655 C 0.20452 0.30127 0.18406 0.0
C656 C 0.21085 0.31112 0.20268 0.0
C657 C 0.19009 0.30053 0.17333 0.0
C658 C 0.18219 0.31035 0.18033 0.0
C659 C 0.20217 0.32007 0.21025 0.0
C660 C 0.18817 0.31981 0.19913 0.0
C661 C 0.16753 0.31075 0.16866 0.0
C662 C 0.10599 0.29827 0.21306 0.0
C663 C 0.10199 0.31216 0.21194 0.0
C664 C 0.11842 0.29793 0.19968 0.0
C665 C 0.12683 0.31128 0.18471 0.0
C666 C 0.11064 0.32568 0.19714 0.0
C667 C 0.12295 0.32525 0.18364 0.0
C668 C 0.14013 0.31088 0.17088 0.0
C669 C 0.11646 0.3263 0.10964 0.0
C670 C 0.0985 0.31491 0.11398 0.0
C671 C 0.12962 0.32531 0.12119 0.0
C672 C 0.12519 0.31293 0.13736 0.0
C673 C 0.09404 0.30229 0.12998 0.0
C674 C 0.10726 0.30121 0.14146 0.0
C675 C 0.13953 0.31201 0.14897 0.0
H676 H 0.22576 0.3385 0.12547 0.0
H677 H 0.20282 0.33577 0.14954 0.0
H678 H 0.18594 0.29639 0.08748 0.0
H679 H 0.16314 0.29345 0.11173 0.0
H680 H 0.21075 0.29421 0.17754 0.0
H681 H 0.18527 0.29238 0.15944 0.0
H682 H 0.20602 0.32722 0.22489 0.0
H683 H 0.18209 0.32719 0.20521 0.0
H684 H 0.09973 0.28782 0.22451 0.0
H685 H 0.12138 0.28716 0.20092 0.0
H686 H 0.10779 0.33653 0.1959 0.0
H687 H 0.12955 0.33588 0.17247 0.0
H688 H 0.1204 0.33589 0.09711 0.0
H689 H 0.14333 0.33432 0.1175 0.0
H690 H 0.08034 0.29332 0.13375 0.0
H691 H 0.10344 0.29114 0.1534 0.0
N692 N 0.1531 0.31278 0.13783 0.0
N693 N 0.15401 0.31016 0.17983 0.0
C694 C 0.67204 0.87724 0.09659 0.0
C695 C 0.68411 0.8948 0.10266 0.0
C696 C 0.67175 0.86283 0.10687 0.0
C697 C 0.68347 0.86564 0.12345 0.0
C698 C 0.69636 0.89755 0.11869 0.0
C699 C 0.69611 0.88311 0.12888 0.0
C700 C 0.68191 0.85025 0.13533 0.0
C701 C 0.6904 0.88535 0.196 0.0
C702 C 0.67353 0.88263 0.2009 0.0
C703 C 0.69234 0.87485 0.18082 0.0
C704 C 0.67754 0.86194 0.16986 0.0
C705 C 0.65879 0.86999 0.18957 0.0
C706 C 0.6608 0.85979 0.17407 0.0
C707 C 0.67899 0.84862 0.15698 0.0
C708 C 0.68275 0.78773 0.18977 0.0
C709 C 0.66677 0.77963 0.20085 0.0
C710 C 0.68536 0.79981 0.17373 0.0
C711 C 0.67202 0.80387 0.16864 0.0
C712 C 0.65301 0.78273 0.19444 0.0
C713 C 0.6557 0.79489 0.17868 0.0
C714 C 0.67584 0.81963 0.15613 0.0
C715 C 0.66535 0.7757 0.11088 0.0
C716 C 0.67809 0.78009 0.09531 0.0
C717 C 0.66553 0.78891 0.12363 0.0
C718 C 0.67875 0.80679 0.12148 0.0
C719 C 0.69111 0.79799 0.09288 0.0
C720 C 0.69143 0.81117 0.10582 0.0
C721 C 0.67892 0.82115 0.13443 0.0
H722 H 0.6627 0.87462 0.08397 0.0
H723 H 0.66202 0.84945 0.10224 0.0
H724 H 0.70584 0.91086 0.12378 0.0
H725 H 0.70573 0.88562 0.14109 0.0
H726 H 0.7019 0.89482 0.20479 0.0
H727 H 0.70529 0.87632 0.17822 0.0
H728 H 0.64564 0.86758 0.19323 0.0
H729 H 0.64918 0.84959 0.1661 0.0
H730 H 0.69363 0.78566 0.19438 0.0
H731 H 0.69814 0.80683 0.16631 0.0
H732 H 0.64041 0.7764 0.20232 0.0
H733 H 0.64527 0.79792 0.17497 0.0
H734 H 0.6549 0.76209 0.11281 0.0
H735 H 0.65499 0.78512 0.13473 0.0
H736 H 0.70113 0.80178 0.08104 0.0
H737 H 0.70165 0.82483 0.1036 0.0
N738 N 0.68176 0.83645 0.12485 0.0
N739 N 0.67597 0.83337 0.16645 0.0
C740 C 0.11668 0.78701 0.11726 0.0
C741 C 0.10799 0.79241 0.10282 0.0
C742 C 0.12926 0.79923 0.13109 0.0
C743 C 0.13328 0.8171 0.13099 0.0
C744 C 0.11197 0.81028 0.10281 0.0
C745 C 0.12455 0.82251 0.1167 0.0
C746 C 0.1476 0.83041 0.14448 0.0
C747 C 0.10597 0.79495 0.19049 0.0
C748 C 0.11074 0.78407 0.20211 0.0
C749 C 0.1184 0.80875 0.1782 0.0
C750 C 0.13589 0.81209 0.17745 0.0
C751 C 0.12825 0.78729 0.20087 0.0
C752 C 0.14073 0.8013 0.1889 0.0
C753 C 0.14942 0.82747 0.16581 0.0
C754 C 0.20661 0.89765 0.19639 0.0
C755 C 0.21675 0.8925 0.20885 0.0
C756 C 0.19383 0.88562 0.18254 0.0
C757 C 0.19083 0.86816 0.18094 0.0
C758 C 0.21383 0.87502 0.20692 0.0
C759 C 0.20086 0.86293 0.19329 0.0
C760 C 0.1764 0.855 0.16755 0.0
C761 C 0.21861 0.89097 0.12317 0.0
C762 C 0.21416 0.9022 0.11191 0.0
C763 C 0.2058 0.87675 0.13458 0.0
C764 C 0.18828 0.87341 0.13479 0.0
C765 C 0.19661 0.89886 0.11216 0.0
C766 C 0.18372 0.88443 0.12331 0.0
C767 C 0.17458 0.858 0.14627 0.0
H768 H 0.11425 0.77346 0.11736 0.0
H769 H 0.13626 0.7948 0.14137 0.0
H770 H 0.10543 0.81485 0.09197 0.0
H771 H 0.12756 0.83625 0.11619 0.0
H772 H 0.09277 0.79319 0.19131 0.0
H773 H 0.11447 0.81714 0.16976 0.0
H774 H 0.1324 0.77902 0.20918 0.0
H775 H 0.15419 0.80369 0.18851 0.0
H776 H 0.20816 0.91083 0.1977 0.0
H777 H 0.18594 0.88983 0.17352 0.0
H778 H 0.22155 0.87062 0.21593 0.0
H779 H 0.19868 0.84948 0.19233 0.0
H780 H 0.23206 0.89332 0.12331 0.0
H781 H 0.20954 0.86822 0.14305 0.0
H782 H 0.19283 0.90727 0.10349 0.0
H783 H 0.17023 0.88197 0.12313 0.0
N784 N 0.16023 0.84562 0.13554 0.0
N785 N 0.16378 0.83984 0.1765 0.0
C786 C 0.32355 0.1128 0.82957 0.0
C787 C 0.31029 0.10367 0.81445 0.0
C788 C 0.32313 0.12581 0.84208 0.0
C789 C 0.30942 0.12986 0.83978 0.0
C790 C 0.29652 0.10768 0.8123 0.0
C791 C 0.29617 0.12075 0.82474 0.0
C792 C 0.30943 0.14439 0.85193 0.0
C793 C 0.30078 0.10098 0.89633 0.0
C794 C 0.3139 0.10592 0.91189 0.0
C795 C 0.29967 0.11388 0.88424 0.0
C796 C 0.31188 0.13201 0.88711 0.0
C797 C 0.32567 0.12413 0.91526 0.0
C798 C 0.32464 0.13701 0.90303 0.0
C799 C 0.31133 0.14584 0.87386 0.0
C800 C 0.30197 0.20887 0.89355 0.0
C801 C 0.31559 0.21759 0.90839 0.0
C802 C 0.30077 0.1947 0.88185 0.0
C803 C 0.31343 0.18921 0.88422 0.0
C804 C 0.3281 0.21184 0.911 0.0
C805 C 0.32701 0.19779 0.89906 0.0
C806 C 0.31192 0.17377 0.87246 0.0
C807 C 0.3277 0.21115 0.8139 0.0
C808 C 0.31216 0.21094 0.80688 0.0
C809 C 0.32696 0.19908 0.82896 0.0
C810 C 0.3107 0.18637 0.83709 0.0
C811 C 0.29593 0.19842 0.81571 0.0
C812 C 0.29518 0.18599 0.83022 0.0
C813 C 0.30983 0.17216 0.8506 0.0
H814 H 0.3343 0.10997 0.83162 0.0
H815 H 0.33372 0.13294 0.85328 0.0
H816 H 0.28627 0.10107 0.80058 0.0
H817 H 0.28559 0.12383 0.82253 0.0
H818 H 0.29153 0.08712 0.8932 0.0
H819 H 0.28929 0.10965 0.87256 0.0
H820 H 0.33567 0.12848 0.92741 0.0
H821 H 0.33403 0.15091 0.90579 0.0
H822 H 0.29214 0.21292 0.89097 0.0
H823 H 0.28963 0.18776 0.87138 0.0
H824 H 0.33856 0.21792 0.92257 0.0
H825 H 0.33674 0.19357 0.9015 0.0
H826 H 0.34042 0.22016 0.80728 0.0
H827 H 0.33904 0.19924 0.8337 0.0
H828 H 0.28367 0.19797 0.81128 0.0
H829 H 0.28245 0.17597 0.83598 0.0
N830 N 0.30872 0.1576 0.84119 0.0
N831 N 0.31267 0.16057 0.88325 0.0
C832 C 0.90028 0.20355 0.89147 0.0
C833 C 0.89813 0.21638 0.90258 0.0
C834 C 0.88604 0.18975 0.88095 0.0
C835 C 0.86926 0.18829 0.8815 0.0
C836 C 0.88116 0.21467 0.90338 0.0
C837 C 0.86681 0.20063 0.89309 0.0
C838 C 0.8543 0.17365 0.87025 0.0
C839 C 0.88367 0.21382 0.82013 0.0
C840 C 0.89518 0.20963 0.80948 0.0
C841 C 0.87069 0.20128 0.83312 0.0
C842 C 0.86882 0.18428 0.83532 0.0
C843 C 0.89342 0.19267 0.81184 0.0
C844 C 0.88014 0.17997 0.82445 0.0
C845 C 0.85479 0.17098 0.84868 0.0
C846 C 0.78219 0.11492 0.82605 0.0
C847 C 0.7853 0.10271 0.81504 0.0
C848 C 0.79565 0.1282 0.83816 0.0
C849 C 0.81245 0.12964 0.83908 0.0
C850 C 0.80202 0.10399 0.81624 0.0
C851 C 0.81558 0.11753 0.82794 0.0
C852 C 0.82705 0.14435 0.85064 0.0
C853 C 0.79322 0.10468 0.8994 0.0
C854 C 0.78677 0.11145 0.91486 0.0
C855 C 0.80582 0.11612 0.88519 0.0
C856 C 0.81197 0.13452 0.88592 0.0
C857 C 0.79281 0.12982 0.91541 0.0
C858 C 0.8053 0.14121 0.90114 0.0
C859 C 0.82644 0.14709 0.87227 0.0
H860 H 0.91297 0.20406 0.89094 0.0
H861 H 0.8881 0.1801 0.87247 0.0
H862 H 0.87898 0.22436 0.91156 0.0
H863 H 0.85391 0.19964 0.89377 0.0
H864 H 0.88485 0.22685 0.81856 0.0
H865 H 0.86197 0.20478 0.8413 0.0
H866 H 0.90215 0.18918 0.80368 0.0
H867 H 0.87883 0.16689 0.82594 0.0
H868 H 0.76937 0.11414 0.82527 0.0
H869 H 0.79307 0.13758 0.84646 0.0
H870 H 0.80468 0.09476 0.80774 0.0
H871 H 0.82851 0.11854 0.82836 0.0
H872 H 0.789 0.09062 0.89878 0.0
H873 H 0.81118 0.11062 0.87414 0.0
H874 H 0.78793 0.13541 0.92696 0.0
H875 H 0.8099 0.15534 0.90213 0.0
N876 N 0.84013 0.16169 0.88125 0.0
N877 N 0.84121 0.1564 0.83964 0.0
C878 C 0.78606 0.68167 0.90684 0.0
C879 C 0.78188 0.6676 0.92084 0.0
C880 C 0.80117 0.6882 0.89437 0.0
C881 C 0.81219 0.68051 0.89529 0.0
C882 C 0.7935 0.66068 0.92247 0.0
C883 C 0.8083 0.66693 0.9098 0.0
C884 C 0.82821 0.68662 0.88215 0.0
C885 C 0.78532 0.67334 0.8323 0.0
C886 C 0.78701 0.68883 0.82299 0.0
C887 C 0.79873 0.67418 0.84532 0.0
C888 C 0.8141 0.6905 0.84897 0.0
C889 C 0.80228 0.70518 0.827 0.0
C890 C 0.81582 0.70596 0.83966 0.0
C891 C 0.82908 0.6913 0.86086 0.0
C892 C 0.89028 0.68481 0.83073 0.0
C893 C 0.89742 0.69841 0.81576 0.0
C894 C 0.87794 0.68402 0.84509 0.0
C895 C 0.87256 0.69693 0.845 0.0
C896 C 0.89221 0.71147 0.81584 0.0
C897 C 0.87979 0.71064 0.83021 0.0
C898 C 0.85819 0.69509 0.85889 0.0
C899 C 0.90385 0.70632 0.90087 0.0
C900 C 0.9016 0.69125 0.91193 0.0
C901 C 0.88956 0.70634 0.89074 0.0
C902 C 0.87265 0.69138 0.89164 0.0
C903 C 0.88449 0.67647 0.9133 0.0
C904 C 0.87014 0.67662 0.90341 0.0
C905 C 0.85761 0.6911 0.88031 0.0
H906 H 0.77753 0.68745 0.90525 0.0
H907 H 0.80421 0.69931 0.88419 0.0
H908 H 0.79119 0.65031 0.93355 0.0
H909 H 0.81665 0.66092 0.91127 0.0
H910 H 0.77366 0.66059 0.82944 0.0
H911 H 0.79731 0.66207 0.85213 0.0
H912 H 0.80395 0.71728 0.81984 0.0
H913 H 0.8277 0.71863 0.84209 0.0
H914 H 0.89408 0.6746 0.83118 0.0
H915 H 0.8722 0.67297 0.85585 0.0
H916 H 0.89729 0.72199 0.80435 0.0
H917 H 0.87565 0.72059 0.82961 0.0
H918 H 0.91669 0.71814 0.89993 0.0
H919 H 0.89172 0.71804 0.88216 0.0
H920 H 0.88222 0.66456 0.92146 0.0
H921 H 0.85715 0.66497 0.90439 0.0
N922 N 0.84262 0.68684 0.89099 0.0
N923 N 0.844 0.6953 0.85009 0.0
C924 C 0.77057 0.64945 0.45199 0.0
C925 C 0.77648 0.66237 0.43623 0.0
C926 C 0.78269 0.64845 0.46569 0.0
C927 C 0.80088 0.66065 0.46414 0.0
C928 C 0.79458 0.67472 0.43497 0.0
C929 C 0.80663 0.67387 0.44876 0.0
C930 C 0.81427 0.65874 0.47668 0.0
C931 C 0.7825 0.66797 0.52571 0.0
C932 C 0.77359 0.65367 0.53951 0.0
C933 C 0.79484 0.6681 0.51174 0.0
C934 C 0.79847 0.65396 0.51136 0.0
C935 C 0.77715 0.63947 0.53894 0.0
C936 C 0.78957 0.6397 0.52512 0.0
C937 C 0.81266 0.65467 0.49816 0.0
C938 C 0.88343 0.66778 0.52485 0.0
C939 C 0.87931 0.65243 0.53639 0.0
C940 C 0.8708 0.66821 0.51158 0.0
C941 C 0.85382 0.65337 0.50993 0.0
C942 C 0.86243 0.63746 0.53439 0.0
C943 C 0.84969 0.63802 0.52146 0.0
C944 C 0.83996 0.65431 0.49751 0.0
C945 C 0.87605 0.64976 0.45069 0.0
C946 C 0.88309 0.66334 0.4357 0.0
C947 C 0.86283 0.64828 0.46419 0.0
C948 C 0.85667 0.66059 0.46323 0.0
C949 C 0.87702 0.67569 0.43489 0.0
C950 C 0.86394 0.6743 0.44846 0.0
C951 C 0.84169 0.65854 0.47611 0.0
H952 H 0.75668 0.63968 0.45313 0.0
H953 H 0.77789 0.63773 0.4769 0.0
H954 H 0.79946 0.68493 0.42309 0.0
H955 H 0.82055 0.68339 0.44714 0.0
H956 H 0.77999 0.67906 0.52578 0.0
H957 H 0.80185 0.67947 0.50161 0.0
H958 H 0.77068 0.6284 0.54958 0.0
H959 H 0.79236 0.62877 0.5253 0.0
H960 H 0.89638 0.67947 0.52619 0.0
H961 H 0.87412 0.68027 0.50304 0.0
H962 H 0.85895 0.62554 0.5433 0.0
H963 H 0.83659 0.62652 0.52052 0.0
H964 H 0.8803 0.6399 0.45147 0.0
H965 H 0.85706 0.63717 0.47486 0.0
H966 H 0.88234 0.68643 0.42368 0.0
H967 H 0.85938 0.68391 0.4473 0.0
N968 N 0.82877 0.66058 0.46661 0.0
N969 N 0.82551 0.65249 0.50767 0.0
C970 C 0.33704 0.21939 0.46902 0.0
C971 C 0.34308 0.22657 0.44911 0.0
C972 C 0.34308 0.20892 0.47874 0.0
C973 C 0.35587 0.20595 0.46924 0.0
C974 C 0.35572 0.22336 0.43944 0.0
C975 C 0.36202 0.2131 0.44941 0.0
C976 C 0.36203 0.19456 0.47951 0.0
C977 C 0.37597 0.24159 0.52027 0.0
C978 C 0.36878 0.23751 0.54045 0.0
C979 C 0.37622 0.22851 0.5077 0.0
C980 C 0.3686 0.21082 0.5146 0.0
C981 C 0.36233 0.22004 0.54781 0.0
C982 C 0.36214 0.20688 0.53502 0.0
C983 C 0.367 0.19624 0.50081 0.0
C984 C 0.37668 0.1454 0.54251 0.0
C985 C 0.3619 0.12836 0.54127 0.0
C986 C 0.37925 0.15818 0.52754 0.0
C987 C 0.36705 0.15413 0.51111 0.0
C988 C 0.35021 0.12391 0.52429 0.0
C989 C 0.35271 0.13674 0.50934 0.0
C990 C 0.36747 0.16882 0.49873 0.0
C991 C 0.34839 0.13371 0.43366 0.0
C992 C 0.35998 0.12681 0.43554 0.0
C993 C 0.34963 0.14684 0.44734 0.0
C994 C 0.36247 0.15338 0.4633 0.0
C995 C 0.37281 0.13327 0.45154 0.0
C996 C 0.37417 0.14656 0.46515 0.0
C997 C 0.36391 0.16789 0.47707 0.0
H998 H 0.32751 0.22174 0.47713 0.0
H999 H 0.33765 0.20309 0.49372 0.0
H1000 H 0.36044 0.22839 0.42398 0.0
H1001 H 0.37166 0.2107 0.44161 0.0
H1002 H 0.38104 0.25479 0.51385 0.0
H1003 H 0.382 0.23218 0.49237 0.0
H1004 H 0.3573 0.2164 0.56346 0.0
H1005 H 0.35652 0.19347 0.541 0.0
H1006 H 0.38569 0.1491 0.55571 0.0
H1007 H 0.39025 0.17154 0.52943 0.0
H1008 H 0.33853 0.1109 0.52335 0.0
H1009 H 0.34274 0.13337 0.49729 0.0
H1010 H 0.33822 0.12887 0.42165 0.0
H1011 H 0.34045 0.15183 0.44546 0.0
H1012 H 0.38208 0.12837 0.45321 0.0
H1013 H 0.38459 0.15171 0.47683 0.0
N1014 N 0.36109 0.18071 0.46843 0.0
N1015 N 0.36921 0.18312 0.50954 0.0
C1016 C 0.7851 0.11136 0.44606 0.0
C1017 C 0.77159 0.11327 0.43603 0.0
C1018 C 0.79734 0.12466 0.45927 0.0
C1019 C 0.79671 0.14037 0.46232 0.0
C1020 C 0.77091 0.12903 0.43961 0.0
C1021 C 0.78357 0.14258 0.45222 0.0
C1022 C 0.81035 0.15484 0.47516 0.0
C1023 C 0.76783 0.12031 0.52039 0.0
C1024 C 0.77319 0.11408 0.53775 0.0
C1025 C 0.78028 0.13265 0.50675 0.0
C1026 C 0.79841 0.13869 0.50969 0.0
C1027 C 0.79133 0.11998 0.54054 0.0
C1028 C 0.80376 0.13212 0.52668 0.0
C1029 C 0.81194 0.15337 0.49691 0.0
C1030 C 0.86819 0.22478 0.52477 0.0
C1031 C 0.87985 0.22073 0.53587 0.0
C1032 C 0.85505 0.21213 0.51173 0.0
C1033 C 0.8531 0.19511 0.50978 0.0
C1034 C 0.87797 0.20367 0.53344 0.0
C1035 C 0.86456 0.19093 0.5208 0.0
C1036 C 0.83865 0.18132 0.49706 0.0
C1037 C 0.88023 0.21801 0.4521 0.0
C1038 C 0.87427 0.22536 0.43657 0.0
C1039 C 0.86819 0.20444 0.46496 0.0
C1040 C 0.84994 0.1982 0.46289 0.0
C1041 C 0.85603 0.21914 0.43451 0.0
C1042 C 0.84401 0.2057 0.44752 0.0
C1043 C 0.83685 0.18299 0.47539 0.0
H1044 H 0.78658 0.09981 0.44345 0.0
H1045 H 0.80762 0.12288 0.46669 0.0
H1046 H 0.76058 0.13101 0.4328 0.0
H1047 H 0.78291 0.15467 0.45441 0.0
H1048 H 0.75399 0.11596 0.51753 0.0
H1049 H 0.77567 0.138 0.49449 0.0
H1050 H 0.79606 0.11579 0.55388 0.0
H1051 H 0.81766 0.13674 0.52957 0.0
H1052 H 0.86888 0.23756 0.52647 0.0
H1053 H 0.84613 0.2155 0.50354 0.0
H1054 H 0.88687 0.20009 0.54122 0.0
H1055 H 0.86325 0.17784 0.51944 0.0
H1056 H 0.89417 0.22226 0.45376 0.0
H1057 H 0.87316 0.19843 0.476 0.0
H1058 H 0.85105 0.22459 0.42273 0.0
H1059 H 0.83001 0.20104 0.44545 0.0
N1060 N 0.82276 0.16962 0.46528 0.0
N1061 N 0.82615 0.16663 0.50694 0.0
C1062 C 0.97641 0.54584 0.15788 0.0
C1063 C 0.99155 0.55466 0.1455 0.0
C1064 C 0.97351 0.53093 0.16958 0.0
C1065 C 0.98558 0.52455 0.16874 0.0
C1066 C 0.00348 0.54816 0.14457 0.0
C1067 C 1.0004 0.53311 0.15589 0.0
C1068 C 0.983 0.50894 0.18097 0.0
C1069 C 0.99825 0.55403 0.22663 0.0
C1070 C 0.98547 0.55029 0.24202 0.0
C1071 C 0.99723 0.54049 0.21378 0.0
C1072 C 0.98332 0.52296 0.21595 0.0
C1073 C 0.9717 0.53269 0.24431 0.0
C1074 C 0.97071 0.51917 0.23149 0.0
C1075 C 0.98225 0.50831 0.20294 0.0
C1076 C 0.99119 0.45523 0.24359 0.0
C1077 C 0.97981 0.43728 0.23844 0.0
C1078 C 0.99106 0.46882 0.23189 0.0
C1079 C 0.97959 0.46485 0.21472 0.0
C1080 C 0.96796 0.43331 0.22157 0.0
C1081 C 0.96774 0.44695 0.20996 0.0
C1082 C 0.98014 0.47965 0.20231 0.0
C1083 C 0.96731 0.44537 0.13826 0.0
C1084 C 0.98011 0.44001 0.14051 0.0
C1085 C 0.96754 0.45837 0.15136 0.0
C1086 C 0.98036 0.46604 0.16718 0.0
C1087 C 0.99302 0.44778 0.15633 0.0
C1088 C 0.99314 0.46069 0.16956 0.0
C1089 C 0.98074 0.48027 0.18029 0.0
H1090 H 0.96708 0.5507 0.1588 0.0
H1091 H 0.96189 0.52438 0.17925 0.0
H1092 H 0.01521 0.55476 0.13507 0.0
H1093 H 0.00983 0.52836 0.15496 0.0
H1094 H 0.00899 0.56745 0.22441 0.0
H1095 H 0.00743 0.54369 0.20234 0.0
H1096 H 0.96182 0.52929 0.25623 0.0
H1097 H 0.96002 0.50571 0.23366 0.0
H1098 H 1.00018 0.45883 0.25677 0.0
H1099 H 1.00016 0.4825 0.23611 0.0
H1100 H 0.95902 0.41967 0.21709 0.0
H1101 H 0.95832 0.44346 0.19724 0.0
H1102 H 0.95738 0.43984 0.12602 0.0
H1103 H 0.95768 0.46246 0.14913 0.0
H1104 H 0.00303 0.44389 0.15844 0.0
H1105 H 0.00334 0.46666 0.18146 0.0
N1106 N 0.98219 0.4949 0.17052 0.0
N1107 N 0.98087 0.4937 0.21273 0.0
C1108 C 0.45522 0.43471 0.16843 0.0
C1109 C 0.44332 0.4381 0.15691 0.0
C1110 C 0.46803 0.44776 0.18134 0.0
C1111 C 0.46936 0.46456 0.18291 0.0
C1112 C 0.44445 0.45487 0.15897 0.0
C1113 C 0.45748 0.46802 0.17164 0.0
C1114 C 0.48414 0.47898 0.19466 0.0
C1115 C 0.44669 0.44346 0.24289 0.0
C1116 C 0.45235 0.43253 0.25266 0.0
C1117 C 0.45836 0.45793 0.23085 0.0
C1118 C 0.47597 0.46186 0.22851 0.0
C1119 C 0.47001 0.43653 0.2504 0.0
C1120 C 0.4818 0.45124 0.23863 0.0
C1121 C 0.48818 0.47712 0.21554 0.0
C1122 C 0.54644 0.54998 0.23776 0.0
C1123 C 0.5593 0.54641 0.24634 0.0
C1124 C 0.53181 0.5367 0.2271 0.0
C1125 C 0.5297 0.51959 0.22508 0.0
C1126 C 0.55714 0.52926 0.24437 0.0
C1127 C 0.54231 0.51588 0.23406 0.0
C1128 C 0.51424 0.5055 0.21389 0.0
C1129 C 0.54955 0.54087 0.16222 0.0
C1130 C 0.54163 0.54793 0.14886 0.0
C1131 C 0.53955 0.52835 0.17741 0.0
C1132 C 0.5215 0.5228 0.17967 0.0
C1133 C 0.52377 0.54294 0.15181 0.0
C1134 C 0.51381 0.53044 0.16696 0.0
C1135 C 0.51001 0.50748 0.19308 0.0
H1136 H 0.4551 0.42217 0.16696 0.0
H1137 H 0.47736 0.44495 0.18949 0.0
H1138 H 0.43536 0.45792 0.1507 0.0
H1139 H 0.45836 0.48095 0.17256 0.0
H1140 H 0.43313 0.44062 0.24424 0.0
H1141 H 0.45364 0.46608 0.22338 0.0
H1142 H 0.4747 0.42835 0.25786 0.0
H1143 H 0.49535 0.45411 0.23709 0.0
H1144 H 0.54787 0.56313 0.239 0.0
H1145 H 0.5221 0.53977 0.22049 0.0
H1146 H 0.56684 0.52619 0.25097 0.0
H1147 H 0.54085 0.50273 0.23275 0.0
H1148 H 0.5632 0.54422 0.16016 0.0
H1149 H 0.54573 0.52231 0.18655 0.0
H1150 H 0.51734 0.5483 0.14196 0.0
H1151 H 0.4999 0.52634 0.16833 0.0
N1152 N 0.49512 0.49411 0.1843 0.0
N1153 N 0.50316 0.49039 0.22438 0.0
C1154 C 0.45779 0.0242 0.23752 0.0
C1155 C 0.45098 0.00862 0.24955 0.0
C1156 C 0.47328 0.02978 0.226 0.0
C1157 C 0.48211 0.01981 0.22624 0.0
C1158 C 0.46041 0.99928 0.25061 0.0
C1159 C 0.47579 0.00483 0.23914 0.0
C1160 C 0.49777 0.02445 0.21311 0.0
C1161 C 0.45414 0.01294 0.16513 0.0
C1162 C 0.45705 0.02856 0.15493 0.0
C1163 C 0.46736 0.01293 0.17772 0.0
C1164 C 0.48373 0.02849 0.1801 0.0
C1165 C 0.47333 0.04418 0.15768 0.0
C1166 C 0.48665 0.04408 0.16996 0.0
C1167 C 0.49836 0.02822 0.19162 0.0
C1168 C 0.55474 0.01397 0.16115 0.0
C1169 C 0.56334 0.02762 0.14648 0.0
C1170 C 0.54278 0.01449 0.17516 0.0
C1171 C 0.53923 0.02869 0.17482 0.0
C1172 C 0.55964 0.04174 0.14606 0.0
C1173 C 0.54757 0.04218 0.15998 0.0
C1174 C 0.5261 0.02899 0.18909 0.0
C1175 C 0.57241 0.03655 0.22734 0.0
C1176 C 0.56895 0.02476 0.24411 0.0
C1177 C 0.55869 0.03749 0.21699 0.0
C1178 C 0.54098 0.02601 0.22232 0.0
C1179 C 0.55123 0.014 0.25018 0.0
C1180 C 0.53745 0.01452 0.23932 0.0
C1181 C 0.52612 0.0263 0.21087 0.0
H1182 H 0.45087 0.03172 0.23649 0.0
H1183 H 0.47819 0.04175 0.21675 0.0
H1184 H 0.45572 0.98745 0.26009 0.0
H1185 H 0.48245 0.99704 0.23987 0.0
H1186 H 0.44167 0.00075 0.16326 0.0
H1187 H 0.46498 1.00071 0.1852 0.0
H1188 H 0.47595 0.05634 0.14982 0.0
H1189 H 0.49929 0.05614 0.17143 0.0
H1190 H 0.55736 0.00295 0.16189 0.0
H1191 H 0.53619 0.00371 0.18617 0.0
H1192 H 0.56586 0.05231 0.13473 0.0
H1193 H 0.54483 0.05312 0.15924 0.0
H1194 H 0.58572 0.045 0.22186 0.0
H1195 H 0.56205 0.04724 0.20475 0.0
H1196 H 0.54787 0.00515 0.26339 0.0
H1197 H 0.52398 0.0058 0.24418 0.0
N1198 N 0.51177 0.0238 0.2219 0.0
N1199 N 0.51241 0.03022 0.18045 0.0
C1200 C 0.54734 0.9967 0.79105 0.0
C1201 C 0.54279 0.98521 0.77382 0.0
C1202 C 0.53435 0.99521 0.80493 0.0
C1203 C 0.51665 0.98183 0.8022 0.0
C1204 C 0.52505 0.97207 0.7709 0.0
C1205 C 0.51214 0.9704 0.78494 0.0
C1206 C 0.50252 0.9803 0.81627 0.0
C1207 C 0.54159 0.97344 0.85678 0.0
C1208 C 0.54651 0.98294 0.87578 0.0
C1209 C 0.52754 0.97227 0.84475 0.0
C1210 C 0.51873 0.98152 0.85064 0.0
C1211 C 0.53695 0.99135 0.88211 0.0
C1212 C 0.52353 0.99089 0.8696 0.0
C1213 C 0.50374 0.98075 0.83835 0.0
C1214 C 0.43184 0.96864 0.86499 0.0
C1215 C 0.43746 0.98059 0.88191 0.0
C1216 C 0.44415 0.9683 0.85133 0.0
C1217 C 0.46232 0.9801 0.85411 0.0
C1218 C 0.45569 0.99211 0.88484 0.0
C1219 C 0.46793 0.99184 0.87113 0.0
C1220 C 0.47578 0.97986 0.84022 0.0
C1221 C 0.44279 0.99415 0.79822 0.0
C1222 C 0.43379 0.98168 0.7823 0.0
C1223 C 0.45584 0.99323 0.81016 0.0
C1224 C 0.46005 0.97973 0.80651 0.0
C1225 C 0.43803 0.96818 0.77869 0.0
C1226 C 0.45114 0.96731 0.79059 0.0
C1227 C 0.47449 0.97919 0.81826 0.0
H1228 H 0.56087 0.00714 0.79345 0.0
H1229 H 0.5381 0.00462 0.81767 0.0
H1230 H 0.52118 0.96302 0.75777 0.0
H1231 H 0.49856 0.96013 0.78232 0.0
H1232 H 0.54851 0.96683 0.85099 0.0
H1233 H 0.5236 0.96404 0.83091 0.0
H1234 H 0.5395 0.99816 0.8969 0.0
H1235 H 0.51675 0.99782 0.87495 0.0
H1236 H 0.41792 0.95961 0.86221 0.0
H1237 H 0.43944 0.95869 0.83874 0.0
H1238 H 0.46058 0.00119 0.89795 0.0
H1239 H 0.48188 0.0009 0.87384 0.0
H1240 H 0.43976 0.00466 0.80144 0.0
H1241 H 0.46283 0.00322 0.82202 0.0
H1242 H 0.43152 0.95855 0.76634 0.0
H1243 H 0.45437 0.95694 0.78733 0.0
N1244 N 0.48784 0.97933 0.80722 0.0
N1245 N 0.49032 0.98061 0.84926 0.0
C1246 C 1.00054 0.55572 0.78872 0.0
C1247 C 0.01345 0.56574 0.77387 0.0
C1248 C 0.00085 0.54166 0.79906 0.0
C1249 C 0.01417 0.53739 0.79496 0.0
C1250 C 0.02666 0.56131 0.76957 0.0
C1251 C 0.02694 0.54716 0.77992 0.0
C1252 C 0.01458 0.5226 0.80619 0.0
C1253 C 0.03045 0.56532 0.85505 0.0
C1254 C 0.01655 0.56201 0.8687 0.0
C1255 C 0.0292 0.5521 0.84156 0.0
C1256 C 0.01418 0.53519 0.84164 0.0
C1257 C 0.00143 0.545 0.86855 0.0
C1258 C 1.00039 0.53165 0.85535 0.0
C1259 C 0.01328 0.52102 0.82807 0.0
C1260 C 0.03101 0.46603 0.85165 0.0
C1261 C 0.01666 0.45442 0.86414 0.0
C1262 C 0.02968 0.47826 0.83852 0.0
C1263 C 0.01411 0.47933 0.83791 0.0
C1264 C 0.00085 0.45519 0.86275 0.0
C1265 C 0.99972 0.46774 0.85006 0.0
C1266 C 0.01338 0.49359 0.82613 0.0
C1267 C 0.00298 0.45032 0.78048 0.0
C1268 C 0.01468 0.45534 0.76365 0.0
C1269 C 0.00301 0.46316 0.79371 0.0
C1270 C 0.01505 0.4813 0.7907 0.0
C1271 C 0.02656 0.47349 0.76047 0.0
C1272 C 0.02672 0.48633 0.77385 0.0
C1273 C 0.01482 0.49512 0.80421 0.0
H1274 H 0.99025 0.55884 0.7925 0.0
H1275 H 0.99059 0.53405 0.81021 0.0
H1276 H 0.03664 0.56863 0.75801 0.0
H1277 H 0.03723 0.54398 0.77638 0.0
H1278 H 0.0425 0.57803 0.85501 0.0
H1279 H 0.04013 0.55496 0.83134 0.0
H1280 H 0.99031 0.54196 0.87849 0.0
H1281 H 0.98871 0.51863 0.85563 0.0
H1282 H 0.04351 0.46615 0.85248 0.0
H1283 H 0.04102 0.48734 0.82945 0.0
H1284 H 0.98932 0.44621 0.87158 0.0
H1285 H 0.98761 0.46844 0.84975 0.0
H1286 H 0.99338 0.43647 0.78303 0.0
H1287 H 0.99327 0.45887 0.80591 0.0
H1288 H 0.03574 0.47776 0.74763 0.0
H1289 H 0.036 0.50023 0.77104 0.0
N1290 N 0.01541 0.50965 0.79505 0.0
N1291 N 0.01266 0.50656 0.83722 0.0
C1292 C 0.54107 0.5661 0.78847 0.0
C1293 C 0.54292 0.55925 0.76932 0.0
C1294 C 0.52694 0.55569 0.80169 0.0
C1295 C 0.51489 0.53787 0.79662 0.0
C1296 C 0.52969 0.54209 0.7634 0.0
C1297 C 0.51611 0.5315 0.77695 0.0
C1298 C 0.50093 0.5255 0.81118 0.0
C1299 C 0.55056 0.54735 0.85208 0.0
C1300 C 0.54973 0.5555 0.87071 0.0
C1301 C 0.53558 0.53819 0.83936 0.0
C1302 C 0.51957 0.53739 0.84469 0.0
C1303 C 0.53377 0.555 0.87572 0.0
C1304 C 0.51886 0.54599 0.86288 0.0
C1305 C 0.50302 0.52566 0.83315 0.0
C1306 C 0.4547 0.46827 0.88111 0.0
C1307 C 0.43644 0.46144 0.87807 0.0
C1308 C 0.46682 0.48067 0.8673 0.0
C1309 C 0.46105 0.48665 0.85015 0.0
C1310 C 0.43066 0.46759 0.861 0.0
C1311 C 0.44284 0.48023 0.84735 0.0
C1312 C 0.47435 0.5 0.83593 0.0
C1313 C 0.43553 0.47313 0.7753 0.0
C1314 C 0.43182 0.45559 0.77912 0.0
C1315 C 0.44863 0.4873 0.78683 0.0
C1316 C 0.45805 0.48418 0.80264 0.0
C1317 C 0.44134 0.45254 0.79491 0.0
C1318 C 0.45435 0.46668 0.80649 0.0
C1319 C 0.47256 0.4993 0.81401 0.0
H1320 H 0.55073 0.57929 0.79366 0.0
H1321 H 0.52577 0.56156 0.81603 0.0
H1322 H 0.52989 0.53655 0.74838 0.0
H1323 H 0.50678 0.51806 0.7721 0.0
H1324 H 0.56267 0.54761 0.84759 0.0
H1325 H 0.53638 0.53126 0.82573 0.0
H1326 H 0.53251 0.56082 0.89007 0.0
H1327 H 0.50656 0.54528 0.8675 0.0
H1328 H 0.45972 0.46426 0.89434 0.0
H1329 H 0.48079 0.48555 0.87002 0.0
H1330 H 0.41671 0.4626 0.85808 0.0
H1331 H 0.43799 0.48502 0.83469 0.0
H1332 H 0.42861 0.47595 0.76305 0.0
H1333 H 0.45146 0.50072 0.78338 0.0
H1334 H 0.43875 0.43918 0.7983 0.0
H1335 H 0.46173 0.46396 0.81824 0.0
N1336 N 0.48576 0.51221 0.80263 0.0
N1337 N 0.48953 0.51309 0.84451 0.0
C1338 C 0.65431 0.77376 0.50047 0.0
C1339 C 0.64121 0.76437 0.48529 0.0
C1340 C 0.65338 0.78651 0.51299 0.0
C1341 C 0.63938 0.79011 0.51045 0.0
C1342 C 0.62715 0.76792 0.48294 0.0
C1343 C 0.62635 0.7808 0.49526 0.0
C1344 C 0.63877 0.8043 0.52262 0.0
C1345 C 0.62904 0.75965 0.56552 0.0
C1346 C 0.64157 0.76452 0.58179 0.0
C1347 C 0.62775 0.77264 0.55378 0.0
C1348 C 0.6392 0.79078 0.55776 0.0
C1349 C 0.65242 0.7827 0.58634 0.0
C1350 C 0.65123 0.79566 0.57447 0.0
C1351 C 0.6389 0.8048 0.54463 0.0
C1352 C 0.63012 0.85966 0.58248 0.0
C1353 C 0.6438 0.87705 0.57868 0.0
C1354 C 0.6289 0.84533 0.57106 0.0
C1355 C 0.64115 0.84814 0.55539 0.0
C1356 C 0.65626 0.87978 0.56323 0.0
C1357 C 0.65496 0.86546 0.55171 0.0
C1358 C 0.63969 0.83284 0.54343 0.0
C1359 C 0.65185 0.86503 0.47726 0.0
C1360 C 0.64113 0.87276 0.48062 0.0
C1361 C 0.65124 0.85204 0.49071 0.0
C1362 C 0.6399 0.84641 0.50788 0.0
C1363 C 0.62961 0.86699 0.49772 0.0
C1364 C 0.62891 0.85385 0.51115 0.0
C1365 C 0.63925 0.83215 0.5214 0.0
H1366 H 0.66528 0.77127 0.50261 0.0
H1367 H 0.66373 0.79376 0.5244 0.0
H1368 H 0.61701 0.76108 0.47116 0.0
H1369 H 0.61555 0.78354 0.49291 0.0
H1370 H 0.62048 0.74582 0.5615 0.0
H1371 H 0.61791 0.76846 0.54145 0.0
H1372 H 0.6619 0.78696 0.59908 0.0
H1373 H 0.66002 0.80955 0.57809 0.0
H1374 H 0.62048 0.85709 0.59449 0.0
H1375 H 0.61827 0.83205 0.57431 0.0
H1376 H 0.66691 0.89303 0.55989 0.0
H1377 H 0.66477 0.86791 0.53997 0.0
H1378 H 0.66056 0.86877 0.46399 0.0
H1379 H 0.65968 0.84636 0.48766 0.0
H1380 H 0.62117 0.87266 0.50079 0.0
H1381 H 0.61965 0.84938 0.5239 0.0
N1382 N 0.63885 0.81791 0.51193 0.0
N1383 N 0.63941 0.8191 0.55417 0.0
C1384 C 0.12342 0.78229 0.48854 0.0
C1385 C 0.1162 0.78945 0.47428 0.0
C1386 C 0.13494 0.79291 0.5044 0.0
C1387 C 0.13932 0.81082 0.50639 0.0
C1388 C 0.11995 0.80712 0.477 0.0
C1389 C 0.13148 0.8177 0.49278 0.0
C1390 C 0.15384 0.82309 0.52042 0.0
C1391 C 0.11131 0.78637 0.56464 0.0
C1392 C 0.11579 0.77518 0.57597 0.0
C1393 C 0.12408 0.80048 0.55298 0.0
C1394 C 0.14159 0.80374 0.55264 0.0
C1395 C 0.13328 0.77838 0.57546 0.0
C1396 C 0.1461 0.79267 0.5641 0.0
C1397 C 0.15547 0.81931 0.54153 0.0
C1398 C 0.2157 0.88829 0.57168 0.0
C1399 C 0.22741 0.88333 0.58073 0.0
C1400 C 0.20121 0.87609 0.55991 0.0
C1401 C 0.19806 0.85866 0.55718 0.0
C1402 C 0.22413 0.86581 0.57819 0.0
C1403 C 0.20941 0.85348 0.5667 0.0
C1404 C 0.18316 0.84609 0.54392 0.0
C1405 C 0.22634 0.87994 0.49954 0.0
C1406 C 0.22357 0.89279 0.48922 0.0
C1407 C 0.21279 0.86622 0.51073 0.0
C1408 C 0.19605 0.86485 0.51171 0.0
C1409 C 0.20673 0.89137 0.49033 0.0
C1410 C 0.19305 0.87741 0.50129 0.0
C1411 C 0.1816 0.84979 0.52286 0.0
H1412 H 0.12096 0.7688 0.48674 0.0
H1413 H 0.14115 0.78738 0.51434 0.0
H1414 H 0.11437 0.81295 0.46654 0.0
H1415 H 0.1347 0.83148 0.49396 0.0
H1416 H 0.0979 0.78414 0.56471 0.0
H1417 H 0.12037 0.80905 0.54458 0.0
H1418 H 0.1371 0.77004 0.58418 0.0
H1419 H 0.15957 0.79506 0.5642 0.0
H1420 H 0.21801 0.90175 0.57328 0.0
H1421 H 0.19252 0.88029 0.55278 0.0
H1422 H 0.23295 0.86167 0.5851 0.0
H1423 H 0.20715 0.84007 0.56476 0.0
H1424 H 0.23887 0.88015 0.4986 0.0
H1425 H 0.21527 0.85641 0.51825 0.0
H1426 H 0.20408 0.90106 0.48282 0.0
H1427 H 0.18018 0.87651 0.50179 0.0
N1428 N 0.16699 0.83822 0.51192 0.0
N1429 N 0.17011 0.83096 0.5525 0.0
C1430 C 0.23465 0.36885 0.48881 0.0
C1431 C 0.229 0.35686 0.47192 0.0
C1432 C 0.22236 0.36913 0.50257 0.0
C1433 C 0.2042 0.35718 0.49992 0.0
C1434 C 0.21077 0.34528 0.4691 0.0
C1435 C 0.19858 0.34542 0.48293 0.0
C1436 C 0.19065 0.35726 0.51374 0.0
C1437 C 0.22548 0.3458 0.55705 0.0
C1438 C 0.23267 0.35764 0.57396 0.0
C1439 C 0.21242 0.34601 0.54427 0.0
C1440 C 0.20659 0.35833 0.5479 0.0
C1441 C 0.22693 0.37005 0.57739 0.0
C1442 C 0.214 0.37034 0.56455 0.0
C1443 C 0.19177 0.35789 0.53575 0.0
C1444 C 0.11763 0.33722 0.56047 0.0
C1445 C 0.1206 0.34989 0.57598 0.0
C1446 C 0.13152 0.33897 0.54804 0.0
C1447 C 0.14862 0.35347 0.5508 0.0
C1448 C 0.13784 0.3641 0.57911 0.0
C1449 C 0.15174 0.36578 0.56674 0.0
C1450 C 0.16329 0.35582 0.53725 0.0
C1451 C 0.12454 0.36326 0.49725 0.0
C1452 C 0.11978 0.35429 0.47792 0.0
C1453 C 0.13851 0.36415 0.50918 0.0
C1454 C 0.14745 0.35514 0.50286 0.0
C1455 C 0.12939 0.34603 0.47119 0.0
C1456 C 0.14281 0.34625 0.48358 0.0
C1457 C 0.16238 0.35573 0.51521 0.0
H1458 H 0.24857 0.37796 0.49148 0.0
H1459 H 0.22705 0.37877 0.51511 0.0
H1460 H 0.20582 0.33621 0.45599 0.0
H1461 H 0.18465 0.33626 0.48029 0.0
H1462 H 0.22941 0.33588 0.55423 0.0
H1463 H 0.20655 0.33622 0.53195 0.0
H1464 H 0.23231 0.37944 0.59019 0.0
H1465 H 0.20964 0.37987 0.56778 0.0
H1466 H 0.1045 0.32617 0.55763 0.0
H1467 H 0.12889 0.32912 0.53608 0.0
H1468 H 0.14061 0.3739 0.59116 0.0
H1469 H 0.16488 0.37693 0.56931 0.0
H1470 H 0.11756 0.36969 0.5034 0.0
H1471 H 0.14232 0.37208 0.52325 0.0
H1472 H 0.12687 0.33954 0.45618 0.0
H1473 H 0.14968 0.33952 0.47792 0.0
N1474 N 0.17606 0.35628 0.50449 0.0
N1475 N 0.17804 0.35718 0.54658 0.0
H1476 H 0.02317 0.40509 0.05715 0.0
H1477 H 0.97081 0.36038 0.04512 0.0
H1478 H 0.95877 0.37108 0.07286 0.0
H1479 H 0.01916 0.4063 0.11325 0.0
H1480 H 0.03148 0.43023 0.11437 0.0
H1481 H 0.03599 0.41855 0.09424 0.0
H1482 H 0.03043 0.43682 0.06604 0.0
H1483 H 0.02593 0.44856 0.08606 0.0
H1484 H 0.00979 0.43705 0.06577 0.0
H1485 H 0.95229 0.38773 0.10084 0.0
H1486 H 0.95203 0.40862 0.12696 0.0
H1487 H 0.00871 0.44204 0.12045 0.0
C1488 C 0.00917 0.3974 0.06038 0.0
C1489 C 0.99796 0.38184 0.04889 0.0
C1490 C 0.97971 0.3723 0.0537 0.0
C1491 C 0.97274 0.37827 0.06944 0.0
C1492 C 0.9842 0.39374 0.08031 0.0
C1493 C 0.00204 0.40311 0.07601 0.0
C1494 C 0.01151 0.41959 0.08947 0.0
C1495 C 0.02535 0.41859 0.10368 0.0
C1496 C 0.0199 0.4365 0.07603 0.0
C1497 C 0.99618 0.41818 0.10191 0.0
C1498 C 0.98053 0.40317 0.09645 0.0
C1499 C 0.96449 0.39944 0.10533 0.0
C1500 C 0.96446 0.41141 0.12007 0.0
C1501 C 0.98036 0.42689 0.12581 0.0
C1502 C 0.9964 0.43016 0.11667 0.0
H1503 H 0.62681 0.61507 0.08334 0.0
H1504 H 0.59248 0.59951 0.02896 0.0
H1505 H 0.56689 0.57997 0.05082 0.0
H1506 H 0.60479 0.57379 0.11561 0.0
H1507 H 0.60954 0.58764 0.13808 0.0
H1508 H 0.6236 0.59607 0.11566 0.0
H1509 H 0.61615 0.62254 0.1195 0.0
H1510 H 0.59986 0.61074 0.13921 0.0
H1511 H 0.59359 0.61752 0.11553 0.0
H1512 H 0.54561 0.56101 0.07788 0.0
H1513 H 0.52916 0.54502 0.10907 0.0
H1514 H 0.57629 0.57518 0.14709 0.0
C1515 C 0.61393 0.60717 0.07611 0.0
C1516 C 0.61159 0.60802 0.0544 0.0
C1517 C 0.59448 0.5985 0.0455 0.0
C1518 C 0.57992 0.58746 0.05778 0.0
C1519 C 0.5826 0.58673 0.0791 0.0
C1520 C 0.59909 0.59652 0.08833 0.0
C1521 C 0.59782 0.59465 0.11191 0.0
C1522 C 0.60972 0.58767 0.12077 0.0
C1523 C 0.60211 0.61242 0.12214 0.0
C1524 C 0.57841 0.58104 0.11421 0.0
C1525 C 0.56986 0.57693 0.09509 0.0
C1526 C 0.55208 0.56427 0.09299 0.0
C1527 C 0.54283 0.55531 0.11085 0.0
C1528 C 0.55136 0.55893 0.1306 0.0
C1529 C 0.56938 0.57213 0.13225 0.0
H1530 H 0.3907 0.99676 0.05738 0.0
H1531 H 0.37772 0.03756 0.07364 0.0
H1532 H 0.39859 0.04661 0.10356 0.0
H1533 H 0.39273 0.98424 0.11058 0.0
H1534 H 0.41042 0.97948 0.10603 0.0
H1535 H 0.39523 0.97684 0.08523 0.0
H1536 H 0.42139 0.99862 0.06168 0.0
H1537 H 0.43623 1.00013 0.08237 0.0
H1538 H 0.43731 0.02002 0.07211 0.0
H1539 H 0.422 0.05208 0.13052 0.0
H1540 H 0.44401 0.0516 0.15495 0.0
H1541 H 0.43984 0.0056 0.12279 0.0
C1542 C 0.39249 0.00774 0.06714 0.0
C1543 C 0.38345 0.01717 0.06271 0.0
C1544 C 0.38532 0.03086 0.07628 0.0
C1545 C 0.39698 0.03595 0.09337 0.0
C1546 C 0.40623 0.02682 0.09694 0.0
C1547 C 0.40392 0.01282 0.08441 0.0
C1548 C 0.41466 0.00453 0.09239 0.0
C1549 C 0.40253 0.98513 0.09895 0.0
C1550 C 0.42819 0.00591 0.07615 0.0
C1551 C 0.42368 0.01629 0.11109 0.0
C1552 C 0.41873 0.02914 0.11336 0.0
C1553 C 0.42584 0.04197 0.12904 0.0
C1554 C 0.43833 0.04164 0.14277 0.0
C1555 C 0.44342 0.02847 0.14083 0.0
C1556 C 0.43591 0.01561 0.12483 0.0
H1557 H 0.40267 0.02547 0.96338 0.0
H1558 H 0.35949 0.97281 0.97761 0.0
H1559 H 0.37007 0.96004 0.95055 0.0
H1560 H 0.40263 0.01904 0.9075 0.0
H1561 H 0.42636 0.032 0.90585 0.0
H1562 H 0.41487 0.03691 0.92571 0.0
H1563 H 0.43428 0.03335 0.95415 0.0
H1564 H 0.44579 0.02838 0.93442 0.0
H1565 H 0.43522 0.01299 0.95546 0.0
H1566 H 0.38648 0.95297 0.92289 0.0
H1567 H 0.40707 0.95226 0.89711 0.0
H1568 H 0.43866 0.00977 0.90058 0.0
C1569 C 0.3953 0.01125 0.96078 0.0
C1570 C 0.38021 1.00017 0.9727 0.0
C1571 C 0.37105 0.98162 0.96869 0.0
C1572 C 0.37696 0.97423 0.95334 0.0
C1573 C 0.39197 0.98557 0.94204 0.0
C1574 C 0.40094 0.0037 0.94553 0.0
C1575 C 0.41693 0.01301 0.93166 0.0
C1576 C 0.41508 0.026 0.9168 0.0
C1577 C 0.43406 0.02248 0.94471 0.0
C1578 C 0.41573 0.99727 0.91998 0.0
C1579 C 0.40124 0.98155 0.9261 0.0
C1580 C 0.39777 0.96523 0.91785 0.0
C1581 C 0.4095 0.96497 0.9031 0.0
C1582 C 0.42453 0.98095 0.89673 0.0
C1583 C 0.42746 0.99728 0.90522 0.0
H1584 H 0.99567 0.39605 0.96766 0.0
H1585 H 0.03164 0.37858 0.94581 0.0
H1586 H 0.03869 0.39824 0.91508 0.0
H1587 H 0.97823 0.39712 0.91827 0.0
H1588 H 0.97614 0.4165 0.92333 0.0
H1589 H 0.97502 0.4023 0.94451 0.0
H1590 H 0.00111 0.42905 0.96391 0.0
H1591 H 0.00097 0.44303 0.94312 0.0
H1592 H 0.02108 0.44296 0.94974 0.0
H1593 H 0.0398 0.4179 0.88547 0.0
H1594 H 0.0363 0.43735 0.86001 0.0
H1595 H 1.0008 0.44328 0.90244 0.0
C1596 C 0.00531 0.39673 0.95658 0.0
C1597 C 0.01365 0.38641 0.9593 0.0
C1598 C 0.02567 0.38697 0.94423 0.0
C1599 C 0.02963 0.39797 0.92672 0.0
C1600 C 0.0213 0.40815 0.92452 0.0
C1601 C 0.00951 0.40775 0.93914 0.0
C1602 C 0.00173 0.41933 0.9326 0.0
C1603 C 0.98159 0.40814 0.92949 0.0
C1604 C 0.00652 0.43448 0.9483 0.0
C1605 C 0.011 0.42631 0.91207 0.0
C1606 C 0.02212 0.41961 0.90759 0.0
C1607 C 0.03139 0.4235 0.88898 0.0
C1608 C 0.02939 0.43469 0.87465 0.0
C1609 C 0.01837 0.4421 0.87911 0.0
C1610 C 0.00914 0.43777 0.8982 0.0
H1611 H 0.6087 0.61597 0.96619 0.0
H1612 H 0.63121 0.58095 0.96952 0.0
H1613 H 0.61502 0.56569 0.9376 0.0
H1614 H 0.56608 0.58291 0.95047 0.0
H1615 H 0.56193 0.5969 0.93308 0.0
H1616 H 0.57676 0.60656 0.95495 0.0
H1617 H 0.60154 0.62781 0.93012 0.0
H1618 H 0.58676 0.61823 0.90815 0.0
H1619 H 0.60774 0.61873 0.90859 0.0
H1620 H 0.59508 0.55274 0.9072 0.0
H1621 H 0.5717 0.54219 0.8804 0.0
H1622 H 0.5616 0.5853 0.89589 0.0
C1623 C 0.61045 0.60533 0.95992 0.0
C1624 C 0.62128 0.5997 0.9703 0.0
C1625 C 0.62296 0.58546 0.96189 0.0
C1626 C 0.61389 0.57675 0.94368 0.0
C1627 C 0.6031 0.58237 0.93402 0.0
C1628 C 0.60128 0.5963 0.94178 0.0
C1629 C 0.58779 0.59872 0.92909 0.0
C1630 C 0.57222 0.59611 0.94271 0.0
C1631 C 0.59648 0.61696 0.91835 0.0
C1632 C 0.58212 0.58377 0.91332 0.0
C1633 C 0.59132 0.57469 0.91635 0.0
C1634 C 0.58796 0.5599 0.90443 0.0
C1635 C 0.5747 0.55408 0.88909 0.0
C1636 C 0.56486 0.56299 0.88577 0.0
C1637 C 0.56884 0.57817 0.89798 0.0
H1638 H 1.00021 0.60237 0.97331 0.0
H1639 H 0.0311 0.65444 0.94569 0.0
H1640 H 0.03638 0.64083 0.91473 0.0
H1641 H 0.02602 0.5817 0.95249 0.0
H1642 H 0.006 0.56088 0.94918 0.0
H1643 H 0.0075 0.57602 0.96939 0.0
H1644 H 0.97862 0.57373 0.95291 0.0
H1645 H 0.97888 0.56003 0.93196 0.0
H1646 H 0.97903 0.58054 0.92625 0.0
H1647 H 0.03666 0.62162 0.88604 0.0
H1648 H 0.03312 0.59812 0.86175 0.0
H1649 H 0.00295 0.55825 0.9084 0.0
C1650 C 0.00837 0.61083 0.96086 0.0
C1651 C 0.01585 0.62945 0.96205 0.0
C1652 C 0.02586 0.64019 0.94527 0.0
C1653 C 0.02881 0.63257 0.9276 0.0
C1654 C 0.02143 0.61417 0.92691 0.0
C1655 C 0.01149 0.60341 0.94311 0.0
C1656 C 0.00434 0.58394 0.93787 0.0
C1657 C 0.01139 0.57514 0.95318 0.0
C1658 C 0.98401 0.57398 0.93721 0.0
C1659 C 0.01194 0.58551 0.91631 0.0
C1660 C 0.02162 0.60305 0.91026 0.0
C1661 C 0.02938 0.60783 0.89073 0.0
C1662 C 0.02739 0.59433 0.87708 0.0
C1663 C 0.01796 0.5762 0.88311 0.0
C1664 C 0.01011 0.57186 0.90306 0.0
H1665 H 0.40197 0.38339 0.96219 0.0
H1666 H 0.35714 0.39172 0.97186 0.0
H1667 H 0.36804 0.4145 0.9444 0.0
H1668 H 0.43381 0.42853 0.95356 0.0
H1669 H 0.4454 0.42386 0.93358 0.0
H1670 H 0.43376 0.40764 0.9535 0.0
H1671 H 0.41574 0.38414 0.92516 0.0
H1672 H 0.42738 0.40028 0.90514 0.0
H1673 H 0.40357 0.389 0.90578 0.0
H1674 H 0.38461 0.43759 0.91737 0.0
H1675 H 0.40536 0.45881 0.89191 0.0
H1676 H 0.4385 0.43435 0.89837 0.0
C1677 C 0.39437 0.3899 0.95846 0.0
C1678 C 0.37868 0.38571 0.96925 0.0
C1679 C 0.36916 0.3946 0.96383 0.0
C1680 C 0.37524 0.4076 0.94824 0.0
C1681 C 0.39078 0.41148 0.93805 0.0
C1682 C 0.40016 0.40282 0.94281 0.0
C1683 C 0.4166 0.40968 0.92966 0.0
C1684 C 0.43338 0.41792 0.9434 0.0
C1685 C 0.41576 0.39489 0.9156 0.0
C1686 C 0.41512 0.42372 0.91701 0.0
C1687 C 0.40014 0.42454 0.92208 0.0
C1688 C 0.39628 0.43692 0.91304 0.0
C1689 C 0.40811 0.44885 0.89846 0.0
C1690 C 0.42359 0.44827 0.89295 0.0
C1691 C 0.42694 0.43536 0.90231 0.0
H1692 H 0.61622 0.01804 0.97034 0.0
H1693 H 0.62928 0.97719 0.95467 0.0
H1694 H 0.60866 0.96809 0.92452 0.0
H1695 H 0.57061 0.99604 0.95594 0.0
H1696 H 0.57177 0.01565 0.94469 0.0
H1697 H 0.587 0.01774 0.96515 0.0
H1698 H 0.61277 0.0382 0.94026 0.0
H1699 H 0.59711 0.03505 0.91984 0.0
H1700 H 0.61439 0.02969 0.91523 0.0
H1701 H 0.58294 0.96049 0.90011 0.0
H1702 H 0.5591 0.95895 0.87794 0.0
H1703 H 0.56741 0.00872 0.90497 0.0
C1704 C 0.61463 0.00715 0.96054 0.0
C1705 C 0.62331 0.99745 0.96545 0.0
C1706 C 0.6218 0.98397 0.95177 0.0
C1707 C 0.61031 0.97887 0.93453 0.0
C1708 C 0.60103 0.98794 0.93081 0.0
C1709 C 0.60354 0.0022 0.94296 0.0
C1710 C 0.59282 0.01041 0.93471 0.0
C1711 C 0.5798 0.00993 0.95112 0.0
C1712 C 0.605 0.02947 0.92705 0.0
C1713 C 0.5832 0.99795 0.91671 0.0
C1714 C 0.58796 0.98497 0.91489 0.0
C1715 C 0.57955 0.97097 0.90082 0.0
C1716 C 0.56602 0.97032 0.8881 0.0
C1717 C 0.56121 0.98384 0.88913 0.0
C1718 C 0.57028 0.99794 0.9036 0.0
H1719 H 0.59693 0.98382 0.06158 0.0
H1720 H 0.64444 0.03524 0.05611 0.0
H1721 H 0.63335 0.0473 0.08325 0.0
H1722 H 0.56696 1.00025 0.06869 0.0
H1723 H 0.55347 0.98344 0.08727 0.0
H1724 H 0.56538 0.97866 0.06785 0.0
H1725 H 0.58054 0.96982 0.09685 0.0
H1726 H 0.56866 0.97456 0.11637 0.0
H1727 H 0.59245 0.98535 0.11754 0.0
H1728 H 0.61663 0.05413 0.11011 0.0
H1729 H 0.59577 0.0549 0.13546 0.0
H1730 H 0.55936 0.99906 0.12357 0.0
C1731 C 0.6051 0.99759 0.06614 0.0
C1732 C 0.6216 0.00854 0.05664 0.0
C1733 C 0.63178 0.02652 0.06312 0.0
C1734 C 0.62559 0.03353 0.07854 0.0
C1735 C 0.60924 0.02239 0.08744 0.0
C1736 C 0.59916 0.00479 0.08155 0.0
C1737 C 0.58193 0.99572 0.09337 0.0
C1738 C 0.566 0.98913 0.0784 0.0
C1739 C 0.58084 0.98046 0.10683 0.0
C1740 C 0.58385 0.011 0.10673 0.0
C1741 C 0.59968 0.02628 0.10305 0.0
C1742 C 0.60422 0.04223 0.11318 0.0
C1743 C 0.59226 0.04257 0.12745 0.0
C1744 C 0.57598 0.02705 0.13151 0.0
C1745 C 0.57181 0.01108 0.12101 0.0
H1746 H 0.9874 0.60967 0.04791 0.0
H1747 H 0.03736 0.65282 0.0703 0.0
H1748 H 0.03429 0.63654 0.10297 0.0
H1749 H 0.96513 0.59611 0.10012 0.0
H1750 H 0.95459 0.57281 0.09358 0.0
H1751 H 0.95905 0.58905 0.07346 0.0
H1752 H 0.97639 0.5769 0.05293 0.0
H1753 H 0.97211 0.56075 0.073 0.0
H1754 H 0.99453 0.5759 0.06549 0.0
H1755 H 0.02831 0.61441 0.13057 0.0
H1756 H 0.01935 0.58754 0.15197 0.0
H1757 H 0.97314 0.5582 0.11257 0.0
C1758 C 0.99732 0.61589 0.06005 0.0
C1759 C 0.01251 0.63258 0.05677 0.0
C1760 C 0.02559 0.64009 0.07262 0.0
C1761 C 0.02393 0.63097 0.09125 0.0
C1762 C 0.00911 0.61431 0.09382 0.0
C1763 C 0.99595 0.60682 0.07876 0.0
C1764 C 0.98237 0.58794 0.0846 0.0
C1765 C 0.96421 0.58639 0.08815 0.0
C1766 C 0.9813 0.57459 0.06802 0.0
C1767 C 0.99029 0.58585 0.10489 0.0
C1768 C 0.00561 0.60133 0.10999 0.0
C1769 C 0.01614 0.60233 0.12702 0.0
C1770 C 0.01101 0.58704 0.13903 0.0
C1771 C 0.99548 0.57102 0.13402 0.0
C1772 C 0.98484 0.57047 0.11695 0.0
H1773 H 0.38646 0.40248 0.05141 0.0
H1774 H 0.36846 0.34904 0.07394 0.0
H1775 H 0.38634 0.36121 0.10611 0.0
H1776 H 0.43188 0.42347 0.0726 0.0
H1777 H 0.43138 0.44353 0.07845 0.0
H1778 H 0.41819 0.42956 0.05722 0.0
H1779 H 0.39099 0.4292 0.07508 0.0
H1780 H 0.40457 0.44195 0.0968 0.0
H1781 H 0.38527 0.42066 0.10121 0.0
H1782 H 0.40561 0.3792 0.13601 0.0
H1783 H 0.42547 0.40167 0.1614 0.0
H1784 H 0.43162 0.44355 0.11889 0.0
C1785 C 0.38654 0.39342 0.06306 0.0
C1786 C 0.37671 0.37487 0.06003 0.0
C1787 C 0.3765 0.36331 0.07578 0.0
C1788 C 0.38647 0.37009 0.09412 0.0
C1789 C 0.39635 0.38848 0.09652 0.0
C1790 C 0.39649 0.4 0.08143 0.0
C1791 C 0.40778 0.41919 0.08822 0.0
C1792 C 0.4232 0.42952 0.07321 0.0
C1793 C 0.39647 0.42828 0.09046 0.0
C1794 C 0.41427 0.41664 0.10924 0.0
C1795 C 0.40737 0.39884 0.11383 0.0
C1796 C 0.41125 0.39319 0.13251 0.0
C1797 C 0.42267 0.4061 0.14678 0.0
C1798 C 0.43033 0.42449 0.14221 0.0
C1799 C 0.42589 0.42969 0.12315 0.0
H1800 H 0.68595 0.73465 0.39833 0.0
H1801 H 0.63557 0.68614 0.3909 0.0
H1802 H 0.62385 0.69487 0.42081 0.0
H1803 H 0.68563 0.73667 0.45566 0.0
H1804 H 0.69558 0.76055 0.4558 0.0
H1805 H 0.70051 0.74959 0.43518 0.0
H1806 H 0.69048 0.76498 0.40778 0.0
H1807 H 0.68547 0.77593 0.42827 0.0
H1808 H 0.66866 0.76245 0.40943 0.0
H1809 H 0.61671 0.71031 0.44928 0.0
H1810 H 0.61509 0.73089 0.47477 0.0
H1811 H 0.67015 0.76902 0.46366 0.0
C1812 C 0.67255 0.72564 0.40318 0.0
C1813 C 0.66172 0.70966 0.39221 0.0
C1814 C 0.64419 0.69842 0.39904 0.0
C1815 C 0.6374 0.70326 0.41604 0.0
C1816 C 0.64833 0.71929 0.42617 0.0
C1817 C 0.66558 0.73024 0.42009 0.0
C1818 C 0.67428 0.74724 0.43278 0.0
C1819 C 0.68992 0.74858 0.44562 0.0
C1820 C 0.68006 0.76361 0.41873 0.0
C1821 C 0.65911 0.74433 0.44666 0.0
C1822 C 0.64428 0.7281 0.44269 0.0
C1823 C 0.62832 0.72294 0.45272 0.0
C1824 C 0.62749 0.73473 0.46707 0.0
C1825 C 0.64253 0.75145 0.47128 0.0
C1826 C 0.65856 0.75616 0.46108 0.0
H1827 H 0.267 0.95192 0.38773 0.0
H1828 H 0.31797 0.96535 0.41473 0.0
H1829 H 0.3034 0.94962 0.4471 0.0
H1830 H 0.24865 0.95698 0.43762 0.0
H1831 H 0.22664 0.93922 0.43202 0.0
H1832 H 0.24081 0.95216 0.41103 0.0
H1833 H 0.23826 0.92327 0.3929 0.0
H1834 H 0.22215 0.9118 0.41281 0.0
H1835 H 0.24011 0.90745 0.40975 0.0
H1836 H 0.28343 0.93075 0.47523 0.0
H1837 H 0.2593 0.91002 0.49775 0.0
H1838 H 0.22092 0.9082 0.45246 0.0
C1839 C 0.27499 0.95148 0.40052 0.0
C1840 C 0.2935 0.95922 0.39863 0.0
C1841 C 0.3037 0.95895 0.41577 0.0
C1842 C 0.29557 0.95021 0.43423 0.0
C1843 C 0.27723 0.94211 0.43542 0.0
C1844 C 0.26702 0.94273 0.41912 0.0
C1845 C 0.24754 0.93297 0.42466 0.0
C1846 C 0.2405 0.94612 0.42644 0.0
C1847 C 0.23642 0.91803 0.40905 0.0
C1848 C 0.24838 0.92558 0.44585 0.0
C1849 C 0.26565 0.93144 0.45196 0.0
C1850 C 0.26983 0.92607 0.47063 0.0
C1851 C 0.25597 0.91407 0.4832 0.0
C1852 C 0.23807 0.90714 0.47686 0.0
C1853 C 0.23435 0.91333 0.45804 0.0
H1854 H 0.04845 0.32085 0.38466 0.0
H1855 H 0.03589 0.36156 0.40283 0.0
H1856 H 0.05731 0.37032 0.43214 0.0
H1857 H 0.05172 0.30855 0.43893 0.0
H1858 H 0.06889 0.30329 0.43316 0.0
H1859 H 0.05279 0.30042 0.41344 0.0
H1860 H 0.078 0.32134 0.38811 0.0
H1861 H 0.09362 0.323 0.40786 0.0
H1862 H 0.09463 0.34284 0.39756 0.0
H1863 H 0.08346 0.37749 0.4556 0.0
H1864 H 0.10749 0.37853 0.47691 0.0
H1865 H 0.09885 0.32933 0.44788 0.0
C1866 C 0.05033 0.33166 0.39481 0.0
C1867 C 0.0415 0.34139 0.39084 0.0
C1868 C 0.04344 0.35475 0.40498 0.0
C1869 C 0.0554 0.35966 0.42175 0.0
C1870 C 0.06478 0.35057 0.42453 0.0
C1871 C 0.06194 0.33645 0.41191 0.0
C1872 C 0.07285 0.32813 0.41922 0.0
C1873 C 0.06085 0.30896 0.42663 0.0
C1874 C 0.0855 0.32888 0.40215 0.0
C1875 C 0.08288 0.34033 0.43728 0.0
C1876 C 0.07819 0.3533 0.4399 0.0
C1877 C 0.08682 0.36702 0.45425 0.0
C1878 C 0.10045 0.36737 0.46648 0.0
C1879 C 0.10517 0.35382 0.46472 0.0
C1880 C 0.09599 0.34007 0.44986 0.0
H1881 H 0.06693 0.35539 0.29557 0.0
H1882 H 0.01964 0.30376 0.30077 0.0
H1883 H 0.03103 0.2919 0.27373 0.0
H1884 H 0.07187 0.35402 0.23964 0.0
H1885 H 0.09565 0.36496 0.24111 0.0
H1886 H 0.0835 0.36955 0.26042 0.0
H1887 H 0.09854 0.36084 0.28971 0.0
H1888 H 0.11072 0.35622 0.27051 0.0
H1889 H 0.09714 0.33933 0.28897 0.0
H1890 H 0.04816 0.28529 0.24716 0.0
H1891 H 0.06947 0.28471 0.22235 0.0
H1892 H 0.10533 0.34065 0.23436 0.0
C1893 C 0.05886 0.34162 0.29095 0.0
C1894 C 0.04234 0.33054 0.30035 0.0
C1895 C 0.03231 0.31256 0.29383 0.0
C1896 C 0.03866 0.30568 0.27846 0.0
C1897 C 0.05504 0.31694 0.26968 0.0
C1898 C 0.06496 0.33454 0.27561 0.0
C1899 C 0.08229 0.34375 0.26402 0.0
C1900 C 0.08338 0.35897 0.25049 0.0
C1901 C 0.0981 0.35042 0.27921 0.0
C1902 C 0.08063 0.32854 0.25074 0.0
C1903 C 0.06482 0.31318 0.25424 0.0
C1904 C 0.06053 0.29726 0.24421 0.0
C1905 C 0.07274 0.29703 0.23025 0.0
C1906 C 0.08901 0.31264 0.2264 0.0
C1907 C 0.09289 0.32858 0.23675 0.0
H1908 H 0.67905 0.71351 0.27865 0.0
H1909 H 0.64934 0.72521 0.32363 0.0
H1910 H 0.64815 0.74681 0.29923 0.0
H1911 H 0.70348 0.75768 0.25099 0.0
H1912 H 0.69971 0.74586 0.22691 0.0
H1913 H 0.70133 0.73575 0.25083 0.0
H1914 H 0.67031 0.70889 0.23911 0.0
H1915 H 0.66889 0.72127 0.21726 0.0
H1916 H 0.65175 0.7127 0.23656 0.0
H1917 H 0.64986 0.76661 0.27027 0.0
H1918 H 0.6523 0.78214 0.23728 0.0
H1919 H 0.67775 0.75506 0.20892 0.0
C1920 C 0.67285 0.72113 0.28349 0.0
C1921 C 0.66504 0.71852 0.3033 0.0
C1922 C 0.65593 0.72765 0.30876 0.0
C1923 C 0.65517 0.73986 0.29502 0.0
C1924 C 0.66297 0.74218 0.27555 0.0
C1925 C 0.67144 0.73293 0.2696 0.0
C1926 C 0.67642 0.73605 0.24673 0.0
C1927 C 0.69644 0.74429 0.24376 0.0
C1928 C 0.66623 0.7187 0.23418 0.0
C1929 C 0.67019 0.74914 0.24114 0.0
C1930 C 0.66247 0.75242 0.25803 0.0
C1931 C 0.65578 0.76408 0.25688 0.0
C1932 C 0.65711 0.77273 0.23799 0.0
C1933 C 0.66501 0.76966 0.22039 0.0
C1934 C 0.67165 0.75769 0.22207 0.0
H1935 H 0.27268 0.92182 0.31523 0.0
H1936 H 0.29696 0.97632 0.29329 0.0
H1937 H 0.27898 0.96607 0.26104 0.0
H1938 H 0.2701 0.90131 0.26632 0.0
H1939 H 0.24884 0.88215 0.27112 0.0
H1940 H 0.26346 0.89375 0.29262 0.0
H1941 H 0.239 0.8982 0.30972 0.0
H1942 H 0.22425 0.88648 0.28836 0.0
H1943 H 0.22877 0.90859 0.29502 0.0
H1944 H 0.25947 0.94968 0.23039 0.0
H1945 H 0.23834 0.92866 0.20465 0.0
H1946 H 0.22536 0.88515 0.24775 0.0
C1947 C 0.2742 0.93163 0.30369 0.0
C1948 C 0.28628 0.94989 0.30679 0.0
C1949 C 0.28774 0.96227 0.29133 0.0
C1950 C 0.27763 0.95658 0.27291 0.0
C1951 C 0.26597 0.93848 0.27029 0.0
C1952 C 0.26405 0.92621 0.28536 0.0
C1953 C 0.25038 0.90756 0.27884 0.0
C1954 C 0.2587 0.89549 0.27712 0.0
C1955 C 0.23467 0.89975 0.29388 0.0
C1956 C 0.2451 0.91123 0.25763 0.0
C1957 C 0.2543 0.92913 0.25295 0.0
C1958 C 0.25201 0.93566 0.234 0.0
C1959 C 0.23986 0.92359 0.21952 0.0
C1960 C 0.22999 0.90517 0.22411 0.0
C1961 C 0.23276 0.89904 0.24351 0.0
H1962 H 0.68713 0.96287 0.27559 0.0
H1963 H 0.65224 0.92259 0.31888 0.0
H1964 H 0.6507 0.8991 0.29567 0.0
H1965 H 0.66257 0.93849 0.23145 0.0
H1966 H 0.68114 0.94558 0.21432 0.0
H1967 H 0.68213 0.95975 0.23543 0.0
H1968 H 0.71066 0.9606 0.25096 0.0
H1969 H 0.70993 0.94818 0.22812 0.0
H1970 H 0.71069 0.93974 0.25343 0.0
H1971 H 0.65104 0.88 0.26712 0.0
H1972 H 0.654 0.86619 0.23483 0.0
H1973 H 0.68774 0.91842 0.20881 0.0
C1974 C 0.67977 0.94911 0.28044 0.0
C1975 C 0.6704 0.94443 0.29938 0.0
C1976 C 0.65992 0.92633 0.30471 0.0
C1977 C 0.65894 0.91294 0.29162 0.0
C1978 C 0.66809 0.91788 0.27291 0.0
C1979 C 0.67832 0.9355 0.26722 0.0
C1980 C 0.68504 0.93696 0.24511 0.0
C1981 C 0.67725 0.94571 0.23074 0.0
C1982 C 0.7053 0.947 0.24442 0.0
C1983 C 0.6776 0.91748 0.2397 0.0
C1984 C 0.66768 0.90673 0.25589 0.0
C1985 C 0.65891 0.88826 0.2544 0.0
C1986 C 0.66058 0.88054 0.23601 0.0
C1987 C 0.67109 0.89127 0.21947 0.0
C1988 C 0.6797 0.90997 0.22133 0.0
H1989 H 0.07894 0.72424 0.30459 0.0
H1990 H 0.025 0.70249 0.28195 0.0
H1991 H 0.03604 0.72033 0.2498 0.0
H1992 H 0.09355 0.76833 0.2865 0.0
H1993 H 0.1154 0.77245 0.28012 0.0
H1994 H 0.10323 0.7571 0.30058 0.0
H1995 H 0.10691 0.73251 0.28205 0.0
H1996 H 0.11903 0.74777 0.26146 0.0
H1997 H 0.09967 0.72687 0.25535 0.0
H1998 H 0.05322 0.74048 0.21992 0.0
H1999 H 0.07478 0.76277 0.19593 0.0
H2000 H 0.11706 0.77309 0.24005 0.0
C2001 C 0.06943 0.7231 0.29284 0.0
C2002 C 0.05111 0.71188 0.29573 0.0
C2003 C 0.0391 0.711 0.28005 0.0
C2004 C 0.04525 0.72103 0.26172 0.0
C2005 C 0.06341 0.73203 0.25945 0.0
C2006 C 0.07529 0.73325 0.27469 0.0
C2007 C 0.09405 0.74679 0.26903 0.0
C2008 C 0.10202 0.76207 0.28501 0.0
C2009 C 0.10559 0.73795 0.26684 0.0
C2010 C 0.09088 0.75297 0.24816 0.0
C2011 C 0.07317 0.74418 0.24278 0.0
C2012 C 0.06712 0.74756 0.22407 0.0
C2013 C 0.07949 0.76038 0.21061 0.0
C2014 C 0.09772 0.76988 0.21602 0.0
C2015 C 0.10335 0.76597 0.23511 0.0
H2016 H 0.28478 0.34594 0.29174 0.0
H2017 H 0.29082 0.29993 0.27973 0.0
H2018 H 0.27087 0.29228 0.2491 0.0
H2019 H 0.24009 0.32985 0.27737 0.0
H2020 H 0.24473 0.35019 0.26475 0.0
H2021 H 0.25913 0.35049 0.28527 0.0
H2022 H 0.28479 0.36665 0.25797 0.0
H2023 H 0.26908 0.364 0.23779 0.0
H2024 H 0.28391 0.35528 0.2341 0.0
H2025 H 0.24524 0.28611 0.22561 0.0
H2026 H 0.22089 0.28535 0.20511 0.0
H2027 H 0.23544 0.33829 0.22771 0.0
C2028 C 0.28191 0.33433 0.28252 0.0
C2029 C 0.28828 0.3228 0.28866 0.0
C2030 C 0.28514 0.30827 0.2758 0.0
C2031 C 0.27403 0.30397 0.25829 0.0
C2032 C 0.26683 0.31481 0.25346 0.0
C2033 C 0.27115 0.33009 0.26467 0.0
C2034 C 0.26212 0.33978 0.25552 0.0
C2035 C 0.25089 0.34274 0.27174 0.0
C2036 C 0.27579 0.35747 0.24576 0.0
C2037 C 0.25067 0.32659 0.2389 0.0
C2038 C 0.25368 0.31235 0.23789 0.0
C2039 C 0.24324 0.29752 0.22557 0.0
C2040 C 0.2294 0.29726 0.21388 0.0
C2041 C 0.22616 0.31184 0.21438 0.0
C2042 C 0.23728 0.3268 0.22688 0.0
H2043 H 0.2612 0.31127 0.3886 0.0
H2044 H 0.30524 0.36339 0.37443 0.0
H2045 H 0.29549 0.37658 0.40201 0.0
H2046 H 0.22948 0.32469 0.39818 0.0
H2047 H 0.21914 0.30922 0.41921 0.0
H2048 H 0.22997 0.30407 0.3988 0.0
H2049 H 0.24964 0.2998 0.42627 0.0
H2050 H 0.23886 0.30494 0.44679 0.0
H2051 H 0.26257 0.31748 0.44444 0.0
H2052 H 0.27964 0.38405 0.43027 0.0
H2053 H 0.2596 0.38504 0.45668 0.0
H2054 H 0.22734 0.32759 0.45312 0.0
C2055 C 0.26885 0.32548 0.39123 0.0
C2056 C 0.28395 0.33632 0.37925 0.0
C2057 C 0.29364 0.35482 0.38342 0.0
C2058 C 0.2882 0.36242 0.39905 0.0
C2059 C 0.27319 0.3513 0.4105 0.0
C2060 C 0.26376 0.3332 0.40684 0.0
C2061 C 0.24807 0.32407 0.42113 0.0
C2062 C 0.23064 0.31498 0.40858 0.0
C2063 C 0.2499 0.31079 0.43551 0.0
C2064 C 0.2499 0.33989 0.4332 0.0
C2065 C 0.26445 0.35549 0.42694 0.0
C2066 C 0.26832 0.37187 0.43544 0.0
C2067 C 0.25691 0.37228 0.45055 0.0
C2068 C 0.24182 0.3564 0.45703 0.0
C2069 C 0.23857 0.34003 0.44838 0.0
H2070 H 0.68638 0.94851 0.39558 0.0
H2071 H 0.6345 0.94156 0.3806 0.0
H2072 H 0.62186 0.92053 0.40997 0.0
H2073 H 0.6726 0.90426 0.40728 0.0
H2074 H 0.68824 0.90907 0.42829 0.0
H2075 H 0.69336 0.92477 0.40745 0.0
H2076 H 0.69848 0.94936 0.43415 0.0
H2077 H 0.69345 0.93374 0.45513 0.0
H2078 H 0.68132 0.94559 0.45237 0.0
H2079 H 0.61459 0.89813 0.43924 0.0
H2080 H 0.61345 0.8768 0.46576 0.0
H2081 H 0.67037 0.89956 0.46184 0.0
C2082 C 0.67238 0.9428 0.39857 0.0
C2083 C 0.66145 0.94674 0.38573 0.0
C2084 C 0.64319 0.93885 0.39025 0.0
C2085 C 0.63588 0.92688 0.4069 0.0
C2086 C 0.64704 0.92308 0.419 0.0
C2087 C 0.66493 0.93095 0.4151 0.0
C2088 C 0.67399 0.92409 0.42966 0.0
C2089 C 0.68254 0.91501 0.41743 0.0
C2090 C 0.68761 0.93909 0.44366 0.0
C2091 C 0.65835 0.91078 0.44207 0.0
C2092 C 0.64291 0.91044 0.43585 0.0
C2093 C 0.62664 0.89849 0.44444 0.0
C2094 C 0.62614 0.88647 0.45958 0.0
C2095 C 0.64181 0.88646 0.46594 0.0
C2096 C 0.65811 0.89905 0.45723 0.0
H2097 H 0.04724 0.70383 0.40834 0.0
H2098 H 0.06103 0.73878 0.35496 0.0
H2099 H 0.08336 0.76366 0.3762 0.0
H2100 H 0.04878 0.73624 0.44326 0.0
H2101 H 0.05703 0.72956 0.46538 0.0
H2102 H 0.044 0.71351 0.44566 0.0
H2103 H 0.06941 0.70601 0.43895 0.0
H2104 H 0.08098 0.72091 0.46026 0.0
H2105 H 0.09158 0.72436 0.43547 0.0
H2106 H 0.10335 0.78478 0.403 0.0
H2107 H 0.11921 0.80158 0.43439 0.0
H2108 H 0.0907 0.75394 0.47176 0.0
C2109 C 0.05546 0.7166 0.40108 0.0
C2110 C 0.05312 0.71934 0.37984 0.0
C2111 C 0.06315 0.73642 0.37105 0.0
C2112 C 0.0758 0.75058 0.38298 0.0
C2113 C 0.0778 0.74757 0.4039 0.0
C2114 C 0.06785 0.73107 0.413 0.0
C2115 C 0.07117 0.7321 0.43638 0.0
C2116 C 0.05424 0.72758 0.44837 0.0
C2117 C 0.07871 0.72009 0.44313 0.0
C2118 C 0.08488 0.75157 0.4388 0.0
C2119 C 0.08848 0.76019 0.41983 0.0
C2120 C 0.10062 0.7782 0.41797 0.0
C2121 C 0.10946 0.78766 0.43595 0.0
C2122 C 0.1061 0.77915 0.45562 0.0
C2123 C 0.09362 0.76082 0.45697 0.0
H2124 H 0.3559 0.07125 0.73161 0.0
H2125 H 0.30471 0.02433 0.72128 0.0
H2126 H 0.29215 0.03413 0.74932 0.0
H2127 H 0.35273 0.07331 0.78809 0.0
H2128 H 0.36373 0.09726 0.78837 0.0
H2129 H 0.3689 0.08584 0.76855 0.0
H2130 H 0.36137 0.10233 0.73989 0.0
H2131 H 0.35617 0.11378 0.75959 0.0
H2132 H 0.34001 0.10101 0.73982 0.0
H2133 H 0.28477 0.05019 0.77699 0.0
H2134 H 0.28335 0.07098 0.80233 0.0
H2135 H 0.33937 0.10719 0.79411 0.0
C2136 C 0.34209 0.06285 0.73536 0.0
C2137 C 0.33133 0.04696 0.7242 0.0
C2138 C 0.31328 0.03652 0.7296 0.0
C2139 C 0.30601 0.04197 0.74553 0.0
C2140 C 0.31697 0.05783 0.75597 0.0
C2141 C 0.33465 0.06806 0.75115 0.0
C2142 C 0.34345 0.08494 0.76401 0.0
C2143 C 0.35807 0.08535 0.77809 0.0
C2144 C 0.35067 0.10148 0.74999 0.0
C2145 C 0.32791 0.08275 0.77665 0.0
C2146 C 0.31276 0.06701 0.77187 0.0
C2147 C 0.29659 0.06248 0.78098 0.0
C2148 C 0.29589 0.0744 0.79526 0.0
C2149 C 0.31126 0.09064 0.80027 0.0
C2150 C 0.32747 0.09472 0.79091 0.0
H2151 H 0.93301 0.27473 0.71172 0.0
H2152 H 0.98555 0.29106 0.73572 0.0
H2153 H 0.97269 0.27067 0.76564 0.0
H2154 H 0.91442 0.27277 0.76301 0.0
H2155 H 0.89311 0.25421 0.7564 0.0
H2156 H 0.9064 0.26961 0.73648 0.0
H2157 H 0.90549 0.24362 0.71443 0.0
H2158 H 0.89121 0.2287 0.73411 0.0
H2159 H 0.91104 0.22835 0.72722 0.0
H2160 H 0.95405 0.24632 0.79087 0.0
H2161 H 0.93082 0.22353 0.81329 0.0
H2162 H 0.89044 0.22546 0.77504 0.0
C2163 C 0.94173 0.27385 0.72325 0.0
C2164 C 0.96024 0.2836 0.72095 0.0
C2165 C 0.97133 0.2829 0.73675 0.0
C2166 C 0.96414 0.27151 0.75384 0.0
C2167 C 0.94582 0.26133 0.75516 0.0
C2168 C 0.93474 0.26272 0.74057 0.0
C2169 C 0.91551 0.25117 0.74641 0.0
C2170 C 0.90686 0.26262 0.75084 0.0
C2171 C 0.90523 0.23715 0.72951 0.0
C2172 C 0.91752 0.24264 0.76613 0.0
C2173 C 0.93511 0.24854 0.77079 0.0
C2174 C 0.94024 0.24181 0.78761 0.0
C2175 C 0.92702 0.22885 0.80016 0.0
C2176 C 0.90898 0.22298 0.79592 0.0
C2177 C 0.9042 0.22998 0.77872 0.0
H2178 H 0.72535 0.65824 0.72114 0.0
H2179 H 0.70583 0.69334 0.74055 0.0
H2180 H 0.72514 0.70186 0.77187 0.0
H2181 H 0.72648 0.64265 0.7733 0.0
H2182 H 0.74594 0.64077 0.76886 0.0
H2183 H 0.7312 0.638 0.74749 0.0
H2184 H 0.75716 0.66329 0.72668 0.0
H2185 H 0.77166 0.66494 0.74785 0.0
H2186 H 0.7708 0.68436 0.73941 0.0
H2187 H 0.748 0.70793 0.79975 0.0
H2188 H 0.77032 0.70856 0.82456 0.0
H2189 H 0.77305 0.66754 0.78867 0.0
C2190 C 0.72534 0.66785 0.73194 0.0
C2191 C 0.7149 0.67592 0.72803 0.0
C2192 C 0.71449 0.68778 0.74286 0.0
C2193 C 0.72526 0.69253 0.76074 0.0
C2194 C 0.73596 0.68489 0.7638 0.0
C2195 C 0.73587 0.67257 0.75001 0.0
C2196 C 0.7479 0.66561 0.75757 0.0
C2197 C 0.73724 0.64557 0.76207 0.0
C2198 C 0.76274 0.6698 0.74193 0.0
C2199 C 0.75509 0.67625 0.77748 0.0
C2200 C 0.74812 0.68739 0.78071 0.0
C2201 C 0.75337 0.6991 0.79755 0.0
C2202 C 0.76606 0.69942 0.81149 0.0
C2203 C 0.77319 0.68796 0.8086 0.0
C2204 C 0.76754 0.67619 0.79143 0.0
H2205 H 0.74121 0.69244 0.6319 0.0
H2206 H 0.69412 0.64043 0.63494 0.0
H2207 H 0.70478 0.63034 0.60542 0.0
H2208 H 0.74464 0.6944 0.57556 0.0
H2209 H 0.76844 0.7052 0.57581 0.0
H2210 H 0.75703 0.70866 0.59703 0.0
H2211 H 0.77282 0.69817 0.6233 0.0
H2212 H 0.78432 0.69475 0.60218 0.0
H2213 H 0.77129 0.67677 0.61973 0.0
H2214 H 0.72062 0.62543 0.57623 0.0
H2215 H 0.741 0.62611 0.54922 0.0
H2216 H 0.77779 0.68114 0.56478 0.0
C2217 C 0.73309 0.67896 0.62632 0.0
C2218 C 0.71679 0.66728 0.63582 0.0
C2219 C 0.70665 0.64969 0.62802 0.0
C2220 C 0.71256 0.6438 0.6112 0.0
C2221 C 0.72863 0.65562 0.60223 0.0
C2222 C 0.73878 0.67282 0.60948 0.0
C2223 C 0.75573 0.68269 0.59722 0.0
C2224 C 0.7565 0.69868 0.58573 0.0
C2225 C 0.772 0.68843 0.61146 0.0
C2226 C 0.75354 0.66829 0.58208 0.0
C2227 C 0.73779 0.65279 0.58524 0.0
C2228 C 0.73298 0.63749 0.57355 0.0
C2229 C 0.74466 0.63799 0.55832 0.0
C2230 C 0.76094 0.65367 0.55489 0.0
C2231 C 0.76532 0.66904 0.56685 0.0
H2232 H 0.35714 0.05059 0.61393 0.0
H2233 H 0.32788 0.0642 0.65745 0.0
H2234 H 0.33129 0.08865 0.6344 0.0
H2235 H 0.38755 0.09513 0.59049 0.0
H2236 H 0.38394 0.08456 0.56558 0.0
H2237 H 0.38218 0.07211 0.58886 0.0
H2238 H 0.35056 0.04923 0.57337 0.0
H2239 H 0.35278 0.06412 0.55246 0.0
H2240 H 0.33444 0.05646 0.57006 0.0
H2241 H 0.33848 0.11185 0.60748 0.0
H2242 H 0.34605 0.13065 0.57596 0.0
H2243 H 0.36722 0.0998 0.54735 0.0
C2244 C 0.35199 0.05914 0.61876 0.0
C2245 C 0.34312 0.05633 0.6379 0.0
C2246 C 0.33531 0.06675 0.64319 0.0
C2247 C 0.33715 0.08058 0.6302 0.0
C2248 C 0.34612 0.08321 0.61151 0.0
C2249 C 0.35311 0.07259 0.60551 0.0
C2250 C 0.35981 0.07668 0.58328 0.0
C2251 C 0.37954 0.08242 0.58205 0.0
C2252 C 0.34873 0.06067 0.56895 0.0
C2253 C 0.35654 0.092 0.57834 0.0
C2254 C 0.3486 0.09547 0.59488 0.0
C2255 C 0.34459 0.10921 0.59436 0.0
C2256 C 0.34893 0.1198 0.57649 0.0
C2257 C 0.35709 0.11651 0.55944 0.0
C2258 C 0.36086 0.1024 0.56025 0.0
H2259 H 0.94362 0.2534 0.63594 0.0
H2260 H 0.96055 0.30766 0.6171 0.0
H2261 H 0.94104 0.29647 0.58602 0.0
H2262 H 0.93955 0.2346 0.58513 0.0
H2263 H 0.91986 0.21409 0.59124 0.0
H2264 H 0.93566 0.2264 0.61151 0.0
H2265 H 0.91106 0.22743 0.63296 0.0
H2266 H 0.89516 0.21503 0.61283 0.0
H2267 H 0.89803 0.2362 0.62119 0.0
H2268 H 0.92036 0.27915 0.55633 0.0
H2269 H 0.89842 0.25731 0.53193 0.0
H2270 H 0.89284 0.21452 0.57254 0.0
C2271 C 0.94328 0.26295 0.62528 0.0
C2272 C 0.95367 0.28141 0.62889 0.0
C2273 C 0.95267 0.29345 0.61464 0.0
C2274 C 0.94169 0.28723 0.59692 0.0
C2275 C 0.93158 0.26892 0.59387 0.0
C2276 C 0.93211 0.25697 0.6078 0.0
C2277 C 0.91934 0.23798 0.60148 0.0
C2278 C 0.9292 0.22766 0.59707 0.0
C2279 C 0.90505 0.22862 0.6181 0.0
C2280 C 0.91166 0.24111 0.58168 0.0
C2281 C 0.91902 0.25902 0.57743 0.0
C2282 C 0.91433 0.26509 0.55966 0.0
C2283 C 0.9017 0.25253 0.54595 0.0
C2284 C 0.89363 0.23404 0.55022 0.0
C2285 C 0.8988 0.22842 0.56844 0.0
H2286 H 0.33001 0.27313 0.62969 0.0
H2287 H 0.36963 0.32659 0.613 0.0
H2288 H 0.38059 0.31458 0.58539 0.0
H2289 H 0.35454 0.25004 0.62025 0.0
H2290 H 0.33551 0.23112 0.60929 0.0
H2291 H 0.33265 0.24484 0.62821 0.0
H2292 H 0.31194 0.2483 0.60073 0.0
H2293 H 0.31633 0.23554 0.58193 0.0
H2294 H 0.32074 0.25768 0.57559 0.0
H2295 H 0.38923 0.29633 0.56254 0.0
H2296 H 0.39164 0.27383 0.54153 0.0
H2297 H 0.34354 0.23251 0.56971 0.0
C2298 C 0.34107 0.28223 0.62027 0.0
C2299 C 0.34975 0.3007 0.62415 0.0
C2300 C 0.36353 0.31234 0.61092 0.0
C2301 C 0.3697 0.30565 0.59512 0.0
C2302 C 0.36153 0.28729 0.5924 0.0
C2303 C 0.3472 0.27576 0.60422 0.0
C2304 C 0.34001 0.25671 0.59712 0.0
C2305 C 0.34072 0.24501 0.6148 0.0
C2306 C 0.32114 0.24911 0.58831 0.0
C2307 C 0.35302 0.25926 0.58011 0.0
C2308 C 0.3654 0.27697 0.57774 0.0
C2309 C 0.37934 0.28245 0.56386 0.0
C2310 C 0.38052 0.26951 0.55188 0.0
C2311 C 0.3677 0.25123 0.55359 0.0
C2312 C 0.35375 0.24622 0.56797 0.0
H2313 H 0.73442 0.04073 0.62767 0.0
H2314 H 0.69263 0.05401 0.63534 0.0
H2315 H 0.70479 0.0753 0.6063 0.0
H2316 H 0.76878 0.0843 0.61623 0.0
H2317 H 0.77912 0.07725 0.59711 0.0
H2318 H 0.7668 0.06257 0.61803 0.0
H2319 H 0.74716 0.03825 0.59125 0.0
H2320 H 0.75946 0.05284 0.57023 0.0
H2321 H 0.73579 0.04337 0.57109 0.0
H2322 H 0.7224 0.09632 0.57776 0.0
H2323 H 0.74364 0.11496 0.5511 0.0
H2324 H 0.77312 0.0869 0.5607 0.0
C2325 C 0.72773 0.04802 0.62321 0.0
C2326 C 0.71253 0.04565 0.63386 0.0
C2327 C 0.70424 0.0555 0.62744 0.0
C2328 C 0.71106 0.06766 0.61095 0.0
C2329 C 0.7261 0.06973 0.60091 0.0
C2330 C 0.73427 0.06011 0.60669 0.0
C2331 C 0.75038 0.06498 0.59349 0.0
C2332 C 0.76727 0.07274 0.60703 0.0
C2333 C 0.74805 0.0489 0.58076 0.0
C2334 C 0.75013 0.07904 0.57956 0.0
C2335 C 0.73602 0.08156 0.5841 0.0
C2336 C 0.73336 0.09428 0.57384 0.0
C2337 C 0.74547 0.10472 0.55855 0.0
C2338 C 0.76005 0.10235 0.55348 0.0
C2339 C 0.76224 0.0892 0.56417 0.0
H2340 H 0.94383 0.68426 0.63544 0.0
H2341 H 0.95627 0.64274 0.62097 0.0
H2342 H 0.93589 0.63364 0.59059 0.0
H2343 H 0.89761 0.66174 0.6197 0.0
H2344 H 0.89926 0.68163 0.60866 0.0
H2345 H 0.91369 0.68318 0.62986 0.0
H2346 H 0.94038 0.70419 0.60648 0.0
H2347 H 0.92558 0.70155 0.58523 0.0
H2348 H 0.943 0.69624 0.58154 0.0
H2349 H 0.91272 0.62796 0.56329 0.0
H2350 H 0.89126 0.62856 0.53801 0.0
H2351 H 0.89621 0.67561 0.56828 0.0
C2352 C 0.94204 0.67313 0.62595 0.0
C2353 C 0.95071 0.66347 0.63105 0.0
C2354 C 0.94889 0.6496 0.61783 0.0
C2355 C 0.93752 0.64448 0.60048 0.0
C2356 C 0.92854 0.65379 0.5963 0.0
C2357 C 0.93093 0.66804 0.6084 0.0
C2358 C 0.92062 0.67654 0.59969 0.0
C2359 C 0.907 0.67572 0.61543 0.0
C2360 C 0.93314 0.69577 0.59283 0.0
C2361 C 0.9117 0.66455 0.58114 0.0
C2362 C 0.91633 0.65142 0.57955 0.0
C2363 C 0.90916 0.63831 0.56418 0.0
C2364 C 0.89699 0.63871 0.54998 0.0
C2365 C 0.89234 0.65224 0.55115 0.0
C2366 C 0.89984 0.66532 0.56688 0.0
H2367 H 0.92973 0.65478 0.72969 0.0
H2368 H 0.97451 0.70708 0.71803 0.0
H2369 H 0.96402 0.71968 0.74543 0.0
H2370 H 0.89807 0.6688 0.73823 0.0
H2371 H 0.88676 0.65271 0.75841 0.0
H2372 H 0.89809 0.64795 0.73824 0.0
H2373 H 0.91645 0.64226 0.76622 0.0
H2374 H 0.90518 0.64701 0.78649 0.0
H2375 H 0.92896 0.65922 0.78533 0.0
H2376 H 0.9478 0.72656 0.77384 0.0
H2377 H 0.92793 0.72685 0.80108 0.0
H2378 H 0.8942 0.66993 0.79356 0.0
C2379 C 0.93745 0.66889 0.73286 0.0
C2380 C 0.953 0.67992 0.72162 0.0
C2381 C 0.96259 0.69832 0.72641 0.0
C2382 C 0.95672 0.70561 0.74195 0.0
C2383 C 0.94127 0.69432 0.75261 0.0
C2384 C 0.93184 0.67634 0.74828 0.0
C2385 C 0.91561 0.66699 0.76176 0.0
C2386 C 0.89863 0.65862 0.74836 0.0
C2387 C 0.91662 0.65305 0.77578 0.0
C2388 C 0.91729 0.68252 0.77437 0.0
C2389 C 0.93214 0.6982 0.76889 0.0
C2390 C 0.93618 0.71433 0.77827 0.0
C2391 C 0.92479 0.71439 0.79365 0.0
C2392 C 0.90957 0.69841 0.79957 0.0
C2393 C 0.90587 0.68233 0.78969 0.0
H2394 H 0.35679 0.29571 0.73147 0.0
H2395 H 0.30711 0.2725 0.69713 0.0
H2396 H 0.29417 0.24765 0.72211 0.0
H2397 H 0.35614 0.25554 0.74487 0.0
H2398 H 0.36507 0.26256 0.77076 0.0
H2399 H 0.37043 0.2788 0.75046 0.0
H2400 H 0.35884 0.29562 0.77309 0.0
H2401 H 0.35353 0.27947 0.79352 0.0
H2402 H 0.33668 0.28382 0.78314 0.0
H2403 H 0.28753 0.22413 0.74877 0.0
H2404 H 0.28653 0.20463 0.77715 0.0
H2405 H 0.33938 0.24467 0.79688 0.0
C2406 C 0.34317 0.28544 0.72931 0.0
C2407 C 0.33295 0.286 0.71235 0.0
C2408 C 0.31513 0.27239 0.71009 0.0
C2409 C 0.30769 0.25819 0.72415 0.0
C2410 C 0.31813 0.25796 0.74061 0.0
C2411 C 0.33538 0.27134 0.74348 0.0
C2412 C 0.3436 0.26794 0.76265 0.0
C2413 C 0.35977 0.2661 0.75683 0.0
C2414 C 0.34844 0.28258 0.77907 0.0
C2415 C 0.32839 0.25036 0.7698 0.0
C2416 C 0.31389 0.24481 0.75678 0.0
C2417 C 0.29865 0.22851 0.75941 0.0
C2418 C 0.29817 0.21757 0.77582 0.0
C2419 C 0.31274 0.22305 0.78979 0.0
C2420 C 0.32799 0.23982 0.78663 0.0
H2421 H 0.72003 0.06557 0.71684 0.0
H2422 H 0.70318 0.01253 0.7399 0.0
H2423 H 0.72337 0.02518 0.77027 0.0
H2424 H 0.76602 0.08701 0.73313 0.0
H2425 H 0.76607 0.10712 0.74033 0.0
H2426 H 0.75116 0.09302 0.72028 0.0
H2427 H 0.7254 0.09237 0.74184 0.0
H2428 H 0.74069 0.10556 0.76215 0.0
H2429 H 0.72201 0.08424 0.76824 0.0
H2430 H 0.74738 0.04365 0.79622 0.0
H2431 H 0.77038 0.0668 0.81897 0.0
H2432 H 0.76925 0.10781 0.78107 0.0
C2433 C 0.72077 0.0567 0.72825 0.0
C2434 C 0.71091 0.0381 0.7256 0.0
C2435 C 0.71143 0.02681 0.74122 0.0
C2436 C 0.72269 0.03387 0.75857 0.0
C2437 C 0.73291 0.05228 0.7603 0.0
C2438 C 0.73177 0.06356 0.74582 0.0
C2439 C 0.74341 0.08285 0.75201 0.0
C2440 C 0.75748 0.09308 0.73543 0.0
C2441 C 0.73221 0.09178 0.75632 0.0
C2442 C 0.75169 0.08064 0.77187 0.0
C2443 C 0.74555 0.0629 0.77629 0.0
C2444 C 0.75205 0.05757 0.79316 0.0
C2445 C 0.7651 0.07075 0.80591 0.0
C2446 C 0.77128 0.08894 0.80184 0.0
C2447 C 0.76443 0.09393 0.78467 0.0
H2448 H 0.05905 0.36524 0.04745 0.0
H2449 H 0.01388 0.31388 0.0322 0.0
H2450 H 0.02625 0.29921 0.05453 0.0
H2451 H 0.09144 0.35167 0.04715 0.0
H2452 H 0.10391 0.36575 0.0687 0.0
H2453 H 0.09116 0.37208 0.05203 0.0
H2454 H 0.07446 0.37431 0.08413 0.0
H2455 H 0.08717 0.368 0.10092 0.0
H2456 H 0.06336 0.35546 0.10122 0.0
H2457 H 0.04444 0.2902 0.07769 0.0
H2458 H 0.06669 0.2877 0.09958 0.0
H2459 H 0.09899 0.3452 0.10026 0.0
C2460 C 0.05167 0.3509 0.04877 0.0
C2461 C 0.03548 0.34073 0.038 0.0
C2462 C 0.02629 0.32199 0.04031 0.0
C2463 C 0.03321 0.31353 0.05296 0.0
C2464 C 0.04925 0.32401 0.06329 0.0
C2465 C 0.05829 0.3423 0.06136 0.0
C2466 C 0.07534 0.3506 0.07384 0.0
C2467 C 0.09141 0.36061 0.05957 0.0
C2468 C 0.07506 0.36281 0.09105 0.0
C2469 C 0.07463 0.33411 0.08291 0.0
C2470 C 0.05949 0.31889 0.07672 0.0
C2471 C 0.05627 0.30205 0.08277 0.0
C2472 C 0.06893 0.30077 0.09531 0.0
C2473 C 0.08462 0.31625 0.10165 0.0
C2474 C 0.08728 0.33309 0.09549 0.0
H2475 H 0.66415 0.68417 0.0663 0.0
H2476 H 0.66705 0.69878 1.00115 0.0
H2477 H 0.67367 0.72904 0.01156 0.0
H2478 H 0.64169 0.70652 0.08278 0.0
H2479 H 0.65284 0.71322 0.10767 0.0
H2480 H 0.6501 0.69339 0.09514 0.0
H2481 H 0.68393 0.70556 0.09702 0.0
H2482 H 0.68677 0.7254 0.10968 0.0
H2483 H 0.69866 0.72707 0.08615 0.0
H2484 H 0.67894 0.75747 0.02934 0.0
H2485 H 0.68114 0.78118 0.0528 0.0
H2486 H 0.67348 0.74732 0.10617 0.0
C2487 C 0.66651 0.69382 0.0542 0.0
C2488 C 0.6653 0.68919 0.03289 0.0
C2489 C 0.66804 0.70209 0.01755 0.0
C2490 C 0.67182 0.7193 0.02333 0.0
C2491 C 0.67266 0.72335 0.0445 0.0
C2492 C 0.67003 0.71094 0.05968 0.0
C2493 C 0.6705 0.7182 0.08129 0.0
C2494 C 0.65272 0.70718 0.09236 0.0
C2495 C 0.68588 0.71911 0.0943 0.0
C2496 C 0.67365 0.7366 0.07594 0.0
C2497 C 0.67508 0.73942 0.05466 0.0
C2498 C 0.67791 0.75542 0.04602 0.0
C2499 C 0.6792 0.76883 0.05946 0.0
C2500 C 0.67748 0.7661 0.0813 0.0
C2501 C 0.67473 0.74976 0.08954 0.0
H2502 H 0.29806 0.95195 0.03835 0.0
H2503 H 0.30107 0.00149 0.05738 0.0
H2504 H 0.27313 0.98471 0.07669 0.0
H2505 H 0.24961 0.9251 0.03376 0.0
H2506 H 0.24916 0.90563 0.04461 0.0
H2507 H 0.26813 0.92145 0.03019 0.0
H2508 H 0.28842 0.92478 0.06171 0.0
H2509 H 0.26953 0.90907 0.07624 0.0
H2510 H 0.28386 0.93091 0.08679 0.0
H2511 H 0.24559 0.96256 0.09519 0.0
H2512 H 0.22159 0.93679 0.11335 0.0
H2513 H 0.23768 0.90189 0.08408 0.0
C2514 C 0.29259 0.95922 0.04619 0.0
C2515 C 0.30152 0.97798 0.04617 0.0
C2516 C 0.29431 0.9871 0.05712 0.0
C2517 C 0.27845 0.97768 0.06806 0.0
C2518 C 0.27009 0.95918 0.0681 0.0
C2519 C 0.27697 0.95004 0.05755 0.0
C2520 C 0.2663 0.93024 0.06159 0.0
C2521 C 0.25779 0.92 0.04133 0.0
C2522 C 0.27771 0.92335 0.07222 0.0
C2523 C 0.2525 0.9297 0.07626 0.0
C2524 C 0.25473 0.94649 0.07954 0.0
C2525 C 0.24368 0.94934 0.09268 0.0
C2526 C 0.23008 0.93466 0.10288 0.0
C2527 C 0.22786 0.91743 0.10012 0.0
C2528 C 0.23917 0.91496 0.08653 0.0
H2529 H 0.36461 0.06394 0.97384 0.0
H2530 H 0.31348 0.01841 0.98766 0.0
H2531 H 0.29883 0.03202 0.96752 0.0
H2532 H 0.35176 0.09694 0.97804 0.0
H2533 H 0.36534 0.11018 0.95682 0.0
H2534 H 0.37179 0.09662 0.97179 0.0
H2535 H 0.37302 0.08087 0.93802 0.0
H2536 H 0.36667 0.09447 0.92292 0.0
H2537 H 0.35389 0.07059 0.92108 0.0
H2538 H 0.28975 0.05138 0.94704 0.0
H2539 H 0.28705 0.07427 0.9268 0.0
H2540 H 0.34427 0.10639 0.92542 0.0
C2541 C 0.35033 0.05674 0.9726 0.0
C2542 C 0.34022 0.04008 0.98239 0.0
C2543 C 0.32155 0.03115 0.98026 0.0
C2544 C 0.31309 0.03879 0.96889 0.0
C2545 C 0.32348 0.05531 0.95962 0.0
C2546 C 0.3417 0.06409 0.96123 0.0
C2547 C 0.34987 0.08171 0.94989 0.0
C2548 C 0.3603 0.09728 0.96504 0.0
C2549 C 0.36155 0.08191 0.93191 0.0
C2550 C 0.33339 0.08157 0.94182 0.0
C2551 C 0.3183 0.06626 0.9476 0.0
C2552 C 0.3015 0.06335 0.94226 0.0
C2553 C 0.30011 0.07641 0.93064 0.0
C2554 C 0.31543 0.09217 0.92439 0.0
C2555 C 0.33226 0.09465 0.93012 0.0
H2556 H 0.94987 0.29469 0.98603 0.0
H2557 H 0.99684 0.31038 0.94901 0.0
H2558 H 0.98008 0.28463 0.926 0.0
H2559 H 0.9323 0.24609 0.98095 0.0
H2560 H 0.90969 0.24139 0.97926 0.0
H2561 H 0.92569 0.26031 0.99402 0.0
H2562 H 0.91794 0.28084 0.97219 0.0
H2563 H 0.90207 0.26204 0.95723 0.0
H2564 H 0.91956 0.28091 0.94419 0.0
H2565 H 0.95802 0.25934 0.90498 0.0
H2566 H 0.93218 0.23439 0.88839 0.0
H2567 H 0.89934 0.2335 0.93958 0.0
C2568 C 0.95668 0.29248 0.97333 0.0
C2569 C 0.97467 0.30456 0.96935 0.0
C2570 C 0.98307 0.30134 0.9524 0.0
C2571 C 0.97367 0.28673 0.93921 0.0
C2572 C 0.95588 0.27534 0.9432 0.0
C2573 C 0.94747 0.27786 0.95996 0.0
C2574 C 0.92804 0.26386 0.96017 0.0
C2575 C 0.92368 0.25222 0.97977 0.0
C2576 C 0.91621 0.27243 0.95833 0.0
C2577 C 0.92686 0.2534 0.94068 0.0
C2578 C 0.94311 0.26029 0.9312 0.0
C2579 C 0.94528 0.25355 0.91248 0.0
C2580 C 0.93049 0.23926 0.90323 0.0
C2581 C 0.91366 0.23165 0.91276 0.0
C2582 C 0.91193 0.23894 0.93179 0.0
H2583 H 0.70312 0.66373 0.99067 0.0
H2584 H 0.68654 0.6077 0.999 0.0
H2585 H 0.71091 0.61106 0.97736 0.0
H2586 H 0.71692 0.66714 0.9376 0.0
H2587 H 0.73626 0.68874 0.94035 0.0
H2588 H 0.71749 0.68254 0.95691 0.0
H2589 H 0.73745 0.68921 0.98964 0.0
H2590 H 0.75631 0.69561 0.97317 0.0
H2591 H 0.75075 0.67859 0.99256 0.0
H2592 H 0.73504 0.61906 0.95305 0.0
H2593 H 0.76092 0.63256 0.93046 0.0
H2594 H 0.76482 0.68428 0.93918 0.0
C2595 C 0.70474 0.65224 0.98809 0.0
C2596 C 0.69273 0.63544 0.99662 0.0
C2597 C 0.69542 0.62076 0.99283 0.0
C2598 C 0.70924 0.62245 0.9804 0.0
C2599 C 0.72057 0.63898 0.97198 0.0
C2600 C 0.7188 0.65374 0.97586 0.0
C2601 C 0.73335 0.66999 0.96504 0.0
C2602 C 0.72553 0.67754 0.94902 0.0
C2603 C 0.74517 0.68419 0.98106 0.0
C2604 C 0.74329 0.66186 0.95437 0.0
C2605 C 0.73546 0.64391 0.95852 0.0
C2606 C 0.74159 0.6332 0.95003 0.0
C2607 C 0.75644 0.64107 0.9373 0.0
C2608 C 0.76535 0.65962 0.93339 0.0
C2609 C 0.75844 0.67009 0.94186 0.0
H2610 H 0.95426 0.66073 0.99053 0.0
H2611 H 0.99942 0.68915 0.95002 0.0
H2612 H 0.98254 0.69935 0.92872 0.0
H2613 H 0.92161 0.64563 0.95061 0.0
H2614 H 0.90553 0.64838 0.96527 0.0
H2615 H 0.92142 0.64418 0.97865 0.0
H2616 H 0.93178 0.67275 1.00068 0.0
H2617 H 0.91582 0.67697 0.98746 0.0
H2618 H 0.93886 0.69369 0.98774 0.0
H2619 H 0.96064 0.70461 0.91011 0.0
H2620 H 0.93489 0.70567 0.89576 0.0
H2621 H 0.90362 0.67508 0.94853 0.0
C2622 C 0.96064 0.66932 0.97738 0.0
C2623 C 0.97817 0.67412 0.97196 0.0
C2624 C 0.986 0.68523 0.95448 0.0
C2625 C 0.97654 0.69115 0.94226 0.0
C2626 C 0.95923 0.68594 0.94771 0.0
C2627 C 0.95132 0.6754 0.96489 0.0
C2628 C 0.93226 0.67131 0.96665 0.0
C2629 C 0.91945 0.65118 0.9652 0.0
C2630 C 0.92952 0.67915 0.98683 0.0
C2631 C 0.93072 0.68093 0.94758 0.0
C2632 C 0.94649 0.6893 0.93698 0.0
C2633 C 0.94828 0.6984 0.91845 0.0
C2634 C 0.93355 0.69903 0.9105 0.0
C2635 C 0.91718 0.69072 0.9211 0.0
C2636 C 0.91586 0.68157 0.93996 0.0
H2637 H 0.36277 0.30881 0.97253 0.0
H2638 H 0.3105 0.3005 0.98697 0.0
H2639 H 0.29709 0.27267 0.96646 0.0
H2640 H 0.35257 0.29254 0.91956 0.0
H2641 H 0.36637 0.28237 0.9206 0.0
H2642 H 0.3718 0.30164 0.93636 0.0
H2643 H 0.37168 0.28432 0.96945 0.0
H2644 H 0.36618 0.26498 0.95382 0.0
H2645 H 0.35232 0.26344 0.97534 0.0
H2646 H 0.2894 0.24512 0.94555 0.0
H2647 H 0.28794 0.22064 0.92445 0.0
H2648 H 0.34531 0.2479 0.92212 0.0
C2649 C 0.34849 0.30117 0.9714 0.0
C2650 C 0.3377 0.30685 0.98144 0.0
C2651 C 0.31907 0.29648 0.97939 0.0
C2652 C 0.31132 0.28062 0.96782 0.0
C2653 C 0.32237 0.27539 0.95824 0.0
C2654 C 0.34055 0.28543 0.95977 0.0
C2655 C 0.34946 0.27696 0.94782 0.0
C2656 C 0.36071 0.2891 0.93003 0.0
C2657 C 0.36056 0.27214 0.96249 0.0
C2658 C 0.33344 0.26048 0.93948 0.0
C2659 C 0.31794 0.2598 0.94572 0.0
C2660 C 0.30145 0.24562 0.94035 0.0
C2661 C 0.30078 0.23183 0.92821 0.0
C2662 C 0.3165 0.23232 0.92136 0.0
C2663 C 0.33302 0.24694 0.92717 0.0
H2664 H 0.69882 0.02822 0.95772 0.0
H2665 H 0.71326 0.05355 0.01852 0.0
H2666 H 0.74164 0.07674 0.00448 0.0
H2667 H 0.74402 0.03889 0.9418 0.0
H2668 H 0.74033 0.04301 0.91517 0.0
H2669 H 0.72212 0.02712 0.93055 0.0
H2670 H 0.70506 0.04408 0.92278 0.0
H2671 H 0.72324 0.06008 0.90754 0.0
H2672 H 0.7152 0.06741 0.92903 0.0
H2673 H 0.76698 0.09858 0.98345 0.0
H2674 H 0.78813 0.11753 0.95675 0.0
H2675 H 0.75725 0.07862 0.90919 0.0
C2676 C 0.70817 0.03839 0.96818 0.0
C2677 C 0.70393 0.03902 0.98925 0.0
C2678 C 0.71629 0.05278 0.00235 0.0
C2679 C 0.73246 0.06599 0.99453 0.0
C2680 C 0.73606 0.06528 0.97357 0.0
C2681 C 0.72435 0.0518 0.96056 0.0
C2682 C 0.73092 0.05493 0.9383 0.0
C2683 C 0.73457 0.04011 0.93103 0.0
C2684 C 0.71782 0.05673 0.92355 0.0
C2685 C 0.74793 0.07245 0.94078 0.0
C2686 C 0.75069 0.07808 0.96129 0.0
C2687 C 0.76505 0.09425 0.96736 0.0
C2688 C 0.77691 0.10498 0.95206 0.0
C2689 C 0.77432 0.09958 0.93089 0.0
C2690 C 0.7597 0.08299 0.92528 0.0
H2691 H 0.6375 0.94512 0.05075 0.0
H2692 H 0.6896 0.9906 0.04105 0.0
H2693 H 0.70307 0.97465 0.05877 0.0
H2694 H 0.64672 0.93317 0.10195 0.0
H2695 H 0.63328 0.90968 0.09702 0.0
H2696 H 0.62791 0.92515 0.08457 0.0
H2697 H 0.6291 0.91241 0.04847 0.0
H2698 H 0.63463 0.89702 0.06076 0.0
H2699 H 0.64884 0.91197 0.04104 0.0
H2700 H 0.71082 0.95274 0.07583 0.0
H2701 H 0.7121 0.92736 0.09191 0.0
H2702 H 0.65476 0.89691 0.09096 0.0
C2703 C 0.65175 0.95186 0.05248 0.0
C2704 C 0.66247 0.96915 0.04447 0.0
C2705 C 0.68107 0.97741 0.04713 0.0
C2706 C 0.68885 0.96843 0.05712 0.0
C2707 C 0.67786 0.95128 0.0645 0.0
C2708 C 0.65969 0.94318 0.06245 0.0
C2709 C 0.65077 0.92457 0.07133 0.0
C2710 C 0.63898 0.92306 0.08982 0.0
C2711 C 0.64022 0.91068 0.05439 0.0
C2712 C 0.66676 0.92332 0.07841 0.0
C2713 C 0.68228 0.93884 0.07441 0.0
C2714 C 0.69874 0.94059 0.07922 0.0
C2715 C 0.69932 0.92612 0.08842 0.0
C2716 C 0.68353 0.91009 0.09272 0.0
C2717 C 0.66709 0.90883 0.08765 0.0
H2718 H 0.04088 0.6961 0.05851 0.0
H2719 H 0.05171 0.71928 0.99685 0.0
H2720 H 0.06878 0.74939 0.01241 0.0
H2721 H 0.038 0.73274 0.08561 0.0
H2722 H 0.04889 0.73073 0.10867 0.0
H2723 H 0.03552 0.71144 0.09278 0.0
H2724 H 0.06209 0.7059 0.08911 0.0
H2725 H 0.07556 0.7252 0.10484 0.0
H2726 H 0.0827 0.72336 0.07913 0.0
H2727 H 0.08696 0.77639 0.03451 0.0
H2728 H 0.10551 0.79831 0.06125 0.0
H2729 H 0.08291 0.75744 0.10871 0.0
C2730 C 0.04645 0.70762 0.04842 0.0
C2731 C 0.04481 0.70565 0.02661 0.0
C2732 C 0.05266 0.72077 0.01365 0.0
C2733 C 0.06233 0.73784 0.02234 0.0
C2734 C 0.06398 0.73942 0.04399 0.0
C2735 C 0.05621 0.72472 0.05687 0.0
C2736 C 0.06126 0.72987 0.07947 0.0
C2737 C 0.04494 0.72597 0.09239 0.0
C2738 C 0.07098 0.72053 0.08866 0.0
C2739 C 0.07353 0.74966 0.07724 0.0
C2740 C 0.07471 0.75496 0.05671 0.0
C2741 C 0.08593 0.77246 0.05068 0.0
C2742 C 0.09636 0.78484 0.06601 0.0
C2743 C 0.09562 0.77963 0.08711 0.0
C2744 C 0.08382 0.76183 0.09273 0.0
H2745 H 0.30145 0.33214 0.06814 0.0
H2746 H 0.28587 0.33693 0.00507 0.0
H2747 H 0.25633 0.32988 0.0176 0.0
H2748 H 0.25828 0.29624 0.08536 0.0
H2749 H 0.26075 0.30561 0.11105 0.0
H2750 H 0.27999 0.30917 0.09681 0.0
H2751 H 0.2933 0.34321 0.10108 0.0
H2752 H 0.27407 0.33977 0.11517 0.0
H2753 H 0.28079 0.35359 0.09227 0.0
H2754 H 0.22915 0.32376 0.03704 0.0
H2755 H 0.20625 0.3198 0.06235 0.0
H2756 H 0.23985 0.3202 0.11304 0.0
C2757 C 0.29167 0.33132 0.05693 0.0
C2758 C 0.29581 0.33488 0.03562 0.0
C2759 C 0.28288 0.33416 0.02146 0.0
C2760 C 0.26609 0.33014 0.02842 0.0
C2761 C 0.26251 0.32703 0.04959 0.0
C2762 C 0.27493 0.3276 0.06367 0.0
C2763 C 0.26812 0.32499 0.08578 0.0
C2764 C 0.2667 0.30799 0.0953 0.0
C2765 C 0.27976 0.34137 0.09937 0.0
C2766 C 0.25004 0.32306 0.08193 0.0
C2767 C 0.247 0.32406 0.06093 0.0
C2768 C 0.23132 0.32285 0.05352 0.0
C2769 C 0.21839 0.32055 0.06799 0.0
C2770 C 0.2213 0.31967 0.0896 0.0
C2771 C 0.23734 0.32094 0.09661 0.0
H2772 H 0.69664 0.67491 0.39399 0.0
H2773 H 0.71867 0.67997 0.33247 0.0
H2774 H 0.74006 0.67149 0.3465 0.0
H2775 H 0.73671 0.6945 0.42069 0.0
H2776 H 0.72917 0.68036 0.4433 0.0
H2777 H 0.7138 0.68408 0.42809 0.0
H2778 H 0.69388 0.65013 0.42291 0.0
H2779 H 0.70915 0.64628 0.43826 0.0
H2780 H 0.70319 0.63728 0.41227 0.0
H2781 H 0.76099 0.66604 0.36746 0.0
H2782 H 0.78024 0.66351 0.39417 0.0
H2783 H 0.74508 0.66205 0.44261 0.0
C2784 C 0.70564 0.67364 0.38348 0.0
C2785 C 0.70598 0.67778 0.36216 0.0
C2786 C 0.71822 0.67666 0.34881 0.0
C2787 C 0.73035 0.67181 0.35664 0.0
C2788 C 0.73002 0.66819 0.37785 0.0
C2789 C 0.71794 0.66893 0.39111 0.0
C2790 C 0.72152 0.66599 0.41355 0.0
C2791 C 0.72554 0.6822 0.4272 0.0
C2792 C 0.70601 0.6489 0.42226 0.0
C2793 C 0.73778 0.66401 0.41086 0.0
C2794 C 0.74231 0.66514 0.39009 0.0
C2795 C 0.75745 0.66488 0.38374 0.0
C2796 C 0.76835 0.66356 0.399 0.0
C2797 C 0.7641 0.66257 0.42038 0.0
C2798 C 0.74846 0.66252 0.42634 0.0
H2799 H 0.34754 0.03252 0.40104 0.0
H2800 H 0.33888 0.04518 0.33806 0.0
H2801 H 0.34651 0.07539 0.34956 0.0
H2802 H 0.3278 0.0539 0.42613 0.0
H2803 H 0.34298 0.06196 0.44794 0.0
H2804 H 0.33911 0.04214 0.43439 0.0
H2805 H 0.37266 0.05597 0.4276 0.0
H2806 H 0.37666 0.07583 0.44128 0.0
H2807 H 0.38435 0.0773 0.41497 0.0
H2808 H 0.35217 0.10304 0.36841 0.0
H2809 H 0.35609 0.12654 0.3932 0.0
H2810 H 0.36075 0.09596 0.44416 0.0
C2811 C 0.34771 0.0418 0.38956 0.0
C2812 C 0.34276 0.03654 0.36859 0.0
C2813 C 0.34272 0.04895 0.35416 0.0
C2814 C 0.34705 0.06614 0.36055 0.0
C2815 C 0.35142 0.07076 0.38143 0.0
C2816 C 0.35189 0.059 0.39571 0.0
C2817 C 0.35577 0.06687 0.41751 0.0
C2818 C 0.3405 0.05554 0.43236 0.0
C2819 C 0.37341 0.06913 0.42582 0.0
C2820 C 0.35702 0.08472 0.41331 0.0
C2821 C 0.35459 0.08673 0.39237 0.0
C2822 C 0.35427 0.1017 0.38481 0.0
C2823 C 0.35638 0.11491 0.39903 0.0
C2824 C 0.35874 0.1131 0.4206 0.0
C2825 C 0.35926 0.09785 0.42773 0.0
H2826 H 0.9665 0.30681 0.40047 0.0
H2827 H 0.9489 0.29034 0.33686 0.0
H2828 H 0.91948 0.26798 0.34959 0.0
H2829 H 0.94612 0.26372 0.42103 0.0
H2830 H 0.94028 0.26944 0.44558 0.0
H2831 H 0.95908 0.28585 0.43152 0.0
H2832 H 0.94591 0.30701 0.43175 0.0
H2833 H 0.92708 0.29068 0.44594 0.0
H2834 H 0.92388 0.2993 0.42166 0.0
H2835 H 0.89276 0.24626 0.36914 0.0
H2836 H 0.87099 0.2255 0.39423 0.0
H2837 H 0.90632 0.2549 0.44537 0.0
C2838 C 0.95628 0.2988 0.38924 0.0
C2839 C 0.95981 0.30043 0.36767 0.0
C2840 C 0.94635 0.28934 0.35343 0.0
C2841 C 0.92962 0.27666 0.36051 0.0
C2842 C 0.92663 0.2751 0.38191 0.0
C2843 C 0.93959 0.2858 0.39609 0.0
C2844 C 0.93348 0.28025 0.41829 0.0
C2845 C 0.94545 0.27447 0.42977 0.0
C2846 C 0.93253 0.2952 0.4301 0.0
C2847 C 0.9152 0.2646 0.41433 0.0
C2848 C 0.91141 0.26206 0.39325 0.0
C2849 C 0.89551 0.2482 0.3857 0.0
C2850 C 0.8832 0.23652 0.40007 0.0
C2851 C 0.88693 0.23863 0.42174 0.0
C2852 C 0.90313 0.25295 0.4289 0.0
H2853 H 0.02612 0.39314 0.30494 0.0
H2854 H 0.97428 0.34703 0.3137 0.0
H2855 H 0.96096 0.36126 0.2922 0.0
H2856 H 0.01273 0.42592 0.30769 0.0
H2857 H 0.02783 0.43985 0.28793 0.0
H2858 H 0.0332 0.42585 0.30365 0.0
H2859 H 0.03704 0.41128 0.27029 0.0
H2860 H 0.03172 0.42527 0.25445 0.0
H2861 H 0.01923 0.40146 0.25148 0.0
H2862 H 0.95329 0.38122 0.27043 0.0
H2863 H 0.95201 0.40481 0.24993 0.0
H2864 H 0.00912 0.43707 0.25464 0.0
C2865 C 0.01196 0.38596 0.30237 0.0
C2866 C 0.00126 0.36894 0.3111 0.0
C2867 C 0.98278 0.36005 0.30718 0.0
C2868 C 0.97509 0.36804 0.295 0.0
C2869 C 0.98605 0.38486 0.28673 0.0
C2870 C 0.0041 0.39365 0.29019 0.0
C2871 C 0.01301 0.41161 0.27962 0.0
C2872 C 0.02223 0.4267 0.29568 0.0
C2873 C 0.02601 0.41244 0.26297 0.0
C2874 C 0.99714 0.41167 0.26981 0.0
C2875 C 0.98169 0.39615 0.27406 0.0
C2876 C 0.96533 0.39337 0.26689 0.0
C2877 C 0.96475 0.40682 0.25513 0.0
C2878 C 0.98045 0.42287 0.2506 0.0
C2879 C 0.99682 0.42514 0.25802 0.0
H2880 H 0.61159 0.62911 0.32283 0.0
H2881 H 0.65985 0.63772 0.29334 0.0
H2882 H 0.64282 0.61 0.27297 0.0
H2883 H 0.58879 0.58025 0.32449 0.0
H2884 H 0.56761 0.57818 0.31808 0.0
H2885 H 0.58387 0.59739 0.33219 0.0
H2886 H 0.58187 0.61794 0.30409 0.0
H2887 H 0.5657 0.59882 0.28985 0.0
H2888 H 0.58561 0.61496 0.27717 0.0
H2889 H 0.62034 0.58198 0.25488 0.0
H2890 H 0.59388 0.55699 0.23852 0.0
H2891 H 0.56016 0.56801 0.27795 0.0
C2892 C 0.61859 0.6249 0.31244 0.0
C2893 C 0.63703 0.63531 0.30984 0.0
C2894 C 0.64572 0.62978 0.29562 0.0
C2895 C 0.63617 0.61406 0.28406 0.0
C2896 C 0.61793 0.60421 0.28671 0.0
C2897 C 0.6092 0.60948 0.30043 0.0
C2898 C 0.58937 0.59745 0.29895 0.0
C2899 C 0.58198 0.58774 0.31966 0.0
C2900 C 0.5801 0.60792 0.2921 0.0
C2901 C 0.58829 0.58471 0.28211 0.0
C2902 C 0.60492 0.58863 0.27551 0.0
C2903 C 0.60726 0.57876 0.25996 0.0
C2904 C 0.5922 0.56459 0.25081 0.0
C2905 C 0.57507 0.56067 0.25699 0.0
C2906 C 0.57314 0.57082 0.2729 0.0
H2907 H 0.37604 0.0077 0.32347 0.0
H2908 H 0.34766 0.95052 0.31351 0.0
H2909 H 0.37069 0.95317 0.28975 0.0
H2910 H 0.39268 0.01982 0.27023 0.0
H2911 H 0.414 0.03762 0.27832 0.0
H2912 H 0.39484 0.03174 0.29408 0.0
H2913 H 0.41068 0.02716 0.32592 0.0
H2914 H 0.42988 0.03304 0.31028 0.0
H2915 H 0.41938 0.0121 0.32385 0.0
H2916 H 0.39635 0.96113 0.26786 0.0
H2917 H 0.42464 0.97426 0.24939 0.0
H2918 H 0.43793 0.02643 0.27318 0.0
C2919 C 0.37467 0.9958 0.31615 0.0
C2920 C 0.36002 0.9789 0.32049 0.0
C2921 C 0.35878 0.96362 0.3107 0.0
C2922 C 0.37177 0.96496 0.29702 0.0
C2923 C 0.38605 0.98167 0.29321 0.0
C2924 C 0.38772 0.99686 0.30246 0.0
C2925 C 0.40496 0.01304 0.29607 0.0
C2926 C 0.4014 0.02634 0.28395 0.0
C2927 C 0.41693 0.02185 0.31517 0.0
C2928 C 0.41263 0.00443 0.282 0.0
C2929 C 0.40133 0.98633 0.28055 0.0
C2930 C 0.40537 0.97528 0.26888 0.0
C2931 C 0.42154 0.98286 0.25855 0.0
C2932 C 0.4336 0.00132 0.26002 0.0
C2933 C 0.42894 0.01229 0.2717 0.0
H2934 H 0.61452 0.9772 0.30669 0.0
H2935 H 0.66484 0.0249 0.29736 0.0
H2936 H 0.64947 0.03924 0.27998 0.0
H2937 H 0.5969 0.97871 0.25627 0.0
H2938 H 0.57457 0.96984 0.26533 0.0
H2939 H 0.58942 0.96401 0.27841 0.0
H2940 H 0.58379 0.97527 0.31338 0.0
H2941 H 0.569 0.98124 0.30035 0.0
H2942 H 0.58756 0.9977 0.31517 0.0
H2943 H 0.6283 0.04858 0.26507 0.0
H2944 H 0.60378 0.05121 0.24946 0.0
H2945 H 0.56784 0.99567 0.26399 0.0
C2946 C 0.62222 0.99072 0.30113 0.0
C2947 C 0.64077 1.00013 0.30353 0.0
C2948 C 0.65058 0.0176 0.29567 0.0
C2949 C 0.64197 0.02583 0.2859 0.0
C2950 C 0.62362 0.0162 0.28373 0.0
C2951 C 0.6139 0.99891 0.29076 0.0
C2952 C 0.59453 0.99102 0.28503 0.0
C2953 C 0.58851 0.97495 0.27039 0.0
C2954 C 0.58305 0.98602 0.30466 0.0
C2955 C 0.59483 0.00662 0.27386 0.0
C2956 C 0.61166 0.0211 0.2736 0.0
C2957 C 0.61511 0.03721 0.26481 0.0
C2958 C 0.60102 0.03848 0.25574 0.0
C2959 C 0.58368 0.02358 0.25497 0.0
C2960 C 0.58072 0.00748 0.26434 0.0
H2961 H 0.03276 0.6377 0.31297 0.0
H2962 H 0.98105 0.63291 0.32156 0.0
H2963 H 0.96756 0.60553 0.30033 0.0
H2964 H 0.02618 0.62359 0.26008 0.0
H2965 H 0.0382 0.61158 0.26237 0.0
H2966 H 0.04376 0.63035 0.27908 0.0
H2967 H 0.03906 0.61075 0.31163 0.0
H2968 H 0.03359 0.59194 0.29501 0.0
H2969 H 0.01834 0.5905 0.31478 0.0
H2970 H 0.95976 0.57913 0.27727 0.0
H2971 H 0.95824 0.55554 0.25427 0.0
H2972 H 0.01499 0.57754 0.26074 0.0
C2973 C 0.01857 0.63084 0.31059 0.0
C2974 C 0.00799 0.63751 0.31903 0.0
C2975 C 0.98948 0.62812 0.31531 0.0
C2976 C 0.98167 0.61253 0.30326 0.0
C2977 C 0.99252 0.60648 0.295 0.0
C2978 C 0.01056 0.61531 0.29853 0.0
C2979 C 0.01931 0.60624 0.28744 0.0
C2980 C 0.03265 0.61868 0.27129 0.0
C2981 C 0.02809 0.59945 0.30316 0.0
C2982 C 0.00337 0.59099 0.277 0.0
C2983 C 0.98805 0.59133 0.28162 0.0
C2984 C 0.97167 0.57867 0.27365 0.0
C2985 C 0.97093 0.56528 0.26067 0.0
C2986 C 0.98647 0.56464 0.25572 0.0
C2987 C 0.00289 0.57774 0.26404 0.0
H2988 H 0.37008 0.37912 0.32695 0.0
H2989 H 0.36638 0.33061 0.30273 0.0
H2990 H 0.39479 0.34832 0.28448 0.0
H2991 H 0.38431 0.40261 0.28084 0.0
H2992 H 0.39877 0.42385 0.29273 0.0
H2993 H 0.37999 0.40741 0.30677 0.0
H2994 H 0.40046 0.40899 0.33729 0.0
H2995 H 0.41934 0.42557 0.32339 0.0
H2996 H 0.41893 0.40555 0.33221 0.0
H2997 H 0.42244 0.37158 0.26665 0.0
H2998 H 0.44574 0.39826 0.24899 0.0
H2999 H 0.42999 0.43136 0.28312 0.0
C3000 C 0.37555 0.3722 0.31837 0.0
C3001 C 0.36626 0.35349 0.31657 0.0
C3002 C 0.37345 0.34493 0.30451 0.0
C3003 C 0.38957 0.35488 0.29414 0.0
C3004 C 0.39821 0.37337 0.29581 0.0
C3005 C 0.39139 0.38194 0.30758 0.0
C3006 C 0.40206 0.40192 0.30495 0.0
C3007 C 0.3906 0.40937 0.29577 0.0
C3008 C 0.41071 0.41104 0.3257 0.0
C3009 C 0.41574 0.40327 0.28954 0.0
C3010 C 0.41355 0.3867 0.28477 0.0
C3011 C 0.42435 0.38462 0.27042 0.0
C3012 C 0.43756 0.39982 0.26051 0.0
C3013 C 0.43962 0.41681 0.26472 0.0
C3014 C 0.42867 0.41851 0.27961 0.0
H3015 H 0.33984 0.29849 0.37175 0.0
H3016 H 0.28423 0.27423 0.3875 0.0
H3017 H 0.28768 0.25454 0.4123 0.0
H3018 H 0.34228 0.25882 0.37306 0.0
H3019 H 0.36398 0.2684 0.3848 0.0
H3020 H 0.35795 0.28202 0.36926 0.0
H3021 H 0.36569 0.30401 0.40007 0.0
H3022 H 0.3719 0.29054 0.41566 0.0
H3023 H 0.35553 0.29581 0.42502 0.0
H3024 H 0.29574 0.23571 0.43267 0.0
H3025 H 0.30877 0.21945 0.44986 0.0
H3026 H 0.35979 0.25587 0.42305 0.0
C3027 C 0.32853 0.28925 0.38073 0.0
C3028 C 0.31175 0.28785 0.37757 0.0
C3029 C 0.29718 0.27544 0.38944 0.0
C3030 C 0.29899 0.26421 0.40366 0.0
C3031 C 0.31548 0.26551 0.40601 0.0
C3032 C 0.33008 0.27776 0.39511 0.0
C3033 C 0.34607 0.27567 0.40027 0.0
C3034 C 0.35297 0.27095 0.38068 0.0
C3035 C 0.36066 0.29251 0.41089 0.0
C3036 C 0.33796 0.26015 0.41538 0.0
C3037 C 0.32031 0.25462 0.41842 0.0
C3038 C 0.30965 0.24011 0.43082 0.0
C3039 C 0.31725 0.23102 0.44065 0.0
C3040 C 0.33543 0.23653 0.43824 0.0
C3041 C 0.34588 0.2513 0.4253 0.0
H3042 H 0.71736 0.01538 0.38708 0.0
H3043 H 0.69451 0.03632 0.34252 0.0
H3044 H 0.7112 0.06603 0.35906 0.0
H3045 H 0.71535 0.04084 0.43132 0.0
H3046 H 0.73565 0.04378 0.44274 0.0
H3047 H 0.722 0.02434 0.42724 0.0
H3048 H 0.74867 0.0317 0.40346 0.0
H3049 H 0.76237 0.05123 0.41879 0.0
H3050 H 0.76012 0.05316 0.39109 0.0
H3051 H 0.73251 0.09389 0.37862 0.0
H3052 H 0.75397 0.11712 0.40191 0.0
H3053 H 0.75967 0.07693 0.43681 0.0
C3054 C 0.71587 0.02624 0.38088 0.0
C3055 C 0.70481 0.0237 0.36347 0.0
C3056 C 0.70293 0.03808 0.35589 0.0
C3057 C 0.71239 0.05497 0.36513 0.0
C3058 C 0.72331 0.05709 0.3822 0.0
C3059 C 0.72481 0.04304 0.39027 0.0
C3060 C 0.73698 0.04872 0.40914 0.0
C3061 C 0.72689 0.03883 0.42877 0.0
C3062 C 0.75298 0.04604 0.40538 0.0
C3063 C 0.74244 0.06826 0.41015 0.0
C3064 C 0.73456 0.07286 0.39436 0.0
C3065 C 0.73843 0.09036 0.39137 0.0
C3066 C 0.75059 0.10349 0.40492 0.0
C3067 C 0.75855 0.0991 0.42168 0.0
C3068 C 0.75418 0.08108 0.42421 0.0
H3069 H 0.97271 0.66806 0.39797 0.0
H3070 H 0.96013 0.67884 0.33586 0.0
H3071 H 0.93168 0.67479 0.34856 0.0
H3072 H 0.92748 0.6345 0.41206 0.0
H3073 H 0.93018 0.64203 0.4387 0.0
H3074 H 0.94898 0.64442 0.4244 0.0
H3075 H 0.96559 0.67821 0.43233 0.0
H3076 H 0.94684 0.67594 0.44656 0.0
H3077 H 0.95551 0.69142 0.42524 0.0
H3078 H 0.90564 0.67161 0.36832 0.0
H3079 H 0.88331 0.66885 0.39376 0.0
H3080 H 0.91268 0.66021 0.44317 0.0
C3081 C 0.96385 0.66929 0.38697 0.0
C3082 C 0.96862 0.67371 0.36589 0.0
C3083 C 0.95675 0.67542 0.35205 0.0
C3084 C 0.94054 0.67313 0.35912 0.0
C3085 C 0.93637 0.66908 0.38005 0.0
C3086 C 0.94762 0.66707 0.39377 0.0
C3087 C 0.94028 0.66346 0.41568 0.0
C3088 C 0.93651 0.645 0.42314 0.0
C3089 C 0.9528 0.67814 0.43084 0.0
C3090 C 0.92331 0.66404 0.41217 0.0
C3091 C 0.92129 0.66723 0.39149 0.0
C3092 C 0.90701 0.669 0.38454 0.0
C3093 C 0.89447 0.66754 0.39912 0.0
C3094 C 0.89628 0.66435 0.42044 0.0
C3095 C 0.91084 0.66244 0.42695 0.0
H3096 H 0.39507 0.03207 0.71422 0.0
H3097 H 0.3479 0.9811 0.70345 0.0
H3098 H 0.36096 0.96639 0.72449 0.0
H3099 H 0.42644 0.01642 0.71174 0.0
H3100 H 0.44037 0.03117 0.73205 0.0
H3101 H 0.42734 0.03749 0.71584 0.0
H3102 H 0.41298 0.04211 0.74874 0.0
H3103 H 0.4259 0.03574 0.76506 0.0
H3104 H 0.40215 0.02416 0.76707 0.0
H3105 H 0.37937 0.95733 0.747 0.0
H3106 H 0.40139 0.9548 0.76937 0.0
H3107 H 0.43611 0.01181 0.76519 0.0
C3108 C 0.38745 0.01779 0.71615 0.0
C3109 C 0.37043 0.00776 0.70711 0.0
C3110 C 0.36095 0.98911 0.7102 0.0
C3111 C 0.36826 0.98062 0.72212 0.0
C3112 C 0.38503 0.99097 0.73088 0.0
C3113 C 0.39448 0.00915 0.72803 0.0
C3114 C 0.41213 0.01734 0.73928 0.0
C3115 C 0.42747 0.02612 0.7238 0.0
C3116 C 0.41335 0.03061 0.75603 0.0
C3117 C 0.41116 0.00092 0.74898 0.0
C3118 C 0.39548 0.98582 0.74392 0.0
C3119 C 0.3917 0.96907 0.75104 0.0
C3120 C 0.4043 0.96776 0.76365 0.0
C3121 C 0.42043 0.98311 0.76907 0.0
C3122 C 0.42381 0.99986 0.76158 0.0
H3123 H 0.00125 0.36042 0.7301 0.0
H3124 H 0.99793 0.37499 0.66615 0.0
H3125 H 0.00506 0.40504 0.67782 0.0
H3126 H 0.97987 0.38219 0.75194 0.0
H3127 H 0.99315 0.38919 0.77541 0.0
H3128 H 0.98969 0.36948 0.7619 0.0
H3129 H 0.02356 0.38236 0.7593 0.0
H3130 H 0.02713 0.4021 0.77288 0.0
H3131 H 0.03691 0.40391 0.74771 0.0
H3132 H 0.01128 0.43301 0.6965 0.0
H3133 H 0.01455 0.45643 0.72108 0.0
H3134 H 0.01261 0.42333 0.77306 0.0
C3135 C 0.00236 0.37006 0.71854 0.0
C3136 C 0.99923 0.36549 0.6972 0.0
C3137 C 1.00035 0.37828 0.68257 0.0
C3138 C 0.00445 0.39539 0.68904 0.0
C3139 C 0.00723 0.39943 0.71022 0.0
C3140 C 0.00615 0.38712 0.72478 0.0
C3141 C 0.00841 0.39442 0.74673 0.0
C3142 C 0.99179 0.38315 0.75975 0.0
C3143 C 0.02499 0.39578 0.75727 0.0
C3144 C 0.01071 0.41266 0.74224 0.0
C3145 C 0.01023 0.41537 0.72106 0.0
C3146 C 0.01179 0.43109 0.71311 0.0
C3147 C 0.01371 0.44434 0.72718 0.0
C3148 C 0.01387 0.44171 0.74895 0.0
C3149 C 0.01246 0.42568 0.7565 0.0
H3150 H 0.62911 0.64451 0.72381 0.0
H3151 H 0.63664 0.6072 0.68596 0.0
H3152 H 0.60952 0.58245 0.70021 0.0
H3153 H 0.61209 0.61731 0.76873 0.0
H3154 H 0.59565 0.62365 0.77432 0.0
H3155 H 0.61557 0.63885 0.76094 0.0
H3156 H 0.59696 0.64114 0.73054 0.0
H3157 H 0.57698 0.62604 0.74391 0.0
H3158 H 0.58061 0.62115 0.71771 0.0
H3159 H 0.58387 0.56166 0.72077 0.0
H3160 H 0.55844 0.54565 0.74344 0.0
H3161 H 0.56444 0.59603 0.76528 0.0
C3162 C 0.62492 0.63113 0.71844 0.0
C3163 C 0.635 0.62776 0.70382 0.0
C3164 C 0.6291 0.61012 0.69707 0.0
C3165 C 0.61374 0.59594 0.70512 0.0
C3166 C 0.60421 0.59962 0.71965 0.0
C3167 C 0.6093 0.61675 0.72601 0.0
C3168 C 0.59629 0.61682 0.74161 0.0
C3169 C 0.60545 0.62462 0.76264 0.0
C3170 C 0.58717 0.62688 0.73292 0.0
C3171 C 0.58341 0.59703 0.74329 0.0
C3172 C 0.58841 0.58744 0.73059 0.0
C3173 C 0.57945 0.56899 0.73034 0.0
C3174 C 0.5648 0.56 0.7432 0.0
C3175 C 0.55879 0.56939 0.75589 0.0
C3176 C 0.56841 0.58826 0.75587 0.0
H3177 H 0.69467 0.72472 0.64269 0.0
H3178 H 0.64468 0.6766 0.65294 0.0
H3179 H 0.6292 0.68964 0.63332 0.0
H3180 H 0.67891 0.75537 0.64841 0.0
H3181 H 0.69271 0.77007 0.62824 0.0
H3182 H 0.69982 0.75676 0.64265 0.0
H3183 H 0.70334 0.74329 0.60816 0.0
H3184 H 0.69634 0.75664 0.59363 0.0
H3185 H 0.68489 0.73285 0.59027 0.0
H3186 H 0.61913 0.70865 0.61357 0.0
H3187 H 0.61547 0.73146 0.59436 0.0
H3188 H 0.67234 0.76639 0.59616 0.0
C3189 C 0.68047 0.71684 0.6408 0.0
C3190 C 0.67091 0.69961 0.64943 0.0
C3191 C 0.65233 0.68979 0.64645 0.0
C3192 C 0.64341 0.69711 0.63536 0.0
C3193 C 0.65326 0.71419 0.62724 0.0
C3194 C 0.6714 0.72385 0.62971 0.0
C3195 C 0.67898 0.7419 0.61949 0.0
C3196 C 0.68814 0.75691 0.63567 0.0
C3197 C 0.69163 0.74377 0.60184 0.0
C3198 C 0.66225 0.741 0.61104 0.0
C3199 C 0.64754 0.72493 0.61566 0.0
C3200 C 0.63059 0.72121 0.60971 0.0
C3201 C 0.62865 0.73424 0.5987 0.0
C3202 C 0.6436 0.75078 0.59367 0.0
C3203 C 0.66058 0.75405 0.59996 0.0
H3204 H 0.28136 0.96624 0.65609 0.0
H3205 H 0.32929 0.97179 0.62882 0.0
H3206 H 0.31159 0.9438 0.60916 0.0
H3207 H 0.25675 0.91751 0.65952 0.0
H3208 H 0.23609 0.91625 0.65216 0.0
H3209 H 0.25269 0.93548 0.66593 0.0
H3210 H 0.25218 0.95586 0.63654 0.0
H3211 H 0.23563 0.93672 0.62268 0.0
H3212 H 0.256 0.95186 0.61002 0.0
H3213 H 0.28848 0.91584 0.5914 0.0
H3214 H 0.26166 0.89154 0.57472 0.0
H3215 H 0.22889 0.90546 0.61202 0.0
C3216 C 0.28815 0.96135 0.64631 0.0
C3217 C 0.30668 0.97099 0.64414 0.0
C3218 C 0.31508 0.9645 0.63075 0.0
C3219 C 0.30516 0.9486 0.61961 0.0
C3220 C 0.28685 0.9395 0.62188 0.0
C3221 C 0.27841 0.94572 0.63477 0.0
C3222 C 0.25851 0.93437 0.63302 0.0
C3223 C 0.25055 0.92537 0.6539 0.0
C3224 C 0.2501 0.94536 0.62509 0.0
C3225 C 0.25705 0.92094 0.61692 0.0
C3226 C 0.27353 0.9239 0.61096 0.0
C3227 C 0.27551 0.91334 0.59601 0.0
C3228 C 0.26024 0.89956 0.58669 0.0
C3229 C 0.24329 0.89669 0.59213 0.0
C3230 C 0.24173 0.90742 0.60758 0.0
H3231 H 0.03172 0.30051 0.6418 0.0
H3232 H 0.03357 0.35148 0.6477 0.0
H3233 H 0.06124 0.36565 0.62766 0.0
H3234 H 0.0785 0.31697 0.64674 0.0
H3235 H 0.07865 0.30166 0.62783 0.0
H3236 H 0.0591 0.29557 0.64286 0.0
H3237 H 0.04072 0.28944 0.6088 0.0
H3238 H 0.06021 0.29552 0.59366 0.0
H3239 H 0.04754 0.30666 0.58941 0.0
H3240 H 0.08881 0.37431 0.60698 0.0
H3241 H 0.11375 0.37661 0.58644 0.0
H3242 H 0.09372 0.31998 0.59393 0.0
C3243 C 0.03792 0.31466 0.63895 0.0
C3244 C 0.0304 0.32485 0.6464 0.0
C3245 C 0.03899 0.34334 0.64217 0.0
C3246 C 0.05475 0.35154 0.63082 0.0
C3247 C 0.06175 0.34108 0.62373 0.0
C3248 C 0.05358 0.32304 0.62758 0.0
C3249 C 0.06369 0.31475 0.61798 0.0
C3250 C 0.07038 0.30677 0.63486 0.0
C3251 C 0.05236 0.30077 0.60148 0.0
C3252 C 0.07882 0.33095 0.60809 0.0
C3253 C 0.0775 0.34602 0.61166 0.0
C3254 C 0.08999 0.3626 0.60412 0.0
C3255 C 0.10416 0.36379 0.59257 0.0
C3256 C 0.10571 0.34849 0.5886 0.0
C3257 C 0.09282 0.33188 0.59652 0.0
H3258 H 0.312 0.34119 0.61066 0.0
H3259 H 0.29439 0.3402 0.6739 0.0
H3260 H 0.27245 0.34832 0.66104 0.0
H3261 H 0.30517 0.37771 0.59102 0.0
H3262 H 0.29703 0.36722 0.56603 0.0
H3263 H 0.31285 0.36347 0.58033 0.0
H3264 H 0.29155 0.3295 0.57843 0.0
H3265 H 0.27563 0.33314 0.56427 0.0
H3266 H 0.26935 0.32048 0.58808 0.0
H3267 H 0.25143 0.35477 0.64155 0.0
H3268 H 0.23167 0.35812 0.61639 0.0
H3269 H 0.26163 0.35369 0.56526 0.0
C3270 C 0.30379 0.34313 0.62177 0.0
C3271 C 0.30499 0.34032 0.64329 0.0
C3272 C 0.29371 0.3424 0.65737 0.0
C3273 C 0.28125 0.34705 0.65022 0.0
C3274 C 0.2801 0.34937 0.6289 0.0
C3275 C 0.29099 0.34744 0.61483 0.0
C3276 C 0.28595 0.34925 0.5926 0.0
C3277 C 0.30116 0.36538 0.58186 0.0
C3278 C 0.28028 0.33207 0.58012 0.0
C3279 C 0.27041 0.35225 0.59642 0.0
C3280 C 0.26746 0.35252 0.6175 0.0
C3281 C 0.25369 0.35475 0.62499 0.0
C3282 C 0.24258 0.35671 0.61058 0.0
C3283 C 0.24516 0.35629 0.58886 0.0
C3284 C 0.25931 0.35405 0.58175 0.0
H3285 H 0.69288 0.96677 0.64487 0.0
H3286 H 0.64218 0.96475 0.65112 0.0
H3287 H 0.62801 0.93697 0.63046 0.0
H3288 H 0.68644 0.95106 0.59211 0.0
H3289 H 0.69768 0.93845 0.59608 0.0
H3290 H 0.70373 0.95802 0.61153 0.0
H3291 H 0.69802 0.93956 0.64532 0.0
H3292 H 0.69199 0.91993 0.62998 0.0
H3293 H 0.67685 0.91995 0.64897 0.0
H3294 H 0.61935 0.90907 0.60937 0.0
H3295 H 0.61709 0.88382 0.58884 0.0
H3296 H 0.67356 0.90459 0.59626 0.0
C3297 C 0.67878 0.96053 0.64198 0.0
C3298 C 0.66866 0.96799 0.64971 0.0
C3299 C 0.65025 0.95935 0.64538 0.0
C3300 C 0.64207 0.94354 0.63367 0.0
C3301 C 0.65247 0.93659 0.62632 0.0
C3302 C 0.67044 0.94486 0.63026 0.0
C3303 C 0.67872 0.93481 0.62045 0.0
C3304 C 0.69245 0.94627 0.60407 0.0
C3305 C 0.68687 0.92817 0.63718 0.0
C3306 C 0.66259 0.91954 0.61039 0.0
C3307 C 0.64756 0.92075 0.614 0.0
C3308 C 0.63104 0.90801 0.60644 0.0
C3309 C 0.62988 0.89368 0.59489 0.0
C3310 C 0.64515 0.89226 0.59092 0.0
C3311 C 0.66169 0.90542 0.5988 0.0
H3312 H 0.03478 0.72734 0.6543 0.0
H3313 H 0.03206 0.67752 0.63732 0.0
H3314 H 0.05904 0.69384 0.61622 0.0
H3315 H 0.04643 0.74627 0.60456 0.0
H3316 H 0.06091 0.76864 0.61351 0.0
H3317 H 0.04291 0.75342 0.62957 0.0
H3318 H 0.06478 0.75854 0.65995 0.0
H3319 H 0.08286 0.77392 0.64403 0.0
H3320 H 0.0834 0.75518 0.65563 0.0
H3321 H 0.08537 0.71542 0.59558 0.0
H3322 H 0.10838 0.74059 0.57562 0.0
H3323 H 0.09277 0.77613 0.60418 0.0
C3324 C 0.04017 0.71995 0.64658 0.0
C3325 C 0.03158 0.70122 0.64767 0.0
C3326 C 0.0386 0.6919 0.6368 0.0
C3327 C 0.0539 0.70105 0.62482 0.0
C3328 C 0.06188 0.71951 0.62366 0.0
C3329 C 0.05523 0.72886 0.63418 0.0
C3330 C 0.06535 0.74847 0.62884 0.0
C3331 C 0.05317 0.75455 0.6185 0.0
C3332 C 0.07465 0.75969 0.64827 0.0
C3333 C 0.07858 0.74863 0.61351 0.0
C3334 C 0.07653 0.73184 0.61098 0.0
C3335 C 0.08714 0.72864 0.5975 0.0
C3336 C 0.10017 0.74299 0.58626 0.0
C3337 C 0.10228 0.76023 0.58834 0.0
C3338 C 0.09134 0.76304 0.60218 0.0
H3339 H 0.96679 0.61316 0.71547 0.0
H3340 H 0.01832 0.66034 0.7097 0.0
H3341 H 0.03189 0.64496 0.72852 0.0
H3342 H 0.9735 0.60065 0.76699 0.0
H3343 H 0.96135 0.57721 0.76121 0.0
H3344 H 0.95585 0.59225 0.74792 0.0
H3345 H 0.96022 0.58088 0.71233 0.0
H3346 H 0.96581 0.56586 0.72549 0.0
H3347 H 0.98092 0.58164 0.70702 0.0
H3348 H 0.03982 0.62365 0.74712 0.0
H3349 H 0.04117 0.59889 0.76493 0.0
H3350 H 0.98435 0.56607 0.75772 0.0
C3351 C 0.98092 0.62041 0.71824 0.0
C3352 C 0.99146 0.63802 0.71108 0.0
C3353 C 0.00992 0.64688 0.71508 0.0
C3354 C 0.01776 0.63823 0.72571 0.0
C3355 C 0.00696 0.62077 0.73229 0.0
C3356 C 0.98892 0.61203 0.72878 0.0
C3357 C 0.98017 0.59326 0.73711 0.0
C3358 C 0.96694 0.5907 0.75433 0.0
C3359 C 0.97126 0.57961 0.71943 0.0
C3360 C 0.9961 0.59271 0.74583 0.0
C3361 C 0.01146 0.60866 0.74291 0.0
C3362 C 0.02786 0.61113 0.74952 0.0
C3363 C 0.02852 0.59696 0.75949 0.0
C3364 C 0.01286 0.58057 0.7628 0.0
C3365 C 0.99652 0.57851 0.75573 0.0
H3366 H 0.39478 0.36698 0.71146 0.0
H3367 H 0.34658 0.3695 0.70119 0.0
H3368 H 0.35877 0.39671 0.72285 0.0
H3369 H 0.40176 0.38161 0.76487 0.0
H3370 H 0.42546 0.39413 0.76247 0.0
H3371 H 0.41279 0.37483 0.74635 0.0
H3372 H 0.42641 0.3938 0.71326 0.0
H3373 H 0.43913 0.41316 0.72926 0.0
H3374 H 0.42469 0.41355 0.70916 0.0
H3375 H 0.37687 0.42433 0.74512 0.0
H3376 H 0.39884 0.44926 0.76677 0.0
H3377 H 0.43477 0.42809 0.76222 0.0
C3378 C 0.38669 0.37316 0.71374 0.0
C3379 C 0.36968 0.36603 0.70455 0.0
C3380 C 0.35962 0.37463 0.70807 0.0
C3381 C 0.36645 0.39012 0.72033 0.0
C3382 C 0.38331 0.3968 0.72905 0.0
C3383 C 0.39324 0.38851 0.72595 0.0
C3384 C 0.41099 0.3983 0.73693 0.0
C3385 C 0.41285 0.38651 0.75365 0.0
C3386 C 0.4262 0.40511 0.72122 0.0
C3387 C 0.40958 0.41346 0.74667 0.0
C3388 C 0.39355 0.41243 0.74194 0.0
C3389 C 0.38944 0.42522 0.74896 0.0
C3390 C 0.40202 0.43937 0.76115 0.0
C3391 C 0.41848 0.44058 0.76627 0.0
C3392 C 0.42221 0.4274 0.75887 0.0
H3393 H 0.63585 0.9984 0.73546 0.0
H3394 H 0.61934 0.00213 0.67251 0.0
H3395 H 0.5903 0.9962 0.68569 0.0
H3396 H 0.59306 0.96375 0.7542 0.0
H3397 H 0.59609 0.97369 0.77963 0.0
H3398 H 0.61499 0.97675 0.76504 0.0
H3399 H 0.62868 0.0109 0.76829 0.0
H3400 H 0.60979 0.00796 0.78278 0.0
H3401 H 0.61617 0.02128 0.75947 0.0
H3402 H 0.56335 0.99049 0.70574 0.0
H3403 H 0.54078 0.98673 0.73147 0.0
H3404 H 0.57534 0.98832 0.78164 0.0
C3405 C 0.626 0.99766 0.72443 0.0
C3406 C 0.62973 1.00051 0.70293 0.0
C3407 C 0.61669 0.99989 0.68902 0.0
C3408 C 0.60017 0.9965 0.69636 0.0
C3409 C 0.59698 0.99398 0.71768 0.0
C3410 C 0.60954 0.99461 0.73154 0.0
C3411 C 0.60315 0.99253 0.75382 0.0
C3412 C 0.60173 0.97567 0.76375 0.0
C3413 C 0.61516 0.00916 0.76685 0.0
C3414 C 0.58507 0.99072 0.75031 0.0
C3415 C 0.58169 0.99139 0.72933 0.0
C3416 C 0.56583 0.98992 0.7222 0.0
C3417 C 0.55308 0.98774 0.73691 0.0
C3418 C 0.55634 0.98725 0.7585 0.0
C3419 C 0.57257 0.98879 0.76523 0.0
loop_
_geom_bond_atom_site_label_1
_geom_bond_atom_site_label_2
_geom_bond_distance
_geom_bond_site_symmetry_2
_ccdc_geom_bond_type
Mn0 O5 2.095 1_655 S
Mn0 O15 2.162 . S
Mn0 O16 2.297 1_554 S
Mn0 O24 2.385 1_554 S
Mn0 O25 2.209 1_654 S
Mn0 O26 2.094 . S
Mn1 O6 2.121 . S
Mn1 N8 2.257 1_554 S
Mn1 N17 2.282 . S
Mn1 O25 2.215 1_554 S
Mn1 O27 2.117 . S
C2 O24 1.234 1_455 S
C2 O25 1.283 . S
C3 O15 1.281 1_556 S
C3 O16 1.236 . S
C4 O26 1.263 . S
C4 O27 1.210 1_655 S
O5 Mn0 2.095 1_455 S
O5 C14 1.250 . S
O6 Mn1 2.121 . S
O6 C14 1.258 . S
C7 N8 1.326 . S
C7 C11 1.460 . S
C7 H13 0.929 . S
N8 Mn1 2.257 1_556 S
N8 C7 1.326 . S
N8 C12 1.362 . S
C9 C10 1.258 . S
C9 C12 1.431 . S
C9 C29 1.449 . S
C10 C9 1.258 . S
C10 C11 1.477 . S
C10 H30 0.931 . S
C11 C7 1.460 . S
C11 C10 1.477 . S
C11 H31 0.930 . S
C12 N8 1.362 . S
C12 C9 1.431 . S
C12 C22 1.476 . S
H13 C7 0.929 . S
C14 O5 1.250 . S
C14 O6 1.258 . S
O15 Mn0 2.162 . S
O15 C3 1.281 1_554 S
O16 Mn0 2.297 1_556 S
O16 C3 1.236 . S
N17 Mn1 2.282 . S
N17 C18 1.328 . S
N17 C22 1.318 1_554 S
C18 N17 1.328 . S
C18 C19 1.457 1_554 S
C18 H23 0.929 . S
C19 C18 1.457 1_556 S
C19 C20 1.291 . S
C19 H32 0.934 . S
C20 C19 1.291 . S
C20 C21 1.373 . S
C20 H33 0.929 . S
C21 C20 1.373 . S
C21 C22 1.396 . S
C21 C28 1.403 . S
C22 C12 1.476 . S
C22 N17 1.318 1_556 S
C22 C21 1.396 . S
H23 C18 0.929 . S
O24 Mn0 2.385 1_556 S
O24 C2 1.234 1_655 S
O25 Mn0 2.209 1_456 S
O25 Mn1 2.215 1_556 S
O25 C2 1.283 . S
O26 Mn0 2.094 . S
O26 C4 1.263 . S
O27 Mn1 2.117 . S
O27 C4 1.210 1_455 S
C28 C21 1.403 . S
C28 C29 1.399 . S
C28 H34 0.929 . S
C29 C9 1.449 . S
C29 C28 1.399 . S
C29 H35 0.930 . S
H30 C10 0.931 . S
H31 C11 0.930 . S
H32 C19 0.934 . S
H33 C20 0.929 . S
H34 C28 0.929 . S
H35 C29 0.930 . S
Mn36 O41 2.095 1_554 S
Mn36 O51 2.162 . S
Mn36 O52 2.297 . S
Mn36 O60 2.385 . S
Mn36 O61 2.209 . S
Mn36 O62 2.094 1_554 S
Mn37 O42 2.121 . S
Mn37 N44 2.257 1_556 S
Mn37 N53 2.282 1_556 S
Mn37 O61 2.215 1_556 S
Mn37 O63 2.117 . S
C38 O60 1.234 . S
C38 O61 1.283 . S
C39 O51 1.281 . S
C39 O52 1.236 . S
C40 O62 1.240 . S
C40 O63 1.264 . S
O41 Mn36 2.095 1_556 S
O41 C50 1.250 . S
O42 Mn37 2.121 . S
O42 C50 1.258 . S
C43 N44 1.326 . S
C43 C47 1.460 . S
C43 H49 0.929 . S
N44 Mn37 2.257 1_554 S
N44 C43 1.326 . S
N44 C48 1.362 . S
C45 C46 1.258 . S
C45 C48 1.431 . S
C45 C65 1.449 . S
C46 C45 1.258 . S
C46 C47 1.477 . S
C46 H66 0.931 . S
C47 C43 1.460 . S
C47 C46 1.477 . S
C47 H67 0.930 . S
C48 N44 1.362 . S
C48 C45 1.431 . S
C48 C58 1.476 . S
H49 C43 0.929 . S
C50 O41 1.250 . S
C50 O42 1.258 . S
O51 Mn36 2.162 . S
O51 C39 1.281 . S
O52 Mn36 2.297 . S
O52 C39 1.236 . S
N53 Mn37 2.282 1_554 S
N53 C54 1.328 . S
N53 C58 1.318 . S
C54 N53 1.328 . S
C54 C55 1.457 . S
C54 H59 0.929 1_554 S
C55 C54 1.457 . S
C55 C56 1.291 . S
C55 H68 0.931 . S
C56 C55 1.291 . S
C56 C57 1.373 . S
C56 H69 0.929 . S
C57 C56 1.373 . S
C57 C58 1.396 . S
C57 C64 1.403 . S
C58 C48 1.476 . S
C58 N53 1.318 . S
C58 C57 1.396 . S
H59 C54 0.929 1_556 S
O60 Mn36 2.385 . S
O60 C38 1.234 . S
O61 Mn36 2.209 . S
O61 Mn37 2.215 1_554 S
O61 C38 1.283 . S
O62 Mn36 2.094 1_556 S
O62 C40 1.240 . S
O63 Mn37 2.117 . S
O63 C40 1.264 . S
C64 C57 1.403 . S
C64 C65 1.399 . S
C64 H70 0.929 . S
C65 C45 1.449 . S
C65 C64 1.399 . S
C65 H71 0.930 . S
H66 C46 0.931 . S
H67 C47 0.930 . S
H68 C55 0.931 . S
H69 C56 0.929 . S
H70 C64 0.929 . S
H71 C65 0.930 . S
Mn72 O77 2.095 1_564 S
Mn72 O87 2.162 . S
Mn72 O88 2.297 . S
Mn72 O96 2.385 . S
Mn72 O97 2.209 1_565 S
Mn72 O98 2.094 1_554 S
Mn73 O78 2.121 1_554 S
Mn73 N80 2.257 . S
Mn73 N89 2.282 . S
Mn73 O97 2.215 . S
Mn73 O99 2.117 1_554 S
C74 O96 1.234 1_545 S
C74 O97 1.283 . S
C75 O87 1.281 . S
C75 O88 1.236 . S
C76 O98 1.240 . S
C76 O99 1.264 1_565 S
O77 Mn72 2.095 1_546 S
O77 C86 1.250 . S
O78 Mn73 2.121 1_556 S
O78 C86 1.258 . S
C79 N80 1.326 . S
C79 C83 1.460 . S
C79 H85 0.929 . S
N80 Mn73 2.257 . S
N80 C79 1.326 . S
N80 C84 1.362 . S
C81 C82 1.258 . S
C81 C84 1.431 . S
C81 C101 1.449 . S
C82 C81 1.258 . S
C82 C83 1.477 . S
C82 H102 0.931 . S
C83 C79 1.460 . S
C83 C82 1.477 . S
C83 H103 0.930 . S
C84 N80 1.362 . S
C84 C81 1.431 . S
C84 C94 1.476 . S
H85 C79 0.929 . S
C86 O77 1.250 . S
C86 O78 1.258 . S
O87 Mn72 2.162 . S
O87 C75 1.281 . S
O88 Mn72 2.297 . S
O88 C75 1.236 . S
N89 Mn73 2.282 . S
N89 C90 1.328 . S
N89 C94 1.318 . S
C90 N89 1.328 . S
C90 C91 1.457 . S
C90 H95 0.929 . S
C91 C90 1.457 . S
C91 C92 1.291 . S
C91 H104 0.931 . S
C92 C91 1.291 . S
C92 C93 1.373 . S
C92 H105 0.929 . S
C93 C92 1.373 . S
C93 C94 1.396 . S
C93 C100 1.403 . S
C94 C84 1.476 . S
C94 N89 1.318 . S
C94 C93 1.396 . S
H95 C90 0.929 . S
O96 Mn72 2.385 . S
O96 C74 1.234 1_565 S
O97 Mn72 2.209 1_545 S
O97 Mn73 2.215 . S
O97 C74 1.283 . S
O98 Mn72 2.094 1_556 S
O98 C76 1.240 . S
O99 Mn73 2.117 1_556 S
O99 C76 1.264 1_545 S
C100 C93 1.403 . S
C100 C101 1.399 . S
C100 H106 0.929 . S
C101 C81 1.449 . S
C101 C100 1.399 . S
C101 H107 0.930 . S
H102 C82 0.931 . S
H103 C83 0.930 . S
H104 C91 0.931 . S
H105 C92 0.929 . S
H106 C100 0.929 . S
H107 C101 0.930 . S
Mn108 O113 2.095 1_655 S
Mn108 O123 2.162 . S
Mn108 O124 2.297 1_554 S
Mn108 O132 2.385 1_554 S
Mn108 O133 2.209 1_654 S
Mn108 O134 2.094 . S
Mn109 O114 2.121 . S
Mn109 N116 2.257 1_554 S
Mn109 N125 2.282 . S
Mn109 O133 2.215 1_554 S
Mn109 O135 2.117 . S
C110 O132 1.234 1_455 S
C110 O133 1.283 . S
C111 O123 1.281 1_556 S
C111 O124 1.236 . S
C112 O134 1.240 . S
C112 O135 1.264 1_655 S
O113 Mn108 2.095 1_455 S
O113 C122 1.250 . S
O114 Mn109 2.121 . S
O114 C122 1.258 . S
C115 N116 1.326 . S
C115 C119 1.460 . S
C115 H121 0.929 . S
N116 Mn109 2.257 1_556 S
N116 C115 1.326 . S
N116 C120 1.362 . S
C117 C118 1.258 . S
C117 C120 1.431 . S
C117 C137 1.449 . S
C118 C117 1.258 . S
C118 C119 1.477 . S
C118 H138 0.931 . S
C119 C115 1.460 . S
C119 C118 1.477 . S
C119 H139 0.930 . S
C120 N116 1.362 . S
C120 C117 1.431 . S
C120 C130 1.476 . S
H121 C115 0.929 . S
C122 O113 1.250 . S
C122 O114 1.258 . S
O123 Mn108 2.162 . S
O123 C111 1.281 1_554 S
O124 Mn108 2.297 1_556 S
O124 C111 1.236 . S
N125 Mn109 2.282 . S
N125 C126 1.328 . S
N125 C130 1.318 1_554 S
C126 N125 1.328 . S
C126 C127 1.457 1_554 S
C126 H131 0.929 . S
C127 C126 1.457 1_556 S
C127 C128 1.291 . S
C127 H140 0.932 . S
C128 C127 1.291 . S
C128 C129 1.373 . S
C128 H141 0.929 . S
C129 C128 1.373 . S
C129 C130 1.396 . S
C129 C136 1.403 . S
C130 C120 1.476 . S
C130 N125 1.318 1_556 S
C130 C129 1.396 . S
H131 C126 0.929 . S
O132 Mn108 2.385 1_556 S
O132 C110 1.234 1_655 S
O133 Mn108 2.209 1_456 S
O133 Mn109 2.215 1_556 S
O133 C110 1.283 . S
O134 Mn108 2.094 . S
O134 C112 1.240 . S
O135 Mn109 2.117 . S
O135 C112 1.264 1_455 S
C136 C129 1.403 . S
C136 C137 1.399 . S
C136 H142 0.929 . S
C137 C117 1.449 . S
C137 C136 1.399 . S
C137 H143 0.930 . S
H138 C118 0.931 . S
H139 C119 0.930 . S
H140 C127 0.932 . S
H141 C128 0.929 . S
H142 C136 0.929 . S
H143 C137 0.930 . S
Mn144 O149 2.095 1_554 S
Mn144 O159 2.162 . S
Mn144 O160 2.297 . S
Mn144 O168 2.385 . S
Mn144 O169 2.209 . S
Mn144 O170 2.094 1_554 S
Mn145 O150 2.121 . S
Mn145 N152 2.257 1_556 S
Mn145 N161 2.282 1_556 S
Mn145 O169 2.215 1_556 S
Mn145 O171 2.117 . S
C146 O168 1.234 . S
C146 O169 1.283 . S
C147 O159 1.281 . S
C147 O160 1.236 . S
C148 O170 1.240 . S
C148 O171 1.264 . S
O149 Mn144 2.095 1_556 S
O149 C158 1.250 . S
O150 Mn145 2.121 . S
O150 C158 1.258 . S
C151 N152 1.326 . S
C151 C155 1.460 . S
C151 H157 0.929 . S
N152 Mn145 2.257 1_554 S
N152 C151 1.326 . S
N152 C156 1.362 . S
C153 C154 1.258 . S
C153 C156 1.431 . S
C153 C173 1.449 . S
C154 C153 1.258 . S
C154 C155 1.477 . S
C154 H174 0.931 . S
C155 C151 1.460 . S
C155 C154 1.477 . S
C155 H175 0.930 . S
C156 N152 1.362 . S
C156 C153 1.431 . S
C156 C166 1.476 . S
H157 C151 0.929 . S
C158 O149 1.250 . S
C158 O150 1.258 . S
O159 Mn144 2.162 . S
O159 C147 1.281 . S
O160 Mn144 2.297 . S
O160 C147 1.236 . S
N161 Mn145 2.282 1_554 S
N161 C162 1.328 . S
N161 C166 1.318 . S
C162 N161 1.328 . S
C162 C163 1.457 . S
C162 H167 0.926 . S
C163 C162 1.457 . S
C163 C164 1.291 . S
C163 H176 0.931 . S
C164 C163 1.291 . S
C164 C165 1.373 . S
C164 H177 0.929 . S
C165 C164 1.373 . S
C165 C166 1.396 . S
C165 C172 1.403 . S
C166 C156 1.476 . S
C166 N161 1.318 . S
C166 C165 1.396 . S
H167 C162 0.926 . S
O168 Mn144 2.385 . S
O168 C146 1.234 . S
O169 Mn144 2.209 . S
O169 Mn145 2.215 1_554 S
O169 C146 1.283 . S
O170 Mn144 2.094 1_556 S
O170 C148 1.240 . S
O171 Mn145 2.117 . S
O171 C148 1.264 . S
C172 C165 1.403 . S
C172 C173 1.399 . S
C172 H178 0.929 . S
C173 C153 1.449 . S
C173 C172 1.399 . S
C173 H179 0.930 . S
H174 C154 0.931 . S
H175 C155 0.930 . S
H176 C163 0.931 . S
H177 C164 0.929 . S
H178 C172 0.929 . S
H179 C173 0.930 . S
Mn180 O185 2.095 1_545 S
Mn180 O195 2.162 . S
Mn180 O196 2.297 1_554 S
Mn180 O204 2.385 1_554 S
Mn180 O205 2.209 1_544 S
Mn180 O206 2.094 . S
Mn181 O186 2.121 . S
Mn181 N188 2.257 1_554 S
Mn181 N197 2.282 . S
Mn181 O205 2.215 1_554 S
Mn181 O207 2.117 . S
C182 O204 1.234 1_565 S
C182 O205 1.283 . S
C183 O195 1.281 1_556 S
C183 O196 1.236 . S
C184 O206 1.240 . S
C184 O207 1.264 1_545 S
O185 Mn180 2.095 1_565 S
O185 C194 1.250 . S
O186 Mn181 2.121 . S
O186 C194 1.258 . S
C187 N188 1.326 . S
C187 C191 1.460 . S
C187 H193 0.929 . S
N188 Mn181 2.257 1_556 S
N188 C187 1.326 . S
N188 C192 1.362 . S
C189 C190 1.258 . S
C189 C192 1.431 . S
C189 C209 1.449 . S
C190 C189 1.258 . S
C190 C191 1.477 . S
C190 H210 0.931 . S
C191 C187 1.460 . S
C191 C190 1.477 . S
C191 H211 0.930 . S
C192 N188 1.362 . S
C192 C189 1.431 . S
C192 C202 1.476 . S
H193 C187 0.929 . S
C194 O185 1.250 . S
C194 O186 1.258 . S
O195 Mn180 2.162 . S
O195 C183 1.281 1_554 S
O196 Mn180 2.297 1_556 S
O196 C183 1.236 . S
N197 Mn181 2.282 . S
N197 C198 1.328 . S
N197 C202 1.318 1_554 S
C198 N197 1.328 . S
C198 C199 1.457 1_554 S
C198 H203 0.929 . S
C199 C198 1.457 1_556 S
C199 C200 1.291 . S
C199 H212 0.936 . S
C200 C199 1.291 . S
C200 C201 1.373 . S
C200 H213 0.929 . S
C201 C200 1.373 . S
C201 C202 1.396 . S
C201 C208 1.403 . S
C202 C192 1.476 . S
C202 N197 1.318 1_556 S
C202 C201 1.396 . S
H203 C198 0.929 . S
O204 Mn180 2.385 1_556 S
O204 C182 1.234 1_545 S
O205 Mn180 2.209 1_566 S
O205 Mn181 2.215 1_556 S
O205 C182 1.283 . S
O206 Mn180 2.094 . S
O206 C184 1.240 . S
O207 Mn181 2.117 . S
O207 C184 1.264 1_565 S
C208 C201 1.403 . S
C208 C209 1.399 . S
C208 H214 0.929 . S
C209 C189 1.449 . S
C209 C208 1.399 . S
C209 H215 0.930 . S
H210 C190 0.931 . S
H211 C191 0.930 . S
H212 C199 0.936 . S
H213 C200 0.929 . S
H214 C208 0.929 . S
H215 C209 0.930 . S
Mn216 O221 2.095 . S
Mn216 O231 2.162 . S
Mn216 O232 2.297 . S
Mn216 O240 2.385 . S
Mn216 O241 2.209 . S
Mn216 O242 2.094 . S
Mn217 O222 2.121 . S
Mn217 N224 2.257 . S
Mn217 N233 2.282 . S
Mn217 O241 2.215 . S
Mn217 O243 2.117 . S
C218 O240 1.234 . S
C218 O241 1.283 . S
C219 O231 1.281 . S
C219 O232 1.236 . S
C220 O242 1.240 . S
C220 O243 1.264 . S
O221 Mn216 2.095 . S
O221 C230 1.250 . S
O222 Mn217 2.121 . S
O222 C230 1.258 . S
C223 N224 1.326 . S
C223 C227 1.460 . S
C223 H229 0.929 . S
N224 Mn217 2.257 . S
N224 C223 1.326 . S
N224 C228 1.362 . S
C225 C226 1.258 . S
C225 C228 1.431 . S
C225 C245 1.449 . S
C226 C225 1.258 . S
C226 C227 1.477 . S
C226 H246 0.931 . S
C227 C223 1.460 . S
C227 C226 1.477 . S
C227 H247 0.930 . S
C228 N224 1.362 . S
C228 C225 1.431 . S
C228 C238 1.476 . S
H229 C223 0.929 . S
C230 O221 1.250 . S
C230 O222 1.258 . S
O231 Mn216 2.162 . S
O231 C219 1.281 . S
O232 Mn216 2.297 . S
O232 C219 1.236 . S
N233 Mn217 2.282 . S
N233 C234 1.328 . S
N233 C238 1.318 . S
C234 N233 1.328 . S
C234 C235 1.457 . S
C234 H239 0.929 . S
C235 C234 1.457 . S
C235 C236 1.291 . S
C235 H248 0.931 . S
C236 C235 1.291 . S
C236 C237 1.373 . S
C236 H249 0.929 . S
C237 C236 1.373 . S
C237 C238 1.396 . S
C237 C244 1.403 . S
C238 C228 1.476 . S
C238 N233 1.318 . S
C238 C237 1.396 . S
H239 C234 0.929 . S
O240 Mn216 2.385 . S
O240 C218 1.234 . S
O241 Mn216 2.209 . S
O241 Mn217 2.215 . S
O241 C218 1.283 . S
O242 Mn216 2.094 . S
O242 C220 1.240 . S
O243 Mn217 2.117 . S
O243 C220 1.264 . S
C244 C237 1.403 . S
C244 C245 1.399 . S
C244 H250 0.929 . S
C245 C225 1.449 . S
C245 C244 1.399 . S
C245 H251 0.930 . S
H246 C226 0.931 . S
H247 C227 0.930 . S
H248 C235 0.931 . S
H249 C236 0.929 . S
H250 C244 0.929 . S
H251 C245 0.930 . S
Mn252 O257 2.095 . S
Mn252 O267 2.162 1_565 S
Mn252 O268 2.297 1_565 S
Mn252 O276 2.385 . S
Mn252 O277 2.209 . S
Mn252 O278 2.094 . S
Mn253 O258 2.121 . S
Mn253 N260 2.257 . S
Mn253 N269 2.282 . S
Mn253 O277 2.215 . S
Mn253 O279 2.117 . S
C254 O276 1.234 . S
C254 O277 1.283 . S
C255 O267 1.281 . S
C255 O268 1.236 . S
C256 O278 1.240 . S
C256 O279 1.264 . S
O257 Mn252 2.095 . S
O257 C266 1.250 . S
O258 Mn253 2.121 . S
O258 C266 1.258 . S
C259 N260 1.326 . S
C259 C263 1.460 . S
C259 H265 0.929 . S
N260 Mn253 2.257 . S
N260 C259 1.326 . S
N260 C264 1.362 . S
C261 C262 1.258 . S
C261 C264 1.431 . S
C261 C281 1.449 . S
C262 C261 1.258 . S
C262 C263 1.477 . S
C262 H282 0.931 . S
C263 C259 1.460 . S
C263 C262 1.477 . S
C263 H283 0.930 . S
C264 N260 1.362 . S
C264 C261 1.431 . S
C264 C274 1.476 . S
H265 C259 0.929 . S
C266 O257 1.250 . S
C266 O258 1.258 . S
O267 Mn252 2.162 1_545 S
O267 C255 1.281 . S
O268 Mn252 2.297 1_545 S
O268 C255 1.236 . S
N269 Mn253 2.282 . S
N269 C270 1.328 . S
N269 C274 1.318 . S
C270 N269 1.328 . S
C270 C271 1.457 . S
C270 H275 0.929 . S
C271 C270 1.457 . S
C271 C272 1.291 . S
C271 H284 0.931 . S
C272 C271 1.291 . S
C272 C273 1.373 . S
C272 H285 0.929 . S
C273 C272 1.373 . S
C273 C274 1.396 . S
C273 C280 1.403 . S
C274 C264 1.476 . S
C274 N269 1.318 . S
C274 C273 1.396 . S
H275 C270 0.929 . S
O276 Mn252 2.385 . S
O276 C254 1.234 . S
O277 Mn252 2.209 . S
O277 Mn253 2.215 . S
O277 C254 1.283 . S
O278 Mn252 2.094 . S
O278 C256 1.240 . S
O279 Mn253 2.117 . S
O279 C256 1.264 . S
C280 C273 1.403 . S
C280 C281 1.399 . S
C280 H286 0.929 . S
C281 C261 1.449 . S
C281 C280 1.399 . S
C281 H287 0.930 . S
H282 C262 0.931 . S
H283 C263 0.930 . S
H284 C271 0.931 . S
H285 C272 0.929 . S
H286 C280 0.929 . S
H287 C281 0.930 . S
Mn288 O293 2.095 . S
Mn288 O303 2.162 1_455 S
Mn288 O304 2.297 1_455 S
Mn288 O312 2.385 . S
Mn288 O313 2.209 . S
Mn288 O314 2.094 . S
Mn289 O294 2.121 . S
Mn289 N296 2.257 . S
Mn289 N305 2.282 . S
Mn289 O313 2.215 . S
Mn289 O315 2.117 . S
C290 O312 1.234 . S
C290 O313 1.283 . S
C291 O303 1.281 . S
C291 O304 1.236 . S
C292 O314 1.240 . S
C292 O315 1.264 . S
O293 Mn288 2.095 . S
O293 C302 1.250 . S
O294 Mn289 2.121 . S
O294 C302 1.258 . S
C295 N296 1.326 . S
C295 C299 1.460 . S
C295 H301 0.929 . S
N296 Mn289 2.257 . S
N296 C295 1.326 . S
N296 C300 1.362 . S
C297 C298 1.258 . S
C297 C300 1.431 . S
C297 C317 1.449 . S
C298 C297 1.258 . S
C298 C299 1.477 . S
C298 H318 0.931 . S
C299 C295 1.460 . S
C299 C298 1.477 . S
C299 H319 0.930 . S
C300 N296 1.362 . S
C300 C297 1.431 . S
C300 C310 1.476 . S
H301 C295 0.929 . S
C302 O293 1.250 . S
C302 O294 1.258 . S
O303 Mn288 2.162 1_655 S
O303 C291 1.281 . S
O304 Mn288 2.297 1_655 S
O304 C291 1.236 . S
N305 Mn289 2.282 . S
N305 C306 1.328 . S
N305 C310 1.318 . S
C306 N305 1.328 . S
C306 C307 1.457 . S
C306 H311 0.929 . S
C307 C306 1.457 . S
C307 C308 1.291 . S
C307 H320 0.931 . S
C308 C307 1.291 . S
C308 C309 1.373 . S
C308 H321 0.929 . S
C309 C308 1.373 . S
C309 C310 1.396 . S
C309 C316 1.403 . S
C310 C300 1.476 . S
C310 N305 1.318 . S
C310 C309 1.396 . S
H311 C306 0.929 . S
O312 Mn288 2.385 . S
O312 C290 1.234 . S
O313 Mn288 2.209 . S
O313 Mn289 2.215 . S
O313 C290 1.283 . S
O314 Mn288 2.094 . S
O314 C292 1.240 . S
O315 Mn289 2.117 . S
O315 C292 1.264 . S
C316 C309 1.403 . S
C316 C317 1.399 . S
C316 H322 0.929 . S
C317 C297 1.449 . S
C317 C316 1.399 . S
C317 H323 0.930 . S
H318 C298 0.931 . S
H319 C299 0.930 . S
H320 C307 0.931 . S
H321 C308 0.929 . S
H322 C316 0.929 . S
H323 C317 0.930 . S
Mn324 O329 2.092 . S
Mn324 O339 2.162 . S
Mn324 O340 2.297 . S
Mn324 O348 2.385 . S
Mn324 O349 2.209 . S
Mn324 O350 2.094 . S
Mn325 O330 2.121 1_565 S
Mn325 N332 2.257 . S
Mn325 N341 2.282 . S
Mn325 O349 2.215 . S
Mn325 O351 2.117 . S
C326 O348 1.234 . S
C326 O349 1.283 . S
C327 O339 1.281 . S
C327 O340 1.236 . S
C328 O350 1.240 . S
C328 O351 1.264 . S
O329 Mn324 2.092 . S
O329 C338 1.251 1_565 S
O330 Mn325 2.121 1_545 S
O330 C338 1.258 . S
C331 N332 1.326 1_545 S
C331 C335 1.460 . S
C331 H337 0.929 . S
N332 Mn325 2.257 . S
N332 C331 1.326 1_565 S
N332 C336 1.362 . S
C333 C334 1.258 1_565 S
C333 C336 1.431 . S
C333 C353 1.449 . S
C334 C333 1.258 1_545 S
C334 C335 1.477 . S
C334 H354 0.931 . S
C335 C331 1.460 . S
C335 C334 1.477 . S
C335 H355 0.930 . S
C336 N332 1.362 . S
C336 C333 1.431 . S
C336 C346 1.476 . S
H337 C331 0.929 . S
C338 O329 1.251 1_545 S
C338 O330 1.258 . S
O339 Mn324 2.162 . S
O339 C327 1.281 . S
O340 Mn324 2.297 . S
O340 C327 1.236 . S
N341 Mn325 2.282 . S
N341 C342 1.328 . S
N341 C346 1.318 . S
C342 N341 1.328 . S
C342 C343 1.457 . S
C342 H347 0.929 . S
C343 C342 1.457 . S
C343 C344 1.291 . S
C343 H356 0.931 . S
C344 C343 1.291 . S
C344 C345 1.373 . S
C344 H357 0.929 . S
C345 C344 1.373 . S
C345 C346 1.396 . S
C345 C352 1.403 . S
C346 C336 1.476 . S
C346 N341 1.318 . S
C346 C345 1.396 . S
H347 C342 0.929 . S
O348 Mn324 2.385 . S
O348 C326 1.234 . S
O349 Mn324 2.209 . S
O349 Mn325 2.215 . S
O349 C326 1.283 . S
O350 Mn324 2.094 . S
O350 C328 1.240 . S
O351 Mn325 2.117 . S
O351 C328 1.264 . S
C352 C345 1.403 . S
C352 C353 1.399 . S
C352 H358 0.929 . S
C353 C333 1.449 . S
C353 C352 1.399 . S
C353 H359 0.930 . S
H354 C334 0.931 . S
H355 C335 0.930 . S
H356 C343 0.931 . S
H357 C344 0.929 . S
H358 C352 0.929 . S
H359 C353 0.930 . S
Mn360 O365 2.095 . S
Mn360 O375 2.162 1_455 S
Mn360 O376 2.297 1_455 S
Mn360 O384 2.385 . S
Mn360 O385 2.209 . S
Mn360 O386 2.094 . S
Mn361 O366 2.121 . S
Mn361 N368 2.257 . S
Mn361 N377 2.282 . S
Mn361 O385 2.215 . S
Mn361 O387 2.117 . S
C362 O384 1.234 . S
C362 O385 1.283 . S
C363 O375 1.281 . S
C363 O376 1.236 . S
C364 O386 1.240 . S
C364 O387 1.264 . S
O365 Mn360 2.095 . S
O365 C374 1.250 . S
O366 Mn361 2.121 . S
O366 C374 1.258 . S
C367 N368 1.326 . S
C367 C371 1.460 . S
C367 H373 0.929 . S
N368 Mn361 2.257 . S
N368 C367 1.326 . S
N368 C372 1.362 . S
C369 C370 1.258 . S
C369 C372 1.431 . S
C369 C389 1.449 . S
C370 C369 1.258 . S
C370 C371 1.477 . S
C370 H390 0.931 . S
C371 C367 1.460 . S
C371 C370 1.477 . S
C371 H391 0.930 . S
C372 N368 1.362 . S
C372 C369 1.431 . S
C372 C382 1.476 . S
H373 C367 0.929 . S
C374 O365 1.250 . S
C374 O366 1.258 . S
O375 Mn360 2.162 1_655 S
O375 C363 1.281 . S
O376 Mn360 2.297 1_655 S
O376 C363 1.236 . S
N377 Mn361 2.282 . S
N377 C378 1.328 . S
N377 C382 1.318 . S
C378 N377 1.328 . S
C378 C379 1.457 . S
C378 H383 0.929 . S
C379 C378 1.457 . S
C379 C380 1.291 . S
C379 H392 0.931 . S
C380 C379 1.291 . S
C380 C381 1.373 . S
C380 H393 0.929 . S
C381 C380 1.373 . S
C381 C382 1.396 . S
C381 C388 1.403 . S
C382 C372 1.476 . S
C382 N377 1.318 . S
C382 C381 1.396 . S
H383 C378 0.929 . S
O384 Mn360 2.385 . S
O384 C362 1.234 . S
O385 Mn360 2.209 . S
O385 Mn361 2.215 . S
O385 C362 1.283 . S
O386 Mn360 2.094 . S
O386 C364 1.240 . S
O387 Mn361 2.117 . S
O387 C364 1.264 . S
C388 C381 1.403 . S
C388 C389 1.399 . S
C388 H394 0.929 . S
C389 C369 1.449 . S
C389 C388 1.399 . S
C389 H395 0.930 . S
H390 C370 0.931 . S
H391 C371 0.930 . S
H392 C379 0.931 . S
H393 C380 0.929 . S
H394 C388 0.929 . S
H395 C389 0.930 . S
Mn396 O401 2.095 . S
Mn396 O411 2.162 . S
Mn396 O412 2.297 . S
Mn396 O420 2.385 . S
Mn396 O421 2.209 . S
Mn396 O422 2.094 . S
Mn397 O402 2.121 . S
Mn397 N404 2.257 . S
Mn397 N413 2.282 . S
Mn397 O421 2.215 . S
Mn397 O423 2.117 . S
C398 O420 1.234 . S
C398 O421 1.283 . S
C399 O411 1.281 . S
C399 O412 1.236 . S
C400 O422 1.240 . S
C400 O423 1.264 . S
O401 Mn396 2.095 . S
O401 C410 1.250 . S
O402 Mn397 2.121 . S
O402 C410 1.258 . S
C403 N404 1.326 . S
C403 C407 1.460 . S
C403 H409 0.929 . S
N404 Mn397 2.257 . S
N404 C403 1.326 . S
N404 C408 1.362 . S
C405 C406 1.258 . S
C405 C408 1.431 . S
C405 C425 1.449 . S
C406 C405 1.258 . S
C406 C407 1.477 . S
C406 H426 0.931 . S
C407 C403 1.460 . S
C407 C406 1.477 . S
C407 H427 0.930 . S
C408 N404 1.362 . S
C408 C405 1.431 . S
C408 C418 1.476 . S
H409 C403 0.929 . S
C410 O401 1.250 . S
C410 O402 1.258 . S
O411 Mn396 2.162 . S
O411 C399 1.281 . S
O412 Mn396 2.297 . S
O412 C399 1.236 . S
N413 Mn397 2.282 . S
N413 C414 1.328 . S
N413 C418 1.318 . S
C414 N413 1.328 . S
C414 C415 1.457 . S
C414 H419 0.929 . S
C415 C414 1.457 . S
C415 C416 1.291 . S
C415 H428 0.931 . S
C416 C415 1.291 . S
C416 C417 1.373 . S
C416 H429 0.929 . S
C417 C416 1.373 . S
C417 C418 1.396 . S
C417 C424 1.403 . S
C418 C408 1.476 . S
C418 N413 1.318 . S
C418 C417 1.396 . S
H419 C414 0.929 . S
O420 Mn396 2.385 . S
O420 C398 1.234 . S
O421 Mn396 2.209 . S
O421 Mn397 2.215 . S
O421 C398 1.283 . S
O422 Mn396 2.094 . S
O422 C400 1.240 . S
O423 Mn397 2.117 . S
O423 C400 1.264 . S
C424 C417 1.403 . S
C424 C425 1.399 . S
C424 H430 0.929 . S
C425 C405 1.449 . S
C425 C424 1.399 . S
C425 H431 0.930 . S
H426 C406 0.931 . S
H427 C407 0.930 . S
H428 C415 0.931 . S
H429 C416 0.929 . S
H430 C424 0.929 . S
H431 C425 0.930 . S
Mn432 O437 2.095 . S
Mn432 O447 2.162 1_545 S
Mn432 O448 2.297 1_545 S
Mn432 O456 2.385 . S
Mn432 O457 2.209 . S
Mn432 O458 2.094 . S
Mn433 O438 2.121 . S
Mn433 N440 2.257 . S
Mn433 N449 2.282 . S
Mn433 O457 2.215 . S
Mn433 O459 2.117 . S
C434 O456 1.234 . S
C434 O457 1.283 . S
C435 O447 1.281 . S
C435 O448 1.236 . S
C436 O458 1.240 . S
C436 O459 1.264 . S
O437 Mn432 2.095 . S
O437 C446 1.250 . S
O438 Mn433 2.121 . S
O438 C446 1.258 . S
C439 N440 1.326 . S
C439 C443 1.460 . S
C439 H445 0.929 . S
N440 Mn433 2.257 . S
N440 C439 1.326 . S
N440 C444 1.362 . S
C441 C442 1.258 . S
C441 C444 1.431 . S
C441 C461 1.449 . S
C442 C441 1.258 . S
C442 C443 1.477 . S
C442 H462 0.931 . S
C443 C439 1.460 . S
C443 C442 1.477 . S
C443 H463 0.930 . S
C444 N440 1.362 . S
C444 C441 1.431 . S
C444 C454 1.476 . S
H445 C439 0.929 . S
C446 O437 1.250 . S
C446 O438 1.258 . S
O447 Mn432 2.162 1_565 S
O447 C435 1.281 . S
O448 Mn432 2.297 1_565 S
O448 C435 1.236 . S
N449 Mn433 2.282 . S
N449 C450 1.328 . S
N449 C454 1.318 . S
C450 N449 1.328 . S
C450 C451 1.457 . S
C450 H455 0.929 . S
C451 C450 1.457 . S
C451 C452 1.291 . S
C451 H464 0.931 . S
C452 C451 1.291 . S
C452 C453 1.373 . S
C452 H465 0.929 . S
C453 C452 1.373 . S
C453 C454 1.396 . S
C453 C460 1.403 . S
C454 C444 1.476 . S
C454 N449 1.318 . S
C454 C453 1.396 . S
H455 C450 0.929 . S
O456 Mn432 2.385 . S
O456 C434 1.234 . S
O457 Mn432 2.209 . S
O457 Mn433 2.215 . S
O457 C434 1.283 . S
O458 Mn432 2.094 . S
O458 C436 1.240 . S
O459 Mn433 2.117 . S
O459 C436 1.264 . S
C460 C453 1.403 . S
C460 C461 1.399 . S
C460 H466 0.929 . S
C461 C441 1.449 . S
C461 C460 1.399 . S
C461 H467 0.930 . S
H462 C442 0.931 . S
H463 C443 0.930 . S
H464 C451 0.931 . S
H465 C452 0.929 . S
H466 C460 0.929 . S
H467 C461 0.930 . S
Mn468 O473 2.095 . S
Mn468 O483 2.162 . S
Mn468 O484 2.297 . S
Mn468 O492 2.385 . S
Mn468 O493 2.209 . S
Mn468 O494 2.094 . S
Mn469 O474 2.121 1_655 S
Mn469 N476 2.257 . S
Mn469 N485 2.282 . S
Mn469 O493 2.215 . S
Mn469 O495 2.117 . S
C470 O492 1.234 . S
C470 O493 1.283 . S
C471 O483 1.281 . S
C471 O484 1.236 . S
C472 O494 1.240 . S
C472 O495 1.264 . S
O473 Mn468 2.095 . S
O473 C482 1.250 1_655 S
O474 Mn469 2.121 1_455 S
O474 C482 1.258 . S
C475 N476 1.326 1_455 S
C475 C479 1.460 . S
C475 H481 0.929 . S
N476 Mn469 2.257 . S
N476 C475 1.326 1_655 S
N476 C480 1.362 . S
C477 C478 1.258 1_655 S
C477 C480 1.431 . S
C477 C497 1.449 . S
C478 C477 1.258 1_455 S
C478 C479 1.477 . S
C478 H498 0.931 . S
C479 C475 1.460 . S
C479 C478 1.477 . S
C479 H499 0.930 . S
C480 N476 1.362 . S
C480 C477 1.431 . S
C480 C490 1.476 . S
H481 C475 0.929 . S
C482 O473 1.250 1_455 S
C482 O474 1.258 . S
O483 Mn468 2.162 . S
O483 C471 1.281 . S
O484 Mn468 2.297 . S
O484 C471 1.236 . S
N485 Mn469 2.282 . S
N485 C486 1.328 . S
N485 C490 1.318 . S
C486 N485 1.328 . S
C486 C487 1.457 . S
C486 H491 0.929 . S
C487 C486 1.457 . S
C487 C488 1.291 . S
C487 H500 0.931 . S
C488 C487 1.291 . S
C488 C489 1.373 . S
C488 H501 0.929 . S
C489 C488 1.373 . S
C489 C490 1.396 . S
C489 C496 1.403 . S
C490 C480 1.476 . S
C490 N485 1.318 . S
C490 C489 1.396 . S
H491 C486 0.929 . S
O492 Mn468 2.385 . S
O492 C470 1.234 . S
O493 Mn468 2.209 . S
O493 Mn469 2.215 . S
O493 C470 1.283 . S
O494 Mn468 2.094 . S
O494 C472 1.240 . S
O495 Mn469 2.117 . S
O495 C472 1.264 . S
C496 C489 1.403 . S
C496 C497 1.399 . S
C496 H502 0.929 . S
C497 C477 1.449 . S
C497 C496 1.399 . S
C497 H503 0.930 . S
H498 C478 0.931 . S
H499 C479 0.930 . S
H500 C487 0.931 . S
H501 C488 0.929 . S
H502 C496 0.929 . S
H503 C497 0.930 . S
Mn504 O509 2.095 . S
Mn504 O519 2.162 . S
Mn504 O520 2.297 . S
Mn504 O528 2.385 . S
Mn504 O529 2.209 . S
Mn504 O530 2.094 . S
Mn505 O510 2.121 . S
Mn505 N512 2.257 . S
Mn505 N521 2.282 . S
Mn505 O529 2.215 . S
Mn505 O531 2.117 . S
C506 O528 1.234 . S
C506 O529 1.283 . S
C507 O519 1.281 . S
C507 O520 1.236 . S
C508 O530 1.240 . S
C508 O531 1.264 . S
O509 Mn504 2.095 . S
O509 C518 1.250 . S
O510 Mn505 2.121 . S
O510 C518 1.258 . S
C511 N512 1.326 . S
C511 C515 1.460 . S
C511 H517 0.929 . S
N512 Mn505 2.257 . S
N512 C511 1.326 . S
N512 C516 1.362 . S
C513 C514 1.258 . S
C513 C516 1.431 . S
C513 C533 1.449 . S
C514 C513 1.258 . S
C514 C515 1.477 . S
C514 H534 0.931 . S
C515 C511 1.460 . S
C515 C514 1.477 . S
C515 H535 0.930 . S
C516 N512 1.362 . S
C516 C513 1.431 . S
C516 C526 1.476 . S
H517 C511 0.929 . S
C518 O509 1.250 . S
C518 O510 1.258 . S
O519 Mn504 2.162 . S
O519 C507 1.281 . S
O520 Mn504 2.297 . S
O520 C507 1.236 . S
N521 Mn505 2.282 . S
N521 C522 1.328 . S
N521 C526 1.318 . S
C522 N521 1.328 . S
C522 C523 1.457 . S
C522 H527 0.929 . S
C523 C522 1.457 . S
C523 C524 1.291 . S
C523 H536 0.931 . S
C524 C523 1.291 . S
C524 C525 1.373 . S
C524 H537 0.929 . S
C525 C524 1.373 . S
C525 C526 1.396 . S
C525 C532 1.403 . S
C526 C516 1.476 . S
C526 N521 1.318 . S
C526 C525 1.396 . S
H527 C522 0.929 . S
O528 Mn504 2.385 . S
O528 C506 1.234 . S
O529 Mn504 2.209 . S
O529 Mn505 2.215 . S
O529 C506 1.283 . S
O530 Mn504 2.094 . S
O530 C508 1.240 . S
O531 Mn505 2.117 . S
O531 C508 1.264 . S
C532 C525 1.403 . S
C532 C533 1.399 . S
C532 H538 0.929 . S
C533 C513 1.449 . S
C533 C532 1.399 . S
C533 H539 0.930 . S
H534 C514 0.931 . S
H535 C515 0.930 . S
H536 C523 0.931 . S
H537 C524 0.929 . S
H538 C532 0.929 . S
H539 C533 0.930 . S
Mn540 O545 2.095 . S
Mn540 O555 2.162 . S
Mn540 O556 2.297 . S
Mn540 O564 2.385 . S
Mn540 O565 2.209 . S
Mn540 O566 2.094 . S
Mn541 O546 2.121 . S
Mn541 N548 2.257 . S
Mn541 N557 2.282 . S
Mn541 O565 2.215 . S
Mn541 O567 2.117 . S
C542 O564 1.234 . S
C542 O565 1.283 . S
C543 O555 1.281 . S
C543 O556 1.236 . S
C544 O566 1.240 . S
C544 O567 1.264 . S
O545 Mn540 2.095 . S
O545 C554 1.250 . S
O546 Mn541 2.121 . S
O546 C554 1.258 . S
C547 N548 1.326 . S
C547 C551 1.460 . S
C547 H553 0.929 . S
N548 Mn541 2.257 . S
N548 C547 1.326 . S
N548 C552 1.362 . S
C549 C550 1.258 . S
C549 C552 1.431 . S
C549 C569 1.449 . S
C550 C549 1.258 . S
C550 C551 1.477 . S
C550 H570 0.931 . S
C551 C547 1.460 . S
C551 C550 1.477 . S
C551 H571 0.930 . S
C552 N548 1.362 . S
C552 C549 1.431 . S
C552 C562 1.476 . S
H553 C547 0.929 . S
C554 O545 1.250 . S
C554 O546 1.258 . S
O555 Mn540 2.162 . S
O555 C543 1.281 . S
O556 Mn540 2.297 . S
O556 C543 1.236 . S
N557 Mn541 2.282 . S
N557 C558 1.328 . S
N557 C562 1.318 . S
C558 N557 1.328 . S
C558 C559 1.457 . S
C558 H563 0.929 . S
C559 C558 1.457 . S
C559 C560 1.291 . S
C559 H572 0.931 . S
C560 C559 1.291 . S
C560 C561 1.373 . S
C560 H573 0.929 . S
C561 C560 1.373 . S
C561 C562 1.396 . S
C561 C568 1.403 . S
C562 C552 1.476 . S
C562 N557 1.318 . S
C562 C561 1.396 . S
H563 C558 0.929 . S
O564 Mn540 2.385 . S
O564 C542 1.234 . S
O565 Mn540 2.209 . S
O565 Mn541 2.215 . S
O565 C542 1.283 . S
O566 Mn540 2.094 . S
O566 C544 1.240 . S
O567 Mn541 2.117 . S
O567 C544 1.264 . S
C568 C561 1.403 . S
C568 C569 1.399 . S
C568 H574 0.929 . S
C569 C549 1.449 . S
C569 C568 1.399 . S
C569 H575 0.930 . S
H570 C550 0.931 . S
H571 C551 0.930 . S
H572 C559 0.931 . S
H573 C560 0.929 . S
H574 C568 0.929 . S
H575 C569 0.930 . S
Mn576 O581 2.095 1_545 S
Mn576 O591 2.162 . S
Mn576 O592 2.297 . S
Mn576 O600 2.385 . S
Mn576 O601 2.209 . S
Mn576 O602 2.094 . S
Mn577 O582 2.121 1_545 S
Mn577 N584 2.257 . S
Mn577 N593 2.282 . S
Mn577 O601 2.215 . S
Mn577 O603 2.117 . S
C578 O600 1.234 . S
C578 O601 1.283 . S
C579 O591 1.281 . S
C579 O592 1.236 . S
C580 O602 1.240 . S
C580 O603 1.264 . S
O581 Mn576 2.095 1_565 S
O581 C590 1.250 . S
O582 Mn577 2.121 1_565 S
O582 C590 1.258 . S
C583 N584 1.326 1_565 S
C583 C587 1.460 . S
C583 H589 0.929 . S
N584 Mn577 2.257 . S
N584 C583 1.326 1_545 S
N584 C588 1.362 . S
C585 C586 1.258 1_545 S
C585 C588 1.431 . S
C585 C605 1.449 . S
C586 C585 1.258 1_565 S
C586 C587 1.477 . S
C586 H606 0.931 . S
C587 C583 1.460 . S
C587 C586 1.477 . S
C587 H607 0.930 . S
C588 N584 1.362 . S
C588 C585 1.431 . S
C588 C598 1.476 . S
H589 C583 0.929 . S
C590 O581 1.250 . S
C590 O582 1.258 . S
O591 Mn576 2.162 . S
O591 C579 1.281 . S
O592 Mn576 2.297 . S
O592 C579 1.236 . S
N593 Mn577 2.282 . S
N593 C594 1.328 . S
N593 C598 1.318 . S
C594 N593 1.328 . S
C594 C595 1.457 . S
C594 H599 0.929 . S
C595 C594 1.457 . S
C595 C596 1.291 . S
C595 H608 0.931 . S
C596 C595 1.291 . S
C596 C597 1.373 . S
C596 H609 0.929 . S
C597 C596 1.373 . S
C597 C598 1.396 . S
C597 C604 1.403 . S
C598 C588 1.476 . S
C598 N593 1.318 . S
C598 C597 1.396 . S
H599 C594 0.929 . S
O600 Mn576 2.385 . S
O600 C578 1.234 . S
O601 Mn576 2.209 . S
O601 Mn577 2.215 . S
O601 C578 1.283 . S
O602 Mn576 2.094 . S
O602 C580 1.240 . S
O603 Mn577 2.117 . S
O603 C580 1.264 . S
C604 C597 1.403 . S
C604 C605 1.399 . S
C604 H610 0.929 . S
C605 C585 1.449 . S
C605 C604 1.399 . S
C605 H611 0.930 . S
H606 C586 0.931 . S
H607 C587 0.930 . S
H608 C595 0.931 . S
H609 C596 0.929 . S
H610 C604 0.929 . S
H611 C605 0.930 . S
Mn612 O617 2.095 . S
Mn612 O627 2.162 1_655 S
Mn612 O628 2.297 1_655 S
Mn612 O636 2.385 . S
Mn612 O637 2.209 . S
Mn612 O638 2.094 . S
Mn613 O618 2.121 . S
Mn613 N620 2.257 . S
Mn613 N629 2.282 . S
Mn613 O637 2.215 . S
Mn613 O639 2.117 . S
C614 O636 1.234 . S
C614 O637 1.283 . S
C615 O627 1.281 . S
C615 O628 1.236 . S
C616 O638 1.240 . S
C616 O639 1.264 . S
O617 Mn612 2.095 . S
O617 C626 1.250 . S
O618 Mn613 2.121 . S
O618 C626 1.258 . S
C619 N620 1.326 . S
C619 C623 1.460 . S
C619 H625 0.929 . S
N620 Mn613 2.257 . S
N620 C619 1.326 . S
N620 C624 1.362 . S
C621 C622 1.258 . S
C621 C624 1.431 . S
C621 C641 1.449 . S
C622 C621 1.258 . S
C622 C623 1.477 . S
C622 H642 0.931 . S
C623 C619 1.460 . S
C623 C622 1.477 . S
C623 H643 0.930 . S
C624 N620 1.362 . S
C624 C621 1.431 . S
C624 C634 1.476 . S
H625 C619 0.929 . S
C626 O617 1.250 . S
C626 O618 1.258 . S
O627 Mn612 2.162 1_455 S
O627 C615 1.281 . S
O628 Mn612 2.297 1_455 S
O628 C615 1.236 . S
N629 Mn613 2.282 . S
N629 C630 1.328 . S
N629 C634 1.318 . S
C630 N629 1.328 . S
C630 C631 1.457 . S
C630 H635 0.929 . S
C631 C630 1.457 . S
C631 C632 1.291 . S
C631 H644 0.931 . S
C632 C631 1.291 . S
C632 C633 1.373 . S
C632 H645 0.929 . S
C633 C632 1.373 . S
C633 C634 1.396 . S
C633 C640 1.403 . S
C634 C624 1.476 . S
C634 N629 1.318 . S
C634 C633 1.396 . S
H635 C630 0.929 . S
O636 Mn612 2.385 . S
O636 C614 1.234 . S
O637 Mn612 2.209 . S
O637 Mn613 2.215 . S
O637 C614 1.283 . S
O638 Mn612 2.094 . S
O638 C616 1.240 . S
O639 Mn613 2.117 . S
O639 C616 1.264 . S
C640 C633 1.403 . S
C640 C641 1.399 . S
C640 H646 0.929 . S
C641 C621 1.449 . S
C641 C640 1.399 . S
C641 H647 0.930 . S
H642 C622 0.931 . S
H643 C623 0.930 . S
H644 C631 0.931 . S
H645 C632 0.929 . S
H646 C640 0.929 . S
H647 C641 0.930 . S
C648 C649 1.384 . S
C648 C650 1.384 . S
C648 H676 0.931 . S
C649 C648 1.384 . S
C649 C652 1.382 . S
C650 C648 1.384 . S
C650 C651 1.381 . S
C650 H677 0.930 . S
C651 C650 1.381 . S
C651 C653 1.381 . S
C651 C654 1.487 . S
C652 C649 1.382 . S
C652 C653 1.387 . S
C652 H678 0.930 . S
C653 C651 1.381 . S
C653 C652 1.387 . S
C653 H679 0.931 . S
C654 C651 1.487 . S
C654 C661 1.399 . S
C654 N692 1.343 . S
C655 C656 1.384 . S
C655 C657 1.384 . S
C655 H680 0.931 . S
C656 C655 1.384 . S
C656 C659 1.382 . S
C657 C655 1.384 . S
C657 C658 1.381 . S
C657 H681 0.930 . S
C658 C657 1.381 . S
C658 C660 1.381 . S
C658 C661 1.487 . S
C659 C656 1.382 . S
C659 C660 1.387 . S
C659 H682 0.930 . S
C660 C658 1.381 . S
C660 C659 1.387 . S
C660 H683 0.931 . S
C661 C654 1.399 . S
C661 C658 1.487 . S
C661 N693 1.343 . S
C662 C663 1.384 . S
C662 C664 1.384 . S
C662 H684 0.931 . S
C663 C662 1.384 . S
C663 C666 1.382 . S
C664 C662 1.384 . S
C664 C665 1.381 . S
C664 H685 0.930 . S
C665 C664 1.381 . S
C665 C667 1.381 . S
C665 C668 1.487 . S
C666 C663 1.382 . S
C666 C667 1.387 . S
C666 H686 0.930 . S
C667 C665 1.381 . S
C667 C666 1.387 . S
C667 H687 0.931 . S
C668 C665 1.487 . S
C668 C675 1.399 . S
C668 N693 1.343 . S
C669 C670 1.384 . S
C669 C671 1.384 . S
C669 H688 0.931 . S
C670 C669 1.384 . S
C670 C673 1.382 . S
C671 C669 1.384 . S
C671 C672 1.381 . S
C671 H689 0.930 . S
C672 C671 1.381 . S
C672 C674 1.381 . S
C672 C675 1.487 . S
C673 C670 1.382 . S
C673 C674 1.387 . S
C673 H690 0.930 . S
C674 C672 1.381 . S
C674 C673 1.387 . S
C674 H691 0.931 . S
C675 C668 1.399 . S
C675 C672 1.487 . S
C675 N692 1.343 . S
H676 C648 0.931 . S
H677 C650 0.930 . S
H678 C652 0.930 . S
H679 C653 0.931 . S
H680 C655 0.931 . S
H681 C657 0.930 . S
H682 C659 0.930 . S
H683 C660 0.931 . S
H684 C662 0.931 . S
H685 C664 0.930 . S
H686 C666 0.930 . S
H687 C667 0.931 . S
H688 C669 0.931 . S
H689 C671 0.930 . S
H690 C673 0.930 . S
H691 C674 0.931 . S
N692 C654 1.343 . S
N692 C675 1.343 . S
N693 C661 1.343 . S
N693 C668 1.343 . S
C694 C695 1.384 . S
C694 C696 1.384 . S
C694 H722 0.931 . S
C695 C694 1.384 . S
C695 C698 1.382 . S
C696 C694 1.384 . S
C696 C697 1.381 . S
C696 H723 0.930 . S
C697 C696 1.381 . S
C697 C699 1.381 . S
C697 C700 1.487 . S
C698 C695 1.382 . S
C698 C699 1.387 . S
C698 H724 0.930 . S
C699 C697 1.381 . S
C699 C698 1.387 . S
C699 H725 0.931 . S
C700 C697 1.487 . S
C700 C707 1.399 . S
C700 N738 1.343 . S
C701 C702 1.384 . S
C701 C703 1.384 . S
C701 H726 0.931 . S
C702 C701 1.384 . S
C702 C705 1.382 . S
C703 C701 1.384 . S
C703 C704 1.381 . S
C703 H727 0.930 . S
C704 C703 1.381 . S
C704 C706 1.381 . S
C704 C707 1.487 . S
C705 C702 1.382 . S
C705 C706 1.387 . S
C705 H728 0.930 . S
C706 C704 1.381 . S
C706 C705 1.387 . S
C706 H729 0.931 . S
C707 C700 1.399 . S
C707 C704 1.487 . S
C707 N739 1.343 . S
C708 C709 1.384 . S
C708 C710 1.384 . S
C708 H730 0.931 . S
C709 C708 1.384 . S
C709 C712 1.382 . S
C710 C708 1.384 . S
C710 C711 1.381 . S
C710 H731 0.930 . S
C711 C710 1.381 . S
C711 C713 1.381 . S
C711 C714 1.487 . S
C712 C709 1.382 . S
C712 C713 1.387 . S
C712 H732 0.930 . S
C713 C711 1.381 . S
C713 C712 1.387 . S
C713 H733 0.931 . S
C714 C711 1.487 . S
C714 C721 1.399 . S
C714 N739 1.343 . S
C715 C716 1.384 . S
C715 C717 1.384 . S
C715 H734 0.931 . S
C716 C715 1.384 . S
C716 C719 1.382 . S
C717 C715 1.384 . S
C717 C718 1.381 . S
C717 H735 0.930 . S
C718 C717 1.381 . S
C718 C720 1.381 . S
C718 C721 1.487 . S
C719 C716 1.382 . S
C719 C720 1.387 . S
C719 H736 0.930 . S
C720 C718 1.381 . S
C720 C719 1.387 . S
C720 H737 0.931 . S
C721 C714 1.399 . S
C721 C718 1.487 . S
C721 N738 1.343 . S
H722 C694 0.931 . S
H723 C696 0.930 . S
H724 C698 0.930 . S
H725 C699 0.931 . S
H726 C701 0.931 . S
H727 C703 0.930 . S
H728 C705 0.930 . S
H729 C706 0.931 . S
H730 C708 0.931 . S
H731 C710 0.930 . S
H732 C712 0.930 . S
H733 C713 0.931 . S
H734 C715 0.931 . S
H735 C717 0.930 . S
H736 C719 0.930 . S
H737 C720 0.931 . S
N738 C700 1.343 . S
N738 C721 1.343 . S
N739 C707 1.343 . S
N739 C714 1.343 . S
C740 C741 1.384 . S
C740 C742 1.384 . S
C740 H768 0.931 . S
C741 C740 1.384 . S
C741 C744 1.382 . S
C742 C740 1.384 . S
C742 C743 1.381 . S
C742 H769 0.930 . S
C743 C742 1.381 . S
C743 C745 1.381 . S
C743 C746 1.487 . S
C744 C741 1.382 . S
C744 C745 1.387 . S
C744 H770 0.930 . S
C745 C743 1.381 . S
C745 C744 1.387 . S
C745 H771 0.931 . S
C746 C743 1.487 . S
C746 C753 1.399 . S
C746 N784 1.343 . S
C747 C748 1.384 . S
C747 C749 1.384 . S
C747 H772 0.931 . S
C748 C747 1.384 . S
C748 C751 1.382 . S
C749 C747 1.384 . S
C749 C750 1.381 . S
C749 H773 0.930 . S
C750 C749 1.381 . S
C750 C752 1.381 . S
C750 C753 1.487 . S
C751 C748 1.382 . S
C751 C752 1.387 . S
C751 H774 0.930 . S
C752 C750 1.381 . S
C752 C751 1.387 . S
C752 H775 0.931 . S
C753 C746 1.399 . S
C753 C750 1.487 . S
C753 N785 1.343 . S
C754 C755 1.384 . S
C754 C756 1.384 . S
C754 H776 0.931 . S
C755 C754 1.384 . S
C755 C758 1.382 . S
C756 C754 1.384 . S
C756 C757 1.381 . S
C756 H777 0.930 . S
C757 C756 1.381 . S
C757 C759 1.381 . S
C757 C760 1.487 . S
C758 C755 1.382 . S
C758 C759 1.387 . S
C758 H778 0.930 . S
C759 C757 1.381 . S
C759 C758 1.387 . S
C759 H779 0.931 . S
C760 C757 1.487 . S
C760 C767 1.399 . S
C760 N785 1.343 . S
C761 C762 1.384 . S
C761 C763 1.384 . S
C761 H780 0.931 . S
C762 C761 1.384 . S
C762 C765 1.382 . S
C763 C761 1.384 . S
C763 C764 1.381 . S
C763 H781 0.930 . S
C764 C763 1.381 . S
C764 C766 1.381 . S
C764 C767 1.487 . S
C765 C762 1.382 . S
C765 C766 1.387 . S
C765 H782 0.930 . S
C766 C764 1.381 . S
C766 C765 1.387 . S
C766 H783 0.931 . S
C767 C760 1.399 . S
C767 C764 1.487 . S
C767 N784 1.343 . S
H768 C740 0.931 . S
H769 C742 0.930 . S
H770 C744 0.930 . S
H771 C745 0.931 . S
H772 C747 0.931 . S
H773 C749 0.930 . S
H774 C751 0.930 . S
H775 C752 0.931 . S
H776 C754 0.931 . S
H777 C756 0.930 . S
H778 C758 0.930 . S
H779 C759 0.931 . S
H780 C761 0.931 . S
H781 C763 0.930 . S
H782 C765 0.930 . S
H783 C766 0.931 . S
N784 C746 1.343 . S
N784 C767 1.343 . S
N785 C753 1.343 . S
N785 C760 1.343 . S
C786 C787 1.384 . S
C786 C788 1.384 . S
C786 H814 0.931 . S
C787 C786 1.384 . S
C787 C790 1.382 . S
C788 C786 1.384 . S
C788 C789 1.381 . S
C788 H815 0.930 . S
C789 C788 1.381 . S
C789 C791 1.381 . S
C789 C792 1.487 . S
C790 C787 1.382 . S
C790 C791 1.387 . S
C790 H816 0.930 . S
C791 C789 1.381 . S
C791 C790 1.387 . S
C791 H817 0.931 . S
C792 C789 1.487 . S
C792 C799 1.399 . S
C792 N830 1.343 . S
C793 C794 1.384 . S
C793 C795 1.384 . S
C793 H818 0.931 . S
C794 C793 1.384 . S
C794 C797 1.382 . S
C795 C793 1.384 . S
C795 C796 1.381 . S
C795 H819 0.930 . S
C796 C795 1.381 . S
C796 C798 1.381 . S
C796 C799 1.487 . S
C797 C794 1.382 . S
C797 C798 1.387 . S
C797 H820 0.930 . S
C798 C796 1.381 . S
C798 C797 1.387 . S
C798 H821 0.931 . S
C799 C792 1.399 . S
C799 C796 1.487 . S
C799 N831 1.343 . S
C800 C801 1.384 . S
C800 C802 1.384 . S
C800 H822 0.931 . S
C801 C800 1.384 . S
C801 C804 1.382 . S
C802 C800 1.384 . S
C802 C803 1.381 . S
C802 H823 0.930 . S
C803 C802 1.381 . S
C803 C805 1.381 . S
C803 C806 1.487 . S
C804 C801 1.382 . S
C804 C805 1.387 . S
C804 H824 0.930 . S
C805 C803 1.381 . S
C805 C804 1.387 . S
C805 H825 0.931 . S
C806 C803 1.487 . S
C806 C813 1.399 . S
C806 N831 1.343 . S
C807 C808 1.384 . S
C807 C809 1.384 . S
C807 H826 0.931 . S
C808 C807 1.384 . S
C808 C811 1.382 . S
C809 C807 1.384 . S
C809 C810 1.381 . S
C809 H827 0.930 . S
C810 C809 1.381 . S
C810 C812 1.381 . S
C810 C813 1.487 . S
C811 C808 1.382 . S
C811 C812 1.387 . S
C811 H828 0.930 . S
C812 C810 1.381 . S
C812 C811 1.387 . S
C812 H829 0.931 . S
C813 C806 1.399 . S
C813 C810 1.487 . S
C813 N830 1.343 . S
H814 C786 0.931 . S
H815 C788 0.930 . S
H816 C790 0.930 . S
H817 C791 0.931 . S
H818 C793 0.931 . S
H819 C795 0.930 . S
H820 C797 0.930 . S
H821 C798 0.931 . S
H822 C800 0.931 . S
H823 C802 0.930 . S
H824 C804 0.930 . S
H825 C805 0.931 . S
H826 C807 0.931 . S
H827 C809 0.930 . S
H828 C811 0.930 . S
H829 C812 0.931 . S
N830 C792 1.343 . S
N830 C813 1.343 . S
N831 C799 1.343 . S
N831 C806 1.343 . S
C832 C833 1.384 . S
C832 C834 1.384 . S
C832 H860 0.931 . S
C833 C832 1.384 . S
C833 C836 1.382 . S
C834 C832 1.384 . S
C834 C835 1.381 . S
C834 H861 0.930 . S
C835 C834 1.381 . S
C835 C837 1.381 . S
C835 C838 1.487 . S
C836 C833 1.382 . S
C836 C837 1.387 . S
C836 H862 0.930 . S
C837 C835 1.381 . S
C837 C836 1.387 . S
C837 H863 0.931 . S
C838 C835 1.487 . S
C838 C845 1.399 . S
C838 N876 1.343 . S
C839 C840 1.384 . S
C839 C841 1.384 . S
C839 H864 0.931 . S
C840 C839 1.384 . S
C840 C843 1.382 . S
C841 C839 1.384 . S
C841 C842 1.381 . S
C841 H865 0.930 . S
C842 C841 1.381 . S
C842 C844 1.381 . S
C842 C845 1.487 . S
C843 C840 1.382 . S
C843 C844 1.387 . S
C843 H866 0.930 . S
C844 C842 1.381 . S
C844 C843 1.387 . S
C844 H867 0.931 . S
C845 C838 1.399 . S
C845 C842 1.487 . S
C845 N877 1.343 . S
C846 C847 1.384 . S
C846 C848 1.384 . S
C846 H868 0.931 . S
C847 C846 1.384 . S
C847 C850 1.382 . S
C848 C846 1.384 . S
C848 C849 1.381 . S
C848 H869 0.930 . S
C849 C848 1.381 . S
C849 C851 1.381 . S
C849 C852 1.487 . S
C850 C847 1.382 . S
C850 C851 1.387 . S
C850 H870 0.930 . S
C851 C849 1.381 . S
C851 C850 1.387 . S
C851 H871 0.931 . S
C852 C849 1.487 . S
C852 C859 1.399 . S
C852 N877 1.343 . S
C853 C854 1.384 . S
C853 C855 1.384 . S
C853 H872 0.931 . S
C854 C853 1.384 . S
C854 C857 1.382 . S
C855 C853 1.384 . S
C855 C856 1.381 . S
C855 H873 0.930 . S
C856 C855 1.381 . S
C856 C858 1.381 . S
C856 C859 1.487 . S
C857 C854 1.382 . S
C857 C858 1.387 . S
C857 H874 0.930 . S
C858 C856 1.381 . S
C858 C857 1.387 . S
C858 H875 0.931 . S
C859 C852 1.399 . S
C859 C856 1.487 . S
C859 N876 1.343 . S
H860 C832 0.931 . S
H861 C834 0.930 . S
H862 C836 0.930 . S
H863 C837 0.931 . S
H864 C839 0.931 . S
H865 C841 0.930 . S
H866 C843 0.930 . S
H867 C844 0.931 . S
H868 C846 0.931 . S
H869 C848 0.930 . S
H870 C850 0.930 . S
H871 C851 0.931 . S
H872 C853 0.931 . S
H873 C855 0.930 . S
H874 C857 0.930 . S
H875 C858 0.931 . S
N876 C838 1.343 . S
N876 C859 1.343 . S
N877 C845 1.343 . S
N877 C852 1.343 . S
C878 C879 1.384 . S
C878 C880 1.384 . S
C878 H906 0.931 . S
C879 C878 1.384 . S
C879 C882 1.382 . S
C880 C878 1.384 . S
C880 C881 1.381 . S
C880 H907 0.930 . S
C881 C880 1.381 . S
C881 C883 1.381 . S
C881 C884 1.487 . S
C882 C879 1.382 . S
C882 C883 1.387 . S
C882 H908 0.930 . S
C883 C881 1.381 . S
C883 C882 1.387 . S
C883 H909 0.931 . S
C884 C881 1.487 . S
C884 C891 1.399 . S
C884 N922 1.343 . S
C885 C886 1.384 . S
C885 C887 1.384 . S
C885 H910 0.931 . S
C886 C885 1.384 . S
C886 C889 1.382 . S
C887 C885 1.384 . S
C887 C888 1.381 . S
C887 H911 0.930 . S
C888 C887 1.381 . S
C888 C890 1.381 . S
C888 C891 1.487 . S
C889 C886 1.382 . S
C889 C890 1.387 . S
C889 H912 0.930 . S
C890 C888 1.381 . S
C890 C889 1.387 . S
C890 H913 0.931 . S
C891 C884 1.399 . S
C891 C888 1.487 . S
C891 N923 1.343 . S
C892 C893 1.384 . S
C892 C894 1.384 . S
C892 H914 0.931 . S
C893 C892 1.384 . S
C893 C896 1.382 . S
C894 C892 1.384 . S
C894 C895 1.381 . S
C894 H915 0.930 . S
C895 C894 1.381 . S
C895 C897 1.381 . S
C895 C898 1.487 . S
C896 C893 1.382 . S
C896 C897 1.387 . S
C896 H916 0.930 . S
C897 C895 1.381 . S
C897 C896 1.387 . S
C897 H917 0.931 . S
C898 C895 1.487 . S
C898 C905 1.399 . S
C898 N923 1.343 . S
C899 C900 1.384 . S
C899 C901 1.384 . S
C899 H918 0.931 . S
C900 C899 1.384 . S
C900 C903 1.382 . S
C901 C899 1.384 . S
C901 C902 1.381 . S
C901 H919 0.930 . S
C902 C901 1.381 . S
C902 C904 1.381 . S
C902 C905 1.487 . S
C903 C900 1.382 . S
C903 C904 1.387 . S
C903 H920 0.930 . S
C904 C902 1.381 . S
C904 C903 1.387 . S
C904 H921 0.931 . S
C905 C898 1.399 . S
C905 C902 1.487 . S
C905 N922 1.343 . S
H906 C878 0.931 . S
H907 C880 0.930 . S
H908 C882 0.930 . S
H909 C883 0.931 . S
H910 C885 0.931 . S
H911 C887 0.930 . S
H912 C889 0.930 . S
H913 C890 0.931 . S
H914 C892 0.931 . S
H915 C894 0.930 . S
H916 C896 0.930 . S
H917 C897 0.931 . S
H918 C899 0.931 . S
H919 C901 0.930 . S
H920 C903 0.930 . S
H921 C904 0.931 . S
N922 C884 1.343 . S
N922 C905 1.343 . S
N923 C891 1.343 . S
N923 C898 1.343 . S
C924 C925 1.384 . S
C924 C926 1.384 . S
C924 H952 0.931 . S
C925 C924 1.384 . S
C925 C928 1.382 . S
C926 C924 1.384 . S
C926 C927 1.381 . S
C926 H953 0.930 . S
C927 C926 1.381 . S
C927 C929 1.381 . S
C927 C930 1.487 . S
C928 C925 1.382 . S
C928 C929 1.387 . S
C928 H954 0.930 . S
C929 C927 1.381 . S
C929 C928 1.387 . S
C929 H955 0.931 . S
C930 C927 1.487 . S
C930 C937 1.399 . S
C930 N968 1.343 . S
C931 C932 1.384 . S
C931 C933 1.384 . S
C931 H956 0.931 . S
C932 C931 1.384 . S
C932 C935 1.382 . S
C933 C931 1.384 . S
C933 C934 1.381 . S
C933 H957 0.930 . S
C934 C933 1.381 . S
C934 C936 1.381 . S
C934 C937 1.487 . S
C935 C932 1.382 . S
C935 C936 1.387 . S
C935 H958 0.930 . S
C936 C934 1.381 . S
C936 C935 1.387 . S
C936 H959 0.931 . S
C937 C930 1.399 . S
C937 C934 1.487 . S
C937 N969 1.343 . S
C938 C939 1.384 . S
C938 C940 1.384 . S
C938 H960 0.931 . S
C939 C938 1.384 . S
C939 C942 1.382 . S
C940 C938 1.384 . S
C940 C941 1.381 . S
C940 H961 0.930 . S
C941 C940 1.381 . S
C941 C943 1.381 . S
C941 C944 1.487 . S
C942 C939 1.382 . S
C942 C943 1.387 . S
C942 H962 0.930 . S
C943 C941 1.381 . S
C943 C942 1.387 . S
C943 H963 0.931 . S
C944 C941 1.487 . S
C944 C951 1.399 . S
C944 N969 1.343 . S
C945 C946 1.384 . S
C945 C947 1.384 . S
C945 H964 0.931 . S
C946 C945 1.384 . S
C946 C949 1.382 . S
C947 C945 1.384 . S
C947 C948 1.381 . S
C947 H965 0.930 . S
C948 C947 1.381 . S
C948 C950 1.381 . S
C948 C951 1.487 . S
C949 C946 1.382 . S
C949 C950 1.387 . S
C949 H966 0.930 . S
C950 C948 1.381 . S
C950 C949 1.387 . S
C950 H967 0.931 . S
C951 C944 1.399 . S
C951 C948 1.487 . S
C951 N968 1.343 . S
H952 C924 0.931 . S
H953 C926 0.930 . S
H954 C928 0.930 . S
H955 C929 0.931 . S
H956 C931 0.931 . S
H957 C933 0.930 . S
H958 C935 0.930 . S
H959 C936 0.931 . S
H960 C938 0.931 . S
H961 C940 0.930 . S
H962 C942 0.930 . S
H963 C943 0.931 . S
H964 C945 0.931 . S
H965 C947 0.930 . S
H966 C949 0.930 . S
H967 C950 0.931 . S
N968 C930 1.343 . S
N968 C951 1.343 . S
N969 C937 1.343 . S
N969 C944 1.343 . S
C970 C971 1.384 . S
C970 C972 1.384 . S
C970 H998 0.931 . S
C971 C970 1.384 . S
C971 C974 1.382 . S
C972 C970 1.384 . S
C972 C973 1.381 . S
C972 H999 0.930 . S
C973 C972 1.381 . S
C973 C975 1.381 . S
C973 C976 1.487 . S
C974 C971 1.382 . S
C974 C975 1.387 . S
C974 H1000 0.930 . S
C975 C973 1.381 . S
C975 C974 1.387 . S
C975 H1001 0.931 . S
C976 C973 1.487 . S
C976 C983 1.399 . S
C976 N1014 1.343 . S
C977 C978 1.384 . S
C977 C979 1.384 . S
C977 H1002 0.931 . S
C978 C977 1.384 . S
C978 C981 1.382 . S
C979 C977 1.384 . S
C979 C980 1.381 . S
C979 H1003 0.930 . S
C980 C979 1.381 . S
C980 C982 1.381 . S
C980 C983 1.487 . S
C981 C978 1.382 . S
C981 C982 1.387 . S
C981 H1004 0.930 . S
C982 C980 1.381 . S
C982 C981 1.387 . S
C982 H1005 0.931 . S
C983 C976 1.399 . S
C983 C980 1.487 . S
C983 N1015 1.343 . S
C984 C985 1.384 . S
C984 C986 1.384 . S
C984 H1006 0.931 . S
C985 C984 1.384 . S
C985 C988 1.382 . S
C986 C984 1.384 . S
C986 C987 1.381 . S
C986 H1007 0.930 . S
C987 C986 1.381 . S
C987 C989 1.381 . S
C987 C990 1.487 . S
C988 C985 1.382 . S
C988 C989 1.387 . S
C988 H1008 0.930 . S
C989 C987 1.381 . S
C989 C988 1.387 . S
C989 H1009 0.931 . S
C990 C987 1.487 . S
C990 C997 1.399 . S
C990 N1015 1.343 . S
C991 C992 1.384 . S
C991 C993 1.384 . S
C991 H1010 0.931 . S
C992 C991 1.384 . S
C992 C995 1.382 . S
C993 C991 1.384 . S
C993 C994 1.381 . S
C993 H1011 0.930 . S
C994 C993 1.381 . S
C994 C996 1.381 . S
C994 C997 1.487 . S
C995 C992 1.382 . S
C995 C996 1.387 . S
C995 H1012 0.930 . S
C996 C994 1.381 . S
C996 C995 1.387 . S
C996 H1013 0.931 . S
C997 C990 1.399 . S
C997 C994 1.487 . S
C997 N1014 1.343 . S
H998 C970 0.931 . S
H999 C972 0.930 . S
H1000 C974 0.930 . S
H1001 C975 0.931 . S
H1002 C977 0.931 . S
H1003 C979 0.930 . S
H1004 C981 0.930 . S
H1005 C982 0.931 . S
H1006 C984 0.931 . S
H1007 C986 0.930 . S
H1008 C988 0.930 . S
H1009 C989 0.931 . S
H1010 C991 0.931 . S
H1011 C993 0.930 . S
H1012 C995 0.930 . S
H1013 C996 0.931 . S
N1014 C976 1.343 . S
N1014 C997 1.343 . S
N1015 C983 1.343 . S
N1015 C990 1.343 . S
C1016 C1017 1.384 . S
C1016 C1018 1.384 . S
C1016 H1044 0.931 . S
C1017 C1016 1.384 . S
C1017 C1020 1.382 . S
C1018 C1016 1.384 . S
C1018 C1019 1.381 . S
C1018 H1045 0.930 . S
C1019 C1018 1.381 . S
C1019 C1021 1.381 . S
C1019 C1022 1.487 . S
C1020 C1017 1.382 . S
C1020 C1021 1.387 . S
C1020 H1046 0.930 . S
C1021 C1019 1.381 . S
C1021 C1020 1.387 . S
C1021 H1047 0.931 . S
C1022 C1019 1.487 . S
C1022 C1029 1.399 . S
C1022 N1060 1.343 . S
C1023 C1024 1.384 . S
C1023 C1025 1.384 . S
C1023 H1048 0.931 . S
C1024 C1023 1.384 . S
C1024 C1027 1.382 . S
C1025 C1023 1.384 . S
C1025 C1026 1.381 . S
C1025 H1049 0.930 . S
C1026 C1025 1.381 . S
C1026 C1028 1.381 . S
C1026 C1029 1.487 . S
C1027 C1024 1.382 . S
C1027 C1028 1.387 . S
C1027 H1050 0.930 . S
C1028 C1026 1.381 . S
C1028 C1027 1.387 . S
C1028 H1051 0.931 . S
C1029 C1022 1.399 . S
C1029 C1026 1.487 . S
C1029 N1061 1.343 . S
C1030 C1031 1.384 . S
C1030 C1032 1.384 . S
C1030 H1052 0.931 . S
C1031 C1030 1.384 . S
C1031 C1034 1.382 . S
C1032 C1030 1.384 . S
C1032 C1033 1.381 . S
C1032 H1053 0.930 . S
C1033 C1032 1.381 . S
C1033 C1035 1.381 . S
C1033 C1036 1.487 . S
C1034 C1031 1.382 . S
C1034 C1035 1.387 . S
C1034 H1054 0.930 . S
C1035 C1033 1.381 . S
C1035 C1034 1.387 . S
C1035 H1055 0.931 . S
C1036 C1033 1.487 . S
C1036 C1043 1.399 . S
C1036 N1061 1.343 . S
C1037 C1038 1.384 . S
C1037 C1039 1.384 . S
C1037 H1056 0.931 . S
C1038 C1037 1.384 . S
C1038 C1041 1.382 . S
C1039 C1037 1.384 . S
C1039 C1040 1.381 . S
C1039 H1057 0.930 . S
C1040 C1039 1.381 . S
C1040 C1042 1.381 . S
C1040 C1043 1.487 . S
C1041 C1038 1.382 . S
C1041 C1042 1.387 . S
C1041 H1058 0.930 . S
C1042 C1040 1.381 . S
C1042 C1041 1.387 . S
C1042 H1059 0.931 . S
C1043 C1036 1.399 . S
C1043 C1040 1.487 . S
C1043 N1060 1.343 . S
H1044 C1016 0.931 . S
H1045 C1018 0.930 . S
H1046 C1020 0.930 . S
H1047 C1021 0.931 . S
H1048 C1023 0.931 . S
H1049 C1025 0.930 . S
H1050 C1027 0.930 . S
H1051 C1028 0.931 . S
H1052 C1030 0.931 . S
H1053 C1032 0.930 . S
H1054 C1034 0.930 . S
H1055 C1035 0.931 . S
H1056 C1037 0.931 . S
H1057 C1039 0.930 . S
H1058 C1041 0.930 . S
H1059 C1042 0.931 . S
N1060 C1022 1.343 . S
N1060 C1043 1.343 . S
N1061 C1029 1.343 . S
N1061 C1036 1.343 . S
C1062 C1063 1.384 . S
C1062 C1064 1.384 . S
C1062 H1090 0.931 . S
C1063 C1062 1.384 . S
C1063 C1066 1.382 1_655 S
C1064 C1062 1.384 . S
C1064 C1065 1.387 1_655 S
C1064 H1091 0.930 . S
C1065 C1064 1.387 1_455 S
C1065 C1067 1.378 . S
C1065 C1068 1.475 . S
C1066 C1063 1.382 1_455 S
C1066 C1067 1.387 . S
C1066 H1092 0.930 . S
C1067 C1065 1.378 . S
C1067 C1066 1.387 . S
C1067 H1093 0.931 . S
C1068 C1065 1.475 . S
C1068 C1075 1.398 1_455 S
C1068 N1106 1.354 . S
C1069 C1070 1.384 . S
C1069 C1071 1.384 . S
C1069 H1094 0.931 . S
C1070 C1069 1.384 . S
C1070 C1073 1.382 1_455 S
C1071 C1069 1.384 . S
C1071 C1072 1.384 . S
C1071 H1095 0.930 . S
C1072 C1071 1.384 . S
C1072 C1074 1.375 1_455 S
C1072 C1075 1.493 1_455 S
C1073 C1070 1.382 1_655 S
C1073 C1074 1.387 . S
C1073 H1096 0.930 . S
C1074 C1072 1.375 1_655 S
C1074 C1073 1.387 . S
C1074 H1097 0.931 . S
C1075 C1068 1.398 1_655 S
C1075 C1072 1.493 1_655 S
C1075 N1107 1.367 . S
C1076 C1077 1.384 . S
C1076 C1078 1.384 . S
C1076 H1098 0.931 . S
C1077 C1076 1.384 . S
C1077 C1080 1.382 1_455 S
C1078 C1076 1.384 . S
C1078 C1079 1.387 . S
C1078 H1099 0.930 . S
C1079 C1078 1.387 . S
C1079 C1081 1.378 1_455 S
C1079 C1082 1.482 1_455 S
C1080 C1077 1.382 1_655 S
C1080 C1081 1.387 . S
C1080 H1100 0.930 . S
C1081 C1079 1.378 1_655 S
C1081 C1080 1.387 . S
C1081 H1101 0.931 . S
C1082 C1079 1.482 1_655 S
C1082 C1089 1.398 1_655 S
C1082 N1107 1.318 . S
C1083 C1084 1.384 . S
C1083 C1085 1.384 . S
C1083 H1102 0.931 . S
C1084 C1083 1.384 . S
C1084 C1087 1.382 1_655 S
C1085 C1083 1.384 . S
C1085 C1086 1.380 . S
C1085 H1103 0.930 . S
C1086 C1085 1.380 . S
C1086 C1088 1.385 1_655 S
C1086 C1089 1.493 1_655 S
C1087 C1084 1.382 1_455 S
C1087 C1088 1.387 . S
C1087 H1104 0.930 . S
C1088 C1086 1.385 1_455 S
C1088 C1087 1.387 . S
C1088 H1105 0.931 . S
C1089 C1082 1.398 1_455 S
C1089 C1086 1.493 1_455 S
C1089 N1106 1.335 . S
H1090 C1062 0.931 . S
H1091 C1064 0.930 . S
H1092 C1066 0.930 . S
H1093 C1067 0.931 . S
H1094 C1069 0.931 . S
H1095 C1071 0.930 . S
H1096 C1073 0.930 . S
H1097 C1074 0.931 . S
H1098 C1076 0.931 . S
H1099 C1078 0.930 . S
H1100 C1080 0.930 . S
H1101 C1081 0.931 . S
H1102 C1083 0.931 . S
H1103 C1085 0.930 . S
H1104 C1087 0.930 . S
H1105 C1088 0.931 . S
N1106 C1068 1.354 . S
N1106 C1089 1.335 . S
N1107 C1075 1.367 . S
N1107 C1082 1.318 . S
C1108 C1109 1.384 . S
C1108 C1110 1.384 . S
C1108 H1136 0.931 . S
C1109 C1108 1.384 . S
C1109 C1112 1.382 . S
C1110 C1108 1.384 . S
C1110 C1111 1.381 . S
C1110 H1137 0.930 . S
C1111 C1110 1.381 . S
C1111 C1113 1.381 . S
C1111 C1114 1.487 . S
C1112 C1109 1.382 . S
C1112 C1113 1.387 . S
C1112 H1138 0.930 . S
C1113 C1111 1.381 . S
C1113 C1112 1.387 . S
C1113 H1139 0.931 . S
C1114 C1111 1.487 . S
C1114 C1121 1.399 . S
C1114 N1152 1.343 . S
C1115 C1116 1.384 . S
C1115 C1117 1.384 . S
C1115 H1140 0.931 . S
C1116 C1115 1.384 . S
C1116 C1119 1.382 . S
C1117 C1115 1.384 . S
C1117 C1118 1.381 . S
C1117 H1141 0.930 . S
C1118 C1117 1.381 . S
C1118 C1120 1.381 . S
C1118 C1121 1.487 . S
C1119 C1116 1.382 . S
C1119 C1120 1.387 . S
C1119 H1142 0.930 . S
C1120 C1118 1.381 . S
C1120 C1119 1.387 . S
C1120 H1143 0.931 . S
C1121 C1114 1.399 . S
C1121 C1118 1.487 . S
C1121 N1153 1.343 . S
C1122 C1123 1.384 . S
C1122 C1124 1.384 . S
C1122 H1144 0.931 . S
C1123 C1122 1.384 . S
C1123 C1126 1.382 . S
C1124 C1122 1.384 . S
C1124 C1125 1.381 . S
C1124 H1145 0.930 . S
C1125 C1124 1.381 . S
C1125 C1127 1.381 . S
C1125 C1128 1.487 . S
C1126 C1123 1.382 . S
C1126 C1127 1.387 . S
C1126 H1146 0.930 . S
C1127 C1125 1.381 . S
C1127 C1126 1.387 . S
C1127 H1147 0.931 . S
C1128 C1125 1.487 . S
C1128 C1135 1.399 . S
C1128 N1153 1.343 . S
C1129 C1130 1.384 . S
C1129 C1131 1.384 . S
C1129 H1148 0.931 . S
C1130 C1129 1.384 . S
C1130 C1133 1.382 . S
C1131 C1129 1.384 . S
C1131 C1132 1.381 . S
C1131 H1149 0.930 . S
C1132 C1131 1.381 . S
C1132 C1134 1.381 . S
C1132 C1135 1.487 . S
C1133 C1130 1.382 . S
C1133 C1134 1.387 . S
C1133 H1150 0.930 . S
C1134 C1132 1.381 . S
C1134 C1133 1.387 . S
C1134 H1151 0.931 . S
C1135 C1128 1.399 . S
C1135 C1132 1.487 . S
C1135 N1152 1.343 . S
H1136 C1108 0.931 . S
H1137 C1110 0.930 . S
H1138 C1112 0.930 . S
H1139 C1113 0.931 . S
H1140 C1115 0.931 . S
H1141 C1117 0.930 . S
H1142 C1119 0.930 . S
H1143 C1120 0.931 . S
H1144 C1122 0.931 . S
H1145 C1124 0.930 . S
H1146 C1126 0.930 . S
H1147 C1127 0.931 . S
H1148 C1129 0.931 . S
H1149 C1131 0.930 . S
H1150 C1133 0.930 . S
H1151 C1134 0.931 . S
N1152 C1114 1.343 . S
N1152 C1135 1.343 . S
N1153 C1121 1.343 . S
N1153 C1128 1.343 . S
C1154 C1155 1.384 1_545 S
C1154 C1156 1.384 . S
C1154 H1182 0.931 . S
C1155 C1154 1.384 1_565 S
C1155 C1158 1.382 . S
C1156 C1154 1.384 . S
C1156 C1157 1.381 1_545 S
C1156 H1183 0.930 . S
C1157 C1156 1.381 1_565 S
C1157 C1159 1.381 . S
C1157 C1160 1.487 . S
C1158 C1155 1.382 . S
C1158 C1159 1.387 . S
C1158 H1184 0.930 . S
C1159 C1157 1.381 . S
C1159 C1158 1.387 . S
C1159 H1185 0.931 . S
C1160 C1157 1.487 . S
C1160 C1167 1.399 1_565 S
C1160 N1198 1.343 . S
C1161 C1162 1.384 1_565 S
C1161 C1163 1.384 . S
C1161 H1186 0.931 . S
C1162 C1161 1.384 1_545 S
C1162 C1165 1.382 . S
C1163 C1161 1.384 . S
C1163 C1164 1.381 1_565 S
C1163 H1187 0.930 . S
C1164 C1163 1.381 1_545 S
C1164 C1166 1.381 . S
C1164 C1167 1.487 . S
C1165 C1162 1.382 . S
C1165 C1166 1.387 . S
C1165 H1188 0.930 . S
C1166 C1164 1.381 . S
C1166 C1165 1.387 . S
C1166 H1189 0.931 . S
C1167 C1160 1.399 1_545 S
C1167 C1164 1.487 . S
C1167 N1199 1.343 . S
C1168 C1169 1.384 1_565 S
C1168 C1170 1.384 . S
C1168 H1190 0.931 . S
C1169 C1168 1.384 1_545 S
C1169 C1172 1.382 . S
C1170 C1168 1.384 . S
C1170 C1171 1.381 1_565 S
C1170 H1191 0.930 . S
C1171 C1170 1.381 1_545 S
C1171 C1173 1.381 . S
C1171 C1174 1.487 . S
C1172 C1169 1.382 . S
C1172 C1173 1.387 . S
C1172 H1192 0.930 . S
C1173 C1171 1.381 . S
C1173 C1172 1.387 . S
C1173 H1193 0.931 . S
C1174 C1171 1.487 . S
C1174 C1181 1.399 1_545 S
C1174 N1199 1.343 . S
C1175 C1176 1.384 1_545 S
C1175 C1177 1.384 . S
C1175 H1194 0.931 . S
C1176 C1175 1.384 1_565 S
C1176 C1179 1.382 . S
C1177 C1175 1.384 . S
C1177 C1178 1.381 1_545 S
C1177 H1195 0.930 . S
C1178 C1177 1.381 1_565 S
C1178 C1180 1.381 . S
C1178 C1181 1.487 . S
C1179 C1176 1.382 . S
C1179 C1180 1.387 . S
C1179 H1196 0.930 . S
C1180 C1178 1.381 . S
C1180 C1179 1.387 . S
C1180 H1197 0.931 . S
C1181 C1174 1.399 1_565 S
C1181 C1178 1.487 . S
C1181 N1198 1.343 . S
H1182 C1154 0.931 . S
H1183 C1156 0.930 . S
H1184 C1158 0.930 . S
H1185 C1159 0.931 . S
H1186 C1161 0.931 . S
H1187 C1163 0.930 . S
H1188 C1165 0.930 . S
H1189 C1166 0.931 . S
H1190 C1168 0.931 . S
H1191 C1170 0.930 . S
H1192 C1172 0.930 . S
H1193 C1173 0.931 . S
H1194 C1175 0.931 . S
H1195 C1177 0.930 . S
H1196 C1179 0.930 . S
H1197 C1180 0.931 . S
N1198 C1160 1.343 . S
N1198 C1181 1.343 . S
N1199 C1167 1.343 . S
N1199 C1174 1.343 . S
C1200 C1201 1.384 . S
C1200 C1202 1.384 . S
C1200 H1228 0.931 . S
C1201 C1200 1.384 . S
C1201 C1204 1.382 1_545 S
C1202 C1200 1.384 . S
C1202 C1203 1.385 . S
C1202 H1229 0.930 . S
C1203 C1202 1.385 . S
C1203 C1205 1.371 1_545 S
C1203 C1206 1.495 1_545 S
C1204 C1201 1.382 1_565 S
C1204 C1205 1.387 . S
C1204 H1230 0.930 . S
C1205 C1203 1.371 1_565 S
C1205 C1204 1.387 . S
C1205 H1231 0.931 . S
C1206 C1203 1.495 1_565 S
C1206 C1213 1.399 1_565 S
C1206 N1244 1.365 . S
C1207 C1208 1.384 . S
C1207 C1209 1.384 . S
C1207 H1232 0.931 . S
C1208 C1207 1.384 . S
C1208 C1211 1.382 1_565 S
C1209 C1207 1.384 . S
C1209 C1210 1.381 . S
C1209 H1233 0.930 . S
C1210 C1209 1.381 . S
C1210 C1212 1.382 1_565 S
C1210 C1213 1.479 1_565 S
C1211 C1208 1.382 1_545 S
C1211 C1212 1.387 . S
C1211 H1234 0.930 . S
C1212 C1210 1.382 1_545 S
C1212 C1211 1.387 . S
C1212 H1235 0.931 . S
C1213 C1206 1.399 1_545 S
C1213 C1210 1.479 1_545 S
C1213 N1245 1.320 . S
C1214 C1215 1.384 . S
C1214 C1216 1.384 . S
C1214 H1236 0.931 . S
C1215 C1214 1.384 . S
C1215 C1218 1.382 1_565 S
C1216 C1214 1.384 . S
C1216 C1217 1.382 . S
C1216 H1237 0.930 . S
C1217 C1216 1.382 . S
C1217 C1219 1.380 1_565 S
C1217 C1220 1.495 1_565 S
C1218 C1215 1.382 1_545 S
C1218 C1219 1.387 . S
C1218 H1238 0.930 . S
C1219 C1217 1.380 1_545 S
C1219 C1218 1.387 . S
C1219 H1239 0.931 . S
C1220 C1217 1.495 1_545 S
C1220 C1227 1.399 1_545 S
C1220 N1245 1.365 . S
C1221 C1222 1.384 . S
C1221 C1223 1.384 . S
C1221 H1240 0.931 . S
C1222 C1221 1.384 . S
C1222 C1225 1.382 1_545 S
C1223 C1221 1.384 . S
C1223 C1224 1.397 . S
C1223 H1241 0.930 . S
C1224 C1223 1.397 . S
C1224 C1226 1.373 1_545 S
C1224 C1227 1.479 1_545 S
C1225 C1222 1.382 1_565 S
C1225 C1226 1.387 . S
C1225 H1242 0.930 . S
C1226 C1224 1.373 1_565 S
C1226 C1225 1.387 . S
C1226 H1243 0.931 . S
C1227 C1220 1.399 1_565 S
C1227 C1224 1.479 1_565 S
C1227 N1244 1.320 . S
H1228 C1200 0.931 . S
H1229 C1202 0.930 . S
H1230 C1204 0.930 . S
H1231 C1205 0.931 . S
H1232 C1207 0.931 . S
H1233 C1209 0.930 . S
H1234 C1211 0.930 . S
H1235 C1212 0.931 . S
H1236 C1214 0.931 . S
H1237 C1216 0.930 . S
H1238 C1218 0.930 . S
H1239 C1219 0.931 . S
H1240 C1221 0.931 . S
H1241 C1223 0.930 . S
H1242 C1225 0.930 . S
H1243 C1226 0.931 . S
N1244 C1206 1.365 . S
N1244 C1227 1.320 . S
N1245 C1213 1.320 . S
N1245 C1220 1.365 . S
C1246 C1247 1.384 . S
C1246 C1248 1.384 . S
C1246 H1274 0.931 . S
C1247 C1246 1.384 . S
C1247 C1250 1.382 1_655 S
C1248 C1246 1.384 . S
C1248 C1249 1.409 . S
C1248 H1275 0.930 . S
C1249 C1248 1.409 . S
C1249 C1251 1.367 1_655 S
C1249 C1252 1.476 1_655 S
C1250 C1247 1.382 1_455 S
C1250 C1251 1.387 . S
C1250 H1276 0.930 . S
C1251 C1249 1.367 1_455 S
C1251 C1250 1.387 . S
C1251 H1277 0.931 . S
C1252 C1249 1.476 1_455 S
C1252 C1259 1.399 1_455 S
C1252 N1290 1.324 . S
C1253 C1254 1.384 . S
C1253 C1255 1.384 . S
C1253 H1278 0.931 . S
C1254 C1253 1.384 . S
C1254 C1257 1.382 1_455 S
C1255 C1253 1.384 . S
C1255 C1256 1.386 . S
C1255 H1279 0.930 . S
C1256 C1255 1.386 . S
C1256 C1258 1.370 1_455 S
C1256 C1259 1.499 1_455 S
C1257 C1254 1.382 1_655 S
C1257 C1258 1.387 . S
C1257 H1280 0.930 . S
C1258 C1256 1.370 1_655 S
C1258 C1257 1.387 . S
C1258 H1281 0.931 . S
C1259 C1252 1.399 1_655 S
C1259 C1256 1.499 1_655 S
C1259 N1291 1.363 . S
C1260 C1261 1.384 . S
C1260 C1262 1.384 . S
C1260 H1282 0.931 . S
C1261 C1260 1.384 . S
C1261 C1264 1.382 1_455 S
C1262 C1260 1.384 . S
C1262 C1263 1.392 . S
C1262 H1283 0.930 . S
C1263 C1262 1.392 . S
C1263 C1265 1.375 1_455 S
C1263 C1266 1.476 1_455 S
C1264 C1261 1.382 1_655 S
C1264 C1265 1.387 . S
C1264 H1284 0.930 . S
C1265 C1263 1.375 1_655 S
C1265 C1264 1.387 . S
C1265 H1285 0.931 . S
C1266 C1263 1.476 1_655 S
C1266 C1273 1.399 1_655 S
C1266 N1291 1.324 . S
C1267 C1268 1.384 . S
C1267 C1269 1.384 . S
C1267 H1286 0.931 . S
C1268 C1267 1.384 . S
C1268 C1271 1.382 1_655 S
C1269 C1267 1.384 . S
C1269 C1270 1.390 . S
C1269 H1287 0.930 . S
C1270 C1269 1.390 . S
C1270 C1272 1.360 1_655 S
C1270 C1273 1.499 1_655 S
C1271 C1268 1.382 1_455 S
C1271 C1272 1.387 . S
C1271 H1288 0.930 . S
C1272 C1270 1.360 1_455 S
C1272 C1271 1.387 . S
C1272 H1289 0.931 . S
C1273 C1266 1.399 1_455 S
C1273 C1270 1.499 1_455 S
C1273 N1290 1.363 . S
H1274 C1246 0.931 . S
H1275 C1248 0.930 . S
H1276 C1250 0.930 . S
H1277 C1251 0.931 . S
H1278 C1253 0.931 . S
H1279 C1255 0.930 . S
H1280 C1257 0.930 . S
H1281 C1258 0.931 . S
H1282 C1260 0.931 . S
H1283 C1262 0.930 . S
H1284 C1264 0.930 . S
H1285 C1265 0.931 . S
H1286 C1267 0.931 . S
H1287 C1269 0.930 . S
H1288 C1271 0.930 . S
H1289 C1272 0.931 . S
N1290 C1252 1.324 . S
N1290 C1273 1.363 . S
N1291 C1259 1.363 . S
N1291 C1266 1.324 . S
C1292 C1293 1.384 . S
C1292 C1294 1.384 . S
C1292 H1320 0.931 . S
C1293 C1292 1.384 . S
C1293 C1296 1.382 . S
C1294 C1292 1.384 . S
C1294 C1295 1.381 . S
C1294 H1321 0.930 . S
C1295 C1294 1.381 . S
C1295 C1297 1.381 . S
C1295 C1298 1.487 . S
C1296 C1293 1.382 . S
C1296 C1297 1.387 . S
C1296 H1322 0.930 . S
C1297 C1295 1.381 . S
C1297 C1296 1.387 . S
C1297 H1323 0.931 . S
C1298 C1295 1.487 . S
C1298 C1305 1.399 . S
C1298 N1336 1.343 . S
C1299 C1300 1.384 . S
C1299 C1301 1.384 . S
C1299 H1324 0.931 . S
C1300 C1299 1.384 . S
C1300 C1303 1.382 . S
C1301 C1299 1.384 . S
C1301 C1302 1.381 . S
C1301 H1325 0.930 . S
C1302 C1301 1.381 . S
C1302 C1304 1.381 . S
C1302 C1305 1.487 . S
C1303 C1300 1.382 . S
C1303 C1304 1.387 . S
C1303 H1326 0.930 . S
C1304 C1302 1.381 . S
C1304 C1303 1.387 . S
C1304 H1327 0.931 . S
C1305 C1298 1.399 . S
C1305 C1302 1.487 . S
C1305 N1337 1.343 . S
C1306 C1307 1.384 . S
C1306 C1308 1.384 . S
C1306 H1328 0.931 . S
C1307 C1306 1.384 . S
C1307 C1310 1.382 . S
C1308 C1306 1.384 . S
C1308 C1309 1.381 . S
C1308 H1329 0.930 . S
C1309 C1308 1.381 . S
C1309 C1311 1.381 . S
C1309 C1312 1.487 . S
C1310 C1307 1.382 . S
C1310 C1311 1.387 . S
C1310 H1330 0.930 . S
C1311 C1309 1.381 . S
C1311 C1310 1.387 . S
C1311 H1331 0.931 . S
C1312 C1309 1.487 . S
C1312 C1319 1.399 . S
C1312 N1337 1.343 . S
C1313 C1314 1.384 . S
C1313 C1315 1.384 . S
C1313 H1332 0.931 . S
C1314 C1313 1.384 . S
C1314 C1317 1.382 . S
C1315 C1313 1.384 . S
C1315 C1316 1.381 . S
C1315 H1333 0.930 . S
C1316 C1315 1.381 . S
C1316 C1318 1.381 . S
C1316 C1319 1.487 . S
C1317 C1314 1.382 . S
C1317 C1318 1.387 . S
C1317 H1334 0.930 . S
C1318 C1316 1.381 . S
C1318 C1317 1.387 . S
C1318 H1335 0.931 . S
C1319 C1312 1.399 . S
C1319 C1316 1.487 . S
C1319 N1336 1.343 . S
H1320 C1292 0.931 . S
H1321 C1294 0.930 . S
H1322 C1296 0.930 . S
H1323 C1297 0.931 . S
H1324 C1299 0.931 . S
H1325 C1301 0.930 . S
H1326 C1303 0.930 . S
H1327 C1304 0.931 . S
H1328 C1306 0.931 . S
H1329 C1308 0.930 . S
H1330 C1310 0.930 . S
H1331 C1311 0.931 . S
H1332 C1313 0.931 . S
H1333 C1315 0.930 . S
H1334 C1317 0.930 . S
H1335 C1318 0.931 . S
N1336 C1298 1.343 . S
N1336 C1319 1.343 . S
N1337 C1305 1.343 . S
N1337 C1312 1.343 . S
C1338 C1339 1.384 . S
C1338 C1340 1.384 . S
C1338 H1366 0.931 . S
C1339 C1338 1.384 . S
C1339 C1342 1.382 . S
C1340 C1338 1.384 . S
C1340 C1341 1.381 . S
C1340 H1367 0.930 . S
C1341 C1340 1.381 . S
C1341 C1343 1.381 . S
C1341 C1344 1.487 . S
C1342 C1339 1.382 . S
C1342 C1343 1.387 . S
C1342 H1368 0.930 . S
C1343 C1341 1.381 . S
C1343 C1342 1.387 . S
C1343 H1369 0.931 . S
C1344 C1341 1.487 . S
C1344 C1351 1.399 . S
C1344 N1382 1.343 . S
C1345 C1346 1.384 . S
C1345 C1347 1.384 . S
C1345 H1370 0.931 . S
C1346 C1345 1.384 . S
C1346 C1349 1.382 . S
C1347 C1345 1.384 . S
C1347 C1348 1.381 . S
C1347 H1371 0.930 . S
C1348 C1347 1.381 . S
C1348 C1350 1.381 . S
C1348 C1351 1.487 . S
C1349 C1346 1.382 . S
C1349 C1350 1.387 . S
C1349 H1372 0.930 . S
C1350 C1348 1.381 . S
C1350 C1349 1.387 . S
C1350 H1373 0.931 . S
C1351 C1344 1.399 . S
C1351 C1348 1.487 . S
C1351 N1383 1.343 . S
C1352 C1353 1.384 . S
C1352 C1354 1.384 . S
C1352 H1374 0.931 . S
C1353 C1352 1.384 . S
C1353 C1356 1.382 . S
C1354 C1352 1.384 . S
C1354 C1355 1.381 . S
C1354 H1375 0.930 . S
C1355 C1354 1.381 . S
C1355 C1357 1.381 . S
C1355 C1358 1.487 . S
C1356 C1353 1.382 . S
C1356 C1357 1.387 . S
C1356 H1376 0.930 . S
C1357 C1355 1.381 . S
C1357 C1356 1.387 . S
C1357 H1377 0.931 . S
C1358 C1355 1.487 . S
C1358 C1365 1.399 . S
C1358 N1383 1.343 . S
C1359 C1360 1.384 . S
C1359 C1361 1.384 . S
C1359 H1378 0.931 . S
C1360 C1359 1.384 . S
C1360 C1363 1.382 . S
C1361 C1359 1.384 . S
C1361 C1362 1.381 . S
C1361 H1379 0.930 . S
C1362 C1361 1.381 . S
C1362 C1364 1.381 . S
C1362 C1365 1.487 . S
C1363 C1360 1.382 . S
C1363 C1364 1.387 . S
C1363 H1380 0.930 . S
C1364 C1362 1.381 . S
C1364 C1363 1.387 . S
C1364 H1381 0.931 . S
C1365 C1358 1.399 . S
C1365 C1362 1.487 . S
C1365 N1382 1.343 . S
H1366 C1338 0.931 . S
H1367 C1340 0.930 . S
H1368 C1342 0.930 . S
H1369 C1343 0.931 . S
H1370 C1345 0.931 . S
H1371 C1347 0.930 . S
H1372 C1349 0.930 . S
H1373 C1350 0.931 . S
H1374 C1352 0.931 . S
H1375 C1354 0.930 . S
H1376 C1356 0.930 . S
H1377 C1357 0.931 . S
H1378 C1359 0.931 . S
H1379 C1361 0.930 . S
H1380 C1363 0.930 . S
H1381 C1364 0.931 . S
N1382 C1344 1.343 . S
N1382 C1365 1.343 . S
N1383 C1351 1.343 . S
N1383 C1358 1.343 . S
C1384 C1385 1.384 . S
C1384 C1386 1.384 . S
C1384 H1412 0.931 . S
C1385 C1384 1.384 . S
C1385 C1388 1.382 . S
C1386 C1384 1.384 . S
C1386 C1387 1.381 . S
C1386 H1413 0.930 . S
C1387 C1386 1.381 . S
C1387 C1389 1.381 . S
C1387 C1390 1.487 . S
C1388 C1385 1.382 . S
C1388 C1389 1.387 . S
C1388 H1414 0.930 . S
C1389 C1387 1.381 . S
C1389 C1388 1.387 . S
C1389 H1415 0.931 . S
C1390 C1387 1.487 . S
C1390 C1397 1.399 . S
C1390 N1428 1.343 . S
C1391 C1392 1.384 . S
C1391 C1393 1.384 . S
C1391 H1416 0.931 . S
C1392 C1391 1.384 . S
C1392 C1395 1.382 . S
C1393 C1391 1.384 . S
C1393 C1394 1.381 . S
C1393 H1417 0.930 . S
C1394 C1393 1.381 . S
C1394 C1396 1.381 . S
C1394 C1397 1.487 . S
C1395 C1392 1.382 . S
C1395 C1396 1.387 . S
C1395 H1418 0.930 . S
C1396 C1394 1.381 . S
C1396 C1395 1.387 . S
C1396 H1419 0.931 . S
C1397 C1390 1.399 . S
C1397 C1394 1.487 . S
C1397 N1429 1.343 . S
C1398 C1399 1.384 . S
C1398 C1400 1.384 . S
C1398 H1420 0.931 . S
C1399 C1398 1.384 . S
C1399 C1402 1.382 . S
C1400 C1398 1.384 . S
C1400 C1401 1.381 . S
C1400 H1421 0.930 . S
C1401 C1400 1.381 . S
C1401 C1403 1.381 . S
C1401 C1404 1.487 . S
C1402 C1399 1.382 . S
C1402 C1403 1.387 . S
C1402 H1422 0.930 . S
C1403 C1401 1.381 . S
C1403 C1402 1.387 . S
C1403 H1423 0.931 . S
C1404 C1401 1.487 . S
C1404 C1411 1.399 . S
C1404 N1429 1.343 . S
C1405 C1406 1.384 . S
C1405 C1407 1.384 . S
C1405 H1424 0.931 . S
C1406 C1405 1.384 . S
C1406 C1409 1.382 . S
C1407 C1405 1.384 . S
C1407 C1408 1.381 . S
C1407 H1425 0.930 . S
C1408 C1407 1.381 . S
C1408 C1410 1.381 . S
C1408 C1411 1.487 . S
C1409 C1406 1.382 . S
C1409 C1410 1.387 . S
C1409 H1426 0.930 . S
C1410 C1408 1.381 . S
C1410 C1409 1.387 . S
C1410 H1427 0.931 . S
C1411 C1404 1.399 . S
C1411 C1408 1.487 . S
C1411 N1428 1.343 . S
H1412 C1384 0.931 . S
H1413 C1386 0.930 . S
H1414 C1388 0.930 . S
H1415 C1389 0.931 . S
H1416 C1391 0.931 . S
H1417 C1393 0.930 . S
H1418 C1395 0.930 . S
H1419 C1396 0.931 . S
H1420 C1398 0.931 . S
H1421 C1400 0.930 . S
H1422 C1402 0.930 . S
H1423 C1403 0.931 . S
H1424 C1405 0.931 . S
H1425 C1407 0.930 . S
H1426 C1409 0.930 . S
H1427 C1410 0.931 . S
N1428 C1390 1.343 . S
N1428 C1411 1.343 . S
N1429 C1397 1.343 . S
N1429 C1404 1.343 . S
C1430 C1431 1.384 . S
C1430 C1432 1.384 . S
C1430 H1458 0.931 . S
C1431 C1430 1.384 . S
C1431 C1434 1.382 . S
C1432 C1430 1.384 . S
C1432 C1433 1.381 . S
C1432 H1459 0.930 . S
C1433 C1432 1.381 . S
C1433 C1435 1.381 . S
C1433 C1436 1.487 . S
C1434 C1431 1.382 . S
C1434 C1435 1.387 . S
C1434 H1460 0.930 . S
C1435 C1433 1.381 . S
C1435 C1434 1.387 . S
C1435 H1461 0.931 . S
C1436 C1433 1.487 . S
C1436 C1443 1.399 . S
C1436 N1474 1.343 . S
C1437 C1438 1.384 . S
C1437 C1439 1.384 . S
C1437 H1462 0.931 . S
C1438 C1437 1.384 . S
C1438 C1441 1.382 . S
C1439 C1437 1.384 . S
C1439 C1440 1.381 . S
C1439 H1463 0.930 . S
C1440 C1439 1.381 . S
C1440 C1442 1.381 . S
C1440 C1443 1.487 . S
C1441 C1438 1.382 . S
C1441 C1442 1.387 . S
C1441 H1464 0.930 . S
C1442 C1440 1.381 . S
C1442 C1441 1.387 . S
C1442 H1465 0.931 . S
C1443 C1436 1.399 . S
C1443 C1440 1.487 . S
C1443 N1475 1.343 . S
C1444 C1445 1.384 . S
C1444 C1446 1.384 . S
C1444 H1466 0.931 . S
C1445 C1444 1.384 . S
C1445 C1448 1.382 . S
C1446 C1444 1.384 . S
C1446 C1447 1.381 . S
C1446 H1467 0.930 . S
C1447 C1446 1.381 . S
C1447 C1449 1.381 . S
C1447 C1450 1.487 . S
C1448 C1445 1.382 . S
C1448 C1449 1.387 . S
C1448 H1468 0.930 . S
C1449 C1447 1.381 . S
C1449 C1448 1.387 . S
C1449 H1469 0.931 . S
C1450 C1447 1.487 . S
C1450 C1457 1.399 . S
C1450 N1475 1.343 . S
C1451 C1452 1.384 . S
C1451 C1453 1.384 . S
C1451 H1470 0.931 . S
C1452 C1451 1.384 . S
C1452 C1455 1.382 . S
C1453 C1451 1.384 . S
C1453 C1454 1.381 . S
C1453 H1471 0.930 . S
C1454 C1453 1.381 . S
C1454 C1456 1.381 . S
C1454 C1457 1.487 . S
C1455 C1452 1.382 . S
C1455 C1456 1.387 . S
C1455 H1472 0.930 . S
C1456 C1454 1.381 . S
C1456 C1455 1.387 . S
C1456 H1473 0.931 . S
C1457 C1450 1.399 . S
C1457 C1454 1.487 . S
C1457 N1474 1.343 . S
H1458 C1430 0.931 . S
H1459 C1432 0.930 . S
H1460 C1434 0.930 . S
H1461 C1435 0.931 . S
H1462 C1437 0.931 . S
H1463 C1439 0.930 . S
H1464 C1441 0.930 . S
H1465 C1442 0.931 . S
H1466 C1444 0.931 . S
H1467 C1446 0.930 . S
H1468 C1448 0.930 . S
H1469 C1449 0.931 . S
H1470 C1451 0.931 . S
H1471 C1453 0.930 . S
H1472 C1455 0.930 . S
H1473 C1456 0.931 . S
N1474 C1436 1.343 . S
N1474 C1457 1.343 . S
N1475 C1443 1.343 . S
N1475 C1450 1.343 . S
H1476 C1488 0.930 . S
H1477 C1490 0.930 . S
H1478 C1491 0.930 . S
H1479 C1495 0.959 . S
H1480 C1495 0.959 . S
H1481 C1495 0.961 . S
H1482 C1496 0.960 . S
H1483 C1496 0.961 . S
H1484 C1496 0.959 . S
H1485 C1499 0.929 . S
H1486 C1500 0.931 . S
H1487 C1502 0.930 . S
C1488 H1476 0.930 . S
C1488 C1489 1.399 . S
C1488 C1493 1.399 . S
C1489 C1488 1.399 . S
C1489 C1490 1.376 1_655 S
C1490 H1477 0.930 . S
C1490 C1489 1.376 1_455 S
C1490 C1491 1.388 . S
C1491 H1478 0.930 . S
C1491 C1490 1.388 . S
C1491 C1492 1.390 . S
C1492 C1491 1.390 . S
C1492 C1493 1.394 1_455 S
C1492 C1498 1.465 . S
C1493 C1488 1.399 . S
C1493 C1492 1.394 1_655 S
C1493 C1494 1.516 . S
C1494 C1493 1.516 . S
C1494 C1495 1.502 . S
C1494 C1496 1.561 . S
C1494 C1497 1.526 . S
C1495 H1479 0.959 . S
C1495 H1480 0.959 . S
C1495 H1481 0.961 . S
C1495 C1494 1.502 . S
C1496 H1482 0.960 . S
C1496 H1483 0.961 . S
C1496 H1484 0.959 . S
C1496 C1494 1.561 . S
C1497 C1494 1.526 . S
C1497 C1498 1.396 1_655 S
C1497 C1502 1.390 . S
C1498 C1492 1.465 . S
C1498 C1497 1.396 1_455 S
C1498 C1499 1.399 . S
C1499 H1485 0.929 . S
C1499 C1498 1.399 . S
C1499 C1500 1.385 . S
C1500 H1486 0.931 . S
C1500 C1499 1.385 . S
C1500 C1501 1.389 1_455 S
C1501 C1500 1.389 1_655 S
C1501 C1502 1.387 . S
C1502 H1487 0.930 . S
C1502 C1497 1.390 . S
C1502 C1501 1.387 . S
H1503 C1515 0.930 . S
H1504 C1517 0.930 . S
H1505 C1518 0.930 . S
H1506 C1522 0.959 . S
H1507 C1522 0.959 . S
H1508 C1522 0.961 . S
H1509 C1523 0.960 . S
H1510 C1523 0.961 . S
H1511 C1523 0.959 . S
H1512 C1526 0.929 . S
H1513 C1527 0.931 . S
H1514 C1529 0.930 . S
C1515 H1503 0.930 . S
C1515 C1516 1.399 . S
C1515 C1520 1.399 . S
C1516 C1515 1.399 . S
C1516 C1517 1.376 . S
C1517 H1504 0.930 . S
C1517 C1516 1.376 . S
C1517 C1518 1.388 . S
C1518 H1505 0.930 . S
C1518 C1517 1.388 . S
C1518 C1519 1.390 . S
C1519 C1518 1.390 . S
C1519 C1520 1.394 . S
C1519 C1525 1.465 . S
C1520 C1515 1.399 . S
C1520 C1519 1.394 . S
C1520 C1521 1.516 . S
C1521 C1520 1.516 . S
C1521 C1522 1.502 . S
C1521 C1523 1.561 . S
C1521 C1524 1.526 . S
C1522 H1506 0.959 . S
C1522 H1507 0.959 . S
C1522 H1508 0.961 . S
C1522 C1521 1.502 . S
C1523 H1509 0.960 . S
C1523 H1510 0.961 . S
C1523 H1511 0.959 . S
C1523 C1521 1.561 . S
C1524 C1521 1.526 . S
C1524 C1525 1.396 . S
C1524 C1529 1.390 . S
C1525 C1519 1.465 . S
C1525 C1524 1.396 . S
C1525 C1526 1.399 . S
C1526 H1512 0.929 . S
C1526 C1525 1.399 . S
C1526 C1527 1.385 . S
C1527 H1513 0.931 . S
C1527 C1526 1.385 . S
C1527 C1528 1.389 . S
C1528 C1527 1.389 . S
C1528 C1529 1.387 . S
C1529 H1514 0.930 . S
C1529 C1524 1.390 . S
C1529 C1528 1.387 . S
H1530 C1542 0.930 . S
H1531 C1544 0.930 . S
H1532 C1545 0.930 . S
H1533 C1549 0.959 . S
H1534 C1549 0.959 . S
H1535 C1549 0.961 . S
H1536 C1550 0.960 . S
H1537 C1550 0.961 . S
H1538 C1550 0.959 . S
H1539 C1553 0.929 . S
H1540 C1554 0.931 . S
H1541 C1556 0.930 . S
C1542 H1530 0.930 . S
C1542 C1543 1.399 1_565 S
C1542 C1547 1.399 . S
C1543 C1542 1.399 1_545 S
C1543 C1544 1.376 . S
C1544 H1531 0.930 . S
C1544 C1543 1.376 . S
C1544 C1545 1.388 . S
C1545 H1532 0.930 . S
C1545 C1544 1.388 . S
C1545 C1546 1.390 . S
C1546 C1545 1.390 . S
C1546 C1547 1.394 1_545 S
C1546 C1552 1.465 . S
C1547 C1542 1.399 . S
C1547 C1546 1.394 1_565 S
C1547 C1548 1.516 . S
C1548 C1547 1.516 . S
C1548 C1549 1.502 . S
C1548 C1550 1.561 . S
C1548 C1551 1.526 . S
C1549 H1533 0.959 . S
C1549 H1534 0.959 . S
C1549 H1535 0.961 . S
C1549 C1548 1.502 . S
C1550 H1536 0.960 . S
C1550 H1537 0.961 . S
C1550 H1538 0.959 . S
C1550 C1548 1.561 . S
C1551 C1548 1.526 . S
C1551 C1552 1.396 1_565 S
C1551 C1556 1.390 . S
C1552 C1546 1.465 . S
C1552 C1551 1.396 1_545 S
C1552 C1553 1.399 . S
C1553 H1539 0.929 . S
C1553 C1552 1.399 . S
C1553 C1554 1.385 . S
C1554 H1540 0.931 . S
C1554 C1553 1.385 . S
C1554 C1555 1.389 . S
C1555 C1554 1.389 . S
C1555 C1556 1.387 1_545 S
C1556 H1541 0.930 . S
C1556 C1551 1.390 . S
C1556 C1555 1.387 1_565 S
H1557 C1569 0.930 . S
H1558 C1571 0.930 . S
H1559 C1572 0.930 . S
H1560 C1576 0.959 . S
H1561 C1576 0.959 . S
H1562 C1576 0.961 . S
H1563 C1577 0.960 . S
H1564 C1577 0.961 . S
H1565 C1577 0.959 . S
H1566 C1580 0.929 . S
H1567 C1581 0.931 . S
H1568 C1583 0.930 . S
C1569 H1557 0.930 . S
C1569 C1570 1.399 1_545 S
C1569 C1574 1.399 . S
C1570 C1569 1.399 1_565 S
C1570 C1571 1.376 . S
C1571 H1558 0.930 . S
C1571 C1570 1.376 . S
C1571 C1572 1.388 . S
C1572 H1559 0.930 . S
C1572 C1571 1.388 . S
C1572 C1573 1.390 . S
C1573 C1572 1.390 . S
C1573 C1574 1.394 1_565 S
C1573 C1579 1.465 . S
C1574 C1569 1.399 . S
C1574 C1573 1.394 1_545 S
C1574 C1575 1.516 . S
C1575 C1574 1.516 . S
C1575 C1576 1.502 . S
C1575 C1577 1.561 . S
C1575 C1578 1.526 . S
C1576 H1560 0.959 . S
C1576 H1561 0.959 . S
C1576 H1562 0.961 . S
C1576 C1575 1.502 . S
C1577 H1563 0.960 . S
C1577 H1564 0.961 . S
C1577 H1565 0.959 . S
C1577 C1575 1.561 . S
C1578 C1575 1.526 . S
C1578 C1579 1.396 1_545 S
C1578 C1583 1.390 . S
C1579 C1573 1.465 . S
C1579 C1578 1.396 1_565 S
C1579 C1580 1.399 . S
C1580 H1566 0.929 . S
C1580 C1579 1.399 . S
C1580 C1581 1.385 . S
C1581 H1567 0.931 . S
C1581 C1580 1.385 . S
C1581 C1582 1.389 . S
C1582 C1581 1.389 . S
C1582 C1583 1.387 1_565 S
C1583 H1568 0.930 . S
C1583 C1578 1.390 . S
C1583 C1582 1.387 1_545 S
H1584 C1596 0.930 . S
H1585 C1598 0.930 . S
H1586 C1599 0.930 . S
H1587 C1603 0.959 . S
H1588 C1603 0.959 . S
H1589 C1603 0.961 . S
H1590 C1604 0.960 . S
H1591 C1604 0.961 . S
H1592 C1604 0.959 . S
H1593 C1607 0.929 . S
H1594 C1608 0.931 . S
H1595 C1610 0.930 . S
C1596 H1584 0.930 . S
C1596 C1597 1.399 . S
C1596 C1601 1.399 . S
C1597 C1596 1.399 . S
C1597 C1598 1.376 . S
C1598 H1585 0.930 . S
C1598 C1597 1.376 . S
C1598 C1599 1.388 . S
C1599 H1586 0.930 . S
C1599 C1598 1.388 . S
C1599 C1600 1.390 . S
C1600 C1599 1.390 . S
C1600 C1601 1.394 . S
C1600 C1606 1.465 . S
C1601 C1596 1.399 . S
C1601 C1600 1.394 . S
C1601 C1602 1.516 . S
C1602 C1601 1.516 . S
C1602 C1603 1.502 1_455 S
C1602 C1604 1.561 . S
C1602 C1605 1.526 . S
C1603 H1587 0.959 . S
C1603 H1588 0.959 . S
C1603 H1589 0.961 . S
C1603 C1602 1.502 1_655 S
C1604 H1590 0.960 . S
C1604 H1591 0.961 . S
C1604 H1592 0.959 . S
C1604 C1602 1.561 . S
C1605 C1602 1.526 . S
C1605 C1606 1.396 . S
C1605 C1610 1.390 . S
C1606 C1600 1.465 . S
C1606 C1605 1.396 . S
C1606 C1607 1.399 . S
C1607 H1593 0.929 . S
C1607 C1606 1.399 . S
C1607 C1608 1.385 . S
C1608 H1594 0.931 . S
C1608 C1607 1.385 . S
C1608 C1609 1.389 . S
C1609 C1608 1.389 . S
C1609 C1610 1.387 . S
C1610 H1595 0.930 . S
C1610 C1605 1.390 . S
C1610 C1609 1.387 . S
H1611 C1623 0.930 . S
H1612 C1625 0.930 . S
H1613 C1626 0.930 . S
H1614 C1630 0.959 . S
H1615 C1630 0.959 . S
H1616 C1630 0.961 . S
H1617 C1631 0.960 . S
H1618 C1631 0.961 . S
H1619 C1631 0.959 . S
H1620 C1634 0.929 . S
H1621 C1635 0.931 . S
H1622 C1637 0.930 . S
C1623 H1611 0.930 . S
C1623 C1624 1.399 . S
C1623 C1628 1.399 . S
C1624 C1623 1.399 . S
C1624 C1625 1.376 . S
C1625 H1612 0.930 . S
C1625 C1624 1.376 . S
C1625 C1626 1.388 . S
C1626 H1613 0.930 . S
C1626 C1625 1.388 . S
C1626 C1627 1.390 . S
C1627 C1626 1.390 . S
C1627 C1628 1.394 . S
C1627 C1633 1.465 . S
C1628 C1623 1.399 . S
C1628 C1627 1.394 . S
C1628 C1629 1.516 . S
C1629 C1628 1.516 . S
C1629 C1630 1.502 . S
C1629 C1631 1.561 . S
C1629 C1632 1.526 . S
C1630 H1614 0.959 . S
C1630 H1615 0.959 . S
C1630 H1616 0.961 . S
C1630 C1629 1.502 . S
C1631 H1617 0.960 . S
C1631 H1618 0.961 . S
C1631 H1619 0.959 . S
C1631 C1629 1.561 . S
C1632 C1629 1.526 . S
C1632 C1633 1.396 . S
C1632 C1637 1.390 . S
C1633 C1627 1.465 . S
C1633 C1632 1.396 . S
C1633 C1634 1.399 . S
C1634 H1620 0.929 . S
C1634 C1633 1.399 . S
C1634 C1635 1.385 . S
C1635 H1621 0.931 . S
C1635 C1634 1.385 . S
C1635 C1636 1.389 . S
C1636 C1635 1.389 . S
C1636 C1637 1.387 . S
C1637 H1622 0.930 . S
C1637 C1632 1.390 . S
C1637 C1636 1.387 . S
H1638 C1650 0.930 . S
H1639 C1652 0.930 . S
H1640 C1653 0.930 . S
H1641 C1657 0.959 . S
H1642 C1657 0.959 . S
H1643 C1657 0.961 . S
H1644 C1658 0.960 . S
H1645 C1658 0.961 . S
H1646 C1658 0.959 . S
H1647 C1661 0.929 . S
H1648 C1662 0.931 . S
H1649 C1664 0.930 . S
C1650 H1638 0.930 . S
C1650 C1651 1.399 . S
C1650 C1655 1.399 . S
C1651 C1650 1.399 . S
C1651 C1652 1.376 . S
C1652 H1639 0.930 . S
C1652 C1651 1.376 . S
C1652 C1653 1.388 . S
C1653 H1640 0.930 . S
C1653 C1652 1.388 . S
C1653 C1654 1.390 . S
C1654 C1653 1.390 . S
C1654 C1655 1.394 . S
C1654 C1660 1.465 . S
C1655 C1650 1.399 . S
C1655 C1654 1.394 . S
C1655 C1656 1.492 . S
C1656 C1655 1.492 . S
C1656 C1657 1.556 . S
C1656 C1658 1.516 1_455 S
C1656 C1659 1.538 . S
C1657 H1641 0.959 . S
C1657 H1642 0.959 . S
C1657 H1643 0.961 . S
C1657 C1656 1.556 . S
C1658 H1644 0.960 . S
C1658 H1645 0.961 . S
C1658 H1646 0.959 . S
C1658 C1656 1.516 1_655 S
C1659 C1656 1.538 . S
C1659 C1660 1.396 . S
C1659 C1664 1.390 . S
C1660 C1654 1.465 . S
C1660 C1659 1.396 . S
C1660 C1661 1.399 . S
C1661 H1647 0.929 . S
C1661 C1660 1.399 . S
C1661 C1662 1.385 . S
C1662 H1648 0.931 . S
C1662 C1661 1.385 . S
C1662 C1663 1.389 . S
C1663 C1662 1.389 . S
C1663 C1664 1.387 . S
C1664 H1649 0.930 . S
C1664 C1659 1.390 . S
C1664 C1663 1.387 . S
H1665 C1677 0.930 . S
H1666 C1679 0.930 . S
H1667 C1680 0.930 . S
H1668 C1684 0.959 . S
H1669 C1684 0.959 . S
H1670 C1684 0.961 . S
H1671 C1685 0.960 . S
H1672 C1685 0.961 . S
H1673 C1685 0.959 . S
H1674 C1688 0.929 . S
H1675 C1689 0.931 . S
H1676 C1691 0.930 . S
C1677 H1665 0.930 . S
C1677 C1678 1.399 . S
C1677 C1682 1.399 . S
C1678 C1677 1.399 . S
C1678 C1679 1.376 . S
C1679 H1666 0.930 . S
C1679 C1678 1.376 . S
C1679 C1680 1.388 . S
C1680 H1667 0.930 . S
C1680 C1679 1.388 . S
C1680 C1681 1.390 . S
C1681 C1680 1.390 . S
C1681 C1682 1.394 . S
C1681 C1687 1.465 . S
C1682 C1677 1.399 . S
C1682 C1681 1.394 . S
C1682 C1683 1.516 . S
C1683 C1682 1.516 . S
C1683 C1684 1.502 . S
C1683 C1685 1.561 . S
C1683 C1686 1.526 . S
C1684 H1668 0.959 . S
C1684 H1669 0.959 . S
C1684 H1670 0.961 . S
C1684 C1683 1.502 . S
C1685 H1671 0.960 . S
C1685 H1672 0.961 . S
C1685 H1673 0.959 . S
C1685 C1683 1.561 . S
C1686 C1683 1.526 . S
C1686 C1687 1.396 . S
C1686 C1691 1.390 . S
C1687 C1681 1.465 . S
C1687 C1686 1.396 . S
C1687 C1688 1.399 . S
C1688 H1674 0.929 . S
C1688 C1687 1.399 . S
C1688 C1689 1.385 . S
C1689 H1675 0.931 . S
C1689 C1688 1.385 . S
C1689 C1690 1.389 . S
C1690 C1689 1.389 . S
C1690 C1691 1.387 . S
C1691 H1676 0.930 . S
C1691 C1686 1.390 . S
C1691 C1690 1.387 . S
H1692 C1704 0.930 . S
H1693 C1706 0.930 . S
H1694 C1707 0.930 . S
H1695 C1711 0.959 . S
H1696 C1711 0.959 . S
H1697 C1711 0.961 . S
H1698 C1712 0.960 . S
H1699 C1712 0.961 . S
H1700 C1712 0.959 . S
H1701 C1715 0.929 . S
H1702 C1716 0.931 . S
H1703 C1718 0.930 . S
C1704 H1692 0.930 . S
C1704 C1705 1.399 1_545 S
C1704 C1709 1.399 . S
C1705 C1704 1.399 1_565 S
C1705 C1706 1.376 . S
C1706 H1693 0.930 . S
C1706 C1705 1.376 . S
C1706 C1707 1.388 . S
C1707 H1694 0.930 . S
C1707 C1706 1.388 . S
C1707 C1708 1.390 . S
C1708 C1707 1.390 . S
C1708 C1709 1.394 1_565 S
C1708 C1714 1.465 . S
C1709 C1704 1.399 . S
C1709 C1708 1.394 1_545 S
C1709 C1710 1.516 . S
C1710 C1709 1.516 . S
C1710 C1711 1.502 . S
C1710 C1712 1.561 . S
C1710 C1713 1.526 . S
C1711 H1695 0.959 . S
C1711 H1696 0.959 . S
C1711 H1697 0.961 . S
C1711 C1710 1.502 . S
C1712 H1698 0.960 . S
C1712 H1699 0.961 . S
C1712 H1700 0.959 . S
C1712 C1710 1.561 . S
C1713 C1710 1.526 . S
C1713 C1714 1.396 1_545 S
C1713 C1718 1.390 . S
C1714 C1708 1.465 . S
C1714 C1713 1.396 1_565 S
C1714 C1715 1.399 . S
C1715 H1701 0.929 . S
C1715 C1714 1.399 . S
C1715 C1716 1.385 . S
C1716 H1702 0.931 . S
C1716 C1715 1.385 . S
C1716 C1717 1.389 . S
C1717 C1716 1.389 . S
C1717 C1718 1.387 1_565 S
C1718 H1703 0.930 . S
C1718 C1713 1.390 . S
C1718 C1717 1.387 1_545 S
H1719 C1731 0.930 . S
H1720 C1733 0.930 . S
H1721 C1734 0.930 . S
H1722 C1738 0.959 . S
H1723 C1738 0.959 . S
H1724 C1738 0.961 . S
H1725 C1739 0.960 . S
H1726 C1739 0.961 . S
H1727 C1739 0.959 . S
H1728 C1742 0.929 . S
H1729 C1743 0.931 . S
H1730 C1745 0.930 . S
C1731 H1719 0.930 . S
C1731 C1732 1.399 1_565 S
C1731 C1736 1.399 . S
C1732 C1731 1.399 1_545 S
C1732 C1733 1.376 . S
C1733 H1720 0.930 . S
C1733 C1732 1.376 . S
C1733 C1734 1.388 . S
C1734 H1721 0.930 . S
C1734 C1733 1.388 . S
C1734 C1735 1.390 . S
C1735 C1734 1.390 . S
C1735 C1736 1.394 1_545 S
C1735 C1741 1.465 . S
C1736 C1731 1.399 . S
C1736 C1735 1.394 1_565 S
C1736 C1737 1.516 . S
C1737 C1736 1.516 . S
C1737 C1738 1.502 . S
C1737 C1739 1.561 . S
C1737 C1740 1.526 . S
C1738 H1722 0.959 . S
C1738 H1723 0.959 . S
C1738 H1724 0.961 . S
C1738 C1737 1.502 . S
C1739 H1725 0.960 . S
C1739 H1726 0.961 . S
C1739 H1727 0.959 . S
C1739 C1737 1.561 . S
C1740 C1737 1.526 . S
C1740 C1741 1.396 1_565 S
C1740 C1745 1.390 . S
C1741 C1735 1.465 . S
C1741 C1740 1.396 1_545 S
C1741 C1742 1.399 . S
C1742 H1728 0.929 . S
C1742 C1741 1.399 . S
C1742 C1743 1.385 . S
C1743 H1729 0.931 . S
C1743 C1742 1.385 . S
C1743 C1744 1.389 . S
C1744 C1743 1.389 . S
C1744 C1745 1.387 1_545 S
C1745 H1730 0.930 . S
C1745 C1740 1.390 . S
C1745 C1744 1.387 1_565 S
H1746 C1758 0.930 . S
H1747 C1760 0.930 . S
H1748 C1761 0.930 . S
H1749 C1765 0.959 . S
H1750 C1765 0.959 . S
H1751 C1765 0.961 . S
H1752 C1766 0.960 . S
H1753 C1766 0.961 . S
H1754 C1766 0.959 . S
H1755 C1769 0.929 . S
H1756 C1770 0.931 . S
H1757 C1772 0.930 . S
C1758 H1746 0.930 . S
C1758 C1759 1.399 . S
C1758 C1763 1.399 . S
C1759 C1758 1.399 . S
C1759 C1760 1.376 1_655 S
C1760 H1747 0.930 . S
C1760 C1759 1.376 1_455 S
C1760 C1761 1.388 . S
C1761 H1748 0.930 . S
C1761 C1760 1.388 . S
C1761 C1762 1.390 . S
C1762 C1761 1.390 . S
C1762 C1763 1.394 1_455 S
C1762 C1768 1.465 . S
C1763 C1758 1.399 . S
C1763 C1762 1.394 1_655 S
C1763 C1764 1.516 . S
C1764 C1763 1.516 . S
C1764 C1765 1.502 . S
C1764 C1766 1.561 . S
C1764 C1767 1.526 . S
C1765 H1749 0.959 . S
C1765 H1750 0.959 . S
C1765 H1751 0.961 . S
C1765 C1764 1.502 . S
C1766 H1752 0.960 . S
C1766 H1753 0.961 . S
C1766 H1754 0.959 . S
C1766 C1764 1.561 . S
C1767 C1764 1.526 . S
C1767 C1768 1.396 1_655 S
C1767 C1772 1.390 . S
C1768 C1762 1.465 . S
C1768 C1767 1.396 1_455 S
C1768 C1769 1.399 . S
C1769 H1755 0.929 . S
C1769 C1768 1.399 . S
C1769 C1770 1.385 . S
C1770 H1756 0.931 . S
C1770 C1769 1.385 . S
C1770 C1771 1.340 1_455 S
C1771 C1770 1.340 1_655 S
C1771 C1772 1.450 . S
C1772 H1757 0.930 . S
C1772 C1767 1.390 . S
C1772 C1771 1.450 . S
H1773 C1785 0.930 . S
H1774 C1787 0.930 . S
H1775 C1788 0.930 . S
H1776 C1792 0.959 . S
H1777 C1792 0.959 . S
H1778 C1792 0.961 . S
H1779 C1793 0.960 . S
H1780 C1793 0.961 . S
H1781 C1793 0.959 . S
H1782 C1796 0.929 . S
H1783 C1797 0.931 . S
H1784 C1799 0.930 . S
C1785 H1773 0.930 . S
C1785 C1786 1.399 . S
C1785 C1790 1.399 . S
C1786 C1785 1.399 . S
C1786 C1787 1.376 . S
C1787 H1774 0.930 . S
C1787 C1786 1.376 . S
C1787 C1788 1.388 . S
C1788 H1775 0.930 . S
C1788 C1787 1.388 . S
C1788 C1789 1.390 . S
C1789 C1788 1.390 . S
C1789 C1790 1.394 . S
C1789 C1795 1.465 . S
C1790 C1785 1.399 . S
C1790 C1789 1.394 . S
C1790 C1791 1.516 . S
C1791 C1790 1.516 . S
C1791 C1792 1.502 . S
C1791 C1793 1.561 . S
C1791 C1794 1.526 . S
C1792 H1776 0.959 . S
C1792 H1777 0.959 . S
C1792 H1778 0.961 . S
C1792 C1791 1.502 . S
C1793 H1779 0.960 . S
C1793 H1780 0.961 . S
C1793 H1781 0.959 . S
C1793 C1791 1.561 . S
C1794 C1791 1.526 . S
C1794 C1795 1.396 . S
C1794 C1799 1.390 . S
C1795 C1789 1.465 . S
C1795 C1794 1.396 . S
C1795 C1796 1.399 . S
C1796 H1782 0.929 . S
C1796 C1795 1.399 . S
C1796 C1797 1.385 . S
C1797 H1783 0.931 . S
C1797 C1796 1.385 . S
C1797 C1798 1.389 . S
C1798 C1797 1.389 . S
C1798 C1799 1.387 . S
C1799 H1784 0.930 . S
C1799 C1794 1.390 . S
C1799 C1798 1.387 . S
H1800 C1812 0.930 . S
H1801 C1814 0.930 . S
H1802 C1815 0.930 . S
H1803 C1819 0.959 . S
H1804 C1819 0.959 . S
H1805 C1819 0.961 . S
H1806 C1820 0.960 . S
H1807 C1820 0.961 . S
H1808 C1820 0.959 . S
H1809 C1823 0.929 . S
H1810 C1824 0.931 . S
H1811 C1826 0.930 . S
C1812 H1800 0.930 . S
C1812 C1813 1.399 . S
C1812 C1817 1.399 . S
C1813 C1812 1.399 . S
C1813 C1814 1.376 . S
C1814 H1801 0.930 . S
C1814 C1813 1.376 . S
C1814 C1815 1.388 . S
C1815 H1802 0.930 . S
C1815 C1814 1.388 . S
C1815 C1816 1.390 . S
C1816 C1815 1.390 . S
C1816 C1817 1.394 . S
C1816 C1822 1.465 . S
C1817 C1812 1.399 . S
C1817 C1816 1.394 . S
C1817 C1818 1.516 . S
C1818 C1817 1.516 . S
C1818 C1819 1.502 . S
C1818 C1820 1.561 . S
C1818 C1821 1.526 . S
C1819 H1803 0.959 . S
C1819 H1804 0.959 . S
C1819 H1805 0.961 . S
C1819 C1818 1.502 . S
C1820 H1806 0.960 . S
C1820 H1807 0.961 . S
C1820 H1808 0.959 . S
C1820 C1818 1.561 . S
C1821 C1818 1.526 . S
C1821 C1822 1.396 . S
C1821 C1826 1.390 . S
C1822 C1816 1.465 . S
C1822 C1821 1.396 . S
C1822 C1823 1.399 . S
C1823 H1809 0.929 . S
C1823 C1822 1.399 . S
C1823 C1824 1.385 . S
C1824 H1810 0.931 . S
C1824 C1823 1.385 . S
C1824 C1825 1.389 . S
C1825 C1824 1.389 . S
C1825 C1826 1.387 . S
C1826 H1811 0.930 . S
C1826 C1821 1.390 . S
C1826 C1825 1.387 . S
H1827 C1839 0.930 . S
H1828 C1841 0.930 . S
H1829 C1842 0.930 . S
H1830 C1846 0.959 . S
H1831 C1846 0.959 . S
H1832 C1846 0.961 . S
H1833 C1847 0.960 . S
H1834 C1847 0.961 . S
H1835 C1847 0.959 . S
H1836 C1850 0.929 . S
H1837 C1851 0.931 . S
H1838 C1853 0.930 . S
C1839 H1827 0.930 . S
C1839 C1840 1.399 . S
C1839 C1844 1.399 . S
C1840 C1839 1.399 . S
C1840 C1841 1.376 . S
C1841 H1828 0.930 . S
C1841 C1840 1.376 . S
C1841 C1842 1.388 . S
C1842 H1829 0.930 . S
C1842 C1841 1.388 . S
C1842 C1843 1.390 . S
C1843 C1842 1.390 . S
C1843 C1844 1.394 . S
C1843 C1849 1.465 . S
C1844 C1839 1.399 . S
C1844 C1843 1.394 . S
C1844 C1845 1.516 . S
C1845 C1844 1.516 . S
C1845 C1846 1.502 . S
C1845 C1847 1.561 . S
C1845 C1848 1.526 . S
C1846 H1830 0.959 . S
C1846 H1831 0.959 . S
C1846 H1832 0.961 . S
C1846 C1845 1.502 . S
C1847 H1833 0.960 . S
C1847 H1834 0.961 . S
C1847 H1835 0.959 . S
C1847 C1845 1.561 . S
C1848 C1845 1.526 . S
C1848 C1849 1.396 . S
C1848 C1853 1.390 . S
C1849 C1843 1.465 . S
C1849 C1848 1.396 . S
C1849 C1850 1.399 . S
C1850 H1836 0.929 . S
C1850 C1849 1.399 . S
C1850 C1851 1.385 . S
C1851 H1837 0.931 . S
C1851 C1850 1.385 . S
C1851 C1852 1.389 . S
C1852 C1851 1.389 . S
C1852 C1853 1.387 . S
C1853 H1838 0.930 . S
C1853 C1848 1.390 . S
C1853 C1852 1.387 . S
H1854 C1866 0.930 . S
H1855 C1868 0.930 . S
H1856 C1869 0.930 . S
H1857 C1873 0.959 . S
H1858 C1873 0.959 . S
H1859 C1873 0.961 . S
H1860 C1874 0.960 . S
H1861 C1874 0.961 . S
H1862 C1874 0.959 . S
H1863 C1877 0.929 . S
H1864 C1878 0.931 . S
H1865 C1880 0.930 . S
C1866 H1854 0.930 . S
C1866 C1867 1.399 . S
C1866 C1871 1.399 . S
C1867 C1866 1.399 . S
C1867 C1868 1.376 . S
C1868 H1855 0.930 . S
C1868 C1867 1.376 . S
C1868 C1869 1.388 . S
C1869 H1856 0.930 . S
C1869 C1868 1.388 . S
C1869 C1870 1.390 . S
C1870 C1869 1.390 . S
C1870 C1871 1.394 . S
C1870 C1876 1.465 . S
C1871 C1866 1.399 . S
C1871 C1870 1.394 . S
C1871 C1872 1.516 . S
C1872 C1871 1.516 . S
C1872 C1873 1.502 . S
C1872 C1874 1.561 . S
C1872 C1875 1.526 . S
C1873 H1857 0.959 . S
C1873 H1858 0.959 . S
C1873 H1859 0.961 . S
C1873 C1872 1.502 . S
C1874 H1860 0.960 . S
C1874 H1861 0.961 . S
C1874 H1862 0.959 . S
C1874 C1872 1.561 . S
C1875 C1872 1.526 . S
C1875 C1876 1.396 . S
C1875 C1880 1.390 . S
C1876 C1870 1.465 . S
C1876 C1875 1.396 . S
C1876 C1877 1.399 . S
C1877 H1863 0.929 . S
C1877 C1876 1.399 . S
C1877 C1878 1.385 . S
C1878 H1864 0.931 . S
C1878 C1877 1.385 . S
C1878 C1879 1.389 . S
C1879 C1878 1.389 . S
C1879 C1880 1.387 . S
C1880 H1865 0.930 . S
C1880 C1875 1.390 . S
C1880 C1879 1.387 . S
H1881 C1893 0.930 . S
H1882 C1895 0.930 . S
H1883 C1896 0.930 . S
H1884 C1900 0.959 . S
H1885 C1900 0.959 . S
H1886 C1900 0.961 . S
H1887 C1901 0.960 . S
H1888 C1901 0.961 . S
H1889 C1901 0.959 . S
H1890 C1904 0.929 . S
H1891 C1905 0.931 . S
H1892 C1907 0.930 . S
C1893 H1881 0.930 . S
C1893 C1894 1.399 . S
C1893 C1898 1.399 . S
C1894 C1893 1.399 . S
C1894 C1895 1.376 . S
C1895 H1882 0.930 . S
C1895 C1894 1.376 . S
C1895 C1896 1.388 . S
C1896 H1883 0.930 . S
C1896 C1895 1.388 . S
C1896 C1897 1.390 . S
C1897 C1896 1.390 . S
C1897 C1898 1.394 . S
C1897 C1903 1.465 . S
C1898 C1893 1.399 . S
C1898 C1897 1.394 . S
C1898 C1899 1.516 . S
C1899 C1898 1.516 . S
C1899 C1900 1.502 . S
C1899 C1901 1.561 . S
C1899 C1902 1.526 . S
C1900 H1884 0.959 . S
C1900 H1885 0.959 . S
C1900 H1886 0.961 . S
C1900 C1899 1.502 . S
C1901 H1887 0.960 . S
C1901 H1888 0.961 . S
C1901 H1889 0.959 . S
C1901 C1899 1.561 . S
C1902 C1899 1.526 . S
C1902 C1903 1.396 . S
C1902 C1907 1.390 . S
C1903 C1897 1.465 . S
C1903 C1902 1.396 . S
C1903 C1904 1.399 . S
C1904 H1890 0.929 . S
C1904 C1903 1.399 . S
C1904 C1905 1.385 . S
C1905 H1891 0.931 . S
C1905 C1904 1.385 . S
C1905 C1906 1.389 . S
C1906 C1905 1.389 . S
C1906 C1907 1.387 . S
C1907 H1892 0.930 . S
C1907 C1902 1.390 . S
C1907 C1906 1.387 . S
H1908 C1920 0.930 . S
H1909 C1922 0.930 . S
H1910 C1923 0.930 . S
H1911 C1927 0.959 . S
H1912 C1927 0.959 . S
H1913 C1927 0.961 . S
H1914 C1928 0.960 . S
H1915 C1928 0.961 . S
H1916 C1928 0.959 . S
H1917 C1931 0.929 . S
H1918 C1932 0.931 . S
H1919 C1934 0.930 . S
C1920 H1908 0.930 . S
C1920 C1921 1.399 . S
C1920 C1925 1.399 . S
C1921 C1920 1.399 . S
C1921 C1922 1.376 . S
C1922 H1909 0.930 . S
C1922 C1921 1.376 . S
C1922 C1923 1.388 . S
C1923 H1910 0.930 . S
C1923 C1922 1.388 . S
C1923 C1924 1.390 . S
C1924 C1923 1.390 . S
C1924 C1925 1.394 . S
C1924 C1930 1.465 . S
C1925 C1920 1.399 . S
C1925 C1924 1.394 . S
C1925 C1926 1.516 . S
C1926 C1925 1.516 . S
C1926 C1927 1.502 . S
C1926 C1928 1.561 . S
C1926 C1929 1.526 . S
C1927 H1911 0.959 . S
C1927 H1912 0.959 . S
C1927 H1913 0.961 . S
C1927 C1926 1.502 . S
C1928 H1914 0.960 . S
C1928 H1915 0.961 . S
C1928 H1916 0.959 . S
C1928 C1926 1.561 . S
C1929 C1926 1.526 . S
C1929 C1930 1.396 . S
C1929 C1934 1.390 . S
C1930 C1924 1.465 . S
C1930 C1929 1.396 . S
C1930 C1931 1.399 . S
C1931 H1917 0.929 . S
C1931 C1930 1.399 . S
C1931 C1932 1.385 . S
C1932 H1918 0.931 . S
C1932 C1931 1.385 . S
C1932 C1933 1.389 . S
C1933 C1932 1.389 . S
C1933 C1934 1.387 . S
C1934 H1919 0.930 . S
C1934 C1929 1.390 . S
C1934 C1933 1.387 . S
H1935 C1947 0.930 . S
H1936 C1949 0.930 . S
H1937 C1950 0.930 . S
H1938 C1954 0.959 . S
H1939 C1954 0.959 . S
H1940 C1954 0.961 . S
H1941 C1955 0.960 . S
H1942 C1955 0.961 . S
H1943 C1955 0.959 . S
H1944 C1958 0.929 . S
H1945 C1959 0.931 . S
H1946 C1961 0.930 . S
C1947 H1935 0.930 . S
C1947 C1948 1.399 . S
C1947 C1952 1.399 . S
C1948 C1947 1.399 . S
C1948 C1949 1.376 . S
C1949 H1936 0.930 . S
C1949 C1948 1.376 . S
C1949 C1950 1.388 . S
C1950 H1937 0.930 . S
C1950 C1949 1.388 . S
C1950 C1951 1.390 . S
C1951 C1950 1.390 . S
C1951 C1952 1.394 . S
C1951 C1957 1.465 . S
C1952 C1947 1.399 . S
C1952 C1951 1.394 . S
C1952 C1953 1.516 . S
C1953 C1952 1.516 . S
C1953 C1954 1.502 . S
C1953 C1955 1.561 . S
C1953 C1956 1.526 . S
C1954 H1938 0.959 . S
C1954 H1939 0.959 . S
C1954 H1940 0.961 . S
C1954 C1953 1.502 . S
C1955 H1941 0.960 . S
C1955 H1942 0.961 . S
C1955 H1943 0.959 . S
C1955 C1953 1.561 . S
C1956 C1953 1.526 . S
C1956 C1957 1.396 . S
C1956 C1961 1.390 . S
C1957 C1951 1.465 . S
C1957 C1956 1.396 . S
C1957 C1958 1.399 . S
C1958 H1944 0.929 . S
C1958 C1957 1.399 . S
C1958 C1959 1.385 . S
C1959 H1945 0.931 . S
C1959 C1958 1.385 . S
C1959 C1960 1.389 . S
C1960 C1959 1.389 . S
C1960 C1961 1.387 . S
C1961 H1946 0.930 . S
C1961 C1956 1.390 . S
C1961 C1960 1.387 . S
H1962 C1974 0.930 . S
H1963 C1976 0.930 . S
H1964 C1977 0.930 . S
H1965 C1981 0.959 . S
H1966 C1981 0.959 . S
H1967 C1981 0.961 . S
H1968 C1982 0.960 . S
H1969 C1982 0.961 . S
H1970 C1982 0.959 . S
H1971 C1985 0.929 . S
H1972 C1986 0.931 . S
H1973 C1988 0.930 . S
C1974 H1962 0.930 . S
C1974 C1975 1.399 . S
C1974 C1979 1.399 . S
C1975 C1974 1.399 . S
C1975 C1976 1.376 . S
C1976 H1963 0.930 . S
C1976 C1975 1.376 . S
C1976 C1977 1.388 . S
C1977 H1964 0.930 . S
C1977 C1976 1.388 . S
C1977 C1978 1.390 . S
C1978 C1977 1.390 . S
C1978 C1979 1.394 . S
C1978 C1984 1.465 . S
C1979 C1974 1.399 . S
C1979 C1978 1.394 . S
C1979 C1980 1.516 . S
C1980 C1979 1.516 . S
C1980 C1981 1.502 . S
C1980 C1982 1.561 . S
C1980 C1983 1.526 . S
C1981 H1965 0.959 . S
C1981 H1966 0.959 . S
C1981 H1967 0.961 . S
C1981 C1980 1.502 . S
C1982 H1968 0.960 . S
C1982 H1969 0.961 . S
C1982 H1970 0.959 . S
C1982 C1980 1.561 . S
C1983 C1980 1.526 . S
C1983 C1984 1.396 . S
C1983 C1988 1.390 . S
C1984 C1978 1.465 . S
C1984 C1983 1.396 . S
C1984 C1985 1.399 . S
C1985 H1971 0.929 . S
C1985 C1984 1.399 . S
C1985 C1986 1.385 . S
C1986 H1972 0.931 . S
C1986 C1985 1.385 . S
C1986 C1987 1.389 . S
C1987 C1986 1.389 . S
C1987 C1988 1.387 . S
C1988 H1973 0.930 . S
C1988 C1983 1.390 . S
C1988 C1987 1.387 . S
H1989 C2001 0.930 . S
H1990 C2003 0.930 . S
H1991 C2004 0.930 . S
H1992 C2008 0.959 . S
H1993 C2008 0.959 . S
H1994 C2008 0.961 . S
H1995 C2009 0.960 . S
H1996 C2009 0.961 . S
H1997 C2009 0.959 . S
H1998 C2012 0.929 . S
H1999 C2013 0.931 . S
H2000 C2015 0.930 . S
C2001 H1989 0.930 . S
C2001 C2002 1.399 . S
C2001 C2006 1.399 . S
C2002 C2001 1.399 . S
C2002 C2003 1.376 . S
C2003 H1990 0.930 . S
C2003 C2002 1.376 . S
C2003 C2004 1.388 . S
C2004 H1991 0.930 . S
C2004 C2003 1.388 . S
C2004 C2005 1.390 . S
C2005 C2004 1.390 . S
C2005 C2006 1.394 . S
C2005 C2011 1.465 . S
C2006 C2001 1.399 . S
C2006 C2005 1.394 . S
C2006 C2007 1.516 . S
C2007 C2006 1.516 . S
C2007 C2008 1.502 . S
C2007 C2009 1.561 . S
C2007 C2010 1.526 . S
C2008 H1992 0.959 . S
C2008 H1993 0.959 . S
C2008 H1994 0.961 . S
C2008 C2007 1.502 . S
C2009 H1995 0.960 . S
C2009 H1996 0.961 . S
C2009 H1997 0.959 . S
C2009 C2007 1.561 . S
C2010 C2007 1.526 . S
C2010 C2011 1.396 . S
C2010 C2015 1.390 . S
C2011 C2005 1.465 . S
C2011 C2010 1.396 . S
C2011 C2012 1.399 . S
C2012 H1998 0.929 . S
C2012 C2011 1.399 . S
C2012 C2013 1.385 . S
C2013 H1999 0.931 . S
C2013 C2012 1.385 . S
C2013 C2014 1.389 . S
C2014 C2013 1.389 . S
C2014 C2015 1.387 . S
C2015 H2000 0.930 . S
C2015 C2010 1.390 . S
C2015 C2014 1.387 . S
H2016 C2028 0.930 . S
H2017 C2030 0.930 . S
H2018 C2031 0.930 . S
H2019 C2035 0.959 . S
H2020 C2035 0.959 . S
H2021 C2035 0.961 . S
H2022 C2036 0.960 . S
H2023 C2036 0.961 . S
H2024 C2036 0.959 . S
H2025 C2039 0.929 . S
H2026 C2040 0.931 . S
H2027 C2042 0.930 . S
C2028 H2016 0.930 . S
C2028 C2029 1.399 . S
C2028 C2033 1.399 . S
C2029 C2028 1.399 . S
C2029 C2030 1.376 . S
C2030 H2017 0.930 . S
C2030 C2029 1.376 . S
C2030 C2031 1.388 . S
C2031 H2018 0.930 . S
C2031 C2030 1.388 . S
C2031 C2032 1.390 . S
C2032 C2031 1.390 . S
C2032 C2033 1.394 . S
C2032 C2038 1.465 . S
C2033 C2028 1.399 . S
C2033 C2032 1.394 . S
C2033 C2034 1.516 . S
C2034 C2033 1.516 . S
C2034 C2035 1.502 . S
C2034 C2036 1.561 . S
C2034 C2037 1.526 . S
C2035 H2019 0.959 . S
C2035 H2020 0.959 . S
C2035 H2021 0.961 . S
C2035 C2034 1.502 . S
C2036 H2022 0.960 . S
C2036 H2023 0.961 . S
C2036 H2024 0.959 . S
C2036 C2034 1.561 . S
C2037 C2034 1.526 . S
C2037 C2038 1.396 . S
C2037 C2042 1.390 . S
C2038 C2032 1.465 . S
C2038 C2037 1.396 . S
C2038 C2039 1.399 . S
C2039 H2025 0.929 . S
C2039 C2038 1.399 . S
C2039 C2040 1.385 . S
C2040 H2026 0.931 . S
C2040 C2039 1.385 . S
C2040 C2041 1.389 . S
C2041 C2040 1.389 . S
C2041 C2042 1.387 . S
C2042 H2027 0.930 . S
C2042 C2037 1.390 . S
C2042 C2041 1.387 . S
H2043 C2055 0.930 . S
H2044 C2057 0.930 . S
H2045 C2058 0.930 . S
H2046 C2062 0.959 . S
H2047 C2062 0.959 . S
H2048 C2062 0.961 . S
H2049 C2063 0.960 . S
H2050 C2063 0.961 . S
H2051 C2063 0.959 . S
H2052 C2066 0.929 . S
H2053 C2067 0.931 . S
H2054 C2069 0.930 . S
C2055 H2043 0.930 . S
C2055 C2056 1.399 . S
C2055 C2060 1.399 . S
C2056 C2055 1.399 . S
C2056 C2057 1.376 . S
C2057 H2044 0.930 . S
C2057 C2056 1.376 . S
C2057 C2058 1.388 . S
C2058 H2045 0.930 . S
C2058 C2057 1.388 . S
C2058 C2059 1.390 . S
C2059 C2058 1.390 . S
C2059 C2060 1.394 . S
C2059 C2065 1.465 . S
C2060 C2055 1.399 . S
C2060 C2059 1.394 . S
C2060 C2061 1.516 . S
C2061 C2060 1.516 . S
C2061 C2062 1.502 . S
C2061 C2063 1.561 . S
C2061 C2064 1.526 . S
C2062 H2046 0.959 . S
C2062 H2047 0.959 . S
C2062 H2048 0.961 . S
C2062 C2061 1.502 . S
C2063 H2049 0.960 . S
C2063 H2050 0.961 . S
C2063 H2051 0.959 . S
C2063 C2061 1.561 . S
C2064 C2061 1.526 . S
C2064 C2065 1.396 . S
C2064 C2069 1.390 . S
C2065 C2059 1.465 . S
C2065 C2064 1.396 . S
C2065 C2066 1.399 . S
C2066 H2052 0.929 . S
C2066 C2065 1.399 . S
C2066 C2067 1.385 . S
C2067 H2053 0.931 . S
C2067 C2066 1.385 . S
C2067 C2068 1.389 . S
C2068 C2067 1.389 . S
C2068 C2069 1.387 . S
C2069 H2054 0.930 . S
C2069 C2064 1.390 . S
C2069 C2068 1.387 . S
H2070 C2082 0.930 . S
H2071 C2084 0.930 . S
H2072 C2085 0.930 . S
H2073 C2089 0.959 . S
H2074 C2089 0.959 . S
H2075 C2089 0.961 . S
H2076 C2090 0.960 . S
H2077 C2090 0.961 . S
H2078 C2090 0.959 . S
H2079 C2093 0.929 . S
H2080 C2094 0.931 . S
H2081 C2096 0.930 . S
C2082 H2070 0.930 . S
C2082 C2083 1.399 . S
C2082 C2087 1.399 . S
C2083 C2082 1.399 . S
C2083 C2084 1.376 . S
C2084 H2071 0.930 . S
C2084 C2083 1.376 . S
C2084 C2085 1.388 . S
C2085 H2072 0.930 . S
C2085 C2084 1.388 . S
C2085 C2086 1.390 . S
C2086 C2085 1.390 . S
C2086 C2087 1.394 . S
C2086 C2092 1.465 . S
C2087 C2082 1.399 . S
C2087 C2086 1.394 . S
C2087 C2088 1.516 . S
C2088 C2087 1.516 . S
C2088 C2089 1.502 . S
C2088 C2090 1.561 . S
C2088 C2091 1.526 . S
C2089 H2073 0.959 . S
C2089 H2074 0.959 . S
C2089 H2075 0.961 . S
C2089 C2088 1.502 . S
C2090 H2076 0.960 . S
C2090 H2077 0.961 . S
C2090 H2078 0.959 . S
C2090 C2088 1.561 . S
C2091 C2088 1.526 . S
C2091 C2092 1.396 . S
C2091 C2096 1.390 . S
C2092 C2086 1.465 . S
C2092 C2091 1.396 . S
C2092 C2093 1.399 . S
C2093 H2079 0.929 . S
C2093 C2092 1.399 . S
C2093 C2094 1.385 . S
C2094 H2080 0.931 . S
C2094 C2093 1.385 . S
C2094 C2095 1.389 . S
C2095 C2094 1.389 . S
C2095 C2096 1.387 . S
C2096 H2081 0.930 . S
C2096 C2091 1.390 . S
C2096 C2095 1.387 . S
H2097 C2109 0.930 . S
H2098 C2111 0.930 . S
H2099 C2112 0.930 . S
H2100 C2116 0.959 . S
H2101 C2116 0.959 . S
H2102 C2116 0.961 . S
H2103 C2117 0.960 . S
H2104 C2117 0.961 . S
H2105 C2117 0.959 . S
H2106 C2120 0.929 . S
H2107 C2121 0.931 . S
H2108 C2123 0.930 . S
C2109 H2097 0.930 . S
C2109 C2110 1.399 . S
C2109 C2114 1.399 . S
C2110 C2109 1.399 . S
C2110 C2111 1.376 . S
C2111 H2098 0.930 . S
C2111 C2110 1.376 . S
C2111 C2112 1.388 . S
C2112 H2099 0.930 . S
C2112 C2111 1.388 . S
C2112 C2113 1.390 . S
C2113 C2112 1.390 . S
C2113 C2114 1.394 . S
C2113 C2119 1.465 . S
C2114 C2109 1.399 . S
C2114 C2113 1.394 . S
C2114 C2115 1.516 . S
C2115 C2114 1.516 . S
C2115 C2116 1.502 . S
C2115 C2117 1.561 . S
C2115 C2118 1.526 . S
C2116 H2100 0.959 . S
C2116 H2101 0.959 . S
C2116 H2102 0.961 . S
C2116 C2115 1.502 . S
C2117 H2103 0.960 . S
C2117 H2104 0.961 . S
C2117 H2105 0.959 . S
C2117 C2115 1.561 . S
C2118 C2115 1.526 . S
C2118 C2119 1.396 . S
C2118 C2123 1.390 . S
C2119 C2113 1.465 . S
C2119 C2118 1.396 . S
C2119 C2120 1.399 . S
C2120 H2106 0.929 . S
C2120 C2119 1.399 . S
C2120 C2121 1.385 . S
C2121 H2107 0.931 . S
C2121 C2120 1.385 . S
C2121 C2122 1.389 . S
C2122 C2121 1.389 . S
C2122 C2123 1.387 . S
C2123 H2108 0.930 . S
C2123 C2118 1.390 . S
C2123 C2122 1.387 . S
H2124 C2136 0.930 . S
H2125 C2138 0.930 . S
H2126 C2139 0.930 . S
H2127 C2143 0.959 . S
H2128 C2143 0.959 . S
H2129 C2143 0.961 . S
H2130 C2144 0.960 . S
H2131 C2144 0.961 . S
H2132 C2144 0.959 . S
H2133 C2147 0.929 . S
H2134 C2148 0.931 . S
H2135 C2150 0.930 . S
C2136 H2124 0.930 . S
C2136 C2137 1.399 . S
C2136 C2141 1.399 . S
C2137 C2136 1.399 . S
C2137 C2138 1.376 . S
C2138 H2125 0.930 . S
C2138 C2137 1.376 . S
C2138 C2139 1.388 . S
C2139 H2126 0.930 . S
C2139 C2138 1.388 . S
C2139 C2140 1.390 . S
C2140 C2139 1.390 . S
C2140 C2141 1.394 . S
C2140 C2146 1.465 . S
C2141 C2136 1.399 . S
C2141 C2140 1.394 . S
C2141 C2142 1.516 . S
C2142 C2141 1.516 . S
C2142 C2143 1.502 . S
C2142 C2144 1.561 . S
C2142 C2145 1.526 . S
C2143 H2127 0.959 . S
C2143 H2128 0.959 . S
C2143 H2129 0.961 . S
C2143 C2142 1.502 . S
C2144 H2130 0.960 . S
C2144 H2131 0.961 . S
C2144 H2132 0.959 . S
C2144 C2142 1.561 . S
C2145 C2142 1.526 . S
C2145 C2146 1.396 . S
C2145 C2150 1.390 . S
C2146 C2140 1.465 . S
C2146 C2145 1.396 . S
C2146 C2147 1.399 . S
C2147 H2133 0.929 . S
C2147 C2146 1.399 . S
C2147 C2148 1.385 . S
C2148 H2134 0.931 . S
C2148 C2147 1.385 . S
C2148 C2149 1.389 . S
C2149 C2148 1.389 . S
C2149 C2150 1.387 . S
C2150 H2135 0.930 . S
C2150 C2145 1.390 . S
C2150 C2149 1.387 . S
H2151 C2163 0.930 . S
H2152 C2165 0.930 . S
H2153 C2166 0.930 . S
H2154 C2170 0.959 . S
H2155 C2170 0.959 . S
H2156 C2170 0.961 . S
H2157 C2171 0.960 . S
H2158 C2171 0.961 . S
H2159 C2171 0.959 . S
H2160 C2174 0.929 . S
H2161 C2175 0.931 . S
H2162 C2177 0.930 . S
C2163 H2151 0.930 . S
C2163 C2164 1.399 . S
C2163 C2168 1.399 . S
C2164 C2163 1.399 . S
C2164 C2165 1.376 . S
C2165 H2152 0.930 . S
C2165 C2164 1.376 . S
C2165 C2166 1.388 . S
C2166 H2153 0.930 . S
C2166 C2165 1.388 . S
C2166 C2167 1.390 . S
C2167 C2166 1.390 . S
C2167 C2168 1.394 . S
C2167 C2173 1.465 . S
C2168 C2163 1.399 . S
C2168 C2167 1.394 . S
C2168 C2169 1.516 . S
C2169 C2168 1.516 . S
C2169 C2170 1.502 . S
C2169 C2171 1.561 . S
C2169 C2172 1.526 . S
C2170 H2154 0.959 . S
C2170 H2155 0.959 . S
C2170 H2156 0.961 . S
C2170 C2169 1.502 . S
C2171 H2157 0.960 . S
C2171 H2158 0.961 . S
C2171 H2159 0.959 . S
C2171 C2169 1.561 . S
C2172 C2169 1.526 . S
C2172 C2173 1.396 . S
C2172 C2177 1.390 . S
C2173 C2167 1.465 . S
C2173 C2172 1.396 . S
C2173 C2174 1.399 . S
C2174 H2160 0.929 . S
C2174 C2173 1.399 . S
C2174 C2175 1.385 . S
C2175 H2161 0.931 . S
C2175 C2174 1.385 . S
C2175 C2176 1.389 . S
C2176 C2175 1.389 . S
C2176 C2177 1.387 . S
C2177 H2162 0.930 . S
C2177 C2172 1.390 . S
C2177 C2176 1.387 . S
H2178 C2190 0.930 . S
H2179 C2192 0.930 . S
H2180 C2193 0.930 . S
H2181 C2197 0.959 . S
H2182 C2197 0.959 . S
H2183 C2197 0.961 . S
H2184 C2198 0.960 . S
H2185 C2198 0.961 . S
H2186 C2198 0.959 . S
H2187 C2201 0.929 . S
H2188 C2202 0.931 . S
H2189 C2204 0.930 . S
C2190 H2178 0.930 . S
C2190 C2191 1.399 . S
C2190 C2195 1.399 . S
C2191 C2190 1.399 . S
C2191 C2192 1.376 . S
C2192 H2179 0.930 . S
C2192 C2191 1.376 . S
C2192 C2193 1.388 . S
C2193 H2180 0.930 . S
C2193 C2192 1.388 . S
C2193 C2194 1.390 . S
C2194 C2193 1.390 . S
C2194 C2195 1.394 . S
C2194 C2200 1.465 . S
C2195 C2190 1.399 . S
C2195 C2194 1.394 . S
C2195 C2196 1.516 . S
C2196 C2195 1.516 . S
C2196 C2197 1.502 . S
C2196 C2198 1.561 . S
C2196 C2199 1.526 . S
C2197 H2181 0.959 . S
C2197 H2182 0.959 . S
C2197 H2183 0.961 . S
C2197 C2196 1.502 . S
C2198 H2184 0.960 . S
C2198 H2185 0.961 . S
C2198 H2186 0.959 . S
C2198 C2196 1.561 . S
C2199 C2196 1.526 . S
C2199 C2200 1.396 . S
C2199 C2204 1.390 . S
C2200 C2194 1.465 . S
C2200 C2199 1.396 . S
C2200 C2201 1.399 . S
C2201 H2187 0.929 . S
C2201 C2200 1.399 . S
C2201 C2202 1.385 . S
C2202 H2188 0.931 . S
C2202 C2201 1.385 . S
C2202 C2203 1.389 . S
C2203 C2202 1.389 . S
C2203 C2204 1.387 . S
C2204 H2189 0.930 . S
C2204 C2199 1.390 . S
C2204 C2203 1.387 . S
H2205 C2217 0.930 . S
H2206 C2219 0.930 . S
H2207 C2220 0.930 . S
H2208 C2224 0.959 . S
H2209 C2224 0.959 . S
H2210 C2224 0.961 . S
H2211 C2225 0.960 . S
H2212 C2225 0.961 . S
H2213 C2225 0.959 . S
H2214 C2228 0.929 . S
H2215 C2229 0.931 . S
H2216 C2231 0.930 . S
C2217 H2205 0.930 . S
C2217 C2218 1.399 . S
C2217 C2222 1.399 . S
C2218 C2217 1.399 . S
C2218 C2219 1.376 . S
C2219 H2206 0.930 . S
C2219 C2218 1.376 . S
C2219 C2220 1.388 . S
C2220 H2207 0.930 . S
C2220 C2219 1.388 . S
C2220 C2221 1.390 . S
C2221 C2220 1.390 . S
C2221 C2222 1.394 . S
C2221 C2227 1.465 . S
C2222 C2217 1.399 . S
C2222 C2221 1.394 . S
C2222 C2223 1.516 . S
C2223 C2222 1.516 . S
C2223 C2224 1.502 . S
C2223 C2225 1.561 . S
C2223 C2226 1.526 . S
C2224 H2208 0.959 . S
C2224 H2209 0.959 . S
C2224 H2210 0.961 . S
C2224 C2223 1.502 . S
C2225 H2211 0.960 . S
C2225 H2212 0.961 . S
C2225 H2213 0.959 . S
C2225 C2223 1.561 . S
C2226 C2223 1.526 . S
C2226 C2227 1.396 . S
C2226 C2231 1.390 . S
C2227 C2221 1.465 . S
C2227 C2226 1.396 . S
C2227 C2228 1.399 . S
C2228 H2214 0.929 . S
C2228 C2227 1.399 . S
C2228 C2229 1.385 . S
C2229 H2215 0.931 . S
C2229 C2228 1.385 . S
C2229 C2230 1.389 . S
C2230 C2229 1.389 . S
C2230 C2231 1.387 . S
C2231 H2216 0.930 . S
C2231 C2226 1.390 . S
C2231 C2230 1.387 . S
H2232 C2244 0.930 . S
H2233 C2246 0.930 . S
H2234 C2247 0.930 . S
H2235 C2251 0.959 . S
H2236 C2251 0.959 . S
H2237 C2251 0.961 . S
H2238 C2252 0.960 . S
H2239 C2252 0.961 . S
H2240 C2252 0.959 . S
H2241 C2255 0.929 . S
H2242 C2256 0.931 . S
H2243 C2258 0.930 . S
C2244 H2232 0.930 . S
C2244 C2245 1.399 . S
C2244 C2249 1.399 . S
C2245 C2244 1.399 . S
C2245 C2246 1.376 . S
C2246 H2233 0.930 . S
C2246 C2245 1.376 . S
C2246 C2247 1.388 . S
C2247 H2234 0.930 . S
C2247 C2246 1.388 . S
C2247 C2248 1.390 . S
C2248 C2247 1.390 . S
C2248 C2249 1.394 . S
C2248 C2254 1.465 . S
C2249 C2244 1.399 . S
C2249 C2248 1.394 . S
C2249 C2250 1.516 . S
C2250 C2249 1.516 . S
C2250 C2251 1.502 . S
C2250 C2252 1.561 . S
C2250 C2253 1.526 . S
C2251 H2235 0.959 . S
C2251 H2236 0.959 . S
C2251 H2237 0.961 . S
C2251 C2250 1.502 . S
C2252 H2238 0.960 . S
C2252 H2239 0.961 . S
C2252 H2240 0.959 . S
C2252 C2250 1.561 . S
C2253 C2250 1.526 . S
C2253 C2254 1.396 . S
C2253 C2258 1.390 . S
C2254 C2248 1.465 . S
C2254 C2253 1.396 . S
C2254 C2255 1.399 . S
C2255 H2241 0.929 . S
C2255 C2254 1.399 . S
C2255 C2256 1.385 . S
C2256 H2242 0.931 . S
C2256 C2255 1.385 . S
C2256 C2257 1.389 . S
C2257 C2256 1.389 . S
C2257 C2258 1.387 . S
C2258 H2243 0.930 . S
C2258 C2253 1.390 . S
C2258 C2257 1.387 . S
H2259 C2271 0.930 . S
H2260 C2273 0.930 . S
H2261 C2274 0.930 . S
H2262 C2278 0.959 . S
H2263 C2278 0.959 . S
H2264 C2278 0.961 . S
H2265 C2279 0.960 . S
H2266 C2279 0.961 . S
H2267 C2279 0.959 . S
H2268 C2282 0.929 . S
H2269 C2283 0.931 . S
H2270 C2285 0.930 . S
C2271 H2259 0.930 . S
C2271 C2272 1.399 . S
C2271 C2276 1.399 . S
C2272 C2271 1.399 . S
C2272 C2273 1.376 . S
C2273 H2260 0.930 . S
C2273 C2272 1.376 . S
C2273 C2274 1.388 . S
C2274 H2261 0.930 . S
C2274 C2273 1.388 . S
C2274 C2275 1.390 . S
C2275 C2274 1.390 . S
C2275 C2276 1.394 . S
C2275 C2281 1.465 . S
C2276 C2271 1.399 . S
C2276 C2275 1.394 . S
C2276 C2277 1.516 . S
C2277 C2276 1.516 . S
C2277 C2278 1.502 . S
C2277 C2279 1.561 . S
C2277 C2280 1.526 . S
C2278 H2262 0.959 . S
C2278 H2263 0.959 . S
C2278 H2264 0.961 . S
C2278 C2277 1.502 . S
C2279 H2265 0.960 . S
C2279 H2266 0.961 . S
C2279 H2267 0.959 . S
C2279 C2277 1.561 . S
C2280 C2277 1.526 . S
C2280 C2281 1.396 . S
C2280 C2285 1.390 . S
C2281 C2275 1.465 . S
C2281 C2280 1.396 . S
C2281 C2282 1.399 . S
C2282 H2268 0.929 . S
C2282 C2281 1.399 . S
C2282 C2283 1.385 . S
C2283 H2269 0.931 . S
C2283 C2282 1.385 . S
C2283 C2284 1.389 . S
C2284 C2283 1.389 . S
C2284 C2285 1.387 . S
C2285 H2270 0.930 . S
C2285 C2280 1.390 . S
C2285 C2284 1.387 . S
H2286 C2298 0.930 . S
H2287 C2300 0.930 . S
H2288 C2301 0.930 . S
H2289 C2305 0.959 . S
H2290 C2305 0.959 . S
H2291 C2305 0.961 . S
H2292 C2306 0.960 . S
H2293 C2306 0.961 . S
H2294 C2306 0.959 . S
H2295 C2309 0.929 . S
H2296 C2310 0.931 . S
H2297 C2312 0.930 . S
C2298 H2286 0.930 . S
C2298 C2299 1.399 . S
C2298 C2303 1.399 . S
C2299 C2298 1.399 . S
C2299 C2300 1.376 . S
C2300 H2287 0.930 . S
C2300 C2299 1.376 . S
C2300 C2301 1.388 . S
C2301 H2288 0.930 . S
C2301 C2300 1.388 . S
C2301 C2302 1.390 . S
C2302 C2301 1.390 . S
C2302 C2303 1.394 . S
C2302 C2308 1.465 . S
C2303 C2298 1.399 . S
C2303 C2302 1.394 . S
C2303 C2304 1.516 . S
C2304 C2303 1.516 . S
C2304 C2305 1.502 . S
C2304 C2306 1.561 . S
C2304 C2307 1.526 . S
C2305 H2289 0.959 . S
C2305 H2290 0.959 . S
C2305 H2291 0.961 . S
C2305 C2304 1.502 . S
C2306 H2292 0.960 . S
C2306 H2293 0.961 . S
C2306 H2294 0.959 . S
C2306 C2304 1.561 . S
C2307 C2304 1.526 . S
C2307 C2308 1.396 . S
C2307 C2312 1.390 . S
C2308 C2302 1.465 . S
C2308 C2307 1.396 . S
C2308 C2309 1.399 . S
C2309 H2295 0.929 . S
C2309 C2308 1.399 . S
C2309 C2310 1.385 . S
C2310 H2296 0.931 . S
C2310 C2309 1.385 . S
C2310 C2311 1.389 . S
C2311 C2310 1.389 . S
C2311 C2312 1.387 . S
C2312 H2297 0.930 . S
C2312 C2307 1.390 . S
C2312 C2311 1.387 . S
H2313 C2325 0.930 . S
H2314 C2327 0.930 . S
H2315 C2328 0.930 . S
H2316 C2332 0.959 . S
H2317 C2332 0.959 . S
H2318 C2332 0.961 . S
H2319 C2333 0.960 . S
H2320 C2333 0.961 . S
H2321 C2333 0.959 . S
H2322 C2336 0.929 . S
H2323 C2337 0.931 . S
H2324 C2339 0.930 . S
C2325 H2313 0.930 . S
C2325 C2326 1.399 . S
C2325 C2330 1.399 . S
C2326 C2325 1.399 . S
C2326 C2327 1.376 . S
C2327 H2314 0.930 . S
C2327 C2326 1.376 . S
C2327 C2328 1.388 . S
C2328 H2315 0.930 . S
C2328 C2327 1.388 . S
C2328 C2329 1.390 . S
C2329 C2328 1.390 . S
C2329 C2330 1.394 . S
C2329 C2335 1.465 . S
C2330 C2325 1.399 . S
C2330 C2329 1.394 . S
C2330 C2331 1.516 . S
C2331 C2330 1.516 . S
C2331 C2332 1.502 . S
C2331 C2333 1.561 . S
C2331 C2334 1.526 . S
C2332 H2316 0.959 . S
C2332 H2317 0.959 . S
C2332 H2318 0.961 . S
C2332 C2331 1.502 . S
C2333 H2319 0.960 . S
C2333 H2320 0.961 . S
C2333 H2321 0.959 . S
C2333 C2331 1.561 . S
C2334 C2331 1.526 . S
C2334 C2335 1.396 . S
C2334 C2339 1.390 . S
C2335 C2329 1.465 . S
C2335 C2334 1.396 . S
C2335 C2336 1.399 . S
C2336 H2322 0.929 . S
C2336 C2335 1.399 . S
C2336 C2337 1.385 . S
C2337 H2323 0.931 . S
C2337 C2336 1.385 . S
C2337 C2338 1.389 . S
C2338 C2337 1.389 . S
C2338 C2339 1.387 . S
C2339 H2324 0.930 . S
C2339 C2334 1.390 . S
C2339 C2338 1.387 . S
H2340 C2352 0.930 . S
H2341 C2354 0.930 . S
H2342 C2355 0.930 . S
H2343 C2359 0.959 . S
H2344 C2359 0.959 . S
H2345 C2359 0.961 . S
H2346 C2360 0.960 . S
H2347 C2360 0.961 . S
H2348 C2360 0.959 . S
H2349 C2363 0.929 . S
H2350 C2364 0.931 . S
H2351 C2366 0.930 . S
C2352 H2340 0.930 . S
C2352 C2353 1.399 . S
C2352 C2357 1.399 . S
C2353 C2352 1.399 . S
C2353 C2354 1.376 . S
C2354 H2341 0.930 . S
C2354 C2353 1.376 . S
C2354 C2355 1.388 . S
C2355 H2342 0.930 . S
C2355 C2354 1.388 . S
C2355 C2356 1.390 . S
C2356 C2355 1.390 . S
C2356 C2357 1.394 . S
C2356 C2362 1.465 . S
C2357 C2352 1.399 . S
C2357 C2356 1.394 . S
C2357 C2358 1.516 . S
C2358 C2357 1.516 . S
C2358 C2359 1.502 . S
C2358 C2360 1.561 . S
C2358 C2361 1.526 . S
C2359 H2343 0.959 . S
C2359 H2344 0.959 . S
C2359 H2345 0.961 . S
C2359 C2358 1.502 . S
C2360 H2346 0.960 . S
C2360 H2347 0.961 . S
C2360 H2348 0.959 . S
C2360 C2358 1.561 . S
C2361 C2358 1.526 . S
C2361 C2362 1.396 . S
C2361 C2366 1.390 . S
C2362 C2356 1.465 . S
C2362 C2361 1.396 . S
C2362 C2363 1.399 . S
C2363 H2349 0.929 . S
C2363 C2362 1.399 . S
C2363 C2364 1.385 . S
C2364 H2350 0.931 . S
C2364 C2363 1.385 . S
C2364 C2365 1.389 . S
C2365 C2364 1.389 . S
C2365 C2366 1.387 . S
C2366 H2351 0.930 . S
C2366 C2361 1.390 . S
C2366 C2365 1.387 . S
H2367 C2379 0.930 . S
H2368 C2381 0.930 . S
H2369 C2382 0.930 . S
H2370 C2386 0.959 . S
H2371 C2386 0.959 . S
H2372 C2386 0.961 . S
H2373 C2387 0.960 . S
H2374 C2387 0.961 . S
H2375 C2387 0.959 . S
H2376 C2390 0.929 . S
H2377 C2391 0.931 . S
H2378 C2393 0.930 . S
C2379 H2367 0.930 . S
C2379 C2380 1.399 . S
C2379 C2384 1.399 . S
C2380 C2379 1.399 . S
C2380 C2381 1.376 . S
C2381 H2368 0.930 . S
C2381 C2380 1.376 . S
C2381 C2382 1.388 . S
C2382 H2369 0.930 . S
C2382 C2381 1.388 . S
C2382 C2383 1.390 . S
C2383 C2382 1.390 . S
C2383 C2384 1.394 . S
C2383 C2389 1.465 . S
C2384 C2379 1.399 . S
C2384 C2383 1.394 . S
C2384 C2385 1.516 . S
C2385 C2384 1.516 . S
C2385 C2386 1.502 . S
C2385 C2387 1.561 . S
C2385 C2388 1.526 . S
C2386 H2370 0.959 . S
C2386 H2371 0.959 . S
C2386 H2372 0.961 . S
C2386 C2385 1.502 . S
C2387 H2373 0.960 . S
C2387 H2374 0.961 . S
C2387 H2375 0.959 . S
C2387 C2385 1.561 . S
C2388 C2385 1.526 . S
C2388 C2389 1.396 . S
C2388 C2393 1.390 . S
C2389 C2383 1.465 . S
C2389 C2388 1.396 . S
C2389 C2390 1.399 . S
C2390 H2376 0.929 . S
C2390 C2389 1.399 . S
C2390 C2391 1.385 . S
C2391 H2377 0.931 . S
C2391 C2390 1.385 . S
C2391 C2392 1.389 . S
C2392 C2391 1.389 . S
C2392 C2393 1.387 . S
C2393 H2378 0.930 . S
C2393 C2388 1.390 . S
C2393 C2392 1.387 . S
H2394 C2406 0.930 . S
H2395 C2408 0.930 . S
H2396 C2409 0.930 . S
H2397 C2413 0.959 . S
H2398 C2413 0.959 . S
H2399 C2413 0.961 . S
H2400 C2414 0.960 . S
H2401 C2414 0.961 . S
H2402 C2414 0.959 . S
H2403 C2417 0.929 . S
H2404 C2418 0.931 . S
H2405 C2420 0.930 . S
C2406 H2394 0.930 . S
C2406 C2407 1.399 . S
C2406 C2411 1.399 . S
C2407 C2406 1.399 . S
C2407 C2408 1.376 . S
C2408 H2395 0.930 . S
C2408 C2407 1.376 . S
C2408 C2409 1.388 . S
C2409 H2396 0.930 . S
C2409 C2408 1.388 . S
C2409 C2410 1.390 . S
C2410 C2409 1.390 . S
C2410 C2411 1.394 . S
C2410 C2416 1.465 . S
C2411 C2406 1.399 . S
C2411 C2410 1.394 . S
C2411 C2412 1.516 . S
C2412 C2411 1.516 . S
C2412 C2413 1.502 . S
C2412 C2414 1.561 . S
C2412 C2415 1.526 . S
C2413 H2397 0.959 . S
C2413 H2398 0.959 . S
C2413 H2399 0.961 . S
C2413 C2412 1.502 . S
C2414 H2400 0.960 . S
C2414 H2401 0.961 . S
C2414 H2402 0.959 . S
C2414 C2412 1.561 . S
C2415 C2412 1.526 . S
C2415 C2416 1.396 . S
C2415 C2420 1.390 . S
C2416 C2410 1.465 . S
C2416 C2415 1.396 . S
C2416 C2417 1.399 . S
C2417 H2403 0.929 . S
C2417 C2416 1.399 . S
C2417 C2418 1.385 . S
C2418 H2404 0.931 . S
C2418 C2417 1.385 . S
C2418 C2419 1.389 . S
C2419 C2418 1.389 . S
C2419 C2420 1.387 . S
C2420 H2405 0.930 . S
C2420 C2415 1.390 . S
C2420 C2419 1.387 . S
H2421 C2433 0.930 . S
H2422 C2435 0.930 . S
H2423 C2436 0.930 . S
H2424 C2440 0.959 . S
H2425 C2440 0.959 . S
H2426 C2440 0.961 . S
H2427 C2441 0.960 . S
H2428 C2441 0.961 . S
H2429 C2441 0.959 . S
H2430 C2444 0.929 . S
H2431 C2445 0.931 . S
H2432 C2447 0.930 . S
C2433 H2421 0.930 . S
C2433 C2434 1.399 . S
C2433 C2438 1.399 . S
C2434 C2433 1.399 . S
C2434 C2435 1.376 . S
C2435 H2422 0.930 . S
C2435 C2434 1.376 . S
C2435 C2436 1.388 . S
C2436 H2423 0.930 . S
C2436 C2435 1.388 . S
C2436 C2437 1.390 . S
C2437 C2436 1.390 . S
C2437 C2438 1.394 . S
C2437 C2443 1.465 . S
C2438 C2433 1.399 . S
C2438 C2437 1.394 . S
C2438 C2439 1.516 . S
C2439 C2438 1.516 . S
C2439 C2440 1.502 . S
C2439 C2441 1.561 . S
C2439 C2442 1.526 . S
C2440 H2424 0.959 . S
C2440 H2425 0.959 . S
C2440 H2426 0.961 . S
C2440 C2439 1.502 . S
C2441 H2427 0.960 . S
C2441 H2428 0.961 . S
C2441 H2429 0.959 . S
C2441 C2439 1.561 . S
C2442 C2439 1.526 . S
C2442 C2443 1.396 . S
C2442 C2447 1.390 . S
C2443 C2437 1.465 . S
C2443 C2442 1.396 . S
C2443 C2444 1.399 . S
C2444 H2430 0.929 . S
C2444 C2443 1.399 . S
C2444 C2445 1.385 . S
C2445 H2431 0.931 . S
C2445 C2444 1.385 . S
C2445 C2446 1.389 . S
C2446 C2445 1.389 . S
C2446 C2447 1.387 . S
C2447 H2432 0.930 . S
C2447 C2442 1.390 . S
C2447 C2446 1.387 . S
H2448 C2460 0.930 . S
H2449 C2462 0.930 . S
H2450 C2463 0.930 . S
H2451 C2467 0.959 . S
H2452 C2467 0.959 . S
H2453 C2467 0.961 . S
H2454 C2468 0.960 . S
H2455 C2468 0.961 . S
H2456 C2468 0.959 . S
H2457 C2471 0.929 . S
H2458 C2472 0.931 . S
H2459 C2474 0.930 . S
C2460 H2448 0.930 . S
C2460 C2461 1.399 . S
C2460 C2465 1.399 . S
C2461 C2460 1.399 . S
C2461 C2462 1.376 . S
C2462 H2449 0.930 . S
C2462 C2461 1.376 . S
C2462 C2463 1.388 . S
C2463 H2450 0.930 . S
C2463 C2462 1.388 . S
C2463 C2464 1.390 . S
C2464 C2463 1.390 . S
C2464 C2465 1.394 . S
C2464 C2470 1.465 . S
C2465 C2460 1.399 . S
C2465 C2464 1.394 . S
C2465 C2466 1.516 . S
C2466 C2465 1.516 . S
C2466 C2467 1.502 . S
C2466 C2468 1.561 . S
C2466 C2469 1.526 . S
C2467 H2451 0.959 . S
C2467 H2452 0.959 . S
C2467 H2453 0.961 . S
C2467 C2466 1.502 . S
C2468 H2454 0.960 . S
C2468 H2455 0.961 . S
C2468 H2456 0.959 . S
C2468 C2466 1.561 . S
C2469 C2466 1.526 . S
C2469 C2470 1.396 . S
C2469 C2474 1.390 . S
C2470 C2464 1.465 . S
C2470 C2469 1.396 . S
C2470 C2471 1.399 . S
C2471 H2457 0.929 . S
C2471 C2470 1.399 . S
C2471 C2472 1.385 . S
C2472 H2458 0.931 . S
C2472 C2471 1.385 . S
C2472 C2473 1.389 . S
C2473 C2472 1.389 . S
C2473 C2474 1.387 . S
C2474 H2459 0.930 . S
C2474 C2469 1.390 . S
C2474 C2473 1.387 . S
H2475 C2487 0.930 . S
H2476 C2489 0.930 . S
H2477 C2490 0.930 . S
H2478 C2494 0.959 . S
H2479 C2494 0.959 . S
H2480 C2494 0.961 . S
H2481 C2495 0.960 . S
H2482 C2495 0.961 . S
H2483 C2495 0.959 . S
H2484 C2498 0.929 . S
H2485 C2499 0.931 . S
H2486 C2501 0.930 . S
C2487 H2475 0.930 . S
C2487 C2488 1.399 . S
C2487 C2492 1.399 . S
C2488 C2487 1.399 . S
C2488 C2489 1.376 . S
C2489 H2476 0.930 . S
C2489 C2488 1.376 . S
C2489 C2490 1.388 . S
C2490 H2477 0.930 . S
C2490 C2489 1.388 . S
C2490 C2491 1.390 . S
C2491 C2490 1.390 . S
C2491 C2492 1.394 . S
C2491 C2497 1.465 . S
C2492 C2487 1.399 . S
C2492 C2491 1.394 . S
C2492 C2493 1.516 . S
C2493 C2492 1.516 . S
C2493 C2494 1.502 . S
C2493 C2495 1.561 . S
C2493 C2496 1.526 . S
C2494 H2478 0.959 . S
C2494 H2479 0.959 . S
C2494 H2480 0.961 . S
C2494 C2493 1.502 . S
C2495 H2481 0.960 . S
C2495 H2482 0.961 . S
C2495 H2483 0.959 . S
C2495 C2493 1.561 . S
C2496 C2493 1.526 . S
C2496 C2497 1.396 . S
C2496 C2501 1.390 . S
C2497 C2491 1.465 . S
C2497 C2496 1.396 . S
C2497 C2498 1.399 . S
C2498 H2484 0.929 . S
C2498 C2497 1.399 . S
C2498 C2499 1.385 . S
C2499 H2485 0.931 . S
C2499 C2498 1.385 . S
C2499 C2500 1.389 . S
C2500 C2499 1.389 . S
C2500 C2501 1.387 . S
C2501 H2486 0.930 . S
C2501 C2496 1.390 . S
C2501 C2500 1.387 . S
H2502 C2514 0.930 . S
H2503 C2516 0.930 . S
H2504 C2517 0.930 . S
H2505 C2521 0.959 . S
H2506 C2521 0.959 . S
H2507 C2521 0.961 . S
H2508 C2522 0.960 . S
H2509 C2522 0.961 . S
H2510 C2522 0.959 . S
H2511 C2525 0.929 . S
H2512 C2526 0.931 . S
H2513 C2528 0.930 . S
C2514 H2502 0.930 . S
C2514 C2515 1.399 . S
C2514 C2519 1.399 . S
C2515 C2514 1.399 . S
C2515 C2516 1.376 . S
C2516 H2503 0.930 . S
C2516 C2515 1.376 . S
C2516 C2517 1.388 . S
C2517 H2504 0.930 . S
C2517 C2516 1.388 . S
C2517 C2518 1.390 . S
C2518 C2517 1.390 . S
C2518 C2519 1.394 . S
C2518 C2524 1.465 . S
C2519 C2514 1.399 . S
C2519 C2518 1.394 . S
C2519 C2520 1.516 . S
C2520 C2519 1.516 . S
C2520 C2521 1.502 . S
C2520 C2522 1.561 . S
C2520 C2523 1.526 . S
C2521 H2505 0.959 . S
C2521 H2506 0.959 . S
C2521 H2507 0.961 . S
C2521 C2520 1.502 . S
C2522 H2508 0.960 . S
C2522 H2509 0.961 . S
C2522 H2510 0.959 . S
C2522 C2520 1.561 . S
C2523 C2520 1.526 . S
C2523 C2524 1.396 . S
C2523 C2528 1.390 . S
C2524 C2518 1.465 . S
C2524 C2523 1.396 . S
C2524 C2525 1.399 . S
C2525 H2511 0.929 . S
C2525 C2524 1.399 . S
C2525 C2526 1.385 . S
C2526 H2512 0.931 . S
C2526 C2525 1.385 . S
C2526 C2527 1.389 . S
C2527 C2526 1.389 . S
C2527 C2528 1.387 . S
C2528 H2513 0.930 . S
C2528 C2523 1.390 . S
C2528 C2527 1.387 . S
H2529 C2541 0.930 . S
H2530 C2543 0.930 1_554 S
H2531 C2544 0.921 1_554 S
H2532 C2548 0.959 . S
H2533 C2548 0.959 . S
H2534 C2548 0.961 . S
H2535 C2549 0.960 . S
H2536 C2549 0.961 . S
H2537 C2549 0.959 . S
H2538 C2552 0.929 . S
H2539 C2553 0.931 . S
H2540 C2555 0.930 . S
C2541 H2529 0.930 . S
C2541 C2542 1.399 . S
C2541 C2546 1.399 . S
C2542 C2541 1.399 . S
C2542 C2543 1.376 . S
C2543 H2530 0.930 1_556 S
C2543 C2542 1.376 . S
C2543 C2544 1.388 . S
C2544 H2531 0.921 1_556 S
C2544 C2543 1.388 . S
C2544 C2545 1.390 . S
C2545 C2544 1.390 . S
C2545 C2546 1.394 . S
C2545 C2551 1.465 . S
C2546 C2541 1.399 . S
C2546 C2545 1.394 . S
C2546 C2547 1.516 . S
C2547 C2546 1.516 . S
C2547 C2548 1.502 . S
C2547 C2549 1.561 . S
C2547 C2550 1.526 . S
C2548 H2532 0.959 . S
C2548 H2533 0.959 . S
C2548 H2534 0.961 . S
C2548 C2547 1.502 . S
C2549 H2535 0.960 . S
C2549 H2536 0.961 . S
C2549 H2537 0.959 . S
C2549 C2547 1.561 . S
C2550 C2547 1.526 . S
C2550 C2551 1.396 . S
C2550 C2555 1.390 . S
C2551 C2545 1.465 . S
C2551 C2550 1.396 . S
C2551 C2552 1.399 . S
C2552 H2538 0.929 . S
C2552 C2551 1.399 . S
C2552 C2553 1.385 . S
C2553 H2539 0.931 . S
C2553 C2552 1.385 . S
C2553 C2554 1.389 . S
C2554 C2553 1.389 . S
C2554 C2555 1.387 . S
C2555 H2540 0.930 . S
C2555 C2550 1.390 . S
C2555 C2554 1.387 . S
H2556 C2568 0.930 . S
H2557 C2570 0.930 . S
H2558 C2571 0.930 . S
H2559 C2575 0.959 . S
H2560 C2575 0.959 . S
H2561 C2575 0.961 . S
H2562 C2576 0.950 1_554 S
H2563 C2576 0.961 . S
H2564 C2576 0.959 . S
H2565 C2579 0.929 . S
H2566 C2580 0.931 . S
H2567 C2582 0.930 . S
C2568 H2556 0.930 . S
C2568 C2569 1.399 . S
C2568 C2573 1.399 . S
C2569 C2568 1.399 . S
C2569 C2570 1.376 . S
C2570 H2557 0.930 . S
C2570 C2569 1.376 . S
C2570 C2571 1.388 . S
C2571 H2558 0.930 . S
C2571 C2570 1.388 . S
C2571 C2572 1.390 . S
C2572 C2571 1.390 . S
C2572 C2573 1.394 . S
C2572 C2578 1.465 . S
C2573 C2568 1.399 . S
C2573 C2572 1.394 . S
C2573 C2574 1.516 . S
C2574 C2573 1.516 . S
C2574 C2575 1.502 . S
C2574 C2576 1.561 . S
C2574 C2577 1.526 . S
C2575 H2559 0.959 . S
C2575 H2560 0.959 . S
C2575 H2561 0.961 . S
C2575 C2574 1.502 . S
C2576 H2562 0.950 1_556 S
C2576 H2563 0.961 . S
C2576 H2564 0.959 . S
C2576 C2574 1.561 . S
C2577 C2574 1.526 . S
C2577 C2578 1.396 . S
C2577 C2582 1.390 . S
C2578 C2572 1.465 . S
C2578 C2577 1.396 . S
C2578 C2579 1.399 . S
C2579 H2565 0.929 . S
C2579 C2578 1.399 . S
C2579 C2580 1.385 . S
C2580 H2566 0.931 . S
C2580 C2579 1.385 . S
C2580 C2581 1.389 . S
C2581 C2580 1.389 . S
C2581 C2582 1.387 . S
C2582 H2567 0.930 . S
C2582 C2577 1.390 . S
C2582 C2581 1.387 . S
H2583 C2595 0.930 . S
H2584 C2597 0.930 . S
H2585 C2598 0.930 . S
H2586 C2602 0.959 . S
H2587 C2602 0.959 . S
H2588 C2602 0.961 . S
H2589 C2603 0.960 . S
H2590 C2603 0.961 . S
H2591 C2603 0.959 . S
H2592 C2606 0.929 . S
H2593 C2607 0.931 . S
H2594 C2609 0.930 . S
C2595 H2583 0.930 . S
C2595 C2596 1.399 . S
C2595 C2600 1.399 . S
C2596 C2595 1.399 . S
C2596 C2597 1.376 . S
C2597 H2584 0.930 . S
C2597 C2596 1.376 . S
C2597 C2598 1.388 . S
C2598 H2585 0.930 . S
C2598 C2597 1.388 . S
C2598 C2599 1.390 . S
C2599 C2598 1.390 . S
C2599 C2600 1.394 . S
C2599 C2605 1.465 . S
C2600 C2595 1.399 . S
C2600 C2599 1.394 . S
C2600 C2601 1.516 . S
C2601 C2600 1.516 . S
C2601 C2602 1.502 . S
C2601 C2603 1.561 . S
C2601 C2604 1.526 . S
C2602 H2586 0.959 . S
C2602 H2587 0.959 . S
C2602 H2588 0.961 . S
C2602 C2601 1.502 . S
C2603 H2589 0.960 . S
C2603 H2590 0.961 . S
C2603 H2591 0.959 . S
C2603 C2601 1.561 . S
C2604 C2601 1.526 . S
C2604 C2605 1.396 . S
C2604 C2609 1.390 . S
C2605 C2599 1.465 . S
C2605 C2604 1.396 . S
C2605 C2606 1.399 . S
C2606 H2592 0.929 . S
C2606 C2605 1.399 . S
C2606 C2607 1.385 . S
C2607 H2593 0.931 . S
C2607 C2606 1.385 . S
C2607 C2608 1.389 . S
C2608 C2607 1.389 . S
C2608 C2609 1.387 . S
C2609 H2594 0.930 . S
C2609 C2604 1.390 . S
C2609 C2608 1.387 . S
H2610 C2622 0.930 . S
H2611 C2624 0.930 . S
H2612 C2625 0.930 . S
H2613 C2629 0.959 . S
H2614 C2629 0.959 . S
H2615 C2629 0.961 . S
H2616 C2630 0.960 1_554 S
H2617 C2630 0.961 . S
H2618 C2630 0.959 . S
H2619 C2633 0.929 . S
H2620 C2634 0.931 . S
H2621 C2636 0.930 . S
C2622 H2610 0.930 . S
C2622 C2623 1.399 . S
C2622 C2627 1.399 . S
C2623 C2622 1.399 . S
C2623 C2624 1.376 . S
C2624 H2611 0.930 . S
C2624 C2623 1.376 . S
C2624 C2625 1.388 . S
C2625 H2612 0.930 . S
C2625 C2624 1.388 . S
C2625 C2626 1.390 . S
C2626 C2625 1.390 . S
C2626 C2627 1.394 . S
C2626 C2632 1.465 . S
C2627 C2622 1.399 . S
C2627 C2626 1.394 . S
C2627 C2628 1.516 . S
C2628 C2627 1.516 . S
C2628 C2629 1.502 . S
C2628 C2630 1.561 . S
C2628 C2631 1.526 . S
C2629 H2613 0.959 . S
C2629 H2614 0.959 . S
C2629 H2615 0.961 . S
C2629 C2628 1.502 . S
C2630 H2616 0.960 1_556 S
C2630 H2617 0.961 . S
C2630 H2618 0.959 . S
C2630 C2628 1.561 . S
C2631 C2628 1.526 . S
C2631 C2632 1.396 . S
C2631 C2636 1.390 . S
C2632 C2626 1.465 . S
C2632 C2631 1.396 . S
C2632 C2633 1.399 . S
C2633 H2619 0.929 . S
C2633 C2632 1.399 . S
C2633 C2634 1.385 . S
C2634 H2620 0.931 . S
C2634 C2633 1.385 . S
C2634 C2635 1.389 . S
C2635 C2634 1.389 . S
C2635 C2636 1.387 . S
C2636 H2621 0.930 . S
C2636 C2631 1.390 . S
C2636 C2635 1.387 . S
H2637 C2649 0.930 . S
H2638 C2651 0.930 1_554 S
H2639 C2652 0.930 1_554 S
H2640 C2656 0.959 . S
H2641 C2656 0.959 . S
H2642 C2656 0.961 . S
H2643 C2657 0.960 . S
H2644 C2657 0.961 . S
H2645 C2657 0.959 . S
H2646 C2660 0.929 . S
H2647 C2661 0.931 . S
H2648 C2663 0.930 . S
C2649 H2637 0.930 . S
C2649 C2650 1.399 . S
C2649 C2654 1.399 . S
C2650 C2649 1.399 . S
C2650 C2651 1.376 . S
C2651 H2638 0.930 1_556 S
C2651 C2650 1.376 . S
C2651 C2652 1.388 . S
C2652 H2639 0.930 1_556 S
C2652 C2651 1.388 . S
C2652 C2653 1.390 . S
C2653 C2652 1.390 . S
C2653 C2654 1.394 . S
C2653 C2659 1.465 . S
C2654 C2649 1.399 . S
C2654 C2653 1.394 . S
C2654 C2655 1.516 . S
C2655 C2654 1.516 . S
C2655 C2656 1.502 . S
C2655 C2657 1.561 . S
C2655 C2658 1.526 . S
C2656 H2640 0.959 . S
C2656 H2641 0.959 . S
C2656 H2642 0.961 . S
C2656 C2655 1.502 . S
C2657 H2643 0.960 . S
C2657 H2644 0.961 . S
C2657 H2645 0.959 . S
C2657 C2655 1.561 . S
C2658 C2655 1.526 . S
C2658 C2659 1.396 . S
C2658 C2663 1.390 . S
C2659 C2653 1.465 . S
C2659 C2658 1.396 . S
C2659 C2660 1.399 . S
C2660 H2646 0.929 . S
C2660 C2659 1.399 . S
C2660 C2661 1.385 . S
C2661 H2647 0.931 . S
C2661 C2660 1.385 . S
C2661 C2662 1.389 . S
C2662 C2661 1.389 . S
C2662 C2663 1.387 . S
C2663 H2648 0.930 . S
C2663 C2658 1.390 . S
C2663 C2662 1.387 . S
H2664 C2676 0.930 . S
H2665 C2678 0.930 1_554 S
H2666 C2679 0.930 . S
H2667 C2683 0.959 . S
H2668 C2683 0.959 . S
H2669 C2683 0.961 . S
H2670 C2684 0.960 . S
H2671 C2684 0.961 . S
H2672 C2684 0.959 . S
H2673 C2687 0.929 . S
H2674 C2688 0.931 . S
H2675 C2690 0.930 . S
C2676 H2664 0.930 . S
C2676 C2677 1.399 . S
C2676 C2681 1.399 . S
C2677 C2676 1.399 . S
C2677 C2678 1.376 . S
C2678 H2665 0.930 1_556 S
C2678 C2677 1.376 . S
C2678 C2679 1.388 . S
C2679 H2666 0.930 . S
C2679 C2678 1.388 . S
C2679 C2680 1.390 . S
C2680 C2679 1.390 . S
C2680 C2681 1.394 . S
C2680 C2686 1.465 . S
C2681 C2676 1.399 . S
C2681 C2680 1.394 . S
C2681 C2682 1.516 . S
C2682 C2681 1.516 . S
C2682 C2683 1.502 . S
C2682 C2684 1.561 . S
C2682 C2685 1.526 . S
C2683 H2667 0.959 . S
C2683 H2668 0.959 . S
C2683 H2669 0.961 . S
C2683 C2682 1.502 . S
C2684 H2670 0.960 . S
C2684 H2671 0.961 . S
C2684 H2672 0.959 . S
C2684 C2682 1.561 . S
C2685 C2682 1.526 . S
C2685 C2686 1.396 . S
C2685 C2690 1.390 . S
C2686 C2680 1.465 . S
C2686 C2685 1.396 . S
C2686 C2687 1.399 . S
C2687 H2673 0.929 . S
C2687 C2686 1.399 . S
C2687 C2688 1.385 . S
C2688 H2674 0.931 . S
C2688 C2687 1.385 . S
C2688 C2689 1.389 . S
C2689 C2688 1.389 . S
C2689 C2690 1.387 . S
C2690 H2675 0.930 . S
C2690 C2685 1.390 . S
C2690 C2689 1.387 . S
H2691 C2703 0.930 . S
H2692 C2705 0.930 . S
H2693 C2706 0.930 . S
H2694 C2710 0.959 . S
H2695 C2710 0.959 . S
H2696 C2710 0.961 . S
H2697 C2711 0.960 . S
H2698 C2711 0.961 . S
H2699 C2711 0.959 . S
H2700 C2714 0.929 . S
H2701 C2715 0.931 . S
H2702 C2717 0.930 . S
C2703 H2691 0.930 . S
C2703 C2704 1.399 . S
C2703 C2708 1.399 . S
C2704 C2703 1.399 . S
C2704 C2705 1.376 . S
C2705 H2692 0.930 . S
C2705 C2704 1.376 . S
C2705 C2706 1.388 . S
C2706 H2693 0.930 . S
C2706 C2705 1.388 . S
C2706 C2707 1.390 . S
C2707 C2706 1.390 . S
C2707 C2708 1.394 . S
C2707 C2713 1.465 . S
C2708 C2703 1.399 . S
C2708 C2707 1.394 . S
C2708 C2709 1.516 . S
C2709 C2708 1.516 . S
C2709 C2710 1.502 . S
C2709 C2711 1.561 . S
C2709 C2712 1.526 . S
C2710 H2694 0.959 . S
C2710 H2695 0.959 . S
C2710 H2696 0.961 . S
C2710 C2709 1.502 . S
C2711 H2697 0.960 . S
C2711 H2698 0.961 . S
C2711 H2699 0.959 . S
C2711 C2709 1.561 . S
C2712 C2709 1.526 . S
C2712 C2713 1.396 . S
C2712 C2717 1.390 . S
C2713 C2707 1.465 . S
C2713 C2712 1.396 . S
C2713 C2714 1.399 . S
C2714 H2700 0.929 . S
C2714 C2713 1.399 . S
C2714 C2715 1.385 . S
C2715 H2701 0.931 . S
C2715 C2714 1.385 . S
C2715 C2716 1.389 . S
C2716 C2715 1.389 . S
C2716 C2717 1.387 . S
C2717 H2702 0.930 . S
C2717 C2712 1.390 . S
C2717 C2716 1.387 . S
H2718 C2730 0.930 . S
H2719 C2732 0.930 . S
H2720 C2733 0.930 . S
H2721 C2737 0.959 . S
H2722 C2737 0.959 . S
H2723 C2737 0.961 . S
H2724 C2738 0.960 . S
H2725 C2738 0.961 . S
H2726 C2738 0.959 . S
H2727 C2741 0.929 . S
H2728 C2742 0.931 . S
H2729 C2744 0.930 . S
C2730 H2718 0.930 . S
C2730 C2731 1.399 . S
C2730 C2735 1.399 . S
C2731 C2730 1.399 . S
C2731 C2732 1.376 . S
C2732 H2719 0.930 . S
C2732 C2731 1.376 . S
C2732 C2733 1.388 . S
C2733 H2720 0.930 . S
C2733 C2732 1.388 . S
C2733 C2734 1.390 . S
C2734 C2733 1.390 . S
C2734 C2735 1.394 . S
C2734 C2740 1.465 . S
C2735 C2730 1.399 . S
C2735 C2734 1.394 . S
C2735 C2736 1.516 . S
C2736 C2735 1.516 . S
C2736 C2737 1.502 . S
C2736 C2738 1.561 . S
C2736 C2739 1.526 . S
C2737 H2721 0.959 . S
C2737 H2722 0.959 . S
C2737 H2723 0.961 . S
C2737 C2736 1.502 . S
C2738 H2724 0.960 . S
C2738 H2725 0.961 . S
C2738 H2726 0.959 . S
C2738 C2736 1.561 . S
C2739 C2736 1.526 . S
C2739 C2740 1.396 . S
C2739 C2744 1.390 . S
C2740 C2734 1.465 . S
C2740 C2739 1.396 . S
C2740 C2741 1.399 . S
C2741 H2727 0.929 . S
C2741 C2740 1.399 . S
C2741 C2742 1.385 . S
C2742 H2728 0.931 . S
C2742 C2741 1.385 . S
C2742 C2743 1.389 . S
C2743 C2742 1.389 . S
C2743 C2744 1.387 . S
C2744 H2729 0.930 . S
C2744 C2739 1.390 . S
C2744 C2743 1.387 . S
H2745 C2757 0.930 . S
H2746 C2759 0.930 . S
H2747 C2760 0.930 . S
H2748 C2764 0.959 . S
H2749 C2764 0.959 . S
H2750 C2764 0.961 . S
H2751 C2765 0.960 . S
H2752 C2765 0.961 . S
H2753 C2765 0.959 . S
H2754 C2768 0.929 . S
H2755 C2769 0.931 . S
H2756 C2771 0.930 . S
C2757 H2745 0.930 . S
C2757 C2758 1.399 . S
C2757 C2762 1.399 . S
C2758 C2757 1.399 . S
C2758 C2759 1.376 . S
C2759 H2746 0.930 . S
C2759 C2758 1.376 . S
C2759 C2760 1.388 . S
C2760 H2747 0.930 . S
C2760 C2759 1.388 . S
C2760 C2761 1.390 . S
C2761 C2760 1.390 . S
C2761 C2762 1.394 . S
C2761 C2767 1.465 . S
C2762 C2757 1.399 . S
C2762 C2761 1.394 . S
C2762 C2763 1.516 . S
C2763 C2762 1.516 . S
C2763 C2764 1.502 . S
C2763 C2765 1.561 . S
C2763 C2766 1.526 . S
C2764 H2748 0.959 . S
C2764 H2749 0.959 . S
C2764 H2750 0.961 . S
C2764 C2763 1.502 . S
C2765 H2751 0.960 . S
C2765 H2752 0.961 . S
C2765 H2753 0.959 . S
C2765 C2763 1.561 . S
C2766 C2763 1.526 . S
C2766 C2767 1.396 . S
C2766 C2771 1.390 . S
C2767 C2761 1.465 . S
C2767 C2766 1.396 . S
C2767 C2768 1.399 . S
C2768 H2754 0.929 . S
C2768 C2767 1.399 . S
C2768 C2769 1.385 . S
C2769 H2755 0.931 . S
C2769 C2768 1.385 . S
C2769 C2770 1.389 . S
C2770 C2769 1.389 . S
C2770 C2771 1.387 . S
C2771 H2756 0.930 . S
C2771 C2766 1.390 . S
C2771 C2770 1.387 . S
H2772 C2784 0.930 . S
H2773 C2786 0.930 . S
H2774 C2787 0.930 . S
H2775 C2791 0.959 . S
H2776 C2791 0.959 . S
H2777 C2791 0.961 . S
H2778 C2792 0.960 . S
H2779 C2792 0.961 . S
H2780 C2792 0.959 . S
H2781 C2795 0.929 . S
H2782 C2796 0.931 . S
H2783 C2798 0.930 . S
C2784 H2772 0.930 . S
C2784 C2785 1.399 . S
C2784 C2789 1.399 . S
C2785 C2784 1.399 . S
C2785 C2786 1.376 . S
C2786 H2773 0.930 . S
C2786 C2785 1.376 . S
C2786 C2787 1.388 . S
C2787 H2774 0.930 . S
C2787 C2786 1.388 . S
C2787 C2788 1.390 . S
C2788 C2787 1.390 . S
C2788 C2789 1.394 . S
C2788 C2794 1.465 . S
C2789 C2784 1.399 . S
C2789 C2788 1.394 . S
C2789 C2790 1.516 . S
C2790 C2789 1.516 . S
C2790 C2791 1.502 . S
C2790 C2792 1.561 . S
C2790 C2793 1.526 . S
C2791 H2775 0.959 . S
C2791 H2776 0.959 . S
C2791 H2777 0.961 . S
C2791 C2790 1.502 . S
C2792 H2778 0.960 . S
C2792 H2779 0.961 . S
C2792 H2780 0.959 . S
C2792 C2790 1.561 . S
C2793 C2790 1.526 . S
C2793 C2794 1.396 . S
C2793 C2798 1.390 . S
C2794 C2788 1.465 . S
C2794 C2793 1.396 . S
C2794 C2795 1.399 . S
C2795 H2781 0.929 . S
C2795 C2794 1.399 . S
C2795 C2796 1.385 . S
C2796 H2782 0.931 . S
C2796 C2795 1.385 . S
C2796 C2797 1.389 . S
C2797 C2796 1.389 . S
C2797 C2798 1.387 . S
C2798 H2783 0.930 . S
C2798 C2793 1.390 . S
C2798 C2797 1.387 . S
H2799 C2811 0.930 . S
H2800 C2813 0.930 . S
H2801 C2814 0.930 . S
H2802 C2818 0.959 . S
H2803 C2818 0.959 . S
H2804 C2818 0.961 . S
H2805 C2819 0.960 . S
H2806 C2819 0.961 . S
H2807 C2819 0.959 . S
H2808 C2822 0.929 . S
H2809 C2823 0.931 . S
H2810 C2825 0.930 . S
C2811 H2799 0.930 . S
C2811 C2812 1.399 . S
C2811 C2816 1.399 . S
C2812 C2811 1.399 . S
C2812 C2813 1.376 . S
C2813 H2800 0.930 . S
C2813 C2812 1.376 . S
C2813 C2814 1.388 . S
C2814 H2801 0.930 . S
C2814 C2813 1.388 . S
C2814 C2815 1.390 . S
C2815 C2814 1.390 . S
C2815 C2816 1.394 . S
C2815 C2821 1.465 . S
C2816 C2811 1.399 . S
C2816 C2815 1.394 . S
C2816 C2817 1.516 . S
C2817 C2816 1.516 . S
C2817 C2818 1.502 . S
C2817 C2819 1.561 . S
C2817 C2820 1.526 . S
C2818 H2802 0.959 . S
C2818 H2803 0.959 . S
C2818 H2804 0.961 . S
C2818 C2817 1.502 . S
C2819 H2805 0.960 . S
C2819 H2806 0.961 . S
C2819 H2807 0.959 . S
C2819 C2817 1.561 . S
C2820 C2817 1.526 . S
C2820 C2821 1.396 . S
C2820 C2825 1.390 . S
C2821 C2815 1.465 . S
C2821 C2820 1.396 . S
C2821 C2822 1.399 . S
C2822 H2808 0.929 . S
C2822 C2821 1.399 . S
C2822 C2823 1.385 . S
C2823 H2809 0.931 . S
C2823 C2822 1.385 . S
C2823 C2824 1.389 . S
C2824 C2823 1.389 . S
C2824 C2825 1.387 . S
C2825 H2810 0.930 . S
C2825 C2820 1.390 . S
C2825 C2824 1.387 . S
H2826 C2838 0.930 . S
H2827 C2840 0.930 . S
H2828 C2841 0.930 . S
H2829 C2845 0.959 . S
H2830 C2845 0.959 . S
H2831 C2845 0.961 . S
H2832 C2846 0.960 . S
H2833 C2846 0.961 . S
H2834 C2846 0.959 . S
H2835 C2849 0.929 . S
H2836 C2850 0.931 . S
H2837 C2852 0.930 . S
C2838 H2826 0.930 . S
C2838 C2839 1.399 . S
C2838 C2843 1.399 . S
C2839 C2838 1.399 . S
C2839 C2840 1.376 . S
C2840 H2827 0.930 . S
C2840 C2839 1.376 . S
C2840 C2841 1.388 . S
C2841 H2828 0.930 . S
C2841 C2840 1.388 . S
C2841 C2842 1.390 . S
C2842 C2841 1.390 . S
C2842 C2843 1.394 . S
C2842 C2848 1.465 . S
C2843 C2838 1.399 . S
C2843 C2842 1.394 . S
C2843 C2844 1.516 . S
C2844 C2843 1.516 . S
C2844 C2845 1.502 . S
C2844 C2846 1.561 . S
C2844 C2847 1.526 . S
C2845 H2829 0.959 . S
C2845 H2830 0.959 . S
C2845 H2831 0.961 . S
C2845 C2844 1.502 . S
C2846 H2832 0.960 . S
C2846 H2833 0.961 . S
C2846 H2834 0.959 . S
C2846 C2844 1.561 . S
C2847 C2844 1.526 . S
C2847 C2848 1.396 . S
C2847 C2852 1.390 . S
C2848 C2842 1.465 . S
C2848 C2847 1.396 . S
C2848 C2849 1.399 . S
C2849 H2835 0.929 . S
C2849 C2848 1.399 . S
C2849 C2850 1.385 . S
C2850 H2836 0.931 . S
C2850 C2849 1.385 . S
C2850 C2851 1.389 . S
C2851 C2850 1.389 . S
C2851 C2852 1.387 . S
C2852 H2837 0.930 . S
C2852 C2847 1.390 . S
C2852 C2851 1.387 . S
H2853 C2865 0.929 1_655 S
H2854 C2867 0.930 . S
H2855 C2868 0.930 . S
H2856 C2872 0.959 1_455 S
H2857 C2872 0.959 . S
H2858 C2872 0.961 . S
H2859 C2873 0.960 . S
H2860 C2873 0.961 . S
H2861 C2873 0.959 . S
H2862 C2876 0.929 . S
H2863 C2877 0.931 . S
H2864 C2879 0.930 . S
C2865 H2853 0.929 1_455 S
C2865 C2866 1.410 . S
C2865 C2870 1.411 . S
C2866 C2865 1.410 . S
C2866 C2867 1.376 . S
C2867 H2854 0.930 . S
C2867 C2866 1.376 . S
C2867 C2868 1.388 . S
C2868 H2855 0.930 . S
C2868 C2867 1.388 . S
C2868 C2869 1.390 . S
C2869 C2868 1.390 . S
C2869 C2870 1.398 . S
C2869 C2875 1.465 . S
C2870 C2865 1.411 . S
C2870 C2869 1.398 . S
C2870 C2871 1.489 1_455 S
C2871 C2870 1.489 1_655 S
C2871 C2872 1.502 . S
C2871 C2873 1.561 . S
C2871 C2874 1.515 . S
C2872 H2856 0.959 1_655 S
C2872 H2857 0.959 . S
C2872 H2858 0.961 . S
C2872 C2871 1.502 . S
C2873 H2859 0.960 . S
C2873 H2860 0.961 . S
C2873 H2861 0.959 . S
C2873 C2871 1.561 . S
C2874 C2871 1.515 . S
C2874 C2875 1.371 1_655 S
C2874 C2879 1.425 . S
C2875 C2869 1.465 . S
C2875 C2874 1.371 1_455 S
C2875 C2876 1.399 . S
C2876 H2862 0.929 . S
C2876 C2875 1.399 . S
C2876 C2877 1.385 . S
C2877 H2863 0.931 . S
C2877 C2876 1.385 . S
C2877 C2878 1.389 . S
C2878 C2877 1.389 . S
C2878 C2879 1.387 1_455 S
C2879 H2864 0.930 . S
C2879 C2874 1.425 . S
C2879 C2878 1.387 1_655 S
H2880 C2892 0.930 . S
H2881 C2894 0.930 . S
H2882 C2895 0.930 . S
H2883 C2899 0.959 . S
H2884 C2899 0.959 . S
H2885 C2899 0.961 . S
H2886 C2900 0.960 . S
H2887 C2900 0.961 . S
H2888 C2900 0.959 . S
H2889 C2903 0.929 . S
H2890 C2904 0.931 . S
H2891 C2906 0.930 . S
C2892 H2880 0.930 . S
C2892 C2893 1.399 . S
C2892 C2897 1.399 . S
C2893 C2892 1.399 . S
C2893 C2894 1.376 . S
C2894 H2881 0.930 . S
C2894 C2893 1.376 . S
C2894 C2895 1.388 . S
C2895 H2882 0.930 . S
C2895 C2894 1.388 . S
C2895 C2896 1.390 . S
C2896 C2895 1.390 . S
C2896 C2897 1.394 . S
C2896 C2902 1.465 . S
C2897 C2892 1.399 . S
C2897 C2896 1.394 . S
C2897 C2898 1.516 . S
C2898 C2897 1.516 . S
C2898 C2899 1.502 . S
C2898 C2900 1.561 . S
C2898 C2901 1.526 . S
C2899 H2883 0.959 . S
C2899 H2884 0.959 . S
C2899 H2885 0.961 . S
C2899 C2898 1.502 . S
C2900 H2886 0.960 . S
C2900 H2887 0.961 . S
C2900 H2888 0.959 . S
C2900 C2898 1.561 . S
C2901 C2898 1.526 . S
C2901 C2902 1.396 . S
C2901 C2906 1.390 . S
C2902 C2896 1.465 . S
C2902 C2901 1.396 . S
C2902 C2903 1.399 . S
C2903 H2889 0.929 . S
C2903 C2902 1.399 . S
C2903 C2904 1.385 . S
C2904 H2890 0.931 . S
C2904 C2903 1.385 . S
C2904 C2905 1.389 . S
C2905 C2904 1.389 . S
C2905 C2906 1.387 . S
C2906 H2891 0.930 . S
C2906 C2901 1.390 . S
C2906 C2905 1.387 . S
H2907 C2919 0.930 . S
H2908 C2921 0.930 . S
H2909 C2922 0.930 . S
H2910 C2926 0.959 . S
H2911 C2926 0.959 . S
H2912 C2926 0.961 . S
H2913 C2927 0.960 . S
H2914 C2927 0.961 . S
H2915 C2927 0.959 . S
H2916 C2930 0.929 . S
H2917 C2931 0.931 . S
H2918 C2933 0.930 . S
C2919 H2907 0.930 . S
C2919 C2920 1.399 1_545 S
C2919 C2924 1.399 . S
C2920 C2919 1.399 1_565 S
C2920 C2921 1.376 . S
C2921 H2908 0.930 . S
C2921 C2920 1.376 . S
C2921 C2922 1.388 . S
C2922 H2909 0.930 . S
C2922 C2921 1.388 . S
C2922 C2923 1.390 . S
C2923 C2922 1.390 . S
C2923 C2924 1.394 1_565 S
C2923 C2929 1.465 . S
C2924 C2919 1.399 . S
C2924 C2923 1.394 1_545 S
C2924 C2925 1.516 . S
C2925 C2924 1.516 . S
C2925 C2926 1.502 . S
C2925 C2927 1.561 . S
C2925 C2928 1.526 . S
C2926 H2910 0.959 . S
C2926 H2911 0.959 . S
C2926 H2912 0.961 . S
C2926 C2925 1.502 . S
C2927 H2913 0.960 . S
C2927 H2914 0.961 . S
C2927 H2915 0.959 . S
C2927 C2925 1.561 . S
C2928 C2925 1.526 . S
C2928 C2929 1.396 1_545 S
C2928 C2933 1.390 . S
C2929 C2923 1.465 . S
C2929 C2928 1.396 1_565 S
C2929 C2930 1.399 . S
C2930 H2916 0.929 . S
C2930 C2929 1.399 . S
C2930 C2931 1.385 . S
C2931 H2917 0.931 . S
C2931 C2930 1.385 . S
C2931 C2932 1.389 . S
C2932 C2931 1.389 . S
C2932 C2933 1.387 1_565 S
C2933 H2918 0.930 . S
C2933 C2928 1.390 . S
C2933 C2932 1.387 1_545 S
H2934 C2946 0.930 . S
H2935 C2948 0.930 . S
H2936 C2949 0.930 . S
H2937 C2953 0.959 . S
H2938 C2953 0.959 . S
H2939 C2953 0.961 . S
H2940 C2954 0.960 . S
H2941 C2954 0.961 . S
H2942 C2954 0.959 . S
H2943 C2957 0.929 . S
H2944 C2958 0.931 . S
H2945 C2960 0.930 . S
C2946 H2934 0.930 . S
C2946 C2947 1.399 . S
C2946 C2951 1.399 . S
C2947 C2946 1.399 . S
C2947 C2948 1.376 1_565 S
C2948 H2935 0.930 . S
C2948 C2947 1.376 1_545 S
C2948 C2949 1.388 . S
C2949 H2936 0.930 . S
C2949 C2948 1.388 . S
C2949 C2950 1.393 . S
C2950 C2949 1.393 . S
C2950 C2951 1.385 1_545 S
C2950 C2956 1.470 . S
C2951 C2946 1.399 . S
C2951 C2950 1.385 1_565 S
C2951 C2952 1.516 . S
C2952 C2951 1.516 . S
C2952 C2953 1.502 . S
C2952 C2954 1.561 . S
C2952 C2955 1.526 . S
C2953 H2937 0.959 . S
C2953 H2938 0.959 . S
C2953 H2939 0.961 . S
C2953 C2952 1.502 . S
C2954 H2940 0.960 . S
C2954 H2941 0.961 . S
C2954 H2942 0.959 . S
C2954 C2952 1.561 . S
C2955 C2952 1.526 . S
C2955 C2956 1.396 1_565 S
C2955 C2960 1.390 . S
C2956 C2950 1.470 . S
C2956 C2955 1.396 1_545 S
C2956 C2957 1.399 . S
C2957 H2943 0.929 . S
C2957 C2956 1.399 . S
C2957 C2958 1.385 . S
C2958 H2944 0.931 . S
C2958 C2957 1.385 . S
C2958 C2959 1.389 1_545 S
C2959 C2958 1.389 1_565 S
C2959 C2960 1.387 . S
C2960 H2945 0.930 . S
C2960 C2955 1.390 . S
C2960 C2959 1.387 . S
H2961 C2973 0.930 . S
H2962 C2975 0.925 1_655 S
H2963 C2976 0.930 . S
H2964 C2980 0.959 . S
H2965 C2980 0.959 . S
H2966 C2980 0.961 . S
H2967 C2981 0.960 . S
H2968 C2981 0.961 . S
H2969 C2981 0.959 1_655 S
H2970 C2984 0.929 . S
H2971 C2985 0.931 . S
H2972 C2987 0.930 . S
C2973 H2961 0.930 . S
C2973 C2974 1.399 . S
C2973 C2978 1.399 . S
C2974 C2973 1.399 . S
C2974 C2975 1.381 . S
C2975 H2962 0.925 1_455 S
C2975 C2974 1.381 . S
C2975 C2976 1.390 1_455 S
C2976 H2963 0.930 . S
C2976 C2975 1.390 1_655 S
C2976 C2977 1.390 1_655 S
C2977 C2976 1.390 1_455 S
C2977 C2978 1.394 . S
C2977 C2983 1.445 . S
C2978 C2973 1.399 . S
C2978 C2977 1.394 . S
C2978 C2979 1.516 . S
C2979 C2978 1.516 . S
C2979 C2980 1.502 . S
C2979 C2981 1.561 . S
C2979 C2982 1.526 . S
C2980 H2964 0.959 . S
C2980 H2965 0.959 . S
C2980 H2966 0.961 . S
C2980 C2979 1.502 . S
C2981 H2967 0.960 . S
C2981 H2968 0.961 . S
C2981 H2969 0.959 1_455 S
C2981 C2979 1.561 . S
C2982 C2979 1.526 . S
C2982 C2983 1.438 . S
C2982 C2987 1.390 . S
C2983 C2977 1.445 . S
C2983 C2982 1.438 . S
C2983 C2984 1.386 1_455 S
C2984 H2970 0.929 . S
C2984 C2983 1.386 1_655 S
C2984 C2985 1.385 . S
C2985 H2971 0.931 . S
C2985 C2984 1.385 . S
C2985 C2986 1.389 1_655 S
C2986 C2985 1.389 1_455 S
C2986 C2987 1.387 . S
C2987 H2972 0.930 . S
C2987 C2982 1.390 . S
C2987 C2986 1.387 . S
H2988 C3000 0.930 . S
H2989 C3002 0.930 . S
H2990 C3003 0.930 . S
H2991 C3007 0.959 . S
H2992 C3007 0.959 . S
H2993 C3007 0.961 . S
H2994 C3008 0.960 . S
H2995 C3008 0.961 . S
H2996 C3008 0.959 . S
H2997 C3011 0.929 . S
H2998 C3012 0.931 . S
H2999 C3014 0.930 . S
C3000 H2988 0.930 . S
C3000 C3001 1.399 . S
C3000 C3005 1.399 . S
C3001 C3000 1.399 . S
C3001 C3002 1.376 . S
C3002 H2989 0.930 . S
C3002 C3001 1.376 . S
C3002 C3003 1.388 . S
C3003 H2990 0.930 . S
C3003 C3002 1.388 . S
C3003 C3004 1.390 . S
C3004 C3003 1.390 . S
C3004 C3005 1.394 . S
C3004 C3010 1.465 . S
C3005 C3000 1.399 . S
C3005 C3004 1.394 . S
C3005 C3006 1.516 . S
C3006 C3005 1.516 . S
C3006 C3007 1.502 . S
C3006 C3008 1.561 . S
C3006 C3009 1.526 . S
C3007 H2991 0.959 . S
C3007 H2992 0.959 . S
C3007 H2993 0.961 . S
C3007 C3006 1.502 . S
C3008 H2994 0.960 . S
C3008 H2995 0.961 . S
C3008 H2996 0.959 . S
C3008 C3006 1.561 . S
C3009 C3006 1.526 . S
C3009 C3010 1.396 . S
C3009 C3014 1.390 . S
C3010 C3004 1.465 . S
C3010 C3009 1.396 . S
C3010 C3011 1.399 . S
C3011 H2997 0.929 . S
C3011 C3010 1.399 . S
C3011 C3012 1.385 . S
C3012 H2998 0.931 . S
C3012 C3011 1.385 . S
C3012 C3013 1.389 . S
C3013 C3012 1.389 . S
C3013 C3014 1.387 . S
C3014 H2999 0.930 . S
C3014 C3009 1.390 . S
C3014 C3013 1.387 . S
H3015 C3027 0.930 . S
H3016 C3029 0.930 . S
H3017 C3030 0.930 . S
H3018 C3034 0.959 . S
H3019 C3034 0.959 . S
H3020 C3034 0.961 . S
H3021 C3035 0.960 . S
H3022 C3035 0.961 . S
H3023 C3035 0.959 . S
H3024 C3038 0.929 . S
H3025 C3039 0.931 . S
H3026 C3041 0.930 . S
C3027 H3015 0.930 . S
C3027 C3028 1.399 . S
C3027 C3032 1.399 . S
C3028 C3027 1.399 . S
C3028 C3029 1.376 . S
C3029 H3016 0.930 . S
C3029 C3028 1.376 . S
C3029 C3030 1.388 . S
C3030 H3017 0.930 . S
C3030 C3029 1.388 . S
C3030 C3031 1.390 . S
C3031 C3030 1.390 . S
C3031 C3032 1.394 . S
C3031 C3037 1.465 . S
C3032 C3027 1.399 . S
C3032 C3031 1.394 . S
C3032 C3033 1.516 . S
C3033 C3032 1.516 . S
C3033 C3034 1.502 . S
C3033 C3035 1.561 . S
C3033 C3036 1.526 . S
C3034 H3018 0.959 . S
C3034 H3019 0.959 . S
C3034 H3020 0.961 . S
C3034 C3033 1.502 . S
C3035 H3021 0.960 . S
C3035 H3022 0.961 . S
C3035 H3023 0.959 . S
C3035 C3033 1.561 . S
C3036 C3033 1.526 . S
C3036 C3037 1.396 . S
C3036 C3041 1.390 . S
C3037 C3031 1.465 . S
C3037 C3036 1.396 . S
C3037 C3038 1.399 . S
C3038 H3024 0.929 . S
C3038 C3037 1.399 . S
C3038 C3039 1.385 . S
C3039 H3025 0.931 . S
C3039 C3038 1.385 . S
C3039 C3040 1.389 . S
C3040 C3039 1.389 . S
C3040 C3041 1.387 . S
C3041 H3026 0.930 . S
C3041 C3036 1.390 . S
C3041 C3040 1.387 . S
H3042 C3054 0.930 . S
H3043 C3056 0.930 . S
H3044 C3057 0.930 . S
H3045 C3061 0.959 . S
H3046 C3061 0.959 . S
H3047 C3061 0.961 . S
H3048 C3062 0.960 . S
H3049 C3062 0.961 . S
H3050 C3062 0.959 . S
H3051 C3065 0.929 . S
H3052 C3066 0.931 . S
H3053 C3068 0.930 . S
C3054 H3042 0.930 . S
C3054 C3055 1.399 . S
C3054 C3059 1.399 . S
C3055 C3054 1.399 . S
C3055 C3056 1.376 . S
C3056 H3043 0.930 . S
C3056 C3055 1.376 . S
C3056 C3057 1.388 . S
C3057 H3044 0.930 . S
C3057 C3056 1.388 . S
C3057 C3058 1.390 . S
C3058 C3057 1.390 . S
C3058 C3059 1.394 . S
C3058 C3064 1.465 . S
C3059 C3054 1.399 . S
C3059 C3058 1.394 . S
C3059 C3060 1.516 . S
C3060 C3059 1.516 . S
C3060 C3061 1.502 . S
C3060 C3062 1.561 . S
C3060 C3063 1.526 . S
C3061 H3045 0.959 . S
C3061 H3046 0.959 . S
C3061 H3047 0.961 . S
C3061 C3060 1.502 . S
C3062 H3048 0.960 . S
C3062 H3049 0.961 . S
C3062 H3050 0.959 . S
C3062 C3060 1.561 . S
C3063 C3060 1.526 . S
C3063 C3064 1.396 . S
C3063 C3068 1.390 . S
C3064 C3058 1.465 . S
C3064 C3063 1.396 . S
C3064 C3065 1.399 . S
C3065 H3051 0.929 . S
C3065 C3064 1.399 . S
C3065 C3066 1.385 . S
C3066 H3052 0.931 . S
C3066 C3065 1.385 . S
C3066 C3067 1.389 . S
C3067 C3066 1.389 . S
C3067 C3068 1.387 . S
C3068 H3053 0.930 . S
C3068 C3063 1.390 . S
C3068 C3067 1.387 . S
H3069 C3081 0.930 . S
H3070 C3083 0.930 . S
H3071 C3084 0.930 . S
H3072 C3088 0.959 . S
H3073 C3088 0.959 . S
H3074 C3088 0.961 . S
H3075 C3089 0.960 . S
H3076 C3089 0.961 . S
H3077 C3089 0.959 . S
H3078 C3092 0.929 . S
H3079 C3093 0.931 . S
H3080 C3095 0.930 . S
C3081 H3069 0.930 . S
C3081 C3082 1.399 . S
C3081 C3086 1.399 . S
C3082 C3081 1.399 . S
C3082 C3083 1.376 . S
C3083 H3070 0.930 . S
C3083 C3082 1.376 . S
C3083 C3084 1.388 . S
C3084 H3071 0.930 . S
C3084 C3083 1.388 . S
C3084 C3085 1.390 . S
C3085 C3084 1.390 . S
C3085 C3086 1.394 . S
C3085 C3091 1.465 . S
C3086 C3081 1.399 . S
C3086 C3085 1.394 . S
C3086 C3087 1.516 . S
C3087 C3086 1.516 . S
C3087 C3088 1.502 . S
C3087 C3089 1.561 . S
C3087 C3090 1.526 . S
C3088 H3072 0.959 . S
C3088 H3073 0.959 . S
C3088 H3074 0.961 . S
C3088 C3087 1.502 . S
C3089 H3075 0.960 . S
C3089 H3076 0.961 . S
C3089 H3077 0.959 . S
C3089 C3087 1.561 . S
C3090 C3087 1.526 . S
C3090 C3091 1.396 . S
C3090 C3095 1.390 . S
C3091 C3085 1.465 . S
C3091 C3090 1.396 . S
C3091 C3092 1.399 . S
C3092 H3078 0.929 . S
C3092 C3091 1.399 . S
C3092 C3093 1.385 . S
C3093 H3079 0.931 . S
C3093 C3092 1.385 . S
C3093 C3094 1.389 . S
C3094 C3093 1.389 . S
C3094 C3095 1.387 . S
C3095 H3080 0.930 . S
C3095 C3090 1.390 . S
C3095 C3094 1.387 . S
H3096 C3108 0.930 . S
H3097 C3110 0.930 . S
H3098 C3111 0.930 . S
H3099 C3115 0.959 . S
H3100 C3115 0.959 . S
H3101 C3115 0.961 . S
H3102 C3116 0.960 . S
H3103 C3116 0.961 . S
H3104 C3116 0.959 . S
H3105 C3119 0.929 . S
H3106 C3120 0.931 . S
H3107 C3122 0.930 . S
C3108 H3096 0.930 . S
C3108 C3109 1.399 . S
C3108 C3113 1.399 . S
C3109 C3108 1.399 . S
C3109 C3110 1.376 1_545 S
C3110 H3097 0.930 . S
C3110 C3109 1.376 1_565 S
C3110 C3111 1.388 . S
C3111 H3098 0.930 . S
C3111 C3110 1.388 . S
C3111 C3112 1.388 . S
C3112 C3111 1.388 . S
C3112 C3113 1.400 1_565 S
C3112 C3118 1.462 . S
C3113 C3108 1.399 . S
C3113 C3112 1.400 1_545 S
C3113 C3114 1.516 . S
C3114 C3113 1.516 . S
C3114 C3115 1.502 . S
C3114 C3116 1.561 . S
C3114 C3117 1.526 . S
C3115 H3099 0.959 . S
C3115 H3100 0.959 . S
C3115 H3101 0.961 . S
C3115 C3114 1.502 . S
C3116 H3102 0.960 . S
C3116 H3103 0.961 . S
C3116 H3104 0.959 . S
C3116 C3114 1.561 . S
C3117 C3114 1.526 . S
C3117 C3118 1.396 1_545 S
C3117 C3122 1.390 . S
C3118 C3112 1.462 . S
C3118 C3117 1.396 1_565 S
C3118 C3119 1.399 . S
C3119 H3105 0.929 . S
C3119 C3118 1.399 . S
C3119 C3120 1.385 . S
C3120 H3106 0.931 . S
C3120 C3119 1.385 . S
C3120 C3121 1.389 1_565 S
C3121 C3120 1.389 1_545 S
C3121 C3122 1.387 . S
C3122 H3107 0.930 . S
C3122 C3117 1.390 . S
C3122 C3121 1.387 . S
H3123 C3135 0.930 . S
H3124 C3137 0.930 . S
H3125 C3138 0.930 . S
H3126 C3142 0.959 . S
H3127 C3142 0.959 . S
H3128 C3142 0.961 . S
H3129 C3143 0.960 . S
H3130 C3143 0.961 . S
H3131 C3143 0.959 1_455 S
H3132 C3146 0.929 . S
H3133 C3147 0.931 . S
H3134 C3149 0.930 . S
C3135 H3123 0.930 . S
C3135 C3136 1.399 . S
C3135 C3140 1.399 . S
C3136 C3135 1.399 . S
C3136 C3137 1.376 1_655 S
C3137 H3124 0.930 . S
C3137 C3136 1.376 1_455 S
C3137 C3138 1.388 . S
C3138 H3125 0.930 . S
C3138 C3137 1.388 . S
C3138 C3139 1.390 1_455 S
C3139 C3138 1.390 1_655 S
C3139 C3140 1.394 . S
C3139 C3145 1.458 . S
C3140 C3135 1.399 . S
C3140 C3139 1.394 . S
C3140 C3141 1.516 . S
C3141 C3140 1.516 . S
C3141 C3142 1.502 . S
C3141 C3143 1.561 . S
C3141 C3144 1.526 . S
C3142 H3126 0.959 . S
C3142 H3127 0.959 . S
C3142 H3128 0.961 . S
C3142 C3141 1.502 . S
C3143 H3129 0.960 . S
C3143 H3130 0.961 . S
C3143 H3131 0.959 1_655 S
C3143 C3141 1.561 . S
C3144 C3141 1.526 . S
C3144 C3145 1.404 . S
C3144 C3149 1.390 . S
C3145 C3139 1.458 . S
C3145 C3144 1.404 . S
C3145 C3146 1.399 1_655 S
C3146 H3132 0.929 . S
C3146 C3145 1.399 1_455 S
C3146 C3147 1.385 . S
C3147 H3133 0.931 . S
C3147 C3146 1.385 . S
C3147 C3148 1.389 1_455 S
C3148 C3147 1.389 1_655 S
C3148 C3149 1.387 . S
C3149 H3134 0.930 . S
C3149 C3144 1.390 . S
C3149 C3148 1.387 . S
H3150 C3162 0.930 . S
H3151 C3164 0.930 . S
H3152 C3165 0.930 . S
H3153 C3169 0.959 . S
H3154 C3169 0.959 . S
H3155 C3169 0.961 . S
H3156 C3170 0.960 . S
H3157 C3170 0.961 . S
H3158 C3170 0.959 . S
H3159 C3173 0.929 . S
H3160 C3174 0.931 . S
H3161 C3176 0.930 . S
C3162 H3150 0.930 . S
C3162 C3163 1.399 . S
C3162 C3167 1.399 . S
C3163 C3162 1.399 . S
C3163 C3164 1.376 . S
C3164 H3151 0.930 . S
C3164 C3163 1.376 . S
C3164 C3165 1.388 . S
C3165 H3152 0.930 . S
C3165 C3164 1.388 . S
C3165 C3166 1.390 . S
C3166 C3165 1.390 . S
C3166 C3167 1.394 . S
C3166 C3172 1.465 . S
C3167 C3162 1.399 . S
C3167 C3166 1.394 . S
C3167 C3168 1.516 . S
C3168 C3167 1.516 . S
C3168 C3169 1.502 . S
C3168 C3170 1.561 . S
C3168 C3171 1.526 . S
C3169 H3153 0.959 . S
C3169 H3154 0.959 . S
C3169 H3155 0.961 . S
C3169 C3168 1.502 . S
C3170 H3156 0.960 . S
C3170 H3157 0.961 . S
C3170 H3158 0.959 . S
C3170 C3168 1.561 . S
C3171 C3168 1.526 . S
C3171 C3172 1.396 . S
C3171 C3176 1.390 . S
C3172 C3166 1.465 . S
C3172 C3171 1.396 . S
C3172 C3173 1.399 . S
C3173 H3159 0.929 . S
C3173 C3172 1.399 . S
C3173 C3174 1.385 . S
C3174 H3160 0.931 . S
C3174 C3173 1.385 . S
C3174 C3175 1.389 . S
C3175 C3174 1.389 . S
C3175 C3176 1.387 . S
C3176 H3161 0.930 . S
C3176 C3171 1.390 . S
C3176 C3175 1.387 . S
H3177 C3189 0.930 . S
H3178 C3191 0.930 . S
H3179 C3192 0.930 . S
H3180 C3196 0.959 . S
H3181 C3196 0.959 . S
H3182 C3196 0.961 . S
H3183 C3197 0.960 . S
H3184 C3197 0.961 . S
H3185 C3197 0.959 . S
H3186 C3200 0.929 . S
H3187 C3201 0.931 . S
H3188 C3203 0.930 . S
C3189 H3177 0.930 . S
C3189 C3190 1.399 . S
C3189 C3194 1.399 . S
C3190 C3189 1.399 . S
C3190 C3191 1.376 . S
C3191 H3178 0.930 . S
C3191 C3190 1.376 . S
C3191 C3192 1.388 . S
C3192 H3179 0.930 . S
C3192 C3191 1.388 . S
C3192 C3193 1.390 . S
C3193 C3192 1.390 . S
C3193 C3194 1.394 . S
C3193 C3199 1.465 . S
C3194 C3189 1.399 . S
C3194 C3193 1.394 . S
C3194 C3195 1.516 . S
C3195 C3194 1.516 . S
C3195 C3196 1.502 . S
C3195 C3197 1.561 . S
C3195 C3198 1.526 . S
C3196 H3180 0.959 . S
C3196 H3181 0.959 . S
C3196 H3182 0.961 . S
C3196 C3195 1.502 . S
C3197 H3183 0.960 . S
C3197 H3184 0.961 . S
C3197 H3185 0.959 . S
C3197 C3195 1.561 . S
C3198 C3195 1.526 . S
C3198 C3199 1.396 . S
C3198 C3203 1.390 . S
C3199 C3193 1.465 . S
C3199 C3198 1.396 . S
C3199 C3200 1.399 . S
C3200 H3186 0.929 . S
C3200 C3199 1.399 . S
C3200 C3201 1.385 . S
C3201 H3187 0.931 . S
C3201 C3200 1.385 . S
C3201 C3202 1.389 . S
C3202 C3201 1.389 . S
C3202 C3203 1.387 . S
C3203 H3188 0.930 . S
C3203 C3198 1.390 . S
C3203 C3202 1.387 . S
H3204 C3216 0.930 . S
H3205 C3218 0.930 . S
H3206 C3219 0.930 . S
H3207 C3223 0.959 . S
H3208 C3223 0.959 . S
H3209 C3223 0.961 . S
H3210 C3224 0.960 . S
H3211 C3224 0.961 . S
H3212 C3224 0.959 . S
H3213 C3227 0.929 . S
H3214 C3228 0.931 . S
H3215 C3230 0.930 . S
C3216 H3204 0.930 . S
C3216 C3217 1.399 . S
C3216 C3221 1.399 . S
C3217 C3216 1.399 . S
C3217 C3218 1.376 . S
C3218 H3205 0.930 . S
C3218 C3217 1.376 . S
C3218 C3219 1.388 . S
C3219 H3206 0.930 . S
C3219 C3218 1.388 . S
C3219 C3220 1.390 . S
C3220 C3219 1.390 . S
C3220 C3221 1.394 . S
C3220 C3226 1.465 . S
C3221 C3216 1.399 . S
C3221 C3220 1.394 . S
C3221 C3222 1.516 . S
C3222 C3221 1.516 . S
C3222 C3223 1.502 . S
C3222 C3224 1.561 . S
C3222 C3225 1.526 . S
C3223 H3207 0.959 . S
C3223 H3208 0.959 . S
C3223 H3209 0.961 . S
C3223 C3222 1.502 . S
C3224 H3210 0.960 . S
C3224 H3211 0.961 . S
C3224 H3212 0.959 . S
C3224 C3222 1.561 . S
C3225 C3222 1.526 . S
C3225 C3226 1.396 . S
C3225 C3230 1.390 . S
C3226 C3220 1.465 . S
C3226 C3225 1.396 . S
C3226 C3227 1.399 . S
C3227 H3213 0.929 . S
C3227 C3226 1.399 . S
C3227 C3228 1.385 . S
C3228 H3214 0.931 . S
C3228 C3227 1.385 . S
C3228 C3229 1.389 . S
C3229 C3228 1.389 . S
C3229 C3230 1.387 . S
C3230 H3215 0.930 . S
C3230 C3225 1.390 . S
C3230 C3229 1.387 . S
H3231 C3243 0.930 . S
H3232 C3245 0.930 . S
H3233 C3246 0.930 . S
H3234 C3250 0.959 . S
H3235 C3250 0.959 . S
H3236 C3250 0.961 . S
H3237 C3251 0.960 . S
H3238 C3251 0.961 . S
H3239 C3251 0.959 . S
H3240 C3254 0.929 . S
H3241 C3255 0.931 . S
H3242 C3257 0.930 . S
C3243 H3231 0.930 . S
C3243 C3244 1.399 . S
C3243 C3248 1.399 . S
C3244 C3243 1.399 . S
C3244 C3245 1.376 . S
C3245 H3232 0.930 . S
C3245 C3244 1.376 . S
C3245 C3246 1.388 . S
C3246 H3233 0.930 . S
C3246 C3245 1.388 . S
C3246 C3247 1.390 . S
C3247 C3246 1.390 . S
C3247 C3248 1.394 . S
C3247 C3253 1.465 . S
C3248 C3243 1.399 . S
C3248 C3247 1.394 . S
C3248 C3249 1.516 . S
C3249 C3248 1.516 . S
C3249 C3250 1.502 . S
C3249 C3251 1.561 . S
C3249 C3252 1.526 . S
C3250 H3234 0.959 . S
C3250 H3235 0.959 . S
C3250 H3236 0.961 . S
C3250 C3249 1.502 . S
C3251 H3237 0.960 . S
C3251 H3238 0.961 . S
C3251 H3239 0.959 . S
C3251 C3249 1.561 . S
C3252 C3249 1.526 . S
C3252 C3253 1.396 . S
C3252 C3257 1.390 . S
C3253 C3247 1.465 . S
C3253 C3252 1.396 . S
C3253 C3254 1.399 . S
C3254 H3240 0.929 . S
C3254 C3253 1.399 . S
C3254 C3255 1.385 . S
C3255 H3241 0.931 . S
C3255 C3254 1.385 . S
C3255 C3256 1.389 . S
C3256 C3255 1.389 . S
C3256 C3257 1.387 . S
C3257 H3242 0.930 . S
C3257 C3252 1.390 . S
C3257 C3256 1.387 . S
H3258 C3270 0.930 . S
H3259 C3272 0.930 . S
H3260 C3273 0.930 . S
H3261 C3277 0.959 . S
H3262 C3277 0.959 . S
H3263 C3277 0.961 . S
H3264 C3278 0.960 . S
H3265 C3278 0.961 . S
H3266 C3278 0.959 . S
H3267 C3281 0.929 . S
H3268 C3282 0.931 . S
H3269 C3284 0.930 . S
C3270 H3258 0.930 . S
C3270 C3271 1.399 . S
C3270 C3275 1.399 . S
C3271 C3270 1.399 . S
C3271 C3272 1.376 . S
C3272 H3259 0.930 . S
C3272 C3271 1.376 . S
C3272 C3273 1.388 . S
C3273 H3260 0.930 . S
C3273 C3272 1.388 . S
C3273 C3274 1.390 . S
C3274 C3273 1.390 . S
C3274 C3275 1.394 . S
C3274 C3280 1.465 . S
C3275 C3270 1.399 . S
C3275 C3274 1.394 . S
C3275 C3276 1.516 . S
C3276 C3275 1.516 . S
C3276 C3277 1.502 . S
C3276 C3278 1.561 . S
C3276 C3279 1.526 . S
C3277 H3261 0.959 . S
C3277 H3262 0.959 . S
C3277 H3263 0.961 . S
C3277 C3276 1.502 . S
C3278 H3264 0.960 . S
C3278 H3265 0.961 . S
C3278 H3266 0.959 . S
C3278 C3276 1.561 . S
C3279 C3276 1.526 . S
C3279 C3280 1.396 . S
C3279 C3284 1.390 . S
C3280 C3274 1.465 . S
C3280 C3279 1.396 . S
C3280 C3281 1.399 . S
C3281 H3267 0.929 . S
C3281 C3280 1.399 . S
C3281 C3282 1.385 . S
C3282 H3268 0.931 . S
C3282 C3281 1.385 . S
C3282 C3283 1.389 . S
C3283 C3282 1.389 . S
C3283 C3284 1.387 . S
C3284 H3269 0.930 . S
C3284 C3279 1.390 . S
C3284 C3283 1.387 . S
H3285 C3297 0.930 . S
H3286 C3299 0.930 . S
H3287 C3300 0.930 . S
H3288 C3304 0.959 . S
H3289 C3304 0.959 . S
H3290 C3304 0.961 . S
H3291 C3305 0.960 . S
H3292 C3305 0.961 . S
H3293 C3305 0.959 . S
H3294 C3308 0.929 . S
H3295 C3309 0.931 . S
H3296 C3311 0.930 . S
C3297 H3285 0.930 . S
C3297 C3298 1.399 . S
C3297 C3302 1.399 . S
C3298 C3297 1.399 . S
C3298 C3299 1.376 . S
C3299 H3286 0.930 . S
C3299 C3298 1.376 . S
C3299 C3300 1.388 . S
C3300 H3287 0.930 . S
C3300 C3299 1.388 . S
C3300 C3301 1.390 . S
C3301 C3300 1.390 . S
C3301 C3302 1.394 . S
C3301 C3307 1.465 . S
C3302 C3297 1.399 . S
C3302 C3301 1.394 . S
C3302 C3303 1.516 . S
C3303 C3302 1.516 . S
C3303 C3304 1.502 . S
C3303 C3305 1.561 . S
C3303 C3306 1.526 . S
C3304 H3288 0.959 . S
C3304 H3289 0.959 . S
C3304 H3290 0.961 . S
C3304 C3303 1.502 . S
C3305 H3291 0.960 . S
C3305 H3292 0.961 . S
C3305 H3293 0.959 . S
C3305 C3303 1.561 . S
C3306 C3303 1.526 . S
C3306 C3307 1.396 . S
C3306 C3311 1.390 . S
C3307 C3301 1.465 . S
C3307 C3306 1.396 . S
C3307 C3308 1.399 . S
C3308 H3294 0.929 . S
C3308 C3307 1.399 . S
C3308 C3309 1.385 . S
C3309 H3295 0.931 . S
C3309 C3308 1.385 . S
C3309 C3310 1.389 . S
C3310 C3309 1.389 . S
C3310 C3311 1.387 . S
C3311 H3296 0.930 . S
C3311 C3306 1.390 . S
C3311 C3310 1.387 . S
H3312 C3324 0.930 . S
H3313 C3326 0.930 . S
H3314 C3327 0.930 . S
H3315 C3331 0.959 . S
H3316 C3331 0.959 . S
H3317 C3331 0.961 . S
H3318 C3332 0.960 . S
H3319 C3332 0.961 . S
H3320 C3332 0.959 . S
H3321 C3335 0.929 . S
H3322 C3336 0.931 . S
H3323 C3338 0.930 . S
C3324 H3312 0.930 . S
C3324 C3325 1.399 . S
C3324 C3329 1.399 . S
C3325 C3324 1.399 . S
C3325 C3326 1.376 . S
C3326 H3313 0.930 . S
C3326 C3325 1.376 . S
C3326 C3327 1.388 . S
C3327 H3314 0.930 . S
C3327 C3326 1.388 . S
C3327 C3328 1.390 . S
C3328 C3327 1.390 . S
C3328 C3329 1.394 . S
C3328 C3334 1.465 . S
C3329 C3324 1.399 . S
C3329 C3328 1.394 . S
C3329 C3330 1.516 . S
C3330 C3329 1.516 . S
C3330 C3331 1.502 . S
C3330 C3332 1.561 . S
C3330 C3333 1.526 . S
C3331 H3315 0.959 . S
C3331 H3316 0.959 . S
C3331 H3317 0.961 . S
C3331 C3330 1.502 . S
C3332 H3318 0.960 . S
C3332 H3319 0.961 . S
C3332 H3320 0.959 . S
C3332 C3330 1.561 . S
C3333 C3330 1.526 . S
C3333 C3334 1.396 . S
C3333 C3338 1.390 . S
C3334 C3328 1.465 . S
C3334 C3333 1.396 . S
C3334 C3335 1.399 . S
C3335 H3321 0.929 . S
C3335 C3334 1.399 . S
C3335 C3336 1.385 . S
C3336 H3322 0.931 . S
C3336 C3335 1.385 . S
C3336 C3337 1.389 . S
C3337 C3336 1.389 . S
C3337 C3338 1.387 . S
C3338 H3323 0.930 . S
C3338 C3333 1.390 . S
C3338 C3337 1.387 . S
H3339 C3351 0.930 . S
H3340 C3353 0.930 . S
H3341 C3354 0.930 . S
H3342 C3358 0.959 . S
H3343 C3358 0.959 . S
H3344 C3358 0.961 . S
H3345 C3359 0.960 . S
H3346 C3359 0.961 . S
H3347 C3359 0.998 . S
H3348 C3362 0.929 . S
H3349 C3363 0.931 . S
H3350 C3365 0.930 . S
C3351 H3339 0.930 . S
C3351 C3352 1.399 . S
C3351 C3356 1.399 . S
C3352 C3351 1.399 . S
C3352 C3353 1.376 1_655 S
C3353 H3340 0.930 . S
C3353 C3352 1.376 1_455 S
C3353 C3354 1.388 . S
C3354 H3341 0.930 . S
C3354 C3353 1.388 . S
C3354 C3355 1.390 . S
C3355 C3354 1.390 . S
C3355 C3356 1.374 1_455 S
C3355 C3361 1.482 . S
C3356 C3351 1.399 . S
C3356 C3355 1.374 1_655 S
C3356 C3357 1.516 . S
C3357 C3356 1.516 . S
C3357 C3358 1.502 . S
C3357 C3359 1.561 . S
C3357 C3360 1.526 . S
C3358 H3342 0.959 . S
C3358 H3343 0.959 . S
C3358 H3344 0.961 . S
C3358 C3357 1.502 . S
C3359 H3345 0.960 . S
C3359 H3346 0.961 . S
C3359 H3347 0.998 . S
C3359 C3357 1.561 . S
C3360 C3357 1.526 . S
C3360 C3361 1.396 1_655 S
C3360 C3365 1.390 . S
C3361 C3355 1.482 . S
C3361 C3360 1.396 1_455 S
C3361 C3362 1.399 . S
C3362 H3348 0.929 . S
C3362 C3361 1.399 . S
C3362 C3363 1.385 . S
C3363 H3349 0.931 . S
C3363 C3362 1.385 . S
C3363 C3364 1.389 1_455 S
C3364 C3363 1.389 1_655 S
C3364 C3365 1.387 . S
C3365 H3350 0.930 . S
C3365 C3360 1.390 . S
C3365 C3364 1.387 . S
H3366 C3378 0.930 . S
H3367 C3380 0.930 . S
H3368 C3381 0.930 . S
H3369 C3385 0.959 . S
H3370 C3385 0.959 . S
H3371 C3385 0.961 . S
H3372 C3386 0.960 . S
H3373 C3386 0.961 . S
H3374 C3386 0.959 . S
H3375 C3389 0.929 . S
H3376 C3390 0.931 . S
H3377 C3392 0.930 . S
C3378 H3366 0.930 . S
C3378 C3379 1.399 . S
C3378 C3383 1.399 . S
C3379 C3378 1.399 . S
C3379 C3380 1.376 . S
C3380 H3367 0.930 . S
C3380 C3379 1.376 . S
C3380 C3381 1.388 . S
C3381 H3368 0.930 . S
C3381 C3380 1.388 . S
C3381 C3382 1.390 . S
C3382 C3381 1.390 . S
C3382 C3383 1.394 . S
C3382 C3388 1.465 . S
C3383 C3378 1.399 . S
C3383 C3382 1.394 . S
C3383 C3384 1.516 . S
C3384 C3383 1.516 . S
C3384 C3385 1.502 . S
C3384 C3386 1.561 . S
C3384 C3387 1.526 . S
C3385 H3369 0.959 . S
C3385 H3370 0.959 . S
C3385 H3371 0.961 . S
C3385 C3384 1.502 . S
C3386 H3372 0.960 . S
C3386 H3373 0.961 . S
C3386 H3374 0.959 . S
C3386 C3384 1.561 . S
C3387 C3384 1.526 . S
C3387 C3388 1.396 . S
C3387 C3392 1.390 . S
C3388 C3382 1.465 . S
C3388 C3387 1.396 . S
C3388 C3389 1.399 . S
C3389 H3375 0.929 . S
C3389 C3388 1.399 . S
C3389 C3390 1.385 . S
C3390 H3376 0.931 . S
C3390 C3389 1.385 . S
C3390 C3391 1.389 . S
C3391 C3390 1.389 . S
C3391 C3392 1.387 . S
C3392 H3377 0.930 . S
C3392 C3387 1.390 . S
C3392 C3391 1.387 . S
H3393 C3405 0.930 . S
H3394 C3407 0.930 . S
H3395 C3408 0.930 . S
H3396 C3412 0.959 . S
H3397 C3412 0.959 . S
H3398 C3412 0.961 . S
H3399 C3413 0.960 . S
H3400 C3413 0.961 . S
H3401 C3413 0.959 . S
H3402 C3416 0.929 . S
H3403 C3417 0.931 . S
H3404 C3419 0.930 . S
C3405 H3393 0.930 . S
C3405 C3406 1.399 1_565 S
C3405 C3410 1.399 . S
C3406 C3405 1.399 1_545 S
C3406 C3407 1.376 . S
C3407 H3394 0.930 . S
C3407 C3406 1.376 . S
C3407 C3408 1.388 . S
C3408 H3395 0.930 . S
C3408 C3407 1.388 . S
C3408 C3409 1.390 . S
C3409 C3408 1.390 . S
C3409 C3410 1.394 1_545 S
C3409 C3415 1.465 . S
C3410 C3405 1.399 . S
C3410 C3409 1.394 1_565 S
C3410 C3411 1.516 . S
C3411 C3410 1.516 . S
C3411 C3412 1.502 . S
C3411 C3413 1.561 . S
C3411 C3414 1.526 . S
C3412 H3396 0.959 . S
C3412 H3397 0.959 . S
C3412 H3398 0.961 . S
C3412 C3411 1.502 . S
C3413 H3399 0.960 . S
C3413 H3400 0.961 . S
C3413 H3401 0.959 . S
C3413 C3411 1.561 . S
C3414 C3411 1.526 . S
C3414 C3415 1.396 1_565 S
C3414 C3419 1.390 . S
C3415 C3409 1.465 . S
C3415 C3414 1.396 1_545 S
C3415 C3416 1.399 . S
C3416 H3402 0.929 . S
C3416 C3415 1.399 . S
C3416 C3417 1.385 . S
C3417 H3403 0.931 . S
C3417 C3416 1.385 . S
C3417 C3418 1.389 . S
C3418 C3417 1.389 . S
C3418 C3419 1.387 1_545 S
C3419 H3404 0.930 . S
C3419 C3414 1.390 . S
C3419 C3418 1.387 1_565 S
C1489 C4 1.439 . S
C1501 C1084 1.425 . S
C1516 C38 1.684 . S
C1528 C1130 1.684 . S
C1555 C1162 1.437 . S
C1543 C74 1.423 . S
C1570 C76 1.405 . S
C1582 C1215 1.419 . S
C1597 C2 1.528 . S
C1609 C1261 1.550 . S
C1624 C40 1.520 . S
C1636 C1300 1.514 . S
C1651 C110 1.468 . S
C1663 C1254 1.499 . S
C1690 C1307 1.539 . S
C1678 C148 1.539 . S
C1717 C1208 1.511 . S
C1705 C182 1.499 . S
C1732 C184 1.470 . S
C1744 C1169 1.468 . S
C1771 C1063 1.389 . S
C1759 C112 1.364 . S
C1786 C146 1.642 . S
C1798 C1109 1.629 . S
C1813 C220 1.656 . S
C1825 C1339 1.655 . S
C1840 C254 1.791 . S
C1852 C1406 1.761 . S
C1879 C1452 1.634 . S
C1867 C290 1.640 . S
C1894 C292 1.535 . S
C1906 C663 1.498 . S
C1921 C218 1.681 . S
C1933 C709 1.682 . S
C1948 C256 1.581 . S
C1960 C755 1.572 . S
C1975 C326 1.651 . S
C1987 C702 1.630 . S
C2002 C364 1.603 . S
C2014 C748 1.566 . S
C2041 C656 1.693 . S
C2029 C398 1.705 . S
C2068 C1431 1.677 . S
C2056 C400 1.681 . S
C2095 C1360 1.507 . S
C2083 C328 1.512 . S
C2122 C1385 1.683 . S
C2110 C362 1.710 . S
C2137 C436 1.558 . S
C2149 C787 1.564 . S
C2164 C470 1.764 . S
C2176 C840 1.759 . S
C2191 C506 1.655 . S
C2203 C886 1.657 . S
C2218 C508 1.619 . S
C2230 C932 1.631 . S
C2257 C985 1.648 . S
C2245 C434 1.669 . S
C2284 C1031 1.568 . S
C2272 C472 1.607 . S
C2311 C978 1.766 . S
C2299 C542 1.778 . S
C2338 C1024 1.608 . S
C2326 C580 1.623 . S
C2353 C614 1.687 . S
C2365 C939 1.683 . S
C2392 C893 1.565 . S
C2380 C616 1.572 . S
C2407 C544 1.537 . S
C2419 C808 1.536 . S
C2446 C847 1.687 . S
C2434 C578 1.690 . S
C2473 C670 1.633 . S
C2461 C14 1.635 . S
C2488 C39 1.543 . S
C2500 C716 1.562 . S
C2527 C762 1.534 . S
C2515 C75 1.592 . S
C2554 C794 1.489 . S
C2542 C86 1.493 . S
C2581 C833 1.573 . S
C2569 C3 1.633 . S
C2608 C879 1.508 . S
C2596 C50 1.523 . S
C2623 C111 1.598 . S
C2635 C900 1.581 . S
C2650 C158 1.500 . S
C2662 C801 1.498 . S
C2677 C183 1.699 . S
C2689 C854 1.694 . S
C2704 C194 1.603 . S
C2716 C695 1.625 . S
C2743 C741 1.540 . S
C2731 C122 1.534 . S
C2758 C147 1.465 . S
C2770 C649 1.475 . S
C2797 C925 1.567 . S
C2785 C230 1.583 . S
C2812 C255 1.686 . S
C2824 C992 1.640 . S
C2839 C291 1.598 . S
C2851 C1038 1.609 . S
C2878 C1077 1.326 . S
C2866 C302 1.259 . S
C2893 C219 1.587 . S
C2905 C1123 1.565 . S
C2920 C266 1.314 . S
C2932 C1155 1.408 . S
C2947 C327 1.325 . S
C2959 C1176 1.331 . S
C2974 C374 1.333 . S
C2986 C1070 1.349 . S
C3013 C1116 1.635 . S
C3001 C399 1.648 . S
C3028 C410 1.552 . S
C3040 C971 1.566 . S
C3055 C338 1.580 . S
C3067 C1017 1.609 . S
C3094 C946 1.595 . S
C3082 C363 1.592 . S
C3121 C1222 1.400 . S
C3109 C446 1.368 . S
C3136 C471 1.393 . S
C3148 C1268 1.398 . S
C3163 C507 1.531 . S
C3175 C1293 1.477 . S
C3202 C1346 1.476 . S
C3190 C518 1.479 . S
C3229 C1399 1.632 . S
C3217 C435 1.678 . S
C3244 C482 1.617 . S
C3256 C1445 1.647 . S
C3271 C543 1.548 . S
C3283 C1438 1.493 . S
C3298 C590 1.597 . S
C3310 C1353 1.586 . S
C3337 C1392 1.698 . S
C3325 C615 1.725 . S
C3364 C1247 1.402 . S
C3352 C626 1.378 . S
C3391 C1314 1.521 . S
C3379 C554 1.534 . S
C3406 C579 1.335 . S
C3418 C1201 1.329 . S
