# Generated by pormake.
# Topology anh, (6,3)-cn, num edge types: 1
# Building blocks:
#     Node 0, Type 0, BuildingBlock: BETGAK_clean_sbu_0, # of connection points: 6
#     Node 1, Type 0, BuildingBlock: BETGAK_clean_sbu_0, # of connection points: 6
#     Node 2, Type 0, BuildingBlock: BETGAK_clean_sbu_0, # of connection points: 6
#     Node 3, Type 1, BuildingBlock: BELTOD_clean_linker_0, # of connection points: 3
#     Node 4, Type 1, BuildingBlock: BELTOD_clean_linker_0, # of connection points: 3
#     Node 5, Type 1, BuildingBlock: BELTOD_clean_linker_0, # of connection points: 3
#     Node 6, Type 1, BuildingBlock: BELTOD_clean_linker_0, # of connection points: 3
#     Node 7, Type 1, BuildingBlock: BELTOD_clean_linker_0, # of connection points: 3
#     Node 8, Type 1, BuildingBlock: BELTOD_clean_linker_0, # of connection points: 3
#     Edge 9, Type (0, 1), BuildingBlock: MIFKUJ_clean_linker_0, # of connection points: 2
#     Edge 10, Type (0, 1), BuildingBlock: MIFKUJ_clean_linker_0, # of connection points: 2
#     Edge 11, Type (0, 1), BuildingBlock: MIFKUJ_clean_linker_0, # of connection points: 2
#     Edge 12, Type (0, 1), BuildingBlock: MIFKUJ_clean_linker_0, # of connection points: 2
#     Edge 13, Type (0, 1), BuildingBlock: MIFKUJ_clean_linker_0, # of connection points: 2
#     Edge 14, Type (0, 1), BuildingBlock: MIFKUJ_clean_linker_0, # of connection points: 2
#     Edge 15, Type (0, 1), BuildingBlock: MIFKUJ_clean_linker_0, # of connection points: 2
#     Edge 16, Type (0, 1), BuildingBlock: MIFKUJ_clean_linker_0, # of connection points: 2
#     Edge 17, Type (0, 1), BuildingBlock: MIFKUJ_clean_linker_0, # of connection points: 2
#     Edge 18, Type (0, 1), BuildingBlock: MIFKUJ_clean_linker_0, # of connection points: 2
#     Edge 19, Type (0, 1), BuildingBlock: MIFKUJ_clean_linker_0, # of connection points: 2
#     Edge 20, Type (0, 1), BuildingBlock: MIFKUJ_clean_linker_0, # of connection points: 2
#     Edge 21, Type (0, 1), BuildingBlock: MIFKUJ_clean_linker_0, # of connection points: 2
#     Edge 22, Type (0, 1), BuildingBlock: MIFKUJ_clean_linker_0, # of connection points: 2
#     Edge 23, Type (0, 1), BuildingBlock: MIFKUJ_clean_linker_0, # of connection points: 2
#     Edge 24, Type (0, 1), BuildingBlock: MIFKUJ_clean_linker_0, # of connection points: 2
#     Edge 25, Type (0, 1), BuildingBlock: MIFKUJ_clean_linker_0, # of connection points: 2
#     Edge 26, Type (0, 1), BuildingBlock: MIFKUJ_clean_linker_0, # of connection points: 2
# Relax obj value: 0.158
# Max RMSD: 0.193
# Mean RMSD: 0.141
data_MOF--net-anh--node1-BETGAK_clean_sbu_0--node2-BELTOD_clean_linker_0--edge1-MIFKUJ_clean_linker_0
_symmetry_space_group_name_H-M    P1
_symmetry_Int_Tables_number       1
_symmetry_cell_setting            triclinic
loop_
_symmetry_equiv_pos_as_xyz
'x, y, z'
_cell_length_a     44.634366
_cell_length_b     50.142262
_cell_length_c     76.816303
_cell_angle_alpha  92.678992
_cell_angle_beta   89.352344
_cell_angle_gamma 127.28382
loop_
_atom_site_label
_atom_site_type_symbol
_atom_site_fract_x
_atom_site_fract_y
_atom_site_fract_z
_atom_type_partial_charge
La0 La 0.0821 0.52552 0.15021 0.0
La1 La 0.0466 0.55689 0.16442 0.0
C2 C 0.11978 0.5122 0.13268 0.0
C3 C 0.15845 0.52274 0.13403 0.0
C4 C 0.17408 0.52438 0.15018 0.0
C5 C 0.20958 0.53171 0.1511 0.0
C6 C 0.23044 0.538 0.13592 0.0
C7 C 0.21551 0.53818 0.11991 0.0
C8 C 0.17974 0.53042 0.11898 0.0
C9 C 0.07444 0.52442 0.18419 0.0
C10 C 0.1335 0.60553 0.15985 0.0
C11 C 1.01091 0.57106 0.18321 0.0
C12 C 0.97282 0.55168 0.19023 0.0
C13 C 0.95507 0.56686 0.1926 0.0
C14 C 0.91686 0.54752 0.19643 0.0
C15 C 0.89561 0.5125 0.19755 0.0
C16 C 0.91429 0.49784 0.19649 0.0
C17 C 0.95271 0.51739 0.19302 0.0
C18 C 0.0547 0.55782 0.13026 0.0
C19 C 0.99592 0.47756 0.15541 0.0
O20 O 0.09714 0.49378 0.1451 0.0
O21 O 0.11636 0.53534 0.12865 0.0
O22 O 0.07305 0.5015 0.1749 0.0
O23 O 0.08341 0.54785 0.17473 0.0
O24 O 0.13055 0.57974 0.15207 0.0
O25 O 0.1043 0.60178 0.16715 0.0
O26 O 1.01262 0.57279 0.16624 0.0
O27 O 1.03334 0.56503 0.18942 0.0
O28 O 0.0572 0.58133 0.13965 0.0
O29 O 0.04529 0.53429 0.1398 0.0
O30 O 1.00071 0.50251 0.16512 0.0
O31 O 1.02327 0.48274 0.14548 0.0
H32 H 0.15841 0.51901 0.16205 0.0
H33 H 0.21983 0.53092 0.16363 0.0
H34 H 0.2311 0.54358 0.10802 0.0
H35 H 0.16836 0.52976 0.10643 0.0
H36 H 0.97035 0.59343 0.19075 0.0
H37 H 0.90359 0.55978 0.19768 0.0
H38 H 0.89895 0.47103 0.19733 0.0
H39 H 0.96632 0.50546 0.19182 0.0
La40 La 0.56668 0.00885 0.48384 0.0
La41 La 0.5182 0.03037 0.47869 0.0
C42 C 0.59678 0.98333 0.49493 0.0
C43 C 0.58877 0.95065 0.49764 0.0
C44 C 0.61699 0.94707 0.49391 0.0
C45 C 0.61182 0.91746 0.49735 0.0
C46 C 0.57829 0.89068 0.5047 0.0
C47 C 0.54944 0.89389 0.50795 0.0
C48 C 0.55465 0.92367 0.50447 0.0
C49 C 0.56275 0.02223 0.45165 0.0
C50 C 0.47783 0.95372 0.47672 0.0
C51 C 0.48971 0.05871 0.47001 0.0
C52 C 0.49659 0.09106 0.47476 0.0
C53 C 0.47057 0.09127 0.4851 0.0
C54 C 0.47685 0.12146 0.49017 0.0
C55 C 0.50919 0.15229 0.48489 0.0
C56 C 0.53498 0.15202 0.47429 0.0
C57 C 0.52876 0.12178 0.46928 0.0
C58 C 0.52549 0.01972 0.51122 0.0
C59 C 0.60804 0.08573 0.48304 0.0
O60 O 0.59839 0.99116 0.47877 0.0
O61 O 0.57987 0.99218 0.50492 0.0
O62 O 0.59237 0.0278 0.45873 0.0
O63 O 0.53572 0.00729 0.46203 0.0
O64 O 0.50913 0.961 0.48381 0.0
O65 O 0.47689 0.97759 0.47083 0.0
O66 O 0.47669 0.0374 0.48235 0.0
O67 O 0.51542 0.05966 0.461 0.0
O68 O 0.49518 0.01338 0.50465 0.0
O69 O 0.55083 0.03362 0.5001 0.0
O70 O 0.57534 0.07817 0.47792 0.0
O71 O 0.61055 0.06247 0.48847 0.0
H72 H 0.64343 0.96749 0.48856 0.0
H73 H 0.6343 0.91563 0.49431 0.0
H74 H 0.52332 0.8738 0.51365 0.0
H75 H 0.53236 0.9258 0.50739 0.0
H76 H 0.44544 0.068 0.48946 0.0
H77 H 0.4566 0.1206 0.49852 0.0
H78 H 0.55989 0.17518 0.46972 0.0
H79 H 0.54924 0.12255 0.46116 0.0
La80 La 0.58197 0.55844 0.85193 0.0
La81 La 0.53057 0.48388 0.85298 0.0
C82 C 0.61411 0.61798 0.84335 0.0
C83 C 0.6049 0.64119 0.83999 0.0
C84 C 0.62173 0.67078 0.8505 0.0
C85 C 0.61618 0.69457 0.84678 0.0
C86 C 0.5939 0.68952 0.83231 0.0
C87 C 0.57627 0.65944 0.82202 0.0
C88 C 0.5817 0.63554 0.82581 0.0
C89 C 0.56969 0.53477 0.88309 0.0
C90 C 0.49129 0.51948 0.85429 0.0
C91 C 0.49861 0.42327 0.85931 0.0
C92 C 0.50525 0.39822 0.8548 0.0
C93 C 0.47617 0.36716 0.84682 0.0
C94 C 0.48202 0.34345 0.84186 0.0
C95 C 0.51706 0.35006 0.84495 0.0
C96 C 0.54604 0.38117 0.85318 0.0
C97 C 0.54029 0.40505 0.8579 0.0
C98 C 0.54365 0.50705 0.82148 0.0
C99 C 0.62202 0.52368 0.85319 0.0
O100 O 0.61193 0.60961 0.85946 0.0
O101 O 0.60123 0.59254 0.83215 0.0
O102 O 0.60169 0.5617 0.87852 0.0
O103 O 0.54587 0.52361 0.87087 0.0
O104 O 0.52484 0.54666 0.84967 0.0
O105 O 0.48804 0.49242 0.85866 0.0
O106 O 0.48911 0.43275 0.84627 0.0
O107 O 0.52282 0.4486 0.87001 0.0
O108 O 0.51209 0.48019 0.82623 0.0
O109 O 0.56729 0.51855 0.83385 0.0
O110 O 0.58754 0.49548 0.85571 0.0
O111 O 0.62644 0.5516 0.84962 0.0
H112 H 0.6398 0.67584 0.86148 0.0
H113 H 0.62965 0.71708 0.85519 0.0
H114 H 0.55924 0.65478 0.81068 0.0
H115 H 0.56838 0.61304 0.81738 0.0
H116 H 0.44895 0.36138 0.84418 0.0
H117 H 0.45918 0.32021 0.83526 0.0
H118 H 0.5732 0.38711 0.85612 0.0
H119 H 0.56322 0.42875 0.86406 0.0
P120 P 0.59915 0.03177 0.20938 0.0
H121 H 0.58039 0.97087 0.19088 0.0
H122 H 0.52119 0.91945 0.18025 0.0
H123 H 0.46524 0.96464 0.191 0.0
H124 H 0.52501 0.01609 0.20223 0.0
H125 H 0.67108 0.06654 0.19169 0.0
H126 H 0.71423 0.12278 0.18143 0.0
H127 H 0.63243 0.14073 0.19243 0.0
H128 H 0.58956 0.08413 0.2034 0.0
H129 H 0.53851 0.98552 0.2327 0.0
H130 H 0.63579 0.08962 0.23456 0.0
O131 O 0.62656 0.02003 0.21236 0.0
H132 H 0.52763 0.9907 0.2634 0.0
H133 H 0.62469 0.09513 0.26527 0.0
C134 C 0.55723 0.9974 0.19749 0.0
C135 C 0.55562 0.97009 0.1907 0.0
C136 C 0.52151 0.94051 0.18451 0.0
C137 C 0.48802 0.93748 0.18486 0.0
C138 C 0.4902 0.96569 0.1908 0.0
C139 C 0.52448 0.99536 0.19703 0.0
C140 C 0.62705 0.07104 0.19845 0.0
C141 C 0.66204 0.08229 0.19172 0.0
C142 C 0.68682 0.11468 0.18571 0.0
C143 C 0.67719 0.13676 0.18611 0.0
C144 C 0.64125 0.1248 0.19217 0.0
C145 C 0.61642 0.09225 0.19826 0.0
C146 C 0.58725 0.03746 0.23108 0.0
C147 C 0.55685 0.00982 0.23952 0.0
C148 C 0.55066 0.0128 0.25716 0.0
C149 C 0.57518 0.04338 0.26682 0.0
C150 C 0.60536 0.07117 0.25825 0.0
C151 C 0.61147 0.06815 0.24059 0.0
P152 P 0.62437 0.56283 0.57822 0.0
H153 H 0.64766 0.5468 0.54638 0.0
H154 H 0.62787 0.49379 0.53199 0.0
H155 H 0.53934 0.43942 0.56925 0.0
H156 H 0.55911 0.49268 0.58349 0.0
H157 H 0.63407 0.62201 0.59258 0.0
H158 H 0.61884 0.65752 0.58172 0.0
H159 H 0.56485 0.59045 0.53611 0.0
H160 H 0.57988 0.55459 0.54725 0.0
H161 H 0.66771 0.56239 0.60621 0.0
H162 H 0.56275 0.54804 0.60069 0.0
O163 O 0.67089 0.58775 0.57557 0.0
H164 H 0.6587 0.55608 0.6376 0.0
H165 H 0.55373 0.54223 0.63218 0.0
C166 C 0.60535 0.52368 0.56621 0.0
C167 C 0.62374 0.52349 0.55135 0.0
C168 C 0.61252 0.49314 0.54319 0.0
C169 C 0.58242 0.46234 0.54964 0.0
C170 C 0.56261 0.46268 0.56394 0.0
C171 C 0.57399 0.49314 0.57215 0.0
C172 C 0.60776 0.58548 0.57084 0.0
C173 C 0.61838 0.61458 0.58038 0.0
C174 C 0.60994 0.63504 0.57408 0.0
C175 C 0.59091 0.62698 0.55797 0.0
C176 C 0.57929 0.5972 0.54862 0.0
C177 C 0.58791 0.57671 0.55496 0.0
C178 C 0.61628 0.55636 0.6012 0.0
C179 C 0.64277 0.55801 0.61178 0.0
C180 C 0.63767 0.55456 0.62975 0.0
C181 C 0.60572 0.54906 0.63745 0.0
C182 C 0.57859 0.54633 0.62667 0.0
C183 C 0.5838 0.54986 0.60869 0.0
P184 P 0.07494 0.54885 0.88193 0.0
H185 H 0.1361 0.57634 0.85617 0.0
H186 H 0.18476 0.56922 0.85072 0.0
H187 H 0.12822 0.4854 0.88415 0.0
H188 H 0.07863 0.49193 0.88883 0.0
H189 H 0.05714 0.59042 0.86571 0.0
H190 H 0.99993 0.58425 0.86089 0.0
H191 H 0.93452 0.47987 0.87294 0.0
H192 H 0.99314 0.48706 0.87869 0.0
H193 H 0.12055 0.5486 0.90937 0.0
H194 H 1.01852 0.54018 0.90675 0.0
O195 O 0.10585 0.59056 0.88154 0.0
H196 H 0.11566 0.54559 0.94097 0.0
H197 H 1.01424 0.53797 0.93828 0.0
C198 C 0.1029 0.53489 0.87305 0.0
C199 C 0.1333 0.5557 0.86199 0.0
C200 C 0.16209 0.55196 0.85916 0.0
C201 C 0.16224 0.52727 0.86733 0.0
C202 C 0.13023 0.50491 0.87747 0.0
C203 C 0.10116 0.50849 0.88013 0.0
C204 C 1.03066 0.53921 0.87244 0.0
C205 C 1.03075 0.56577 0.86699 0.0
C206 C 0.99712 0.56211 0.86416 0.0
C207 C 0.96107 0.53147 0.86648 0.0
C208 C 0.96094 0.50427 0.87119 0.0
C209 C 0.99491 0.50809 0.87415 0.0
C210 C 0.06863 0.54243 0.90523 0.0
C211 C 0.09625 0.54475 0.91537 0.0
C212 C 0.09373 0.54344 0.93355 0.0
C213 C 0.06431 0.54113 0.94211 0.0
C214 C 0.03711 0.53951 0.93206 0.0
C215 C 0.03932 0.54029 0.91386 0.0
P216 P 0.07073 0.49921 0.42862 0.0
H217 H 0.11258 0.52789 0.46172 0.0
H218 H 0.15795 0.58604 0.4728 0.0
H219 H 0.12772 0.61919 0.43007 0.0
H220 H 0.08151 0.56114 0.4196 0.0
H221 H 0.03847 0.42909 0.43106 0.0
H222 H 0.9784 0.38035 0.44075 0.0
H223 H 0.94448 0.44291 0.45457 0.0
H224 H 1.00545 0.49217 0.44461 0.0
H225 H 0.12519 0.53325 0.40141 0.0
H226 H 1.00442 0.47264 0.40555 0.0
O227 O 0.10101 0.4902 0.42992 0.0
H228 H 0.11974 0.5386 0.3704 0.0
H229 H 0.99873 0.47807 0.37446 0.0
C230 C 0.09393 0.54005 0.43971 0.0
C231 C 0.11487 0.54762 0.45508 0.0
C232 C 0.14128 0.58102 0.46125 0.0
C233 C 0.1474 0.60762 0.45211 0.0
C234 C 0.12399 0.5996 0.43752 0.0
C235 C 0.09744 0.56618 0.43144 0.0
C236 C 1.02695 0.4645 0.43753 0.0
C237 C 1.01851 0.4326 0.43646 0.0
C238 C 0.98398 0.40461 0.44204 0.0
C239 C 0.95662 0.40762 0.44867 0.0
C240 C 0.9649 0.43966 0.44955 0.0
C241 C 0.99982 0.46789 0.44401 0.0
C242 C 0.06525 0.50222 0.40574 0.0
C243 C 0.09747 0.52104 0.39562 0.0
C244 C 0.09432 0.52432 0.37792 0.0
C245 C 0.05878 0.50882 0.36996 0.0
C246 C 1.02646 0.49004 0.38018 0.0
C247 C 1.02969 0.48695 0.39797 0.0
P248 P 0.62583 0.05911 0.75444 0.0
H249 H 0.65107 0.10158 0.78629 0.0
H250 H 0.63203 0.13381 0.80034 0.0
H251 H 0.53929 0.0887 0.76333 0.0
H252 H 0.55847 0.05636 0.74935 0.0
H253 H 0.66688 0.03134 0.75347 0.0
H254 H 0.65527 0.98156 0.76517 0.0
H255 H 0.55021 0.95391 0.78613 0.0
H256 H 0.56215 1.00423 0.77421 0.0
H257 H 0.65328 0.10381 0.7258 0.0
H258 H 0.5669 0.9987 0.73328 0.0
O259 O 0.67256 0.08803 0.75531 0.0
H260 H 0.63708 0.09476 0.69473 0.0
H261 H 0.55073 0.9893 0.70207 0.0
C262 C 0.60659 0.07702 0.76661 0.0
C263 C 0.62631 0.09823 0.78135 0.0
C264 C 0.61554 0.11681 0.7893 0.0
C265 C 0.58454 0.11426 0.78276 0.0
C266 C 0.56331 0.09125 0.76867 0.0
C267 C 0.5743 0.0728 0.76064 0.0
C268 C 0.61583 0.02189 0.76334 0.0
C269 C 0.64147 0.01476 0.7607 0.0
C270 C 0.63482 0.98628 0.76744 0.0
C271 C 0.60207 0.96398 0.77681 0.0
C272 C 0.57574 0.97063 0.77899 0.0
C273 C 0.5826 0.99943 0.7723 0.0
C274 C 0.61185 0.05182 0.73176 0.0
C275 C 0.63089 0.07872 0.72072 0.0
C276 C 0.6217 0.07348 0.70295 0.0
C277 C 0.59297 0.04121 0.69587 0.0
C278 C 0.57298 0.01445 0.70711 0.0
C279 C 0.58234 0.01975 0.72494 0.0
P280 P 0.43766 0.33082 0.09898 0.0
H281 H 0.45047 0.28449 0.11256 0.0
H282 H 0.5029 0.29416 0.12947 0.0
H283 H 0.56034 0.40113 0.12936 0.0
H284 H 0.50874 0.39137 0.11231 0.0
H285 H 0.39298 0.32632 0.12847 0.0
H286 H 0.38361 0.366 0.14195 0.0
H287 H 0.45579 0.43785 0.10373 0.0
H288 H 0.4657 0.39869 0.09073 0.0
H289 H 0.50721 0.35847 0.07922 0.0
H290 H 0.39396 0.32482 0.06932 0.0
O291 O 0.39889 0.29136 0.10021 0.0
H292 H 0.52491 0.37983 0.05009 0.0
H293 H 0.41135 0.34563 0.03993 0.0
C294 C 0.47562 0.33722 0.11135 0.0
C295 C 0.4744 0.30997 0.11621 0.0
C296 C 0.50425 0.3155 0.12591 0.0
C297 C 0.5358 0.34839 0.13067 0.0
C298 C 0.53674 0.37551 0.12568 0.0
C299 C 0.50704 0.36996 0.11606 0.0
C300 C 0.42911 0.35917 0.10832 0.0
C301 C 0.40652 0.35055 0.12296 0.0
C302 C 0.40128 0.37326 0.13066 0.0
C303 C 0.41894 0.40508 0.1239 0.0
C304 C 0.44214 0.41375 0.10941 0.0
C305 C 0.44733 0.39109 0.10176 0.0
C306 C 0.44918 0.33999 0.07644 0.0
C307 C 0.48588 0.35498 0.07068 0.0
C308 C 0.49599 0.36713 0.05395 0.0
C309 C 0.46961 0.36466 0.04275 0.0
C310 C 0.43244 0.34831 0.04834 0.0
C311 C 0.42236 0.33609 0.06505 0.0
H312 H 0.28599 0.56896 0.16158 0.0
H313 H 0.33751 0.56471 0.16471 0.0
H314 H 0.30591 0.50951 0.11506 0.0
H315 H 0.25406 0.5126 0.11207 0.0
H316 H 0.32751 0.50648 0.16714 0.0
H317 H 0.37966 0.52317 0.09512 0.0
H318 H 0.39555 0.56114 0.07152 0.0
H319 H 0.4149 0.6367 0.10893 0.0
H320 H 0.39973 0.59943 0.1328 0.0
H321 H 0.35197 0.39015 0.13445 0.0
H322 H 0.33855 0.42924 0.14299 0.0
H323 H 0.45591 0.51254 0.13813 0.0
H324 H 0.46966 0.47334 0.12965 0.0
H325 H 0.41388 0.52238 0.12043 0.0
H326 H 0.41549 0.49685 0.17812 0.0
H327 H 0.4032 0.4624 0.203 0.0
H328 H 0.2844 0.41192 0.19682 0.0
H329 H 0.29586 0.44567 0.17173 0.0
C330 C 0.29025 0.55619 0.15125 0.0
C331 C 0.26561 0.54089 0.13662 0.0
C332 C 0.31985 0.55401 0.15302 0.0
C333 C 0.32569 0.53702 0.14007 0.0
C334 C 0.30242 0.52335 0.12507 0.0
C335 C 0.27272 0.52522 0.12336 0.0
C336 C 0.35256 0.52949 0.1429 0.0
C337 C 0.3469 0.51039 0.1571 0.0
C338 C 0.37889 0.53572 0.13014 0.0
C339 C 0.38844 0.55839 0.11578 0.0
C340 C 0.38759 0.54797 0.09835 0.0
C341 C 0.3964 0.56936 0.08491 0.0
C342 C 0.40618 0.60129 0.08872 0.0
C343 C 0.40723 0.61193 0.10599 0.0
C344 C 0.39847 0.59065 0.11948 0.0
C345 C 0.37515 0.4167 0.13566 0.0
C346 C 0.41184 0.42864 0.13127 0.0
C347 C 0.36745 0.43908 0.14058 0.0
C348 C 0.39629 0.47385 0.14134 0.0
C349 C 0.43325 0.48582 0.13764 0.0
C350 C 0.44099 0.46341 0.13271 0.0
C351 C 0.38659 0.49725 0.14397 0.0
C352 C 0.39547 0.51933 0.13079 0.0
C353 C 0.36383 0.49429 0.15786 0.0
C354 C 0.35658 0.47382 0.17299 0.0
C355 C 0.38671 0.47826 0.18199 0.0
C356 C 0.37989 0.45886 0.19615 0.0
C357 C 0.34304 0.43498 0.20148 0.0
C358 C 0.31294 0.43046 0.19268 0.0
C359 C 0.31959 0.44978 0.17851 0.0
H360 H 0.33782 0.41998 0.21245 0.0
H361 H 0.41298 0.61781 0.07829 0.0
H362 H 0.61449 0.13948 0.47081 0.0
H363 H 0.67205 0.19584 0.46654 0.0
H364 H 0.7381 0.16822 0.48796 0.0
H365 H 0.68058 0.11174 0.4924 0.0
H366 H 0.76377 0.23103 0.49973 0.0
H367 H 0.72994 0.1695 0.44456 0.0
H368 H 0.68742 0.13473 0.41959 0.0
H369 H 0.67932 0.21295 0.40755 0.0
H370 H 0.72122 0.24796 0.43267 0.0
H371 H 0.94358 0.35614 0.46707 0.0
H372 H 0.88322 0.30401 0.47409 0.0
H373 H 0.82497 0.33741 0.45023 0.0
H374 H 0.8856 0.38951 0.44268 0.0
H375 H 0.79344 0.27315 0.44003 0.0
H376 H 0.82938 0.33559 0.49472 0.0
H377 H 0.87133 0.36978 0.51993 0.0
H378 H 0.8755 0.28968 0.53286 0.0
H379 H 0.83397 0.25515 0.50758 0.0
C380 C 0.64118 0.14537 0.47478 0.0
C381 C 0.64279 0.12087 0.48189 0.0
C382 C 0.67415 0.17766 0.47224 0.0
C383 C 0.70954 0.18622 0.47669 0.0
C384 C 0.71117 0.16223 0.48437 0.0
C385 C 0.67819 0.12987 0.48688 0.0
C386 C 0.74489 0.21982 0.4729 0.0
C387 C 0.77044 0.24009 0.48665 0.0
C388 C 0.75325 0.23207 0.45589 0.0
C389 C 0.72843 0.21123 0.44062 0.0
C390 C 0.71886 0.1792 0.43667 0.0
C391 C 0.69489 0.15945 0.42248 0.0
C392 C 0.68061 0.17159 0.41201 0.0
C393 C 0.69036 0.20355 0.41569 0.0
C394 C 0.71422 0.22336 0.4299 0.0
C395 C 0.91798 0.35248 0.46329 0.0
C396 C 0.91957 0.3771 0.45424 0.0
C397 C 0.88338 0.32269 0.46746 0.0
C398 C 0.84936 0.31674 0.46284 0.0
C399 C 0.85077 0.34138 0.45397 0.0
C400 C 0.88549 0.37132 0.44981 0.0
C401 C 0.81252 0.28438 0.46687 0.0
C402 C 0.78669 0.26426 0.45315 0.0
C403 C 0.80391 0.27223 0.4839 0.0
C404 C 0.82881 0.29289 0.49916 0.0
C405 C 0.83946 0.32535 0.50286 0.0
C406 C 0.86313 0.34478 0.51718 0.0
C407 C 0.87614 0.33194 0.52797 0.0
C408 C 0.86543 0.29961 0.52449 0.0
C409 C 0.84179 0.28008 0.51017 0.0
H410 H 0.89445 0.34702 0.53905 0.0
H411 H 0.66207 0.15627 0.40102 0.0
H412 H 0.53144 0.68188 0.81965 0.0
H413 H 0.52687 0.72586 0.81128 0.0
H414 H 0.64356 0.8013 0.82608 0.0
H415 H 0.6486 0.75768 0.83416 0.0
H416 H 0.60019 0.81901 0.838 0.0
H417 H 0.61677 0.77768 0.78362 0.0
H418 H 0.60106 0.73447 0.76085 0.0
H419 H 0.49233 0.71132 0.75299 0.0
H420 H 0.50722 0.75412 0.77591 0.0
H421 H 0.65343 0.96155 0.79407 0.0
H422 H 0.64529 0.91247 0.8047 0.0
H423 H 0.52903 0.84973 0.78729 0.0
H424 H 0.53724 0.89896 0.77627 0.0
H425 H 0.56427 0.82213 0.77766 0.0
H426 H 0.55032 0.86753 0.83023 0.0
H427 H 0.56669 0.91126 0.85279 0.0
H428 H 0.67048 0.92697 0.86407 0.0
H429 H 0.65499 0.88366 0.84139 0.0
C430 C 0.55623 0.70781 0.82101 0.0
C431 C 0.5904 0.71613 0.82761 0.0
C432 C 0.55352 0.73295 0.81626 0.0
C433 C 0.58494 0.76693 0.81796 0.0
C434 C 0.61887 0.7753 0.82474 0.0
C435 C 0.62164 0.75025 0.82944 0.0
C436 C 0.58287 0.79391 0.81253 0.0
C437 C 0.5926 0.81981 0.82477 0.0
C438 C 0.5719 0.79451 0.7954 0.0
C439 C 0.56293 0.76881 0.78162 0.0
C440 C 0.58938 0.76317 0.77715 0.0
C441 C 0.58065 0.73879 0.76419 0.0
C442 C 0.54567 0.72008 0.75552 0.0
C443 C 0.51938 0.72578 0.75975 0.0
C444 C 0.52796 0.7501 0.77271 0.0
C445 C 0.6261 0.93733 0.79248 0.0
C446 C 0.59602 0.93417 0.78426 0.0
C447 C 0.62139 0.90929 0.79871 0.0
C448 C 0.58646 0.87739 0.79694 0.0
C449 C 0.55621 0.8741 0.78885 0.0
C450 C 0.56086 0.90227 0.78267 0.0
C451 C 0.58225 0.84755 0.80306 0.0
C452 C 0.57137 0.82112 0.79095 0.0
C453 C 0.59218 0.84646 0.82032 0.0
C454 C 0.6016 0.8725 0.83401 0.0
C455 C 0.57677 0.88048 0.83743 0.0
C456 C 0.58587 0.90517 0.85025 0.0
C457 C 0.61964 0.92193 0.85983 0.0
C458 C 0.64434 0.91398 0.85663 0.0
C459 C 0.63539 0.88933 0.8438 0.0
H460 H 0.62663 0.94103 0.86976 0.0
H461 H 0.53897 0.70123 0.74549 0.0
H462 H 0.84567 0.45406 0.21461 0.0
H463 H 0.77683 0.41611 0.21104 0.0
H464 H 0.78279 0.48428 0.17629 0.0
H465 H 0.85069 0.52166 0.17953 0.0
H466 H 0.72532 0.46014 0.19789 0.0
H467 H 0.77986 0.4166 0.1616 0.0
H468 H 0.81459 0.39297 0.15732 0.0
H469 H 0.73593 0.31131 0.18923 0.0
H470 H 0.70099 0.33473 0.1939 0.0
H471 H 0.61043 0.39572 0.12517 0.0
H472 H 0.66322 0.41219 0.14404 0.0
H473 H 0.58732 0.33235 0.17782 0.0
H474 H 0.53368 0.31606 0.15914 0.0
H475 H 0.6685 0.35003 0.16656 0.0
H476 H 0.60618 0.39078 0.19619 0.0
H477 H 0.57281 0.41595 0.19686 0.0
H478 H 0.66852 0.50488 0.17491 0.0
H479 H 0.70222 0.48001 0.17384 0.0
C480 C 0.83222 0.46108 0.20636 0.0
C481 C 0.8538 0.49109 0.19746 0.0
C482 C 0.79292 0.43939 0.20437 0.0
C483 C 0.77475 0.44737 0.19337 0.0
C484 C 0.79616 0.47778 0.185 0.0
C485 C 0.83514 0.49931 0.18696 0.0
C486 C 0.73387 0.4237 0.18932 0.0
C487 C 0.71267 0.43578 0.19133 0.0
C488 C 0.71709 0.39159 0.18109 0.0
C489 C 0.73813 0.37763 0.17829 0.0
C490 C 0.77016 0.39376 0.16782 0.0
C491 C 0.78985 0.38039 0.16531 0.0
C492 C 0.7775 0.35072 0.17304 0.0
C493 C 0.74547 0.33434 0.1833 0.0
C494 C 0.72573 0.34764 0.18588 0.0
C495 C 0.60487 0.38152 0.13656 0.0
C496 C 0.56786 0.35497 0.14085 0.0
C497 C 0.63507 0.39078 0.14723 0.0
C498 C 0.62895 0.37358 0.16231 0.0
C499 C 0.5924 0.34579 0.16617 0.0
C500 C 0.56193 0.33655 0.15549 0.0
C501 C 0.66093 0.38729 0.17454 0.0
C502 C 0.68047 0.37353 0.17395 0.0
C503 C 0.67649 0.41808 0.18392 0.0
C504 C 0.65665 0.43345 0.18489 0.0
C505 C 0.62001 0.41562 0.19141 0.0
C506 C 0.60105 0.42984 0.19187 0.0
C507 C 0.61852 0.46198 0.18592 0.0
C508 C 0.65503 0.47999 0.17953 0.0
C509 C 0.6741 0.46586 0.17902 0.0
H510 H 0.60378 0.47294 0.18627 0.0
H511 H 0.79263 0.34034 0.17102 0.0
H512 H 0.40692 0.92956 0.46573 0.0
H513 H 0.35073 0.8711 0.46273 0.0
H514 H 0.41469 0.83851 0.48029 0.0
H515 H 0.47114 0.89697 0.48333 0.0
H516 H 0.37015 0.80092 0.45159 0.0
H517 H 0.35468 0.83816 0.5073 0.0
H518 H 0.35116 0.87549 0.52778 0.0
H519 H 0.25704 0.85472 0.49865 0.0
H520 H 0.26034 0.81762 0.47783 0.0
H521 H 0.21811 0.63199 0.46375 0.0
H522 H 0.27276 0.69023 0.46924 0.0
H523 H 0.20686 0.72314 0.45555 0.0
H524 H 0.15133 0.66465 0.45081 0.0
H525 H 0.25248 0.76085 0.48246 0.0
H526 H 0.26792 0.72488 0.42652 0.0
H527 H 0.2713 0.68826 0.40539 0.0
H528 H 0.3652 0.7075 0.43399 0.0
H529 H 0.36205 0.74389 0.45545 0.0
C530 C 0.40914 0.91001 0.46896 0.0
C531 C 0.44367 0.91809 0.4748 0.0
C532 C 0.37686 0.87654 0.46731 0.0
C533 C 0.3783 0.85032 0.47143 0.0
C534 C 0.41281 0.85826 0.47706 0.0
C535 C 0.44508 0.89176 0.47883 0.0
C536 C 0.34392 0.81466 0.46969 0.0
C537 C 0.34461 0.79205 0.45854 0.0
C538 C 0.31016 0.8032 0.47837 0.0
C539 C 0.308 0.82537 0.49091 0.0
C540 C 0.33342 0.84176 0.50518 0.0
C541 C 0.33143 0.86285 0.51686 0.0
C542 C 0.30396 0.86755 0.51449 0.0
C543 C 0.27834 0.85109 0.50045 0.0
C544 C 0.28024 0.83001 0.48872 0.0
C545 C 0.21481 0.65145 0.46225 0.0
C546 C 0.18003 0.64333 0.45678 0.0
C547 C 0.2464 0.68492 0.46517 0.0
C548 C 0.24431 0.71128 0.46248 0.0
C549 C 0.20939 0.70334 0.45761 0.0
C550 C 0.17765 0.6698 0.45476 0.0
C551 C 0.27871 0.74701 0.46437 0.0
C552 C 0.27802 0.76966 0.47552 0.0
C553 C 0.31244 0.75861 0.45559 0.0
C554 C 0.3145 0.73684 0.44268 0.0
C555 C 0.28911 0.7211 0.42837 0.0
C556 C 0.29101 0.70042 0.41633 0.0
C557 C 0.31838 0.69549 0.41837 0.0
C558 C 0.34398 0.71131 0.43244 0.0
C559 C 0.34217 0.73199 0.44454 0.0
H560 H 0.31981 0.67947 0.40903 0.0
H561 H 0.30246 0.88387 0.52356 0.0
H562 H 0.5821 0.36173 0.83267 0.0
H563 H 0.59213 0.32076 0.82315 0.0
H564 H 0.47625 0.24024 0.83361 0.0
H565 H 0.46671 0.28102 0.84447 0.0
H566 H 0.51681 0.22283 0.84308 0.0
H567 H 0.51002 0.2677 0.79103 0.0
H568 H 0.5263 0.31192 0.77129 0.0
H569 H 0.64033 0.34507 0.7696 0.0
H570 H 0.62486 0.30133 0.78954 0.0
H571 H 0.51571 0.09899 0.79092 0.0
H572 H 0.50262 0.13771 0.8019 0.0
H573 H 0.6212 0.21998 0.80136 0.0
H574 H 0.63442 0.18161 0.79035 0.0
H575 H 0.57661 0.23456 0.78624 0.0
H576 H 0.58095 0.18814 0.83903 0.0
H577 H 0.56199 0.14232 0.85814 0.0
H578 H 0.44805 0.10952 0.85702 0.0
H579 H 0.46624 0.15489 0.8377 0.0
C580 C 0.55881 0.33534 0.83328 0.0
C581 C 0.52345 0.32491 0.8393 0.0
C582 C 0.56448 0.31184 0.82753 0.0
C583 C 0.53473 0.27727 0.82723 0.0
C584 C 0.49963 0.26672 0.83355 0.0
C585 C 0.49409 0.2902 0.83957 0.0
C586 C 0.54023 0.2522 0.82033 0.0
C587 C 0.52937 0.22519 0.83052 0.0
C588 C 0.55701 0.25527 0.80402 0.0
C589 C 0.56635 0.28142 0.7919 0.0
C590 C 0.53863 0.28456 0.78653 0.0
C591 C 0.5477 0.30952 0.7753 0.0
C592 C 0.58434 0.33134 0.76923 0.0
C593 C 0.61196 0.32818 0.77433 0.0
C594 C 0.60305 0.30328 0.78558 0.0
C595 C 0.53895 0.12533 0.79315 0.0
C596 C 0.57612 0.13718 0.78988 0.0
C597 C 0.53146 0.14739 0.7995 0.0
C598 C 0.56097 0.18173 0.80254 0.0
C599 C 0.59801 0.1936 0.79915 0.0
C600 C 0.60554 0.17157 0.79299 0.0
C601 C 0.55345 0.20553 0.80904 0.0
C602 C 0.56389 0.23223 0.79875 0.0
C603 C 0.5358 0.20189 0.82511 0.0
C604 C 0.52488 0.17468 0.83676 0.0
C605 C 0.55178 0.17098 0.84273 0.0
C606 C 0.54119 0.14512 0.85363 0.0
C607 C 0.50382 0.12296 0.85875 0.0
C608 C 0.47698 0.12667 0.85302 0.0
C609 C 0.48742 0.15246 0.84211 0.0
H610 H 0.49567 0.10297 0.86719 0.0
H611 H 0.59132 0.35067 0.76054 0.0
H612 H 0.63145 0.88799 0.51975 0.0
H613 H 0.62682 0.83854 0.52624 0.0
H614 H 0.51161 0.77458 0.50733 0.0
H615 H 0.51615 0.82431 0.50056 0.0
H616 H 0.52083 0.75277 0.5377 0.0
H617 H 0.57774 0.78264 0.48222 0.0
H618 H 0.62249 0.82023 0.46016 0.0
H619 H 0.7149 0.84254 0.49148 0.0
H620 H 0.67074 0.80547 0.51388 0.0
H621 H 0.52741 0.61261 0.54199 0.0
H622 H 0.51874 0.6526 0.53062 0.0
H623 H 0.63288 0.73456 0.54628 0.0
H624 H 0.64184 0.69498 0.55733 0.0
H625 H 0.61618 0.74105 0.51364 0.0
H626 H 0.55886 0.71598 0.57045 0.0
H627 H 0.51383 0.67857 0.5925 0.0
H628 H 0.42136 0.64643 0.55802 0.0
H629 H 0.46591 0.68335 0.53565 0.0
C630 C 0.60518 0.86345 0.51679 0.0
C631 C 0.57435 0.86017 0.50937 0.0
C632 C 0.60255 0.83516 0.52057 0.0
C633 C 0.56909 0.80281 0.51698 0.0
C634 C 0.53777 0.7993 0.51012 0.0
C635 C 0.54039 0.82774 0.5063 0.0
C636 C 0.56747 0.773 0.52038 0.0
C637 C 0.54117 0.74979 0.53217 0.0
C638 C 0.5942 0.76922 0.51328 0.0
C639 C 0.62091 0.79142 0.49979 0.0
C640 C 0.60762 0.79574 0.48447 0.0
C641 C 0.63288 0.81694 0.47189 0.0
C642 C 0.67152 0.83381 0.47443 0.0
C643 C 0.68496 0.82946 0.48954 0.0
C644 C 0.65982 0.80833 0.50217 0.0
C645 C 0.55067 0.63915 0.54289 0.0
C646 C 0.5852 0.65065 0.5507 0.0
C647 C 0.54562 0.66197 0.5365 0.0
C648 C 0.57508 0.69662 0.53773 0.0
C649 C 0.60972 0.70798 0.54522 0.0
C650 C 0.6147 0.68532 0.55167 0.0
C651 C 0.57033 0.72145 0.53137 0.0
C652 C 0.59545 0.74371 0.51897 0.0
C653 C 0.54244 0.72422 0.53786 0.0
C654 C 0.5157 0.70209 0.5513 0.0
C655 C 0.52893 0.70071 0.56751 0.0
C656 C 0.5035 0.67965 0.58008 0.0
C657 C 0.46476 0.66005 0.57664 0.0
C658 C 0.45138 0.66156 0.56065 0.0
C659 C 0.4767 0.68256 0.54802 0.0
H660 H 0.44512 0.64376 0.58639 0.0
H661 H 0.69103 0.8502 0.46467 0.0
H662 H 0.69553 0.57162 0.84262 0.0
H663 H 0.75055 0.57186 0.84456 0.0
H664 H 0.68295 0.47658 0.86847 0.0
H665 H 0.62793 0.47633 0.86658 0.0
H666 H 0.7504 0.51528 0.885 0.0
H667 H 0.71302 0.48598 0.82464 0.0
H668 H 0.69692 0.49313 0.79549 0.0
H669 H 0.80671 0.5875 0.79254 0.0
H670 H 0.8233 0.58112 0.82179 0.0
H671 H 0.88927 0.48602 0.88067 0.0
H672 H 0.83279 0.48279 0.87791 0.0
H673 H 0.89233 0.56848 0.84601 0.0
H674 H 0.94786 0.57026 0.8475 0.0
H675 H 0.82766 0.53373 0.83354 0.0
H676 H 0.86534 0.5656 0.8937 0.0
H677 H 0.88232 0.56092 0.92325 0.0
H678 H 0.77403 0.46547 0.92723 0.0
H679 H 0.75657 0.46941 0.89761 0.0
C680 C 0.69209 0.55055 0.84826 0.0
C681 C 0.6564 0.52378 0.85427 0.0
C682 C 0.72393 0.55063 0.84931 0.0
C683 C 0.72176 0.52404 0.85652 0.0
C684 C 0.68624 0.49755 0.86277 0.0
C685 C 0.65432 0.4973 0.86156 0.0
C686 C 0.75613 0.52389 0.8576 0.0
C687 C 0.76687 0.5189 0.87363 0.0
C688 C 0.77908 0.52941 0.84308 0.0
C689 C 0.76927 0.53322 0.82547 0.0
C690 C 0.73364 0.50837 0.81783 0.0
C691 C 0.72444 0.51227 0.80128 0.0
C692 C 0.75074 0.5408 0.79219 0.0
C693 C 0.78635 0.56544 0.79961 0.0
C694 C 0.79567 0.56168 0.81616 0.0
C695 C 0.89071 0.5041 0.87282 0.0
C696 C 0.9247 0.5287 0.86453 0.0
C697 C 0.85792 0.50258 0.8715 0.0
C698 C 0.85737 0.52596 0.86211 0.0
C699 C 0.89094 0.55003 0.85353 0.0
C700 C 0.92353 0.5513 0.85464 0.0
C701 C 0.82237 0.52537 0.86103 0.0
C702 C 0.81138 0.53018 0.84498 0.0
C703 C 0.79945 0.52008 0.87559 0.0
C704 C 0.80982 0.51764 0.89338 0.0
C705 C 0.84525 0.54352 0.90084 0.0
C706 C 0.85494 0.54101 0.9176 0.0
C707 C 0.82931 0.51287 0.92709 0.0
C708 C 0.79388 0.48722 0.91985 0.0
C709 C 0.78406 0.48959 0.90309 0.0
H710 H 0.83687 0.51097 0.94006 0.0
H711 H 0.74356 0.54377 0.77938 0.0
H712 H 0.15247 0.66028 0.18 0.0
H713 H 0.21271 0.71591 0.1823 0.0
H714 H 0.25959 0.6841 0.14502 0.0
H715 H 0.19921 0.62762 0.14303 0.0
H716 H 0.30952 0.72161 0.17006 0.0
H717 H 0.23387 0.73508 0.134 0.0
H718 H 0.17785 0.73054 0.12535 0.0
H719 H 0.19329 0.79188 0.17047 0.0
H720 H 0.24913 0.79641 0.17953 0.0
H721 H 0.47236 0.89037 0.15896 0.0
H722 H 0.41323 0.83441 0.15311 0.0
H723 H 0.36016 0.85333 0.19384 0.0
H724 H 0.41933 0.909 0.20008 0.0
H725 H 0.31453 0.82246 0.16464 0.0
H726 H 0.38947 0.80623 0.20087 0.0
H727 H 0.44582 0.81064 0.20865 0.0
H728 H 0.4322 0.75457 0.16146 0.0
H729 H 0.37604 0.75024 0.15327 0.0
C730 C 0.17547 0.66497 0.17222 0.0
C731 C 0.17074 0.63938 0.1612 0.0
C732 C 0.21002 0.69702 0.1735 0.0
C733 C 0.24072 0.70467 0.16356 0.0
C734 C 0.23637 0.67901 0.15276 0.0
C735 C 0.20176 0.6467 0.1516 0.0
C736 C 0.27724 0.73935 0.16467 0.0
C737 C 0.31063 0.74359 0.16855 0.0
C738 C 0.27895 0.76831 0.16297 0.0
C739 C 0.24553 0.76586 0.15751 0.0
C740 C 0.22518 0.74742 0.14214 0.0
C741 C 0.19348 0.74487 0.13715 0.0
C742 C 0.18198 0.76085 0.14737 0.0
C743 C 0.20222 0.7795 0.16257 0.0
C744 C 0.23393 0.7821 0.16763 0.0
C745 C 0.44823 0.88268 0.16677 0.0
C746 C 0.45097 0.90441 0.1801 0.0
C747 C 0.41433 0.8506 0.16335 0.0
C748 C 0.38225 0.83938 0.17317 0.0
C749 C 0.38447 0.86135 0.18607 0.0
C750 C 0.4184 0.89337 0.18956 0.0
C751 C 0.34656 0.80462 0.17023 0.0
C752 C 0.31337 0.80041 0.166 0.0
C753 C 0.34513 0.77574 0.17143 0.0
C754 C 0.3788 0.77824 0.17637 0.0
C755 C 0.39867 0.79508 0.19208 0.0
C756 C 0.43055 0.79753 0.19658 0.0
C757 C 0.44265 0.78298 0.18553 0.0
C758 C 0.42283 0.76588 0.16999 0.0
C759 C 0.39097 0.76341 0.16542 0.0
H760 H 0.46733 0.78489 0.18904 0.0
H761 H 0.15741 0.75884 0.14349 0.0
H762 H 0.45757 0.16511 0.48848 0.0
H763 H 0.46862 0.21707 0.49912 0.0
H764 H 0.58754 0.26501 0.50428 0.0
H765 H 0.57647 0.21261 0.4945 0.0
H766 H 0.56513 0.28039 0.53193 0.0
H767 H 0.54907 0.28059 0.47034 0.0
H768 H 0.51693 0.25772 0.44162 0.0
H769 H 0.42229 0.25137 0.46102 0.0
H770 H 0.45367 0.2738 0.48993 0.0
H771 H 0.63166 0.44917 0.54039 0.0
H772 H 0.61732 0.39627 0.52887 0.0
H773 H 0.4985 0.34951 0.53073 0.0
H774 H 0.5127 0.40273 0.54207 0.0
H775 H 0.51891 0.33302 0.49983 0.0
H776 H 0.53674 0.33431 0.56142 0.0
H777 H 0.57027 0.35827 0.58977 0.0
H778 H 0.66347 0.36292 0.56975 0.0
H779 H 0.63071 0.33943 0.54118 0.0
C780 C 0.48608 0.18659 0.492 0.0
C781 C 0.51611 0.18452 0.49062 0.0
C782 C 0.49242 0.21648 0.4979 0.0
C783 C 0.529 0.24521 0.50231 0.0
C784 C 0.55906 0.24327 0.5009 0.0
C785 C 0.55272 0.21332 0.49512 0.0
C786 C 0.53588 0.27701 0.50881 0.0
C787 C 0.55545 0.29209 0.52476 0.0
C788 C 0.52245 0.29196 0.49973 0.0
C789 C 0.50356 0.27856 0.48235 0.0
C790 C 0.52128 0.27407 0.46852 0.0
C791 C 0.50322 0.26123 0.4522 0.0
C792 C 0.46755 0.25301 0.44951 0.0
C793 C 0.4499 0.25771 0.46312 0.0
C794 C 0.46782 0.27051 0.47948 0.0
C795 C 0.60246 0.42778 0.53816 0.0
C796 C 0.57331 0.43021 0.54213 0.0
C797 C 0.5943 0.39746 0.53171 0.0
C798 C 0.55684 0.36884 0.52909 0.0
C799 C 0.52762 0.37127 0.53269 0.0
C800 C 0.53576 0.40161 0.53928 0.0
C801 C 0.54839 0.33638 0.52281 0.0
C802 C 0.52851 0.3212 0.50696 0.0
C803 C 0.56171 0.32142 0.53191 0.0
C804 C 0.5814 0.33539 0.54911 0.0
C805 C 0.56451 0.34069 0.56302 0.0
C806 C 0.58335 0.35414 0.57914 0.0
C807 C 0.61901 0.36219 0.58155 0.0
C808 C 0.63586 0.35671 0.56786 0.0
C809 C 0.61715 0.3433 0.5517 0.0
H810 H 0.63356 0.3726 0.59404 0.0
H811 H 0.45362 0.24308 0.43687 0.0
H812 H 0.48694 0.5712 0.84762 0.0
H813 H 0.43278 0.57221 0.84946 0.0
H814 H 0.36327 0.47024 0.86539 0.0
H815 H 0.41735 0.46901 0.86331 0.0
H816 H 0.32179 0.47586 0.84438 0.0
H817 H 0.39893 0.54431 0.89435 0.0
H818 H 0.45734 0.59092 0.90974 0.0
H819 H 0.4588 0.66198 0.87988 0.0
H820 H 0.40061 0.61575 0.86418 0.0
H821 H 0.16474 0.4729 0.8708 0.0
H822 H 0.21828 0.47138 0.86906 0.0
H823 H 0.29094 0.57591 0.85764 0.0
H824 H 0.23817 0.57824 0.86045 0.0
H825 H 0.33106 0.56882 0.87634 0.0
H826 H 0.25568 0.50226 0.82605 0.0
H827 H 0.19855 0.45666 0.8095 0.0
H828 H 0.19489 0.38344 0.83834 0.0
H829 H 0.25176 0.42863 0.85521 0.0
C830 C 0.46023 0.54888 0.85155 0.0
C831 C 0.45733 0.52005 0.85537 0.0
C832 C 0.42888 0.54954 0.85273 0.0
C833 C 0.39304 0.52148 0.85788 0.0
C834 C 0.39001 0.4925 0.86142 0.0
C835 C 0.42138 0.49184 0.86027 0.0
C836 C 0.35903 0.52221 0.8595 0.0
C837 C 0.32395 0.49607 0.85161 0.0
C838 C 0.36086 0.54874 0.86846 0.0
C839 C 0.39562 0.57656 0.87799 0.0
C840 C 0.41183 0.56987 0.891 0.0
C841 C 0.44488 0.59622 0.89979 0.0
C842 C 0.46182 0.62939 0.89576 0.0
C843 C 0.44567 0.63628 0.88297 0.0
C844 C 0.41264 0.61002 0.87414 0.0
C845 C 0.19197 0.49587 0.86804 0.0
C846 C 0.19577 0.52567 0.86567 0.0
C847 C 0.22306 0.4948 0.86676 0.0
C848 C 0.25967 0.52334 0.86279 0.0
C849 C 0.26363 0.55316 0.8606 0.0
C850 C 0.23266 0.55432 0.862 0.0
C851 C 0.29363 0.52245 0.86119 0.0
C852 C 0.32877 0.54857 0.86909 0.0
C853 C 0.29193 0.49605 0.85209 0.0
C854 C 0.25773 0.46884 0.84202 0.0
C855 C 0.24253 0.47643 0.82895 0.0
C856 C 0.21022 0.45066 0.8195 0.0
C857 C 0.19304 0.41718 0.82291 0.0
C858 C 0.20819 0.40939 0.83574 0.0
C859 C 0.24047 0.43507 0.84524 0.0
H860 H 0.16803 0.39726 0.81557 0.0
H861 H 0.48742 0.64975 0.90256 0.0
H862 H 0.93095 0.45849 0.17153 0.0
H863 H 0.87367 0.40173 0.17515 0.0
H864 H 0.92033 0.36146 0.14426 0.0
H865 H 0.9781 0.41836 0.14074 0.0
H866 H 0.84337 0.3293 0.13654 0.0
H867 H 0.92384 0.36163 0.18762 0.0
H868 H 0.96222 0.39975 0.21278 0.0
H869 H 0.86533 0.38766 0.23384 0.0
H870 H 0.82659 0.35005 0.20862 0.0
H871 H 0.72956 0.16054 0.16016 0.0
H872 H 0.77964 0.21857 0.15393 0.0
H873 H 0.73852 0.25242 0.19338 0.0
H874 H 0.68962 0.19427 0.20051 0.0
H875 H 0.81051 0.28957 0.19667 0.0
H876 H 0.72875 0.25705 0.14792 0.0
H877 H 0.68817 0.22193 0.12253 0.0
H878 H 0.78287 0.23685 0.09685 0.0
H879 H 0.82395 0.27171 0.1222 0.0
C880 C 0.9292 0.43768 0.16551 0.0
C881 C 0.95958 0.44316 0.15609 0.0
C882 C 0.89625 0.40513 0.16754 0.0
C883 C 0.89282 0.3772 0.16018 0.0
C884 C 0.92234 0.38258 0.15011 0.0
C885 C 0.95543 0.41519 0.14813 0.0
C886 C 0.85927 0.34241 0.16368 0.0
C887 C 0.8364 0.32041 0.14965 0.0
C888 C 0.8493 0.33118 0.18085 0.0
C889 C 0.87238 0.35316 0.19621 0.0
C890 C 0.91078 0.36724 0.19758 0.0
C891 C 0.93261 0.38879 0.21184 0.0
C892 C 0.91625 0.39616 0.22489 0.0
C893 C 0.87802 0.38199 0.22372 0.0
C894 C 0.85609 0.36053 0.20945 0.0
C895 C 0.73112 0.1802 0.16763 0.0
C896 C 0.70537 0.17235 0.18097 0.0
C897 C 0.75964 0.21358 0.16385 0.0
C898 C 0.7629 0.24021 0.17301 0.0
C899 C 0.73677 0.2325 0.18607 0.0
C900 C 0.70842 0.19905 0.19 0.0
C901 C 0.79453 0.27593 0.16947 0.0
C902 C 0.81718 0.29824 0.18351 0.0
C903 C 0.80388 0.28762 0.15232 0.0
C904 C 0.77934 0.26673 0.13703 0.0
C905 C 0.74086 0.25263 0.13692 0.0
C906 C 0.71778 0.23281 0.12252 0.0
C907 C 0.73291 0.22709 0.10811 0.0
C908 C 0.77118 0.24127 0.10804 0.0
C909 C 0.79439 0.26109 0.1224 0.0
H910 H 0.715 0.21174 0.09697 0.0
H911 H 0.93321 0.41276 0.23593 0.0
H912 H 0.06304 0.60205 0.10748 0.0
H913 H 0.06467 0.59847 0.07554 0.0
H914 H 0.0536 0.5071 0.07772 0.0
H915 H 0.05105 0.51012 0.10959 0.0
H916 H 0.11038 0.55463 0.05457 0.0
H917 H 0.97961 0.49958 0.06688 0.0
H918 H 0.92633 0.49512 0.08022 0.0
H919 H 0.95486 0.5804 0.05305 0.0
H920 H 1.00869 0.58567 0.03974 0.0
H921 H 0.07188 0.50453 0.96453 0.0
H922 H 0.07012 0.50645 0.99641 0.0
H923 H 0.05358 0.58273 0.99536 0.0
H924 H 0.05387 0.57985 0.9635 0.0
H925 H 1.01076 0.54214 0.01843 0.0
H926 H 0.14147 0.59902 0.00637 0.0
H927 H 0.19654 0.6061 0.9934 0.0
H928 H 0.17126 0.52163 0.02024 0.0
H929 H 0.11573 0.51378 0.0332 0.0
C930 C 0.06101 0.58125 0.10114 0.0
C931 C 0.05695 0.55639 0.11102 0.0
C932 C 0.0619 0.5792 0.08291 0.0
C933 C 0.05914 0.55245 0.07424 0.0
C934 C 0.05586 0.52798 0.08413 0.0
C935 C 0.05439 0.52974 0.10233 0.0
C936 C 0.05904 0.5497 0.05487 0.0
C937 C 0.0884 0.5515 0.04663 0.0
C938 C 1.03085 0.54643 0.04453 0.0
C939 C 0.99841 0.54323 0.05246 0.0
C940 C 0.97473 0.51756 0.06387 0.0
C941 C 0.94439 0.51485 0.0714 0.0
C942 C 0.93727 0.53752 0.06753 0.0
C943 C 0.96044 0.56289 0.05607 0.0
C944 C 0.99085 0.56574 0.04851 0.0
C945 C 0.06792 0.52172 0.97113 0.0
C946 C 0.06303 0.54204 0.96151 0.0
C947 C 0.0671 0.52295 0.98939 0.0
C948 C 0.06238 0.5452 0.99845 0.0
C949 C 0.05723 0.56532 0.98878 0.0
C950 C 0.05739 0.56366 0.97054 0.0
C951 C 0.0624 0.54736 0.01794 0.0
C952 C 1.03292 0.54536 0.02626 0.0
C953 C 0.0908 0.55089 0.02835 0.0
C954 C 0.12423 0.55561 0.02062 0.0
C955 C 0.1475 0.58181 0.00941 0.0
C956 C 0.17882 0.58599 0.00207 0.0
C957 C 0.18734 0.56427 0.00595 0.0
C958 C 0.1646 0.5384 0.01722 0.0
C959 C 0.13322 0.53409 0.02458 0.0
H960 H 0.21159 0.56755 0.00026 0.0
H961 H 0.91376 0.53538 0.07337 0.0
H962 H 0.49978 1.00102 0.43248 0.0
H963 H 0.49656 0.00828 0.4013 0.0
H964 H 0.61718 0.06443 0.39851 0.0
H965 H 0.62049 0.05744 0.4295 0.0
H966 H 0.59307 0.09256 0.37988 0.0
H967 H 0.5579 0.98118 0.38605 0.0
H968 H 0.51953 0.92435 0.39729 0.0
H969 H 0.42015 0.90367 0.37381 0.0
H970 H 0.45791 0.96059 0.36261 0.0
H971 H 0.63041 0.07494 0.29224 0.0
H972 H 0.62301 0.0752 0.32374 0.0
H973 H 0.50258 0.01631 0.31649 0.0
H974 H 0.5098 0.01598 0.28485 0.0
H975 H 0.51907 0.99049 0.34036 0.0
H976 H 0.55667 0.09977 0.33048 0.0
H977 H 0.59551 0.15666 0.31936 0.0
H978 H 0.69034 0.182 0.34982 0.0
H979 H 0.65228 0.12507 0.36091 0.0
C980 C 0.52555 0.0151 0.42519 0.0
C981 C 0.56032 0.02831 0.43329 0.0
C982 C 0.5237 0.01918 0.4074 0.0
C983 C 0.55659 0.03653 0.39751 0.0
C984 C 0.59143 0.05087 0.40583 0.0
C985 C 0.59326 0.0467 0.42353 0.0
C986 C 0.555 0.03857 0.37834 0.0
C987 C 0.57704 0.07027 0.3712 0.0
C988 C 0.53327 0.00951 0.36706 0.0
C989 C 0.51063 0.97525 0.37368 0.0
C990 C 0.52782 0.96459 0.38339 0.0
C991 C 0.5062 0.93236 0.38974 0.0
C992 C 0.46741 0.91045 0.38631 0.0
C993 C 0.45018 0.92069 0.37648 0.0
C994 C 0.47168 0.95293 0.37013 0.0
C995 C 0.60238 0.06262 0.2973 0.0
C996 C 0.5707 0.04554 0.28598 0.0
C997 C 0.59818 0.06276 0.31535 0.0
C998 C 0.56226 0.04609 0.32253 0.0
C999 C 0.53059 0.02936 0.31127 0.0
C1000 C 0.53476 0.02913 0.29319 0.0
C1001 C 0.5578 0.04455 0.34178 0.0
C1002 C 0.53465 0.01289 0.34896 0.0
C1003 C 0.57858 0.0737 0.35309 0.0
C1004 C 0.60166 0.10798 0.3464 0.0
C1005 C 0.5859 0.11735 0.33469 0.0
C1006 C 0.60778 0.14964 0.32841 0.0
C1007 C 0.6454 0.1729 0.33384 0.0
C1008 C 0.66121 0.16394 0.3456 0.0
C1009 C 0.63949 0.13166 0.35189 0.0
H1010 H 0.66227 0.19789 0.32898 0.0
H1011 H 0.45071 0.8855 0.39124 0.0
H1012 H 0.49498 0.47888 0.79386 0.0
H1013 H 0.50942 0.48928 0.76306 0.0
H1014 H 0.62683 0.56509 0.77654 0.0
H1015 H 0.61246 0.55462 0.8076 0.0
H1016 H 0.59993 0.58371 0.75029 0.0
H1017 H 0.60152 0.4919 0.76209 0.0
H1018 H 0.5774 0.43717 0.77347 0.0
H1019 H 0.48053 0.38822 0.73921 0.0
H1020 H 0.5038 0.44276 0.7278 0.0
H1021 H 0.65947 0.58749 0.6631 0.0
H1022 H 0.65193 0.58303 0.69465 0.0
H1023 H 0.53385 0.50127 0.68689 0.0
H1024 H 0.5414 0.50499 0.6553 0.0
H1025 H 0.5659 0.4875 0.71081 0.0
H1026 H 0.56335 0.57981 0.69986 0.0
H1027 H 0.58737 0.63467 0.68869 0.0
H1028 H 0.68644 0.68285 0.72139 0.0
H1029 H 0.66323 0.62817 0.73258 0.0
C1030 C 0.52387 0.49792 0.7903 0.0
C1031 C 0.55266 0.5158 0.8031 0.0
C1032 C 0.53207 0.50378 0.77269 0.0
C1033 C 0.56925 0.52761 0.7675 0.0
C1034 C 0.59796 0.5465 0.78029 0.0
C1035 C 0.58975 0.54052 0.79799 0.0
C1036 C 0.57785 0.53178 0.74867 0.0
C1037 C 0.59311 0.56287 0.74168 0.0
C1038 C 0.56831 0.50438 0.73742 0.0
C1039 C 0.55426 0.47148 0.7442 0.0
C1040 C 0.57492 0.46951 0.75708 0.0
C1041 C 0.56143 0.43851 0.76352 0.0
C1042 C 0.52741 0.40924 0.7571 0.0
C1043 C 0.50686 0.41091 0.74419 0.0
C1044 C 0.52021 0.44186 0.73772 0.0
C1045 C 0.63194 0.56838 0.6681 0.0
C1046 C 0.60102 0.54657 0.65666 0.0
C1047 C 0.62761 0.56609 0.68615 0.0
C1048 C 0.59224 0.54204 0.69315 0.0
C1049 C 0.56138 0.5201 0.68178 0.0
C1050 C 0.56567 0.52241 0.66373 0.0
C1051 C 0.58745 0.53933 0.71232 0.0
C1052 C 0.57294 0.50844 0.7194 0.0
C1053 C 0.59775 0.56695 0.72362 0.0
C1054 C 0.61174 0.59984 0.71691 0.0
C1055 C 0.59041 0.60206 0.70456 0.0
C1056 C 0.60385 0.63313 0.69824 0.0
C1057 C 0.63846 0.66221 0.70429 0.0
C1058 C 0.65966 0.66029 0.7167 0.0
C1059 C 0.64637 0.62927 0.72304 0.0
H1060 H 0.64881 0.68625 0.69939 0.0
H1061 H 0.51702 0.38526 0.76209 0.0
H1062 H 0.47217 0.98835 0.53592 0.0
H1063 H 0.48182 0.98787 0.56716 0.0
H1064 H 0.60182 0.04732 0.55991 0.0
H1065 H 0.59209 0.04702 0.52853 0.0
H1066 H 0.58074 1.00092 0.58249 0.0
H1067 H 0.55893 0.08262 0.57545 0.0
H1068 H 0.52436 0.10329 0.56547 0.0
H1069 H 0.42935 0.03121 0.59572 0.0
H1070 H 0.46319 0.0098 0.6057 0.0
H1071 H 0.64304 0.06698 0.66931 0.0
H1072 H 0.62944 0.05937 0.63799 0.0
H1073 H 0.5103 0.99484 0.64778 0.0
H1074 H 0.52374 1.00293 0.67925 0.0
H1075 H 0.52871 0.04123 0.62414 0.0
H1076 H 0.55319 0.96183 0.63238 0.0
H1077 H 0.58928 0.94274 0.64246 0.0
H1078 H 0.68123 0.01251 0.61014 0.0
H1079 H 0.64589 0.03238 0.60004 0.0
C1080 C 0.50058 1.00114 0.541 0.0
C1081 C 0.53142 0.01795 0.52987 0.0
C1082 C 0.50609 1.00099 0.55886 0.0
C1083 C 0.54262 0.01813 0.56598 0.0
C1084 C 0.57339 0.03404 0.55475 0.0
C1085 C 0.56783 0.03392 0.53684 0.0
C1086 C 0.54881 0.02013 0.58514 0.0
C1087 C 0.56972 0.01009 0.59158 0.0
C1088 C 0.53377 0.03142 0.59708 0.0
C1089 C 0.51345 0.04439 0.59118 0.0
C1090 C 0.53056 0.07102 0.57987 0.0
C1091 C 0.51112 0.08289 0.57423 0.0
C1092 C 0.47464 0.06851 0.57992 0.0
C1093 C 0.45758 0.04229 0.5913 0.0
C1094 C 0.47689 0.0303 0.59697 0.0
C1095 C 0.61392 0.05128 0.66482 0.0
C1096 C 0.58446 0.03563 0.67679 0.0
C1097 C 0.60619 0.04669 0.6469 0.0
C1098 C 0.56885 0.02627 0.64052 0.0
C1099 C 0.53934 0.0106 0.65241 0.0
C1100 C 0.54705 0.01507 0.67038 0.0
C1101 C 0.56075 0.02215 0.62146 0.0
C1102 C 0.53954 0.03187 0.61505 0.0
C1103 C 0.57574 0.0108 0.60957 0.0
C1104 C 0.597 0.9988 0.61557 0.0
C1105 C 0.58122 0.9733 0.62752 0.0
C1106 C 0.60152 0.9623 0.63322 0.0
C1107 C 0.63756 0.97646 0.62698 0.0
C1108 C 0.65333 1.00159 0.61498 0.0
C1109 C 0.63316 0.0127 0.60925 0.0
H1110 H 0.65323 0.96791 0.63141 0.0
H1111 H 0.45963 0.07774 0.57554 0.0
H1112 H 0.62042 0.55176 0.90909 0.0
H1113 H 0.60832 0.52277 0.93614 0.0
H1114 H 0.49091 0.45157 0.92115 0.0
H1115 H 0.50284 0.48037 0.89422 0.0
H1116 H 0.56303 0.51195 0.96296 0.0
H1117 H 0.45748 0.37558 0.93428 0.0
H1118 H 0.44639 0.34217 0.90714 0.0
H1119 H 0.56371 0.41053 0.89529 0.0
H1120 H 0.57546 0.44435 0.9223 0.0
H1121 H 0.45108 0.40208 0.02877 0.0
H1122 H 0.47257 0.43116 0.00156 0.0
H1123 H 0.53752 0.39463 0.99148 0.0
H1124 H 0.51534 0.3647 0.01857 0.0
H1125 H 0.50031 0.38962 0.96238 0.0
H1126 H 0.58129 0.47408 0.00627 0.0
H1127 H 0.59732 0.50776 0.03382 0.0
H1128 H 0.53868 0.54481 0.01577 0.0
H1129 H 0.52181 0.51095 0.9882 0.0
C1130 C 0.59206 0.52995 0.91163 0.0
C1131 C 0.56259 0.51815 0.89958 0.0
C1132 C 0.58519 0.51343 0.92704 0.0
C1133 C 0.54883 0.48476 0.93053 0.0
C1134 C 0.51931 0.47327 0.91857 0.0
C1135 C 0.52613 0.48982 0.90324 0.0
C1136 C 0.54129 0.46719 0.94685 0.0
C1137 C 0.54944 0.48524 0.96284 0.0
C1138 C 0.52421 0.43247 0.94669 0.0
C1139 C 0.51727 0.41258 0.93026 0.0
C1140 C 0.48089 0.38347 0.92587 0.0
C1141 C 0.47447 0.3645 0.91049 0.0
C1142 C 0.50429 0.37425 0.89947 0.0
C1143 C 0.54057 0.4031 0.90376 0.0
C1144 C 0.5471 0.42225 0.91908 0.0
C1145 C 0.4695 0.39981 0.02065 0.0
C1146 C 0.48146 0.38102 0.02581 0.0
C1147 C 0.48209 0.41675 0.0052 0.0
C1148 C 0.50702 0.4154 0.99462 0.0
C1149 C 0.51841 0.39611 0.99951 0.0
C1150 C 0.5059 0.3792 0.01502 0.0
C1151 C 0.52109 0.43419 0.97847 0.0
C1152 C 0.5141 0.41637 0.96251 0.0
C1153 C 0.53983 0.46924 0.97868 0.0
C1154 C 0.55003 0.48975 0.99522 0.0
C1155 C 0.57156 0.48921 0.00822 0.0
C1156 C 0.58084 0.50836 0.02384 0.0
C1157 C 0.56896 0.52836 0.02656 0.0
C1158 C 0.54784 0.52929 0.01365 0.0
C1159 C 0.53844 0.51014 0.99802 0.0
H1160 H 0.57618 0.54318 0.03865 0.0
H1161 H 0.49927 0.35935 0.88765 0.0
H1162 H 1.03263 0.46992 0.2039 0.0
H1163 H 1.02505 0.46947 0.23565 0.0
H1164 H 0.09718 0.57768 0.23882 0.0
H1165 H 0.10368 0.57823 0.20701 0.0
H1166 H 0.11634 0.54172 0.26133 0.0
H1167 H 1.01913 0.55009 0.24619 0.0
H1168 H 0.96191 0.53532 0.23138 0.0
H1169 H 0.89666 0.43906 0.25396 0.0
H1170 H 0.95371 0.45294 0.26863 0.0
H1171 H 0.10196 0.56519 0.35131 0.0
H1172 H 0.10076 0.56943 0.3198 0.0
H1173 H 1.00789 0.46396 0.31418 0.0
H1174 H 1.00887 0.45956 0.34578 0.0
H1175 H 0.99879 0.50038 0.29268 0.0
H1176 H 0.09697 0.49119 0.30656 0.0
H1177 H 0.15406 0.50684 0.32204 0.0
H1178 H 0.21743 0.60519 0.30185 0.0
H1179 H 0.16054 0.59026 0.28645 0.0
C1180 C 0.0466 0.49356 0.2114 0.0
C1181 C 0.06891 0.52412 0.20313 0.0
C1182 C 0.04212 0.49327 0.22946 0.0
C1183 C 0.06056 0.52355 0.2395 0.0
C1184 C 0.08268 0.55409 0.23123 0.0
C1185 C 0.08637 0.55437 0.21313 0.0
C1186 C 0.05868 0.52326 0.25874 0.0
C1187 C 0.09083 0.53317 0.26823 0.0
C1188 C 1.02508 0.51135 0.2676 0.0
C1189 C 0.9909 0.50237 0.25829 0.0
C1190 C 0.99276 0.5255 0.24773 0.0
C1191 C 0.9603 0.51731 0.23939 0.0
C1192 C 0.92573 0.48612 0.24157 0.0
C1193 C 0.92352 0.4631 0.25216 0.0
C1194 C 0.95591 0.47112 0.2605 0.0
C1195 C 0.08124 0.54289 0.34337 0.0
C1196 C 0.0558 0.51194 0.35102 0.0
C1197 C 0.08053 0.54537 0.32537 0.0
C1198 C 0.05465 0.51689 0.31459 0.0
C1199 C 1.02815 0.48625 0.32224 0.0
C1200 C 1.02871 0.48378 0.3403 0.0
C1201 C 0.05649 0.51877 0.29532 0.0
C1202 C 1.02434 0.50902 0.2858 0.0
C1203 C 0.0901 0.53078 0.28637 0.0
C1204 C 0.12441 0.53971 0.2955 0.0
C1205 C 0.12301 0.51623 0.30552 0.0
C1206 C 0.15534 0.52496 0.31427 0.0
C1207 C 0.18933 0.55702 0.31297 0.0
C1208 C 0.19107 0.58038 0.30287 0.0
C1209 C 0.1588 0.5718 0.29412 0.0
H1210 H 0.21433 0.56373 0.31975 0.0
H1211 H 0.9006 0.4799 0.23519 0.0
loop_
_geom_bond_atom_site_label_1
_geom_bond_atom_site_label_2
_geom_bond_distance
_geom_bond_site_symmetry_2
_ccdc_geom_bond_type
La0 C2 2.928 . S
La0 O20 2.521 . S
La0 O21 2.628 . S
La0 O22 2.554 . S
La0 O23 2.757 . S
La0 O24 2.470 . S
La0 O29 2.482 . S
La0 O31 2.503 1_455 S
La1 C11 2.928 . S
La1 O23 2.482 1_655 S
La1 O25 2.503 1_655 S
La1 O26 2.521 . S
La1 O27 2.628 . S
La1 O28 2.554 1_655 S
La1 O29 2.757 1_655 S
La1 O30 2.470 . S
C2 La0 2.928 . S
C2 C3 1.503 . S
C2 O20 1.261 . S
C2 O21 1.243 . S
C3 C2 1.503 . S
C3 C4 1.394 . S
C3 C8 1.373 . S
C4 C3 1.394 . S
C4 C5 1.380 . S
C4 H32 0.930 . S
C5 C4 1.380 . S
C5 C6 1.376 . S
C5 H33 0.930 . S
C6 C5 1.376 . S
C6 C7 1.370 . S
C7 C6 1.370 . S
C7 C8 1.396 . S
C7 H34 0.929 . S
C8 C3 1.373 . S
C8 C7 1.396 . S
C8 H35 0.929 . S
C9 O22 1.240 . S
C9 O23 1.289 . S
C10 O24 1.258 . S
C10 O25 1.256 . S
C11 La1 2.928 . S
C11 C12 1.503 . S
C11 O26 1.261 . S
C11 O27 1.243 . S
C12 C11 1.503 . S
C12 C13 1.394 . S
C12 C17 1.373 . S
C13 C12 1.394 . S
C13 C14 1.380 . S
C13 H36 0.930 . S
C14 C13 1.380 . S
C14 C15 1.376 . S
C14 H37 0.930 . S
C15 C14 1.376 . S
C15 C16 1.370 . S
C16 C15 1.370 . S
C16 C17 1.396 . S
C16 H38 0.929 . S
C17 C12 1.373 . S
C17 C16 1.396 . S
C17 H39 0.929 . S
C18 O28 1.240 . S
C18 O29 1.289 . S
C19 O30 1.258 . S
C19 O31 1.256 . S
O20 La0 2.521 . S
O20 C2 1.261 . S
O21 La0 2.628 . S
O21 C2 1.243 . S
O22 La0 2.554 . S
O22 C9 1.240 . S
O23 La0 2.757 . S
O23 La1 2.482 1_455 S
O23 C9 1.289 . S
O24 La0 2.470 . S
O24 C10 1.258 . S
O25 La1 2.503 1_455 S
O25 C10 1.256 . S
O26 La1 2.521 . S
O26 C11 1.261 . S
O27 La1 2.628 . S
O27 C11 1.243 . S
O28 La1 2.554 1_455 S
O28 C18 1.240 . S
O29 La0 2.482 . S
O29 La1 2.757 1_455 S
O29 C18 1.289 . S
O30 La1 2.470 . S
O30 C19 1.258 . S
O31 La0 2.503 1_655 S
O31 C19 1.256 . S
H32 C4 0.930 . S
H33 C5 0.930 . S
H34 C7 0.929 . S
H35 C8 0.929 . S
H36 C13 0.930 . S
H37 C14 0.930 . S
H38 C16 0.929 . S
H39 C17 0.929 . S
La40 C42 2.928 . S
La40 O60 2.521 . S
La40 O61 2.628 . S
La40 O62 2.554 . S
La40 O63 2.757 1_565 S
La40 O64 2.470 . S
La40 O69 2.466 1_565 S
La40 O71 2.503 1_565 S
La41 C51 2.928 . S
La41 O63 2.482 . S
La41 O65 2.503 1_545 S
La41 O66 2.521 . S
La41 O67 2.628 . S
La41 O68 2.554 . S
La41 O69 2.783 . S
La41 O70 2.470 . S
C42 La40 2.928 . S
C42 C43 1.503 . S
C42 O60 1.261 . S
C42 O61 1.243 . S
C43 C42 1.503 . S
C43 C44 1.394 . S
C43 C48 1.373 . S
C44 C43 1.394 . S
C44 C45 1.380 . S
C44 H72 0.930 . S
C45 C44 1.380 . S
C45 C46 1.376 . S
C45 H73 0.930 . S
C46 C45 1.376 . S
C46 C47 1.370 . S
C47 C46 1.370 . S
C47 C48 1.396 . S
C47 H74 0.929 . S
C48 C43 1.373 . S
C48 C47 1.396 . S
C48 H75 0.929 . S
C49 O62 1.240 1_545 S
C49 O63 1.289 . S
C50 O64 1.258 . S
C50 O65 1.256 . S
C51 La41 2.928 . S
C51 C52 1.503 . S
C51 O66 1.261 . S
C51 O67 1.243 . S
C52 C51 1.503 . S
C52 C53 1.394 . S
C52 C57 1.373 . S
C53 C52 1.394 . S
C53 C54 1.380 . S
C53 H76 0.930 . S
C54 C53 1.380 . S
C54 C55 1.376 . S
C54 H77 0.930 . S
C55 C54 1.376 . S
C55 C56 1.370 . S
C56 C55 1.370 . S
C56 C57 1.396 . S
C56 H78 0.929 . S
C57 C52 1.373 . S
C57 C56 1.396 . S
C57 H79 0.929 . S
C58 O68 1.240 . S
C58 O69 1.305 . S
C59 O70 1.258 . S
C59 O71 1.256 . S
O60 La40 2.521 . S
O60 C42 1.261 . S
O61 La40 2.628 . S
O61 C42 1.243 . S
O62 La40 2.554 . S
O62 C49 1.240 1_565 S
O63 La40 2.757 1_545 S
O63 La41 2.482 . S
O63 C49 1.289 . S
O64 La40 2.470 . S
O64 C50 1.258 . S
O65 La41 2.503 1_565 S
O65 C50 1.256 . S
O66 La41 2.521 . S
O66 C51 1.261 . S
O67 La41 2.628 . S
O67 C51 1.243 . S
O68 La41 2.554 . S
O68 C58 1.240 . S
O69 La40 2.466 1_545 S
O69 La41 2.783 . S
O69 C58 1.305 . S
O70 La41 2.470 . S
O70 C59 1.258 . S
O71 La40 2.503 1_545 S
O71 C59 1.256 . S
H72 C44 0.930 . S
H73 C45 0.930 . S
H74 C47 0.929 . S
H75 C48 0.929 . S
H76 C53 0.930 . S
H77 C54 0.930 . S
H78 C56 0.929 . S
H79 C57 0.929 . S
La80 C82 2.928 . S
La80 O100 2.521 . S
La80 O101 2.628 . S
La80 O102 2.554 . S
La80 O103 2.757 . S
La80 O104 2.470 . S
La80 O109 2.482 . S
La80 O111 2.503 . S
La81 C91 2.928 . S
La81 O103 2.482 . S
La81 O105 2.503 . S
La81 O106 2.521 . S
La81 O107 2.628 . S
La81 O108 2.554 . S
La81 O109 2.757 . S
La81 O110 2.470 . S
C82 La80 2.928 . S
C82 C83 1.503 . S
C82 O100 1.261 . S
C82 O101 1.243 . S
C83 C82 1.503 . S
C83 C84 1.394 . S
C83 C88 1.373 . S
C84 C83 1.394 . S
C84 C85 1.380 . S
C84 H112 0.930 . S
C85 C84 1.380 . S
C85 C86 1.376 . S
C85 H113 0.930 . S
C86 C85 1.376 . S
C86 C87 1.370 . S
C87 C86 1.370 . S
C87 C88 1.396 . S
C87 H114 0.929 . S
C88 C83 1.373 . S
C88 C87 1.396 . S
C88 H115 0.929 . S
C89 O102 1.240 . S
C89 O103 1.289 . S
C90 O104 1.258 . S
C90 O105 1.256 . S
C91 La81 2.928 . S
C91 C92 1.503 . S
C91 O106 1.261 . S
C91 O107 1.243 . S
C92 C91 1.503 . S
C92 C93 1.394 . S
C92 C97 1.373 . S
C93 C92 1.394 . S
C93 C94 1.380 . S
C93 H116 0.930 . S
C94 C93 1.380 . S
C94 C95 1.376 . S
C94 H117 0.930 . S
C95 C94 1.376 . S
C95 C96 1.370 . S
C96 C95 1.370 . S
C96 C97 1.396 . S
C96 H118 0.929 . S
C97 C92 1.373 . S
C97 C96 1.396 . S
C97 H119 0.929 . S
C98 O108 1.240 . S
C98 O109 1.289 . S
C99 O110 1.258 . S
C99 O111 1.256 . S
O100 La80 2.521 . S
O100 C82 1.261 . S
O101 La80 2.628 . S
O101 C82 1.243 . S
O102 La80 2.554 . S
O102 C89 1.240 . S
O103 La80 2.757 . S
O103 La81 2.482 . S
O103 C89 1.289 . S
O104 La80 2.470 . S
O104 C90 1.258 . S
O105 La81 2.503 . S
O105 C90 1.256 . S
O106 La81 2.521 . S
O106 C91 1.261 . S
O107 La81 2.628 . S
O107 C91 1.243 . S
O108 La81 2.554 . S
O108 C98 1.240 . S
O109 La80 2.482 . S
O109 La81 2.757 . S
O109 C98 1.289 . S
O110 La81 2.470 . S
O110 C99 1.258 . S
O111 La80 2.503 . S
O111 C99 1.256 . S
H112 C84 0.930 . S
H113 C85 0.930 . S
H114 C87 0.929 . S
H115 C88 0.929 . S
H116 C93 0.930 . S
H117 C94 0.930 . S
H118 C96 0.929 . S
H119 C97 0.929 . S
P120 O131 1.455 1_545 S
P120 C134 1.809 1_545 S
P120 C140 1.833 . S
P120 C146 1.832 . S
H121 C135 0.941 . S
H122 C136 0.939 . S
H123 C138 0.940 . S
H124 C139 0.940 . S
H125 C141 0.939 . S
H126 C142 0.942 . S
H127 C144 0.940 . S
H128 C145 0.939 . S
H129 C147 0.941 . S
H130 C151 0.939 . S
O131 P120 1.455 1_565 S
H132 C148 0.939 . S
H133 C150 0.940 . S
C134 P120 1.809 1_565 S
C134 C135 1.389 . S
C134 C139 1.391 . S
C135 H121 0.941 . S
C135 C134 1.389 . S
C135 C136 1.397 . S
C136 H122 0.939 . S
C136 C135 1.397 . S
C136 C137 1.378 . S
C137 C136 1.378 . S
C137 C138 1.378 . S
C138 H123 0.940 . S
C138 C137 1.378 . S
C138 C139 1.396 . S
C139 H124 0.940 . S
C139 C134 1.391 . S
C139 C138 1.396 . S
C140 P120 1.833 . S
C140 C141 1.378 . S
C140 C145 1.400 . S
C141 H125 0.939 . S
C141 C140 1.378 . S
C141 C142 1.361 . S
C142 H126 0.942 . S
C142 C141 1.361 . S
C142 C143 1.369 . S
C143 C142 1.369 . S
C143 C144 1.404 . S
C144 H127 0.940 . S
C144 C143 1.404 . S
C144 C145 1.389 . S
C145 H128 0.939 . S
C145 C140 1.400 . S
C145 C144 1.389 . S
C146 P120 1.832 . S
C146 C147 1.391 1_545 S
C146 C151 1.391 . S
C147 H129 0.941 . S
C147 C146 1.391 1_565 S
C147 C148 1.396 . S
C148 H132 0.939 . S
C148 C147 1.396 . S
C148 C149 1.397 1_565 S
C149 C148 1.397 1_545 S
C149 C150 1.385 . S
C150 H133 0.940 . S
C150 C149 1.385 . S
C150 C151 1.388 . S
C151 H130 0.939 . S
C151 C146 1.391 . S
C151 C150 1.388 . S
P152 O163 1.490 . S
P152 C166 1.812 . S
P152 C172 1.803 . S
P152 C178 1.819 . S
H153 C167 0.941 . S
H154 C168 0.939 . S
H155 C170 0.940 . S
H156 C171 0.940 . S
H157 C173 0.939 . S
H158 C174 0.942 . S
H159 C176 0.940 . S
H160 C177 0.939 . S
H161 C179 0.941 . S
H162 C183 0.939 . S
O163 P152 1.490 . S
H164 C180 0.939 . S
H165 C182 0.940 . S
C166 P152 1.812 . S
C166 C167 1.389 . S
C166 C171 1.391 . S
C167 H153 0.941 . S
C167 C166 1.389 . S
C167 C168 1.397 . S
C168 H154 0.939 . S
C168 C167 1.397 . S
C168 C169 1.378 . S
C169 C168 1.378 . S
C169 C170 1.378 . S
C170 H155 0.940 . S
C170 C169 1.378 . S
C170 C171 1.396 . S
C171 H156 0.940 . S
C171 C166 1.391 . S
C171 C170 1.396 . S
C172 P152 1.803 . S
C172 C173 1.378 . S
C172 C177 1.400 . S
C173 H157 0.939 . S
C173 C172 1.378 . S
C173 C174 1.361 . S
C174 H158 0.942 . S
C174 C173 1.361 . S
C174 C175 1.369 . S
C175 C174 1.369 . S
C175 C176 1.404 . S
C176 H159 0.940 . S
C176 C175 1.404 . S
C176 C177 1.389 . S
C177 H160 0.939 . S
C177 C172 1.400 . S
C177 C176 1.389 . S
C178 P152 1.819 . S
C178 C179 1.391 . S
C178 C183 1.391 . S
C179 H161 0.941 . S
C179 C178 1.391 . S
C179 C180 1.396 . S
C180 H164 0.939 . S
C180 C179 1.396 . S
C180 C181 1.397 . S
C181 C180 1.397 . S
C181 C182 1.385 . S
C182 H165 0.940 . S
C182 C181 1.385 . S
C182 C183 1.388 . S
C183 H162 0.939 . S
C183 C178 1.391 . S
C183 C182 1.388 . S
P184 O195 1.490 . S
P184 C198 1.812 . S
P184 C204 1.803 . S
P184 C210 1.819 . S
H185 C199 0.941 . S
H186 C200 0.939 . S
H187 C202 0.940 . S
H188 C203 0.940 . S
H189 C205 0.939 . S
H190 C206 0.942 . S
H191 C208 0.940 . S
H192 C209 0.939 . S
H193 C211 0.941 . S
H194 C215 0.939 . S
O195 P184 1.490 . S
H196 C212 0.939 . S
H197 C214 0.940 1_655 S
C198 P184 1.812 . S
C198 C199 1.389 . S
C198 C203 1.391 . S
C199 H185 0.941 . S
C199 C198 1.389 . S
C199 C200 1.397 . S
C200 H186 0.939 . S
C200 C199 1.397 . S
C200 C201 1.378 . S
C201 C200 1.378 . S
C201 C202 1.378 . S
C202 H187 0.940 . S
C202 C201 1.378 . S
C202 C203 1.396 . S
C203 H188 0.940 . S
C203 C198 1.391 . S
C203 C202 1.396 . S
C204 P184 1.803 . S
C204 C205 1.378 . S
C204 C209 1.400 . S
C205 H189 0.939 . S
C205 C204 1.378 . S
C205 C206 1.361 1_455 S
C206 H190 0.942 . S
C206 C205 1.361 1_655 S
C206 C207 1.369 . S
C207 C206 1.369 . S
C207 C208 1.404 . S
C208 H191 0.940 . S
C208 C207 1.404 . S
C208 C209 1.389 1_655 S
C209 H192 0.939 . S
C209 C204 1.400 . S
C209 C208 1.389 1_455 S
C210 P184 1.819 . S
C210 C211 1.391 . S
C210 C215 1.391 . S
C211 H193 0.941 . S
C211 C210 1.391 . S
C211 C212 1.396 . S
C212 H196 0.939 . S
C212 C211 1.396 . S
C212 C213 1.397 . S
C213 C212 1.397 . S
C213 C214 1.385 . S
C214 H197 0.940 1_455 S
C214 C213 1.385 . S
C214 C215 1.388 . S
C215 H194 0.939 . S
C215 C210 1.391 . S
C215 C214 1.388 . S
P216 O227 1.490 . S
P216 C230 1.812 . S
P216 C236 1.803 1_455 S
P216 C242 1.819 . S
H217 C231 0.941 . S
H218 C232 0.939 . S
H219 C234 0.940 . S
H220 C235 0.940 . S
H221 C237 0.939 . S
H222 C238 0.942 . S
H223 C240 0.940 . S
H224 C241 0.939 . S
H225 C243 0.941 . S
H226 C247 0.939 . S
O227 P216 1.490 . S
H228 C244 0.939 . S
H229 C246 0.940 . S
C230 P216 1.812 . S
C230 C231 1.389 . S
C230 C235 1.391 . S
C231 H217 0.941 . S
C231 C230 1.389 . S
C231 C232 1.397 . S
C232 H218 0.939 . S
C232 C231 1.397 . S
C232 C233 1.378 . S
C233 C232 1.378 . S
C233 C234 1.378 . S
C234 H219 0.940 . S
C234 C233 1.378 . S
C234 C235 1.396 . S
C235 H220 0.940 . S
C235 C230 1.391 . S
C235 C234 1.396 . S
C236 P216 1.803 1_655 S
C236 C237 1.378 . S
C236 C241 1.400 . S
C237 H221 0.939 . S
C237 C236 1.378 . S
C237 C238 1.361 . S
C238 H222 0.942 . S
C238 C237 1.361 . S
C238 C239 1.369 . S
C239 C238 1.369 . S
C239 C240 1.404 . S
C240 H223 0.940 . S
C240 C239 1.404 . S
C240 C241 1.389 . S
C241 H224 0.939 . S
C241 C236 1.400 . S
C241 C240 1.389 . S
C242 P216 1.819 . S
C242 C243 1.391 . S
C242 C247 1.391 1_455 S
C243 H225 0.941 . S
C243 C242 1.391 . S
C243 C244 1.396 . S
C244 H228 0.939 . S
C244 C243 1.396 . S
C244 C245 1.397 . S
C245 C244 1.397 . S
C245 C246 1.385 1_455 S
C246 H229 0.940 . S
C246 C245 1.385 1_655 S
C246 C247 1.388 . S
C247 H226 0.939 . S
C247 C242 1.391 1_655 S
C247 C246 1.388 . S
P248 O259 1.490 . S
P248 C262 1.812 . S
P248 C268 1.803 1_545 S
P248 C274 1.819 . S
H249 C263 0.941 . S
H250 C264 0.939 . S
H251 C266 0.940 . S
H252 C267 0.940 . S
H253 C269 0.939 . S
H254 C270 0.942 . S
H255 C272 0.940 . S
H256 C273 0.939 . S
H257 C275 0.941 . S
H258 C279 0.939 . S
O259 P248 1.490 . S
H260 C276 0.939 . S
H261 C278 0.940 . S
C262 P248 1.812 . S
C262 C263 1.389 . S
C262 C267 1.391 . S
C263 H249 0.941 . S
C263 C262 1.389 . S
C263 C264 1.397 . S
C264 H250 0.939 . S
C264 C263 1.397 . S
C264 C265 1.378 . S
C265 C264 1.378 . S
C265 C266 1.378 . S
C266 H251 0.940 . S
C266 C265 1.378 . S
C266 C267 1.396 . S
C267 H252 0.940 . S
C267 C262 1.391 . S
C267 C266 1.396 . S
C268 P248 1.803 1_565 S
C268 C269 1.378 . S
C268 C273 1.400 . S
C269 H253 0.939 . S
C269 C268 1.378 . S
C269 C270 1.361 . S
C270 H254 0.942 . S
C270 C269 1.361 . S
C270 C271 1.369 . S
C271 C270 1.369 . S
C271 C272 1.404 . S
C272 H255 0.940 . S
C272 C271 1.404 . S
C272 C273 1.389 . S
C273 H256 0.939 . S
C273 C268 1.400 . S
C273 C272 1.389 . S
C274 P248 1.819 . S
C274 C275 1.391 . S
C274 C279 1.391 1_545 S
C275 H257 0.941 . S
C275 C274 1.391 . S
C275 C276 1.396 . S
C276 H260 0.939 . S
C276 C275 1.396 . S
C276 C277 1.397 . S
C277 C276 1.397 . S
C277 C278 1.385 1_545 S
C278 H261 0.940 . S
C278 C277 1.385 1_565 S
C278 C279 1.388 . S
C279 H258 0.939 . S
C279 C274 1.391 1_565 S
C279 C278 1.388 . S
P280 O291 1.490 . S
P280 C294 1.812 . S
P280 C300 1.803 . S
P280 C306 1.819 . S
H281 C295 0.941 . S
H282 C296 0.939 . S
H283 C298 0.940 . S
H284 C299 0.940 . S
H285 C301 0.939 . S
H286 C302 0.942 . S
H287 C304 0.940 . S
H288 C305 0.939 . S
H289 C307 0.941 . S
H290 C311 0.939 . S
O291 P280 1.490 . S
H292 C308 0.939 . S
H293 C310 0.940 . S
C294 P280 1.812 . S
C294 C295 1.389 . S
C294 C299 1.391 . S
C295 H281 0.941 . S
C295 C294 1.389 . S
C295 C296 1.397 . S
C296 H282 0.939 . S
C296 C295 1.397 . S
C296 C297 1.378 . S
C297 C296 1.378 . S
C297 C298 1.378 . S
C298 H283 0.940 . S
C298 C297 1.378 . S
C298 C299 1.396 . S
C299 H284 0.940 . S
C299 C294 1.391 . S
C299 C298 1.396 . S
C300 P280 1.803 . S
C300 C301 1.378 . S
C300 C305 1.400 . S
C301 H285 0.939 . S
C301 C300 1.378 . S
C301 C302 1.361 . S
C302 H286 0.942 . S
C302 C301 1.361 . S
C302 C303 1.369 . S
C303 C302 1.369 . S
C303 C304 1.404 . S
C304 H287 0.940 . S
C304 C303 1.404 . S
C304 C305 1.389 . S
C305 H288 0.939 . S
C305 C300 1.400 . S
C305 C304 1.389 . S
C306 P280 1.819 . S
C306 C307 1.391 . S
C306 C311 1.391 . S
C307 H289 0.941 . S
C307 C306 1.391 . S
C307 C308 1.396 . S
C308 H292 0.939 . S
C308 C307 1.396 . S
C308 C309 1.397 . S
C309 C308 1.397 . S
C309 C310 1.385 . S
C310 H293 0.940 . S
C310 C309 1.385 . S
C310 C311 1.388 . S
C311 H290 0.939 . S
C311 C306 1.391 . S
C311 C310 1.388 . S
H312 C330 0.951 . S
H313 C332 0.951 . S
H314 C334 0.950 . S
H315 C335 0.950 . S
H316 C337 0.950 . S
H317 C340 0.950 . S
H318 C341 0.950 . S
H319 C343 0.950 . S
H320 C344 0.950 . S
H321 C345 0.951 . S
H322 C347 0.951 . S
H323 C349 0.950 . S
H324 C350 0.950 . S
H325 C352 0.950 . S
H326 C355 0.950 . S
H327 C356 0.950 . S
H328 C358 0.950 . S
H329 C359 0.950 . S
C330 H312 0.951 . S
C330 C331 1.366 . S
C330 C332 1.388 . S
C331 C330 1.366 . S
C331 C335 1.385 . S
C332 H313 0.951 . S
C332 C330 1.388 . S
C332 C333 1.366 . S
C333 C332 1.366 . S
C333 C334 1.414 . S
C333 C336 1.499 . S
C334 H314 0.950 . S
C334 C333 1.414 . S
C334 C335 1.374 . S
C335 H315 0.950 . S
C335 C331 1.385 . S
C335 C334 1.374 . S
C336 C333 1.499 . S
C336 C337 1.373 . S
C336 C338 1.389 . S
C337 H316 0.950 . S
C337 C336 1.373 . S
C337 C353 1.377 . S
C338 C336 1.389 . S
C338 C339 1.524 . S
C338 C352 1.377 . S
C339 C338 1.524 . S
C339 C340 1.397 . S
C339 C344 1.363 . S
C340 H317 0.950 . S
C340 C339 1.397 . S
C340 C341 1.334 . S
C341 H318 0.950 . S
C341 C340 1.334 . S
C341 C342 1.287 . S
C342 C341 1.287 . S
C342 C343 1.524 . S
C342 H361 0.913 . S
C343 H319 0.950 . S
C343 C342 1.524 . S
C343 C344 1.415 . S
C344 H320 0.950 . S
C344 C339 1.363 . S
C344 C343 1.415 . S
C345 H321 0.951 . S
C345 C346 1.366 . S
C345 C347 1.388 . S
C346 C345 1.366 . S
C346 C350 1.385 . S
C347 H322 0.951 . S
C347 C345 1.388 . S
C347 C348 1.366 . S
C348 C347 1.366 . S
C348 C349 1.414 . S
C348 C351 1.499 . S
C349 H323 0.950 . S
C349 C348 1.414 . S
C349 C350 1.374 . S
C350 H324 0.950 . S
C350 C346 1.385 . S
C350 C349 1.374 . S
C351 C348 1.499 . S
C351 C352 1.373 . S
C351 C353 1.389 . S
C352 H325 0.950 . S
C352 C338 1.377 . S
C352 C351 1.373 . S
C353 C337 1.377 . S
C353 C351 1.389 . S
C353 C354 1.524 . S
C354 C353 1.524 . S
C354 C355 1.397 . S
C354 C359 1.363 . S
C355 H326 0.950 . S
C355 C354 1.397 . S
C355 C356 1.334 . S
C356 H327 0.950 . S
C356 C355 1.334 . S
C356 C357 1.287 . S
C357 C356 1.287 . S
C357 C358 1.524 . S
C357 H360 0.999 . S
C358 H328 0.950 . S
C358 C357 1.524 . S
C358 C359 1.415 . S
C359 H329 0.950 . S
C359 C354 1.363 . S
C359 C358 1.415 . S
H360 C357 0.999 . S
H361 C342 0.913 . S
H362 C380 0.951 . S
H363 C382 0.951 . S
H364 C384 0.950 . S
H365 C385 0.950 . S
H366 C387 0.950 . S
H367 C390 0.950 . S
H368 C391 0.950 . S
H369 C393 0.950 . S
H370 C394 0.950 . S
H371 C395 0.951 . S
H372 C397 0.951 . S
H373 C399 0.950 . S
H374 C400 0.950 . S
H375 C402 0.950 . S
H376 C405 0.950 . S
H377 C406 0.950 . S
H378 C408 0.950 . S
H379 C409 0.950 . S
C380 H362 0.951 . S
C380 C381 1.366 . S
C380 C382 1.388 . S
C381 C380 1.366 . S
C381 C385 1.385 . S
C382 H363 0.951 . S
C382 C380 1.388 . S
C382 C383 1.366 . S
C383 C382 1.366 . S
C383 C384 1.414 . S
C383 C386 1.499 . S
C384 H364 0.950 . S
C384 C383 1.414 . S
C384 C385 1.374 . S
C385 H365 0.950 . S
C385 C381 1.385 . S
C385 C384 1.374 . S
C386 C383 1.499 . S
C386 C387 1.373 . S
C386 C388 1.389 . S
C387 H366 0.950 . S
C387 C386 1.373 . S
C387 C403 1.377 . S
C388 C386 1.389 . S
C388 C389 1.524 . S
C388 C402 1.377 . S
C389 C388 1.524 . S
C389 C390 1.397 . S
C389 C394 1.363 . S
C390 H367 0.950 . S
C390 C389 1.397 . S
C390 C391 1.334 . S
C391 H368 0.950 . S
C391 C390 1.334 . S
C391 C392 1.287 . S
C392 C391 1.287 . S
C392 C393 1.524 . S
C392 H411 0.913 . S
C393 H369 0.950 . S
C393 C392 1.524 . S
C393 C394 1.415 . S
C394 H370 0.950 . S
C394 C389 1.363 . S
C394 C393 1.415 . S
C395 H371 0.951 . S
C395 C396 1.366 . S
C395 C397 1.388 . S
C396 C395 1.366 . S
C396 C400 1.385 . S
C397 H372 0.951 . S
C397 C395 1.388 . S
C397 C398 1.366 . S
C398 C397 1.366 . S
C398 C399 1.414 . S
C398 C401 1.499 . S
C399 H373 0.950 . S
C399 C398 1.414 . S
C399 C400 1.374 . S
C400 H374 0.950 . S
C400 C396 1.385 . S
C400 C399 1.374 . S
C401 C398 1.499 . S
C401 C402 1.373 . S
C401 C403 1.389 . S
C402 H375 0.950 . S
C402 C388 1.377 . S
C402 C401 1.373 . S
C403 C387 1.377 . S
C403 C401 1.389 . S
C403 C404 1.524 . S
C404 C403 1.524 . S
C404 C405 1.397 . S
C404 C409 1.363 . S
C405 H376 0.950 . S
C405 C404 1.397 . S
C405 C406 1.334 . S
C406 H377 0.950 . S
C406 C405 1.334 . S
C406 C407 1.287 . S
C407 C406 1.287 . S
C407 C408 1.524 . S
C407 H410 0.999 . S
C408 H378 0.950 . S
C408 C407 1.524 . S
C408 C409 1.415 . S
C409 H379 0.950 . S
C409 C404 1.363 . S
C409 C408 1.415 . S
H410 C407 0.999 . S
H411 C392 0.913 . S
H412 C430 0.951 . S
H413 C432 0.951 . S
H414 C434 0.950 . S
H415 C435 0.950 . S
H416 C437 0.950 . S
H417 C440 0.950 . S
H418 C441 0.950 . S
H419 C443 0.950 . S
H420 C444 0.950 . S
H421 C445 0.951 . S
H422 C447 0.951 . S
H423 C449 0.950 . S
H424 C450 0.950 . S
H425 C452 0.950 . S
H426 C455 0.950 . S
H427 C456 0.950 . S
H428 C458 0.950 . S
H429 C459 0.950 . S
C430 H412 0.951 . S
C430 C431 1.366 . S
C430 C432 1.388 . S
C431 C430 1.366 . S
C431 C435 1.385 . S
C432 H413 0.951 . S
C432 C430 1.388 . S
C432 C433 1.366 . S
C433 C432 1.366 . S
C433 C434 1.414 . S
C433 C436 1.499 . S
C434 H414 0.950 . S
C434 C433 1.414 . S
C434 C435 1.374 . S
C435 H415 0.950 . S
C435 C431 1.385 . S
C435 C434 1.374 . S
C436 C433 1.499 . S
C436 C437 1.373 . S
C436 C438 1.389 . S
C437 H416 0.950 . S
C437 C436 1.373 . S
C437 C453 1.377 . S
C438 C436 1.389 . S
C438 C439 1.524 . S
C438 C452 1.377 . S
C439 C438 1.524 . S
C439 C440 1.397 . S
C439 C444 1.363 . S
C440 H417 0.950 . S
C440 C439 1.397 . S
C440 C441 1.334 . S
C441 H418 0.950 . S
C441 C440 1.334 . S
C441 C442 1.287 . S
C442 C441 1.287 . S
C442 C443 1.524 . S
C442 H461 0.913 . S
C443 H419 0.950 . S
C443 C442 1.524 . S
C443 C444 1.415 . S
C444 H420 0.950 . S
C444 C439 1.363 . S
C444 C443 1.415 . S
C445 H421 0.951 . S
C445 C446 1.366 . S
C445 C447 1.388 . S
C446 C445 1.366 . S
C446 C450 1.385 . S
C447 H422 0.951 . S
C447 C445 1.388 . S
C447 C448 1.366 . S
C448 C447 1.366 . S
C448 C449 1.414 . S
C448 C451 1.499 . S
C449 H423 0.950 . S
C449 C448 1.414 . S
C449 C450 1.374 . S
C450 H424 0.950 . S
C450 C446 1.385 . S
C450 C449 1.374 . S
C451 C448 1.499 . S
C451 C452 1.373 . S
C451 C453 1.389 . S
C452 H425 0.950 . S
C452 C438 1.377 . S
C452 C451 1.373 . S
C453 C437 1.377 . S
C453 C451 1.389 . S
C453 C454 1.524 . S
C454 C453 1.524 . S
C454 C455 1.397 . S
C454 C459 1.363 . S
C455 H426 0.950 . S
C455 C454 1.397 . S
C455 C456 1.334 . S
C456 H427 0.950 . S
C456 C455 1.334 . S
C456 C457 1.287 . S
C457 C456 1.287 . S
C457 C458 1.524 . S
C457 H460 0.999 . S
C458 H428 0.950 . S
C458 C457 1.524 . S
C458 C459 1.415 . S
C459 H429 0.950 . S
C459 C454 1.363 . S
C459 C458 1.415 . S
H460 C457 0.999 . S
H461 C442 0.913 . S
H462 C480 0.951 . S
H463 C482 0.951 . S
H464 C484 0.950 . S
H465 C485 0.950 . S
H466 C487 0.950 . S
H467 C490 0.950 . S
H468 C491 0.950 . S
H469 C493 0.950 . S
H470 C494 0.950 . S
H471 C495 0.951 . S
H472 C497 0.951 . S
H473 C499 0.950 . S
H474 C500 0.950 . S
H475 C502 0.950 . S
H476 C505 0.950 . S
H477 C506 0.950 . S
H478 C508 0.950 . S
H479 C509 0.950 . S
C480 H462 0.951 . S
C480 C481 1.366 . S
C480 C482 1.388 . S
C481 C480 1.366 . S
C481 C485 1.385 . S
C482 H463 0.951 . S
C482 C480 1.388 . S
C482 C483 1.366 . S
C483 C482 1.366 . S
C483 C484 1.414 . S
C483 C486 1.499 . S
C484 H464 0.950 . S
C484 C483 1.414 . S
C484 C485 1.374 . S
C485 H465 0.950 . S
C485 C481 1.385 . S
C485 C484 1.374 . S
C486 C483 1.499 . S
C486 C487 1.373 . S
C486 C488 1.389 . S
C487 H466 0.950 . S
C487 C486 1.373 . S
C487 C503 1.377 . S
C488 C486 1.389 . S
C488 C489 1.524 . S
C488 C502 1.377 . S
C489 C488 1.524 . S
C489 C490 1.397 . S
C489 C494 1.363 . S
C490 H467 0.950 . S
C490 C489 1.397 . S
C490 C491 1.334 . S
C491 H468 0.950 . S
C491 C490 1.334 . S
C491 C492 1.287 . S
C492 C491 1.287 . S
C492 C493 1.524 . S
C492 H511 0.913 . S
C493 H469 0.950 . S
C493 C492 1.524 . S
C493 C494 1.415 . S
C494 H470 0.950 . S
C494 C489 1.363 . S
C494 C493 1.415 . S
C495 H471 0.951 . S
C495 C496 1.366 . S
C495 C497 1.388 . S
C496 C495 1.366 . S
C496 C500 1.385 . S
C497 H472 0.951 . S
C497 C495 1.388 . S
C497 C498 1.366 . S
C498 C497 1.366 . S
C498 C499 1.414 . S
C498 C501 1.499 . S
C499 H473 0.950 . S
C499 C498 1.414 . S
C499 C500 1.374 . S
C500 H474 0.950 . S
C500 C496 1.385 . S
C500 C499 1.374 . S
C501 C498 1.499 . S
C501 C502 1.373 . S
C501 C503 1.389 . S
C502 H475 0.950 . S
C502 C488 1.377 . S
C502 C501 1.373 . S
C503 C487 1.377 . S
C503 C501 1.389 . S
C503 C504 1.524 . S
C504 C503 1.524 . S
C504 C505 1.397 . S
C504 C509 1.363 . S
C505 H476 0.950 . S
C505 C504 1.397 . S
C505 C506 1.334 . S
C506 H477 0.950 . S
C506 C505 1.334 . S
C506 C507 1.287 . S
C507 C506 1.287 . S
C507 C508 1.524 . S
C507 H510 0.999 . S
C508 H478 0.950 . S
C508 C507 1.524 . S
C508 C509 1.415 . S
C509 H479 0.950 . S
C509 C504 1.363 . S
C509 C508 1.415 . S
H510 C507 0.999 . S
H511 C492 0.913 . S
H512 C530 0.951 . S
H513 C532 0.951 . S
H514 C534 0.950 . S
H515 C535 0.950 . S
H516 C537 0.950 . S
H517 C540 0.950 . S
H518 C541 0.950 . S
H519 C543 0.950 . S
H520 C544 0.950 . S
H521 C545 0.951 . S
H522 C547 0.951 . S
H523 C549 0.950 . S
H524 C550 0.950 . S
H525 C552 0.950 . S
H526 C555 0.950 . S
H527 C556 0.950 . S
H528 C558 0.950 . S
H529 C559 0.950 . S
C530 H512 0.951 . S
C530 C531 1.366 . S
C530 C532 1.388 . S
C531 C530 1.366 . S
C531 C535 1.385 . S
C532 H513 0.951 . S
C532 C530 1.388 . S
C532 C533 1.366 . S
C533 C532 1.366 . S
C533 C534 1.414 . S
C533 C536 1.499 . S
C534 H514 0.950 . S
C534 C533 1.414 . S
C534 C535 1.374 . S
C535 H515 0.950 . S
C535 C531 1.385 . S
C535 C534 1.374 . S
C536 C533 1.499 . S
C536 C537 1.373 . S
C536 C538 1.389 . S
C537 H516 0.950 . S
C537 C536 1.373 . S
C537 C553 1.377 . S
C538 C536 1.389 . S
C538 C539 1.524 . S
C538 C552 1.377 . S
C539 C538 1.524 . S
C539 C540 1.397 . S
C539 C544 1.363 . S
C540 H517 0.950 . S
C540 C539 1.397 . S
C540 C541 1.334 . S
C541 H518 0.950 . S
C541 C540 1.334 . S
C541 C542 1.287 . S
C542 C541 1.287 . S
C542 C543 1.524 . S
C542 H561 0.913 . S
C543 H519 0.950 . S
C543 C542 1.524 . S
C543 C544 1.415 . S
C544 H520 0.950 . S
C544 C539 1.363 . S
C544 C543 1.415 . S
C545 H521 0.951 . S
C545 C546 1.366 . S
C545 C547 1.388 . S
C546 C545 1.366 . S
C546 C550 1.385 . S
C547 H522 0.951 . S
C547 C545 1.388 . S
C547 C548 1.366 . S
C548 C547 1.366 . S
C548 C549 1.414 . S
C548 C551 1.499 . S
C549 H523 0.950 . S
C549 C548 1.414 . S
C549 C550 1.374 . S
C550 H524 0.950 . S
C550 C546 1.385 . S
C550 C549 1.374 . S
C551 C548 1.499 . S
C551 C552 1.373 . S
C551 C553 1.389 . S
C552 H525 0.950 . S
C552 C538 1.377 . S
C552 C551 1.373 . S
C553 C537 1.377 . S
C553 C551 1.389 . S
C553 C554 1.524 . S
C554 C553 1.524 . S
C554 C555 1.397 . S
C554 C559 1.363 . S
C555 H526 0.950 . S
C555 C554 1.397 . S
C555 C556 1.334 . S
C556 H527 0.950 . S
C556 C555 1.334 . S
C556 C557 1.287 . S
C557 C556 1.287 . S
C557 C558 1.524 . S
C557 H560 0.999 . S
C558 H528 0.950 . S
C558 C557 1.524 . S
C558 C559 1.415 . S
C559 H529 0.950 . S
C559 C554 1.363 . S
C559 C558 1.415 . S
H560 C557 0.999 . S
H561 C542 0.913 . S
H562 C580 0.951 . S
H563 C582 0.951 . S
H564 C584 0.950 . S
H565 C585 0.950 . S
H566 C587 0.950 . S
H567 C590 0.950 . S
H568 C591 0.950 . S
H569 C593 0.950 . S
H570 C594 0.950 . S
H571 C595 0.951 . S
H572 C597 0.951 . S
H573 C599 0.950 . S
H574 C600 0.950 . S
H575 C602 0.950 . S
H576 C605 0.950 . S
H577 C606 0.950 . S
H578 C608 0.950 . S
H579 C609 0.950 . S
C580 H562 0.951 . S
C580 C581 1.366 . S
C580 C582 1.388 . S
C581 C580 1.366 . S
C581 C585 1.385 . S
C582 H563 0.951 . S
C582 C580 1.388 . S
C582 C583 1.366 . S
C583 C582 1.366 . S
C583 C584 1.414 . S
C583 C586 1.499 . S
C584 H564 0.950 . S
C584 C583 1.414 . S
C584 C585 1.374 . S
C585 H565 0.950 . S
C585 C581 1.385 . S
C585 C584 1.374 . S
C586 C583 1.499 . S
C586 C587 1.373 . S
C586 C588 1.389 . S
C587 H566 0.950 . S
C587 C586 1.373 . S
C587 C603 1.377 . S
C588 C586 1.389 . S
C588 C589 1.524 . S
C588 C602 1.377 . S
C589 C588 1.524 . S
C589 C590 1.397 . S
C589 C594 1.363 . S
C590 H567 0.950 . S
C590 C589 1.397 . S
C590 C591 1.334 . S
C591 H568 0.950 . S
C591 C590 1.334 . S
C591 C592 1.287 . S
C592 C591 1.287 . S
C592 C593 1.524 . S
C592 H611 0.913 . S
C593 H569 0.950 . S
C593 C592 1.524 . S
C593 C594 1.415 . S
C594 H570 0.950 . S
C594 C589 1.363 . S
C594 C593 1.415 . S
C595 H571 0.951 . S
C595 C596 1.366 . S
C595 C597 1.388 . S
C596 C595 1.366 . S
C596 C600 1.385 . S
C597 H572 0.951 . S
C597 C595 1.388 . S
C597 C598 1.366 . S
C598 C597 1.366 . S
C598 C599 1.414 . S
C598 C601 1.499 . S
C599 H573 0.950 . S
C599 C598 1.414 . S
C599 C600 1.374 . S
C600 H574 0.950 . S
C600 C596 1.385 . S
C600 C599 1.374 . S
C601 C598 1.499 . S
C601 C602 1.373 . S
C601 C603 1.389 . S
C602 H575 0.950 . S
C602 C588 1.377 . S
C602 C601 1.373 . S
C603 C587 1.377 . S
C603 C601 1.389 . S
C603 C604 1.524 . S
C604 C603 1.524 . S
C604 C605 1.397 . S
C604 C609 1.363 . S
C605 H576 0.950 . S
C605 C604 1.397 . S
C605 C606 1.334 . S
C606 H577 0.950 . S
C606 C605 1.334 . S
C606 C607 1.287 . S
C607 C606 1.287 . S
C607 C608 1.524 . S
C607 H610 0.999 . S
C608 H578 0.950 . S
C608 C607 1.524 . S
C608 C609 1.415 . S
C609 H579 0.950 . S
C609 C604 1.363 . S
C609 C608 1.415 . S
H610 C607 0.999 . S
H611 C592 0.913 . S
H612 C630 0.951 . S
H613 C632 0.951 . S
H614 C634 0.950 . S
H615 C635 0.950 . S
H616 C637 0.950 . S
H617 C640 0.950 . S
H618 C641 0.950 . S
H619 C643 0.950 . S
H620 C644 0.950 . S
H621 C645 0.951 . S
H622 C647 0.951 . S
H623 C649 0.950 . S
H624 C650 0.950 . S
H625 C652 0.950 . S
H626 C655 0.950 . S
H627 C656 0.950 . S
H628 C658 0.950 . S
H629 C659 0.950 . S
C630 H612 0.951 . S
C630 C631 1.366 . S
C630 C632 1.388 . S
C631 C630 1.366 . S
C631 C635 1.385 . S
C632 H613 0.951 . S
C632 C630 1.388 . S
C632 C633 1.366 . S
C633 C632 1.366 . S
C633 C634 1.414 . S
C633 C636 1.499 . S
C634 H614 0.950 . S
C634 C633 1.414 . S
C634 C635 1.374 . S
C635 H615 0.950 . S
C635 C631 1.385 . S
C635 C634 1.374 . S
C636 C633 1.499 . S
C636 C637 1.373 . S
C636 C638 1.389 . S
C637 H616 0.950 . S
C637 C636 1.373 . S
C637 C653 1.377 . S
C638 C636 1.389 . S
C638 C639 1.524 . S
C638 C652 1.377 . S
C639 C638 1.524 . S
C639 C640 1.397 . S
C639 C644 1.363 . S
C640 H617 0.950 . S
C640 C639 1.397 . S
C640 C641 1.334 . S
C641 H618 0.950 . S
C641 C640 1.334 . S
C641 C642 1.287 . S
C642 C641 1.287 . S
C642 C643 1.524 . S
C642 H661 0.913 . S
C643 H619 0.950 . S
C643 C642 1.524 . S
C643 C644 1.415 . S
C644 H620 0.950 . S
C644 C639 1.363 . S
C644 C643 1.415 . S
C645 H621 0.951 . S
C645 C646 1.366 . S
C645 C647 1.388 . S
C646 C645 1.366 . S
C646 C650 1.385 . S
C647 H622 0.951 . S
C647 C645 1.388 . S
C647 C648 1.366 . S
C648 C647 1.366 . S
C648 C649 1.414 . S
C648 C651 1.499 . S
C649 H623 0.950 . S
C649 C648 1.414 . S
C649 C650 1.374 . S
C650 H624 0.950 . S
C650 C646 1.385 . S
C650 C649 1.374 . S
C651 C648 1.499 . S
C651 C652 1.373 . S
C651 C653 1.389 . S
C652 H625 0.950 . S
C652 C638 1.377 . S
C652 C651 1.373 . S
C653 C637 1.377 . S
C653 C651 1.389 . S
C653 C654 1.524 . S
C654 C653 1.524 . S
C654 C655 1.397 . S
C654 C659 1.363 . S
C655 H626 0.950 . S
C655 C654 1.397 . S
C655 C656 1.334 . S
C656 H627 0.950 . S
C656 C655 1.334 . S
C656 C657 1.287 . S
C657 C656 1.287 . S
C657 C658 1.524 . S
C657 H660 0.999 . S
C658 H628 0.950 . S
C658 C657 1.524 . S
C658 C659 1.415 . S
C659 H629 0.950 . S
C659 C654 1.363 . S
C659 C658 1.415 . S
H660 C657 0.999 . S
H661 C642 0.913 . S
H662 C680 0.951 . S
H663 C682 0.951 . S
H664 C684 0.950 . S
H665 C685 0.950 . S
H666 C687 0.950 . S
H667 C690 0.950 . S
H668 C691 0.950 . S
H669 C693 0.950 . S
H670 C694 0.950 . S
H671 C695 0.951 . S
H672 C697 0.951 . S
H673 C699 0.950 . S
H674 C700 0.950 . S
H675 C702 0.950 . S
H676 C705 0.950 . S
H677 C706 0.950 . S
H678 C708 0.950 . S
H679 C709 0.950 . S
C680 H662 0.951 . S
C680 C681 1.366 . S
C680 C682 1.388 . S
C681 C680 1.366 . S
C681 C685 1.385 . S
C682 H663 0.951 . S
C682 C680 1.388 . S
C682 C683 1.366 . S
C683 C682 1.366 . S
C683 C684 1.414 . S
C683 C686 1.499 . S
C684 H664 0.950 . S
C684 C683 1.414 . S
C684 C685 1.374 . S
C685 H665 0.950 . S
C685 C681 1.385 . S
C685 C684 1.374 . S
C686 C683 1.499 . S
C686 C687 1.373 . S
C686 C688 1.389 . S
C687 H666 0.950 . S
C687 C686 1.373 . S
C687 C703 1.377 . S
C688 C686 1.389 . S
C688 C689 1.524 . S
C688 C702 1.377 . S
C689 C688 1.524 . S
C689 C690 1.397 . S
C689 C694 1.363 . S
C690 H667 0.950 . S
C690 C689 1.397 . S
C690 C691 1.334 . S
C691 H668 0.950 . S
C691 C690 1.334 . S
C691 C692 1.287 . S
C692 C691 1.287 . S
C692 C693 1.524 . S
C692 H711 0.913 . S
C693 H669 0.950 . S
C693 C692 1.524 . S
C693 C694 1.415 . S
C694 H670 0.950 . S
C694 C689 1.363 . S
C694 C693 1.415 . S
C695 H671 0.951 . S
C695 C696 1.366 . S
C695 C697 1.388 . S
C696 C695 1.366 . S
C696 C700 1.385 . S
C697 H672 0.951 . S
C697 C695 1.388 . S
C697 C698 1.366 . S
C698 C697 1.366 . S
C698 C699 1.414 . S
C698 C701 1.499 . S
C699 H673 0.950 . S
C699 C698 1.414 . S
C699 C700 1.374 . S
C700 H674 0.950 . S
C700 C696 1.385 . S
C700 C699 1.374 . S
C701 C698 1.499 . S
C701 C702 1.373 . S
C701 C703 1.389 . S
C702 H675 0.950 . S
C702 C688 1.377 . S
C702 C701 1.373 . S
C703 C687 1.377 . S
C703 C701 1.389 . S
C703 C704 1.524 . S
C704 C703 1.524 . S
C704 C705 1.397 . S
C704 C709 1.363 . S
C705 H676 0.950 . S
C705 C704 1.397 . S
C705 C706 1.334 . S
C706 H677 0.950 . S
C706 C705 1.334 . S
C706 C707 1.287 . S
C707 C706 1.287 . S
C707 C708 1.524 . S
C707 H710 0.999 . S
C708 H678 0.950 . S
C708 C707 1.524 . S
C708 C709 1.415 . S
C709 H679 0.950 . S
C709 C704 1.363 . S
C709 C708 1.415 . S
H710 C707 0.999 . S
H711 C692 0.913 . S
H712 C730 0.951 . S
H713 C732 0.951 . S
H714 C734 0.950 . S
H715 C735 0.950 . S
H716 C737 0.950 . S
H717 C740 0.950 . S
H718 C741 0.950 . S
H719 C743 0.950 . S
H720 C744 0.950 . S
H721 C745 0.951 . S
H722 C747 0.951 . S
H723 C749 0.950 . S
H724 C750 0.950 . S
H725 C752 0.950 . S
H726 C755 0.950 . S
H727 C756 0.950 . S
H728 C758 0.950 . S
H729 C759 0.950 . S
C730 H712 0.951 . S
C730 C731 1.366 . S
C730 C732 1.388 . S
C731 C730 1.366 . S
C731 C735 1.385 . S
C732 H713 0.951 . S
C732 C730 1.388 . S
C732 C733 1.366 . S
C733 C732 1.366 . S
C733 C734 1.414 . S
C733 C736 1.499 . S
C734 H714 0.950 . S
C734 C733 1.414 . S
C734 C735 1.374 . S
C735 H715 0.950 . S
C735 C731 1.385 . S
C735 C734 1.374 . S
C736 C733 1.499 . S
C736 C737 1.373 . S
C736 C738 1.389 . S
C737 H716 0.950 . S
C737 C736 1.373 . S
C737 C753 1.377 . S
C738 C736 1.389 . S
C738 C739 1.524 . S
C738 C752 1.377 . S
C739 C738 1.524 . S
C739 C740 1.397 . S
C739 C744 1.363 . S
C740 H717 0.950 . S
C740 C739 1.397 . S
C740 C741 1.334 . S
C741 H718 0.950 . S
C741 C740 1.334 . S
C741 C742 1.287 . S
C742 C741 1.287 . S
C742 C743 1.524 . S
C742 H761 0.913 . S
C743 H719 0.950 . S
C743 C742 1.524 . S
C743 C744 1.415 . S
C744 H720 0.950 . S
C744 C739 1.363 . S
C744 C743 1.415 . S
C745 H721 0.951 . S
C745 C746 1.366 . S
C745 C747 1.388 . S
C746 C745 1.366 . S
C746 C750 1.385 . S
C747 H722 0.951 . S
C747 C745 1.388 . S
C747 C748 1.366 . S
C748 C747 1.366 . S
C748 C749 1.414 . S
C748 C751 1.499 . S
C749 H723 0.950 . S
C749 C748 1.414 . S
C749 C750 1.374 . S
C750 H724 0.950 . S
C750 C746 1.385 . S
C750 C749 1.374 . S
C751 C748 1.499 . S
C751 C752 1.373 . S
C751 C753 1.389 . S
C752 H725 0.950 . S
C752 C738 1.377 . S
C752 C751 1.373 . S
C753 C737 1.377 . S
C753 C751 1.389 . S
C753 C754 1.524 . S
C754 C753 1.524 . S
C754 C755 1.397 . S
C754 C759 1.363 . S
C755 H726 0.950 . S
C755 C754 1.397 . S
C755 C756 1.334 . S
C756 H727 0.950 . S
C756 C755 1.334 . S
C756 C757 1.287 . S
C757 C756 1.287 . S
C757 C758 1.524 . S
C757 H760 0.999 . S
C758 H728 0.950 . S
C758 C757 1.524 . S
C758 C759 1.415 . S
C759 H729 0.950 . S
C759 C754 1.363 . S
C759 C758 1.415 . S
H760 C757 0.999 . S
H761 C742 0.913 . S
H762 C780 0.951 . S
H763 C782 0.951 . S
H764 C784 0.950 . S
H765 C785 0.950 . S
H766 C787 0.950 . S
H767 C790 0.950 . S
H768 C791 0.950 . S
H769 C793 0.950 . S
H770 C794 0.950 . S
H771 C795 0.951 . S
H772 C797 0.951 . S
H773 C799 0.950 . S
H774 C800 0.950 . S
H775 C802 0.950 . S
H776 C805 0.950 . S
H777 C806 0.950 . S
H778 C808 0.950 . S
H779 C809 0.950 . S
C780 H762 0.951 . S
C780 C781 1.366 . S
C780 C782 1.388 . S
C781 C780 1.366 . S
C781 C785 1.385 . S
C782 H763 0.951 . S
C782 C780 1.388 . S
C782 C783 1.366 . S
C783 C782 1.366 . S
C783 C784 1.414 . S
C783 C786 1.499 . S
C784 H764 0.950 . S
C784 C783 1.414 . S
C784 C785 1.374 . S
C785 H765 0.950 . S
C785 C781 1.385 . S
C785 C784 1.374 . S
C786 C783 1.499 . S
C786 C787 1.373 . S
C786 C788 1.389 . S
C787 H766 0.950 . S
C787 C786 1.373 . S
C787 C803 1.377 . S
C788 C786 1.389 . S
C788 C789 1.524 . S
C788 C802 1.377 . S
C789 C788 1.524 . S
C789 C790 1.397 . S
C789 C794 1.363 . S
C790 H767 0.950 . S
C790 C789 1.397 . S
C790 C791 1.334 . S
C791 H768 0.950 . S
C791 C790 1.334 . S
C791 C792 1.287 . S
C792 C791 1.287 . S
C792 C793 1.524 . S
C792 H811 0.913 . S
C793 H769 0.950 . S
C793 C792 1.524 . S
C793 C794 1.415 . S
C794 H770 0.950 . S
C794 C789 1.363 . S
C794 C793 1.415 . S
C795 H771 0.951 . S
C795 C796 1.366 . S
C795 C797 1.388 . S
C796 C795 1.366 . S
C796 C800 1.385 . S
C797 H772 0.951 . S
C797 C795 1.388 . S
C797 C798 1.366 . S
C798 C797 1.366 . S
C798 C799 1.414 . S
C798 C801 1.499 . S
C799 H773 0.950 . S
C799 C798 1.414 . S
C799 C800 1.374 . S
C800 H774 0.950 . S
C800 C796 1.385 . S
C800 C799 1.374 . S
C801 C798 1.499 . S
C801 C802 1.373 . S
C801 C803 1.389 . S
C802 H775 0.950 . S
C802 C788 1.377 . S
C802 C801 1.373 . S
C803 C787 1.377 . S
C803 C801 1.389 . S
C803 C804 1.524 . S
C804 C803 1.524 . S
C804 C805 1.397 . S
C804 C809 1.363 . S
C805 H776 0.950 . S
C805 C804 1.397 . S
C805 C806 1.334 . S
C806 H777 0.950 . S
C806 C805 1.334 . S
C806 C807 1.287 . S
C807 C806 1.287 . S
C807 C808 1.524 . S
C807 H810 0.999 . S
C808 H778 0.950 . S
C808 C807 1.524 . S
C808 C809 1.415 . S
C809 H779 0.950 . S
C809 C804 1.363 . S
C809 C808 1.415 . S
H810 C807 0.999 . S
H811 C792 0.913 . S
H812 C830 0.951 . S
H813 C832 0.951 . S
H814 C834 0.950 . S
H815 C835 0.950 . S
H816 C837 0.950 . S
H817 C840 0.950 . S
H818 C841 0.950 . S
H819 C843 0.950 . S
H820 C844 0.950 . S
H821 C845 0.951 . S
H822 C847 0.951 . S
H823 C849 0.950 . S
H824 C850 0.950 . S
H825 C852 0.950 . S
H826 C855 0.950 . S
H827 C856 0.950 . S
H828 C858 0.950 . S
H829 C859 0.950 . S
C830 H812 0.951 . S
C830 C831 1.366 . S
C830 C832 1.388 . S
C831 C830 1.366 . S
C831 C835 1.385 . S
C832 H813 0.951 . S
C832 C830 1.388 . S
C832 C833 1.366 . S
C833 C832 1.366 . S
C833 C834 1.414 . S
C833 C836 1.499 . S
C834 H814 0.950 . S
C834 C833 1.414 . S
C834 C835 1.374 . S
C835 H815 0.950 . S
C835 C831 1.385 . S
C835 C834 1.374 . S
C836 C833 1.499 . S
C836 C837 1.373 . S
C836 C838 1.389 . S
C837 H816 0.950 . S
C837 C836 1.373 . S
C837 C853 1.377 . S
C838 C836 1.389 . S
C838 C839 1.524 . S
C838 C852 1.377 . S
C839 C838 1.524 . S
C839 C840 1.397 . S
C839 C844 1.363 . S
C840 H817 0.950 . S
C840 C839 1.397 . S
C840 C841 1.334 . S
C841 H818 0.950 . S
C841 C840 1.334 . S
C841 C842 1.287 . S
C842 C841 1.287 . S
C842 C843 1.524 . S
C842 H861 0.913 . S
C843 H819 0.950 . S
C843 C842 1.524 . S
C843 C844 1.415 . S
C844 H820 0.950 . S
C844 C839 1.363 . S
C844 C843 1.415 . S
C845 H821 0.951 . S
C845 C846 1.366 . S
C845 C847 1.388 . S
C846 C845 1.366 . S
C846 C850 1.385 . S
C847 H822 0.951 . S
C847 C845 1.388 . S
C847 C848 1.366 . S
C848 C847 1.366 . S
C848 C849 1.414 . S
C848 C851 1.499 . S
C849 H823 0.950 . S
C849 C848 1.414 . S
C849 C850 1.374 . S
C850 H824 0.950 . S
C850 C846 1.385 . S
C850 C849 1.374 . S
C851 C848 1.499 . S
C851 C852 1.373 . S
C851 C853 1.389 . S
C852 H825 0.950 . S
C852 C838 1.377 . S
C852 C851 1.373 . S
C853 C837 1.377 . S
C853 C851 1.389 . S
C853 C854 1.524 . S
C854 C853 1.524 . S
C854 C855 1.397 . S
C854 C859 1.363 . S
C855 H826 0.950 . S
C855 C854 1.397 . S
C855 C856 1.334 . S
C856 H827 0.950 . S
C856 C855 1.334 . S
C856 C857 1.287 . S
C857 C856 1.287 . S
C857 C858 1.524 . S
C857 H860 0.999 . S
C858 H828 0.950 . S
C858 C857 1.524 . S
C858 C859 1.415 . S
C859 H829 0.950 . S
C859 C854 1.363 . S
C859 C858 1.415 . S
H860 C857 0.999 . S
H861 C842 0.913 . S
H862 C880 0.951 . S
H863 C882 0.951 . S
H864 C884 0.950 . S
H865 C885 0.950 . S
H866 C887 0.950 . S
H867 C890 0.950 . S
H868 C891 0.950 . S
H869 C893 0.950 . S
H870 C894 0.950 . S
H871 C895 0.951 . S
H872 C897 0.951 . S
H873 C899 0.950 . S
H874 C900 0.950 . S
H875 C902 0.950 . S
H876 C905 0.950 . S
H877 C906 0.950 . S
H878 C908 0.950 . S
H879 C909 0.950 . S
C880 H862 0.951 . S
C880 C881 1.366 . S
C880 C882 1.388 . S
C881 C880 1.366 . S
C881 C885 1.385 . S
C882 H863 0.951 . S
C882 C880 1.388 . S
C882 C883 1.366 . S
C883 C882 1.366 . S
C883 C884 1.414 . S
C883 C886 1.499 . S
C884 H864 0.950 . S
C884 C883 1.414 . S
C884 C885 1.374 . S
C885 H865 0.950 . S
C885 C881 1.385 . S
C885 C884 1.374 . S
C886 C883 1.499 . S
C886 C887 1.373 . S
C886 C888 1.389 . S
C887 H866 0.950 . S
C887 C886 1.373 . S
C887 C903 1.377 . S
C888 C886 1.389 . S
C888 C889 1.524 . S
C888 C902 1.377 . S
C889 C888 1.524 . S
C889 C890 1.397 . S
C889 C894 1.363 . S
C890 H867 0.950 . S
C890 C889 1.397 . S
C890 C891 1.334 . S
C891 H868 0.950 . S
C891 C890 1.334 . S
C891 C892 1.287 . S
C892 C891 1.287 . S
C892 C893 1.524 . S
C892 H911 0.913 . S
C893 H869 0.950 . S
C893 C892 1.524 . S
C893 C894 1.415 . S
C894 H870 0.950 . S
C894 C889 1.363 . S
C894 C893 1.415 . S
C895 H871 0.951 . S
C895 C896 1.366 . S
C895 C897 1.388 . S
C896 C895 1.366 . S
C896 C900 1.385 . S
C897 H872 0.951 . S
C897 C895 1.388 . S
C897 C898 1.366 . S
C898 C897 1.366 . S
C898 C899 1.414 . S
C898 C901 1.499 . S
C899 H873 0.950 . S
C899 C898 1.414 . S
C899 C900 1.374 . S
C900 H874 0.950 . S
C900 C896 1.385 . S
C900 C899 1.374 . S
C901 C898 1.499 . S
C901 C902 1.373 . S
C901 C903 1.389 . S
C902 H875 0.950 . S
C902 C888 1.377 . S
C902 C901 1.373 . S
C903 C887 1.377 . S
C903 C901 1.389 . S
C903 C904 1.524 . S
C904 C903 1.524 . S
C904 C905 1.397 . S
C904 C909 1.363 . S
C905 H876 0.950 . S
C905 C904 1.397 . S
C905 C906 1.334 . S
C906 H877 0.950 . S
C906 C905 1.334 . S
C906 C907 1.287 . S
C907 C906 1.287 . S
C907 C908 1.524 . S
C907 H910 0.999 . S
C908 H878 0.950 . S
C908 C907 1.524 . S
C908 C909 1.415 . S
C909 H879 0.950 . S
C909 C904 1.363 . S
C909 C908 1.415 . S
H910 C907 0.999 . S
H911 C892 0.913 . S
H912 C930 0.951 . S
H913 C932 0.951 . S
H914 C934 0.950 . S
H915 C935 0.950 . S
H916 C937 0.950 . S
H917 C940 0.950 . S
H918 C941 0.950 . S
H919 C943 0.950 . S
H920 C944 0.950 . S
H921 C945 0.951 . S
H922 C947 0.951 . S
H923 C949 0.931 1_554 S
H924 C950 0.950 . S
H925 C952 0.950 1_655 S
H926 C955 0.950 . S
H927 C956 0.950 . S
H928 C958 0.950 . S
H929 C959 0.950 . S
C930 H912 0.951 . S
C930 C931 1.366 . S
C930 C932 1.388 . S
C931 C930 1.366 . S
C931 C935 1.385 . S
C932 H913 0.951 . S
C932 C930 1.388 . S
C932 C933 1.366 . S
C933 C932 1.366 . S
C933 C934 1.414 . S
C933 C936 1.499 . S
C934 H914 0.950 . S
C934 C933 1.414 . S
C934 C935 1.374 . S
C935 H915 0.950 . S
C935 C931 1.385 . S
C935 C934 1.374 . S
C936 C933 1.499 . S
C936 C937 1.373 . S
C936 C938 1.389 . S
C937 H916 0.950 . S
C937 C936 1.373 . S
C937 C953 1.377 . S
C938 C936 1.389 . S
C938 C939 1.524 1_455 S
C938 C952 1.377 . S
C939 C938 1.524 1_655 S
C939 C940 1.397 . S
C939 C944 1.363 . S
C940 H917 0.950 . S
C940 C939 1.397 . S
C940 C941 1.334 . S
C941 H918 0.950 . S
C941 C940 1.334 . S
C941 C942 1.287 . S
C942 C941 1.287 . S
C942 C943 1.524 . S
C942 H961 0.913 . S
C943 H919 0.950 . S
C943 C942 1.524 . S
C943 C944 1.415 . S
C944 H920 0.950 . S
C944 C939 1.363 . S
C944 C943 1.415 . S
C945 H921 0.951 . S
C945 C946 1.366 . S
C945 C947 1.388 . S
C946 C945 1.366 . S
C946 C950 1.385 . S
C947 H922 0.951 . S
C947 C945 1.388 . S
C947 C948 1.366 1_556 S
C948 C947 1.366 1_554 S
C948 C949 1.414 1_554 S
C948 C951 1.499 . S
C949 H923 0.931 1_556 S
C949 C948 1.414 1_556 S
C949 C950 1.374 . S
C950 H924 0.950 . S
C950 C946 1.385 . S
C950 C949 1.374 . S
C951 C948 1.499 . S
C951 C952 1.373 . S
C951 C953 1.389 . S
C952 H925 0.950 1_455 S
C952 C938 1.377 . S
C952 C951 1.373 . S
C953 C937 1.377 . S
C953 C951 1.389 . S
C953 C954 1.524 . S
C954 C953 1.524 . S
C954 C955 1.397 . S
C954 C959 1.363 . S
C955 H926 0.950 . S
C955 C954 1.397 . S
C955 C956 1.334 . S
C956 H927 0.950 . S
C956 C955 1.334 . S
C956 C957 1.287 . S
C957 C956 1.287 . S
C957 C958 1.524 . S
C957 H960 0.999 . S
C958 H928 0.950 . S
C958 C957 1.524 . S
C958 C959 1.415 . S
C959 H929 0.950 . S
C959 C954 1.363 . S
C959 C958 1.415 . S
H960 C957 0.999 . S
H961 C942 0.913 . S
H962 C980 0.952 1_565 S
H963 C982 0.953 1_565 S
H964 C984 0.950 . S
H965 C985 0.950 . S
H966 C987 0.950 . S
H967 C990 0.950 . S
H968 C991 0.950 . S
H969 C993 0.950 . S
H970 C994 0.950 . S
H971 C995 0.951 . S
H972 C997 0.951 . S
H973 C999 0.950 1_565 S
H974 C1000 0.950 1_565 S
H975 C1002 0.950 . S
H976 C1005 0.950 . S
H977 C1006 0.950 . S
H978 C1008 0.950 . S
H979 C1009 0.950 . S
C980 H962 0.952 1_545 S
C980 C981 1.365 . S
C980 C982 1.388 . S
C981 C980 1.365 . S
C981 C985 1.385 . S
C982 H963 0.953 1_545 S
C982 C980 1.388 . S
C982 C983 1.364 . S
C983 C982 1.364 . S
C983 C984 1.414 . S
C983 C986 1.499 . S
C984 H964 0.950 . S
C984 C983 1.414 . S
C984 C985 1.374 . S
C985 H965 0.950 . S
C985 C981 1.385 . S
C985 C984 1.374 . S
C986 C983 1.499 . S
C986 C987 1.373 . S
C986 C988 1.389 1_545 S
C987 H966 0.950 . S
C987 C986 1.373 . S
C987 C1003 1.377 . S
C988 C986 1.389 1_565 S
C988 C989 1.524 . S
C988 C1002 1.377 . S
C989 C988 1.524 . S
C989 C990 1.397 . S
C989 C994 1.363 . S
C990 H967 0.950 . S
C990 C989 1.397 . S
C990 C991 1.334 . S
C991 H968 0.950 . S
C991 C990 1.334 . S
C991 C992 1.287 . S
C992 C991 1.287 . S
C992 C993 1.524 . S
C992 H1011 0.913 . S
C993 H969 0.950 . S
C993 C992 1.524 . S
C993 C994 1.415 . S
C994 H970 0.950 . S
C994 C989 1.363 . S
C994 C993 1.415 . S
C995 H971 0.951 . S
C995 C996 1.366 . S
C995 C997 1.388 . S
C996 C995 1.366 . S
C996 C1000 1.385 . S
C997 H972 0.951 . S
C997 C995 1.388 . S
C997 C998 1.366 . S
C998 C997 1.366 . S
C998 C999 1.414 . S
C998 C1001 1.499 . S
C999 H973 0.950 1_545 S
C999 C998 1.414 . S
C999 C1000 1.374 . S
C1000 H974 0.950 1_545 S
C1000 C996 1.385 . S
C1000 C999 1.374 . S
C1001 C998 1.499 . S
C1001 C1002 1.373 1_545 S
C1001 C1003 1.389 . S
C1002 H975 0.950 . S
C1002 C988 1.377 . S
C1002 C1001 1.373 1_565 S
C1003 C987 1.377 . S
C1003 C1001 1.389 . S
C1003 C1004 1.524 . S
C1004 C1003 1.524 . S
C1004 C1005 1.397 . S
C1004 C1009 1.363 . S
C1005 H976 0.950 . S
C1005 C1004 1.397 . S
C1005 C1006 1.334 . S
C1006 H977 0.950 . S
C1006 C1005 1.334 . S
C1006 C1007 1.287 . S
C1007 C1006 1.287 . S
C1007 C1008 1.524 . S
C1007 H1010 0.999 . S
C1008 H978 0.950 . S
C1008 C1007 1.524 . S
C1008 C1009 1.415 . S
C1009 H979 0.950 . S
C1009 C1004 1.363 . S
C1009 C1008 1.415 . S
H1010 C1007 0.999 . S
H1011 C992 0.913 . S
H1012 C1030 0.951 . S
H1013 C1032 0.951 . S
H1014 C1034 0.950 . S
H1015 C1035 0.950 . S
H1016 C1037 0.950 . S
H1017 C1040 0.950 . S
H1018 C1041 0.950 . S
H1019 C1043 0.950 . S
H1020 C1044 0.950 . S
H1021 C1045 0.951 . S
H1022 C1047 0.951 . S
H1023 C1049 0.950 . S
H1024 C1050 0.950 . S
H1025 C1052 0.950 . S
H1026 C1055 0.950 . S
H1027 C1056 0.950 . S
H1028 C1058 0.950 . S
H1029 C1059 0.950 . S
C1030 H1012 0.951 . S
C1030 C1031 1.366 . S
C1030 C1032 1.388 . S
C1031 C1030 1.366 . S
C1031 C1035 1.385 . S
C1032 H1013 0.951 . S
C1032 C1030 1.388 . S
C1032 C1033 1.366 . S
C1033 C1032 1.366 . S
C1033 C1034 1.414 . S
C1033 C1036 1.499 . S
C1034 H1014 0.950 . S
C1034 C1033 1.414 . S
C1034 C1035 1.374 . S
C1035 H1015 0.950 . S
C1035 C1031 1.385 . S
C1035 C1034 1.374 . S
C1036 C1033 1.499 . S
C1036 C1037 1.373 . S
C1036 C1038 1.389 . S
C1037 H1016 0.950 . S
C1037 C1036 1.373 . S
C1037 C1053 1.377 . S
C1038 C1036 1.389 . S
C1038 C1039 1.524 . S
C1038 C1052 1.377 . S
C1039 C1038 1.524 . S
C1039 C1040 1.397 . S
C1039 C1044 1.363 . S
C1040 H1017 0.950 . S
C1040 C1039 1.397 . S
C1040 C1041 1.334 . S
C1041 H1018 0.950 . S
C1041 C1040 1.334 . S
C1041 C1042 1.287 . S
C1042 C1041 1.287 . S
C1042 C1043 1.524 . S
C1042 H1061 0.913 . S
C1043 H1019 0.950 . S
C1043 C1042 1.524 . S
C1043 C1044 1.415 . S
C1044 H1020 0.950 . S
C1044 C1039 1.363 . S
C1044 C1043 1.415 . S
C1045 H1021 0.951 . S
C1045 C1046 1.366 . S
C1045 C1047 1.388 . S
C1046 C1045 1.366 . S
C1046 C1050 1.385 . S
C1047 H1022 0.951 . S
C1047 C1045 1.388 . S
C1047 C1048 1.366 . S
C1048 C1047 1.366 . S
C1048 C1049 1.414 . S
C1048 C1051 1.499 . S
C1049 H1023 0.950 . S
C1049 C1048 1.414 . S
C1049 C1050 1.374 . S
C1050 H1024 0.950 . S
C1050 C1046 1.385 . S
C1050 C1049 1.374 . S
C1051 C1048 1.499 . S
C1051 C1052 1.373 . S
C1051 C1053 1.389 . S
C1052 H1025 0.950 . S
C1052 C1038 1.377 . S
C1052 C1051 1.373 . S
C1053 C1037 1.377 . S
C1053 C1051 1.389 . S
C1053 C1054 1.524 . S
C1054 C1053 1.524 . S
C1054 C1055 1.397 . S
C1054 C1059 1.363 . S
C1055 H1026 0.950 . S
C1055 C1054 1.397 . S
C1055 C1056 1.334 . S
C1056 H1027 0.950 . S
C1056 C1055 1.334 . S
C1056 C1057 1.287 . S
C1057 C1056 1.287 . S
C1057 C1058 1.524 . S
C1057 H1060 0.999 . S
C1058 H1028 0.950 . S
C1058 C1057 1.524 . S
C1058 C1059 1.415 . S
C1059 H1029 0.950 . S
C1059 C1054 1.363 . S
C1059 C1058 1.415 . S
H1060 C1057 0.999 . S
H1061 C1042 0.913 . S
H1062 C1080 0.951 . S
H1063 C1082 0.951 . S
H1064 C1084 0.950 . S
H1065 C1085 0.950 . S
H1066 C1087 0.950 . S
H1067 C1090 0.933 1_545 S
H1068 C1091 0.950 1_545 S
H1069 C1093 0.950 . S
H1070 C1094 0.950 . S
H1071 C1095 0.951 . S
H1072 C1097 0.951 . S
H1073 C1099 0.950 . S
H1074 C1100 0.950 . S
H1075 C1102 0.950 . S
H1076 C1105 0.950 1_565 S
H1077 C1106 0.950 . S
H1078 C1108 0.950 . S
H1079 C1109 0.950 . S
C1080 H1062 0.951 . S
C1080 C1081 1.366 1_565 S
C1080 C1082 1.388 . S
C1081 C1080 1.366 1_545 S
C1081 C1085 1.385 . S
C1082 H1063 0.951 . S
C1082 C1080 1.388 . S
C1082 C1083 1.366 1_565 S
C1083 C1082 1.366 1_545 S
C1083 C1084 1.414 . S
C1083 C1086 1.499 . S
C1084 H1064 0.950 . S
C1084 C1083 1.414 . S
C1084 C1085 1.374 . S
C1085 H1065 0.950 . S
C1085 C1081 1.385 . S
C1085 C1084 1.374 . S
C1086 C1083 1.499 . S
C1086 C1087 1.373 . S
C1086 C1088 1.389 1_545 S
C1087 H1066 0.950 . S
C1087 C1086 1.373 . S
C1087 C1103 1.377 . S
C1088 C1086 1.389 1_565 S
C1088 C1089 1.524 . S
C1088 C1102 1.377 . S
C1089 C1088 1.524 . S
C1089 C1090 1.425 . S
C1089 C1094 1.363 . S
C1090 H1067 0.933 1_565 S
C1090 C1089 1.425 . S
C1090 C1091 1.323 . S
C1091 H1068 0.950 1_565 S
C1091 C1090 1.323 . S
C1091 C1092 1.287 . S
C1092 C1091 1.287 . S
C1092 C1093 1.524 . S
C1092 H1111 0.913 . S
C1093 H1069 0.950 . S
C1093 C1092 1.524 . S
C1093 C1094 1.415 . S
C1094 H1070 0.950 . S
C1094 C1089 1.363 . S
C1094 C1093 1.415 . S
C1095 H1071 0.951 . S
C1095 C1096 1.366 . S
C1095 C1097 1.388 . S
C1096 C1095 1.366 . S
C1096 C1100 1.385 1_545 S
C1097 H1072 0.951 . S
C1097 C1095 1.388 . S
C1097 C1098 1.366 . S
C1098 C1097 1.366 . S
C1098 C1099 1.414 1_545 S
C1098 C1101 1.499 . S
C1099 H1073 0.950 . S
C1099 C1098 1.414 1_565 S
C1099 C1100 1.374 . S
C1100 H1074 0.950 . S
C1100 C1096 1.385 1_565 S
C1100 C1099 1.374 . S
C1101 C1098 1.499 . S
C1101 C1102 1.373 1_545 S
C1101 C1103 1.389 . S
C1102 H1075 0.950 . S
C1102 C1088 1.377 . S
C1102 C1101 1.373 1_565 S
C1103 C1087 1.377 . S
C1103 C1101 1.389 . S
C1103 C1104 1.524 . S
C1104 C1103 1.524 . S
C1104 C1105 1.397 . S
C1104 C1109 1.363 . S
C1105 H1076 0.950 1_545 S
C1105 C1104 1.397 . S
C1105 C1106 1.334 . S
C1106 H1077 0.950 . S
C1106 C1105 1.334 . S
C1106 C1107 1.287 . S
C1107 C1106 1.287 . S
C1107 C1108 1.524 . S
C1107 H1110 0.999 . S
C1108 H1078 0.950 . S
C1108 C1107 1.524 . S
C1108 C1109 1.415 . S
C1109 H1079 0.950 . S
C1109 C1104 1.363 . S
C1109 C1108 1.415 . S
H1110 C1107 0.999 . S
H1111 C1092 0.913 . S
H1112 C1130 0.951 . S
H1113 C1132 0.951 . S
H1114 C1134 0.950 . S
H1115 C1135 0.950 . S
H1116 C1137 0.950 . S
H1117 C1140 0.950 . S
H1118 C1141 0.950 . S
H1119 C1143 0.950 . S
H1120 C1144 0.950 . S
H1121 C1145 0.951 . S
H1122 C1147 0.980 . S
H1123 C1149 0.950 1_556 S
H1124 C1150 0.950 . S
H1125 C1152 0.950 . S
H1126 C1155 0.950 . S
H1127 C1156 0.953 . S
H1128 C1158 0.950 . S
H1129 C1159 0.950 . S
C1130 H1112 0.951 . S
C1130 C1131 1.366 . S
C1130 C1132 1.388 . S
C1131 C1130 1.366 . S
C1131 C1135 1.385 . S
C1132 H1113 0.951 . S
C1132 C1130 1.388 . S
C1132 C1133 1.366 . S
C1133 C1132 1.366 . S
C1133 C1134 1.414 . S
C1133 C1136 1.499 . S
C1134 H1114 0.950 . S
C1134 C1133 1.414 . S
C1134 C1135 1.374 . S
C1135 H1115 0.950 . S
C1135 C1131 1.385 . S
C1135 C1134 1.374 . S
C1136 C1133 1.499 . S
C1136 C1137 1.373 . S
C1136 C1138 1.389 . S
C1137 H1116 0.950 . S
C1137 C1136 1.373 . S
C1137 C1153 1.377 . S
C1138 C1136 1.389 . S
C1138 C1139 1.524 . S
C1138 C1152 1.377 . S
C1139 C1138 1.524 . S
C1139 C1140 1.397 . S
C1139 C1144 1.363 . S
C1140 H1117 0.950 . S
C1140 C1139 1.397 . S
C1140 C1141 1.334 . S
C1141 H1118 0.950 . S
C1141 C1140 1.334 . S
C1141 C1142 1.287 . S
C1142 C1141 1.287 . S
C1142 C1143 1.524 . S
C1142 H1161 0.913 . S
C1143 H1119 0.950 . S
C1143 C1142 1.524 . S
C1143 C1144 1.415 . S
C1144 H1120 0.950 . S
C1144 C1139 1.363 . S
C1144 C1143 1.415 . S
C1145 H1121 0.951 . S
C1145 C1146 1.366 . S
C1145 C1147 1.388 . S
C1146 C1145 1.366 . S
C1146 C1150 1.385 . S
C1147 H1122 0.980 . S
C1147 C1145 1.388 . S
C1147 C1148 1.366 1_554 S
C1148 C1147 1.366 1_556 S
C1148 C1149 1.414 1_556 S
C1148 C1151 1.499 . S
C1149 H1123 0.950 1_554 S
C1149 C1148 1.414 1_554 S
C1149 C1150 1.374 . S
C1150 H1124 0.950 . S
C1150 C1146 1.385 . S
C1150 C1149 1.374 . S
C1151 C1148 1.499 . S
C1151 C1152 1.373 . S
C1151 C1153 1.389 . S
C1152 H1125 0.950 . S
C1152 C1138 1.377 . S
C1152 C1151 1.373 . S
C1153 C1137 1.377 . S
C1153 C1151 1.389 . S
C1153 C1154 1.524 . S
C1154 C1153 1.524 . S
C1154 C1155 1.397 . S
C1154 C1159 1.363 . S
C1155 H1126 0.950 . S
C1155 C1154 1.397 . S
C1155 C1156 1.332 1_556 S
C1156 H1127 0.953 . S
C1156 C1155 1.332 1_554 S
C1156 C1157 1.286 1_554 S
C1157 C1156 1.286 1_556 S
C1157 C1158 1.524 . S
C1157 H1160 0.999 1_556 S
C1158 H1128 0.950 . S
C1158 C1157 1.524 . S
C1158 C1159 1.415 . S
C1159 H1129 0.950 . S
C1159 C1154 1.363 . S
C1159 C1158 1.415 . S
H1160 C1157 0.999 1_554 S
H1161 C1142 0.913 . S
H1162 C1180 0.951 . S
H1163 C1182 0.951 . S
H1164 C1184 0.950 . S
H1165 C1185 0.950 . S
H1166 C1187 0.950 . S
H1167 C1190 0.940 1_455 S
H1168 C1191 0.950 . S
H1169 C1193 0.950 . S
H1170 C1194 0.950 . S
H1171 C1195 0.951 . S
H1172 C1197 0.951 . S
H1173 C1199 0.950 . S
H1174 C1200 0.950 . S
H1175 C1202 0.950 . S
H1176 C1205 0.950 . S
H1177 C1206 0.950 . S
H1178 C1208 0.950 . S
H1179 C1209 0.950 . S
C1180 H1162 0.951 . S
C1180 C1181 1.366 1_655 S
C1180 C1182 1.388 . S
C1181 C1180 1.366 1_455 S
C1181 C1185 1.385 . S
C1182 H1163 0.951 . S
C1182 C1180 1.388 . S
C1182 C1183 1.366 1_655 S
C1183 C1182 1.366 1_455 S
C1183 C1184 1.414 . S
C1183 C1186 1.499 . S
C1184 H1164 0.950 . S
C1184 C1183 1.414 . S
C1184 C1185 1.374 . S
C1185 H1165 0.950 . S
C1185 C1181 1.385 . S
C1185 C1184 1.374 . S
C1186 C1183 1.499 . S
C1186 C1187 1.373 . S
C1186 C1188 1.389 1_455 S
C1187 H1166 0.950 . S
C1187 C1186 1.373 . S
C1187 C1203 1.377 . S
C1188 C1186 1.389 1_655 S
C1188 C1189 1.524 . S
C1188 C1202 1.377 . S
C1189 C1188 1.524 . S
C1189 C1190 1.397 . S
C1189 C1194 1.363 . S
C1190 H1167 0.940 1_655 S
C1190 C1189 1.397 . S
C1190 C1191 1.334 . S
C1191 H1168 0.950 . S
C1191 C1190 1.334 . S
C1191 C1192 1.287 . S
C1192 C1191 1.287 . S
C1192 C1193 1.524 . S
C1192 H1211 0.913 . S
C1193 H1169 0.950 . S
C1193 C1192 1.524 . S
C1193 C1194 1.415 . S
C1194 H1170 0.950 . S
C1194 C1189 1.363 . S
C1194 C1193 1.415 . S
C1195 H1171 0.951 . S
C1195 C1196 1.366 . S
C1195 C1197 1.388 . S
C1196 C1195 1.366 . S
C1196 C1200 1.385 1_455 S
C1197 H1172 0.951 . S
C1197 C1195 1.388 . S
C1197 C1198 1.366 . S
C1198 C1197 1.366 . S
C1198 C1199 1.414 1_455 S
C1198 C1201 1.499 . S
C1199 H1173 0.950 . S
C1199 C1198 1.414 1_655 S
C1199 C1200 1.374 . S
C1200 H1174 0.950 . S
C1200 C1196 1.385 1_655 S
C1200 C1199 1.374 . S
C1201 C1198 1.499 . S
C1201 C1202 1.373 1_455 S
C1201 C1203 1.389 . S
C1202 H1175 0.950 . S
C1202 C1188 1.377 . S
C1202 C1201 1.373 1_655 S
C1203 C1187 1.377 . S
C1203 C1201 1.389 . S
C1203 C1204 1.524 . S
C1204 C1203 1.524 . S
C1204 C1205 1.397 . S
C1204 C1209 1.363 . S
C1205 H1176 0.950 . S
C1205 C1204 1.397 . S
C1205 C1206 1.334 . S
C1206 H1177 0.950 . S
C1206 C1205 1.334 . S
C1206 C1207 1.287 . S
C1207 C1206 1.287 . S
C1207 C1208 1.524 . S
C1207 H1210 0.999 . S
C1208 H1178 0.950 . S
C1208 C1207 1.524 . S
C1208 C1209 1.415 . S
C1209 H1179 0.950 . S
C1209 C1204 1.363 . S
C1209 C1208 1.415 . S
H1210 C1207 0.999 . S
H1211 C1192 0.913 . S
C331 C6 0.403 . S
C346 C303 0.353 . S
C381 C59 1.832 . S
C396 C239 1.787 . S
C431 C86 1.151 . S
C446 C271 1.132 . S
C481 C15 0.343 . S
C496 C297 0.310 . S
C546 C233 1.856 . S
C531 C50 1.878 . S
C596 C265 1.210 . S
C581 C95 1.221 . S
C631 C46 1.146 . S
C646 C175 1.139 . S
C681 C99 3.010 . S
C696 C207 2.951 . S
C731 C10 1.904 . S
C746 C137 1.885 . S
C796 C169 1.199 . S
C781 C55 1.203 . S
C846 C201 2.919 . S
C831 C90 2.925 . S
C881 C19 1.822 . S
C896 C143 1.786 . S
C946 C213 1.729 . S
C931 C18 1.693 . S
C981 C49 1.337 . S
C996 C149 1.356 . S
C1031 C98 1.453 . S
C1046 C181 1.480 . S
C1096 C277 1.455 . S
C1081 C58 1.443 . S
C1146 C309 1.102 . S
C1131 C89 1.091 . S
C1181 C9 1.331 . S
C1196 C245 1.345 . S
