# Generated by pormake.
# Topology eea, (3,6)-cn, num edge types: 1
# Building blocks:
#     Node 0, Type 0, BuildingBlock: CUQRIR_clean_linker_1, # of connection points: 3
#     Node 1, Type 0, BuildingBlock: CUQRIR_clean_linker_1, # of connection points: 3
#     Node 2, Type 0, BuildingBlock: CUQRIR_clean_linker_1, # of connection points: 3
#     Node 3, Type 0, BuildingBlock: CUQRIR_clean_linker_1, # of connection points: 3
#     Node 4, Type 0, BuildingBlock: CUQRIR_clean_linker_1, # of connection points: 3
#     Node 5, Type 0, BuildingBlock: CUQRIR_clean_linker_1, # of connection points: 3
#     Node 6, Type 0, BuildingBlock: CUQRIR_clean_linker_1, # of connection points: 3
#     Node 7, Type 0, BuildingBlock: CUQRIR_clean_linker_1, # of connection points: 3
#     Node 8, Type 0, BuildingBlock: CUQRIR_clean_linker_1, # of connection points: 3
#     Node 9, Type 0, BuildingBlock: CUQRIR_clean_linker_1, # of connection points: 3
#     Node 10, Type 0, BuildingBlock: CUQRIR_clean_linker_1, # of connection points: 3
#     Node 11, Type 0, BuildingBlock: CUQRIR_clean_linker_1, # of connection points: 3
#     Node 12, Type 0, BuildingBlock: CUQRIR_clean_linker_1, # of connection points: 3
#     Node 13, Type 0, BuildingBlock: CUQRIR_clean_linker_1, # of connection points: 3
#     Node 14, Type 0, BuildingBlock: CUQRIR_clean_linker_1, # of connection points: 3
#     Node 15, Type 0, BuildingBlock: CUQRIR_clean_linker_1, # of connection points: 3
#     Node 16, Type 0, BuildingBlock: CUQRIR_clean_linker_1, # of connection points: 3
#     Node 17, Type 0, BuildingBlock: CUQRIR_clean_linker_1, # of connection points: 3
#     Node 18, Type 1, BuildingBlock: NUHQIS_clean_sbu_0, # of connection points: 6
#     Node 19, Type 1, BuildingBlock: NUHQIS_clean_sbu_0, # of connection points: 6
#     Node 20, Type 1, BuildingBlock: NUHQIS_clean_sbu_0, # of connection points: 6
#     Node 21, Type 1, BuildingBlock: NUHQIS_clean_sbu_0, # of connection points: 6
#     Node 22, Type 1, BuildingBlock: NUHQIS_clean_sbu_0, # of connection points: 6
#     Node 23, Type 1, BuildingBlock: NUHQIS_clean_sbu_0, # of connection points: 6
#     Node 24, Type 1, BuildingBlock: NUHQIS_clean_sbu_0, # of connection points: 6
#     Node 25, Type 1, BuildingBlock: NUHQIS_clean_sbu_0, # of connection points: 6
#     Node 26, Type 1, BuildingBlock: NUHQIS_clean_sbu_0, # of connection points: 6
#     Edge 27, Type (0, 1), BuildingBlock: EZIPEK_clean_linker_0, # of connection points: 2
#     Edge 28, Type (0, 1), BuildingBlock: EZIPEK_clean_linker_0, # of connection points: 2
#     Edge 29, Type (0, 1), BuildingBlock: EZIPEK_clean_linker_0, # of connection points: 2
#     Edge 30, Type (0, 1), BuildingBlock: EZIPEK_clean_linker_0, # of connection points: 2
#     Edge 31, Type (0, 1), BuildingBlock: EZIPEK_clean_linker_0, # of connection points: 2
#     Edge 32, Type (0, 1), BuildingBlock: EZIPEK_clean_linker_0, # of connection points: 2
#     Edge 33, Type (0, 1), BuildingBlock: EZIPEK_clean_linker_0, # of connection points: 2
#     Edge 34, Type (0, 1), BuildingBlock: EZIPEK_clean_linker_0, # of connection points: 2
#     Edge 35, Type (0, 1), BuildingBlock: EZIPEK_clean_linker_0, # of connection points: 2
#     Edge 36, Type (0, 1), BuildingBlock: EZIPEK_clean_linker_0, # of connection points: 2
#     Edge 37, Type (0, 1), BuildingBlock: EZIPEK_clean_linker_0, # of connection points: 2
#     Edge 38, Type (0, 1), BuildingBlock: EZIPEK_clean_linker_0, # of connection points: 2
#     Edge 39, Type (0, 1), BuildingBlock: EZIPEK_clean_linker_0, # of connection points: 2
#     Edge 40, Type (0, 1), BuildingBlock: EZIPEK_clean_linker_0, # of connection points: 2
#     Edge 41, Type (0, 1), BuildingBlock: EZIPEK_clean_linker_0, # of connection points: 2
#     Edge 42, Type (0, 1), BuildingBlock: EZIPEK_clean_linker_0, # of connection points: 2
#     Edge 43, Type (0, 1), BuildingBlock: EZIPEK_clean_linker_0, # of connection points: 2
#     Edge 44, Type (0, 1), BuildingBlock: EZIPEK_clean_linker_0, # of connection points: 2
#     Edge 45, Type (0, 1), BuildingBlock: EZIPEK_clean_linker_0, # of connection points: 2
#     Edge 46, Type (0, 1), BuildingBlock: EZIPEK_clean_linker_0, # of connection points: 2
#     Edge 47, Type (0, 1), BuildingBlock: EZIPEK_clean_linker_0, # of connection points: 2
#     Edge 48, Type (0, 1), BuildingBlock: EZIPEK_clean_linker_0, # of connection points: 2
#     Edge 49, Type (0, 1), BuildingBlock: EZIPEK_clean_linker_0, # of connection points: 2
#     Edge 50, Type (0, 1), BuildingBlock: EZIPEK_clean_linker_0, # of connection points: 2
#     Edge 51, Type (0, 1), BuildingBlock: EZIPEK_clean_linker_0, # of connection points: 2
#     Edge 52, Type (0, 1), BuildingBlock: EZIPEK_clean_linker_0, # of connection points: 2
#     Edge 53, Type (0, 1), BuildingBlock: EZIPEK_clean_linker_0, # of connection points: 2
#     Edge 54, Type (0, 1), BuildingBlock: EZIPEK_clean_linker_0, # of connection points: 2
#     Edge 55, Type (0, 1), BuildingBlock: EZIPEK_clean_linker_0, # of connection points: 2
#     Edge 56, Type (0, 1), BuildingBlock: EZIPEK_clean_linker_0, # of connection points: 2
#     Edge 57, Type (0, 1), BuildingBlock: EZIPEK_clean_linker_0, # of connection points: 2
#     Edge 58, Type (0, 1), BuildingBlock: EZIPEK_clean_linker_0, # of connection points: 2
#     Edge 59, Type (0, 1), BuildingBlock: EZIPEK_clean_linker_0, # of connection points: 2
#     Edge 60, Type (0, 1), BuildingBlock: EZIPEK_clean_linker_0, # of connection points: 2
#     Edge 61, Type (0, 1), BuildingBlock: EZIPEK_clean_linker_0, # of connection points: 2
#     Edge 62, Type (0, 1), BuildingBlock: EZIPEK_clean_linker_0, # of connection points: 2
#     Edge 63, Type (0, 1), BuildingBlock: EZIPEK_clean_linker_0, # of connection points: 2
#     Edge 64, Type (0, 1), BuildingBlock: EZIPEK_clean_linker_0, # of connection points: 2
#     Edge 65, Type (0, 1), BuildingBlock: EZIPEK_clean_linker_0, # of connection points: 2
#     Edge 66, Type (0, 1), BuildingBlock: EZIPEK_clean_linker_0, # of connection points: 2
#     Edge 67, Type (0, 1), BuildingBlock: EZIPEK_clean_linker_0, # of connection points: 2
#     Edge 68, Type (0, 1), BuildingBlock: EZIPEK_clean_linker_0, # of connection points: 2
#     Edge 69, Type (0, 1), BuildingBlock: EZIPEK_clean_linker_0, # of connection points: 2
#     Edge 70, Type (0, 1), BuildingBlock: EZIPEK_clean_linker_0, # of connection points: 2
#     Edge 71, Type (0, 1), BuildingBlock: EZIPEK_clean_linker_0, # of connection points: 2
#     Edge 72, Type (0, 1), BuildingBlock: EZIPEK_clean_linker_0, # of connection points: 2
#     Edge 73, Type (0, 1), BuildingBlock: EZIPEK_clean_linker_0, # of connection points: 2
#     Edge 74, Type (0, 1), BuildingBlock: EZIPEK_clean_linker_0, # of connection points: 2
#     Edge 75, Type (0, 1), BuildingBlock: EZIPEK_clean_linker_0, # of connection points: 2
#     Edge 76, Type (0, 1), BuildingBlock: EZIPEK_clean_linker_0, # of connection points: 2
#     Edge 77, Type (0, 1), BuildingBlock: EZIPEK_clean_linker_0, # of connection points: 2
#     Edge 78, Type (0, 1), BuildingBlock: EZIPEK_clean_linker_0, # of connection points: 2
#     Edge 79, Type (0, 1), BuildingBlock: EZIPEK_clean_linker_0, # of connection points: 2
#     Edge 80, Type (0, 1), BuildingBlock: EZIPEK_clean_linker_0, # of connection points: 2
# Relax obj value: 0.109
# Max RMSD: 0.271
# Mean RMSD: 0.198
data_MOF--net-eea--node1-NUHQIS_clean_sbu_0--node2-CUQRIR_clean_linker_1--edge1-EZIPEK_clean_linker_0
_symmetry_space_group_name_H-M    P1
_symmetry_Int_Tables_number       1
_symmetry_cell_setting            triclinic
loop_
_symmetry_equiv_pos_as_xyz
'x, y, z'
_cell_length_a     34.363524
_cell_length_b     35.542162
_cell_length_c     50.659203
_cell_angle_alpha  86.570304
_cell_angle_beta   92.605772
_cell_angle_gamma 118.90587
loop_
_atom_site_label
_atom_site_type_symbol
_atom_site_fract_x
_atom_site_fract_y
_atom_site_fract_z
_atom_type_partial_charge
C0 C 0.20676 0.1087 0.40206 0.0
N1 N 0.22503 0.14189 0.41862 0.0
N2 N 0.21342 0.07588 0.41163 0.0
C3 C 0.18322 0.1085 0.37626 0.0
C4 C 0.23601 0.08981 0.43465 0.0
N5 N 0.24248 0.12961 0.43926 0.0
C6 C 0.25046 0.06374 0.45297 0.0
H7 H 0.1697 0.13124 0.3761 0.0
H8 H 0.1558 0.07574 0.37249 0.0
H9 H 0.20713 0.11821 0.35995 0.0
H10 H 0.27598 0.08401 0.46758 0.0
H11 H 0.26393 0.04709 0.44155 0.0
H12 H 0.22106 0.03868 0.46368 0.0
C13 C 0.91502 0.12499 0.40906 0.0
N14 N 0.93422 0.15609 0.42704 0.0
N15 N 0.87323 0.09588 0.41598 0.0
C16 C 0.93705 0.12323 0.38453 0.0
C17 C 0.86727 0.10998 0.43882 0.0
N18 N 0.90436 0.14633 0.44604 0.0
C19 C 0.82554 0.08677 0.45469 0.0
H20 H 0.92058 0.09038 0.37685 0.0
H21 H 0.97275 0.1337 0.38861 0.0
H22 H 0.93484 0.14557 0.36903 0.0
H23 H 0.82734 0.06125 0.46755 0.0
H24 H 0.79596 0.07109 0.44141 0.0
H25 H 0.8216 0.10912 0.46731 0.0
C26 C 0.88204 0.76911 0.40993 0.0
N27 N 0.90673 0.75744 0.42653 0.0
N28 N 0.85121 0.77295 0.42334 0.0
C29 C 0.89027 0.77988 0.38084 0.0
C30 C 0.85758 0.76307 0.44873 0.0
N31 N 0.89124 0.75339 0.45087 0.0
C32 C 0.82973 0.76111 0.47136 0.0
H33 H 0.91732 0.81354 0.37813 0.0
H34 H 0.86003 0.77679 0.37015 0.0
H35 H 0.901 0.75852 0.37216 0.0
H36 H 0.80273 0.72753 0.4745 0.0
H37 H 0.8145 0.78219 0.46711 0.0
H38 H 0.85014 0.77073 0.48983 0.0
C39 C 0.1281 0.25897 0.65838 0.0
N40 N 0.15647 0.26846 0.63826 0.0
N41 N 0.08752 0.25077 0.64906 0.0
C42 C 0.13957 0.25525 0.6871 0.0
C43 C 0.0921 0.25621 0.62256 0.0
N44 N 0.13411 0.26726 0.61578 0.0
C45 C 0.05596 0.25256 0.60325 0.0
H46 H 0.14053 0.22464 0.69095 0.0
H47 H 0.11483 0.25571 0.70022 0.0
H48 H 0.17305 0.28201 0.69185 0.0
H49 H 0.05799 0.28461 0.59999 0.0
H50 H 0.02263 0.22966 0.61103 0.0
H51 H 0.06018 0.24192 0.58395 0.0
C52 C 0.80546 0.90195 0.65724 0.0
N53 N 0.78922 0.87047 0.63946 0.0
N54 N 0.79089 0.93059 0.65144 0.0
C55 C 0.83458 0.90419 0.68083 0.0
C56 C 0.76563 0.91617 0.62934 0.0
N57 N 0.76477 0.8798 0.62167 0.0
C58 C 0.74371 0.93906 0.61451 0.0
H59 H 0.81347 0.88981 0.69846 0.0
H60 H 0.85866 0.93813 0.68485 0.0
H61 H 0.85287 0.88629 0.67774 0.0
H62 H 0.76847 0.96506 0.60148 0.0
H63 H 0.73191 0.95411 0.62846 0.0
H64 H 0.71533 0.91665 0.60214 0.0
C65 C 0.11923 0.91851 0.65505 0.0
N66 N 0.09857 0.88435 0.63939 0.0
N67 N 0.15641 0.94999 0.64353 0.0
C68 C 0.10214 0.92174 0.68114 0.0
C69 C 0.1578 0.93392 0.62026 0.0
N70 N 0.12243 0.89421 0.61747 0.0
C71 C 0.19277 0.95789 0.59981 0.0
H72 H 0.07393 0.9284 0.67738 0.0
H73 H 0.12831 0.94795 0.69276 0.0
H74 H 0.0895 0.89085 0.69283 0.0
H75 H 0.22553 0.97824 0.60935 0.0
H76 H 0.1835 0.97938 0.58755 0.0
H77 H 0.19557 0.93545 0.58669 0.0
C78 C 0.87433 0.43988 0.73906 0.0
N79 N 0.88948 0.47281 0.75564 0.0
N80 N 0.87776 0.4063 0.75072 0.0
C81 C 0.85801 0.44124 0.71118 0.0
C82 C 0.89503 0.41969 0.77504 0.0
N83 N 0.90212 0.46005 0.77813 0.0
C84 C 0.90713 0.39419 0.79528 0.0
H85 H 0.8403 0.46042 0.70964 0.0
H86 H 0.83572 0.4084 0.70433 0.0
H87 H 0.887 0.45692 0.69796 0.0
H88 H 0.94281 0.40384 0.79335 0.0
H89 H 0.88713 0.35918 0.79222 0.0
H90 H 0.90213 0.40099 0.81557 0.0
C91 C 0.58488 0.46635 0.74142 0.0
N92 N 0.60502 0.49536 0.76055 0.0
N93 N 0.54948 0.43049 0.75093 0.0
C94 C 0.60088 0.47218 0.71356 0.0
C95 C 0.54824 0.43827 0.77654 0.0
N96 N 0.58151 0.47794 0.78263 0.0
C97 C 0.51269 0.40783 0.79521 0.0
H98 H 0.57245 0.45577 0.69959 0.0
H99 H 0.62275 0.45742 0.71245 0.0
H100 H 0.62004 0.50679 0.7075 0.0
H101 H 0.50266 0.37398 0.79113 0.0
H102 H 0.48298 0.41231 0.79214 0.0
H103 H 0.52425 0.414 0.81611 0.0
C104 C 0.56405 0.12224 0.74475 0.0
N105 N 0.58242 0.10322 0.76104 0.0
N106 N 0.52163 0.10868 0.75123 0.0
C107 C 0.58727 0.15365 0.72214 0.0
C108 C 0.51452 0.08104 0.77217 0.0
N109 N 0.55156 0.07771 0.77853 0.0
C110 C 0.47195 0.05911 0.78728 0.0
H111 H 0.57442 0.17686 0.71892 0.0
H112 H 0.5807 0.13569 0.70384 0.0
H113 H 0.62373 0.17145 0.72582 0.0
H114 H 0.44303 0.05141 0.77371 0.0
H115 H 0.47255 0.08123 0.80204 0.0
H116 H 0.46802 0.02921 0.7978 0.0
C117 C 0.7866 0.58302 0.99261 0.0
N118 N 0.81815 0.59667 0.9739 0.0
N119 N 0.75 0.58407 0.98282 0.0
C120 C 0.78961 0.56434 1.01962 0.0
C121 C 0.7601 0.59926 0.95762 0.0
N122 N 0.80158 0.6071 0.952 0.0
C123 C 0.72951 0.60679 0.9384 0.0
H124 H 0.77349 0.52881 1.0188 0.0
H125 H 0.77178 0.57197 0.0343 0.0
H126 H 0.82471 0.57662 0.02626 0.0
H127 H 0.7398 0.64161 0.93709 0.0
H128 H 0.69444 0.58908 0.94469 0.0
H129 H 0.73197 0.59709 0.91838 0.0
C130 C 0.46072 0.22486 0.99314 0.0
N131 N 0.45234 0.19669 0.97394 0.0
N132 N 0.45913 0.26014 0.9832 0.0
C133 C 0.47218 0.21879 1.02151 0.0
C134 C 0.44919 0.25276 0.9573 0.0
N135 N 0.44461 0.21402 0.95145 0.0
C136 C 0.44179 0.28264 0.93803 0.0
H137 H 0.45948 0.23395 0.0348 0.0
H138 H 0.50889 0.23471 0.02398 0.0
H139 H 0.45825 0.18414 0.02729 0.0
H140 H 0.44846 0.27833 0.9175 0.0
H141 H 0.46335 0.31661 0.94323 0.0
H142 H 0.40666 0.27546 0.93902 0.0
C143 C 0.78386 0.24605 0.98797 0.0
N144 N 0.76296 0.21149 0.97261 0.0
N145 N 0.81953 0.27826 0.9755 0.0
C146 C 0.76865 0.2488 1.01479 0.0
C147 C 0.81946 0.26214 0.95191 0.0
N148 N 0.78512 0.22169 0.95006 0.0
C149 C 0.85352 0.28542 0.93091 0.0
H150 H 0.74171 0.25752 1.0122 0.0
H151 H 0.79624 0.27364 0.02647 0.0
H152 H 0.75495 0.2173 0.02585 0.0
H153 H 0.87802 0.27347 0.93216 0.0
H154 H 0.87132 0.32064 0.93352 0.0
H155 H 0.83756 0.27873 0.91097 0.0
C156 C 0.54935 0.77349 0.07013 0.0
N157 N 0.57498 0.81013 0.08376 0.0
N158 N 0.54959 0.73878 0.08241 0.0
C159 C 0.51799 0.76889 0.04715 0.0
C160 C 0.57323 0.75385 0.10479 0.0
N161 N 0.58805 0.7966 0.10604 0.0
C162 C 0.58208 0.72652 0.12547 0.0
H163 H 0.50646 0.7931 0.04712 0.0
H164 H 0.48809 0.73672 0.04812 0.0
H165 H 0.53419 0.77114 0.02826 0.0
H166 H 0.61613 0.73138 0.12296 0.0
H167 H 0.55806 0.69188 0.12354 0.0
H168 H 0.58016 0.73603 0.14564 0.0
C169 C 0.24331 0.79539 0.07276 0.0
N170 N 0.26567 0.826 0.09075 0.0
N171 N 0.20781 0.76113 0.0837 0.0
C172 C 0.25769 0.79769 0.04484 0.0
C173 C 0.20888 0.77154 0.10901 0.0
N174 N 0.24362 0.81112 0.11352 0.0
C175 C 0.17409 0.74397 0.12894 0.0
H176 H 0.2285 0.78002 0.0316 0.0
H177 H 0.2791 0.78233 0.04446 0.0
H178 H 0.27695 0.83158 0.03731 0.0
H179 H 0.18789 0.75037 0.14941 0.0
H180 H 0.16051 0.70932 0.1254 0.0
H181 H 0.14627 0.75149 0.12694 0.0
C182 C 0.21428 0.43405 0.0753 0.0
N183 N 0.23746 0.42109 0.09229 0.0
N184 N 0.18333 0.43842 0.08816 0.0
C185 C 0.22412 0.44548 0.04638 0.0
C186 C 0.18808 0.42757 0.11362 0.0
N187 N 0.22095 0.41678 0.11637 0.0
C188 C 0.15933 0.42575 0.13568 0.0
H189 H 0.25303 0.47826 0.04428 0.0
H190 H 0.19532 0.44503 0.03529 0.0
H191 H 0.23289 0.42276 0.03764 0.0
H192 H 0.13029 0.39299 0.13732 0.0
H193 H 0.14689 0.44915 0.13166 0.0
H194 H 0.17807 0.43241 0.1548 0.0
C195 C 0.45213 0.91446 0.32657 0.0
N196 N 0.48571 0.92851 0.30937 0.0
N197 N 0.42007 0.92299 0.31663 0.0
C198 C 0.44976 0.89072 0.35259 0.0
C199 C 0.43486 0.94233 0.29264 0.0
N200 N 0.47465 0.94514 0.2879 0.0
C201 C 0.40932 0.9565 0.27348 0.0
H202 H 0.46624 0.87066 0.35141 0.0
H203 H 0.41484 0.87004 0.35872 0.0
H204 H 0.46743 0.91453 0.36797 0.0
H205 H 0.43205 0.98303 0.25991 0.0
H206 H 0.38909 0.967 0.28429 0.0
H207 H 0.38634 0.92892 0.26152 0.0
C208 C 0.12598 0.56186 0.32739 0.0
N209 N 0.1137 0.53348 0.30795 0.0
N210 N 0.11476 0.59274 0.32077 0.0
C211 C 0.15049 0.56025 0.35241 0.0
C212 C 0.09502 0.58236 0.29666 0.0
N213 N 0.09473 0.54657 0.28847 0.0
C214 C 0.07831 0.60875 0.28056 0.0
H215 H 0.15242 0.58363 0.36667 0.0
H216 H 0.18467 0.56771 0.34744 0.0
H217 H 0.13382 0.52737 0.36179 0.0
H218 H 0.10628 0.6346 0.26923 0.0
H219 H 0.06559 0.62416 0.29364 0.0
H220 H 0.05165 0.58868 0.26642 0.0
C221 C 0.43873 0.58359 0.32119 0.0
N222 N 0.42038 0.5489 0.3057 0.0
N223 N 0.47797 0.61447 0.31141 0.0
C224 C 0.41905 0.5872 0.34617 0.0
C225 C 0.48294 0.59787 0.28935 0.0
N226 N 0.44771 0.55846 0.28544 0.0
C227 C 0.52194 0.62086 0.27128 0.0
H228 H 0.38266 0.56518 0.34652 0.0
H229 H 0.42587 0.62077 0.34815 0.0
H230 H 0.43494 0.57876 0.36337 0.0
H231 H 0.52571 0.59803 0.25901 0.0
H232 H 0.55308 0.63931 0.28285 0.0
H233 H 0.51672 0.6441 0.25803 0.0
Tb234 Tb 0.50634 0.9809 1.00248 0.0
Eu235 Eu 0.53565 0.03023 0.05917 0.0
C236 C 0.54685 0.95 0.04921 0.0
C237 C 0.43772 0.95061 0.05105 0.0
C238 C 0.50547 0.95972 0.93221 0.0
C239 C 0.49 0.96319 0.88508 0.0
C240 C 0.47594 0.94508 0.91049 0.0
C241 C 0.54979 0.99168 0.92798 0.0
C242 C 0.56389 0.00953 0.90259 0.0
C243 C 0.53381 0.99609 0.88107 0.0
C244 C 0.48941 0.94337 0.95926 0.0
O245 O 0.49076 0.03333 0.99519 0.0
O246 O 0.51292 0.07045 0.03396 0.0
O247 O 0.5952 0.06407 0.03238 0.0
O248 O 0.56574 0.03971 0.9912 0.0
C249 C 0.49636 0.06522 1.00967 0.0
O250 O 0.53017 0.06324 0.09262 0.0
O251 O 0.58626 0.05156 0.0906 0.0
O252 O 0.52845 0.96381 0.06528 0.0
O253 O 0.55314 0.96539 0.02472 0.0
O254 O 0.451 0.94084 0.02955 0.0
O255 O 0.46273 0.98579 0.06371 0.0
C256 C 0.59801 0.0664 1.00643 0.0
O257 O 0.5192 0.94466 0.97649 0.0
O258 O 0.4641 0.95681 0.96904 0.0
C259 C 0.55851 0.04801 0.13332 0.0
C260 C 0.54542 0.01559 0.1862 0.0
C261 C 0.5167 0.02918 0.17391 0.0
C262 C 0.52324 0.0454 0.14776 0.0
C263 C 0.58798 0.03533 0.14598 0.0
C264 C 0.58138 0.01908 0.17222 0.0
C265 C 0.56445 0.06379 0.10524 0.0
H266 H 0.46626 0.95278 0.86871 0.0
H267 H 0.44168 0.9206 0.9133 0.0
H268 H 0.57328 1.00378 0.94438 0.0
H269 H 0.59766 0.03522 0.89989 0.0
H270 H 0.48872 0.02658 0.18448 0.0
H271 H 0.50026 0.05534 0.13877 0.0
H272 H 0.61579 0.03741 0.13552 0.0
H273 H 0.60375 0.00858 0.18146 0.0
Tb274 Tb 0.02941 0.53506 0.99775 0.0
Eu275 Eu 0.98563 0.51402 0.05815 0.0
C276 C 0.07419 0.60158 0.0423 0.0
C277 C 0.06459 0.49564 0.04394 0.0
C278 C 0.03363 0.54417 0.9247 0.0
C279 C 0.02061 0.57324 0.88247 0.0
C280 C 0.04204 0.5795 0.90728 0.0
C281 C 0.00293 0.50252 0.917 0.0
C282 C 0.98195 0.4963 0.89219 0.0
C283 C 0.99096 0.53148 0.87466 0.0
C284 C 0.05655 0.55107 0.95082 0.0
O285 O 0.96571 0.47631 0.9943 0.0
O286 O 0.95352 0.45111 0.03778 0.0
O287 O 0.93801 0.52473 0.03064 0.0
O288 O 0.98878 0.56635 0.99891 0.0
C289 C 0.94564 0.44527 1.01237 0.0
O290 O 0.95616 0.46905 0.09178 0.0
O291 O 0.9698 0.53483 0.09421 0.0
O292 O 0.03626 0.58452 0.05466 0.0
O293 O 0.08084 0.58277 1.02276 0.0
O294 O 0.05641 0.49742 1.01851 0.0
O295 O 0.04736 0.50802 0.06181 0.0
C296 C 0.94991 0.55135 1.00974 0.0
O297 O 0.05458 0.57924 0.96521 0.0
O298 O 0.05038 0.5168 0.96492 0.0
C299 C 0.98125 0.50063 0.1333 0.0
C300 C 0.02342 0.50599 0.18329 0.0
C301 C 0.98887 0.51643 0.17993 0.0
C302 C 0.96797 0.51373 0.15518 0.0
C303 C 0.01568 0.48986 0.13668 0.0
C304 C 0.03639 0.49227 0.16151 0.0
C305 C 0.95908 0.49841 0.10719 0.0
H306 H 0.02781 0.60073 0.86916 0.0
H307 H 0.06536 0.61191 0.91283 0.0
H308 H 0.99524 0.4746 0.93001 0.0
H309 H 0.95903 0.46386 0.88649 0.0
H310 H 0.97844 0.52717 0.19646 0.0
H311 H 0.94158 0.52217 0.15309 0.0
H312 H 0.02673 0.47979 0.1201 0.0
H313 H 0.06302 0.48418 0.16365 0.0
Tb314 Tb 0.50684 0.48534 0.06979 0.0
Eu315 Eu 0.48072 0.50096 1.00527 0.0
C316 C 0.48529 0.41428 0.02769 0.0
C317 C 0.57905 0.522 0.02653 0.0
C318 C 0.50217 0.48411 0.14291 0.0
C319 C 0.43874 0.47013 0.16959 0.0
C320 C 0.45585 0.46428 0.14652 0.0
C321 C 0.53084 0.50994 0.16273 0.0
C322 C 0.51373 0.51617 0.18561 0.0
C323 C 0.46762 0.49653 0.18916 0.0
C324 C 0.52106 0.47828 0.11875 0.0
O325 O 0.5198 0.55206 0.0638 0.0
O326 O 0.47917 0.55358 0.02646 0.0
O327 O 0.41596 0.47594 0.02681 0.0
O328 O 0.43671 0.46404 0.06958 0.0
C329 C 0.50184 0.57069 0.04805 0.0
O330 O 0.49674 0.54499 0.97042 0.0
O331 O 0.44925 0.47765 0.96672 0.0
O332 O 0.4791 0.43699 1.00822 0.0
O333 O 0.49545 0.42652 0.05216 0.0
O334 O 0.56474 0.49751 0.04809 0.0
O335 O 0.55457 0.53364 1.01135 0.0
C336 C 0.40746 0.46369 0.05199 0.0
O337 O 0.49441 0.44622 0.1044 0.0
O338 O 0.54497 0.5128 0.10413 0.0
C339 C 0.4967 0.51464 0.92977 0.0
C340 C 0.5374 0.51564 0.88188 0.0
C341 C 0.53518 0.55212 0.88908 0.0
C342 C 0.51491 0.55154 0.91268 0.0
C343 C 0.50038 0.47862 0.923 0.0
C344 C 0.52041 0.47912 0.89928 0.0
C345 C 0.47373 0.51447 0.95416 0.0
H346 H 0.40307 0.45466 0.17202 0.0
H347 H 0.4328 0.44434 0.13153 0.0
H348 H 0.56655 0.52549 0.16045 0.0
H349 H 0.5365 0.53654 0.20056 0.0
H350 H 0.5479 0.58061 0.876 0.0
H351 H 0.5128 0.57983 0.91738 0.0
H352 H 0.48719 0.4498 0.93579 0.0
H353 H 0.52165 0.45056 0.89417 0.0
Tb354 Tb 0.1671 0.31808 0.33777 0.0
Eu355 Eu 0.19656 0.37375 0.39186 0.0
C356 C 0.208 0.29006 0.38678 0.0
C357 C 0.10221 0.28832 0.38717 0.0
C358 C 0.16458 0.2964 0.26742 0.0
C359 C 0.19322 0.28966 0.22584 0.0
C360 C 0.17812 0.27392 0.25151 0.0
C361 C 0.16704 0.33523 0.25742 0.0
C362 C 0.18168 0.35068 0.23177 0.0
C363 C 0.19448 0.32788 0.2157 0.0
C364 C 0.15008 0.28035 0.29475 0.0
O365 O 0.16669 0.37774 0.3257 0.0
O366 O 0.15583 0.39685 0.36611 0.0
O367 O 0.24643 0.41576 0.36141 0.0
O368 O 0.23872 0.36246 0.33478 0.0
C369 C 0.15487 0.39986 0.34009 0.0
O370 O 0.1811 0.40226 0.42403 0.0
O371 O 0.24727 0.40988 0.42146 0.0
O372 O 0.22622 0.32906 0.39557 0.0
O373 O 0.17772 0.27741 0.36774 0.0
O374 O 0.10585 0.29215 0.36112 0.0
O375 O 0.13595 0.31122 0.40288 0.0
C376 C 0.26077 0.40226 0.34249 0.0
O377 O 0.18127 0.283 0.31137 0.0
O378 O 0.12407 0.29254 0.30509 0.0
C379 C 0.2168 0.39897 0.46391 0.0
C380 C 0.19043 0.35876 0.51481 0.0
C381 C 0.19711 0.40097 0.50893 0.0
C382 C 0.20823 0.41993 0.48345 0.0
C383 C 0.21925 0.36151 0.47099 0.0
C384 C 0.2075 0.34237 0.49633 0.0
C385 C 0.21941 0.41414 0.43605 0.0
H386 H 0.20326 0.27181 0.21377 0.0
H387 H 0.1771 0.24426 0.25898 0.0
H388 H 0.15768 0.35372 0.2694 0.0
H389 H 0.18274 0.38039 0.22435 0.0
H390 H 0.19379 0.42013 0.5234 0.0
H391 H 0.20912 0.45051 0.47888 0.0
H392 H 0.229 0.34632 0.45671 0.0
H393 H 0.21056 0.3138 0.50089 0.0
Tb394 Tb 0.69582 0.86488 0.33262 0.0
Eu395 Eu 0.65235 0.84822 0.39302 0.0
C396 C 0.74186 0.93442 0.37601 0.0
C397 C 0.72908 0.8269 0.38053 0.0
C398 C 0.70321 0.86723 0.25912 0.0
C399 C 0.68056 0.89344 0.21892 0.0
C400 C 0.69906 0.90018 0.24455 0.0
C401 C 0.68865 0.82758 0.24742 0.0
C402 C 0.67008 0.82086 0.22191 0.0
C403 C 0.66594 0.8537 0.2075 0.0
C404 C 0.72366 0.87425 0.28605 0.0
O405 O 0.62833 0.81121 0.32967 0.0
O406 O 0.61934 0.78512 0.37278 0.0
O407 O 0.60851 0.86358 0.36514 0.0
O408 O 0.65903 0.89999 0.33202 0.0
C409 C 0.60869 0.77989 0.34757 0.0
O410 O 0.6206 0.80355 0.42644 0.0
O411 O 0.63689 0.87011 0.42873 0.0
O412 O 0.70489 0.91783 0.38934 0.0
O413 O 0.74755 0.91488 0.35644 0.0
O414 O 0.71881 0.82537 0.35525 0.0
O415 O 0.71405 0.8426 0.39761 0.0
C416 C 0.62144 0.88873 0.34357 0.0
O417 O 0.72463 0.90531 0.299 0.0
O418 O 0.71301 0.84002 0.30135 0.0
C419 C 0.64603 0.83484 0.46788 0.0
C420 C 0.68813 0.83961 0.51776 0.0
C421 C 0.65114 0.84649 0.51506 0.0
C422 C 0.63025 0.84409 0.49033 0.0
C423 C 0.68274 0.82741 0.47064 0.0
C424 C 0.70347 0.82956 0.4954 0.0
C425 C 0.62439 0.8334 0.44174 0.0
H426 H 0.67789 0.91922 0.20793 0.0
H427 H 0.71036 0.93124 0.25286 0.0
H428 H 0.69182 0.8017 0.25791 0.0
H429 H 0.65926 0.79011 0.21327 0.0
H430 H 0.63894 0.85447 0.53205 0.0
H431 H 0.60204 0.84991 0.48867 0.0
H432 H 0.69564 0.82032 0.4536 0.0
H433 H 0.73208 0.82437 0.49705 0.0
Tb434 Tb 0.17717 0.82666 0.40143 0.0
Eu435 Eu 0.1481 0.83667 0.33687 0.0
C436 C 0.1519 0.7523 0.36188 0.0
C437 C 0.24687 0.8627 0.35683 0.0
C438 C 0.17671 0.82776 0.47445 0.0
C439 C 0.16251 0.81219 0.52148 0.0
C440 C 0.18282 0.81014 0.49865 0.0
C441 C 0.15125 0.84888 0.47362 0.0
C442 C 0.13107 0.85114 0.49648 0.0
C443 C 0.13358 0.8303 0.52082 0.0
C444 C 0.19566 0.82261 0.45017 0.0
O445 O 0.18836 0.89253 0.39374 0.0
O446 O 0.14617 0.89044 0.35632 0.0
O447 O 0.08359 0.80803 0.35934 0.0
O448 O 0.10869 0.81072 0.40304 0.0
C449 C 0.16945 0.90949 0.37735 0.0
O450 O 0.15879 0.87696 0.3008 0.0
O451 O 0.11655 0.80815 0.29913 0.0
O452 O 0.15771 0.77855 0.34135 0.0
O453 O 0.1528 0.76294 0.38635 0.0
O454 O 0.23295 0.83692 0.37797 0.0
O455 O 0.22168 0.87473 0.34275 0.0
C456 C 0.07731 0.80319 0.38519 0.0
O457 O 0.16901 0.78951 0.43667 0.0
O458 O 0.21679 0.85678 0.43473 0.0
C459 C 0.161 0.84468 0.26113 0.0
C460 C 0.2022 0.84673 0.21313 0.0
C461 C 0.15794 0.81546 0.21816 0.0
C462 C 0.13761 0.81451 0.2418 0.0
C463 C 0.20562 0.87568 0.25625 0.0
C464 C 0.22586 0.87682 0.23247 0.0
C465 C 0.13787 0.84453 0.2855 0.0
H466 H 0.17107 0.8003 0.53967 0.0
H467 H 0.20354 0.79482 0.49996 0.0
H468 H 0.14718 0.86399 0.45525 0.0
H469 H 0.11486 0.87058 0.49453 0.0
H470 H 0.13886 0.79203 0.20354 0.0
H471 H 0.10326 0.79042 0.24483 0.0
H472 H 0.22481 0.89948 0.27065 0.0
H473 H 0.25989 0.9014 0.22905 0.0
Tb474 Tb 0.84071 0.6564 0.673 0.0
Eu475 Eu 0.87289 0.71236 0.72809 0.0
C476 C 0.87826 0.62474 0.72454 0.0
C477 C 0.77601 0.62415 0.72279 0.0
C478 C 0.84048 0.63475 0.60203 0.0
C479 C 0.8805 0.63717 0.5629 0.0
C480 C 0.86649 0.62148 0.58868 0.0
C481 C 0.82827 0.66364 0.58902 0.0
C482 C 0.842 0.67904 0.56322 0.0
C483 C 0.8682 0.66596 0.55002 0.0
C484 C 0.82852 0.61981 0.62981 0.0
O485 O 0.80958 0.69699 0.6683 0.0
O486 O 0.85254 0.74939 0.69764 0.0
O487 O 0.93411 0.73857 0.70348 0.0
O488 O 0.89994 0.7178 0.66297 0.0
C489 C 0.82407 0.73529 0.67756 0.0
O490 O 0.85845 0.74373 0.75914 0.0
O491 O 0.92288 0.74694 0.75833 0.0
O492 O 0.88357 0.65616 0.73904 0.0
O493 O 0.86475 0.62134 0.69968 0.0
O494 O 0.78387 0.61787 0.69859 0.0
O495 O 0.80429 0.65703 0.73656 0.0
C496 C 0.93508 0.74158 0.67761 0.0
O497 O 0.86203 0.62805 0.64595 0.0
O498 O 0.79892 0.62705 0.64034 0.0
C499 C 0.88991 0.73565 0.79976 0.0
C500 C 0.86327 0.69607 0.85088 0.0
C501 C 0.8774 0.7405 0.84585 0.0
C502 C 0.8888 0.7595 0.82036 0.0
C503 C 0.8841 0.69428 0.80556 0.0
C504 C 0.87276 0.67552 0.83098 0.0
C505 C 0.89536 0.7528 0.77221 0.0
H506 H 0.90097 0.62702 0.55303 0.0
H507 H 0.87651 0.59943 0.59838 0.0
H508 H 0.80856 0.67474 0.59882 0.0
H509 H 0.8325 0.70151 0.55357 0.0
H510 H 0.8799 0.76133 0.86119 0.0
H511 H 0.89614 0.79261 0.81669 0.0
H512 H 0.88747 0.676 0.79032 0.0
H513 H 0.87062 0.6443 0.8345 0.0
Tb514 Tb 0.37016 0.20598 0.66083 0.0
Eu515 Eu 0.32791 0.18934 0.72203 0.0
C516 C 0.41839 0.27502 0.70458 0.0
C517 C 0.40193 0.16534 0.70731 0.0
C518 C 0.37455 0.20847 0.58758 0.0
C519 C 0.34268 0.23168 0.55021 0.0
C520 C 0.3647 0.23934 0.57484 0.0
C521 C 0.36257 0.17017 0.57486 0.0
C522 C 0.34056 0.16257 0.55027 0.0
C523 C 0.33042 0.1932 0.53784 0.0
C524 C 0.39696 0.21602 0.614 0.0
O525 O 0.31644 0.13903 0.66358 0.0
O526 O 0.27489 0.13568 0.69922 0.0
O527 O 0.29456 0.22147 0.69765 0.0
O528 O 0.31455 0.21791 0.65511 0.0
C529 C 0.28044 0.1192 0.67812 0.0
O530 O 0.29667 0.14656 0.75632 0.0
O531 O 0.3197 0.21473 0.75855 0.0
O532 O 0.39653 0.2464 0.72339 0.0
O533 O 0.40918 0.26751 0.67935 0.0
O534 O 0.41443 0.19346 0.68725 0.0
O535 O 0.36408 0.15178 0.71903 0.0
C536 C 0.29164 0.22594 0.67171 0.0
O537 O 0.39709 0.24644 0.62719 0.0
O538 O 0.38869 0.18223 0.62932 0.0
C539 C 0.32708 0.17787 0.79779 0.0
C540 C 0.36654 0.1778 0.84815 0.0
C541 C 0.35227 0.2081 0.84116 0.0
C542 C 0.33267 0.20806 0.8163 0.0
C543 C 0.34172 0.14766 0.80474 0.0
C544 C 0.36102 0.14749 0.82974 0.0
C545 C 0.30523 0.17787 0.77173 0.0
H546 H 0.3351 0.25564 0.54084 0.0
H547 H 0.37374 0.26936 0.58393 0.0
H548 H 0.36997 0.14594 0.58399 0.0
H549 H 0.33132 0.13269 0.54091 0.0
H550 H 0.35599 0.23163 0.8551 0.0
H551 H 0.3216 0.23155 0.81159 0.0
H552 H 0.33805 0.12395 0.79097 0.0
H553 H 0.37156 0.12369 0.83477 0.0
Tb554 Tb 0.84604 0.15719 0.73727 0.0
Eu555 Eu 0.82096 0.17177 0.67282 0.0
C556 C 0.82214 0.08704 0.69549 0.0
C557 C 0.9195 0.1951 0.69425 0.0
C558 C 0.83745 0.14547 0.81029 0.0
C559 C 0.83033 0.13563 0.85803 0.0
C560 C 0.84984 0.13388 0.83476 0.0
C561 C 0.80608 0.1599 0.80947 0.0
C562 C 0.78652 0.16171 0.8327 0.0
C563 C 0.79615 0.1473 0.85764 0.0
C564 C 0.8584 0.14392 0.78587 0.0
O565 O 0.84149 0.21621 0.73572 0.0
O566 O 0.84607 0.2356 0.69101 0.0
O567 O 0.76082 0.16001 0.69596 0.0
O568 O 0.77445 0.1295 0.73463 0.0
C569 C 0.84694 0.24393 0.71595 0.0
O570 O 0.83538 0.21365 0.6372 0.0
O571 O 0.7876 0.1463 0.63484 0.0
O572 O 0.79926 0.10202 0.68152 0.0
O573 O 0.84957 0.10833 0.71477 0.0
O574 O 0.9099 0.19547 0.71893 0.0
O575 O 0.88953 0.17929 0.67525 0.0
C576 C 0.74887 0.13975 0.71935 0.0
O577 O 0.83304 0.11369 0.76997 0.0
O578 O 0.88122 0.18055 0.77293 0.0
C579 C 0.83264 0.18094 0.59706 0.0
C580 C 0.87256 0.17942 0.5495 0.0
C581 C 0.8276 0.16917 0.54977 0.0
C582 C 0.80789 0.16993 0.57326 0.0
C583 C 0.87778 0.19139 0.59685 0.0
C584 C 0.89757 0.19076 0.57328 0.0
C585 C 0.81122 0.18251 0.62157 0.0
H586 H 0.84399 0.12921 0.87623 0.0
H587 H 0.87537 0.12424 0.83598 0.0
H588 H 0.79745 0.17073 0.79083 0.0
H589 H 0.76531 0.17622 0.83052 0.0
H590 H 0.8076 0.16022 0.53174 0.0
H591 H 0.77319 0.16193 0.57283 0.0
H592 H 0.89773 0.20006 0.6149 0.0
H593 H 0.93224 0.19869 0.57361 0.0
C594 C 0.34543 0.84914 0.08511 0.0
C595 C 0.31113 0.86044 0.08678 0.0
C596 C 0.3603 0.93146 0.06533 0.0
C597 C 0.39389 0.91937 0.063 0.0
N598 N 0.4222 0.87061 0.07585 0.0
N599 N 0.28447 0.91081 0.07718 0.0
C600 C 0.38746 0.87928 0.07435 0.0
C601 C 0.31867 0.90164 0.07699 0.0
N602 N 0.33646 0.80805 0.09219 0.0
N603 N 0.3683 0.97159 0.05629 0.0
H604 H 0.25455 0.88993 0.0861 0.0
H605 H 0.28468 0.93783 0.06797 0.0
H606 H 0.39674 0.99295 0.04597 0.0
H607 H 0.34786 0.98475 0.05969 0.0
H608 H 0.35691 0.79524 0.08793 0.0
H609 H 0.30691 0.78568 0.10112 0.0
H610 H 0.4217 0.84469 0.08684 0.0
H611 H 0.45311 0.89112 0.06774 0.0
C612 C 0.10742 0.42233 0.07408 0.0
C613 C 0.15301 0.45243 0.07709 0.0
C614 C 0.1413 0.50795 0.05329 0.0
C615 C 0.09499 0.47946 0.05318 0.0
N616 N 0.03258 0.41071 0.06536 0.0
N617 N 0.21221 0.52546 0.07421 0.0
C618 C 0.07754 0.4369 0.06417 0.0
C619 C 0.16967 0.49574 0.06795 0.0
N620 N 0.09317 0.37971 0.07985 0.0
N621 N 0.15824 0.5463 0.03912 0.0
H622 H 0.23317 0.51742 0.0857 0.0
H623 H 0.22504 0.55841 0.07037 0.0
H624 H 0.13834 0.55612 0.0279 0.0
H625 H 0.19217 0.56649 0.03653 0.0
H626 H 0.06111 0.35548 0.07565 0.0
H627 H 0.11462 0.36828 0.08694 0.0
H628 H 0.01791 0.38112 0.07578 0.0
H629 H 0.00973 0.4197 0.05718 0.0
C630 C 0.56904 0.69072 0.05979 0.0
C631 C 0.53653 0.69766 0.07147 0.0
C632 C 0.47931 0.62469 0.06136 0.0
C633 C 0.51285 0.6155 0.05343 0.0
N634 N 0.58991 0.63986 0.04421 0.0
N635 N 0.46219 0.67073 0.08651 0.0
C636 C 0.55788 0.64864 0.05237 0.0
C637 C 0.49198 0.66449 0.07305 0.0
N638 N 0.61032 0.72483 0.05532 0.0
N639 N 0.4355 0.59605 0.05715 0.0
H640 H 0.47085 0.69982 0.09507 0.0
H641 H 0.43025 0.6463 0.09084 0.0
H642 H 0.42502 0.56728 0.04782 0.0
H643 H 0.40979 0.60267 0.06053 0.0
H644 H 0.63458 0.72324 0.04462 0.0
H645 H 0.61926 0.75592 0.06062 0.0
H646 H 0.62387 0.6607 0.04621 0.0
H647 H 0.58254 0.61079 0.03614 0.0
C648 C 0.83733 0.35087 0.98892 0.0
C649 C 0.85102 0.31986 0.98529 0.0
C650 C 0.9274 0.37179 0.9982 0.0
C651 C 0.91288 0.40168 1.00371 0.0
N652 N 0.85203 0.4155 1.01059 0.0
N653 N 0.90642 0.29722 0.9914 0.0
C654 C 0.86719 0.39 1.00095 0.0
C655 C 0.89541 0.32934 0.99133 0.0
N656 N 0.79623 0.34343 0.98003 0.0
N657 N 0.97175 0.38407 0.99926 0.0
H658 H 0.88331 0.26571 0.98699 0.0
H659 H 0.93709 0.30078 0.99805 0.0
H660 H 0.99595 0.41446 1.00493 0.0
H661 H 0.98479 0.36527 0.99279 0.0
H662 H 0.78586 0.36657 0.97975 0.0
H663 H 0.77406 0.31536 0.97069 0.0
H664 H 0.81842 0.40662 1.01131 0.0
H665 H 0.87284 0.44383 1.02009 0.0
C666 C 0.70217 0.58959 1.01539 0.0
C667 C 0.70771 0.56691 0.99518 0.0
C668 C 0.62888 0.51437 0.99588 0.0
C669 C 0.62387 0.53524 1.01744 0.0
N670 N 0.65603 0.58851 0.05059 0.0
N671 N 0.67943 0.50373 0.96962 0.0
C672 C 0.66074 0.57147 0.02824 0.0
C673 C 0.67196 0.52793 0.98656 0.0
N674 N 0.73606 0.6292 1.02139 0.0
N675 N 0.59241 0.48273 0.98363 0.0
H676 H 0.71055 0.51345 0.96187 0.0
H677 H 0.65568 0.47265 0.96493 0.0
H678 H 0.56013 0.47103 0.99017 0.0
H679 H 0.5938 0.47013 0.96587 0.0
H680 H 0.73288 0.64948 0.03409 0.0
H681 H 0.76664 0.64314 1.01202 0.0
H682 H 0.68261 0.61259 0.06071 0.0
H683 H 0.62583 0.57622 0.06022 0.0
C684 C 0.50843 0.17289 0.98237 0.0
C685 C 0.46338 0.16203 0.97692 0.0
C686 C 0.44078 0.08624 0.98907 0.0
C687 C 0.48518 0.09815 0.99747 0.0
N688 N 0.56093 0.15407 1.00449 0.0
N689 N 0.3861 0.10977 0.97895 0.0
C690 C 0.51895 0.14181 0.99466 0.0
C691 C 0.42944 0.1189 0.98088 0.0
N692 N 0.54124 0.21366 0.97619 0.0
N693 N 0.40899 0.04387 0.98967 0.0
H694 H 0.37713 0.13323 0.9737 0.0
H695 H 0.35944 0.08018 0.98459 0.0
H696 H 0.41452 0.01916 0.99771 0.0
H697 H 0.37765 0.03289 0.9808 0.0
H698 H 0.57495 0.22277 0.97666 0.0
H699 H 0.53451 0.2377 0.9683 0.0
H700 H 0.58524 0.18599 1.00636 0.0
H701 H 0.57131 0.13249 1.01216 0.0
C702 C 0.68085 0.16969 0.9697 0.0
C703 C 0.72179 0.17258 0.97866 0.0
C704 C 0.68133 0.10261 1.00284 0.0
C705 C 0.64028 0.1002 0.9942 0.0
N706 N 0.60153 0.12584 0.96325 0.0
N707 N 0.76152 0.14621 1.00744 0.0
C708 C 0.64018 0.13179 0.97557 0.0
C709 C 0.72219 0.1399 0.99599 0.0
N710 N 0.68064 0.20515 0.9579 0.0
N711 N 0.68113 0.0682 1.01658 0.0
H712 H 0.79143 0.17413 1.00383 0.0
H713 H 0.76423 0.12608 1.02231 0.0
H714 H 0.6519 0.03991 1.02109 0.0
H715 H 0.70961 0.06574 1.02135 0.0
H716 H 0.65178 0.20713 0.95347 0.0
H717 H 0.70957 0.2345 0.95548 0.0
H718 H 0.60059 0.14514 0.9472 0.0
H719 H 0.57048 0.09997 0.96756 0.0
C720 C 0.84683 0.54488 0.97594 0.0
C721 C 0.85528 0.58817 0.97618 0.0
C722 C 0.92652 0.60769 0.99918 0.0
C723 C 0.91861 0.5649 0.99735 0.0
N724 N 0.87881 0.49786 0.97541 0.0
N725 N 0.90639 0.66213 0.98392 0.0
C726 C 0.8812 0.5351 0.983 0.0
C727 C 0.89659 0.62013 0.98618 0.0
N728 N 0.80503 0.51237 0.97085 0.0
N729 N 0.9612 0.63568 1.01441 0.0
H730 H 0.88446 0.67136 0.97483 0.0
H731 H 0.93734 0.68766 0.98876 0.0
H732 H 0.98289 0.62708 0.02472 0.0
H733 H 0.96636 0.66609 1.01861 0.0
H734 H 0.79624 0.47995 0.97372 0.0
H735 H 0.77849 0.51777 0.96559 0.0
H736 H 0.85375 0.47686 0.96287 0.0
H737 H 0.90442 0.49052 0.97923 0.0
C738 C 0.50975 0.33187 0.99999 0.0
C739 C 0.46618 0.29715 0.99712 0.0
C740 C 0.43564 0.33676 1.0187 0.0
C741 C 0.47929 0.37178 1.02121 0.0
N742 N 0.55844 0.39919 1.02066 0.0
N743 N 0.3887 0.26225 1.00729 0.0
C744 C 0.51662 0.36818 1.01391 0.0
C745 C 0.42938 0.29831 1.00766 0.0
N746 N 0.54418 0.33056 0.98845 0.0
N747 N 0.40036 0.34078 0.02656 0.0
H748 H 0.38359 0.23395 0.9991 0.0
H749 H 0.36079 0.2592 1.01646 0.0
H750 H 0.40446 0.36721 0.03667 0.0
H751 H 0.36727 0.31876 1.02266 0.0
H752 H 0.57618 0.35654 0.98727 0.0
H753 H 0.53986 0.30408 0.97834 0.0
H754 H 0.58704 0.39693 1.01785 0.0
H755 H 0.56421 0.42572 0.03126 0.0
C756 C 0.17964 0.68396 0.07695 0.0
C757 C 0.17631 0.7218 0.07154 0.0
C758 C 0.11065 0.68207 0.04321 0.0
C759 C 0.11087 0.64321 0.05118 0.0
N760 N 0.1424 0.60613 0.07827 0.0
N761 N 0.13685 0.75706 0.05206 0.0
C762 C 0.1447 0.64386 0.06866 0.0
C763 C 0.14133 0.72093 0.05526 0.0
N764 N 0.21659 0.6867 0.08989 0.0
N765 N 0.08186 0.68192 1.02365 0.0
H766 H 0.15928 0.786 0.06044 0.0
H767 H 0.10947 0.75761 0.04276 0.0
H768 H 0.05975 0.6541 1.01406 0.0
H769 H 0.08258 0.70972 1.01528 0.0
H770 H 0.22349 0.6612 0.09217 0.0
H771 H 0.24224 0.71571 0.09647 0.0
H772 H 0.16334 0.60425 0.09318 0.0
H773 H 0.11725 0.57623 0.07273 0.0
C774 C 0.31806 0.47012 0.08917 0.0
C775 C 0.28135 0.42847 0.0863 0.0
C776 C 0.32579 0.41194 0.05709 0.0
C777 C 0.36352 0.45185 0.06272 0.0
N778 N 0.39745 0.51315 0.09085 0.0
N779 N 0.25151 0.35766 0.06992 0.0
C780 C 0.36038 0.47889 0.08103 0.0
C781 C 0.28587 0.39855 0.07117 0.0
N782 N 0.3121 0.50276 0.09743 0.0
N783 N 0.32784 0.3873 0.03809 0.0
H784 H 0.22195 0.34782 0.07968 0.0
H785 H 0.25363 0.33295 0.06119 0.0
H786 H 0.35646 0.39648 0.02737 0.0
H787 H 0.30036 0.35969 0.03142 0.0
H788 H 0.33704 0.53483 0.09666 0.0
H789 H 0.28141 0.49828 0.1031 0.0
H790 H 0.39614 0.5305 0.10637 0.0
H791 H 0.42962 0.52258 0.08497 0.0
C792 C 0.58196 0.86347 0.04748 0.0
C793 C 0.58613 0.85436 0.07447 0.0
C794 C 0.58006 0.91792 0.08438 0.0
C795 C 0.56167 0.91784 0.0584 0.0
N796 N 0.53823 0.88178 1.01677 0.0
N797 N 0.63291 0.90178 0.10739 0.0
C798 C 0.56178 0.88902 0.04004 0.0
C799 C 0.59642 0.88852 0.09122 0.0
N800 N 0.59773 0.84809 0.02912 0.0
N801 N 0.58484 0.94727 0.10219 0.0
H802 H 0.65598 0.89139 0.10453 0.0
H803 H 0.64489 0.92863 0.11893 0.0
H804 H 0.58136 0.97432 0.09741 0.0
H805 H 0.59247 0.94416 0.1221 0.0
H806 H 0.59792 0.85628 1.00898 0.0
H807 H 0.61406 0.83047 0.0348 0.0
H808 H 0.53608 0.85919 1.00372 0.0
H809 H 0.5153 0.89267 1.0128 0.0
C810 C 0.97813 0.22659 0.40303 0.0
C811 C 0.97628 0.19517 0.42251 0.0
C812 C 0.05648 0.22274 0.41698 0.0
C813 C 0.05889 0.25663 0.39958 0.0
N814 N 0.02323 0.29713 0.38237 0.0
N815 N 0.01603 0.16903 0.45136 0.0
C816 C 0.02007 0.26055 0.39458 0.0
C817 C 0.01645 0.19564 0.4308 0.0
N818 N 0.93988 0.22244 0.39117 0.0
N819 N 0.09121 0.21422 0.41878 0.0
H820 H 0.98711 0.14896 0.46144 0.0
H821 H 0.04475 0.17026 0.45993 0.0
H822 H 0.11934 0.23116 0.40728 0.0
H823 H 0.08997 0.1875 0.42918 0.0
H824 H 0.93971 0.24175 0.3749 0.0
H825 H 0.90851 0.19742 0.39617 0.0
H826 H 0.99633 0.30304 0.38007 0.0
H827 H 0.05379 0.32341 0.37744 0.0
C828 C 0.77416 0.75609 0.41175 0.0
C829 C 0.82 0.78622 0.41288 0.0
C830 C 0.80625 0.84002 0.38858 0.0
C831 C 0.76002 0.8117 0.39021 0.0
N832 N 0.699 0.74512 0.40682 0.0
N833 N 0.87846 0.85941 0.40798 0.0
C834 C 0.74356 0.77034 0.40288 0.0
C835 C 0.83573 0.82897 0.40286 0.0
N836 N 0.76021 0.71377 0.41834 0.0
N837 N 0.82207 0.87716 0.37321 0.0
H838 H 0.90013 0.85239 0.41945 0.0
H839 H 0.89068 0.8921 0.4034 0.0
H840 H 0.80137 0.88611 0.36214 0.0
H841 H 0.85573 0.89691 0.36947 0.0
H842 H 0.72763 0.68952 0.41549 0.0
H843 H 0.78219 0.7025 0.42456 0.0
H844 H 0.68567 0.71649 0.41828 0.0
H845 H 0.67557 0.75444 0.40031 0.0
C846 C 0.23437 0.02977 0.38818 0.0
C847 C 0.2012 0.03578 0.3997 0.0
C848 C 0.14505 0.96299 0.38859 0.0
C849 C 0.17938 0.95429 0.38159 0.0
N850 N 0.25701 0.97984 0.37327 0.0
N851 N 0.12592 1.00772 0.4135 0.0
C852 C 0.22421 0.98794 0.38087 0.0
C853 C 0.15667 1.00236 0.40044 0.0
N854 N 0.27533 0.06447 0.38394 0.0
N855 N 0.10156 0.93427 0.38351 0.0
H856 H 0.13367 0.03631 0.4224 0.0
H857 H 0.09394 0.98285 0.41728 0.0
H858 H 0.0917 0.90553 0.3743 0.0
H859 H 0.07556 0.94082 0.38613 0.0
H860 H 0.30018 0.06349 0.37348 0.0
H861 H 0.28321 0.09536 0.38917 0.0
H862 H 0.2908 1.00123 0.3755 0.0
H863 H 0.25041 0.95086 0.3654 0.0
C864 C 0.50265 0.69159 0.31666 0.0
C865 C 0.50881 0.65532 0.32221 0.0
C866 C 0.58141 0.70096 0.34288 0.0
C867 C 0.57398 0.73694 0.33902 0.0
N868 N 0.5242 0.76518 0.32653 0.0
N869 N 0.54964 0.62321 0.34401 0.0
C870 C 0.53363 0.73193 0.32705 0.0
C871 C 0.54684 0.65939 0.33652 0.0
N872 N 0.46766 0.68747 0.30086 0.0
N873 N 0.62232 0.70688 0.35121 0.0
H874 H 0.52502 0.59253 0.33908 0.0
H875 H 0.57429 0.62322 0.35675 0.0
H876 H 0.64898 0.73706 0.35502 0.0
H877 H 0.63115 0.68264 0.35199 0.0
H878 H 0.46367 0.71345 0.29361 0.0
H879 H 0.4441 0.65802 0.29352 0.0
H880 H 0.49369 0.76241 0.32025 0.0
H881 H 0.54563 0.7947 0.33457 0.0
C882 C 0.37131 0.92845 0.34847 0.0
C883 C 0.37677 0.90766 0.32716 0.0
C884 C 0.29715 0.85912 0.32454 0.0
C885 C 0.29178 0.87734 0.34734 0.0
N886 N 0.32339 0.92612 0.38301 0.0
N887 N 0.34784 0.84702 0.29944 0.0
C888 C 0.32886 0.91098 0.36005 0.0
C889 C 0.3405 0.8712 0.31645 0.0
N890 N 0.40662 0.96542 0.35702 0.0
N891 N 0.26105 0.83098 0.31025 0.0
H892 H 0.37971 0.85409 0.29424 0.0
H893 H 0.32295 0.81761 0.2929 0.0
H894 H 0.22842 0.82046 0.31565 0.0
H895 H 0.26351 0.82076 0.29184 0.0
H896 H 0.40424 0.98466 0.37086 0.0
H897 H 0.43803 0.97846 0.34874 0.0
H898 H 0.34969 0.94785 0.39449 0.0
H899 H 0.29244 0.91483 0.39156 0.0
C900 C 0.089 0.45817 0.32368 0.0
C901 C 0.12004 0.49596 0.30968 0.0
C902 C 0.17458 0.46973 0.31424 0.0
C903 C 0.14211 0.43088 0.32663 0.0
N904 N 0.06471 0.38305 0.33467 0.0
N905 N 0.19134 0.53619 0.28951 0.0
C906 C 0.09802 0.42341 0.32847 0.0
C907 C 0.16221 0.5007 0.30381 0.0
N908 N 0.05309 0.45705 0.33488 0.0
N909 N 0.21786 0.47844 0.31411 0.0
H910 H 0.18469 0.56113 0.28409 0.0
H911 H 0.22062 0.53976 0.28188 0.0
H912 H 0.22806 0.4569 0.322 0.0
H913 H 0.24416 0.50798 0.30803 0.0
H914 H 0.03156 0.43154 0.34723 0.0
H915 H 0.04821 0.48381 0.3346 0.0
H916 H 0.0313 0.3753 0.33453 0.0
H917 H 0.07032 0.35667 0.33661 0.0
C918 C 0.34216 0.49201 0.29732 0.0
C919 C 0.38223 0.50741 0.31246 0.0
C920 C 0.34367 0.44892 0.34597 0.0
C921 C 0.30407 0.43323 0.33033 0.0
N922 N 0.2694 0.43227 0.28772 0.0
N923 N 0.42344 0.49578 0.34884 0.0
C924 C 0.30478 0.452 0.30473 0.0
C925 C 0.38367 0.48411 0.33601 0.0
N926 N 0.33836 0.51751 0.27734 0.0
N927 N 0.34273 0.43069 0.37064 0.0
H928 H 0.45312 0.52196 0.34251 0.0
H929 H 0.4278 0.47774 0.36449 0.0
H930 H 0.31496 0.40299 0.37773 0.0
H931 H 0.3686 0.44389 0.38451 0.0
H932 H 0.30868 0.50995 0.26711 0.0
H933 H 0.36365 0.54858 0.27332 0.0
H934 H 0.2699 0.44252 0.26797 0.0
H935 H 0.24112 0.40346 0.29271 0.0
C936 C 0.55612 0.94933 0.33404 0.0
C937 C 0.52535 0.92478 0.31409 0.0
C938 C 0.56612 0.88547 0.30907 0.0
C939 C 0.5925 0.90516 0.3316 0.0
N940 N 0.61503 0.95693 0.36536 0.0
N941 N 0.49426 0.86185 0.28823 0.0
C942 C 0.58856 0.93786 0.34389 0.0
C943 C 0.52889 0.89126 0.3027 0.0
N944 N 0.55296 0.98251 0.34413 0.0
N945 N 0.5759 0.86056 0.29406 0.0
H946 H 0.46412 0.86199 0.2863 0.0
H947 H 0.49325 0.83428 0.28143 0.0
H948 H 0.60295 0.85538 0.29813 0.0
H949 H 0.55969 0.84864 0.27613 0.0
H950 H 0.57666 1.00463 0.35671 0.0
H951 H 0.52702 0.98899 0.33903 0.0
H952 H 0.61101 0.97777 0.37711 0.0
H953 H 0.6406 0.95068 0.37208 0.0
C954 C 0.16846 0.66766 0.33067 0.0
C955 C 0.1263 0.63116 0.33448 0.0
C956 C 0.10311 0.67211 0.36086 0.0
C957 C 0.14517 0.70904 0.35658 0.0
N958 N 0.22153 0.73943 0.34398 0.0
N959 N 0.05687 0.59486 0.35684 0.0
C960 C 0.17905 0.70597 0.34349 0.0
C961 C 0.09474 0.63223 0.3509 0.0
N962 N 0.19767 0.6659 0.31403 0.0
N963 N 0.0706 0.67568 0.37326 0.0
H964 H 0.05001 0.56557 0.34923 0.0
H965 H 0.03395 0.59212 0.37059 0.0
H966 H 0.07611 0.70384 0.38177 0.0
H967 H 0.03767 0.65143 0.3742 0.0
H968 H 0.22701 0.69268 0.30793 0.0
H969 H 0.19115 0.63779 0.305 0.0
H970 H 0.24867 0.73818 0.33663 0.0
H971 H 0.23034 0.7672 0.35413 0.0
C972 C 0.81107 0.05501 0.38494 0.0
C973 C 0.84328 0.05607 0.40373 0.0
C974 C 0.8108 0.9777 0.4033 0.0
C975 C 0.77883 0.97648 0.38407 0.0
N976 N 0.75179 0.01366 0.35361 0.0
N977 N 0.87964 0.021 0.42745 0.0
C978 C 0.78004 0.01517 0.37392 0.0
C979 C 0.84492 0.01809 0.41182 0.0
N980 N 0.80967 0.09217 0.37834 0.0
N981 N 0.80749 0.94017 0.41418 0.0
H982 H 0.90472 0.05022 0.43412 0.0
H983 H 0.88568 0.99534 0.43206 0.0
H984 H 0.78374 0.91012 0.40796 0.0
H985 H 0.82637 0.93849 0.4304 0.0
H986 H 0.78454 0.0936 0.36681 0.0
H987 H 0.83295 0.12175 0.38566 0.0
H988 H 0.75327 0.04077 0.34366 0.0
H989 H 0.72842 0.98493 0.34538 0.0
C990 C 0.98646 0.80875 0.4217 0.0
C991 C 0.9509 0.76623 0.41998 0.0
C992 C 0.9964 0.74937 0.3918 0.0
C993 C 0.03311 0.79078 0.39592 0.0
N994 N 0.06517 0.85577 0.42094 0.0
N995 N 0.923 0.69444 0.40574 0.0
C996 C 0.02892 0.81897 0.41293 0.0
C997 C 0.95641 0.73594 0.40586 0.0
N998 N 0.97907 0.84068 0.42968 0.0
N999 N 0.99954 0.72309 0.37438 0.0
H1000 H 0.89332 0.68455 0.41537 0.0
H1001 H 0.92586 0.66943 0.39801 0.0
H1002 H 0.02845 0.73141 0.36421 0.0
H1003 H 0.97272 0.69431 0.36856 0.0
H1004 H 0.00243 0.87323 0.4278 0.0
H1005 H 0.94847 0.83494 0.4363 0.0
H1006 H 0.06381 0.87381 0.43602 0.0
H1007 H 0.09709 0.8672 0.41397 0.0
C1008 C 0.25132 0.2096 0.39102 0.0
C1009 C 0.22782 0.18372 0.4134 0.0
C1010 C 0.20477 0.23693 0.42273 0.0
C1011 C 0.22179 0.25871 0.39814 0.0
N1012 N 0.26195 0.26689 0.35863 0.0
N1013 N 0.17418 0.16836 0.44684 0.0
C1014 C 0.24573 0.2456 0.38234 0.0
C1015 C 0.20311 0.19662 0.42863 0.0
N1016 N 0.27851 0.19929 0.37789 0.0
N1017 N 0.18879 0.25389 0.44004 0.0
H1018 H 0.16819 0.13678 0.44909 0.0
H1019 H 0.15225 0.17438 0.45705 0.0
H1020 H 0.18716 0.28211 0.43565 0.0
H1021 H 0.18008 0.2415 0.45934 0.0
H1022 H 0.30021 0.21909 0.36324 0.0
H1023 H 0.28157 0.17195 0.38282 0.0
H1024 H 0.27466 0.25592 0.34448 0.0
H1025 H 0.261 0.29503 0.35257 0.0
C1026 C 0.65936 0.57295 0.75257 0.0
C1027 C 0.65065 0.53012 0.75827 0.0
C1028 C 0.72414 0.54877 0.74091 0.0
C1029 C 0.73329 0.59201 0.73567 0.0
N1030 N 0.71227 0.64693 0.74063 0.0
N1031 N 0.67787 0.47924 0.7628 0.0
C1032 C 0.70192 0.60467 0.74313 0.0
C1033 C 0.6845 0.51906 0.75428 0.0
N1034 N 0.62578 0.58262 0.75443 0.0
N1035 N 0.75249 0.5355 0.7323 0.0
H1036 H 0.64848 0.45635 0.77166 0.0
H1037 H 0.7025 0.47015 0.76321 0.0
H1038 H 0.78255 0.55621 0.72333 0.0
H1039 H 0.74519 0.50345 0.73256 0.0
H1040 H 0.62743 0.61143 0.74731 0.0
H1041 H 0.59504 0.56041 0.76188 0.0
H1042 H 0.69347 0.65908 0.74868 0.0
H1043 H 0.74114 0.67049 0.73177 0.0
C1044 C 0.48563 0.1536 0.75301 0.0
C1045 C 0.49199 0.1232 0.73981 0.0
C1046 C 0.44214 0.12311 0.70382 0.0
C1047 C 0.4326 0.15047 0.71841 0.0
N1048 N 0.43902 0.1856 0.75921 0.0
N1049 N 0.47333 0.07455 0.70474 0.0
C1050 C 0.45223 0.16367 0.74379 0.0
C1051 C 0.46944 0.10672 0.71571 0.0
N1052 N 0.51321 0.17444 0.77361 0.0
N1053 N 0.42506 0.11277 0.67877 0.0
H1054 H 0.49334 0.06228 0.7132 0.0
H1055 H 0.45449 0.05794 0.68852 0.0
H1056 H 0.40325 0.12254 0.66989 0.0
H1057 H 0.43446 0.09662 0.66616 0.0
H1058 H 0.51321 0.20012 0.78251 0.0
H1059 H 0.53949 0.16915 0.77977 0.0
H1060 H 0.44847 0.19117 0.77904 0.0
H1061 H 0.41614 0.19567 0.75297 0.0
C1062 C 0.90646 0.36158 0.73307 0.0
C1063 C 0.86985 0.36711 0.7392 0.0
C1064 C 0.8185 0.29483 0.72474 0.0
C1065 C 0.85499 0.28713 0.72233 0.0
N1066 N 0.93378 0.31157 0.72633 0.0
N1067 N 0.79122 0.33826 0.74406 0.0
C1068 C 0.89911 0.32014 0.72699 0.0
C1069 C 0.82582 0.33356 0.73578 0.0
N1070 N 0.94809 0.39632 0.73268 0.0
N1071 N 0.77715 0.26561 0.71599 0.0
H1072 H 0.79583 0.36647 0.75217 0.0
H1073 H 0.75858 0.31328 0.74472 0.0
H1074 H 0.77088 0.23721 0.70743 0.0
H1075 H 0.75004 0.27123 0.71508 0.0
H1076 H 0.9759 0.39548 0.72608 0.0
H1077 H 0.95396 0.4271 0.73669 0.0
H1078 H 0.96611 0.33303 0.73225 0.0
H1079 H 0.92966 0.28168 0.72163 0.0
C1080 C 0.17381 0.02395 0.65313 0.0
C1081 C 0.1868 0.9918 0.65334 0.0
C1082 C 0.26021 0.04207 0.67136 0.0
C1083 C 0.24686 0.07428 0.67171 0.0
N1084 N 0.18631 0.09097 0.67032 0.0
N1085 N 0.23799 0.96644 0.66707 0.0
C1086 C 0.20219 0.06375 0.66493 0.0
C1087 C 0.22886 0.99984 0.66373 0.0
N1088 N 0.13485 0.01684 0.64076 0.0
N1089 N 0.30268 0.05168 0.67871 0.0
H1090 H 0.2154 0.93532 0.66163 0.0
H1091 H 0.2662 0.96858 0.67689 0.0
H1092 H 0.32498 0.0803 0.6874 0.0
H1093 H 0.31633 0.03182 0.6756 0.0
H1094 H 0.1256 0.04065 0.6373 0.0
H1095 H 0.11356 0.988 0.63187 0.0
H1096 H 0.1529 0.08286 0.66818 0.0
H1097 H 0.20545 0.12017 0.67922 0.0
C1098 C 0.02603 0.1983 0.6771 0.0
C1099 C 0.04822 0.23915 0.66376 0.0
C1100 C 0.98753 0.25327 0.67301 0.0
C1101 C 0.96614 0.21297 0.68707 0.0
N1102 N 0.97008 0.15258 0.70875 0.0
N1103 N 0.05654 0.30977 0.65496 0.0
C1104 C 0.98721 0.18735 0.69132 0.0
C1105 C 0.03095 0.26806 0.66365 0.0
N1106 N 0.04058 0.16909 0.67491 0.0
N1107 N 0.96596 0.27678 0.668 0.0
H1108 H 0.0889 0.32136 0.64856 0.0
H1109 H 0.04741 0.33355 0.65648 0.0
H1110 H 0.93458 0.26756 0.6753 0.0
H1111 H 0.97799 0.304 0.65528 0.0
H1112 H 0.02288 0.13712 0.68177 0.0
H1113 H 0.06851 0.17583 0.66423 0.0
H1114 H 0.98645 0.13511 0.71437 0.0
H1115 H 0.94138 0.14353 0.71937 0.0
C1116 C 0.81515 0.81814 0.63014 0.0
C1117 C 0.7882 0.82938 0.64456 0.0
C1118 C 0.78125 0.77581 0.67967 0.0
C1119 C 0.80761 0.76407 0.66499 0.0
N1120 N 0.83886 0.76562 0.62284 0.0
N1121 N 0.73651 0.81159 0.67967 0.0
C1122 C 0.82052 0.78207 0.63896 0.0
C1123 C 0.76781 0.8052 0.66806 0.0
N1124 N 0.83862 0.84396 0.60929 0.0
N1125 N 0.77041 0.7602 0.70512 0.0
H1126 H 0.72713 0.83398 0.67205 0.0
H1127 H 0.71717 0.79227 0.69533 0.0
H1128 H 0.77893 0.73806 0.71417 0.0
H1129 H 0.75582 0.77144 0.7179 0.0
H1130 H 0.86288 0.84043 0.59982 0.0
H1131 H 0.83646 0.87123 0.60304 0.0
H1132 H 0.84462 0.77476 0.60286 0.0
H1133 H 0.84525 0.74055 0.62882 0.0
C1134 C 0.05798 0.81284 0.66276 0.0
C1135 C 0.0573 0.84555 0.64559 0.0
C1136 C 0.97598 0.81063 0.64966 0.0
C1137 C 0.97647 0.77573 0.66471 0.0
N1138 N 0.01749 0.73984 0.681 0.0
N1139 N 0.01583 0.87548 0.62201 0.0
C1140 C 0.01738 0.77564 0.66973 0.0
C1141 C 0.01614 0.84384 0.63845 0.0
N1142 N 0.09721 0.81888 0.67419 0.0
N1143 N 0.93805 0.81411 0.64806 0.0
H1144 H 0.04493 0.90297 0.61653 0.0
H1145 H 0.98713 0.87369 0.61307 0.0
H1146 H 0.90895 0.79202 0.65738 0.0
H1147 H 0.93629 0.84072 0.63968 0.0
H1148 H 0.09929 0.79813 0.6889 0.0
H1149 H 0.12707 0.84717 0.67117 0.0
H1150 H 0.04594 0.73637 0.68275 0.0
H1151 H 0.98835 0.71204 0.68623 0.0
C1152 C 0.18681 0.21812 0.63968 0.0
C1153 C 0.194 0.26074 0.64096 0.0
C1154 C 0.26557 0.28095 0.66358 0.0
C1155 C 0.25952 0.23909 0.66008 0.0
N1156 N 0.2203 0.17297 0.63651 0.0
N1157 N 0.24308 0.33452 0.65018 0.0
C1158 C 0.22237 0.20951 0.64524 0.0
C1159 C 0.23468 0.29287 0.65142 0.0
N1160 N 0.14508 0.18484 0.63554 0.0
N1161 N 0.30011 0.3089 0.67887 0.0
H1162 H 0.22046 0.34337 0.64157 0.0
H1163 H 0.27355 0.36034 0.65543 0.0
H1164 H 0.32355 0.30137 0.68776 0.0
H1165 H 0.30378 0.33826 0.68428 0.0
H1166 H 0.13754 0.15267 0.63784 0.0
H1167 H 0.11751 0.1892 0.63161 0.0
H1168 H 0.19541 0.15309 0.62345 0.0
H1169 H 0.2448 0.1641 0.64041 0.0
C1170 C 0.8409 1.00723 0.65917 0.0
C1171 C 0.80125 0.96886 0.66504 0.0
C1172 C 0.77781 1.00695 0.69379 0.0
C1173 C 0.81766 0.04553 0.68798 0.0
N1174 N 0.89032 0.08186 0.66863 0.0
N1175 N 0.73539 0.92927 0.69053 0.0
C1176 C 0.85037 0.0454 0.67187 0.0
C1177 C 0.77079 0.96788 0.68327 0.0
N1178 N 0.86846 1.00727 0.64055 0.0
N1179 N 0.7463 0.0081 0.70878 0.0
H1180 H 0.72936 0.90051 0.68257 0.0
H1181 H 0.71374 0.92512 0.7055 0.0
H1182 H 0.75145 0.03572 0.71793 0.0
H1183 H 0.71444 0.98239 0.71135 0.0
H1184 H 0.89545 0.0349 0.63288 0.0
H1185 H 0.8628 0.97939 0.63156 0.0
H1186 H 0.91737 0.08304 0.65942 0.0
H1187 H 0.8976 0.11069 0.67684 0.0
C1188 C 0.48316 0.3926 0.72208 0.0
C1189 C 0.51915 0.39277 0.73688 0.0
C1190 C 0.4928 0.3174 0.72708 0.0
C1191 C 0.45607 0.31688 0.71263 0.0
N1192 N 0.42146 0.3561 0.69136 0.0
N1193 N 0.56309 0.35918 0.75054 0.0
C1194 C 0.45296 0.35525 0.70847 0.0
C1195 C 0.52541 0.35619 0.73845 0.0
N1196 N 0.47719 0.42792 0.7219 0.0
N1197 N 0.49631 0.28066 0.72984 0.0
H1198 H 0.58689 0.3872 0.75925 0.0
H1199 H 0.57227 0.33525 0.7508 0.0
H1200 H 0.47573 0.25326 0.71948 0.0
H1201 H 0.51886 0.27677 0.74255 0.0
H1202 H 0.44895 0.42868 0.71425 0.0
H1203 H 0.49973 0.4561 0.73093 0.0
H1204 H 0.41991 0.38393 0.68555 0.0
H1205 H 0.39885 0.32951 0.68105 0.0
C1206 C 0.66343 0.13412 0.76655 0.0
C1207 C 0.62322 0.10332 0.75501 0.0
C1208 C 0.66582 0.09295 0.72095 0.0
C1209 C 0.70507 0.12841 0.73033 0.0
N1210 N 0.74016 0.18673 0.76015 0.0
N1211 N 0.58531 0.05568 0.71957 0.0
C1212 C 0.70362 0.14983 0.75276 0.0
C1213 C 0.62429 0.08287 0.73192 0.0
N1214 N 0.66316 0.1488 0.7907 0.0
N1215 N 0.66824 0.06851 0.70192 0.0
H1216 H 0.55434 0.04688 0.72734 0.0
H1217 H 0.58363 0.044 0.70094 0.0
H1218 H 0.69799 0.07564 0.69306 0.0
H1219 H 0.64141 0.0395 0.69637 0.0
H1220 H 0.69182 0.16788 0.80161 0.0
H1221 H 0.63415 0.13779 0.80104 0.0
H1222 H 0.73978 0.2067 0.77424 0.0
H1223 H 0.77004 0.19962 0.7504 0.0
C1224 C 0.92251 0.54496 0.73275 0.0
C1225 C 0.89045 0.51362 0.75008 0.0
C1226 C 0.85888 0.56119 0.75607 0.0
C1227 C 0.88742 0.59049 0.73642 0.0
N1228 N 0.94698 0.61128 0.70599 0.0
N1229 N 0.82033 0.48661 0.77122 0.0
C1230 C 0.91975 0.5828 0.72491 0.0
C1231 C 0.85684 0.52049 0.76018 0.0
N1232 N 0.95485 0.53783 0.72332 0.0
N1233 N 0.83276 0.57143 0.77033 0.0
H1234 H 0.81542 0.45528 0.77135 0.0
H1235 H 0.79257 0.48854 0.77683 0.0
H1236 H 0.83155 0.60007 0.76734 0.0
H1237 H 0.81479 0.55268 0.78659 0.0
H1238 H 0.98248 0.56102 0.71319 0.0
H1239 H 0.95456 0.50847 0.72625 0.0
H1240 H 0.96777 0.60567 0.69444 0.0
H1241 H 0.94779 0.64056 0.70122 0.0
C1242 C 0.48278 0.93482 0.2409 0.0
C1243 C 0.49854 0.96068 0.26337 0.0
C1244 C 0.55223 0.02124 0.23557 0.0
C1245 C 0.53538 0.99537 0.21327 0.0
N1246 N 0.49401 0.92523 0.19542 0.0
N1247 N 0.54312 0.0298 0.28173 0.0
C1248 C 0.50382 0.95131 0.21626 0.0
C1249 C 0.53269 1.00408 0.26071 0.0
N1250 N 0.44494 0.89599 0.24248 0.0
N1251 N 0.58678 0.06215 0.2325 0.0
H1252 H 0.52675 0.01864 0.2996 0.0
H1253 H 0.56506 0.06267 0.2811 0.0
H1254 H 0.60113 0.0754 0.2142 0.0
H1255 H 0.60343 0.082 0.24805 0.0
H1256 H 0.42872 0.87783 0.22617 0.0
H1257 H 0.42697 0.88375 0.25972 0.0
H1258 H 0.47502 0.89186 0.1971 0.0
H1259 H 0.50845 0.93654 0.17694 0.0
C1260 C 0.10715 0.55622 0.24008 0.0
C1261 C 0.08152 0.53062 0.26199 0.0
C1262 C 0.02388 0.48276 0.2311 0.0
C1263 C 0.04669 0.51126 0.20958 0.0
N1264 N 0.10903 0.57689 0.19336 0.0
N1265 N 0.01058 0.47626 0.27794 0.0
C1266 C 0.08857 0.54805 0.21392 0.0
C1267 C 0.03884 0.49516 0.2574 0.0
N1268 N 0.14852 0.58991 0.24448 0.0
N1269 N 0.98735 0.44411 0.22637 0.0
H1270 H 0.01868 0.48819 0.29677 0.0
H1271 H 0.97749 0.45279 0.27565 0.0
H1272 H 0.97548 0.43432 0.20728 0.0
H1273 H 0.97169 0.42032 0.24115 0.0
H1274 H 0.16066 0.60064 0.26329 0.0
H1275 H 0.1715 0.60628 0.22966 0.0
H1276 H 0.13674 0.60696 0.19556 0.0
H1277 H 0.09676 0.57203 0.17395 0.0
C1278 C 0.45024 0.50041 0.26209 0.0
C1279 C 0.44012 0.53467 0.26175 0.0
C1280 C 0.43677 0.53617 0.21299 0.0
C1281 C 0.4505 0.50442 0.21357 0.0
N1282 N 0.45795 0.44775 0.23751 0.0
N1283 N 0.42653 0.58749 0.23723 0.0
C1284 C 0.45303 0.48366 0.23783 0.0
C1285 C 0.4329 0.55236 0.23723 0.0
N1286 N 0.4616 0.48693 0.2855 0.0
N1287 N 0.42777 0.551 0.18922 0.0
H1288 H 0.4241 0.6006 0.25453 0.0
H1289 H 0.42638 0.60557 0.22035 0.0
H1290 H 0.43206 0.54116 0.17111 0.0
H1291 H 0.41301 0.57061 0.18723 0.0
H1292 H 0.47425 0.46553 0.28715 0.0
H1293 H 0.46164 0.49996 0.30331 0.0
H1294 H 0.45582 0.42846 0.25426 0.0
H1295 H 0.46014 0.43497 0.21997 0.0
C1296 C 0.97219 0.50693 0.80171 0.0
C1297 C 0.92508 0.48583 0.80047 0.0
C1298 C 0.92359 0.50722 0.84529 0.0
C1299 C 0.97009 0.5233 0.8478 0.0
N1300 N 0.03925 0.53682 0.82914 0.0
N1301 N 0.85597 0.45691 0.82323 0.0
C1302 C 0.99481 0.52361 0.82601 0.0
C1303 C 0.90068 0.48408 0.8227 0.0
N1304 N 0.99507 0.50889 0.77991 0.0
N1305 N 0.90134 0.51341 0.86479 0.0
H1306 H 0.83908 0.43613 0.80809 0.0
H1307 H 0.83681 0.45126 0.83985 0.0
H1308 H 0.9175 0.53024 0.88162 0.0
H1309 H 0.86799 0.50565 0.86299 0.0
H1310 H 0.02926 0.52823 0.77805 0.0
H1311 H 0.97928 0.49201 0.76315 0.0
H1312 H 0.05825 0.53312 0.81514 0.0
H1313 H 0.05711 0.54954 0.84651 0.0
C1314 C 0.54173 0.50668 0.80709 0.0
C1315 C 0.57924 0.50015 0.80534 0.0
C1316 C 0.59516 0.51452 0.85279 0.0
C1317 C 0.55391 0.51416 0.85517 0.0
N1318 N 0.48563 0.50605 0.83475 0.0
N1319 N 0.6405 0.49562 0.82687 0.0
C1320 C 0.52694 0.50998 0.83226 0.0
C1321 C 0.60608 0.5042 0.82825 0.0
N1322 N 0.51906 0.50784 0.78448 0.0
N1323 N 0.62397 0.52498 0.87399 0.0
H1324 H 0.64952 0.48907 0.80912 0.0
H1325 H 0.65838 0.4928 0.84331 0.0
H1326 H 0.61676 0.53241 0.89214 0.0
H1327 H 0.65628 0.52982 0.87299 0.0
H1328 H 0.49444 0.51697 0.7837 0.0
H1329 H 0.52762 0.50317 0.76596 0.0
H1330 H 0.46211 0.49761 0.81942 0.0
H1331 H 0.47313 0.50777 0.85274 0.0
C1332 C 0.55712 0.08285 0.82701 0.0
C1333 C 0.55878 0.0619 0.80436 0.0
C1334 C 0.55453 1.00206 0.83328 0.0
C1335 C 0.54625 0.02025 0.85511 0.0
N1336 N 0.53512 0.07606 0.8725 0.0
N1337 N 0.55519 0.99994 0.78553 0.0
C1338 C 0.54689 0.06044 0.852 0.0
C1339 C 0.55714 0.02129 0.80743 0.0
N1340 N 0.56457 0.12423 0.82432 0.0
N1341 N 0.55987 0.96647 0.83733 0.0
H1342 H 0.55693 0.01341 0.76655 0.0
H1343 H 0.54894 0.96818 0.78607 0.0
H1344 H 0.55768 0.95158 0.85601 0.0
H1345 H 0.57005 0.95394 0.8227 0.0
H1346 H 0.56819 0.14306 0.84018 0.0
H1347 H 0.57209 0.1413 0.8062 0.0
H1348 H 0.52949 0.10236 0.8705 0.0
H1349 H 0.52741 0.06085 0.89124 0.0
C1350 C 0.15899 0.33324 0.58758 0.0
C1351 C 0.1532 0.29095 0.59123 0.0
C1352 C 0.15538 0.28801 0.543 0.0
C1353 C 0.16885 0.33267 0.54014 0.0
N1354 N 0.14115 0.37687 0.55708 0.0
N1355 N 0.14586 0.2277 0.5718 0.0
C1356 C 0.15983 0.35082 0.56166 0.0
C1357 C 0.15175 0.26838 0.56873 0.0
N1358 N 0.16041 0.35564 0.60885 0.0
N1359 N 0.13834 0.26295 0.52158 0.0
H1360 H 0.14057 0.21175 0.59014 0.0
H1361 H 0.14962 0.21142 0.55651 0.0
H1362 H 0.13254 0.27511 0.50345 0.0
H1363 H 0.12399 0.22954 0.52268 0.0
H1364 H 0.16806 0.38788 0.60712 0.0
H1365 H 0.15714 0.34298 0.62819 0.0
H1366 H 0.13051 0.38827 0.57217 0.0
H1367 H 0.12851 0.37985 0.53841 0.0
C1368 C 0.77389 0.8911 0.5733 0.0
C1369 C 0.75103 0.86358 0.59531 0.0
C1370 C 0.69279 0.81496 0.56498 0.0
C1371 C 0.71224 0.84574 0.54378 0.0
N1372 N 0.76967 0.91512 0.52797 0.0
N1373 N 0.68649 0.80155 0.61249 0.0
C1374 C 0.75279 0.88408 0.54788 0.0
C1375 C 0.71018 0.82569 0.5912 0.0
N1376 N 0.8155 0.9249 0.57704 0.0
N1377 N 0.6577 0.77547 0.56 0.0
H1378 H 0.6983 0.80906 0.63176 0.0
H1379 H 0.65411 0.77626 0.61117 0.0
H1380 H 0.64421 0.76684 0.54103 0.0
H1381 H 0.64464 0.75016 0.57412 0.0
H1382 H 0.83106 0.93193 0.5956 0.0
H1383 H 0.83608 0.94366 0.56167 0.0
H1384 H 0.79598 0.94592 0.53059 0.0
H1385 H 0.75536 0.9114 0.50906 0.0
C1386 C 0.12245 0.83469 0.59411 0.0
C1387 C 0.11231 0.86886 0.59426 0.0
C1388 C 0.09095 0.85822 0.54732 0.0
C1389 C 0.1117 0.83231 0.54603 0.0
N1390 N 0.11057 0.7722 0.57118 0.0
N1391 N 0.08921 0.91534 0.56971 0.0
C1392 C 0.11646 0.813 0.57039 0.0
C1393 C 0.09645 0.88081 0.57059 0.0
N1394 N 0.14182 0.82554 0.61575 0.0
N1395 N 0.06089 0.85621 0.52822 0.0
H1396 H 0.09516 0.93425 0.5859 0.0
H1397 H 0.08148 0.92738 0.55215 0.0
H1398 H 0.05046 0.8337 0.51354 0.0
H1399 H 0.04201 0.87182 0.52936 0.0
H1400 H 0.15317 0.80311 0.6158 0.0
H1401 H 0.15116 0.84407 0.63234 0.0
H1402 H 0.11 0.75526 0.58882 0.0
H1403 H 0.10066 0.75398 0.55432 0.0
C1404 C 0.58455 0.82471 0.14871 0.0
C1405 C 0.61001 0.81973 0.12937 0.0
C1406 C 0.6746 0.84609 0.15965 0.0
C1407 C 0.64771 0.84636 0.17999 0.0
N1408 N 0.57697 0.83486 0.19486 0.0
N1409 N 0.67774 0.82324 0.11594 0.0
C1410 C 0.60274 0.83602 0.1747 0.0
C1411 C 0.65473 0.82982 0.13478 0.0
N1412 N 0.54271 0.81783 0.1421 0.0
N1413 N 0.71928 0.86214 0.16408 0.0
H1414 H 0.66468 0.81413 0.09694 0.0
H1415 H 0.70862 0.82491 0.11934 0.0
H1416 H 0.73488 0.87455 0.18209 0.0
H1417 H 0.74153 0.86647 0.14943 0.0
H1418 H 0.52339 0.82455 0.15421 0.0
H1419 H 0.52832 0.80796 0.12348 0.0
H1420 H 0.54285 0.82342 0.19315 0.0
H1421 H 0.58935 0.84338 0.21401 0.0
C1422 C 0.26948 0.83259 0.15942 0.0
C1423 C 0.2456 0.83503 0.13639 0.0
C1424 C 0.20486 0.85929 0.1636 0.0
C1425 C 0.2223 0.84856 0.18697 0.0
N1426 N 0.27111 0.82384 0.20738 0.0
N1427 N 0.18594 0.84581 0.11735 0.0
C1428 C 0.25532 0.8357 0.18498 0.0
C1429 C 0.21273 0.84808 0.13864 0.0
N1430 N 0.30483 0.82582 0.15676 0.0
N1431 N 0.18035 0.87993 0.16529 0.0
H1432 H 0.18961 0.83658 0.09889 0.0
H1433 H 0.15784 0.84958 0.11855 0.0
H1434 H 0.17412 0.88868 0.18328 0.0
H1435 H 0.1702 0.89214 0.14878 0.0
H1436 H 0.32634 0.82712 0.17225 0.0
H1437 H 0.31489 0.82298 0.13829 0.0
H1438 H 0.29142 0.80965 0.20724 0.0
H1439 H 0.26155 0.82558 0.22631 0.0
C1440 C 0.18773 0.3469 0.14122 0.0
C1441 C 0.2231 0.3898 0.13843 0.0
C1442 C 0.24797 0.38347 0.18391 0.0
C1443 C 0.20811 0.3444 0.18807 0.0
N1444 N 0.13859 0.28877 0.171 0.0
N1445 N 0.28374 0.45078 0.15862 0.0
C1446 C 0.17805 0.32545 0.16664 0.0
C1447 C 0.25302 0.40831 0.16001 0.0
N1448 N 0.16183 0.32766 0.11969 0.0
N1449 N 0.2805 0.39722 0.20314 0.0
H1450 H 0.28636 0.47024 0.14205 0.0
H1451 H 0.30344 0.4674 0.17462 0.0
H1452 H 0.27732 0.37958 0.22091 0.0
H1453 H 0.312 0.42356 0.20039 0.0
H1454 H 0.13865 0.2951 0.11949 0.0
H1455 H 0.16569 0.3438 0.10136 0.0
H1456 H 0.11274 0.27634 0.15707 0.0
H1457 H 0.13027 0.27193 0.18923 0.0
C1458 C 0.83305 0.67392 0.92438 0.0
C1459 C 0.82434 0.63061 0.92817 0.0
C1460 C 0.82445 0.62653 0.88001 0.0
C1461 C 0.84194 0.6718 0.87678 0.0
N1462 N 0.82253 0.72233 0.89358 0.0
N1463 N 0.81326 0.56595 0.9088 0.0
C1464 C 0.83615 0.69227 0.89834 0.0
C1465 C 0.8213 0.60732 0.90573 0.0
N1466 N 0.8345 0.69644 0.94563 0.0
N1467 N 0.80245 0.60103 0.85936 0.0
H1468 H 0.80875 0.55048 0.92723 0.0
H1469 H 0.81495 0.54883 0.89327 0.0
H1470 H 0.7956 0.61352 0.84168 0.0
H1471 H 0.7852 0.56753 0.86114 0.0
H1472 H 0.84513 0.72938 0.94423 0.0
H1473 H 0.82753 0.68271 0.96477 0.0
H1474 H 0.81402 0.73591 0.90846 0.0
H1475 H 0.81182 0.72749 0.87477 0.0
C1476 C 0.44987 0.19632 0.90553 0.0
C1477 C 0.42334 0.19259 0.92722 0.0
C1478 C 0.3578 0.16635 0.89736 0.0
C1479 C 0.38565 0.17741 0.87525 0.0
N1480 N 0.4591 0.20494 0.85789 0.0
N1481 N 0.35247 0.17956 0.94289 0.0
C1482 C 0.43191 0.19222 0.87921 0.0
C1483 C 0.37719 0.17835 0.92294 0.0
N1484 N 0.4927 0.20505 0.91016 0.0
N1485 N 0.31267 0.14441 0.89387 0.0
H1486 H 0.36532 0.18841 0.96191 0.0
H1487 H 0.32026 0.17495 0.94009 0.0
H1488 H 0.29744 0.13497 0.87535 0.0
H1489 H 0.2907 0.13191 0.90954 0.0
H1490 H 0.50642 0.20921 0.92912 0.0
H1491 H 0.51302 0.20437 0.89578 0.0
H1492 H 0.49365 0.22059 0.85941 0.0
H1493 H 0.44728 0.20248 0.83841 0.0
C1494 C 0.79484 0.16482 0.9301 0.0
C1495 C 0.77721 0.1936 0.92858 0.0
C1496 C 0.74887 0.17013 0.88393 0.0
C1497 C 0.77608 0.15035 0.88331 0.0
N1498 N 0.79058 0.10171 0.91178 0.0
N1499 N 0.73902 0.22555 0.90297 0.0
C1500 C 0.78901 0.13926 0.90826 0.0
C1501 C 0.75393 0.19628 0.90534 0.0
N1502 N 0.82011 0.16422 0.95145 0.0
N1503 N 0.71416 0.15901 0.86642 0.0
H1504 H 0.74486 0.24714 0.9176 0.0
H1505 H 0.72507 0.23103 0.88543 0.0
H1506 H 0.7054 0.13418 0.85351 0.0
H1507 H 0.69097 0.16983 0.86741 0.0
H1508 H 0.83679 0.14624 0.95239 0.0
H1509 H 0.82811 0.18524 0.96672 0.0
H1510 H 0.79615 0.09027 0.93022 0.0
H1511 H 0.78057 0.07987 0.89672 0.0
C1512 C 0.23877 0.13731 0.48719 0.0
C1513 C 0.2624 0.15243 0.46316 0.0
C1514 C 0.33058 0.19897 0.48808 0.0
C1515 C 0.30641 0.18415 0.51187 0.0
N1516 N 0.23609 0.14799 0.53375 0.0
N1517 N 0.32963 0.19886 0.44012 0.0
C1518 C 0.25995 0.1563 0.51125 0.0
C1519 C 0.30785 0.18431 0.46345 0.0
N1520 N 0.19711 0.10252 0.48732 0.0
N1521 N 0.37563 0.22513 0.48925 0.0
H1522 H 0.3151 0.18499 0.42235 0.0
H1523 H 0.36119 0.22527 0.43811 0.0
H1524 H 0.39301 0.23711 0.5069 0.0
H1525 H 0.39635 0.23375 0.47312 0.0
H1526 H 0.18034 0.08672 0.50455 0.0
H1527 H 0.18056 0.08704 0.47023 0.0
H1528 H 0.20148 0.13148 0.53398 0.0
H1529 H 0.25079 0.16115 0.55178 0.0
C1530 C 0.90938 0.13451 0.4945 0.0
C1531 C 0.91122 0.1625 0.47263 0.0
C1532 C 0.90135 0.20821 0.50354 0.0
C1533 C 0.8923 0.17662 0.52429 0.0
N1534 N 0.88637 0.10864 0.53964 0.0
N1535 N 0.90447 0.22388 0.45626 0.0
C1536 C 0.89695 0.13992 0.51996 0.0
C1537 C 0.90695 0.19933 0.47726 0.0
N1538 N 0.91722 0.10114 0.49043 0.0
N1539 N 0.9043 0.24669 0.509 0.0
H1540 H 0.90764 0.21759 0.437 0.0
H1541 H 0.89604 0.24814 0.45777 0.0
H1542 H 0.90011 0.25389 0.52799 0.0
H1543 H 0.91491 0.2727 0.49538 0.0
H1544 H 0.92243 0.09399 0.4717 0.0
H1545 H 0.92145 0.08229 0.50559 0.0
H1546 H 0.88347 0.07859 0.53697 0.0
H1547 H 0.87766 0.11156 0.55856 0.0
C1548 C 0.92349 0.74935 0.49504 0.0
C1549 C 0.8959 0.72812 0.47308 0.0
C1550 C 0.85848 0.66119 0.5007 0.0
C1551 C 0.88331 0.68397 0.52289 0.0
N1552 N 0.94795 0.74447 0.54025 0.0
N1553 N 0.83486 0.66471 0.45524 0.0
C1554 C 0.91878 0.72635 0.51965 0.0
C1555 C 0.86374 0.68375 0.47579 0.0
N1556 N 0.95089 0.79263 0.49312 0.0
N1557 N 0.82958 0.6181 0.50362 0.0
H1558 H 0.83685 0.68057 0.437 0.0
H1559 H 0.80713 0.63432 0.45653 0.0
H1560 H 0.82416 0.60114 0.5218 0.0
H1561 H 0.8136 0.59833 0.48792 0.0
H1562 H 0.96708 0.81139 0.50919 0.0
H1563 H 0.95455 0.81034 0.47557 0.0
H1564 H 0.97719 0.77368 0.53857 0.0
H1565 H 0.94496 0.72824 0.55854 0.0
loop_
_geom_bond_atom_site_label_1
_geom_bond_atom_site_label_2
_geom_bond_distance
_geom_bond_site_symmetry_2
_ccdc_geom_bond_type
C0 N1 1.317 . S
C0 N2 1.348 . S
C0 C3 1.485 . S
N1 C0 1.317 . S
N1 N5 1.370 . S
N2 C0 1.348 . S
N2 C4 1.346 . S
C3 C0 1.485 . S
C3 H7 0.960 . S
C3 H8 0.961 . S
C3 H9 0.960 . S
C4 N2 1.346 . S
C4 N5 1.307 . S
C4 C6 1.486 . S
N5 N1 1.370 . S
N5 C4 1.307 . S
C6 C4 1.486 . S
C6 H10 0.960 . S
C6 H11 0.960 . S
C6 H12 0.959 . S
H7 C3 0.960 . S
H8 C3 0.961 . S
H9 C3 0.960 . S
H10 C6 0.960 . S
H11 C6 0.960 . S
H12 C6 0.959 . S
C13 N14 1.317 . S
C13 N15 1.348 . S
C13 C16 1.485 . S
N14 C13 1.317 . S
N14 N18 1.370 . S
N15 C13 1.348 . S
N15 C17 1.346 . S
C16 C13 1.485 . S
C16 H20 0.960 . S
C16 H21 0.961 . S
C16 H22 0.960 . S
C17 N15 1.346 . S
C17 N18 1.307 . S
C17 C19 1.486 . S
N18 N14 1.370 . S
N18 C17 1.307 . S
C19 C17 1.486 . S
C19 H23 0.960 . S
C19 H24 0.960 . S
C19 H25 0.959 . S
H20 C16 0.960 . S
H21 C16 0.961 . S
H22 C16 0.960 . S
H23 C19 0.960 . S
H24 C19 0.960 . S
H25 C19 0.959 . S
C26 N27 1.317 . S
C26 N28 1.348 . S
C26 C29 1.485 . S
N27 C26 1.317 . S
N27 N31 1.370 . S
N28 C26 1.348 . S
N28 C30 1.346 . S
C29 C26 1.485 . S
C29 H33 0.960 . S
C29 H34 0.961 . S
C29 H35 0.960 . S
C30 N28 1.346 . S
C30 N31 1.307 . S
C30 C32 1.486 . S
N31 N27 1.370 . S
N31 C30 1.307 . S
C32 C30 1.486 . S
C32 H36 0.960 . S
C32 H37 0.960 . S
C32 H38 0.959 . S
H33 C29 0.960 . S
H34 C29 0.961 . S
H35 C29 0.960 . S
H36 C32 0.960 . S
H37 C32 0.960 . S
H38 C32 0.959 . S
C39 N40 1.317 . S
C39 N41 1.348 . S
C39 C42 1.485 . S
N40 C39 1.317 . S
N40 N44 1.370 . S
N41 C39 1.348 . S
N41 C43 1.346 . S
C42 C39 1.485 . S
C42 H46 0.960 . S
C42 H47 0.961 . S
C42 H48 0.960 . S
C43 N41 1.346 . S
C43 N44 1.307 . S
C43 C45 1.486 . S
N44 N40 1.370 . S
N44 C43 1.307 . S
C45 C43 1.486 . S
C45 H49 0.960 . S
C45 H50 0.960 1_455 S
C45 H51 0.959 . S
H46 C42 0.960 . S
H47 C42 0.961 . S
H48 C42 0.960 . S
H49 C45 0.960 . S
H50 C45 0.960 1_655 S
H51 C45 0.959 . S
C52 N53 1.317 . S
C52 N54 1.348 . S
C52 C55 1.485 . S
N53 C52 1.317 . S
N53 N57 1.370 . S
N54 C52 1.348 . S
N54 C56 1.346 . S
C55 C52 1.485 . S
C55 H59 0.960 . S
C55 H60 0.961 . S
C55 H61 0.960 . S
C56 N54 1.346 . S
C56 N57 1.307 . S
C56 C58 1.486 . S
N57 N53 1.370 . S
N57 C56 1.307 . S
C58 C56 1.486 . S
C58 H62 0.960 . S
C58 H63 0.960 . S
C58 H64 0.959 . S
H59 C55 0.960 . S
H60 C55 0.961 . S
H61 C55 0.960 . S
H62 C58 0.960 . S
H63 C58 0.960 . S
H64 C58 0.959 . S
C65 N66 1.317 . S
C65 N67 1.348 . S
C65 C68 1.485 . S
N66 C65 1.317 . S
N66 N70 1.370 . S
N67 C65 1.348 . S
N67 C69 1.346 . S
C68 C65 1.485 . S
C68 H72 0.960 . S
C68 H73 0.961 . S
C68 H74 0.960 . S
C69 N67 1.346 . S
C69 N70 1.307 . S
C69 C71 1.486 . S
N70 N66 1.370 . S
N70 C69 1.307 . S
C71 C69 1.486 . S
C71 H75 0.960 . S
C71 H76 0.960 . S
C71 H77 0.959 . S
H72 C68 0.960 . S
H73 C68 0.961 . S
H74 C68 0.960 . S
H75 C71 0.960 . S
H76 C71 0.960 . S
H77 C71 0.959 . S
C78 N79 1.317 . S
C78 N80 1.348 . S
C78 C81 1.485 . S
N79 C78 1.317 . S
N79 N83 1.370 . S
N80 C78 1.348 . S
N80 C82 1.346 . S
C81 C78 1.485 . S
C81 H85 0.960 . S
C81 H86 0.961 . S
C81 H87 0.960 . S
C82 N80 1.346 . S
C82 N83 1.307 . S
C82 C84 1.486 . S
N83 N79 1.370 . S
N83 C82 1.307 . S
C84 C82 1.486 . S
C84 H88 0.960 . S
C84 H89 0.960 . S
C84 H90 0.959 . S
H85 C81 0.960 . S
H86 C81 0.961 . S
H87 C81 0.960 . S
H88 C84 0.960 . S
H89 C84 0.960 . S
H90 C84 0.959 . S
C91 N92 1.317 . S
C91 N93 1.348 . S
C91 C94 1.485 . S
N92 C91 1.317 . S
N92 N96 1.370 . S
N93 C91 1.348 . S
N93 C95 1.346 . S
C94 C91 1.485 . S
C94 H98 0.960 . S
C94 H99 0.961 . S
C94 H100 0.960 . S
C95 N93 1.346 . S
C95 N96 1.307 . S
C95 C97 1.486 . S
N96 N92 1.370 . S
N96 C95 1.307 . S
C97 C95 1.486 . S
C97 H101 0.960 . S
C97 H102 0.960 . S
C97 H103 0.959 . S
H98 C94 0.960 . S
H99 C94 0.961 . S
H100 C94 0.960 . S
H101 C97 0.960 . S
H102 C97 0.960 . S
H103 C97 0.959 . S
C104 N105 1.317 . S
C104 N106 1.348 . S
C104 C107 1.485 . S
N105 C104 1.317 . S
N105 N109 1.370 . S
N106 C104 1.348 . S
N106 C108 1.346 . S
C107 C104 1.485 . S
C107 H111 0.960 . S
C107 H112 0.961 . S
C107 H113 0.960 . S
C108 N106 1.346 . S
C108 N109 1.307 . S
C108 C110 1.486 . S
N109 N105 1.370 . S
N109 C108 1.307 . S
C110 C108 1.486 . S
C110 H114 0.960 . S
C110 H115 0.960 . S
C110 H116 0.959 . S
H111 C107 0.960 . S
H112 C107 0.961 . S
H113 C107 0.960 . S
H114 C110 0.960 . S
H115 C110 0.960 . S
H116 C110 0.959 . S
C117 N118 1.317 . S
C117 N119 1.348 . S
C117 C120 1.485 . S
N118 C117 1.317 . S
N118 N122 1.370 . S
N119 C117 1.348 . S
N119 C121 1.346 . S
C120 C117 1.485 . S
C120 H124 0.960 . S
C120 H125 0.938 1_556 S
C120 H126 0.960 . S
C121 N119 1.346 . S
C121 N122 1.307 . S
C121 C123 1.486 . S
N122 N118 1.370 . S
N122 C121 1.307 . S
C123 C121 1.486 . S
C123 H127 0.960 . S
C123 H128 0.960 . S
C123 H129 0.959 . S
H124 C120 0.960 . S
H125 C120 0.938 1_554 S
H126 C120 0.960 . S
H127 C123 0.960 . S
H128 C123 0.960 . S
H129 C123 0.959 . S
C130 N131 1.317 . S
C130 N132 1.348 . S
C130 C133 1.485 1_556 S
N131 C130 1.317 . S
N131 N135 1.370 . S
N132 C130 1.348 . S
N132 C134 1.346 . S
C133 C130 1.485 1_554 S
C133 H137 0.960 . S
C133 H138 0.961 . S
C133 H139 0.960 . S
C134 N132 1.346 . S
C134 N135 1.307 . S
C134 C136 1.486 . S
N135 N131 1.370 . S
N135 C134 1.307 . S
C136 C134 1.486 . S
C136 H140 0.960 . S
C136 H141 0.960 . S
C136 H142 0.959 . S
H137 C133 0.960 . S
H138 C133 0.961 . S
H139 C133 0.960 . S
H140 C136 0.960 . S
H141 C136 0.960 . S
H142 C136 0.959 . S
C143 N144 1.317 . S
C143 N145 1.348 . S
C143 C146 1.485 1_556 S
N144 C143 1.317 . S
N144 N148 1.370 . S
N145 C143 1.348 . S
N145 C147 1.346 . S
C146 C143 1.485 1_554 S
C146 H150 0.960 . S
C146 H151 0.961 . S
C146 H152 0.960 . S
C147 N145 1.346 . S
C147 N148 1.307 . S
C147 C149 1.486 . S
N148 N144 1.370 . S
N148 C147 1.307 . S
C149 C147 1.486 . S
C149 H153 0.960 . S
C149 H154 0.960 . S
C149 H155 0.959 . S
H150 C146 0.960 . S
H151 C146 0.961 . S
H152 C146 0.960 . S
H153 C149 0.960 . S
H154 C149 0.960 . S
H155 C149 0.959 . S
C156 N157 1.317 . S
C156 N158 1.348 . S
C156 C159 1.485 1_554 S
N157 C156 1.317 . S
N157 N161 1.370 . S
N158 C156 1.348 . S
N158 C160 1.346 . S
C159 C156 1.485 1_556 S
C159 H163 0.960 . S
C159 H164 0.961 . S
C159 H165 0.960 . S
C160 N158 1.346 . S
C160 N161 1.307 . S
C160 C162 1.486 . S
N161 N157 1.370 . S
N161 C160 1.307 . S
C162 C160 1.486 . S
C162 H166 0.960 . S
C162 H167 0.960 . S
C162 H168 0.959 . S
H163 C159 0.960 . S
H164 C159 0.961 . S
H165 C159 0.960 . S
H166 C162 0.960 . S
H167 C162 0.960 . S
H168 C162 0.959 . S
C169 N170 1.317 . S
C169 N171 1.348 . S
C169 C172 1.485 . S
N170 C169 1.317 . S
N170 N174 1.370 . S
N171 C169 1.348 . S
N171 C173 1.346 . S
C172 C169 1.485 . S
C172 H176 0.960 1_554 S
C172 H177 0.961 . S
C172 H178 0.960 . S
C173 N171 1.346 . S
C173 N174 1.307 . S
C173 C175 1.486 . S
N174 N170 1.370 . S
N174 C173 1.307 . S
C175 C173 1.486 . S
C175 H179 0.960 . S
C175 H180 0.960 . S
C175 H181 0.959 . S
H176 C172 0.960 1_556 S
H177 C172 0.961 . S
H178 C172 0.960 . S
H179 C175 0.960 . S
H180 C175 0.960 . S
H181 C175 0.959 . S
C182 N183 1.317 . S
C182 N184 1.348 . S
C182 C185 1.485 . S
N183 C182 1.317 . S
N183 N187 1.370 . S
N184 C182 1.348 . S
N184 C186 1.346 . S
C185 C182 1.485 . S
C185 H189 0.960 . S
C185 H190 0.961 . S
C185 H191 0.960 . S
C186 N184 1.346 . S
C186 N187 1.307 . S
C186 C188 1.486 . S
N187 N183 1.370 . S
N187 C186 1.307 . S
C188 C186 1.486 . S
C188 H192 0.960 . S
C188 H193 0.960 . S
C188 H194 0.959 . S
H189 C185 0.960 . S
H190 C185 0.961 . S
H191 C185 0.960 . S
H192 C188 0.960 . S
H193 C188 0.960 . S
H194 C188 0.959 . S
C195 N196 1.317 . S
C195 N197 1.348 . S
C195 C198 1.485 . S
N196 C195 1.317 . S
N196 N200 1.370 . S
N197 C195 1.348 . S
N197 C199 1.346 . S
C198 C195 1.485 . S
C198 H202 0.960 . S
C198 H203 0.961 . S
C198 H204 0.960 . S
C199 N197 1.346 . S
C199 N200 1.307 . S
C199 C201 1.486 . S
N200 N196 1.370 . S
N200 C199 1.307 . S
C201 C199 1.486 . S
C201 H205 0.960 . S
C201 H206 0.960 . S
C201 H207 0.959 . S
H202 C198 0.960 . S
H203 C198 0.961 . S
H204 C198 0.960 . S
H205 C201 0.960 . S
H206 C201 0.960 . S
H207 C201 0.959 . S
C208 N209 1.317 . S
C208 N210 1.348 . S
C208 C211 1.485 . S
N209 C208 1.317 . S
N209 N213 1.370 . S
N210 C208 1.348 . S
N210 C212 1.346 . S
C211 C208 1.485 . S
C211 H215 0.960 . S
C211 H216 0.961 . S
C211 H217 0.960 . S
C212 N210 1.346 . S
C212 N213 1.307 . S
C212 C214 1.486 . S
N213 N209 1.370 . S
N213 C212 1.307 . S
C214 C212 1.486 . S
C214 H218 0.960 . S
C214 H219 0.960 . S
C214 H220 0.959 . S
H215 C211 0.960 . S
H216 C211 0.961 . S
H217 C211 0.960 . S
H218 C214 0.960 . S
H219 C214 0.960 . S
H220 C214 0.959 . S
C221 N222 1.317 . S
C221 N223 1.348 . S
C221 C224 1.485 . S
N222 C221 1.317 . S
N222 N226 1.370 . S
N223 C221 1.348 . S
N223 C225 1.346 . S
C224 C221 1.485 . S
C224 H228 0.960 . S
C224 H229 0.961 . S
C224 H230 0.960 . S
C225 N223 1.346 . S
C225 N226 1.307 . S
C225 C227 1.486 . S
N226 N222 1.370 . S
N226 C225 1.307 . S
C227 C225 1.486 . S
C227 H231 0.960 . S
C227 H232 0.960 . S
C227 H233 0.959 . S
H228 C224 0.960 . S
H229 C224 0.961 . S
H230 C224 0.960 . S
H231 C227 0.960 . S
H232 C227 0.960 . S
H233 C227 0.959 . S
Tb234 C244 2.825 1_565 S
Tb234 O245 2.347 1_565 S
Tb234 O248 2.366 1_565 S
Tb234 O253 2.418 . S
Tb234 O254 2.384 1_556 S
Tb234 O257 2.479 . S
Tb234 O258 2.471 1_565 S
Eu235 O246 2.418 . S
Eu235 O247 2.384 . S
Eu235 O250 2.479 . S
Eu235 O251 2.471 1_545 S
Eu235 O252 2.347 1_545 S
Eu235 O255 2.366 1_545 S
Eu235 C265 2.825 1_545 S
C236 O252 1.259 . S
C236 O253 1.265 1_554 S
C237 O254 1.255 . S
C237 O255 1.265 . S
C238 C240 1.380 . S
C238 C241 1.374 . S
C238 C244 1.507 . S
C239 C240 1.384 . S
C239 C243 1.387 . S
C239 H266 0.930 . S
C240 C238 1.380 . S
C240 C239 1.384 . S
C240 H267 0.931 1_545 S
C241 C238 1.374 . S
C241 C242 1.390 . S
C241 H268 0.930 . S
C242 C241 1.390 . S
C242 C243 1.391 . S
C242 H269 0.930 . S
C243 C239 1.387 . S
C243 C242 1.391 . S
C244 Tb234 2.825 1_545 S
C244 C238 1.507 . S
C244 O257 1.238 1_545 S
C244 O258 1.247 . S
O245 Tb234 2.347 1_545 S
O245 C249 1.259 1_556 S
O246 Eu235 2.418 . S
O246 C249 1.265 . S
O247 Eu235 2.384 . S
O247 C256 1.255 1_554 S
O248 Tb234 2.366 1_545 S
O248 C256 1.265 . S
C249 O245 1.259 1_554 S
C249 O246 1.265 . S
O250 Eu235 2.479 . S
O250 C265 1.238 1_545 S
O251 Eu235 2.471 1_565 S
O251 C265 1.247 . S
O252 Eu235 2.347 1_565 S
O252 C236 1.259 . S
O253 Tb234 2.418 . S
O253 C236 1.265 1_556 S
O254 Tb234 2.384 1_554 S
O254 C237 1.255 . S
O255 Eu235 2.366 1_565 S
O255 C237 1.265 . S
C256 O247 1.255 1_556 S
C256 O248 1.265 . S
O257 Tb234 2.479 . S
O257 C244 1.238 1_565 S
O258 Tb234 2.471 1_545 S
O258 C244 1.247 . S
C259 C262 1.380 . S
C259 C263 1.374 . S
C259 C265 1.507 . S
C260 C261 1.387 . S
C260 C264 1.391 . S
C261 C260 1.387 . S
C261 C262 1.384 . S
C261 H270 0.930 . S
C262 C259 1.380 . S
C262 C261 1.384 . S
C262 H271 0.931 1_565 S
C263 C259 1.374 . S
C263 C264 1.390 . S
C263 H272 0.930 . S
C264 C260 1.391 . S
C264 C263 1.390 . S
C264 H273 0.930 . S
C265 Eu235 2.825 1_565 S
C265 O250 1.238 1_565 S
C265 O251 1.247 . S
C265 C259 1.507 . S
H266 C239 0.930 . S
H267 C240 0.931 1_565 S
H268 C241 0.930 . S
H269 C242 0.930 . S
H270 C261 0.930 . S
H271 C262 0.931 1_545 S
H272 C263 0.930 . S
H273 C264 0.930 . S
Tb274 C284 2.825 . S
Tb274 O285 2.347 1_455 S
Tb274 O288 2.366 1_455 S
Tb274 O293 2.418 . S
Tb274 O294 2.384 1_556 S
Tb274 O297 2.479 . S
Tb274 O298 2.471 1_455 S
Eu275 O286 2.418 . S
Eu275 O287 2.383 1_554 S
Eu275 O290 2.479 . S
Eu275 O291 2.471 1_655 S
Eu275 O292 2.347 1_655 S
Eu275 O295 2.366 1_655 S
Eu275 C305 2.825 1_655 S
C276 O292 1.259 . S
C276 O293 1.265 1_554 S
C277 O294 1.255 . S
C277 O295 1.265 . S
C278 C280 1.380 1_655 S
C278 C281 1.374 . S
C278 C284 1.507 1_655 S
C279 C280 1.384 . S
C279 C283 1.387 1_455 S
C279 H306 0.930 . S
C280 C278 1.380 1_455 S
C280 C279 1.384 . S
C280 H307 0.931 . S
C281 C278 1.374 . S
C281 C282 1.390 . S
C281 H308 0.930 . S
C282 C281 1.390 . S
C282 C283 1.391 . S
C282 H309 0.930 . S
C283 C279 1.387 1_655 S
C283 C282 1.391 . S
C284 Tb274 2.825 . S
C284 C278 1.507 1_455 S
C284 O297 1.238 . S
C284 O298 1.247 1_455 S
O285 Tb274 2.347 1_655 S
O285 C289 1.266 . S
O286 Eu275 2.418 . S
O286 C289 1.248 1_554 S
O287 Eu275 2.383 1_556 S
O287 C296 1.257 . S
O288 Tb274 2.366 1_655 S
O288 C296 1.265 . S
C289 O285 1.266 . S
C289 O286 1.248 1_556 S
O290 Eu275 2.479 . S
O290 C305 1.238 1_655 S
O291 Eu275 2.471 1_455 S
O291 C305 1.247 . S
O292 Eu275 2.347 1_455 S
O292 C276 1.259 . S
O293 Tb274 2.418 . S
O293 C276 1.265 1_556 S
O294 Tb274 2.384 1_554 S
O294 C277 1.255 . S
O295 Eu275 2.366 1_455 S
O295 C277 1.265 . S
C296 O287 1.257 . S
C296 O288 1.265 . S
O297 Tb274 2.479 . S
O297 C284 1.238 . S
O298 Tb274 2.471 1_655 S
O298 C284 1.247 1_655 S
C299 C302 1.380 1_455 S
C299 C303 1.374 . S
C299 C305 1.507 . S
C300 C301 1.387 . S
C300 C304 1.391 . S
C301 C300 1.387 . S
C301 C302 1.384 1_455 S
C301 H310 0.930 1_455 S
C302 C299 1.380 1_655 S
C302 C301 1.384 1_655 S
C302 H311 0.931 . S
C303 C299 1.374 . S
C303 C304 1.390 . S
C303 H312 0.930 . S
C304 C300 1.391 . S
C304 C303 1.390 . S
C304 H313 0.930 . S
C305 Eu275 2.825 1_455 S
C305 O290 1.238 1_455 S
C305 O291 1.247 . S
C305 C299 1.507 . S
H306 C279 0.930 . S
H307 C280 0.931 . S
H308 C281 0.930 . S
H309 C282 0.930 . S
H310 C301 0.930 1_655 S
H311 C302 0.931 . S
H312 C303 0.930 . S
H313 C304 0.930 . S
Tb314 C324 2.825 . S
Tb314 O325 2.347 . S
Tb314 O328 2.366 . S
Tb314 O333 2.418 . S
Tb314 O334 2.384 . S
Tb314 O337 2.479 . S
Tb314 O338 2.471 . S
Eu315 O326 2.418 . S
Eu315 O327 2.384 1_556 S
Eu315 O330 2.479 . S
Eu315 O331 2.471 . S
Eu315 O332 2.347 1_556 S
Eu315 O335 2.366 . S
Eu315 C345 2.825 . S
C316 O332 1.259 . S
C316 O333 1.265 . S
C317 O334 1.255 1_556 S
C317 O335 1.265 . S
C318 C320 1.380 . S
C318 C321 1.374 . S
C318 C324 1.507 . S
C319 C320 1.384 . S
C319 C323 1.387 . S
C319 H346 0.930 . S
C320 C318 1.380 . S
C320 C319 1.384 . S
C320 H347 0.931 . S
C321 C318 1.374 . S
C321 C322 1.390 . S
C321 H348 0.930 . S
C322 C321 1.390 . S
C322 C323 1.391 . S
C322 H349 0.930 . S
C323 C319 1.387 . S
C323 C322 1.391 . S
C324 Tb314 2.825 . S
C324 C318 1.507 . S
C324 O337 1.238 . S
C324 O338 1.247 . S
O325 Tb314 2.347 . S
O325 C329 1.259 . S
O326 Eu315 2.418 . S
O326 C329 1.265 1_556 S
O327 Eu315 2.384 1_554 S
O327 C336 1.255 . S
O328 Tb314 2.366 . S
O328 C336 1.265 . S
C329 O325 1.259 . S
C329 O326 1.265 1_554 S
O330 Eu315 2.479 . S
O330 C345 1.238 . S
O331 Eu315 2.471 . S
O331 C345 1.247 . S
O332 Eu315 2.347 1_554 S
O332 C316 1.259 . S
O333 Tb314 2.418 . S
O333 C316 1.265 . S
O334 Tb314 2.384 . S
O334 C317 1.255 1_554 S
O335 Eu315 2.366 . S
O335 C317 1.265 . S
C336 O327 1.255 . S
C336 O328 1.265 . S
O337 Tb314 2.479 . S
O337 C324 1.238 . S
O338 Tb314 2.471 . S
O338 C324 1.247 . S
C339 C342 1.380 . S
C339 C343 1.374 . S
C339 C345 1.507 . S
C340 C341 1.387 . S
C340 C344 1.391 . S
C341 C340 1.387 . S
C341 C342 1.384 . S
C341 H350 0.930 . S
C342 C339 1.380 . S
C342 C341 1.384 . S
C342 H351 0.931 . S
C343 C339 1.374 . S
C343 C344 1.390 . S
C343 H352 0.930 . S
C344 C340 1.391 . S
C344 C343 1.390 . S
C344 H353 0.930 . S
C345 Eu315 2.825 . S
C345 O330 1.238 . S
C345 O331 1.247 . S
C345 C339 1.507 . S
H346 C319 0.930 . S
H347 C320 0.931 . S
H348 C321 0.930 . S
H349 C322 0.930 . S
H350 C341 0.930 . S
H351 C342 0.931 . S
H352 C343 0.930 . S
H353 C344 0.930 . S
Tb354 C364 2.825 . S
Tb354 O365 2.347 . S
Tb354 O368 2.366 . S
Tb354 O373 2.418 . S
Tb354 O374 2.384 . S
Tb354 O377 2.479 . S
Tb354 O378 2.471 . S
Eu355 O366 2.418 . S
Eu355 O367 2.384 . S
Eu355 O370 2.479 . S
Eu355 O371 2.471 . S
Eu355 O372 2.347 . S
Eu355 O375 2.366 . S
Eu355 C385 2.825 . S
C356 O372 1.259 . S
C356 O373 1.265 . S
C357 O374 1.255 . S
C357 O375 1.265 . S
C358 C360 1.380 . S
C358 C361 1.374 . S
C358 C364 1.507 . S
C359 C360 1.384 . S
C359 C363 1.387 . S
C359 H386 0.930 . S
C360 C358 1.380 . S
C360 C359 1.384 . S
C360 H387 0.931 . S
C361 C358 1.374 . S
C361 C362 1.390 . S
C361 H388 0.930 . S
C362 C361 1.390 . S
C362 C363 1.391 . S
C362 H389 0.930 . S
C363 C359 1.387 . S
C363 C362 1.391 . S
C364 Tb354 2.825 . S
C364 C358 1.507 . S
C364 O377 1.238 . S
C364 O378 1.247 . S
O365 Tb354 2.347 . S
O365 C369 1.259 . S
O366 Eu355 2.418 . S
O366 C369 1.265 . S
O367 Eu355 2.384 . S
O367 C376 1.255 . S
O368 Tb354 2.366 . S
O368 C376 1.265 . S
C369 O365 1.259 . S
C369 O366 1.265 . S
O370 Eu355 2.479 . S
O370 C385 1.238 . S
O371 Eu355 2.471 . S
O371 C385 1.247 . S
O372 Eu355 2.347 . S
O372 C356 1.259 . S
O373 Tb354 2.418 . S
O373 C356 1.265 . S
O374 Tb354 2.384 . S
O374 C357 1.255 . S
O375 Eu355 2.366 . S
O375 C357 1.265 . S
C376 O367 1.255 . S
C376 O368 1.265 . S
O377 Tb354 2.479 . S
O377 C364 1.238 . S
O378 Tb354 2.471 . S
O378 C364 1.247 . S
C379 C382 1.380 . S
C379 C383 1.374 . S
C379 C385 1.507 . S
C380 C381 1.387 . S
C380 C384 1.391 . S
C381 C380 1.387 . S
C381 C382 1.384 . S
C381 H390 0.930 . S
C382 C379 1.380 . S
C382 C381 1.384 . S
C382 H391 0.931 . S
C383 C379 1.374 . S
C383 C384 1.390 . S
C383 H392 0.930 . S
C384 C380 1.391 . S
C384 C383 1.390 . S
C384 H393 0.930 . S
C385 Eu355 2.825 . S
C385 O370 1.238 . S
C385 O371 1.247 . S
C385 C379 1.507 . S
H386 C359 0.930 . S
H387 C360 0.931 . S
H388 C361 0.930 . S
H389 C362 0.930 . S
H390 C381 0.930 . S
H391 C382 0.931 . S
H392 C383 0.930 . S
H393 C384 0.930 . S
Tb394 C404 2.825 . S
Tb394 O405 2.347 . S
Tb394 O408 2.366 . S
Tb394 O413 2.418 . S
Tb394 O414 2.384 . S
Tb394 O417 2.479 . S
Tb394 O418 2.471 . S
Eu395 O406 2.418 . S
Eu395 O407 2.384 . S
Eu395 O410 2.479 . S
Eu395 O411 2.471 . S
Eu395 O412 2.347 . S
Eu395 O415 2.366 . S
Eu395 C425 2.825 . S
C396 O412 1.259 . S
C396 O413 1.265 . S
C397 O414 1.255 . S
C397 O415 1.265 . S
C398 C400 1.380 . S
C398 C401 1.374 . S
C398 C404 1.507 . S
C399 C400 1.384 . S
C399 C403 1.387 . S
C399 H426 0.930 . S
C400 C398 1.380 . S
C400 C399 1.384 . S
C400 H427 0.931 . S
C401 C398 1.374 . S
C401 C402 1.390 . S
C401 H428 0.930 . S
C402 C401 1.390 . S
C402 C403 1.391 . S
C402 H429 0.930 . S
C403 C399 1.387 . S
C403 C402 1.391 . S
C404 Tb394 2.825 . S
C404 C398 1.507 . S
C404 O417 1.238 . S
C404 O418 1.247 . S
O405 Tb394 2.347 . S
O405 C409 1.259 . S
O406 Eu395 2.418 . S
O406 C409 1.265 . S
O407 Eu395 2.384 . S
O407 C416 1.255 . S
O408 Tb394 2.366 . S
O408 C416 1.265 . S
C409 O405 1.259 . S
C409 O406 1.265 . S
O410 Eu395 2.479 . S
O410 C425 1.238 . S
O411 Eu395 2.471 . S
O411 C425 1.247 . S
O412 Eu395 2.347 . S
O412 C396 1.259 . S
O413 Tb394 2.418 . S
O413 C396 1.265 . S
O414 Tb394 2.384 . S
O414 C397 1.255 . S
O415 Eu395 2.366 . S
O415 C397 1.265 . S
C416 O407 1.255 . S
C416 O408 1.265 . S
O417 Tb394 2.479 . S
O417 C404 1.238 . S
O418 Tb394 2.471 . S
O418 C404 1.247 . S
C419 C422 1.380 . S
C419 C423 1.374 . S
C419 C425 1.507 . S
C420 C421 1.387 . S
C420 C424 1.391 . S
C421 C420 1.387 . S
C421 C422 1.384 . S
C421 H430 0.930 . S
C422 C419 1.380 . S
C422 C421 1.384 . S
C422 H431 0.931 . S
C423 C419 1.374 . S
C423 C424 1.390 . S
C423 H432 0.930 . S
C424 C420 1.391 . S
C424 C423 1.390 . S
C424 H433 0.930 . S
C425 Eu395 2.825 . S
C425 O410 1.238 . S
C425 O411 1.247 . S
C425 C419 1.507 . S
H426 C399 0.930 . S
H427 C400 0.931 . S
H428 C401 0.930 . S
H429 C402 0.930 . S
H430 C421 0.930 . S
H431 C422 0.931 . S
H432 C423 0.930 . S
H433 C424 0.930 . S
Tb434 C444 2.825 . S
Tb434 O445 2.347 . S
Tb434 O448 2.366 . S
Tb434 O453 2.418 . S
Tb434 O454 2.384 . S
Tb434 O457 2.479 . S
Tb434 O458 2.471 . S
Eu435 O446 2.418 . S
Eu435 O447 2.384 . S
Eu435 O450 2.479 . S
Eu435 O451 2.471 . S
Eu435 O452 2.347 . S
Eu435 O455 2.366 . S
Eu435 C465 2.825 . S
C436 O452 1.259 . S
C436 O453 1.265 . S
C437 O454 1.255 . S
C437 O455 1.265 . S
C438 C440 1.380 . S
C438 C441 1.374 . S
C438 C444 1.507 . S
C439 C440 1.384 . S
C439 C443 1.387 . S
C439 H466 0.930 . S
C440 C438 1.380 . S
C440 C439 1.384 . S
C440 H467 0.931 . S
C441 C438 1.374 . S
C441 C442 1.390 . S
C441 H468 0.930 . S
C442 C441 1.390 . S
C442 C443 1.391 . S
C442 H469 0.930 . S
C443 C439 1.387 . S
C443 C442 1.391 . S
C444 Tb434 2.825 . S
C444 C438 1.507 . S
C444 O457 1.238 . S
C444 O458 1.247 . S
O445 Tb434 2.347 . S
O445 C449 1.259 . S
O446 Eu435 2.418 . S
O446 C449 1.265 . S
O447 Eu435 2.384 . S
O447 C456 1.255 . S
O448 Tb434 2.366 . S
O448 C456 1.265 . S
C449 O445 1.259 . S
C449 O446 1.265 . S
O450 Eu435 2.479 . S
O450 C465 1.238 . S
O451 Eu435 2.471 . S
O451 C465 1.247 . S
O452 Eu435 2.347 . S
O452 C436 1.259 . S
O453 Tb434 2.418 . S
O453 C436 1.265 . S
O454 Tb434 2.384 . S
O454 C437 1.255 . S
O455 Eu435 2.366 . S
O455 C437 1.265 . S
C456 O447 1.255 . S
C456 O448 1.265 . S
O457 Tb434 2.479 . S
O457 C444 1.238 . S
O458 Tb434 2.471 . S
O458 C444 1.247 . S
C459 C462 1.380 . S
C459 C463 1.374 . S
C459 C465 1.507 . S
C460 C461 1.387 . S
C460 C464 1.391 . S
C461 C460 1.387 . S
C461 C462 1.384 . S
C461 H470 0.930 . S
C462 C459 1.380 . S
C462 C461 1.384 . S
C462 H471 0.931 . S
C463 C459 1.374 . S
C463 C464 1.390 . S
C463 H472 0.930 . S
C464 C460 1.391 . S
C464 C463 1.390 . S
C464 H473 0.930 . S
C465 Eu435 2.825 . S
C465 O450 1.238 . S
C465 O451 1.247 . S
C465 C459 1.507 . S
H466 C439 0.930 . S
H467 C440 0.931 . S
H468 C441 0.930 . S
H469 C442 0.930 . S
H470 C461 0.930 . S
H471 C462 0.931 . S
H472 C463 0.930 . S
H473 C464 0.930 . S
Tb474 C484 2.825 . S
Tb474 O485 2.347 . S
Tb474 O488 2.366 . S
Tb474 O493 2.418 . S
Tb474 O494 2.384 . S
Tb474 O497 2.479 . S
Tb474 O498 2.471 . S
Eu475 O486 2.418 . S
Eu475 O487 2.384 . S
Eu475 O490 2.479 . S
Eu475 O491 2.471 . S
Eu475 O492 2.347 . S
Eu475 O495 2.366 . S
Eu475 C505 2.825 . S
C476 O492 1.259 . S
C476 O493 1.265 . S
C477 O494 1.255 . S
C477 O495 1.265 . S
C478 C480 1.380 . S
C478 C481 1.374 . S
C478 C484 1.507 . S
C479 C480 1.384 . S
C479 C483 1.387 . S
C479 H506 0.930 . S
C480 C478 1.380 . S
C480 C479 1.384 . S
C480 H507 0.931 . S
C481 C478 1.374 . S
C481 C482 1.390 . S
C481 H508 0.930 . S
C482 C481 1.390 . S
C482 C483 1.391 . S
C482 H509 0.930 . S
C483 C479 1.387 . S
C483 C482 1.391 . S
C484 Tb474 2.825 . S
C484 C478 1.507 . S
C484 O497 1.238 . S
C484 O498 1.247 . S
O485 Tb474 2.347 . S
O485 C489 1.259 . S
O486 Eu475 2.418 . S
O486 C489 1.265 . S
O487 Eu475 2.384 . S
O487 C496 1.255 . S
O488 Tb474 2.366 . S
O488 C496 1.265 . S
C489 O485 1.259 . S
C489 O486 1.265 . S
O490 Eu475 2.479 . S
O490 C505 1.238 . S
O491 Eu475 2.471 . S
O491 C505 1.247 . S
O492 Eu475 2.347 . S
O492 C476 1.259 . S
O493 Tb474 2.418 . S
O493 C476 1.265 . S
O494 Tb474 2.384 . S
O494 C477 1.255 . S
O495 Eu475 2.366 . S
O495 C477 1.265 . S
C496 O487 1.255 . S
C496 O488 1.265 . S
O497 Tb474 2.479 . S
O497 C484 1.238 . S
O498 Tb474 2.471 . S
O498 C484 1.247 . S
C499 C502 1.380 . S
C499 C503 1.374 . S
C499 C505 1.507 . S
C500 C501 1.387 . S
C500 C504 1.391 . S
C501 C500 1.387 . S
C501 C502 1.384 . S
C501 H510 0.930 . S
C502 C499 1.380 . S
C502 C501 1.384 . S
C502 H511 0.931 . S
C503 C499 1.374 . S
C503 C504 1.390 . S
C503 H512 0.930 . S
C504 C500 1.391 . S
C504 C503 1.390 . S
C504 H513 0.930 . S
C505 Eu475 2.825 . S
C505 O490 1.238 . S
C505 O491 1.247 . S
C505 C499 1.507 . S
H506 C479 0.930 . S
H507 C480 0.931 . S
H508 C481 0.930 . S
H509 C482 0.930 . S
H510 C501 0.930 . S
H511 C502 0.931 . S
H512 C503 0.930 . S
H513 C504 0.930 . S
Tb514 C524 2.825 . S
Tb514 O525 2.347 . S
Tb514 O528 2.366 . S
Tb514 O533 2.418 . S
Tb514 O534 2.384 . S
Tb514 O537 2.479 . S
Tb514 O538 2.471 . S
Eu515 O526 2.418 . S
Eu515 O527 2.384 . S
Eu515 O530 2.479 . S
Eu515 O531 2.471 . S
Eu515 O532 2.347 . S
Eu515 O535 2.366 . S
Eu515 C545 2.825 . S
C516 O532 1.259 . S
C516 O533 1.265 . S
C517 O534 1.255 . S
C517 O535 1.265 . S
C518 C520 1.380 . S
C518 C521 1.374 . S
C518 C524 1.507 . S
C519 C520 1.384 . S
C519 C523 1.387 . S
C519 H546 0.930 . S
C520 C518 1.380 . S
C520 C519 1.384 . S
C520 H547 0.931 . S
C521 C518 1.374 . S
C521 C522 1.390 . S
C521 H548 0.930 . S
C522 C521 1.390 . S
C522 C523 1.391 . S
C522 H549 0.930 . S
C523 C519 1.387 . S
C523 C522 1.391 . S
C524 Tb514 2.825 . S
C524 C518 1.507 . S
C524 O537 1.238 . S
C524 O538 1.247 . S
O525 Tb514 2.347 . S
O525 C529 1.259 . S
O526 Eu515 2.418 . S
O526 C529 1.265 . S
O527 Eu515 2.384 . S
O527 C536 1.255 . S
O528 Tb514 2.366 . S
O528 C536 1.265 . S
C529 O525 1.259 . S
C529 O526 1.265 . S
O530 Eu515 2.479 . S
O530 C545 1.238 . S
O531 Eu515 2.471 . S
O531 C545 1.247 . S
O532 Eu515 2.347 . S
O532 C516 1.259 . S
O533 Tb514 2.418 . S
O533 C516 1.265 . S
O534 Tb514 2.384 . S
O534 C517 1.255 . S
O535 Eu515 2.366 . S
O535 C517 1.265 . S
C536 O527 1.255 . S
C536 O528 1.265 . S
O537 Tb514 2.479 . S
O537 C524 1.238 . S
O538 Tb514 2.471 . S
O538 C524 1.247 . S
C539 C542 1.380 . S
C539 C543 1.374 . S
C539 C545 1.507 . S
C540 C541 1.387 . S
C540 C544 1.391 . S
C541 C540 1.387 . S
C541 C542 1.384 . S
C541 H550 0.930 . S
C542 C539 1.380 . S
C542 C541 1.384 . S
C542 H551 0.931 . S
C543 C539 1.374 . S
C543 C544 1.390 . S
C543 H552 0.930 . S
C544 C540 1.391 . S
C544 C543 1.390 . S
C544 H553 0.930 . S
C545 Eu515 2.825 . S
C545 O530 1.238 . S
C545 O531 1.247 . S
C545 C539 1.507 . S
H546 C519 0.930 . S
H547 C520 0.931 . S
H548 C521 0.930 . S
H549 C522 0.930 . S
H550 C541 0.930 . S
H551 C542 0.931 . S
H552 C543 0.930 . S
H553 C544 0.930 . S
Tb554 C564 2.825 . S
Tb554 O565 2.347 . S
Tb554 O568 2.366 . S
Tb554 O573 2.418 . S
Tb554 O574 2.384 . S
Tb554 O577 2.479 . S
Tb554 O578 2.471 . S
Eu555 O566 2.418 . S
Eu555 O567 2.384 . S
Eu555 O570 2.479 . S
Eu555 O571 2.471 . S
Eu555 O572 2.347 . S
Eu555 O575 2.366 . S
Eu555 C585 2.825 . S
C556 O572 1.259 . S
C556 O573 1.265 . S
C557 O574 1.255 . S
C557 O575 1.265 . S
C558 C560 1.380 . S
C558 C561 1.374 . S
C558 C564 1.507 . S
C559 C560 1.384 . S
C559 C563 1.387 . S
C559 H586 0.930 . S
C560 C558 1.380 . S
C560 C559 1.384 . S
C560 H587 0.931 . S
C561 C558 1.374 . S
C561 C562 1.390 . S
C561 H588 0.930 . S
C562 C561 1.390 . S
C562 C563 1.391 . S
C562 H589 0.930 . S
C563 C559 1.387 . S
C563 C562 1.391 . S
C564 Tb554 2.825 . S
C564 C558 1.507 . S
C564 O577 1.238 . S
C564 O578 1.247 . S
O565 Tb554 2.347 . S
O565 C569 1.259 . S
O566 Eu555 2.418 . S
O566 C569 1.265 . S
O567 Eu555 2.384 . S
O567 C576 1.255 . S
O568 Tb554 2.366 . S
O568 C576 1.265 . S
C569 O565 1.259 . S
C569 O566 1.265 . S
O570 Eu555 2.479 . S
O570 C585 1.238 . S
O571 Eu555 2.471 . S
O571 C585 1.247 . S
O572 Eu555 2.347 . S
O572 C556 1.259 . S
O573 Tb554 2.418 . S
O573 C556 1.265 . S
O574 Tb554 2.384 . S
O574 C557 1.255 . S
O575 Eu555 2.366 . S
O575 C557 1.265 . S
C576 O567 1.255 . S
C576 O568 1.265 . S
O577 Tb554 2.479 . S
O577 C564 1.238 . S
O578 Tb554 2.471 . S
O578 C564 1.247 . S
C579 C582 1.380 . S
C579 C583 1.374 . S
C579 C585 1.507 . S
C580 C581 1.387 . S
C580 C584 1.391 . S
C581 C580 1.387 . S
C581 C582 1.384 . S
C581 H590 0.930 . S
C582 C579 1.380 . S
C582 C581 1.384 . S
C582 H591 0.931 . S
C583 C579 1.374 . S
C583 C584 1.390 . S
C583 H592 0.930 . S
C584 C580 1.391 . S
C584 C583 1.390 . S
C584 H593 0.930 . S
C585 Eu555 2.825 . S
C585 O570 1.238 . S
C585 O571 1.247 . S
C585 C579 1.507 . S
H586 C559 0.930 . S
H587 C560 0.931 . S
H588 C561 0.930 . S
H589 C562 0.930 . S
H590 C581 0.930 . S
H591 C582 0.931 . S
H592 C583 0.930 . S
H593 C584 0.930 . S
C594 C595 1.363 . S
C594 C600 1.379 . S
C594 N602 1.356 . S
C595 C594 1.363 . S
C595 C601 1.363 . S
C596 C597 1.363 . S
C596 C601 1.379 . S
C596 N603 1.356 . S
C597 C596 1.363 . S
C597 C600 1.363 . S
N598 C600 1.356 . S
N598 H610 0.984 1_554 S
N598 H611 0.985 . S
N599 C601 1.356 . S
N599 H604 0.984 . S
N599 H605 0.985 . S
C600 C594 1.379 . S
C600 C597 1.363 . S
C600 N598 1.356 . S
C601 C595 1.363 . S
C601 C596 1.379 . S
C601 N599 1.356 . S
N602 C594 1.356 . S
N602 H608 0.984 . S
N602 H609 0.984 . S
N603 C596 1.356 . S
N603 H606 0.984 . S
N603 H607 0.985 . S
H604 N599 0.984 . S
H605 N599 0.985 . S
H606 N603 0.984 . S
H607 N603 0.985 . S
H608 N602 0.984 . S
H609 N602 0.984 . S
H610 N598 0.984 1_556 S
H611 N598 0.985 . S
C612 C613 1.363 . S
C612 C618 1.379 . S
C612 N620 1.356 . S
C613 C612 1.363 . S
C613 C619 1.363 . S
C614 C615 1.363 . S
C614 C619 1.379 . S
C614 N621 1.356 . S
C615 C614 1.363 . S
C615 C618 1.363 . S
N616 C618 1.356 . S
N616 H628 0.984 . S
N616 H629 0.985 . S
N617 C619 1.356 . S
N617 H622 0.984 . S
N617 H623 0.985 . S
C618 C612 1.379 . S
C618 C615 1.363 . S
C618 N616 1.356 . S
C619 C613 1.363 . S
C619 C614 1.379 . S
C619 N617 1.356 . S
N620 C612 1.356 . S
N620 H626 0.984 . S
N620 H627 0.984 . S
N621 C614 1.356 . S
N621 H624 0.984 . S
N621 H625 0.985 . S
H622 N617 0.984 . S
H623 N617 0.985 . S
H624 N621 0.984 . S
H625 N621 0.985 . S
H626 N620 0.984 . S
H627 N620 0.984 . S
H628 N616 0.984 . S
H629 N616 0.985 . S
C630 C631 1.363 . S
C630 C636 1.379 . S
C630 N638 1.356 . S
C631 C630 1.363 . S
C631 C637 1.363 . S
C632 C633 1.363 . S
C632 C637 1.379 . S
C632 N639 1.356 1_554 S
C633 C632 1.363 . S
C633 C636 1.363 . S
N634 C636 1.356 . S
N634 H646 0.984 . S
N634 H647 0.985 . S
N635 C637 1.356 1_556 S
N635 H640 0.984 . S
N635 H641 0.985 . S
C636 C630 1.379 . S
C636 C633 1.363 . S
C636 N634 1.356 . S
C637 C631 1.363 . S
C637 C632 1.379 . S
C637 N635 1.356 1_554 S
N638 C630 1.356 . S
N638 H644 0.984 . S
N638 H645 0.984 . S
N639 C632 1.356 1_556 S
N639 H642 0.984 . S
N639 H643 0.985 . S
H640 N635 0.984 . S
H641 N635 0.985 . S
H642 N639 0.984 . S
H643 N639 0.985 . S
H644 N638 0.984 . S
H645 N638 0.984 . S
H646 N634 0.984 . S
H647 N634 0.985 . S
C648 C649 1.363 1_554 S
C648 C654 1.379 . S
C648 N656 1.356 . S
C649 C648 1.363 1_556 S
C649 C655 1.363 . S
C650 C651 1.363 . S
C650 C655 1.379 . S
C650 N657 1.356 . S
C651 C650 1.363 . S
C651 C654 1.363 1_556 S
N652 C654 1.356 . S
N652 H664 0.984 . S
N652 H665 0.985 . S
N653 C655 1.356 . S
N653 H658 0.984 . S
N653 H659 0.985 . S
C654 C648 1.379 . S
C654 C651 1.363 1_554 S
C654 N652 1.356 . S
C655 C649 1.363 . S
C655 C650 1.379 . S
C655 N653 1.356 . S
N656 C648 1.356 . S
N656 H662 0.984 . S
N656 H663 0.984 . S
N657 C650 1.356 . S
N657 H660 0.984 . S
N657 H661 0.985 . S
H658 N653 0.984 . S
H659 N653 0.985 . S
H660 N657 0.984 . S
H661 N657 0.985 . S
H662 N656 0.984 . S
H663 N656 0.984 . S
H664 N652 0.984 . S
H665 N652 0.985 . S
C666 C667 1.363 . S
C666 C672 1.379 . S
C666 N674 1.356 . S
C667 C666 1.363 . S
C667 C673 1.363 . S
C668 C669 1.363 . S
C668 C673 1.379 . S
C668 N675 1.356 . S
C669 C668 1.363 . S
C669 C672 1.363 . S
N670 C672 1.356 1_554 S
N670 H682 0.984 . S
N670 H683 0.985 . S
N671 C673 1.356 . S
N671 H676 0.984 . S
N671 H677 0.985 . S
C672 C666 1.379 . S
C672 C669 1.363 . S
C672 N670 1.356 1_556 S
C673 C667 1.363 . S
C673 C668 1.379 . S
C673 N671 1.356 . S
N674 C666 1.356 . S
N674 H680 0.984 1_556 S
N674 H681 0.984 . S
N675 C668 1.356 . S
N675 H678 0.984 . S
N675 H679 0.985 . S
H676 N671 0.984 . S
H677 N671 0.985 . S
H678 N675 0.984 . S
H679 N675 0.985 . S
H680 N674 0.984 1_554 S
H681 N674 0.984 . S
H682 N670 0.984 . S
H683 N670 0.985 . S
C684 C685 1.363 . S
C684 C690 1.379 . S
C684 N692 1.356 . S
C685 C684 1.363 . S
C685 C691 1.363 . S
C686 C687 1.363 . S
C686 C691 1.379 . S
C686 N693 1.356 . S
C687 C686 1.363 . S
C687 C690 1.363 . S
N688 C690 1.356 1_554 S
N688 H700 0.984 . S
N688 H701 0.985 . S
N689 C691 1.356 . S
N689 H694 0.984 . S
N689 H695 0.985 . S
C690 C684 1.379 . S
C690 C687 1.363 . S
C690 N688 1.356 1_556 S
C691 C685 1.363 . S
C691 C686 1.379 . S
C691 N689 1.356 . S
N692 C684 1.356 . S
N692 H698 0.984 . S
N692 H699 0.984 . S
N693 C686 1.356 . S
N693 H696 0.984 . S
N693 H697 0.985 . S
H694 N689 0.984 . S
H695 N689 0.985 . S
H696 N693 0.984 . S
H697 N693 0.985 . S
H698 N692 0.984 . S
H699 N692 0.984 . S
H700 N688 0.984 . S
H701 N688 0.985 . S
C702 C703 1.363 . S
C702 C708 1.379 . S
C702 N710 1.356 . S
C703 C702 1.363 . S
C703 C709 1.323 1_556 S
C704 C705 1.363 1_554 S
C704 C709 1.389 . S
C704 N711 1.356 . S
C705 C704 1.363 1_556 S
C705 C708 1.363 . S
N706 C708 1.356 . S
N706 H718 0.984 . S
N706 H719 0.985 . S
N707 C709 1.378 . S
N707 H712 0.984 . S
N707 H713 0.985 . S
C708 C702 1.379 . S
C708 C705 1.363 . S
C708 N706 1.356 . S
C709 C703 1.323 1_554 S
C709 C704 1.389 . S
C709 N707 1.378 . S
N710 C702 1.356 . S
N710 H716 0.984 . S
N710 H717 0.984 . S
N711 C704 1.356 . S
N711 H714 0.984 . S
N711 H715 0.985 . S
H712 N707 0.984 . S
H713 N707 0.985 . S
H714 N711 0.984 . S
H715 N711 0.985 . S
H716 N710 0.984 . S
H717 N710 0.984 . S
H718 N706 0.984 . S
H719 N706 0.985 . S
C720 C721 1.363 . S
C720 C726 1.379 . S
C720 N728 1.356 . S
C721 C720 1.363 . S
C721 C727 1.363 . S
C722 C723 1.363 . S
C722 C727 1.379 . S
C722 N729 1.356 . S
C723 C722 1.363 . S
C723 C726 1.363 . S
N724 C726 1.356 . S
N724 H736 0.984 . S
N724 H737 0.985 . S
N725 C727 1.356 . S
N725 H730 0.984 . S
N725 H731 0.985 . S
C726 C720 1.379 . S
C726 C723 1.363 . S
C726 N724 1.356 . S
C727 C721 1.363 . S
C727 C722 1.379 . S
C727 N725 1.356 . S
N728 C720 1.356 . S
N728 H734 0.984 . S
N728 H735 0.984 . S
N729 C722 1.356 . S
N729 H732 0.984 . S
N729 H733 0.985 . S
H730 N725 0.984 . S
H731 N725 0.985 . S
H732 N729 0.984 . S
H733 N729 0.985 . S
H734 N728 0.984 . S
H735 N728 0.984 . S
H736 N724 0.984 . S
H737 N724 0.985 . S
C738 C739 1.363 . S
C738 C744 1.379 . S
C738 N746 1.356 . S
C739 C738 1.363 . S
C739 C745 1.363 1_556 S
C740 C741 1.363 . S
C740 C745 1.379 . S
C740 N747 1.356 . S
C741 C740 1.363 . S
C741 C744 1.363 1_554 S
N742 C744 1.356 . S
N742 H754 0.984 . S
N742 H755 0.985 . S
N743 C745 1.356 . S
N743 H748 0.984 . S
N743 H749 0.985 . S
C744 C738 1.379 . S
C744 C741 1.363 1_556 S
C744 N742 1.356 . S
C745 C739 1.363 1_554 S
C745 C740 1.379 . S
C745 N743 1.356 . S
N746 C738 1.356 . S
N746 H752 0.984 . S
N746 H753 0.984 . S
N747 C740 1.356 . S
N747 H750 0.984 . S
N747 H751 0.985 . S
H748 N743 0.984 . S
H749 N743 0.985 . S
H750 N747 0.984 . S
H751 N747 0.985 . S
H752 N746 0.984 . S
H753 N746 0.984 . S
H754 N742 0.984 . S
H755 N742 0.985 . S
C756 C757 1.363 . S
C756 C762 1.379 . S
C756 N764 1.356 . S
C757 C756 1.363 . S
C757 C763 1.363 . S
C758 C759 1.363 . S
C758 C763 1.379 . S
C758 N765 1.356 1_554 S
C759 C758 1.363 . S
C759 C762 1.363 . S
N760 C762 1.356 . S
N760 H772 0.984 . S
N760 H773 0.985 . S
N761 C763 1.356 . S
N761 H766 0.984 . S
N761 H767 0.985 1_554 S
C762 C756 1.379 . S
C762 C759 1.363 . S
C762 N760 1.356 . S
C763 C757 1.363 . S
C763 C758 1.379 . S
C763 N761 1.356 . S
N764 C756 1.356 . S
N764 H770 0.984 . S
N764 H771 0.984 . S
N765 C758 1.356 1_556 S
N765 H768 0.984 . S
N765 H769 0.985 . S
H766 N761 0.984 . S
H767 N761 0.985 1_556 S
H768 N765 0.984 . S
H769 N765 0.985 . S
H770 N764 0.984 . S
H771 N764 0.984 . S
H772 N760 0.984 . S
H773 N760 0.985 . S
C774 C775 1.363 . S
C774 C780 1.379 . S
C774 N782 1.356 . S
C775 C774 1.363 . S
C775 C781 1.363 . S
C776 C777 1.363 . S
C776 C781 1.379 . S
C776 N783 1.356 . S
C777 C776 1.363 . S
C777 C780 1.363 . S
N778 C780 1.356 . S
N778 H790 0.984 . S
N778 H791 0.985 . S
N779 C781 1.356 . S
N779 H784 0.984 . S
N779 H785 0.985 . S
C780 C774 1.379 . S
C780 C777 1.363 . S
C780 N778 1.356 . S
C781 C775 1.363 . S
C781 C776 1.379 . S
C781 N779 1.356 . S
N782 C774 1.356 . S
N782 H788 0.984 . S
N782 H789 0.984 . S
N783 C776 1.356 . S
N783 H786 0.984 . S
N783 H787 0.985 . S
H784 N779 0.984 . S
H785 N779 0.985 . S
H786 N783 0.984 . S
H787 N783 0.985 . S
H788 N782 0.984 . S
H789 N782 0.984 . S
H790 N778 0.984 . S
H791 N778 0.985 . S
C792 C793 1.363 . S
C792 C798 1.379 . S
C792 N800 1.356 1_554 S
C793 C792 1.363 . S
C793 C799 1.363 . S
C794 C795 1.363 . S
C794 C799 1.379 . S
C794 N801 1.356 . S
C795 C794 1.363 . S
C795 C798 1.363 . S
N796 C798 1.356 1_556 S
N796 H808 0.984 . S
N796 H809 0.985 . S
N797 C799 1.356 . S
N797 H802 0.984 . S
N797 H803 0.985 . S
C798 C792 1.379 . S
C798 C795 1.363 . S
C798 N796 1.356 1_554 S
C799 C793 1.363 . S
C799 C794 1.379 . S
C799 N797 1.356 . S
N800 C792 1.356 1_556 S
N800 H806 0.984 . S
N800 H807 0.984 1_556 S
N801 C794 1.356 . S
N801 H804 0.984 . S
N801 H805 0.985 . S
H802 N797 0.984 . S
H803 N797 0.985 . S
H804 N801 0.984 . S
H805 N801 0.985 . S
H806 N800 0.984 . S
H807 N800 0.984 1_554 S
H808 N796 0.984 . S
H809 N796 0.985 . S
C810 C811 1.363 . S
C810 C816 1.379 1_655 S
C810 N818 1.356 . S
C811 C810 1.363 . S
C811 C817 1.363 . S
C812 C813 1.363 . S
C812 C817 1.379 1_455 S
C812 N819 1.356 . S
C813 C812 1.363 . S
C813 C816 1.363 . S
N814 C816 1.356 . S
N814 H826 0.984 . S
N814 H827 0.985 . S
N815 C817 1.356 . S
N815 H820 0.984 . S
N815 H821 0.985 . S
C816 C810 1.379 1_455 S
C816 C813 1.363 . S
C816 N814 1.356 . S
C817 C811 1.363 . S
C817 C812 1.379 1_655 S
C817 N815 1.356 . S
N818 C810 1.356 . S
N818 H824 0.984 . S
N818 H825 0.984 . S
N819 C812 1.356 . S
N819 H822 0.984 . S
N819 H823 0.985 . S
H820 N815 0.984 . S
H821 N815 0.985 . S
H822 N819 0.984 . S
H823 N819 0.985 . S
H824 N818 0.984 . S
H825 N818 0.984 . S
H826 N814 0.984 . S
H827 N814 0.985 . S
C828 C829 1.363 . S
C828 C834 1.379 . S
C828 N836 1.356 . S
C829 C828 1.363 . S
C829 C835 1.363 . S
C830 C831 1.363 . S
C830 C835 1.379 . S
C830 N837 1.356 . S
C831 C830 1.363 . S
C831 C834 1.363 . S
N832 C834 1.356 . S
N832 H844 0.984 . S
N832 H845 0.985 . S
N833 C835 1.356 . S
N833 H838 0.984 . S
N833 H839 0.985 . S
C834 C828 1.379 . S
C834 C831 1.363 . S
C834 N832 1.356 . S
C835 C829 1.363 . S
C835 C830 1.379 . S
C835 N833 1.356 . S
N836 C828 1.356 . S
N836 H842 0.984 . S
N836 H843 0.984 . S
N837 C830 1.356 . S
N837 H840 0.984 . S
N837 H841 0.985 . S
H838 N833 0.984 . S
H839 N833 0.985 . S
H840 N837 0.984 . S
H841 N837 0.985 . S
H842 N836 0.984 . S
H843 N836 0.984 . S
H844 N832 0.984 . S
H845 N832 0.985 . S
C846 C847 1.363 . S
C846 C852 1.379 1_545 S
C846 N854 1.356 . S
C847 C846 1.363 . S
C847 C853 1.363 . S
C848 C849 1.363 . S
C848 C853 1.379 1_565 S
C848 N855 1.356 . S
C849 C848 1.363 . S
C849 C852 1.363 . S
N850 C852 1.356 . S
N850 H862 0.984 . S
N850 H863 0.985 . S
N851 C853 1.356 . S
N851 H856 0.984 . S
N851 H857 0.985 . S
C852 C846 1.379 1_565 S
C852 C849 1.363 . S
C852 N850 1.356 . S
C853 C847 1.363 . S
C853 C848 1.379 1_545 S
C853 N851 1.356 . S
N854 C846 1.356 . S
N854 H860 0.984 . S
N854 H861 0.984 . S
N855 C848 1.356 . S
N855 H858 0.984 . S
N855 H859 0.985 . S
H856 N851 0.984 . S
H857 N851 0.985 . S
H858 N855 0.984 . S
H859 N855 0.985 . S
H860 N854 0.984 . S
H861 N854 0.984 . S
H862 N850 0.984 . S
H863 N850 0.985 . S
C864 C865 1.363 . S
C864 C870 1.379 . S
C864 N872 1.356 . S
C865 C864 1.363 . S
C865 C871 1.363 . S
C866 C867 1.363 . S
C866 C871 1.379 . S
C866 N873 1.356 . S
C867 C866 1.363 . S
C867 C870 1.363 . S
N868 C870 1.356 . S
N868 H880 0.984 . S
N868 H881 0.985 . S
N869 C871 1.356 . S
N869 H874 0.984 . S
N869 H875 0.985 . S
C870 C864 1.379 . S
C870 C867 1.363 . S
C870 N868 1.356 . S
C871 C865 1.363 . S
C871 C866 1.379 . S
C871 N869 1.356 . S
N872 C864 1.356 . S
N872 H878 0.984 . S
N872 H879 0.984 . S
N873 C866 1.356 . S
N873 H876 0.984 . S
N873 H877 0.985 . S
H874 N869 0.984 . S
H875 N869 0.985 . S
H876 N873 0.984 . S
H877 N873 0.985 . S
H878 N872 0.984 . S
H879 N872 0.984 . S
H880 N868 0.984 . S
H881 N868 0.985 . S
C882 C883 1.363 . S
C882 C888 1.379 . S
C882 N890 1.356 . S
C883 C882 1.363 . S
C883 C889 1.363 . S
C884 C885 1.363 . S
C884 C889 1.379 . S
C884 N891 1.356 . S
C885 C884 1.363 . S
C885 C888 1.363 . S
N886 C888 1.356 . S
N886 H898 0.984 . S
N886 H899 0.985 . S
N887 C889 1.356 . S
N887 H892 0.984 . S
N887 H893 0.985 . S
C888 C882 1.379 . S
C888 C885 1.363 . S
C888 N886 1.356 . S
C889 C883 1.363 . S
C889 C884 1.379 . S
C889 N887 1.356 . S
N890 C882 1.356 . S
N890 H896 0.984 . S
N890 H897 0.984 . S
N891 C884 1.356 . S
N891 H894 0.984 . S
N891 H895 0.985 . S
H892 N887 0.984 . S
H893 N887 0.985 . S
H894 N891 0.984 . S
H895 N891 0.985 . S
H896 N890 0.984 . S
H897 N890 0.984 . S
H898 N886 0.984 . S
H899 N886 0.985 . S
C900 C901 1.363 . S
C900 C906 1.379 . S
C900 N908 1.356 . S
C901 C900 1.363 . S
C901 C907 1.363 . S
C902 C903 1.363 . S
C902 C907 1.379 . S
C902 N909 1.356 . S
C903 C902 1.363 . S
C903 C906 1.363 . S
N904 C906 1.356 . S
N904 H916 0.984 . S
N904 H917 0.985 . S
N905 C907 1.356 . S
N905 H910 0.984 . S
N905 H911 0.985 . S
C906 C900 1.379 . S
C906 C903 1.363 . S
C906 N904 1.356 . S
C907 C901 1.363 . S
C907 C902 1.379 . S
C907 N905 1.356 . S
N908 C900 1.356 . S
N908 H914 0.984 . S
N908 H915 0.984 . S
N909 C902 1.356 . S
N909 H912 0.984 . S
N909 H913 0.985 . S
H910 N905 0.984 . S
H911 N905 0.985 . S
H912 N909 0.984 . S
H913 N909 0.985 . S
H914 N908 0.984 . S
H915 N908 0.984 . S
H916 N904 0.984 . S
H917 N904 0.985 . S
C918 C919 1.363 . S
C918 C924 1.379 . S
C918 N926 1.356 . S
C919 C918 1.363 . S
C919 C925 1.363 . S
C920 C921 1.363 . S
C920 C925 1.379 . S
C920 N927 1.356 . S
C921 C920 1.363 . S
C921 C924 1.363 . S
N922 C924 1.356 . S
N922 H934 0.984 . S
N922 H935 0.985 . S
N923 C925 1.356 . S
N923 H928 0.984 . S
N923 H929 0.985 . S
C924 C918 1.379 . S
C924 C921 1.363 . S
C924 N922 1.356 . S
C925 C919 1.363 . S
C925 C920 1.379 . S
C925 N923 1.356 . S
N926 C918 1.356 . S
N926 H932 0.984 . S
N926 H933 0.984 . S
N927 C920 1.356 . S
N927 H930 0.984 . S
N927 H931 0.985 . S
H928 N923 0.984 . S
H929 N923 0.985 . S
H930 N927 0.984 . S
H931 N927 0.985 . S
H932 N926 0.984 . S
H933 N926 0.984 . S
H934 N922 0.984 . S
H935 N922 0.985 . S
C936 C937 1.363 . S
C936 C942 1.379 . S
C936 N944 1.356 . S
C937 C936 1.363 . S
C937 C943 1.363 . S
C938 C939 1.363 . S
C938 C943 1.379 . S
C938 N945 1.356 . S
C939 C938 1.363 . S
C939 C942 1.363 . S
N940 C942 1.356 . S
N940 H952 0.984 . S
N940 H953 0.985 . S
N941 C943 1.356 . S
N941 H946 0.984 . S
N941 H947 0.985 . S
C942 C936 1.379 . S
C942 C939 1.363 . S
C942 N940 1.356 . S
C943 C937 1.363 . S
C943 C938 1.379 . S
C943 N941 1.356 . S
N944 C936 1.356 . S
N944 H950 0.984 . S
N944 H951 0.984 . S
N945 C938 1.356 . S
N945 H948 0.984 . S
N945 H949 0.985 . S
H946 N941 0.984 . S
H947 N941 0.985 . S
H948 N945 0.984 . S
H949 N945 0.985 . S
H950 N944 0.984 . S
H951 N944 0.984 . S
H952 N940 0.984 . S
H953 N940 0.985 . S
C954 C955 1.363 . S
C954 C960 1.379 . S
C954 N962 1.356 . S
C955 C954 1.363 . S
C955 C961 1.363 . S
C956 C957 1.363 . S
C956 C961 1.379 . S
C956 N963 1.356 . S
C957 C956 1.363 . S
C957 C960 1.363 . S
N958 C960 1.356 . S
N958 H970 0.984 . S
N958 H971 0.985 . S
N959 C961 1.356 . S
N959 H964 0.984 . S
N959 H965 0.985 . S
C960 C954 1.379 . S
C960 C957 1.363 . S
C960 N958 1.356 . S
C961 C955 1.363 . S
C961 C956 1.379 . S
C961 N959 1.356 . S
N962 C954 1.356 . S
N962 H968 0.984 . S
N962 H969 0.984 . S
N963 C956 1.356 . S
N963 H966 0.984 . S
N963 H967 0.985 . S
H964 N959 0.984 . S
H965 N959 0.985 . S
H966 N963 0.984 . S
H967 N963 0.985 . S
H968 N962 0.984 . S
H969 N962 0.984 . S
H970 N958 0.984 . S
H971 N958 0.985 . S
C972 C973 1.363 . S
C972 C978 1.379 . S
C972 N980 1.356 . S
C973 C972 1.363 . S
C973 C979 1.363 . S
C974 C975 1.363 . S
C974 C979 1.379 1_565 S
C974 N981 1.356 . S
C975 C974 1.363 . S
C975 C978 1.363 1_565 S
N976 C978 1.356 1_565 S
N976 H988 0.984 1_565 S
N976 H989 0.985 . S
N977 C979 1.356 . S
N977 H982 0.984 . S
N977 H983 0.985 . S
C978 C972 1.379 . S
C978 C975 1.363 1_545 S
C978 N976 1.356 1_545 S
C979 C973 1.363 . S
C979 C974 1.379 1_545 S
C979 N977 1.356 . S
N980 C972 1.356 . S
N980 H986 0.984 . S
N980 H987 0.984 . S
N981 C974 1.356 . S
N981 H984 0.984 . S
N981 H985 0.985 . S
H982 N977 0.984 . S
H983 N977 0.985 . S
H984 N981 0.984 . S
H985 N981 0.985 . S
H986 N980 0.984 . S
H987 N980 0.984 . S
H988 N976 0.984 1_545 S
H989 N976 0.985 . S
C990 C991 1.363 1_455 S
C990 C996 1.379 . S
C990 N998 1.356 1_455 S
C991 C990 1.363 1_655 S
C991 C997 1.363 . S
C992 C993 1.363 . S
C992 C997 1.379 1_455 S
C992 N999 1.356 . S
C993 C992 1.363 . S
C993 C996 1.363 . S
N994 C996 1.356 . S
N994 H1006 0.984 . S
N994 H1007 0.985 . S
N995 C997 1.356 . S
N995 H1000 0.984 . S
N995 H1001 0.985 . S
C996 C990 1.379 . S
C996 C993 1.363 . S
C996 N994 1.356 . S
C997 C991 1.363 . S
C997 C992 1.379 1_655 S
C997 N995 1.356 . S
N998 C990 1.356 1_655 S
N998 H1004 0.984 . S
N998 H1005 0.984 . S
N999 C992 1.356 . S
N999 H1002 0.984 . S
N999 H1003 0.985 . S
H1000 N995 0.984 . S
H1001 N995 0.985 . S
H1002 N999 0.984 . S
H1003 N999 0.985 . S
H1004 N998 0.984 . S
H1005 N998 0.984 . S
H1006 N994 0.984 . S
H1007 N994 0.985 . S
C1008 C1009 1.363 . S
C1008 C1014 1.379 . S
C1008 N1016 1.356 . S
C1009 C1008 1.363 . S
C1009 C1015 1.363 . S
C1010 C1011 1.363 . S
C1010 C1015 1.379 . S
C1010 N1017 1.356 . S
C1011 C1010 1.363 . S
C1011 C1014 1.363 . S
N1012 C1014 1.356 . S
N1012 H1024 0.984 . S
N1012 H1025 0.985 . S
N1013 C1015 1.356 . S
N1013 H1018 0.984 . S
N1013 H1019 0.985 . S
C1014 C1008 1.379 . S
C1014 C1011 1.363 . S
C1014 N1012 1.356 . S
C1015 C1009 1.363 . S
C1015 C1010 1.379 . S
C1015 N1013 1.356 . S
N1016 C1008 1.356 . S
N1016 H1022 0.984 . S
N1016 H1023 0.984 . S
N1017 C1010 1.356 . S
N1017 H1020 0.984 . S
N1017 H1021 0.985 . S
H1018 N1013 0.984 . S
H1019 N1013 0.985 . S
H1020 N1017 0.984 . S
H1021 N1017 0.985 . S
H1022 N1016 0.984 . S
H1023 N1016 0.984 . S
H1024 N1012 0.984 . S
H1025 N1012 0.985 . S
C1026 C1027 1.363 . S
C1026 C1032 1.379 . S
C1026 N1034 1.356 . S
C1027 C1026 1.363 . S
C1027 C1033 1.363 . S
C1028 C1029 1.363 . S
C1028 C1033 1.379 . S
C1028 N1035 1.356 . S
C1029 C1028 1.363 . S
C1029 C1032 1.363 . S
N1030 C1032 1.356 . S
N1030 H1042 0.984 . S
N1030 H1043 0.985 . S
N1031 C1033 1.356 . S
N1031 H1036 0.984 . S
N1031 H1037 0.985 . S
C1032 C1026 1.379 . S
C1032 C1029 1.363 . S
C1032 N1030 1.356 . S
C1033 C1027 1.363 . S
C1033 C1028 1.379 . S
C1033 N1031 1.356 . S
N1034 C1026 1.356 . S
N1034 H1040 0.984 . S
N1034 H1041 0.984 . S
N1035 C1028 1.356 . S
N1035 H1038 0.984 . S
N1035 H1039 0.985 . S
H1036 N1031 0.984 . S
H1037 N1031 0.985 . S
H1038 N1035 0.984 . S
H1039 N1035 0.985 . S
H1040 N1034 0.984 . S
H1041 N1034 0.984 . S
H1042 N1030 0.984 . S
H1043 N1030 0.985 . S
C1044 C1045 1.363 . S
C1044 C1050 1.379 . S
C1044 N1052 1.356 . S
C1045 C1044 1.363 . S
C1045 C1051 1.363 . S
C1046 C1047 1.363 . S
C1046 C1051 1.379 . S
C1046 N1053 1.356 . S
C1047 C1046 1.363 . S
C1047 C1050 1.363 . S
N1048 C1050 1.356 . S
N1048 H1060 0.984 . S
N1048 H1061 0.985 . S
N1049 C1051 1.356 . S
N1049 H1054 0.984 . S
N1049 H1055 0.985 . S
C1050 C1044 1.379 . S
C1050 C1047 1.363 . S
C1050 N1048 1.356 . S
C1051 C1045 1.363 . S
C1051 C1046 1.379 . S
C1051 N1049 1.356 . S
N1052 C1044 1.356 . S
N1052 H1058 0.984 . S
N1052 H1059 0.984 . S
N1053 C1046 1.356 . S
N1053 H1056 0.984 . S
N1053 H1057 0.985 . S
H1054 N1049 0.984 . S
H1055 N1049 0.985 . S
H1056 N1053 0.984 . S
H1057 N1053 0.985 . S
H1058 N1052 0.984 . S
H1059 N1052 0.984 . S
H1060 N1048 0.984 . S
H1061 N1048 0.985 . S
C1062 C1063 1.363 . S
C1062 C1068 1.379 . S
C1062 N1070 1.356 . S
C1063 C1062 1.363 . S
C1063 C1069 1.363 . S
C1064 C1065 1.363 . S
C1064 C1069 1.379 . S
C1064 N1071 1.356 . S
C1065 C1064 1.363 . S
C1065 C1068 1.363 . S
N1066 C1068 1.356 . S
N1066 H1078 0.984 . S
N1066 H1079 0.985 . S
N1067 C1069 1.356 . S
N1067 H1072 0.984 . S
N1067 H1073 0.985 . S
C1068 C1062 1.379 . S
C1068 C1065 1.363 . S
C1068 N1066 1.356 . S
C1069 C1063 1.363 . S
C1069 C1064 1.379 . S
C1069 N1067 1.356 . S
N1070 C1062 1.356 . S
N1070 H1076 0.984 . S
N1070 H1077 0.984 . S
N1071 C1064 1.356 . S
N1071 H1074 0.984 . S
N1071 H1075 0.985 . S
H1072 N1067 0.984 . S
H1073 N1067 0.985 . S
H1074 N1071 0.984 . S
H1075 N1071 0.985 . S
H1076 N1070 0.984 . S
H1077 N1070 0.984 . S
H1078 N1066 0.984 . S
H1079 N1066 0.985 . S
C1080 C1081 1.363 . S
C1080 C1086 1.379 1_565 S
C1080 N1088 1.356 . S
C1081 C1080 1.363 . S
C1081 C1087 1.363 . S
C1082 C1083 1.363 . S
C1082 C1087 1.379 1_545 S
C1082 N1089 1.356 . S
C1083 C1082 1.363 . S
C1083 C1086 1.363 . S
N1084 C1086 1.356 . S
N1084 H1096 0.984 . S
N1084 H1097 0.985 . S
N1085 C1087 1.356 . S
N1085 H1090 0.984 . S
N1085 H1091 0.985 . S
C1086 C1080 1.379 1_545 S
C1086 C1083 1.363 . S
C1086 N1084 1.356 . S
C1087 C1081 1.363 . S
C1087 C1082 1.379 1_565 S
C1087 N1085 1.356 . S
N1088 C1080 1.356 . S
N1088 H1094 0.984 . S
N1088 H1095 0.984 . S
N1089 C1082 1.356 . S
N1089 H1092 0.984 . S
N1089 H1093 0.985 . S
H1090 N1085 0.984 . S
H1091 N1085 0.985 . S
H1092 N1089 0.984 . S
H1093 N1089 0.985 . S
H1094 N1088 0.984 . S
H1095 N1088 0.984 . S
H1096 N1084 0.984 . S
H1097 N1084 0.985 . S
C1098 C1099 1.363 . S
C1098 C1104 1.379 1_455 S
C1098 N1106 1.356 . S
C1099 C1098 1.363 . S
C1099 C1105 1.363 1_455 S
C1100 C1101 1.363 . S
C1100 C1105 1.379 . S
C1100 N1107 1.356 . S
C1101 C1100 1.363 . S
C1101 C1104 1.363 . S
N1102 C1104 1.356 . S
N1102 H1114 0.984 . S
N1102 H1115 0.985 . S
N1103 C1105 1.356 . S
N1103 H1108 0.984 1_655 S
N1103 H1109 0.985 . S
C1104 C1098 1.379 1_655 S
C1104 C1101 1.363 . S
C1104 N1102 1.356 . S
C1105 C1099 1.363 1_655 S
C1105 C1100 1.379 . S
C1105 N1103 1.356 . S
N1106 C1098 1.356 . S
N1106 H1112 0.984 . S
N1106 H1113 0.984 . S
N1107 C1100 1.356 . S
N1107 H1110 0.984 . S
N1107 H1111 0.985 . S
H1108 N1103 0.984 1_455 S
H1109 N1103 0.985 . S
H1110 N1107 0.984 . S
H1111 N1107 0.985 . S
H1112 N1106 0.984 . S
H1113 N1106 0.984 . S
H1114 N1102 0.984 . S
H1115 N1102 0.985 . S
C1116 C1117 1.363 . S
C1116 C1122 1.379 . S
C1116 N1124 1.356 . S
C1117 C1116 1.363 . S
C1117 C1123 1.363 . S
C1118 C1119 1.363 . S
C1118 C1123 1.379 . S
C1118 N1125 1.356 . S
C1119 C1118 1.363 . S
C1119 C1122 1.363 . S
N1120 C1122 1.356 . S
N1120 H1132 0.984 . S
N1120 H1133 0.985 . S
N1121 C1123 1.356 . S
N1121 H1126 0.984 . S
N1121 H1127 0.985 . S
C1122 C1116 1.379 . S
C1122 C1119 1.363 . S
C1122 N1120 1.356 . S
C1123 C1117 1.363 . S
C1123 C1118 1.379 . S
C1123 N1121 1.356 . S
N1124 C1116 1.356 . S
N1124 H1130 0.984 . S
N1124 H1131 0.984 . S
N1125 C1118 1.356 . S
N1125 H1128 0.984 . S
N1125 H1129 0.985 . S
H1126 N1121 0.984 . S
H1127 N1121 0.985 . S
H1128 N1125 0.984 . S
H1129 N1125 0.985 . S
H1130 N1124 0.984 . S
H1131 N1124 0.984 . S
H1132 N1120 0.984 . S
H1133 N1120 0.985 . S
C1134 C1135 1.363 . S
C1134 C1140 1.379 . S
C1134 N1142 1.356 . S
C1135 C1134 1.363 . S
C1135 C1141 1.363 . S
C1136 C1137 1.363 1_455 S
C1136 C1141 1.379 . S
C1136 N1143 1.356 1_455 S
C1137 C1136 1.363 1_655 S
C1137 C1140 1.363 1_655 S
N1138 C1140 1.356 . S
N1138 H1150 0.984 . S
N1138 H1151 0.985 1_455 S
N1139 C1141 1.356 . S
N1139 H1144 0.984 . S
N1139 H1145 0.985 . S
C1140 C1134 1.379 . S
C1140 C1137 1.363 1_455 S
C1140 N1138 1.356 . S
C1141 C1135 1.363 . S
C1141 C1136 1.379 . S
C1141 N1139 1.356 . S
N1142 C1134 1.356 . S
N1142 H1148 0.984 . S
N1142 H1149 0.984 . S
N1143 C1136 1.356 1_655 S
N1143 H1146 0.984 . S
N1143 H1147 0.985 . S
H1144 N1139 0.984 . S
H1145 N1139 0.985 . S
H1146 N1143 0.984 . S
H1147 N1143 0.985 . S
H1148 N1142 0.984 . S
H1149 N1142 0.984 . S
H1150 N1138 0.984 . S
H1151 N1138 0.985 1_655 S
C1152 C1153 1.363 . S
C1152 C1158 1.379 . S
C1152 N1160 1.356 . S
C1153 C1152 1.363 . S
C1153 C1159 1.363 . S
C1154 C1155 1.363 . S
C1154 C1159 1.379 . S
C1154 N1161 1.356 . S
C1155 C1154 1.363 . S
C1155 C1158 1.363 . S
N1156 C1158 1.356 . S
N1156 H1168 0.984 . S
N1156 H1169 0.985 . S
N1157 C1159 1.356 . S
N1157 H1162 0.984 . S
N1157 H1163 0.985 . S
C1158 C1152 1.379 . S
C1158 C1155 1.363 . S
C1158 N1156 1.356 . S
C1159 C1153 1.363 . S
C1159 C1154 1.379 . S
C1159 N1157 1.356 . S
N1160 C1152 1.356 . S
N1160 H1166 0.984 . S
N1160 H1167 0.984 . S
N1161 C1154 1.356 . S
N1161 H1164 0.984 . S
N1161 H1165 0.985 . S
H1162 N1157 0.984 . S
H1163 N1157 0.985 . S
H1164 N1161 0.984 . S
H1165 N1161 0.985 . S
H1166 N1160 0.984 . S
H1167 N1160 0.984 . S
H1168 N1156 0.984 . S
H1169 N1156 0.985 . S
C1170 C1171 1.363 . S
C1170 C1176 1.379 1_565 S
C1170 N1178 1.356 . S
C1171 C1170 1.363 . S
C1171 C1177 1.363 . S
C1172 C1173 1.363 1_565 S
C1172 C1177 1.379 . S
C1172 N1179 1.356 1_565 S
C1173 C1172 1.363 1_545 S
C1173 C1176 1.363 . S
N1174 C1176 1.356 . S
N1174 H1186 0.984 . S
N1174 H1187 0.985 . S
N1175 C1177 1.356 . S
N1175 H1180 0.984 . S
N1175 H1181 0.985 . S
C1176 C1170 1.379 1_545 S
C1176 C1173 1.363 . S
C1176 N1174 1.356 . S
C1177 C1171 1.363 . S
C1177 C1172 1.379 . S
C1177 N1175 1.356 . S
N1178 C1170 1.356 . S
N1178 H1184 0.984 . S
N1178 H1185 0.984 . S
N1179 C1172 1.356 1_545 S
N1179 H1182 0.984 . S
N1179 H1183 0.985 . S
H1180 N1175 0.984 . S
H1181 N1175 0.985 . S
H1182 N1179 0.984 . S
H1183 N1179 0.985 . S
H1184 N1178 0.984 . S
H1185 N1178 0.984 . S
H1186 N1174 0.984 . S
H1187 N1174 0.985 . S
C1188 C1189 1.363 . S
C1188 C1194 1.379 . S
C1188 N1196 1.356 . S
C1189 C1188 1.363 . S
C1189 C1195 1.363 . S
C1190 C1191 1.363 . S
C1190 C1195 1.379 . S
C1190 N1197 1.356 . S
C1191 C1190 1.363 . S
C1191 C1194 1.363 . S
N1192 C1194 1.356 . S
N1192 H1204 0.984 . S
N1192 H1205 0.985 . S
N1193 C1195 1.356 . S
N1193 H1198 0.984 . S
N1193 H1199 0.985 . S
C1194 C1188 1.379 . S
C1194 C1191 1.363 . S
C1194 N1192 1.356 . S
C1195 C1189 1.363 . S
C1195 C1190 1.379 . S
C1195 N1193 1.356 . S
N1196 C1188 1.356 . S
N1196 H1202 0.984 . S
N1196 H1203 0.984 . S
N1197 C1190 1.356 . S
N1197 H1200 0.984 . S
N1197 H1201 0.985 . S
H1198 N1193 0.984 . S
H1199 N1193 0.985 . S
H1200 N1197 0.984 . S
H1201 N1197 0.985 . S
H1202 N1196 0.984 . S
H1203 N1196 0.984 . S
H1204 N1192 0.984 . S
H1205 N1192 0.985 . S
C1206 C1207 1.363 . S
C1206 C1212 1.379 . S
C1206 N1214 1.356 . S
C1207 C1206 1.363 . S
C1207 C1213 1.363 . S
C1208 C1209 1.363 . S
C1208 C1213 1.379 . S
C1208 N1215 1.356 . S
C1209 C1208 1.363 . S
C1209 C1212 1.363 . S
N1210 C1212 1.356 . S
N1210 H1222 0.984 . S
N1210 H1223 0.985 . S
N1211 C1213 1.356 . S
N1211 H1216 0.984 . S
N1211 H1217 0.985 . S
C1212 C1206 1.379 . S
C1212 C1209 1.363 . S
C1212 N1210 1.356 . S
C1213 C1207 1.363 . S
C1213 C1208 1.379 . S
C1213 N1211 1.356 . S
N1214 C1206 1.356 . S
N1214 H1220 0.984 . S
N1214 H1221 0.984 . S
N1215 C1208 1.356 . S
N1215 H1218 0.984 . S
N1215 H1219 0.985 . S
H1216 N1211 0.984 . S
H1217 N1211 0.985 . S
H1218 N1215 0.984 . S
H1219 N1215 0.985 . S
H1220 N1214 0.984 . S
H1221 N1214 0.984 . S
H1222 N1210 0.984 . S
H1223 N1210 0.985 . S
C1224 C1225 1.363 . S
C1224 C1230 1.379 . S
C1224 N1232 1.356 1_655 S
C1225 C1224 1.363 . S
C1225 C1231 1.363 . S
C1226 C1227 1.363 . S
C1226 C1231 1.379 . S
C1226 N1233 1.356 . S
C1227 C1226 1.363 . S
C1227 C1230 1.363 . S
N1228 C1230 1.356 . S
N1228 H1240 0.984 . S
N1228 H1241 0.985 . S
N1229 C1231 1.356 . S
N1229 H1234 0.984 . S
N1229 H1235 0.985 . S
C1230 C1224 1.379 . S
C1230 C1227 1.363 . S
C1230 N1228 1.356 . S
C1231 C1225 1.363 . S
C1231 C1226 1.379 . S
C1231 N1229 1.356 . S
N1232 C1224 1.356 1_455 S
N1232 H1238 0.984 . S
N1232 H1239 0.984 . S
N1233 C1226 1.356 . S
N1233 H1236 0.984 . S
N1233 H1237 0.985 . S
H1234 N1229 0.984 . S
H1235 N1229 0.985 . S
H1236 N1233 0.984 . S
H1237 N1233 0.985 . S
H1238 N1232 0.984 . S
H1239 N1232 0.984 . S
H1240 N1228 0.984 . S
H1241 N1228 0.985 . S
C1242 C1243 1.363 . S
C1242 C1248 1.379 . S
C1242 N1250 1.356 . S
C1243 C1242 1.363 . S
C1243 C1249 1.363 . S
C1244 C1245 1.363 . S
C1244 C1249 1.379 . S
C1244 N1251 1.356 . S
C1245 C1244 1.363 . S
C1245 C1248 1.363 . S
N1246 C1248 1.356 . S
N1246 H1258 0.984 . S
N1246 H1259 0.985 . S
N1247 C1249 1.356 . S
N1247 H1252 0.984 . S
N1247 H1253 0.985 . S
C1248 C1242 1.379 . S
C1248 C1245 1.363 . S
C1248 N1246 1.356 . S
C1249 C1243 1.363 . S
C1249 C1244 1.379 . S
C1249 N1247 1.356 . S
N1250 C1242 1.356 . S
N1250 H1256 0.984 . S
N1250 H1257 0.984 . S
N1251 C1244 1.356 . S
N1251 H1254 0.984 . S
N1251 H1255 0.985 1_565 S
H1252 N1247 0.984 . S
H1253 N1247 0.985 . S
H1254 N1251 0.984 . S
H1255 N1251 0.985 1_545 S
H1256 N1250 0.984 . S
H1257 N1250 0.984 . S
H1258 N1246 0.984 . S
H1259 N1246 0.985 . S
C1260 C1261 1.363 . S
C1260 C1266 1.379 . S
C1260 N1268 1.356 . S
C1261 C1260 1.363 . S
C1261 C1267 1.363 . S
C1262 C1263 1.363 . S
C1262 C1267 1.379 . S
C1262 N1269 1.356 . S
C1263 C1262 1.363 . S
C1263 C1266 1.363 . S
N1264 C1266 1.356 . S
N1264 H1276 0.984 . S
N1264 H1277 0.985 . S
N1265 C1267 1.356 . S
N1265 H1270 0.984 . S
N1265 H1271 0.985 . S
C1266 C1260 1.379 . S
C1266 C1263 1.363 . S
C1266 N1264 1.356 . S
C1267 C1261 1.363 . S
C1267 C1262 1.379 . S
C1267 N1265 1.356 . S
N1268 C1260 1.356 . S
N1268 H1274 0.984 . S
N1268 H1275 0.984 . S
N1269 C1262 1.356 . S
N1269 H1272 0.984 . S
N1269 H1273 0.985 . S
H1270 N1265 0.984 . S
H1271 N1265 0.985 . S
H1272 N1269 0.984 . S
H1273 N1269 0.985 . S
H1274 N1268 0.984 . S
H1275 N1268 0.984 . S
H1276 N1264 0.984 . S
H1277 N1264 0.985 . S
C1278 C1279 1.363 . S
C1278 C1284 1.379 . S
C1278 N1286 1.356 . S
C1279 C1278 1.363 . S
C1279 C1285 1.363 . S
C1280 C1281 1.363 . S
C1280 C1285 1.379 . S
C1280 N1287 1.356 . S
C1281 C1280 1.363 . S
C1281 C1284 1.363 . S
N1282 C1284 1.356 . S
N1282 H1294 0.984 . S
N1282 H1295 0.985 . S
N1283 C1285 1.356 . S
N1283 H1288 0.984 . S
N1283 H1289 0.985 . S
C1284 C1278 1.379 . S
C1284 C1281 1.363 . S
C1284 N1282 1.356 . S
C1285 C1279 1.363 . S
C1285 C1280 1.379 . S
C1285 N1283 1.356 . S
N1286 C1278 1.356 . S
N1286 H1292 0.984 . S
N1286 H1293 0.984 . S
N1287 C1280 1.356 . S
N1287 H1290 0.984 . S
N1287 H1291 0.985 . S
H1288 N1283 0.984 . S
H1289 N1283 0.985 . S
H1290 N1287 0.984 . S
H1291 N1287 0.985 . S
H1292 N1286 0.984 . S
H1293 N1286 0.984 . S
H1294 N1282 0.984 . S
H1295 N1282 0.985 . S
C1296 C1297 1.357 1_455 S
C1296 C1302 1.371 1_455 S
C1296 N1304 1.363 . S
C1297 C1296 1.357 1_655 S
C1297 C1303 1.363 . S
C1298 C1299 1.363 . S
C1298 C1303 1.379 . S
C1298 N1305 1.356 . S
C1299 C1298 1.363 . S
C1299 C1302 1.390 . S
N1300 C1302 1.343 1_455 S
N1300 H1312 0.984 . S
N1300 H1313 0.985 . S
N1301 C1303 1.356 . S
N1301 H1306 0.984 . S
N1301 H1307 0.985 . S
C1302 C1296 1.371 1_655 S
C1302 C1299 1.390 . S
C1302 N1300 1.343 1_655 S
C1303 C1297 1.363 . S
C1303 C1298 1.379 . S
C1303 N1301 1.356 . S
N1304 C1296 1.363 . S
N1304 H1310 0.984 . S
N1304 H1311 0.984 . S
N1305 C1298 1.356 . S
N1305 H1308 0.984 . S
N1305 H1309 0.985 . S
H1306 N1301 0.984 . S
H1307 N1301 0.985 . S
H1308 N1305 0.984 . S
H1309 N1305 0.985 . S
H1310 N1304 0.984 . S
H1311 N1304 0.984 . S
H1312 N1300 0.984 . S
H1313 N1300 0.985 . S
C1314 C1315 1.363 . S
C1314 C1320 1.379 . S
C1314 N1322 1.356 . S
C1315 C1314 1.363 . S
C1315 C1321 1.363 . S
C1316 C1317 1.363 . S
C1316 C1321 1.379 . S
C1316 N1323 1.356 . S
C1317 C1316 1.363 . S
C1317 C1320 1.363 . S
N1318 C1320 1.356 . S
N1318 H1330 0.984 . S
N1318 H1331 0.985 . S
N1319 C1321 1.356 . S
N1319 H1324 0.984 . S
N1319 H1325 0.985 . S
C1320 C1314 1.379 . S
C1320 C1317 1.363 . S
C1320 N1318 1.356 . S
C1321 C1315 1.363 . S
C1321 C1316 1.379 . S
C1321 N1319 1.356 . S
N1322 C1314 1.356 . S
N1322 H1328 0.984 . S
N1322 H1329 0.984 . S
N1323 C1316 1.356 . S
N1323 H1326 0.984 . S
N1323 H1327 0.985 . S
H1324 N1319 0.984 . S
H1325 N1319 0.985 . S
H1326 N1323 0.984 . S
H1327 N1323 0.985 . S
H1328 N1322 0.984 . S
H1329 N1322 0.984 . S
H1330 N1318 0.984 . S
H1331 N1318 0.985 . S
C1332 C1333 1.363 . S
C1332 C1338 1.379 . S
C1332 N1340 1.356 . S
C1333 C1332 1.363 . S
C1333 C1339 1.363 . S
C1334 C1335 1.363 . S
C1334 C1339 1.379 . S
C1334 N1341 1.356 . S
C1335 C1334 1.363 . S
C1335 C1338 1.363 . S
N1336 C1338 1.356 . S
N1336 H1348 0.984 . S
N1336 H1349 0.985 . S
N1337 C1339 1.356 . S
N1337 H1342 0.984 . S
N1337 H1343 0.985 . S
C1338 C1332 1.379 . S
C1338 C1335 1.363 . S
C1338 N1336 1.356 . S
C1339 C1333 1.363 . S
C1339 C1334 1.379 . S
C1339 N1337 1.356 . S
N1340 C1332 1.356 . S
N1340 H1346 0.984 . S
N1340 H1347 0.984 . S
N1341 C1334 1.356 . S
N1341 H1344 0.984 . S
N1341 H1345 0.985 . S
H1342 N1337 0.984 . S
H1343 N1337 0.985 . S
H1344 N1341 0.984 . S
H1345 N1341 0.985 . S
H1346 N1340 0.984 . S
H1347 N1340 0.984 . S
H1348 N1336 0.984 . S
H1349 N1336 0.985 . S
C1350 C1351 1.363 . S
C1350 C1356 1.379 . S
C1350 N1358 1.356 . S
C1351 C1350 1.363 . S
C1351 C1357 1.363 . S
C1352 C1353 1.363 . S
C1352 C1357 1.379 . S
C1352 N1359 1.356 . S
C1353 C1352 1.363 . S
C1353 C1356 1.363 . S
N1354 C1356 1.356 . S
N1354 H1366 0.984 . S
N1354 H1367 0.985 . S
N1355 C1357 1.356 . S
N1355 H1360 0.984 . S
N1355 H1361 0.985 . S
C1356 C1350 1.379 . S
C1356 C1353 1.363 . S
C1356 N1354 1.356 . S
C1357 C1351 1.363 . S
C1357 C1352 1.379 . S
C1357 N1355 1.356 . S
N1358 C1350 1.356 . S
N1358 H1364 0.984 . S
N1358 H1365 0.984 . S
N1359 C1352 1.356 . S
N1359 H1362 0.984 . S
N1359 H1363 0.985 . S
H1360 N1355 0.984 . S
H1361 N1355 0.985 . S
H1362 N1359 0.984 . S
H1363 N1359 0.985 . S
H1364 N1358 0.984 . S
H1365 N1358 0.984 . S
H1366 N1354 0.984 . S
H1367 N1354 0.985 . S
C1368 C1369 1.363 . S
C1368 C1374 1.379 . S
C1368 N1376 1.356 . S
C1369 C1368 1.363 . S
C1369 C1375 1.363 . S
C1370 C1371 1.363 . S
C1370 C1375 1.379 . S
C1370 N1377 1.356 . S
C1371 C1370 1.363 . S
C1371 C1374 1.363 . S
N1372 C1374 1.356 . S
N1372 H1384 0.984 . S
N1372 H1385 0.985 . S
N1373 C1375 1.356 . S
N1373 H1378 0.984 . S
N1373 H1379 0.985 . S
C1374 C1368 1.379 . S
C1374 C1371 1.363 . S
C1374 N1372 1.356 . S
C1375 C1369 1.363 . S
C1375 C1370 1.379 . S
C1375 N1373 1.356 . S
N1376 C1368 1.356 . S
N1376 H1382 0.984 . S
N1376 H1383 0.984 . S
N1377 C1370 1.356 . S
N1377 H1380 0.984 . S
N1377 H1381 0.985 . S
H1378 N1373 0.984 . S
H1379 N1373 0.985 . S
H1380 N1377 0.984 . S
H1381 N1377 0.985 . S
H1382 N1376 0.984 . S
H1383 N1376 0.984 . S
H1384 N1372 0.984 . S
H1385 N1372 0.985 . S
C1386 C1387 1.363 . S
C1386 C1392 1.379 . S
C1386 N1394 1.356 . S
C1387 C1386 1.363 . S
C1387 C1393 1.363 . S
C1388 C1389 1.363 . S
C1388 C1393 1.379 . S
C1388 N1395 1.356 . S
C1389 C1388 1.363 . S
C1389 C1392 1.363 . S
N1390 C1392 1.356 . S
N1390 H1402 0.984 . S
N1390 H1403 0.985 . S
N1391 C1393 1.356 . S
N1391 H1396 0.984 . S
N1391 H1397 0.985 . S
C1392 C1386 1.379 . S
C1392 C1389 1.363 . S
C1392 N1390 1.356 . S
C1393 C1387 1.363 . S
C1393 C1388 1.379 . S
C1393 N1391 1.356 . S
N1394 C1386 1.356 . S
N1394 H1400 0.984 . S
N1394 H1401 0.984 . S
N1395 C1388 1.356 . S
N1395 H1398 0.984 . S
N1395 H1399 0.985 . S
H1396 N1391 0.984 . S
H1397 N1391 0.985 . S
H1398 N1395 0.984 . S
H1399 N1395 0.985 . S
H1400 N1394 0.984 . S
H1401 N1394 0.984 . S
H1402 N1390 0.984 . S
H1403 N1390 0.985 . S
C1404 C1405 1.363 . S
C1404 C1410 1.379 . S
C1404 N1412 1.356 . S
C1405 C1404 1.363 . S
C1405 C1411 1.363 . S
C1406 C1407 1.363 . S
C1406 C1411 1.379 . S
C1406 N1413 1.356 . S
C1407 C1406 1.363 . S
C1407 C1410 1.363 . S
N1408 C1410 1.356 . S
N1408 H1420 0.984 . S
N1408 H1421 0.985 . S
N1409 C1411 1.356 . S
N1409 H1414 0.984 . S
N1409 H1415 0.985 . S
C1410 C1404 1.379 . S
C1410 C1407 1.363 . S
C1410 N1408 1.356 . S
C1411 C1405 1.363 . S
C1411 C1406 1.379 . S
C1411 N1409 1.356 . S
N1412 C1404 1.356 . S
N1412 H1418 0.984 . S
N1412 H1419 0.984 . S
N1413 C1406 1.356 . S
N1413 H1416 0.984 . S
N1413 H1417 0.985 . S
H1414 N1409 0.984 . S
H1415 N1409 0.985 . S
H1416 N1413 0.984 . S
H1417 N1413 0.985 . S
H1418 N1412 0.984 . S
H1419 N1412 0.984 . S
H1420 N1408 0.984 . S
H1421 N1408 0.985 . S
C1422 C1423 1.363 . S
C1422 C1428 1.379 . S
C1422 N1430 1.356 . S
C1423 C1422 1.363 . S
C1423 C1429 1.363 . S
C1424 C1425 1.363 . S
C1424 C1429 1.379 . S
C1424 N1431 1.356 . S
C1425 C1424 1.363 . S
C1425 C1428 1.363 . S
N1426 C1428 1.356 . S
N1426 H1438 0.984 . S
N1426 H1439 0.985 . S
N1427 C1429 1.356 . S
N1427 H1432 0.984 . S
N1427 H1433 0.985 . S
C1428 C1422 1.379 . S
C1428 C1425 1.363 . S
C1428 N1426 1.356 . S
C1429 C1423 1.363 . S
C1429 C1424 1.379 . S
C1429 N1427 1.356 . S
N1430 C1422 1.356 . S
N1430 H1436 0.984 . S
N1430 H1437 0.984 . S
N1431 C1424 1.356 . S
N1431 H1434 0.984 . S
N1431 H1435 0.985 . S
H1432 N1427 0.984 . S
H1433 N1427 0.985 . S
H1434 N1431 0.984 . S
H1435 N1431 0.985 . S
H1436 N1430 0.984 . S
H1437 N1430 0.984 . S
H1438 N1426 0.984 . S
H1439 N1426 0.985 . S
C1440 C1441 1.363 . S
C1440 C1446 1.379 . S
C1440 N1448 1.356 . S
C1441 C1440 1.363 . S
C1441 C1447 1.363 . S
C1442 C1443 1.363 . S
C1442 C1447 1.379 . S
C1442 N1449 1.356 . S
C1443 C1442 1.363 . S
C1443 C1446 1.363 . S
N1444 C1446 1.356 . S
N1444 H1456 0.984 . S
N1444 H1457 0.985 . S
N1445 C1447 1.356 . S
N1445 H1450 0.984 . S
N1445 H1451 0.985 . S
C1446 C1440 1.379 . S
C1446 C1443 1.363 . S
C1446 N1444 1.356 . S
C1447 C1441 1.363 . S
C1447 C1442 1.379 . S
C1447 N1445 1.356 . S
N1448 C1440 1.356 . S
N1448 H1454 0.984 . S
N1448 H1455 0.984 . S
N1449 C1442 1.356 . S
N1449 H1452 0.984 . S
N1449 H1453 0.985 . S
H1450 N1445 0.984 . S
H1451 N1445 0.985 . S
H1452 N1449 0.984 . S
H1453 N1449 0.985 . S
H1454 N1448 0.984 . S
H1455 N1448 0.984 . S
H1456 N1444 0.984 . S
H1457 N1444 0.985 . S
C1458 C1459 1.363 . S
C1458 C1464 1.379 . S
C1458 N1466 1.356 . S
C1459 C1458 1.363 . S
C1459 C1465 1.363 . S
C1460 C1461 1.363 . S
C1460 C1465 1.379 . S
C1460 N1467 1.356 . S
C1461 C1460 1.363 . S
C1461 C1464 1.363 . S
N1462 C1464 1.356 . S
N1462 H1474 0.984 . S
N1462 H1475 0.985 . S
N1463 C1465 1.356 . S
N1463 H1468 0.984 . S
N1463 H1469 0.985 . S
C1464 C1458 1.379 . S
C1464 C1461 1.363 . S
C1464 N1462 1.356 . S
C1465 C1459 1.363 . S
C1465 C1460 1.379 . S
C1465 N1463 1.356 . S
N1466 C1458 1.356 . S
N1466 H1472 0.984 . S
N1466 H1473 0.984 . S
N1467 C1460 1.356 . S
N1467 H1470 0.984 . S
N1467 H1471 0.985 . S
H1468 N1463 0.984 . S
H1469 N1463 0.985 . S
H1470 N1467 0.984 . S
H1471 N1467 0.985 . S
H1472 N1466 0.984 . S
H1473 N1466 0.984 . S
H1474 N1462 0.984 . S
H1475 N1462 0.985 . S
C1476 C1477 1.363 . S
C1476 C1482 1.379 . S
C1476 N1484 1.356 . S
C1477 C1476 1.363 . S
C1477 C1483 1.363 . S
C1478 C1479 1.363 . S
C1478 C1483 1.379 . S
C1478 N1485 1.356 . S
C1479 C1478 1.363 . S
C1479 C1482 1.363 . S
N1480 C1482 1.356 . S
N1480 H1492 0.984 . S
N1480 H1493 0.985 . S
N1481 C1483 1.356 . S
N1481 H1486 0.984 . S
N1481 H1487 0.985 . S
C1482 C1476 1.379 . S
C1482 C1479 1.363 . S
C1482 N1480 1.356 . S
C1483 C1477 1.363 . S
C1483 C1478 1.379 . S
C1483 N1481 1.356 . S
N1484 C1476 1.356 . S
N1484 H1490 0.984 . S
N1484 H1491 0.984 . S
N1485 C1478 1.356 . S
N1485 H1488 0.984 . S
N1485 H1489 0.985 . S
H1486 N1481 0.984 . S
H1487 N1481 0.985 . S
H1488 N1485 0.984 . S
H1489 N1485 0.985 . S
H1490 N1484 0.984 . S
H1491 N1484 0.984 . S
H1492 N1480 0.984 . S
H1493 N1480 0.985 . S
C1494 C1495 1.363 . S
C1494 C1500 1.379 . S
C1494 N1502 1.356 . S
C1495 C1494 1.363 . S
C1495 C1501 1.363 . S
C1496 C1497 1.363 . S
C1496 C1501 1.379 . S
C1496 N1503 1.356 . S
C1497 C1496 1.363 . S
C1497 C1500 1.363 . S
N1498 C1500 1.356 . S
N1498 H1510 0.984 . S
N1498 H1511 0.985 . S
N1499 C1501 1.356 . S
N1499 H1504 0.984 . S
N1499 H1505 0.985 . S
C1500 C1494 1.379 . S
C1500 C1497 1.363 . S
C1500 N1498 1.356 . S
C1501 C1495 1.363 . S
C1501 C1496 1.379 . S
C1501 N1499 1.356 . S
N1502 C1494 1.356 . S
N1502 H1508 0.984 . S
N1502 H1509 0.984 . S
N1503 C1496 1.356 . S
N1503 H1506 0.984 . S
N1503 H1507 0.985 . S
H1504 N1499 0.984 . S
H1505 N1499 0.985 . S
H1506 N1503 0.984 . S
H1507 N1503 0.985 . S
H1508 N1502 0.984 . S
H1509 N1502 0.984 . S
H1510 N1498 0.984 . S
H1511 N1498 0.985 . S
C1512 C1513 1.363 . S
C1512 C1518 1.379 . S
C1512 N1520 1.356 . S
C1513 C1512 1.363 . S
C1513 C1519 1.363 . S
C1514 C1515 1.363 . S
C1514 C1519 1.379 . S
C1514 N1521 1.356 . S
C1515 C1514 1.363 . S
C1515 C1518 1.363 . S
N1516 C1518 1.356 . S
N1516 H1528 0.984 . S
N1516 H1529 0.985 . S
N1517 C1519 1.356 . S
N1517 H1522 0.984 . S
N1517 H1523 0.985 . S
C1518 C1512 1.379 . S
C1518 C1515 1.363 . S
C1518 N1516 1.356 . S
C1519 C1513 1.363 . S
C1519 C1514 1.379 . S
C1519 N1517 1.356 . S
N1520 C1512 1.356 . S
N1520 H1526 0.984 . S
N1520 H1527 0.984 . S
N1521 C1514 1.356 . S
N1521 H1524 0.984 . S
N1521 H1525 0.985 . S
H1522 N1517 0.984 . S
H1523 N1517 0.985 . S
H1524 N1521 0.984 . S
H1525 N1521 0.985 . S
H1526 N1520 0.984 . S
H1527 N1520 0.984 . S
H1528 N1516 0.984 . S
H1529 N1516 0.985 . S
C1530 C1531 1.363 . S
C1530 C1536 1.379 . S
C1530 N1538 1.356 . S
C1531 C1530 1.363 . S
C1531 C1537 1.363 . S
C1532 C1533 1.363 . S
C1532 C1537 1.379 . S
C1532 N1539 1.356 . S
C1533 C1532 1.363 . S
C1533 C1536 1.363 . S
N1534 C1536 1.356 . S
N1534 H1546 0.984 . S
N1534 H1547 0.985 . S
N1535 C1537 1.356 . S
N1535 H1540 0.984 . S
N1535 H1541 0.985 . S
C1536 C1530 1.379 . S
C1536 C1533 1.363 . S
C1536 N1534 1.356 . S
C1537 C1531 1.363 . S
C1537 C1532 1.379 . S
C1537 N1535 1.356 . S
N1538 C1530 1.356 . S
N1538 H1544 0.984 . S
N1538 H1545 0.984 . S
N1539 C1532 1.356 . S
N1539 H1542 0.984 . S
N1539 H1543 0.985 . S
H1540 N1535 0.984 . S
H1541 N1535 0.985 . S
H1542 N1539 0.984 . S
H1543 N1539 0.985 . S
H1544 N1538 0.984 . S
H1545 N1538 0.984 . S
H1546 N1534 0.984 . S
H1547 N1534 0.985 . S
C1548 C1549 1.363 . S
C1548 C1554 1.379 . S
C1548 N1556 1.356 . S
C1549 C1548 1.363 . S
C1549 C1555 1.363 . S
C1550 C1551 1.363 . S
C1550 C1555 1.379 . S
C1550 N1557 1.356 . S
C1551 C1550 1.363 . S
C1551 C1554 1.363 . S
N1552 C1554 1.356 . S
N1552 H1564 0.984 1_655 S
N1552 H1565 0.985 . S
N1553 C1555 1.356 . S
N1553 H1558 0.984 . S
N1553 H1559 0.985 . S
C1554 C1548 1.379 . S
C1554 C1551 1.363 . S
C1554 N1552 1.356 . S
C1555 C1549 1.363 . S
C1555 C1550 1.379 . S
C1555 N1553 1.356 . S
N1556 C1548 1.356 . S
N1556 H1562 0.984 . S
N1556 H1563 0.984 . S
N1557 C1550 1.356 . S
N1557 H1560 0.984 . S
N1557 H1561 0.985 . S
H1558 N1553 0.984 . S
H1559 N1553 0.985 . S
H1560 N1557 0.984 . S
H1561 N1557 0.985 . S
H1562 N1556 0.984 . S
H1563 N1556 0.984 . S
H1564 N1552 0.984 1_455 S
H1565 N1552 0.985 . S
C595 N170 1.980 . S
C597 C237 2.037 . S
C613 N184 1.229 . S
C615 C277 1.228 . S
C631 N158 1.656 . S
C633 C329 1.649 . S
C649 N145 1.559 . S
C651 C289 1.552 . S
C669 C317 0.966 . S
C667 N119 0.966 . S
C685 N131 1.782 . S
C687 C249 1.834 1_556 S
C705 C256 1.747 . S
C703 N144 1.734 . S
C723 C296 1.645 . S
C721 N118 1.658 . S
C739 N132 1.557 . S
C741 C316 1.573 . S
C757 N171 1.489 . S
C759 C276 1.494 . S
C775 N183 1.367 . S
C777 C336 1.375 . S
C795 C236 1.486 . S
C793 N157 1.493 . S
C813 C357 2.037 . S
C811 N14 1.980 . S
C829 N28 1.229 . S
C831 C397 1.228 . S
C847 N2 1.655 . S
C849 C449 1.649 . S
C865 N223 1.559 . S
C867 C409 1.547 . S
C883 N197 0.966 . S
C885 C437 0.966 . S
C901 N209 1.782 . S
C903 C369 1.834 . S
C919 N222 1.733 . S
C921 C376 1.747 . S
C937 N196 1.658 . S
C939 C416 1.645 . S
C957 C436 1.573 . S
C955 N210 1.557 . S
C973 N15 1.490 . S
C975 C396 1.494 . S
C993 C456 1.375 . S
C991 N27 1.367 . S
C1009 N1 1.493 . S
C1011 C356 1.486 . S
C1029 C477 2.037 . S
C1027 N92 1.980 . S
C1045 N106 1.229 . S
C1047 C517 1.227 . S
C1065 C569 1.649 . S
C1063 N80 1.656 . S
C1083 C529 1.547 . S
C1081 N67 1.559 . S
C1101 C557 0.966 . S
C1099 N41 0.966 . S
C1117 N53 1.782 . S
C1119 C489 1.835 . S
C1135 N66 1.734 . S
C1137 C496 1.747 . S
C1153 N40 1.659 . S
C1155 C536 1.645 . S
C1173 C556 1.573 . S
C1171 N54 1.557 . S
C1189 N93 1.490 . S
C1191 C516 1.494 . S
C1207 N105 1.367 . S
C1209 C576 1.375 . S
C1225 N79 1.493 . S
C1227 C476 1.486 . S
C1243 N200 1.168 . S
C1245 C260 1.181 . S
C1263 C300 1.884 . S
C1261 N213 1.884 . S
C1279 N226 1.603 . S
C1281 C323 1.584 . S
C1297 N83 1.815 . S
C1299 C283 1.756 . S
C1315 N96 1.725 . S
C1317 C340 1.757 . S
C1335 C243 1.321 . S
C1333 N109 1.374 . S
C1351 N44 1.168 . S
C1353 C380 1.181 . S
C1369 N57 1.884 . S
C1371 C420 1.884 . S
C1387 N70 1.603 . S
C1389 C443 1.583 . S
C1405 N161 1.815 . S
C1407 C403 1.756 . S
C1425 C460 1.757 . S
C1423 N174 1.725 . S
C1441 N187 1.374 . S
C1443 C363 1.320 . S
C1459 N122 1.168 . S
C1461 C500 1.181 . S
C1477 N135 1.884 . S
C1479 C540 1.884 . S
C1497 C563 1.583 . S
C1495 N148 1.603 . S
C1513 N5 1.815 . S
C1515 C523 1.756 . S
C1531 N18 1.725 . S
C1533 C580 1.757 . S
C1549 N31 1.374 . S
C1551 C483 1.320 . S
