# Generated by pormake.
# Topology pyr, (3,6)-cn, num edge types: 1
# Building blocks:
#     Node 0, Type 0, BuildingBlock: PAMTOO_clean_linker_0, # of connection points: 3
#     Node 1, Type 0, BuildingBlock: PAMTOO_clean_linker_0, # of connection points: 3
#     Node 2, Type 0, BuildingBlock: PAMTOO_clean_linker_0, # of connection points: 3
#     Node 3, Type 0, BuildingBlock: PAMTOO_clean_linker_0, # of connection points: 3
#     Node 4, Type 0, BuildingBlock: PAMTOO_clean_linker_0, # of connection points: 3
#     Node 5, Type 0, BuildingBlock: PAMTOO_clean_linker_0, # of connection points: 3
#     Node 6, Type 0, BuildingBlock: PAMTOO_clean_linker_0, # of connection points: 3
#     Node 7, Type 0, BuildingBlock: PAMTOO_clean_linker_0, # of connection points: 3
#     Node 8, Type 1, BuildingBlock: BETGAK_clean_sbu_0, # of connection points: 6
#     Node 9, Type 1, BuildingBlock: BETGAK_clean_sbu_0, # of connection points: 6
#     Node 10, Type 1, BuildingBlock: BETGAK_clean_sbu_0, # of connection points: 6
#     Node 11, Type 1, BuildingBlock: BETGAK_clean_sbu_0, # of connection points: 6
#     Edge 12, Type (0, 1), BuildingBlock: ZUJKAS_clean_linker_0, # of connection points: 2
#     Edge 13, Type (0, 1), BuildingBlock: ZUJKAS_clean_linker_0, # of connection points: 2
#     Edge 14, Type (0, 1), BuildingBlock: ZUJKAS_clean_linker_0, # of connection points: 2
#     Edge 15, Type (0, 1), BuildingBlock: ZUJKAS_clean_linker_0, # of connection points: 2
#     Edge 16, Type (0, 1), BuildingBlock: ZUJKAS_clean_linker_0, # of connection points: 2
#     Edge 17, Type (0, 1), BuildingBlock: ZUJKAS_clean_linker_0, # of connection points: 2
#     Edge 18, Type (0, 1), BuildingBlock: ZUJKAS_clean_linker_0, # of connection points: 2
#     Edge 19, Type (0, 1), BuildingBlock: ZUJKAS_clean_linker_0, # of connection points: 2
#     Edge 20, Type (0, 1), BuildingBlock: ZUJKAS_clean_linker_0, # of connection points: 2
#     Edge 21, Type (0, 1), BuildingBlock: ZUJKAS_clean_linker_0, # of connection points: 2
#     Edge 22, Type (0, 1), BuildingBlock: ZUJKAS_clean_linker_0, # of connection points: 2
#     Edge 23, Type (0, 1), BuildingBlock: ZUJKAS_clean_linker_0, # of connection points: 2
#     Edge 24, Type (0, 1), BuildingBlock: ZUJKAS_clean_linker_0, # of connection points: 2
#     Edge 25, Type (0, 1), BuildingBlock: ZUJKAS_clean_linker_0, # of connection points: 2
#     Edge 26, Type (0, 1), BuildingBlock: ZUJKAS_clean_linker_0, # of connection points: 2
#     Edge 27, Type (0, 1), BuildingBlock: ZUJKAS_clean_linker_0, # of connection points: 2
#     Edge 28, Type (0, 1), BuildingBlock: ZUJKAS_clean_linker_0, # of connection points: 2
#     Edge 29, Type (0, 1), BuildingBlock: ZUJKAS_clean_linker_0, # of connection points: 2
#     Edge 30, Type (0, 1), BuildingBlock: ZUJKAS_clean_linker_0, # of connection points: 2
#     Edge 31, Type (0, 1), BuildingBlock: ZUJKAS_clean_linker_0, # of connection points: 2
#     Edge 32, Type (0, 1), BuildingBlock: ZUJKAS_clean_linker_0, # of connection points: 2
#     Edge 33, Type (0, 1), BuildingBlock: ZUJKAS_clean_linker_0, # of connection points: 2
#     Edge 34, Type (0, 1), BuildingBlock: ZUJKAS_clean_linker_0, # of connection points: 2
#     Edge 35, Type (0, 1), BuildingBlock: ZUJKAS_clean_linker_0, # of connection points: 2
# Relax obj value: 0.137
# Max RMSD: 0.215
# Mean RMSD: 0.147
data_MOF--net-pyr--node1-BETGAK_clean_sbu_0--node2-PAMTOO_clean_linker_0--edge1-ZUJKAS_clean_linker_0
_symmetry_space_group_name_H-M    P1
_symmetry_Int_Tables_number       1
_symmetry_cell_setting            triclinic
loop_
_symmetry_equiv_pos_as_xyz
'x, y, z'
_cell_length_a     47.653485
_cell_length_b     52.669343
_cell_length_c     47.398424
_cell_angle_alpha  91.828131
_cell_angle_beta   89.755168
_cell_angle_gamma 104.06298
loop_
_atom_site_label
_atom_site_type_symbol
_atom_site_fract_x
_atom_site_fract_y
_atom_site_fract_z
_atom_type_partial_charge
H0 H 0.29964 0.28961 0.2399 0.0
H1 H 0.35402 0.23608 0.22618 0.0
H2 H 0.3632 0.30235 0.17365 0.0
H3 H 0.41274 0.26886 0.21643 0.0
C4 C 0.41094 0.26648 0.19301 0.0
O5 O 0.38246 0.26122 0.18436 0.0
H6 H 0.42307 0.28512 0.18383 0.0
C7 C 0.31676 0.28369 0.22827 0.0
C8 C 0.32991 0.2986 0.20559 0.0
C9 C 0.32501 0.26098 0.23583 0.0
C10 C 0.34768 0.25383 0.22117 0.0
C11 C 0.36176 0.26911 0.19925 0.0
C12 C 0.35295 0.29143 0.19147 0.0
H13 H 0.31752 0.90691 0.65239 0.0
H14 H 0.31642 0.88192 0.56501 0.0
H15 H 0.37831 0.86397 0.62151 0.0
H16 H 0.39361 0.89253 0.56319 0.0
C17 C 0.38234 0.8734 0.55304 0.0
O18 O 0.35972 0.86022 0.56936 0.0
H19 H 0.37372 0.87763 0.53241 0.0
C20 C 0.32573 0.89642 0.63548 0.0
C21 C 0.34915 0.8853 0.64061 0.0
C22 C 0.31373 0.89534 0.60834 0.0
C23 C 0.32537 0.883 0.58611 0.0
C24 C 0.34864 0.8719 0.59095 0.0
C25 C 0.3604 0.87285 0.61811 0.0
H26 H 0.73525 0.33507 0.91199 0.0
H27 H 0.66825 0.32583 0.84875 0.0
H28 H 0.73927 0.39386 0.84996 0.0
H29 H 0.6836 0.4044 0.83811 0.0
C30 C 0.67361 0.38697 0.8245 0.0
O31 O 0.69178 0.36991 0.82331 0.0
H32 H 0.65295 0.37694 0.83461 0.0
C33 C 0.72595 0.34223 0.89401 0.0
C34 C 0.74047 0.36656 0.883 0.0
C35 C 0.6998 0.32698 0.88211 0.0
C36 C 0.68826 0.33682 0.85838 0.0
C37 C 0.70237 0.36105 0.84691 0.0
C38 C 0.72833 0.37561 0.8593 0.0
H39 H 0.88958 0.73501 0.41607 0.0
H40 H 0.88854 0.67361 0.35333 0.0
H41 H 0.95778 0.74326 0.35461 0.0
H42 H 0.93916 0.72009 0.29612 0.0
C43 C 0.93185 0.69911 0.30149 0.0
O44 O 0.93765 0.69657 0.32982 0.0
H45 H 0.90807 0.6931 0.29779 0.0
C46 C 0.89909 0.72734 0.39792 0.0
C47 C 0.92515 0.74246 0.38685 0.0
C48 C 0.88527 0.70251 0.38608 0.0
C49 C 0.89849 0.69263 0.36282 0.0
C50 C 0.92453 0.70722 0.35132 0.0
C51 C 0.93757 0.73221 0.36325 0.0
H52 H 0.75717 0.8469 0.86009 0.0
H53 H 0.71869 0.79269 0.9238 0.0
H54 H 0.78916 0.77871 0.87428 0.0
H55 H 0.73413 0.73585 0.8831 0.0
C56 C 0.73979 0.73661 0.90596 0.0
O57 O 0.75335 0.7617 0.91517 0.0
H58 H 0.71928 0.7299 0.9178 0.0
C59 C 0.75555 0.82874 0.87082 0.0
C60 C 0.77502 0.81332 0.86392 0.0
C61 C 0.7353 0.82176 0.89262 0.0
C62 C 0.73419 0.79859 0.90702 0.0
C63 C 0.75354 0.78316 0.90028 0.0
C64 C 0.77409 0.79067 0.87905 0.0
H65 H 0.76072 0.12635 0.44185 0.0
H66 H 0.71513 0.18502 0.46586 0.0
H67 H 0.76396 0.15639 0.52766 0.0
H68 H 0.71224 0.17708 0.55656 0.0
C69 C 0.70633 0.18164 0.53497 0.0
O70 O 0.73102 0.18805 0.51878 0.0
H71 H 0.69062 0.16393 0.52616 0.0
C72 C 0.7547 0.13932 0.45771 0.0
C73 C 0.76473 0.13934 0.48553 0.0
C74 C 0.73688 0.15577 0.45019 0.0
C75 C 0.72848 0.17186 0.47115 0.0
C76 C 0.73797 0.17164 0.49903 0.0
C77 C 0.75603 0.15554 0.50617 0.0
H78 H 0.39136 0.74224 0.16398 0.0
H79 H 0.39019 0.68264 0.22444 0.0
H80 H 0.45811 0.75309 0.22769 0.0
H81 H 0.47844 0.70757 0.24589 0.0
C82 C 0.45741 0.69419 0.25137 0.0
O83 O 0.43625 0.70834 0.25243 0.0
H84 H 0.45187 0.67885 0.23422 0.0
C85 C 0.40135 0.73501 0.18148 0.0
C86 C 0.4269 0.75095 0.1938 0.0
C87 C 0.38773 0.71026 0.19209 0.0
C88 C 0.40007 0.70154 0.21589 0.0
C89 C 0.42534 0.71691 0.22882 0.0
C90 C 0.43856 0.74153 0.21771 0.0
H91 H 0.15569 0.34846 0.76081 0.0
H92 H 0.22472 0.41867 0.7551 0.0
H93 H 0.22115 0.35497 0.6963 0.0
H94 H 0.27879 0.38008 0.71709 0.0
C95 C 0.27716 0.40079 0.71865 0.0
O96 O 0.24946 0.40214 0.71127 0.0
H97 H 0.28136 0.40772 0.74101 0.0
C98 C 0.17509 0.35951 0.7508 0.0
C99 C 0.18699 0.34786 0.72766 0.0
C100 C 0.18814 0.38538 0.761 0.0
C101 C 0.21365 0.3992 0.7476 0.0
C102 C 0.22547 0.38815 0.72449 0.0
C103 C 0.212 0.36282 0.71458 0.0
La104 La 0.05826 0.05688 0.53348 0.0
La105 La 0.04918 1.02889 0.58865 0.0
C106 C 0.06064 0.08581 0.49163 0.0
C107 C 0.08321 0.09436 0.47045 0.0
C108 C 0.11147 0.09208 0.47556 0.0
C109 C 0.13383 0.10285 0.4572 0.0
C110 C 0.12831 0.11602 0.43333 0.0
C111 C 0.09976 0.11748 0.42773 0.0
C112 C 0.07736 0.10678 0.44626 0.0
C113 C 0.09994 0.03466 0.54741 0.0
C114 C 0.07404 0.091 0.59067 0.0
C115 C 0.05243 1.00793 0.63504 0.0
C116 C 0.03465 0.98551 0.64954 0.0
C117 C 1.00839 0.97131 0.63771 0.0
C118 C 0.98979 0.9521 0.65315 0.0
C119 C 0.99722 0.94676 0.68066 0.0
C120 C 0.02427 0.96024 0.69182 0.0
C121 C 0.04278 0.97954 0.67639 0.0
C122 C 1.00164 0.03627 0.56526 0.0
C123 C 0.03294 0.996 0.53207 0.0
O124 O 0.04739 0.06097 0.491 0.0
O125 O 0.06821 0.09444 0.51721 0.0
O126 O 0.09341 0.03834 0.52175 0.0
O127 O 0.08568 0.04574 0.56375 0.0
O128 O 0.07077 0.09073 0.56292 0.0
O129 O 0.06809 0.06904 0.60488 0.0
O130 O 0.04014 1.02738 0.63184 0.0
O131 O 0.0656 1.0025 0.61208 0.0
O132 O 1.00225 1.01669 0.58085 0.0
O133 O 0.02623 0.05163 0.5654 0.0
O134 O 0.04414 0.99617 0.55768 0.0
O135 O 0.03109 1.0182 0.52054 0.0
H136 H 0.11643 0.08265 0.49423 0.0
H137 H 0.15551 0.10112 0.46186 0.0
H138 H 0.09492 0.12771 0.40961 0.0
H139 H 0.0557 0.10886 0.44213 0.0
H140 H 1.00181 0.97573 0.61695 0.0
H141 H 0.96903 0.94234 0.64402 0.0
H142 H 0.03087 0.95629 0.71274 0.0
H143 H 0.06306 0.99032 0.68576 0.0
La144 La 0.59099 0.05028 0.05483 0.0
La145 La 0.53277 1.02734 1.01912 0.0
C146 C 0.63679 0.07934 0.07486 0.0
C147 C 0.64705 0.08701 0.1038 0.0
C148 C 0.63818 0.06995 0.12604 0.0
C149 C 0.64594 0.07821 0.1538 0.0
C150 C 0.66248 0.10376 0.15987 0.0
C151 C 0.67157 0.12072 0.1375 0.0
C152 C 0.66393 0.11237 0.10967 0.0
C153 C 0.55789 1.00647 0.07708 0.0
C154 C 0.5328 0.0655 0.07226 0.0
C155 C 0.48658 0.99803 1.00009 0.0
C156 C 0.47582 0.9885 0.97184 0.0
C157 C 0.49024 0.99974 0.94774 0.0
C158 C 0.48098 0.98943 0.92091 0.0
C159 C 0.45728 0.96757 0.91776 0.0
C160 C 0.44281 0.95654 0.94207 0.0
C161 C 0.45204 0.96695 0.96888 0.0
C162 C 0.56586 0.07121 0.9969 0.0
C163 C 0.59095 1.01215 1.00156 0.0
O164 O 0.6342 0.05471 0.06712 0.0
O165 O 0.61446 0.08795 0.06725 0.0
O166 O 0.58218 1.02005 0.08765 0.0
O167 O 0.55363 1.0187 0.05573 0.0
O168 O 0.56143 0.07156 0.07334 0.0
O169 O 0.51742 0.04653 0.05552 0.0
O170 O 0.48996 1.02319 1.00559 0.0
O171 O 0.50863 0.98949 1.00862 0.0
O172 O 0.54151 0.05764 0.98638 0.0
O173 O 0.57017 0.05896 1.01823 0.0
O174 O 0.56232 1.00632 1.00013 0.0
O175 O 0.60633 1.03097 1.0185 0.0
H176 H 0.62475 0.05042 0.12205 0.0
H177 H 0.63827 0.06483 0.17061 0.0
H178 H 0.68451 0.14045 0.14154 0.0
H179 H 0.67072 0.12587 0.09277 0.0
H180 H 0.50883 1.01628 0.9497 0.0
H181 H 0.49235 0.99863 0.90265 0.0
H182 H 0.42476 0.9395 0.94043 0.0
H183 H 0.44092 0.95787 0.98734 0.0
La184 La 0.57361 0.52436 0.51854 0.0
La185 La 0.57219 0.56727 0.55796 0.0
C186 C 0.58994 0.49013 0.48889 0.0
C187 C 0.59778 0.46564 0.49501 0.0
C188 C 0.58846 0.45247 0.51991 0.0
C189 C 0.5967 0.4295 0.52585 0.0
C190 C 0.61459 0.41952 0.50707 0.0
C191 C 0.62395 0.43289 0.48222 0.0
C192 C 0.61556 0.45577 0.47624 0.0
C193 C 0.52372 0.5184 0.54578 0.0
C194 C 0.59451 0.52135 0.5828 0.0
C195 C 0.55709 0.60201 0.58793 0.0
C196 C 0.55027 0.62697 0.58205 0.0
C197 C 0.55655 0.63827 0.55564 0.0
C198 C 0.5484 0.66126 0.54962 0.0
C199 C 0.53404 0.67336 0.57002 0.0
C200 C 0.52834 0.66219 0.59665 0.0
C201 C 0.53634 0.63912 0.60257 0.0
C202 C 0.62219 0.57312 0.53089 0.0
C203 C 0.55011 0.56947 0.4938 0.0
O204 O 0.56279 0.4903 0.49274 0.0
O205 O 0.60755 0.51141 0.49919 0.0
O206 O 0.52628 0.51098 0.51978 0.0
O207 O 0.54871 0.52736 0.55591 0.0
O208 O 0.5952 0.51307 0.5561 0.0
O209 O 0.58284 0.54119 0.58917 0.0
O210 O 0.584 0.60112 0.584 0.0
O211 O 0.53893 0.5812 0.57732 0.0
O212 O 0.61946 0.57995 0.55704 0.0
O213 O 0.5972 0.56443 0.52054 0.0
O214 O 0.55024 0.57831 0.52041 0.0
O215 O 0.56155 0.54954 0.48737 0.0
H216 H 0.57494 0.46001 0.53482 0.0
H217 H 0.58945 0.41975 0.54529 0.0
H218 H 0.63751 0.42549 0.46725 0.0
H219 H 0.62304 0.46581 0.457 0.0
H220 H 0.56746 0.62916 0.5396 0.0
H221 H 0.55329 0.66954 0.52902 0.0
H222 H 0.51695 0.67087 0.61264 0.0
H223 H 0.53125 0.63053 0.623 0.0
La224 La 0.06462 0.51537 0.05266 0.0
La225 La 0.06355 0.56164 1.02164 0.0
C226 C 0.07791 0.4762 0.07306 0.0
C227 C 0.10364 0.47021 0.08571 0.0
C228 C 0.10065 0.45664 0.1109 0.0
C229 C 0.12422 0.44919 0.12246 0.0
C230 C 0.15125 0.45495 0.10887 0.0
C231 C 0.15443 0.46935 0.08407 0.0
C232 C 0.13086 0.47699 0.07263 0.0
C233 C 0.03672 0.54689 0.07958 0.0
C234 C 0.11898 0.56534 0.05757 0.0
C235 C 0.05048 0.60087 1.001 0.0
C236 C 0.02403 0.60731 0.99081 0.0
C237 C 0.0261 0.62595 0.97001 0.0
C238 C 1.00141 0.63322 0.96089 0.0
C239 C 0.97416 0.622 0.97252 0.0
C240 C 0.9721 0.60281 0.99294 0.0
C241 C 0.99682 0.59551 1.00199 0.0
C242 C 0.091 0.52966 0.99465 0.0
C243 C 1.00926 0.51177 1.01696 0.0
O244 O 0.06575 0.49203 0.08767 0.0
O245 O 0.07922 0.48121 0.04617 0.0
O246 O 0.02884 0.52153 0.079 0.0
O247 O 0.05997 0.55375 0.06572 0.0
O248 O 0.10905 0.53973 0.06023 0.0
O249 O 0.10333 0.57908 0.04475 0.0
O250 O 0.05977 0.5834 0.98597 0.0
O251 O 0.05171 0.59719 0.02806 0.0
O252 O 0.09905 0.55502 0.995 0.0
O253 O 0.06786 0.5232 1.00865 0.0
O254 O 1.01877 0.53753 1.01531 0.0
O255 O 0.02543 0.4979 0.02874 0.0
H256 H 0.07991 0.45142 0.12145 0.0
H257 H 0.12114 0.43864 0.14192 0.0
H258 H 0.17485 0.47397 0.07295 0.0
H259 H 0.13382 0.48768 0.05326 0.0
H260 H 0.04691 0.63511 0.96101 0.0
H261 H 1.0037 0.64771 0.94479 0.0
H262 H 0.95154 0.59396 1.00254 0.0
H263 H 0.99474 0.58102 1.01808 0.0
H264 H 0.34624 0.23634 0.2782 0.0
H265 H 0.31842 0.2098 0.31535 0.0
H266 H 0.23933 0.22147 0.28029 0.0
H267 H 0.26663 0.2474 0.24307 0.0
H268 H 0.24978 0.23338 0.34161 0.0
H269 H 0.26051 0.13456 0.30483 0.0
H270 H 0.29253 0.16111 0.30707 0.0
H271 H 0.26534 0.16152 0.2812 0.0
C272 C 0.3229 0.23298 0.27829 0.0
C273 C 0.30864 0.24418 0.2579 0.0
C274 C 0.3071 0.2179 0.29949 0.0
C275 C 0.2769 0.21378 0.30045 0.0
C276 C 0.26266 0.2246 0.27993 0.0
H277 H 0.12994 0.1157 0.37565 0.0
H278 H 0.16918 0.13913 0.34569 0.0
C279 C 0.27832 0.23953 0.25879 0.0
C280 C 0.25972 0.19879 0.32308 0.0
H281 H 0.23022 0.13653 0.34378 0.0
C282 C 0.24579 0.21224 0.34244 0.0
C283 C 0.25457 0.17126 0.32381 0.0
C284 C 0.26885 0.15607 0.30311 0.0
C285 C 0.22602 0.19876 0.36203 0.0
C286 C 0.22025 0.17114 0.36228 0.0
C287 C 0.23483 0.15773 0.34347 0.0
C288 C 0.19757 0.15583 0.38054 0.0
C289 C 0.21047 0.21401 0.38146 0.0
C290 C 0.20082 0.1573 0.40996 0.0
C291 C 0.17844 0.14405 0.42709 0.0
C292 C 0.15247 0.12911 0.41504 0.0
C293 C 0.14956 0.1273 0.38551 0.0
C294 C 0.172 0.14047 0.3684 0.0
H295 H 0.21391 0.23474 0.37539 0.0
H296 H 0.18687 0.20486 0.38144 0.0
H297 H 0.21859 0.21379 0.40333 0.0
H298 H 0.22049 0.16896 0.41965 0.0
H299 H 0.18121 0.14601 0.44979 0.0
H300 H 0.32175 0.88028 0.69169 0.0
H301 H 0.34372 0.8908 0.7384 0.0
H302 H 0.42866 0.90612 0.70111 0.0
H303 H 0.40684 0.89675 0.65411 0.0
H304 H 0.38236 0.87107 0.7692 0.0
H305 H 0.4292 0.97495 0.74307 0.0
H306 H 0.40288 0.95303 0.72077 0.0
H307 H 0.4401 0.95133 0.72013 0.0
C308 C 0.34512 0.88593 0.6934 0.0
C309 C 0.36254 0.88811 0.66914 0.0
C310 C 0.35763 0.89173 0.72013 0.0
C311 C 0.38778 0.89977 0.72313 0.0
C312 C 0.40531 0.9005 0.69916 0.0
H313 H 0.49141 0.96059 0.87291 0.0
H314 H 0.47582 0.94257 0.82574 0.0
C315 C 0.39281 0.89482 0.67235 0.0
C316 C 0.40058 0.90853 0.75125 0.0
H317 H 0.43913 0.96221 0.78843 0.0
C318 C 0.39488 0.89095 0.7734 0.0
C319 C 0.41681 0.93453 0.75665 0.0
C320 C 0.42245 0.95467 0.73401 0.0
C321 C 0.40491 0.89873 0.80089 0.0
C322 C 0.42077 0.9248 0.8063 0.0
C323 C 0.427 0.94221 0.78409 0.0
C324 C 0.43012 0.93478 0.83511 0.0
C325 C 0.39851 0.87905 0.82392 0.0
C326 C 0.40953 0.93662 0.8558 0.0
C327 C 0.41832 0.94719 0.88265 0.0
C328 C 0.4479 0.95616 0.88926 0.0
C329 C 0.46846 0.95421 0.86841 0.0
C330 C 0.45963 0.94374 0.84153 0.0
H331 H 0.39248 0.85862 0.81518 0.0
H332 H 0.41746 0.88129 0.83815 0.0
H333 H 0.38012 0.8824 0.83674 0.0
H334 H 0.38663 0.93031 0.85101 0.0
H335 H 0.40192 0.9488 0.89803 0.0
H336 H 0.71226 0.41463 0.78587 0.0
H337 H 0.70155 0.43565 0.74291 0.0
H338 H 0.61031 0.40407 0.75592 0.0
H339 H 0.62102 0.38265 0.79824 0.0
H340 H 0.62175 0.40189 0.70101 0.0
H341 H 0.67411 0.5018 0.74184 0.0
H342 H 0.6983 0.4805 0.73958 0.0
H343 H 0.66828 0.47358 0.76365 0.0
C344 C 0.68996 0.41178 0.77922 0.0
C345 C 0.66758 0.39668 0.79548 0.0
C346 C 0.68377 0.42415 0.75481 0.0
C347 C 0.65497 0.42212 0.74617 0.0
C348 C 0.63271 0.40622 0.76188 0.0
H349 H 0.59169 0.52979 0.64029 0.0
H350 H 0.60656 0.50542 0.67822 0.0
C351 C 0.63889 0.39382 0.78616 0.0
C352 C 0.64775 0.43678 0.7213 0.0
H353 H 0.65673 0.49818 0.69487 0.0
C354 C 0.62952 0.42295 0.6997 0.0
C355 C 0.65728 0.46442 0.71945 0.0
C356 C 0.67533 0.48102 0.74247 0.0
C357 C 0.62078 0.43571 0.67664 0.0
C358 C 0.6309 0.46327 0.67444 0.0
C359 C 0.64905 0.4771 0.69609 0.0
C360 C 0.62206 0.47826 0.65066 0.0
C361 C 0.59989 0.41949 0.65539 0.0
C362 C 0.626 0.47171 0.62207 0.0
C363 C 0.61728 0.48565 0.60014 0.0
C364 C 0.60465 0.50683 0.60607 0.0
C365 C 0.60127 0.51368 0.63468 0.0
C366 C 0.60985 0.49967 0.65654 0.0
H367 H 0.58785 0.40066 0.6642 0.0
H368 H 0.584 0.43024 0.64819 0.0
H369 H 0.61212 0.41483 0.63675 0.0
H370 H 0.63602 0.45586 0.61659 0.0
H371 H 0.62047 0.47977 0.5785 0.0
H372 H 0.9147 0.6461 0.28843 0.0
H373 H 0.93409 0.62074 0.25206 0.0
H374 H 1.00021 0.68966 0.23267 0.0
H375 H 0.98115 0.7148 0.26926 0.0
H376 H 0.93739 0.62776 0.19561 0.0
H377 H 0.04846 0.63688 0.23566 0.0
H378 H 0.02056 0.64534 0.25719 0.0
H379 H 0.03981 0.6679 0.23193 0.0
C380 C 0.93376 0.65566 0.27682 0.0
C381 C 0.94639 0.68249 0.2819 0.0
C382 C 0.94477 0.64119 0.25583 0.0
C383 C 0.96893 0.65303 0.23949 0.0
C384 C 0.98202 0.67969 0.24515 0.0
H385 H 0.05824 0.59944 0.09347 0.0
H386 H 0.04164 0.62553 0.13115 0.0
C387 C 0.97101 0.69416 0.26612 0.0
C388 C 0.97927 0.63796 0.21559 0.0
H389 H 0.03881 0.61992 0.18861 0.0
C390 C 0.95955 0.62596 0.19427 0.0
C391 C 1.00826 0.6356 0.21335 0.0
C392 C 0.03045 0.64689 0.23587 0.0
C393 C 0.96795 0.61217 0.1709 0.0
C394 C 0.99688 0.60964 0.16874 0.0
C395 C 1.01667 0.62177 0.18997 0.0
C396 C 1.00677 0.59394 0.14515 0.0
C397 C 0.94575 0.60099 0.14834 0.0
C398 C 0.99303 0.56733 0.14023 0.0
C399 C 1.00242 0.55246 0.11863 0.0
C400 C 0.02605 0.5636 0.10135 0.0
C401 C 0.03988 0.59022 0.1062 0.0
C402 C 0.03044 0.60515 0.12789 0.0
H403 H 0.928 0.61131 0.14835 0.0
H404 H 0.95571 0.60225 0.12704 0.0
H405 H 0.93601 0.58007 0.15244 0.0
H406 H 0.97523 0.55783 0.15346 0.0
H407 H 0.99135 0.532 0.11575 0.0
H408 H 0.44852 0.26445 0.14943 0.0
H409 H 0.46598 0.22664 0.13235 0.0
H410 H 0.41712 0.17976 0.19729 0.0
H411 H 0.40023 0.21782 0.21483 0.0
H412 H 0.47133 0.1718 0.19192 0.0
H413 H 0.41866 0.16441 0.08711 0.0
H414 H 0.44183 0.19626 0.0944 0.0
H415 H 0.41026 0.1847 0.11577 0.0
C416 C 0.44178 0.24612 0.16016 0.0
C417 C 0.42329 0.24398 0.18355 0.0
C418 C 0.45148 0.22449 0.15025 0.0
C419 C 0.4424 0.20026 0.16323 0.0
C420 C 0.42428 0.19823 0.1869 0.0
H421 H 0.47418 0.0602 0.07738 0.0
H422 H 0.44978 0.08989 0.10275 0.0
C423 C 0.4147 0.21991 0.19691 0.0
C424 C 0.45205 0.17714 0.15221 0.0
H425 H 0.45496 0.14043 0.09215 0.0
C426 C 0.46751 0.16474 0.17019 0.0
C427 C 0.44644 0.16755 0.12405 0.0
C428 C 0.42812 0.17874 0.1043 0.0
C429 C 0.47868 0.14377 0.16038 0.0
C430 C 0.47479 0.13539 0.13168 0.0
C431 C 0.4582 0.14702 0.11407 0.0
C432 C 0.4892 0.11582 0.11894 0.0
C433 C 0.49454 0.13084 0.18087 0.0
C434 C 0.51943 0.12045 0.11978 0.0
C435 C 0.53344 0.10351 0.10551 0.0
C436 C 0.51751 0.08172 0.0897 0.0
C437 C 0.48715 0.0768 0.08936 0.0
C438 C 0.47313 0.09373 0.10381 0.0
H439 H 0.48709 0.13301 0.20286 0.0
H440 H 0.49153 0.10967 0.1755 0.0
H441 H 0.51799 0.14039 0.18015 0.0
H442 H 0.53236 0.13772 0.13068 0.0
H443 H 0.55681 0.10806 0.10618 0.0
H444 H 0.30868 0.92708 0.56528 0.0
H445 H 0.2702 0.9497 0.55799 0.0
H446 H 0.22673 0.91531 0.63258 0.0
H447 H 0.265 0.89233 0.63988 0.0
H448 H 0.19072 0.91343 0.58158 0.0
H449 H 0.2587 1.0124 0.61045 0.0
H450 H 0.27429 0.99376 0.58506 0.0
H451 H 0.26793 0.98261 0.62046 0.0
C452 C 0.29077 0.92412 0.57994 0.0
C453 C 0.28982 0.90803 0.60318 0.0
C454 C 0.26899 0.9372 0.57589 0.0
C455 C 0.24596 0.93435 0.59497 0.0
C456 C 0.24452 0.91782 0.61779 0.0
H457 H 0.12169 0.03198 0.59999 0.0
H458 H 0.15574 1.00626 0.61382 0.0
C459 C 0.26639 0.90484 0.62197 0.0
C460 C 0.22342 0.94877 0.59104 0.0
H461 H 0.21284 1.01047 0.58981 0.0
C462 C 0.19542 0.93462 0.58356 0.0
C463 C 0.22969 0.97635 0.59406 0.0
C464 C 0.25921 0.99225 0.60318 0.0
C465 C 0.17365 0.94754 0.57799 0.0
C466 C 0.18028 0.97519 0.5798 0.0
C467 C 0.20799 0.98926 0.58828 0.0
C468 C 0.1591 0.98997 0.57181 0.0
C469 C 0.14378 0.93159 0.57005 0.0
C470 C 0.15014 0.98943 0.54362 0.0
C471 C 0.13092 1.00412 0.53571 0.0
C472 C 0.12039 1.01949 0.5559 0.0
C473 C 0.12941 1.02009 0.58412 0.0
C474 C 0.1488 1.00549 0.59201 0.0
H475 H 0.14038 0.91087 0.57614 0.0
H476 H 0.12691 0.94002 0.58023 0.0
H477 H 0.14094 0.93184 0.54684 0.0
H478 H 0.15829 0.97788 0.5277 0.0
H479 H 0.12425 1.00339 0.51381 0.0
H480 H 0.75946 0.42033 0.89038 0.0
H481 H 0.80469 0.4457 0.91181 0.0
H482 H 0.82951 0.37421 0.92851 0.0
H483 H 0.78518 0.34881 0.90596 0.0
H484 H 0.82614 0.44765 0.96444 0.0
H485 H 0.90185 0.41423 0.89172 0.0
H486 H 0.86359 0.40776 0.88453 0.0
H487 H 0.87737 0.38746 0.90808 0.0
C488 C 0.77471 0.40993 0.89814 0.0
C489 C 0.76836 0.38232 0.89616 0.0
C490 C 0.80058 0.42454 0.91068 0.0
C491 C 0.82104 0.41206 0.92149 0.0
C492 C 0.81463 0.38453 0.91983 0.0
H493 H 0.98491 0.45887 1.01268 0.0
H494 H 0.93935 0.43608 0.99004 0.0
C495 C 0.78885 0.36992 0.90722 0.0
C496 C 0.84864 0.42771 0.93504 0.0
H497 H 0.9224 0.43704 0.93388 0.0
C498 C 0.84717 0.44545 0.95755 0.0
C499 C 0.87633 0.42509 0.9262 0.0
C500 C 0.87997 0.40781 0.90113 0.0
C501 C 0.87227 0.45987 0.97183 0.0
C502 C 0.89986 0.45686 0.9633 0.0
C503 C 0.90136 0.43935 0.94064 0.0
C504 C 0.92739 0.47126 0.97784 0.0
C505 C 0.86894 0.47768 0.99653 0.0
C506 C 0.93625 0.4988 0.97859 0.0
C507 C 0.9625 0.512 0.99158 0.0
C508 C 0.98064 0.498 1.00415 0.0
C509 C 0.97161 0.47043 1.00343 0.0
C510 C 0.94548 0.45729 0.99036 0.0
H511 H 0.84644 0.47308 1.00471 0.0
H512 H 0.88386 0.47618 1.01399 0.0
H513 H 0.87434 0.49825 0.98969 0.0
H514 H 0.9231 0.51014 0.96869 0.0
H515 H 0.9687 0.53319 0.99148 0.0
H516 H 0.8399 0.72081 0.40803 0.0
H517 H 0.79601 0.69632 0.43063 0.0
H518 H 0.82154 0.62433 0.41321 0.0
H519 H 0.86644 0.64887 0.39198 0.0
H520 H 0.75072 0.65988 0.41268 0.0
H521 H 0.8049 0.61714 0.4957 0.0
H522 H 0.82448 0.6424 0.47327 0.0
H523 H 0.81464 0.6088 0.46063 0.0
C524 C 0.83658 0.69981 0.40935 0.0
C525 C 0.8573 0.68705 0.39841 0.0
C526 C 0.81114 0.68572 0.4221 0.0
C527 C 0.80545 0.65839 0.42431 0.0
C528 C 0.82557 0.64543 0.41258 0.0
H529 H 0.63105 0.56692 0.47384 0.0
H530 H 0.67492 0.58563 0.44679 0.0
C531 C 0.85118 0.65955 0.39998 0.0
C532 C 0.77848 0.64372 0.43879 0.0
H533 H 0.75396 0.60216 0.49257 0.0
C534 C 0.75149 0.64723 0.43013 0.0
C535 C 0.77922 0.62739 0.46188 0.0
C536 C 0.80736 0.62387 0.47364 0.0
C537 C 0.72552 0.63512 0.44381 0.0
C538 C 0.7262 0.61833 0.46649 0.0
C539 C 0.75317 0.61473 0.47506 0.0
C540 C 0.69958 0.60562 0.48275 0.0
C541 C 0.69776 0.6413 0.43442 0.0
C542 C 0.69888 0.60951 0.51222 0.0
C543 C 0.67402 0.59845 0.52772 0.0
C544 C 0.64903 0.58321 0.51424 0.0
C545 C 0.64984 0.57872 0.48485 0.0
C546 C 0.67489 0.58965 0.46932 0.0
H547 H 0.70194 0.65966 0.42249 0.0
H548 H 0.68573 0.62515 0.4203 0.0
H549 H 0.6838 0.64334 0.45274 0.0
H550 H 0.7175 0.62156 0.52327 0.0
H551 H 0.67423 0.60226 0.55032 0.0
H552 H 0.3591 0.34714 0.18741 0.0
H553 H 0.33782 0.38261 0.17199 0.0
H554 H 0.25238 0.33402 0.18589 0.0
H555 H 0.2731 0.29862 0.20049 0.0
H556 H 0.29343 0.37932 0.1265 0.0
H557 H 0.25641 0.40397 0.23256 0.0
H558 H 0.28498 0.38714 0.22737 0.0
H559 H 0.24771 0.36943 0.22422 0.0
C560 C 0.33579 0.34404 0.18701 0.0
C561 C 0.31781 0.32023 0.19566 0.0
C562 C 0.32372 0.36431 0.17835 0.0
C563 C 0.29361 0.36102 0.17843 0.0
C564 C 0.27571 0.33711 0.18636 0.0
H565 H 0.14802 0.40711 0.13097 0.0
H566 H 0.18739 0.38974 0.1484 0.0
C567 C 0.28763 0.31694 0.19481 0.0
C568 C 0.28011 0.382 0.1697 0.0
H569 H 0.23134 0.41577 0.19287 0.0
C570 C 0.2805 0.38797 0.14105 0.0
C571 C 0.26335 0.3932 0.18884 0.0
C572 C 0.26325 0.38833 0.22003 0.0
C573 C 0.26263 0.40324 0.13068 0.0
C574 C 0.24425 0.41277 0.14956 0.0
C575 C 0.24542 0.4083 0.17847 0.0
C576 C 0.22095 0.42423 0.13933 0.0
C577 C 0.2619 0.40756 0.09942 0.0
C578 C 0.22688 0.4495 0.12868 0.0
C579 C 0.20428 0.4597 0.11897 0.0
C580 C 0.17545 0.44473 0.11977 0.0
C581 C 0.16981 0.41942 0.13056 0.0
C582 C 0.1923 0.40936 0.14034 0.0
H583 H 0.27647 0.39764 0.08738 0.0
H584 H 0.2395 0.40016 0.09123 0.0
H585 H 0.26858 0.42885 0.09556 0.0
H586 H 0.24891 0.4613 0.12798 0.0
H587 H 0.20935 0.47936 0.11107 0.0
H588 H 0.6688 0.28134 0.85471 0.0
H589 H 0.64666 0.23894 0.87486 0.0
H590 H 0.67699 0.26973 0.95748 0.0
H591 H 0.69738 0.31242 0.93798 0.0
H592 H 0.66795 0.20408 0.89991 0.0
H593 H 0.59641 0.23634 0.97803 0.0
H594 H 0.61507 0.25765 0.95133 0.0
H595 H 0.63344 0.25347 0.98339 0.0
C596 C 0.67028 0.27939 0.87729 0.0
C597 C 0.68512 0.30081 0.89447 0.0
C598 C 0.65776 0.25485 0.88883 0.0
C599 C 0.65952 0.2508 0.91797 0.0
C600 C 0.67442 0.2721 0.93511 0.0
H601 H 0.6086 0.11052 1.02299 0.0
H602 H 0.63248 0.15352 1.00438 0.0
C603 C 0.68668 0.29665 0.92368 0.0
C604 C 0.64668 0.22427 0.93023 0.0
H605 H 0.60294 0.19321 0.98294 0.0
C606 C 0.65362 0.20184 0.91797 0.0
C607 C 0.62782 0.22082 0.95391 0.0
C608 C 0.6175 0.24331 0.96724 0.0
C609 C 0.64275 0.17659 0.92876 0.0
C610 C 0.62425 0.17327 0.95256 0.0
C611 C 0.61736 0.1956 0.96494 0.0
C612 C 0.61066 0.14666 0.9639 0.0
C613 C 0.65145 0.15357 0.91475 0.0
C614 C 0.59034 0.12826 0.94764 0.0
C615 C 0.57659 0.1038 0.95838 0.0
C616 C 0.58285 0.09674 0.98567 0.0
C617 C 0.6035 0.11499 1.00187 0.0
C618 C 0.61705 0.13973 0.99122 0.0
H619 H 0.67065 0.15986 0.90098 0.0
H620 H 0.65631 0.1403 0.93078 0.0
H621 H 0.63326 0.14226 0.90148 0.0
H622 H 0.5846 0.13302 0.92671 0.0
H623 H 0.56069 0.09041 0.94528 0.0
H624 H 0.94805 0.78957 0.36158 0.0
H625 H 0.96765 0.8328 0.38461 0.0
H626 H 0.95315 0.79816 0.46612 0.0
H627 H 0.9336 0.75512 0.44338 0.0
H628 H 0.93715 0.85953 0.42724 0.0
H629 H 0.03948 0.84198 0.4684 0.0
H630 H 0.01952 0.82265 0.43953 0.0
H631 H 1.0072 0.81704 0.47515 0.0
C632 C 0.94936 0.7911 0.3844 0.0
C633 C 0.93913 0.76871 0.40053 0.0
C634 C 0.96043 0.8159 0.39758 0.0
C635 C 0.96211 0.81889 0.4272 0.0
C636 C 0.95239 0.7965 0.44329 0.0
H637 H 0.02443 0.94612 0.55183 0.0
H638 H 1.00689 0.90431 0.52603 0.0
C639 C 0.94102 0.77184 0.43019 0.0
C640 C 0.97315 0.84536 0.44145 0.0
H641 H 0.02734 0.88098 0.48422 0.0
C642 C 0.95699 0.86431 0.43952 0.0
C643 C 0.99887 0.85165 0.45781 0.0
C644 C 1.01749 0.83241 0.4603 0.0
C645 C 0.96537 0.88891 0.45397 0.0
C646 C 0.99129 0.89537 0.47022 0.0
C647 C 1.00753 0.87638 0.47189 0.0
C648 C 1.00173 0.92135 0.48599 0.0
C649 C 0.94557 0.90726 0.4525 0.0
C650 C 1.00515 0.94532 0.47238 0.0
C651 C 1.01488 0.96942 0.48729 0.0
C652 C 0.02207 0.97034 0.51618 0.0
C653 C 0.01913 0.94636 0.52966 0.0
C654 C 1.00909 0.92229 0.51482 0.0
H655 H 0.92303 0.89654 0.44721 0.0
H656 H 0.94534 0.91833 0.4728 0.0
H657 H 0.9532 0.92146 0.43567 0.0
H658 H 1.00064 0.94548 0.45004 0.0
H659 H 1.01716 0.98736 0.47601 0.0
H660 H 0.38638 0.84025 0.5083 0.0
H661 H 0.41687 0.80885 0.50467 0.0
H662 H 0.45425 0.83606 0.58619 0.0
H663 H 0.42426 0.86785 0.58953 0.0
H664 H 0.49492 0.8269 0.54611 0.0
H665 H 0.39843 0.74293 0.55151 0.0
H666 H 0.39788 0.76482 0.52334 0.0
H667 H 0.39669 0.77625 0.55935 0.0
C668 C 0.40155 0.83981 0.52512 0.0
C669 C 0.40335 0.85655 0.54904 0.0
C670 C 0.41874 0.8218 0.52315 0.0
C671 C 0.4375 0.81996 0.54533 0.0
C672 C 0.43993 0.83723 0.56885 0.0
H673 H 0.53763 0.71748 0.60312 0.0
H674 H 0.51662 0.75439 0.59375 0.0
C675 C 0.42287 0.85533 0.57075 0.0
C676 C 0.45344 0.79914 0.5449 0.0
H677 H 0.44372 0.73287 0.54671 0.0
C678 C 0.48378 0.80632 0.54607 0.0
C679 C 0.43877 0.77234 0.54493 0.0
C680 C 0.40615 0.76352 0.54496 0.0
C681 C 0.49988 0.78734 0.54745 0.0
C682 C 0.48516 0.76062 0.54799 0.0
C683 C 0.45488 0.75342 0.54615 0.0
C684 C 0.50045 0.73977 0.55225 0.0
C685 C 0.53245 0.796 0.54838 0.0
C686 C 0.49813 0.7193 0.53207 0.0
C687 C 0.50989 0.6981 0.53746 0.0
C688 C 0.52391 0.69693 0.56327 0.0
C689 C 0.52675 0.71778 0.58316 0.0
C690 C 0.51508 0.739 0.5777 0.0
H691 H 0.54046 0.81594 0.54005 0.0
H692 H 0.53987 0.79649 0.5706 0.0
H693 H 0.54233 0.78215 0.53603 0.0
H694 H 0.48663 0.71946 0.51243 0.0
H695 H 0.50706 0.68217 0.52188 0.0
H696 H 0.76706 0.83034 0.81148 0.0
H697 H 0.80414 0.84769 0.77652 0.0
H698 H 0.86988 0.83344 0.83196 0.0
H699 H 0.83283 0.81571 0.86675 0.0
H700 H 0.84738 0.89022 0.78403 0.0
H701 H 0.89325 0.80548 0.7575 0.0
H702 H 0.85941 0.80215 0.77599 0.0
H703 H 0.89321 0.81244 0.7948 0.0
C704 C 0.7894 0.83065 0.81603 0.0
C705 C 0.7971 0.8217 0.84181 0.0
C706 C 0.81053 0.84046 0.79603 0.0
C707 C 0.83974 0.84154 0.80145 0.0
C708 C 0.84741 0.83215 0.82697 0.0
H709 H 0.98583 0.95324 0.7366 0.0
H710 H 0.94802 0.92602 0.76487 0.0
C711 C 0.82625 0.82213 0.8469 0.0
C712 C 0.86237 0.85477 0.78167 0.0
H713 H 0.92177 0.84768 0.74459 0.0
C714 C 0.86345 0.8808 0.77518 0.0
C715 C 0.88314 0.84238 0.76986 0.0
C716 C 0.88206 0.81399 0.77465 0.0
C717 C 0.88521 0.89505 0.75793 0.0
C718 C 0.9069 0.88315 0.74743 0.0
C719 C 0.90533 0.85685 0.75306 0.0
C720 C 0.93155 0.898 0.73092 0.0
C721 C 0.88471 0.92273 0.75104 0.0
C722 C 0.93563 0.89055 0.70283 0.0
C723 C 0.95759 0.90587 0.68666 0.0
C724 C 0.97588 0.92884 0.69839 0.0
C725 C 0.97238 0.93557 0.72693 0.0
C726 C 0.95053 0.92022 0.74305 0.0
H727 H 0.86278 0.92623 0.75388 0.0
H728 H 0.89974 0.93661 0.76545 0.0
H729 H 0.89175 0.92714 0.729 0.0
H730 H 0.92132 0.8733 0.69319 0.0
H731 H 0.95999 0.89994 0.66487 0.0
H732 H 0.76956 0.15513 0.40285 0.0
H733 H 0.75371 0.15214 0.3538 0.0
H734 H 0.66807 0.15565 0.38059 0.0
H735 H 0.68351 0.15753 0.43004 0.0
H736 H 0.66658 0.11584 0.34338 0.0
H737 H 0.73743 0.20572 0.30161 0.0
H738 H 0.75808 0.18669 0.31928 0.0
H739 H 0.73267 0.20053 0.33898 0.0
C740 C 0.74733 0.15528 0.39836 0.0
C741 C 0.72771 0.15631 0.42036 0.0
C742 C 0.73843 0.154 0.37026 0.0
C743 C 0.70985 0.15413 0.3635 0.0
C744 C 0.69032 0.15577 0.38536 0.0
H745 H 0.65925 0.15042 0.18512 0.0
H746 H 0.66849 0.16421 0.23478 0.0
C747 C 0.69919 0.15695 0.41357 0.0
C748 C 0.69992 0.15011 0.33375 0.0
H749 H 0.71754 0.17122 0.26715 0.0
C750 C 0.6774 0.1282 0.32676 0.0
C751 C 0.71373 0.16646 0.3121 0.0
C752 C 0.7366 0.19132 0.31842 0.0
C753 C 0.66938 0.12141 0.29859 0.0
C754 C 0.68474 0.13659 0.27683 0.0
C755 C 0.70615 0.15932 0.28386 0.0
C756 C 0.67967 0.12858 0.24669 0.0
C757 C 0.64466 0.09789 0.29242 0.0
C758 C 0.6836 0.10427 0.23685 0.0
C759 C 0.67837 0.09637 0.20858 0.0
C760 C 0.66943 0.11277 0.18954 0.0
C761 C 0.66632 0.13745 0.19927 0.0
C762 C 0.67143 0.1453 0.22762 0.0
H763 H 0.62972 0.09366 0.31067 0.0
H764 H 0.63212 0.10084 0.27362 0.0
H765 H 0.65343 0.08046 0.28819 0.0
H766 H 0.69076 0.09139 0.25105 0.0
H767 H 0.68145 0.07746 0.20159 0.0
H768 H 0.4631 0.64427 0.25922 0.0
H769 H 0.47666 0.62513 0.3019 0.0
H770 H 0.47701 0.6964 0.34922 0.0
H771 H 0.46338 0.71574 0.30622 0.0
H772 H 0.52728 0.6439 0.33371 0.0
H773 H 0.43105 0.63987 0.40148 0.0
H774 H 0.43022 0.64387 0.36381 0.0
H775 H 0.44701 0.67109 0.3867 0.0
C776 C 0.46534 0.65572 0.27883 0.0
C777 C 0.46132 0.68139 0.27927 0.0
C778 C 0.47334 0.64476 0.30331 0.0
C779 C 0.47762 0.65902 0.32917 0.0
C780 C 0.47331 0.68461 0.32985 0.0
H781 H 0.53211 0.61579 0.49628 0.0
H782 H 0.51544 0.63824 0.45742 0.0
C783 C 0.46543 0.6957 0.3052 0.0
C784 C 0.48824 0.64748 0.35465 0.0
H785 H 0.47042 0.6271 0.42192 0.0
C786 C 0.51477 0.64025 0.35297 0.0
C787 C 0.47231 0.64285 0.38011 0.0
C788 C 0.44345 0.6496 0.38326 0.0
C789 C 0.52572 0.62873 0.37568 0.0
C790 C 0.50939 0.62328 0.40088 0.0
C791 C 0.48307 0.63097 0.40277 0.0
C792 C 0.51902 0.60924 0.42508 0.0
C793 C 0.5552 0.62315 0.37252 0.0
C794 C 0.52614 0.585 0.4205 0.0
C795 C 0.536 0.57224 0.44269 0.0
C796 C 0.53863 0.58299 0.47046 0.0
C797 C 0.5306 0.60685 0.47529 0.0
C798 C 0.52096 0.61976 0.45295 0.0
H799 H 0.56862 0.63613 0.35698 0.0
H800 H 0.56701 0.62577 0.39296 0.0
H801 H 0.55264 0.60264 0.36465 0.0
H802 H 0.52404 0.57577 0.39962 0.0
H803 H 0.54153 0.5538 0.43798 0.0
H804 H 0.15958 0.36305 0.8089 0.0
H805 H 0.14041 0.38476 0.84845 0.0
H806 H 0.17048 0.45909 0.80917 0.0
H807 H 0.18789 0.43754 0.76902 0.0
H808 H 0.16478 0.42022 0.88731 0.0
H809 H 0.09091 0.46429 0.82696 0.0
H810 H 0.108 0.4403 0.81123 0.0
H811 H 0.12707 0.47436 0.81381 0.0
C812 C 0.16162 0.38394 0.80829 0.0
C813 C 0.17548 0.3983 0.78534 0.0
C814 C 0.15083 0.39646 0.83121 0.0
C815 C 0.15337 0.42371 0.83192 0.0
C816 C 0.16736 0.43804 0.80915 0.0
H817 H 0.13136 0.54459 0.9533 0.0
H818 H 0.14539 0.51764 0.91522 0.0
C819 C 0.17788 0.42558 0.78621 0.0
C820 C 0.14233 0.43735 0.85662 0.0
H821 H 0.10299 0.48228 0.87378 0.0
C822 C 0.15096 0.43351 0.88426 0.0
C823 C 0.12405 0.45473 0.85313 0.0
C824 C 0.11172 0.45844 0.82471 0.0
C825 C 0.14282 0.44711 0.90796 0.0
C826 C 0.12556 0.46518 0.90422 0.0
C827 C 0.11645 0.46867 0.87677 0.0
C828 C 0.11743 0.48121 0.92835 0.0
C829 C 0.1534 0.44268 0.93689 0.0
C830 C 0.09694 0.46988 0.94869 0.0
C831 C 0.08861 0.48539 0.97049 0.0
C832 C 0.10074 0.5126 0.97261 0.0
C833 C 0.12157 0.52375 0.95247 0.0
C834 C 0.12961 0.50833 0.93056 0.0
H835 H 0.16933 0.43038 0.93604 0.0
H836 H 0.16352 0.46173 0.94765 0.0
H837 H 0.13473 0.43277 0.94987 0.0
H838 H 0.08698 0.44907 0.94743 0.0
H839 H 0.07241 0.47612 0.98547 0.0
H840 H 0.72271 0.83585 0.94632 0.0
H841 H 0.69586 0.8681 0.96082 0.0
H842 H 0.68026 0.88123 0.87357 0.0
H843 H 0.70689 0.84874 0.85882 0.0
H844 H 0.70213 0.92742 0.90598 0.0
H845 H 0.60844 0.86249 0.95817 0.0
H846 H 0.6429 0.85906 0.97043 0.0
H847 H 0.63211 0.85011 0.93445 0.0
C848 C 0.71303 0.84515 0.9302 0.0
C849 C 0.71686 0.83965 0.90141 0.0
C850 C 0.69775 0.86363 0.93853 0.0
C851 C 0.68587 0.87686 0.91826 0.0
C852 C 0.68927 0.8712 0.88952 0.0
H853 H 0.56784 0.9744 0.96154 0.0
H854 H 0.5913 0.94312 0.93827 0.0
C855 C 0.70453 0.85269 0.88115 0.0
C856 C 0.67106 0.89746 0.92712 0.0
H857 H 0.61496 0.90839 0.9667 0.0
C858 C 0.68292 0.92327 0.91906 0.0
C859 C 0.64586 0.8919 0.94392 0.0
C860 C 0.63137 0.86435 0.95206 0.0
C861 C 0.67069 0.94385 0.92806 0.0
C862 C 0.6462 0.93844 0.94584 0.0
C863 C 0.63388 0.91251 0.95323 0.0
C864 C 0.63315 0.95934 0.9575 0.0
C865 C 0.68397 0.97114 0.91836 0.0
C866 C 0.64906 0.97913 0.97571 0.0
C867 C 0.63574 0.99716 0.98907 0.0
C868 C 0.60618 0.99554 0.98463 0.0
C869 C 0.59061 0.97621 0.96558 0.0
C870 C 0.60396 0.95826 0.95223 0.0
H871 H 0.6972 0.97084 0.89905 0.0
H872 H 0.66704 0.98174 0.91399 0.0
H873 H 0.69834 0.98224 0.93524 0.0
H874 H 0.6715 0.98002 0.98046 0.0
H875 H 0.64835 1.01166 1.00371 0.0
H876 H 0.76611 0.11113 0.53294 0.0
H877 H 0.80311 0.08841 0.54605 0.0
H878 H 0.84711 0.1092 0.46736 0.0
H879 H 0.81072 0.13235 0.45429 0.0
H880 H 0.84116 0.05466 0.48513 0.0
H881 H 0.88729 0.13198 0.56659 0.0
H882 H 0.84904 0.11755 0.56833 0.0
H883 H 0.86355 0.13707 0.53889 0.0
C884 C 0.78366 0.11084 0.51843 0.0
C885 C 0.78557 0.12366 0.49265 0.0
C886 C 0.80464 0.09777 0.52588 0.0
C887 C 0.82781 0.09734 0.5077 0.0
C888 C 0.82925 0.10927 0.48157 0.0
H889 H 0.99847 0.07906 0.53633 0.0
H890 H 0.95472 0.09145 0.52126 0.0
C891 C 0.80838 0.1224 0.47413 0.0
C892 C 0.85166 0.08598 0.51653 0.0
H893 H 0.90973 0.09701 0.56098 0.0
C894 C 0.85606 0.06372 0.50185 0.0
C895 C 0.87112 0.09815 0.53812 0.0
C896 C 0.86779 0.12262 0.55385 0.0
C897 C 0.87971 0.05334 0.5082 0.0
C898 C 0.89919 0.06559 0.52973 0.0
C899 C 0.8946 0.08769 0.54454 0.0
C900 C 0.92531 0.05662 0.53655 0.0
C901 C 0.88424 1.02988 0.49138 0.0
C902 C 0.9231 0.03281 0.54984 0.0
C903 C 0.94806 1.02572 0.55855 0.0
C904 C 0.97543 0.04245 0.55414 0.0
C905 C 0.97758 0.06589 0.54008 0.0
C906 C 0.95268 0.07297 0.53147 0.0
H907 H 0.86985 1.02525 0.47257 0.0
H908 H 0.90708 0.03329 0.48433 0.0
H909 H 0.87967 1.01257 0.50494 0.0
H910 H 0.9021 1.02011 0.5542 0.0
H911 H 0.94593 1.00752 0.56934 0.0
H912 H 0.33925 0.6798 0.21743 0.0
H913 H 0.29491 0.6537 0.19495 0.0
H914 H 0.32928 0.6779 0.11322 0.0
H915 H 0.37395 0.70337 0.13539 0.0
H916 H 0.25476 0.66864 0.16248 0.0
H917 H 0.30269 0.59929 0.09994 0.0
H918 H 0.32225 0.62028 0.12785 0.0
H919 H 0.31939 0.63296 0.09346 0.0
C920 C 0.33765 0.6793 0.19463 0.0
C921 C 0.36052 0.6938 0.17837 0.0
C922 C 0.31207 0.66445 0.18176 0.0
C923 C 0.30864 0.66337 0.15223 0.0
C924 C 0.33137 0.67785 0.13595 0.0
H925 H 0.14512 0.61802 0.05858 0.0
H926 H 0.19051 0.64093 0.08143 0.0
C927 C 0.35691 0.69275 0.14878 0.0
C928 C 0.28104 0.64783 0.13858 0.0
H929 H 0.2539 0.59926 0.08901 0.0
C930 C 0.25464 0.65342 0.14649 0.0
C931 C 0.28051 0.6276 0.11792 0.0
C932 C 0.30767 0.61944 0.10945 0.0
C933 C 0.22811 0.63994 0.134 0.0
C934 C 0.22772 0.62042 0.11256 0.0
C935 C 0.25402 0.61436 0.10513 0.0
C936 C 0.20029 0.60613 0.09771 0.0
C937 C 0.20063 0.6465 0.14428 0.0
C938 C 0.19078 0.57866 0.09819 0.0
C939 C 0.16472 0.56536 0.08491 0.0
C940 C 0.14754 0.57917 0.07053 0.0
C941 C 0.15752 0.60661 0.0695 0.0
C942 C 0.18351 0.61985 0.08281 0.0
H943 H 0.20343 0.65609 0.16565 0.0
H944 H 0.1945 0.66028 0.12962 0.0
H945 H 0.18256 0.62867 0.14495 0.0
H946 H 0.20329 0.56747 0.10931 0.0
H947 H 0.15791 0.54426 0.08618 0.0
H948 H 0.2823 0.39633 0.6608 0.0
H949 H 0.32275 0.41839 0.63089 0.0
H950 H 0.3645 0.4626 0.70368 0.0
H951 H 0.32434 0.44062 0.73347 0.0
H952 H 0.34815 0.47291 0.62081 0.0
H953 H 0.42588 0.42592 0.67262 0.0
H954 H 0.38722 0.41449 0.67669 0.0
H955 H 0.40679 0.44297 0.69639 0.0
C956 C 0.29991 0.41107 0.67026 0.0
C957 C 0.29999 0.41683 0.69946 0.0
C958 C 0.32308 0.42361 0.6532 0.0
C959 C 0.34701 0.44191 0.66504 0.0
C960 C 0.34662 0.44827 0.69404 0.0
H961 H 0.51661 0.52569 0.60271 0.0
H962 H 0.47331 0.50856 0.63107 0.0
C963 C 0.32348 0.43583 0.71104 0.0
C964 C 0.3727 0.45385 0.64737 0.0
H965 H 0.4453 0.45861 0.64001 0.0
C966 C 0.36937 0.46971 0.62494 0.0
C967 C 0.40051 0.44981 0.65272 0.0
C968 C 0.40541 0.4322 0.67574 0.0
C969 C 0.39306 0.48199 0.60818 0.0
C970 C 0.42089 0.47785 0.61346 0.0
C971 C 0.42414 0.46195 0.63589 0.0
C972 C 0.44684 0.48944 0.59583 0.0
C973 C 0.38812 0.49985 0.58545 0.0
C974 C 0.4467 0.48447 0.56648 0.0
C975 C 0.47141 0.4944 0.55022 0.0
C976 C 0.49705 0.5093 0.56291 0.0
C977 C 0.4972 0.51437 0.59224 0.0
C978 C 0.47243 0.5045 0.6085 0.0
H979 H 0.36856 0.50729 0.58976 0.0
H980 H 0.407 0.51684 0.58344 0.0
H981 H 0.38477 0.48877 0.56494 0.0
H982 H 0.42765 0.4724 0.55614 0.0
H983 H 0.47059 0.48996 0.52773 0.0
H984 H 0.7845 0.72992 0.87273 0.0
H985 H 0.82106 0.70594 0.88331 0.0
H986 H 0.77729 0.68083 0.96117 0.0
H987 H 0.7412 0.70553 0.95096 0.0
H988 H 0.83381 0.70109 0.96944 0.0
H989 H 0.81951 0.62895 0.87993 0.0
H990 H 0.82502 0.66192 0.86847 0.0
H991 H 0.79319 0.64753 0.8884 0.0
C992 C 0.78247 0.71885 0.89181 0.0
C993 C 0.75986 0.71913 0.91081 0.0
C994 C 0.80321 0.70503 0.89777 0.0
C995 C 0.80159 0.69113 0.92276 0.0
C996 C 0.77878 0.69118 0.94162 0.0
H997 H 0.91878 0.59248 0.96327 0.0
H998 H 0.87584 0.60812 0.95204 0.0
C999 C 0.75815 0.70516 0.93575 0.0
C1000 C 0.82504 0.6785 0.93038 0.0
H1001 H 0.8638 0.63562 0.90622 0.0
C1002 C 0.84014 0.68656 0.95574 0.0
C1003 C 0.83311 0.65934 0.91267 0.0
C1004 C 0.81666 0.64872 0.88599 0.0
C1005 C 0.86365 0.67661 0.96348 0.0
C1006 C 0.87271 0.65853 0.94504 0.0
C1007 C 0.85704 0.64976 0.92013 0.0
C1008 C 0.89875 0.64893 0.95108 0.0
C1009 C 0.87849 0.6855 0.9914 0.0
C1010 C 0.9259 0.66664 0.95372 0.0
C1011 C 0.95036 0.65785 0.96038 0.0
C1012 C 0.94823 0.63107 0.96425 0.0
C1013 C 0.92108 0.61327 0.96086 0.0
C1014 C 0.89657 0.62213 0.95426 0.0
H1015 H 0.86412 0.69302 1.0063 0.0
H1016 H 0.88554 0.66928 1.0014 0.0
H1017 H 0.89791 0.70162 0.98787 0.0
H1018 H 0.92814 0.68736 0.95083 0.0
H1019 H 0.97083 0.67214 0.96309 0.0
H1020 H 0.42958 0.76558 0.13798 0.0
H1021 H 0.45005 0.8085 0.11856 0.0
H1022 H 0.47737 0.83974 0.20174 0.0
H1023 H 0.45613 0.79702 0.22164 0.0
H1024 H 0.43695 0.85796 0.13145 0.0
H1025 H 0.55197 0.86171 0.15444 0.0
H1026 H 0.524 0.83165 0.15492 0.0
H1027 H 0.528 0.85487 0.1841 0.0
C1028 C 0.43961 0.78151 0.1524 0.0
C1029 C 0.44085 0.77737 0.18166 0.0
C1030 C 0.45154 0.80619 0.14109 0.0
C1031 C 0.46559 0.82758 0.15849 0.0
C1032 C 0.46712 0.8236 0.18764 0.0
H1033 H 0.55989 0.98923 0.13012 0.0
H1034 H 0.53628 0.94678 0.14909 0.0
C1035 C 0.45496 0.79894 0.19904 0.0
C1036 C 0.47824 0.85397 0.14614 0.0
H1037 H 0.54188 0.89999 0.13682 0.0
C1038 C 0.45992 0.86711 0.13257 0.0
C1039 C 0.50822 0.86615 0.14748 0.0
C1040 C 0.52932 0.85286 0.16079 0.0
C1041 C 0.47051 0.89212 0.12107 0.0
C1042 C 0.50058 0.90433 0.12229 0.0
C1043 C 0.51887 0.891 0.13573 0.0
C1044 C 0.51357 0.93102 0.11053 0.0
C1045 C 0.44906 0.90555 0.10863 0.0
C1046 C 0.50892 0.937 0.08234 0.0
C1047 C 0.52222 0.96171 0.07151 0.0
C1048 C 0.54086 0.98102 0.0884 0.0
C1049 C 0.54549 0.97499 0.11648 0.0
C1050 C 0.53203 0.95053 0.12737 0.0
H1051 H 0.42693 0.89771 0.11698 0.0
H1052 H 0.45539 0.927 0.11313 0.0
H1053 H 0.44819 0.90206 0.08541 0.0
H1054 H 0.49565 0.92231 0.06836 0.0
H1055 H 0.51886 0.9652 0.04964 0.0
H1056 H 0.21478 0.31096 0.70716 0.0
H1057 H 0.19399 0.26805 0.68539 0.0
H1058 H 0.10826 0.2777 0.70263 0.0
H1059 H 0.12898 0.32156 0.72311 0.0
H1060 H 0.16249 0.22403 0.70318 0.0
H1061 H 0.09879 0.25728 0.62079 0.0
H1062 H 0.12477 0.2799 0.64274 0.0
H1063 H 0.08911 0.26561 0.65587 0.0
C1064 C 0.19145 0.30429 0.70602 0.0
C1065 C 0.17371 0.32032 0.71658 0.0
C1066 C 0.17952 0.27943 0.6937 0.0
C1067 C 0.1494 0.26951 0.69157 0.0
C1068 C 0.13154 0.28496 0.7031 0.0
H1069 H 0.07448 0.10194 0.64802 0.0
H1070 H 0.09153 0.14432 0.67292 0.0
C1071 C 0.1435 0.31003 0.7153 0.0
C1072 C 0.13712 0.24306 0.67744 0.0
H1073 H 0.09151 0.2114 0.62474 0.0
C1074 C 0.14694 0.22135 0.68604 0.0
C1075 C 0.11717 0.23929 0.65463 0.0
C1076 C 0.10705 0.26178 0.64273 0.0
C1077 C 0.13751 0.19633 0.67273 0.0
C1078 C 0.11683 0.19236 0.65053 0.0
C1079 C 0.10707 0.21409 0.64188 0.0
C1080 C 0.10578 0.1662 0.63539 0.0
C1081 C 0.15072 0.17467 0.68204 0.0
C1082 C 0.10692 0.16403 0.60575 0.0
C1083 C 0.09663 0.13979 0.59137 0.0
C1084 C 0.08494 0.11683 0.60617 0.0
C1085 C 0.08361 0.11901 0.63584 0.0
C1086 C 0.09361 0.14335 0.65019 0.0
H1087 H 0.17198 0.18257 0.69257 0.0
H1088 H 0.13616 0.16262 0.69748 0.0
H1089 H 0.15383 0.16178 0.6639 0.0
H1090 H 0.11604 0.18115 0.59361 0.0
H1091 H 0.09808 0.13905 0.56856 0.0
H1092 H 0.66251 0.1899 0.50214 0.0
H1093 H 0.64467 0.22976 0.50029 0.0
H1094 H 0.70413 0.2656 0.56678 0.0
H1095 H 0.72145 0.22547 0.56912 0.0
H1096 H 0.65011 0.27589 0.57321 0.0
H1097 H 0.69201 0.2958 0.46465 0.0
H1098 H 0.66728 0.26434 0.4678 0.0
H1099 H 0.7015 0.27135 0.48596 0.0
C1100 C 0.67127 0.20614 0.51671 0.0
C1101 C 0.69295 0.20463 0.53609 0.0
C1102 C 0.66133 0.22893 0.51546 0.0
C1103 C 0.67339 0.25072 0.53313 0.0
C1104 C 0.69455 0.24898 0.55299 0.0
H1105 H 0.66848 0.41062 0.5025 0.0
H1106 H 0.68271 0.36988 0.51085 0.0
C1107 C 0.70436 0.22613 0.55436 0.0
C1108 C 0.66482 0.27568 0.53021 0.0
H1109 H 0.66333 0.32323 0.48343 0.0
C1110 C 0.653 0.2863 0.55362 0.0
C1111 C 0.66915 0.2894 0.50476 0.0
C1112 C 0.68344 0.27982 0.47944 0.0
C1113 C 0.64499 0.31017 0.55214 0.0
C1114 C 0.6484 0.32342 0.52637 0.0
C1115 C 0.66053 0.31292 0.50309 0.0
C1116 C 0.6399 0.34838 0.52302 0.0
C1117 C 0.63356 0.32124 0.5783 0.0
C1118 C 0.61111 0.34977 0.5271 0.0
C1119 C 0.60297 0.37305 0.52245 0.0
C1120 C 0.62341 0.3952 0.51325 0.0
C1121 C 0.65223 0.39377 0.50931 0.0
C1122 C 0.66039 0.37057 0.51417 0.0
H1123 H 0.63992 0.3128 0.59777 0.0
H1124 H 0.64153 0.34288 0.57991 0.0
H1125 H 0.60958 0.31641 0.57733 0.0
H1126 H 0.59481 0.3327 0.53325 0.0
H1127 H 0.58053 0.37352 0.52528 0.0
loop_
_geom_bond_atom_site_label_1
_geom_bond_atom_site_label_2
_geom_bond_distance
_geom_bond_site_symmetry_2
_ccdc_geom_bond_type
H0 C7 0.929 . S
H1 C10 0.930 . S
H2 C12 0.929 . S
H3 C4 0.969 . S
C4 H3 0.969 . S
C4 O5 1.550 . S
C4 H6 0.973 . S
O5 C4 1.550 . S
O5 C11 1.412 . S
H6 C4 0.973 . S
C7 H0 0.929 . S
C7 C8 1.400 . S
C7 C9 1.364 . S
C8 C7 1.400 . S
C8 C12 1.377 . S
C9 C7 1.364 . S
C9 C10 1.374 . S
C10 H1 0.930 . S
C10 C9 1.374 . S
C10 C11 1.383 . S
C11 O5 1.412 . S
C11 C10 1.383 . S
C11 C12 1.394 . S
C12 H2 0.929 . S
C12 C8 1.377 . S
C12 C11 1.394 . S
H13 C20 0.929 . S
H14 C23 0.930 . S
H15 C25 0.929 . S
H16 C17 0.969 . S
C17 H16 0.969 . S
C17 O18 1.550 . S
C17 H19 0.973 . S
O18 C17 1.550 . S
O18 C24 1.412 . S
H19 C17 0.973 . S
C20 H13 0.929 . S
C20 C21 1.400 . S
C20 C22 1.364 . S
C21 C20 1.400 . S
C21 C25 1.377 . S
C22 C20 1.364 . S
C22 C23 1.374 . S
C23 H14 0.930 . S
C23 C22 1.374 . S
C23 C24 1.383 . S
C24 O18 1.412 . S
C24 C23 1.383 . S
C24 C25 1.394 . S
C25 H15 0.929 . S
C25 C21 1.377 . S
C25 C24 1.394 . S
H26 C33 0.929 . S
H27 C36 0.930 . S
H28 C38 0.929 . S
H29 C30 0.969 . S
C30 H29 0.969 . S
C30 O31 1.550 . S
C30 H32 0.973 . S
O31 C30 1.550 . S
O31 C37 1.412 . S
H32 C30 0.973 . S
C33 H26 0.929 . S
C33 C34 1.400 . S
C33 C35 1.364 . S
C34 C33 1.400 . S
C34 C38 1.377 . S
C35 C33 1.364 . S
C35 C36 1.374 . S
C36 H27 0.930 . S
C36 C35 1.374 . S
C36 C37 1.383 . S
C37 O31 1.412 . S
C37 C36 1.383 . S
C37 C38 1.394 . S
C38 H28 0.929 . S
C38 C34 1.377 . S
C38 C37 1.394 . S
H39 C46 0.929 . S
H40 C49 0.930 . S
H41 C51 0.929 . S
H42 C43 0.969 . S
C43 H42 0.969 . S
C43 O44 1.550 . S
C43 H45 0.973 . S
O44 C43 1.550 . S
O44 C50 1.412 . S
H45 C43 0.973 . S
C46 H39 0.929 . S
C46 C47 1.400 . S
C46 C48 1.364 . S
C47 C46 1.400 . S
C47 C51 1.377 . S
C48 C46 1.364 . S
C48 C49 1.374 . S
C49 H40 0.930 . S
C49 C48 1.374 . S
C49 C50 1.383 . S
C50 O44 1.412 . S
C50 C49 1.383 . S
C50 C51 1.394 . S
C51 H41 0.929 . S
C51 C47 1.377 . S
C51 C50 1.394 . S
H52 C59 0.929 . S
H53 C62 0.930 . S
H54 C64 0.929 . S
H55 C56 0.969 . S
C56 H55 0.969 . S
C56 O57 1.550 . S
C56 H58 0.973 . S
O57 C56 1.550 . S
O57 C63 1.412 . S
H58 C56 0.973 . S
C59 H52 0.929 . S
C59 C60 1.400 . S
C59 C61 1.364 . S
C60 C59 1.400 . S
C60 C64 1.377 . S
C61 C59 1.364 . S
C61 C62 1.374 . S
C62 H53 0.930 . S
C62 C61 1.374 . S
C62 C63 1.383 . S
C63 O57 1.412 . S
C63 C62 1.383 . S
C63 C64 1.394 . S
C64 H54 0.929 . S
C64 C60 1.377 . S
C64 C63 1.394 . S
H65 C72 0.929 . S
H66 C75 0.930 . S
H67 C77 0.929 . S
H68 C69 0.969 . S
C69 H68 0.969 . S
C69 O70 1.550 . S
C69 H71 0.973 . S
O70 C69 1.550 . S
O70 C76 1.412 . S
H71 C69 0.973 . S
C72 H65 0.929 . S
C72 C73 1.400 . S
C72 C74 1.364 . S
C73 C72 1.400 . S
C73 C77 1.377 . S
C74 C72 1.364 . S
C74 C75 1.374 . S
C75 H66 0.930 . S
C75 C74 1.374 . S
C75 C76 1.383 . S
C76 O70 1.412 . S
C76 C75 1.383 . S
C76 C77 1.394 . S
C77 H67 0.929 . S
C77 C73 1.377 . S
C77 C76 1.394 . S
H78 C85 0.929 . S
H79 C88 0.930 . S
H80 C90 0.929 . S
H81 C82 0.969 . S
C82 H81 0.969 . S
C82 O83 1.550 . S
C82 H84 0.973 . S
O83 C82 1.550 . S
O83 C89 1.412 . S
H84 C82 0.973 . S
C85 H78 0.929 . S
C85 C86 1.400 . S
C85 C87 1.364 . S
C86 C85 1.400 . S
C86 C90 1.377 . S
C87 C85 1.364 . S
C87 C88 1.374 . S
C88 H79 0.930 . S
C88 C87 1.374 . S
C88 C89 1.383 . S
C89 O83 1.412 . S
C89 C88 1.383 . S
C89 C90 1.394 . S
C90 H80 0.929 . S
C90 C86 1.377 . S
C90 C89 1.394 . S
H91 C98 0.929 . S
H92 C101 0.930 . S
H93 C103 0.929 . S
H94 C95 0.969 . S
C95 H94 0.969 . S
C95 O96 1.550 . S
C95 H97 0.973 . S
O96 C95 1.550 . S
O96 C102 1.412 . S
H97 C95 0.973 . S
C98 H91 0.929 . S
C98 C99 1.400 . S
C98 C100 1.364 . S
C99 C98 1.400 . S
C99 C103 1.377 . S
C100 C98 1.364 . S
C100 C101 1.374 . S
C101 H92 0.930 . S
C101 C100 1.374 . S
C101 C102 1.383 . S
C102 O96 1.412 . S
C102 C101 1.383 . S
C102 C103 1.394 . S
C103 H93 0.929 . S
C103 C99 1.377 . S
C103 C102 1.394 . S
La104 C106 2.928 . S
La104 O124 2.521 . S
La104 O125 2.628 . S
La104 O126 2.554 . S
La104 O127 2.779 . S
La104 O128 2.470 . S
La104 O133 2.482 . S
La104 O135 2.503 1_545 S
La105 C115 2.939 1_545 S
La105 O127 2.479 1_655 S
La105 O129 2.490 1_655 S
La105 O130 2.540 1_545 S
La105 O131 2.628 1_545 S
La105 O132 2.574 . S
La105 O133 2.757 1_655 S
La105 O134 2.476 1_545 S
C106 La104 2.928 . S
C106 C107 1.503 . S
C106 O124 1.261 . S
C106 O125 1.243 . S
C107 C106 1.503 . S
C107 C108 1.394 . S
C107 C112 1.373 . S
C108 C107 1.394 . S
C108 C109 1.380 . S
C108 H136 0.930 . S
C109 C108 1.380 . S
C109 C110 1.376 . S
C109 H137 0.930 . S
C110 C109 1.376 . S
C110 C111 1.370 . S
C111 C110 1.370 . S
C111 C112 1.396 . S
C111 H138 0.929 . S
C112 C107 1.373 . S
C112 C111 1.396 . S
C112 H139 0.929 . S
C113 O126 1.240 1_565 S
C113 O127 1.276 1_565 S
C114 O128 1.258 . S
C114 O129 1.256 . S
C115 La105 2.939 1_565 S
C115 C116 1.503 . S
C115 O130 1.261 . S
C115 O131 1.243 . S
C116 C115 1.503 . S
C116 C117 1.394 . S
C116 C121 1.373 . S
C117 C116 1.394 . S
C117 C118 1.380 . S
C117 H140 0.930 . S
C118 C117 1.380 . S
C118 C119 1.376 . S
C118 H141 0.930 . S
C119 C118 1.376 . S
C119 C120 1.370 . S
C120 C119 1.370 . S
C120 C121 1.396 . S
C120 H142 0.929 . S
C121 C116 1.373 . S
C121 C120 1.396 . S
C121 H143 0.929 . S
C122 O132 1.240 . S
C122 O133 1.289 1_655 S
C123 O134 1.258 . S
C123 O135 1.256 1_655 S
O124 La104 2.521 . S
O124 C106 1.261 . S
O125 La104 2.628 . S
O125 C106 1.243 . S
O126 La104 2.554 . S
O126 C113 1.240 1_545 S
O127 La104 2.779 . S
O127 La105 2.479 1_455 S
O127 C113 1.276 1_545 S
O128 La104 2.470 . S
O128 C114 1.258 . S
O129 La105 2.490 1_455 S
O129 C114 1.256 . S
O130 La105 2.540 1_565 S
O130 C115 1.261 . S
O131 La105 2.628 1_565 S
O131 C115 1.243 . S
O132 La105 2.574 . S
O132 C122 1.240 . S
O133 La104 2.482 . S
O133 La105 2.757 1_455 S
O133 C122 1.289 1_455 S
O134 La105 2.476 1_565 S
O134 C123 1.258 . S
O135 La104 2.503 1_565 S
O135 C123 1.256 1_455 S
H136 C108 0.930 . S
H137 C109 0.930 . S
H138 C111 0.929 . S
H139 C112 0.929 . S
H140 C117 0.930 . S
H141 C118 0.930 . S
H142 C120 0.929 . S
H143 C121 0.929 . S
La144 C146 2.928 . S
La144 O164 2.521 . S
La144 O165 2.628 . S
La144 O166 2.554 1_545 S
La144 O167 2.757 1_545 S
La144 O168 2.470 . S
La144 O173 2.482 . S
La144 O175 2.503 1_544 S
La145 C155 2.928 1_545 S
La145 O167 2.482 1_546 S
La145 O169 2.503 1_556 S
La145 O170 2.521 1_545 S
La145 O171 2.628 1_545 S
La145 O172 2.554 . S
La145 O173 2.757 1_556 S
La145 O174 2.470 1_545 S
C146 La144 2.928 . S
C146 C147 1.503 . S
C146 O164 1.261 . S
C146 O165 1.243 . S
C147 C146 1.503 . S
C147 C148 1.394 . S
C147 C152 1.373 . S
C148 C147 1.394 . S
C148 C149 1.380 . S
C148 H176 0.930 . S
C149 C148 1.380 . S
C149 C150 1.376 . S
C149 H177 0.930 . S
C150 C149 1.376 . S
C150 C151 1.370 . S
C151 C150 1.370 . S
C151 C152 1.396 . S
C151 H178 0.929 . S
C152 C147 1.373 . S
C152 C151 1.396 . S
C152 H179 0.929 . S
C153 O166 1.240 . S
C153 O167 1.289 . S
C154 O168 1.258 . S
C154 O169 1.256 . S
C155 La145 2.928 1_565 S
C155 C156 1.503 . S
C155 O170 1.261 . S
C155 O171 1.243 . S
C156 C155 1.503 . S
C156 C157 1.394 . S
C156 C161 1.373 . S
C157 C156 1.394 . S
C157 C158 1.380 . S
C157 H180 0.930 . S
C158 C157 1.380 . S
C158 C159 1.376 . S
C158 H181 0.930 . S
C159 C158 1.376 . S
C159 C160 1.370 . S
C160 C159 1.370 . S
C160 C161 1.396 . S
C160 H182 0.929 . S
C161 C156 1.373 . S
C161 C160 1.396 . S
C161 H183 0.929 . S
C162 O172 1.240 . S
C162 O173 1.289 1_556 S
C163 O174 1.258 . S
C163 O175 1.256 . S
O164 La144 2.521 . S
O164 C146 1.261 . S
O165 La144 2.628 . S
O165 C146 1.243 . S
O166 La144 2.554 1_565 S
O166 C153 1.240 . S
O167 La144 2.757 1_565 S
O167 La145 2.482 1_564 S
O167 C153 1.289 . S
O168 La144 2.470 . S
O168 C154 1.258 . S
O169 La145 2.503 1_554 S
O169 C154 1.256 . S
O170 La145 2.521 1_565 S
O170 C155 1.261 . S
O171 La145 2.628 1_565 S
O171 C155 1.243 . S
O172 La145 2.554 . S
O172 C162 1.240 . S
O173 La144 2.482 . S
O173 La145 2.757 1_554 S
O173 C162 1.289 1_554 S
O174 La145 2.470 1_565 S
O174 C163 1.258 . S
O175 La144 2.503 1_566 S
O175 C163 1.256 . S
H176 C148 0.930 . S
H177 C149 0.930 . S
H178 C151 0.929 . S
H179 C152 0.929 . S
H180 C157 0.930 . S
H181 C158 0.930 . S
H182 C160 0.929 . S
H183 C161 0.929 . S
La184 C186 2.928 . S
La184 O204 2.521 . S
La184 O205 2.628 . S
La184 O206 2.554 . S
La184 O207 2.757 . S
La184 O208 2.470 . S
La184 O213 2.482 . S
La184 O215 2.503 . S
La185 C195 2.928 . S
La185 O207 2.482 . S
La185 O209 2.503 . S
La185 O210 2.521 . S
La185 O211 2.628 . S
La185 O212 2.554 . S
La185 O213 2.757 . S
La185 O214 2.470 . S
C186 La184 2.928 . S
C186 C187 1.503 . S
C186 O204 1.261 . S
C186 O205 1.243 . S
C187 C186 1.503 . S
C187 C188 1.394 . S
C187 C192 1.373 . S
C188 C187 1.394 . S
C188 C189 1.380 . S
C188 H216 0.930 . S
C189 C188 1.380 . S
C189 C190 1.376 . S
C189 H217 0.930 . S
C190 C189 1.376 . S
C190 C191 1.370 . S
C191 C190 1.370 . S
C191 C192 1.396 . S
C191 H218 0.929 . S
C192 C187 1.373 . S
C192 C191 1.396 . S
C192 H219 0.929 . S
C193 O206 1.240 . S
C193 O207 1.289 . S
C194 O208 1.258 . S
C194 O209 1.256 . S
C195 La185 2.928 . S
C195 C196 1.503 . S
C195 O210 1.261 . S
C195 O211 1.243 . S
C196 C195 1.503 . S
C196 C197 1.394 . S
C196 C201 1.373 . S
C197 C196 1.394 . S
C197 C198 1.380 . S
C197 H220 0.930 . S
C198 C197 1.380 . S
C198 C199 1.376 . S
C198 H221 0.930 . S
C199 C198 1.376 . S
C199 C200 1.370 . S
C200 C199 1.370 . S
C200 C201 1.396 . S
C200 H222 0.929 . S
C201 C196 1.373 . S
C201 C200 1.396 . S
C201 H223 0.929 . S
C202 O212 1.240 . S
C202 O213 1.289 . S
C203 O214 1.258 . S
C203 O215 1.256 . S
O204 La184 2.521 . S
O204 C186 1.261 . S
O205 La184 2.628 . S
O205 C186 1.243 . S
O206 La184 2.554 . S
O206 C193 1.240 . S
O207 La184 2.757 . S
O207 La185 2.482 . S
O207 C193 1.289 . S
O208 La184 2.470 . S
O208 C194 1.258 . S
O209 La185 2.503 . S
O209 C194 1.256 . S
O210 La185 2.521 . S
O210 C195 1.261 . S
O211 La185 2.628 . S
O211 C195 1.243 . S
O212 La185 2.554 . S
O212 C202 1.240 . S
O213 La184 2.482 . S
O213 La185 2.757 . S
O213 C202 1.289 . S
O214 La185 2.470 . S
O214 C203 1.258 . S
O215 La184 2.503 . S
O215 C203 1.256 . S
H216 C188 0.930 . S
H217 C189 0.930 . S
H218 C191 0.929 . S
H219 C192 0.929 . S
H220 C197 0.930 . S
H221 C198 0.930 . S
H222 C200 0.929 . S
H223 C201 0.929 . S
La224 C226 2.928 . S
La224 O244 2.521 . S
La224 O245 2.628 . S
La224 O246 2.554 . S
La224 O247 2.757 . S
La224 O248 2.470 . S
La224 O253 2.482 . S
La224 O255 2.503 1_455 S
La225 C235 2.928 1_454 S
La225 O247 2.482 . S
La225 O249 2.503 . S
La225 O250 2.521 1_554 S
La225 O251 2.628 1_455 S
La225 O252 2.554 1_554 S
La225 O253 2.757 . S
La225 O254 2.475 1_455 S
C226 La224 2.928 . S
C226 C227 1.503 . S
C226 O244 1.261 . S
C226 O245 1.243 . S
C227 C226 1.503 . S
C227 C228 1.394 . S
C227 C232 1.373 . S
C228 C227 1.394 . S
C228 C229 1.380 . S
C228 H256 0.930 . S
C229 C228 1.380 . S
C229 C230 1.376 . S
C229 H257 0.930 . S
C230 C229 1.376 . S
C230 C231 1.370 . S
C231 C230 1.370 . S
C231 C232 1.396 . S
C231 H258 0.929 . S
C232 C227 1.373 . S
C232 C231 1.396 . S
C232 H259 0.929 . S
C233 O246 1.240 . S
C233 O247 1.289 . S
C234 O248 1.258 . S
C234 O249 1.256 . S
C235 La225 2.928 1_656 S
C235 C236 1.503 . S
C235 O250 1.261 1_655 S
C235 O251 1.243 1_556 S
C236 C235 1.503 . S
C236 C237 1.394 . S
C236 C241 1.373 . S
C237 C236 1.394 . S
C237 C238 1.380 . S
C237 H260 0.930 . S
C238 C237 1.380 . S
C238 C239 1.376 . S
C238 H261 0.930 . S
C239 C238 1.376 . S
C239 C240 1.370 . S
C240 C239 1.370 . S
C240 C241 1.396 . S
C240 H262 0.929 . S
C241 C236 1.373 . S
C241 C240 1.396 . S
C241 H263 0.929 1_556 S
C242 O252 1.240 . S
C242 O253 1.289 1_556 S
C243 O254 1.267 . S
C243 O255 1.256 . S
O244 La224 2.521 . S
O244 C226 1.261 . S
O245 La224 2.628 . S
O245 C226 1.243 . S
O246 La224 2.554 . S
O246 C233 1.240 . S
O247 La224 2.757 . S
O247 La225 2.482 . S
O247 C233 1.289 . S
O248 La224 2.470 . S
O248 C234 1.258 . S
O249 La225 2.503 . S
O249 C234 1.256 . S
O250 La225 2.521 1_556 S
O250 C235 1.261 1_455 S
O251 La225 2.628 1_655 S
O251 C235 1.243 1_554 S
O252 La225 2.554 1_556 S
O252 C242 1.240 . S
O253 La224 2.482 . S
O253 La225 2.757 . S
O253 C242 1.289 1_554 S
O254 La225 2.475 1_655 S
O254 C243 1.267 . S
O255 La224 2.503 1_655 S
O255 C243 1.256 . S
H256 C228 0.930 . S
H257 C229 0.930 . S
H258 C231 0.929 . S
H259 C232 0.929 . S
H260 C237 0.930 . S
H261 C238 0.930 . S
H262 C240 0.929 . S
H263 C241 0.929 1_554 S
H264 C272 0.929 . S
H265 C274 0.930 . S
H266 C276 0.930 . S
H267 C279 0.929 . S
H268 C282 0.930 . S
H269 C284 0.960 . S
H270 C284 0.960 . S
H271 C284 0.960 . S
C272 H264 0.929 . S
C272 C273 1.377 . S
C272 C274 1.384 . S
C273 C272 1.377 . S
C273 C279 1.390 . S
C274 H265 0.930 . S
C274 C272 1.384 . S
C274 C275 1.372 . S
C275 C274 1.372 . S
C275 C276 1.400 . S
C275 C280 1.490 . S
C276 H266 0.930 . S
C276 C275 1.400 . S
C276 C279 1.386 . S
H277 C293 0.930 . S
H278 C294 0.931 . S
C279 H267 0.929 . S
C279 C273 1.390 . S
C279 C276 1.386 . S
C280 C275 1.490 . S
C280 C282 1.395 . S
C280 C283 1.403 . S
H281 C287 0.930 . S
C282 H268 0.930 . S
C282 C280 1.395 . S
C282 C285 1.403 . S
C283 C280 1.403 . S
C283 C284 1.524 . S
C283 C287 1.400 . S
C284 H269 0.960 . S
C284 H270 0.960 . S
C284 H271 0.960 . S
C284 C283 1.524 . S
C285 C282 1.403 . S
C285 C286 1.392 . S
C285 C289 1.495 . S
C286 C285 1.392 . S
C286 C287 1.385 . S
C286 C288 1.478 . S
C287 H281 0.930 . S
C287 C283 1.400 . S
C287 C286 1.385 . S
C288 C286 1.478 . S
C288 C290 1.381 . S
C288 C294 1.383 . S
C289 C285 1.495 . S
C289 H295 0.959 . S
C289 H296 0.961 . S
C289 H297 0.960 . S
C290 C288 1.381 . S
C290 C291 1.394 . S
C290 H298 0.930 . S
C291 C290 1.394 . S
C291 C292 1.383 . S
C291 H299 0.929 . S
C292 C291 1.383 . S
C292 C293 1.377 . S
C293 H277 0.930 . S
C293 C292 1.377 . S
C293 C294 1.379 . S
C294 H278 0.931 . S
C294 C288 1.383 . S
C294 C293 1.379 . S
H295 C289 0.959 . S
H296 C289 0.961 . S
H297 C289 0.960 . S
H298 C290 0.930 . S
H299 C291 0.929 . S
H300 C308 0.929 . S
H301 C310 0.930 . S
H302 C312 0.930 . S
H303 C315 0.929 . S
H304 C318 0.930 . S
H305 C320 0.960 . S
H306 C320 0.960 . S
H307 C320 0.960 . S
C308 H300 0.929 . S
C308 C309 1.377 . S
C308 C310 1.384 . S
C309 C308 1.377 . S
C309 C315 1.390 . S
C310 H301 0.930 . S
C310 C308 1.384 . S
C310 C311 1.372 . S
C311 C310 1.372 . S
C311 C312 1.400 . S
C311 C316 1.490 . S
C312 H302 0.930 . S
C312 C311 1.400 . S
C312 C315 1.386 . S
H313 C329 0.930 . S
H314 C330 0.931 . S
C315 H303 0.929 . S
C315 C309 1.390 . S
C315 C312 1.386 . S
C316 C311 1.490 . S
C316 C318 1.395 . S
C316 C319 1.403 . S
H317 C323 0.930 . S
C318 H304 0.930 . S
C318 C316 1.395 . S
C318 C321 1.403 . S
C319 C316 1.403 . S
C319 C320 1.524 . S
C319 C323 1.400 . S
C320 H305 0.960 . S
C320 H306 0.960 . S
C320 H307 0.960 . S
C320 C319 1.524 . S
C321 C318 1.403 . S
C321 C322 1.392 . S
C321 C325 1.495 . S
C322 C321 1.392 . S
C322 C323 1.385 . S
C322 C324 1.478 . S
C323 H317 0.930 . S
C323 C319 1.400 . S
C323 C322 1.385 . S
C324 C322 1.478 . S
C324 C326 1.381 . S
C324 C330 1.383 . S
C325 C321 1.495 . S
C325 H331 0.959 . S
C325 H332 0.961 . S
C325 H333 0.960 . S
C326 C324 1.381 . S
C326 C327 1.394 . S
C326 H334 0.930 . S
C327 C326 1.394 . S
C327 C328 1.383 . S
C327 H335 0.929 . S
C328 C327 1.383 . S
C328 C329 1.377 . S
C329 H313 0.930 . S
C329 C328 1.377 . S
C329 C330 1.379 . S
C330 H314 0.931 . S
C330 C324 1.383 . S
C330 C329 1.379 . S
H331 C325 0.959 . S
H332 C325 0.961 . S
H333 C325 0.960 . S
H334 C326 0.930 . S
H335 C327 0.929 . S
H336 C344 0.929 . S
H337 C346 0.930 . S
H338 C348 0.930 . S
H339 C351 0.929 . S
H340 C354 0.930 . S
H341 C356 0.960 . S
H342 C356 0.960 . S
H343 C356 0.960 . S
C344 H336 0.929 . S
C344 C345 1.377 . S
C344 C346 1.384 . S
C345 C344 1.377 . S
C345 C351 1.390 . S
C346 H337 0.930 . S
C346 C344 1.384 . S
C346 C347 1.372 . S
C347 C346 1.372 . S
C347 C348 1.400 . S
C347 C352 1.490 . S
C348 H338 0.930 . S
C348 C347 1.400 . S
C348 C351 1.386 . S
H349 C365 0.930 . S
H350 C366 0.931 . S
C351 H339 0.929 . S
C351 C345 1.390 . S
C351 C348 1.386 . S
C352 C347 1.490 . S
C352 C354 1.395 . S
C352 C355 1.403 . S
H353 C359 0.930 . S
C354 H340 0.930 . S
C354 C352 1.395 . S
C354 C357 1.403 . S
C355 C352 1.403 . S
C355 C356 1.524 . S
C355 C359 1.400 . S
C356 H341 0.960 . S
C356 H342 0.960 . S
C356 H343 0.960 . S
C356 C355 1.524 . S
C357 C354 1.403 . S
C357 C358 1.392 . S
C357 C361 1.495 . S
C358 C357 1.392 . S
C358 C359 1.385 . S
C358 C360 1.478 . S
C359 H353 0.930 . S
C359 C355 1.400 . S
C359 C358 1.385 . S
C360 C358 1.478 . S
C360 C362 1.381 . S
C360 C366 1.383 . S
C361 C357 1.495 . S
C361 H367 0.959 . S
C361 H368 0.961 . S
C361 H369 0.960 . S
C362 C360 1.381 . S
C362 C363 1.394 . S
C362 H370 0.930 . S
C363 C362 1.394 . S
C363 C364 1.383 . S
C363 H371 0.929 . S
C364 C363 1.383 . S
C364 C365 1.377 . S
C365 H349 0.930 . S
C365 C364 1.377 . S
C365 C366 1.379 . S
C366 H350 0.931 . S
C366 C360 1.383 . S
C366 C365 1.379 . S
H367 C361 0.959 . S
H368 C361 0.961 . S
H369 C361 0.960 . S
H370 C362 0.930 . S
H371 C363 0.929 . S
H372 C380 0.929 . S
H373 C382 0.930 . S
H374 C384 0.930 . S
H375 C387 0.929 . S
H376 C390 0.930 . S
H377 C392 0.960 1_455 S
H378 C392 0.960 . S
H379 C392 0.960 . S
C380 H372 0.929 . S
C380 C381 1.377 . S
C380 C382 1.384 . S
C381 C380 1.377 . S
C381 C387 1.390 . S
C382 H373 0.930 . S
C382 C380 1.384 . S
C382 C383 1.372 . S
C383 C382 1.372 . S
C383 C384 1.400 . S
C383 C388 1.490 . S
C384 H374 0.930 . S
C384 C383 1.400 . S
C384 C387 1.386 . S
H385 C401 0.930 . S
H386 C402 0.931 . S
C387 H375 0.929 . S
C387 C381 1.390 . S
C387 C384 1.386 . S
C388 C383 1.490 . S
C388 C390 1.395 . S
C388 C391 1.403 . S
H389 C395 0.930 . S
C390 H376 0.930 . S
C390 C388 1.395 . S
C390 C393 1.403 . S
C391 C388 1.403 . S
C391 C392 1.524 . S
C391 C395 1.400 . S
C392 H377 0.960 1_655 S
C392 H378 0.960 . S
C392 H379 0.960 . S
C392 C391 1.524 . S
C393 C390 1.403 . S
C393 C394 1.392 . S
C393 C397 1.495 . S
C394 C393 1.392 . S
C394 C395 1.385 . S
C394 C396 1.478 . S
C395 H389 0.930 . S
C395 C391 1.400 . S
C395 C394 1.385 . S
C396 C394 1.478 . S
C396 C398 1.381 . S
C396 C402 1.383 . S
C397 C393 1.495 . S
C397 H403 0.959 . S
C397 H404 0.961 . S
C397 H405 0.960 . S
C398 C396 1.381 . S
C398 C399 1.394 . S
C398 H406 0.930 . S
C399 C398 1.394 . S
C399 C400 1.383 . S
C399 H407 0.929 . S
C400 C399 1.383 . S
C400 C401 1.377 . S
C401 H385 0.930 . S
C401 C400 1.377 . S
C401 C402 1.379 . S
C402 H386 0.931 . S
C402 C396 1.383 . S
C402 C401 1.379 . S
H403 C397 0.959 . S
H404 C397 0.961 . S
H405 C397 0.960 . S
H406 C398 0.930 . S
H407 C399 0.929 . S
H408 C416 0.929 . S
H409 C418 0.930 . S
H410 C420 0.930 . S
H411 C423 0.929 . S
H412 C426 0.930 . S
H413 C428 0.960 . S
H414 C428 0.960 . S
H415 C428 0.960 . S
C416 H408 0.929 . S
C416 C417 1.377 . S
C416 C418 1.384 . S
C417 C416 1.377 . S
C417 C423 1.390 . S
C418 H409 0.930 . S
C418 C416 1.384 . S
C418 C419 1.372 . S
C419 C418 1.372 . S
C419 C420 1.400 . S
C419 C424 1.490 . S
C420 H410 0.930 . S
C420 C419 1.400 . S
C420 C423 1.386 . S
H421 C437 0.930 . S
H422 C438 0.931 . S
C423 H411 0.929 . S
C423 C417 1.390 . S
C423 C420 1.386 . S
C424 C419 1.490 . S
C424 C426 1.395 . S
C424 C427 1.403 . S
H425 C431 0.930 . S
C426 H412 0.930 . S
C426 C424 1.395 . S
C426 C429 1.403 . S
C427 C424 1.403 . S
C427 C428 1.524 . S
C427 C431 1.400 . S
C428 H413 0.960 . S
C428 H414 0.960 . S
C428 H415 0.960 . S
C428 C427 1.524 . S
C429 C426 1.403 . S
C429 C430 1.392 . S
C429 C433 1.495 . S
C430 C429 1.392 . S
C430 C431 1.385 . S
C430 C432 1.478 . S
C431 H425 0.930 . S
C431 C427 1.400 . S
C431 C430 1.385 . S
C432 C430 1.478 . S
C432 C434 1.381 . S
C432 C438 1.383 . S
C433 C429 1.495 . S
C433 H439 0.959 . S
C433 H440 0.961 . S
C433 H441 0.960 . S
C434 C432 1.381 . S
C434 C435 1.394 . S
C434 H442 0.930 . S
C435 C434 1.394 . S
C435 C436 1.383 . S
C435 H443 0.929 . S
C436 C435 1.383 . S
C436 C437 1.377 . S
C437 H421 0.930 . S
C437 C436 1.377 . S
C437 C438 1.379 . S
C438 H422 0.931 . S
C438 C432 1.383 . S
C438 C437 1.379 . S
H439 C433 0.959 . S
H440 C433 0.961 . S
H441 C433 0.960 . S
H442 C434 0.930 . S
H443 C435 0.929 . S
H444 C452 0.929 . S
H445 C454 0.930 . S
H446 C456 0.930 . S
H447 C459 0.929 . S
H448 C462 0.930 . S
H449 C464 0.960 . S
H450 C464 0.960 . S
H451 C464 0.960 . S
C452 H444 0.929 . S
C452 C453 1.377 . S
C452 C454 1.384 . S
C453 C452 1.377 . S
C453 C459 1.390 . S
C454 H445 0.930 . S
C454 C452 1.384 . S
C454 C455 1.372 . S
C455 C454 1.372 . S
C455 C456 1.400 . S
C455 C460 1.490 . S
C456 H446 0.930 . S
C456 C455 1.400 . S
C456 C459 1.386 . S
H457 C473 0.930 . S
H458 C474 0.931 . S
C459 H447 0.929 . S
C459 C453 1.390 . S
C459 C456 1.386 . S
C460 C455 1.490 . S
C460 C462 1.395 . S
C460 C463 1.403 . S
H461 C467 0.930 . S
C462 H448 0.930 . S
C462 C460 1.395 . S
C462 C465 1.403 . S
C463 C460 1.403 . S
C463 C464 1.524 . S
C463 C467 1.400 . S
C464 H449 0.960 . S
C464 H450 0.960 . S
C464 H451 0.960 . S
C464 C463 1.524 . S
C465 C462 1.403 . S
C465 C466 1.392 . S
C465 C469 1.495 . S
C466 C465 1.392 . S
C466 C467 1.385 . S
C466 C468 1.478 . S
C467 H461 0.930 . S
C467 C463 1.400 . S
C467 C466 1.385 . S
C468 C466 1.478 . S
C468 C470 1.381 . S
C468 C474 1.383 . S
C469 C465 1.495 . S
C469 H475 0.959 . S
C469 H476 0.961 . S
C469 H477 0.960 . S
C470 C468 1.381 . S
C470 C471 1.394 . S
C470 H478 0.930 . S
C471 C470 1.394 . S
C471 C472 1.383 . S
C471 H479 0.929 . S
C472 C471 1.383 . S
C472 C473 1.377 . S
C473 H457 0.930 . S
C473 C472 1.377 . S
C473 C474 1.379 . S
C474 H458 0.931 . S
C474 C468 1.383 . S
C474 C473 1.379 . S
H475 C469 0.959 . S
H476 C469 0.961 . S
H477 C469 0.960 . S
H478 C470 0.930 . S
H479 C471 0.929 . S
H480 C488 0.929 . S
H481 C490 0.930 . S
H482 C492 0.930 . S
H483 C495 0.929 . S
H484 C498 0.930 . S
H485 C500 0.960 . S
H486 C500 0.960 . S
H487 C500 0.960 . S
C488 H480 0.929 . S
C488 C489 1.377 . S
C488 C490 1.384 . S
C489 C488 1.377 . S
C489 C495 1.390 . S
C490 H481 0.930 . S
C490 C488 1.384 . S
C490 C491 1.372 . S
C491 C490 1.372 . S
C491 C492 1.400 . S
C491 C496 1.490 . S
C492 H482 0.930 . S
C492 C491 1.400 . S
C492 C495 1.386 . S
H493 C509 0.930 1_554 S
H494 C510 0.931 . S
C495 H483 0.929 . S
C495 C489 1.390 . S
C495 C492 1.386 . S
C496 C491 1.490 . S
C496 C498 1.395 . S
C496 C499 1.403 . S
H497 C503 0.930 . S
C498 H484 0.930 . S
C498 C496 1.395 . S
C498 C501 1.403 . S
C499 C496 1.403 . S
C499 C500 1.524 . S
C499 C503 1.400 . S
C500 H485 0.960 . S
C500 H486 0.960 . S
C500 H487 0.960 . S
C500 C499 1.524 . S
C501 C498 1.403 . S
C501 C502 1.392 . S
C501 C505 1.495 . S
C502 C501 1.392 . S
C502 C503 1.385 . S
C502 C504 1.478 . S
C503 H497 0.930 . S
C503 C499 1.400 . S
C503 C502 1.385 . S
C504 C502 1.478 . S
C504 C506 1.381 . S
C504 C510 1.383 . S
C505 C501 1.495 . S
C505 H511 0.959 . S
C505 H512 0.961 1_556 S
C505 H513 0.960 . S
C506 C504 1.381 . S
C506 C507 1.394 . S
C506 H514 0.930 . S
C507 C506 1.394 . S
C507 C508 1.383 1_556 S
C507 H515 0.929 . S
C508 C507 1.383 1_554 S
C508 C509 1.377 1_554 S
C509 H493 0.930 1_556 S
C509 C508 1.377 1_556 S
C509 C510 1.379 . S
C510 H494 0.931 . S
C510 C504 1.383 . S
C510 C509 1.379 . S
H511 C505 0.959 . S
H512 C505 0.961 1_554 S
H513 C505 0.960 . S
H514 C506 0.930 . S
H515 C507 0.929 . S
H516 C524 0.929 . S
H517 C526 0.930 . S
H518 C528 0.930 . S
H519 C531 0.929 . S
H520 C534 0.930 . S
H521 C536 0.960 . S
H522 C536 0.960 . S
H523 C536 0.960 . S
C524 H516 0.929 . S
C524 C525 1.377 . S
C524 C526 1.384 . S
C525 C524 1.377 . S
C525 C531 1.390 . S
C526 H517 0.930 . S
C526 C524 1.384 . S
C526 C527 1.372 . S
C527 C526 1.372 . S
C527 C528 1.400 . S
C527 C532 1.490 . S
C528 H518 0.930 . S
C528 C527 1.400 . S
C528 C531 1.386 . S
H529 C545 0.930 . S
H530 C546 0.931 . S
C531 H519 0.929 . S
C531 C525 1.390 . S
C531 C528 1.386 . S
C532 C527 1.490 . S
C532 C534 1.395 . S
C532 C535 1.403 . S
H533 C539 0.930 . S
C534 H520 0.930 . S
C534 C532 1.395 . S
C534 C537 1.403 . S
C535 C532 1.403 . S
C535 C536 1.524 . S
C535 C539 1.400 . S
C536 H521 0.960 . S
C536 H522 0.960 . S
C536 H523 0.960 . S
C536 C535 1.524 . S
C537 C534 1.403 . S
C537 C538 1.392 . S
C537 C541 1.495 . S
C538 C537 1.392 . S
C538 C539 1.385 . S
C538 C540 1.478 . S
C539 H533 0.930 . S
C539 C535 1.400 . S
C539 C538 1.385 . S
C540 C538 1.478 . S
C540 C542 1.381 . S
C540 C546 1.383 . S
C541 C537 1.495 . S
C541 H547 0.959 . S
C541 H548 0.961 . S
C541 H549 0.960 . S
C542 C540 1.381 . S
C542 C543 1.394 . S
C542 H550 0.930 . S
C543 C542 1.394 . S
C543 C544 1.383 . S
C543 H551 0.929 . S
C544 C543 1.383 . S
C544 C545 1.377 . S
C545 H529 0.930 . S
C545 C544 1.377 . S
C545 C546 1.379 . S
C546 H530 0.931 . S
C546 C540 1.383 . S
C546 C545 1.379 . S
H547 C541 0.959 . S
H548 C541 0.961 . S
H549 C541 0.960 . S
H550 C542 0.930 . S
H551 C543 0.929 . S
H552 C560 0.929 . S
H553 C562 0.930 . S
H554 C564 0.930 . S
H555 C567 0.929 . S
H556 C570 0.930 . S
H557 C572 0.960 . S
H558 C572 0.960 . S
H559 C572 0.960 . S
C560 H552 0.929 . S
C560 C561 1.377 . S
C560 C562 1.384 . S
C561 C560 1.377 . S
C561 C567 1.390 . S
C562 H553 0.930 . S
C562 C560 1.384 . S
C562 C563 1.372 . S
C563 C562 1.372 . S
C563 C564 1.400 . S
C563 C568 1.490 . S
C564 H554 0.930 . S
C564 C563 1.400 . S
C564 C567 1.386 . S
H565 C581 0.930 . S
H566 C582 0.931 . S
C567 H555 0.929 . S
C567 C561 1.390 . S
C567 C564 1.386 . S
C568 C563 1.490 . S
C568 C570 1.395 . S
C568 C571 1.403 . S
H569 C575 0.930 . S
C570 H556 0.930 . S
C570 C568 1.395 . S
C570 C573 1.403 . S
C571 C568 1.403 . S
C571 C572 1.524 . S
C571 C575 1.400 . S
C572 H557 0.960 . S
C572 H558 0.960 . S
C572 H559 0.960 . S
C572 C571 1.524 . S
C573 C570 1.403 . S
C573 C574 1.392 . S
C573 C577 1.495 . S
C574 C573 1.392 . S
C574 C575 1.385 . S
C574 C576 1.478 . S
C575 H569 0.930 . S
C575 C571 1.400 . S
C575 C574 1.385 . S
C576 C574 1.478 . S
C576 C578 1.381 . S
C576 C582 1.383 . S
C577 C573 1.495 . S
C577 H583 0.959 . S
C577 H584 0.961 . S
C577 H585 0.960 . S
C578 C576 1.381 . S
C578 C579 1.394 . S
C578 H586 0.930 . S
C579 C578 1.394 . S
C579 C580 1.383 . S
C579 H587 0.929 . S
C580 C579 1.383 . S
C580 C581 1.377 . S
C581 H565 0.930 . S
C581 C580 1.377 . S
C581 C582 1.379 . S
C582 H566 0.931 . S
C582 C576 1.383 . S
C582 C581 1.379 . S
H583 C577 0.959 . S
H584 C577 0.961 . S
H585 C577 0.960 . S
H586 C578 0.930 . S
H587 C579 0.929 . S
H588 C596 0.929 . S
H589 C598 0.930 . S
H590 C600 0.930 . S
H591 C603 0.929 . S
H592 C606 0.930 . S
H593 C608 0.960 . S
H594 C608 0.960 . S
H595 C608 0.960 . S
C596 H588 0.929 . S
C596 C597 1.377 . S
C596 C598 1.384 . S
C597 C596 1.377 . S
C597 C603 1.390 . S
C598 H589 0.930 . S
C598 C596 1.384 . S
C598 C599 1.372 . S
C599 C598 1.372 . S
C599 C600 1.400 . S
C599 C604 1.490 . S
C600 H590 0.930 . S
C600 C599 1.400 . S
C600 C603 1.386 . S
H601 C617 0.930 . S
H602 C618 0.931 . S
C603 H591 0.929 . S
C603 C597 1.390 . S
C603 C600 1.386 . S
C604 C599 1.490 . S
C604 C606 1.395 . S
C604 C607 1.403 . S
H605 C611 0.930 . S
C606 H592 0.930 . S
C606 C604 1.395 . S
C606 C609 1.403 . S
C607 C604 1.403 . S
C607 C608 1.524 . S
C607 C611 1.400 . S
C608 H593 0.960 . S
C608 H594 0.960 . S
C608 H595 0.960 . S
C608 C607 1.524 . S
C609 C606 1.403 . S
C609 C610 1.392 . S
C609 C613 1.495 . S
C610 C609 1.392 . S
C610 C611 1.385 . S
C610 C612 1.478 . S
C611 H605 0.930 . S
C611 C607 1.400 . S
C611 C610 1.385 . S
C612 C610 1.478 . S
C612 C614 1.381 . S
C612 C618 1.383 . S
C613 C609 1.495 . S
C613 H619 0.959 . S
C613 H620 0.961 . S
C613 H621 0.960 . S
C614 C612 1.381 . S
C614 C615 1.394 . S
C614 H622 0.930 . S
C615 C614 1.394 . S
C615 C616 1.383 . S
C615 H623 0.929 . S
C616 C615 1.383 . S
C616 C617 1.377 . S
C617 H601 0.930 . S
C617 C616 1.377 . S
C617 C618 1.379 . S
C618 H602 0.931 . S
C618 C612 1.383 . S
C618 C617 1.379 . S
H619 C613 0.959 . S
H620 C613 0.961 . S
H621 C613 0.960 . S
H622 C614 0.930 . S
H623 C615 0.929 . S
H624 C632 0.929 . S
H625 C634 0.930 . S
H626 C636 0.930 . S
H627 C639 0.929 . S
H628 C642 0.930 . S
H629 C644 0.960 . S
H630 C644 0.960 . S
H631 C644 0.960 . S
C632 H624 0.929 . S
C632 C633 1.377 . S
C632 C634 1.384 . S
C633 C632 1.377 . S
C633 C639 1.390 . S
C634 H625 0.930 . S
C634 C632 1.384 . S
C634 C635 1.372 . S
C635 C634 1.372 . S
C635 C636 1.400 . S
C635 C640 1.490 . S
C636 H626 0.930 . S
C636 C635 1.400 . S
C636 C639 1.386 . S
H637 C653 0.930 . S
H638 C654 0.931 . S
C639 H627 0.929 . S
C639 C633 1.390 . S
C639 C636 1.386 . S
C640 C635 1.490 . S
C640 C642 1.395 . S
C640 C643 1.403 . S
H641 C647 0.930 . S
C642 H628 0.930 . S
C642 C640 1.395 . S
C642 C645 1.403 . S
C643 C640 1.403 . S
C643 C644 1.524 . S
C643 C647 1.400 . S
C644 H629 0.960 . S
C644 H630 0.960 . S
C644 H631 0.960 . S
C644 C643 1.524 . S
C645 C642 1.403 . S
C645 C646 1.392 . S
C645 C649 1.495 . S
C646 C645 1.392 . S
C646 C647 1.385 . S
C646 C648 1.478 . S
C647 H641 0.930 . S
C647 C643 1.400 . S
C647 C646 1.385 . S
C648 C646 1.478 . S
C648 C650 1.381 . S
C648 C654 1.383 . S
C649 C645 1.495 . S
C649 H655 0.959 . S
C649 H656 0.961 . S
C649 H657 0.960 . S
C650 C648 1.381 . S
C650 C651 1.394 . S
C650 H658 0.930 . S
C651 C650 1.394 . S
C651 C652 1.383 . S
C651 H659 0.929 . S
C652 C651 1.383 . S
C652 C653 1.377 . S
C653 H637 0.930 . S
C653 C652 1.377 . S
C653 C654 1.379 . S
C654 H638 0.931 . S
C654 C648 1.383 . S
C654 C653 1.379 . S
H655 C649 0.959 . S
H656 C649 0.961 . S
H657 C649 0.960 . S
H658 C650 0.930 . S
H659 C651 0.929 . S
H660 C668 0.929 . S
H661 C670 0.930 . S
H662 C672 0.930 . S
H663 C675 0.929 . S
H664 C678 0.930 . S
H665 C680 0.960 . S
H666 C680 0.960 . S
H667 C680 0.960 . S
C668 H660 0.929 . S
C668 C669 1.377 . S
C668 C670 1.384 . S
C669 C668 1.377 . S
C669 C675 1.390 . S
C670 H661 0.930 . S
C670 C668 1.384 . S
C670 C671 1.372 . S
C671 C670 1.372 . S
C671 C672 1.400 . S
C671 C676 1.490 . S
C672 H662 0.930 . S
C672 C671 1.400 . S
C672 C675 1.386 . S
H673 C689 0.930 . S
H674 C690 0.931 . S
C675 H663 0.929 . S
C675 C669 1.390 . S
C675 C672 1.386 . S
C676 C671 1.490 . S
C676 C678 1.395 . S
C676 C679 1.403 . S
H677 C683 0.930 . S
C678 H664 0.930 . S
C678 C676 1.395 . S
C678 C681 1.403 . S
C679 C676 1.403 . S
C679 C680 1.524 . S
C679 C683 1.400 . S
C680 H665 0.960 . S
C680 H666 0.960 . S
C680 H667 0.960 . S
C680 C679 1.524 . S
C681 C678 1.403 . S
C681 C682 1.392 . S
C681 C685 1.495 . S
C682 C681 1.392 . S
C682 C683 1.385 . S
C682 C684 1.478 . S
C683 H677 0.930 . S
C683 C679 1.400 . S
C683 C682 1.385 . S
C684 C682 1.478 . S
C684 C686 1.381 . S
C684 C690 1.383 . S
C685 C681 1.495 . S
C685 H691 0.959 . S
C685 H692 0.961 . S
C685 H693 0.960 . S
C686 C684 1.381 . S
C686 C687 1.394 . S
C686 H694 0.930 . S
C687 C686 1.394 . S
C687 C688 1.383 . S
C687 H695 0.929 . S
C688 C687 1.383 . S
C688 C689 1.377 . S
C689 H673 0.930 . S
C689 C688 1.377 . S
C689 C690 1.379 . S
C690 H674 0.931 . S
C690 C684 1.383 . S
C690 C689 1.379 . S
H691 C685 0.959 . S
H692 C685 0.961 . S
H693 C685 0.960 . S
H694 C686 0.930 . S
H695 C687 0.929 . S
H696 C704 0.929 . S
H697 C706 0.930 . S
H698 C708 0.930 . S
H699 C711 0.929 . S
H700 C714 0.930 . S
H701 C716 0.960 . S
H702 C716 0.960 . S
H703 C716 0.960 . S
C704 H696 0.929 . S
C704 C705 1.377 . S
C704 C706 1.384 . S
C705 C704 1.377 . S
C705 C711 1.390 . S
C706 H697 0.930 . S
C706 C704 1.384 . S
C706 C707 1.372 . S
C707 C706 1.372 . S
C707 C708 1.400 . S
C707 C712 1.490 . S
C708 H698 0.930 . S
C708 C707 1.400 . S
C708 C711 1.386 . S
H709 C725 0.930 . S
H710 C726 0.931 . S
C711 H699 0.929 . S
C711 C705 1.390 . S
C711 C708 1.386 . S
C712 C707 1.490 . S
C712 C714 1.395 . S
C712 C715 1.403 . S
H713 C719 0.930 . S
C714 H700 0.930 . S
C714 C712 1.395 . S
C714 C717 1.403 . S
C715 C712 1.403 . S
C715 C716 1.524 . S
C715 C719 1.400 . S
C716 H701 0.960 . S
C716 H702 0.960 . S
C716 H703 0.960 . S
C716 C715 1.524 . S
C717 C714 1.403 . S
C717 C718 1.392 . S
C717 C721 1.495 . S
C718 C717 1.392 . S
C718 C719 1.385 . S
C718 C720 1.478 . S
C719 H713 0.930 . S
C719 C715 1.400 . S
C719 C718 1.385 . S
C720 C718 1.478 . S
C720 C722 1.381 . S
C720 C726 1.383 . S
C721 C717 1.495 . S
C721 H727 0.959 . S
C721 H728 0.961 . S
C721 H729 0.960 . S
C722 C720 1.381 . S
C722 C723 1.394 . S
C722 H730 0.930 . S
C723 C722 1.394 . S
C723 C724 1.383 . S
C723 H731 0.929 . S
C724 C723 1.383 . S
C724 C725 1.377 . S
C725 H709 0.930 . S
C725 C724 1.377 . S
C725 C726 1.379 . S
C726 H710 0.931 . S
C726 C720 1.383 . S
C726 C725 1.379 . S
H727 C721 0.959 . S
H728 C721 0.961 . S
H729 C721 0.960 . S
H730 C722 0.930 . S
H731 C723 0.929 . S
H732 C740 0.929 . S
H733 C742 0.930 . S
H734 C744 0.930 . S
H735 C747 0.929 . S
H736 C750 0.930 . S
H737 C752 0.960 . S
H738 C752 0.960 . S
H739 C752 0.960 . S
C740 H732 0.929 . S
C740 C741 1.377 . S
C740 C742 1.384 . S
C741 C740 1.377 . S
C741 C747 1.390 . S
C742 H733 0.930 . S
C742 C740 1.384 . S
C742 C743 1.372 . S
C743 C742 1.372 . S
C743 C744 1.400 . S
C743 C748 1.490 . S
C744 H734 0.930 . S
C744 C743 1.400 . S
C744 C747 1.386 . S
H745 C761 0.930 . S
H746 C762 0.931 . S
C747 H735 0.929 . S
C747 C741 1.390 . S
C747 C744 1.386 . S
C748 C743 1.490 . S
C748 C750 1.395 . S
C748 C751 1.403 . S
H749 C755 0.930 . S
C750 H736 0.930 . S
C750 C748 1.395 . S
C750 C753 1.403 . S
C751 C748 1.403 . S
C751 C752 1.524 . S
C751 C755 1.400 . S
C752 H737 0.960 . S
C752 H738 0.960 . S
C752 H739 0.960 . S
C752 C751 1.524 . S
C753 C750 1.403 . S
C753 C754 1.392 . S
C753 C757 1.495 . S
C754 C753 1.392 . S
C754 C755 1.385 . S
C754 C756 1.478 . S
C755 H749 0.930 . S
C755 C751 1.400 . S
C755 C754 1.385 . S
C756 C754 1.478 . S
C756 C758 1.381 . S
C756 C762 1.383 . S
C757 C753 1.495 . S
C757 H763 0.959 . S
C757 H764 0.961 . S
C757 H765 0.960 . S
C758 C756 1.381 . S
C758 C759 1.394 . S
C758 H766 0.930 . S
C759 C758 1.394 . S
C759 C760 1.383 . S
C759 H767 0.929 . S
C760 C759 1.383 . S
C760 C761 1.377 . S
C761 H745 0.930 . S
C761 C760 1.377 . S
C761 C762 1.379 . S
C762 H746 0.931 . S
C762 C756 1.383 . S
C762 C761 1.379 . S
H763 C757 0.959 . S
H764 C757 0.961 . S
H765 C757 0.960 . S
H766 C758 0.930 . S
H767 C759 0.929 . S
H768 C776 0.929 . S
H769 C778 0.930 . S
H770 C780 0.930 . S
H771 C783 0.929 . S
H772 C786 0.930 . S
H773 C788 0.960 . S
H774 C788 0.960 . S
H775 C788 0.960 . S
C776 H768 0.929 . S
C776 C777 1.377 . S
C776 C778 1.384 . S
C777 C776 1.377 . S
C777 C783 1.390 . S
C778 H769 0.930 . S
C778 C776 1.384 . S
C778 C779 1.372 . S
C779 C778 1.372 . S
C779 C780 1.400 . S
C779 C784 1.490 . S
C780 H770 0.930 . S
C780 C779 1.400 . S
C780 C783 1.386 . S
H781 C797 0.930 . S
H782 C798 0.931 . S
C783 H771 0.929 . S
C783 C777 1.390 . S
C783 C780 1.386 . S
C784 C779 1.490 . S
C784 C786 1.395 . S
C784 C787 1.403 . S
H785 C791 0.930 . S
C786 H772 0.930 . S
C786 C784 1.395 . S
C786 C789 1.403 . S
C787 C784 1.403 . S
C787 C788 1.524 . S
C787 C791 1.400 . S
C788 H773 0.960 . S
C788 H774 0.960 . S
C788 H775 0.960 . S
C788 C787 1.524 . S
C789 C786 1.403 . S
C789 C790 1.392 . S
C789 C793 1.495 . S
C790 C789 1.392 . S
C790 C791 1.385 . S
C790 C792 1.478 . S
C791 H785 0.930 . S
C791 C787 1.400 . S
C791 C790 1.385 . S
C792 C790 1.478 . S
C792 C794 1.381 . S
C792 C798 1.383 . S
C793 C789 1.495 . S
C793 H799 0.959 . S
C793 H800 0.961 . S
C793 H801 0.960 . S
C794 C792 1.381 . S
C794 C795 1.394 . S
C794 H802 0.930 . S
C795 C794 1.394 . S
C795 C796 1.383 . S
C795 H803 0.929 . S
C796 C795 1.383 . S
C796 C797 1.377 . S
C797 H781 0.930 . S
C797 C796 1.377 . S
C797 C798 1.379 . S
C798 H782 0.931 . S
C798 C792 1.383 . S
C798 C797 1.379 . S
H799 C793 0.959 . S
H800 C793 0.961 . S
H801 C793 0.960 . S
H802 C794 0.930 . S
H803 C795 0.929 . S
H804 C812 0.929 . S
H805 C814 0.930 . S
H806 C816 0.930 . S
H807 C819 0.929 . S
H808 C822 0.930 . S
H809 C824 0.960 . S
H810 C824 0.960 . S
H811 C824 0.960 . S
C812 H804 0.929 . S
C812 C813 1.377 . S
C812 C814 1.384 . S
C813 C812 1.377 . S
C813 C819 1.390 . S
C814 H805 0.930 . S
C814 C812 1.384 . S
C814 C815 1.372 . S
C815 C814 1.372 . S
C815 C816 1.400 . S
C815 C820 1.490 . S
C816 H806 0.930 . S
C816 C815 1.400 . S
C816 C819 1.386 . S
H817 C833 0.930 . S
H818 C834 0.931 . S
C819 H807 0.929 . S
C819 C813 1.390 . S
C819 C816 1.386 . S
C820 C815 1.490 . S
C820 C822 1.395 . S
C820 C823 1.403 . S
H821 C827 0.930 . S
C822 H808 0.930 . S
C822 C820 1.395 . S
C822 C825 1.403 . S
C823 C820 1.403 . S
C823 C824 1.524 . S
C823 C827 1.400 . S
C824 H809 0.960 . S
C824 H810 0.960 . S
C824 H811 0.960 . S
C824 C823 1.524 . S
C825 C822 1.403 . S
C825 C826 1.392 . S
C825 C829 1.495 . S
C826 C825 1.392 . S
C826 C827 1.385 . S
C826 C828 1.478 . S
C827 H821 0.930 . S
C827 C823 1.400 . S
C827 C826 1.385 . S
C828 C826 1.478 . S
C828 C830 1.381 . S
C828 C834 1.383 . S
C829 C825 1.495 . S
C829 H835 0.959 . S
C829 H836 0.961 . S
C829 H837 0.960 . S
C830 C828 1.381 . S
C830 C831 1.394 . S
C830 H838 0.930 . S
C831 C830 1.394 . S
C831 C832 1.383 . S
C831 H839 0.929 . S
C832 C831 1.383 . S
C832 C833 1.377 . S
C833 H817 0.930 . S
C833 C832 1.377 . S
C833 C834 1.379 . S
C834 H818 0.931 . S
C834 C828 1.383 . S
C834 C833 1.379 . S
H835 C829 0.959 . S
H836 C829 0.961 . S
H837 C829 0.960 . S
H838 C830 0.930 . S
H839 C831 0.929 . S
H840 C848 0.929 . S
H841 C850 0.930 . S
H842 C852 0.930 . S
H843 C855 0.929 . S
H844 C858 0.930 . S
H845 C860 0.960 . S
H846 C860 0.960 . S
H847 C860 0.960 . S
C848 H840 0.929 . S
C848 C849 1.377 . S
C848 C850 1.384 . S
C849 C848 1.377 . S
C849 C855 1.390 . S
C850 H841 0.930 . S
C850 C848 1.384 . S
C850 C851 1.372 . S
C851 C850 1.372 . S
C851 C852 1.400 . S
C851 C856 1.490 . S
C852 H842 0.930 . S
C852 C851 1.400 . S
C852 C855 1.386 . S
H853 C869 0.930 . S
H854 C870 0.931 . S
C855 H843 0.929 . S
C855 C849 1.390 . S
C855 C852 1.386 . S
C856 C851 1.490 . S
C856 C858 1.395 . S
C856 C859 1.403 . S
H857 C863 0.930 . S
C858 H844 0.930 . S
C858 C856 1.395 . S
C858 C861 1.403 . S
C859 C856 1.403 . S
C859 C860 1.524 . S
C859 C863 1.400 . S
C860 H845 0.960 . S
C860 H846 0.960 . S
C860 H847 0.960 . S
C860 C859 1.524 . S
C861 C858 1.403 . S
C861 C862 1.392 . S
C861 C865 1.495 . S
C862 C861 1.392 . S
C862 C863 1.385 . S
C862 C864 1.478 . S
C863 H857 0.930 . S
C863 C859 1.400 . S
C863 C862 1.385 . S
C864 C862 1.478 . S
C864 C866 1.381 . S
C864 C870 1.383 . S
C865 C861 1.495 . S
C865 H871 0.959 . S
C865 H872 0.961 . S
C865 H873 0.960 . S
C866 C864 1.381 . S
C866 C867 1.394 . S
C866 H874 0.930 . S
C867 C866 1.394 . S
C867 C868 1.383 . S
C867 H875 0.929 . S
C868 C867 1.383 . S
C868 C869 1.377 . S
C869 H853 0.930 . S
C869 C868 1.377 . S
C869 C870 1.379 . S
C870 H854 0.931 . S
C870 C864 1.383 . S
C870 C869 1.379 . S
H871 C865 0.959 . S
H872 C865 0.961 . S
H873 C865 0.960 . S
H874 C866 0.930 . S
H875 C867 0.929 . S
H876 C884 0.929 . S
H877 C886 0.930 . S
H878 C888 0.930 . S
H879 C891 0.929 . S
H880 C894 0.930 . S
H881 C896 0.960 . S
H882 C896 0.960 . S
H883 C896 0.960 . S
C884 H876 0.929 . S
C884 C885 1.377 . S
C884 C886 1.384 . S
C885 C884 1.377 . S
C885 C891 1.390 . S
C886 H877 0.930 . S
C886 C884 1.384 . S
C886 C887 1.372 . S
C887 C886 1.372 . S
C887 C888 1.400 . S
C887 C892 1.490 . S
C888 H878 0.930 . S
C888 C887 1.400 . S
C888 C891 1.386 . S
H889 C905 0.930 . S
H890 C906 0.931 . S
C891 H879 0.929 . S
C891 C885 1.390 . S
C891 C888 1.386 . S
C892 C887 1.490 . S
C892 C894 1.395 . S
C892 C895 1.403 . S
H893 C899 0.930 . S
C894 H880 0.930 . S
C894 C892 1.395 . S
C894 C897 1.403 . S
C895 C892 1.403 . S
C895 C896 1.524 . S
C895 C899 1.400 . S
C896 H881 0.960 . S
C896 H882 0.960 . S
C896 H883 0.960 . S
C896 C895 1.524 . S
C897 C894 1.403 . S
C897 C898 1.392 . S
C897 C901 1.495 . S
C898 C897 1.392 . S
C898 C899 1.385 . S
C898 C900 1.478 . S
C899 H893 0.930 . S
C899 C895 1.400 . S
C899 C898 1.385 . S
C900 C898 1.478 . S
C900 C902 1.381 . S
C900 C906 1.383 . S
C901 C897 1.495 . S
C901 H907 0.959 . S
C901 H908 0.961 . S
C901 H909 0.960 . S
C902 C900 1.381 . S
C902 C903 1.394 . S
C902 H910 0.930 . S
C903 C902 1.394 . S
C903 C904 1.383 . S
C903 H911 0.929 . S
C904 C903 1.383 . S
C904 C905 1.377 . S
C905 H889 0.930 . S
C905 C904 1.377 . S
C905 C906 1.379 . S
C906 H890 0.931 . S
C906 C900 1.383 . S
C906 C905 1.379 . S
H907 C901 0.959 . S
H908 C901 0.961 . S
H909 C901 0.960 . S
H910 C902 0.930 . S
H911 C903 0.929 . S
H912 C920 0.929 . S
H913 C922 0.930 . S
H914 C924 0.930 . S
H915 C927 0.929 . S
H916 C930 0.930 . S
H917 C932 0.960 . S
H918 C932 0.960 . S
H919 C932 0.960 . S
C920 H912 0.929 . S
C920 C921 1.377 . S
C920 C922 1.384 . S
C921 C920 1.377 . S
C921 C927 1.390 . S
C922 H913 0.930 . S
C922 C920 1.384 . S
C922 C923 1.372 . S
C923 C922 1.372 . S
C923 C924 1.400 . S
C923 C928 1.490 . S
C924 H914 0.930 . S
C924 C923 1.400 . S
C924 C927 1.386 . S
H925 C941 0.930 . S
H926 C942 0.931 . S
C927 H915 0.929 . S
C927 C921 1.390 . S
C927 C924 1.386 . S
C928 C923 1.490 . S
C928 C930 1.395 . S
C928 C931 1.403 . S
H929 C935 0.930 . S
C930 H916 0.930 . S
C930 C928 1.395 . S
C930 C933 1.403 . S
C931 C928 1.403 . S
C931 C932 1.524 . S
C931 C935 1.400 . S
C932 H917 0.960 . S
C932 H918 0.960 . S
C932 H919 0.960 . S
C932 C931 1.524 . S
C933 C930 1.403 . S
C933 C934 1.392 . S
C933 C937 1.495 . S
C934 C933 1.392 . S
C934 C935 1.385 . S
C934 C936 1.478 . S
C935 H929 0.930 . S
C935 C931 1.400 . S
C935 C934 1.385 . S
C936 C934 1.478 . S
C936 C938 1.381 . S
C936 C942 1.383 . S
C937 C933 1.495 . S
C937 H943 0.959 . S
C937 H944 0.961 . S
C937 H945 0.960 . S
C938 C936 1.381 . S
C938 C939 1.394 . S
C938 H946 0.930 . S
C939 C938 1.394 . S
C939 C940 1.383 . S
C939 H947 0.929 . S
C940 C939 1.383 . S
C940 C941 1.377 . S
C941 H925 0.930 . S
C941 C940 1.377 . S
C941 C942 1.379 . S
C942 H926 0.931 . S
C942 C936 1.383 . S
C942 C941 1.379 . S
H943 C937 0.959 . S
H944 C937 0.961 . S
H945 C937 0.960 . S
H946 C938 0.930 . S
H947 C939 0.929 . S
H948 C956 0.929 . S
H949 C958 0.930 . S
H950 C960 0.930 . S
H951 C963 0.929 . S
H952 C966 0.930 . S
H953 C968 0.960 . S
H954 C968 0.960 . S
H955 C968 0.960 . S
C956 H948 0.929 . S
C956 C957 1.377 . S
C956 C958 1.384 . S
C957 C956 1.377 . S
C957 C963 1.390 . S
C958 H949 0.930 . S
C958 C956 1.384 . S
C958 C959 1.372 . S
C959 C958 1.372 . S
C959 C960 1.400 . S
C959 C964 1.490 . S
C960 H950 0.930 . S
C960 C959 1.400 . S
C960 C963 1.386 . S
H961 C977 0.930 . S
H962 C978 0.931 . S
C963 H951 0.929 . S
C963 C957 1.390 . S
C963 C960 1.386 . S
C964 C959 1.490 . S
C964 C966 1.395 . S
C964 C967 1.403 . S
H965 C971 0.930 . S
C966 H952 0.930 . S
C966 C964 1.395 . S
C966 C969 1.403 . S
C967 C964 1.403 . S
C967 C968 1.524 . S
C967 C971 1.400 . S
C968 H953 0.960 . S
C968 H954 0.960 . S
C968 H955 0.960 . S
C968 C967 1.524 . S
C969 C966 1.403 . S
C969 C970 1.392 . S
C969 C973 1.495 . S
C970 C969 1.392 . S
C970 C971 1.385 . S
C970 C972 1.478 . S
C971 H965 0.930 . S
C971 C967 1.400 . S
C971 C970 1.385 . S
C972 C970 1.478 . S
C972 C974 1.381 . S
C972 C978 1.383 . S
C973 C969 1.495 . S
C973 H979 0.959 . S
C973 H980 0.961 . S
C973 H981 0.960 . S
C974 C972 1.381 . S
C974 C975 1.394 . S
C974 H982 0.930 . S
C975 C974 1.394 . S
C975 C976 1.383 . S
C975 H983 0.929 . S
C976 C975 1.383 . S
C976 C977 1.377 . S
C977 H961 0.930 . S
C977 C976 1.377 . S
C977 C978 1.379 . S
C978 H962 0.931 . S
C978 C972 1.383 . S
C978 C977 1.379 . S
H979 C973 0.959 . S
H980 C973 0.961 . S
H981 C973 0.960 . S
H982 C974 0.930 . S
H983 C975 0.929 . S
H984 C992 0.929 . S
H985 C994 0.930 . S
H986 C996 0.930 . S
H987 C999 0.929 . S
H988 C1002 0.930 . S
H989 C1004 0.960 . S
H990 C1004 0.960 . S
H991 C1004 0.960 . S
C992 H984 0.929 . S
C992 C993 1.377 . S
C992 C994 1.384 . S
C993 C992 1.377 . S
C993 C999 1.390 . S
C994 H985 0.930 . S
C994 C992 1.384 . S
C994 C995 1.372 . S
C995 C994 1.372 . S
C995 C996 1.400 . S
C995 C1000 1.490 . S
C996 H986 0.930 . S
C996 C995 1.400 . S
C996 C999 1.386 . S
H997 C1013 0.930 . S
H998 C1014 0.931 . S
C999 H987 0.929 . S
C999 C993 1.390 . S
C999 C996 1.386 . S
C1000 C995 1.490 . S
C1000 C1002 1.395 . S
C1000 C1003 1.403 . S
H1001 C1007 0.930 . S
C1002 H988 0.930 . S
C1002 C1000 1.395 . S
C1002 C1005 1.403 . S
C1003 C1000 1.403 . S
C1003 C1004 1.524 . S
C1003 C1007 1.400 . S
C1004 H989 0.960 . S
C1004 H990 0.960 . S
C1004 H991 0.960 . S
C1004 C1003 1.524 . S
C1005 C1002 1.403 . S
C1005 C1006 1.392 . S
C1005 C1009 1.495 . S
C1006 C1005 1.392 . S
C1006 C1007 1.385 . S
C1006 C1008 1.478 . S
C1007 H1001 0.930 . S
C1007 C1003 1.400 . S
C1007 C1006 1.385 . S
C1008 C1006 1.478 . S
C1008 C1010 1.381 . S
C1008 C1014 1.383 . S
C1009 C1005 1.495 . S
C1009 H1015 0.959 . S
C1009 H1016 0.961 . S
C1009 H1017 0.960 . S
C1010 C1008 1.381 . S
C1010 C1011 1.394 . S
C1010 H1018 0.930 . S
C1011 C1010 1.394 . S
C1011 C1012 1.383 . S
C1011 H1019 0.929 . S
C1012 C1011 1.383 . S
C1012 C1013 1.377 . S
C1013 H997 0.930 . S
C1013 C1012 1.377 . S
C1013 C1014 1.379 . S
C1014 H998 0.931 . S
C1014 C1008 1.383 . S
C1014 C1013 1.379 . S
H1015 C1009 0.959 . S
H1016 C1009 0.961 . S
H1017 C1009 0.960 . S
H1018 C1010 0.930 . S
H1019 C1011 0.929 . S
H1020 C1028 0.929 . S
H1021 C1030 0.930 . S
H1022 C1032 0.930 . S
H1023 C1035 0.929 . S
H1024 C1038 0.930 . S
H1025 C1040 0.960 . S
H1026 C1040 0.960 . S
H1027 C1040 0.960 . S
C1028 H1020 0.929 . S
C1028 C1029 1.377 . S
C1028 C1030 1.384 . S
C1029 C1028 1.377 . S
C1029 C1035 1.390 . S
C1030 H1021 0.930 . S
C1030 C1028 1.384 . S
C1030 C1031 1.372 . S
C1031 C1030 1.372 . S
C1031 C1032 1.400 . S
C1031 C1036 1.490 . S
C1032 H1022 0.930 . S
C1032 C1031 1.400 . S
C1032 C1035 1.386 . S
H1033 C1049 0.930 . S
H1034 C1050 0.931 . S
C1035 H1023 0.929 . S
C1035 C1029 1.390 . S
C1035 C1032 1.386 . S
C1036 C1031 1.490 . S
C1036 C1038 1.395 . S
C1036 C1039 1.403 . S
H1037 C1043 0.930 . S
C1038 H1024 0.930 . S
C1038 C1036 1.395 . S
C1038 C1041 1.403 . S
C1039 C1036 1.403 . S
C1039 C1040 1.524 . S
C1039 C1043 1.400 . S
C1040 H1025 0.960 . S
C1040 H1026 0.960 . S
C1040 H1027 0.960 . S
C1040 C1039 1.524 . S
C1041 C1038 1.403 . S
C1041 C1042 1.392 . S
C1041 C1045 1.495 . S
C1042 C1041 1.392 . S
C1042 C1043 1.385 . S
C1042 C1044 1.478 . S
C1043 H1037 0.930 . S
C1043 C1039 1.400 . S
C1043 C1042 1.385 . S
C1044 C1042 1.478 . S
C1044 C1046 1.381 . S
C1044 C1050 1.383 . S
C1045 C1041 1.495 . S
C1045 H1051 0.959 . S
C1045 H1052 0.961 . S
C1045 H1053 0.960 . S
C1046 C1044 1.381 . S
C1046 C1047 1.394 . S
C1046 H1054 0.930 . S
C1047 C1046 1.394 . S
C1047 C1048 1.383 . S
C1047 H1055 0.929 . S
C1048 C1047 1.383 . S
C1048 C1049 1.377 . S
C1049 H1033 0.930 . S
C1049 C1048 1.377 . S
C1049 C1050 1.379 . S
C1050 H1034 0.931 . S
C1050 C1044 1.383 . S
C1050 C1049 1.379 . S
H1051 C1045 0.959 . S
H1052 C1045 0.961 . S
H1053 C1045 0.960 . S
H1054 C1046 0.930 . S
H1055 C1047 0.929 . S
H1056 C1064 0.929 . S
H1057 C1066 0.930 . S
H1058 C1068 0.930 . S
H1059 C1071 0.929 . S
H1060 C1074 0.930 . S
H1061 C1076 0.960 . S
H1062 C1076 0.960 . S
H1063 C1076 0.960 . S
C1064 H1056 0.929 . S
C1064 C1065 1.377 . S
C1064 C1066 1.384 . S
C1065 C1064 1.377 . S
C1065 C1071 1.390 . S
C1066 H1057 0.930 . S
C1066 C1064 1.384 . S
C1066 C1067 1.372 . S
C1067 C1066 1.372 . S
C1067 C1068 1.400 . S
C1067 C1072 1.490 . S
C1068 H1058 0.930 . S
C1068 C1067 1.400 . S
C1068 C1071 1.386 . S
H1069 C1085 0.930 . S
H1070 C1086 0.931 . S
C1071 H1059 0.929 . S
C1071 C1065 1.390 . S
C1071 C1068 1.386 . S
C1072 C1067 1.490 . S
C1072 C1074 1.395 . S
C1072 C1075 1.403 . S
H1073 C1079 0.930 . S
C1074 H1060 0.930 . S
C1074 C1072 1.395 . S
C1074 C1077 1.403 . S
C1075 C1072 1.403 . S
C1075 C1076 1.524 . S
C1075 C1079 1.400 . S
C1076 H1061 0.960 . S
C1076 H1062 0.960 . S
C1076 H1063 0.960 . S
C1076 C1075 1.524 . S
C1077 C1074 1.403 . S
C1077 C1078 1.392 . S
C1077 C1081 1.495 . S
C1078 C1077 1.392 . S
C1078 C1079 1.385 . S
C1078 C1080 1.478 . S
C1079 H1073 0.930 . S
C1079 C1075 1.400 . S
C1079 C1078 1.385 . S
C1080 C1078 1.478 . S
C1080 C1082 1.381 . S
C1080 C1086 1.383 . S
C1081 C1077 1.495 . S
C1081 H1087 0.959 . S
C1081 H1088 0.961 . S
C1081 H1089 0.960 . S
C1082 C1080 1.381 . S
C1082 C1083 1.394 . S
C1082 H1090 0.930 . S
C1083 C1082 1.394 . S
C1083 C1084 1.383 . S
C1083 H1091 0.929 . S
C1084 C1083 1.383 . S
C1084 C1085 1.377 . S
C1085 H1069 0.930 . S
C1085 C1084 1.377 . S
C1085 C1086 1.379 . S
C1086 H1070 0.931 . S
C1086 C1080 1.383 . S
C1086 C1085 1.379 . S
H1087 C1081 0.959 . S
H1088 C1081 0.961 . S
H1089 C1081 0.960 . S
H1090 C1082 0.930 . S
H1091 C1083 0.929 . S
H1092 C1100 0.929 . S
H1093 C1102 0.930 . S
H1094 C1104 0.930 . S
H1095 C1107 0.929 . S
H1096 C1110 0.930 . S
H1097 C1112 0.960 . S
H1098 C1112 0.960 . S
H1099 C1112 0.960 . S
C1100 H1092 0.929 . S
C1100 C1101 1.377 . S
C1100 C1102 1.384 . S
C1101 C1100 1.377 . S
C1101 C1107 1.390 . S
C1102 H1093 0.930 . S
C1102 C1100 1.384 . S
C1102 C1103 1.372 . S
C1103 C1102 1.372 . S
C1103 C1104 1.400 . S
C1103 C1108 1.490 . S
C1104 H1094 0.930 . S
C1104 C1103 1.400 . S
C1104 C1107 1.386 . S
H1105 C1121 0.930 . S
H1106 C1122 0.931 . S
C1107 H1095 0.929 . S
C1107 C1101 1.390 . S
C1107 C1104 1.386 . S
C1108 C1103 1.490 . S
C1108 C1110 1.395 . S
C1108 C1111 1.403 . S
H1109 C1115 0.930 . S
C1110 H1096 0.930 . S
C1110 C1108 1.395 . S
C1110 C1113 1.403 . S
C1111 C1108 1.403 . S
C1111 C1112 1.524 . S
C1111 C1115 1.400 . S
C1112 H1097 0.960 . S
C1112 H1098 0.960 . S
C1112 H1099 0.960 . S
C1112 C1111 1.524 . S
C1113 C1110 1.403 . S
C1113 C1114 1.392 . S
C1113 C1117 1.495 . S
C1114 C1113 1.392 . S
C1114 C1115 1.385 . S
C1114 C1116 1.478 . S
C1115 H1109 0.930 . S
C1115 C1111 1.400 . S
C1115 C1114 1.385 . S
C1116 C1114 1.478 . S
C1116 C1118 1.381 . S
C1116 C1122 1.383 . S
C1117 C1113 1.495 . S
C1117 H1123 0.959 . S
C1117 H1124 0.961 . S
C1117 H1125 0.960 . S
C1118 C1116 1.381 . S
C1118 C1119 1.394 . S
C1118 H1126 0.930 . S
C1119 C1118 1.394 . S
C1119 C1120 1.383 . S
C1119 H1127 0.929 . S
C1120 C1119 1.383 . S
C1120 C1121 1.377 . S
C1121 H1105 0.930 . S
C1121 C1120 1.377 . S
C1121 C1122 1.379 . S
C1122 H1106 0.931 . S
C1122 C1116 1.383 . S
C1122 C1121 1.379 . S
H1123 C1117 0.959 . S
H1124 C1117 0.961 . S
H1125 C1117 0.960 . S
H1126 C1118 0.930 . S
H1127 C1119 0.929 . S
C273 C9 1.477 . S
C292 C110 1.504 . S
C309 C21 1.004 . S
C328 C159 1.020 . S
C364 C194 2.119 . S
C345 C30 2.126 . S
C381 C43 2.110 . S
C400 C233 2.165 1_655 S
C436 C154 2.106 . S
C417 C4 1.903 . S
C472 C113 1.673 . S
C453 C22 1.732 . S
C508 C243 1.465 . S
C489 C34 1.490 . S
C544 C202 1.393 . S
C525 C48 1.417 . S
C561 C8 1.598 . S
C580 C230 1.623 . S
C616 C162 2.254 . S
C597 C35 2.335 . S
C633 C47 2.594 . S
C652 C123 2.572 . S
C669 C17 0.648 . S
C688 C199 0.675 . S
C724 C119 1.000 . S
C705 C60 1.005 . S
C741 C74 1.082 . S
C760 C150 1.061 . S
C777 C82 1.849 . S
C796 C203 1.874 . S
C813 C100 2.735 . S
C832 C242 2.660 . S
C849 C61 2.569 . S
C868 C163 2.637 . S
C904 C122 0.835 . S
C885 C73 0.879 . S
C940 C234 2.095 . S
C921 C87 2.181 . S
C976 C193 1.155 . S
C957 C95 1.135 . S
C993 C56 1.537 . S
C1012 C239 1.530 . S
C1048 C153 2.483 . S
C1029 C86 2.548 . S
C1084 C114 2.290 . S
C1065 C99 2.315 . S
C1101 C69 0.619 . S
C1120 C190 0.599 . S
