# Generated by pormake.
# Topology eea, (3,6)-cn, num edge types: 1
# Building blocks:
#     Node 0, Type 0, BuildingBlock: BETDIP_clean_linker_0, # of connection points: 3
#     Node 1, Type 0, BuildingBlock: BETDIP_clean_linker_0, # of connection points: 3
#     Node 2, Type 0, BuildingBlock: BETDIP_clean_linker_0, # of connection points: 3
#     Node 3, Type 0, BuildingBlock: BETDIP_clean_linker_0, # of connection points: 3
#     Node 4, Type 0, BuildingBlock: BETDIP_clean_linker_0, # of connection points: 3
#     Node 5, Type 0, BuildingBlock: BETDIP_clean_linker_0, # of connection points: 3
#     Node 6, Type 0, BuildingBlock: BETDIP_clean_linker_0, # of connection points: 3
#     Node 7, Type 0, BuildingBlock: BETDIP_clean_linker_0, # of connection points: 3
#     Node 8, Type 0, BuildingBlock: BETDIP_clean_linker_0, # of connection points: 3
#     Node 9, Type 0, BuildingBlock: BETDIP_clean_linker_0, # of connection points: 3
#     Node 10, Type 0, BuildingBlock: BETDIP_clean_linker_0, # of connection points: 3
#     Node 11, Type 0, BuildingBlock: BETDIP_clean_linker_0, # of connection points: 3
#     Node 12, Type 0, BuildingBlock: BETDIP_clean_linker_0, # of connection points: 3
#     Node 13, Type 0, BuildingBlock: BETDIP_clean_linker_0, # of connection points: 3
#     Node 14, Type 0, BuildingBlock: BETDIP_clean_linker_0, # of connection points: 3
#     Node 15, Type 0, BuildingBlock: BETDIP_clean_linker_0, # of connection points: 3
#     Node 16, Type 0, BuildingBlock: BETDIP_clean_linker_0, # of connection points: 3
#     Node 17, Type 0, BuildingBlock: BETDIP_clean_linker_0, # of connection points: 3
#     Node 18, Type 1, BuildingBlock: KUMBUR_clean_sbu_0, # of connection points: 6
#     Node 19, Type 1, BuildingBlock: KUMBUR_clean_sbu_0, # of connection points: 6
#     Node 20, Type 1, BuildingBlock: KUMBUR_clean_sbu_0, # of connection points: 6
#     Node 21, Type 1, BuildingBlock: KUMBUR_clean_sbu_0, # of connection points: 6
#     Node 22, Type 1, BuildingBlock: KUMBUR_clean_sbu_0, # of connection points: 6
#     Node 23, Type 1, BuildingBlock: KUMBUR_clean_sbu_0, # of connection points: 6
#     Node 24, Type 1, BuildingBlock: KUMBUR_clean_sbu_0, # of connection points: 6
#     Node 25, Type 1, BuildingBlock: KUMBUR_clean_sbu_0, # of connection points: 6
#     Node 26, Type 1, BuildingBlock: KUMBUR_clean_sbu_0, # of connection points: 6
#     Edge 27, Type (0, 1), BuildingBlock: ZUJKAS_clean_linker_0, # of connection points: 2
#     Edge 28, Type (0, 1), BuildingBlock: ZUJKAS_clean_linker_0, # of connection points: 2
#     Edge 29, Type (0, 1), BuildingBlock: ZUJKAS_clean_linker_0, # of connection points: 2
#     Edge 30, Type (0, 1), BuildingBlock: ZUJKAS_clean_linker_0, # of connection points: 2
#     Edge 31, Type (0, 1), BuildingBlock: ZUJKAS_clean_linker_0, # of connection points: 2
#     Edge 32, Type (0, 1), BuildingBlock: ZUJKAS_clean_linker_0, # of connection points: 2
#     Edge 33, Type (0, 1), BuildingBlock: ZUJKAS_clean_linker_0, # of connection points: 2
#     Edge 34, Type (0, 1), BuildingBlock: ZUJKAS_clean_linker_0, # of connection points: 2
#     Edge 35, Type (0, 1), BuildingBlock: ZUJKAS_clean_linker_0, # of connection points: 2
#     Edge 36, Type (0, 1), BuildingBlock: ZUJKAS_clean_linker_0, # of connection points: 2
#     Edge 37, Type (0, 1), BuildingBlock: ZUJKAS_clean_linker_0, # of connection points: 2
#     Edge 38, Type (0, 1), BuildingBlock: ZUJKAS_clean_linker_0, # of connection points: 2
#     Edge 39, Type (0, 1), BuildingBlock: ZUJKAS_clean_linker_0, # of connection points: 2
#     Edge 40, Type (0, 1), BuildingBlock: ZUJKAS_clean_linker_0, # of connection points: 2
#     Edge 41, Type (0, 1), BuildingBlock: ZUJKAS_clean_linker_0, # of connection points: 2
#     Edge 42, Type (0, 1), BuildingBlock: ZUJKAS_clean_linker_0, # of connection points: 2
#     Edge 43, Type (0, 1), BuildingBlock: ZUJKAS_clean_linker_0, # of connection points: 2
#     Edge 44, Type (0, 1), BuildingBlock: ZUJKAS_clean_linker_0, # of connection points: 2
#     Edge 45, Type (0, 1), BuildingBlock: ZUJKAS_clean_linker_0, # of connection points: 2
#     Edge 46, Type (0, 1), BuildingBlock: ZUJKAS_clean_linker_0, # of connection points: 2
#     Edge 47, Type (0, 1), BuildingBlock: ZUJKAS_clean_linker_0, # of connection points: 2
#     Edge 48, Type (0, 1), BuildingBlock: ZUJKAS_clean_linker_0, # of connection points: 2
#     Edge 49, Type (0, 1), BuildingBlock: ZUJKAS_clean_linker_0, # of connection points: 2
#     Edge 50, Type (0, 1), BuildingBlock: ZUJKAS_clean_linker_0, # of connection points: 2
#     Edge 51, Type (0, 1), BuildingBlock: ZUJKAS_clean_linker_0, # of connection points: 2
#     Edge 52, Type (0, 1), BuildingBlock: ZUJKAS_clean_linker_0, # of connection points: 2
#     Edge 53, Type (0, 1), BuildingBlock: ZUJKAS_clean_linker_0, # of connection points: 2
#     Edge 54, Type (0, 1), BuildingBlock: ZUJKAS_clean_linker_0, # of connection points: 2
#     Edge 55, Type (0, 1), BuildingBlock: ZUJKAS_clean_linker_0, # of connection points: 2
#     Edge 56, Type (0, 1), BuildingBlock: ZUJKAS_clean_linker_0, # of connection points: 2
#     Edge 57, Type (0, 1), BuildingBlock: ZUJKAS_clean_linker_0, # of connection points: 2
#     Edge 58, Type (0, 1), BuildingBlock: ZUJKAS_clean_linker_0, # of connection points: 2
#     Edge 59, Type (0, 1), BuildingBlock: ZUJKAS_clean_linker_0, # of connection points: 2
#     Edge 60, Type (0, 1), BuildingBlock: ZUJKAS_clean_linker_0, # of connection points: 2
#     Edge 61, Type (0, 1), BuildingBlock: ZUJKAS_clean_linker_0, # of connection points: 2
#     Edge 62, Type (0, 1), BuildingBlock: ZUJKAS_clean_linker_0, # of connection points: 2
#     Edge 63, Type (0, 1), BuildingBlock: ZUJKAS_clean_linker_0, # of connection points: 2
#     Edge 64, Type (0, 1), BuildingBlock: ZUJKAS_clean_linker_0, # of connection points: 2
#     Edge 65, Type (0, 1), BuildingBlock: ZUJKAS_clean_linker_0, # of connection points: 2
#     Edge 66, Type (0, 1), BuildingBlock: ZUJKAS_clean_linker_0, # of connection points: 2
#     Edge 67, Type (0, 1), BuildingBlock: ZUJKAS_clean_linker_0, # of connection points: 2
#     Edge 68, Type (0, 1), BuildingBlock: ZUJKAS_clean_linker_0, # of connection points: 2
#     Edge 69, Type (0, 1), BuildingBlock: ZUJKAS_clean_linker_0, # of connection points: 2
#     Edge 70, Type (0, 1), BuildingBlock: ZUJKAS_clean_linker_0, # of connection points: 2
#     Edge 71, Type (0, 1), BuildingBlock: ZUJKAS_clean_linker_0, # of connection points: 2
#     Edge 72, Type (0, 1), BuildingBlock: ZUJKAS_clean_linker_0, # of connection points: 2
#     Edge 73, Type (0, 1), BuildingBlock: ZUJKAS_clean_linker_0, # of connection points: 2
#     Edge 74, Type (0, 1), BuildingBlock: ZUJKAS_clean_linker_0, # of connection points: 2
#     Edge 75, Type (0, 1), BuildingBlock: ZUJKAS_clean_linker_0, # of connection points: 2
#     Edge 76, Type (0, 1), BuildingBlock: ZUJKAS_clean_linker_0, # of connection points: 2
#     Edge 77, Type (0, 1), BuildingBlock: ZUJKAS_clean_linker_0, # of connection points: 2
#     Edge 78, Type (0, 1), BuildingBlock: ZUJKAS_clean_linker_0, # of connection points: 2
#     Edge 79, Type (0, 1), BuildingBlock: ZUJKAS_clean_linker_0, # of connection points: 2
#     Edge 80, Type (0, 1), BuildingBlock: ZUJKAS_clean_linker_0, # of connection points: 2
# Relax obj value: 0.025
# Max RMSD: 0.155
# Mean RMSD: 0.114
data_MOF--net-eea--node1-KUMBUR_clean_sbu_0--node2-BETDIP_clean_linker_0--edge1-ZUJKAS_clean_linker_0
_symmetry_space_group_name_H-M    P1
_symmetry_Int_Tables_number       1
_symmetry_cell_setting            triclinic
loop_
_symmetry_equiv_pos_as_xyz
'x, y, z'
_cell_length_a     71.087781
_cell_length_b     72.722051
_cell_length_c     82.818843
_cell_angle_alpha  90.19039
_cell_angle_beta   90.118905
_cell_angle_gamma 120.01739
loop_
_atom_site_label
_atom_site_type_symbol
_atom_site_fract_x
_atom_site_fract_y
_atom_site_fract_z
_atom_type_partial_charge
H0 H 0.2205 0.10087 0.39114 0.0
H1 H 0.24427 0.14252 0.43236 0.0
H2 H 0.24449 0.08363 0.4328 0.0
H3 H 0.25153 0.1672 0.41326 0.0
C4 C 0.23717 0.15959 0.40559 0.0
C5 C 0.22731 0.10425 0.40323 0.0
C6 C 0.23224 0.09 0.41096 0.0
C7 C 0.23189 0.12334 0.41072 0.0
C8 C 0.24094 0.12796 0.42636 0.0
C9 C 0.24584 0.11384 0.43432 0.0
C10 C 0.24129 0.09487 0.42655 0.0
N11 N 0.22704 0.13747 0.4023 0.0
H12 H 0.92422 0.12178 0.39138 0.0
H13 H 0.8812 0.09909 0.43209 0.0
H14 H 0.93816 0.16098 0.43384 0.0
H15 H 0.85627 0.08504 0.41121 0.0
C16 C 0.8639 0.07801 0.40406 0.0
C17 C 0.92016 0.12417 0.40352 0.0
C18 C 0.93368 0.14332 0.4118 0.0
C19 C 0.9008 0.10847 0.41053 0.0
C20 C 0.89554 0.11156 0.4263 0.0
C21 C 0.90889 0.13045 0.43483 0.0
C22 C 0.92788 0.14625 0.42744 0.0
N23 N 0.88677 0.08973 0.40157 0.0
H24 H 0.9006 0.80796 0.39254 0.0
H25 H 0.92124 0.78665 0.43387 0.0
H26 H 0.85854 0.78147 0.43372 0.0
H27 H 0.95401 0.8124 0.42622 0.0
C28 C 0.95353 0.81059 0.41318 0.0
C29 C 0.8975 0.80122 0.40454 0.0
C30 C 0.87732 0.79478 0.41205 0.0
C31 C 0.91374 0.79886 0.41244 0.0
C32 C 0.90934 0.78935 0.42782 0.0
C33 C 0.88955 0.78322 0.43559 0.0
C34 C 0.87378 0.78615 0.42768 0.0
N35 N 0.93409 0.80566 0.40462 0.0
H36 H 0.09941 0.20312 0.63709 0.0
H37 H 0.14029 0.22289 0.59502 0.0
H38 H 0.08277 0.22804 0.59574 0.0
H39 H 0.16615 0.23372 0.61532 0.0
C40 C 0.15928 0.21909 0.62223 0.0
C41 C 0.10276 0.20942 0.62494 0.0
C42 C 0.08877 0.21537 0.61743 0.0
C43 C 0.12173 0.21262 0.61712 0.0
C44 C 0.12601 0.22078 0.6013 0.0
C45 C 0.11215 0.22657 0.59357 0.0
C46 C 0.09366 0.22385 0.60175 0.0
N47 N 0.13649 0.20787 0.62532 0.0
H48 H 0.80761 0.89288 0.63533 0.0
H49 H 0.78378 0.91285 0.59538 0.0
H50 H 0.78326 0.85363 0.5927 0.0
H51 H 0.77193 0.92528 0.61657 0.0
C52 C 0.78682 0.93292 0.62366 0.0
C53 C 0.80053 0.88991 0.62334 0.0
C54 C 0.79642 0.87155 0.61473 0.0
C55 C 0.7953 0.90444 0.61666 0.0
C56 C 0.78675 0.90108 0.60092 0.0
C57 C 0.78249 0.88286 0.59211 0.0
C58 C 0.78727 0.86812 0.59916 0.0
N59 N 0.79902 0.92248 0.62587 0.0
H60 H 0.11936 0.90891 0.63635 0.0
H61 H 0.09949 0.86638 0.59553 0.0
H62 H 0.1613 0.92385 0.59511 0.0
H63 H 0.08422 0.84225 0.61668 0.0
C64 C 0.07647 0.84958 0.62329 0.0
C65 C 0.12259 0.90507 0.6244 0.0
C66 C 0.14244 0.9187 0.61674 0.0
C67 C 0.10723 0.88593 0.61703 0.0
C68 C 0.1114 0.88085 0.6015 0.0
C69 C 0.131 0.89437 0.59363 0.0
C70 C 0.14636 0.91319 0.60134 0.0
N71 N 0.08778 0.87202 0.62545 0.0
H72 H 0.87677 0.42652 0.72988 0.0
H73 H 0.89623 0.4675 0.77146 0.0
H74 H 0.90881 0.41555 0.76975 0.0
H75 H 0.86181 0.46509 0.76295 0.0
C76 C 0.86758 0.47016 0.75072 0.0
C77 C 0.88446 0.43085 0.74167 0.0
C78 C 0.89219 0.41849 0.749 0.0
C79 C 0.88561 0.4483 0.74979 0.0
C80 C 0.89517 0.45389 0.76522 0.0
C81 C 0.90348 0.44205 0.77257 0.0
C82 C 0.90197 0.42445 0.76433 0.0
N83 N 0.87742 0.46028 0.74212 0.0
H84 H 0.59396 0.45358 0.72648 0.0
H85 H 0.54963 0.43298 0.76638 0.0
H86 H 0.60249 0.49712 0.76509 0.0
H87 H 0.54851 0.40171 0.76009 0.0
C88 C 0.54605 0.40154 0.74713 0.0
C89 C 0.58881 0.45714 0.73779 0.0
C90 C 0.60094 0.47747 0.7449 0.0
C91 C 0.57045 0.44095 0.74553 0.0
C92 C 0.56387 0.44529 0.76039 0.0
C93 C 0.57559 0.46541 0.76764 0.0
C94 C 0.5939 0.48141 0.75973 0.0
N95 N 0.55866 0.42049 0.73815 0.0
H96 H 0.56734 0.14041 0.72511 0.0
H97 H 0.5905 0.12301 0.76715 0.0
H98 H 0.52579 0.11332 0.76644 0.0
H99 H 0.6229 0.15396 0.75815 0.0
C100 C 0.62194 0.14866 0.74573 0.0
C101 C 0.56461 0.13407 0.73724 0.0
C102 C 0.54432 0.12697 0.74474 0.0
C103 C 0.58151 0.1331 0.74534 0.0
C104 C 0.57787 0.12453 0.76102 0.0
C105 C 0.55765 0.11698 0.76856 0.0
C106 C 0.54112 0.11845 0.76038 0.0
N107 N 0.60173 0.14004 0.73735 0.0
H108 H 0.76357 0.53284 0.97048 0.0
H109 H 0.80407 0.55074 0.92832 0.0
H110 H 0.7494 0.56063 0.92969 0.0
H111 H 0.80532 0.52032 0.93645 0.0
C112 C 0.80973 0.52514 0.94897 0.0
C113 C 0.76724 0.53937 0.9584 0.0
C114 C 0.7543 0.54678 0.95116 0.0
C115 C 0.78496 0.54033 0.95011 0.0
C116 C 0.78994 0.54914 0.93453 0.0
C117 C 0.77734 0.55669 0.92712 0.0
C118 C 0.75955 0.55539 0.93552 0.0
N119 N 0.79806 0.53308 0.95777 0.0
H120 H 0.47058 0.22759 0.96985 0.0
H121 H 0.45001 0.24666 0.92739 0.0
H122 H 0.44869 0.18705 0.92776 0.0
H123 H 0.43919 0.26188 0.94672 0.0
C124 C 0.4534 0.26906 0.95454 0.0
C125 C 0.46463 0.22447 0.95751 0.0
C126 C 0.46006 0.2054 0.94982 0.0
C127 C 0.46062 0.23919 0.94966 0.0
C128 C 0.45279 0.23521 0.93369 0.0
C129 C 0.44823 0.21632 0.92581 0.0
C130 C 0.4519 0.20151 0.93394 0.0
N131 N 0.46449 0.25783 0.95809 0.0
H132 H 0.78263 0.246 0.96584 0.0
H133 H 0.76734 0.20122 0.927 0.0
H134 H 0.82793 0.25989 0.927 0.0
H135 H 0.73333 0.19195 0.93329 0.0
C136 C 0.73331 0.19281 0.94638 0.0
C137 C 0.78708 0.24158 0.95458 0.0
C138 C 0.80722 0.25538 0.94736 0.0
C139 C 0.77225 0.22231 0.94711 0.0
C140 C 0.77805 0.21649 0.93249 0.0
C141 C 0.79807 0.23 0.92512 0.0
C142 C 0.81247 0.24939 0.93264 0.0
N143 N 0.75186 0.20895 0.95467 0.0
H144 H 0.55391 0.76841 0.05824 0.0
H145 H 0.57314 0.80811 0.10061 0.0
H146 H 0.57748 0.75136 0.10025 0.0
H147 H 0.5819 0.83363 0.08167 0.0
C148 C 0.56803 0.82614 0.07353 0.0
C149 C 0.56 0.77154 0.07054 0.0
C150 C 0.56523 0.75752 0.07831 0.0
C151 C 0.56338 0.7901 0.07829 0.0
C152 C 0.57135 0.7943 0.09424 0.0
C153 C 0.57649 0.7804 0.10224 0.0
C154 C 0.5734 0.76208 0.09418 0.0
N155 N 0.55845 0.80416 0.06983 0.0
H156 H 0.25822 0.78984 0.05811 0.0
H157 H 0.21597 0.76712 0.09923 0.0
H158 H 0.27286 0.82907 0.10063 0.0
H159 H 0.19068 0.7535 0.07836 0.0
C160 C 0.19813 0.74621 0.07131 0.0
C161 C 0.25438 0.79223 0.07031 0.0
C162 C 0.26801 0.81139 0.07854 0.0
C163 C 0.23516 0.77652 0.07748 0.0
C164 C 0.23019 0.77962 0.09333 0.0
C165 C 0.24364 0.79852 0.1018 0.0
C166 C 0.26249 0.81433 0.09426 0.0
N167 N 0.22097 0.75775 0.06863 0.0
H168 H 0.23418 0.47521 0.05898 0.0
H169 H 0.25473 0.45454 0.10077 0.0
H170 H 0.19135 0.44784 0.0996 0.0
H171 H 0.28758 0.47998 0.09304 0.0
C172 C 0.28717 0.47835 0.07999 0.0
C173 C 0.23097 0.4684 0.07097 0.0
C174 C 0.21059 0.46156 0.07821 0.0
C175 C 0.24725 0.46634 0.07909 0.0
C176 C 0.24275 0.4569 0.0945 0.0
C177 C 0.22272 0.45043 0.10203 0.0
C178 C 0.20683 0.45287 0.09382 0.0
N179 N 0.26773 0.47335 0.07141 0.0
H180 H 0.43093 0.86773 0.30286 0.0
H181 H 0.47138 0.88658 0.26054 0.0
H182 H 0.41726 0.89697 0.26273 0.0
H183 H 0.47703 0.8603 0.26816 0.0
C184 C 0.47897 0.8624 0.28116 0.0
C185 C 0.43465 0.87455 0.29088 0.0
C186 C 0.42189 0.88239 0.28394 0.0
C187 C 0.45235 0.87559 0.28247 0.0
C188 C 0.45734 0.8848 0.26698 0.0
C189 C 0.4448 0.89258 0.25986 0.0
C190 C 0.4272 0.89137 0.26841 0.0
N191 N 0.46531 0.868 0.28996 0.0
H192 H 0.15163 0.56585 0.29932 0.0
H193 H 0.12571 0.58401 0.25946 0.0
H194 H 0.11645 0.52107 0.26123 0.0
H195 H 0.15488 0.61657 0.26551 0.0
C196 C 0.15375 0.61651 0.27859 0.0
C197 C 0.14268 0.56186 0.28803 0.0
C198 C 0.13442 0.54151 0.28122 0.0
C199 C 0.14014 0.57745 0.28007 0.0
C200 C 0.12862 0.57241 0.26538 0.0
C201 C 0.12003 0.5521 0.25854 0.0
C202 C 0.12301 0.53676 0.26651 0.0
N203 N 0.14875 0.59783 0.28733 0.0
H204 H 0.44889 0.5772 0.3012 0.0
H205 H 0.43172 0.53505 0.26033 0.0
H206 H 0.49084 0.59512 0.25973 0.0
H207 H 0.41587 0.51021 0.28025 0.0
C208 C 0.40821 0.51706 0.28754 0.0
C209 C 0.45265 0.57375 0.28929 0.0
C210 C 0.47166 0.58879 0.28134 0.0
C211 C 0.4384 0.55413 0.28201 0.0
C212 C 0.44296 0.54975 0.26638 0.0
C213 C 0.4617 0.56465 0.2582 0.0
C214 C 0.47597 0.58399 0.26581 0.0
N215 N 0.41937 0.53935 0.29048 0.0
Tb216 Tb 0.49037 0.99643 0.99425 0.0
C217 C 0.53573 0.06512 0.04605 0.0
C218 C 0.57373 0.07569 0.04409 0.0
C219 C 0.56331 0.10124 0.05293 0.0
C220 C 0.5516 0.06027 0.04229 0.0
C221 C 0.5413 0.08549 0.05179 0.0
C222 C 0.57951 0.09635 0.04907 0.0
C223 C 0.50312 0.07254 0.05618 0.0
N224 N 0.51472 0.04937 0.04491 0.0
C225 C 0.49844 0.05255 0.05049 0.0
C226 C 0.52463 0.08918 0.05664 0.0
Tb227 Tb 0.50856 0.01737 0.03483 0.0
N228 N 0.54527 0.04007 0.03769 0.0
C229 C 0.56042 0.03388 0.03582 0.0
C230 C 0.58932 0.0697 0.04126 0.0
C231 C 0.58261 0.04862 0.03734 0.0
H232 H 0.48175 0.03985 0.05011 0.0
H233 H 0.59451 0.04372 0.0354 0.0
H234 H 0.59643 0.10849 0.05037 0.0
H235 H 0.49013 0.07511 0.0602 0.0
H236 H 0.55563 0.01773 0.03266 0.0
H237 H 0.40537 0.97384 0.99273 0.0
H238 H 0.6065 0.08108 0.04244 0.0
H239 H 0.51559 0.97252 0.97895 0.0
H240 H 0.44428 0.998 0.99701 0.0
H241 H 0.50588 0.93721 0.96809 0.0
H242 H 0.56796 0.11708 0.05717 0.0
H243 H 0.39203 0.93685 0.98391 0.0
H244 H 0.40046 0.90831 0.97605 0.0
H245 H 0.52821 0.10462 0.06111 0.0
H246 H 0.42787 0.8982 0.96951 0.0
N247 N 0.45345 0.97488 0.99138 0.0
C248 C 0.43897 0.98192 0.99335 0.0
C249 C 0.40922 0.94728 0.98611 0.0
C250 C 0.42409 0.9403 0.9836 0.0
C251 C 0.41672 0.9682 0.99095 0.0
C252 C 0.44635 0.95474 0.9862 0.0
H253 H 0.46729 0.90899 0.96627 0.0
N254 N 0.48286 0.96419 0.98382 0.0
C255 C 0.49326 0.94033 0.9721 0.0
C256 C 0.46165 0.94917 0.98231 0.0
C257 C 0.49869 0.96034 0.97823 0.0
C258 C 0.47147 0.92442 0.97115 0.0
C259 C 0.45531 0.92886 0.976 0.0
O260 O 0.50638 0.00498 0.97178 0.0
O261 O 0.51593 0.01954 0.00946 0.0
O262 O 0.50644 0.04173 0.02107 0.0
O263 O 0.48194 0.02092 1.00091 0.0
O264 O 0.52513 0.00808 0.99054 0.0
O265 O 0.48046 0.01119 0.97714 0.0
O266 O 0.49172 0.00708 0.05684 0.0
O267 O 0.48318 0.99396 0.0196 0.0
O268 O 0.49323 0.9723 0.0079 0.0
O269 O 0.51759 0.99339 0.02811 0.0
O270 O 0.47364 0.00528 0.03836 0.0
O271 O 0.5205 0.00514 0.05262 0.0
C272 C 0.5324 0.02136 1.00234 0.0
C273 C 0.48505 0.00488 0.94982 0.0
C274 C 0.48659 0.01187 0.92083 0.0
C275 C 0.49547 0.01801 0.93649 0.0
C276 C 0.46736 0.99227 0.91873 0.0
C277 C 0.46592 0.98541 0.94739 0.0
C278 C 0.45719 0.97913 0.93191 0.0
C279 C 0.49248 0.03882 0.00939 0.0
C280 C 0.49398 0.01195 0.9662 0.0
C281 C 0.4331 0.91396 0.97422 0.0
C282 C 0.41751 0.91971 0.97795 0.0
C283 C 0.46656 0.99193 0.02658 0.0
C284 C 0.5132 0.01046 0.07957 0.0
C285 C 0.50558 0.99643 0.09276 0.0
C286 C 0.51211 0.00402 0.1087 0.0
C287 C 0.52622 0.02596 0.11109 0.0
C288 C 0.52755 0.03211 0.08235 0.0
C289 C 0.53394 0.0398 0.09801 0.0
C290 C 0.50748 0.97556 0.01949 0.0
C291 C 0.50567 0.00246 0.06306 0.0
H292 H 0.51016 0.03316 0.93834 0.0
H293 H 0.46028 0.98701 0.90683 0.0
H294 H 0.4576 0.97513 0.95742 0.0
H295 H 0.44241 0.96407 0.93015 0.0
H296 H 0.49476 0.97964 0.09054 0.0
H297 H 0.53116 0.03257 0.12311 0.0
H298 H 0.53375 0.0431 0.07246 0.0
H299 H 0.54485 0.05659 0.10003 0.0
Tb300 Tb 0.02292 0.49635 0.9964 0.0
C301 C 0.94801 0.47097 0.044 0.0
C302 C 0.93771 0.4979 0.0419 0.0
C303 C 0.91101 0.46214 0.05014 0.0
C304 C 0.95324 0.49139 0.04014 0.0
C305 C 0.92695 0.45615 0.04929 0.0
C306 C 0.91642 0.48304 0.04655 0.0
C307 C 0.93968 0.43148 0.05425 0.0
N308 N 0.96407 0.46608 0.04357 0.0
C309 C 0.96042 0.44687 0.04917 0.0
C310 C 0.9228 0.43606 0.05415 0.0
Tb311 Tb 0.99752 0.49229 0.03514 0.0
N312 N 0.97411 0.50537 0.03614 0.0
C313 C 0.98074 0.52647 0.0345 0.0
C314 C 0.94427 0.51933 0.03963 0.0
C315 C 0.96591 0.53368 0.036 0.0
H316 H 0.97334 0.44316 0.04931 0.0
H317 H 0.97123 0.55035 0.03443 0.0
H318 H 0.9042 0.48768 0.04782 0.0
H319 H 0.93676 0.41614 0.0583 0.0
H320 H 0.99739 0.53789 0.0318 0.0
H321 H 0.04874 0.43789 0.99934 0.0
H322 H 0.9329 0.52503 0.041 0.0
H323 H 0.04767 0.54492 0.98122 0.0
H324 H 0.02238 0.45033 0.99994 0.0
H325 H 0.08468 0.57171 0.97276 0.0
H326 H 0.89469 0.45096 0.05408 0.0
H327 H 0.08762 0.46325 0.99441 0.0
H328 H 0.11668 0.50045 0.98752 0.0
H329 H 0.90682 0.42419 0.05826 0.0
H330 H 0.12649 0.53697 0.98013 0.0
N331 N 0.046 0.4828 0.99579 0.0
C332 C 0.03921 0.4617 0.9977 0.0
C333 C 0.07609 0.46887 0.99464 0.0
C334 C 0.08274 0.49018 0.99171 0.0
C335 C 0.05415 0.45451 0.99738 0.0
C336 C 0.06707 0.49665 0.99223 0.0
H337 H 0.11456 0.56361 0.97429 0.0
N338 N 0.05659 0.52203 0.98787 0.0
C339 C 0.08152 0.55641 0.97711 0.0
C340 C 0.07256 0.51702 0.98805 0.0
C341 C 0.06055 0.54116 0.98186 0.0
C342 C 0.09835 0.5518 0.97803 0.0
C343 C 0.09391 0.53177 0.98331 0.0
O344 O 0.01584 0.50322 0.97325 0.0
O345 O 0.99748 0.49746 0.00964 0.0
O346 O 0.97402 0.46603 0.02015 0.0
O347 O 0.99739 0.46329 1.00184 0.0
O348 O 0.01052 0.51809 0.9911 0.0
O349 O 0.01135 0.47229 0.97875 0.0
O350 O 1.00492 0.48556 0.05822 0.0
O351 O 0.02312 0.49143 0.02193 0.0
O352 O 0.04615 0.52319 0.01106 0.0
O353 O 0.0227 0.52544 0.02962 0.0
O354 O 0.00994 0.47059 0.04034 0.0
O355 O 0.00879 0.51626 0.05287 0.0
C356 C 0.99589 0.51161 1.00209 0.0
C357 C 0.02097 0.48459 0.95202 0.0
C358 C 0.01888 0.48317 0.92258 0.0
C359 C 0.01001 0.4836 0.93767 0.0
C360 C 0.03911 0.48406 0.92212 0.0
C361 C 0.04106 0.48536 0.9513 0.0
C362 C 0.0501 0.48519 0.93641 0.0
C363 C 0.97818 0.45546 0.009 0.0
C364 C 0.01102 0.48466 0.96754 0.0
C365 C 0.10991 0.52581 0.98357 0.0
C366 C 0.10433 0.50503 0.98777 0.0
C367 C 0.02475 0.47731 0.02949 0.0
C368 C 0.99957 0.5038 0.07961 0.0
C369 C 0.01144 0.50672 0.09386 0.0
C370 C 1.00222 0.50622 0.10898 0.0
C371 C 0.98088 0.50263 0.10965 0.0
C372 C 0.97841 0.50052 0.08052 0.0
C373 C 0.9691 0.49985 0.09547 0.0
C374 C 0.04174 0.53364 0.02214 0.0
C375 C 0.0095 0.50401 0.06401 0.0
H376 H 0.99459 0.48323 0.93829 0.0
H377 H 0.04625 0.48344 0.91074 0.0
H378 H 0.04968 0.48592 0.96218 0.0
H379 H 0.06558 0.48572 0.93594 0.0
H380 H 0.02777 0.50918 0.09317 0.0
H381 H 0.97345 0.50237 0.12112 0.0
H382 H 0.9691 0.49856 0.06976 0.0
H383 H 0.95275 0.4973 0.09606 0.0
Tb384 Tb 0.5323 0.51657 0.03294 0.0
C385 C 0.48578 0.54275 0.98357 0.0
C386 C 0.44757 0.51696 0.98595 0.0
C387 C 0.45882 0.55298 0.9775 0.0
C388 C 0.46957 0.5226 0.98746 0.0
C389 C 0.48066 0.55812 0.97825 0.0
C390 C 0.44228 0.53241 0.98132 0.0
C391 C 0.51892 0.58177 0.97353 0.0
N392 N 0.5066 0.54692 0.98426 0.0
C393 C 0.52313 0.5659 0.97875 0.0
C394 C 0.49761 0.57796 0.97345 0.0
Tb395 Tb 0.51199 0.52018 0.99345 0.0
N396 N 0.47541 0.50813 0.99169 0.0
C397 C 0.45985 0.48726 0.99354 0.0
C398 C 0.4316 0.49585 0.98862 0.0
C399 C 0.43779 0.48089 0.99223 0.0
H400 H 0.53967 0.56906 0.97885 0.0
H401 H 0.42558 0.46443 0.99405 0.0
H402 H 0.42547 0.52846 0.98026 0.0
H403 H 0.53211 0.59693 0.96957 0.0
H404 H 0.46424 0.47545 0.99639 0.0
H405 H 0.61859 0.57291 0.03046 0.0
H406 H 0.41451 0.49087 0.98754 0.0
H407 H 0.5057 0.46841 0.04885 0.0
H408 H 0.57979 0.56161 0.02916 0.0
H409 H 0.51396 0.44114 0.05845 0.0
H410 H 0.45453 0.56462 0.97357 0.0
H411 H 0.63023 0.54687 0.03675 0.0
H412 H 0.61988 0.50964 0.04479 0.0
H413 H 0.49438 0.59024 0.96932 0.0
H414 H 0.59134 0.47368 0.0525 0.0
N415 N 0.56905 0.5291 0.03428 0.0
C416 C 0.5844 0.54995 0.032 0.0
C417 C 0.61307 0.54176 0.03622 0.0
C418 C 0.59735 0.52073 0.03949 0.0
C419 C 0.60656 0.5565 0.03271 0.0
C420 C 0.57524 0.51491 0.03852 0.0
H421 H 0.55177 0.44807 0.0579 0.0
N422 N 0.53844 0.49045 0.04249 0.0
C423 C 0.52688 0.45615 0.05401 0.0
C424 C 0.55934 0.49483 0.04283 0.0
C425 C 0.52228 0.47169 0.0486 0.0
C426 C 0.54823 0.4601 0.05365 0.0
C427 C 0.56485 0.47978 0.04825 0.0
O428 O 0.51696 0.51111 0.05555 0.0
O429 O 0.50615 0.51565 0.01901 0.0
O430 O 0.51582 0.5469 0.00794 0.0
O431 O 0.54184 0.54959 0.02645 0.0
O432 O 0.49758 0.49537 0.03793 0.0
O433 O 0.54594 0.54078 0.05052 0.0
O434 O 0.52656 0.52601 0.97051 0.0
O435 O 0.53793 0.52082 0.00737 0.0
O436 O 0.52755 0.48916 0.0189 0.0
O437 O 0.50223 0.48709 0.99985 0.0
O438 O 0.54684 0.54092 0.98841 0.0
O439 O 0.4987 0.49568 0.9761 0.0
C440 C 0.48991 0.5018 0.02663 0.0
C441 C 0.5402 0.52854 0.0775 0.0
C442 C 0.53728 0.52926 0.10686 0.0
C443 C 0.53008 0.53078 0.09133 0.0
C444 C 0.5548 0.52552 0.10834 0.0
C445 C 0.55776 0.52501 0.07925 0.0
C446 C 0.56499 0.52349 0.0946 0.0
C447 C 0.53101 0.55757 0.01894 0.0
C448 C 0.53174 0.52927 0.06143 0.0
C449 C 0.58676 0.48509 0.04853 0.0
C450 C 0.603 0.50555 0.04414 0.0
C451 C 0.55431 0.53432 0.99972 0.0
C452 C 0.50278 0.50722 0.94903 0.0
C453 C 0.51137 0.50322 0.93506 0.0
C454 C 0.50261 0.50298 0.91972 0.0
C455 C 0.48525 0.50703 0.91861 0.0
C456 C 0.48536 0.51102 0.94761 0.0
C457 C 0.47671 0.51098 0.93248 0.0
C458 C 0.5125 0.47875 0.00773 0.0
C459 C 0.51221 0.50743 0.96492 0.0
H460 H 0.5164 0.53335 0.08998 0.0
H461 H 0.56084 0.52449 0.12012 0.0
H462 H 0.56589 0.52342 0.06881 0.0
H463 H 0.57855 0.52075 0.09586 0.0
H464 H 0.52465 0.5 0.93619 0.0
H465 H 0.47839 0.50736 0.90701 0.0
H466 H 0.47839 0.51395 0.95813 0.0
H467 H 0.46334 0.51405 0.9315 0.0
Tb468 Tb 0.1566 0.32797 0.32743 0.0
C469 C 0.20097 0.3967 0.37973 0.0
C470 C 0.23904 0.40728 0.37881 0.0
C471 C 0.22822 0.43261 0.38748 0.0
C472 C 0.21702 0.39198 0.37625 0.0
C473 C 0.20629 0.41691 0.3857 0.0
C474 C 0.24459 0.42779 0.38405 0.0
C475 C 0.16792 0.40391 0.38905 0.0
N476 N 0.18003 0.38097 0.37808 0.0
C477 C 0.1635 0.38406 0.38319 0.0
C478 C 0.1894 0.42049 0.39014 0.0
Tb479 Tb 0.17432 0.34912 0.36801 0.0
N480 N 0.2109 0.37189 0.37147 0.0
C481 C 0.2261 0.36569 0.37011 0.0
C482 C 0.25471 0.40127 0.37661 0.0
C483 C 0.24818 0.3803 0.37244 0.0
H484 H 0.14683 0.37143 0.38235 0.0
H485 H 0.26013 0.37536 0.37099 0.0
H486 H 0.26143 0.43983 0.38592 0.0
H487 H 0.15476 0.4064 0.39272 0.0
H488 H 0.22145 0.34961 0.36684 0.0
H489 H 0.07173 0.30574 0.32558 0.0
H490 H 0.27179 0.41252 0.37852 0.0
H491 H 0.18162 0.30371 0.31238 0.0
H492 H 0.11072 0.32991 0.32968 0.0
H493 H 0.17174 0.26811 0.30204 0.0
H494 H 0.23268 0.44831 0.39191 0.0
H495 H 0.05821 0.26849 0.31742 0.0
H496 H 0.06647 0.23964 0.31016 0.0
H497 H 0.19279 0.43581 0.39475 0.0
H498 H 0.09375 0.22923 0.30398 0.0
N499 N 0.11968 0.30651 0.32459 0.0
C500 C 0.10529 0.3137 0.3263 0.0
C501 C 0.07542 0.27892 0.31954 0.0
C502 C 0.09021 0.27179 0.31728 0.0
C503 C 0.08301 0.29999 0.324 0.0
C504 C 0.1125 0.28622 0.31978 0.0
H505 H 0.13312 0.23986 0.30068 0.0
N506 N 0.14897 0.29549 0.31747 0.0
C507 C 0.15919 0.27134 0.30604 0.0
C508 C 0.12772 0.28045 0.31616 0.0
C509 C 0.16471 0.29151 0.31187 0.0
C510 C 0.13738 0.25541 0.30535 0.0
C511 C 0.12129 0.25999 0.31012 0.0
O512 O 0.17353 0.33713 0.30538 0.0
O513 O 0.1821 0.35117 0.34269 0.0
O514 O 0.173 0.37365 0.3539 0.0
O515 O 0.14858 0.35287 0.33369 0.0
O516 O 0.19131 0.33929 0.32396 0.0
O517 O 0.14598 0.34121 0.3095 0.0
O518 O 0.15744 0.33925 0.39004 0.0
O519 O 0.14906 0.32573 0.3527 0.0
O520 O 0.15934 0.30394 0.34133 0.0
O521 O 0.18353 0.3252 0.36156 0.0
O522 O 0.13937 0.33714 0.37124 0.0
O523 O 0.18559 0.33622 0.38573 0.0
C524 C 0.19854 0.35265 0.33572 0.0
C525 C 0.15253 0.33483 0.28262 0.0
C526 C 0.15567 0.34036 0.2534 0.0
C527 C 0.16257 0.348 0.26924 0.0
C528 C 0.13853 0.31941 0.2512 0.0
C529 C 0.13535 0.31408 0.2801 0.0
C530 C 0.12843 0.30643 0.26447 0.0
C531 C 0.15919 0.37082 0.34211 0.0
C532 C 0.16041 0.34277 0.29908 0.0
C533 C 0.09906 0.24511 0.30847 0.0
C534 C 0.08353 0.25103 0.31199 0.0
C535 C 0.13237 0.32375 0.35951 0.0
C536 C 0.17891 0.34216 0.41268 0.0
C537 C 0.16946 0.32885 0.4261 0.0
C538 C 0.1764 0.33666 0.4419 0.0
C539 C 0.193 0.35786 0.44403 0.0
C540 C 0.19556 0.36317 0.41516 0.0
C541 C 0.20253 0.37096 0.43073 0.0
C542 C 0.17351 0.30731 0.353 0.0
C543 C 0.17103 0.33413 0.39623 0.0
H544 H 0.17591 0.36404 0.27115 0.0
H545 H 0.13268 0.31316 0.2392 0.0
H546 H 0.12726 0.30379 0.29015 0.0
H547 H 0.11515 0.29039 0.26265 0.0
H548 H 0.15654 0.3126 0.42427 0.0
H549 H 0.19887 0.36424 0.456 0.0
H550 H 0.20321 0.37357 0.4051 0.0
H551 H 0.2154 0.38722 0.4325 0.0
Tb552 Tb 0.68903 0.82789 0.32797 0.0
C553 C 0.61541 0.80502 0.37633 0.0
C554 C 0.60399 0.83082 0.37185 0.0
C555 C 0.57805 0.79563 0.38167 0.0
C556 C 0.62008 0.8249 0.37135 0.0
C557 C 0.59448 0.79026 0.38189 0.0
C558 C 0.5828 0.81589 0.37664 0.0
C559 C 0.60817 0.76683 0.38873 0.0
N560 N 0.63179 0.80059 0.37648 0.0
C561 C 0.62869 0.78207 0.38314 0.0
C562 C 0.59092 0.77082 0.38792 0.0
Tb563 Tb 0.66473 0.82632 0.36678 0.0
N564 N 0.64082 0.83888 0.36704 0.0
C565 C 0.64687 0.85964 0.3642 0.0
C566 C 0.60985 0.85171 0.36799 0.0
C567 C 0.63147 0.86627 0.36439 0.0
H568 H 0.64186 0.77874 0.38375 0.0
H569 H 0.63628 0.88258 0.36169 0.0
H570 H 0.57014 0.82005 0.37692 0.0
H571 H 0.60569 0.75201 0.39364 0.0
H572 H 0.66344 0.87114 0.3613 0.0
H573 H 0.71682 0.77111 0.33141 0.0
H574 H 0.59796 0.85689 0.36814 0.0
H575 H 0.71209 0.87605 0.31192 0.0
H576 H 0.69013 0.78307 0.33324 0.0
H577 H 0.74821 0.90282 0.30198 0.0
H578 H 0.56179 0.78444 0.38574 0.0
H579 H 0.75494 0.79653 0.32411 0.0
H580 H 0.7829 0.83345 0.31581 0.0
H581 H 0.57507 0.75903 0.39231 0.0
H582 H 0.79149 0.86941 0.3078 0.0
N583 N 0.71284 0.81528 0.32746 0.0
C584 C 0.70665 0.79445 0.33009 0.0
C585 C 0.74328 0.80194 0.32501 0.0
C586 C 0.74932 0.823 0.32165 0.0
C587 C 0.72178 0.78755 0.32907 0.0
C588 C 0.73346 0.82916 0.32282 0.0
H589 H 0.77856 0.89534 0.30237 0.0
N590 N 0.72196 0.85378 0.3184 0.0
C591 C 0.74564 0.88781 0.30654 0.0
C592 C 0.7382 0.84915 0.3181 0.0
C593 C 0.72516 0.87255 0.31215 0.0
C594 C 0.76274 0.88356 0.30682 0.0
C595 C 0.75906 0.86389 0.3124 0.0
O596 O 0.6812 0.83273 0.30441 0.0
O597 O 0.66381 0.8296 0.34105 0.0
O598 O 0.64111 0.79864 0.35305 0.0
O599 O 0.66408 0.79511 0.33477 0.0
O600 O 0.67593 0.84868 0.32153 0.0
O601 O 0.67691 0.80236 0.31159 0.0
O602 O 0.67367 0.82187 0.39006 0.0
O603 O 0.68998 0.82459 0.35368 0.0
O604 O 0.71263 0.85546 0.3419 0.0
O605 O 0.68928 0.85902 0.35972 0.0
O606 O 0.67765 0.8053 0.37306 0.0
O607 O 0.67607 0.8516 0.3834 0.0
C608 C 0.66165 0.84289 0.33272 0.0
C609 C 0.68577 0.8123 0.28431 0.0
C610 C 0.68352 0.8096 0.25491 0.0
C611 C 0.67507 0.81136 0.26982 0.0
C612 C 0.70306 0.80911 0.25471 0.0
C613 C 0.70511 0.81155 0.28385 0.0
C614 C 0.71375 0.8101 0.26911 0.0
C615 C 0.64508 0.78756 0.34223 0.0
C616 C 0.67627 0.81373 0.29969 0.0
C617 C 0.7753 0.85827 0.31202 0.0
C618 C 0.77042 0.83781 0.31661 0.0
C619 C 0.69199 0.81113 0.3619 0.0
C620 C 0.66824 0.84104 0.41065 0.0
C621 C 0.6804 0.84443 0.42482 0.0
C622 C 0.67156 0.84459 0.43999 0.0
C623 C 0.65025 0.84114 0.44071 0.0
C624 C 0.64715 0.83791 0.41163 0.0
C625 C 0.6382 0.83789 0.4266 0.0
C626 C 0.70834 0.86668 0.35237 0.0
C627 C 0.67778 0.84052 0.39504 0.0
H628 H 0.65991 0.81152 0.27021 0.0
H629 H 0.71011 0.80805 0.24342 0.0
H630 H 0.71346 0.81189 0.29481 0.0
H631 H 0.72872 0.80962 0.26886 0.0
H632 H 0.69684 0.84723 0.42397 0.0
H633 H 0.6428 0.84077 0.45219 0.0
H634 H 0.63761 0.83553 0.40091 0.0
H635 H 0.62185 0.83532 0.42727 0.0
Tb636 Tb 0.19975 0.84989 0.36722 0.0
C637 C 0.14956 0.87107 0.31749 0.0
C638 C 0.1119 0.84429 0.3211 0.0
C639 C 0.12118 0.87944 0.31164 0.0
C640 C 0.13419 0.85087 0.32204 0.0
C641 C 0.1433 0.88551 0.31191 0.0
C642 C 0.10549 0.85885 0.31624 0.0
C643 C 0.18102 0.91006 0.30601 0.0
N644 N 0.17069 0.87618 0.31781 0.0
C645 C 0.18638 0.8951 0.31157 0.0
C646 C 0.15942 0.90535 0.30636 0.0
Tb647 Tb 0.17804 0.85099 0.32769 0.0
N648 N 0.14111 0.83729 0.3265 0.0
C649 C 0.12632 0.81634 0.32907 0.0
C650 C 0.09675 0.82317 0.32465 0.0
C651 C 0.10401 0.80906 0.32842 0.0
H652 H 0.20314 0.89895 0.31134 0.0
H653 H 0.09243 0.79258 0.33089 0.0
H654 H 0.08844 0.85418 0.31561 0.0
H655 H 0.19356 0.92521 0.30147 0.0
H656 H 0.13154 0.80517 0.3321 0.0
H657 H 0.28532 0.9084 0.36359 0.0
H658 H 0.07946 0.81749 0.32415 0.0
H659 H 0.1749 0.8022 0.38395 0.0
H660 H 0.24623 0.89575 0.36254 0.0
H661 H 0.18465 0.77619 0.39414 0.0
H662 H 0.11602 0.89036 0.30753 0.0
H663 H 0.29842 0.88361 0.37038 0.0
H664 H 0.28959 0.84706 0.37919 0.0
H665 H 0.15529 0.91693 0.30199 0.0
H666 H 0.26214 0.81104 0.3877 0.0
N667 N 0.23672 0.86368 0.3683 0.0
C668 C 0.25146 0.88462 0.36561 0.0
C669 C 0.28112 0.8779 0.36997 0.0
C670 C 0.26604 0.85683 0.37369 0.0
C671 C 0.27379 0.89194 0.36617 0.0
C672 C 0.24372 0.85022 0.37287 0.0
H673 H 0.22294 0.78456 0.39359 0.0
N674 N 0.2073 0.82496 0.37735 0.0
C675 C 0.19713 0.79128 0.38947 0.0
C676 C 0.22844 0.83012 0.37766 0.0
C677 C 0.19168 0.8061 0.38373 0.0
C678 C 0.21875 0.79604 0.38911 0.0
C679 C 0.23479 0.8158 0.38336 0.0
O680 O 0.18559 0.84455 0.39031 0.0
O681 O 0.17291 0.84745 0.35334 0.0
O682 O 0.18154 0.87821 0.34135 0.0
O683 O 0.20806 0.88231 0.35998 0.0
O684 O 0.16527 0.82813 0.37275 0.0
O685 O 0.2123 0.87523 0.38382 0.0
O686 O 0.19255 0.85639 0.30476 0.0
O687 O 0.2048 0.85326 0.34156 0.0
O688 O 0.19611 0.82256 0.35367 0.0
O689 O 0.16983 0.81852 0.33481 0.0
O690 O 0.21256 0.8727 0.32223 0.0
O691 O 0.16509 0.82597 0.31077 0.0
C692 C 0.15703 0.83372 0.3613 0.0
C693 C 0.20941 0.86519 0.41123 0.0
C694 C 0.20836 0.86833 0.44056 0.0
C695 C 0.19888 0.8663 0.42523 0.0
C696 C 0.22842 0.86894 0.44167 0.0
C697 C 0.2294 0.86583 0.41262 0.0
C698 C 0.23879 0.86764 0.42777 0.0
C699 C 0.19673 0.88954 0.35218 0.0
C700 C 0.19939 0.86362 0.39534 0.0
C701 C 0.25691 0.82187 0.38351 0.0
C702 C 0.27253 0.84237 0.37866 0.0
C703 C 0.22073 0.86697 0.33364 0.0
C704 C 0.16895 0.8367 0.28349 0.0
C705 C 0.17797 0.83283 0.26971 0.0
C706 C 0.16929 0.83211 0.25425 0.0
C707 C 0.15153 0.83553 0.25285 0.0
C708 C 0.15116 0.83987 0.28179 0.0
C709 C 0.14255 0.83934 0.26654 0.0
C710 C 0.18108 0.81127 0.34271 0.0
C711 C 0.17847 0.83755 0.29946 0.0
H712 H 0.18353 0.86602 0.42415 0.0
H713 H 0.23599 0.87024 0.4533 0.0
H714 H 0.23783 0.86509 0.40203 0.0
H715 H 0.25421 0.8681 0.42875 0.0
H716 H 0.19155 0.8301 0.27109 0.0
H717 H 0.14469 0.83547 0.24114 0.0
H718 H 0.14389 0.84271 0.2922 0.0
H719 H 0.12889 0.84192 0.26532 0.0
Tb720 Tb 0.82538 0.65938 0.6602 0.0
C721 C 0.86842 0.7278 0.7119 0.0
C722 C 0.90629 0.73725 0.71074 0.0
C723 C 0.89677 0.76375 0.71863 0.0
C724 C 0.88405 0.72219 0.70862 0.0
C725 C 0.87464 0.74847 0.71739 0.0
C726 C 0.91256 0.75816 0.71528 0.0
C727 C 0.83673 0.73695 0.72156 0.0
N728 N 0.8471 0.71267 0.71061 0.0
C729 C 0.8313 0.71669 0.71604 0.0
C730 C 0.85846 0.75301 0.72198 0.0
Tb731 Tb 0.84059 0.68052 0.70074 0.0
N732 N 0.87746 0.70175 0.70429 0.0
C733 C 0.89233 0.69501 0.70362 0.0
C734 C 0.92158 0.73071 0.70874 0.0
C735 C 0.91452 0.70942 0.7055 0.0
H736 H 0.81439 0.70465 0.71551 0.0
H737 H 0.9262 0.70407 0.7044 0.0
H738 H 0.92957 0.76997 0.71673 0.0
H739 H 0.82412 0.7402 0.72538 0.0
H740 H 0.88764 0.67876 0.70117 0.0
H741 H 0.74024 0.63581 0.65616 0.0
H742 H 0.9388 0.74181 0.71018 0.0
H743 H 0.85146 0.63469 0.64812 0.0
H744 H 0.77926 0.66095 0.65966 0.0
H745 H 0.84229 0.59849 0.6398 0.0
H746 H 0.90185 0.77978 0.72262 0.0
H747 H 0.7273 0.59789 0.65051 0.0
H748 H 0.73639 0.56919 0.64486 0.0
H749 H 0.8626 0.76869 0.72627 0.0
H750 H 0.76422 0.55897 0.64042 0.0
N751 N 0.78867 0.63755 0.6565 0.0
C752 C 0.77403 0.64452 0.65715 0.0
C753 C 0.74453 0.60888 0.65205 0.0
C754 C 0.75966 0.60205 0.6505 0.0
C755 C 0.75178 0.63028 0.65519 0.0
C756 C 0.78187 0.617 0.65271 0.0
H757 H 0.80383 0.56987 0.6383 0.0
N758 N 0.81852 0.62652 0.65175 0.0
C759 C 0.82949 0.60184 0.64278 0.0
C760 C 0.79738 0.61125 0.65026 0.0
C761 C 0.83462 0.62235 0.64744 0.0
C762 C 0.80776 0.58571 0.64199 0.0
C763 C 0.79135 0.5904 0.64549 0.0
O764 O 0.84287 0.66699 0.63842 0.0
O765 O 0.8501 0.68311 0.67578 0.0
O766 O 0.83682 0.70406 0.687 0.0
O767 O 0.81758 0.68484 0.6641 0.0
O768 O 0.86036 0.67101 0.65795 0.0
O769 O 0.81547 0.67173 0.64116 0.0
O770 O 0.82399 0.65379 0.71591 0.0
O771 O 0.81563 0.65802 0.68498 0.0
O772 O 0.82666 0.63574 0.6756 0.0
O773 O 0.85153 0.65777 0.69506 0.0
O774 O 0.80628 0.672 0.70194 0.0
O775 O 0.84798 0.6835 0.72568 0.0
C776 C 0.86694 0.68475 0.66945 0.0
C777 C 0.82282 0.66416 0.61491 0.0
C778 C 0.8254 0.66967 0.58569 0.0
C779 C 0.83184 0.6776 0.60152 0.0
C780 C 0.80971 0.64813 0.58351 0.0
C781 C 0.80711 0.6428 0.61242 0.0
C782 C 0.80062 0.63485 0.59681 0.0
C783 C 0.82564 0.70185 0.67361 0.0
C784 C 0.83018 0.67261 0.63132 0.0
C785 C 0.76922 0.57515 0.64393 0.0
C786 C 0.75339 0.58097 0.64645 0.0
C787 C 0.79908 0.65774 0.69072 0.0
C788 C 0.81878 0.66137 0.74273 0.0
C789 C 0.82101 0.65287 0.75741 0.0
C790 C 0.80744 0.65042 0.77064 0.0
C791 C 0.79145 0.65627 0.76882 0.0
C792 C 0.80277 0.66718 0.74137 0.0
C793 C 0.78918 0.66458 0.7543 0.0
C794 C 0.84073 0.6393 0.68736 0.0
C795 C 0.83324 0.66418 0.72901 0.0
H796 H 0.84407 0.6941 0.60342 0.0
H797 H 0.80422 0.64162 0.57152 0.0
H798 H 0.79986 0.63226 0.6225 0.0
H799 H 0.78847 0.61833 0.595 0.0
H800 H 0.83346 0.64849 0.7586 0.0
H801 H 0.78049 0.65421 0.77861 0.0
H802 H 0.80063 0.67374 0.73038 0.0
H803 H 0.77681 0.66901 0.75306 0.0
Tb804 Tb 0.35753 0.16298 0.66111 0.0
C805 C 0.28204 0.1365 0.70813 0.0
C806 C 0.27161 0.16338 0.70646 0.0
C807 C 0.24466 0.12712 0.71336 0.0
C808 C 0.28734 0.1571 0.70491 0.0
C809 C 0.26074 0.1213 0.71268 0.0
C810 C 0.2501 0.14816 0.7103 0.0
C811 C 0.2734 0.09645 0.71703 0.0
N812 N 0.29816 0.13171 0.70766 0.0
C813 C 0.29433 0.11219 0.71264 0.0
C814 C 0.25646 0.10095 0.71688 0.0
Tb815 Tb 0.33179 0.15834 0.69983 0.0
N816 N 0.30834 0.17132 0.70141 0.0
C817 C 0.31494 0.19246 0.70032 0.0
C818 C 0.27814 0.18486 0.7047 0.0
C819 C 0.29997 0.19949 0.70183 0.0
H820 H 0.30726 0.10849 0.71274 0.0
H821 H 0.30532 0.21623 0.70078 0.0
H822 H 0.23772 0.15262 0.71136 0.0
H823 H 0.27035 0.08087 0.72054 0.0
H824 H 0.3317 0.20404 0.69804 0.0
H825 H 0.38477 0.10563 0.66243 0.0
H826 H 0.26658 0.19035 0.70592 0.0
H827 H 0.38151 0.21208 0.64673 0.0
H828 H 0.35808 0.1176 0.66428 0.0
H829 H 0.41812 0.23936 0.63808 0.0
H830 H 0.22815 0.11565 0.71671 0.0
H831 H 0.42332 0.13145 0.65668 0.0
H832 H 0.45183 0.16891 0.65014 0.0
H833 H 0.2403 0.08878 0.7204 0.0
H834 H 0.46096 0.20544 0.6435 0.0
N835 N 0.38121 0.1502 0.66013 0.0
C836 C 0.37479 0.12916 0.66182 0.0
C837 C 0.41166 0.13686 0.65762 0.0
C838 C 0.41797 0.15818 0.65516 0.0
C839 C 0.38991 0.12224 0.66079 0.0
C840 C 0.40212 0.16435 0.65636 0.0
H841 H 0.44838 0.23178 0.63868 0.0
N842 N 0.39096 0.18934 0.65268 0.0
C843 C 0.41529 0.22407 0.64216 0.0
C844 C 0.40719 0.18469 0.65246 0.0
C845 C 0.39452 0.20851 0.64704 0.0
C846 C 0.43235 0.21976 0.64256 0.0
C847 C 0.42834 0.19973 0.6475 0.0
O848 O 0.34997 0.16953 0.63801 0.0
O849 O 0.33212 0.16421 0.67439 0.0
O850 O 0.30846 0.13278 0.68425 0.0
O851 O 0.33222 0.12982 0.66651 0.0
O852 O 0.34531 0.18481 0.65579 0.0
O853 O 0.34631 0.13895 0.64342 0.0
O854 O 0.33867 0.1509 0.72283 0.0
O855 O 0.35742 0.15747 0.68661 0.0
O856 O 0.3807 0.18937 0.67617 0.0
O857 O 0.35711 0.19157 0.69463 0.0
O858 O 0.34403 0.13645 0.70489 0.0
O859 O 0.34326 0.18197 0.71785 0.0
C860 C 0.33075 0.17849 0.66681 0.0
C861 C 0.35574 0.15147 0.61671 0.0
C862 C 0.35391 0.15004 0.58726 0.0
C863 C 0.34445 0.14948 0.60231 0.0
C864 C 0.37498 0.15283 0.58689 0.0
C865 C 0.37657 0.1539 0.61605 0.0
C866 C 0.38616 0.15467 0.60122 0.0
C867 C 0.31283 0.12209 0.67335 0.0
C868 C 0.34558 0.15113 0.63224 0.0
C869 C 0.44455 0.19407 0.64714 0.0
C870 C 0.43936 0.17329 0.65094 0.0
C871 C 0.35893 0.14322 0.69411 0.0
C872 C 0.3337 0.16909 0.74445 0.0
C873 C 0.34594 0.17306 0.75865 0.0
C874 C 0.33664 0.17232 0.77379 0.0
C875 C 0.31491 0.1676 0.77451 0.0
C876 C 0.31211 0.16458 0.74542 0.0
C877 C 0.30277 0.16381 0.76038 0.0
C878 C 0.37631 0.1997 0.68739 0.0
C879 C 0.34362 0.16936 0.72884 0.0
H880 H 0.32817 0.14717 0.60288 0.0
H881 H 0.38292 0.15375 0.57553 0.0
H882 H 0.38543 0.15514 0.62692 0.0
H883 H 0.40232 0.15672 0.60082 0.0
H884 H 0.3626 0.17641 0.75793 0.0
H885 H 0.3074 0.16713 0.78599 0.0
H886 H 0.30247 0.16166 0.73471 0.0
H887 H 0.2861 0.16031 0.76101 0.0
Tb888 Tb 0.86615 0.1814 0.69981 0.0
C889 C 0.81696 0.20554 0.65126 0.0
C890 C 0.7791 0.17949 0.65505 0.0
C891 C 0.78926 0.21506 0.6461 0.0
C892 C 0.80126 0.18545 0.65573 0.0
C893 C 0.8112 0.22049 0.64602 0.0
C894 C 0.77321 0.19458 0.65063 0.0
C895 C 0.84899 0.24423 0.63976 0.0
N896 N 0.8379 0.21003 0.65127 0.0
C897 C 0.85385 0.22882 0.64504 0.0
C898 C 0.82761 0.24016 0.64043 0.0
Tb899 Tb 0.84447 0.18411 0.66065 0.0
N900 N 0.80767 0.17134 0.65969 0.0
C901 C 0.79248 0.15041 0.66184 0.0
C902 C 0.76355 0.15839 0.65828 0.0
C903 C 0.77028 0.14371 0.6614 0.0
H904 H 0.87046 0.23221 0.64457 0.0
H905 H 0.75838 0.12724 0.66357 0.0
H906 H 0.75629 0.19039 0.65023 0.0
H907 H 0.86174 0.25926 0.63519 0.0
H908 H 0.79728 0.13882 0.6644 0.0
H909 H 0.95182 0.23966 0.69632 0.0
H910 H 0.74636 0.15316 0.65795 0.0
H911 H 0.84131 0.13332 0.71589 0.0
H912 H 0.91276 0.2273 0.69575 0.0
H913 H 0.85091 0.10673 0.72491 0.0
H914 H 0.78449 0.22639 0.64228 0.0
H915 H 0.96472 0.21438 0.7018 0.0
H916 H 0.95571 0.17736 0.70934 0.0
H917 H 0.82387 0.2521 0.63629 0.0
H918 H 0.92818 0.14108 0.71725 0.0
N919 N 0.9031 0.19493 0.7005 0.0
C920 C 0.91792 0.21596 0.69825 0.0
C921 C 0.94745 0.2088 0.70159 0.0
C922 C 0.93229 0.18759 0.70485 0.0
C923 C 0.94022 0.22311 0.69854 0.0
C924 C 0.91 0.18115 0.70433 0.0
H925 H 0.88903 0.11468 0.72339 0.0
N926 N 0.87359 0.15595 0.70893 0.0
C927 C 0.86338 0.12188 0.72032 0.0
C928 C 0.89466 0.1609 0.70876 0.0
C929 C 0.85801 0.13702 0.71524 0.0
C930 C 0.8849 0.1264 0.7194 0.0
C931 C 0.90093 0.14626 0.71382 0.0
O932 O 0.85166 0.17535 0.72279 0.0
O933 O 0.83943 0.17989 0.68631 0.0
O934 O 0.84848 0.21113 0.67484 0.0
O935 O 0.87458 0.21419 0.6935 0.0
O936 O 0.83166 0.15968 0.70522 0.0
O937 O 0.87945 0.20574 0.71728 0.0
O938 O 0.8589 0.18962 0.63769 0.0
O939 O 0.87106 0.1855 0.6742 0.0
O940 O 0.86171 0.15416 0.68567 0.0
O941 O 0.83548 0.15125 0.66718 0.0
O942 O 0.87906 0.20554 0.65524 0.0
O943 O 0.83093 0.15945 0.64344 0.0
C944 C 0.82353 0.16588 0.69409 0.0
C945 C 0.87553 0.19377 0.74424 0.0
C946 C 0.87466 0.19577 0.7737 0.0
C947 C 0.86611 0.19617 0.75841 0.0
C948 C 0.89273 0.19276 0.77451 0.0
C949 C 0.89365 0.19103 0.74537 0.0
C950 C 0.90214 0.19047 0.76043 0.0
C951 C 0.86357 0.22193 0.6859 0.0
C952 C 0.86603 0.19385 0.72846 0.0
C953 C 0.92301 0.15216 0.71358 0.0
C954 C 0.93868 0.17281 0.70908 0.0
C955 C 0.88708 0.19928 0.6664 0.0
C956 C 0.83511 0.17072 0.61629 0.0
C957 C 0.84372 0.1665 0.60244 0.0
C958 C 0.83518 0.16629 0.58702 0.0
C959 C 0.81797 0.17054 0.58574 0.0
C960 C 0.81788 0.17477 0.61472 0.0
C961 C 0.80941 0.17472 0.59951 0.0
C962 C 0.84634 0.14336 0.6748 0.0
C963 C 0.84448 0.17102 0.63221 0.0
H964 H 0.8523 0.19861 0.75747 0.0
H965 H 0.89949 0.19194 0.78603 0.0
H966 H 0.90125 0.18933 0.73466 0.0
H967 H 0.91605 0.1882 0.7612 0.0
H968 H 0.85686 0.16311 0.60373 0.0
H969 H 0.81125 0.17087 0.57407 0.0
H970 H 0.81096 0.17794 0.6252 0.0
H971 H 0.79617 0.17796 0.59838 0.0
H972 H 0.29945 0.80835 0.06145 0.0
H973 H 0.33332 0.83759 0.05049 0.0
H974 H 0.31474 0.88258 0.06689 0.0
H975 H 0.28112 0.85361 0.07789 0.0
H976 H 0.34165 0.86919 0.02784 0.0
H977 H 0.37408 0.90485 0.08792 0.0
H978 H 0.35101 0.87848 0.08549 0.0
H979 H 0.34765 0.90136 0.08399 0.0
C980 C 0.30255 0.82448 0.06259 0.0
C981 C 0.28778 0.82871 0.07076 0.0
C982 C 0.32191 0.84115 0.05638 0.0
C983 C 0.32681 0.86231 0.05823 0.0
C984 C 0.31162 0.86645 0.06574 0.0
H985 H 0.42844 0.98857 0.03541 0.0
H986 H 0.39417 0.9561 0.04137 0.0
C987 C 0.29239 0.84986 0.072 0.0
C988 C 0.3478 0.88019 0.05249 0.0
H989 H 0.39223 0.92629 0.06508 0.0
C990 C 0.35287 0.88155 0.03599 0.0
C991 C 0.36245 0.89629 0.06316 0.0
C992 C 0.35867 0.89511 0.08115 0.0
C993 C 0.37178 0.89901 0.02981 0.0
C994 C 0.38599 0.91545 0.04041 0.0
C995 C 0.38118 0.9138 0.05694 0.0
C996 C 0.40581 0.93476 0.03471 0.0
C997 C 0.37591 0.90035 0.01192 0.0
C998 C 0.42369 0.93355 0.02887 0.0
C999 C 0.44328 0.9521 0.02548 0.0
C1000 C 0.44527 0.97217 0.02775 0.0
C1001 C 0.42723 0.9733 0.03331 0.0
C1002 C 0.40768 0.95479 0.03672 0.0
H1003 H 0.36242 0.88709 0.00514 0.0
H1004 H 0.37802 0.91558 0.00735 0.0
H1005 H 0.39109 0.90006 0.00947 0.0
H1006 H 0.42281 0.91831 0.0276 0.0
H1007 H 0.45704 0.95067 0.02173 0.0
H1008 H 0.1677 0.43144 0.07582 0.0
H1009 H 0.1379 0.43538 0.06507 0.0
H1010 H 0.18343 0.49974 0.05119 0.0
H1011 H 0.21347 0.4958 0.06189 0.0
H1012 H 0.12635 0.4636 0.07634 0.0
H1013 H 0.14525 0.47719 0.01095 0.0
H1014 H 0.15797 0.46679 0.0241 0.0
H1015 H 0.16698 0.4947 0.0242 0.0
C1016 C 0.17143 0.44639 0.07034 0.0
C1017 C 0.19297 0.46336 0.06982 0.0
C1018 C 0.15436 0.4486 0.06415 0.0
C1019 C 0.15834 0.46781 0.05722 0.0
C1020 C 0.17992 0.48462 0.05619 0.0
H1021 H 0.06728 0.50965 0.02733 0.0
H1022 H 0.10009 0.50787 0.03338 0.0
C1023 C 0.1971 0.48237 0.06234 0.0
C1024 C 0.13965 0.47053 0.05234 0.0
H1025 H 0.1159 0.48104 0.02038 0.0
C1026 C 0.12408 0.46735 0.06408 0.0
C1027 C 0.13672 0.47563 0.03638 0.0
C1028 C 0.15249 0.47861 0.02312 0.0
C1029 C 0.10572 0.46905 0.06035 0.0
C1030 C 0.10256 0.47373 0.04434 0.0
C1031 C 0.11829 0.47734 0.03263 0.0
C1032 C 0.08276 0.47455 0.03962 0.0
C1033 C 0.08997 0.46605 0.07365 0.0
C1034 C 0.06212 0.45636 0.04086 0.0
C1035 C 0.04338 0.45733 0.0373 0.0
C1036 C 0.0449 0.47638 0.03209 0.0
C1037 C 0.06557 0.49459 0.03082 0.0
C1038 C 0.08435 0.49361 0.03436 0.0
H1039 H 0.09744 0.46804 0.0858 0.0
H1040 H 0.08402 0.47749 0.07246 0.0
H1041 H 0.07575 0.44975 0.07287 0.0
H1042 H 0.06049 0.44142 0.04474 0.0
H1043 H 0.02764 0.44314 0.03859 0.0
H1044 H 0.59323 0.74207 0.07836 0.0
H1045 H 0.5876 0.7089 0.06645 0.0
H1046 H 0.5258 0.69626 0.04727 0.0
H1047 H 0.5311 0.72932 0.05943 0.0
H1048 H 0.55044 0.66763 0.07388 0.0
H1049 H 0.55784 0.68689 0.0084 0.0
H1050 H 0.56878 0.70716 0.02391 0.0
H1051 H 0.5401 0.6928 0.01996 0.0
C1052 C 0.57841 0.73224 0.07163 0.0
C1053 C 0.56251 0.73823 0.06996 0.0
C1054 C 0.57531 0.71338 0.06475 0.0
C1055 C 0.55637 0.70026 0.05592 0.0
C1056 C 0.54067 0.70637 0.05386 0.0
H1057 H 0.50696 0.57625 0.01152 0.0
H1058 H 0.51339 0.61105 0.0202 0.0
C1059 C 0.54373 0.72525 0.0608 0.0
C1060 C 0.55255 0.67955 0.04981 0.0
H1061 H 0.54788 0.65167 0.01536 0.0
C1062 C 0.54992 0.66412 0.06109 0.0
C1063 C 0.55174 0.67507 0.03313 0.0
C1064 C 0.5549 0.69135 0.02058 0.0
C1065 C 0.54633 0.64416 0.05614 0.0
C1066 C 0.54591 0.63976 0.03945 0.0
C1067 C 0.54834 0.65515 0.02815 0.0
C1068 C 0.54277 0.61918 0.03352 0.0
C1069 C 0.54254 0.62782 0.06884 0.0
C1070 C 0.55745 0.61242 0.03783 0.0
C1071 C 0.55381 0.5925 0.03293 0.0
C1072 C 0.53556 0.5791 0.02344 0.0
C1073 C 0.52125 0.58621 0.01873 0.0
C1074 C 0.52486 0.60609 0.0237 0.0
H1075 H 0.53743 0.63151 0.08051 0.0
H1076 H 0.52993 0.61168 0.06488 0.0
H1077 H 0.55787 0.62767 0.07099 0.0
H1078 H 0.57164 0.6225 0.04511 0.0
H1079 H 0.56524 0.58759 0.03665 0.0
H1080 H 0.83164 0.29374 0.93257 0.0
H1081 H 0.85985 0.3269 0.94449 0.0
H1082 H 0.84614 0.29763 0.99145 0.0
H1083 H 0.81841 0.26398 0.97945 0.0
H1084 H 0.85848 0.35273 0.96737 0.0
H1085 H 0.91116 0.32111 0.98794 0.0
H1086 H 0.88844 0.30655 0.97442 0.0
H1087 H 0.884 0.30711 0.99574 0.0
C1088 C 0.83473 0.29425 0.94542 0.0
C1089 C 0.82297 0.27606 0.955 0.0
C1090 C 0.85078 0.3133 0.95224 0.0
C1091 C 0.85545 0.31467 0.96881 0.0
C1092 C 0.84318 0.29682 0.97856 0.0
H1093 H 0.93539 0.43611 0.01783 0.0
H1094 H 0.90575 0.40174 0.00903 0.0
C1095 C 0.82713 0.27767 0.97172 0.0
C1096 C 0.87323 0.33485 0.97571 0.0
H1097 H 0.92209 0.35654 0.99538 0.0
C1098 C 0.87237 0.35355 0.97353 0.0
C1099 C 0.89153 0.33598 0.98351 0.0
C1100 C 0.89403 0.31668 0.98543 0.0
C1101 C 0.88923 0.37332 0.97894 0.0
C1102 C 0.90727 0.37437 0.9871 0.0
C1103 C 0.90818 0.35569 0.98925 0.0
C1104 C 0.92558 0.3948 0.99317 0.0
C1105 C 0.88784 0.39295 0.97541 0.0
C1106 C 0.94683 0.40204 0.9877 0.0
C1107 C 0.964 0.42159 0.99299 0.0
C1108 C 0.96027 0.43427 0.00391 0.0
C1109 C 0.93899 0.42675 0.00956 0.0
C1110 C 0.9219 0.40717 0.00437 0.0
H1111 H 0.87635 0.39025 0.96535 0.0
H1112 H 0.88188 0.39737 0.98629 0.0
H1113 H 0.904 0.40655 0.97224 0.0
H1114 H 0.95008 0.39271 0.9791 0.0
H1115 H 0.98015 0.42682 0.98838 0.0
H1116 H 0.74227 0.57706 0.95323 0.0
H1117 H 0.70893 0.57355 0.96462 0.0
H1118 H 0.68903 0.50962 0.97941 0.0
H1119 H 0.72237 0.51294 0.96781 0.0
H1120 H 0.65694 0.51368 0.96194 0.0
H1121 H 0.69058 0.57251 0.01185 0.0
H1122 H 0.7034 0.58269 0.99273 0.0
H1123 H 0.70586 0.56181 1.00226 0.0
C1124 C 0.73089 0.56229 0.95901 0.0
C1125 C 0.735 0.54526 0.95957 0.0
C1126 C 0.7119 0.56037 0.96565 0.0
C1127 C 0.69654 0.54141 0.97305 0.0
C1128 C 0.70071 0.52447 0.97387 0.0
H1129 H 0.56279 0.50152 0.0036 0.0
H1130 H 0.5971 0.50226 0.99876 0.0
C1131 C 0.71983 0.52643 0.96732 0.0
C1132 C 0.67555 0.5389 0.97888 0.0
H1133 H 0.65381 0.56054 0.00424 0.0
C1134 C 0.6562 0.52374 0.97133 0.0
C1135 C 0.67459 0.55207 0.99109 0.0
C1136 C 0.69468 0.56807 1.00008 0.0
C1137 C 0.63608 0.52199 0.97517 0.0
C1138 C 0.63517 0.53545 0.98718 0.0
C1139 C 0.65447 0.55025 0.99501 0.0
C1140 C 0.61456 0.53513 0.99122 0.0
C1141 C 0.61616 0.50636 0.96581 0.0
C1142 C 0.61302 0.5535 0.98914 0.0
C1143 C 0.5935 0.55319 0.99222 0.0
C1144 C 0.5752 0.53463 0.99773 0.0
C1145 C 0.57672 0.51624 0.99983 0.0
C1146 C 0.59629 0.51656 0.99681 0.0
H1147 H 0.62046 0.50118 0.95445 0.0
H1148 H 0.60644 0.49205 0.9733 0.0
H1149 H 0.60582 0.51332 0.96276 0.0
H1150 H 0.62683 0.56801 0.98481 0.0
H1151 H 0.59267 0.56749 0.99026 0.0
H1152 H 0.43318 0.16238 0.94973 0.0
H1153 H 0.43928 0.13561 0.96248 0.0
H1154 H 0.49982 0.18492 0.98245 0.0
H1155 H 0.49423 0.21189 0.96916 0.0
H1156 H 0.50371 0.15318 0.96767 0.0
H1157 H 0.43376 0.11837 0.00947 0.0
H1158 H 0.4258 0.11892 0.98899 0.0
H1159 H 0.44286 0.14348 0.99953 0.0
C1160 C 0.44783 0.16756 0.95679 0.0
C1161 C 0.46328 0.18927 0.95837 0.0
C1162 C 0.45114 0.15224 0.96427 0.0
C1163 C 0.4698 0.1583 0.97364 0.0
C1164 C 0.4852 0.17994 0.97538 0.0
H1165 H 0.51678 0.0803 0.01892 0.0
H1166 H 0.51162 0.10995 0.01146 0.0
C1167 C 0.48193 0.19532 0.96786 0.0
C1168 C 0.47379 0.14189 0.98075 0.0
H1169 H 0.45097 0.09773 0.00451 0.0
C1170 C 0.49236 0.14123 0.97591 0.0
C1171 C 0.45893 0.12633 0.99148 0.0
C1172 C 0.43933 0.1269 0.99781 0.0
C1173 C 0.49602 0.12491 0.98103 0.0
C1174 C 0.48081 0.10902 0.99136 0.0
C1175 C 0.46251 0.10992 0.9965 0.0
C1176 C 0.48333 0.09096 0.99654 0.0
C1177 C 0.51571 0.12434 0.97493 0.0
C1178 C 0.46882 0.07042 0.99089 0.0
C1179 C 0.47163 0.05339 0.99518 0.0
C1180 C 0.48891 0.05661 0.00533 0.0
C1181 C 0.50318 0.0772 0.01121 0.0
C1182 C 0.50038 0.09421 0.00687 0.0
H1183 H 0.52373 0.13558 0.96481 0.0
H1184 H 0.52768 0.12874 0.9849 0.0
H1185 H 0.51116 0.10809 0.97079 0.0
H1186 H 0.45554 0.06765 0.98291 0.0
H1187 H 0.46034 0.03775 0.99046 0.0
H1188 H 0.72335 0.19119 0.97882 0.0
H1189 H 0.68976 0.16483 0.99212 0.0
H1190 H 0.66527 0.1326 0.94652 0.0
H1191 H 0.69837 0.15915 0.93318 0.0
H1192 H 0.635 0.1372 0.96218 0.0
H1193 H 0.67191 0.10441 0.00406 0.0
H1194 H 0.68232 0.13248 0.00594 0.0
H1195 H 0.68689 0.12189 0.98768 0.0
C1196 C 0.7108 0.17844 0.97167 0.0
C1197 C 0.71345 0.17715 0.95496 0.0
C1198 C 0.69167 0.16331 0.9793 0.0
C1199 C 0.67507 0.14652 0.97037 0.0
C1200 C 0.6778 0.14536 0.95368 0.0
H1201 H 0.57008 0.02374 0.99369 0.0
H1202 H 0.60488 0.05569 0.98806 0.0
C1203 C 0.69674 0.16052 0.94608 0.0
C1204 C 0.65457 0.13022 0.97808 0.0
H1205 H 0.63396 0.08993 0.00561 0.0
C1206 C 0.63478 0.12696 0.97176 0.0
C1207 C 0.65428 0.11677 0.99052 0.0
C1208 C 0.67495 0.11887 0.99739 0.0
C1209 C 0.61477 0.11027 0.97711 0.0
C1210 C 0.61446 0.09676 0.98951 0.0
C1211 C 0.63422 0.10039 0.99619 0.0
C1212 C 0.59396 0.07766 0.99461 0.0
C1213 C 0.59424 0.10665 0.96882 0.0
C1214 C 0.57635 0.07934 1.00051 0.0
C1215 C 0.55638 0.06107 0.0035 0.0
C1216 C 0.55388 0.04081 1.00118 0.0
C1217 C 0.57169 0.03918 0.99579 0.0
C1218 C 0.59157 0.05741 0.99263 0.0
H1219 H 0.59768 0.11516 0.95712 0.0
H1220 H 0.58302 0.08947 0.96653 0.0
H1221 H 0.58582 0.11262 0.97668 0.0
H1222 H 0.57788 0.09477 1.00241 0.0
H1223 H 0.54283 0.06287 0.00722 0.0
H1224 H 0.82867 0.53772 0.97921 0.0
H1225 H 0.85987 0.53555 0.98973 0.0
H1226 H 0.86233 0.50546 0.94546 0.0
H1227 H 0.83158 0.50796 0.93483 0.0
H1228 H 0.86597 0.50134 0.99505 0.0
H1229 H 0.92418 0.55446 0.94917 0.0
H1230 H 0.89789 0.55206 0.95203 0.0
H1231 H 0.90042 0.5324 0.94049 0.0
C1232 C 0.83587 0.53062 0.97176 0.0
C1233 C 0.82778 0.52311 0.95615 0.0
C1234 C 0.85369 0.52939 0.97777 0.0
C1235 C 0.86377 0.52072 0.96827 0.0
C1236 C 0.85525 0.51269 0.95288 0.0
H1237 H 0.95349 0.47901 1.00186 0.0
H1238 H 0.92121 0.48093 0.9946 0.0
C1239 C 0.83756 0.514 0.94686 0.0
C1240 C 0.88311 0.51995 0.97438 0.0
H1241 H 0.93572 0.535 0.96535 0.0
C1242 C 0.88131 0.50884 0.98865 0.0
C1243 C 0.9032 0.52988 0.96611 0.0
C1244 C 0.90667 0.54305 0.95119 0.0
C1245 C 0.89886 0.50712 0.99476 0.0
C1246 C 0.91883 0.51648 0.98622 0.0
C1247 C 0.92059 0.52777 0.972 0.0
C1248 C 0.93824 0.51514 0.99172 0.0
C1249 C 0.89578 0.49563 0.01049 0.0
C1250 C 0.95891 0.53353 0.99213 0.0
C1251 C 0.97749 0.53231 0.99584 0.0
C1252 C 0.97583 0.51279 0.99973 0.0
C1253 C 0.95522 0.49439 0.99951 0.0
C1254 C 0.93666 0.49552 0.9954 0.0
H1255 H 0.88311 0.49609 0.01803 0.0
H1256 H 0.89046 0.47872 0.00799 0.0
H1257 H 0.91108 0.5027 0.01747 0.0
H1258 H 0.96077 0.54888 0.98931 0.0
H1259 H 0.99323 0.54667 0.99567 0.0
H1260 H 0.488 0.29292 0.97486 0.0
H1261 H 0.49868 0.32798 0.9863 0.0
H1262 H 0.44484 0.32751 0.9618 0.0
H1263 H 0.43397 0.29245 0.95049 0.0
H1264 H 0.50979 0.36553 0.96927 0.0
H1265 H 0.43835 0.34231 0.00853 0.0
H1266 H 0.44495 0.32322 1.00025 0.0
H1267 H 0.43128 0.33337 0.98802 0.0
C1268 C 0.47835 0.30024 0.97203 0.0
C1269 C 0.46006 0.28998 0.96187 0.0
C1270 C 0.48449 0.32024 0.97855 0.0
C1271 C 0.47233 0.33014 0.9751 0.0
C1272 C 0.45415 0.31993 0.9649 0.0
H1273 H 0.47843 0.44962 0.98943 0.0
H1274 H 0.46978 0.41356 0.98241 0.0
C1275 C 0.44803 0.29999 0.95838 0.0
C1276 C 0.47907 0.35156 0.98156 0.0
H1277 H 0.46093 0.3794 0.00346 0.0
C1278 C 0.49926 0.36858 0.97692 0.0
C1279 C 0.46526 0.3554 0.99153 0.0
C1280 C 0.44383 0.33759 0.99752 0.0
C1281 C 0.50565 0.38952 0.98144 0.0
C1282 C 0.49157 0.39341 0.99105 0.0
C1283 C 0.47162 0.37633 0.99603 0.0
C1284 C 0.49688 0.41517 0.99558 0.0
C1285 C 0.52701 0.40738 0.97539 0.0
C1286 C 0.51487 0.4279 0.00545 0.0
C1287 C 0.51992 0.44855 0.00945 0.0
C1288 C 0.50693 0.45676 0.00375 0.0
C1289 C 0.48878 0.44383 0.99401 0.0
C1290 C 0.48378 0.4232 0.99001 0.0
H1291 H 0.53366 0.40217 0.96537 0.0
H1292 H 0.52516 0.42086 0.97114 0.0
H1293 H 0.53903 0.41323 0.98541 0.0
H1294 H 0.525 0.42187 0.01005 0.0
H1295 H 0.53414 0.45813 0.01683 0.0
H1296 H 0.15485 0.72233 0.07514 0.0
H1297 H 0.1304 0.68637 0.06517 0.0
H1298 H 0.1844 0.68536 0.04241 0.0
H1299 H 0.2091 0.72141 0.05261 0.0
H1300 H 0.12169 0.67152 0.03356 0.0
H1301 H 0.15639 0.63051 0.06891 0.0
H1302 H 0.1627 0.65732 0.07338 0.0
H1303 H 0.17532 0.65215 0.05656 0.0
C1304 C 0.16152 0.71443 0.06802 0.0
C1305 C 0.18385 0.72462 0.06469 0.0
C1306 C 0.14754 0.6939 0.06232 0.0
C1307 C 0.15559 0.68306 0.05321 0.0
C1308 C 0.1779 0.69328 0.04967 0.0
H1309 H 0.08494 0.55351 0.01438 0.0
H1310 H 0.113 0.58995 0.02076 0.0
C1311 C 0.19196 0.71391 0.05541 0.0
C1312 C 0.14035 0.66117 0.04738 0.0
H1313 H 0.12727 0.60933 0.05131 0.0
C1314 C 0.12296 0.65793 0.03739 0.0
C1315 C 0.14206 0.64346 0.05236 0.0
C1316 C 0.16 0.64589 0.06349 0.0
C1317 C 0.10713 0.63748 0.03235 0.0
C1318 C 0.10852 0.61973 0.03767 0.0
C1319 C 0.12621 0.62298 0.04731 0.0
C1320 C 0.09143 0.59765 0.03372 0.0
C1321 C 0.0891 0.63505 0.02132 0.0
C1322 C 0.07004 0.58977 0.03909 0.0
C1323 C 0.0539 0.56897 0.03539 0.0
C1324 C 0.05886 0.55562 0.02626 0.0
C1325 C 0.08042 0.56346 0.02116 0.0
C1326 C 0.09655 0.58426 0.02488 0.0
H1327 H 0.09353 0.65007 0.0149 0.0
H1328 H 0.08497 0.62231 0.01223 0.0
H1329 H 0.07437 0.63068 0.0286 0.0
H1330 H 0.06583 0.59969 0.04623 0.0
H1331 H 0.03754 0.56344 0.03963 0.0
H1332 H 0.32381 0.48453 0.09454 0.0
H1333 H 0.35744 0.49019 0.08223 0.0
H1334 H 0.33031 0.48636 0.03487 0.0
H1335 H 0.29614 0.48003 0.04725 0.0
H1336 H 0.35139 0.46435 0.03588 0.0
H1337 H 0.40491 0.54345 0.06257 0.0
H1338 H 0.39019 0.52438 0.07797 0.0
H1339 H 0.37569 0.53087 0.06328 0.0
C1340 C 0.32502 0.485 0.08149 0.0
C1341 C 0.30738 0.48198 0.07188 0.0
C1342 C 0.34436 0.48841 0.07445 0.0
C1343 C 0.34673 0.48927 0.0576 0.0
C1344 C 0.32899 0.48599 0.04791 0.0
H1345 H 0.47902 0.5329 0.02224 0.0
H1346 H 0.44366 0.53006 0.0269 0.0
C1347 C 0.30948 0.48239 0.05499 0.0
C1348 C 0.36749 0.49285 0.0503 0.0
H1349 H 0.42262 0.52468 0.05297 0.0
C1350 C 0.36696 0.47771 0.03944 0.0
C1351 C 0.38788 0.5105 0.05461 0.0
C1352 C 0.38971 0.52833 0.0651 0.0
C1353 C 0.38618 0.47917 0.03343 0.0
C1354 C 0.40663 0.49595 0.03875 0.0
C1355 C 0.40709 0.51163 0.049 0.0
C1356 C 0.42767 0.49717 0.03447 0.0
C1357 C 0.3842 0.46266 0.02142 0.0
C1358 C 0.43074 0.47977 0.03718 0.0
C1359 C 0.45081 0.48125 0.03408 0.0
C1360 C 0.46838 0.5002 0.02832 0.0
C1361 C 0.46558 0.51782 0.02602 0.0
C1362 C 0.44538 0.51625 0.02888 0.0
H1363 H 0.36913 0.45661 0.01408 0.0
H1364 H 0.39828 0.46904 0.01314 0.0
H1365 H 0.38326 0.44897 0.02802 0.0
H1366 H 0.41779 0.46514 0.04212 0.0
H1367 H 0.4527 0.46762 0.03643 0.0
H1368 H 0.5845 0.86821 0.07787 0.0
H1369 H 0.57201 0.89095 0.06584 0.0
H1370 H 0.52191 0.83709 0.03987 0.0
H1371 H 0.53421 0.81418 0.05201 0.0
H1372 H 0.56879 0.89824 0.03249 0.0
H1373 H 0.48879 0.86243 0.06352 0.0
H1374 H 0.5104 0.85804 0.07024 0.0
H1375 H 0.4947 0.84448 0.05265 0.0
C1376 C 0.57081 0.86124 0.0696 0.0
C1377 C 0.5603 0.83948 0.0659 0.0
C1378 C 0.56372 0.87421 0.06274 0.0
C1379 C 0.54592 0.86564 0.05211 0.0
C1380 C 0.53548 0.84392 0.04824 0.0
H1381 H 0.48562 0.9341 0.00918 0.0
H1382 H 0.49446 0.90629 0.01507 0.0
C1383 C 0.54259 0.8309 0.05512 0.0
C1384 C 0.5386 0.87968 0.04508 0.0
H1385 H 0.49746 0.89104 0.04606 0.0
C1386 C 0.55313 0.89658 0.03534 0.0
C1387 C 0.51809 0.87735 0.04875 0.0
C1388 C 0.50208 0.85971 0.05945 0.0
C1389 C 0.54792 0.91155 0.02947 0.0
C1390 C 0.5278 0.90973 0.03369 0.0
C1391 C 0.51289 0.89237 0.04289 0.0
C1392 C 0.52266 0.92653 0.0297 0.0
C1393 C 0.56407 0.9293 0.01893 0.0
C1394 C 0.53543 0.947 0.03615 0.0
C1395 C 0.53051 0.9629 0.0328 0.0
C1396 C 0.51265 0.95863 0.02292 0.0
C1397 C 0.49971 0.93802 0.0166 0.0
C1398 C 0.50465 0.92207 0.02001 0.0
H1399 H 0.57543 0.92507 0.01303 0.0
H1400 H 0.5557 0.93337 0.00944 0.0
H1401 H 0.57384 0.94365 0.02649 0.0
H1402 H 0.54913 0.95062 0.04395 0.0
H1403 H 0.54074 0.97852 0.03796 0.0
H1404 H 0.96541 0.14024 0.39518 0.0
H1405 H 0.99941 0.16942 0.38435 0.0
H1406 H 0.98054 0.21446 0.40007 0.0
H1407 H 0.94682 0.18554 0.41099 0.0
H1408 H 0.00806 0.20047 0.36151 0.0
H1409 H 0.03963 0.2375 0.42133 0.0
H1410 H 0.01658 0.21109 0.41908 0.0
H1411 H 0.01327 0.23395 0.41708 0.0
C1412 C 0.96849 0.15636 0.39621 0.0
C1413 C 0.9536 0.16062 0.40416 0.0
C1414 C 0.98793 0.17302 0.39007 0.0
C1415 C 0.99278 0.19418 0.39176 0.0
C1416 C 0.97748 0.19833 0.39906 0.0
H1417 H 0.09407 0.32026 0.36797 0.0
H1418 H 0.05991 0.28777 0.37414 0.0
C1419 C 0.95818 0.18178 0.40527 0.0
C1420 C 0.0138 0.21204 0.38601 0.0
H1421 H 0.05786 0.25861 0.39835 0.0
C1422 C 0.0191 0.21306 0.36958 0.0
C1423 C 0.02826 0.22843 0.39657 0.0
C1424 C 0.02429 0.22762 0.41452 0.0
C1425 C 0.03804 0.23045 0.36335 0.0
C1426 C 0.05201 0.2472 0.37381 0.0
C1427 C 0.04698 0.24589 0.39029 0.0
C1428 C 0.07182 0.26648 0.36803 0.0
C1429 C 0.04244 0.23135 0.34551 0.0
C1430 C 0.08982 0.26531 0.36242 0.0
C1431 C 0.10935 0.28387 0.3589 0.0
C1432 C 0.11115 0.30391 0.36081 0.0
C1433 C 0.093 0.305 0.36615 0.0
C1434 C 0.07352 0.28648 0.36968 0.0
H1435 H 0.02894 0.21805 0.33877 0.0
H1436 H 0.04492 0.24656 0.34062 0.0
H1437 H 0.05751 0.23071 0.34341 0.0
H1438 H 0.08909 0.25011 0.36144 0.0
H1439 H 0.1232 0.28248 0.35534 0.0
H1440 H 0.88082 0.82805 0.39382 0.0
H1441 H 0.85121 0.83208 0.38235 0.0
H1442 H 0.80439 0.77058 0.40083 0.0
H1443 H 0.83374 0.76608 0.41164 0.0
H1444 H 0.79399 0.77608 0.37065 0.0
H1445 H 0.81194 0.84656 0.40807 0.0
H1446 H 0.83406 0.84979 0.39566 0.0
H1447 H 0.82456 0.83074 0.41176 0.0
C1448 C 0.86423 0.81527 0.39524 0.0
C1449 C 0.8597 0.79687 0.40387 0.0
C1450 C 0.84728 0.81772 0.38887 0.0
C1451 C 0.82547 0.80186 0.39106 0.0
C1452 C 0.82102 0.78317 0.39911 0.0
H1453 H 0.6946 0.77771 0.37335 0.0
H1454 H 0.72724 0.7757 0.3794 0.0
C1455 C 0.83787 0.78068 0.4054 0.0
C1456 C 0.80711 0.80451 0.38513 0.0
H1457 H 0.78303 0.83483 0.38948 0.0
C1458 C 0.79166 0.789 0.37471 0.0
C1459 C 0.80397 0.82131 0.39043 0.0
C1460 C 0.81937 0.83796 0.40221 0.0
C1461 C 0.77319 0.78973 0.36951 0.0
C1462 C 0.76982 0.80636 0.37501 0.0
C1463 C 0.78555 0.82212 0.38516 0.0
C1464 C 0.74985 0.80737 0.37092 0.0
C1465 C 0.7576 0.77255 0.35817 0.0
C1466 C 0.75147 0.82612 0.36474 0.0
C1467 C 0.73277 0.82741 0.36161 0.0
C1468 C 0.712 0.80984 0.36425 0.0
C1469 C 0.71039 0.79129 0.37074 0.0
C1470 C 0.72906 0.79007 0.37408 0.0
H1471 H 0.76616 0.76657 0.35043 0.0
H1472 H 0.74537 0.75897 0.36535 0.0
H1473 H 0.74899 0.7782 0.35027 0.0
H1474 H 0.76726 0.83983 0.36241 0.0
H1475 H 0.73465 0.84223 0.35726 0.0
H1476 H 0.25892 0.07309 0.41059 0.0
H1477 H 0.25176 0.03942 0.39868 0.0
H1478 H 0.19006 0.02855 0.38068 0.0
H1479 H 0.19688 0.06214 0.39286 0.0
H1480 H 0.21338 0.99854 0.40656 0.0
H1481 H 0.22088 0.01818 0.34109 0.0
H1482 H 0.23293 0.03839 0.3566 0.0
H1483 H 0.20416 0.025 0.35312 0.0
C1484 C 0.24378 0.06353 0.40414 0.0
C1485 C 0.22837 0.0702 0.40279 0.0
C1486 C 0.2398 0.04439 0.39726 0.0
C1487 C 0.22047 0.03164 0.38875 0.0
C1488 C 0.20521 0.03837 0.38703 0.0
H1489 H 0.17177 0.90713 0.34421 0.0
H1490 H 0.17712 0.94167 0.35265 0.0
C1491 C 0.20914 0.05754 0.39398 0.0
C1492 C 0.21589 0.01073 0.38254 0.0
H1493 H 0.21138 0.98311 0.34797 0.0
C1494 C 0.21291 0.99512 0.39376 0.0
C1495 C 0.21511 0.00637 0.36584 0.0
C1496 C 0.21855 0.02285 0.35339 0.0
C1497 C 0.20925 0.97518 0.38872 0.0
C1498 C 0.20911 0.97098 0.37202 0.0
C1499 C 0.21164 0.98646 0.36077 0.0
C1500 C 0.20664 0.95068 0.36607 0.0
C1501 C 0.20529 0.9587 0.40134 0.0
C1502 C 0.22181 0.94459 0.37047 0.0
C1503 C 0.21881 0.92488 0.36571 0.0
C1504 C 0.20071 0.91099 0.35628 0.0
C1505 C 0.18596 0.91748 0.3514 0.0
C1506 C 0.18894 0.93719 0.35623 0.0
H1507 H 0.19982 0.96216 0.41294 0.0
H1508 H 0.19289 0.94257 0.39719 0.0
H1509 H 0.22065 0.95868 0.40369 0.0
H1510 H 0.23585 0.95501 0.37777 0.0
H1511 H 0.23059 0.92047 0.36956 0.0
H1512 H 0.48528 0.5959 0.313 0.0
H1513 H 0.513 0.62925 0.32533 0.0
H1514 H 0.52243 0.66101 0.27968 0.0
H1515 H 0.49414 0.62813 0.2675 0.0
H1516 H 0.55556 0.65262 0.31798 0.0
H1517 H 0.51701 0.70178 0.30955 0.0
H1518 H 0.50227 0.67332 0.30688 0.0
H1519 H 0.51907 0.69031 0.29091 0.0
C1520 C 0.49289 0.6101 0.30568 0.0
C1521 C 0.48743 0.60929 0.28924 0.0
C1522 C 0.50889 0.62911 0.31271 0.0
C1523 C 0.51965 0.64773 0.30349 0.0
C1524 C 0.51408 0.647 0.28714 0.0
H1525 H 0.6462 0.75852 0.32151 0.0
H1526 H 0.61583 0.72421 0.31301 0.0
C1527 C 0.49806 0.62808 0.28013 0.0
C1528 C 0.53743 0.66768 0.31069 0.0
H1529 H 0.55508 0.72051 0.31556 0.0
C1530 C 0.55537 0.66743 0.3176 0.0
C1531 C 0.53708 0.68697 0.31041 0.0
C1532 C 0.51771 0.68811 0.3042 0.0
C1533 C 0.57321 0.68603 0.3238 0.0
C1534 C 0.57336 0.70553 0.32272 0.0
C1535 C 0.55514 0.70565 0.31622 0.0
C1536 C 0.59211 0.72601 0.32829 0.0
C1537 C 0.59155 0.68449 0.33163 0.0
C1538 C 0.58888 0.73877 0.33941 0.0
C1539 C 0.60612 0.75857 0.34406 0.0
C1540 C 0.6271 0.76606 0.33779 0.0
C1541 C 0.63035 0.75321 0.32672 0.0
C1542 C 0.613 0.73346 0.32194 0.0
H1543 H 0.58608 0.66813 0.33594 0.0
H1544 H 0.60459 0.68858 0.32263 0.0
H1545 H 0.59853 0.69564 0.34201 0.0
H1546 H 0.5729 0.73349 0.34439 0.0
H1547 H 0.60281 0.76813 0.35233 0.0
H1548 H 0.41003 0.91277 0.28611 0.0
H1549 H 0.37661 0.90927 0.29725 0.0
H1550 H 0.35653 0.84531 0.3121 0.0
H1551 H 0.39005 0.84871 0.3009 0.0
H1552 H 0.33539 0.88016 0.28675 0.0
H1553 H 0.34348 0.86984 0.35235 0.0
H1554 H 0.36629 0.87997 0.33872 0.0
H1555 H 0.34706 0.852 0.33935 0.0
C1556 C 0.3986 0.89799 0.29185 0.0
C1557 C 0.4027 0.88097 0.2925 0.0
C1558 C 0.37951 0.89604 0.29828 0.0
C1559 C 0.36405 0.87709 0.30563 0.0
C1560 C 0.36836 0.86025 0.30678 0.0
H1561 H 0.23128 0.83559 0.33781 0.0
H1562 H 0.2661 0.83773 0.33192 0.0
C1563 C 0.38755 0.8622 0.30035 0.0
C1564 C 0.34279 0.87457 0.31083 0.0
H1565 H 0.30972 0.86545 0.34342 0.0
C1566 C 0.32985 0.87701 0.29916 0.0
C1567 C 0.3354 0.87024 0.32699 0.0
C1568 C 0.34881 0.86802 0.34014 0.0
C1569 C 0.30982 0.87526 0.30315 0.0
C1570 C 0.30261 0.87137 0.31935 0.0
C1571 C 0.31531 0.86855 0.33102 0.0
C1572 C 0.28206 0.87053 0.32431 0.0
C1573 C 0.29638 0.87731 0.28989 0.0
C1574 C 0.27955 0.88837 0.32235 0.0
C1575 C 0.25972 0.8872 0.3258 0.0
C1576 C 0.2421 0.86832 0.33162 0.0
C1577 C 0.24469 0.85054 0.33381 0.0
C1578 C 0.26458 0.85171 0.33035 0.0
H1579 H 0.30123 0.87457 0.27777 0.0
H1580 H 0.27882 0.86589 0.29162 0.0
H1581 H 0.29879 0.89361 0.29012 0.0
H1582 H 0.29286 0.90315 0.3179 0.0
H1583 H 0.25808 0.90106 0.32384 0.0
H1584 H 0.1305 0.53139 0.31336 0.0
H1585 H 0.13573 0.50394 0.32628 0.0
H1586 H 0.1507 0.48714 0.28 0.0
H1587 H 0.14619 0.51484 0.26713 0.0
H1588 H 0.11329 0.46024 0.32001 0.0
H1589 H 0.20136 0.4952 0.30844 0.0
H1590 H 0.18757 0.51026 0.30657 0.0
H1591 H 0.18605 0.49283 0.29052 0.0
C1592 C 0.13521 0.52203 0.306 0.0
C1593 C 0.13794 0.52526 0.28923 0.0
C1594 C 0.13806 0.50631 0.31337 0.0
C1595 C 0.14386 0.49373 0.30411 0.0
C1596 C 0.14659 0.49693 0.2874 0.0
H1597 H 0.12912 0.37069 0.32129 0.0
H1598 H 0.12494 0.40086 0.31358 0.0
C1599 C 0.14376 0.5126 0.28004 0.0
C1600 C 0.14641 0.47674 0.31173 0.0
H1601 H 0.18206 0.45859 0.31597 0.0
C1602 C 0.12838 0.45995 0.3193 0.0
C1603 C 0.1662 0.47659 0.31097 0.0
C1604 C 0.18647 0.49479 0.30383 0.0
C1605 C 0.12938 0.44258 0.32561 0.0
C1606 C 0.14882 0.44187 0.32403 0.0
C1607 C 0.16708 0.45905 0.317 0.0
C1608 C 0.15057 0.42336 0.32931 0.0
C1609 C 0.10966 0.42518 0.33393 0.0
C1610 C 0.16667 0.4261 0.34044 0.0
C1611 C 0.16931 0.40898 0.34469 0.0
C1612 C 0.15585 0.38874 0.33794 0.0
C1613 C 0.13966 0.38602 0.32682 0.0
C1614 C 0.13712 0.40321 0.3225 0.0
H1615 H 0.09876 0.43094 0.33834 0.0
H1616 H 0.10032 0.41206 0.32523 0.0
H1617 H 0.11439 0.41871 0.34431 0.0
H1618 H 0.17737 0.44158 0.34571 0.0
H1619 H 0.18221 0.41178 0.35304 0.0
H1620 H 0.38641 0.47424 0.28607 0.0
H1621 H 0.35105 0.44944 0.29774 0.0
H1622 H 0.34646 0.50199 0.31749 0.0
H1623 H 0.38197 0.52698 0.3058 0.0
H1624 H 0.33852 0.44577 0.33163 0.0
H1625 H 0.28877 0.46596 0.29125 0.0
H1626 H 0.31615 0.47257 0.28623 0.0
H1627 H 0.31158 0.48751 0.30144 0.0
C1628 C 0.37787 0.48051 0.29291 0.0
C1629 C 0.38693 0.50251 0.29501 0.0
C1630 C 0.3577 0.46634 0.29958 0.0
C1631 C 0.34606 0.47387 0.30836 0.0
C1632 C 0.35509 0.49586 0.31059 0.0
H1633 H 0.21097 0.39472 0.34055 0.0
H1634 H 0.24732 0.42554 0.33679 0.0
C1635 C 0.3754 0.5101 0.30397 0.0
C1636 C 0.32453 0.45847 0.31514 0.0
H1637 H 0.27005 0.43853 0.3099 0.0
C1638 C 0.32353 0.44429 0.32701 0.0
C1639 C 0.30504 0.45671 0.30919 0.0
C1640 C 0.30524 0.47137 0.29626 0.0
C1641 C 0.30354 0.42807 0.33284 0.0
C1642 C 0.28395 0.4256 0.32632 0.0
C1643 C 0.285 0.44035 0.3149 0.0
C1644 C 0.26233 0.40699 0.3302 0.0
C1645 C 0.30376 0.41373 0.34587 0.0
C1646 C 0.25854 0.38628 0.32774 0.0
C1647 C 0.23792 0.36872 0.33019 0.0
C1648 C 0.22058 0.37143 0.3351 0.0
C1649 C 0.22419 0.39211 0.33736 0.0
C1650 C 0.24493 0.40974 0.33505 0.0
H1651 H 0.31844 0.42223 0.35364 0.0
H1652 H 0.28916 0.40751 0.35361 0.0
H1653 H 0.30418 0.40011 0.34018 0.0
H1654 H 0.27139 0.38367 0.32343 0.0
H1655 H 0.2354 0.35295 0.32795 0.0
H1656 H 0.48689 0.86001 0.3137 0.0
H1657 H 0.51578 0.85491 0.3254 0.0
H1658 H 0.5393 0.8542 0.27754 0.0
H1659 H 0.51012 0.85839 0.26592 0.0
H1660 H 0.53842 0.82366 0.29456 0.0
H1661 H 0.57879 0.89746 0.33142 0.0
H1662 H 0.55078 0.88011 0.33639 0.0
H1663 H 0.55785 0.89246 0.31686 0.0
C1664 C 0.49828 0.8588 0.30573 0.0
C1665 C 0.4963 0.85966 0.28888 0.0
C1666 C 0.5149 0.85605 0.31242 0.0
C1667 C 0.53005 0.8545 0.30239 0.0
C1668 C 0.52792 0.85534 0.28559 0.0
H1669 H 0.65868 0.87627 0.32173 0.0
H1670 H 0.62579 0.87788 0.31562 0.0
C1671 C 0.51123 0.85779 0.27894 0.0
C1672 C 0.54796 0.8516 0.30908 0.0
H1673 H 0.59297 0.8743 0.33348 0.0
C1674 C 0.5503 0.83473 0.30311 0.0
C1675 C 0.56362 0.86608 0.32017 0.0
C1676 C 0.56282 0.88516 0.32649 0.0
C1677 C 0.56802 0.83225 0.30751 0.0
C1678 C 0.58361 0.84663 0.31869 0.0
C1679 C 0.581 0.8632 0.32498 0.0
C1680 C 0.60347 0.84566 0.32313 0.0
C1681 C 0.57034 0.8148 0.29952 0.0
C1682 C 0.60202 0.82709 0.32951 0.0
C1683 C 0.62084 0.82608 0.33277 0.0
C1684 C 0.64151 0.84387 0.33028 0.0
C1685 C 0.64295 0.86245 0.32402 0.0
C1686 C 0.62416 0.86339 0.32058 0.0
H1687 H 0.56057 0.80905 0.28823 0.0
H1688 H 0.58757 0.82027 0.29654 0.0
H1689 H 0.56447 0.80113 0.30786 0.0
H1690 H 0.58633 0.8133 0.33189 0.0
H1691 H 0.61914 0.81134 0.33712 0.0
H1692 H 0.16342 0.65375 0.26474 0.0
H1693 H 0.16878 0.68617 0.278 0.0
H1694 H 0.15816 0.65585 0.32441 0.0
H1695 H 0.15251 0.62325 0.31119 0.0
H1696 H 0.13468 0.67676 0.31991 0.0
H1697 H 0.22141 0.72895 0.3044 0.0
H1698 H 0.20459 0.71578 0.28717 0.0
H1699 H 0.20794 0.70038 0.30268 0.0
C1700 C 0.16239 0.65408 0.27778 0.0
C1701 C 0.15767 0.63609 0.28694 0.0
C1702 C 0.16556 0.67261 0.28533 0.0
C1703 C 0.1642 0.67349 0.30219 0.0
C1704 C 0.15941 0.65549 0.31138 0.0
H1705 H 0.20475 0.79302 0.35246 0.0
H1706 H 0.19972 0.75852 0.34451 0.0
C1707 C 0.15623 0.63692 0.30382 0.0
C1708 C 0.16703 0.69299 0.3101 0.0
H1709 H 0.20239 0.74617 0.31388 0.0
C1710 C 0.14955 0.69191 0.31874 0.0
C1711 C 0.18654 0.71265 0.30874 0.0
C1712 C 0.20628 0.71454 0.30038 0.0
C1713 C 0.1508 0.71018 0.32559 0.0
C1714 C 0.16992 0.73002 0.32349 0.0
C1715 C 0.18766 0.73095 0.31533 0.0
C1716 C 0.17176 0.75013 0.32929 0.0
C1717 C 0.13169 0.70805 0.33504 0.0
C1718 C 0.15767 0.75685 0.32339 0.0
C1719 C 0.16035 0.7765 0.32804 0.0
C1720 C 0.17731 0.78988 0.33858 0.0
C1721 C 0.19131 0.78301 0.34454 0.0
C1722 C 0.18855 0.76333 0.33993 0.0
H1723 H 0.1213 0.6916 0.33952 0.0
H1724 H 0.13714 0.71915 0.3455 0.0
H1725 H 0.12157 0.71188 0.32707 0.0
H1726 H 0.14492 0.74712 0.31487 0.0
H1727 H 0.14936 0.78133 0.32314 0.0
H1728 H 0.87539 0.05365 0.3853 0.0
H1729 H 0.85085 0.01816 0.37401 0.0
H1730 H 0.79615 0.019 0.39564 0.0
H1731 H 0.82042 0.05434 0.40673 0.0
H1732 H 0.82241 0.98055 0.39053 0.0
H1733 H 0.77668 0.0033 0.34873 0.0
H1734 H 0.80232 0.02252 0.35765 0.0
H1735 H 0.77758 0.01252 0.369 0.0
C1736 C 0.85811 0.0463 0.38752 0.0
C1737 C 0.84974 0.05679 0.39679 0.0
C1738 C 0.84413 0.02604 0.38109 0.0
C1739 C 0.82162 0.01609 0.38374 0.0
C1740 C 0.81337 0.02654 0.39311 0.0
H1741 H 0.70462 0.89703 0.36941 0.0
H1742 H 0.7333 0.93307 0.37608 0.0
C1743 C 0.82727 0.04669 0.39952 0.0
C1744 C 0.80662 0.99448 0.37727 0.0
H1745 H 0.76038 0.96629 0.35482 0.0
C1746 C 0.80902 0.97743 0.38253 0.0
C1747 C 0.78917 0.99046 0.36683 0.0
C1748 C 0.78637 0.00819 0.36008 0.0
C1749 C 0.79385 0.95637 0.37823 0.0
C1750 C 0.77601 0.95231 0.36821 0.0
C1751 C 0.77399 0.96942 0.36257 0.0
C1752 C 0.75877 0.9304 0.36396 0.0
C1753 C 0.79653 0.93856 0.38497 0.0
C1754 C 0.76351 0.91699 0.35477 0.0
C1755 C 0.74713 0.89632 0.35095 0.0
C1756 C 0.72564 0.88871 0.35614 0.0
C1757 C 0.72095 0.9023 0.36522 0.0
C1758 C 0.73733 0.92295 0.36902 0.0
H1759 H 0.80836 0.94398 0.39514 0.0
H1760 H 0.78073 0.92536 0.38925 0.0
H1761 H 0.80256 0.93222 0.37532 0.0
H1762 H 0.77987 0.92251 0.35052 0.0
H1763 H 0.7514 0.88627 0.34406 0.0
H1764 H 0.96338 0.8137 0.38051 0.0
H1765 H 0.9974 0.81923 0.36839 0.0
H1766 H 0.02232 0.81884 0.41586 0.0
H1767 H 0.98894 0.81414 0.42791 0.0
H1768 H 0.05222 0.85029 0.399 0.0
H1769 H 0.01759 0.77726 0.36124 0.0
H1770 H 0.00687 0.79442 0.35688 0.0
H1771 H 1.00178 0.78159 0.37619 0.0
C1772 C 0.97613 0.81474 0.3883 0.0
C1773 C 0.9735 0.81345 0.40516 0.0
C1774 C 0.99552 0.81775 0.38137 0.0
C1775 C 0.01243 0.81916 0.39117 0.0
C1776 C 0.00964 0.81782 0.40799 0.0
H1777 H 0.11996 0.7997 0.37165 0.0
H1778 H 0.08501 0.79733 0.37735 0.0
C1779 C 0.99049 0.81509 0.41488 0.0
C1780 C 0.03334 0.82252 0.38426 0.0
H1781 H 0.05542 0.80066 0.35941 0.0
C1782 C 0.05288 0.83947 0.39028 0.0
C1783 C 0.03431 0.80835 0.37295 0.0
C1784 C 0.01405 0.78927 0.36652 0.0
C1785 C 0.07321 0.84229 0.38575 0.0
C1786 C 0.07421 0.82818 0.3744 0.0
C1787 C 0.0547 0.81155 0.36803 0.0
C1788 C 0.09517 0.82947 0.3699 0.0
C1789 C 0.09334 0.85978 0.39381 0.0
C1790 C 0.11256 0.84822 0.36363 0.0
C1791 C 0.13265 0.84966 0.3606 0.0
C1792 C 0.13554 0.83214 0.36322 0.0
C1793 C 0.11807 0.81333 0.36927 0.0
C1794 C 0.09808 0.81195 0.37247 0.0
H1795 H 0.08942 0.86538 0.40514 0.0
H1796 H 0.10508 0.85441 0.39673 0.0
H1797 H 0.10135 0.87352 0.38553 0.0
H1798 H 0.1107 0.86185 0.36123 0.0
H1799 H 0.14592 0.86457 0.3564 0.0
H1800 H 0.25405 0.20181 0.4095 0.0
H1801 H 0.24101 0.22434 0.39791 0.0
H1802 H 0.18956 0.16999 0.3733 0.0
H1803 H 0.20237 0.14729 0.38502 0.0
H1804 H 0.23614 0.23114 0.3649 0.0
H1805 H 0.15757 0.1956 0.3979 0.0
H1806 H 0.17945 0.19122 0.40388 0.0
H1807 H 0.16285 0.17745 0.38669 0.0
C1808 C 0.23994 0.19469 0.40163 0.0
C1809 C 0.22919 0.17285 0.3982 0.0
C1810 C 0.23254 0.20754 0.39501 0.0
C1811 C 0.2142 0.19877 0.38491 0.0
C1812 C 0.20353 0.17698 0.38129 0.0
H1813 H 0.15166 0.2657 0.34308 0.0
H1814 H 0.16098 0.2382 0.34889 0.0
C1815 C 0.21094 0.16407 0.38793 0.0
C1816 C 0.2065 0.21265 0.37815 0.0
H1817 H 0.16515 0.22363 0.38009 0.0
C1818 C 0.22055 0.22942 0.36812 0.0
C1819 C 0.1861 0.21024 0.38231 0.0
C1820 C 0.17062 0.19277 0.39338 0.0
C1821 C 0.21495 0.24417 0.3624 0.0
C1822 C 0.19492 0.24224 0.36705 0.0
C1823 C 0.1805 0.22502 0.37658 0.0
C1824 C 0.18943 0.25882 0.36316 0.0
C1825 C 0.23058 0.26182 0.35153 0.0
C1826 C 0.20217 0.27937 0.36947 0.0
C1827 C 0.19696 0.29508 0.36616 0.0
C1828 C 0.17886 0.29053 0.35649 0.0
C1829 C 0.16593 0.26982 0.35034 0.0
C1830 C 0.17115 0.25406 0.3537 0.0
H1831 H 0.24192 0.2577 0.34546 0.0
H1832 H 0.22175 0.2655 0.34217 0.0
H1833 H 0.24041 0.27636 0.35888 0.0
H1834 H 0.21609 0.28321 0.37709 0.0
H1835 H 0.2072 0.31079 0.37119 0.0
H1836 H 0.60984 0.48637 0.71247 0.0
H1837 H 0.64319 0.51459 0.70034 0.0
H1838 H 0.67053 0.53642 0.74781 0.0
H1839 H 0.63827 0.5075 0.75992 0.0
H1840 H 0.66204 0.55606 0.70155 0.0
H1841 H 0.71951 0.53402 0.72738 0.0
H1842 H 0.6905 0.51676 0.72862 0.0
H1843 H 0.70465 0.53778 0.74323 0.0
C1844 C 0.62313 0.49688 0.72033 0.0
C1845 C 0.62121 0.49452 0.73723 0.0
C1846 C 0.64213 0.51316 0.71336 0.0
C1847 C 0.65962 0.52746 0.72312 0.0
C1848 C 0.6576 0.5253 0.73996 0.0
H1849 H 0.76127 0.65504 0.70029 0.0
H1850 H 0.7269 0.62289 0.70653 0.0
C1851 C 0.63884 0.5089 0.7469 0.0
C1852 C 0.67976 0.54507 0.71588 0.0
H1853 H 0.73507 0.57017 0.71837 0.0
C1854 C 0.67802 0.55898 0.70505 0.0
C1855 C 0.70068 0.5487 0.72008 0.0
C1856 C 0.70393 0.53335 0.73031 0.0
C1857 C 0.69656 0.57685 0.69887 0.0
C1858 C 0.71744 0.58141 0.70414 0.0
C1859 C 0.71914 0.56701 0.71447 0.0
C1860 C 0.73779 0.60104 0.69937 0.0
C1861 C 0.69348 0.59043 0.6866 0.0
C1862 C 0.75571 0.59968 0.69381 0.0
C1863 C 0.77551 0.61804 0.69079 0.0
C1864 C 0.77771 0.63823 0.6927 0.0
C1865 C 0.75983 0.63966 0.69824 0.0
C1866 C 0.74011 0.62126 0.70165 0.0
H1867 H 0.67816 0.58099 0.67965 0.0
H1868 H 0.69234 0.60329 0.69296 0.0
H1869 H 0.70721 0.59772 0.67798 0.0
H1870 H 0.75454 0.58437 0.6921 0.0
H1871 H 0.78915 0.61633 0.68721 0.0
H1872 H 0.54715 0.16008 0.72679 0.0
H1873 H 0.51725 0.16373 0.71554 0.0
H1874 H 0.4711 0.1017 0.73351 0.0
H1875 H 0.50082 0.09764 0.74427 0.0
H1876 H 0.46103 0.10817 0.70282 0.0
H1877 H 0.47704 0.17636 0.74236 0.0
H1878 H 0.49964 0.18036 0.73017 0.0
H1879 H 0.48969 0.16049 0.74567 0.0
C1880 C 0.53066 0.14709 0.72814 0.0
C1881 C 0.52643 0.12866 0.73661 0.0
C1882 C 0.51354 0.14931 0.72188 0.0
C1883 C 0.49183 0.13319 0.72399 0.0
C1884 C 0.48765 0.11446 0.73186 0.0
H1885 H 0.36114 0.10905 0.70426 0.0
H1886 H 0.39353 0.10674 0.71062 0.0
C1887 C 0.5047 0.11222 0.7381 0.0
C1888 C 0.47336 0.13573 0.7182 0.0
H1889 H 0.44869 0.16539 0.72334 0.0
C1890 C 0.45838 0.12074 0.70726 0.0
C1891 C 0.46982 0.15209 0.724 0.0
C1892 C 0.48475 0.16816 0.7363 0.0
C1893 C 0.44005 0.12165 0.70192 0.0
C1894 C 0.43629 0.13784 0.70788 0.0
C1895 C 0.4515 0.15303 0.71866 0.0
C1896 C 0.41646 0.13904 0.7036 0.0
C1897 C 0.42509 0.1052 0.68985 0.0
C1898 C 0.41831 0.15818 0.69816 0.0
C1899 C 0.39973 0.15963 0.69488 0.0
C1900 C 0.37887 0.14183 0.69661 0.0
C1901 C 0.37701 0.12284 0.70235 0.0
C1902 C 0.39556 0.12147 0.70586 0.0
H1903 H 0.43408 0.09974 0.68207 0.0
H1904 H 0.41251 0.09117 0.69644 0.0
H1905 H 0.41687 0.11134 0.68201 0.0
H1906 H 0.43416 0.17211 0.69653 0.0
H1907 H 0.40175 0.17473 0.69114 0.0
H1908 H 0.88067 0.38042 0.76304 0.0
H1909 H 0.8771 0.34855 0.75034 0.0
H1910 H 0.8927 0.37977 0.70411 0.0
H1911 H 0.89733 0.41223 0.71689 0.0
H1912 H 0.84916 0.32392 0.72693 0.0
H1913 H 0.93436 0.35679 0.70644 0.0
H1914 H 0.92642 0.3706 0.72056 0.0
H1915 H 0.92131 0.37095 0.69934 0.0
C1916 C 0.88373 0.38069 0.75021 0.0
C1917 C 0.88956 0.39899 0.74102 0.0
C1918 C 0.88149 0.36238 0.74295 0.0
C1919 C 0.88495 0.36189 0.72633 0.0
C1920 C 0.89039 0.37996 0.71702 0.0
H1921 H 0.84133 0.24163 0.676 0.0
H1922 H 0.8472 0.27627 0.6843 0.0
C1923 C 0.89276 0.3984 0.72431 0.0
C1924 C 0.88228 0.34217 0.71888 0.0
H1925 H 0.90927 0.32145 0.6986 0.0
C1926 C 0.86228 0.32338 0.72069 0.0
C1927 C 0.89952 0.34149 0.71092 0.0
C1928 C 0.92169 0.36097 0.7093 0.0
C1929 C 0.85906 0.30388 0.7149 0.0
C1930 C 0.87616 0.30325 0.70668 0.0
C1931 C 0.89614 0.32204 0.70478 0.0
C1932 C 0.87383 0.28306 0.70053 0.0
C1933 C 0.83761 0.28405 0.71812 0.0
C1934 C 0.88746 0.27575 0.70637 0.0
C1935 C 0.88446 0.25608 0.70137 0.0
C1936 C 0.86775 0.24337 0.69042 0.0
C1937 C 0.85449 0.25103 0.6843 0.0
C1938 C 0.85764 0.27076 0.68919 0.0
H1939 H 0.82861 0.28644 0.72809 0.0
H1940 H 0.82733 0.2797 0.7071 0.0
H1941 H 0.84 0.27052 0.72126 0.0
H1942 H 0.9001 0.28506 0.71509 0.0
H1943 H 0.89501 0.25073 0.7063 0.0
H1944 H 0.13696 0.94816 0.6339 0.0
H1945 H 0.16543 0.98229 0.64487 0.0
H1946 H 0.21448 0.96846 0.62829 0.0
H1947 H 0.1863 0.93436 0.61755 0.0
H1948 H 0.20108 0.99193 0.66767 0.0
H1949 H 0.22988 0.02603 0.60673 0.0
H1950 H 0.20367 0.00275 0.61004 0.0
H1951 H 0.22781 1.00068 0.61007 0.0
C1952 C 0.15379 0.95227 0.63279 0.0
C1953 C 0.15935 0.93865 0.62464 0.0
C1954 C 0.17003 0.9718 0.639 0.0
C1955 C 0.19205 0.97805 0.63711 0.0
C1956 C 0.19759 0.96414 0.62957 0.0
H1957 H 0.31604 0.0915 0.6561 0.0
H1958 H 0.28656 0.05631 0.64813 0.0
C1959 C 0.18145 0.94466 0.62341 0.0
C1960 C 0.20938 0.99929 0.64265 0.0
H1961 H 0.25135 0.04615 0.62897 0.0
C1962 C 0.21201 0.00386 0.65924 0.0
C1963 C 0.22364 0.01477 0.6316 0.0
C1964 C 0.22108 0.01097 0.6136 0.0
C1965 C 0.22891 0.02337 0.66512 0.0
C1966 C 0.24324 0.03884 0.65405 0.0
C1967 C 0.24045 0.03427 0.63745 0.0
C1968 C 0.26115 0.05997 0.65938 0.0
C1969 C 0.23162 0.02696 0.68313 0.0
C1970 C 0.25667 0.07385 0.66818 0.0
C1971 C 0.27347 0.09393 0.67277 0.0
C1972 C 0.29514 0.10066 0.66857 0.0
C1973 C 0.29957 0.08683 0.65959 0.0
C1974 C 0.28273 0.06669 0.65504 0.0
H1975 H 0.22356 0.01174 0.68986 0.0
H1976 H 0.24906 0.03585 0.68661 0.0
H1977 H 0.22407 0.03643 0.68695 0.0
H1978 H 0.24012 0.06929 0.67128 0.0
H1979 H 0.26938 0.1043 0.6794 0.0
H1980 H 0.07576 0.24481 0.61914 0.0
H1981 H 0.04191 0.24052 0.63001 0.0
H1982 H 0.02325 0.17701 0.64523 0.0
H1983 H 0.05738 0.1813 0.63439 0.0
H1984 H 1.00136 0.21124 0.61941 0.0
H1985 H 0.00866 0.20062 0.68508 0.0
H1986 H 0.03167 0.21094 0.67164 0.0
H1987 H 0.01255 0.18293 0.67214 0.0
C1988 C 0.06455 0.22996 0.62492 0.0
C1989 C 0.06921 0.21333 0.62578 0.0
C1990 C 0.04521 0.22756 0.63118 0.0
C1991 C 0.03 0.20849 0.63853 0.0
C1992 C 0.03486 0.19203 0.63989 0.0
H1993 H 0.89656 0.16704 0.66943 0.0
H1994 H 0.93109 0.16861 0.66347 0.0
C1995 C 0.05436 0.19447 0.63366 0.0
C1996 C 0.00851 0.20556 0.64354 0.0
H1997 H 0.97503 0.19625 0.6759 0.0
C1998 C 0.99567 0.208 0.63178 0.0
C1999 C 1.00091 0.20112 0.65965 0.0
C2000 C 0.0142 0.19891 0.67292 0.0
C2001 C 0.97562 0.20629 0.63564 0.0
C2002 C 0.96824 0.20234 0.65179 0.0
C2003 C 0.98077 0.19939 0.66354 0.0
C2004 C 0.94777 0.20171 0.65662 0.0
C2005 C 0.96239 0.20855 0.62233 0.0
C2006 C 0.94575 0.21987 0.65504 0.0
C2007 C 0.92609 0.21904 0.65856 0.0
C2008 C 0.90818 0.20016 0.66406 0.0
C2009 C 0.91023 0.18199 0.66572 0.0
C2010 C 0.92994 0.18284 0.66222 0.0
H2011 H 0.96747 0.20609 0.61021 0.0
H2012 H 0.94481 0.19705 0.62388 0.0
H2013 H 0.96471 0.22481 0.62274 0.0
H2014 H 0.95933 0.23466 0.65087 0.0
H2015 H 0.92485 0.23317 0.65696 0.0
H2016 H 0.81396 0.84983 0.60012 0.0
H2017 H 0.81894 0.82163 0.61156 0.0
H2018 H 0.79519 0.82948 0.65746 0.0
H2019 H 0.78926 0.8571 0.64591 0.0
H2020 H 0.84379 0.82182 0.63697 0.0
H2021 H 0.75624 0.76629 0.64842 0.0
H2022 H 0.76566 0.78973 0.63618 0.0
H2023 H 0.76674 0.79187 0.65783 0.0
C2024 C 0.80962 0.84544 0.61261 0.0
C2025 C 0.80099 0.85556 0.62205 0.0
C2026 C 0.81263 0.82943 0.61916 0.0
C2027 C 0.80707 0.82321 0.63527 0.0
C2028 C 0.79916 0.83375 0.6449 0.0
H2029 H 0.84544 0.74218 0.68606 0.0
H2030 H 0.84054 0.77164 0.67772 0.0
C2031 C 0.79605 0.84972 0.63834 0.0
C2032 C 0.80947 0.80558 0.64184 0.0
H2033 H 0.78094 0.75586 0.65788 0.0
C2034 C 0.83007 0.8074 0.64157 0.0
C2035 C 0.79146 0.78668 0.64762 0.0
C2036 C 0.76873 0.78336 0.64742 0.0
C2037 C 0.83319 0.79084 0.64694 0.0
C2038 C 0.81527 0.77213 0.65306 0.0
C2039 C 0.79467 0.7703 0.65332 0.0
C2040 C 0.81743 0.75399 0.65874 0.0
C2041 C 0.8555 0.79329 0.64558 0.0
C2042 C 0.80547 0.73406 0.65123 0.0
C2043 C 0.80788 0.71702 0.6562 0.0
C2044 C 0.82227 0.71958 0.66883 0.0
C2045 C 0.83398 0.73952 0.67648 0.0
C2046 C 0.83144 0.7565 0.67157 0.0
H2047 H 0.86586 0.80591 0.63687 0.0
H2048 H 0.86366 0.79777 0.65754 0.0
H2049 H 0.85446 0.77818 0.64169 0.0
H2050 H 0.7945 0.73179 0.64134 0.0
H2051 H 0.79859 0.7019 0.65005 0.0
H2052 H 0.04892 0.86049 0.63866 0.0
H2053 H 0.0132 0.83612 0.65042 0.0
H2054 H 0.02042 0.78272 0.63677 0.0
H2055 H 0.05585 0.80685 0.62494 0.0
H2056 H 0.97624 0.8007 0.63302 0.0
H2057 H 1.00409 0.77399 0.68591 0.0
H2058 H 0.02147 0.79851 0.67545 0.0
H2059 H 0.01655 0.77362 0.66714 0.0
C2060 C 0.04293 0.84357 0.63829 0.0
C2061 C 0.05518 0.83552 0.63096 0.0
C2062 C 0.02254 0.82969 0.64499 0.0
C2063 C 0.01432 0.80764 0.64466 0.0
C2064 C 0.02661 0.79968 0.63739 0.0
H2065 H 0.90508 0.68708 0.66251 0.0
H2066 H 0.9404 0.71898 0.65828 0.0
C2067 C 0.0468 0.81347 0.63058 0.0
C2068 C 0.9925 0.79263 0.6512 0.0
H2069 H 0.96682 0.75238 0.67832 0.0
C2070 C 0.97408 0.79036 0.64311 0.0
C2071 C 0.9898 0.7792 0.66435 0.0
C2072 C 0.00901 0.78151 0.67384 0.0
C2073 C 0.95308 0.7741 0.64718 0.0
C2074 C 0.95044 0.76007 0.65994 0.0
C2075 C 0.96883 0.76306 0.66852 0.0
C2076 C 0.9291 0.74101 0.66353 0.0
C2077 C 0.93405 0.77135 0.63719 0.0
C2078 C 0.91102 0.74275 0.66813 0.0
C2079 C 0.89077 0.72447 0.67045 0.0
C2080 C 0.88843 0.70421 0.6686 0.0
C2081 C 0.90657 0.70253 0.66423 0.0
C2082 C 0.92673 0.72074 0.66185 0.0
H2083 H 0.93933 0.78061 0.62581 0.0
H2084 H 0.92307 0.75437 0.63409 0.0
H2085 H 0.92462 0.77696 0.64424 0.0
H2086 H 0.91251 0.7582 0.66975 0.0
H2087 H 0.87692 0.72621 0.67344 0.0
H2088 H 0.20279 0.24036 0.61929 0.0
H2089 H 0.22898 0.23053 0.62914 0.0
H2090 H 0.17681 0.17323 0.64957 0.0
H2091 H 0.15033 0.18303 0.63961 0.0
H2092 H 0.2361 0.22304 0.66159 0.0
H2093 H 0.2117 0.15226 0.62241 0.0
H2094 H 0.20381 0.17179 0.61803 0.0
H2095 H 0.19061 0.15295 0.63391 0.0
C2096 C 0.19686 0.22564 0.62588 0.0
C2097 C 0.17452 0.21249 0.62868 0.0
C2098 C 0.21186 0.22004 0.6315 0.0
C2099 C 0.2049 0.20105 0.63996 0.0
C2100 C 0.18255 0.18782 0.64286 0.0
H2101 H 0.28736 0.14848 0.66997 0.0
H2102 H 0.25606 0.15341 0.6656 0.0
C2103 C 0.16745 0.19349 0.63726 0.0
C2104 C 0.22136 0.1957 0.64594 0.0
H2105 H 0.24122 0.16203 0.64001 0.0
C2106 C 0.23712 0.20959 0.65698 0.0
C2107 C 0.22266 0.17811 0.63999 0.0
C2108 C 0.20642 0.16293 0.62785 0.0
C2109 C 0.25429 0.20662 0.66206 0.0
C2110 C 0.25617 0.18948 0.65565 0.0
C2111 C 0.23995 0.17518 0.64497 0.0
C2112 C 0.27524 0.18665 0.6592 0.0
C2113 C 0.27013 0.22202 0.67429 0.0
C2114 C 0.29656 0.20349 0.65691 0.0
C2115 C 0.31443 0.2008 0.65987 0.0
C2116 C 0.31149 0.18118 0.66506 0.0
C2117 C 0.2902 0.16404 0.66671 0.0
C2118 C 0.27227 0.16681 0.664 0.0
H2119 H 0.26211 0.22818 0.68242 0.0
H2120 H 0.27742 0.21462 0.68177 0.0
H2121 H 0.28333 0.23581 0.66788 0.0
H2122 H 0.29944 0.21869 0.65254 0.0
H2123 H 0.33064 0.21408 0.65796 0.0
H2124 H 0.82303 0.95785 0.64229 0.0
H2125 H 0.83403 0.99307 0.65355 0.0
H2126 H 0.77723 0.9905 0.63244 0.0
H2127 H 0.76605 0.95527 0.62134 0.0
H2128 H 0.84281 0.02964 0.6365 0.0
H2129 H 0.77496 0.00709 0.67928 0.0
H2130 H 0.781 0.9879 0.67045 0.0
H2131 H 0.76597 0.99741 0.65915 0.0
C2132 C 0.81281 0.96473 0.64019 0.0
C2133 C 0.79361 0.95384 0.63102 0.0
C2134 C 0.81911 0.98482 0.64661 0.0
C2135 C 0.80625 0.9942 0.64405 0.0
C2136 C 0.78712 0.98333 0.63487 0.0
H2137 H 0.81142 0.11328 0.65772 0.0
H2138 H 0.80292 0.07715 0.65114 0.0
C2139 C 0.78083 0.9633 0.62847 0.0
C2140 C 0.81322 0.01579 0.65025 0.0
H2141 H 0.79632 0.04402 0.67297 0.0
C2142 C 0.83283 0.0328 0.64464 0.0
C2143 C 0.80012 0.0198 0.66088 0.0
C2144 C 0.77944 0.00206 0.66793 0.0
C2145 C 0.83925 0.05385 0.64885 0.0
C2146 C 0.82582 0.05788 0.6591 0.0
C2147 C 0.8065 0.04084 0.66505 0.0
C2148 C 0.8311 0.07972 0.66332 0.0
C2149 C 0.8599 0.07165 0.64182 0.0
C2150 C 0.84967 0.09303 0.67246 0.0
C2151 C 0.85463 0.11372 0.67621 0.0
C2152 C 0.84098 0.12139 0.67098 0.0
C2153 C 0.82229 0.10791 0.66192 0.0
C2154 C 0.81737 0.08724 0.65819 0.0
H2155 H 0.86596 0.06615 0.6316 0.0
H2156 H 0.85733 0.08469 0.63752 0.0
H2157 H 0.87268 0.07824 0.6513 0.0
H2158 H 0.86032 0.08741 0.6767 0.0
H2159 H 0.86928 0.12374 0.68305 0.0
H2160 H 0.53474 0.39294 0.71487 0.0
H2161 H 0.50643 0.35924 0.70318 0.0
H2162 H 0.4913 0.33139 0.75066 0.0
H2163 H 0.51975 0.36477 0.7623 0.0
H2164 H 0.4942 0.30524 0.7286 0.0
H2165 H 0.44096 0.33488 0.70533 0.0
H2166 H 0.4684 0.34904 0.69807 0.0
H2167 H 0.46311 0.35005 0.71918 0.0
C2168 C 0.52537 0.37961 0.72279 0.0
C2169 C 0.52939 0.38144 0.73951 0.0
C2170 C 0.5091 0.36041 0.71611 0.0
C2171 C 0.49649 0.34286 0.72607 0.0
C2172 C 0.50074 0.3447 0.74273 0.0
H2173 H 0.37347 0.22839 0.70741 0.0
H2174 H 0.40292 0.26316 0.71618 0.0
C2175 C 0.51699 0.36378 0.74937 0.0
C2176 C 0.4791 0.32236 0.7193 0.0
H2177 H 0.43062 0.29926 0.69901 0.0
C2178 C 0.48032 0.30395 0.72209 0.0
C2179 C 0.46084 0.32063 0.711 0.0
C2180 C 0.45805 0.33964 0.70832 0.0
C2181 C 0.46383 0.28389 0.71686 0.0
C2182 C 0.44579 0.2822 0.70827 0.0
C2183 C 0.44454 0.3006 0.70548 0.0
C2184 C 0.42784 0.2614 0.70244 0.0
C2185 C 0.46561 0.26461 0.72101 0.0
C2186 C 0.43197 0.24898 0.69162 0.0
C2187 C 0.41524 0.22902 0.6867 0.0
C2188 C 0.39388 0.22117 0.69229 0.0
C2189 C 0.38969 0.23387 0.70287 0.0
C2190 C 0.4065 0.25381 0.70786 0.0
H2191 H 0.47711 0.26787 0.73117 0.0
H2192 H 0.44954 0.25098 0.72433 0.0
H2193 H 0.47172 0.25993 0.71036 0.0
H2194 H 0.44821 0.25464 0.68704 0.0
H2195 H 0.41918 0.21966 0.6787 0.0
H2196 H 0.66276 0.17144 0.75747 0.0
H2197 H 0.69635 0.17548 0.74619 0.0
H2198 H 0.66038 0.13575 0.70575 0.0
H2199 H 0.62673 0.13235 0.71678 0.0
H2200 H 0.70695 0.1464 0.74178 0.0
H2201 H 0.71068 0.18274 0.68231 0.0
H2202 H 0.692 0.18067 0.69788 0.0
H2203 H 0.6859 0.15812 0.6853 0.0
C2204 C 0.66207 0.16383 0.74604 0.0
C2205 C 0.64215 0.15169 0.73798 0.0
C2206 C 0.68129 0.1661 0.7396 0.0
C2207 C 0.6811 0.15615 0.72498 0.0
C2208 C 0.66116 0.14407 0.71681 0.0
H2209 H 0.78602 0.13081 0.70224 0.0
H2210 H 0.75096 0.12793 0.70844 0.0
C2211 C 0.64188 0.142 0.72319 0.0
C2212 C 0.70159 0.1574 0.71906 0.0
H2213 H 0.73599 0.17084 0.68677 0.0
C2214 C 0.71327 0.15182 0.72975 0.0
C2215 C 0.71011 0.16468 0.70342 0.0
C2216 C 0.69916 0.1721 0.69161 0.0
C2217 C 0.73303 0.15325 0.72533 0.0
C2218 C 0.74118 0.15981 0.70953 0.0
C2219 C 0.72965 0.16556 0.69881 0.0
C2220 C 0.76183 0.16111 0.70412 0.0
C2221 C 0.74527 0.14825 0.73786 0.0
C2222 C 0.77941 0.18049 0.69892 0.0
C2223 C 0.7994 0.18206 0.69512 0.0
C2224 C 0.80204 0.16419 0.69625 0.0
C2225 C 0.78434 0.14477 0.70116 0.0
C2226 C 0.76436 0.14316 0.7048 0.0
H2227 H 0.74029 0.1496 0.75031 0.0
H2228 H 0.74172 0.13168 0.73611 0.0
H2229 H 0.76307 0.15903 0.73679 0.0
H2230 H 0.7779 0.19457 0.69828 0.0
H2231 H 0.81288 0.19735 0.69176 0.0
H2232 H 0.83928 0.48259 0.76026 0.0
H2233 H 0.83306 0.50973 0.74806 0.0
H2234 H 0.88203 0.52195 0.71232 0.0
H2235 H 0.88741 0.49407 0.72398 0.0
H2236 H 0.85872 0.55003 0.74568 0.0
H2237 H 0.83549 0.51822 0.68361 0.0
H2238 H 0.83762 0.50285 0.69982 0.0
H2239 H 0.86153 0.52183 0.6891 0.0
C2240 C 0.84845 0.4909 0.74965 0.0
C2241 C 0.86362 0.48613 0.74294 0.0
C2242 C 0.84494 0.50641 0.74271 0.0
C2243 C 0.85678 0.51766 0.72907 0.0
C2244 C 0.87216 0.51304 0.72248 0.0
H2245 H 0.87499 0.64148 0.70412 0.0
H2246 H 0.87909 0.61194 0.71364 0.0
C2247 C 0.87535 0.49721 0.72923 0.0
C2248 C 0.85388 0.53502 0.72237 0.0
H2249 H 0.84505 0.55451 0.68749 0.0
C2250 C 0.85555 0.55089 0.73297 0.0
C2251 C 0.84941 0.53602 0.70583 0.0
C2252 C 0.84567 0.51868 0.69398 0.0
C2253 C 0.85315 0.56783 0.72749 0.0
C2254 C 0.84992 0.56947 0.71081 0.0
C2255 C 0.8479 0.55344 0.70023 0.0
C2256 C 0.84814 0.58747 0.70415 0.0
C2257 C 0.85358 0.58345 0.73976 0.0
C2258 C 0.82993 0.58359 0.6949 0.0
C2259 C 0.82781 0.60047 0.68909 0.0
C2260 C 0.84379 0.62156 0.69255 0.0
C2261 C 0.86227 0.62543 0.70145 0.0
C2262 C 0.86455 0.60853 0.707 0.0
H2263 H 0.84919 0.57633 0.75199 0.0
H2264 H 0.87025 0.59736 0.7405 0.0
H2265 H 0.84222 0.58911 0.73637 0.0
H2266 H 0.81712 0.56747 0.69244 0.0
H2267 H 0.81335 0.59696 0.68229 0.0
H2268 H 0.44965 0.93057 0.25013 0.0
H2269 H 0.45921 0.94642 0.22324 0.0
H2270 H 0.46085 0.89137 0.20551 0.0
H2271 H 0.45216 0.8759 0.23259 0.0
H2272 H 0.49399 0.92504 0.19442 0.0
H2273 H 0.42247 0.93436 0.18415 0.0
H2274 H 0.4365 0.9479 0.20224 0.0
H2275 H 0.42408 0.91941 0.2009 0.0
C2276 C 0.45189 0.92181 0.24045 0.0
C2277 C 0.45009 0.90198 0.24343 0.0
C2278 C 0.4572 0.9308 0.22503 0.0
C2279 C 0.46026 0.91991 0.21216 0.0
C2280 C 0.45847 0.90008 0.21517 0.0
H2281 H 0.47176 0.96872 0.11352 0.0
H2282 H 0.45889 0.94602 0.13739 0.0
C2283 C 0.45353 0.89125 0.23065 0.0
C2284 C 0.46634 0.92963 0.1958 0.0
H2285 H 0.45311 0.95473 0.16689 0.0
C2286 C 0.48487 0.9313 0.18834 0.0
C2287 C 0.45424 0.93741 0.18757 0.0
C2288 C 0.43309 0.93446 0.19406 0.0
C2289 C 0.49207 0.94118 0.17328 0.0
C2290 C 0.48093 0.9504 0.16566 0.0
C2291 C 0.46191 0.948 0.17279 0.0
C2292 C 0.48914 0.96329 0.15066 0.0
C2293 C 0.51142 0.94135 0.16565 0.0
C2294 C 0.51043 0.98056 0.15006 0.0
C2295 C 0.51799 0.99326 0.13631 0.0
C2296 C 0.50428 0.98941 0.12288 0.0
C2297 C 0.48292 0.97205 0.12348 0.0
C2298 C 0.47545 0.95915 0.13721 0.0
H2299 H 0.51285 0.92753 0.16966 0.0
H2300 H 0.51039 0.94105 0.15227 0.0
H2301 H 0.52647 0.95595 0.16947 0.0
H2302 H 0.52119 0.98452 0.16037 0.0
H2303 H 0.53463 0.00622 0.13629 0.0
H2304 H 0.1313 0.57581 0.23103 0.0
H2305 H 0.11117 0.56714 0.20545 0.0
H2306 H 0.06162 0.50791 0.22543 0.0
H2307 H 0.0815 0.51655 0.25111 0.0
H2308 H 0.09709 0.52797 0.18575 0.0
H2309 H 0.02939 0.53905 0.20755 0.0
H2310 H 0.05535 0.55062 0.21776 0.0
H2311 H 0.0362 0.52281 0.21979 0.0
C2312 C 0.11603 0.56102 0.23 0.0
C2313 C 0.10791 0.54688 0.24306 0.0
C2314 C 0.10465 0.55605 0.21538 0.0
C2315 C 0.08489 0.53699 0.21367 0.0
C2316 C 0.07677 0.52278 0.22662 0.0
H2317 H 0.98875 0.48374 0.13705 0.0
H2318 H 0.00938 0.49045 0.1622 0.0
C2319 C 0.0882 0.52767 0.24121 0.0
C2320 C 0.07281 0.53188 0.19826 0.0
H2321 H 0.02647 0.52593 0.18103 0.0
C2322 C 0.08166 0.52754 0.18465 0.0
C2323 C 0.05269 0.53127 0.197 0.0
C2324 C 0.04282 0.53632 0.21124 0.0
C2325 C 0.07071 0.52229 0.16975 0.0
C2326 C 0.05067 0.52191 0.16842 0.0
C2327 C 0.04183 0.52622 0.18209 0.0
C2328 C 0.03865 0.51733 0.15295 0.0
C2329 C 0.08048 0.51677 0.1557 0.0
C2330 C 0.04825 0.53029 0.13945 0.0
C2331 C 0.03654 0.52644 0.12507 0.0
C2332 C 0.01491 0.50975 0.12402 0.0
C2333 C 1.00533 0.49681 0.13756 0.0
C2334 C 0.01711 0.50058 0.1519 0.0
H2335 H 0.09212 0.51176 0.15982 0.0
H2336 H 0.0677 0.50384 0.14822 0.0
H2337 H 0.08949 0.53098 0.14797 0.0
H2338 H 0.06466 0.54364 0.14013 0.0
H2339 H 0.0442 0.53687 0.11491 0.0
H2340 H 0.46013 0.52828 0.2474 0.0
H2341 H 0.47098 0.52185 0.22084 0.0
H2342 H 0.48492 0.58397 0.20532 0.0
H2343 H 0.47452 0.59062 0.23191 0.0
H2344 H 0.45638 0.52097 0.19026 0.0
H2345 H 0.54175 0.58632 0.19611 0.0
H2346 H 0.5232 0.57727 0.21291 0.0
H2347 H 0.52236 0.59508 0.19826 0.0
C2348 C 0.46537 0.54049 0.23827 0.0
C2349 C 0.46672 0.56005 0.24177 0.0
C2350 C 0.47161 0.53683 0.22312 0.0
C2351 C 0.47924 0.55262 0.21121 0.0
C2352 C 0.47971 0.5718 0.21447 0.0
H2353 H 0.52619 0.55961 0.11301 0.0
H2354 H 0.51054 0.56466 0.13787 0.0
C2355 C 0.47369 0.57555 0.22964 0.0
C2356 C 0.48696 0.54913 0.19545 0.0
H2357 H 0.53102 0.56943 0.17049 0.0
C2358 C 0.47271 0.53153 0.18596 0.0
C2359 C 0.50833 0.56288 0.18987 0.0
C2360 C 0.52487 0.58132 0.19988 0.0
C2361 C 0.47919 0.52747 0.17097 0.0
C2362 C 0.50045 0.54133 0.16538 0.0
C2363 C 0.51466 0.55895 0.17479 0.0
C2364 C 0.50857 0.53747 0.15002 0.0
C2365 C 0.46326 0.50853 0.16112 0.0
C2366 C 0.51263 0.52054 0.14869 0.0
C2367 C 0.52167 0.5177 0.13459 0.0
C2368 C 0.52672 0.53171 0.12153 0.0
C2369 C 0.52227 0.54845 0.12281 0.0
C2370 C 0.51342 0.5514 0.13699 0.0
H2371 H 0.44638 0.50169 0.16566 0.0
H2372 H 0.46367 0.513 0.14826 0.0
H2373 H 0.46788 0.49606 0.16166 0.0
H2374 H 0.50919 0.50977 0.1587 0.0
H2375 H 0.52476 0.50457 0.13391 0.0
H2376 H 0.89879 0.41559 0.7975 0.0
H2377 H 0.9181 0.42499 0.82334 0.0
H2378 H 0.95082 0.49118 0.81032 0.0
H2379 H 0.93188 0.4819 0.78422 0.0
H2380 H 0.96534 0.44802 0.82607 0.0
H2381 H 0.92616 0.48822 0.857 0.0
H2382 H 0.91351 0.47009 0.84026 0.0
H2383 H 0.9355 0.49648 0.8367 0.0
C2384 C 0.91011 0.43216 0.80011 0.0
C2385 C 0.91392 0.44799 0.78876 0.0
C2386 C 0.92101 0.43749 0.81491 0.0
C2387 C 0.93575 0.45876 0.81872 0.0
C2388 C 0.93925 0.4747 0.80764 0.0
H2389 H 0.03527 0.50327 0.89375 0.0
H2390 H 0.0155 0.49845 0.86841 0.0
C2391 C 0.9284 0.46937 0.79277 0.0
C2392 C 0.94836 0.464 0.83392 0.0
H2393 H 0.95524 0.48793 0.87071 0.0
C2394 C 0.96322 0.4568 0.83582 0.0
C2395 C 0.94538 0.47535 0.84658 0.0
C2396 C 0.92918 0.48291 0.84519 0.0
C2397 C 0.97523 0.46066 0.85012 0.0
C2398 C 0.97235 0.47211 0.86276 0.0
C2399 C 0.95747 0.47929 0.86089 0.0
C2400 C 0.98413 0.476 0.87824 0.0
C2401 C 0.99059 0.45211 0.85178 0.0
C2402 C 0.97291 0.4652 0.89215 0.0
C2403 C 0.98415 0.46772 0.90659 0.0
C2404 C 0.00682 0.48124 0.9074 0.0
C2405 C 0.01789 0.49246 0.89348 0.0
C2406 C 0.00663 0.48984 0.87902 0.0
H2407 H 0.98826 0.44064 0.842 0.0
H2408 H 0.00758 0.46547 0.85126 0.0
H2409 H 0.98833 0.44414 0.86361 0.0
H2410 H 0.95552 0.45439 0.89172 0.0
H2411 H 0.97514 0.45863 0.917 0.0
H2412 H 0.60177 0.48743 0.79325 0.0
H2413 H 0.59079 0.49361 0.81979 0.0
H2414 H 0.5236 0.45889 0.80494 0.0
H2415 H 0.53442 0.45287 0.77831 0.0
H2416 H 0.56664 0.5139 0.82741 0.0
H2417 H 0.52456 0.42992 0.84743 0.0
H2418 H 0.54307 0.43925 0.83057 0.0
H2419 H 0.5157 0.43404 0.82813 0.0
C2420 C 0.58466 0.48126 0.79557 0.0
C2421 C 0.56896 0.46958 0.78366 0.0
C2422 C 0.57842 0.48471 0.81077 0.0
C2423 C 0.55638 0.47641 0.8144 0.0
C2424 C 0.54068 0.46502 0.80249 0.0
H2425 H 0.47984 0.4785 0.89379 0.0
H2426 H 0.49419 0.47267 0.86873 0.0
C2427 C 0.54689 0.4616 0.78728 0.0
C2428 C 0.54978 0.48 0.83054 0.0
H2429 H 0.51962 0.45421 0.86362 0.0
C2430 C 0.55651 0.5009 0.83541 0.0
C2431 C 0.53661 0.46298 0.84092 0.0
C2432 C 0.5297 0.44028 0.83661 0.0
C2433 C 0.54978 0.50519 0.85019 0.0
C2434 C 0.53631 0.48813 0.86048 0.0
C2435 C 0.52992 0.46726 0.85571 0.0
C2436 C 0.52791 0.4915 0.87592 0.0
C2437 C 0.5565 0.52788 0.85439 0.0
C2438 C 0.54209 0.50374 0.88842 0.0
C2439 C 0.53393 0.50728 0.90274 0.0
C2440 C 0.51141 0.49854 0.90485 0.0
C2441 C 0.49727 0.48581 0.89245 0.0
C2442 C 0.50544 0.48232 0.87816 0.0
H2443 H 0.56239 0.53836 0.84364 0.0
H2444 H 0.54277 0.52892 0.85978 0.0
H2445 H 0.56991 0.53401 0.86337 0.0
H2446 H 0.55948 0.51063 0.88708 0.0
H2447 H 0.54528 0.51722 0.91201 0.0
H2448 H 0.58347 0.13198 0.7956 0.0
H2449 H 0.57566 0.11635 0.82275 0.0
H2450 H 0.51472 0.06465 0.80554 0.0
H2451 H 0.52235 0.08012 0.77848 0.0
H2452 H 0.53458 0.10507 0.8417 0.0
H2453 H 0.54808 0.03734 0.82946 0.0
H2454 H 0.56018 0.06118 0.81739 0.0
H2455 H 0.53202 0.04171 0.81479 0.0
C2456 C 0.56851 0.11718 0.79759 0.0
C2457 C 0.5535 0.10729 0.78491 0.0
C2458 C 0.56404 0.10834 0.81309 0.0
C2459 C 0.54468 0.08929 0.8161 0.0
C2460 C 0.52982 0.07928 0.80344 0.0
H2461 H 0.46707 0.02269 0.89728 0.0
H2462 H 0.48355 0.04349 0.87291 0.0
C2463 C 0.53415 0.0882 0.78801 0.0
C2464 C 0.53951 0.08008 0.83255 0.0
H2465 H 0.53076 0.03658 0.85418 0.0
C2466 C 0.53398 0.09023 0.84451 0.0
C2467 C 0.53887 0.06079 0.83618 0.0
C2468 C 0.54525 0.04961 0.82385 0.0
C2469 C 0.52698 0.08113 0.85985 0.0
C2470 C 0.52548 0.0614 0.86326 0.0
C2471 C 0.53186 0.05168 0.85151 0.0
C2472 C 0.51601 0.04993 0.87856 0.0
C2473 C 0.52093 0.09249 0.87225 0.0
C2474 C 0.52881 0.04664 0.88982 0.0
C2475 C 0.51944 0.03482 0.90384 0.0
C2476 C 0.49703 0.02577 0.90665 0.0
C2477 C 0.48434 0.02931 0.89539 0.0
C2478 C 0.49375 0.0413 0.88152 0.0
H2479 H 0.52746 0.10946 0.86913 0.0
H2480 H 0.50296 0.08473 0.8729 0.0
H2481 H 0.52704 0.09154 0.88439 0.0
H2482 H 0.54601 0.05307 0.88769 0.0
H2483 H 0.52958 0.03221 0.91223 0.0
H2484 H 0.11063 0.26135 0.58297 0.0
H2485 H 0.11985 0.27755 0.55617 0.0
H2486 H 0.135 0.22993 0.54031 0.0
H2487 H 0.12558 0.21346 0.56709 0.0
H2488 H 0.16216 0.29279 0.54043 0.0
H2489 H 0.09265 0.23065 0.50494 0.0
H2490 H 0.09156 0.2331 0.52659 0.0
H2491 H 0.10686 0.22196 0.51807 0.0
C2492 C 0.11565 0.25415 0.57372 0.0
C2493 C 0.11731 0.23607 0.57714 0.0
C2494 C 0.121 0.26348 0.55845 0.0
C2495 C 0.12788 0.2548 0.54622 0.0
C2496 C 0.12945 0.2367 0.54953 0.0
H2497 H 0.16866 0.29615 0.44678 0.0
H2498 H 0.15654 0.27545 0.47181 0.0
C2499 C 0.12425 0.22743 0.56486 0.0
C2500 C 0.13436 0.26538 0.53028 0.0
H2501 H 0.11953 0.25996 0.4905 0.0
C2502 C 0.15285 0.28563 0.52951 0.0
C2503 C 0.12231 0.25588 0.51605 0.0
C2504 C 0.10214 0.23425 0.51634 0.0
C2505 C 0.15966 0.29669 0.51487 0.0
C2506 C 0.14725 0.2875 0.50067 0.0
C2507 C 0.12895 0.26704 0.50139 0.0
C2508 C 0.15289 0.29915 0.48509 0.0
C2509 C 0.18031 0.31798 0.51473 0.0
C2510 C 0.15408 0.31897 0.48405 0.0
C2511 C 0.16108 0.33081 0.46986 0.0
C2512 C 0.16673 0.32296 0.45629 0.0
C2513 C 0.16438 0.30259 0.45703 0.0
C2514 C 0.15754 0.2908 0.47133 0.0
H2515 H 0.19109 0.3197 0.52506 0.0
H2516 H 0.18945 0.32034 0.50335 0.0
H2517 H 0.17617 0.33076 0.51577 0.0
H2518 H 0.14994 0.32547 0.49434 0.0
H2519 H 0.16232 0.34628 0.46955 0.0
H2520 H 0.79201 0.86642 0.5655 0.0
H2521 H 0.77531 0.85986 0.53863 0.0
H2522 H 0.73449 0.88448 0.55462 0.0
H2523 H 0.7505 0.89048 0.5816 0.0
H2524 H 0.72736 0.83408 0.53159 0.0
H2525 H 0.76643 0.91842 0.51236 0.0
H2526 H 0.77755 0.9095 0.52814 0.0
H2527 H 0.75457 0.91272 0.53218 0.0
C2528 C 0.77935 0.87027 0.56335 0.0
C2529 C 0.77266 0.87906 0.5757 0.0
C2530 C 0.76995 0.86664 0.54798 0.0
C2531 C 0.75391 0.87194 0.54467 0.0
C2532 C 0.74712 0.88062 0.55692 0.0
H2533 H 0.67339 0.86825 0.46634 0.0
H2534 H 0.69398 0.87394 0.49127 0.0
C2535 C 0.75637 0.88411 0.5723 0.0
C2536 C 0.74374 0.86796 0.52852 0.0
H2537 H 0.73775 0.8931 0.4959 0.0
C2538 C 0.72974 0.84691 0.52366 0.0
C2539 C 0.74694 0.88481 0.51834 0.0
C2540 C 0.76231 0.90767 0.52289 0.0
C2541 C 0.71812 0.84226 0.50907 0.0
C2542 C 0.72106 0.85915 0.49896 0.0
C2543 C 0.7355 0.88019 0.50369 0.0
C2544 C 0.70862 0.85543 0.48375 0.0
C2545 C 0.70217 0.81937 0.50497 0.0
C2546 C 0.71018 0.84329 0.47118 0.0
C2547 C 0.69814 0.83971 0.45698 0.0
C2548 C 0.68452 0.84844 0.45502 0.0
C2549 C 0.68336 0.86093 0.46755 0.0
C2550 C 0.69528 0.86437 0.48176 0.0
H2551 H 0.69784 0.80899 0.51574 0.0
H2552 H 0.68703 0.81772 0.49967 0.0
H2553 H 0.70956 0.81359 0.49595 0.0
H2554 H 0.72073 0.8366 0.47233 0.0
H2555 H 0.69931 0.82989 0.44763 0.0
H2556 H 0.16824 0.8958 0.58372 0.0
H2557 H 0.17712 0.889 0.55661 0.0
H2558 H 0.11361 0.87403 0.5397 0.0
H2559 H 0.10457 0.88085 0.56688 0.0
H2560 H 0.15031 0.84858 0.53593 0.0
H2561 H 0.16238 0.92462 0.51048 0.0
H2562 H 0.16474 0.92131 0.53187 0.0
H2563 H 0.13851 0.90852 0.5224 0.0
C2564 C 0.15615 0.89104 0.57424 0.0
C2565 C 0.13575 0.88897 0.57739 0.0
C2566 C 0.16121 0.88707 0.5588 0.0
C2567 C 0.14607 0.88115 0.54619 0.0
C2568 C 0.12552 0.87866 0.5493 0.0
H2569 H 0.16543 0.84443 0.44891 0.0
H2570 H 0.14816 0.84662 0.47394 0.0
C2571 C 0.12036 0.88246 0.56482 0.0
C2572 C 0.15218 0.87815 0.52973 0.0
H2573 H 0.16976 0.90307 0.49343 0.0
C2574 C 0.15429 0.86031 0.52654 0.0
C2575 C 0.15752 0.89363 0.51762 0.0
C2576 C 0.15581 0.9132 0.52065 0.0
C2577 C 0.16196 0.85771 0.51157 0.0
C2578 C 0.16767 0.87338 0.49956 0.0
C2579 C 0.16524 0.89105 0.50267 0.0
C2580 C 0.17766 0.8724 0.48415 0.0
C2581 C 0.16467 0.83865 0.50885 0.0
C2582 C 0.19985 0.88638 0.48156 0.0
C2583 C 0.20974 0.88514 0.46736 0.0
C2584 C 0.19757 0.87 0.4554 0.0
C2585 C 0.1752 0.85631 0.45787 0.0
C2586 C 0.16534 0.85746 0.47217 0.0
H2587 H 0.16179 0.82918 0.52001 0.0
H2588 H 0.15298 0.82826 0.49945 0.0
H2589 H 0.18129 0.84376 0.50439 0.0
H2590 H 0.20959 0.89807 0.49066 0.0
H2591 H 0.22692 0.89608 0.46572 0.0
H2592 H 0.60748 0.81877 0.11452 0.0
H2593 H 0.62451 0.82606 0.14126 0.0
H2594 H 0.584 0.7602 0.154 0.0
H2595 H 0.56635 0.75291 0.12752 0.0
H2596 H 0.58851 0.78854 0.17884 0.0
H2597 H 0.66828 0.80709 0.15316 0.0
H2598 H 0.65718 0.82265 0.14528 0.0
H2599 H 0.64347 0.79454 0.14147 0.0
C2600 C 0.60194 0.80591 0.12311 0.0
C2601 C 0.58572 0.78521 0.11884 0.0
C2602 C 0.61184 0.81007 0.13831 0.0
C2603 C 0.60578 0.79358 0.14946 0.0
C2604 C 0.58901 0.7731 0.1455 0.0
H2605 H 0.67642 0.7828 0.22955 0.0
H2606 H 0.6572 0.77984 0.20432 0.0
C2607 C 0.57907 0.76893 0.13033 0.0
C2608 C 0.61742 0.7974 0.16504 0.0
H2609 H 0.66687 0.81106 0.18134 0.0
C2610 C 0.60567 0.79356 0.17943 0.0
C2611 C 0.63972 0.80368 0.1657 0.0
C2612 C 0.65292 0.80707 0.1506 0.0
C2613 C 0.61565 0.79577 0.19452 0.0
C2614 C 0.63801 0.80228 0.19517 0.0
C2615 C 0.64976 0.80622 0.18077 0.0
C2616 C 0.64937 0.80414 0.2106 0.0
C2617 C 0.60205 0.7905 0.20959 0.0
C2618 C 0.65148 0.81892 0.22243 0.0
C2619 C 0.66252 0.82069 0.23686 0.0
C2620 C 0.67178 0.80782 0.23963 0.0
C2621 C 0.66972 0.79313 0.22769 0.0
C2622 C 0.65865 0.79134 0.21331 0.0
H2623 H 0.58439 0.7812 0.20684 0.0
H2624 H 0.60618 0.78132 0.21816 0.0
H2625 H 0.60539 0.80546 0.21568 0.0
H2626 H 0.64481 0.82924 0.22042 0.0
H2627 H 0.66411 0.83236 0.24574 0.0
H2628 H 0.20326 0.78771 0.11313 0.0
H2629 H 0.19345 0.79319 0.14025 0.0
H2630 H 0.26057 0.8228 0.15502 0.0
H2631 H 0.27056 0.81698 0.12797 0.0
H2632 H 0.20211 0.77851 0.1708 0.0
H2633 H 0.24066 0.86648 0.16693 0.0
H2634 H 0.23434 0.84981 0.14923 0.0
H2635 H 0.25722 0.85509 0.16166 0.0
C2636 C 0.21595 0.79519 0.12217 0.0
C2637 C 0.23772 0.8019 0.11834 0.0
C2638 C 0.21031 0.7984 0.13764 0.0
C2639 C 0.22631 0.80856 0.14956 0.0
C2640 C 0.24803 0.8152 0.14589 0.0
H2641 H 0.21227 0.84733 0.24702 0.0
H2642 H 0.22731 0.84066 0.22257 0.0
C2643 C 0.2537 0.81191 0.13041 0.0
C2644 C 0.22007 0.81202 0.16586 0.0
H2645 H 0.22325 0.85052 0.1913 0.0
C2646 C 0.20679 0.79425 0.17534 0.0
C2647 C 0.22638 0.83258 0.17176 0.0
C2648 C 0.24033 0.85215 0.16188 0.0
C2649 C 0.19945 0.79646 0.19055 0.0
C2650 C 0.20512 0.81699 0.19623 0.0
C2651 C 0.21889 0.8348 0.18692 0.0
C2652 C 0.19605 0.82025 0.21139 0.0
C2653 C 0.18581 0.7768 0.20042 0.0
C2654 C 0.1735 0.8111 0.21318 0.0
C2655 C 0.16486 0.81472 0.22717 0.0
C2656 C 0.17859 0.82779 0.23961 0.0
C2657 C 0.20121 0.83696 0.23778 0.0
C2658 C 0.20985 0.83328 0.22377 0.0
H2659 H 0.18876 0.76369 0.19695 0.0
H2660 H 0.18919 0.78006 0.21353 0.0
H2661 H 0.16837 0.77128 0.19825 0.0
H2662 H 0.16254 0.80136 0.20365 0.0
H2663 H 0.14737 0.80723 0.22823 0.0
H2664 H 0.2053 0.46038 0.12769 0.0
H2665 H 0.19703 0.44435 0.15455 0.0
H2666 H 0.22109 0.4028 0.14026 0.0
H2667 H 0.22981 0.41912 0.1135 0.0
H2668 H 0.16943 0.40469 0.16301 0.0
H2669 H 0.25183 0.42403 0.18268 0.0
H2670 H 0.24726 0.43594 0.16513 0.0
H2671 H 0.2441 0.40981 0.16387 0.0
C2672 C 0.20892 0.44789 0.13032 0.0
C2673 C 0.21827 0.44106 0.1185 0.0
C2674 C 0.20424 0.43878 0.14569 0.0
C2675 C 0.20877 0.4226 0.14958 0.0
C2676 C 0.21803 0.41568 0.13776 0.0
H2677 H 0.16886 0.33002 0.22556 0.0
H2678 H 0.18286 0.35139 0.20106 0.0
C2679 C 0.22292 0.42494 0.12242 0.0
C2680 C 0.20269 0.41222 0.1657 0.0
H2681 H 0.22215 0.39804 0.19834 0.0
C2682 C 0.18104 0.40348 0.17079 0.0
C2683 C 0.21783 0.41064 0.17593 0.0
C2684 C 0.24159 0.4208 0.17171 0.0
C2685 C 0.17403 0.39276 0.18557 0.0
C2686 C 0.18902 0.39072 0.19553 0.0
C2687 C 0.2107 0.39962 0.19061 0.0
C2688 C 0.18212 0.37862 0.21083 0.0
C2689 C 0.1505 0.38319 0.19031 0.0
C2690 C 0.17749 0.38706 0.22452 0.0
C2691 C 0.16957 0.37492 0.23858 0.0
C2692 C 0.16598 0.35407 0.2391 0.0
C2693 C 0.17122 0.34593 0.22547 0.0
C2694 C 0.17931 0.35814 0.2115 0.0
H2695 H 0.14043 0.38423 0.18047 0.0
H2696 H 0.14371 0.36626 0.19363 0.0
H2697 H 0.14928 0.39168 0.20106 0.0
H2698 H 0.17962 0.40288 0.22422 0.0
H2699 H 0.16556 0.38157 0.24884 0.0
H2700 H 0.77775 0.59239 0.91614 0.0
H2701 H 0.78628 0.60739 0.88894 0.0
H2702 H 0.79836 0.55753 0.87365 0.0
H2703 H 0.78941 0.54213 0.90075 0.0
H2704 H 0.82582 0.62137 0.87097 0.0
H2705 H 0.75382 0.55545 0.84024 0.0
H2706 H 0.75526 0.55909 0.86187 0.0
H2707 H 0.77002 0.54803 0.85228 0.0
C2708 C 0.78201 0.58448 0.90696 0.0
C2709 C 0.78277 0.56598 0.91061 0.0
C2710 C 0.78703 0.59316 0.89145 0.0
C2711 C 0.79273 0.58346 0.87924 0.0
C2712 C 0.79373 0.56512 0.88285 0.0
H2713 H 0.81261 0.61592 0.77607 0.0
H2714 H 0.8122 0.59982 0.8022 0.0
C2715 C 0.78879 0.55645 0.89838 0.0
C2716 C 0.79767 0.59265 0.86276 0.0
H2717 H 0.77862 0.58364 0.82396 0.0
C2718 C 0.81558 0.61309 0.86067 0.0
C2719 C 0.7844 0.58173 0.84931 0.0
C2720 C 0.76469 0.55992 0.85095 0.0
C2721 C 0.82041 0.62304 0.84552 0.0
C2722 C 0.80668 0.61245 0.83218 0.0
C2723 C 0.78916 0.59174 0.83418 0.0
C2724 C 0.80909 0.62317 0.81643 0.0
C2725 C 0.84021 0.64481 0.84397 0.0
C2726 C 0.80762 0.64169 0.81574 0.0
C2727 C 0.80797 0.65092 0.80091 0.0
C2728 C 0.80955 0.64174 0.78637 0.0
C2729 C 0.81158 0.62348 0.78706 0.0
C2730 C 0.81121 0.6142 0.80197 0.0
H2731 H 0.85261 0.6475 0.85329 0.0
H2732 H 0.84771 0.64708 0.83185 0.0
H2733 H 0.83539 0.65702 0.84574 0.0
H2734 H 0.80553 0.64868 0.82667 0.0
H2735 H 0.80658 0.66509 0.80082 0.0
H2736 H 0.41357 0.17955 0.91487 0.0
H2737 H 0.39666 0.17242 0.88806 0.0
H2738 H 0.44426 0.23545 0.87286 0.0
H2739 H 0.46139 0.24271 0.89966 0.0
H2740 H 0.38145 0.20118 0.87329 0.0
H2741 H 0.44187 0.19144 0.83704 0.0
H2742 H 0.4389 0.1867 0.85855 0.0
H2743 H 0.45178 0.21335 0.85108 0.0
C2744 C 0.42063 0.19177 0.90574 0.0
C2745 C 0.43879 0.21168 0.90932 0.0
C2746 C 0.41091 0.18771 0.89049 0.0
C2747 C 0.41935 0.20337 0.87854 0.0
C2748 C 0.43768 0.22313 0.88194 0.0
H2749 H 0.37802 0.20451 0.77971 0.0
H2750 H 0.39851 0.21242 0.80509 0.0
C2751 C 0.44732 0.22729 0.89724 0.0
C2752 C 0.40815 0.19939 0.86282 0.0
H2753 H 0.41193 0.18937 0.82305 0.0
C2754 C 0.38805 0.19858 0.86228 0.0
C2755 C 0.41703 0.19626 0.84855 0.0
C2756 C 0.43854 0.19685 0.8487 0.0
C2757 C 0.37651 0.19474 0.84775 0.0
C2758 C 0.38507 0.19101 0.83349 0.0
C2759 C 0.40537 0.19212 0.83401 0.0
C2760 C 0.37306 0.18574 0.81798 0.0
C2761 C 0.35547 0.19512 0.84777 0.0
C2762 C 0.35221 0.16786 0.81672 0.0
C2763 C 0.34047 0.1634 0.80232 0.0
C2764 C 0.34951 0.17657 0.78882 0.0
C2765 C 0.3707 0.19405 0.78992 0.0
C2766 C 0.38238 0.19861 0.80439 0.0
H2767 H 0.35457 0.20426 0.85822 0.0
H2768 H 0.3535 0.2022 0.83649 0.0
H2769 H 0.34167 0.17862 0.84868 0.0
H2770 H 0.34496 0.15738 0.82693 0.0
H2771 H 0.32433 0.14959 0.80171 0.0
H2772 H 0.77205 0.2113 0.89862 0.0
H2773 H 0.78224 0.20247 0.87273 0.0
H2774 H 0.84783 0.22737 0.8901 0.0
H2775 H 0.8376 0.23536 0.91617 0.0
H2776 H 0.81217 0.22912 0.85104 0.0
H2777 H 0.83467 0.17049 0.87205 0.0
H2778 H 0.81979 0.17921 0.88451 0.0
H2779 H 0.84889 0.19515 0.8829 0.0
C2780 C 0.78854 0.21452 0.89704 0.0
C2781 C 0.80399 0.224 0.90951 0.0
C2782 C 0.79437 0.2096 0.88219 0.0
C2783 C 0.81571 0.21396 0.87955 0.0
C2784 C 0.83115 0.22343 0.89196 0.0
H2785 H 0.89576 0.21797 0.80099 0.0
H2786 H 0.87978 0.22128 0.82614 0.0
C2787 C 0.82534 0.22826 0.90681 0.0
C2788 C 0.82218 0.20953 0.86361 0.0
H2789 H 0.84708 0.18499 0.84569 0.0
C2790 C 0.81954 0.21925 0.84983 0.0
C2791 C 0.8317 0.19655 0.86202 0.0
C2792 C 0.83373 0.18458 0.87614 0.0
C2793 C 0.82698 0.21703 0.83464 0.0
C2794 C 0.83721 0.20471 0.83321 0.0
C2795 C 0.83936 0.19456 0.84688 0.0
C2796 C 0.84657 0.20281 0.81777 0.0
C2797 C 0.82456 0.22844 0.8203 0.0
C2798 C 0.83314 0.19125 0.80475 0.0
C2799 C 0.8422 0.18909 0.79038 0.0
C2800 C 0.86489 0.19848 0.78878 0.0
C2801 C 0.87824 0.21022 0.80186 0.0
C2802 C 0.86916 0.21225 0.81622 0.0
H2803 H 0.81916 0.2398 0.82388 0.0
H2804 H 0.84021 0.23721 0.81375 0.0
H2805 H 0.81237 0.21663 0.81182 0.0
H2806 H 0.81564 0.18363 0.80581 0.0
H2807 H 0.83141 0.17969 0.78066 0.0
H2808 H 0.27873 0.10799 0.44519 0.0
H2809 H 0.2954 0.11584 0.47197 0.0
H2810 H 0.25402 0.14041 0.48677 0.0
H2811 H 0.23652 0.1317 0.46016 0.0
H2812 H 0.31779 0.15432 0.48743 0.0
H2813 H 0.24486 0.09866 0.52269 0.0
H2814 H 0.24586 0.09737 0.50096 0.0
H2815 H 0.24164 0.11726 0.51046 0.0
C2816 C 0.27291 0.11474 0.45421 0.0
C2817 C 0.25614 0.11902 0.45058 0.0
C2818 C 0.28258 0.11939 0.46946 0.0
C2819 C 0.27574 0.12843 0.48142 0.0
C2820 C 0.25925 0.13305 0.47781 0.0
H2821 H 0.32763 0.16649 0.57967 0.0
H2822 H 0.30811 0.16239 0.55427 0.0
C2823 C 0.24946 0.12831 0.46254 0.0
C2824 C 0.28629 0.13329 0.49751 0.0
H2825 H 0.27702 0.12042 0.53747 0.0
C2826 C 0.30886 0.14698 0.49837 0.0
C2827 C 0.27456 0.12371 0.51178 0.0
C2828 C 0.25042 0.10829 0.51149 0.0
C2829 C 0.32008 0.15108 0.51308 0.0
C2830 C 0.30843 0.14116 0.52724 0.0
C2831 C 0.28581 0.12798 0.52653 0.0
C2832 C 0.31973 0.1433 0.5427 0.0
C2833 C 0.34435 0.16584 0.5134 0.0
C2834 C 0.33237 0.1336 0.54458 0.0
C2835 C 0.34329 0.13566 0.55908 0.0
C2836 C 0.34185 0.14755 0.57196 0.0
C2837 C 0.32892 0.15705 0.57006 0.0
C2838 C 0.31786 0.15484 0.55556 0.0
H2839 H 0.35021 0.17554 0.50226 0.0
H2840 H 0.34919 0.17663 0.52403 0.0
H2841 H 0.35257 0.15632 0.51442 0.0
H2842 H 0.33371 0.12437 0.53482 0.0
H2843 H 0.35271 0.12776 0.56023 0.0
H2844 H 0.86837 0.11983 0.44576 0.0
H2845 H 0.85821 0.12553 0.47271 0.0
H2846 H 0.92507 0.15474 0.48808 0.0
H2847 H 0.93539 0.14874 0.46121 0.0
H2848 H 0.86559 0.11094 0.50336 0.0
H2849 H 0.90624 0.19903 0.49948 0.0
H2850 H 0.90031 0.18232 0.48184 0.0
H2851 H 0.92265 0.18729 0.4948 0.0
C2852 C 0.88092 0.12727 0.4549 0.0
C2853 C 0.90272 0.13384 0.45129 0.0
C2854 C 0.87508 0.13061 0.47027 0.0
C2855 C 0.89092 0.14075 0.48231 0.0
C2856 C 0.91266 0.14719 0.47886 0.0
H2857 H 0.87788 0.18013 0.57972 0.0
H2858 H 0.89233 0.17293 0.55518 0.0
C2859 C 0.91852 0.14379 0.46349 0.0
C2860 C 0.88452 0.14442 0.4985 0.0
H2861 H 0.88874 0.18338 0.52393 0.0
C2862 C 0.87069 0.12677 0.5079 0.0
C2863 C 0.89135 0.1651 0.50441 0.0
C2864 C 0.90584 0.18458 0.49461 0.0
C2865 C 0.86337 0.12923 0.52306 0.0
C2866 C 0.86966 0.14989 0.52877 0.0
C2867 C 0.88391 0.16756 0.51952 0.0
C2868 C 0.86088 0.15349 0.54396 0.0
C2869 C 0.84913 0.10967 0.53285 0.0
C2870 C 0.83843 0.14507 0.54576 0.0
C2871 C 0.83011 0.14901 0.55979 0.0
C2872 C 0.8441 0.16165 0.57229 0.0
C2873 C 0.86662 0.17009 0.57045 0.0
C2874 C 0.87493 0.16611 0.55639 0.0
H2875 H 0.85141 0.09616 0.52932 0.0
H2876 H 0.85255 0.11277 0.54597 0.0
H2877 H 0.83184 0.1048 0.53068 0.0
H2878 H 0.8273 0.13567 0.5362 0.0
H2879 H 0.81269 0.14208 0.56086 0.0
H2880 H 0.87278 0.79307 0.46174 0.0
H2881 H 0.86465 0.77649 0.48842 0.0
H2882 H 0.88762 0.73452 0.47288 0.0
H2883 H 0.89614 0.75132 0.44629 0.0
H2884 H 0.8367 0.73648 0.4965 0.0
H2885 H 0.91923 0.75506 0.51515 0.0
H2886 H 0.91451 0.76745 0.49797 0.0
H2887 H 0.91125 0.74133 0.49615 0.0
C2888 C 0.87618 0.78037 0.46405 0.0
C2889 C 0.88518 0.77355 0.45194 0.0
C2890 C 0.87159 0.77095 0.47932 0.0
C2891 C 0.87587 0.7545 0.4828 0.0
C2892 C 0.88477 0.7476 0.47068 0.0
H2893 H 0.83999 0.66116 0.55772 0.0
H2894 H 0.85303 0.68311 0.53345 0.0
C2895 C 0.88955 0.75714 0.45546 0.0
C2896 C 0.86995 0.74382 0.49879 0.0
H2897 H 0.88968 0.72869 0.53068 0.0
C2898 C 0.84837 0.73501 0.50405 0.0
C2899 C 0.88517 0.74192 0.50869 0.0
C2900 C 0.90887 0.75214 0.50429 0.0
C2901 C 0.84146 0.72384 0.51865 0.0
C2902 C 0.85653 0.72148 0.52829 0.0
C2903 C 0.87816 0.7305 0.5232 0.0
C2904 C 0.84983 0.70893 0.54339 0.0
C2905 C 0.81795 0.7141 0.52349 0.0
C2906 C 0.84411 0.71639 0.55712 0.0
C2907 C 0.8367 0.7039 0.57104 0.0
C2908 C 0.83477 0.68368 0.57141 0.0
C2909 C 0.84103 0.67653 0.55774 0.0
C2910 C 0.84859 0.68909 0.5439 0.0
H2911 H 0.8077 0.71474 0.5136 0.0
H2912 H 0.81136 0.69728 0.52708 0.0
H2913 H 0.8167 0.72281 0.53408 0.0
H2914 H 0.8451 0.73175 0.55698 0.0
H2915 H 0.83189 0.70979 0.58134 0.0
loop_
_geom_bond_atom_site_label_1
_geom_bond_atom_site_label_2
_geom_bond_distance
_geom_bond_site_symmetry_2
_ccdc_geom_bond_type
H0 C5 0.930 . S
H1 C8 0.930 . S
H2 C10 0.930 . S
H3 C4 1.016 . S
C4 H3 1.016 . S
C4 N11 1.286 . S
C5 H0 0.930 . S
C5 C6 1.397 . S
C5 C7 1.361 . S
C6 C5 1.397 . S
C6 C10 1.390 . S
C7 C5 1.361 . S
C7 C8 1.393 . S
C7 N11 1.413 . S
C8 H1 0.930 . S
C8 C7 1.393 . S
C8 C9 1.399 . S
C9 C8 1.399 . S
C9 C10 1.381 . S
C10 H2 0.930 . S
C10 C6 1.390 . S
C10 C9 1.381 . S
N11 C4 1.286 . S
N11 C7 1.413 . S
H12 C17 0.930 . S
H13 C20 0.930 . S
H14 C22 0.930 . S
H15 C16 1.016 . S
C16 H15 1.016 . S
C16 N23 1.286 . S
C17 H12 0.930 . S
C17 C18 1.397 . S
C17 C19 1.361 . S
C18 C17 1.397 . S
C18 C22 1.390 . S
C19 C17 1.361 . S
C19 C20 1.393 . S
C19 N23 1.413 . S
C20 H13 0.930 . S
C20 C19 1.393 . S
C20 C21 1.399 . S
C21 C20 1.399 . S
C21 C22 1.381 . S
C22 H14 0.930 . S
C22 C18 1.390 . S
C22 C21 1.381 . S
N23 C16 1.286 . S
N23 C19 1.413 . S
H24 C29 0.930 . S
H25 C32 0.930 . S
H26 C34 0.930 . S
H27 C28 1.016 . S
C28 H27 1.016 . S
C28 N35 1.286 . S
C29 H24 0.930 . S
C29 C30 1.397 . S
C29 C31 1.361 . S
C30 C29 1.397 . S
C30 C34 1.390 . S
C31 C29 1.361 . S
C31 C32 1.393 . S
C31 N35 1.413 . S
C32 H25 0.930 . S
C32 C31 1.393 . S
C32 C33 1.399 . S
C33 C32 1.399 . S
C33 C34 1.381 . S
C34 H26 0.930 . S
C34 C30 1.390 . S
C34 C33 1.381 . S
N35 C28 1.286 . S
N35 C31 1.413 . S
H36 C41 0.930 . S
H37 C44 0.930 . S
H38 C46 0.930 . S
H39 C40 1.016 . S
C40 H39 1.016 . S
C40 N47 1.286 . S
C41 H36 0.930 . S
C41 C42 1.397 . S
C41 C43 1.361 . S
C42 C41 1.397 . S
C42 C46 1.390 . S
C43 C41 1.361 . S
C43 C44 1.393 . S
C43 N47 1.413 . S
C44 H37 0.930 . S
C44 C43 1.393 . S
C44 C45 1.399 . S
C45 C44 1.399 . S
C45 C46 1.381 . S
C46 H38 0.930 . S
C46 C42 1.390 . S
C46 C45 1.381 . S
N47 C40 1.286 . S
N47 C43 1.413 . S
H48 C53 0.930 . S
H49 C56 0.930 . S
H50 C58 0.930 . S
H51 C52 1.016 . S
C52 H51 1.016 . S
C52 N59 1.286 . S
C53 H48 0.930 . S
C53 C54 1.397 . S
C53 C55 1.361 . S
C54 C53 1.397 . S
C54 C58 1.390 . S
C55 C53 1.361 . S
C55 C56 1.393 . S
C55 N59 1.413 . S
C56 H49 0.930 . S
C56 C55 1.393 . S
C56 C57 1.399 . S
C57 C56 1.399 . S
C57 C58 1.381 . S
C58 H50 0.930 . S
C58 C54 1.390 . S
C58 C57 1.381 . S
N59 C52 1.286 . S
N59 C55 1.413 . S
H60 C65 0.930 . S
H61 C68 0.930 . S
H62 C70 0.930 . S
H63 C64 1.016 . S
C64 H63 1.016 . S
C64 N71 1.286 . S
C65 H60 0.930 . S
C65 C66 1.397 . S
C65 C67 1.361 . S
C66 C65 1.397 . S
C66 C70 1.390 . S
C67 C65 1.361 . S
C67 C68 1.393 . S
C67 N71 1.413 . S
C68 H61 0.930 . S
C68 C67 1.393 . S
C68 C69 1.399 . S
C69 C68 1.399 . S
C69 C70 1.381 . S
C70 H62 0.930 . S
C70 C66 1.390 . S
C70 C69 1.381 . S
N71 C64 1.286 . S
N71 C67 1.413 . S
H72 C77 0.930 . S
H73 C80 0.930 . S
H74 C82 0.930 . S
H75 C76 1.016 . S
C76 H75 1.016 . S
C76 N83 1.286 . S
C77 H72 0.930 . S
C77 C78 1.397 . S
C77 C79 1.361 . S
C78 C77 1.397 . S
C78 C82 1.390 . S
C79 C77 1.361 . S
C79 C80 1.393 . S
C79 N83 1.413 . S
C80 H73 0.930 . S
C80 C79 1.393 . S
C80 C81 1.399 . S
C81 C80 1.399 . S
C81 C82 1.381 . S
C82 H74 0.930 . S
C82 C78 1.390 . S
C82 C81 1.381 . S
N83 C76 1.286 . S
N83 C79 1.413 . S
H84 C89 0.930 . S
H85 C92 0.930 . S
H86 C94 0.930 . S
H87 C88 1.016 . S
C88 H87 1.016 . S
C88 N95 1.286 . S
C89 H84 0.930 . S
C89 C90 1.397 . S
C89 C91 1.361 . S
C90 C89 1.397 . S
C90 C94 1.390 . S
C91 C89 1.361 . S
C91 C92 1.393 . S
C91 N95 1.413 . S
C92 H85 0.930 . S
C92 C91 1.393 . S
C92 C93 1.399 . S
C93 C92 1.399 . S
C93 C94 1.381 . S
C94 H86 0.930 . S
C94 C90 1.390 . S
C94 C93 1.381 . S
N95 C88 1.286 . S
N95 C91 1.413 . S
H96 C101 0.930 . S
H97 C104 0.930 . S
H98 C106 0.930 . S
H99 C100 1.016 . S
C100 H99 1.016 . S
C100 N107 1.286 . S
C101 H96 0.930 . S
C101 C102 1.397 . S
C101 C103 1.361 . S
C102 C101 1.397 . S
C102 C106 1.390 . S
C103 C101 1.361 . S
C103 C104 1.393 . S
C103 N107 1.413 . S
C104 H97 0.930 . S
C104 C103 1.393 . S
C104 C105 1.399 . S
C105 C104 1.399 . S
C105 C106 1.381 . S
C106 H98 0.930 . S
C106 C102 1.390 . S
C106 C105 1.381 . S
N107 C100 1.286 . S
N107 C103 1.413 . S
H108 C113 0.930 . S
H109 C116 0.930 . S
H110 C118 0.930 . S
H111 C112 1.016 . S
C112 H111 1.016 . S
C112 N119 1.286 . S
C113 H108 0.930 . S
C113 C114 1.397 . S
C113 C115 1.361 . S
C114 C113 1.397 . S
C114 C118 1.390 . S
C115 C113 1.361 . S
C115 C116 1.393 . S
C115 N119 1.413 . S
C116 H109 0.930 . S
C116 C115 1.393 . S
C116 C117 1.399 . S
C117 C116 1.399 . S
C117 C118 1.381 . S
C118 H110 0.930 . S
C118 C114 1.390 . S
C118 C117 1.381 . S
N119 C112 1.286 . S
N119 C115 1.413 . S
H120 C125 0.930 . S
H121 C128 0.930 . S
H122 C130 0.930 . S
H123 C124 1.016 . S
C124 H123 1.016 . S
C124 N131 1.286 . S
C125 H120 0.930 . S
C125 C126 1.397 . S
C125 C127 1.361 . S
C126 C125 1.397 . S
C126 C130 1.390 . S
C127 C125 1.361 . S
C127 C128 1.393 . S
C127 N131 1.413 . S
C128 H121 0.930 . S
C128 C127 1.393 . S
C128 C129 1.399 . S
C129 C128 1.399 . S
C129 C130 1.381 . S
C130 H122 0.930 . S
C130 C126 1.390 . S
C130 C129 1.381 . S
N131 C124 1.286 . S
N131 C127 1.413 . S
H132 C137 0.930 . S
H133 C140 0.930 . S
H134 C142 0.930 . S
H135 C136 1.016 . S
C136 H135 1.016 . S
C136 N143 1.286 . S
C137 H132 0.930 . S
C137 C138 1.397 . S
C137 C139 1.361 . S
C138 C137 1.397 . S
C138 C142 1.390 . S
C139 C137 1.361 . S
C139 C140 1.393 . S
C139 N143 1.413 . S
C140 H133 0.930 . S
C140 C139 1.393 . S
C140 C141 1.399 . S
C141 C140 1.399 . S
C141 C142 1.381 . S
C142 H134 0.930 . S
C142 C138 1.390 . S
C142 C141 1.381 . S
N143 C136 1.286 . S
N143 C139 1.413 . S
H144 C149 0.930 . S
H145 C152 0.930 . S
H146 C154 0.930 . S
H147 C148 1.016 . S
C148 H147 1.016 . S
C148 N155 1.286 . S
C149 H144 0.930 . S
C149 C150 1.397 . S
C149 C151 1.361 . S
C150 C149 1.397 . S
C150 C154 1.390 . S
C151 C149 1.361 . S
C151 C152 1.393 . S
C151 N155 1.413 . S
C152 H145 0.930 . S
C152 C151 1.393 . S
C152 C153 1.399 . S
C153 C152 1.399 . S
C153 C154 1.381 . S
C154 H146 0.930 . S
C154 C150 1.390 . S
C154 C153 1.381 . S
N155 C148 1.286 . S
N155 C151 1.413 . S
H156 C161 0.930 . S
H157 C164 0.930 . S
H158 C166 0.930 . S
H159 C160 1.016 . S
C160 H159 1.016 . S
C160 N167 1.286 . S
C161 H156 0.930 . S
C161 C162 1.397 . S
C161 C163 1.361 . S
C162 C161 1.397 . S
C162 C166 1.390 . S
C163 C161 1.361 . S
C163 C164 1.393 . S
C163 N167 1.413 . S
C164 H157 0.930 . S
C164 C163 1.393 . S
C164 C165 1.399 . S
C165 C164 1.399 . S
C165 C166 1.381 . S
C166 H158 0.930 . S
C166 C162 1.390 . S
C166 C165 1.381 . S
N167 C160 1.286 . S
N167 C163 1.413 . S
H168 C173 0.930 . S
H169 C176 0.930 . S
H170 C178 0.930 . S
H171 C172 1.016 . S
C172 H171 1.016 . S
C172 N179 1.286 . S
C173 H168 0.930 . S
C173 C174 1.397 . S
C173 C175 1.361 . S
C174 C173 1.397 . S
C174 C178 1.390 . S
C175 C173 1.361 . S
C175 C176 1.393 . S
C175 N179 1.413 . S
C176 H169 0.930 . S
C176 C175 1.393 . S
C176 C177 1.399 . S
C177 C176 1.399 . S
C177 C178 1.381 . S
C178 H170 0.930 . S
C178 C174 1.390 . S
C178 C177 1.381 . S
N179 C172 1.286 . S
N179 C175 1.413 . S
H180 C185 0.930 . S
H181 C188 0.930 . S
H182 C190 0.930 . S
H183 C184 1.016 . S
C184 H183 1.016 . S
C184 N191 1.286 . S
C185 H180 0.930 . S
C185 C186 1.397 . S
C185 C187 1.361 . S
C186 C185 1.397 . S
C186 C190 1.390 . S
C187 C185 1.361 . S
C187 C188 1.393 . S
C187 N191 1.413 . S
C188 H181 0.930 . S
C188 C187 1.393 . S
C188 C189 1.399 . S
C189 C188 1.399 . S
C189 C190 1.381 . S
C190 H182 0.930 . S
C190 C186 1.390 . S
C190 C189 1.381 . S
N191 C184 1.286 . S
N191 C187 1.413 . S
H192 C197 0.930 . S
H193 C200 0.930 . S
H194 C202 0.930 . S
H195 C196 1.016 . S
C196 H195 1.016 . S
C196 N203 1.286 . S
C197 H192 0.930 . S
C197 C198 1.397 . S
C197 C199 1.361 . S
C198 C197 1.397 . S
C198 C202 1.390 . S
C199 C197 1.361 . S
C199 C200 1.393 . S
C199 N203 1.413 . S
C200 H193 0.930 . S
C200 C199 1.393 . S
C200 C201 1.399 . S
C201 C200 1.399 . S
C201 C202 1.381 . S
C202 H194 0.930 . S
C202 C198 1.390 . S
C202 C201 1.381 . S
N203 C196 1.286 . S
N203 C199 1.413 . S
H204 C209 0.930 . S
H205 C212 0.930 . S
H206 C214 0.930 . S
H207 C208 1.016 . S
C208 H207 1.016 . S
C208 N215 1.286 . S
C209 H204 0.930 . S
C209 C210 1.397 . S
C209 C211 1.361 . S
C210 C209 1.397 . S
C210 C214 1.390 . S
C211 C209 1.361 . S
C211 C212 1.393 . S
C211 N215 1.413 . S
C212 H205 0.930 . S
C212 C211 1.393 . S
C212 C213 1.399 . S
C213 C212 1.399 . S
C213 C214 1.381 . S
C214 H206 0.930 . S
C214 C210 1.390 . S
C214 C213 1.381 . S
N215 C208 1.286 . S
N215 C211 1.413 . S
Tb216 N247 2.660 . S
Tb216 N254 2.600 . S
Tb216 O260 2.546 . S
Tb216 O261 2.610 1_566 S
Tb216 O263 2.320 1_565 S
Tb216 O264 2.552 1_565 S
Tb216 O265 2.413 1_565 S
Tb216 O267 2.362 1_556 S
Tb216 O268 2.421 1_556 S
Tb216 C280 2.833 1_565 S
C217 C220 1.432 . S
C217 C221 1.414 . S
C217 N224 1.359 . S
C218 C220 1.417 . S
C218 C222 1.432 . S
C218 C230 1.410 . S
C219 C221 1.444 . S
C219 C222 1.317 . S
C219 H242 0.929 . S
C220 C217 1.432 . S
C220 C218 1.417 . S
C220 N228 1.360 . S
C221 C217 1.414 . S
C221 C219 1.444 . S
C221 C226 1.385 . S
C222 C218 1.432 . S
C222 C219 1.317 . S
C222 H234 0.930 . S
C223 C225 1.392 . S
C223 C226 1.370 . S
C223 H235 0.931 . S
N224 C217 1.359 . S
N224 C225 1.327 . S
N224 Tb227 2.600 . S
C225 C223 1.392 . S
C225 N224 1.327 . S
C225 H232 0.930 . S
C226 C221 1.385 . S
C226 C223 1.370 . S
C226 H245 0.930 . S
Tb227 N224 2.600 . S
Tb227 N228 2.660 . S
Tb227 O261 2.362 . S
Tb227 O262 2.421 . S
Tb227 O266 2.546 . S
Tb227 O267 2.610 1_545 S
Tb227 O269 2.320 1_545 S
Tb227 O270 2.552 1_545 S
Tb227 O271 2.388 1_545 S
Tb227 C291 2.833 . S
N228 C220 1.360 . S
N228 Tb227 2.660 . S
N228 C229 1.305 . S
C229 N228 1.305 . S
C229 C231 1.407 . S
C229 H236 0.930 . S
C230 C218 1.410 . S
C230 C231 1.345 . S
C230 H238 0.930 . S
C231 C229 1.407 . S
C231 C230 1.345 . S
C231 H233 0.930 . S
H232 C225 0.930 . S
H233 C231 0.930 . S
H234 C222 0.930 . S
H235 C223 0.931 . S
H236 C229 0.930 . S
H237 C251 0.930 . S
H238 C230 0.930 . S
H239 C257 0.930 . S
H240 C248 0.932 . S
H241 C255 0.931 . S
H242 C219 0.929 . S
H243 C249 0.930 . S
H244 C282 0.930 . S
H245 C226 0.930 . S
H246 C281 0.929 . S
N247 Tb216 2.660 . S
N247 C248 1.305 . S
N247 C252 1.360 . S
C248 H240 0.932 . S
C248 N247 1.305 . S
C248 C251 1.407 . S
C249 H243 0.930 . S
C249 C250 1.410 . S
C249 C251 1.345 . S
C250 C249 1.410 . S
C250 C252 1.417 . S
C250 C282 1.432 . S
C251 H237 0.930 . S
C251 C248 1.407 . S
C251 C249 1.345 . S
C252 N247 1.360 . S
C252 C250 1.417 . S
C252 C256 1.432 . S
H253 C258 0.930 . S
N254 Tb216 2.600 . S
N254 C256 1.359 . S
N254 C257 1.327 . S
C255 H241 0.931 . S
C255 C257 1.392 . S
C255 C258 1.370 . S
C256 C252 1.432 . S
C256 N254 1.359 . S
C256 C259 1.414 . S
C257 H239 0.930 . S
C257 N254 1.327 . S
C257 C255 1.392 . S
C258 H253 0.930 . S
C258 C255 1.370 . S
C258 C259 1.385 . S
C259 C256 1.414 . S
C259 C258 1.385 . S
C259 C281 1.444 . S
O260 Tb216 2.546 . S
O260 C280 1.251 1_565 S
O261 Tb216 2.610 1_544 S
O261 Tb227 2.362 . S
O261 C272 1.283 1_554 S
O262 Tb227 2.421 . S
O262 C279 1.262 . S
O263 Tb216 2.320 1_545 S
O263 C279 1.260 1_556 S
O264 Tb216 2.552 1_545 S
O264 C272 1.243 . S
O265 Tb216 2.413 1_545 S
O265 C280 1.256 . S
O266 Tb227 2.546 . S
O266 C291 1.251 . S
O267 Tb216 2.362 1_554 S
O267 Tb227 2.610 1_565 S
O267 C283 1.283 . S
O268 Tb216 2.421 1_554 S
O268 C290 1.262 . S
O269 Tb227 2.320 1_565 S
O269 C290 1.260 . S
O270 Tb227 2.552 1_565 S
O270 C283 1.243 . S
O271 Tb227 2.388 1_565 S
O271 C291 1.216 1_565 S
C272 O261 1.283 1_556 S
C272 O264 1.243 . S
C273 C275 1.382 . S
C273 C277 1.393 1_545 S
C273 C280 1.500 . S
C274 C275 1.400 . S
C274 C276 1.384 . S
C275 C273 1.382 . S
C275 C274 1.400 . S
C275 H292 0.930 . S
C276 C274 1.384 . S
C276 C278 1.362 1_545 S
C276 H293 0.931 . S
C277 C273 1.393 1_565 S
C277 C278 1.407 . S
C277 H294 0.930 . S
C278 C276 1.362 1_565 S
C278 C277 1.407 . S
C278 H295 0.955 . S
C279 O262 1.262 . S
C279 O263 1.260 1_554 S
C280 Tb216 2.833 1_545 S
C280 O260 1.251 1_545 S
C280 O265 1.256 . S
C280 C273 1.500 . S
C281 H246 0.929 . S
C281 C259 1.444 . S
C281 C282 1.317 . S
C282 H244 0.930 . S
C282 C250 1.432 . S
C282 C281 1.317 . S
C283 O267 1.283 . S
C283 O270 1.243 . S
C284 C285 1.332 1_545 S
C284 C288 1.435 . S
C284 C291 1.509 . S
C285 C284 1.332 1_565 S
C285 C286 1.400 . S
C285 H296 0.930 . S
C286 C285 1.400 . S
C286 C287 1.384 . S
C287 C286 1.384 . S
C287 C289 1.392 1_565 S
C287 H297 0.931 . S
C288 C284 1.435 . S
C288 C289 1.401 . S
C288 H298 0.930 . S
C289 C287 1.392 1_545 S
C289 C288 1.401 . S
C289 H299 0.930 . S
C290 O268 1.262 . S
C290 O269 1.260 . S
C291 Tb227 2.833 . S
C291 O266 1.251 . S
C291 O271 1.216 1_545 S
C291 C284 1.509 . S
H292 C275 0.930 . S
H293 C276 0.931 . S
H294 C277 0.930 . S
H295 C278 0.955 . S
H296 C285 0.930 . S
H297 C287 0.931 . S
H298 C288 0.930 . S
H299 C289 0.930 . S
Tb300 N331 2.660 . S
Tb300 N338 2.600 . S
Tb300 O344 2.546 . S
Tb300 O345 2.610 1_456 S
Tb300 O347 2.320 1_455 S
Tb300 O348 2.552 1_455 S
Tb300 O349 2.413 . S
Tb300 O351 2.362 1_556 S
Tb300 O352 2.421 1_556 S
Tb300 C364 2.833 . S
C301 C304 1.432 . S
C301 C305 1.414 . S
C301 N308 1.359 . S
C302 C304 1.417 . S
C302 C306 1.432 . S
C302 C314 1.410 . S
C303 C305 1.444 . S
C303 C306 1.317 . S
C303 H326 0.929 . S
C304 C301 1.432 . S
C304 C302 1.417 . S
C304 N312 1.360 . S
C305 C301 1.414 . S
C305 C303 1.444 . S
C305 C310 1.385 . S
C306 C302 1.432 . S
C306 C303 1.317 . S
C306 H318 0.930 . S
C307 C309 1.392 . S
C307 C310 1.370 . S
C307 H319 0.931 . S
N308 C301 1.359 . S
N308 C309 1.327 . S
N308 Tb311 2.600 . S
C309 C307 1.392 . S
C309 N308 1.327 . S
C309 H316 0.930 . S
C310 C305 1.385 . S
C310 C307 1.370 . S
C310 H329 0.930 . S
Tb311 N308 2.600 . S
Tb311 N312 2.660 . S
Tb311 O345 2.362 . S
Tb311 O346 2.421 . S
Tb311 O350 2.546 . S
Tb311 O351 2.610 1_655 S
Tb311 O353 2.320 1_655 S
Tb311 O354 2.552 1_655 S
Tb311 O355 2.413 1_655 S
Tb311 C375 2.833 1_655 S
N312 C304 1.360 . S
N312 Tb311 2.660 . S
N312 C313 1.305 . S
C313 N312 1.305 . S
C313 C315 1.407 . S
C313 H320 0.913 1_655 S
C314 C302 1.410 . S
C314 C315 1.345 . S
C314 H322 0.930 . S
C315 C313 1.407 . S
C315 C314 1.345 . S
C315 H317 0.930 . S
H316 C309 0.930 . S
H317 C315 0.930 . S
H318 C306 0.930 . S
H319 C307 0.931 . S
H320 C313 0.913 1_455 S
H321 C335 0.930 . S
H322 C314 0.930 . S
H323 C341 0.930 . S
H324 C332 0.930 . S
H325 C339 0.931 . S
H326 C303 0.929 . S
H327 C333 0.930 . S
H328 C366 0.930 . S
H329 C310 0.930 . S
H330 C365 0.929 . S
N331 Tb300 2.660 . S
N331 C332 1.305 . S
N331 C336 1.360 . S
C332 H324 0.930 . S
C332 N331 1.305 . S
C332 C335 1.407 . S
C333 H327 0.930 . S
C333 C334 1.410 . S
C333 C335 1.345 . S
C334 C333 1.410 . S
C334 C336 1.417 . S
C334 C366 1.432 . S
C335 H321 0.930 . S
C335 C332 1.407 . S
C335 C333 1.345 . S
C336 N331 1.360 . S
C336 C334 1.417 . S
C336 C340 1.432 . S
H337 C342 0.930 . S
N338 Tb300 2.600 . S
N338 C340 1.359 . S
N338 C341 1.327 . S
C339 H325 0.931 . S
C339 C341 1.392 . S
C339 C342 1.370 . S
C340 C336 1.432 . S
C340 N338 1.359 . S
C340 C343 1.414 . S
C341 H323 0.930 . S
C341 N338 1.327 . S
C341 C339 1.392 . S
C342 H337 0.930 . S
C342 C339 1.370 . S
C342 C343 1.385 . S
C343 C340 1.414 . S
C343 C342 1.385 . S
C343 C365 1.444 . S
O344 Tb300 2.546 . S
O344 C364 1.251 . S
O345 Tb300 2.610 1_654 S
O345 Tb311 2.362 . S
O345 C356 1.283 1_554 S
O346 Tb311 2.421 . S
O346 C363 1.262 . S
O347 Tb300 2.320 1_655 S
O347 C363 1.260 1_556 S
O348 Tb300 2.552 1_655 S
O348 C356 1.243 . S
O349 Tb300 2.413 . S
O349 C364 1.256 . S
O350 Tb311 2.546 . S
O350 C375 1.251 1_655 S
O351 Tb300 2.362 1_554 S
O351 Tb311 2.610 1_455 S
O351 C367 1.283 . S
O352 Tb300 2.421 1_554 S
O352 C374 1.262 . S
O353 Tb311 2.320 1_455 S
O353 C374 1.260 . S
O354 Tb311 2.552 1_455 S
O354 C367 1.243 . S
O355 Tb311 2.413 1_455 S
O355 C375 1.256 . S
C356 O345 1.283 1_556 S
C356 O348 1.243 . S
C357 C359 1.382 1_455 S
C357 C361 1.393 . S
C357 C364 1.500 . S
C358 C359 1.400 . S
C358 C360 1.384 . S
C359 C357 1.382 1_655 S
C359 C358 1.400 . S
C359 H376 0.930 . S
C360 C358 1.384 . S
C360 C362 1.392 1_655 S
C360 H377 0.931 . S
C361 C357 1.393 . S
C361 C362 1.401 . S
C361 H378 0.930 . S
C362 C360 1.392 1_455 S
C362 C361 1.401 . S
C362 H379 0.930 . S
C363 O346 1.262 . S
C363 O347 1.260 1_554 S
C364 Tb300 2.833 . S
C364 O344 1.251 . S
C364 O349 1.256 . S
C364 C357 1.500 . S
C365 H330 0.929 . S
C365 C343 1.444 . S
C365 C366 1.317 . S
C366 H328 0.930 . S
C366 C334 1.432 . S
C366 C365 1.317 . S
C367 O351 1.283 . S
C367 O354 1.243 . S
C368 C369 1.382 . S
C368 C372 1.393 1_455 S
C368 C375 1.500 . S
C369 C368 1.382 . S
C369 C370 1.400 . S
C369 H380 0.930 . S
C370 C369 1.400 . S
C370 C371 1.384 . S
C371 C370 1.384 . S
C371 C373 1.392 1_455 S
C371 H381 0.931 . S
C372 C368 1.393 1_655 S
C372 C373 1.401 . S
C372 H382 0.930 . S
C373 C371 1.392 1_655 S
C373 C372 1.401 . S
C373 H383 0.930 . S
C374 O352 1.262 . S
C374 O353 1.260 . S
C375 Tb311 2.833 1_455 S
C375 O350 1.251 1_455 S
C375 O355 1.256 . S
C375 C368 1.500 . S
H376 C359 0.930 . S
H377 C360 0.931 . S
H378 C361 0.930 . S
H379 C362 0.930 . S
H380 C369 0.930 . S
H381 C371 0.931 . S
H382 C372 0.930 . S
H383 C373 0.930 . S
Tb384 N415 2.660 . S
Tb384 N422 2.600 . S
Tb384 O428 2.546 . S
Tb384 O429 2.610 . S
Tb384 O431 2.320 . S
Tb384 O432 2.552 . S
Tb384 O433 2.413 . S
Tb384 O435 2.362 . S
Tb384 O436 2.421 . S
Tb384 C448 2.833 . S
C385 C388 1.432 . S
C385 C389 1.414 . S
C385 N392 1.359 . S
C386 C388 1.417 . S
C386 C390 1.432 . S
C386 C398 1.410 . S
C387 C389 1.444 . S
C387 C390 1.317 . S
C387 H410 0.929 . S
C388 C385 1.432 . S
C388 C386 1.417 . S
C388 N396 1.360 . S
C389 C385 1.414 . S
C389 C387 1.444 . S
C389 C394 1.385 . S
C390 C386 1.432 . S
C390 C387 1.317 . S
C390 H402 0.930 . S
C391 C393 1.392 . S
C391 C394 1.370 . S
C391 H403 0.931 . S
N392 C385 1.359 . S
N392 C393 1.327 . S
N392 Tb395 2.600 . S
C393 C391 1.392 . S
C393 N392 1.327 . S
C393 H400 0.930 . S
C394 C389 1.385 . S
C394 C391 1.370 . S
C394 H413 0.930 . S
Tb395 N392 2.600 . S
Tb395 N396 2.660 . S
Tb395 O429 2.362 1_556 S
Tb395 O430 2.421 1_556 S
Tb395 O434 2.546 . S
Tb395 O435 2.610 1_556 S
Tb395 O437 2.320 . S
Tb395 O438 2.552 . S
Tb395 O439 2.413 . S
Tb395 C459 2.833 . S
N396 C388 1.360 . S
N396 Tb395 2.660 . S
N396 C397 1.305 . S
C397 N396 1.305 . S
C397 C399 1.407 . S
C397 H404 0.930 . S
C398 C386 1.410 . S
C398 C399 1.345 . S
C398 H406 0.930 . S
C399 C397 1.407 . S
C399 C398 1.345 . S
C399 H401 0.930 . S
H400 C393 0.930 . S
H401 C399 0.930 . S
H402 C390 0.930 . S
H403 C391 0.931 . S
H404 C397 0.930 . S
H405 C419 0.930 . S
H406 C398 0.930 . S
H407 C425 0.930 . S
H408 C416 0.930 . S
H409 C423 0.931 . S
H410 C387 0.929 . S
H411 C417 0.930 . S
H412 C450 0.930 . S
H413 C394 0.930 . S
H414 C449 0.929 . S
N415 Tb384 2.660 . S
N415 C416 1.305 . S
N415 C420 1.360 . S
C416 H408 0.930 . S
C416 N415 1.305 . S
C416 C419 1.407 . S
C417 H411 0.930 . S
C417 C418 1.410 . S
C417 C419 1.345 . S
C418 C417 1.410 . S
C418 C420 1.417 . S
C418 C450 1.432 . S
C419 H405 0.930 . S
C419 C416 1.407 . S
C419 C417 1.345 . S
C420 N415 1.360 . S
C420 C418 1.417 . S
C420 C424 1.432 . S
H421 C426 0.930 . S
N422 Tb384 2.600 . S
N422 C424 1.359 . S
N422 C425 1.327 . S
C423 H409 0.931 . S
C423 C425 1.392 . S
C423 C426 1.370 . S
C424 C420 1.432 . S
C424 N422 1.359 . S
C424 C427 1.414 . S
C425 H407 0.930 . S
C425 N422 1.327 . S
C425 C423 1.392 . S
C426 H421 0.930 . S
C426 C423 1.370 . S
C426 C427 1.385 . S
C427 C424 1.414 . S
C427 C426 1.385 . S
C427 C449 1.444 . S
O428 Tb384 2.546 . S
O428 C448 1.251 . S
O429 Tb384 2.610 . S
O429 Tb395 2.362 1_554 S
O429 C440 1.283 . S
O430 Tb395 2.421 1_554 S
O430 C447 1.262 . S
O431 Tb384 2.320 . S
O431 C447 1.260 . S
O432 Tb384 2.552 . S
O432 C440 1.243 . S
O433 Tb384 2.413 . S
O433 C448 1.256 . S
O434 Tb395 2.546 . S
O434 C459 1.251 . S
O435 Tb384 2.362 . S
O435 Tb395 2.610 1_554 S
O435 C451 1.243 1_554 S
O436 Tb384 2.421 . S
O436 C458 1.262 . S
O437 Tb395 2.320 . S
O437 C458 1.260 1_556 S
O438 Tb395 2.552 . S
O438 C451 1.296 . S
O439 Tb395 2.413 . S
O439 C459 1.256 . S
C440 O429 1.283 . S
C440 O432 1.243 . S
C441 C443 1.382 . S
C441 C445 1.393 . S
C441 C448 1.500 . S
C442 C443 1.400 . S
C442 C444 1.384 . S
C443 C441 1.382 . S
C443 C442 1.400 . S
C443 H460 0.930 . S
C444 C442 1.384 . S
C444 C446 1.392 . S
C444 H461 0.931 . S
C445 C441 1.393 . S
C445 C446 1.401 . S
C445 H462 0.930 . S
C446 C444 1.392 . S
C446 C445 1.401 . S
C446 H463 0.930 . S
C447 O430 1.262 . S
C447 O431 1.260 . S
C448 Tb384 2.833 . S
C448 O428 1.251 . S
C448 O433 1.256 . S
C448 C441 1.500 . S
C449 H414 0.929 . S
C449 C427 1.444 . S
C449 C450 1.317 . S
C450 H412 0.930 . S
C450 C418 1.432 . S
C450 C449 1.317 . S
C451 O435 1.243 1_556 S
C451 O438 1.296 . S
C452 C453 1.382 . S
C452 C456 1.393 . S
C452 C459 1.500 . S
C453 C452 1.382 . S
C453 C454 1.400 . S
C453 H464 0.930 . S
C454 C453 1.400 . S
C454 C455 1.384 . S
C455 C454 1.384 . S
C455 C457 1.392 . S
C455 H465 0.931 . S
C456 C452 1.393 . S
C456 C457 1.401 . S
C456 H466 0.930 . S
C457 C455 1.392 . S
C457 C456 1.401 . S
C457 H467 0.930 . S
C458 O436 1.262 . S
C458 O437 1.260 1_554 S
C459 Tb395 2.833 . S
C459 O434 1.251 . S
C459 O439 1.256 . S
C459 C452 1.500 . S
H460 C443 0.930 . S
H461 C444 0.931 . S
H462 C445 0.930 . S
H463 C446 0.930 . S
H464 C453 0.930 . S
H465 C455 0.931 . S
H466 C456 0.930 . S
H467 C457 0.930 . S
Tb468 N499 2.660 . S
Tb468 N506 2.600 . S
Tb468 O512 2.546 . S
Tb468 O513 2.610 . S
Tb468 O515 2.320 . S
Tb468 O516 2.552 . S
Tb468 O517 2.413 . S
Tb468 O519 2.362 . S
Tb468 O520 2.421 . S
Tb468 C532 2.833 . S
C469 C472 1.432 . S
C469 C473 1.414 . S
C469 N476 1.359 . S
C470 C472 1.417 . S
C470 C474 1.432 . S
C470 C482 1.410 . S
C471 C473 1.444 . S
C471 C474 1.317 . S
C471 H494 0.929 . S
C472 C469 1.432 . S
C472 C470 1.417 . S
C472 N480 1.360 . S
C473 C469 1.414 . S
C473 C471 1.444 . S
C473 C478 1.385 . S
C474 C470 1.432 . S
C474 C471 1.317 . S
C474 H486 0.930 . S
C475 C477 1.392 . S
C475 C478 1.370 . S
C475 H487 0.931 . S
N476 C469 1.359 . S
N476 C477 1.327 . S
N476 Tb479 2.600 . S
C477 C475 1.392 . S
C477 N476 1.327 . S
C477 H484 0.930 . S
C478 C473 1.385 . S
C478 C475 1.370 . S
C478 H497 0.930 . S
Tb479 N476 2.600 . S
Tb479 N480 2.660 . S
Tb479 O513 2.362 . S
Tb479 O514 2.421 . S
Tb479 O518 2.546 . S
Tb479 O519 2.610 . S
Tb479 O521 2.320 . S
Tb479 O522 2.552 . S
Tb479 O523 2.413 . S
Tb479 C543 2.833 . S
N480 C472 1.360 . S
N480 Tb479 2.660 . S
N480 C481 1.305 . S
C481 N480 1.305 . S
C481 C483 1.407 . S
C481 H488 0.930 . S
C482 C470 1.410 . S
C482 C483 1.345 . S
C482 H490 0.930 . S
C483 C481 1.407 . S
C483 C482 1.345 . S
C483 H485 0.930 . S
H484 C477 0.930 . S
H485 C483 0.930 . S
H486 C474 0.930 . S
H487 C475 0.931 . S
H488 C481 0.930 . S
H489 C503 0.930 . S
H490 C482 0.930 . S
H491 C509 0.930 . S
H492 C500 0.930 . S
H493 C507 0.931 . S
H494 C471 0.929 . S
H495 C501 0.930 . S
H496 C534 0.930 . S
H497 C478 0.930 . S
H498 C533 0.929 . S
N499 Tb468 2.660 . S
N499 C500 1.305 . S
N499 C504 1.360 . S
C500 H492 0.930 . S
C500 N499 1.305 . S
C500 C503 1.407 . S
C501 H495 0.930 . S
C501 C502 1.410 . S
C501 C503 1.345 . S
C502 C501 1.410 . S
C502 C504 1.417 . S
C502 C534 1.432 . S
C503 H489 0.930 . S
C503 C500 1.407 . S
C503 C501 1.345 . S
C504 N499 1.360 . S
C504 C502 1.417 . S
C504 C508 1.432 . S
H505 C510 0.930 . S
N506 Tb468 2.600 . S
N506 C508 1.359 . S
N506 C509 1.327 . S
C507 H493 0.931 . S
C507 C509 1.392 . S
C507 C510 1.370 . S
C508 C504 1.432 . S
C508 N506 1.359 . S
C508 C511 1.414 . S
C509 H491 0.930 . S
C509 N506 1.327 . S
C509 C507 1.392 . S
C510 H505 0.930 . S
C510 C507 1.370 . S
C510 C511 1.385 . S
C511 C508 1.414 . S
C511 C510 1.385 . S
C511 C533 1.444 . S
O512 Tb468 2.546 . S
O512 C532 1.251 . S
O513 Tb468 2.610 . S
O513 Tb479 2.362 . S
O513 C524 1.283 . S
O514 Tb479 2.421 . S
O514 C531 1.262 . S
O515 Tb468 2.320 . S
O515 C531 1.260 . S
O516 Tb468 2.552 . S
O516 C524 1.243 . S
O517 Tb468 2.413 . S
O517 C532 1.256 . S
O518 Tb479 2.546 . S
O518 C543 1.251 . S
O519 Tb468 2.362 . S
O519 Tb479 2.610 . S
O519 C535 1.283 . S
O520 Tb468 2.421 . S
O520 C542 1.262 . S
O521 Tb479 2.320 . S
O521 C542 1.260 . S
O522 Tb479 2.552 . S
O522 C535 1.243 . S
O523 Tb479 2.413 . S
O523 C543 1.256 . S
C524 O513 1.283 . S
C524 O516 1.243 . S
C525 C527 1.382 . S
C525 C529 1.393 . S
C525 C532 1.500 . S
C526 C527 1.400 . S
C526 C528 1.384 . S
C527 C525 1.382 . S
C527 C526 1.400 . S
C527 H544 0.930 . S
C528 C526 1.384 . S
C528 C530 1.392 . S
C528 H545 0.931 . S
C529 C525 1.393 . S
C529 C530 1.401 . S
C529 H546 0.930 . S
C530 C528 1.392 . S
C530 C529 1.401 . S
C530 H547 0.930 . S
C531 O514 1.262 . S
C531 O515 1.260 . S
C532 Tb468 2.833 . S
C532 O512 1.251 . S
C532 O517 1.256 . S
C532 C525 1.500 . S
C533 H498 0.929 . S
C533 C511 1.444 . S
C533 C534 1.317 . S
C534 H496 0.930 . S
C534 C502 1.432 . S
C534 C533 1.317 . S
C535 O519 1.283 . S
C535 O522 1.243 . S
C536 C537 1.382 . S
C536 C540 1.393 . S
C536 C543 1.500 . S
C537 C536 1.382 . S
C537 C538 1.400 . S
C537 H548 0.930 . S
C538 C537 1.400 . S
C538 C539 1.384 . S
C539 C538 1.384 . S
C539 C541 1.392 . S
C539 H549 0.931 . S
C540 C536 1.393 . S
C540 C541 1.401 . S
C540 H550 0.930 . S
C541 C539 1.392 . S
C541 C540 1.401 . S
C541 H551 0.930 . S
C542 O520 1.262 . S
C542 O521 1.260 . S
C543 Tb479 2.833 . S
C543 O518 1.251 . S
C543 O523 1.256 . S
C543 C536 1.500 . S
H544 C527 0.930 . S
H545 C528 0.931 . S
H546 C529 0.930 . S
H547 C530 0.930 . S
H548 C537 0.930 . S
H549 C539 0.931 . S
H550 C540 0.930 . S
H551 C541 0.930 . S
Tb552 N583 2.660 . S
Tb552 N590 2.600 . S
Tb552 O596 2.546 . S
Tb552 O597 2.610 . S
Tb552 O599 2.320 . S
Tb552 O600 2.552 . S
Tb552 O601 2.413 . S
Tb552 O603 2.362 . S
Tb552 O604 2.421 . S
Tb552 C616 2.833 . S
C553 C556 1.432 . S
C553 C557 1.414 . S
C553 N560 1.359 . S
C554 C556 1.417 . S
C554 C558 1.432 . S
C554 C566 1.410 . S
C555 C557 1.444 . S
C555 C558 1.317 . S
C555 H578 0.929 . S
C556 C553 1.432 . S
C556 C554 1.417 . S
C556 N564 1.360 . S
C557 C553 1.414 . S
C557 C555 1.444 . S
C557 C562 1.385 . S
C558 C554 1.432 . S
C558 C555 1.317 . S
C558 H570 0.930 . S
C559 C561 1.392 . S
C559 C562 1.370 . S
C559 H571 0.931 . S
N560 C553 1.359 . S
N560 C561 1.327 . S
N560 Tb563 2.600 . S
C561 C559 1.392 . S
C561 N560 1.327 . S
C561 H568 0.930 . S
C562 C557 1.385 . S
C562 C559 1.370 . S
C562 H581 0.930 . S
Tb563 N560 2.600 . S
Tb563 N564 2.660 . S
Tb563 O597 2.362 . S
Tb563 O598 2.421 . S
Tb563 O602 2.546 . S
Tb563 O603 2.610 . S
Tb563 O605 2.320 . S
Tb563 O606 2.552 . S
Tb563 O607 2.413 . S
Tb563 C627 2.833 . S
N564 C556 1.360 . S
N564 Tb563 2.660 . S
N564 C565 1.305 . S
C565 N564 1.305 . S
C565 C567 1.407 . S
C565 H572 0.930 . S
C566 C554 1.410 . S
C566 C567 1.345 . S
C566 H574 0.930 . S
C567 C565 1.407 . S
C567 C566 1.345 . S
C567 H569 0.930 . S
H568 C561 0.930 . S
H569 C567 0.930 . S
H570 C558 0.930 . S
H571 C559 0.931 . S
H572 C565 0.930 . S
H573 C587 0.930 . S
H574 C566 0.930 . S
H575 C593 0.930 . S
H576 C584 0.930 . S
H577 C591 0.931 . S
H578 C555 0.929 . S
H579 C585 0.930 . S
H580 C618 0.930 . S
H581 C562 0.930 . S
H582 C617 0.929 . S
N583 Tb552 2.660 . S
N583 C584 1.305 . S
N583 C588 1.360 . S
C584 H576 0.930 . S
C584 N583 1.305 . S
C584 C587 1.407 . S
C585 H579 0.930 . S
C585 C586 1.410 . S
C585 C587 1.345 . S
C586 C585 1.410 . S
C586 C588 1.417 . S
C586 C618 1.432 . S
C587 H573 0.930 . S
C587 C584 1.407 . S
C587 C585 1.345 . S
C588 N583 1.360 . S
C588 C586 1.417 . S
C588 C592 1.432 . S
H589 C594 0.930 . S
N590 Tb552 2.600 . S
N590 C592 1.359 . S
N590 C593 1.327 . S
C591 H577 0.931 . S
C591 C593 1.392 . S
C591 C594 1.370 . S
C592 C588 1.432 . S
C592 N590 1.359 . S
C592 C595 1.414 . S
C593 H575 0.930 . S
C593 N590 1.327 . S
C593 C591 1.392 . S
C594 H589 0.930 . S
C594 C591 1.370 . S
C594 C595 1.385 . S
C595 C592 1.414 . S
C595 C594 1.385 . S
C595 C617 1.444 . S
O596 Tb552 2.546 . S
O596 C616 1.251 . S
O597 Tb552 2.610 . S
O597 Tb563 2.362 . S
O597 C608 1.283 . S
O598 Tb563 2.421 . S
O598 C615 1.262 . S
O599 Tb552 2.320 . S
O599 C615 1.260 . S
O600 Tb552 2.552 . S
O600 C608 1.243 . S
O601 Tb552 2.413 . S
O601 C616 1.256 . S
O602 Tb563 2.546 . S
O602 C627 1.251 . S
O603 Tb552 2.362 . S
O603 Tb563 2.610 . S
O603 C619 1.283 . S
O604 Tb552 2.421 . S
O604 C626 1.262 . S
O605 Tb563 2.320 . S
O605 C626 1.260 . S
O606 Tb563 2.552 . S
O606 C619 1.243 . S
O607 Tb563 2.413 . S
O607 C627 1.256 . S
C608 O597 1.283 . S
C608 O600 1.243 . S
C609 C611 1.382 . S
C609 C613 1.393 . S
C609 C616 1.500 . S
C610 C611 1.400 . S
C610 C612 1.384 . S
C611 C609 1.382 . S
C611 C610 1.400 . S
C611 H628 0.930 . S
C612 C610 1.384 . S
C612 C614 1.392 . S
C612 H629 0.931 . S
C613 C609 1.393 . S
C613 C614 1.401 . S
C613 H630 0.930 . S
C614 C612 1.392 . S
C614 C613 1.401 . S
C614 H631 0.930 . S
C615 O598 1.262 . S
C615 O599 1.260 . S
C616 Tb552 2.833 . S
C616 O596 1.251 . S
C616 O601 1.256 . S
C616 C609 1.500 . S
C617 H582 0.929 . S
C617 C595 1.444 . S
C617 C618 1.317 . S
C618 H580 0.930 . S
C618 C586 1.432 . S
C618 C617 1.317 . S
C619 O603 1.283 . S
C619 O606 1.243 . S
C620 C621 1.382 . S
C620 C624 1.393 . S
C620 C627 1.500 . S
C621 C620 1.382 . S
C621 C622 1.400 . S
C621 H632 0.930 . S
C622 C621 1.400 . S
C622 C623 1.384 . S
C623 C622 1.384 . S
C623 C625 1.392 . S
C623 H633 0.931 . S
C624 C620 1.393 . S
C624 C625 1.401 . S
C624 H634 0.930 . S
C625 C623 1.392 . S
C625 C624 1.401 . S
C625 H635 0.930 . S
C626 O604 1.262 . S
C626 O605 1.260 . S
C627 Tb563 2.833 . S
C627 O602 1.251 . S
C627 O607 1.256 . S
C627 C620 1.500 . S
H628 C611 0.930 . S
H629 C612 0.931 . S
H630 C613 0.930 . S
H631 C614 0.930 . S
H632 C621 0.930 . S
H633 C623 0.931 . S
H634 C624 0.930 . S
H635 C625 0.930 . S
Tb636 N667 2.660 . S
Tb636 N674 2.600 . S
Tb636 O680 2.546 . S
Tb636 O681 2.610 . S
Tb636 O683 2.320 . S
Tb636 O684 2.552 . S
Tb636 O685 2.413 . S
Tb636 O687 2.362 . S
Tb636 O688 2.421 . S
Tb636 C700 2.833 . S
C637 C640 1.432 . S
C637 C641 1.414 . S
C637 N644 1.359 . S
C638 C640 1.417 . S
C638 C642 1.432 . S
C638 C650 1.410 . S
C639 C641 1.444 . S
C639 C642 1.317 . S
C639 H662 0.929 . S
C640 C637 1.432 . S
C640 C638 1.417 . S
C640 N648 1.360 . S
C641 C637 1.414 . S
C641 C639 1.444 . S
C641 C646 1.385 . S
C642 C638 1.432 . S
C642 C639 1.317 . S
C642 H654 0.930 . S
C643 C645 1.392 . S
C643 C646 1.370 . S
C643 H655 0.931 . S
N644 C637 1.359 . S
N644 C645 1.327 . S
N644 Tb647 2.600 . S
C645 C643 1.392 . S
C645 N644 1.327 . S
C645 H652 0.930 . S
C646 C641 1.385 . S
C646 C643 1.370 . S
C646 H665 0.930 . S
Tb647 N644 2.600 . S
Tb647 N648 2.660 . S
Tb647 O681 2.362 . S
Tb647 O682 2.421 . S
Tb647 O686 2.546 . S
Tb647 O687 2.610 . S
Tb647 O689 2.320 . S
Tb647 O690 2.552 . S
Tb647 O691 2.413 . S
Tb647 C711 2.833 . S
N648 C640 1.360 . S
N648 Tb647 2.660 . S
N648 C649 1.305 . S
C649 N648 1.305 . S
C649 C651 1.407 . S
C649 H656 0.930 . S
C650 C638 1.410 . S
C650 C651 1.345 . S
C650 H658 0.930 . S
C651 C649 1.407 . S
C651 C650 1.345 . S
C651 H653 0.930 . S
H652 C645 0.930 . S
H653 C651 0.930 . S
H654 C642 0.930 . S
H655 C643 0.931 . S
H656 C649 0.930 . S
H657 C671 0.930 . S
H658 C650 0.930 . S
H659 C677 0.930 . S
H660 C668 0.930 . S
H661 C675 0.931 . S
H662 C639 0.929 . S
H663 C669 0.930 . S
H664 C702 0.930 . S
H665 C646 0.930 . S
H666 C701 0.929 . S
N667 Tb636 2.660 . S
N667 C668 1.305 . S
N667 C672 1.360 . S
C668 H660 0.930 . S
C668 N667 1.305 . S
C668 C671 1.407 . S
C669 H663 0.930 . S
C669 C670 1.410 . S
C669 C671 1.345 . S
C670 C669 1.410 . S
C670 C672 1.417 . S
C670 C702 1.432 . S
C671 H657 0.930 . S
C671 C668 1.407 . S
C671 C669 1.345 . S
C672 N667 1.360 . S
C672 C670 1.417 . S
C672 C676 1.432 . S
H673 C678 0.930 . S
N674 Tb636 2.600 . S
N674 C676 1.359 . S
N674 C677 1.327 . S
C675 H661 0.931 . S
C675 C677 1.392 . S
C675 C678 1.370 . S
C676 C672 1.432 . S
C676 N674 1.359 . S
C676 C679 1.414 . S
C677 H659 0.930 . S
C677 N674 1.327 . S
C677 C675 1.392 . S
C678 H673 0.930 . S
C678 C675 1.370 . S
C678 C679 1.385 . S
C679 C676 1.414 . S
C679 C678 1.385 . S
C679 C701 1.444 . S
O680 Tb636 2.546 . S
O680 C700 1.251 . S
O681 Tb636 2.610 . S
O681 Tb647 2.362 . S
O681 C692 1.283 . S
O682 Tb647 2.421 . S
O682 C699 1.262 . S
O683 Tb636 2.320 . S
O683 C699 1.260 . S
O684 Tb636 2.552 . S
O684 C692 1.243 . S
O685 Tb636 2.413 . S
O685 C700 1.256 . S
O686 Tb647 2.546 . S
O686 C711 1.251 . S
O687 Tb636 2.362 . S
O687 Tb647 2.610 . S
O687 C703 1.283 . S
O688 Tb636 2.421 . S
O688 C710 1.262 . S
O689 Tb647 2.320 . S
O689 C710 1.260 . S
O690 Tb647 2.552 . S
O690 C703 1.243 . S
O691 Tb647 2.413 . S
O691 C711 1.256 . S
C692 O681 1.283 . S
C692 O684 1.243 . S
C693 C695 1.382 . S
C693 C697 1.393 . S
C693 C700 1.500 . S
C694 C695 1.400 . S
C694 C696 1.384 . S
C695 C693 1.382 . S
C695 C694 1.400 . S
C695 H712 0.930 . S
C696 C694 1.384 . S
C696 C698 1.392 . S
C696 H713 0.931 . S
C697 C693 1.393 . S
C697 C698 1.401 . S
C697 H714 0.930 . S
C698 C696 1.392 . S
C698 C697 1.401 . S
C698 H715 0.930 . S
C699 O682 1.262 . S
C699 O683 1.260 . S
C700 Tb636 2.833 . S
C700 O680 1.251 . S
C700 O685 1.256 . S
C700 C693 1.500 . S
C701 H666 0.929 . S
C701 C679 1.444 . S
C701 C702 1.317 . S
C702 H664 0.930 . S
C702 C670 1.432 . S
C702 C701 1.317 . S
C703 O687 1.283 . S
C703 O690 1.243 . S
C704 C705 1.382 . S
C704 C708 1.393 . S
C704 C711 1.500 . S
C705 C704 1.382 . S
C705 C706 1.400 . S
C705 H716 0.930 . S
C706 C705 1.400 . S
C706 C707 1.384 . S
C707 C706 1.384 . S
C707 C709 1.392 . S
C707 H717 0.931 . S
C708 C704 1.393 . S
C708 C709 1.401 . S
C708 H718 0.930 . S
C709 C707 1.392 . S
C709 C708 1.401 . S
C709 H719 0.930 . S
C710 O688 1.262 . S
C710 O689 1.260 . S
C711 Tb647 2.833 . S
C711 O686 1.251 . S
C711 O691 1.256 . S
C711 C704 1.500 . S
H712 C695 0.930 . S
H713 C696 0.931 . S
H714 C697 0.930 . S
H715 C698 0.930 . S
H716 C705 0.930 . S
H717 C707 0.931 . S
H718 C708 0.930 . S
H719 C709 0.930 . S
Tb720 N751 2.660 . S
Tb720 N758 2.600 . S
Tb720 O764 2.546 . S
Tb720 O765 2.610 . S
Tb720 O767 2.320 . S
Tb720 O768 2.552 . S
Tb720 O769 2.413 . S
Tb720 O771 2.362 . S
Tb720 O772 2.421 . S
Tb720 C784 2.833 . S
C721 C724 1.432 . S
C721 C725 1.414 . S
C721 N728 1.359 . S
C722 C724 1.417 . S
C722 C726 1.432 . S
C722 C734 1.410 . S
C723 C725 1.444 . S
C723 C726 1.317 . S
C723 H746 0.929 . S
C724 C721 1.432 . S
C724 C722 1.417 . S
C724 N732 1.360 . S
C725 C721 1.414 . S
C725 C723 1.444 . S
C725 C730 1.385 . S
C726 C722 1.432 . S
C726 C723 1.317 . S
C726 H738 0.930 . S
C727 C729 1.392 . S
C727 C730 1.370 . S
C727 H739 0.931 . S
N728 C721 1.359 . S
N728 C729 1.327 . S
N728 Tb731 2.600 . S
C729 C727 1.392 . S
C729 N728 1.327 . S
C729 H736 0.930 . S
C730 C725 1.385 . S
C730 C727 1.370 . S
C730 H749 0.930 . S
Tb731 N728 2.600 . S
Tb731 N732 2.660 . S
Tb731 O765 2.362 . S
Tb731 O766 2.421 . S
Tb731 O770 2.546 . S
Tb731 O771 2.610 . S
Tb731 O773 2.320 . S
Tb731 O774 2.552 . S
Tb731 O775 2.413 . S
Tb731 C795 2.833 . S
N732 C724 1.360 . S
N732 Tb731 2.660 . S
N732 C733 1.305 . S
C733 N732 1.305 . S
C733 C735 1.407 . S
C733 H740 0.930 . S
C734 C722 1.410 . S
C734 C735 1.345 . S
C734 H742 0.930 . S
C735 C733 1.407 . S
C735 C734 1.345 . S
C735 H737 0.930 . S
H736 C729 0.930 . S
H737 C735 0.930 . S
H738 C726 0.930 . S
H739 C727 0.931 . S
H740 C733 0.930 . S
H741 C755 0.930 . S
H742 C734 0.930 . S
H743 C761 0.930 . S
H744 C752 0.930 . S
H745 C759 0.931 . S
H746 C723 0.929 . S
H747 C753 0.930 . S
H748 C786 0.930 . S
H749 C730 0.930 . S
H750 C785 0.929 . S
N751 Tb720 2.660 . S
N751 C752 1.305 . S
N751 C756 1.360 . S
C752 H744 0.930 . S
C752 N751 1.305 . S
C752 C755 1.407 . S
C753 H747 0.930 . S
C753 C754 1.410 . S
C753 C755 1.345 . S
C754 C753 1.410 . S
C754 C756 1.417 . S
C754 C786 1.432 . S
C755 H741 0.930 . S
C755 C752 1.407 . S
C755 C753 1.345 . S
C756 N751 1.360 . S
C756 C754 1.417 . S
C756 C760 1.432 . S
H757 C762 0.930 . S
N758 Tb720 2.600 . S
N758 C760 1.359 . S
N758 C761 1.327 . S
C759 H745 0.931 . S
C759 C761 1.392 . S
C759 C762 1.370 . S
C760 C756 1.432 . S
C760 N758 1.359 . S
C760 C763 1.414 . S
C761 H743 0.930 . S
C761 N758 1.327 . S
C761 C759 1.392 . S
C762 H757 0.930 . S
C762 C759 1.370 . S
C762 C763 1.385 . S
C763 C760 1.414 . S
C763 C762 1.385 . S
C763 C785 1.444 . S
O764 Tb720 2.546 . S
O764 C784 1.251 . S
O765 Tb720 2.610 . S
O765 Tb731 2.362 . S
O765 C776 1.283 . S
O766 Tb731 2.421 . S
O766 C783 1.262 . S
O767 Tb720 2.320 . S
O767 C783 1.260 . S
O768 Tb720 2.552 . S
O768 C776 1.243 . S
O769 Tb720 2.413 . S
O769 C784 1.256 . S
O770 Tb731 2.546 . S
O770 C795 1.251 . S
O771 Tb720 2.362 . S
O771 Tb731 2.610 . S
O771 C787 1.283 . S
O772 Tb720 2.421 . S
O772 C794 1.262 . S
O773 Tb731 2.320 . S
O773 C794 1.260 . S
O774 Tb731 2.552 . S
O774 C787 1.243 . S
O775 Tb731 2.413 . S
O775 C795 1.256 . S
C776 O765 1.283 . S
C776 O768 1.243 . S
C777 C779 1.382 . S
C777 C781 1.393 . S
C777 C784 1.500 . S
C778 C779 1.400 . S
C778 C780 1.384 . S
C779 C777 1.382 . S
C779 C778 1.400 . S
C779 H796 0.930 . S
C780 C778 1.384 . S
C780 C782 1.392 . S
C780 H797 0.931 . S
C781 C777 1.393 . S
C781 C782 1.401 . S
C781 H798 0.930 . S
C782 C780 1.392 . S
C782 C781 1.401 . S
C782 H799 0.930 . S
C783 O766 1.262 . S
C783 O767 1.260 . S
C784 Tb720 2.833 . S
C784 O764 1.251 . S
C784 O769 1.256 . S
C784 C777 1.500 . S
C785 H750 0.929 . S
C785 C763 1.444 . S
C785 C786 1.317 . S
C786 H748 0.930 . S
C786 C754 1.432 . S
C786 C785 1.317 . S
C787 O771 1.283 . S
C787 O774 1.243 . S
C788 C789 1.382 . S
C788 C792 1.393 . S
C788 C795 1.500 . S
C789 C788 1.382 . S
C789 C790 1.400 . S
C789 H800 0.930 . S
C790 C789 1.400 . S
C790 C791 1.384 . S
C791 C790 1.384 . S
C791 C793 1.392 . S
C791 H801 0.931 . S
C792 C788 1.393 . S
C792 C793 1.401 . S
C792 H802 0.930 . S
C793 C791 1.392 . S
C793 C792 1.401 . S
C793 H803 0.930 . S
C794 O772 1.262 . S
C794 O773 1.260 . S
C795 Tb731 2.833 . S
C795 O770 1.251 . S
C795 O775 1.256 . S
C795 C788 1.500 . S
H796 C779 0.930 . S
H797 C780 0.931 . S
H798 C781 0.930 . S
H799 C782 0.930 . S
H800 C789 0.930 . S
H801 C791 0.931 . S
H802 C792 0.930 . S
H803 C793 0.930 . S
Tb804 N835 2.660 . S
Tb804 N842 2.600 . S
Tb804 O848 2.546 . S
Tb804 O849 2.610 . S
Tb804 O851 2.320 . S
Tb804 O852 2.552 . S
Tb804 O853 2.413 . S
Tb804 O855 2.362 . S
Tb804 O856 2.421 . S
Tb804 C868 2.833 . S
C805 C808 1.432 . S
C805 C809 1.414 . S
C805 N812 1.359 . S
C806 C808 1.417 . S
C806 C810 1.432 . S
C806 C818 1.410 . S
C807 C809 1.444 . S
C807 C810 1.317 . S
C807 H830 0.929 . S
C808 C805 1.432 . S
C808 C806 1.417 . S
C808 N816 1.360 . S
C809 C805 1.414 . S
C809 C807 1.444 . S
C809 C814 1.385 . S
C810 C806 1.432 . S
C810 C807 1.317 . S
C810 H822 0.930 . S
C811 C813 1.392 . S
C811 C814 1.370 . S
C811 H823 0.931 . S
N812 C805 1.359 . S
N812 C813 1.327 . S
N812 Tb815 2.600 . S
C813 C811 1.392 . S
C813 N812 1.327 . S
C813 H820 0.930 . S
C814 C809 1.385 . S
C814 C811 1.370 . S
C814 H833 0.930 . S
Tb815 N812 2.600 . S
Tb815 N816 2.660 . S
Tb815 O849 2.362 . S
Tb815 O850 2.421 . S
Tb815 O854 2.546 . S
Tb815 O855 2.610 . S
Tb815 O857 2.320 . S
Tb815 O858 2.552 . S
Tb815 O859 2.413 . S
Tb815 C879 2.833 . S
N816 C808 1.360 . S
N816 Tb815 2.660 . S
N816 C817 1.305 . S
C817 N816 1.305 . S
C817 C819 1.407 . S
C817 H824 0.930 . S
C818 C806 1.410 . S
C818 C819 1.345 . S
C818 H826 0.930 . S
C819 C817 1.407 . S
C819 C818 1.345 . S
C819 H821 0.930 . S
H820 C813 0.930 . S
H821 C819 0.930 . S
H822 C810 0.930 . S
H823 C811 0.931 . S
H824 C817 0.930 . S
H825 C839 0.930 . S
H826 C818 0.930 . S
H827 C845 0.930 . S
H828 C836 0.930 . S
H829 C843 0.931 . S
H830 C807 0.929 . S
H831 C837 0.930 . S
H832 C870 0.930 . S
H833 C814 0.930 . S
H834 C869 0.929 . S
N835 Tb804 2.660 . S
N835 C836 1.305 . S
N835 C840 1.360 . S
C836 H828 0.930 . S
C836 N835 1.305 . S
C836 C839 1.407 . S
C837 H831 0.930 . S
C837 C838 1.410 . S
C837 C839 1.345 . S
C838 C837 1.410 . S
C838 C840 1.417 . S
C838 C870 1.432 . S
C839 H825 0.930 . S
C839 C836 1.407 . S
C839 C837 1.345 . S
C840 N835 1.360 . S
C840 C838 1.417 . S
C840 C844 1.432 . S
H841 C846 0.930 . S
N842 Tb804 2.600 . S
N842 C844 1.359 . S
N842 C845 1.327 . S
C843 H829 0.931 . S
C843 C845 1.392 . S
C843 C846 1.370 . S
C844 C840 1.432 . S
C844 N842 1.359 . S
C844 C847 1.414 . S
C845 H827 0.930 . S
C845 N842 1.327 . S
C845 C843 1.392 . S
C846 H841 0.930 . S
C846 C843 1.370 . S
C846 C847 1.385 . S
C847 C844 1.414 . S
C847 C846 1.385 . S
C847 C869 1.444 . S
O848 Tb804 2.546 . S
O848 C868 1.251 . S
O849 Tb804 2.610 . S
O849 Tb815 2.362 . S
O849 C860 1.283 . S
O850 Tb815 2.421 . S
O850 C867 1.262 . S
O851 Tb804 2.320 . S
O851 C867 1.260 . S
O852 Tb804 2.552 . S
O852 C860 1.243 . S
O853 Tb804 2.413 . S
O853 C868 1.256 . S
O854 Tb815 2.546 . S
O854 C879 1.251 . S
O855 Tb804 2.362 . S
O855 Tb815 2.610 . S
O855 C871 1.283 . S
O856 Tb804 2.421 . S
O856 C878 1.262 . S
O857 Tb815 2.320 . S
O857 C878 1.260 . S
O858 Tb815 2.552 . S
O858 C871 1.243 . S
O859 Tb815 2.413 . S
O859 C879 1.256 . S
C860 O849 1.283 . S
C860 O852 1.243 . S
C861 C863 1.382 . S
C861 C865 1.393 . S
C861 C868 1.500 . S
C862 C863 1.400 . S
C862 C864 1.384 . S
C863 C861 1.382 . S
C863 C862 1.400 . S
C863 H880 0.930 . S
C864 C862 1.384 . S
C864 C866 1.392 . S
C864 H881 0.931 . S
C865 C861 1.393 . S
C865 C866 1.401 . S
C865 H882 0.930 . S
C866 C864 1.392 . S
C866 C865 1.401 . S
C866 H883 0.930 . S
C867 O850 1.262 . S
C867 O851 1.260 . S
C868 Tb804 2.833 . S
C868 O848 1.251 . S
C868 O853 1.256 . S
C868 C861 1.500 . S
C869 H834 0.929 . S
C869 C847 1.444 . S
C869 C870 1.317 . S
C870 H832 0.930 . S
C870 C838 1.432 . S
C870 C869 1.317 . S
C871 O855 1.283 . S
C871 O858 1.243 . S
C872 C873 1.382 . S
C872 C876 1.393 . S
C872 C879 1.500 . S
C873 C872 1.382 . S
C873 C874 1.400 . S
C873 H884 0.930 . S
C874 C873 1.400 . S
C874 C875 1.384 . S
C875 C874 1.384 . S
C875 C877 1.392 . S
C875 H885 0.931 . S
C876 C872 1.393 . S
C876 C877 1.401 . S
C876 H886 0.930 . S
C877 C875 1.392 . S
C877 C876 1.401 . S
C877 H887 0.930 . S
C878 O856 1.262 . S
C878 O857 1.260 . S
C879 Tb815 2.833 . S
C879 O854 1.251 . S
C879 O859 1.256 . S
C879 C872 1.500 . S
H880 C863 0.930 . S
H881 C864 0.931 . S
H882 C865 0.930 . S
H883 C866 0.930 . S
H884 C873 0.930 . S
H885 C875 0.931 . S
H886 C876 0.930 . S
H887 C877 0.930 . S
Tb888 N919 2.660 . S
Tb888 N926 2.600 . S
Tb888 O932 2.546 . S
Tb888 O933 2.610 . S
Tb888 O935 2.320 . S
Tb888 O936 2.552 . S
Tb888 O937 2.413 . S
Tb888 O939 2.362 . S
Tb888 O940 2.421 . S
Tb888 C952 2.833 . S
C889 C892 1.432 . S
C889 C893 1.414 . S
C889 N896 1.359 . S
C890 C892 1.417 . S
C890 C894 1.432 . S
C890 C902 1.410 . S
C891 C893 1.444 . S
C891 C894 1.317 . S
C891 H914 0.929 . S
C892 C889 1.432 . S
C892 C890 1.417 . S
C892 N900 1.360 . S
C893 C889 1.414 . S
C893 C891 1.444 . S
C893 C898 1.385 . S
C894 C890 1.432 . S
C894 C891 1.317 . S
C894 H906 0.930 . S
C895 C897 1.392 . S
C895 C898 1.370 . S
C895 H907 0.931 . S
N896 C889 1.359 . S
N896 C897 1.327 . S
N896 Tb899 2.600 . S
C897 C895 1.392 . S
C897 N896 1.327 . S
C897 H904 0.930 . S
C898 C893 1.385 . S
C898 C895 1.370 . S
C898 H917 0.930 . S
Tb899 N896 2.600 . S
Tb899 N900 2.660 . S
Tb899 O933 2.362 . S
Tb899 O934 2.421 . S
Tb899 O938 2.546 . S
Tb899 O939 2.610 . S
Tb899 O941 2.320 . S
Tb899 O942 2.552 . S
Tb899 O943 2.413 . S
Tb899 C963 2.833 . S
N900 C892 1.360 . S
N900 Tb899 2.660 . S
N900 C901 1.305 . S
C901 N900 1.305 . S
C901 C903 1.407 . S
C901 H908 0.930 . S
C902 C890 1.410 . S
C902 C903 1.345 . S
C902 H910 0.930 . S
C903 C901 1.407 . S
C903 C902 1.345 . S
C903 H905 0.930 . S
H904 C897 0.930 . S
H905 C903 0.930 . S
H906 C894 0.930 . S
H907 C895 0.931 . S
H908 C901 0.930 . S
H909 C923 0.930 . S
H910 C902 0.930 . S
H911 C929 0.930 . S
H912 C920 0.930 . S
H913 C927 0.931 . S
H914 C891 0.929 . S
H915 C921 0.930 . S
H916 C954 0.930 . S
H917 C898 0.930 . S
H918 C953 0.929 . S
N919 Tb888 2.660 . S
N919 C920 1.305 . S
N919 C924 1.360 . S
C920 H912 0.930 . S
C920 N919 1.305 . S
C920 C923 1.407 . S
C921 H915 0.930 . S
C921 C922 1.410 . S
C921 C923 1.345 . S
C922 C921 1.410 . S
C922 C924 1.417 . S
C922 C954 1.432 . S
C923 H909 0.930 . S
C923 C920 1.407 . S
C923 C921 1.345 . S
C924 N919 1.360 . S
C924 C922 1.417 . S
C924 C928 1.432 . S
H925 C930 0.930 . S
N926 Tb888 2.600 . S
N926 C928 1.359 . S
N926 C929 1.327 . S
C927 H913 0.931 . S
C927 C929 1.392 . S
C927 C930 1.370 . S
C928 C924 1.432 . S
C928 N926 1.359 . S
C928 C931 1.414 . S
C929 H911 0.930 . S
C929 N926 1.327 . S
C929 C927 1.392 . S
C930 H925 0.930 . S
C930 C927 1.370 . S
C930 C931 1.385 . S
C931 C928 1.414 . S
C931 C930 1.385 . S
C931 C953 1.444 . S
O932 Tb888 2.546 . S
O932 C952 1.251 . S
O933 Tb888 2.610 . S
O933 Tb899 2.362 . S
O933 C944 1.283 . S
O934 Tb899 2.421 . S
O934 C951 1.262 . S
O935 Tb888 2.320 . S
O935 C951 1.260 . S
O936 Tb888 2.552 . S
O936 C944 1.243 . S
O937 Tb888 2.413 . S
O937 C952 1.256 . S
O938 Tb899 2.546 . S
O938 C963 1.251 . S
O939 Tb888 2.362 . S
O939 Tb899 2.610 . S
O939 C955 1.283 . S
O940 Tb888 2.421 . S
O940 C962 1.262 . S
O941 Tb899 2.320 . S
O941 C962 1.260 . S
O942 Tb899 2.552 . S
O942 C955 1.243 . S
O943 Tb899 2.413 . S
O943 C963 1.256 . S
C944 O933 1.283 . S
C944 O936 1.243 . S
C945 C947 1.382 . S
C945 C949 1.393 . S
C945 C952 1.500 . S
C946 C947 1.400 . S
C946 C948 1.384 . S
C947 C945 1.382 . S
C947 C946 1.400 . S
C947 H964 0.930 . S
C948 C946 1.384 . S
C948 C950 1.392 . S
C948 H965 0.931 . S
C949 C945 1.393 . S
C949 C950 1.401 . S
C949 H966 0.930 . S
C950 C948 1.392 . S
C950 C949 1.401 . S
C950 H967 0.930 . S
C951 O934 1.262 . S
C951 O935 1.260 . S
C952 Tb888 2.833 . S
C952 O932 1.251 . S
C952 O937 1.256 . S
C952 C945 1.500 . S
C953 H918 0.929 . S
C953 C931 1.444 . S
C953 C954 1.317 . S
C954 H916 0.930 . S
C954 C922 1.432 . S
C954 C953 1.317 . S
C955 O939 1.283 . S
C955 O942 1.243 . S
C956 C957 1.382 . S
C956 C960 1.393 . S
C956 C963 1.500 . S
C957 C956 1.382 . S
C957 C958 1.400 . S
C957 H968 0.930 . S
C958 C957 1.400 . S
C958 C959 1.384 . S
C959 C958 1.384 . S
C959 C961 1.392 . S
C959 H969 0.931 . S
C960 C956 1.393 . S
C960 C961 1.401 . S
C960 H970 0.930 . S
C961 C959 1.392 . S
C961 C960 1.401 . S
C961 H971 0.930 . S
C962 O940 1.262 . S
C962 O941 1.260 . S
C963 Tb899 2.833 . S
C963 O938 1.251 . S
C963 O943 1.256 . S
C963 C956 1.500 . S
H964 C947 0.930 . S
H965 C948 0.931 . S
H966 C949 0.930 . S
H967 C950 0.930 . S
H968 C957 0.930 . S
H969 C959 0.931 . S
H970 C960 0.930 . S
H971 C961 0.930 . S
H972 C980 0.929 . S
H973 C982 0.930 . S
H974 C984 0.930 . S
H975 C987 0.929 . S
H976 C990 0.930 . S
H977 C992 0.960 . S
H978 C992 0.960 . S
H979 C992 0.960 . S
C980 H972 0.929 . S
C980 C981 1.377 . S
C980 C982 1.384 . S
C981 C980 1.377 . S
C981 C987 1.390 . S
C982 H973 0.930 . S
C982 C980 1.384 . S
C982 C983 1.372 . S
C983 C982 1.372 . S
C983 C984 1.400 . S
C983 C988 1.490 . S
C984 H974 0.930 . S
C984 C983 1.400 . S
C984 C987 1.386 . S
H985 C1001 0.930 . S
H986 C1002 0.931 . S
C987 H975 0.929 . S
C987 C981 1.390 . S
C987 C984 1.386 . S
C988 C983 1.490 . S
C988 C990 1.395 . S
C988 C991 1.403 . S
H989 C995 0.930 . S
C990 H976 0.930 . S
C990 C988 1.395 . S
C990 C993 1.403 . S
C991 C988 1.403 . S
C991 C992 1.524 . S
C991 C995 1.400 . S
C992 H977 0.960 . S
C992 H978 0.960 . S
C992 H979 0.960 . S
C992 C991 1.524 . S
C993 C990 1.403 . S
C993 C994 1.392 . S
C993 C997 1.495 . S
C994 C993 1.392 . S
C994 C995 1.385 . S
C994 C996 1.478 . S
C995 H989 0.930 . S
C995 C991 1.400 . S
C995 C994 1.385 . S
C996 C994 1.478 . S
C996 C998 1.381 . S
C996 C1002 1.383 . S
C997 C993 1.495 . S
C997 H1003 0.959 . S
C997 H1004 0.961 . S
C997 H1005 0.960 . S
C998 C996 1.381 . S
C998 C999 1.394 . S
C998 H1006 0.930 . S
C999 C998 1.394 . S
C999 C1000 1.383 . S
C999 H1007 0.929 . S
C1000 C999 1.383 . S
C1000 C1001 1.377 . S
C1001 H985 0.930 . S
C1001 C1000 1.377 . S
C1001 C1002 1.379 . S
C1002 H986 0.931 . S
C1002 C996 1.383 . S
C1002 C1001 1.379 . S
H1003 C997 0.959 . S
H1004 C997 0.961 . S
H1005 C997 0.960 . S
H1006 C998 0.930 . S
H1007 C999 0.929 . S
H1008 C1016 0.929 . S
H1009 C1018 0.930 . S
H1010 C1020 0.930 . S
H1011 C1023 0.929 . S
H1012 C1026 0.930 . S
H1013 C1028 0.960 . S
H1014 C1028 0.960 . S
H1015 C1028 0.960 . S
C1016 H1008 0.929 . S
C1016 C1017 1.377 . S
C1016 C1018 1.384 . S
C1017 C1016 1.377 . S
C1017 C1023 1.390 . S
C1018 H1009 0.930 . S
C1018 C1016 1.384 . S
C1018 C1019 1.372 . S
C1019 C1018 1.372 . S
C1019 C1020 1.400 . S
C1019 C1024 1.490 . S
C1020 H1010 0.930 . S
C1020 C1019 1.400 . S
C1020 C1023 1.386 . S
H1021 C1037 0.930 . S
H1022 C1038 0.931 . S
C1023 H1011 0.929 . S
C1023 C1017 1.390 . S
C1023 C1020 1.386 . S
C1024 C1019 1.490 . S
C1024 C1026 1.395 . S
C1024 C1027 1.403 . S
H1025 C1031 0.930 . S
C1026 H1012 0.930 . S
C1026 C1024 1.395 . S
C1026 C1029 1.403 . S
C1027 C1024 1.403 . S
C1027 C1028 1.524 . S
C1027 C1031 1.400 . S
C1028 H1013 0.960 . S
C1028 H1014 0.960 . S
C1028 H1015 0.960 . S
C1028 C1027 1.524 . S
C1029 C1026 1.403 . S
C1029 C1030 1.392 . S
C1029 C1033 1.495 . S
C1030 C1029 1.392 . S
C1030 C1031 1.385 . S
C1030 C1032 1.478 . S
C1031 H1025 0.930 . S
C1031 C1027 1.400 . S
C1031 C1030 1.385 . S
C1032 C1030 1.478 . S
C1032 C1034 1.381 . S
C1032 C1038 1.383 . S
C1033 C1029 1.495 . S
C1033 H1039 0.959 . S
C1033 H1040 0.961 . S
C1033 H1041 0.960 . S
C1034 C1032 1.381 . S
C1034 C1035 1.394 . S
C1034 H1042 0.930 . S
C1035 C1034 1.394 . S
C1035 C1036 1.383 . S
C1035 H1043 0.929 . S
C1036 C1035 1.383 . S
C1036 C1037 1.377 . S
C1037 H1021 0.930 . S
C1037 C1036 1.377 . S
C1037 C1038 1.379 . S
C1038 H1022 0.931 . S
C1038 C1032 1.383 . S
C1038 C1037 1.379 . S
H1039 C1033 0.959 . S
H1040 C1033 0.961 . S
H1041 C1033 0.960 . S
H1042 C1034 0.930 . S
H1043 C1035 0.929 . S
H1044 C1052 0.929 . S
H1045 C1054 0.930 . S
H1046 C1056 0.930 . S
H1047 C1059 0.929 . S
H1048 C1062 0.930 . S
H1049 C1064 0.960 . S
H1050 C1064 0.960 . S
H1051 C1064 0.960 . S
C1052 H1044 0.929 . S
C1052 C1053 1.377 . S
C1052 C1054 1.384 . S
C1053 C1052 1.377 . S
C1053 C1059 1.390 . S
C1054 H1045 0.930 . S
C1054 C1052 1.384 . S
C1054 C1055 1.372 . S
C1055 C1054 1.372 . S
C1055 C1056 1.400 . S
C1055 C1060 1.490 . S
C1056 H1046 0.930 . S
C1056 C1055 1.400 . S
C1056 C1059 1.386 . S
H1057 C1073 0.930 . S
H1058 C1074 0.931 . S
C1059 H1047 0.929 . S
C1059 C1053 1.390 . S
C1059 C1056 1.386 . S
C1060 C1055 1.490 . S
C1060 C1062 1.395 . S
C1060 C1063 1.403 . S
H1061 C1067 0.930 . S
C1062 H1048 0.930 . S
C1062 C1060 1.395 . S
C1062 C1065 1.403 . S
C1063 C1060 1.403 . S
C1063 C1064 1.524 . S
C1063 C1067 1.400 . S
C1064 H1049 0.960 . S
C1064 H1050 0.960 . S
C1064 H1051 0.960 . S
C1064 C1063 1.524 . S
C1065 C1062 1.403 . S
C1065 C1066 1.392 . S
C1065 C1069 1.495 . S
C1066 C1065 1.392 . S
C1066 C1067 1.385 . S
C1066 C1068 1.478 . S
C1067 H1061 0.930 . S
C1067 C1063 1.400 . S
C1067 C1066 1.385 . S
C1068 C1066 1.478 . S
C1068 C1070 1.381 . S
C1068 C1074 1.383 . S
C1069 C1065 1.495 . S
C1069 H1075 0.959 . S
C1069 H1076 0.961 . S
C1069 H1077 0.960 . S
C1070 C1068 1.381 . S
C1070 C1071 1.394 . S
C1070 H1078 0.930 . S
C1071 C1070 1.394 . S
C1071 C1072 1.383 . S
C1071 H1079 0.929 . S
C1072 C1071 1.383 . S
C1072 C1073 1.377 . S
C1073 H1057 0.930 . S
C1073 C1072 1.377 . S
C1073 C1074 1.379 . S
C1074 H1058 0.931 . S
C1074 C1068 1.383 . S
C1074 C1073 1.379 . S
H1075 C1069 0.959 . S
H1076 C1069 0.961 . S
H1077 C1069 0.960 . S
H1078 C1070 0.930 . S
H1079 C1071 0.929 . S
H1080 C1088 0.929 . S
H1081 C1090 0.930 . S
H1082 C1092 0.930 . S
H1083 C1095 0.929 . S
H1084 C1098 0.930 . S
H1085 C1100 0.960 . S
H1086 C1100 0.960 . S
H1087 C1100 0.960 . S
C1088 H1080 0.929 . S
C1088 C1089 1.377 . S
C1088 C1090 1.384 . S
C1089 C1088 1.377 . S
C1089 C1095 1.390 . S
C1090 H1081 0.930 . S
C1090 C1088 1.384 . S
C1090 C1091 1.372 . S
C1091 C1090 1.372 . S
C1091 C1092 1.400 . S
C1091 C1096 1.490 . S
C1092 H1082 0.930 . S
C1092 C1091 1.400 . S
C1092 C1095 1.386 . S
H1093 C1109 0.930 . S
H1094 C1110 0.921 1_554 S
C1095 H1083 0.929 . S
C1095 C1089 1.390 . S
C1095 C1092 1.386 . S
C1096 C1091 1.490 . S
C1096 C1098 1.395 . S
C1096 C1099 1.403 . S
H1097 C1103 0.930 . S
C1098 H1084 0.930 . S
C1098 C1096 1.395 . S
C1098 C1101 1.403 . S
C1099 C1096 1.403 . S
C1099 C1100 1.524 . S
C1099 C1103 1.400 . S
C1100 H1085 0.960 . S
C1100 H1086 0.960 . S
C1100 H1087 0.960 . S
C1100 C1099 1.524 . S
C1101 C1098 1.403 . S
C1101 C1102 1.392 . S
C1101 C1105 1.495 1_556 S
C1102 C1101 1.392 . S
C1102 C1103 1.385 . S
C1102 C1104 1.478 . S
C1103 H1097 0.930 . S
C1103 C1099 1.400 . S
C1103 C1102 1.385 . S
C1104 C1102 1.478 . S
C1104 C1106 1.381 . S
C1104 C1110 1.402 . S
C1105 C1101 1.495 1_554 S
C1105 H1111 0.959 . S
C1105 H1112 0.961 . S
C1105 H1113 0.960 1_554 S
C1106 C1104 1.381 . S
C1106 C1107 1.394 . S
C1106 H1114 0.930 . S
C1107 C1106 1.394 . S
C1107 C1108 1.402 . S
C1107 H1115 0.929 . S
C1108 C1107 1.402 . S
C1108 C1109 1.368 1_556 S
C1109 H1093 0.930 . S
C1109 C1108 1.368 1_554 S
C1109 C1110 1.371 1_554 S
C1110 H1094 0.921 1_556 S
C1110 C1104 1.402 . S
C1110 C1109 1.371 1_556 S
H1111 C1105 0.959 . S
H1112 C1105 0.961 . S
H1113 C1105 0.960 1_556 S
H1114 C1106 0.930 . S
H1115 C1107 0.929 . S
H1116 C1124 0.929 . S
H1117 C1126 0.930 . S
H1118 C1128 0.930 . S
H1119 C1131 0.929 . S
H1120 C1134 0.930 . S
H1121 C1136 0.960 1_554 S
H1122 C1136 0.960 . S
H1123 C1136 0.960 . S
C1124 H1116 0.929 . S
C1124 C1125 1.377 . S
C1124 C1126 1.384 . S
C1125 C1124 1.377 . S
C1125 C1131 1.390 . S
C1126 H1117 0.930 . S
C1126 C1124 1.384 . S
C1126 C1127 1.372 . S
C1127 C1126 1.372 . S
C1127 C1128 1.400 . S
C1127 C1132 1.490 . S
C1128 H1118 0.930 . S
C1128 C1127 1.400 . S
C1128 C1131 1.386 . S
H1129 C1145 0.930 . S
H1130 C1146 0.939 . S
C1131 H1119 0.929 . S
C1131 C1125 1.390 . S
C1131 C1128 1.386 . S
C1132 C1127 1.490 . S
C1132 C1134 1.395 . S
C1132 C1135 1.403 . S
H1133 C1139 0.930 . S
C1134 H1120 0.930 . S
C1134 C1132 1.395 . S
C1134 C1137 1.403 . S
C1135 C1132 1.403 . S
C1135 C1136 1.524 . S
C1135 C1139 1.400 . S
C1136 H1121 0.960 1_556 S
C1136 H1122 0.960 . S
C1136 H1123 0.960 . S
C1136 C1135 1.524 . S
C1137 C1134 1.403 . S
C1137 C1138 1.392 . S
C1137 C1141 1.495 . S
C1138 C1137 1.392 . S
C1138 C1139 1.385 . S
C1138 C1140 1.478 . S
C1139 H1133 0.930 . S
C1139 C1135 1.400 . S
C1139 C1138 1.385 . S
C1140 C1138 1.478 . S
C1140 C1142 1.381 . S
C1140 C1146 1.369 1_556 S
C1141 C1137 1.495 . S
C1141 H1147 0.959 . S
C1141 H1148 0.961 . S
C1141 H1149 0.960 . S
C1142 C1140 1.381 . S
C1142 C1143 1.394 . S
C1142 H1150 0.930 . S
C1143 C1142 1.394 . S
C1143 C1144 1.383 . S
C1143 H1151 0.929 . S
C1144 C1143 1.383 . S
C1144 C1145 1.377 1_556 S
C1145 H1129 0.930 . S
C1145 C1144 1.377 1_554 S
C1145 C1146 1.385 . S
C1146 H1130 0.939 . S
C1146 C1140 1.369 1_554 S
C1146 C1145 1.385 . S
H1147 C1141 0.959 . S
H1148 C1141 0.961 . S
H1149 C1141 0.960 . S
H1150 C1142 0.930 . S
H1151 C1143 0.929 . S
H1152 C1160 0.929 . S
H1153 C1162 0.930 . S
H1154 C1164 0.930 . S
H1155 C1167 0.929 . S
H1156 C1170 0.930 . S
H1157 C1172 0.964 . S
H1158 C1172 0.957 1_556 S
H1159 C1172 0.962 . S
C1160 H1152 0.929 . S
C1160 C1161 1.377 . S
C1160 C1162 1.384 . S
C1161 C1160 1.377 . S
C1161 C1167 1.390 . S
C1162 H1153 0.930 . S
C1162 C1160 1.384 . S
C1162 C1163 1.372 . S
C1163 C1162 1.372 . S
C1163 C1164 1.400 . S
C1163 C1168 1.490 . S
C1164 H1154 0.930 . S
C1164 C1163 1.400 . S
C1164 C1167 1.386 . S
H1165 C1181 0.930 . S
H1166 C1182 0.931 . S
C1167 H1155 0.929 . S
C1167 C1161 1.390 . S
C1167 C1164 1.386 . S
C1168 C1163 1.490 . S
C1168 C1170 1.395 . S
C1168 C1171 1.403 . S
H1169 C1175 0.930 1_554 S
C1170 H1156 0.930 . S
C1170 C1168 1.395 . S
C1170 C1173 1.403 . S
C1171 C1168 1.403 . S
C1171 C1172 1.520 1_556 S
C1171 C1175 1.400 . S
C1172 H1157 0.964 . S
C1172 H1158 0.957 1_554 S
C1172 H1159 0.962 . S
C1172 C1171 1.520 1_554 S
C1173 C1170 1.403 . S
C1173 C1174 1.392 . S
C1173 C1177 1.495 . S
C1174 C1173 1.392 . S
C1174 C1175 1.385 . S
C1174 C1176 1.478 . S
C1175 H1169 0.930 1_556 S
C1175 C1171 1.400 . S
C1175 C1174 1.385 . S
C1176 C1174 1.478 . S
C1176 C1178 1.381 . S
C1176 C1182 1.383 1_556 S
C1177 C1173 1.495 . S
C1177 H1183 0.959 . S
C1177 H1184 0.961 . S
C1177 H1185 0.960 . S
C1178 C1176 1.381 . S
C1178 C1179 1.394 . S
C1178 H1186 0.930 . S
C1179 C1178 1.394 . S
C1179 C1180 1.437 . S
C1179 H1187 0.929 . S
C1180 C1179 1.437 . S
C1180 C1181 1.345 1_556 S
C1181 H1165 0.930 . S
C1181 C1180 1.345 1_554 S
C1181 C1182 1.379 . S
C1182 H1166 0.931 . S
C1182 C1176 1.383 1_554 S
C1182 C1181 1.379 . S
H1183 C1177 0.959 . S
H1184 C1177 0.961 . S
H1185 C1177 0.960 . S
H1186 C1178 0.930 . S
H1187 C1179 0.929 . S
H1188 C1196 0.929 . S
H1189 C1198 0.930 . S
H1190 C1200 0.930 . S
H1191 C1203 0.929 . S
H1192 C1206 0.930 . S
H1193 C1208 0.960 . S
H1194 C1208 0.960 . S
H1195 C1208 0.960 . S
C1196 H1188 0.929 . S
C1196 C1197 1.377 . S
C1196 C1198 1.384 . S
C1197 C1196 1.377 . S
C1197 C1203 1.390 . S
C1198 H1189 0.930 . S
C1198 C1196 1.384 . S
C1198 C1199 1.372 . S
C1199 C1198 1.372 . S
C1199 C1200 1.400 . S
C1199 C1204 1.490 . S
C1200 H1190 0.930 . S
C1200 C1199 1.400 . S
C1200 C1203 1.386 . S
H1201 C1217 0.930 . S
H1202 C1218 0.931 . S
C1203 H1191 0.929 . S
C1203 C1197 1.390 . S
C1203 C1200 1.386 . S
C1204 C1199 1.490 . S
C1204 C1206 1.395 . S
C1204 C1207 1.403 . S
H1205 C1211 0.930 . S
C1206 H1192 0.930 . S
C1206 C1204 1.395 . S
C1206 C1209 1.403 . S
C1207 C1204 1.403 . S
C1207 C1208 1.524 . S
C1207 C1211 1.400 . S
C1208 H1193 0.960 . S
C1208 H1194 0.960 . S
C1208 H1195 0.960 . S
C1208 C1207 1.524 . S
C1209 C1206 1.403 . S
C1209 C1210 1.392 . S
C1209 C1213 1.495 . S
C1210 C1209 1.392 . S
C1210 C1211 1.385 . S
C1210 C1212 1.478 . S
C1211 H1205 0.930 . S
C1211 C1207 1.400 . S
C1211 C1210 1.385 . S
C1212 C1210 1.478 . S
C1212 C1214 1.381 1_556 S
C1212 C1218 1.383 . S
C1213 C1209 1.495 . S
C1213 H1219 0.959 . S
C1213 H1220 0.961 . S
C1213 H1221 0.960 1_556 S
C1214 C1212 1.381 1_554 S
C1214 C1215 1.394 . S
C1214 H1222 0.930 . S
C1215 C1214 1.394 . S
C1215 C1216 1.341 1_554 S
C1215 H1223 0.929 . S
C1216 C1215 1.341 1_556 S
C1216 C1217 1.434 . S
C1217 H1201 0.930 . S
C1217 C1216 1.434 . S
C1217 C1218 1.379 . S
C1218 H1202 0.931 . S
C1218 C1212 1.383 . S
C1218 C1217 1.379 . S
H1219 C1213 0.959 . S
H1220 C1213 0.961 . S
H1221 C1213 0.960 1_554 S
H1222 C1214 0.930 . S
H1223 C1215 0.929 . S
H1224 C1232 0.929 . S
H1225 C1234 0.930 . S
H1226 C1236 0.930 . S
H1227 C1239 0.929 . S
H1228 C1242 0.967 . S
H1229 C1244 0.960 . S
H1230 C1244 0.960 . S
H1231 C1244 0.960 . S
C1232 H1224 0.929 . S
C1232 C1233 1.377 . S
C1232 C1234 1.384 . S
C1233 C1232 1.377 . S
C1233 C1239 1.390 . S
C1234 H1225 0.930 . S
C1234 C1232 1.384 . S
C1234 C1235 1.372 . S
C1235 C1234 1.372 . S
C1235 C1236 1.400 . S
C1235 C1240 1.490 . S
C1236 H1226 0.930 . S
C1236 C1235 1.400 . S
C1236 C1239 1.386 . S
H1237 C1253 0.930 . S
H1238 C1254 0.931 . S
C1239 H1227 0.929 . S
C1239 C1233 1.390 . S
C1239 C1236 1.386 . S
C1240 C1235 1.490 . S
C1240 C1242 1.395 . S
C1240 C1243 1.403 . S
H1241 C1247 0.930 . S
C1242 H1228 0.967 . S
C1242 C1240 1.395 . S
C1242 C1245 1.403 . S
C1243 C1240 1.403 . S
C1243 C1244 1.524 . S
C1243 C1247 1.400 . S
C1244 H1229 0.960 . S
C1244 H1230 0.960 . S
C1244 H1231 0.960 . S
C1244 C1243 1.524 . S
C1245 C1242 1.403 . S
C1245 C1246 1.392 . S
C1245 C1249 1.495 1_556 S
C1246 C1245 1.392 . S
C1246 C1247 1.385 . S
C1246 C1248 1.478 . S
C1247 H1241 0.930 . S
C1247 C1243 1.400 . S
C1247 C1246 1.385 . S
C1248 C1246 1.478 . S
C1248 C1250 1.381 1_556 S
C1248 C1254 1.383 . S
C1249 C1245 1.495 1_554 S
C1249 H1255 0.959 . S
C1249 H1256 0.961 . S
C1249 H1257 0.960 . S
C1250 C1248 1.381 1_554 S
C1250 C1251 1.394 . S
C1250 H1258 0.930 . S
C1251 C1250 1.394 . S
C1251 C1252 1.383 1_554 S
C1251 H1259 0.929 . S
C1252 C1251 1.383 1_556 S
C1252 C1253 1.377 . S
C1253 H1237 0.930 . S
C1253 C1252 1.377 . S
C1253 C1254 1.379 . S
C1254 H1238 0.931 . S
C1254 C1248 1.383 . S
C1254 C1253 1.379 . S
H1255 C1249 0.959 . S
H1256 C1249 0.961 . S
H1257 C1249 0.960 . S
H1258 C1250 0.930 . S
H1259 C1251 0.929 . S
H1260 C1268 0.929 . S
H1261 C1270 0.930 . S
H1262 C1272 0.930 . S
H1263 C1275 0.929 . S
H1264 C1278 0.930 . S
H1265 C1280 0.960 1_554 S
H1266 C1280 0.960 1_554 S
H1267 C1280 0.960 . S
C1268 H1260 0.929 . S
C1268 C1269 1.377 . S
C1268 C1270 1.384 . S
C1269 C1268 1.377 . S
C1269 C1275 1.390 . S
C1270 H1261 0.930 . S
C1270 C1268 1.384 . S
C1270 C1271 1.372 . S
C1271 C1270 1.372 . S
C1271 C1272 1.400 . S
C1271 C1276 1.490 . S
C1272 H1262 0.930 . S
C1272 C1271 1.400 . S
C1272 C1275 1.386 . S
H1273 C1289 0.930 . S
H1274 C1290 0.931 . S
C1275 H1263 0.929 . S
C1275 C1269 1.390 . S
C1275 C1272 1.386 . S
C1276 C1271 1.490 . S
C1276 C1278 1.395 . S
C1276 C1279 1.403 . S
H1277 C1283 0.941 . S
C1278 H1264 0.930 . S
C1278 C1276 1.395 . S
C1278 C1281 1.403 . S
C1279 C1276 1.403 . S
C1279 C1280 1.524 . S
C1279 C1283 1.400 . S
C1280 H1265 0.960 1_556 S
C1280 H1266 0.960 1_556 S
C1280 H1267 0.960 . S
C1280 C1279 1.524 . S
C1281 C1278 1.403 . S
C1281 C1282 1.392 . S
C1281 C1285 1.495 . S
C1282 C1281 1.392 . S
C1282 C1283 1.385 . S
C1282 C1284 1.478 . S
C1283 H1277 0.941 . S
C1283 C1279 1.400 . S
C1283 C1282 1.385 . S
C1284 C1282 1.478 . S
C1284 C1286 1.381 1_556 S
C1284 C1290 1.383 . S
C1285 C1281 1.495 . S
C1285 H1291 0.959 . S
C1285 H1292 0.961 . S
C1285 H1293 0.960 . S
C1286 C1284 1.381 1_554 S
C1286 C1287 1.394 . S
C1286 H1294 0.930 . S
C1287 C1286 1.394 . S
C1287 C1288 1.380 1_554 S
C1287 H1295 0.929 . S
C1288 C1287 1.380 1_556 S
C1288 C1289 1.383 . S
C1289 H1273 0.930 . S
C1289 C1288 1.383 . S
C1289 C1290 1.379 . S
C1290 H1274 0.931 . S
C1290 C1284 1.383 . S
C1290 C1289 1.379 . S
H1291 C1285 0.959 . S
H1292 C1285 0.961 . S
H1293 C1285 0.960 . S
H1294 C1286 0.930 . S
H1295 C1287 0.929 . S
H1296 C1304 0.929 . S
H1297 C1306 0.930 . S
H1298 C1308 0.930 . S
H1299 C1311 0.929 . S
H1300 C1314 0.930 . S
H1301 C1316 0.960 . S
H1302 C1316 0.960 . S
H1303 C1316 0.960 . S
C1304 H1296 0.929 . S
C1304 C1305 1.377 . S
C1304 C1306 1.384 . S
C1305 C1304 1.377 . S
C1305 C1311 1.390 . S
C1306 H1297 0.930 . S
C1306 C1304 1.384 . S
C1306 C1307 1.372 . S
C1307 C1306 1.372 . S
C1307 C1308 1.400 . S
C1307 C1312 1.490 . S
C1308 H1298 0.930 . S
C1308 C1307 1.400 . S
C1308 C1311 1.386 . S
H1309 C1325 0.930 . S
H1310 C1326 0.931 . S
C1311 H1299 0.929 . S
C1311 C1305 1.390 . S
C1311 C1308 1.386 . S
C1312 C1307 1.490 . S
C1312 C1314 1.395 . S
C1312 C1315 1.403 . S
H1313 C1319 0.930 . S
C1314 H1300 0.930 . S
C1314 C1312 1.395 . S
C1314 C1317 1.403 . S
C1315 C1312 1.403 . S
C1315 C1316 1.524 . S
C1315 C1319 1.400 . S
C1316 H1301 0.960 . S
C1316 H1302 0.960 . S
C1316 H1303 0.960 . S
C1316 C1315 1.524 . S
C1317 C1314 1.403 . S
C1317 C1318 1.392 . S
C1317 C1321 1.495 . S
C1318 C1317 1.392 . S
C1318 C1319 1.385 . S
C1318 C1320 1.478 . S
C1319 H1313 0.930 . S
C1319 C1315 1.400 . S
C1319 C1318 1.385 . S
C1320 C1318 1.478 . S
C1320 C1322 1.381 . S
C1320 C1326 1.383 . S
C1321 C1317 1.495 . S
C1321 H1327 0.959 . S
C1321 H1328 0.961 . S
C1321 H1329 0.960 . S
C1322 C1320 1.381 . S
C1322 C1323 1.394 . S
C1322 H1330 0.930 . S
C1323 C1322 1.394 . S
C1323 C1324 1.383 . S
C1323 H1331 0.929 . S
C1324 C1323 1.383 . S
C1324 C1325 1.377 . S
C1325 H1309 0.930 . S
C1325 C1324 1.377 . S
C1325 C1326 1.379 . S
C1326 H1310 0.931 . S
C1326 C1320 1.383 . S
C1326 C1325 1.379 . S
H1327 C1321 0.959 . S
H1328 C1321 0.961 . S
H1329 C1321 0.960 . S
H1330 C1322 0.930 . S
H1331 C1323 0.929 . S
H1332 C1340 0.929 . S
H1333 C1342 0.930 . S
H1334 C1344 0.930 . S
H1335 C1347 0.929 . S
H1336 C1350 0.930 . S
H1337 C1352 0.960 . S
H1338 C1352 0.960 . S
H1339 C1352 0.960 . S
C1340 H1332 0.929 . S
C1340 C1341 1.377 . S
C1340 C1342 1.384 . S
C1341 C1340 1.377 . S
C1341 C1347 1.390 . S
C1342 H1333 0.930 . S
C1342 C1340 1.384 . S
C1342 C1343 1.372 . S
C1343 C1342 1.372 . S
C1343 C1344 1.400 . S
C1343 C1348 1.490 . S
C1344 H1334 0.930 . S
C1344 C1343 1.400 . S
C1344 C1347 1.386 . S
H1345 C1361 0.930 . S
H1346 C1362 0.931 . S
C1347 H1335 0.929 . S
C1347 C1341 1.390 . S
C1347 C1344 1.386 . S
C1348 C1343 1.490 . S
C1348 C1350 1.395 . S
C1348 C1351 1.403 . S
H1349 C1355 0.930 . S
C1350 H1336 0.930 . S
C1350 C1348 1.395 . S
C1350 C1353 1.403 . S
C1351 C1348 1.403 . S
C1351 C1352 1.524 . S
C1351 C1355 1.400 . S
C1352 H1337 0.960 . S
C1352 H1338 0.960 . S
C1352 H1339 0.960 . S
C1352 C1351 1.524 . S
C1353 C1350 1.403 . S
C1353 C1354 1.392 . S
C1353 C1357 1.495 . S
C1354 C1353 1.392 . S
C1354 C1355 1.385 . S
C1354 C1356 1.478 . S
C1355 H1349 0.930 . S
C1355 C1351 1.400 . S
C1355 C1354 1.385 . S
C1356 C1354 1.478 . S
C1356 C1358 1.381 . S
C1356 C1362 1.383 . S
C1357 C1353 1.495 . S
C1357 H1363 0.959 . S
C1357 H1364 0.961 . S
C1357 H1365 0.960 . S
C1358 C1356 1.381 . S
C1358 C1359 1.394 . S
C1358 H1366 0.930 . S
C1359 C1358 1.394 . S
C1359 C1360 1.383 . S
C1359 H1367 0.929 . S
C1360 C1359 1.383 . S
C1360 C1361 1.377 . S
C1361 H1345 0.930 . S
C1361 C1360 1.377 . S
C1361 C1362 1.379 . S
C1362 H1346 0.931 . S
C1362 C1356 1.383 . S
C1362 C1361 1.379 . S
H1363 C1357 0.959 . S
H1364 C1357 0.961 . S
H1365 C1357 0.960 . S
H1366 C1358 0.930 . S
H1367 C1359 0.929 . S
H1368 C1376 0.929 . S
H1369 C1378 0.930 . S
H1370 C1380 0.930 . S
H1371 C1383 0.929 . S
H1372 C1386 0.930 . S
H1373 C1388 0.960 . S
H1374 C1388 0.960 . S
H1375 C1388 0.960 . S
C1376 H1368 0.929 . S
C1376 C1377 1.377 . S
C1376 C1378 1.384 . S
C1377 C1376 1.377 . S
C1377 C1383 1.390 . S
C1378 H1369 0.930 . S
C1378 C1376 1.384 . S
C1378 C1379 1.372 . S
C1379 C1378 1.372 . S
C1379 C1380 1.400 . S
C1379 C1384 1.490 . S
C1380 H1370 0.930 . S
C1380 C1379 1.400 . S
C1380 C1383 1.386 . S
H1381 C1397 0.930 . S
H1382 C1398 0.931 . S
C1383 H1371 0.929 . S
C1383 C1377 1.390 . S
C1383 C1380 1.386 . S
C1384 C1379 1.490 . S
C1384 C1386 1.395 . S
C1384 C1387 1.403 . S
H1385 C1391 0.930 . S
C1386 H1372 0.930 . S
C1386 C1384 1.395 . S
C1386 C1389 1.403 . S
C1387 C1384 1.403 . S
C1387 C1388 1.524 . S
C1387 C1391 1.400 . S
C1388 H1373 0.960 . S
C1388 H1374 0.960 . S
C1388 H1375 0.960 . S
C1388 C1387 1.524 . S
C1389 C1386 1.403 . S
C1389 C1390 1.392 . S
C1389 C1393 1.495 . S
C1390 C1389 1.392 . S
C1390 C1391 1.385 . S
C1390 C1392 1.478 . S
C1391 H1385 0.930 . S
C1391 C1387 1.400 . S
C1391 C1390 1.385 . S
C1392 C1390 1.478 . S
C1392 C1394 1.381 . S
C1392 C1398 1.383 . S
C1393 C1389 1.495 . S
C1393 H1399 0.959 . S
C1393 H1400 0.961 . S
C1393 H1401 0.960 . S
C1394 C1392 1.381 . S
C1394 C1395 1.394 . S
C1394 H1402 0.930 . S
C1395 C1394 1.394 . S
C1395 C1396 1.383 . S
C1395 H1403 0.929 . S
C1396 C1395 1.383 . S
C1396 C1397 1.377 . S
C1397 H1381 0.930 . S
C1397 C1396 1.377 . S
C1397 C1398 1.379 . S
C1398 H1382 0.931 . S
C1398 C1392 1.383 . S
C1398 C1397 1.379 . S
H1399 C1393 0.959 . S
H1400 C1393 0.961 . S
H1401 C1393 0.960 . S
H1402 C1394 0.930 . S
H1403 C1395 0.929 . S
H1404 C1412 0.929 . S
H1405 C1414 0.930 . S
H1406 C1416 0.930 . S
H1407 C1419 0.929 . S
H1408 C1422 0.930 . S
H1409 C1424 0.960 . S
H1410 C1424 0.960 . S
H1411 C1424 0.960 1_655 S
C1412 H1404 0.929 . S
C1412 C1413 1.377 . S
C1412 C1414 1.384 . S
C1413 C1412 1.377 . S
C1413 C1419 1.390 . S
C1414 H1405 0.930 . S
C1414 C1412 1.384 . S
C1414 C1415 1.372 . S
C1415 C1414 1.372 . S
C1415 C1416 1.400 . S
C1415 C1420 1.490 . S
C1416 H1406 0.930 . S
C1416 C1415 1.400 . S
C1416 C1419 1.386 . S
H1417 C1433 0.930 . S
H1418 C1434 0.931 . S
C1419 H1407 0.929 . S
C1419 C1413 1.390 . S
C1419 C1416 1.386 . S
C1420 C1415 1.490 . S
C1420 C1422 1.395 . S
C1420 C1423 1.403 1_655 S
H1421 C1427 0.930 . S
C1422 H1408 0.930 . S
C1422 C1420 1.395 . S
C1422 C1425 1.403 1_655 S
C1423 C1420 1.403 1_455 S
C1423 C1424 1.524 . S
C1423 C1427 1.400 . S
C1424 H1409 0.960 . S
C1424 H1410 0.960 . S
C1424 H1411 0.960 1_455 S
C1424 C1423 1.524 . S
C1425 C1422 1.403 1_455 S
C1425 C1426 1.392 . S
C1425 C1429 1.495 . S
C1426 C1425 1.392 . S
C1426 C1427 1.385 . S
C1426 C1428 1.478 . S
C1427 H1421 0.930 . S
C1427 C1423 1.400 . S
C1427 C1426 1.385 . S
C1428 C1426 1.478 . S
C1428 C1430 1.381 . S
C1428 C1434 1.383 . S
C1429 C1425 1.495 . S
C1429 H1435 0.959 . S
C1429 H1436 0.961 . S
C1429 H1437 0.960 . S
C1430 C1428 1.381 . S
C1430 C1431 1.394 . S
C1430 H1438 0.930 . S
C1431 C1430 1.394 . S
C1431 C1432 1.383 . S
C1431 H1439 0.929 . S
C1432 C1431 1.383 . S
C1432 C1433 1.377 . S
C1433 H1417 0.930 . S
C1433 C1432 1.377 . S
C1433 C1434 1.379 . S
C1434 H1418 0.931 . S
C1434 C1428 1.383 . S
C1434 C1433 1.379 . S
H1435 C1429 0.959 . S
H1436 C1429 0.961 . S
H1437 C1429 0.960 . S
H1438 C1430 0.930 . S
H1439 C1431 0.929 . S
H1440 C1448 0.929 . S
H1441 C1450 0.930 . S
H1442 C1452 0.930 . S
H1443 C1455 0.929 . S
H1444 C1458 0.930 . S
H1445 C1460 0.960 . S
H1446 C1460 0.960 . S
H1447 C1460 0.960 . S
C1448 H1440 0.929 . S
C1448 C1449 1.377 . S
C1448 C1450 1.384 . S
C1449 C1448 1.377 . S
C1449 C1455 1.390 . S
C1450 H1441 0.930 . S
C1450 C1448 1.384 . S
C1450 C1451 1.372 . S
C1451 C1450 1.372 . S
C1451 C1452 1.400 . S
C1451 C1456 1.490 . S
C1452 H1442 0.930 . S
C1452 C1451 1.400 . S
C1452 C1455 1.386 . S
H1453 C1469 0.930 . S
H1454 C1470 0.931 . S
C1455 H1443 0.929 . S
C1455 C1449 1.390 . S
C1455 C1452 1.386 . S
C1456 C1451 1.490 . S
C1456 C1458 1.395 . S
C1456 C1459 1.403 . S
H1457 C1463 0.930 . S
C1458 H1444 0.930 . S
C1458 C1456 1.395 . S
C1458 C1461 1.403 . S
C1459 C1456 1.403 . S
C1459 C1460 1.524 . S
C1459 C1463 1.400 . S
C1460 H1445 0.960 . S
C1460 H1446 0.960 . S
C1460 H1447 0.960 . S
C1460 C1459 1.524 . S
C1461 C1458 1.403 . S
C1461 C1462 1.392 . S
C1461 C1465 1.495 . S
C1462 C1461 1.392 . S
C1462 C1463 1.385 . S
C1462 C1464 1.478 . S
C1463 H1457 0.930 . S
C1463 C1459 1.400 . S
C1463 C1462 1.385 . S
C1464 C1462 1.478 . S
C1464 C1466 1.381 . S
C1464 C1470 1.383 . S
C1465 C1461 1.495 . S
C1465 H1471 0.959 . S
C1465 H1472 0.961 . S
C1465 H1473 0.960 . S
C1466 C1464 1.381 . S
C1466 C1467 1.394 . S
C1466 H1474 0.930 . S
C1467 C1466 1.394 . S
C1467 C1468 1.383 . S
C1467 H1475 0.929 . S
C1468 C1467 1.383 . S
C1468 C1469 1.377 . S
C1469 H1453 0.930 . S
C1469 C1468 1.377 . S
C1469 C1470 1.379 . S
C1470 H1454 0.931 . S
C1470 C1464 1.383 . S
C1470 C1469 1.379 . S
H1471 C1465 0.959 . S
H1472 C1465 0.961 . S
H1473 C1465 0.960 . S
H1474 C1466 0.930 . S
H1475 C1467 0.929 . S
H1476 C1484 0.929 . S
H1477 C1486 0.930 . S
H1478 C1488 0.930 . S
H1479 C1491 0.929 . S
H1480 C1494 0.930 . S
H1481 C1496 0.960 . S
H1482 C1496 0.960 . S
H1483 C1496 0.960 . S
C1484 H1476 0.929 . S
C1484 C1485 1.377 . S
C1484 C1486 1.384 . S
C1485 C1484 1.377 . S
C1485 C1491 1.390 . S
C1486 H1477 0.930 . S
C1486 C1484 1.384 . S
C1486 C1487 1.372 . S
C1487 C1486 1.372 . S
C1487 C1488 1.400 . S
C1487 C1492 1.490 . S
C1488 H1478 0.930 . S
C1488 C1487 1.400 . S
C1488 C1491 1.386 . S
H1489 C1505 0.930 . S
H1490 C1506 0.931 . S
C1491 H1479 0.929 . S
C1491 C1485 1.390 . S
C1491 C1488 1.386 . S
C1492 C1487 1.490 . S
C1492 C1494 1.395 . S
C1492 C1495 1.403 . S
H1493 C1499 0.930 . S
C1494 H1480 0.930 . S
C1494 C1492 1.395 . S
C1494 C1497 1.403 1_545 S
C1495 C1492 1.403 . S
C1495 C1496 1.524 . S
C1495 C1499 1.400 1_545 S
C1496 H1481 0.960 . S
C1496 H1482 0.960 . S
C1496 H1483 0.960 . S
C1496 C1495 1.524 . S
C1497 C1494 1.403 1_565 S
C1497 C1498 1.392 . S
C1497 C1501 1.495 . S
C1498 C1497 1.392 . S
C1498 C1499 1.385 . S
C1498 C1500 1.478 . S
C1499 H1493 0.930 . S
C1499 C1495 1.400 1_565 S
C1499 C1498 1.385 . S
C1500 C1498 1.478 . S
C1500 C1502 1.381 . S
C1500 C1506 1.383 . S
C1501 C1497 1.495 . S
C1501 H1507 0.948 1_565 S
C1501 H1508 0.961 . S
C1501 H1509 0.960 . S
C1502 C1500 1.381 . S
C1502 C1503 1.394 . S
C1502 H1510 0.930 . S
C1503 C1502 1.394 . S
C1503 C1504 1.383 . S
C1503 H1511 0.929 . S
C1504 C1503 1.383 . S
C1504 C1505 1.377 . S
C1505 H1489 0.930 . S
C1505 C1504 1.377 . S
C1505 C1506 1.379 . S
C1506 H1490 0.931 . S
C1506 C1500 1.383 . S
C1506 C1505 1.379 . S
H1507 C1501 0.948 1_545 S
H1508 C1501 0.961 . S
H1509 C1501 0.960 . S
H1510 C1502 0.930 . S
H1511 C1503 0.929 . S
H1512 C1520 0.929 . S
H1513 C1522 0.930 . S
H1514 C1524 0.930 . S
H1515 C1527 0.929 . S
H1516 C1530 0.930 . S
H1517 C1532 0.960 . S
H1518 C1532 0.960 . S
H1519 C1532 0.960 . S
C1520 H1512 0.929 . S
C1520 C1521 1.377 . S
C1520 C1522 1.384 . S
C1521 C1520 1.377 . S
C1521 C1527 1.390 . S
C1522 H1513 0.930 . S
C1522 C1520 1.384 . S
C1522 C1523 1.372 . S
C1523 C1522 1.372 . S
C1523 C1524 1.400 . S
C1523 C1528 1.490 . S
C1524 H1514 0.930 . S
C1524 C1523 1.400 . S
C1524 C1527 1.386 . S
H1525 C1541 0.930 . S
H1526 C1542 0.931 . S
C1527 H1515 0.929 . S
C1527 C1521 1.390 . S
C1527 C1524 1.386 . S
C1528 C1523 1.490 . S
C1528 C1530 1.395 . S
C1528 C1531 1.403 . S
H1529 C1535 0.930 . S
C1530 H1516 0.930 . S
C1530 C1528 1.395 . S
C1530 C1533 1.403 . S
C1531 C1528 1.403 . S
C1531 C1532 1.524 . S
C1531 C1535 1.400 . S
C1532 H1517 0.960 . S
C1532 H1518 0.960 . S
C1532 H1519 0.960 . S
C1532 C1531 1.524 . S
C1533 C1530 1.403 . S
C1533 C1534 1.392 . S
C1533 C1537 1.495 . S
C1534 C1533 1.392 . S
C1534 C1535 1.385 . S
C1534 C1536 1.478 . S
C1535 H1529 0.930 . S
C1535 C1531 1.400 . S
C1535 C1534 1.385 . S
C1536 C1534 1.478 . S
C1536 C1538 1.381 . S
C1536 C1542 1.383 . S
C1537 C1533 1.495 . S
C1537 H1543 0.959 . S
C1537 H1544 0.961 . S
C1537 H1545 0.960 . S
C1538 C1536 1.381 . S
C1538 C1539 1.394 . S
C1538 H1546 0.930 . S
C1539 C1538 1.394 . S
C1539 C1540 1.383 . S
C1539 H1547 0.929 . S
C1540 C1539 1.383 . S
C1540 C1541 1.377 . S
C1541 H1525 0.930 . S
C1541 C1540 1.377 . S
C1541 C1542 1.379 . S
C1542 H1526 0.931 . S
C1542 C1536 1.383 . S
C1542 C1541 1.379 . S
H1543 C1537 0.959 . S
H1544 C1537 0.961 . S
H1545 C1537 0.960 . S
H1546 C1538 0.930 . S
H1547 C1539 0.929 . S
H1548 C1556 0.929 . S
H1549 C1558 0.930 . S
H1550 C1560 0.930 . S
H1551 C1563 0.929 . S
H1552 C1566 0.930 . S
H1553 C1568 0.960 . S
H1554 C1568 0.960 . S
H1555 C1568 0.960 . S
C1556 H1548 0.929 . S
C1556 C1557 1.377 . S
C1556 C1558 1.384 . S
C1557 C1556 1.377 . S
C1557 C1563 1.390 . S
C1558 H1549 0.930 . S
C1558 C1556 1.384 . S
C1558 C1559 1.372 . S
C1559 C1558 1.372 . S
C1559 C1560 1.400 . S
C1559 C1564 1.490 . S
C1560 H1550 0.930 . S
C1560 C1559 1.400 . S
C1560 C1563 1.386 . S
H1561 C1577 0.930 . S
H1562 C1578 0.931 . S
C1563 H1551 0.929 . S
C1563 C1557 1.390 . S
C1563 C1560 1.386 . S
C1564 C1559 1.490 . S
C1564 C1566 1.395 . S
C1564 C1567 1.403 . S
H1565 C1571 0.930 . S
C1566 H1552 0.930 . S
C1566 C1564 1.395 . S
C1566 C1569 1.403 . S
C1567 C1564 1.403 . S
C1567 C1568 1.524 . S
C1567 C1571 1.400 . S
C1568 H1553 0.960 . S
C1568 H1554 0.960 . S
C1568 H1555 0.960 . S
C1568 C1567 1.524 . S
C1569 C1566 1.403 . S
C1569 C1570 1.392 . S
C1569 C1573 1.495 . S
C1570 C1569 1.392 . S
C1570 C1571 1.385 . S
C1570 C1572 1.478 . S
C1571 H1565 0.930 . S
C1571 C1567 1.400 . S
C1571 C1570 1.385 . S
C1572 C1570 1.478 . S
C1572 C1574 1.381 . S
C1572 C1578 1.383 . S
C1573 C1569 1.495 . S
C1573 H1579 0.959 . S
C1573 H1580 0.961 . S
C1573 H1581 0.960 . S
C1574 C1572 1.381 . S
C1574 C1575 1.394 . S
C1574 H1582 0.930 . S
C1575 C1574 1.394 . S
C1575 C1576 1.383 . S
C1575 H1583 0.929 . S
C1576 C1575 1.383 . S
C1576 C1577 1.377 . S
C1577 H1561 0.930 . S
C1577 C1576 1.377 . S
C1577 C1578 1.379 . S
C1578 H1562 0.931 . S
C1578 C1572 1.383 . S
C1578 C1577 1.379 . S
H1579 C1573 0.959 . S
H1580 C1573 0.961 . S
H1581 C1573 0.960 . S
H1582 C1574 0.930 . S
H1583 C1575 0.929 . S
H1584 C1592 0.929 . S
H1585 C1594 0.930 . S
H1586 C1596 0.930 . S
H1587 C1599 0.929 . S
H1588 C1602 0.930 . S
H1589 C1604 0.960 . S
H1590 C1604 0.960 . S
H1591 C1604 0.960 . S
C1592 H1584 0.929 . S
C1592 C1593 1.377 . S
C1592 C1594 1.384 . S
C1593 C1592 1.377 . S
C1593 C1599 1.390 . S
C1594 H1585 0.930 . S
C1594 C1592 1.384 . S
C1594 C1595 1.372 . S
C1595 C1594 1.372 . S
C1595 C1596 1.400 . S
C1595 C1600 1.490 . S
C1596 H1586 0.930 . S
C1596 C1595 1.400 . S
C1596 C1599 1.386 . S
H1597 C1613 0.930 . S
H1598 C1614 0.931 . S
C1599 H1587 0.929 . S
C1599 C1593 1.390 . S
C1599 C1596 1.386 . S
C1600 C1595 1.490 . S
C1600 C1602 1.395 . S
C1600 C1603 1.403 . S
H1601 C1607 0.930 . S
C1602 H1588 0.930 . S
C1602 C1600 1.395 . S
C1602 C1605 1.403 . S
C1603 C1600 1.403 . S
C1603 C1604 1.524 . S
C1603 C1607 1.400 . S
C1604 H1589 0.960 . S
C1604 H1590 0.960 . S
C1604 H1591 0.960 . S
C1604 C1603 1.524 . S
C1605 C1602 1.403 . S
C1605 C1606 1.392 . S
C1605 C1609 1.495 . S
C1606 C1605 1.392 . S
C1606 C1607 1.385 . S
C1606 C1608 1.478 . S
C1607 H1601 0.930 . S
C1607 C1603 1.400 . S
C1607 C1606 1.385 . S
C1608 C1606 1.478 . S
C1608 C1610 1.381 . S
C1608 C1614 1.383 . S
C1609 C1605 1.495 . S
C1609 H1615 0.959 . S
C1609 H1616 0.961 . S
C1609 H1617 0.960 . S
C1610 C1608 1.381 . S
C1610 C1611 1.394 . S
C1610 H1618 0.930 . S
C1611 C1610 1.394 . S
C1611 C1612 1.383 . S
C1611 H1619 0.929 . S
C1612 C1611 1.383 . S
C1612 C1613 1.377 . S
C1613 H1597 0.930 . S
C1613 C1612 1.377 . S
C1613 C1614 1.379 . S
C1614 H1598 0.931 . S
C1614 C1608 1.383 . S
C1614 C1613 1.379 . S
H1615 C1609 0.959 . S
H1616 C1609 0.961 . S
H1617 C1609 0.960 . S
H1618 C1610 0.930 . S
H1619 C1611 0.929 . S
H1620 C1628 0.929 . S
H1621 C1630 0.930 . S
H1622 C1632 0.930 . S
H1623 C1635 0.929 . S
H1624 C1638 0.930 . S
H1625 C1640 0.960 . S
H1626 C1640 0.960 . S
H1627 C1640 0.960 . S
C1628 H1620 0.929 . S
C1628 C1629 1.377 . S
C1628 C1630 1.384 . S
C1629 C1628 1.377 . S
C1629 C1635 1.390 . S
C1630 H1621 0.930 . S
C1630 C1628 1.384 . S
C1630 C1631 1.372 . S
C1631 C1630 1.372 . S
C1631 C1632 1.400 . S
C1631 C1636 1.490 . S
C1632 H1622 0.930 . S
C1632 C1631 1.400 . S
C1632 C1635 1.386 . S
H1633 C1649 0.930 . S
H1634 C1650 0.931 . S
C1635 H1623 0.929 . S
C1635 C1629 1.390 . S
C1635 C1632 1.386 . S
C1636 C1631 1.490 . S
C1636 C1638 1.395 . S
C1636 C1639 1.403 . S
H1637 C1643 0.930 . S
C1638 H1624 0.930 . S
C1638 C1636 1.395 . S
C1638 C1641 1.403 . S
C1639 C1636 1.403 . S
C1639 C1640 1.524 . S
C1639 C1643 1.400 . S
C1640 H1625 0.960 . S
C1640 H1626 0.960 . S
C1640 H1627 0.960 . S
C1640 C1639 1.524 . S
C1641 C1638 1.403 . S
C1641 C1642 1.392 . S
C1641 C1645 1.495 . S
C1642 C1641 1.392 . S
C1642 C1643 1.385 . S
C1642 C1644 1.478 . S
C1643 H1637 0.930 . S
C1643 C1639 1.400 . S
C1643 C1642 1.385 . S
C1644 C1642 1.478 . S
C1644 C1646 1.381 . S
C1644 C1650 1.383 . S
C1645 C1641 1.495 . S
C1645 H1651 0.959 . S
C1645 H1652 0.961 . S
C1645 H1653 0.960 . S
C1646 C1644 1.381 . S
C1646 C1647 1.394 . S
C1646 H1654 0.930 . S
C1647 C1646 1.394 . S
C1647 C1648 1.383 . S
C1647 H1655 0.929 . S
C1648 C1647 1.383 . S
C1648 C1649 1.377 . S
C1649 H1633 0.930 . S
C1649 C1648 1.377 . S
C1649 C1650 1.379 . S
C1650 H1634 0.931 . S
C1650 C1644 1.383 . S
C1650 C1649 1.379 . S
H1651 C1645 0.959 . S
H1652 C1645 0.961 . S
H1653 C1645 0.960 . S
H1654 C1646 0.930 . S
H1655 C1647 0.929 . S
H1656 C1664 0.929 . S
H1657 C1666 0.930 . S
H1658 C1668 0.930 . S
H1659 C1671 0.929 . S
H1660 C1674 0.930 . S
H1661 C1676 0.960 . S
H1662 C1676 0.960 . S
H1663 C1676 0.960 . S
C1664 H1656 0.929 . S
C1664 C1665 1.377 . S
C1664 C1666 1.384 . S
C1665 C1664 1.377 . S
C1665 C1671 1.390 . S
C1666 H1657 0.930 . S
C1666 C1664 1.384 . S
C1666 C1667 1.372 . S
C1667 C1666 1.372 . S
C1667 C1668 1.400 . S
C1667 C1672 1.490 . S
C1668 H1658 0.930 . S
C1668 C1667 1.400 . S
C1668 C1671 1.386 . S
H1669 C1685 0.930 . S
H1670 C1686 0.931 . S
C1671 H1659 0.929 . S
C1671 C1665 1.390 . S
C1671 C1668 1.386 . S
C1672 C1667 1.490 . S
C1672 C1674 1.395 . S
C1672 C1675 1.403 . S
H1673 C1679 0.930 . S
C1674 H1660 0.930 . S
C1674 C1672 1.395 . S
C1674 C1677 1.403 . S
C1675 C1672 1.403 . S
C1675 C1676 1.524 . S
C1675 C1679 1.400 . S
C1676 H1661 0.960 . S
C1676 H1662 0.960 . S
C1676 H1663 0.960 . S
C1676 C1675 1.524 . S
C1677 C1674 1.403 . S
C1677 C1678 1.392 . S
C1677 C1681 1.495 . S
C1678 C1677 1.392 . S
C1678 C1679 1.385 . S
C1678 C1680 1.478 . S
C1679 H1673 0.930 . S
C1679 C1675 1.400 . S
C1679 C1678 1.385 . S
C1680 C1678 1.478 . S
C1680 C1682 1.381 . S
C1680 C1686 1.383 . S
C1681 C1677 1.495 . S
C1681 H1687 0.959 . S
C1681 H1688 0.961 . S
C1681 H1689 0.960 . S
C1682 C1680 1.381 . S
C1682 C1683 1.394 . S
C1682 H1690 0.930 . S
C1683 C1682 1.394 . S
C1683 C1684 1.383 . S
C1683 H1691 0.929 . S
C1684 C1683 1.383 . S
C1684 C1685 1.377 . S
C1685 H1669 0.930 . S
C1685 C1684 1.377 . S
C1685 C1686 1.379 . S
C1686 H1670 0.931 . S
C1686 C1680 1.383 . S
C1686 C1685 1.379 . S
H1687 C1681 0.959 . S
H1688 C1681 0.961 . S
H1689 C1681 0.960 . S
H1690 C1682 0.930 . S
H1691 C1683 0.929 . S
H1692 C1700 0.929 . S
H1693 C1702 0.930 . S
H1694 C1704 0.930 . S
H1695 C1707 0.929 . S
H1696 C1710 0.930 . S
H1697 C1712 0.960 . S
H1698 C1712 0.960 . S
H1699 C1712 0.960 . S
C1700 H1692 0.929 . S
C1700 C1701 1.377 . S
C1700 C1702 1.384 . S
C1701 C1700 1.377 . S
C1701 C1707 1.390 . S
C1702 H1693 0.930 . S
C1702 C1700 1.384 . S
C1702 C1703 1.372 . S
C1703 C1702 1.372 . S
C1703 C1704 1.400 . S
C1703 C1708 1.490 . S
C1704 H1694 0.930 . S
C1704 C1703 1.400 . S
C1704 C1707 1.386 . S
H1705 C1721 0.930 . S
H1706 C1722 0.931 . S
C1707 H1695 0.929 . S
C1707 C1701 1.390 . S
C1707 C1704 1.386 . S
C1708 C1703 1.490 . S
C1708 C1710 1.395 . S
C1708 C1711 1.403 . S
H1709 C1715 0.930 . S
C1710 H1696 0.930 . S
C1710 C1708 1.395 . S
C1710 C1713 1.403 . S
C1711 C1708 1.403 . S
C1711 C1712 1.524 . S
C1711 C1715 1.400 . S
C1712 H1697 0.960 . S
C1712 H1698 0.960 . S
C1712 H1699 0.960 . S
C1712 C1711 1.524 . S
C1713 C1710 1.403 . S
C1713 C1714 1.392 . S
C1713 C1717 1.495 . S
C1714 C1713 1.392 . S
C1714 C1715 1.385 . S
C1714 C1716 1.478 . S
C1715 H1709 0.930 . S
C1715 C1711 1.400 . S
C1715 C1714 1.385 . S
C1716 C1714 1.478 . S
C1716 C1718 1.381 . S
C1716 C1722 1.383 . S
C1717 C1713 1.495 . S
C1717 H1723 0.959 . S
C1717 H1724 0.961 . S
C1717 H1725 0.960 . S
C1718 C1716 1.381 . S
C1718 C1719 1.394 . S
C1718 H1726 0.930 . S
C1719 C1718 1.394 . S
C1719 C1720 1.383 . S
C1719 H1727 0.929 . S
C1720 C1719 1.383 . S
C1720 C1721 1.377 . S
C1721 H1705 0.930 . S
C1721 C1720 1.377 . S
C1721 C1722 1.379 . S
C1722 H1706 0.931 . S
C1722 C1716 1.383 . S
C1722 C1721 1.379 . S
H1723 C1717 0.959 . S
H1724 C1717 0.961 . S
H1725 C1717 0.960 . S
H1726 C1718 0.930 . S
H1727 C1719 0.929 . S
H1728 C1736 0.929 . S
H1729 C1738 0.930 1_565 S
H1730 C1740 0.930 . S
H1731 C1743 0.929 . S
H1732 C1746 0.930 . S
H1733 C1748 0.960 . S
H1734 C1748 0.960 . S
H1735 C1748 0.960 . S
C1736 H1728 0.929 . S
C1736 C1737 1.377 . S
C1736 C1738 1.384 . S
C1737 C1736 1.377 . S
C1737 C1743 1.390 . S
C1738 H1729 0.930 1_545 S
C1738 C1736 1.384 . S
C1738 C1739 1.372 1_545 S
C1739 C1738 1.372 1_565 S
C1739 C1740 1.400 1_565 S
C1739 C1744 1.490 . S
C1740 H1730 0.930 . S
C1740 C1739 1.400 1_545 S
C1740 C1743 1.386 . S
H1741 C1757 0.930 . S
H1742 C1758 0.931 . S
C1743 H1731 0.929 . S
C1743 C1737 1.390 . S
C1743 C1740 1.386 . S
C1744 C1739 1.490 . S
C1744 C1746 1.395 . S
C1744 C1747 1.403 . S
H1745 C1751 0.930 . S
C1746 H1732 0.930 . S
C1746 C1744 1.395 . S
C1746 C1749 1.403 . S
C1747 C1744 1.403 . S
C1747 C1748 1.524 . S
C1747 C1751 1.400 . S
C1748 H1733 0.960 . S
C1748 H1734 0.960 . S
C1748 H1735 0.960 . S
C1748 C1747 1.524 . S
C1749 C1746 1.403 . S
C1749 C1750 1.392 . S
C1749 C1753 1.495 . S
C1750 C1749 1.392 . S
C1750 C1751 1.385 . S
C1750 C1752 1.478 . S
C1751 H1745 0.930 . S
C1751 C1747 1.400 . S
C1751 C1750 1.385 . S
C1752 C1750 1.478 . S
C1752 C1754 1.381 . S
C1752 C1758 1.383 . S
C1753 C1749 1.495 . S
C1753 H1759 0.959 . S
C1753 H1760 0.961 . S
C1753 H1761 0.960 . S
C1754 C1752 1.381 . S
C1754 C1755 1.394 . S
C1754 H1762 0.930 . S
C1755 C1754 1.394 . S
C1755 C1756 1.383 . S
C1755 H1763 0.929 . S
C1756 C1755 1.383 . S
C1756 C1757 1.377 . S
C1757 H1741 0.930 . S
C1757 C1756 1.377 . S
C1757 C1758 1.379 . S
C1758 H1742 0.931 . S
C1758 C1752 1.383 . S
C1758 C1757 1.379 . S
H1759 C1753 0.959 . S
H1760 C1753 0.961 . S
H1761 C1753 0.960 . S
H1762 C1754 0.930 . S
H1763 C1755 0.929 . S
H1764 C1772 0.929 . S
H1765 C1774 0.930 . S
H1766 C1776 0.930 . S
H1767 C1779 0.929 . S
H1768 C1782 0.930 . S
H1769 C1784 0.960 . S
H1770 C1784 0.960 . S
H1771 C1784 0.960 . S
C1772 H1764 0.929 . S
C1772 C1773 1.377 . S
C1772 C1774 1.384 1_655 S
C1773 C1772 1.377 . S
C1773 C1779 1.390 . S
C1774 H1765 0.930 . S
C1774 C1772 1.384 1_455 S
C1774 C1775 1.372 . S
C1775 C1774 1.372 . S
C1775 C1776 1.400 . S
C1775 C1780 1.490 . S
C1776 H1766 0.930 . S
C1776 C1775 1.400 . S
C1776 C1779 1.386 1_455 S
H1777 C1793 0.930 . S
H1778 C1794 0.931 . S
C1779 H1767 0.929 . S
C1779 C1773 1.390 . S
C1779 C1776 1.386 1_655 S
C1780 C1775 1.490 . S
C1780 C1782 1.395 . S
C1780 C1783 1.403 . S
H1781 C1787 0.930 . S
C1782 H1768 0.930 . S
C1782 C1780 1.395 . S
C1782 C1785 1.403 . S
C1783 C1780 1.403 . S
C1783 C1784 1.524 . S
C1783 C1787 1.400 . S
C1784 H1769 0.960 . S
C1784 H1770 0.960 . S
C1784 H1771 0.960 . S
C1784 C1783 1.524 . S
C1785 C1782 1.403 . S
C1785 C1786 1.392 . S
C1785 C1789 1.495 . S
C1786 C1785 1.392 . S
C1786 C1787 1.385 . S
C1786 C1788 1.478 . S
C1787 H1781 0.930 . S
C1787 C1783 1.400 . S
C1787 C1786 1.385 . S
C1788 C1786 1.478 . S
C1788 C1790 1.381 . S
C1788 C1794 1.383 . S
C1789 C1785 1.495 . S
C1789 H1795 0.959 . S
C1789 H1796 0.961 . S
C1789 H1797 0.960 . S
C1790 C1788 1.381 . S
C1790 C1791 1.394 . S
C1790 H1798 0.930 . S
C1791 C1790 1.394 . S
C1791 C1792 1.383 . S
C1791 H1799 0.929 . S
C1792 C1791 1.383 . S
C1792 C1793 1.377 . S
C1793 H1777 0.930 . S
C1793 C1792 1.377 . S
C1793 C1794 1.379 . S
C1794 H1778 0.931 . S
C1794 C1788 1.383 . S
C1794 C1793 1.379 . S
H1795 C1789 0.959 . S
H1796 C1789 0.961 . S
H1797 C1789 0.960 . S
H1798 C1790 0.930 . S
H1799 C1791 0.929 . S
H1800 C1808 0.929 . S
H1801 C1810 0.930 . S
H1802 C1812 0.930 . S
H1803 C1815 0.929 . S
H1804 C1818 0.930 . S
H1805 C1820 0.960 . S
H1806 C1820 0.960 . S
H1807 C1820 0.960 . S
C1808 H1800 0.929 . S
C1808 C1809 1.377 . S
C1808 C1810 1.384 . S
C1809 C1808 1.377 . S
C1809 C1815 1.390 . S
C1810 H1801 0.930 . S
C1810 C1808 1.384 . S
C1810 C1811 1.372 . S
C1811 C1810 1.372 . S
C1811 C1812 1.400 . S
C1811 C1816 1.490 . S
C1812 H1802 0.930 . S
C1812 C1811 1.400 . S
C1812 C1815 1.386 . S
H1813 C1829 0.930 . S
H1814 C1830 0.931 . S
C1815 H1803 0.929 . S
C1815 C1809 1.390 . S
C1815 C1812 1.386 . S
C1816 C1811 1.490 . S
C1816 C1818 1.395 . S
C1816 C1819 1.403 . S
H1817 C1823 0.930 . S
C1818 H1804 0.930 . S
C1818 C1816 1.395 . S
C1818 C1821 1.403 . S
C1819 C1816 1.403 . S
C1819 C1820 1.524 . S
C1819 C1823 1.400 . S
C1820 H1805 0.960 . S
C1820 H1806 0.960 . S
C1820 H1807 0.960 . S
C1820 C1819 1.524 . S
C1821 C1818 1.403 . S
C1821 C1822 1.392 . S
C1821 C1825 1.495 . S
C1822 C1821 1.392 . S
C1822 C1823 1.385 . S
C1822 C1824 1.478 . S
C1823 H1817 0.930 . S
C1823 C1819 1.400 . S
C1823 C1822 1.385 . S
C1824 C1822 1.478 . S
C1824 C1826 1.381 . S
C1824 C1830 1.383 . S
C1825 C1821 1.495 . S
C1825 H1831 0.959 . S
C1825 H1832 0.961 . S
C1825 H1833 0.960 . S
C1826 C1824 1.381 . S
C1826 C1827 1.394 . S
C1826 H1834 0.930 . S
C1827 C1826 1.394 . S
C1827 C1828 1.383 . S
C1827 H1835 0.929 . S
C1828 C1827 1.383 . S
C1828 C1829 1.377 . S
C1829 H1813 0.930 . S
C1829 C1828 1.377 . S
C1829 C1830 1.379 . S
C1830 H1814 0.931 . S
C1830 C1824 1.383 . S
C1830 C1829 1.379 . S
H1831 C1825 0.959 . S
H1832 C1825 0.961 . S
H1833 C1825 0.960 . S
H1834 C1826 0.930 . S
H1835 C1827 0.929 . S
H1836 C1844 0.929 . S
H1837 C1846 0.930 . S
H1838 C1848 0.930 . S
H1839 C1851 0.929 . S
H1840 C1854 0.930 . S
H1841 C1856 0.960 . S
H1842 C1856 0.960 . S
H1843 C1856 0.960 . S
C1844 H1836 0.929 . S
C1844 C1845 1.377 . S
C1844 C1846 1.384 . S
C1845 C1844 1.377 . S
C1845 C1851 1.390 . S
C1846 H1837 0.930 . S
C1846 C1844 1.384 . S
C1846 C1847 1.372 . S
C1847 C1846 1.372 . S
C1847 C1848 1.400 . S
C1847 C1852 1.490 . S
C1848 H1838 0.930 . S
C1848 C1847 1.400 . S
C1848 C1851 1.386 . S
H1849 C1865 0.930 . S
H1850 C1866 0.931 . S
C1851 H1839 0.929 . S
C1851 C1845 1.390 . S
C1851 C1848 1.386 . S
C1852 C1847 1.490 . S
C1852 C1854 1.395 . S
C1852 C1855 1.403 . S
H1853 C1859 0.930 . S
C1854 H1840 0.930 . S
C1854 C1852 1.395 . S
C1854 C1857 1.403 . S
C1855 C1852 1.403 . S
C1855 C1856 1.524 . S
C1855 C1859 1.400 . S
C1856 H1841 0.960 . S
C1856 H1842 0.960 . S
C1856 H1843 0.960 . S
C1856 C1855 1.524 . S
C1857 C1854 1.403 . S
C1857 C1858 1.392 . S
C1857 C1861 1.495 . S
C1858 C1857 1.392 . S
C1858 C1859 1.385 . S
C1858 C1860 1.478 . S
C1859 H1853 0.930 . S
C1859 C1855 1.400 . S
C1859 C1858 1.385 . S
C1860 C1858 1.478 . S
C1860 C1862 1.381 . S
C1860 C1866 1.383 . S
C1861 C1857 1.495 . S
C1861 H1867 0.959 . S
C1861 H1868 0.961 . S
C1861 H1869 0.960 . S
C1862 C1860 1.381 . S
C1862 C1863 1.394 . S
C1862 H1870 0.930 . S
C1863 C1862 1.394 . S
C1863 C1864 1.383 . S
C1863 H1871 0.929 . S
C1864 C1863 1.383 . S
C1864 C1865 1.377 . S
C1865 H1849 0.930 . S
C1865 C1864 1.377 . S
C1865 C1866 1.379 . S
C1866 H1850 0.931 . S
C1866 C1860 1.383 . S
C1866 C1865 1.379 . S
H1867 C1861 0.959 . S
H1868 C1861 0.961 . S
H1869 C1861 0.960 . S
H1870 C1862 0.930 . S
H1871 C1863 0.929 . S
H1872 C1880 0.929 . S
H1873 C1882 0.930 . S
H1874 C1884 0.930 . S
H1875 C1887 0.929 . S
H1876 C1890 0.930 . S
H1877 C1892 0.960 . S
H1878 C1892 0.960 . S
H1879 C1892 0.960 . S
C1880 H1872 0.929 . S
C1880 C1881 1.377 . S
C1880 C1882 1.384 . S
C1881 C1880 1.377 . S
C1881 C1887 1.390 . S
C1882 H1873 0.930 . S
C1882 C1880 1.384 . S
C1882 C1883 1.372 . S
C1883 C1882 1.372 . S
C1883 C1884 1.400 . S
C1883 C1888 1.490 . S
C1884 H1874 0.930 . S
C1884 C1883 1.400 . S
C1884 C1887 1.386 . S
H1885 C1901 0.930 . S
H1886 C1902 0.931 . S
C1887 H1875 0.929 . S
C1887 C1881 1.390 . S
C1887 C1884 1.386 . S
C1888 C1883 1.490 . S
C1888 C1890 1.395 . S
C1888 C1891 1.403 . S
H1889 C1895 0.930 . S
C1890 H1876 0.930 . S
C1890 C1888 1.395 . S
C1890 C1893 1.403 . S
C1891 C1888 1.403 . S
C1891 C1892 1.524 . S
C1891 C1895 1.400 . S
C1892 H1877 0.960 . S
C1892 H1878 0.960 . S
C1892 H1879 0.960 . S
C1892 C1891 1.524 . S
C1893 C1890 1.403 . S
C1893 C1894 1.392 . S
C1893 C1897 1.495 . S
C1894 C1893 1.392 . S
C1894 C1895 1.385 . S
C1894 C1896 1.478 . S
C1895 H1889 0.930 . S
C1895 C1891 1.400 . S
C1895 C1894 1.385 . S
C1896 C1894 1.478 . S
C1896 C1898 1.381 . S
C1896 C1902 1.383 . S
C1897 C1893 1.495 . S
C1897 H1903 0.959 . S
C1897 H1904 0.961 . S
C1897 H1905 0.960 . S
C1898 C1896 1.381 . S
C1898 C1899 1.394 . S
C1898 H1906 0.930 . S
C1899 C1898 1.394 . S
C1899 C1900 1.383 . S
C1899 H1907 0.929 . S
C1900 C1899 1.383 . S
C1900 C1901 1.377 . S
C1901 H1885 0.930 . S
C1901 C1900 1.377 . S
C1901 C1902 1.379 . S
C1902 H1886 0.931 . S
C1902 C1896 1.383 . S
C1902 C1901 1.379 . S
H1903 C1897 0.959 . S
H1904 C1897 0.961 . S
H1905 C1897 0.960 . S
H1906 C1898 0.930 . S
H1907 C1899 0.929 . S
H1908 C1916 0.929 . S
H1909 C1918 0.930 . S
H1910 C1920 0.930 . S
H1911 C1923 0.929 . S
H1912 C1926 0.930 . S
H1913 C1928 0.960 . S
H1914 C1928 0.960 . S
H1915 C1928 0.960 . S
C1916 H1908 0.929 . S
C1916 C1917 1.377 . S
C1916 C1918 1.384 . S
C1917 C1916 1.377 . S
C1917 C1923 1.390 . S
C1918 H1909 0.930 . S
C1918 C1916 1.384 . S
C1918 C1919 1.372 . S
C1919 C1918 1.372 . S
C1919 C1920 1.400 . S
C1919 C1924 1.490 . S
C1920 H1910 0.930 . S
C1920 C1919 1.400 . S
C1920 C1923 1.386 . S
H1921 C1937 0.930 . S
H1922 C1938 0.931 . S
C1923 H1911 0.929 . S
C1923 C1917 1.390 . S
C1923 C1920 1.386 . S
C1924 C1919 1.490 . S
C1924 C1926 1.395 . S
C1924 C1927 1.403 . S
H1925 C1931 0.930 . S
C1926 H1912 0.930 . S
C1926 C1924 1.395 . S
C1926 C1929 1.403 . S
C1927 C1924 1.403 . S
C1927 C1928 1.524 . S
C1927 C1931 1.400 . S
C1928 H1913 0.960 . S
C1928 H1914 0.960 . S
C1928 H1915 0.960 . S
C1928 C1927 1.524 . S
C1929 C1926 1.403 . S
C1929 C1930 1.392 . S
C1929 C1933 1.495 . S
C1930 C1929 1.392 . S
C1930 C1931 1.385 . S
C1930 C1932 1.478 . S
C1931 H1925 0.930 . S
C1931 C1927 1.400 . S
C1931 C1930 1.385 . S
C1932 C1930 1.478 . S
C1932 C1934 1.381 . S
C1932 C1938 1.383 . S
C1933 C1929 1.495 . S
C1933 H1939 0.959 . S
C1933 H1940 0.961 . S
C1933 H1941 0.960 . S
C1934 C1932 1.381 . S
C1934 C1935 1.394 . S
C1934 H1942 0.930 . S
C1935 C1934 1.394 . S
C1935 C1936 1.383 . S
C1935 H1943 0.929 . S
C1936 C1935 1.383 . S
C1936 C1937 1.377 . S
C1937 H1921 0.930 . S
C1937 C1936 1.377 . S
C1937 C1938 1.379 . S
C1938 H1922 0.931 . S
C1938 C1932 1.383 . S
C1938 C1937 1.379 . S
H1939 C1933 0.959 . S
H1940 C1933 0.961 . S
H1941 C1933 0.960 . S
H1942 C1934 0.930 . S
H1943 C1935 0.929 . S
H1944 C1952 0.929 . S
H1945 C1954 0.930 . S
H1946 C1956 0.930 . S
H1947 C1959 0.929 . S
H1948 C1962 0.930 . S
H1949 C1964 0.960 . S
H1950 C1964 0.960 . S
H1951 C1964 0.960 1_565 S
C1952 H1944 0.929 . S
C1952 C1953 1.377 . S
C1952 C1954 1.384 . S
C1953 C1952 1.377 . S
C1953 C1959 1.390 . S
C1954 H1945 0.930 . S
C1954 C1952 1.384 . S
C1954 C1955 1.372 . S
C1955 C1954 1.372 . S
C1955 C1956 1.400 . S
C1955 C1960 1.490 . S
C1956 H1946 0.930 . S
C1956 C1955 1.400 . S
C1956 C1959 1.386 . S
H1957 C1973 0.930 . S
H1958 C1974 0.931 . S
C1959 H1947 0.929 . S
C1959 C1953 1.390 . S
C1959 C1956 1.386 . S
C1960 C1955 1.490 . S
C1960 C1962 1.395 . S
C1960 C1963 1.403 1_565 S
H1961 C1967 0.930 . S
C1962 H1948 0.930 . S
C1962 C1960 1.395 . S
C1962 C1965 1.403 1_565 S
C1963 C1960 1.403 1_545 S
C1963 C1964 1.524 . S
C1963 C1967 1.400 . S
C1964 H1949 0.960 . S
C1964 H1950 0.960 . S
C1964 H1951 0.960 1_545 S
C1964 C1963 1.524 . S
C1965 C1962 1.403 1_545 S
C1965 C1966 1.392 . S
C1965 C1969 1.495 . S
C1966 C1965 1.392 . S
C1966 C1967 1.385 . S
C1966 C1968 1.478 . S
C1967 H1961 0.930 . S
C1967 C1963 1.400 . S
C1967 C1966 1.385 . S
C1968 C1966 1.478 . S
C1968 C1970 1.381 . S
C1968 C1974 1.383 . S
C1969 C1965 1.495 . S
C1969 H1975 0.959 1_545 S
C1969 H1976 0.961 . S
C1969 H1977 0.960 . S
C1970 C1968 1.381 . S
C1970 C1971 1.394 . S
C1970 H1978 0.930 . S
C1971 C1970 1.394 . S
C1971 C1972 1.383 . S
C1971 H1979 0.929 . S
C1972 C1971 1.383 . S
C1972 C1973 1.377 . S
C1973 H1957 0.930 . S
C1973 C1972 1.377 . S
C1973 C1974 1.379 . S
C1974 H1958 0.931 . S
C1974 C1968 1.383 . S
C1974 C1973 1.379 . S
H1975 C1969 0.959 1_565 S
H1976 C1969 0.961 . S
H1977 C1969 0.960 . S
H1978 C1970 0.930 . S
H1979 C1971 0.929 . S
H1980 C1988 0.929 . S
H1981 C1990 0.930 . S
H1982 C1992 0.930 . S
H1983 C1995 0.929 . S
H1984 C1998 0.935 . S
H1985 C2000 0.960 . S
H1986 C2000 0.960 . S
H1987 C2000 0.960 . S
C1988 H1980 0.929 . S
C1988 C1989 1.377 . S
C1988 C1990 1.384 . S
C1989 C1988 1.377 . S
C1989 C1995 1.390 . S
C1990 H1981 0.930 . S
C1990 C1988 1.384 . S
C1990 C1991 1.372 . S
C1991 C1990 1.372 . S
C1991 C1992 1.400 . S
C1991 C1996 1.490 . S
C1992 H1982 0.930 . S
C1992 C1991 1.400 . S
C1992 C1995 1.386 . S
H1993 C2009 0.930 . S
H1994 C2010 0.931 . S
C1995 H1983 0.929 . S
C1995 C1989 1.390 . S
C1995 C1992 1.386 . S
C1996 C1991 1.490 . S
C1996 C1998 1.408 . S
C1996 C1999 1.403 . S
H1997 C2003 0.930 . S
C1998 H1984 0.935 . S
C1998 C1996 1.408 . S
C1998 C2001 1.385 1_455 S
C1999 C1996 1.403 . S
C1999 C2000 1.524 . S
C1999 C2003 1.400 1_455 S
C2000 H1985 0.960 . S
C2000 H1986 0.960 . S
C2000 H1987 0.960 . S
C2000 C1999 1.524 . S
C2001 C1998 1.385 1_655 S
C2001 C2002 1.392 . S
C2001 C2005 1.495 . S
C2002 C2001 1.392 . S
C2002 C2003 1.385 . S
C2002 C2004 1.478 . S
C2003 H1997 0.930 . S
C2003 C1999 1.400 1_655 S
C2003 C2002 1.385 . S
C2004 C2002 1.478 . S
C2004 C2006 1.381 . S
C2004 C2010 1.383 . S
C2005 C2001 1.495 . S
C2005 H2011 0.959 . S
C2005 H2012 0.961 . S
C2005 H2013 0.960 . S
C2006 C2004 1.381 . S
C2006 C2007 1.394 . S
C2006 H2014 0.930 . S
C2007 C2006 1.394 . S
C2007 C2008 1.383 . S
C2007 H2015 0.929 . S
C2008 C2007 1.383 . S
C2008 C2009 1.377 . S
C2009 H1993 0.930 . S
C2009 C2008 1.377 . S
C2009 C2010 1.379 . S
C2010 H1994 0.931 . S
C2010 C2004 1.383 . S
C2010 C2009 1.379 . S
H2011 C2005 0.959 . S
H2012 C2005 0.961 . S
H2013 C2005 0.960 . S
H2014 C2006 0.930 . S
H2015 C2007 0.929 . S
H2016 C2024 0.929 . S
H2017 C2026 0.930 . S
H2018 C2028 0.930 . S
H2019 C2031 0.929 . S
H2020 C2034 0.930 . S
H2021 C2036 0.960 . S
H2022 C2036 0.960 . S
H2023 C2036 0.960 . S
C2024 H2016 0.929 . S
C2024 C2025 1.377 . S
C2024 C2026 1.384 . S
C2025 C2024 1.377 . S
C2025 C2031 1.390 . S
C2026 H2017 0.930 . S
C2026 C2024 1.384 . S
C2026 C2027 1.372 . S
C2027 C2026 1.372 . S
C2027 C2028 1.400 . S
C2027 C2032 1.490 . S
C2028 H2018 0.930 . S
C2028 C2027 1.400 . S
C2028 C2031 1.386 . S
H2029 C2045 0.930 . S
H2030 C2046 0.931 . S
C2031 H2019 0.929 . S
C2031 C2025 1.390 . S
C2031 C2028 1.386 . S
C2032 C2027 1.490 . S
C2032 C2034 1.395 . S
C2032 C2035 1.403 . S
H2033 C2039 0.930 . S
C2034 H2020 0.930 . S
C2034 C2032 1.395 . S
C2034 C2037 1.403 . S
C2035 C2032 1.403 . S
C2035 C2036 1.524 . S
C2035 C2039 1.400 . S
C2036 H2021 0.960 . S
C2036 H2022 0.960 . S
C2036 H2023 0.960 . S
C2036 C2035 1.524 . S
C2037 C2034 1.403 . S
C2037 C2038 1.392 . S
C2037 C2041 1.495 . S
C2038 C2037 1.392 . S
C2038 C2039 1.385 . S
C2038 C2040 1.478 . S
C2039 H2033 0.930 . S
C2039 C2035 1.400 . S
C2039 C2038 1.385 . S
C2040 C2038 1.478 . S
C2040 C2042 1.381 . S
C2040 C2046 1.383 . S
C2041 C2037 1.495 . S
C2041 H2047 0.959 . S
C2041 H2048 0.961 . S
C2041 H2049 0.960 . S
C2042 C2040 1.381 . S
C2042 C2043 1.394 . S
C2042 H2050 0.930 . S
C2043 C2042 1.394 . S
C2043 C2044 1.383 . S
C2043 H2051 0.929 . S
C2044 C2043 1.383 . S
C2044 C2045 1.377 . S
C2045 H2029 0.930 . S
C2045 C2044 1.377 . S
C2045 C2046 1.379 . S
C2046 H2030 0.931 . S
C2046 C2040 1.383 . S
C2046 C2045 1.379 . S
H2047 C2041 0.959 . S
H2048 C2041 0.961 . S
H2049 C2041 0.960 . S
H2050 C2042 0.930 . S
H2051 C2043 0.929 . S
H2052 C2060 0.929 . S
H2053 C2062 0.930 1_655 S
H2054 C2064 0.930 1_655 S
H2055 C2067 0.929 . S
H2056 C2070 0.930 . S
H2057 C2072 0.960 . S
H2058 C2072 0.960 . S
H2059 C2072 0.960 . S
C2060 H2052 0.929 . S
C2060 C2061 1.377 . S
C2060 C2062 1.384 . S
C2061 C2060 1.377 . S
C2061 C2067 1.390 . S
C2062 H2053 0.930 1_455 S
C2062 C2060 1.384 . S
C2062 C2063 1.372 1_455 S
C2063 C2062 1.372 1_655 S
C2063 C2064 1.400 1_655 S
C2063 C2068 1.490 . S
C2064 H2054 0.930 1_455 S
C2064 C2063 1.400 1_455 S
C2064 C2067 1.386 . S
H2065 C2081 0.930 . S
H2066 C2082 0.931 . S
C2067 H2055 0.929 . S
C2067 C2061 1.390 . S
C2067 C2064 1.386 . S
C2068 C2063 1.490 . S
C2068 C2070 1.395 . S
C2068 C2071 1.403 . S
H2069 C2075 0.930 . S
C2070 H2056 0.930 . S
C2070 C2068 1.395 . S
C2070 C2073 1.403 . S
C2071 C2068 1.403 . S
C2071 C2072 1.524 . S
C2071 C2075 1.400 . S
C2072 H2057 0.960 . S
C2072 H2058 0.960 . S
C2072 H2059 0.960 . S
C2072 C2071 1.524 . S
C2073 C2070 1.403 . S
C2073 C2074 1.392 . S
C2073 C2077 1.495 . S
C2074 C2073 1.392 . S
C2074 C2075 1.385 . S
C2074 C2076 1.478 . S
C2075 H2069 0.930 . S
C2075 C2071 1.400 . S
C2075 C2074 1.385 . S
C2076 C2074 1.478 . S
C2076 C2078 1.381 . S
C2076 C2082 1.383 . S
C2077 C2073 1.495 . S
C2077 H2083 0.959 . S
C2077 H2084 0.961 . S
C2077 H2085 0.960 . S
C2078 C2076 1.381 . S
C2078 C2079 1.394 . S
C2078 H2086 0.930 . S
C2079 C2078 1.394 . S
C2079 C2080 1.383 . S
C2079 H2087 0.929 . S
C2080 C2079 1.383 . S
C2080 C2081 1.377 . S
C2081 H2065 0.930 . S
C2081 C2080 1.377 . S
C2081 C2082 1.379 . S
C2082 H2066 0.931 . S
C2082 C2076 1.383 . S
C2082 C2081 1.379 . S
H2083 C2077 0.959 . S
H2084 C2077 0.961 . S
H2085 C2077 0.960 . S
H2086 C2078 0.930 . S
H2087 C2079 0.929 . S
H2088 C2096 0.929 . S
H2089 C2098 0.930 . S
H2090 C2100 0.930 . S
H2091 C2103 0.929 . S
H2092 C2106 0.930 . S
H2093 C2108 0.960 . S
H2094 C2108 0.960 . S
H2095 C2108 0.960 . S
C2096 H2088 0.929 . S
C2096 C2097 1.377 . S
C2096 C2098 1.384 . S
C2097 C2096 1.377 . S
C2097 C2103 1.390 . S
C2098 H2089 0.930 . S
C2098 C2096 1.384 . S
C2098 C2099 1.372 . S
C2099 C2098 1.372 . S
C2099 C2100 1.400 . S
C2099 C2104 1.490 . S
C2100 H2090 0.930 . S
C2100 C2099 1.400 . S
C2100 C2103 1.386 . S
H2101 C2117 0.930 . S
H2102 C2118 0.931 . S
C2103 H2091 0.929 . S
C2103 C2097 1.390 . S
C2103 C2100 1.386 . S
C2104 C2099 1.490 . S
C2104 C2106 1.395 . S
C2104 C2107 1.403 . S
H2105 C2111 0.930 . S
C2106 H2092 0.930 . S
C2106 C2104 1.395 . S
C2106 C2109 1.403 . S
C2107 C2104 1.403 . S
C2107 C2108 1.524 . S
C2107 C2111 1.400 . S
C2108 H2093 0.960 . S
C2108 H2094 0.960 . S
C2108 H2095 0.960 . S
C2108 C2107 1.524 . S
C2109 C2106 1.403 . S
C2109 C2110 1.392 . S
C2109 C2113 1.495 . S
C2110 C2109 1.392 . S
C2110 C2111 1.385 . S
C2110 C2112 1.478 . S
C2111 H2105 0.930 . S
C2111 C2107 1.400 . S
C2111 C2110 1.385 . S
C2112 C2110 1.478 . S
C2112 C2114 1.381 . S
C2112 C2118 1.383 . S
C2113 C2109 1.495 . S
C2113 H2119 0.959 . S
C2113 H2120 0.961 . S
C2113 H2121 0.960 . S
C2114 C2112 1.381 . S
C2114 C2115 1.394 . S
C2114 H2122 0.930 . S
C2115 C2114 1.394 . S
C2115 C2116 1.383 . S
C2115 H2123 0.929 . S
C2116 C2115 1.383 . S
C2116 C2117 1.377 . S
C2117 H2101 0.930 . S
C2117 C2116 1.377 . S
C2117 C2118 1.379 . S
C2118 H2102 0.931 . S
C2118 C2112 1.383 . S
C2118 C2117 1.379 . S
H2119 C2113 0.959 . S
H2120 C2113 0.961 . S
H2121 C2113 0.960 . S
H2122 C2114 0.930 . S
H2123 C2115 0.929 . S
H2124 C2132 0.929 . S
H2125 C2134 0.930 . S
H2126 C2136 0.904 1_545 S
H2127 C2139 0.929 . S
H2128 C2142 0.930 . S
H2129 C2144 0.960 . S
H2130 C2144 0.960 . S
H2131 C2144 0.960 . S
C2132 H2124 0.929 . S
C2132 C2133 1.377 . S
C2132 C2134 1.384 1_565 S
C2133 C2132 1.377 . S
C2133 C2139 1.390 . S
C2134 H2125 0.930 . S
C2134 C2132 1.384 1_545 S
C2134 C2135 1.372 . S
C2135 C2134 1.372 . S
C2135 C2136 1.395 1_545 S
C2135 C2140 1.490 . S
C2136 H2126 0.904 1_565 S
C2136 C2135 1.395 1_565 S
C2136 C2139 1.416 . S
H2137 C2153 0.930 . S
H2138 C2154 0.931 . S
C2139 H2127 0.929 . S
C2139 C2133 1.390 . S
C2139 C2136 1.416 . S
C2140 C2135 1.490 . S
C2140 C2142 1.395 . S
C2140 C2143 1.403 . S
H2141 C2147 0.930 . S
C2142 H2128 0.930 . S
C2142 C2140 1.395 . S
C2142 C2145 1.403 . S
C2143 C2140 1.403 . S
C2143 C2144 1.524 . S
C2143 C2147 1.400 . S
C2144 H2129 0.960 . S
C2144 H2130 0.960 . S
C2144 H2131 0.960 . S
C2144 C2143 1.524 . S
C2145 C2142 1.403 . S
C2145 C2146 1.392 . S
C2145 C2149 1.495 . S
C2146 C2145 1.392 . S
C2146 C2147 1.385 . S
C2146 C2148 1.478 . S
C2147 H2141 0.930 . S
C2147 C2143 1.400 . S
C2147 C2146 1.385 . S
C2148 C2146 1.478 . S
C2148 C2150 1.381 . S
C2148 C2154 1.383 . S
C2149 C2145 1.495 . S
C2149 H2155 0.959 . S
C2149 H2156 0.961 . S
C2149 H2157 0.960 . S
C2150 C2148 1.381 . S
C2150 C2151 1.394 . S
C2150 H2158 0.930 . S
C2151 C2150 1.394 . S
C2151 C2152 1.383 . S
C2151 H2159 0.929 . S
C2152 C2151 1.383 . S
C2152 C2153 1.377 . S
C2153 H2137 0.930 . S
C2153 C2152 1.377 . S
C2153 C2154 1.379 . S
C2154 H2138 0.931 . S
C2154 C2148 1.383 . S
C2154 C2153 1.379 . S
H2155 C2149 0.959 . S
H2156 C2149 0.961 . S
H2157 C2149 0.960 . S
H2158 C2150 0.930 . S
H2159 C2151 0.929 . S
H2160 C2168 0.929 . S
H2161 C2170 0.930 . S
H2162 C2172 0.930 . S
H2163 C2175 0.929 . S
H2164 C2178 0.930 . S
H2165 C2180 0.960 . S
H2166 C2180 0.960 . S
H2167 C2180 0.960 . S
C2168 H2160 0.929 . S
C2168 C2169 1.377 . S
C2168 C2170 1.384 . S
C2169 C2168 1.377 . S
C2169 C2175 1.390 . S
C2170 H2161 0.930 . S
C2170 C2168 1.384 . S
C2170 C2171 1.372 . S
C2171 C2170 1.372 . S
C2171 C2172 1.400 . S
C2171 C2176 1.490 . S
C2172 H2162 0.930 . S
C2172 C2171 1.400 . S
C2172 C2175 1.386 . S
H2173 C2189 0.930 . S
H2174 C2190 0.931 . S
C2175 H2163 0.929 . S
C2175 C2169 1.390 . S
C2175 C2172 1.386 . S
C2176 C2171 1.490 . S
C2176 C2178 1.395 . S
C2176 C2179 1.403 . S
H2177 C2183 0.930 . S
C2178 H2164 0.930 . S
C2178 C2176 1.395 . S
C2178 C2181 1.403 . S
C2179 C2176 1.403 . S
C2179 C2180 1.524 . S
C2179 C2183 1.400 . S
C2180 H2165 0.960 . S
C2180 H2166 0.960 . S
C2180 H2167 0.960 . S
C2180 C2179 1.524 . S
C2181 C2178 1.403 . S
C2181 C2182 1.392 . S
C2181 C2185 1.495 . S
C2182 C2181 1.392 . S
C2182 C2183 1.385 . S
C2182 C2184 1.478 . S
C2183 H2177 0.930 . S
C2183 C2179 1.400 . S
C2183 C2182 1.385 . S
C2184 C2182 1.478 . S
C2184 C2186 1.381 . S
C2184 C2190 1.383 . S
C2185 C2181 1.495 . S
C2185 H2191 0.959 . S
C2185 H2192 0.961 . S
C2185 H2193 0.960 . S
C2186 C2184 1.381 . S
C2186 C2187 1.394 . S
C2186 H2194 0.930 . S
C2187 C2186 1.394 . S
C2187 C2188 1.383 . S
C2187 H2195 0.929 . S
C2188 C2187 1.383 . S
C2188 C2189 1.377 . S
C2189 H2173 0.930 . S
C2189 C2188 1.377 . S
C2189 C2190 1.379 . S
C2190 H2174 0.931 . S
C2190 C2184 1.383 . S
C2190 C2189 1.379 . S
H2191 C2185 0.959 . S
H2192 C2185 0.961 . S
H2193 C2185 0.960 . S
H2194 C2186 0.930 . S
H2195 C2187 0.929 . S
H2196 C2204 0.929 . S
H2197 C2206 0.930 . S
H2198 C2208 0.930 . S
H2199 C2211 0.929 . S
H2200 C2214 0.930 . S
H2201 C2216 0.960 . S
H2202 C2216 0.960 . S
H2203 C2216 0.960 . S
C2204 H2196 0.929 . S
C2204 C2205 1.377 . S
C2204 C2206 1.384 . S
C2205 C2204 1.377 . S
C2205 C2211 1.390 . S
C2206 H2197 0.930 . S
C2206 C2204 1.384 . S
C2206 C2207 1.372 . S
C2207 C2206 1.372 . S
C2207 C2208 1.400 . S
C2207 C2212 1.490 . S
C2208 H2198 0.930 . S
C2208 C2207 1.400 . S
C2208 C2211 1.386 . S
H2209 C2225 0.930 . S
H2210 C2226 0.931 . S
C2211 H2199 0.929 . S
C2211 C2205 1.390 . S
C2211 C2208 1.386 . S
C2212 C2207 1.490 . S
C2212 C2214 1.395 . S
C2212 C2215 1.403 . S
H2213 C2219 0.930 . S
C2214 H2200 0.930 . S
C2214 C2212 1.395 . S
C2214 C2217 1.403 . S
C2215 C2212 1.403 . S
C2215 C2216 1.524 . S
C2215 C2219 1.400 . S
C2216 H2201 0.960 . S
C2216 H2202 0.960 . S
C2216 H2203 0.960 . S
C2216 C2215 1.524 . S
C2217 C2214 1.403 . S
C2217 C2218 1.392 . S
C2217 C2221 1.495 . S
C2218 C2217 1.392 . S
C2218 C2219 1.385 . S
C2218 C2220 1.478 . S
C2219 H2213 0.930 . S
C2219 C2215 1.400 . S
C2219 C2218 1.385 . S
C2220 C2218 1.478 . S
C2220 C2222 1.381 . S
C2220 C2226 1.383 . S
C2221 C2217 1.495 . S
C2221 H2227 0.959 . S
C2221 H2228 0.961 . S
C2221 H2229 0.960 . S
C2222 C2220 1.381 . S
C2222 C2223 1.394 . S
C2222 H2230 0.930 . S
C2223 C2222 1.394 . S
C2223 C2224 1.383 . S
C2223 H2231 0.929 . S
C2224 C2223 1.383 . S
C2224 C2225 1.377 . S
C2225 H2209 0.930 . S
C2225 C2224 1.377 . S
C2225 C2226 1.379 . S
C2226 H2210 0.931 . S
C2226 C2220 1.383 . S
C2226 C2225 1.379 . S
H2227 C2221 0.959 . S
H2228 C2221 0.961 . S
H2229 C2221 0.960 . S
H2230 C2222 0.930 . S
H2231 C2223 0.929 . S
H2232 C2240 0.929 . S
H2233 C2242 0.930 . S
H2234 C2244 0.930 . S
H2235 C2247 0.929 . S
H2236 C2250 0.930 . S
H2237 C2252 0.960 . S
H2238 C2252 0.960 . S
H2239 C2252 0.960 . S
C2240 H2232 0.929 . S
C2240 C2241 1.377 . S
C2240 C2242 1.384 . S
C2241 C2240 1.377 . S
C2241 C2247 1.390 . S
C2242 H2233 0.930 . S
C2242 C2240 1.384 . S
C2242 C2243 1.372 . S
C2243 C2242 1.372 . S
C2243 C2244 1.400 . S
C2243 C2248 1.490 . S
C2244 H2234 0.930 . S
C2244 C2243 1.400 . S
C2244 C2247 1.386 . S
H2245 C2261 0.930 . S
H2246 C2262 0.931 . S
C2247 H2235 0.929 . S
C2247 C2241 1.390 . S
C2247 C2244 1.386 . S
C2248 C2243 1.490 . S
C2248 C2250 1.395 . S
C2248 C2251 1.403 . S
H2249 C2255 0.930 . S
C2250 H2236 0.930 . S
C2250 C2248 1.395 . S
C2250 C2253 1.403 . S
C2251 C2248 1.403 . S
C2251 C2252 1.524 . S
C2251 C2255 1.400 . S
C2252 H2237 0.960 . S
C2252 H2238 0.960 . S
C2252 H2239 0.960 . S
C2252 C2251 1.524 . S
C2253 C2250 1.403 . S
C2253 C2254 1.392 . S
C2253 C2257 1.495 . S
C2254 C2253 1.392 . S
C2254 C2255 1.385 . S
C2254 C2256 1.478 . S
C2255 H2249 0.930 . S
C2255 C2251 1.400 . S
C2255 C2254 1.385 . S
C2256 C2254 1.478 . S
C2256 C2258 1.381 . S
C2256 C2262 1.383 . S
C2257 C2253 1.495 . S
C2257 H2263 0.959 . S
C2257 H2264 0.961 . S
C2257 H2265 0.960 . S
C2258 C2256 1.381 . S
C2258 C2259 1.394 . S
C2258 H2266 0.930 . S
C2259 C2258 1.394 . S
C2259 C2260 1.383 . S
C2259 H2267 0.929 . S
C2260 C2259 1.383 . S
C2260 C2261 1.377 . S
C2261 H2245 0.930 . S
C2261 C2260 1.377 . S
C2261 C2262 1.379 . S
C2262 H2246 0.931 . S
C2262 C2256 1.383 . S
C2262 C2261 1.379 . S
H2263 C2257 0.959 . S
H2264 C2257 0.961 . S
H2265 C2257 0.960 . S
H2266 C2258 0.930 . S
H2267 C2259 0.929 . S
H2268 C2276 0.929 . S
H2269 C2278 0.930 . S
H2270 C2280 0.930 . S
H2271 C2283 0.929 . S
H2272 C2286 0.930 . S
H2273 C2288 0.960 . S
H2274 C2288 0.960 . S
H2275 C2288 0.960 . S
C2276 H2268 0.929 . S
C2276 C2277 1.377 . S
C2276 C2278 1.384 . S
C2277 C2276 1.377 . S
C2277 C2283 1.390 . S
C2278 H2269 0.930 . S
C2278 C2276 1.384 . S
C2278 C2279 1.372 . S
C2279 C2278 1.372 . S
C2279 C2280 1.400 . S
C2279 C2284 1.490 . S
C2280 H2270 0.930 . S
C2280 C2279 1.400 . S
C2280 C2283 1.386 . S
H2281 C2297 0.930 . S
H2282 C2298 0.931 . S
C2283 H2271 0.929 . S
C2283 C2277 1.390 . S
C2283 C2280 1.386 . S
C2284 C2279 1.490 . S
C2284 C2286 1.395 . S
C2284 C2287 1.403 . S
H2285 C2291 0.930 . S
C2286 H2272 0.930 . S
C2286 C2284 1.395 . S
C2286 C2289 1.403 . S
C2287 C2284 1.403 . S
C2287 C2288 1.524 . S
C2287 C2291 1.400 . S
C2288 H2273 0.960 . S
C2288 H2274 0.960 . S
C2288 H2275 0.960 . S
C2288 C2287 1.524 . S
C2289 C2286 1.403 . S
C2289 C2290 1.392 . S
C2289 C2293 1.495 . S
C2290 C2289 1.392 . S
C2290 C2291 1.385 . S
C2290 C2292 1.478 . S
C2291 H2285 0.930 . S
C2291 C2287 1.400 . S
C2291 C2290 1.385 . S
C2292 C2290 1.478 . S
C2292 C2294 1.381 . S
C2292 C2298 1.383 . S
C2293 C2289 1.495 . S
C2293 H2299 0.959 . S
C2293 H2300 0.961 . S
C2293 H2301 0.960 . S
C2294 C2292 1.381 . S
C2294 C2295 1.394 . S
C2294 H2302 0.930 . S
C2295 C2294 1.394 . S
C2295 C2296 1.383 . S
C2295 H2303 0.929 . S
C2296 C2295 1.383 . S
C2296 C2297 1.377 . S
C2297 H2281 0.930 . S
C2297 C2296 1.377 . S
C2297 C2298 1.379 . S
C2298 H2282 0.931 . S
C2298 C2292 1.383 . S
C2298 C2297 1.379 . S
H2299 C2293 0.959 . S
H2300 C2293 0.961 . S
H2301 C2293 0.960 . S
H2302 C2294 0.930 . S
H2303 C2295 0.929 . S
H2304 C2312 0.929 . S
H2305 C2314 0.930 . S
H2306 C2316 0.930 . S
H2307 C2319 0.929 . S
H2308 C2322 0.930 . S
H2309 C2324 0.960 . S
H2310 C2324 0.960 . S
H2311 C2324 0.960 . S
C2312 H2304 0.929 . S
C2312 C2313 1.377 . S
C2312 C2314 1.384 . S
C2313 C2312 1.377 . S
C2313 C2319 1.390 . S
C2314 H2305 0.930 . S
C2314 C2312 1.384 . S
C2314 C2315 1.372 . S
C2315 C2314 1.372 . S
C2315 C2316 1.400 . S
C2315 C2320 1.490 . S
C2316 H2306 0.930 . S
C2316 C2315 1.400 . S
C2316 C2319 1.386 . S
H2317 C2333 0.930 . S
H2318 C2334 0.931 . S
C2319 H2307 0.929 . S
C2319 C2313 1.390 . S
C2319 C2316 1.386 . S
C2320 C2315 1.490 . S
C2320 C2322 1.395 . S
C2320 C2323 1.403 . S
H2321 C2327 0.930 . S
C2322 H2308 0.930 . S
C2322 C2320 1.395 . S
C2322 C2325 1.403 . S
C2323 C2320 1.403 . S
C2323 C2324 1.524 . S
C2323 C2327 1.400 . S
C2324 H2309 0.960 . S
C2324 H2310 0.960 . S
C2324 H2311 0.960 . S
C2324 C2323 1.524 . S
C2325 C2322 1.403 . S
C2325 C2326 1.392 . S
C2325 C2329 1.495 . S
C2326 C2325 1.392 . S
C2326 C2327 1.385 . S
C2326 C2328 1.478 . S
C2327 H2321 0.930 . S
C2327 C2323 1.400 . S
C2327 C2326 1.385 . S
C2328 C2326 1.478 . S
C2328 C2330 1.381 . S
C2328 C2334 1.383 . S
C2329 C2325 1.495 . S
C2329 H2335 0.959 . S
C2329 H2336 0.961 . S
C2329 H2337 0.960 . S
C2330 C2328 1.381 . S
C2330 C2331 1.394 . S
C2330 H2338 0.930 . S
C2331 C2330 1.394 . S
C2331 C2332 1.383 . S
C2331 H2339 0.929 . S
C2332 C2331 1.383 . S
C2332 C2333 1.377 . S
C2333 H2317 0.930 . S
C2333 C2332 1.377 . S
C2333 C2334 1.379 . S
C2334 H2318 0.931 . S
C2334 C2328 1.383 . S
C2334 C2333 1.379 . S
H2335 C2329 0.959 . S
H2336 C2329 0.961 . S
H2337 C2329 0.960 . S
H2338 C2330 0.930 . S
H2339 C2331 0.929 . S
H2340 C2348 0.929 . S
H2341 C2350 0.930 . S
H2342 C2352 0.930 . S
H2343 C2355 0.929 . S
H2344 C2358 0.930 . S
H2345 C2360 0.960 . S
H2346 C2360 0.960 . S
H2347 C2360 0.960 . S
C2348 H2340 0.929 . S
C2348 C2349 1.377 . S
C2348 C2350 1.384 . S
C2349 C2348 1.377 . S
C2349 C2355 1.390 . S
C2350 H2341 0.930 . S
C2350 C2348 1.384 . S
C2350 C2351 1.372 . S
C2351 C2350 1.372 . S
C2351 C2352 1.400 . S
C2351 C2356 1.490 . S
C2352 H2342 0.930 . S
C2352 C2351 1.400 . S
C2352 C2355 1.386 . S
H2353 C2369 0.930 . S
H2354 C2370 0.931 . S
C2355 H2343 0.929 . S
C2355 C2349 1.390 . S
C2355 C2352 1.386 . S
C2356 C2351 1.490 . S
C2356 C2358 1.395 . S
C2356 C2359 1.403 . S
H2357 C2363 0.930 . S
C2358 H2344 0.930 . S
C2358 C2356 1.395 . S
C2358 C2361 1.403 . S
C2359 C2356 1.403 . S
C2359 C2360 1.524 . S
C2359 C2363 1.400 . S
C2360 H2345 0.960 . S
C2360 H2346 0.960 . S
C2360 H2347 0.960 . S
C2360 C2359 1.524 . S
C2361 C2358 1.403 . S
C2361 C2362 1.392 . S
C2361 C2365 1.495 . S
C2362 C2361 1.392 . S
C2362 C2363 1.385 . S
C2362 C2364 1.478 . S
C2363 H2357 0.930 . S
C2363 C2359 1.400 . S
C2363 C2362 1.385 . S
C2364 C2362 1.478 . S
C2364 C2366 1.381 . S
C2364 C2370 1.383 . S
C2365 C2361 1.495 . S
C2365 H2371 0.959 . S
C2365 H2372 0.961 . S
C2365 H2373 0.960 . S
C2366 C2364 1.381 . S
C2366 C2367 1.394 . S
C2366 H2374 0.930 . S
C2367 C2366 1.394 . S
C2367 C2368 1.383 . S
C2367 H2375 0.929 . S
C2368 C2367 1.383 . S
C2368 C2369 1.377 . S
C2369 H2353 0.930 . S
C2369 C2368 1.377 . S
C2369 C2370 1.379 . S
C2370 H2354 0.931 . S
C2370 C2364 1.383 . S
C2370 C2369 1.379 . S
H2371 C2365 0.959 . S
H2372 C2365 0.961 . S
H2373 C2365 0.960 . S
H2374 C2366 0.930 . S
H2375 C2367 0.929 . S
H2376 C2384 0.929 . S
H2377 C2386 0.930 . S
H2378 C2388 0.930 . S
H2379 C2391 0.929 . S
H2380 C2394 0.930 . S
H2381 C2396 0.960 . S
H2382 C2396 0.960 . S
H2383 C2396 0.960 . S
C2384 H2376 0.929 . S
C2384 C2385 1.377 . S
C2384 C2386 1.384 . S
C2385 C2384 1.377 . S
C2385 C2391 1.390 . S
C2386 H2377 0.930 . S
C2386 C2384 1.384 . S
C2386 C2387 1.372 . S
C2387 C2386 1.372 . S
C2387 C2388 1.400 . S
C2387 C2392 1.490 . S
C2388 H2378 0.930 . S
C2388 C2387 1.400 . S
C2388 C2391 1.386 . S
H2389 C2405 0.930 . S
H2390 C2406 0.931 . S
C2391 H2379 0.929 . S
C2391 C2385 1.390 . S
C2391 C2388 1.386 . S
C2392 C2387 1.490 . S
C2392 C2394 1.395 . S
C2392 C2395 1.403 . S
H2393 C2399 0.930 . S
C2394 H2380 0.930 . S
C2394 C2392 1.395 . S
C2394 C2397 1.403 . S
C2395 C2392 1.403 . S
C2395 C2396 1.524 . S
C2395 C2399 1.400 . S
C2396 H2381 0.960 . S
C2396 H2382 0.960 . S
C2396 H2383 0.960 . S
C2396 C2395 1.524 . S
C2397 C2394 1.403 . S
C2397 C2398 1.392 . S
C2397 C2401 1.495 . S
C2398 C2397 1.392 . S
C2398 C2399 1.385 . S
C2398 C2400 1.478 . S
C2399 H2393 0.930 . S
C2399 C2395 1.400 . S
C2399 C2398 1.385 . S
C2400 C2398 1.478 . S
C2400 C2402 1.381 . S
C2400 C2406 1.383 . S
C2401 C2397 1.495 . S
C2401 H2407 0.959 . S
C2401 H2408 0.961 . S
C2401 H2409 0.960 . S
C2402 C2400 1.381 . S
C2402 C2403 1.394 . S
C2402 H2410 0.930 . S
C2403 C2402 1.394 . S
C2403 C2404 1.383 . S
C2403 H2411 0.929 . S
C2404 C2403 1.383 . S
C2404 C2405 1.377 . S
C2405 H2389 0.930 . S
C2405 C2404 1.377 . S
C2405 C2406 1.379 . S
C2406 H2390 0.931 . S
C2406 C2400 1.383 . S
C2406 C2405 1.379 . S
H2407 C2401 0.959 . S
H2408 C2401 0.961 . S
H2409 C2401 0.960 . S
H2410 C2402 0.930 . S
H2411 C2403 0.929 . S
H2412 C2420 0.929 . S
H2413 C2422 0.930 . S
H2414 C2424 0.930 . S
H2415 C2427 0.929 . S
H2416 C2430 0.930 . S
H2417 C2432 0.960 . S
H2418 C2432 0.960 . S
H2419 C2432 0.960 . S
C2420 H2412 0.929 . S
C2420 C2421 1.377 . S
C2420 C2422 1.384 . S
C2421 C2420 1.377 . S
C2421 C2427 1.390 . S
C2422 H2413 0.930 . S
C2422 C2420 1.384 . S
C2422 C2423 1.372 . S
C2423 C2422 1.372 . S
C2423 C2424 1.400 . S
C2423 C2428 1.490 . S
C2424 H2414 0.930 . S
C2424 C2423 1.400 . S
C2424 C2427 1.386 . S
H2425 C2441 0.930 . S
H2426 C2442 0.931 . S
C2427 H2415 0.929 . S
C2427 C2421 1.390 . S
C2427 C2424 1.386 . S
C2428 C2423 1.490 . S
C2428 C2430 1.395 . S
C2428 C2431 1.403 . S
H2429 C2435 0.930 . S
C2430 H2416 0.930 . S
C2430 C2428 1.395 . S
C2430 C2433 1.403 . S
C2431 C2428 1.403 . S
C2431 C2432 1.524 . S
C2431 C2435 1.400 . S
C2432 H2417 0.960 . S
C2432 H2418 0.960 . S
C2432 H2419 0.960 . S
C2432 C2431 1.524 . S
C2433 C2430 1.403 . S
C2433 C2434 1.392 . S
C2433 C2437 1.495 . S
C2434 C2433 1.392 . S
C2434 C2435 1.385 . S
C2434 C2436 1.478 . S
C2435 H2429 0.930 . S
C2435 C2431 1.400 . S
C2435 C2434 1.385 . S
C2436 C2434 1.478 . S
C2436 C2438 1.381 . S
C2436 C2442 1.383 . S
C2437 C2433 1.495 . S
C2437 H2443 0.959 . S
C2437 H2444 0.961 . S
C2437 H2445 0.960 . S
C2438 C2436 1.381 . S
C2438 C2439 1.394 . S
C2438 H2446 0.930 . S
C2439 C2438 1.394 . S
C2439 C2440 1.383 . S
C2439 H2447 0.929 . S
C2440 C2439 1.383 . S
C2440 C2441 1.377 . S
C2441 H2425 0.930 . S
C2441 C2440 1.377 . S
C2441 C2442 1.379 . S
C2442 H2426 0.931 . S
C2442 C2436 1.383 . S
C2442 C2441 1.379 . S
H2443 C2437 0.959 . S
H2444 C2437 0.961 . S
H2445 C2437 0.960 . S
H2446 C2438 0.930 . S
H2447 C2439 0.929 . S
H2448 C2456 0.929 . S
H2449 C2458 0.930 . S
H2450 C2460 0.930 . S
H2451 C2463 0.929 . S
H2452 C2466 0.930 . S
H2453 C2468 0.960 . S
H2454 C2468 0.960 . S
H2455 C2468 0.960 . S
C2456 H2448 0.929 . S
C2456 C2457 1.377 . S
C2456 C2458 1.384 . S
C2457 C2456 1.377 . S
C2457 C2463 1.390 . S
C2458 H2449 0.930 . S
C2458 C2456 1.384 . S
C2458 C2459 1.372 . S
C2459 C2458 1.372 . S
C2459 C2460 1.400 . S
C2459 C2464 1.490 . S
C2460 H2450 0.930 . S
C2460 C2459 1.400 . S
C2460 C2463 1.386 . S
H2461 C2477 0.930 . S
H2462 C2478 0.931 . S
C2463 H2451 0.929 . S
C2463 C2457 1.390 . S
C2463 C2460 1.386 . S
C2464 C2459 1.490 . S
C2464 C2466 1.395 . S
C2464 C2467 1.403 . S
H2465 C2471 0.930 . S
C2466 H2452 0.930 . S
C2466 C2464 1.395 . S
C2466 C2469 1.403 . S
C2467 C2464 1.403 . S
C2467 C2468 1.524 . S
C2467 C2471 1.400 . S
C2468 H2453 0.960 . S
C2468 H2454 0.960 . S
C2468 H2455 0.960 . S
C2468 C2467 1.524 . S
C2469 C2466 1.403 . S
C2469 C2470 1.392 . S
C2469 C2473 1.495 . S
C2470 C2469 1.392 . S
C2470 C2471 1.385 . S
C2470 C2472 1.478 . S
C2471 H2465 0.930 . S
C2471 C2467 1.400 . S
C2471 C2470 1.385 . S
C2472 C2470 1.478 . S
C2472 C2474 1.381 . S
C2472 C2478 1.383 . S
C2473 C2469 1.495 . S
C2473 H2479 0.959 . S
C2473 H2480 0.961 . S
C2473 H2481 0.960 . S
C2474 C2472 1.381 . S
C2474 C2475 1.394 . S
C2474 H2482 0.930 . S
C2475 C2474 1.394 . S
C2475 C2476 1.383 . S
C2475 H2483 0.929 . S
C2476 C2475 1.383 . S
C2476 C2477 1.377 . S
C2477 H2461 0.930 . S
C2477 C2476 1.377 . S
C2477 C2478 1.379 . S
C2478 H2462 0.931 . S
C2478 C2472 1.383 . S
C2478 C2477 1.379 . S
H2479 C2473 0.959 . S
H2480 C2473 0.961 . S
H2481 C2473 0.960 . S
H2482 C2474 0.930 . S
H2483 C2475 0.929 . S
H2484 C2492 0.929 . S
H2485 C2494 0.930 . S
H2486 C2496 0.930 . S
H2487 C2499 0.929 . S
H2488 C2502 0.930 . S
H2489 C2504 0.960 . S
H2490 C2504 0.960 . S
H2491 C2504 0.960 . S
C2492 H2484 0.929 . S
C2492 C2493 1.377 . S
C2492 C2494 1.384 . S
C2493 C2492 1.377 . S
C2493 C2499 1.390 . S
C2494 H2485 0.930 . S
C2494 C2492 1.384 . S
C2494 C2495 1.372 . S
C2495 C2494 1.372 . S
C2495 C2496 1.400 . S
C2495 C2500 1.490 . S
C2496 H2486 0.930 . S
C2496 C2495 1.400 . S
C2496 C2499 1.386 . S
H2497 C2513 0.930 . S
H2498 C2514 0.931 . S
C2499 H2487 0.929 . S
C2499 C2493 1.390 . S
C2499 C2496 1.386 . S
C2500 C2495 1.490 . S
C2500 C2502 1.395 . S
C2500 C2503 1.403 . S
H2501 C2507 0.930 . S
C2502 H2488 0.930 . S
C2502 C2500 1.395 . S
C2502 C2505 1.403 . S
C2503 C2500 1.403 . S
C2503 C2504 1.524 . S
C2503 C2507 1.400 . S
C2504 H2489 0.960 . S
C2504 H2490 0.960 . S
C2504 H2491 0.960 . S
C2504 C2503 1.524 . S
C2505 C2502 1.403 . S
C2505 C2506 1.392 . S
C2505 C2509 1.495 . S
C2506 C2505 1.392 . S
C2506 C2507 1.385 . S
C2506 C2508 1.478 . S
C2507 H2501 0.930 . S
C2507 C2503 1.400 . S
C2507 C2506 1.385 . S
C2508 C2506 1.478 . S
C2508 C2510 1.381 . S
C2508 C2514 1.383 . S
C2509 C2505 1.495 . S
C2509 H2515 0.959 . S
C2509 H2516 0.961 . S
C2509 H2517 0.960 . S
C2510 C2508 1.381 . S
C2510 C2511 1.394 . S
C2510 H2518 0.930 . S
C2511 C2510 1.394 . S
C2511 C2512 1.383 . S
C2511 H2519 0.929 . S
C2512 C2511 1.383 . S
C2512 C2513 1.377 . S
C2513 H2497 0.930 . S
C2513 C2512 1.377 . S
C2513 C2514 1.379 . S
C2514 H2498 0.931 . S
C2514 C2508 1.383 . S
C2514 C2513 1.379 . S
H2515 C2509 0.959 . S
H2516 C2509 0.961 . S
H2517 C2509 0.960 . S
H2518 C2510 0.930 . S
H2519 C2511 0.929 . S
H2520 C2528 0.929 . S
H2521 C2530 0.930 . S
H2522 C2532 0.930 . S
H2523 C2535 0.929 . S
H2524 C2538 0.930 . S
H2525 C2540 0.960 . S
H2526 C2540 0.960 . S
H2527 C2540 0.960 . S
C2528 H2520 0.929 . S
C2528 C2529 1.377 . S
C2528 C2530 1.384 . S
C2529 C2528 1.377 . S
C2529 C2535 1.390 . S
C2530 H2521 0.930 . S
C2530 C2528 1.384 . S
C2530 C2531 1.372 . S
C2531 C2530 1.372 . S
C2531 C2532 1.400 . S
C2531 C2536 1.490 . S
C2532 H2522 0.930 . S
C2532 C2531 1.400 . S
C2532 C2535 1.386 . S
H2533 C2549 0.930 . S
H2534 C2550 0.931 . S
C2535 H2523 0.929 . S
C2535 C2529 1.390 . S
C2535 C2532 1.386 . S
C2536 C2531 1.490 . S
C2536 C2538 1.395 . S
C2536 C2539 1.403 . S
H2537 C2543 0.930 . S
C2538 H2524 0.930 . S
C2538 C2536 1.395 . S
C2538 C2541 1.403 . S
C2539 C2536 1.403 . S
C2539 C2540 1.524 . S
C2539 C2543 1.400 . S
C2540 H2525 0.960 . S
C2540 H2526 0.960 . S
C2540 H2527 0.960 . S
C2540 C2539 1.524 . S
C2541 C2538 1.403 . S
C2541 C2542 1.392 . S
C2541 C2545 1.495 . S
C2542 C2541 1.392 . S
C2542 C2543 1.385 . S
C2542 C2544 1.478 . S
C2543 H2537 0.930 . S
C2543 C2539 1.400 . S
C2543 C2542 1.385 . S
C2544 C2542 1.478 . S
C2544 C2546 1.381 . S
C2544 C2550 1.383 . S
C2545 C2541 1.495 . S
C2545 H2551 0.959 . S
C2545 H2552 0.961 . S
C2545 H2553 0.960 . S
C2546 C2544 1.381 . S
C2546 C2547 1.394 . S
C2546 H2554 0.930 . S
C2547 C2546 1.394 . S
C2547 C2548 1.383 . S
C2547 H2555 0.929 . S
C2548 C2547 1.383 . S
C2548 C2549 1.377 . S
C2549 H2533 0.930 . S
C2549 C2548 1.377 . S
C2549 C2550 1.379 . S
C2550 H2534 0.931 . S
C2550 C2544 1.383 . S
C2550 C2549 1.379 . S
H2551 C2545 0.959 . S
H2552 C2545 0.961 . S
H2553 C2545 0.960 . S
H2554 C2546 0.930 . S
H2555 C2547 0.929 . S
H2556 C2564 0.929 . S
H2557 C2566 0.930 . S
H2558 C2568 0.930 . S
H2559 C2571 0.929 . S
H2560 C2574 0.930 . S
H2561 C2576 0.960 . S
H2562 C2576 0.960 . S
H2563 C2576 0.960 . S
C2564 H2556 0.929 . S
C2564 C2565 1.377 . S
C2564 C2566 1.384 . S
C2565 C2564 1.377 . S
C2565 C2571 1.390 . S
C2566 H2557 0.930 . S
C2566 C2564 1.384 . S
C2566 C2567 1.372 . S
C2567 C2566 1.372 . S
C2567 C2568 1.400 . S
C2567 C2572 1.490 . S
C2568 H2558 0.930 . S
C2568 C2567 1.400 . S
C2568 C2571 1.386 . S
H2569 C2585 0.930 . S
H2570 C2586 0.931 . S
C2571 H2559 0.929 . S
C2571 C2565 1.390 . S
C2571 C2568 1.386 . S
C2572 C2567 1.490 . S
C2572 C2574 1.395 . S
C2572 C2575 1.403 . S
H2573 C2579 0.930 . S
C2574 H2560 0.930 . S
C2574 C2572 1.395 . S
C2574 C2577 1.403 . S
C2575 C2572 1.403 . S
C2575 C2576 1.524 . S
C2575 C2579 1.400 . S
C2576 H2561 0.960 . S
C2576 H2562 0.960 . S
C2576 H2563 0.960 . S
C2576 C2575 1.524 . S
C2577 C2574 1.403 . S
C2577 C2578 1.392 . S
C2577 C2581 1.495 . S
C2578 C2577 1.392 . S
C2578 C2579 1.385 . S
C2578 C2580 1.478 . S
C2579 H2573 0.930 . S
C2579 C2575 1.400 . S
C2579 C2578 1.385 . S
C2580 C2578 1.478 . S
C2580 C2582 1.381 . S
C2580 C2586 1.383 . S
C2581 C2577 1.495 . S
C2581 H2587 0.959 . S
C2581 H2588 0.961 . S
C2581 H2589 0.960 . S
C2582 C2580 1.381 . S
C2582 C2583 1.394 . S
C2582 H2590 0.930 . S
C2583 C2582 1.394 . S
C2583 C2584 1.383 . S
C2583 H2591 0.929 . S
C2584 C2583 1.383 . S
C2584 C2585 1.377 . S
C2585 H2569 0.930 . S
C2585 C2584 1.377 . S
C2585 C2586 1.379 . S
C2586 H2570 0.931 . S
C2586 C2580 1.383 . S
C2586 C2585 1.379 . S
H2587 C2581 0.959 . S
H2588 C2581 0.961 . S
H2589 C2581 0.960 . S
H2590 C2582 0.930 . S
H2591 C2583 0.929 . S
H2592 C2600 0.929 . S
H2593 C2602 0.930 . S
H2594 C2604 0.930 . S
H2595 C2607 0.929 . S
H2596 C2610 0.930 . S
H2597 C2612 0.960 . S
H2598 C2612 0.960 . S
H2599 C2612 0.960 . S
C2600 H2592 0.929 . S
C2600 C2601 1.377 . S
C2600 C2602 1.384 . S
C2601 C2600 1.377 . S
C2601 C2607 1.390 . S
C2602 H2593 0.930 . S
C2602 C2600 1.384 . S
C2602 C2603 1.372 . S
C2603 C2602 1.372 . S
C2603 C2604 1.400 . S
C2603 C2608 1.490 . S
C2604 H2594 0.930 . S
C2604 C2603 1.400 . S
C2604 C2607 1.386 . S
H2605 C2621 0.930 . S
H2606 C2622 0.931 . S
C2607 H2595 0.929 . S
C2607 C2601 1.390 . S
C2607 C2604 1.386 . S
C2608 C2603 1.490 . S
C2608 C2610 1.395 . S
C2608 C2611 1.403 . S
H2609 C2615 0.930 . S
C2610 H2596 0.930 . S
C2610 C2608 1.395 . S
C2610 C2613 1.403 . S
C2611 C2608 1.403 . S
C2611 C2612 1.524 . S
C2611 C2615 1.400 . S
C2612 H2597 0.960 . S
C2612 H2598 0.960 . S
C2612 H2599 0.960 . S
C2612 C2611 1.524 . S
C2613 C2610 1.403 . S
C2613 C2614 1.392 . S
C2613 C2617 1.495 . S
C2614 C2613 1.392 . S
C2614 C2615 1.385 . S
C2614 C2616 1.478 . S
C2615 H2609 0.930 . S
C2615 C2611 1.400 . S
C2615 C2614 1.385 . S
C2616 C2614 1.478 . S
C2616 C2618 1.381 . S
C2616 C2622 1.383 . S
C2617 C2613 1.495 . S
C2617 H2623 0.959 . S
C2617 H2624 0.961 . S
C2617 H2625 0.960 . S
C2618 C2616 1.381 . S
C2618 C2619 1.394 . S
C2618 H2626 0.930 . S
C2619 C2618 1.394 . S
C2619 C2620 1.383 . S
C2619 H2627 0.929 . S
C2620 C2619 1.383 . S
C2620 C2621 1.377 . S
C2621 H2605 0.930 . S
C2621 C2620 1.377 . S
C2621 C2622 1.379 . S
C2622 H2606 0.931 . S
C2622 C2616 1.383 . S
C2622 C2621 1.379 . S
H2623 C2617 0.959 . S
H2624 C2617 0.961 . S
H2625 C2617 0.960 . S
H2626 C2618 0.930 . S
H2627 C2619 0.929 . S
H2628 C2636 0.929 . S
H2629 C2638 0.930 . S
H2630 C2640 0.930 . S
H2631 C2643 0.929 . S
H2632 C2646 0.930 . S
H2633 C2648 0.960 . S
H2634 C2648 0.960 . S
H2635 C2648 0.960 . S
C2636 H2628 0.929 . S
C2636 C2637 1.377 . S
C2636 C2638 1.384 . S
C2637 C2636 1.377 . S
C2637 C2643 1.390 . S
C2638 H2629 0.930 . S
C2638 C2636 1.384 . S
C2638 C2639 1.372 . S
C2639 C2638 1.372 . S
C2639 C2640 1.400 . S
C2639 C2644 1.490 . S
C2640 H2630 0.930 . S
C2640 C2639 1.400 . S
C2640 C2643 1.386 . S
H2641 C2657 0.930 . S
H2642 C2658 0.931 . S
C2643 H2631 0.929 . S
C2643 C2637 1.390 . S
C2643 C2640 1.386 . S
C2644 C2639 1.490 . S
C2644 C2646 1.395 . S
C2644 C2647 1.403 . S
H2645 C2651 0.930 . S
C2646 H2632 0.930 . S
C2646 C2644 1.395 . S
C2646 C2649 1.403 . S
C2647 C2644 1.403 . S
C2647 C2648 1.524 . S
C2647 C2651 1.400 . S
C2648 H2633 0.960 . S
C2648 H2634 0.960 . S
C2648 H2635 0.960 . S
C2648 C2647 1.524 . S
C2649 C2646 1.403 . S
C2649 C2650 1.392 . S
C2649 C2653 1.495 . S
C2650 C2649 1.392 . S
C2650 C2651 1.385 . S
C2650 C2652 1.478 . S
C2651 H2645 0.930 . S
C2651 C2647 1.400 . S
C2651 C2650 1.385 . S
C2652 C2650 1.478 . S
C2652 C2654 1.381 . S
C2652 C2658 1.383 . S
C2653 C2649 1.495 . S
C2653 H2659 0.959 . S
C2653 H2660 0.961 . S
C2653 H2661 0.960 . S
C2654 C2652 1.381 . S
C2654 C2655 1.394 . S
C2654 H2662 0.930 . S
C2655 C2654 1.394 . S
C2655 C2656 1.383 . S
C2655 H2663 0.929 . S
C2656 C2655 1.383 . S
C2656 C2657 1.377 . S
C2657 H2641 0.930 . S
C2657 C2656 1.377 . S
C2657 C2658 1.379 . S
C2658 H2642 0.931 . S
C2658 C2652 1.383 . S
C2658 C2657 1.379 . S
H2659 C2653 0.959 . S
H2660 C2653 0.961 . S
H2661 C2653 0.960 . S
H2662 C2654 0.930 . S
H2663 C2655 0.929 . S
H2664 C2672 0.929 . S
H2665 C2674 0.930 . S
H2666 C2676 0.930 . S
H2667 C2679 0.929 . S
H2668 C2682 0.930 . S
H2669 C2684 0.960 . S
H2670 C2684 0.960 . S
H2671 C2684 0.960 . S
C2672 H2664 0.929 . S
C2672 C2673 1.377 . S
C2672 C2674 1.384 . S
C2673 C2672 1.377 . S
C2673 C2679 1.390 . S
C2674 H2665 0.930 . S
C2674 C2672 1.384 . S
C2674 C2675 1.372 . S
C2675 C2674 1.372 . S
C2675 C2676 1.400 . S
C2675 C2680 1.490 . S
C2676 H2666 0.930 . S
C2676 C2675 1.400 . S
C2676 C2679 1.386 . S
H2677 C2693 0.930 . S
H2678 C2694 0.931 . S
C2679 H2667 0.929 . S
C2679 C2673 1.390 . S
C2679 C2676 1.386 . S
C2680 C2675 1.490 . S
C2680 C2682 1.395 . S
C2680 C2683 1.403 . S
H2681 C2687 0.930 . S
C2682 H2668 0.930 . S
C2682 C2680 1.395 . S
C2682 C2685 1.403 . S
C2683 C2680 1.403 . S
C2683 C2684 1.524 . S
C2683 C2687 1.400 . S
C2684 H2669 0.960 . S
C2684 H2670 0.960 . S
C2684 H2671 0.960 . S
C2684 C2683 1.524 . S
C2685 C2682 1.403 . S
C2685 C2686 1.392 . S
C2685 C2689 1.495 . S
C2686 C2685 1.392 . S
C2686 C2687 1.385 . S
C2686 C2688 1.478 . S
C2687 H2681 0.930 . S
C2687 C2683 1.400 . S
C2687 C2686 1.385 . S
C2688 C2686 1.478 . S
C2688 C2690 1.381 . S
C2688 C2694 1.383 . S
C2689 C2685 1.495 . S
C2689 H2695 0.959 . S
C2689 H2696 0.961 . S
C2689 H2697 0.960 . S
C2690 C2688 1.381 . S
C2690 C2691 1.394 . S
C2690 H2698 0.930 . S
C2691 C2690 1.394 . S
C2691 C2692 1.383 . S
C2691 H2699 0.929 . S
C2692 C2691 1.383 . S
C2692 C2693 1.377 . S
C2693 H2677 0.930 . S
C2693 C2692 1.377 . S
C2693 C2694 1.379 . S
C2694 H2678 0.931 . S
C2694 C2688 1.383 . S
C2694 C2693 1.379 . S
H2695 C2689 0.959 . S
H2696 C2689 0.961 . S
H2697 C2689 0.960 . S
H2698 C2690 0.930 . S
H2699 C2691 0.929 . S
H2700 C2708 0.929 . S
H2701 C2710 0.930 . S
H2702 C2712 0.930 . S
H2703 C2715 0.929 . S
H2704 C2718 0.930 . S
H2705 C2720 0.960 . S
H2706 C2720 0.960 . S
H2707 C2720 0.960 . S
C2708 H2700 0.929 . S
C2708 C2709 1.377 . S
C2708 C2710 1.384 . S
C2709 C2708 1.377 . S
C2709 C2715 1.390 . S
C2710 H2701 0.930 . S
C2710 C2708 1.384 . S
C2710 C2711 1.372 . S
C2711 C2710 1.372 . S
C2711 C2712 1.400 . S
C2711 C2716 1.490 . S
C2712 H2702 0.930 . S
C2712 C2711 1.400 . S
C2712 C2715 1.386 . S
H2713 C2729 0.930 . S
H2714 C2730 0.931 . S
C2715 H2703 0.929 . S
C2715 C2709 1.390 . S
C2715 C2712 1.386 . S
C2716 C2711 1.490 . S
C2716 C2718 1.395 . S
C2716 C2719 1.403 . S
H2717 C2723 0.930 . S
C2718 H2704 0.930 . S
C2718 C2716 1.395 . S
C2718 C2721 1.403 . S
C2719 C2716 1.403 . S
C2719 C2720 1.524 . S
C2719 C2723 1.400 . S
C2720 H2705 0.960 . S
C2720 H2706 0.960 . S
C2720 H2707 0.960 . S
C2720 C2719 1.524 . S
C2721 C2718 1.403 . S
C2721 C2722 1.392 . S
C2721 C2725 1.495 . S
C2722 C2721 1.392 . S
C2722 C2723 1.385 . S
C2722 C2724 1.478 . S
C2723 H2717 0.930 . S
C2723 C2719 1.400 . S
C2723 C2722 1.385 . S
C2724 C2722 1.478 . S
C2724 C2726 1.381 . S
C2724 C2730 1.383 . S
C2725 C2721 1.495 . S
C2725 H2731 0.959 . S
C2725 H2732 0.961 . S
C2725 H2733 0.960 . S
C2726 C2724 1.381 . S
C2726 C2727 1.394 . S
C2726 H2734 0.930 . S
C2727 C2726 1.394 . S
C2727 C2728 1.383 . S
C2727 H2735 0.929 . S
C2728 C2727 1.383 . S
C2728 C2729 1.377 . S
C2729 H2713 0.930 . S
C2729 C2728 1.377 . S
C2729 C2730 1.379 . S
C2730 H2714 0.931 . S
C2730 C2724 1.383 . S
C2730 C2729 1.379 . S
H2731 C2725 0.959 . S
H2732 C2725 0.961 . S
H2733 C2725 0.960 . S
H2734 C2726 0.930 . S
H2735 C2727 0.929 . S
H2736 C2744 0.929 . S
H2737 C2746 0.930 . S
H2738 C2748 0.930 . S
H2739 C2751 0.929 . S
H2740 C2754 0.930 . S
H2741 C2756 0.960 . S
H2742 C2756 0.960 . S
H2743 C2756 0.960 . S
C2744 H2736 0.929 . S
C2744 C2745 1.377 . S
C2744 C2746 1.384 . S
C2745 C2744 1.377 . S
C2745 C2751 1.390 . S
C2746 H2737 0.930 . S
C2746 C2744 1.384 . S
C2746 C2747 1.372 . S
C2747 C2746 1.372 . S
C2747 C2748 1.400 . S
C2747 C2752 1.490 . S
C2748 H2738 0.930 . S
C2748 C2747 1.400 . S
C2748 C2751 1.386 . S
H2749 C2765 0.930 . S
H2750 C2766 0.931 . S
C2751 H2739 0.929 . S
C2751 C2745 1.390 . S
C2751 C2748 1.386 . S
C2752 C2747 1.490 . S
C2752 C2754 1.395 . S
C2752 C2755 1.403 . S
H2753 C2759 0.930 . S
C2754 H2740 0.930 . S
C2754 C2752 1.395 . S
C2754 C2757 1.403 . S
C2755 C2752 1.403 . S
C2755 C2756 1.524 . S
C2755 C2759 1.400 . S
C2756 H2741 0.960 . S
C2756 H2742 0.960 . S
C2756 H2743 0.960 . S
C2756 C2755 1.524 . S
C2757 C2754 1.403 . S
C2757 C2758 1.392 . S
C2757 C2761 1.495 . S
C2758 C2757 1.392 . S
C2758 C2759 1.385 . S
C2758 C2760 1.478 . S
C2759 H2753 0.930 . S
C2759 C2755 1.400 . S
C2759 C2758 1.385 . S
C2760 C2758 1.478 . S
C2760 C2762 1.381 . S
C2760 C2766 1.383 . S
C2761 C2757 1.495 . S
C2761 H2767 0.959 . S
C2761 H2768 0.961 . S
C2761 H2769 0.960 . S
C2762 C2760 1.381 . S
C2762 C2763 1.394 . S
C2762 H2770 0.930 . S
C2763 C2762 1.394 . S
C2763 C2764 1.383 . S
C2763 H2771 0.929 . S
C2764 C2763 1.383 . S
C2764 C2765 1.377 . S
C2765 H2749 0.930 . S
C2765 C2764 1.377 . S
C2765 C2766 1.379 . S
C2766 H2750 0.931 . S
C2766 C2760 1.383 . S
C2766 C2765 1.379 . S
H2767 C2761 0.959 . S
H2768 C2761 0.961 . S
H2769 C2761 0.960 . S
H2770 C2762 0.930 . S
H2771 C2763 0.929 . S
H2772 C2780 0.929 . S
H2773 C2782 0.930 . S
H2774 C2784 0.930 . S
H2775 C2787 0.929 . S
H2776 C2790 0.930 . S
H2777 C2792 0.960 . S
H2778 C2792 0.960 . S
H2779 C2792 0.960 . S
C2780 H2772 0.929 . S
C2780 C2781 1.377 . S
C2780 C2782 1.384 . S
C2781 C2780 1.377 . S
C2781 C2787 1.390 . S
C2782 H2773 0.930 . S
C2782 C2780 1.384 . S
C2782 C2783 1.372 . S
C2783 C2782 1.372 . S
C2783 C2784 1.400 . S
C2783 C2788 1.490 . S
C2784 H2774 0.930 . S
C2784 C2783 1.400 . S
C2784 C2787 1.386 . S
H2785 C2801 0.930 . S
H2786 C2802 0.931 . S
C2787 H2775 0.929 . S
C2787 C2781 1.390 . S
C2787 C2784 1.386 . S
C2788 C2783 1.490 . S
C2788 C2790 1.395 . S
C2788 C2791 1.403 . S
H2789 C2795 0.930 . S
C2790 H2776 0.930 . S
C2790 C2788 1.395 . S
C2790 C2793 1.403 . S
C2791 C2788 1.403 . S
C2791 C2792 1.524 . S
C2791 C2795 1.400 . S
C2792 H2777 0.960 . S
C2792 H2778 0.960 . S
C2792 H2779 0.960 . S
C2792 C2791 1.524 . S
C2793 C2790 1.403 . S
C2793 C2794 1.392 . S
C2793 C2797 1.495 . S
C2794 C2793 1.392 . S
C2794 C2795 1.385 . S
C2794 C2796 1.478 . S
C2795 H2789 0.930 . S
C2795 C2791 1.400 . S
C2795 C2794 1.385 . S
C2796 C2794 1.478 . S
C2796 C2798 1.381 . S
C2796 C2802 1.383 . S
C2797 C2793 1.495 . S
C2797 H2803 0.959 . S
C2797 H2804 0.961 . S
C2797 H2805 0.960 . S
C2798 C2796 1.381 . S
C2798 C2799 1.394 . S
C2798 H2806 0.930 . S
C2799 C2798 1.394 . S
C2799 C2800 1.383 . S
C2799 H2807 0.929 . S
C2800 C2799 1.383 . S
C2800 C2801 1.377 . S
C2801 H2785 0.930 . S
C2801 C2800 1.377 . S
C2801 C2802 1.379 . S
C2802 H2786 0.931 . S
C2802 C2796 1.383 . S
C2802 C2801 1.379 . S
H2803 C2797 0.959 . S
H2804 C2797 0.961 . S
H2805 C2797 0.960 . S
H2806 C2798 0.930 . S
H2807 C2799 0.929 . S
H2808 C2816 0.929 . S
H2809 C2818 0.930 . S
H2810 C2820 0.930 . S
H2811 C2823 0.929 . S
H2812 C2826 0.930 . S
H2813 C2828 0.960 . S
H2814 C2828 0.960 . S
H2815 C2828 0.960 . S
C2816 H2808 0.929 . S
C2816 C2817 1.377 . S
C2816 C2818 1.384 . S
C2817 C2816 1.377 . S
C2817 C2823 1.390 . S
C2818 H2809 0.930 . S
C2818 C2816 1.384 . S
C2818 C2819 1.372 . S
C2819 C2818 1.372 . S
C2819 C2820 1.400 . S
C2819 C2824 1.490 . S
C2820 H2810 0.930 . S
C2820 C2819 1.400 . S
C2820 C2823 1.386 . S
H2821 C2837 0.930 . S
H2822 C2838 0.931 . S
C2823 H2811 0.929 . S
C2823 C2817 1.390 . S
C2823 C2820 1.386 . S
C2824 C2819 1.490 . S
C2824 C2826 1.395 . S
C2824 C2827 1.403 . S
H2825 C2831 0.930 . S
C2826 H2812 0.930 . S
C2826 C2824 1.395 . S
C2826 C2829 1.403 . S
C2827 C2824 1.403 . S
C2827 C2828 1.524 . S
C2827 C2831 1.400 . S
C2828 H2813 0.960 . S
C2828 H2814 0.960 . S
C2828 H2815 0.960 . S
C2828 C2827 1.524 . S
C2829 C2826 1.403 . S
C2829 C2830 1.392 . S
C2829 C2833 1.495 . S
C2830 C2829 1.392 . S
C2830 C2831 1.385 . S
C2830 C2832 1.478 . S
C2831 H2825 0.930 . S
C2831 C2827 1.400 . S
C2831 C2830 1.385 . S
C2832 C2830 1.478 . S
C2832 C2834 1.381 . S
C2832 C2838 1.383 . S
C2833 C2829 1.495 . S
C2833 H2839 0.959 . S
C2833 H2840 0.961 . S
C2833 H2841 0.960 . S
C2834 C2832 1.381 . S
C2834 C2835 1.394 . S
C2834 H2842 0.930 . S
C2835 C2834 1.394 . S
C2835 C2836 1.383 . S
C2835 H2843 0.929 . S
C2836 C2835 1.383 . S
C2836 C2837 1.377 . S
C2837 H2821 0.930 . S
C2837 C2836 1.377 . S
C2837 C2838 1.379 . S
C2838 H2822 0.931 . S
C2838 C2832 1.383 . S
C2838 C2837 1.379 . S
H2839 C2833 0.959 . S
H2840 C2833 0.961 . S
H2841 C2833 0.960 . S
H2842 C2834 0.930 . S
H2843 C2835 0.929 . S
H2844 C2852 0.929 . S
H2845 C2854 0.930 . S
H2846 C2856 0.930 . S
H2847 C2859 0.929 . S
H2848 C2862 0.930 . S
H2849 C2864 0.960 . S
H2850 C2864 0.960 . S
H2851 C2864 0.960 . S
C2852 H2844 0.929 . S
C2852 C2853 1.377 . S
C2852 C2854 1.384 . S
C2853 C2852 1.377 . S
C2853 C2859 1.390 . S
C2854 H2845 0.930 . S
C2854 C2852 1.384 . S
C2854 C2855 1.372 . S
C2855 C2854 1.372 . S
C2855 C2856 1.400 . S
C2855 C2860 1.490 . S
C2856 H2846 0.930 . S
C2856 C2855 1.400 . S
C2856 C2859 1.386 . S
H2857 C2873 0.930 . S
H2858 C2874 0.931 . S
C2859 H2847 0.929 . S
C2859 C2853 1.390 . S
C2859 C2856 1.386 . S
C2860 C2855 1.490 . S
C2860 C2862 1.395 . S
C2860 C2863 1.403 . S
H2861 C2867 0.930 . S
C2862 H2848 0.930 . S
C2862 C2860 1.395 . S
C2862 C2865 1.403 . S
C2863 C2860 1.403 . S
C2863 C2864 1.524 . S
C2863 C2867 1.400 . S
C2864 H2849 0.960 . S
C2864 H2850 0.960 . S
C2864 H2851 0.960 . S
C2864 C2863 1.524 . S
C2865 C2862 1.403 . S
C2865 C2866 1.392 . S
C2865 C2869 1.495 . S
C2866 C2865 1.392 . S
C2866 C2867 1.385 . S
C2866 C2868 1.478 . S
C2867 H2861 0.930 . S
C2867 C2863 1.400 . S
C2867 C2866 1.385 . S
C2868 C2866 1.478 . S
C2868 C2870 1.381 . S
C2868 C2874 1.383 . S
C2869 C2865 1.495 . S
C2869 H2875 0.959 . S
C2869 H2876 0.961 . S
C2869 H2877 0.960 . S
C2870 C2868 1.381 . S
C2870 C2871 1.394 . S
C2870 H2878 0.930 . S
C2871 C2870 1.394 . S
C2871 C2872 1.383 . S
C2871 H2879 0.929 . S
C2872 C2871 1.383 . S
C2872 C2873 1.377 . S
C2873 H2857 0.930 . S
C2873 C2872 1.377 . S
C2873 C2874 1.379 . S
C2874 H2858 0.931 . S
C2874 C2868 1.383 . S
C2874 C2873 1.379 . S
H2875 C2869 0.959 . S
H2876 C2869 0.961 . S
H2877 C2869 0.960 . S
H2878 C2870 0.930 . S
H2879 C2871 0.929 . S
H2880 C2888 0.929 . S
H2881 C2890 0.930 . S
H2882 C2892 0.930 . S
H2883 C2895 0.929 . S
H2884 C2898 0.930 . S
H2885 C2900 0.960 . S
H2886 C2900 0.960 . S
H2887 C2900 0.960 . S
C2888 H2880 0.929 . S
C2888 C2889 1.377 . S
C2888 C2890 1.384 . S
C2889 C2888 1.377 . S
C2889 C2895 1.390 . S
C2890 H2881 0.930 . S
C2890 C2888 1.384 . S
C2890 C2891 1.372 . S
C2891 C2890 1.372 . S
C2891 C2892 1.400 . S
C2891 C2896 1.490 . S
C2892 H2882 0.930 . S
C2892 C2891 1.400 . S
C2892 C2895 1.386 . S
H2893 C2909 0.930 . S
H2894 C2910 0.931 . S
C2895 H2883 0.929 . S
C2895 C2889 1.390 . S
C2895 C2892 1.386 . S
C2896 C2891 1.490 . S
C2896 C2898 1.395 . S
C2896 C2899 1.403 . S
H2897 C2903 0.930 . S
C2898 H2884 0.930 . S
C2898 C2896 1.395 . S
C2898 C2901 1.403 . S
C2899 C2896 1.403 . S
C2899 C2900 1.524 . S
C2899 C2903 1.400 . S
C2900 H2885 0.960 . S
C2900 H2886 0.960 . S
C2900 H2887 0.960 . S
C2900 C2899 1.524 . S
C2901 C2898 1.403 . S
C2901 C2902 1.392 . S
C2901 C2905 1.495 . S
C2902 C2901 1.392 . S
C2902 C2903 1.385 . S
C2902 C2904 1.478 . S
C2903 H2897 0.930 . S
C2903 C2899 1.400 . S
C2903 C2902 1.385 . S
C2904 C2902 1.478 . S
C2904 C2906 1.381 . S
C2904 C2910 1.383 . S
C2905 C2901 1.495 . S
C2905 H2911 0.959 . S
C2905 H2912 0.961 . S
C2905 H2913 0.960 . S
C2906 C2904 1.381 . S
C2906 C2907 1.394 . S
C2906 H2914 0.930 . S
C2907 C2906 1.394 . S
C2907 C2908 1.383 . S
C2907 H2915 0.929 . S
C2908 C2907 1.383 . S
C2908 C2909 1.377 . S
C2909 H2893 0.930 . S
C2909 C2908 1.377 . S
C2909 C2910 1.379 . S
C2910 H2894 0.931 . S
C2910 C2904 1.383 . S
C2910 C2909 1.379 . S
H2911 C2905 0.959 . S
H2912 C2905 0.961 . S
H2913 C2905 0.960 . S
H2914 C2906 0.930 . S
H2915 C2907 0.929 . S
C981 C162 1.431 . S
C1000 C283 1.401 . S
C1017 C174 1.458 . S
C1036 C367 1.372 . S
C1053 C150 1.426 . S
C1072 C447 1.417 . S
C1089 C138 1.398 . S
C1108 C363 1.386 1_556 S
C1144 C451 1.332 . S
C1125 C114 1.406 . S
C1161 C126 1.374 . S
C1180 C279 1.355 1_556 S
C1216 C272 1.453 . S
C1197 C136 1.489 . S
C1252 C356 1.485 . S
C1233 C112 1.511 . S
C1269 C124 1.509 . S
C1288 C458 1.497 1_556 S
C1305 C160 1.467 . S
C1324 C374 1.415 . S
C1341 C172 1.453 . S
C1360 C440 1.372 . S
C1396 C290 1.391 . S
C1377 C148 1.443 . S
C1432 C535 1.401 . S
C1413 C18 1.431 . S
C1449 C30 1.461 . S
C1468 C619 1.417 . S
C1485 C6 1.426 . S
C1504 C699 1.413 . S
C1521 C210 1.401 . S
C1540 C615 1.379 . S
C1557 C186 1.406 . S
C1576 C703 1.320 . S
C1593 C198 1.377 . S
C1612 C531 1.349 . S
C1629 C208 1.483 . S
C1648 C524 1.421 . S
C1665 C184 1.514 . S
C1684 C608 1.473 . S
C1720 C710 1.471 . S
C1701 C196 1.504 . S
C1737 C16 1.474 . S
C1756 C626 1.466 . S
C1792 C692 1.421 . S
C1773 C28 1.457 . S
C1809 C4 1.443 . S
C1828 C542 1.392 . S
C1864 C787 1.381 . S
C1845 C90 1.433 . S
C1881 C102 1.460 . S
C1900 C871 1.422 . S
C1936 C951 1.426 . S
C1917 C78 1.423 . S
C1972 C867 1.379 . S
C1953 C66 1.401 . S
C2008 C955 1.320 . S
C1989 C42 1.407 . S
C2025 C54 1.373 . S
C2044 C783 1.379 . S
C2061 C64 1.490 . S
C2080 C776 1.433 . S
C2097 C40 1.508 . S
C2116 C860 1.456 . S
C2152 C962 1.500 . S
C2133 C52 1.508 . S
C2169 C88 1.474 . S
C2188 C878 1.466 . S
C2205 C100 1.455 . S
C2224 C944 1.364 . S
C2241 C76 1.450 . S
C2260 C794 1.437 . S
C2277 C189 1.554 . S
C2296 C286 1.401 . S
C2332 C370 1.517 . S
C2313 C201 1.640 . S
C2349 C213 1.573 . S
C2368 C442 1.388 . S
C2385 C81 1.606 . S
C2404 C358 1.394 . S
C2421 C93 1.590 . S
C2440 C454 1.437 . S
C2476 C274 1.400 . S
C2457 C105 1.529 . S
C2493 C45 1.554 . S
C2512 C538 1.395 . S
C2529 C57 1.637 . S
C2548 C622 1.453 . S
C2565 C69 1.571 . S
C2584 C694 1.342 . S
C2601 C153 1.608 . S
C2620 C610 1.438 . S
C2656 C706 1.480 . S
C2637 C165 1.589 . S
C2673 C177 1.527 . S
C2692 C526 1.349 . S
C2709 C117 1.554 . S
C2728 C790 1.412 . S
C2745 C129 1.635 . S
C2764 C874 1.449 . S
C2800 C946 1.417 . S
C2781 C141 1.574 . S
C2817 C9 1.605 . S
C2836 C862 1.379 . S
C2853 C21 1.588 . S
C2872 C958 1.461 . S
C2889 C33 1.528 . S
C2908 C778 1.366 . S
