# Generated by pormake.
# Topology pyr, (3,6)-cn, num edge types: 1
# Building blocks:
#     Node 0, Type 0, BuildingBlock: KAKCAD_clean_linker_0, # of connection points: 3
#     Node 1, Type 0, BuildingBlock: KAKCAD_clean_linker_0, # of connection points: 3
#     Node 2, Type 0, BuildingBlock: KAKCAD_clean_linker_0, # of connection points: 3
#     Node 3, Type 0, BuildingBlock: KAKCAD_clean_linker_0, # of connection points: 3
#     Node 4, Type 0, BuildingBlock: KAKCAD_clean_linker_0, # of connection points: 3
#     Node 5, Type 0, BuildingBlock: KAKCAD_clean_linker_0, # of connection points: 3
#     Node 6, Type 0, BuildingBlock: KAKCAD_clean_linker_0, # of connection points: 3
#     Node 7, Type 0, BuildingBlock: KAKCAD_clean_linker_0, # of connection points: 3
#     Node 8, Type 1, BuildingBlock: BETGAK_clean_sbu_0, # of connection points: 6
#     Node 9, Type 1, BuildingBlock: BETGAK_clean_sbu_0, # of connection points: 6
#     Node 10, Type 1, BuildingBlock: BETGAK_clean_sbu_0, # of connection points: 6
#     Node 11, Type 1, BuildingBlock: BETGAK_clean_sbu_0, # of connection points: 6
#     Edge 12, Type (0, 1), BuildingBlock: UVAHIK_clean_linker_0, # of connection points: 2
#     Edge 13, Type (0, 1), BuildingBlock: UVAHIK_clean_linker_0, # of connection points: 2
#     Edge 14, Type (0, 1), BuildingBlock: UVAHIK_clean_linker_0, # of connection points: 2
#     Edge 15, Type (0, 1), BuildingBlock: UVAHIK_clean_linker_0, # of connection points: 2
#     Edge 16, Type (0, 1), BuildingBlock: UVAHIK_clean_linker_0, # of connection points: 2
#     Edge 17, Type (0, 1), BuildingBlock: UVAHIK_clean_linker_0, # of connection points: 2
#     Edge 18, Type (0, 1), BuildingBlock: UVAHIK_clean_linker_0, # of connection points: 2
#     Edge 19, Type (0, 1), BuildingBlock: UVAHIK_clean_linker_0, # of connection points: 2
#     Edge 20, Type (0, 1), BuildingBlock: UVAHIK_clean_linker_0, # of connection points: 2
#     Edge 21, Type (0, 1), BuildingBlock: UVAHIK_clean_linker_0, # of connection points: 2
#     Edge 22, Type (0, 1), BuildingBlock: UVAHIK_clean_linker_0, # of connection points: 2
#     Edge 23, Type (0, 1), BuildingBlock: UVAHIK_clean_linker_0, # of connection points: 2
#     Edge 24, Type (0, 1), BuildingBlock: UVAHIK_clean_linker_0, # of connection points: 2
#     Edge 25, Type (0, 1), BuildingBlock: UVAHIK_clean_linker_0, # of connection points: 2
#     Edge 26, Type (0, 1), BuildingBlock: UVAHIK_clean_linker_0, # of connection points: 2
#     Edge 27, Type (0, 1), BuildingBlock: UVAHIK_clean_linker_0, # of connection points: 2
#     Edge 28, Type (0, 1), BuildingBlock: UVAHIK_clean_linker_0, # of connection points: 2
#     Edge 29, Type (0, 1), BuildingBlock: UVAHIK_clean_linker_0, # of connection points: 2
#     Edge 30, Type (0, 1), BuildingBlock: UVAHIK_clean_linker_0, # of connection points: 2
#     Edge 31, Type (0, 1), BuildingBlock: UVAHIK_clean_linker_0, # of connection points: 2
#     Edge 32, Type (0, 1), BuildingBlock: UVAHIK_clean_linker_0, # of connection points: 2
#     Edge 33, Type (0, 1), BuildingBlock: UVAHIK_clean_linker_0, # of connection points: 2
#     Edge 34, Type (0, 1), BuildingBlock: UVAHIK_clean_linker_0, # of connection points: 2
#     Edge 35, Type (0, 1), BuildingBlock: UVAHIK_clean_linker_0, # of connection points: 2
# Relax obj value: 0.072
# Max RMSD: 0.114
# Mean RMSD: 0.053
data_MOF--net-pyr--node1-BETGAK_clean_sbu_0--node2-KAKCAD_clean_linker_0--edge1-UVAHIK_clean_linker_0
_symmetry_space_group_name_H-M    P1
_symmetry_Int_Tables_number       1
_symmetry_cell_setting            triclinic
loop_
_symmetry_equiv_pos_as_xyz
'x, y, z'
_cell_length_a     57.698987
_cell_length_b     60.219159
_cell_length_c     55.017601
_cell_angle_alpha  91.22473
_cell_angle_beta   88.671854
_cell_angle_gamma 99.084437
loop_
_atom_site_label
_atom_site_type_symbol
_atom_site_fract_x
_atom_site_fract_y
_atom_site_fract_z
_atom_type_partial_charge
C0 C 0.25464 0.24948 0.29953 0.0
C1 C 0.26762 0.23957 0.3163 0.0
C2 C 0.26508 0.25814 0.27797 0.0
C3 C 0.28899 0.25756 0.27274 0.0
C4 C 0.30221 0.24823 0.28996 0.0
C5 C 0.29155 0.23912 0.31145 0.0
C6 C 0.29927 0.26529 0.24867 0.0
C7 C 0.29097 0.28282 0.23687 0.0
C8 C 0.29659 0.28737 0.21236 0.0
C9 C 0.31273 0.27567 0.20015 0.0
C10 C 0.32225 0.25875 0.21198 0.0
C11 C 0.31521 0.25356 0.23615 0.0
C12 C 0.33788 0.24502 0.19866 0.0
C13 C 0.33304 0.23743 0.17468 0.0
C14 C 0.35699 0.2383 0.21035 0.0
C15 C 0.3705 0.22382 0.19862 0.0
C16 C 0.36529 0.2158 0.17488 0.0
C17 C 0.28317 0.30222 0.19907 0.0
C18 C 0.25877 0.30007 0.20294 0.0
C19 C 0.29409 0.31808 0.18233 0.0
C20 C 0.28079 0.33168 0.16996 0.0
C21 C 0.25635 0.32941 0.17393 0.0
C22 C 0.24558 0.31352 0.19064 0.0
C23 C 0.34663 0.22302 0.16291 0.0
H24 H 0.23602 0.24956 0.30252 0.0
H25 H 0.25401 0.26445 0.26499 0.0
H26 H 0.32069 0.24768 0.28671 0.0
H27 H 0.3019 0.23151 0.32413 0.0
H28 H 0.27913 0.29241 0.24647 0.0
H29 H 0.32108 0.23943 0.24465 0.0
H30 H 0.31717 0.27913 0.18122 0.0
H31 H 0.31823 0.24196 0.16528 0.0
H32 H 0.36139 0.2441 0.22869 0.0
H33 H 0.38502 0.21885 0.20817 0.0
H34 H 0.24971 0.28774 0.21535 0.0
H35 H 0.31287 0.32009 0.17899 0.0
H36 H 0.34201 0.21693 0.14471 0.0
H37 H 0.22686 0.31155 0.19442 0.0
H38 H 0.28955 0.34373 0.15709 0.0
C39 C 0.34919 0.92631 0.67684 0.0
C40 C 0.3737 0.93094 0.67421 0.0
C41 C 0.33554 0.91606 0.65796 0.0
C42 C 0.34603 0.91046 0.63581 0.0
C43 C 0.37063 0.91524 0.63312 0.0
C44 C 0.38437 0.92525 0.65224 0.0
C45 C 0.3312 0.89917 0.616 0.0
C46 C 0.3088 0.90476 0.61233 0.0
C47 C 0.29366 0.89278 0.59539 0.0
C48 C 0.30136 0.87566 0.5813 0.0
C49 C 0.3236 0.86977 0.5846 0.0
C50 C 0.33854 0.88169 0.60189 0.0
C51 C 0.33017 0.84987 0.57149 0.0
C52 C 0.31357 0.83023 0.5691 0.0
C53 C 0.35292 0.8501 0.56172 0.0
C54 C 0.35902 0.83087 0.55015 0.0
C55 C 0.34248 0.81112 0.54826 0.0
C56 C 0.26915 0.89683 0.5936 0.0
C57 C 0.25545 0.89893 0.61474 0.0
C58 C 0.25887 0.89718 0.57077 0.0
C59 C 0.23527 0.89928 0.5691 0.0
C60 C 0.22147 0.9011 0.59021 0.0
C61 C 0.23181 0.90108 0.61306 0.0
C62 C 0.31961 0.81114 0.55751 0.0
H63 H 0.34058 0.93007 0.6938 0.0
H64 H 0.31675 0.91206 0.66102 0.0
H65 H 0.37926 0.91133 0.61624 0.0
H66 H 0.40327 0.92867 0.64984 0.0
H67 H 0.30294 0.91835 0.62281 0.0
H68 H 0.35531 0.8765 0.60527 0.0
H69 H 0.28962 0.86629 0.56828 0.0
H70 H 0.29598 0.82938 0.57673 0.0
H71 H 0.366 0.86506 0.56316 0.0
H72 H 0.37685 0.83125 0.54338 0.0
H73 H 0.26286 0.89833 0.63258 0.0
H74 H 0.26909 0.89586 0.55419 0.0
H75 H 0.30645 0.79622 0.55615 0.0
H76 H 0.22154 0.90239 0.62961 0.0
H77 H 0.2279 0.89982 0.55122 0.0
C78 C 0.73512 0.41652 0.88767 0.0
C79 C 0.75412 0.40509 0.89187 0.0
C80 C 0.71461 0.40549 0.87659 0.0
C81 C 0.71228 0.38256 0.86981 0.0
C82 C 0.73122 0.3711 0.87413 0.0
C83 C 0.7519 0.38225 0.88477 0.0
C84 C 0.69009 0.37056 0.85865 0.0
C85 C 0.67957 0.38012 0.83938 0.0
C86 C 0.65862 0.36911 0.82871 0.0
C87 C 0.64823 0.34799 0.83812 0.0
C88 C 0.65846 0.33788 0.85739 0.0
C89 C 0.67942 0.34947 0.86734 0.0
C90 C 0.64742 0.31535 0.86742 0.0
C91 C 0.62286 0.30929 0.8699 0.0
C92 C 0.66148 0.29982 0.87526 0.0
C93 C 0.65144 0.27923 0.88553 0.0
C94 C 0.62691 0.27327 0.8883 0.0
C95 C 0.64796 0.37966 0.80768 0.0
C96 C 0.65018 0.40326 0.80566 0.0
C97 C 0.63585 0.36639 0.78908 0.0
C98 C 0.62653 0.37631 0.76927 0.0
C99 C 0.62919 0.39987 0.76713 0.0
C100 C 0.64114 0.41314 0.78572 0.0
C101 C 0.6128 0.28863 0.88013 0.0
H102 H 0.73621 0.43413 0.89273 0.0
H103 H 0.70036 0.41483 0.87369 0.0
H104 H 0.73014 0.3535 0.86907 0.0
H105 H 0.76606 0.37284 0.88782 0.0
H106 H 0.68826 0.39597 0.83225 0.0
H107 H 0.6872 0.34238 0.88251 0.0
H108 H 0.63214 0.33931 0.83041 0.0
H109 H 0.61133 0.32075 0.86446 0.0
H110 H 0.6804 0.30344 0.87329 0.0
H111 H 0.66301 0.26783 0.89101 0.0
H112 H 0.65875 0.41429 0.81966 0.0
H113 H 0.63395 0.34823 0.78943 0.0
H114 H 0.59388 0.28494 0.88212 0.0
H115 H 0.64324 0.43131 0.78507 0.0
H116 H 0.61767 0.36544 0.75528 0.0
C117 C 0.87297 0.65283 0.26664 0.0
C118 C 0.89739 0.65308 0.26488 0.0
C119 C 0.86279 0.66257 0.28685 0.0
C120 C 0.87676 0.67311 0.30576 0.0
C121 C 0.90122 0.67366 0.30383 0.0
C122 C 0.91137 0.66366 0.28377 0.0
C123 C 0.86582 0.68314 0.32756 0.0
C124 C 0.84546 0.67138 0.33888 0.0
C125 C 0.83499 0.68038 0.35951 0.0
C126 C 0.8453 0.70163 0.36863 0.0
C127 C 0.86556 0.71396 0.35769 0.0
C128 C 0.87571 0.70439 0.33716 0.0
C129 C 0.8759 0.73673 0.3679 0.0
C130 C 0.86137 0.75106 0.37878 0.0
C131 C 0.90031 0.74422 0.3675 0.0
C132 C 0.90982 0.76513 0.37786 0.0
C133 C 0.89529 0.77919 0.38931 0.0
C134 C 0.8133 0.66779 0.37161 0.0
C135 C 0.79562 0.65466 0.35796 0.0
C136 C 0.80978 0.66923 0.397 0.0
C137 C 0.78912 0.65844 0.40825 0.0
C138 C 0.77132 0.64545 0.39462 0.0
C139 C 0.77505 0.64358 0.36928 0.0
C140 C 0.87088 0.77171 0.38951 0.0
H141 H 0.86161 0.64471 0.25259 0.0
H142 H 0.84393 0.66195 0.28759 0.0
H143 H 0.91253 0.68149 0.31807 0.0
H144 H 0.93024 0.66436 0.28299 0.0
H145 H 0.83816 0.65483 0.33198 0.0
H146 H 0.89097 0.71372 0.32815 0.0
H147 H 0.83741 0.70866 0.38443 0.0
H148 H 0.84247 0.7464 0.37909 0.0
H149 H 0.91224 0.73378 0.35954 0.0
H150 H 0.92865 0.77023 0.37677 0.0
H151 H 0.79741 0.6532 0.33839 0.0
H152 H 0.82303 0.67871 0.40837 0.0
H153 H 0.85889 0.7816 0.39833 0.0
H154 H 0.76212 0.63348 0.35804 0.0
H155 H 0.78703 0.6607 0.4277 0.0
C156 C 0.75948 0.78838 0.73838 0.0
C157 C 0.76758 0.81132 0.73442 0.0
C158 C 0.74571 0.78159 0.75899 0.0
C159 C 0.73975 0.7976 0.77602 0.0
C160 C 0.74727 0.82054 0.77163 0.0
C161 C 0.76101 0.8273 0.75113 0.0
C162 C 0.72738 0.79066 0.79929 0.0
C163 C 0.73412 0.7733 0.81273 0.0
C164 C 0.72497 0.76868 0.83628 0.0
C165 C 0.70897 0.78179 0.84648 0.0
C166 C 0.70168 0.79909 0.83314 0.0
C167 C 0.71061 0.80292 0.80931 0.0
C168 C 0.68597 0.8141 0.8444 0.0
C169 C 0.66821 0.80591 0.86142 0.0
C170 C 0.689 0.83705 0.8385 0.0
C171 C 0.67457 0.85129 0.84902 0.0
C172 C 0.65715 0.84311 0.86615 0.0
C173 C 0.73372 0.75122 0.85064 0.0
C174 C 0.73647 0.73047 0.83971 0.0
C175 C 0.74106 0.75577 0.87466 0.0
C176 C 0.75196 0.74033 0.88706 0.0
C177 C 0.75569 0.72001 0.8757 0.0
C178 C 0.74729 0.71503 0.85211 0.0
C179 C 0.65411 0.82035 0.87239 0.0
H180 H 0.76402 0.77566 0.72571 0.0
H181 H 0.73998 0.7638 0.76177 0.0
H182 H 0.74343 0.83331 0.78461 0.0
H183 H 0.76731 0.84508 0.74896 0.0
H184 H 0.74757 0.7642 0.80542 0.0
H185 H 0.70484 0.81579 0.79853 0.0
H186 H 0.70265 0.77878 0.86499 0.0
H187 H 0.66507 0.78833 0.86622 0.0
H188 H 0.70287 0.84428 0.82611 0.0
H189 H 0.67745 0.8689 0.84426 0.0
H190 H 0.73065 0.72636 0.82134 0.0
H191 H 0.73941 0.77172 0.88347 0.0
H192 H 0.6407 0.81373 0.88559 0.0
H193 H 0.74947 0.69933 0.84302 0.0
H194 H 0.75842 0.74478 0.90513 0.0
C195 C 0.66079 0.14326 0.38541 0.0
C196 C 0.65336 0.159 0.37007 0.0
C197 C 0.67183 0.15026 0.40716 0.0
C198 C 0.67551 0.1731 0.41408 0.0
C199 C 0.66722 0.18874 0.39927 0.0
C200 C 0.65634 0.18176 0.37738 0.0
C201 C 0.68937 0.18077 0.43581 0.0
C202 C 0.71078 0.17324 0.43936 0.0
C203 C 0.72463 0.18091 0.45935 0.0
C204 C 0.71697 0.19647 0.4758 0.0
C205 C 0.69544 0.2041 0.47269 0.0
C206 C 0.6817 0.19604 0.45259 0.0
C207 C 0.68748 0.22065 0.49016 0.0
C208 C 0.69225 0.22014 0.51516 0.0
C209 C 0.67524 0.23737 0.48188 0.0
C210 C 0.66778 0.25296 0.49812 0.0
C211 C 0.67276 0.25249 0.5229 0.0
C212 C 0.74687 0.17228 0.46323 0.0
C213 C 0.74784 0.14925 0.46001 0.0
C214 C 0.76709 0.18682 0.47059 0.0
C215 C 0.78774 0.17838 0.47512 0.0
C216 C 0.78851 0.15525 0.47241 0.0
C217 C 0.76844 0.14083 0.46451 0.0
C218 C 0.68518 0.23612 0.53135 0.0
H219 H 0.6589 0.12564 0.38014 0.0
H220 H 0.67791 0.13786 0.41838 0.0
H221 H 0.66997 0.20647 0.40414 0.0
H222 H 0.65061 0.1942 0.36596 0.0
H223 H 0.71698 0.16179 0.42616 0.0
H224 H 0.66482 0.20132 0.45009 0.0
H225 H 0.72782 0.2026 0.49108 0.0
H226 H 0.70126 0.20731 0.5223 0.0
H227 H 0.67174 0.23871 0.46276 0.0
H228 H 0.65848 0.26573 0.49124 0.0
H229 H 0.7325 0.13761 0.45453 0.0
H230 H 0.76693 0.2047 0.47291 0.0
H231 H 0.68914 0.23554 0.55045 0.0
H232 H 0.76861 0.12297 0.46196 0.0
H233 H 0.8029 0.18986 0.48134 0.0
C234 C 0.27737 0.65383 0.18357 0.0
C235 C 0.27361 0.65621 0.1586 0.0
C236 C 0.29819 0.66435 0.1945 0.0
C237 C 0.31614 0.67745 0.18081 0.0
C238 C 0.31247 0.67941 0.15571 0.0
C239 C 0.29156 0.66912 0.14486 0.0
C240 C 0.33824 0.68938 0.19261 0.0
C241 C 0.34825 0.67993 0.21242 0.0
C242 C 0.36858 0.69123 0.22406 0.0
C243 C 0.37904 0.71248 0.21506 0.0
C244 C 0.36984 0.72208 0.19487 0.0
C245 C 0.34939 0.71044 0.1841 0.0
C246 C 0.38141 0.74424 0.18463 0.0
C247 C 0.38855 0.76314 0.19971 0.0
C248 C 0.38477 0.74679 0.15934 0.0
C249 C 0.39473 0.76754 0.14942 0.0
C250 C 0.40142 0.78674 0.16437 0.0
C251 C 0.37885 0.68065 0.24535 0.0
C252 C 0.3644 0.66655 0.26165 0.0
C253 C 0.40322 0.6842 0.24953 0.0
C254 C 0.41269 0.67407 0.26908 0.0
C255 C 0.39826 0.65974 0.2852 0.0
C256 C 0.37389 0.65623 0.28102 0.0
C257 C 0.39821 0.78406 0.18977 0.0
H258 H 0.26392 0.64423 0.19486 0.0
H259 H 0.29993 0.66258 0.21389 0.0
H260 H 0.32587 0.68879 0.14422 0.0
H261 H 0.28959 0.67106 0.12553 0.0
H262 H 0.34048 0.66335 0.21835 0.0
H263 H 0.34179 0.71824 0.16931 0.0
H264 H 0.39448 0.7216 0.22363 0.0
H265 H 0.38606 0.76194 0.21924 0.0
H266 H 0.37984 0.73258 0.14711 0.0
H267 H 0.39734 0.76835 0.12991 0.0
H268 H 0.34554 0.6635 0.25965 0.0
H269 H 0.41521 0.69461 0.23748 0.0
H270 H 0.40266 0.79824 0.20212 0.0
H271 H 0.36193 0.64518 0.2925 0.0
H272 H 0.43146 0.67771 0.27158 0.0
C273 C 0.15844 0.28813 0.6695 0.0
C274 C 0.13437 0.28363 0.66427 0.0
C275 C 0.16847 0.30897 0.67947 0.0
C276 C 0.15471 0.32587 0.68478 0.0
C277 C 0.13056 0.32126 0.67998 0.0
C278 C 0.12055 0.30048 0.66969 0.0
C279 C 0.16579 0.34833 0.69468 0.0
C280 C 0.18715 0.35914 0.68455 0.0
C281 C 0.19834 0.38005 0.6937 0.0
C282 C 0.18771 0.39012 0.71353 0.0
C283 C 0.16622 0.37978 0.724 0.0
C284 C 0.15533 0.35894 0.71422 0.0
C285 C 0.15536 0.39067 0.74528 0.0
C286 C 0.16929 0.40085 0.76441 0.0
C287 C 0.13104 0.39115 0.74665 0.0
C288 C 0.12101 0.4017 0.76638 0.0
C289 C 0.13495 0.41191 0.78549 0.0
C290 C 0.22101 0.39129 0.68235 0.0
C291 C 0.23808 0.37853 0.67376 0.0
C292 C 0.22567 0.41478 0.67954 0.0
C293 C 0.24659 0.42512 0.66829 0.0
C294 C 0.26353 0.41232 0.65943 0.0
C295 C 0.25892 0.38885 0.66243 0.0
C296 C 0.15924 0.41123 0.78423 0.0
H297 H 0.16967 0.27568 0.66542 0.0
H298 H 0.18708 0.31184 0.68311 0.0
H299 H 0.11946 0.33391 0.6837 0.0
H300 H 0.10193 0.29755 0.6661 0.0
H301 H 0.19479 0.3514 0.669 0.0
H302 H 0.13907 0.35059 0.72235 0.0
H303 H 0.19619 0.4061 0.72088 0.0
H304 H 0.18802 0.40064 0.76419 0.0
H305 H 0.11975 0.38364 0.73223 0.0
H306 H 0.10223 0.40168 0.76676 0.0
H307 H 0.23541 0.36046 0.67584 0.0
H308 H 0.21295 0.42522 0.68564 0.0
H309 H 0.17061 0.41905 0.79842 0.0
H310 H 0.27126 0.37827 0.65566 0.0
H311 H 0.24951 0.44324 0.66669 0.0
La312 La 0.01651 0.04079 0.50311 0.0
La313 La 0.01026 1.02113 0.55315 0.0
C314 C 0.01889 0.06538 0.46641 0.0
C315 C 0.03678 0.08356 0.45714 0.0
C316 C 0.0444 0.08255 0.43284 0.0
C317 C 0.06365 0.09759 0.42437 0.0
C318 C 0.07562 0.1141 0.44003 0.0
C319 C 0.06732 0.11564 0.46417 0.0
C320 C 0.04816 0.10044 0.47268 0.0
C321 C 0.0491 1.01768 0.51615 0.0
C322 C 0.03684 0.07011 0.54992 0.0
C323 C 1.00848 0.99593 0.58927 0.0
C324 C 0.99175 0.97624 0.59744 0.0
C325 C 0.97873 0.97799 0.61906 0.0
C326 C 0.96092 0.96067 0.62587 0.0
C327 C 0.95594 0.94111 0.61134 0.0
C328 C 0.96963 0.93887 0.59025 0.0
C329 C 0.98733 0.95634 0.58327 0.0
C330 C 0.97796 0.0446 0.54049 0.0
C331 C 0.98953 0.99194 0.50638 0.0
O332 O 0.02548 0.0456 0.46628 0.0
O333 O 1.0076 0.06939 0.48657 0.0
O334 O 0.04227 1.01862 0.49407 0.0
O335 O 0.0392 0.03069 0.52933 0.0
O336 O 0.02924 0.06985 0.52728 0.0
O337 O 0.03491 0.05132 0.56246 0.0
O338 O 1.00021 1.01495 0.58954 0.0
O339 O 0.02106 0.99339 0.56957 0.0
O340 O 0.98478 0.04335 0.56256 0.0
O341 O 0.98745 0.03146 0.52698 0.0
O342 O 0.99661 0.99216 0.52922 0.0
O343 O 0.99197 1.01065 0.4937 0.0
H344 H 0.03602 0.06951 0.42063 0.0
H345 H 0.06972 0.09561 0.4058 0.0
H346 H 0.07586 0.12836 0.47663 0.0
H347 H 0.04272 0.10152 0.49156 0.0
H348 H 0.98189 0.99309 0.63036 0.0
H349 H 0.95081 0.96266 0.6424 0.0
H350 H 0.96608 0.92396 0.57872 0.0
H351 H 0.99708 0.95447 0.56649 0.0
La352 La 0.5357 0.03522 0.03988 0.0
La353 La 0.49167 1.02139 1.00935 0.0
C354 C 0.57486 0.05013 0.05795 0.0
C355 C 0.58278 0.05852 0.08228 0.0
C356 C 0.58521 0.04356 0.10099 0.0
C357 C 0.5914 0.0517 0.12428 0.0
C358 C 0.59532 0.07495 0.12935 0.0
C359 C 0.59357 0.0899 0.11045 0.0
C360 C 0.58748 0.08177 0.08715 0.0
C361 C 0.50415 1.0024 0.05854 0.0
C362 C 0.49068 0.05494 0.05389 0.0
C363 C 0.45454 1.00051 0.99171 0.0
C364 C 0.44692 0.99667 0.96643 0.0
C365 C 0.44955 1.01442 0.9499 0.0
C366 C 0.44515 1.01009 0.92528 0.0
C367 C 0.43831 0.98795 0.91671 0.0
C368 C 0.43505 0.97029 0.93336 0.0
C369 C 0.43925 0.97465 0.95804 0.0
C370 C 0.51692 0.05907 0.99138 0.0
C371 C 0.53836 1.00536 0.99136 0.0
O372 O 0.56653 0.02865 0.05581 0.0
O373 O 0.56221 0.06259 0.04636 0.0
O374 O 0.51757 1.01751 0.07113 0.0
O375 O 0.50958 1.00554 0.03634 0.0
O376 O 0.51385 0.0591 0.05317 0.0
O377 O 0.47877 0.03781 0.04168 0.0
O378 O 0.45651 1.02121 1.00025 0.0
O379 O 0.47239 0.99081 0.99737 0.0
O380 O 0.49755 0.04865 0.98241 0.0
O381 O 0.52104 0.04763 1.00923 0.0
O382 O 0.51567 1.00443 0.98776 0.0
O383 O 0.54949 1.0171 1.00941 0.0
H384 H 0.58205 1.02553 0.09778 0.0
H385 H 0.59306 0.03976 0.13833 0.0
H386 H 0.5963 0.10791 0.11379 0.0
H387 H 0.58599 0.09371 0.07303 0.0
H388 H 0.45572 0.03156 0.95581 0.0
H389 H 0.448 1.02399 0.91281 0.0
H390 H 0.42953 0.95309 0.92724 0.0
H391 H 0.43726 0.96072 0.97047 0.0
La392 La 0.52018 0.51058 0.50795 0.0
La393 La 0.5124 0.5474 0.54143 0.0
C394 C 0.54027 0.48149 0.48669 0.0
C395 C 0.55086 0.46351 0.49762 0.0
C396 C 0.53948 0.45125 0.51714 0.0
C397 C 0.55092 0.4365 0.52981 0.0
C398 C 0.57404 0.43393 0.52342 0.0
C399 C 0.58533 0.446 0.50372 0.0
C400 C 0.5738 0.46065 0.4909 0.0
C401 C 0.47825 0.50475 0.52931 0.0
C402 C 0.53603 0.50995 0.5643 0.0
C403 C 0.49302 0.57581 0.56525 0.0
C404 C 0.47741 0.59153 0.55836 0.0
C405 C 0.47789 0.61192 0.57121 0.0
C406 C 0.46383 0.62739 0.56404 0.0
C407 C 0.44949 0.62276 0.54368 0.0
C408 C 0.44892 0.60231 0.53094 0.0
C409 C 0.46254 0.58667 0.53843 0.0
C410 C 0.55441 0.55259 0.52029 0.0
C411 C 0.49651 0.54777 0.48507 0.0
O412 O 0.5174 0.47979 0.48878 0.0
O413 O 0.55088 0.50184 0.49182 0.0
O414 O 0.4824 0.49827 0.50723 0.0
O415 O 0.49747 0.51284 0.53891 0.0
O416 O 0.53733 0.50206 0.54165 0.0
O417 O 0.52497 0.52719 0.56925 0.0
O418 O 0.51448 0.58004 0.55645 0.0
O419 O 0.48422 0.55447 0.56334 0.0
O420 O 0.55045 0.55845 0.54267 0.0
O421 O 0.5351 0.54513 0.51053 0.0
O422 O 0.49448 0.5551 0.50789 0.0
O423 O 0.50847 0.53117 0.47995 0.0
H424 H 0.52199 0.45355 0.52314 0.0
H425 H 0.5419 0.42757 0.54505 0.0
H426 H 0.60307 0.44408 0.49823 0.0
H427 H 0.58301 0.47022 0.47617 0.0
H428 H 0.48924 0.61592 0.58663 0.0
H429 H 0.46446 0.64315 0.57408 0.0
H430 H 0.43774 0.59836 0.51537 0.0
H431 H 0.46143 0.57083 0.52859 0.0
La432 La 0.01728 0.50968 0.03203 0.0
La433 La 0.01096 0.55643 1.01198 0.0
C434 C 0.03245 0.47287 0.03325 0.0
C435 C 0.04952 0.46329 0.04742 0.0
C436 C 0.05998 0.47473 0.06785 0.0
C437 C 0.07811 0.46654 0.07953 0.0
C438 C 0.08616 0.44695 0.07073 0.0
C439 C 0.07524 0.43537 0.05054 0.0
C440 C 0.05708 0.44349 0.039 0.0
C441 C 0.99906 0.53437 0.06623 0.0
C442 C 0.05568 0.55344 0.0432 0.0
C443 C 0.99653 0.59226 1.00136 0.0
C444 C 0.97434 0.59906 0.99417 0.0
C445 C 0.9751 0.61667 0.97781 0.0
C446 C 0.95437 0.62297 0.96976 0.0
C447 C 0.93244 0.61181 0.978 0.0
C448 C 0.93169 0.5943 0.99467 0.0
C449 C 0.95251 0.58786 1.00259 0.0
C450 C 0.03623 0.53194 0.98486 0.0
C451 C 0.97 0.5135 1.00509 0.0
O452 O 0.01312 0.47658 0.04466 0.0
O453 O 0.04162 0.48965 1.0195 0.0
O454 O 1.00431 0.51449 0.06978 0.0
O455 O 1.00451 0.53881 0.04442 0.0
O456 O 0.05048 0.53111 0.04189 0.0
O457 O 0.04165 0.5668 0.03457 0.0
O458 O 1.00593 0.57965 0.9855 0.0
O459 O 0.99768 0.58542 1.0237 0.0
O460 O 0.04041 0.55374 0.9867 0.0
O461 O 0.01794 0.52496 0.99726 0.0
O462 O 0.97687 0.53562 1.00354 0.0
O463 O 0.98339 0.49997 1.01453 0.0
H464 H 0.05452 0.49025 0.07436 0.0
H465 H 0.08631 0.47588 0.09494 0.0
H466 H 0.08084 0.42006 0.04358 0.0
H467 H 0.04929 0.43459 1.02312 0.0
H468 H 0.99179 0.62545 0.9711 0.0
H469 H 0.9555 0.6367 0.95717 0.0
H470 H 0.91503 0.5853 1.00116 0.0
H471 H 0.95155 0.57406 1.01507 0.0
C472 C 0.2567 0.20526 0.34138 0.0
C473 C 0.25524 0.22795 0.33743 0.0
C474 C 0.241 0.19274 0.35752 0.0
C475 C 0.19544 0.1957 0.4056 0.0
H476 H 0.16257 0.143 0.37223 0.0
C477 C 0.11673 0.13417 0.44682 0.0
C478 C 0.09737 0.12874 0.43146 0.0
C479 C 0.13779 0.14642 0.43812 0.0
C480 C 0.17163 0.15763 0.3818 0.0
H481 H 0.23783 0.25591 0.34877 0.0
H482 H 0.21048 0.2341 0.37707 0.0
H483 H 0.19815 0.16377 0.35393 0.0
H484 H 0.08477 0.13296 0.39523 0.0
H485 H 0.12169 0.1538 0.37998 0.0
H486 H 0.1684 0.18971 0.43322 0.0
C487 C 0.22365 0.22593 0.3677 0.0
C488 C 0.19215 0.16935 0.37149 0.0
C489 C 0.23919 0.23838 0.35141 0.0
C490 C 0.09943 0.13637 0.40742 0.0
C491 C 0.12055 0.14836 0.39867 0.0
C492 C 0.175 0.18376 0.41609 0.0
C493 C 0.22374 0.20278 0.37013 0.0
C494 C 0.20402 0.18876 0.38303 0.0
C495 C 0.14001 0.15324 0.41383 0.0
C496 C 0.16265 0.16492 0.40397 0.0
H497 H 0.26884 0.1968 0.33074 0.0
H498 H 0.24159 0.17496 0.35925 0.0
H499 H 0.20428 0.2106 0.41488 0.0
H500 H 0.11592 0.12831 0.46533 0.0
H501 H 0.15259 0.14991 0.45013 0.0
C502 C 0.38145 0.95913 0.70811 0.0
C503 C 0.38784 0.94069 0.69501 0.0
C504 C 0.39231 0.96625 0.72991 0.0
C505 C 0.41855 0.94264 0.78047 0.0
H506 H 0.43272 1.00471 0.80281 0.0
C507 C 0.44562 0.96578 0.87912 0.0
C508 C 0.43556 0.98324 0.89034 0.0
C509 C 0.44355 0.96163 0.85414 0.0
C510 C 0.42869 0.98729 0.79688 0.0
H511 H 0.41133 0.91594 0.69363 0.0
H512 H 0.43036 0.92838 0.73198 0.0
H513 H 0.42369 0.99632 0.76013 0.0
H514 H 0.41532 1.00996 0.88436 0.0
H515 H 0.41119 1.00242 0.84083 0.0
H516 H 0.42252 0.93351 0.81726 0.0
C517 C 0.41691 0.93726 0.72536 0.0
C518 C 0.42367 0.98252 0.77244 0.0
C519 C 0.40617 0.93026 0.70338 0.0
C520 C 0.42341 0.9965 0.87612 0.0
C521 C 0.42119 0.99226 0.85117 0.0
C522 C 0.42342 0.9474 0.80492 0.0
C523 C 0.40963 0.95494 0.73913 0.0
C524 C 0.41813 0.96014 0.7641 0.0
C525 C 0.43123 0.97477 0.83988 0.0
C526 C 0.42811 0.96979 0.81351 0.0
H527 H 0.36746 0.96754 0.70189 0.0
H528 H 0.38621 0.97982 0.74021 0.0
H529 H 0.41399 0.92523 0.77464 0.0
H530 H 0.45545 0.95555 0.8896 0.0
H531 H 0.45178 0.94824 0.84597 0.0
C532 C 0.63282 0.42948 0.73436 0.0
C533 C 0.61971 0.41059 0.74565 0.0
C534 C 0.62402 0.43955 0.71438 0.0
C535 C 0.56842 0.44584 0.684 0.0
H536 H 0.60912 0.46599 0.62911 0.0
C537 C 0.54053 0.50311 0.60914 0.0
C538 C 0.5461 0.49844 0.58468 0.0
C539 C 0.5494 0.49198 0.62827 0.0
C540 C 0.59743 0.4604 0.64421 0.0
H541 H 0.5867 0.38778 0.74446 0.0
H542 H 0.5713 0.40542 0.70992 0.0
H543 H 0.62457 0.44744 0.66296 0.0
H544 H 0.56588 0.47831 0.5615 0.0
H545 H 0.5815 0.45912 0.59478 0.0
H546 H 0.54132 0.45894 0.66537 0.0
C547 C 0.5885 0.41244 0.7165 0.0
C548 C 0.60638 0.44989 0.6638 0.0
C549 C 0.59745 0.40216 0.73627 0.0
C550 C 0.56108 0.48239 0.58002 0.0
C551 C 0.57019 0.47143 0.59919 0.0
C552 C 0.55957 0.45664 0.66458 0.0
C553 C 0.60164 0.4313 0.70517 0.0
C554 C 0.59203 0.44241 0.68405 0.0
C555 C 0.56441 0.47595 0.62368 0.0
C556 C 0.5739 0.46412 0.64433 0.0
H557 H 0.6501 0.43641 0.74082 0.0
H558 H 0.63466 0.4541 0.70638 0.0
H559 H 0.5568 0.44052 0.69924 0.0
H560 H 0.52906 0.51528 0.6136 0.0
H561 H 0.54469 0.49618 0.64678 0.0
C562 C 0.90091 0.64447 0.21974 0.0
C563 C 0.90818 0.64201 0.24368 0.0
C564 C 0.91087 0.63387 0.19997 0.0
C565 C 0.94161 0.58572 0.18473 0.0
H566 H 0.96034 0.61708 0.1249 0.0
C567 C 0.99345 0.54477 0.10986 0.0
C568 C 0.98981 0.54877 0.0853 0.0
C569 C 0.98382 0.55693 0.12845 0.0
C570 C 0.95493 0.60788 0.14129 0.0
H571 H 0.93163 0.62617 0.26537 0.0
H572 H 0.94879 0.60759 0.23105 0.0
H573 H 0.94276 0.63649 0.15836 0.0
H574 H 0.97276 0.56853 0.06099 0.0
H575 H 0.95544 0.58964 0.09338 0.0
H576 H 0.95305 0.55698 0.16778 0.0
C577 C 0.93541 0.61779 0.22753 0.0
C578 C 0.94488 0.6191 0.16057 0.0
C579 C 0.92569 0.62863 0.24723 0.0
C580 C 0.97634 0.56542 0.07971 0.0
C581 C 0.96636 0.57748 0.0984 0.0
C582 C 0.95135 0.57444 0.16542 0.0
C583 C 0.92814 0.62022 0.20359 0.0
C584 C 0.9383 0.60824 0.18267 0.0
C585 C 0.96975 0.57327 0.12315 0.0
C586 C 0.95849 0.58536 0.14343 0.0
H587 H 0.88761 0.65477 0.21624 0.0
H588 H 0.90472 0.63604 0.18185 0.0
H589 H 0.93634 0.57664 0.20124 0.0
H590 H 1.00383 0.53211 0.1148 0.0
H591 H 0.98751 0.55346 0.14706 0.0
C592 C 0.38574 0.20141 0.13837 0.0
C593 C 0.37875 0.19934 0.16297 0.0
C594 C 0.39797 0.1856 0.1271 0.0
C595 C 0.40898 0.12727 0.13204 0.0
H596 H 0.46241 0.14705 0.08945 0.0
C597 C 0.45311 0.06642 0.06989 0.0
C598 C 0.47777 0.0703 0.06827 0.0
C599 C 0.441 0.08174 0.08225 0.0
C600 C 0.44761 0.14126 0.10142 0.0
H601 H 0.37892 0.17893 0.19495 0.0
H602 H 0.40046 0.15147 0.17534 0.0
H603 H 0.44158 0.17485 0.10945 0.0
H604 H 0.50903 0.09315 0.07888 0.0
H605 H 0.4879 0.11972 0.10044 0.0
H606 H 0.41515 0.09368 0.12412 0.0
C607 C 0.39639 0.16526 0.16475 0.0
C608 C 0.43554 0.15718 0.11266 0.0
C609 C 0.38429 0.18113 0.17605 0.0
C610 C 0.49004 0.08962 0.07968 0.0
C611 C 0.47793 0.10496 0.09192 0.0
C612 C 0.42098 0.11134 0.12067 0.0
C613 C 0.40334 0.1673 0.14015 0.0
C614 C 0.41611 0.15036 0.12813 0.0
C615 C 0.45328 0.10132 0.09314 0.0
C616 C 0.44047 0.11817 0.10528 0.0
H617 H 0.38186 0.21533 0.12786 0.0
H618 H 0.40293 0.18753 0.10807 0.0
H619 H 0.39394 0.12149 0.14369 0.0
H620 H 0.44311 0.05173 0.0613 0.0
H621 H 0.42199 0.07855 0.08274 0.0
C622 C 0.18782 0.92087 0.60193 0.0
C623 C 0.19667 0.9041 0.5881 0.0
C624 C 0.16582 0.92634 0.59701 0.0
C625 C 0.13072 0.92839 0.54416 0.0
H626 H 0.08794 0.95173 0.5898 0.0
C627 C 0.06327 0.98092 0.51141 0.0
C628 C 0.06173 1.00043 0.5253 0.0
C629 C 0.07475 0.96421 0.52046 0.0
C630 C 0.09976 0.94528 0.57684 0.0
H631 H 0.18859 0.87831 0.56011 0.0
H632 H 0.15017 0.88806 0.55135 0.0
H633 H 0.1166 0.92964 0.60466 0.0
H634 H 0.07062 1.01799 0.55938 0.0
H635 H 0.09156 0.9893 0.57488 0.0
H636 H 0.11511 0.94505 0.51654 0.0
C637 C 0.1604 0.89716 0.56571 0.0
C638 C 0.11603 0.93256 0.58534 0.0
C639 C 0.18238 0.89168 0.57064 0.0
C640 C 0.07167 1.00303 0.54838 0.0
C641 C 0.08336 0.98646 0.55734 0.0
C642 C 0.11462 0.94121 0.5357 0.0
C643 C 0.15235 0.91515 0.57817 0.0
C644 C 0.13211 0.92458 0.56914 0.0
C645 C 0.08515 0.96692 0.54342 0.0
C646 C 0.09947 0.9504 0.55203 0.0
H647 H 0.19849 0.93076 0.61544 0.0
H648 H 0.16017 0.94043 0.60675 0.0
H649 H 0.14313 0.92277 0.53127 0.0
H650 H 0.05539 0.97845 0.49367 0.0
H651 H 0.07556 0.94924 0.50942 0.0
C652 C 0.79844 0.41444 0.89416 0.0
C653 C 0.77607 0.41686 0.90366 0.0
C654 C 0.81898 0.42548 0.90517 0.0
C655 C 0.84237 0.44962 0.96364 0.0
H656 H 0.89301 0.48178 0.92443 0.0
C657 C 0.93638 0.48122 1.00046 0.0
C658 C 0.94688 0.50326 0.9946 0.0
C659 C 0.91516 0.47128 0.98994 0.0
C660 C 0.87902 0.47293 0.93568 0.0
H661 H 0.75803 0.43267 0.93257 0.0
H662 H 0.79382 0.45148 0.95207 0.0
H663 H 0.8571 0.46327 0.90495 0.0
H664 H 0.94289 0.532 0.97288 0.0
H665 H 0.90624 0.51445 0.95416 0.0
H666 H 0.86448 0.45892 0.99432 0.0
C667 C 0.79545 0.44118 0.93592 0.0
C668 C 0.85847 0.46217 0.92447 0.0
C669 C 0.7749 0.43051 0.92463 0.0
C670 C 0.93541 0.51505 0.97793 0.0
C671 C 0.91442 0.50493 0.96706 0.0
C672 C 0.86311 0.46 0.97479 0.0
C673 C 0.81781 0.43891 0.92631 0.0
C674 C 0.83979 0.4504 0.93829 0.0
C675 C 0.90398 0.48287 0.97287 0.0
C676 C 0.88174 0.47189 0.961 0.0
H677 H 0.80007 0.40419 0.87799 0.0
H678 H 0.83585 0.4232 0.89731 0.0
H679 H 0.82846 0.44063 0.97486 0.0
H680 H 0.94458 0.47158 1.0132 0.0
H681 H 0.90775 0.45425 0.99478 0.0
C682 C 0.7489 0.62646 0.43079 0.0
C683 C 0.74898 0.6342 0.40678 0.0
C684 C 0.72799 0.61671 0.44246 0.0
C685 C 0.66233 0.61064 0.43776 0.0
H686 H 0.66353 0.56559 0.48682 0.0
C687 C 0.57749 0.56044 0.48122 0.0
C688 C 0.57687 0.55968 0.50676 0.0
C689 C 0.59842 0.56861 0.46858 0.0
C690 C 0.66292 0.57823 0.47323 0.0
H691 H 0.72643 0.63735 0.3764 0.0
H692 H 0.69049 0.61933 0.39608 0.0
H693 H 0.69972 0.58103 0.46535 0.0
H694 H 0.59785 0.56626 0.539 0.0
H695 H 0.63452 0.57997 0.51693 0.0
H696 H 0.62529 0.60723 0.44536 0.0
C697 C 0.70652 0.62137 0.40628 0.0
C698 C 0.68376 0.58725 0.46094 0.0
C699 C 0.7274 0.63143 0.39473 0.0
C700 C 0.59777 0.56667 0.51933 0.0
C701 C 0.61878 0.57445 0.50668 0.0
C702 C 0.64144 0.60133 0.44977 0.0
C703 C 0.70639 0.61399 0.43044 0.0
C704 C 0.68391 0.60378 0.44311 0.0
C705 C 0.61932 0.5758 0.48116 0.0
C706 C 0.64148 0.58513 0.4678 0.0
H707 H 0.76505 0.6278 0.44072 0.0
H708 H 0.72885 0.61164 0.46112 0.0
H709 H 0.66153 0.6236 0.42462 0.0
H710 H 0.56168 0.55518 0.471 0.0
H711 H 0.59827 0.56924 0.44893 0.0
C712 C 0.21962 0.33371 0.15246 0.0
C713 C 0.24175 0.34344 0.16101 0.0
C714 C 0.20454 0.34703 0.14282 0.0
C715 C 0.2011 0.40126 0.11546 0.0
H716 H 0.13645 0.38908 0.13885 0.0
C717 C 0.12395 0.43145 0.06763 0.0
C718 C 0.10614 0.4387 0.08218 0.0
C719 C 0.14217 0.42256 0.0782 0.0
C720 C 0.15448 0.39289 0.13234 0.0
H721 H 0.26586 0.37471 0.16509 0.0
H722 H 0.23947 0.39809 0.14778 0.0
H723 H 0.16531 0.36804 0.15484 0.0
H724 H 0.09377 0.44287 0.11923 0.0
H725 H 0.12567 0.42728 0.13778 0.0
H726 H 0.1901 0.42598 0.09273 0.0
C727 C 0.23385 0.3801 0.14873 0.0
C728 C 0.17095 0.38066 0.1413 0.0
C729 C 0.24896 0.36672 0.15855 0.0
C730 C 0.10728 0.43745 0.10758 0.0
C731 C 0.12544 0.4284 0.11816 0.0
C732 C 0.18454 0.41341 0.10633 0.0
C733 C 0.21128 0.37041 0.14133 0.0
C734 C 0.19434 0.38448 0.13271 0.0
C735 C 0.14291 0.42061 0.10355 0.0
C736 C 0.161 0.40916 0.11451 0.0
H737 H 0.21376 0.31575 0.15356 0.0
H738 H 0.18747 0.33903 0.13671 0.0
H739 H 0.21901 0.40453 0.10852 0.0
H740 H 0.1237 0.43249 0.04801 0.0
H741 H 0.15525 0.41653 0.06645 0.0
C742 C 0.5951 0.23881 0.89111 0.0
C743 C 0.61623 0.25121 0.89962 0.0
C744 C 0.58537 0.21813 0.90143 0.0
C745 C 0.58697 0.18275 0.9567 0.0
H746 H 0.55672 0.13508 0.91449 0.0
C747 C 0.5511 0.09182 0.99198 0.0
C748 C 0.53009 0.08076 0.98192 0.0
C749 C 0.56258 0.1124 0.98246 0.0
C750 C 0.56482 0.14822 0.92673 0.0
H751 H 0.64323 0.25121 0.92642 0.0
H752 H 0.62654 0.21524 0.94406 0.0
H753 H 0.57411 0.17089 0.89731 0.0
H754 H 0.50474 0.08294 0.95398 0.0
H755 H 0.52423 0.11836 0.9378 0.0
H756 H 0.57752 0.15998 0.98616 0.0
C757 C 0.61735 0.22156 0.92941 0.0
C758 C 0.57486 0.16893 0.91677 0.0
C759 C 0.62714 0.2422 0.91902 0.0
C760 C 0.52095 0.09082 0.96217 0.0
C761 C 0.53231 0.11121 0.95271 0.0
C762 C 0.57685 0.16199 0.96669 0.0
C763 C 0.59633 0.20906 0.92074 0.0
C764 C 0.58598 0.18668 0.93156 0.0
C765 C 0.55339 0.12243 0.96254 0.0
C766 C 0.56537 0.14438 0.95191 0.0
H767 H 0.58616 0.24489 0.87613 0.0
H768 H 0.56903 0.20933 0.89433 0.0
H769 H 0.59511 0.19593 0.96885 0.0
H770 H 0.55871 0.0846 1.0071 0.0
H771 H 0.57884 0.12028 0.99051 0.0
C772 C 0.92783 0.8046 0.41161 0.0
C773 C 0.90539 0.80135 0.40116 0.0
C774 C 0.93699 0.82512 0.42298 0.0
C775 C 0.9198 0.87435 0.45479 0.0
H776 H 0.98216 0.90493 0.43776 0.0
C777 C 0.96911 0.95171 0.50889 0.0
C778 C 0.97879 0.97025 0.49477 0.0
C779 C 0.9598 0.93109 0.49778 0.0
C780 C 0.96472 0.89659 0.44272 0.0
H781 H 0.87552 0.81814 0.39432 0.0
H782 H 0.89108 0.85324 0.41507 0.0
H783 H 0.96688 0.86891 0.41789 0.0
H784 H 0.98646 0.98144 0.45784 0.0
H785 H 0.9708 0.94536 0.43858 0.0
H786 H 0.91781 0.90184 0.47994 0.0
C787 C 0.90151 0.83977 0.41436 0.0
C788 C 0.95603 0.8759 0.43144 0.0
C789 C 0.89253 0.81945 0.40256 0.0
C790 C 0.979 0.9676 0.46929 0.0
C791 C 0.97018 0.94687 0.45823 0.0
C792 C 0.9287 0.89479 0.46647 0.0
C793 C 0.92386 0.84289 0.4247 0.0
C794 C 0.93338 0.86462 0.43718 0.0
C795 C 0.96046 0.92835 0.47231 0.0
C796 C 0.9512 0.90627 0.46042 0.0
H797 H 0.93826 0.79116 0.4115 0.0
H798 H 0.9542 0.82693 0.43093 0.0
H799 H 0.90235 0.86603 0.45972 0.0
H800 H 0.96865 0.95313 0.52854 0.0
H801 H 0.95252 0.91713 0.50915 0.0
C802 C 0.34234 0.76988 0.55089 0.0
C803 C 0.34939 0.79001 0.53846 0.0
C804 C 0.34983 0.75009 0.5429 0.0
C805 C 0.39874 0.73085 0.51011 0.0
H806 H 0.36169 0.67275 0.5238 0.0
C807 C 0.43762 0.64777 0.51222 0.0
C808 C 0.43502 0.63921 0.53584 0.0
C809 C 0.42469 0.66428 0.5053 0.0
C810 C 0.3721 0.68883 0.5195 0.0
H811 H 0.36915 0.80509 0.50738 0.0
H812 H 0.38235 0.77021 0.49324 0.0
H813 H 0.34258 0.70613 0.52328 0.0
H814 H 0.41652 0.64019 0.57042 0.0
H815 H 0.39347 0.6687 0.55817 0.0
H816 H 0.42836 0.71345 0.50708 0.0
C817 C 0.37113 0.76989 0.50933 0.0
C818 C 0.36126 0.70793 0.51934 0.0
C819 C 0.36366 0.78982 0.51743 0.0
C820 C 0.41882 0.64671 0.55217 0.0
C821 C 0.40555 0.66279 0.5451 0.0
C822 C 0.40951 0.71165 0.5099 0.0
C823 C 0.36453 0.74987 0.5222 0.0
C824 C 0.37469 0.7293 0.51597 0.0
C825 C 0.40862 0.67191 0.52175 0.0
C826 C 0.39644 0.69073 0.51576 0.0
H827 H 0.33173 0.76958 0.56743 0.0
H828 H 0.34491 0.73518 0.55368 0.0
H829 H 0.40962 0.74703 0.50756 0.0
H830 H 0.45011 0.64215 0.4994 0.0
H831 H 0.42737 0.67123 0.48727 0.0
C832 C 0.78261 0.83868 0.70176 0.0
C833 C 0.78414 0.81874 0.71401 0.0
C834 C 0.80014 0.84754 0.68519 0.0
C835 C 0.86297 0.8472 0.67257 0.0
H836 H 0.85175 0.88477 0.61907 0.0
C837 C 0.93846 0.90087 0.61871 0.0
C838 C 0.93584 0.92364 0.61778 0.0
C839 C 0.91958 0.88471 0.62609 0.0
C840 C 0.85513 0.87423 0.63388 0.0
H841 H 0.80468 0.79175 0.7173 0.0
H842 H 0.83489 0.80683 0.68774 0.0
H843 H 0.81865 0.86143 0.63909 0.0
H844 H 0.91136 0.94727 0.6227 0.0
H845 H 0.87843 0.9191 0.63542 0.0
H846 H 0.89943 0.86037 0.66756 0.0
C847 C 0.82038 0.81591 0.6914 0.0
C848 C 0.83619 0.86093 0.64542 0.0
C849 C 0.80288 0.8071 0.70813 0.0
C850 C 0.91389 0.92985 0.62353 0.0
C851 C 0.89499 0.91371 0.63054 0.0
C852 C 0.88191 0.86034 0.66086 0.0
C853 C 0.81958 0.83658 0.68027 0.0
C854 C 0.8398 0.84779 0.66542 0.0
C855 C 0.89771 0.89103 0.63221 0.0
C856 C 0.8781 0.87449 0.6419 0.0
H857 H 0.7682 0.84786 0.70557 0.0
H858 H 0.79897 0.86358 0.67717 0.0
H859 H 0.86645 0.83755 0.68808 0.0
H860 H 0.95524 0.89569 0.61438 0.0
H861 H 0.92211 0.86731 0.62719 0.0
C862 C 0.62776 0.13204 0.343 0.0
C863 C 0.64405 0.15182 0.34583 0.0
C864 C 0.62062 0.12426 0.31985 0.0
C865 C 0.62025 0.14133 0.25545 0.0
H866 H 0.61632 0.07729 0.24244 0.0
C867 C 0.61712 0.10303 0.15841 0.0
C868 C 0.60058 0.08358 0.1544 0.0
C869 C 0.62148 0.1115 0.18196 0.0
C870 C 0.61712 0.09517 0.24588 0.0
H871 H 0.66546 0.1791 0.32676 0.0
H872 H 0.65325 0.16543 0.28636 0.0
H873 H 0.62486 0.09218 0.28334 0.0
H874 H 0.57551 0.05791 0.172 0.0
H875 H 0.58343 0.07255 0.21313 0.0
H876 H 0.61298 0.14429 0.21778 0.0
C877 C 0.6456 0.15613 0.30199 0.0
C878 C 0.62192 0.10371 0.26932 0.0
C879 C 0.65262 0.16397 0.32514 0.0
C880 C 0.58866 0.0727 0.17449 0.0
C881 C 0.59312 0.0811 0.19804 0.0
C882 C 0.61559 0.1328 0.23197 0.0
C883 C 0.62976 0.13602 0.29906 0.0
C884 C 0.62363 0.1269 0.27436 0.0
C885 C 0.60949 0.10064 0.20199 0.0
C886 C 0.61407 0.10965 0.22695 0.0
H887 H 0.62069 0.12248 0.3587 0.0
H888 H 0.60806 0.10893 0.31824 0.0
H889 H 0.62111 0.15922 0.25881 0.0
H890 H 0.62685 0.11161 0.14337 0.0
H891 H 0.63445 0.12641 0.18453 0.0
C892 C 0.39549 0.64315 0.32783 0.0
C893 C 0.40846 0.64848 0.30606 0.0
C894 C 0.4048 0.63239 0.34701 0.0
C895 C 0.4541 0.60031 0.36173 0.0
H896 H 0.43383 0.61045 0.42806 0.0
C897 C 0.48354 0.54923 0.44142 0.0
C898 C 0.48598 0.5591 0.46484 0.0
C899 C 0.47391 0.55993 0.42242 0.0
C900 C 0.44005 0.6075 0.40975 0.0
H901 H 0.44194 0.64608 0.28816 0.0
H902 H 0.45839 0.62861 0.32164 0.0
H903 H 0.41861 0.6298 0.39521 0.0
H904 H 0.48029 0.58847 0.48621 0.0
H905 H 0.46428 0.60735 0.45329 0.0
H906 H 0.47636 0.57884 0.37634 0.0
C907 C 0.44066 0.6322 0.32378 0.0
C908 C 0.43088 0.61844 0.39061 0.0
C909 C 0.43126 0.64274 0.30449 0.0
C910 C 0.4785 0.58011 0.46858 0.0
C911 C 0.46913 0.59096 0.44952 0.0
C912 C 0.46346 0.58957 0.38088 0.0
C913 C 0.42761 0.62668 0.34545 0.0
C914 C 0.43764 0.61505 0.36614 0.0
C915 C 0.4666 0.58112 0.42598 0.0
C916 C 0.45659 0.59284 0.40534 0.0
H917 H 0.37807 0.64745 0.33031 0.0
H918 H 0.39379 0.62832 0.36299 0.0
H919 H 0.4597 0.59674 0.34335 0.0
H920 H 0.48891 0.53303 0.43775 0.0
H921 H 0.47196 0.55131 0.40496 0.0
C922 C 0.10688 0.43684 0.8028 0.0
C923 C 0.12431 0.42339 0.80651 0.0
C924 C 0.09731 0.44798 0.82237 0.0
C925 C 0.08928 0.4477 0.88976 0.0
H926 H 0.07865 0.50904 0.88157 0.0
C927 C 0.03851 0.49566 0.96164 0.0
C928 C 0.04718 0.51854 0.96599 0.0
C929 C 0.04811 0.48357 0.94281 0.0
C930 C 0.08161 0.49196 0.88428 0.0
H931 H 0.14487 0.41087 0.83414 0.0
H932 H 0.12827 0.43029 0.86817 0.0
H933 H 0.09483 0.48907 0.84779 0.0
H934 H 0.07294 0.54652 0.95408 0.0
H935 H 0.08961 0.52557 0.92136 0.0
H936 H 0.07617 0.4507 0.92635 0.0
C937 C 0.12195 0.43221 0.85007 0.0
C938 C 0.09068 0.48039 0.86475 0.0
C939 C 0.13167 0.42123 0.83047 0.0
C940 C 0.06582 0.52894 0.95123 0.0
C941 C 0.07528 0.51693 0.93232 0.0
C942 C 0.08 0.45923 0.90925 0.0
C943 C 0.10471 0.44588 0.84632 0.0
C944 C 0.09473 0.4581 0.86719 0.0
C945 C 0.06647 0.4941 0.92767 0.0
C946 C 0.07613 0.48158 0.90685 0.0
H947 H 0.10087 0.4391 0.78465 0.0
H948 H 0.08392 0.45815 0.81873 0.0
H949 H 0.09195 0.43051 0.89232 0.0
H950 H 0.02401 0.48718 0.9725 0.0
H951 H 0.0407 0.4661 0.9397 0.0
C952 C 0.64339 0.86207 0.90333 0.0
C953 C 0.64286 0.85869 0.87802 0.0
C954 C 0.63175 0.87842 0.91435 0.0
C955 C 0.5835 0.9092 0.90982 0.0
H956 H 0.62171 0.95708 0.94576 0.0
C957 C 0.54303 0.98291 0.95311 0.0
C958 C 0.55159 0.99124 0.97576 0.0
C959 C 0.5546 0.96793 0.93949 0.0
C960 C 0.61064 0.94369 0.93615 0.0
H961 H 0.62928 0.86899 0.84441 0.0
H962 H 0.60807 0.89713 0.8639 0.0
H963 H 0.63996 0.92724 0.92641 0.0
H964 H 0.57904 0.99049 1.00186 0.0
H965 H 0.59854 0.96384 0.97884 0.0
H966 H 0.55396 0.92481 0.9204 0.0
C967 C 0.61777 0.88734 0.87507 0.0
C968 C 0.62118 0.9267 0.92497 0.0
C969 C 0.62987 0.87135 0.86398 0.0
C970 C 0.57214 0.9846 0.98432 0.0
C971 C 0.58343 0.96933 0.97098 0.0
C972 C 0.57281 0.92593 0.92147 0.0
C973 C 0.61898 0.89126 0.90028 0.0
C974 C 0.60769 0.90929 0.91181 0.0
C975 C 0.57475 0.96061 0.94844 0.0
C976 C 0.58622 0.94338 0.93493 0.0
H977 H 0.65347 0.85259 0.91445 0.0
H978 H 0.63282 0.88116 0.93385 0.0
H979 H 0.57277 0.89584 0.89979 0.0
H980 H 0.52728 0.98782 0.94597 0.0
H981 H 0.54763 0.96201 0.92201 0.0
C982 C 0.80763 0.12612 0.49217 0.0
C983 C 0.80978 0.14597 0.47879 0.0
C984 C 0.8275 0.11735 0.49859 0.0
C985 C 0.88945 0.11735 0.48234 0.0
H986 H 0.8908 0.09303 0.54691 0.0
C987 C 0.95403 0.07478 0.54898 0.0
C988 C 0.96142 0.05902 0.53264 0.0
C989 C 0.93764 0.08798 0.54201 0.0
C990 C 0.89089 0.10001 0.52893 0.0
H991 H 0.83441 0.17211 0.46145 0.0
H992 H 0.86937 0.15685 0.47303 0.0
H993 H 0.8582 0.11157 0.53587 0.0
H994 H 0.95821 0.04499 0.49606 0.0
H995 H 0.92904 0.06773 0.48395 0.0
H996 H 0.92231 0.10582 0.47551 0.0
C997 C 0.85222 0.14804 0.47835 0.0
C998 C 0.87206 0.11038 0.52251 0.0
C999 C 0.83226 0.15687 0.47192 0.0
C1000 C 0.95268 0.05702 0.50899 0.0
C1001 C 0.93615 0.07016 0.50202 0.0
C1002 C 0.90837 0.10696 0.48879 0.0
C1003 C 0.85 0.12826 0.49186 0.0
C1004 C 0.87094 0.11883 0.49905 0.0
C1005 C 0.92822 0.08554 0.5186 0.0
C1006 C 0.90912 0.09795 0.51207 0.0
H1007 H 0.79056 0.1175 0.49798 0.0
H1008 H 0.82523 0.1019 0.50872 0.0
H1009 H 0.88899 0.12363 0.46409 0.0
H1010 H 0.96079 0.07679 0.56725 0.0
H1011 H 0.93218 0.09997 0.55504 0.0
C1012 C 0.24001 0.65718 0.12988 0.0
C1013 C 0.25109 0.64548 0.14694 0.0
C1014 C 0.219 0.64725 0.11894 0.0
C1015 C 0.16929 0.59846 0.12461 0.0
H1016 H 0.1566 0.61475 0.05902 0.0
C1017 C 0.09121 0.55081 0.06864 0.0
C1018 C 0.07812 0.56386 0.05501 0.0
C1019 C 0.1121 0.56062 0.07993 0.0
C1020 C 0.15972 0.61011 0.07743 0.0
H1021 H 0.24854 0.61378 0.16545 0.0
H1022 H 0.21247 0.59626 0.14605 0.0
H1023 H 0.19302 0.63159 0.07809 0.0
H1024 H 0.07724 0.59765 0.04262 0.0
H1025 H 0.11367 0.61459 0.06198 0.0
H1026 H 0.13609 0.57656 0.12356 0.0
C1027 C 0.21957 0.61342 0.1415 0.0
C1028 C 0.18071 0.61989 0.08852 0.0
C1029 C 0.24046 0.62347 0.15266 0.0
C1030 C 0.08672 0.58699 0.05292 0.0
C1031 C 0.10776 0.59673 0.06395 0.0
C1032 C 0.14843 0.58849 0.11339 0.0
C1033 C 0.20839 0.62511 0.12441 0.0
C1034 C 0.1859 0.61436 0.1124 0.0
C1035 C 0.12077 0.58373 0.07772 0.0
C1036 C 0.14323 0.59421 0.08965 0.0
H1037 H 0.24738 0.67426 0.12524 0.0
H1038 H 0.21094 0.65719 0.10641 0.0
H1039 H 0.17213 0.59391 0.1431 0.0
H1040 H 0.08525 0.53297 0.07076 0.0
H1041 H 0.12165 0.54997 0.09015 0.0
C1042 C 0.2858 0.44185 0.63177 0.0
C1043 C 0.28572 0.42326 0.64691 0.0
C1044 C 0.30643 0.45177 0.6197 0.0
C1045 C 0.37187 0.45501 0.61953 0.0
H1046 H 0.36774 0.47748 0.55456 0.0
C1047 C 0.454 0.50151 0.56814 0.0
C1048 C 0.45588 0.49745 0.54297 0.0
C1049 C 0.43315 0.49365 0.58108 0.0
C1050 C 0.36934 0.47114 0.57261 0.0
H1051 H 0.30791 0.40097 0.66138 0.0
H1052 H 0.34346 0.41766 0.63982 0.0
H1053 H 0.33217 0.46104 0.57625 0.0
H1054 H 0.43725 0.48203 0.51165 0.0
H1055 H 0.40121 0.46793 0.5341 0.0
H1056 H 0.40912 0.46435 0.61553 0.0
C1057 C 0.32763 0.42487 0.63751 0.0
C1058 C 0.34878 0.46196 0.58527 0.0
C1059 C 0.30703 0.41502 0.64967 0.0
C1060 C 0.43636 0.48553 0.53102 0.0
C1061 C 0.41557 0.47757 0.54393 0.0
C1062 C 0.39245 0.4641 0.60683 0.0
C1063 C 0.32769 0.44337 0.62226 0.0
C1064 C 0.34969 0.45365 0.60892 0.0
C1065 C 0.41363 0.48138 0.56922 0.0
C1066 C 0.39155 0.47224 0.5831 0.0
H1067 H 0.26979 0.44861 0.62887 0.0
H1068 H 0.30569 0.46615 0.60844 0.0
H1069 H 0.37342 0.44914 0.63779 0.0
H1070 H 0.46873 0.51057 0.57792 0.0
H1071 H 0.43234 0.49728 0.60041 0.0
C1072 C 0.7672 0.70064 0.9127 0.0
C1073 C 0.76975 0.70483 0.88766 0.0
C1074 C 0.78153 0.68737 0.92398 0.0
C1075 C 0.82221 0.64628 0.9107 0.0
H1076 H 0.85014 0.66828 0.9718 0.0
C1077 C 0.90836 0.62227 0.94407 0.0
C1078 C 0.91056 0.61846 0.96896 0.0
C1079 C 0.88845 0.62982 0.93554 0.0
C1080 C 0.84219 0.66168 0.95495 0.0
H1081 H 0.7895 0.69845 0.8549 0.0
H1082 H 0.81439 0.6755 0.87445 0.0
H1083 H 0.82006 0.68703 0.95435 0.0
H1084 H 0.89342 0.61915 1.00437 0.0
H1085 H 0.85846 0.63246 0.9894 0.0
H1086 H 0.84494 0.62141 0.91092 0.0
C1087 C 0.80101 0.682 0.88535 0.0
C1088 C 0.82493 0.67241 0.94495 0.0
C1089 C 0.78671 0.6952 0.87411 0.0
C1090 C 0.89214 0.62187 0.98508 0.0
C1091 C 0.87225 0.62964 0.97655 0.0
C1092 C 0.83952 0.63563 0.92064 0.0
C1093 C 0.79874 0.67805 0.91045 0.0
C1094 C 0.8151 0.66514 0.92244 0.0
C1095 C 0.8703 0.63386 0.9517 0.0
C1096 C 0.85005 0.6435 0.94262 0.0
H1097 H 0.75413 0.70763 0.92359 0.0
H1098 H 0.77915 0.68444 0.94329 0.0
H1099 H 0.81466 0.63995 0.89359 0.0
H1100 H 0.92217 0.61957 0.93119 0.0
H1101 H 0.88759 0.63314 0.91633 0.0
C1102 C 0.42762 0.8252 0.16616 0.0
C1103 C 0.4115 0.80927 0.15346 0.0
C1104 C 0.43695 0.84605 0.15595 0.0
C1105 C 0.42859 0.88471 0.10433 0.0
H1106 H 0.49072 0.91382 0.12229 0.0
C1107 C 0.47982 0.96349 0.05432 0.0
C1108 C 0.49184 0.98079 0.06903 0.0
C1109 C 0.46938 0.94286 0.06439 0.0
C1110 C 0.47326 0.90604 0.11716 0.0
H1111 H 0.39255 0.80385 0.11963 0.0
H1112 H 0.4096 0.83915 0.10156 0.0
H1113 H 0.47443 0.87778 0.13978 0.0
H1114 H 0.50208 0.98974 0.10605 0.0
H1115 H 0.48435 0.95388 0.12342 0.0
H1116 H 0.42794 0.91289 0.0811 0.0
C1117 C 0.41473 0.83587 0.11976 0.0
C1118 C 0.46374 0.88526 0.12736 0.0
C1119 C 0.40517 0.81515 0.13009 0.0
C1120 C 0.49299 0.97687 0.09409 0.0
C1121 C 0.48292 0.95618 0.10408 0.0
C1122 C 0.43828 0.90535 0.09385 0.0
C1123 C 0.43081 0.85182 0.13246 0.0
C1124 C 0.44113 0.87416 0.12128 0.0
C1125 C 0.47102 0.93876 0.08941 0.0
C1126 C 0.46073 0.91644 0.1002 0.0
H1127 H 0.43337 0.82155 0.18401 0.0
H1128 H 0.44888 0.85773 0.16676 0.0
H1129 H 0.411 0.87727 0.09932 0.0
H1130 H 0.4787 0.96576 0.03496 0.0
H1131 H 0.46053 0.92986 0.05244 0.0
C1132 C 0.13002 0.24123 0.66095 0.0
C1133 C 0.12391 0.26155 0.65296 0.0
C1134 C 0.12063 0.22058 0.65004 0.0
C1135 C 0.07239 0.19368 0.60919 0.0
H1136 H 0.11052 0.14619 0.60366 0.0
C1137 C 0.04497 0.11248 0.55099 0.0
C1138 C 0.0478 0.09189 0.56127 0.0
C1139 C 0.05437 0.13302 0.56211 0.0
C1140 C 0.09955 0.1592 0.60522 0.0
H1141 H 0.10323 0.27591 0.62686 0.0
H1142 H 0.0873 0.24015 0.60747 0.0
H1143 H 0.12648 0.18205 0.62281 0.0
H1144 H 0.06306 0.07694 0.59131 0.0
H1145 H 0.07969 0.11276 0.61052 0.0
H1146 H 0.04567 0.17086 0.59109 0.0
C1147 C 0.09889 0.23998 0.62263 0.0
C1148 C 0.10868 0.17984 0.61633 0.0
C1149 C 0.10809 0.2606 0.63374 0.0
C1150 C 0.06055 0.09243 0.58284 0.0
C1151 C 0.07019 0.113 0.59381 0.0
C1152 C 0.06338 0.17313 0.59785 0.0
C1153 C 0.105 0.21958 0.63057 0.0
C1154 C 0.09524 0.19745 0.61858 0.0
C1155 C 0.06708 0.1336 0.58371 0.0
C1156 C 0.0768 0.15557 0.59573 0.0
H1157 H 0.14189 0.24125 0.67592 0.0
H1158 H 0.12547 0.20537 0.65714 0.0
H1159 H 0.06121 0.2065 0.61089 0.0
H1160 H 0.03511 0.11279 0.53454 0.0
H1161 H 0.05179 0.14851 0.55366 0.0
C1162 C 0.64145 0.27162 0.54143 0.0
C1163 C 0.66529 0.26963 0.53946 0.0
C1164 C 0.63453 0.29042 0.55291 0.0
C1165 C 0.62345 0.33142 0.5808 0.0
H1166 H 0.65475 0.38207 0.54399 0.0
C1167 C 0.60956 0.42463 0.54393 0.0
C1168 C 0.58615 0.41831 0.53692 0.0
C1169 C 0.6215 0.40913 0.55485 0.0
C1170 C 0.64613 0.36845 0.5551 0.0
H1171 H 0.70054 0.28461 0.5491 0.0
H1172 H 0.68846 0.31803 0.56883 0.0
H1173 H 0.67248 0.3483 0.54599 0.0
H1174 H 0.55657 0.39125 0.5367 0.0
H1175 H 0.5774 0.36407 0.55503 0.0
H1176 H 0.59644 0.35121 0.58883 0.0
C1177 C 0.67514 0.30492 0.56177 0.0
C1178 C 0.65636 0.34902 0.55625 0.0
C1179 C 0.68203 0.28587 0.55058 0.0
C1180 C 0.57457 0.3966 0.54205 0.0
C1181 C 0.58651 0.38108 0.55277 0.0
C1182 C 0.61331 0.35095 0.57986 0.0
C1183 C 0.6514 0.30772 0.56224 0.0
C1184 C 0.64446 0.3299 0.56792 0.0
C1185 C 0.6103 0.38697 0.55876 0.0
C1186 C 0.62387 0.36917 0.56577 0.0
H1187 H 0.62832 0.25922 0.53291 0.0
H1188 H 0.61616 0.29223 0.55267 0.0
H1189 H 0.61409 0.31698 0.59021 0.0
H1190 H 0.61874 0.44145 0.54061 0.0
H1191 H 0.6397 0.4143 0.55957 0.0
loop_
_geom_bond_atom_site_label_1
_geom_bond_atom_site_label_2
_geom_bond_distance
_geom_bond_site_symmetry_2
_ccdc_geom_bond_type
C0 C1 1.386 . S
C0 C2 1.397 . S
C0 H24 0.931 . S
C1 C0 1.386 . S
C1 C5 1.397 . S
C2 C0 1.397 . S
C2 C3 1.384 . S
C2 H25 0.930 . S
C3 C2 1.384 . S
C3 C4 1.377 . S
C3 C6 1.481 . S
C4 C3 1.377 . S
C4 C5 1.389 . S
C4 H26 0.929 . S
C5 C1 1.397 . S
C5 C4 1.389 . S
C5 H27 0.931 . S
C6 C3 1.481 . S
C6 C7 1.387 . S
C6 C11 1.390 . S
C7 C6 1.387 . S
C7 C8 1.401 . S
C7 H28 0.930 . S
C8 C7 1.401 . S
C8 C9 1.376 . S
C8 C17 1.511 . S
C9 C8 1.376 . S
C9 C10 1.392 . S
C9 H30 0.931 . S
C10 C9 1.392 . S
C10 C11 1.361 . S
C10 C12 1.500 . S
C11 C6 1.390 . S
C11 C10 1.361 . S
C11 H29 0.931 . S
C12 C10 1.500 . S
C12 C13 1.371 . S
C12 C14 1.365 . S
C13 C12 1.371 . S
C13 C23 1.386 . S
C13 H31 0.931 . S
C14 C12 1.365 . S
C14 C15 1.409 . S
C14 H32 0.929 . S
C15 C14 1.409 . S
C15 C16 1.380 . S
C15 H33 0.930 . S
C16 C15 1.380 . S
C16 C23 1.357 . S
C17 C8 1.511 . S
C17 C18 1.341 . S
C17 C19 1.371 . S
C18 C17 1.341 . S
C18 C22 1.394 . S
C18 H34 0.930 . S
C19 C17 1.371 . S
C19 C20 1.392 . S
C19 H35 0.931 . S
C20 C19 1.392 . S
C20 C21 1.331 . S
C20 H38 0.932 . S
C21 C20 1.331 . S
C21 C22 1.336 . S
C22 C18 1.394 . S
C22 C21 1.336 . S
C22 H37 0.929 . S
C23 C13 1.386 . S
C23 C16 1.357 . S
C23 H36 0.928 . S
H24 C0 0.931 . S
H25 C2 0.930 . S
H26 C4 0.929 . S
H27 C5 0.931 . S
H28 C7 0.930 . S
H29 C11 0.931 . S
H30 C9 0.931 . S
H31 C13 0.931 . S
H32 C14 0.929 . S
H33 C15 0.930 . S
H34 C18 0.930 . S
H35 C19 0.931 . S
H36 C23 0.928 . S
H37 C22 0.929 . S
H38 C20 0.932 . S
C39 C40 1.386 . S
C39 C41 1.397 . S
C39 H63 0.931 . S
C40 C39 1.386 . S
C40 C44 1.397 . S
C41 C39 1.397 . S
C41 C42 1.384 . S
C41 H64 0.930 . S
C42 C41 1.384 . S
C42 C43 1.377 . S
C42 C45 1.481 . S
C43 C42 1.377 . S
C43 C44 1.389 . S
C43 H65 0.929 . S
C44 C40 1.397 . S
C44 C43 1.389 . S
C44 H66 0.931 . S
C45 C42 1.481 . S
C45 C46 1.387 . S
C45 C50 1.390 . S
C46 C45 1.387 . S
C46 C47 1.401 . S
C46 H67 0.930 . S
C47 C46 1.401 . S
C47 C48 1.376 . S
C47 C56 1.511 . S
C48 C47 1.376 . S
C48 C49 1.392 . S
C48 H69 0.931 . S
C49 C48 1.392 . S
C49 C50 1.361 . S
C49 C51 1.500 . S
C50 C45 1.390 . S
C50 C49 1.361 . S
C50 H68 0.931 . S
C51 C49 1.500 . S
C51 C52 1.371 . S
C51 C53 1.365 . S
C52 C51 1.371 . S
C52 C62 1.386 . S
C52 H70 0.931 . S
C53 C51 1.365 . S
C53 C54 1.409 . S
C53 H71 0.929 . S
C54 C53 1.409 . S
C54 C55 1.380 . S
C54 H72 0.930 . S
C55 C54 1.380 . S
C55 C62 1.357 . S
C56 C47 1.511 . S
C56 C57 1.341 . S
C56 C58 1.371 . S
C57 C56 1.341 . S
C57 C61 1.394 . S
C57 H73 0.930 . S
C58 C56 1.371 . S
C58 C59 1.392 . S
C58 H74 0.931 . S
C59 C58 1.392 . S
C59 C60 1.331 . S
C59 H77 0.932 . S
C60 C59 1.331 . S
C60 C61 1.336 . S
C61 C57 1.394 . S
C61 C60 1.336 . S
C61 H76 0.929 . S
C62 C52 1.386 . S
C62 C55 1.357 . S
C62 H75 0.928 . S
H63 C39 0.931 . S
H64 C41 0.930 . S
H65 C43 0.929 . S
H66 C44 0.931 . S
H67 C46 0.930 . S
H68 C50 0.931 . S
H69 C48 0.931 . S
H70 C52 0.931 . S
H71 C53 0.929 . S
H72 C54 0.930 . S
H73 C57 0.930 . S
H74 C58 0.931 . S
H75 C62 0.928 . S
H76 C61 0.929 . S
H77 C59 0.932 . S
C78 C79 1.386 . S
C78 C80 1.397 . S
C78 H102 0.931 . S
C79 C78 1.386 . S
C79 C83 1.397 . S
C80 C78 1.397 . S
C80 C81 1.384 . S
C80 H103 0.930 . S
C81 C80 1.384 . S
C81 C82 1.377 . S
C81 C84 1.481 . S
C82 C81 1.377 . S
C82 C83 1.389 . S
C82 H104 0.929 . S
C83 C79 1.397 . S
C83 C82 1.389 . S
C83 H105 0.931 . S
C84 C81 1.481 . S
C84 C85 1.387 . S
C84 C89 1.390 . S
C85 C84 1.387 . S
C85 C86 1.401 . S
C85 H106 0.930 . S
C86 C85 1.401 . S
C86 C87 1.376 . S
C86 C95 1.511 . S
C87 C86 1.376 . S
C87 C88 1.392 . S
C87 H108 0.931 . S
C88 C87 1.392 . S
C88 C89 1.361 . S
C88 C90 1.500 . S
C89 C84 1.390 . S
C89 C88 1.361 . S
C89 H107 0.931 . S
C90 C88 1.500 . S
C90 C91 1.371 . S
C90 C92 1.365 . S
C91 C90 1.371 . S
C91 C101 1.386 . S
C91 H109 0.931 . S
C92 C90 1.365 . S
C92 C93 1.409 . S
C92 H110 0.929 . S
C93 C92 1.409 . S
C93 C94 1.380 . S
C93 H111 0.930 . S
C94 C93 1.380 . S
C94 C101 1.357 . S
C95 C86 1.511 . S
C95 C96 1.341 . S
C95 C97 1.371 . S
C96 C95 1.341 . S
C96 C100 1.394 . S
C96 H112 0.930 . S
C97 C95 1.371 . S
C97 C98 1.392 . S
C97 H113 0.931 . S
C98 C97 1.392 . S
C98 C99 1.331 . S
C98 H116 0.932 . S
C99 C98 1.331 . S
C99 C100 1.336 . S
C100 C96 1.394 . S
C100 C99 1.336 . S
C100 H115 0.929 . S
C101 C91 1.386 . S
C101 C94 1.357 . S
C101 H114 0.928 . S
H102 C78 0.931 . S
H103 C80 0.930 . S
H104 C82 0.929 . S
H105 C83 0.931 . S
H106 C85 0.930 . S
H107 C89 0.931 . S
H108 C87 0.931 . S
H109 C91 0.931 . S
H110 C92 0.929 . S
H111 C93 0.930 . S
H112 C96 0.930 . S
H113 C97 0.931 . S
H114 C101 0.928 . S
H115 C100 0.929 . S
H116 C98 0.932 . S
C117 C118 1.386 . S
C117 C119 1.397 . S
C117 H141 0.931 . S
C118 C117 1.386 . S
C118 C122 1.397 . S
C119 C117 1.397 . S
C119 C120 1.384 . S
C119 H142 0.930 . S
C120 C119 1.384 . S
C120 C121 1.377 . S
C120 C123 1.481 . S
C121 C120 1.377 . S
C121 C122 1.389 . S
C121 H143 0.929 . S
C122 C118 1.397 . S
C122 C121 1.389 . S
C122 H144 0.931 . S
C123 C120 1.481 . S
C123 C124 1.387 . S
C123 C128 1.390 . S
C124 C123 1.387 . S
C124 C125 1.401 . S
C124 H145 0.930 . S
C125 C124 1.401 . S
C125 C126 1.376 . S
C125 C134 1.511 . S
C126 C125 1.376 . S
C126 C127 1.392 . S
C126 H147 0.931 . S
C127 C126 1.392 . S
C127 C128 1.361 . S
C127 C129 1.500 . S
C128 C123 1.390 . S
C128 C127 1.361 . S
C128 H146 0.931 . S
C129 C127 1.500 . S
C129 C130 1.371 . S
C129 C131 1.365 . S
C130 C129 1.371 . S
C130 C140 1.386 . S
C130 H148 0.931 . S
C131 C129 1.365 . S
C131 C132 1.409 . S
C131 H149 0.929 . S
C132 C131 1.409 . S
C132 C133 1.380 . S
C132 H150 0.930 . S
C133 C132 1.380 . S
C133 C140 1.357 . S
C134 C125 1.511 . S
C134 C135 1.341 . S
C134 C136 1.371 . S
C135 C134 1.341 . S
C135 C139 1.394 . S
C135 H151 0.930 . S
C136 C134 1.371 . S
C136 C137 1.392 . S
C136 H152 0.931 . S
C137 C136 1.392 . S
C137 C138 1.331 . S
C137 H155 0.932 . S
C138 C137 1.331 . S
C138 C139 1.336 . S
C139 C135 1.394 . S
C139 C138 1.336 . S
C139 H154 0.929 . S
C140 C130 1.386 . S
C140 C133 1.357 . S
C140 H153 0.928 . S
H141 C117 0.931 . S
H142 C119 0.930 . S
H143 C121 0.929 . S
H144 C122 0.931 . S
H145 C124 0.930 . S
H146 C128 0.931 . S
H147 C126 0.931 . S
H148 C130 0.931 . S
H149 C131 0.929 . S
H150 C132 0.930 . S
H151 C135 0.930 . S
H152 C136 0.931 . S
H153 C140 0.928 . S
H154 C139 0.929 . S
H155 C137 0.932 . S
C156 C157 1.386 . S
C156 C158 1.397 . S
C156 H180 0.931 . S
C157 C156 1.386 . S
C157 C161 1.397 . S
C158 C156 1.397 . S
C158 C159 1.384 . S
C158 H181 0.930 . S
C159 C158 1.384 . S
C159 C160 1.377 . S
C159 C162 1.481 . S
C160 C159 1.377 . S
C160 C161 1.389 . S
C160 H182 0.929 . S
C161 C157 1.397 . S
C161 C160 1.389 . S
C161 H183 0.931 . S
C162 C159 1.481 . S
C162 C163 1.387 . S
C162 C167 1.390 . S
C163 C162 1.387 . S
C163 C164 1.401 . S
C163 H184 0.930 . S
C164 C163 1.401 . S
C164 C165 1.376 . S
C164 C173 1.511 . S
C165 C164 1.376 . S
C165 C166 1.392 . S
C165 H186 0.931 . S
C166 C165 1.392 . S
C166 C167 1.361 . S
C166 C168 1.500 . S
C167 C162 1.390 . S
C167 C166 1.361 . S
C167 H185 0.931 . S
C168 C166 1.500 . S
C168 C169 1.371 . S
C168 C170 1.365 . S
C169 C168 1.371 . S
C169 C179 1.386 . S
C169 H187 0.931 . S
C170 C168 1.365 . S
C170 C171 1.409 . S
C170 H188 0.929 . S
C171 C170 1.409 . S
C171 C172 1.380 . S
C171 H189 0.930 . S
C172 C171 1.380 . S
C172 C179 1.357 . S
C173 C164 1.511 . S
C173 C174 1.341 . S
C173 C175 1.371 . S
C174 C173 1.341 . S
C174 C178 1.394 . S
C174 H190 0.930 . S
C175 C173 1.371 . S
C175 C176 1.392 . S
C175 H191 0.931 . S
C176 C175 1.392 . S
C176 C177 1.331 . S
C176 H194 0.932 . S
C177 C176 1.331 . S
C177 C178 1.336 . S
C178 C174 1.394 . S
C178 C177 1.336 . S
C178 H193 0.929 . S
C179 C169 1.386 . S
C179 C172 1.357 . S
C179 H192 0.928 . S
H180 C156 0.931 . S
H181 C158 0.930 . S
H182 C160 0.929 . S
H183 C161 0.931 . S
H184 C163 0.930 . S
H185 C167 0.931 . S
H186 C165 0.931 . S
H187 C169 0.931 . S
H188 C170 0.929 . S
H189 C171 0.930 . S
H190 C174 0.930 . S
H191 C175 0.931 . S
H192 C179 0.928 . S
H193 C178 0.929 . S
H194 C176 0.932 . S
C195 C196 1.386 . S
C195 C197 1.397 . S
C195 H219 0.931 . S
C196 C195 1.386 . S
C196 C200 1.397 . S
C197 C195 1.397 . S
C197 C198 1.384 . S
C197 H220 0.930 . S
C198 C197 1.384 . S
C198 C199 1.377 . S
C198 C201 1.481 . S
C199 C198 1.377 . S
C199 C200 1.389 . S
C199 H221 0.929 . S
C200 C196 1.397 . S
C200 C199 1.389 . S
C200 H222 0.931 . S
C201 C198 1.481 . S
C201 C202 1.387 . S
C201 C206 1.390 . S
C202 C201 1.387 . S
C202 C203 1.401 . S
C202 H223 0.930 . S
C203 C202 1.401 . S
C203 C204 1.376 . S
C203 C212 1.511 . S
C204 C203 1.376 . S
C204 C205 1.392 . S
C204 H225 0.931 . S
C205 C204 1.392 . S
C205 C206 1.361 . S
C205 C207 1.500 . S
C206 C201 1.390 . S
C206 C205 1.361 . S
C206 H224 0.931 . S
C207 C205 1.500 . S
C207 C208 1.371 . S
C207 C209 1.365 . S
C208 C207 1.371 . S
C208 C218 1.386 . S
C208 H226 0.931 . S
C209 C207 1.365 . S
C209 C210 1.409 . S
C209 H227 0.929 . S
C210 C209 1.409 . S
C210 C211 1.380 . S
C210 H228 0.930 . S
C211 C210 1.380 . S
C211 C218 1.357 . S
C212 C203 1.511 . S
C212 C213 1.341 . S
C212 C214 1.371 . S
C213 C212 1.341 . S
C213 C217 1.394 . S
C213 H229 0.930 . S
C214 C212 1.371 . S
C214 C215 1.392 . S
C214 H230 0.931 . S
C215 C214 1.392 . S
C215 C216 1.331 . S
C215 H233 0.932 . S
C216 C215 1.331 . S
C216 C217 1.336 . S
C217 C213 1.394 . S
C217 C216 1.336 . S
C217 H232 0.929 . S
C218 C208 1.386 . S
C218 C211 1.357 . S
C218 H231 0.928 . S
H219 C195 0.931 . S
H220 C197 0.930 . S
H221 C199 0.929 . S
H222 C200 0.931 . S
H223 C202 0.930 . S
H224 C206 0.931 . S
H225 C204 0.931 . S
H226 C208 0.931 . S
H227 C209 0.929 . S
H228 C210 0.930 . S
H229 C213 0.930 . S
H230 C214 0.931 . S
H231 C218 0.928 . S
H232 C217 0.929 . S
H233 C215 0.932 . S
C234 C235 1.386 . S
C234 C236 1.397 . S
C234 H258 0.931 . S
C235 C234 1.386 . S
C235 C239 1.397 . S
C236 C234 1.397 . S
C236 C237 1.384 . S
C236 H259 0.930 . S
C237 C236 1.384 . S
C237 C238 1.377 . S
C237 C240 1.481 . S
C238 C237 1.377 . S
C238 C239 1.389 . S
C238 H260 0.929 . S
C239 C235 1.397 . S
C239 C238 1.389 . S
C239 H261 0.931 . S
C240 C237 1.481 . S
C240 C241 1.387 . S
C240 C245 1.390 . S
C241 C240 1.387 . S
C241 C242 1.401 . S
C241 H262 0.930 . S
C242 C241 1.401 . S
C242 C243 1.376 . S
C242 C251 1.511 . S
C243 C242 1.376 . S
C243 C244 1.392 . S
C243 H264 0.931 . S
C244 C243 1.392 . S
C244 C245 1.361 . S
C244 C246 1.500 . S
C245 C240 1.390 . S
C245 C244 1.361 . S
C245 H263 0.931 . S
C246 C244 1.500 . S
C246 C247 1.371 . S
C246 C248 1.365 . S
C247 C246 1.371 . S
C247 C257 1.386 . S
C247 H265 0.931 . S
C248 C246 1.365 . S
C248 C249 1.409 . S
C248 H266 0.929 . S
C249 C248 1.409 . S
C249 C250 1.380 . S
C249 H267 0.930 . S
C250 C249 1.380 . S
C250 C257 1.357 . S
C251 C242 1.511 . S
C251 C252 1.341 . S
C251 C253 1.371 . S
C252 C251 1.341 . S
C252 C256 1.394 . S
C252 H268 0.930 . S
C253 C251 1.371 . S
C253 C254 1.392 . S
C253 H269 0.931 . S
C254 C253 1.392 . S
C254 C255 1.331 . S
C254 H272 0.932 . S
C255 C254 1.331 . S
C255 C256 1.336 . S
C256 C252 1.394 . S
C256 C255 1.336 . S
C256 H271 0.929 . S
C257 C247 1.386 . S
C257 C250 1.357 . S
C257 H270 0.928 . S
H258 C234 0.931 . S
H259 C236 0.930 . S
H260 C238 0.929 . S
H261 C239 0.931 . S
H262 C241 0.930 . S
H263 C245 0.931 . S
H264 C243 0.931 . S
H265 C247 0.931 . S
H266 C248 0.929 . S
H267 C249 0.930 . S
H268 C252 0.930 . S
H269 C253 0.931 . S
H270 C257 0.928 . S
H271 C256 0.929 . S
H272 C254 0.932 . S
C273 C274 1.386 . S
C273 C275 1.397 . S
C273 H297 0.931 . S
C274 C273 1.386 . S
C274 C278 1.397 . S
C275 C273 1.397 . S
C275 C276 1.384 . S
C275 H298 0.930 . S
C276 C275 1.384 . S
C276 C277 1.377 . S
C276 C279 1.481 . S
C277 C276 1.377 . S
C277 C278 1.389 . S
C277 H299 0.929 . S
C278 C274 1.397 . S
C278 C277 1.389 . S
C278 H300 0.931 . S
C279 C276 1.481 . S
C279 C280 1.387 . S
C279 C284 1.390 . S
C280 C279 1.387 . S
C280 C281 1.401 . S
C280 H301 0.930 . S
C281 C280 1.401 . S
C281 C282 1.376 . S
C281 C290 1.511 . S
C282 C281 1.376 . S
C282 C283 1.392 . S
C282 H303 0.931 . S
C283 C282 1.392 . S
C283 C284 1.361 . S
C283 C285 1.500 . S
C284 C279 1.390 . S
C284 C283 1.361 . S
C284 H302 0.931 . S
C285 C283 1.500 . S
C285 C286 1.371 . S
C285 C287 1.365 . S
C286 C285 1.371 . S
C286 C296 1.386 . S
C286 H304 0.931 . S
C287 C285 1.365 . S
C287 C288 1.409 . S
C287 H305 0.929 . S
C288 C287 1.409 . S
C288 C289 1.380 . S
C288 H306 0.930 . S
C289 C288 1.380 . S
C289 C296 1.357 . S
C290 C281 1.511 . S
C290 C291 1.341 . S
C290 C292 1.371 . S
C291 C290 1.341 . S
C291 C295 1.394 . S
C291 H307 0.930 . S
C292 C290 1.371 . S
C292 C293 1.392 . S
C292 H308 0.931 . S
C293 C292 1.392 . S
C293 C294 1.331 . S
C293 H311 0.932 . S
C294 C293 1.331 . S
C294 C295 1.336 . S
C295 C291 1.394 . S
C295 C294 1.336 . S
C295 H310 0.929 . S
C296 C286 1.386 . S
C296 C289 1.357 . S
C296 H309 0.928 . S
H297 C273 0.931 . S
H298 C275 0.930 . S
H299 C277 0.929 . S
H300 C278 0.931 . S
H301 C280 0.930 . S
H302 C284 0.931 . S
H303 C282 0.931 . S
H304 C286 0.931 . S
H305 C287 0.929 . S
H306 C288 0.930 . S
H307 C291 0.930 . S
H308 C292 0.931 . S
H309 C296 0.928 . S
H310 C295 0.929 . S
H311 C293 0.932 . S
La312 C314 2.928 . S
La312 O332 2.521 . S
La312 O333 2.628 . S
La312 O334 2.554 1_545 S
La312 O335 2.757 1_545 S
La312 O336 2.470 . S
La312 O341 2.482 1_455 S
La312 O343 2.503 1_445 S
La313 C323 2.906 1_545 S
La313 O335 2.470 1_645 S
La313 O337 2.527 1_655 S
La313 O338 2.509 1_545 S
La313 O339 2.599 1_545 S
La313 O340 2.570 . S
La313 O341 2.772 . S
La313 O342 2.452 1_545 S
C314 La312 2.928 . S
C314 C315 1.503 . S
C314 O332 1.261 . S
C314 O333 1.243 . S
C315 C314 1.503 . S
C315 C316 1.394 . S
C315 C320 1.373 . S
C316 C315 1.394 . S
C316 C317 1.380 . S
C316 H344 0.930 . S
C317 C316 1.380 . S
C317 C318 1.376 . S
C317 H345 0.930 . S
C318 C317 1.376 . S
C318 C319 1.370 . S
C319 C318 1.370 . S
C319 C320 1.396 . S
C319 H346 0.929 . S
C320 C315 1.373 . S
C320 C319 1.396 . S
C320 H347 0.929 . S
C321 O334 1.240 . S
C321 O335 1.289 . S
C322 O336 1.258 . S
C322 O337 1.256 . S
C323 La313 2.906 1_565 S
C323 C324 1.503 . S
C323 O338 1.261 . S
C323 O339 1.243 . S
C324 C323 1.503 . S
C324 C325 1.394 . S
C324 C329 1.373 . S
C325 C324 1.394 . S
C325 C326 1.380 . S
C325 H348 0.930 . S
C326 C325 1.380 . S
C326 C327 1.376 . S
C326 H349 0.930 . S
C327 C326 1.376 . S
C327 C328 1.370 . S
C328 C327 1.370 . S
C328 C329 1.396 . S
C328 H350 0.929 . S
C329 C324 1.373 . S
C329 C328 1.396 . S
C329 H351 0.929 . S
C330 O340 1.240 . S
C330 O341 1.289 . S
C331 O342 1.258 . S
C331 O343 1.256 . S
O332 La312 2.521 . S
O332 C314 1.261 . S
O333 La312 2.628 . S
O333 C314 1.243 . S
O334 La312 2.554 1_565 S
O334 C321 1.240 . S
O335 La312 2.757 1_565 S
O335 La313 2.470 1_465 S
O335 C321 1.289 . S
O336 La312 2.470 . S
O336 C322 1.258 . S
O337 La313 2.527 1_455 S
O337 C322 1.256 . S
O338 La313 2.509 1_565 S
O338 C323 1.261 . S
O339 La313 2.599 1_565 S
O339 C323 1.243 . S
O340 La313 2.570 . S
O340 C330 1.240 . S
O341 La312 2.482 1_655 S
O341 La313 2.772 . S
O341 C330 1.289 . S
O342 La313 2.452 1_565 S
O342 C331 1.258 . S
O343 La312 2.503 1_665 S
O343 C331 1.256 . S
H344 C316 0.930 . S
H345 C317 0.930 . S
H346 C319 0.929 . S
H347 C320 0.929 . S
H348 C325 0.930 . S
H349 C326 0.930 . S
H350 C328 0.929 . S
H351 C329 0.929 . S
La352 C354 2.928 . S
La352 O372 2.521 . S
La352 O373 2.628 . S
La352 O374 2.554 1_545 S
La352 O375 2.757 1_545 S
La352 O376 2.470 . S
La352 O381 2.482 1_554 S
La352 O383 2.503 1_544 S
La353 C363 2.928 1_545 S
La353 O375 2.482 1_546 S
La353 O377 2.503 1_556 S
La353 O378 2.521 1_545 S
La353 O379 2.628 1_545 S
La353 O380 2.554 . S
La353 O381 2.757 . S
La353 O382 2.470 1_545 S
C354 La352 2.928 . S
C354 C355 1.503 . S
C354 O372 1.261 . S
C354 O373 1.243 . S
C355 C354 1.503 . S
C355 C356 1.394 . S
C355 C360 1.373 . S
C356 C355 1.394 . S
C356 C357 1.380 . S
C356 H384 0.930 . S
C357 C356 1.380 . S
C357 C358 1.376 . S
C357 H385 0.930 . S
C358 C357 1.376 . S
C358 C359 1.370 . S
C359 C358 1.370 . S
C359 C360 1.396 . S
C359 H386 0.929 . S
C360 C355 1.373 . S
C360 C359 1.396 . S
C360 H387 0.929 . S
C361 O374 1.240 . S
C361 O375 1.289 . S
C362 O376 1.258 . S
C362 O377 1.256 . S
C363 La353 2.928 1_565 S
C363 C364 1.503 . S
C363 O378 1.261 . S
C363 O379 1.243 . S
C364 C363 1.503 . S
C364 C365 1.394 . S
C364 C369 1.373 . S
C365 C364 1.394 . S
C365 C366 1.380 . S
C365 H388 0.930 . S
C366 C365 1.380 . S
C366 C367 1.376 . S
C366 H389 0.930 . S
C367 C366 1.376 . S
C367 C368 1.370 . S
C368 C367 1.370 . S
C368 C369 1.396 . S
C368 H390 0.929 . S
C369 C364 1.373 . S
C369 C368 1.396 . S
C369 H391 0.929 . S
C370 O380 1.240 . S
C370 O381 1.289 . S
C371 O382 1.258 . S
C371 O383 1.256 . S
O372 La352 2.521 . S
O372 C354 1.261 . S
O373 La352 2.628 . S
O373 C354 1.243 . S
O374 La352 2.554 1_565 S
O374 C361 1.240 . S
O375 La352 2.757 1_565 S
O375 La353 2.482 1_564 S
O375 C361 1.289 . S
O376 La352 2.470 . S
O376 C362 1.258 . S
O377 La353 2.503 1_554 S
O377 C362 1.256 . S
O378 La353 2.521 1_565 S
O378 C363 1.261 . S
O379 La353 2.628 1_565 S
O379 C363 1.243 . S
O380 La353 2.554 . S
O380 C370 1.240 . S
O381 La352 2.482 1_556 S
O381 La353 2.757 . S
O381 C370 1.289 . S
O382 La353 2.470 1_565 S
O382 C371 1.258 . S
O383 La352 2.503 1_566 S
O383 C371 1.256 . S
H384 C356 0.930 . S
H385 C357 0.930 . S
H386 C359 0.929 . S
H387 C360 0.929 . S
H388 C365 0.930 . S
H389 C366 0.930 . S
H390 C368 0.929 . S
H391 C369 0.929 . S
La392 C394 2.928 . S
La392 O412 2.521 . S
La392 O413 2.628 . S
La392 O414 2.554 . S
La392 O415 2.757 . S
La392 O416 2.470 . S
La392 O421 2.482 . S
La392 O423 2.503 . S
La393 C403 2.928 . S
La393 O415 2.482 . S
La393 O417 2.503 . S
La393 O418 2.521 . S
La393 O419 2.628 . S
La393 O420 2.554 . S
La393 O421 2.757 . S
La393 O422 2.470 . S
C394 La392 2.928 . S
C394 C395 1.503 . S
C394 O412 1.261 . S
C394 O413 1.243 . S
C395 C394 1.503 . S
C395 C396 1.394 . S
C395 C400 1.373 . S
C396 C395 1.394 . S
C396 C397 1.380 . S
C396 H424 0.930 . S
C397 C396 1.380 . S
C397 C398 1.376 . S
C397 H425 0.930 . S
C398 C397 1.376 . S
C398 C399 1.370 . S
C399 C398 1.370 . S
C399 C400 1.396 . S
C399 H426 0.929 . S
C400 C395 1.373 . S
C400 C399 1.396 . S
C400 H427 0.929 . S
C401 O414 1.240 . S
C401 O415 1.289 . S
C402 O416 1.258 . S
C402 O417 1.256 . S
C403 La393 2.928 . S
C403 C404 1.503 . S
C403 O418 1.261 . S
C403 O419 1.243 . S
C404 C403 1.503 . S
C404 C405 1.394 . S
C404 C409 1.373 . S
C405 C404 1.394 . S
C405 C406 1.380 . S
C405 H428 0.930 . S
C406 C405 1.380 . S
C406 C407 1.376 . S
C406 H429 0.930 . S
C407 C406 1.376 . S
C407 C408 1.370 . S
C408 C407 1.370 . S
C408 C409 1.396 . S
C408 H430 0.929 . S
C409 C404 1.373 . S
C409 C408 1.396 . S
C409 H431 0.929 . S
C410 O420 1.240 . S
C410 O421 1.289 . S
C411 O422 1.258 . S
C411 O423 1.256 . S
O412 La392 2.521 . S
O412 C394 1.261 . S
O413 La392 2.628 . S
O413 C394 1.243 . S
O414 La392 2.554 . S
O414 C401 1.240 . S
O415 La392 2.757 . S
O415 La393 2.482 . S
O415 C401 1.289 . S
O416 La392 2.470 . S
O416 C402 1.258 . S
O417 La393 2.503 . S
O417 C402 1.256 . S
O418 La393 2.521 . S
O418 C403 1.261 . S
O419 La393 2.628 . S
O419 C403 1.243 . S
O420 La393 2.554 . S
O420 C410 1.240 . S
O421 La392 2.482 . S
O421 La393 2.757 . S
O421 C410 1.289 . S
O422 La393 2.470 . S
O422 C411 1.258 . S
O423 La392 2.503 . S
O423 C411 1.256 . S
H424 C396 0.930 . S
H425 C397 0.930 . S
H426 C399 0.929 . S
H427 C400 0.929 . S
H428 C405 0.930 . S
H429 C406 0.930 . S
H430 C408 0.929 . S
H431 C409 0.929 . S
La432 C434 2.928 . S
La432 O452 2.521 . S
La432 O453 2.628 . S
La432 O454 2.554 1_455 S
La432 O455 2.757 1_455 S
La432 O456 2.470 . S
La432 O461 2.482 1_554 S
La432 O463 2.503 1_454 S
La433 C443 2.928 1_455 S
La433 O455 2.482 1_456 S
La433 O457 2.503 1_556 S
La433 O458 2.521 1_455 S
La433 O459 2.628 1_455 S
La433 O460 2.554 . S
La433 O461 2.757 . S
La433 O462 2.470 1_455 S
C434 La432 2.928 . S
C434 C435 1.503 . S
C434 O452 1.261 . S
C434 O453 1.243 . S
C435 C434 1.503 . S
C435 C436 1.394 . S
C435 C440 1.373 . S
C436 C435 1.394 . S
C436 C437 1.380 . S
C436 H464 0.930 . S
C437 C436 1.380 . S
C437 C438 1.376 . S
C437 H465 0.930 . S
C438 C437 1.376 . S
C438 C439 1.370 . S
C439 C438 1.370 . S
C439 C440 1.396 . S
C439 H466 0.929 . S
C440 C435 1.373 . S
C440 C439 1.396 . S
C440 H467 0.929 . S
C441 O454 1.240 . S
C441 O455 1.289 . S
C442 O456 1.258 . S
C442 O457 1.256 . S
C443 La433 2.928 1_655 S
C443 C444 1.503 . S
C443 O458 1.261 . S
C443 O459 1.243 . S
C444 C443 1.503 . S
C444 C445 1.394 . S
C444 C449 1.373 . S
C445 C444 1.394 . S
C445 C446 1.380 . S
C445 H468 0.930 . S
C446 C445 1.380 . S
C446 C447 1.376 . S
C446 H469 0.930 . S
C447 C446 1.376 . S
C447 C448 1.370 . S
C448 C447 1.370 . S
C448 C449 1.396 . S
C448 H470 0.929 . S
C449 C444 1.373 . S
C449 C448 1.396 . S
C449 H471 0.929 . S
C450 O460 1.240 . S
C450 O461 1.289 . S
C451 O462 1.258 . S
C451 O463 1.256 . S
O452 La432 2.521 . S
O452 C434 1.261 . S
O453 La432 2.628 . S
O453 C434 1.243 . S
O454 La432 2.554 1_655 S
O454 C441 1.240 . S
O455 La432 2.757 1_655 S
O455 La433 2.482 1_654 S
O455 C441 1.289 . S
O456 La432 2.470 . S
O456 C442 1.258 . S
O457 La433 2.503 1_554 S
O457 C442 1.256 . S
O458 La433 2.521 1_655 S
O458 C443 1.261 . S
O459 La433 2.628 1_655 S
O459 C443 1.243 . S
O460 La433 2.554 . S
O460 C450 1.240 . S
O461 La432 2.482 1_556 S
O461 La433 2.757 . S
O461 C450 1.289 . S
O462 La433 2.470 1_655 S
O462 C451 1.258 . S
O463 La432 2.503 1_656 S
O463 C451 1.256 . S
H464 C436 0.930 . S
H465 C437 0.930 . S
H466 C439 0.929 . S
H467 C440 0.929 . S
H468 C445 0.930 . S
H469 C446 0.930 . S
H470 C448 0.929 . S
H471 C449 0.929 . S
C472 C473 1.349 . S
C472 C474 1.327 . S
C472 H497 0.950 . S
C473 C472 1.349 . S
C473 C489 1.349 . S
C474 C472 1.327 . S
C474 C493 1.429 . S
C474 H498 0.950 . S
C475 C492 1.574 . S
C475 C494 1.368 . S
C475 H499 0.949 . S
H476 C480 0.949 . S
C477 C478 1.349 . S
C477 C479 1.327 . S
C477 H500 0.950 . S
C478 C477 1.349 . S
C478 C490 1.349 . S
C479 C477 1.327 . S
C479 C495 1.429 . S
C479 H501 0.950 . S
C480 H476 0.949 . S
C480 C488 1.574 . S
C480 C496 1.368 . S
H481 C489 0.950 . S
H482 C487 0.950 . S
H483 C488 0.949 . S
H484 C490 0.950 . S
H485 C491 0.950 . S
H486 C492 0.949 . S
C487 H482 0.950 . S
C487 C489 1.327 . S
C487 C493 1.429 . S
C488 C480 1.574 . S
C488 H483 0.949 . S
C488 C494 1.368 . S
C489 C473 1.349 . S
C489 H481 0.950 . S
C489 C487 1.327 . S
C490 C478 1.349 . S
C490 H484 0.950 . S
C490 C491 1.327 . S
C491 H485 0.950 . S
C491 C490 1.327 . S
C491 C495 1.429 . S
C492 C475 1.574 . S
C492 H486 0.949 . S
C492 C496 1.368 . S
C493 C474 1.429 . S
C493 C487 1.429 . S
C493 C494 1.523 . S
C494 C475 1.368 . S
C494 C488 1.368 . S
C494 C493 1.523 . S
C495 C479 1.429 . S
C495 C491 1.429 . S
C495 C496 1.523 . S
C496 C480 1.368 . S
C496 C492 1.368 . S
C496 C495 1.523 . S
H497 C472 0.950 . S
H498 C474 0.950 . S
H499 C475 0.949 . S
H500 C477 0.950 . S
H501 C479 0.950 . S
C502 C503 1.349 . S
C502 C504 1.327 . S
C502 H527 0.950 . S
C503 C502 1.349 . S
C503 C519 1.349 . S
C504 C502 1.327 . S
C504 C523 1.429 . S
C504 H528 0.950 . S
C505 C522 1.574 . S
C505 C524 1.368 . S
C505 H529 0.949 . S
H506 C510 0.949 . S
C507 C508 1.349 . S
C507 C509 1.327 . S
C507 H530 0.950 . S
C508 C507 1.349 . S
C508 C520 1.349 . S
C509 C507 1.327 . S
C509 C525 1.429 . S
C509 H531 0.950 . S
C510 H506 0.949 . S
C510 C518 1.574 . S
C510 C526 1.368 . S
H511 C519 0.950 . S
H512 C517 0.950 . S
H513 C518 0.949 . S
H514 C520 0.950 . S
H515 C521 0.950 . S
H516 C522 0.949 . S
C517 H512 0.950 . S
C517 C519 1.327 . S
C517 C523 1.429 . S
C518 C510 1.574 . S
C518 H513 0.949 . S
C518 C524 1.368 . S
C519 C503 1.349 . S
C519 H511 0.950 . S
C519 C517 1.327 . S
C520 C508 1.349 . S
C520 H514 0.950 . S
C520 C521 1.327 . S
C521 H515 0.950 . S
C521 C520 1.327 . S
C521 C525 1.429 . S
C522 C505 1.574 . S
C522 H516 0.949 . S
C522 C526 1.368 . S
C523 C504 1.429 . S
C523 C517 1.429 . S
C523 C524 1.523 . S
C524 C505 1.368 . S
C524 C518 1.368 . S
C524 C523 1.523 . S
C525 C509 1.429 . S
C525 C521 1.429 . S
C525 C526 1.523 . S
C526 C510 1.368 . S
C526 C522 1.368 . S
C526 C525 1.523 . S
H527 C502 0.950 . S
H528 C504 0.950 . S
H529 C505 0.949 . S
H530 C507 0.950 . S
H531 C509 0.950 . S
C532 C533 1.349 . S
C532 C534 1.327 . S
C532 H557 0.950 . S
C533 C532 1.349 . S
C533 C549 1.349 . S
C534 C532 1.327 . S
C534 C553 1.429 . S
C534 H558 0.950 . S
C535 C552 1.574 . S
C535 C554 1.368 . S
C535 H559 0.949 . S
H536 C540 0.949 . S
C537 C538 1.349 . S
C537 C539 1.327 . S
C537 H560 0.950 . S
C538 C537 1.349 . S
C538 C550 1.349 . S
C539 C537 1.327 . S
C539 C555 1.429 . S
C539 H561 0.950 . S
C540 H536 0.949 . S
C540 C548 1.574 . S
C540 C556 1.368 . S
H541 C549 0.950 . S
H542 C547 0.950 . S
H543 C548 0.949 . S
H544 C550 0.950 . S
H545 C551 0.950 . S
H546 C552 0.949 . S
C547 H542 0.950 . S
C547 C549 1.327 . S
C547 C553 1.429 . S
C548 C540 1.574 . S
C548 H543 0.949 . S
C548 C554 1.368 . S
C549 C533 1.349 . S
C549 H541 0.950 . S
C549 C547 1.327 . S
C550 C538 1.349 . S
C550 H544 0.950 . S
C550 C551 1.327 . S
C551 H545 0.950 . S
C551 C550 1.327 . S
C551 C555 1.429 . S
C552 C535 1.574 . S
C552 H546 0.949 . S
C552 C556 1.368 . S
C553 C534 1.429 . S
C553 C547 1.429 . S
C553 C554 1.523 . S
C554 C535 1.368 . S
C554 C548 1.368 . S
C554 C553 1.523 . S
C555 C539 1.429 . S
C555 C551 1.429 . S
C555 C556 1.523 . S
C556 C540 1.368 . S
C556 C552 1.368 . S
C556 C555 1.523 . S
H557 C532 0.950 . S
H558 C534 0.950 . S
H559 C535 0.949 . S
H560 C537 0.950 . S
H561 C539 0.950 . S
C562 C563 1.349 . S
C562 C564 1.327 . S
C562 H587 0.950 . S
C563 C562 1.349 . S
C563 C579 1.349 . S
C564 C562 1.327 . S
C564 C583 1.429 . S
C564 H588 0.950 . S
C565 C582 1.574 . S
C565 C584 1.368 . S
C565 H589 0.949 . S
H566 C570 0.949 . S
C567 C568 1.349 . S
C567 C569 1.327 . S
C567 H590 0.950 . S
C568 C567 1.349 . S
C568 C580 1.349 . S
C569 C567 1.327 . S
C569 C585 1.429 . S
C569 H591 0.950 . S
C570 H566 0.949 . S
C570 C578 1.574 . S
C570 C586 1.368 . S
H571 C579 0.950 . S
H572 C577 0.950 . S
H573 C578 0.949 . S
H574 C580 0.950 . S
H575 C581 0.950 . S
H576 C582 0.949 . S
C577 H572 0.950 . S
C577 C579 1.327 . S
C577 C583 1.429 . S
C578 C570 1.574 . S
C578 H573 0.949 . S
C578 C584 1.368 . S
C579 C563 1.349 . S
C579 H571 0.950 . S
C579 C577 1.327 . S
C580 C568 1.349 . S
C580 H574 0.950 . S
C580 C581 1.327 . S
C581 H575 0.950 . S
C581 C580 1.327 . S
C581 C585 1.429 . S
C582 C565 1.574 . S
C582 H576 0.949 . S
C582 C586 1.368 . S
C583 C564 1.429 . S
C583 C577 1.429 . S
C583 C584 1.523 . S
C584 C565 1.368 . S
C584 C578 1.368 . S
C584 C583 1.523 . S
C585 C569 1.429 . S
C585 C581 1.429 . S
C585 C586 1.523 . S
C586 C570 1.368 . S
C586 C582 1.368 . S
C586 C585 1.523 . S
H587 C562 0.950 . S
H588 C564 0.950 . S
H589 C565 0.949 . S
H590 C567 0.950 . S
H591 C569 0.950 . S
C592 C593 1.349 . S
C592 C594 1.327 . S
C592 H617 0.950 . S
C593 C592 1.349 . S
C593 C609 1.349 . S
C594 C592 1.327 . S
C594 C613 1.429 . S
C594 H618 0.950 . S
C595 C612 1.574 . S
C595 C614 1.368 . S
C595 H619 0.949 . S
H596 C600 0.949 . S
C597 C598 1.349 . S
C597 C599 1.327 . S
C597 H620 0.950 . S
C598 C597 1.349 . S
C598 C610 1.349 . S
C599 C597 1.327 . S
C599 C615 1.429 . S
C599 H621 0.950 . S
C600 H596 0.949 . S
C600 C608 1.574 . S
C600 C616 1.368 . S
H601 C609 0.950 . S
H602 C607 0.950 . S
H603 C608 0.949 . S
H604 C610 0.950 . S
H605 C611 0.950 . S
H606 C612 0.949 . S
C607 H602 0.950 . S
C607 C609 1.327 . S
C607 C613 1.429 . S
C608 C600 1.574 . S
C608 H603 0.949 . S
C608 C614 1.368 . S
C609 C593 1.349 . S
C609 H601 0.950 . S
C609 C607 1.327 . S
C610 C598 1.349 . S
C610 H604 0.950 . S
C610 C611 1.327 . S
C611 H605 0.950 . S
C611 C610 1.327 . S
C611 C615 1.429 . S
C612 C595 1.574 . S
C612 H606 0.949 . S
C612 C616 1.368 . S
C613 C594 1.429 . S
C613 C607 1.429 . S
C613 C614 1.523 . S
C614 C595 1.368 . S
C614 C608 1.368 . S
C614 C613 1.523 . S
C615 C599 1.429 . S
C615 C611 1.429 . S
C615 C616 1.523 . S
C616 C600 1.368 . S
C616 C612 1.368 . S
C616 C615 1.523 . S
H617 C592 0.950 . S
H618 C594 0.950 . S
H619 C595 0.949 . S
H620 C597 0.950 . S
H621 C599 0.950 . S
C622 C623 1.349 . S
C622 C624 1.327 . S
C622 H647 0.950 . S
C623 C622 1.349 . S
C623 C639 1.349 . S
C624 C622 1.327 . S
C624 C643 1.429 . S
C624 H648 0.950 . S
C625 C642 1.574 . S
C625 C644 1.368 . S
C625 H649 0.949 . S
H626 C630 0.949 . S
C627 C628 1.349 . S
C627 C629 1.327 . S
C627 H650 0.950 . S
C628 C627 1.349 . S
C628 C640 1.349 . S
C629 C627 1.327 . S
C629 C645 1.429 . S
C629 H651 0.950 . S
C630 H626 0.949 . S
C630 C638 1.574 . S
C630 C646 1.368 . S
H631 C639 0.950 . S
H632 C637 0.950 . S
H633 C638 0.949 . S
H634 C640 0.950 1_545 S
H635 C641 0.950 . S
H636 C642 0.949 . S
C637 H632 0.950 . S
C637 C639 1.327 . S
C637 C643 1.429 . S
C638 C630 1.574 . S
C638 H633 0.949 . S
C638 C644 1.368 . S
C639 C623 1.349 . S
C639 H631 0.950 . S
C639 C637 1.327 . S
C640 C628 1.349 . S
C640 H634 0.950 1_565 S
C640 C641 1.327 . S
C641 H635 0.950 . S
C641 C640 1.327 . S
C641 C645 1.429 . S
C642 C625 1.574 . S
C642 H636 0.949 . S
C642 C646 1.368 . S
C643 C624 1.429 . S
C643 C637 1.429 . S
C643 C644 1.523 . S
C644 C625 1.368 . S
C644 C638 1.368 . S
C644 C643 1.523 . S
C645 C629 1.429 . S
C645 C641 1.429 . S
C645 C646 1.523 . S
C646 C630 1.368 . S
C646 C642 1.368 . S
C646 C645 1.523 . S
H647 C622 0.950 . S
H648 C624 0.950 . S
H649 C625 0.949 . S
H650 C627 0.950 . S
H651 C629 0.950 . S
C652 C653 1.349 . S
C652 C654 1.327 . S
C652 H677 0.950 . S
C653 C652 1.349 . S
C653 C669 1.349 . S
C654 C652 1.327 . S
C654 C673 1.429 . S
C654 H678 0.950 . S
C655 C672 1.574 . S
C655 C674 1.368 . S
C655 H679 0.949 . S
H656 C660 0.949 . S
C657 C658 1.349 . S
C657 C659 1.327 . S
C657 H680 0.958 . S
C658 C657 1.349 . S
C658 C670 1.349 . S
C659 C657 1.327 . S
C659 C675 1.429 . S
C659 H681 0.950 . S
C660 H656 0.949 . S
C660 C668 1.574 . S
C660 C676 1.368 . S
H661 C669 0.950 . S
H662 C667 0.950 . S
H663 C668 0.949 . S
H664 C670 0.950 . S
H665 C671 0.950 . S
H666 C672 0.949 . S
C667 H662 0.950 . S
C667 C669 1.327 . S
C667 C673 1.429 . S
C668 C660 1.574 . S
C668 H663 0.949 . S
C668 C674 1.368 . S
C669 C653 1.349 . S
C669 H661 0.950 . S
C669 C667 1.327 . S
C670 C658 1.349 . S
C670 H664 0.950 . S
C670 C671 1.327 . S
C671 H665 0.950 . S
C671 C670 1.327 . S
C671 C675 1.429 . S
C672 C655 1.574 . S
C672 H666 0.949 . S
C672 C676 1.368 . S
C673 C654 1.429 . S
C673 C667 1.429 . S
C673 C674 1.523 . S
C674 C655 1.368 . S
C674 C668 1.368 . S
C674 C673 1.523 . S
C675 C659 1.429 . S
C675 C671 1.429 . S
C675 C676 1.523 . S
C676 C660 1.368 . S
C676 C672 1.368 . S
C676 C675 1.523 . S
H677 C652 0.950 . S
H678 C654 0.950 . S
H679 C655 0.949 . S
H680 C657 0.958 . S
H681 C659 0.950 . S
C682 C683 1.349 . S
C682 C684 1.327 . S
C682 H707 0.950 . S
C683 C682 1.349 . S
C683 C699 1.349 . S
C684 C682 1.327 . S
C684 C703 1.429 . S
C684 H708 0.950 . S
C685 C702 1.574 . S
C685 C704 1.368 . S
C685 H709 0.949 . S
H686 C690 0.949 . S
C687 C688 1.349 . S
C687 C689 1.327 . S
C687 H710 0.950 . S
C688 C687 1.349 . S
C688 C700 1.349 . S
C689 C687 1.327 . S
C689 C705 1.429 . S
C689 H711 0.950 . S
C690 H686 0.949 . S
C690 C698 1.574 . S
C690 C706 1.368 . S
H691 C699 0.950 . S
H692 C697 0.950 . S
H693 C698 0.949 . S
H694 C700 0.950 . S
H695 C701 0.950 . S
H696 C702 0.949 . S
C697 H692 0.950 . S
C697 C699 1.327 . S
C697 C703 1.429 . S
C698 C690 1.574 . S
C698 H693 0.949 . S
C698 C704 1.368 . S
C699 C683 1.349 . S
C699 H691 0.950 . S
C699 C697 1.327 . S
C700 C688 1.349 . S
C700 H694 0.950 . S
C700 C701 1.327 . S
C701 H695 0.950 . S
C701 C700 1.327 . S
C701 C705 1.429 . S
C702 C685 1.574 . S
C702 H696 0.949 . S
C702 C706 1.368 . S
C703 C684 1.429 . S
C703 C697 1.429 . S
C703 C704 1.523 . S
C704 C685 1.368 . S
C704 C698 1.368 . S
C704 C703 1.523 . S
C705 C689 1.429 . S
C705 C701 1.429 . S
C705 C706 1.523 . S
C706 C690 1.368 . S
C706 C702 1.368 . S
C706 C705 1.523 . S
H707 C682 0.950 . S
H708 C684 0.950 . S
H709 C685 0.949 . S
H710 C687 0.950 . S
H711 C689 0.950 . S
C712 C713 1.349 . S
C712 C714 1.327 . S
C712 H737 0.950 . S
C713 C712 1.349 . S
C713 C729 1.349 . S
C714 C712 1.327 . S
C714 C733 1.429 . S
C714 H738 0.950 . S
C715 C732 1.574 . S
C715 C734 1.368 . S
C715 H739 0.949 . S
H716 C720 0.949 . S
C717 C718 1.349 . S
C717 C719 1.327 . S
C717 H740 0.950 . S
C718 C717 1.349 . S
C718 C730 1.349 . S
C719 C717 1.327 . S
C719 C735 1.429 . S
C719 H741 0.950 . S
C720 H716 0.949 . S
C720 C728 1.574 . S
C720 C736 1.368 . S
H721 C729 0.950 . S
H722 C727 0.950 . S
H723 C728 0.949 . S
H724 C730 0.950 . S
H725 C731 0.950 . S
H726 C732 0.949 . S
C727 H722 0.950 . S
C727 C729 1.327 . S
C727 C733 1.429 . S
C728 C720 1.574 . S
C728 H723 0.949 . S
C728 C734 1.368 . S
C729 C713 1.349 . S
C729 H721 0.950 . S
C729 C727 1.327 . S
C730 C718 1.349 . S
C730 H724 0.950 . S
C730 C731 1.327 . S
C731 H725 0.950 . S
C731 C730 1.327 . S
C731 C735 1.429 . S
C732 C715 1.574 . S
C732 H726 0.949 . S
C732 C736 1.368 . S
C733 C714 1.429 . S
C733 C727 1.429 . S
C733 C734 1.523 . S
C734 C715 1.368 . S
C734 C728 1.368 . S
C734 C733 1.523 . S
C735 C719 1.429 . S
C735 C731 1.429 . S
C735 C736 1.523 . S
C736 C720 1.368 . S
C736 C732 1.368 . S
C736 C735 1.523 . S
H737 C712 0.950 . S
H738 C714 0.950 . S
H739 C715 0.949 . S
H740 C717 0.950 . S
H741 C719 0.950 . S
C742 C743 1.349 . S
C742 C744 1.327 . S
C742 H767 0.950 . S
C743 C742 1.349 . S
C743 C759 1.349 . S
C744 C742 1.327 . S
C744 C763 1.429 . S
C744 H768 0.950 . S
C745 C762 1.574 . S
C745 C764 1.368 . S
C745 H769 0.949 . S
H746 C750 0.949 . S
C747 C748 1.349 . S
C747 C749 1.327 . S
C747 H770 0.950 . S
C748 C747 1.349 . S
C748 C760 1.349 . S
C749 C747 1.327 . S
C749 C765 1.429 . S
C749 H771 0.950 . S
C750 H746 0.949 . S
C750 C758 1.574 . S
C750 C766 1.368 . S
H751 C759 0.950 . S
H752 C757 0.950 . S
H753 C758 0.949 . S
H754 C760 0.950 . S
H755 C761 0.950 . S
H756 C762 0.949 . S
C757 H752 0.950 . S
C757 C759 1.327 . S
C757 C763 1.429 . S
C758 C750 1.574 . S
C758 H753 0.949 . S
C758 C764 1.368 . S
C759 C743 1.349 . S
C759 H751 0.950 . S
C759 C757 1.327 . S
C760 C748 1.349 . S
C760 H754 0.950 . S
C760 C761 1.327 . S
C761 H755 0.950 . S
C761 C760 1.327 . S
C761 C765 1.429 . S
C762 C745 1.574 . S
C762 H756 0.949 . S
C762 C766 1.368 . S
C763 C744 1.429 . S
C763 C757 1.429 . S
C763 C764 1.523 . S
C764 C745 1.368 . S
C764 C758 1.368 . S
C764 C763 1.523 . S
C765 C749 1.429 . S
C765 C761 1.429 . S
C765 C766 1.523 . S
C766 C750 1.368 . S
C766 C762 1.368 . S
C766 C765 1.523 . S
H767 C742 0.950 . S
H768 C744 0.950 . S
H769 C745 0.949 . S
H770 C747 0.950 . S
H771 C749 0.950 . S
C772 C773 1.349 . S
C772 C774 1.327 . S
C772 H797 0.950 . S
C773 C772 1.349 . S
C773 C789 1.349 . S
C774 C772 1.327 . S
C774 C793 1.429 . S
C774 H798 0.950 . S
C775 C792 1.574 . S
C775 C794 1.368 . S
C775 H799 0.949 . S
H776 C780 0.949 . S
C777 C778 1.349 . S
C777 C779 1.327 . S
C777 H800 0.950 . S
C778 C777 1.349 . S
C778 C790 1.349 . S
C779 C777 1.327 . S
C779 C795 1.429 . S
C779 H801 0.950 . S
C780 H776 0.949 . S
C780 C788 1.574 . S
C780 C796 1.368 . S
H781 C789 0.950 . S
H782 C787 0.950 . S
H783 C788 0.949 . S
H784 C790 0.950 . S
H785 C791 0.950 . S
H786 C792 0.949 . S
C787 H782 0.950 . S
C787 C789 1.327 . S
C787 C793 1.429 . S
C788 C780 1.574 . S
C788 H783 0.949 . S
C788 C794 1.368 . S
C789 C773 1.349 . S
C789 H781 0.950 . S
C789 C787 1.327 . S
C790 C778 1.349 . S
C790 H784 0.950 . S
C790 C791 1.327 . S
C791 H785 0.950 . S
C791 C790 1.327 . S
C791 C795 1.429 . S
C792 C775 1.574 . S
C792 H786 0.949 . S
C792 C796 1.368 . S
C793 C774 1.429 . S
C793 C787 1.429 . S
C793 C794 1.523 . S
C794 C775 1.368 . S
C794 C788 1.368 . S
C794 C793 1.523 . S
C795 C779 1.429 . S
C795 C791 1.429 . S
C795 C796 1.523 . S
C796 C780 1.368 . S
C796 C792 1.368 . S
C796 C795 1.523 . S
H797 C772 0.950 . S
H798 C774 0.950 . S
H799 C775 0.949 . S
H800 C777 0.950 . S
H801 C779 0.950 . S
C802 C803 1.349 . S
C802 C804 1.327 . S
C802 H827 0.950 . S
C803 C802 1.349 . S
C803 C819 1.349 . S
C804 C802 1.327 . S
C804 C823 1.429 . S
C804 H828 0.950 . S
C805 C822 1.574 . S
C805 C824 1.368 . S
C805 H829 0.949 . S
H806 C810 0.949 . S
C807 C808 1.349 . S
C807 C809 1.327 . S
C807 H830 0.950 . S
C808 C807 1.349 . S
C808 C820 1.349 . S
C809 C807 1.327 . S
C809 C825 1.429 . S
C809 H831 0.950 . S
C810 H806 0.949 . S
C810 C818 1.574 . S
C810 C826 1.368 . S
H811 C819 0.950 . S
H812 C817 0.950 . S
H813 C818 0.949 . S
H814 C820 0.950 . S
H815 C821 0.950 . S
H816 C822 0.949 . S
C817 H812 0.950 . S
C817 C819 1.327 . S
C817 C823 1.429 . S
C818 C810 1.574 . S
C818 H813 0.949 . S
C818 C824 1.368 . S
C819 C803 1.349 . S
C819 H811 0.950 . S
C819 C817 1.327 . S
C820 C808 1.349 . S
C820 H814 0.950 . S
C820 C821 1.327 . S
C821 H815 0.950 . S
C821 C820 1.327 . S
C821 C825 1.429 . S
C822 C805 1.574 . S
C822 H816 0.949 . S
C822 C826 1.368 . S
C823 C804 1.429 . S
C823 C817 1.429 . S
C823 C824 1.523 . S
C824 C805 1.368 . S
C824 C818 1.368 . S
C824 C823 1.523 . S
C825 C809 1.429 . S
C825 C821 1.429 . S
C825 C826 1.523 . S
C826 C810 1.368 . S
C826 C822 1.368 . S
C826 C825 1.523 . S
H827 C802 0.950 . S
H828 C804 0.950 . S
H829 C805 0.949 . S
H830 C807 0.950 . S
H831 C809 0.950 . S
C832 C833 1.349 . S
C832 C834 1.327 . S
C832 H857 0.950 . S
C833 C832 1.349 . S
C833 C849 1.349 . S
C834 C832 1.327 . S
C834 C853 1.429 . S
C834 H858 0.950 . S
C835 C852 1.574 . S
C835 C854 1.368 . S
C835 H859 0.949 . S
H836 C840 0.949 . S
C837 C838 1.349 . S
C837 C839 1.327 . S
C837 H860 0.950 . S
C838 C837 1.349 . S
C838 C850 1.349 . S
C839 C837 1.327 . S
C839 C855 1.429 . S
C839 H861 0.950 . S
C840 H836 0.949 . S
C840 C848 1.574 . S
C840 C856 1.368 . S
H841 C849 0.950 . S
H842 C847 0.950 . S
H843 C848 0.949 . S
H844 C850 0.950 . S
H845 C851 0.950 . S
H846 C852 0.949 . S
C847 H842 0.950 . S
C847 C849 1.327 . S
C847 C853 1.429 . S
C848 C840 1.574 . S
C848 H843 0.949 . S
C848 C854 1.368 . S
C849 C833 1.349 . S
C849 H841 0.950 . S
C849 C847 1.327 . S
C850 C838 1.349 . S
C850 H844 0.950 . S
C850 C851 1.327 . S
C851 H845 0.950 . S
C851 C850 1.327 . S
C851 C855 1.429 . S
C852 C835 1.574 . S
C852 H846 0.949 . S
C852 C856 1.368 . S
C853 C834 1.429 . S
C853 C847 1.429 . S
C853 C854 1.523 . S
C854 C835 1.368 . S
C854 C848 1.368 . S
C854 C853 1.523 . S
C855 C839 1.429 . S
C855 C851 1.429 . S
C855 C856 1.523 . S
C856 C840 1.368 . S
C856 C852 1.368 . S
C856 C855 1.523 . S
H857 C832 0.950 . S
H858 C834 0.950 . S
H859 C835 0.949 . S
H860 C837 0.950 . S
H861 C839 0.950 . S
C862 C863 1.349 . S
C862 C864 1.327 . S
C862 H887 0.950 . S
C863 C862 1.349 . S
C863 C879 1.349 . S
C864 C862 1.327 . S
C864 C883 1.429 . S
C864 H888 0.950 . S
C865 C882 1.574 . S
C865 C884 1.368 . S
C865 H889 0.949 . S
H866 C870 0.949 . S
C867 C868 1.349 . S
C867 C869 1.327 . S
C867 H890 0.950 . S
C868 C867 1.349 . S
C868 C880 1.349 . S
C869 C867 1.327 . S
C869 C885 1.429 . S
C869 H891 0.950 . S
C870 H866 0.949 . S
C870 C878 1.574 . S
C870 C886 1.368 . S
H871 C879 0.950 . S
H872 C877 0.950 . S
H873 C878 0.949 . S
H874 C880 0.950 . S
H875 C881 0.950 . S
H876 C882 0.949 . S
C877 H872 0.950 . S
C877 C879 1.327 . S
C877 C883 1.429 . S
C878 C870 1.574 . S
C878 H873 0.949 . S
C878 C884 1.368 . S
C879 C863 1.349 . S
C879 H871 0.950 . S
C879 C877 1.327 . S
C880 C868 1.349 . S
C880 H874 0.950 . S
C880 C881 1.327 . S
C881 H875 0.950 . S
C881 C880 1.327 . S
C881 C885 1.429 . S
C882 C865 1.574 . S
C882 H876 0.949 . S
C882 C886 1.368 . S
C883 C864 1.429 . S
C883 C877 1.429 . S
C883 C884 1.523 . S
C884 C865 1.368 . S
C884 C878 1.368 . S
C884 C883 1.523 . S
C885 C869 1.429 . S
C885 C881 1.429 . S
C885 C886 1.523 . S
C886 C870 1.368 . S
C886 C882 1.368 . S
C886 C885 1.523 . S
H887 C862 0.950 . S
H888 C864 0.950 . S
H889 C865 0.949 . S
H890 C867 0.950 . S
H891 C869 0.950 . S
C892 C893 1.349 . S
C892 C894 1.327 . S
C892 H917 0.950 . S
C893 C892 1.349 . S
C893 C909 1.349 . S
C894 C892 1.327 . S
C894 C913 1.429 . S
C894 H918 0.950 . S
C895 C912 1.574 . S
C895 C914 1.368 . S
C895 H919 0.949 . S
H896 C900 0.949 . S
C897 C898 1.349 . S
C897 C899 1.327 . S
C897 H920 0.950 . S
C898 C897 1.349 . S
C898 C910 1.349 . S
C899 C897 1.327 . S
C899 C915 1.429 . S
C899 H921 0.950 . S
C900 H896 0.949 . S
C900 C908 1.574 . S
C900 C916 1.368 . S
H901 C909 0.950 . S
H902 C907 0.950 . S
H903 C908 0.949 . S
H904 C910 0.950 . S
H905 C911 0.950 . S
H906 C912 0.949 . S
C907 H902 0.950 . S
C907 C909 1.327 . S
C907 C913 1.429 . S
C908 C900 1.574 . S
C908 H903 0.949 . S
C908 C914 1.368 . S
C909 C893 1.349 . S
C909 H901 0.950 . S
C909 C907 1.327 . S
C910 C898 1.349 . S
C910 H904 0.950 . S
C910 C911 1.327 . S
C911 H905 0.950 . S
C911 C910 1.327 . S
C911 C915 1.429 . S
C912 C895 1.574 . S
C912 H906 0.949 . S
C912 C916 1.368 . S
C913 C894 1.429 . S
C913 C907 1.429 . S
C913 C914 1.523 . S
C914 C895 1.368 . S
C914 C908 1.368 . S
C914 C913 1.523 . S
C915 C899 1.429 . S
C915 C911 1.429 . S
C915 C916 1.523 . S
C916 C900 1.368 . S
C916 C912 1.368 . S
C916 C915 1.523 . S
H917 C892 0.950 . S
H918 C894 0.950 . S
H919 C895 0.949 . S
H920 C897 0.950 . S
H921 C899 0.950 . S
C922 C923 1.349 . S
C922 C924 1.327 . S
C922 H947 0.950 . S
C923 C922 1.349 . S
C923 C939 1.349 . S
C924 C922 1.327 . S
C924 C943 1.429 . S
C924 H948 0.950 . S
C925 C942 1.574 . S
C925 C944 1.368 . S
C925 H949 0.949 . S
H926 C930 0.949 . S
C927 C928 1.349 . S
C927 C929 1.327 . S
C927 H950 0.950 . S
C928 C927 1.349 . S
C928 C940 1.349 . S
C929 C927 1.327 . S
C929 C945 1.429 . S
C929 H951 0.950 . S
C930 H926 0.949 . S
C930 C938 1.574 . S
C930 C946 1.368 . S
H931 C939 0.950 . S
H932 C937 0.950 . S
H933 C938 0.949 . S
H934 C940 0.950 . S
H935 C941 0.950 . S
H936 C942 0.949 . S
C937 H932 0.950 . S
C937 C939 1.327 . S
C937 C943 1.429 . S
C938 C930 1.574 . S
C938 H933 0.949 . S
C938 C944 1.368 . S
C939 C923 1.349 . S
C939 H931 0.950 . S
C939 C937 1.327 . S
C940 C928 1.349 . S
C940 H934 0.950 . S
C940 C941 1.327 . S
C941 H935 0.950 . S
C941 C940 1.327 . S
C941 C945 1.429 . S
C942 C925 1.574 . S
C942 H936 0.949 . S
C942 C946 1.368 . S
C943 C924 1.429 . S
C943 C937 1.429 . S
C943 C944 1.523 . S
C944 C925 1.368 . S
C944 C938 1.368 . S
C944 C943 1.523 . S
C945 C929 1.429 . S
C945 C941 1.429 . S
C945 C946 1.523 . S
C946 C930 1.368 . S
C946 C942 1.368 . S
C946 C945 1.523 . S
H947 C922 0.950 . S
H948 C924 0.950 . S
H949 C925 0.949 . S
H950 C927 0.950 . S
H951 C929 0.950 . S
C952 C953 1.349 . S
C952 C954 1.327 . S
C952 H977 0.950 . S
C953 C952 1.349 . S
C953 C969 1.349 . S
C954 C952 1.327 . S
C954 C973 1.429 . S
C954 H978 0.950 . S
C955 C972 1.574 . S
C955 C974 1.368 . S
C955 H979 0.949 . S
H956 C960 0.949 . S
C957 C958 1.349 . S
C957 C959 1.327 . S
C957 H980 0.950 . S
C958 C957 1.349 . S
C958 C970 1.349 . S
C959 C957 1.327 . S
C959 C975 1.429 . S
C959 H981 0.950 . S
C960 H956 0.949 . S
C960 C968 1.574 . S
C960 C976 1.368 . S
H961 C969 0.950 . S
H962 C967 0.950 . S
H963 C968 0.949 . S
H964 C970 0.950 . S
H965 C971 0.950 . S
H966 C972 0.949 . S
C967 H962 0.950 . S
C967 C969 1.327 . S
C967 C973 1.429 . S
C968 C960 1.574 . S
C968 H963 0.949 . S
C968 C974 1.368 . S
C969 C953 1.349 . S
C969 H961 0.950 . S
C969 C967 1.327 . S
C970 C958 1.349 . S
C970 H964 0.950 . S
C970 C971 1.327 . S
C971 H965 0.950 . S
C971 C970 1.327 . S
C971 C975 1.429 . S
C972 C955 1.574 . S
C972 H966 0.949 . S
C972 C976 1.368 . S
C973 C954 1.429 . S
C973 C967 1.429 . S
C973 C974 1.523 . S
C974 C955 1.368 . S
C974 C968 1.368 . S
C974 C973 1.523 . S
C975 C959 1.429 . S
C975 C971 1.429 . S
C975 C976 1.523 . S
C976 C960 1.368 . S
C976 C972 1.368 . S
C976 C975 1.523 . S
H977 C952 0.950 . S
H978 C954 0.950 . S
H979 C955 0.949 . S
H980 C957 0.950 . S
H981 C959 0.950 . S
C982 C983 1.349 . S
C982 C984 1.327 . S
C982 H1007 0.950 . S
C983 C982 1.349 . S
C983 C999 1.349 . S
C984 C982 1.327 . S
C984 C1003 1.429 . S
C984 H1008 0.950 . S
C985 C1002 1.574 . S
C985 C1004 1.368 . S
C985 H1009 0.949 . S
H986 C990 0.949 . S
C987 C988 1.349 . S
C987 C989 1.327 . S
C987 H1010 0.950 . S
C988 C987 1.349 . S
C988 C1000 1.349 . S
C989 C987 1.327 . S
C989 C1005 1.429 . S
C989 H1011 0.950 . S
C990 H986 0.949 . S
C990 C998 1.574 . S
C990 C1006 1.368 . S
H991 C999 0.950 . S
H992 C997 0.950 . S
H993 C998 0.949 . S
H994 C1000 0.950 . S
H995 C1001 0.950 . S
H996 C1002 0.949 . S
C997 H992 0.950 . S
C997 C999 1.327 . S
C997 C1003 1.429 . S
C998 C990 1.574 . S
C998 H993 0.949 . S
C998 C1004 1.368 . S
C999 C983 1.349 . S
C999 H991 0.950 . S
C999 C997 1.327 . S
C1000 C988 1.349 . S
C1000 H994 0.950 . S
C1000 C1001 1.327 . S
C1001 H995 0.950 . S
C1001 C1000 1.327 . S
C1001 C1005 1.429 . S
C1002 C985 1.574 . S
C1002 H996 0.949 . S
C1002 C1006 1.368 . S
C1003 C984 1.429 . S
C1003 C997 1.429 . S
C1003 C1004 1.523 . S
C1004 C985 1.368 . S
C1004 C998 1.368 . S
C1004 C1003 1.523 . S
C1005 C989 1.429 . S
C1005 C1001 1.429 . S
C1005 C1006 1.523 . S
C1006 C990 1.368 . S
C1006 C1002 1.368 . S
C1006 C1005 1.523 . S
H1007 C982 0.950 . S
H1008 C984 0.950 . S
H1009 C985 0.949 . S
H1010 C987 0.950 . S
H1011 C989 0.950 . S
C1012 C1013 1.349 . S
C1012 C1014 1.327 . S
C1012 H1037 0.950 . S
C1013 C1012 1.349 . S
C1013 C1029 1.349 . S
C1014 C1012 1.327 . S
C1014 C1033 1.429 . S
C1014 H1038 0.950 . S
C1015 C1032 1.574 . S
C1015 C1034 1.368 . S
C1015 H1039 0.949 . S
H1016 C1020 0.949 . S
C1017 C1018 1.349 . S
C1017 C1019 1.327 . S
C1017 H1040 0.950 . S
C1018 C1017 1.349 . S
C1018 C1030 1.349 . S
C1019 C1017 1.327 . S
C1019 C1035 1.429 . S
C1019 H1041 0.950 . S
C1020 H1016 0.949 . S
C1020 C1028 1.574 . S
C1020 C1036 1.368 . S
H1021 C1029 0.950 . S
H1022 C1027 0.950 . S
H1023 C1028 0.949 . S
H1024 C1030 0.950 . S
H1025 C1031 0.950 . S
H1026 C1032 0.949 . S
C1027 H1022 0.950 . S
C1027 C1029 1.327 . S
C1027 C1033 1.429 . S
C1028 C1020 1.574 . S
C1028 H1023 0.949 . S
C1028 C1034 1.368 . S
C1029 C1013 1.349 . S
C1029 H1021 0.950 . S
C1029 C1027 1.327 . S
C1030 C1018 1.349 . S
C1030 H1024 0.950 . S
C1030 C1031 1.327 . S
C1031 H1025 0.950 . S
C1031 C1030 1.327 . S
C1031 C1035 1.429 . S
C1032 C1015 1.574 . S
C1032 H1026 0.949 . S
C1032 C1036 1.368 . S
C1033 C1014 1.429 . S
C1033 C1027 1.429 . S
C1033 C1034 1.523 . S
C1034 C1015 1.368 . S
C1034 C1028 1.368 . S
C1034 C1033 1.523 . S
C1035 C1019 1.429 . S
C1035 C1031 1.429 . S
C1035 C1036 1.523 . S
C1036 C1020 1.368 . S
C1036 C1032 1.368 . S
C1036 C1035 1.523 . S
H1037 C1012 0.950 . S
H1038 C1014 0.950 . S
H1039 C1015 0.949 . S
H1040 C1017 0.950 . S
H1041 C1019 0.950 . S
C1042 C1043 1.349 . S
C1042 C1044 1.327 . S
C1042 H1067 0.950 . S
C1043 C1042 1.349 . S
C1043 C1059 1.349 . S
C1044 C1042 1.327 . S
C1044 C1063 1.429 . S
C1044 H1068 0.950 . S
C1045 C1062 1.574 . S
C1045 C1064 1.368 . S
C1045 H1069 0.949 . S
H1046 C1050 0.949 . S
C1047 C1048 1.349 . S
C1047 C1049 1.327 . S
C1047 H1070 0.950 . S
C1048 C1047 1.349 . S
C1048 C1060 1.349 . S
C1049 C1047 1.327 . S
C1049 C1065 1.429 . S
C1049 H1071 0.950 . S
C1050 H1046 0.949 . S
C1050 C1058 1.574 . S
C1050 C1066 1.368 . S
H1051 C1059 0.950 . S
H1052 C1057 0.950 . S
H1053 C1058 0.949 . S
H1054 C1060 0.950 . S
H1055 C1061 0.950 . S
H1056 C1062 0.949 . S
C1057 H1052 0.950 . S
C1057 C1059 1.327 . S
C1057 C1063 1.429 . S
C1058 C1050 1.574 . S
C1058 H1053 0.949 . S
C1058 C1064 1.368 . S
C1059 C1043 1.349 . S
C1059 H1051 0.950 . S
C1059 C1057 1.327 . S
C1060 C1048 1.349 . S
C1060 H1054 0.950 . S
C1060 C1061 1.327 . S
C1061 H1055 0.950 . S
C1061 C1060 1.327 . S
C1061 C1065 1.429 . S
C1062 C1045 1.574 . S
C1062 H1056 0.949 . S
C1062 C1066 1.368 . S
C1063 C1044 1.429 . S
C1063 C1057 1.429 . S
C1063 C1064 1.523 . S
C1064 C1045 1.368 . S
C1064 C1058 1.368 . S
C1064 C1063 1.523 . S
C1065 C1049 1.429 . S
C1065 C1061 1.429 . S
C1065 C1066 1.523 . S
C1066 C1050 1.368 . S
C1066 C1062 1.368 . S
C1066 C1065 1.523 . S
H1067 C1042 0.950 . S
H1068 C1044 0.950 . S
H1069 C1045 0.949 . S
H1070 C1047 0.950 . S
H1071 C1049 0.950 . S
C1072 C1073 1.349 . S
C1072 C1074 1.327 . S
C1072 H1097 0.950 . S
C1073 C1072 1.349 . S
C1073 C1089 1.349 . S
C1074 C1072 1.327 . S
C1074 C1093 1.429 . S
C1074 H1098 0.950 . S
C1075 C1092 1.574 . S
C1075 C1094 1.368 . S
C1075 H1099 0.949 . S
H1076 C1080 0.949 . S
C1077 C1078 1.349 . S
C1077 C1079 1.327 . S
C1077 H1100 0.950 . S
C1078 C1077 1.349 . S
C1078 C1090 1.349 . S
C1079 C1077 1.327 . S
C1079 C1095 1.429 . S
C1079 H1101 0.950 . S
C1080 H1076 0.949 . S
C1080 C1088 1.574 . S
C1080 C1096 1.368 . S
H1081 C1089 0.950 . S
H1082 C1087 0.950 . S
H1083 C1088 0.949 . S
H1084 C1090 0.950 . S
H1085 C1091 0.950 . S
H1086 C1092 0.949 . S
C1087 H1082 0.950 . S
C1087 C1089 1.327 . S
C1087 C1093 1.429 . S
C1088 C1080 1.574 . S
C1088 H1083 0.949 . S
C1088 C1094 1.368 . S
C1089 C1073 1.349 . S
C1089 H1081 0.950 . S
C1089 C1087 1.327 . S
C1090 C1078 1.349 . S
C1090 H1084 0.950 . S
C1090 C1091 1.327 . S
C1091 H1085 0.950 . S
C1091 C1090 1.327 . S
C1091 C1095 1.429 . S
C1092 C1075 1.574 . S
C1092 H1086 0.949 . S
C1092 C1096 1.368 . S
C1093 C1074 1.429 . S
C1093 C1087 1.429 . S
C1093 C1094 1.523 . S
C1094 C1075 1.368 . S
C1094 C1088 1.368 . S
C1094 C1093 1.523 . S
C1095 C1079 1.429 . S
C1095 C1091 1.429 . S
C1095 C1096 1.523 . S
C1096 C1080 1.368 . S
C1096 C1092 1.368 . S
C1096 C1095 1.523 . S
H1097 C1072 0.950 . S
H1098 C1074 0.950 . S
H1099 C1075 0.949 . S
H1100 C1077 0.950 . S
H1101 C1079 0.950 . S
C1102 C1103 1.349 . S
C1102 C1104 1.327 . S
C1102 H1127 0.950 . S
C1103 C1102 1.349 . S
C1103 C1119 1.349 . S
C1104 C1102 1.327 . S
C1104 C1123 1.429 . S
C1104 H1128 0.950 . S
C1105 C1122 1.574 . S
C1105 C1124 1.368 . S
C1105 H1129 0.949 . S
H1106 C1110 0.949 . S
C1107 C1108 1.349 . S
C1107 C1109 1.327 . S
C1107 H1130 0.950 . S
C1108 C1107 1.349 . S
C1108 C1120 1.349 . S
C1109 C1107 1.327 . S
C1109 C1125 1.429 . S
C1109 H1131 0.950 . S
C1110 H1106 0.949 . S
C1110 C1118 1.574 . S
C1110 C1126 1.368 . S
H1111 C1119 0.950 . S
H1112 C1117 0.950 . S
H1113 C1118 0.949 . S
H1114 C1120 0.950 . S
H1115 C1121 0.950 . S
H1116 C1122 0.949 . S
C1117 H1112 0.950 . S
C1117 C1119 1.327 . S
C1117 C1123 1.429 . S
C1118 C1110 1.574 . S
C1118 H1113 0.949 . S
C1118 C1124 1.368 . S
C1119 C1103 1.349 . S
C1119 H1111 0.950 . S
C1119 C1117 1.327 . S
C1120 C1108 1.349 . S
C1120 H1114 0.950 . S
C1120 C1121 1.327 . S
C1121 H1115 0.950 . S
C1121 C1120 1.327 . S
C1121 C1125 1.429 . S
C1122 C1105 1.574 . S
C1122 H1116 0.949 . S
C1122 C1126 1.368 . S
C1123 C1104 1.429 . S
C1123 C1117 1.429 . S
C1123 C1124 1.523 . S
C1124 C1105 1.368 . S
C1124 C1118 1.368 . S
C1124 C1123 1.523 . S
C1125 C1109 1.429 . S
C1125 C1121 1.429 . S
C1125 C1126 1.523 . S
C1126 C1110 1.368 . S
C1126 C1122 1.368 . S
C1126 C1125 1.523 . S
H1127 C1102 0.950 . S
H1128 C1104 0.950 . S
H1129 C1105 0.949 . S
H1130 C1107 0.950 . S
H1131 C1109 0.950 . S
C1132 C1133 1.349 . S
C1132 C1134 1.327 . S
C1132 H1157 0.950 . S
C1133 C1132 1.349 . S
C1133 C1149 1.349 . S
C1134 C1132 1.327 . S
C1134 C1153 1.429 . S
C1134 H1158 0.950 . S
C1135 C1152 1.574 . S
C1135 C1154 1.368 . S
C1135 H1159 0.949 . S
H1136 C1140 0.949 . S
C1137 C1138 1.349 . S
C1137 C1139 1.327 . S
C1137 H1160 0.950 . S
C1138 C1137 1.349 . S
C1138 C1150 1.349 . S
C1139 C1137 1.327 . S
C1139 C1155 1.429 . S
C1139 H1161 0.950 . S
C1140 H1136 0.949 . S
C1140 C1148 1.574 . S
C1140 C1156 1.368 . S
H1141 C1149 0.950 . S
H1142 C1147 0.950 . S
H1143 C1148 0.949 . S
H1144 C1150 0.950 . S
H1145 C1151 0.950 . S
H1146 C1152 0.949 . S
C1147 H1142 0.950 . S
C1147 C1149 1.327 . S
C1147 C1153 1.429 . S
C1148 C1140 1.574 . S
C1148 H1143 0.949 . S
C1148 C1154 1.368 . S
C1149 C1133 1.349 . S
C1149 H1141 0.950 . S
C1149 C1147 1.327 . S
C1150 C1138 1.349 . S
C1150 H1144 0.950 . S
C1150 C1151 1.327 . S
C1151 H1145 0.950 . S
C1151 C1150 1.327 . S
C1151 C1155 1.429 . S
C1152 C1135 1.574 . S
C1152 H1146 0.949 . S
C1152 C1156 1.368 . S
C1153 C1134 1.429 . S
C1153 C1147 1.429 . S
C1153 C1154 1.523 . S
C1154 C1135 1.368 . S
C1154 C1148 1.368 . S
C1154 C1153 1.523 . S
C1155 C1139 1.429 . S
C1155 C1151 1.429 . S
C1155 C1156 1.523 . S
C1156 C1140 1.368 . S
C1156 C1152 1.368 . S
C1156 C1155 1.523 . S
H1157 C1132 0.950 . S
H1158 C1134 0.950 . S
H1159 C1135 0.949 . S
H1160 C1137 0.950 . S
H1161 C1139 0.950 . S
C1162 C1163 1.349 . S
C1162 C1164 1.327 . S
C1162 H1187 0.950 . S
C1163 C1162 1.349 . S
C1163 C1179 1.349 . S
C1164 C1162 1.327 . S
C1164 C1183 1.429 . S
C1164 H1188 0.950 . S
C1165 C1182 1.574 . S
C1165 C1184 1.368 . S
C1165 H1189 0.949 . S
H1166 C1170 0.949 . S
C1167 C1168 1.349 . S
C1167 C1169 1.327 . S
C1167 H1190 0.950 . S
C1168 C1167 1.349 . S
C1168 C1180 1.349 . S
C1169 C1167 1.327 . S
C1169 C1185 1.429 . S
C1169 H1191 0.950 . S
C1170 H1166 0.949 . S
C1170 C1178 1.574 . S
C1170 C1186 1.368 . S
H1171 C1179 0.950 . S
H1172 C1177 0.950 . S
H1173 C1178 0.949 . S
H1174 C1180 0.950 . S
H1175 C1181 0.950 . S
H1176 C1182 0.949 . S
C1177 H1172 0.950 . S
C1177 C1179 1.327 . S
C1177 C1183 1.429 . S
C1178 C1170 1.574 . S
C1178 H1173 0.949 . S
C1178 C1184 1.368 . S
C1179 C1163 1.349 . S
C1179 H1171 0.950 . S
C1179 C1177 1.327 . S
C1180 C1168 1.349 . S
C1180 H1174 0.950 . S
C1180 C1181 1.327 . S
C1181 H1175 0.950 . S
C1181 C1180 1.327 . S
C1181 C1185 1.429 . S
C1182 C1165 1.574 . S
C1182 H1176 0.949 . S
C1182 C1186 1.368 . S
C1183 C1164 1.429 . S
C1183 C1177 1.429 . S
C1183 C1184 1.523 . S
C1184 C1165 1.368 . S
C1184 C1178 1.368 . S
C1184 C1183 1.523 . S
C1185 C1169 1.429 . S
C1185 C1181 1.429 . S
C1185 C1186 1.523 . S
C1186 C1170 1.368 . S
C1186 C1182 1.368 . S
C1186 C1185 1.523 . S
H1187 C1162 0.950 . S
H1188 C1164 0.950 . S
H1189 C1165 0.949 . S
H1190 C1167 0.950 . S
H1191 C1169 0.950 . S
C473 C1 1.196 . S
C478 C318 1.231 . S
C503 C40 0.916 . S
C508 C367 0.914 . S
C538 C402 2.458 . S
C533 C99 2.511 . S
C563 C118 2.342 . S
C568 C441 2.279 . S
C598 C362 2.472 . S
C593 C16 2.394 . S
C628 C321 0.875 . S
C623 C60 0.899 . S
C658 C451 1.870 . S
C653 C79 1.922 . S
C688 C410 1.504 . S
C683 C138 1.535 . S
C713 C21 1.682 . S
C718 C438 1.737 . S
C748 C370 2.333 . S
C743 C94 2.418 . S
C773 C133 2.328 . S
C778 C331 2.309 . S
C803 C55 0.713 . S
C808 C407 0.711 . S
C838 C327 1.235 . S
C833 C157 1.205 . S
C863 C196 0.917 . S
C868 C358 0.914 . S
C893 C255 2.508 . S
C898 C411 2.456 . S
C923 C289 2.338 . S
C928 C450 2.273 . S
C953 C172 2.384 . S
C958 C371 2.470 . S
C988 C330 0.876 . S
C983 C216 0.900 . S
C1018 C442 1.870 . S
C1013 C235 1.923 . S
C1048 C401 1.503 . S
C1043 C294 1.535 . S
C1073 C177 1.695 . S
C1078 C447 1.736 . S
C1108 C361 2.335 . S
C1103 C250 2.420 . S
C1138 C322 2.314 . S
C1133 C274 2.331 . S
C1163 C211 0.710 . S
C1168 C398 0.708 . S
