# Generated by pormake.
# Topology ptr, (4,4)-cn, num edge types: 1
# Building blocks:
#     Node 0, Type 0, BuildingBlock: QUQFOY_clean_sbu_3, # of connection points: 4
#     Node 1, Type 0, BuildingBlock: QUQFOY_clean_sbu_3, # of connection points: 4
#     Node 2, Type 0, BuildingBlock: QUQFOY_clean_sbu_3, # of connection points: 4
#     Node 3, Type 0, BuildingBlock: QUQFOY_clean_sbu_3, # of connection points: 4
#     Node 4, Type 0, BuildingBlock: QUQFOY_clean_sbu_3, # of connection points: 4
#     Node 5, Type 0, BuildingBlock: QUQFOY_clean_sbu_3, # of connection points: 4
#     Node 6, Type 0, BuildingBlock: QUQFOY_clean_sbu_3, # of connection points: 4
#     Node 7, Type 0, BuildingBlock: QUQFOY_clean_sbu_3, # of connection points: 4
#     Node 8, Type 0, BuildingBlock: QUQFOY_clean_sbu_3, # of connection points: 4
#     Node 9, Type 0, BuildingBlock: QUQFOY_clean_sbu_3, # of connection points: 4
#     Node 10, Type 0, BuildingBlock: QUQFOY_clean_sbu_3, # of connection points: 4
#     Node 11, Type 0, BuildingBlock: QUQFOY_clean_sbu_3, # of connection points: 4
#     Node 12, Type 0, BuildingBlock: QUQFOY_clean_sbu_3, # of connection points: 4
#     Node 13, Type 0, BuildingBlock: QUQFOY_clean_sbu_3, # of connection points: 4
#     Node 14, Type 0, BuildingBlock: QUQFOY_clean_sbu_3, # of connection points: 4
#     Node 15, Type 0, BuildingBlock: QUQFOY_clean_sbu_3, # of connection points: 4
#     Node 16, Type 0, BuildingBlock: QUQFOY_clean_sbu_3, # of connection points: 4
#     Node 17, Type 0, BuildingBlock: QUQFOY_clean_sbu_3, # of connection points: 4
#     Node 18, Type 1, BuildingBlock: MUDLON_clean_linker_0, # of connection points: 4
#     Node 19, Type 1, BuildingBlock: MUDLON_clean_linker_0, # of connection points: 4
#     Node 20, Type 1, BuildingBlock: MUDLON_clean_linker_0, # of connection points: 4
#     Node 21, Type 1, BuildingBlock: MUDLON_clean_linker_0, # of connection points: 4
#     Node 22, Type 1, BuildingBlock: MUDLON_clean_linker_0, # of connection points: 4
#     Node 23, Type 1, BuildingBlock: MUDLON_clean_linker_0, # of connection points: 4
#     Node 24, Type 1, BuildingBlock: MUDLON_clean_linker_0, # of connection points: 4
#     Node 25, Type 1, BuildingBlock: MUDLON_clean_linker_0, # of connection points: 4
#     Node 26, Type 1, BuildingBlock: MUDLON_clean_linker_0, # of connection points: 4
#     Node 27, Type 1, BuildingBlock: MUDLON_clean_linker_0, # of connection points: 4
#     Node 28, Type 1, BuildingBlock: MUDLON_clean_linker_0, # of connection points: 4
#     Node 29, Type 1, BuildingBlock: MUDLON_clean_linker_0, # of connection points: 4
#     Node 30, Type 1, BuildingBlock: MUDLON_clean_linker_0, # of connection points: 4
#     Node 31, Type 1, BuildingBlock: MUDLON_clean_linker_0, # of connection points: 4
#     Node 32, Type 1, BuildingBlock: MUDLON_clean_linker_0, # of connection points: 4
#     Node 33, Type 1, BuildingBlock: MUDLON_clean_linker_0, # of connection points: 4
#     Node 34, Type 1, BuildingBlock: MUDLON_clean_linker_0, # of connection points: 4
#     Node 35, Type 1, BuildingBlock: MUDLON_clean_linker_0, # of connection points: 4
#     Edge 36, Type (0, 1), BuildingBlock: XUDNAN_clean_linker_2, # of connection points: 2
#     Edge 37, Type (0, 1), BuildingBlock: XUDNAN_clean_linker_2, # of connection points: 2
#     Edge 38, Type (0, 1), BuildingBlock: XUDNAN_clean_linker_2, # of connection points: 2
#     Edge 39, Type (0, 1), BuildingBlock: XUDNAN_clean_linker_2, # of connection points: 2
#     Edge 40, Type (0, 1), BuildingBlock: XUDNAN_clean_linker_2, # of connection points: 2
#     Edge 41, Type (0, 1), BuildingBlock: XUDNAN_clean_linker_2, # of connection points: 2
#     Edge 42, Type (0, 1), BuildingBlock: XUDNAN_clean_linker_2, # of connection points: 2
#     Edge 43, Type (0, 1), BuildingBlock: XUDNAN_clean_linker_2, # of connection points: 2
#     Edge 44, Type (0, 1), BuildingBlock: XUDNAN_clean_linker_2, # of connection points: 2
#     Edge 45, Type (0, 1), BuildingBlock: XUDNAN_clean_linker_2, # of connection points: 2
#     Edge 46, Type (0, 1), BuildingBlock: XUDNAN_clean_linker_2, # of connection points: 2
#     Edge 47, Type (0, 1), BuildingBlock: XUDNAN_clean_linker_2, # of connection points: 2
#     Edge 48, Type (0, 1), BuildingBlock: XUDNAN_clean_linker_2, # of connection points: 2
#     Edge 49, Type (0, 1), BuildingBlock: XUDNAN_clean_linker_2, # of connection points: 2
#     Edge 50, Type (0, 1), BuildingBlock: XUDNAN_clean_linker_2, # of connection points: 2
#     Edge 51, Type (0, 1), BuildingBlock: XUDNAN_clean_linker_2, # of connection points: 2
#     Edge 52, Type (0, 1), BuildingBlock: XUDNAN_clean_linker_2, # of connection points: 2
#     Edge 53, Type (0, 1), BuildingBlock: XUDNAN_clean_linker_2, # of connection points: 2
#     Edge 54, Type (0, 1), BuildingBlock: XUDNAN_clean_linker_2, # of connection points: 2
#     Edge 55, Type (0, 1), BuildingBlock: XUDNAN_clean_linker_2, # of connection points: 2
#     Edge 56, Type (0, 1), BuildingBlock: XUDNAN_clean_linker_2, # of connection points: 2
#     Edge 57, Type (0, 1), BuildingBlock: XUDNAN_clean_linker_2, # of connection points: 2
#     Edge 58, Type (0, 1), BuildingBlock: XUDNAN_clean_linker_2, # of connection points: 2
#     Edge 59, Type (0, 1), BuildingBlock: XUDNAN_clean_linker_2, # of connection points: 2
#     Edge 60, Type (0, 1), BuildingBlock: XUDNAN_clean_linker_2, # of connection points: 2
#     Edge 61, Type (0, 1), BuildingBlock: XUDNAN_clean_linker_2, # of connection points: 2
#     Edge 62, Type (0, 1), BuildingBlock: XUDNAN_clean_linker_2, # of connection points: 2
#     Edge 63, Type (0, 1), BuildingBlock: XUDNAN_clean_linker_2, # of connection points: 2
#     Edge 64, Type (0, 1), BuildingBlock: XUDNAN_clean_linker_2, # of connection points: 2
#     Edge 65, Type (0, 1), BuildingBlock: XUDNAN_clean_linker_2, # of connection points: 2
#     Edge 66, Type (0, 1), BuildingBlock: XUDNAN_clean_linker_2, # of connection points: 2
#     Edge 67, Type (0, 1), BuildingBlock: XUDNAN_clean_linker_2, # of connection points: 2
#     Edge 68, Type (0, 1), BuildingBlock: XUDNAN_clean_linker_2, # of connection points: 2
#     Edge 69, Type (0, 1), BuildingBlock: XUDNAN_clean_linker_2, # of connection points: 2
#     Edge 70, Type (0, 1), BuildingBlock: XUDNAN_clean_linker_2, # of connection points: 2
#     Edge 71, Type (0, 1), BuildingBlock: XUDNAN_clean_linker_2, # of connection points: 2
#     Edge 72, Type (0, 1), BuildingBlock: XUDNAN_clean_linker_2, # of connection points: 2
#     Edge 73, Type (0, 1), BuildingBlock: XUDNAN_clean_linker_2, # of connection points: 2
#     Edge 74, Type (0, 1), BuildingBlock: XUDNAN_clean_linker_2, # of connection points: 2
#     Edge 75, Type (0, 1), BuildingBlock: XUDNAN_clean_linker_2, # of connection points: 2
#     Edge 76, Type (0, 1), BuildingBlock: XUDNAN_clean_linker_2, # of connection points: 2
#     Edge 77, Type (0, 1), BuildingBlock: XUDNAN_clean_linker_2, # of connection points: 2
#     Edge 78, Type (0, 1), BuildingBlock: XUDNAN_clean_linker_2, # of connection points: 2
#     Edge 79, Type (0, 1), BuildingBlock: XUDNAN_clean_linker_2, # of connection points: 2
#     Edge 80, Type (0, 1), BuildingBlock: XUDNAN_clean_linker_2, # of connection points: 2
#     Edge 81, Type (0, 1), BuildingBlock: XUDNAN_clean_linker_2, # of connection points: 2
#     Edge 82, Type (0, 1), BuildingBlock: XUDNAN_clean_linker_2, # of connection points: 2
#     Edge 83, Type (0, 1), BuildingBlock: XUDNAN_clean_linker_2, # of connection points: 2
#     Edge 84, Type (0, 1), BuildingBlock: XUDNAN_clean_linker_2, # of connection points: 2
#     Edge 85, Type (0, 1), BuildingBlock: XUDNAN_clean_linker_2, # of connection points: 2
#     Edge 86, Type (0, 1), BuildingBlock: XUDNAN_clean_linker_2, # of connection points: 2
#     Edge 87, Type (0, 1), BuildingBlock: XUDNAN_clean_linker_2, # of connection points: 2
#     Edge 88, Type (0, 1), BuildingBlock: XUDNAN_clean_linker_2, # of connection points: 2
#     Edge 89, Type (0, 1), BuildingBlock: XUDNAN_clean_linker_2, # of connection points: 2
#     Edge 90, Type (0, 1), BuildingBlock: XUDNAN_clean_linker_2, # of connection points: 2
#     Edge 91, Type (0, 1), BuildingBlock: XUDNAN_clean_linker_2, # of connection points: 2
#     Edge 92, Type (0, 1), BuildingBlock: XUDNAN_clean_linker_2, # of connection points: 2
#     Edge 93, Type (0, 1), BuildingBlock: XUDNAN_clean_linker_2, # of connection points: 2
#     Edge 94, Type (0, 1), BuildingBlock: XUDNAN_clean_linker_2, # of connection points: 2
#     Edge 95, Type (0, 1), BuildingBlock: XUDNAN_clean_linker_2, # of connection points: 2
#     Edge 96, Type (0, 1), BuildingBlock: XUDNAN_clean_linker_2, # of connection points: 2
#     Edge 97, Type (0, 1), BuildingBlock: XUDNAN_clean_linker_2, # of connection points: 2
#     Edge 98, Type (0, 1), BuildingBlock: XUDNAN_clean_linker_2, # of connection points: 2
#     Edge 99, Type (0, 1), BuildingBlock: XUDNAN_clean_linker_2, # of connection points: 2
#     Edge 100, Type (0, 1), BuildingBlock: XUDNAN_clean_linker_2, # of connection points: 2
#     Edge 101, Type (0, 1), BuildingBlock: XUDNAN_clean_linker_2, # of connection points: 2
#     Edge 102, Type (0, 1), BuildingBlock: XUDNAN_clean_linker_2, # of connection points: 2
#     Edge 103, Type (0, 1), BuildingBlock: XUDNAN_clean_linker_2, # of connection points: 2
#     Edge 104, Type (0, 1), BuildingBlock: XUDNAN_clean_linker_2, # of connection points: 2
#     Edge 105, Type (0, 1), BuildingBlock: XUDNAN_clean_linker_2, # of connection points: 2
#     Edge 106, Type (0, 1), BuildingBlock: XUDNAN_clean_linker_2, # of connection points: 2
#     Edge 107, Type (0, 1), BuildingBlock: XUDNAN_clean_linker_2, # of connection points: 2
# Relax obj value: 0.030
# Max RMSD: 0.097
# Mean RMSD: 0.061
data_MOF--net-ptr--node1-QUQFOY_clean_sbu_3--node2-MUDLON_clean_linker_0--edge1-XUDNAN_clean_linker_2
_symmetry_space_group_name_H-M    P1
_symmetry_Int_Tables_number       1
_symmetry_cell_setting            triclinic
loop_
_symmetry_equiv_pos_as_xyz
'x, y, z'
_cell_length_a     105.8429
_cell_length_b     106.26181
_cell_length_c     64.476325
_cell_angle_alpha  90.212249
_cell_angle_beta   89.63705
_cell_angle_gamma 120.51733
loop_
_atom_site_label
_atom_site_type_symbol
_atom_site_fract_x
_atom_site_fract_y
_atom_site_fract_z
_atom_type_partial_charge
C0 C 0.96107 0.33297 0.00969 0.0
O1 O 0.95614 0.34047 0.01801 0.0
Cd2 Cd 0.97067 0.36422 0.03275 0.0
O3 O 0.97487 0.33797 0.00856 0.0
Cd4 Cd 0.99767 0.36071 0.01997 0.0
C5 C 0.99148 0.38344 0.99075 0.0
O6 O 0.98812 0.36246 0.05352 0.0
O7 O 0.00836 0.3816 0.04476 0.0
O8 O 0.00763 0.34554 0.03076 0.0
C9 C -0.00139 0.37489 0.05855 0.0
O10 O 0.98234 0.38194 0.00484 0.0
C11 C 0.0199 0.35282 0.02157 0.0
O12 O 0.99782 0.37596 0.99094 0.0
O13 O 0.02176 0.36361 0.01075 0.0
C14 C 0.63609 0.66968 0.03058 0.0
O15 O 0.62237 0.66334 0.02753 0.0
Cd16 Cd 0.6099 0.64012 0.00964 0.0
O17 O 0.64326 0.66348 0.02556 0.0
Cd18 Cd 0.64015 0.64065 0.01067 0.0
C19 C 0.61372 0.61725 0.04335 0.0
O20 O 0.62516 0.64053 0.98162 0.0
O21 O 0.62804 0.6219 0.9842 0.0
O22 O 0.66469 0.65881 0.00034 0.0
C23 C 0.62277 0.62843 0.97425 0.0
O24 O 0.60554 0.62066 0.03338 0.0
C25 C 0.67048 0.65099 0.00241 0.0
O26 O 0.62754 0.624 0.04023 0.0
O27 O 0.66212 0.63791 0.00844 0.0
C28 C 0.33084 0.96357 0.00466 0.0
O29 O 0.3377 0.95849 0.99477 0.0
Cd30 Cd 0.36327 0.972 0.9864 0.0
O31 O 0.33724 0.97704 0.00972 0.0
Cd32 Cd 0.36152 -0.00021 0.00416 0.0
C33 C 0.37801 0.98642 0.03459 0.0
O34 O 0.36702 0.99365 0.97025 0.0
O35 O 0.38464 0.01301 0.98428 0.0
O36 O 0.34816 0.01162 0.99358 0.0
C37 C 0.38 0.00437 0.96893 0.0
O38 O 0.37586 0.97769 0.01964 0.0
C39 C 0.35455 0.02247 0.00577 0.0
O40 O 0.3735 0.99549 0.03366 0.0
O41 O 0.36399 0.02259 0.018 0.0
C42 C 0.96479 0.64061 0.00755 0.0
O43 O 0.9573 0.62786 0.01509 0.0
Cd44 Cd 0.96871 0.6139 0.02405 0.0
O45 O 0.97861 0.64648 0.00529 0.0
Cd46 Cd -0.00092 0.64207 0.01158 0.0
C47 C 0.98513 0.61423 0.97725 0.0
O48 O 0.99045 0.62816 0.04416 0.0
O49 O 0.0089 0.6287 0.02864 0.0
O50 O 0.01122 0.66604 0.02716 0.0
C51 C 0.00033 0.62471 0.04416 0.0
O52 O 0.97538 0.60761 0.99119 0.0
C53 C 0.02289 0.67143 0.01642 0.0
O54 O 0.99515 0.62756 0.97964 0.0
O55 O 0.02361 0.66317 0.0027 0.0
C56 C 0.32885 0.36063 0.029 0.0
O57 O 0.33362 0.37395 0.02471 0.0
Cd58 Cd 0.35683 0.38824 0.00758 0.0
O59 O 0.33609 0.35455 0.02357 0.0
Cd60 Cd 0.35832 0.35869 0.00446 0.0
C61 C 0.37988 0.3835 0.04048 0.0
O62 O 0.35564 0.37362 0.9783 0.0
O63 O 0.3751 0.37206 0.97559 0.0
O64 O 0.34036 0.33347 0.99678 0.0
C65 C 0.36731 0.37694 0.96841 0.0
O66 O 0.37519 0.39154 0.03339 0.0
C67 C 0.34927 0.32884 0.99608 0.0
O68 O 0.3753 0.37075 0.0332 0.0
O69 O 0.36274 0.33817 -0.00111 0.0
C70 C 0.66343 0.02755 0.00361 0.0
O71 O 0.65493 0.03255 0.00669 0.0
Cd72 Cd 0.62951 0.01639 0.01584 0.0
O73 O 0.65868 0.01396 0.00555 0.0
Cd74 Cd 0.63643 0.99065 0.01477 0.0
C75 C 0.61803 0.99308 0.97375 0.0
O76 O 0.62739 -0.0002 0.04281 0.0
O77 O 0.6125 0.97803 0.03145 0.0
O78 O 0.65477 0.9879 0.03275 0.0
C79 C 0.61505 0.98809 0.0443 0.0
O80 O 0.61747 0.00293 0.98435 0.0
C81 C 0.6505 0.97492 0.0271 0.0
O82 O 0.62528 0.98727 0.98022 0.0
O83 O 0.63918 0.96872 0.01567 0.0
C84 C 0.63317 0.6588 0.34257 0.0
O85 O 0.62395 0.66186 0.35009 0.0
Cd86 Cd 0.63256 0.68574 0.36462 0.0
O87 O 0.64686 0.66794 0.34392 0.0
Cd88 Cd 0.66515 0.692 0.35836 0.0
C89 C 0.65363 0.70753 0.32355 0.0
O90 O 0.65143 0.69104 0.38958 0.0
O91 O 0.67047 0.71196 0.38225 0.0
O92 O 0.67471 0.67696 0.36983 0.0
C93 C 0.66001 0.70427 0.39465 0.0
O94 O 0.64208 0.70202 0.33475 0.0
C95 C 0.68801 0.68553 0.36497 0.0
O96 O 0.66415 0.7054 0.32784 0.0
O97 O 0.69112 0.6977 0.35687 0.0
C98 C 0.30613 0.00578 0.36772 0.0
O99 O 0.29226 -0.00069 0.36926 0.0
Cd100 Cd 0.27684 0.97505 0.35576 0.0
O101 O 0.31229 -0.00083 0.36002 0.0
Cd102 Cd 0.30448 0.97435 0.34639 0.0
C103 C 0.28399 0.95447 0.38772 0.0
O104 O 0.28625 0.97358 0.32184 0.0
O105 O 0.28783 0.95418 0.32391 0.0
O106 O 0.32829 0.98679 0.32819 0.0
C107 C 0.28262 0.96105 0.31474 0.0
O108 O 0.27422 0.95727 0.3819 0.0
C109 C 0.33144 0.97702 0.33224 0.0
O110 O 0.2963 0.96021 0.37843 0.0
O111 O 0.32212 0.96616 0.34279 0.0
C112 C 0.00206 0.30644 0.34998 0.0
O113 O 0.00857 0.29933 0.34686 0.0
Cd114 Cd 0.03401 0.31103 0.33661 0.0
O115 O 0.00899 0.3203 0.34835 0.0
Cd116 Cd 0.03414 0.34048 0.3407 0.0
C117 C 0.05062 0.33213 0.37905 0.0
O118 O 0.03903 0.32929 0.31059 0.0
O119 O 0.05717 0.34953 0.32196 0.0
O120 O 0.02336 0.35335 0.3239 0.0
C121 C 0.05222 0.33956 0.30834 0.0
O122 O 0.04855 0.32136 0.36784 0.0
C123 C 0.02983 0.36474 0.33507 0.0
O124 O 0.04562 0.34026 0.37354 0.0
O125 O 0.03833 0.36487 0.34898 0.0
C126 C 0.63443 0.96546 0.33376 0.0
O127 O 0.62853 0.95192 0.33763 0.0
Cd128 Cd 0.64354 0.9421 0.34905 0.0
O129 O 0.648 0.974 0.3373 0.0
Cd130 Cd 0.66939 0.97395 0.35217 0.0
C131 C 0.67043 0.95467 0.31138 0.0
O132 O 0.65769 0.95488 0.37912 0.0
O133 O 0.68019 0.96203 0.3709 0.0
O134 O 0.67207 0.99423 0.3725 0.0
C135 C 0.66925 0.9544 0.38262 0.0
O136 O 0.65936 0.94391 0.32 0.0
C137 C 0.68523 0.00326 0.36741 0.0
O138 O 0.67601 0.96749 0.31895 0.0
O139 O 0.69141 0.99869 0.35497 0.0
C140 C 0.00466 0.70576 0.35541 0.0
O141 O 0.014 0.71906 0.35166 0.0
Cd142 Cd 0.03877 0.7284 0.34054 0.0
O143 O 0.0081 0.69593 0.35326 0.0
Cd144 Cd 0.03079 0.69595 0.34199 0.0
C145 C 0.05204 0.7181 0.38084 0.0
O146 O 0.03749 0.71291 0.31246 0.0
O147 O 0.0535 0.70725 0.3215 0.0
O148 O 0.01558 0.6712 0.32731 0.0
C149 C 0.04953 0.71351 0.30862 0.0
O150 O 0.05303 0.7288 0.37063 0.0
C151 C 0.02329 0.66636 0.33513 0.0
O152 O 0.04377 0.70506 0.37457 0.0
O153 O 0.03391 0.67506 0.3465 0.0
C154 C 0.33596 0.37123 0.34533 0.0
O155 O 0.32845 0.37539 0.35559 0.0
Cd156 Cd 0.30384 0.36023 0.3675 0.0
O157 O 0.33072 0.35772 0.34118 0.0
Cd158 Cd 0.30782 0.334 0.34952 0.0
C159 C 0.28642 0.34292 0.32179 0.0
O160 O 0.30293 0.34001 0.38413 0.0
O161 O 0.28535 0.32054 0.37041 0.0
O162 O 0.3235 0.32457 0.35984 0.0
C163 C 0.29013 0.32903 0.38591 0.0
O164 O 0.28841 0.35148 0.33691 0.0
C165 C 0.31697 0.3128 0.34949 0.0
O166 O 0.29303 0.33567 0.32109 0.0
O167 O 0.30641 0.31106 0.33813 0.0
C168 C 0.29711 0.0016 0.66862 0.0
O169 O 0.29265 0.01047 0.67225 0.0
Cd170 Cd 0.30675 0.03458 0.68598 0.0
O171 O 0.31047 0.00534 0.67186 0.0
Cd172 Cd 0.33278 0.02807 0.68501 0.0
C173 C 0.33211 0.05068 0.64767 0.0
O174 O 0.31971 0.0313 0.71382 0.0
O175 O 0.34207 0.04863 0.71024 0.0
O176 O 0.3427 0.01322 0.69905 0.0
C177 C 0.33037 0.04293 0.72093 0.0
O178 O 0.32156 0.05055 0.65743 0.0
C179 C 0.35533 0.02096 0.69093 0.0
O180 O 0.33731 0.04286 0.65383 0.0
O181 O 0.35725 0.03165 0.67987 0.0
C182 C 0.96982 0.33254 0.69199 0.0
O183 O 0.9562 0.32409 0.68891 0.0
Cd184 Cd 0.94642 0.29938 0.67683 0.0
O185 O 0.97877 0.32805 0.68882 0.0
Cd186 Cd 0.97833 0.30552 0.6773 0.0
C187 C 0.95623 0.28485 0.71647 0.0
O188 O 0.96104 0.29912 0.64809 0.0
O189 O 0.96714 0.28332 0.65661 0.0
O190 O 0.00251 0.32351 0.66383 0.0
C191 C 0.96042 0.28709 0.64424 0.0
O192 O 0.94592 0.28492 0.70651 0.0
C193 C 0.00862 0.31629 0.66855 0.0
O194 O 0.96945 0.29236 0.71015 0.0
O195 O 0.00069 0.30404 0.67736 0.0
C196 C 0.65707 0.62504 0.67408 0.0
O197 O 0.66375 0.61974 0.66433 0.0
Cd198 Cd 0.6888 0.6339 0.65501 0.0
O199 O 0.66338 0.63872 0.67788 0.0
Cd200 Cd 0.68708 0.66166 0.66862 0.0
C201 C 0.70446 0.65123 0.70167 0.0
O202 O 0.68957 0.65302 0.63488 0.0
O203 O 0.70905 0.67222 0.64543 0.0
O204 O 0.67012 0.67 0.66073 0.0
C205 C 0.70247 0.66316 0.63094 0.0
O206 O 0.70186 0.6415 0.68805 0.0
C207 C 0.67813 0.68302 0.66702 0.0
O208 O 0.70014 0.66033 0.69913 0.0
O209 O 0.69046 0.68629 0.67469 0.0
C210 C 0.29785 0.29677 0.67777 0.0
O211 O 0.29264 0.28432 0.68624 0.0
Cd212 Cd 0.30717 0.27382 0.69591 0.0
O213 O 0.31161 0.30473 0.67453 0.0
Cd214 Cd 0.33462 0.30445 0.681 0.0
C215 C 0.32436 0.27549 0.64923 0.0
O216 O 0.32774 0.29197 0.71456 0.0
O217 O 0.34736 0.29449 0.70022 0.0
O218 O 0.34443 0.32925 0.69324 0.0
C219 C 0.33873 0.29025 0.71568 0.0
O220 O 0.31552 0.26816 0.66383 0.0
C221 C 0.35627 0.33487 0.68286 0.0
O222 O 0.3322 0.28939 0.65032 0.0
O223 O 0.358 0.32638 0.67075 0.0
C224 C 0.66902 0.04095 0.68782 0.0
O225 O 0.6782 0.05382 0.68185 0.0
Cd226 Cd 0.70167 0.06164 0.66587 0.0
O227 O 0.67198 0.03074 0.68632 0.0
Cd228 Cd 0.69346 0.02882 0.67506 0.0
C229 C 0.71777 0.05543 0.70706 0.0
O230 O 0.69978 0.04317 0.64295 0.0
O231 O 0.71575 0.03804 0.65428 0.0
O232 O 0.67793 0.00438 0.66057 0.0
C233 C 0.7119 0.04366 0.64019 0.0
O234 O 0.71824 0.06446 0.69373 0.0
C235 C 0.68325 0.99823 0.67138 0.0
O236 O 0.70857 0.04178 0.7056 0.0
O237 O 0.69298 0.0062 0.68451 0.0
C238 C 0.00245 0.70593 0.66984 0.0
O239 O 0.99521 0.71173 0.67629 0.0
Cd240 Cd 0.9718 0.70046 0.69272 0.0
O241 O 0.99721 0.69213 0.67119 0.0
Cd242 Cd 0.9741 0.67044 0.68536 0.0
C243 C 0.95018 0.67519 0.65556 0.0
O244 O 0.97402 0.68415 0.71471 0.0
O245 O 0.95536 0.6625 0.71425 0.0
O246 O 0.98829 0.65968 0.69788 0.0
C247 C 0.96224 0.67477 0.7233 0.0
O248 O 0.95328 0.68622 0.66689 0.0
C249 C 0.98055 0.64737 0.68914 0.0
O250 O 0.9569 0.66813 0.65764 0.0
O251 O 0.96997 0.64585 0.67809 0.0
H252 H 0.20725 0.33393 0.16582 0.0
N253 N 0.19922 0.30883 0.14401 0.0
H254 H 0.22024 0.3409 0.19877 0.0
H255 H 0.2048 0.29225 0.16857 0.0
H256 H 0.21734 0.29887 0.20205 0.0
H257 H 0.20061 0.29113 0.11606 0.0
H258 H 0.22084 0.29672 0.0921 0.0
H259 H 0.22289 0.33603 0.13618 0.0
H260 H 0.24334 0.34157 0.11326 0.0
H261 H 0.19904 0.33255 0.12719 0.0
H262 H 0.1714 0.28904 0.15106 0.0
H263 H 0.17743 0.33428 0.11951 0.0
H264 H 0.14973 0.29087 0.14436 0.0
H265 H 0.11632 0.34158 0.13896 0.0
H266 H 0.10994 0.34807 0.17198 0.0
H267 H 0.08668 0.3026 0.18996 0.0
H268 H 0.09299 0.29613 0.15644 0.0
H269 H 0.08295 0.29672 0.10735 0.0
H270 H 0.07087 0.30339 0.08107 0.0
H271 H 0.10904 0.34678 0.07809 0.0
H272 H 0.12129 0.33966 0.10353 0.0
H273 H 0.13599 0.33753 0.1321 0.0
H274 H 0.15845 0.33666 0.13524 0.0
H275 H 0.13473 0.29105 0.11773 0.0
N276 N 0.10837 0.31402 0.12556 0.0
H277 H 0.11213 0.2919 0.11575 0.0
C278 C 0.20502 0.31251 0.16475 0.0
C279 C 0.20924 0.32615 0.17374 0.0
C280 C 0.21666 0.3301 0.19266 0.0
C281 C 0.21994 0.32048 0.20307 0.0
C282 C 0.21525 0.30666 0.19432 0.0
C283 C 0.20792 0.30277 0.17534 0.0
C284 C 0.21024 0.31305 0.12803 0.0
C285 C 0.20978 0.30222 0.1151 0.0
C286 C 0.22143 0.30542 0.10162 0.0
C287 C 0.23386 0.31956 0.10095 0.0
C288 C 0.23393 0.33059 0.11317 0.0
C289 C 0.22222 0.3274 0.12648 0.0
C290 C 0.18682 0.31052 0.13951 0.0
C291 C 0.18834 0.32335 0.13081 0.0
C292 C 0.17592 0.32437 0.12655 0.0
C293 C 0.16175 0.31266 0.1311 0.0
C294 C 0.16038 0.29997 0.1401 0.0
C295 C 0.17276 0.29893 0.14416 0.0
C296 C 0.10511 0.3183 0.1452 0.0
C297 C 0.1099 0.33297 0.14993 0.0
C298 C 0.1063 0.3367 0.16894 0.0
C299 C 0.09783 0.32585 0.18363 0.0
C300 C 0.0931 0.31119 0.17889 0.0
C301 C 0.09674 0.30748 0.15986 0.0
C302 C 0.10288 0.31769 0.10758 0.0
C303 C 0.08881 0.30754 0.10059 0.0
C304 C 0.08188 0.31146 0.08576 0.0
C305 C 0.08882 0.32575 0.07777 0.0
C306 C 0.10334 0.33568 0.08384 0.0
C307 C 0.11035 0.33166 0.09854 0.0
C308 C 0.12227 0.31466 0.12398 0.0
C309 C 0.13561 0.32737 0.12876 0.0
C310 C 0.14853 0.32687 0.13044 0.0
C311 C 0.14842 0.31371 0.12712 0.0
C312 C 0.1352 0.30128 0.121 0.0
C313 C 0.12229 0.30177 0.11958 0.0
H314 H 0.70413 0.78567 0.16844 0.0
N315 N 0.69125 0.79756 0.14773 0.0
H316 H 0.69519 0.77055 0.19947 0.0
H317 H 0.66775 0.79308 0.1714 0.0
H318 H 0.65921 0.77884 0.20332 0.0
H319 H 0.66304 0.77825 0.13604 0.0
H320 H 0.65533 0.75941 0.10957 0.0
H321 H 0.70832 0.79319 0.12211 0.0
H322 H 0.70088 0.77356 0.09695 0.0
H323 H 0.71192 0.82343 0.16137 0.0
H324 H 0.67072 0.8025 0.12882 0.0
H325 H 0.71317 0.8469 0.15814 0.0
H326 H 0.67228 0.82591 0.12447 0.0
H327 H 0.72056 0.91811 0.1526 0.0
H328 H 0.71974 0.93108 0.18358 0.0
H329 H 0.67353 0.89946 0.1906 0.0
H330 H 0.67472 0.88631 0.16049 0.0
H331 H 0.67083 0.88993 0.12599 0.0
H332 H 0.66522 0.90345 0.10084 0.0
H333 H 0.70954 0.92344 0.07696 0.0
H334 H 0.71525 0.91056 0.10319 0.0
H335 H 0.71966 0.88897 0.13207 0.0
H336 H 0.71767 0.8651 0.13419 0.0
H337 H 0.67061 0.84473 0.14098 0.0
N338 N 0.69834 0.89498 0.13465 0.0
H339 H 0.67275 0.86863 0.13744 0.0
C340 C 0.6867 0.79056 0.16769 0.0
C341 C 0.69442 0.78434 0.17621 0.0
C342 C 0.6893 0.77576 0.19406 0.0
C343 C 0.67639 0.77335 0.20403 0.0
C344 C 0.669 0.78015 0.1959 0.0
C345 C 0.67398 0.7885 0.17776 0.0
C346 C 0.68632 0.78742 0.13061 0.0
C347 C 0.67134 0.77764 0.12696 0.0
C348 C 0.66696 0.76662 0.11207 0.0
C349 C 0.67742 0.76476 0.10101 0.0
C350 C 0.69241 0.77473 0.10463 0.0
C351 C 0.69675 0.78597 0.11911 0.0
C352 C 0.6914 0.81116 0.14519 0.0
C353 C 0.70322 0.82392 0.15333 0.0
C354 C 0.70396 0.83736 0.15128 0.0
C355 C 0.69291 0.83843 0.14077 0.0
C356 C 0.68094 0.82556 0.13281 0.0
C357 C 0.68011 0.81206 0.13514 0.0
C358 C 0.69776 0.90131 0.15417 0.0
C359 C 0.71036 0.91389 0.16113 0.0
C360 C 0.7098 0.92135 0.17869 0.0
C361 C 0.69652 0.91644 0.18953 0.0
C362 C 0.684 0.90352 0.18286 0.0
C363 C 0.68462 0.89598 0.16544 0.0
C364 C 0.69362 0.89956 0.11679 0.0
C365 C 0.67927 0.89705 0.11517 0.0
C366 C 0.67604 0.90473 0.10058 0.0
C367 C 0.68703 0.91486 0.08717 0.0
C368 C 0.70092 0.91609 0.08746 0.0
C369 C 0.70419 0.90861 0.10225 0.0
C370 C 0.69644 0.88059 0.13487 0.0
C371 C 0.70893 0.8793 0.13383 0.0
C372 C 0.70775 0.86564 0.13529 0.0
C373 C 0.69399 0.85291 0.13814 0.0
C374 C 0.68139 0.85423 0.13869 0.0
C375 C 0.68259 0.86794 0.13691 0.0
H376 H 0.11376 0.77195 0.1382 0.0
N377 N 0.11211 0.79611 0.12761 0.0
H378 H 0.10544 0.75823 0.17029 0.0
H379 H 0.0993 0.80106 0.15987 0.0
H380 H 0.09114 0.78738 0.19263 0.0
H381 H 0.08711 0.78888 0.10884 0.0
H382 H 0.07515 0.77091 0.08118 0.0
H383 H 0.12471 0.78346 0.1048 0.0
H384 H 0.11262 0.765 0.07776 0.0
H385 H 0.13587 0.79734 0.1475 0.0
H386 H 0.12324 0.82097 0.10636 0.0
H387 H 0.16042 0.81788 0.14882 0.0
H388 H 0.1485 0.84136 0.10598 0.0
H389 H 0.23598 0.88284 0.16132 0.0
H390 H 0.24537 0.8984 0.19201 0.0
H391 H 0.21381 0.91227 0.18285 0.0
H392 H 0.20511 0.8973 0.15169 0.0
H393 H 0.21831 0.90479 0.11704 0.0
H394 H 0.23404 0.91769 0.08704 0.0
H395 H 0.24609 0.88456 0.08216 0.0
H396 H 0.23064 0.872 0.11228 0.0
H397 H 0.20703 0.85235 0.13792 0.0
H398 H 0.18244 0.83144 0.13337 0.0
H399 H 0.16599 0.86092 0.12408 0.0
N400 N 0.2155 0.88041 0.13542 0.0
H401 H 0.19095 0.8816 0.12641 0.0
C402 C 0.10709 0.78759 0.1465 0.0
C403 C 0.10869 0.77537 0.14976 0.0
C404 C 0.10407 0.76759 0.16831 0.0
C405 C 0.09773 0.77178 0.18406 0.0
C406 C 0.09591 0.78384 0.18072 0.0
C407 C 0.10061 0.79169 0.1621 0.0
C408 C 0.10667 0.7874 0.10902 0.0
C409 C 0.09285 0.78395 0.10172 0.0
C410 C 0.086 0.77358 0.08607 0.0
C411 C 0.09278 0.76627 0.07752 0.0
C412 C 0.10708 0.77043 0.08391 0.0
C413 C 0.114 0.78095 0.09946 0.0
C414 C 0.12739 0.80759 0.12707 0.0
C415 C 0.13832 0.80684 0.13844 0.0
C416 C 0.15264 0.8187 0.13896 0.0
C417 C 0.15667 0.8315 0.12756 0.0
C418 C 0.14587 0.83195 0.11545 0.0
C419 C 0.13141 0.8202 0.11541 0.0
C420 C 0.21977 0.88875 0.15435 0.0
C421 C 0.23104 0.88916 0.16612 0.0
C422 C 0.23631 0.89801 0.18372 0.0
C423 C 0.23033 0.9066 0.19004 0.0
C424 C 0.21882 0.90596 0.17835 0.0
C425 C 0.21367 0.89722 0.1606 0.0
C426 C 0.22348 0.88752 0.11688 0.0
C427 C 0.22429 0.90031 0.1094 0.0
C428 C 0.23326 0.90765 0.09232 0.0
C429 C 0.24124 0.90209 0.08228 0.0
C430 C 0.23993 0.889 0.08942 0.0
C431 C 0.23118 0.88184 0.10662 0.0
C432 C 0.20072 0.86847 0.13318 0.0
C433 C 0.19805 0.85421 0.13487 0.0
C434 C 0.18391 0.84227 0.13244 0.0
C435 C 0.17196 0.84432 0.12876 0.0
C436 C 0.17479 0.85875 0.12675 0.0
C437 C 0.18907 0.87069 0.12857 0.0
H438 H 0.34626 0.22673 0.88007 0.0
N439 N 0.31909 0.20409 0.89077 0.0
H440 H 0.35257 0.24189 0.84909 0.0
H441 H 0.30145 0.20126 0.85959 0.0
H442 H 0.30776 0.21622 0.8281 0.0
H443 H 0.29871 0.20934 0.90524 0.0
H444 H 0.30164 0.22734 0.93127 0.0
H445 H 0.34297 0.21925 0.91606 0.0
H446 H 0.34594 0.23708 0.94256 0.0
H447 H 0.33641 0.19875 0.86353 0.0
H448 H 0.31342 0.18551 0.92239 0.0
H449 H 0.34372 0.18087 0.86736 0.0
H450 H 0.32115 0.16756 0.92629 0.0
H451 H 0.36655 0.12285 0.87545 0.0
H452 H 0.3604 0.10692 0.84514 0.0
H453 H 0.31615 0.09913 0.84707 0.0
H454 H 0.32224 0.11454 0.87771 0.0
H455 H 0.32397 0.10402 0.91218 0.0
H456 H 0.3227 0.08852 0.94087 0.0
H457 H 0.3687 0.11801 0.95316 0.0
H458 H 0.36972 0.13368 0.92474 0.0
H459 H 0.3657 0.15605 0.88702 0.0
H460 H 0.35951 0.17533 0.88703 0.0
H461 H 0.31639 0.14468 0.91105 0.0
N462 N 0.34875 0.12835 0.8978 0.0
H463 H 0.32283 0.12569 0.91155 0.0
C464 C 0.32332 0.21284 0.87213 0.0
C465 C 0.33777 0.22441 0.8689 0.0
C466 C 0.3414 0.23298 0.85106 0.0
C467 C 0.33067 0.23024 0.83614 0.0
C468 C 0.31624 0.21868 0.83942 0.0
C469 C 0.31262 0.21007 0.85726 0.0
C470 C 0.32055 0.21294 0.90868 0.0
C471 C 0.30892 0.21515 0.91368 0.0
C472 C 0.31064 0.22542 0.92862 0.0
C473 C 0.32407 0.23372 0.939 0.0
C474 C 0.33553 0.23103 0.93466 0.0
C475 C 0.33381 0.22076 0.91962 0.0
C476 C 0.32472 0.19419 0.89318 0.0
C477 C 0.33321 0.19243 0.87767 0.0
C478 C 0.33745 0.18204 0.8798 0.0
C479 C 0.33322 0.17291 0.89726 0.0
C480 C 0.32461 0.17443 0.91262 0.0
C481 C 0.32033 0.18483 0.9105 0.0
C482 C 0.34496 0.11999 0.87882 0.0
C483 C 0.35558 0.1178 0.86914 0.0
C484 C 0.35205 0.10875 0.85177 0.0
C485 C 0.33776 0.10169 0.84364 0.0
C486 C 0.3272 0.1042 0.85308 0.0
C487 C 0.33073 0.11317 0.87056 0.0
C488 C 0.34702 0.12005 0.91631 0.0
C489 C 0.33369 0.10736 0.92135 0.0
C490 C 0.333 0.09843 0.9377 0.0
C491 C 0.34562 0.10194 0.94923 0.0
C492 C 0.35872 0.11504 0.94481 0.0
C493 C 0.35937 0.12399 0.92851 0.0
C494 C 0.34479 0.13946 0.89919 0.0
C495 C 0.35497 0.15358 0.89246 0.0
C496 C 0.35137 0.16453 0.89237 0.0
C497 C 0.33741 0.16153 0.89891 0.0
C498 C 0.32729 0.14742 0.90612 0.0
C499 C 0.33095 0.13648 0.90629 0.0
H500 H 0.76159 0.12243 0.86801 0.0
N501 N 0.78421 0.12662 0.89079 0.0
H502 H 0.75314 0.1091 0.83512 0.0
H503 H 0.79711 0.11359 0.86927 0.0
H504 H 0.7889 0.10056 0.8364 0.0
H505 H 0.78103 0.10036 0.90201 0.0
H506 H 0.76395 0.08368 0.92794 0.0
H507 H 0.76967 0.13263 0.919 0.0
H508 H 0.75306 0.11632 0.94587 0.0
H509 H 0.79621 0.15506 0.88483 0.0
H510 H 0.80651 0.12241 0.90333 0.0
H511 H 0.82204 0.17391 0.88742 0.0
H512 H 0.83254 0.14096 0.90466 0.0
H513 H 0.89073 0.22563 0.87568 0.0
H514 H 0.90433 0.23772 0.84446 0.0
H515 H 0.92126 0.20834 0.84153 0.0
H516 H 0.90759 0.19625 0.87335 0.0
H517 H 0.91439 0.21332 0.92077 0.0
H518 H 0.9233 0.23343 0.94578 0.0
H519 H 0.88559 0.23768 0.93303 0.0
H520 H 0.87663 0.21742 0.90867 0.0
H521 H 0.8695 0.20127 0.86995 0.0
H522 H 0.84401 0.18242 0.86969 0.0
H523 H 0.85131 0.16142 0.92179 0.0
N524 N 0.89103 0.20325 0.89642 0.0
H525 H 0.87736 0.1801 0.92114 0.0
C526 C 0.78009 0.11928 0.87099 0.0
C527 C 0.76763 0.11773 0.86111 0.0
C528 C 0.76276 0.11003 0.84247 0.0
C529 C 0.77039 0.10381 0.83326 0.0
C530 C 0.7829 0.10537 0.8431 0.0
C531 C 0.78764 0.1129 0.8619 0.0
C532 C 0.77642 0.11767 0.9084 0.0
C533 C 0.77512 0.104 0.91171 0.0
C534 C 0.76537 0.09448 0.92669 0.0
C535 C 0.75691 0.09854 0.93886 0.0
C536 C 0.75909 0.11267 0.93645 0.0
C537 C 0.76869 0.12208 0.92129 0.0
C538 C 0.79947 0.13738 0.89362 0.0
C539 C 0.80412 0.15199 0.88936 0.0
C540 C 0.81893 0.16271 0.89064 0.0
C541 C 0.82952 0.15899 0.89589 0.0
C542 C 0.82475 0.14431 0.9007 0.0
C543 C 0.80985 0.13362 0.89976 0.0
C544 C 0.89808 0.20992 0.87693 0.0
C545 C 0.89725 0.22166 0.86838 0.0
C546 C 0.90499 0.22854 0.85036 0.0
C547 C 0.91383 0.22396 0.84047 0.0
C548 C 0.91459 0.21217 0.84888 0.0
C549 C 0.90673 0.2052 0.86692 0.0
C550 C 0.89486 0.21381 0.9129 0.0
C551 C 0.90794 0.21843 0.92375 0.0
C552 C 0.91307 0.23001 0.93784 0.0
C553 C 0.90522 0.23725 0.94132 0.0
C554 C 0.89183 0.23226 0.93096 0.0
C555 C 0.88669 0.22065 0.91694 0.0
C556 C 0.87563 0.19212 0.89551 0.0
C557 C 0.86586 0.19264 0.88125 0.0
C558 C 0.85105 0.18182 0.88128 0.0
C559 C 0.84545 0.17036 0.89582 0.0
C560 C 0.85519 0.16991 0.91014 0.0
C561 C 0.87009 0.18063 0.90988 0.0
H562 H 0.77693 0.69653 0.8642 0.0
N563 N 0.79072 0.68427 0.88168 0.0
H564 H 0.76138 0.68836 0.83348 0.0
H565 H 0.78672 0.66214 0.85509 0.0
H566 H 0.77221 0.65461 0.8238 0.0
H567 H 0.76458 0.65901 0.88904 0.0
H568 H 0.74754 0.65511 0.91716 0.0
H569 H 0.79647 0.70017 0.91597 0.0
H570 H 0.7801 0.69577 0.94531 0.0
H571 H 0.81757 0.70702 0.87801 0.0
H572 H 0.79385 0.66085 0.89046 0.0
H573 H 0.84073 0.70763 0.88191 0.0
H574 H 0.81699 0.66093 0.89268 0.0
H575 H 0.91466 0.70854 0.88378 0.0
H576 H 0.92816 0.70842 0.85307 0.0
H577 H 0.89005 0.66837 0.83257 0.0
H578 H 0.8769 0.6683 0.86411 0.0
H579 H 0.88395 0.66194 0.90032 0.0
H580 H 0.89638 0.65569 0.92661 0.0
H581 H 0.91109 0.69733 0.95654 0.0
H582 H 0.89931 0.70374 0.9294 0.0
H583 H 0.88015 0.70421 0.87004 0.0
H584 H 0.85635 0.70194 0.86579 0.0
H585 H 0.83803 0.6673 0.91143 0.0
N586 N 0.88746 0.68899 0.8947 0.0
H587 H 0.86169 0.66878 0.91414 0.0
C588 C 0.7831 0.68009 0.86206 0.0
C589 C 0.77601 0.68744 0.85529 0.0
C590 C 0.76717 0.68278 0.83763 0.0
C591 C 0.76538 0.67071 0.82609 0.0
C592 C 0.77297 0.6637 0.83249 0.0
C593 C 0.78154 0.66817 0.8504 0.0
C594 C 0.78164 0.68018 0.90006 0.0
C595 C 0.76806 0.66706 0.90129 0.0
C596 C 0.75835 0.66476 0.91763 0.0
C597 C 0.76221 0.67531 0.93339 0.0
C598 C 0.77644 0.68767 0.9331 0.0
C599 C 0.78593 0.69015 0.91647 0.0
C600 C 0.80409 0.6839 0.88349 0.0
C601 C 0.81744 0.69695 0.88119 0.0
C602 C 0.83067 0.69719 0.88324 0.0
C603 C 0.83088 0.68426 0.8872 0.0
C604 C 0.81737 0.67114 0.88975 0.0
C605 C 0.8041 0.67101 0.88821 0.0
C606 C 0.8948 0.6886 0.87601 0.0
C607 C 0.90926 0.69978 0.8726 0.0
C608 C 0.91688 0.69971 0.85495 0.0
C609 C 0.91013 0.6885 0.84011 0.0
C610 C 0.89562 0.67713 0.8437 0.0
C611 C 0.88804 0.67713 0.86159 0.0
C612 C 0.89102 0.68346 0.91275 0.0
C613 C 0.88959 0.66957 0.91281 0.0
C614 C 0.89666 0.66599 0.92796 0.0
C615 C 0.90507 0.67616 0.94345 0.0
C616 C 0.90509 0.68941 0.9445 0.0
C617 C 0.89822 0.69304 0.92919 0.0
C618 C 0.87286 0.68672 0.89233 0.0
C619 C 0.87095 0.69597 0.8789 0.0
C620 C 0.8573 0.69478 0.87674 0.0
C621 C 0.84517 0.68462 0.88856 0.0
C622 C 0.84701 0.67518 0.90189 0.0
C623 C 0.86067 0.67611 0.90362 0.0
H624 H 0.7735 0.65279 0.47523 0.0
N625 N 0.79774 0.67935 0.46699 0.0
H626 H 0.75567 0.64732 0.50291 0.0
H627 H 0.80011 0.69658 0.49859 0.0
H628 H 0.78195 0.69152 0.52584 0.0
H629 H 0.79321 0.70059 0.45509 0.0
H630 H 0.77537 0.69891 0.43 0.0
H631 H 0.78405 0.65753 0.43815 0.0
H632 H 0.76688 0.65605 0.41182 0.0
H633 H 0.79758 0.65651 0.48863 0.0
H634 H 0.82045 0.68897 0.44098 0.0
H635 H 0.81565 0.6492 0.48634 0.0
H636 H 0.8385 0.68119 0.43825 0.0
H637 H 0.87993 0.63208 0.48905 0.0
H638 H 0.88863 0.63339 0.52468 0.0
H639 H 0.88818 0.67341 0.53426 0.0
H640 H 0.87956 0.67206 0.49915 0.0
H641 H 0.89928 0.67849 0.4719 0.0
H642 H 0.9198 0.68899 0.44767 0.0
H643 H 0.89928 0.6491 0.41195 0.0
H644 H 0.87836 0.63859 0.43627 0.0
H645 H 0.84596 0.63232 0.47004 0.0
H646 H 0.82608 0.63762 0.46646 0.0
H647 H 0.85816 0.68342 0.45872 0.0
N648 N 0.87472 0.65115 0.46986 0.0
H649 H 0.87768 0.67806 0.46168 0.0
C650 C 0.78825 0.6751 0.48499 0.0
C651 C 0.77558 0.66118 0.48652 0.0
C652 C 0.76531 0.65814 0.50225 0.0
C653 C 0.76722 0.66904 0.51649 0.0
C654 C 0.78016 0.68279 0.51535 0.0
C655 C 0.79056 0.68574 0.49978 0.0
C656 C 0.78996 0.67924 0.44858 0.0
C657 C 0.78775 0.691 0.4453 0.0
C658 C 0.77753 0.69 0.43081 0.0
C659 C 0.76942 0.67724 0.41893 0.0
C660 C 0.77258 0.66591 0.42104 0.0
C661 C 0.78259 0.6668 0.4359 0.0
C662 C 0.80739 0.6734 0.46474 0.0
C663 C 0.80619 0.66194 0.47724 0.0
C664 C 0.81664 0.65762 0.47591 0.0
C665 C 0.82859 0.66459 0.46214 0.0
C666 C 0.82956 0.6757 0.44925 0.0
C667 C 0.81916 0.68008 0.45066 0.0
C668 C 0.87885 0.65179 0.49136 0.0
C669 C 0.88155 0.64102 0.49899 0.0
C670 C 0.88661 0.64184 0.51924 0.0
C671 C 0.88899 0.65345 0.53232 0.0
C672 C 0.88618 0.66417 0.52473 0.0
C673 C 0.88123 0.6634 0.50451 0.0
C674 C 0.88709 0.65774 0.45576 0.0
C675 C 0.89902 0.67197 0.45882 0.0
C676 C 0.91078 0.678 0.44493 0.0
C677 C 0.91104 0.66989 0.42788 0.0
C678 C 0.89932 0.65557 0.425 0.0
C679 C 0.88738 0.6496 0.43877 0.0
C680 C 0.86337 0.65466 0.4661 0.0
C681 C 0.84865 0.64346 0.46726 0.0
C682 C 0.83732 0.64654 0.46536 0.0
C683 C 0.84049 0.66097 0.46233 0.0
C684 C 0.85525 0.67215 0.46067 0.0
C685 C 0.86654 0.66905 0.46248 0.0
H686 H 0.38647 0.13973 0.49301 0.0
N687 N 0.36537 0.13968 0.47092 0.0
H688 H 0.38377 0.12577 0.52444 0.0
H689 H 0.34018 0.12433 0.49384 0.0
H690 H 0.33715 0.10967 0.52468 0.0
H691 H 0.3373 0.12165 0.4571 0.0
H692 H 0.32931 0.10106 0.43332 0.0
H693 H 0.38215 0.13246 0.44938 0.0
H694 H 0.37432 0.11149 0.42657 0.0
H695 H 0.36927 0.15941 0.50062 0.0
H696 H 0.35467 0.14743 0.43724 0.0
H697 H 0.36634 0.18054 0.49749 0.0
H698 H 0.3516 0.16848 0.43451 0.0
H699 H 0.37186 0.25226 0.48542 0.0
H700 H 0.36478 0.25758 0.5191 0.0
H701 H 0.32285 0.21752 0.51474 0.0
H702 H 0.33037 0.21204 0.48175 0.0
H703 H 0.32835 0.21919 0.44798 0.0
H704 H 0.32126 0.22988 0.42032 0.0
H705 H 0.36692 0.26033 0.40702 0.0
H706 H 0.37398 0.24946 0.43484 0.0
H707 H 0.37857 0.22614 0.47412 0.0
H708 H 0.3797 0.20374 0.47647 0.0
H709 H 0.33642 0.17926 0.44994 0.0
N710 N 0.35641 0.22897 0.46155 0.0
H711 H 0.33528 0.20163 0.44785 0.0
C712 C 0.36356 0.13294 0.49099 0.0
C713 C 0.37574 0.13341 0.50014 0.0
C714 C 0.37412 0.12529 0.51795 0.0
C715 C 0.36018 0.11633 0.52689 0.0
C716 C 0.34805 0.11646 0.51828 0.0
C717 C 0.34973 0.12473 0.50053 0.0
C718 C 0.3604 0.12872 0.45478 0.0
C719 C 0.34545 0.11965 0.45012 0.0
C720 C 0.34089 0.10776 0.43666 0.0
C721 C 0.35112 0.10446 0.428 0.0
C722 C 0.36609 0.11377 0.43247 0.0
C723 C 0.37064 0.12577 0.44559 0.0
C724 C 0.36146 0.15098 0.46966 0.0
C725 C 0.36494 0.16089 0.48626 0.0
C726 C 0.36347 0.17317 0.4844 0.0
C727 C 0.35864 0.17611 0.4658 0.0
C728 C 0.35506 0.16633 0.44918 0.0
C729 C 0.35671 0.1541 0.45091 0.0
C730 C 0.35168 0.23183 0.4811 0.0
C731 C 0.36116 0.24467 0.49184 0.0
C732 C 0.35703 0.24773 0.51098 0.0
C733 C 0.34323 0.23799 0.51971 0.0
C734 C 0.33366 0.22517 0.50871 0.0
C735 C 0.33787 0.22207 0.48967 0.0
C736 C 0.35178 0.23346 0.44343 0.0
C737 C 0.33688 0.22787 0.43883 0.0
C738 C 0.33282 0.23402 0.42294 0.0
C739 C 0.34353 0.24598 0.41152 0.0
C740 C 0.35841 0.25119 0.41565 0.0
C741 C 0.36246 0.24494 0.43141 0.0
C742 C 0.35697 0.21569 0.46066 0.0
C743 C 0.36939 0.21596 0.46862 0.0
C744 C 0.36996 0.20315 0.47011 0.0
C745 C 0.35809 0.18973 0.46352 0.0
C746 C 0.34575 0.18947 0.45505 0.0
C747 C 0.34512 0.20231 0.45381 0.0
H748 H 0.78674 0.11206 0.48021 0.0
N749 N 0.78017 0.13266 0.46772 0.0
H750 H 0.7784 0.09764 0.51177 0.0
H751 H 0.76592 0.1361 0.4994 0.0
H752 H 0.75786 0.12194 0.5317 0.0
H753 H 0.75637 0.13079 0.45139 0.0
H754 H 0.73892 0.11175 0.42826 0.0
H755 H 0.78565 0.11404 0.44519 0.0
H756 H 0.76763 0.09393 0.42387 0.0
H757 H 0.80659 0.1374 0.48318 0.0
H758 H 0.7871 0.15539 0.44329 0.0
H759 H 0.82998 0.15976 0.48047 0.0
H760 H 0.81092 0.17757 0.43921 0.0
H761 H 0.89646 0.21994 0.47698 0.0
H762 H 0.9104 0.22674 0.50917 0.0
H763 H 0.88523 0.24575 0.5318 0.0
H764 H 0.87158 0.23918 0.49918 0.0
H765 H 0.88509 0.25359 0.45356 0.0
H766 H 0.90366 0.26733 0.42717 0.0
H767 H 0.90592 0.22876 0.41257 0.0
H768 H 0.8878 0.21535 0.43952 0.0
H769 H 0.87328 0.19964 0.46582 0.0
H770 H 0.85081 0.17609 0.4621 0.0
H771 H 0.82594 0.19812 0.45868 0.0
N772 N 0.87555 0.22656 0.46617 0.0
H773 H 0.84865 0.22161 0.46092 0.0
C774 C 0.77693 0.1252 0.4874 0.0
C775 C 0.78049 0.11436 0.49131 0.0
C776 C 0.77582 0.10619 0.50955 0.0
C777 C 0.76745 0.10862 0.52429 0.0
C778 C 0.76415 0.11968 0.52056 0.0
C779 C 0.76885 0.12787 0.50226 0.0
C780 C 0.772 0.12349 0.45055 0.0
C781 C 0.75906 0.12303 0.44483 0.0
C782 C 0.74901 0.11198 0.43186 0.0
C783 C 0.7515 0.10084 0.42488 0.0
C784 C 0.76518 0.10217 0.42905 0.0
C785 C 0.77546 0.11356 0.44154 0.0
C786 C 0.79482 0.14467 0.46364 0.0
C787 C 0.8073 0.14596 0.47341 0.0
C788 C 0.82088 0.15886 0.47168 0.0
C789 C 0.82242 0.17068 0.45985 0.0
C790 C 0.81014 0.16893 0.44897 0.0
C791 C 0.79651 0.15615 0.45104 0.0
C792 C 0.88297 0.2291 0.48572 0.0
C793 C 0.89382 0.22541 0.48894 0.0
C794 C 0.90176 0.22929 0.50742 0.0
C795 C 0.899 0.23687 0.52305 0.0
C796 C 0.88782 0.24014 0.51996 0.0
C797 C 0.87992 0.23629 0.50146 0.0
C798 C 0.88496 0.23346 0.44851 0.0
C799 C 0.88943 0.24807 0.44438 0.0
C800 C 0.90001 0.25587 0.42921 0.0
C801 C 0.90633 0.24917 0.41769 0.0
C802 C 0.90144 0.23433 0.42133 0.0
C803 C 0.89092 0.22656 0.43667 0.0
C804 C 0.86264 0.21243 0.46333 0.0
C805 C 0.86305 0.19942 0.46376 0.0
C806 C 0.85009 0.18589 0.46191 0.0
C807 C 0.83643 0.18507 0.46005 0.0
C808 C 0.83618 0.19819 0.45955 0.0
C809 C 0.84915 0.21168 0.46103 0.0
H810 H 0.00909 0.56511 0.21011 0.0
N811 N 0.98321 0.54089 0.22119 0.0
H812 H 0.01432 0.57894 0.1779 0.0
H813 H 0.96517 0.53514 0.18916 0.0
H814 H 0.97035 0.54908 0.1567 0.0
H815 H 0.97016 0.55577 0.23169 0.0
H816 H 0.97825 0.57533 0.25665 0.0
H817 H 0.0047 0.54814 0.25086 0.0
H818 H 0.01152 0.56613 0.27791 0.0
H819 H 0.00563 0.53998 0.19957 0.0
H820 H 0.9715 0.51728 0.24544 0.0
H821 H 0.01241 0.52174 0.20211 0.0
H822 H 0.97921 0.49929 0.24932 0.0
H823 H 0.0344 0.46436 0.20321 0.0
H824 H 0.0295 0.44729 0.17455 0.0
H825 H 0.98322 0.4321 0.17981 0.0
H826 H 0.98814 0.4488 0.20849 0.0
H827 H 0.99151 0.44204 0.24362 0.0
H828 H 0.99267 0.42717 0.2715 0.0
H829 H 0.03871 0.45865 0.27949 0.0
H830 H 0.0374 0.47351 0.25161 0.0
H831 H 0.03161 0.49492 0.22112 0.0
H832 H 0.02434 0.5133 0.22171 0.0
H833 H 0.97961 0.47953 0.235 0.0
N834 N 0.01491 0.46646 0.2268 0.0
H835 H 0.9874 0.4616 0.23637 0.0
C836 C 0.98671 0.54899 0.20194 0.0
C837 C 0.00058 0.5615 0.19852 0.0
C838 C 0.00358 0.56935 0.18009 0.0
C839 C 0.99275 0.56503 0.16481 0.0
C840 C 0.97886 0.55265 0.16829 0.0
C841 C 0.97591 0.54466 0.18669 0.0
C842 C 0.98676 0.55045 0.23905 0.0
C843 C 0.97917 0.55797 0.24185 0.0
C844 C 0.9838 0.56916 0.25646 0.0
C845 C 0.99582 0.57276 0.2695 0.0
C846 C 0.00266 0.56433 0.26778 0.0
C847 C -0.00151 0.55364 0.25242 0.0
C848 C 0.98779 0.53011 0.22227 0.0
C849 C -0.00044 0.5312 0.21042 0.0
C850 C 0.00367 0.52069 0.2121 0.0
C851 C 0.99654 0.509 0.22611 0.0
C852 C 0.98487 0.50796 0.2381 0.0
C853 C 0.98049 0.51831 0.23602 0.0
C854 C 0.01173 0.45795 0.20805 0.0
C855 C 0.02325 0.45753 0.19786 0.0
C856 C 0.02042 0.44779 0.18149 0.0
C857 C 0.00594 0.43824 0.17505 0.0
C858 C 0.99447 0.43915 0.18465 0.0
C859 C 0.99731 0.44886 0.20102 0.0
C860 C 0.01445 0.45889 0.24549 0.0
C861 C 0.00176 0.44595 0.25169 0.0
C862 C 0.00245 0.43739 0.26755 0.0
C863 C 0.01581 0.44167 0.27756 0.0
C864 C 0.02823 0.45511 0.27223 0.0
C865 C 0.02753 0.4636 0.2563 0.0
C866 C 0.01005 0.47688 0.22811 0.0
C867 C 0.02027 0.49157 0.22431 0.0
C868 C 0.01601 0.50202 0.22443 0.0
C869 C 0.00125 0.49795 0.22786 0.0
C870 C 0.99107 0.48319 0.23233 0.0
C871 C 0.99547 0.4728 0.23275 0.0
H872 H 0.58698 0.53768 0.20051 0.0
N873 N 0.56283 0.53165 0.2216 0.0
H874 H 0.59443 0.54858 0.16579 0.0
H875 H 0.54686 0.53866 0.1953 0.0
H876 H 0.55414 0.54933 0.16109 0.0
H877 H 0.56101 0.55649 0.2248 0.0
H878 H 0.57431 0.57651 0.24907 0.0
H879 H 0.57918 0.53255 0.2533 0.0
H880 H 0.59242 0.55256 0.27806 0.0
H881 H 0.55302 0.50313 0.22051 0.0
H882 H 0.53878 0.5341 0.23104 0.0
H883 H 0.52768 0.48302 0.22395 0.0
H884 H 0.51357 0.51442 0.23296 0.0
H885 H 0.4518 0.42781 0.21026 0.0
H886 H 0.4416 0.41428 0.17822 0.0
H887 H 0.44282 0.45219 0.15153 0.0
H888 H 0.45215 0.46526 0.1843 0.0
H889 H 0.43615 0.46046 0.23129 0.0
H890 H 0.41813 0.44843 0.25919 0.0
H891 H 0.43731 0.42204 0.27337 0.0
H892 H 0.45573 0.4346 0.24577 0.0
H893 H 0.48001 0.45324 0.20272 0.0
H894 H 0.50583 0.47131 0.20607 0.0
H895 H 0.49507 0.49512 0.25045 0.0
N896 N 0.45698 0.45519 0.21923 0.0
H897 H 0.46913 0.47765 0.24555 0.0
C898 C 0.56628 0.53706 0.20054 0.0
C899 C 0.57971 0.54004 0.19182 0.0
C900 C 0.58398 0.54635 0.17211 0.0
C901 C 0.57481 0.54969 0.16068 0.0
C902 C 0.56132 0.54662 0.16935 0.0
C903 C 0.55713 0.54046 0.18906 0.0
C904 C 0.56915 0.54297 0.23718 0.0
C905 C 0.56764 0.55538 0.23653 0.0
C906 C 0.57523 0.56685 0.25053 0.0
C907 C 0.58451 0.56618 0.26544 0.0
C908 C 0.58553 0.55351 0.26657 0.0
C909 C 0.57792 0.54203 0.25256 0.0
C910 C 0.54788 0.52013 0.22533 0.0
C911 C 0.54442 0.50558 0.22359 0.0
C912 C 0.52988 0.4941 0.22536 0.0
C913 C 0.51839 0.49697 0.22857 0.0
C914 C 0.522 0.51162 0.23088 0.0
C915 C 0.53654 0.52302 0.22955 0.0
C916 C 0.45242 0.44746 0.19977 0.0
C917 C 0.44979 0.43316 0.19757 0.0
C918 C 0.44412 0.42549 0.17906 0.0
C919 C 0.4412 0.43204 0.16225 0.0
C920 C 0.44455 0.44662 0.16427 0.0
C921 C 0.45001 0.45419 0.18289 0.0
C922 C 0.44711 0.44832 0.23643 0.0
C923 C 0.43653 0.45219 0.24058 0.0
C924 C 0.42631 0.44534 0.25647 0.0
C925 C 0.42635 0.43431 0.26835 0.0
C926 C 0.43702 0.43045 0.2643 0.0
C927 C 0.44748 0.43757 0.24858 0.0
C928 C 0.47245 0.46412 0.22369 0.0
C929 C 0.48313 0.46227 0.21327 0.0
C930 C 0.49805 0.47264 0.21538 0.0
C931 C 0.50269 0.48494 0.2283 0.0
C932 C 0.49201 0.48613 0.23983 0.0
C933 C 0.47711 0.47599 0.2373 0.0
H934 H 0.52276 0.96143 0.18908 0.0
N935 N 0.533 0.98169 0.21843 0.0
H936 H 0.53375 0.96243 0.15531 0.0
H937 H 0.55717 0.00545 0.20194 0.0
H938 H 0.56781 0.007 0.16766 0.0
H939 H 0.55168 0.00546 0.24179 0.0
H940 H 0.56967 0.00664 0.26657 0.0
H941 H 0.53619 0.95989 0.23123 0.0
H942 H 0.55457 0.96103 0.25485 0.0
H943 H 0.50627 0.96666 0.23446 0.0
H944 H 0.53783 0.00926 0.21106 0.0
H945 H 0.48809 0.97426 0.23782 0.0
H946 H 0.51958 0.01674 0.21322 0.0
H947 H 0.43288 0.98554 0.20952 0.0
H948 H 0.41979 0.97891 0.17666 0.0
H949 H 0.4508 0.02138 0.15184 0.0
H950 H 0.46417 0.02792 0.18492 0.0
H951 H 0.44214 0.02463 0.22649 0.0
H952 H 0.42193 0.01719 0.25068 0.0
H953 H 0.43108 0.98523 0.2769 0.0
H954 H 0.45029 0.99178 0.25153 0.0
H955 H 0.45445 0.98451 0.21269 0.0
H956 H 0.47347 0.97838 0.21477 0.0
H957 H 0.50445 0.02256 0.23396 0.0
N958 N 0.45747 0.01157 0.2191 0.0
H959 H 0.48524 0.02887 0.23075 0.0
C960 C 0.539 0.98336 0.19785 0.0
C961 C 0.5325 0.97144 0.18431 0.0
C962 C 0.53878 0.9721 0.16496 0.0
C963 C 0.55168 0.98484 0.15858 0.0
C964 C 0.558 0.99695 0.17207 0.0
C965 C 0.5518 0.99617 0.1916 0.0
C966 C 0.54251 0.9825 0.23487 0.0
C967 C 0.55204 0.99566 0.24503 0.0
C968 C 0.56245 0.99633 0.25901 0.0
C969 C 0.5637 0.98394 0.26276 0.0
C970 C 0.55383 0.97074 0.25285 0.0
C971 C 0.54333 0.97005 0.2392 0.0
C972 C 0.52328 0.98723 0.2222 0.0
C973 C 0.50927 0.97768 0.23013 0.0
C974 C 0.49888 0.98202 0.23183 0.0
C975 C 0.50223 0.99603 0.22537 0.0
C976 C 0.51658 0.00588 0.2184 0.0
C977 C 0.52704 0.00156 0.21695 0.0
C978 C 0.44971 0.00721 0.19958 0.0
C979 C 0.43705 0.99337 0.19696 0.0
C980 C 0.42953 0.9896 0.17819 0.0
C981 C 0.43433 -0.00038 0.16172 0.0
C982 C 0.44686 0.01349 0.16436 0.0
C983 C 0.45453 0.01719 0.18311 0.0
C984 C 0.4477 0.00871 0.23664 0.0
C985 C 0.43988 0.01612 0.23763 0.0
C986 C 0.42832 0.01188 0.25168 0.0
C987 C 0.42455 0.00035 0.2657 0.0
C988 C 0.43322 0.99376 0.26589 0.0
C989 C 0.44447 0.99769 0.25137 0.0
C990 C 0.46842 0.00733 0.22124 0.0
C991 C 0.4653 0.993 0.21713 0.0
C992 C 0.47623 0.98941 0.21868 0.0
C993 C 0.49055 -6e-05 0.22462 0.0
C994 C 0.4936 0.0142 0.22909 0.0
C995 C 0.48263 0.01782 0.22739 0.0
H996 H 0.41652 0.96724 0.81011 0.0
N997 N 0.44288 0.98008 0.79263 0.0
H998 H 0.40885 0.97483 0.841 0.0
H999 H 0.46095 0.00239 0.81874 0.0
H1000 H 0.45371 0.00945 0.85073 0.0
H1001 H 0.45249 0.00851 0.78248 0.0
H1002 H 0.44114 0.01687 0.75734 0.0
H1003 H 0.42292 0.9639 0.76447 0.0
H1004 H 0.41129 0.97217 0.73946 0.0
H1005 H 0.44774 0.9603 0.80966 0.0
H1006 H 0.46926 0.00028 0.77426 0.0
H1007 H 0.47073 0.96003 0.81073 0.0
H1008 H 0.49208 -0.00016 0.77495 0.0
H1009 H 0.53433 0.95224 0.81236 0.0
H1010 H 0.54746 0.9519 0.84326 0.0
H1011 H 0.56395 0.99802 0.85215 0.0
H1012 H 0.55023 0.99802 0.8218 0.0
H1013 H 0.54737 0.00425 0.78438 0.0
H1014 H 0.56901 0.01856 0.76298 0.0
H1015 H 0.57299 0.98026 0.75426 0.0
H1016 H 0.55042 0.96584 0.7737 0.0
H1017 H 0.51812 0.97445 0.82808 0.0
H1018 H 0.49629 0.97635 0.82686 0.0
H1019 H 0.50103 0.98238 0.76061 0.0
N1020 N 0.53526 0.97531 0.79483 0.0
H1021 H 0.52284 0.98016 0.76146 0.0
C1022 C 0.43927 0.98407 0.81226 0.0
C1023 C 0.42468 0.97638 0.81906 0.0
C1024 C 0.42036 0.98072 0.83688 0.0
C1025 C 0.43065 0.99274 0.84865 0.0
C1026 C 0.4454 0.00029 0.84199 0.0
C1027 C 0.44964 0.99613 0.82382 0.0
C1028 C 0.43869 0.98554 0.77509 0.0
C1029 C 0.4439 0.00055 0.77259 0.0
C1030 C 0.43734 0.00531 0.75829 0.0
C1031 C 0.42528 0.99515 0.74653 0.0
C1032 C 0.42051 0.98022 0.74841 0.0
C1033 C 0.42722 0.9755 0.76249 0.0
C1034 C 0.45659 0.98017 0.79181 0.0
C1035 C 0.45737 0.96895 0.802 0.0
C1036 C 0.47051 0.96886 0.80271 0.0
C1037 C 0.48318 0.97994 0.79296 0.0
C1038 C 0.48244 0.99113 0.7825 0.0
C1039 C 0.46932 0.99136 0.78211 0.0
C1040 C 0.54135 0.9751 0.81475 0.0
C1041 C 0.54053 0.96216 0.8213 0.0
C1042 C 0.5482 0.96206 0.8388 0.0
C1043 C 0.55698 0.97499 0.85005 0.0
C1044 C 0.55724 0.98784 0.84399 0.0
C1045 C 0.54947 0.9879 0.82655 0.0
C1046 C 0.54706 0.98383 0.78032 0.0
C1047 C 0.55264 0.99885 0.77725 0.0
C1048 C 0.56528 0.00711 0.76527 0.0
C1049 C 0.5731 0.00076 0.75689 0.0
C1050 C 0.5673 0.98566 0.75985 0.0
C1051 C 0.55437 0.97732 0.77114 0.0
C1052 C 0.52299 0.97796 0.79493 0.0
C1053 C 0.51491 0.97657 0.81321 0.0
C1054 C 0.5022 0.97749 0.81256 0.0
C1055 C 0.49708 0.97971 0.79369 0.0
C1056 C 0.50493 0.981 0.77544 0.0
C1057 C 0.5175 0.97982 0.776 0.0
H1058 H 0.98373 0.55268 0.80606 0.0
N1059 N 0.00969 0.55382 0.79707 0.0
H1060 H 0.97783 0.5616 0.83711 0.0
H1061 H 0.0269 0.56667 0.82985 0.0
H1062 H 0.02083 0.57546 0.86163 0.0
H1063 H 0.02916 0.57889 0.77952 0.0
H1064 H 0.02476 0.59206 0.75217 0.0
H1065 H 0.98518 0.54249 0.77262 0.0
H1066 H 0.9804 0.55579 0.74596 0.0
H1067 H 0.9857 0.53053 0.8164 0.0
H1068 H 0.02277 0.54179 0.77631 0.0
H1069 H 0.98009 0.50565 0.81757 0.0
H1070 H 0.01637 0.51623 0.77593 0.0
H1071 H 0.96598 0.42529 0.82843 0.0
H1072 H 0.97014 0.4171 0.86191 0.0
H1073 H 0.0127 0.45622 0.86567 0.0
H1074 H 0.00873 0.46415 0.83216 0.0
H1075 H 0.00852 0.44711 0.79926 0.0
H1076 H 0.01001 0.43062 0.77423 0.0
H1077 H 0.9669 0.41851 0.75156 0.0
H1078 H 0.96526 0.43443 0.77755 0.0
H1079 H 0.96556 0.45879 0.80743 0.0
H1080 H 0.97075 0.48365 0.80191 0.0
H1081 H 0.01686 0.49814 0.7945 0.0
N1082 N 0.98429 0.44922 0.80739 0.0
H1083 H 0.01114 0.47292 0.79806 0.0
C1084 C 0.00584 0.55897 0.81554 0.0
C1085 C 0.99202 0.55775 0.81788 0.0
C1086 C 0.98858 0.56276 0.83582 0.0
C1087 C -0.00117 0.56913 0.85189 0.0
C1088 C 0.01275 0.57065 0.84944 0.0
C1089 C 0.01618 0.56555 0.83142 0.0
C1090 C 0.00752 0.55982 0.77825 0.0
C1091 C 0.01864 0.57365 0.77179 0.0
C1092 C 0.01602 0.58121 0.75635 0.0
C1093 C 0.00211 0.57514 0.74714 0.0
C1094 C 0.99126 0.56081 0.75261 0.0
C1095 C 0.99396 0.55318 0.76794 0.0
C1096 C 0.00495 0.53838 0.79646 0.0
C1097 C 0.9926 0.52774 0.80751 0.0
C1098 C 0.98922 0.51321 0.80796 0.0
C1099 C 0.99773 0.50868 0.79688 0.0
C1100 C 0.0097 0.51922 0.78511 0.0
C1101 C 0.01331 0.53387 0.78509 0.0
C1102 C 0.98685 0.44543 0.82782 0.0
C1103 C 0.97616 0.43213 0.83657 0.0
C1104 C 0.97859 0.42743 0.85555 0.0
C1105 C 0.99174 0.43605 0.86633 0.0
C1106 C 0.00242 0.44943 0.85772 0.0
C1107 C 9e-05 0.45401 0.83854 0.0
C1108 C 0.98663 0.44176 0.79044 0.0
C1109 C -0.00052 0.44103 0.78873 0.0
C1110 C 0.00033 0.43162 0.77427 0.0
C1111 C 0.98846 0.42298 0.76103 0.0
C1112 C 0.97608 0.42464 0.76186 0.0
C1113 C 0.97517 0.43386 0.77651 0.0
C1114 C 0.98796 0.46407 0.8037 0.0
C1115 C 0.97675 0.46737 0.80448 0.0
C1116 C 0.97982 0.48168 0.80151 0.0
C1117 C 0.99433 0.49318 0.79818 0.0
C1118 C 0.00553 0.48971 0.79687 0.0
C1119 C 0.00234 0.47527 0.79926 0.0
H1120 H 0.43527 0.4369 0.80892 0.0
N1121 N 0.43807 0.46195 0.79227 0.0
H1122 H 0.42114 0.42399 0.83945 0.0
H1123 H 0.424 0.47021 0.81831 0.0
H1124 H 0.41018 0.45758 0.84966 0.0
H1125 H 0.41555 0.45562 0.76781 0.0
H1126 H 0.40526 0.43701 0.74059 0.0
H1127 H 0.45063 0.44678 0.77668 0.0
H1128 H 0.44025 0.42792 0.74982 0.0
H1129 H 0.45863 0.461 0.81741 0.0
H1130 H 0.45277 0.48662 0.77086 0.0
H1131 H 0.48399 0.47991 0.82132 0.0
H1132 H 0.47869 0.50523 0.77335 0.0
H1133 H 0.56713 0.54282 0.82889 0.0
H1134 H 0.57866 0.55974 0.85775 0.0
H1135 H 0.54463 0.57082 0.85554 0.0
H1136 H 0.53359 0.55438 0.82625 0.0
H1137 H 0.54773 0.56422 0.79146 0.0
H1138 H 0.56277 0.57786 0.76146 0.0
H1139 H 0.57248 0.54359 0.74975 0.0
H1140 H 0.55761 0.53015 0.77987 0.0
H1141 H 0.5326 0.51021 0.81226 0.0
H1142 H 0.50709 0.4911 0.80759 0.0
H1143 H 0.49604 0.52411 0.79301 0.0
N1144 N 0.54439 0.53866 0.80669 0.0
H1145 H 0.52182 0.54287 0.79591 0.0
C1146 C 0.43057 0.45452 0.81113 0.0
C1147 C 0.42981 0.44151 0.81759 0.0
C1148 C 0.42183 0.43419 0.83528 0.0
C1149 C 0.41449 0.43972 0.84704 0.0
C1150 C 0.41552 0.45289 0.8408 0.0
C1151 C 0.42348 0.46019 0.82301 0.0
C1152 C 0.43377 0.45256 0.7743 0.0
C1153 C 0.42115 0.44982 0.76359 0.0
C1154 C 0.41525 0.43912 0.74819 0.0
C1155 C 0.42184 0.43085 0.74322 0.0
C1156 C 0.43497 0.43416 0.75316 0.0
C1157 C 0.44089 0.44491 0.76858 0.0
C1158 C 0.45357 0.47247 0.79404 0.0
C1159 C 0.46277 0.47063 0.80783 0.0
C1160 C 0.47749 0.48149 0.80988 0.0
C1161 C 0.48356 0.49428 0.79775 0.0
C1162 C 0.47443 0.4958 0.78342 0.0
C1163 C 0.45961 0.48509 0.78176 0.0
C1164 C 0.54947 0.54719 0.82545 0.0
C1165 C 0.56206 0.54874 0.8349 0.0
C1166 C 0.56859 0.5584 0.85144 0.0
C1167 C 0.5626 0.5667 0.859 0.0
C1168 C 0.54967 0.56477 0.84993 0.0
C1169 C 0.54321 0.55518 0.83325 0.0
C1170 C 0.5517 0.54621 0.78794 0.0
C1171 C 0.55298 0.55959 0.78232 0.0
C1172 C 0.5616 0.56739 0.76523 0.0
C1173 C 0.5688 0.56179 0.75331 0.0
C1174 C 0.56694 0.54811 0.7585 0.0
C1175 C 0.55851 0.54044 0.77569 0.0
C1176 C 0.52905 0.52793 0.80493 0.0
C1177 C 0.5246 0.51324 0.80812 0.0
C1178 C 0.50995 0.50235 0.80557 0.0
C1179 C 0.49929 0.50594 0.80011 0.0
C1180 C 0.50385 0.52079 0.79696 0.0
C1181 C 0.5186 0.53164 0.79902 0.0
H1182 H 0.67619 0.89671 0.55079 0.0
N1183 N 0.65011 0.87281 0.56278 0.0
H1184 H 0.68151 0.90942 0.51776 0.0
H1185 H 0.63233 0.86602 0.53031 0.0
H1186 H 0.63766 0.8788 0.49685 0.0
H1187 H 0.63136 0.88016 0.57785 0.0
H1188 H 0.63601 0.89866 0.6042 0.0
H1189 H 0.67483 0.88725 0.58681 0.0
H1190 H 0.67966 0.90588 0.61281 0.0
H1191 H 0.67642 0.87447 0.55366 0.0
H1192 H 0.63289 0.84611 0.57782 0.0
H1193 H 0.68164 0.8548 0.55581 0.0
H1194 H 0.63831 0.8264 0.58116 0.0
H1195 H 0.69046 0.79556 0.53252 0.0
H1196 H 0.68471 0.77844 0.50385 0.0
H1197 H 0.64039 0.75235 0.52737 0.0
H1198 H 0.64667 0.76881 0.55671 0.0
H1199 H 0.65142 0.77946 0.59375 0.0
H1200 H 0.64916 0.76211 0.62033 0.0
H1201 H 0.69177 0.76912 0.60265 0.0
H1202 H 0.69417 0.78697 0.57705 0.0
H1203 H 0.69171 0.82024 0.57535 0.0
H1204 H 0.68638 0.84006 0.5775 0.0
H1205 H 0.64134 0.80976 0.56078 0.0
N1206 N 0.67366 0.79257 0.56508 0.0
H1207 H 0.64658 0.79006 0.55985 0.0
C1208 C 0.65382 0.88027 0.54303 0.0
C1209 C 0.66771 0.89259 0.53914 0.0
C1210 C 0.67077 0.89986 0.52016 0.0
C1211 C 0.66002 0.89507 0.50466 0.0
C1212 C 0.64613 0.88279 0.50855 0.0
C1213 C 0.6431 0.87544 0.52755 0.0
C1214 C 0.65266 0.88227 0.58035 0.0
C1215 C 0.64181 0.88555 0.58576 0.0
C1216 C 0.64454 0.8962 0.60067 0.0
C1217 C 0.65825 0.90384 0.61049 0.0
C1218 C 0.66893 0.90011 0.6057 0.0
C1219 C 0.66619 0.88944 0.59076 0.0
C1220 C 0.65407 0.86173 0.56525 0.0
C1221 C 0.66797 0.86406 0.55959 0.0
C1222 C 0.67103 0.85275 0.56108 0.0
C1223 C 0.66039 0.83889 0.56857 0.0
C1224 C 0.64669 0.83679 0.5749 0.0
C1225 C 0.64359 0.84807 0.57318 0.0
C1226 C 0.66901 0.78368 0.54658 0.0
C1227 C 0.67944 0.78627 0.53119 0.0
C1228 C 0.67608 0.77646 0.51476 0.0
C1229 C 0.66206 0.76387 0.51322 0.0
C1230 C 0.65139 0.76171 0.52817 0.0
C1231 C 0.65487 0.77135 0.54482 0.0
C1232 C 0.67304 0.78457 0.58345 0.0
C1233 C 0.66046 0.77761 0.5961 0.0
C1234 C 0.65912 0.76752 0.61114 0.0
C1235 C 0.67019 0.76398 0.61357 0.0
C1236 C 0.68308 0.77163 0.60161 0.0
C1237 C 0.68448 0.78184 0.58685 0.0
C1238 C 0.66971 0.80368 0.56715 0.0
C1239 C 0.68067 0.8179 0.57235 0.0
C1240 C 0.6776 0.82923 0.57339 0.0
C1241 C 0.66344 0.82662 0.56906 0.0
C1242 C 0.65234 0.81223 0.56442 0.0
C1243 C 0.6554 0.80088 0.56363 0.0
H1244 H 0.25746 0.87856 0.55269 0.0
N1245 N 0.23005 0.86792 0.56551 0.0
H1246 H 0.26838 0.89092 0.51999 0.0
H1247 H 0.2151 0.86994 0.53219 0.0
H1248 H 0.22574 0.88164 0.49908 0.0
H1249 H 0.22102 0.88787 0.56239 0.0
H1250 H 0.22848 0.90907 0.58451 0.0
H1251 H 0.24545 0.87442 0.60038 0.0
H1252 H 0.25309 0.89585 0.62273 0.0
H1253 H 0.22623 0.84129 0.56368 0.0
H1254 H 0.20222 0.86396 0.56933 0.0
H1255 H 0.20313 0.81792 0.56339 0.0
H1256 H 0.17924 0.84078 0.56981 0.0
H1257 H 0.13999 0.75415 0.53722 0.0
H1258 H 0.12761 0.74314 0.50441 0.0
H1259 H 0.10462 0.76701 0.50852 0.0
H1260 H 0.1171 0.77803 0.54076 0.0
H1261 H 0.12349 0.78766 0.57576 0.0
H1262 H 0.1024 0.77902 0.59873 0.0
H1263 H 0.10215 0.73859 0.60773 0.0
H1264 H 0.12297 0.74716 0.5838 0.0
H1265 H 0.15998 0.77781 0.5818 0.0
H1266 H 0.1828 0.80136 0.58442 0.0
H1267 H 0.16371 0.82119 0.54725 0.0
N1268 N 0.13567 0.77172 0.56192 0.0
H1269 H 0.14093 0.79787 0.54541 0.0
C1270 C 0.23551 0.87323 0.5449 0.0
C1271 C 0.25047 0.87902 0.54088 0.0
C1272 C 0.25666 0.88603 0.52212 0.0
C1273 C 0.24796 0.88733 0.50683 0.0
C1274 C 0.23283 0.88106 0.5106 0.0
C1275 C 0.22667 0.87417 0.52949 0.0
C1276 C 0.23251 0.87938 0.57992 0.0
C1277 C 0.22767 0.88924 0.57582 0.0
C1278 C 0.23199 0.90143 0.58848 0.0
C1279 C 0.24138 0.90414 0.60537 0.0
C1280 C 0.24593 0.8941 0.60974 0.0
C1281 C 0.24148 0.88181 0.59715 0.0
C1282 C 0.2161 0.85443 0.56668 0.0
C1283 C 0.21599 0.84122 0.56516 0.0
C1284 C 0.20277 0.82787 0.56511 0.0
C1285 C 0.18928 0.82743 0.56663 0.0
C1286 C 0.1894 0.84069 0.56836 0.0
C1287 C 0.20264 0.85405 0.56829 0.0
C1288 C 0.12955 0.7669 0.5415 0.0
C1289 C 0.13248 0.75718 0.53077 0.0
C1290 C 0.12532 0.75083 0.51216 0.0
C1291 C 0.11506 0.75414 0.50392 0.0
C1292 C 0.11258 0.76435 0.51428 0.0
C1293 C 0.11972 0.77066 0.53286 0.0
C1294 C 0.12481 0.76801 0.57801 0.0
C1295 C 0.11906 0.77703 0.58285 0.0
C1296 C 0.10697 0.77206 0.59613 0.0
C1297 C 0.10046 0.75803 0.60505 0.0
C1298 C 0.10668 0.74932 0.60087 0.0
C1299 C 0.11868 0.75426 0.58742 0.0
C1300 C 0.14876 0.78594 0.5633 0.0
C1301 C 0.16075 0.78728 0.57432 0.0
C1302 C 0.1738 0.80074 0.57567 0.0
C1303 C 0.17517 0.8132 0.56593 0.0
C1304 C 0.16303 0.81189 0.55514 0.0
C1305 C 0.14996 0.79844 0.55391 0.0
H1306 H 0.22182 0.32719 0.55024 0.0
N1307 N 0.22941 0.35494 0.56202 0.0
H1308 H 0.22786 0.31993 0.51758 0.0
H1309 H 0.24254 0.37179 0.52907 0.0
H1310 H 0.24873 0.36456 0.49606 0.0
H1311 H 0.25538 0.35564 0.56218 0.0
H1312 H 0.26475 0.34641 0.58838 0.0
H1313 H 0.21916 0.34732 0.60262 0.0
H1314 H 0.22885 0.33839 0.62908 0.0
H1315 H 0.20508 0.32842 0.57143 0.0
H1316 H 0.21955 0.37321 0.55618 0.0
H1317 H 0.17972 0.3226 0.57121 0.0
H1318 H 0.19402 0.36737 0.55512 0.0
H1319 H 0.10092 0.3088 0.53587 0.0
H1320 H 0.09036 0.31285 0.50474 0.0
H1321 H 0.126 0.35766 0.50261 0.0
H1322 H 0.13641 0.35351 0.53383 0.0
H1323 H 0.12202 0.35258 0.56537 0.0
H1324 H 0.10673 0.35445 0.5918 0.0
H1325 H 0.09673 0.31254 0.6165 0.0
H1326 H 0.11127 0.3103 0.58867 0.0
H1327 H 0.13598 0.31272 0.54534 0.0
H1328 H 0.16166 0.31938 0.54727 0.0
H1329 H 0.17242 0.36088 0.57458 0.0
N1330 N 0.12412 0.32837 0.55691 0.0
H1331 H 0.1468 0.35435 0.57157 0.0
C1332 C 0.23165 0.35009 0.54206 0.0
C1333 C 0.22732 0.33537 0.53834 0.0
C1334 C 0.23084 0.33123 0.51964 0.0
C1335 C 0.23879 0.34168 0.50425 0.0
C1336 C 0.24273 0.3563 0.50773 0.0
C1337 C 0.23914 0.36044 0.52646 0.0
C1338 C 0.23561 0.35087 0.57917 0.0
C1339 C 0.24925 0.35167 0.57653 0.0
C1340 C 0.25483 0.34662 0.59181 0.0
C1341 C 0.24732 0.3412 0.61066 0.0
C1342 C 0.23458 0.34189 0.61436 0.0
C1343 C 0.22893 0.34691 0.59897 0.0
C1344 C 0.21431 0.35136 0.56398 0.0
C1345 C 0.20282 0.33703 0.56799 0.0
C1346 C 0.18825 0.33369 0.56774 0.0
C1347 C 0.18475 0.34448 0.56296 0.0
C1348 C 0.19627 0.35882 0.55916 0.0
C1349 C 0.21087 0.36219 0.5597 0.0
C1350 C 0.1194 0.33078 0.53715 0.0
C1351 C 0.10657 0.31941 0.52843 0.0
C1352 C 0.10058 0.32175 0.51065 0.0
C1353 C 0.10732 0.3356 0.50127 0.0
C1354 C 0.12047 0.34691 0.50964 0.0
C1355 C 0.1265 0.34452 0.52738 0.0
C1356 C 0.11746 0.33105 0.57467 0.0
C1357 C 0.11661 0.34379 0.57646 0.0
C1358 C 0.10794 0.34494 0.5919 0.0
C1359 C 0.10021 0.33354 0.60624 0.0
C1360 C 0.10212 0.32135 0.6054 0.0
C1361 C 0.11055 0.3201 0.58966 0.0
C1362 C 0.13943 0.33289 0.55849 0.0
C1363 C 0.14392 0.32325 0.55171 0.0
C1364 C 0.15859 0.32705 0.55302 0.0
C1365 C 0.16914 0.34062 0.56136 0.0
C1366 C 0.16464 0.35039 0.56795 0.0
C1367 C 0.14993 0.34661 0.56642 0.0
H1368 H 0.017 0.40333 0.07105 0.0
H1369 H 0.97895 0.36236 0.09015 0.0
H1370 H 0.97696 0.37412 0.12203 0.0
H1371 H 0.03245 0.41521 0.12268 0.0
H1372 H 0.03855 0.43415 0.11778 0.0
H1373 H 0.03738 0.42241 0.09673 0.0
H1374 H 0.02046 0.42915 0.07676 0.0
H1375 H 0.02152 0.44085 0.09778 0.0
H1376 H 0.0039 0.42644 0.089 0.0
H1377 H 0.9785 0.39022 0.15111 0.0
H1378 H 0.9839 0.40972 0.17643 0.0
H1379 H 0.02077 0.44052 0.13859 0.0
C1380 C 0.00835 0.39681 0.08204 0.0
C1381 C -0.00186 0.38193 0.07812 0.0
C1382 C 0.9869 0.37379 0.09282 0.0
C1383 C 0.98567 0.38035 0.11097 0.0
C1384 C 0.99577 0.39507 0.11424 0.0
C1385 C 0.00694 0.40322 0.10028 0.0
C1386 C 0.01616 0.41893 0.10745 0.0
C1387 C 0.03208 0.42291 0.1114 0.0
C1388 C 0.01546 0.42946 0.09182 0.0
C1389 C 0.00835 0.41833 0.12754 0.0
C1390 C 0.99663 0.40445 0.13111 0.0
C1391 C 0.98764 0.40115 0.1485 0.0
C1392 C 0.99072 0.41234 0.1627 0.0
C1393 C 0.00269 0.42668 0.15943 0.0
C1394 C 0.01161 0.42965 0.14158 0.0
H1395 H 0.62466 0.61273 0.07965 0.0
H1396 H 0.58659 0.59356 0.03952 0.0
H1397 H 0.57363 0.57293 0.06365 0.0
H1398 H 0.62094 0.57798 0.09816 0.0
H1399 H 0.62627 0.58462 0.12427 0.0
H1400 H 0.63342 0.59715 0.10274 0.0
H1401 H 0.62371 0.61283 0.11953 0.0
H1402 H 0.61657 0.60038 0.14109 0.0
H1403 H 0.60457 0.60436 0.12643 0.0
H1404 H 0.56406 0.55538 0.09259 0.0
H1405 H 0.5579 0.54234 0.126 0.0
H1406 H 0.60154 0.57291 0.14868 0.0
C1407 C 0.61371 0.60403 0.07583 0.0
C1408 C 0.60664 0.60469 0.05769 0.0
C1409 C 0.59218 0.59329 0.05337 0.0
C1410 C 0.58476 0.58147 0.0669 0.0
C1411 C 0.59189 0.58122 0.0848 0.0
C1412 C 0.606 0.59218 0.08942 0.0
C1413 C 0.61054 0.58977 0.11063 0.0
C1414 C 0.62356 0.58723 0.10883 0.0
C1415 C 0.61405 0.6026 0.12528 0.0
C1416 C 0.59667 0.57594 0.11729 0.0
C1417 C 0.58616 0.57111 0.10197 0.0
C1418 C 0.57221 0.55898 0.10468 0.0
C1419 C 0.56879 0.55169 0.12374 0.0
C1420 C 0.57922 0.55662 0.13993 0.0
C1421 C 0.59343 0.56876 0.13647 0.0
H1422 H 0.39088 0.00696 0.06571 0.0
H1423 H 0.38317 0.96464 0.04523 0.0
H1424 H 0.39687 0.96365 0.07527 0.0
H1425 H 0.42775 0.02049 0.08338 0.0
H1426 H 0.4261 0.03002 0.10546 0.0
H1427 H 0.41531 0.02738 0.08261 0.0
H1428 H 0.39153 0.01483 0.10476 0.0
H1429 H 0.40225 0.0175 0.12769 0.0
H1430 H 0.38776 -0.00057 0.12079 0.0
H1431 H 0.41111 0.96695 0.10734 0.0
H1432 H 0.42549 0.97463 0.13968 0.0
H1433 H 0.42477 0.01509 0.13924 0.0
C1434 C 0.392 0.99745 0.06763 0.0
C1435 C 0.38592 0.98586 0.05311 0.0
C1436 C 0.38775 0.97367 0.05609 0.0
C1437 C 0.3955 0.97299 0.07312 0.0
C1438 C 0.40146 0.98461 0.08701 0.0
C1439 C 0.39985 0.99664 0.0845 0.0
C1440 C 0.4076 0.00773 0.10162 0.0
C1441 C 0.41992 0.02226 0.09273 0.0
C1442 C 0.39663 0.01 0.11447 0.0
C1443 C 0.41376 2e-05 0.11411 0.0
C1444 C 0.41001 0.98667 0.10542 0.0
C1445 C 0.41415 0.97738 0.11429 0.0
C1446 C 0.42227 0.98181 0.13266 0.0
C1447 C 0.42624 0.99543 0.14187 0.0
C1448 C 0.42201 0.00469 0.13236 0.0
H1449 H 0.37786 0.98261 0.94401 0.0
H1450 H 0.40414 0.02928 0.95485 0.0
H1451 H 0.4204 0.03153 0.92552 0.0
H1452 H 0.40844 0.97768 0.93194 0.0
H1453 H 0.39848 0.96382 0.91269 0.0
H1454 H 0.38882 0.96607 0.93416 0.0
H1455 H 0.37198 0.96938 0.90849 0.0
H1456 H 0.38158 0.96715 0.88695 0.0
H1457 H 0.38009 0.98329 0.88875 0.0
H1458 H 0.43293 0.02863 0.89375 0.0
H1459 H 0.44159 0.0208 0.86353 0.0
H1460 H 0.4085 0.97562 0.87628 0.0
C1461 C 0.38699 0.99332 0.94013 0.0
C1462 C 0.3897 0.00581 0.95147 0.0
C1463 C 0.4019 0.01959 0.94624 0.0
C1464 C 0.41116 0.02097 0.92963 0.0
C1465 C 0.40819 0.0084 0.91874 0.0
C1466 C 0.3965 0.99482 0.92395 0.0
C1467 C 0.39592 0.98296 0.91024 0.0
C1468 C 0.39805 0.97199 0.92302 0.0
C1469 C 0.38154 0.97525 0.89788 0.0
C1470 C 0.40896 0.99201 0.89624 0.0
C1471 C 0.41586 0.00666 0.90128 0.0
C1472 C 0.42776 0.01715 0.88987 0.0
C1473 C 0.43268 0.01255 0.87279 0.0
C1474 C 0.42584 0.99754 0.86739 0.0
C1475 C 0.41393 0.9872 0.8796 0.0
H1476 H 0.98994 0.37901 0.94873 0.0
H1477 H -0.00068 0.41176 0.99583 0.0
H1478 H 0.00243 0.4295 0.96866 0.0
H1479 H 0.01416 0.40375 0.9074 0.0
H1480 H 0.00108 0.39384 0.88723 0.0
H1481 H 0.00163 0.38439 0.91005 0.0
H1482 H 0.97404 0.37482 0.91664 0.0
H1483 H 0.97343 0.3843 0.89395 0.0
H1484 H 0.96774 0.38767 0.91875 0.0
H1485 H 0.00337 0.44326 0.93673 0.0
H1486 H 0.00039 0.45165 0.90234 0.0
H1487 H 0.98851 0.40944 0.87607 0.0
C1488 C 0.99303 0.39005 0.95316 0.0
C1489 C 0.9947 0.39421 0.97423 0.0
C1490 C -0.00181 0.40852 0.97969 0.0
C1491 C -1e-05 0.41864 0.96439 0.0
C1492 C -0.00198 0.41418 0.94373 0.0
C1493 C 0.99451 0.4002 0.93807 0.0
C1494 C 0.99156 0.39778 0.91498 0.0
C1495 C 0.00278 0.39476 0.90428 0.0
C1496 C 0.97575 0.38541 0.91085 0.0
C1497 C 0.99378 0.4125 0.90864 0.0
C1498 C 0.99777 0.42188 0.9254 0.0
C1499 C 0.00031 0.43604 0.92347 0.0
C1500 C -0.00138 0.44072 0.90391 0.0
C1501 C 0.9942 0.43118 0.88664 0.0
C1502 C 0.99182 0.41692 0.88908 0.0
H1503 H 0.61293 0.601 0.95885 0.0
H1504 H 0.6112 0.64044 0.94845 0.0
H1505 H 0.59507 0.62876 0.91823 0.0
H1506 H 0.61379 0.59202 0.90552 0.0
H1507 H 0.60237 0.57261 0.90953 0.0
H1508 H 0.61373 0.58412 0.93025 0.0
H1509 H 0.59088 0.57436 0.95416 0.0
H1510 H 0.57943 0.56284 0.93349 0.0
H1511 H 0.57534 0.57563 0.9458 0.0
H1512 H 0.5795 0.61281 0.88872 0.0
H1513 H 0.56583 0.59399 0.86219 0.0
H1514 H 0.57697 0.5647 0.89314 0.0
C1515 C 0.6092 0.60722 0.9502 0.0
C1516 C 0.61335 0.62165 0.95594 0.0
C1517 C 0.60817 0.62937 0.94429 0.0
C1518 C 0.59899 0.62282 0.92714 0.0
C1519 C 0.59506 0.60854 0.92196 0.0
C1520 C 0.59999 0.60083 0.93318 0.0
C1521 C 0.59416 0.58563 0.92448 0.0
C1522 C 0.60677 0.58348 0.917 0.0
C1523 C 0.58437 0.57393 0.94043 0.0
C1524 C 0.58527 0.58602 0.90647 0.0
C1525 C 0.58591 0.59931 0.90527 0.0
C1526 C 0.57882 0.60231 0.88962 0.0
C1527 C 0.57097 0.59149 0.8747 0.0
C1528 C 0.57023 0.57779 0.87557 0.0
C1529 C 0.5774 0.57507 0.89186 0.0
H1530 H 0.00651 0.62163 0.94697 0.0
H1531 H 0.96257 0.58782 0.96509 0.0
H1532 H 0.96167 0.5729 0.93538 0.0
H1533 H 0.00036 0.61726 0.89115 0.0
H1534 H 0.01836 0.62026 0.88532 0.0
H1535 H 0.01559 0.62869 0.90782 0.0
H1536 H 0.02661 0.61686 0.93105 0.0
H1537 H 0.02931 0.6083 0.90864 0.0
H1538 H 0.01881 0.59733 0.93045 0.0
H1539 H 0.96535 0.56124 0.90473 0.0
H1540 H 0.97329 0.55369 0.87347 0.0
H1541 H 0.01483 0.59467 0.87424 0.0
C1542 C 0.99667 0.61115 0.94455 0.0
C1543 C 0.98463 0.60592 0.95844 0.0
C1544 C 0.97198 0.59209 0.95479 0.0
C1545 C 0.97133 0.58349 0.93792 0.0
C1546 C 0.98341 0.58882 0.92476 0.0
C1547 C 0.99583 0.60233 0.92772 0.0
C1548 C 0.00729 0.60526 0.91119 0.0
C1549 C 0.01059 0.61866 0.89809 0.0
C1550 C 0.02134 0.60704 0.92092 0.0
C1551 C -0.00068 0.59127 0.89861 0.0
C1552 C 0.98556 0.58199 0.90679 0.0
C1553 C 0.97606 0.56843 0.89805 0.0
C1554 C 0.98065 0.56427 0.88026 0.0
C1555 C 0.99461 0.57363 0.87133 0.0
C1556 C 0.00413 0.58726 0.88079 0.0
H1557 H 0.39291 0.38765 0.9461 0.0
H1558 H 0.35231 0.3884 0.94957 0.0
H1559 H 0.36018 0.40501 0.91943 0.0
H1560 H 0.41618 0.4255 0.932 0.0
H1561 H 0.42747 0.42198 0.9147 0.0
H1562 H 0.41865 0.41017 0.93658 0.0
H1563 H 0.40635 0.38777 0.91202 0.0
H1564 H 0.41515 0.39951 0.89007 0.0
H1565 H 0.39549 0.38781 0.89062 0.0
H1566 H 0.37233 0.42125 0.88856 0.0
H1567 H 0.38774 0.4357 0.859 0.0
H1568 H 0.42071 0.42494 0.87641 0.0
C1569 C 0.38565 0.3913 0.9405 0.0
C1570 C 0.37197 0.38672 0.95017 0.0
C1571 C 0.36283 0.39176 0.94241 0.0
C1572 C 0.36721 0.40121 0.92531 0.0
C1573 C 0.38078 0.40554 0.91619 0.0
C1574 C 0.38987 0.40076 0.92351 0.0
C1575 C 0.40388 0.40702 0.91087 0.0
C1576 C 0.41734 0.41675 0.92434 0.0
C1577 C 0.4053 0.3948 0.90026 0.0
C1578 C 0.4012 0.41598 0.89521 0.0
C1579 C 0.38784 0.41501 0.89856 0.0
C1580 C 0.38287 0.42217 0.88586 0.0
C1581 C 0.39176 0.43044 0.86919 0.0
C1582 C 0.40548 0.43152 0.86536 0.0
C1583 C 0.41024 0.42424 0.87873 0.0
H1584 H 0.59935 0.00126 0.95785 0.0
H1585 H 0.61812 0.97399 0.9448 0.0
H1586 H 0.60423 0.96605 0.91196 0.0
H1587 H 0.56341 0.97648 0.93801 0.0
H1588 H 0.56097 0.9908 0.92752 0.0
H1589 H 0.57242 0.99432 0.94987 0.0
H1590 H 0.5941 0.01603 0.93074 0.0
H1591 H 0.58272 0.01259 0.90834 0.0
H1592 H 0.59991 0.01304 0.90579 0.0
H1593 H 0.58853 0.96148 0.8802 0.0
H1594 H 0.57234 0.96055 0.85217 0.0
H1595 H 0.56327 0.99021 0.88693 0.0
C1596 C 0.6006 0.99363 0.94812 0.0
C1597 C 0.60988 0.98828 0.95392 0.0
C1598 C 0.6111 0.97825 0.94071 0.0
C1599 C 0.60325 0.97368 0.92203 0.0
C1600 C 0.59419 0.97918 0.91685 0.0
C1601 C 0.59282 0.98892 0.92954 0.0
C1602 C 0.58236 0.99319 0.92052 0.0
C1603 C 0.569 0.98841 0.93483 0.0
C1604 C 0.59025 0.00969 0.91608 0.0
C1605 C 0.57809 0.9844 0.90065 0.0
C1606 C 0.58502 0.97639 0.8988 0.0
C1607 C 0.58295 0.96762 0.88158 0.0
C1608 C 0.57362 0.96708 0.86579 0.0
C1609 C 0.56639 0.97522 0.86733 0.0
C1610 C 0.56868 0.98393 0.88512 0.0
H1611 H 0.61833 0.00108 0.08233 0.0
H1612 H 0.58562 0.97201 0.0382 0.0
H1613 H 0.56594 0.96958 0.06158 0.0
H1614 H 0.5985 0.98094 0.12711 0.0
H1615 H 0.60428 0.99682 0.14322 0.0
H1616 H 0.61583 0.99734 0.12224 0.0
H1617 H 0.61613 0.02005 0.10708 0.0
H1618 H 0.60449 0.01953 0.12798 0.0
H1619 H 0.59902 0.01914 0.10146 0.0
H1620 H 0.54986 0.97024 0.08955 0.0
H1621 H 0.53822 0.9718 0.12185 0.0
H1622 H 0.58127 0.99858 0.14934 0.0
C1623 C 0.60702 0.99434 0.07755 0.0
C1624 C 0.60345 0.98682 0.05844 0.0
C1625 C 0.58855 0.97785 0.05281 0.0
C1626 C 0.57731 0.97648 0.06591 0.0
C1627 C 0.58116 0.98398 0.0847 0.0
C1628 C 0.59562 0.99258 0.09068 0.0
C1629 C 0.59668 0.99854 0.1124 0.0
C1630 C 0.60427 0.99308 0.12711 0.0
C1631 C 0.60454 0.01531 0.11221 0.0
C1632 C 0.58055 0.99186 0.1177 0.0
C1633 C 0.57182 0.98372 0.10136 0.0
C1634 C 0.55658 0.97648 0.10253 0.0
C1635 C 0.55007 0.97735 0.12105 0.0
C1636 C 0.55876 0.98517 0.13837 0.0
C1637 C 0.57424 0.99266 0.13643 0.0
H1638 H 0.98104 0.6106 0.07632 0.0
H1639 H 0.02254 0.6192 0.04995 0.0
H1640 H 0.02484 0.60454 0.0776 0.0
H1641 H 0.99103 0.61212 0.12994 0.0
H1642 H 0.97325 0.59746 0.13789 0.0
H1643 H 0.97485 0.60871 0.11605 0.0
H1644 H 0.96129 0.58561 0.093 0.0
H1645 H 0.95969 0.57429 0.11475 0.0
H1646 H 0.96824 0.57328 0.09103 0.0
H1647 H 0.02296 0.58941 0.1082 0.0
H1648 H 0.01678 0.57435 0.13988 0.0
H1649 H 0.97627 0.57499 0.14612 0.0
C1650 C 0.99062 0.60943 0.07642 0.0
C1651 C 0.00163 0.61606 0.06102 0.0
C1652 C 0.01396 0.6142 0.06158 0.0
C1653 C 0.01538 0.6059 0.07722 0.0
C1654 C 0.00432 0.59945 0.09211 0.0
C1655 C 0.99217 0.60107 0.09185 0.0
C1656 C 0.98184 0.59288 0.10967 0.0
C1657 C 0.98015 0.60342 0.12425 0.0
C1658 C 0.96688 0.5808 0.10162 0.0
C1659 C 0.99015 0.58649 0.12 0.0
C1660 C 0.00311 0.59046 0.10963 0.0
C1661 C 0.01283 0.58619 0.11644 0.0
C1662 C 0.00926 0.57769 0.13445 0.0
C1663 C 0.99605 0.57351 0.14536 0.0
C1664 C 0.98634 0.57789 0.13791 0.0
H1665 H 0.38576 0.4059 0.06705 0.0
H1666 H 0.39799 0.3735 0.05302 0.0
H1667 H 0.41574 0.38289 0.08195 0.0
H1668 H 0.42152 0.43521 0.08163 0.0
H1669 H 0.41458 0.4415 0.10234 0.0
H1670 H 0.40333 0.43258 0.08007 0.0
H1671 H 0.38277 0.41358 0.10408 0.0
H1672 H 0.39393 0.42248 0.12641 0.0
H1673 H 0.38695 0.40329 0.12212 0.0
H1674 H 0.43235 0.39615 0.11247 0.0
H1675 H 0.44531 0.41109 0.14308 0.0
H1676 H 0.42074 0.43354 0.13798 0.0
C1677 C 0.39224 0.40083 0.06992 0.0
C1678 C 0.39058 0.38903 0.05768 0.0
C1679 C 0.3991 0.38256 0.0622 0.0
C1680 C 0.40924 0.38785 0.07854 0.0
C1681 C 0.41059 0.39951 0.09031 0.0
C1682 C 0.40223 0.40582 0.08629 0.0
C1683 C 0.40527 0.41779 0.1017 0.0
C1684 C 0.41155 0.43265 0.09078 0.0
C1685 C 0.39141 0.41405 0.11432 0.0
C1686 C 0.4167 0.41728 0.11503 0.0
C1687 C 0.41973 0.40676 0.10816 0.0
C1688 C 0.42998 0.40435 0.11805 0.0
C1689 C 0.43722 0.41285 0.13553 0.0
C1690 C 0.43408 0.42353 0.14309 0.0
C1691 C 0.42367 0.4257 0.13253 0.0
H1692 H 0.67262 0.73322 0.40493 0.0
H1693 H 0.64219 0.68957 0.42757 0.0
H1694 H 0.63879 0.70009 0.45992 0.0
H1695 H 0.68988 0.74873 0.45304 0.0
H1696 H 0.69147 0.76619 0.44836 0.0
H1697 H 0.6913 0.75525 0.42686 0.0
H1698 H 0.66935 0.7561 0.41084 0.0
H1699 H 0.66947 0.76708 0.43229 0.0
H1700 H 0.65295 0.75022 0.42608 0.0
H1701 H 0.63989 0.71531 0.49052 0.0
H1702 H 0.64449 0.73401 0.51669 0.0
H1703 H 0.6728 0.76794 0.47301 0.0
C1704 C 0.66522 0.72587 0.41668 0.0
C1705 C 0.65771 0.71057 0.4138 0.0
C1706 C 0.64804 0.70132 0.42946 0.0
C1707 C 0.64605 0.7072 0.44788 0.0
C1708 C 0.65366 0.72233 0.45025 0.0
C1709 C 0.66295 0.73155 0.43502 0.0
C1710 C 0.6698 0.74742 0.44142 0.0
C1711 C 0.68661 0.75483 0.44249 0.0
C1712 C 0.66511 0.75569 0.42679 0.0
C1713 C 0.66311 0.74567 0.4628 0.0
C1714 C 0.65386 0.73112 0.4676 0.0
C1715 C 0.64691 0.72675 0.4868 0.0
C1716 C 0.64951 0.73753 0.50154 0.0
C1717 C 0.65888 0.75259 0.49698 0.0
C1718 C 0.66564 0.75661 0.47719 0.0
H1719 H 0.26187 0.9446 0.4168 0.0
H1720 H 0.29894 0.94051 0.39712 0.0
H1721 H 0.29323 0.92227 0.42461 0.0
H1722 H 0.26672 0.94201 0.47157 0.0
H1723 H 0.24733 0.93186 0.47711 0.0
H1724 H 0.25416 0.94435 0.45556 0.0
H1725 H 0.23674 0.92345 0.43087 0.0
H1726 H 0.22994 0.91087 0.45234 0.0
H1727 H 0.23751 0.90689 0.42983 0.0
H1728 H 0.28316 0.90404 0.45367 0.0
H1729 H 0.27059 0.8885 0.484 0.0
H1730 H 0.24099 0.90556 0.48598 0.0
C1731 C 0.26878 0.93986 0.41825 0.0
C1732 C 0.28082 0.94395 0.40475 0.0
C1733 C 0.28968 0.93758 0.40731 0.0
C1734 C 0.28649 0.92716 0.42282 0.0
C1735 C 0.27449 0.9233 0.43576 0.0
C1736 C 0.26587 0.92956 0.43381 0.0
C1737 C 0.2539 0.92384 0.45018 0.0
C1738 C 0.25564 0.93626 0.46445 0.0
C1739 C 0.23862 0.91578 0.4402 0.0
C1740 C 0.25712 0.91336 0.46159 0.0
C1741 C 0.26896 0.91312 0.45292 0.0
C1742 C 0.27395 0.90422 0.46071 0.0
C1743 C 0.26677 0.89549 0.47803 0.0
C1744 C 0.25482 0.89582 0.48755 0.0
C1745 C 0.24993 0.90483 0.47899 0.0
H1746 H 0.06084 0.31571 0.39709 0.0
H1747 H 0.0601 0.35597 0.40461 0.0
H1748 H 0.07522 0.36167 0.43613 0.0
H1749 H 0.05804 0.30683 0.45112 0.0
H1750 H 0.07007 0.29949 0.44924 0.0
H1751 H 0.05937 0.29875 0.42718 0.0
H1752 H 0.08309 0.31231 0.40499 0.0
H1753 H 0.09387 0.31316 0.42703 0.0
H1754 H 0.09793 0.32969 0.41371 0.0
H1755 H 0.0906 0.36299 0.46679 0.0
H1756 H 0.10387 0.35918 0.4952 0.0
H1757 H 0.09442 0.31807 0.46739 0.0
C1758 C 0.06383 0.32574 0.40532 0.0
C1759 C 0.05929 0.3354 0.39833 0.0
C1760 C 0.06342 0.34837 0.40967 0.0
C1761 C 0.07205 0.35173 0.42755 0.0
C1762 C 0.07642 0.342 0.43391 0.0
C1763 C 0.07238 0.32923 0.4232 0.0
C1764 C 0.07827 0.32047 0.43345 0.0
C1765 C 0.06569 0.3055 0.44068 0.0
C1766 C 0.08892 0.31882 0.41893 0.0
C1767 C 0.08623 0.33028 0.45166 0.0
C1768 C 0.08513 0.3427 0.45159 0.0
C1769 C 0.09156 0.35333 0.46696 0.0
C1770 C 0.09916 0.35112 0.48295 0.0
C1771 C 0.1002 0.33835 0.48349 0.0
C1772 C 0.09373 0.32789 0.46749 0.0
H1773 H 0.04453 0.31988 0.27632 0.0
H1774 H 0.0811 0.3596 0.30143 0.0
H1775 H 0.09687 0.36003 0.27279 0.0
H1776 H 0.06555 0.30357 0.25899 0.0
H1777 H 0.05496 0.29598 0.23574 0.0
H1778 H 0.04654 0.29861 0.25843 0.0
H1779 H 0.03889 0.31421 0.23696 0.0
H1780 H 0.04724 0.3116 0.21419 0.0
H1781 H 0.05267 0.32981 0.22277 0.0
H1782 H 0.10861 0.35636 0.24134 0.0
H1783 H 0.11545 0.349 0.20875 0.0
H1784 H 0.07119 0.31188 0.20377 0.0
C1785 C 0.05586 0.32864 0.27583 0.0
C1786 C 0.06159 0.3397 0.29113 0.0
C1787 C 0.07647 0.35101 0.28989 0.0
C1788 C 0.08553 0.35134 0.2737 0.0
C1789 C 0.07955 0.34029 0.25887 0.0
C1790 C 0.06506 0.32916 0.25975 0.0
C1791 C 0.06132 0.31876 0.24162 0.0
C1792 C 0.05683 0.30332 0.24915 0.0
C1793 C 0.04932 0.31859 0.22809 0.0
C1794 C 0.07595 0.32582 0.2304 0.0
C1795 C 0.08632 0.33821 0.24065 0.0
C1796 C 0.10059 0.34669 0.23315 0.0
C1797 C 0.10434 0.34247 0.21458 0.0
C1798 C 0.09386 0.32988 0.20369 0.0
C1799 C 0.07951 0.32144 0.21186 0.0
H1800 H 0.67826 0.72868 0.30298 0.0
H1801 H 0.63067 0.70611 0.30277 0.0
H1802 H 0.63141 0.72071 0.27273 0.0
H1803 H 0.68367 0.76416 0.28995 0.0
H1804 H 0.69952 0.76927 0.27381 0.0
H1805 H 0.69539 0.75681 0.29508 0.0
H1806 H 0.69531 0.73771 0.26988 0.0
H1807 H 0.69947 0.75013 0.24855 0.0
H1808 H 0.68356 0.73204 0.24748 0.0
H1809 H 0.63707 0.73705 0.24229 0.0
H1810 H 0.64735 0.75469 0.21366 0.0
H1811 H 0.69139 0.76828 0.23493 0.0
C1812 C 0.66802 0.72677 0.29651 0.0
C1813 C 0.65441 0.71622 0.30519 0.0
C1814 C 0.64123 0.71416 0.29644 0.0
C1815 C 0.64152 0.72238 0.27934 0.0
C1816 C 0.65508 0.73275 0.27126 0.0
C1817 C 0.6681 0.73507 0.27957 0.0
C1818 C 0.68115 0.74718 0.26809 0.0
C1819 C 0.69048 0.76012 0.2826 0.0
C1820 C 0.69041 0.74142 0.25789 0.0
C1821 C 0.67339 0.75115 0.25197 0.0
C1822 C 0.65836 0.74265 0.25406 0.0
C1823 C 0.64884 0.74393 0.24063 0.0
C1824 C 0.65483 0.75414 0.22449 0.0
C1825 C 0.67024 0.76311 0.22199 0.0
C1826 C 0.67958 0.76159 0.23615 0.0
H1827 H 0.27157 0.93365 0.29842 0.0
H1828 H 0.27275 0.97465 0.28894 0.0
H1829 H 0.25836 0.96477 0.25679 0.0
H1830 H 0.27599 0.92699 0.24609 0.0
H1831 H 0.26368 0.90752 0.24748 0.0
H1832 H 0.27329 0.9175 0.27032 0.0
H1833 H 0.24858 0.90745 0.28999 0.0
H1834 H 0.23889 0.89737 0.26722 0.0
H1835 H 0.23435 0.90995 0.27913 0.0
H1836 H 0.24535 0.95093 0.22438 0.0
H1837 H 0.23424 0.93412 0.19482 0.0
H1838 H 0.2406 0.90177 0.22656 0.0
C1839 C 0.26869 0.94052 0.28971 0.0
C1840 C 0.27329 0.95493 0.29617 0.0
C1841 C 0.26931 0.96356 0.2843 0.0
C1842 C 0.26115 0.95805 0.26603 0.0
C1843 C 0.25694 0.94384 0.25997 0.0
C1844 C 0.26048 0.93516 0.27155 0.0
C1845 C 0.25496 0.92041 0.26143 0.0
C1846 C 0.26774 0.91797 0.25601 0.0
C1847 C 0.24351 0.90807 0.27527 0.0
C1848 C 0.24801 0.92224 0.24211 0.0
C1849 C 0.24922 0.9358 0.24157 0.0
C1850 C 0.24415 0.9402 0.2248 0.0
C1851 C 0.23776 0.9305 0.20811 0.0
C1852 C 0.23643 0.91652 0.2083 0.0
C1853 C 0.24153 0.91238 0.22573 0.0
H1854 H 0.66417 0.92831 0.29504 0.0
H1855 H 0.69119 0.97508 0.28501 0.0
H1856 H 0.70149 0.97047 0.25328 0.0
H1857 H 0.69109 0.91912 0.27785 0.0
H1858 H 0.67763 0.90225 0.2659 0.0
H1859 H 0.67262 0.9093 0.28791 0.0
H1860 H 0.65155 0.90862 0.26672 0.0
H1861 H 0.65649 0.90158 0.24466 0.0
H1862 H 0.65563 0.91802 0.24219 0.0
H1863 H 0.708 0.96058 0.2218 0.0
H1864 H 0.71049 0.94634 0.19344 0.0
H1865 H 0.68006 0.90612 0.22535 0.0
C1866 C 0.67226 0.93762 0.28622 0.0
C1867 C 0.67684 0.95207 0.29249 0.0
C1868 C 0.68752 0.96391 0.28053 0.0
C1869 C 0.69343 0.9614 0.26249 0.0
C1870 C 0.68863 0.947 0.25675 0.0
C1871 C 0.67834 0.93532 0.26833 0.0
C1872 C 0.67496 0.9209 0.25882 0.0
C1873 C 0.67934 0.9124 0.2735 0.0
C1874 C 0.65869 0.91175 0.25273 0.0
C1875 C 0.6848 0.92627 0.23989 0.0
C1876 C 0.69261 0.94134 0.23896 0.0
C1877 C 0.70207 0.94876 0.2225 0.0
C1878 C 0.70349 0.94055 0.20653 0.0
C1879 C 0.69555 0.92505 0.20713 0.0
C1880 C 0.6862 0.91791 0.22423 0.0
H1881 H 0.04401 0.72849 0.27878 0.0
H1882 H 0.07662 0.71791 0.29886 0.0
H1883 H 0.09274 0.73233 0.26984 0.0
H1884 H 0.0492 0.72627 0.22418 0.0
H1885 H 0.04665 0.7413 0.21759 0.0
H1886 H 0.03779 0.73042 0.24024 0.0
H1887 H 0.04984 0.75377 0.26298 0.0
H1888 H 0.0588 0.76472 0.2404 0.0
H1889 H 0.0695 0.76554 0.26254 0.0
H1890 H 0.10519 0.74755 0.23865 0.0
H1891 H 0.11303 0.76226 0.20661 0.0
H1892 H 0.07229 0.76281 0.20637 0.0
C1893 C 0.05456 0.72923 0.27709 0.0
C1894 C 0.05908 0.7221 0.2911 0.0
C1895 C 0.07293 0.72329 0.28833 0.0
C1896 C 0.08218 0.73148 0.27192 0.0
C1897 C 0.07742 0.73839 0.25843 0.0
C1898 C 0.06393 0.73735 0.26077 0.0
C1899 C 0.06137 0.74565 0.24383 0.0
C1900 C 0.04796 0.73529 0.23068 0.0
C1901 C 0.05979 0.75816 0.25299 0.0
C1902 C 0.07549 0.75144 0.23155 0.0
C1903 C 0.0846 0.74716 0.2403 0.0
C1904 C 0.09816 0.75096 0.23162 0.0
C1905 C 0.10247 0.75925 0.21338 0.0
C1906 C 0.09325 0.76362 0.20394 0.0
C1907 C 0.07964 0.75976 0.21333 0.0
H1908 H 0.2802 0.32759 0.28472 0.0
H1909 H 0.26843 0.35431 0.32201 0.0
H1910 H 0.25017 0.35117 0.29609 0.0
H1911 H 0.27671 0.34133 0.23496 0.0
H1912 H 0.26917 0.3239 0.22213 0.0
H1913 H 0.28142 0.32814 0.24369 0.0
H1914 H 0.26184 0.30477 0.2626 0.0
H1915 H 0.24949 0.3005 0.24114 0.0
H1916 H 0.24377 0.30204 0.26695 0.0
H1917 H 0.23276 0.34485 0.26688 0.0
H1918 H 0.21795 0.33651 0.23506 0.0
H1919 H 0.24138 0.31468 0.21559 0.0
C1920 C 0.2738 0.3328 0.2874 0.0
C1921 C 0.2758 0.34119 0.30548 0.0
C1922 C 0.2672 0.34785 0.30833 0.0
C1923 C 0.25673 0.34611 0.2937 0.0
C1924 C 0.25498 0.33774 0.27616 0.0
C1925 C 0.26331 0.33127 0.27282 0.0
C1926 C 0.25926 0.32299 0.25242 0.0
C1927 C 0.27242 0.32948 0.23742 0.0
C1928 C 0.25323 0.3066 0.256 0.0
C1929 C 0.24734 0.3258 0.24498 0.0
C1930 C 0.24503 0.3343 0.25898 0.0
C1931 C 0.23453 0.33828 0.25569 0.0
C1932 C 0.22623 0.33355 0.23749 0.0
C1933 C 0.2285 0.325 0.22268 0.0
C1934 C 0.23921 0.32106 0.22664 0.0
H1935 H 0.29607 0.34839 0.4177 0.0
H1936 H 0.26194 0.30698 0.39289 0.0
H1937 H 0.24494 0.30577 0.4203 0.0
H1938 H 0.28673 0.3396 0.47201 0.0
H1939 H 0.29085 0.35779 0.4786 0.0
H1940 H 0.30039 0.35505 0.45745 0.0
H1941 H 0.29223 0.36882 0.43284 0.0
H1942 H 0.28253 0.37147 0.45387 0.0
H1943 H 0.27299 0.36263 0.43034 0.0
H1944 H 0.23149 0.30943 0.44987 0.0
H1945 H 0.22284 0.3173 0.48022 0.0
H1946 H 0.26581 0.35627 0.48554 0.0
C1947 C 0.28507 0.33899 0.41815 0.0
C1948 C 0.28032 0.32777 0.40319 0.0
C1949 C 0.26581 0.3157 0.40422 0.0
C1950 C 0.25607 0.31493 0.4197 0.0
C1951 C 0.26103 0.32631 0.434 0.0
C1952 C 0.2752 0.33807 0.43343 0.0
C1953 C 0.27774 0.34895 0.45044 0.0
C1954 C 0.28963 0.35043 0.46552 0.0
C1955 C 0.2816 0.36385 0.44132 0.0
C1956 C 0.26276 0.34149 0.46063 0.0
C1957 C 0.25327 0.32845 0.45093 0.0
C1958 C 0.23884 0.3196 0.45764 0.0
C1959 C 0.23404 0.32414 0.4749 0.0
C1960 C 0.24364 0.3374 0.48521 0.0
C1961 C 0.25815 0.34619 0.47781 0.0
H1962 H 0.64832 0.93808 0.41212 0.0
H1963 H 0.69197 0.94999 0.39063 0.0
H1964 H 0.69374 0.93512 0.41841 0.0
H1965 H 0.65593 0.93952 0.46613 0.0
H1966 H 0.63828 0.92412 0.47291 0.0
H1967 H 0.64006 0.93511 0.45068 0.0
H1968 H 0.62872 0.91203 0.42741 0.0
H1969 H 0.62693 0.90096 0.44959 0.0
H1970 H 0.63683 0.90066 0.42693 0.0
H1971 H 0.69129 0.91979 0.44902 0.0
H1972 H 0.68484 0.90513 0.48107 0.0
H1973 H 0.64289 0.90319 0.48321 0.0
C1974 C 0.6582 0.93747 0.41318 0.0
C1975 C 0.67 0.94519 0.39917 0.0
C1976 C 0.68279 0.94419 0.40117 0.0
C1977 C 0.6839 0.93574 0.41687 0.0
C1978 C 0.67212 0.92832 0.43047 0.0
C1979 C 0.65952 0.92909 0.42884 0.0
C1980 C 0.64868 0.92041 0.44595 0.0
C1981 C 0.64556 0.93039 0.45974 0.0
C1982 C 0.63445 0.90776 0.43693 0.0
C1983 C 0.65726 0.91481 0.45756 0.0
C1984 C 0.67072 0.91946 0.44828 0.0
C1985 C 0.68077 0.91604 0.45641 0.0
C1986 C 0.67704 0.90778 0.47467 0.0
C1987 C 0.66338 0.90304 0.48464 0.0
C1988 C 0.65332 0.90649 0.47578 0.0
H1989 H 0.06986 0.74432 0.4004 0.0
H1990 H 0.05435 0.69788 0.40414 0.0
H1991 H 0.06955 0.70224 0.43513 0.0
H1992 H 0.10701 0.75701 0.41642 0.0
H1993 H 0.10851 0.77209 0.43133 0.0
H1994 H 0.09656 0.76541 0.40919 0.0
H1995 H 0.07465 0.76142 0.4322 0.0
H1996 H 0.08654 0.76814 0.45438 0.0
H1997 H 0.07019 0.75036 0.45523 0.0
H1998 H 0.08628 0.71153 0.46577 0.0
H1999 H 0.1025 0.72502 0.49505 0.0
H2000 H 0.10729 0.76541 0.4713 0.0
C2001 C 0.06965 0.73506 0.40771 0.0
C2002 C 0.06091 0.72076 0.39978 0.0
C2003 C 0.06093 0.70894 0.4099 0.0
C2004 C 0.06957 0.7113 0.42749 0.0
C2005 C 0.07811 0.72553 0.43481 0.0
C2006 C 0.07817 0.7372 0.42533 0.0
C2007 C 0.08811 0.75136 0.43662 0.0
C2008 C 0.1008 0.7621 0.42255 0.0
C2009 C 0.07935 0.75822 0.44511 0.0
C2010 C 0.09355 0.7458 0.45398 0.0
C2011 C 0.08772 0.73089 0.45257 0.0
C2012 C 0.09098 0.72323 0.46699 0.0
C2013 C 0.1003 0.73101 0.48347 0.0
C2014 C 0.10623 0.74628 0.48543 0.0
C2015 C 0.10288 0.75374 0.47031 0.0
H2016 H 0.35043 0.06941 0.73814 0.0
H2017 H 0.30667 0.03198 0.74679 0.0
H2018 H 0.30368 0.04316 0.77861 0.0
H2019 H 0.36032 0.07516 0.79193 0.0
H2020 H 0.37023 0.0948 0.79012 0.0
H2021 H 0.36894 0.08397 0.76782 0.0
H2022 H 0.35798 0.09672 0.74642 0.0
H2023 H 0.35923 0.10759 0.76867 0.0
H2024 H 0.34187 0.09662 0.75591 0.0
H2025 H 0.30554 0.05799 0.8098 0.0
H2026 H 0.31212 0.07563 0.83841 0.0
H2027 H 0.35435 0.10394 0.8091 0.0
C2028 C 0.34022 0.06358 0.74673 0.0
C2029 C 0.32878 0.04982 0.73998 0.0
C2030 C 0.31558 0.04254 0.75164 0.0
C2031 C 0.31377 0.0488 0.76974 0.0
C2032 C 0.32523 0.06237 0.77596 0.0
C2033 C 0.33819 0.06971 0.76483 0.0
C2034 C 0.34877 0.08416 0.775 0.0
C2035 C 0.3629 0.08454 0.78161 0.0
C2036 C 0.35216 0.09703 0.76064 0.0
C2037 C 0.33977 0.08371 0.79366 0.0
C2038 C 0.32622 0.07105 0.79388 0.0
C2039 C 0.31607 0.06802 0.80972 0.0
C2040 C 0.31988 0.07818 0.82584 0.0
C2041 C 0.33372 0.09127 0.82601 0.0
C2042 C 0.34373 0.09402 0.80958 0.0
H2043 H 0.92961 0.26937 0.73606 0.0
H2044 H 0.97484 0.27967 0.73965 0.0
H2045 H 0.96869 0.26416 0.77087 0.0
H2046 H 0.9239 0.27017 0.7904 0.0
H2047 H 0.90517 0.2553 0.78974 0.0
H2048 H 0.9131 0.26679 0.76733 0.0
H2049 H 0.90646 0.24398 0.74487 0.0
H2050 H 0.89855 0.23242 0.76725 0.0
H2051 H 0.91278 0.23181 0.75254 0.0
H2052 H 0.95752 0.24768 0.80214 0.0
H2053 H 0.94255 0.23269 0.8318 0.0
H2054 H 0.9048 0.23333 0.80727 0.0
C2055 C 0.93824 0.26835 0.74332 0.0
C2056 C 0.95271 0.27573 0.73535 0.0
C2057 C 0.96367 0.27414 0.74546 0.0
C2058 C 0.96028 0.26531 0.76316 0.0
C2059 C 0.94588 0.25816 0.77055 0.0
C2060 C 0.93507 0.25965 0.76098 0.0
C2061 C 0.92056 0.25119 0.77229 0.0
C2062 C 0.91539 0.26148 0.78042 0.0
C2063 C 0.9089 0.23913 0.75841 0.0
C2064 C 0.92491 0.2448 0.78986 0.0
C2065 C 0.93952 0.24883 0.78853 0.0
C2066 C 0.94604 0.2444 0.80327 0.0
C2067 C 0.93744 0.23582 0.81998 0.0
C2068 C 0.92252 0.23186 0.82184 0.0
C2069 C 0.9162 0.23628 0.80637 0.0
H2070 H 0.72258 0.67488 0.72619 0.0
H2071 H 0.70391 0.62804 0.72014 0.0
H2072 H 0.71696 0.62795 0.75162 0.0
H2073 H 0.75818 0.68231 0.74234 0.0
H2074 H 0.76111 0.69665 0.76016 0.0
H2075 H 0.74964 0.69303 0.73779 0.0
H2076 H 0.72828 0.68953 0.76162 0.0
H2077 H 0.73969 0.69314 0.78406 0.0
H2078 H 0.72223 0.67643 0.78246 0.0
H2079 H 0.73154 0.6327 0.7838 0.0
H2080 H 0.74803 0.64215 0.81374 0.0
H2081 H 0.75924 0.68635 0.79752 0.0
C2082 C 0.72116 0.66461 0.73165 0.0
C2083 C 0.71217 0.65145 0.72082 0.0
C2084 C 0.71076 0.63825 0.72819 0.0
C2085 C 0.71808 0.63807 0.74608 0.0
C2086 C 0.72695 0.65122 0.75632 0.0
C2087 C 0.72865 0.66428 0.74932 0.0
C2088 C 0.73943 0.67692 0.76273 0.0
C2089 C 0.75289 0.68787 0.74999 0.0
C2090 C 0.73196 0.68444 0.77335 0.0
C2091 C 0.74344 0.66889 0.77835 0.0
C2092 C 0.73599 0.65407 0.77443 0.0
C2093 C 0.7376 0.64432 0.7869 0.0
C2094 C 0.74715 0.64985 0.8038 0.0
C2095 C 0.75522 0.66507 0.80799 0.0
C2096 C 0.75324 0.67466 0.79498 0.0
H2097 H 0.73212 0.67706 0.62279 0.0
H2098 H 0.68944 0.64884 0.59531 0.0
H2099 H 0.70141 0.64748 0.56312 0.0
H2100 H 0.75067 0.697 0.57599 0.0
H2101 H 0.76762 0.69768 0.58201 0.0
H2102 H 0.75574 0.69702 0.60264 0.0
H2103 H 0.75497 0.67406 0.61765 0.0
H2104 H 0.7668 0.67461 0.59703 0.0
H2105 H 0.74929 0.6583 0.6013 0.0
H2106 H 0.71776 0.64906 0.53413 0.0
H2107 H 0.73755 0.6532 0.50997 0.0
H2108 H 0.76985 0.67919 0.55677 0.0
C2109 C 0.72533 0.67074 0.6099 0.0
C2110 C 0.70986 0.66312 0.61147 0.0
C2111 C 0.70131 0.65477 0.59441 0.0
C2112 C 0.708 0.65393 0.57607 0.0
C2113 C 0.72325 0.66141 0.57509 0.0
C2114 C 0.73183 0.66963 0.59152 0.0
C2115 C 0.748 0.67618 0.58657 0.0
C2116 C 0.75597 0.69297 0.58681 0.0
C2117 C 0.75519 0.67044 0.60153 0.0
C2118 C 0.74712 0.67038 0.56478 0.0
C2119 C 0.73273 0.66195 0.55848 0.0
C2120 C 0.72908 0.65554 0.53893 0.0
C2121 C 0.74044 0.65785 0.52538 0.0
C2122 C 0.75533 0.66638 0.53146 0.0
C2123 C 0.75863 0.67269 0.55152 0.0
H2124 H 0.32499 0.07011 0.63088 0.0
H2125 H 0.3535 0.05218 0.62196 0.0
H2126 H 0.3639 0.06726 0.59062 0.0
H2127 H 0.31737 0.07156 0.57711 0.0
H2128 H 0.31757 0.08857 0.57931 0.0
H2129 H 0.31241 0.07651 0.6013 0.0
H2130 H 0.33254 0.09746 0.62335 0.0
H2131 H 0.33775 0.10959 0.60143 0.0
H2132 H 0.35127 0.10685 0.61421 0.0
H2133 H 0.37082 0.08369 0.55988 0.0
H2134 H 0.37405 0.1007 0.5318 0.0
H2135 H 0.34169 0.10875 0.56097 0.0
C2136 C 0.33344 0.06936 0.62237 0.0
C2137 C 0.33841 0.05992 0.62894 0.0
C2138 C 0.3495 0.05931 0.61731 0.0
C2139 C 0.35549 0.06784 0.59946 0.0
C2140 C 0.35033 0.07698 0.59342 0.0
C2141 C 0.33959 0.07785 0.60452 0.0
C2142 C 0.33599 0.08856 0.59456 0.0
C2143 C 0.31988 0.08084 0.58766 0.0
C2144 C 0.33961 0.10138 0.60927 0.0
C2145 C 0.34633 0.0935 0.57608 0.0
C2146 C 0.35449 0.08667 0.57576 0.0
C2147 C 0.3646 0.08923 0.56007 0.0
C2148 C 0.36644 0.09902 0.54425 0.0
C2149 C 0.35827 0.10626 0.54422 0.0
C2150 C 0.34808 0.10339 0.56044 0.0
H2151 H 0.94541 0.29241 0.61407 0.0
H2152 H 0.95552 0.25983 0.63549 0.0
H2153 H 0.94063 0.24334 0.60726 0.0
H2154 H 0.90807 0.26734 0.59923 0.0
H2155 H 0.9088 0.27756 0.57655 0.0
H2156 H 0.92021 0.28687 0.59855 0.0
H2157 H 0.94331 0.29788 0.57497 0.0
H2158 H 0.93197 0.28866 0.5529 0.0
H2159 H 0.9469 0.28588 0.55945 0.0
H2160 H 0.92456 0.23028 0.5769 0.0
H2161 H 0.90884 0.2218 0.54584 0.0
H2162 H 0.90969 0.26307 0.54355 0.0
C2163 C 0.94448 0.28181 0.61282 0.0
C2164 C 0.95161 0.27741 0.62702 0.0
C2165 C 0.95017 0.26346 0.6248 0.0
C2166 C 0.94171 0.25399 0.60883 0.0
C2167 C 0.9348 0.25863 0.59514 0.0
C2168 C 0.93612 0.27223 0.59689 0.0
C2169 C 0.9277 0.27459 0.57992 0.0
C2170 C 0.91547 0.27671 0.58912 0.0
C2171 C 0.93809 0.28752 0.56599 0.0
C2172 C 0.92143 0.2602 0.56842 0.0
C2173 C 0.92563 0.25114 0.57748 0.0
C2174 C 0.92124 0.2373 0.5696 0.0
C2175 C 0.91237 0.23261 0.55189 0.0
C2176 C 0.90802 0.24175 0.5422 0.0
C2177 C 0.91263 0.25571 0.55072 0.0
H2178 H 0.3387 0.28662 0.61182 0.0
H2179 H 0.31292 0.24609 0.64591 0.0
H2180 H 0.31507 0.23237 0.6167 0.0
H2181 H 0.32317 0.27176 0.56152 0.0
H2182 H 0.34021 0.2825 0.5477 0.0
H2183 H 0.33683 0.28936 0.5714 0.0
H2184 H 0.36082 0.29256 0.58689 0.0
H2185 H 0.36426 0.28568 0.56325 0.0
H2186 H 0.36354 0.27714 0.58768 0.0
H2187 H 0.32034 0.22293 0.58453 0.0
H2188 H 0.32776 0.21824 0.55046 0.0
H2189 H 0.34917 0.26454 0.53606 0.0
C2190 C 0.33352 0.27487 0.61313 0.0
C2191 C 0.32565 0.26747 0.63122 0.0
C2192 C 0.31897 0.25205 0.63224 0.0
C2193 C 0.32015 0.24412 0.61573 0.0
C2194 C 0.32797 0.25172 0.59819 0.0
C2195 C 0.33448 0.26672 0.59666 0.0
C2196 C 0.34208 0.27208 0.57583 0.0
C2197 C 0.33515 0.27935 0.56338 0.0
C2198 C 0.35866 0.28248 0.57858 0.0
C2199 C 0.33886 0.25775 0.56603 0.0
C2200 C 0.33074 0.24617 0.57926 0.0
C2201 C 0.32658 0.23189 0.57391 0.0
C2202 C 0.33076 0.22932 0.55442 0.0
C2203 C 0.33894 0.24097 0.54038 0.0
C2204 C 0.34303 0.25539 0.54641 0.0
H2205 H 0.70752 0.0587 0.60918 0.0
H2206 H 0.73961 0.04873 0.63352 0.0
H2207 H 0.75741 0.06459 0.60694 0.0
H2208 H 0.71716 0.05936 0.555 0.0
H2209 H 0.71428 0.07422 0.54866 0.0
H2210 H 0.704 0.06191 0.56948 0.0
H2211 H 0.71317 0.0839 0.59462 0.0
H2212 H 0.72358 0.09626 0.57393 0.0
H2213 H 0.7326 0.09626 0.59755 0.0
H2214 H 0.77195 0.08202 0.57846 0.0
H2215 H 0.78187 0.09888 0.54868 0.0
H2216 H 0.74015 0.09706 0.54228 0.0
C2217 C 0.71826 0.05978 0.60884 0.0
C2218 C 0.72218 0.05249 0.62344 0.0
C2219 C 0.73635 0.0542 0.62248 0.0
C2220 C 0.74656 0.06322 0.60748 0.0
C2221 C 0.74241 0.0704 0.5935 0.0
C2222 C 0.72858 0.06871 0.59392 0.0
C2223 C 0.72691 0.07763 0.57703 0.0
C2224 C 0.71488 0.06769 0.56163 0.0
C2225 C 0.72389 0.0892 0.58635 0.0
C2226 C 0.74199 0.08463 0.56712 0.0
C2227 C 0.75077 0.08034 0.5769 0.0
C2228 C 0.76516 0.08538 0.57057 0.0
C2229 C 0.77067 0.09491 0.5536 0.0
C2230 C 0.76179 0.09926 0.54307 0.0
C2231 C 0.74729 0.0941 0.55012 0.0
H2232 H 0.94727 0.66179 0.61769 0.0
H2233 H 0.92639 0.67834 0.65877 0.0
H2234 H 0.90704 0.67207 0.63292 0.0
H2235 H 0.94174 0.67634 0.57206 0.0
H2236 H 0.93836 0.66123 0.55554 0.0
H2237 H 0.94959 0.66522 0.57822 0.0
H2238 H 0.93268 0.63877 0.59141 0.0
H2239 H 0.92136 0.63471 0.56874 0.0
H2240 H 0.91327 0.6318 0.59424 0.0
H2241 H 0.891 0.66574 0.60225 0.0
H2242 H 0.87981 0.66086 0.56756 0.0
H2243 H 0.91138 0.64929 0.54522 0.0
C2244 C 0.93844 0.66379 0.62135 0.0
C2245 C 0.93826 0.67046 0.64027 0.0
C2246 C 0.92674 0.67326 0.64435 0.0
C2247 C 0.91565 0.66965 0.62983 0.0
C2248 C 0.91624 0.66332 0.6112 0.0
C2249 C 0.92735 0.66046 0.60681 0.0
C2250 C 0.92604 0.65479 0.58482 0.0
C2251 C 0.93974 0.66501 0.57191 0.0
C2252 C 0.92316 0.63908 0.58481 0.0
C2253 C 0.91269 0.65525 0.57747 0.0
C2254 C 0.9071 0.65999 0.59309 0.0
C2255 C 0.8952 0.66194 0.58991 0.0
C2256 C 0.88899 0.65922 0.57012 0.0
C2257 C 0.89474 0.65474 0.55367 0.0
C2258 C 0.9066 0.65249 0.55756 0.0
H2259 H 0.93994 0.6572 0.7506 0.0
H2260 H 0.96953 0.70246 0.73336 0.0
H2261 H 0.95838 0.71046 0.7599 0.0
H2262 H 0.90816 0.6605 0.76268 0.0
H2263 H 0.90273 0.64863 0.78495 0.0
H2264 H 0.91241 0.6461 0.76376 0.0
H2265 H 0.93234 0.64835 0.78915 0.0
H2266 H 0.92267 0.65079 0.81041 0.0
H2267 H 0.94162 0.66424 0.80555 0.0
H2268 H 0.94409 0.7138 0.78743 0.0
H2269 H 0.92897 0.71254 0.81729 0.0
H2270 H 0.9097 0.66539 0.81939 0.0
C2271 C 0.94398 0.66877 0.7524 0.0
C2272 C 0.95552 0.67919 0.73979 0.0
C2273 C 0.96069 0.69426 0.74278 0.0
C2274 C 0.95439 0.69893 0.75776 0.0
C2275 C 0.94303 0.68844 0.76988 0.0
C2276 C 0.93797 0.6737 0.76765 0.0
C2277 C 0.92617 0.66487 0.78365 0.0
C2278 C 0.9115 0.65441 0.77312 0.0
C2279 C 0.93099 0.65658 0.79804 0.0
C2280 C 0.92548 0.677 0.79514 0.0
C2281 C 0.93518 0.69046 0.78669 0.0
C2282 C 0.93655 0.70334 0.79438 0.0
C2283 C 0.92798 0.7025 0.81148 0.0
C2284 C 0.91829 0.6889 0.821 0.0
C2285 C 0.91692 0.67596 0.81246 0.0
H2286 H 0.31989 0.2767 0.74828 0.0
H2287 H 0.36151 0.28555 0.72208 0.0
H2288 H 0.36406 0.27131 0.75021 0.0
H2289 H 0.33008 0.27878 0.80227 0.0
H2290 H 0.31226 0.26412 0.81015 0.0
H2291 H 0.31395 0.27538 0.78827 0.0
H2292 H 0.3004 0.25226 0.76524 0.0
H2293 H 0.29875 0.24094 0.787 0.0
H2294 H 0.30735 0.23993 0.76334 0.0
H2295 H 0.36185 0.25572 0.78068 0.0
H2296 H 0.35512 0.23997 0.81167 0.0
H2297 H 0.31499 0.24136 0.81804 0.0
C2298 C 0.32959 0.27574 0.74854 0.0
C2299 C 0.34052 0.28225 0.73302 0.0
C2300 C 0.35301 0.28066 0.73382 0.0
C2301 C 0.35456 0.27259 0.74973 0.0
C2302 C 0.34352 0.2662 0.76468 0.0
C2303 C 0.3313 0.2677 0.76426 0.0
C2304 C 0.32092 0.25952 0.78201 0.0
C2305 C 0.31921 0.27008 0.79653 0.0
C2306 C 0.30598 0.24745 0.77391 0.0
C2307 C 0.3292 0.25314 0.79241 0.0
C2308 C 0.34222 0.25715 0.7822 0.0
C2309 C 0.35172 0.25256 0.78887 0.0
C2310 C 0.34783 0.24367 0.80653 0.0
C2311 C 0.33455 0.23946 0.81729 0.0
C2312 C 0.32514 0.24427 0.81003 0.0
H2313 H 0.71169 0.05307 0.74857 0.0
H2314 H 0.74729 0.07149 0.70384 0.0
H2315 H 0.76509 0.08387 0.73215 0.0
H2316 H 0.72483 0.08485 0.77771 0.0
H2317 H 0.71901 0.07603 0.80262 0.0
H2318 H 0.70933 0.06653 0.77956 0.0
H2319 H 0.71366 0.04522 0.7882 0.0
H2320 H 0.72327 0.05462 0.81141 0.0
H2321 H 0.73206 0.04897 0.79257 0.0
H2322 H 0.7787 0.09572 0.76464 0.0
H2323 H 0.7871 0.10749 0.7989 0.0
H2324 H 0.74251 0.08272 0.82236 0.0
C2325 C 0.72329 0.05934 0.74494 0.0
C2326 C 0.72827 0.06113 0.72423 0.0
C2327 C 0.7434 0.06987 0.71974 0.0
C2328 C 0.75356 0.07689 0.73569 0.0
C2329 C 0.74833 0.07521 0.75597 0.0
C2330 C 0.73355 0.0667 0.76067 0.0
C2331 C 0.73066 0.06808 0.78338 0.0
C2332 C 0.72035 0.07424 0.78595 0.0
C2333 C 0.72455 0.05334 0.79455 0.0
C2334 C 0.74605 0.07892 0.79056 0.0
C2335 C 0.75611 0.08265 0.77461 0.0
C2336 C 0.77095 0.09279 0.77731 0.0
C2337 C 0.77563 0.0994 0.7968 0.0
C2338 C 0.76545 0.096 0.81321 0.0
C2339 C 0.7505 0.08554 0.81004 0.0
H2340 H 0.01983 0.333 0.04847 0.0
H2341 H 0.04686 0.36524 0.00223 0.0
H2342 H 0.06717 0.36078 0.00984 0.0
H2343 H 0.0477 0.34303 0.08511 0.0
H2344 H 0.04121 0.32468 0.09404 0.0
H2345 H 0.02849 0.32943 0.08344 0.0
H2346 H 0.01996 0.30853 0.05647 0.0
H2347 H 0.03265 0.3037 0.06703 0.0
H2348 H 0.03332 0.30781 0.0398 0.0
H2349 H 0.08506 0.35362 0.0243 0.0
H2350 H 0.0988 0.34466 0.04431 0.0
H2351 H 0.05996 0.31802 0.08176 0.0
C2352 C 0.02992 0.33896 0.03965 0.0
C2353 C 0.03172 0.3494 0.02463 0.0
C2354 C 0.0452 0.35713 0.01372 0.0
C2355 C 0.05679 0.35465 0.01793 0.0
C2356 C 0.05471 0.34444 0.03311 0.0
C2357 C 0.04158 0.33671 0.04376 0.0
C2358 C 0.04233 0.32699 0.06019 0.0
C2359 C 0.03979 0.3313 0.08198 0.0
C2360 C 0.03142 0.3108 0.05559 0.0
C2361 C 0.058 0.33056 0.05735 0.0
C2362 C 0.06497 0.34054 0.04157 0.0
C2363 C 0.07966 0.34574 0.03662 0.0
C2364 C 0.08741 0.34066 0.04817 0.0
C2365 C 0.08048 0.33053 0.06458 0.0
C2366 C 0.06555 0.32545 0.06903 0.0
H2367 H 0.62806 0.68194 0.06182 0.0
H2368 H 0.66231 0.69147 0.01666 0.0
H2369 H 0.67587 0.71718 0.02834 0.0
H2370 H 0.62921 0.71651 0.05985 0.0
H2371 H 0.62684 0.71737 0.08742 0.0
H2372 H 0.61927 0.6999 0.07468 0.0
H2373 H 0.63341 0.69245 0.09973 0.0
H2374 H 0.64091 0.70983 0.11265 0.0
H2375 H 0.653 0.70407 0.10219 0.0
H2376 H 0.68517 0.74195 0.04394 0.0
H2377 H 0.69149 0.76345 0.06553 0.0
H2378 H 0.6528 0.73708 0.10364 0.0
C2379 C 0.63837 0.6895 0.05436 0.0
C2380 C 0.64412 0.68484 0.03823 0.0
C2381 C 0.65776 0.69489 0.02905 0.0
C2382 C 0.66548 0.70951 0.03549 0.0
C2383 C 0.65954 0.71381 0.05141 0.0
C2384 C 0.64645 0.70407 0.06102 0.0
C2385 C 0.64309 0.71131 0.07879 0.0
C2386 C 0.62875 0.71127 0.07495 0.0
C2387 C 0.64258 0.70398 0.09957 0.0
C2388 C 0.65628 0.72663 0.07754 0.0
C2389 C 0.66548 0.72789 0.06141 0.0
C2390 C 0.67817 0.74105 0.05685 0.0
C2391 C 0.68173 0.75321 0.06938 0.0
C2392 C 0.67283 0.75209 0.08665 0.0
C2393 C 0.65984 0.73855 0.09052 0.0
H2394 H 0.3152 0.96723 0.03589 0.0
H2395 H 0.31179 0.93702 0.98772 0.0
H2396 H 0.28681 0.91921 -0.00026 0.0
H2397 H 0.29868 0.94124 0.07455 0.0
H2398 H 0.28914 0.94931 0.08685 0.0
H2399 H 0.30578 0.96062 0.07257 0.0
H2400 H 0.29222 0.97 0.04971 0.0
H2401 H 0.27549 0.95868 0.06397 0.0
H2402 H 0.27584 0.95707 0.03616 0.0
H2403 H 0.2636 0.90368 0.01906 0.0
H2404 H 0.24397 0.89116 0.04522 0.0
H2405 H 0.26233 0.9311 0.08129 0.0
C2406 C 0.30904 0.95702 0.02755 0.0
C2407 C 0.3154 0.95355 0.01078 0.0
C2408 C 0.30713 0.93992 0.00059 0.0
C2409 C 0.2929 0.92977 0.00722 0.0
C2410 C 0.28705 0.93338 0.02406 0.0
C2411 C 0.29483 0.94668 0.0341 0.0
C2412 C 0.28659 0.94723 0.05307 0.0
C2413 C 0.29558 0.94974 0.07292 0.0
C2414 C 0.28228 0.95894 0.05057 0.0
C2415 C 0.27322 0.932 0.0525 0.0
C2416 C 0.2736 0.92429 0.03543 0.0
C2417 C 0.26305 0.90966 0.03232 0.0
C2418 C 0.25199 0.90263 0.04728 0.0
C2419 C 0.2516 0.9102 0.06516 0.0
C2420 C 0.26217 0.92516 0.06752 0.0
H2421 H 0.33722 0.02586 0.97797 0.0
H2422 H 0.36661 0.0474 0.02955 0.0
H2423 H 0.36477 0.06941 0.02361 0.0
H2424 H 0.35245 0.05534 0.94542 0.0
H2425 H 0.33551 0.05169 0.93363 0.0
H2426 H 0.33706 0.03693 0.94425 0.0
H2427 H 0.31437 0.02959 0.96771 0.0
H2428 H 0.31273 0.04436 0.95708 0.0
H2429 H 0.31417 0.04299 0.98472 0.0
H2430 H 0.36223 0.09007 0.00906 0.0
H2431 H 0.35945 0.10752 0.98707 0.0
H2432 H 0.33231 0.07234 0.94465 0.0
C2433 C 0.34295 0.03504 0.98842 0.0
C2434 C 0.35198 0.03488 0.00432 0.0
C2435 C 0.35954 0.04724 0.01737 0.0
C2436 C 0.35853 0.05978 0.01413 0.0
C2437 C 0.34985 0.05971 -0.00211 0.0
C2438 C 0.34212 0.04761 0.98534 0.0
C2439 C 0.33481 0.05074 0.96764 0.0
C2440 C 0.34029 0.04855 0.9465 0.0
C2441 C 0.31802 0.04136 0.9694 0.0
C2442 C 0.34007 0.06667 0.97169 0.0
C2443 C 0.34853 0.07162 0.98939 0.0
C2444 C 0.35545 0.08625 0.99535 0.0
C2445 C 0.35389 0.0961 0.98269 0.0
C2446 C 0.34559 0.0913 0.96419 0.0
C2447 C 0.33839 0.07632 0.95896 0.0
H2448 H 0.96659 0.3154 0.98412 0.0
H2449 H 0.93169 0.31695 0.01772 0.0
H2450 H 0.91396 0.29223 0.00527 0.0
H2451 H 0.94512 0.297 0.93942 0.0
H2452 H 0.95359 0.28615 0.93523 0.0
H2453 H 0.96375 0.30375 0.94754 0.0
H2454 H 0.96872 0.2918 0.979 0.0
H2455 H 0.9585 0.27414 0.96681 0.0
H2456 H 0.9535 0.27694 0.99246 0.0
H2457 H 0.89991 0.26751 0.98913 0.0
H2458 H 0.8902 0.2448 0.96871 0.0
H2459 H 0.9339 0.25959 0.94439 0.0
C2460 C 0.95524 0.31051 0.98895 0.0
C2461 C 0.95056 0.31812 0.00195 0.0
C2462 C 0.93556 0.31137 0.00773 0.0
C2463 C 0.92539 0.2973 0.00082 0.0
C2464 C 0.93035 0.2901 0.98804 0.0
C2465 C 0.94488 0.29648 0.98202 0.0
C2466 C 0.94716 0.28656 0.96748 0.0
C2467 C 0.95273 0.2938 0.94615 0.0
C2468 C 0.95759 0.28209 0.97701 0.0
C2469 C 0.93163 0.27367 0.96622 0.0
C2470 C 0.92214 0.2759 0.97834 0.0
C2471 C 0.90722 0.26563 0.97952 0.0
C2472 C 0.9018 0.25281 0.96778 0.0
C2473 C 0.91125 0.25039 0.95488 0.0
C2474 C 0.9264 0.26096 0.95432 0.0
H2475 H 0.68446 0.63608 0.99093 0.0
H2476 H 0.69166 0.67958 0.00167 0.0
H2477 H 0.71713 0.69031 0.98938 0.0
H2478 H 0.7227 0.64479 0.00401 0.0
H2479 H 0.7228 0.6332 0.98359 0.0
H2480 H 0.70583 0.62873 0.99641 0.0
H2481 H 0.6943 0.62821 0.96087 0.0
H2482 H 0.71122 0.63277 0.94798 0.0
H2483 H 0.70319 0.64404 0.94427 0.0
H2484 H 0.74018 0.69646 0.97173 0.0
H2485 H 0.75975 0.69785 0.9497 0.0
H2486 H 0.7387 0.65047 0.95083 0.0
C2487 C 0.69157 0.64783 0.99125 0.0
C2488 C 0.68614 0.65701 0.99737 0.0
C2489 C 0.69561 0.67236 0.99707 0.0
C2490 C 0.71012 0.67856 0.99021 0.0
C2491 C 0.71504 0.66928 0.98373 0.0
C2492 C 0.70613 0.65425 0.98425 0.0
C2493 C 0.7138 0.64688 0.97445 0.0
C2494 C 0.71644 0.63787 0.99058 0.0
C2495 C 0.70511 0.63742 0.95579 0.0
C2496 C 0.72812 0.66014 0.96763 0.0
C2497 C 0.72864 0.67291 0.97346 0.0
C2498 C 0.74012 0.68655 0.96754 0.0
C2499 C 0.7513 0.68721 0.95508 0.0
C2500 C 0.75105 0.67429 0.94864 0.0
C2501 C 0.73935 0.66059 0.95541 0.0
H2502 H 0.93568 0.62961 -0.0018 0.0
H2503 H 0.97768 0.66999 0.00163 0.0
H2504 H 0.96621 0.68364 0.98878 0.0
H2505 H 0.92482 0.63762 0.95104 0.0
H2506 H 0.90567 0.6293 0.95776 0.0
H2507 H 0.9167 0.62281 0.96944 0.0
H2508 H 0.90944 0.62731 0.00599 0.0
H2509 H 0.89836 0.63381 0.9944 0.0
H2510 H 0.91253 0.64516 0.01256 0.0
H2511 H 0.95092 0.69267 0.97329 0.0
H2512 H 0.93299 0.69654 0.95474 0.0
H2513 H 0.90054 0.65042 0.9611 0.0
C2514 C 0.94239 0.64136 0.99662 0.0
C2515 C 0.95757 0.64875 0.00104 0.0
C2516 C 0.96604 0.66409 -0.00166 0.0
C2517 C 0.95961 0.67196 0.99115 0.0
C2518 C 0.94469 0.66433 0.98666 0.0
C2519 C 0.93616 0.64939 0.98923 0.0
C2520 C 0.92063 0.64376 0.98175 0.0
C2521 C 0.91673 0.63272 0.96394 0.0
C2522 C 0.90959 0.63712 -0.00025 0.0
C2523 C 0.92188 0.65785 0.97418 0.0
C2524 C 0.93581 0.66958 0.97745 0.0
C2525 C 0.9399 0.68361 0.97094 0.0
C2526 C 0.92955 0.68571 0.96053 0.0
C2527 C 0.91522 0.67384 0.95665 0.0
C2528 C 0.91135 0.65975 0.96384 0.0
H2529 H 0.36364 0.31677 0.97622 0.0
H2530 H 0.32274 0.30585 0.00693 0.0
H2531 H 0.31297 0.27975 -0.00082 0.0
H2532 H 0.34713 0.29254 0.93465 0.0
H2533 H 0.36109 0.28769 0.93206 0.0
H2534 H 0.36568 0.3052 0.94256 0.0
H2535 H 0.3759 0.29973 0.97559 0.0
H2536 H 0.37127 0.28213 0.96518 0.0
H2537 H 0.36435 0.28336 0.99025 0.0
H2538 H 0.30704 0.25519 0.98642 0.0
H2539 H 0.30453 0.23402 0.96696 0.0
H2540 H 0.3486 0.26104 0.94235 0.0
C2541 C 0.35276 0.30881 0.98168 0.0
C2542 C 0.34398 0.31324 0.99237 0.0
C2543 C 0.32964 0.30263 -0.00122 0.0
C2544 C 0.32403 0.28779 0.99457 0.0
C2545 C 0.33286 0.28376 0.98375 0.0
C2546 C 0.34687 0.29395 0.97722 0.0
C2547 C 0.35344 0.28688 0.96397 0.0
C2548 C 0.35704 0.29347 0.94201 0.0
C2549 C 0.36705 0.2881 0.97438 0.0
C2550 C 0.34083 0.2712 0.96376 0.0
C2551 C 0.32919 0.2696 0.97559 0.0
C2552 C 0.3161 0.25628 0.97715 0.0
C2553 C 0.31475 0.24435 0.96592 0.0
C2554 C 0.32633 0.24584 0.95303 0.0
C2555 C 0.33963 0.25942 0.95233 0.0
H2556 H 0.67537 0.05412 0.98411 0.0
H2557 H 0.68639 0.02307 0.00916 0.0
H2558 H 0.7121 0.03894 -0.00208 0.0
H2559 H 0.69699 0.06196 0.93882 0.0
H2560 H 0.70237 0.08099 0.93792 0.0
H2561 H 0.68524 0.06797 0.94985 0.0
H2562 H 0.69304 0.08317 0.98379 0.0
H2563 H 0.71024 0.09623 0.97195 0.0
H2564 H 0.71007 0.08752 0.99597 0.0
H2565 H 0.73642 0.05774 0.98277 0.0
H2566 H 0.75708 0.0772 0.96289 0.0
H2567 H 0.72966 0.09504 0.94583 0.0
C2568 C 0.68325 0.0508 0.98754 0.0
C2569 C 0.67893 0.03744 0.99766 0.0
C2570 C 0.68948 0.03328 0.00145 0.0
C2571 C 0.70413 0.04226 0.99522 0.0
C2572 C 0.70802 0.05529 0.98508 0.0
C2573 C 0.69787 0.05951 0.98113 0.0
C2574 C 0.70462 0.07346 0.96854 0.0
C2575 C 0.69684 0.07094 0.94754 0.0
C2576 C 0.70448 0.08583 0.9808 0.0
C2577 C 0.72008 0.07632 0.96582 0.0
C2578 C 0.72189 0.06584 0.97572 0.0
C2579 C 0.73514 0.06602 0.97496 0.0
C2580 C 0.74679 0.07707 0.9635 0.0
C2581 C 0.74507 0.08771 0.95271 0.0
C2582 C 0.73152 0.08733 0.95418 0.0
H2583 H 0.64035 0.94542 0.03163 0.0
H2584 H 0.67921 0.9884 0.03733 0.0
H2585 H 0.69319 0.97725 0.04994 0.0
H2586 H 0.64586 0.93143 0.07802 0.0
H2587 H 0.63928 0.9132 0.06842 0.0
H2588 H 0.63258 0.92423 0.05741 0.0
H2589 H 0.64064 0.92078 0.02083 0.0
H2590 H 0.64736 0.9097 0.03175 0.0
H2591 H 0.6594 0.92554 0.01644 0.0
H2592 H 0.70253 0.96211 0.06421 0.0
H2593 H 0.70664 0.94384 0.08101 0.0
H2594 H 0.66192 0.91011 0.06675 0.0
C2595 C 0.65187 0.9524 0.03516 0.0
C2596 C 0.65874 0.96776 0.03339 0.0
C2597 C 0.67374 0.97661 0.03859 0.0
C2598 C 0.6818 0.97038 0.04566 0.0
C2599 C 0.6747 0.95526 0.04756 0.0
C2600 C 0.66008 0.94634 0.04257 0.0
C2601 C 0.65492 0.93051 0.04773 0.0
C2602 C 0.64243 0.92449 0.06385 0.0
C2603 C 0.65031 0.92107 0.02801 0.0
C2604 C 0.66885 0.93204 0.05679 0.0
C2605 C 0.68014 0.9464 0.05621 0.0
C2606 C 0.69387 0.95077 0.06446 0.0
C2607 C 0.69611 0.94023 0.07385 0.0
C2608 C 0.68469 0.92541 0.07499 0.0
C2609 C 0.67091 0.9213 0.0661 0.0
H2610 H 0.02354 0.69042 0.04542 0.0
H2611 H 0.04994 0.6863 0.99711 0.0
H2612 H 0.07059 0.71095 0.00596 0.0
H2613 H 0.03719 0.72922 0.03911 0.0
H2614 H 0.03668 0.73212 0.06659 0.0
H2615 H 0.02387 0.7147 0.05535 0.0
H2616 H 0.03244 0.70181 0.08097 0.0
H2617 H 0.04524 0.71917 0.09228 0.0
H2618 H 0.05163 0.70753 0.0822 0.0
H2619 H 0.08882 0.73581 0.02184 0.0
H2620 H 0.10271 0.7582 0.04304 0.0
H2621 H 0.06395 0.74499 0.08098 0.0
C2622 C 0.03359 0.69472 0.03648 0.0
C2623 C 0.03511 0.68645 0.02051 0.0
C2624 C 0.04851 0.69248 0.00935 0.0
C2625 C 0.06029 0.70646 0.01427 0.0
C2626 C 0.05843 0.71425 0.03032 0.0
C2627 C 0.04537 0.70855 0.04119 0.0
C2628 C 0.04622 0.71869 0.05833 0.0
C2629 C 0.03534 0.724 0.05461 0.0
C2630 C 0.04374 0.71136 0.0797 0.0
C2631 C 0.06189 0.73096 0.05566 0.0
C2632 C 0.06878 0.72831 0.03938 0.0
C2633 C 0.08348 0.73801 0.03453 0.0
C2634 C 0.0913 0.75066 0.04673 0.0
C2635 C 0.08441 0.75347 0.0636 0.0
C2636 C 0.06948 0.74344 0.06791 0.0
H2637 H 0.30889 0.36895 0.03935 0.0
H2638 H 0.31643 0.33245 0.04286 0.0
H2639 H 0.29249 0.31768 0.06024 0.0
H2640 H 0.29139 0.36346 0.0888 0.0
H2641 H 0.27837 0.36845 0.08008 0.0
H2642 H 0.29601 0.3761 0.06759 0.0
H2643 H 0.28328 0.36657 0.03208 0.0
H2644 H 0.26558 0.35884 0.04449 0.0
H2645 H 0.27 0.34742 0.029 0.0
H2646 H 0.26813 0.3071 0.07812 0.0
H2647 H 0.24518 0.30156 0.0958 0.0
H2648 H 0.25295 0.34455 0.07935 0.0
C2649 C 0.30553 0.35785 0.04378 0.0
C2650 C 0.31458 0.35188 0.03975 0.0
C2651 C 0.30971 0.33729 0.04576 0.0
C2652 C 0.29611 0.32879 0.05562 0.0
C2653 C 0.28746 0.33499 0.05926 0.0
C2654 C 0.29195 0.34918 0.05353 0.0
C2655 C 0.28062 0.35326 0.05945 0.0
C2656 C 0.28698 0.36607 0.0749 0.0
C2657 C 0.27451 0.35672 0.0401 0.0
C2658 C 0.26913 0.3392 0.06962 0.0
C2659 C 0.27328 0.32879 0.06928 0.0
C2660 C 0.26468 0.3151 0.07829 0.0
C2661 C 0.25158 0.31201 0.08815 0.0
C2662 C 0.24713 0.32256 0.08888 0.0
C2663 C 0.25602 0.33626 0.07921 0.0
H2664 H 0.71817 0.70325 0.36713 0.0
H2665 H 0.6828 0.65822 0.37264 0.0
H2666 H 0.70049 0.65086 0.38274 0.0
H2667 H 0.74671 0.69497 0.34816 0.0
H2668 H 0.76099 0.70963 0.36304 0.0
H2669 H 0.74591 0.71123 0.35341 0.0
H2670 H 0.74029 0.71619 0.39074 0.0
H2671 H 0.7553 0.71457 0.40046 0.0
H2672 H 0.73712 0.70322 0.41098 0.0
H2673 H 0.72104 0.64867 0.39629 0.0
H2674 H 0.74324 0.65178 0.41281 0.0
H2675 H 0.76614 0.69803 0.39749 0.0
C2676 C 0.71424 0.69181 0.36998 0.0
C2677 C 0.69911 0.6813 0.36902 0.0
C2678 C 0.69433 0.66647 0.37328 0.0
C2679 C 0.7043 0.66215 0.37893 0.0
C2680 C 0.71908 0.67277 0.3802 0.0
C2681 C 0.7241 0.68729 0.37577 0.0
C2682 C 0.7404 0.69661 0.38007 0.0
C2683 C 0.74901 0.70352 0.35997 0.0
C2684 C 0.74345 0.70833 0.39654 0.0
C2685 C 0.74357 0.68513 0.38829 0.0
C2686 C 0.73114 0.67144 0.38794 0.0
C2687 C 0.73097 0.65927 0.3962 0.0
C2688 C 0.74376 0.66116 0.40544 0.0
C2689 C 0.75666 0.67514 0.40637 0.0
C2690 C 0.75655 0.68719 0.39717 0.0
H2691 H 0.29942 0.02038 0.39687 0.0
H2692 H 0.3332 0.02604 0.35305 0.0
H2693 H 0.34789 0.05214 0.36258 0.0
H2694 H 0.30234 0.05526 0.38964 0.0
H2695 H 0.29982 0.05773 0.41671 0.0
H2696 H 0.29171 0.03959 0.40603 0.0
H2697 H 0.3049 0.03272 0.43361 0.0
H2698 H 0.31293 0.0508 0.44449 0.0
H2699 H 0.32452 0.04382 0.43626 0.0
H2700 H 0.35841 0.07782 0.37591 0.0
H2701 H 0.36538 0.10061 0.39478 0.0
H2702 H 0.32575 0.07761 0.43222 0.0
C2703 C 0.3099 0.02713 0.38926 0.0
C2704 C 0.31514 0.02123 0.37412 0.0
C2705 C 0.32899 0.03034 0.36471 0.0
C2706 C 0.33738 0.04519 0.36994 0.0
C2707 C 0.33184 0.05069 0.38482 0.0
C2708 C 0.31854 0.0419 0.39459 0.0
C2709 C 0.31544 0.05037 0.41078 0.0
C2710 C 0.3015 0.05076 0.40546 0.0
C2711 C 0.31439 0.04405 0.43257 0.0
C2712 C 0.32904 0.06533 0.40847 0.0
C2713 C 0.33826 0.06532 0.39325 0.0
C2714 C 0.35136 0.07792 0.38807 0.0
C2715 C 0.35527 0.09081 0.39901 0.0
C2716 C 0.34625 0.09101 0.41526 0.0
C2717 C 0.33288 0.07803 0.4198 0.0
H2718 H 0.98674 0.28049 0.37084 0.0
H2719 H 0.98224 0.31517 0.3432 0.0
H2720 H 0.95634 0.30288 0.35464 0.0
H2721 H 0.94941 0.25016 0.36055 0.0
H2722 H 0.94797 0.24165 0.38526 0.0
H2723 H 0.96562 0.25224 0.37285 0.0
H2724 H 0.97573 0.26841 0.40571 0.0
H2725 H 0.95816 0.25785 0.41821 0.0
H2726 H 0.9664 0.27737 0.41588 0.0
H2727 H 0.93134 0.28742 0.37035 0.0
H2728 H 0.90964 0.27102 0.39147 0.0
H2729 H 0.93108 0.24741 0.41094 0.0
C2730 C 0.9802 0.28533 0.36685 0.0
C2731 C 0.98641 0.29869 0.35595 0.0
C2732 C 0.97766 0.30491 0.35149 0.0
C2733 C 0.96293 0.29798 0.35782 0.0
C2734 C 0.95718 0.28489 0.36875 0.0
C2735 C 0.96556 0.27869 0.37338 0.0
C2736 C 0.95715 0.2653 0.38693 0.0
C2737 C 0.9549 0.25152 0.37572 0.0
C2738 C 0.96482 0.26736 0.40792 0.0
C2739 C 0.94279 0.26506 0.38943 0.0
C2740 C 0.94295 0.27631 0.37854 0.0
C2741 C 0.93109 0.27857 0.37894 0.0
C2742 C 0.91884 0.26925 0.39111 0.0
C2743 C 0.91862 0.25793 0.403 0.0
C2744 C 0.93073 0.25575 0.4018 0.0
H2745 H 0.01344 0.36778 0.30502 0.0
H2746 H 0.04186 0.39033 0.35715 0.0
H2747 H 0.03945 0.41188 0.35016 0.0
H2748 H 0.02781 0.39793 0.27173 0.0
H2749 H 0.0105 0.39312 0.26006 0.0
H2750 H 0.01335 0.37908 0.27046 0.0
H2751 H 0.99036 0.37012 0.29391 0.0
H2752 H 0.98747 0.3842 0.28361 0.0
H2753 H 0.98912 0.38282 0.3112 0.0
H2754 H 0.03551 0.43165 0.33568 0.0
H2755 H 0.03059 0.4481 0.31458 0.0
H2756 H 0.00487 0.41246 0.27205 0.0
C2757 C 0.01899 0.37716 0.31517 0.0
C2758 C 0.0278 0.37737 0.33167 0.0
C2759 C 0.03502 0.38993 0.34444 0.0
C2760 C 0.03368 0.4022 0.34063 0.0
C2761 C 0.02503 0.40169 0.32407 0.0
C2762 C 0.01778 0.38947 0.31158 0.0
C2763 C 0.0099 0.39199 0.29403 0.0
C2764 C 0.01575 0.39044 0.27283 0.0
C2765 C 0.99322 0.38167 0.2958 0.0
C2766 C 0.01411 0.40765 0.2983 0.0
C2767 C 0.02273 0.41303 0.3158 0.0
C2768 C 0.02863 0.42751 0.32209 0.0
C2769 C 0.02583 0.43677 0.30999 0.0
C2770 C 0.01724 0.43152 0.2918 0.0
C2771 C 0.01115 0.4167 0.28616 0.0
H2772 H 0.60528 0.63862 0.32973 0.0
H2773 H 0.64983 0.64679 0.33203 0.0
H2774 H 0.64186 0.62336 0.31431 0.0
H2775 H 0.5867 0.59923 0.33768 0.0
H2776 H 0.57217 0.59546 0.31979 0.0
H2777 H 0.58115 0.61252 0.33371 0.0
H2778 H 0.58744 0.62667 0.29895 0.0
H2779 H 0.57848 0.60966 0.28493 0.0
H2780 H 0.59731 0.62306 0.27917 0.0
H2781 H 0.62938 0.59953 0.29544 0.0
H2782 H 0.61334 0.57727 0.27538 0.0
H2783 H 0.57684 0.58444 0.28511 0.0
C2784 C 0.61333 0.63542 0.32669 0.0
C2785 C 0.62817 0.64454 0.33234 0.0
C2786 C 0.6384 0.64001 0.32784 0.0
C2787 C 0.63398 0.62669 0.31784 0.0
C2788 C 0.6193 0.61801 0.31239 0.0
C2789 C 0.60912 0.62218 0.31657 0.0
C2790 C 0.59415 0.6111 0.30822 0.0
C2791 C 0.58288 0.60417 0.32591 0.0
C2792 C 0.58905 0.61804 0.29184 0.0
C2793 C 0.59756 0.60015 0.29851 0.0
C2794 C 0.6121 0.60428 0.30127 0.0
C2795 C 0.61794 0.5961 0.29332 0.0
C2796 C 0.60871 0.58341 0.28207 0.0
C2797 C 0.5938 0.57904 0.27877 0.0
C2798 C 0.58819 0.58751 0.28729 0.0
H2799 H 0.35645 0.00135 0.31827 0.0
H2800 H 0.33728 0.95488 0.32926 0.0
H2801 H 0.35969 0.95611 0.31548 0.0
H2802 H 0.37436 0.00319 0.27107 0.0
H2803 H 0.39056 0.02054 0.27639 0.0
H2804 H 0.37328 0.01617 0.28795 0.0
H2805 H 0.38491 0.021 0.3245 0.0
H2806 H 0.40225 0.02541 0.31303 0.0
H2807 H 0.394 0.01138 0.33256 0.0
H2808 H 0.38302 0.96189 0.29757 0.0
H2809 H 0.4062 0.97193 0.27833 0.0
H2810 H 0.41155 0.01527 0.28218 0.0
C2811 C 0.35703 0.99147 0.31789 0.0
C2812 C 0.34513 0.978 0.32474 0.0
C2813 C 0.34629 0.96531 0.32412 0.0
C2814 C 0.35897 0.9659 0.31633 0.0
C2815 C 0.37047 0.97931 0.30957 0.0
C2816 C 0.36972 0.9919 0.3105 0.0
C2817 C 0.3836 0.00488 0.30202 0.0
C2818 C 0.38024 0.01158 0.28324 0.0
C2819 C 0.39167 0.01634 0.31905 0.0
C2820 C 0.39208 0.99751 0.29564 0.0
C2821 C 0.3843 0.98277 0.30013 0.0
C2822 C 0.38939 0.97349 0.2944 0.0
C2823 C 0.40273 0.97938 0.2836 0.0
C2824 C 0.41102 0.99452 0.27881 0.0
C2825 C 0.4056 0.00366 0.28533 0.0
H2826 H 0.60456 0.95134 0.32746 0.0
H2827 H 0.64464 0.99318 0.31939 0.0
H2828 H 0.63056 0.00306 0.3029 0.0
H2829 H 0.58854 0.95104 0.27968 0.0
H2830 H 0.57006 0.94284 0.2896 0.0
H2831 H 0.5831 0.93929 0.30209 0.0
H2832 H 0.57844 0.94843 0.33704 0.0
H2833 H 0.56537 0.952 0.32463 0.0
H2834 H 0.58064 0.96638 0.33851 0.0
H2835 H 0.61259 0.00778 0.28458 0.0
H2836 H 0.59196 0.00708 0.26614 0.0
H2837 H 0.56318 0.96275 0.28811 0.0
C2838 C 0.61036 0.96262 0.32242 0.0
C2839 C 0.62572 0.97146 0.32473 0.0
C2840 C 0.63288 0.98617 0.31786 0.0
C2841 C 0.62498 0.99191 0.30849 0.0
C2842 C 0.60989 0.98288 0.30629 0.0
C2843 C 0.60262 0.96858 0.31318 0.0
C2844 C 0.5864 0.96107 0.3083 0.0
C2845 C 0.58176 0.94778 0.29407 0.0
C2846 C 0.57717 0.95672 0.32831 0.0
C2847 C 0.58579 0.97325 0.29708 0.0
C2848 C 0.59943 0.98576 0.29618 0.0
C2849 C 0.60179 0.99814 0.28551 0.0
C2850 C 0.58992 0.99766 0.27519 0.0
C2851 C 0.57581 0.98489 0.27568 0.0
C2852 C 0.57378 0.97267 0.2872 0.0
H2853 H -0.00204 0.64217 0.32146 0.0
H2854 H 0.0435 0.65787 0.33648 0.0
H2855 H 0.04083 0.63466 0.32417 0.0
H2856 H 0.98453 0.60345 0.33693 0.0
H2857 H 0.97117 0.59628 0.31643 0.0
H2858 H 0.97631 0.6137 0.32798 0.0
H2859 H 0.98318 0.62575 0.29164 0.0
H2860 H 0.97818 0.60843 0.28002 0.0
H2861 H 0.99629 0.62393 0.27586 0.0
H2862 H 0.03444 0.61182 0.30516 0.0
H2863 H 0.0242 0.58962 0.2843 0.0
H2864 H 0.98153 0.5865 0.28635 0.0
C2865 C 0.00727 0.64058 0.32248 0.0
C2866 C 0.02095 0.6518 0.32986 0.0
C2867 C 0.0329 0.64937 0.33099 0.0
C2868 C 0.0315 0.63624 0.32401 0.0
C2869 C 0.01797 0.62549 0.31646 0.0
C2870 C 0.00596 0.62734 0.31609 0.0
C2871 C 0.99276 0.6141 0.30679 0.0
C2872 C 0.98047 0.60642 0.323 0.0
C2873 C 0.98729 0.61831 0.28743 0.0
C2874 C -0.00054 0.60486 0.30115 0.0
C2875 C 0.014 0.61167 0.30683 0.0
C2876 C 0.02291 0.60609 0.30127 0.0
C2877 C 0.01684 0.59325 0.28948 0.0
C2878 C 0.00182 0.5858 0.28363 0.0
C2879 C 0.99303 0.5917 0.29011 0.0
H2880 H 0.35393 0.36783 0.31742 0.0
H2881 H 0.35162 0.39991 0.35671 0.0
H2882 H 0.3757 0.41894 0.34365 0.0
H2883 H 0.394 0.38321 0.32177 0.0
H2884 H 0.39589 0.37938 0.29505 0.0
H2885 H 0.37904 0.36781 0.30889 0.0
H2886 H 0.36446 0.37224 0.2806 0.0
H2887 H 0.38123 0.38379 0.26668 0.0
H2888 H 0.36945 0.39071 0.27416 0.0
H2889 H 0.39873 0.43493 0.32442 0.0
H2890 H 0.41944 0.44697 0.2997 0.0
H2891 H 0.40742 0.40487 0.27294 0.0
C2892 C 0.3586 0.3788 0.32352 0.0
C2893 C 0.35085 0.38234 0.33813 0.0
C2894 C 0.35728 0.39689 0.3455 0.0
C2895 C 0.37102 0.4078 0.33825 0.0
C2896 C 0.37827 0.40401 0.32368 0.0
C2897 C 0.37235 0.38988 0.3164 0.0
C2898 C 0.38206 0.389 0.29975 0.0
C2899 C 0.38811 0.37927 0.30679 0.0
C2900 C 0.37381 0.38362 0.27907 0.0
C2901 C 0.39414 0.4049 0.29847 0.0
C2902 C 0.39177 0.41332 0.31258 0.0
C2903 C 0.40084 0.42844 0.3135 0.0
C2904 C 0.41253 0.43519 0.2994 0.0
C2905 C 0.41505 0.42682 0.28462 0.0
C2906 C 0.40589 0.41146 0.28441 0.0
H2907 H 0.33956 0.31445 0.37195 0.0
H2908 H 0.30245 0.28481 0.33404 0.0
H2909 H 0.30673 0.26466 0.34302 0.0
H2910 H 0.36252 0.29788 0.36097 0.0
H2911 H 0.36934 0.30095 0.38715 0.0
H2912 H 0.36449 0.31331 0.37547 0.0
H2913 H 0.34681 0.30904 0.40615 0.0
H2914 H 0.35152 0.29664 0.41784 0.0
H2915 H 0.33261 0.29068 0.41243 0.0
H2916 H 0.31319 0.24716 0.35989 0.0
H2917 H 0.32192 0.23411 0.38196 0.0
H2918 H 0.35485 0.27543 0.40838 0.0
C2919 C 0.33253 0.30381 0.3651 0.0
C2920 C 0.32069 0.30122 0.35222 0.0
C2921 C 0.31165 0.28708 0.34381 0.0
C2922 C 0.314 0.27557 0.34884 0.0
C2923 C 0.32553 0.27842 0.3621 0.0
C2924 C 0.33475 0.29225 0.3699 0.0
C2925 C 0.3457 0.29231 0.38495 0.0
C2926 C 0.36145 0.30167 0.37663 0.0
C2927 C 0.34405 0.29747 0.40662 0.0
C2928 C 0.34092 0.27626 0.38495 0.0
C2929 C 0.32934 0.26841 0.37157 0.0
C2930 C 0.32242 0.25323 0.37013 0.0
C2931 C 0.32739 0.24591 0.38279 0.0
C2932 C 0.33917 0.25377 0.3967 0.0
C2933 C 0.34609 0.26915 0.39751 0.0
H2934 H 0.71426 0.02497 0.36243 0.0
H2935 H 0.67328 0.01547 0.3918 0.0
H2936 H 0.68555 0.03998 0.40736 0.0
H2937 H 0.73727 0.0446 0.4046 0.0
H2938 H 0.75216 0.05802 0.38891 0.0
H2939 H 0.74006 0.04005 0.37865 0.0
H2940 H 0.73427 0.05144 0.3473 0.0
H2941 H 0.74639 0.06946 0.35747 0.0
H2942 H 0.72758 0.0638 0.35178 0.0
H2943 H 0.70215 0.06435 0.42184 0.0
H2944 H 0.72229 0.08758 0.43463 0.0
H2945 H 0.75288 0.08255 0.39504 0.0
C2946 C 0.70786 0.02813 0.37195 0.0
C2947 C 0.6928 0.01829 0.37588 0.0
C2948 C 0.68482 0.02279 0.38856 0.0
C2949 C 0.69168 0.03672 0.39744 0.0
C2950 C 0.70652 0.04609 0.39344 0.0
C2951 C 0.71455 0.04208 0.38099 0.0
C2952 C 0.73053 0.05416 0.38003 0.0
C2953 C 0.74059 0.04889 0.38856 0.0
C2954 C 0.73495 0.06007 0.35782 0.0
C2955 C 0.73021 0.06541 0.39426 0.0
C2956 C 0.7162 0.06051 0.40165 0.0
C2957 C 0.71314 0.06848 0.41585 0.0
C2958 C 0.72472 0.08181 0.42287 0.0
C2959 C 0.73927 0.08721 0.41561 0.0
C2960 C 0.74195 0.07886 0.40092 0.0
H2961 H 0.98311 0.67974 0.37237 0.0
H2962 H 0.99269 0.72322 0.35517 0.0
H2963 H 0.96874 0.71776 0.36906 0.0
H2964 H 0.94328 0.66081 0.36167 0.0
H2965 H 0.93871 0.64884 0.3837 0.0
H2966 H 0.95605 0.65554 0.37057 0.0
H2967 H 0.96969 0.6659 0.40527 0.0
H2968 H 0.95243 0.65925 0.41848 0.0
H2969 H 0.96629 0.67832 0.42007 0.0
H2970 H 0.94501 0.70869 0.38727 0.0
H2971 H 0.92267 0.69634 0.409 0.0
H2972 H 0.92796 0.6586 0.41448 0.0
C2973 C 0.98006 0.68801 0.3712 0.0
C2974 C 0.9898 0.70191 0.36263 0.0
C2975 C 0.98546 0.71251 0.36168 0.0
C2976 C 0.97183 0.7095 0.36945 0.0
C2977 C 0.9626 0.69581 0.37808 0.0
C2978 C 0.96646 0.6852 0.37897 0.0
C2979 C 0.95483 0.67172 0.39026 0.0
C2980 C 0.9478 0.65844 0.37567 0.0
C2981 C 0.96119 0.66863 0.40967 0.0
C2982 C 0.94405 0.6766 0.396 0.0
C2983 C 0.94872 0.69049 0.38862 0.0
C2984 C 0.94113 0.69774 0.39292 0.0
C2985 C 0.92851 0.69068 0.40532 0.0
C2986 C 0.92361 0.67653 0.41327 0.0
C2987 C 0.93135 0.66932 0.40826 0.0
H2988 H 0.35472 0.99908 0.71442 0.0
H2989 H 0.38352 0.03673 0.67658 0.0
H2990 H 0.4043 0.0333 0.68487 0.0
H2991 H 0.37997 0.00602 0.75445 0.0
H2992 H 0.37429 0.98712 0.75881 0.0
H2993 H 0.36145 0.99187 0.74872 0.0
H2994 H 0.35662 0.9749 0.71712 0.0
H2995 H 0.36947 0.97008 0.72715 0.0
H2996 H 0.37183 0.97739 0.7013 0.0
H2997 H 0.42238 0.02702 0.69953 0.0
H2998 H 0.4362 0.01777 0.7187 0.0
H2999 H 0.39562 0.98393 0.74628 0.0
C3000 C 0.36535 0.00648 0.70765 0.0
C3001 C 0.36748 0.01817 0.69482 0.0
C3002 C 0.3816 0.02768 0.6864 0.0
C3003 C 0.39348 0.02582 0.69101 0.0
C3004 C 0.39107 0.01432 0.70393 0.0
C3005 C 0.37734 0.00474 0.71202 0.0
C3006 C 0.37781 0.99361 0.7261 0.0
C3007 C 0.37311 0.99473 0.74833 0.0
C3008 C 0.36837 0.97807 0.71739 0.0
C3009 C 0.39399 0.99859 0.72497 0.0
C3010 C 0.40145 0.01054 0.71206 0.0
C3011 C 0.41663 0.01755 0.70946 0.0
C3012 C 0.42439 0.01227 0.72044 0.0
C3013 C 0.41696 5e-05 0.73375 0.0
C3014 C 0.40155 0.99308 0.73583 0.0
H3015 H 0.95423 0.34338 0.71145 0.0
H3016 H -0.00203 0.3557 0.69004 0.0
H3017 H 0.00733 0.38069 0.70349 0.0
H3018 H 0.95619 0.37795 0.7011 0.0
H3019 H 0.94619 0.37708 0.7243 0.0
H3020 H 0.94276 0.36048 0.71171 0.0
H3021 H 0.94833 0.3516 0.74599 0.0
H3022 H 0.95171 0.36813 0.75868 0.0
H3023 H 0.96556 0.36304 0.75885 0.0
H3024 H 0.01197 0.40431 0.71995 0.0
H3025 H 0.01176 0.42414 0.73977 0.0
H3026 H 0.96524 0.39566 0.75212 0.0
C3027 C 0.96574 0.35138 0.70936 0.0
C3028 C 0.97535 0.34762 0.69956 0.0
C3029 C 0.9904 0.35834 0.69748 0.0
C3030 C 0.99581 0.37258 0.70499 0.0
C3031 C 0.98605 0.3759 0.71469 0.0
C3032 C 0.97135 0.36557 0.717 0.0
C3033 C 0.96333 0.37165 0.72908 0.0
C3034 C 0.95142 0.3718 0.71575 0.0
C3035 C 0.95686 0.3631 0.74935 0.0
C3036 C 0.97582 0.38699 0.7333 0.0
C3037 C 0.98881 0.3893 0.72469 0.0
C3038 C 0.00185 0.40261 0.7268 0.0
C3039 C 0.00164 0.41379 0.73821 0.0
C3040 C 0.9885 0.41155 0.74758 0.0
C3041 C 0.97544 0.39794 0.74487 0.0
H3042 H 0.64256 0.62795 0.70765 0.0
H3043 H 0.63731 0.59939 0.65604 0.0
H3044 H 0.6125 0.58148 0.66848 0.0
H3045 H 0.62649 0.60038 0.74451 0.0
H3046 H 0.61756 0.6082 0.7591 0.0
H3047 H 0.63393 0.61986 0.74449 0.0
H3048 H 0.62024 0.63057 0.72479 0.0
H3049 H 0.60378 0.61889 0.73938 0.0
H3050 H 0.60344 0.61843 0.71143 0.0
H3051 H 0.58965 0.5656 0.68806 0.0
H3052 H 0.57047 0.55228 0.71454 0.0
H3053 H 0.59047 0.5906 0.75415 0.0
C3054 C 0.63601 0.61809 0.69872 0.0
C3055 C 0.64179 0.61508 0.68082 0.0
C3056 C 0.63308 0.6019 0.6698 0.0
C3057 C 0.61894 0.5917 0.67666 0.0
C3058 C 0.61366 0.59482 0.6946 0.0
C3059 C 0.6219 0.60766 0.70553 0.0
C3060 C 0.61421 0.60758 0.7255 0.0
C3061 C 0.62361 0.60909 0.74451 0.0
C3062 C 0.61018 0.61958 0.72525 0.0
C3063 C 0.60062 0.59251 0.72435 0.0
C3064 C 0.60042 0.58545 0.7062 0.0
C3065 C 0.58956 0.57107 0.70221 0.0
C3066 C 0.57876 0.56357 0.71735 0.0
C3067 C 0.57897 0.57044 0.7363 0.0
C3068 C 0.58987 0.5852 0.7396 0.0
H3069 H 0.69541 0.71299 0.66672 0.0
H3070 H 0.65047 0.67756 0.65984 0.0
H3071 H 0.64296 0.69524 0.65032 0.0
H3072 H 0.68659 0.74119 0.68597 0.0
H3073 H 0.70154 0.75553 0.67141 0.0
H3074 H 0.70301 0.74046 0.68122 0.0
H3075 H 0.70864 0.73516 0.6441 0.0
H3076 H 0.70711 0.75012 0.63418 0.0
H3077 H 0.69593 0.73207 0.6235 0.0
H3078 H 0.64089 0.71593 0.63673 0.0
H3079 H 0.64439 0.73811 0.61969 0.0
H3080 H 0.69055 0.76073 0.63613 0.0
C3081 C 0.68392 0.70903 0.66386 0.0
C3082 C 0.6735 0.69391 0.66418 0.0
C3083 C 0.65863 0.68909 0.65976 0.0
C3084 C 0.65424 0.69906 0.65442 0.0
C3085 C 0.66483 0.71385 0.65363 0.0
C3086 C 0.67936 0.71886 0.65834 0.0
C3087 C 0.68877 0.73512 0.65417 0.0
C3088 C 0.69537 0.74357 0.6744 0.0
C3089 C 0.70081 0.73829 0.63803 0.0
C3090 C 0.67737 0.7383 0.64559 0.0
C3091 C 0.6636 0.72593 0.64574 0.0
C3092 C 0.65155 0.7258 0.63699 0.0
C3093 C 0.65365 0.73855 0.62743 0.0
C3094 C 0.66773 0.75134 0.62662 0.0
C3095 C 0.67963 0.75121 0.63637 0.0
H3096 H 0.30246 0.98015 0.65427 0.0
H3097 H 0.26746 0.98942 0.66554 0.0
H3098 H 0.24942 0.96501 0.65262 0.0
H3099 H 0.2881 0.96079 0.60686 0.0
H3100 H 0.29361 0.94756 0.61162 0.0
H3101 H 0.30384 0.96553 0.62282 0.0
H3102 H 0.3 0.95408 0.6594 0.0
H3103 H 0.28969 0.93605 0.6483 0.0
H3104 H 0.28165 0.94157 0.66849 0.0
H3105 H 0.23515 0.94011 0.63747 0.0
H3106 H 0.22567 0.91632 0.61993 0.0
H3107 H 0.26966 0.92297 0.61795 0.0
C3108 C 0.29099 0.97701 0.65416 0.0
C3109 C 0.28642 0.98675 0.66097 0.0
C3110 C 0.2713 0.98222 0.66039 0.0
C3111 C 0.26092 0.96833 0.65315 0.0
C3112 C 0.26577 0.95903 0.64651 0.0
C3113 C 0.28043 0.96314 0.64687 0.0
C3114 C 0.28271 0.95119 0.63803 0.0
C3115 C 0.29265 0.95659 0.61868 0.0
C3116 C 0.28888 0.94538 0.65454 0.0
C3117 C 0.26707 0.93984 0.63245 0.0
C3118 C 0.25748 0.94457 0.63762 0.0
C3119 C 0.24254 0.93624 0.63342 0.0
C3120 C 0.23726 0.92278 0.62338 0.0
C3121 C 0.2469 0.91778 0.61761 0.0
C3122 C 0.26198 0.92638 0.62248 0.0
H3123 H 0.02075 0.30013 0.65659 0.0
H3124 H 0.0311 0.34458 0.66798 0.0
H3125 H 0.05686 0.3537 0.65743 0.0
H3126 H 0.0563 0.30432 0.67139 0.0
H3127 H 0.05598 0.2929 0.65042 0.0
H3128 H 0.03903 0.28974 0.66186 0.0
H3129 H 0.02988 0.29213 0.62568 0.0
H3130 H 0.04672 0.29518 0.61416 0.0
H3131 H 0.04097 0.30833 0.61045 0.0
H3132 H 0.08117 0.35793 0.6442 0.0
H3133 H 0.10122 0.35736 0.62541 0.0
H3134 H 0.07387 0.31024 0.61919 0.0
C3135 C 0.02855 0.31175 0.65732 0.0
C3136 C 0.0241 0.32168 0.66339 0.0
C3137 C 0.03441 0.33684 0.66349 0.0
C3138 C 0.04905 0.34209 0.65767 0.0
C3139 C 0.05309 0.33202 0.65151 0.0
C3140 C 0.04308 0.31718 0.65103 0.0
C3141 C 0.04971 0.30882 0.64142 0.0
C3142 C 0.05029 0.29833 0.65722 0.0
C3143 C 0.04133 0.30064 0.62176 0.0
C3144 C 0.06493 0.32128 0.63625 0.0
C3145 C 0.06678 0.33453 0.64263 0.0
C3146 C 0.07982 0.34761 0.63907 0.0
C3147 C 0.09112 0.34717 0.6282 0.0
C3148 C 0.08919 0.33377 0.62054 0.0
C3149 C 0.07596 0.32066 0.62508 0.0
H3150 H 0.30502 0.32253 0.65829 0.0
H3151 H 0.26801 0.28279 0.6829 0.0
H3152 H 0.25125 0.29108 0.6714 0.0
H3153 H 0.29095 0.34692 0.67119 0.0
H3154 H 0.29808 0.35735 0.64765 0.0
H3155 H 0.30733 0.34886 0.65934 0.0
H3156 H 0.30538 0.3354 0.62485 0.0
H3157 H 0.29617 0.34384 0.61306 0.0
H3158 H 0.28765 0.32423 0.61313 0.0
H3159 H 0.23834 0.30276 0.6549 0.0
H3160 H 0.23022 0.31658 0.63372 0.0
H3161 H 0.27567 0.34912 0.62088 0.0
C3162 C 0.29341 0.31563 0.6615 0.0
C3163 C 0.28786 0.30201 0.67155 0.0
C3164 C 0.27256 0.29328 0.67527 0.0
C3165 C 0.26294 0.29792 0.66886 0.0
C3166 C 0.26878 0.31135 0.65887 0.0
C3167 C 0.28366 0.3201 0.65525 0.0
C3168 C 0.28704 0.33367 0.64319 0.0
C3169 C 0.2964 0.34752 0.65612 0.0
C3170 C 0.2945 0.33431 0.62232 0.0
C3171 C 0.27169 0.33099 0.64013 0.0
C3172 C 0.26133 0.31814 0.64948 0.0
C3173 C 0.24636 0.31296 0.64777 0.0
C3174 C 0.24186 0.32096 0.63581 0.0
C3175 C 0.25228 0.33399 0.62565 0.0
C3176 C 0.2674 0.33918 0.62832 0.0
H3177 H 0.6654 0.97987 0.64097 0.0
H3178 H 0.69206 0.98192 0.69319 0.0
H3179 H 0.68701 0.95705 0.68493 0.0
H3180 H 0.63789 0.94065 0.64492 0.0
H3181 H 0.63643 0.93836 0.61716 0.0
H3182 H 0.6409 0.95565 0.62853 0.0
H3183 H 0.6644 0.96865 0.60581 0.0
H3184 H 0.66003 0.95143 0.59443 0.0
H3185 H 0.67751 0.9626 0.6068 0.0
H3186 H 0.68069 0.93274 0.66912 0.0
H3187 H 0.67343 0.91095 0.64726 0.0
H3188 H 0.65133 0.92521 0.6052 0.0
C3189 C 0.66994 0.97499 0.65094 0.0
C3190 C 0.67906 0.98281 0.66781 0.0
C3191 C 0.68498 0.97611 0.68025 0.0
C3192 C 0.68216 0.96198 0.67569 0.0
C3193 C 0.67336 0.95468 0.65868 0.0
C3194 C 0.66728 0.96094 0.64657 0.0
C3195 C 0.65898 0.95122 0.62841 0.0
C3196 C 0.64258 0.94617 0.62985 0.0
C3197 C 0.66563 0.95893 0.60764 0.0
C3198 C 0.66158 0.93864 0.63194 0.0
C3199 C 0.6698 0.94077 0.64955 0.0
C3200 C 0.67414 0.9309 0.6554 0.0
C3201 C 0.67004 0.91861 0.64282 0.0
C3202 C 0.66173 0.9163 0.62458 0.0
C3203 C 0.65739 0.92645 0.61928 0.0
H3204 H 0.01941 0.69926 0.64431 0.0
H3205 H 0.01981 0.73482 0.67834 0.0
H3206 H 0.04514 0.75149 0.6668 0.0
H3207 H 0.05734 0.70986 0.65338 0.0
H3208 H 0.06024 0.70509 0.62765 0.0
H3209 H 0.0422 0.69555 0.63919 0.0
H3210 H 0.03168 0.70224 0.6077 0.0
H3211 H 0.04965 0.71172 0.59602 0.0
H3212 H 0.0397 0.72113 0.60027 0.0
H3213 H 0.07036 0.76437 0.6522 0.0
H3214 H 0.09352 0.77321 0.63295 0.0
H3215 H 0.07659 0.72997 0.60631 0.0
C3216 C 0.02487 0.71053 0.64937 0.0
C3217 C 0.01761 0.7157 0.66226 0.0
C3218 C 0.02508 0.73059 0.66838 0.0
C3219 C 0.03952 0.74016 0.66202 0.0
C3220 C 0.04636 0.73476 0.64935 0.0
C3221 C 0.03929 0.72036 0.64287 0.0
C3222 C 0.04903 0.71765 0.62844 0.0
C3223 C 0.0524 0.70637 0.63773 0.0
C3224 C 0.0421 0.71291 0.60682 0.0
C3225 C 0.06263 0.73276 0.62789 0.0
C3226 C 0.06087 0.7424 0.64025 0.0
C3227 C 0.07185 0.75697 0.64233 0.0
C3228 C 0.08495 0.76191 0.6312 0.0
C3229 C 0.08692 0.75237 0.61793 0.0
C3230 C 0.07558 0.73755 0.61648 0.0
H3231 H -0.00091 0.64623 0.7174 0.0
H3232 H 0.96787 0.62081 0.66933 0.0
H3233 H 0.97129 0.59994 0.6771 0.0
H3234 H 0.02368 0.63176 0.71009 0.0
H3235 H 0.02686 0.63173 0.73752 0.0
H3236 H 0.02293 0.645 0.72681 0.0
H3237 H 0.00117 0.6366 0.75253 0.0
H3238 H 0.00505 0.62333 0.7633 0.0
H3239 H 0.98704 0.61759 0.75335 0.0
H3240 H 0.97722 0.58134 0.69168 0.0
H3241 H 0.98466 0.56658 0.71223 0.0
H3242 H 0.01114 0.60418 0.75143 0.0
C3243 C 0.99315 0.63637 0.70824 0.0
C3244 C 0.98329 0.63519 0.69264 0.0
C3245 C 0.97553 0.62199 0.68129 0.0
C3246 C 0.97743 0.61009 0.68556 0.0
C3247 C 0.9871 0.61156 0.70126 0.0
C3248 C 0.99482 0.62439 0.71241 0.0
C3249 C 0.00382 0.62293 0.72936 0.0
C3250 C 0.0203 0.63348 0.72571 0.0
C3251 C -0.00103 0.62524 0.7509 0.0
C3252 C -0.00017 0.60722 0.72621 0.0
C3253 C 0.99029 0.60086 0.70983 0.0
C3254 C 0.98475 0.58625 0.70448 0.0
C3255 C 0.98897 0.57792 0.71633 0.0
C3256 C -0.00144 0.58419 0.73342 0.0
C3257 C 0.00409 0.59909 0.73819 0.0
H3258 H 0.35449 0.35502 0.70701 0.0
H3259 H 0.38423 0.34949 0.66656 0.0
H3260 H 0.40412 0.37448 0.67541 0.0
H3261 H 0.36924 0.39413 0.69677 0.0
H3262 H 0.36659 0.39769 0.72331 0.0
H3263 H 0.35449 0.38008 0.71196 0.0
H3264 H 0.36045 0.36759 0.74172 0.0
H3265 H 0.37259 0.38514 0.75309 0.0
H3266 H 0.37929 0.37302 0.74672 0.0
H3267 H 0.42134 0.39931 0.69166 0.0
H3268 H 0.43401 0.42184 0.71289 0.0
H3269 H 0.39264 0.41047 0.74249 0.0
C3270 C 0.3651 0.35914 0.69967 0.0
C3271 C 0.3678 0.35032 0.68603 0.0
C3272 C 0.38189 0.35609 0.67694 0.0
C3273 C 0.39325 0.37026 0.68189 0.0
C3274 C 0.39028 0.37854 0.69581 0.0
C3275 C 0.37648 0.37319 0.7044 0.0
C3276 C 0.37624 0.38381 0.71984 0.0
C3277 C 0.36604 0.38925 0.71252 0.0
C3278 C 0.37189 0.37698 0.74162 0.0
C3279 C 0.39213 0.39586 0.719 0.0
C3280 C 0.40008 0.39272 0.70499 0.0
C3281 C 0.41517 0.40196 0.70247 0.0
C3282 C 0.42229 0.41467 0.71467 0.0
C3283 C 0.4143 0.41801 0.72919 0.0
C3284 C 0.39901 0.40847 0.73116 0.0
H3285 H 0.64265 0.01512 0.68869 0.0
H3286 H 0.66419 0.0602 0.70943 0.0
H3287 H 0.64162 0.05518 0.72798 0.0
H3288 H 0.60662 0.01167 0.68046 0.0
H3289 H 0.59669 0.99291 0.68895 0.0
H3290 H 0.61442 0.00017 0.6768 0.0
H3291 H 0.62363 0.99239 0.70869 0.0
H3292 H 0.60597 0.98518 0.72097 0.0
H3293 H 0.62225 0.99869 0.73414 0.0
H3294 H 0.61775 0.04459 0.74726 0.0
H3295 H 0.59355 0.02992 0.76346 0.0
H3296 H 0.58621 0.99243 0.72651 0.0
C3297 C 0.64255 0.02394 0.69702 0.0
C3298 C 0.65516 0.03803 0.69772 0.0
C3299 C 0.65462 0.04934 0.70863 0.0
C3300 C 0.64187 0.04659 0.71925 0.0
C3301 C 0.62966 0.03255 0.71842 0.0
C3302 C 0.62979 0.02148 0.70729 0.0
C3303 C 0.61514 0.0074 0.70885 0.0
C3304 C 0.60778 0.00277 0.6875 0.0
C3305 C 0.61686 0.9952 0.71876 0.0
C3306 C 0.60692 0.0122 0.7231 0.0
C3307 C 0.61552 0.02671 0.72851 0.0
C3308 C 0.61074 0.0333 0.74272 0.0
C3309 C 0.59681 0.02483 0.75171 0.0
C3310 C 0.58759 0.0099 0.74623 0.0
C3311 C 0.5928 0.00369 0.73141 0.0
loop_
_geom_bond_atom_site_label_1
_geom_bond_atom_site_label_2
_geom_bond_distance
_geom_bond_site_symmetry_2
_ccdc_geom_bond_type
C0 O1 1.318 . S
C0 O3 1.157 1_554 S
O1 C0 1.318 . S
O1 Cd2 2.228 . S
Cd2 O1 2.228 . S
Cd2 O6 2.273 . S
Cd2 O10 2.277 1_554 S
O3 C0 1.157 1_556 S
O3 Cd4 2.203 1_656 S
Cd4 O3 2.203 1_454 S
Cd4 O6 2.411 1_455 S
Cd4 O7 2.333 . S
Cd4 O8 2.352 . S
Cd4 O12 2.277 1_554 S
Cd4 O13 2.356 . S
C5 O10 1.209 1_455 S
C5 O12 1.226 . S
O6 Cd2 2.273 . S
O6 Cd4 2.411 1_655 S
O6 C9 1.320 1_655 S
O7 Cd4 2.333 . S
O7 C9 1.214 . S
O8 Cd4 2.352 . S
O8 C11 1.258 . S
C9 O6 1.320 1_455 S
C9 O7 1.214 . S
O10 Cd2 2.277 1_556 S
O10 C5 1.209 1_655 S
C11 O8 1.258 . S
C11 O13 1.282 . S
O12 Cd4 2.277 1_556 S
O12 C5 1.226 . S
O13 Cd4 2.356 . S
O13 C11 1.282 . S
C14 O15 1.306 . S
C14 O17 1.160 . S
O15 C14 1.306 . S
O15 Cd16 2.228 . S
Cd16 O15 2.228 . S
Cd16 O20 2.273 1_554 S
Cd16 O24 2.277 . S
O17 C14 1.160 . S
O17 Cd18 2.203 . S
Cd18 O17 2.203 . S
Cd18 O20 2.411 1_554 S
Cd18 O21 2.333 1_554 S
Cd18 O22 2.352 1_554 S
Cd18 O26 2.277 . S
Cd18 O27 2.356 . S
C19 O24 1.209 . S
C19 O26 1.226 . S
O20 Cd16 2.273 1_556 S
O20 Cd18 2.411 1_556 S
O20 C23 1.320 . S
O21 Cd18 2.333 1_556 S
O21 C23 1.214 . S
O22 Cd18 2.352 1_556 S
O22 C25 1.258 . S
C23 O20 1.320 . S
C23 O21 1.214 . S
O24 Cd16 2.277 . S
O24 C19 1.209 . S
C25 O22 1.258 . S
C25 O27 1.282 1_556 S
O26 Cd18 2.277 . S
O26 C19 1.226 . S
O27 Cd18 2.356 . S
O27 C25 1.282 1_554 S
C28 O29 1.306 . S
C28 O31 1.160 . S
O29 C28 1.306 . S
O29 Cd30 2.228 . S
Cd30 O29 2.228 . S
Cd30 O34 2.273 1_554 S
Cd30 O38 2.277 . S
O31 C28 1.160 . S
O31 Cd32 2.203 1_565 S
Cd32 O31 2.203 1_545 S
Cd32 O34 2.411 1_544 S
Cd32 O35 2.333 1_554 S
Cd32 O36 2.352 1_554 S
Cd32 O40 2.277 . S
Cd32 O41 2.356 . S
C33 O38 1.209 1_545 S
C33 O40 1.226 . S
O34 Cd30 2.273 1_556 S
O34 Cd32 2.411 1_566 S
O34 C37 1.320 1_565 S
O35 Cd32 2.333 1_556 S
O35 C37 1.214 . S
O36 Cd32 2.352 1_556 S
O36 C39 1.268 . S
C37 O34 1.320 1_545 S
C37 O35 1.214 . S
O38 Cd30 2.277 . S
O38 C33 1.209 1_565 S
C39 O36 1.268 . S
C39 O41 1.265 1_556 S
O40 Cd32 2.277 . S
O40 C33 1.226 . S
O41 Cd32 2.356 . S
O41 C39 1.265 1_554 S
C42 O43 1.306 1_556 S
C42 O45 1.160 . S
O43 C42 1.306 1_554 S
O43 Cd44 2.228 . S
Cd44 O43 2.228 . S
Cd44 O48 2.273 . S
Cd44 O52 2.277 1_554 S
O45 C42 1.160 . S
O45 Cd46 2.203 1_656 S
Cd46 O45 2.203 1_454 S
Cd46 O48 2.411 1_455 S
Cd46 O49 2.333 . S
Cd46 O50 2.352 . S
Cd46 O54 2.277 1_554 S
Cd46 O55 2.356 . S
C47 O52 1.209 1_455 S
C47 O54 1.226 . S
O48 Cd44 2.273 . S
O48 Cd46 2.411 1_655 S
O48 C51 1.320 1_655 S
O49 Cd46 2.333 . S
O49 C51 1.214 . S
O50 Cd46 2.352 . S
O50 C53 1.258 . S
C51 O48 1.320 1_455 S
C51 O49 1.214 . S
O52 Cd44 2.277 1_556 S
O52 C47 1.209 1_655 S
C53 O50 1.258 . S
C53 O55 1.282 . S
O54 Cd46 2.277 1_556 S
O54 C47 1.226 . S
O55 Cd46 2.356 . S
O55 C53 1.282 . S
C56 O57 1.306 . S
C56 O59 1.160 . S
O57 C56 1.306 . S
O57 Cd58 2.228 . S
Cd58 O57 2.228 . S
Cd58 O62 2.273 1_554 S
Cd58 O66 2.277 . S
O59 C56 1.160 . S
O59 Cd60 2.203 . S
Cd60 O59 2.203 . S
Cd60 O62 2.411 1_554 S
Cd60 O63 2.333 1_554 S
Cd60 O64 2.352 1_554 S
Cd60 O68 2.277 . S
Cd60 O69 2.356 . S
C61 O66 1.209 . S
C61 O68 1.226 . S
O62 Cd58 2.273 1_556 S
O62 Cd60 2.411 1_556 S
O62 C65 1.320 . S
O63 Cd60 2.333 1_556 S
O63 C65 1.214 . S
O64 Cd60 2.352 1_556 S
O64 C67 1.258 . S
C65 O62 1.320 . S
C65 O63 1.214 . S
O66 Cd58 2.277 . S
O66 C61 1.209 . S
C67 O64 1.258 . S
C67 O69 1.282 1_556 S
O68 Cd60 2.277 . S
O68 C61 1.226 . S
O69 Cd60 2.356 . S
O69 C67 1.282 1_554 S
C70 O71 1.296 1_556 S
C70 O73 1.162 . S
O71 C70 1.296 1_554 S
O71 Cd72 2.228 . S
Cd72 O71 2.228 . S
Cd72 O76 2.273 . S
Cd72 O80 2.277 1_554 S
O73 C70 1.162 . S
O73 Cd74 2.203 1_546 S
Cd74 O73 2.203 1_564 S
Cd74 O76 2.411 1_565 S
Cd74 O77 2.333 . S
Cd74 O78 2.352 . S
Cd74 O82 2.277 1_554 S
Cd74 O83 2.356 . S
C75 O80 1.195 1_565 S
C75 O82 1.245 . S
O76 Cd72 2.273 . S
O76 Cd74 2.411 1_545 S
O76 C79 1.333 . S
O77 Cd74 2.333 . S
O77 C79 1.187 1_565 S
O78 Cd74 2.352 . S
O78 C81 1.258 . S
C79 O76 1.333 . S
C79 O77 1.187 1_545 S
O80 Cd72 2.277 1_556 S
O80 C75 1.195 1_545 S
C81 O78 1.258 . S
C81 O83 1.282 . S
O82 Cd74 2.277 1_556 S
O82 C75 1.245 . S
O83 Cd74 2.356 . S
O83 C81 1.282 . S
C84 O85 1.306 . S
C84 O87 1.160 . S
O85 C84 1.306 . S
O85 Cd86 2.228 . S
Cd86 O85 2.228 . S
Cd86 O90 2.273 . S
Cd86 O94 2.277 . S
O87 C84 1.160 . S
O87 Cd88 2.203 . S
Cd88 O87 2.203 . S
Cd88 O90 2.411 . S
Cd88 O91 2.333 . S
Cd88 O92 2.352 . S
Cd88 O96 2.277 . S
Cd88 O97 2.356 . S
C89 O94 1.209 . S
C89 O96 1.226 . S
O90 Cd86 2.273 . S
O90 Cd88 2.411 . S
O90 C93 1.320 . S
O91 Cd88 2.333 . S
O91 C93 1.214 . S
O92 Cd88 2.352 . S
O92 C95 1.258 . S
C93 O90 1.320 . S
C93 O91 1.214 . S
O94 Cd86 2.277 . S
O94 C89 1.209 . S
C95 O92 1.258 . S
C95 O97 1.282 . S
O96 Cd88 2.277 . S
O96 C89 1.226 . S
O97 Cd88 2.356 . S
O97 C95 1.282 . S
C98 O99 1.306 1_545 S
C98 O101 1.160 1_545 S
O99 C98 1.306 1_565 S
O99 Cd100 2.228 . S
Cd100 O99 2.228 . S
Cd100 O104 2.273 . S
Cd100 O108 2.277 . S
O101 C98 1.160 1_565 S
O101 Cd102 2.203 . S
Cd102 O101 2.203 . S
Cd102 O104 2.411 . S
Cd102 O105 2.333 . S
Cd102 O106 2.352 . S
Cd102 O110 2.277 . S
Cd102 O111 2.356 . S
C103 O108 1.209 . S
C103 O110 1.226 . S
O104 Cd100 2.273 . S
O104 Cd102 2.411 . S
O104 C107 1.320 . S
O105 Cd102 2.333 . S
O105 C107 1.214 . S
O106 Cd102 2.352 . S
O106 C109 1.258 . S
C107 O104 1.320 . S
C107 O105 1.214 . S
O108 Cd100 2.277 . S
O108 C103 1.209 . S
C109 O106 1.258 . S
C109 O111 1.282 . S
O110 Cd102 2.277 . S
O110 C103 1.226 . S
O111 Cd102 2.356 . S
O111 C109 1.282 . S
C112 O113 1.306 . S
C112 O115 1.160 . S
O113 C112 1.306 . S
O113 Cd114 2.228 . S
Cd114 O113 2.228 . S
Cd114 O118 2.273 . S
Cd114 O122 2.277 . S
O115 C112 1.160 . S
O115 Cd116 2.203 . S
Cd116 O115 2.203 . S
Cd116 O118 2.411 . S
Cd116 O119 2.333 . S
Cd116 O120 2.352 . S
Cd116 O124 2.277 . S
Cd116 O125 2.356 . S
C117 O122 1.209 . S
C117 O124 1.226 . S
O118 Cd114 2.273 . S
O118 Cd116 2.411 . S
O118 C121 1.320 . S
O119 Cd116 2.333 . S
O119 C121 1.214 . S
O120 Cd116 2.352 . S
O120 C123 1.258 . S
C121 O118 1.320 . S
C121 O119 1.214 . S
O122 Cd114 2.277 . S
O122 C117 1.209 . S
C123 O120 1.258 . S
C123 O125 1.282 . S
O124 Cd116 2.277 . S
O124 C117 1.226 . S
O125 Cd116 2.356 . S
O125 C123 1.282 . S
C126 O127 1.306 . S
C126 O129 1.160 . S
O127 C126 1.306 . S
O127 Cd128 2.228 . S
Cd128 O127 2.228 . S
Cd128 O132 2.273 . S
Cd128 O136 2.277 . S
O129 C126 1.160 . S
O129 Cd130 2.203 . S
Cd130 O129 2.203 . S
Cd130 O132 2.411 . S
Cd130 O133 2.333 . S
Cd130 O134 2.352 . S
Cd130 O138 2.277 . S
Cd130 O139 2.367 . S
C131 O136 1.209 . S
C131 O138 1.226 . S
O132 Cd128 2.273 . S
O132 Cd130 2.411 . S
O132 C135 1.320 . S
O133 Cd130 2.333 . S
O133 C135 1.214 . S
O134 Cd130 2.352 . S
O134 C137 1.258 1_565 S
C135 O132 1.320 . S
C135 O133 1.214 . S
O136 Cd128 2.277 . S
O136 C131 1.209 . S
C137 O134 1.258 1_545 S
C137 O139 1.267 1_545 S
O138 Cd130 2.277 . S
O138 C131 1.226 . S
O139 Cd130 2.367 . S
O139 C137 1.267 1_565 S
C140 O141 1.306 . S
C140 O143 1.160 . S
O141 C140 1.306 . S
O141 Cd142 2.228 . S
Cd142 O141 2.228 . S
Cd142 O146 2.273 . S
Cd142 O150 2.277 . S
O143 C140 1.160 . S
O143 Cd144 2.203 . S
Cd144 O143 2.203 . S
Cd144 O146 2.411 . S
Cd144 O147 2.333 . S
Cd144 O148 2.352 . S
Cd144 O152 2.277 . S
Cd144 O153 2.356 . S
C145 O150 1.209 . S
C145 O152 1.226 . S
O146 Cd142 2.273 . S
O146 Cd144 2.411 . S
O146 C149 1.320 . S
O147 Cd144 2.333 . S
O147 C149 1.214 . S
O148 Cd144 2.352 . S
O148 C151 1.258 . S
C149 O146 1.320 . S
C149 O147 1.214 . S
O150 Cd142 2.277 . S
O150 C145 1.209 . S
C151 O148 1.258 . S
C151 O153 1.282 . S
O152 Cd144 2.277 . S
O152 C145 1.226 . S
O153 Cd144 2.356 . S
O153 C151 1.282 . S
C154 O155 1.306 . S
C154 O157 1.160 . S
O155 C154 1.306 . S
O155 Cd156 2.228 . S
Cd156 O155 2.228 . S
Cd156 O160 2.273 . S
Cd156 O164 2.277 . S
O157 C154 1.160 . S
O157 Cd158 2.203 . S
Cd158 O157 2.203 . S
Cd158 O160 2.411 . S
Cd158 O161 2.333 . S
Cd158 O162 2.352 . S
Cd158 O166 2.277 . S
Cd158 O167 2.356 . S
C159 O164 1.209 . S
C159 O166 1.226 . S
O160 Cd156 2.273 . S
O160 Cd158 2.411 . S
O160 C163 1.320 . S
O161 Cd158 2.333 . S
O161 C163 1.214 . S
O162 Cd158 2.352 . S
O162 C165 1.258 . S
C163 O160 1.320 . S
C163 O161 1.214 . S
O164 Cd156 2.277 . S
O164 C159 1.209 . S
C165 O162 1.258 . S
C165 O167 1.282 . S
O166 Cd158 2.277 . S
O166 C159 1.226 . S
O167 Cd158 2.356 . S
O167 C165 1.282 . S
C168 O169 1.306 . S
C168 O171 1.160 . S
O169 C168 1.306 . S
O169 Cd170 2.228 . S
Cd170 O169 2.228 . S
Cd170 O174 2.273 . S
Cd170 O178 2.277 . S
O171 C168 1.160 . S
O171 Cd172 2.203 . S
Cd172 O171 2.203 . S
Cd172 O174 2.411 . S
Cd172 O175 2.333 . S
Cd172 O176 2.352 . S
Cd172 O180 2.277 . S
Cd172 O181 2.356 . S
C173 O178 1.209 . S
C173 O180 1.226 . S
O174 Cd170 2.273 . S
O174 Cd172 2.411 . S
O174 C177 1.320 . S
O175 Cd172 2.333 . S
O175 C177 1.214 . S
O176 Cd172 2.352 . S
O176 C179 1.258 . S
C177 O174 1.320 . S
C177 O175 1.214 . S
O178 Cd170 2.277 . S
O178 C173 1.209 . S
C179 O176 1.258 . S
C179 O181 1.282 . S
O180 Cd172 2.277 . S
O180 C173 1.226 . S
O181 Cd172 2.356 . S
O181 C179 1.282 . S
C182 O183 1.306 . S
C182 O185 1.160 . S
O183 C182 1.306 . S
O183 Cd184 2.228 . S
Cd184 O183 2.228 . S
Cd184 O188 2.273 . S
Cd184 O192 2.277 . S
O185 C182 1.160 . S
O185 Cd186 2.203 . S
Cd186 O185 2.203 . S
Cd186 O188 2.411 . S
Cd186 O189 2.333 . S
Cd186 O190 2.355 . S
Cd186 O194 2.277 . S
Cd186 O195 2.356 1_655 S
C187 O192 1.209 . S
C187 O194 1.226 . S
O188 Cd184 2.273 . S
O188 Cd186 2.411 . S
O188 C191 1.320 . S
O189 Cd186 2.333 . S
O189 C191 1.214 . S
O190 Cd186 2.355 . S
O190 C193 1.254 1_655 S
C191 O188 1.320 . S
C191 O189 1.214 . S
O192 Cd184 2.277 . S
O192 C187 1.209 . S
C193 O190 1.254 1_455 S
C193 O195 1.282 . S
O194 Cd186 2.277 . S
O194 C187 1.226 . S
O195 Cd186 2.356 1_455 S
O195 C193 1.282 . S
C196 O197 1.306 . S
C196 O199 1.160 . S
O197 C196 1.306 . S
O197 Cd198 2.228 . S
Cd198 O197 2.228 . S
Cd198 O202 2.273 . S
Cd198 O206 2.277 . S
O199 C196 1.160 . S
O199 Cd200 2.203 . S
Cd200 O199 2.203 . S
Cd200 O202 2.411 . S
Cd200 O203 2.333 . S
Cd200 O204 2.352 . S
Cd200 O208 2.277 . S
Cd200 O209 2.356 . S
C201 O206 1.209 . S
C201 O208 1.226 . S
O202 Cd198 2.273 . S
O202 Cd200 2.411 . S
O202 C205 1.320 . S
O203 Cd200 2.333 . S
O203 C205 1.214 . S
O204 Cd200 2.352 . S
O204 C207 1.258 . S
C205 O202 1.320 . S
C205 O203 1.214 . S
O206 Cd198 2.277 . S
O206 C201 1.209 . S
C207 O204 1.258 . S
C207 O209 1.282 . S
O208 Cd200 2.277 . S
O208 C201 1.226 . S
O209 Cd200 2.356 . S
O209 C207 1.282 . S
C210 O211 1.306 . S
C210 O213 1.160 . S
O211 C210 1.306 . S
O211 Cd212 2.228 . S
Cd212 O211 2.228 . S
Cd212 O216 2.273 . S
Cd212 O220 2.277 . S
O213 C210 1.160 . S
O213 Cd214 2.203 . S
Cd214 O213 2.203 . S
Cd214 O216 2.411 . S
Cd214 O217 2.333 . S
Cd214 O218 2.352 . S
Cd214 O222 2.277 . S
Cd214 O223 2.356 . S
C215 O220 1.209 . S
C215 O222 1.226 . S
O216 Cd212 2.273 . S
O216 Cd214 2.411 . S
O216 C219 1.320 . S
O217 Cd214 2.333 . S
O217 C219 1.214 . S
O218 Cd214 2.352 . S
O218 C221 1.258 . S
C219 O216 1.320 . S
C219 O217 1.214 . S
O220 Cd212 2.277 . S
O220 C215 1.209 . S
C221 O218 1.258 . S
C221 O223 1.282 . S
O222 Cd214 2.277 . S
O222 C215 1.226 . S
O223 Cd214 2.356 . S
O223 C221 1.282 . S
C224 O225 1.306 . S
C224 O227 1.160 . S
O225 C224 1.306 . S
O225 Cd226 2.228 . S
Cd226 O225 2.228 . S
Cd226 O230 2.273 . S
Cd226 O234 2.277 . S
O227 C224 1.160 . S
O227 Cd228 2.203 . S
Cd228 O227 2.203 . S
Cd228 O230 2.411 . S
Cd228 O231 2.333 . S
Cd228 O232 2.352 . S
Cd228 O236 2.277 . S
Cd228 O237 2.356 . S
C229 O234 1.209 . S
C229 O236 1.226 . S
O230 Cd226 2.273 . S
O230 Cd228 2.411 . S
O230 C233 1.320 . S
O231 Cd228 2.333 . S
O231 C233 1.214 . S
O232 Cd228 2.352 . S
O232 C235 1.258 1_545 S
C233 O230 1.320 . S
C233 O231 1.214 . S
O234 Cd226 2.277 . S
O234 C229 1.209 . S
C235 O232 1.258 1_565 S
C235 O237 1.282 1_565 S
O236 Cd228 2.277 . S
O236 C229 1.226 . S
O237 Cd228 2.356 . S
O237 C235 1.282 1_545 S
C238 O239 1.306 1_455 S
C238 O241 1.160 1_455 S
O239 C238 1.306 1_655 S
O239 Cd240 2.228 . S
Cd240 O239 2.228 . S
Cd240 O244 2.273 . S
Cd240 O248 2.277 . S
O241 C238 1.160 1_655 S
O241 Cd242 2.203 . S
Cd242 O241 2.203 . S
Cd242 O244 2.411 . S
Cd242 O245 2.333 . S
Cd242 O246 2.352 . S
Cd242 O250 2.277 . S
Cd242 O251 2.356 . S
C243 O248 1.209 . S
C243 O250 1.226 . S
O244 Cd240 2.273 . S
O244 Cd242 2.411 . S
O244 C247 1.320 . S
O245 Cd242 2.333 . S
O245 C247 1.214 . S
O246 Cd242 2.352 . S
O246 C249 1.258 . S
C247 O244 1.320 . S
C247 O245 1.214 . S
O248 Cd240 2.277 . S
O248 C243 1.209 . S
C249 O246 1.258 . S
C249 O251 1.282 . S
O250 Cd242 2.277 . S
O250 C243 1.226 . S
O251 Cd242 2.356 . S
O251 C249 1.282 . S
H252 C279 0.929 . S
N253 C278 1.433 . S
N253 C284 1.435 . S
N253 C290 1.423 . S
H254 C280 0.930 . S
H255 C283 0.931 . S
H256 C282 0.929 . S
H257 C285 0.930 . S
H258 C286 0.932 . S
H259 C289 0.929 . S
H260 C288 0.931 . S
H261 C291 0.929 . S
H262 C295 0.932 . S
H263 C292 0.931 . S
H264 C294 0.929 . S
H265 C297 0.929 . S
H266 C298 0.930 . S
H267 C300 0.929 . S
H268 C301 0.931 . S
H269 C303 0.930 . S
H270 C304 0.932 . S
H271 C306 0.931 . S
H272 C307 0.929 . S
H273 C309 0.929 . S
H274 C310 0.931 . S
H275 C312 0.929 . S
N276 C296 1.433 . S
N276 C302 1.435 . S
N276 C308 1.423 . S
H277 C313 0.932 . S
C278 N253 1.433 . S
C278 C279 1.363 . S
C278 C283 1.370 . S
C279 H252 0.929 . S
C279 C278 1.363 . S
C279 C280 1.385 . S
C280 H254 0.930 . S
C280 C279 1.385 . S
C280 C281 1.357 . S
C281 C280 1.357 . S
C281 C282 1.406 . S
C282 H256 0.929 . S
C282 C281 1.406 . S
C282 C283 1.391 . S
C283 H255 0.931 . S
C283 C278 1.370 . S
C283 C282 1.391 . S
C284 N253 1.435 . S
C284 C285 1.358 . S
C284 C289 1.371 . S
C285 H257 0.930 . S
C285 C284 1.358 . S
C285 C286 1.405 . S
C286 H258 0.932 . S
C286 C285 1.405 . S
C286 C287 1.383 . S
C287 C286 1.383 . S
C287 C288 1.393 . S
C288 H260 0.931 . S
C288 C287 1.393 . S
C288 C289 1.382 . S
C289 H259 0.929 . S
C289 C284 1.371 . S
C289 C288 1.382 . S
C290 N253 1.423 . S
C290 C291 1.362 . S
C290 C295 1.388 . S
C291 H261 0.929 . S
C291 C290 1.362 . S
C291 C292 1.376 . S
C292 H263 0.931 . S
C292 C291 1.376 . S
C292 C293 1.396 . S
C293 C292 1.396 . S
C293 C294 1.348 . S
C293 C311 1.472 . S
C294 H264 0.929 . S
C294 C293 1.348 . S
C294 C295 1.443 . S
C295 H262 0.932 . S
C295 C290 1.388 . S
C295 C294 1.443 . S
C296 N276 1.433 . S
C296 C297 1.363 . S
C296 C301 1.370 . S
C297 H265 0.929 . S
C297 C296 1.363 . S
C297 C298 1.385 . S
C298 H266 0.930 . S
C298 C297 1.385 . S
C298 C299 1.357 . S
C299 C298 1.357 . S
C299 C300 1.406 . S
C300 H267 0.929 . S
C300 C299 1.406 . S
C300 C301 1.391 . S
C301 H268 0.931 . S
C301 C296 1.370 . S
C301 C300 1.391 . S
C302 N276 1.435 . S
C302 C303 1.358 . S
C302 C307 1.371 . S
C303 H269 0.930 . S
C303 C302 1.358 . S
C303 C304 1.405 . S
C304 H270 0.932 . S
C304 C303 1.405 . S
C304 C305 1.383 . S
C305 C304 1.383 . S
C305 C306 1.393 . S
C306 H271 0.931 . S
C306 C305 1.393 . S
C306 C307 1.382 . S
C307 H272 0.929 . S
C307 C302 1.371 . S
C307 C306 1.382 . S
C308 N276 1.423 . S
C308 C309 1.362 . S
C308 C313 1.388 . S
C309 H273 0.929 . S
C309 C308 1.362 . S
C309 C310 1.376 . S
C310 H274 0.931 . S
C310 C309 1.376 . S
C310 C311 1.396 . S
C311 C293 1.472 . S
C311 C310 1.396 . S
C311 C312 1.348 . S
C312 H275 0.929 . S
C312 C311 1.348 . S
C312 C313 1.443 . S
C313 H277 0.932 . S
C313 C308 1.388 . S
C313 C312 1.443 . S
H314 C341 0.929 . S
N315 C340 1.433 . S
N315 C346 1.435 . S
N315 C352 1.423 . S
H316 C342 0.930 . S
H317 C345 0.931 . S
H318 C344 0.929 . S
H319 C347 0.930 . S
H320 C348 0.932 . S
H321 C351 0.929 . S
H322 C350 0.931 . S
H323 C353 0.929 . S
H324 C357 0.932 . S
H325 C354 0.931 . S
H326 C356 0.929 . S
H327 C359 0.929 . S
H328 C360 0.930 . S
H329 C362 0.929 . S
H330 C363 0.931 . S
H331 C365 0.930 . S
H332 C366 0.932 . S
H333 C368 0.931 . S
H334 C369 0.929 . S
H335 C371 0.929 . S
H336 C372 0.931 . S
H337 C374 0.929 . S
N338 C358 1.433 . S
N338 C364 1.435 . S
N338 C370 1.423 . S
H339 C375 0.932 . S
C340 N315 1.433 . S
C340 C341 1.363 . S
C340 C345 1.370 . S
C341 H314 0.929 . S
C341 C340 1.363 . S
C341 C342 1.385 . S
C342 H316 0.930 . S
C342 C341 1.385 . S
C342 C343 1.357 . S
C343 C342 1.357 . S
C343 C344 1.406 . S
C344 H318 0.929 . S
C344 C343 1.406 . S
C344 C345 1.391 . S
C345 H317 0.931 . S
C345 C340 1.370 . S
C345 C344 1.391 . S
C346 N315 1.435 . S
C346 C347 1.358 . S
C346 C351 1.371 . S
C347 H319 0.930 . S
C347 C346 1.358 . S
C347 C348 1.405 . S
C348 H320 0.932 . S
C348 C347 1.405 . S
C348 C349 1.383 . S
C349 C348 1.383 . S
C349 C350 1.393 . S
C350 H322 0.931 . S
C350 C349 1.393 . S
C350 C351 1.382 . S
C351 H321 0.929 . S
C351 C346 1.371 . S
C351 C350 1.382 . S
C352 N315 1.423 . S
C352 C353 1.362 . S
C352 C357 1.388 . S
C353 H323 0.929 . S
C353 C352 1.362 . S
C353 C354 1.376 . S
C354 H325 0.931 . S
C354 C353 1.376 . S
C354 C355 1.396 . S
C355 C354 1.396 . S
C355 C356 1.348 . S
C355 C373 1.472 . S
C356 H326 0.929 . S
C356 C355 1.348 . S
C356 C357 1.443 . S
C357 H324 0.932 . S
C357 C352 1.388 . S
C357 C356 1.443 . S
C358 N338 1.433 . S
C358 C359 1.363 . S
C358 C363 1.370 . S
C359 H327 0.929 . S
C359 C358 1.363 . S
C359 C360 1.385 . S
C360 H328 0.930 . S
C360 C359 1.385 . S
C360 C361 1.357 . S
C361 C360 1.357 . S
C361 C362 1.406 . S
C362 H329 0.929 . S
C362 C361 1.406 . S
C362 C363 1.391 . S
C363 H330 0.931 . S
C363 C358 1.370 . S
C363 C362 1.391 . S
C364 N338 1.435 . S
C364 C365 1.358 . S
C364 C369 1.371 . S
C365 H331 0.930 . S
C365 C364 1.358 . S
C365 C366 1.405 . S
C366 H332 0.932 . S
C366 C365 1.405 . S
C366 C367 1.383 . S
C367 C366 1.383 . S
C367 C368 1.393 . S
C368 H333 0.931 . S
C368 C367 1.393 . S
C368 C369 1.382 . S
C369 H334 0.929 . S
C369 C364 1.371 . S
C369 C368 1.382 . S
C370 N338 1.423 . S
C370 C371 1.362 . S
C370 C375 1.388 . S
C371 H335 0.929 . S
C371 C370 1.362 . S
C371 C372 1.376 . S
C372 H336 0.931 . S
C372 C371 1.376 . S
C372 C373 1.396 . S
C373 C355 1.472 . S
C373 C372 1.396 . S
C373 C374 1.348 . S
C374 H337 0.929 . S
C374 C373 1.348 . S
C374 C375 1.443 . S
C375 H339 0.932 . S
C375 C370 1.388 . S
C375 C374 1.443 . S
H376 C403 0.929 . S
N377 C402 1.433 . S
N377 C408 1.435 . S
N377 C414 1.423 . S
H378 C404 0.930 . S
H379 C407 0.931 . S
H380 C406 0.929 . S
H381 C409 0.930 . S
H382 C410 0.932 . S
H383 C413 0.929 . S
H384 C412 0.931 . S
H385 C415 0.929 . S
H386 C419 0.932 . S
H387 C416 0.931 . S
H388 C418 0.929 . S
H389 C421 0.929 . S
H390 C422 0.930 . S
H391 C424 0.929 . S
H392 C425 0.931 . S
H393 C427 0.930 . S
H394 C428 0.932 . S
H395 C430 0.931 . S
H396 C431 0.929 . S
H397 C433 0.929 . S
H398 C434 0.931 . S
H399 C436 0.929 . S
N400 C420 1.433 . S
N400 C426 1.435 . S
N400 C432 1.423 . S
H401 C437 0.932 . S
C402 N377 1.433 . S
C402 C403 1.363 . S
C402 C407 1.370 . S
C403 H376 0.929 . S
C403 C402 1.363 . S
C403 C404 1.385 . S
C404 H378 0.930 . S
C404 C403 1.385 . S
C404 C405 1.357 . S
C405 C404 1.357 . S
C405 C406 1.406 . S
C406 H380 0.929 . S
C406 C405 1.406 . S
C406 C407 1.391 . S
C407 H379 0.931 . S
C407 C402 1.370 . S
C407 C406 1.391 . S
C408 N377 1.435 . S
C408 C409 1.358 . S
C408 C413 1.371 . S
C409 H381 0.930 . S
C409 C408 1.358 . S
C409 C410 1.405 . S
C410 H382 0.932 . S
C410 C409 1.405 . S
C410 C411 1.383 . S
C411 C410 1.383 . S
C411 C412 1.393 . S
C412 H384 0.931 . S
C412 C411 1.393 . S
C412 C413 1.382 . S
C413 H383 0.929 . S
C413 C408 1.371 . S
C413 C412 1.382 . S
C414 N377 1.423 . S
C414 C415 1.362 . S
C414 C419 1.388 . S
C415 H385 0.929 . S
C415 C414 1.362 . S
C415 C416 1.376 . S
C416 H387 0.931 . S
C416 C415 1.376 . S
C416 C417 1.396 . S
C417 C416 1.396 . S
C417 C418 1.348 . S
C417 C435 1.472 . S
C418 H388 0.929 . S
C418 C417 1.348 . S
C418 C419 1.443 . S
C419 H386 0.932 . S
C419 C414 1.388 . S
C419 C418 1.443 . S
C420 N400 1.433 . S
C420 C421 1.363 . S
C420 C425 1.370 . S
C421 H389 0.929 . S
C421 C420 1.363 . S
C421 C422 1.385 . S
C422 H390 0.930 . S
C422 C421 1.385 . S
C422 C423 1.357 . S
C423 C422 1.357 . S
C423 C424 1.406 . S
C424 H391 0.929 . S
C424 C423 1.406 . S
C424 C425 1.391 . S
C425 H392 0.931 . S
C425 C420 1.370 . S
C425 C424 1.391 . S
C426 N400 1.435 . S
C426 C427 1.358 . S
C426 C431 1.371 . S
C427 H393 0.930 . S
C427 C426 1.358 . S
C427 C428 1.405 . S
C428 H394 0.932 . S
C428 C427 1.405 . S
C428 C429 1.383 . S
C429 C428 1.383 . S
C429 C430 1.393 . S
C430 H395 0.931 . S
C430 C429 1.393 . S
C430 C431 1.382 . S
C431 H396 0.929 . S
C431 C426 1.371 . S
C431 C430 1.382 . S
C432 N400 1.423 . S
C432 C433 1.362 . S
C432 C437 1.388 . S
C433 H397 0.929 . S
C433 C432 1.362 . S
C433 C434 1.376 . S
C434 H398 0.931 . S
C434 C433 1.376 . S
C434 C435 1.396 . S
C435 C417 1.472 . S
C435 C434 1.396 . S
C435 C436 1.348 . S
C436 H399 0.929 . S
C436 C435 1.348 . S
C436 C437 1.443 . S
C437 H401 0.932 . S
C437 C432 1.388 . S
C437 C436 1.443 . S
H438 C465 0.929 . S
N439 C464 1.433 . S
N439 C470 1.435 . S
N439 C476 1.423 . S
H440 C466 0.930 . S
H441 C469 0.931 . S
H442 C468 0.929 . S
H443 C471 0.930 . S
H444 C472 0.932 . S
H445 C475 0.929 . S
H446 C474 0.931 . S
H447 C477 0.929 . S
H448 C481 0.932 . S
H449 C478 0.931 . S
H450 C480 0.929 . S
H451 C483 0.929 . S
H452 C484 0.930 . S
H453 C486 0.929 . S
H454 C487 0.931 . S
H455 C489 0.930 . S
H456 C490 0.932 . S
H457 C492 0.931 . S
H458 C493 0.929 . S
H459 C495 0.929 . S
H460 C496 0.931 . S
H461 C498 0.929 . S
N462 C482 1.433 . S
N462 C488 1.435 . S
N462 C494 1.423 . S
H463 C499 0.932 . S
C464 N439 1.433 . S
C464 C465 1.363 . S
C464 C469 1.370 . S
C465 H438 0.929 . S
C465 C464 1.363 . S
C465 C466 1.385 . S
C466 H440 0.930 . S
C466 C465 1.385 . S
C466 C467 1.357 . S
C467 C466 1.357 . S
C467 C468 1.406 . S
C468 H442 0.929 . S
C468 C467 1.406 . S
C468 C469 1.391 . S
C469 H441 0.931 . S
C469 C464 1.370 . S
C469 C468 1.391 . S
C470 N439 1.435 . S
C470 C471 1.358 . S
C470 C475 1.371 . S
C471 H443 0.930 . S
C471 C470 1.358 . S
C471 C472 1.405 . S
C472 H444 0.932 . S
C472 C471 1.405 . S
C472 C473 1.383 . S
C473 C472 1.383 . S
C473 C474 1.393 . S
C474 H446 0.931 . S
C474 C473 1.393 . S
C474 C475 1.382 . S
C475 H445 0.929 . S
C475 C470 1.371 . S
C475 C474 1.382 . S
C476 N439 1.423 . S
C476 C477 1.362 . S
C476 C481 1.388 . S
C477 H447 0.929 . S
C477 C476 1.362 . S
C477 C478 1.376 . S
C478 H449 0.931 . S
C478 C477 1.376 . S
C478 C479 1.396 . S
C479 C478 1.396 . S
C479 C480 1.348 . S
C479 C497 1.472 . S
C480 H450 0.929 . S
C480 C479 1.348 . S
C480 C481 1.443 . S
C481 H448 0.932 . S
C481 C476 1.388 . S
C481 C480 1.443 . S
C482 N462 1.433 . S
C482 C483 1.363 . S
C482 C487 1.370 . S
C483 H451 0.929 . S
C483 C482 1.363 . S
C483 C484 1.385 . S
C484 H452 0.930 . S
C484 C483 1.385 . S
C484 C485 1.357 . S
C485 C484 1.357 . S
C485 C486 1.406 . S
C486 H453 0.929 . S
C486 C485 1.406 . S
C486 C487 1.391 . S
C487 H454 0.931 . S
C487 C482 1.370 . S
C487 C486 1.391 . S
C488 N462 1.435 . S
C488 C489 1.358 . S
C488 C493 1.371 . S
C489 H455 0.930 . S
C489 C488 1.358 . S
C489 C490 1.405 . S
C490 H456 0.932 . S
C490 C489 1.405 . S
C490 C491 1.383 . S
C491 C490 1.383 . S
C491 C492 1.393 . S
C492 H457 0.931 . S
C492 C491 1.393 . S
C492 C493 1.382 . S
C493 H458 0.929 . S
C493 C488 1.371 . S
C493 C492 1.382 . S
C494 N462 1.423 . S
C494 C495 1.362 . S
C494 C499 1.388 . S
C495 H459 0.929 . S
C495 C494 1.362 . S
C495 C496 1.376 . S
C496 H460 0.931 . S
C496 C495 1.376 . S
C496 C497 1.396 . S
C497 C479 1.472 . S
C497 C496 1.396 . S
C497 C498 1.348 . S
C498 H461 0.929 . S
C498 C497 1.348 . S
C498 C499 1.443 . S
C499 H463 0.932 . S
C499 C494 1.388 . S
C499 C498 1.443 . S
H500 C527 0.929 . S
N501 C526 1.433 . S
N501 C532 1.435 . S
N501 C538 1.423 . S
H502 C528 0.930 . S
H503 C531 0.931 . S
H504 C530 0.929 . S
H505 C533 0.930 . S
H506 C534 0.932 . S
H507 C537 0.929 . S
H508 C536 0.931 . S
H509 C539 0.929 . S
H510 C543 0.932 . S
H511 C540 0.931 . S
H512 C542 0.929 . S
H513 C545 0.929 . S
H514 C546 0.930 . S
H515 C548 0.929 . S
H516 C549 0.931 . S
H517 C551 0.930 . S
H518 C552 0.932 . S
H519 C554 0.931 . S
H520 C555 0.929 . S
H521 C557 0.929 . S
H522 C558 0.931 . S
H523 C560 0.929 . S
N524 C544 1.433 . S
N524 C550 1.435 . S
N524 C556 1.423 . S
H525 C561 0.932 . S
C526 N501 1.433 . S
C526 C527 1.363 . S
C526 C531 1.370 . S
C527 H500 0.929 . S
C527 C526 1.363 . S
C527 C528 1.385 . S
C528 H502 0.930 . S
C528 C527 1.385 . S
C528 C529 1.357 . S
C529 C528 1.357 . S
C529 C530 1.406 . S
C530 H504 0.929 . S
C530 C529 1.406 . S
C530 C531 1.391 . S
C531 H503 0.931 . S
C531 C526 1.370 . S
C531 C530 1.391 . S
C532 N501 1.435 . S
C532 C533 1.358 . S
C532 C537 1.371 . S
C533 H505 0.930 . S
C533 C532 1.358 . S
C533 C534 1.405 . S
C534 H506 0.932 . S
C534 C533 1.405 . S
C534 C535 1.383 . S
C535 C534 1.383 . S
C535 C536 1.393 . S
C536 H508 0.931 . S
C536 C535 1.393 . S
C536 C537 1.382 . S
C537 H507 0.929 . S
C537 C532 1.371 . S
C537 C536 1.382 . S
C538 N501 1.423 . S
C538 C539 1.362 . S
C538 C543 1.388 . S
C539 H509 0.929 . S
C539 C538 1.362 . S
C539 C540 1.376 . S
C540 H511 0.931 . S
C540 C539 1.376 . S
C540 C541 1.396 . S
C541 C540 1.396 . S
C541 C542 1.348 . S
C541 C559 1.472 . S
C542 H512 0.929 . S
C542 C541 1.348 . S
C542 C543 1.443 . S
C543 H510 0.932 . S
C543 C538 1.388 . S
C543 C542 1.443 . S
C544 N524 1.433 . S
C544 C545 1.363 . S
C544 C549 1.370 . S
C545 H513 0.929 . S
C545 C544 1.363 . S
C545 C546 1.385 . S
C546 H514 0.930 . S
C546 C545 1.385 . S
C546 C547 1.357 . S
C547 C546 1.357 . S
C547 C548 1.406 . S
C548 H515 0.929 . S
C548 C547 1.406 . S
C548 C549 1.391 . S
C549 H516 0.931 . S
C549 C544 1.370 . S
C549 C548 1.391 . S
C550 N524 1.435 . S
C550 C551 1.358 . S
C550 C555 1.371 . S
C551 H517 0.930 . S
C551 C550 1.358 . S
C551 C552 1.405 . S
C552 H518 0.932 . S
C552 C551 1.405 . S
C552 C553 1.383 . S
C553 C552 1.383 . S
C553 C554 1.393 . S
C554 H519 0.931 . S
C554 C553 1.393 . S
C554 C555 1.382 . S
C555 H520 0.929 . S
C555 C550 1.371 . S
C555 C554 1.382 . S
C556 N524 1.423 . S
C556 C557 1.362 . S
C556 C561 1.388 . S
C557 H521 0.929 . S
C557 C556 1.362 . S
C557 C558 1.376 . S
C558 H522 0.931 . S
C558 C557 1.376 . S
C558 C559 1.396 . S
C559 C541 1.472 . S
C559 C558 1.396 . S
C559 C560 1.348 . S
C560 H523 0.929 . S
C560 C559 1.348 . S
C560 C561 1.443 . S
C561 H525 0.932 . S
C561 C556 1.388 . S
C561 C560 1.443 . S
H562 C589 0.929 . S
N563 C588 1.433 . S
N563 C594 1.435 . S
N563 C600 1.423 . S
H564 C590 0.930 . S
H565 C593 0.931 . S
H566 C592 0.929 . S
H567 C595 0.930 . S
H568 C596 0.932 . S
H569 C599 0.929 . S
H570 C598 0.931 . S
H571 C601 0.929 . S
H572 C605 0.932 . S
H573 C602 0.931 . S
H574 C604 0.929 . S
H575 C607 0.929 . S
H576 C608 0.930 . S
H577 C610 0.929 . S
H578 C611 0.931 . S
H579 C613 0.930 . S
H580 C614 0.932 . S
H581 C616 0.931 . S
H582 C617 0.929 . S
H583 C619 0.929 . S
H584 C620 0.931 . S
H585 C622 0.929 . S
N586 C606 1.433 . S
N586 C612 1.435 . S
N586 C618 1.423 . S
H587 C623 0.932 . S
C588 N563 1.433 . S
C588 C589 1.363 . S
C588 C593 1.370 . S
C589 H562 0.929 . S
C589 C588 1.363 . S
C589 C590 1.385 . S
C590 H564 0.930 . S
C590 C589 1.385 . S
C590 C591 1.357 . S
C591 C590 1.357 . S
C591 C592 1.406 . S
C592 H566 0.929 . S
C592 C591 1.406 . S
C592 C593 1.391 . S
C593 H565 0.931 . S
C593 C588 1.370 . S
C593 C592 1.391 . S
C594 N563 1.435 . S
C594 C595 1.358 . S
C594 C599 1.371 . S
C595 H567 0.930 . S
C595 C594 1.358 . S
C595 C596 1.405 . S
C596 H568 0.932 . S
C596 C595 1.405 . S
C596 C597 1.383 . S
C597 C596 1.383 . S
C597 C598 1.393 . S
C598 H570 0.931 . S
C598 C597 1.393 . S
C598 C599 1.382 . S
C599 H569 0.929 . S
C599 C594 1.371 . S
C599 C598 1.382 . S
C600 N563 1.423 . S
C600 C601 1.362 . S
C600 C605 1.388 . S
C601 H571 0.929 . S
C601 C600 1.362 . S
C601 C602 1.376 . S
C602 H573 0.931 . S
C602 C601 1.376 . S
C602 C603 1.396 . S
C603 C602 1.396 . S
C603 C604 1.348 . S
C603 C621 1.472 . S
C604 H574 0.929 . S
C604 C603 1.348 . S
C604 C605 1.443 . S
C605 H572 0.932 . S
C605 C600 1.388 . S
C605 C604 1.443 . S
C606 N586 1.433 . S
C606 C607 1.363 . S
C606 C611 1.370 . S
C607 H575 0.929 . S
C607 C606 1.363 . S
C607 C608 1.385 . S
C608 H576 0.930 . S
C608 C607 1.385 . S
C608 C609 1.357 . S
C609 C608 1.357 . S
C609 C610 1.406 . S
C610 H577 0.929 . S
C610 C609 1.406 . S
C610 C611 1.391 . S
C611 H578 0.931 . S
C611 C606 1.370 . S
C611 C610 1.391 . S
C612 N586 1.435 . S
C612 C613 1.358 . S
C612 C617 1.371 . S
C613 H579 0.930 . S
C613 C612 1.358 . S
C613 C614 1.405 . S
C614 H580 0.932 . S
C614 C613 1.405 . S
C614 C615 1.383 . S
C615 C614 1.383 . S
C615 C616 1.393 . S
C616 H581 0.931 . S
C616 C615 1.393 . S
C616 C617 1.382 . S
C617 H582 0.929 . S
C617 C612 1.371 . S
C617 C616 1.382 . S
C618 N586 1.423 . S
C618 C619 1.362 . S
C618 C623 1.388 . S
C619 H583 0.929 . S
C619 C618 1.362 . S
C619 C620 1.376 . S
C620 H584 0.931 . S
C620 C619 1.376 . S
C620 C621 1.396 . S
C621 C603 1.472 . S
C621 C620 1.396 . S
C621 C622 1.348 . S
C622 H585 0.929 . S
C622 C621 1.348 . S
C622 C623 1.443 . S
C623 H587 0.932 . S
C623 C618 1.388 . S
C623 C622 1.443 . S
H624 C651 0.929 . S
N625 C650 1.433 . S
N625 C656 1.435 . S
N625 C662 1.423 . S
H626 C652 0.930 . S
H627 C655 0.931 . S
H628 C654 0.929 . S
H629 C657 0.930 . S
H630 C658 0.932 . S
H631 C661 0.929 . S
H632 C660 0.931 . S
H633 C663 0.929 . S
H634 C667 0.932 . S
H635 C664 0.931 . S
H636 C666 0.929 . S
H637 C669 0.929 . S
H638 C670 0.930 . S
H639 C672 0.929 . S
H640 C673 0.931 . S
H641 C675 0.930 . S
H642 C676 0.932 . S
H643 C678 0.931 . S
H644 C679 0.929 . S
H645 C681 0.929 . S
H646 C682 0.931 . S
H647 C684 0.929 . S
N648 C668 1.433 . S
N648 C674 1.435 . S
N648 C680 1.423 . S
H649 C685 0.932 . S
C650 N625 1.433 . S
C650 C651 1.363 . S
C650 C655 1.370 . S
C651 H624 0.929 . S
C651 C650 1.363 . S
C651 C652 1.385 . S
C652 H626 0.930 . S
C652 C651 1.385 . S
C652 C653 1.357 . S
C653 C652 1.357 . S
C653 C654 1.406 . S
C654 H628 0.929 . S
C654 C653 1.406 . S
C654 C655 1.391 . S
C655 H627 0.931 . S
C655 C650 1.370 . S
C655 C654 1.391 . S
C656 N625 1.435 . S
C656 C657 1.358 . S
C656 C661 1.371 . S
C657 H629 0.930 . S
C657 C656 1.358 . S
C657 C658 1.405 . S
C658 H630 0.932 . S
C658 C657 1.405 . S
C658 C659 1.383 . S
C659 C658 1.383 . S
C659 C660 1.393 . S
C660 H632 0.931 . S
C660 C659 1.393 . S
C660 C661 1.382 . S
C661 H631 0.929 . S
C661 C656 1.371 . S
C661 C660 1.382 . S
C662 N625 1.423 . S
C662 C663 1.362 . S
C662 C667 1.388 . S
C663 H633 0.929 . S
C663 C662 1.362 . S
C663 C664 1.376 . S
C664 H635 0.931 . S
C664 C663 1.376 . S
C664 C665 1.396 . S
C665 C664 1.396 . S
C665 C666 1.348 . S
C665 C683 1.472 . S
C666 H636 0.929 . S
C666 C665 1.348 . S
C666 C667 1.443 . S
C667 H634 0.932 . S
C667 C662 1.388 . S
C667 C666 1.443 . S
C668 N648 1.433 . S
C668 C669 1.363 . S
C668 C673 1.370 . S
C669 H637 0.929 . S
C669 C668 1.363 . S
C669 C670 1.385 . S
C670 H638 0.930 . S
C670 C669 1.385 . S
C670 C671 1.357 . S
C671 C670 1.357 . S
C671 C672 1.406 . S
C672 H639 0.929 . S
C672 C671 1.406 . S
C672 C673 1.391 . S
C673 H640 0.931 . S
C673 C668 1.370 . S
C673 C672 1.391 . S
C674 N648 1.435 . S
C674 C675 1.358 . S
C674 C679 1.371 . S
C675 H641 0.930 . S
C675 C674 1.358 . S
C675 C676 1.405 . S
C676 H642 0.932 . S
C676 C675 1.405 . S
C676 C677 1.383 . S
C677 C676 1.383 . S
C677 C678 1.393 . S
C678 H643 0.931 . S
C678 C677 1.393 . S
C678 C679 1.382 . S
C679 H644 0.929 . S
C679 C674 1.371 . S
C679 C678 1.382 . S
C680 N648 1.423 . S
C680 C681 1.362 . S
C680 C685 1.388 . S
C681 H645 0.929 . S
C681 C680 1.362 . S
C681 C682 1.376 . S
C682 H646 0.931 . S
C682 C681 1.376 . S
C682 C683 1.396 . S
C683 C665 1.472 . S
C683 C682 1.396 . S
C683 C684 1.348 . S
C684 H647 0.929 . S
C684 C683 1.348 . S
C684 C685 1.443 . S
C685 H649 0.932 . S
C685 C680 1.388 . S
C685 C684 1.443 . S
H686 C713 0.929 . S
N687 C712 1.433 . S
N687 C718 1.435 . S
N687 C724 1.423 . S
H688 C714 0.930 . S
H689 C717 0.931 . S
H690 C716 0.929 . S
H691 C719 0.930 . S
H692 C720 0.932 . S
H693 C723 0.929 . S
H694 C722 0.931 . S
H695 C725 0.929 . S
H696 C729 0.932 . S
H697 C726 0.931 . S
H698 C728 0.929 . S
H699 C731 0.929 . S
H700 C732 0.930 . S
H701 C734 0.929 . S
H702 C735 0.931 . S
H703 C737 0.930 . S
H704 C738 0.932 . S
H705 C740 0.931 . S
H706 C741 0.929 . S
H707 C743 0.929 . S
H708 C744 0.931 . S
H709 C746 0.929 . S
N710 C730 1.433 . S
N710 C736 1.435 . S
N710 C742 1.423 . S
H711 C747 0.932 . S
C712 N687 1.433 . S
C712 C713 1.363 . S
C712 C717 1.370 . S
C713 H686 0.929 . S
C713 C712 1.363 . S
C713 C714 1.385 . S
C714 H688 0.930 . S
C714 C713 1.385 . S
C714 C715 1.357 . S
C715 C714 1.357 . S
C715 C716 1.406 . S
C716 H690 0.929 . S
C716 C715 1.406 . S
C716 C717 1.391 . S
C717 H689 0.931 . S
C717 C712 1.370 . S
C717 C716 1.391 . S
C718 N687 1.435 . S
C718 C719 1.358 . S
C718 C723 1.371 . S
C719 H691 0.930 . S
C719 C718 1.358 . S
C719 C720 1.405 . S
C720 H692 0.932 . S
C720 C719 1.405 . S
C720 C721 1.383 . S
C721 C720 1.383 . S
C721 C722 1.393 . S
C722 H694 0.931 . S
C722 C721 1.393 . S
C722 C723 1.382 . S
C723 H693 0.929 . S
C723 C718 1.371 . S
C723 C722 1.382 . S
C724 N687 1.423 . S
C724 C725 1.362 . S
C724 C729 1.388 . S
C725 H695 0.929 . S
C725 C724 1.362 . S
C725 C726 1.376 . S
C726 H697 0.931 . S
C726 C725 1.376 . S
C726 C727 1.396 . S
C727 C726 1.396 . S
C727 C728 1.348 . S
C727 C745 1.472 . S
C728 H698 0.929 . S
C728 C727 1.348 . S
C728 C729 1.443 . S
C729 H696 0.932 . S
C729 C724 1.388 . S
C729 C728 1.443 . S
C730 N710 1.433 . S
C730 C731 1.363 . S
C730 C735 1.370 . S
C731 H699 0.929 . S
C731 C730 1.363 . S
C731 C732 1.385 . S
C732 H700 0.930 . S
C732 C731 1.385 . S
C732 C733 1.357 . S
C733 C732 1.357 . S
C733 C734 1.406 . S
C734 H701 0.929 . S
C734 C733 1.406 . S
C734 C735 1.391 . S
C735 H702 0.931 . S
C735 C730 1.370 . S
C735 C734 1.391 . S
C736 N710 1.435 . S
C736 C737 1.358 . S
C736 C741 1.371 . S
C737 H703 0.930 . S
C737 C736 1.358 . S
C737 C738 1.405 . S
C738 H704 0.932 . S
C738 C737 1.405 . S
C738 C739 1.383 . S
C739 C738 1.383 . S
C739 C740 1.393 . S
C740 H705 0.931 . S
C740 C739 1.393 . S
C740 C741 1.382 . S
C741 H706 0.929 . S
C741 C736 1.371 . S
C741 C740 1.382 . S
C742 N710 1.423 . S
C742 C743 1.362 . S
C742 C747 1.388 . S
C743 H707 0.929 . S
C743 C742 1.362 . S
C743 C744 1.376 . S
C744 H708 0.931 . S
C744 C743 1.376 . S
C744 C745 1.396 . S
C745 C727 1.472 . S
C745 C744 1.396 . S
C745 C746 1.348 . S
C746 H709 0.929 . S
C746 C745 1.348 . S
C746 C747 1.443 . S
C747 H711 0.932 . S
C747 C742 1.388 . S
C747 C746 1.443 . S
H748 C775 0.929 . S
N749 C774 1.433 . S
N749 C780 1.435 . S
N749 C786 1.423 . S
H750 C776 0.930 . S
H751 C779 0.931 . S
H752 C778 0.929 . S
H753 C781 0.930 . S
H754 C782 0.932 . S
H755 C785 0.929 . S
H756 C784 0.931 . S
H757 C787 0.929 . S
H758 C791 0.932 . S
H759 C788 0.931 . S
H760 C790 0.929 . S
H761 C793 0.929 . S
H762 C794 0.930 . S
H763 C796 0.929 . S
H764 C797 0.931 . S
H765 C799 0.930 . S
H766 C800 0.932 . S
H767 C802 0.931 . S
H768 C803 0.929 . S
H769 C805 0.929 . S
H770 C806 0.931 . S
H771 C808 0.929 . S
N772 C792 1.433 . S
N772 C798 1.435 . S
N772 C804 1.423 . S
H773 C809 0.932 . S
C774 N749 1.433 . S
C774 C775 1.363 . S
C774 C779 1.370 . S
C775 H748 0.929 . S
C775 C774 1.363 . S
C775 C776 1.385 . S
C776 H750 0.930 . S
C776 C775 1.385 . S
C776 C777 1.357 . S
C777 C776 1.357 . S
C777 C778 1.406 . S
C778 H752 0.929 . S
C778 C777 1.406 . S
C778 C779 1.391 . S
C779 H751 0.931 . S
C779 C774 1.370 . S
C779 C778 1.391 . S
C780 N749 1.435 . S
C780 C781 1.358 . S
C780 C785 1.371 . S
C781 H753 0.930 . S
C781 C780 1.358 . S
C781 C782 1.405 . S
C782 H754 0.932 . S
C782 C781 1.405 . S
C782 C783 1.383 . S
C783 C782 1.383 . S
C783 C784 1.393 . S
C784 H756 0.931 . S
C784 C783 1.393 . S
C784 C785 1.382 . S
C785 H755 0.929 . S
C785 C780 1.371 . S
C785 C784 1.382 . S
C786 N749 1.423 . S
C786 C787 1.362 . S
C786 C791 1.388 . S
C787 H757 0.929 . S
C787 C786 1.362 . S
C787 C788 1.376 . S
C788 H759 0.931 . S
C788 C787 1.376 . S
C788 C789 1.396 . S
C789 C788 1.396 . S
C789 C790 1.348 . S
C789 C807 1.472 . S
C790 H760 0.929 . S
C790 C789 1.348 . S
C790 C791 1.443 . S
C791 H758 0.932 . S
C791 C786 1.388 . S
C791 C790 1.443 . S
C792 N772 1.433 . S
C792 C793 1.363 . S
C792 C797 1.370 . S
C793 H761 0.929 . S
C793 C792 1.363 . S
C793 C794 1.385 . S
C794 H762 0.930 . S
C794 C793 1.385 . S
C794 C795 1.357 . S
C795 C794 1.357 . S
C795 C796 1.406 . S
C796 H763 0.929 . S
C796 C795 1.406 . S
C796 C797 1.391 . S
C797 H764 0.931 . S
C797 C792 1.370 . S
C797 C796 1.391 . S
C798 N772 1.435 . S
C798 C799 1.358 . S
C798 C803 1.371 . S
C799 H765 0.930 . S
C799 C798 1.358 . S
C799 C800 1.405 . S
C800 H766 0.932 . S
C800 C799 1.405 . S
C800 C801 1.383 . S
C801 C800 1.383 . S
C801 C802 1.393 . S
C802 H767 0.931 . S
C802 C801 1.393 . S
C802 C803 1.382 . S
C803 H768 0.929 . S
C803 C798 1.371 . S
C803 C802 1.382 . S
C804 N772 1.423 . S
C804 C805 1.362 . S
C804 C809 1.388 . S
C805 H769 0.929 . S
C805 C804 1.362 . S
C805 C806 1.376 . S
C806 H770 0.931 . S
C806 C805 1.376 . S
C806 C807 1.396 . S
C807 C789 1.472 . S
C807 C806 1.396 . S
C807 C808 1.348 . S
C808 H771 0.929 . S
C808 C807 1.348 . S
C808 C809 1.443 . S
C809 H773 0.932 . S
C809 C804 1.388 . S
C809 C808 1.443 . S
H810 C837 0.929 . S
N811 C836 1.433 . S
N811 C842 1.435 . S
N811 C848 1.423 . S
H812 C838 0.930 . S
H813 C841 0.931 . S
H814 C840 0.929 . S
H815 C843 0.930 . S
H816 C844 0.932 . S
H817 C847 0.929 . S
H818 C846 0.931 . S
H819 C849 0.929 . S
H820 C853 0.932 1_655 S
H821 C850 0.931 . S
H822 C852 0.938 . S
H823 C855 0.929 . S
H824 C856 0.930 . S
H825 C858 0.929 . S
H826 C859 0.931 . S
H827 C861 0.930 . S
H828 C862 0.932 . S
H829 C864 0.931 . S
H830 C865 0.929 . S
H831 C867 0.929 . S
H832 C868 0.931 . S
H833 C870 0.979 . S
N834 C854 1.433 . S
N834 C860 1.435 . S
N834 C866 1.423 . S
H835 C871 0.932 1_655 S
C836 N811 1.433 . S
C836 C837 1.363 . S
C836 C841 1.370 1_455 S
C837 H810 0.929 . S
C837 C836 1.363 . S
C837 C838 1.385 . S
C838 H812 0.930 . S
C838 C837 1.385 . S
C838 C839 1.357 1_455 S
C839 C838 1.357 1_655 S
C839 C840 1.406 . S
C840 H814 0.929 . S
C840 C839 1.406 . S
C840 C841 1.391 . S
C841 H813 0.931 . S
C841 C836 1.370 1_655 S
C841 C840 1.391 . S
C842 N811 1.435 . S
C842 C843 1.358 1_455 S
C842 C847 1.371 . S
C843 H815 0.930 . S
C843 C842 1.358 1_655 S
C843 C844 1.405 . S
C844 H816 0.932 . S
C844 C843 1.405 . S
C844 C845 1.383 1_655 S
C845 C844 1.383 1_455 S
C845 C846 1.393 . S
C846 H818 0.931 . S
C846 C845 1.393 . S
C846 C847 1.382 . S
C847 H817 0.929 . S
C847 C842 1.371 . S
C847 C846 1.382 . S
C848 N811 1.423 . S
C848 C849 1.362 . S
C848 C853 1.388 . S
C849 H819 0.929 . S
C849 C848 1.362 . S
C849 C850 1.376 . S
C850 H821 0.931 . S
C850 C849 1.376 . S
C850 C851 1.396 . S
C851 C850 1.396 . S
C851 C852 1.348 . S
C851 C869 1.472 . S
C852 H822 0.938 . S
C852 C851 1.348 . S
C852 C853 1.443 . S
C853 H820 0.932 1_455 S
C853 C848 1.388 . S
C853 C852 1.443 . S
C854 N834 1.433 . S
C854 C855 1.363 . S
C854 C859 1.370 1_455 S
C855 H823 0.929 . S
C855 C854 1.363 . S
C855 C856 1.385 . S
C856 H824 0.930 . S
C856 C855 1.385 . S
C856 C857 1.357 1_455 S
C857 C856 1.357 1_655 S
C857 C858 1.406 . S
C858 H825 0.929 . S
C858 C857 1.406 . S
C858 C859 1.391 . S
C859 H826 0.931 . S
C859 C854 1.370 1_655 S
C859 C858 1.391 . S
C860 N834 1.435 . S
C860 C861 1.358 1_455 S
C860 C865 1.371 . S
C861 H827 0.930 . S
C861 C860 1.358 1_655 S
C861 C862 1.405 . S
C862 H828 0.932 . S
C862 C861 1.405 . S
C862 C863 1.383 1_655 S
C863 C862 1.383 1_455 S
C863 C864 1.393 . S
C864 H829 0.931 . S
C864 C863 1.393 . S
C864 C865 1.382 . S
C865 H830 0.929 . S
C865 C860 1.371 . S
C865 C864 1.382 . S
C866 N834 1.423 . S
C866 C867 1.362 . S
C866 C871 1.388 . S
C867 H831 0.929 . S
C867 C866 1.362 . S
C867 C868 1.376 . S
C868 H832 0.931 . S
C868 C867 1.376 . S
C868 C869 1.396 . S
C869 C851 1.472 . S
C869 C868 1.396 . S
C869 C870 1.348 . S
C870 H833 0.979 . S
C870 C869 1.348 . S
C870 C871 1.443 . S
C871 H835 0.932 1_455 S
C871 C866 1.388 . S
C871 C870 1.443 . S
H872 C899 0.929 . S
N873 C898 1.433 . S
N873 C904 1.435 . S
N873 C910 1.423 . S
H874 C900 0.930 . S
H875 C903 0.931 . S
H876 C902 0.929 . S
H877 C905 0.930 . S
H878 C906 0.932 . S
H879 C909 0.929 . S
H880 C908 0.931 . S
H881 C911 0.929 . S
H882 C915 0.932 . S
H883 C912 0.931 . S
H884 C914 0.929 . S
H885 C917 0.929 . S
H886 C918 0.930 . S
H887 C920 0.929 . S
H888 C921 0.931 . S
H889 C923 0.930 . S
H890 C924 0.932 . S
H891 C926 0.931 . S
H892 C927 0.929 . S
H893 C929 0.929 . S
H894 C930 0.931 . S
H895 C932 0.929 . S
N896 C916 1.433 . S
N896 C922 1.435 . S
N896 C928 1.423 . S
H897 C933 0.932 . S
C898 N873 1.433 . S
C898 C899 1.363 . S
C898 C903 1.370 . S
C899 H872 0.929 . S
C899 C898 1.363 . S
C899 C900 1.385 . S
C900 H874 0.930 . S
C900 C899 1.385 . S
C900 C901 1.357 . S
C901 C900 1.357 . S
C901 C902 1.406 . S
C902 H876 0.929 . S
C902 C901 1.406 . S
C902 C903 1.391 . S
C903 H875 0.931 . S
C903 C898 1.370 . S
C903 C902 1.391 . S
C904 N873 1.435 . S
C904 C905 1.358 . S
C904 C909 1.371 . S
C905 H877 0.930 . S
C905 C904 1.358 . S
C905 C906 1.405 . S
C906 H878 0.932 . S
C906 C905 1.405 . S
C906 C907 1.383 . S
C907 C906 1.383 . S
C907 C908 1.393 . S
C908 H880 0.931 . S
C908 C907 1.393 . S
C908 C909 1.382 . S
C909 H879 0.929 . S
C909 C904 1.371 . S
C909 C908 1.382 . S
C910 N873 1.423 . S
C910 C911 1.362 . S
C910 C915 1.388 . S
C911 H881 0.929 . S
C911 C910 1.362 . S
C911 C912 1.376 . S
C912 H883 0.931 . S
C912 C911 1.376 . S
C912 C913 1.396 . S
C913 C912 1.396 . S
C913 C914 1.348 . S
C913 C931 1.472 . S
C914 H884 0.929 . S
C914 C913 1.348 . S
C914 C915 1.443 . S
C915 H882 0.932 . S
C915 C910 1.388 . S
C915 C914 1.443 . S
C916 N896 1.433 . S
C916 C917 1.363 . S
C916 C921 1.370 . S
C917 H885 0.929 . S
C917 C916 1.363 . S
C917 C918 1.385 . S
C918 H886 0.930 . S
C918 C917 1.385 . S
C918 C919 1.357 . S
C919 C918 1.357 . S
C919 C920 1.406 . S
C920 H887 0.929 . S
C920 C919 1.406 . S
C920 C921 1.391 . S
C921 H888 0.931 . S
C921 C916 1.370 . S
C921 C920 1.391 . S
C922 N896 1.435 . S
C922 C923 1.358 . S
C922 C927 1.371 . S
C923 H889 0.930 . S
C923 C922 1.358 . S
C923 C924 1.405 . S
C924 H890 0.932 . S
C924 C923 1.405 . S
C924 C925 1.383 . S
C925 C924 1.383 . S
C925 C926 1.393 . S
C926 H891 0.931 . S
C926 C925 1.393 . S
C926 C927 1.382 . S
C927 H892 0.929 . S
C927 C922 1.371 . S
C927 C926 1.382 . S
C928 N896 1.423 . S
C928 C929 1.362 . S
C928 C933 1.388 . S
C929 H893 0.929 . S
C929 C928 1.362 . S
C929 C930 1.376 . S
C930 H894 0.931 . S
C930 C929 1.376 . S
C930 C931 1.396 . S
C931 C913 1.472 . S
C931 C930 1.396 . S
C931 C932 1.348 . S
C932 H895 0.929 . S
C932 C931 1.348 . S
C932 C933 1.443 . S
C933 H897 0.932 . S
C933 C928 1.388 . S
C933 C932 1.443 . S
H934 C961 0.929 . S
N935 C960 1.433 . S
N935 C966 1.435 . S
N935 C972 1.423 . S
H936 C962 0.930 . S
H937 C965 0.931 . S
H938 C964 0.929 . S
H939 C967 0.930 . S
H940 C968 0.932 . S
H941 C971 0.929 . S
H942 C970 0.931 . S
H943 C973 0.929 . S
H944 C977 0.932 1_545 S
H945 C974 0.931 . S
H946 C976 0.982 . S
H947 C979 0.929 . S
H948 C980 0.930 . S
H949 C982 0.929 . S
H950 C983 0.931 . S
H951 C985 0.930 . S
H952 C986 0.932 . S
H953 C988 0.931 . S
H954 C989 0.929 . S
H955 C991 0.929 . S
H956 C992 0.931 . S
H957 C994 0.938 . S
N958 C978 1.433 . S
N958 C984 1.435 . S
N958 C990 1.423 . S
H959 C995 0.932 1_545 S
C960 N935 1.433 . S
C960 C961 1.363 . S
C960 C965 1.370 1_565 S
C961 H934 0.929 . S
C961 C960 1.363 . S
C961 C962 1.385 . S
C962 H936 0.930 . S
C962 C961 1.385 . S
C962 C963 1.357 1_565 S
C963 C962 1.357 1_545 S
C963 C964 1.406 . S
C964 H938 0.929 . S
C964 C963 1.406 . S
C964 C965 1.391 . S
C965 H937 0.931 . S
C965 C960 1.370 1_545 S
C965 C964 1.391 . S
C966 N935 1.435 . S
C966 C967 1.358 1_565 S
C966 C971 1.371 . S
C967 H939 0.930 . S
C967 C966 1.358 1_545 S
C967 C968 1.405 . S
C968 H940 0.932 . S
C968 C967 1.405 . S
C968 C969 1.383 1_545 S
C969 C968 1.383 1_565 S
C969 C970 1.393 . S
C970 H942 0.931 . S
C970 C969 1.393 . S
C970 C971 1.382 . S
C971 H941 0.929 . S
C971 C966 1.371 . S
C971 C970 1.382 . S
C972 N935 1.423 . S
C972 C973 1.362 . S
C972 C977 1.388 . S
C973 H943 0.929 . S
C973 C972 1.362 . S
C973 C974 1.376 . S
C974 H945 0.931 . S
C974 C973 1.376 . S
C974 C975 1.396 . S
C975 C974 1.396 . S
C975 C976 1.348 . S
C975 C993 1.472 . S
C976 H946 0.982 . S
C976 C975 1.348 . S
C976 C977 1.443 . S
C977 H944 0.932 1_565 S
C977 C972 1.388 . S
C977 C976 1.443 . S
C978 N958 1.433 . S
C978 C979 1.363 . S
C978 C983 1.370 1_565 S
C979 H947 0.929 . S
C979 C978 1.363 . S
C979 C980 1.385 . S
C980 H948 0.930 . S
C980 C979 1.385 . S
C980 C981 1.357 1_565 S
C981 C980 1.357 1_545 S
C981 C982 1.406 . S
C982 H949 0.929 . S
C982 C981 1.406 . S
C982 C983 1.391 . S
C983 H950 0.931 . S
C983 C978 1.370 1_545 S
C983 C982 1.391 . S
C984 N958 1.435 . S
C984 C985 1.358 1_565 S
C984 C989 1.371 . S
C985 H951 0.930 . S
C985 C984 1.358 1_545 S
C985 C986 1.405 . S
C986 H952 0.932 . S
C986 C985 1.405 . S
C986 C987 1.383 1_545 S
C987 C986 1.383 1_565 S
C987 C988 1.393 . S
C988 H953 0.931 . S
C988 C987 1.393 . S
C988 C989 1.382 . S
C989 H954 0.929 . S
C989 C984 1.371 . S
C989 C988 1.382 . S
C990 N958 1.423 . S
C990 C991 1.362 . S
C990 C995 1.388 . S
C991 H955 0.929 . S
C991 C990 1.362 . S
C991 C992 1.376 . S
C992 H956 0.931 . S
C992 C991 1.376 . S
C992 C993 1.396 . S
C993 C975 1.472 . S
C993 C992 1.396 . S
C993 C994 1.348 . S
C994 H957 0.938 . S
C994 C993 1.348 . S
C994 C995 1.443 . S
C995 H959 0.932 1_565 S
C995 C990 1.388 . S
C995 C994 1.443 . S
H996 C1023 0.929 . S
N997 C1022 1.433 . S
N997 C1028 1.435 . S
N997 C1034 1.423 . S
H998 C1024 0.930 . S
H999 C1027 0.931 . S
H1000 C1026 0.929 . S
H1001 C1029 0.930 . S
H1002 C1030 0.932 . S
H1003 C1033 0.929 . S
H1004 C1032 0.931 . S
H1005 C1035 0.929 . S
H1006 C1039 0.932 . S
H1007 C1036 0.931 . S
H1008 C1038 0.918 1_545 S
H1009 C1041 0.929 . S
H1010 C1042 0.930 . S
H1011 C1044 0.929 . S
H1012 C1045 0.992 . S
H1013 C1047 0.930 . S
H1014 C1048 0.932 . S
H1015 C1050 0.931 . S
H1016 C1051 0.929 . S
H1017 C1053 0.929 . S
H1018 C1054 0.931 . S
H1019 C1056 0.878 1_545 S
N1020 C1040 1.433 . S
N1020 C1046 1.435 . S
N1020 C1052 1.423 . S
H1021 C1057 0.958 . S
C1022 N997 1.433 . S
C1022 C1023 1.363 . S
C1022 C1027 1.370 1_565 S
C1023 H996 0.929 . S
C1023 C1022 1.363 . S
C1023 C1024 1.385 . S
C1024 H998 0.930 . S
C1024 C1023 1.385 . S
C1024 C1025 1.357 . S
C1025 C1024 1.357 . S
C1025 C1026 1.406 1_565 S
C1026 H1000 0.929 . S
C1026 C1025 1.406 1_545 S
C1026 C1027 1.391 . S
C1027 H999 0.931 . S
C1027 C1022 1.370 1_545 S
C1027 C1026 1.391 . S
C1028 N997 1.435 . S
C1028 C1029 1.358 1_565 S
C1028 C1033 1.371 . S
C1029 H1001 0.930 . S
C1029 C1028 1.358 1_545 S
C1029 C1030 1.405 . S
C1030 H1002 0.932 . S
C1030 C1029 1.405 . S
C1030 C1031 1.383 . S
C1031 C1030 1.383 . S
C1031 C1032 1.393 1_545 S
C1032 H1004 0.931 . S
C1032 C1031 1.393 1_565 S
C1032 C1033 1.382 . S
C1033 H1003 0.929 . S
C1033 C1028 1.371 . S
C1033 C1032 1.382 . S
C1034 N997 1.423 . S
C1034 C1035 1.362 . S
C1034 C1039 1.388 1_565 S
C1035 H1005 0.929 . S
C1035 C1034 1.362 . S
C1035 C1036 1.376 . S
C1036 H1007 0.931 . S
C1036 C1035 1.376 . S
C1036 C1037 1.396 . S
C1037 C1036 1.396 . S
C1037 C1038 1.398 . S
C1037 C1055 1.472 . S
C1038 H1008 0.918 1_565 S
C1038 C1037 1.398 . S
C1038 C1039 1.407 1_565 S
C1039 H1006 0.932 . S
C1039 C1034 1.388 1_545 S
C1039 C1038 1.407 1_545 S
C1040 N1020 1.433 . S
C1040 C1041 1.363 . S
C1040 C1045 1.322 1_565 S
C1041 H1009 0.929 . S
C1041 C1040 1.363 . S
C1041 C1042 1.385 . S
C1042 H1010 0.930 . S
C1042 C1041 1.385 . S
C1042 C1043 1.357 . S
C1043 C1042 1.357 . S
C1043 C1044 1.406 1_565 S
C1044 H1011 0.929 . S
C1044 C1043 1.406 1_545 S
C1044 C1045 1.382 . S
C1045 H1012 0.992 . S
C1045 C1040 1.322 1_545 S
C1045 C1044 1.382 . S
C1046 N1020 1.435 . S
C1046 C1047 1.358 1_565 S
C1046 C1051 1.371 . S
C1047 H1013 0.930 . S
C1047 C1046 1.358 1_545 S
C1047 C1048 1.405 . S
C1048 H1014 0.932 . S
C1048 C1047 1.405 . S
C1048 C1049 1.383 . S
C1049 C1048 1.383 . S
C1049 C1050 1.393 1_545 S
C1050 H1015 0.931 . S
C1050 C1049 1.393 1_565 S
C1050 C1051 1.382 . S
C1051 H1016 0.929 . S
C1051 C1046 1.371 . S
C1051 C1050 1.382 . S
C1052 N1020 1.423 . S
C1052 C1053 1.362 . S
C1052 C1057 1.336 1_565 S
C1053 H1017 0.929 . S
C1053 C1052 1.362 . S
C1053 C1054 1.376 . S
C1054 H1018 0.931 . S
C1054 C1053 1.376 . S
C1054 C1055 1.396 . S
C1055 C1037 1.472 . S
C1055 C1054 1.396 . S
C1055 C1056 1.369 . S
C1056 H1019 0.878 1_565 S
C1056 C1055 1.369 . S
C1056 C1057 1.509 1_565 S
C1057 H1021 0.958 . S
C1057 C1052 1.336 1_545 S
C1057 C1056 1.509 1_545 S
H1058 C1085 0.929 . S
N1059 C1084 1.433 . S
N1059 C1090 1.435 . S
N1059 C1096 1.423 . S
H1060 C1086 0.930 . S
H1061 C1089 0.931 . S
H1062 C1088 0.929 . S
H1063 C1091 0.930 . S
H1064 C1092 0.932 . S
H1065 C1095 0.929 . S
H1066 C1094 0.931 . S
H1067 C1097 0.929 . S
H1068 C1101 0.932 1_455 S
H1069 C1098 0.931 . S
H1070 C1100 0.976 . S
H1071 C1103 0.929 . S
H1072 C1104 0.930 . S
H1073 C1106 0.929 . S
H1074 C1107 0.931 . S
H1075 C1109 0.930 . S
H1076 C1110 0.932 . S
H1077 C1112 0.931 . S
H1078 C1113 0.929 . S
H1079 C1115 0.929 . S
H1080 C1116 0.931 . S
H1081 C1118 0.938 . S
N1082 C1102 1.433 . S
N1082 C1108 1.435 . S
N1082 C1114 1.423 . S
H1083 C1119 0.932 1_455 S
C1084 N1059 1.433 . S
C1084 C1085 1.363 . S
C1084 C1089 1.370 1_655 S
C1085 H1058 0.929 . S
C1085 C1084 1.363 . S
C1085 C1086 1.385 . S
C1086 H1060 0.930 . S
C1086 C1085 1.385 . S
C1086 C1087 1.357 1_655 S
C1087 C1086 1.357 1_455 S
C1087 C1088 1.406 . S
C1088 H1062 0.929 . S
C1088 C1087 1.406 . S
C1088 C1089 1.391 . S
C1089 H1061 0.931 . S
C1089 C1084 1.370 1_455 S
C1089 C1088 1.391 . S
C1090 N1059 1.435 . S
C1090 C1091 1.358 1_655 S
C1090 C1095 1.371 . S
C1091 H1063 0.930 . S
C1091 C1090 1.358 1_455 S
C1091 C1092 1.405 . S
C1092 H1064 0.932 . S
C1092 C1091 1.405 . S
C1092 C1093 1.383 1_455 S
C1093 C1092 1.383 1_655 S
C1093 C1094 1.393 . S
C1094 H1066 0.931 . S
C1094 C1093 1.393 . S
C1094 C1095 1.382 . S
C1095 H1065 0.929 . S
C1095 C1090 1.371 . S
C1095 C1094 1.382 . S
C1096 N1059 1.423 . S
C1096 C1097 1.362 . S
C1096 C1101 1.388 . S
C1097 H1067 0.929 . S
C1097 C1096 1.362 . S
C1097 C1098 1.376 . S
C1098 H1069 0.931 . S
C1098 C1097 1.376 . S
C1098 C1099 1.396 . S
C1099 C1098 1.396 . S
C1099 C1100 1.348 . S
C1099 C1117 1.472 . S
C1100 H1070 0.976 . S
C1100 C1099 1.348 . S
C1100 C1101 1.443 . S
C1101 H1068 0.932 1_655 S
C1101 C1096 1.388 . S
C1101 C1100 1.443 . S
C1102 N1082 1.433 . S
C1102 C1103 1.363 . S
C1102 C1107 1.370 1_655 S
C1103 H1071 0.929 . S
C1103 C1102 1.363 . S
C1103 C1104 1.385 . S
C1104 H1072 0.930 . S
C1104 C1103 1.385 . S
C1104 C1105 1.357 1_655 S
C1105 C1104 1.357 1_455 S
C1105 C1106 1.406 . S
C1106 H1073 0.929 . S
C1106 C1105 1.406 . S
C1106 C1107 1.391 . S
C1107 H1074 0.931 . S
C1107 C1102 1.370 1_455 S
C1107 C1106 1.391 . S
C1108 N1082 1.435 . S
C1108 C1109 1.358 1_655 S
C1108 C1113 1.371 . S
C1109 H1075 0.930 . S
C1109 C1108 1.358 1_455 S
C1109 C1110 1.405 . S
C1110 H1076 0.932 . S
C1110 C1109 1.405 . S
C1110 C1111 1.383 1_455 S
C1111 C1110 1.383 1_655 S
C1111 C1112 1.393 . S
C1112 H1077 0.931 . S
C1112 C1111 1.393 . S
C1112 C1113 1.382 . S
C1113 H1078 0.929 . S
C1113 C1108 1.371 . S
C1113 C1112 1.382 . S
C1114 N1082 1.423 . S
C1114 C1115 1.362 . S
C1114 C1119 1.388 . S
C1115 H1079 0.929 . S
C1115 C1114 1.362 . S
C1115 C1116 1.376 . S
C1116 H1080 0.931 . S
C1116 C1115 1.376 . S
C1116 C1117 1.396 . S
C1117 C1099 1.472 . S
C1117 C1116 1.396 . S
C1117 C1118 1.348 . S
C1118 H1081 0.938 . S
C1118 C1117 1.348 . S
C1118 C1119 1.443 . S
C1119 H1083 0.932 1_655 S
C1119 C1114 1.388 . S
C1119 C1118 1.443 . S
H1120 C1147 0.929 . S
N1121 C1146 1.433 . S
N1121 C1152 1.435 . S
N1121 C1158 1.423 . S
H1122 C1148 0.930 . S
H1123 C1151 0.931 . S
H1124 C1150 0.929 . S
H1125 C1153 0.930 . S
H1126 C1154 0.932 . S
H1127 C1157 0.929 . S
H1128 C1156 0.931 . S
H1129 C1159 0.929 . S
H1130 C1163 0.932 . S
H1131 C1160 0.931 . S
H1132 C1162 0.929 . S
H1133 C1165 0.929 . S
H1134 C1166 0.930 . S
H1135 C1168 0.929 . S
H1136 C1169 0.931 . S
H1137 C1171 0.930 . S
H1138 C1172 0.932 . S
H1139 C1174 0.931 . S
H1140 C1175 0.929 . S
H1141 C1177 0.929 . S
H1142 C1178 0.931 . S
H1143 C1180 0.929 . S
N1144 C1164 1.433 . S
N1144 C1170 1.435 . S
N1144 C1176 1.423 . S
H1145 C1181 0.932 . S
C1146 N1121 1.433 . S
C1146 C1147 1.363 . S
C1146 C1151 1.370 . S
C1147 H1120 0.929 . S
C1147 C1146 1.363 . S
C1147 C1148 1.385 . S
C1148 H1122 0.930 . S
C1148 C1147 1.385 . S
C1148 C1149 1.357 . S
C1149 C1148 1.357 . S
C1149 C1150 1.406 . S
C1150 H1124 0.929 . S
C1150 C1149 1.406 . S
C1150 C1151 1.391 . S
C1151 H1123 0.931 . S
C1151 C1146 1.370 . S
C1151 C1150 1.391 . S
C1152 N1121 1.435 . S
C1152 C1153 1.358 . S
C1152 C1157 1.371 . S
C1153 H1125 0.930 . S
C1153 C1152 1.358 . S
C1153 C1154 1.405 . S
C1154 H1126 0.932 . S
C1154 C1153 1.405 . S
C1154 C1155 1.383 . S
C1155 C1154 1.383 . S
C1155 C1156 1.393 . S
C1156 H1128 0.931 . S
C1156 C1155 1.393 . S
C1156 C1157 1.382 . S
C1157 H1127 0.929 . S
C1157 C1152 1.371 . S
C1157 C1156 1.382 . S
C1158 N1121 1.423 . S
C1158 C1159 1.362 . S
C1158 C1163 1.388 . S
C1159 H1129 0.929 . S
C1159 C1158 1.362 . S
C1159 C1160 1.376 . S
C1160 H1131 0.931 . S
C1160 C1159 1.376 . S
C1160 C1161 1.396 . S
C1161 C1160 1.396 . S
C1161 C1162 1.348 . S
C1161 C1179 1.472 . S
C1162 H1132 0.929 . S
C1162 C1161 1.348 . S
C1162 C1163 1.443 . S
C1163 H1130 0.932 . S
C1163 C1158 1.388 . S
C1163 C1162 1.443 . S
C1164 N1144 1.433 . S
C1164 C1165 1.363 . S
C1164 C1169 1.370 . S
C1165 H1133 0.929 . S
C1165 C1164 1.363 . S
C1165 C1166 1.385 . S
C1166 H1134 0.930 . S
C1166 C1165 1.385 . S
C1166 C1167 1.357 . S
C1167 C1166 1.357 . S
C1167 C1168 1.406 . S
C1168 H1135 0.929 . S
C1168 C1167 1.406 . S
C1168 C1169 1.391 . S
C1169 H1136 0.931 . S
C1169 C1164 1.370 . S
C1169 C1168 1.391 . S
C1170 N1144 1.435 . S
C1170 C1171 1.358 . S
C1170 C1175 1.371 . S
C1171 H1137 0.930 . S
C1171 C1170 1.358 . S
C1171 C1172 1.405 . S
C1172 H1138 0.932 . S
C1172 C1171 1.405 . S
C1172 C1173 1.383 . S
C1173 C1172 1.383 . S
C1173 C1174 1.393 . S
C1174 H1139 0.931 . S
C1174 C1173 1.393 . S
C1174 C1175 1.382 . S
C1175 H1140 0.929 . S
C1175 C1170 1.371 . S
C1175 C1174 1.382 . S
C1176 N1144 1.423 . S
C1176 C1177 1.362 . S
C1176 C1181 1.388 . S
C1177 H1141 0.929 . S
C1177 C1176 1.362 . S
C1177 C1178 1.376 . S
C1178 H1142 0.931 . S
C1178 C1177 1.376 . S
C1178 C1179 1.396 . S
C1179 C1161 1.472 . S
C1179 C1178 1.396 . S
C1179 C1180 1.348 . S
C1180 H1143 0.929 . S
C1180 C1179 1.348 . S
C1180 C1181 1.443 . S
C1181 H1145 0.932 . S
C1181 C1176 1.388 . S
C1181 C1180 1.443 . S
H1182 C1209 0.929 . S
N1183 C1208 1.433 . S
N1183 C1214 1.435 . S
N1183 C1220 1.423 . S
H1184 C1210 0.930 . S
H1185 C1213 0.931 . S
H1186 C1212 0.929 . S
H1187 C1215 0.930 . S
H1188 C1216 0.932 . S
H1189 C1219 0.929 . S
H1190 C1218 0.931 . S
H1191 C1221 0.929 . S
H1192 C1225 0.932 . S
H1193 C1222 0.931 . S
H1194 C1224 0.929 . S
H1195 C1227 0.929 . S
H1196 C1228 0.930 . S
H1197 C1230 0.929 . S
H1198 C1231 0.931 . S
H1199 C1233 0.930 . S
H1200 C1234 0.932 . S
H1201 C1236 0.931 . S
H1202 C1237 0.929 . S
H1203 C1239 0.929 . S
H1204 C1240 0.931 . S
H1205 C1242 0.929 . S
N1206 C1226 1.433 . S
N1206 C1232 1.435 . S
N1206 C1238 1.423 . S
H1207 C1243 0.932 . S
C1208 N1183 1.433 . S
C1208 C1209 1.363 . S
C1208 C1213 1.370 . S
C1209 H1182 0.929 . S
C1209 C1208 1.363 . S
C1209 C1210 1.385 . S
C1210 H1184 0.930 . S
C1210 C1209 1.385 . S
C1210 C1211 1.357 . S
C1211 C1210 1.357 . S
C1211 C1212 1.406 . S
C1212 H1186 0.929 . S
C1212 C1211 1.406 . S
C1212 C1213 1.391 . S
C1213 H1185 0.931 . S
C1213 C1208 1.370 . S
C1213 C1212 1.391 . S
C1214 N1183 1.435 . S
C1214 C1215 1.358 . S
C1214 C1219 1.371 . S
C1215 H1187 0.930 . S
C1215 C1214 1.358 . S
C1215 C1216 1.405 . S
C1216 H1188 0.932 . S
C1216 C1215 1.405 . S
C1216 C1217 1.383 . S
C1217 C1216 1.383 . S
C1217 C1218 1.393 . S
C1218 H1190 0.931 . S
C1218 C1217 1.393 . S
C1218 C1219 1.382 . S
C1219 H1189 0.929 . S
C1219 C1214 1.371 . S
C1219 C1218 1.382 . S
C1220 N1183 1.423 . S
C1220 C1221 1.362 . S
C1220 C1225 1.388 . S
C1221 H1191 0.929 . S
C1221 C1220 1.362 . S
C1221 C1222 1.376 . S
C1222 H1193 0.931 . S
C1222 C1221 1.376 . S
C1222 C1223 1.396 . S
C1223 C1222 1.396 . S
C1223 C1224 1.348 . S
C1223 C1241 1.472 . S
C1224 H1194 0.929 . S
C1224 C1223 1.348 . S
C1224 C1225 1.443 . S
C1225 H1192 0.932 . S
C1225 C1220 1.388 . S
C1225 C1224 1.443 . S
C1226 N1206 1.433 . S
C1226 C1227 1.363 . S
C1226 C1231 1.370 . S
C1227 H1195 0.929 . S
C1227 C1226 1.363 . S
C1227 C1228 1.385 . S
C1228 H1196 0.930 . S
C1228 C1227 1.385 . S
C1228 C1229 1.357 . S
C1229 C1228 1.357 . S
C1229 C1230 1.406 . S
C1230 H1197 0.929 . S
C1230 C1229 1.406 . S
C1230 C1231 1.391 . S
C1231 H1198 0.931 . S
C1231 C1226 1.370 . S
C1231 C1230 1.391 . S
C1232 N1206 1.435 . S
C1232 C1233 1.358 . S
C1232 C1237 1.371 . S
C1233 H1199 0.930 . S
C1233 C1232 1.358 . S
C1233 C1234 1.405 . S
C1234 H1200 0.932 . S
C1234 C1233 1.405 . S
C1234 C1235 1.383 . S
C1235 C1234 1.383 . S
C1235 C1236 1.393 . S
C1236 H1201 0.931 . S
C1236 C1235 1.393 . S
C1236 C1237 1.382 . S
C1237 H1202 0.929 . S
C1237 C1232 1.371 . S
C1237 C1236 1.382 . S
C1238 N1206 1.423 . S
C1238 C1239 1.362 . S
C1238 C1243 1.388 . S
C1239 H1203 0.929 . S
C1239 C1238 1.362 . S
C1239 C1240 1.376 . S
C1240 H1204 0.931 . S
C1240 C1239 1.376 . S
C1240 C1241 1.396 . S
C1241 C1223 1.472 . S
C1241 C1240 1.396 . S
C1241 C1242 1.348 . S
C1242 H1205 0.929 . S
C1242 C1241 1.348 . S
C1242 C1243 1.443 . S
C1243 H1207 0.932 . S
C1243 C1238 1.388 . S
C1243 C1242 1.443 . S
H1244 C1271 0.929 . S
N1245 C1270 1.433 . S
N1245 C1276 1.435 . S
N1245 C1282 1.423 . S
H1246 C1272 0.930 . S
H1247 C1275 0.931 . S
H1248 C1274 0.929 . S
H1249 C1277 0.930 . S
H1250 C1278 0.932 . S
H1251 C1281 0.929 . S
H1252 C1280 0.931 . S
H1253 C1283 0.929 . S
H1254 C1287 0.932 . S
H1255 C1284 0.931 . S
H1256 C1286 0.929 . S
H1257 C1289 0.929 . S
H1258 C1290 0.930 . S
H1259 C1292 0.929 . S
H1260 C1293 0.931 . S
H1261 C1295 0.930 . S
H1262 C1296 0.932 . S
H1263 C1298 0.931 . S
H1264 C1299 0.929 . S
H1265 C1301 0.929 . S
H1266 C1302 0.931 . S
H1267 C1304 0.929 . S
N1268 C1288 1.433 . S
N1268 C1294 1.435 . S
N1268 C1300 1.423 . S
H1269 C1305 0.932 . S
C1270 N1245 1.433 . S
C1270 C1271 1.363 . S
C1270 C1275 1.370 . S
C1271 H1244 0.929 . S
C1271 C1270 1.363 . S
C1271 C1272 1.385 . S
C1272 H1246 0.930 . S
C1272 C1271 1.385 . S
C1272 C1273 1.357 . S
C1273 C1272 1.357 . S
C1273 C1274 1.406 . S
C1274 H1248 0.929 . S
C1274 C1273 1.406 . S
C1274 C1275 1.391 . S
C1275 H1247 0.931 . S
C1275 C1270 1.370 . S
C1275 C1274 1.391 . S
C1276 N1245 1.435 . S
C1276 C1277 1.358 . S
C1276 C1281 1.371 . S
C1277 H1249 0.930 . S
C1277 C1276 1.358 . S
C1277 C1278 1.405 . S
C1278 H1250 0.932 . S
C1278 C1277 1.405 . S
C1278 C1279 1.383 . S
C1279 C1278 1.383 . S
C1279 C1280 1.393 . S
C1280 H1252 0.931 . S
C1280 C1279 1.393 . S
C1280 C1281 1.382 . S
C1281 H1251 0.929 . S
C1281 C1276 1.371 . S
C1281 C1280 1.382 . S
C1282 N1245 1.423 . S
C1282 C1283 1.362 . S
C1282 C1287 1.388 . S
C1283 H1253 0.929 . S
C1283 C1282 1.362 . S
C1283 C1284 1.376 . S
C1284 H1255 0.931 . S
C1284 C1283 1.376 . S
C1284 C1285 1.396 . S
C1285 C1284 1.396 . S
C1285 C1286 1.348 . S
C1285 C1303 1.472 . S
C1286 H1256 0.929 . S
C1286 C1285 1.348 . S
C1286 C1287 1.443 . S
C1287 H1254 0.932 . S
C1287 C1282 1.388 . S
C1287 C1286 1.443 . S
C1288 N1268 1.433 . S
C1288 C1289 1.363 . S
C1288 C1293 1.370 . S
C1289 H1257 0.929 . S
C1289 C1288 1.363 . S
C1289 C1290 1.385 . S
C1290 H1258 0.930 . S
C1290 C1289 1.385 . S
C1290 C1291 1.357 . S
C1291 C1290 1.357 . S
C1291 C1292 1.406 . S
C1292 H1259 0.929 . S
C1292 C1291 1.406 . S
C1292 C1293 1.391 . S
C1293 H1260 0.931 . S
C1293 C1288 1.370 . S
C1293 C1292 1.391 . S
C1294 N1268 1.435 . S
C1294 C1295 1.358 . S
C1294 C1299 1.371 . S
C1295 H1261 0.930 . S
C1295 C1294 1.358 . S
C1295 C1296 1.405 . S
C1296 H1262 0.932 . S
C1296 C1295 1.405 . S
C1296 C1297 1.383 . S
C1297 C1296 1.383 . S
C1297 C1298 1.393 . S
C1298 H1263 0.931 . S
C1298 C1297 1.393 . S
C1298 C1299 1.382 . S
C1299 H1264 0.929 . S
C1299 C1294 1.371 . S
C1299 C1298 1.382 . S
C1300 N1268 1.423 . S
C1300 C1301 1.362 . S
C1300 C1305 1.388 . S
C1301 H1265 0.929 . S
C1301 C1300 1.362 . S
C1301 C1302 1.376 . S
C1302 H1266 0.931 . S
C1302 C1301 1.376 . S
C1302 C1303 1.396 . S
C1303 C1285 1.472 . S
C1303 C1302 1.396 . S
C1303 C1304 1.348 . S
C1304 H1267 0.929 . S
C1304 C1303 1.348 . S
C1304 C1305 1.443 . S
C1305 H1269 0.932 . S
C1305 C1300 1.388 . S
C1305 C1304 1.443 . S
H1306 C1333 0.929 . S
N1307 C1332 1.433 . S
N1307 C1338 1.435 . S
N1307 C1344 1.423 . S
H1308 C1334 0.930 . S
H1309 C1337 0.931 . S
H1310 C1336 0.929 . S
H1311 C1339 0.930 . S
H1312 C1340 0.932 . S
H1313 C1343 0.929 . S
H1314 C1342 0.931 . S
H1315 C1345 0.929 . S
H1316 C1349 0.932 . S
H1317 C1346 0.931 . S
H1318 C1348 0.929 . S
H1319 C1351 0.929 . S
H1320 C1352 0.930 . S
H1321 C1354 0.929 . S
H1322 C1355 0.931 . S
H1323 C1357 0.930 . S
H1324 C1358 0.932 . S
H1325 C1360 0.931 . S
H1326 C1361 0.929 . S
H1327 C1363 0.929 . S
H1328 C1364 0.931 . S
H1329 C1366 0.929 . S
N1330 C1350 1.433 . S
N1330 C1356 1.435 . S
N1330 C1362 1.423 . S
H1331 C1367 0.932 . S
C1332 N1307 1.433 . S
C1332 C1333 1.363 . S
C1332 C1337 1.370 . S
C1333 H1306 0.929 . S
C1333 C1332 1.363 . S
C1333 C1334 1.385 . S
C1334 H1308 0.930 . S
C1334 C1333 1.385 . S
C1334 C1335 1.357 . S
C1335 C1334 1.357 . S
C1335 C1336 1.406 . S
C1336 H1310 0.929 . S
C1336 C1335 1.406 . S
C1336 C1337 1.391 . S
C1337 H1309 0.931 . S
C1337 C1332 1.370 . S
C1337 C1336 1.391 . S
C1338 N1307 1.435 . S
C1338 C1339 1.358 . S
C1338 C1343 1.371 . S
C1339 H1311 0.930 . S
C1339 C1338 1.358 . S
C1339 C1340 1.405 . S
C1340 H1312 0.932 . S
C1340 C1339 1.405 . S
C1340 C1341 1.383 . S
C1341 C1340 1.383 . S
C1341 C1342 1.393 . S
C1342 H1314 0.931 . S
C1342 C1341 1.393 . S
C1342 C1343 1.382 . S
C1343 H1313 0.929 . S
C1343 C1338 1.371 . S
C1343 C1342 1.382 . S
C1344 N1307 1.423 . S
C1344 C1345 1.362 . S
C1344 C1349 1.388 . S
C1345 H1315 0.929 . S
C1345 C1344 1.362 . S
C1345 C1346 1.376 . S
C1346 H1317 0.931 . S
C1346 C1345 1.376 . S
C1346 C1347 1.396 . S
C1347 C1346 1.396 . S
C1347 C1348 1.348 . S
C1347 C1365 1.472 . S
C1348 H1318 0.929 . S
C1348 C1347 1.348 . S
C1348 C1349 1.443 . S
C1349 H1316 0.932 . S
C1349 C1344 1.388 . S
C1349 C1348 1.443 . S
C1350 N1330 1.433 . S
C1350 C1351 1.363 . S
C1350 C1355 1.370 . S
C1351 H1319 0.929 . S
C1351 C1350 1.363 . S
C1351 C1352 1.385 . S
C1352 H1320 0.930 . S
C1352 C1351 1.385 . S
C1352 C1353 1.357 . S
C1353 C1352 1.357 . S
C1353 C1354 1.406 . S
C1354 H1321 0.929 . S
C1354 C1353 1.406 . S
C1354 C1355 1.391 . S
C1355 H1322 0.931 . S
C1355 C1350 1.370 . S
C1355 C1354 1.391 . S
C1356 N1330 1.435 . S
C1356 C1357 1.358 . S
C1356 C1361 1.371 . S
C1357 H1323 0.930 . S
C1357 C1356 1.358 . S
C1357 C1358 1.405 . S
C1358 H1324 0.932 . S
C1358 C1357 1.405 . S
C1358 C1359 1.383 . S
C1359 C1358 1.383 . S
C1359 C1360 1.393 . S
C1360 H1325 0.931 . S
C1360 C1359 1.393 . S
C1360 C1361 1.382 . S
C1361 H1326 0.929 . S
C1361 C1356 1.371 . S
C1361 C1360 1.382 . S
C1362 N1330 1.423 . S
C1362 C1363 1.362 . S
C1362 C1367 1.388 . S
C1363 H1327 0.929 . S
C1363 C1362 1.362 . S
C1363 C1364 1.376 . S
C1364 H1328 0.931 . S
C1364 C1363 1.376 . S
C1364 C1365 1.396 . S
C1365 C1347 1.472 . S
C1365 C1364 1.396 . S
C1365 C1366 1.348 . S
C1366 H1329 0.929 . S
C1366 C1365 1.348 . S
C1366 C1367 1.443 . S
C1367 H1331 0.932 . S
C1367 C1362 1.388 . S
C1367 C1366 1.443 . S
H1368 C1380 0.930 . S
H1369 C1382 0.930 . S
H1370 C1383 0.930 . S
H1371 C1387 0.959 . S
H1372 C1387 0.959 . S
H1373 C1387 0.961 . S
H1374 C1388 0.960 . S
H1375 C1388 0.961 . S
H1376 C1388 0.959 . S
H1377 C1391 0.929 . S
H1378 C1392 0.931 . S
H1379 C1394 0.930 . S
C1380 H1368 0.930 . S
C1380 C1381 1.399 1_455 S
C1380 C1385 1.399 . S
C1381 C1380 1.399 1_655 S
C1381 C1382 1.376 . S
C1382 H1369 0.930 . S
C1382 C1381 1.376 . S
C1382 C1383 1.388 . S
C1383 H1370 0.930 . S
C1383 C1382 1.388 . S
C1383 C1384 1.390 . S
C1384 C1383 1.390 . S
C1384 C1385 1.394 1_655 S
C1384 C1390 1.465 . S
C1385 C1380 1.399 . S
C1385 C1384 1.394 1_455 S
C1385 C1386 1.516 . S
C1386 C1385 1.516 . S
C1386 C1387 1.502 . S
C1386 C1388 1.561 . S
C1386 C1389 1.526 . S
C1387 H1371 0.959 . S
C1387 H1372 0.959 . S
C1387 H1373 0.961 . S
C1387 C1386 1.502 . S
C1388 H1374 0.960 . S
C1388 H1375 0.961 . S
C1388 H1376 0.959 . S
C1388 C1386 1.561 . S
C1389 C1386 1.526 . S
C1389 C1390 1.396 1_455 S
C1389 C1394 1.390 . S
C1390 C1384 1.465 . S
C1390 C1389 1.396 1_655 S
C1390 C1391 1.399 . S
C1391 H1377 0.929 . S
C1391 C1390 1.399 . S
C1391 C1392 1.385 . S
C1392 H1378 0.931 . S
C1392 C1391 1.385 . S
C1392 C1393 1.389 . S
C1393 C1392 1.389 . S
C1393 C1394 1.387 1_655 S
C1394 H1379 0.930 . S
C1394 C1389 1.390 . S
C1394 C1393 1.387 1_455 S
H1395 C1407 0.930 . S
H1396 C1409 0.930 . S
H1397 C1410 0.930 . S
H1398 C1414 0.959 . S
H1399 C1414 0.959 . S
H1400 C1414 0.961 . S
H1401 C1415 0.960 . S
H1402 C1415 0.961 . S
H1403 C1415 0.959 . S
H1404 C1418 0.929 . S
H1405 C1419 0.931 . S
H1406 C1421 0.930 . S
C1407 H1395 0.930 . S
C1407 C1408 1.399 . S
C1407 C1412 1.399 . S
C1408 C1407 1.399 . S
C1408 C1409 1.376 . S
C1409 H1396 0.930 . S
C1409 C1408 1.376 . S
C1409 C1410 1.388 . S
C1410 H1397 0.930 . S
C1410 C1409 1.388 . S
C1410 C1411 1.390 . S
C1411 C1410 1.390 . S
C1411 C1412 1.394 . S
C1411 C1417 1.465 . S
C1412 C1407 1.399 . S
C1412 C1411 1.394 . S
C1412 C1413 1.516 . S
C1413 C1412 1.516 . S
C1413 C1414 1.502 . S
C1413 C1415 1.561 . S
C1413 C1416 1.526 . S
C1414 H1398 0.959 . S
C1414 H1399 0.959 . S
C1414 H1400 0.961 . S
C1414 C1413 1.502 . S
C1415 H1401 0.960 . S
C1415 H1402 0.961 . S
C1415 H1403 0.959 . S
C1415 C1413 1.561 . S
C1416 C1413 1.526 . S
C1416 C1417 1.396 . S
C1416 C1421 1.390 . S
C1417 C1411 1.465 . S
C1417 C1416 1.396 . S
C1417 C1418 1.399 . S
C1418 H1404 0.929 . S
C1418 C1417 1.399 . S
C1418 C1419 1.385 . S
C1419 H1405 0.931 . S
C1419 C1418 1.385 . S
C1419 C1420 1.389 . S
C1420 C1419 1.389 . S
C1420 C1421 1.387 . S
C1421 H1406 0.930 . S
C1421 C1416 1.390 . S
C1421 C1420 1.387 . S
H1422 C1434 0.930 . S
H1423 C1436 0.930 . S
H1424 C1437 0.930 . S
H1425 C1441 0.959 . S
H1426 C1441 0.959 . S
H1427 C1441 0.961 . S
H1428 C1442 0.960 . S
H1429 C1442 0.961 . S
H1430 C1442 0.959 . S
H1431 C1445 0.929 . S
H1432 C1446 0.931 . S
H1433 C1448 0.930 . S
C1434 H1422 0.930 . S
C1434 C1435 1.399 . S
C1434 C1439 1.399 . S
C1435 C1434 1.399 . S
C1435 C1436 1.376 1_545 S
C1436 H1423 0.930 . S
C1436 C1435 1.376 1_565 S
C1436 C1437 1.388 . S
C1437 H1424 0.930 . S
C1437 C1436 1.388 . S
C1437 C1438 1.399 . S
C1438 C1437 1.399 . S
C1438 C1439 1.363 1_565 S
C1438 C1444 1.464 . S
C1439 C1434 1.399 . S
C1439 C1438 1.363 1_545 S
C1439 C1440 1.516 . S
C1440 C1439 1.516 . S
C1440 C1441 1.502 . S
C1440 C1442 1.561 . S
C1440 C1443 1.526 . S
C1441 H1425 0.959 . S
C1441 H1426 0.959 . S
C1441 H1427 0.961 . S
C1441 C1440 1.502 . S
C1442 H1428 0.960 . S
C1442 H1429 0.961 . S
C1442 H1430 0.959 . S
C1442 C1440 1.561 . S
C1443 C1440 1.526 . S
C1443 C1444 1.376 1_545 S
C1443 C1448 1.390 . S
C1444 C1438 1.464 . S
C1444 C1443 1.376 1_565 S
C1444 C1445 1.435 . S
C1445 H1431 0.929 . S
C1445 C1444 1.435 . S
C1445 C1446 1.385 . S
C1446 H1432 0.931 . S
C1446 C1445 1.385 . S
C1446 C1447 1.389 1_565 S
C1447 C1446 1.389 1_545 S
C1447 C1448 1.387 . S
C1448 H1433 0.930 . S
C1448 C1443 1.390 . S
C1448 C1447 1.387 . S
H1449 C1461 0.930 . S
H1450 C1463 0.930 . S
H1451 C1464 0.930 . S
H1452 C1468 0.959 . S
H1453 C1468 0.959 . S
H1454 C1468 0.961 . S
H1455 C1469 0.960 . S
H1456 C1469 0.961 . S
H1457 C1469 0.959 . S
H1458 C1472 0.929 . S
H1459 C1473 0.931 . S
H1460 C1475 0.930 . S
C1461 H1449 0.930 . S
C1461 C1462 1.399 1_565 S
C1461 C1466 1.399 . S
C1462 C1461 1.399 1_545 S
C1462 C1463 1.376 . S
C1463 H1450 0.930 . S
C1463 C1462 1.376 . S
C1463 C1464 1.388 . S
C1464 H1451 0.930 . S
C1464 C1463 1.388 . S
C1464 C1465 1.390 . S
C1465 C1464 1.390 . S
C1465 C1466 1.394 1_545 S
C1465 C1471 1.465 . S
C1466 C1461 1.399 . S
C1466 C1465 1.394 1_565 S
C1466 C1467 1.516 . S
C1467 C1466 1.516 . S
C1467 C1468 1.502 . S
C1467 C1469 1.561 . S
C1467 C1470 1.526 . S
C1468 H1452 0.959 . S
C1468 H1453 0.959 . S
C1468 H1454 0.961 . S
C1468 C1467 1.502 . S
C1469 H1455 0.960 . S
C1469 H1456 0.961 . S
C1469 H1457 0.959 . S
C1469 C1467 1.561 . S
C1470 C1467 1.526 . S
C1470 C1471 1.396 1_565 S
C1470 C1475 1.390 . S
C1471 C1465 1.465 . S
C1471 C1470 1.396 1_545 S
C1471 C1472 1.399 . S
C1472 H1458 0.929 . S
C1472 C1471 1.399 . S
C1472 C1473 1.385 . S
C1473 H1459 0.931 . S
C1473 C1472 1.385 . S
C1473 C1474 1.389 1_545 S
C1474 C1473 1.389 1_565 S
C1474 C1475 1.387 . S
C1475 H1460 0.930 . S
C1475 C1470 1.390 . S
C1475 C1474 1.387 . S
H1476 C1488 0.930 . S
H1477 C1490 0.930 . S
H1478 C1491 0.930 . S
H1479 C1495 0.959 . S
H1480 C1495 0.959 . S
H1481 C1495 0.961 . S
H1482 C1496 0.960 . S
H1483 C1496 0.961 . S
H1484 C1496 0.959 1_655 S
H1485 C1499 0.929 . S
H1486 C1500 0.931 . S
H1487 C1502 0.930 . S
C1488 H1476 0.930 . S
C1488 C1489 1.399 . S
C1488 C1493 1.399 . S
C1489 C1488 1.399 . S
C1489 C1490 1.376 1_455 S
C1490 H1477 0.930 . S
C1490 C1489 1.376 1_655 S
C1490 C1491 1.388 . S
C1491 H1478 0.930 . S
C1491 C1490 1.388 . S
C1491 C1492 1.390 . S
C1492 C1491 1.390 . S
C1492 C1493 1.394 1_655 S
C1492 C1498 1.465 . S
C1493 C1488 1.399 . S
C1493 C1492 1.394 1_455 S
C1493 C1494 1.516 . S
C1494 C1493 1.516 . S
C1494 C1495 1.502 . S
C1494 C1496 1.561 . S
C1494 C1497 1.526 . S
C1495 H1479 0.959 . S
C1495 H1480 0.959 . S
C1495 H1481 0.961 . S
C1495 C1494 1.502 . S
C1496 H1482 0.960 . S
C1496 H1483 0.961 . S
C1496 H1484 0.959 1_455 S
C1496 C1494 1.561 . S
C1497 C1494 1.526 . S
C1497 C1498 1.396 1_455 S
C1497 C1502 1.390 . S
C1498 C1492 1.465 . S
C1498 C1497 1.396 1_655 S
C1498 C1499 1.399 . S
C1499 H1485 0.929 . S
C1499 C1498 1.399 . S
C1499 C1500 1.385 . S
C1500 H1486 0.931 . S
C1500 C1499 1.385 . S
C1500 C1501 1.389 1_655 S
C1501 C1500 1.389 1_455 S
C1501 C1502 1.387 . S
C1502 H1487 0.930 . S
C1502 C1497 1.390 . S
C1502 C1501 1.387 . S
H1503 C1515 0.930 . S
H1504 C1517 0.930 . S
H1505 C1518 0.930 . S
H1506 C1522 0.959 . S
H1507 C1522 0.959 . S
H1508 C1522 0.961 . S
H1509 C1523 0.960 . S
H1510 C1523 0.961 . S
H1511 C1523 0.959 . S
H1512 C1526 0.929 . S
H1513 C1527 0.931 . S
H1514 C1529 0.930 . S
C1515 H1503 0.930 . S
C1515 C1516 1.399 . S
C1515 C1520 1.399 . S
C1516 C1515 1.399 . S
C1516 C1517 1.376 . S
C1517 H1504 0.930 . S
C1517 C1516 1.376 . S
C1517 C1518 1.388 . S
C1518 H1505 0.930 . S
C1518 C1517 1.388 . S
C1518 C1519 1.390 . S
C1519 C1518 1.390 . S
C1519 C1520 1.394 . S
C1519 C1525 1.465 . S
C1520 C1515 1.399 . S
C1520 C1519 1.394 . S
C1520 C1521 1.516 . S
C1521 C1520 1.516 . S
C1521 C1522 1.502 . S
C1521 C1523 1.561 . S
C1521 C1524 1.526 . S
C1522 H1506 0.959 . S
C1522 H1507 0.959 . S
C1522 H1508 0.961 . S
C1522 C1521 1.502 . S
C1523 H1509 0.960 . S
C1523 H1510 0.961 . S
C1523 H1511 0.959 . S
C1523 C1521 1.561 . S
C1524 C1521 1.526 . S
C1524 C1525 1.396 . S
C1524 C1529 1.390 . S
C1525 C1519 1.465 . S
C1525 C1524 1.396 . S
C1525 C1526 1.399 . S
C1526 H1512 0.929 . S
C1526 C1525 1.399 . S
C1526 C1527 1.385 . S
C1527 H1513 0.931 . S
C1527 C1526 1.385 . S
C1527 C1528 1.389 . S
C1528 C1527 1.389 . S
C1528 C1529 1.387 . S
C1529 H1514 0.930 . S
C1529 C1524 1.390 . S
C1529 C1528 1.387 . S
H1530 C1542 0.930 . S
H1531 C1544 0.930 . S
H1532 C1545 0.930 . S
H1533 C1549 0.959 . S
H1534 C1549 0.959 . S
H1535 C1549 0.961 . S
H1536 C1550 0.960 . S
H1537 C1550 0.961 . S
H1538 C1550 0.959 . S
H1539 C1553 0.929 . S
H1540 C1554 0.931 . S
H1541 C1556 0.930 . S
C1542 H1530 0.930 . S
C1542 C1543 1.399 . S
C1542 C1547 1.399 . S
C1543 C1542 1.399 . S
C1543 C1544 1.376 1_455 S
C1544 H1531 0.930 . S
C1544 C1543 1.376 1_655 S
C1544 C1545 1.388 . S
C1545 H1532 0.930 . S
C1545 C1544 1.388 . S
C1545 C1546 1.390 . S
C1546 C1545 1.390 . S
C1546 C1547 1.394 1_655 S
C1546 C1552 1.465 . S
C1547 C1542 1.399 . S
C1547 C1546 1.394 1_455 S
C1547 C1548 1.516 . S
C1548 C1547 1.516 . S
C1548 C1549 1.502 . S
C1548 C1550 1.561 . S
C1548 C1551 1.526 . S
C1549 H1533 0.959 . S
C1549 H1534 0.959 . S
C1549 H1535 0.961 . S
C1549 C1548 1.502 . S
C1550 H1536 0.960 . S
C1550 H1537 0.961 . S
C1550 H1538 0.959 . S
C1550 C1548 1.561 . S
C1551 C1548 1.526 . S
C1551 C1552 1.396 1_455 S
C1551 C1556 1.390 . S
C1552 C1546 1.465 . S
C1552 C1551 1.396 1_655 S
C1552 C1553 1.399 . S
C1553 H1539 0.929 . S
C1553 C1552 1.399 . S
C1553 C1554 1.385 . S
C1554 H1540 0.931 . S
C1554 C1553 1.385 . S
C1554 C1555 1.389 1_655 S
C1555 C1554 1.389 1_455 S
C1555 C1556 1.387 . S
C1556 H1541 0.930 . S
C1556 C1551 1.390 . S
C1556 C1555 1.387 . S
H1557 C1569 0.930 . S
H1558 C1571 0.930 . S
H1559 C1572 0.930 . S
H1560 C1576 0.959 . S
H1561 C1576 0.959 . S
H1562 C1576 0.961 . S
H1563 C1577 0.960 . S
H1564 C1577 0.961 . S
H1565 C1577 0.959 . S
H1566 C1580 0.929 . S
H1567 C1581 0.931 . S
H1568 C1583 0.930 . S
C1569 H1557 0.930 . S
C1569 C1570 1.399 . S
C1569 C1574 1.399 . S
C1570 C1569 1.399 . S
C1570 C1571 1.376 . S
C1571 H1558 0.930 . S
C1571 C1570 1.376 . S
C1571 C1572 1.388 . S
C1572 H1559 0.930 . S
C1572 C1571 1.388 . S
C1572 C1573 1.390 . S
C1573 C1572 1.390 . S
C1573 C1574 1.394 . S
C1573 C1579 1.465 . S
C1574 C1569 1.399 . S
C1574 C1573 1.394 . S
C1574 C1575 1.516 . S
C1575 C1574 1.516 . S
C1575 C1576 1.502 . S
C1575 C1577 1.561 . S
C1575 C1578 1.526 . S
C1576 H1560 0.959 . S
C1576 H1561 0.959 . S
C1576 H1562 0.961 . S
C1576 C1575 1.502 . S
C1577 H1563 0.960 . S
C1577 H1564 0.961 . S
C1577 H1565 0.959 . S
C1577 C1575 1.561 . S
C1578 C1575 1.526 . S
C1578 C1579 1.396 . S
C1578 C1583 1.390 . S
C1579 C1573 1.465 . S
C1579 C1578 1.396 . S
C1579 C1580 1.399 . S
C1580 H1566 0.929 . S
C1580 C1579 1.399 . S
C1580 C1581 1.385 . S
C1581 H1567 0.931 . S
C1581 C1580 1.385 . S
C1581 C1582 1.389 . S
C1582 C1581 1.389 . S
C1582 C1583 1.387 . S
C1583 H1568 0.930 . S
C1583 C1578 1.390 . S
C1583 C1582 1.387 . S
H1584 C1596 0.930 . S
H1585 C1598 0.930 . S
H1586 C1599 0.930 . S
H1587 C1603 0.960 . S
H1588 C1603 0.959 1_545 S
H1589 C1603 0.961 1_545 S
H1590 C1604 0.960 . S
H1591 C1604 0.961 . S
H1592 C1604 0.959 . S
H1593 C1607 0.929 . S
H1594 C1608 0.931 . S
H1595 C1610 0.950 . S
C1596 H1584 0.930 . S
C1596 C1597 1.399 1_545 S
C1596 C1601 1.399 . S
C1597 C1596 1.399 1_565 S
C1597 C1598 1.376 . S
C1598 H1585 0.930 . S
C1598 C1597 1.376 . S
C1598 C1599 1.388 . S
C1599 H1586 0.930 . S
C1599 C1598 1.388 . S
C1599 C1600 1.390 . S
C1600 C1599 1.390 . S
C1600 C1601 1.394 1_565 S
C1600 C1606 1.465 . S
C1601 C1596 1.399 . S
C1601 C1600 1.394 1_545 S
C1601 C1602 1.516 . S
C1602 C1601 1.516 . S
C1602 C1603 1.502 1_545 S
C1602 C1604 1.561 . S
C1602 C1605 1.531 . S
C1603 H1587 0.960 . S
C1603 H1588 0.959 1_565 S
C1603 H1589 0.961 1_565 S
C1603 C1602 1.502 1_565 S
C1604 H1590 0.960 . S
C1604 H1591 0.961 . S
C1604 H1592 0.959 . S
C1604 C1602 1.561 . S
C1605 C1602 1.531 . S
C1605 C1606 1.377 1_545 S
C1605 C1610 1.389 . S
C1606 C1600 1.465 . S
C1606 C1605 1.377 1_565 S
C1606 C1607 1.399 . S
C1607 H1593 0.929 . S
C1607 C1606 1.399 . S
C1607 C1608 1.385 . S
C1608 H1594 0.931 . S
C1608 C1607 1.385 . S
C1608 C1609 1.389 . S
C1609 C1608 1.389 . S
C1609 C1610 1.378 1_565 S
C1610 H1595 0.950 . S
C1610 C1605 1.389 . S
C1610 C1609 1.378 1_545 S
H1611 C1623 0.930 . S
H1612 C1625 0.930 . S
H1613 C1626 0.930 . S
H1614 C1630 0.959 . S
H1615 C1630 0.959 . S
H1616 C1630 0.961 . S
H1617 C1631 0.960 . S
H1618 C1631 0.961 . S
H1619 C1631 0.959 . S
H1620 C1634 0.929 . S
H1621 C1635 0.931 . S
H1622 C1637 0.930 . S
C1623 H1611 0.930 . S
C1623 C1624 1.399 . S
C1623 C1628 1.399 . S
C1624 C1623 1.399 . S
C1624 C1625 1.376 1_545 S
C1625 H1612 0.930 . S
C1625 C1624 1.376 1_565 S
C1625 C1626 1.388 . S
C1626 H1613 0.930 . S
C1626 C1625 1.388 . S
C1626 C1627 1.390 . S
C1627 C1626 1.390 . S
C1627 C1628 1.394 1_565 S
C1627 C1633 1.465 . S
C1628 C1623 1.399 . S
C1628 C1627 1.394 1_545 S
C1628 C1629 1.516 . S
C1629 C1628 1.516 . S
C1629 C1630 1.502 . S
C1629 C1631 1.561 . S
C1629 C1632 1.526 . S
C1630 H1614 0.959 . S
C1630 H1615 0.959 . S
C1630 H1616 0.961 . S
C1630 C1629 1.502 . S
C1631 H1617 0.960 . S
C1631 H1618 0.961 . S
C1631 H1619 0.959 . S
C1631 C1629 1.561 . S
C1632 C1629 1.526 . S
C1632 C1633 1.396 1_545 S
C1632 C1637 1.390 . S
C1633 C1627 1.465 . S
C1633 C1632 1.396 1_565 S
C1633 C1634 1.399 . S
C1634 H1620 0.929 . S
C1634 C1633 1.399 . S
C1634 C1635 1.385 . S
C1635 H1621 0.931 . S
C1635 C1634 1.385 . S
C1635 C1636 1.389 1_565 S
C1636 C1635 1.389 1_545 S
C1636 C1637 1.387 . S
C1637 H1622 0.930 . S
C1637 C1632 1.390 . S
C1637 C1636 1.387 . S
H1638 C1650 0.930 . S
H1639 C1652 0.930 . S
H1640 C1653 0.930 . S
H1641 C1657 0.959 . S
H1642 C1657 0.959 . S
H1643 C1657 0.961 . S
H1644 C1658 0.960 . S
H1645 C1658 0.961 . S
H1646 C1658 0.959 . S
H1647 C1661 0.929 . S
H1648 C1662 0.931 . S
H1649 C1664 0.930 . S
C1650 H1638 0.930 . S
C1650 C1651 1.383 1_655 S
C1650 C1655 1.399 . S
C1651 C1650 1.383 1_455 S
C1651 C1652 1.435 . S
C1652 H1639 0.930 . S
C1652 C1651 1.435 . S
C1652 C1653 1.388 . S
C1653 H1640 0.930 . S
C1653 C1652 1.388 . S
C1653 C1654 1.390 . S
C1654 C1653 1.390 . S
C1654 C1655 1.394 1_455 S
C1654 C1660 1.465 . S
C1655 C1650 1.399 . S
C1655 C1654 1.394 1_655 S
C1655 C1656 1.516 . S
C1656 C1655 1.516 . S
C1656 C1657 1.502 . S
C1656 C1658 1.561 . S
C1656 C1659 1.526 . S
C1657 H1641 0.959 . S
C1657 H1642 0.959 . S
C1657 H1643 0.961 . S
C1657 C1656 1.502 . S
C1658 H1644 0.960 . S
C1658 H1645 0.961 . S
C1658 H1646 0.959 . S
C1658 C1656 1.561 . S
C1659 C1656 1.526 . S
C1659 C1660 1.396 1_655 S
C1659 C1664 1.390 . S
C1660 C1654 1.465 . S
C1660 C1659 1.396 1_455 S
C1660 C1661 1.399 . S
C1661 H1647 0.929 . S
C1661 C1660 1.399 . S
C1661 C1662 1.385 . S
C1662 H1648 0.931 . S
C1662 C1661 1.385 . S
C1662 C1663 1.389 1_455 S
C1663 C1662 1.389 1_655 S
C1663 C1664 1.387 . S
C1664 H1649 0.930 . S
C1664 C1659 1.390 . S
C1664 C1663 1.387 . S
H1665 C1677 0.930 . S
H1666 C1679 0.930 . S
H1667 C1680 0.930 . S
H1668 C1684 0.959 . S
H1669 C1684 0.959 . S
H1670 C1684 0.961 . S
H1671 C1685 0.960 . S
H1672 C1685 0.961 . S
H1673 C1685 0.959 . S
H1674 C1688 0.929 . S
H1675 C1689 0.931 . S
H1676 C1691 0.930 . S
C1677 H1665 0.930 . S
C1677 C1678 1.399 . S
C1677 C1682 1.399 . S
C1678 C1677 1.399 . S
C1678 C1679 1.376 . S
C1679 H1666 0.930 . S
C1679 C1678 1.376 . S
C1679 C1680 1.388 . S
C1680 H1667 0.930 . S
C1680 C1679 1.388 . S
C1680 C1681 1.390 . S
C1681 C1680 1.390 . S
C1681 C1682 1.394 . S
C1681 C1687 1.465 . S
C1682 C1677 1.399 . S
C1682 C1681 1.394 . S
C1682 C1683 1.516 . S
C1683 C1682 1.516 . S
C1683 C1684 1.502 . S
C1683 C1685 1.561 . S
C1683 C1686 1.526 . S
C1684 H1668 0.959 . S
C1684 H1669 0.959 . S
C1684 H1670 0.961 . S
C1684 C1683 1.502 . S
C1685 H1671 0.960 . S
C1685 H1672 0.961 . S
C1685 H1673 0.959 . S
C1685 C1683 1.561 . S
C1686 C1683 1.526 . S
C1686 C1687 1.396 . S
C1686 C1691 1.390 . S
C1687 C1681 1.465 . S
C1687 C1686 1.396 . S
C1687 C1688 1.399 . S
C1688 H1674 0.929 . S
C1688 C1687 1.399 . S
C1688 C1689 1.385 . S
C1689 H1675 0.931 . S
C1689 C1688 1.385 . S
C1689 C1690 1.389 . S
C1690 C1689 1.389 . S
C1690 C1691 1.387 . S
C1691 H1676 0.930 . S
C1691 C1686 1.390 . S
C1691 C1690 1.387 . S
H1692 C1704 0.930 . S
H1693 C1706 0.930 . S
H1694 C1707 0.930 . S
H1695 C1711 0.959 . S
H1696 C1711 0.959 . S
H1697 C1711 0.961 . S
H1698 C1712 0.960 . S
H1699 C1712 0.961 . S
H1700 C1712 0.959 . S
H1701 C1715 0.929 . S
H1702 C1716 0.931 . S
H1703 C1718 0.930 . S
C1704 H1692 0.930 . S
C1704 C1705 1.399 . S
C1704 C1709 1.399 . S
C1705 C1704 1.399 . S
C1705 C1706 1.376 . S
C1706 H1693 0.930 . S
C1706 C1705 1.376 . S
C1706 C1707 1.388 . S
C1707 H1694 0.930 . S
C1707 C1706 1.388 . S
C1707 C1708 1.390 . S
C1708 C1707 1.390 . S
C1708 C1709 1.394 . S
C1708 C1714 1.465 . S
C1709 C1704 1.399 . S
C1709 C1708 1.394 . S
C1709 C1710 1.516 . S
C1710 C1709 1.516 . S
C1710 C1711 1.502 . S
C1710 C1712 1.561 . S
C1710 C1713 1.526 . S
C1711 H1695 0.959 . S
C1711 H1696 0.959 . S
C1711 H1697 0.961 . S
C1711 C1710 1.502 . S
C1712 H1698 0.960 . S
C1712 H1699 0.961 . S
C1712 H1700 0.959 . S
C1712 C1710 1.561 . S
C1713 C1710 1.526 . S
C1713 C1714 1.396 . S
C1713 C1718 1.390 . S
C1714 C1708 1.465 . S
C1714 C1713 1.396 . S
C1714 C1715 1.399 . S
C1715 H1701 0.929 . S
C1715 C1714 1.399 . S
C1715 C1716 1.385 . S
C1716 H1702 0.931 . S
C1716 C1715 1.385 . S
C1716 C1717 1.389 . S
C1717 C1716 1.389 . S
C1717 C1718 1.387 . S
C1718 H1703 0.930 . S
C1718 C1713 1.390 . S
C1718 C1717 1.387 . S
H1719 C1731 0.930 . S
H1720 C1733 0.930 . S
H1721 C1734 0.930 . S
H1722 C1738 0.959 . S
H1723 C1738 0.959 . S
H1724 C1738 0.961 . S
H1725 C1739 0.960 . S
H1726 C1739 0.961 . S
H1727 C1739 0.959 . S
H1728 C1742 0.929 . S
H1729 C1743 0.931 . S
H1730 C1745 0.930 . S
C1731 H1719 0.930 . S
C1731 C1732 1.399 . S
C1731 C1736 1.399 . S
C1732 C1731 1.399 . S
C1732 C1733 1.376 . S
C1733 H1720 0.930 . S
C1733 C1732 1.376 . S
C1733 C1734 1.388 . S
C1734 H1721 0.930 . S
C1734 C1733 1.388 . S
C1734 C1735 1.390 . S
C1735 C1734 1.390 . S
C1735 C1736 1.394 . S
C1735 C1741 1.465 . S
C1736 C1731 1.399 . S
C1736 C1735 1.394 . S
C1736 C1737 1.516 . S
C1737 C1736 1.516 . S
C1737 C1738 1.502 . S
C1737 C1739 1.561 . S
C1737 C1740 1.526 . S
C1738 H1722 0.959 . S
C1738 H1723 0.959 . S
C1738 H1724 0.961 . S
C1738 C1737 1.502 . S
C1739 H1725 0.960 . S
C1739 H1726 0.961 . S
C1739 H1727 0.959 . S
C1739 C1737 1.561 . S
C1740 C1737 1.526 . S
C1740 C1741 1.396 . S
C1740 C1745 1.390 . S
C1741 C1735 1.465 . S
C1741 C1740 1.396 . S
C1741 C1742 1.399 . S
C1742 H1728 0.929 . S
C1742 C1741 1.399 . S
C1742 C1743 1.385 . S
C1743 H1729 0.931 . S
C1743 C1742 1.385 . S
C1743 C1744 1.389 . S
C1744 C1743 1.389 . S
C1744 C1745 1.387 . S
C1745 H1730 0.930 . S
C1745 C1740 1.390 . S
C1745 C1744 1.387 . S
H1746 C1758 0.930 . S
H1747 C1760 0.930 . S
H1748 C1761 0.930 . S
H1749 C1765 0.959 . S
H1750 C1765 0.959 . S
H1751 C1765 0.961 . S
H1752 C1766 0.960 . S
H1753 C1766 0.961 . S
H1754 C1766 0.959 . S
H1755 C1769 0.929 . S
H1756 C1770 0.931 . S
H1757 C1772 0.930 . S
C1758 H1746 0.930 . S
C1758 C1759 1.399 . S
C1758 C1763 1.399 . S
C1759 C1758 1.399 . S
C1759 C1760 1.376 . S
C1760 H1747 0.930 . S
C1760 C1759 1.376 . S
C1760 C1761 1.388 . S
C1761 H1748 0.930 . S
C1761 C1760 1.388 . S
C1761 C1762 1.390 . S
C1762 C1761 1.390 . S
C1762 C1763 1.394 . S
C1762 C1768 1.465 . S
C1763 C1758 1.399 . S
C1763 C1762 1.394 . S
C1763 C1764 1.516 . S
C1764 C1763 1.516 . S
C1764 C1765 1.502 . S
C1764 C1766 1.561 . S
C1764 C1767 1.526 . S
C1765 H1749 0.959 . S
C1765 H1750 0.959 . S
C1765 H1751 0.961 . S
C1765 C1764 1.502 . S
C1766 H1752 0.960 . S
C1766 H1753 0.961 . S
C1766 H1754 0.959 . S
C1766 C1764 1.561 . S
C1767 C1764 1.526 . S
C1767 C1768 1.396 . S
C1767 C1772 1.390 . S
C1768 C1762 1.465 . S
C1768 C1767 1.396 . S
C1768 C1769 1.399 . S
C1769 H1755 0.929 . S
C1769 C1768 1.399 . S
C1769 C1770 1.385 . S
C1770 H1756 0.931 . S
C1770 C1769 1.385 . S
C1770 C1771 1.389 . S
C1771 C1770 1.389 . S
C1771 C1772 1.387 . S
C1772 H1757 0.930 . S
C1772 C1767 1.390 . S
C1772 C1771 1.387 . S
H1773 C1785 0.930 . S
H1774 C1787 0.930 . S
H1775 C1788 0.930 . S
H1776 C1792 0.959 . S
H1777 C1792 0.959 . S
H1778 C1792 0.961 . S
H1779 C1793 0.960 . S
H1780 C1793 0.961 . S
H1781 C1793 0.959 . S
H1782 C1796 0.929 . S
H1783 C1797 0.931 . S
H1784 C1799 0.930 . S
C1785 H1773 0.930 . S
C1785 C1786 1.399 . S
C1785 C1790 1.399 . S
C1786 C1785 1.399 . S
C1786 C1787 1.376 . S
C1787 H1774 0.930 . S
C1787 C1786 1.376 . S
C1787 C1788 1.388 . S
C1788 H1775 0.930 . S
C1788 C1787 1.388 . S
C1788 C1789 1.390 . S
C1789 C1788 1.390 . S
C1789 C1790 1.394 . S
C1789 C1795 1.465 . S
C1790 C1785 1.399 . S
C1790 C1789 1.394 . S
C1790 C1791 1.516 . S
C1791 C1790 1.516 . S
C1791 C1792 1.502 . S
C1791 C1793 1.561 . S
C1791 C1794 1.526 . S
C1792 H1776 0.959 . S
C1792 H1777 0.959 . S
C1792 H1778 0.961 . S
C1792 C1791 1.502 . S
C1793 H1779 0.960 . S
C1793 H1780 0.961 . S
C1793 H1781 0.959 . S
C1793 C1791 1.561 . S
C1794 C1791 1.526 . S
C1794 C1795 1.396 . S
C1794 C1799 1.390 . S
C1795 C1789 1.465 . S
C1795 C1794 1.396 . S
C1795 C1796 1.399 . S
C1796 H1782 0.929 . S
C1796 C1795 1.399 . S
C1796 C1797 1.385 . S
C1797 H1783 0.931 . S
C1797 C1796 1.385 . S
C1797 C1798 1.389 . S
C1798 C1797 1.389 . S
C1798 C1799 1.387 . S
C1799 H1784 0.930 . S
C1799 C1794 1.390 . S
C1799 C1798 1.387 . S
H1800 C1812 0.930 . S
H1801 C1814 0.930 . S
H1802 C1815 0.930 . S
H1803 C1819 0.959 . S
H1804 C1819 0.959 . S
H1805 C1819 0.961 . S
H1806 C1820 0.960 . S
H1807 C1820 0.961 . S
H1808 C1820 0.959 . S
H1809 C1823 0.929 . S
H1810 C1824 0.931 . S
H1811 C1826 0.930 . S
C1812 H1800 0.930 . S
C1812 C1813 1.399 . S
C1812 C1817 1.399 . S
C1813 C1812 1.399 . S
C1813 C1814 1.376 . S
C1814 H1801 0.930 . S
C1814 C1813 1.376 . S
C1814 C1815 1.388 . S
C1815 H1802 0.930 . S
C1815 C1814 1.388 . S
C1815 C1816 1.390 . S
C1816 C1815 1.390 . S
C1816 C1817 1.394 . S
C1816 C1822 1.465 . S
C1817 C1812 1.399 . S
C1817 C1816 1.394 . S
C1817 C1818 1.516 . S
C1818 C1817 1.516 . S
C1818 C1819 1.502 . S
C1818 C1820 1.561 . S
C1818 C1821 1.526 . S
C1819 H1803 0.959 . S
C1819 H1804 0.959 . S
C1819 H1805 0.961 . S
C1819 C1818 1.502 . S
C1820 H1806 0.960 . S
C1820 H1807 0.961 . S
C1820 H1808 0.959 . S
C1820 C1818 1.561 . S
C1821 C1818 1.526 . S
C1821 C1822 1.396 . S
C1821 C1826 1.390 . S
C1822 C1816 1.465 . S
C1822 C1821 1.396 . S
C1822 C1823 1.399 . S
C1823 H1809 0.929 . S
C1823 C1822 1.399 . S
C1823 C1824 1.385 . S
C1824 H1810 0.931 . S
C1824 C1823 1.385 . S
C1824 C1825 1.389 . S
C1825 C1824 1.389 . S
C1825 C1826 1.387 . S
C1826 H1811 0.930 . S
C1826 C1821 1.390 . S
C1826 C1825 1.387 . S
H1827 C1839 0.930 . S
H1828 C1841 0.930 . S
H1829 C1842 0.930 . S
H1830 C1846 0.959 . S
H1831 C1846 0.959 . S
H1832 C1846 0.961 . S
H1833 C1847 0.960 . S
H1834 C1847 0.961 . S
H1835 C1847 0.959 . S
H1836 C1850 0.929 . S
H1837 C1851 0.931 . S
H1838 C1853 0.930 . S
C1839 H1827 0.930 . S
C1839 C1840 1.399 . S
C1839 C1844 1.399 . S
C1840 C1839 1.399 . S
C1840 C1841 1.376 . S
C1841 H1828 0.930 . S
C1841 C1840 1.376 . S
C1841 C1842 1.388 . S
C1842 H1829 0.930 . S
C1842 C1841 1.388 . S
C1842 C1843 1.390 . S
C1843 C1842 1.390 . S
C1843 C1844 1.394 . S
C1843 C1849 1.465 . S
C1844 C1839 1.399 . S
C1844 C1843 1.394 . S
C1844 C1845 1.516 . S
C1845 C1844 1.516 . S
C1845 C1846 1.502 . S
C1845 C1847 1.561 . S
C1845 C1848 1.526 . S
C1846 H1830 0.959 . S
C1846 H1831 0.959 . S
C1846 H1832 0.961 . S
C1846 C1845 1.502 . S
C1847 H1833 0.960 . S
C1847 H1834 0.961 . S
C1847 H1835 0.959 . S
C1847 C1845 1.561 . S
C1848 C1845 1.526 . S
C1848 C1849 1.396 . S
C1848 C1853 1.390 . S
C1849 C1843 1.465 . S
C1849 C1848 1.396 . S
C1849 C1850 1.399 . S
C1850 H1836 0.929 . S
C1850 C1849 1.399 . S
C1850 C1851 1.385 . S
C1851 H1837 0.931 . S
C1851 C1850 1.385 . S
C1851 C1852 1.389 . S
C1852 C1851 1.389 . S
C1852 C1853 1.387 . S
C1853 H1838 0.930 . S
C1853 C1848 1.390 . S
C1853 C1852 1.387 . S
H1854 C1866 0.930 . S
H1855 C1868 0.930 . S
H1856 C1869 0.930 . S
H1857 C1873 0.959 . S
H1858 C1873 0.959 . S
H1859 C1873 0.961 . S
H1860 C1874 0.960 . S
H1861 C1874 0.961 . S
H1862 C1874 0.959 . S
H1863 C1877 0.929 . S
H1864 C1878 0.931 . S
H1865 C1880 0.930 . S
C1866 H1854 0.930 . S
C1866 C1867 1.399 . S
C1866 C1871 1.399 . S
C1867 C1866 1.399 . S
C1867 C1868 1.376 . S
C1868 H1855 0.930 . S
C1868 C1867 1.376 . S
C1868 C1869 1.388 . S
C1869 H1856 0.930 . S
C1869 C1868 1.388 . S
C1869 C1870 1.390 . S
C1870 C1869 1.390 . S
C1870 C1871 1.394 . S
C1870 C1876 1.465 . S
C1871 C1866 1.399 . S
C1871 C1870 1.394 . S
C1871 C1872 1.516 . S
C1872 C1871 1.516 . S
C1872 C1873 1.502 . S
C1872 C1874 1.561 . S
C1872 C1875 1.526 . S
C1873 H1857 0.959 . S
C1873 H1858 0.959 . S
C1873 H1859 0.961 . S
C1873 C1872 1.502 . S
C1874 H1860 0.960 . S
C1874 H1861 0.961 . S
C1874 H1862 0.959 . S
C1874 C1872 1.561 . S
C1875 C1872 1.526 . S
C1875 C1876 1.396 . S
C1875 C1880 1.390 . S
C1876 C1870 1.465 . S
C1876 C1875 1.396 . S
C1876 C1877 1.399 . S
C1877 H1863 0.929 . S
C1877 C1876 1.399 . S
C1877 C1878 1.385 . S
C1878 H1864 0.931 . S
C1878 C1877 1.385 . S
C1878 C1879 1.389 . S
C1879 C1878 1.389 . S
C1879 C1880 1.387 . S
C1880 H1865 0.930 . S
C1880 C1875 1.390 . S
C1880 C1879 1.387 . S
H1881 C1893 0.930 . S
H1882 C1895 0.930 . S
H1883 C1896 0.930 . S
H1884 C1900 0.959 . S
H1885 C1900 0.959 . S
H1886 C1900 0.961 . S
H1887 C1901 0.960 . S
H1888 C1901 0.961 . S
H1889 C1901 0.959 . S
H1890 C1904 0.929 . S
H1891 C1905 0.931 . S
H1892 C1907 0.930 . S
C1893 H1881 0.930 . S
C1893 C1894 1.399 . S
C1893 C1898 1.399 . S
C1894 C1893 1.399 . S
C1894 C1895 1.376 . S
C1895 H1882 0.930 . S
C1895 C1894 1.376 . S
C1895 C1896 1.388 . S
C1896 H1883 0.930 . S
C1896 C1895 1.388 . S
C1896 C1897 1.390 . S
C1897 C1896 1.390 . S
C1897 C1898 1.394 . S
C1897 C1903 1.465 . S
C1898 C1893 1.399 . S
C1898 C1897 1.394 . S
C1898 C1899 1.516 . S
C1899 C1898 1.516 . S
C1899 C1900 1.502 . S
C1899 C1901 1.561 . S
C1899 C1902 1.526 . S
C1900 H1884 0.959 . S
C1900 H1885 0.959 . S
C1900 H1886 0.961 . S
C1900 C1899 1.502 . S
C1901 H1887 0.960 . S
C1901 H1888 0.961 . S
C1901 H1889 0.959 . S
C1901 C1899 1.561 . S
C1902 C1899 1.526 . S
C1902 C1903 1.396 . S
C1902 C1907 1.390 . S
C1903 C1897 1.465 . S
C1903 C1902 1.396 . S
C1903 C1904 1.399 . S
C1904 H1890 0.929 . S
C1904 C1903 1.399 . S
C1904 C1905 1.385 . S
C1905 H1891 0.931 . S
C1905 C1904 1.385 . S
C1905 C1906 1.389 . S
C1906 C1905 1.389 . S
C1906 C1907 1.387 . S
C1907 H1892 0.930 . S
C1907 C1902 1.390 . S
C1907 C1906 1.387 . S
H1908 C1920 0.930 . S
H1909 C1922 0.930 . S
H1910 C1923 0.930 . S
H1911 C1927 0.959 . S
H1912 C1927 0.959 . S
H1913 C1927 0.961 . S
H1914 C1928 0.960 . S
H1915 C1928 0.961 . S
H1916 C1928 0.959 . S
H1917 C1931 0.929 . S
H1918 C1932 0.931 . S
H1919 C1934 0.930 . S
C1920 H1908 0.930 . S
C1920 C1921 1.399 . S
C1920 C1925 1.399 . S
C1921 C1920 1.399 . S
C1921 C1922 1.376 . S
C1922 H1909 0.930 . S
C1922 C1921 1.376 . S
C1922 C1923 1.388 . S
C1923 H1910 0.930 . S
C1923 C1922 1.388 . S
C1923 C1924 1.390 . S
C1924 C1923 1.390 . S
C1924 C1925 1.394 . S
C1924 C1930 1.465 . S
C1925 C1920 1.399 . S
C1925 C1924 1.394 . S
C1925 C1926 1.516 . S
C1926 C1925 1.516 . S
C1926 C1927 1.502 . S
C1926 C1928 1.561 . S
C1926 C1929 1.526 . S
C1927 H1911 0.959 . S
C1927 H1912 0.959 . S
C1927 H1913 0.961 . S
C1927 C1926 1.502 . S
C1928 H1914 0.960 . S
C1928 H1915 0.961 . S
C1928 H1916 0.959 . S
C1928 C1926 1.561 . S
C1929 C1926 1.526 . S
C1929 C1930 1.396 . S
C1929 C1934 1.390 . S
C1930 C1924 1.465 . S
C1930 C1929 1.396 . S
C1930 C1931 1.399 . S
C1931 H1917 0.929 . S
C1931 C1930 1.399 . S
C1931 C1932 1.385 . S
C1932 H1918 0.931 . S
C1932 C1931 1.385 . S
C1932 C1933 1.389 . S
C1933 C1932 1.389 . S
C1933 C1934 1.387 . S
C1934 H1919 0.930 . S
C1934 C1929 1.390 . S
C1934 C1933 1.387 . S
H1935 C1947 0.930 . S
H1936 C1949 0.930 . S
H1937 C1950 0.930 . S
H1938 C1954 0.959 . S
H1939 C1954 0.959 . S
H1940 C1954 0.961 . S
H1941 C1955 0.960 . S
H1942 C1955 0.961 . S
H1943 C1955 0.959 . S
H1944 C1958 0.929 . S
H1945 C1959 0.931 . S
H1946 C1961 0.930 . S
C1947 H1935 0.930 . S
C1947 C1948 1.399 . S
C1947 C1952 1.399 . S
C1948 C1947 1.399 . S
C1948 C1949 1.376 . S
C1949 H1936 0.930 . S
C1949 C1948 1.376 . S
C1949 C1950 1.388 . S
C1950 H1937 0.930 . S
C1950 C1949 1.388 . S
C1950 C1951 1.390 . S
C1951 C1950 1.390 . S
C1951 C1952 1.394 . S
C1951 C1957 1.465 . S
C1952 C1947 1.399 . S
C1952 C1951 1.394 . S
C1952 C1953 1.516 . S
C1953 C1952 1.516 . S
C1953 C1954 1.502 . S
C1953 C1955 1.561 . S
C1953 C1956 1.526 . S
C1954 H1938 0.959 . S
C1954 H1939 0.959 . S
C1954 H1940 0.961 . S
C1954 C1953 1.502 . S
C1955 H1941 0.960 . S
C1955 H1942 0.961 . S
C1955 H1943 0.959 . S
C1955 C1953 1.561 . S
C1956 C1953 1.526 . S
C1956 C1957 1.396 . S
C1956 C1961 1.390 . S
C1957 C1951 1.465 . S
C1957 C1956 1.396 . S
C1957 C1958 1.399 . S
C1958 H1944 0.929 . S
C1958 C1957 1.399 . S
C1958 C1959 1.385 . S
C1959 H1945 0.931 . S
C1959 C1958 1.385 . S
C1959 C1960 1.389 . S
C1960 C1959 1.389 . S
C1960 C1961 1.387 . S
C1961 H1946 0.930 . S
C1961 C1956 1.390 . S
C1961 C1960 1.387 . S
H1962 C1974 0.930 . S
H1963 C1976 0.930 . S
H1964 C1977 0.930 . S
H1965 C1981 0.959 . S
H1966 C1981 0.959 . S
H1967 C1981 0.961 . S
H1968 C1982 0.960 . S
H1969 C1982 0.961 . S
H1970 C1982 0.959 . S
H1971 C1985 0.929 . S
H1972 C1986 0.931 . S
H1973 C1988 0.930 . S
C1974 H1962 0.930 . S
C1974 C1975 1.399 . S
C1974 C1979 1.399 . S
C1975 C1974 1.399 . S
C1975 C1976 1.376 . S
C1976 H1963 0.930 . S
C1976 C1975 1.376 . S
C1976 C1977 1.388 . S
C1977 H1964 0.930 . S
C1977 C1976 1.388 . S
C1977 C1978 1.390 . S
C1978 C1977 1.390 . S
C1978 C1979 1.394 . S
C1978 C1984 1.465 . S
C1979 C1974 1.399 . S
C1979 C1978 1.394 . S
C1979 C1980 1.516 . S
C1980 C1979 1.516 . S
C1980 C1981 1.502 . S
C1980 C1982 1.561 . S
C1980 C1983 1.526 . S
C1981 H1965 0.959 . S
C1981 H1966 0.959 . S
C1981 H1967 0.961 . S
C1981 C1980 1.502 . S
C1982 H1968 0.960 . S
C1982 H1969 0.961 . S
C1982 H1970 0.959 . S
C1982 C1980 1.561 . S
C1983 C1980 1.526 . S
C1983 C1984 1.396 . S
C1983 C1988 1.390 . S
C1984 C1978 1.465 . S
C1984 C1983 1.396 . S
C1984 C1985 1.399 . S
C1985 H1971 0.929 . S
C1985 C1984 1.399 . S
C1985 C1986 1.385 . S
C1986 H1972 0.931 . S
C1986 C1985 1.385 . S
C1986 C1987 1.389 . S
C1987 C1986 1.389 . S
C1987 C1988 1.387 . S
C1988 H1973 0.930 . S
C1988 C1983 1.390 . S
C1988 C1987 1.387 . S
H1989 C2001 0.930 . S
H1990 C2003 0.930 . S
H1991 C2004 0.930 . S
H1992 C2008 0.959 . S
H1993 C2008 0.959 . S
H1994 C2008 0.961 . S
H1995 C2009 0.960 . S
H1996 C2009 0.961 . S
H1997 C2009 0.959 . S
H1998 C2012 0.929 . S
H1999 C2013 0.931 . S
H2000 C2015 0.930 . S
C2001 H1989 0.930 . S
C2001 C2002 1.399 . S
C2001 C2006 1.399 . S
C2002 C2001 1.399 . S
C2002 C2003 1.376 . S
C2003 H1990 0.930 . S
C2003 C2002 1.376 . S
C2003 C2004 1.388 . S
C2004 H1991 0.930 . S
C2004 C2003 1.388 . S
C2004 C2005 1.390 . S
C2005 C2004 1.390 . S
C2005 C2006 1.394 . S
C2005 C2011 1.465 . S
C2006 C2001 1.399 . S
C2006 C2005 1.394 . S
C2006 C2007 1.516 . S
C2007 C2006 1.516 . S
C2007 C2008 1.502 . S
C2007 C2009 1.561 . S
C2007 C2010 1.526 . S
C2008 H1992 0.959 . S
C2008 H1993 0.959 . S
C2008 H1994 0.961 . S
C2008 C2007 1.502 . S
C2009 H1995 0.960 . S
C2009 H1996 0.961 . S
C2009 H1997 0.959 . S
C2009 C2007 1.561 . S
C2010 C2007 1.526 . S
C2010 C2011 1.396 . S
C2010 C2015 1.390 . S
C2011 C2005 1.465 . S
C2011 C2010 1.396 . S
C2011 C2012 1.399 . S
C2012 H1998 0.929 . S
C2012 C2011 1.399 . S
C2012 C2013 1.385 . S
C2013 H1999 0.931 . S
C2013 C2012 1.385 . S
C2013 C2014 1.389 . S
C2014 C2013 1.389 . S
C2014 C2015 1.387 . S
C2015 H2000 0.930 . S
C2015 C2010 1.390 . S
C2015 C2014 1.387 . S
H2016 C2028 0.930 . S
H2017 C2030 0.930 . S
H2018 C2031 0.930 . S
H2019 C2035 0.959 . S
H2020 C2035 0.959 . S
H2021 C2035 0.961 . S
H2022 C2036 0.960 . S
H2023 C2036 0.961 . S
H2024 C2036 0.959 . S
H2025 C2039 0.929 . S
H2026 C2040 0.931 . S
H2027 C2042 0.930 . S
C2028 H2016 0.930 . S
C2028 C2029 1.399 . S
C2028 C2033 1.399 . S
C2029 C2028 1.399 . S
C2029 C2030 1.376 . S
C2030 H2017 0.930 . S
C2030 C2029 1.376 . S
C2030 C2031 1.388 . S
C2031 H2018 0.930 . S
C2031 C2030 1.388 . S
C2031 C2032 1.390 . S
C2032 C2031 1.390 . S
C2032 C2033 1.394 . S
C2032 C2038 1.465 . S
C2033 C2028 1.399 . S
C2033 C2032 1.394 . S
C2033 C2034 1.516 . S
C2034 C2033 1.516 . S
C2034 C2035 1.502 . S
C2034 C2036 1.561 . S
C2034 C2037 1.526 . S
C2035 H2019 0.959 . S
C2035 H2020 0.959 . S
C2035 H2021 0.961 . S
C2035 C2034 1.502 . S
C2036 H2022 0.960 . S
C2036 H2023 0.961 . S
C2036 H2024 0.959 . S
C2036 C2034 1.561 . S
C2037 C2034 1.526 . S
C2037 C2038 1.396 . S
C2037 C2042 1.390 . S
C2038 C2032 1.465 . S
C2038 C2037 1.396 . S
C2038 C2039 1.399 . S
C2039 H2025 0.929 . S
C2039 C2038 1.399 . S
C2039 C2040 1.385 . S
C2040 H2026 0.931 . S
C2040 C2039 1.385 . S
C2040 C2041 1.389 . S
C2041 C2040 1.389 . S
C2041 C2042 1.387 . S
C2042 H2027 0.930 . S
C2042 C2037 1.390 . S
C2042 C2041 1.387 . S
H2043 C2055 0.930 . S
H2044 C2057 0.930 . S
H2045 C2058 0.930 . S
H2046 C2062 0.959 . S
H2047 C2062 0.959 . S
H2048 C2062 0.961 . S
H2049 C2063 0.960 . S
H2050 C2063 0.961 . S
H2051 C2063 0.959 . S
H2052 C2066 0.929 . S
H2053 C2067 0.931 . S
H2054 C2069 0.930 . S
C2055 H2043 0.930 . S
C2055 C2056 1.399 . S
C2055 C2060 1.399 . S
C2056 C2055 1.399 . S
C2056 C2057 1.376 . S
C2057 H2044 0.930 . S
C2057 C2056 1.376 . S
C2057 C2058 1.388 . S
C2058 H2045 0.930 . S
C2058 C2057 1.388 . S
C2058 C2059 1.390 . S
C2059 C2058 1.390 . S
C2059 C2060 1.394 . S
C2059 C2065 1.465 . S
C2060 C2055 1.399 . S
C2060 C2059 1.394 . S
C2060 C2061 1.516 . S
C2061 C2060 1.516 . S
C2061 C2062 1.502 . S
C2061 C2063 1.561 . S
C2061 C2064 1.526 . S
C2062 H2046 0.959 . S
C2062 H2047 0.959 . S
C2062 H2048 0.961 . S
C2062 C2061 1.502 . S
C2063 H2049 0.960 . S
C2063 H2050 0.961 . S
C2063 H2051 0.959 . S
C2063 C2061 1.561 . S
C2064 C2061 1.526 . S
C2064 C2065 1.396 . S
C2064 C2069 1.390 . S
C2065 C2059 1.465 . S
C2065 C2064 1.396 . S
C2065 C2066 1.399 . S
C2066 H2052 0.929 . S
C2066 C2065 1.399 . S
C2066 C2067 1.385 . S
C2067 H2053 0.931 . S
C2067 C2066 1.385 . S
C2067 C2068 1.389 . S
C2068 C2067 1.389 . S
C2068 C2069 1.387 . S
C2069 H2054 0.930 . S
C2069 C2064 1.390 . S
C2069 C2068 1.387 . S
H2070 C2082 0.930 . S
H2071 C2084 0.930 . S
H2072 C2085 0.930 . S
H2073 C2089 0.959 . S
H2074 C2089 0.959 . S
H2075 C2089 0.961 . S
H2076 C2090 0.960 . S
H2077 C2090 0.961 . S
H2078 C2090 0.959 . S
H2079 C2093 0.929 . S
H2080 C2094 0.931 . S
H2081 C2096 0.930 . S
C2082 H2070 0.930 . S
C2082 C2083 1.399 . S
C2082 C2087 1.399 . S
C2083 C2082 1.399 . S
C2083 C2084 1.376 . S
C2084 H2071 0.930 . S
C2084 C2083 1.376 . S
C2084 C2085 1.388 . S
C2085 H2072 0.930 . S
C2085 C2084 1.388 . S
C2085 C2086 1.390 . S
C2086 C2085 1.390 . S
C2086 C2087 1.394 . S
C2086 C2092 1.465 . S
C2087 C2082 1.399 . S
C2087 C2086 1.394 . S
C2087 C2088 1.516 . S
C2088 C2087 1.516 . S
C2088 C2089 1.502 . S
C2088 C2090 1.561 . S
C2088 C2091 1.526 . S
C2089 H2073 0.959 . S
C2089 H2074 0.959 . S
C2089 H2075 0.961 . S
C2089 C2088 1.502 . S
C2090 H2076 0.960 . S
C2090 H2077 0.961 . S
C2090 H2078 0.959 . S
C2090 C2088 1.561 . S
C2091 C2088 1.526 . S
C2091 C2092 1.396 . S
C2091 C2096 1.390 . S
C2092 C2086 1.465 . S
C2092 C2091 1.396 . S
C2092 C2093 1.399 . S
C2093 H2079 0.929 . S
C2093 C2092 1.399 . S
C2093 C2094 1.385 . S
C2094 H2080 0.931 . S
C2094 C2093 1.385 . S
C2094 C2095 1.389 . S
C2095 C2094 1.389 . S
C2095 C2096 1.387 . S
C2096 H2081 0.930 . S
C2096 C2091 1.390 . S
C2096 C2095 1.387 . S
H2097 C2109 0.930 . S
H2098 C2111 0.930 . S
H2099 C2112 0.930 . S
H2100 C2116 0.959 . S
H2101 C2116 0.959 . S
H2102 C2116 0.961 . S
H2103 C2117 0.960 . S
H2104 C2117 0.961 . S
H2105 C2117 0.959 . S
H2106 C2120 0.929 . S
H2107 C2121 0.931 . S
H2108 C2123 0.930 . S
C2109 H2097 0.930 . S
C2109 C2110 1.399 . S
C2109 C2114 1.399 . S
C2110 C2109 1.399 . S
C2110 C2111 1.376 . S
C2111 H2098 0.930 . S
C2111 C2110 1.376 . S
C2111 C2112 1.388 . S
C2112 H2099 0.930 . S
C2112 C2111 1.388 . S
C2112 C2113 1.390 . S
C2113 C2112 1.390 . S
C2113 C2114 1.394 . S
C2113 C2119 1.465 . S
C2114 C2109 1.399 . S
C2114 C2113 1.394 . S
C2114 C2115 1.516 . S
C2115 C2114 1.516 . S
C2115 C2116 1.502 . S
C2115 C2117 1.561 . S
C2115 C2118 1.526 . S
C2116 H2100 0.959 . S
C2116 H2101 0.959 . S
C2116 H2102 0.961 . S
C2116 C2115 1.502 . S
C2117 H2103 0.960 . S
C2117 H2104 0.961 . S
C2117 H2105 0.959 . S
C2117 C2115 1.561 . S
C2118 C2115 1.526 . S
C2118 C2119 1.396 . S
C2118 C2123 1.390 . S
C2119 C2113 1.465 . S
C2119 C2118 1.396 . S
C2119 C2120 1.399 . S
C2120 H2106 0.929 . S
C2120 C2119 1.399 . S
C2120 C2121 1.385 . S
C2121 H2107 0.931 . S
C2121 C2120 1.385 . S
C2121 C2122 1.389 . S
C2122 C2121 1.389 . S
C2122 C2123 1.387 . S
C2123 H2108 0.930 . S
C2123 C2118 1.390 . S
C2123 C2122 1.387 . S
H2124 C2136 0.930 . S
H2125 C2138 0.930 . S
H2126 C2139 0.930 . S
H2127 C2143 0.959 . S
H2128 C2143 0.959 . S
H2129 C2143 0.961 . S
H2130 C2144 0.960 . S
H2131 C2144 0.961 . S
H2132 C2144 0.959 . S
H2133 C2147 0.929 . S
H2134 C2148 0.931 . S
H2135 C2150 0.930 . S
C2136 H2124 0.930 . S
C2136 C2137 1.399 . S
C2136 C2141 1.399 . S
C2137 C2136 1.399 . S
C2137 C2138 1.376 . S
C2138 H2125 0.930 . S
C2138 C2137 1.376 . S
C2138 C2139 1.388 . S
C2139 H2126 0.930 . S
C2139 C2138 1.388 . S
C2139 C2140 1.390 . S
C2140 C2139 1.390 . S
C2140 C2141 1.394 . S
C2140 C2146 1.465 . S
C2141 C2136 1.399 . S
C2141 C2140 1.394 . S
C2141 C2142 1.516 . S
C2142 C2141 1.516 . S
C2142 C2143 1.502 . S
C2142 C2144 1.561 . S
C2142 C2145 1.526 . S
C2143 H2127 0.959 . S
C2143 H2128 0.959 . S
C2143 H2129 0.961 . S
C2143 C2142 1.502 . S
C2144 H2130 0.960 . S
C2144 H2131 0.961 . S
C2144 H2132 0.959 . S
C2144 C2142 1.561 . S
C2145 C2142 1.526 . S
C2145 C2146 1.396 . S
C2145 C2150 1.390 . S
C2146 C2140 1.465 . S
C2146 C2145 1.396 . S
C2146 C2147 1.399 . S
C2147 H2133 0.929 . S
C2147 C2146 1.399 . S
C2147 C2148 1.385 . S
C2148 H2134 0.931 . S
C2148 C2147 1.385 . S
C2148 C2149 1.389 . S
C2149 C2148 1.389 . S
C2149 C2150 1.387 . S
C2150 H2135 0.930 . S
C2150 C2145 1.390 . S
C2150 C2149 1.387 . S
H2151 C2163 0.930 . S
H2152 C2165 0.930 . S
H2153 C2166 0.930 . S
H2154 C2170 0.959 . S
H2155 C2170 0.959 . S
H2156 C2170 0.961 . S
H2157 C2171 0.960 . S
H2158 C2171 0.961 . S
H2159 C2171 0.959 . S
H2160 C2174 0.929 . S
H2161 C2175 0.931 . S
H2162 C2177 0.930 . S
C2163 H2151 0.930 . S
C2163 C2164 1.399 . S
C2163 C2168 1.399 . S
C2164 C2163 1.399 . S
C2164 C2165 1.376 . S
C2165 H2152 0.930 . S
C2165 C2164 1.376 . S
C2165 C2166 1.388 . S
C2166 H2153 0.930 . S
C2166 C2165 1.388 . S
C2166 C2167 1.390 . S
C2167 C2166 1.390 . S
C2167 C2168 1.394 . S
C2167 C2173 1.465 . S
C2168 C2163 1.399 . S
C2168 C2167 1.394 . S
C2168 C2169 1.516 . S
C2169 C2168 1.516 . S
C2169 C2170 1.502 . S
C2169 C2171 1.561 . S
C2169 C2172 1.526 . S
C2170 H2154 0.959 . S
C2170 H2155 0.959 . S
C2170 H2156 0.961 . S
C2170 C2169 1.502 . S
C2171 H2157 0.960 . S
C2171 H2158 0.961 . S
C2171 H2159 0.959 . S
C2171 C2169 1.561 . S
C2172 C2169 1.526 . S
C2172 C2173 1.396 . S
C2172 C2177 1.390 . S
C2173 C2167 1.465 . S
C2173 C2172 1.396 . S
C2173 C2174 1.399 . S
C2174 H2160 0.929 . S
C2174 C2173 1.399 . S
C2174 C2175 1.385 . S
C2175 H2161 0.931 . S
C2175 C2174 1.385 . S
C2175 C2176 1.389 . S
C2176 C2175 1.389 . S
C2176 C2177 1.387 . S
C2177 H2162 0.930 . S
C2177 C2172 1.390 . S
C2177 C2176 1.387 . S
H2178 C2190 0.930 . S
H2179 C2192 0.930 . S
H2180 C2193 0.930 . S
H2181 C2197 0.959 . S
H2182 C2197 0.959 . S
H2183 C2197 0.961 . S
H2184 C2198 0.960 . S
H2185 C2198 0.961 . S
H2186 C2198 0.959 . S
H2187 C2201 0.929 . S
H2188 C2202 0.931 . S
H2189 C2204 0.930 . S
C2190 H2178 0.930 . S
C2190 C2191 1.399 . S
C2190 C2195 1.399 . S
C2191 C2190 1.399 . S
C2191 C2192 1.376 . S
C2192 H2179 0.930 . S
C2192 C2191 1.376 . S
C2192 C2193 1.388 . S
C2193 H2180 0.930 . S
C2193 C2192 1.388 . S
C2193 C2194 1.390 . S
C2194 C2193 1.390 . S
C2194 C2195 1.394 . S
C2194 C2200 1.465 . S
C2195 C2190 1.399 . S
C2195 C2194 1.394 . S
C2195 C2196 1.516 . S
C2196 C2195 1.516 . S
C2196 C2197 1.502 . S
C2196 C2198 1.561 . S
C2196 C2199 1.526 . S
C2197 H2181 0.959 . S
C2197 H2182 0.959 . S
C2197 H2183 0.961 . S
C2197 C2196 1.502 . S
C2198 H2184 0.960 . S
C2198 H2185 0.961 . S
C2198 H2186 0.959 . S
C2198 C2196 1.561 . S
C2199 C2196 1.526 . S
C2199 C2200 1.396 . S
C2199 C2204 1.390 . S
C2200 C2194 1.465 . S
C2200 C2199 1.396 . S
C2200 C2201 1.399 . S
C2201 H2187 0.929 . S
C2201 C2200 1.399 . S
C2201 C2202 1.385 . S
C2202 H2188 0.931 . S
C2202 C2201 1.385 . S
C2202 C2203 1.389 . S
C2203 C2202 1.389 . S
C2203 C2204 1.387 . S
C2204 H2189 0.930 . S
C2204 C2199 1.390 . S
C2204 C2203 1.387 . S
H2205 C2217 0.930 . S
H2206 C2219 0.930 . S
H2207 C2220 0.930 . S
H2208 C2224 0.959 . S
H2209 C2224 0.959 . S
H2210 C2224 0.961 . S
H2211 C2225 0.960 . S
H2212 C2225 0.961 . S
H2213 C2225 0.959 . S
H2214 C2228 0.929 . S
H2215 C2229 0.931 . S
H2216 C2231 0.930 . S
C2217 H2205 0.930 . S
C2217 C2218 1.399 . S
C2217 C2222 1.399 . S
C2218 C2217 1.399 . S
C2218 C2219 1.376 . S
C2219 H2206 0.930 . S
C2219 C2218 1.376 . S
C2219 C2220 1.388 . S
C2220 H2207 0.930 . S
C2220 C2219 1.388 . S
C2220 C2221 1.390 . S
C2221 C2220 1.390 . S
C2221 C2222 1.394 . S
C2221 C2227 1.465 . S
C2222 C2217 1.399 . S
C2222 C2221 1.394 . S
C2222 C2223 1.516 . S
C2223 C2222 1.516 . S
C2223 C2224 1.502 . S
C2223 C2225 1.561 . S
C2223 C2226 1.526 . S
C2224 H2208 0.959 . S
C2224 H2209 0.959 . S
C2224 H2210 0.961 . S
C2224 C2223 1.502 . S
C2225 H2211 0.960 . S
C2225 H2212 0.961 . S
C2225 H2213 0.959 . S
C2225 C2223 1.561 . S
C2226 C2223 1.526 . S
C2226 C2227 1.396 . S
C2226 C2231 1.390 . S
C2227 C2221 1.465 . S
C2227 C2226 1.396 . S
C2227 C2228 1.399 . S
C2228 H2214 0.929 . S
C2228 C2227 1.399 . S
C2228 C2229 1.385 . S
C2229 H2215 0.931 . S
C2229 C2228 1.385 . S
C2229 C2230 1.389 . S
C2230 C2229 1.389 . S
C2230 C2231 1.387 . S
C2231 H2216 0.930 . S
C2231 C2226 1.390 . S
C2231 C2230 1.387 . S
H2232 C2244 0.930 . S
H2233 C2246 0.930 . S
H2234 C2247 0.930 . S
H2235 C2251 0.959 . S
H2236 C2251 0.959 . S
H2237 C2251 0.961 . S
H2238 C2252 0.960 . S
H2239 C2252 0.961 . S
H2240 C2252 0.959 . S
H2241 C2255 0.929 . S
H2242 C2256 0.931 . S
H2243 C2258 0.930 . S
C2244 H2232 0.930 . S
C2244 C2245 1.399 . S
C2244 C2249 1.399 . S
C2245 C2244 1.399 . S
C2245 C2246 1.376 . S
C2246 H2233 0.930 . S
C2246 C2245 1.376 . S
C2246 C2247 1.388 . S
C2247 H2234 0.930 . S
C2247 C2246 1.388 . S
C2247 C2248 1.390 . S
C2248 C2247 1.390 . S
C2248 C2249 1.394 . S
C2248 C2254 1.465 . S
C2249 C2244 1.399 . S
C2249 C2248 1.394 . S
C2249 C2250 1.516 . S
C2250 C2249 1.516 . S
C2250 C2251 1.502 . S
C2250 C2252 1.561 . S
C2250 C2253 1.526 . S
C2251 H2235 0.959 . S
C2251 H2236 0.959 . S
C2251 H2237 0.961 . S
C2251 C2250 1.502 . S
C2252 H2238 0.960 . S
C2252 H2239 0.961 . S
C2252 H2240 0.959 . S
C2252 C2250 1.561 . S
C2253 C2250 1.526 . S
C2253 C2254 1.396 . S
C2253 C2258 1.390 . S
C2254 C2248 1.465 . S
C2254 C2253 1.396 . S
C2254 C2255 1.399 . S
C2255 H2241 0.929 . S
C2255 C2254 1.399 . S
C2255 C2256 1.385 . S
C2256 H2242 0.931 . S
C2256 C2255 1.385 . S
C2256 C2257 1.389 . S
C2257 C2256 1.389 . S
C2257 C2258 1.387 . S
C2258 H2243 0.930 . S
C2258 C2253 1.390 . S
C2258 C2257 1.387 . S
H2259 C2271 0.930 . S
H2260 C2273 0.930 . S
H2261 C2274 0.930 . S
H2262 C2278 0.959 . S
H2263 C2278 0.959 . S
H2264 C2278 0.961 . S
H2265 C2279 0.960 . S
H2266 C2279 0.961 . S
H2267 C2279 0.959 . S
H2268 C2282 0.929 . S
H2269 C2283 0.931 . S
H2270 C2285 0.930 . S
C2271 H2259 0.930 . S
C2271 C2272 1.399 . S
C2271 C2276 1.399 . S
C2272 C2271 1.399 . S
C2272 C2273 1.376 . S
C2273 H2260 0.930 . S
C2273 C2272 1.376 . S
C2273 C2274 1.388 . S
C2274 H2261 0.930 . S
C2274 C2273 1.388 . S
C2274 C2275 1.390 . S
C2275 C2274 1.390 . S
C2275 C2276 1.394 . S
C2275 C2281 1.465 . S
C2276 C2271 1.399 . S
C2276 C2275 1.394 . S
C2276 C2277 1.516 . S
C2277 C2276 1.516 . S
C2277 C2278 1.502 . S
C2277 C2279 1.561 . S
C2277 C2280 1.526 . S
C2278 H2262 0.959 . S
C2278 H2263 0.959 . S
C2278 H2264 0.961 . S
C2278 C2277 1.502 . S
C2279 H2265 0.960 . S
C2279 H2266 0.961 . S
C2279 H2267 0.959 . S
C2279 C2277 1.561 . S
C2280 C2277 1.526 . S
C2280 C2281 1.396 . S
C2280 C2285 1.390 . S
C2281 C2275 1.465 . S
C2281 C2280 1.396 . S
C2281 C2282 1.399 . S
C2282 H2268 0.929 . S
C2282 C2281 1.399 . S
C2282 C2283 1.385 . S
C2283 H2269 0.931 . S
C2283 C2282 1.385 . S
C2283 C2284 1.389 . S
C2284 C2283 1.389 . S
C2284 C2285 1.387 . S
C2285 H2270 0.930 . S
C2285 C2280 1.390 . S
C2285 C2284 1.387 . S
H2286 C2298 0.930 . S
H2287 C2300 0.930 . S
H2288 C2301 0.930 . S
H2289 C2305 0.959 . S
H2290 C2305 0.959 . S
H2291 C2305 0.961 . S
H2292 C2306 0.960 . S
H2293 C2306 0.961 . S
H2294 C2306 0.959 . S
H2295 C2309 0.929 . S
H2296 C2310 0.931 . S
H2297 C2312 0.930 . S
C2298 H2286 0.930 . S
C2298 C2299 1.399 . S
C2298 C2303 1.399 . S
C2299 C2298 1.399 . S
C2299 C2300 1.376 . S
C2300 H2287 0.930 . S
C2300 C2299 1.376 . S
C2300 C2301 1.388 . S
C2301 H2288 0.930 . S
C2301 C2300 1.388 . S
C2301 C2302 1.390 . S
C2302 C2301 1.390 . S
C2302 C2303 1.394 . S
C2302 C2308 1.465 . S
C2303 C2298 1.399 . S
C2303 C2302 1.394 . S
C2303 C2304 1.516 . S
C2304 C2303 1.516 . S
C2304 C2305 1.502 . S
C2304 C2306 1.561 . S
C2304 C2307 1.526 . S
C2305 H2289 0.959 . S
C2305 H2290 0.959 . S
C2305 H2291 0.961 . S
C2305 C2304 1.502 . S
C2306 H2292 0.960 . S
C2306 H2293 0.961 . S
C2306 H2294 0.959 . S
C2306 C2304 1.561 . S
C2307 C2304 1.526 . S
C2307 C2308 1.396 . S
C2307 C2312 1.390 . S
C2308 C2302 1.465 . S
C2308 C2307 1.396 . S
C2308 C2309 1.399 . S
C2309 H2295 0.929 . S
C2309 C2308 1.399 . S
C2309 C2310 1.385 . S
C2310 H2296 0.931 . S
C2310 C2309 1.385 . S
C2310 C2311 1.389 . S
C2311 C2310 1.389 . S
C2311 C2312 1.387 . S
C2312 H2297 0.930 . S
C2312 C2307 1.390 . S
C2312 C2311 1.387 . S
H2313 C2325 0.930 . S
H2314 C2327 0.930 . S
H2315 C2328 0.930 . S
H2316 C2332 0.959 . S
H2317 C2332 0.959 . S
H2318 C2332 0.961 . S
H2319 C2333 0.960 . S
H2320 C2333 0.961 . S
H2321 C2333 0.959 . S
H2322 C2336 0.929 . S
H2323 C2337 0.931 . S
H2324 C2339 0.930 . S
C2325 H2313 0.930 . S
C2325 C2326 1.399 . S
C2325 C2330 1.399 . S
C2326 C2325 1.399 . S
C2326 C2327 1.376 . S
C2327 H2314 0.930 . S
C2327 C2326 1.376 . S
C2327 C2328 1.388 . S
C2328 H2315 0.930 . S
C2328 C2327 1.388 . S
C2328 C2329 1.390 . S
C2329 C2328 1.390 . S
C2329 C2330 1.394 . S
C2329 C2335 1.465 . S
C2330 C2325 1.399 . S
C2330 C2329 1.394 . S
C2330 C2331 1.516 . S
C2331 C2330 1.516 . S
C2331 C2332 1.502 . S
C2331 C2333 1.561 . S
C2331 C2334 1.526 . S
C2332 H2316 0.959 . S
C2332 H2317 0.959 . S
C2332 H2318 0.961 . S
C2332 C2331 1.502 . S
C2333 H2319 0.960 . S
C2333 H2320 0.961 . S
C2333 H2321 0.959 . S
C2333 C2331 1.561 . S
C2334 C2331 1.526 . S
C2334 C2335 1.396 . S
C2334 C2339 1.390 . S
C2335 C2329 1.465 . S
C2335 C2334 1.396 . S
C2335 C2336 1.399 . S
C2336 H2322 0.929 . S
C2336 C2335 1.399 . S
C2336 C2337 1.385 . S
C2337 H2323 0.931 . S
C2337 C2336 1.385 . S
C2337 C2338 1.389 . S
C2338 C2337 1.389 . S
C2338 C2339 1.387 . S
C2339 H2324 0.930 . S
C2339 C2334 1.390 . S
C2339 C2338 1.387 . S
H2340 C2352 0.930 . S
H2341 C2354 0.930 . S
H2342 C2355 0.930 . S
H2343 C2359 0.959 . S
H2344 C2359 0.959 . S
H2345 C2359 0.961 . S
H2346 C2360 0.960 . S
H2347 C2360 0.961 . S
H2348 C2360 0.959 . S
H2349 C2363 0.929 . S
H2350 C2364 0.931 . S
H2351 C2366 0.930 . S
C2352 H2340 0.930 . S
C2352 C2353 1.399 . S
C2352 C2357 1.399 . S
C2353 C2352 1.399 . S
C2353 C2354 1.376 . S
C2354 H2341 0.930 . S
C2354 C2353 1.376 . S
C2354 C2355 1.388 . S
C2355 H2342 0.930 . S
C2355 C2354 1.388 . S
C2355 C2356 1.390 . S
C2356 C2355 1.390 . S
C2356 C2357 1.394 . S
C2356 C2362 1.465 . S
C2357 C2352 1.399 . S
C2357 C2356 1.394 . S
C2357 C2358 1.516 . S
C2358 C2357 1.516 . S
C2358 C2359 1.502 . S
C2358 C2360 1.561 . S
C2358 C2361 1.526 . S
C2359 H2343 0.959 . S
C2359 H2344 0.959 . S
C2359 H2345 0.961 . S
C2359 C2358 1.502 . S
C2360 H2346 0.960 . S
C2360 H2347 0.961 . S
C2360 H2348 0.959 . S
C2360 C2358 1.561 . S
C2361 C2358 1.526 . S
C2361 C2362 1.396 . S
C2361 C2366 1.390 . S
C2362 C2356 1.465 . S
C2362 C2361 1.396 . S
C2362 C2363 1.399 . S
C2363 H2349 0.929 . S
C2363 C2362 1.399 . S
C2363 C2364 1.385 . S
C2364 H2350 0.931 . S
C2364 C2363 1.385 . S
C2364 C2365 1.389 . S
C2365 C2364 1.389 . S
C2365 C2366 1.387 . S
C2366 H2351 0.930 . S
C2366 C2361 1.390 . S
C2366 C2365 1.387 . S
H2367 C2379 0.930 . S
H2368 C2381 0.930 . S
H2369 C2382 0.930 . S
H2370 C2386 0.959 . S
H2371 C2386 0.959 . S
H2372 C2386 0.961 . S
H2373 C2387 0.960 . S
H2374 C2387 0.961 . S
H2375 C2387 0.959 . S
H2376 C2390 0.929 . S
H2377 C2391 0.931 . S
H2378 C2393 0.930 . S
C2379 H2367 0.930 . S
C2379 C2380 1.399 . S
C2379 C2384 1.399 . S
C2380 C2379 1.399 . S
C2380 C2381 1.376 . S
C2381 H2368 0.930 . S
C2381 C2380 1.376 . S
C2381 C2382 1.388 . S
C2382 H2369 0.930 . S
C2382 C2381 1.388 . S
C2382 C2383 1.390 . S
C2383 C2382 1.390 . S
C2383 C2384 1.394 . S
C2383 C2389 1.465 . S
C2384 C2379 1.399 . S
C2384 C2383 1.394 . S
C2384 C2385 1.516 . S
C2385 C2384 1.516 . S
C2385 C2386 1.502 . S
C2385 C2387 1.561 . S
C2385 C2388 1.526 . S
C2386 H2370 0.959 . S
C2386 H2371 0.959 . S
C2386 H2372 0.961 . S
C2386 C2385 1.502 . S
C2387 H2373 0.960 . S
C2387 H2374 0.961 . S
C2387 H2375 0.959 . S
C2387 C2385 1.561 . S
C2388 C2385 1.526 . S
C2388 C2389 1.396 . S
C2388 C2393 1.390 . S
C2389 C2383 1.465 . S
C2389 C2388 1.396 . S
C2389 C2390 1.399 . S
C2390 H2376 0.929 . S
C2390 C2389 1.399 . S
C2390 C2391 1.385 . S
C2391 H2377 0.931 . S
C2391 C2390 1.385 . S
C2391 C2392 1.389 . S
C2392 C2391 1.389 . S
C2392 C2393 1.387 . S
C2393 H2378 0.930 . S
C2393 C2388 1.390 . S
C2393 C2392 1.387 . S
H2394 C2406 0.930 . S
H2395 C2408 0.930 . S
H2396 C2409 0.930 . S
H2397 C2413 0.959 . S
H2398 C2413 0.959 . S
H2399 C2413 0.961 . S
H2400 C2414 0.960 . S
H2401 C2414 0.961 . S
H2402 C2414 0.959 . S
H2403 C2417 0.929 . S
H2404 C2418 0.931 . S
H2405 C2420 0.930 . S
C2406 H2394 0.930 . S
C2406 C2407 1.399 . S
C2406 C2411 1.399 . S
C2407 C2406 1.399 . S
C2407 C2408 1.376 . S
C2408 H2395 0.930 . S
C2408 C2407 1.376 . S
C2408 C2409 1.388 . S
C2409 H2396 0.930 . S
C2409 C2408 1.388 . S
C2409 C2410 1.390 . S
C2410 C2409 1.390 . S
C2410 C2411 1.394 . S
C2410 C2416 1.465 . S
C2411 C2406 1.399 . S
C2411 C2410 1.394 . S
C2411 C2412 1.516 . S
C2412 C2411 1.516 . S
C2412 C2413 1.502 . S
C2412 C2414 1.561 . S
C2412 C2415 1.526 . S
C2413 H2397 0.959 . S
C2413 H2398 0.959 . S
C2413 H2399 0.961 . S
C2413 C2412 1.502 . S
C2414 H2400 0.960 . S
C2414 H2401 0.961 . S
C2414 H2402 0.959 . S
C2414 C2412 1.561 . S
C2415 C2412 1.526 . S
C2415 C2416 1.396 . S
C2415 C2420 1.390 . S
C2416 C2410 1.465 . S
C2416 C2415 1.396 . S
C2416 C2417 1.399 . S
C2417 H2403 0.929 . S
C2417 C2416 1.399 . S
C2417 C2418 1.385 . S
C2418 H2404 0.931 . S
C2418 C2417 1.385 . S
C2418 C2419 1.389 . S
C2419 C2418 1.389 . S
C2419 C2420 1.387 . S
C2420 H2405 0.930 . S
C2420 C2415 1.390 . S
C2420 C2419 1.387 . S
H2421 C2433 0.930 . S
H2422 C2435 0.930 . S
H2423 C2436 0.930 . S
H2424 C2440 0.959 . S
H2425 C2440 0.959 . S
H2426 C2440 0.961 . S
H2427 C2441 0.960 . S
H2428 C2441 0.961 . S
H2429 C2441 0.959 . S
H2430 C2444 0.897 1_554 S
H2431 C2445 0.931 . S
H2432 C2447 0.930 . S
C2433 H2421 0.930 . S
C2433 C2434 1.399 . S
C2433 C2438 1.399 . S
C2434 C2433 1.399 . S
C2434 C2435 1.376 1_556 S
C2435 H2422 0.930 . S
C2435 C2434 1.376 1_554 S
C2435 C2436 1.388 . S
C2436 H2423 0.930 . S
C2436 C2435 1.388 . S
C2436 C2437 1.390 1_554 S
C2437 C2436 1.390 1_556 S
C2437 C2438 1.394 . S
C2437 C2443 1.465 . S
C2438 C2433 1.399 . S
C2438 C2437 1.394 . S
C2438 C2439 1.516 . S
C2439 C2438 1.516 . S
C2439 C2440 1.502 . S
C2439 C2441 1.561 . S
C2439 C2442 1.526 . S
C2440 H2424 0.959 . S
C2440 H2425 0.959 . S
C2440 H2426 0.961 . S
C2440 C2439 1.502 . S
C2441 H2427 0.960 . S
C2441 H2428 0.961 . S
C2441 H2429 0.959 . S
C2441 C2439 1.561 . S
C2442 C2439 1.526 . S
C2442 C2443 1.396 . S
C2442 C2447 1.390 . S
C2443 C2437 1.465 . S
C2443 C2442 1.396 . S
C2443 C2444 1.399 . S
C2444 H2430 0.897 1_556 S
C2444 C2443 1.399 . S
C2444 C2445 1.385 . S
C2445 H2431 0.931 . S
C2445 C2444 1.385 . S
C2445 C2446 1.389 . S
C2446 C2445 1.389 . S
C2446 C2447 1.387 . S
C2447 H2432 0.930 . S
C2447 C2442 1.390 . S
C2447 C2446 1.387 . S
H2448 C2460 0.930 . S
H2449 C2462 0.930 . S
H2450 C2463 0.930 . S
H2451 C2467 0.959 . S
H2452 C2467 0.959 . S
H2453 C2467 0.961 . S
H2454 C2468 0.960 . S
H2455 C2468 0.961 . S
H2456 C2468 0.959 . S
H2457 C2471 0.929 1_554 S
H2458 C2472 0.931 . S
H2459 C2474 0.930 . S
C2460 H2448 0.930 . S
C2460 C2461 1.399 . S
C2460 C2465 1.399 . S
C2461 C2460 1.399 . S
C2461 C2462 1.376 1_556 S
C2462 H2449 0.930 . S
C2462 C2461 1.376 1_554 S
C2462 C2463 1.388 . S
C2463 H2450 0.930 . S
C2463 C2462 1.388 . S
C2463 C2464 1.390 1_554 S
C2464 C2463 1.390 1_556 S
C2464 C2465 1.394 . S
C2464 C2470 1.465 . S
C2465 C2460 1.399 . S
C2465 C2464 1.394 . S
C2465 C2466 1.516 . S
C2466 C2465 1.516 . S
C2466 C2467 1.502 . S
C2466 C2468 1.561 . S
C2466 C2469 1.526 . S
C2467 H2451 0.959 . S
C2467 H2452 0.959 . S
C2467 H2453 0.961 . S
C2467 C2466 1.502 . S
C2468 H2454 0.960 . S
C2468 H2455 0.961 . S
C2468 H2456 0.959 . S
C2468 C2466 1.561 . S
C2469 C2466 1.526 . S
C2469 C2470 1.396 . S
C2469 C2474 1.390 . S
C2470 C2464 1.465 . S
C2470 C2469 1.396 . S
C2470 C2471 1.399 . S
C2471 H2457 0.929 1_556 S
C2471 C2470 1.399 . S
C2471 C2472 1.385 . S
C2472 H2458 0.931 . S
C2472 C2471 1.385 . S
C2472 C2473 1.389 . S
C2473 C2472 1.389 . S
C2473 C2474 1.387 . S
C2474 H2459 0.930 . S
C2474 C2469 1.390 . S
C2474 C2473 1.387 . S
H2475 C2487 0.930 . S
H2476 C2489 0.930 . S
H2477 C2490 0.930 . S
H2478 C2494 0.959 . S
H2479 C2494 0.959 . S
H2480 C2494 0.961 . S
H2481 C2495 0.960 . S
H2482 C2495 0.961 . S
H2483 C2495 0.959 . S
H2484 C2498 0.929 . S
H2485 C2499 0.931 . S
H2486 C2501 0.930 . S
C2487 H2475 0.930 . S
C2487 C2488 1.399 . S
C2487 C2492 1.399 . S
C2488 C2487 1.399 . S
C2488 C2489 1.376 . S
C2489 H2476 0.930 . S
C2489 C2488 1.376 . S
C2489 C2490 1.388 . S
C2490 H2477 0.930 . S
C2490 C2489 1.388 . S
C2490 C2491 1.390 . S
C2491 C2490 1.390 . S
C2491 C2492 1.394 . S
C2491 C2497 1.465 . S
C2492 C2487 1.399 . S
C2492 C2491 1.394 . S
C2492 C2493 1.516 . S
C2493 C2492 1.516 . S
C2493 C2494 1.502 . S
C2493 C2495 1.561 . S
C2493 C2496 1.526 . S
C2494 H2478 0.959 . S
C2494 H2479 0.959 . S
C2494 H2480 0.961 . S
C2494 C2493 1.502 . S
C2495 H2481 0.960 . S
C2495 H2482 0.961 . S
C2495 H2483 0.959 . S
C2495 C2493 1.561 . S
C2496 C2493 1.526 . S
C2496 C2497 1.396 . S
C2496 C2501 1.390 . S
C2497 C2491 1.465 . S
C2497 C2496 1.396 . S
C2497 C2498 1.399 . S
C2498 H2484 0.929 . S
C2498 C2497 1.399 . S
C2498 C2499 1.385 . S
C2499 H2485 0.931 . S
C2499 C2498 1.385 . S
C2499 C2500 1.389 . S
C2500 C2499 1.389 . S
C2500 C2501 1.387 . S
C2501 H2486 0.930 . S
C2501 C2496 1.390 . S
C2501 C2500 1.387 . S
H2502 C2514 0.930 . S
H2503 C2516 0.930 . S
H2504 C2517 0.930 . S
H2505 C2521 0.959 . S
H2506 C2521 0.959 . S
H2507 C2521 0.961 . S
H2508 C2522 0.960 . S
H2509 C2522 0.961 . S
H2510 C2522 0.959 . S
H2511 C2525 0.929 . S
H2512 C2526 0.931 . S
H2513 C2528 0.930 . S
C2514 H2502 0.930 . S
C2514 C2515 1.399 . S
C2514 C2519 1.399 . S
C2515 C2514 1.399 . S
C2515 C2516 1.376 1_556 S
C2516 H2503 0.930 . S
C2516 C2515 1.376 1_554 S
C2516 C2517 1.388 . S
C2517 H2504 0.930 . S
C2517 C2516 1.388 . S
C2517 C2518 1.390 1_554 S
C2518 C2517 1.390 1_556 S
C2518 C2519 1.394 . S
C2518 C2524 1.465 . S
C2519 C2514 1.399 . S
C2519 C2518 1.394 . S
C2519 C2520 1.516 . S
C2520 C2519 1.516 . S
C2520 C2521 1.502 . S
C2520 C2522 1.561 . S
C2520 C2523 1.526 . S
C2521 H2505 0.959 . S
C2521 H2506 0.959 . S
C2521 H2507 0.961 . S
C2521 C2520 1.502 . S
C2522 H2508 0.960 . S
C2522 H2509 0.961 . S
C2522 H2510 0.959 . S
C2522 C2520 1.561 . S
C2523 C2520 1.526 . S
C2523 C2524 1.396 . S
C2523 C2528 1.390 . S
C2524 C2518 1.465 . S
C2524 C2523 1.396 . S
C2524 C2525 1.399 . S
C2525 H2511 0.929 . S
C2525 C2524 1.399 . S
C2525 C2526 1.385 . S
C2526 H2512 0.931 . S
C2526 C2525 1.385 . S
C2526 C2527 1.389 . S
C2527 C2526 1.389 . S
C2527 C2528 1.387 . S
C2528 H2513 0.930 . S
C2528 C2523 1.390 . S
C2528 C2527 1.387 . S
H2529 C2541 0.930 . S
H2530 C2543 0.936 . S
H2531 C2544 0.930 1_554 S
H2532 C2548 0.959 . S
H2533 C2548 0.959 . S
H2534 C2548 0.961 . S
H2535 C2549 0.960 . S
H2536 C2549 0.961 . S
H2537 C2549 0.959 . S
H2538 C2552 0.929 . S
H2539 C2553 0.931 . S
H2540 C2555 0.930 . S
C2541 H2529 0.930 . S
C2541 C2542 1.399 . S
C2541 C2546 1.399 . S
C2542 C2541 1.399 . S
C2542 C2543 1.372 1_556 S
C2543 H2530 0.936 . S
C2543 C2542 1.372 1_554 S
C2543 C2544 1.387 1_554 S
C2544 H2531 0.930 1_556 S
C2544 C2543 1.387 1_556 S
C2544 C2545 1.390 . S
C2545 C2544 1.390 . S
C2545 C2546 1.394 . S
C2545 C2551 1.465 . S
C2546 C2541 1.399 . S
C2546 C2545 1.394 . S
C2546 C2547 1.516 . S
C2547 C2546 1.516 . S
C2547 C2548 1.502 . S
C2547 C2549 1.561 . S
C2547 C2550 1.526 . S
C2548 H2532 0.959 . S
C2548 H2533 0.959 . S
C2548 H2534 0.961 . S
C2548 C2547 1.502 . S
C2549 H2535 0.960 . S
C2549 H2536 0.961 . S
C2549 H2537 0.959 . S
C2549 C2547 1.561 . S
C2550 C2547 1.526 . S
C2550 C2551 1.396 . S
C2550 C2555 1.390 . S
C2551 C2545 1.465 . S
C2551 C2550 1.396 . S
C2551 C2552 1.399 . S
C2552 H2538 0.929 . S
C2552 C2551 1.399 . S
C2552 C2553 1.385 . S
C2553 H2539 0.931 . S
C2553 C2552 1.385 . S
C2553 C2554 1.389 . S
C2554 C2553 1.389 . S
C2554 C2555 1.387 . S
C2555 H2540 0.930 . S
C2555 C2550 1.390 . S
C2555 C2554 1.387 . S
H2556 C2568 0.930 . S
H2557 C2570 0.930 . S
H2558 C2571 0.930 . S
H2559 C2575 0.959 . S
H2560 C2575 0.959 . S
H2561 C2575 0.961 . S
H2562 C2576 0.960 . S
H2563 C2576 0.961 . S
H2564 C2576 0.959 . S
H2565 C2579 0.929 . S
H2566 C2580 0.931 . S
H2567 C2582 0.930 . S
C2568 H2556 0.930 . S
C2568 C2569 1.399 . S
C2568 C2573 1.399 . S
C2569 C2568 1.399 . S
C2569 C2570 1.376 . S
C2570 H2557 0.930 . S
C2570 C2569 1.376 . S
C2570 C2571 1.388 . S
C2571 H2558 0.930 . S
C2571 C2570 1.388 . S
C2571 C2572 1.390 . S
C2572 C2571 1.390 . S
C2572 C2573 1.394 . S
C2572 C2578 1.465 . S
C2573 C2568 1.399 . S
C2573 C2572 1.394 . S
C2573 C2574 1.516 . S
C2574 C2573 1.516 . S
C2574 C2575 1.502 . S
C2574 C2576 1.561 1_556 S
C2574 C2577 1.526 . S
C2575 H2559 0.959 . S
C2575 H2560 0.959 . S
C2575 H2561 0.961 . S
C2575 C2574 1.502 . S
C2576 H2562 0.960 . S
C2576 H2563 0.961 . S
C2576 H2564 0.959 . S
C2576 C2574 1.561 1_554 S
C2577 C2574 1.526 . S
C2577 C2578 1.396 . S
C2577 C2582 1.390 . S
C2578 C2572 1.465 . S
C2578 C2577 1.396 . S
C2578 C2579 1.399 . S
C2579 H2565 0.929 . S
C2579 C2578 1.399 . S
C2579 C2580 1.385 . S
C2580 H2566 0.931 . S
C2580 C2579 1.385 . S
C2580 C2581 1.389 . S
C2581 C2580 1.389 . S
C2581 C2582 1.387 . S
C2582 H2567 0.930 . S
C2582 C2577 1.390 . S
C2582 C2581 1.387 . S
H2583 C2595 0.930 . S
H2584 C2597 0.930 . S
H2585 C2598 0.930 . S
H2586 C2602 0.959 . S
H2587 C2602 0.959 . S
H2588 C2602 0.961 . S
H2589 C2603 0.960 . S
H2590 C2603 0.961 . S
H2591 C2603 0.959 . S
H2592 C2606 0.929 . S
H2593 C2607 0.931 . S
H2594 C2609 0.930 . S
C2595 H2583 0.930 . S
C2595 C2596 1.399 . S
C2595 C2600 1.399 . S
C2596 C2595 1.399 . S
C2596 C2597 1.376 . S
C2597 H2584 0.930 . S
C2597 C2596 1.376 . S
C2597 C2598 1.388 . S
C2598 H2585 0.930 . S
C2598 C2597 1.388 . S
C2598 C2599 1.390 . S
C2599 C2598 1.390 . S
C2599 C2600 1.394 . S
C2599 C2605 1.465 . S
C2600 C2595 1.399 . S
C2600 C2599 1.394 . S
C2600 C2601 1.516 . S
C2601 C2600 1.516 . S
C2601 C2602 1.502 . S
C2601 C2603 1.561 . S
C2601 C2604 1.526 . S
C2602 H2586 0.959 . S
C2602 H2587 0.959 . S
C2602 H2588 0.961 . S
C2602 C2601 1.502 . S
C2603 H2589 0.960 . S
C2603 H2590 0.961 . S
C2603 H2591 0.959 . S
C2603 C2601 1.561 . S
C2604 C2601 1.526 . S
C2604 C2605 1.396 . S
C2604 C2609 1.390 . S
C2605 C2599 1.465 . S
C2605 C2604 1.396 . S
C2605 C2606 1.399 . S
C2606 H2592 0.929 . S
C2606 C2605 1.399 . S
C2606 C2607 1.385 . S
C2607 H2593 0.931 . S
C2607 C2606 1.385 . S
C2607 C2608 1.389 . S
C2608 C2607 1.389 . S
C2608 C2609 1.387 . S
C2609 H2594 0.930 . S
C2609 C2604 1.390 . S
C2609 C2608 1.387 . S
H2610 C2622 0.930 . S
H2611 C2624 0.930 . S
H2612 C2625 0.930 . S
H2613 C2629 0.959 . S
H2614 C2629 0.959 . S
H2615 C2629 0.961 . S
H2616 C2630 0.960 . S
H2617 C2630 0.961 . S
H2618 C2630 0.959 . S
H2619 C2633 0.929 . S
H2620 C2634 0.931 . S
H2621 C2636 0.930 . S
C2622 H2610 0.930 . S
C2622 C2623 1.399 . S
C2622 C2627 1.399 . S
C2623 C2622 1.399 . S
C2623 C2624 1.376 . S
C2624 H2611 0.930 . S
C2624 C2623 1.376 . S
C2624 C2625 1.388 . S
C2625 H2612 0.930 . S
C2625 C2624 1.388 . S
C2625 C2626 1.390 . S
C2626 C2625 1.390 . S
C2626 C2627 1.394 . S
C2626 C2632 1.465 . S
C2627 C2622 1.399 . S
C2627 C2626 1.394 . S
C2627 C2628 1.516 . S
C2628 C2627 1.516 . S
C2628 C2629 1.502 . S
C2628 C2630 1.561 . S
C2628 C2631 1.526 . S
C2629 H2613 0.959 . S
C2629 H2614 0.959 . S
C2629 H2615 0.961 . S
C2629 C2628 1.502 . S
C2630 H2616 0.960 . S
C2630 H2617 0.961 . S
C2630 H2618 0.959 . S
C2630 C2628 1.561 . S
C2631 C2628 1.526 . S
C2631 C2632 1.396 . S
C2631 C2636 1.390 . S
C2632 C2626 1.465 . S
C2632 C2631 1.396 . S
C2632 C2633 1.399 . S
C2633 H2619 0.929 . S
C2633 C2632 1.399 . S
C2633 C2634 1.385 . S
C2634 H2620 0.931 . S
C2634 C2633 1.385 . S
C2634 C2635 1.389 . S
C2635 C2634 1.389 . S
C2635 C2636 1.387 . S
C2636 H2621 0.930 . S
C2636 C2631 1.390 . S
C2636 C2635 1.387 . S
H2637 C2649 0.930 . S
H2638 C2651 0.930 . S
H2639 C2652 0.930 . S
H2640 C2656 0.959 . S
H2641 C2656 0.959 . S
H2642 C2656 0.961 . S
H2643 C2657 0.960 . S
H2644 C2657 0.961 . S
H2645 C2657 0.959 . S
H2646 C2660 0.929 . S
H2647 C2661 0.931 . S
H2648 C2663 0.930 . S
C2649 H2637 0.930 . S
C2649 C2650 1.399 . S
C2649 C2654 1.399 . S
C2650 C2649 1.399 . S
C2650 C2651 1.376 . S
C2651 H2638 0.930 . S
C2651 C2650 1.376 . S
C2651 C2652 1.388 . S
C2652 H2639 0.930 . S
C2652 C2651 1.388 . S
C2652 C2653 1.390 . S
C2653 C2652 1.390 . S
C2653 C2654 1.394 . S
C2653 C2659 1.465 . S
C2654 C2649 1.399 . S
C2654 C2653 1.394 . S
C2654 C2655 1.516 . S
C2655 C2654 1.516 . S
C2655 C2656 1.502 . S
C2655 C2657 1.561 . S
C2655 C2658 1.526 . S
C2656 H2640 0.959 . S
C2656 H2641 0.959 . S
C2656 H2642 0.961 . S
C2656 C2655 1.502 . S
C2657 H2643 0.960 . S
C2657 H2644 0.961 . S
C2657 H2645 0.959 . S
C2657 C2655 1.561 . S
C2658 C2655 1.526 . S
C2658 C2659 1.396 . S
C2658 C2663 1.390 . S
C2659 C2653 1.465 . S
C2659 C2658 1.396 . S
C2659 C2660 1.399 . S
C2660 H2646 0.929 . S
C2660 C2659 1.399 . S
C2660 C2661 1.385 . S
C2661 H2647 0.931 . S
C2661 C2660 1.385 . S
C2661 C2662 1.389 . S
C2662 C2661 1.389 . S
C2662 C2663 1.387 . S
C2663 H2648 0.930 . S
C2663 C2658 1.390 . S
C2663 C2662 1.387 . S
H2664 C2676 0.930 . S
H2665 C2678 0.930 . S
H2666 C2679 0.930 . S
H2667 C2683 0.959 . S
H2668 C2683 0.959 . S
H2669 C2683 0.961 . S
H2670 C2684 0.960 . S
H2671 C2684 0.961 . S
H2672 C2684 0.959 . S
H2673 C2687 0.929 . S
H2674 C2688 0.931 . S
H2675 C2690 0.930 . S
C2676 H2664 0.930 . S
C2676 C2677 1.399 . S
C2676 C2681 1.399 . S
C2677 C2676 1.399 . S
C2677 C2678 1.376 . S
C2678 H2665 0.930 . S
C2678 C2677 1.376 . S
C2678 C2679 1.388 . S
C2679 H2666 0.930 . S
C2679 C2678 1.388 . S
C2679 C2680 1.390 . S
C2680 C2679 1.390 . S
C2680 C2681 1.394 . S
C2680 C2686 1.465 . S
C2681 C2676 1.399 . S
C2681 C2680 1.394 . S
C2681 C2682 1.516 . S
C2682 C2681 1.516 . S
C2682 C2683 1.502 . S
C2682 C2684 1.561 . S
C2682 C2685 1.526 . S
C2683 H2667 0.959 . S
C2683 H2668 0.959 . S
C2683 H2669 0.961 . S
C2683 C2682 1.502 . S
C2684 H2670 0.960 . S
C2684 H2671 0.961 . S
C2684 H2672 0.959 . S
C2684 C2682 1.561 . S
C2685 C2682 1.526 . S
C2685 C2686 1.396 . S
C2685 C2690 1.390 . S
C2686 C2680 1.465 . S
C2686 C2685 1.396 . S
C2686 C2687 1.399 . S
C2687 H2673 0.929 . S
C2687 C2686 1.399 . S
C2687 C2688 1.385 . S
C2688 H2674 0.931 . S
C2688 C2687 1.385 . S
C2688 C2689 1.389 . S
C2689 C2688 1.389 . S
C2689 C2690 1.387 . S
C2690 H2675 0.930 . S
C2690 C2685 1.390 . S
C2690 C2689 1.387 . S
H2691 C2703 0.930 . S
H2692 C2705 0.930 . S
H2693 C2706 0.930 . S
H2694 C2710 0.959 . S
H2695 C2710 0.959 . S
H2696 C2710 0.961 . S
H2697 C2711 0.960 . S
H2698 C2711 0.961 . S
H2699 C2711 0.959 . S
H2700 C2714 0.929 . S
H2701 C2715 0.931 . S
H2702 C2717 0.930 . S
C2703 H2691 0.930 . S
C2703 C2704 1.399 . S
C2703 C2708 1.399 . S
C2704 C2703 1.399 . S
C2704 C2705 1.376 . S
C2705 H2692 0.930 . S
C2705 C2704 1.376 . S
C2705 C2706 1.388 . S
C2706 H2693 0.930 . S
C2706 C2705 1.388 . S
C2706 C2707 1.390 . S
C2707 C2706 1.390 . S
C2707 C2708 1.394 . S
C2707 C2713 1.465 . S
C2708 C2703 1.399 . S
C2708 C2707 1.394 . S
C2708 C2709 1.516 . S
C2709 C2708 1.516 . S
C2709 C2710 1.502 . S
C2709 C2711 1.561 . S
C2709 C2712 1.526 . S
C2710 H2694 0.959 . S
C2710 H2695 0.959 . S
C2710 H2696 0.961 . S
C2710 C2709 1.502 . S
C2711 H2697 0.960 . S
C2711 H2698 0.961 . S
C2711 H2699 0.959 . S
C2711 C2709 1.561 . S
C2712 C2709 1.526 . S
C2712 C2713 1.396 . S
C2712 C2717 1.390 . S
C2713 C2707 1.465 . S
C2713 C2712 1.396 . S
C2713 C2714 1.399 . S
C2714 H2700 0.929 . S
C2714 C2713 1.399 . S
C2714 C2715 1.385 . S
C2715 H2701 0.931 . S
C2715 C2714 1.385 . S
C2715 C2716 1.389 . S
C2716 C2715 1.389 . S
C2716 C2717 1.387 . S
C2717 H2702 0.930 . S
C2717 C2712 1.390 . S
C2717 C2716 1.387 . S
H2718 C2730 0.930 . S
H2719 C2732 0.930 . S
H2720 C2733 0.930 . S
H2721 C2737 0.959 . S
H2722 C2737 0.959 . S
H2723 C2737 0.961 . S
H2724 C2738 0.960 . S
H2725 C2738 0.961 . S
H2726 C2738 0.959 . S
H2727 C2741 0.929 . S
H2728 C2742 0.931 . S
H2729 C2744 0.930 . S
C2730 H2718 0.930 . S
C2730 C2731 1.399 . S
C2730 C2735 1.399 . S
C2731 C2730 1.399 . S
C2731 C2732 1.376 . S
C2732 H2719 0.930 . S
C2732 C2731 1.376 . S
C2732 C2733 1.388 . S
C2733 H2720 0.930 . S
C2733 C2732 1.388 . S
C2733 C2734 1.390 . S
C2734 C2733 1.390 . S
C2734 C2735 1.394 . S
C2734 C2740 1.465 . S
C2735 C2730 1.399 . S
C2735 C2734 1.394 . S
C2735 C2736 1.516 . S
C2736 C2735 1.516 . S
C2736 C2737 1.502 . S
C2736 C2738 1.561 . S
C2736 C2739 1.526 . S
C2737 H2721 0.959 . S
C2737 H2722 0.959 . S
C2737 H2723 0.961 . S
C2737 C2736 1.502 . S
C2738 H2724 0.960 . S
C2738 H2725 0.961 . S
C2738 H2726 0.959 . S
C2738 C2736 1.561 . S
C2739 C2736 1.526 . S
C2739 C2740 1.396 . S
C2739 C2744 1.390 . S
C2740 C2734 1.465 . S
C2740 C2739 1.396 . S
C2740 C2741 1.399 . S
C2741 H2727 0.929 . S
C2741 C2740 1.399 . S
C2741 C2742 1.385 . S
C2742 H2728 0.931 . S
C2742 C2741 1.385 . S
C2742 C2743 1.389 . S
C2743 C2742 1.389 . S
C2743 C2744 1.387 . S
C2744 H2729 0.930 . S
C2744 C2739 1.390 . S
C2744 C2743 1.387 . S
H2745 C2757 0.930 . S
H2746 C2759 0.930 . S
H2747 C2760 0.930 . S
H2748 C2764 0.959 . S
H2749 C2764 0.959 . S
H2750 C2764 0.961 . S
H2751 C2765 0.960 . S
H2752 C2765 0.975 . S
H2753 C2765 0.959 1_655 S
H2754 C2768 0.929 . S
H2755 C2769 0.931 . S
H2756 C2771 0.930 . S
C2757 H2745 0.930 . S
C2757 C2758 1.399 . S
C2757 C2762 1.399 . S
C2758 C2757 1.399 . S
C2758 C2759 1.376 . S
C2759 H2746 0.930 . S
C2759 C2758 1.376 . S
C2759 C2760 1.388 . S
C2760 H2747 0.930 . S
C2760 C2759 1.388 . S
C2760 C2761 1.390 . S
C2761 C2760 1.390 . S
C2761 C2762 1.394 . S
C2761 C2767 1.465 . S
C2762 C2757 1.399 . S
C2762 C2761 1.394 . S
C2762 C2763 1.516 . S
C2763 C2762 1.516 . S
C2763 C2764 1.502 . S
C2763 C2765 1.561 . S
C2763 C2766 1.526 . S
C2764 H2748 0.959 . S
C2764 H2749 0.959 . S
C2764 H2750 0.961 . S
C2764 C2763 1.502 . S
C2765 H2751 0.960 . S
C2765 H2752 0.975 . S
C2765 H2753 0.959 1_455 S
C2765 C2763 1.561 . S
C2766 C2763 1.526 . S
C2766 C2767 1.396 . S
C2766 C2771 1.390 . S
C2767 C2761 1.465 . S
C2767 C2766 1.396 . S
C2767 C2768 1.399 . S
C2768 H2754 0.929 . S
C2768 C2767 1.399 . S
C2768 C2769 1.385 . S
C2769 H2755 0.931 . S
C2769 C2768 1.385 . S
C2769 C2770 1.389 . S
C2770 C2769 1.389 . S
C2770 C2771 1.387 . S
C2771 H2756 0.930 . S
C2771 C2766 1.390 . S
C2771 C2770 1.387 . S
H2772 C2784 0.930 . S
H2773 C2786 0.930 . S
H2774 C2787 0.930 . S
H2775 C2791 0.959 . S
H2776 C2791 0.959 . S
H2777 C2791 0.961 . S
H2778 C2792 0.960 . S
H2779 C2792 0.961 . S
H2780 C2792 0.959 . S
H2781 C2795 0.929 . S
H2782 C2796 0.931 . S
H2783 C2798 0.930 . S
C2784 H2772 0.930 . S
C2784 C2785 1.399 . S
C2784 C2789 1.399 . S
C2785 C2784 1.399 . S
C2785 C2786 1.376 . S
C2786 H2773 0.930 . S
C2786 C2785 1.376 . S
C2786 C2787 1.388 . S
C2787 H2774 0.930 . S
C2787 C2786 1.388 . S
C2787 C2788 1.390 . S
C2788 C2787 1.390 . S
C2788 C2789 1.394 . S
C2788 C2794 1.465 . S
C2789 C2784 1.399 . S
C2789 C2788 1.394 . S
C2789 C2790 1.516 . S
C2790 C2789 1.516 . S
C2790 C2791 1.502 . S
C2790 C2792 1.561 . S
C2790 C2793 1.526 . S
C2791 H2775 0.959 . S
C2791 H2776 0.959 . S
C2791 H2777 0.961 . S
C2791 C2790 1.502 . S
C2792 H2778 0.960 . S
C2792 H2779 0.961 . S
C2792 H2780 0.959 . S
C2792 C2790 1.561 . S
C2793 C2790 1.526 . S
C2793 C2794 1.396 . S
C2793 C2798 1.390 . S
C2794 C2788 1.465 . S
C2794 C2793 1.396 . S
C2794 C2795 1.399 . S
C2795 H2781 0.929 . S
C2795 C2794 1.399 . S
C2795 C2796 1.385 . S
C2796 H2782 0.931 . S
C2796 C2795 1.385 . S
C2796 C2797 1.389 . S
C2797 C2796 1.389 . S
C2797 C2798 1.387 . S
C2798 H2783 0.930 . S
C2798 C2793 1.390 . S
C2798 C2797 1.387 . S
H2799 C2811 0.930 1_545 S
H2800 C2813 0.930 . S
H2801 C2814 0.930 . S
H2802 C2818 0.959 . S
H2803 C2818 0.959 . S
H2804 C2818 0.961 . S
H2805 C2819 0.960 . S
H2806 C2819 0.961 . S
H2807 C2819 0.959 . S
H2808 C2822 0.929 . S
H2809 C2823 0.931 . S
H2810 C2825 0.930 . S
C2811 H2799 0.930 1_565 S
C2811 C2812 1.399 . S
C2811 C2816 1.399 . S
C2812 C2811 1.399 . S
C2812 C2813 1.376 . S
C2813 H2800 0.930 . S
C2813 C2812 1.376 . S
C2813 C2814 1.388 . S
C2814 H2801 0.930 . S
C2814 C2813 1.388 . S
C2814 C2815 1.390 . S
C2815 C2814 1.390 . S
C2815 C2816 1.394 . S
C2815 C2821 1.465 . S
C2816 C2811 1.399 . S
C2816 C2815 1.394 . S
C2816 C2817 1.516 1_565 S
C2817 C2816 1.516 1_545 S
C2817 C2818 1.502 . S
C2817 C2819 1.561 . S
C2817 C2820 1.526 1_545 S
C2818 H2802 0.959 . S
C2818 H2803 0.959 . S
C2818 H2804 0.961 . S
C2818 C2817 1.502 . S
C2819 H2805 0.960 . S
C2819 H2806 0.961 . S
C2819 H2807 0.959 . S
C2819 C2817 1.561 . S
C2820 C2817 1.526 1_565 S
C2820 C2821 1.396 . S
C2820 C2825 1.390 1_565 S
C2821 C2815 1.465 . S
C2821 C2820 1.396 . S
C2821 C2822 1.399 . S
C2822 H2808 0.929 . S
C2822 C2821 1.399 . S
C2822 C2823 1.385 . S
C2823 H2809 0.931 . S
C2823 C2822 1.385 . S
C2823 C2824 1.389 . S
C2824 C2823 1.389 . S
C2824 C2825 1.387 1_565 S
C2825 H2810 0.930 . S
C2825 C2820 1.390 1_545 S
C2825 C2824 1.387 1_545 S
H2826 C2838 0.930 . S
H2827 C2840 0.930 . S
H2828 C2841 0.930 . S
H2829 C2845 0.959 . S
H2830 C2845 0.959 . S
H2831 C2845 0.961 . S
H2832 C2846 0.960 . S
H2833 C2846 0.961 . S
H2834 C2846 0.959 . S
H2835 C2849 0.929 . S
H2836 C2850 0.931 . S
H2837 C2852 0.930 . S
C2838 H2826 0.930 . S
C2838 C2839 1.399 . S
C2838 C2843 1.399 . S
C2839 C2838 1.399 . S
C2839 C2840 1.376 . S
C2840 H2827 0.930 . S
C2840 C2839 1.376 . S
C2840 C2841 1.388 . S
C2841 H2828 0.930 . S
C2841 C2840 1.388 . S
C2841 C2842 1.390 . S
C2842 C2841 1.390 . S
C2842 C2843 1.394 . S
C2842 C2848 1.465 . S
C2843 C2838 1.399 . S
C2843 C2842 1.394 . S
C2843 C2844 1.516 . S
C2844 C2843 1.516 . S
C2844 C2845 1.502 . S
C2844 C2846 1.561 1_565 S
C2844 C2847 1.526 . S
C2845 H2829 0.959 . S
C2845 H2830 0.959 . S
C2845 H2831 0.961 . S
C2845 C2844 1.502 . S
C2846 H2832 0.960 . S
C2846 H2833 0.961 . S
C2846 H2834 0.959 . S
C2846 C2844 1.561 1_545 S
C2847 C2844 1.526 . S
C2847 C2848 1.396 . S
C2847 C2852 1.390 . S
C2848 C2842 1.465 . S
C2848 C2847 1.396 . S
C2848 C2849 1.399 . S
C2849 H2835 0.929 . S
C2849 C2848 1.399 . S
C2849 C2850 1.385 . S
C2850 H2836 0.931 . S
C2850 C2849 1.385 . S
C2850 C2851 1.389 . S
C2851 C2850 1.389 . S
C2851 C2852 1.387 . S
C2852 H2837 0.930 . S
C2852 C2847 1.390 . S
C2852 C2851 1.387 . S
H2853 C2865 0.930 1_655 S
H2854 C2867 0.930 . S
H2855 C2868 0.930 . S
H2856 C2872 0.959 . S
H2857 C2872 0.959 . S
H2858 C2872 0.961 . S
H2859 C2873 0.960 . S
H2860 C2873 0.961 . S
H2861 C2873 0.959 . S
H2862 C2876 0.929 . S
H2863 C2877 0.931 . S
H2864 C2879 0.930 . S
C2865 H2853 0.930 1_455 S
C2865 C2866 1.399 . S
C2865 C2870 1.399 . S
C2866 C2865 1.399 . S
C2866 C2867 1.376 . S
C2867 H2854 0.930 . S
C2867 C2866 1.376 . S
C2867 C2868 1.388 . S
C2868 H2855 0.930 . S
C2868 C2867 1.388 . S
C2868 C2869 1.390 . S
C2869 C2868 1.390 . S
C2869 C2870 1.394 . S
C2869 C2875 1.465 . S
C2870 C2865 1.399 . S
C2870 C2869 1.394 . S
C2870 C2871 1.516 1_455 S
C2871 C2870 1.516 1_655 S
C2871 C2872 1.502 . S
C2871 C2873 1.561 . S
C2871 C2874 1.526 1_655 S
C2872 H2856 0.959 . S
C2872 H2857 0.959 . S
C2872 H2858 0.961 . S
C2872 C2871 1.502 . S
C2873 H2859 0.960 . S
C2873 H2860 0.961 . S
C2873 H2861 0.959 . S
C2873 C2871 1.561 . S
C2874 C2871 1.526 1_455 S
C2874 C2875 1.396 . S
C2874 C2879 1.390 1_455 S
C2875 C2869 1.465 . S
C2875 C2874 1.396 . S
C2875 C2876 1.399 . S
C2876 H2862 0.929 . S
C2876 C2875 1.399 . S
C2876 C2877 1.385 . S
C2877 H2863 0.931 . S
C2877 C2876 1.385 . S
C2877 C2878 1.389 . S
C2878 C2877 1.389 . S
C2878 C2879 1.387 1_455 S
C2879 H2864 0.930 . S
C2879 C2874 1.390 1_655 S
C2879 C2878 1.387 1_655 S
H2880 C2892 0.930 . S
H2881 C2894 0.930 . S
H2882 C2895 0.930 . S
H2883 C2899 0.959 . S
H2884 C2899 0.959 . S
H2885 C2899 0.961 . S
H2886 C2900 0.960 . S
H2887 C2900 0.961 . S
H2888 C2900 0.959 . S
H2889 C2903 0.929 . S
H2890 C2904 0.931 . S
H2891 C2906 0.930 . S
C2892 H2880 0.930 . S
C2892 C2893 1.399 . S
C2892 C2897 1.399 . S
C2893 C2892 1.399 . S
C2893 C2894 1.376 . S
C2894 H2881 0.930 . S
C2894 C2893 1.376 . S
C2894 C2895 1.388 . S
C2895 H2882 0.930 . S
C2895 C2894 1.388 . S
C2895 C2896 1.390 . S
C2896 C2895 1.390 . S
C2896 C2897 1.394 . S
C2896 C2902 1.465 . S
C2897 C2892 1.399 . S
C2897 C2896 1.394 . S
C2897 C2898 1.516 . S
C2898 C2897 1.516 . S
C2898 C2899 1.502 . S
C2898 C2900 1.561 . S
C2898 C2901 1.526 . S
C2899 H2883 0.959 . S
C2899 H2884 0.959 . S
C2899 H2885 0.961 . S
C2899 C2898 1.502 . S
C2900 H2886 0.960 . S
C2900 H2887 0.961 . S
C2900 H2888 0.959 . S
C2900 C2898 1.561 . S
C2901 C2898 1.526 . S
C2901 C2902 1.396 . S
C2901 C2906 1.390 . S
C2902 C2896 1.465 . S
C2902 C2901 1.396 . S
C2902 C2903 1.399 . S
C2903 H2889 0.929 . S
C2903 C2902 1.399 . S
C2903 C2904 1.385 . S
C2904 H2890 0.931 . S
C2904 C2903 1.385 . S
C2904 C2905 1.389 . S
C2905 C2904 1.389 . S
C2905 C2906 1.387 . S
C2906 H2891 0.930 . S
C2906 C2901 1.390 . S
C2906 C2905 1.387 . S
H2907 C2919 0.930 . S
H2908 C2921 0.930 . S
H2909 C2922 0.930 . S
H2910 C2926 0.959 . S
H2911 C2926 0.959 . S
H2912 C2926 0.961 . S
H2913 C2927 0.960 . S
H2914 C2927 0.961 . S
H2915 C2927 0.959 . S
H2916 C2930 0.929 . S
H2917 C2931 0.931 . S
H2918 C2933 0.930 . S
C2919 H2907 0.930 . S
C2919 C2920 1.399 . S
C2919 C2924 1.399 . S
C2920 C2919 1.399 . S
C2920 C2921 1.376 . S
C2921 H2908 0.930 . S
C2921 C2920 1.376 . S
C2921 C2922 1.388 . S
C2922 H2909 0.930 . S
C2922 C2921 1.388 . S
C2922 C2923 1.390 . S
C2923 C2922 1.390 . S
C2923 C2924 1.394 . S
C2923 C2929 1.465 . S
C2924 C2919 1.399 . S
C2924 C2923 1.394 . S
C2924 C2925 1.516 . S
C2925 C2924 1.516 . S
C2925 C2926 1.502 . S
C2925 C2927 1.561 . S
C2925 C2928 1.526 . S
C2926 H2910 0.959 . S
C2926 H2911 0.959 . S
C2926 H2912 0.961 . S
C2926 C2925 1.502 . S
C2927 H2913 0.960 . S
C2927 H2914 0.961 . S
C2927 H2915 0.959 . S
C2927 C2925 1.561 . S
C2928 C2925 1.526 . S
C2928 C2929 1.396 . S
C2928 C2933 1.390 . S
C2929 C2923 1.465 . S
C2929 C2928 1.396 . S
C2929 C2930 1.399 . S
C2930 H2916 0.929 . S
C2930 C2929 1.399 . S
C2930 C2931 1.385 . S
C2931 H2917 0.931 . S
C2931 C2930 1.385 . S
C2931 C2932 1.389 . S
C2932 C2931 1.389 . S
C2932 C2933 1.387 . S
C2933 H2918 0.930 . S
C2933 C2928 1.390 . S
C2933 C2932 1.387 . S
H2934 C2946 0.930 . S
H2935 C2948 0.930 . S
H2936 C2949 0.930 . S
H2937 C2953 0.959 . S
H2938 C2953 0.959 . S
H2939 C2953 0.961 . S
H2940 C2954 0.960 . S
H2941 C2954 0.961 . S
H2942 C2954 0.959 . S
H2943 C2957 0.929 . S
H2944 C2958 0.931 . S
H2945 C2960 0.930 . S
C2946 H2934 0.930 . S
C2946 C2947 1.399 . S
C2946 C2951 1.399 . S
C2947 C2946 1.399 . S
C2947 C2948 1.376 . S
C2948 H2935 0.930 . S
C2948 C2947 1.376 . S
C2948 C2949 1.388 . S
C2949 H2936 0.930 . S
C2949 C2948 1.388 . S
C2949 C2950 1.390 . S
C2950 C2949 1.390 . S
C2950 C2951 1.394 . S
C2950 C2956 1.465 . S
C2951 C2946 1.399 . S
C2951 C2950 1.394 . S
C2951 C2952 1.516 . S
C2952 C2951 1.516 . S
C2952 C2953 1.502 . S
C2952 C2954 1.561 . S
C2952 C2955 1.526 . S
C2953 H2937 0.959 . S
C2953 H2938 0.959 . S
C2953 H2939 0.961 . S
C2953 C2952 1.502 . S
C2954 H2940 0.960 . S
C2954 H2941 0.961 . S
C2954 H2942 0.959 . S
C2954 C2952 1.561 . S
C2955 C2952 1.526 . S
C2955 C2956 1.396 . S
C2955 C2960 1.390 . S
C2956 C2950 1.465 . S
C2956 C2955 1.396 . S
C2956 C2957 1.399 . S
C2957 H2943 0.929 . S
C2957 C2956 1.399 . S
C2957 C2958 1.385 . S
C2958 H2944 0.931 . S
C2958 C2957 1.385 . S
C2958 C2959 1.389 . S
C2959 C2958 1.389 . S
C2959 C2960 1.387 . S
C2960 H2945 0.930 . S
C2960 C2955 1.390 . S
C2960 C2959 1.387 . S
H2961 C2973 0.930 . S
H2962 C2975 0.930 . S
H2963 C2976 0.930 . S
H2964 C2980 0.959 . S
H2965 C2980 0.959 . S
H2966 C2980 0.961 . S
H2967 C2981 0.960 . S
H2968 C2981 0.961 . S
H2969 C2981 0.959 . S
H2970 C2984 0.929 . S
H2971 C2985 0.931 . S
H2972 C2987 0.930 . S
C2973 H2961 0.930 . S
C2973 C2974 1.399 . S
C2973 C2978 1.399 . S
C2974 C2973 1.399 . S
C2974 C2975 1.376 . S
C2975 H2962 0.930 . S
C2975 C2974 1.376 . S
C2975 C2976 1.388 . S
C2976 H2963 0.930 . S
C2976 C2975 1.388 . S
C2976 C2977 1.390 . S
C2977 C2976 1.390 . S
C2977 C2978 1.394 . S
C2977 C2983 1.465 . S
C2978 C2973 1.399 . S
C2978 C2977 1.394 . S
C2978 C2979 1.516 . S
C2979 C2978 1.516 . S
C2979 C2980 1.502 . S
C2979 C2981 1.561 . S
C2979 C2982 1.526 . S
C2980 H2964 0.959 . S
C2980 H2965 0.959 . S
C2980 H2966 0.961 . S
C2980 C2979 1.502 . S
C2981 H2967 0.960 . S
C2981 H2968 0.961 . S
C2981 H2969 0.959 . S
C2981 C2979 1.561 . S
C2982 C2979 1.526 . S
C2982 C2983 1.396 . S
C2982 C2987 1.390 . S
C2983 C2977 1.465 . S
C2983 C2982 1.396 . S
C2983 C2984 1.399 . S
C2984 H2970 0.929 . S
C2984 C2983 1.399 . S
C2984 C2985 1.385 . S
C2985 H2971 0.931 . S
C2985 C2984 1.385 . S
C2985 C2986 1.389 . S
C2986 C2985 1.389 . S
C2986 C2987 1.387 . S
C2987 H2972 0.930 . S
C2987 C2982 1.390 . S
C2987 C2986 1.387 . S
H2988 C3000 0.930 1_565 S
H2989 C3002 0.930 . S
H2990 C3003 0.930 . S
H2991 C3007 0.959 . S
H2992 C3007 0.959 . S
H2993 C3007 0.961 . S
H2994 C3008 0.960 . S
H2995 C3008 0.961 . S
H2996 C3008 0.959 . S
H2997 C3011 0.929 . S
H2998 C3012 0.931 . S
H2999 C3014 0.930 . S
C3000 H2988 0.930 1_545 S
C3000 C3001 1.399 . S
C3000 C3005 1.399 . S
C3001 C3000 1.399 . S
C3001 C3002 1.376 . S
C3002 H2989 0.930 . S
C3002 C3001 1.376 . S
C3002 C3003 1.388 . S
C3003 H2990 0.930 . S
C3003 C3002 1.388 . S
C3003 C3004 1.390 . S
C3004 C3003 1.390 . S
C3004 C3005 1.394 . S
C3004 C3010 1.465 . S
C3005 C3000 1.399 . S
C3005 C3004 1.394 . S
C3005 C3006 1.516 1_545 S
C3006 C3005 1.516 1_565 S
C3006 C3007 1.502 . S
C3006 C3008 1.561 . S
C3006 C3009 1.526 1_565 S
C3007 H2991 0.959 . S
C3007 H2992 0.959 . S
C3007 H2993 0.961 . S
C3007 C3006 1.502 . S
C3008 H2994 0.960 . S
C3008 H2995 0.961 . S
C3008 H2996 0.959 . S
C3008 C3006 1.561 . S
C3009 C3006 1.526 1_545 S
C3009 C3010 1.396 . S
C3009 C3014 1.390 1_545 S
C3010 C3004 1.465 . S
C3010 C3009 1.396 . S
C3010 C3011 1.399 . S
C3011 H2997 0.929 . S
C3011 C3010 1.399 . S
C3011 C3012 1.385 . S
C3012 H2998 0.931 . S
C3012 C3011 1.385 . S
C3012 C3013 1.389 . S
C3013 C3012 1.389 . S
C3013 C3014 1.387 1_545 S
C3014 H2999 0.930 . S
C3014 C3009 1.390 1_565 S
C3014 C3013 1.387 1_565 S
H3015 C3027 0.930 . S
H3016 C3029 0.930 1_455 S
H3017 C3030 0.930 . S
H3018 C3034 0.959 . S
H3019 C3034 0.959 . S
H3020 C3034 0.961 . S
H3021 C3035 0.960 . S
H3022 C3035 0.961 . S
H3023 C3035 0.959 . S
H3024 C3038 0.929 . S
H3025 C3039 0.931 . S
H3026 C3041 0.930 . S
C3027 H3015 0.930 . S
C3027 C3028 1.399 . S
C3027 C3032 1.399 . S
C3028 C3027 1.399 . S
C3028 C3029 1.376 . S
C3029 H3016 0.930 1_655 S
C3029 C3028 1.376 . S
C3029 C3030 1.388 1_655 S
C3030 H3017 0.930 . S
C3030 C3029 1.388 1_455 S
C3030 C3031 1.390 1_455 S
C3031 C3030 1.390 1_655 S
C3031 C3032 1.394 . S
C3031 C3037 1.465 . S
C3032 C3027 1.399 . S
C3032 C3031 1.394 . S
C3032 C3033 1.516 . S
C3033 C3032 1.516 . S
C3033 C3034 1.502 . S
C3033 C3035 1.561 . S
C3033 C3036 1.526 . S
C3034 H3018 0.959 . S
C3034 H3019 0.959 . S
C3034 H3020 0.961 . S
C3034 C3033 1.502 . S
C3035 H3021 0.960 . S
C3035 H3022 0.961 . S
C3035 H3023 0.959 . S
C3035 C3033 1.561 . S
C3036 C3033 1.526 . S
C3036 C3037 1.396 . S
C3036 C3041 1.390 . S
C3037 C3031 1.465 . S
C3037 C3036 1.396 . S
C3037 C3038 1.399 1_655 S
C3038 H3024 0.929 . S
C3038 C3037 1.399 1_455 S
C3038 C3039 1.385 . S
C3039 H3025 0.931 . S
C3039 C3038 1.385 . S
C3039 C3040 1.389 1_455 S
C3040 C3039 1.389 1_655 S
C3040 C3041 1.387 . S
C3041 H3026 0.930 . S
C3041 C3036 1.390 . S
C3041 C3040 1.387 . S
H3042 C3054 0.930 . S
H3043 C3056 0.930 . S
H3044 C3057 0.930 . S
H3045 C3061 0.959 . S
H3046 C3061 0.959 . S
H3047 C3061 0.961 . S
H3048 C3062 0.960 . S
H3049 C3062 0.961 . S
H3050 C3062 0.959 . S
H3051 C3065 0.929 . S
H3052 C3066 0.931 . S
H3053 C3068 0.930 . S
C3054 H3042 0.930 . S
C3054 C3055 1.399 . S
C3054 C3059 1.399 . S
C3055 C3054 1.399 . S
C3055 C3056 1.376 . S
C3056 H3043 0.930 . S
C3056 C3055 1.376 . S
C3056 C3057 1.388 . S
C3057 H3044 0.930 . S
C3057 C3056 1.388 . S
C3057 C3058 1.390 . S
C3058 C3057 1.390 . S
C3058 C3059 1.394 . S
C3058 C3064 1.465 . S
C3059 C3054 1.399 . S
C3059 C3058 1.394 . S
C3059 C3060 1.516 . S
C3060 C3059 1.516 . S
C3060 C3061 1.502 . S
C3060 C3062 1.561 . S
C3060 C3063 1.526 . S
C3061 H3045 0.959 . S
C3061 H3046 0.959 . S
C3061 H3047 0.961 . S
C3061 C3060 1.502 . S
C3062 H3048 0.960 . S
C3062 H3049 0.961 . S
C3062 H3050 0.959 . S
C3062 C3060 1.561 . S
C3063 C3060 1.526 . S
C3063 C3064 1.396 . S
C3063 C3068 1.390 . S
C3064 C3058 1.465 . S
C3064 C3063 1.396 . S
C3064 C3065 1.399 . S
C3065 H3051 0.929 . S
C3065 C3064 1.399 . S
C3065 C3066 1.385 . S
C3066 H3052 0.931 . S
C3066 C3065 1.385 . S
C3066 C3067 1.389 . S
C3067 C3066 1.389 . S
C3067 C3068 1.387 . S
C3068 H3053 0.930 . S
C3068 C3063 1.390 . S
C3068 C3067 1.387 . S
H3069 C3081 0.930 . S
H3070 C3083 0.930 . S
H3071 C3084 0.930 . S
H3072 C3088 0.959 . S
H3073 C3088 0.959 . S
H3074 C3088 0.961 . S
H3075 C3089 0.960 . S
H3076 C3089 0.961 . S
H3077 C3089 0.959 . S
H3078 C3092 0.929 . S
H3079 C3093 0.931 . S
H3080 C3095 0.930 . S
C3081 H3069 0.930 . S
C3081 C3082 1.399 . S
C3081 C3086 1.399 . S
C3082 C3081 1.399 . S
C3082 C3083 1.376 . S
C3083 H3070 0.930 . S
C3083 C3082 1.376 . S
C3083 C3084 1.388 . S
C3084 H3071 0.930 . S
C3084 C3083 1.388 . S
C3084 C3085 1.390 . S
C3085 C3084 1.390 . S
C3085 C3086 1.394 . S
C3085 C3091 1.465 . S
C3086 C3081 1.399 . S
C3086 C3085 1.394 . S
C3086 C3087 1.516 . S
C3087 C3086 1.516 . S
C3087 C3088 1.502 . S
C3087 C3089 1.561 . S
C3087 C3090 1.526 . S
C3088 H3072 0.959 . S
C3088 H3073 0.959 . S
C3088 H3074 0.961 . S
C3088 C3087 1.502 . S
C3089 H3075 0.960 . S
C3089 H3076 0.961 . S
C3089 H3077 0.959 . S
C3089 C3087 1.561 . S
C3090 C3087 1.526 . S
C3090 C3091 1.396 . S
C3090 C3095 1.390 . S
C3091 C3085 1.465 . S
C3091 C3090 1.396 . S
C3091 C3092 1.399 . S
C3092 H3078 0.929 . S
C3092 C3091 1.399 . S
C3092 C3093 1.385 . S
C3093 H3079 0.931 . S
C3093 C3092 1.385 . S
C3093 C3094 1.389 . S
C3094 C3093 1.389 . S
C3094 C3095 1.387 . S
C3095 H3080 0.930 . S
C3095 C3090 1.390 . S
C3095 C3094 1.387 . S
H3096 C3108 0.930 . S
H3097 C3110 0.930 . S
H3098 C3111 0.930 . S
H3099 C3115 0.959 . S
H3100 C3115 0.959 . S
H3101 C3115 0.961 . S
H3102 C3116 0.960 . S
H3103 C3116 0.961 . S
H3104 C3116 0.959 . S
H3105 C3119 0.929 . S
H3106 C3120 0.931 . S
H3107 C3122 0.930 . S
C3108 H3096 0.930 . S
C3108 C3109 1.399 . S
C3108 C3113 1.399 . S
C3109 C3108 1.399 . S
C3109 C3110 1.376 . S
C3110 H3097 0.930 . S
C3110 C3109 1.376 . S
C3110 C3111 1.388 . S
C3111 H3098 0.930 . S
C3111 C3110 1.388 . S
C3111 C3112 1.390 . S
C3112 C3111 1.390 . S
C3112 C3113 1.394 . S
C3112 C3118 1.465 . S
C3113 C3108 1.399 . S
C3113 C3112 1.394 . S
C3113 C3114 1.516 . S
C3114 C3113 1.516 . S
C3114 C3115 1.502 . S
C3114 C3116 1.561 . S
C3114 C3117 1.526 . S
C3115 H3099 0.959 . S
C3115 H3100 0.959 . S
C3115 H3101 0.961 . S
C3115 C3114 1.502 . S
C3116 H3102 0.960 . S
C3116 H3103 0.961 . S
C3116 H3104 0.959 . S
C3116 C3114 1.561 . S
C3117 C3114 1.526 . S
C3117 C3118 1.396 . S
C3117 C3122 1.390 . S
C3118 C3112 1.465 . S
C3118 C3117 1.396 . S
C3118 C3119 1.399 . S
C3119 H3105 0.929 . S
C3119 C3118 1.399 . S
C3119 C3120 1.385 . S
C3120 H3106 0.931 . S
C3120 C3119 1.385 . S
C3120 C3121 1.389 . S
C3121 C3120 1.389 . S
C3121 C3122 1.387 . S
C3122 H3107 0.930 . S
C3122 C3117 1.390 . S
C3122 C3121 1.387 . S
H3123 C3135 0.930 . S
H3124 C3137 0.930 . S
H3125 C3138 0.930 . S
H3126 C3142 0.959 . S
H3127 C3142 0.959 . S
H3128 C3142 0.961 . S
H3129 C3143 0.960 . S
H3130 C3143 0.961 . S
H3131 C3143 0.959 . S
H3132 C3146 0.929 . S
H3133 C3147 0.931 . S
H3134 C3149 0.930 . S
C3135 H3123 0.930 . S
C3135 C3136 1.399 . S
C3135 C3140 1.399 . S
C3136 C3135 1.399 . S
C3136 C3137 1.376 . S
C3137 H3124 0.930 . S
C3137 C3136 1.376 . S
C3137 C3138 1.388 . S
C3138 H3125 0.930 . S
C3138 C3137 1.388 . S
C3138 C3139 1.390 . S
C3139 C3138 1.390 . S
C3139 C3140 1.394 . S
C3139 C3145 1.465 . S
C3140 C3135 1.399 . S
C3140 C3139 1.394 . S
C3140 C3141 1.516 . S
C3141 C3140 1.516 . S
C3141 C3142 1.502 . S
C3141 C3143 1.561 . S
C3141 C3144 1.526 . S
C3142 H3126 0.959 . S
C3142 H3127 0.959 . S
C3142 H3128 0.961 . S
C3142 C3141 1.502 . S
C3143 H3129 0.960 . S
C3143 H3130 0.961 . S
C3143 H3131 0.959 . S
C3143 C3141 1.561 . S
C3144 C3141 1.526 . S
C3144 C3145 1.396 . S
C3144 C3149 1.390 . S
C3145 C3139 1.465 . S
C3145 C3144 1.396 . S
C3145 C3146 1.399 . S
C3146 H3132 0.929 . S
C3146 C3145 1.399 . S
C3146 C3147 1.385 . S
C3147 H3133 0.931 . S
C3147 C3146 1.385 . S
C3147 C3148 1.389 . S
C3148 C3147 1.389 . S
C3148 C3149 1.387 . S
C3149 H3134 0.930 . S
C3149 C3144 1.390 . S
C3149 C3148 1.387 . S
H3150 C3162 0.930 . S
H3151 C3164 0.930 . S
H3152 C3165 0.930 . S
H3153 C3169 0.959 . S
H3154 C3169 0.959 . S
H3155 C3169 0.961 . S
H3156 C3170 0.960 . S
H3157 C3170 0.961 . S
H3158 C3170 0.959 . S
H3159 C3173 0.929 . S
H3160 C3174 0.931 . S
H3161 C3176 0.930 . S
C3162 H3150 0.930 . S
C3162 C3163 1.399 . S
C3162 C3167 1.399 . S
C3163 C3162 1.399 . S
C3163 C3164 1.376 . S
C3164 H3151 0.930 . S
C3164 C3163 1.376 . S
C3164 C3165 1.388 . S
C3165 H3152 0.930 . S
C3165 C3164 1.388 . S
C3165 C3166 1.390 . S
C3166 C3165 1.390 . S
C3166 C3167 1.394 . S
C3166 C3172 1.465 . S
C3167 C3162 1.399 . S
C3167 C3166 1.394 . S
C3167 C3168 1.516 . S
C3168 C3167 1.516 . S
C3168 C3169 1.502 . S
C3168 C3170 1.561 . S
C3168 C3171 1.526 . S
C3169 H3153 0.959 . S
C3169 H3154 0.959 . S
C3169 H3155 0.961 . S
C3169 C3168 1.502 . S
C3170 H3156 0.960 . S
C3170 H3157 0.961 . S
C3170 H3158 0.959 . S
C3170 C3168 1.561 . S
C3171 C3168 1.526 . S
C3171 C3172 1.396 . S
C3171 C3176 1.390 . S
C3172 C3166 1.465 . S
C3172 C3171 1.396 . S
C3172 C3173 1.399 . S
C3173 H3159 0.929 . S
C3173 C3172 1.399 . S
C3173 C3174 1.385 . S
C3174 H3160 0.931 . S
C3174 C3173 1.385 . S
C3174 C3175 1.389 . S
C3175 C3174 1.389 . S
C3175 C3176 1.387 . S
C3176 H3161 0.930 . S
C3176 C3171 1.390 . S
C3176 C3175 1.387 . S
H3177 C3189 0.930 . S
H3178 C3191 0.930 . S
H3179 C3192 0.930 . S
H3180 C3196 0.959 . S
H3181 C3196 0.959 . S
H3182 C3196 0.961 . S
H3183 C3197 0.960 . S
H3184 C3197 0.961 . S
H3185 C3197 0.959 . S
H3186 C3200 0.929 . S
H3187 C3201 0.931 . S
H3188 C3203 0.930 . S
C3189 H3177 0.930 . S
C3189 C3190 1.399 . S
C3189 C3194 1.399 . S
C3190 C3189 1.399 . S
C3190 C3191 1.376 . S
C3191 H3178 0.930 . S
C3191 C3190 1.376 . S
C3191 C3192 1.388 . S
C3192 H3179 0.930 . S
C3192 C3191 1.388 . S
C3192 C3193 1.390 . S
C3193 C3192 1.390 . S
C3193 C3194 1.394 . S
C3193 C3199 1.465 . S
C3194 C3189 1.399 . S
C3194 C3193 1.394 . S
C3194 C3195 1.516 . S
C3195 C3194 1.516 . S
C3195 C3196 1.502 . S
C3195 C3197 1.561 . S
C3195 C3198 1.526 . S
C3196 H3180 0.959 . S
C3196 H3181 0.959 . S
C3196 H3182 0.961 . S
C3196 C3195 1.502 . S
C3197 H3183 0.960 . S
C3197 H3184 0.961 . S
C3197 H3185 0.959 . S
C3197 C3195 1.561 . S
C3198 C3195 1.526 . S
C3198 C3199 1.396 . S
C3198 C3203 1.390 . S
C3199 C3193 1.465 . S
C3199 C3198 1.396 . S
C3199 C3200 1.399 . S
C3200 H3186 0.929 . S
C3200 C3199 1.399 . S
C3200 C3201 1.385 . S
C3201 H3187 0.931 . S
C3201 C3200 1.385 . S
C3201 C3202 1.389 . S
C3202 C3201 1.389 . S
C3202 C3203 1.387 . S
C3203 H3188 0.930 . S
C3203 C3198 1.390 . S
C3203 C3202 1.387 . S
H3204 C3216 0.930 . S
H3205 C3218 0.930 . S
H3206 C3219 0.930 . S
H3207 C3223 0.959 . S
H3208 C3223 0.959 . S
H3209 C3223 0.961 . S
H3210 C3224 0.960 . S
H3211 C3224 0.961 . S
H3212 C3224 0.959 . S
H3213 C3227 0.929 . S
H3214 C3228 0.931 . S
H3215 C3230 0.930 . S
C3216 H3204 0.930 . S
C3216 C3217 1.399 . S
C3216 C3221 1.399 . S
C3217 C3216 1.399 . S
C3217 C3218 1.376 . S
C3218 H3205 0.930 . S
C3218 C3217 1.376 . S
C3218 C3219 1.388 . S
C3219 H3206 0.930 . S
C3219 C3218 1.388 . S
C3219 C3220 1.390 . S
C3220 C3219 1.390 . S
C3220 C3221 1.394 . S
C3220 C3226 1.465 . S
C3221 C3216 1.399 . S
C3221 C3220 1.394 . S
C3221 C3222 1.516 . S
C3222 C3221 1.516 . S
C3222 C3223 1.502 . S
C3222 C3224 1.561 . S
C3222 C3225 1.526 . S
C3223 H3207 0.959 . S
C3223 H3208 0.959 . S
C3223 H3209 0.961 . S
C3223 C3222 1.502 . S
C3224 H3210 0.960 . S
C3224 H3211 0.961 . S
C3224 H3212 0.959 . S
C3224 C3222 1.561 . S
C3225 C3222 1.526 . S
C3225 C3226 1.396 . S
C3225 C3230 1.390 . S
C3226 C3220 1.465 . S
C3226 C3225 1.396 . S
C3226 C3227 1.399 . S
C3227 H3213 0.929 . S
C3227 C3226 1.399 . S
C3227 C3228 1.385 . S
C3228 H3214 0.931 . S
C3228 C3227 1.385 . S
C3228 C3229 1.389 . S
C3229 C3228 1.389 . S
C3229 C3230 1.387 . S
C3230 H3215 0.930 . S
C3230 C3225 1.390 . S
C3230 C3229 1.387 . S
H3231 C3243 0.930 . S
H3232 C3245 0.930 . S
H3233 C3246 0.930 . S
H3234 C3250 0.959 . S
H3235 C3250 0.959 . S
H3236 C3250 0.961 . S
H3237 C3251 0.960 . S
H3238 C3251 0.961 . S
H3239 C3251 0.959 . S
H3240 C3254 0.929 . S
H3241 C3255 0.931 . S
H3242 C3257 0.942 . S
C3243 H3231 0.930 . S
C3243 C3244 1.399 . S
C3243 C3248 1.399 . S
C3244 C3243 1.399 . S
C3244 C3245 1.376 . S
C3245 H3232 0.930 . S
C3245 C3244 1.376 . S
C3245 C3246 1.388 . S
C3246 H3233 0.930 . S
C3246 C3245 1.388 . S
C3246 C3247 1.390 . S
C3247 C3246 1.390 . S
C3247 C3248 1.394 . S
C3247 C3253 1.465 . S
C3248 C3243 1.399 . S
C3248 C3247 1.394 . S
C3248 C3249 1.516 . S
C3249 C3248 1.516 . S
C3249 C3250 1.502 1_655 S
C3249 C3251 1.561 . S
C3249 C3252 1.526 . S
C3250 H3234 0.959 . S
C3250 H3235 0.959 . S
C3250 H3236 0.961 . S
C3250 C3249 1.502 1_455 S
C3251 H3237 0.960 . S
C3251 H3238 0.961 . S
C3251 H3239 0.959 . S
C3251 C3249 1.561 . S
C3252 C3249 1.526 . S
C3252 C3253 1.396 . S
C3252 C3257 1.390 . S
C3253 C3247 1.465 . S
C3253 C3252 1.396 . S
C3253 C3254 1.399 . S
C3254 H3240 0.929 . S
C3254 C3253 1.399 . S
C3254 C3255 1.385 . S
C3255 H3241 0.931 . S
C3255 C3254 1.385 . S
C3255 C3256 1.389 . S
C3256 C3255 1.389 . S
C3256 C3257 1.387 . S
C3257 H3242 0.942 . S
C3257 C3252 1.390 . S
C3257 C3256 1.387 . S
H3258 C3270 0.930 . S
H3259 C3272 0.930 . S
H3260 C3273 0.930 . S
H3261 C3277 0.959 . S
H3262 C3277 0.959 . S
H3263 C3277 0.961 . S
H3264 C3278 0.960 . S
H3265 C3278 0.961 . S
H3266 C3278 0.959 . S
H3267 C3281 0.929 . S
H3268 C3282 0.931 . S
H3269 C3284 0.930 . S
C3270 H3258 0.930 . S
C3270 C3271 1.399 . S
C3270 C3275 1.399 . S
C3271 C3270 1.399 . S
C3271 C3272 1.376 . S
C3272 H3259 0.930 . S
C3272 C3271 1.376 . S
C3272 C3273 1.388 . S
C3273 H3260 0.930 . S
C3273 C3272 1.388 . S
C3273 C3274 1.390 . S
C3274 C3273 1.390 . S
C3274 C3275 1.394 . S
C3274 C3280 1.465 . S
C3275 C3270 1.399 . S
C3275 C3274 1.394 . S
C3275 C3276 1.516 . S
C3276 C3275 1.516 . S
C3276 C3277 1.502 . S
C3276 C3278 1.561 . S
C3276 C3279 1.526 . S
C3277 H3261 0.959 . S
C3277 H3262 0.959 . S
C3277 H3263 0.961 . S
C3277 C3276 1.502 . S
C3278 H3264 0.960 . S
C3278 H3265 0.961 . S
C3278 H3266 0.959 . S
C3278 C3276 1.561 . S
C3279 C3276 1.526 . S
C3279 C3280 1.396 . S
C3279 C3284 1.390 . S
C3280 C3274 1.465 . S
C3280 C3279 1.396 . S
C3280 C3281 1.399 . S
C3281 H3267 0.929 . S
C3281 C3280 1.399 . S
C3281 C3282 1.385 . S
C3282 H3268 0.931 . S
C3282 C3281 1.385 . S
C3282 C3283 1.389 . S
C3283 C3282 1.389 . S
C3283 C3284 1.387 . S
C3284 H3269 0.930 . S
C3284 C3279 1.390 . S
C3284 C3283 1.387 . S
H3285 C3297 0.930 . S
H3286 C3299 0.930 . S
H3287 C3300 0.930 . S
H3288 C3304 0.959 . S
H3289 C3304 0.959 . S
H3290 C3304 0.961 . S
H3291 C3305 0.960 . S
H3292 C3305 0.961 . S
H3293 C3305 0.959 . S
H3294 C3308 0.929 . S
H3295 C3309 0.931 . S
H3296 C3311 0.929 1_565 S
C3297 H3285 0.930 . S
C3297 C3298 1.399 . S
C3297 C3302 1.399 . S
C3298 C3297 1.399 . S
C3298 C3299 1.376 . S
C3299 H3286 0.930 . S
C3299 C3298 1.376 . S
C3299 C3300 1.388 . S
C3300 H3287 0.930 . S
C3300 C3299 1.388 . S
C3300 C3301 1.390 . S
C3301 C3300 1.390 . S
C3301 C3302 1.394 . S
C3301 C3307 1.465 . S
C3302 C3297 1.399 . S
C3302 C3301 1.394 . S
C3302 C3303 1.516 . S
C3303 C3302 1.516 . S
C3303 C3304 1.502 . S
C3303 C3305 1.561 1_545 S
C3303 C3306 1.526 . S
C3304 H3288 0.959 . S
C3304 H3289 0.959 . S
C3304 H3290 0.961 . S
C3304 C3303 1.502 . S
C3305 H3291 0.960 . S
C3305 H3292 0.961 . S
C3305 H3293 0.959 . S
C3305 C3303 1.561 1_565 S
C3306 C3303 1.526 . S
C3306 C3307 1.396 . S
C3306 C3311 1.390 . S
C3307 C3301 1.465 . S
C3307 C3306 1.396 . S
C3307 C3308 1.399 . S
C3308 H3294 0.929 . S
C3308 C3307 1.399 . S
C3308 C3309 1.385 . S
C3309 H3295 0.931 . S
C3309 C3308 1.385 . S
C3309 C3310 1.389 . S
C3310 C3309 1.389 . S
C3310 C3311 1.387 . S
C3311 H3296 0.929 1_545 S
C3311 C3306 1.390 . S
C3311 C3310 1.387 . S
C1381 C9 1.580 1_655 S
C1393 C857 1.546 . S
C1408 C19 1.595 . S
C1420 C901 1.588 . S
C1447 C981 1.505 . S
C1435 C33 1.613 . S
C1462 C37 1.583 . S
C1474 C1025 1.545 . S
C1489 C5 1.560 . S
C1501 C1105 1.517 . S
C1516 C23 1.638 . S
C1528 C1167 1.557 . S
C1543 C47 1.576 . S
C1555 C1087 1.514 . S
C1582 C1149 1.606 . S
C1570 C65 1.650 . S
C1609 C1043 1.500 . S
C1597 C75 1.583 . S
C1624 C79 1.534 . S
C1636 C963 1.472 . S
C1663 C839 1.504 . S
C1651 C51 1.569 . S
C1678 C61 1.628 . S
C1690 C919 1.553 . S
C1705 C93 1.697 . S
C1717 C1229 1.627 . S
C1732 C103 1.633 . S
C1744 C1273 1.613 . S
C1771 C1353 1.637 . S
C1759 C117 1.670 . S
C1786 C121 1.656 . S
C1798 C299 1.542 . S
C1813 C89 1.664 . S
C1825 C343 1.584 . S
C1840 C107 1.670 . S
C1852 C423 1.581 . S
C1867 C131 1.653 . S
C1879 C361 1.572 . S
C1894 C149 1.668 . S
C1906 C405 1.551 . S
C1933 C281 1.548 . S
C1921 C159 1.642 . S
C1960 C1335 1.567 . S
C1948 C163 1.657 . S
C1987 C1211 1.575 . S
C1975 C135 1.698 . S
C2014 C1291 1.593 . S
C2002 C145 1.670 . S
C2029 C177 1.660 . S
C2041 C485 1.586 . S
C2056 C187 1.626 . S
C2068 C547 1.523 . S
C2083 C201 1.686 . S
C2095 C591 1.605 . S
C2110 C205 1.704 . S
C2122 C653 1.628 . S
C2149 C715 1.584 . S
C2137 C173 1.663 . S
C2176 C795 1.613 . S
C2164 C191 1.679 . S
C2203 C733 1.674 . S
C2191 C215 1.682 . S
C2230 C777 1.572 . S
C2218 C233 1.692 . S
C2245 C243 1.631 . S
C2257 C671 1.625 . S
C2284 C609 1.575 . S
C2272 C247 1.621 . S
C2299 C219 1.704 . S
C2311 C467 1.650 . S
C2338 C529 1.615 . S
C2326 C229 1.652 . S
C2365 C305 1.506 . S
C2353 C11 1.536 . S
C2380 C14 1.529 . S
C2392 C349 1.501 . S
C2419 C429 1.565 . S
C2407 C28 1.607 . S
C2446 C491 1.562 . S
C2434 C39 1.605 . S
C2473 C553 1.519 . S
C2461 C0 1.552 1_556 S
C2500 C597 1.433 . S
C2488 C25 1.491 . S
C2515 C42 1.602 . S
C2527 C615 1.572 . S
C2542 C67 1.532 . S
C2554 C473 1.499 . S
C2569 C70 1.519 . S
C2581 C535 1.434 . S
C2596 C81 1.540 . S
C2608 C367 1.450 . S
C2635 C411 1.538 . S
C2623 C53 1.574 . S
C2650 C56 1.559 . S
C2662 C287 1.437 . S
C2689 C659 1.470 . S
C2677 C95 1.537 . S
C2704 C98 1.587 . S
C2716 C721 1.553 . S
C2731 C112 1.653 1_655 S
C2743 C801 1.605 . S
C2770 C863 1.469 . S
C2758 C123 1.481 . S
C2785 C84 1.538 . S
C2797 C907 1.445 . S
C2812 C109 1.407 . S
C2824 C987 1.376 . S
C2839 C126 1.508 . S
C2851 C969 1.401 . S
C2866 C151 1.456 . S
C2878 C845 1.378 . S
C2905 C925 1.471 . S
C2893 C154 1.505 . S
C2920 C165 1.513 . S
C2932 C739 1.481 . S
C2947 C137 1.611 . S
C2959 C783 1.489 . S
C2986 C677 1.546 . S
C2974 C140 1.608 1_655 S
C3013 C1031 1.424 . S
C3001 C179 1.441 . S
C3028 C182 1.470 . S
C3040 C1111 1.434 . S
C3055 C196 1.591 . S
C3067 C1173 1.542 . S
C3094 C1235 1.467 . S
C3082 C207 1.593 . S
C3121 C1279 1.494 . S
C3109 C168 1.578 1_565 S
C3136 C193 1.556 . S
C3148 C1359 1.503 . S
C3163 C210 1.599 . S
C3175 C1341 1.481 . S
C3190 C235 1.588 . S
C3202 C1217 1.538 . S
C3229 C1297 1.525 . S
C3217 C238 1.546 . S
C3256 C1093 1.398 . S
C3244 C249 1.401 . S
C3283 C1155 1.519 . S
C3271 C221 1.554 . S
C3298 C224 1.493 . S
C3310 C1049 1.407 . S
