# Generated by pormake.
# Topology eea, (3,6)-cn, num edge types: 1
# Building blocks:
#     Node 0, Type 0, BuildingBlock: MIDCAF_clean_linker_0, # of connection points: 3
#     Node 1, Type 0, BuildingBlock: MIDCAF_clean_linker_0, # of connection points: 3
#     Node 2, Type 0, BuildingBlock: MIDCAF_clean_linker_0, # of connection points: 3
#     Node 3, Type 0, BuildingBlock: MIDCAF_clean_linker_0, # of connection points: 3
#     Node 4, Type 0, BuildingBlock: MIDCAF_clean_linker_0, # of connection points: 3
#     Node 5, Type 0, BuildingBlock: MIDCAF_clean_linker_0, # of connection points: 3
#     Node 6, Type 0, BuildingBlock: MIDCAF_clean_linker_0, # of connection points: 3
#     Node 7, Type 0, BuildingBlock: MIDCAF_clean_linker_0, # of connection points: 3
#     Node 8, Type 0, BuildingBlock: MIDCAF_clean_linker_0, # of connection points: 3
#     Node 9, Type 0, BuildingBlock: MIDCAF_clean_linker_0, # of connection points: 3
#     Node 10, Type 0, BuildingBlock: MIDCAF_clean_linker_0, # of connection points: 3
#     Node 11, Type 0, BuildingBlock: MIDCAF_clean_linker_0, # of connection points: 3
#     Node 12, Type 0, BuildingBlock: MIDCAF_clean_linker_0, # of connection points: 3
#     Node 13, Type 0, BuildingBlock: MIDCAF_clean_linker_0, # of connection points: 3
#     Node 14, Type 0, BuildingBlock: MIDCAF_clean_linker_0, # of connection points: 3
#     Node 15, Type 0, BuildingBlock: MIDCAF_clean_linker_0, # of connection points: 3
#     Node 16, Type 0, BuildingBlock: MIDCAF_clean_linker_0, # of connection points: 3
#     Node 17, Type 0, BuildingBlock: MIDCAF_clean_linker_0, # of connection points: 3
#     Node 18, Type 1, BuildingBlock: CUWYAW_clean_sbu_0, # of connection points: 6
#     Node 19, Type 1, BuildingBlock: CUWYAW_clean_sbu_0, # of connection points: 6
#     Node 20, Type 1, BuildingBlock: CUWYAW_clean_sbu_0, # of connection points: 6
#     Node 21, Type 1, BuildingBlock: CUWYAW_clean_sbu_0, # of connection points: 6
#     Node 22, Type 1, BuildingBlock: CUWYAW_clean_sbu_0, # of connection points: 6
#     Node 23, Type 1, BuildingBlock: CUWYAW_clean_sbu_0, # of connection points: 6
#     Node 24, Type 1, BuildingBlock: CUWYAW_clean_sbu_0, # of connection points: 6
#     Node 25, Type 1, BuildingBlock: CUWYAW_clean_sbu_0, # of connection points: 6
#     Node 26, Type 1, BuildingBlock: CUWYAW_clean_sbu_0, # of connection points: 6
#     Edge 27, Type (0, 1), BuildingBlock: XIVTED_clean_linker_0, # of connection points: 2
#     Edge 28, Type (0, 1), BuildingBlock: XIVTED_clean_linker_0, # of connection points: 2
#     Edge 29, Type (0, 1), BuildingBlock: XIVTED_clean_linker_0, # of connection points: 2
#     Edge 30, Type (0, 1), BuildingBlock: XIVTED_clean_linker_0, # of connection points: 2
#     Edge 31, Type (0, 1), BuildingBlock: XIVTED_clean_linker_0, # of connection points: 2
#     Edge 32, Type (0, 1), BuildingBlock: XIVTED_clean_linker_0, # of connection points: 2
#     Edge 33, Type (0, 1), BuildingBlock: XIVTED_clean_linker_0, # of connection points: 2
#     Edge 34, Type (0, 1), BuildingBlock: XIVTED_clean_linker_0, # of connection points: 2
#     Edge 35, Type (0, 1), BuildingBlock: XIVTED_clean_linker_0, # of connection points: 2
#     Edge 36, Type (0, 1), BuildingBlock: XIVTED_clean_linker_0, # of connection points: 2
#     Edge 37, Type (0, 1), BuildingBlock: XIVTED_clean_linker_0, # of connection points: 2
#     Edge 38, Type (0, 1), BuildingBlock: XIVTED_clean_linker_0, # of connection points: 2
#     Edge 39, Type (0, 1), BuildingBlock: XIVTED_clean_linker_0, # of connection points: 2
#     Edge 40, Type (0, 1), BuildingBlock: XIVTED_clean_linker_0, # of connection points: 2
#     Edge 41, Type (0, 1), BuildingBlock: XIVTED_clean_linker_0, # of connection points: 2
#     Edge 42, Type (0, 1), BuildingBlock: XIVTED_clean_linker_0, # of connection points: 2
#     Edge 43, Type (0, 1), BuildingBlock: XIVTED_clean_linker_0, # of connection points: 2
#     Edge 44, Type (0, 1), BuildingBlock: XIVTED_clean_linker_0, # of connection points: 2
#     Edge 45, Type (0, 1), BuildingBlock: XIVTED_clean_linker_0, # of connection points: 2
#     Edge 46, Type (0, 1), BuildingBlock: XIVTED_clean_linker_0, # of connection points: 2
#     Edge 47, Type (0, 1), BuildingBlock: XIVTED_clean_linker_0, # of connection points: 2
#     Edge 48, Type (0, 1), BuildingBlock: XIVTED_clean_linker_0, # of connection points: 2
#     Edge 49, Type (0, 1), BuildingBlock: XIVTED_clean_linker_0, # of connection points: 2
#     Edge 50, Type (0, 1), BuildingBlock: XIVTED_clean_linker_0, # of connection points: 2
#     Edge 51, Type (0, 1), BuildingBlock: XIVTED_clean_linker_0, # of connection points: 2
#     Edge 52, Type (0, 1), BuildingBlock: XIVTED_clean_linker_0, # of connection points: 2
#     Edge 53, Type (0, 1), BuildingBlock: XIVTED_clean_linker_0, # of connection points: 2
#     Edge 54, Type (0, 1), BuildingBlock: XIVTED_clean_linker_0, # of connection points: 2
#     Edge 55, Type (0, 1), BuildingBlock: XIVTED_clean_linker_0, # of connection points: 2
#     Edge 56, Type (0, 1), BuildingBlock: XIVTED_clean_linker_0, # of connection points: 2
#     Edge 57, Type (0, 1), BuildingBlock: XIVTED_clean_linker_0, # of connection points: 2
#     Edge 58, Type (0, 1), BuildingBlock: XIVTED_clean_linker_0, # of connection points: 2
#     Edge 59, Type (0, 1), BuildingBlock: XIVTED_clean_linker_0, # of connection points: 2
#     Edge 60, Type (0, 1), BuildingBlock: XIVTED_clean_linker_0, # of connection points: 2
#     Edge 61, Type (0, 1), BuildingBlock: XIVTED_clean_linker_0, # of connection points: 2
#     Edge 62, Type (0, 1), BuildingBlock: XIVTED_clean_linker_0, # of connection points: 2
#     Edge 63, Type (0, 1), BuildingBlock: XIVTED_clean_linker_0, # of connection points: 2
#     Edge 64, Type (0, 1), BuildingBlock: XIVTED_clean_linker_0, # of connection points: 2
#     Edge 65, Type (0, 1), BuildingBlock: XIVTED_clean_linker_0, # of connection points: 2
#     Edge 66, Type (0, 1), BuildingBlock: XIVTED_clean_linker_0, # of connection points: 2
#     Edge 67, Type (0, 1), BuildingBlock: XIVTED_clean_linker_0, # of connection points: 2
#     Edge 68, Type (0, 1), BuildingBlock: XIVTED_clean_linker_0, # of connection points: 2
#     Edge 69, Type (0, 1), BuildingBlock: XIVTED_clean_linker_0, # of connection points: 2
#     Edge 70, Type (0, 1), BuildingBlock: XIVTED_clean_linker_0, # of connection points: 2
#     Edge 71, Type (0, 1), BuildingBlock: XIVTED_clean_linker_0, # of connection points: 2
#     Edge 72, Type (0, 1), BuildingBlock: XIVTED_clean_linker_0, # of connection points: 2
#     Edge 73, Type (0, 1), BuildingBlock: XIVTED_clean_linker_0, # of connection points: 2
#     Edge 74, Type (0, 1), BuildingBlock: XIVTED_clean_linker_0, # of connection points: 2
#     Edge 75, Type (0, 1), BuildingBlock: XIVTED_clean_linker_0, # of connection points: 2
#     Edge 76, Type (0, 1), BuildingBlock: XIVTED_clean_linker_0, # of connection points: 2
#     Edge 77, Type (0, 1), BuildingBlock: XIVTED_clean_linker_0, # of connection points: 2
#     Edge 78, Type (0, 1), BuildingBlock: XIVTED_clean_linker_0, # of connection points: 2
#     Edge 79, Type (0, 1), BuildingBlock: XIVTED_clean_linker_0, # of connection points: 2
#     Edge 80, Type (0, 1), BuildingBlock: XIVTED_clean_linker_0, # of connection points: 2
# Relax obj value: 0.035
# Max RMSD: 0.133
# Mean RMSD: 0.075
data_MOF--net-eea--node1-CUWYAW_clean_sbu_0--node2-MIDCAF_clean_linker_0--edge1-XIVTED_clean_linker_0
_symmetry_space_group_name_H-M    P1
_symmetry_Int_Tables_number       1
_symmetry_cell_setting            triclinic
loop_
_symmetry_equiv_pos_as_xyz
'x, y, z'
_cell_length_a     62.465496
_cell_length_b     62.0966
_cell_length_c     90.843606
_cell_angle_alpha  93.532854
_cell_angle_beta   93.496731
_cell_angle_gamma 119.82215
loop_
_atom_site_label
_atom_site_type_symbol
_atom_site_fract_x
_atom_site_fract_y
_atom_site_fract_z
_atom_type_partial_charge
C0 C 0.25196 0.05388 0.39765 0.0
C1 C 0.24883 0.04876 0.38217 0.0
C2 C 0.25576 0.06843 0.37328 0.0
C3 C 0.26492 0.09281 0.37979 0.0
H4 H 0.24121 0.14793 0.37922 0.0
H5 H 0.22693 0.17339 0.36792 0.0
H6 H 0.2856 0.23905 0.39453 0.0
H7 H 0.29883 0.21293 0.40658 0.0
H8 H 0.30313 0.19458 0.44203 0.0
H9 H 0.31135 0.20072 0.46911 0.0
H10 H 0.30667 0.12897 0.46882 0.0
H11 H 0.29861 0.12272 0.442 0.0
H12 H 0.26345 0.08156 0.41614 0.0
H13 H 0.24681 0.03896 0.4047 0.0
H14 H 0.2534 0.06481 0.3613 0.0
H15 H 0.26962 0.1076 0.37269 0.0
N16 N 0.2721 0.13949 0.39481 0.0
N17 N 0.28772 0.16854 0.41605 0.0
N18 N 0.28563 0.12987 0.41671 0.0
C19 C 0.27796 0.16215 0.4016 0.0
C20 C 0.29168 0.15244 0.42367 0.0
C21 C 0.27604 0.12332 0.40229 0.0
C22 C 0.27113 0.17842 0.3938 0.0
C23 C 0.25123 0.16785 0.38257 0.0
C24 C 0.24313 0.18259 0.37599 0.0
C25 C 0.25509 0.20847 0.3802 0.0
C26 C 0.27556 0.21917 0.39116 0.0
C27 C 0.28332 0.20425 0.398 0.0
C28 C 0.29984 0.15799 0.4398 0.0
C29 C 0.30418 0.18026 0.44772 0.0
C30 C 0.30894 0.18383 0.46321 0.0
C31 C 0.30923 0.16513 0.47101 0.0
C32 C 0.30609 0.14348 0.46307 0.0
C33 C 0.30156 0.13999 0.44766 0.0
C34 C 0.26778 0.09793 0.3953 0.0
C35 C 0.26159 0.07827 0.40416 0.0
C36 C 0.96256 0.20352 0.40953 0.0
C37 C 0.96419 0.2027 0.39413 0.0
C38 C 0.94244 0.18748 0.38452 0.0
C39 C 0.91993 0.17266 0.39012 0.0
H40 H 0.8675 0.09333 0.38663 0.0
H41 H 0.83992 0.0532 0.37262 0.0
H42 H 0.77795 0.04962 0.39352 0.0
H43 H 0.80608 0.08925 0.40823 0.0
H44 H 0.82446 0.11841 0.4425 0.0
H45 H 0.81613 0.12471 0.46768 0.0
H46 H 0.8902 0.18826 0.47714 0.0
H47 H 0.89882 0.18178 0.45192 0.0
H48 H 0.93925 0.18945 0.42705 0.0
H49 H 0.97893 0.21487 0.41728 0.0
H50 H 0.94275 0.1869 0.3726 0.0
H51 H 0.90366 0.16088 0.38236 0.0
N52 N 0.87802 0.13447 0.40269 0.0
N53 N 0.8512 0.12343 0.42128 0.0
N54 N 0.88968 0.16069 0.42493 0.0
C55 C 0.85626 0.1182 0.40764 0.0
C56 C 0.86781 0.14461 0.43002 0.0
C57 C 0.89475 0.15579 0.41119 0.0
C58 C 0.83896 0.09442 0.39856 0.0
C59 C 0.84795 0.08402 0.38818 0.0
C60 C 0.83202 0.061 0.38005 0.0
C61 C 0.80654 0.04798 0.38183 0.0
C62 C 0.79749 0.05874 0.39202 0.0
C63 C 0.81357 0.08157 0.4004 0.0
C64 C 0.86239 0.1495 0.44515 0.0
C65 C 0.83901 0.13382 0.44988 0.0
C66 C 0.83413 0.13754 0.46431 0.0
C67 C 0.8525 0.15698 0.47442 0.0
C68 C 0.87575 0.17294 0.46966 0.0
C69 C 0.88063 0.1693 0.45517 0.0
C70 C 0.91842 0.17295 0.40548 0.0
C71 C 0.93984 0.18889 0.41515 0.0
C72 C 0.80561 0.75615 0.40889 0.0
C73 C 0.80965 0.76546 0.395 0.0
C74 C 0.82972 0.76715 0.38789 0.0
C75 C 0.84568 0.76015 0.39465 0.0
H76 H 0.90245 0.74272 0.38757 0.0
H77 H 0.94003 0.75314 0.37605 0.0
H78 H 0.98025 0.76777 0.41938 0.0
H79 H 0.94221 0.75607 0.43083 0.0
H80 H 0.9012 0.71978 0.45494 0.0
H81 H 0.89544 0.70808 0.48019 0.0
H82 H 0.83165 0.71791 0.47958 0.0
H83 H 0.83739 0.7298 0.45455 0.0
H84 H 0.81798 0.74227 0.42643 0.0
H85 H 0.79008 0.75425 0.41454 0.0
H86 H 0.83347 0.77448 0.37725 0.0
H87 H 0.86118 0.76209 0.38895 0.0
N88 N 0.8799 0.74828 0.40981 0.0
N89 N 0.89366 0.73679 0.43093 0.0
N90 N 0.85661 0.73785 0.4301 0.0
C91 C 0.89693 0.74408 0.41705 0.0
C92 C 0.87339 0.73346 0.43749 0.0
C93 C 0.8597 0.74526 0.41627 0.0
C94 C 0.91942 0.74874 0.4101 0.0
C95 C 0.91928 0.74798 0.39462 0.0
C96 C 0.94093 0.75416 0.38803 0.0
C97 C 0.96338 0.76171 0.39676 0.0
C98 C 0.96331 0.76181 0.41226 0.0
C99 C 0.94151 0.7552 0.41885 0.0
C100 C 0.86983 0.72583 0.4527 0.0
C101 C 0.88594 0.71946 0.46018 0.0
C102 C 0.8826 0.71263 0.47462 0.0
C103 C 0.86319 0.71224 0.48187 0.0
C104 C 0.84701 0.71843 0.47436 0.0
C105 C 0.85024 0.72509 0.45994 0.0
C106 C 0.84194 0.75129 0.40869 0.0
C107 C 0.82155 0.74913 0.41565 0.0
C108 C 0.02942 0.2317 0.58764 0.0
C109 C 0.02879 0.23026 0.60303 0.0
C110 C 0.05102 0.23722 0.61185 0.0
C111 C 0.07302 0.24453 0.60543 0.0
H112 H 0.13266 0.23264 0.61008 0.0
H113 H 0.16138 0.22108 0.62124 0.0
H114 H 0.20639 0.24729 0.58496 0.0
H115 H 0.17748 0.25852 0.57359 0.0
H116 H 0.16323 0.28293 0.54931 0.0
H117 H 0.17128 0.3009 0.52593 0.0
H118 H 0.10043 0.29765 0.52305 0.0
H119 H 0.092 0.27913 0.54646 0.0
H120 H 0.0514 0.24001 0.56934 0.0
H121 H 0.01269 0.2262 0.58043 0.0
H122 H 0.05153 0.23709 0.62378 0.0
H123 H 0.08971 0.24944 0.61254 0.0
N124 N 0.11361 0.2474 0.59001 0.0
N125 N 0.13874 0.26307 0.57082 0.0
N126 N 0.10081 0.26237 0.57022 0.0
C127 C 0.13469 0.25269 0.58381 0.0
C128 C 0.122 0.26808 0.56397 0.0
C129 C 0.0966 0.25214 0.58329 0.0
C130 C 0.15268 0.24649 0.5909 0.0
C131 C 0.14868 0.23602 0.60446 0.0
C132 C 0.16523 0.22949 0.61092 0.0
C133 C 0.18615 0.23326 0.60398 0.0
C134 C 0.19026 0.24386 0.59048 0.0
C135 C 0.17375 0.25045 0.58402 0.0
C136 C 0.12691 0.27949 0.54981 0.0
C137 C 0.1493 0.28603 0.54377 0.0
C138 C 0.15405 0.29656 0.53038 0.0
C139 C 0.13656 0.30084 0.52267 0.0
C140 C 0.11419 0.2944 0.52868 0.0
C141 C 0.10943 0.28388 0.54213 0.0
C142 C 0.0735 0.24559 0.59005 0.0
C143 C 0.0516 0.23951 0.58124 0.0
C144 C 0.73841 0.78064 0.60316 0.0
C145 C 0.74971 0.78707 0.61783 0.0
C146 C 0.7507 0.80729 0.6263 0.0
C147 C 0.74148 0.82141 0.62009 0.0
H148 H 0.74378 0.88696 0.62864 0.0
H149 H 0.75851 0.92821 0.64149 0.0
H150 H 0.73208 0.94917 0.60297 0.0
H151 H 0.71693 0.90788 0.59017 0.0
H152 H 0.69821 0.87336 0.56101 0.0
H153 H 0.69117 0.871 0.53426 0.0
H154 H 0.69921 0.80586 0.52941 0.0
H155 H 0.70613 0.80796 0.55636 0.0
H156 H 0.72131 0.78987 0.58541 0.0
H157 H 0.73746 0.76518 0.59635 0.0
H158 H 0.75889 0.81239 0.63773 0.0
H159 H 0.74306 0.83716 0.62692 0.0
N160 N 0.72765 0.85351 0.60625 0.0
N161 N 0.71426 0.8654 0.58529 0.0
N162 N 0.7153 0.82811 0.58364 0.0
C163 C 0.72285 0.87005 0.59987 0.0
C164 C 0.71033 0.84447 0.57709 0.0
C165 C 0.72382 0.83244 0.59827 0.0
C166 C 0.72935 0.8941 0.60829 0.0
C167 C 0.74081 0.90022 0.62294 0.0
C168 C 0.74942 0.92393 0.63029 0.0
C169 C 0.74669 0.94203 0.62319 0.0
C170 C 0.73431 0.93559 0.60879 0.0
C171 C 0.72574 0.91191 0.60142 0.0
C172 C 0.7031 0.84105 0.56089 0.0
C173 C 0.6983 0.85835 0.55433 0.0
C174 C 0.69436 0.8571 0.53896 0.0
C175 C 0.69506 0.83851 0.52975 0.0
C176 C 0.69857 0.82039 0.53626 0.0
C177 C 0.7026 0.82167 0.5517 0.0
C178 C 0.73112 0.81573 0.6052 0.0
C179 C 0.72924 0.79486 0.59689 0.0
C180 C 0.19267 0.94802 0.60068 0.0
C181 C 0.1876 0.95434 0.61464 0.0
C182 C 0.16651 0.93659 0.62072 0.0
C183 C 0.15062 0.91321 0.61291 0.0
H184 H 0.08638 0.84945 0.61514 0.0
H185 H 0.04839 0.82158 0.62536 0.0
H186 H 0.02374 0.77073 0.58529 0.0
H187 H 0.06181 0.79894 0.57481 0.0
H188 H 0.09735 0.81338 0.54848 0.0
H189 H 0.10586 0.80506 0.52353 0.0
H190 H 0.17528 0.87505 0.52956 0.0
H191 H 0.16719 0.88315 0.55443 0.0
H192 H 0.18111 0.92055 0.58204 0.0
H193 H 0.20862 0.96136 0.59561 0.0
H194 H 0.16229 0.94075 0.63156 0.0
H195 H 0.13446 0.9001 0.61792 0.0
N196 N 0.11687 0.86611 0.59579 0.0
N197 N 0.10521 0.83837 0.57421 0.0
N198 N 0.14254 0.87671 0.57663 0.0
C199 C 0.10039 0.84397 0.58789 0.0
C200 C 0.12633 0.85467 0.56853 0.0
C201 C 0.13798 0.88258 0.59027 0.0
C202 C 0.07726 0.8265 0.59412 0.0
C203 C 0.07297 0.83234 0.60845 0.0
C204 C 0.05119 0.81626 0.61438 0.0
C205 C 0.03309 0.79387 0.60618 0.0
C206 C 0.03726 0.78795 0.59184 0.0
C207 C 0.05915 0.80407 0.58588 0.0
C208 C 0.13154 0.84897 0.55351 0.0
C209 C 0.11451 0.82692 0.54452 0.0
C210 C 0.11931 0.8222 0.53019 0.0
C211 C 0.14127 0.83936 0.52456 0.0
C212 C 0.15838 0.86122 0.53362 0.0
C213 C 0.1536 0.86595 0.54789 0.0
C214 C 0.15543 0.90701 0.59882 0.0
C215 C 0.17678 0.92463 0.59286 0.0
C216 C 0.91339 0.38148 0.72729 0.0
C217 C 0.91214 0.37778 0.7118 0.0
C218 C 0.92124 0.39846 0.70362 0.0
C219 C 0.93064 0.42248 0.71079 0.0
H220 H 0.92493 0.48553 0.70482 0.0
H221 H 0.91026 0.51075 0.69324 0.0
H222 H 0.93305 0.55999 0.73389 0.0
H223 H 0.94809 0.53503 0.74551 0.0
H224 H 0.97 0.52185 0.7743 0.0
H225 H 0.97792 0.52775 0.80136 0.0
H226 H 0.95979 0.45102 0.80154 0.0
H227 H 0.95188 0.44496 0.77467 0.0
H228 H 0.92359 0.40767 0.74644 0.0
H229 H 0.90657 0.36575 0.7338 0.0
H230 H 0.92038 0.39595 0.69164 0.0
H231 H 0.93699 0.43809 0.70421 0.0
N232 N 0.93749 0.46844 0.72659 0.0
N233 N 0.95084 0.4955 0.74859 0.0
N234 N 0.94758 0.45625 0.74862 0.0
C235 C 0.94295 0.49066 0.73385 0.0
C236 C 0.95336 0.47843 0.75603 0.0
C237 C 0.93983 0.45118 0.7339 0.0
C238 C 0.9374 0.508 0.72619 0.0
C239 C 0.92716 0.50191 0.71128 0.0
C240 C 0.9186 0.51628 0.70464 0.0
C241 C 0.92015 0.53711 0.71273 0.0
C242 C 0.93167 0.54407 0.72736 0.0
C243 C 0.94019 0.52966 0.73403 0.0
C244 C 0.96011 0.48288 0.77229 0.0
C245 C 0.96786 0.50628 0.7801 0.0
C246 C 0.97249 0.50972 0.79557 0.0
C247 C 0.96919 0.48976 0.80351 0.0
C248 C 0.9621 0.46661 0.79569 0.0
C249 C 0.95772 0.46322 0.78027 0.0
C250 C 0.93158 0.42618 0.7263 0.0
C251 C 0.92325 0.40547 0.73449 0.0
C252 C 0.629 0.53991 0.74186 0.0
C253 C 0.62965 0.54014 0.72641 0.0
C254 C 0.60728 0.526 0.71713 0.0
C255 C 0.58512 0.51101 0.72306 0.0
H256 H 0.52603 0.43924 0.71265 0.0
H257 H 0.49854 0.39906 0.69835 0.0
H258 H 0.45407 0.37459 0.73499 0.0
H259 H 0.48117 0.41481 0.74923 0.0
H260 H 0.50385 0.44311 0.78041 0.0
H261 H 0.49854 0.44722 0.80649 0.0
H262 H 0.55811 0.5239 0.81105 0.0
H263 H 0.56358 0.51994 0.78476 0.0
H264 H 0.60695 0.52477 0.75974 0.0
H265 H 0.64585 0.55037 0.74937 0.0
H266 H 0.60689 0.52624 0.70521 0.0
H267 H 0.56836 0.4999 0.71555 0.0
N268 N 0.54435 0.47136 0.73582 0.0
N269 N 0.52067 0.45745 0.75578 0.0
N270 N 0.55829 0.49552 0.75895 0.0
C271 C 0.52381 0.45386 0.74137 0.0
C272 C 0.5377 0.47822 0.76463 0.0
C273 C 0.56164 0.49222 0.74451 0.0
C274 C 0.50597 0.43027 0.73217 0.0
C275 C 0.51027 0.42542 0.71764 0.0
C276 C 0.4946 0.40232 0.70945 0.0
C277 C 0.47424 0.38358 0.71558 0.0
C278 C 0.46946 0.38871 0.7299 0.0
C279 C 0.48513 0.41177 0.7381 0.0
C280 C 0.53422 0.48119 0.78046 0.0
C281 C 0.51584 0.46093 0.78689 0.0
C282 C 0.51286 0.4632 0.80188 0.0
C283 C 0.52803 0.48581 0.8108 0.0
C284 C 0.54612 0.50627 0.80439 0.0
C285 C 0.5493 0.50394 0.78937 0.0
C286 C 0.58465 0.5101 0.73845 0.0
C287 C 0.60669 0.52516 0.74782 0.0
C288 C 0.48009 0.10086 0.74429 0.0
C289 C 0.47682 0.09969 0.72874 0.0
C290 C 0.49001 0.09145 0.72025 0.0
C291 C 0.50639 0.08507 0.72714 0.0
H292 H 0.57288 0.08768 0.72149 0.0
H293 H 0.60994 0.09654 0.70982 0.0
H294 H 0.64076 0.08303 0.7497 0.0
H295 H 0.60375 0.07453 0.76158 0.0
H296 H 0.56712 0.05122 0.78754 0.0
H297 H 0.56196 0.03994 0.81292 0.0
H298 H 0.5037 0.05806 0.81454 0.0
H299 H 0.50886 0.0695 0.7894 0.0
H300 H 0.49839 0.09544 0.76315 0.0
H301 H 0.4707 0.10755 0.75124 0.0
H302 H 0.48761 0.08976 0.70825 0.0
H303 H 0.51636 0.07894 0.72029 0.0
N304 N 0.54661 0.08179 0.74303 0.0
N305 N 0.56074 0.07026 0.76399 0.0
N306 N 0.52491 0.0735 0.76402 0.0
C307 C 0.56348 0.07701 0.74996 0.0
C308 C 0.5414 0.06837 0.77106 0.0
C309 C 0.52732 0.0801 0.75001 0.0
C310 C 0.58531 0.08051 0.74253 0.0
C311 C 0.58744 0.08643 0.7278 0.0
C312 C 0.60866 0.09137 0.72105 0.0
C313 C 0.62831 0.09054 0.72884 0.0
C314 C 0.62604 0.08412 0.74347 0.0
C315 C 0.60474 0.07909 0.75023 0.0
C316 C 0.53845 0.06133 0.78641 0.0
C317 C 0.55325 0.05285 0.79332 0.0
C318 C 0.55023 0.04626 0.80782 0.0
C319 C 0.53254 0.04827 0.81572 0.0
C320 C 0.51775 0.05668 0.8088 0.0
C321 C 0.52062 0.06308 0.79433 0.0
C322 C 0.50962 0.08632 0.74266 0.0
C323 C 0.49613 0.09405 0.75115 0.0
C324 C 0.69947 0.56792 0.92269 0.0
C325 C 0.69948 0.56722 0.93816 0.0
C326 C 0.72197 0.57437 0.94672 0.0
C327 C 0.74358 0.58103 0.93998 0.0
H328 H 0.80154 0.56673 0.94417 0.0
H329 H 0.82967 0.55443 0.9553 0.0
H330 H 0.87374 0.57817 0.91844 0.0
H331 H 0.84537 0.59011 0.9071 0.0
H332 H 0.83022 0.61243 0.88193 0.0
H333 H 0.83785 0.62942 0.85825 0.0
H334 H 0.76955 0.63129 0.85687 0.0
H335 H 0.76151 0.61373 0.88058 0.0
H336 H 0.72056 0.57492 0.90401 0.0
H337 H 0.68251 0.56226 0.91567 0.0
H338 H 0.72297 0.57482 0.95869 0.0
H339 H 0.76047 0.58604 0.9469 0.0
N340 N 0.78283 0.58172 0.92411 0.0
N341 N 0.80716 0.59566 0.90443 0.0
N342 N 0.7699 0.5963 0.90416 0.0
C343 C 0.8034 0.58598 0.91764 0.0
C344 C 0.79061 0.60098 0.89763 0.0
C345 C 0.76601 0.58679 0.91746 0.0
C346 C 0.82111 0.57939 0.9247 0.0
C347 C 0.81723 0.56941 0.93842 0.0
C348 C 0.83345 0.56246 0.94486 0.0
C349 C 0.85393 0.56531 0.93775 0.0
C350 C 0.85794 0.57544 0.9241 0.0
C351 C 0.84174 0.58245 0.91765 0.0
C352 C 0.79521 0.61165 0.88322 0.0
C353 C 0.81676 0.61645 0.87665 0.0
C354 C 0.82128 0.62641 0.86309 0.0
C355 C 0.8044 0.63187 0.85572 0.0
C356 C 0.78282 0.6271 0.86223 0.0
C357 C 0.77828 0.61713 0.87585 0.0
C358 C 0.74341 0.58123 0.92454 0.0
C359 C 0.72127 0.57507 0.91597 0.0
C360 C 0.40308 0.11755 0.93669 0.0
C361 C 0.41498 0.12456 0.95123 0.0
C362 C 0.41606 0.14493 0.95958 0.0
C363 C 0.40633 0.15863 0.95336 0.0
H364 H 0.40688 0.22331 0.96161 0.0
H365 H 0.42205 0.26485 0.9741 0.0
H366 H 0.39592 0.28537 0.93526 0.0
H367 H 0.38036 0.24373 0.92278 0.0
H368 H 0.36113 0.2082 0.89375 0.0
H369 H 0.35381 0.20489 0.86694 0.0
H370 H 0.36184 0.13968 0.86307 0.0
H371 H 0.36897 0.1427 0.89004 0.0
H372 H 0.38501 0.12588 0.91904 0.0
H373 H 0.40205 0.10196 0.92998 0.0
H374 H 0.42472 0.15048 0.97091 0.0
H375 H 0.408 0.17453 0.96007 0.0
N376 N 0.39126 0.18978 0.93939 0.0
N377 N 0.37726 0.2009 0.91831 0.0
N378 N 0.37874 0.16385 0.91699 0.0
C379 C 0.3861 0.20599 0.93287 0.0
C380 C 0.37341 0.17986 0.91029 0.0
C381 C 0.38753 0.16862 0.93158 0.0
C382 C 0.39262 0.23019 0.9411 0.0
C383 C 0.40407 0.23652 0.95576 0.0
C384 C 0.41291 0.2604 0.96291 0.0
C385 C 0.41046 0.27847 0.9556 0.0
C386 C 0.39798 0.27182 0.94122 0.0
C387 C 0.38916 0.24794 0.93404 0.0
C388 C 0.36599 0.17591 0.8941 0.0
C389 C 0.36113 0.19297 0.88726 0.0
C390 C 0.35704 0.19118 0.87187 0.0
C391 C 0.35766 0.17228 0.86291 0.0
C392 C 0.36124 0.15443 0.86971 0.0
C393 C 0.3654 0.15624 0.88516 0.0
C394 C 0.39535 0.15235 0.9386 0.0
C395 C 0.39341 0.13134 0.93042 0.0
C396 C 0.86458 0.27281 0.94129 0.0
C397 C 0.85587 0.28333 0.95187 0.0
C398 C 0.83059 0.26998 0.95415 0.0
C399 C 0.81449 0.24699 0.94601 0.0
H400 H 0.76075 0.16724 0.95092 0.0
H401 H 0.7225 0.14049 0.96132 0.0
H402 H 0.68275 0.11805 0.91738 0.0
H403 H 0.72157 0.14415 0.9069 0.0
H404 H 0.76075 0.15359 0.88018 0.0
H405 H 0.76761 0.15049 0.85414 0.0
H406 H 0.84176 0.21387 0.86377 0.0
H407 H 0.8349 0.2173 0.88958 0.0
H408 H 0.85549 0.24266 0.92467 0.0
H409 H 0.88397 0.28212 0.93942 0.0
H410 H 0.82293 0.27754 0.96192 0.0
H411 H 0.79507 0.23747 0.94788 0.0
N412 N 0.7843 0.19666 0.93095 0.0
N413 N 0.77136 0.17226 0.90792 0.0
N414 N 0.80967 0.20969 0.91167 0.0
C415 C 0.76723 0.17586 0.92216 0.0
C416 C 0.79271 0.18909 0.90263 0.0
C417 C 0.80552 0.21364 0.92579 0.0
C418 C 0.74411 0.15798 0.92811 0.0
C419 C 0.74387 0.15648 0.94346 0.0
C420 C 0.72185 0.14125 0.94943 0.0
C421 C 0.69935 0.12743 0.94024 0.0
C422 C 0.69972 0.12829 0.9248 0.0
C423 C 0.72194 0.1433 0.91878 0.0
C424 C 0.79716 0.18585 0.887 0.0
C425 C 0.77856 0.16679 0.87676 0.0
C426 C 0.78251 0.16494 0.86184 0.0
C427 C 0.80513 0.18212 0.85685 0.0
C428 C 0.82393 0.20068 0.86717 0.0
C429 C 0.82 0.20254 0.88203 0.0
C430 C 0.82309 0.237 0.93514 0.0
C431 C 0.84831 0.25006 0.93289 0.0
C432 C 0.60021 0.72624 0.05804 0.0
C433 C 0.5866 0.71906 0.04398 0.0
C434 C 0.58345 0.73683 0.03676 0.0
C435 C 0.59277 0.76093 0.04372 0.0
H436 H 0.58786 0.82262 0.03989 0.0
H437 H 0.57051 0.84657 0.02968 0.0
H438 H 0.59737 0.89679 0.07009 0.0
H439 H 0.61506 0.87297 0.08038 0.0
H440 H 0.63157 0.85578 0.10911 0.0
H441 H 0.64065 0.85918 0.13593 0.0
H442 H 0.65278 0.79657 0.1309 0.0
H443 H 0.64344 0.79285 0.1042 0.0
H444 H 0.61925 0.75495 0.07605 0.0
H445 H 0.60283 0.71295 0.06394 0.0
H446 H 0.57343 0.73198 0.0258 0.0
H447 H 0.58943 0.77391 0.03797 0.0
N448 N 0.60675 0.80821 0.05991 0.0
N449 N 0.62137 0.83498 0.08206 0.0
N450 N 0.62291 0.79795 0.08048 0.0
C451 C 0.61116 0.82964 0.06772 0.0
C452 C 0.62745 0.81927 0.08849 0.0
C453 C 0.61263 0.79229 0.06618 0.0
C454 C 0.60269 0.84568 0.06105 0.0
C455 C 0.5903 0.83886 0.04662 0.0
C456 C 0.5802 0.8525 0.04077 0.0
C457 C 0.58231 0.87335 0.04916 0.0
C458 C 0.59552 0.88083 0.06335 0.0
C459 C 0.60557 0.8671 0.06925 0.0
C460 C 0.63637 0.82378 0.10448 0.0
C461 C 0.63651 0.84294 0.11369 0.0
C462 C 0.6418 0.84497 0.12906 0.0
C463 C 0.64704 0.82789 0.13552 0.0
C464 C 0.64826 0.80966 0.12626 0.0
C465 C 0.643 0.80762 0.11093 0.0
C466 C 0.60543 0.76781 0.05808 0.0
C467 C 0.60953 0.75034 0.06501 0.0
C468 C 0.29205 0.87836 0.07533 0.0
C469 C 0.2961 0.87356 0.06074 0.0
C470 C 0.2775 0.8522 0.05192 0.0
C471 C 0.25547 0.83592 0.05755 0.0
H472 H 0.19355 0.76849 0.04682 0.0
H473 H 0.16572 0.7284 0.03253 0.0
H474 H 0.12037 0.70498 0.06885 0.0
H475 H 0.14782 0.74515 0.08307 0.0
H476 H 0.16744 0.77586 0.11346 0.0
H477 H 0.16134 0.78089 0.13929 0.0
H478 H 0.22368 0.85616 0.14407 0.0
H479 H 0.22991 0.8513 0.11802 0.0
H480 H 0.26745 0.86621 0.09229 0.0
H481 H 0.30592 0.89481 0.08235 0.0
H482 H 0.28016 0.8477 0.04071 0.0
H483 H 0.24174 0.81955 0.05041 0.0
N484 N 0.21152 0.80109 0.06975 0.0
N485 N 0.18689 0.78819 0.08936 0.0
N486 N 0.22421 0.82654 0.09238 0.0
C487 C 0.19072 0.78388 0.07522 0.0
C488 C 0.20344 0.80944 0.09801 0.0
C489 C 0.22834 0.82248 0.07822 0.0
C490 C 0.17306 0.76007 0.06615 0.0
C491 C 0.17756 0.7549 0.05175 0.0
C492 C 0.16168 0.73185 0.04357 0.0
C493 C 0.14092 0.71346 0.04958 0.0
C494 C 0.13607 0.71884 0.06383 0.0
C495 C 0.15194 0.74186 0.07202 0.0
C496 C 0.19928 0.81315 0.11363 0.0
C497 C 0.17987 0.79358 0.11993 0.0
C498 C 0.17642 0.79637 0.13478 0.0
C499 C 0.19217 0.81882 0.14371 0.0
C500 C 0.21122 0.83866 0.13741 0.0
C501 C 0.21484 0.83581 0.12251 0.0
C502 C 0.25142 0.84052 0.07218 0.0
C503 C 0.26992 0.86204 0.08099 0.0
C504 C 0.14071 0.42192 0.07543 0.0
C505 C 0.14489 0.4312 0.06153 0.0
C506 C 0.16547 0.43362 0.05473 0.0
C507 C 0.18175 0.42726 0.06177 0.0
H508 H 0.24538 0.42676 0.05718 0.0
H509 H 0.28332 0.43681 0.04632 0.0
H510 H 0.31057 0.41784 0.0854 0.0
H511 H 0.27258 0.40815 0.09653 0.0
H512 H 0.23535 0.38484 0.12199 0.0
H513 H 0.22916 0.37313 0.14725 0.0
H514 H 0.16663 0.38498 0.14657 0.0
H515 H 0.17272 0.39679 0.12155 0.0
H516 H 0.15323 0.4086 0.09321 0.0
H517 H 0.12481 0.4195 0.08085 0.0
H518 H 0.16934 0.44096 0.04409 0.0
H519 H 0.19759 0.42967 0.05627 0.0
N520 N 0.21621 0.41615 0.07733 0.0
N521 N 0.22919 0.4036 0.09826 0.0
N522 N 0.19202 0.40448 0.09719 0.0
C523 C 0.23308 0.41172 0.08458 0.0
C524 C 0.20862 0.3999 0.10462 0.0
C525 C 0.19562 0.41255 0.08354 0.0
C526 C 0.25586 0.41668 0.07778 0.0
C527 C 0.25934 0.42461 0.0635 0.0
C528 C 0.28109 0.43024 0.0572 0.0
C529 C 0.29994 0.42807 0.06498 0.0
C530 C 0.29647 0.41993 0.0792 0.0
C531 C 0.27462 0.41424 0.08553 0.0
C532 C 0.20462 0.39189 0.11973 0.0
C533 C 0.22026 0.38491 0.12722 0.0
C534 C 0.21667 0.37809 0.14165 0.0
C535 C 0.19755 0.37835 0.1489 0.0
C536 C 0.18177 0.385 0.14135 0.0
C537 C 0.18521 0.39162 0.12694 0.0
C538 C 0.1778 0.41831 0.07578 0.0
C539 C 0.15696 0.41553 0.08247 0.0
C540 C 0.36242 0.8983 0.25404 0.0
C541 C 0.36171 0.89714 0.26945 0.0
C542 C 0.38384 0.90408 0.27835 0.0
C543 C 0.40581 0.91096 0.272 0.0
H544 H 0.45694 0.88226 0.2701 0.0
H545 H 0.48534 0.87044 0.28175 0.0
H546 H 0.54556 0.92684 0.26082 0.0
H547 H 0.5171 0.93847 0.24888 0.0
H548 H 0.49662 0.94624 0.21631 0.0
H549 H 0.50469 0.96237 0.1924 0.0
H550 H 0.43482 0.96119 0.18899 0.0
H551 H 0.42635 0.94445 0.21291 0.0
H552 H 0.3845 0.90592 0.23578 0.0
H553 H 0.34575 0.89288 0.24679 0.0
H554 H 0.38429 0.9042 0.29029 0.0
H555 H 0.4224 0.91583 0.27919 0.0
N556 N 0.44609 0.91261 0.25701 0.0
N557 N 0.47208 0.92818 0.23817 0.0
N558 N 0.43419 0.9277 0.2369 0.0
C559 C 0.46739 0.91779 0.25115 0.0
C560 C 0.45559 0.93318 0.23095 0.0
C561 C 0.42948 0.9176 0.25 0.0
C562 C 0.48481 0.91129 0.25857 0.0
C563 C 0.47625 0.89222 0.26801 0.0
C564 C 0.49241 0.88533 0.27461 0.0
C565 C 0.51753 0.89772 0.27212 0.0
C566 C 0.52625 0.91709 0.26292 0.0
C567 C 0.50997 0.92365 0.25606 0.0
C568 C 0.46077 0.94392 0.21657 0.0
C569 C 0.48293 0.94944 0.21054 0.0
C570 C 0.48768 0.9589 0.19684 0.0
C571 C 0.47044 0.96315 0.1888 0.0
C572 C 0.44836 0.95788 0.19485 0.0
C573 C 0.44359 0.9484 0.2086 0.0
C574 C 0.40638 0.91161 0.25661 0.0
C575 C 0.3846 0.90567 0.2477 0.0
C576 C 0.06739 0.44763 0.27068 0.0
C577 C 0.07864 0.45429 0.28537 0.0
C578 C 0.07974 0.47473 0.29364 0.0
C579 C 0.07072 0.48888 0.28721 0.0
H580 H 0.07428 0.5554 0.29478 0.0
H581 H 0.08947 0.59712 0.30705 0.0
H582 H 0.06198 0.61658 0.26829 0.0
H583 H 0.0464 0.5748 0.25606 0.0
H584 H 0.02855 0.53997 0.227 0.0
H585 H 0.02231 0.53734 0.20018 0.0
H586 H 0.03078 0.47239 0.19625 0.0
H587 H 0.03689 0.47477 0.22326 0.0
H588 H 0.05055 0.45668 0.25271 0.0
H589 H 0.06637 0.43201 0.26402 0.0
H590 H 0.0879 0.48003 0.30508 0.0
H591 H 0.07242 0.50483 0.29387 0.0
N592 N 0.05729 0.52096 0.27286 0.0
N593 N 0.04437 0.53254 0.25157 0.0
N594 N 0.04515 0.49513 0.25041 0.0
C595 C 0.05273 0.53745 0.2662 0.0
C596 C 0.04044 0.51144 0.24359 0.0
C597 C 0.05343 0.49969 0.2651 0.0
C598 C 0.05933 0.56175 0.27434 0.0
C599 C 0.07116 0.56842 0.28891 0.0
C600 C 0.08002 0.5924 0.29593 0.0
C601 C 0.07719 0.61023 0.28858 0.0
C602 C 0.06434 0.60323 0.27429 0.0
C603 C 0.05552 0.57927 0.26725 0.0
C604 C 0.03359 0.50778 0.22734 0.0
C605 C 0.02889 0.52494 0.2205 0.0
C606 C 0.02542 0.52354 0.2051 0.0
C607 C 0.02649 0.50493 0.19613 0.0
C608 C 0.02986 0.48694 0.2029 0.0
C609 C 0.03342 0.48837 0.21838 0.0
C610 C 0.06046 0.48298 0.2723 0.0
C611 C 0.05843 0.46186 0.26419 0.0
C612 C 0.53271 0.60723 0.27526 0.0
C613 C 0.52382 0.61817 0.28544 0.0
C614 C 0.49846 0.60506 0.28754 0.0
C615 C 0.48245 0.58183 0.27963 0.0
H616 H 0.42718 0.50398 0.28564 0.0
H617 H 0.38838 0.47747 0.29555 0.0
H618 H 0.35143 0.45056 0.25096 0.0
H619 H 0.39084 0.4764 0.24104 0.0
H620 H 0.43278 0.48144 0.2168 0.0
H621 H 0.44138 0.47464 0.19163 0.0
H622 H 0.51187 0.54341 0.19916 0.0
H623 H 0.50368 0.54997 0.22428 0.0
H624 H 0.5239 0.57643 0.25924 0.0
H625 H 0.55217 0.61639 0.27355 0.0
H626 H 0.4907 0.61297 0.295 0.0
H627 H 0.46298 0.57247 0.28136 0.0
N628 N 0.45225 0.53112 0.26525 0.0
N629 N 0.44046 0.50489 0.24297 0.0
N630 N 0.47875 0.54233 0.24648 0.0
C631 C 0.43553 0.50974 0.25677 0.0
C632 C 0.46216 0.52111 0.23778 0.0
C633 C 0.47386 0.54749 0.26018 0.0
C634 C 0.41202 0.49242 0.26256 0.0
C635 C 0.4108 0.49233 0.27794 0.0
C636 C 0.38844 0.47723 0.28362 0.0
C637 C 0.36656 0.46214 0.27409 0.0
C638 C 0.3679 0.46177 0.25866 0.0
C639 C 0.39046 0.47665 0.25296 0.0
C640 C 0.46749 0.51629 0.22262 0.0
C641 C 0.45019 0.49504 0.21313 0.0
C642 C 0.45504 0.49119 0.19866 0.0
C643 C 0.47732 0.50847 0.19338 0.0
C644 C 0.4947 0.52952 0.20293 0.0
C645 C 0.48988 0.53336 0.21735 0.0
C646 C 0.49125 0.57132 0.26919 0.0
C647 C 0.51655 0.5842 0.26711 0.0
C648 C 0.53259 0.02892 0.04297 0.0
Eu649 Eu 0.51249 0.01402 0.01563 0.0
C650 C 0.52499 0.02324 0.05788 0.0
C651 C 0.53664 0.04203 0.06976 0.0
C652 C 0.52993 0.037 0.08407 0.0
C653 C 0.51142 0.01301 0.08675 0.0
C654 C 0.49952 0.99429 0.07473 0.0
C655 C 0.50622 -0.00062 0.0604 0.0
C656 C 0.49464 0.03667 0.99843 0.0
C657 C 0.45353 0.97157 0.0139 0.0
C658 C 0.46513 0.96963 0.95857 0.0
Eu659 Eu 0.48425 0.98431 0.98608 0.0
C660 C 0.47386 0.97792 0.94422 0.0
C661 C 0.46386 0.96097 0.9314 0.0
C662 C 0.47223 0.96867 0.9177 0.0
C663 C 0.49078 0.99347 0.91665 0.0
C664 C 0.50093 0.01031 0.9296 0.0
C665 C 0.49253 0.00261 0.94326 0.0
C666 C 0.50211 0.96181 0.00342 0.0
C667 C 0.5427 0.02771 0.98765 0.0
O668 O 0.53354 0.01143 0.03472 0.0
O669 O 0.52277 0.03988 0.0356 0.0
O670 O 0.5158 0.04858 0.0066 0.0
O671 O 0.48347 0.01385 0.0003 0.0
O672 O 0.47514 0.98447 0.02218 0.0
O673 O 0.4518 0.97088 -0.00069 0.0
O674 O 0.46162 0.98505 0.96718 0.0
O675 O 0.47638 0.95984 0.96577 0.0
O676 O 0.48078 0.94989 0.99542 0.0
O677 O 0.51333 0.98456 0.00137 0.0
O678 O 0.521 0.0146 0.97954 0.0
O679 O 0.54485 0.02813 0.00221 0.0
H680 H 0.55102 0.06061 0.06797 0.0
H681 H 0.53917 0.05195 0.09302 0.0
H682 H 0.4854 0.97556 0.07642 0.0
H683 H 0.49694 0.98463 0.05134 0.0
H684 H 0.44948 0.94182 0.93197 0.0
H685 H 0.46386 0.95533 0.90791 0.0
H686 H 0.51548 0.02944 0.92919 0.0
H687 H 0.50059 0.01597 0.95305 0.0
C688 C 0.99338 0.52224 0.04158 0.0
Eu689 Eu 0.99307 0.50442 0.01482 0.0
C690 C 0.99843 0.51885 0.05695 0.0
C691 C 0.00132 0.49868 0.06044 0.0
C692 C 0.00592 0.4958 0.07526 0.0
C693 C 0.00788 0.51319 0.08672 0.0
C694 C 0.00503 0.53337 0.08308 0.0
C695 C 0.00035 0.53616 0.06832 0.0
C696 C 0.96369 0.45703 0.00205 0.0
C697 C 0.03286 0.48494 0.01318 0.0
C698 C 0.00749 0.47725 0.95772 0.0
Eu699 Eu 0.0067 0.49329 0.98471 0.0
C700 C 0.00309 0.48217 0.94253 0.0
C701 C 0.02022 0.48524 0.93242 0.0
C702 C 0.01625 0.48942 0.91784 0.0
C703 C 0.99498 0.49046 0.9131 0.0
C704 C 0.97799 0.48774 0.92332 0.0
C705 C 0.98205 0.48371 0.93793 0.0
C706 C 0.03621 0.54042 0.99779 0.0
C707 C 0.96657 0.51243 0.98638 0.0
O708 O 0.01251 0.53212 0.03393 0.0
O709 O 0.97359 0.50368 0.034 0.0
O710 O 0.95565 0.46876 0.01025 0.0
O711 O 0.9868 0.46993 0.00196 0.0
O712 O 0.02484 0.49756 0.02115 0.0
O713 O 0.02516 0.47759 -0.00106 0.0
O714 O 0.98818 0.46647 0.96519 0.0
O715 O 0.02715 0.49513 0.96577 0.0
O716 O 0.04433 0.52843 0.98991 0.0
O717 O 0.01302 0.52776 0.99754 0.0
O718 O 0.9748 0.50007 0.97834 0.0
O719 O 0.97412 0.51958 0.00062 0.0
H720 H -0.0 0.48521 0.05173 0.0
H721 H 0.00823 0.48019 0.07773 0.0
H722 H 0.00606 0.54686 0.09166 0.0
H723 H 0.99811 0.5518 0.06578 0.0
H724 H 0.03656 0.48413 0.93577 0.0
H725 H 0.0295 0.49113 0.91017 0.0
H726 H 0.96156 0.4887 0.92001 0.0
H727 H 0.96864 0.48158 0.94556 0.0
C728 C 0.46408 0.4807 0.95931 0.0
Eu729 Eu 0.4846 0.4941 0.98658 0.0
C730 C 0.47296 0.48351 0.94454 0.0
C731 C 0.46012 0.4877 0.93293 0.0
C732 C 0.46827 0.49036 0.91881 0.0
C733 C 0.48939 0.48877 0.91608 0.0
C734 C 0.5024 0.48487 0.92781 0.0
C735 C 0.4943 0.48232 0.94192 0.0
C736 C 0.50401 0.53988 0.00147 0.0
C737 C 0.54373 0.51205 0.9876 0.0
C738 C 0.53568 0.51567 0.04329 0.0
Eu739 Eu 0.51462 0.50195 0.01613 0.0
C740 C 0.52803 0.5124 0.05838 0.0
C741 C 0.54109 0.50661 0.069 0.0
C742 C 0.5344 0.50364 0.08344 0.0
C743 C 0.51456 0.50654 0.08758 0.0
C744 C 0.5013 0.51206 0.07683 0.0
C745 C 0.50794 0.51491 0.06236 0.0
C746 C 0.4952 0.45613 0.00119 0.0
C747 C 0.45521 0.48325 0.01502 0.0
O748 O 0.46831 0.46621 0.96741 0.0
O749 O 0.46815 0.50119 0.96692 0.0
O750 O 0.48231 0.52832 0.99389 0.0
O751 O 0.51481 0.52743 0.00027 0.0
O752 O 0.52178 0.50116 0.97969 0.0
O753 O 0.54629 0.51738 0.00211 0.0
O754 O 0.52991 0.52948 0.0355 0.0
O755 O 0.53244 0.49569 0.03547 0.0
O756 O 0.51676 0.46754 0.00893 0.0
O757 O 0.4845 0.46866 0.00244 0.0
O758 O 0.47715 0.49444 0.023 0.0
O759 O 0.45293 0.47809 0.0005 0.0
H760 H 0.44367 0.48876 0.93476 0.0
H761 H 0.45773 0.4931 0.90996 0.0
H762 H 0.51891 0.48388 0.92609 0.0
H763 H 0.50465 0.4793 0.95075 0.0
H764 H 0.55653 0.50442 0.06611 0.0
H765 H 0.54474 0.49896 0.09134 0.0
H766 H 0.48612 0.51471 0.07966 0.0
H767 H 0.49751 0.5193 0.05434 0.0
C768 C 0.20045 0.36219 0.37733 0.0
Eu769 Eu 0.18057 0.34749 0.34995 0.0
C770 C 0.19187 0.35783 0.39213 0.0
C771 C 0.20376 0.37707 0.40375 0.0
C772 C 0.19615 0.37319 0.41797 0.0
C773 C 0.17653 0.34991 0.4208 0.0
C774 C 0.16435 0.3308 0.40901 0.0
C775 C 0.17192 0.33474 0.39479 0.0
C776 C 0.16124 0.36964 0.33348 0.0
C777 C 0.12229 0.30329 0.34846 0.0
C778 C 0.13305 0.3044 0.29299 0.0
Eu779 Eu 0.15262 0.31835 0.32046 0.0
C780 C 0.14143 0.31238 0.27853 0.0
C781 C 0.13112 0.29512 0.26585 0.0
C782 C 0.13914 0.3024 0.25203 0.0
C783 C 0.15761 0.32711 0.2507 0.0
C784 C 0.16805 0.3443 0.2635 0.0
C785 C 0.16005 0.33699 0.2773 0.0
C786 C 0.17223 0.2962 0.33676 0.0
C787 C 0.21076 0.36243 0.32206 0.0
O788 O 0.19941 0.34322 0.36951 0.0
O789 O 0.19309 0.3747 0.36947 0.0
O790 O 0.18262 0.38176 0.34139 0.0
O791 O 0.1506 0.34672 0.33512 0.0
O792 O 0.14371 0.31767 0.35666 0.0
O793 O 0.12027 0.30211 0.33385 0.0
O794 O 0.13031 0.32019 0.30177 0.0
O795 O 0.14393 0.29406 0.29996 0.0
O796 O 0.15089 0.28409 0.32878 0.0
O797 O 0.18271 0.31917 0.33523 0.0
O798 O 0.18907 0.3493 0.31394 0.0
O799 O 0.21295 0.36223 0.33657 0.0
H800 H 0.21904 0.39509 0.40185 0.0
H801 H 0.20566 0.38843 0.42673 0.0
H802 H 0.14937 0.31256 0.41083 0.0
H803 H 0.16239 0.31965 0.38594 0.0
H804 H 0.1168 0.27603 0.26663 0.0
H805 H 0.13057 0.28882 0.24235 0.0
H806 H 0.18253 0.36337 0.26285 0.0
H807 H 0.16838 0.35057 0.28698 0.0
C808 C 0.66009 0.85788 0.37555 0.0
Eu809 Eu 0.65858 0.83926 0.34879 0.0
C810 C 0.66458 0.854 0.3909 0.0
C811 C 0.66697 0.8335 0.39427 0.0
C812 C 0.6714 0.83034 0.40905 0.0
C813 C 0.67367 0.84775 0.4206 0.0
C814 C 0.67118 0.8682 0.41707 0.0
C815 C 0.66668 0.87127 0.40235 0.0
C816 C 0.62931 0.79137 0.3368 0.0
C817 C 0.69872 0.82032 0.34641 0.0
C818 C 0.66984 0.8098 0.29126 0.0
Eu819 Eu 0.67065 0.82715 0.31824 0.0
C820 C 0.6664 0.81457 0.27578 0.0
C821 C 0.68705 0.82991 0.26845 0.0
C822 C 0.68405 0.83297 0.2535 0.0
C823 C 0.66035 0.82057 0.24554 0.0
C824 C 0.63966 0.80558 0.25294 0.0
C825 C 0.64265 0.80256 0.26789 0.0
C826 C 0.69955 0.87519 0.3303 0.0
C827 C 0.63003 0.84527 0.32056 0.0
O828 O 0.67926 0.86649 0.3679 0.0
O829 O 0.6397 0.84019 0.36796 0.0
O830 O 0.62153 0.80304 0.34527 0.0
O831 O 0.65225 0.80458 0.33615 0.0
O832 O 0.69112 0.83319 0.35451 0.0
O833 O 0.69005 0.81225 0.33234 0.0
O834 O 0.65039 0.80082 0.2987 0.0
O835 O 0.6902 0.82646 0.29937 0.0
O836 O 0.7076 0.86369 0.32192 0.0
O837 O 0.67666 0.86169 0.33081 0.0
O838 O 0.63734 0.83198 0.31262 0.0
O839 O 0.63915 0.85404 0.33451 0.0
H840 H 0.6655 0.82006 0.38549 0.0
H841 H 0.67343 0.81452 0.41143 0.0
H842 H 0.67245 0.88172 0.42572 0.0
H843 H 0.66483 0.88717 0.3999 0.0
H844 H 0.70564 0.83916 0.27415 0.0
H845 H 0.70038 0.84436 0.24805 0.0
H846 H 0.62114 0.79598 0.24713 0.0
H847 H 0.62637 0.79046 0.27318 0.0
C848 C 0.12698 0.81685 0.29187 0.0
Eu849 Eu 0.14797 0.82805 0.31902 0.0
C850 C 0.13555 0.81812 0.27707 0.0
C851 C 0.12386 0.82341 0.26534 0.0
C852 C 0.13206 0.82509 0.25126 0.0
C853 C 0.15207 0.82146 0.24869 0.0
C854 C 0.16386 0.81635 0.26052 0.0
C855 C 0.1557 0.81474 0.2746 0.0
C856 C 0.16736 0.87279 0.33512 0.0
C857 C 0.20675 0.84513 0.31912 0.0
C858 C 0.19992 0.84607 0.37487 0.0
Eu859 Eu 0.17841 0.834 0.34782 0.0
C860 C 0.19225 0.84229 0.38993 0.0
C861 C 0.20598 0.83734 0.40056 0.0
C862 C 0.19922 0.83389 0.41498 0.0
C863 C 0.17862 0.83545 0.41906 0.0
C864 C 0.16466 0.84007 0.40826 0.0
C865 C 0.17137 0.84338 0.39382 0.0
C866 C 0.15886 0.78896 0.33189 0.0
C867 C 0.11929 0.81628 0.34766 0.0
O868 O 0.12821 0.80059 0.29988 0.0
O869 O 0.13439 0.83832 0.29953 0.0
O870 O 0.14526 0.86125 0.32805 0.0
O871 O 0.17843 0.86077 0.33301 0.0
O872 O 0.18461 0.83448 0.31147 0.0
O873 O 0.20973 0.85015 0.33366 0.0
O874 O 0.19475 0.86073 0.36754 0.0
O875 O 0.19591 0.82614 0.36663 0.0
O876 O 0.18063 0.80021 0.33938 0.0
O877 O 0.148 0.80124 0.33381 0.0
O878 O 0.14126 0.82594 0.35544 0.0
O879 O 0.11651 0.81249 0.33305 0.0
H880 H 0.10835 0.82618 0.26708 0.0
H881 H 0.12244 0.82879 0.24232 0.0
H882 H 0.17953 0.81378 0.25893 0.0
H883 H 0.16515 0.81084 0.28353 0.0
H884 H 0.22201 0.83619 0.39772 0.0
H885 H 0.21012 0.82992 0.42291 0.0
H886 H 0.14886 0.84168 0.41103 0.0
H887 H 0.16038 0.84703 0.38576 0.0
C888 C 0.86862 0.69145 0.71011 0.0
Eu889 Eu 0.8484 0.67777 0.68278 0.0
C890 C 0.86022 0.68782 0.72498 0.0
C891 C 0.87298 0.70714 0.73649 0.0
C892 C 0.86579 0.70382 0.75082 0.0
C893 C 0.84572 0.68101 0.7539 0.0
C894 C 0.83261 0.66187 0.74222 0.0
C895 C 0.83975 0.66526 0.72787 0.0
C896 C 0.83024 0.70104 0.66641 0.0
C897 C 0.7894 0.63511 0.68112 0.0
C898 C 0.80029 0.63538 0.62569 0.0
Eu899 Eu 0.81992 0.64918 0.65313 0.0
C900 C 0.80814 0.64429 0.61131 0.0
C901 C 0.7985 0.62742 0.59846 0.0
C902 C 0.80619 0.63555 0.58473 0.0
C903 C 0.82366 0.66072 0.58366 0.0
C904 C 0.83335 0.67756 0.59663 0.0
C905 C 0.82568 0.6694 0.61034 0.0
C906 C 0.83838 0.62616 0.66955 0.0
C907 C 0.87841 0.69192 0.6548 0.0
O908 O 0.86595 0.67172 0.70223 0.0
O909 O 0.86274 0.70512 0.70232 0.0
O910 O 0.85154 0.7127 0.67444 0.0
O911 O 0.81909 0.67809 0.66795 0.0
O912 O 0.81085 0.64905 0.6894 0.0
O913 O 0.78757 0.63381 0.66651 0.0
O914 O 0.79643 0.65002 0.63476 0.0
O915 O 0.81244 0.62599 0.63233 0.0
O916 O 0.81697 0.61441 0.66165 0.0
O917 O 0.84936 0.64904 0.66787 0.0
O918 O 0.85652 0.68031 0.64679 0.0
O919 O 0.88051 0.69068 0.66922 0.0
H920 H 0.88868 0.72476 0.73441 0.0
H921 H 0.87602 0.71911 0.75948 0.0
H922 H 0.81726 0.64398 0.7442 0.0
H923 H 0.82953 0.65013 0.71912 0.0
H924 H 0.785 0.60796 0.59904 0.0
H925 H 0.79818 0.62221 0.57492 0.0
H926 H 0.84706 0.69699 0.59619 0.0
H927 H 0.83346 0.68268 0.62018 0.0
C928 C 0.32333 0.18934 0.70844 0.0
Eu929 Eu 0.32446 0.17257 0.6817 0.0
C930 C 0.32881 0.18636 0.72383 0.0
C931 C 0.33105 0.16588 0.72748 0.0
C932 C 0.33609 0.16344 0.74232 0.0
C933 C 0.33916 0.18157 0.75363 0.0
C934 C 0.33701 0.20208 0.74982 0.0
C935 C 0.33187 0.20442 0.73505 0.0
C936 C 0.29462 0.1262 0.66779 0.0
C937 C 0.3639 0.15247 0.68061 0.0
C938 C 0.34173 0.14759 0.62497 0.0
Eu939 Eu 0.3397 0.16251 0.65197 0.0
C940 C 0.33733 0.15267 0.60981 0.0
C941 C 0.35563 0.15826 0.60013 0.0
C942 C 0.35186 0.16283 0.58562 0.0
C943 C 0.32961 0.1617 0.58049 0.0
C944 C 0.31139 0.1564 0.59026 0.0
C945 C 0.31525 0.15201 0.60482 0.0
C946 C 0.36901 0.20912 0.66588 0.0
C947 C 0.29991 0.18219 0.65304 0.0
O948 O 0.34243 0.20043 0.70086 0.0
O949 O 0.30425 0.17009 0.70078 0.0
O950 O 0.28656 0.13829 0.67566 0.0
O951 O 0.31793 0.13826 0.66844 0.0
O952 O 0.355 0.16419 0.68861 0.0
O953 O 0.35772 0.14647 0.66618 0.0
O954 O 0.32235 0.13583 0.63227 0.0
O955 O 0.36088 0.16576 0.63322 0.0
O956 O 0.37744 0.19724 0.65817 0.0
O957 O 0.34576 0.19664 0.66507 0.0
O958 O 0.30849 0.17008 0.64509 0.0
O959 O 0.30662 0.18865 0.6674 0.0
H960 H 0.32888 0.15184 0.71889 0.0
H961 H 0.33785 0.14757 0.74492 0.0
H962 H 0.33891 0.21616 0.7583 0.0
H963 H 0.33018 0.22032 0.73238 0.0
H964 H 0.37279 0.15888 0.60378 0.0
H965 H 0.36608 0.16655 0.57829 0.0
H966 H 0.29415 0.15562 0.58663 0.0
H967 H 0.30091 0.14794 0.61211 0.0
C968 C 0.79074 0.13903 0.62363 0.0
Eu969 Eu 0.8125 0.15559 0.65055 0.0
C970 C 0.79808 0.1438 0.60861 0.0
C971 C 0.82151 0.1635 0.60636 0.0
C972 C 0.82847 0.16757 0.592 0.0
C973 C 0.81204 0.15203 0.57967 0.0
C974 C 0.78853 0.13237 0.58204 0.0
C975 C 0.78164 0.1283 0.5964 0.0
C976 C 0.83162 0.20247 0.66378 0.0
C977 C 0.87211 0.17493 0.6514 0.0
C978 C 0.86549 0.18436 0.7071 0.0
Eu979 Eu 0.84373 0.16702 0.68022 0.0
C980 C 0.85792 0.18343 0.72213 0.0
C981 C 0.83393 0.16577 0.72507 0.0
C982 C 0.82698 0.16531 0.73946 0.0
C983 C 0.8439 0.18259 0.75109 0.0
C984 C 0.8679 0.20022 0.74802 0.0
C985 C 0.87482 0.20062 0.73367 0.0
C986 C 0.82481 0.12014 0.66693 0.0
C987 C 0.78414 0.14659 0.67933 0.0
O988 O 0.80051 0.1282 0.63122 0.0
O989 O 0.7907 0.15735 0.63153 0.0
O990 O 0.80975 0.19008 0.65645 0.0
O991 O 0.84267 0.19023 0.66314 0.0
O992 O 0.85006 0.16382 0.64356 0.0
O993 O 0.87492 0.18086 0.66587 0.0
O994 O 0.85955 0.19699 0.69837 0.0
O995 O 0.86173 0.16332 0.7004 0.0
O996 O 0.84645 0.13241 0.67457 0.0
O997 O 0.81378 0.1324 0.66753 0.0
O998 O 0.80631 0.15983 0.68697 0.0
O999 O 0.78161 0.13922 0.66507 0.0
H1000 H 0.83439 0.1757 0.61571 0.0
H1001 H 0.8466 0.18301 0.59055 0.0
H1002 H 0.77559 0.11983 0.57282 0.0
H1003 H 0.76352 0.11293 0.59798 0.0
H1004 H 0.8206 0.1524 0.71625 0.0
H1005 H 0.80828 0.15169 0.74142 0.0
H1006 H 0.88147 0.21355 0.75676 0.0
H1007 H 0.89341 0.21436 0.73157 0.0
H1008 H 0.34361 0.89641 0.07472 0.0
H1009 H 0.40584 0.94751 0.00077 0.0
H1010 H 0.30246 0.88892 0.03293 0.0
H1011 H 0.44853 0.96484 0.04343 0.0
H1012 H 0.3679 0.92545 0.01258 0.0
H1013 H 0.38231 0.92162 0.06381 0.0
C1014 C 0.34269 0.90028 0.06331 0.0
C1015 C 0.31973 0.89035 0.05469 0.0
C1016 C 0.38553 0.9341 0.0194 0.0
C1017 C 0.36392 0.91885 0.0421 0.0
C1018 C 0.40728 0.94666 0.01264 0.0
C1019 C 0.43048 0.95802 0.0211 0.0
C1020 C 0.38686 0.93268 0.03476 0.0
C1021 C 0.43107 0.95634 0.03646 0.0
C1022 C 0.36479 0.91455 0.05707 0.0
C1023 C 0.3197 0.89576 0.03992 0.0
N1024 N 0.40956 0.94382 0.0428 0.0
N1025 N 0.34142 0.9095 0.03409 0.0
H1026 H 0.1271 0.42274 0.03217 0.0
H1027 H 0.05042 0.49353 0.04263 0.0
H1028 H 0.12445 0.45688 0.07435 0.0
H1029 H 0.05332 0.45926 0.00051 0.0
H1030 H 0.07755 0.48036 0.05449 0.0
H1031 H 0.10009 0.4361 0.02038 0.0
C1032 C 0.1209 0.43313 0.03894 0.0
C1033 C 0.12806 0.43872 0.05427 0.0
C1034 C 0.07226 0.47574 0.04265 0.0
C1035 C 0.09697 0.45392 0.04087 0.0
C1036 C 0.05678 0.48329 0.03586 0.0
C1037 C 0.04957 0.4775 0.02054 0.0
C1038 C 0.08059 0.46232 0.03407 0.0
C1039 C 0.05837 0.46413 0.01235 0.0
C1040 C 0.10538 0.44066 0.03222 0.0
C1041 C 0.11915 0.4519 0.06254 0.0
N1042 N 0.0734 0.45701 0.01922 0.0
N1043 N 0.10411 0.45909 0.05573 0.0
H1044 H 0.53995 0.69055 0.02945 0.0
H1045 H 0.55108 0.56812 0.01527 0.0
H1046 H 0.60569 0.68761 0.04336 0.0
H1047 H 0.48472 0.57077 0.0029 0.0
H1048 H 0.57155 0.6119 0.02558 0.0
H1049 H 0.51979 0.64691 0.01921 0.0
C1050 C 0.55025 0.68079 0.03022 0.0
C1051 C 0.5746 0.6928 0.03723 0.0
C1052 C 0.5525 0.60291 0.02064 0.0
C1053 C 0.55143 0.64262 0.02574 0.0
C1054 C 0.5408 0.57793 0.01479 0.0
C1055 C 0.51621 0.56591 0.00824 0.0
C1056 C 0.5395 0.61594 0.01988 0.0
C1057 C 0.50373 0.57941 0.00785 0.0
C1058 C 0.53864 0.65579 0.02448 0.0
C1059 C 0.58683 0.67904 0.03817 0.0
N1060 N 0.51553 0.60375 0.01356 0.0
N1061 N 0.57512 0.65468 0.03248 0.0
H1062 H 0.85456 0.3007 0.98036 0.0
H1063 H 0.97788 0.43143 0.98344 0.0
H1064 H 0.89596 0.32372 0.94229 0.0
H1065 H 0.91529 0.4236 0.00522 0.0
H1066 H 0.95211 0.38869 0.97144 0.0
H1067 H 0.88079 0.34284 0.99285 0.0
C1068 C 0.86902 0.31448 0.97455 0.0
C1069 C 0.87276 0.30844 0.96011 0.0
C1070 C 0.94407 0.3964 0.97884 0.0
C1071 C 0.90336 0.35649 0.97468 0.0
C1072 C 0.95869 0.42073 0.98565 0.0
C1073 C 0.94852 0.43112 0.99513 0.0
C1074 C 0.91935 0.38217 0.98187 0.0
C1075 C 0.92372 0.41631 0.99787 0.0
C1076 C 0.88406 0.33849 0.98177 0.0
C1077 C 0.89245 0.32714 0.95347 0.0
N1078 N 0.90996 0.39245 0.99133 0.0
N1079 N 0.90705 0.35026 0.96083 0.0
H1080 H 0.68552 0.5404 0.96225 0.0
H1081 H 0.54923 0.5198 0.95839 0.0
H1082 H 0.65973 0.57367 0.93044 0.0
H1083 H 0.58914 0.52117 -0.00072 0.0
H1084 H 0.58698 0.53298 0.94603 0.0
H1085 H 0.64763 0.52695 0.97418 0.0
C1086 C 0.67208 0.54513 0.95781 0.0
C1087 C 0.67613 0.55851 0.94534 0.0
C1088 C 0.5874 0.53038 0.95771 0.0
C1089 C 0.63222 0.5423 0.95876 0.0
C1090 C 0.56588 0.52273 0.96474 0.0
C1091 C 0.56611 0.51943 0.97989 0.0
C1092 C 0.60909 0.53427 0.96582 0.0
C1093 C 0.58821 0.52364 0.98761 0.0
C1094 C 0.65035 0.53724 0.96459 0.0
C1095 C 0.65744 0.56321 0.93988 0.0
N1096 N 0.6088 0.5307 0.98046 0.0
N1097 N 0.63626 0.55504 0.9466 0.0
H1098 H 0.4607 0.14529 0.96681 0.0
H1099 H 0.44827 0.0149 0.98349 0.0
H1100 H 0.39725 0.07409 0.94983 0.0
H1101 H 0.51509 0.08611 0.99502 0.0
H1102 H 0.42907 0.03592 0.97106 0.0
H1103 H 0.48059 0.12372 0.97746 0.0
C1104 C 0.4509 0.12508 0.96539 0.0
C1105 C 0.4272 0.11144 0.95752 0.0
C1106 C 0.44798 0.04693 0.97623 0.0
C1107 C 0.44999 0.08658 0.96958 0.0
C1108 C 0.45895 0.03494 0.98329 0.0
C1109 C 0.48327 0.04884 0.99027 0.0
C1110 C 0.46139 0.073 0.97627 0.0
C1111 C 0.49626 0.07474 0.98979 0.0
C1112 C 0.46234 0.11277 0.97138 0.0
C1113 C 0.41558 0.0853 0.95577 0.0
N1114 N 0.48511 0.08601 0.98298 0.0
N1115 N 0.42704 0.07369 0.96183 0.0
H1116 H 0.68599 0.13992 0.96621 0.0
H1117 H 0.54852 0.02349 0.95811 0.0
H1118 H 0.65829 0.08208 0.92946 0.0
H1119 H 0.58813 0.06516 0.00013 0.0
H1120 H 0.58629 0.04781 0.94611 0.0
H1121 H 0.64784 0.11564 0.97749 0.0
C1122 C 0.67203 0.12201 0.96054 0.0
C1123 C 0.67566 0.11293 0.94691 0.0
C1124 C 0.58665 0.05154 0.95796 0.0
C1125 C 0.63146 0.08531 0.95969 0.0
C1126 C 0.56511 0.03778 0.96481 0.0
C1127 C 0.5652 0.04228 0.98016 0.0
C1128 C 0.60826 0.07018 0.96649 0.0
C1129 C 0.58724 0.06096 0.98829 0.0
C1130 C 0.65015 0.10824 0.96698 0.0
C1131 C 0.65635 0.08996 0.93991 0.0
N1132 N 0.60784 0.0743 0.98134 0.0
N1133 N 0.63506 0.07693 0.94638 0.0
H1134 H 0.87465 0.54053 0.92405 0.0
H1135 H 0.94577 0.53735 -0.00054 0.0
H1136 H 0.87189 0.57247 0.96697 0.0
H1137 H 0.94889 0.50453 0.9569 0.0
H1138 H 0.91867 0.55027 0.98756 0.0
H1139 H 0.90217 0.52751 0.93565 0.0
C1140 C 0.87996 0.54494 0.9359 0.0
C1141 C 0.87092 0.55759 0.94456 0.0
C1142 C 0.92524 0.54023 0.9808 0.0
C1143 C 0.90217 0.54251 0.95792 0.0
C1144 C 0.94076 0.53281 0.9876 0.0
C1145 C 0.94968 0.51983 0.97917 0.0
C1146 C 0.91855 0.53468 0.96543 0.0
C1147 C 0.94246 0.51448 0.96384 0.0
C1148 C 0.89554 0.53736 0.94252 0.0
C1149 C 0.87812 0.56248 0.95988 0.0
N1150 N 0.92732 0.52196 0.95745 0.0
N1151 N 0.89331 0.55494 0.96606 0.0
H1152 H 0.39146 0.31 0.95583 0.0
H1153 H 0.51477 0.42557 -0.00077 0.0
H1154 H 0.45632 0.30646 0.97111 0.0
H1155 H 0.44815 0.42799 0.98728 0.0
H1156 H 0.49395 0.38218 0.98821 0.0
H1157 H 0.41214 0.35357 0.96661 0.0
C1158 C 0.41004 0.31839 0.96145 0.0
C1159 C 0.42215 0.30455 0.96261 0.0
C1160 C 0.48387 0.39218 0.98797 0.0
C1161 C 0.4459 0.35433 0.97497 0.0
C1162 C 0.49577 0.41694 0.99424 0.0
C1163 C 0.48312 0.43028 0.99415 0.0
C1164 C 0.45916 0.38072 0.98155 0.0
C1165 C 0.45855 0.41831 0.98754 0.0
C1166 C 0.4218 0.34322 0.96765 0.0
C1167 C 0.44613 0.31629 0.97014 0.0
N1168 N 0.44734 0.39417 0.9815 0.0
N1169 N 0.45723 0.3405 0.97599 0.0
H1170 H 0.09013 0.68463 0.04711 0.0
H1171 H 0.08639 0.56998 -0.00094 0.0
H1172 H 0.15525 0.68514 0.03326 0.0
H1173 H 0.02111 0.56905 0.01289 0.0
H1174 H 0.11187 0.61258 0.01117 0.0
H1175 H 0.06439 0.64261 0.03429 0.0
C1176 C 0.09901 0.6759 0.04139 0.0
C1177 C 0.1249 0.68842 0.04128 0.0
C1178 C 0.09197 0.60309 0.01156 0.0
C1179 C 0.09554 0.64038 0.02651 0.0
C1180 C 0.07745 0.5788 0.00465 0.0
C1181 C 0.05168 0.56607 0.00502 0.0
C1182 C 0.08061 0.6147 0.01889 0.0
C1183 C 0.04097 0.57826 0.0124 0.0
C1184 C 0.0843 0.65195 0.03402 0.0
C1185 C 0.13536 0.67633 0.03349 0.0
N1186 N 0.0555 0.60192 0.01906 0.0
N1187 N 0.12066 0.65297 0.02647 0.0
H1188 H 0.34782 0.45418 0.07841 0.0
H1189 H 0.40717 0.45757 0.00241 0.0
H1190 H 0.30517 0.41728 0.03622 0.0
H1191 H 0.45124 0.48966 0.04477 0.0
H1192 H 0.36972 0.44309 0.01484 0.0
H1193 H 0.386 0.4671 0.0666 0.0
C1194 C 0.34647 0.44858 0.0667 0.0
C1195 C 0.32326 0.43475 0.05827 0.0
C1196 C 0.38756 0.45328 0.02144 0.0
C1197 C 0.36682 0.44977 0.04467 0.0
C1198 C 0.40902 0.46164 0.01434 0.0
C1199 C 0.43246 0.47492 0.02254 0.0
C1200 C 0.38942 0.45824 0.0369 0.0
C1201 C 0.43359 0.47954 0.03799 0.0
C1202 C 0.36827 0.4561 0.05995 0.0
C1203 C 0.32265 0.42829 0.04311 0.0
N1204 N 0.41235 0.47123 0.04467 0.0
N1205 N 0.34407 0.43593 0.0368 0.0
H1206 H 0.5356 0.85284 0.03494 0.0
H1207 H 0.54888 0.98344 0.01781 0.0
H1208 H 0.60069 0.92389 0.0501 0.0
H1209 H 0.4814 0.91251 0.00724 0.0
H1210 H 0.56819 0.96232 0.03001 0.0
H1211 H 0.51555 0.87461 0.02478 0.0
C1212 C 0.54572 0.87306 0.03607 0.0
C1213 C 0.56993 0.88659 0.04326 0.0
C1214 C 0.54912 0.9514 0.02511 0.0
C1215 C 0.54698 0.91169 0.03177 0.0
C1216 C 0.53808 0.96344 0.01818 0.0
C1217 C 0.51355 0.94964 0.01151 0.0
C1218 C 0.53553 0.92536 0.02527 0.0
C1219 C 0.50041 0.92379 0.01221 0.0
C1220 C 0.53419 0.88549 0.03036 0.0
C1221 C 0.58197 0.91276 0.04468 0.0
N1222 N 0.5116 0.91246 0.0189 0.0
N1223 N 0.57042 0.92448 0.0389 0.0
H1224 H 0.98047 0.18843 0.3701 0.0
H1225 H 0.11504 0.30937 0.37755 0.0
H1226 H 0.00347 0.24959 0.40421 0.0
H1227 H 0.07838 0.26319 0.33624 0.0
H1228 H 0.07709 0.28462 0.38934 0.0
H1229 H 0.01924 0.21271 0.35938 0.0
C1230 C 0.99355 0.20703 0.3753 0.0
C1231 C 0.9884 0.21707 0.38799 0.0
C1232 C 0.07744 0.27998 0.3777 0.0
C1233 C 0.03328 0.24473 0.37591 0.0
C1234 C 0.09907 0.29399 0.37098 0.0
C1235 C 0.09982 0.28836 0.35587 0.0
C1236 C 0.05663 0.26 0.3693 0.0
C1237 C 0.07858 0.26829 0.34788 0.0
C1238 C 0.01577 0.22081 0.3692 0.0
C1239 C 0.00661 0.24098 0.39449 0.0
N1240 N 0.05789 0.25477 0.35471 0.0
N1241 N 0.02826 0.25402 0.38837 0.0
H1242 H 0.79078 0.79225 0.40841 0.0
H1243 H 0.71878 0.79473 0.33319 0.0
H1244 H 0.79127 0.75775 0.36579 0.0
H1245 H 0.71749 0.82912 0.37568 0.0
H1246 H 0.74582 0.78159 0.345 0.0
H1247 H 0.76405 0.80605 0.39672 0.0
C1248 C 0.78513 0.78743 0.3966 0.0
C1249 C 0.79325 0.77378 0.38807 0.0
C1250 C 0.73967 0.79204 0.35175 0.0
C1251 C 0.7629 0.78979 0.37458 0.0
C1252 C 0.72421 0.79958 0.34501 0.0
C1253 C 0.71579 0.81304 0.35346 0.0
C1254 C 0.7468 0.79794 0.36708 0.0
C1255 C 0.72353 0.8188 0.36873 0.0
C1256 C 0.77 0.79546 0.38992 0.0
C1257 C 0.7857 0.76846 0.37278 0.0
N1258 N 0.73857 0.81117 0.37506 0.0
N1259 N 0.77094 0.77646 0.36654 0.0
H1260 H 0.26745 0.02938 0.36222 0.0
H1261 H 0.14472 0.89749 0.3456 0.0
H1262 H 0.20428 0.00936 0.38669 0.0
H1263 H 0.21686 0.90576 0.34175 0.0
H1264 H 0.16488 0.9405 0.3575 0.0
H1265 H 0.24779 0.98581 0.35114 0.0
C1266 C 0.24943 0.01577 0.3652 0.0
C1267 C 0.23741 0.02275 0.37536 0.0
C1268 C 0.17624 0.93282 0.35409 0.0
C1269 C 0.21486 0.97341 0.3627 0.0
C1270 C 0.16479 0.9084 0.34728 0.0
C1271 C 0.17921 0.89822 0.34272 0.0
C1272 C 0.20225 0.94724 0.35601 0.0
C1273 C 0.20514 0.913 0.34516 0.0
C1274 C 0.23833 0.99101 0.35897 0.0
C1275 C 0.21414 0.00455 0.37895 0.0
N1276 N 0.21589 0.93693 0.35152 0.0
N1277 N 0.20348 0.9807 0.37252 0.0
H1278 H 0.56393 0.65819 0.27564 0.0
H1279 H 0.58132 0.75781 0.34067 0.0
H1280 H 0.52224 0.63623 0.31364 0.0
H1281 H 0.64272 0.76608 0.31738 0.0
H1282 H 0.55614 0.71489 0.32867 0.0
H1283 H 0.59035 0.69976 0.28872 0.0
C1284 C 0.56041 0.66188 0.28677 0.0
C1285 C 0.54066 0.64343 0.29348 0.0
C1286 C 0.57515 0.72615 0.32624 0.0
C1287 C 0.57048 0.69143 0.30827 0.0
C1288 C 0.58945 0.75059 0.33301 0.0
C1289 C 0.61402 0.76548 0.32989 0.0
C1290 C 0.58539 0.71683 0.31608 0.0
C1291 C 0.62375 0.75526 0.31995 0.0
C1292 C 0.57545 0.68573 0.29417 0.0
C1293 C 0.53681 0.64983 0.30782 0.0
N1294 N 0.60932 0.73161 0.31327 0.0
N1295 N 0.55143 0.67335 0.31467 0.0
H1296 H 0.34655 0.86933 0.29301 0.0
H1297 H 0.21175 0.85262 0.2898 0.0
H1298 H 0.32244 0.90422 0.26142 0.0
H1299 H 0.25191 0.85327 0.33038 0.0
H1300 H 0.24907 0.86467 0.27709 0.0
H1301 H 0.30863 0.85642 0.30478 0.0
C1302 C 0.33345 0.87449 0.28858 0.0
C1303 C 0.33804 0.88829 0.27628 0.0
C1304 C 0.24961 0.86217 0.28878 0.0
C1305 C 0.29408 0.87273 0.28952 0.0
C1306 C 0.22836 0.85519 0.29601 0.0
C1307 C 0.22881 0.85202 0.31118 0.0
C1308 C 0.2712 0.86546 0.29672 0.0
C1309 C 0.25082 0.85568 0.31871 0.0
C1310 C 0.3117 0.86693 0.29527 0.0
C1311 C 0.31974 0.8935 0.27078 0.0
N1312 N 0.2711 0.86206 0.31138 0.0
N1313 N 0.29853 0.88569 0.27743 0.0
H1314 H 0.06052 0.40367 0.28378 0.0
H1315 H 0.1815 0.41894 0.33005 0.0
H1316 H 0.12378 0.47448 0.30155 0.0
H1317 H 0.11445 0.34781 0.31888 0.0
H1318 H 0.16154 0.43921 0.31772 0.0
H1319 H 0.08085 0.38239 0.2947 0.0
C1320 C 0.07869 0.41472 0.28994 0.0
C1321 C 0.0904 0.44087 0.29186 0.0
C1322 C 0.15117 0.41916 0.31792 0.0
C1323 C 0.11372 0.41674 0.30432 0.0
C1324 C 0.16257 0.40759 0.32494 0.0
C1325 C 0.14955 0.38171 0.32549 0.0
C1326 C 0.12655 0.40473 0.31136 0.0
C1327 C 0.12512 0.36784 0.31865 0.0
C1328 C 0.09023 0.40258 0.29621 0.0
C1329 C 0.11389 0.45428 0.30001 0.0
N1330 N 0.11435 0.37954 0.31187 0.0
N1331 N 0.12476 0.44208 0.30591 0.0
H1332 H 0.32725 0.41545 0.26363 0.0
H1333 H 0.25525 0.40103 0.33471 0.0
H1334 H 0.35067 0.4752 0.29878 0.0
H1335 H 0.21741 0.35819 0.29267 0.0
H1336 H 0.29251 0.42555 0.32252 0.0
H1337 H 0.28845 0.3915 0.27472 0.0
C1338 C 0.32426 0.42365 0.27359 0.0
C1339 C 0.34251 0.44737 0.28033 0.0
C1340 C 0.27602 0.41083 0.31596 0.0
C1341 C 0.29839 0.41978 0.2932 0.0
C1342 C 0.25479 0.39676 0.32292 0.0
C1343 C 0.23322 0.37754 0.31469 0.0
C1344 C 0.27585 0.40541 0.30071 0.0
C1345 C 0.23365 0.37291 0.29941 0.0
C1346 C 0.30214 0.4099 0.27993 0.0
C1347 C 0.33757 0.45679 0.29337 0.0
N1348 N 0.25473 0.38664 0.29291 0.0
N1349 N 0.31612 0.4429 0.29942 0.0
H1350 H 0.56178 0.92754 0.28891 0.0
H1351 H 0.5974 0.82193 0.29561 0.0
H1352 H 0.51172 0.85112 0.27109 0.0
H1353 H 0.62413 0.88481 0.32893 0.0
H1354 H 0.56984 0.83467 0.28356 0.0
H1355 H 0.58933 0.91458 0.30078 0.0
C1356 C 0.55672 0.90807 0.28746 0.0
C1357 C 0.53452 0.89031 0.27909 0.0
C1358 C 0.58172 0.84558 0.29353 0.0
C1359 C 0.56582 0.87548 0.29242 0.0
C1360 C 0.59746 0.8384 0.30037 0.0
C1361 C 0.61296 0.8523 0.3133 0.0
C1362 C 0.58192 0.86709 0.2995 0.0
C1363 C 0.61232 0.87346 0.31904 0.0
C1364 C 0.5723 0.90069 0.29427 0.0
C1365 C 0.52864 0.86529 0.27757 0.0
N1366 N 0.59719 0.88033 0.31203 0.0
N1367 N 0.5443 0.8586 0.2841 0.0
H1368 H 0.12335 0.63871 0.30366 0.0
H1369 H 0.11135 0.76052 0.31856 0.0
H1370 H 0.05794 0.64158 0.28878 0.0
H1371 H 0.17851 0.75855 0.32944 0.0
H1372 H 0.09098 0.71682 0.30797 0.0
H1373 H 0.14316 0.68226 0.31398 0.0
C1374 C 0.11304 0.64843 0.3027 0.0
C1375 C 0.08889 0.63643 0.2954 0.0
C1376 C 0.11019 0.72597 0.31264 0.0
C1377 C 0.11166 0.68653 0.30701 0.0
C1378 C 0.12182 0.7509 0.31864 0.0
C1379 C 0.14661 0.76307 0.32487 0.0
C1380 C 0.12346 0.71317 0.31295 0.0
C1381 C 0.15934 0.7498 0.32476 0.0
C1382 C 0.12446 0.67339 0.30849 0.0
C1383 C 0.07665 0.65016 0.29422 0.0
N1384 N 0.14759 0.72554 0.31894 0.0
N1385 N 0.08816 0.67448 0.29999 0.0
H1386 H 0.80899 0.03102 0.35353 0.0
H1387 H 0.68499 0.9002 0.3491 0.0
H1388 H 0.76556 0.00766 0.39075 0.0
H1389 H 0.74783 0.90906 0.32719 0.0
H1390 H 0.71049 0.94274 0.36141 0.0
H1391 H 0.78284 0.98918 0.34065 0.0
C1392 C 0.79409 0.0172 0.35907 0.0
C1393 C 0.78976 0.02304 0.37339 0.0
C1394 C 0.71864 0.93532 0.35391 0.0
C1395 C 0.75929 0.97533 0.35839 0.0
C1396 C 0.70417 0.91109 0.34691 0.0
C1397 C 0.7145 0.90105 0.33732 0.0
C1398 C 0.74339 0.94977 0.35096 0.0
C1399 C 0.73928 0.9161 0.33463 0.0
C1400 C 0.77911 0.99336 0.35163 0.0
C1401 C 0.76954 0.00435 0.37969 0.0
N1402 N 0.75291 0.93982 0.34138 0.0
N1403 N 0.75503 0.98138 0.37213 0.0
H1404 H 0.97756 0.78811 0.37259 0.0
H1405 H 0.11362 0.80739 0.37679 0.0
H1406 H 0.00306 0.75541 0.40496 0.0
H1407 H 0.07432 0.80852 0.33632 0.0
H1408 H 0.07587 0.79435 0.3892 0.0
H1409 H 0.01566 0.80157 0.36094 0.0
C1410 C 0.991 0.7835 0.3772 0.0
C1411 C 0.98681 0.77027 0.38972 0.0
C1412 C 0.0756 0.79746 0.3776 0.0
C1413 C 0.03095 0.78643 0.37661 0.0
C1414 C 0.09711 0.805 0.37054 0.0
C1415 C 0.09704 0.80895 0.35549 0.0
C1416 C 0.05412 0.79433 0.36961 0.0
C1417 C 0.07514 0.80551 0.34791 0.0
C1418 C 0.01286 0.79139 0.37058 0.0
C1419 C 0.00547 0.76572 0.39543 0.0
N1420 N 0.0546 0.79852 0.35507 0.0
N1421 N 0.02677 0.77384 0.38884 0.0
H1422 H 0.25527 0.25 0.39323 0.0
H1423 H 0.15737 0.24675 0.33362 0.0
H1424 H 0.23271 0.20217 0.35192 0.0
H1425 H 0.21613 0.31784 0.35472 0.0
H1426 H 0.17937 0.22671 0.34389 0.0
H1427 H 0.23658 0.27277 0.38252 0.0
C1428 C 0.24672 0.24437 0.38189 0.0
C1429 C 0.24546 0.22381 0.37356 0.0
C1430 C 0.18735 0.24669 0.34628 0.0
C1431 C 0.22325 0.24931 0.36158 0.0
C1432 C 0.17479 0.25811 0.34052 0.0
C1433 C 0.18492 0.28396 0.34343 0.0
C1434 C 0.20985 0.26114 0.35529 0.0
C1435 C 0.2076 0.29782 0.35237 0.0
C1436 C 0.23592 0.25733 0.37587 0.0
C1437 C 0.23359 0.2173 0.359 0.0
N1438 N 0.21927 0.28619 0.35814 0.0
N1439 N 0.22265 0.22976 0.35356 0.0
H1440 H 0.64355 0.5263 0.70111 0.0
H1441 H 0.7822 0.64114 0.71027 0.0
H1442 H 0.67071 0.5856 0.73695 0.0
H1443 H 0.74456 0.59691 0.66853 0.0
H1444 H 0.74355 0.61802 0.72171 0.0
H1445 H 0.68255 0.54926 0.69041 0.0
C1446 C 0.65757 0.54427 0.70669 0.0
C1447 C 0.65358 0.5541 0.71991 0.0
C1448 C 0.74383 0.61345 0.71005 0.0
C1449 C 0.69873 0.58022 0.70783 0.0
C1450 C 0.76588 0.62652 0.70353 0.0
C1451 C 0.76658 0.62099 0.6884 0.0
C1452 C 0.72252 0.5945 0.70143 0.0
C1453 C 0.74485 0.60192 0.6802 0.0
C1454 C 0.67994 0.55728 0.7006 0.0
C1455 C 0.67293 0.57714 0.72683 0.0
N1456 N 0.72375 0.58932 0.68683 0.0
N1457 N 0.69469 0.58941 0.72071 0.0
H1458 H 0.48246 0.12334 0.70341 0.0
H1459 H 0.36918 0.14652 0.71001 0.0
H1460 H 0.43291 0.09399 0.73741 0.0
H1461 H 0.39637 0.1415 0.6681 0.0
H1462 H 0.39663 0.13348 0.72186 0.0
H1463 H 0.45483 0.13594 0.69172 0.0
C1464 C 0.46572 0.11931 0.70839 0.0
C1465 C 0.46007 0.10743 0.72144 0.0
C1466 C 0.3965 0.13523 0.71007 0.0
C1467 C 0.42876 0.1226 0.70827 0.0
C1468 C 0.38098 0.14277 0.70332 0.0
C1469 C 0.38048 0.145 0.68805 0.0
C1470 C 0.41193 0.13041 0.70152 0.0
C1471 C 0.39606 0.13984 0.67989 0.0
C1472 C 0.45005 0.1267 0.70173 0.0
C1473 C 0.43835 0.10343 0.72752 0.0
N1474 N 0.41128 0.13293 0.68675 0.0
N1475 N 0.42356 0.11112 0.72093 0.0
H1476 H 0.93221 0.35869 0.69276 0.0
H1477 H 0.80843 0.22812 0.67162 0.0
H1478 H 0.86572 0.33915 0.71372 0.0
H1479 H 0.88077 0.23537 0.6715 0.0
H1480 H 0.82808 0.27136 0.68316 0.0
H1481 H 0.91247 0.31566 0.68073 0.0
C1482 C 0.91343 0.34532 0.69474 0.0
C1483 C 0.90052 0.35224 0.70423 0.0
C1484 C 0.83959 0.26342 0.68059 0.0
C1485 C 0.87789 0.30353 0.6905 0.0
C1486 C 0.82844 0.23888 0.67399 0.0
C1487 C 0.84306 0.22832 0.67066 0.0
C1488 C 0.86553 0.27752 0.68356 0.0
C1489 C 0.86889 0.24291 0.67396 0.0
C1490 C 0.90226 0.32087 0.68797 0.0
C1491 C 0.87627 0.33435 0.70653 0.0
N1492 N 0.87936 0.2669 0.68014 0.0
N1493 N 0.86563 0.3108 0.69962 0.0
H1494 H 0.2385 0.98225 0.61745 0.0
H1495 H 0.24421 0.09799 0.66548 0.0
H1496 H 0.17382 0.98401 0.63005 0.0
H1497 H 0.30912 0.09707 0.65261 0.0
H1498 H 0.21814 0.05599 0.65269 0.0
H1499 H 0.26477 0.02417 0.63033 0.0
C1500 C 0.22981 0.99148 0.62289 0.0
C1501 C 0.2039 0.97957 0.62267 0.0
C1502 C 0.23808 0.06494 0.65265 0.0
C1503 C 0.23387 0.02748 0.63753 0.0
C1504 C 0.25295 0.0889 0.65995 0.0
C1505 C 0.2788 0.10093 0.66008 0.0
C1506 C 0.24917 0.05294 0.64542 0.0
C1507 C 0.28922 0.0884 0.65274 0.0
C1508 C 0.24483 0.01536 0.63029 0.0
C1509 C 0.1937 0.9923 0.63009 0.0
N1510 N 0.27436 0.06506 0.6457 0.0
N1511 N 0.2087 0.01555 0.63718 0.0
H1512 H 0.0139 0.20238 0.62664 0.0
H1513 H 0.8777 0.18212 0.6221 0.0
H1514 H 0.98918 0.23677 0.59502 0.0
H1515 H 0.91729 0.18376 0.66318 0.0
H1516 H 0.91558 0.19509 0.60986 0.0
H1517 H 0.97561 0.18856 0.63817 0.0
C1518 C 0.0006 0.20725 0.62215 0.0
C1519 C 0.00509 0.2211 0.60988 0.0
C1520 C 0.91587 0.19258 0.62155 0.0
C1521 C 0.96072 0.20446 0.62283 0.0
C1522 C 0.89429 0.18507 0.62851 0.0
C1523 C 0.89442 0.18196 0.64369 0.0
C1524 C 0.93749 0.19645 0.62976 0.0
C1525 C 0.91645 0.18611 0.65149 0.0
C1526 C 0.97864 0.19915 0.62871 0.0
C1527 C 0.98656 0.22596 0.60433 0.0
N1528 N 0.93707 0.19301 0.64441 0.0
N1529 N 0.96515 0.21759 0.61082 0.0
H1530 H 0.73149 0.73647 0.616 0.0
H1531 H 0.85143 0.75047 0.66289 0.0
H1532 H 0.79493 0.80706 0.6339 0.0
H1533 H 0.7838 0.67989 0.65158 0.0
H1534 H 0.83219 0.77119 0.65024 0.0
H1535 H 0.75155 0.71496 0.62691 0.0
C1536 C 0.74966 0.74742 0.62217 0.0
C1537 C 0.76149 0.77357 0.62416 0.0
C1538 C 0.82156 0.75115 0.65047 0.0
C1539 C 0.7845 0.74919 0.63662 0.0
C1540 C 0.83255 0.73934 0.65767 0.0
C1541 C 0.81914 0.71348 0.65827 0.0
C1542 C 0.79699 0.73698 0.64379 0.0
C1543 C 0.79478 0.69989 0.65131 0.0
C1544 C 0.76105 0.73516 0.62844 0.0
C1545 C 0.78497 0.78686 0.63231 0.0
N1546 N 0.78443 0.71181 0.64436 0.0
N1547 N 0.79569 0.77454 0.63823 0.0
H1548 H 0.98527 0.76832 0.59258 0.0
H1549 H 0.92647 0.7164 0.66743 0.0
H1550 H 0.0282 0.78101 0.63455 0.0
H1551 H 0.88232 0.70007 0.62542 0.0
H1552 H 0.96386 0.73981 0.65529 0.0
H1553 H 0.94732 0.74244 0.60403 0.0
C1554 C 0.98674 0.76549 0.60416 0.0
C1555 C 0.00995 0.777 0.61265 0.0
C1556 C 0.94602 0.7311 0.64869 0.0
C1557 C 0.96663 0.74768 0.62584 0.0
C1558 C 0.9246 0.71774 0.65564 0.0
C1559 C 0.90116 0.70627 0.64745 0.0
C1560 C 0.9441 0.73313 0.63342 0.0
C1561 C 0.89998 0.70863 0.63218 0.0
C1562 C 0.96507 0.75084 0.61071 0.0
C1563 C 0.01071 0.77288 0.62764 0.0
N1564 N 0.92117 0.72185 0.62566 0.0
N1565 N 0.9894 0.75865 0.63375 0.0
H1566 H 0.20826 0.20994 0.59025 0.0
H1567 H 0.27876 0.20686 0.66594 0.0
H1568 H 0.20361 0.24013 0.63325 0.0
H1569 H 0.28323 0.17497 0.62342 0.0
H1570 H 0.25163 0.21958 0.65389 0.0
H1571 H 0.2364 0.1977 0.60191 0.0
C1572 C 0.21328 0.21414 0.60213 0.0
C1573 C 0.20353 0.22604 0.6108 0.0
C1574 C 0.25851 0.2098 0.64716 0.0
C1575 C 0.23549 0.21188 0.62421 0.0
C1576 C 0.27405 0.20251 0.65405 0.0
C1577 C 0.28332 0.1898 0.64569 0.0
C1578 C 0.25212 0.2044 0.63177 0.0
C1579 C 0.27651 0.1847 0.63031 0.0
C1580 C 0.22922 0.20701 0.60878 0.0
C1581 C 0.2104 0.23069 0.62616 0.0
N1582 N 0.2613 0.19203 0.62383 0.0
N1583 N 0.22594 0.22361 0.63236 0.0
H1584 H 0.79217 0.97036 0.63919 0.0
H1585 H 0.77827 0.09127 0.6526 0.0
H1586 H 0.72684 0.97279 0.62352 0.0
H1587 H 0.8447 0.08971 0.66657 0.0
H1588 H 0.75875 0.0476 0.64231 0.0
H1589 H 0.81112 0.01359 0.65008 0.0
C1590 C 0.78169 0.9799 0.63818 0.0
C1591 C 0.75785 0.96791 0.63044 0.0
C1592 C 0.7776 0.05678 0.64762 0.0
C1593 C 0.77962 0.01758 0.6427 0.0
C1594 C 0.78875 0.0817 0.65347 0.0
C1595 C 0.81311 0.09402 0.66042 0.0
C1596 C 0.7909 0.04409 0.64877 0.0
C1597 C 0.82587 0.08082 0.66129 0.0
C1598 C 0.79261 0.00466 0.6443 0.0
C1599 C 0.74535 0.98138 0.62924 0.0
N1600 N 0.81459 0.05653 0.65554 0.0
N1601 N 0.75639 0.00549 0.6353 0.0
H1602 H 0.48952 0.35615 0.69923 0.0
H1603 H 0.35301 0.23749 0.68026 0.0
H1604 H 0.42359 0.3535 0.71337 0.0
H1605 H 0.41926 0.23924 0.6676 0.0
H1606 H 0.37841 0.2804 0.6919 0.0
H1607 H 0.46389 0.31397 0.68671 0.0
C1608 C 0.46961 0.3468 0.69957 0.0
C1609 C 0.45869 0.3584 0.70736 0.0
C1610 C 0.38742 0.27143 0.68658 0.0
C1611 C 0.42925 0.3099 0.69323 0.0
C1612 C 0.37294 0.24694 0.67996 0.0
C1613 C 0.38413 0.23488 0.67301 0.0
C1614 C 0.41326 0.28394 0.6862 0.0
C1615 C 0.40995 0.24792 0.67287 0.0
C1616 C 0.45501 0.32262 0.69252 0.0
C1617 C 0.43284 0.34518 0.70765 0.0
N1618 N 0.42367 0.27178 0.67937 0.0
N1619 N 0.41901 0.32163 0.7007 0.0
H1620 H 0.63251 0.07709 0.70035 0.0
H1621 H 0.78105 0.15691 0.70873 0.0
H1622 H 0.67656 0.11913 0.7413 0.0
H1623 H 0.73581 0.11741 0.66759 0.0
H1624 H 0.74331 0.14222 0.72119 0.0
H1625 H 0.67053 0.09042 0.68851 0.0
C1626 C 0.6502 0.08915 0.70685 0.0
C1627 C 0.65134 0.09712 0.72182 0.0
C1628 C 0.74168 0.13679 0.70944 0.0
C1629 C 0.69504 0.11239 0.70834 0.0
C1630 C 0.76322 0.14519 0.70231 0.0
C1631 C 0.76162 0.13841 0.68708 0.0
C1632 C 0.7184 0.1215 0.70128 0.0
C1633 C 0.73799 0.12316 0.67934 0.0
C1634 C 0.67192 0.09669 0.7001 0.0
C1635 C 0.67481 0.11236 0.72977 0.0
N1636 N 0.71736 0.11524 0.68652 0.0
N1637 N 0.69574 0.1196 0.72291 0.0
H1638 H 0.87482 0.51676 0.69672 0.0
H1639 H 0.88516 0.64775 0.68391 0.0
H1640 H 0.93816 0.58768 0.71427 0.0
H1641 H 0.81888 0.5764 0.67153 0.0
H1642 H 0.90537 0.62641 0.69477 0.0
H1643 H 0.85475 0.53857 0.68668 0.0
C1644 C 0.88461 0.53697 0.69834 0.0
C1645 C 0.90828 0.55044 0.70626 0.0
C1646 C 0.88637 0.61544 0.68974 0.0
C1647 C 0.88521 0.57557 0.69497 0.0
C1648 C 0.87483 0.6276 0.68358 0.0
C1649 C 0.85035 0.61376 0.67683 0.0
C1650 C 0.87335 0.58926 0.68904 0.0
C1651 C 0.8378 0.58773 0.67662 0.0
C1652 C 0.87304 0.54941 0.69271 0.0
C1653 C 0.91985 0.57658 0.70829 0.0
N1654 N 0.84949 0.5763 0.68258 0.0
N1655 N 0.90823 0.58831 0.70264 0.0
H1656 H 0.43776 0.9483 0.16364 0.0
H1657 H 0.54301 0.02923 0.11239 0.0
H1658 H 0.51438 0.99909 0.18018 0.0
H1659 H 0.46542 0.9839 0.0961 0.0
H1660 H 0.5325 0.01913 0.13741 0.0
H1661 H 0.44705 0.96198 0.13898 0.0
C1662 C 0.45648 0.96253 0.16213 0.0
C1663 C 0.47536 0.97243 0.17399 0.0
C1664 C 0.51774 0.01147 0.12838 0.0
C1665 C 0.48619 0.9879 0.14574 0.0
C1666 C 0.52371 0.01734 0.11408 0.0
C1667 C 0.50508 0.00741 0.10208 0.0
C1668 C 0.49294 0.99542 0.13076 0.0
C1669 C 0.48045 0.99171 0.10496 0.0
C1670 C 0.4618 0.97022 0.14803 0.0
C1671 C 0.49933 0.9906 0.17132 0.0
N1672 N 0.4751 0.98614 0.119 0.0
N1673 N 0.50408 0.99764 0.15748 0.0
H1674 H 0.0506 0.54521 0.18078 0.0
H1675 H 0.98706 0.47056 0.10088 0.0
H1676 H 0.00035 0.4656 0.17437 0.0
H1677 H 0.03962 0.54959 0.10845 0.0
H1678 H 0.99315 0.46742 0.12741 0.0
H1679 H 0.04792 0.54639 0.15404 0.0
C1680 C 0.03888 0.52796 0.17372 0.0
C1681 C 0.02542 0.50532 0.17981 0.0
C1682 C 0.00345 0.4854 0.12323 0.0
C1683 C 0.02241 0.50646 0.14906 0.0
C1684 C 8e-05 0.48718 0.10809 0.0
C1685 C 0.01268 0.51043 0.10249 0.0
C1686 C 0.01953 0.50702 0.13279 0.0
C1687 C 0.02917 0.53139 0.11234 0.0
C1688 C 0.03748 0.5286 0.15842 0.0
C1689 C 0.01103 0.48345 0.17011 0.0
N1690 N 0.03201 0.5292 0.12699 0.0
N1691 N 0.00974 0.48457 0.15519 0.0
H1692 H 0.52121 0.51739 0.18332 0.0
H1693 H 0.46828 0.48533 0.09749 0.0
H1694 H 0.4448 0.49202 0.16802 0.0
H1695 H 0.54627 0.52307 0.11322 0.0
H1696 H 0.45854 0.48356 0.12321 0.0
H1697 H 0.52986 0.51511 0.15762 0.0
C1698 C 0.50623 0.51133 0.17456 0.0
C1699 C 0.48229 0.50513 0.17785 0.0
C1700 C 0.47777 0.49214 0.12101 0.0
C1701 C 0.49203 0.50225 0.14835 0.0
C1702 C 0.48337 0.49329 0.10632 0.0
C1703 C 0.50816 0.50444 0.10314 0.0
C1704 C 0.49709 0.50214 0.13261 0.0
C1705 C 0.52688 0.514 0.11509 0.0
C1706 C 0.51117 0.50995 0.15988 0.0
C1707 C 0.4635 0.49684 0.16603 0.0
N1708 N 0.52096 0.51267 0.12926 0.0
N1709 N 0.4688 0.49577 0.1518 0.0
H1710 H 0.00748 0.52735 0.82224 0.0
H1711 H 0.95112 0.46448 0.89534 0.0
H1712 H 0.93796 0.45865 0.822 0.0
H1713 H 0.02748 0.52222 0.89503 0.0
H1714 H 0.94383 0.46669 0.86891 0.0
H1715 H 0.01302 0.53008 0.84942 0.0
C1716 C 0.99332 0.51298 0.82793 0.0
C1717 C 0.97237 0.49261 0.81991 0.0
C1718 C 0.96215 0.47899 0.87464 0.0
C1719 C 0.97849 0.4956 0.85082 0.0
C1720 C 0.96627 0.47786 0.88974 0.0
C1721 C 0.98997 0.4931 0.89736 0.0
C1722 C 0.98184 0.49554 0.86708 0.0
C1723 C 0.00901 0.5099 0.88951 0.0
C1724 C 0.99652 0.51448 0.84339 0.0
C1725 C 0.95458 0.47444 0.82777 0.0
N1726 N 0.00455 0.51062 0.87477 0.0
N1727 N 0.95806 0.47635 0.84278 0.0
H1728 H 0.52334 0.45292 0.83065 0.0
H1729 H 0.49252 0.52153 0.89621 0.0
H1730 H 0.52559 0.52298 0.82722 0.0
H1731 H 0.50412 0.45937 0.90147 0.0
H1732 H 0.50395 0.52232 0.87085 0.0
H1733 H 0.51577 0.45489 0.8566 0.0
C1734 C 0.52225 0.46874 0.8354 0.0
C1735 C 0.52492 0.48774 0.82677 0.0
C1736 C 0.50415 0.50862 0.87759 0.0
C1737 C 0.51627 0.49015 0.85649 0.0
C1738 C 0.49749 0.50807 0.89203 0.0
C1739 C 0.49732 0.49032 0.90094 0.0
C1740 C 0.51043 0.49113 0.872 0.0
C1741 C 0.50422 0.47352 0.89503 0.0
C1742 C 0.51805 0.46993 0.85023 0.0
C1743 C 0.52372 0.508 0.83352 0.0
N1744 N 0.51033 0.47424 0.88092 0.0
N1745 N 0.51927 0.50859 0.84797 0.0
H1746 H 0.52722 0.07393 0.83935 0.0
H1747 H 0.50009 0.96894 0.89396 0.0
H1748 H 0.53026 0.00733 0.8271 0.0
H1749 H 0.50017 0.0373 0.90609 0.0
H1750 H 0.51237 0.98297 0.86968 0.0
H1751 H 0.51884 0.06131 0.86422 0.0
C1752 C 0.52613 0.05663 0.84192 0.0
C1753 C 0.52922 0.04155 0.83112 0.0
C1754 C 0.50982 0.99494 0.87769 0.0
C1755 C 0.51971 0.02696 0.85961 0.0
C1756 C 0.50267 0.98688 0.89151 0.0
C1757 C 0.49904 0.00195 0.90206 0.0
C1758 C 0.51326 0.01818 0.87437 0.0
C1759 C 0.50301 0.02519 0.89837 0.0
C1760 C 0.52144 0.04947 0.85613 0.0
C1761 C 0.52808 0.01955 0.83512 0.0
N1762 N 0.50979 0.03252 0.88483 0.0
N1763 N 0.52323 0.01281 0.84903 0.0
H1764 H 0.18015 0.33883 0.51509 0.0
H1765 H 0.12979 0.32307 0.4297 0.0
H1766 H 0.10447 0.28675 0.49731 0.0
H1767 H 0.2072 0.36596 0.44681 0.0
H1768 H 0.11911 0.31344 0.45486 0.0
H1769 H 0.18921 0.35313 0.49061 0.0
C1770 C 0.16541 0.33043 0.50603 0.0
C1771 C 0.14159 0.31134 0.50821 0.0
C1772 C 0.13841 0.32508 0.45309 0.0
C1773 C 0.1518 0.32776 0.48015 0.0
C1774 C 0.14454 0.33049 0.43873 0.0
C1775 C 0.16946 0.34524 0.4361 0.0
C1776 C 0.15731 0.33452 0.46492 0.0
C1777 C 0.18773 0.35475 0.44829 0.0
C1778 C 0.17058 0.33866 0.49207 0.0
C1779 C 0.12307 0.30156 0.49615 0.0
N1780 N 0.18129 0.34913 0.46214 0.0
N1781 N 0.12862 0.30975 0.4826 0.0
H1782 H 0.71877 0.8789 0.51444 0.0
H1783 H 0.65268 0.80504 0.4347 0.0
H1784 H 0.6681 0.79938 0.50798 0.0
H1785 H 0.70594 0.8839 0.44228 0.0
H1786 H 0.65932 0.80166 0.46114 0.0
H1787 H 0.71522 0.88032 0.48774 0.0
C1788 C 0.70678 0.86172 0.50737 0.0
C1789 C 0.69345 0.83904 0.51344 0.0
C1790 C 0.66963 0.81966 0.45698 0.0
C1791 C 0.68944 0.84045 0.48275 0.0
C1792 C 0.66595 0.82158 0.44189 0.0
C1793 C 0.6786 0.84484 0.43632 0.0
C1794 C 0.6861 0.84116 0.46652 0.0
C1795 C 0.69543 0.86569 0.44614 0.0
C1796 C 0.70487 0.8625 0.4921 0.0
C1797 C 0.67868 0.81726 0.50374 0.0
N1798 N 0.69858 0.86336 0.46074 0.0
N1799 N 0.67691 0.81852 0.48884 0.0
H1800 H 0.18534 0.84844 0.51474 0.0
H1801 H 0.13229 0.81237 0.42894 0.0
H1802 H 0.10849 0.82067 0.49928 0.0
H1803 H 0.21033 0.85323 0.44471 0.0
H1804 H 0.12249 0.81055 0.45465 0.0
H1805 H 0.19399 0.84515 0.48913 0.0
C1806 C 0.17026 0.84161 0.50596 0.0
C1807 C 0.1462 0.8351 0.50917 0.0
C1808 C 0.14175 0.8198 0.45246 0.0
C1809 C 0.15596 0.8311 0.47978 0.0
C1810 C 0.14738 0.82098 0.43778 0.0
C1811 C 0.1722 0.83306 0.4346 0.0
C1812 C 0.16107 0.83071 0.46407 0.0
C1813 C 0.19093 0.84343 0.44656 0.0
C1814 C 0.1752 0.83967 0.49133 0.0
C1815 C 0.12729 0.82579 0.49734 0.0
N1816 N 0.18498 0.84208 0.46073 0.0
N1817 N 0.1326 0.82422 0.48316 0.0
H1818 H 0.67245 0.86799 0.15687 0.0
H1819 H 0.631 0.78266 0.22392 0.0
H1820 H 0.62676 0.78768 0.15135 0.0
H1821 H 0.68325 0.86187 0.23034 0.0
H1822 H 0.62742 0.78495 0.19729 0.0
H1823 H 0.67516 0.8669 0.18384 0.0
C1824 C 0.663 0.85016 0.16133 0.0
C1825 C 0.64952 0.82787 0.15185 0.0
C1826 C 0.63964 0.80188 0.2045 0.0
C1827 C 0.65249 0.82649 0.18259 0.0
C1828 C 0.64154 0.80061 0.21973 0.0
C1829 C 0.65741 0.82212 0.22938 0.0
C1830 C 0.65369 0.82483 0.1988 0.0
C1831 C 0.67097 0.84479 0.22328 0.0
C1832 C 0.66461 0.84954 0.1767 0.0
C1833 C 0.63772 0.80528 0.15821 0.0
N1834 N 0.6688 0.84556 0.20836 0.0
N1835 N 0.63946 0.80518 0.17316 0.0
H1836 H 0.19209 0.85759 0.15991 0.0
H1837 H 0.16427 0.78971 0.23433 0.0
H1838 H 0.18457 0.78528 0.16365 0.0
H1839 H 0.15827 0.8551 0.22876 0.0
H1840 H 0.17639 0.79054 0.20925 0.0
H1841 H 0.18433 0.8597 0.18596 0.0
C1842 C 0.189 0.84228 0.16625 0.0
C1843 C 0.18877 0.82114 0.15961 0.0
C1844 C 0.17249 0.80475 0.21351 0.0
C1845 C 0.17986 0.82338 0.1893 0.0
C1846 C 0.16572 0.80438 0.22786 0.0
C1847 C 0.1602 0.82233 0.23363 0.0
C1848 C 0.17386 0.82327 0.20483 0.0
C1849 C 0.16207 0.84072 0.22468 0.0
C1850 C 0.18444 0.84342 0.18107 0.0
C1851 C 0.18453 0.80174 0.16829 0.0
N1852 N 0.16873 0.84072 0.21071 0.0
N1853 N 0.18022 0.80331 0.18266 0.0
H1854 H 0.18919 0.40307 0.17165 0.0
H1855 H 0.16695 0.30213 0.22833 0.0
H1856 H 0.19791 0.3393 0.16128 0.0
H1857 H 0.1661 0.37024 0.23953 0.0
H1858 H 0.17851 0.31523 0.20378 0.0
H1859 H 0.18108 0.3913 0.19669 0.0
C1860 C 0.18937 0.38655 0.17467 0.0
C1861 C 0.19403 0.37202 0.16435 0.0
C1862 C 0.17592 0.32736 0.21164 0.0
C1863 C 0.18484 0.35843 0.19305 0.0
C1864 C 0.16918 0.31982 0.22561 0.0
C1865 C 0.16551 0.3351 0.23598 0.0
C1866 C 0.17883 0.35024 0.20798 0.0
C1867 C 0.16899 0.35799 0.23195 0.0
C1868 C 0.18486 0.3799 0.18899 0.0
C1869 C 0.19449 0.35106 0.16892 0.0
N1870 N 0.17533 0.3648 0.21826 0.0
N1871 N 0.18976 0.34477 0.18292 0.0
H1872 H 0.77134 0.61931 0.83096 0.0
H1873 H 0.87735 0.69664 0.7795 0.0
H1874 H 0.84856 0.66749 0.84723 0.0
H1875 H 0.79938 0.65553 0.76357 0.0
H1876 H 0.8667 0.68766 0.80459 0.0
H1877 H 0.78065 0.63385 0.80648 0.0
C1878 C 0.79019 0.63317 0.82944 0.0
C1879 C 0.80925 0.64199 0.84113 0.0
C1880 C 0.85188 0.68073 0.79563 0.0
C1881 C 0.82009 0.65845 0.8131 0.0
C1882 C 0.85795 0.68599 0.78128 0.0
C1883 C 0.83925 0.67679 0.76935 0.0
C1884 C 0.82691 0.66597 0.79814 0.0
C1885 C 0.81445 0.66267 0.77237 0.0
C1886 C 0.79552 0.64136 0.81543 0.0
C1887 C 0.83337 0.65977 0.83847 0.0
N1888 N 0.80901 0.65757 0.78646 0.0
N1889 N 0.83812 0.66727 0.82473 0.0
H1890 H 0.33093 0.13236 0.84161 0.0
H1891 H 0.37256 0.21813 0.77475 0.0
H1892 H 0.38092 0.21204 0.84703 0.0
H1893 H 0.3175 0.13973 0.76844 0.0
H1894 H 0.37843 0.21503 0.80113 0.0
H1895 H 0.3282 0.13346 0.81462 0.0
C1896 C 0.3414 0.15004 0.83711 0.0
C1897 C 0.35594 0.17219 0.84656 0.0
C1898 C 0.36511 0.19844 0.794 0.0
C1899 C 0.35296 0.17359 0.81582 0.0
C1900 C 0.36171 0.20023 0.77893 0.0
C1901 C 0.34431 0.17922 0.76942 0.0
C1902 C 0.35098 0.17547 0.79966 0.0
C1903 C 0.33116 0.15637 0.77539 0.0
C1904 C 0.33978 0.15067 0.82174 0.0
C1905 C 0.36908 0.1946 0.84017 0.0
N1906 N 0.33462 0.15513 0.79017 0.0
N1907 N 0.36723 0.19472 0.82524 0.0
H1908 H 0.79153 0.14097 0.83702 0.0
H1909 H 0.85426 0.22259 0.77072 0.0
H1910 H 0.8276 0.22136 0.84029 0.0
H1911 H 0.817 0.14211 0.76628 0.0
H1912 H 0.84371 0.22214 0.79614 0.0
H1913 H 0.79938 0.14056 0.81093 0.0
C1914 C 0.80095 0.15851 0.83224 0.0
C1915 C 0.80908 0.18125 0.8409 0.0
C1916 C 0.83777 0.20454 0.78962 0.0
C1917 C 0.81828 0.18093 0.81111 0.0
C1918 C 0.84391 0.2048 0.77512 0.0
C1919 C 0.83666 0.18236 0.76638 0.0
C1920 C 0.82429 0.18166 0.79552 0.0
C1921 C 0.82283 0.15985 0.77259 0.0
C1922 C 0.80553 0.15827 0.81737 0.0
C1923 C 0.82141 0.20342 0.83414 0.0
N1924 N 0.8172 0.16007 0.78681 0.0
N1925 N 0.82566 0.20269 0.8197 0.0
H1926 H 0.34329 0.20456 0.49074 0.0
H1927 H 0.28745 0.13321 0.56161 0.0
H1928 H 0.27972 0.13043 0.48844 0.0
H1929 H 0.36131 0.19689 0.5636 0.0
H1930 H 0.28117 0.13623 0.5352 0.0
H1931 H 0.34718 0.20607 0.51794 0.0
C1932 C 0.33008 0.18873 0.49599 0.0
C1933 C 0.31135 0.16723 0.4874 0.0
C1934 C 0.29871 0.14965 0.54143 0.0
C1935 C 0.31552 0.16884 0.51828 0.0
C1936 C 0.30223 0.14805 0.55652 0.0
C1937 C 0.32498 0.16475 0.56478 0.0
C1938 C 0.31803 0.16816 0.53453 0.0
C1939 C 0.34361 0.18344 0.55757 0.0
C1940 C 0.33235 0.18954 0.51145 0.0
C1941 C 0.29468 0.14719 0.49467 0.0
N1942 N 0.33975 0.18461 0.54282 0.0
N1943 N 0.29717 0.14847 0.50968 0.0
H1944 H 0.81032 0.15307 0.48446 0.0
H1945 H 0.8571 0.16396 0.57007 0.0
H1946 H 0.88335 0.16723 0.49988 0.0
H1947 H 0.78386 0.14901 0.55442 0.0
H1948 H 0.86818 0.16836 0.54464 0.0
H1949 H 0.80132 0.15439 0.51018 0.0
C1950 C 0.82449 0.15651 0.49327 0.0
C1951 C 0.84756 0.15986 0.49 0.0
C1952 C 0.84971 0.16423 0.54678 0.0
C1953 C 0.83742 0.16149 0.51951 0.0
C1954 C 0.84341 0.16185 0.56131 0.0
C1955 C 0.81945 0.15595 0.56439 0.0
C1956 C 0.83193 0.16069 0.5352 0.0
C1957 C 0.8024 0.15313 0.55254 0.0
C1958 C 0.81937 0.15736 0.50796 0.0
C1959 C 0.86538 0.16472 0.50187 0.0
N1960 N 0.80895 0.15543 0.53849 0.0
N1961 N 0.85987 0.16521 0.51609 0.0
H1962 H 0.8654 0.67389 0.49395 0.0
H1963 H 0.83009 0.70355 0.57297 0.0
H1964 H 0.85305 0.73523 0.50477 0.0
H1965 H 0.83482 0.63778 0.56109 0.0
H1966 H 0.84187 0.7172 0.54864 0.0
H1967 H 0.85767 0.66213 0.51915 0.0
C1968 C 0.86127 0.68499 0.50167 0.0
C1969 C 0.8597 0.70547 0.49725 0.0
C1970 C 0.84039 0.6998 0.55135 0.0
C1971 C 0.8507 0.69206 0.526 0.0
C1972 C 0.83381 0.69208 0.56528 0.0
C1973 C 0.83142 0.66947 0.56905 0.0
C1974 C 0.84468 0.68485 0.5411 0.0
C1975 C 0.83613 0.65518 0.55856 0.0
C1976 C 0.85672 0.67819 0.51601 0.0
C1977 C 0.85406 0.71908 0.50765 0.0
N1978 N 0.84252 0.6631 0.54505 0.0
N1979 N 0.84973 0.71211 0.52152 0.0
loop_
_geom_bond_atom_site_label_1
_geom_bond_atom_site_label_2
_geom_bond_distance
_geom_bond_site_symmetry_2
_ccdc_geom_bond_type
C0 C1 1.384 . S
C0 H13 0.947 . S
C0 C35 1.382 . S
C1 C0 1.384 . S
C1 C2 1.378 . S
C2 C1 1.378 . S
C2 C3 1.378 . S
C2 H14 0.952 . S
C3 C2 1.378 . S
C3 H15 0.950 . S
C3 C34 1.383 . S
H4 C23 0.947 . S
H5 C24 0.946 . S
H6 C26 0.953 . S
H7 C27 0.945 . S
H8 C29 0.952 . S
H9 C30 0.949 . S
H10 C32 0.950 . S
H11 C33 0.948 . S
H12 C35 0.951 . S
H13 C0 0.947 . S
H14 C2 0.952 . S
H15 C3 0.950 . S
N16 C19 1.382 . S
N16 C21 1.363 . S
N17 C19 1.371 . S
N17 C20 1.372 . S
N18 C20 1.361 . S
N18 C21 1.377 . S
C19 N16 1.382 . S
C19 N17 1.371 . S
C19 C22 1.480 . S
C20 N17 1.372 . S
C20 N18 1.361 . S
C20 C28 1.457 . S
C21 N16 1.363 . S
C21 N18 1.377 . S
C21 C34 1.479 . S
C22 C19 1.480 . S
C22 C23 1.383 . S
C22 C27 1.385 . S
C23 H4 0.947 . S
C23 C22 1.383 . S
C23 C24 1.388 . S
C24 H5 0.946 . S
C24 C23 1.388 . S
C24 C25 1.384 . S
C25 C24 1.384 . S
C25 C26 1.377 . S
C26 H6 0.953 . S
C26 C25 1.377 . S
C26 C27 1.369 . S
C27 H7 0.945 . S
C27 C22 1.385 . S
C27 C26 1.369 . S
C28 C20 1.457 . S
C28 C29 1.372 . S
C28 C33 1.364 . S
C29 H8 0.952 . S
C29 C28 1.372 . S
C29 C30 1.389 . S
C30 H9 0.949 . S
C30 C29 1.389 . S
C30 C31 1.387 . S
C31 C30 1.387 . S
C31 C32 1.372 . S
C32 H10 0.950 . S
C32 C31 1.372 . S
C32 C33 1.379 . S
C33 H11 0.948 . S
C33 C28 1.364 . S
C33 C32 1.379 . S
C34 C3 1.383 . S
C34 C21 1.479 . S
C34 C35 1.398 . S
C35 C0 1.382 . S
C35 H12 0.951 . S
C35 C34 1.398 . S
C36 C37 1.384 . S
C36 H49 0.947 . S
C36 C71 1.382 . S
C37 C36 1.384 . S
C37 C38 1.378 . S
C38 C37 1.378 . S
C38 C39 1.378 . S
C38 H50 0.952 . S
C39 C38 1.378 . S
C39 H51 0.950 . S
C39 C70 1.383 . S
H40 C59 0.947 . S
H41 C60 0.946 . S
H42 C62 0.953 . S
H43 C63 0.945 . S
H44 C65 0.952 . S
H45 C66 0.949 . S
H46 C68 0.950 . S
H47 C69 0.948 . S
H48 C71 0.951 . S
H49 C36 0.947 . S
H50 C38 0.952 . S
H51 C39 0.950 . S
N52 C55 1.382 . S
N52 C57 1.363 . S
N53 C55 1.371 . S
N53 C56 1.372 . S
N54 C56 1.361 . S
N54 C57 1.377 . S
C55 N52 1.382 . S
C55 N53 1.371 . S
C55 C58 1.480 . S
C56 N53 1.372 . S
C56 N54 1.361 . S
C56 C64 1.457 . S
C57 N52 1.363 . S
C57 N54 1.377 . S
C57 C70 1.479 . S
C58 C55 1.480 . S
C58 C59 1.383 . S
C58 C63 1.385 . S
C59 H40 0.947 . S
C59 C58 1.383 . S
C59 C60 1.388 . S
C60 H41 0.946 . S
C60 C59 1.388 . S
C60 C61 1.384 . S
C61 C60 1.384 . S
C61 C62 1.377 . S
C62 H42 0.953 . S
C62 C61 1.377 . S
C62 C63 1.369 . S
C63 H43 0.945 . S
C63 C58 1.385 . S
C63 C62 1.369 . S
C64 C56 1.457 . S
C64 C65 1.372 . S
C64 C69 1.364 . S
C65 H44 0.952 . S
C65 C64 1.372 . S
C65 C66 1.389 . S
C66 H45 0.949 . S
C66 C65 1.389 . S
C66 C67 1.387 . S
C67 C66 1.387 . S
C67 C68 1.372 . S
C68 H46 0.950 . S
C68 C67 1.372 . S
C68 C69 1.379 . S
C69 H47 0.948 . S
C69 C64 1.364 . S
C69 C68 1.379 . S
C70 C39 1.383 . S
C70 C57 1.479 . S
C70 C71 1.398 . S
C71 C36 1.382 . S
C71 H48 0.951 . S
C71 C70 1.398 . S
C72 C73 1.384 . S
C72 H85 0.947 . S
C72 C107 1.382 . S
C73 C72 1.384 . S
C73 C74 1.378 . S
C74 C73 1.378 . S
C74 C75 1.378 . S
C74 H86 0.952 . S
C75 C74 1.378 . S
C75 H87 0.950 . S
C75 C106 1.383 . S
H76 C95 0.947 . S
H77 C96 0.946 . S
H78 C98 0.953 . S
H79 C99 0.945 . S
H80 C101 0.952 . S
H81 C102 0.949 . S
H82 C104 0.950 . S
H83 C105 0.948 . S
H84 C107 0.951 . S
H85 C72 0.947 . S
H86 C74 0.952 . S
H87 C75 0.950 . S
N88 C91 1.382 . S
N88 C93 1.363 . S
N89 C91 1.371 . S
N89 C92 1.372 . S
N90 C92 1.361 . S
N90 C93 1.377 . S
C91 N88 1.382 . S
C91 N89 1.371 . S
C91 C94 1.480 . S
C92 N89 1.372 . S
C92 N90 1.361 . S
C92 C100 1.457 . S
C93 N88 1.363 . S
C93 N90 1.377 . S
C93 C106 1.479 . S
C94 C91 1.480 . S
C94 C95 1.383 . S
C94 C99 1.385 . S
C95 H76 0.947 . S
C95 C94 1.383 . S
C95 C96 1.388 . S
C96 H77 0.946 . S
C96 C95 1.388 . S
C96 C97 1.384 . S
C97 C96 1.384 . S
C97 C98 1.377 . S
C98 H78 0.953 . S
C98 C97 1.377 . S
C98 C99 1.369 . S
C99 H79 0.945 . S
C99 C94 1.385 . S
C99 C98 1.369 . S
C100 C92 1.457 . S
C100 C101 1.372 . S
C100 C105 1.364 . S
C101 H80 0.952 . S
C101 C100 1.372 . S
C101 C102 1.389 . S
C102 H81 0.949 . S
C102 C101 1.389 . S
C102 C103 1.387 . S
C103 C102 1.387 . S
C103 C104 1.372 . S
C104 H82 0.950 . S
C104 C103 1.372 . S
C104 C105 1.379 . S
C105 H83 0.948 . S
C105 C100 1.364 . S
C105 C104 1.379 . S
C106 C75 1.383 . S
C106 C93 1.479 . S
C106 C107 1.398 . S
C107 C72 1.382 . S
C107 H84 0.951 . S
C107 C106 1.398 . S
C108 C109 1.384 . S
C108 H121 0.947 . S
C108 C143 1.382 . S
C109 C108 1.384 . S
C109 C110 1.378 . S
C110 C109 1.378 . S
C110 C111 1.378 . S
C110 H122 0.952 . S
C111 C110 1.378 . S
C111 H123 0.950 . S
C111 C142 1.383 . S
H112 C131 0.947 . S
H113 C132 0.946 . S
H114 C134 0.953 . S
H115 C135 0.945 . S
H116 C137 0.952 . S
H117 C138 0.949 . S
H118 C140 0.950 . S
H119 C141 0.948 . S
H120 C143 0.951 . S
H121 C108 0.947 . S
H122 C110 0.952 . S
H123 C111 0.950 . S
N124 C127 1.382 . S
N124 C129 1.363 . S
N125 C127 1.371 . S
N125 C128 1.372 . S
N126 C128 1.361 . S
N126 C129 1.377 . S
C127 N124 1.382 . S
C127 N125 1.371 . S
C127 C130 1.480 . S
C128 N125 1.372 . S
C128 N126 1.361 . S
C128 C136 1.457 . S
C129 N124 1.363 . S
C129 N126 1.377 . S
C129 C142 1.479 . S
C130 C127 1.480 . S
C130 C131 1.383 . S
C130 C135 1.385 . S
C131 H112 0.947 . S
C131 C130 1.383 . S
C131 C132 1.388 . S
C132 H113 0.946 . S
C132 C131 1.388 . S
C132 C133 1.384 . S
C133 C132 1.384 . S
C133 C134 1.377 . S
C134 H114 0.953 . S
C134 C133 1.377 . S
C134 C135 1.369 . S
C135 H115 0.945 . S
C135 C130 1.385 . S
C135 C134 1.369 . S
C136 C128 1.457 . S
C136 C137 1.372 . S
C136 C141 1.364 . S
C137 H116 0.952 . S
C137 C136 1.372 . S
C137 C138 1.389 . S
C138 H117 0.949 . S
C138 C137 1.389 . S
C138 C139 1.387 . S
C139 C138 1.387 . S
C139 C140 1.372 . S
C140 H118 0.950 . S
C140 C139 1.372 . S
C140 C141 1.379 . S
C141 H119 0.948 . S
C141 C136 1.364 . S
C141 C140 1.379 . S
C142 C111 1.383 . S
C142 C129 1.479 . S
C142 C143 1.398 . S
C143 C108 1.382 . S
C143 H120 0.951 . S
C143 C142 1.398 . S
C144 C145 1.384 . S
C144 H157 0.947 . S
C144 C179 1.382 . S
C145 C144 1.384 . S
C145 C146 1.378 . S
C146 C145 1.378 . S
C146 C147 1.378 . S
C146 H158 0.952 . S
C147 C146 1.378 . S
C147 H159 0.950 . S
C147 C178 1.383 . S
H148 C167 0.947 . S
H149 C168 0.946 . S
H150 C170 0.953 . S
H151 C171 0.945 . S
H152 C173 0.952 . S
H153 C174 0.949 . S
H154 C176 0.950 . S
H155 C177 0.948 . S
H156 C179 0.951 . S
H157 C144 0.947 . S
H158 C146 0.952 . S
H159 C147 0.950 . S
N160 C163 1.382 . S
N160 C165 1.363 . S
N161 C163 1.371 . S
N161 C164 1.372 . S
N162 C164 1.361 . S
N162 C165 1.377 . S
C163 N160 1.382 . S
C163 N161 1.371 . S
C163 C166 1.480 . S
C164 N161 1.372 . S
C164 N162 1.361 . S
C164 C172 1.457 . S
C165 N160 1.363 . S
C165 N162 1.377 . S
C165 C178 1.479 . S
C166 C163 1.480 . S
C166 C167 1.383 . S
C166 C171 1.385 . S
C167 H148 0.947 . S
C167 C166 1.383 . S
C167 C168 1.388 . S
C168 H149 0.946 . S
C168 C167 1.388 . S
C168 C169 1.384 . S
C169 C168 1.384 . S
C169 C170 1.377 . S
C170 H150 0.953 . S
C170 C169 1.377 . S
C170 C171 1.369 . S
C171 H151 0.945 . S
C171 C166 1.385 . S
C171 C170 1.369 . S
C172 C164 1.457 . S
C172 C173 1.372 . S
C172 C177 1.364 . S
C173 H152 0.952 . S
C173 C172 1.372 . S
C173 C174 1.389 . S
C174 H153 0.949 . S
C174 C173 1.389 . S
C174 C175 1.387 . S
C175 C174 1.387 . S
C175 C176 1.372 . S
C176 H154 0.950 . S
C176 C175 1.372 . S
C176 C177 1.379 . S
C177 H155 0.948 . S
C177 C172 1.364 . S
C177 C176 1.379 . S
C178 C147 1.383 . S
C178 C165 1.479 . S
C178 C179 1.398 . S
C179 C144 1.382 . S
C179 H156 0.951 . S
C179 C178 1.398 . S
C180 C181 1.384 . S
C180 H193 0.947 . S
C180 C215 1.382 . S
C181 C180 1.384 . S
C181 C182 1.378 . S
C182 C181 1.378 . S
C182 C183 1.378 . S
C182 H194 0.952 . S
C183 C182 1.378 . S
C183 H195 0.950 . S
C183 C214 1.383 . S
H184 C203 0.947 . S
H185 C204 0.946 . S
H186 C206 0.953 . S
H187 C207 0.945 . S
H188 C209 0.952 . S
H189 C210 0.949 . S
H190 C212 0.950 . S
H191 C213 0.948 . S
H192 C215 0.951 . S
H193 C180 0.947 . S
H194 C182 0.952 . S
H195 C183 0.950 . S
N196 C199 1.382 . S
N196 C201 1.363 . S
N197 C199 1.371 . S
N197 C200 1.372 . S
N198 C200 1.361 . S
N198 C201 1.377 . S
C199 N196 1.382 . S
C199 N197 1.371 . S
C199 C202 1.480 . S
C200 N197 1.372 . S
C200 N198 1.361 . S
C200 C208 1.457 . S
C201 N196 1.363 . S
C201 N198 1.377 . S
C201 C214 1.479 . S
C202 C199 1.480 . S
C202 C203 1.383 . S
C202 C207 1.385 . S
C203 H184 0.947 . S
C203 C202 1.383 . S
C203 C204 1.388 . S
C204 H185 0.946 . S
C204 C203 1.388 . S
C204 C205 1.384 . S
C205 C204 1.384 . S
C205 C206 1.377 . S
C206 H186 0.953 . S
C206 C205 1.377 . S
C206 C207 1.369 . S
C207 H187 0.945 . S
C207 C202 1.385 . S
C207 C206 1.369 . S
C208 C200 1.457 . S
C208 C209 1.372 . S
C208 C213 1.364 . S
C209 H188 0.952 . S
C209 C208 1.372 . S
C209 C210 1.389 . S
C210 H189 0.949 . S
C210 C209 1.389 . S
C210 C211 1.387 . S
C211 C210 1.387 . S
C211 C212 1.372 . S
C212 H190 0.950 . S
C212 C211 1.372 . S
C212 C213 1.379 . S
C213 H191 0.948 . S
C213 C208 1.364 . S
C213 C212 1.379 . S
C214 C183 1.383 . S
C214 C201 1.479 . S
C214 C215 1.398 . S
C215 C180 1.382 . S
C215 H192 0.951 . S
C215 C214 1.398 . S
C216 C217 1.384 . S
C216 H229 0.947 . S
C216 C251 1.382 . S
C217 C216 1.384 . S
C217 C218 1.378 . S
C218 C217 1.378 . S
C218 C219 1.378 . S
C218 H230 0.952 . S
C219 C218 1.378 . S
C219 H231 0.950 . S
C219 C250 1.383 . S
H220 C239 0.947 . S
H221 C240 0.946 . S
H222 C242 0.953 . S
H223 C243 0.945 . S
H224 C245 0.952 . S
H225 C246 0.949 . S
H226 C248 0.950 . S
H227 C249 0.948 . S
H228 C251 0.951 . S
H229 C216 0.947 . S
H230 C218 0.952 . S
H231 C219 0.950 . S
N232 C235 1.382 . S
N232 C237 1.363 . S
N233 C235 1.371 . S
N233 C236 1.372 . S
N234 C236 1.361 . S
N234 C237 1.377 . S
C235 N232 1.382 . S
C235 N233 1.371 . S
C235 C238 1.480 . S
C236 N233 1.372 . S
C236 N234 1.361 . S
C236 C244 1.457 . S
C237 N232 1.363 . S
C237 N234 1.377 . S
C237 C250 1.479 . S
C238 C235 1.480 . S
C238 C239 1.383 . S
C238 C243 1.385 . S
C239 H220 0.947 . S
C239 C238 1.383 . S
C239 C240 1.388 . S
C240 H221 0.946 . S
C240 C239 1.388 . S
C240 C241 1.384 . S
C241 C240 1.384 . S
C241 C242 1.377 . S
C242 H222 0.953 . S
C242 C241 1.377 . S
C242 C243 1.369 . S
C243 H223 0.945 . S
C243 C238 1.385 . S
C243 C242 1.369 . S
C244 C236 1.457 . S
C244 C245 1.372 . S
C244 C249 1.364 . S
C245 H224 0.952 . S
C245 C244 1.372 . S
C245 C246 1.389 . S
C246 H225 0.949 . S
C246 C245 1.389 . S
C246 C247 1.387 . S
C247 C246 1.387 . S
C247 C248 1.372 . S
C248 H226 0.950 . S
C248 C247 1.372 . S
C248 C249 1.379 . S
C249 H227 0.948 . S
C249 C244 1.364 . S
C249 C248 1.379 . S
C250 C219 1.383 . S
C250 C237 1.479 . S
C250 C251 1.398 . S
C251 C216 1.382 . S
C251 H228 0.951 . S
C251 C250 1.398 . S
C252 C253 1.384 . S
C252 H265 0.947 . S
C252 C287 1.382 . S
C253 C252 1.384 . S
C253 C254 1.378 . S
C254 C253 1.378 . S
C254 C255 1.378 . S
C254 H266 0.952 . S
C255 C254 1.378 . S
C255 H267 0.950 . S
C255 C286 1.383 . S
H256 C275 0.947 . S
H257 C276 0.946 . S
H258 C278 0.953 . S
H259 C279 0.945 . S
H260 C281 0.952 . S
H261 C282 0.949 . S
H262 C284 0.950 . S
H263 C285 0.948 . S
H264 C287 0.951 . S
H265 C252 0.947 . S
H266 C254 0.952 . S
H267 C255 0.950 . S
N268 C271 1.382 . S
N268 C273 1.363 . S
N269 C271 1.371 . S
N269 C272 1.372 . S
N270 C272 1.361 . S
N270 C273 1.377 . S
C271 N268 1.382 . S
C271 N269 1.371 . S
C271 C274 1.480 . S
C272 N269 1.372 . S
C272 N270 1.361 . S
C272 C280 1.457 . S
C273 N268 1.363 . S
C273 N270 1.377 . S
C273 C286 1.479 . S
C274 C271 1.480 . S
C274 C275 1.383 . S
C274 C279 1.385 . S
C275 H256 0.947 . S
C275 C274 1.383 . S
C275 C276 1.388 . S
C276 H257 0.946 . S
C276 C275 1.388 . S
C276 C277 1.384 . S
C277 C276 1.384 . S
C277 C278 1.377 . S
C278 H258 0.953 . S
C278 C277 1.377 . S
C278 C279 1.369 . S
C279 H259 0.945 . S
C279 C274 1.385 . S
C279 C278 1.369 . S
C280 C272 1.457 . S
C280 C281 1.372 . S
C280 C285 1.364 . S
C281 H260 0.952 . S
C281 C280 1.372 . S
C281 C282 1.389 . S
C282 H261 0.949 . S
C282 C281 1.389 . S
C282 C283 1.387 . S
C283 C282 1.387 . S
C283 C284 1.372 . S
C284 H262 0.950 . S
C284 C283 1.372 . S
C284 C285 1.379 . S
C285 H263 0.948 . S
C285 C280 1.364 . S
C285 C284 1.379 . S
C286 C255 1.383 . S
C286 C273 1.479 . S
C286 C287 1.398 . S
C287 C252 1.382 . S
C287 H264 0.951 . S
C287 C286 1.398 . S
C288 C289 1.384 . S
C288 H301 0.947 . S
C288 C323 1.382 . S
C289 C288 1.384 . S
C289 C290 1.378 . S
C290 C289 1.378 . S
C290 C291 1.378 . S
C290 H302 0.952 . S
C291 C290 1.378 . S
C291 H303 0.950 . S
C291 C322 1.383 . S
H292 C311 0.947 . S
H293 C312 0.946 . S
H294 C314 0.953 . S
H295 C315 0.945 . S
H296 C317 0.952 . S
H297 C318 0.949 . S
H298 C320 0.950 . S
H299 C321 0.948 . S
H300 C323 0.951 . S
H301 C288 0.947 . S
H302 C290 0.952 . S
H303 C291 0.950 . S
N304 C307 1.382 . S
N304 C309 1.363 . S
N305 C307 1.371 . S
N305 C308 1.372 . S
N306 C308 1.361 . S
N306 C309 1.377 . S
C307 N304 1.382 . S
C307 N305 1.371 . S
C307 C310 1.480 . S
C308 N305 1.372 . S
C308 N306 1.361 . S
C308 C316 1.457 . S
C309 N304 1.363 . S
C309 N306 1.377 . S
C309 C322 1.479 . S
C310 C307 1.480 . S
C310 C311 1.383 . S
C310 C315 1.385 . S
C311 H292 0.947 . S
C311 C310 1.383 . S
C311 C312 1.388 . S
C312 H293 0.946 . S
C312 C311 1.388 . S
C312 C313 1.384 . S
C313 C312 1.384 . S
C313 C314 1.377 . S
C314 H294 0.953 . S
C314 C313 1.377 . S
C314 C315 1.369 . S
C315 H295 0.945 . S
C315 C310 1.385 . S
C315 C314 1.369 . S
C316 C308 1.457 . S
C316 C317 1.372 . S
C316 C321 1.364 . S
C317 H296 0.952 . S
C317 C316 1.372 . S
C317 C318 1.389 . S
C318 H297 0.949 . S
C318 C317 1.389 . S
C318 C319 1.387 . S
C319 C318 1.387 . S
C319 C320 1.372 . S
C320 H298 0.950 . S
C320 C319 1.372 . S
C320 C321 1.379 . S
C321 H299 0.948 . S
C321 C316 1.364 . S
C321 C320 1.379 . S
C322 C291 1.383 . S
C322 C309 1.479 . S
C322 C323 1.398 . S
C323 C288 1.382 . S
C323 H300 0.951 . S
C323 C322 1.398 . S
C324 C325 1.384 . S
C324 H337 0.947 . S
C324 C359 1.382 . S
C325 C324 1.384 . S
C325 C326 1.378 . S
C326 C325 1.378 . S
C326 C327 1.378 . S
C326 H338 0.952 . S
C327 C326 1.378 . S
C327 H339 0.950 . S
C327 C358 1.383 . S
H328 C347 0.947 . S
H329 C348 0.946 . S
H330 C350 0.953 . S
H331 C351 0.945 . S
H332 C353 0.952 . S
H333 C354 0.949 . S
H334 C356 0.950 . S
H335 C357 0.948 . S
H336 C359 0.951 . S
H337 C324 0.947 . S
H338 C326 0.952 . S
H339 C327 0.950 . S
N340 C343 1.382 . S
N340 C345 1.363 . S
N341 C343 1.371 . S
N341 C344 1.372 . S
N342 C344 1.361 . S
N342 C345 1.377 . S
C343 N340 1.382 . S
C343 N341 1.371 . S
C343 C346 1.480 . S
C344 N341 1.372 . S
C344 N342 1.361 . S
C344 C352 1.457 . S
C345 N340 1.363 . S
C345 N342 1.377 . S
C345 C358 1.479 . S
C346 C343 1.480 . S
C346 C347 1.383 . S
C346 C351 1.385 . S
C347 H328 0.947 . S
C347 C346 1.383 . S
C347 C348 1.388 . S
C348 H329 0.946 . S
C348 C347 1.388 . S
C348 C349 1.384 . S
C349 C348 1.384 . S
C349 C350 1.377 . S
C350 H330 0.953 . S
C350 C349 1.377 . S
C350 C351 1.369 . S
C351 H331 0.945 . S
C351 C346 1.385 . S
C351 C350 1.369 . S
C352 C344 1.457 . S
C352 C353 1.372 . S
C352 C357 1.364 . S
C353 H332 0.952 . S
C353 C352 1.372 . S
C353 C354 1.389 . S
C354 H333 0.949 . S
C354 C353 1.389 . S
C354 C355 1.387 . S
C355 C354 1.387 . S
C355 C356 1.372 . S
C356 H334 0.950 . S
C356 C355 1.372 . S
C356 C357 1.379 . S
C357 H335 0.948 . S
C357 C352 1.364 . S
C357 C356 1.379 . S
C358 C327 1.383 . S
C358 C345 1.479 . S
C358 C359 1.398 . S
C359 C324 1.382 . S
C359 H336 0.951 . S
C359 C358 1.398 . S
C360 C361 1.384 . S
C360 H373 0.947 . S
C360 C395 1.382 . S
C361 C360 1.384 . S
C361 C362 1.378 . S
C362 C361 1.378 . S
C362 C363 1.378 . S
C362 H374 0.952 . S
C363 C362 1.378 . S
C363 H375 0.950 . S
C363 C394 1.383 . S
H364 C383 0.947 . S
H365 C384 0.946 . S
H366 C386 0.953 . S
H367 C387 0.945 . S
H368 C389 0.952 . S
H369 C390 0.949 . S
H370 C392 0.950 . S
H371 C393 0.948 . S
H372 C395 0.951 . S
H373 C360 0.947 . S
H374 C362 0.952 . S
H375 C363 0.950 . S
N376 C379 1.382 . S
N376 C381 1.363 . S
N377 C379 1.371 . S
N377 C380 1.372 . S
N378 C380 1.361 . S
N378 C381 1.377 . S
C379 N376 1.382 . S
C379 N377 1.371 . S
C379 C382 1.480 . S
C380 N377 1.372 . S
C380 N378 1.361 . S
C380 C388 1.457 . S
C381 N376 1.363 . S
C381 N378 1.377 . S
C381 C394 1.479 . S
C382 C379 1.480 . S
C382 C383 1.383 . S
C382 C387 1.385 . S
C383 H364 0.947 . S
C383 C382 1.383 . S
C383 C384 1.388 . S
C384 H365 0.946 . S
C384 C383 1.388 . S
C384 C385 1.384 . S
C385 C384 1.384 . S
C385 C386 1.377 . S
C386 H366 0.953 . S
C386 C385 1.377 . S
C386 C387 1.369 . S
C387 H367 0.945 . S
C387 C382 1.385 . S
C387 C386 1.369 . S
C388 C380 1.457 . S
C388 C389 1.372 . S
C388 C393 1.364 . S
C389 H368 0.952 . S
C389 C388 1.372 . S
C389 C390 1.389 . S
C390 H369 0.949 . S
C390 C389 1.389 . S
C390 C391 1.387 . S
C391 C390 1.387 . S
C391 C392 1.372 . S
C392 H370 0.950 . S
C392 C391 1.372 . S
C392 C393 1.379 . S
C393 H371 0.948 . S
C393 C388 1.364 . S
C393 C392 1.379 . S
C394 C363 1.383 . S
C394 C381 1.479 . S
C394 C395 1.398 . S
C395 C360 1.382 . S
C395 H372 0.951 . S
C395 C394 1.398 . S
C396 C397 1.384 . S
C396 H409 0.947 . S
C396 C431 1.382 . S
C397 C396 1.384 . S
C397 C398 1.378 . S
C398 C397 1.378 . S
C398 C399 1.378 . S
C398 H410 0.952 . S
C399 C398 1.378 . S
C399 H411 0.950 . S
C399 C430 1.383 . S
H400 C419 0.947 . S
H401 C420 0.946 . S
H402 C422 0.953 . S
H403 C423 0.945 . S
H404 C425 0.952 . S
H405 C426 0.949 . S
H406 C428 0.950 . S
H407 C429 0.948 . S
H408 C431 0.951 . S
H409 C396 0.947 . S
H410 C398 0.952 . S
H411 C399 0.950 . S
N412 C415 1.382 . S
N412 C417 1.363 . S
N413 C415 1.371 . S
N413 C416 1.372 . S
N414 C416 1.361 . S
N414 C417 1.377 . S
C415 N412 1.382 . S
C415 N413 1.371 . S
C415 C418 1.480 . S
C416 N413 1.372 . S
C416 N414 1.361 . S
C416 C424 1.457 . S
C417 N412 1.363 . S
C417 N414 1.377 . S
C417 C430 1.479 . S
C418 C415 1.480 . S
C418 C419 1.383 . S
C418 C423 1.385 . S
C419 H400 0.947 . S
C419 C418 1.383 . S
C419 C420 1.388 . S
C420 H401 0.946 . S
C420 C419 1.388 . S
C420 C421 1.384 . S
C421 C420 1.384 . S
C421 C422 1.377 . S
C422 H402 0.953 . S
C422 C421 1.377 . S
C422 C423 1.369 . S
C423 H403 0.945 . S
C423 C418 1.385 . S
C423 C422 1.369 . S
C424 C416 1.457 . S
C424 C425 1.372 . S
C424 C429 1.364 . S
C425 H404 0.952 . S
C425 C424 1.372 . S
C425 C426 1.389 . S
C426 H405 0.949 . S
C426 C425 1.389 . S
C426 C427 1.387 . S
C427 C426 1.387 . S
C427 C428 1.372 . S
C428 H406 0.950 . S
C428 C427 1.372 . S
C428 C429 1.379 . S
C429 H407 0.948 . S
C429 C424 1.364 . S
C429 C428 1.379 . S
C430 C399 1.383 . S
C430 C417 1.479 . S
C430 C431 1.398 . S
C431 C396 1.382 . S
C431 H408 0.951 . S
C431 C430 1.398 . S
C432 C433 1.384 . S
C432 H445 0.947 . S
C432 C467 1.382 . S
C433 C432 1.384 . S
C433 C434 1.378 . S
C434 C433 1.378 . S
C434 C435 1.378 . S
C434 H446 0.952 . S
C435 C434 1.378 . S
C435 H447 0.950 . S
C435 C466 1.383 . S
H436 C455 0.947 . S
H437 C456 0.946 . S
H438 C458 0.953 . S
H439 C459 0.945 . S
H440 C461 0.952 . S
H441 C462 0.949 . S
H442 C464 0.950 . S
H443 C465 0.948 . S
H444 C467 0.951 . S
H445 C432 0.947 . S
H446 C434 0.952 . S
H447 C435 0.950 . S
N448 C451 1.382 . S
N448 C453 1.363 . S
N449 C451 1.371 . S
N449 C452 1.372 . S
N450 C452 1.361 . S
N450 C453 1.377 . S
C451 N448 1.382 . S
C451 N449 1.371 . S
C451 C454 1.480 . S
C452 N449 1.372 . S
C452 N450 1.361 . S
C452 C460 1.457 . S
C453 N448 1.363 . S
C453 N450 1.377 . S
C453 C466 1.479 . S
C454 C451 1.480 . S
C454 C455 1.383 . S
C454 C459 1.385 . S
C455 H436 0.947 . S
C455 C454 1.383 . S
C455 C456 1.388 . S
C456 H437 0.946 . S
C456 C455 1.388 . S
C456 C457 1.384 . S
C457 C456 1.384 . S
C457 C458 1.377 . S
C458 H438 0.953 . S
C458 C457 1.377 . S
C458 C459 1.369 . S
C459 H439 0.945 . S
C459 C454 1.385 . S
C459 C458 1.369 . S
C460 C452 1.457 . S
C460 C461 1.372 . S
C460 C465 1.364 . S
C461 H440 0.952 . S
C461 C460 1.372 . S
C461 C462 1.389 . S
C462 H441 0.949 . S
C462 C461 1.389 . S
C462 C463 1.387 . S
C463 C462 1.387 . S
C463 C464 1.372 . S
C464 H442 0.950 . S
C464 C463 1.372 . S
C464 C465 1.379 . S
C465 H443 0.948 . S
C465 C460 1.364 . S
C465 C464 1.379 . S
C466 C435 1.383 . S
C466 C453 1.479 . S
C466 C467 1.398 . S
C467 C432 1.382 . S
C467 H444 0.951 . S
C467 C466 1.398 . S
C468 C469 1.384 . S
C468 H481 0.947 . S
C468 C503 1.382 . S
C469 C468 1.384 . S
C469 C470 1.378 . S
C470 C469 1.378 . S
C470 C471 1.378 . S
C470 H482 0.952 . S
C471 C470 1.378 . S
C471 H483 0.950 . S
C471 C502 1.383 . S
H472 C491 0.947 . S
H473 C492 0.946 . S
H474 C494 0.953 . S
H475 C495 0.945 . S
H476 C497 0.952 . S
H477 C498 0.949 . S
H478 C500 0.950 . S
H479 C501 0.948 . S
H480 C503 0.951 . S
H481 C468 0.947 . S
H482 C470 0.952 . S
H483 C471 0.950 . S
N484 C487 1.382 . S
N484 C489 1.363 . S
N485 C487 1.371 . S
N485 C488 1.372 . S
N486 C488 1.361 . S
N486 C489 1.377 . S
C487 N484 1.382 . S
C487 N485 1.371 . S
C487 C490 1.480 . S
C488 N485 1.372 . S
C488 N486 1.361 . S
C488 C496 1.457 . S
C489 N484 1.363 . S
C489 N486 1.377 . S
C489 C502 1.479 . S
C490 C487 1.480 . S
C490 C491 1.383 . S
C490 C495 1.385 . S
C491 H472 0.947 . S
C491 C490 1.383 . S
C491 C492 1.388 . S
C492 H473 0.946 . S
C492 C491 1.388 . S
C492 C493 1.384 . S
C493 C492 1.384 . S
C493 C494 1.377 . S
C494 H474 0.953 . S
C494 C493 1.377 . S
C494 C495 1.369 . S
C495 H475 0.945 . S
C495 C490 1.385 . S
C495 C494 1.369 . S
C496 C488 1.457 . S
C496 C497 1.372 . S
C496 C501 1.364 . S
C497 H476 0.952 . S
C497 C496 1.372 . S
C497 C498 1.389 . S
C498 H477 0.949 . S
C498 C497 1.389 . S
C498 C499 1.387 . S
C499 C498 1.387 . S
C499 C500 1.372 . S
C500 H478 0.950 . S
C500 C499 1.372 . S
C500 C501 1.379 . S
C501 H479 0.948 . S
C501 C496 1.364 . S
C501 C500 1.379 . S
C502 C471 1.383 . S
C502 C489 1.479 . S
C502 C503 1.398 . S
C503 C468 1.382 . S
C503 H480 0.951 . S
C503 C502 1.398 . S
C504 C505 1.384 . S
C504 H517 0.947 . S
C504 C539 1.382 . S
C505 C504 1.384 . S
C505 C506 1.378 . S
C506 C505 1.378 . S
C506 C507 1.378 . S
C506 H518 0.952 . S
C507 C506 1.378 . S
C507 H519 0.950 . S
C507 C538 1.383 . S
H508 C527 0.947 . S
H509 C528 0.946 . S
H510 C530 0.953 . S
H511 C531 0.945 . S
H512 C533 0.952 . S
H513 C534 0.949 . S
H514 C536 0.950 . S
H515 C537 0.948 . S
H516 C539 0.951 . S
H517 C504 0.947 . S
H518 C506 0.952 . S
H519 C507 0.950 . S
N520 C523 1.382 . S
N520 C525 1.363 . S
N521 C523 1.371 . S
N521 C524 1.372 . S
N522 C524 1.361 . S
N522 C525 1.377 . S
C523 N520 1.382 . S
C523 N521 1.371 . S
C523 C526 1.480 . S
C524 N521 1.372 . S
C524 N522 1.361 . S
C524 C532 1.457 . S
C525 N520 1.363 . S
C525 N522 1.377 . S
C525 C538 1.479 . S
C526 C523 1.480 . S
C526 C527 1.383 . S
C526 C531 1.385 . S
C527 H508 0.947 . S
C527 C526 1.383 . S
C527 C528 1.388 . S
C528 H509 0.946 . S
C528 C527 1.388 . S
C528 C529 1.384 . S
C529 C528 1.384 . S
C529 C530 1.377 . S
C530 H510 0.953 . S
C530 C529 1.377 . S
C530 C531 1.369 . S
C531 H511 0.945 . S
C531 C526 1.385 . S
C531 C530 1.369 . S
C532 C524 1.457 . S
C532 C533 1.372 . S
C532 C537 1.364 . S
C533 H512 0.952 . S
C533 C532 1.372 . S
C533 C534 1.389 . S
C534 H513 0.949 . S
C534 C533 1.389 . S
C534 C535 1.387 . S
C535 C534 1.387 . S
C535 C536 1.372 . S
C536 H514 0.950 . S
C536 C535 1.372 . S
C536 C537 1.379 . S
C537 H515 0.948 . S
C537 C532 1.364 . S
C537 C536 1.379 . S
C538 C507 1.383 . S
C538 C525 1.479 . S
C538 C539 1.398 . S
C539 C504 1.382 . S
C539 H516 0.951 . S
C539 C538 1.398 . S
C540 C541 1.384 . S
C540 H553 0.947 . S
C540 C575 1.382 . S
C541 C540 1.384 . S
C541 C542 1.378 . S
C542 C541 1.378 . S
C542 C543 1.378 . S
C542 H554 0.952 . S
C543 C542 1.378 . S
C543 H555 0.950 . S
C543 C574 1.383 . S
H544 C563 0.947 . S
H545 C564 0.946 . S
H546 C566 0.953 . S
H547 C567 0.945 . S
H548 C569 0.952 . S
H549 C570 0.949 . S
H550 C572 0.950 . S
H551 C573 0.948 . S
H552 C575 0.951 . S
H553 C540 0.947 . S
H554 C542 0.952 . S
H555 C543 0.950 . S
N556 C559 1.382 . S
N556 C561 1.363 . S
N557 C559 1.371 . S
N557 C560 1.372 . S
N558 C560 1.361 . S
N558 C561 1.377 . S
C559 N556 1.382 . S
C559 N557 1.371 . S
C559 C562 1.480 . S
C560 N557 1.372 . S
C560 N558 1.361 . S
C560 C568 1.457 . S
C561 N556 1.363 . S
C561 N558 1.377 . S
C561 C574 1.479 . S
C562 C559 1.480 . S
C562 C563 1.383 . S
C562 C567 1.385 . S
C563 H544 0.947 . S
C563 C562 1.383 . S
C563 C564 1.388 . S
C564 H545 0.946 . S
C564 C563 1.388 . S
C564 C565 1.384 . S
C565 C564 1.384 . S
C565 C566 1.377 . S
C566 H546 0.953 . S
C566 C565 1.377 . S
C566 C567 1.369 . S
C567 H547 0.945 . S
C567 C562 1.385 . S
C567 C566 1.369 . S
C568 C560 1.457 . S
C568 C569 1.372 . S
C568 C573 1.364 . S
C569 H548 0.952 . S
C569 C568 1.372 . S
C569 C570 1.389 . S
C570 H549 0.949 . S
C570 C569 1.389 . S
C570 C571 1.387 . S
C571 C570 1.387 . S
C571 C572 1.372 . S
C572 H550 0.950 . S
C572 C571 1.372 . S
C572 C573 1.379 . S
C573 H551 0.948 . S
C573 C568 1.364 . S
C573 C572 1.379 . S
C574 C543 1.383 . S
C574 C561 1.479 . S
C574 C575 1.398 . S
C575 C540 1.382 . S
C575 H552 0.951 . S
C575 C574 1.398 . S
C576 C577 1.384 . S
C576 H589 0.947 . S
C576 C611 1.382 . S
C577 C576 1.384 . S
C577 C578 1.378 . S
C578 C577 1.378 . S
C578 C579 1.378 . S
C578 H590 0.952 . S
C579 C578 1.378 . S
C579 H591 0.950 . S
C579 C610 1.383 . S
H580 C599 0.947 . S
H581 C600 0.946 . S
H582 C602 0.953 . S
H583 C603 0.945 . S
H584 C605 0.952 . S
H585 C606 0.949 . S
H586 C608 0.950 . S
H587 C609 0.948 . S
H588 C611 0.951 . S
H589 C576 0.947 . S
H590 C578 0.952 . S
H591 C579 0.950 . S
N592 C595 1.382 . S
N592 C597 1.363 . S
N593 C595 1.371 . S
N593 C596 1.372 . S
N594 C596 1.361 . S
N594 C597 1.377 . S
C595 N592 1.382 . S
C595 N593 1.371 . S
C595 C598 1.480 . S
C596 N593 1.372 . S
C596 N594 1.361 . S
C596 C604 1.457 . S
C597 N592 1.363 . S
C597 N594 1.377 . S
C597 C610 1.479 . S
C598 C595 1.480 . S
C598 C599 1.383 . S
C598 C603 1.385 . S
C599 H580 0.947 . S
C599 C598 1.383 . S
C599 C600 1.388 . S
C600 H581 0.946 . S
C600 C599 1.388 . S
C600 C601 1.384 . S
C601 C600 1.384 . S
C601 C602 1.377 . S
C602 H582 0.953 . S
C602 C601 1.377 . S
C602 C603 1.369 . S
C603 H583 0.945 . S
C603 C598 1.385 . S
C603 C602 1.369 . S
C604 C596 1.457 . S
C604 C605 1.372 . S
C604 C609 1.364 . S
C605 H584 0.952 . S
C605 C604 1.372 . S
C605 C606 1.389 . S
C606 H585 0.949 . S
C606 C605 1.389 . S
C606 C607 1.387 . S
C607 C606 1.387 . S
C607 C608 1.372 . S
C608 H586 0.950 . S
C608 C607 1.372 . S
C608 C609 1.379 . S
C609 H587 0.948 . S
C609 C604 1.364 . S
C609 C608 1.379 . S
C610 C579 1.383 . S
C610 C597 1.479 . S
C610 C611 1.398 . S
C611 C576 1.382 . S
C611 H588 0.951 . S
C611 C610 1.398 . S
C612 C613 1.384 . S
C612 H625 0.947 . S
C612 C647 1.382 . S
C613 C612 1.384 . S
C613 C614 1.378 . S
C614 C613 1.378 . S
C614 C615 1.378 . S
C614 H626 0.952 . S
C615 C614 1.378 . S
C615 H627 0.950 . S
C615 C646 1.383 . S
H616 C635 0.947 . S
H617 C636 0.946 . S
H618 C638 0.953 . S
H619 C639 0.945 . S
H620 C641 0.952 . S
H621 C642 0.949 . S
H622 C644 0.950 . S
H623 C645 0.948 . S
H624 C647 0.951 . S
H625 C612 0.947 . S
H626 C614 0.952 . S
H627 C615 0.950 . S
N628 C631 1.382 . S
N628 C633 1.363 . S
N629 C631 1.371 . S
N629 C632 1.372 . S
N630 C632 1.361 . S
N630 C633 1.377 . S
C631 N628 1.382 . S
C631 N629 1.371 . S
C631 C634 1.480 . S
C632 N629 1.372 . S
C632 N630 1.361 . S
C632 C640 1.457 . S
C633 N628 1.363 . S
C633 N630 1.377 . S
C633 C646 1.479 . S
C634 C631 1.480 . S
C634 C635 1.383 . S
C634 C639 1.385 . S
C635 H616 0.947 . S
C635 C634 1.383 . S
C635 C636 1.388 . S
C636 H617 0.946 . S
C636 C635 1.388 . S
C636 C637 1.384 . S
C637 C636 1.384 . S
C637 C638 1.377 . S
C638 H618 0.953 . S
C638 C637 1.377 . S
C638 C639 1.369 . S
C639 H619 0.945 . S
C639 C634 1.385 . S
C639 C638 1.369 . S
C640 C632 1.457 . S
C640 C641 1.372 . S
C640 C645 1.364 . S
C641 H620 0.952 . S
C641 C640 1.372 . S
C641 C642 1.389 . S
C642 H621 0.949 . S
C642 C641 1.389 . S
C642 C643 1.387 . S
C643 C642 1.387 . S
C643 C644 1.372 . S
C644 H622 0.950 . S
C644 C643 1.372 . S
C644 C645 1.379 . S
C645 H623 0.948 . S
C645 C640 1.364 . S
C645 C644 1.379 . S
C646 C615 1.383 . S
C646 C633 1.479 . S
C646 C647 1.398 . S
C647 C612 1.382 . S
C647 H624 0.951 . S
C647 C646 1.398 . S
C648 Eu649 2.835 . S
C648 C650 1.500 . S
C648 O668 1.257 1_545 S
C648 O669 1.260 . S
Eu649 C648 2.835 . S
Eu649 O668 2.473 1_545 S
Eu649 O669 2.480 . S
Eu649 O670 2.430 . S
Eu649 O671 2.670 1_554 S
Eu649 O672 2.394 1_545 S
Eu649 O677 2.355 1_545 S
Eu649 O679 2.374 . S
C650 C648 1.500 . S
C650 C651 1.377 . S
C650 C655 1.377 1_545 S
C651 C650 1.377 . S
C651 C652 1.395 . S
C651 H680 0.931 . S
C652 C651 1.395 . S
C652 C653 1.383 1_545 S
C652 H681 0.931 . S
C653 C652 1.383 1_565 S
C653 C654 1.394 . S
C654 C653 1.394 . S
C654 C655 1.378 . S
C654 H682 0.931 . S
C655 C650 1.377 1_565 S
C655 C654 1.378 . S
C655 H683 0.931 . S
C656 O670 1.210 1_556 S
C656 O671 1.289 . S
C657 O672 1.251 . S
C657 O673 1.251 1_554 S
C658 Eu659 2.835 . S
C658 C660 1.500 . S
C658 O674 1.257 1_565 S
C658 O675 1.260 . S
Eu659 C658 2.835 . S
Eu659 O671 2.355 1_565 S
Eu659 O673 2.374 . S
Eu659 O674 2.473 1_565 S
Eu659 O675 2.480 . S
Eu659 O676 2.430 . S
Eu659 O677 2.670 1_556 S
Eu659 O678 2.394 1_565 S
C660 C658 1.500 . S
C660 C661 1.377 . S
C660 C665 1.377 1_565 S
C661 C660 1.377 . S
C661 C662 1.395 . S
C661 H684 0.931 . S
C662 C661 1.395 . S
C662 C663 1.383 1_565 S
C662 H685 0.931 . S
C663 C662 1.383 1_545 S
C663 C664 1.394 . S
C664 C663 1.394 . S
C664 C665 1.378 . S
C664 H686 0.931 . S
C665 C660 1.377 1_545 S
C665 C664 1.378 . S
C665 H687 0.931 . S
C666 O676 1.259 1_554 S
C666 O677 1.270 . S
C667 O678 1.251 . S
C667 O679 1.251 1_556 S
O668 C648 1.257 1_565 S
O668 Eu649 2.473 1_565 S
O669 C648 1.260 . S
O669 Eu649 2.480 . S
O670 Eu649 2.430 . S
O670 C656 1.210 1_554 S
O671 Eu649 2.670 1_556 S
O671 C656 1.289 . S
O671 Eu659 2.355 1_545 S
O672 Eu649 2.394 1_565 S
O672 C657 1.251 . S
O673 C657 1.251 1_556 S
O673 Eu659 2.374 . S
O674 C658 1.257 1_545 S
O674 Eu659 2.473 1_545 S
O675 C658 1.260 . S
O675 Eu659 2.480 . S
O676 Eu659 2.430 . S
O676 C666 1.259 1_556 S
O677 Eu649 2.355 1_565 S
O677 Eu659 2.670 1_554 S
O677 C666 1.270 . S
O678 Eu659 2.394 1_545 S
O678 C667 1.251 . S
O679 Eu649 2.374 . S
O679 C667 1.251 1_554 S
H680 C651 0.931 . S
H681 C652 0.931 . S
H682 C654 0.931 . S
H683 C655 0.931 . S
H684 C661 0.931 . S
H685 C662 0.931 . S
H686 C664 0.931 . S
H687 C665 0.931 . S
C688 Eu689 2.835 . S
C688 C690 1.500 1_655 S
C688 O708 1.257 1_655 S
C688 O709 1.260 . S
Eu689 C688 2.835 . S
Eu689 O708 2.473 1_655 S
Eu689 O709 2.480 . S
Eu689 O710 2.430 . S
Eu689 O711 2.670 1_554 S
Eu689 O712 2.394 1_655 S
Eu689 O717 2.355 1_655 S
Eu689 O719 2.374 . S
C690 C688 1.500 1_455 S
C690 C691 1.377 1_455 S
C690 C695 1.377 . S
C691 C690 1.377 1_655 S
C691 C692 1.395 . S
C691 H720 0.931 . S
C692 C691 1.395 . S
C692 C693 1.383 1_655 S
C692 H721 0.931 . S
C693 C692 1.383 1_455 S
C693 C694 1.394 . S
C694 C693 1.394 . S
C694 C695 1.378 . S
C694 H722 0.931 . S
C695 C690 1.377 . S
C695 C694 1.378 . S
C695 H723 0.931 . S
C696 O710 1.259 1_556 S
C696 O711 1.270 . S
C697 O712 1.251 . S
C697 O713 1.251 . S
C698 Eu699 2.835 . S
C698 C700 1.500 1_455 S
C698 O714 1.257 1_455 S
C698 O715 1.260 . S
Eu699 C698 2.835 . S
Eu699 O711 2.355 1_455 S
Eu699 O713 2.374 1_556 S
Eu699 O714 2.473 1_455 S
Eu699 O715 2.480 . S
Eu699 O716 2.430 . S
Eu699 O717 2.670 1_556 S
Eu699 O718 2.394 1_455 S
C700 C698 1.500 1_655 S
C700 C701 1.377 1_655 S
C700 C705 1.377 . S
C701 C700 1.377 1_455 S
C701 C702 1.395 . S
C701 H724 0.931 . S
C702 C701 1.395 . S
C702 C703 1.383 1_455 S
C702 H725 0.931 . S
C703 C702 1.383 1_655 S
C703 C704 1.394 . S
C704 C703 1.394 . S
C704 C705 1.378 . S
C704 H726 0.931 . S
C705 C700 1.377 . S
C705 C704 1.378 . S
C705 H727 0.931 . S
C706 O716 1.259 1_554 S
C706 O717 1.270 . S
C707 O718 1.251 . S
C707 O719 1.251 1_556 S
O708 C688 1.257 1_455 S
O708 Eu689 2.473 1_455 S
O709 C688 1.260 . S
O709 Eu689 2.480 . S
O710 Eu689 2.430 . S
O710 C696 1.259 1_554 S
O711 Eu689 2.670 1_556 S
O711 C696 1.270 . S
O711 Eu699 2.355 1_655 S
O712 Eu689 2.394 1_455 S
O712 C697 1.251 . S
O713 C697 1.251 . S
O713 Eu699 2.374 1_554 S
O714 C698 1.257 1_655 S
O714 Eu699 2.473 1_655 S
O715 C698 1.260 . S
O715 Eu699 2.480 . S
O716 Eu699 2.430 . S
O716 C706 1.259 1_556 S
O717 Eu689 2.355 1_455 S
O717 Eu699 2.670 1_554 S
O717 C706 1.270 . S
O718 Eu699 2.394 1_655 S
O718 C707 1.251 . S
O719 Eu689 2.374 . S
O719 C707 1.251 1_554 S
H720 C691 0.931 . S
H721 C692 0.931 . S
H722 C694 0.931 . S
H723 C695 0.931 . S
H724 C701 0.931 . S
H725 C702 0.931 . S
H726 C704 0.931 . S
H727 C705 0.931 . S
C728 Eu729 2.835 . S
C728 C730 1.500 . S
C728 O748 1.257 . S
C728 O749 1.260 . S
Eu729 C728 2.835 . S
Eu729 O748 2.473 . S
Eu729 O749 2.480 . S
Eu729 O750 2.430 . S
Eu729 O751 2.670 1_556 S
Eu729 O752 2.394 . S
Eu729 O757 2.355 . S
Eu729 O759 2.370 . S
C730 C728 1.500 . S
C730 C731 1.377 . S
C730 C735 1.377 . S
C731 C730 1.377 . S
C731 C732 1.395 . S
C731 H760 0.931 . S
C732 C731 1.395 . S
C732 C733 1.383 . S
C732 H761 0.931 . S
C733 C732 1.383 . S
C733 C734 1.394 . S
C734 C733 1.394 . S
C734 C735 1.378 . S
C734 H762 0.931 . S
C735 C730 1.377 . S
C735 C734 1.378 . S
C735 H763 0.931 . S
C736 O750 1.259 1_554 S
C736 O751 1.270 . S
C737 O752 1.251 . S
C737 O753 1.251 1_556 S
C738 Eu739 2.835 . S
C738 C740 1.500 . S
C738 O754 1.257 . S
C738 O755 1.260 . S
Eu739 C738 2.835 . S
Eu739 O751 2.355 . S
Eu739 O753 2.374 . S
Eu739 O754 2.473 . S
Eu739 O755 2.480 . S
Eu739 O756 2.430 . S
Eu739 O757 2.670 1_554 S
Eu739 O758 2.394 . S
C740 C738 1.500 . S
C740 C741 1.377 . S
C740 C745 1.377 . S
C741 C740 1.377 . S
C741 C742 1.395 . S
C741 H764 0.931 . S
C742 C741 1.395 . S
C742 C743 1.383 . S
C742 H765 0.931 . S
C743 C742 1.383 . S
C743 C744 1.394 . S
C744 C743 1.394 . S
C744 C745 1.378 . S
C744 H766 0.931 . S
C745 C740 1.377 . S
C745 C744 1.378 . S
C745 H767 0.931 . S
C746 O756 1.259 1_556 S
C746 O757 1.270 . S
C747 O758 1.251 . S
C747 O759 1.256 1_554 S
O748 C728 1.257 . S
O748 Eu729 2.473 . S
O749 C728 1.260 . S
O749 Eu729 2.480 . S
O750 Eu729 2.430 . S
O750 C736 1.259 1_556 S
O751 Eu729 2.670 1_554 S
O751 C736 1.270 . S
O751 Eu739 2.355 . S
O752 Eu729 2.394 . S
O752 C737 1.251 . S
O753 C737 1.251 1_554 S
O753 Eu739 2.374 . S
O754 C738 1.257 . S
O754 Eu739 2.473 . S
O755 C738 1.260 . S
O755 Eu739 2.480 . S
O756 Eu739 2.430 . S
O756 C746 1.259 1_554 S
O757 Eu729 2.355 . S
O757 Eu739 2.670 1_556 S
O757 C746 1.270 . S
O758 Eu739 2.394 . S
O758 C747 1.251 . S
O759 Eu729 2.370 . S
O759 C747 1.256 1_556 S
H760 C731 0.931 . S
H761 C732 0.931 . S
H762 C734 0.931 . S
H763 C735 0.931 . S
H764 C741 0.931 . S
H765 C742 0.931 . S
H766 C744 0.931 . S
H767 C745 0.931 . S
C768 Eu769 2.835 . S
C768 C770 1.500 . S
C768 O788 1.257 . S
C768 O789 1.260 . S
Eu769 C768 2.835 . S
Eu769 O788 2.473 . S
Eu769 O789 2.480 . S
Eu769 O790 2.430 . S
Eu769 O791 2.670 . S
Eu769 O792 2.394 . S
Eu769 O797 2.355 . S
Eu769 O799 2.374 . S
C770 C768 1.500 . S
C770 C771 1.377 . S
C770 C775 1.377 . S
C771 C770 1.377 . S
C771 C772 1.395 . S
C771 H800 0.931 . S
C772 C771 1.395 . S
C772 C773 1.383 . S
C772 H801 0.931 . S
C773 C772 1.383 . S
C773 C774 1.394 . S
C774 C773 1.394 . S
C774 C775 1.378 . S
C774 H802 0.931 . S
C775 C770 1.377 . S
C775 C774 1.378 . S
C775 H803 0.931 . S
C776 O790 1.259 . S
C776 O791 1.270 . S
C777 O792 1.251 . S
C777 O793 1.251 . S
C778 Eu779 2.835 . S
C778 C780 1.500 . S
C778 O794 1.257 . S
C778 O795 1.260 . S
Eu779 C778 2.835 . S
Eu779 O791 2.355 . S
Eu779 O793 2.374 . S
Eu779 O794 2.473 . S
Eu779 O795 2.480 . S
Eu779 O796 2.430 . S
Eu779 O797 2.670 . S
Eu779 O798 2.394 . S
C780 C778 1.500 . S
C780 C781 1.377 . S
C780 C785 1.377 . S
C781 C780 1.377 . S
C781 C782 1.395 . S
C781 H804 0.931 . S
C782 C781 1.395 . S
C782 C783 1.383 . S
C782 H805 0.931 . S
C783 C782 1.383 . S
C783 C784 1.394 . S
C784 C783 1.394 . S
C784 C785 1.378 . S
C784 H806 0.931 . S
C785 C780 1.377 . S
C785 C784 1.378 . S
C785 H807 0.931 . S
C786 O796 1.259 . S
C786 O797 1.270 . S
C787 O798 1.251 . S
C787 O799 1.251 . S
O788 C768 1.257 . S
O788 Eu769 2.473 . S
O789 C768 1.260 . S
O789 Eu769 2.480 . S
O790 Eu769 2.430 . S
O790 C776 1.259 . S
O791 Eu769 2.670 . S
O791 C776 1.270 . S
O791 Eu779 2.355 . S
O792 Eu769 2.394 . S
O792 C777 1.251 . S
O793 C777 1.251 . S
O793 Eu779 2.374 . S
O794 C778 1.257 . S
O794 Eu779 2.473 . S
O795 C778 1.260 . S
O795 Eu779 2.480 . S
O796 Eu779 2.430 . S
O796 C786 1.259 . S
O797 Eu769 2.355 . S
O797 Eu779 2.670 . S
O797 C786 1.270 . S
O798 Eu779 2.394 . S
O798 C787 1.251 . S
O799 Eu769 2.374 . S
O799 C787 1.251 . S
H800 C771 0.931 . S
H801 C772 0.931 . S
H802 C774 0.931 . S
H803 C775 0.931 . S
H804 C781 0.931 . S
H805 C782 0.931 . S
H806 C784 0.931 . S
H807 C785 0.931 . S
C808 Eu809 2.835 . S
C808 C810 1.500 . S
C808 O828 1.257 . S
C808 O829 1.260 . S
Eu809 C808 2.835 . S
Eu809 O828 2.473 . S
Eu809 O829 2.480 . S
Eu809 O830 2.430 . S
Eu809 O831 2.670 . S
Eu809 O832 2.394 . S
Eu809 O837 2.355 . S
Eu809 O839 2.374 . S
C810 C808 1.500 . S
C810 C811 1.377 . S
C810 C815 1.377 . S
C811 C810 1.377 . S
C811 C812 1.395 . S
C811 H840 0.931 . S
C812 C811 1.395 . S
C812 C813 1.383 . S
C812 H841 0.931 . S
C813 C812 1.383 . S
C813 C814 1.394 . S
C814 C813 1.394 . S
C814 C815 1.378 . S
C814 H842 0.931 . S
C815 C810 1.377 . S
C815 C814 1.378 . S
C815 H843 0.931 . S
C816 O830 1.259 . S
C816 O831 1.270 . S
C817 O832 1.251 . S
C817 O833 1.251 . S
C818 Eu819 2.835 . S
C818 C820 1.500 . S
C818 O834 1.257 . S
C818 O835 1.260 . S
Eu819 C818 2.835 . S
Eu819 O831 2.355 . S
Eu819 O833 2.374 . S
Eu819 O834 2.473 . S
Eu819 O835 2.480 . S
Eu819 O836 2.430 . S
Eu819 O837 2.670 . S
Eu819 O838 2.394 . S
C820 C818 1.500 . S
C820 C821 1.377 . S
C820 C825 1.377 . S
C821 C820 1.377 . S
C821 C822 1.395 . S
C821 H844 0.931 . S
C822 C821 1.395 . S
C822 C823 1.383 . S
C822 H845 0.931 . S
C823 C822 1.383 . S
C823 C824 1.394 . S
C824 C823 1.394 . S
C824 C825 1.378 . S
C824 H846 0.931 . S
C825 C820 1.377 . S
C825 C824 1.378 . S
C825 H847 0.931 . S
C826 O836 1.259 . S
C826 O837 1.270 . S
C827 O838 1.251 . S
C827 O839 1.251 . S
O828 C808 1.257 . S
O828 Eu809 2.473 . S
O829 C808 1.260 . S
O829 Eu809 2.480 . S
O830 Eu809 2.430 . S
O830 C816 1.259 . S
O831 Eu809 2.670 . S
O831 C816 1.270 . S
O831 Eu819 2.355 . S
O832 Eu809 2.394 . S
O832 C817 1.251 . S
O833 C817 1.251 . S
O833 Eu819 2.374 . S
O834 C818 1.257 . S
O834 Eu819 2.473 . S
O835 C818 1.260 . S
O835 Eu819 2.480 . S
O836 Eu819 2.430 . S
O836 C826 1.259 . S
O837 Eu809 2.355 . S
O837 Eu819 2.670 . S
O837 C826 1.270 . S
O838 Eu819 2.394 . S
O838 C827 1.251 . S
O839 Eu809 2.374 . S
O839 C827 1.251 . S
H840 C811 0.931 . S
H841 C812 0.931 . S
H842 C814 0.931 . S
H843 C815 0.931 . S
H844 C821 0.931 . S
H845 C822 0.931 . S
H846 C824 0.931 . S
H847 C825 0.931 . S
C848 Eu849 2.835 . S
C848 C850 1.500 . S
C848 O868 1.257 . S
C848 O869 1.260 . S
Eu849 C848 2.835 . S
Eu849 O868 2.473 . S
Eu849 O869 2.480 . S
Eu849 O870 2.430 . S
Eu849 O871 2.670 . S
Eu849 O872 2.394 . S
Eu849 O877 2.355 . S
Eu849 O879 2.374 . S
C850 C848 1.500 . S
C850 C851 1.377 . S
C850 C855 1.377 . S
C851 C850 1.377 . S
C851 C852 1.395 . S
C851 H880 0.931 . S
C852 C851 1.395 . S
C852 C853 1.383 . S
C852 H881 0.931 . S
C853 C852 1.383 . S
C853 C854 1.394 . S
C854 C853 1.394 . S
C854 C855 1.378 . S
C854 H882 0.931 . S
C855 C850 1.377 . S
C855 C854 1.378 . S
C855 H883 0.931 . S
C856 O870 1.259 . S
C856 O871 1.270 . S
C857 O872 1.251 . S
C857 O873 1.251 . S
C858 Eu859 2.835 . S
C858 C860 1.500 . S
C858 O874 1.257 . S
C858 O875 1.260 . S
Eu859 C858 2.835 . S
Eu859 O871 2.355 . S
Eu859 O873 2.374 . S
Eu859 O874 2.473 . S
Eu859 O875 2.480 . S
Eu859 O876 2.430 . S
Eu859 O877 2.670 . S
Eu859 O878 2.394 . S
C860 C858 1.500 . S
C860 C861 1.377 . S
C860 C865 1.377 . S
C861 C860 1.377 . S
C861 C862 1.395 . S
C861 H884 0.931 . S
C862 C861 1.395 . S
C862 C863 1.383 . S
C862 H885 0.931 . S
C863 C862 1.383 . S
C863 C864 1.394 . S
C864 C863 1.394 . S
C864 C865 1.378 . S
C864 H886 0.931 . S
C865 C860 1.377 . S
C865 C864 1.378 . S
C865 H887 0.931 . S
C866 O876 1.259 . S
C866 O877 1.270 . S
C867 O878 1.251 . S
C867 O879 1.251 . S
O868 C848 1.257 . S
O868 Eu849 2.473 . S
O869 C848 1.260 . S
O869 Eu849 2.480 . S
O870 Eu849 2.430 . S
O870 C856 1.259 . S
O871 Eu849 2.670 . S
O871 C856 1.270 . S
O871 Eu859 2.355 . S
O872 Eu849 2.394 . S
O872 C857 1.251 . S
O873 C857 1.251 . S
O873 Eu859 2.374 . S
O874 C858 1.257 . S
O874 Eu859 2.473 . S
O875 C858 1.260 . S
O875 Eu859 2.480 . S
O876 Eu859 2.430 . S
O876 C866 1.259 . S
O877 Eu849 2.355 . S
O877 Eu859 2.670 . S
O877 C866 1.270 . S
O878 Eu859 2.394 . S
O878 C867 1.251 . S
O879 Eu849 2.374 . S
O879 C867 1.251 . S
H880 C851 0.931 . S
H881 C852 0.931 . S
H882 C854 0.931 . S
H883 C855 0.931 . S
H884 C861 0.931 . S
H885 C862 0.931 . S
H886 C864 0.931 . S
H887 C865 0.931 . S
C888 Eu889 2.835 . S
C888 C890 1.500 . S
C888 O908 1.257 . S
C888 O909 1.260 . S
Eu889 C888 2.835 . S
Eu889 O908 2.473 . S
Eu889 O909 2.480 . S
Eu889 O910 2.430 . S
Eu889 O911 2.670 . S
Eu889 O912 2.394 . S
Eu889 O917 2.355 . S
Eu889 O919 2.374 . S
C890 C888 1.500 . S
C890 C891 1.377 . S
C890 C895 1.377 . S
C891 C890 1.377 . S
C891 C892 1.395 . S
C891 H920 0.931 . S
C892 C891 1.395 . S
C892 C893 1.383 . S
C892 H921 0.931 . S
C893 C892 1.383 . S
C893 C894 1.394 . S
C894 C893 1.394 . S
C894 C895 1.378 . S
C894 H922 0.931 . S
C895 C890 1.377 . S
C895 C894 1.378 . S
C895 H923 0.931 . S
C896 O910 1.259 . S
C896 O911 1.270 . S
C897 O912 1.251 . S
C897 O913 1.251 . S
C898 Eu899 2.835 . S
C898 C900 1.500 . S
C898 O914 1.257 . S
C898 O915 1.260 . S
Eu899 C898 2.835 . S
Eu899 O911 2.355 . S
Eu899 O913 2.374 . S
Eu899 O914 2.473 . S
Eu899 O915 2.480 . S
Eu899 O916 2.430 . S
Eu899 O917 2.670 . S
Eu899 O918 2.394 . S
C900 C898 1.500 . S
C900 C901 1.377 . S
C900 C905 1.377 . S
C901 C900 1.377 . S
C901 C902 1.395 . S
C901 H924 0.931 . S
C902 C901 1.395 . S
C902 C903 1.383 . S
C902 H925 0.931 . S
C903 C902 1.383 . S
C903 C904 1.394 . S
C904 C903 1.394 . S
C904 C905 1.378 . S
C904 H926 0.931 . S
C905 C900 1.377 . S
C905 C904 1.378 . S
C905 H927 0.931 . S
C906 O916 1.259 . S
C906 O917 1.270 . S
C907 O918 1.251 . S
C907 O919 1.251 . S
O908 C888 1.257 . S
O908 Eu889 2.473 . S
O909 C888 1.260 . S
O909 Eu889 2.480 . S
O910 Eu889 2.430 . S
O910 C896 1.259 . S
O911 Eu889 2.670 . S
O911 C896 1.270 . S
O911 Eu899 2.355 . S
O912 Eu889 2.394 . S
O912 C897 1.251 . S
O913 C897 1.251 . S
O913 Eu899 2.374 . S
O914 C898 1.257 . S
O914 Eu899 2.473 . S
O915 C898 1.260 . S
O915 Eu899 2.480 . S
O916 Eu899 2.430 . S
O916 C906 1.259 . S
O917 Eu889 2.355 . S
O917 Eu899 2.670 . S
O917 C906 1.270 . S
O918 Eu899 2.394 . S
O918 C907 1.251 . S
O919 Eu889 2.374 . S
O919 C907 1.251 . S
H920 C891 0.931 . S
H921 C892 0.931 . S
H922 C894 0.931 . S
H923 C895 0.931 . S
H924 C901 0.931 . S
H925 C902 0.931 . S
H926 C904 0.931 . S
H927 C905 0.931 . S
C928 Eu929 2.835 . S
C928 C930 1.500 . S
C928 O948 1.257 . S
C928 O949 1.260 . S
Eu929 C928 2.835 . S
Eu929 O948 2.473 . S
Eu929 O949 2.480 . S
Eu929 O950 2.430 . S
Eu929 O951 2.670 . S
Eu929 O952 2.394 . S
Eu929 O957 2.355 . S
Eu929 O959 2.374 . S
C930 C928 1.500 . S
C930 C931 1.377 . S
C930 C935 1.377 . S
C931 C930 1.377 . S
C931 C932 1.395 . S
C931 H960 0.931 . S
C932 C931 1.395 . S
C932 C933 1.383 . S
C932 H961 0.931 . S
C933 C932 1.383 . S
C933 C934 1.394 . S
C934 C933 1.394 . S
C934 C935 1.378 . S
C934 H962 0.931 . S
C935 C930 1.377 . S
C935 C934 1.378 . S
C935 H963 0.931 . S
C936 O950 1.259 . S
C936 O951 1.270 . S
C937 O952 1.251 . S
C937 O953 1.251 . S
C938 Eu939 2.835 . S
C938 C940 1.500 . S
C938 O954 1.257 . S
C938 O955 1.260 . S
Eu939 C938 2.835 . S
Eu939 O951 2.355 . S
Eu939 O953 2.374 . S
Eu939 O954 2.473 . S
Eu939 O955 2.480 . S
Eu939 O956 2.430 . S
Eu939 O957 2.670 . S
Eu939 O958 2.394 . S
C940 C938 1.500 . S
C940 C941 1.377 . S
C940 C945 1.377 . S
C941 C940 1.377 . S
C941 C942 1.395 . S
C941 H964 0.931 . S
C942 C941 1.395 . S
C942 C943 1.383 . S
C942 H965 0.931 . S
C943 C942 1.383 . S
C943 C944 1.394 . S
C944 C943 1.394 . S
C944 C945 1.378 . S
C944 H966 0.931 . S
C945 C940 1.377 . S
C945 C944 1.378 . S
C945 H967 0.931 . S
C946 O956 1.259 . S
C946 O957 1.270 . S
C947 O958 1.251 . S
C947 O959 1.251 . S
O948 C928 1.257 . S
O948 Eu929 2.473 . S
O949 C928 1.260 . S
O949 Eu929 2.480 . S
O950 Eu929 2.430 . S
O950 C936 1.259 . S
O951 Eu929 2.670 . S
O951 C936 1.270 . S
O951 Eu939 2.355 . S
O952 Eu929 2.394 . S
O952 C937 1.251 . S
O953 C937 1.251 . S
O953 Eu939 2.374 . S
O954 C938 1.257 . S
O954 Eu939 2.473 . S
O955 C938 1.260 . S
O955 Eu939 2.480 . S
O956 Eu939 2.430 . S
O956 C946 1.259 . S
O957 Eu929 2.355 . S
O957 Eu939 2.670 . S
O957 C946 1.270 . S
O958 Eu939 2.394 . S
O958 C947 1.251 . S
O959 Eu929 2.374 . S
O959 C947 1.251 . S
H960 C931 0.931 . S
H961 C932 0.931 . S
H962 C934 0.931 . S
H963 C935 0.931 . S
H964 C941 0.931 . S
H965 C942 0.931 . S
H966 C944 0.931 . S
H967 C945 0.931 . S
C968 Eu969 2.835 . S
C968 C970 1.500 . S
C968 O988 1.257 . S
C968 O989 1.260 . S
Eu969 C968 2.835 . S
Eu969 O988 2.473 . S
Eu969 O989 2.480 . S
Eu969 O990 2.430 . S
Eu969 O991 2.670 . S
Eu969 O992 2.394 . S
Eu969 O997 2.355 . S
Eu969 O999 2.374 . S
C970 C968 1.500 . S
C970 C971 1.377 . S
C970 C975 1.377 . S
C971 C970 1.377 . S
C971 C972 1.395 . S
C971 H1000 0.931 . S
C972 C971 1.395 . S
C972 C973 1.383 . S
C972 H1001 0.931 . S
C973 C972 1.383 . S
C973 C974 1.394 . S
C974 C973 1.394 . S
C974 C975 1.378 . S
C974 H1002 0.931 . S
C975 C970 1.377 . S
C975 C974 1.378 . S
C975 H1003 0.931 . S
C976 O990 1.259 . S
C976 O991 1.270 . S
C977 O992 1.251 . S
C977 O993 1.251 . S
C978 Eu979 2.835 . S
C978 C980 1.500 . S
C978 O994 1.257 . S
C978 O995 1.260 . S
Eu979 C978 2.835 . S
Eu979 O991 2.355 . S
Eu979 O993 2.374 . S
Eu979 O994 2.473 . S
Eu979 O995 2.480 . S
Eu979 O996 2.430 . S
Eu979 O997 2.670 . S
Eu979 O998 2.394 . S
C980 C978 1.500 . S
C980 C981 1.377 . S
C980 C985 1.377 . S
C981 C980 1.377 . S
C981 C982 1.395 . S
C981 H1004 0.931 . S
C982 C981 1.395 . S
C982 C983 1.383 . S
C982 H1005 0.931 . S
C983 C982 1.383 . S
C983 C984 1.394 . S
C984 C983 1.394 . S
C984 C985 1.378 . S
C984 H1006 0.931 . S
C985 C980 1.377 . S
C985 C984 1.378 . S
C985 H1007 0.931 . S
C986 O996 1.259 . S
C986 O997 1.270 . S
C987 O998 1.251 . S
C987 O999 1.251 . S
O988 C968 1.257 . S
O988 Eu969 2.473 . S
O989 C968 1.260 . S
O989 Eu969 2.480 . S
O990 Eu969 2.430 . S
O990 C976 1.259 . S
O991 Eu969 2.670 . S
O991 C976 1.270 . S
O991 Eu979 2.355 . S
O992 Eu969 2.394 . S
O992 C977 1.251 . S
O993 C977 1.251 . S
O993 Eu979 2.374 . S
O994 C978 1.257 . S
O994 Eu979 2.473 . S
O995 C978 1.260 . S
O995 Eu979 2.480 . S
O996 Eu979 2.430 . S
O996 C986 1.259 . S
O997 Eu969 2.355 . S
O997 Eu979 2.670 . S
O997 C986 1.270 . S
O998 Eu979 2.394 . S
O998 C987 1.251 . S
O999 Eu969 2.374 . S
O999 C987 1.251 . S
H1000 C971 0.931 . S
H1001 C972 0.931 . S
H1002 C974 0.931 . S
H1003 C975 0.931 . S
H1004 C981 0.931 . S
H1005 C982 0.931 . S
H1006 C984 0.931 . S
H1007 C985 0.931 . S
H1008 C1014 0.930 . S
H1009 C1018 0.930 1_556 S
H1010 C1023 0.929 . S
H1011 C1021 0.929 . S
H1012 C1016 0.929 . S
H1013 C1022 0.929 . S
C1014 H1008 0.930 . S
C1014 C1015 1.367 . S
C1014 C1022 1.378 . S
C1015 C1014 1.367 . S
C1015 C1023 1.433 . S
C1016 H1012 0.929 . S
C1016 C1018 1.378 . S
C1016 C1020 1.350 . S
C1017 C1020 1.463 . S
C1017 C1022 1.350 . S
C1017 N1025 1.427 . S
C1018 H1009 0.930 1_554 S
C1018 C1016 1.378 . S
C1018 C1019 1.367 . S
C1019 C1018 1.367 . S
C1019 C1021 1.433 . S
C1020 C1016 1.350 . S
C1020 C1017 1.463 . S
C1020 N1024 1.427 . S
C1021 H1011 0.929 . S
C1021 C1019 1.433 . S
C1021 N1024 1.384 . S
C1022 H1013 0.929 . S
C1022 C1014 1.378 . S
C1022 C1017 1.350 . S
C1023 H1010 0.929 . S
C1023 C1015 1.433 . S
C1023 N1025 1.384 . S
N1024 C1020 1.427 . S
N1024 C1021 1.384 . S
N1025 C1017 1.427 . S
N1025 C1023 1.384 . S
H1026 C1032 0.930 . S
H1027 C1036 0.930 . S
H1028 C1041 0.929 . S
H1029 C1039 0.929 . S
H1030 C1034 0.929 . S
H1031 C1040 0.929 . S
C1032 H1026 0.930 . S
C1032 C1033 1.367 . S
C1032 C1040 1.378 . S
C1033 C1032 1.367 . S
C1033 C1041 1.433 . S
C1034 H1030 0.929 . S
C1034 C1036 1.378 . S
C1034 C1038 1.350 . S
C1035 C1038 1.463 . S
C1035 C1040 1.350 . S
C1035 N1043 1.427 . S
C1036 H1027 0.930 . S
C1036 C1034 1.378 . S
C1036 C1037 1.367 . S
C1037 C1036 1.367 . S
C1037 C1039 1.433 . S
C1038 C1034 1.350 . S
C1038 C1035 1.463 . S
C1038 N1042 1.427 . S
C1039 H1029 0.929 . S
C1039 C1037 1.433 . S
C1039 N1042 1.384 . S
C1040 H1031 0.929 . S
C1040 C1032 1.378 . S
C1040 C1035 1.350 . S
C1041 H1028 0.929 . S
C1041 C1033 1.433 . S
C1041 N1043 1.384 . S
N1042 C1038 1.427 . S
N1042 C1039 1.384 . S
N1043 C1035 1.427 . S
N1043 C1041 1.384 . S
H1044 C1050 0.930 . S
H1045 C1054 0.930 . S
H1046 C1059 0.929 . S
H1047 C1057 0.929 . S
H1048 C1052 0.929 . S
H1049 C1058 0.929 . S
C1050 H1044 0.930 . S
C1050 C1051 1.367 . S
C1050 C1058 1.378 . S
C1051 C1050 1.367 . S
C1051 C1059 1.433 . S
C1052 H1048 0.929 . S
C1052 C1054 1.378 . S
C1052 C1056 1.350 . S
C1053 C1056 1.463 . S
C1053 C1058 1.350 . S
C1053 N1061 1.427 . S
C1054 H1045 0.930 . S
C1054 C1052 1.378 . S
C1054 C1055 1.367 . S
C1055 C1054 1.367 . S
C1055 C1057 1.433 . S
C1056 C1052 1.350 . S
C1056 C1053 1.463 . S
C1056 N1060 1.427 . S
C1057 H1047 0.929 . S
C1057 C1055 1.433 . S
C1057 N1060 1.384 . S
C1058 H1049 0.929 . S
C1058 C1050 1.378 . S
C1058 C1053 1.350 . S
C1059 H1046 0.929 . S
C1059 C1051 1.433 . S
C1059 N1061 1.384 . S
N1060 C1056 1.427 . S
N1060 C1057 1.384 . S
N1061 C1053 1.427 . S
N1061 C1059 1.384 . S
H1062 C1068 0.930 . S
H1063 C1072 0.930 . S
H1064 C1077 0.929 . S
H1065 C1075 0.916 1_554 S
H1066 C1070 0.929 . S
H1067 C1076 0.929 . S
C1068 H1062 0.930 . S
C1068 C1069 1.367 . S
C1068 C1076 1.378 . S
C1069 C1068 1.367 . S
C1069 C1077 1.433 . S
C1070 H1066 0.929 . S
C1070 C1072 1.378 . S
C1070 C1074 1.350 . S
C1071 C1074 1.463 . S
C1071 C1076 1.350 . S
C1071 N1079 1.427 . S
C1072 H1063 0.930 . S
C1072 C1070 1.378 . S
C1072 C1073 1.367 . S
C1073 C1072 1.367 . S
C1073 C1075 1.445 . S
C1074 C1070 1.350 . S
C1074 C1071 1.463 . S
C1074 N1078 1.427 . S
C1075 H1065 0.916 1_556 S
C1075 C1073 1.445 . S
C1075 N1078 1.386 . S
C1076 H1067 0.929 . S
C1076 C1068 1.378 . S
C1076 C1071 1.350 . S
C1077 H1064 0.929 . S
C1077 C1069 1.433 . S
C1077 N1079 1.384 . S
N1078 C1074 1.427 . S
N1078 C1075 1.386 . S
N1079 C1071 1.427 . S
N1079 C1077 1.384 . S
H1080 C1086 0.930 . S
H1081 C1090 0.930 . S
H1082 C1095 0.929 . S
H1083 C1093 0.929 . S
H1084 C1088 0.929 . S
H1085 C1094 0.929 . S
C1086 H1080 0.930 . S
C1086 C1087 1.367 . S
C1086 C1094 1.378 . S
C1087 C1086 1.367 . S
C1087 C1095 1.433 . S
C1088 H1084 0.929 . S
C1088 C1090 1.378 . S
C1088 C1092 1.350 . S
C1089 C1092 1.463 . S
C1089 C1094 1.350 . S
C1089 N1097 1.427 . S
C1090 H1081 0.930 . S
C1090 C1088 1.378 . S
C1090 C1091 1.367 . S
C1091 C1090 1.367 . S
C1091 C1093 1.433 . S
C1092 C1088 1.350 . S
C1092 C1089 1.463 . S
C1092 N1096 1.427 . S
C1093 H1083 0.929 . S
C1093 C1091 1.433 . S
C1093 N1096 1.384 . S
C1094 H1085 0.929 . S
C1094 C1086 1.378 . S
C1094 C1089 1.350 . S
C1095 H1082 0.929 . S
C1095 C1087 1.433 . S
C1095 N1097 1.384 . S
N1096 C1092 1.427 . S
N1096 C1093 1.384 . S
N1097 C1089 1.427 . S
N1097 C1095 1.384 . S
H1098 C1104 0.930 . S
H1099 C1108 0.930 . S
H1100 C1113 0.929 . S
H1101 C1111 0.902 1_554 S
H1102 C1106 0.929 . S
H1103 C1112 0.929 . S
C1104 H1098 0.930 . S
C1104 C1105 1.367 . S
C1104 C1112 1.378 . S
C1105 C1104 1.367 . S
C1105 C1113 1.433 . S
C1106 H1102 0.929 . S
C1106 C1108 1.378 . S
C1106 C1110 1.350 . S
C1107 C1110 1.463 . S
C1107 C1112 1.350 . S
C1107 N1115 1.427 . S
C1108 H1099 0.930 . S
C1108 C1106 1.378 . S
C1108 C1109 1.367 . S
C1109 C1108 1.367 . S
C1109 C1111 1.452 . S
C1110 C1106 1.350 . S
C1110 C1107 1.463 . S
C1110 N1114 1.427 . S
C1111 H1101 0.902 1_556 S
C1111 C1109 1.452 . S
C1111 N1114 1.396 . S
C1112 H1103 0.929 . S
C1112 C1104 1.378 . S
C1112 C1107 1.350 . S
C1113 H1100 0.929 . S
C1113 C1105 1.433 . S
C1113 N1115 1.384 . S
N1114 C1110 1.427 . S
N1114 C1111 1.396 . S
N1115 C1107 1.427 . S
N1115 C1113 1.384 . S
H1116 C1122 0.930 . S
H1117 C1126 0.930 . S
H1118 C1131 0.929 . S
H1119 C1129 0.929 . S
H1120 C1124 0.929 . S
H1121 C1130 0.929 . S
C1122 H1116 0.930 . S
C1122 C1123 1.367 . S
C1122 C1130 1.378 . S
C1123 C1122 1.367 . S
C1123 C1131 1.433 . S
C1124 H1120 0.929 . S
C1124 C1126 1.378 . S
C1124 C1128 1.350 . S
C1125 C1128 1.463 . S
C1125 C1130 1.350 . S
C1125 N1133 1.427 . S
C1126 H1117 0.930 . S
C1126 C1124 1.378 . S
C1126 C1127 1.367 . S
C1127 C1126 1.367 . S
C1127 C1129 1.433 . S
C1128 C1124 1.350 . S
C1128 C1125 1.463 . S
C1128 N1132 1.427 . S
C1129 H1119 0.929 . S
C1129 C1127 1.433 . S
C1129 N1132 1.384 . S
C1130 H1121 0.929 . S
C1130 C1122 1.378 . S
C1130 C1125 1.350 . S
C1131 H1118 0.929 . S
C1131 C1123 1.433 . S
C1131 N1133 1.384 . S
N1132 C1128 1.427 . S
N1132 C1129 1.384 . S
N1133 C1125 1.427 . S
N1133 C1131 1.384 . S
H1134 C1140 0.930 . S
H1135 C1144 0.930 . S
H1136 C1149 0.929 . S
H1137 C1147 0.929 . S
H1138 C1142 0.929 . S
H1139 C1148 0.929 . S
C1140 H1134 0.930 . S
C1140 C1141 1.367 . S
C1140 C1148 1.378 . S
C1141 C1140 1.367 . S
C1141 C1149 1.433 . S
C1142 H1138 0.929 . S
C1142 C1144 1.378 . S
C1142 C1146 1.350 . S
C1143 C1146 1.463 . S
C1143 C1148 1.350 . S
C1143 N1151 1.427 . S
C1144 H1135 0.930 . S
C1144 C1142 1.378 . S
C1144 C1145 1.367 . S
C1145 C1144 1.367 . S
C1145 C1147 1.433 . S
C1146 C1142 1.350 . S
C1146 C1143 1.463 . S
C1146 N1150 1.427 . S
C1147 H1137 0.929 . S
C1147 C1145 1.433 . S
C1147 N1150 1.384 . S
C1148 H1139 0.929 . S
C1148 C1140 1.378 . S
C1148 C1143 1.350 . S
C1149 H1136 0.929 . S
C1149 C1141 1.433 . S
C1149 N1151 1.384 . S
N1150 C1146 1.427 . S
N1150 C1147 1.384 . S
N1151 C1143 1.427 . S
N1151 C1149 1.384 . S
H1152 C1158 0.930 . S
H1153 C1162 0.930 . S
H1154 C1167 0.929 . S
H1155 C1165 0.929 . S
H1156 C1160 0.929 . S
H1157 C1166 0.929 . S
C1158 H1152 0.930 . S
C1158 C1159 1.367 . S
C1158 C1166 1.378 . S
C1159 C1158 1.367 . S
C1159 C1167 1.433 . S
C1160 H1156 0.929 . S
C1160 C1162 1.378 . S
C1160 C1164 1.350 . S
C1161 C1164 1.463 . S
C1161 C1166 1.350 . S
C1161 N1169 1.427 . S
C1162 H1153 0.930 . S
C1162 C1160 1.378 . S
C1162 C1163 1.367 . S
C1163 C1162 1.367 . S
C1163 C1165 1.433 . S
C1164 C1160 1.350 . S
C1164 C1161 1.463 . S
C1164 N1168 1.427 . S
C1165 H1155 0.929 . S
C1165 C1163 1.433 . S
C1165 N1168 1.384 . S
C1166 H1157 0.929 . S
C1166 C1158 1.378 . S
C1166 C1161 1.350 . S
C1167 H1154 0.929 . S
C1167 C1159 1.433 . S
C1167 N1169 1.384 . S
N1168 C1164 1.427 . S
N1168 C1165 1.384 . S
N1169 C1161 1.427 . S
N1169 C1167 1.384 . S
H1170 C1176 0.930 . S
H1171 C1180 0.930 1_556 S
H1172 C1185 0.929 . S
H1173 C1183 0.929 . S
H1174 C1178 0.929 . S
H1175 C1184 0.929 . S
C1176 H1170 0.930 . S
C1176 C1177 1.367 . S
C1176 C1184 1.378 . S
C1177 C1176 1.367 . S
C1177 C1185 1.433 . S
C1178 H1174 0.929 . S
C1178 C1180 1.378 . S
C1178 C1182 1.350 . S
C1179 C1182 1.463 . S
C1179 C1184 1.350 . S
C1179 N1187 1.427 . S
C1180 H1171 0.930 1_554 S
C1180 C1178 1.378 . S
C1180 C1181 1.367 . S
C1181 C1180 1.367 . S
C1181 C1183 1.433 . S
C1182 C1178 1.350 . S
C1182 C1179 1.463 . S
C1182 N1186 1.427 . S
C1183 H1173 0.929 . S
C1183 C1181 1.433 . S
C1183 N1186 1.384 . S
C1184 H1175 0.929 . S
C1184 C1176 1.378 . S
C1184 C1179 1.350 . S
C1185 H1172 0.929 . S
C1185 C1177 1.433 . S
C1185 N1187 1.384 . S
N1186 C1182 1.427 . S
N1186 C1183 1.384 . S
N1187 C1179 1.427 . S
N1187 C1185 1.384 . S
H1188 C1194 0.930 . S
H1189 C1198 0.930 . S
H1190 C1203 0.929 . S
H1191 C1201 0.929 . S
H1192 C1196 0.929 . S
H1193 C1202 0.929 . S
C1194 H1188 0.930 . S
C1194 C1195 1.367 . S
C1194 C1202 1.378 . S
C1195 C1194 1.367 . S
C1195 C1203 1.433 . S
C1196 H1192 0.929 . S
C1196 C1198 1.378 . S
C1196 C1200 1.350 . S
C1197 C1200 1.463 . S
C1197 C1202 1.350 . S
C1197 N1205 1.427 . S
C1198 H1189 0.930 . S
C1198 C1196 1.378 . S
C1198 C1199 1.367 . S
C1199 C1198 1.367 . S
C1199 C1201 1.433 . S
C1200 C1196 1.350 . S
C1200 C1197 1.463 . S
C1200 N1204 1.427 . S
C1201 H1191 0.929 . S
C1201 C1199 1.433 . S
C1201 N1204 1.384 . S
C1202 H1193 0.929 . S
C1202 C1194 1.378 . S
C1202 C1197 1.350 . S
C1203 H1190 0.929 . S
C1203 C1195 1.433 . S
C1203 N1205 1.384 . S
N1204 C1200 1.427 . S
N1204 C1201 1.384 . S
N1205 C1197 1.427 . S
N1205 C1203 1.384 . S
H1206 C1212 0.930 . S
H1207 C1216 0.930 . S
H1208 C1221 0.929 . S
H1209 C1219 0.929 1_556 S
H1210 C1214 0.929 . S
H1211 C1220 0.929 . S
C1212 H1206 0.930 . S
C1212 C1213 1.367 . S
C1212 C1220 1.378 . S
C1213 C1212 1.367 . S
C1213 C1221 1.433 . S
C1214 H1210 0.929 . S
C1214 C1216 1.378 . S
C1214 C1218 1.350 . S
C1215 C1218 1.463 . S
C1215 C1220 1.350 . S
C1215 N1223 1.427 . S
C1216 H1207 0.930 . S
C1216 C1214 1.378 . S
C1216 C1217 1.367 . S
C1217 C1216 1.367 . S
C1217 C1219 1.433 . S
C1218 C1214 1.350 . S
C1218 C1215 1.463 . S
C1218 N1222 1.427 . S
C1219 H1209 0.929 1_554 S
C1219 C1217 1.433 . S
C1219 N1222 1.384 . S
C1220 H1211 0.929 . S
C1220 C1212 1.378 . S
C1220 C1215 1.350 . S
C1221 H1208 0.929 . S
C1221 C1213 1.433 . S
C1221 N1223 1.384 . S
N1222 C1218 1.427 . S
N1222 C1219 1.384 . S
N1223 C1215 1.427 . S
N1223 C1221 1.384 . S
H1224 C1230 0.930 . S
H1225 C1234 0.930 . S
H1226 C1239 0.929 . S
H1227 C1237 0.929 . S
H1228 C1232 0.929 . S
H1229 C1238 0.929 . S
C1230 H1224 0.930 . S
C1230 C1231 1.367 . S
C1230 C1238 1.378 1_655 S
C1231 C1230 1.367 . S
C1231 C1239 1.433 . S
C1232 H1228 0.929 . S
C1232 C1234 1.378 . S
C1232 C1236 1.350 . S
C1233 C1236 1.463 . S
C1233 C1238 1.350 . S
C1233 N1241 1.427 . S
C1234 H1225 0.930 . S
C1234 C1232 1.378 . S
C1234 C1235 1.367 . S
C1235 C1234 1.367 . S
C1235 C1237 1.433 . S
C1236 C1232 1.350 . S
C1236 C1233 1.463 . S
C1236 N1240 1.427 . S
C1237 H1227 0.929 . S
C1237 C1235 1.433 . S
C1237 N1240 1.384 . S
C1238 H1229 0.929 . S
C1238 C1230 1.378 1_455 S
C1238 C1233 1.350 . S
C1239 H1226 0.929 . S
C1239 C1231 1.433 . S
C1239 N1241 1.384 1_655 S
N1240 C1236 1.427 . S
N1240 C1237 1.384 . S
N1241 C1233 1.427 . S
N1241 C1239 1.384 1_455 S
H1242 C1248 0.930 . S
H1243 C1252 0.930 . S
H1244 C1257 0.929 . S
H1245 C1255 0.929 . S
H1246 C1250 0.929 . S
H1247 C1256 0.929 . S
C1248 H1242 0.930 . S
C1248 C1249 1.367 . S
C1248 C1256 1.378 . S
C1249 C1248 1.367 . S
C1249 C1257 1.433 . S
C1250 H1246 0.929 . S
C1250 C1252 1.378 . S
C1250 C1254 1.350 . S
C1251 C1254 1.463 . S
C1251 C1256 1.350 . S
C1251 N1259 1.427 . S
C1252 H1243 0.930 . S
C1252 C1250 1.378 . S
C1252 C1253 1.367 . S
C1253 C1252 1.367 . S
C1253 C1255 1.433 . S
C1254 C1250 1.350 . S
C1254 C1251 1.463 . S
C1254 N1258 1.427 . S
C1255 H1245 0.929 . S
C1255 C1253 1.433 . S
C1255 N1258 1.384 . S
C1256 H1247 0.929 . S
C1256 C1248 1.378 . S
C1256 C1251 1.350 . S
C1257 H1244 0.929 . S
C1257 C1249 1.433 . S
C1257 N1259 1.384 . S
N1258 C1254 1.427 . S
N1258 C1255 1.384 . S
N1259 C1251 1.427 . S
N1259 C1257 1.384 . S
H1260 C1266 0.930 . S
H1261 C1270 0.930 . S
H1262 C1275 0.929 . S
H1263 C1273 0.929 . S
H1264 C1268 0.929 . S
H1265 C1274 0.929 1_565 S
C1266 H1260 0.930 . S
C1266 C1267 1.367 . S
C1266 C1274 1.378 . S
C1267 C1266 1.367 . S
C1267 C1275 1.433 . S
C1268 H1264 0.929 . S
C1268 C1270 1.378 . S
C1268 C1272 1.350 . S
C1269 C1272 1.463 . S
C1269 C1274 1.350 1_565 S
C1269 N1277 1.400 1_565 S
C1270 H1261 0.930 . S
C1270 C1268 1.378 . S
C1270 C1271 1.367 . S
C1271 C1270 1.367 . S
C1271 C1273 1.433 . S
C1272 C1268 1.350 . S
C1272 C1269 1.463 . S
C1272 N1276 1.427 . S
C1273 H1263 0.929 . S
C1273 C1271 1.433 . S
C1273 N1276 1.384 . S
C1274 H1265 0.929 1_545 S
C1274 C1266 1.378 . S
C1274 C1269 1.350 1_545 S
C1275 H1262 0.929 . S
C1275 C1267 1.433 . S
C1275 N1277 1.425 . S
N1276 C1272 1.427 . S
N1276 C1273 1.384 . S
N1277 C1269 1.400 1_545 S
N1277 C1275 1.425 . S
H1278 C1284 0.930 . S
H1279 C1288 0.930 . S
H1280 C1293 0.929 . S
H1281 C1291 0.929 . S
H1282 C1286 0.929 . S
H1283 C1292 0.929 . S
C1284 H1278 0.930 . S
C1284 C1285 1.367 . S
C1284 C1292 1.378 . S
C1285 C1284 1.367 . S
C1285 C1293 1.433 . S
C1286 H1282 0.929 . S
C1286 C1288 1.378 . S
C1286 C1290 1.350 . S
C1287 C1290 1.463 . S
C1287 C1292 1.350 . S
C1287 N1295 1.427 . S
C1288 H1279 0.930 . S
C1288 C1286 1.378 . S
C1288 C1289 1.367 . S
C1289 C1288 1.367 . S
C1289 C1291 1.433 . S
C1290 C1286 1.350 . S
C1290 C1287 1.463 . S
C1290 N1294 1.427 . S
C1291 H1281 0.929 . S
C1291 C1289 1.433 . S
C1291 N1294 1.384 . S
C1292 H1283 0.929 . S
C1292 C1284 1.378 . S
C1292 C1287 1.350 . S
C1293 H1280 0.929 . S
C1293 C1285 1.433 . S
C1293 N1295 1.384 . S
N1294 C1290 1.427 . S
N1294 C1291 1.384 . S
N1295 C1287 1.427 . S
N1295 C1293 1.384 . S
H1296 C1302 0.930 . S
H1297 C1306 0.930 . S
H1298 C1311 0.929 . S
H1299 C1309 0.929 . S
H1300 C1304 0.929 . S
H1301 C1310 0.929 . S
C1302 H1296 0.930 . S
C1302 C1303 1.367 . S
C1302 C1310 1.378 . S
C1303 C1302 1.367 . S
C1303 C1311 1.433 . S
C1304 H1300 0.929 . S
C1304 C1306 1.378 . S
C1304 C1308 1.350 . S
C1305 C1308 1.463 . S
C1305 C1310 1.350 . S
C1305 N1313 1.427 . S
C1306 H1297 0.930 . S
C1306 C1304 1.378 . S
C1306 C1307 1.367 . S
C1307 C1306 1.367 . S
C1307 C1309 1.433 . S
C1308 C1304 1.350 . S
C1308 C1305 1.463 . S
C1308 N1312 1.427 . S
C1309 H1299 0.929 . S
C1309 C1307 1.433 . S
C1309 N1312 1.384 . S
C1310 H1301 0.929 . S
C1310 C1302 1.378 . S
C1310 C1305 1.350 . S
C1311 H1298 0.929 . S
C1311 C1303 1.433 . S
C1311 N1313 1.384 . S
N1312 C1308 1.427 . S
N1312 C1309 1.384 . S
N1313 C1305 1.427 . S
N1313 C1311 1.384 . S
H1314 C1320 0.930 . S
H1315 C1324 0.930 . S
H1316 C1329 0.929 . S
H1317 C1327 0.929 . S
H1318 C1322 0.929 . S
H1319 C1328 0.929 . S
C1320 H1314 0.930 . S
C1320 C1321 1.367 . S
C1320 C1328 1.378 . S
C1321 C1320 1.367 . S
C1321 C1329 1.433 . S
C1322 H1318 0.929 . S
C1322 C1324 1.378 . S
C1322 C1326 1.350 . S
C1323 C1326 1.463 . S
C1323 C1328 1.350 . S
C1323 N1331 1.427 . S
C1324 H1315 0.930 . S
C1324 C1322 1.378 . S
C1324 C1325 1.367 . S
C1325 C1324 1.367 . S
C1325 C1327 1.433 . S
C1326 C1322 1.350 . S
C1326 C1323 1.463 . S
C1326 N1330 1.427 . S
C1327 H1317 0.929 . S
C1327 C1325 1.433 . S
C1327 N1330 1.384 . S
C1328 H1319 0.929 . S
C1328 C1320 1.378 . S
C1328 C1323 1.350 . S
C1329 H1316 0.929 . S
C1329 C1321 1.433 . S
C1329 N1331 1.384 . S
N1330 C1326 1.427 . S
N1330 C1327 1.384 . S
N1331 C1323 1.427 . S
N1331 C1329 1.384 . S
H1332 C1338 0.930 . S
H1333 C1342 0.930 . S
H1334 C1347 0.929 . S
H1335 C1345 0.929 . S
H1336 C1340 0.929 . S
H1337 C1346 0.929 . S
C1338 H1332 0.930 . S
C1338 C1339 1.367 . S
C1338 C1346 1.378 . S
C1339 C1338 1.367 . S
C1339 C1347 1.433 . S
C1340 H1336 0.929 . S
C1340 C1342 1.378 . S
C1340 C1344 1.350 . S
C1341 C1344 1.463 . S
C1341 C1346 1.350 . S
C1341 N1349 1.427 . S
C1342 H1333 0.930 . S
C1342 C1340 1.378 . S
C1342 C1343 1.367 . S
C1343 C1342 1.367 . S
C1343 C1345 1.433 . S
C1344 C1340 1.350 . S
C1344 C1341 1.463 . S
C1344 N1348 1.427 . S
C1345 H1335 0.929 . S
C1345 C1343 1.433 . S
C1345 N1348 1.384 . S
C1346 H1337 0.929 . S
C1346 C1338 1.378 . S
C1346 C1341 1.350 . S
C1347 H1334 0.929 . S
C1347 C1339 1.433 . S
C1347 N1349 1.384 . S
N1348 C1344 1.427 . S
N1348 C1345 1.384 . S
N1349 C1341 1.427 . S
N1349 C1347 1.384 . S
H1350 C1356 0.930 . S
H1351 C1360 0.930 . S
H1352 C1365 0.929 . S
H1353 C1363 0.929 . S
H1354 C1358 0.929 . S
H1355 C1364 0.929 . S
C1356 H1350 0.930 . S
C1356 C1357 1.367 . S
C1356 C1364 1.378 . S
C1357 C1356 1.367 . S
C1357 C1365 1.433 . S
C1358 H1354 0.929 . S
C1358 C1360 1.378 . S
C1358 C1362 1.350 . S
C1359 C1362 1.463 . S
C1359 C1364 1.350 . S
C1359 N1367 1.427 . S
C1360 H1351 0.930 . S
C1360 C1358 1.378 . S
C1360 C1361 1.367 . S
C1361 C1360 1.367 . S
C1361 C1363 1.433 . S
C1362 C1358 1.350 . S
C1362 C1359 1.463 . S
C1362 N1366 1.427 . S
C1363 H1353 0.929 . S
C1363 C1361 1.433 . S
C1363 N1366 1.384 . S
C1364 H1355 0.929 . S
C1364 C1356 1.378 . S
C1364 C1359 1.350 . S
C1365 H1352 0.929 . S
C1365 C1357 1.433 . S
C1365 N1367 1.384 . S
N1366 C1362 1.427 . S
N1366 C1363 1.384 . S
N1367 C1359 1.427 . S
N1367 C1365 1.384 . S
H1368 C1374 0.930 . S
H1369 C1378 0.930 . S
H1370 C1383 0.929 . S
H1371 C1381 0.929 . S
H1372 C1376 0.929 . S
H1373 C1382 0.929 . S
C1374 H1368 0.930 . S
C1374 C1375 1.367 . S
C1374 C1382 1.378 . S
C1375 C1374 1.367 . S
C1375 C1383 1.433 . S
C1376 H1372 0.929 . S
C1376 C1378 1.378 . S
C1376 C1380 1.350 . S
C1377 C1380 1.463 . S
C1377 C1382 1.350 . S
C1377 N1385 1.427 . S
C1378 H1369 0.930 . S
C1378 C1376 1.378 . S
C1378 C1379 1.367 . S
C1379 C1378 1.367 . S
C1379 C1381 1.433 . S
C1380 C1376 1.350 . S
C1380 C1377 1.463 . S
C1380 N1384 1.427 . S
C1381 H1371 0.929 . S
C1381 C1379 1.433 . S
C1381 N1384 1.384 . S
C1382 H1373 0.929 . S
C1382 C1374 1.378 . S
C1382 C1377 1.350 . S
C1383 H1370 0.929 . S
C1383 C1375 1.433 . S
C1383 N1385 1.384 . S
N1384 C1380 1.427 . S
N1384 C1381 1.384 . S
N1385 C1377 1.427 . S
N1385 C1383 1.384 . S
H1386 C1392 0.930 . S
H1387 C1396 0.930 . S
H1388 C1401 0.929 . S
H1389 C1399 0.929 . S
H1390 C1394 0.929 . S
H1391 C1400 0.931 . S
C1392 H1386 0.930 . S
C1392 C1393 1.367 . S
C1392 C1400 1.363 1_545 S
C1393 C1392 1.367 . S
C1393 C1401 1.433 . S
C1394 H1390 0.929 . S
C1394 C1396 1.378 . S
C1394 C1398 1.350 . S
C1395 C1398 1.463 . S
C1395 C1400 1.362 . S
C1395 N1403 1.427 . S
C1396 H1387 0.930 . S
C1396 C1394 1.378 . S
C1396 C1397 1.367 . S
C1397 C1396 1.367 . S
C1397 C1399 1.433 . S
C1398 C1394 1.350 . S
C1398 C1395 1.463 . S
C1398 N1402 1.427 . S
C1399 H1389 0.929 . S
C1399 C1397 1.433 . S
C1399 N1402 1.384 . S
C1400 H1391 0.931 . S
C1400 C1392 1.363 1_565 S
C1400 C1395 1.362 . S
C1401 H1388 0.929 . S
C1401 C1393 1.433 . S
C1401 N1403 1.384 1_545 S
N1402 C1398 1.427 . S
N1402 C1399 1.384 . S
N1403 C1395 1.427 . S
N1403 C1401 1.384 1_565 S
H1404 C1410 0.930 . S
H1405 C1414 0.930 . S
H1406 C1419 0.929 . S
H1407 C1417 0.929 . S
H1408 C1412 0.929 . S
H1409 C1418 0.929 . S
C1410 H1404 0.930 . S
C1410 C1411 1.367 . S
C1410 C1418 1.378 1_655 S
C1411 C1410 1.367 . S
C1411 C1419 1.433 1_655 S
C1412 H1408 0.929 . S
C1412 C1414 1.378 . S
C1412 C1416 1.350 . S
C1413 C1416 1.463 . S
C1413 C1418 1.350 . S
C1413 N1421 1.427 . S
C1414 H1405 0.930 . S
C1414 C1412 1.378 . S
C1414 C1415 1.367 . S
C1415 C1414 1.367 . S
C1415 C1417 1.433 . S
C1416 C1412 1.350 . S
C1416 C1413 1.463 . S
C1416 N1420 1.427 . S
C1417 H1407 0.929 . S
C1417 C1415 1.433 . S
C1417 N1420 1.384 . S
C1418 H1409 0.929 . S
C1418 C1410 1.378 1_455 S
C1418 C1413 1.350 . S
C1419 H1406 0.929 . S
C1419 C1411 1.433 1_455 S
C1419 N1421 1.384 . S
N1420 C1416 1.427 . S
N1420 C1417 1.384 . S
N1421 C1413 1.427 . S
N1421 C1419 1.384 . S
H1422 C1428 0.930 . S
H1423 C1432 0.930 . S
H1424 C1437 0.929 . S
H1425 C1435 0.929 . S
H1426 C1430 0.929 . S
H1427 C1436 0.929 . S
C1428 H1422 0.930 . S
C1428 C1429 1.367 . S
C1428 C1436 1.378 . S
C1429 C1428 1.367 . S
C1429 C1437 1.433 . S
C1430 H1426 0.929 . S
C1430 C1432 1.378 . S
C1430 C1434 1.350 . S
C1431 C1434 1.463 . S
C1431 C1436 1.350 . S
C1431 N1439 1.427 . S
C1432 H1423 0.930 . S
C1432 C1430 1.378 . S
C1432 C1433 1.367 . S
C1433 C1432 1.367 . S
C1433 C1435 1.433 . S
C1434 C1430 1.350 . S
C1434 C1431 1.463 . S
C1434 N1438 1.427 . S
C1435 H1425 0.929 . S
C1435 C1433 1.433 . S
C1435 N1438 1.384 . S
C1436 H1427 0.929 . S
C1436 C1428 1.378 . S
C1436 C1431 1.350 . S
C1437 H1424 0.929 . S
C1437 C1429 1.433 . S
C1437 N1439 1.384 . S
N1438 C1434 1.427 . S
N1438 C1435 1.384 . S
N1439 C1431 1.427 . S
N1439 C1437 1.384 . S
H1440 C1446 0.930 . S
H1441 C1450 0.930 . S
H1442 C1455 0.929 . S
H1443 C1453 0.929 . S
H1444 C1448 0.929 . S
H1445 C1454 0.929 . S
C1446 H1440 0.930 . S
C1446 C1447 1.367 . S
C1446 C1454 1.378 . S
C1447 C1446 1.367 . S
C1447 C1455 1.433 . S
C1448 H1444 0.929 . S
C1448 C1450 1.378 . S
C1448 C1452 1.350 . S
C1449 C1452 1.463 . S
C1449 C1454 1.350 . S
C1449 N1457 1.427 . S
C1450 H1441 0.930 . S
C1450 C1448 1.378 . S
C1450 C1451 1.367 . S
C1451 C1450 1.367 . S
C1451 C1453 1.433 . S
C1452 C1448 1.350 . S
C1452 C1449 1.463 . S
C1452 N1456 1.427 . S
C1453 H1443 0.929 . S
C1453 C1451 1.433 . S
C1453 N1456 1.384 . S
C1454 H1445 0.929 . S
C1454 C1446 1.378 . S
C1454 C1449 1.350 . S
C1455 H1442 0.929 . S
C1455 C1447 1.433 . S
C1455 N1457 1.384 . S
N1456 C1452 1.427 . S
N1456 C1453 1.384 . S
N1457 C1449 1.427 . S
N1457 C1455 1.384 . S
H1458 C1464 0.930 . S
H1459 C1468 0.930 . S
H1460 C1473 0.929 . S
H1461 C1471 0.929 . S
H1462 C1466 0.929 . S
H1463 C1472 0.929 . S
C1464 H1458 0.930 . S
C1464 C1465 1.367 . S
C1464 C1472 1.378 . S
C1465 C1464 1.367 . S
C1465 C1473 1.433 . S
C1466 H1462 0.929 . S
C1466 C1468 1.378 . S
C1466 C1470 1.350 . S
C1467 C1470 1.463 . S
C1467 C1472 1.350 . S
C1467 N1475 1.427 . S
C1468 H1459 0.930 . S
C1468 C1466 1.378 . S
C1468 C1469 1.367 . S
C1469 C1468 1.367 . S
C1469 C1471 1.433 . S
C1470 C1466 1.350 . S
C1470 C1467 1.463 . S
C1470 N1474 1.427 . S
C1471 H1461 0.929 . S
C1471 C1469 1.433 . S
C1471 N1474 1.384 . S
C1472 H1463 0.929 . S
C1472 C1464 1.378 . S
C1472 C1467 1.350 . S
C1473 H1460 0.929 . S
C1473 C1465 1.433 . S
C1473 N1475 1.384 . S
N1474 C1470 1.427 . S
N1474 C1471 1.384 . S
N1475 C1467 1.427 . S
N1475 C1473 1.384 . S
H1476 C1482 0.930 . S
H1477 C1486 0.930 . S
H1478 C1491 0.929 . S
H1479 C1489 0.929 . S
H1480 C1484 0.929 . S
H1481 C1490 0.929 . S
C1482 H1476 0.930 . S
C1482 C1483 1.367 . S
C1482 C1490 1.378 . S
C1483 C1482 1.367 . S
C1483 C1491 1.433 . S
C1484 H1480 0.929 . S
C1484 C1486 1.378 . S
C1484 C1488 1.350 . S
C1485 C1488 1.463 . S
C1485 C1490 1.350 . S
C1485 N1493 1.427 . S
C1486 H1477 0.930 . S
C1486 C1484 1.378 . S
C1486 C1487 1.367 . S
C1487 C1486 1.367 . S
C1487 C1489 1.433 . S
C1488 C1484 1.350 . S
C1488 C1485 1.463 . S
C1488 N1492 1.427 . S
C1489 H1479 0.929 . S
C1489 C1487 1.433 . S
C1489 N1492 1.384 . S
C1490 H1481 0.929 . S
C1490 C1482 1.378 . S
C1490 C1485 1.350 . S
C1491 H1478 0.929 . S
C1491 C1483 1.433 . S
C1491 N1493 1.384 . S
N1492 C1488 1.427 . S
N1492 C1489 1.384 . S
N1493 C1485 1.427 . S
N1493 C1491 1.384 . S
H1494 C1500 0.930 . S
H1495 C1504 0.930 . S
H1496 C1509 0.929 . S
H1497 C1507 0.929 . S
H1498 C1502 0.929 . S
H1499 C1508 0.929 . S
C1500 H1494 0.930 . S
C1500 C1501 1.367 . S
C1500 C1508 1.378 1_565 S
C1501 C1500 1.367 . S
C1501 C1509 1.433 . S
C1502 H1498 0.929 . S
C1502 C1504 1.378 . S
C1502 C1506 1.350 . S
C1503 C1506 1.463 . S
C1503 C1508 1.350 . S
C1503 N1511 1.436 . S
C1504 H1495 0.930 . S
C1504 C1502 1.378 . S
C1504 C1505 1.367 . S
C1505 C1504 1.367 . S
C1505 C1507 1.433 . S
C1506 C1502 1.350 . S
C1506 C1503 1.463 . S
C1506 N1510 1.427 . S
C1507 H1497 0.929 . S
C1507 C1505 1.433 . S
C1507 N1510 1.384 . S
C1508 H1499 0.929 . S
C1508 C1500 1.378 1_545 S
C1508 C1503 1.350 . S
C1509 H1496 0.929 . S
C1509 C1501 1.433 . S
C1509 N1511 1.362 1_565 S
N1510 C1506 1.427 . S
N1510 C1507 1.384 . S
N1511 C1503 1.436 . S
N1511 C1509 1.362 1_545 S
H1512 C1518 0.930 . S
H1513 C1522 0.930 . S
H1514 C1527 0.929 . S
H1515 C1525 0.929 . S
H1516 C1520 0.929 . S
H1517 C1526 0.929 . S
C1518 H1512 0.930 . S
C1518 C1519 1.367 . S
C1518 C1526 1.378 1_455 S
C1519 C1518 1.367 . S
C1519 C1527 1.436 . S
C1520 H1516 0.929 . S
C1520 C1522 1.378 . S
C1520 C1524 1.350 . S
C1521 C1524 1.463 . S
C1521 C1526 1.350 . S
C1521 N1529 1.427 . S
C1522 H1513 0.930 . S
C1522 C1520 1.378 . S
C1522 C1523 1.367 . S
C1523 C1522 1.367 . S
C1523 C1525 1.433 . S
C1524 C1520 1.350 . S
C1524 C1521 1.463 . S
C1524 N1528 1.427 . S
C1525 H1515 0.929 . S
C1525 C1523 1.433 . S
C1525 N1528 1.384 . S
C1526 H1517 0.929 . S
C1526 C1518 1.378 1_655 S
C1526 C1521 1.350 . S
C1527 H1514 0.929 . S
C1527 C1519 1.436 . S
C1527 N1529 1.381 1_455 S
N1528 C1524 1.427 . S
N1528 C1525 1.384 . S
N1529 C1521 1.427 . S
N1529 C1527 1.381 1_655 S
H1530 C1536 0.930 . S
H1531 C1540 0.930 . S
H1532 C1545 0.929 . S
H1533 C1543 0.929 . S
H1534 C1538 0.929 . S
H1535 C1544 0.929 . S
C1536 H1530 0.930 . S
C1536 C1537 1.367 . S
C1536 C1544 1.378 . S
C1537 C1536 1.367 . S
C1537 C1545 1.433 . S
C1538 H1534 0.929 . S
C1538 C1540 1.378 . S
C1538 C1542 1.350 . S
C1539 C1542 1.463 . S
C1539 C1544 1.350 . S
C1539 N1547 1.427 . S
C1540 H1531 0.930 . S
C1540 C1538 1.378 . S
C1540 C1541 1.367 . S
C1541 C1540 1.367 . S
C1541 C1543 1.433 . S
C1542 C1538 1.350 . S
C1542 C1539 1.463 . S
C1542 N1546 1.427 . S
C1543 H1533 0.929 . S
C1543 C1541 1.433 . S
C1543 N1546 1.384 . S
C1544 H1535 0.929 . S
C1544 C1536 1.378 . S
C1544 C1539 1.350 . S
C1545 H1532 0.929 . S
C1545 C1537 1.433 . S
C1545 N1547 1.384 . S
N1546 C1542 1.427 . S
N1546 C1543 1.384 . S
N1547 C1539 1.427 . S
N1547 C1545 1.384 . S
H1548 C1554 0.930 . S
H1549 C1558 0.930 . S
H1550 C1563 0.929 . S
H1551 C1561 0.929 . S
H1552 C1556 0.929 . S
H1553 C1562 0.929 . S
C1554 H1548 0.930 . S
C1554 C1555 1.367 . S
C1554 C1562 1.378 1_455 S
C1555 C1554 1.367 . S
C1555 C1563 1.433 . S
C1556 H1552 0.929 . S
C1556 C1558 1.378 . S
C1556 C1560 1.350 . S
C1557 C1560 1.463 . S
C1557 C1562 1.350 . S
C1557 N1565 1.427 . S
C1558 H1549 0.930 . S
C1558 C1556 1.378 . S
C1558 C1559 1.367 . S
C1559 C1558 1.367 . S
C1559 C1561 1.433 . S
C1560 C1556 1.350 . S
C1560 C1557 1.463 . S
C1560 N1564 1.427 . S
C1561 H1551 0.929 . S
C1561 C1559 1.433 . S
C1561 N1564 1.384 . S
C1562 H1553 0.929 . S
C1562 C1554 1.378 1_655 S
C1562 C1557 1.350 . S
C1563 H1550 0.929 . S
C1563 C1555 1.433 . S
C1563 N1565 1.384 1_455 S
N1564 C1560 1.427 . S
N1564 C1561 1.384 . S
N1565 C1557 1.427 . S
N1565 C1563 1.384 1_655 S
H1566 C1572 0.930 . S
H1567 C1576 0.930 . S
H1568 C1581 0.929 . S
H1569 C1579 0.929 . S
H1570 C1574 0.929 . S
H1571 C1580 0.929 . S
C1572 H1566 0.930 . S
C1572 C1573 1.367 . S
C1572 C1580 1.378 . S
C1573 C1572 1.367 . S
C1573 C1581 1.433 . S
C1574 H1570 0.929 . S
C1574 C1576 1.378 . S
C1574 C1578 1.350 . S
C1575 C1578 1.463 . S
C1575 C1580 1.350 . S
C1575 N1583 1.427 . S
C1576 H1567 0.930 . S
C1576 C1574 1.378 . S
C1576 C1577 1.367 . S
C1577 C1576 1.367 . S
C1577 C1579 1.433 . S
C1578 C1574 1.350 . S
C1578 C1575 1.463 . S
C1578 N1582 1.427 . S
C1579 H1569 0.929 . S
C1579 C1577 1.433 . S
C1579 N1582 1.384 . S
C1580 H1571 0.929 . S
C1580 C1572 1.378 . S
C1580 C1575 1.350 . S
C1581 H1568 0.929 . S
C1581 C1573 1.433 . S
C1581 N1583 1.384 . S
N1582 C1578 1.427 . S
N1582 C1579 1.384 . S
N1583 C1575 1.427 . S
N1583 C1581 1.384 . S
H1584 C1590 0.930 . S
H1585 C1594 0.930 . S
H1586 C1599 0.929 . S
H1587 C1597 0.929 . S
H1588 C1592 0.929 . S
H1589 C1598 0.929 1_545 S
C1590 H1584 0.930 . S
C1590 C1591 1.367 . S
C1590 C1598 1.378 . S
C1591 C1590 1.367 . S
C1591 C1599 1.433 . S
C1592 H1588 0.929 . S
C1592 C1594 1.378 . S
C1592 C1596 1.350 . S
C1593 C1596 1.463 . S
C1593 C1598 1.350 1_545 S
C1593 N1601 1.426 . S
C1594 H1585 0.930 . S
C1594 C1592 1.378 . S
C1594 C1595 1.367 . S
C1595 C1594 1.367 . S
C1595 C1597 1.433 . S
C1596 C1592 1.350 . S
C1596 C1593 1.463 . S
C1596 N1600 1.427 . S
C1597 H1587 0.929 . S
C1597 C1595 1.433 . S
C1597 N1600 1.384 . S
C1598 H1589 0.929 1_565 S
C1598 C1590 1.378 . S
C1598 C1593 1.350 1_565 S
C1599 H1586 0.929 . S
C1599 C1591 1.433 . S
C1599 N1601 1.362 1_565 S
N1600 C1596 1.427 . S
N1600 C1597 1.384 . S
N1601 C1593 1.426 . S
N1601 C1599 1.362 1_545 S
H1602 C1608 0.930 . S
H1603 C1612 0.930 . S
H1604 C1617 0.929 . S
H1605 C1615 0.929 . S
H1606 C1610 0.929 . S
H1607 C1616 0.929 . S
C1608 H1602 0.930 . S
C1608 C1609 1.367 . S
C1608 C1616 1.378 . S
C1609 C1608 1.367 . S
C1609 C1617 1.433 . S
C1610 H1606 0.929 . S
C1610 C1612 1.378 . S
C1610 C1614 1.350 . S
C1611 C1614 1.463 . S
C1611 C1616 1.350 . S
C1611 N1619 1.427 . S
C1612 H1603 0.930 . S
C1612 C1610 1.378 . S
C1612 C1613 1.367 . S
C1613 C1612 1.367 . S
C1613 C1615 1.433 . S
C1614 C1610 1.350 . S
C1614 C1611 1.463 . S
C1614 N1618 1.427 . S
C1615 H1605 0.929 . S
C1615 C1613 1.433 . S
C1615 N1618 1.384 . S
C1616 H1607 0.929 . S
C1616 C1608 1.378 . S
C1616 C1611 1.350 . S
C1617 H1604 0.929 . S
C1617 C1609 1.433 . S
C1617 N1619 1.384 . S
N1618 C1614 1.427 . S
N1618 C1615 1.384 . S
N1619 C1611 1.427 . S
N1619 C1617 1.384 . S
H1620 C1626 0.930 . S
H1621 C1630 0.930 . S
H1622 C1635 0.929 . S
H1623 C1633 0.929 . S
H1624 C1628 0.929 . S
H1625 C1634 0.929 . S
C1626 H1620 0.930 . S
C1626 C1627 1.367 . S
C1626 C1634 1.378 . S
C1627 C1626 1.367 . S
C1627 C1635 1.433 . S
C1628 H1624 0.929 . S
C1628 C1630 1.378 . S
C1628 C1632 1.350 . S
C1629 C1632 1.463 . S
C1629 C1634 1.350 . S
C1629 N1637 1.427 . S
C1630 H1621 0.930 . S
C1630 C1628 1.378 . S
C1630 C1631 1.367 . S
C1631 C1630 1.367 . S
C1631 C1633 1.433 . S
C1632 C1628 1.350 . S
C1632 C1629 1.463 . S
C1632 N1636 1.427 . S
C1633 H1623 0.929 . S
C1633 C1631 1.433 . S
C1633 N1636 1.384 . S
C1634 H1625 0.929 . S
C1634 C1626 1.378 . S
C1634 C1629 1.350 . S
C1635 H1622 0.929 . S
C1635 C1627 1.433 . S
C1635 N1637 1.384 . S
N1636 C1632 1.427 . S
N1636 C1633 1.384 . S
N1637 C1629 1.427 . S
N1637 C1635 1.384 . S
H1638 C1644 0.930 . S
H1639 C1648 0.930 . S
H1640 C1653 0.929 . S
H1641 C1651 0.929 . S
H1642 C1646 0.929 . S
H1643 C1652 0.929 . S
C1644 H1638 0.930 . S
C1644 C1645 1.367 . S
C1644 C1652 1.378 . S
C1645 C1644 1.367 . S
C1645 C1653 1.433 . S
C1646 H1642 0.929 . S
C1646 C1648 1.378 . S
C1646 C1650 1.350 . S
C1647 C1650 1.463 . S
C1647 C1652 1.350 . S
C1647 N1655 1.427 . S
C1648 H1639 0.930 . S
C1648 C1646 1.378 . S
C1648 C1649 1.367 . S
C1649 C1648 1.367 . S
C1649 C1651 1.433 . S
C1650 C1646 1.350 . S
C1650 C1647 1.463 . S
C1650 N1654 1.427 . S
C1651 H1641 0.929 . S
C1651 C1649 1.433 . S
C1651 N1654 1.384 . S
C1652 H1643 0.929 . S
C1652 C1644 1.378 . S
C1652 C1647 1.350 . S
C1653 H1640 0.929 . S
C1653 C1645 1.433 . S
C1653 N1655 1.384 . S
N1654 C1650 1.427 . S
N1654 C1651 1.384 . S
N1655 C1647 1.427 . S
N1655 C1653 1.384 . S
H1656 C1662 0.930 . S
H1657 C1666 0.930 . S
H1658 C1671 0.933 . S
H1659 C1669 0.929 . S
H1660 C1664 0.929 . S
H1661 C1670 0.929 . S
C1662 H1656 0.930 . S
C1662 C1663 1.367 . S
C1662 C1670 1.378 . S
C1663 C1662 1.367 . S
C1663 C1671 1.433 . S
C1664 H1660 0.929 . S
C1664 C1666 1.378 . S
C1664 C1668 1.350 1_545 S
C1665 C1668 1.463 . S
C1665 C1670 1.350 . S
C1665 N1673 1.427 . S
C1666 H1657 0.930 . S
C1666 C1664 1.378 . S
C1666 C1667 1.367 1_545 S
C1667 C1666 1.367 1_565 S
C1667 C1669 1.433 . S
C1668 C1664 1.350 1_565 S
C1668 C1665 1.463 . S
C1668 N1672 1.427 . S
C1669 H1659 0.929 . S
C1669 C1667 1.433 . S
C1669 N1672 1.384 . S
C1670 H1661 0.929 . S
C1670 C1662 1.378 . S
C1670 C1665 1.350 . S
C1671 H1658 0.933 . S
C1671 C1663 1.433 . S
C1671 N1673 1.384 . S
N1672 C1668 1.427 . S
N1672 C1669 1.384 . S
N1673 C1665 1.427 . S
N1673 C1671 1.384 . S
H1674 C1680 0.930 . S
H1675 C1684 0.930 . S
H1676 C1689 0.929 . S
H1677 C1687 0.929 . S
H1678 C1682 0.929 . S
H1679 C1688 0.929 . S
C1680 H1674 0.930 . S
C1680 C1681 1.367 . S
C1680 C1688 1.378 . S
C1681 C1680 1.367 . S
C1681 C1689 1.433 1_455 S
C1682 H1678 0.929 . S
C1682 C1684 1.378 . S
C1682 C1686 1.350 1_655 S
C1683 C1686 1.463 . S
C1683 C1688 1.350 . S
C1683 N1691 1.427 1_455 S
C1684 H1675 0.930 . S
C1684 C1682 1.378 . S
C1684 C1685 1.367 1_655 S
C1685 C1684 1.367 1_455 S
C1685 C1687 1.433 . S
C1686 C1682 1.350 1_455 S
C1686 C1683 1.463 . S
C1686 N1690 1.427 . S
C1687 H1677 0.929 . S
C1687 C1685 1.433 . S
C1687 N1690 1.384 . S
C1688 H1679 0.929 . S
C1688 C1680 1.378 . S
C1688 C1683 1.350 . S
C1689 H1676 0.929 . S
C1689 C1681 1.433 1_655 S
C1689 N1691 1.384 . S
N1690 C1686 1.427 . S
N1690 C1687 1.384 . S
N1691 C1683 1.427 1_655 S
N1691 C1689 1.384 . S
H1692 C1698 0.930 . S
H1693 C1702 0.930 . S
H1694 C1707 0.929 . S
H1695 C1705 0.929 . S
H1696 C1700 0.929 . S
H1697 C1706 0.929 . S
C1698 H1692 0.930 . S
C1698 C1699 1.367 . S
C1698 C1706 1.378 . S
C1699 C1698 1.367 . S
C1699 C1707 1.433 . S
C1700 H1696 0.929 . S
C1700 C1702 1.378 . S
C1700 C1704 1.350 . S
C1701 C1704 1.463 . S
C1701 C1706 1.350 . S
C1701 N1709 1.427 . S
C1702 H1693 0.930 . S
C1702 C1700 1.378 . S
C1702 C1703 1.367 . S
C1703 C1702 1.367 . S
C1703 C1705 1.433 . S
C1704 C1700 1.350 . S
C1704 C1701 1.463 . S
C1704 N1708 1.427 . S
C1705 H1695 0.929 . S
C1705 C1703 1.433 . S
C1705 N1708 1.384 . S
C1706 H1697 0.929 . S
C1706 C1698 1.378 . S
C1706 C1701 1.350 . S
C1707 H1694 0.929 . S
C1707 C1699 1.433 . S
C1707 N1709 1.384 . S
N1708 C1704 1.427 . S
N1708 C1705 1.384 . S
N1709 C1701 1.427 . S
N1709 C1707 1.384 . S
H1710 C1716 0.930 . S
H1711 C1720 0.930 . S
H1712 C1725 0.929 . S
H1713 C1723 0.929 . S
H1714 C1718 0.929 . S
H1715 C1724 0.929 . S
C1716 H1710 0.930 . S
C1716 C1717 1.367 . S
C1716 C1724 1.378 . S
C1717 C1716 1.367 . S
C1717 C1725 1.433 . S
C1718 H1714 0.929 . S
C1718 C1720 1.378 . S
C1718 C1722 1.350 . S
C1719 C1722 1.463 . S
C1719 C1724 1.350 . S
C1719 N1727 1.427 . S
C1720 H1711 0.930 . S
C1720 C1718 1.378 . S
C1720 C1721 1.367 . S
C1721 C1720 1.367 . S
C1721 C1723 1.433 . S
C1722 C1718 1.350 . S
C1722 C1719 1.463 . S
C1722 N1726 1.427 . S
C1723 H1713 0.929 . S
C1723 C1721 1.433 . S
C1723 N1726 1.384 . S
C1724 H1715 0.929 . S
C1724 C1716 1.378 . S
C1724 C1719 1.350 . S
C1725 H1712 0.929 . S
C1725 C1717 1.433 . S
C1725 N1727 1.384 . S
N1726 C1722 1.427 . S
N1726 C1723 1.384 . S
N1727 C1719 1.427 . S
N1727 C1725 1.384 . S
H1728 C1734 0.930 . S
H1729 C1738 0.930 . S
H1730 C1743 0.929 . S
H1731 C1741 0.929 . S
H1732 C1736 0.929 . S
H1733 C1742 0.929 . S
C1734 H1728 0.930 . S
C1734 C1735 1.367 . S
C1734 C1742 1.378 . S
C1735 C1734 1.367 . S
C1735 C1743 1.433 . S
C1736 H1732 0.929 . S
C1736 C1738 1.378 . S
C1736 C1740 1.350 . S
C1737 C1740 1.463 . S
C1737 C1742 1.350 . S
C1737 N1745 1.427 . S
C1738 H1729 0.930 . S
C1738 C1736 1.378 . S
C1738 C1739 1.367 . S
C1739 C1738 1.367 . S
C1739 C1741 1.433 . S
C1740 C1736 1.350 . S
C1740 C1737 1.463 . S
C1740 N1744 1.427 . S
C1741 H1731 0.929 . S
C1741 C1739 1.433 . S
C1741 N1744 1.384 . S
C1742 H1733 0.929 . S
C1742 C1734 1.378 . S
C1742 C1737 1.350 . S
C1743 H1730 0.929 . S
C1743 C1735 1.433 . S
C1743 N1745 1.384 . S
N1744 C1740 1.427 . S
N1744 C1741 1.384 . S
N1745 C1737 1.427 . S
N1745 C1743 1.384 . S
H1746 C1752 0.930 . S
H1747 C1756 0.936 . S
H1748 C1761 0.929 . S
H1749 C1759 0.929 . S
H1750 C1754 0.907 1_565 S
H1751 C1760 0.929 . S
C1752 H1746 0.930 . S
C1752 C1753 1.367 . S
C1752 C1760 1.378 . S
C1753 C1752 1.367 . S
C1753 C1761 1.433 . S
C1754 H1750 0.907 1_545 S
C1754 C1756 1.376 1_545 S
C1754 C1758 1.350 . S
C1755 C1758 1.463 . S
C1755 C1760 1.350 . S
C1755 N1763 1.427 . S
C1756 H1747 0.936 . S
C1756 C1754 1.376 1_565 S
C1756 C1757 1.363 1_565 S
C1757 C1756 1.363 1_545 S
C1757 C1759 1.433 . S
C1758 C1754 1.350 . S
C1758 C1755 1.463 . S
C1758 N1762 1.427 . S
C1759 H1749 0.929 . S
C1759 C1757 1.433 . S
C1759 N1762 1.384 . S
C1760 H1751 0.929 . S
C1760 C1752 1.378 . S
C1760 C1755 1.350 . S
C1761 H1748 0.929 . S
C1761 C1753 1.433 . S
C1761 N1763 1.384 . S
N1762 C1758 1.427 . S
N1762 C1759 1.384 . S
N1763 C1755 1.427 . S
N1763 C1761 1.384 . S
H1764 C1770 0.930 . S
H1765 C1774 0.930 . S
H1766 C1779 0.929 . S
H1767 C1777 0.929 . S
H1768 C1772 0.929 . S
H1769 C1778 0.929 . S
C1770 H1764 0.930 . S
C1770 C1771 1.367 . S
C1770 C1778 1.378 . S
C1771 C1770 1.367 . S
C1771 C1779 1.433 . S
C1772 H1768 0.929 . S
C1772 C1774 1.378 . S
C1772 C1776 1.350 . S
C1773 C1776 1.463 . S
C1773 C1778 1.350 . S
C1773 N1781 1.427 . S
C1774 H1765 0.930 . S
C1774 C1772 1.378 . S
C1774 C1775 1.367 . S
C1775 C1774 1.367 . S
C1775 C1777 1.433 . S
C1776 C1772 1.350 . S
C1776 C1773 1.463 . S
C1776 N1780 1.427 . S
C1777 H1767 0.929 . S
C1777 C1775 1.433 . S
C1777 N1780 1.384 . S
C1778 H1769 0.929 . S
C1778 C1770 1.378 . S
C1778 C1773 1.350 . S
C1779 H1766 0.929 . S
C1779 C1771 1.433 . S
C1779 N1781 1.384 . S
N1780 C1776 1.427 . S
N1780 C1777 1.384 . S
N1781 C1773 1.427 . S
N1781 C1779 1.384 . S
H1782 C1788 0.930 . S
H1783 C1792 0.930 . S
H1784 C1797 0.929 . S
H1785 C1795 0.929 . S
H1786 C1790 0.929 . S
H1787 C1796 0.929 . S
C1788 H1782 0.930 . S
C1788 C1789 1.367 . S
C1788 C1796 1.378 . S
C1789 C1788 1.367 . S
C1789 C1797 1.433 . S
C1790 H1786 0.929 . S
C1790 C1792 1.378 . S
C1790 C1794 1.350 . S
C1791 C1794 1.463 . S
C1791 C1796 1.350 . S
C1791 N1799 1.427 . S
C1792 H1783 0.930 . S
C1792 C1790 1.378 . S
C1792 C1793 1.367 . S
C1793 C1792 1.367 . S
C1793 C1795 1.433 . S
C1794 C1790 1.350 . S
C1794 C1791 1.463 . S
C1794 N1798 1.427 . S
C1795 H1785 0.929 . S
C1795 C1793 1.433 . S
C1795 N1798 1.384 . S
C1796 H1787 0.929 . S
C1796 C1788 1.378 . S
C1796 C1791 1.350 . S
C1797 H1784 0.929 . S
C1797 C1789 1.433 . S
C1797 N1799 1.384 . S
N1798 C1794 1.427 . S
N1798 C1795 1.384 . S
N1799 C1791 1.427 . S
N1799 C1797 1.384 . S
H1800 C1806 0.930 . S
H1801 C1810 0.930 . S
H1802 C1815 0.929 . S
H1803 C1813 0.929 . S
H1804 C1808 0.929 . S
H1805 C1814 0.929 . S
C1806 H1800 0.930 . S
C1806 C1807 1.367 . S
C1806 C1814 1.378 . S
C1807 C1806 1.367 . S
C1807 C1815 1.433 . S
C1808 H1804 0.929 . S
C1808 C1810 1.378 . S
C1808 C1812 1.350 . S
C1809 C1812 1.463 . S
C1809 C1814 1.350 . S
C1809 N1817 1.427 . S
C1810 H1801 0.930 . S
C1810 C1808 1.378 . S
C1810 C1811 1.367 . S
C1811 C1810 1.367 . S
C1811 C1813 1.433 . S
C1812 C1808 1.350 . S
C1812 C1809 1.463 . S
C1812 N1816 1.427 . S
C1813 H1803 0.929 . S
C1813 C1811 1.433 . S
C1813 N1816 1.384 . S
C1814 H1805 0.929 . S
C1814 C1806 1.378 . S
C1814 C1809 1.350 . S
C1815 H1802 0.929 . S
C1815 C1807 1.433 . S
C1815 N1817 1.384 . S
N1816 C1812 1.427 . S
N1816 C1813 1.384 . S
N1817 C1809 1.427 . S
N1817 C1815 1.384 . S
H1818 C1824 0.930 . S
H1819 C1828 0.930 . S
H1820 C1833 0.929 . S
H1821 C1831 0.929 . S
H1822 C1826 0.929 . S
H1823 C1832 0.929 . S
C1824 H1818 0.930 . S
C1824 C1825 1.367 . S
C1824 C1832 1.378 . S
C1825 C1824 1.367 . S
C1825 C1833 1.433 . S
C1826 H1822 0.929 . S
C1826 C1828 1.378 . S
C1826 C1830 1.350 . S
C1827 C1830 1.463 . S
C1827 C1832 1.350 . S
C1827 N1835 1.427 . S
C1828 H1819 0.930 . S
C1828 C1826 1.378 . S
C1828 C1829 1.367 . S
C1829 C1828 1.367 . S
C1829 C1831 1.433 . S
C1830 C1826 1.350 . S
C1830 C1827 1.463 . S
C1830 N1834 1.427 . S
C1831 H1821 0.929 . S
C1831 C1829 1.433 . S
C1831 N1834 1.384 . S
C1832 H1823 0.929 . S
C1832 C1824 1.378 . S
C1832 C1827 1.350 . S
C1833 H1820 0.929 . S
C1833 C1825 1.433 . S
C1833 N1835 1.384 . S
N1834 C1830 1.427 . S
N1834 C1831 1.384 . S
N1835 C1827 1.427 . S
N1835 C1833 1.384 . S
H1836 C1842 0.930 . S
H1837 C1846 0.930 . S
H1838 C1851 0.929 . S
H1839 C1849 0.929 . S
H1840 C1844 0.929 . S
H1841 C1850 0.929 . S
C1842 H1836 0.930 . S
C1842 C1843 1.367 . S
C1842 C1850 1.378 . S
C1843 C1842 1.367 . S
C1843 C1851 1.433 . S
C1844 H1840 0.929 . S
C1844 C1846 1.378 . S
C1844 C1848 1.350 . S
C1845 C1848 1.463 . S
C1845 C1850 1.350 . S
C1845 N1853 1.427 . S
C1846 H1837 0.930 . S
C1846 C1844 1.378 . S
C1846 C1847 1.367 . S
C1847 C1846 1.367 . S
C1847 C1849 1.433 . S
C1848 C1844 1.350 . S
C1848 C1845 1.463 . S
C1848 N1852 1.427 . S
C1849 H1839 0.929 . S
C1849 C1847 1.433 . S
C1849 N1852 1.384 . S
C1850 H1841 0.929 . S
C1850 C1842 1.378 . S
C1850 C1845 1.350 . S
C1851 H1838 0.929 . S
C1851 C1843 1.433 . S
C1851 N1853 1.384 . S
N1852 C1848 1.427 . S
N1852 C1849 1.384 . S
N1853 C1845 1.427 . S
N1853 C1851 1.384 . S
H1854 C1860 0.930 . S
H1855 C1864 0.930 . S
H1856 C1869 0.929 . S
H1857 C1867 0.929 . S
H1858 C1862 0.929 . S
H1859 C1868 0.929 . S
C1860 H1854 0.930 . S
C1860 C1861 1.367 . S
C1860 C1868 1.378 . S
C1861 C1860 1.367 . S
C1861 C1869 1.433 . S
C1862 H1858 0.929 . S
C1862 C1864 1.378 . S
C1862 C1866 1.350 . S
C1863 C1866 1.463 . S
C1863 C1868 1.350 . S
C1863 N1871 1.427 . S
C1864 H1855 0.930 . S
C1864 C1862 1.378 . S
C1864 C1865 1.367 . S
C1865 C1864 1.367 . S
C1865 C1867 1.433 . S
C1866 C1862 1.350 . S
C1866 C1863 1.463 . S
C1866 N1870 1.427 . S
C1867 H1857 0.929 . S
C1867 C1865 1.433 . S
C1867 N1870 1.384 . S
C1868 H1859 0.929 . S
C1868 C1860 1.378 . S
C1868 C1863 1.350 . S
C1869 H1856 0.929 . S
C1869 C1861 1.433 . S
C1869 N1871 1.384 . S
N1870 C1866 1.427 . S
N1870 C1867 1.384 . S
N1871 C1863 1.427 . S
N1871 C1869 1.384 . S
H1872 C1878 0.930 . S
H1873 C1882 0.930 . S
H1874 C1887 0.929 . S
H1875 C1885 0.929 . S
H1876 C1880 0.929 . S
H1877 C1886 0.929 . S
C1878 H1872 0.930 . S
C1878 C1879 1.367 . S
C1878 C1886 1.378 . S
C1879 C1878 1.367 . S
C1879 C1887 1.433 . S
C1880 H1876 0.929 . S
C1880 C1882 1.378 . S
C1880 C1884 1.350 . S
C1881 C1884 1.463 . S
C1881 C1886 1.350 . S
C1881 N1889 1.427 . S
C1882 H1873 0.930 . S
C1882 C1880 1.378 . S
C1882 C1883 1.367 . S
C1883 C1882 1.367 . S
C1883 C1885 1.433 . S
C1884 C1880 1.350 . S
C1884 C1881 1.463 . S
C1884 N1888 1.427 . S
C1885 H1875 0.929 . S
C1885 C1883 1.433 . S
C1885 N1888 1.384 . S
C1886 H1877 0.929 . S
C1886 C1878 1.378 . S
C1886 C1881 1.350 . S
C1887 H1874 0.929 . S
C1887 C1879 1.433 . S
C1887 N1889 1.384 . S
N1888 C1884 1.427 . S
N1888 C1885 1.384 . S
N1889 C1881 1.427 . S
N1889 C1887 1.384 . S
H1890 C1896 0.930 . S
H1891 C1900 0.930 . S
H1892 C1905 0.929 . S
H1893 C1903 0.929 . S
H1894 C1898 0.929 . S
H1895 C1904 0.929 . S
C1896 H1890 0.930 . S
C1896 C1897 1.367 . S
C1896 C1904 1.378 . S
C1897 C1896 1.367 . S
C1897 C1905 1.433 . S
C1898 H1894 0.929 . S
C1898 C1900 1.378 . S
C1898 C1902 1.350 . S
C1899 C1902 1.463 . S
C1899 C1904 1.350 . S
C1899 N1907 1.427 . S
C1900 H1891 0.930 . S
C1900 C1898 1.378 . S
C1900 C1901 1.367 . S
C1901 C1900 1.367 . S
C1901 C1903 1.433 . S
C1902 C1898 1.350 . S
C1902 C1899 1.463 . S
C1902 N1906 1.427 . S
C1903 H1893 0.929 . S
C1903 C1901 1.433 . S
C1903 N1906 1.384 . S
C1904 H1895 0.929 . S
C1904 C1896 1.378 . S
C1904 C1899 1.350 . S
C1905 H1892 0.929 . S
C1905 C1897 1.433 . S
C1905 N1907 1.384 . S
N1906 C1902 1.427 . S
N1906 C1903 1.384 . S
N1907 C1899 1.427 . S
N1907 C1905 1.384 . S
H1908 C1914 0.930 . S
H1909 C1918 0.930 . S
H1910 C1923 0.929 . S
H1911 C1921 0.929 . S
H1912 C1916 0.929 . S
H1913 C1922 0.929 . S
C1914 H1908 0.930 . S
C1914 C1915 1.367 . S
C1914 C1922 1.378 . S
C1915 C1914 1.367 . S
C1915 C1923 1.433 . S
C1916 H1912 0.929 . S
C1916 C1918 1.378 . S
C1916 C1920 1.350 . S
C1917 C1920 1.463 . S
C1917 C1922 1.350 . S
C1917 N1925 1.427 . S
C1918 H1909 0.930 . S
C1918 C1916 1.378 . S
C1918 C1919 1.367 . S
C1919 C1918 1.367 . S
C1919 C1921 1.433 . S
C1920 C1916 1.350 . S
C1920 C1917 1.463 . S
C1920 N1924 1.427 . S
C1921 H1911 0.929 . S
C1921 C1919 1.433 . S
C1921 N1924 1.384 . S
C1922 H1913 0.929 . S
C1922 C1914 1.378 . S
C1922 C1917 1.350 . S
C1923 H1910 0.929 . S
C1923 C1915 1.433 . S
C1923 N1925 1.384 . S
N1924 C1920 1.427 . S
N1924 C1921 1.384 . S
N1925 C1917 1.427 . S
N1925 C1923 1.384 . S
H1926 C1932 0.930 . S
H1927 C1936 0.930 . S
H1928 C1941 0.929 . S
H1929 C1939 0.929 . S
H1930 C1934 0.929 . S
H1931 C1940 0.929 . S
C1932 H1926 0.930 . S
C1932 C1933 1.367 . S
C1932 C1940 1.378 . S
C1933 C1932 1.367 . S
C1933 C1941 1.433 . S
C1934 H1930 0.929 . S
C1934 C1936 1.378 . S
C1934 C1938 1.350 . S
C1935 C1938 1.463 . S
C1935 C1940 1.350 . S
C1935 N1943 1.427 . S
C1936 H1927 0.930 . S
C1936 C1934 1.378 . S
C1936 C1937 1.367 . S
C1937 C1936 1.367 . S
C1937 C1939 1.433 . S
C1938 C1934 1.350 . S
C1938 C1935 1.463 . S
C1938 N1942 1.427 . S
C1939 H1929 0.929 . S
C1939 C1937 1.433 . S
C1939 N1942 1.384 . S
C1940 H1931 0.929 . S
C1940 C1932 1.378 . S
C1940 C1935 1.350 . S
C1941 H1928 0.929 . S
C1941 C1933 1.433 . S
C1941 N1943 1.384 . S
N1942 C1938 1.427 . S
N1942 C1939 1.384 . S
N1943 C1935 1.427 . S
N1943 C1941 1.384 . S
H1944 C1950 0.930 . S
H1945 C1954 0.930 . S
H1946 C1959 0.929 . S
H1947 C1957 0.929 . S
H1948 C1952 0.929 . S
H1949 C1958 0.929 . S
C1950 H1944 0.930 . S
C1950 C1951 1.367 . S
C1950 C1958 1.378 . S
C1951 C1950 1.367 . S
C1951 C1959 1.433 . S
C1952 H1948 0.929 . S
C1952 C1954 1.378 . S
C1952 C1956 1.350 . S
C1953 C1956 1.463 . S
C1953 C1958 1.350 . S
C1953 N1961 1.427 . S
C1954 H1945 0.930 . S
C1954 C1952 1.378 . S
C1954 C1955 1.367 . S
C1955 C1954 1.367 . S
C1955 C1957 1.433 . S
C1956 C1952 1.350 . S
C1956 C1953 1.463 . S
C1956 N1960 1.427 . S
C1957 H1947 0.929 . S
C1957 C1955 1.433 . S
C1957 N1960 1.384 . S
C1958 H1949 0.929 . S
C1958 C1950 1.378 . S
C1958 C1953 1.350 . S
C1959 H1946 0.929 . S
C1959 C1951 1.433 . S
C1959 N1961 1.384 . S
N1960 C1956 1.427 . S
N1960 C1957 1.384 . S
N1961 C1953 1.427 . S
N1961 C1959 1.384 . S
H1962 C1968 0.930 . S
H1963 C1972 0.930 . S
H1964 C1977 0.929 . S
H1965 C1975 0.929 . S
H1966 C1970 0.929 . S
H1967 C1976 0.929 . S
C1968 H1962 0.930 . S
C1968 C1969 1.367 . S
C1968 C1976 1.378 . S
C1969 C1968 1.367 . S
C1969 C1977 1.433 . S
C1970 H1966 0.929 . S
C1970 C1972 1.378 . S
C1970 C1974 1.350 . S
C1971 C1974 1.463 . S
C1971 C1976 1.350 . S
C1971 N1979 1.427 . S
C1972 H1963 0.930 . S
C1972 C1970 1.378 . S
C1972 C1973 1.367 . S
C1973 C1972 1.367 . S
C1973 C1975 1.433 . S
C1974 C1970 1.350 . S
C1974 C1971 1.463 . S
C1974 N1978 1.427 . S
C1975 H1965 0.929 . S
C1975 C1973 1.433 . S
C1975 N1978 1.384 . S
C1976 H1967 0.929 . S
C1976 C1968 1.378 . S
C1976 C1971 1.350 . S
C1977 H1964 0.929 . S
C1977 C1969 1.433 . S
C1977 N1979 1.384 . S
N1978 C1974 1.427 . S
N1978 C1975 1.384 . S
N1979 C1971 1.427 . S
N1979 C1977 1.384 . S
C1015 C469 1.681 . S
C1019 C657 1.645 . S
C1033 C505 1.791 . S
C1037 C697 1.759 . S
C1051 C433 1.756 . S
C1055 C736 1.746 . S
C1069 C397 1.593 . S
C1073 C696 1.569 . S
C1091 C737 1.447 . S
C1087 C325 1.470 . S
C1105 C361 1.442 . S
C1109 C656 1.478 . S
C1127 C667 1.642 . S
C1123 C421 1.686 . S
C1145 C707 1.748 . S
C1141 C349 1.784 . S
C1159 C385 1.754 . S
C1163 C746 1.742 . S
C1177 C493 1.584 . S
C1181 C706 1.560 . S
C1195 C529 1.480 . S
C1199 C747 1.447 . S
C1217 C666 1.456 . S
C1213 C457 1.448 . S
C1235 C777 1.641 . S
C1231 C37 1.677 . S
C1249 C73 1.787 . S
C1253 C817 1.749 . S
C1267 C1 1.765 . S
C1271 C856 1.747 . S
C1285 C613 1.586 . S
C1289 C816 1.560 . S
C1303 C541 1.469 . S
C1307 C857 1.446 . S
C1321 C577 1.451 . S
C1325 C776 1.452 . S
C1339 C637 1.690 . S
C1343 C787 1.651 . S
C1357 C565 1.786 . S
C1361 C827 1.756 . S
C1379 C866 1.750 . S
C1375 C601 1.755 . S
C1393 C61 1.591 . S
C1397 C826 1.571 . S
C1415 C867 1.448 . S
C1411 C97 1.479 . S
C1429 C25 1.446 . S
C1433 C786 1.448 . S
C1451 C897 1.643 . S
C1447 C253 1.677 . S
C1465 C289 1.787 . S
C1469 C937 1.751 . S
C1487 C976 1.746 . S
C1483 C217 1.764 . S
C1505 C936 1.559 . S
C1501 C181 1.589 . S
C1523 C977 1.446 . S
C1519 C109 1.470 . S
C1537 C145 1.450 . S
C1541 C896 1.449 . S
C1555 C205 1.687 . S
C1559 C907 1.646 . S
C1573 C133 1.783 . S
C1577 C947 1.749 . S
C1595 C986 1.749 . S
C1591 C169 1.753 . S
C1609 C277 1.588 . S
C1613 C946 1.572 . S
C1627 C313 1.483 . S
C1631 C987 1.456 . S
C1645 C241 1.450 . S
C1649 C906 1.457 . S
C1663 C571 1.336 . S
C1667 C653 1.331 . S
C1685 C693 1.859 . S
C1681 C607 1.858 . S
C1699 C643 1.579 . S
C1703 C743 1.583 . S
C1717 C247 1.859 . S
C1721 C703 1.858 . S
C1735 C283 1.580 . S
C1739 C733 1.583 . S
C1757 C663 1.332 . S
C1753 C319 1.334 . S
C1771 C139 1.335 . S
C1775 C773 1.329 . S
C1789 C175 1.858 . S
C1793 C813 1.859 . S
C1807 C211 1.578 . S
C1811 C863 1.583 . S
C1825 C463 1.859 . S
C1829 C823 1.858 . S
C1847 C853 1.584 . S
C1843 C499 1.583 . S
C1861 C535 1.335 . S
C1865 C783 1.332 . S
C1879 C355 1.335 . S
C1883 C893 1.330 . S
C1897 C391 1.862 . S
C1901 C933 1.861 . S
C1919 C983 1.583 . S
C1915 C427 1.579 . S
C1933 C31 1.860 . S
C1937 C943 1.858 . S
C1951 C67 1.581 . S
C1955 C973 1.584 . S
C1969 C103 1.335 . S
C1973 C903 1.327 . S
