# Generated by pormake.
# Topology eea, (3,6)-cn, num edge types: 1
# Building blocks:
#     Node 0, Type 0, BuildingBlock: QEWDON_clean_linker_0, # of connection points: 3
#     Node 1, Type 0, BuildingBlock: QEWDON_clean_linker_0, # of connection points: 3
#     Node 2, Type 0, BuildingBlock: QEWDON_clean_linker_0, # of connection points: 3
#     Node 3, Type 0, BuildingBlock: QEWDON_clean_linker_0, # of connection points: 3
#     Node 4, Type 0, BuildingBlock: QEWDON_clean_linker_0, # of connection points: 3
#     Node 5, Type 0, BuildingBlock: QEWDON_clean_linker_0, # of connection points: 3
#     Node 6, Type 0, BuildingBlock: QEWDON_clean_linker_0, # of connection points: 3
#     Node 7, Type 0, BuildingBlock: QEWDON_clean_linker_0, # of connection points: 3
#     Node 8, Type 0, BuildingBlock: QEWDON_clean_linker_0, # of connection points: 3
#     Node 9, Type 0, BuildingBlock: QEWDON_clean_linker_0, # of connection points: 3
#     Node 10, Type 0, BuildingBlock: QEWDON_clean_linker_0, # of connection points: 3
#     Node 11, Type 0, BuildingBlock: QEWDON_clean_linker_0, # of connection points: 3
#     Node 12, Type 0, BuildingBlock: QEWDON_clean_linker_0, # of connection points: 3
#     Node 13, Type 0, BuildingBlock: QEWDON_clean_linker_0, # of connection points: 3
#     Node 14, Type 0, BuildingBlock: QEWDON_clean_linker_0, # of connection points: 3
#     Node 15, Type 0, BuildingBlock: QEWDON_clean_linker_0, # of connection points: 3
#     Node 16, Type 0, BuildingBlock: QEWDON_clean_linker_0, # of connection points: 3
#     Node 17, Type 0, BuildingBlock: QEWDON_clean_linker_0, # of connection points: 3
#     Node 18, Type 1, BuildingBlock: CUWYAW_clean_sbu_0, # of connection points: 6
#     Node 19, Type 1, BuildingBlock: CUWYAW_clean_sbu_0, # of connection points: 6
#     Node 20, Type 1, BuildingBlock: CUWYAW_clean_sbu_0, # of connection points: 6
#     Node 21, Type 1, BuildingBlock: CUWYAW_clean_sbu_0, # of connection points: 6
#     Node 22, Type 1, BuildingBlock: CUWYAW_clean_sbu_0, # of connection points: 6
#     Node 23, Type 1, BuildingBlock: CUWYAW_clean_sbu_0, # of connection points: 6
#     Node 24, Type 1, BuildingBlock: CUWYAW_clean_sbu_0, # of connection points: 6
#     Node 25, Type 1, BuildingBlock: CUWYAW_clean_sbu_0, # of connection points: 6
#     Node 26, Type 1, BuildingBlock: CUWYAW_clean_sbu_0, # of connection points: 6
#     Edge 27, Type (0, 1), BuildingBlock: OJICUG_clean_linker_0, # of connection points: 2
#     Edge 28, Type (0, 1), BuildingBlock: OJICUG_clean_linker_0, # of connection points: 2
#     Edge 29, Type (0, 1), BuildingBlock: OJICUG_clean_linker_0, # of connection points: 2
#     Edge 30, Type (0, 1), BuildingBlock: OJICUG_clean_linker_0, # of connection points: 2
#     Edge 31, Type (0, 1), BuildingBlock: OJICUG_clean_linker_0, # of connection points: 2
#     Edge 32, Type (0, 1), BuildingBlock: OJICUG_clean_linker_0, # of connection points: 2
#     Edge 33, Type (0, 1), BuildingBlock: OJICUG_clean_linker_0, # of connection points: 2
#     Edge 34, Type (0, 1), BuildingBlock: OJICUG_clean_linker_0, # of connection points: 2
#     Edge 35, Type (0, 1), BuildingBlock: OJICUG_clean_linker_0, # of connection points: 2
#     Edge 36, Type (0, 1), BuildingBlock: OJICUG_clean_linker_0, # of connection points: 2
#     Edge 37, Type (0, 1), BuildingBlock: OJICUG_clean_linker_0, # of connection points: 2
#     Edge 38, Type (0, 1), BuildingBlock: OJICUG_clean_linker_0, # of connection points: 2
#     Edge 39, Type (0, 1), BuildingBlock: OJICUG_clean_linker_0, # of connection points: 2
#     Edge 40, Type (0, 1), BuildingBlock: OJICUG_clean_linker_0, # of connection points: 2
#     Edge 41, Type (0, 1), BuildingBlock: OJICUG_clean_linker_0, # of connection points: 2
#     Edge 42, Type (0, 1), BuildingBlock: OJICUG_clean_linker_0, # of connection points: 2
#     Edge 43, Type (0, 1), BuildingBlock: OJICUG_clean_linker_0, # of connection points: 2
#     Edge 44, Type (0, 1), BuildingBlock: OJICUG_clean_linker_0, # of connection points: 2
#     Edge 45, Type (0, 1), BuildingBlock: OJICUG_clean_linker_0, # of connection points: 2
#     Edge 46, Type (0, 1), BuildingBlock: OJICUG_clean_linker_0, # of connection points: 2
#     Edge 47, Type (0, 1), BuildingBlock: OJICUG_clean_linker_0, # of connection points: 2
#     Edge 48, Type (0, 1), BuildingBlock: OJICUG_clean_linker_0, # of connection points: 2
#     Edge 49, Type (0, 1), BuildingBlock: OJICUG_clean_linker_0, # of connection points: 2
#     Edge 50, Type (0, 1), BuildingBlock: OJICUG_clean_linker_0, # of connection points: 2
#     Edge 51, Type (0, 1), BuildingBlock: OJICUG_clean_linker_0, # of connection points: 2
#     Edge 52, Type (0, 1), BuildingBlock: OJICUG_clean_linker_0, # of connection points: 2
#     Edge 53, Type (0, 1), BuildingBlock: OJICUG_clean_linker_0, # of connection points: 2
#     Edge 54, Type (0, 1), BuildingBlock: OJICUG_clean_linker_0, # of connection points: 2
#     Edge 55, Type (0, 1), BuildingBlock: OJICUG_clean_linker_0, # of connection points: 2
#     Edge 56, Type (0, 1), BuildingBlock: OJICUG_clean_linker_0, # of connection points: 2
#     Edge 57, Type (0, 1), BuildingBlock: OJICUG_clean_linker_0, # of connection points: 2
#     Edge 58, Type (0, 1), BuildingBlock: OJICUG_clean_linker_0, # of connection points: 2
#     Edge 59, Type (0, 1), BuildingBlock: OJICUG_clean_linker_0, # of connection points: 2
#     Edge 60, Type (0, 1), BuildingBlock: OJICUG_clean_linker_0, # of connection points: 2
#     Edge 61, Type (0, 1), BuildingBlock: OJICUG_clean_linker_0, # of connection points: 2
#     Edge 62, Type (0, 1), BuildingBlock: OJICUG_clean_linker_0, # of connection points: 2
#     Edge 63, Type (0, 1), BuildingBlock: OJICUG_clean_linker_0, # of connection points: 2
#     Edge 64, Type (0, 1), BuildingBlock: OJICUG_clean_linker_0, # of connection points: 2
#     Edge 65, Type (0, 1), BuildingBlock: OJICUG_clean_linker_0, # of connection points: 2
#     Edge 66, Type (0, 1), BuildingBlock: OJICUG_clean_linker_0, # of connection points: 2
#     Edge 67, Type (0, 1), BuildingBlock: OJICUG_clean_linker_0, # of connection points: 2
#     Edge 68, Type (0, 1), BuildingBlock: OJICUG_clean_linker_0, # of connection points: 2
#     Edge 69, Type (0, 1), BuildingBlock: OJICUG_clean_linker_0, # of connection points: 2
#     Edge 70, Type (0, 1), BuildingBlock: OJICUG_clean_linker_0, # of connection points: 2
#     Edge 71, Type (0, 1), BuildingBlock: OJICUG_clean_linker_0, # of connection points: 2
#     Edge 72, Type (0, 1), BuildingBlock: OJICUG_clean_linker_0, # of connection points: 2
#     Edge 73, Type (0, 1), BuildingBlock: OJICUG_clean_linker_0, # of connection points: 2
#     Edge 74, Type (0, 1), BuildingBlock: OJICUG_clean_linker_0, # of connection points: 2
#     Edge 75, Type (0, 1), BuildingBlock: OJICUG_clean_linker_0, # of connection points: 2
#     Edge 76, Type (0, 1), BuildingBlock: OJICUG_clean_linker_0, # of connection points: 2
#     Edge 77, Type (0, 1), BuildingBlock: OJICUG_clean_linker_0, # of connection points: 2
#     Edge 78, Type (0, 1), BuildingBlock: OJICUG_clean_linker_0, # of connection points: 2
#     Edge 79, Type (0, 1), BuildingBlock: OJICUG_clean_linker_0, # of connection points: 2
#     Edge 80, Type (0, 1), BuildingBlock: OJICUG_clean_linker_0, # of connection points: 2
# Relax obj value: 0.090
# Max RMSD: 0.276
# Mean RMSD: 0.192
data_MOF--net-eea--node1-CUWYAW_clean_sbu_0--node2-QEWDON_clean_linker_0--edge1-OJICUG_clean_linker_0
_symmetry_space_group_name_H-M    P1
_symmetry_Int_Tables_number       1
_symmetry_cell_setting            triclinic
loop_
_symmetry_equiv_pos_as_xyz
'x, y, z'
_cell_length_a     42.924669
_cell_length_b     42.447637
_cell_length_c     53.689228
_cell_angle_alpha  93.226418
_cell_angle_beta   93.252263
_cell_angle_gamma 119.77934
loop_
_atom_site_label
_atom_site_type_symbol
_atom_site_fract_x
_atom_site_fract_y
_atom_site_fract_z
_atom_type_partial_charge
H0 H 0.21077 0.13002 0.42971 0.0
C1 C 0.21075 0.10772 0.41883 0.0
C2 C 0.22918 0.09092 0.42899 0.0
C3 C 0.19093 0.09477 0.39514 0.0
H4 H 0.24147 0.04771 0.42284 0.0
C5 C 0.22793 0.0612 0.41496 0.0
C6 C 0.20862 0.04802 0.39116 0.0
C7 C 0.19051 0.06525 0.38132 0.0
C8 C 0.16659 0.10838 0.38629 0.0
H9 H 0.17472 0.05469 0.36326 0.0
C10 C 0.1783 0.14605 0.38629 0.0
C11 C 0.15365 0.15749 0.37864 0.0
C12 C 0.1303 0.0827 0.37853 0.0
H13 H 0.12041 0.05375 0.3787 0.0
C14 C 0.10611 0.0939 0.37095 0.0
H15 H 0.20618 0.16619 0.3922 0.0
C16 C 0.11758 0.13085 0.37099 0.0
H17 H 0.09817 0.13862 0.36461 0.0
H18 H 0.07825 0.07379 0.36503 0.0
H19 H 0.89199 0.10287 0.42755 0.0
C20 C 0.91201 0.12662 0.41945 0.0
C21 C 0.92479 0.16175 0.43156 0.0
C22 C 0.92648 0.12162 0.39784 0.0
H23 H 0.96176 0.21933 0.43032 0.0
C24 C 0.95148 0.19227 0.42095 0.0
C25 C 0.96604 0.18788 0.39891 0.0
C26 C 0.95309 0.15232 0.38757 0.0
C27 C 0.91861 0.08451 0.38855 0.0
H28 H 0.96513 0.14821 0.37139 0.0
C29 C 0.88309 0.05539 0.38146 0.0
C30 C 0.87723 0.02062 0.37269 0.0
C31 C 0.94769 0.07816 0.38753 0.0
H32 H 0.97505 0.09985 0.39325 0.0
C33 C 0.94186 0.04371 0.3797 0.0
H34 H 0.86051 0.06007 0.38197 0.0
C35 C 0.90705 0.01522 0.37236 0.0
H36 H 0.90344 0.98873 0.36631 0.0
H37 H 0.96446 0.03909 0.37925 0.0
H38 H 0.92848 0.78261 0.4398 0.0
C39 C 0.9048 0.78018 0.42951 0.0
C40 C 0.87067 0.76014 0.43851 0.0
C41 C 0.90854 0.79849 0.40782 0.0
H42 H 0.81438 0.74421 0.43267 0.0
C43 C 0.8405 0.75859 0.42547 0.0
C44 C 0.84386 0.77701 0.40401 0.0
C45 C 0.87786 0.79632 0.39509 0.0
C46 C 0.9446 0.82418 0.40008 0.0
H47 H 0.88092 0.81153 0.37896 0.0
C48 C 0.96891 0.81275 0.39296 0.0
C49 C 1.00149 0.8377 0.38367 0.0
C50 C 0.9539 0.86076 0.39859 0.0
H51 H 0.93582 0.87022 0.40412 0.0
C52 C 0.98637 0.88543 0.38986 0.0
H53 H 0.96206 0.78462 0.39389 0.0
C54 C 0.00992 0.87396 0.38227 0.0
H55 H 0.03493 0.89351 0.37533 0.0
H56 H 0.99317 0.91349 0.38876 0.0
H57 H 0.13575 0.22871 0.58277 0.0
C58 C 0.11502 0.23174 0.59137 0.0
C59 C 0.10102 0.25206 0.58033 0.0
C60 C 0.10068 0.21317 0.61242 0.0
H61 H 0.06175 0.26967 0.58272 0.0
C62 C 0.07266 0.25406 0.59101 0.0
C63 C 0.05858 0.23636 0.61251 0.0
C64 C 0.073 0.21625 0.62304 0.0
C65 C 0.11162 0.18747 0.62195 0.0
H66 H 0.06167 0.20164 0.63913 0.0
C67 C 0.14823 0.19733 0.62672 0.0
C68 C 0.1573 0.1723 0.63619 0.0
C69 C 0.08466 0.15223 0.62631 0.0
H70 H 0.05638 0.14362 0.62241 0.0
C71 C 0.09377 0.12749 0.63547 0.0
H72 H 0.16939 0.22433 0.62352 0.0
C73 C 0.12984 0.13745 0.64046 0.0
H74 H 0.13641 0.1179 0.64767 0.0
H75 H 0.07276 0.10048 0.63873 0.0
H76 H 0.7718 0.9071 0.60522 0.0
C77 C 0.77918 0.88822 0.61264 0.0
C78 C 0.77655 0.85936 0.59664 0.0
C79 C 0.78957 0.89203 0.63835 0.0
H80 H 0.78363 0.81226 0.59459 0.0
C81 C 0.78582 0.83474 0.60667 0.0
C82 C 0.7972 0.83863 0.6324 0.0
C83 C 0.79892 0.86737 0.648 0.0
C84 C 0.78645 0.91898 0.65547 0.0
H85 H 0.80655 0.86995 0.66793 0.0
C86 C 0.80023 0.95561 0.6502 0.0
C87 C 0.79428 0.97969 0.66575 0.0
C88 C 0.7673 0.90714 0.67661 0.0
H89 H 0.756 0.87914 0.68094 0.0
C90 C 0.76145 0.93092 0.69196 0.0
H91 H 0.81523 0.96523 0.63406 0.0
C92 C 0.77463 0.96684 0.68654 0.0
H93 H 0.76999 0.98487 0.69889 0.0
H94 H 0.74645 0.92139 0.70809 0.0
H95 H 0.0958 0.88143 0.57824 0.0
C96 C 0.11795 0.90248 0.59083 0.0
C97 C 0.15301 0.92073 0.58304 0.0
C98 C 0.11088 0.91375 0.61399 0.0
H99 H 0.20834 0.96117 0.59391 0.0
C100 C 0.18116 0.94869 0.59941 0.0
C101 C 0.17458 0.96167 0.62202 0.0
C102 C 0.13917 0.94363 0.62916 0.0
C103 C 0.07322 0.89953 0.6204 0.0
H104 H 0.13286 0.95375 0.64598 0.0
C105 C 0.05133 0.8635 0.62678 0.0
C106 C 0.01641 0.85232 0.63404 0.0
C107 C 0.0596 0.92356 0.62102 0.0
H108 H 0.07586 0.95124 0.6162 0.0
C109 C 0.02505 0.91231 0.62785 0.0
H110 H 0.06153 0.84472 0.62654 0.0
C111 C 1.00364 0.87702 0.63438 0.0
H112 H 0.97691 0.8689 0.63977 0.0
H113 H 0.01489 0.9311 0.62823 0.0
H114 H 0.88562 0.46947 0.76519 0.0
C115 C 0.8856 0.44773 0.75356 0.0
C116 C 0.90643 0.43249 0.76181 0.0
C117 C 0.8628 0.43343 0.73122 0.0
H118 H 0.92249 0.39301 0.75279 0.0
C119 C 0.90584 0.40408 0.74654 0.0
C120 C 0.88269 0.38868 0.72415 0.0
C121 C 0.86102 0.40367 0.71685 0.0
C122 C 0.83613 0.44511 0.72533 0.0
H123 H 0.84148 0.39143 0.70056 0.0
C124 C 0.84635 0.48028 0.71818 0.0
C125 C 0.81974 0.48978 0.71239 0.0
C126 C 0.79961 0.42031 0.72733 0.0
H127 H 0.79132 0.39336 0.733 0.0
C128 C 0.77352 0.43007 0.72232 0.0
H129 H 0.87442 0.49944 0.71625 0.0
C130 C 0.78342 0.46443 0.71481 0.0
H131 H 0.76253 0.4711 0.71048 0.0
H132 H 0.74543 0.41078 0.72399 0.0
H133 H 0.55062 0.43388 0.75705 0.0
C134 C 0.57005 0.45761 0.74863 0.0
C135 C 0.58323 0.49254 0.76114 0.0
C136 C 0.58373 0.45285 0.72647 0.0
H137 H 0.62112 0.55002 0.7608 0.0
C138 C 0.61054 0.52311 0.7511 0.0
C139 C 0.62425 0.51908 0.72861 0.0
C140 C 0.61011 0.48389 0.71629 0.0
C141 C 0.57383 0.41549 0.71563 0.0
H142 H 0.62099 0.48048 0.69929 0.0
C143 C 0.5383 0.3855 0.71494 0.0
C144 C 0.5305 0.35009 0.70624 0.0
C145 C 0.601 0.40937 0.70715 0.0
H146 H 0.62869 0.43134 0.70803 0.0
C147 C 0.59317 0.3746 0.69809 0.0
H148 H 0.51697 0.38954 0.72143 0.0
C149 C 0.55831 0.34521 0.69765 0.0
H150 H 0.55304 0.31849 0.6904 0.0
H151 H 0.61435 0.37035 0.6916 0.0
H152 H 0.59209 0.12488 0.77624 0.0
C153 C 0.56913 0.12231 0.76484 0.0
C154 C 0.53425 0.10279 0.77274 0.0
C155 C 0.57468 0.14004 0.74282 0.0
H156 H 0.47879 0.08855 0.76525 0.0
C157 C 0.50511 0.10146 0.75829 0.0
C158 C 0.51006 0.1188 0.73607 0.0
C159 C 0.54506 0.13743 0.72833 0.0
C160 C 0.61156 0.16686 0.73722 0.0
H161 H 0.54983 0.15125 0.71141 0.0
C162 C 0.63626 0.15644 0.72933 0.0
C163 C 0.67094 0.18333 0.72408 0.0
C164 C 0.62182 0.20397 0.73968 0.0
H165 H 0.60322 0.21249 0.74567 0.0
C166 C 0.65612 0.23043 0.73464 0.0
H167 H 0.6286 0.12789 0.72726 0.0
C168 C 0.68057 0.22024 0.72695 0.0
H169 H 0.7071 0.24125 0.72306 0.0
H170 H 0.66378 0.25896 0.73669 0.0
H171 H 0.80087 0.55792 0.91547 0.0
C172 C 0.78021 0.55997 0.92491 0.0
C173 C 0.76261 0.57717 0.91405 0.0
C174 C 0.77036 0.54397 0.94739 0.0
H175 H 0.71992 0.5896 0.91738 0.0
C176 C 0.73477 0.57821 0.92638 0.0
C177 C 0.72485 0.56284 0.94942 0.0
C178 C 0.744 0.54696 0.95992 0.0
C179 C 0.78339 0.51946 0.95607 0.0
H180 H 0.73799 0.5358 0.9778 0.0
C181 C 0.82036 0.53006 0.95869 0.0
C182 C 0.83103 0.50516 0.96609 0.0
C183 C 0.7577 0.48397 0.96097 0.0
H184 H 0.72914 0.47492 0.95879 0.0
C185 C 0.76834 0.45946 0.96817 0.0
H186 H 0.84054 0.55729 0.95507 0.0
C187 C 0.80473 0.46989 0.97065 0.0
H188 H 0.81247 0.45046 0.97639 0.0
H189 H 0.74827 0.4322 0.97176 0.0
H190 H 0.47699 0.25223 0.92604 0.0
C191 C 0.47837 0.23125 0.93587 0.0
C192 C 0.4592 0.19483 0.92528 0.0
C193 C 0.50159 0.24142 0.95787 0.0
H194 H 0.44857 0.14011 0.92896 0.0
C195 C 0.46282 0.16803 0.93742 0.0
C196 C 0.48523 0.17733 0.9601 0.0
C197 C 0.5045 0.21433 0.97005 0.0
C198 C 0.52622 0.28083 0.96609 0.0
H199 H 0.52206 0.22238 0.98731 0.0
C200 C 0.51333 0.30558 0.96907 0.0
C201 C 0.53775 0.34334 0.97461 0.0
C202 C 0.56356 0.29427 0.96907 0.0
H203 H 0.57419 0.27599 0.9666 0.0
C204 C 0.58768 0.33153 0.97437 0.0
H205 H 0.48458 0.29556 0.96704 0.0
C206 C 0.57496 0.35592 0.97699 0.0
H207 H 0.59426 0.38467 0.98153 0.0
H208 H 0.61641 0.34157 0.97643 0.0
H209 H 0.76677 0.21426 0.91014 0.0
C210 C 0.78866 0.23625 0.92236 0.0
C211 C 0.82306 0.25646 0.91374 0.0
C212 C 0.78169 0.24646 0.94588 0.0
H213 H 0.87688 0.30232 0.92257 0.0
C214 C 0.85064 0.28638 0.92931 0.0
C215 C 0.8443 0.29679 0.95297 0.0
C216 C 0.80974 0.27632 0.96109 0.0
C217 C 0.74412 0.23144 0.9527 0.0
H218 H 0.80409 0.28425 0.97907 0.0
C219 C 0.72268 0.19516 0.95875 0.0
C220 C 0.68777 0.18337 0.96626 0.0
C221 C 0.73006 0.2551 0.95392 0.0
H222 H 0.74597 0.28296 0.94935 0.0
C223 C 0.69555 0.24325 0.961 0.0
H224 H 0.73319 0.17664 0.95803 0.0
C225 C 0.67457 0.20772 0.96719 0.0
H226 H 0.64785 0.19913 0.97278 0.0
H227 H 0.68507 0.26177 0.96183 0.0
H228 H 0.54732 0.79435 0.09735 0.0
C229 C 0.54735 0.77238 0.08606 0.0
C230 C 0.56592 0.75539 0.09559 0.0
C231 C 0.52718 0.75987 0.06253 0.0
H232 H 0.57858 0.71267 0.08832 0.0
C233 C 0.56472 0.72614 0.08096 0.0
C234 C 0.54482 0.71324 0.05731 0.0
C235 C 0.52617 0.73042 0.04822 0.0
C236 C 0.50196 0.77282 0.05499 0.0
H237 H 0.50946 0.71985 0.03051 0.0
C238 C 0.5139 0.80886 0.04886 0.0
C239 C 0.48844 0.81926 0.04135 0.0
C240 C 0.46482 0.7481 0.05423 0.0
H241 H 0.45513 0.7205 0.05907 0.0
C242 C 0.43981 0.75868 0.04752 0.0
H243 H 0.54249 0.82804 0.04907 0.0
C244 C 0.45146 0.79386 0.04103 0.0
H245 H 0.43144 0.80122 0.03538 0.0
H246 H 0.41124 0.7394 0.04708 0.0
H247 H 0.22262 0.76332 0.08917 0.0
C248 C 0.24254 0.78716 0.08109 0.0
C249 C 0.25624 0.82201 0.09388 0.0
C250 C 0.25655 0.78255 0.05907 0.0
H251 H 0.2944 0.87947 0.09375 0.0
C252 C 0.28375 0.85258 0.08396 0.0
C253 C 0.29766 0.84867 0.06157 0.0
C254 C 0.28355 0.81352 0.04922 0.0
C255 C 0.24661 0.74537 0.04812 0.0
H256 H 0.29483 0.80997 0.03245 0.0
C257 C 0.21032 0.71673 0.04371 0.0
C258 C 0.20224 0.68209 0.03288 0.0
C259 C 0.27435 0.7384 0.04244 0.0
H260 H 0.30241 0.75951 0.04617 0.0
C261 C 0.26639 0.70404 0.0323 0.0
H262 H 0.18861 0.72166 0.04787 0.0
C263 C 0.2307 0.67616 0.02745 0.0
H264 H 0.22525 0.64972 0.0194 0.0
H265 H 0.28801 0.69903 0.0281 0.0
H266 H 0.25955 0.44762 0.1075 0.0
C267 C 0.23581 0.44543 0.09747 0.0
C268 C 0.20178 0.42547 0.10669 0.0
C269 C 0.23941 0.46391 0.07588 0.0
H270 H 0.14553 0.40996 0.1012 0.0
C271 C 0.17157 0.42422 0.09389 0.0
C272 C 0.17472 0.44248 0.07237 0.0
C273 C 0.20862 0.46175 0.06331 0.0
C274 C 0.27543 0.48971 0.06803 0.0
H275 H 0.21151 0.47687 0.04714 0.0
C276 C 0.30002 0.47855 0.06107 0.0
C277 C 0.3325 0.50361 0.05166 0.0
C278 C 0.28442 0.52617 0.06636 0.0
H279 H 0.26618 0.53547 0.0718 0.0
C280 C 0.31676 0.55095 0.05753 0.0
H281 H 0.29345 0.45053 0.06215 0.0
C282 C 0.34053 0.53973 0.05005 0.0
H283 H 0.36543 0.55936 0.04303 0.0
H284 H 0.32329 0.5789 0.05628 0.0
H285 H 0.47281 0.89491 0.24995 0.0
C286 C 0.45142 0.89655 0.25864 0.0
C287 C 0.43311 0.9122 0.24653 0.0
C288 C 0.4416 0.88188 0.28156 0.0
H289 H 0.38892 0.92273 0.24796 0.0
C290 C 0.40434 0.91269 0.2579 0.0
C291 C 0.39445 0.89865 0.28131 0.0
C292 C 0.41451 0.88471 0.29317 0.0
C293 C 0.45616 0.85958 0.29218 0.0
H294 H 0.40873 0.87505 0.31151 0.0
C295 C 0.49338 0.87121 0.29435 0.0
C296 C 0.50558 0.84878 0.30432 0.0
C297 C 0.43176 0.8253 0.29983 0.0
H298 H 0.40301 0.81528 0.29797 0.0
C299 C 0.44395 0.8032 0.30956 0.0
H300 H 0.51262 0.89747 0.28857 0.0
C301 C 0.48062 0.81484 0.31182 0.0
H302 H 0.48962 0.79729 0.31948 0.0
H303 H 0.42488 0.7769 0.31531 0.0
H304 H 0.15007 0.59162 0.2563 0.0
C305 C 0.14977 0.57004 0.26637 0.0
C306 C 0.13001 0.53376 0.25563 0.0
C307 C 0.17098 0.57925 0.28919 0.0
H308 H 0.11319 0.47791 0.26106 0.0
C309 C 0.12936 0.50589 0.26915 0.0
C310 C 0.15031 0.5143 0.29251 0.0
C311 C 0.17169 0.55149 0.3019 0.0
C312 C 0.19565 0.61837 0.29791 0.0
H313 H 0.18972 0.55937 0.31889 0.0
C314 C 0.18266 0.64298 0.301 0.0
C315 C 0.20693 0.68063 0.30688 0.0
C316 C 0.23296 0.63177 0.30117 0.0
H317 H 0.24358 0.6135 0.29864 0.0
C318 C 0.25699 0.66902 0.30683 0.0
H319 H 0.1539 0.63292 0.29875 0.0
C320 C 0.24415 0.69333 0.30951 0.0
H321 H 0.26331 0.72207 0.31428 0.0
H322 H 0.28572 0.67911 0.30909 0.0
H323 H 0.43468 0.55967 0.24878 0.0
C324 C 0.45694 0.58103 0.26112 0.0
C325 C 0.49146 0.60056 0.25253 0.0
C326 C 0.45038 0.59111 0.28485 0.0
H327 H 0.54599 0.64484 0.26182 0.0
C328 C 0.51956 0.62956 0.2684 0.0
C329 C 0.51366 0.64004 0.29218 0.0
C330 C 0.47893 0.62036 0.30023 0.0
C331 C 0.41287 0.57646 0.2918 0.0
H332 H 0.47363 0.62836 0.31832 0.0
C333 C 0.39054 0.53974 0.29674 0.0
C334 C 0.35551 0.5281 0.30403 0.0
C335 C 0.39961 0.60073 0.29396 0.0
H336 H 0.41615 0.62891 0.29022 0.0
C337 C 0.365 0.58906 0.30081 0.0
H338 H 0.40042 0.52074 0.29531 0.0
C339 C 0.34313 0.55307 0.30584 0.0
H340 H 0.31638 0.54466 0.31131 0.0
H341 H 0.35514 0.60805 0.30234 0.0
C342 C 0.52908 0.0262 0.08631 0.0
Eu343 Eu 0.51385 0.02158 0.03789 0.0
C344 C 0.51184 0.00677 0.10827 0.0
C345 C 0.48083 0.00595 0.11642 0.0
C346 C 0.46636 0.98952 0.1381 0.0
C347 C 0.48237 0.97331 0.15213 0.0
C348 C 0.51301 0.97365 0.1437 0.0
C349 C 0.52759 0.99027 0.12212 0.0
C350 C 0.50214 0.07011 0.01392 0.0
C351 C 0.42735 0.96306 0.02542 0.0
C352 C 0.46425 0.99155 0.93648 0.0
Eu353 Eu 0.48233 0.99668 0.98443 0.0
C354 C 0.47874 0.00912 0.91354 0.0
C355 C 0.47512 0.98703 0.8919 0.0
C356 C 0.48674 1.00223 0.86946 0.0
C357 C 0.50211 0.04 0.86804 0.0
C358 C 0.50659 0.06231 0.88997 0.0
C359 C 0.49503 0.04702 0.91252 0.0
C360 C 0.49283 0.9468 0.00728 0.0
C361 C 0.5692 0.05533 0.99724 0.0
O362 O 0.53868 0.00937 0.06994 0.0
O363 O 0.51559 0.04435 0.07567 0.0
O364 O 0.52973 0.07925 0.02993 0.0
O365 O 0.48098 0.03601 0.01221 0.0
O366 O 0.45656 0.97689 0.0414 0.0
O367 O 0.42939 0.97023 1.00174 0.0
O368 O 0.45666 0.00945 0.95345 0.0
O369 O 0.47888 0.97387 0.94625 0.0
O370 O 0.4661 0.93913 0.9909 0.0
O371 O 0.51471 0.98097 0.01014 0.0
O372 O 0.54008 0.04112 0.98104 0.0
O373 O 0.56699 0.0482 0.02095 0.0
H374 H 0.46785 0.0183 0.10622 0.0
H375 H 0.44251 0.98939 0.14383 0.0
H376 H 0.52634 0.96185 0.15414 0.0
H377 H 0.55162 0.9907 0.11646 0.0
H378 H 0.46283 0.95777 0.89227 0.0
H379 H 0.48346 0.98427 0.85315 0.0
H380 H 0.51804 0.09145 0.88956 0.0
H381 H 0.49831 0.06476 0.92899 0.0
C382 C 1.00687 0.51177 0.08415 0.0
Eu383 Eu 1.00505 0.49433 0.0364 0.0
C384 C 0.02574 0.51257 0.10841 0.0
C385 C 0.02078 0.48039 0.1181 0.0
C386 C 0.03768 0.48185 0.14162 0.0
C387 C 0.06007 0.51548 0.15585 0.0
C388 C 0.06503 0.54756 0.14605 0.0
C389 C 0.04799 0.54609 0.12268 0.0
C390 C 0.95431 0.42969 0.01154 0.0
C391 C 0.0603 0.46323 0.0289 0.0
C392 C 0.02006 0.46235 0.93756 0.0
Eu393 Eu 0.02066 0.4805 0.98495 0.0
C394 C 1.00301 0.46125 0.91259 0.0
C395 C 0.02513 0.48036 0.89417 0.0
C396 C 0.01022 0.47867 0.86998 0.0
C397 C 0.97277 0.45755 0.86357 0.0
C398 C 0.95055 0.43881 0.88219 0.0
C399 C 0.9655 0.44067 0.90647 0.0
C400 C 0.07248 0.5451 0.00915 0.0
C401 C 0.96477 0.51106 0.9929 0.0
O402 O 0.02599 0.53535 0.06876 0.0
O403 O 0.98385 0.47986 0.07251 0.0
O404 O 0.94692 0.45048 0.02562 0.0
O405 O 0.98799 0.4432 0.01177 0.0
O406 O 0.04998 0.48157 0.04366 0.0
O407 O 0.04861 0.45472 1.00487 0.0
O408 O 1.00022 0.43916 0.95293 0.0
O409 O 0.04231 0.49467 0.94892 0.0
O410 O 0.0784 0.52331 0.99499 0.0
O411 O 0.03885 0.53248 0.00959 0.0
O412 O 0.97484 0.49248 0.97804 0.0
O413 O 0.97754 0.52049 0.01671 0.0
H414 H 1.00373 0.45404 0.10762 0.0
H415 H 0.03353 0.4567 0.14854 0.0
H416 H 0.08167 0.57389 0.15667 0.0
H417 H 0.05198 0.57124 0.11584 0.0
H418 H 0.05413 0.49643 0.89844 0.0
H419 H 0.0281 0.4939 0.85629 0.0
H420 H 0.92164 0.4219 0.87786 0.0
H421 H 0.94775 0.4256 0.92029 0.0
C422 C 0.48926 0.49067 0.9301 0.0
Eu423 Eu 0.51169 0.51871 0.97644 0.0
C424 C 0.50407 0.49314 0.90564 0.0
C425 C 0.53259 0.52596 0.89905 0.0
C426 C 0.54568 0.52753 0.87552 0.0
C427 C 0.53061 0.49628 0.85815 0.0
C428 C 0.5024 0.4634 0.86513 0.0
C429 C 0.48929 0.46192 0.88855 0.0
C430 C 0.53122 0.58526 1.00088 0.0
C431 C 0.59729 0.54768 0.99283 0.0
C432 C 0.56367 0.55139 0.0844 0.0
Eu433 Eu 0.54185 0.52821 0.03716 0.0
C434 C 0.55027 0.55843 0.10782 0.0
C435 C 0.54634 0.53676 0.12757 0.0
C436 C 0.53443 0.54282 0.15011 0.0
C437 C 0.52618 0.57086 0.15362 0.0
C438 C 0.53006 0.59257 0.13378 0.0
C439 C 0.54204 0.58649 0.11117 0.0
C440 C 0.52053 0.46108 0.01286 0.0
C441 C 0.4568 0.50143 0.02023 0.0
O442 O 0.49908 0.47537 0.947 0.0
O443 O 0.48812 0.51921 0.93956 0.0
O444 O 0.51965 0.57655 0.97716 0.0
O445 O 0.53299 0.5589 0.00897 0.0
O446 O 0.57095 0.53836 0.97474 0.0
O447 O 0.59313 0.54711 0.01732 0.0
O448 O 0.5704 0.57349 0.06671 0.0
O449 O 0.54871 0.51715 0.07547 0.0
O450 O 0.53351 0.47033 0.03621 0.0
O451 O 0.51926 0.48767 1.00484 0.0
O452 O 0.48417 0.51564 0.03813 0.0
O453 O 0.46025 0.49623 0.99604 0.0
H454 H 0.54461 0.5504 0.91201 0.0
H455 H 0.56723 0.55336 0.87081 0.0
H456 H 0.49061 0.43858 0.85258 0.0
H457 H 0.46749 0.43626 0.89334 0.0
H458 H 0.55287 0.5152 0.12568 0.0
H459 H 0.53254 0.52599 0.16503 0.0
H460 H 0.52373 0.61426 0.13566 0.0
H461 H 0.54503 0.60388 0.09646 0.0
C462 C 0.19854 0.37195 0.4226 0.0
Eu463 Eu 0.18131 0.36324 0.37415 0.0
C464 C 0.18396 0.35345 0.44517 0.0
C465 C 0.20062 0.37149 0.46891 0.0
C466 C 0.18708 0.35488 0.49065 0.0
C467 C 0.15636 0.31987 0.48915 0.0
C468 C 0.13965 0.30184 0.46524 0.0
C469 C 0.15344 0.31841 0.44345 0.0
C470 C 0.16698 0.40755 0.34703 0.0
C471 C 0.09562 0.30144 0.36136 0.0
C472 C 0.13673 0.31869 0.27208 0.0
Eu473 Eu 0.15215 0.33232 0.32067 0.0
C474 C 0.1502 0.33496 0.24861 0.0
C475 C 0.14427 0.31176 0.22706 0.0
C476 C 0.15578 0.32594 0.20431 0.0
C477 C 0.17329 0.3638 0.20246 0.0
C478 C 0.18005 0.38712 0.22435 0.0
C479 C 0.16877 0.37284 0.24723 0.0
C480 C 0.16492 0.28814 0.34873 0.0
C481 C 0.23663 0.39778 0.33347 0.0
O482 O 0.20923 0.35577 0.40658 0.0
O483 O 0.18093 0.38593 0.41156 0.0
O484 O 0.19262 0.41909 0.3651 0.0
O485 O 0.14778 0.3731 0.3454 0.0
O486 O 0.12428 0.31793 0.37794 0.0
O487 O 0.09838 0.30595 0.3372 0.0
O488 O 0.12297 0.33367 0.28644 0.0
O489 O 0.15655 0.3086 0.28486 0.0
O490 O 0.13766 0.27684 0.33213 0.0
O491 O 0.18556 0.32227 0.34926 0.0
O492 O 0.2078 0.38079 0.31699 0.0
O493 O 0.23448 0.39189 0.35739 0.0
H494 H 0.22412 0.39859 0.47064 0.0
H495 H 0.20038 0.36975 0.50869 0.0
H496 H 0.1162 0.27472 0.46336 0.0
H497 H 0.14034 0.30388 0.4253 0.0
H498 H 0.13045 0.28247 0.22779 0.0
H499 H 0.15079 0.30709 0.18811 0.0
H500 H 0.1932 0.41637 0.22372 0.0
H501 H 0.17422 0.39136 0.26371 0.0
C502 C 0.6879 0.85979 0.41826 0.0
Eu503 Eu 0.68109 0.83843 0.37061 0.0
C504 C 0.70081 0.8543 0.443 0.0
C505 C 0.67598 0.83742 0.46057 0.0
C506 C 0.68764 0.83467 0.48479 0.0
C507 C 0.72455 0.84908 0.49222 0.0
C508 C 0.74935 0.86494 0.47435 0.0
C509 C 0.73763 0.86755 0.45002 0.0
C510 C 0.62794 0.77283 0.34839 0.0
C511 C 0.73204 0.80223 0.36169 0.0
C512 C 0.68627 0.79858 0.27107 0.0
Eu513 Eu 0.6918 0.82043 0.31843 0.0
C514 C 0.66753 0.79572 0.24635 0.0
C515 C 0.68828 0.81314 0.2269 0.0
C516 C 0.67193 0.80905 0.20278 0.0
C517 C 0.63434 0.78717 0.19744 0.0
C518 C 0.61341 0.77034 0.21709 0.0
C519 C 0.62983 0.77455 0.24132 0.0
C520 C 0.74635 0.88529 0.34022 0.0
C521 C 0.63978 0.85502 0.32791 0.0
O522 O 0.71187 0.87783 0.40288 0.0
O523 O 0.65852 0.83229 0.40667 0.0
O524 O 0.62223 0.7947 0.3627 0.0
O525 O 0.66132 0.78575 0.34719 0.0
O526 O 0.72248 0.82069 0.37701 0.0
O527 O 0.72023 0.79456 0.33766 0.0
O528 O 0.66769 0.777 0.28765 0.0
O529 O 0.70975 0.83141 0.2811 0.0
O530 O 0.75031 0.86214 0.32596 0.0
O531 O 0.71316 0.87396 0.34205 0.0
O532 O 0.64685 0.83385 0.3131 0.0
O533 O 0.6554 0.86641 0.35103 0.0
H534 H 0.64747 0.82696 0.45573 0.0
H535 H 0.66764 0.82164 0.49783 0.0
H536 H 0.77799 0.8766 0.4794 0.0
H537 H 0.75754 0.88076 0.43695 0.0
H538 H 0.71739 0.82956 0.23028 0.0
H539 H 0.68884 0.82289 0.18825 0.0
H540 H 0.58443 0.75301 0.2136 0.0
H541 H 0.6131 0.76069 0.25593 0.0
C542 C 0.16371 0.8396 0.26062 0.0
Eu543 Eu 0.18063 0.8575 0.30869 0.0
C544 C 0.18004 0.8369 0.23756 0.0
C545 C 0.21013 0.86742 0.22981 0.0
C546 C 0.22309 0.86514 0.20682 0.0
C547 C 0.2064 0.83228 0.19103 0.0
C548 C 0.1769 0.80154 0.19921 0.0
C549 C 0.16382 0.8039 0.22213 0.0
C550 C 0.19193 0.91774 0.3367 0.0
C551 C 0.26619 0.88367 0.32357 0.0
C552 C 0.23371 0.89044 0.41399 0.0
Eu553 Eu 0.21122 0.86633 0.36688 0.0
C554 C 0.21785 0.89289 0.43747 0.0
C555 C 0.21195 0.86794 0.45534 0.0
C556 C 0.19836 0.87073 0.47798 0.0
C557 C 0.1904 0.89864 0.48341 0.0
C558 C 0.19579 0.92323 0.46531 0.0
C559 C 0.2096 0.92058 0.44278 0.0
C560 C 0.18885 0.7982 0.34402 0.0
C561 C 0.12533 0.83616 0.3514 0.0
O562 O 0.158 0.8156 0.27677 0.0
O563 O 0.17497 0.87241 0.27141 0.0
O564 O 0.16813 0.90245 0.31738 0.0
O565 O 0.2113 0.90296 0.33874 0.0
O566 O 0.23954 0.87538 0.30608 0.0
O567 O 0.26251 0.88315 0.348 0.0
O568 O 0.23503 0.91141 0.39661 0.0
O569 O 0.22516 0.85775 0.40459 0.0
O570 O 0.2019 0.80828 0.36729 0.0
O571 O 0.1878 0.82445 0.3352 0.0
O572 O 0.15325 0.85235 0.36878 0.0
O573 O 0.12864 0.83047 0.32732 0.0
H574 H 0.22328 0.89333 0.24124 0.0
H575 H 0.24558 0.88951 0.20113 0.0
H576 H 0.16376 0.77556 0.18787 0.0
H577 H 0.14058 0.77998 0.22764 0.0
H578 H 0.21843 0.84654 0.45201 0.0
H579 H 0.1952 0.85167 0.49155 0.0
H580 H 0.18959 0.94483 0.46861 0.0
H581 H 0.21424 0.9406 0.42971 0.0
C582 C 0.8558 0.69359 0.75387 0.0
Eu583 Eu 0.84132 0.68934 0.70534 0.0
C584 C 0.83876 0.67389 0.77583 0.0
C585 C 0.8094 0.67509 0.78534 0.0
C586 C 0.7953 0.65848 0.80705 0.0
C587 C 0.81009 0.64011 0.81982 0.0
C588 C 0.83912 0.63853 0.81006 0.0
C589 C 0.85332 0.65529 0.78845 0.0
C590 C 0.82765 0.73651 0.68116 0.0
C591 C 0.75505 0.63102 0.69217 0.0
C592 C 0.79473 0.65798 0.60332 0.0
Eu593 Eu 0.81098 0.66406 0.65166 0.0
C594 C 0.81141 0.67388 0.58041 0.0
C595 C 0.80973 0.65049 0.56019 0.0
C596 C 0.82328 0.66409 0.5377 0.0
C597 C 0.83866 0.70149 0.53475 0.0
C598 C 0.84131 0.72512 0.55533 0.0
C599 C 0.82784 0.71147 0.57794 0.0
C600 C 0.82155 0.61479 0.67505 0.0
C601 C 0.89742 0.7243 0.66527 0.0
O602 O 0.86608 0.67737 0.73754 0.0
O603 O 0.84181 0.71126 0.74316 0.0
O604 O 0.8551 0.7466 0.69754 0.0
O605 O 0.80765 0.70225 0.67926 0.0
O606 O 0.78406 0.6443 0.7083 0.0
O607 O 0.75756 0.6384 0.66851 0.0
O608 O 0.7886 0.67812 0.61944 0.0
O609 O 0.80632 0.63846 0.6142 0.0
O610 O 0.79473 0.60687 0.6587 0.0
O611 O 0.84336 0.64902 0.67791 0.0
O612 O 0.86865 0.70905 0.64872 0.0
O613 O 0.89487 0.71766 0.68905 0.0
H614 H 0.79744 0.68919 0.77618 0.0
H615 H 0.7727 0.65991 0.8138 0.0
H616 H 0.85156 0.62508 0.81951 0.0
H617 H 0.87615 0.65417 0.7818 0.0
H618 H 0.79737 0.62144 0.56166 0.0
H619 H 0.82132 0.64513 0.52249 0.0
H620 H 0.85265 0.75402 0.55372 0.0
H621 H 0.82969 0.73024 0.59326 0.0
C622 C 0.3365 0.17339 0.7538 0.0
Eu623 Eu 0.33423 0.15943 0.70547 0.0
C624 C 0.35603 0.1749 0.77789 0.0
C625 C 0.35851 0.14481 0.78514 0.0
C626 C 0.37441 0.14605 0.80901 0.0
C627 C 0.38813 0.17738 0.82613 0.0
C628 C 0.38646 0.20774 0.81844 0.0
C629 C 0.37049 0.20643 0.79469 0.0
C630 C 0.28484 0.09701 0.67785 0.0
C631 C 0.39184 0.13297 0.6926 0.0
C632 C 0.35479 0.14696 0.60395 0.0
Eu633 Eu 0.35117 0.15468 0.65212 0.0
C634 C 0.33516 0.14106 0.57916 0.0
C635 C 0.35514 0.15649 0.55901 0.0
C636 C 0.33792 0.15038 0.53493 0.0
C637 C 0.3002 0.12848 0.5304 0.0
C638 C 0.28007 0.11371 0.55082 0.0
C639 C 0.29741 0.11999 0.57502 0.0
C640 C 0.40072 0.21558 0.68106 0.0
C641 C 0.29028 0.17645 0.66436 0.0
O642 O 0.35402 0.19858 0.73891 0.0
O643 O 0.31543 0.14133 0.74161 0.0
O644 O 0.27705 0.11331 0.6955 0.0
O645 O 0.31856 0.11259 0.67668 0.0
O646 O 0.38012 0.14729 0.70957 0.0
O647 O 0.38135 0.12876 0.66849 0.0
O648 O 0.34274 0.11984 0.61802 0.0
O649 O 0.36643 0.1785 0.61675 0.0
O650 O 0.40853 0.19743 0.66495 0.0
O651 O 0.36697 0.20179 0.68083 0.0
O652 O 0.30154 0.16083 0.64796 0.0
O653 O 0.30326 0.18402 0.68818 0.0
H654 H 0.34759 0.12006 0.77258 0.0
H655 H 0.37505 0.12211 0.81426 0.0
H656 H 0.39746 0.23265 0.83083 0.0
H657 H 0.36894 0.22998 0.78957 0.0
H658 H 0.38428 0.17308 0.56186 0.0
H659 H 0.35423 0.16279 0.51981 0.0
H660 H 0.25102 0.09652 0.548 0.0
H661 H 0.28142 0.10804 0.59037 0.0
C662 C 0.82286 0.17347 0.59555 0.0
Eu663 Eu 0.84253 0.19133 0.64364 0.0
C664 C 0.83989 0.17382 0.57225 0.0
C665 C 0.82665 0.18049 0.54986 0.0
C666 C 0.84193 0.18045 0.52747 0.0
C667 C 0.87086 0.17368 0.52696 0.0
C668 C 0.88441 0.16752 0.54958 0.0
C669 C 0.86912 0.16761 0.57197 0.0
C670 C 0.86024 0.25574 0.66904 0.0
C671 C 0.92917 0.2187 0.65365 0.0
C672 C 0.89398 0.21034 0.74462 0.0
Eu673 Eu 0.87604 0.20008 0.69617 0.0
C674 C 0.88069 0.21617 0.76835 0.0
C675 C 0.88349 0.19872 0.7891 0.0
C676 C 0.87169 0.20391 0.81196 0.0
C677 C 0.85701 0.22692 0.81467 0.0
C678 C 0.85382 0.24408 0.79373 0.0
C679 C 0.86532 0.23858 0.77076 0.0
C680 C 0.85549 0.13502 0.66969 0.0
C681 C 0.7915 0.1785 0.68664 0.0
O682 O 0.82104 0.15036 0.61136 0.0
O683 O 0.83152 0.20523 0.60681 0.0
O684 O 0.8329 0.23817 0.65223 0.0
O685 O 0.87905 0.2403 0.6704 0.0
O686 O 0.89959 0.20408 0.6379 0.0
O687 O 0.9281 0.22384 0.67802 0.0
O688 O 0.90632 0.23663 0.72987 0.0
O689 O 0.87478 0.1782 0.73219 0.0
O690 O 0.88563 0.15405 0.68376 0.0
O691 O 0.83756 0.15127 0.6702 0.0
O692 O 0.82191 0.1954 0.70159 0.0
O693 O 0.7912 0.16873 0.66276 0.0
H694 H 0.80416 0.1854 0.54963 0.0
H695 H 0.83049 0.18488 0.51045 0.0
H696 H 0.90698 0.16274 0.55002 0.0
H697 H 0.88004 0.16265 0.58902 0.0
H698 H 0.89513 0.18122 0.78768 0.0
H699 H 0.87491 0.19057 0.82771 0.0
H700 H 0.84225 0.26164 0.79507 0.0
H701 H 0.86226 0.25191 0.75498 0.0
C702 C 0.33115 0.88461 0.02637 0.0
C703 C 0.32907 0.88051 0.05221 0.0
H704 H 0.36345 0.9141 0.99757 0.0
C705 C 0.35852 0.90569 0.06903 0.0
H706 H 0.30884 0.86591 0.01289 0.0
C707 C 0.38971 0.93321 0.06027 0.0
C708 C 0.39236 0.93654 0.03441 0.0
H709 H 0.35816 0.90324 0.089 0.0
H710 H 0.41218 0.95134 0.07385 0.0
C711 C 0.36237 0.9124 0.01758 0.0
C712 C 0.13565 0.44074 0.03474 0.0
C713 C 0.14346 0.44459 0.06092 0.0
H714 H 0.1028 0.44297 1.00399 0.0
C715 C 0.12229 0.45247 0.07629 0.0
H716 H 0.1514 0.43451 0.02243 0.0
C717 C 0.09468 0.45741 0.06581 0.0
C718 C 0.08733 0.45439 0.03965 0.0
H719 H 0.12786 0.4561 0.0965 0.0
H720 H 0.07953 0.4643 0.07829 0.0
C721 C 0.10769 0.44536 0.02421 0.0
C722 C 0.53687 0.65004 0.05504 0.0
C723 C 0.54205 0.68061 0.04286 0.0
H724 H 0.5284 0.59565 0.0512 0.0
C725 C 0.54421 0.67954 0.01681 0.0
H726 H 0.53409 0.64949 0.07495 0.0
C727 C 0.54143 0.64881 1.00337 0.0
C728 C 0.53651 0.61845 0.01562 0.0
H729 H 0.54829 0.70257 0.00684 0.0
H730 H 0.54302 0.64875 0.9833 0.0
C731 C 0.53398 0.61929 0.04154 0.0
C732 C 0.86371 0.3541 0.98134 0.0
C733 C 0.87285 0.33055 0.96834 0.0
H734 H 0.88213 0.40355 0.00503 0.0
C735 C 0.90945 0.34014 0.96969 0.0
H736 H 0.83606 0.34828 0.98033 0.0
C737 C 0.93605 0.3723 0.9837 0.0
C738 C 0.92664 0.39552 0.99672 0.0
H739 H 0.91755 0.32262 0.9601 0.0
H740 H 0.96393 0.37888 0.98442 0.0
C741 C 0.89021 0.38604 0.9954 0.0
C742 C 0.6819 0.58652 0.95858 0.0
C743 C 0.69331 0.56089 0.96189 0.0
H744 H 0.64246 0.60239 0.96569 0.0
C745 C 0.67347 0.53243 0.97694 0.0
H746 H 0.69625 0.6091 0.94752 0.0
C747 C 0.6439 0.52991 0.98836 0.0
C748 C 0.63232 0.55493 0.98448 0.0
H749 H 0.67968 0.51097 0.97937 0.0
H750 H 0.62885 0.50713 0.99918 0.0
C751 C 0.65138 0.58314 0.96936 0.0
C752 C 0.46036 0.11303 0.97316 0.0
C753 C 0.48946 0.14894 0.97306 0.0
H754 H 0.44141 0.0599 0.98599 0.0
C755 C 0.52279 0.15773 0.98584 0.0
H756 H 0.43417 0.10508 0.96376 0.0
C757 C 0.52662 0.13203 0.9989 0.0
C758 C 0.49745 0.09651 0.99934 0.0
H759 H 0.54623 0.18454 0.9857 0.0
H760 H 0.55265 0.14002 0.00863 0.0
C761 C 0.46438 0.08709 0.98603 0.0
C762 C 0.63623 0.12021 0.95561 0.0
C763 C 0.66378 0.14605 0.97326 0.0
H764 H 0.5851 0.071 0.94926 0.0
C765 C 0.6624 0.13931 0.99863 0.0
H766 H 0.63625 0.12521 0.93604 0.0
C767 C 0.63291 0.10827 0.00637 0.0
C768 C 0.60398 0.08366 0.9889 0.0
H769 H 0.68289 0.15933 0.01266 0.0
H770 H 0.63169 0.10496 0.02621 0.0
C771 C 0.60674 0.08933 0.96331 0.0
C772 C 0.89053 0.53514 0.99191 0.0
C773 C 0.86929 0.51487 0.96976 0.0
H774 H 0.93774 0.55012 0.01666 0.0
C775 C 0.88211 0.49753 0.95374 0.0
H776 H 0.88082 0.54821 1.00473 0.0
C777 C 0.91464 0.49863 0.96043 0.0
C778 C 0.9347 0.51657 0.98354 0.0
H779 H 0.86588 0.48132 0.93673 0.0
H780 H 0.92277 0.48342 0.94819 0.0
C781 C 0.92294 0.53594 0.99879 0.0
C782 C 0.50429 0.3659 0.99985 0.0
C783 C 0.52539 0.36995 0.97993 0.0
H784 H 0.4863 0.39219 0.02591 0.0
C785 C 0.53964 0.40253 0.96818 0.0
H786 H 0.49342 0.34136 0.00946 0.0
C787 C 0.53484 0.43136 0.97724 0.0
C788 C 0.51629 0.42826 0.99848 0.0
H789 H 0.55625 0.40645 0.95289 0.0
H790 H 0.54828 0.45703 0.96901 0.0
C791 C 0.50024 0.39498 0.00925 0.0
C792 C 0.1401 0.63665 0.04415 0.0
C793 C 0.16468 0.65173 0.02604 0.0
H794 H 0.09066 0.59045 0.05294 0.0
C795 C 0.15536 0.63405 1.00166 0.0
H796 H 0.1468 0.64966 0.06314 0.0
C797 C 0.12384 0.60054 0.99597 0.0
C798 C 0.10054 0.58394 0.01443 0.0
H799 H 0.17363 0.64518 0.98729 0.0
H800 H 0.11857 0.58668 0.97733 0.0
C801 C 0.10807 0.60286 0.03834 0.0
C802 C 0.36412 0.49235 0.0177 0.0
C803 C 0.35889 0.49347 0.04326 0.0
H804 H 0.39881 0.49323 0.99024 0.0
C805 C 0.38378 0.49264 0.06088 0.0
H806 H 0.34553 0.49361 1.00383 0.0
C807 C 0.41464 0.49305 0.05321 0.0
C808 C 0.42111 0.49413 0.02773 0.0
H809 H 0.38061 0.49416 0.08071 0.0
H810 H 0.43425 0.49424 0.06742 0.0
C811 C 0.39474 0.4923 0.00997 0.0
C812 C 0.48613 0.85493 0.00698 0.0
C813 C 0.49867 0.85497 0.03169 0.0
H814 H 0.47497 0.88402 0.98005 0.0
C815 C 0.51436 0.88765 0.04764 0.0
H816 H 0.47378 0.83012 0.99434 0.0
C817 C 0.51522 0.91903 0.03936 0.0
C818 C 0.50001 0.91783 0.01515 0.0
H819 H 0.52374 0.88822 0.06691 0.0
H820 H 0.52541 0.9432 0.05236 0.0
C821 C 0.48666 0.88581 0.99887 0.0
C822 C 1.00001 0.22164 0.36301 0.0
C823 C 0.99722 0.21957 0.38901 0.0
H824 H 0.03278 0.24908 0.3338 0.0
C825 C 0.02596 0.24654 0.40552 0.0
H826 H 0.97829 0.2016 0.34968 0.0
C827 C 0.05707 0.27377 0.3964 0.0
C828 C 0.0605 0.27501 0.37046 0.0
H829 H 0.02519 0.24578 0.42561 0.0
H830 H 0.07889 0.29338 0.40984 0.0
C831 C 0.03119 0.24904 0.35385 0.0
C832 C 0.79208 0.78779 0.40835 0.0
C833 C 0.8129 0.77974 0.39274 0.0
H834 H 0.7503 0.80092 0.41083 0.0
C835 C 0.80528 0.77672 0.36659 0.0
H836 H 0.79755 0.79086 0.42855 0.0
C837 C 0.77793 0.78246 0.35632 0.0
C838 C 0.75803 0.79179 0.37203 0.0
H839 H 0.8208 0.7704 0.3541 0.0
H840 H 0.77324 0.78082 0.33613 0.0
C841 C 0.76509 0.79382 0.39814 0.0
C842 C 0.19911 0.98431 0.38984 0.0
C843 C 0.20576 0.01502 0.37728 0.0
H844 H 0.18815 0.929 0.38653 0.0
C845 C 0.20869 0.01349 0.35133 0.0
H846 H 0.19557 0.98409 0.40965 0.0
C847 C 0.20512 0.98211 0.33833 0.0
C848 C 0.19885 0.95173 0.35099 0.0
H849 H 0.21378 0.03657 0.34107 0.0
H850 H 0.20708 0.98149 0.31829 0.0
C851 C 0.1954 0.95291 0.37675 0.0
C852 C 0.53525 0.69763 0.32092 0.0
C853 C 0.54305 0.67323 0.30761 0.0
H854 H 0.55581 0.74795 0.34409 0.0
C855 C 0.57934 0.68179 0.30831 0.0
H856 H 0.50788 0.69257 0.32047 0.0
C857 C 0.60697 0.71398 0.32162 0.0
C858 C 0.59897 0.73829 0.33469 0.0
H859 H 0.58646 0.66356 0.29858 0.0
H860 H 0.63458 0.71984 0.32168 0.0
C861 C 0.56282 0.72963 0.33433 0.0
C862 C 0.34306 0.86884 0.30884 0.0
C863 C 0.36226 0.89635 0.29298 0.0
H864 H 0.29892 0.84447 0.33156 0.0
C865 C 0.34979 0.9208 0.28827 0.0
H866 H 0.3501 0.8482 0.31232 0.0
C867 C 0.31902 0.91735 0.29866 0.0
C868 C 0.30077 0.8903 0.31476 0.0
H869 H 0.3636 0.94262 0.27652 0.0
H870 H 0.30943 0.93581 0.2941 0.0
C871 C 0.31328 0.86635 0.3199 0.0
C872 C 0.14523 0.45183 0.29421 0.0
C873 C 0.15143 0.48499 0.30664 0.0
H874 H 0.1442 0.40106 0.29732 0.0
C875 C 0.16004 0.49045 0.33289 0.0
H876 H 0.13913 0.44626 0.27409 0.0
C877 C 0.16443 0.46498 0.34587 0.0
C878 C 0.15882 0.43243 0.33331 0.0
H879 H 0.16376 0.51459 0.34364 0.0
H880 H 0.17225 0.47079 0.36587 0.0
C881 C 0.14834 0.42572 0.30747 0.0
C882 C 0.33006 0.48196 0.33513 0.0
C883 C 0.33074 0.49042 0.31016 0.0
H884 H 0.30008 0.44591 0.36216 0.0
C885 C 0.30224 0.46602 0.29248 0.0
H886 H 0.35129 0.50083 0.34924 0.0
C887 C 0.27275 0.43474 0.29983 0.0
C888 C 0.27085 0.42727 0.32513 0.0
H889 H 0.3017 0.47235 0.27325 0.0
H890 H 0.25056 0.41747 0.28581 0.0
C891 C 0.30052 0.45064 0.34254 0.0
C892 C 0.56479 0.87755 0.33017 0.0
C893 C 0.54411 0.85959 0.30736 0.0
H894 H 0.6118 0.89078 0.35453 0.0
C895 C 0.55763 0.84472 0.28997 0.0
H896 H 0.55446 0.88857 0.34402 0.0
C897 C 0.5903 0.84575 0.29593 0.0
C898 C 0.60986 0.8613 0.31955 0.0
H899 H 0.54174 0.83018 0.27246 0.0
H900 H 0.59897 0.83229 0.28259 0.0
C901 C 0.59748 0.87854 0.33619 0.0
C902 C 0.20634 0.7383 0.29942 0.0
C903 C 0.19426 0.70688 0.3123 0.0
H904 H 0.21267 0.79182 0.2989 0.0
C905 C 0.17503 0.70372 0.33318 0.0
H906 H 0.22152 0.74147 0.28338 0.0
C907 C 0.17072 0.73272 0.34231 0.0
C908 C 0.1846 0.76495 0.33032 0.0
H909 H 0.16586 0.68003 0.3436 0.0
H910 H 0.15832 0.73077 0.35961 0.0
C911 C 0.2011 0.76697 0.30818 0.0
C912 C 0.83794 0.96881 0.34058 0.0
C913 C 0.84094 0.98966 0.3628 0.0
H914 H 0.80604 0.92002 0.31633 0.0
C915 C 0.81036 0.97815 0.37618 0.0
H916 H 0.8606 0.97728 0.32946 0.0
C917 C 0.77832 0.94503 0.36831 0.0
C918 C 0.77673 0.92298 0.34713 0.0
H919 H 0.81182 0.9937 0.39335 0.0
H920 H 0.75564 0.9359 0.37941 0.0
C921 C 0.80653 0.93591 0.33302 0.0
C922 C 0.03189 0.82486 0.34956 0.0
C923 C 0.02761 0.82727 0.37522 0.0
H924 H 0.06584 0.82496 0.32175 0.0
C925 C 0.05328 0.82761 0.39273 0.0
H926 H 0.01267 0.82522 0.33576 0.0
C927 C 0.084 0.82803 0.38482 0.0
C928 C 0.08958 0.828 0.3592 0.0
H929 H 0.05083 0.83012 0.41263 0.0
H930 H 0.10428 0.83028 0.39891 0.0
C931 C 0.06241 0.82485 0.34158 0.0
C932 C 0.14197 0.20929 0.38623 0.0
C933 C 0.1644 0.1966 0.37736 0.0
H934 H 0.12517 0.249 0.38423 0.0
C935 C 0.19252 0.21921 0.3633 0.0
H936 H 0.12025 0.19268 0.39726 0.0
C937 C 0.19566 0.252 0.35614 0.0
C938 C 0.17083 0.26257 0.36305 0.0
H939 H 0.21 0.21006 0.35601 0.0
H940 H 0.21534 0.26727 0.3434 0.0
C941 C 0.14493 0.24169 0.37895 0.0
C942 C 0.65792 0.55454 0.69327 0.0
C943 C 0.65574 0.55073 0.71915 0.0
H944 H 0.69067 0.58306 0.66434 0.0
C945 C 0.68541 0.57563 0.7359 0.0
H946 H 0.63543 0.53606 0.67983 0.0
C947 C 0.71693 0.60243 0.72704 0.0
C948 C 0.71973 0.60532 0.70114 0.0
H949 H 0.68499 0.57338 0.75589 0.0
H950 H 0.73956 0.62031 0.74059 0.0
C951 C 0.6895 0.58162 0.68437 0.0
C952 C 0.44348 0.09177 0.72229 0.0
C953 C 0.47946 0.12036 0.72242 0.0
H954 H 0.38729 0.07351 0.71288 0.0
C955 C 0.48575 0.15161 0.71066 0.0
H956 H 0.43735 0.06694 0.73062 0.0
C957 C 0.45708 0.15452 0.69972 0.0
C958 C 0.42144 0.12675 0.70074 0.0
H959 H 0.51269 0.17467 0.71071 0.0
H960 H 0.46273 0.17918 0.69129 0.0
C961 C 0.41473 0.09519 0.71187 0.0
C962 C 0.86814 0.34797 0.6836 0.0
C963 C 0.87931 0.35557 0.70952 0.0
H964 H 0.85295 0.31036 0.65071 0.0
C965 C 0.88612 0.33041 0.72144 0.0
H966 H 0.86339 0.36663 0.67333 0.0
C967 C 0.88187 0.29906 0.70798 0.0
C968 C 0.86941 0.2911 0.68252 0.0
H969 H 0.8936 0.33397 0.7414 0.0
H970 H 0.88662 0.28016 0.71779 0.0
C971 C 0.8626 0.31585 0.67044 0.0
C972 C 0.23182 0.02329 0.62476 0.0
C973 C 0.20401 0.99576 0.63683 0.0
H974 H 0.27926 0.07618 0.62837 0.0
C975 C 0.20407 1.00199 0.66292 0.0
H976 H 0.23247 0.02072 0.60466 0.0
C977 C 0.23044 0.03485 0.67624 0.0
C978 C 0.2581 0.06176 0.66402 0.0
H979 H 0.18377 0.9816 0.67318 0.0
H980 H 0.22938 0.03912 0.69619 0.0
C981 C 0.25878 0.0555 0.63827 0.0
C982 C 0.02567 0.23948 0.64927 0.0
C983 C 0.02713 0.23634 0.62314 0.0
H984 H 0.99396 0.23677 0.67943 0.0
C985 C 0.99704 0.23017 0.6073 0.0
H986 H 0.04852 0.24464 0.66202 0.0
C987 C 0.96578 0.22564 0.61727 0.0
C988 C 0.96378 0.22733 0.64338 0.0
H989 H 0.99704 0.22727 0.58712 0.0
H990 H 0.94284 0.21997 0.60441 0.0
C991 C 0.99443 0.23514 0.65927 0.0
C992 C 0.78255 0.7742 0.63848 0.0
C993 C 0.8059 0.81208 0.64353 0.0
H994 H 0.7705 0.72059 0.64686 0.0
C995 C 0.83678 0.82458 0.6605 0.0
H996 H 0.75832 0.76368 0.62573 0.0
C997 C 0.84392 0.79995 0.67236 0.0
C998 C 0.82017 0.76216 0.6678 0.0
H999 H 0.85545 0.85353 0.66468 0.0
H1000 H 0.86793 0.81061 0.68536 0.0
C1001 C 0.78947 0.74952 0.65064 0.0
C1002 C 0.9649 0.78898 0.62369 0.0
C1003 C 0.99205 0.81527 0.64136 0.0
H1004 H 0.91409 0.73939 0.6173 0.0
C1005 C 0.9902 0.80907 0.66682 0.0
H1006 H 0.9653 0.79353 0.60402 0.0
C1007 C 0.96069 0.77808 0.6746 0.0
C1008 C 0.93218 0.75292 0.65705 0.0
H1009 H 0.01039 0.82942 0.68086 0.0
H1010 H 0.95914 0.77514 0.69447 0.0
C1011 C 0.93538 0.75814 0.63141 0.0
C1012 C 0.21224 0.17183 0.62414 0.0
C1013 C 0.19507 0.18143 0.64201 0.0
H1014 H 0.25609 0.16313 0.61708 0.0
C1015 C 0.21127 0.19301 0.66672 0.0
H1016 H 0.1998 0.16218 0.60507 0.0
C1017 C 0.24339 0.19339 0.67376 0.0
C1018 C 0.25968 0.1818 0.65622 0.0
H1019 H 0.19804 0.19989 0.68087 0.0
H1020 H 0.25441 0.20103 0.69321 0.0
C1021 C 0.24432 0.17213 0.63113 0.0
C1022 C 0.78701 0.03413 0.66058 0.0
C1023 C 0.80942 0.0187 0.66143 0.0
H1024 H 0.78398 0.08314 0.66182 0.0
C1025 C 0.84682 0.04171 0.6617 0.0
H1026 H 0.75806 0.01693 0.66035 0.0
C1027 C 0.86171 0.07964 0.66298 0.0
C1028 C 0.83942 0.09518 0.6636 0.0
H1029 H 0.86469 0.03056 0.66255 0.0
H1030 H 0.89078 0.0969 0.66459 0.0
C1031 C 0.80184 0.07199 0.66138 0.0
C1032 C 0.46343 0.31694 0.69351 0.0
C1033 C 0.49377 0.31761 0.70558 0.0
H1034 H 0.40894 0.28323 0.67647 0.0
C1035 C 0.48994 0.28514 0.71387 0.0
H1036 H 0.46564 0.34152 0.68684 0.0
C1037 C 0.45782 0.25216 0.70792 0.0
C1038 C 0.42865 0.25092 0.6939 0.0
H1039 H 0.51263 0.28489 0.72358 0.0
H1040 H 0.45654 0.22723 0.71298 0.0
C1041 C 0.43098 0.28369 0.68767 0.0
C1042 C 0.69574 0.16047 0.69091 0.0
C1043 C 0.69812 0.17429 0.71578 0.0
H1044 H 0.7235 0.15087 0.66198 0.0
C1045 C 0.72987 0.18594 0.73145 0.0
H1046 H 0.67166 0.15192 0.67839 0.0
C1047 C 0.75939 0.18543 0.7222 0.0
C1048 C 0.75807 0.1737 0.69689 0.0
H1049 H 0.73243 0.19709 0.75061 0.0
H1050 H 0.78382 0.19582 0.73473 0.0
C1051 C 0.72551 0.16016 0.68152 0.0
C1052 C 0.81129 0.52173 0.67772 0.0
C1053 C 0.82793 0.52422 0.70154 0.0
H1054 H 0.79681 0.54842 0.65082 0.0
C1055 C 0.84699 0.55847 0.7157 0.0
H1056 H 0.79649 0.49573 0.66641 0.0
C1057 C 0.8473 0.58921 0.70666 0.0
C1058 C 0.82827 0.58578 0.68351 0.0
H1059 H 0.85975 0.56096 0.73426 0.0
H1060 H 0.86049 0.61486 0.71835 0.0
C1061 C 0.81138 0.55199 0.66887 0.0
C1062 C 0.45382 0.90906 0.20376 0.0
C1063 C 0.4435 0.92681 0.22166 0.0
H1064 H 0.47367 0.90939 0.16799 0.0
C1065 C 0.44444 0.9592 0.21588 0.0
H1066 H 0.45261 0.88359 0.20714 0.0
C1067 C 0.45633 0.9739 0.19319 0.0
C1068 C 0.46771 0.95668 0.17569 0.0
H1069 H 0.43701 0.97384 0.22921 0.0
H1070 H 0.45764 0.9994 0.1897 0.0
C1071 C 0.46587 0.92384 0.1812 0.0
C1072 C 0.13122 0.54908 0.21122 0.0
C1073 C 0.11242 0.52621 0.22954 0.0
H1074 H 0.12972 0.56334 0.1738 0.0
C1075 C 0.07684 0.49775 0.22286 0.0
H1076 H 0.15899 0.57067 0.21551 0.0
C1077 C 0.05997 0.49347 0.1987 0.0
C1078 C 0.07841 0.51757 0.18082 0.0
H1079 H 0.06166 0.47969 0.23653 0.0
H1080 H 0.03213 0.47214 0.19431 0.0
C1081 C 0.11445 0.5449 0.18727 0.0
C1082 C 0.48431 0.5565 0.21593 0.0
C1083 C 0.49818 0.59254 0.22652 0.0
H1084 H 0.48177 0.52132 0.18466 0.0
C1085 C 0.51958 0.62124 0.21228 0.0
H1086 H 0.46773 0.53375 0.22631 0.0
C1087 C 0.52795 0.61419 0.18854 0.0
C1088 C 0.51506 0.57819 0.17822 0.0
H1089 H 0.53016 0.64936 0.21955 0.0
H1090 H 0.54542 0.6371 0.1786 0.0
C1091 C 0.4927 0.54942 0.19212 0.0
C1092 C 0.95919 0.44558 0.79231 0.0
C1093 C 0.92541 0.44297 0.78759 0.0
H1094 H 1.00028 0.45158 0.81981 0.0
C1095 C 0.90824 0.44719 0.80804 0.0
H1096 H 0.97329 0.44274 0.77701 0.0
C1097 C 0.92393 0.45274 0.8326 0.0
C1098 C 0.95714 0.4541 0.83737 0.0
H1099 H 0.88197 0.44485 0.80516 0.0
H1100 H 0.90979 0.45556 0.84788 0.0
C1101 C 0.97483 0.451 0.81688 0.0
C1102 C 0.53269 0.47634 0.78839 0.0
C1103 C 0.56973 0.49628 0.78549 0.0
H1104 H 0.49129 0.46142 0.81315 0.0
C1105 C 0.59378 0.51785 0.8064 0.0
H1106 H 0.51341 0.45986 0.77257 0.0
C1107 C 0.58114 0.51843 0.82986 0.0
C1108 C 0.54412 0.49761 0.83293 0.0
H1109 H 0.62253 0.5332 0.80487 0.0
H1110 H 0.60057 0.53427 0.84574 0.0
C1111 C 0.52005 0.4771 0.81173 0.0
C1112 C 0.55098 0.10438 0.81887 0.0
C1113 C 0.52796 0.08576 0.79689 0.0
H1114 H 0.5611 0.10464 0.85851 0.0
C1115 C 0.49729 0.05154 0.79843 0.0
H1116 H 0.57464 0.13097 0.81842 0.0
C1117 C 0.4893 0.0367 0.82137 0.0
C1118 C 0.51181 0.05558 0.8435 0.0
H1119 H 0.47911 0.03633 0.78186 0.0
H1120 H 0.46485 0.01076 0.82182 0.0
C1121 C 0.54295 0.0895 0.84192 0.0
C1122 C 0.09147 0.26755 0.53686 0.0
C1123 C 0.11513 0.26989 0.55708 0.0
H1124 H 0.08578 0.28124 0.49966 0.0
C1125 C 0.15239 0.28872 0.55469 0.0
H1126 H 0.06259 0.25291 0.53793 0.0
C1127 C 0.16567 0.30485 0.53274 0.0
C1128 C 0.14204 0.30238 0.51246 0.0
H1129 H 0.1714 0.29122 0.56992 0.0
H1130 H 0.19452 0.31893 0.53154 0.0
C1131 C 0.10474 0.28343 0.51479 0.0
C1132 C 0.73285 0.85926 0.56347 0.0
C1133 C 0.76235 0.85443 0.5698 0.0
H1134 H 0.69842 0.86204 0.53448 0.0
C1135 C 0.77854 0.84618 0.55035 0.0
H1136 H 0.7193 0.86505 0.57794 0.0
C1137 C 0.76615 0.84394 0.52517 0.0
C1138 C 0.7371 0.84962 0.51889 0.0
H1139 H 0.80135 0.84236 0.55457 0.0
H1140 H 0.77935 0.83781 0.51062 0.0
C1141 C 0.72051 0.85702 0.53845 0.0
C1142 C 0.18278 0.94397 0.54401 0.0
C1143 C 0.16043 0.91407 0.55699 0.0
H1144 H 0.21018 0.96267 0.51138 0.0
C1145 C 0.14637 0.87871 0.54504 0.0
H1146 H 0.19353 0.97166 0.55236 0.0
C1147 C 0.15554 0.8735 0.52102 0.0
C1148 C 0.17875 0.90356 0.50839 0.0
H1149 H 0.12899 0.85512 0.55446 0.0
H1150 H 0.14448 0.84593 0.51239 0.0
C1151 C 0.19193 0.93881 0.52021 0.0
C1152 C 0.56801 0.7723 0.14164 0.0
C1153 C 0.58453 0.76615 0.12148 0.0
H1154 H 0.57074 0.78391 0.18135 0.0
C1155 C 0.61798 0.76814 0.12647 0.0
H1156 H 0.54202 0.77054 0.13849 0.0
C1157 C 0.63419 0.77534 0.15101 0.0
C1158 C 0.61742 0.78082 0.17126 0.0
H1159 H 0.63155 0.76379 0.11138 0.0
H1160 H 0.65953 0.77573 0.15415 0.0
C1161 C 0.58423 0.77947 0.16625 0.0
C1162 C 0.20647 0.80672 0.12181 0.0
C1163 C 0.2434 0.82592 0.11846 0.0
H1164 H 0.16582 0.79427 0.14693 0.0
C1165 C 0.26811 0.8476 0.13905 0.0
H1166 H 0.18674 0.79007 0.10626 0.0
C1167 C 0.2562 0.84963 0.16253 0.0
C1168 C 0.21923 0.83024 0.16598 0.0
H1169 H 0.2968 0.86225 0.1372 0.0
H1170 H 0.27612 0.86586 0.17808 0.0
C1171 C 0.19453 0.80898 0.14522 0.0
C1172 C 0.16676 0.37391 0.13266 0.0
C1173 C 0.19734 0.40801 0.13061 0.0
H1174 H 0.1348 0.33387 0.15659 0.0
C1175 C 0.22138 0.42656 0.15217 0.0
H1176 H 0.14782 0.35868 0.11641 0.0
C1177 C 0.21415 0.412 0.17539 0.0
C1178 C 0.18273 0.37851 0.17758 0.0
H1179 H 0.24505 0.45302 0.15133 0.0
H1180 H 0.23301 0.42722 0.19166 0.0
C1181 C 0.15947 0.35948 0.15577 0.0
C1182 C 0.78083 0.57414 0.87042 0.0
C1183 C 0.77251 0.59243 0.8893 0.0
H1184 H 0.79863 0.57437 0.83392 0.0
C1185 C 0.77493 0.62583 0.88455 0.0
H1186 H 0.7784 0.54792 0.873 0.0
C1187 C 0.78642 0.64097 0.8619 0.0
C1188 C 0.79584 0.62316 0.8434 0.0
H1189 H 0.769 0.64084 0.89864 0.0
H1190 H 0.78896 0.66721 0.85922 0.0
C1191 C 0.79242 0.58931 0.84789 0.0
C1192 C 0.41463 0.2004 0.89637 0.0
C1193 C 0.4375 0.18602 0.90064 0.0
H1194 H 0.3806 0.20823 0.86989 0.0
C1195 C 0.44209 0.16643 0.88058 0.0
H1196 H 0.41023 0.21525 0.91153 0.0
C1197 C 0.42547 0.16282 0.85649 0.0
C1198 C 0.40378 0.17859 0.85199 0.0
H1199 H 0.45985 0.15537 0.88324 0.0
H1200 H 0.43078 0.1489 0.84123 0.0
C1201 C 0.39789 0.19661 0.87242 0.0
C1202 C 0.81925 0.21244 0.87839 0.0
C1203 C 0.82991 0.24826 0.88786 0.0
H1204 H 0.81944 0.17755 0.84792 0.0
C1205 C 0.84807 0.27667 0.87261 0.0
H1206 H 0.80525 0.18998 0.88966 0.0
C1207 C 0.85605 0.26959 0.84873 0.0
C1208 C 0.84634 0.23393 0.83949 0.0
H1209 H 0.85624 0.30453 0.87918 0.0
H1210 H 0.87069 0.29225 0.83775 0.0
C1211 C 0.82761 0.20538 0.85456 0.0
C1212 C 0.2323 0.11029 0.47476 0.0
C1213 C 0.24819 0.10277 0.45477 0.0
H1214 H 0.23619 0.12444 0.51425 0.0
C1215 C 0.28161 0.10469 0.45981 0.0
H1216 H 0.20638 0.10866 0.47158 0.0
C1217 C 0.29842 0.11322 0.48424 0.0
C1218 C 0.28235 0.12022 0.50434 0.0
H1219 H 0.29475 0.09934 0.44484 0.0
H1220 H 0.32373 0.11357 0.48742 0.0
C1221 C 0.24915 0.11885 0.49928 0.0
C1222 C 0.90349 0.19338 0.46177 0.0
C1223 C 0.91201 0.16592 0.45623 0.0
H1224 H 0.88404 0.21756 0.48834 0.0
C1225 C 0.90797 0.14193 0.47447 0.0
H1226 H 0.90624 0.2123 0.44818 0.0
C1227 C 0.89515 0.14481 0.49739 0.0
C1228 C 0.88594 0.17178 0.50281 0.0
H1229 H 0.91485 0.12082 0.47109 0.0
H1230 H 0.89177 0.12532 0.51067 0.0
C1231 C 0.89046 0.19618 0.48473 0.0
C1232 C 0.88848 0.76324 0.48454 0.0
C1233 C 0.86605 0.74327 0.46263 0.0
H1234 H 0.89764 0.76578 0.52452 0.0
C1235 C 0.83635 0.7085 0.46447 0.0
H1236 H 0.91138 0.79025 0.48379 0.0
C1237 C 0.82821 0.6947 0.48772 0.0
C1238 C 0.84961 0.71523 0.50986 0.0
H1239 H 0.81863 0.69236 0.44792 0.0
H1240 H 0.80418 0.66848 0.48838 0.0
C1241 C 0.88028 0.74942 0.50792 0.0
loop_
_geom_bond_atom_site_label_1
_geom_bond_atom_site_label_2
_geom_bond_distance
_geom_bond_site_symmetry_2
_ccdc_geom_bond_type
H0 C1 0.949 . S
C1 H0 0.949 . S
C1 C2 1.395 . S
C1 C3 1.391 . S
C2 C1 1.395 . S
C2 C5 1.390 . S
C3 C1 1.391 . S
C3 C7 1.387 . S
C3 C8 1.491 . S
H4 C5 0.950 . S
C5 C2 1.390 . S
C5 H4 0.950 . S
C5 C6 1.378 . S
C6 C5 1.378 . S
C6 C7 1.409 . S
C7 C3 1.387 . S
C7 C6 1.409 . S
C7 H9 0.951 . S
C8 C3 1.491 . S
C8 C10 1.382 . S
C8 C12 1.404 . S
H9 C7 0.951 . S
C10 C8 1.382 . S
C10 C11 1.390 . S
C10 H15 0.949 . S
C11 C10 1.390 . S
C11 C16 1.399 . S
C12 C8 1.404 . S
C12 H13 0.950 . S
C12 C14 1.375 . S
H13 C12 0.950 . S
C14 C12 1.375 . S
C14 C16 1.382 . S
C14 H18 0.950 . S
H15 C10 0.949 . S
C16 C11 1.399 . S
C16 C14 1.382 . S
C16 H17 0.952 . S
H17 C16 0.952 . S
H18 C14 0.950 . S
H19 C20 0.949 . S
C20 H19 0.949 . S
C20 C21 1.395 . S
C20 C22 1.391 . S
C21 C20 1.395 . S
C21 C24 1.390 . S
C22 C20 1.391 . S
C22 C26 1.387 . S
C22 C27 1.491 . S
H23 C24 0.950 . S
C24 C21 1.390 . S
C24 H23 0.950 . S
C24 C25 1.378 . S
C25 C24 1.378 . S
C25 C26 1.409 . S
C26 C22 1.387 . S
C26 C25 1.409 . S
C26 H28 0.951 . S
C27 C22 1.491 . S
C27 C29 1.382 . S
C27 C31 1.404 . S
H28 C26 0.951 . S
C29 C27 1.382 . S
C29 C30 1.390 . S
C29 H34 0.949 . S
C30 C29 1.390 . S
C30 C35 1.399 1_545 S
C31 C27 1.404 . S
C31 H32 0.950 . S
C31 C33 1.375 . S
H32 C31 0.950 . S
C33 C31 1.375 . S
C33 C35 1.382 1_545 S
C33 H37 0.950 . S
H34 C29 0.949 . S
C35 C30 1.399 1_565 S
C35 C33 1.382 1_565 S
C35 H36 0.952 . S
H36 C35 0.952 . S
H37 C33 0.950 . S
H38 C39 0.949 . S
C39 H38 0.949 . S
C39 C40 1.395 . S
C39 C41 1.391 . S
C40 C39 1.395 . S
C40 C43 1.390 . S
C41 C39 1.391 . S
C41 C45 1.387 . S
C41 C46 1.491 . S
H42 C43 0.950 . S
C43 C40 1.390 . S
C43 H42 0.950 . S
C43 C44 1.378 . S
C44 C43 1.378 . S
C44 C45 1.409 . S
C45 C41 1.387 . S
C45 C44 1.409 . S
C45 H47 0.951 . S
C46 C41 1.491 . S
C46 C48 1.382 . S
C46 C50 1.404 . S
H47 C45 0.951 . S
C48 C46 1.382 . S
C48 C49 1.390 1_655 S
C48 H53 0.949 . S
C49 C48 1.390 1_455 S
C49 C54 1.399 . S
C50 C46 1.404 . S
C50 H51 0.950 . S
C50 C52 1.358 1_655 S
H51 C50 0.950 . S
C52 C50 1.358 1_455 S
C52 C54 1.403 . S
C52 H56 0.946 . S
H53 C48 0.949 . S
C54 C49 1.399 . S
C54 C52 1.403 . S
C54 H55 0.952 . S
H55 C54 0.952 . S
H56 C52 0.946 . S
H57 C58 0.949 . S
C58 H57 0.949 . S
C58 C59 1.395 . S
C58 C60 1.391 . S
C59 C58 1.395 . S
C59 C62 1.390 . S
C60 C58 1.391 . S
C60 C64 1.387 . S
C60 C65 1.491 . S
H61 C62 0.950 . S
C62 C59 1.390 . S
C62 H61 0.950 . S
C62 C63 1.378 . S
C63 C62 1.378 . S
C63 C64 1.409 . S
C64 C60 1.387 . S
C64 C63 1.409 . S
C64 H66 0.951 . S
C65 C60 1.491 . S
C65 C67 1.382 . S
C65 C69 1.404 . S
H66 C64 0.951 . S
C67 C65 1.382 . S
C67 C68 1.390 . S
C67 H72 0.949 . S
C68 C67 1.390 . S
C68 C73 1.399 . S
C69 C65 1.404 . S
C69 H70 0.950 . S
C69 C71 1.375 . S
H70 C69 0.950 . S
C71 C69 1.375 . S
C71 C73 1.382 . S
C71 H75 0.950 . S
H72 C67 0.949 . S
C73 C68 1.399 . S
C73 C71 1.382 . S
C73 H74 0.952 . S
H74 C73 0.952 . S
H75 C71 0.950 . S
H76 C77 0.949 . S
C77 H76 0.949 . S
C77 C78 1.395 . S
C77 C79 1.391 . S
C78 C77 1.395 . S
C78 C81 1.390 . S
C79 C77 1.391 . S
C79 C83 1.387 . S
C79 C84 1.491 . S
H80 C81 0.950 . S
C81 C78 1.390 . S
C81 H80 0.950 . S
C81 C82 1.378 . S
C82 C81 1.378 . S
C82 C83 1.409 . S
C83 C79 1.387 . S
C83 C82 1.409 . S
C83 H85 0.951 . S
C84 C79 1.491 . S
C84 C86 1.382 . S
C84 C88 1.404 . S
H85 C83 0.951 . S
C86 C84 1.382 . S
C86 C87 1.390 . S
C86 H91 0.949 . S
C87 C86 1.390 . S
C87 C92 1.399 1_565 S
C88 C84 1.404 . S
C88 H89 0.950 . S
C88 C90 1.375 . S
H89 C88 0.950 . S
C90 C88 1.375 . S
C90 C92 1.382 1_565 S
C90 H94 0.950 . S
H91 C86 0.949 . S
C92 C87 1.399 1_545 S
C92 C90 1.382 1_545 S
C92 H93 0.952 . S
H93 C92 0.952 . S
H94 C90 0.950 . S
H95 C96 0.949 . S
C96 H95 0.949 . S
C96 C97 1.395 . S
C96 C98 1.391 . S
C97 C96 1.395 . S
C97 C100 1.390 . S
C98 C96 1.391 . S
C98 C102 1.387 . S
C98 C103 1.491 . S
H99 C100 0.950 . S
C100 C97 1.390 . S
C100 H99 0.950 . S
C100 C101 1.378 . S
C101 C100 1.378 . S
C101 C102 1.409 . S
C102 C98 1.387 . S
C102 C101 1.409 . S
C102 H104 0.951 . S
C103 C98 1.491 . S
C103 C105 1.382 . S
C103 C107 1.404 . S
H104 C102 0.951 . S
C105 C103 1.382 . S
C105 C106 1.390 . S
C105 H110 0.949 . S
C106 C105 1.390 . S
C106 C111 1.399 . S
C107 C103 1.404 . S
C107 H108 0.950 . S
C107 C109 1.375 . S
H108 C107 0.950 . S
C109 C107 1.375 . S
C109 C111 1.382 . S
C109 H113 0.950 . S
H110 C105 0.949 . S
C111 C106 1.399 . S
C111 C109 1.382 . S
C111 H112 0.952 1_455 S
H112 C111 0.952 1_655 S
H113 C109 0.950 . S
H114 C115 0.949 . S
C115 H114 0.949 . S
C115 C116 1.395 . S
C115 C117 1.391 . S
C116 C115 1.395 . S
C116 C119 1.390 . S
C117 C115 1.391 . S
C117 C121 1.387 . S
C117 C122 1.491 . S
H118 C119 0.950 . S
C119 C116 1.390 . S
C119 H118 0.950 . S
C119 C120 1.378 . S
C120 C119 1.378 . S
C120 C121 1.409 . S
C121 C117 1.387 . S
C121 C120 1.409 . S
C121 H123 0.951 . S
C122 C117 1.491 . S
C122 C124 1.382 . S
C122 C126 1.404 . S
H123 C121 0.951 . S
C124 C122 1.382 . S
C124 C125 1.390 . S
C124 H129 0.949 . S
C125 C124 1.390 . S
C125 C130 1.399 . S
C126 C122 1.404 . S
C126 H127 0.950 . S
C126 C128 1.375 . S
H127 C126 0.950 . S
C128 C126 1.375 . S
C128 C130 1.382 . S
C128 H132 0.950 . S
H129 C124 0.949 . S
C130 C125 1.399 . S
C130 C128 1.382 . S
C130 H131 0.952 . S
H131 C130 0.952 . S
H132 C128 0.950 . S
H133 C134 0.949 . S
C134 H133 0.949 . S
C134 C135 1.395 . S
C134 C136 1.391 . S
C135 C134 1.395 . S
C135 C138 1.390 . S
C136 C134 1.391 . S
C136 C140 1.387 . S
C136 C141 1.491 . S
H137 C138 0.950 . S
C138 C135 1.390 . S
C138 H137 0.950 . S
C138 C139 1.378 . S
C139 C138 1.378 . S
C139 C140 1.409 . S
C140 C136 1.387 . S
C140 C139 1.409 . S
C140 H142 0.951 . S
C141 C136 1.491 . S
C141 C143 1.382 . S
C141 C145 1.404 . S
H142 C140 0.951 . S
C143 C141 1.382 . S
C143 C144 1.390 . S
C143 H148 0.949 . S
C144 C143 1.390 . S
C144 C149 1.399 . S
C145 C141 1.404 . S
C145 H146 0.950 . S
C145 C147 1.375 . S
H146 C145 0.950 . S
C147 C145 1.375 . S
C147 C149 1.382 . S
C147 H151 0.950 . S
H148 C143 0.949 . S
C149 C144 1.399 . S
C149 C147 1.382 . S
C149 H150 0.952 . S
H150 C149 0.952 . S
H151 C147 0.950 . S
H152 C153 0.949 . S
C153 H152 0.949 . S
C153 C154 1.395 . S
C153 C155 1.391 . S
C154 C153 1.395 . S
C154 C157 1.390 . S
C155 C153 1.391 . S
C155 C159 1.387 . S
C155 C160 1.491 . S
H156 C157 0.950 . S
C157 C154 1.390 . S
C157 H156 0.950 . S
C157 C158 1.378 . S
C158 C157 1.378 . S
C158 C159 1.409 . S
C159 C155 1.387 . S
C159 C158 1.409 . S
C159 H161 0.951 . S
C160 C155 1.491 . S
C160 C162 1.382 . S
C160 C164 1.404 . S
H161 C159 0.951 . S
C162 C160 1.382 . S
C162 C163 1.390 . S
C162 H167 0.949 . S
C163 C162 1.390 . S
C163 C168 1.399 . S
C164 C160 1.404 . S
C164 H165 0.950 . S
C164 C166 1.375 . S
H165 C164 0.950 . S
C166 C164 1.375 . S
C166 C168 1.382 . S
C166 H170 0.950 . S
H167 C162 0.949 . S
C168 C163 1.399 . S
C168 C166 1.382 . S
C168 H169 0.952 . S
H169 C168 0.952 . S
H170 C166 0.950 . S
H171 C172 0.949 . S
C172 H171 0.949 . S
C172 C173 1.395 . S
C172 C174 1.391 . S
C173 C172 1.395 . S
C173 C176 1.390 . S
C174 C172 1.391 . S
C174 C178 1.387 . S
C174 C179 1.491 . S
H175 C176 0.950 . S
C176 C173 1.390 . S
C176 H175 0.950 . S
C176 C177 1.378 . S
C177 C176 1.378 . S
C177 C178 1.409 . S
C178 C174 1.387 . S
C178 C177 1.409 . S
C178 H180 0.951 . S
C179 C174 1.491 . S
C179 C181 1.382 . S
C179 C183 1.404 . S
H180 C178 0.951 . S
C181 C179 1.382 . S
C181 C182 1.390 . S
C181 H186 0.949 . S
C182 C181 1.390 . S
C182 C187 1.399 . S
C183 C179 1.404 . S
C183 H184 0.950 . S
C183 C185 1.375 . S
H184 C183 0.950 . S
C185 C183 1.375 . S
C185 C187 1.382 . S
C185 H189 0.950 . S
H186 C181 0.949 . S
C187 C182 1.399 . S
C187 C185 1.382 . S
C187 H188 0.952 . S
H188 C187 0.952 . S
H189 C185 0.950 . S
H190 C191 0.949 . S
C191 H190 0.949 . S
C191 C192 1.395 . S
C191 C193 1.391 . S
C192 C191 1.395 . S
C192 C195 1.390 . S
C193 C191 1.391 . S
C193 C197 1.387 . S
C193 C198 1.491 . S
H194 C195 0.950 . S
C195 C192 1.390 . S
C195 H194 0.950 . S
C195 C196 1.378 . S
C196 C195 1.378 . S
C196 C197 1.409 . S
C197 C193 1.387 . S
C197 C196 1.409 . S
C197 H199 0.951 1_556 S
C198 C193 1.491 . S
C198 C200 1.382 . S
C198 C202 1.404 1_556 S
H199 C197 0.951 1_554 S
C200 C198 1.382 . S
C200 C201 1.390 1_556 S
C200 H205 0.949 . S
C201 C200 1.390 1_554 S
C201 C206 1.399 . S
C202 C198 1.404 1_554 S
C202 H203 0.950 . S
C202 C204 1.375 . S
H203 C202 0.950 . S
C204 C202 1.375 . S
C204 C206 1.382 . S
C204 H208 0.950 . S
H205 C200 0.949 . S
C206 C201 1.399 . S
C206 C204 1.382 . S
C206 H207 0.952 . S
H207 C206 0.952 . S
H208 C204 0.950 . S
H209 C210 0.949 . S
C210 H209 0.949 . S
C210 C211 1.395 . S
C210 C212 1.391 . S
C211 C210 1.395 . S
C211 C214 1.390 . S
C212 C210 1.391 . S
C212 C216 1.387 . S
C212 C217 1.491 . S
H213 C214 0.950 . S
C214 C211 1.390 . S
C214 H213 0.950 . S
C214 C215 1.378 . S
C215 C214 1.378 . S
C215 C216 1.409 . S
C216 C212 1.387 . S
C216 C215 1.409 . S
C216 H218 0.951 . S
C217 C212 1.491 . S
C217 C219 1.382 . S
C217 C221 1.404 . S
H218 C216 0.951 . S
C219 C217 1.382 . S
C219 C220 1.390 . S
C219 H224 0.949 . S
C220 C219 1.390 . S
C220 C225 1.399 . S
C221 C217 1.404 . S
C221 H222 0.950 . S
C221 C223 1.375 1_556 S
H222 C221 0.950 . S
C223 C221 1.375 1_554 S
C223 C225 1.382 1_554 S
C223 H227 0.950 . S
H224 C219 0.949 . S
C225 C220 1.399 . S
C225 C223 1.382 1_556 S
C225 H226 0.952 1_556 S
H226 C225 0.952 1_554 S
H227 C223 0.950 . S
H228 C229 0.949 . S
C229 H228 0.949 . S
C229 C230 1.395 . S
C229 C231 1.391 . S
C230 C229 1.395 . S
C230 C233 1.390 . S
C231 C229 1.391 . S
C231 C235 1.387 . S
C231 C236 1.491 . S
H232 C233 0.950 . S
C233 C230 1.390 . S
C233 H232 0.950 . S
C233 C234 1.378 . S
C234 C233 1.378 . S
C234 C235 1.409 . S
C235 C231 1.387 . S
C235 C234 1.409 . S
C235 H237 0.951 1_554 S
C236 C231 1.491 . S
C236 C238 1.382 . S
C236 C240 1.404 1_554 S
H237 C235 0.951 1_556 S
C238 C236 1.382 . S
C238 C239 1.390 . S
C238 H243 0.949 . S
C239 C238 1.390 . S
C239 C244 1.399 1_554 S
C240 C236 1.404 1_556 S
C240 H241 0.950 . S
C240 C242 1.375 . S
H241 C240 0.950 . S
C242 C240 1.375 . S
C242 C244 1.382 . S
C242 H246 0.950 . S
H243 C238 0.949 . S
C244 C239 1.399 1_556 S
C244 C242 1.382 . S
C244 H245 0.952 . S
H245 C244 0.952 . S
H246 C242 0.950 . S
H247 C248 0.949 . S
C248 H247 0.949 . S
C248 C249 1.395 . S
C248 C250 1.391 . S
C249 C248 1.395 . S
C249 C252 1.390 . S
C250 C248 1.391 . S
C250 C254 1.387 . S
C250 C255 1.491 . S
H251 C252 0.950 . S
C252 C249 1.390 . S
C252 H251 0.950 . S
C252 C253 1.378 . S
C253 C252 1.378 . S
C253 C254 1.409 . S
C254 C250 1.387 . S
C254 C253 1.409 . S
C254 H256 0.951 . S
C255 C250 1.491 . S
C255 C257 1.382 . S
C255 C259 1.404 . S
H256 C254 0.951 . S
C257 C255 1.382 . S
C257 C258 1.390 . S
C257 H262 0.949 . S
C258 C257 1.390 . S
C258 C263 1.399 1_554 S
C259 C255 1.404 . S
C259 H260 0.950 . S
C259 C261 1.375 1_554 S
H260 C259 0.950 . S
C261 C259 1.375 1_556 S
C261 C263 1.382 . S
C261 H265 0.950 . S
H262 C257 0.949 . S
C263 C258 1.399 1_556 S
C263 C261 1.382 . S
C263 H264 0.952 . S
H264 C263 0.952 . S
H265 C261 0.950 . S
H266 C267 0.949 . S
C267 H266 0.949 . S
C267 C268 1.395 . S
C267 C269 1.391 . S
C268 C267 1.395 . S
C268 C271 1.390 . S
C269 C267 1.391 . S
C269 C273 1.387 . S
C269 C274 1.491 . S
H270 C271 0.950 . S
C271 C268 1.390 . S
C271 H270 0.950 . S
C271 C272 1.378 . S
C272 C271 1.378 . S
C272 C273 1.409 . S
C273 C269 1.387 . S
C273 C272 1.409 . S
C273 H275 0.951 . S
C274 C269 1.491 . S
C274 C276 1.382 . S
C274 C278 1.404 . S
H275 C273 0.951 . S
C276 C274 1.382 . S
C276 C277 1.390 . S
C276 H281 0.949 . S
C277 C276 1.390 . S
C277 C282 1.399 . S
C278 C274 1.404 . S
C278 H279 0.950 . S
C278 C280 1.375 . S
H279 C278 0.950 . S
C280 C278 1.375 . S
C280 C282 1.382 . S
C280 H284 0.950 . S
H281 C276 0.949 . S
C282 C277 1.399 . S
C282 C280 1.382 . S
C282 H283 0.952 . S
H283 C282 0.952 . S
H284 C280 0.950 . S
H285 C286 0.949 . S
C286 H285 0.949 . S
C286 C287 1.395 . S
C286 C288 1.391 . S
C287 C286 1.395 . S
C287 C290 1.390 . S
C288 C286 1.391 . S
C288 C292 1.387 . S
C288 C293 1.491 . S
H289 C290 0.950 . S
C290 C287 1.390 . S
C290 H289 0.950 . S
C290 C291 1.378 . S
C291 C290 1.378 . S
C291 C292 1.409 . S
C292 C288 1.387 . S
C292 C291 1.409 . S
C292 H294 0.951 . S
C293 C288 1.491 . S
C293 C295 1.382 . S
C293 C297 1.404 . S
H294 C292 0.951 . S
C295 C293 1.382 . S
C295 C296 1.390 . S
C295 H300 0.949 . S
C296 C295 1.390 . S
C296 C301 1.399 . S
C297 C293 1.404 . S
C297 H298 0.950 . S
C297 C299 1.375 . S
H298 C297 0.950 . S
C299 C297 1.375 . S
C299 C301 1.382 . S
C299 H303 0.950 . S
H300 C295 0.949 . S
C301 C296 1.399 . S
C301 C299 1.382 . S
C301 H302 0.952 . S
H302 C301 0.952 . S
H303 C299 0.950 . S
H304 C305 0.949 . S
C305 H304 0.949 . S
C305 C306 1.395 . S
C305 C307 1.391 . S
C306 C305 1.395 . S
C306 C309 1.390 . S
C307 C305 1.391 . S
C307 C311 1.387 . S
C307 C312 1.491 . S
H308 C309 0.950 . S
C309 C306 1.390 . S
C309 H308 0.950 . S
C309 C310 1.378 . S
C310 C309 1.378 . S
C310 C311 1.409 . S
C311 C307 1.387 . S
C311 C310 1.409 . S
C311 H313 0.951 . S
C312 C307 1.491 . S
C312 C314 1.382 . S
C312 C316 1.404 . S
H313 C311 0.951 . S
C314 C312 1.382 . S
C314 C315 1.390 . S
C314 H319 0.949 . S
C315 C314 1.390 . S
C315 C320 1.399 . S
C316 C312 1.404 . S
C316 H317 0.950 . S
C316 C318 1.375 . S
H317 C316 0.950 . S
C318 C316 1.375 . S
C318 C320 1.382 . S
C318 H322 0.950 . S
H319 C314 0.949 . S
C320 C315 1.399 . S
C320 C318 1.382 . S
C320 H321 0.952 . S
H321 C320 0.952 . S
H322 C318 0.950 . S
H323 C324 0.949 . S
C324 H323 0.949 . S
C324 C325 1.395 . S
C324 C326 1.391 . S
C325 C324 1.395 . S
C325 C328 1.390 . S
C326 C324 1.391 . S
C326 C330 1.387 . S
C326 C331 1.491 . S
H327 C328 0.950 . S
C328 C325 1.390 . S
C328 H327 0.950 . S
C328 C329 1.378 . S
C329 C328 1.378 . S
C329 C330 1.409 . S
C330 C326 1.387 . S
C330 C329 1.409 . S
C330 H332 0.951 . S
C331 C326 1.491 . S
C331 C333 1.382 . S
C331 C335 1.404 . S
H332 C330 0.951 . S
C333 C331 1.382 . S
C333 C334 1.390 . S
C333 H338 0.949 . S
C334 C333 1.390 . S
C334 C339 1.399 . S
C335 C331 1.404 . S
C335 H336 0.950 . S
C335 C337 1.375 . S
H336 C335 0.950 . S
C337 C335 1.375 . S
C337 C339 1.382 . S
C337 H341 0.950 . S
H338 C333 0.949 . S
C339 C334 1.399 . S
C339 C337 1.382 . S
C339 H340 0.952 . S
H340 C339 0.952 . S
H341 C337 0.950 . S
C342 Eu343 2.835 1_565 S
C342 C344 1.500 . S
C342 O362 1.257 . S
C342 O363 1.260 1_565 S
Eu343 C342 2.835 1_545 S
Eu343 O362 2.473 1_545 S
Eu343 O363 2.480 . S
Eu343 O364 2.430 . S
Eu343 O365 2.670 1_554 S
Eu343 O366 2.394 1_545 S
Eu343 O371 2.355 1_545 S
Eu343 O373 2.374 . S
C344 C342 1.500 . S
C344 C345 1.392 . S
C344 C349 1.377 . S
C345 C344 1.392 . S
C345 C346 1.401 . S
C345 H374 0.909 1_565 S
C346 C345 1.401 . S
C346 C347 1.383 . S
C346 H375 0.931 1_565 S
C347 C346 1.383 . S
C347 C348 1.394 . S
C348 C347 1.394 . S
C348 C349 1.378 . S
C348 H376 0.931 . S
C349 C344 1.377 . S
C349 C348 1.378 . S
C349 H377 0.931 . S
C350 O364 1.259 . S
C350 O365 1.270 1_554 S
C351 O366 1.251 . S
C351 O367 1.251 1_554 S
C352 Eu353 2.835 1_545 S
C352 C354 1.500 . S
C352 O368 1.257 . S
C352 O369 1.260 1_545 S
Eu353 C352 2.835 1_565 S
Eu353 O365 2.355 1_565 S
Eu353 O367 2.374 . S
Eu353 O368 2.473 1_565 S
Eu353 O369 2.480 . S
Eu353 O370 2.430 . S
Eu353 O371 2.670 1_556 S
Eu353 O372 2.394 1_565 S
C354 C352 1.500 . S
C354 C355 1.377 . S
C354 C359 1.377 . S
C355 C354 1.377 . S
C355 C356 1.395 . S
C355 H378 0.931 1_545 S
C356 C355 1.395 . S
C356 C357 1.383 . S
C356 H379 0.931 . S
C357 C356 1.383 . S
C357 C358 1.394 . S
C358 C357 1.394 . S
C358 C359 1.378 . S
C358 H380 0.931 . S
C359 C354 1.377 . S
C359 C358 1.378 . S
C359 H381 0.931 . S
C360 O370 1.259 . S
C360 O371 1.270 1_556 S
C361 O372 1.251 . S
C361 O373 1.251 1_556 S
O362 C342 1.257 . S
O362 Eu343 2.473 1_565 S
O363 C342 1.260 1_545 S
O363 Eu343 2.480 . S
O364 Eu343 2.430 . S
O364 C350 1.259 . S
O365 Eu343 2.670 1_556 S
O365 C350 1.270 1_556 S
O365 Eu353 2.355 1_545 S
O366 Eu343 2.394 1_565 S
O366 C351 1.251 . S
O367 C351 1.251 1_556 S
O367 Eu353 2.374 . S
O368 C352 1.257 . S
O368 Eu353 2.473 1_545 S
O369 C352 1.260 1_565 S
O369 Eu353 2.480 . S
O370 Eu353 2.430 . S
O370 C360 1.259 . S
O371 Eu343 2.355 1_565 S
O371 Eu353 2.670 1_554 S
O371 C360 1.270 1_554 S
O372 Eu353 2.394 1_545 S
O372 C361 1.251 . S
O373 Eu343 2.374 . S
O373 C361 1.251 1_554 S
H374 C345 0.909 1_545 S
H375 C346 0.931 1_545 S
H376 C348 0.931 . S
H377 C349 0.931 . S
H378 C355 0.931 1_565 S
H379 C356 0.931 . S
H380 C358 0.931 . S
H381 C359 0.931 . S
C382 Eu383 2.835 1_455 S
C382 C384 1.500 . S
C382 O402 1.257 . S
C382 O403 1.260 1_455 S
Eu383 C382 2.835 1_655 S
Eu383 O402 2.473 1_655 S
Eu383 O403 2.480 . S
Eu383 O404 2.430 . S
Eu383 O405 2.670 1_554 S
Eu383 O406 2.394 1_655 S
Eu383 O411 2.355 1_655 S
Eu383 O413 2.374 . S
C384 C382 1.500 . S
C384 C385 1.377 . S
C384 C389 1.377 . S
C385 C384 1.377 . S
C385 C386 1.395 . S
C385 H414 0.931 1_455 S
C386 C385 1.395 . S
C386 C387 1.383 . S
C386 H415 0.931 . S
C387 C386 1.383 . S
C387 C388 1.394 . S
C388 C387 1.394 . S
C388 C389 1.378 . S
C388 H416 0.931 . S
C389 C384 1.377 . S
C389 C388 1.378 . S
C389 H417 0.931 . S
C390 O404 1.254 1_556 S
C390 O405 1.272 . S
C391 O406 1.251 . S
C391 O407 1.251 1_554 S
C392 Eu393 2.835 1_655 S
C392 C394 1.500 . S
C392 O408 1.257 . S
C392 O409 1.260 1_655 S
Eu393 C392 2.835 1_455 S
Eu393 O405 2.355 1_455 S
Eu393 O407 2.374 . S
Eu393 O408 2.473 1_455 S
Eu393 O409 2.480 . S
Eu393 O410 2.430 . S
Eu393 O411 2.670 1_556 S
Eu393 O412 2.394 1_455 S
C394 C392 1.500 . S
C394 C395 1.377 . S
C394 C399 1.377 . S
C395 C394 1.377 . S
C395 C396 1.395 . S
C395 H418 0.931 1_655 S
C396 C395 1.395 . S
C396 C397 1.383 . S
C396 H419 0.931 . S
C397 C396 1.383 . S
C397 C398 1.394 . S
C398 C397 1.394 . S
C398 C399 1.378 . S
C398 H420 0.931 . S
C399 C394 1.377 . S
C399 C398 1.378 . S
C399 H421 0.931 . S
C400 O410 1.259 1_554 S
C400 O411 1.270 . S
C401 O412 1.251 . S
C401 O413 1.251 1_556 S
O402 C382 1.257 . S
O402 Eu383 2.473 1_455 S
O403 C382 1.260 1_655 S
O403 Eu383 2.480 . S
O404 Eu383 2.430 . S
O404 C390 1.254 1_554 S
O405 Eu383 2.670 1_556 S
O405 C390 1.272 . S
O405 Eu393 2.355 1_655 S
O406 Eu383 2.394 1_455 S
O406 C391 1.251 . S
O407 C391 1.251 1_556 S
O407 Eu393 2.374 . S
O408 C392 1.257 . S
O408 Eu393 2.473 1_655 S
O409 C392 1.260 1_455 S
O409 Eu393 2.480 . S
O410 Eu393 2.430 . S
O410 C400 1.259 1_556 S
O411 Eu383 2.355 1_455 S
O411 Eu393 2.670 1_554 S
O411 C400 1.270 . S
O412 Eu393 2.394 1_655 S
O412 C401 1.251 . S
O413 Eu383 2.374 . S
O413 C401 1.251 1_554 S
H414 C385 0.931 1_655 S
H415 C386 0.931 . S
H416 C388 0.931 . S
H417 C389 0.931 . S
H418 C395 0.931 1_455 S
H419 C396 0.931 . S
H420 C398 0.931 . S
H421 C399 0.931 . S
C422 Eu423 2.835 . S
C422 C424 1.500 . S
C422 O442 1.257 . S
C422 O443 1.260 . S
Eu423 C422 2.835 . S
Eu423 O442 2.473 . S
Eu423 O443 2.480 . S
Eu423 O444 2.430 . S
Eu423 O445 2.670 1_556 S
Eu423 O446 2.394 . S
Eu423 O451 2.355 . S
Eu423 O453 2.343 1_556 S
C424 C422 1.500 . S
C424 C425 1.377 . S
C424 C429 1.377 . S
C425 C424 1.377 . S
C425 C426 1.395 . S
C425 H454 0.931 . S
C426 C425 1.395 . S
C426 C427 1.383 . S
C426 H455 0.931 . S
C427 C426 1.383 . S
C427 C428 1.394 . S
C428 C427 1.394 . S
C428 C429 1.378 . S
C428 H456 0.931 . S
C429 C424 1.377 . S
C429 C428 1.378 . S
C429 H457 0.931 . S
C430 O444 1.259 1_554 S
C430 O445 1.270 . S
C431 O446 1.251 . S
C431 O447 1.251 1_556 S
C432 Eu433 2.835 . S
C432 C434 1.500 . S
C432 O448 1.257 . S
C432 O449 1.260 . S
Eu433 C432 2.835 . S
Eu433 O445 2.355 . S
Eu433 O447 2.374 . S
Eu433 O448 2.473 . S
Eu433 O449 2.480 . S
Eu433 O450 2.430 . S
Eu433 O451 2.670 1_554 S
Eu433 O452 2.394 . S
C434 C432 1.500 . S
C434 C435 1.377 . S
C434 C439 1.377 . S
C435 C434 1.377 . S
C435 C436 1.395 . S
C435 H458 0.931 . S
C436 C435 1.395 . S
C436 C437 1.383 . S
C436 H459 0.931 . S
C437 C436 1.383 . S
C437 C438 1.394 . S
C438 C437 1.394 . S
C438 C439 1.378 . S
C438 H460 0.931 . S
C439 C434 1.377 . S
C439 C438 1.378 . S
C439 H461 0.931 . S
C440 O450 1.259 . S
C440 O451 1.270 1_554 S
C441 O452 1.251 . S
C441 O453 1.296 . S
O442 C422 1.257 . S
O442 Eu423 2.473 . S
O443 C422 1.260 . S
O443 Eu423 2.480 . S
O444 Eu423 2.430 . S
O444 C430 1.259 1_556 S
O445 Eu423 2.670 1_554 S
O445 C430 1.270 . S
O445 Eu433 2.355 . S
O446 Eu423 2.394 . S
O446 C431 1.251 . S
O447 C431 1.251 1_554 S
O447 Eu433 2.374 . S
O448 C432 1.257 . S
O448 Eu433 2.473 . S
O449 C432 1.260 . S
O449 Eu433 2.480 . S
O450 Eu433 2.430 . S
O450 C440 1.259 . S
O451 Eu423 2.355 . S
O451 Eu433 2.670 1_556 S
O451 C440 1.270 1_556 S
O452 Eu433 2.394 . S
O452 C441 1.251 . S
O453 Eu423 2.343 1_554 S
O453 C441 1.296 . S
H454 C425 0.931 . S
H455 C426 0.931 . S
H456 C428 0.931 . S
H457 C429 0.931 . S
H458 C435 0.931 . S
H459 C436 0.931 . S
H460 C438 0.931 . S
H461 C439 0.931 . S
C462 Eu463 2.835 . S
C462 C464 1.500 . S
C462 O482 1.257 . S
C462 O483 1.260 . S
Eu463 C462 2.835 . S
Eu463 O482 2.473 . S
Eu463 O483 2.480 . S
Eu463 O484 2.430 . S
Eu463 O485 2.670 . S
Eu463 O486 2.394 . S
Eu463 O491 2.355 . S
Eu463 O493 2.374 . S
C464 C462 1.500 . S
C464 C465 1.377 . S
C464 C469 1.377 . S
C465 C464 1.377 . S
C465 C466 1.395 . S
C465 H494 0.931 . S
C466 C465 1.395 . S
C466 C467 1.383 . S
C466 H495 0.931 . S
C467 C466 1.383 . S
C467 C468 1.394 . S
C468 C467 1.394 . S
C468 C469 1.378 . S
C468 H496 0.931 . S
C469 C464 1.377 . S
C469 C468 1.378 . S
C469 H497 0.931 . S
C470 O484 1.259 . S
C470 O485 1.270 . S
C471 O486 1.251 . S
C471 O487 1.251 . S
C472 Eu473 2.835 . S
C472 C474 1.500 . S
C472 O488 1.257 . S
C472 O489 1.260 . S
Eu473 C472 2.835 . S
Eu473 O485 2.355 . S
Eu473 O487 2.374 . S
Eu473 O488 2.473 . S
Eu473 O489 2.480 . S
Eu473 O490 2.430 . S
Eu473 O491 2.670 . S
Eu473 O492 2.394 . S
C474 C472 1.500 . S
C474 C475 1.377 . S
C474 C479 1.377 . S
C475 C474 1.377 . S
C475 C476 1.395 . S
C475 H498 0.931 . S
C476 C475 1.395 . S
C476 C477 1.383 . S
C476 H499 0.931 . S
C477 C476 1.383 . S
C477 C478 1.394 . S
C478 C477 1.394 . S
C478 C479 1.378 . S
C478 H500 0.931 . S
C479 C474 1.377 . S
C479 C478 1.378 . S
C479 H501 0.931 . S
C480 O490 1.259 . S
C480 O491 1.270 . S
C481 O492 1.251 . S
C481 O493 1.251 . S
O482 C462 1.257 . S
O482 Eu463 2.473 . S
O483 C462 1.260 . S
O483 Eu463 2.480 . S
O484 Eu463 2.430 . S
O484 C470 1.259 . S
O485 Eu463 2.670 . S
O485 C470 1.270 . S
O485 Eu473 2.355 . S
O486 Eu463 2.394 . S
O486 C471 1.251 . S
O487 C471 1.251 . S
O487 Eu473 2.374 . S
O488 C472 1.257 . S
O488 Eu473 2.473 . S
O489 C472 1.260 . S
O489 Eu473 2.480 . S
O490 Eu473 2.430 . S
O490 C480 1.259 . S
O491 Eu463 2.355 . S
O491 Eu473 2.670 . S
O491 C480 1.270 . S
O492 Eu473 2.394 . S
O492 C481 1.251 . S
O493 Eu463 2.374 . S
O493 C481 1.251 . S
H494 C465 0.931 . S
H495 C466 0.931 . S
H496 C468 0.931 . S
H497 C469 0.931 . S
H498 C475 0.931 . S
H499 C476 0.931 . S
H500 C478 0.931 . S
H501 C479 0.931 . S
C502 Eu503 2.835 . S
C502 C504 1.500 . S
C502 O522 1.257 . S
C502 O523 1.260 . S
Eu503 C502 2.835 . S
Eu503 O522 2.473 . S
Eu503 O523 2.480 . S
Eu503 O524 2.430 . S
Eu503 O525 2.670 . S
Eu503 O526 2.394 . S
Eu503 O531 2.355 . S
Eu503 O533 2.374 . S
C504 C502 1.500 . S
C504 C505 1.377 . S
C504 C509 1.377 . S
C505 C504 1.377 . S
C505 C506 1.395 . S
C505 H534 0.931 . S
C506 C505 1.395 . S
C506 C507 1.383 . S
C506 H535 0.931 . S
C507 C506 1.383 . S
C507 C508 1.394 . S
C508 C507 1.394 . S
C508 C509 1.378 . S
C508 H536 0.931 . S
C509 C504 1.377 . S
C509 C508 1.378 . S
C509 H537 0.931 . S
C510 O524 1.259 . S
C510 O525 1.270 . S
C511 O526 1.251 . S
C511 O527 1.251 . S
C512 Eu513 2.835 . S
C512 C514 1.500 . S
C512 O528 1.257 . S
C512 O529 1.260 . S
Eu513 C512 2.835 . S
Eu513 O525 2.355 . S
Eu513 O527 2.374 . S
Eu513 O528 2.473 . S
Eu513 O529 2.480 . S
Eu513 O530 2.430 . S
Eu513 O531 2.670 . S
Eu513 O532 2.394 . S
C514 C512 1.500 . S
C514 C515 1.377 . S
C514 C519 1.377 . S
C515 C514 1.377 . S
C515 C516 1.395 . S
C515 H538 0.931 . S
C516 C515 1.395 . S
C516 C517 1.383 . S
C516 H539 0.931 . S
C517 C516 1.383 . S
C517 C518 1.394 . S
C518 C517 1.394 . S
C518 C519 1.378 . S
C518 H540 0.931 . S
C519 C514 1.377 . S
C519 C518 1.378 . S
C519 H541 0.931 . S
C520 O530 1.259 . S
C520 O531 1.270 . S
C521 O532 1.251 . S
C521 O533 1.251 . S
O522 C502 1.257 . S
O522 Eu503 2.473 . S
O523 C502 1.260 . S
O523 Eu503 2.480 . S
O524 Eu503 2.430 . S
O524 C510 1.259 . S
O525 Eu503 2.670 . S
O525 C510 1.270 . S
O525 Eu513 2.355 . S
O526 Eu503 2.394 . S
O526 C511 1.251 . S
O527 C511 1.251 . S
O527 Eu513 2.374 . S
O528 C512 1.257 . S
O528 Eu513 2.473 . S
O529 C512 1.260 . S
O529 Eu513 2.480 . S
O530 Eu513 2.430 . S
O530 C520 1.259 . S
O531 Eu503 2.355 . S
O531 Eu513 2.670 . S
O531 C520 1.270 . S
O532 Eu513 2.394 . S
O532 C521 1.251 . S
O533 Eu503 2.374 . S
O533 C521 1.251 . S
H534 C505 0.931 . S
H535 C506 0.931 . S
H536 C508 0.931 . S
H537 C509 0.931 . S
H538 C515 0.931 . S
H539 C516 0.931 . S
H540 C518 0.931 . S
H541 C519 0.931 . S
C542 Eu543 2.835 . S
C542 C544 1.500 . S
C542 O562 1.257 . S
C542 O563 1.260 . S
Eu543 C542 2.835 . S
Eu543 O562 2.473 . S
Eu543 O563 2.480 . S
Eu543 O564 2.430 . S
Eu543 O565 2.670 . S
Eu543 O566 2.394 . S
Eu543 O571 2.355 . S
Eu543 O573 2.374 . S
C544 C542 1.500 . S
C544 C545 1.377 . S
C544 C549 1.377 . S
C545 C544 1.377 . S
C545 C546 1.395 . S
C545 H574 0.931 . S
C546 C545 1.395 . S
C546 C547 1.383 . S
C546 H575 0.931 . S
C547 C546 1.383 . S
C547 C548 1.394 . S
C548 C547 1.394 . S
C548 C549 1.378 . S
C548 H576 0.931 . S
C549 C544 1.377 . S
C549 C548 1.378 . S
C549 H577 0.931 . S
C550 O564 1.259 . S
C550 O565 1.270 . S
C551 O566 1.251 . S
C551 O567 1.251 . S
C552 Eu553 2.835 . S
C552 C554 1.500 . S
C552 O568 1.257 . S
C552 O569 1.260 . S
Eu553 C552 2.835 . S
Eu553 O565 2.355 . S
Eu553 O567 2.374 . S
Eu553 O568 2.473 . S
Eu553 O569 2.480 . S
Eu553 O570 2.430 . S
Eu553 O571 2.670 . S
Eu553 O572 2.394 . S
C554 C552 1.500 . S
C554 C555 1.377 . S
C554 C559 1.377 . S
C555 C554 1.377 . S
C555 C556 1.395 . S
C555 H578 0.931 . S
C556 C555 1.395 . S
C556 C557 1.383 . S
C556 H579 0.931 . S
C557 C556 1.383 . S
C557 C558 1.394 . S
C558 C557 1.394 . S
C558 C559 1.378 . S
C558 H580 0.931 . S
C559 C554 1.377 . S
C559 C558 1.378 . S
C559 H581 0.931 . S
C560 O570 1.259 . S
C560 O571 1.270 . S
C561 O572 1.251 . S
C561 O573 1.251 . S
O562 C542 1.257 . S
O562 Eu543 2.473 . S
O563 C542 1.260 . S
O563 Eu543 2.480 . S
O564 Eu543 2.430 . S
O564 C550 1.259 . S
O565 Eu543 2.670 . S
O565 C550 1.270 . S
O565 Eu553 2.355 . S
O566 Eu543 2.394 . S
O566 C551 1.251 . S
O567 C551 1.251 . S
O567 Eu553 2.374 . S
O568 C552 1.257 . S
O568 Eu553 2.473 . S
O569 C552 1.260 . S
O569 Eu553 2.480 . S
O570 Eu553 2.430 . S
O570 C560 1.259 . S
O571 Eu543 2.355 . S
O571 Eu553 2.670 . S
O571 C560 1.270 . S
O572 Eu553 2.394 . S
O572 C561 1.251 . S
O573 Eu543 2.374 . S
O573 C561 1.251 . S
H574 C545 0.931 . S
H575 C546 0.931 . S
H576 C548 0.931 . S
H577 C549 0.931 . S
H578 C555 0.931 . S
H579 C556 0.931 . S
H580 C558 0.931 . S
H581 C559 0.931 . S
C582 Eu583 2.835 . S
C582 C584 1.500 . S
C582 O602 1.257 . S
C582 O603 1.260 . S
Eu583 C582 2.835 . S
Eu583 O602 2.473 . S
Eu583 O603 2.480 . S
Eu583 O604 2.430 . S
Eu583 O605 2.670 . S
Eu583 O606 2.394 . S
Eu583 O611 2.355 . S
Eu583 O613 2.374 . S
C584 C582 1.500 . S
C584 C585 1.377 . S
C584 C589 1.377 . S
C585 C584 1.377 . S
C585 C586 1.395 . S
C585 H614 0.931 . S
C586 C585 1.395 . S
C586 C587 1.383 . S
C586 H615 0.931 . S
C587 C586 1.383 . S
C587 C588 1.394 . S
C588 C587 1.394 . S
C588 C589 1.378 . S
C588 H616 0.931 . S
C589 C584 1.377 . S
C589 C588 1.378 . S
C589 H617 0.931 . S
C590 O604 1.259 . S
C590 O605 1.270 . S
C591 O606 1.251 . S
C591 O607 1.251 . S
C592 Eu593 2.835 . S
C592 C594 1.500 . S
C592 O608 1.257 . S
C592 O609 1.260 . S
Eu593 C592 2.835 . S
Eu593 O605 2.355 . S
Eu593 O607 2.374 . S
Eu593 O608 2.473 . S
Eu593 O609 2.480 . S
Eu593 O610 2.430 . S
Eu593 O611 2.670 . S
Eu593 O612 2.394 . S
C594 C592 1.500 . S
C594 C595 1.377 . S
C594 C599 1.377 . S
C595 C594 1.377 . S
C595 C596 1.395 . S
C595 H618 0.931 . S
C596 C595 1.395 . S
C596 C597 1.383 . S
C596 H619 0.931 . S
C597 C596 1.383 . S
C597 C598 1.394 . S
C598 C597 1.394 . S
C598 C599 1.378 . S
C598 H620 0.931 . S
C599 C594 1.377 . S
C599 C598 1.378 . S
C599 H621 0.931 . S
C600 O610 1.259 . S
C600 O611 1.270 . S
C601 O612 1.251 . S
C601 O613 1.251 . S
O602 C582 1.257 . S
O602 Eu583 2.473 . S
O603 C582 1.260 . S
O603 Eu583 2.480 . S
O604 Eu583 2.430 . S
O604 C590 1.259 . S
O605 Eu583 2.670 . S
O605 C590 1.270 . S
O605 Eu593 2.355 . S
O606 Eu583 2.394 . S
O606 C591 1.251 . S
O607 C591 1.251 . S
O607 Eu593 2.374 . S
O608 C592 1.257 . S
O608 Eu593 2.473 . S
O609 C592 1.260 . S
O609 Eu593 2.480 . S
O610 Eu593 2.430 . S
O610 C600 1.259 . S
O611 Eu583 2.355 . S
O611 Eu593 2.670 . S
O611 C600 1.270 . S
O612 Eu593 2.394 . S
O612 C601 1.251 . S
O613 Eu583 2.374 . S
O613 C601 1.251 . S
H614 C585 0.931 . S
H615 C586 0.931 . S
H616 C588 0.931 . S
H617 C589 0.931 . S
H618 C595 0.931 . S
H619 C596 0.931 . S
H620 C598 0.931 . S
H621 C599 0.931 . S
C622 Eu623 2.835 . S
C622 C624 1.500 . S
C622 O642 1.257 . S
C622 O643 1.260 . S
Eu623 C622 2.835 . S
Eu623 O642 2.473 . S
Eu623 O643 2.480 . S
Eu623 O644 2.430 . S
Eu623 O645 2.670 . S
Eu623 O646 2.394 . S
Eu623 O651 2.355 . S
Eu623 O653 2.374 . S
C624 C622 1.500 . S
C624 C625 1.377 . S
C624 C629 1.377 . S
C625 C624 1.377 . S
C625 C626 1.395 . S
C625 H654 0.931 . S
C626 C625 1.395 . S
C626 C627 1.383 . S
C626 H655 0.931 . S
C627 C626 1.383 . S
C627 C628 1.394 . S
C628 C627 1.394 . S
C628 C629 1.378 . S
C628 H656 0.931 . S
C629 C624 1.377 . S
C629 C628 1.378 . S
C629 H657 0.931 . S
C630 O644 1.259 . S
C630 O645 1.270 . S
C631 O646 1.251 . S
C631 O647 1.251 . S
C632 Eu633 2.835 . S
C632 C634 1.500 . S
C632 O648 1.257 . S
C632 O649 1.260 . S
Eu633 C632 2.835 . S
Eu633 O645 2.355 . S
Eu633 O647 2.374 . S
Eu633 O648 2.473 . S
Eu633 O649 2.480 . S
Eu633 O650 2.430 . S
Eu633 O651 2.670 . S
Eu633 O652 2.394 . S
C634 C632 1.500 . S
C634 C635 1.377 . S
C634 C639 1.377 . S
C635 C634 1.377 . S
C635 C636 1.395 . S
C635 H658 0.931 . S
C636 C635 1.395 . S
C636 C637 1.383 . S
C636 H659 0.931 . S
C637 C636 1.383 . S
C637 C638 1.394 . S
C638 C637 1.394 . S
C638 C639 1.378 . S
C638 H660 0.931 . S
C639 C634 1.377 . S
C639 C638 1.378 . S
C639 H661 0.931 . S
C640 O650 1.259 . S
C640 O651 1.270 . S
C641 O652 1.251 . S
C641 O653 1.251 . S
O642 C622 1.257 . S
O642 Eu623 2.473 . S
O643 C622 1.260 . S
O643 Eu623 2.480 . S
O644 Eu623 2.430 . S
O644 C630 1.259 . S
O645 Eu623 2.670 . S
O645 C630 1.270 . S
O645 Eu633 2.355 . S
O646 Eu623 2.394 . S
O646 C631 1.251 . S
O647 C631 1.251 . S
O647 Eu633 2.374 . S
O648 C632 1.257 . S
O648 Eu633 2.473 . S
O649 C632 1.260 . S
O649 Eu633 2.480 . S
O650 Eu633 2.430 . S
O650 C640 1.259 . S
O651 Eu623 2.355 . S
O651 Eu633 2.670 . S
O651 C640 1.270 . S
O652 Eu633 2.394 . S
O652 C641 1.251 . S
O653 Eu623 2.374 . S
O653 C641 1.251 . S
H654 C625 0.931 . S
H655 C626 0.931 . S
H656 C628 0.931 . S
H657 C629 0.931 . S
H658 C635 0.931 . S
H659 C636 0.931 . S
H660 C638 0.931 . S
H661 C639 0.931 . S
C662 Eu663 2.835 . S
C662 C664 1.500 . S
C662 O682 1.257 . S
C662 O683 1.260 . S
Eu663 C662 2.835 . S
Eu663 O682 2.473 . S
Eu663 O683 2.480 . S
Eu663 O684 2.430 . S
Eu663 O685 2.670 . S
Eu663 O686 2.394 . S
Eu663 O691 2.355 . S
Eu663 O693 2.374 . S
C664 C662 1.500 . S
C664 C665 1.377 . S
C664 C669 1.377 . S
C665 C664 1.377 . S
C665 C666 1.395 . S
C665 H694 0.931 . S
C666 C665 1.395 . S
C666 C667 1.383 . S
C666 H695 0.931 . S
C667 C666 1.383 . S
C667 C668 1.394 . S
C668 C667 1.394 . S
C668 C669 1.378 . S
C668 H696 0.931 . S
C669 C664 1.377 . S
C669 C668 1.378 . S
C669 H697 0.931 . S
C670 O684 1.259 . S
C670 O685 1.270 . S
C671 O686 1.251 . S
C671 O687 1.251 . S
C672 Eu673 2.835 . S
C672 C674 1.500 . S
C672 O688 1.257 . S
C672 O689 1.260 . S
Eu673 C672 2.835 . S
Eu673 O685 2.355 . S
Eu673 O687 2.374 . S
Eu673 O688 2.473 . S
Eu673 O689 2.480 . S
Eu673 O690 2.430 . S
Eu673 O691 2.670 . S
Eu673 O692 2.394 . S
C674 C672 1.500 . S
C674 C675 1.377 . S
C674 C679 1.377 . S
C675 C674 1.377 . S
C675 C676 1.395 . S
C675 H698 0.931 . S
C676 C675 1.395 . S
C676 C677 1.383 . S
C676 H699 0.931 . S
C677 C676 1.383 . S
C677 C678 1.394 . S
C678 C677 1.394 . S
C678 C679 1.378 . S
C678 H700 0.931 . S
C679 C674 1.377 . S
C679 C678 1.378 . S
C679 H701 0.931 . S
C680 O690 1.259 . S
C680 O691 1.270 . S
C681 O692 1.251 . S
C681 O693 1.251 . S
O682 C662 1.257 . S
O682 Eu663 2.473 . S
O683 C662 1.260 . S
O683 Eu663 2.480 . S
O684 Eu663 2.430 . S
O684 C670 1.259 . S
O685 Eu663 2.670 . S
O685 C670 1.270 . S
O685 Eu673 2.355 . S
O686 Eu663 2.394 . S
O686 C671 1.251 . S
O687 C671 1.251 . S
O687 Eu673 2.374 . S
O688 C672 1.257 . S
O688 Eu673 2.473 . S
O689 C672 1.260 . S
O689 Eu673 2.480 . S
O690 Eu673 2.430 . S
O690 C680 1.259 . S
O691 Eu663 2.355 . S
O691 Eu673 2.670 . S
O691 C680 1.270 . S
O692 Eu673 2.394 . S
O692 C681 1.251 . S
O693 Eu663 2.374 . S
O693 C681 1.251 . S
H694 C665 0.931 . S
H695 C666 0.931 . S
H696 C668 0.931 . S
H697 C669 0.931 . S
H698 C675 0.931 . S
H699 C676 0.931 . S
H700 C678 0.931 . S
H701 C679 0.931 . S
C702 C703 1.387 . S
C702 H706 0.950 . S
C702 C711 1.390 . S
C703 C702 1.387 . S
C703 C705 1.387 . S
H704 C711 0.950 . S
C705 C703 1.387 . S
C705 C707 1.390 . S
C705 H709 0.950 . S
H706 C702 0.950 . S
C707 C705 1.390 . S
C707 C708 1.387 . S
C707 H710 0.950 . S
C708 C707 1.387 . S
C708 C711 1.387 . S
H709 C705 0.950 . S
H710 C707 0.950 . S
C711 C702 1.390 . S
C711 H704 0.950 . S
C711 C708 1.387 . S
C712 C713 1.387 . S
C712 H716 0.950 . S
C712 C721 1.390 . S
C713 C712 1.387 . S
C713 C715 1.387 . S
H714 C721 0.950 . S
C715 C713 1.387 . S
C715 C717 1.390 . S
C715 H719 0.950 . S
H716 C712 0.950 . S
C717 C715 1.390 . S
C717 C718 1.387 . S
C717 H720 0.950 . S
C718 C717 1.387 . S
C718 C721 1.387 . S
H719 C715 0.950 . S
H720 C717 0.950 . S
C721 C712 1.390 . S
C721 H714 0.950 . S
C721 C718 1.387 . S
C722 C723 1.387 . S
C722 H726 0.950 . S
C722 C731 1.390 . S
C723 C722 1.387 . S
C723 C725 1.387 1_554 S
H724 C731 0.950 . S
C725 C723 1.387 1_556 S
C725 C727 1.390 . S
C725 H729 0.950 . S
H726 C722 0.950 . S
C727 C725 1.390 . S
C727 C728 1.387 1_556 S
C727 H730 0.950 . S
C728 C727 1.387 1_554 S
C728 C731 1.387 . S
H729 C725 0.950 . S
H730 C727 0.950 . S
C731 C722 1.390 . S
C731 H724 0.950 . S
C731 C728 1.387 . S
C732 C733 1.387 1_554 S
C732 H736 0.950 . S
C732 C741 1.390 . S
C733 C732 1.387 1_556 S
C733 C735 1.387 . S
H734 C741 0.950 . S
C735 C733 1.387 . S
C735 C737 1.390 . S
C735 H739 0.950 . S
H736 C732 0.950 . S
C737 C735 1.390 . S
C737 C738 1.387 . S
C737 H740 0.950 . S
C738 C737 1.387 . S
C738 C741 1.387 1_556 S
H739 C735 0.950 . S
H740 C737 0.950 . S
C741 C732 1.390 . S
C741 H734 0.950 . S
C741 C738 1.387 1_554 S
C742 C743 1.387 . S
C742 H746 0.950 . S
C742 C751 1.390 . S
C743 C742 1.387 . S
C743 C745 1.387 . S
H744 C751 0.950 . S
C745 C743 1.387 . S
C745 C747 1.390 . S
C745 H749 0.950 . S
H746 C742 0.950 . S
C747 C745 1.390 . S
C747 C748 1.387 . S
C747 H750 0.950 . S
C748 C747 1.387 . S
C748 C751 1.387 . S
H749 C745 0.950 . S
H750 C747 0.950 . S
C751 C742 1.390 . S
C751 H744 0.950 . S
C751 C748 1.387 . S
C752 C753 1.387 . S
C752 H756 0.950 . S
C752 C761 1.390 . S
C753 C752 1.387 . S
C753 C755 1.387 1_556 S
H754 C761 0.950 . S
C755 C753 1.387 1_554 S
C755 C757 1.390 . S
C755 H759 0.950 . S
H756 C752 0.950 . S
C757 C755 1.390 . S
C757 C758 1.387 1_554 S
C757 H760 0.950 . S
C758 C757 1.387 1_556 S
C758 C761 1.387 . S
H759 C755 0.950 . S
H760 C757 0.950 . S
C761 C752 1.390 . S
C761 H754 0.950 . S
C761 C758 1.387 . S
C762 C763 1.387 . S
C762 H766 0.950 . S
C762 C771 1.390 . S
C763 C762 1.387 . S
C763 C765 1.387 1_556 S
H764 C771 0.950 . S
C765 C763 1.387 1_554 S
C765 C767 1.390 . S
C765 H769 0.950 . S
H766 C762 0.950 . S
C767 C765 1.390 . S
C767 C768 1.387 1_554 S
C767 H770 0.950 . S
C768 C767 1.387 1_556 S
C768 C771 1.387 . S
H769 C765 0.950 . S
H770 C767 0.950 . S
C771 C762 1.390 . S
C771 H764 0.950 . S
C771 C768 1.387 . S
C772 C773 1.387 . S
C772 H776 0.950 1_556 S
C772 C781 1.390 . S
C773 C772 1.387 . S
C773 C775 1.387 . S
H774 C781 0.950 1_554 S
C775 C773 1.387 . S
C775 C777 1.390 . S
C775 H779 0.950 . S
H776 C772 0.950 1_554 S
C777 C775 1.390 . S
C777 C778 1.387 . S
C777 H780 0.950 . S
C778 C777 1.387 . S
C778 C781 1.387 . S
H779 C775 0.950 . S
H780 C777 0.950 . S
C781 C772 1.390 . S
C781 H774 0.950 1_556 S
C781 C778 1.387 . S
C782 C783 1.387 . S
C782 H786 0.950 . S
C782 C791 1.390 . S
C783 C782 1.387 . S
C783 C785 1.372 1_554 S
H784 C791 0.950 . S
C785 C783 1.372 1_556 S
C785 C787 1.398 . S
C785 H789 0.960 . S
H786 C782 0.950 . S
C787 C785 1.398 . S
C787 C788 1.387 1_556 S
C787 H790 0.950 . S
C788 C787 1.387 1_554 S
C788 C791 1.387 . S
H789 C785 0.960 . S
H790 C787 0.950 . S
C791 C782 1.390 . S
C791 H784 0.950 . S
C791 C788 1.387 . S
C792 C793 1.387 . S
C792 H796 0.950 . S
C792 C801 1.390 . S
C793 C792 1.387 . S
C793 C795 1.387 1_554 S
H794 C801 0.950 . S
C795 C793 1.387 1_556 S
C795 C797 1.390 . S
C795 H799 0.950 . S
H796 C792 0.950 . S
C797 C795 1.390 . S
C797 C798 1.387 1_556 S
C797 H800 0.950 . S
C798 C797 1.387 1_554 S
C798 C801 1.387 . S
H799 C795 0.950 . S
H800 C797 0.950 . S
C801 C792 1.390 . S
C801 H794 0.950 . S
C801 C798 1.387 . S
C802 C803 1.387 . S
C802 H806 0.950 . S
C802 C811 1.390 . S
C803 C802 1.387 . S
C803 C805 1.387 . S
H804 C811 0.950 1_556 S
C805 C803 1.387 . S
C805 C807 1.390 . S
C805 H809 0.950 . S
H806 C802 0.950 . S
C807 C805 1.390 . S
C807 C808 1.387 . S
C807 H810 0.950 . S
C808 C807 1.387 . S
C808 C811 1.387 . S
H809 C805 0.950 . S
H810 C807 0.950 . S
C811 C802 1.390 . S
C811 H804 0.950 1_554 S
C811 C808 1.387 . S
C812 C813 1.387 1_556 S
C812 H816 0.950 . S
C812 C821 1.390 . S
C813 C812 1.387 1_554 S
C813 C815 1.387 . S
H814 C821 0.950 . S
C815 C813 1.387 . S
C815 C817 1.390 . S
C815 H819 0.950 . S
H816 C812 0.950 . S
C817 C815 1.390 . S
C817 C818 1.387 . S
C817 H820 0.950 . S
C818 C817 1.387 . S
C818 C821 1.387 1_554 S
H819 C815 0.950 . S
H820 C817 0.950 . S
C821 C812 1.390 . S
C821 H814 0.950 . S
C821 C818 1.387 1_556 S
C822 C823 1.387 . S
C822 H826 0.950 . S
C822 C831 1.390 . S
C823 C822 1.387 . S
C823 C825 1.387 . S
H824 C831 0.959 . S
C825 C823 1.387 . S
C825 C827 1.390 1_655 S
C825 H829 0.950 . S
H826 C822 0.950 . S
C827 C825 1.390 1_455 S
C827 C828 1.387 . S
C827 H830 0.950 . S
C828 C827 1.387 . S
C828 C831 1.387 1_455 S
H829 C825 0.950 . S
H830 C827 0.950 . S
C831 C822 1.390 . S
C831 H824 0.959 . S
C831 C828 1.387 1_655 S
C832 C833 1.387 . S
C832 H836 0.950 . S
C832 C841 1.390 . S
C833 C832 1.387 . S
C833 C835 1.387 . S
H834 C841 0.950 . S
C835 C833 1.387 . S
C835 C837 1.390 . S
C835 H839 0.950 . S
H836 C832 0.950 . S
C837 C835 1.390 . S
C837 C838 1.387 . S
C837 H840 0.950 . S
C838 C837 1.387 . S
C838 C841 1.387 . S
H839 C835 0.950 . S
H840 C837 0.950 . S
C841 C832 1.390 . S
C841 H834 0.950 . S
C841 C838 1.387 . S
C842 C843 1.387 . S
C842 H846 0.950 . S
C842 C851 1.390 . S
C843 C842 1.387 . S
C843 C845 1.387 . S
H844 C851 0.950 1_565 S
C845 C843 1.387 . S
C845 C847 1.390 . S
C845 H849 0.950 . S
H846 C842 0.950 . S
C847 C845 1.390 . S
C847 C848 1.387 1_545 S
C847 H850 0.950 1_545 S
C848 C847 1.387 1_565 S
C848 C851 1.387 1_565 S
H849 C845 0.950 . S
H850 C847 0.950 1_565 S
C851 C842 1.390 . S
C851 H844 0.950 1_545 S
C851 C848 1.387 1_545 S
C852 C853 1.387 . S
C852 H856 0.950 . S
C852 C861 1.390 . S
C853 C852 1.387 . S
C853 C855 1.387 . S
H854 C861 0.950 . S
C855 C853 1.387 . S
C855 C857 1.390 . S
C855 H859 0.950 . S
H856 C852 0.950 . S
C857 C855 1.390 . S
C857 C858 1.387 . S
C857 H860 0.950 . S
C858 C857 1.387 . S
C858 C861 1.387 . S
H859 C855 0.950 . S
H860 C857 0.950 . S
C861 C852 1.390 . S
C861 H854 0.950 . S
C861 C858 1.387 . S
C862 C863 1.387 . S
C862 H866 0.950 . S
C862 C871 1.390 . S
C863 C862 1.387 . S
C863 C865 1.387 . S
H864 C871 0.950 . S
C865 C863 1.387 . S
C865 C867 1.390 . S
C865 H869 0.950 . S
H866 C862 0.950 . S
C867 C865 1.390 . S
C867 C868 1.387 . S
C867 H870 0.950 . S
C868 C867 1.387 . S
C868 C871 1.387 . S
H869 C865 0.950 . S
H870 C867 0.950 . S
C871 C862 1.390 . S
C871 H864 0.950 . S
C871 C868 1.387 . S
C872 C873 1.387 . S
C872 H876 0.950 . S
C872 C881 1.390 . S
C873 C872 1.387 . S
C873 C875 1.387 . S
H874 C881 0.950 . S
C875 C873 1.387 . S
C875 C877 1.390 . S
C875 H879 0.950 . S
H876 C872 0.950 . S
C877 C875 1.390 . S
C877 C878 1.387 . S
C877 H880 0.950 . S
C878 C877 1.387 . S
C878 C881 1.387 . S
H879 C875 0.950 . S
H880 C877 0.950 . S
C881 C872 1.390 . S
C881 H874 0.950 . S
C881 C878 1.387 . S
C882 C883 1.387 . S
C882 H886 0.950 . S
C882 C891 1.390 . S
C883 C882 1.387 . S
C883 C885 1.387 . S
H884 C891 0.950 . S
C885 C883 1.387 . S
C885 C887 1.390 . S
C885 H889 0.950 . S
H886 C882 0.950 . S
C887 C885 1.390 . S
C887 C888 1.387 . S
C887 H890 0.950 . S
C888 C887 1.387 . S
C888 C891 1.387 . S
H889 C885 0.950 . S
H890 C887 0.950 . S
C891 C882 1.390 . S
C891 H884 0.950 . S
C891 C888 1.387 . S
C892 C893 1.387 . S
C892 H896 0.950 . S
C892 C901 1.390 . S
C893 C892 1.387 . S
C893 C895 1.387 . S
H894 C901 0.950 . S
C895 C893 1.387 . S
C895 C897 1.390 . S
C895 H899 0.950 . S
H896 C892 0.950 . S
C897 C895 1.390 . S
C897 C898 1.387 . S
C897 H900 0.950 . S
C898 C897 1.387 . S
C898 C901 1.387 . S
H899 C895 0.950 . S
H900 C897 0.950 . S
C901 C892 1.390 . S
C901 H894 0.950 . S
C901 C898 1.387 . S
C902 C903 1.387 . S
C902 H906 0.950 . S
C902 C911 1.390 . S
C903 C902 1.387 . S
C903 C905 1.387 . S
H904 C911 0.950 . S
C905 C903 1.387 . S
C905 C907 1.390 . S
C905 H909 0.950 . S
H906 C902 0.950 . S
C907 C905 1.390 . S
C907 C908 1.387 . S
C907 H910 0.950 . S
C908 C907 1.387 . S
C908 C911 1.387 . S
H909 C905 0.950 . S
H910 C907 0.950 . S
C911 C902 1.390 . S
C911 H904 0.950 . S
C911 C908 1.387 . S
C912 C913 1.387 . S
C912 H916 0.950 . S
C912 C921 1.390 . S
C913 C912 1.387 . S
C913 C915 1.387 . S
H914 C921 0.950 . S
C915 C913 1.387 . S
C915 C917 1.390 . S
C915 H919 0.950 . S
H916 C912 0.950 . S
C917 C915 1.390 . S
C917 C918 1.387 . S
C917 H920 0.950 . S
C918 C917 1.387 . S
C918 C921 1.387 . S
H919 C915 0.950 . S
H920 C917 0.950 . S
C921 C912 1.390 . S
C921 H914 0.950 . S
C921 C918 1.387 . S
C922 C923 1.387 . S
C922 H926 0.950 . S
C922 C931 1.390 . S
C923 C922 1.387 . S
C923 C925 1.387 . S
H924 C931 0.950 . S
C925 C923 1.387 . S
C925 C927 1.390 . S
C925 H929 0.950 . S
H926 C922 0.950 . S
C927 C925 1.390 . S
C927 C928 1.387 . S
C927 H930 0.950 . S
C928 C927 1.387 . S
C928 C931 1.387 . S
H929 C925 0.950 . S
H930 C927 0.950 . S
C931 C922 1.390 . S
C931 H924 0.950 . S
C931 C928 1.387 . S
C932 C933 1.387 . S
C932 H936 0.950 . S
C932 C941 1.390 . S
C933 C932 1.387 . S
C933 C935 1.387 . S
H934 C941 0.950 . S
C935 C933 1.387 . S
C935 C937 1.390 . S
C935 H939 0.950 . S
H936 C932 0.950 . S
C937 C935 1.390 . S
C937 C938 1.387 . S
C937 H940 0.950 . S
C938 C937 1.387 . S
C938 C941 1.387 . S
H939 C935 0.950 . S
H940 C937 0.950 . S
C941 C932 1.390 . S
C941 H934 0.950 . S
C941 C938 1.387 . S
C942 C943 1.387 . S
C942 H946 0.950 . S
C942 C951 1.390 . S
C943 C942 1.387 . S
C943 C945 1.387 . S
H944 C951 0.950 . S
C945 C943 1.387 . S
C945 C947 1.390 . S
C945 H949 0.950 . S
H946 C942 0.950 . S
C947 C945 1.390 . S
C947 C948 1.387 . S
C947 H950 0.950 . S
C948 C947 1.387 . S
C948 C951 1.387 . S
H949 C945 0.950 . S
H950 C947 0.950 . S
C951 C942 1.390 . S
C951 H944 0.950 . S
C951 C948 1.387 . S
C952 C953 1.387 . S
C952 H956 0.950 . S
C952 C961 1.390 . S
C953 C952 1.387 . S
C953 C955 1.387 . S
H954 C961 0.950 . S
C955 C953 1.387 . S
C955 C957 1.390 . S
C955 H959 0.950 . S
H956 C952 0.950 . S
C957 C955 1.390 . S
C957 C958 1.387 . S
C957 H960 0.950 . S
C958 C957 1.387 . S
C958 C961 1.387 . S
H959 C955 0.950 . S
H960 C957 0.950 . S
C961 C952 1.390 . S
C961 H954 0.950 . S
C961 C958 1.387 . S
C962 C963 1.387 . S
C962 H966 0.950 . S
C962 C971 1.390 . S
C963 C962 1.387 . S
C963 C965 1.387 . S
H964 C971 0.950 . S
C965 C963 1.387 . S
C965 C967 1.390 . S
C965 H969 0.950 . S
H966 C962 0.950 . S
C967 C965 1.390 . S
C967 C968 1.387 . S
C967 H970 0.950 . S
C968 C967 1.387 . S
C968 C971 1.387 . S
H969 C965 0.950 . S
H970 C967 0.950 . S
C971 C962 1.390 . S
C971 H964 0.950 . S
C971 C968 1.387 . S
C972 C973 1.387 . S
C972 H976 0.950 . S
C972 C981 1.390 1_565 S
C973 C972 1.387 . S
C973 C975 1.387 . S
H974 C981 0.950 . S
C975 C973 1.387 . S
C975 C977 1.390 . S
C975 H979 0.950 . S
H976 C972 0.950 . S
C977 C975 1.390 . S
C977 C978 1.387 1_565 S
C977 H980 0.950 1_565 S
C978 C977 1.387 1_545 S
C978 C981 1.387 . S
H979 C975 0.950 . S
H980 C977 0.950 1_545 S
C981 C972 1.390 1_545 S
C981 H974 0.950 . S
C981 C978 1.387 . S
C982 C983 1.387 . S
C982 H986 0.950 . S
C982 C991 1.390 . S
C983 C982 1.387 . S
C983 C985 1.387 . S
H984 C991 0.950 . S
C985 C983 1.387 . S
C985 C987 1.390 1_455 S
C985 H989 0.950 . S
H986 C982 0.950 . S
C987 C985 1.390 1_655 S
C987 C988 1.387 . S
C987 H990 0.950 . S
C988 C987 1.387 . S
C988 C991 1.387 1_655 S
H989 C985 0.950 . S
H990 C987 0.950 . S
C991 C982 1.390 . S
C991 H984 0.950 . S
C991 C988 1.387 1_455 S
C992 C993 1.387 . S
C992 H996 0.950 . S
C992 C1001 1.390 . S
C993 C992 1.387 . S
C993 C995 1.387 . S
H994 C1001 0.950 . S
C995 C993 1.387 . S
C995 C997 1.390 . S
C995 H999 0.950 . S
H996 C992 0.950 . S
C997 C995 1.390 . S
C997 C998 1.387 . S
C997 H1000 0.950 . S
C998 C997 1.387 . S
C998 C1001 1.387 . S
H999 C995 0.950 . S
H1000 C997 0.950 . S
C1001 C992 1.390 . S
C1001 H994 0.950 . S
C1001 C998 1.387 . S
C1002 C1003 1.387 . S
C1002 H1006 0.950 . S
C1002 C1011 1.390 . S
C1003 C1002 1.387 . S
C1003 C1005 1.387 . S
H1004 C1011 0.950 . S
C1005 C1003 1.387 . S
C1005 C1007 1.390 . S
C1005 H1009 0.950 . S
H1006 C1002 0.950 . S
C1007 C1005 1.390 . S
C1007 C1008 1.387 . S
C1007 H1010 0.950 . S
C1008 C1007 1.387 . S
C1008 C1011 1.387 . S
H1009 C1005 0.950 . S
H1010 C1007 0.950 . S
C1011 C1002 1.390 . S
C1011 H1004 0.950 . S
C1011 C1008 1.387 . S
C1012 C1013 1.387 . S
C1012 H1016 0.950 . S
C1012 C1021 1.390 . S
C1013 C1012 1.387 . S
C1013 C1015 1.387 . S
H1014 C1021 0.950 . S
C1015 C1013 1.387 . S
C1015 C1017 1.390 . S
C1015 H1019 0.950 . S
H1016 C1012 0.950 . S
C1017 C1015 1.390 . S
C1017 C1018 1.387 . S
C1017 H1020 0.950 . S
C1018 C1017 1.387 . S
C1018 C1021 1.387 . S
H1019 C1015 0.950 . S
H1020 C1017 0.950 . S
C1021 C1012 1.390 . S
C1021 H1014 0.950 . S
C1021 C1018 1.387 . S
C1022 C1023 1.387 . S
C1022 H1026 0.950 . S
C1022 C1031 1.390 . S
C1023 C1022 1.387 . S
C1023 C1025 1.387 . S
H1024 C1031 0.950 . S
C1025 C1023 1.387 . S
C1025 C1027 1.390 . S
C1025 H1029 0.950 . S
H1026 C1022 0.950 . S
C1027 C1025 1.390 . S
C1027 C1028 1.387 . S
C1027 H1030 0.950 . S
C1028 C1027 1.387 . S
C1028 C1031 1.387 . S
H1029 C1025 0.950 . S
H1030 C1027 0.950 . S
C1031 C1022 1.390 . S
C1031 H1024 0.950 . S
C1031 C1028 1.387 . S
C1032 C1033 1.387 . S
C1032 H1036 0.950 . S
C1032 C1041 1.390 . S
C1033 C1032 1.387 . S
C1033 C1035 1.387 . S
H1034 C1041 0.950 . S
C1035 C1033 1.387 . S
C1035 C1037 1.390 . S
C1035 H1039 0.950 . S
H1036 C1032 0.950 . S
C1037 C1035 1.390 . S
C1037 C1038 1.387 . S
C1037 H1040 0.950 . S
C1038 C1037 1.387 . S
C1038 C1041 1.387 . S
H1039 C1035 0.950 . S
H1040 C1037 0.950 . S
C1041 C1032 1.390 . S
C1041 H1034 0.950 . S
C1041 C1038 1.387 . S
C1042 C1043 1.387 . S
C1042 H1046 0.950 . S
C1042 C1051 1.390 . S
C1043 C1042 1.387 . S
C1043 C1045 1.387 . S
H1044 C1051 0.950 . S
C1045 C1043 1.387 . S
C1045 C1047 1.390 . S
C1045 H1049 0.950 . S
H1046 C1042 0.950 . S
C1047 C1045 1.390 . S
C1047 C1048 1.387 . S
C1047 H1050 0.950 . S
C1048 C1047 1.387 . S
C1048 C1051 1.387 . S
H1049 C1045 0.950 . S
H1050 C1047 0.950 . S
C1051 C1042 1.390 . S
C1051 H1044 0.950 . S
C1051 C1048 1.387 . S
C1052 C1053 1.387 . S
C1052 H1056 0.950 . S
C1052 C1061 1.390 . S
C1053 C1052 1.387 . S
C1053 C1055 1.387 . S
H1054 C1061 0.950 . S
C1055 C1053 1.387 . S
C1055 C1057 1.390 . S
C1055 H1059 0.950 . S
H1056 C1052 0.950 . S
C1057 C1055 1.390 . S
C1057 C1058 1.387 . S
C1057 H1060 0.950 . S
C1058 C1057 1.387 . S
C1058 C1061 1.387 . S
H1059 C1055 0.950 . S
H1060 C1057 0.950 . S
C1061 C1052 1.390 . S
C1061 H1054 0.950 . S
C1061 C1058 1.387 . S
C1062 C1063 1.387 . S
C1062 H1066 0.950 . S
C1062 C1071 1.390 . S
C1063 C1062 1.387 . S
C1063 C1065 1.387 . S
H1064 C1071 0.950 . S
C1065 C1063 1.387 . S
C1065 C1067 1.390 . S
C1065 H1069 0.950 . S
H1066 C1062 0.950 . S
C1067 C1065 1.390 . S
C1067 C1068 1.387 . S
C1067 H1070 0.950 . S
C1068 C1067 1.387 . S
C1068 C1071 1.387 . S
H1069 C1065 0.950 . S
H1070 C1067 0.950 . S
C1071 C1062 1.390 . S
C1071 H1064 0.950 . S
C1071 C1068 1.387 . S
C1072 C1073 1.387 . S
C1072 H1076 0.950 . S
C1072 C1081 1.390 . S
C1073 C1072 1.387 . S
C1073 C1075 1.387 . S
H1074 C1081 0.950 . S
C1075 C1073 1.387 . S
C1075 C1077 1.390 . S
C1075 H1079 0.950 . S
H1076 C1072 0.950 . S
C1077 C1075 1.390 . S
C1077 C1078 1.387 . S
C1077 H1080 0.950 . S
C1078 C1077 1.387 . S
C1078 C1081 1.387 . S
H1079 C1075 0.950 . S
H1080 C1077 0.950 . S
C1081 C1072 1.390 . S
C1081 H1074 0.950 . S
C1081 C1078 1.387 . S
C1082 C1083 1.387 . S
C1082 H1086 0.950 . S
C1082 C1091 1.390 . S
C1083 C1082 1.387 . S
C1083 C1085 1.387 . S
H1084 C1091 0.950 . S
C1085 C1083 1.387 . S
C1085 C1087 1.390 . S
C1085 H1089 0.950 . S
H1086 C1082 0.950 . S
C1087 C1085 1.390 . S
C1087 C1088 1.387 . S
C1087 H1090 0.950 . S
C1088 C1087 1.387 . S
C1088 C1091 1.387 . S
H1089 C1085 0.950 . S
H1090 C1087 0.950 . S
C1091 C1082 1.390 . S
C1091 H1084 0.950 . S
C1091 C1088 1.387 . S
C1092 C1093 1.387 . S
C1092 H1096 0.950 . S
C1092 C1101 1.390 . S
C1093 C1092 1.387 . S
C1093 C1095 1.387 . S
H1094 C1101 0.950 . S
C1095 C1093 1.387 . S
C1095 C1097 1.390 . S
C1095 H1099 0.950 . S
H1096 C1092 0.950 . S
C1097 C1095 1.390 . S
C1097 C1098 1.387 . S
C1097 H1100 0.950 . S
C1098 C1097 1.387 . S
C1098 C1101 1.387 . S
H1099 C1095 0.950 . S
H1100 C1097 0.950 . S
C1101 C1092 1.390 . S
C1101 H1094 0.950 . S
C1101 C1098 1.387 . S
C1102 C1103 1.387 . S
C1102 H1106 0.950 . S
C1102 C1111 1.390 . S
C1103 C1102 1.387 . S
C1103 C1105 1.387 . S
H1104 C1111 0.950 . S
C1105 C1103 1.387 . S
C1105 C1107 1.390 . S
C1105 H1109 0.950 . S
H1106 C1102 0.950 . S
C1107 C1105 1.390 . S
C1107 C1108 1.387 . S
C1107 H1110 0.950 . S
C1108 C1107 1.387 . S
C1108 C1111 1.387 . S
H1109 C1105 0.950 . S
H1110 C1107 0.950 . S
C1111 C1102 1.390 . S
C1111 H1104 0.950 . S
C1111 C1108 1.387 . S
C1112 C1113 1.387 . S
C1112 H1116 0.950 . S
C1112 C1121 1.390 . S
C1113 C1112 1.387 . S
C1113 C1115 1.387 . S
H1114 C1121 0.950 . S
C1115 C1113 1.387 . S
C1115 C1117 1.390 . S
C1115 H1119 0.950 . S
H1116 C1112 0.950 . S
C1117 C1115 1.390 . S
C1117 C1118 1.387 . S
C1117 H1120 0.950 . S
C1118 C1117 1.387 . S
C1118 C1121 1.387 . S
H1119 C1115 0.950 . S
H1120 C1117 0.950 . S
C1121 C1112 1.390 . S
C1121 H1114 0.950 . S
C1121 C1118 1.387 . S
C1122 C1123 1.387 . S
C1122 H1126 0.950 . S
C1122 C1131 1.390 . S
C1123 C1122 1.387 . S
C1123 C1125 1.387 . S
H1124 C1131 0.950 . S
C1125 C1123 1.387 . S
C1125 C1127 1.390 . S
C1125 H1129 0.950 . S
H1126 C1122 0.950 . S
C1127 C1125 1.390 . S
C1127 C1128 1.387 . S
C1127 H1130 0.950 . S
C1128 C1127 1.387 . S
C1128 C1131 1.387 . S
H1129 C1125 0.950 . S
H1130 C1127 0.950 . S
C1131 C1122 1.390 . S
C1131 H1124 0.950 . S
C1131 C1128 1.387 . S
C1132 C1133 1.387 . S
C1132 H1136 0.950 . S
C1132 C1141 1.390 . S
C1133 C1132 1.387 . S
C1133 C1135 1.387 . S
H1134 C1141 0.950 . S
C1135 C1133 1.387 . S
C1135 C1137 1.390 . S
C1135 H1139 0.950 . S
H1136 C1132 0.950 . S
C1137 C1135 1.390 . S
C1137 C1138 1.387 . S
C1137 H1140 0.950 . S
C1138 C1137 1.387 . S
C1138 C1141 1.387 . S
H1139 C1135 0.950 . S
H1140 C1137 0.950 . S
C1141 C1132 1.390 . S
C1141 H1134 0.950 . S
C1141 C1138 1.387 . S
C1142 C1143 1.387 . S
C1142 H1146 0.950 . S
C1142 C1151 1.390 . S
C1143 C1142 1.387 . S
C1143 C1145 1.387 . S
H1144 C1151 0.950 . S
C1145 C1143 1.387 . S
C1145 C1147 1.390 . S
C1145 H1149 0.950 . S
H1146 C1142 0.950 . S
C1147 C1145 1.390 . S
C1147 C1148 1.387 . S
C1147 H1150 0.950 . S
C1148 C1147 1.387 . S
C1148 C1151 1.387 . S
H1149 C1145 0.950 . S
H1150 C1147 0.950 . S
C1151 C1142 1.390 . S
C1151 H1144 0.950 . S
C1151 C1148 1.387 . S
C1152 C1153 1.387 . S
C1152 H1156 0.950 . S
C1152 C1161 1.390 . S
C1153 C1152 1.387 . S
C1153 C1155 1.387 . S
H1154 C1161 0.950 . S
C1155 C1153 1.387 . S
C1155 C1157 1.390 . S
C1155 H1159 0.950 . S
H1156 C1152 0.950 . S
C1157 C1155 1.390 . S
C1157 C1158 1.387 . S
C1157 H1160 0.950 . S
C1158 C1157 1.387 . S
C1158 C1161 1.387 . S
H1159 C1155 0.950 . S
H1160 C1157 0.950 . S
C1161 C1152 1.390 . S
C1161 H1154 0.950 . S
C1161 C1158 1.387 . S
C1162 C1163 1.387 . S
C1162 H1166 0.950 . S
C1162 C1171 1.390 . S
C1163 C1162 1.387 . S
C1163 C1165 1.387 . S
H1164 C1171 0.950 . S
C1165 C1163 1.387 . S
C1165 C1167 1.390 . S
C1165 H1169 0.950 . S
H1166 C1162 0.950 . S
C1167 C1165 1.390 . S
C1167 C1168 1.387 . S
C1167 H1170 0.950 . S
C1168 C1167 1.387 . S
C1168 C1171 1.387 . S
H1169 C1165 0.950 . S
H1170 C1167 0.950 . S
C1171 C1162 1.390 . S
C1171 H1164 0.950 . S
C1171 C1168 1.387 . S
C1172 C1173 1.387 . S
C1172 H1176 0.950 . S
C1172 C1181 1.390 . S
C1173 C1172 1.387 . S
C1173 C1175 1.387 . S
H1174 C1181 0.950 . S
C1175 C1173 1.387 . S
C1175 C1177 1.390 . S
C1175 H1179 0.950 . S
H1176 C1172 0.950 . S
C1177 C1175 1.390 . S
C1177 C1178 1.387 . S
C1177 H1180 0.950 . S
C1178 C1177 1.387 . S
C1178 C1181 1.387 . S
H1179 C1175 0.950 . S
H1180 C1177 0.950 . S
C1181 C1172 1.390 . S
C1181 H1174 0.950 . S
C1181 C1178 1.387 . S
C1182 C1183 1.387 . S
C1182 H1186 0.950 . S
C1182 C1191 1.390 . S
C1183 C1182 1.387 . S
C1183 C1185 1.387 . S
H1184 C1191 0.950 . S
C1185 C1183 1.387 . S
C1185 C1187 1.390 . S
C1185 H1189 0.950 . S
H1186 C1182 0.950 . S
C1187 C1185 1.390 . S
C1187 C1188 1.387 . S
C1187 H1190 0.950 . S
C1188 C1187 1.387 . S
C1188 C1191 1.387 . S
H1189 C1185 0.950 . S
H1190 C1187 0.950 . S
C1191 C1182 1.390 . S
C1191 H1184 0.950 . S
C1191 C1188 1.387 . S
C1192 C1193 1.387 . S
C1192 H1196 0.950 . S
C1192 C1201 1.390 . S
C1193 C1192 1.387 . S
C1193 C1195 1.387 . S
H1194 C1201 0.950 . S
C1195 C1193 1.387 . S
C1195 C1197 1.390 . S
C1195 H1199 0.950 . S
H1196 C1192 0.950 . S
C1197 C1195 1.390 . S
C1197 C1198 1.387 . S
C1197 H1200 0.950 . S
C1198 C1197 1.387 . S
C1198 C1201 1.387 . S
H1199 C1195 0.950 . S
H1200 C1197 0.950 . S
C1201 C1192 1.390 . S
C1201 H1194 0.950 . S
C1201 C1198 1.387 . S
C1202 C1203 1.387 . S
C1202 H1206 0.950 . S
C1202 C1211 1.390 . S
C1203 C1202 1.387 . S
C1203 C1205 1.387 . S
H1204 C1211 0.950 . S
C1205 C1203 1.387 . S
C1205 C1207 1.390 . S
C1205 H1209 0.950 . S
H1206 C1202 0.950 . S
C1207 C1205 1.390 . S
C1207 C1208 1.387 . S
C1207 H1210 0.950 . S
C1208 C1207 1.387 . S
C1208 C1211 1.387 . S
H1209 C1205 0.950 . S
H1210 C1207 0.950 . S
C1211 C1202 1.390 . S
C1211 H1204 0.950 . S
C1211 C1208 1.387 . S
C1212 C1213 1.387 . S
C1212 H1216 0.950 . S
C1212 C1221 1.390 . S
C1213 C1212 1.387 . S
C1213 C1215 1.387 . S
H1214 C1221 0.950 . S
C1215 C1213 1.387 . S
C1215 C1217 1.390 . S
C1215 H1219 0.950 . S
H1216 C1212 0.950 . S
C1217 C1215 1.390 . S
C1217 C1218 1.387 . S
C1217 H1220 0.950 . S
C1218 C1217 1.387 . S
C1218 C1221 1.387 . S
H1219 C1215 0.950 . S
H1220 C1217 0.950 . S
C1221 C1212 1.390 . S
C1221 H1214 0.950 . S
C1221 C1218 1.387 . S
C1222 C1223 1.387 . S
C1222 H1226 0.950 . S
C1222 C1231 1.390 . S
C1223 C1222 1.387 . S
C1223 C1225 1.387 . S
H1224 C1231 0.950 . S
C1225 C1223 1.387 . S
C1225 C1227 1.390 . S
C1225 H1229 0.950 . S
H1226 C1222 0.950 . S
C1227 C1225 1.390 . S
C1227 C1228 1.387 . S
C1227 H1230 0.950 . S
C1228 C1227 1.387 . S
C1228 C1231 1.387 . S
H1229 C1225 0.950 . S
H1230 C1227 0.950 . S
C1231 C1222 1.390 . S
C1231 H1224 0.950 . S
C1231 C1228 1.387 . S
C1232 C1233 1.387 . S
C1232 H1236 0.950 . S
C1232 C1241 1.390 . S
C1233 C1232 1.387 . S
C1233 C1235 1.387 . S
H1234 C1241 0.950 . S
C1235 C1233 1.387 . S
C1235 C1237 1.390 . S
C1235 H1239 0.950 . S
H1236 C1232 0.950 . S
C1237 C1235 1.390 . S
C1237 C1238 1.387 . S
C1237 H1240 0.950 . S
C1238 C1237 1.387 . S
C1238 C1241 1.387 . S
H1239 C1235 0.950 . S
H1240 C1237 0.950 . S
C1241 C1232 1.390 . S
C1241 H1234 0.950 . S
C1241 C1238 1.387 . S
C703 C253 1.696 . S
C708 C351 1.705 . S
C713 C272 1.786 . S
C718 C391 1.786 . S
C723 C234 1.602 . S
C728 C430 1.559 . S
C733 C215 1.501 . S
C738 C390 1.446 . S
C748 C431 1.583 . S
C743 C177 1.583 . S
C753 C196 1.438 . S
C758 C350 1.411 1_556 S
C768 C361 1.639 . S
C763 C220 1.506 . S
C778 C401 1.594 . S
C773 C182 1.529 . S
C783 C201 1.609 . S
C788 C440 1.713 . S
C793 C258 1.451 . S
C798 C400 1.554 . S
C803 C277 1.334 . S
C808 C441 1.451 . S
C818 C360 1.582 1_554 S
C813 C239 1.423 . S
C828 C471 1.704 . S
C823 C25 1.695 . S
C833 C44 1.786 . S
C838 C511 1.786 . S
C843 C6 1.602 . S
C848 C550 1.559 . S
C853 C329 1.501 . S
C858 C510 1.444 . S
C863 C291 1.583 . S
C868 C551 1.583 . S
C873 C310 1.438 . S
C878 C470 1.410 . S
C883 C334 1.510 . S
C888 C481 1.642 . S
C893 C296 1.529 . S
C898 C521 1.594 . S
C908 C560 1.716 . S
C903 C315 1.608 . S
C913 C30 1.455 1_565 S
C918 C520 1.554 . S
C928 C561 1.451 . S
C923 C49 1.334 . S
C933 C11 1.417 . S
C938 C480 1.582 . S
C948 C591 1.704 . S
C943 C139 1.695 . S
C953 C158 1.787 . S
C958 C631 1.787 . S
C968 C670 1.561 . S
C963 C120 1.601 . S
C978 C630 1.441 . S
C973 C101 1.501 . S
C988 C671 1.583 . S
C983 C63 1.583 . S
C993 C82 1.438 . S
C998 C590 1.411 . S
C1003 C106 1.507 1_655 S
C1008 C601 1.639 . S
C1013 C68 1.525 . S
C1018 C641 1.592 . S
C1028 C680 1.713 . S
C1023 C87 1.608 1_545 S
C1033 C144 1.455 . S
C1038 C640 1.553 . S
C1043 C163 1.334 . S
C1048 C681 1.451 . S
C1053 C125 1.423 . S
C1058 C600 1.582 . S
C1063 C287 1.686 . S
C1068 C347 1.681 . S
C1078 C387 2.030 . S
C1073 C306 2.027 . S
C1083 C325 1.624 . S
C1088 C437 1.659 . S
C1093 C116 1.788 . S
C1098 C397 1.816 . S
C1103 C135 1.787 . S
C1108 C427 1.798 . S
C1118 C357 1.411 . S
C1113 C154 1.387 . S
C1123 C59 1.686 . S
C1128 C467 1.681 . S
C1133 C78 2.025 . S
C1138 C507 2.028 . S
C1143 C97 1.625 . S
C1148 C557 1.659 . S
C1153 C230 1.791 . S
C1158 C517 1.818 . S
C1168 C547 1.799 . S
C1163 C249 1.788 . S
C1173 C268 1.384 . S
C1178 C477 1.410 . S
C1183 C173 1.686 . S
C1188 C587 1.681 . S
C1193 C192 2.026 . S
C1198 C627 2.030 . S
C1208 C677 1.659 . S
C1203 C211 1.625 . S
C1213 C2 1.790 . S
C1218 C637 1.817 . S
C1223 C21 1.786 . S
C1228 C667 1.797 . S
C1233 C40 1.387 . S
C1238 C597 1.411 . S
