# Generated by pormake.
# Topology ssb, (4,4)-cn, num edge types: 1
# Building blocks:
#     Node 0, Type 0, BuildingBlock: MIFKUJ_clean_linker_1, # of connection points: 4
#     Node 1, Type 0, BuildingBlock: MIFKUJ_clean_linker_1, # of connection points: 4
#     Node 2, Type 0, BuildingBlock: MIFKUJ_clean_linker_1, # of connection points: 4
#     Node 3, Type 0, BuildingBlock: MIFKUJ_clean_linker_1, # of connection points: 4
#     Node 4, Type 0, BuildingBlock: MIFKUJ_clean_linker_1, # of connection points: 4
#     Node 5, Type 0, BuildingBlock: MIFKUJ_clean_linker_1, # of connection points: 4
#     Node 6, Type 0, BuildingBlock: MIFKUJ_clean_linker_1, # of connection points: 4
#     Node 7, Type 0, BuildingBlock: MIFKUJ_clean_linker_1, # of connection points: 4
#     Node 8, Type 1, BuildingBlock: NAWXER_clean_sbu_0, # of connection points: 4
#     Node 9, Type 1, BuildingBlock: NAWXER_clean_sbu_0, # of connection points: 4
#     Node 10, Type 1, BuildingBlock: NAWXER_clean_sbu_0, # of connection points: 4
#     Node 11, Type 1, BuildingBlock: NAWXER_clean_sbu_0, # of connection points: 4
#     Node 12, Type 1, BuildingBlock: NAWXER_clean_sbu_0, # of connection points: 4
#     Node 13, Type 1, BuildingBlock: NAWXER_clean_sbu_0, # of connection points: 4
#     Node 14, Type 1, BuildingBlock: NAWXER_clean_sbu_0, # of connection points: 4
#     Node 15, Type 1, BuildingBlock: NAWXER_clean_sbu_0, # of connection points: 4
#     Edge 16, Type (0, 1), BuildingBlock: KIFKEQ_clean_linker_1, # of connection points: 2
#     Edge 17, Type (0, 1), BuildingBlock: KIFKEQ_clean_linker_1, # of connection points: 2
#     Edge 18, Type (0, 1), BuildingBlock: KIFKEQ_clean_linker_1, # of connection points: 2
#     Edge 19, Type (0, 1), BuildingBlock: KIFKEQ_clean_linker_1, # of connection points: 2
#     Edge 20, Type (0, 1), BuildingBlock: KIFKEQ_clean_linker_1, # of connection points: 2
#     Edge 21, Type (0, 1), BuildingBlock: KIFKEQ_clean_linker_1, # of connection points: 2
#     Edge 22, Type (0, 1), BuildingBlock: KIFKEQ_clean_linker_1, # of connection points: 2
#     Edge 23, Type (0, 1), BuildingBlock: KIFKEQ_clean_linker_1, # of connection points: 2
#     Edge 24, Type (0, 1), BuildingBlock: KIFKEQ_clean_linker_1, # of connection points: 2
#     Edge 25, Type (0, 1), BuildingBlock: KIFKEQ_clean_linker_1, # of connection points: 2
#     Edge 26, Type (0, 1), BuildingBlock: KIFKEQ_clean_linker_1, # of connection points: 2
#     Edge 27, Type (0, 1), BuildingBlock: KIFKEQ_clean_linker_1, # of connection points: 2
#     Edge 28, Type (0, 1), BuildingBlock: KIFKEQ_clean_linker_1, # of connection points: 2
#     Edge 29, Type (0, 1), BuildingBlock: KIFKEQ_clean_linker_1, # of connection points: 2
#     Edge 30, Type (0, 1), BuildingBlock: KIFKEQ_clean_linker_1, # of connection points: 2
#     Edge 31, Type (0, 1), BuildingBlock: KIFKEQ_clean_linker_1, # of connection points: 2
#     Edge 32, Type (0, 1), BuildingBlock: KIFKEQ_clean_linker_1, # of connection points: 2
#     Edge 33, Type (0, 1), BuildingBlock: KIFKEQ_clean_linker_1, # of connection points: 2
#     Edge 34, Type (0, 1), BuildingBlock: KIFKEQ_clean_linker_1, # of connection points: 2
#     Edge 35, Type (0, 1), BuildingBlock: KIFKEQ_clean_linker_1, # of connection points: 2
#     Edge 36, Type (0, 1), BuildingBlock: KIFKEQ_clean_linker_1, # of connection points: 2
#     Edge 37, Type (0, 1), BuildingBlock: KIFKEQ_clean_linker_1, # of connection points: 2
#     Edge 38, Type (0, 1), BuildingBlock: KIFKEQ_clean_linker_1, # of connection points: 2
#     Edge 39, Type (0, 1), BuildingBlock: KIFKEQ_clean_linker_1, # of connection points: 2
#     Edge 40, Type (0, 1), BuildingBlock: KIFKEQ_clean_linker_1, # of connection points: 2
#     Edge 41, Type (0, 1), BuildingBlock: KIFKEQ_clean_linker_1, # of connection points: 2
#     Edge 42, Type (0, 1), BuildingBlock: KIFKEQ_clean_linker_1, # of connection points: 2
#     Edge 43, Type (0, 1), BuildingBlock: KIFKEQ_clean_linker_1, # of connection points: 2
#     Edge 44, Type (0, 1), BuildingBlock: KIFKEQ_clean_linker_1, # of connection points: 2
#     Edge 45, Type (0, 1), BuildingBlock: KIFKEQ_clean_linker_1, # of connection points: 2
#     Edge 46, Type (0, 1), BuildingBlock: KIFKEQ_clean_linker_1, # of connection points: 2
#     Edge 47, Type (0, 1), BuildingBlock: KIFKEQ_clean_linker_1, # of connection points: 2
# Relax obj value: 0.000
# Max RMSD: 0.000
# Mean RMSD: 0.000
data_MOF--net-ssb--node1-NAWXER_clean_sbu_0--node2-MIFKUJ_clean_linker_1--edge1-KIFKEQ_clean_linker_1
_symmetry_space_group_name_H-M    P1
_symmetry_Int_Tables_number       1
_symmetry_cell_setting            triclinic
loop_
_symmetry_equiv_pos_as_xyz
'x, y, z'
_cell_length_a     54.733739
_cell_length_b     54.753837
_cell_length_c     47.719253
_cell_angle_alpha  90.026051
_cell_angle_beta   90.150426
_cell_angle_gamma 89.955509
loop_
_atom_site_label
_atom_site_type_symbol
_atom_site_fract_x
_atom_site_fract_y
_atom_site_fract_z
_atom_type_partial_charge
H0 H 0.29062 0.24454 0.21204 0.0
H1 H 0.32402 0.24801 0.17861 0.0
H2 H 0.33495 0.32319 0.20338 0.0
H3 H 0.30234 0.31915 0.2379 0.0
H4 H 0.28977 0.24614 0.26561 0.0
H5 H 0.25051 0.29118 0.19394 0.0
H6 H 0.24412 0.32332 0.15917 0.0
H7 H 0.2422 0.37715 0.22538 0.0
H8 H 0.24938 0.34499 0.25999 0.0
H9 H 0.22709 0.30935 0.3296 0.0
H10 H 0.19285 0.30955 0.36219 0.0
H11 H 0.17383 0.23635 0.33607 0.0
H12 H 0.20743 0.2368 0.30247 0.0
H13 H 0.22308 0.30692 0.27426 0.0
H14 H 0.26082 0.25453 0.34623 0.0
H15 H 0.26395 0.21799 0.37571 0.0
H16 H 0.26297 0.17271 0.30153 0.0
H17 H 0.25909 0.20909 0.27239 0.0
C18 C 0.29378 0.28162 0.22738 0.0
C19 C 0.30025 0.26176 0.21035 0.0
C20 C 0.31921 0.26388 0.19098 0.0
C21 C 0.33212 0.28596 0.1881 0.0
C22 C 0.32557 0.30587 0.20516 0.0
C23 C 0.30669 0.30367 0.2247 0.0
C24 C 0.27404 0.27902 0.24851 0.0
C25 C 0.27502 0.2593 0.26733 0.0
C26 C 0.25474 0.29613 0.25071 0.0
C27 C 0.25081 0.31569 0.22957 0.0
C28 C 0.24894 0.30993 0.20095 0.0
C29 C 0.24497 0.3283 0.18111 0.0
C30 C 0.24263 0.35283 0.18947 0.0
C31 C 0.2442 0.3585 0.21819 0.0
C32 C 0.24817 0.34011 0.23802 0.0
C33 C 0.21997 0.273 0.31371 0.0
C34 C 0.21563 0.29327 0.33104 0.0
C35 C 0.19612 0.2933 0.34983 0.0
C36 C 0.18049 0.273 0.35175 0.0
C37 C 0.18527 0.25244 0.33486 0.0
C38 C 0.20471 0.25251 0.31591 0.0
C39 C 0.23912 0.27437 0.29181 0.0
C40 C 0.23793 0.29386 0.27268 0.0
C41 C 0.25765 0.25649 0.28874 0.0
C42 C 0.25944 0.23458 0.30708 0.0
C43 C 0.26104 0.23671 0.33637 0.0
C44 C 0.2631 0.21581 0.35318 0.0
C45 C 0.26365 0.19238 0.34101 0.0
C46 C 0.26224 0.1904 0.31166 0.0
C47 C 0.2602 0.21123 0.29493 0.0
H48 H 0.71369 0.23335 0.23552 0.0
H49 H 0.67629 0.2351 0.20769 0.0
H50 H 0.71921 0.2364 0.13182 0.0
H51 H 0.75673 0.23401 0.15991 0.0
H52 H 0.74723 0.19823 0.23641 0.0
H53 H 0.74455 0.28361 0.21337 0.0
H54 H 0.74441 0.32059 0.18486 0.0
H55 H 0.81471 0.30057 0.1507 0.0
H56 H 0.81416 0.263 0.17832 0.0
H57 H 0.85003 0.22271 0.24474 0.0
H58 H 0.88226 0.21909 0.28033 0.0
H59 H 0.82794 0.22547 0.34552 0.0
H60 H 0.796 0.22903 0.30998 0.0
H61 H 0.81456 0.25879 0.23395 0.0
H62 H 0.81803 0.17475 0.26176 0.0
H63 H 0.8201 0.14306 0.29791 0.0
H64 H 0.74824 0.16375 0.32663 0.0
H65 H 0.74648 0.19575 0.291 0.0
C66 C 0.73801 0.23364 0.19981 0.0
C67 C 0.71507 0.23403 0.21288 0.0
C68 C 0.6937 0.23521 0.19695 0.0
C69 C 0.69477 0.23593 0.16754 0.0
C70 C 0.71779 0.23564 0.15444 0.0
C71 C 0.73923 0.23451 0.17045 0.0
C72 C 0.76041 0.2313 0.21718 0.0
C73 C 0.76188 0.21155 0.23588 0.0
C74 C 0.7799 0.24831 0.21594 0.0
C75 C 0.77918 0.27028 0.19768 0.0
C76 C 0.7597 0.28691 0.19932 0.0
C77 C 0.75984 0.30827 0.18329 0.0
C78 C 0.77962 0.31367 0.16554 0.0
C79 C 0.79904 0.29689 0.16385 0.0
C80 C 0.79883 0.27546 0.17978 0.0
C81 C 0.82065 0.22585 0.27475 0.0
C82 C 0.84517 0.22352 0.26671 0.0
C83 C 0.86351 0.22139 0.28705 0.0
C84 C 0.85758 0.22164 0.31573 0.0
C85 C 0.83304 0.22462 0.32363 0.0
C86 C 0.8148 0.22684 0.30335 0.0
C87 C 0.80089 0.22618 0.25348 0.0
C88 C 0.80004 0.24531 0.23398 0.0
C89 C 0.78188 0.20872 0.25398 0.0
C90 C 0.78221 0.18784 0.27387 0.0
C91 C 0.80273 0.17247 0.27586 0.0
C92 C 0.80392 0.15441 0.2965 0.0
C93 C 0.78438 0.15104 0.31512 0.0
C94 C 0.76349 0.16581 0.3124 0.0
C95 C 0.76244 0.18407 0.29202 0.0
H96 H 0.71077 0.77517 0.20279 0.0
H97 H 0.67934 0.76764 0.16701 0.0
H98 H 0.65037 0.70873 0.21698 0.0
H99 H 0.68217 0.71602 0.25244 0.0
H100 H 0.7042 0.78379 0.26572 0.0
H101 H 0.74372 0.73117 0.19743 0.0
H102 H 0.74214 0.69575 0.16634 0.0
H103 H 0.73187 0.64857 0.23793 0.0
H104 H 0.73295 0.68435 0.26895 0.0
H105 H 0.77197 0.73091 0.33546 0.0
H106 H 0.8082 0.73833 0.36479 0.0
H107 H 0.82649 0.80082 0.31391 0.0
H108 H 0.78998 0.79368 0.28508 0.0
H109 H 0.77089 0.72275 0.27523 0.0
H110 H 0.73734 0.77473 0.34465 0.0
H111 H 0.73477 0.80999 0.37585 0.0
H112 H 0.73008 0.85782 0.30402 0.0
H113 H 0.73337 0.82242 0.27285 0.0
C114 C 0.69868 0.74621 0.23024 0.0
C115 C 0.69754 0.76075 0.20609 0.0
C116 C 0.67976 0.7563 0.18561 0.0
C117 C 0.66253 0.73754 0.18923 0.0
C118 C 0.6634 0.72333 0.21374 0.0
C119 C 0.68147 0.7275 0.23397 0.0
C120 C 0.71873 0.74968 0.25078 0.0
C121 C 0.71893 0.77063 0.26767 0.0
C122 C 0.73745 0.7321 0.25382 0.0
C123 C 0.73835 0.71034 0.23544 0.0
C124 C 0.74119 0.71318 0.20642 0.0
C125 C 0.7404 0.69291 0.18871 0.0
C126 C 0.73684 0.66935 0.19968 0.0
C127 C 0.73435 0.66652 0.22884 0.0
C128 C 0.73521 0.68686 0.24659 0.0
C129 C 0.77827 0.76178 0.30818 0.0
C130 C 0.78372 0.74627 0.33075 0.0
C131 C 0.80431 0.75059 0.34753 0.0
C132 C 0.82009 0.77015 0.34158 0.0
C133 C 0.81466 0.78558 0.31888 0.0
C134 C 0.79381 0.78156 0.30248 0.0
C135 C 0.75666 0.75716 0.29008 0.0
C136 C 0.75614 0.73592 0.27354 0.0
C137 C 0.73751 0.77444 0.28758 0.0
C138 C 0.73591 0.79596 0.30641 0.0
C139 C 0.736 0.79283 0.33561 0.0
C140 C 0.7342 0.81298 0.35343 0.0
C141 C 0.73217 0.83672 0.34242 0.0
C142 C 0.73186 0.8398 0.31315 0.0
C143 C 0.73362 0.81959 0.29532 0.0
H144 H 0.22631 0.71631 0.2996 0.0
H145 H 0.19171 0.71159 0.33169 0.0
H146 H 0.16127 0.77946 0.30152 0.0
H147 H 0.19545 0.78384 0.26911 0.0
H148 H 0.23149 0.71848 0.24512 0.0
H149 H 0.24864 0.77318 0.32065 0.0
H150 H 0.24177 0.80603 0.35445 0.0
H151 H 0.23258 0.85723 0.28636 0.0
H152 H 0.23888 0.82413 0.25262 0.0
H153 H 0.28256 0.79789 0.18962 0.0
H154 H 0.31784 0.80454 0.15929 0.0
H155 H 0.34993 0.73727 0.18943 0.0
H156 H 0.31532 0.73152 0.22074 0.0
H157 H 0.2786 0.79583 0.24462 0.0
H158 H 0.26302 0.73903 0.16893 0.0
H159 H 0.271 0.70499 0.13702 0.0
H160 H 0.28022 0.65682 0.20799 0.0
H161 H 0.27197 0.69087 0.23972 0.0
C162 C 0.21377 0.75067 0.28227 0.0
C163 C 0.21206 0.73005 0.29969 0.0
C164 C 0.19229 0.72735 0.31801 0.0
C165 C 0.17394 0.74529 0.31932 0.0
C166 C 0.17537 0.76557 0.30134 0.0
C167 C 0.19494 0.76811 0.28284 0.0
C168 C 0.23532 0.75415 0.26371 0.0
C169 C 0.24198 0.73528 0.24526 0.0
C170 C 0.24881 0.77623 0.26354 0.0
C171 C 0.24414 0.79614 0.28407 0.0
C172 C 0.24486 0.79142 0.31299 0.0
C173 C 0.2411 0.81026 0.33229 0.0
C174 C 0.23664 0.83428 0.32311 0.0
C175 C 0.23566 0.8389 0.29413 0.0
C176 C 0.2395 0.82005 0.27482 0.0
C177 C 0.29608 0.76403 0.20722 0.0
C178 C 0.29729 0.78467 0.1898 0.0
C179 C 0.31741 0.78833 0.17227 0.0
C180 C 0.33679 0.77142 0.17177 0.0
C181 C 0.33556 0.75087 0.18945 0.0
C182 C 0.31556 0.74734 0.20713 0.0
C183 C 0.27466 0.76024 0.22586 0.0
C184 C 0.26805 0.77907 0.24439 0.0
C185 C 0.26141 0.73801 0.22628 0.0
C186 C 0.26694 0.71754 0.20676 0.0
C187 C 0.26701 0.72118 0.17761 0.0
C188 C 0.2717 0.70171 0.15938 0.0
C189 C 0.27626 0.67812 0.1699 0.0
C190 C 0.27646 0.67464 0.19913 0.0
C191 C 0.27177 0.6941 0.21732 0.0
H192 H 0.18971 0.77724 0.73962 0.0
H193 H 0.15634 0.78313 0.70603 0.0
H194 H 0.20677 0.77145 0.63779 0.0
H195 H 0.23969 0.76457 0.6714 0.0
H196 H 0.21632 0.73721 0.74898 0.0
H197 H 0.23674 0.82117 0.72371 0.0
H198 H 0.24458 0.85433 0.69036 0.0
H199 H 0.30231 0.81175 0.65283 0.0
H200 H 0.29459 0.77876 0.6864 0.0
H201 H 0.3222 0.73968 0.75176 0.0
H202 H 0.35667 0.73208 0.78319 0.0
H203 H 0.30947 0.74271 0.8546 0.0
H204 H 0.275 0.75022 0.823 0.0
H205 H 0.29628 0.77959 0.74501 0.0
H206 H 0.27965 0.69772 0.77145 0.0
H207 H 0.27271 0.66297 0.80228 0.0
H208 H 0.20729 0.69756 0.83385 0.0
H209 H 0.21508 0.73291 0.80385 0.0
C210 C 0.21732 0.77067 0.70812 0.0
C211 C 0.19358 0.77606 0.71741 0.0
C212 C 0.17455 0.77964 0.69815 0.0
C213 C 0.17882 0.77775 0.66915 0.0
C214 C 0.20272 0.77278 0.65994 0.0
C215 C 0.22168 0.76914 0.67918 0.0
C216 C 0.23723 0.76536 0.72859 0.0
C217 C 0.23365 0.74681 0.74854 0.0
C218 C 0.26016 0.77725 0.72735 0.0
C219 C 0.265 0.79747 0.70742 0.0
C220 C 0.25112 0.81902 0.70834 0.0
C221 C 0.25572 0.83798 0.68943 0.0
C222 C 0.27408 0.83559 0.66905 0.0
C223 C 0.28799 0.81402 0.66824 0.0
C224 C 0.28365 0.79523 0.68744 0.0
C225 C 0.29594 0.74547 0.78495 0.0
C226 C 0.31923 0.74029 0.77419 0.0
C227 C 0.33896 0.736 0.7922 0.0
C228 C 0.33589 0.73687 0.82145 0.0
C229 C 0.31243 0.74157 0.83221 0.0
C230 C 0.29269 0.74592 0.81415 0.0
C231 C 0.27541 0.75144 0.76556 0.0
C232 C 0.27889 0.77012 0.74576 0.0
C233 C 0.25249 0.73944 0.76682 0.0
C234 C 0.24814 0.71819 0.78561 0.0
C235 C 0.264 0.69802 0.78529 0.0
C236 C 0.25978 0.67794 0.80269 0.0
C237 C 0.23936 0.67734 0.82056 0.0
C238 C 0.22336 0.69748 0.82065 0.0
C239 C 0.22769 0.71765 0.80334 0.0
H240 H 0.31846 0.22631 0.78243 0.0
H241 H 0.35178 0.22386 0.81652 0.0
H242 H 0.3003 0.2361 0.88364 0.0
H243 H 0.26712 0.23875 0.84938 0.0
H244 H 0.27854 0.1993 0.7754 0.0
H245 H 0.29663 0.2822 0.79739 0.0
H246 H 0.3025 0.31951 0.82492 0.0
H247 H 0.22691 0.31692 0.85033 0.0
H248 H 0.22124 0.27934 0.82347 0.0
H249 H 0.18252 0.23744 0.76532 0.0
H250 H 0.14857 0.23602 0.73175 0.0
H251 H 0.20019 0.23335 0.66346 0.0
H252 H 0.23398 0.2351 0.69709 0.0
H253 H 0.22282 0.2707 0.77073 0.0
H254 H 0.2066 0.18591 0.74773 0.0
H255 H 0.20112 0.15275 0.71378 0.0
H256 H 0.27566 0.16217 0.68636 0.0
H257 H 0.28086 0.19562 0.71974 0.0
C258 C 0.29037 0.23303 0.81334 0.0
C259 C 0.31436 0.22835 0.80451 0.0
C260 C 0.33336 0.22682 0.82403 0.0
C261 C 0.3287 0.22982 0.8528 0.0
C262 C 0.30456 0.23407 0.86161 0.0
C263 C 0.28557 0.2356 0.84207 0.0
C264 C 0.27031 0.23481 0.79251 0.0
C265 C 0.26653 0.21504 0.77423 0.0
C266 C 0.25454 0.25534 0.79118 0.0
C267 C 0.25852 0.27769 0.80852 0.0
C268 C 0.28141 0.28937 0.80929 0.0
C269 C 0.28475 0.31076 0.82496 0.0
C270 C 0.26515 0.3212 0.8397 0.0
C271 C 0.2423 0.30948 0.83892 0.0
C272 C 0.23904 0.28797 0.82358 0.0
C273 C 0.21069 0.23628 0.73365 0.0
C274 C 0.18646 0.23682 0.7431 0.0
C275 C 0.16713 0.23573 0.72394 0.0
C276 C 0.17175 0.23438 0.69501 0.0
C277 C 0.19607 0.2345 0.68561 0.0
C278 C 0.21537 0.23546 0.70476 0.0
C279 C 0.23107 0.23516 0.75404 0.0
C280 C 0.23487 0.25501 0.77216 0.0
C281 C 0.24709 0.2149 0.75503 0.0
C282 C 0.24407 0.19353 0.73605 0.0
C283 C 0.22172 0.18093 0.73429 0.0
C284 C 0.21859 0.16198 0.71491 0.0
C285 C 0.23794 0.1549 0.69738 0.0
C286 C 0.26048 0.16705 0.69977 0.0
C287 C 0.26349 0.18617 0.71886 0.0
H288 H 0.69505 0.24266 0.79368 0.0
H289 H 0.66137 0.24525 0.82703 0.0
H290 H 0.64715 0.31943 0.80089 0.0
H291 H 0.68055 0.31657 0.76694 0.0
H292 H 0.70051 0.24542 0.73967 0.0
H293 H 0.72648 0.29055 0.8181 0.0
H294 H 0.72225 0.32254 0.85359 0.0
H295 H 0.73322 0.37755 0.79017 0.0
H296 H 0.7361 0.34555 0.75426 0.0
H297 H 0.76905 0.3116 0.68856 0.0
H298 H 0.80549 0.31157 0.65899 0.0
H299 H 0.82312 0.23885 0.68774 0.0
H300 H 0.78684 0.23908 0.71756 0.0
H301 H 0.76523 0.30866 0.74403 0.0
H302 H 0.73935 0.25617 0.66541 0.0
H303 H 0.74006 0.22001 0.63509 0.0
H304 H 0.73399 0.17366 0.70799 0.0
H305 H 0.73332 0.2097 0.73805 0.0
C306 C 0.69052 0.27949 0.77801 0.0
C307 C 0.68441 0.25933 0.79471 0.0
C308 C 0.66519 0.26085 0.81379 0.0
C309 C 0.65176 0.2826 0.81663 0.0
C310 C 0.65741 0.30256 0.79935 0.0
C311 C 0.67644 0.30091 0.77995 0.0
C312 C 0.71246 0.27849 0.75978 0.0
C313 C 0.71477 0.25915 0.74072 0.0
C314 C 0.73117 0.29629 0.76144 0.0
C315 C 0.73101 0.31563 0.78334 0.0
C316 C 0.72768 0.30949 0.81169 0.0
C317 C 0.7253 0.32771 0.83197 0.0
C318 C 0.72711 0.35239 0.82444 0.0
C319 C 0.73164 0.35858 0.79637 0.0
C320 C 0.73342 0.34034 0.77593 0.0
C321 C 0.77497 0.27521 0.705 0.0
C322 C 0.78077 0.29564 0.68851 0.0
C323 C 0.80164 0.29565 0.6717 0.0
C324 C 0.81713 0.27518 0.67097 0.0
C325 C 0.81133 0.25475 0.68753 0.0
C326 C 0.79056 0.25483 0.70454 0.0
C327 C 0.75311 0.27577 0.72339 0.0
C328 C 0.7509 0.29503 0.74274 0.0
C329 C 0.73498 0.25729 0.72276 0.0
C330 C 0.73641 0.23566 0.70403 0.0
C331 C 0.73843 0.2382 0.67484 0.0
C332 C 0.73881 0.21753 0.65755 0.0
C333 C 0.73692 0.19396 0.66913 0.0
C334 C 0.73504 0.19153 0.69836 0.0
C335 C 0.73477 0.21213 0.71558 0.0
H336 H 0.79005 0.7171 0.70459 0.0
H337 H 0.82089 0.71007 0.66826 0.0
H338 H 0.86483 0.76828 0.70278 0.0
H339 H 0.83374 0.77547 0.73889 0.0
H340 H 0.79692 0.71579 0.76439 0.0
H341 H 0.7732 0.77144 0.69079 0.0
H342 H 0.77799 0.80497 0.65751 0.0
H343 H 0.79334 0.8543 0.72605 0.0
H344 H 0.78929 0.82043 0.75918 0.0
H345 H 0.74352 0.79488 0.82258 0.0
H346 H 0.7069 0.80044 0.85116 0.0
H347 H 0.68042 0.72993 0.82396 0.0
H348 H 0.71632 0.72507 0.79448 0.0
H349 H 0.74862 0.79234 0.76909 0.0
H350 H 0.77084 0.7386 0.84335 0.0
H351 H 0.76945 0.70532 0.87757 0.0
H352 H 0.7601 0.65335 0.81022 0.0
H353 H 0.76089 0.68669 0.77625 0.0
C354 C 0.8096 0.74687 0.72429 0.0
C355 C 0.80635 0.72831 0.70433 0.0
C356 C 0.8239 0.72436 0.68359 0.0
C357 C 0.84523 0.73859 0.6828 0.0
C358 C 0.84864 0.75692 0.70309 0.0
C359 C 0.83087 0.76114 0.72357 0.0
C360 C 0.79073 0.75106 0.74598 0.0
C361 C 0.78613 0.73241 0.76534 0.0
C362 C 0.77749 0.77318 0.74779 0.0
C363 C 0.78113 0.79336 0.72747 0.0
C364 C 0.77801 0.78937 0.69862 0.0
C365 C 0.78052 0.80863 0.67964 0.0
C366 C 0.78602 0.83234 0.68912 0.0
C367 C 0.78941 0.83621 0.71801 0.0
C368 C 0.7869 0.81693 0.737 0.0
C369 C 0.73292 0.75943 0.80654 0.0
C370 C 0.72983 0.78061 0.8228 0.0
C371 C 0.70892 0.78369 0.83931 0.0
C372 C 0.69058 0.76569 0.83985 0.0
C373 C 0.69392 0.74438 0.82379 0.0
C374 C 0.71472 0.74137 0.80721 0.0
C375 C 0.75431 0.75679 0.78749 0.0
C376 C 0.75948 0.77577 0.76854 0.0
C377 C 0.76836 0.73505 0.78631 0.0
C378 C 0.76581 0.71516 0.80724 0.0
C379 C 0.76811 0.72007 0.83601 0.0
C380 C 0.7676 0.70102 0.85551 0.0
C381 C 0.76477 0.67668 0.8466 0.0
C382 C 0.76207 0.67189 0.8178 0.0
C383 C 0.76266 0.69092 0.79834 0.0
C384 C 0.96781 0.26886 0.549 0.0
C385 C 0.03609 0.26922 0.48281 0.0
O386 O 0.97777 0.28747 0.53791 0.0
Zn387 Zn 1.00219 0.27015 0.51601 0.0
O388 O 0.9758 0.24748 0.54302 0.0
Zn389 Zn 1.00321 0.23097 0.51752 0.0
O390 O 0.02407 0.21477 0.54474 0.0
O391 O 0.02593 0.25498 0.54695 0.0
O392 O 0.0294 0.24781 0.49046 0.0
O393 O 0.02531 0.2879 0.49281 0.0
O394 O 0.98063 0.25187 0.48512 0.0
O395 O 0.98401 0.21202 0.49104 0.0
C396 C 0.03289 0.234 0.5558 0.0
C397 C 0.97519 0.23006 0.47759 0.0
C398 C 0.74516 0.04077 0.55105 0.0
C399 C 0.74234 0.97381 0.48316 0.0
O400 O 0.7664 0.03318 0.54382 0.0
Zn401 Zn 0.78199 0.00555 0.5174 0.0
O402 O 0.72626 0.03011 0.54148 0.0
Zn403 Zn 0.74292 0.00647 0.51813 0.0
O404 O 0.75925 0.98206 0.5476 0.0
O405 O 0.79928 0.98421 0.5433 0.0
O406 O 0.72419 0.98435 0.49457 0.0
O407 O 0.76408 0.98012 0.49011 0.0
O408 O 0.80002 0.02505 0.49045 0.0
O409 O 0.75997 0.02945 0.48761 0.0
C410 C 0.78063 0.97505 0.55513 0.0
C411 C 0.78145 0.03495 0.47902 0.0
C412 C 0.97325 0.73722 0.53262 0.0
C413 C 0.03537 0.74106 0.459 0.0
O414 O 0.97902 0.759 0.52545 0.0
Zn415 Zn 1.00347 0.77722 0.49774 0.0
O416 O 0.98414 0.71915 0.52147 0.0
Zn417 Zn 0.0048 0.73808 0.49627 0.0
O418 O 0.02993 0.7545 0.52476 0.0
O419 O 0.02563 0.79447 0.52329 0.0
O420 O 0.02682 0.72186 0.47033 0.0
O421 O 0.02797 0.76208 0.4673 0.0
O422 O 0.98013 0.79492 0.47461 0.0
O423 O 0.97855 0.75491 0.46864 0.0
C424 C 0.03631 0.77574 0.5333 0.0
C425 C 0.97078 0.77638 0.46255 0.0
C426 C 0.23472 0.03396 0.53791 0.0
C427 C 0.23547 0.97539 0.45973 0.0
O428 O 0.25597 0.029 0.52831 0.0
Zn429 Zn 0.2729 0.00733 0.49699 0.0
O430 O 0.21604 0.02387 0.52695 0.0
Zn431 Zn 0.23362 0.00506 0.49836 0.0
O432 O 0.25273 0.97863 0.52309 0.0
O433 O 0.29247 0.9851 0.5199 0.0
O434 O 0.21657 0.98382 0.47192 0.0
O435 O 0.25667 0.98296 0.46724 0.0
O436 O 0.28812 0.0321 0.47349 0.0
O437 O 0.24785 0.03312 0.47181 0.0
C438 C 0.27469 0.97283 0.5297 0.0
C439 C 0.26856 0.04174 0.46414 0.0
C440 C 0.47525 0.77173 0.0331 0.0
C441 C 0.54127 0.76994 0.96369 0.0
O442 O 0.48529 0.79018 0.0217 0.0
Zn443 Zn 0.50778 0.77193 0.99802 0.0
O444 O 0.48181 0.75015 0.02583 0.0
Zn445 Zn 0.50684 0.73279 0.99759 0.0
O446 O 0.52758 0.71437 0.0233 0.0
O447 O 0.53029 0.75435 0.0288 0.0
O448 O 0.5333 0.74873 0.97037 0.0
O449 O 0.53179 0.78877 0.97488 0.0
O450 O 0.48317 0.75623 0.96809 0.0
O451 O 0.48473 0.71612 0.97183 0.0
C452 C 0.53637 0.73269 0.03628 0.0
C453 C 0.47582 0.73507 0.96024 0.0
C454 C 0.27474 0.54075 0.02859 0.0
C455 C 0.2712 0.47279 0.96094 0.0
O456 O 0.29304 0.53077 0.01674 0.0
Zn457 Zn 0.27449 0.50736 0.99391 0.0
O458 O 0.25315 0.53354 0.02232 0.0
Zn459 Zn 0.23512 0.50775 0.99606 0.0
O460 O 0.21845 0.48754 0.0237 0.0
O461 O 0.25867 0.4846 0.02547 0.0
O462 O 0.25031 0.48058 0.96915 0.0
O463 O 0.29051 0.48322 0.96983 0.0
O464 O 0.25691 0.5307 0.9643 0.0
O465 O 0.21702 0.52898 0.97055 0.0
C466 C 0.2376 0.4785 0.03484 0.0
C467 C 0.23532 0.53758 0.95747 0.0
C468 C 0.53409 0.27991 0.97856 0.0
C469 C 0.47493 0.27997 0.05518 0.0
O470 O 0.52461 0.29856 0.99016 0.0
Zn471 Zn 0.50535 0.28088 0.01762 0.0
O472 O 0.52855 0.2585 0.98736 0.0
Zn473 Zn 0.50603 0.24181 0.01847 0.0
O474 O 0.48349 0.22302 0.99563 0.0
O475 O 0.47904 0.26294 0.9914 0.0
O476 O 0.48166 0.25851 0.04771 0.0
O477 O 0.48456 0.29853 0.04361 0.0
O478 O 0.53284 0.26527 0.04408 0.0
O479 O 0.52973 0.22515 0.04182 0.0
C480 C 0.47247 0.2412 0.9848 0.0
C481 C 0.54037 0.24402 0.05142 0.0
C482 C 0.73254 0.53072 0.06039 0.0
C483 C 0.72487 0.47527 0.98057 0.0
O484 O 0.75311 0.52448 0.04973 0.0
Zn485 Zn 0.76671 0.50197 0.01655 0.0
O486 O 0.71287 0.52199 0.05028 0.0
Zn487 Zn 0.7278 0.50221 0.02123 0.0
O488 O 0.74631 0.47467 0.04466 0.0
O489 O 0.78577 0.47713 0.036 0.0
O490 O 0.7076 0.48277 0.99613 0.0
O491 O 0.74698 0.48126 0.98605 0.0
O492 O 0.78271 0.52589 0.99296 0.0
O493 O 0.74253 0.52963 0.99381 0.0
C494 C 0.7681 0.46679 0.04852 0.0
C495 C 0.7634 0.53681 0.98484 0.0
H496 H 0.13468 0.25506 0.34133 0.0
H497 H 0.17698 0.2928 0.40454 0.0
H498 H 0.09921 0.25582 0.37203 0.0
H499 H 0.14119 0.29398 0.43498 0.0
H500 H 0.06364 0.30983 0.47027 0.0
H501 H 0.09829 0.31211 0.4378 0.0
H502 H 0.0887 0.23587 0.41738 0.0
H503 H 0.05441 0.23356 0.44942 0.0
C504 C 0.13651 0.26337 0.36183 0.0
C505 C 0.15881 0.27366 0.37052 0.0
C506 C 0.11611 0.26394 0.37934 0.0
C507 C 0.11745 0.27496 0.40589 0.0
C508 C 0.13955 0.28565 0.41447 0.0
C509 C 0.16005 0.28492 0.39702 0.0
C510 C 0.06888 0.29365 0.45867 0.0
C511 C 0.05632 0.27152 0.46247 0.0
C512 C 0.08876 0.29491 0.44026 0.0
C513 C 0.09615 0.27416 0.42505 0.0
C514 C 0.08329 0.25222 0.42856 0.0
C515 C 0.06371 0.25089 0.44709 0.0
H516 H 0.74971 0.11789 0.32995 0.0
H517 H 0.82229 0.14259 0.35133 0.0
H518 H 0.7507 0.08937 0.36907 0.0
H519 H 0.82317 0.11432 0.39102 0.0
H520 H 0.82179 0.04432 0.44632 0.0
H521 H 0.82391 0.07145 0.40552 0.0
H522 H 0.74876 0.09258 0.41896 0.0
H523 H 0.74648 0.06532 0.45879 0.0
C524 C 0.76586 0.11722 0.3431 0.0
C525 C 0.78583 0.13256 0.33775 0.0
C526 C 0.76643 0.10095 0.36558 0.0
C527 C 0.78689 0.0998 0.38345 0.0
C528 C 0.80721 0.11462 0.37757 0.0
C529 C 0.8067 0.13082 0.35488 0.0
C530 C 0.80582 0.05488 0.44054 0.0
C531 C 0.78391 0.05247 0.4556 0.0
C532 C 0.80702 0.07044 0.41724 0.0
C533 C 0.78637 0.0839 0.4087 0.0
C534 C 0.7648 0.082 0.42443 0.0
C535 C 0.76356 0.06644 0.44744 0.0
H536 H 0.82392 0.77425 0.39849 0.0
H537 H 0.86686 0.77457 0.32279 0.0
H538 H 0.86132 0.77899 0.42647 0.0
H539 H 0.90427 0.77876 0.35078 0.0
H540 H 0.96015 0.74685 0.41846 0.0
H541 H 0.92412 0.74807 0.38812 0.0
H542 H 0.89813 0.81191 0.43192 0.0
H543 H 0.93468 0.81113 0.46196 0.0
C544 C 0.84136 0.77542 0.38789 0.0
C545 C 0.84255 0.77402 0.35852 0.0
C546 C 0.86268 0.77829 0.40384 0.0
C547 C 0.88563 0.77929 0.39074 0.0
C548 C 0.8868 0.77805 0.36136 0.0
C549 C 0.86544 0.77572 0.34539 0.0
C550 C 0.94694 0.76137 0.42135 0.0
C551 C 0.95023 0.77892 0.44253 0.0
C552 C 0.92637 0.76209 0.40395 0.0
C553 C 0.90835 0.78003 0.40776 0.0
C554 C 0.91176 0.79785 0.42864 0.0
C555 C 0.9327 0.79749 0.44565 0.0
H556 H 0.26412 0.84217 0.37002 0.0
H557 H 0.204 0.87249 0.32262 0.0
H558 H 0.26189 0.87629 0.40264 0.0
H559 H 0.20213 0.90711 0.35514 0.0
H560 H 0.19433 0.95226 0.4391 0.0
H561 H 0.19296 0.91789 0.40604 0.0
H562 H 0.27153 0.92029 0.39887 0.0
H563 H 0.273 0.95414 0.43155 0.0
C564 C 0.25025 0.856 0.36671 0.0
C565 C 0.23428 0.85461 0.34366 0.0
C566 C 0.24913 0.8757 0.38525 0.0
C567 C 0.23197 0.89452 0.38132 0.0
C568 C 0.2155 0.89286 0.35876 0.0
C569 C 0.21673 0.87316 0.34002 0.0
C570 C 0.21126 0.94553 0.43027 0.0
C571 C 0.23377 0.9559 0.43816 0.0
C572 C 0.21047 0.9259 0.41132 0.0
C573 C 0.23218 0.91618 0.40016 0.0
C574 C 0.25453 0.92702 0.40751 0.0
C575 C 0.25531 0.94659 0.42618 0.0
H576 H 0.17116 0.74984 0.62246 0.0
H577 H 0.13971 0.80952 0.66942 0.0
H578 H 0.13713 0.75137 0.58976 0.0
H579 H 0.10495 0.81043 0.637 0.0
H580 H 0.05804 0.81733 0.55482 0.0
H581 H 0.09271 0.8194 0.58749 0.0
H582 H 0.09422 0.74063 0.5917 0.0
H583 H 0.06025 0.73851 0.55919 0.0
C584 C 0.1571 0.76347 0.62571 0.0
C585 C 0.15825 0.77955 0.64864 0.0
C586 C 0.13738 0.76414 0.6071 0.0
C587 C 0.11815 0.78086 0.61089 0.0
C588 C 0.1195 0.79739 0.63342 0.0
C589 C 0.13929 0.79668 0.65215 0.0
C590 C 0.06577 0.8005 0.56283 0.0
C591 C 0.05644 0.77777 0.55415 0.0
C592 C 0.08557 0.80168 0.5816 0.0
C593 C 0.09646 0.78016 0.59194 0.0
C594 C 0.08668 0.75756 0.5837 0.0
C595 C 0.06702 0.75637 0.56511 0.0
H596 H 0.26878 0.117 0.68668 0.0
H597 H 0.19991 0.14817 0.66062 0.0
H598 H 0.26576 0.08669 0.6495 0.0
H599 H 0.19702 0.11794 0.62288 0.0
H600 H 0.19415 0.04628 0.5695 0.0
H601 H 0.19286 0.07412 0.6099 0.0
H602 H 0.26979 0.089 0.59942 0.0
H603 H 0.27121 0.06132 0.56007 0.0
C604 C 0.25298 0.11734 0.67296 0.0
C605 C 0.23475 0.13515 0.67633 0.0
C606 C 0.25124 0.1 0.65162 0.0
C607 C 0.23134 0.10013 0.63289 0.0
C608 C 0.21252 0.11726 0.63701 0.0
C609 C 0.2142 0.13459 0.65857 0.0
C610 C 0.21072 0.05555 0.57591 0.0
C611 C 0.23281 0.05135 0.56168 0.0
C612 C 0.20999 0.07152 0.59897 0.0
C613 C 0.23133 0.08349 0.60818 0.0
C614 C 0.25316 0.07962 0.59345 0.0
C615 C 0.2539 0.06379 0.57065 0.0
H616 H 0.85077 0.31174 0.66438 0.0
H617 H 0.83346 0.23861 0.63695 0.0
H618 H 0.88763 0.31124 0.63562 0.0
H619 H 0.86993 0.2382 0.60786 0.0
H620 H 0.94892 0.23379 0.58288 0.0
H621 H 0.91314 0.2362 0.61262 0.0
H622 H 0.90239 0.3114 0.58795 0.0
H623 H 0.93894 0.30915 0.55861 0.0
C624 C 0.85473 0.29565 0.65198 0.0
C625 C 0.83929 0.27515 0.65305 0.0
C626 C 0.87582 0.29538 0.63545 0.0
C627 C 0.88188 0.27463 0.61953 0.0
C628 C 0.86617 0.2543 0.62031 0.0
C629 C 0.84521 0.25452 0.63695 0.0
C630 C 0.93902 0.25091 0.58383 0.0
C631 C 0.94672 0.27125 0.56821 0.0
C632 C 0.91835 0.25224 0.60077 0.0
C633 C 0.90462 0.27388 0.60242 0.0
C634 C 0.91262 0.29447 0.58732 0.0
C635 C 0.93351 0.29318 0.57044 0.0
H636 H 0.81875 0.87037 0.68783 0.0
H637 H 0.75529 0.84149 0.64524 0.0
H638 H 0.81861 0.90561 0.65628 0.0
H639 H 0.75562 0.87614 0.61337 0.0
H640 H 0.74404 0.95378 0.58486 0.0
H641 H 0.74672 0.91975 0.61726 0.0
H642 H 0.82495 0.91727 0.60609 0.0
H643 H 0.82236 0.95184 0.5736 0.0
C644 C 0.80484 0.87149 0.6717 0.0
C645 C 0.78699 0.85314 0.66911 0.0
C646 C 0.80491 0.89155 0.65348 0.0
C647 C 0.78701 0.89376 0.63246 0.0
C648 C 0.76946 0.87517 0.6296 0.0
C649 C 0.76945 0.85514 0.64767 0.0
C650 C 0.76189 0.94614 0.58933 0.0
C651 C 0.78298 0.95547 0.57644 0.0
C652 C 0.76338 0.92649 0.60782 0.0
C653 C 0.78599 0.91557 0.61395 0.0
C654 C 0.80726 0.92534 0.60182 0.0
C655 C 0.80576 0.94509 0.58318 0.0
H656 H 0.83713 0.73603 0.62657 0.0
H657 H 0.89459 0.73273 0.68858 0.0
H658 H 0.86752 0.73231 0.58924 0.0
H659 H 0.92501 0.72867 0.65116 0.0
H660 H 0.96796 0.70075 0.57176 0.0
H661 H 0.93634 0.69809 0.60829 0.0
H662 H 0.90248 0.76348 0.57588 0.0
H663 H 0.93406 0.76647 0.54015 0.0
C664 C 0.85623 0.73414 0.63219 0.0
C665 C 0.86356 0.73478 0.66041 0.0
C666 C 0.87357 0.73206 0.61088 0.0
C667 C 0.89855 0.73014 0.6174 0.0
C668 C 0.90584 0.7299 0.64564 0.0
C669 C 0.8885 0.73244 0.66697 0.0
C670 C 0.9536 0.71436 0.57238 0.0
C671 C 0.95347 0.73386 0.55326 0.0
C672 C 0.93565 0.71291 0.59327 0.0
C673 C 0.91701 0.73057 0.59477 0.0
C674 C 0.91653 0.74955 0.57505 0.0
C675 C 0.93468 0.7513 0.55471 0.0
H676 H 0.27733 0.8309 0.61234 0.0
H677 H 0.27978 0.88453 0.67862 0.0
H678 H 0.28112 0.86346 0.57748 0.0
H679 H 0.28385 0.91712 0.64367 0.0
H680 H 0.31094 0.96571 0.56891 0.0
H681 H 0.31401 0.93182 0.60267 0.0
H682 H 0.25014 0.89849 0.56579 0.0
H683 H 0.24674 0.93228 0.53279 0.0
C684 C 0.27907 0.84962 0.61944 0.0
C685 C 0.27815 0.85523 0.64815 0.0
C686 C 0.28117 0.86822 0.59952 0.0
C687 C 0.28283 0.89276 0.60793 0.0
C688 C 0.28283 0.89832 0.63667 0.0
C689 C 0.28028 0.87974 0.6566 0.0
C690 C 0.29779 0.95096 0.5679 0.0
C691 C 0.27857 0.95163 0.54834 0.0
C692 C 0.29946 0.93171 0.58724 0.0
C693 C 0.28232 0.91257 0.58674 0.0
C694 C 0.26369 0.91289 0.5665 0.0
C695 C 0.2617 0.9323 0.54771 0.0
H696 H 0.16654 0.25983 0.64628 0.0
H697 H 0.13082 0.20579 0.69778 0.0
H698 H 0.13267 0.25821 0.61305 0.0
H699 H 0.09659 0.2045 0.66466 0.0
H700 H 0.0534 0.19324 0.58026 0.0
H701 H 0.08704 0.19222 0.61431 0.0
H702 H 0.08908 0.27104 0.61463 0.0
H703 H 0.05589 0.27218 0.5809 0.0
C704 C 0.1515 0.24751 0.65041 0.0
C705 C 0.15128 0.23302 0.67467 0.0
C706 C 0.13202 0.24672 0.63151 0.0
C707 C 0.11193 0.23133 0.63638 0.0
C708 C 0.11189 0.21644 0.66034 0.0
C709 C 0.13134 0.21738 0.6794 0.0
C710 C 0.06095 0.21032 0.58777 0.0
C711 C 0.05204 0.23277 0.57773 0.0
C712 C 0.08014 0.20973 0.60728 0.0
C713 C 0.09083 0.23156 0.61684 0.0
C714 C 0.08151 0.25392 0.60726 0.0
C715 C 0.06234 0.25453 0.58802 0.0
H716 H 0.76599 0.18444 0.6238 0.0
H717 H 0.70781 0.15352 0.67339 0.0
H718 H 0.7669 0.14756 0.59508 0.0
H719 H 0.70923 0.11635 0.64521 0.0
H720 H 0.70344 0.06334 0.56996 0.0
H721 H 0.70059 0.10078 0.59776 0.0
H722 H 0.77934 0.10497 0.60102 0.0
H723 H 0.78223 0.06795 0.57312 0.0
C724 C 0.7533 0.16984 0.62847 0.0
C725 C 0.73691 0.17188 0.65096 0.0
C726 C 0.75399 0.14859 0.6122 0.0
C727 C 0.73824 0.12893 0.61798 0.0
C728 C 0.7215 0.13119 0.6401 0.0
C729 C 0.72087 0.15239 0.65643 0.0
C730 C 0.72012 0.0722 0.57673 0.0
C731 C 0.74305 0.06264 0.56925 0.0
C732 C 0.71849 0.09362 0.59271 0.0
C733 C 0.73975 0.10596 0.60141 0.0
C734 C 0.76262 0.09617 0.59424 0.0
C735 C 0.76425 0.0748 0.5784 0.0
H736 H 0.85639 0.19462 0.36394 0.0
H737 H 0.9023 0.24376 0.31678 0.0
H738 H 0.88628 0.19449 0.40205 0.0
H739 H 0.93248 0.243 0.35444 0.0
H740 H 0.95856 0.26509 0.44208 0.0
H741 H 0.93197 0.26041 0.4018 0.0
H742 H 0.92874 0.18259 0.41613 0.0
H743 H 0.95549 0.18729 0.45712 0.0
C744 C 0.87297 0.20521 0.36163 0.0
C745 C 0.87686 0.21946 0.33752 0.0
C746 C 0.8902 0.2049 0.3833 0.0
C747 C 0.91162 0.21889 0.38133 0.0
C748 C 0.91597 0.23228 0.3567 0.0
C749 C 0.89879 0.23255 0.33502 0.0
C750 C 0.95228 0.24691 0.43675 0.0
C751 C 0.95912 0.22654 0.45291 0.0
C752 C 0.93718 0.24423 0.41343 0.0
C753 C 0.92843 0.22112 0.40564 0.0
C754 C 0.93518 0.20065 0.42173 0.0
C755 C 0.95052 0.20332 0.44511 0.0
H756 H 0.70593 0.84159 0.39097 0.0
H757 H 0.75593 0.88033 0.33704 0.0
H758 H 0.7067 0.87567 0.42406 0.0
H759 H 0.75611 0.91461 0.36964 0.0
H760 H 0.77763 0.95231 0.45165 0.0
H761 H 0.77314 0.92044 0.41674 0.0
H762 H 0.69518 0.91955 0.43044 0.0
H763 H 0.69968 0.95163 0.46596 0.0
C764 C 0.71696 0.85744 0.3861 0.0
C765 C 0.73103 0.85817 0.36148 0.0
C766 C 0.71717 0.87706 0.4049 0.0
C767 C 0.73157 0.89776 0.39954 0.0
C768 C 0.74505 0.89878 0.37452 0.0
C769 C 0.74477 0.87923 0.3557 0.0
C770 C 0.75947 0.94543 0.44729 0.0
C771 C 0.739 0.95454 0.46167 0.0
C772 C 0.75689 0.92725 0.42706 0.0
C773 C 0.73379 0.91758 0.42067 0.0
C774 C 0.71324 0.92659 0.43503 0.0
C775 C 0.7158 0.945 0.45526 0.0
H776 H 0.14546 0.70539 0.33114 0.0
H777 H 0.15686 0.78078 0.35405 0.0
H778 H 0.11117 0.70303 0.36386 0.0
H779 H 0.12329 0.77838 0.38718 0.0
H780 H 0.04765 0.77658 0.42196 0.0
H781 H 0.08035 0.77633 0.38776 0.0
H782 H 0.09954 0.70278 0.41233 0.0
H783 H 0.06591 0.70277 0.44606 0.0
C784 C 0.14076 0.72137 0.34338 0.0
C785 C 0.15365 0.74335 0.33983 0.0
C786 C 0.12116 0.72003 0.36219 0.0
C787 C 0.1142 0.74059 0.378 0.0
C788 C 0.1276 0.76235 0.37485 0.0
C789 C 0.14695 0.76374 0.35592 0.0
C790 C 0.05874 0.76027 0.41999 0.0
C791 C 0.05429 0.73975 0.43689 0.0
C792 C 0.07766 0.76019 0.40048 0.0
C793 C 0.09296 0.7397 0.39754 0.0
C794 C 0.08807 0.71884 0.41388 0.0
C795 C 0.06885 0.71883 0.43328 0.0
H796 H 0.29218 0.18468 0.3877 0.0
H797 H 0.23907 0.1493 0.33431 0.0
H798 H 0.29441 0.14797 0.4168 0.0
H799 H 0.24194 0.1125 0.36269 0.0
H800 H 0.22982 0.06371 0.43863 0.0
H801 H 0.22964 0.09971 0.40904 0.0
H802 H 0.30813 0.10482 0.41653 0.0
H803 H 0.30831 0.06866 0.44679 0.0
C804 C 0.28099 0.1691 0.38216 0.0
C805 C 0.26539 0.16999 0.35869 0.0
C806 C 0.2825 0.14795 0.39864 0.0
C807 C 0.26834 0.12728 0.39211 0.0
C808 C 0.25291 0.12816 0.36851 0.0
C809 C 0.25145 0.14921 0.35206 0.0
C810 C 0.24712 0.07237 0.43397 0.0
C811 C 0.26911 0.06321 0.44512 0.0
C812 C 0.24701 0.09301 0.41681 0.0
C813 C 0.26887 0.10514 0.41028 0.0
C814 C 0.29094 0.09601 0.42134 0.0
C815 C 0.29107 0.07521 0.43852 0.0
H816 H 0.6437 0.75318 0.82561 0.0
H817 H 0.68589 0.78617 0.89227 0.0
H818 H 0.60697 0.75644 0.85405 0.0
H819 H 0.64889 0.78982 0.92053 0.0
H820 H 0.57171 0.80908 0.95403 0.0
H821 H 0.60734 0.81032 0.92292 0.0
H822 H 0.59292 0.73603 0.89745 0.0
H823 H 0.55763 0.73477 0.92819 0.0
C824 C 0.64521 0.76106 0.84636 0.0
C825 C 0.66791 0.7691 0.85674 0.0
C826 C 0.62409 0.76304 0.86261 0.0
C827 C 0.62504 0.77326 0.88961 0.0
C828 C 0.64752 0.78208 0.89969 0.0
C829 C 0.66873 0.77996 0.88348 0.0
C830 C 0.57606 0.79313 0.94156 0.0
C831 C 0.56185 0.77182 0.94363 0.0
C832 C 0.59653 0.79379 0.92391 0.0
C833 C 0.60293 0.77327 0.90771 0.0
C834 C 0.58835 0.75223 0.90939 0.0
C835 C 0.56817 0.75148 0.92717 0.0
H836 H 0.22229 0.6769 0.87474 0.0
H837 H 0.2464 0.62889 0.8084 0.0
H838 H 0.21783 0.6418 0.90586 0.0
H839 H 0.24244 0.59401 0.83974 0.0
H840 H 0.26785 0.54857 0.9166 0.0
H841 H 0.26575 0.58133 0.88234 0.0
H842 H 0.19461 0.60191 0.91336 0.0
H843 H 0.19668 0.56876 0.94796 0.0
C844 C 0.2263 0.65888 0.86662 0.0
C845 C 0.235 0.65583 0.83909 0.0
C846 C 0.22372 0.63876 0.88449 0.0
C847 C 0.22993 0.61517 0.87531 0.0
C848 C 0.23784 0.61201 0.84755 0.0
C849 C 0.24025 0.63205 0.82964 0.0
C850 C 0.25161 0.55988 0.916 0.0
C851 C 0.23245 0.5561 0.93506 0.0
C852 C 0.25036 0.5786 0.89622 0.0
C853 C 0.23003 0.59422 0.89514 0.0
C854 C 0.21058 0.59022 0.91383 0.0
C855 C 0.21168 0.57117 0.93347 0.0
H856 H 0.36812 0.19882 0.85447 0.0
H857 H 0.33545 0.26001 0.89767 0.0
H858 H 0.40297 0.20025 0.88658 0.0
H859 H 0.36968 0.26081 0.93026 0.0
H860 H 0.4508 0.19835 0.96747 0.0
H861 H 0.41536 0.19401 0.93634 0.0
H862 H 0.41245 0.27238 0.92649 0.0
H863 H 0.44724 0.27677 0.95755 0.0
C864 C 0.36831 0.21247 0.87089 0.0
C865 C 0.34908 0.2294 0.8734 0.0
C866 C 0.38813 0.21311 0.88946 0.0
C867 C 0.38915 0.23075 0.91082 0.0
C868 C 0.3696 0.24721 0.91376 0.0
C869 C 0.34983 0.24657 0.89527 0.0
C870 C 0.44258 0.2146 0.95858 0.0
C871 C 0.45176 0.23789 0.96515 0.0
C872 C 0.42236 0.21212 0.94072 0.0
C873 C 0.41095 0.23288 0.92923 0.0
C874 C 0.42047 0.25606 0.93546 0.0
C875 C 0.44057 0.25853 0.95317 0.0
H876 H 0.68862 0.36011 0.8594 0.0
H877 H 0.75993 0.3876 0.83794 0.0
H878 H 0.68451 0.39171 0.89526 0.0
H879 H 0.75685 0.41812 0.87479 0.0
H880 H 0.74195 0.48206 0.92829 0.0
H881 H 0.73953 0.45406 0.88882 0.0
H882 H 0.69712 0.40403 0.93935 0.0
H883 H 0.69812 0.43328 0.97805 0.0
C884 C 0.70347 0.3729 0.86259 0.0
C885 C 0.72454 0.37161 0.84597 0.0
C886 C 0.70123 0.39092 0.88324 0.0
C887 C 0.72028 0.40771 0.88808 0.0
C888 C 0.74144 0.40611 0.87135 0.0
C889 C 0.74339 0.38847 0.85033 0.0
C890 C 0.73168 0.46526 0.93061 0.0
C891 C 0.7202 0.45972 0.95603 0.0
C892 C 0.73055 0.449 0.90814 0.0
C893 C 0.71862 0.42635 0.91089 0.0
C894 C 0.70629 0.42131 0.93618 0.0
C895 C 0.70686 0.438 0.95845 0.0
H896 H 0.68379 0.21045 0.1197 0.0
H897 H 0.65388 0.26317 0.17763 0.0
H898 H 0.64591 0.21168 0.09252 0.0
H899 H 0.61582 0.26378 0.15106 0.0
H900 H 0.56469 0.28094 0.07763 0.0
H901 H 0.60166 0.2784 0.10572 0.0
H902 H 0.60233 0.2 0.09559 0.0
H903 H 0.56529 0.20255 0.0669 0.0
C904 C 0.66916 0.22234 0.12658 0.0
C905 C 0.67187 0.23676 0.15077 0.0
C906 C 0.64735 0.22279 0.11123 0.0
C907 C 0.62784 0.23779 0.11966 0.0
C908 C 0.63058 0.25219 0.14386 0.0
C909 C 0.65231 0.25168 0.15923 0.0
C910 C 0.57259 0.2631 0.08145 0.0
C911 C 0.56202 0.24193 0.06997 0.0
C912 C 0.59375 0.26165 0.09772 0.0
C913 C 0.60495 0.239 0.1029 0.0
C914 C 0.59427 0.21775 0.0917 0.0
C915 C 0.57297 0.21919 0.07546 0.0
H916 H 0.76636 0.65961 0.15508 0.0
H917 H 0.705 0.63071 0.2011 0.0
H918 H 0.76424 0.62522 0.12287 0.0
H919 H 0.70332 0.59572 0.16918 0.0
H920 H 0.69286 0.55345 0.08434 0.0
H921 H 0.69344 0.58616 0.11937 0.0
H922 H 0.77214 0.58144 0.12347 0.0
H923 H 0.77166 0.54927 0.08847 0.0
C924 C 0.75241 0.64589 0.15832 0.0
C925 C 0.73584 0.6479 0.18063 0.0
C926 C 0.75134 0.62603 0.14002 0.0
C927 C 0.73368 0.60766 0.14355 0.0
C928 C 0.71704 0.60965 0.16583 0.0
C929 C 0.71817 0.62953 0.18426 0.0
C930 C 0.71024 0.55928 0.09293 0.0
C931 C 0.73221 0.54891 0.08339 0.0
C932 C 0.71057 0.57795 0.11305 0.0
C933 C 0.73287 0.58659 0.12393 0.0
C934 C 0.7547 0.57556 0.11508 0.0
C935 C 0.75438 0.557 0.09509 0.0
H936 H 0.38509 0.76164 0.18242 0.0
H937 H 0.33686 0.7893 0.11791 0.0
H938 H 0.41938 0.76426 0.1501 0.0
H939 H 0.37145 0.79253 0.0859 0.0
H940 H 0.44585 0.81148 0.04388 0.0
H941 H 0.41292 0.81419 0.07868 0.0
H942 H 0.42909 0.74076 0.10599 0.0
H943 H 0.46155 0.73797 0.07149 0.0
C944 C 0.38175 0.7683 0.16139 0.0
C945 C 0.35807 0.77495 0.15273 0.0
C946 C 0.40146 0.76994 0.14294 0.0
C947 C 0.39806 0.7785 0.11546 0.0
C948 C 0.37464 0.7861 0.10706 0.0
C949 C 0.35484 0.78424 0.12545 0.0
C950 C 0.44243 0.79604 0.0575 0.0
C951 C 0.45622 0.77449 0.05487 0.0
C952 C 0.42355 0.79754 0.07727 0.0
C953 C 0.41851 0.7777 0.09508 0.0
C954 C 0.4327 0.75644 0.09279 0.0
C955 C 0.4512 0.7548 0.07286 0.0
H956 H 0.21347 0.35243 0.14254 0.0
H957 H 0.26436 0.39774 0.18834 0.0
H958 H 0.2104 0.38375 0.10617 0.0
H959 H 0.26067 0.42923 0.15257 0.0
H960 H 0.27547 0.46146 0.0661 0.0
H961 H 0.27459 0.4322 0.10413 0.0
H962 H 0.1962 0.42643 0.09604 0.0
H963 H 0.19705 0.45589 0.05728 0.0
C964 C 0.22389 0.36911 0.14493 0.0
C965 C 0.23931 0.37249 0.16826 0.0
C966 C 0.22189 0.38716 0.12426 0.0
C967 C 0.23539 0.40891 0.12641 0.0
C968 C 0.25025 0.41255 0.15013 0.0
C969 C 0.25219 0.39458 0.17078 0.0
C970 C 0.25795 0.45408 0.07235 0.0
C971 C 0.2363 0.46105 0.05856 0.0
C972 C 0.25746 0.43739 0.09437 0.0
C973 C 0.23532 0.4271 0.10327 0.0
C974 C 0.21357 0.43398 0.08955 0.0
C975 C 0.21403 0.45092 0.06748 0.0
H976 H 0.37591 0.30992 0.19468 0.0
H977 H 0.33486 0.26646 0.13536 0.0
H978 H 0.4105 0.31059 0.16239 0.0
H979 H 0.36965 0.26662 0.10365 0.0
H980 H 0.44634 0.24379 0.07607 0.0
H981 H 0.41175 0.24743 0.10753 0.0
H982 H 0.42289 0.32534 0.11255 0.0
H983 H 0.45782 0.32182 0.0806 0.0
C984 C 0.3741 0.30079 0.17465 0.0
C985 C 0.35264 0.2879 0.16779 0.0
C986 C 0.39395 0.30116 0.15621 0.0
C987 C 0.39282 0.28845 0.13069 0.0
C988 C 0.37115 0.27623 0.12343 0.0
C989 C 0.35127 0.27605 0.14168 0.0
C990 C 0.4416 0.26175 0.08391 0.0
C991 C 0.45486 0.28255 0.07574 0.0
C992 C 0.42163 0.26381 0.1018 0.0
C993 C 0.4145 0.28668 0.11224 0.0
C994 C 0.42805 0.30748 0.10478 0.0
C995 C 0.44798 0.30546 0.08649 0.0
H996 H 0.76486 0.35911 0.18256 0.0
H997 H 0.79576 0.32094 0.11169 0.0
H998 H 0.76415 0.39679 0.15546 0.0
H999 H 0.7954 0.35886 0.08476 0.0
H1000 H 0.80896 0.43774 0.0535 0.0
H1001 H 0.81371 0.4012 0.08277 0.0
H1002 H 0.74053 0.41125 0.11438 0.0
H1003 H 0.73582 0.44748 0.08552 0.0
C1004 C 0.77141 0.35869 0.16117 0.0
C1005 C 0.78012 0.33687 0.14924 0.0
C1006 C 0.77111 0.38034 0.14569 0.0
C1007 C 0.77964 0.38077 0.11794 0.0
C1008 C 0.78897 0.35916 0.1062 0.0
C1009 C 0.78914 0.33743 0.12165 0.0
C1010 C 0.79401 0.43222 0.0669 0.0
C1011 C 0.77201 0.44549 0.06714 0.0
C1012 C 0.79667 0.41124 0.0835 0.0
C1013 C 0.7775 0.40338 0.1009 0.0
C1014 C 0.75574 0.41697 0.10147 0.0
C1015 C 0.75301 0.43768 0.08476 0.0
H1016 H 0.66902 0.73084 0.13305 0.0
H1017 H 0.61329 0.73429 0.19674 0.0
H1018 H 0.63739 0.72592 0.09697 0.0
H1019 H 0.58167 0.72978 0.16063 0.0
H1020 H 0.54063 0.76238 0.08135 0.0
H1021 H 0.57044 0.76013 0.11934 0.0
H1022 H 0.60104 0.69479 0.08294 0.0
H1023 H 0.57056 0.69668 0.04496 0.0
C1024 C 0.65001 0.7304 0.13929 0.0
C1025 C 0.64354 0.73306 0.16762 0.0
C1026 C 0.63197 0.72738 0.11873 0.0
C1027 C 0.60714 0.72745 0.12608 0.0
C1028 C 0.6007 0.72967 0.15446 0.0
C1029 C 0.61875 0.7322 0.17507 0.0
C1030 C 0.55353 0.74736 0.08159 0.0
C1031 C 0.55334 0.72972 0.06019 0.0
C1032 C 0.5705 0.74602 0.10341 0.0
C1033 C 0.588 0.7273 0.10404 0.0
C1034 C 0.5877 0.70942 0.08286 0.0
C1035 C 0.57026 0.71043 0.06127 0.0
H1036 H 0.30187 0.67627 0.12032 0.0
H1037 H 0.25767 0.63207 0.17542 0.0
H1038 H 0.30391 0.64237 0.08691 0.0
H1039 H 0.26041 0.59819 0.14263 0.0
H1040 H 0.23922 0.5595 0.06178 0.0
H1041 H 0.24224 0.59171 0.0963 0.0
H1042 H 0.31929 0.5991 0.0791 0.0
H1043 H 0.31626 0.56647 0.04381 0.0
C1044 C 0.29276 0.6593 0.12542 0.0
C1045 C 0.27945 0.657 0.1505 0.0
C1046 C 0.29418 0.6398 0.10642 0.0
C1047 C 0.28217 0.61765 0.11202 0.0
C1048 C 0.26962 0.61511 0.13752 0.0
C1049 C 0.26825 0.6345 0.15648 0.0
C1050 C 0.25691 0.56785 0.06523 0.0
C1051 C 0.27753 0.56032 0.04993 0.0
C1052 C 0.25864 0.58627 0.08527 0.0
C1053 C 0.28103 0.59785 0.09067 0.0
C1054 C 0.30175 0.59054 0.07534 0.0
C1055 C 0.30005 0.5718 0.05525 0.0
H1056 H 0.33866 0.71181 0.87132 0.0
H1057 H 0.38166 0.75594 0.81496 0.0
H1058 H 0.37332 0.70964 0.90375 0.0
H1059 H 0.41633 0.75317 0.84684 0.0
H1060 H 0.45869 0.77166 0.927 0.0
H1061 H 0.4257 0.7702 0.89296 0.0
H1062 H 0.41581 0.69332 0.90956 0.0
H1063 H 0.44901 0.69479 0.94416 0.0
C1064 C 0.35552 0.72093 0.86577 0.0
C1065 C 0.35732 0.73412 0.84056 0.0
C1066 C 0.37546 0.71946 0.88421 0.0
C1067 C 0.39756 0.73132 0.87794 0.0
C1068 C 0.39949 0.74405 0.85246 0.0
C1069 C 0.37966 0.74542 0.83402 0.0
C1070 C 0.44963 0.75435 0.92337 0.0
C1071 C 0.45654 0.73333 0.93837 0.0
C1072 C 0.43077 0.7535 0.90368 0.0
C1073 C 0.41814 0.73163 0.89844 0.0
C1074 C 0.42508 0.71049 0.91326 0.0
C1075 C 0.44419 0.7113 0.93292 0.0
H1076 H 0.30206 0.33427 0.87582 0.0
H1077 H 0.23517 0.3609 0.83874 0.0
H1078 H 0.30515 0.37162 0.90387 0.0
H1079 H 0.23848 0.3983 0.866 0.0
H1080 H 0.23291 0.44518 0.94337 0.0
H1081 H 0.23321 0.4096 0.91343 0.0
H1082 H 0.31152 0.41566 0.90458 0.0
H1083 H 0.31131 0.45138 0.93567 0.0
C1084 C 0.28821 0.34826 0.8734 0.0
C1085 C 0.26817 0.3445 0.8554 0.0
C1086 C 0.29002 0.36971 0.88939 0.0
C1087 C 0.2719 0.38791 0.88754 0.0
C1088 C 0.25244 0.38446 0.86859 0.0
C1089 C 0.25053 0.36302 0.85289 0.0
C1090 C 0.25028 0.43911 0.93504 0.0
C1091 C 0.2721 0.45131 0.9419 0.0
C1092 C 0.25041 0.41868 0.91761 0.0
C1093 C 0.27234 0.40982 0.90621 0.0
C1094 C 0.29429 0.42189 0.9131 0.0
C1095 C 0.29417 0.44244 0.93078 0.0
H1096 H 0.61555 0.24998 0.82772 0.0
H1097 H 0.64466 0.31947 0.85443 0.0
H1098 H 0.58612 0.25112 0.86589 0.0
H1099 H 0.61547 0.32047 0.89315 0.0
H1100 H 0.54537 0.32091 0.94771 0.0
H1101 H 0.57239 0.32323 0.9069 0.0
H1102 H 0.58881 0.2464 0.91572 0.0
H1103 H 0.56169 0.24396 0.95559 0.0
C1104 C 0.6156 0.26551 0.84179 0.0
C1105 C 0.63249 0.28452 0.83827 0.0
C1106 C 0.59882 0.26616 0.86371 0.0
C1107 C 0.59868 0.28572 0.88285 0.0
C1108 C 0.61497 0.30523 0.87869 0.0
C1109 C 0.6317 0.30465 0.85655 0.0
C1110 C 0.55482 0.30458 0.94088 0.0
C1111 C 0.55121 0.28223 0.95475 0.0
C1112 C 0.57032 0.30591 0.91758 0.0
C1113 C 0.58249 0.28491 0.9078 0.0
C1114 C 0.57925 0.26278 0.92218 0.0
C1115 C 0.56378 0.26144 0.94523 0.0
H1116 H 0.73491 0.63672 0.84781 0.0
H1117 H 0.79524 0.67041 0.89167 0.0
H1118 H 0.73573 0.60278 0.8808 0.0
H1119 H 0.79557 0.63672 0.92528 0.0
H1120 H 0.80396 0.55852 0.96168 0.0
H1121 H 0.80483 0.59238 0.92818 0.0
H1122 H 0.72601 0.59591 0.93 0.0
H1123 H 0.72507 0.56215 0.9629 0.0
C1124 C 0.74837 0.63686 0.86448 0.0
C1125 C 0.76498 0.65628 0.86713 0.0
C1126 C 0.7487 0.61752 0.88355 0.0
C1127 C 0.76567 0.61709 0.90572 0.0
C1128 C 0.78241 0.63642 0.9083 0.0
C1129 C 0.78201 0.65585 0.88926 0.0
C1130 C 0.78685 0.56655 0.9549 0.0
C1131 C 0.76447 0.55755 0.96492 0.0
C1132 C 0.78735 0.58601 0.93584 0.0
C1133 C 0.76547 0.59674 0.92633 0.0
C1134 C 0.74317 0.58781 0.93654 0.0
C1135 C 0.74267 0.56851 0.95557 0.0
loop_
_geom_bond_atom_site_label_1
_geom_bond_atom_site_label_2
_geom_bond_distance
_geom_bond_site_symmetry_2
_ccdc_geom_bond_type
H0 C19 0.949 . S
H1 C20 0.950 . S
H2 C22 0.950 . S
H3 C23 0.950 . S
H4 C25 0.950 . S
H5 C28 0.950 . S
H6 C29 0.950 . S
H7 C31 0.951 . S
H8 C32 0.949 . S
H9 C34 0.949 . S
H10 C35 0.950 . S
H11 C37 0.950 . S
H12 C38 0.950 . S
H13 C40 0.950 . S
H14 C43 0.950 . S
H15 C44 0.950 . S
H16 C46 0.951 . S
H17 C47 0.949 . S
C18 C19 1.376 . S
C18 C23 1.386 . S
C18 C24 1.483 . S
C19 H0 0.949 . S
C19 C18 1.376 . S
C19 C20 1.397 . S
C20 H1 0.950 . S
C20 C19 1.397 . S
C20 C21 1.391 . S
C21 C20 1.391 . S
C21 C22 1.405 . S
C22 H2 0.950 . S
C22 C21 1.405 . S
C22 C23 1.367 . S
C23 H3 0.950 . S
C23 C18 1.386 . S
C23 C22 1.367 . S
C24 C18 1.483 . S
C24 C25 1.382 . S
C24 C26 1.403 . S
C25 H4 0.950 . S
C25 C24 1.382 . S
C25 C41 1.411 . S
C26 C24 1.403 . S
C26 C27 1.489 . S
C26 C40 1.411 . S
C27 C26 1.489 . S
C27 C28 1.383 . S
C27 C32 1.382 . S
C28 H5 0.950 . S
C28 C27 1.383 . S
C28 C29 1.395 . S
C29 H6 0.950 . S
C29 C28 1.395 . S
C29 C30 1.288 . S
C30 C29 1.288 . S
C30 C31 1.392 . S
C31 H7 0.951 . S
C31 C30 1.392 . S
C31 C32 1.392 . S
C32 H8 0.949 . S
C32 C27 1.382 . S
C32 C31 1.392 . S
C33 C34 1.376 . S
C33 C38 1.386 . S
C33 C39 1.483 . S
C34 H9 0.949 . S
C34 C33 1.376 . S
C34 C35 1.397 . S
C35 H10 0.950 . S
C35 C34 1.397 . S
C35 C36 1.391 . S
C36 C35 1.391 . S
C36 C37 1.405 . S
C37 H11 0.950 . S
C37 C36 1.405 . S
C37 C38 1.367 . S
C38 H12 0.950 . S
C38 C33 1.386 . S
C38 C37 1.367 . S
C39 C33 1.483 . S
C39 C40 1.382 . S
C39 C41 1.403 . S
C40 H13 0.950 . S
C40 C26 1.411 . S
C40 C39 1.382 . S
C41 C25 1.411 . S
C41 C39 1.403 . S
C41 C42 1.489 . S
C42 C41 1.489 . S
C42 C43 1.383 . S
C42 C47 1.382 . S
C43 H14 0.950 . S
C43 C42 1.383 . S
C43 C44 1.395 . S
C44 H15 0.950 . S
C44 C43 1.395 . S
C44 C45 1.288 . S
C45 C44 1.288 . S
C45 C46 1.392 . S
C46 H16 0.951 . S
C46 C45 1.392 . S
C46 C47 1.392 . S
C47 H17 0.949 . S
C47 C42 1.382 . S
C47 C46 1.392 . S
H48 C67 0.949 . S
H49 C68 0.950 . S
H50 C70 0.950 . S
H51 C71 0.950 . S
H52 C73 0.950 . S
H53 C76 0.950 . S
H54 C77 0.950 . S
H55 C79 0.951 . S
H56 C80 0.949 . S
H57 C82 0.949 . S
H58 C83 0.950 . S
H59 C85 0.950 . S
H60 C86 0.950 . S
H61 C88 0.950 . S
H62 C91 0.950 . S
H63 C92 0.950 . S
H64 C94 0.951 . S
H65 C95 0.949 . S
C66 C67 1.376 . S
C66 C71 1.386 . S
C66 C72 1.483 . S
C67 H48 0.949 . S
C67 C66 1.376 . S
C67 C68 1.397 . S
C68 H49 0.950 . S
C68 C67 1.397 . S
C68 C69 1.391 . S
C69 C68 1.391 . S
C69 C70 1.405 . S
C70 H50 0.950 . S
C70 C69 1.405 . S
C70 C71 1.367 . S
C71 H51 0.950 . S
C71 C66 1.386 . S
C71 C70 1.367 . S
C72 C66 1.483 . S
C72 C73 1.382 . S
C72 C74 1.403 . S
C73 H52 0.950 . S
C73 C72 1.382 . S
C73 C89 1.411 . S
C74 C72 1.403 . S
C74 C75 1.489 . S
C74 C88 1.411 . S
C75 C74 1.489 . S
C75 C76 1.383 . S
C75 C80 1.382 . S
C76 H53 0.950 . S
C76 C75 1.383 . S
C76 C77 1.395 . S
C77 H54 0.950 . S
C77 C76 1.395 . S
C77 C78 1.288 . S
C78 C77 1.288 . S
C78 C79 1.392 . S
C79 H55 0.951 . S
C79 C78 1.392 . S
C79 C80 1.392 . S
C80 H56 0.949 . S
C80 C75 1.382 . S
C80 C79 1.392 . S
C81 C82 1.376 . S
C81 C86 1.386 . S
C81 C87 1.483 . S
C82 H57 0.949 . S
C82 C81 1.376 . S
C82 C83 1.397 . S
C83 H58 0.950 . S
C83 C82 1.397 . S
C83 C84 1.391 . S
C84 C83 1.391 . S
C84 C85 1.405 . S
C85 H59 0.950 . S
C85 C84 1.405 . S
C85 C86 1.367 . S
C86 H60 0.950 . S
C86 C81 1.386 . S
C86 C85 1.367 . S
C87 C81 1.483 . S
C87 C88 1.382 . S
C87 C89 1.403 . S
C88 H61 0.950 . S
C88 C74 1.411 . S
C88 C87 1.382 . S
C89 C73 1.411 . S
C89 C87 1.403 . S
C89 C90 1.489 . S
C90 C89 1.489 . S
C90 C91 1.383 . S
C90 C95 1.382 . S
C91 H62 0.950 . S
C91 C90 1.383 . S
C91 C92 1.395 . S
C92 H63 0.950 . S
C92 C91 1.395 . S
C92 C93 1.288 . S
C93 C92 1.288 . S
C93 C94 1.392 . S
C94 H64 0.951 . S
C94 C93 1.392 . S
C94 C95 1.392 . S
C95 H65 0.949 . S
C95 C90 1.382 . S
C95 C94 1.392 . S
H96 C115 0.949 . S
H97 C116 0.950 . S
H98 C118 0.950 . S
H99 C119 0.950 . S
H100 C121 0.950 . S
H101 C124 0.950 . S
H102 C125 0.950 . S
H103 C127 0.951 . S
H104 C128 0.949 . S
H105 C130 0.949 . S
H106 C131 0.950 . S
H107 C133 0.950 . S
H108 C134 0.950 . S
H109 C136 0.950 . S
H110 C139 0.950 . S
H111 C140 0.950 . S
H112 C142 0.951 . S
H113 C143 0.949 . S
C114 C115 1.376 . S
C114 C119 1.386 . S
C114 C120 1.483 . S
C115 H96 0.949 . S
C115 C114 1.376 . S
C115 C116 1.397 . S
C116 H97 0.950 . S
C116 C115 1.397 . S
C116 C117 1.391 . S
C117 C116 1.391 . S
C117 C118 1.405 . S
C118 H98 0.950 . S
C118 C117 1.405 . S
C118 C119 1.367 . S
C119 H99 0.950 . S
C119 C114 1.386 . S
C119 C118 1.367 . S
C120 C114 1.483 . S
C120 C121 1.382 . S
C120 C122 1.403 . S
C121 H100 0.950 . S
C121 C120 1.382 . S
C121 C137 1.411 . S
C122 C120 1.403 . S
C122 C123 1.489 . S
C122 C136 1.411 . S
C123 C122 1.489 . S
C123 C124 1.383 . S
C123 C128 1.382 . S
C124 H101 0.950 . S
C124 C123 1.383 . S
C124 C125 1.395 . S
C125 H102 0.950 . S
C125 C124 1.395 . S
C125 C126 1.288 . S
C126 C125 1.288 . S
C126 C127 1.392 . S
C127 H103 0.951 . S
C127 C126 1.392 . S
C127 C128 1.392 . S
C128 H104 0.949 . S
C128 C123 1.382 . S
C128 C127 1.392 . S
C129 C130 1.376 . S
C129 C134 1.386 . S
C129 C135 1.483 . S
C130 H105 0.949 . S
C130 C129 1.376 . S
C130 C131 1.397 . S
C131 H106 0.950 . S
C131 C130 1.397 . S
C131 C132 1.391 . S
C132 C131 1.391 . S
C132 C133 1.405 . S
C133 H107 0.950 . S
C133 C132 1.405 . S
C133 C134 1.367 . S
C134 H108 0.950 . S
C134 C129 1.386 . S
C134 C133 1.367 . S
C135 C129 1.483 . S
C135 C136 1.382 . S
C135 C137 1.403 . S
C136 H109 0.950 . S
C136 C122 1.411 . S
C136 C135 1.382 . S
C137 C121 1.411 . S
C137 C135 1.403 . S
C137 C138 1.489 . S
C138 C137 1.489 . S
C138 C139 1.383 . S
C138 C143 1.382 . S
C139 H110 0.950 . S
C139 C138 1.383 . S
C139 C140 1.395 . S
C140 H111 0.950 . S
C140 C139 1.395 . S
C140 C141 1.288 . S
C141 C140 1.288 . S
C141 C142 1.392 . S
C142 H112 0.951 . S
C142 C141 1.392 . S
C142 C143 1.392 . S
C143 H113 0.949 . S
C143 C138 1.382 . S
C143 C142 1.392 . S
H144 C163 0.949 . S
H145 C164 0.950 . S
H146 C166 0.950 . S
H147 C167 0.950 . S
H148 C169 0.950 . S
H149 C172 0.950 . S
H150 C173 0.950 . S
H151 C175 0.951 . S
H152 C176 0.949 . S
H153 C178 0.949 . S
H154 C179 0.950 . S
H155 C181 0.950 . S
H156 C182 0.950 . S
H157 C184 0.950 . S
H158 C187 0.950 . S
H159 C188 0.950 . S
H160 C190 0.951 . S
H161 C191 0.949 . S
C162 C163 1.376 . S
C162 C167 1.386 . S
C162 C168 1.483 . S
C163 H144 0.949 . S
C163 C162 1.376 . S
C163 C164 1.397 . S
C164 H145 0.950 . S
C164 C163 1.397 . S
C164 C165 1.391 . S
C165 C164 1.391 . S
C165 C166 1.405 . S
C166 H146 0.950 . S
C166 C165 1.405 . S
C166 C167 1.367 . S
C167 H147 0.950 . S
C167 C162 1.386 . S
C167 C166 1.367 . S
C168 C162 1.483 . S
C168 C169 1.382 . S
C168 C170 1.403 . S
C169 H148 0.950 . S
C169 C168 1.382 . S
C169 C185 1.411 . S
C170 C168 1.403 . S
C170 C171 1.489 . S
C170 C184 1.411 . S
C171 C170 1.489 . S
C171 C172 1.383 . S
C171 C176 1.382 . S
C172 H149 0.950 . S
C172 C171 1.383 . S
C172 C173 1.395 . S
C173 H150 0.950 . S
C173 C172 1.395 . S
C173 C174 1.288 . S
C174 C173 1.288 . S
C174 C175 1.392 . S
C175 H151 0.951 . S
C175 C174 1.392 . S
C175 C176 1.392 . S
C176 H152 0.949 . S
C176 C171 1.382 . S
C176 C175 1.392 . S
C177 C178 1.376 . S
C177 C182 1.386 . S
C177 C183 1.483 . S
C178 H153 0.949 . S
C178 C177 1.376 . S
C178 C179 1.397 . S
C179 H154 0.950 . S
C179 C178 1.397 . S
C179 C180 1.391 . S
C180 C179 1.391 . S
C180 C181 1.405 . S
C181 H155 0.950 . S
C181 C180 1.405 . S
C181 C182 1.367 . S
C182 H156 0.950 . S
C182 C177 1.386 . S
C182 C181 1.367 . S
C183 C177 1.483 . S
C183 C184 1.382 . S
C183 C185 1.403 . S
C184 H157 0.950 . S
C184 C170 1.411 . S
C184 C183 1.382 . S
C185 C169 1.411 . S
C185 C183 1.403 . S
C185 C186 1.489 . S
C186 C185 1.489 . S
C186 C187 1.383 . S
C186 C191 1.382 . S
C187 H158 0.950 . S
C187 C186 1.383 . S
C187 C188 1.395 . S
C188 H159 0.950 . S
C188 C187 1.395 . S
C188 C189 1.288 . S
C189 C188 1.288 . S
C189 C190 1.392 . S
C190 H160 0.951 . S
C190 C189 1.392 . S
C190 C191 1.392 . S
C191 H161 0.949 . S
C191 C186 1.382 . S
C191 C190 1.392 . S
H192 C211 0.949 . S
H193 C212 0.950 . S
H194 C214 0.950 . S
H195 C215 0.950 . S
H196 C217 0.950 . S
H197 C220 0.950 . S
H198 C221 0.950 . S
H199 C223 0.951 . S
H200 C224 0.949 . S
H201 C226 0.949 . S
H202 C227 0.950 . S
H203 C229 0.950 . S
H204 C230 0.950 . S
H205 C232 0.950 . S
H206 C235 0.950 . S
H207 C236 0.950 . S
H208 C238 0.951 . S
H209 C239 0.949 . S
C210 C211 1.376 . S
C210 C215 1.386 . S
C210 C216 1.483 . S
C211 H192 0.949 . S
C211 C210 1.376 . S
C211 C212 1.397 . S
C212 H193 0.950 . S
C212 C211 1.397 . S
C212 C213 1.391 . S
C213 C212 1.391 . S
C213 C214 1.405 . S
C214 H194 0.950 . S
C214 C213 1.405 . S
C214 C215 1.367 . S
C215 H195 0.950 . S
C215 C210 1.386 . S
C215 C214 1.367 . S
C216 C210 1.483 . S
C216 C217 1.382 . S
C216 C218 1.403 . S
C217 H196 0.950 . S
C217 C216 1.382 . S
C217 C233 1.411 . S
C218 C216 1.403 . S
C218 C219 1.489 . S
C218 C232 1.411 . S
C219 C218 1.489 . S
C219 C220 1.383 . S
C219 C224 1.382 . S
C220 H197 0.950 . S
C220 C219 1.383 . S
C220 C221 1.395 . S
C221 H198 0.950 . S
C221 C220 1.395 . S
C221 C222 1.288 . S
C222 C221 1.288 . S
C222 C223 1.392 . S
C223 H199 0.951 . S
C223 C222 1.392 . S
C223 C224 1.392 . S
C224 H200 0.949 . S
C224 C219 1.382 . S
C224 C223 1.392 . S
C225 C226 1.376 . S
C225 C230 1.386 . S
C225 C231 1.483 . S
C226 H201 0.949 . S
C226 C225 1.376 . S
C226 C227 1.397 . S
C227 H202 0.950 . S
C227 C226 1.397 . S
C227 C228 1.391 . S
C228 C227 1.391 . S
C228 C229 1.405 . S
C229 H203 0.950 . S
C229 C228 1.405 . S
C229 C230 1.367 . S
C230 H204 0.950 . S
C230 C225 1.386 . S
C230 C229 1.367 . S
C231 C225 1.483 . S
C231 C232 1.382 . S
C231 C233 1.403 . S
C232 H205 0.950 . S
C232 C218 1.411 . S
C232 C231 1.382 . S
C233 C217 1.411 . S
C233 C231 1.403 . S
C233 C234 1.489 . S
C234 C233 1.489 . S
C234 C235 1.383 . S
C234 C239 1.382 . S
C235 H206 0.950 . S
C235 C234 1.383 . S
C235 C236 1.395 . S
C236 H207 0.950 . S
C236 C235 1.395 . S
C236 C237 1.288 . S
C237 C236 1.288 . S
C237 C238 1.392 . S
C238 H208 0.951 . S
C238 C237 1.392 . S
C238 C239 1.392 . S
C239 H209 0.949 . S
C239 C234 1.382 . S
C239 C238 1.392 . S
H240 C259 0.949 . S
H241 C260 0.950 . S
H242 C262 0.950 . S
H243 C263 0.950 . S
H244 C265 0.950 . S
H245 C268 0.950 . S
H246 C269 0.950 . S
H247 C271 0.951 . S
H248 C272 0.949 . S
H249 C274 0.949 . S
H250 C275 0.950 . S
H251 C277 0.950 . S
H252 C278 0.950 . S
H253 C280 0.950 . S
H254 C283 0.950 . S
H255 C284 0.950 . S
H256 C286 0.951 . S
H257 C287 0.949 . S
C258 C259 1.376 . S
C258 C263 1.386 . S
C258 C264 1.483 . S
C259 H240 0.949 . S
C259 C258 1.376 . S
C259 C260 1.397 . S
C260 H241 0.950 . S
C260 C259 1.397 . S
C260 C261 1.391 . S
C261 C260 1.391 . S
C261 C262 1.405 . S
C262 H242 0.950 . S
C262 C261 1.405 . S
C262 C263 1.367 . S
C263 H243 0.950 . S
C263 C258 1.386 . S
C263 C262 1.367 . S
C264 C258 1.483 . S
C264 C265 1.382 . S
C264 C266 1.403 . S
C265 H244 0.950 . S
C265 C264 1.382 . S
C265 C281 1.411 . S
C266 C264 1.403 . S
C266 C267 1.489 . S
C266 C280 1.411 . S
C267 C266 1.489 . S
C267 C268 1.383 . S
C267 C272 1.382 . S
C268 H245 0.950 . S
C268 C267 1.383 . S
C268 C269 1.395 . S
C269 H246 0.950 . S
C269 C268 1.395 . S
C269 C270 1.288 . S
C270 C269 1.288 . S
C270 C271 1.392 . S
C271 H247 0.951 . S
C271 C270 1.392 . S
C271 C272 1.392 . S
C272 H248 0.949 . S
C272 C267 1.382 . S
C272 C271 1.392 . S
C273 C274 1.376 . S
C273 C278 1.386 . S
C273 C279 1.483 . S
C274 H249 0.949 . S
C274 C273 1.376 . S
C274 C275 1.397 . S
C275 H250 0.950 . S
C275 C274 1.397 . S
C275 C276 1.391 . S
C276 C275 1.391 . S
C276 C277 1.405 . S
C277 H251 0.950 . S
C277 C276 1.405 . S
C277 C278 1.367 . S
C278 H252 0.950 . S
C278 C273 1.386 . S
C278 C277 1.367 . S
C279 C273 1.483 . S
C279 C280 1.382 . S
C279 C281 1.403 . S
C280 H253 0.950 . S
C280 C266 1.411 . S
C280 C279 1.382 . S
C281 C265 1.411 . S
C281 C279 1.403 . S
C281 C282 1.489 . S
C282 C281 1.489 . S
C282 C283 1.383 . S
C282 C287 1.382 . S
C283 H254 0.950 . S
C283 C282 1.383 . S
C283 C284 1.395 . S
C284 H255 0.950 . S
C284 C283 1.395 . S
C284 C285 1.288 . S
C285 C284 1.288 . S
C285 C286 1.392 . S
C286 H256 0.951 . S
C286 C285 1.392 . S
C286 C287 1.392 . S
C287 H257 0.949 . S
C287 C282 1.382 . S
C287 C286 1.392 . S
H288 C307 0.949 . S
H289 C308 0.950 . S
H290 C310 0.950 . S
H291 C311 0.950 . S
H292 C313 0.950 . S
H293 C316 0.950 . S
H294 C317 0.950 . S
H295 C319 0.951 . S
H296 C320 0.949 . S
H297 C322 0.949 . S
H298 C323 0.950 . S
H299 C325 0.950 . S
H300 C326 0.950 . S
H301 C328 0.950 . S
H302 C331 0.950 . S
H303 C332 0.950 . S
H304 C334 0.951 . S
H305 C335 0.949 . S
C306 C307 1.376 . S
C306 C311 1.386 . S
C306 C312 1.483 . S
C307 H288 0.949 . S
C307 C306 1.376 . S
C307 C308 1.397 . S
C308 H289 0.950 . S
C308 C307 1.397 . S
C308 C309 1.391 . S
C309 C308 1.391 . S
C309 C310 1.405 . S
C310 H290 0.950 . S
C310 C309 1.405 . S
C310 C311 1.367 . S
C311 H291 0.950 . S
C311 C306 1.386 . S
C311 C310 1.367 . S
C312 C306 1.483 . S
C312 C313 1.382 . S
C312 C314 1.403 . S
C313 H292 0.950 . S
C313 C312 1.382 . S
C313 C329 1.411 . S
C314 C312 1.403 . S
C314 C315 1.489 . S
C314 C328 1.411 . S
C315 C314 1.489 . S
C315 C316 1.383 . S
C315 C320 1.382 . S
C316 H293 0.950 . S
C316 C315 1.383 . S
C316 C317 1.395 . S
C317 H294 0.950 . S
C317 C316 1.395 . S
C317 C318 1.288 . S
C318 C317 1.288 . S
C318 C319 1.392 . S
C319 H295 0.951 . S
C319 C318 1.392 . S
C319 C320 1.392 . S
C320 H296 0.949 . S
C320 C315 1.382 . S
C320 C319 1.392 . S
C321 C322 1.376 . S
C321 C326 1.386 . S
C321 C327 1.483 . S
C322 H297 0.949 . S
C322 C321 1.376 . S
C322 C323 1.397 . S
C323 H298 0.950 . S
C323 C322 1.397 . S
C323 C324 1.391 . S
C324 C323 1.391 . S
C324 C325 1.405 . S
C325 H299 0.950 . S
C325 C324 1.405 . S
C325 C326 1.367 . S
C326 H300 0.950 . S
C326 C321 1.386 . S
C326 C325 1.367 . S
C327 C321 1.483 . S
C327 C328 1.382 . S
C327 C329 1.403 . S
C328 H301 0.950 . S
C328 C314 1.411 . S
C328 C327 1.382 . S
C329 C313 1.411 . S
C329 C327 1.403 . S
C329 C330 1.489 . S
C330 C329 1.489 . S
C330 C331 1.383 . S
C330 C335 1.382 . S
C331 H302 0.950 . S
C331 C330 1.383 . S
C331 C332 1.395 . S
C332 H303 0.950 . S
C332 C331 1.395 . S
C332 C333 1.288 . S
C333 C332 1.288 . S
C333 C334 1.392 . S
C334 H304 0.951 . S
C334 C333 1.392 . S
C334 C335 1.392 . S
C335 H305 0.949 . S
C335 C330 1.382 . S
C335 C334 1.392 . S
H336 C355 0.949 . S
H337 C356 0.950 . S
H338 C358 0.950 . S
H339 C359 0.950 . S
H340 C361 0.950 . S
H341 C364 0.950 . S
H342 C365 0.950 . S
H343 C367 0.951 . S
H344 C368 0.949 . S
H345 C370 0.949 . S
H346 C371 0.950 . S
H347 C373 0.950 . S
H348 C374 0.950 . S
H349 C376 0.950 . S
H350 C379 0.950 . S
H351 C380 0.950 . S
H352 C382 0.951 . S
H353 C383 0.949 . S
C354 C355 1.376 . S
C354 C359 1.386 . S
C354 C360 1.483 . S
C355 H336 0.949 . S
C355 C354 1.376 . S
C355 C356 1.397 . S
C356 H337 0.950 . S
C356 C355 1.397 . S
C356 C357 1.391 . S
C357 C356 1.391 . S
C357 C358 1.405 . S
C358 H338 0.950 . S
C358 C357 1.405 . S
C358 C359 1.367 . S
C359 H339 0.950 . S
C359 C354 1.386 . S
C359 C358 1.367 . S
C360 C354 1.483 . S
C360 C361 1.382 . S
C360 C362 1.403 . S
C361 H340 0.950 . S
C361 C360 1.382 . S
C361 C377 1.411 . S
C362 C360 1.403 . S
C362 C363 1.489 . S
C362 C376 1.411 . S
C363 C362 1.489 . S
C363 C364 1.383 . S
C363 C368 1.382 . S
C364 H341 0.950 . S
C364 C363 1.383 . S
C364 C365 1.395 . S
C365 H342 0.950 . S
C365 C364 1.395 . S
C365 C366 1.288 . S
C366 C365 1.288 . S
C366 C367 1.392 . S
C367 H343 0.951 . S
C367 C366 1.392 . S
C367 C368 1.392 . S
C368 H344 0.949 . S
C368 C363 1.382 . S
C368 C367 1.392 . S
C369 C370 1.376 . S
C369 C374 1.386 . S
C369 C375 1.483 . S
C370 H345 0.949 . S
C370 C369 1.376 . S
C370 C371 1.397 . S
C371 H346 0.950 . S
C371 C370 1.397 . S
C371 C372 1.391 . S
C372 C371 1.391 . S
C372 C373 1.405 . S
C373 H347 0.950 . S
C373 C372 1.405 . S
C373 C374 1.367 . S
C374 H348 0.950 . S
C374 C369 1.386 . S
C374 C373 1.367 . S
C375 C369 1.483 . S
C375 C376 1.382 . S
C375 C377 1.403 . S
C376 H349 0.950 . S
C376 C362 1.411 . S
C376 C375 1.382 . S
C377 C361 1.411 . S
C377 C375 1.403 . S
C377 C378 1.489 . S
C378 C377 1.489 . S
C378 C379 1.383 . S
C378 C383 1.382 . S
C379 H350 0.950 . S
C379 C378 1.383 . S
C379 C380 1.395 . S
C380 H351 0.950 . S
C380 C379 1.395 . S
C380 C381 1.288 . S
C381 C380 1.288 . S
C381 C382 1.392 . S
C382 H352 0.951 . S
C382 C381 1.392 . S
C382 C383 1.392 . S
C383 H353 0.949 . S
C383 C378 1.382 . S
C383 C382 1.392 . S
C384 O386 1.247 . S
C384 O388 1.258 . S
C385 O392 1.247 . S
C385 O393 1.258 . S
O386 C384 1.247 . S
O386 Zn387 2.025 . S
Zn387 O386 2.025 . S
Zn387 O391 2.038 1_655 S
Zn387 O393 2.038 1_655 S
Zn387 O394 2.025 . S
O388 C384 1.258 . S
O388 Zn389 2.025 1_655 S
Zn389 O388 2.025 1_455 S
Zn389 O390 2.038 . S
Zn389 O392 2.038 . S
Zn389 O395 2.025 1_455 S
O390 Zn389 2.038 . S
O390 C396 1.247 . S
O391 Zn387 2.038 1_455 S
O391 C396 1.258 . S
O392 C385 1.247 . S
O392 Zn389 2.038 . S
O393 C385 1.258 . S
O393 Zn387 2.038 1_455 S
O394 Zn387 2.025 . S
O394 C397 1.247 . S
O395 Zn389 2.025 1_655 S
O395 C397 1.258 . S
C396 O390 1.247 . S
C396 O391 1.258 . S
C397 O394 1.247 . S
C397 O395 1.258 . S
C398 O400 1.247 . S
C398 O402 1.258 . S
C399 O406 1.247 . S
C399 O407 1.258 . S
O400 C398 1.247 . S
O400 Zn401 2.038 . S
Zn401 O400 2.038 . S
Zn401 O405 2.025 1_545 S
Zn401 O407 2.025 1_545 S
Zn401 O408 2.038 . S
O402 C398 1.258 . S
O402 Zn403 2.039 1_545 S
Zn403 O402 2.039 1_565 S
Zn403 O404 2.024 . S
Zn403 O406 2.024 . S
Zn403 O409 2.039 1_565 S
O404 Zn403 2.024 . S
O404 C410 1.247 . S
O405 Zn401 2.025 1_565 S
O405 C410 1.258 . S
O406 C399 1.247 . S
O406 Zn403 2.024 . S
O407 C399 1.258 . S
O407 Zn401 2.025 1_565 S
O408 Zn401 2.038 . S
O408 C411 1.247 . S
O409 Zn403 2.039 1_545 S
O409 C411 1.258 . S
C410 O404 1.247 . S
C410 O405 1.258 . S
C411 O408 1.247 . S
C411 O409 1.258 . S
C412 O414 1.247 . S
C412 O416 1.258 . S
C413 O420 1.247 . S
C413 O421 1.258 . S
O414 C412 1.247 . S
O414 Zn415 2.024 . S
Zn415 O414 2.024 . S
Zn415 O419 2.039 1_655 S
Zn415 O421 2.039 1_655 S
Zn415 O422 2.024 . S
O416 C412 1.258 . S
O416 Zn417 2.024 1_655 S
Zn417 O416 2.024 1_455 S
Zn417 O418 2.039 . S
Zn417 O420 2.039 . S
Zn417 O423 2.024 1_455 S
O418 Zn417 2.039 . S
O418 C424 1.247 . S
O419 Zn415 2.039 1_455 S
O419 C424 1.258 . S
O420 C413 1.247 . S
O420 Zn417 2.039 . S
O421 C413 1.258 . S
O421 Zn415 2.039 1_455 S
O422 Zn415 2.024 . S
O422 C425 1.247 . S
O423 Zn417 2.024 1_655 S
O423 C425 1.258 . S
C424 O418 1.247 . S
C424 O419 1.258 . S
C425 O422 1.247 . S
C425 O423 1.258 . S
C426 O428 1.247 . S
C426 O430 1.258 . S
C427 O434 1.247 . S
C427 O435 1.258 . S
O428 C426 1.247 . S
O428 Zn429 2.039 . S
Zn429 O428 2.039 . S
Zn429 O433 2.024 1_545 S
Zn429 O435 2.024 1_545 S
Zn429 O436 2.039 . S
O430 C426 1.258 . S
O430 Zn431 2.031 . S
Zn431 O430 2.031 . S
Zn431 O432 2.032 1_545 S
Zn431 O434 2.032 1_545 S
Zn431 O437 2.031 . S
O432 Zn431 2.032 1_565 S
O432 C438 1.247 . S
O433 Zn429 2.024 1_565 S
O433 C438 1.258 . S
O434 C427 1.247 . S
O434 Zn431 2.032 1_565 S
O435 C427 1.258 . S
O435 Zn429 2.024 1_565 S
O436 Zn429 2.039 . S
O436 C439 1.247 . S
O437 Zn431 2.031 . S
O437 C439 1.258 . S
C438 O432 1.247 . S
C438 O433 1.258 . S
C439 O436 1.247 . S
C439 O437 1.258 . S
C440 O442 1.247 . S
C440 O444 1.258 . S
C441 O448 1.247 . S
C441 O449 1.258 . S
O442 C440 1.247 . S
O442 Zn443 2.028 . S
Zn443 O442 2.028 . S
Zn443 O447 2.035 . S
Zn443 O449 2.035 1_554 S
Zn443 O450 2.028 1_554 S
O444 C440 1.258 . S
O444 Zn445 2.035 . S
Zn445 O444 2.035 . S
Zn445 O446 2.028 . S
Zn445 O448 2.028 1_554 S
Zn445 O451 2.035 1_554 S
O446 Zn445 2.028 . S
O446 C452 1.247 . S
O447 Zn443 2.035 . S
O447 C452 1.258 . S
O448 C441 1.247 . S
O448 Zn445 2.028 1_556 S
O449 C441 1.258 . S
O449 Zn443 2.035 1_556 S
O450 Zn443 2.028 1_556 S
O450 C453 1.247 . S
O451 Zn445 2.035 1_556 S
O451 C453 1.258 . S
C452 O446 1.247 . S
C452 O447 1.258 . S
C453 O450 1.247 . S
C453 O451 1.258 . S
C454 O456 1.247 . S
C454 O458 1.258 . S
C455 O462 1.247 . S
C455 O463 1.258 . S
O456 C454 1.247 . S
O456 Zn457 2.028 . S
Zn457 O456 2.028 . S
Zn457 O461 2.035 . S
Zn457 O463 2.035 1_554 S
Zn457 O464 2.028 1_554 S
O458 C454 1.258 . S
O458 Zn459 2.035 . S
Zn459 O458 2.035 . S
Zn459 O460 2.028 . S
Zn459 O462 2.028 1_554 S
Zn459 O465 2.035 1_554 S
O460 Zn459 2.028 . S
O460 C466 1.247 . S
O461 Zn457 2.035 . S
O461 C466 1.258 . S
O462 C455 1.247 . S
O462 Zn459 2.028 1_556 S
O463 C455 1.258 . S
O463 Zn457 2.035 1_556 S
O464 Zn457 2.028 1_556 S
O464 C467 1.247 . S
O465 Zn459 2.035 1_556 S
O465 C467 1.258 . S
C466 O460 1.247 . S
C466 O461 1.258 . S
C467 O464 1.247 . S
C467 O465 1.258 . S
C468 O470 1.247 . S
C468 O472 1.258 . S
C469 O476 1.247 . S
C469 O477 1.258 . S
O470 C468 1.247 . S
O470 Zn471 2.028 1_556 S
Zn471 O470 2.028 1_554 S
Zn471 O475 2.035 1_554 S
Zn471 O477 2.035 . S
Zn471 O478 2.028 . S
O472 C468 1.258 . S
O472 Zn473 2.035 1_556 S
Zn473 O472 2.035 1_554 S
Zn473 O474 2.028 1_554 S
Zn473 O476 2.028 . S
Zn473 O479 2.035 . S
O474 Zn473 2.028 1_556 S
O474 C480 1.247 . S
O475 Zn471 2.035 1_556 S
O475 C480 1.258 . S
O476 C469 1.247 . S
O476 Zn473 2.028 . S
O477 C469 1.258 . S
O477 Zn471 2.035 . S
O478 Zn471 2.028 . S
O478 C481 1.247 . S
O479 Zn473 2.035 . S
O479 C481 1.258 . S
C480 O474 1.247 . S
C480 O475 1.258 . S
C481 O478 1.247 . S
C481 O479 1.258 . S
C482 O484 1.247 . S
C482 O486 1.258 . S
C483 O490 1.247 . S
C483 O491 1.258 . S
O484 C482 1.247 . S
O484 Zn485 2.028 . S
Zn485 O484 2.028 . S
Zn485 O489 2.035 . S
Zn485 O491 2.035 1_554 S
Zn485 O492 2.028 1_554 S
O486 C482 1.258 . S
O486 Zn487 2.035 . S
Zn487 O486 2.035 . S
Zn487 O488 2.028 . S
Zn487 O490 2.028 1_554 S
Zn487 O493 2.035 1_554 S
O488 Zn487 2.028 . S
O488 C494 1.247 . S
O489 Zn485 2.035 . S
O489 C494 1.258 . S
O490 C483 1.247 . S
O490 Zn487 2.028 1_556 S
O491 C483 1.258 . S
O491 Zn485 2.035 1_556 S
O492 Zn485 2.028 1_556 S
O492 C495 1.247 . S
O493 Zn487 2.035 1_556 S
O493 C495 1.258 . S
C494 O488 1.247 . S
C494 O489 1.258 . S
C495 O492 1.247 . S
C495 O493 1.258 . S
H496 C504 0.950 . S
H497 C509 0.950 . S
H498 C506 0.950 . S
H499 C508 0.950 . S
H500 C510 0.950 . S
H501 C512 0.950 . S
H502 C514 0.950 . S
H503 C515 0.950 . S
C504 H496 0.950 . S
C504 C505 1.386 . S
C504 C506 1.391 . S
C505 C504 1.386 . S
C505 C509 1.393 . S
C506 H498 0.950 . S
C506 C504 1.391 . S
C506 C507 1.400 . S
C507 C506 1.400 . S
C507 C508 1.398 . S
C507 C513 1.491 . S
C508 H499 0.950 . S
C508 C507 1.398 . S
C508 C509 1.391 . S
C509 H497 0.950 . S
C509 C505 1.393 . S
C509 C508 1.391 . S
C510 H500 0.950 . S
C510 C511 1.386 . S
C510 C512 1.391 . S
C511 C510 1.386 . S
C511 C515 1.393 . S
C512 H501 0.950 . S
C512 C510 1.391 . S
C512 C513 1.400 . S
C513 C507 1.491 . S
C513 C512 1.400 . S
C513 C514 1.398 . S
C514 H502 0.950 . S
C514 C513 1.398 . S
C514 C515 1.391 . S
C515 H503 0.950 . S
C515 C511 1.393 . S
C515 C514 1.391 . S
H516 C524 0.950 . S
H517 C529 0.950 . S
H518 C526 0.950 . S
H519 C528 0.950 . S
H520 C530 0.950 . S
H521 C532 0.950 . S
H522 C534 0.950 . S
H523 C535 0.950 . S
C524 H516 0.950 . S
C524 C525 1.386 . S
C524 C526 1.391 . S
C525 C524 1.386 . S
C525 C529 1.393 . S
C526 H518 0.950 . S
C526 C524 1.391 . S
C526 C527 1.400 . S
C527 C526 1.400 . S
C527 C528 1.398 . S
C527 C533 1.491 . S
C528 H519 0.950 . S
C528 C527 1.398 . S
C528 C529 1.391 . S
C529 H517 0.950 . S
C529 C525 1.393 . S
C529 C528 1.391 . S
C530 H520 0.950 . S
C530 C531 1.386 . S
C530 C532 1.391 . S
C531 C530 1.386 . S
C531 C535 1.393 . S
C532 H521 0.950 . S
C532 C530 1.391 . S
C532 C533 1.400 . S
C533 C527 1.491 . S
C533 C532 1.400 . S
C533 C534 1.398 . S
C534 H522 0.950 . S
C534 C533 1.398 . S
C534 C535 1.391 . S
C535 H523 0.950 . S
C535 C531 1.393 . S
C535 C534 1.391 . S
H536 C544 0.950 . S
H537 C549 0.950 . S
H538 C546 0.950 . S
H539 C548 0.950 . S
H540 C550 0.950 . S
H541 C552 0.950 . S
H542 C554 0.950 . S
H543 C555 0.950 . S
C544 H536 0.950 . S
C544 C545 1.386 . S
C544 C546 1.391 . S
C545 C544 1.386 . S
C545 C549 1.393 . S
C546 H538 0.950 . S
C546 C544 1.391 . S
C546 C547 1.400 . S
C547 C546 1.400 . S
C547 C548 1.398 . S
C547 C553 1.491 . S
C548 H539 0.950 . S
C548 C547 1.398 . S
C548 C549 1.391 . S
C549 H537 0.950 . S
C549 C545 1.393 . S
C549 C548 1.391 . S
C550 H540 0.950 . S
C550 C551 1.386 . S
C550 C552 1.391 . S
C551 C550 1.386 . S
C551 C555 1.393 . S
C552 H541 0.950 . S
C552 C550 1.391 . S
C552 C553 1.400 . S
C553 C547 1.491 . S
C553 C552 1.400 . S
C553 C554 1.398 . S
C554 H542 0.950 . S
C554 C553 1.398 . S
C554 C555 1.391 . S
C555 H543 0.950 . S
C555 C551 1.393 . S
C555 C554 1.391 . S
H556 C564 0.950 . S
H557 C569 0.950 . S
H558 C566 0.950 . S
H559 C568 0.950 . S
H560 C570 0.950 . S
H561 C572 0.950 . S
H562 C574 0.950 . S
H563 C575 0.950 . S
C564 H556 0.950 . S
C564 C565 1.386 . S
C564 C566 1.391 . S
C565 C564 1.386 . S
C565 C569 1.393 . S
C566 H558 0.950 . S
C566 C564 1.391 . S
C566 C567 1.400 . S
C567 C566 1.400 . S
C567 C568 1.398 . S
C567 C573 1.491 . S
C568 H559 0.950 . S
C568 C567 1.398 . S
C568 C569 1.391 . S
C569 H557 0.950 . S
C569 C565 1.393 . S
C569 C568 1.391 . S
C570 H560 0.950 . S
C570 C571 1.386 . S
C570 C572 1.391 . S
C571 C570 1.386 . S
C571 C575 1.393 . S
C572 H561 0.950 . S
C572 C570 1.391 . S
C572 C573 1.400 . S
C573 C567 1.491 . S
C573 C572 1.400 . S
C573 C574 1.398 . S
C574 H562 0.950 . S
C574 C573 1.398 . S
C574 C575 1.391 . S
C575 H563 0.950 . S
C575 C571 1.393 . S
C575 C574 1.391 . S
H576 C584 0.950 . S
H577 C589 0.950 . S
H578 C586 0.950 . S
H579 C588 0.950 . S
H580 C590 0.950 . S
H581 C592 0.950 . S
H582 C594 0.950 . S
H583 C595 0.950 . S
C584 H576 0.950 . S
C584 C585 1.386 . S
C584 C586 1.391 . S
C585 C584 1.386 . S
C585 C589 1.393 . S
C586 H578 0.950 . S
C586 C584 1.391 . S
C586 C587 1.400 . S
C587 C586 1.400 . S
C587 C588 1.398 . S
C587 C593 1.491 . S
C588 H579 0.950 . S
C588 C587 1.398 . S
C588 C589 1.391 . S
C589 H577 0.950 . S
C589 C585 1.393 . S
C589 C588 1.391 . S
C590 H580 0.950 . S
C590 C591 1.386 . S
C590 C592 1.391 . S
C591 C590 1.386 . S
C591 C595 1.393 . S
C592 H581 0.950 . S
C592 C590 1.391 . S
C592 C593 1.400 . S
C593 C587 1.491 . S
C593 C592 1.400 . S
C593 C594 1.398 . S
C594 H582 0.950 . S
C594 C593 1.398 . S
C594 C595 1.391 . S
C595 H583 0.950 . S
C595 C591 1.393 . S
C595 C594 1.391 . S
H596 C604 0.950 . S
H597 C609 0.950 . S
H598 C606 0.950 . S
H599 C608 0.950 . S
H600 C610 0.950 . S
H601 C612 0.950 . S
H602 C614 0.950 . S
H603 C615 0.950 . S
C604 H596 0.950 . S
C604 C605 1.386 . S
C604 C606 1.391 . S
C605 C604 1.386 . S
C605 C609 1.393 . S
C606 H598 0.950 . S
C606 C604 1.391 . S
C606 C607 1.400 . S
C607 C606 1.400 . S
C607 C608 1.398 . S
C607 C613 1.491 . S
C608 H599 0.950 . S
C608 C607 1.398 . S
C608 C609 1.391 . S
C609 H597 0.950 . S
C609 C605 1.393 . S
C609 C608 1.391 . S
C610 H600 0.950 . S
C610 C611 1.386 . S
C610 C612 1.391 . S
C611 C610 1.386 . S
C611 C615 1.393 . S
C612 H601 0.950 . S
C612 C610 1.391 . S
C612 C613 1.400 . S
C613 C607 1.491 . S
C613 C612 1.400 . S
C613 C614 1.398 . S
C614 H602 0.950 . S
C614 C613 1.398 . S
C614 C615 1.391 . S
C615 H603 0.950 . S
C615 C611 1.393 . S
C615 C614 1.391 . S
H616 C624 0.950 . S
H617 C629 0.950 . S
H618 C626 0.950 . S
H619 C628 0.950 . S
H620 C630 0.950 . S
H621 C632 0.950 . S
H622 C634 0.950 . S
H623 C635 0.950 . S
C624 H616 0.950 . S
C624 C625 1.386 . S
C624 C626 1.391 . S
C625 C624 1.386 . S
C625 C629 1.393 . S
C626 H618 0.950 . S
C626 C624 1.391 . S
C626 C627 1.400 . S
C627 C626 1.400 . S
C627 C628 1.398 . S
C627 C633 1.491 . S
C628 H619 0.950 . S
C628 C627 1.398 . S
C628 C629 1.391 . S
C629 H617 0.950 . S
C629 C625 1.393 . S
C629 C628 1.391 . S
C630 H620 0.950 . S
C630 C631 1.386 . S
C630 C632 1.391 . S
C631 C630 1.386 . S
C631 C635 1.393 . S
C632 H621 0.950 . S
C632 C630 1.391 . S
C632 C633 1.400 . S
C633 C627 1.491 . S
C633 C632 1.400 . S
C633 C634 1.398 . S
C634 H622 0.950 . S
C634 C633 1.398 . S
C634 C635 1.391 . S
C635 H623 0.950 . S
C635 C631 1.393 . S
C635 C634 1.391 . S
H636 C644 0.950 . S
H637 C649 0.950 . S
H638 C646 0.950 . S
H639 C648 0.950 . S
H640 C650 0.950 . S
H641 C652 0.950 . S
H642 C654 0.950 . S
H643 C655 0.950 . S
C644 H636 0.950 . S
C644 C645 1.386 . S
C644 C646 1.391 . S
C645 C644 1.386 . S
C645 C649 1.393 . S
C646 H638 0.950 . S
C646 C644 1.391 . S
C646 C647 1.400 . S
C647 C646 1.400 . S
C647 C648 1.398 . S
C647 C653 1.491 . S
C648 H639 0.950 . S
C648 C647 1.398 . S
C648 C649 1.391 . S
C649 H637 0.950 . S
C649 C645 1.393 . S
C649 C648 1.391 . S
C650 H640 0.950 . S
C650 C651 1.386 . S
C650 C652 1.391 . S
C651 C650 1.386 . S
C651 C655 1.393 . S
C652 H641 0.950 . S
C652 C650 1.391 . S
C652 C653 1.400 . S
C653 C647 1.491 . S
C653 C652 1.400 . S
C653 C654 1.398 . S
C654 H642 0.950 . S
C654 C653 1.398 . S
C654 C655 1.391 . S
C655 H643 0.950 . S
C655 C651 1.393 . S
C655 C654 1.391 . S
H656 C664 0.950 . S
H657 C669 0.950 . S
H658 C666 0.950 . S
H659 C668 0.950 . S
H660 C670 0.950 . S
H661 C672 0.950 . S
H662 C674 0.950 . S
H663 C675 0.950 . S
C664 H656 0.950 . S
C664 C665 1.386 . S
C664 C666 1.391 . S
C665 C664 1.386 . S
C665 C669 1.393 . S
C666 H658 0.950 . S
C666 C664 1.391 . S
C666 C667 1.400 . S
C667 C666 1.400 . S
C667 C668 1.398 . S
C667 C673 1.491 . S
C668 H659 0.950 . S
C668 C667 1.398 . S
C668 C669 1.391 . S
C669 H657 0.950 . S
C669 C665 1.393 . S
C669 C668 1.391 . S
C670 H660 0.950 . S
C670 C671 1.386 . S
C670 C672 1.391 . S
C671 C670 1.386 . S
C671 C675 1.393 . S
C672 H661 0.950 . S
C672 C670 1.391 . S
C672 C673 1.400 . S
C673 C667 1.491 . S
C673 C672 1.400 . S
C673 C674 1.398 . S
C674 H662 0.950 . S
C674 C673 1.398 . S
C674 C675 1.391 . S
C675 H663 0.950 . S
C675 C671 1.393 . S
C675 C674 1.391 . S
H676 C684 0.950 . S
H677 C689 0.950 . S
H678 C686 0.950 . S
H679 C688 0.950 . S
H680 C690 0.950 . S
H681 C692 0.950 . S
H682 C694 0.950 . S
H683 C695 0.950 . S
C684 H676 0.950 . S
C684 C685 1.386 . S
C684 C686 1.391 . S
C685 C684 1.386 . S
C685 C689 1.393 . S
C686 H678 0.950 . S
C686 C684 1.391 . S
C686 C687 1.400 . S
C687 C686 1.400 . S
C687 C688 1.398 . S
C687 C693 1.491 . S
C688 H679 0.950 . S
C688 C687 1.398 . S
C688 C689 1.391 . S
C689 H677 0.950 . S
C689 C685 1.393 . S
C689 C688 1.391 . S
C690 H680 0.950 . S
C690 C691 1.386 . S
C690 C692 1.391 . S
C691 C690 1.386 . S
C691 C695 1.393 . S
C692 H681 0.950 . S
C692 C690 1.391 . S
C692 C693 1.400 . S
C693 C687 1.491 . S
C693 C692 1.400 . S
C693 C694 1.398 . S
C694 H682 0.950 . S
C694 C693 1.398 . S
C694 C695 1.391 . S
C695 H683 0.950 . S
C695 C691 1.393 . S
C695 C694 1.391 . S
H696 C704 0.950 . S
H697 C709 0.950 . S
H698 C706 0.950 . S
H699 C708 0.950 . S
H700 C710 0.950 . S
H701 C712 0.950 . S
H702 C714 0.950 . S
H703 C715 0.950 . S
C704 H696 0.950 . S
C704 C705 1.386 . S
C704 C706 1.391 . S
C705 C704 1.386 . S
C705 C709 1.393 . S
C706 H698 0.950 . S
C706 C704 1.391 . S
C706 C707 1.400 . S
C707 C706 1.400 . S
C707 C708 1.398 . S
C707 C713 1.491 . S
C708 H699 0.950 . S
C708 C707 1.398 . S
C708 C709 1.391 . S
C709 H697 0.950 . S
C709 C705 1.393 . S
C709 C708 1.391 . S
C710 H700 0.950 . S
C710 C711 1.386 . S
C710 C712 1.391 . S
C711 C710 1.386 . S
C711 C715 1.393 . S
C712 H701 0.950 . S
C712 C710 1.391 . S
C712 C713 1.400 . S
C713 C707 1.491 . S
C713 C712 1.400 . S
C713 C714 1.398 . S
C714 H702 0.950 . S
C714 C713 1.398 . S
C714 C715 1.391 . S
C715 H703 0.950 . S
C715 C711 1.393 . S
C715 C714 1.391 . S
H716 C724 0.950 . S
H717 C729 0.950 . S
H718 C726 0.950 . S
H719 C728 0.950 . S
H720 C730 0.950 . S
H721 C732 0.950 . S
H722 C734 0.950 . S
H723 C735 0.950 . S
C724 H716 0.950 . S
C724 C725 1.386 . S
C724 C726 1.391 . S
C725 C724 1.386 . S
C725 C729 1.393 . S
C726 H718 0.950 . S
C726 C724 1.391 . S
C726 C727 1.400 . S
C727 C726 1.400 . S
C727 C728 1.398 . S
C727 C733 1.491 . S
C728 H719 0.950 . S
C728 C727 1.398 . S
C728 C729 1.391 . S
C729 H717 0.950 . S
C729 C725 1.393 . S
C729 C728 1.391 . S
C730 H720 0.950 . S
C730 C731 1.386 . S
C730 C732 1.391 . S
C731 C730 1.386 . S
C731 C735 1.393 . S
C732 H721 0.950 . S
C732 C730 1.391 . S
C732 C733 1.400 . S
C733 C727 1.491 . S
C733 C732 1.400 . S
C733 C734 1.398 . S
C734 H722 0.950 . S
C734 C733 1.398 . S
C734 C735 1.391 . S
C735 H723 0.950 . S
C735 C731 1.393 . S
C735 C734 1.391 . S
H736 C744 0.950 . S
H737 C749 0.950 . S
H738 C746 0.950 . S
H739 C748 0.950 . S
H740 C750 0.950 . S
H741 C752 0.950 . S
H742 C754 0.950 . S
H743 C755 0.950 . S
C744 H736 0.950 . S
C744 C745 1.386 . S
C744 C746 1.391 . S
C745 C744 1.386 . S
C745 C749 1.393 . S
C746 H738 0.950 . S
C746 C744 1.391 . S
C746 C747 1.400 . S
C747 C746 1.400 . S
C747 C748 1.398 . S
C747 C753 1.491 . S
C748 H739 0.950 . S
C748 C747 1.398 . S
C748 C749 1.391 . S
C749 H737 0.950 . S
C749 C745 1.393 . S
C749 C748 1.391 . S
C750 H740 0.950 . S
C750 C751 1.386 . S
C750 C752 1.391 . S
C751 C750 1.386 . S
C751 C755 1.393 . S
C752 H741 0.950 . S
C752 C750 1.391 . S
C752 C753 1.400 . S
C753 C747 1.491 . S
C753 C752 1.400 . S
C753 C754 1.398 . S
C754 H742 0.950 . S
C754 C753 1.398 . S
C754 C755 1.391 . S
C755 H743 0.950 . S
C755 C751 1.393 . S
C755 C754 1.391 . S
H756 C764 0.950 . S
H757 C769 0.950 . S
H758 C766 0.950 . S
H759 C768 0.950 . S
H760 C770 0.950 . S
H761 C772 0.950 . S
H762 C774 0.950 . S
H763 C775 0.950 . S
C764 H756 0.950 . S
C764 C765 1.386 . S
C764 C766 1.391 . S
C765 C764 1.386 . S
C765 C769 1.393 . S
C766 H758 0.950 . S
C766 C764 1.391 . S
C766 C767 1.400 . S
C767 C766 1.400 . S
C767 C768 1.398 . S
C767 C773 1.491 . S
C768 H759 0.950 . S
C768 C767 1.398 . S
C768 C769 1.391 . S
C769 H757 0.950 . S
C769 C765 1.393 . S
C769 C768 1.391 . S
C770 H760 0.950 . S
C770 C771 1.386 . S
C770 C772 1.391 . S
C771 C770 1.386 . S
C771 C775 1.393 . S
C772 H761 0.950 . S
C772 C770 1.391 . S
C772 C773 1.400 . S
C773 C767 1.491 . S
C773 C772 1.400 . S
C773 C774 1.398 . S
C774 H762 0.950 . S
C774 C773 1.398 . S
C774 C775 1.391 . S
C775 H763 0.950 . S
C775 C771 1.393 . S
C775 C774 1.391 . S
H776 C784 0.950 . S
H777 C789 0.950 . S
H778 C786 0.950 . S
H779 C788 0.950 . S
H780 C790 0.950 . S
H781 C792 0.950 . S
H782 C794 0.950 . S
H783 C795 0.950 . S
C784 H776 0.950 . S
C784 C785 1.386 . S
C784 C786 1.391 . S
C785 C784 1.386 . S
C785 C789 1.393 . S
C786 H778 0.950 . S
C786 C784 1.391 . S
C786 C787 1.400 . S
C787 C786 1.400 . S
C787 C788 1.398 . S
C787 C793 1.491 . S
C788 H779 0.950 . S
C788 C787 1.398 . S
C788 C789 1.391 . S
C789 H777 0.950 . S
C789 C785 1.393 . S
C789 C788 1.391 . S
C790 H780 0.950 . S
C790 C791 1.386 . S
C790 C792 1.391 . S
C791 C790 1.386 . S
C791 C795 1.393 . S
C792 H781 0.950 . S
C792 C790 1.391 . S
C792 C793 1.400 . S
C793 C787 1.491 . S
C793 C792 1.400 . S
C793 C794 1.398 . S
C794 H782 0.950 . S
C794 C793 1.398 . S
C794 C795 1.391 . S
C795 H783 0.950 . S
C795 C791 1.393 . S
C795 C794 1.391 . S
H796 C804 0.950 . S
H797 C809 0.950 . S
H798 C806 0.950 . S
H799 C808 0.950 . S
H800 C810 0.950 . S
H801 C812 0.950 . S
H802 C814 0.950 . S
H803 C815 0.950 . S
C804 H796 0.950 . S
C804 C805 1.386 . S
C804 C806 1.391 . S
C805 C804 1.386 . S
C805 C809 1.393 . S
C806 H798 0.950 . S
C806 C804 1.391 . S
C806 C807 1.400 . S
C807 C806 1.400 . S
C807 C808 1.398 . S
C807 C813 1.491 . S
C808 H799 0.950 . S
C808 C807 1.398 . S
C808 C809 1.391 . S
C809 H797 0.950 . S
C809 C805 1.393 . S
C809 C808 1.391 . S
C810 H800 0.950 . S
C810 C811 1.386 . S
C810 C812 1.391 . S
C811 C810 1.386 . S
C811 C815 1.393 . S
C812 H801 0.950 . S
C812 C810 1.391 . S
C812 C813 1.400 . S
C813 C807 1.491 . S
C813 C812 1.400 . S
C813 C814 1.398 . S
C814 H802 0.950 . S
C814 C813 1.398 . S
C814 C815 1.391 . S
C815 H803 0.950 . S
C815 C811 1.393 . S
C815 C814 1.391 . S
H816 C824 0.950 . S
H817 C829 0.950 . S
H818 C826 0.950 . S
H819 C828 0.950 . S
H820 C830 0.950 . S
H821 C832 0.950 . S
H822 C834 0.950 . S
H823 C835 0.950 . S
C824 H816 0.950 . S
C824 C825 1.386 . S
C824 C826 1.391 . S
C825 C824 1.386 . S
C825 C829 1.393 . S
C826 H818 0.950 . S
C826 C824 1.391 . S
C826 C827 1.400 . S
C827 C826 1.400 . S
C827 C828 1.398 . S
C827 C833 1.491 . S
C828 H819 0.950 . S
C828 C827 1.398 . S
C828 C829 1.391 . S
C829 H817 0.950 . S
C829 C825 1.393 . S
C829 C828 1.391 . S
C830 H820 0.950 . S
C830 C831 1.386 . S
C830 C832 1.391 . S
C831 C830 1.386 . S
C831 C835 1.393 . S
C832 H821 0.950 . S
C832 C830 1.391 . S
C832 C833 1.400 . S
C833 C827 1.491 . S
C833 C832 1.400 . S
C833 C834 1.398 . S
C834 H822 0.950 . S
C834 C833 1.398 . S
C834 C835 1.391 . S
C835 H823 0.950 . S
C835 C831 1.393 . S
C835 C834 1.391 . S
H836 C844 0.950 . S
H837 C849 0.950 . S
H838 C846 0.950 . S
H839 C848 0.950 . S
H840 C850 0.950 . S
H841 C852 0.950 . S
H842 C854 0.950 . S
H843 C855 0.950 . S
C844 H836 0.950 . S
C844 C845 1.386 . S
C844 C846 1.391 . S
C845 C844 1.386 . S
C845 C849 1.393 . S
C846 H838 0.950 . S
C846 C844 1.391 . S
C846 C847 1.400 . S
C847 C846 1.400 . S
C847 C848 1.398 . S
C847 C853 1.491 . S
C848 H839 0.950 . S
C848 C847 1.398 . S
C848 C849 1.391 . S
C849 H837 0.950 . S
C849 C845 1.393 . S
C849 C848 1.391 . S
C850 H840 0.950 . S
C850 C851 1.386 . S
C850 C852 1.391 . S
C851 C850 1.386 . S
C851 C855 1.393 . S
C852 H841 0.950 . S
C852 C850 1.391 . S
C852 C853 1.400 . S
C853 C847 1.491 . S
C853 C852 1.400 . S
C853 C854 1.398 . S
C854 H842 0.950 . S
C854 C853 1.398 . S
C854 C855 1.391 . S
C855 H843 0.950 . S
C855 C851 1.393 . S
C855 C854 1.391 . S
H856 C864 0.950 . S
H857 C869 0.950 . S
H858 C866 0.950 . S
H859 C868 0.950 . S
H860 C870 0.950 . S
H861 C872 0.950 . S
H862 C874 0.950 . S
H863 C875 0.950 . S
C864 H856 0.950 . S
C864 C865 1.386 . S
C864 C866 1.391 . S
C865 C864 1.386 . S
C865 C869 1.393 . S
C866 H858 0.950 . S
C866 C864 1.391 . S
C866 C867 1.400 . S
C867 C866 1.400 . S
C867 C868 1.398 . S
C867 C873 1.491 . S
C868 H859 0.950 . S
C868 C867 1.398 . S
C868 C869 1.391 . S
C869 H857 0.950 . S
C869 C865 1.393 . S
C869 C868 1.391 . S
C870 H860 0.950 . S
C870 C871 1.386 . S
C870 C872 1.391 . S
C871 C870 1.386 . S
C871 C875 1.393 . S
C872 H861 0.950 . S
C872 C870 1.391 . S
C872 C873 1.400 . S
C873 C867 1.491 . S
C873 C872 1.400 . S
C873 C874 1.398 . S
C874 H862 0.950 . S
C874 C873 1.398 . S
C874 C875 1.391 . S
C875 H863 0.950 . S
C875 C871 1.393 . S
C875 C874 1.391 . S
H876 C884 0.950 . S
H877 C889 0.950 . S
H878 C886 0.950 . S
H879 C888 0.950 . S
H880 C890 0.950 . S
H881 C892 0.950 . S
H882 C894 0.950 . S
H883 C895 0.950 . S
C884 H876 0.950 . S
C884 C885 1.386 . S
C884 C886 1.391 . S
C885 C884 1.386 . S
C885 C889 1.393 . S
C886 H878 0.950 . S
C886 C884 1.391 . S
C886 C887 1.400 . S
C887 C886 1.400 . S
C887 C888 1.398 . S
C887 C893 1.491 . S
C888 H879 0.950 . S
C888 C887 1.398 . S
C888 C889 1.391 . S
C889 H877 0.950 . S
C889 C885 1.393 . S
C889 C888 1.391 . S
C890 H880 0.950 . S
C890 C891 1.386 . S
C890 C892 1.391 . S
C891 C890 1.386 . S
C891 C895 1.393 . S
C892 H881 0.950 . S
C892 C890 1.391 . S
C892 C893 1.400 . S
C893 C887 1.491 . S
C893 C892 1.400 . S
C893 C894 1.398 . S
C894 H882 0.950 . S
C894 C893 1.398 . S
C894 C895 1.391 . S
C895 H883 0.950 . S
C895 C891 1.393 . S
C895 C894 1.391 . S
H896 C904 0.950 . S
H897 C909 0.950 . S
H898 C906 0.950 . S
H899 C908 0.950 . S
H900 C910 0.950 . S
H901 C912 0.950 . S
H902 C914 0.950 . S
H903 C915 0.950 . S
C904 H896 0.950 . S
C904 C905 1.386 . S
C904 C906 1.391 . S
C905 C904 1.386 . S
C905 C909 1.393 . S
C906 H898 0.950 . S
C906 C904 1.391 . S
C906 C907 1.400 . S
C907 C906 1.400 . S
C907 C908 1.398 . S
C907 C913 1.491 . S
C908 H899 0.950 . S
C908 C907 1.398 . S
C908 C909 1.391 . S
C909 H897 0.950 . S
C909 C905 1.393 . S
C909 C908 1.391 . S
C910 H900 0.950 . S
C910 C911 1.386 . S
C910 C912 1.391 . S
C911 C910 1.386 . S
C911 C915 1.393 . S
C912 H901 0.950 . S
C912 C910 1.391 . S
C912 C913 1.400 . S
C913 C907 1.491 . S
C913 C912 1.400 . S
C913 C914 1.398 . S
C914 H902 0.950 . S
C914 C913 1.398 . S
C914 C915 1.391 . S
C915 H903 0.950 . S
C915 C911 1.393 . S
C915 C914 1.391 . S
H916 C924 0.950 . S
H917 C929 0.950 . S
H918 C926 0.950 . S
H919 C928 0.950 . S
H920 C930 0.950 . S
H921 C932 0.950 . S
H922 C934 0.950 . S
H923 C935 0.950 . S
C924 H916 0.950 . S
C924 C925 1.386 . S
C924 C926 1.391 . S
C925 C924 1.386 . S
C925 C929 1.393 . S
C926 H918 0.950 . S
C926 C924 1.391 . S
C926 C927 1.400 . S
C927 C926 1.400 . S
C927 C928 1.398 . S
C927 C933 1.491 . S
C928 H919 0.950 . S
C928 C927 1.398 . S
C928 C929 1.391 . S
C929 H917 0.950 . S
C929 C925 1.393 . S
C929 C928 1.391 . S
C930 H920 0.950 . S
C930 C931 1.386 . S
C930 C932 1.391 . S
C931 C930 1.386 . S
C931 C935 1.393 . S
C932 H921 0.950 . S
C932 C930 1.391 . S
C932 C933 1.400 . S
C933 C927 1.491 . S
C933 C932 1.400 . S
C933 C934 1.398 . S
C934 H922 0.950 . S
C934 C933 1.398 . S
C934 C935 1.391 . S
C935 H923 0.950 . S
C935 C931 1.393 . S
C935 C934 1.391 . S
H936 C944 0.950 . S
H937 C949 0.950 . S
H938 C946 0.950 . S
H939 C948 0.950 . S
H940 C950 0.950 . S
H941 C952 0.950 . S
H942 C954 0.950 . S
H943 C955 0.950 . S
C944 H936 0.950 . S
C944 C945 1.386 . S
C944 C946 1.391 . S
C945 C944 1.386 . S
C945 C949 1.393 . S
C946 H938 0.950 . S
C946 C944 1.391 . S
C946 C947 1.400 . S
C947 C946 1.400 . S
C947 C948 1.398 . S
C947 C953 1.491 . S
C948 H939 0.950 . S
C948 C947 1.398 . S
C948 C949 1.391 . S
C949 H937 0.950 . S
C949 C945 1.393 . S
C949 C948 1.391 . S
C950 H940 0.950 . S
C950 C951 1.386 . S
C950 C952 1.391 . S
C951 C950 1.386 . S
C951 C955 1.393 . S
C952 H941 0.950 . S
C952 C950 1.391 . S
C952 C953 1.400 . S
C953 C947 1.491 . S
C953 C952 1.400 . S
C953 C954 1.398 . S
C954 H942 0.950 . S
C954 C953 1.398 . S
C954 C955 1.391 . S
C955 H943 0.950 . S
C955 C951 1.393 . S
C955 C954 1.391 . S
H956 C964 0.950 . S
H957 C969 0.950 . S
H958 C966 0.950 . S
H959 C968 0.950 . S
H960 C970 0.950 . S
H961 C972 0.950 . S
H962 C974 0.950 . S
H963 C975 0.950 . S
C964 H956 0.950 . S
C964 C965 1.386 . S
C964 C966 1.391 . S
C965 C964 1.386 . S
C965 C969 1.393 . S
C966 H958 0.950 . S
C966 C964 1.391 . S
C966 C967 1.400 . S
C967 C966 1.400 . S
C967 C968 1.398 . S
C967 C973 1.491 . S
C968 H959 0.950 . S
C968 C967 1.398 . S
C968 C969 1.391 . S
C969 H957 0.950 . S
C969 C965 1.393 . S
C969 C968 1.391 . S
C970 H960 0.950 . S
C970 C971 1.386 . S
C970 C972 1.391 . S
C971 C970 1.386 . S
C971 C975 1.393 . S
C972 H961 0.950 . S
C972 C970 1.391 . S
C972 C973 1.400 . S
C973 C967 1.491 . S
C973 C972 1.400 . S
C973 C974 1.398 . S
C974 H962 0.950 . S
C974 C973 1.398 . S
C974 C975 1.391 . S
C975 H963 0.950 . S
C975 C971 1.393 . S
C975 C974 1.391 . S
H976 C984 0.950 . S
H977 C989 0.950 . S
H978 C986 0.950 . S
H979 C988 0.950 . S
H980 C990 0.950 . S
H981 C992 0.950 . S
H982 C994 0.950 . S
H983 C995 0.950 . S
C984 H976 0.950 . S
C984 C985 1.386 . S
C984 C986 1.391 . S
C985 C984 1.386 . S
C985 C989 1.393 . S
C986 H978 0.950 . S
C986 C984 1.391 . S
C986 C987 1.400 . S
C987 C986 1.400 . S
C987 C988 1.398 . S
C987 C993 1.491 . S
C988 H979 0.950 . S
C988 C987 1.398 . S
C988 C989 1.391 . S
C989 H977 0.950 . S
C989 C985 1.393 . S
C989 C988 1.391 . S
C990 H980 0.950 . S
C990 C991 1.386 . S
C990 C992 1.391 . S
C991 C990 1.386 . S
C991 C995 1.393 . S
C992 H981 0.950 . S
C992 C990 1.391 . S
C992 C993 1.400 . S
C993 C987 1.491 . S
C993 C992 1.400 . S
C993 C994 1.398 . S
C994 H982 0.950 . S
C994 C993 1.398 . S
C994 C995 1.391 . S
C995 H983 0.950 . S
C995 C991 1.393 . S
C995 C994 1.391 . S
H996 C1004 0.950 . S
H997 C1009 0.950 . S
H998 C1006 0.950 . S
H999 C1008 0.950 . S
H1000 C1010 0.950 . S
H1001 C1012 0.950 . S
H1002 C1014 0.950 . S
H1003 C1015 0.950 . S
C1004 H996 0.950 . S
C1004 C1005 1.386 . S
C1004 C1006 1.391 . S
C1005 C1004 1.386 . S
C1005 C1009 1.393 . S
C1006 H998 0.950 . S
C1006 C1004 1.391 . S
C1006 C1007 1.400 . S
C1007 C1006 1.400 . S
C1007 C1008 1.398 . S
C1007 C1013 1.491 . S
C1008 H999 0.950 . S
C1008 C1007 1.398 . S
C1008 C1009 1.391 . S
C1009 H997 0.950 . S
C1009 C1005 1.393 . S
C1009 C1008 1.391 . S
C1010 H1000 0.950 . S
C1010 C1011 1.386 . S
C1010 C1012 1.391 . S
C1011 C1010 1.386 . S
C1011 C1015 1.393 . S
C1012 H1001 0.950 . S
C1012 C1010 1.391 . S
C1012 C1013 1.400 . S
C1013 C1007 1.491 . S
C1013 C1012 1.400 . S
C1013 C1014 1.398 . S
C1014 H1002 0.950 . S
C1014 C1013 1.398 . S
C1014 C1015 1.391 . S
C1015 H1003 0.950 . S
C1015 C1011 1.393 . S
C1015 C1014 1.391 . S
H1016 C1024 0.950 . S
H1017 C1029 0.950 . S
H1018 C1026 0.950 . S
H1019 C1028 0.950 . S
H1020 C1030 0.950 . S
H1021 C1032 0.950 . S
H1022 C1034 0.950 . S
H1023 C1035 0.950 . S
C1024 H1016 0.950 . S
C1024 C1025 1.386 . S
C1024 C1026 1.391 . S
C1025 C1024 1.386 . S
C1025 C1029 1.393 . S
C1026 H1018 0.950 . S
C1026 C1024 1.391 . S
C1026 C1027 1.400 . S
C1027 C1026 1.400 . S
C1027 C1028 1.398 . S
C1027 C1033 1.491 . S
C1028 H1019 0.950 . S
C1028 C1027 1.398 . S
C1028 C1029 1.391 . S
C1029 H1017 0.950 . S
C1029 C1025 1.393 . S
C1029 C1028 1.391 . S
C1030 H1020 0.950 . S
C1030 C1031 1.386 . S
C1030 C1032 1.391 . S
C1031 C1030 1.386 . S
C1031 C1035 1.393 . S
C1032 H1021 0.950 . S
C1032 C1030 1.391 . S
C1032 C1033 1.400 . S
C1033 C1027 1.491 . S
C1033 C1032 1.400 . S
C1033 C1034 1.398 . S
C1034 H1022 0.950 . S
C1034 C1033 1.398 . S
C1034 C1035 1.391 . S
C1035 H1023 0.950 . S
C1035 C1031 1.393 . S
C1035 C1034 1.391 . S
H1036 C1044 0.950 . S
H1037 C1049 0.950 . S
H1038 C1046 0.950 . S
H1039 C1048 0.950 . S
H1040 C1050 0.950 . S
H1041 C1052 0.950 . S
H1042 C1054 0.950 . S
H1043 C1055 0.950 . S
C1044 H1036 0.950 . S
C1044 C1045 1.386 . S
C1044 C1046 1.391 . S
C1045 C1044 1.386 . S
C1045 C1049 1.393 . S
C1046 H1038 0.950 . S
C1046 C1044 1.391 . S
C1046 C1047 1.400 . S
C1047 C1046 1.400 . S
C1047 C1048 1.398 . S
C1047 C1053 1.491 . S
C1048 H1039 0.950 . S
C1048 C1047 1.398 . S
C1048 C1049 1.391 . S
C1049 H1037 0.950 . S
C1049 C1045 1.393 . S
C1049 C1048 1.391 . S
C1050 H1040 0.950 . S
C1050 C1051 1.386 . S
C1050 C1052 1.391 . S
C1051 C1050 1.386 . S
C1051 C1055 1.393 . S
C1052 H1041 0.950 . S
C1052 C1050 1.391 . S
C1052 C1053 1.400 . S
C1053 C1047 1.491 . S
C1053 C1052 1.400 . S
C1053 C1054 1.398 . S
C1054 H1042 0.950 . S
C1054 C1053 1.398 . S
C1054 C1055 1.391 . S
C1055 H1043 0.950 . S
C1055 C1051 1.393 . S
C1055 C1054 1.391 . S
H1056 C1064 0.950 . S
H1057 C1069 0.950 . S
H1058 C1066 0.950 . S
H1059 C1068 0.950 . S
H1060 C1070 0.950 . S
H1061 C1072 0.950 . S
H1062 C1074 0.950 . S
H1063 C1075 0.950 . S
C1064 H1056 0.950 . S
C1064 C1065 1.386 . S
C1064 C1066 1.391 . S
C1065 C1064 1.386 . S
C1065 C1069 1.393 . S
C1066 H1058 0.950 . S
C1066 C1064 1.391 . S
C1066 C1067 1.400 . S
C1067 C1066 1.400 . S
C1067 C1068 1.398 . S
C1067 C1073 1.491 . S
C1068 H1059 0.950 . S
C1068 C1067 1.398 . S
C1068 C1069 1.391 . S
C1069 H1057 0.950 . S
C1069 C1065 1.393 . S
C1069 C1068 1.391 . S
C1070 H1060 0.950 . S
C1070 C1071 1.386 . S
C1070 C1072 1.391 . S
C1071 C1070 1.386 . S
C1071 C1075 1.393 . S
C1072 H1061 0.950 . S
C1072 C1070 1.391 . S
C1072 C1073 1.400 . S
C1073 C1067 1.491 . S
C1073 C1072 1.400 . S
C1073 C1074 1.398 . S
C1074 H1062 0.950 . S
C1074 C1073 1.398 . S
C1074 C1075 1.391 . S
C1075 H1063 0.950 . S
C1075 C1071 1.393 . S
C1075 C1074 1.391 . S
H1076 C1084 0.950 . S
H1077 C1089 0.950 . S
H1078 C1086 0.950 . S
H1079 C1088 0.950 . S
H1080 C1090 0.950 . S
H1081 C1092 0.950 . S
H1082 C1094 0.950 . S
H1083 C1095 0.950 . S
C1084 H1076 0.950 . S
C1084 C1085 1.386 . S
C1084 C1086 1.391 . S
C1085 C1084 1.386 . S
C1085 C1089 1.393 . S
C1086 H1078 0.950 . S
C1086 C1084 1.391 . S
C1086 C1087 1.400 . S
C1087 C1086 1.400 . S
C1087 C1088 1.398 . S
C1087 C1093 1.491 . S
C1088 H1079 0.950 . S
C1088 C1087 1.398 . S
C1088 C1089 1.391 . S
C1089 H1077 0.950 . S
C1089 C1085 1.393 . S
C1089 C1088 1.391 . S
C1090 H1080 0.950 . S
C1090 C1091 1.386 . S
C1090 C1092 1.391 . S
C1091 C1090 1.386 . S
C1091 C1095 1.393 . S
C1092 H1081 0.950 . S
C1092 C1090 1.391 . S
C1092 C1093 1.400 . S
C1093 C1087 1.491 . S
C1093 C1092 1.400 . S
C1093 C1094 1.398 . S
C1094 H1082 0.950 . S
C1094 C1093 1.398 . S
C1094 C1095 1.391 . S
C1095 H1083 0.950 . S
C1095 C1091 1.393 . S
C1095 C1094 1.391 . S
H1096 C1104 0.950 . S
H1097 C1109 0.950 . S
H1098 C1106 0.950 . S
H1099 C1108 0.950 . S
H1100 C1110 0.950 . S
H1101 C1112 0.950 . S
H1102 C1114 0.950 . S
H1103 C1115 0.950 . S
C1104 H1096 0.950 . S
C1104 C1105 1.386 . S
C1104 C1106 1.391 . S
C1105 C1104 1.386 . S
C1105 C1109 1.393 . S
C1106 H1098 0.950 . S
C1106 C1104 1.391 . S
C1106 C1107 1.400 . S
C1107 C1106 1.400 . S
C1107 C1108 1.398 . S
C1107 C1113 1.491 . S
C1108 H1099 0.950 . S
C1108 C1107 1.398 . S
C1108 C1109 1.391 . S
C1109 H1097 0.950 . S
C1109 C1105 1.393 . S
C1109 C1108 1.391 . S
C1110 H1100 0.950 . S
C1110 C1111 1.386 . S
C1110 C1112 1.391 . S
C1111 C1110 1.386 . S
C1111 C1115 1.393 . S
C1112 H1101 0.950 . S
C1112 C1110 1.391 . S
C1112 C1113 1.400 . S
C1113 C1107 1.491 . S
C1113 C1112 1.400 . S
C1113 C1114 1.398 . S
C1114 H1102 0.950 . S
C1114 C1113 1.398 . S
C1114 C1115 1.391 . S
C1115 H1103 0.950 . S
C1115 C1111 1.393 . S
C1115 C1114 1.391 . S
H1116 C1124 0.950 . S
H1117 C1129 0.950 . S
H1118 C1126 0.950 . S
H1119 C1128 0.950 . S
H1120 C1130 0.950 . S
H1121 C1132 0.950 . S
H1122 C1134 0.950 . S
H1123 C1135 0.950 . S
C1124 H1116 0.950 . S
C1124 C1125 1.386 . S
C1124 C1126 1.391 . S
C1125 C1124 1.386 . S
C1125 C1129 1.393 . S
C1126 H1118 0.950 . S
C1126 C1124 1.391 . S
C1126 C1127 1.400 . S
C1127 C1126 1.400 . S
C1127 C1128 1.398 . S
C1127 C1133 1.491 . S
C1128 H1119 0.950 . S
C1128 C1127 1.398 . S
C1128 C1129 1.391 . S
C1129 H1117 0.950 . S
C1129 C1125 1.393 . S
C1129 C1128 1.391 . S
C1130 H1120 0.950 . S
C1130 C1131 1.386 . S
C1130 C1132 1.391 . S
C1131 C1130 1.386 . S
C1131 C1135 1.393 . S
C1132 H1121 0.950 . S
C1132 C1130 1.391 . S
C1132 C1133 1.400 . S
C1133 C1127 1.491 . S
C1133 C1132 1.400 . S
C1133 C1134 1.398 . S
C1134 H1122 0.950 . S
C1134 C1133 1.398 . S
C1134 C1135 1.391 . S
C1135 H1123 0.950 . S
C1135 C1131 1.393 . S
C1135 C1134 1.391 . S
C511 C385 1.499 . S
C505 C36 1.499 . S
C531 C411 1.502 . S
C525 C93 1.500 . S
C551 C425 1.499 . S
C545 C132 1.501 . S
C571 C427 1.501 . S
C565 C174 1.494 . S
C585 C213 1.502 . S
C591 C424 1.502 . S
C611 C426 1.502 . S
C605 C285 1.499 . S
C631 C384 1.503 . S
C625 C324 1.503 . S
C651 C410 1.498 . S
C645 C366 1.500 . S
C671 C412 1.503 . S
C665 C357 1.502 . S
C691 C438 1.502 . S
C685 C222 1.500 . S
C711 C396 1.500 . S
C705 C276 1.500 . S
C731 C398 1.502 . S
C725 C333 1.493 . S
C751 C397 1.503 . S
C745 C84 1.500 . S
C771 C399 1.499 . S
C765 C141 1.500 . S
C791 C413 1.499 . S
C785 C165 1.499 . S
C811 C439 1.500 . S
C805 C45 1.498 . S
C831 C441 1.499 . S
C825 C372 1.502 . S
C845 C237 1.498 . S
C851 C467 1.504 . S
C865 C261 1.499 . S
C871 C480 1.504 . S
C885 C318 1.499 . S
C891 C483 1.501 . S
C905 C69 1.502 . S
C911 C481 1.499 . S
C925 C126 1.495 . S
C931 C482 1.499 . S
C945 C180 1.499 . S
C951 C440 1.496 . S
C971 C466 1.502 . S
C965 C30 1.491 . S
C991 C469 1.500 . S
C985 C21 1.499 . S
C1005 C78 1.494 . S
C1011 C494 1.496 . S
C1025 C117 1.502 . S
C1031 C452 1.500 . S
C1045 C189 1.493 . S
C1051 C454 1.500 . S
C1071 C453 1.503 . S
C1065 C228 1.503 . S
C1091 C455 1.502 . S
C1085 C270 1.502 . S
C1105 C309 1.499 . S
C1111 C468 1.501 . S
C1131 C495 1.501 . S
C1125 C381 1.498 . S
