# Generated by pormake.
# Topology ptr, (4,4)-cn, num edge types: 1
# Building blocks:
#     Node 0, Type 0, BuildingBlock: NAHDIM_clean_sbu_0, # of connection points: 4
#     Node 1, Type 0, BuildingBlock: NAHDIM_clean_sbu_0, # of connection points: 4
#     Node 2, Type 0, BuildingBlock: NAHDIM_clean_sbu_0, # of connection points: 4
#     Node 3, Type 0, BuildingBlock: NAHDIM_clean_sbu_0, # of connection points: 4
#     Node 4, Type 0, BuildingBlock: NAHDIM_clean_sbu_0, # of connection points: 4
#     Node 5, Type 0, BuildingBlock: NAHDIM_clean_sbu_0, # of connection points: 4
#     Node 6, Type 0, BuildingBlock: NAHDIM_clean_sbu_0, # of connection points: 4
#     Node 7, Type 0, BuildingBlock: NAHDIM_clean_sbu_0, # of connection points: 4
#     Node 8, Type 0, BuildingBlock: NAHDIM_clean_sbu_0, # of connection points: 4
#     Node 9, Type 0, BuildingBlock: NAHDIM_clean_sbu_0, # of connection points: 4
#     Node 10, Type 0, BuildingBlock: NAHDIM_clean_sbu_0, # of connection points: 4
#     Node 11, Type 0, BuildingBlock: NAHDIM_clean_sbu_0, # of connection points: 4
#     Node 12, Type 0, BuildingBlock: NAHDIM_clean_sbu_0, # of connection points: 4
#     Node 13, Type 0, BuildingBlock: NAHDIM_clean_sbu_0, # of connection points: 4
#     Node 14, Type 0, BuildingBlock: NAHDIM_clean_sbu_0, # of connection points: 4
#     Node 15, Type 0, BuildingBlock: NAHDIM_clean_sbu_0, # of connection points: 4
#     Node 16, Type 0, BuildingBlock: NAHDIM_clean_sbu_0, # of connection points: 4
#     Node 17, Type 0, BuildingBlock: NAHDIM_clean_sbu_0, # of connection points: 4
#     Node 18, Type 1, BuildingBlock: KUFVIS_clean_linker_0, # of connection points: 4
#     Node 19, Type 1, BuildingBlock: KUFVIS_clean_linker_0, # of connection points: 4
#     Node 20, Type 1, BuildingBlock: KUFVIS_clean_linker_0, # of connection points: 4
#     Node 21, Type 1, BuildingBlock: KUFVIS_clean_linker_0, # of connection points: 4
#     Node 22, Type 1, BuildingBlock: KUFVIS_clean_linker_0, # of connection points: 4
#     Node 23, Type 1, BuildingBlock: KUFVIS_clean_linker_0, # of connection points: 4
#     Node 24, Type 1, BuildingBlock: KUFVIS_clean_linker_0, # of connection points: 4
#     Node 25, Type 1, BuildingBlock: KUFVIS_clean_linker_0, # of connection points: 4
#     Node 26, Type 1, BuildingBlock: KUFVIS_clean_linker_0, # of connection points: 4
#     Node 27, Type 1, BuildingBlock: KUFVIS_clean_linker_0, # of connection points: 4
#     Node 28, Type 1, BuildingBlock: KUFVIS_clean_linker_0, # of connection points: 4
#     Node 29, Type 1, BuildingBlock: KUFVIS_clean_linker_0, # of connection points: 4
#     Node 30, Type 1, BuildingBlock: KUFVIS_clean_linker_0, # of connection points: 4
#     Node 31, Type 1, BuildingBlock: KUFVIS_clean_linker_0, # of connection points: 4
#     Node 32, Type 1, BuildingBlock: KUFVIS_clean_linker_0, # of connection points: 4
#     Node 33, Type 1, BuildingBlock: KUFVIS_clean_linker_0, # of connection points: 4
#     Node 34, Type 1, BuildingBlock: KUFVIS_clean_linker_0, # of connection points: 4
#     Node 35, Type 1, BuildingBlock: KUFVIS_clean_linker_0, # of connection points: 4
#     Edge 36, Type (0, 1), BuildingBlock: UVAHIK_clean_linker_0, # of connection points: 2
#     Edge 37, Type (0, 1), BuildingBlock: UVAHIK_clean_linker_0, # of connection points: 2
#     Edge 38, Type (0, 1), BuildingBlock: UVAHIK_clean_linker_0, # of connection points: 2
#     Edge 39, Type (0, 1), BuildingBlock: UVAHIK_clean_linker_0, # of connection points: 2
#     Edge 40, Type (0, 1), BuildingBlock: UVAHIK_clean_linker_0, # of connection points: 2
#     Edge 41, Type (0, 1), BuildingBlock: UVAHIK_clean_linker_0, # of connection points: 2
#     Edge 42, Type (0, 1), BuildingBlock: UVAHIK_clean_linker_0, # of connection points: 2
#     Edge 43, Type (0, 1), BuildingBlock: UVAHIK_clean_linker_0, # of connection points: 2
#     Edge 44, Type (0, 1), BuildingBlock: UVAHIK_clean_linker_0, # of connection points: 2
#     Edge 45, Type (0, 1), BuildingBlock: UVAHIK_clean_linker_0, # of connection points: 2
#     Edge 46, Type (0, 1), BuildingBlock: UVAHIK_clean_linker_0, # of connection points: 2
#     Edge 47, Type (0, 1), BuildingBlock: UVAHIK_clean_linker_0, # of connection points: 2
#     Edge 48, Type (0, 1), BuildingBlock: UVAHIK_clean_linker_0, # of connection points: 2
#     Edge 49, Type (0, 1), BuildingBlock: UVAHIK_clean_linker_0, # of connection points: 2
#     Edge 50, Type (0, 1), BuildingBlock: UVAHIK_clean_linker_0, # of connection points: 2
#     Edge 51, Type (0, 1), BuildingBlock: UVAHIK_clean_linker_0, # of connection points: 2
#     Edge 52, Type (0, 1), BuildingBlock: UVAHIK_clean_linker_0, # of connection points: 2
#     Edge 53, Type (0, 1), BuildingBlock: UVAHIK_clean_linker_0, # of connection points: 2
#     Edge 54, Type (0, 1), BuildingBlock: UVAHIK_clean_linker_0, # of connection points: 2
#     Edge 55, Type (0, 1), BuildingBlock: UVAHIK_clean_linker_0, # of connection points: 2
#     Edge 56, Type (0, 1), BuildingBlock: UVAHIK_clean_linker_0, # of connection points: 2
#     Edge 57, Type (0, 1), BuildingBlock: UVAHIK_clean_linker_0, # of connection points: 2
#     Edge 58, Type (0, 1), BuildingBlock: UVAHIK_clean_linker_0, # of connection points: 2
#     Edge 59, Type (0, 1), BuildingBlock: UVAHIK_clean_linker_0, # of connection points: 2
#     Edge 60, Type (0, 1), BuildingBlock: UVAHIK_clean_linker_0, # of connection points: 2
#     Edge 61, Type (0, 1), BuildingBlock: UVAHIK_clean_linker_0, # of connection points: 2
#     Edge 62, Type (0, 1), BuildingBlock: UVAHIK_clean_linker_0, # of connection points: 2
#     Edge 63, Type (0, 1), BuildingBlock: UVAHIK_clean_linker_0, # of connection points: 2
#     Edge 64, Type (0, 1), BuildingBlock: UVAHIK_clean_linker_0, # of connection points: 2
#     Edge 65, Type (0, 1), BuildingBlock: UVAHIK_clean_linker_0, # of connection points: 2
#     Edge 66, Type (0, 1), BuildingBlock: UVAHIK_clean_linker_0, # of connection points: 2
#     Edge 67, Type (0, 1), BuildingBlock: UVAHIK_clean_linker_0, # of connection points: 2
#     Edge 68, Type (0, 1), BuildingBlock: UVAHIK_clean_linker_0, # of connection points: 2
#     Edge 69, Type (0, 1), BuildingBlock: UVAHIK_clean_linker_0, # of connection points: 2
#     Edge 70, Type (0, 1), BuildingBlock: UVAHIK_clean_linker_0, # of connection points: 2
#     Edge 71, Type (0, 1), BuildingBlock: UVAHIK_clean_linker_0, # of connection points: 2
#     Edge 72, Type (0, 1), BuildingBlock: UVAHIK_clean_linker_0, # of connection points: 2
#     Edge 73, Type (0, 1), BuildingBlock: UVAHIK_clean_linker_0, # of connection points: 2
#     Edge 74, Type (0, 1), BuildingBlock: UVAHIK_clean_linker_0, # of connection points: 2
#     Edge 75, Type (0, 1), BuildingBlock: UVAHIK_clean_linker_0, # of connection points: 2
#     Edge 76, Type (0, 1), BuildingBlock: UVAHIK_clean_linker_0, # of connection points: 2
#     Edge 77, Type (0, 1), BuildingBlock: UVAHIK_clean_linker_0, # of connection points: 2
#     Edge 78, Type (0, 1), BuildingBlock: UVAHIK_clean_linker_0, # of connection points: 2
#     Edge 79, Type (0, 1), BuildingBlock: UVAHIK_clean_linker_0, # of connection points: 2
#     Edge 80, Type (0, 1), BuildingBlock: UVAHIK_clean_linker_0, # of connection points: 2
#     Edge 81, Type (0, 1), BuildingBlock: UVAHIK_clean_linker_0, # of connection points: 2
#     Edge 82, Type (0, 1), BuildingBlock: UVAHIK_clean_linker_0, # of connection points: 2
#     Edge 83, Type (0, 1), BuildingBlock: UVAHIK_clean_linker_0, # of connection points: 2
#     Edge 84, Type (0, 1), BuildingBlock: UVAHIK_clean_linker_0, # of connection points: 2
#     Edge 85, Type (0, 1), BuildingBlock: UVAHIK_clean_linker_0, # of connection points: 2
#     Edge 86, Type (0, 1), BuildingBlock: UVAHIK_clean_linker_0, # of connection points: 2
#     Edge 87, Type (0, 1), BuildingBlock: UVAHIK_clean_linker_0, # of connection points: 2
#     Edge 88, Type (0, 1), BuildingBlock: UVAHIK_clean_linker_0, # of connection points: 2
#     Edge 89, Type (0, 1), BuildingBlock: UVAHIK_clean_linker_0, # of connection points: 2
#     Edge 90, Type (0, 1), BuildingBlock: UVAHIK_clean_linker_0, # of connection points: 2
#     Edge 91, Type (0, 1), BuildingBlock: UVAHIK_clean_linker_0, # of connection points: 2
#     Edge 92, Type (0, 1), BuildingBlock: UVAHIK_clean_linker_0, # of connection points: 2
#     Edge 93, Type (0, 1), BuildingBlock: UVAHIK_clean_linker_0, # of connection points: 2
#     Edge 94, Type (0, 1), BuildingBlock: UVAHIK_clean_linker_0, # of connection points: 2
#     Edge 95, Type (0, 1), BuildingBlock: UVAHIK_clean_linker_0, # of connection points: 2
#     Edge 96, Type (0, 1), BuildingBlock: UVAHIK_clean_linker_0, # of connection points: 2
#     Edge 97, Type (0, 1), BuildingBlock: UVAHIK_clean_linker_0, # of connection points: 2
#     Edge 98, Type (0, 1), BuildingBlock: UVAHIK_clean_linker_0, # of connection points: 2
#     Edge 99, Type (0, 1), BuildingBlock: UVAHIK_clean_linker_0, # of connection points: 2
#     Edge 100, Type (0, 1), BuildingBlock: UVAHIK_clean_linker_0, # of connection points: 2
#     Edge 101, Type (0, 1), BuildingBlock: UVAHIK_clean_linker_0, # of connection points: 2
#     Edge 102, Type (0, 1), BuildingBlock: UVAHIK_clean_linker_0, # of connection points: 2
#     Edge 103, Type (0, 1), BuildingBlock: UVAHIK_clean_linker_0, # of connection points: 2
#     Edge 104, Type (0, 1), BuildingBlock: UVAHIK_clean_linker_0, # of connection points: 2
#     Edge 105, Type (0, 1), BuildingBlock: UVAHIK_clean_linker_0, # of connection points: 2
#     Edge 106, Type (0, 1), BuildingBlock: UVAHIK_clean_linker_0, # of connection points: 2
#     Edge 107, Type (0, 1), BuildingBlock: UVAHIK_clean_linker_0, # of connection points: 2
# Relax obj value: 0.076
# Max RMSD: 0.211
# Mean RMSD: 0.121
data_MOF--net-ptr--node1-NAHDIM_clean_sbu_0--node2-KUFVIS_clean_linker_0--edge1-UVAHIK_clean_linker_0
_symmetry_space_group_name_H-M    P1
_symmetry_Int_Tables_number       1
_symmetry_cell_setting            triclinic
loop_
_symmetry_equiv_pos_as_xyz
'x, y, z'
_cell_length_a     103.26727
_cell_length_b     101.47352
_cell_length_c     60.720639
_cell_angle_alpha  91.62368
_cell_angle_beta   89.246824
_cell_angle_gamma 121.63821
loop_
_atom_site_label
_atom_site_type_symbol
_atom_site_fract_x
_atom_site_fract_y
_atom_site_fract_z
_atom_type_partial_charge
C0 C 0.02528 0.35201 0.01747 0.0
O1 O 0.01308 0.34301 0.02911 0.0
O2 O 0.98762 0.34171 0.00514 0.0
Zn3 Zn 0.0064 0.36334 0.00508 0.0
O4 O 0.00728 0.37624 0.03153 0.0
C5 C 0.99447 0.36945 0.96623 0.0
O6 O 0.98257 0.35567 0.97001 0.0
O7 O 0.02523 0.36194 0.0052 0.0
C8 C 0.99931 0.38245 0.03188 0.0
O9 O 0.98977 0.37938 0.01564 0.0
C10 C 0.97675 0.33673 0.0189 0.0
O11 O 0.97737 0.34592 0.03506 0.0
O12 O 0.00617 0.37474 0.97844 0.0
C13 C 0.68226 0.65639 0.01675 0.0
O14 O 0.68257 0.66933 0.02087 0.0
O15 O 0.65285 0.6645 0.01393 0.0
Zn16 Zn 0.64941 0.6429 0.01413 0.0
O17 O 0.63778 0.63056 0.98706 0.0
C18 C 0.6327 0.63647 0.05608 0.0
O19 O 0.63793 0.65139 0.05718 0.0
O20 O 0.6695 0.64386 0.01392 0.0
C21 C 0.62335 0.62201 0.98753 0.0
O22 O 0.61606 0.62199 0.00543 0.0
C23 C 0.64212 0.66708 0.01207 0.0
O24 O 0.62807 0.65533 0.00993 0.0
O25 O 0.63677 0.63098 0.04026 0.0
C26 C 0.35675 0.02821 0.01149 0.0
O27 O 0.34562 0.01712 0.0228 0.0
O28 O 0.34617 0.98845 0.01338 0.0
Zn29 Zn 0.36752 0.00673 0.00838 0.0
O30 O 0.37761 0.00311 0.98198 0.0
C31 C 0.38568 1.00068 0.03619 0.0
O32 O 0.38125 0.98937 0.0215 0.0
O33 O 0.36722 0.0263 0.0039 0.0
C34 C 0.37347 0.99002 0.97289 0.0
O35 O 0.36118 0.97755 0.97988 0.0
C36 C 0.33595 0.98246 -0.00149 0.0
O37 O 0.33916 0.9882 0.97868 0.0
O38 O 0.38079 0.00981 0.0347 0.0
C39 C 0.97432 0.65225 0.01717 0.0
O40 O 0.9859 0.66314 0.02861 0.0
O41 O 0.01264 0.66228 0.01314 0.0
Zn42 Zn 0.99433 0.64033 0.01086 0.0
O43 O 0.9957 0.62889 0.98405 0.0
C44 C 0.98142 0.6193 0.04792 0.0
O45 O 0.96883 0.61885 0.04309 0.0
O46 O 0.97524 0.64122 0.00845 0.0
C47 C 0.00436 0.62347 0.98428 0.0
O48 O 0.01288 0.62611 0.0017 0.0
C49 C 0.02344 0.66828 -0.00078 0.0
O50 O 0.02325 0.6599 0.9822 0.0
O51 O 0.99346 0.62802 0.0371 0.0
C52 C 0.32453 0.35161 0.00147 0.0
O53 O 0.32453 0.34037 0.99019 0.0
O54 O 0.353 0.34211 -0.00093 0.0
Zn55 Zn 0.35695 0.36366 0.00465 0.0
O56 O 0.37039 0.37347 0.03146 0.0
C57 C 0.38238 0.38173 0.97703 0.0
O58 O 0.38844 0.37686 0.99108 0.0
O59 O 0.33704 0.36278 0.00914 0.0
C60 C 0.37671 0.38802 0.03459 0.0
O61 O 0.37358 0.39585 0.02105 0.0
C62 C 0.35115 0.33317 0.01467 0.0
O63 O 0.35201 0.33811 0.03514 0.0
O64 O 0.36836 0.37715 0.97888 0.0
C65 C 0.64834 0.97396 0.99546 0.0
O66 O 0.65943 0.98579 0.98515 0.0
O67 O 0.6608 0.01313 0.00509 0.0
Zn68 Zn 0.63867 0.99568 0.00509 0.0
O69 O 0.62771 0.99651 0.03245 0.0
C70 C 0.63238 0.00877 0.96752 0.0
O71 O 0.64603 0.02073 0.97179 0.0
O72 O 0.63798 0.97538 0.00464 0.0
C73 C 0.62126 0.0043 0.03286 0.0
O74 O 0.62261 0.01258 0.01578 0.0
C75 C 0.66612 0.02666 0.01338 0.0
O76 O 0.65686 0.0302 0.0231 0.0
O77 O 0.62728 0.99668 0.97887 0.0
C78 C 0.69915 0.69026 0.34518 0.0
O79 O 0.68643 0.68014 0.35488 0.0
O80 O 0.66208 0.67944 0.32913 0.0
Zn81 Zn 0.68022 0.70138 0.33207 0.0
O82 O 0.67861 0.71213 0.3595 0.0
C83 C 0.67293 0.7197 0.30634 0.0
O84 O 0.66317 0.71624 0.3225 0.0
O85 O 0.6994 0.70078 0.33397 0.0
C86 C 0.68813 0.7266 0.36168 0.0
O87 O 0.69873 0.73352 0.34667 0.0
C88 C 0.64882 0.67535 0.33593 0.0
O89 O 0.64645 0.68579 0.3451 0.0
O90 O 0.68143 0.71408 0.30617 0.0
C91 C 0.34146 0.98293 0.34932 0.0
O92 O 0.34099 0.99152 0.36553 0.0
O93 O 0.31399 0.99576 0.34524 0.0
Zn94 Zn 0.30991 0.9739 0.34257 0.0
O95 O 0.2961 0.96232 0.31648 0.0
C96 C 0.29051 0.96358 0.38132 0.0
O97 O 0.28732 0.97392 0.3754 0.0
O98 O 0.32967 0.97468 0.33752 0.0
C99 C 0.28167 0.95409 0.31796 0.0
O100 O 0.27518 0.95315 0.33705 0.0
C101 C 0.30453 0.9993 0.33885 0.0
O102 O 0.29154 0.98846 0.33017 0.0
O103 O 0.30011 0.96194 0.37021 0.0
C104 C 0.02121 0.36652 0.34828 0.0
O105 O 0.01092 0.35578 0.36101 0.0
O106 O 0.01206 0.32676 0.34959 0.0
Zn107 Zn 0.03297 0.34579 0.34476 0.0
O108 O 0.04352 0.34254 0.31865 0.0
C109 C 0.05132 0.34041 0.37294 0.0
O110 O 0.0465 0.32868 0.35888 0.0
O111 O 0.03155 0.36471 0.33985 0.0
C112 C 0.03872 0.32971 0.30831 0.0
O113 O 0.02551 0.31762 0.31358 0.0
C114 C 1.00092 0.32282 0.33668 0.0
O115 O 0.00296 0.33134 0.31956 0.0
O116 O 0.04652 0.3496 0.37101 0.0
C117 C 0.64353 0.98946 0.35402 0.0
O118 O 0.6562 1.00106 0.36243 0.0
O119 O 0.68045 0.99363 0.35507 0.0
Zn120 Zn 0.66034 0.97334 0.35087 0.0
O121 O 0.66052 0.96178 0.32323 0.0
C122 C 0.66494 0.95384 0.37878 0.0
O123 O 0.67649 0.95826 0.36536 0.0
O124 O 0.64291 0.97698 0.34833 0.0
C125 C 0.67238 0.96272 0.3151 0.0
O126 O 0.68568 0.97236 0.32414 0.0
C127 C 0.68658 0.00333 0.33972 0.0
O128 O 0.67968 1.00011 0.32054 0.0
O129 O 0.6564 0.95926 0.37646 0.0
C130 C 0.99482 0.68858 0.32948 0.0
O131 O 0.99482 0.67646 0.32128 0.0
O132 O 0.02391 0.67975 0.33458 0.0
Zn133 Zn 0.02738 0.70131 0.33515 0.0
O134 O 0.03921 0.71277 0.36243 0.0
C135 C 0.04335 0.70737 0.293 0.0
O136 O 0.03705 0.69227 0.29179 0.0
O137 O 0.00732 0.70041 0.33585 0.0
C138 C 0.04485 0.7273 0.3641 0.0
O139 O 0.04239 0.73429 0.34826 0.0
C140 C 0.03482 0.6777 0.33819 0.0
O141 O 0.0484 0.6898 0.3425 0.0
O142 O 0.04032 0.71343 0.30931 0.0
C143 C 0.30437 0.29985 0.34271 0.0
O144 O 0.29272 0.29836 0.35394 0.0
O145 O 0.32963 0.35073 0.33668 0.0
Zn146 Zn 0.30945 0.3303 0.33473 0.0
O147 O 0.29665 0.32823 0.3613 0.0
C148 C 0.30125 0.34246 0.29847 0.0
O149 O 0.31401 0.35525 0.30393 0.0
O150 O 0.31293 0.31236 0.33266 0.0
C151 C 0.29201 0.33758 0.36365 0.0
O152 O 0.29665 0.34885 0.34968 0.0
C153 C 0.34234 0.3517 0.33878 0.0
O154 O 0.34259 0.33896 0.34045 0.0
O155 O 0.29738 0.33011 0.30858 0.0
C156 C 0.37515 0.04464 0.68001 0.0
O157 O 0.37815 0.05876 0.67714 0.0
O158 O 0.32438 0.01618 0.66829 0.0
Zn159 Zn 0.34402 0.03671 0.67386 0.0
O160 O 0.34113 0.04771 0.69983 0.0
C161 C 0.33822 0.05016 0.63723 0.0
O162 O 0.32408 0.03979 0.64219 0.0
O163 O 0.36139 0.03342 0.67937 0.0
C164 C 0.33099 0.0408 0.71444 0.0
O165 O 0.32236 0.02563 0.71354 0.0
C166 C 0.32259 0.00328 0.6736 0.0
O167 O 0.33398 0.00306 0.68255 0.0
O168 O 0.34893 0.05071 0.64811 0.0
C169 C 0.01339 0.31807 0.68153 0.0
O170 O 0.01374 0.33072 0.68795 0.0
O171 O 0.98457 0.32669 0.68126 0.0
Zn172 Zn 0.9806 0.30485 0.67975 0.0
O173 O 0.96806 0.29276 0.65288 0.0
C174 C 0.95957 0.29472 0.71675 0.0
O175 O 0.95658 0.30494 0.7096 0.0
O176 O 1.00063 0.3058 0.67744 0.0
C177 C 0.95359 0.28479 0.65302 0.0
O178 O 0.94631 0.28488 0.67085 0.0
C179 C 0.9759 0.33085 0.6735 0.0
O180 O 0.96319 0.3205 0.66363 0.0
O181 O 0.96964 0.29308 0.70703 0.0
C182 C 0.69178 0.69906 0.68369 0.0
O183 O 0.68169 0.68832 0.69662 0.0
O184 O 0.67968 0.65956 0.68282 0.0
Zn185 Zn 0.70156 0.67712 0.67845 0.0
O186 O 0.71104 0.67288 0.65183 0.0
C187 C 0.72341 0.69197 0.715 0.0
O188 O 0.72358 0.70455 0.70984 0.0
O189 O 0.70165 0.69696 0.6742 0.0
C190 C 0.71728 0.66501 0.65423 0.0
O191 O 0.71675 0.65931 0.67361 0.0
C192 C 0.67415 0.64557 0.67638 0.0
O193 O 0.68297 0.64163 0.6662 0.0
O194 O 0.71456 0.67932 0.70464 0.0
C195 C 0.31078 0.31539 0.66102 0.0
O196 O 0.3212 0.31956 0.64564 0.0
O197 O 0.34979 0.32722 0.68178 0.0
Zn198 Zn 0.32995 0.30649 0.68037 0.0
O199 O 0.33036 0.29463 0.6535 0.0
C200 C 0.33789 0.28984 0.70813 0.0
O201 O 0.34849 0.29426 0.69297 0.0
O202 O 0.31196 0.30926 0.67827 0.0
C203 C 0.32111 0.28009 0.65175 0.0
O204 O 0.31094 0.27305 0.66728 0.0
C205 C 0.35048 0.33983 0.68674 0.0
O206 O 0.33789 0.33954 0.69145 0.0
O207 O 0.32831 0.29407 0.70679 0.0
C208 C 0.66339 0.0222 0.6785 0.0
O209 O 0.66814 0.0162 0.69288 0.0
O210 O 0.69257 0.01383 0.66166 0.0
Zn211 Zn 0.69374 0.0344 0.66298 0.0
O212 O 0.70478 0.04663 0.69054 0.0
C213 C 0.70247 0.05678 0.62858 0.0
O214 O 0.6908 0.05743 0.63596 0.0
O215 O 0.67244 0.03054 0.66347 0.0
C216 C 0.7191 0.05606 0.6902 0.0
O217 O 0.72662 0.05731 0.67197 0.0
C218 C 0.70431 0.01282 0.65988 0.0
O219 O 0.71777 0.02556 0.65884 0.0
O220 O 0.70545 0.04733 0.637 0.0
C221 C 0.98553 0.64331 0.68202 0.0
O222 O 0.99498 0.65511 0.69477 0.0
O223 O 1.00029 0.68276 0.66965 0.0
Zn224 Zn 0.9781 0.66545 0.6698 0.0
O225 O 0.96712 0.66698 0.69654 0.0
C226 C 0.96937 0.68 0.63847 0.0
O227 O 0.97968 0.69248 0.64929 0.0
O228 O 0.97674 0.64483 0.6693 0.0
C229 C 0.95268 0.65844 0.69623 0.0
O230 O 0.94605 0.64885 0.67936 0.0
C231 C 0.00573 0.69513 0.68138 0.0
O232 O 0.99664 0.69712 0.6945 0.0
O233 O 0.96713 0.6669 0.64362 0.0
H234 H 0.22005 0.35201 0.12436 0.0
H235 H 0.17974 0.34001 0.08847 0.0
H236 H 0.18092 0.34473 0.15982 0.0
H237 H 0.15623 0.32889 0.15676 0.0
H238 H 0.12164 0.33307 0.12577 0.0
H239 H 0.1636 0.34846 0.09185 0.0
C240 C 0.20845 0.34946 0.12428 0.0
C241 C 0.20112 0.3483 0.14425 0.0
C242 C 0.20086 0.34668 0.10422 0.0
C243 C 0.18559 0.34261 0.10412 0.0
C244 C 0.17806 0.34202 0.1241 0.0
C245 C 0.18608 0.34484 0.14415 0.0
C246 C 0.1621 0.33884 0.12411 0.0
C247 C 0.15255 0.3324 0.14268 0.0
C248 C 0.13803 0.33038 0.14334 0.0
C249 C 0.13277 0.33438 0.12517 0.0
C250 C 0.14189 0.3407 0.1066 0.0
C251 C 0.15651 0.34294 0.10602 0.0
H252 H 0.65403 0.87386 0.11944 0.0
H253 H 0.6657 0.84545 0.08128 0.0
H254 H 0.6633 0.84317 0.15259 0.0
H255 H 0.67911 0.83564 0.14925 0.0
H256 H 0.67887 0.79785 0.11597 0.0
H257 H 0.6611 0.82161 0.08285 0.0
C258 C 0.65675 0.86487 0.11873 0.0
C259 C 0.65893 0.85936 0.13827 0.0
C260 C 0.65883 0.85961 0.09822 0.0
C261 C 0.66347 0.84881 0.09726 0.0
C262 C 0.66516 0.84252 0.11679 0.0
C263 C 0.66261 0.84787 0.13722 0.0
C264 C 0.66957 0.83051 0.11607 0.0
C265 C 0.67626 0.82826 0.13468 0.0
C266 C 0.67923 0.81626 0.13504 0.0
C267 C 0.67682 0.8073 0.11588 0.0
C268 C 0.67071 0.80954 0.09697 0.0
C269 C 0.66666 0.82077 0.09723 0.0
H270 H 0.21589 0.88256 0.10613 0.0
H271 H 0.18311 0.84165 0.07062 0.0
H272 H 0.17858 0.84623 0.14114 0.0
H273 H 0.16683 0.82114 0.14007 0.0
H274 H 0.12655 0.78568 0.10771 0.0
H275 H 0.15783 0.82602 0.07206 0.0
C276 C 0.20558 0.87118 0.1062 0.0
C277 C 0.1982 0.86496 0.12609 0.0
C278 C 0.20003 0.86293 0.0863 0.0
C279 C 0.18684 0.84808 0.08611 0.0
C280 C 0.17871 0.8417 0.10588 0.0
C281 C 0.18451 0.85053 0.12574 0.0
C282 C 0.1644 0.82592 0.10604 0.0
C283 C 0.15981 0.81709 0.12542 0.0
C284 C 0.14616 0.8027 0.1261 0.0
C285 C 0.13715 0.7968 0.1072 0.0
C286 C 0.14142 0.80507 0.08773 0.0
C287 C 0.15499 0.8196 0.0871 0.0
H288 H 0.32914 0.12031 0.90449 0.0
H289 H 0.34077 0.16297 0.93749 0.0
H290 H 0.31969 0.15146 0.87279 0.0
H291 H 0.33216 0.17671 0.86966 0.0
H292 H 0.32832 0.21156 0.90501 0.0
H293 H 0.32902 0.17631 0.94102 0.0
C294 C 0.32916 0.13102 0.90478 0.0
C295 C 0.32405 0.135 0.88641 0.0
C296 C 0.33497 0.14097 0.9232 0.0
C297 C 0.33574 0.15521 0.92336 0.0
C298 C 0.33021 0.15935 0.90522 0.0
C299 C 0.32431 0.14896 0.88683 0.0
C300 C 0.33041 0.17428 0.90532 0.0
C301 C 0.33097 0.18138 0.88525 0.0
C302 C 0.32969 0.19448 0.88504 0.0
C303 C 0.32883 0.20115 0.90501 0.0
C304 C 0.32899 0.19484 0.92506 0.0
C305 C 0.32956 0.18133 0.9253 0.0
H306 H 0.78262 0.12676 0.90074 0.0
H307 H 0.82162 0.1594 0.93869 0.0
H308 H 0.81879 0.16665 0.86938 0.0
H309 H 0.84375 0.1767 0.871 0.0
H310 H 0.87829 0.21688 0.90589 0.0
H311 H 0.83667 0.18573 0.93894 0.0
C312 C 0.79357 0.13752 0.90161 0.0
C313 C 0.79994 0.14606 0.88259 0.0
C314 C 0.80122 0.14248 0.92179 0.0
C315 C 0.81566 0.15605 0.92306 0.0
C316 C 0.82244 0.16489 0.90409 0.0
C317 C 0.81423 0.15984 0.88401 0.0
C318 C 0.83806 0.17917 0.90493 0.0
C319 C 0.84746 0.1837 0.88603 0.0
C320 C 0.86188 0.19728 0.88632 0.0
C321 C 0.86719 0.20626 0.9057 0.0
C322 C 0.85819 0.20205 0.92464 0.0
C323 C 0.84365 0.18855 0.92432 0.0
H324 H 0.80077 0.68486 0.89669 0.0
H325 H 0.82477 0.66637 0.92706 0.0
H326 H 0.83727 0.6856 0.86174 0.0
H327 H 0.84768 0.67211 0.85796 0.0
H328 H 0.87958 0.66542 0.89213 0.0
H329 H 0.84829 0.67242 0.92957 0.0
C330 C 0.80997 0.68264 0.89622 0.0
C331 C 0.81857 0.68554 0.87704 0.0
C332 C 0.81238 0.67598 0.9143 0.0
C333 C 0.82364 0.67217 0.91323 0.0
C334 C 0.83319 0.6758 0.89452 0.0
C335 C 0.83036 0.6825 0.87642 0.0
C336 C 0.84594 0.67264 0.89386 0.0
C337 C 0.85219 0.67137 0.87351 0.0
C338 C 0.86469 0.66944 0.87295 0.0
C339 C 0.8702 0.66738 0.89259 0.0
C340 C 0.86397 0.66797 0.91284 0.0
C341 C 0.85228 0.67115 0.91357 0.0
H342 H 0.89202 0.68915 0.45657 0.0
H343 H 0.85158 0.67712 0.42087 0.0
H344 H 0.85295 0.68196 0.49215 0.0
H345 H 0.82814 0.66572 0.48887 0.0
H346 H 0.7942 0.67154 0.45903 0.0
H347 H 0.83591 0.68633 0.42473 0.0
C348 C 0.88041 0.68659 0.45651 0.0
C349 C 0.87312 0.68548 0.4765 0.0
C350 C 0.87275 0.68373 0.43648 0.0
C351 C 0.85749 0.67972 0.43647 0.0
C352 C 0.85004 0.67921 0.45649 0.0
C353 C 0.85809 0.68204 0.47648 0.0
C354 C 0.83417 0.67622 0.45662 0.0
C355 C 0.82457 0.66962 0.47511 0.0
C356 C 0.8102 0.66798 0.47609 0.0
C357 C 0.80518 0.67254 0.45824 0.0
C358 C 0.81433 0.67894 0.4397 0.0
C359 C 0.82877 0.68076 0.43884 0.0
H360 H 0.33987 0.21685 0.44831 0.0
H361 H 0.3451 0.18333 0.41135 0.0
H362 H 0.33837 0.17974 0.4821 0.0
H363 H 0.35312 0.1702 0.47986 0.0
H364 H 0.34712 0.12929 0.44776 0.0
H365 H 0.33525 0.15768 0.41333 0.0
C366 C 0.34071 0.20663 0.44787 0.0
C367 C 0.33957 0.19926 0.46751 0.0
C368 C 0.3424 0.20078 0.42761 0.0
C369 C 0.34324 0.18738 0.42705 0.0
C370 C 0.34217 0.17968 0.44673 0.0
C371 C 0.33982 0.18558 0.46681 0.0
C372 C 0.34383 0.16582 0.44665 0.0
C373 C 0.34942 0.1625 0.46554 0.0
C374 C 0.35041 0.14925 0.46626 0.0
C375 C 0.34672 0.13975 0.44735 0.0
C376 C 0.3417 0.143 0.42813 0.0
C377 C 0.33983 0.15576 0.42797 0.0
H378 H 0.88675 0.21334 0.44586 0.0
H379 H 0.8463 0.18442 0.40798 0.0
H380 H 0.84817 0.17539 0.47678 0.0
H381 H 0.82414 0.16991 0.47554 0.0
H382 H 0.78572 0.1328 0.44167 0.0
H383 H 0.82858 0.15762 0.40815 0.0
C384 C 0.87527 0.20332 0.44486 0.0
C385 C 0.86831 0.19483 0.46371 0.0
C386 C 0.86749 0.19946 0.42478 0.0
C387 C 0.85238 0.18693 0.42342 0.0
C388 C 0.84502 0.17822 0.4423 0.0
C389 C 0.85332 0.18215 0.46224 0.0
C390 C 0.82855 0.16561 0.44175 0.0
C391 C 0.81942 0.16286 0.46068 0.0
C392 C 0.80406 0.15103 0.46071 0.0
C393 C 0.79753 0.14222 0.44147 0.0
C394 C 0.80624 0.14459 0.42246 0.0
C395 C 0.8218 0.15616 0.42268 0.0
H396 H 0.0203 0.47223 0.22478 0.0
H397 H 0.00716 0.49897 0.26415 0.0
H398 H 0.01202 0.5043 0.19337 0.0
H399 H 0.99441 0.51007 0.19737 0.0
H400 H 0.99361 0.54672 0.23245 0.0
H401 H 0.01354 0.52396 0.26312 0.0
C402 C 0.01757 0.48119 0.22594 0.0
C403 C 0.01619 0.48762 0.20671 0.0
C404 C 0.01465 0.48548 0.24664 0.0
C405 C 0.00999 0.49624 0.24812 0.0
C406 C 0.00897 0.50333 0.22897 0.0
C407 C 0.0123 0.49893 0.20835 0.0
C408 C 0.00436 0.51513 0.23028 0.0
C409 C 0.99717 0.51723 0.21217 0.0
C410 C 0.99343 0.52868 0.21285 0.0
C411 C 0.99615 0.5376 0.23212 0.0
C412 C 0.00319 0.5358 0.25036 0.0
C413 C 0.00752 0.52477 0.24927 0.0
H414 H 0.45962 0.45506 0.2314 0.0
H415 H 0.48736 0.49748 0.26777 0.0
H416 H 0.49647 0.4935 0.19877 0.0
H417 H 0.50511 0.51826 0.1992 0.0
H418 H 0.54133 0.55702 0.23424 0.0
H419 H 0.51247 0.51526 0.26861 0.0
C420 C 0.46942 0.46679 0.232 0.0
C421 C 0.47745 0.4735 0.21268 0.0
C422 C 0.47317 0.47531 0.25187 0.0
C423 C 0.48511 0.49088 0.25248 0.0
C424 C 0.49387 0.49781 0.23342 0.0
C425 C 0.48993 0.48879 0.21364 0.0
C426 C 0.50683 0.51441 0.2339 0.0
C427 C 0.51129 0.52314 0.21446 0.0
C428 C 0.52382 0.5384 0.21439 0.0
C429 C 0.53148 0.54531 0.23414 0.0
C430 C 0.52721 0.5371 0.25364 0.0
C431 C 0.51512 0.52161 0.25352 0.0
H432 H 0.4581 0.00341 0.23093 0.0
H433 H 0.48632 0.99213 0.26668 0.0
H434 H 0.49937 0.01123 0.2015 0.0
H435 H 0.50818 0.99562 0.19899 0.0
H436 H 0.54248 0.99336 0.2344 0.0
H437 H 0.51169 0.00229 0.27 0.0
C438 C 0.46851 0.00327 0.23197 0.0
C439 C 0.47838 0.00783 0.21396 0.0
C440 C 0.4715 0.9979 0.25103 0.0
C441 C 0.48458 0.99698 0.25218 0.0
C442 C 0.49479 0.0015 0.23421 0.0
C443 C 0.49163 0.00725 0.21535 0.0
C444 C 0.50817 0.99943 0.23445 0.0
C445 C 0.51368 0.99662 0.21451 0.0
C446 C 0.52615 0.99463 0.21431 0.0
C447 C 0.53277 0.99478 0.23432 0.0
C448 C 0.52741 0.99723 0.25432 0.0
C449 C 0.51537 0.99992 0.25441 0.0
H450 H 0.55712 0.02389 0.78847 0.0
H451 H 0.51672 0.01061 0.75184 0.0
H452 H 0.51719 0.01524 0.82309 0.0
H453 H 0.49286 0.9973 0.81916 0.0
H454 H 0.4562 0.99745 0.78757 0.0
H455 H 0.49954 0.0182 0.7555 0.0
C456 C 0.54545 0.02112 0.78816 0.0
C457 C 0.53788 0.01968 0.80801 0.0
C458 C 0.53795 0.01808 0.76793 0.0
C459 C 0.52254 0.01349 0.76756 0.0
C460 C 0.51473 0.01252 0.78738 0.0
C461 C 0.52266 0.01569 0.80757 0.0
C462 C 0.49838 0.00805 0.7871 0.0
C463 C 0.48874 1.00041 0.80513 0.0
C464 C 0.47361 0.99669 0.80538 0.0
C465 C 0.46778 0.99995 0.7871 0.0
C466 C 0.47701 0.00754 0.769 0.0
C467 C 0.49235 0.01179 0.76918 0.0
H468 H 0.98486 0.53656 0.78467 0.0
H469 H 0.98165 0.49816 0.74852 0.0
H470 H 0.9951 0.50632 0.81736 0.0
H471 H 0.98369 0.48106 0.81761 0.0
H472 H 0.98951 0.44742 0.78258 0.0
H473 H 0.99414 0.48573 0.74769 0.0
C474 C 0.98568 0.52632 0.7843 0.0
C475 C 0.98967 0.52198 0.80348 0.0
C476 C 0.98305 0.51794 0.7645 0.0
C477 C 0.98432 0.50482 0.76381 0.0
C478 C 0.98844 0.50014 0.78292 0.0
C479 C 0.99151 0.50921 0.80256 0.0
C480 C 0.98899 0.48561 0.7827 0.0
C481 C 0.98638 0.47731 0.8023 0.0
C482 C 0.98667 0.46366 0.80229 0.0
C483 C 0.98931 0.45801 0.78263 0.0
C484 C 0.99181 0.46584 0.76301 0.0
C485 C 0.9918 0.47967 0.76299 0.0
H486 H 0.55626 0.54382 0.78495 0.0
H487 H 0.51482 0.51556 0.74901 0.0
H488 H 0.5181 0.50654 0.81744 0.0
H489 H 0.49412 0.49979 0.81803 0.0
H490 H 0.45526 0.46274 0.78473 0.0
H491 H 0.49662 0.4898 0.74878 0.0
C492 C 0.54468 0.53395 0.78446 0.0
C493 C 0.53797 0.52575 0.80361 0.0
C494 C 0.53648 0.53008 0.76478 0.0
C495 C 0.52117 0.51794 0.76416 0.0
C496 C 0.51412 0.50932 0.78325 0.0
C497 C 0.52289 0.51321 0.80273 0.0
C498 C 0.49764 0.49663 0.78332 0.0
C499 C 0.48909 0.49307 0.80303 0.0
C500 C 0.47392 0.48072 0.80377 0.0
C501 C 0.46689 0.4725 0.78429 0.0
C502 C 0.47493 0.47595 0.76443 0.0
C503 C 0.49037 0.48775 0.76403 0.0
H504 H 0.68204 0.79865 0.56362 0.0
H505 H 0.67547 0.83089 0.60158 0.0
H506 H 0.67503 0.83081 0.53006 0.0
H507 H 0.65964 0.8392 0.53489 0.0
H508 H 0.66335 0.87902 0.56709 0.0
H509 H 0.68254 0.85573 0.59805 0.0
C510 C 0.68009 0.80817 0.56427 0.0
C511 C 0.67794 0.81367 0.54471 0.0
C512 C 0.67967 0.81466 0.58466 0.0
C513 C 0.67651 0.82655 0.58558 0.0
C514 C 0.67472 0.83269 0.56594 0.0
C515 C 0.67591 0.82629 0.54551 0.0
C516 C 0.67138 0.84547 0.56657 0.0
C517 C 0.66365 0.84722 0.54885 0.0
C518 C 0.66094 0.8594 0.5488 0.0
C519 C 0.66514 0.8694 0.56719 0.0
C520 C 0.67265 0.86793 0.58507 0.0
C521 C 0.67609 0.85623 0.58454 0.0
H522 H 0.12264 0.79 0.57132 0.0
H523 H 0.16185 0.82429 0.60742 0.0
H524 H 0.15766 0.82909 0.53752 0.0
H525 H 0.18223 0.84041 0.53768 0.0
H526 H 0.21845 0.88008 0.57098 0.0
H527 H 0.1777 0.85003 0.60652 0.0
C528 C 0.13366 0.8007 0.57157 0.0
C529 C 0.13962 0.80864 0.55204 0.0
C530 C 0.14147 0.80646 0.59154 0.0
C531 C 0.15571 0.82036 0.59197 0.0
C532 C 0.16207 0.82868 0.57242 0.0
C533 C 0.15352 0.82284 0.55267 0.0
C534 C 0.17774 0.84301 0.57225 0.0
C535 C 0.18649 0.84737 0.55267 0.0
C536 C 0.201 0.8608 0.55208 0.0
C537 C 0.20729 0.86956 0.57141 0.0
C538 C 0.19899 0.86556 0.59101 0.0
C539 C 0.18415 0.85252 0.5914 0.0
H540 H 0.1318 0.34626 0.56137 0.0
H541 H 0.15539 0.32711 0.5913 0.0
H542 H 0.16686 0.34475 0.52519 0.0
H543 H 0.17285 0.32707 0.52106 0.0
H544 H 0.20458 0.31862 0.55233 0.0
H545 H 0.17983 0.33363 0.59178 0.0
C546 C 0.14082 0.34378 0.56065 0.0
C547 C 0.1489 0.34599 0.54105 0.0
C548 C 0.14333 0.33725 0.57884 0.0
C549 C 0.15414 0.33284 0.57745 0.0
C550 C 0.16299 0.33557 0.55822 0.0
C551 C 0.16027 0.34233 0.54015 0.0
C552 C 0.17458 0.33087 0.55668 0.0
C553 C 0.17838 0.32699 0.53602 0.0
C554 C 0.18929 0.32274 0.53435 0.0
C555 C 0.19594 0.32163 0.55353 0.0
C556 C 0.19236 0.32526 0.57422 0.0
C557 C 0.18199 0.33025 0.57574 0.0
C558 C 0.99224 0.40016 0.05042 0.0
C559 C 1.00155 0.39388 0.04943 0.0
C560 C 0.99485 0.41156 0.06626 0.0
C561 C 0.01405 0.42843 0.11975 0.0
H562 H 0.00915 0.46242 0.10436 0.0
C563 C 0.02906 0.47798 0.18157 0.0
C564 C 0.0176 0.48134 0.18503 0.0
C565 C 0.02859 0.46916 0.1632 0.0
C566 C 0.01052 0.45297 0.10889 0.0
H567 H 0.0209 0.39462 0.06435 0.0
H568 H 0.0256 0.41465 0.09174 0.0
H569 H 0.00501 0.44278 0.07639 0.0
H570 H 0.99724 0.47902 0.17117 0.0
H571 H 0.99647 0.46369 0.13891 0.0
H572 H 0.01953 0.43857 0.15221 0.0
C573 C 0.01611 0.4106 0.08052 0.0
C574 C 0.00808 0.44168 0.09292 0.0
C575 C 0.01345 0.39914 0.06476 0.0
C576 C 0.0063 0.47671 0.16887 0.0
C577 C 0.00583 0.46789 0.15043 0.0
C578 C 0.01657 0.43975 0.13564 0.0
C579 C 0.00688 0.417 0.08142 0.0
C580 C 0.00974 0.42921 0.0982 0.0
C581 C 0.01666 0.46355 0.14785 0.0
C582 C 0.01478 0.45211 0.13042 0.0
H583 H 0.98294 0.39632 0.03889 0.0
H584 H 0.98734 0.41603 0.06673 0.0
H585 H 0.01516 0.41886 0.12454 0.0
H586 H 0.03806 0.48163 0.19359 0.0
H587 H 0.03728 0.46629 0.16139 0.0
C588 C 0.61524 0.63155 0.0881 0.0
C589 C 0.62083 0.62584 0.0716 0.0
C590 C 0.60327 0.62137 0.10167 0.0
C591 C 0.58323 0.58138 0.12172 0.0
H592 H 0.55145 0.58958 0.13678 0.0
C593 C 0.53296 0.53964 0.17568 0.0
C594 C 0.5301 0.54681 0.19359 0.0
C595 C 0.54197 0.54841 0.1581 0.0
C596 C 0.56026 0.58716 0.13276 0.0
H597 H 0.61831 0.60493 0.0566 0.0
H598 H 0.59745 0.58725 0.0802 0.0
H599 H 0.57202 0.60691 0.11228 0.0
H600 H 0.53326 0.56849 0.20626 0.0
H601 H 0.54904 0.58382 0.17574 0.0
H602 H 0.57166 0.56181 0.14245 0.0
C603 C 0.60239 0.59959 0.08279 0.0
C604 C 0.57207 0.59711 0.11881 0.0
C605 C 0.61435 0.60974 0.06922 0.0
C606 C 0.53541 0.56269 0.19275 0.0
C607 C 0.54438 0.57145 0.17519 0.0
C608 C 0.57142 0.57143 0.13565 0.0
C609 C 0.59663 0.60527 0.09907 0.0
C610 C 0.58379 0.59443 0.11331 0.0
C611 C 0.54823 0.56451 0.15806 0.0
C612 C 0.55988 0.57428 0.14153 0.0
H613 H 0.61998 0.64387 0.09037 0.0
H614 H 0.59926 0.62614 0.1143 0.0
H615 H 0.59216 0.57908 0.11806 0.0
H616 H 0.52909 0.52744 0.17591 0.0
H617 H 0.54451 0.54268 0.14494 0.0
C618 C 0.40401 0.99458 0.05229 0.0
C619 C 0.39675 0.00304 0.05345 0.0
C620 C 0.41461 0.99676 0.06825 0.0
C621 C 0.43931 0.02372 0.11303 0.0
H622 H 0.43868 0.9873 0.13239 0.0
C623 C 0.46736 0.02081 0.19337 0.0
C624 C 0.47377 0.01153 0.19309 0.0
C625 C 0.46019 0.02174 0.17463 0.0
C626 C 0.4392 0.99763 0.12692 0.0
H627 H 0.39499 0.0205 0.07228 0.0
H628 H 0.41323 0.02402 0.10059 0.0
H629 H 0.42118 0.98466 0.10382 0.0
H630 H 0.47853 0.99674 0.17258 0.0
H631 H 0.46613 0.99849 0.13977 0.0
H632 H 0.45709 0.03656 0.13682 0.0
C633 C 0.41094 0.0159 0.08706 0.0
C634 C 0.42914 0.99613 0.11052 0.0
C635 C 0.40039 0.0138 0.07093 0.0
C636 C 0.47377 0.00405 0.17327 0.0
C637 C 0.46651 0.0049 0.15457 0.0
C638 C 0.44933 0.0252 0.12961 0.0
C639 C 0.41814 0.00734 0.08595 0.0
C640 C 0.42903 0.00913 0.10335 0.0
C641 C 0.4592 0.01334 0.15528 0.0
C642 C 0.44936 0.01215 0.13674 0.0
H643 H 0.40162 0.98631 0.03891 0.0
H644 H 0.42013 0.99019 0.06657 0.0
H645 H 0.4397 0.03401 0.10772 0.0
H646 H 0.46731 0.0268 0.20839 0.0
H647 H 0.45464 0.02831 0.17573 0.0
C648 C 0.39856 1.00069 0.95392 0.0
C649 C 0.3833 0.98869 0.95616 0.0
C650 C 0.40813 0.99914 0.93902 0.0
C651 C 0.40817 0.97993 0.88769 0.0
H652 H 0.44837 0.99032 0.90598 0.0
C653 C 0.44916 0.9786 0.82443 0.0
C654 C 0.46422 0.99121 0.82555 0.0
C655 C 0.43924 0.97555 0.8421 0.0
C656 C 0.43724 0.98749 0.90052 0.0
H657 H 0.36604 0.96574 0.94431 0.0
H658 H 0.38272 0.96322 0.91775 0.0
H659 H 0.431 0.99099 0.93301 0.0
H660 H 0.48097 0.01004 0.84628 0.0
H661 H 0.46367 0.00508 0.87686 0.0
H662 H 0.41451 0.97721 0.85508 0.0
C663 C 0.38727 0.97374 0.92775 0.0
C664 C 0.42728 0.98783 0.91604 0.0
C665 C 0.37774 0.97519 0.94294 0.0
C666 C 0.46945 1.00013 0.84513 0.0
C667 C 0.45948 0.99725 0.86268 0.0
C668 C 0.41818 0.97982 0.8721 0.0
C669 C 0.40258 0.98566 0.9258 0.0
C670 C 0.41273 0.98424 0.90971 0.0
C671 C 0.4441 0.98523 0.86111 0.0
C672 C 0.43294 0.98379 0.87823 0.0
H673 H 0.40322 0.01121 0.96396 0.0
H674 H 0.41984 0.00857 0.93764 0.0
H675 H 0.39705 0.97725 0.88235 0.0
H676 H 0.4449 0.97152 0.8095 0.0
H677 H 0.42761 0.96594 0.8405 0.0
C678 C 0.00479 0.39514 0.94857 0.0
C679 C 0.99364 0.37928 0.94944 0.0
C680 C 0.0034 0.40461 0.9337 0.0
C681 C 0.98512 0.40336 0.88158 0.0
H682 H 0.99213 0.44331 0.90123 0.0
C683 C 0.97357 0.43934 0.82345 0.0
C684 C 0.98465 0.45518 0.82268 0.0
C685 C 0.97351 0.43045 0.8406 0.0
C686 C 0.99025 0.43225 0.89543 0.0
H687 H 0.97242 0.36089 0.93514 0.0
H688 H 0.9701 0.37738 0.90907 0.0
H689 H 0.99503 0.42705 0.92721 0.0
H690 H 0.00389 0.47437 0.8396 0.0
H691 H 0.00404 0.4588 0.86952 0.0
H692 H 0.98068 0.40856 0.84978 0.0
C693 C 0.97991 0.38248 0.91989 0.0
C694 C 0.99193 0.42295 0.91031 0.0
C695 C 0.98123 0.37305 0.93486 0.0
C696 C 0.99515 0.46219 0.84001 0.0
C697 C 0.99522 0.45325 0.8571 0.0
C698 C 0.98355 0.41267 0.86671 0.0
C699 C 0.99092 0.39838 0.91926 0.0
C700 C 0.98933 0.40839 0.90353 0.0
C701 C 0.98469 0.43716 0.85719 0.0
C702 C 0.98603 0.42721 0.87343 0.0
H703 H 0.01447 0.40032 0.95964 0.0
H704 H 0.01215 0.41679 0.93342 0.0
H705 H 0.98328 0.39231 0.87579 0.0
H706 H 0.96532 0.43372 0.81026 0.0
H707 H 0.96498 0.4182 0.84046 0.0
C708 C 0.59891 0.60263 0.9689 0.0
C709 C 0.61489 0.61137 0.9688 0.0
C710 C 0.59087 0.59204 0.95176 0.0
C711 C 0.59486 0.58214 0.89405 0.0
H712 H 0.55816 0.54301 0.90696 0.0
C713 C 0.56206 0.53684 0.82557 0.0
C714 C 0.54642 0.53134 0.82478 0.0
C715 C 0.57062 0.54475 0.8443 0.0
C716 C 0.56837 0.5539 0.90312 0.0
H717 H 0.63498 0.61588 0.95061 0.0
H718 H 0.62096 0.59724 0.92086 0.0
H719 H 0.57288 0.561 0.93709 0.0
H720 H 0.52734 0.52901 0.84354 0.0
H721 H 0.54226 0.54268 0.87633 0.0
H722 H 0.5903 0.57509 0.8601 0.0
C723 C 0.61462 0.59873 0.93402 0.0
C724 C 0.57677 0.56424 0.92035 0.0
C725 C 0.62267 0.60939 0.95111 0.0
C726 C 0.53933 0.53298 0.84369 0.0
C727 C 0.54789 0.54085 0.86246 0.0
C728 C 0.58651 0.57177 0.87687 0.0
C729 C 0.59863 0.58988 0.93418 0.0
C730 C 0.59003 0.57856 0.91599 0.0
C731 C 0.56371 0.54726 0.86268 0.0
C732 C 0.5731 0.55761 0.88119 0.0
H733 H 0.59257 0.60392 0.98225 0.0
H734 H 0.57856 0.58564 0.95222 0.0
H735 H 0.60487 0.59315 0.89005 0.0
H736 H 0.56779 0.53551 0.81138 0.0
H737 H 0.58274 0.54929 0.84416 0.0
C738 C 0.01461 0.60858 0.96517 0.0
C739 C 0.00435 0.61374 0.96562 0.0
C740 C 0.0142 0.5989 0.94796 0.0
C741 C 0.99949 0.5855 0.89105 0.0
H742 H 0.00432 0.55105 0.90375 0.0
C743 C 0.98095 0.53522 0.82955 0.0
C744 C 0.99151 0.53085 0.82432 0.0
C745 C 0.98336 0.54512 0.84747 0.0
C746 C 0.00311 0.56072 0.89996 0.0
H747 H 0.98563 0.61279 0.94831 0.0
H748 H 0.98471 0.59574 0.91862 0.0
H749 H 0.00713 0.56921 0.93342 0.0
H750 H 0.01246 0.53275 0.8346 0.0
H751 H 0.01656 0.55001 0.86646 0.0
H752 H 0.99507 0.57678 0.85778 0.0
C753 C 0.9933 0.59938 0.93129 0.0
C754 C 0.00475 0.57115 0.91691 0.0
C755 C 0.99376 0.60911 0.94841 0.0
C756 C 0.00412 0.5359 0.83825 0.0
C757 C 0.00649 0.5458 0.8564 0.0
C758 C 0.99773 0.57503 0.87423 0.0
C759 C 0.00349 0.59412 0.93085 0.0
C760 C 0.00274 0.58355 0.91271 0.0
C761 C 0.99631 0.55081 0.86078 0.0
C762 C 0.99929 0.5624 0.87856 0.0
H763 H 0.02295 0.61197 0.97816 0.0
H764 H 0.02235 0.59525 0.94801 0.0
H765 H 0.99824 0.59511 0.88707 0.0
H766 H 0.97093 0.53121 0.81945 0.0
H767 H 0.97514 0.5485 0.85077 0.0
C768 C 0.38572 0.39809 0.94458 0.0
C769 C 0.39203 0.3931 0.96024 0.0
C770 C 0.395 0.40908 0.9291 0.0
C771 C 0.43283 0.42616 0.90269 0.0
H772 H 0.42522 0.45797 0.88525 0.0
C773 C 0.47295 0.47303 0.84289 0.0
C774 C 0.46575 0.47515 0.82504 0.0
C775 C 0.46455 0.46498 0.86132 0.0
C776 C 0.42745 0.44913 0.88992 0.0
H777 H 0.4131 0.3959 0.97207 0.0
H778 H 0.42924 0.41513 0.9454 0.0
H779 H 0.40914 0.43954 0.91316 0.0
H780 H 0.44438 0.47157 0.81328 0.0
H781 H 0.4297 0.45742 0.84538 0.0
H782 H 0.45103 0.43562 0.8794 0.0
C783 C 0.41709 0.41038 0.94475 0.0
C784 C 0.41821 0.43852 0.90584 0.0
C785 C 0.40782 0.39937 0.96012 0.0
C786 C 0.4502 0.46998 0.82669 0.0
C787 C 0.44182 0.46196 0.84515 0.0
C788 C 0.44208 0.43677 0.88688 0.0
C789 C 0.41082 0.41535 0.92899 0.0
C790 C 0.42074 0.42685 0.91234 0.0
C791 C 0.4488 0.45891 0.86233 0.0
C792 C 0.43948 0.44834 0.88022 0.0
H793 H 0.37359 0.39348 0.94422 0.0
H794 H 0.38975 0.41248 0.91702 0.0
H795 H 0.43496 0.41717 0.90696 0.0
H796 H 0.48488 0.47679 0.84209 0.0
H797 H 0.47031 0.46304 0.87447 0.0
C798 C 0.6071 0.99817 0.94893 0.0
C799 C 0.62246 0.01001 0.95135 0.0
C800 C 0.59752 0.99986 0.93474 0.0
C801 C 0.59813 0.0217 0.88679 0.0
H802 H 0.55723 0.00921 0.90529 0.0
C803 C 0.56075 0.03357 0.83246 0.0
C804 C 0.54581 0.02111 0.82893 0.0
C805 C 0.56954 0.0333 0.84951 0.0
C806 C 0.56858 0.01266 0.89983 0.0
H807 H 0.63983 0.03283 0.94053 0.0
H808 H 0.62316 0.03575 0.91583 0.0
H809 H 0.57381 0.00602 0.93007 0.0
H810 H 0.52801 0.99906 0.84122 0.0
H811 H 0.5434 0.99847 0.87097 0.0
H812 H 0.59294 0.02812 0.85648 0.0
C813 C 0.61853 0.02512 0.92479 0.0
C814 C 0.57807 0.0108 0.914 0.0
C815 C 0.62808 0.02346 0.93901 0.0
C816 C 0.53946 0.00887 0.84372 0.0
C817 C 0.54831 0.00854 0.86072 0.0
C818 C 0.58867 0.02352 0.87264 0.0
C819 C 0.60311 0.01339 0.92259 0.0
C820 C 0.59295 0.0153 0.90762 0.0
C821 C 0.56363 0.02049 0.8633 0.0
C822 C 0.57378 0.01905 0.87896 0.0
H823 H 0.6024 0.98767 0.95821 0.0
H824 H 0.58576 0.99053 0.93319 0.0
H825 H 0.60943 0.02504 0.88121 0.0
H826 H 0.56586 0.04321 0.82138 0.0
H827 H 0.58117 0.04289 0.85138 0.0
C828 C 0.60466 0.01213 0.0522 0.0
C829 C 0.61145 0.00321 0.0516 0.0
C830 C 0.59473 0.01053 0.06921 0.0
C831 C 0.58337 0.99602 0.12576 0.0
H832 H 0.54715 0.99677 0.1122 0.0
C833 C 0.53783 0.98259 0.19138 0.0
C834 C 0.53287 0.99309 0.19333 0.0
C835 C 0.54622 0.98273 0.17307 0.0
C836 C 0.55726 0.99663 0.11625 0.0
H837 H 0.61321 0.98568 0.06856 0.0
H838 H 0.59576 0.98275 0.0981 0.0
H839 H 0.56463 0.99954 0.08267 0.0
H840 H 0.53216 0.01145 0.17707 0.0
H841 H 0.54675 0.01163 0.14495 0.0
H842 H 0.57602 0.99312 0.15932 0.0
C843 C 0.59826 0.99115 0.08557 0.0
C844 C 0.56731 0.99826 0.09935 0.0
C845 C 0.60824 0.99279 0.06858 0.0
C846 C 0.53573 0.00314 0.17596 0.0
C847 C 0.54412 0.00326 0.15759 0.0
C848 C 0.57331 0.99433 0.14261 0.0
C849 C 0.59131 0.99993 0.08602 0.0
C850 C 0.58052 0.99803 0.10392 0.0
C851 C 0.5498 0.99334 0.15624 0.0
C852 C 0.56015 0.99464 0.13807 0.0
H853 H 0.60693 0.02031 0.03942 0.0
H854 H 0.5898 0.01768 0.06925 0.0
H855 H 0.59355 0.99605 0.12995 0.0
H856 H 0.53556 0.97451 0.20431 0.0
H857 H 0.55015 0.97471 0.17228 0.0
C858 C 0.9934 0.60623 0.06563 0.0
C859 C 0.98132 0.60883 0.06453 0.0
C860 C 0.99298 0.59573 0.08048 0.0
C861 C 0.97649 0.57731 0.13283 0.0
H862 H 0.98723 0.54752 0.11336 0.0
C863 C 0.97593 0.53493 0.19401 0.0
C864 C 0.98829 0.53277 0.19289 0.0
C865 C 0.97302 0.54188 0.17679 0.0
C866 C 0.98433 0.55584 0.11915 0.0
H867 H 0.95941 0.60257 0.0784 0.0
H868 H 0.95884 0.58444 0.10467 0.0
H869 H 0.98678 0.56494 0.08689 0.0
H870 H 0.00688 0.53554 0.17256 0.0
H871 H 1.0021 0.54799 0.14271 0.0
H872 H 0.97462 0.56879 0.16518 0.0
C873 C 0.96858 0.59049 0.09392 0.0
C874 C 0.98405 0.5658 0.10395 0.0
C875 C 0.96891 0.60084 0.07885 0.0
C876 C 0.99716 0.53689 0.1737 0.0
C877 C 0.99439 0.54405 0.15659 0.0
C878 C 0.97695 0.5675 0.14808 0.0
C879 C 0.98056 0.58774 0.09476 0.0
C880 C 0.98024 0.57672 0.11067 0.0
C881 C 0.98256 0.54708 0.1582 0.0
C882 C 0.98099 0.55669 0.14151 0.0
H883 H 0.00311 0.61214 0.05477 0.0
H884 H 0.00246 0.59398 0.08095 0.0
H885 H 0.97368 0.58572 0.13853 0.0
H886 H 0.96887 0.53177 0.20861 0.0
H887 H 0.96355 0.54361 0.17839 0.0
C888 C 0.39601 0.41244 0.05434 0.0
C889 C 0.38822 0.39622 0.05221 0.0
C890 C 0.40727 0.42033 0.07038 0.0
C891 C 0.42047 0.41507 0.1235 0.0
H892 H 0.45733 0.45382 0.10975 0.0
C893 C 0.46628 0.44902 0.18958 0.0
C894 C 0.47163 0.46492 0.19133 0.0
C895 C 0.45813 0.44031 0.17098 0.0
C896 C 0.44708 0.44305 0.11389 0.0
H897 H 0.38615 0.37554 0.06534 0.0
H898 H 0.40583 0.38933 0.09342 0.0
H899 H 0.43866 0.4391 0.0808 0.0
H900 H 0.47335 0.48431 0.17443 0.0
H901 H 0.45911 0.46914 0.14203 0.0
H902 H 0.42864 0.41915 0.15666 0.0
C903 C 0.40315 0.39593 0.08272 0.0
C904 C 0.43637 0.43462 0.0973 0.0
C905 C 0.39189 0.38804 0.0666 0.0
C906 C 0.46951 0.47211 0.17347 0.0
C907 C 0.46132 0.46339 0.15489 0.0
C908 C 0.43115 0.4235 0.14009 0.0
C909 C 0.411 0.41218 0.08473 0.0
C910 C 0.42284 0.42064 0.10199 0.0
C911 C 0.45511 0.44729 0.15373 0.0
C912 C 0.4445 0.4377 0.13556 0.0
H913 H 0.39347 0.41912 0.04354 0.0
H914 H 0.41293 0.43282 0.07172 0.0
H915 H 0.41009 0.40444 0.12773 0.0
H916 H 0.46792 0.44321 0.20297 0.0
H917 H 0.45381 0.428 0.17039 0.0
C918 C 0.69645 0.75193 0.38107 0.0
C919 C 0.68681 0.73572 0.38006 0.0
C920 C 0.69501 0.76066 0.39805 0.0
C921 C 0.68052 0.75753 0.45446 0.0
H922 H 0.68242 0.79583 0.44219 0.0
C923 C 0.66762 0.78946 0.5219 0.0
C924 C 0.67733 0.8056 0.5237 0.0
C925 C 0.66809 0.78131 0.50336 0.0
C926 C 0.68202 0.78524 0.44591 0.0
H927 H 0.66807 0.71597 0.39612 0.0
H928 H 0.66558 0.73122 0.42581 0.0
H929 H 0.68478 0.78075 0.412 0.0
H930 H 0.6947 0.82601 0.50722 0.0
H931 H 0.69575 0.81171 0.47468 0.0
H932 H 0.67797 0.76202 0.4883 0.0
C933 C 0.67432 0.73716 0.41352 0.0
C934 C 0.68335 0.77661 0.42863 0.0
C935 C 0.67572 0.72843 0.39647 0.0
C936 C 0.68708 0.81356 0.50614 0.0
C937 C 0.68764 0.80536 0.48755 0.0
C938 C 0.67925 0.76617 0.4717 0.0
C939 C 0.68394 0.75337 0.41448 0.0
C940 C 0.68256 0.76262 0.43272 0.0
C941 C 0.67839 0.78909 0.48622 0.0
C942 C 0.67988 0.78008 0.46766 0.0
H943 H 0.70511 0.75793 0.36868 0.0
H944 H 0.7027 0.77311 0.39848 0.0
H945 H 0.68015 0.74696 0.45822 0.0
H946 H 0.65984 0.78309 0.53511 0.0
H947 H 0.66051 0.76885 0.50263 0.0
C948 C 0.28695 0.94415 0.40911 0.0
C949 C 0.28159 0.95261 0.39882 0.0
C950 C 0.27809 0.9332 0.42486 0.0
C951 C 0.24398 0.92042 0.46066 0.0
H952 H 0.24582 0.8834 0.46556 0.0
C953 C 0.20189 0.86989 0.51408 0.0
C954 C 0.20906 0.86688 0.53099 0.0
C955 C 0.21031 0.87873 0.4962 0.0
C956 C 0.24521 0.89369 0.46428 0.0
H957 H 0.26266 0.9561 0.39671 0.0
H958 H 0.24697 0.93665 0.42331 0.0
H959 H 0.2615 0.90256 0.43819 0.0
H960 H 0.23031 0.86975 0.54184 0.0
H961 H 0.24498 0.88486 0.51009 0.0
H962 H 0.22736 0.91124 0.48636 0.0
C963 C 0.25822 0.93877 0.41997 0.0
C964 C 0.25428 0.90476 0.44877 0.0
C965 C 0.2672 0.94991 0.40458 0.0
C966 C 0.22454 0.87191 0.52895 0.0
C967 C 0.2329 0.88051 0.51084 0.0
C968 C 0.23472 0.90922 0.47579 0.0
C969 C 0.26352 0.93024 0.43037 0.0
C970 C 0.25384 0.91834 0.4468 0.0
C971 C 0.22596 0.88446 0.49474 0.0
C972 C 0.23529 0.89579 0.4778 0.0
H973 H 0.29804 0.94603 0.40503 0.0
H974 H 0.28273 0.92714 0.43278 0.0
H975 H 0.24355 0.93083 0.46012 0.0
H976 H 0.19001 0.86628 0.51541 0.0
H977 H 0.20471 0.88159 0.4839 0.0
C978 C 0.06798 0.35551 0.40538 0.0
C979 C 0.06287 0.34329 0.38974 0.0
C980 C 0.07923 0.35834 0.42073 0.0
C981 C 0.1101 0.35084 0.43062 0.0
H982 H 0.10428 0.35754 0.49217 0.0
C983 C 0.14099 0.34157 0.50141 0.0
C984 C 0.14404 0.35038 0.52103 0.0
C985 C 0.13339 0.34343 0.48401 0.0
C986 C 0.10629 0.35601 0.47501 0.0
H987 H 0.0656 0.32448 0.37802 0.0
H988 H 0.08506 0.32937 0.40474 0.0
H989 H 0.08621 0.35541 0.46482 0.0
H990 H 0.14267 0.36895 0.53712 0.0
H991 H 0.12969 0.37244 0.50659 0.0
H992 H 0.13006 0.35122 0.44082 0.0
C993 C 0.08052 0.33687 0.40502 0.0
C994 C 0.09587 0.35474 0.45932 0.0
C995 C 0.06925 0.33399 0.38982 0.0
C996 C 0.1403 0.36186 0.52229 0.0
C997 C 0.13277 0.36378 0.50485 0.0
C998 C 0.12056 0.35218 0.44629 0.0
C999 C 0.08568 0.34909 0.42064 0.0
C1000 C 0.09749 0.35184 0.43701 0.0
C1001 C 0.12874 0.35421 0.4858 0.0
C1002 C 0.11864 0.3545 0.46875 0.0
H1003 H 0.06334 0.36292 0.40573 0.0
H1004 H 0.08302 0.36789 0.4325 0.0
H1005 H 0.11181 0.34888 0.41349 0.0
H1006 H 0.14356 0.33251 0.50004 0.0
H1007 H 0.13038 0.33576 0.4697 0.0
C1008 C 0.04274 0.31486 0.27807 0.0
C1009 C 0.0486 0.3281 0.29195 0.0
C1010 C 0.05224 0.3131 0.26322 0.0
C1011 C 0.09221 0.32564 0.25305 0.0
H1012 H 0.07984 0.31512 0.19194 0.0
C1013 C 0.13426 0.33491 0.18285 0.0
C1014 C 0.12869 0.32567 0.16359 0.0
C1015 C 0.12439 0.3329 0.20022 0.0
C1016 C 0.08339 0.31771 0.20901 0.0
H1017 H 0.06904 0.34982 0.30119 0.0
H1018 H 0.0856 0.34666 0.27538 0.0
H1019 H 0.06265 0.31626 0.21858 0.0
H1020 H 0.10886 0.30631 0.14795 0.0
H1021 H 0.09175 0.30222 0.17866 0.0
H1022 H 0.11293 0.32705 0.2436 0.0
C1023 C 0.07367 0.33765 0.27603 0.0
C1024 C 0.07353 0.31845 0.22426 0.0
C1025 C 0.06415 0.33952 0.29066 0.0
C1026 C 0.11338 0.31361 0.16266 0.0
C1027 C 0.10357 0.31142 0.18014 0.0
C1028 C 0.10203 0.32471 0.23785 0.0
C1029 C 0.06782 0.32443 0.26217 0.0
C1030 C 0.07792 0.32266 0.24636 0.0
C1031 C 0.10879 0.32147 0.19877 0.0
C1032 C 0.09785 0.32097 0.21553 0.0
H1033 H 0.03082 0.30584 0.27869 0.0
H1034 H 0.04744 0.30276 0.25277 0.0
H1035 H 0.09581 0.32871 0.27007 0.0
H1036 H 0.14598 0.34442 0.18381 0.0
H1037 H 0.12886 0.34096 0.21415 0.0
C1038 C 0.6852 0.73489 0.27228 0.0
C1039 C 0.67468 0.73084 0.28958 0.0
C1040 C 0.68709 0.74581 0.25696 0.0
C1041 C 0.6674 0.76417 0.23441 0.0
H1042 H 0.7074 0.79443 0.21245 0.0
C1043 C 0.67452 0.81027 0.17511 0.0
C1044 C 0.68288 0.8116 0.15595 0.0
C1045 C 0.67533 0.80266 0.19337 0.0
C1046 C 0.69616 0.78602 0.2184 0.0
H1047 H 0.65801 0.73521 0.30441 0.0
H1048 H 0.66141 0.75429 0.27793 0.0
H1049 H 0.70483 0.77605 0.23994 0.0
H1050 H 0.6997 0.80725 0.14174 0.0
H1051 H 0.70095 0.79377 0.17351 0.0
H1052 H 0.65868 0.77394 0.21278 0.0
C1053 C 0.66804 0.74888 0.27595 0.0
C1054 C 0.69467 0.77545 0.23406 0.0
C1055 C 0.66612 0.73795 0.2912 0.0
C1056 C 0.69297 0.80622 0.15615 0.0
C1057 C 0.69376 0.79859 0.17442 0.0
C1058 C 0.66889 0.77473 0.21883 0.0
C1059 C 0.67852 0.75293 0.25862 0.0
C1060 C 0.68026 0.76436 0.24219 0.0
C1061 C 0.6845 0.7962 0.1929 0.0
C1062 C 0.68326 0.78575 0.21057 0.0
H1063 H 0.69198 0.72963 0.27058 0.0
H1064 H 0.69512 0.74852 0.24364 0.0
H1065 H 0.65611 0.75561 0.23997 0.0
H1066 H 0.66658 0.8142 0.1755 0.0
H1067 H 0.66827 0.80127 0.20754 0.0
C1068 C 0.27909 0.94481 0.27867 0.0
C1069 C 0.27226 0.94547 0.29848 0.0
C1070 C 0.27017 0.93635 0.26046 0.0
C1071 C 0.23123 0.90483 0.24489 0.0
H1072 H 0.24517 0.9202 0.1862 0.0
C1073 C 0.19682 0.87484 0.1642 0.0
C1074 C 0.20539 0.87347 0.14708 0.0
C1075 C 0.20404 0.88362 0.18333 0.0
C1076 C 0.24116 0.91575 0.2025 0.0
H1077 H 0.25068 0.93793 0.31461 0.0
H1078 H 0.23512 0.92343 0.28271 0.0
H1079 H 0.25959 0.93593 0.21812 0.0
H1080 H 0.2281 0.87948 0.13724 0.0
H1081 H 0.2406 0.8949 0.17022 0.0
H1082 H 0.21274 0.88463 0.22903 0.0
C1083 C 0.24737 0.9292 0.28136 0.0
C1084 C 0.24945 0.92472 0.22079 0.0
C1085 C 0.2563 0.9376 0.29962 0.0
C1086 C 0.22121 0.88065 0.14981 0.0
C1087 C 0.22838 0.88947 0.16872 0.0
C1088 C 0.22286 0.89589 0.22653 0.0
C1089 C 0.25419 0.92843 0.26157 0.0
C1090 C 0.24475 0.91927 0.24222 0.0
C1091 C 0.21994 0.89123 0.18556 0.0
C1092 C 0.22791 0.90115 0.20516 0.0
H1093 H 0.29135 0.95067 0.27727 0.0
H1094 H 0.27581 0.9358 0.24562 0.0
H1095 H 0.22735 0.90021 0.26114 0.0
H1096 H 0.18463 0.86949 0.16257 0.0
H1097 H 0.19727 0.8848 0.1961 0.0
C1098 C 0.6832 0.95005 0.29177 0.0
C1099 C 0.67099 0.95197 0.29698 0.0
C1100 C 0.68159 0.93916 0.27568 0.0
C1101 C 0.65213 0.90406 0.24481 0.0
H1102 H 0.68597 0.91304 0.20647 0.0
C1103 C 0.64697 0.86963 0.16421 0.0
C1104 C 0.6586 0.86667 0.15961 0.0
C1105 C 0.64793 0.87866 0.18266 0.0
C1106 C 0.67648 0.91028 0.21725 0.0
H1107 H 0.64762 0.94426 0.28897 0.0
H1108 H 0.64495 0.92565 0.2604 0.0
H1109 H 0.68892 0.93215 0.23435 0.0
H1110 H 0.68006 0.87034 0.17111 0.0
H1111 H 0.68174 0.88615 0.20338 0.0
H1112 H 0.63958 0.88235 0.22707 0.0
C1113 C 0.65566 0.93222 0.26916 0.0
C1114 C 0.67816 0.92123 0.23327 0.0
C1115 C 0.65722 0.94299 0.28543 0.0
C1116 C 0.67087 0.87233 0.17435 0.0
C1117 C 0.67192 0.88151 0.19267 0.0
C1118 C 0.6504 0.89317 0.2286 0.0
C1119 C 0.66778 0.93004 0.26422 0.0
C1120 C 0.666 0.91829 0.24725 0.0
C1121 C 0.66062 0.88504 0.19673 0.0
C1122 C 0.66256 0.89619 0.21465 0.0
H1123 H 0.69393 0.95669 0.3005 0.0
H1124 H 0.69111 0.93767 0.27258 0.0
H1125 H 0.6426 0.90124 0.25553 0.0
H1126 H 0.63736 0.86535 0.15314 0.0
H1127 H 0.63909 0.88124 0.18533 0.0
C1128 C 0.06209 0.73355 0.27824 0.0
C1129 C 0.05476 0.71733 0.27646 0.0
C1130 C 0.07334 0.74296 0.26318 0.0
C1131 C 0.08747 0.74212 0.20732 0.0
H1132 H 0.12389 0.78002 0.22706 0.0
C1133 C 0.135 0.778 0.14636 0.0
C1134 C 0.14045 0.79392 0.14668 0.0
C1135 C 0.12644 0.76886 0.16391 0.0
C1136 C 0.11375 0.76951 0.22129 0.0
H1137 H 0.05354 0.6983 0.25739 0.0
H1138 H 0.07319 0.71469 0.23124 0.0
H1139 H 0.10463 0.76361 0.2539 0.0
H1140 H 0.14215 0.81298 0.1661 0.0
H1141 H 0.12708 0.79699 0.19685 0.0
H1142 H 0.0964 0.74803 0.17475 0.0
C1143 C 0.07012 0.72014 0.24414 0.0
C1144 C 0.1027 0.76013 0.23665 0.0
C1145 C 0.05888 0.71074 0.25918 0.0
C1146 C 0.13816 0.80075 0.16556 0.0
C1147 C 0.1295 0.79157 0.18313 0.0
C1148 C 0.09849 0.75147 0.19202 0.0
C1149 C 0.07752 0.73637 0.24597 0.0
C1150 C 0.08941 0.74633 0.22982 0.0
C1151 C 0.12306 0.77542 0.18209 0.0
C1152 C 0.11177 0.76528 0.19878 0.0
H1153 H 0.0592 0.73902 0.29136 0.0
H1154 H 0.07866 0.7554 0.26488 0.0
H1155 H 0.07726 0.73174 0.20142 0.0
H1156 H 0.13674 0.77249 0.13204 0.0
H1157 H 0.12198 0.75653 0.16284 0.0
C1158 C 0.29527 0.35646 0.27102 0.0
C1159 C 0.29072 0.34291 0.28261 0.0
C1160 C 0.28506 0.3574 0.25728 0.0
C1161 C 0.24413 0.34049 0.24739 0.0
H1162 H 0.25768 0.35924 0.19037 0.0
C1163 C 0.20359 0.33745 0.17927 0.0
C1164 C 0.20929 0.3499 0.16494 0.0
C1165 C 0.21289 0.33738 0.1958 0.0
C1166 C 0.25376 0.35423 0.2064 0.0
H1167 H 0.27189 0.31963 0.28865 0.0
H1168 H 0.25406 0.32126 0.26448 0.0
H1169 H 0.27525 0.35705 0.21396 0.0
H1170 H 0.22857 0.37256 0.15763 0.0
H1171 H 0.24463 0.37277 0.18691 0.0
H1172 H 0.22258 0.33764 0.23974 0.0
C1173 C 0.26551 0.3312 0.26623 0.0
C1174 C 0.26384 0.35291 0.21988 0.0
C1175 C 0.27577 0.33022 0.2799 0.0
C1176 C 0.22397 0.3628 0.16844 0.0
C1177 C 0.2332 0.36281 0.18504 0.0
C1178 C 0.23403 0.34186 0.2339 0.0
C1179 C 0.27003 0.34483 0.25486 0.0
C1180 C 0.25916 0.34603 0.24052 0.0
C1181 C 0.22801 0.34983 0.19831 0.0
C1182 C 0.23874 0.34878 0.21324 0.0
H1183 H 0.30669 0.36646 0.27278 0.0
H1184 H 0.28886 0.36811 0.2489 0.0
H1185 H 0.24025 0.33529 0.26333 0.0
H1186 H 0.19234 0.32731 0.17671 0.0
H1187 H 0.20853 0.32718 0.20565 0.0
C1188 C 0.27533 0.34534 0.38287 0.0
C1189 C 0.28057 0.33508 0.38064 0.0
C1190 C 0.26394 0.34259 0.39804 0.0
C1191 C 0.24545 0.32131 0.44856 0.0
H1192 H 0.21398 0.3294 0.43293 0.0
C1193 C 0.19755 0.3086 0.50906 0.0
C1194 C 0.19495 0.32076 0.51269 0.0
C1195 C 0.20592 0.30855 0.49085 0.0
C1196 C 0.22272 0.32714 0.43755 0.0
H1197 H 0.278 0.31391 0.39269 0.0
H1198 H 0.25805 0.30906 0.41908 0.0
H1199 H 0.23327 0.3332 0.40582 0.0
H1200 H 0.19819 0.34186 0.49933 0.0
H1201 H 0.21283 0.34182 0.46747 0.0
H1202 H 0.23509 0.31547 0.48034 0.0
C1203 C 0.26286 0.31933 0.40925 0.0
C1204 C 0.2338 0.32936 0.42206 0.0
C1205 C 0.27428 0.32209 0.39409 0.0
C1206 C 0.19991 0.33227 0.49686 0.0
C1207 C 0.20833 0.33225 0.47863 0.0
C1208 C 0.23438 0.31908 0.46401 0.0
C1209 C 0.2575 0.3295 0.41133 0.0
C1210 C 0.24537 0.3266 0.42746 0.0
C1211 C 0.21191 0.3207 0.47588 0.0
C1212 C 0.22294 0.32206 0.45876 0.0
H1213 H 0.27995 0.35548 0.3728 0.0
H1214 H 0.26027 0.3508 0.39949 0.0
H1215 H 0.25432 0.31931 0.4534 0.0
H1216 H 0.19367 0.29947 0.52088 0.0
H1217 H 0.20817 0.29929 0.48892 0.0
C1218 C 0.64999 0.93792 0.41114 0.0
C1219 C 0.66158 0.94208 0.39548 0.0
C1220 C 0.64683 0.92663 0.42661 0.0
C1221 C 0.65198 0.8939 0.43721 0.0
H1222 H 0.64873 0.903 0.49873 0.0
C1223 C 0.66274 0.86453 0.50851 0.0
C1224 C 0.65545 0.86307 0.52878 0.0
C1225 C 0.66022 0.87146 0.49084 0.0
C1226 C 0.64926 0.90005 0.4816 0.0
H1227 H 0.67885 0.93754 0.38371 0.0
H1228 H 0.67336 0.91796 0.41061 0.0
H1229 H 0.65072 0.9207 0.4708 0.0
H1230 H 0.63879 0.8664 0.54586 0.0
H1231 H 0.63407 0.87814 0.51485 0.0
H1232 H 0.65078 0.87338 0.44801 0.0
C1233 C 0.66662 0.92331 0.41085 0.0
C1234 C 0.65045 0.91026 0.46558 0.0
C1235 C 0.66986 0.93465 0.39555 0.0
C1236 C 0.64469 0.86755 0.53047 0.0
C1237 C 0.64209 0.87438 0.51277 0.0
C1238 C 0.6507 0.88364 0.45322 0.0
C1239 C 0.6551 0.91916 0.42657 0.0
C1240 C 0.65217 0.90748 0.44327 0.0
C1241 C 0.65027 0.87699 0.49302 0.0
C1242 C 0.64965 0.88675 0.47567 0.0
H1243 H 0.64338 0.94341 0.41149 0.0
H1244 H 0.63784 0.92363 0.43847 0.0
H1245 H 0.65303 0.89132 0.42009 0.0
H1246 H 0.67121 0.86135 0.50679 0.0
H1247 H 0.66683 0.87337 0.47598 0.0
C1248 C 0.0607 0.75239 0.3851 0.0
C1249 C 0.05447 0.73631 0.38324 0.0
C1250 C 0.07004 0.76095 0.40296 0.0
C1251 C 0.07966 0.75652 0.45958 0.0
H1252 H 0.11645 0.7964 0.45053 0.0
C1253 C 0.12521 0.78579 0.52653 0.0
C1254 C 0.13129 0.80163 0.53107 0.0
C1255 C 0.11624 0.77861 0.50791 0.0
C1256 C 0.10613 0.78536 0.45333 0.0
H1257 H 0.05321 0.71664 0.39863 0.0
H1258 H 0.06958 0.73156 0.42961 0.0
H1259 H 0.09969 0.78221 0.41929 0.0
H1260 H 0.13325 0.82252 0.51916 0.0
H1261 H 0.11749 0.80991 0.48631 0.0
H1262 H 0.08611 0.75955 0.4935 0.0
C1263 C 0.06708 0.73754 0.41745 0.0
C1264 C 0.09652 0.77724 0.43546 0.0
C1265 C 0.05775 0.72898 0.39963 0.0
C1266 C 0.12874 0.81031 0.51603 0.0
C1267 C 0.11972 0.80309 0.49728 0.0
C1268 C 0.08925 0.7646 0.47736 0.0
C1269 C 0.07334 0.75362 0.41934 0.0
C1270 C 0.08326 0.76263 0.43836 0.0
C1271 C 0.11313 0.78709 0.4933 0.0
C1272 C 0.10269 0.77901 0.47441 0.0
H1273 H 0.05839 0.75839 0.37277 0.0
H1274 H 0.07454 0.77328 0.40406 0.0
H1275 H 0.06937 0.74547 0.46248 0.0
H1276 H 0.12728 0.77887 0.53756 0.0
H1277 H 0.11165 0.76636 0.50502 0.0
C1278 C 0.31758 0.04237 0.74823 0.0
C1279 C 0.32836 0.04987 0.73149 0.0
C1280 C 0.31484 0.05094 0.76398 0.0
C1281 C 0.31904 0.08905 0.7743 0.0
H1282 H 0.31745 0.07909 0.8358 0.0
C1283 C 0.32687 0.13116 0.84619 0.0
C1284 C 0.31967 0.12495 0.86631 0.0
C1285 C 0.32532 0.12137 0.8284 0.0
C1286 C 0.31753 0.08186 0.81869 0.0
H1287 H 0.34466 0.07226 0.71813 0.0
H1288 H 0.33991 0.08718 0.74565 0.0
H1289 H 0.32011 0.06315 0.80763 0.0
H1290 H 0.30419 0.10378 0.8831 0.0
H1291 H 0.30108 0.08667 0.85188 0.0
H1292 H 0.31662 0.10788 0.78539 0.0
C1293 C 0.33349 0.07467 0.74648 0.0
C1294 C 0.31912 0.07274 0.80254 0.0
C1295 C 0.3363 0.06612 0.73082 0.0
C1296 C 0.30999 0.10884 0.86781 0.0
C1297 C 0.30832 0.09906 0.84999 0.0
C1298 C 0.31737 0.09815 0.79046 0.0
C1299 C 0.32274 0.06719 0.76323 0.0
C1300 C 0.3201 0.07635 0.7802 0.0
C1301 C 0.31644 0.10518 0.83036 0.0
C1302 C 0.31678 0.09478 0.81289 0.0
H1303 H 0.31123 0.02987 0.74918 0.0
H1304 H 0.30641 0.04484 0.77661 0.0
H1305 H 0.31954 0.09198 0.75716 0.0
H1306 H 0.33452 0.14354 0.84468 0.0
H1307 H 0.33183 0.12651 0.81362 0.0
C1308 C 0.95505 0.27552 0.74554 0.0
C1309 C 0.95007 0.28394 0.73415 0.0
C1310 C 0.94569 0.26478 0.76122 0.0
C1311 C 0.90604 0.239 0.77599 0.0
H1312 H 0.92063 0.24219 0.83554 0.0
C1313 C 0.86553 0.20663 0.8479 0.0
C1314 C 0.87115 0.20297 0.86612 0.0
C1315 C 0.87516 0.21473 0.83043 0.0
C1316 C 0.91641 0.24083 0.81889 0.0
H1317 H 0.93139 0.28767 0.73015 0.0
H1318 H 0.91496 0.26866 0.75721 0.0
H1319 H 0.93767 0.26 0.80796 0.0
H1320 H 0.89083 0.20393 0.87995 0.0
H1321 H 0.9075 0.2173 0.84895 0.0
H1322 H 0.8849 0.21967 0.78657 0.0
C1323 C 0.92613 0.27048 0.75409 0.0
C1324 C 0.9262 0.25115 0.80315 0.0
C1325 C 0.93558 0.28143 0.73875 0.0
C1326 C 0.88629 0.2067 0.86604 0.0
C1327 C 0.89585 0.21453 0.84839 0.0
C1328 C 0.89632 0.22847 0.79161 0.0
C1329 C 0.93108 0.26204 0.76542 0.0
C1330 C 0.92102 0.25048 0.78167 0.0
C1331 C 0.89058 0.21914 0.83067 0.0
C1332 C 0.90129 0.2294 0.81341 0.0
H1333 H 0.96616 0.27722 0.74232 0.0
H1334 H 0.94975 0.25839 0.76975 0.0
H1335 H 0.90186 0.23815 0.75942 0.0
H1336 H 0.85393 0.20404 0.84777 0.0
H1337 H 0.87066 0.21821 0.81732 0.0
C1338 C 0.73722 0.68069 0.7324 0.0
C1339 C 0.73436 0.69277 0.73132 0.0
C1340 C 0.74816 0.68178 0.74688 0.0
C1341 C 0.76788 0.70016 0.79855 0.0
H1342 H 0.7971 0.68954 0.77809 0.0
C1343 C 0.81165 0.70277 0.85859 0.0
C1344 C 0.81401 0.69034 0.85723 0.0
C1345 C 0.80426 0.70526 0.84157 0.0
C1346 C 0.78896 0.69242 0.78416 0.0
H1347 H 0.74062 0.71537 0.74486 0.0
H1348 H 0.75954 0.71709 0.77055 0.0
H1349 H 0.77894 0.68899 0.75218 0.0
H1350 H 0.81115 0.67122 0.83669 0.0
H1351 H 0.79791 0.67525 0.80719 0.0
H1352 H 0.77731 0.70295 0.83065 0.0
C1353 C 0.75335 0.70684 0.76003 0.0
C1354 C 0.77858 0.69213 0.76928 0.0
C1355 C 0.74254 0.70586 0.74531 0.0
C1356 C 0.80963 0.681 0.838 0.0
C1357 C 0.80202 0.68334 0.82109 0.0
C1358 C 0.77812 0.70025 0.8135 0.0
C1359 C 0.75636 0.69487 0.76083 0.0
C1360 C 0.76785 0.69587 0.77637 0.0
C1361 C 0.79879 0.69521 0.82296 0.0
C1362 C 0.78873 0.69626 0.80657 0.0
H1363 H 0.73117 0.67048 0.72178 0.0
H1364 H 0.75012 0.67229 0.74733 0.0
H1365 H 0.75964 0.70293 0.80453 0.0
H1366 H 0.81499 0.71017 0.87325 0.0
H1367 H 0.80238 0.71478 0.84336 0.0
C1368 C 0.72785 0.67028 0.61581 0.0
C1369 C 0.72562 0.6628 0.63587 0.0
C1370 C 0.73641 0.66876 0.59898 0.0
C1371 C 0.74843 0.65746 0.56187 0.0
H1372 H 0.78526 0.6585 0.57747 0.0
C1373 C 0.78507 0.65209 0.49479 0.0
C1374 C 0.80077 0.66289 0.49631 0.0
C1375 C 0.77557 0.6497 0.51277 0.0
C1376 C 0.77503 0.65822 0.57282 0.0
H1377 H 0.73033 0.64755 0.65377 0.0
H1378 H 0.74499 0.64471 0.62434 0.0
H1379 H 0.76926 0.65963 0.60643 0.0
H1380 H 0.81898 0.67901 0.51815 0.0
H1381 H 0.80241 0.67499 0.54956 0.0
H1382 H 0.75447 0.65671 0.52828 0.0
C1383 C 0.7404 0.65199 0.62173 0.0
C1384 C 0.76576 0.6587 0.58944 0.0
C1385 C 0.73189 0.65355 0.63856 0.0
C1386 C 0.80693 0.6705 0.5166 0.0
C1387 C 0.79741 0.6682 0.53459 0.0
C1388 C 0.7577 0.65702 0.54527 0.0
C1389 C 0.74288 0.65968 0.60179 0.0
C1390 C 0.75241 0.65848 0.58416 0.0
C1391 C 0.78154 0.65816 0.53264 0.0
C1392 C 0.77119 0.65751 0.55051 0.0
H1393 H 0.72323 0.67754 0.61322 0.0
H1394 H 0.73824 0.67501 0.58396 0.0
H1395 H 0.73814 0.65706 0.55719 0.0
H1396 H 0.78005 0.64596 0.47936 0.0
H1397 H 0.76346 0.64159 0.51086 0.0
C1398 C 0.32998 0.05984 0.60626 0.0
C1399 C 0.34153 0.0618 0.62041 0.0
C1400 C 0.33277 0.07121 0.59123 0.0
C1401 C 0.36378 0.10575 0.56339 0.0
H1402 H 0.33096 0.11251 0.55132 0.0
C1403 C 0.36239 0.13704 0.48658 0.0
C1404 C 0.35401 0.14437 0.48707 0.0
C1405 C 0.36309 0.12956 0.50508 0.0
C1406 C 0.3404 0.11105 0.55473 0.0
H1407 H 0.36516 0.0772 0.62976 0.0
H1408 H 0.36995 0.09723 0.60389 0.0
H1409 H 0.32757 0.09421 0.57898 0.0
H1410 H 0.34092 0.15076 0.5081 0.0
H1411 H 0.34275 0.13837 0.54067 0.0
H1412 H 0.37673 0.12291 0.53946 0.0
C1413 C 0.35879 0.08677 0.60409 0.0
C1414 C 0.33833 0.10028 0.57036 0.0
C1415 C 0.35603 0.0753 0.61898 0.0
C1416 C 0.34747 0.14522 0.5071 0.0
C1417 C 0.34831 0.13788 0.52571 0.0
C1418 C 0.36592 0.11667 0.54789 0.0
C1419 C 0.34714 0.08493 0.59014 0.0
C1420 C 0.34985 0.09723 0.57457 0.0
C1421 C 0.35559 0.12941 0.52467 0.0
C1422 C 0.35414 0.11925 0.54303 0.0
H1423 H 0.31872 0.04952 0.60681 0.0
H1424 H 0.32362 0.06918 0.58039 0.0
H1425 H 0.37291 0.1037 0.56611 0.0
H1426 H 0.36786 0.13645 0.47155 0.0
H1427 H 0.36878 0.12316 0.50353 0.0
C1428 C 0.92901 0.2668 0.63355 0.0
C1429 C 0.94499 0.27487 0.63376 0.0
C1430 C 0.9208 0.25698 0.61579 0.0
C1431 C 0.92475 0.2486 0.55724 0.0
H1432 H 0.88693 0.20995 0.56773 0.0
C1433 C 0.89209 0.20552 0.48628 0.0
C1434 C 0.87649 0.20017 0.48513 0.0
C1435 C 0.90042 0.213 0.50535 0.0
C1436 C 0.89744 0.22073 0.56455 0.0
H1437 H 0.96488 0.27893 0.61544 0.0
H1438 H 0.95056 0.26163 0.58458 0.0
H1439 H 0.90169 0.22665 0.59891 0.0
H1440 H 0.85725 0.19773 0.50354 0.0
H1441 H 0.8718 0.2107 0.53696 0.0
H1442 H 0.92048 0.24273 0.52291 0.0
C1443 C 0.94436 0.26307 0.59801 0.0
C1444 C 0.90588 0.23034 0.58239 0.0
C1445 C 0.95258 0.27296 0.61574 0.0
C1446 C 0.86922 0.2016 0.50397 0.0
C1447 C 0.87756 0.20907 0.5231 0.0
C1448 C 0.91636 0.23898 0.53944 0.0
C1449 C 0.92836 0.25493 0.59784 0.0
C1450 C 0.91959 0.24445 0.57894 0.0
C1451 C 0.89335 0.21526 0.52375 0.0
C1452 C 0.90257 0.22498 0.54287 0.0
H1453 H 0.9228 0.26805 0.64713 0.0
H1454 H 0.90851 0.25112 0.61604 0.0
H1455 H 0.93511 0.2595 0.55392 0.0
H1456 H 0.89796 0.20435 0.47215 0.0
H1457 H 0.9125 0.21735 0.50552 0.0
C1458 C 0.33345 0.27858 0.61679 0.0
C1459 C 0.32228 0.2711 0.63304 0.0
C1460 C 0.33487 0.27008 0.59947 0.0
C1461 C 0.32575 0.23079 0.58311 0.0
H1462 H 0.334 0.24748 0.52445 0.0
C1463 C 0.32694 0.1974 0.50403 0.0
C1464 C 0.33829 0.20624 0.48858 0.0
C1465 C 0.32484 0.20459 0.5226 0.0
C1466 C 0.33185 0.24273 0.54078 0.0
H1467 H 0.3038 0.2488 0.64378 0.0
H1468 H 0.3062 0.23397 0.61336 0.0
H1469 H 0.33023 0.26141 0.55461 0.0
H1470 H 0.357 0.22928 0.48118 0.0
H1471 H 0.35345 0.24176 0.51351 0.0
H1472 H 0.32739 0.21207 0.56909 0.0
C1473 C 0.31397 0.24641 0.61418 0.0
C1474 C 0.32969 0.25072 0.55806 0.0
C1475 C 0.31253 0.25492 0.63153 0.0
C1476 C 0.34796 0.22223 0.4926 0.0
C1477 C 0.34589 0.22938 0.51107 0.0
C1478 C 0.3279 0.22276 0.56574 0.0
C1479 C 0.32516 0.2539 0.59796 0.0
C1480 C 0.32678 0.24495 0.57948 0.0
C1481 C 0.33408 0.22073 0.526 0.0
C1482 C 0.33117 0.22876 0.54444 0.0
H1483 H 0.3412 0.29102 0.61751 0.0
H1484 H 0.34376 0.27619 0.58742 0.0
H1485 H 0.32366 0.2261 0.59947 0.0
H1486 H 0.3193 0.18506 0.50128 0.0
H1487 H 0.31563 0.19763 0.53382 0.0
C1488 C 0.72744 0.07042 0.60886 0.0
C1489 C 0.71275 0.06778 0.61193 0.0
C1490 C 0.73746 0.0814 0.59396 0.0
C1491 C 0.73869 0.10092 0.54394 0.0
H1492 H 0.78031 0.13088 0.56122 0.0
C1493 C 0.78034 0.14421 0.4815 0.0
C1494 C 0.795 0.14654 0.48124 0.0
C1495 C 0.77062 0.13705 0.49928 0.0
C1496 C 0.76877 0.12252 0.55603 0.0
H1497 H 0.69699 0.07443 0.60157 0.0
H1498 H 0.71442 0.09336 0.57511 0.0
H1499 H 0.76256 0.11283 0.58816 0.0
H1500 H 0.81125 0.14387 0.49962 0.0
H1501 H 0.79422 0.13098 0.53038 0.0
H1502 H 0.74491 0.10996 0.51164 0.0
C1503 C 0.71818 0.08701 0.5844 0.0
C1504 C 0.75861 0.11222 0.5715 0.0
C1505 C 0.70823 0.07619 0.59956 0.0
C1506 C 0.80006 0.14236 0.49957 0.0
C1507 C 0.79026 0.13497 0.51721 0.0
C1508 C 0.74889 0.11106 0.52838 0.0
C1509 C 0.73293 0.08979 0.58159 0.0
C1510 C 0.74351 0.10123 0.56554 0.0
C1511 C 0.77524 0.13179 0.51699 0.0
C1512 C 0.76412 0.12192 0.53414 0.0
H1513 H 0.73131 0.06419 0.61822 0.0
H1514 H 0.74872 0.0832 0.59193 0.0
H1515 H 0.72715 0.09246 0.53885 0.0
H1516 H 0.77623 0.14742 0.46755 0.0
H1517 H 0.7593 0.1352 0.49877 0.0
C1518 C 0.96367 0.69548 0.61342 0.0
C1519 C 0.95957 0.68108 0.622 0.0
C1520 C 0.95402 0.69668 0.5988 0.0
C1521 C 0.91412 0.67811 0.58251 0.0
H1522 H 0.93015 0.69978 0.52791 0.0
C1523 C 0.8756 0.67457 0.51138 0.0
C1524 C 0.88123 0.6871 0.49722 0.0
C1525 C 0.88467 0.6748 0.52848 0.0
C1526 C 0.92549 0.69397 0.54328 0.0
H1527 H 0.94213 0.65664 0.62201 0.0
H1528 H 0.92519 0.65881 0.59662 0.0
H1529 H 0.94713 0.69815 0.55355 0.0
H1530 H 0.90017 0.71009 0.49056 0.0
H1531 H 0.91575 0.71092 0.52105 0.0
H1532 H 0.89253 0.6741 0.57249 0.0
C1533 C 0.9359 0.66914 0.60122 0.0
C1534 C 0.93524 0.69295 0.55789 0.0
C1535 C 0.94565 0.66788 0.61558 0.0
C1536 C 0.89564 0.70027 0.50128 0.0
C1537 C 0.90461 0.70063 0.51857 0.0
C1538 C 0.90438 0.6793 0.56802 0.0
C1539 C 0.93997 0.68355 0.59274 0.0
C1540 C 0.92964 0.6849 0.57755 0.0
C1541 C 0.89948 0.68767 0.5319 0.0
C1542 C 0.90991 0.68716 0.54811 0.0
H1543 H 0.97431 0.70585 0.61807 0.0
H1544 H 0.9574 0.70795 0.59258 0.0
H1545 H 0.90955 0.67199 0.59771 0.0
H1546 H 0.86457 0.66421 0.50836 0.0
H1547 H 0.88034 0.66455 0.53821 0.0
C1548 C 0.95025 0.67045 0.73151 0.0
C1549 C 0.94337 0.65971 0.71393 0.0
C1550 C 0.94136 0.67188 0.74784 0.0
C1551 C 0.90246 0.66354 0.75918 0.0
H1552 H 0.91528 0.66846 0.8201 0.0
C1553 C 0.865 0.66001 0.83427 0.0
C1554 C 0.87268 0.67011 0.85219 0.0
C1555 C 0.87321 0.65932 0.81615 0.0
C1556 C 0.91162 0.66729 0.80315 0.0
H1557 H 0.92173 0.64201 0.69976 0.0
H1558 H 0.90626 0.64438 0.72838 0.0
H1559 H 0.9305 0.66595 0.79133 0.0
H1560 H 0.89468 0.68816 0.86466 0.0
H1561 H 0.90893 0.68718 0.83306 0.0
H1562 H 0.88349 0.66481 0.77117 0.0
C1563 C 0.91852 0.65185 0.72939 0.0
C1564 C 0.92036 0.66585 0.78664 0.0
C1565 C 0.92741 0.65041 0.71307 0.0
C1566 C 0.88853 0.6801 0.85116 0.0
C1567 C 0.89668 0.67947 0.83314 0.0
C1568 C 0.89368 0.66498 0.77575 0.0
C1569 C 0.92538 0.6626 0.74696 0.0
C1570 C 0.91594 0.66403 0.76445 0.0
C1571 C 0.8892 0.66875 0.81572 0.0
C1572 C 0.89824 0.66699 0.79791 0.0
H1573 H 0.96251 0.67785 0.73259 0.0
H1574 H 0.94701 0.68041 0.76101 0.0
H1575 H 0.89881 0.6623 0.74221 0.0
H1576 H 0.85278 0.65217 0.83475 0.0
H1577 H 0.86712 0.65092 0.80298 0.0
C1578 C 0.34735 0.27478 0.72686 0.0
C1579 C 0.33681 0.27954 0.72581 0.0
C1580 C 0.34619 0.26477 0.74318 0.0
C1581 C 0.32964 0.25078 0.79807 0.0
H1582 H 0.33682 0.21759 0.78402 0.0
C1583 C 0.31789 0.20516 0.86149 0.0
C1584 C 0.32908 0.20143 0.8642 0.0
C1585 C 0.31827 0.21356 0.84345 0.0
C1586 C 0.33491 0.22688 0.78823 0.0
H1587 H 0.31674 0.27746 0.74109 0.0
H1588 H 0.31466 0.25993 0.76949 0.0
H1589 H 0.33868 0.23476 0.75505 0.0
H1590 H 0.34902 0.20287 0.84963 0.0
H1591 H 0.34978 0.21771 0.81793 0.0
H1592 H 0.32594 0.24302 0.83119 0.0
C1593 C 0.32394 0.26408 0.75783 0.0
C1594 C 0.33599 0.23673 0.77165 0.0
C1595 C 0.32509 0.27409 0.7415 0.0
C1596 C 0.34023 0.20556 0.84787 0.0
C1597 C 0.34065 0.21405 0.82976 0.0
C1598 C 0.32856 0.24096 0.81459 0.0
C1599 C 0.33447 0.25929 0.75886 0.0
C1600 C 0.33333 0.24877 0.77638 0.0
C1601 C 0.32989 0.21848 0.82768 0.0
C1602 C 0.33111 0.22885 0.80988 0.0
H1603 H 0.35653 0.27877 0.71505 0.0
H1604 H 0.35461 0.2615 0.74368 0.0
H1605 H 0.32782 0.26011 0.80239 0.0
H1606 H 0.30901 0.20189 0.87367 0.0
H1607 H 0.30959 0.21642 0.84206 0.0
C1608 C 0.74315 0.07539 0.70979 0.0
C1609 C 0.7272 0.06595 0.70973 0.0
C1610 C 0.75085 0.08502 0.72796 0.0
C1611 C 0.74616 0.09061 0.78737 0.0
H1612 H 0.78179 0.13142 0.77863 0.0
C1613 C 0.77596 0.13311 0.86014 0.0
C1614 C 0.79183 0.14001 0.86121 0.0
C1615 C 0.76799 0.12541 0.84092 0.0
C1616 C 0.7719 0.12002 0.78131 0.0
H1617 H 0.70681 0.05928 0.7287 0.0
H1618 H 0.72022 0.07628 0.76027 0.0
H1619 H 0.76788 0.11504 0.74673 0.0
H1620 H 0.81185 0.14486 0.84257 0.0
H1621 H 0.79792 0.13151 0.80887 0.0
H1622 H 0.75018 0.09559 0.82192 0.0
C1623 C 0.72682 0.07605 0.74642 0.0
C1624 C 0.76395 0.11061 0.76305 0.0
C1625 C 0.71911 0.06634 0.72828 0.0
C1626 C 0.79964 0.13978 0.84222 0.0
C1627 C 0.79166 0.1321 0.82293 0.0
C1628 C 0.75405 0.10005 0.80559 0.0
C1629 C 0.74279 0.08552 0.74648 0.0
C1630 C 0.75103 0.09574 0.76586 0.0
C1631 C 0.7757 0.12448 0.82229 0.0
C1632 C 0.76705 0.11483 0.80278 0.0
H1633 H 0.74974 0.07532 0.6958 0.0
H1634 H 0.76316 0.09194 0.72757 0.0
H1635 H 0.73644 0.07914 0.79018 0.0
H1636 H 0.76964 0.13335 0.87437 0.0
H1637 H 0.75573 0.11993 0.84078 0.0
C1638 C 0.0527 0.36157 0.00899 0.0
C1639 C 0.03903 0.35103 0.01956 0.0
C1640 C 0.06586 0.36108 0.01217 0.0
C1641 C 0.07934 0.33616 0.03305 0.0
H1642 H 0.11624 0.37513 0.04768 0.0
C1643 C 0.13281 0.35726 0.09289 0.0
C1644 C 0.13597 0.34558 0.08861 0.0
C1645 C 0.12373 0.35946 0.07848 0.0
C1646 C 0.10606 0.36416 0.04347 0.0
H1647 H 0.0284 0.33147 0.04128 0.0
H1648 H 0.05124 0.33073 0.04697 0.0
H1649 H 0.09411 0.37512 0.03412 0.0
H1650 H 0.13297 0.32759 0.06548 0.0
H1651 H 0.11711 0.33149 0.03991 0.0
H1652 H 0.09094 0.32514 0.04366 0.0
C1653 C 0.05182 0.33926 0.036 0.0
C1654 C 0.09341 0.36415 0.03551 0.0
C1655 C 0.03872 0.33977 0.03288 0.0
C1656 C 0.13078 0.33678 0.06893 0.0
C1657 C 0.12159 0.33892 0.05449 0.0
C1658 C 0.09198 0.33616 0.04101 0.0
C1659 C 0.0656 0.35 0.0259 0.0
C1660 C 0.07973 0.35013 0.03091 0.0
C1661 C 0.11751 0.34991 0.05953 0.0
C1662 C 0.10533 0.35014 0.04701 0.0
H1663 H 0.05332 0.37036 -0.00144 0.0
H1664 H 0.07625 0.36944 0.00401 0.0
H1665 H 0.06907 0.32516 0.02929 0.0
H1666 H 0.13658 0.36405 0.10814 0.0
H1667 H 0.12071 0.36789 0.08307 0.0
C1668 C 0.66036 0.69581 0.01401 0.0
C1669 C 0.64532 0.68311 0.01407 0.0
C1670 C 0.66344 0.71087 0.01745 0.0
C1671 C 0.64554 0.73474 0.02038 0.0
H1672 H 0.67932 0.76043 0.05979 0.0
C1673 C 0.65289 0.78693 0.07299 0.0
C1674 C 0.66777 0.79903 0.07783 0.0
C1675 C 0.65039 0.77424 0.05979 0.0
C1676 C 0.67003 0.75358 0.0484 0.0
H1677 H 0.62167 0.67633 0.01715 0.0
H1678 H 0.62705 0.70253 0.02377 0.0
H1679 H 0.67458 0.73536 0.04752 0.0
H1680 H 0.69162 0.80814 0.07147 0.0
H1681 H 0.68731 0.7863 0.04789 0.0
H1682 H 0.64072 0.75291 0.02213 0.0
C1683 C 0.63648 0.70092 0.02064 0.0
C1684 C 0.6673 0.73914 0.04134 0.0
C1685 C 0.63339 0.68586 0.01699 0.0
C1686 C 0.68004 0.79895 0.0678 0.0
C1687 C 0.67756 0.78637 0.05455 0.0
C1688 C 0.64825 0.74922 0.02758 0.0
C1689 C 0.65156 0.7136 0.02129 0.0
C1690 C 0.65495 0.72944 0.0274 0.0
C1691 C 0.66276 0.77352 0.05131 0.0
C1692 C 0.66047 0.75875 0.04182 0.0
H1693 H 0.6698 0.69411 0.01157 0.0
H1694 H 0.67518 0.72036 0.01738 0.0
H1695 H 0.63604 0.72766 0.00943 0.0
H1696 H 0.64328 0.78667 0.08086 0.0
H1697 H 0.63886 0.76451 0.05769 0.0
C1698 C 0.31042 0.96009 0.98648 0.0
C1699 C 0.32061 0.96909 0.00352 0.0
C1700 C 0.29594 0.94747 0.99132 0.0
C1701 C 0.26705 0.93284 0.03458 0.0
H1702 H 0.25162 0.89217 0.00751 0.0
C1703 C 0.2204 0.86792 0.05944 0.0
C1704 C 0.20877 0.87036 0.06624 0.0
C1705 C 0.23232 0.87877 0.04633 0.0
C1706 C 0.25575 0.90349 0.01506 0.0
H1707 H 0.32359 0.97189 0.03899 0.0
H1708 H 0.29828 0.95008 0.04739 0.0
H1709 H 0.27647 0.91402 0.99637 0.0
H1710 H 0.19974 0.88525 0.06355 0.0
H1711 H 0.22034 0.90403 0.04027 0.0
H1712 H 0.24663 0.92243 0.05359 0.0
C1713 C 0.3015 0.95276 0.0303 0.0
C1714 C 0.26991 0.91599 0.00864 0.0
C1715 C 0.31602 0.96521 0.02548 0.0
C1716 C 0.20848 0.88303 0.05818 0.0
C1717 C 0.22037 0.89386 0.04513 0.0
C1718 C 0.25286 0.92045 0.04077 0.0
C1719 C 0.29129 0.94377 0.01329 0.0
C1720 C 0.27582 0.93071 0.01867 0.0
C1721 C 0.23282 0.89227 0.04003 0.0
C1722 C 0.24712 0.90558 0.03132 0.0
H1723 H 0.31364 0.96275 0.96939 0.0
H1724 H 0.28828 0.94077 0.9779 0.0
H1725 H 0.27125 0.94408 0.04245 0.0
H1726 H 0.221 0.85842 0.06591 0.0
H1727 H 0.24178 0.87725 0.04278 0.0
C1728 C 0.34428 0.0438 0.01261 0.0
C1729 C 0.35688 0.0426 0.0071 0.0
C1730 C 0.34411 0.0571 0.00766 0.0
C1731 C 0.36201 0.09021 0.97018 0.0
H1732 H 0.34096 0.10497 0.00691 0.0
C1733 C 0.35568 0.13975 0.94149 0.0
C1734 C 0.34056 0.13608 0.94158 0.0
C1735 C 0.35992 0.13121 0.95395 0.0
C1736 C 0.34692 0.10101 0.99651 0.0
H1737 H 0.37944 0.05467 0.9927 0.0
H1738 H 0.37928 0.07795 0.98445 0.0
H1739 H 0.34408 0.08418 0.01973 0.0
H1740 H 0.31821 0.12133 0.95542 0.0
H1741 H 0.32558 0.10653 0.97748 0.0
H1742 H 0.36459 0.10677 0.9468 0.0
C1743 C 0.36936 0.06849 0.99218 0.0
C1744 C 0.34864 0.08904 0.00379 0.0
C1745 C 0.36948 0.05515 0.997 0.0
C1746 C 0.33001 0.12456 0.95553 0.0
C1747 C 0.33425 0.11607 0.96807 0.0
C1748 C 0.36036 0.10221 0.96298 0.0
C1749 C 0.35659 0.06957 0.99718 0.0
C1750 C 0.35596 0.08327 0.99051 0.0
C1751 C 0.34908 0.11883 0.96664 0.0
C1752 C 0.35256 0.10758 0.97587 0.0
H1753 H 0.33437 0.03434 0.02037 0.0
H1754 H 0.33398 0.05737 0.01147 0.0
H1755 H 0.36748 0.08594 0.9593 0.0
H1756 H 0.3639 0.1484 0.93049 0.0
H1757 H 0.37148 0.13375 0.95271 0.0
C1758 C 0.9629 0.3109 -0.00073 0.0
C1759 C 0.96319 0.32093 0.01598 0.0
C1760 C 0.94988 0.29631 0.99565 0.0
C1761 C 0.90852 0.27523 0.00265 0.0
H1762 H 0.91161 0.2402 0.98357 0.0
C1763 C 0.87086 0.20899 0.9614 0.0
C1764 C 0.86429 0.21245 0.9442 0.0
C1765 C 0.88053 0.22061 0.97655 0.0
C1766 C 0.91043 0.24972 0.9893 0.0
H1767 H 0.95011 0.3233 0.04234 0.0
H1768 H 0.92732 0.29775 0.03595 0.0
H1769 H 0.934 0.26359 0.99799 0.0
H1770 H 0.86173 0.23024 0.92993 0.0
H1771 H 0.87844 0.25049 0.95631 0.0
H1772 H 0.88501 0.26147 0.99344 0.0
C1773 C 0.93717 0.30126 0.02559 0.0
C1774 C 0.92333 0.26322 0.99729 0.0
C1775 C 0.95025 0.31587 0.02929 0.0
C1776 C 0.86653 0.22731 0.94331 0.0
C1777 C 0.87611 0.23888 0.95845 0.0
C1778 C 0.8956 0.26172 0.99462 0.0
C1779 C 0.9368 0.29136 0.0086 0.0
C1780 C 0.92265 0.2763 0.00339 0.0
C1781 C 0.88376 0.23585 0.97468 0.0
C1782 C 0.89651 0.24897 0.98721 0.0
H1783 H 0.97265 0.31441 0.9887 0.0
H1784 H 0.94992 0.28908 0.9822 0.0
H1785 H 0.90759 0.28511 0.00716 0.0
H1786 H 0.86941 0.19764 0.96215 0.0
H1787 H 0.88611 0.21787 0.98901 0.0
C1788 C 0.71065 0.67073 0.01326 0.0
C1789 C 0.69663 0.65661 0.01345 0.0
C1790 C 0.72407 0.6711 0.00811 0.0
C1791 C 0.73712 0.64824 0.97768 0.0
H1792 H 0.77639 0.67983 0.00131 0.0
C1793 C 0.79241 0.65714 0.93989 0.0
C1794 C 0.80238 0.67249 0.9337 0.0
C1795 C 0.78061 0.65362 0.95479 0.0
C1796 C 0.7655 0.67089 0.99464 0.0
H1797 H 0.68582 0.6317 0.00948 0.0
H1798 H 0.70926 0.63231 0.00086 0.0
H1799 H 0.75319 0.67644 0.01788 0.0
H1800 H 0.80862 0.69629 0.93915 0.0
H1801 H 0.78822 0.69025 0.96528 0.0
H1802 H 0.74942 0.64299 0.95407 0.0
C1803 C 0.70986 0.64315 0.00423 0.0
C1804 C 0.7522 0.66899 0.00405 0.0
C1805 C 0.69642 0.64279 0.00928 0.0
C1806 C 0.80107 0.68436 0.94378 0.0
C1807 C 0.78942 0.68089 0.95879 0.0
C1808 C 0.7504 0.65009 0.96836 0.0
C1809 C 0.72382 0.65733 0.00314 0.0
C1810 C 0.73785 0.65794 0.99528 0.0
C1811 C 0.77872 0.66543 0.96386 0.0
C1812 C 0.76476 0.66172 0.97632 0.0
H1813 H 0.71124 0.68159 0.01638 0.0
H1814 H 0.73454 0.68225 0.00714 0.0
H1815 H 0.72631 0.63974 0.97028 0.0
H1816 H 0.79314 0.6478 0.93217 0.0
H1817 H 0.7726 0.64162 0.95853 0.0
C1818 C 0.96057 0.66656 0.02036 0.0
C1819 C 0.96076 0.65334 0.01329 0.0
C1820 C 0.94823 0.66809 0.01535 0.0
C1821 C 0.90804 0.64612 0.99645 0.0
H1822 H 0.91815 0.68495 0.97082 0.0
C1823 C 0.86975 0.65129 0.93451 0.0
C1824 C 0.87018 0.66528 0.93286 0.0
C1825 C 0.87868 0.64977 0.95005 0.0
C1826 C 0.91503 0.67415 0.97842 0.0
H1827 H 0.94787 0.63113 0.99605 0.0
H1828 H 0.92643 0.63381 0.98725 0.0
H1829 H 0.93814 0.68242 0.987 0.0
H1830 H 0.87948 0.68834 0.94689 0.0
H1831 H 0.89507 0.68567 0.97451 0.0
H1832 H 0.88498 0.63771 0.98728 0.0
C1833 C 0.93576 0.64297 0.99681 0.0
C1834 C 0.92653 0.67268 0.98765 0.0
C1835 C 0.94812 0.64147 0.00171 0.0
C1836 C 0.87888 0.6774 0.94804 0.0
C1837 C 0.88792 0.67591 0.96362 0.0
C1838 C 0.89651 0.64761 0.98731 0.0
C1839 C 0.93576 0.65639 0.00328 0.0
C1840 C 0.92324 0.65852 0.99621 0.0
C1841 C 0.88832 0.66225 0.96426 0.0
C1842 C 0.89993 0.6615 0.97758 0.0
H1843 H 0.97009 0.67591 0.02939 0.0
H1844 H 0.94852 0.6785 0.02075 0.0
H1845 H 0.90508 0.63514 0.00329 0.0
H1846 H 0.8632 0.64184 0.92282 0.0
H1847 H 0.87879 0.63915 0.94983 0.0
C1848 C 0.34567 0.3116 0.9879 0.0
C1849 C 0.34777 0.31727 0.00977 0.0
C1850 C 0.34225 0.29654 0.98321 0.0
C1851 C 0.34502 0.26468 0.00523 0.0
H1852 H 0.31556 0.24087 0.95922 0.0
C1853 C 0.3156 0.20283 0.9513 0.0
C1854 C 0.32892 0.20314 0.94534 0.0
C1855 C 0.31636 0.21454 0.96497 0.0
C1856 C 0.32361 0.24718 0.97242 0.0
H1857 H 0.34803 0.31156 0.04387 0.0
H1858 H 0.34206 0.28522 0.03561 0.0
H1859 H 0.31984 0.26594 0.9709 0.0
H1860 H 0.35327 0.21515 0.9499 0.0
H1861 H 0.3547 0.23568 0.9737 0.0
H1862 H 0.3489 0.24592 0.00648 0.0
C1863 C 0.34312 0.29249 0.02212 0.0
C1864 C 0.32623 0.26169 0.97887 0.0
C1865 C 0.34648 0.30755 0.02683 0.0
C1866 C 0.34283 0.21454 0.9547 0.0
C1867 C 0.34362 0.22633 0.96826 0.0
C1868 C 0.34242 0.25012 -0.00128 0.0
C1869 C 0.34088 0.28678 0.00025 0.0
C1870 C 0.33719 0.27077 0.995 0.0
C1871 C 0.33049 0.2269 0.97259 0.0
C1872 C 0.33186 0.24131 0.98194 0.0
H1873 H 0.34662 0.31876 0.97434 0.0
H1874 H 0.34085 0.2926 0.96615 0.0
H1875 H 0.35357 0.27141 0.01768 0.0
H1876 H 0.30479 0.19425 0.94396 0.0
H1877 H 0.30599 0.21446 0.96835 0.0
C1878 C 0.68782 0.05433 0.01485 0.0
C1879 C 0.68242 0.03859 0.01052 0.0
C1880 C 0.70294 0.06567 0.01032 0.0
C1881 C 0.73461 0.07148 0.97463 0.0
H1882 H 0.75763 0.11015 0.00798 0.0
C1883 C 0.79218 0.11857 0.9428 0.0
C1884 C 0.79357 0.13301 0.94114 0.0
C1885 C 0.78112 0.10735 0.95645 0.0
C1886 C 0.75135 0.0994 -0.00147 0.0
H1887 H 0.68887 0.02236 -0.00078 0.0
H1888 H 0.71525 0.04205 0.99182 0.0
H1889 H 0.73308 0.08958 0.02187 0.0
H1890 H 0.78529 0.14751 0.95316 0.0
H1891 H 0.76588 0.12791 0.97705 0.0
H1892 H 0.75254 0.08131 0.95103 0.0
C1893 C 0.70774 0.04571 0.99814 0.0
C1894 C 0.73726 0.08763 0.00644 0.0
C1895 C 0.69262 0.0344 0.00248 0.0
C1896 C 0.78457 0.13653 0.95457 0.0
C1897 C 0.77344 0.12527 0.96817 0.0
C1898 C 0.74866 0.08317 0.96681 0.0
C1899 C 0.71303 0.06152 0.00152 0.0
C1900 C 0.72861 0.0736 0.99439 0.0
C1901 C 0.77112 0.11031 0.96844 0.0
C1902 C 0.75712 0.09736 0.97847 0.0
H1903 H 0.68025 0.05795 0.02104 0.0
H1904 H 0.70654 0.07773 0.01291 0.0
H1905 H 0.72818 0.06101 0.96463 0.0
H1906 H 0.79889 0.11559 0.93233 0.0
H1907 H 0.77981 0.09604 0.95659 0.0
C1908 C 0.63672 0.94687 0.00882 0.0
C1909 C 0.64866 0.95964 0.99807 0.0
C1910 C 0.63763 0.93391 0.01305 0.0
C1911 C 0.66596 0.92342 0.02263 0.0
H1912 H 0.63076 0.8816 0.02177 0.0
C1913 C 0.6686 0.87445 0.06335 0.0
C1914 C 0.65662 0.86618 0.07817 0.0
C1915 C 0.66754 0.8836 0.04746 0.0
C1916 C 0.64072 0.89321 0.02207 0.0
H1917 H 0.67067 0.96852 0.98254 0.0
H1918 H 0.67225 0.94588 0.98999 0.0
H1919 H 0.62902 0.90236 0.00553 0.0
H1920 H 0.63375 0.85996 0.08702 0.0
H1921 H 0.63186 0.87582 0.05954 0.0
H1922 H 0.67745 0.91449 0.04007 0.0
C1923 C 0.66224 0.94597 0.99528 0.0
C1924 C 0.63971 0.9051 0.01278 0.0
C1925 C 0.66129 0.95891 0.99095 0.0
C1926 C 0.64315 0.86625 0.07576 0.0
C1927 C 0.64206 0.8753 0.0599 0.0
C1928 C 0.66695 0.91155 0.03199 0.0
C1929 C 0.65053 0.93343 0.0067 0.0
C1930 C 0.65219 0.92042 0.01353 0.0
C1931 C 0.65444 0.88454 0.04608 0.0
C1932 C 0.6542 0.89638 0.03244 0.0
H1933 H 0.62681 0.94703 0.0145 0.0
H1934 H 0.62849 0.92453 0.0221 0.0
H1935 H 0.67575 0.93512 0.02367 0.0
H1936 H 0.67913 0.87462 0.06498 0.0
H1937 H 0.67721 0.89043 0.03687 0.0
C1938 C 0.03491 0.69449 0.01761 0.0
C1939 C 0.03607 0.68458 0.00215 0.0
C1940 C 0.0469 0.70982 0.02059 0.0
C1941 C 0.08809 0.73412 0.01602 0.0
H1942 H 0.08102 0.76783 0.02499 0.0
C1943 C 0.13592 0.79252 0.05023 0.0
C1944 C 0.13128 0.79785 0.06842 0.0
C1945 C 0.12508 0.78137 0.03557 0.0
C1946 C 0.08322 0.75857 0.02253 0.0
H1947 H 0.05069 0.68309 0.97752 0.0
H1948 H 0.07174 0.70983 0.98305 0.0
H1949 H 0.06015 0.74235 0.01286 0.0
H1950 H 0.11204 0.79697 0.08453 0.0
H1951 H 0.09319 0.77761 0.05932 0.0
H1952 H 0.11085 0.74993 0.02691 0.0
C1953 C 0.06151 0.7057 0.99277 0.0
C1954 C 0.07125 0.74397 0.01558 0.0
C1955 C 0.04944 0.69041 0.98959 0.0
C1956 C 0.11588 0.79306 0.07052 0.0
C1957 C 0.10507 0.78195 0.05598 0.0
C1958 C 0.10002 0.74866 0.0232 0.0
C1959 C 0.06038 0.71556 0.00835 0.0
C1960 C 0.07346 0.7315 0.01283 0.0
C1961 C 0.10944 0.77537 0.03896 0.0
C1962 C 0.09763 0.76097 0.02719 0.0
H1963 H 0.02475 0.69039 0.02749 0.0
H1964 H 0.04576 0.71708 0.03293 0.0
H1965 H 0.09012 0.7247 0.01419 0.0
H1966 H 0.14774 0.79599 0.04839 0.0
H1967 H 0.12888 0.77681 0.02237 0.0
C1968 C 0.31012 0.36365 0.01599 0.0
C1969 C 0.31007 0.35103 0.00575 0.0
C1970 C 0.29645 0.36288 0.02072 0.0
C1971 C 0.25639 0.33491 0.03234 0.0
H1972 H 0.2521 0.37039 0.02652 0.0
C1973 C 0.20507 0.33458 0.07055 0.0
C1974 C 0.20931 0.34779 0.0838 0.0
C1975 C 0.21529 0.33466 0.05502 0.0
C1976 C 0.25309 0.36037 0.02825 0.0
H1977 H 0.29559 0.32779 0.99207 0.0
H1978 H 0.27173 0.32642 0.00051 0.0
H1979 H 0.27451 0.37115 0.01145 0.0
H1980 H 0.22686 0.37171 0.0902 0.0
H1981 H 0.24462 0.37195 0.06334 0.0
H1982 H 0.23541 0.32439 0.05006 0.0
C1983 C 0.28236 0.33689 0.00491 0.0
C1984 C 0.26595 0.36082 0.01963 0.0
C1985 C 0.29604 0.33771 2e-05 0.0
C1986 C 0.22333 0.36141 0.08005 0.0
C1987 C 0.23349 0.36153 0.06459 0.0
C1988 C 0.24359 0.33449 0.04109 0.0
C1989 C 0.28241 0.34943 0.01545 0.0
C1990 C 0.26793 0.34825 0.02209 0.0
C1991 C 0.22987 0.34798 0.05251 0.0
C1992 C 0.24198 0.34738 0.0397 0.0
H1993 H 0.32071 0.37409 0.02059 0.0
H1994 H 0.29687 0.37266 0.02911 0.0
H1995 H 0.25763 0.32509 0.03467 0.0
H1996 H 0.19435 0.3239 0.07329 0.0
H1997 H 0.21205 0.3241 0.04575 0.0
C1998 C 0.72706 0.70107 0.33912 0.0
C1999 C 0.71308 0.68969 0.34804 0.0
C2000 C 0.7403 0.70087 0.3429 0.0
C2001 C 0.754 0.67579 0.36233 0.0
H2002 H 0.7894 0.71454 0.38206 0.0
C2003 C 0.80463 0.69521 0.42688 0.0
C2004 C 0.80862 0.68421 0.42191 0.0
C2005 C 0.79598 0.69775 0.41211 0.0
C2006 C 0.77966 0.70364 0.37642 0.0
H2007 H 0.70199 0.66894 0.36743 0.0
H2008 H 0.72499 0.66869 0.37423 0.0
H2009 H 0.7675 0.71445 0.36731 0.0
H2010 H 0.80762 0.66792 0.39722 0.0
H2011 H 0.79246 0.6724 0.37108 0.0
H2012 H 0.76575 0.66486 0.37271 0.0
C2013 C 0.72575 0.67767 0.36406 0.0
C2014 C 0.76715 0.7036 0.36778 0.0
C2015 C 0.71256 0.67789 0.36032 0.0
C2016 C 0.80474 0.67654 0.40128 0.0
C2017 C 0.79596 0.679 0.38648 0.0
C2018 C 0.7665 0.67583 0.37097 0.0
C2019 C 0.73982 0.68924 0.3556 0.0
C2020 C 0.75397 0.6896 0.36134 0.0
C2021 C 0.79104 0.68925 0.39209 0.0
C2022 C 0.77927 0.68969 0.37882 0.0
H2023 H 0.72785 0.71029 0.3295 0.0
H2024 H 0.75094 0.70987 0.33601 0.0
H2025 H 0.74413 0.66484 0.35714 0.0
H2026 H 0.80745 0.70118 0.44279 0.0
H2027 H 0.79227 0.70558 0.41713 0.0
C2028 C 0.29635 0.01861 0.33881 0.0
C2029 C 0.30784 0.01532 0.34187 0.0
C2030 C 0.29929 0.03361 0.34254 0.0
C2031 C 0.3302 0.07465 0.34751 0.0
H2032 H 0.30262 0.07886 0.38681 0.0
C2033 C 0.34867 0.12861 0.40164 0.0
C2034 C 0.33796 0.13232 0.40888 0.0
C2035 C 0.34435 0.11586 0.38759 0.0
C2036 C 0.31027 0.07798 0.37535 0.0
H2037 H 0.33154 0.02531 0.35067 0.0
H2038 H 0.33668 0.05149 0.35704 0.0
H2039 H 0.29624 0.05324 0.37377 0.0
H2040 H 0.31466 0.12642 0.40581 0.0
H2041 H 0.30706 0.10417 0.38068 0.0
H2042 H 0.34438 0.09935 0.34936 0.0
C2043 C 0.3254 0.04247 0.35171 0.0
C2044 C 0.30663 0.06324 0.36797 0.0
C2045 C 0.32243 0.02744 0.34822 0.0
C2046 C 0.32312 0.12382 0.40036 0.0
C2047 C 0.31876 0.11098 0.38622 0.0
C2048 C 0.33378 0.0894 0.35471 0.0
C2049 C 0.31382 0.04568 0.34913 0.0
C2050 C 0.31677 0.06139 0.35451 0.0
C2051 C 0.32919 0.10649 0.38039 0.0
C2052 C 0.3241 0.09123 0.36931 0.0
H2053 H 0.28499 0.00954 0.33391 0.0
H2054 H 0.29017 0.03576 0.34032 0.0
H2055 H 0.3381 0.07359 0.33682 0.0
H2056 H 0.36019 0.13502 0.40802 0.0
H2057 H 0.35269 0.11276 0.38371 0.0
C2058 C 0.98376 0.2994 0.35882 0.0
C2059 C 0.98583 0.30881 0.34094 0.0
C2060 C 0.96951 0.28629 0.363 0.0
C2061 C 0.92854 0.26933 0.35322 0.0
H2062 H 0.92578 0.23238 0.3749 0.0
C2063 C 0.88265 0.20467 0.39036 0.0
C2064 C 0.87557 0.20932 0.40588 0.0
C2065 C 0.8942 0.21559 0.37684 0.0
C2066 C 0.92625 0.24246 0.36847 0.0
H2067 H 0.97451 0.31171 0.31331 0.0
H2068 H 0.94964 0.28878 0.32061 0.0
H2069 H 0.95018 0.25372 0.36255 0.0
H2070 H 0.87419 0.22864 0.4187 0.0
H2071 H 0.89417 0.24769 0.39512 0.0
H2072 H 0.90461 0.25811 0.35943 0.0
C2073 C 0.95903 0.29163 0.33149 0.0
C2074 C 0.94031 0.25482 0.3617 0.0
C2075 C 0.97331 0.30474 0.32726 0.0
C2076 C 0.87934 0.22477 0.40653 0.0
C2077 C 0.89082 0.23567 0.39303 0.0
C2078 C 0.91445 0.25697 0.36003 0.0
C2079 C 0.95696 0.28225 0.34944 0.0
C2080 C 0.94171 0.26855 0.35448 0.0
C2081 C 0.89887 0.23135 0.37872 0.0
C2082 C 0.91319 0.2435 0.3682 0.0
H2083 H 0.99313 0.3022 0.36972 0.0
H2084 H 0.96828 0.27948 0.37718 0.0
H2085 H 0.92921 0.27975 0.34782 0.0
H2086 H 0.88007 0.19284 0.38986 0.0
H2087 H 0.90002 0.21184 0.36577 0.0
C2088 C 0.00777 0.3812 0.34931 0.0
C2089 C 0.02054 0.38039 0.34331 0.0
C2090 C 0.0069 0.39404 0.3439 0.0
C2091 C 0.03027 0.43497 0.32779 0.0
H2092 H 0.99357 0.42709 0.29874 0.0
C2093 C 0.02943 0.47772 0.26914 0.0
C2094 C 0.01605 0.47786 0.26617 0.0
C2095 C 0.02984 0.46762 0.28383 0.0
C2096 C 0.00378 0.4296 0.3073 0.0
H2097 H 0.04256 0.39261 0.32731 0.0
H2098 H 0.04107 0.415 0.31797 0.0
H2099 H 0.99449 0.40565 0.31399 0.0
H2100 H 0.99289 0.46835 0.27729 0.0
H2101 H 0.99362 0.45079 0.30351 0.0
H2102 H 0.03968 0.45887 0.3208 0.0
C2103 C 0.03175 0.40574 0.32695 0.0
C2104 C 0.00432 0.41726 0.31596 0.0
C2105 C 0.03255 0.39284 0.33216 0.0
C2106 C 0.00338 0.46853 0.27941 0.0
C2107 C 0.00376 0.45834 0.29417 0.0
C2108 C 0.02969 0.44733 0.31929 0.0
C2109 C 0.01886 0.40643 0.33259 0.0
C2110 C 0.01771 0.41975 0.32577 0.0
C2111 C 0.01684 0.45738 0.29596 0.0
C2112 C 0.01659 0.44475 0.30836 0.0
H2113 H 0.99832 0.37181 0.35792 0.0
H2114 H 0.99687 0.39428 0.34858 0.0
H2115 H 0.04065 0.4373 0.33562 0.0
H2116 H 0.03934 0.4848 0.25906 0.0
H2117 H 0.04007 0.46716 0.28451 0.0
C2118 C 0.63904 0.64737 0.32708 0.0
C2119 C 0.63615 0.65904 0.33325 0.0
C2120 C 0.62706 0.63205 0.32391 0.0
C2121 C 0.58537 0.60525 0.33343 0.0
H2122 H 0.58871 0.58324 0.28261 0.0
C2123 C 0.53471 0.55657 0.28405 0.0
C2124 C 0.53641 0.54511 0.27344 0.0
C2125 C 0.54642 0.56807 0.2972 0.0
C2126 C 0.58767 0.58904 0.29717 0.0
H2127 H 0.61838 0.6637 0.3413 0.0
H2128 H 0.59748 0.63712 0.3351 0.0
H2129 H 0.61027 0.60837 0.29343 0.0
H2130 H 0.55107 0.53596 0.26918 0.0
H2131 H 0.57153 0.55593 0.29249 0.0
H2132 H 0.5624 0.58609 0.33633 0.0
C2133 C 0.60901 0.63969 0.33319 0.0
C2134 C 0.60008 0.60352 0.30339 0.0
C2135 C 0.62101 0.65498 0.33657 0.0
C2136 C 0.54943 0.54454 0.27758 0.0
C2137 C 0.56119 0.55609 0.29065 0.0
C2138 C 0.57289 0.59078 0.32707 0.0
C2139 C 0.61186 0.62802 0.3266 0.0
C2140 C 0.59903 0.61197 0.32137 0.0
C2141 C 0.56011 0.5684 0.2997 0.0
C2142 C 0.57383 0.58262 0.30864 0.0
H2143 H 0.65059 0.65006 0.32464 0.0
H2144 H 0.62974 0.62336 0.31926 0.0
H2145 H 0.58422 0.61127 0.34762 0.0
H2146 H 0.52489 0.55739 0.28064 0.0
H2147 H 0.54526 0.57744 0.30377 0.0
C2148 C 0.35577 0.97298 0.32821 0.0
C2149 C 0.35561 0.98296 0.34461 0.0
C2150 C 0.36915 0.97322 0.32333 0.0
C2151 C 0.41064 0.99876 0.3259 0.0
H2152 H 0.40983 0.96104 0.31008 0.0
C2153 C 0.46343 1.00137 0.28867 0.0
C2154 C 0.46019 0.99263 0.26898 0.0
C2155 C 0.45163 0.9987 0.30311 0.0
C2156 C 0.41026 0.97168 0.31449 0.0
H2157 H 0.36939 1.00085 0.36901 0.0
H2158 H 0.3928 1.00129 0.36039 0.0
H2159 H 0.38706 0.9595 0.32515 0.0
H2160 H 0.44249 0.97371 0.24948 0.0
H2161 H 0.42197 0.96893 0.27455 0.0
H2162 H 0.43363 0.01098 0.31443 0.0
C2163 C 0.38255 0.99333 0.35125 0.0
C2164 C 0.39721 0.9708 0.32307 0.0
C2165 C 0.36912 0.99304 0.35623 0.0
C2166 C 0.44523 0.98049 0.2647 0.0
C2167 C 0.4335 0.97776 0.27912 0.0
C2168 C 0.42369 0.99965 0.31726 0.0
C2169 C 0.38273 0.98347 0.33466 0.0
C2170 C 0.39712 0.98434 0.3283 0.0
C2171 C 0.43645 0.9872 0.29809 0.0
C2172 C 0.42354 0.98613 0.31087 0.0
H2173 H 0.34557 0.96506 0.31895 0.0
H2174 H 0.36893 0.96564 0.31022 0.0
H2175 H 0.41093 0.00942 0.32959 0.0
H2176 H 0.47488 0.0109 0.29214 0.0
H2177 H 0.4543 0.00606 0.31772 0.0
C2178 C 0.63138 0.0054 0.35392 0.0
C2179 C 0.63024 0.99106 0.35041 0.0
C2180 C 0.61904 0.00704 0.34943 0.0
C2181 C 0.57731 0.98471 0.33966 0.0
H2182 H 0.58572 0.01933 0.30379 0.0
C2183 C 0.53405 0.98313 0.28003 0.0
C2184 C 0.53483 0.99689 0.27473 0.0
C2185 C 0.54415 0.9833 0.29524 0.0
C2186 C 0.58313 0.00978 0.31426 0.0
H2187 H 0.61506 0.96711 0.34 0.0
H2188 H 0.59363 0.96998 0.33211 0.0
H2189 H 0.60673 0.018 0.3188 0.0
H2190 H 0.54609 0.02147 0.2819 0.0
H2191 H 0.56374 0.02183 0.30894 0.0
H2192 H 0.5537 0.97625 0.33455 0.0
C2193 C 0.60401 0.97994 0.3385 0.0
C2194 C 0.59521 0.009 0.32281 0.0
C2195 C 0.61636 0.97832 0.34285 0.0
C2196 C 0.54517 0.01069 0.286 0.0
C2197 C 0.55538 0.0109 0.30122 0.0
C2198 C 0.56522 0.98552 0.33118 0.0
C2199 C 0.60524 0.99435 0.34149 0.0
C2200 C 0.59245 0.99622 0.33507 0.0
C2201 C 0.55536 0.99729 0.30537 0.0
C2202 C 0.56798 0.99783 0.31781 0.0
H2203 H 0.64189 0.01544 0.35979 0.0
H2204 H 0.62031 0.01826 0.35206 0.0
H2205 H 0.5748 0.97486 0.3494 0.0
H2206 H 0.52628 0.9724 0.27126 0.0
H2207 H 0.54388 0.97264 0.29776 0.0
C2208 C 0.04492 0.65995 0.33713 0.0
C2209 C 0.03248 0.662 0.33618 0.0
C2210 C 0.04283 0.64526 0.33382 0.0
C2211 C 0.01364 0.60328 0.33232 0.0
H2212 H 0.04031 0.60072 0.28921 0.0
C2213 C 0.99592 0.54942 0.27801 0.0
C2214 C 0.00699 0.54662 0.2695 0.0
C2215 C 1.00004 0.56214 0.29207 0.0
C2216 C 0.03296 0.60117 0.3017 0.0
H2217 H 0.00804 0.65013 0.33172 0.0
H2218 H 0.00442 0.62454 0.32589 0.0
H2219 H 0.04565 0.62594 0.30239 0.0
H2220 H 0.03084 0.55412 0.27043 0.0
H2221 H 0.03808 0.57627 0.29548 0.0
H2222 H 1.00071 0.57849 0.33117 0.0
C2223 C 0.01577 0.63427 0.32935 0.0
C2224 C 0.03601 0.61568 0.3092 0.0
C2225 C 0.01786 0.64896 0.33252 0.0
C2226 C 0.02208 0.55601 0.27682 0.0
C2227 C 0.02623 0.56878 0.29093 0.0
C2228 C 0.01064 0.58876 0.32491 0.0
C2229 C 0.02826 0.63228 0.32964 0.0
C2230 C 0.02614 0.6169 0.32411 0.0
C2231 C 0.01535 0.57236 0.29799 0.0
C2232 C 0.02 0.58752 0.309 0.0
H2233 H 0.05633 0.66974 0.33999 0.0
H2234 H 0.05266 0.64408 0.33432 0.0
H2235 H 0.00598 0.60385 0.34411 0.0
H2236 H 0.98418 0.5423 0.27268 0.0
H2237 H 0.99134 0.56453 0.29699 0.0
C2238 C 0.37078 0.36782 0.33662 0.0
C2239 C 0.35675 0.36693 0.33761 0.0
C2240 C 0.38429 0.38201 0.33364 0.0
C2241 C 0.39798 0.42042 0.31078 0.0
H2242 H 0.43673 0.42928 0.33355 0.0
C2243 C 0.45375 0.4722 0.27964 0.0
C2244 C 0.46363 0.4677 0.27131 0.0
C2245 C 0.44189 0.46251 0.2938 0.0
C2246 C 0.42599 0.42701 0.32718 0.0
H2247 H 0.34598 0.38042 0.33732 0.0
H2248 H 0.36958 0.40523 0.33252 0.0
H2249 H 0.41318 0.40703 0.34694 0.0
H2250 H 0.46969 0.4503 0.27224 0.0
H2251 H 0.44922 0.43351 0.29716 0.0
H2252 H 0.41079 0.44012 0.29058 0.0
C2253 C 0.37012 0.39489 0.33357 0.0
C2254 C 0.41249 0.41422 0.33475 0.0
C2255 C 0.35659 0.38067 0.33643 0.0
C2256 C 0.46226 0.45404 0.27866 0.0
C2257 C 0.45054 0.44445 0.29295 0.0
C2258 C 0.41146 0.43325 0.30333 0.0
C2259 C 0.38413 0.39571 0.33172 0.0
C2260 C 0.39833 0.4105 0.32615 0.0
C2261 C 0.43984 0.44826 0.29994 0.0
C2262 C 0.42564 0.43644 0.31096 0.0
H2263 H 0.37132 0.35747 0.33746 0.0
H2264 H 0.3948 0.38212 0.33197 0.0
H2265 H 0.38735 0.41785 0.30355 0.0
H2266 H 0.45452 0.48261 0.27395 0.0
H2267 H 0.43389 0.4658 0.29908 0.0
C2268 C 0.30016 0.27511 0.35743 0.0
C2269 C 0.30809 0.28759 0.34324 0.0
C2270 C 0.30431 0.26412 0.35932 0.0
C2271 C 0.3372 0.25938 0.35083 0.0
H2272 H 0.3076 0.2176 0.36828 0.0
C2273 C 0.33132 0.2009 0.39122 0.0
C2274 C 0.34258 0.20875 0.40742 0.0
C2275 C 0.32851 0.20923 0.37596 0.0
C2276 C 0.31607 0.22908 0.36292 0.0
H2277 H 0.32626 0.29796 0.31919 0.0
H2278 H 0.33329 0.27855 0.32207 0.0
H2279 H 0.29899 0.23412 0.3553 0.0
H2280 H 0.36081 0.23126 0.41896 0.0
H2281 H 0.35588 0.24576 0.3929 0.0
H2282 H 0.35428 0.25428 0.35831 0.0
C2283 C 0.32405 0.27744 0.33215 0.0
C2284 C 0.3111 0.23869 0.35584 0.0
C2285 C 0.31997 0.28854 0.3304 0.0
C2286 C 0.352 0.22493 0.40667 0.0
C2287 C 0.34918 0.23325 0.39158 0.0
C2288 C 0.34217 0.24969 0.35765 0.0
C2289 C 0.31642 0.2652 0.3469 0.0
C2290 C 0.32161 0.25418 0.35059 0.0
C2291 C 0.3369 0.22557 0.37672 0.0
C2292 C 0.33169 0.23461 0.3647 0.0
H2293 H 0.29099 0.27404 0.36764 0.0
H2294 H 0.29833 0.2551 0.37119 0.0
H2295 H 0.34568 0.27121 0.34693 0.0
H2296 H 0.32389 0.18842 0.39148 0.0
H2297 H 0.31921 0.2029 0.36442 0.0
C2298 C 0.70807 0.0221 0.36444 0.0
C2299 C 0.7012 0.01814 0.34351 0.0
C2300 C 0.72165 0.03624 0.36817 0.0
C2301 C 0.74475 0.07563 0.34623 0.0
H2302 H 0.77433 0.07887 0.38816 0.0
C2303 C 0.80358 0.1237 0.39652 0.0
C2304 C 0.79879 0.13377 0.40345 0.0
C2305 C 0.79401 0.11051 0.3835 0.0
C2306 C 0.76639 0.07821 0.37605 0.0
H2307 H 0.70343 0.02587 0.30996 0.0
H2308 H 0.72722 0.05045 0.31642 0.0
H2309 H 0.7531 0.05348 0.37709 0.0
H2310 H 0.78096 0.13882 0.40077 0.0
H2311 H 0.7643 0.11599 0.37819 0.0
H2312 H 0.75803 0.10038 0.34529 0.0
C2313 C 0.72199 0.04272 0.33004 0.0
C2314 C 0.75404 0.06361 0.36998 0.0
C2315 C 0.70837 0.02858 0.32632 0.0
C2316 C 0.78492 0.13123 0.39553 0.0
C2317 C 0.77539 0.11813 0.38255 0.0
C2318 C 0.75714 0.09023 0.35225 0.0
C2319 C 0.72876 0.04677 0.35106 0.0
C2320 C 0.74283 0.06215 0.35547 0.0
C2321 C 0.77949 0.10722 0.37719 0.0
C2322 C 0.7679 0.09174 0.36772 0.0
H2323 H 0.70285 0.01437 0.37807 0.0
H2324 H 0.72637 0.03906 0.38466 0.0
H2325 H 0.73633 0.07499 0.33507 0.0
H2326 H 0.81417 0.12535 0.40256 0.0
H2327 H 0.79764 0.10249 0.37934 0.0
C2328 C 0.98026 0.70094 0.34188 0.0
C2329 C 0.98029 0.68803 0.33293 0.0
C2330 C 0.96657 0.70006 0.34678 0.0
C2331 C 0.92705 0.6717 0.36137 0.0
H2332 H 0.92202 0.70676 0.35608 0.0
C2333 C 0.87648 0.67144 0.40258 0.0
C2334 C 0.88105 0.68467 0.41596 0.0
C2335 C 0.88636 0.67142 0.38653 0.0
C2336 C 0.92322 0.69684 0.35762 0.0
H2337 H 0.96588 0.66421 0.32134 0.0
H2338 H 0.94197 0.66269 0.32988 0.0
H2339 H 0.94399 0.70751 0.33921 0.0
H2340 H 0.89887 0.70853 0.42214 0.0
H2341 H 0.91603 0.7086 0.39424 0.0
H2342 H 0.90666 0.66128 0.38053 0.0
C2343 C 0.95257 0.67346 0.3333 0.0
C2344 C 0.93582 0.69729 0.348 0.0
C2345 C 0.96628 0.67436 0.32832 0.0
C2346 C 0.89509 0.6982 0.41193 0.0
C2347 C 0.90489 0.69823 0.39587 0.0
C2348 C 0.91446 0.67126 0.37102 0.0
C2349 C 0.95255 0.68623 0.34289 0.0
C2350 C 0.93812 0.6849 0.3503 0.0
C2351 C 0.9009 0.68467 0.38354 0.0
C2352 C 0.91263 0.68402 0.36982 0.0
H2353 H 0.99084 0.71166 0.34561 0.0
H2354 H 0.967 0.71005 0.35441 0.0
H2355 H 0.92852 0.66202 0.36365 0.0
H2356 H 0.86574 0.66083 0.40554 0.0
H2357 H 0.88287 0.66085 0.37712 0.0
C2358 C 0.40275 0.05426 0.68619 0.0
C2359 C 0.38761 0.04183 0.68423 0.0
C2360 C 0.41444 0.05162 0.69077 0.0
C2361 C 0.42395 0.02104 0.69025 0.0
H2362 H 0.45253 0.04651 0.73634 0.0
C2363 C 0.45619 1.00103 0.7423 0.0
C2364 C 0.47052 0.012 0.7511 0.0
C2365 C 0.44829 0.00565 0.72931 0.0
C2366 C 0.44489 0.03949 0.72308 0.0
H2367 H 0.37294 0.01683 0.68518 0.0
H2368 H 0.39328 0.01225 0.69333 0.0
H2369 H 0.43422 0.05275 0.72333 0.0
H2370 H 0.48829 0.03625 0.75199 0.0
H2371 H 0.47457 0.04439 0.72889 0.0
H2372 H 0.43437 0.00753 0.69041 0.0
C2373 C 0.39616 0.02404 0.69109 0.0
C2374 C 0.43434 0.04305 0.71566 0.0
C2375 C 0.38447 0.02668 0.68659 0.0
C2376 C 0.4773 0.02755 0.74531 0.0
C2377 C 0.46935 0.03221 0.73232 0.0
C2378 C 0.43453 0.0175 0.69762 0.0
C2379 C 0.41127 0.03648 0.6934 0.0
C2380 C 0.42351 0.03365 0.69953 0.0
C2381 C 0.45452 0.02138 0.72482 0.0
C2382 C 0.4449 0.02646 0.71451 0.0
H2383 H 0.40559 0.06607 0.68438 0.0
H2384 H 0.42598 0.06145 0.69224 0.0
H2385 H 0.41595 0.01375 0.67749 0.0
H2386 H 0.45073 0.98895 0.74649 0.0
H2387 H 0.43688 0.99699 0.724 0.0
C2388 C 0.9943 0.35861 0.68426 0.0
C2389 C 0.97982 0.34709 0.67656 0.0
C2390 C 0.99777 0.37376 0.68829 0.0
C2391 C 0.98411 0.40081 0.67926 0.0
H2392 H 0.00645 0.4202 0.73326 0.0
C2393 C 0.98134 0.44833 0.73013 0.0
C2394 C 0.99404 0.45877 0.74291 0.0
C2395 C 0.98179 0.4372 0.71653 0.0
C2396 C 1.00049 0.41517 0.71786 0.0
H2397 H 0.95774 0.34256 0.66653 0.0
H2398 H 0.96363 0.36886 0.67417 0.0
H2399 H 0.00283 0.39561 0.72076 0.0
H2400 H 0.01746 0.46671 0.75038 0.0
H2401 H 0.01849 0.44764 0.7261 0.0
H2402 H 0.98127 0.42023 0.67706 0.0
C2403 C 0.97244 0.3663 0.67668 0.0
C2404 C 0.99839 0.40099 0.71067 0.0
C2405 C 0.96902 0.35117 0.67244 0.0
C2406 C 0.00762 0.45889 0.74038 0.0
C2407 C 0.0081 0.44783 0.72675 0.0
C2408 C 0.98616 0.41502 0.68656 0.0
C2409 C 0.9868 0.37775 0.68496 0.0
C2410 C 0.99 0.39349 0.69144 0.0
C2411 C 0.99495 0.43632 0.71563 0.0
C2412 C 0.99423 0.42227 0.7061 0.0
H2413 H 0.00296 0.35592 0.68736 0.0
H2414 H 0.00905 0.38232 0.69423 0.0
H2415 H 0.97779 0.3955 0.6642 0.0
H2416 H 0.97066 0.44783 0.73224 0.0
H2417 H 0.97143 0.42848 0.70831 0.0
C2418 C 0.648 0.63819 0.68907 0.0
C2419 C 0.65795 0.63378 0.68058 0.0
C2420 C 0.63283 0.62704 0.69359 0.0
C2421 C 0.6028 0.58542 0.68369 0.0
H2422 H 0.58637 0.59126 0.73829 0.0
C2423 C 0.55383 0.53618 0.73289 0.0
C2424 C 0.54441 0.53955 0.74553 0.0
C2425 C 0.56542 0.54758 0.72 0.0
C2426 C 0.59061 0.58956 0.72274 0.0
H2427 H 0.65965 0.61418 0.66987 0.0
H2428 H 0.63336 0.59472 0.67829 0.0
H2429 H 0.61132 0.61148 0.72612 0.0
H2430 H 0.53898 0.55697 0.75376 0.0
H2431 H 0.559 0.57685 0.73082 0.0
H2432 H 0.58221 0.56314 0.68094 0.0
C2433 C 0.63715 0.60681 0.68105 0.0
C2434 C 0.60499 0.60118 0.71574 0.0
C2435 C 0.6523 0.61798 0.67638 0.0
C2436 C 0.54595 0.55406 0.74379 0.0
C2437 C 0.55755 0.56547 0.73093 0.0
C2438 C 0.58842 0.57372 0.69078 0.0
C2439 C 0.62724 0.61117 0.6899 0.0
C2440 C 0.61139 0.59921 0.69629 0.0
C2441 C 0.56787 0.56259 0.71974 0.0
C2442 C 0.58224 0.57558 0.71055 0.0
H2443 H 0.65193 0.65027 0.6923 0.0
H2444 H 0.62548 0.63087 0.70003 0.0
H2445 H 0.60725 0.5836 0.66843 0.0
H2446 H 0.55304 0.52517 0.73445 0.0
H2447 H 0.57322 0.54499 0.71175 0.0
C2448 C 0.70275 0.72533 0.66744 0.0
C2449 C 0.69123 0.7131 0.67955 0.0
C2450 C 0.70184 0.73826 0.6628 0.0
C2451 C 0.67394 0.74968 0.65547 0.0
H2452 H 0.70941 0.79132 0.6565 0.0
C2453 C 0.67061 0.79952 0.61928 0.0
C2454 C 0.68245 0.80839 0.60454 0.0
C2455 C 0.67198 0.79001 0.63419 0.0
C2456 C 0.69938 0.77977 0.65609 0.0
H2457 H 0.66986 0.70503 0.69665 0.0
H2458 H 0.66824 0.72752 0.68837 0.0
H2459 H 0.71125 0.77011 0.67076 0.0
H2460 H 0.70531 0.81522 0.59476 0.0
H2461 H 0.70776 0.79875 0.6205 0.0
H2462 H 0.66223 0.75908 0.63985 0.0
C2463 C 0.67795 0.72708 0.68243 0.0
C2464 C 0.70046 0.76761 0.66425 0.0
C2465 C 0.67892 0.71422 0.68724 0.0
C2466 C 0.69608 0.80856 0.60612 0.0
C2467 C 0.69746 0.79911 0.62095 0.0
C2468 C 0.67289 0.76179 0.64713 0.0
C2469 C 0.68934 0.7392 0.67002 0.0
C2470 C 0.68784 0.75238 0.66358 0.0
C2471 C 0.68521 0.78922 0.63456 0.0
C2472 C 0.6857 0.77695 0.64683 0.0
H2473 H 0.71239 0.72486 0.66131 0.0
H2474 H 0.71072 0.74731 0.65298 0.0
H2475 H 0.66404 0.73805 0.65453 0.0
H2476 H 0.65993 0.79911 0.61818 0.0
H2477 H 0.66241 0.78274 0.64469 0.0
C2478 C 0.29481 0.98904 0.66412 0.0
C2479 C 0.30774 0.98871 0.67007 0.0
C2480 C 0.28083 0.97526 0.66064 0.0
C2481 C 0.26023 0.93263 0.66955 0.0
H2482 H 0.23646 0.93085 0.61942 0.0
C2483 C 0.21876 0.87712 0.62019 0.0
C2484 C 0.20605 0.87607 0.61028 0.0
C2485 C 0.22869 0.89012 0.63313 0.0
C2486 C 0.24276 0.9312 0.63378 0.0
H2487 H 0.31609 0.97363 0.6772 0.0
H2488 H 0.29189 0.94966 0.67048 0.0
H2489 H 0.25903 0.95529 0.63016 0.0
H2490 H 0.19313 0.88714 0.607 0.0
H2491 H 0.21043 0.90991 0.62985 0.0
H2492 H 0.24423 0.90826 0.67234 0.0
C2493 C 0.2924 0.96053 0.66901 0.0
C2494 C 0.25576 0.94525 0.63996 0.0
C2495 C 0.30634 0.9743 0.67268 0.0
C2496 C 0.20274 0.88762 0.61484 0.0
C2497 C 0.21274 0.9007 0.62765 0.0
C2498 C 0.24727 0.91852 0.66325 0.0
C2499 C 0.27946 0.96081 0.66283 0.0
C2500 C 0.26484 0.94612 0.65766 0.0
C2501 C 0.22617 0.90239 0.6361 0.0
C2502 C 0.23854 0.9176 0.64505 0.0
H2503 H 0.29546 0.99995 0.6622 0.0
H2504 H 0.27108 0.97597 0.65626 0.0
H2505 H 0.26676 0.93291 0.68356 0.0
H2506 H 0.22165 0.86846 0.61649 0.0
H2507 H 0.23898 0.8911 0.63922 0.0
C2508 C 0.04176 0.33246 0.67797 0.0
C2509 C 0.02773 0.31834 0.67772 0.0
C2510 C 0.05519 0.33288 0.6727 0.0
C2511 C 0.06837 0.31023 0.64182 0.0
H2512 H 0.10754 0.34165 0.66598 0.0
C2513 C 0.12365 0.31877 0.605 0.0
C2514 C 0.13354 0.33405 0.59842 0.0
C2515 C 0.11191 0.31539 0.61992 0.0
C2516 C 0.09667 0.33275 0.65918 0.0
H2517 H 0.01688 0.29349 0.67281 0.0
H2518 H 0.04034 0.29418 0.66412 0.0
H2519 H 0.08426 0.33823 0.68232 0.0
H2520 H 0.13974 0.35787 0.6033 0.0
H2521 H 0.11944 0.35206 0.62953 0.0
H2522 H 0.08079 0.305 0.61839 0.0
C2523 C 0.04094 0.30499 0.66784 0.0
C2524 C 0.08333 0.33084 0.66844 0.0
C2525 C 0.02749 0.30459 0.67293 0.0
C2526 C 0.13226 0.34601 0.60822 0.0
C2527 C 0.12066 0.34267 0.62328 0.0
C2528 C 0.08169 0.31206 0.6327 0.0
C2529 C 0.05494 0.31917 0.66725 0.0
C2530 C 0.06902 0.31985 0.65947 0.0
C2531 C 0.11 0.32726 0.62864 0.0
C2532 C 0.096 0.32362 0.64088 0.0
H2533 H 0.04235 0.34328 0.68156 0.0
H2534 H 0.06568 0.34404 0.67211 0.0
H2535 H 0.05762 0.30179 0.63424 0.0
H2536 H 0.12435 0.30935 0.5975 0.0
H2537 H 0.10392 0.30343 0.6239 0.0
C2538 C 0.28652 0.31321 0.67418 0.0
C2539 C 0.298 0.31791 0.65819 0.0
C2540 C 0.27433 0.31536 0.67103 0.0
C2541 C 0.26205 0.33704 0.63737 0.0
H2542 H 0.22134 0.30246 0.64848 0.0
C2543 C 0.20022 0.31072 0.59718 0.0
C2544 C 0.20036 0.3244 0.59367 0.0
C2545 C 0.21066 0.31069 0.6115 0.0
C2546 C 0.23264 0.31227 0.6454 0.0
H2547 H 0.30574 0.32872 0.62648 0.0
H2548 H 0.28451 0.33224 0.62089 0.0
H2549 H 0.24327 0.30135 0.66009 0.0
H2550 H 0.21067 0.34851 0.60355 0.0
H2551 H 0.22891 0.34849 0.62901 0.0
H2552 H 0.2515 0.34757 0.62149 0.0
C2553 C 0.28499 0.32712 0.63604 0.0
C2554 C 0.24522 0.31169 0.65224 0.0
C2555 C 0.29712 0.32497 0.63916 0.0
C2556 C 0.2103 0.33779 0.6061 0.0
C2557 C 0.22084 0.3378 0.62044 0.0
C2558 C 0.24949 0.33761 0.63051 0.0
C2559 C 0.27339 0.32229 0.65186 0.0
C2560 C 0.26008 0.32386 0.64765 0.0
C2561 C 0.22154 0.32439 0.62261 0.0
C2562 C 0.23462 0.32502 0.6338 0.0
H2563 H 0.28688 0.30778 0.68907 0.0
H2564 H 0.26565 0.3116 0.68362 0.0
H2565 H 0.27335 0.34675 0.63396 0.0
H2566 H 0.19268 0.30026 0.5877 0.0
H2567 H 0.21091 0.30019 0.61253 0.0
C2568 C 0.6884 0.98377 0.65925 0.0
C2569 C 0.70279 0.99745 0.65832 0.0
C2570 C 0.68692 0.96929 0.65683 0.0
C2571 C 0.70639 0.95084 0.63216 0.0
H2572 H 0.67577 0.91506 0.66367 0.0
C2573 C 0.69324 0.89012 0.60707 0.0
C2574 C 0.67769 0.87967 0.60317 0.0
C2575 C 0.69806 0.90379 0.61946 0.0
C2576 C 0.6844 0.92494 0.65477 0.0
H2577 H 0.72697 0.00658 0.65472 0.0
H2578 H 0.72436 0.98132 0.65057 0.0
H2579 H 0.68081 0.94077 0.67401 0.0
H2580 H 0.65497 0.87455 0.61048 0.0
H2581 H 0.66325 0.89822 0.63209 0.0
H2582 H 0.7096 0.93502 0.61236 0.0
C2583 C 0.71421 0.9818 0.65294 0.0
C2584 C 0.68726 0.93967 0.66064 0.0
C2585 C 0.7157 0.99629 0.6554 0.0
C2586 C 0.66703 0.88242 0.61339 0.0
C2587 C 0.6718 0.896 0.62581 0.0
C2588 C 0.70353 0.93612 0.62626 0.0
C2589 C 0.69979 0.96813 0.6534 0.0
C2590 C 0.69801 0.95275 0.64903 0.0
C2591 C 0.68738 0.90718 0.62819 0.0
C2592 C 0.69222 0.92293 0.63711 0.0
H2593 H 0.67822 0.98423 0.6615 0.0
H2594 H 0.67562 0.95902 0.65696 0.0
H2595 H 0.71464 0.96062 0.6227 0.0
H2596 H 0.70167 0.8883 0.59919 0.0
H2597 H 0.71014 0.91207 0.62126 0.0
C2598 C 0.02762 0.72211 0.68952 0.0
C2599 C 0.02201 0.70742 0.67952 0.0
C2600 C 0.04281 0.73395 0.68671 0.0
C2601 C 0.08069 0.74168 0.66915 0.0
H2602 H 0.08701 0.78066 0.64962 0.0
C2603 C 0.12896 0.78182 0.61181 0.0
C2604 C 0.13406 0.79765 0.6116 0.0
C2605 C 0.11796 0.77215 0.6269 0.0
C2606 C 0.08562 0.77004 0.65561 0.0
H2607 H 0.02812 0.69352 0.65933 0.0
H2608 H 0.05454 0.71414 0.65441 0.0
H2609 H 0.06211 0.76089 0.66284 0.0
H2610 H 0.13277 0.81609 0.62811 0.0
H2611 H 0.11369 0.79922 0.65499 0.0
H2612 H 0.1041 0.75066 0.6613 0.0
C2613 C 0.04724 0.7165 0.66453 0.0
C2614 C 0.07127 0.75865 0.66311 0.0
C2615 C 0.03205 0.70471 0.6672 0.0
C2616 C 0.12906 0.80393 0.62807 0.0
C2617 C 0.118 0.79422 0.64323 0.0
C2618 C 0.09508 0.75311 0.66178 0.0
C2619 C 0.05275 0.73131 0.67401 0.0
C2620 C 0.06852 0.74416 0.66929 0.0
C2621 C 0.11179 0.77809 0.64211 0.0
C2622 C 0.0976 0.76725 0.6542 0.0
H2623 H 0.02021 0.72458 0.69918 0.0
H2624 H 0.04674 0.74521 0.69433 0.0
H2625 H 0.07899 0.73072 0.6742 0.0
H2626 H 0.13261 0.77673 0.59916 0.0
H2627 H 0.11343 0.75983 0.62535 0.0
C2628 C 0.97465 0.6155 0.66992 0.0
C2629 C 0.98496 0.62843 0.68297 0.0
C2630 C 0.97389 0.60136 0.67157 0.0
C2631 C 0.99504 0.58393 0.69335 0.0
H2632 H 0.95502 0.54698 0.69861 0.0
C2633 C 0.96748 0.52654 0.74601 0.0
C2634 C 0.97935 0.52363 0.74482 0.0
C2635 C 0.9667 0.53629 0.73106 0.0
C2636 C 0.9663 0.55716 0.69705 0.0
H2637 H 0.0027 0.63665 0.70771 0.0
H2638 H 1.0012 0.61211 0.71085 0.0
H2639 H 0.95741 0.57107 0.68759 0.0
H2640 H 0.99881 0.5273 0.72589 0.0
H2641 H 0.99729 0.54413 0.69925 0.0
H2642 H 0.00393 0.57042 0.70434 0.0
C2643 C 0.99387 0.61288 0.69903 0.0
C2644 C 0.96767 0.57096 0.69052 0.0
C2645 C 0.99464 0.62696 0.69738 0.0
C2646 C 0.98952 0.52933 0.72707 0.0
C2647 C 0.98875 0.53913 0.71203 0.0
C2648 C 0.99367 0.57019 0.69999 0.0
C2649 C 0.98343 0.59986 0.68626 0.0
C2650 C 0.98205 0.58466 0.68941 0.0
C2651 C 0.9778 0.54336 0.71456 0.0
C2652 C 0.97925 0.55676 0.70273 0.0
H2653 H 0.96707 0.61626 0.65858 0.0
H2654 H 0.96579 0.5916 0.66138 0.0
H2655 H 0.00631 0.59418 0.69218 0.0
H2656 H 0.95953 0.52227 0.75962 0.0
H2657 H 0.95817 0.53929 0.73372 0.0
C2658 C 0.36595 0.3687 0.69152 0.0
C2659 C 0.36533 0.35467 0.68753 0.0
C2660 C 0.37993 0.38268 0.69304 0.0
C2661 C 0.41973 0.39807 0.70746 0.0
H2662 H 0.42521 0.43641 0.68639 0.0
C2663 C 0.47125 0.45612 0.73574 0.0
C2664 C 0.46695 0.46611 0.74486 0.0
C2665 C 0.46123 0.4437 0.72185 0.0
C2666 C 0.4239 0.4258 0.69231 0.0
H2667 H 0.37895 0.34438 0.68149 0.0
H2668 H 0.40339 0.36882 0.68427 0.0
H2669 H 0.40253 0.41175 0.67574 0.0
H2670 H 0.44956 0.47192 0.74534 0.0
H2671 H 0.43215 0.45044 0.72119 0.0
H2672 H 0.44067 0.41207 0.72489 0.0
C2673 C 0.39303 0.36897 0.68631 0.0
C2674 C 0.41089 0.41169 0.68625 0.0
C2675 C 0.37902 0.35498 0.68467 0.0
C2676 C 0.45314 0.46438 0.73837 0.0
C2677 C 0.44318 0.45207 0.72447 0.0
C2678 C 0.43271 0.41218 0.71357 0.0
C2679 C 0.39364 0.38296 0.6907 0.0
C2680 C 0.40844 0.3977 0.69431 0.0
C2681 C 0.4468 0.44116 0.71686 0.0
C2682 C 0.43472 0.42625 0.70665 0.0
H2683 H 0.35563 0.3689 0.69375 0.0
H2684 H 0.37999 0.39321 0.69676 0.0
H2685 H 0.41814 0.38753 0.71411 0.0
H2686 H 0.48181 0.45717 0.74069 0.0
H2687 H 0.46444 0.43563 0.716 0.0
C2688 C 0.63858 0.01161 0.69826 0.0
C2689 C 0.64799 0.01986 0.68054 0.0
C2690 C 0.62441 0.01008 0.70106 0.0
C2691 C 0.60362 0.02917 0.68719 0.0
H2692 H 0.57048 0.99317 0.71515 0.0
C2693 C 0.5418 0.00566 0.73428 0.0
C2694 C 0.54649 0.0189 0.74769 0.0
C2695 C 0.55192 0.00523 0.71908 0.0
C2696 C 0.57942 0.00321 0.70688 0.0
H2697 H 0.64967 0.03256 0.65142 0.0
H2698 H 0.6248 0.02972 0.65615 0.0
H2699 H 0.59242 0.99251 0.70186 0.0
H2700 H 0.56474 0.04249 0.75445 0.0
H2701 H 0.58236 0.0418 0.72828 0.0
H2702 H 0.59064 0.0399 0.69236 0.0
C2703 C 0.62849 0.02463 0.66809 0.0
C2704 C 0.59216 0.00291 0.69957 0.0
C2705 C 0.64273 0.0262 0.66532 0.0
C2706 C 0.56088 0.03214 0.74427 0.0
C2707 C 0.57096 0.03173 0.72915 0.0
C2708 C 0.59082 0.02943 0.69437 0.0
C2709 C 0.61922 0.01669 0.68614 0.0
C2710 C 0.60467 0.01609 0.69041 0.0
C2711 C 0.56687 0.01805 0.71707 0.0
C2712 C 0.57881 0.01667 0.70508 0.0
H2713 H 0.64227 0.0066 0.71032 0.0
H2714 H 0.61775 0.00415 0.71539 0.0
H2715 H 0.61302 0.03955 0.68023 0.0
H2716 H 0.53077 0.99529 0.7367 0.0
H2717 H 0.5483 0.9946 0.70975 0.0
loop_
_geom_bond_atom_site_label_1
_geom_bond_atom_site_label_2
_geom_bond_distance
_geom_bond_site_symmetry_2
_ccdc_geom_bond_type
C0 O1 1.160 . S
C0 O7 1.185 . S
O1 C0 1.160 . S
O2 Zn3 1.899 1_656 S
O2 C10 1.284 1_556 S
Zn3 O2 1.899 1_454 S
Zn3 O4 2.032 . S
Zn3 O7 2.086 . S
Zn3 O12 1.977 1_554 S
O4 Zn3 2.032 . S
O4 C8 1.278 1_455 S
C5 O6 1.203 1_455 S
C5 O12 1.267 . S
O6 C5 1.203 1_655 S
O7 C0 1.185 . S
O7 Zn3 2.086 . S
C8 O4 1.278 1_655 S
C8 O9 1.211 . S
O9 C8 1.211 . S
C10 O2 1.284 1_554 S
C10 O11 1.273 . S
O11 C10 1.273 . S
O12 Zn3 1.977 1_556 S
O12 C5 1.267 . S
C13 O14 1.163 . S
C13 O20 1.180 1_556 S
O14 C13 1.163 . S
O15 Zn16 1.899 . S
O15 C23 1.284 . S
Zn16 O15 1.899 . S
Zn16 O17 2.032 1_554 S
Zn16 O20 2.086 . S
Zn16 O25 1.977 . S
O17 Zn16 2.032 1_556 S
O17 C21 1.278 . S
C18 O19 1.203 . S
C18 O25 1.267 . S
O19 C18 1.203 . S
O20 C13 1.180 1_554 S
O20 Zn16 2.086 . S
C21 O17 1.278 . S
C21 O22 1.211 . S
O22 C21 1.211 . S
C23 O15 1.284 . S
C23 O24 1.273 . S
O24 C23 1.273 . S
O25 Zn16 1.977 . S
O25 C18 1.267 . S
C26 O27 1.160 1_554 S
C26 O33 1.185 . S
O27 C26 1.160 1_556 S
O28 Zn29 1.899 1_565 S
O28 C36 1.284 . S
Zn29 O28 1.899 1_545 S
Zn29 O30 2.032 1_554 S
Zn29 O33 2.086 . S
Zn29 O38 1.977 . S
O30 Zn29 2.032 1_556 S
O30 C34 1.278 . S
C31 O32 1.203 1_545 S
C31 O38 1.267 . S
O32 C31 1.203 1_565 S
O33 C26 1.185 . S
O33 Zn29 2.086 . S
C34 O30 1.278 . S
C34 O35 1.211 1_545 S
O35 C34 1.211 1_565 S
C36 O28 1.284 . S
C36 O37 1.273 . S
O37 C36 1.273 . S
O38 Zn29 1.977 . S
O38 C31 1.267 . S
C39 O40 1.160 . S
C39 O46 1.185 1_556 S
O40 C39 1.160 . S
O41 Zn42 1.899 1_455 S
O41 C49 1.284 . S
Zn42 O41 1.899 1_655 S
Zn42 O43 2.032 1_554 S
Zn42 O46 2.086 . S
Zn42 O51 1.977 . S
O43 Zn42 2.032 1_556 S
O43 C47 1.278 1_655 S
C44 O45 1.203 1_655 S
C44 O51 1.267 . S
O45 C44 1.203 1_455 S
O46 C39 1.185 1_554 S
O46 Zn42 2.086 . S
C47 O43 1.278 1_455 S
C47 O48 1.211 . S
O48 C47 1.211 . S
C49 O41 1.284 . S
C49 O50 1.273 . S
O50 C49 1.273 . S
O51 Zn42 1.977 . S
O51 C44 1.267 . S
C52 O53 1.160 . S
C52 O59 1.185 . S
O53 C52 1.160 . S
O54 Zn55 1.899 1_556 S
O54 C62 1.284 . S
Zn55 O54 1.899 1_554 S
Zn55 O56 2.032 . S
Zn55 O59 2.086 . S
Zn55 O64 1.977 1_554 S
O56 Zn55 2.032 . S
O56 C60 1.278 . S
C57 O58 1.203 . S
C57 O64 1.267 . S
O58 C57 1.203 . S
O59 C52 1.185 . S
O59 Zn55 2.086 . S
C60 O56 1.278 . S
C60 O61 1.211 . S
O61 C60 1.211 . S
C62 O54 1.284 . S
C62 O63 1.273 1_556 S
O63 C62 1.273 1_554 S
O64 Zn55 1.977 1_556 S
O64 C57 1.267 . S
C65 O66 1.160 . S
C65 O72 1.185 . S
O66 C65 1.160 . S
O67 Zn68 1.899 1_546 S
O67 C75 1.295 . S
Zn68 O67 1.899 1_564 S
Zn68 O69 2.053 . S
Zn68 O72 2.086 . S
Zn68 O77 1.977 1_554 S
O69 Zn68 2.053 . S
O69 C73 1.212 1_565 S
C70 O71 1.203 1_565 S
C70 O77 1.267 . S
O71 C70 1.203 1_545 S
O72 C65 1.185 . S
O72 Zn68 2.086 . S
C73 O69 1.212 1_545 S
C73 O74 1.211 . S
O74 C73 1.211 . S
C75 O67 1.295 . S
C75 O76 1.255 1_556 S
O76 C75 1.255 1_554 S
O77 Zn68 1.977 1_556 S
O77 C70 1.267 . S
C78 O79 1.160 . S
C78 O85 1.185 . S
O79 C78 1.160 . S
O80 Zn81 1.899 . S
O80 C88 1.284 . S
Zn81 O80 1.899 . S
Zn81 O82 2.032 . S
Zn81 O85 2.086 . S
Zn81 O90 1.977 . S
O82 Zn81 2.032 . S
O82 C86 1.278 . S
C83 O84 1.203 . S
C83 O90 1.267 . S
O84 C83 1.203 . S
O85 C78 1.185 . S
O85 Zn81 2.086 . S
C86 O82 1.278 . S
C86 O87 1.211 . S
O87 C86 1.211 . S
C88 O80 1.284 . S
C88 O89 1.273 . S
O89 C88 1.273 . S
O90 Zn81 1.977 . S
O90 C83 1.267 . S
C91 O92 1.158 1_565 S
C91 O98 1.185 . S
O92 C91 1.158 1_545 S
O93 Zn94 1.899 1_545 S
O93 C101 1.284 . S
Zn94 O93 1.899 1_565 S
Zn94 O95 2.032 . S
Zn94 O98 2.086 . S
Zn94 O103 1.977 . S
O95 Zn94 2.032 . S
O95 C99 1.278 . S
C96 O97 1.203 . S
C96 O103 1.267 . S
O97 C96 1.203 . S
O98 C91 1.185 . S
O98 Zn94 2.086 . S
C99 O95 1.278 . S
C99 O100 1.211 . S
O100 C99 1.211 . S
C101 O93 1.284 . S
C101 O102 1.273 . S
O102 C101 1.273 . S
O103 Zn94 1.977 . S
O103 C96 1.267 . S
C104 O105 1.160 . S
C104 O111 1.185 . S
O105 C104 1.160 . S
O106 Zn107 1.899 . S
O106 C114 1.284 1_455 S
Zn107 O106 1.899 . S
Zn107 O108 2.032 . S
Zn107 O111 2.086 . S
Zn107 O116 1.977 . S
O108 Zn107 2.032 . S
O108 C112 1.278 . S
C109 O110 1.203 . S
C109 O116 1.267 . S
O110 C109 1.203 . S
O111 C104 1.185 . S
O111 Zn107 2.086 . S
C112 O108 1.278 . S
C112 O113 1.211 . S
O113 C112 1.211 . S
C114 O106 1.284 1_655 S
C114 O115 1.273 1_655 S
O115 C114 1.273 1_455 S
O116 Zn107 1.977 . S
O116 C109 1.267 . S
C117 O118 1.149 1_565 S
C117 O124 1.185 . S
O118 C117 1.149 1_545 S
O119 Zn120 1.899 1_545 S
O119 C127 1.284 . S
Zn120 O119 1.899 1_565 S
Zn120 O121 2.032 . S
Zn120 O124 2.086 . S
Zn120 O129 1.977 . S
O121 Zn120 2.032 . S
O121 C125 1.278 . S
C122 O123 1.203 . S
C122 O129 1.267 . S
O123 C122 1.203 . S
O124 C117 1.185 . S
O124 Zn120 2.086 . S
C125 O121 1.278 . S
C125 O126 1.211 . S
O126 C125 1.211 . S
C127 O119 1.284 . S
C127 O128 1.273 . S
O128 C127 1.273 . S
O129 Zn120 1.977 . S
O129 C122 1.267 . S
C130 O131 1.160 . S
C130 O137 1.185 . S
O131 C130 1.160 . S
O132 Zn133 1.899 . S
O132 C140 1.284 . S
Zn133 O132 1.899 . S
Zn133 O134 2.032 . S
Zn133 O137 2.086 1_455 S
Zn133 O142 1.977 . S
O134 Zn133 2.032 . S
O134 C138 1.278 . S
C135 O136 1.203 . S
C135 O142 1.267 . S
O136 C135 1.203 . S
O137 C130 1.185 . S
O137 Zn133 2.086 1_655 S
C138 O134 1.278 . S
C138 O139 1.211 . S
O139 C138 1.211 . S
C140 O132 1.284 . S
C140 O141 1.273 . S
O141 C140 1.273 . S
O142 Zn133 1.977 . S
O142 C135 1.267 . S
C143 O144 1.160 . S
C143 O150 1.185 . S
O144 C143 1.160 . S
O145 Zn146 1.899 . S
O145 C153 1.284 . S
Zn146 O145 1.899 . S
Zn146 O147 2.032 . S
Zn146 O150 2.086 . S
Zn146 O155 1.977 . S
O147 Zn146 2.032 . S
O147 C151 1.278 . S
C148 O149 1.203 . S
C148 O155 1.267 . S
O149 C148 1.203 . S
O150 C143 1.185 . S
O150 Zn146 2.086 . S
C151 O147 1.278 . S
C151 O152 1.211 . S
O152 C151 1.211 . S
C153 O145 1.284 . S
C153 O154 1.273 . S
O154 C153 1.273 . S
O155 Zn146 1.977 . S
O155 C148 1.267 . S
C156 O157 1.160 . S
C156 O163 1.185 . S
O157 C156 1.160 . S
O158 Zn159 1.899 . S
O158 C166 1.284 1_545 S
Zn159 O158 1.899 . S
Zn159 O160 2.032 . S
Zn159 O163 2.086 . S
Zn159 O168 1.977 . S
O160 Zn159 2.032 . S
O160 C164 1.278 . S
C161 O162 1.203 . S
C161 O168 1.267 . S
O162 C161 1.203 . S
O163 C156 1.185 . S
O163 Zn159 2.086 . S
C164 O160 1.278 . S
C164 O165 1.211 . S
O165 C164 1.211 . S
C166 O158 1.284 1_565 S
C166 O167 1.273 1_565 S
O167 C166 1.273 1_545 S
O168 Zn159 1.977 . S
O168 C161 1.267 . S
C169 O170 1.160 . S
C169 O176 1.185 . S
O170 C169 1.160 . S
O171 Zn172 1.899 . S
O171 C179 1.284 . S
Zn172 O171 1.899 . S
Zn172 O173 2.032 . S
Zn172 O176 2.086 1_655 S
Zn172 O181 1.977 . S
O173 Zn172 2.032 . S
O173 C177 1.278 . S
C174 O175 1.203 . S
C174 O181 1.267 . S
O175 C174 1.203 . S
O176 C169 1.185 . S
O176 Zn172 2.086 1_455 S
C177 O173 1.278 . S
C177 O178 1.211 . S
O178 C177 1.211 . S
C179 O171 1.284 . S
C179 O180 1.273 . S
O180 C179 1.273 . S
O181 Zn172 1.977 . S
O181 C174 1.267 . S
C182 O183 1.160 . S
C182 O189 1.185 . S
O183 C182 1.160 . S
O184 Zn185 1.899 . S
O184 C192 1.284 . S
Zn185 O184 1.899 . S
Zn185 O186 2.032 . S
Zn185 O189 2.086 . S
Zn185 O194 1.977 . S
O186 Zn185 2.032 . S
O186 C190 1.278 . S
C187 O188 1.203 . S
C187 O194 1.267 . S
O188 C187 1.203 . S
O189 C182 1.185 . S
O189 Zn185 2.086 . S
C190 O186 1.278 . S
C190 O191 1.211 . S
O191 C190 1.211 . S
C192 O184 1.284 . S
C192 O193 1.273 . S
O193 C192 1.273 . S
O194 Zn185 1.977 . S
O194 C187 1.267 . S
C195 O196 1.160 . S
C195 O202 1.185 . S
O196 C195 1.160 . S
O197 Zn198 1.899 . S
O197 C205 1.284 . S
Zn198 O197 1.899 . S
Zn198 O199 2.032 . S
Zn198 O202 2.086 . S
Zn198 O207 1.977 . S
O199 Zn198 2.032 . S
O199 C203 1.278 . S
C200 O201 1.203 . S
C200 O207 1.267 . S
O201 C200 1.203 . S
O202 C195 1.185 . S
O202 Zn198 2.086 . S
C203 O199 1.278 . S
C203 O204 1.211 . S
O204 C203 1.211 . S
C205 O197 1.284 . S
C205 O206 1.273 . S
O206 C205 1.273 . S
O207 Zn198 1.977 . S
O207 C200 1.267 . S
C208 O209 1.160 . S
C208 O215 1.185 . S
O209 C208 1.160 . S
O210 Zn211 1.899 . S
O210 C218 1.284 1_545 S
Zn211 O210 1.899 . S
Zn211 O212 2.032 . S
Zn211 O215 2.086 . S
Zn211 O220 1.977 . S
O212 Zn211 2.032 . S
O212 C216 1.278 . S
C213 O214 1.203 . S
C213 O220 1.267 . S
O214 C213 1.203 . S
O215 C208 1.185 . S
O215 Zn211 2.086 . S
C216 O212 1.278 . S
C216 O217 1.211 . S
O217 C216 1.211 . S
C218 O210 1.284 1_565 S
C218 O219 1.273 1_565 S
O219 C218 1.273 1_545 S
O220 Zn211 1.977 . S
O220 C213 1.267 . S
C221 O222 1.160 . S
C221 O228 1.185 . S
O222 C221 1.160 . S
O223 Zn224 1.899 . S
O223 C231 1.284 1_655 S
Zn224 O223 1.899 . S
Zn224 O225 2.032 . S
Zn224 O228 2.086 . S
Zn224 O233 1.977 . S
O225 Zn224 2.032 . S
O225 C229 1.278 . S
C226 O227 1.203 . S
C226 O233 1.267 . S
O227 C226 1.203 . S
O228 C221 1.185 . S
O228 Zn224 2.086 . S
C229 O225 1.278 . S
C229 O230 1.211 . S
O230 C229 1.211 . S
C231 O223 1.284 1_455 S
C231 O232 1.273 1_455 S
O232 C231 1.273 1_655 S
O233 Zn224 1.977 . S
O233 C226 1.267 . S
H234 C240 0.930 . S
H235 C243 0.931 . S
H236 C245 0.931 . S
H237 C247 0.930 . S
H238 C249 0.930 . S
H239 C251 0.931 . S
C240 H234 0.930 . S
C240 C241 1.380 . S
C240 C242 1.394 . S
C241 C240 1.380 . S
C241 C245 1.382 . S
C242 C240 1.394 . S
C242 C243 1.400 . S
C243 H235 0.931 . S
C243 C242 1.400 . S
C243 C244 1.375 . S
C244 C243 1.375 . S
C244 C245 1.415 . S
C244 C246 1.501 . S
C245 H236 0.931 . S
C245 C241 1.382 . S
C245 C244 1.415 . S
C246 C244 1.501 . S
C246 C247 1.384 . S
C246 C251 1.408 . S
C247 H237 0.930 . S
C247 C246 1.384 . S
C247 C248 1.389 . S
C248 C247 1.389 . S
C248 C249 1.405 . S
C249 H238 0.930 . S
C249 C248 1.405 . S
C249 C250 1.364 . S
C250 C249 1.364 . S
C250 C251 1.400 . S
C251 H239 0.931 . S
C251 C246 1.408 . S
C251 C250 1.400 . S
H252 C258 0.930 . S
H253 C261 0.931 . S
H254 C263 0.931 . S
H255 C265 0.930 . S
H256 C267 0.930 . S
H257 C269 0.931 . S
C258 H252 0.930 . S
C258 C259 1.380 . S
C258 C260 1.394 . S
C259 C258 1.380 . S
C259 C263 1.382 . S
C260 C258 1.394 . S
C260 C261 1.400 . S
C261 H253 0.931 . S
C261 C260 1.400 . S
C261 C262 1.375 . S
C262 C261 1.375 . S
C262 C263 1.415 . S
C262 C264 1.501 . S
C263 H254 0.931 . S
C263 C259 1.382 . S
C263 C262 1.415 . S
C264 C262 1.501 . S
C264 C265 1.384 . S
C264 C269 1.408 . S
C265 H255 0.930 . S
C265 C264 1.384 . S
C265 C266 1.389 . S
C266 C265 1.389 . S
C266 C267 1.405 . S
C267 H256 0.930 . S
C267 C266 1.405 . S
C267 C268 1.364 . S
C268 C267 1.364 . S
C268 C269 1.400 . S
C269 H257 0.931 . S
C269 C264 1.408 . S
C269 C268 1.400 . S
H270 C276 0.930 . S
H271 C279 0.931 . S
H272 C281 0.931 . S
H273 C283 0.930 . S
H274 C285 0.930 . S
H275 C287 0.931 . S
C276 H270 0.930 . S
C276 C277 1.380 . S
C276 C278 1.394 . S
C277 C276 1.380 . S
C277 C281 1.382 . S
C278 C276 1.394 . S
C278 C279 1.400 . S
C279 H271 0.931 . S
C279 C278 1.400 . S
C279 C280 1.375 . S
C280 C279 1.375 . S
C280 C281 1.415 . S
C280 C282 1.501 . S
C281 H272 0.931 . S
C281 C277 1.382 . S
C281 C280 1.415 . S
C282 C280 1.501 . S
C282 C283 1.384 . S
C282 C287 1.408 . S
C283 H273 0.930 . S
C283 C282 1.384 . S
C283 C284 1.389 . S
C284 C283 1.389 . S
C284 C285 1.405 . S
C285 H274 0.930 . S
C285 C284 1.405 . S
C285 C286 1.364 . S
C286 C285 1.364 . S
C286 C287 1.400 . S
C287 H275 0.931 . S
C287 C282 1.408 . S
C287 C286 1.400 . S
H288 C294 0.930 . S
H289 C297 0.931 . S
H290 C299 0.931 . S
H291 C301 0.930 . S
H292 C303 0.930 . S
H293 C305 0.931 . S
C294 H288 0.930 . S
C294 C295 1.380 . S
C294 C296 1.394 . S
C295 C294 1.380 . S
C295 C299 1.382 . S
C296 C294 1.394 . S
C296 C297 1.400 . S
C297 H289 0.931 . S
C297 C296 1.400 . S
C297 C298 1.375 . S
C298 C297 1.375 . S
C298 C299 1.415 . S
C298 C300 1.501 . S
C299 H290 0.931 . S
C299 C295 1.382 . S
C299 C298 1.415 . S
C300 C298 1.501 . S
C300 C301 1.384 . S
C300 C305 1.408 . S
C301 H291 0.930 . S
C301 C300 1.384 . S
C301 C302 1.389 . S
C302 C301 1.389 . S
C302 C303 1.405 . S
C303 H292 0.930 . S
C303 C302 1.405 . S
C303 C304 1.364 . S
C304 C303 1.364 . S
C304 C305 1.400 . S
C305 H293 0.931 . S
C305 C300 1.408 . S
C305 C304 1.400 . S
H306 C312 0.930 . S
H307 C315 0.931 . S
H308 C317 0.931 . S
H309 C319 0.930 . S
H310 C321 0.930 . S
H311 C323 0.931 . S
C312 H306 0.930 . S
C312 C313 1.380 . S
C312 C314 1.394 . S
C313 C312 1.380 . S
C313 C317 1.382 . S
C314 C312 1.394 . S
C314 C315 1.400 . S
C315 H307 0.931 . S
C315 C314 1.400 . S
C315 C316 1.375 . S
C316 C315 1.375 . S
C316 C317 1.415 . S
C316 C318 1.501 . S
C317 H308 0.931 . S
C317 C313 1.382 . S
C317 C316 1.415 . S
C318 C316 1.501 . S
C318 C319 1.384 . S
C318 C323 1.408 . S
C319 H309 0.930 . S
C319 C318 1.384 . S
C319 C320 1.389 . S
C320 C319 1.389 . S
C320 C321 1.405 . S
C321 H310 0.930 . S
C321 C320 1.405 . S
C321 C322 1.364 . S
C322 C321 1.364 . S
C322 C323 1.400 . S
C323 H311 0.931 . S
C323 C318 1.408 . S
C323 C322 1.400 . S
H324 C330 0.930 . S
H325 C333 0.931 . S
H326 C335 0.931 . S
H327 C337 0.930 . S
H328 C339 0.930 . S
H329 C341 0.931 . S
C330 H324 0.930 . S
C330 C331 1.380 . S
C330 C332 1.394 . S
C331 C330 1.380 . S
C331 C335 1.382 . S
C332 C330 1.394 . S
C332 C333 1.400 . S
C333 H325 0.931 . S
C333 C332 1.400 . S
C333 C334 1.375 . S
C334 C333 1.375 . S
C334 C335 1.415 . S
C334 C336 1.501 . S
C335 H326 0.931 . S
C335 C331 1.382 . S
C335 C334 1.415 . S
C336 C334 1.501 . S
C336 C337 1.384 . S
C336 C341 1.408 . S
C337 H327 0.930 . S
C337 C336 1.384 . S
C337 C338 1.389 . S
C338 C337 1.389 . S
C338 C339 1.405 . S
C339 H328 0.930 . S
C339 C338 1.405 . S
C339 C340 1.364 . S
C340 C339 1.364 . S
C340 C341 1.400 . S
C341 H329 0.931 . S
C341 C336 1.408 . S
C341 C340 1.400 . S
H342 C348 0.930 . S
H343 C351 0.931 . S
H344 C353 0.931 . S
H345 C355 0.930 . S
H346 C357 0.930 . S
H347 C359 0.931 . S
C348 H342 0.930 . S
C348 C349 1.380 . S
C348 C350 1.394 . S
C349 C348 1.380 . S
C349 C353 1.382 . S
C350 C348 1.394 . S
C350 C351 1.400 . S
C351 H343 0.931 . S
C351 C350 1.400 . S
C351 C352 1.375 . S
C352 C351 1.375 . S
C352 C353 1.415 . S
C352 C354 1.501 . S
C353 H344 0.931 . S
C353 C349 1.382 . S
C353 C352 1.415 . S
C354 C352 1.501 . S
C354 C355 1.384 . S
C354 C359 1.408 . S
C355 H345 0.930 . S
C355 C354 1.384 . S
C355 C356 1.389 . S
C356 C355 1.389 . S
C356 C357 1.405 . S
C357 H346 0.930 . S
C357 C356 1.405 . S
C357 C358 1.364 . S
C358 C357 1.364 . S
C358 C359 1.400 . S
C359 H347 0.931 . S
C359 C354 1.408 . S
C359 C358 1.400 . S
H360 C366 0.930 . S
H361 C369 0.931 . S
H362 C371 0.931 . S
H363 C373 0.930 . S
H364 C375 0.930 . S
H365 C377 0.931 . S
C366 H360 0.930 . S
C366 C367 1.380 . S
C366 C368 1.394 . S
C367 C366 1.380 . S
C367 C371 1.382 . S
C368 C366 1.394 . S
C368 C369 1.400 . S
C369 H361 0.931 . S
C369 C368 1.400 . S
C369 C370 1.375 . S
C370 C369 1.375 . S
C370 C371 1.415 . S
C370 C372 1.501 . S
C371 H362 0.931 . S
C371 C367 1.382 . S
C371 C370 1.415 . S
C372 C370 1.501 . S
C372 C373 1.384 . S
C372 C377 1.408 . S
C373 H363 0.930 . S
C373 C372 1.384 . S
C373 C374 1.389 . S
C374 C373 1.389 . S
C374 C375 1.405 . S
C375 H364 0.930 . S
C375 C374 1.405 . S
C375 C376 1.364 . S
C376 C375 1.364 . S
C376 C377 1.400 . S
C377 H365 0.931 . S
C377 C372 1.408 . S
C377 C376 1.400 . S
H378 C384 0.930 . S
H379 C387 0.931 . S
H380 C389 0.931 . S
H381 C391 0.930 . S
H382 C393 0.930 . S
H383 C395 0.931 . S
C384 H378 0.930 . S
C384 C385 1.380 . S
C384 C386 1.394 . S
C385 C384 1.380 . S
C385 C389 1.382 . S
C386 C384 1.394 . S
C386 C387 1.400 . S
C387 H379 0.931 . S
C387 C386 1.400 . S
C387 C388 1.375 . S
C388 C387 1.375 . S
C388 C389 1.415 . S
C388 C390 1.501 . S
C389 H380 0.931 . S
C389 C385 1.382 . S
C389 C388 1.415 . S
C390 C388 1.501 . S
C390 C391 1.384 . S
C390 C395 1.408 . S
C391 H381 0.930 . S
C391 C390 1.384 . S
C391 C392 1.389 . S
C392 C391 1.389 . S
C392 C393 1.405 . S
C393 H382 0.930 . S
C393 C392 1.405 . S
C393 C394 1.364 . S
C394 C393 1.364 . S
C394 C395 1.400 . S
C395 H383 0.931 . S
C395 C390 1.408 . S
C395 C394 1.400 . S
H396 C402 0.953 1_655 S
H397 C405 0.931 . S
H398 C407 0.931 . S
H399 C409 0.930 . S
H400 C411 0.945 . S
H401 C413 0.937 1_655 S
C402 H396 0.953 1_455 S
C402 C403 1.374 1_455 S
C402 C404 1.393 . S
C403 C402 1.374 1_655 S
C403 C407 1.382 . S
C404 C402 1.393 . S
C404 C405 1.400 . S
C405 H397 0.931 . S
C405 C404 1.400 . S
C405 C406 1.375 . S
C406 C405 1.375 . S
C406 C407 1.415 1_455 S
C406 C408 1.501 . S
C407 H398 0.931 . S
C407 C403 1.382 . S
C407 C406 1.415 1_655 S
C408 C406 1.501 . S
C408 C409 1.384 . S
C408 C413 1.415 . S
C409 H399 0.930 . S
C409 C408 1.384 . S
C409 C410 1.424 . S
C410 C409 1.424 . S
C410 C411 1.400 . S
C411 H400 0.945 . S
C411 C410 1.400 . S
C411 C412 1.374 1_455 S
C412 C411 1.374 1_655 S
C412 C413 1.392 1_655 S
C413 H401 0.937 1_455 S
C413 C408 1.415 . S
C413 C412 1.392 1_455 S
H414 C420 0.930 . S
H415 C423 0.931 . S
H416 C425 0.931 . S
H417 C427 0.930 . S
H418 C429 0.930 . S
H419 C431 0.931 . S
C420 H414 0.930 . S
C420 C421 1.380 . S
C420 C422 1.394 . S
C421 C420 1.380 . S
C421 C425 1.382 . S
C422 C420 1.394 . S
C422 C423 1.400 . S
C423 H415 0.931 . S
C423 C422 1.400 . S
C423 C424 1.375 . S
C424 C423 1.375 . S
C424 C425 1.415 . S
C424 C426 1.501 . S
C425 H416 0.931 . S
C425 C421 1.382 . S
C425 C424 1.415 . S
C426 C424 1.501 . S
C426 C427 1.384 . S
C426 C431 1.408 . S
C427 H417 0.930 . S
C427 C426 1.384 . S
C427 C428 1.389 . S
C428 C427 1.389 . S
C428 C429 1.405 . S
C429 H418 0.930 . S
C429 C428 1.405 . S
C429 C430 1.364 . S
C430 C429 1.364 . S
C430 C431 1.400 . S
C431 H419 0.931 . S
C431 C426 1.408 . S
C431 C430 1.400 . S
H432 C438 0.967 . S
H433 C441 0.931 . S
H434 C443 0.931 . S
H435 C445 0.930 . S
H436 C447 0.930 . S
H437 C449 0.919 . S
C438 H432 0.967 . S
C438 C439 1.374 . S
C438 C440 1.367 1_545 S
C439 C438 1.374 . S
C439 C443 1.382 . S
C440 C438 1.367 1_565 S
C440 C441 1.400 . S
C441 H433 0.931 . S
C441 C440 1.400 . S
C441 C442 1.375 . S
C442 C441 1.375 . S
C442 C443 1.415 1_565 S
C442 C444 1.501 . S
C443 H434 0.931 . S
C443 C439 1.382 . S
C443 C442 1.415 1_545 S
C444 C442 1.501 . S
C444 C445 1.384 . S
C444 C449 1.390 . S
C445 H435 0.930 . S
C445 C444 1.384 . S
C445 C446 1.389 . S
C446 C445 1.389 . S
C446 C447 1.405 . S
C447 H436 0.930 . S
C447 C446 1.405 . S
C447 C448 1.388 . S
C448 C447 1.388 . S
C448 C449 1.399 . S
C449 H437 0.919 . S
C449 C444 1.390 . S
C449 C448 1.399 . S
H450 C456 0.966 . S
H451 C459 0.931 . S
H452 C461 0.924 . S
H453 C463 0.930 . S
H454 C465 0.946 . S
H455 C467 0.931 . S
C456 H450 0.966 . S
C456 C457 1.382 . S
C456 C458 1.415 1_545 S
C457 C456 1.382 . S
C457 C461 1.393 1_545 S
C458 C456 1.415 1_565 S
C458 C459 1.365 . S
C459 H451 0.931 . S
C459 C458 1.365 . S
C459 C460 1.375 . S
C460 C459 1.375 . S
C460 C461 1.408 . S
C460 C462 1.501 . S
C461 H452 0.924 . S
C461 C457 1.393 1_565 S
C461 C460 1.408 . S
C462 C460 1.501 . S
C462 C463 1.384 . S
C462 C467 1.408 1_565 S
C463 H453 0.930 . S
C463 C462 1.384 . S
C463 C464 1.389 . S
C464 C463 1.389 . S
C464 C465 1.420 . S
C465 H454 0.946 . S
C465 C464 1.420 . S
C465 C466 1.368 1_565 S
C466 C465 1.368 1_545 S
C466 C467 1.400 . S
C467 H455 0.931 . S
C467 C462 1.408 1_545 S
C467 C466 1.400 . S
H468 C474 0.930 . S
H469 C477 0.931 . S
H470 C479 0.928 1_655 S
H471 C481 0.930 . S
H472 C483 0.930 . S
H473 C485 0.931 . S
C474 H468 0.930 . S
C474 C475 1.399 . S
C474 C476 1.397 1_655 S
C475 C474 1.399 . S
C475 C479 1.350 1_655 S
C476 C474 1.397 1_455 S
C476 C477 1.394 . S
C477 H469 0.931 . S
C477 C476 1.394 . S
C477 C478 1.355 . S
C478 C477 1.355 . S
C478 C479 1.388 . S
C478 C480 1.552 . S
C479 H470 0.928 1_455 S
C479 C475 1.350 1_455 S
C479 C478 1.388 . S
C480 C478 1.552 . S
C480 C481 1.384 . S
C480 C485 1.408 1_455 S
C481 H471 0.930 . S
C481 C480 1.384 . S
C481 C482 1.389 . S
C482 C481 1.389 . S
C482 C483 1.405 . S
C483 H472 0.930 . S
C483 C482 1.405 . S
C483 C484 1.364 1_455 S
C484 C483 1.364 1_655 S
C484 C485 1.400 . S
C485 H473 0.931 . S
C485 C480 1.408 1_655 S
C485 C484 1.400 . S
H486 C492 0.930 . S
H487 C495 0.931 . S
H488 C497 0.931 . S
H489 C499 0.930 . S
H490 C501 0.930 . S
H491 C503 0.931 . S
C492 H486 0.930 . S
C492 C493 1.380 . S
C492 C494 1.394 . S
C493 C492 1.380 . S
C493 C497 1.382 . S
C494 C492 1.394 . S
C494 C495 1.400 . S
C495 H487 0.931 . S
C495 C494 1.400 . S
C495 C496 1.375 . S
C496 C495 1.375 . S
C496 C497 1.415 . S
C496 C498 1.501 . S
C497 H488 0.931 . S
C497 C493 1.382 . S
C497 C496 1.415 . S
C498 C496 1.501 . S
C498 C499 1.384 . S
C498 C503 1.408 . S
C499 H489 0.930 . S
C499 C498 1.384 . S
C499 C500 1.389 . S
C500 C499 1.389 . S
C500 C501 1.405 . S
C501 H490 0.930 . S
C501 C500 1.405 . S
C501 C502 1.364 . S
C502 C501 1.364 . S
C502 C503 1.400 . S
C503 H491 0.931 . S
C503 C498 1.408 . S
C503 C502 1.400 . S
H504 C510 0.930 . S
H505 C513 0.931 . S
H506 C515 0.931 . S
H507 C517 0.930 . S
H508 C519 0.930 . S
H509 C521 0.931 . S
C510 H504 0.930 . S
C510 C511 1.380 . S
C510 C512 1.394 . S
C511 C510 1.380 . S
C511 C515 1.382 . S
C512 C510 1.394 . S
C512 C513 1.400 . S
C513 H505 0.931 . S
C513 C512 1.400 . S
C513 C514 1.375 . S
C514 C513 1.375 . S
C514 C515 1.415 . S
C514 C516 1.501 . S
C515 H506 0.931 . S
C515 C511 1.382 . S
C515 C514 1.415 . S
C516 C514 1.501 . S
C516 C517 1.384 . S
C516 C521 1.408 . S
C517 H507 0.930 . S
C517 C516 1.384 . S
C517 C518 1.389 . S
C518 C517 1.389 . S
C518 C519 1.405 . S
C519 H508 0.930 . S
C519 C518 1.405 . S
C519 C520 1.364 . S
C520 C519 1.364 . S
C520 C521 1.400 . S
C521 H509 0.931 . S
C521 C516 1.408 . S
C521 C520 1.400 . S
H522 C528 0.930 . S
H523 C531 0.931 . S
H524 C533 0.931 . S
H525 C535 0.930 . S
H526 C537 0.930 . S
H527 C539 0.931 . S
C528 H522 0.930 . S
C528 C529 1.380 . S
C528 C530 1.394 . S
C529 C528 1.380 . S
C529 C533 1.382 . S
C530 C528 1.394 . S
C530 C531 1.400 . S
C531 H523 0.931 . S
C531 C530 1.400 . S
C531 C532 1.375 . S
C532 C531 1.375 . S
C532 C533 1.415 . S
C532 C534 1.501 . S
C533 H524 0.931 . S
C533 C529 1.382 . S
C533 C532 1.415 . S
C534 C532 1.501 . S
C534 C535 1.384 . S
C534 C539 1.408 . S
C535 H525 0.930 . S
C535 C534 1.384 . S
C535 C536 1.389 . S
C536 C535 1.389 . S
C536 C537 1.405 . S
C537 H526 0.930 . S
C537 C536 1.405 . S
C537 C538 1.364 . S
C538 C537 1.364 . S
C538 C539 1.400 . S
C539 H527 0.931 . S
C539 C534 1.408 . S
C539 C538 1.400 . S
H540 C546 0.930 . S
H541 C549 0.931 . S
H542 C551 0.931 . S
H543 C553 0.930 . S
H544 C555 0.930 . S
H545 C557 0.931 . S
C546 H540 0.930 . S
C546 C547 1.380 . S
C546 C548 1.394 . S
C547 C546 1.380 . S
C547 C551 1.382 . S
C548 C546 1.394 . S
C548 C549 1.400 . S
C549 H541 0.931 . S
C549 C548 1.400 . S
C549 C550 1.375 . S
C550 C549 1.375 . S
C550 C551 1.415 . S
C550 C552 1.501 . S
C551 H542 0.931 . S
C551 C547 1.382 . S
C551 C550 1.415 . S
C552 C550 1.501 . S
C552 C553 1.384 . S
C552 C557 1.408 . S
C553 H543 0.930 . S
C553 C552 1.384 . S
C553 C554 1.389 . S
C554 C553 1.389 . S
C554 C555 1.405 . S
C555 H544 0.930 . S
C555 C554 1.405 . S
C555 C556 1.364 . S
C556 C555 1.364 . S
C556 C557 1.400 . S
C557 H545 0.931 . S
C557 C552 1.408 . S
C557 C556 1.400 . S
C558 C559 1.349 . S
C558 C560 1.327 . S
C558 H583 0.950 . S
C559 C558 1.349 . S
C559 C575 1.350 . S
C560 C558 1.327 . S
C560 C579 1.429 . S
C560 H584 0.950 . S
C561 C578 1.577 . S
C561 C580 1.358 1_455 S
C561 H585 0.970 . S
H562 C566 0.949 . S
C563 C564 1.328 1_455 S
C563 C565 1.326 . S
C563 H586 0.959 . S
C564 C563 1.328 1_655 S
C564 C576 1.349 . S
C565 C563 1.326 . S
C565 C581 1.420 1_455 S
C565 H587 0.973 . S
C566 H562 0.949 . S
C566 C574 1.574 . S
C566 C582 1.368 . S
H567 C575 0.947 1_455 S
H568 C573 0.947 . S
H569 C574 0.949 . S
H570 C576 0.950 . S
H571 C577 0.950 . S
H572 C578 0.959 . S
C573 H568 0.947 . S
C573 C575 1.326 1_455 S
C573 C579 1.433 1_455 S
C574 C566 1.574 . S
C574 H569 0.949 . S
C574 C580 1.368 . S
C575 C559 1.350 . S
C575 H567 0.947 1_655 S
C575 C573 1.326 1_655 S
C576 C564 1.349 . S
C576 H570 0.950 . S
C576 C577 1.327 . S
C577 H571 0.950 . S
C577 C576 1.327 . S
C577 C581 1.429 . S
C578 C561 1.577 . S
C578 H572 0.959 . S
C578 C582 1.343 1_455 S
C579 C560 1.429 . S
C579 C573 1.433 1_655 S
C579 C580 1.523 . S
C580 C561 1.358 1_655 S
C580 C574 1.368 . S
C580 C579 1.523 . S
C581 C565 1.420 1_655 S
C581 C577 1.429 . S
C581 C582 1.523 . S
C582 C566 1.368 . S
C582 C578 1.343 1_655 S
C582 C581 1.523 . S
H583 C558 0.950 . S
H584 C560 0.950 . S
H585 C561 0.970 . S
H586 C563 0.959 . S
H587 C565 0.973 . S
C588 C589 1.349 . S
C588 C590 1.327 . S
C588 H613 0.950 . S
C589 C588 1.349 . S
C589 C605 1.349 . S
C590 C588 1.327 . S
C590 C609 1.429 . S
C590 H614 0.950 . S
C591 C608 1.574 . S
C591 C610 1.368 . S
C591 H615 0.949 . S
H592 C596 0.949 . S
C593 C594 1.349 . S
C593 C595 1.327 . S
C593 H616 0.950 . S
C594 C593 1.349 . S
C594 C606 1.349 . S
C595 C593 1.327 . S
C595 C611 1.429 . S
C595 H617 0.950 . S
C596 H592 0.949 . S
C596 C604 1.574 . S
C596 C612 1.368 . S
H597 C605 0.950 . S
H598 C603 0.950 . S
H599 C604 0.949 . S
H600 C606 0.950 . S
H601 C607 0.950 . S
H602 C608 0.949 . S
C603 H598 0.950 . S
C603 C605 1.327 . S
C603 C609 1.429 . S
C604 C596 1.574 . S
C604 H599 0.949 . S
C604 C610 1.368 . S
C605 C589 1.349 . S
C605 H597 0.950 . S
C605 C603 1.327 . S
C606 C594 1.349 . S
C606 H600 0.950 . S
C606 C607 1.327 . S
C607 H601 0.950 . S
C607 C606 1.327 . S
C607 C611 1.429 . S
C608 C591 1.574 . S
C608 H602 0.949 . S
C608 C612 1.368 . S
C609 C590 1.429 . S
C609 C603 1.429 . S
C609 C610 1.523 . S
C610 C591 1.368 . S
C610 C604 1.368 . S
C610 C609 1.523 . S
C611 C595 1.429 . S
C611 C607 1.429 . S
C611 C612 1.523 . S
C612 C596 1.368 . S
C612 C608 1.368 . S
C612 C611 1.523 . S
H613 C588 0.950 . S
H614 C590 0.950 . S
H615 C591 0.949 . S
H616 C593 0.950 . S
H617 C595 0.950 . S
C618 C619 1.397 . S
C618 C620 1.284 1_545 S
C618 H643 0.927 1_545 S
C619 C618 1.397 . S
C619 C635 1.349 . S
C620 C618 1.284 1_565 S
C620 C639 1.410 1_565 S
C620 H644 0.991 . S
C621 C638 1.574 . S
C621 C640 1.368 . S
C621 H645 0.949 . S
H622 C626 0.949 . S
C623 C624 1.349 . S
C623 C625 1.327 . S
C623 H646 0.950 . S
C624 C623 1.349 . S
C624 C636 1.349 1_545 S
C625 C623 1.327 . S
C625 C641 1.429 . S
C625 H647 0.950 . S
C626 H622 0.949 . S
C626 C634 1.574 . S
C626 C642 1.368 1_565 S
H627 C635 0.950 . S
H628 C633 0.950 . S
H629 C634 0.949 . S
H630 C636 0.950 . S
H631 C637 0.950 . S
H632 C638 0.949 . S
C633 H628 0.950 . S
C633 C635 1.327 . S
C633 C639 1.429 . S
C634 C626 1.574 . S
C634 H629 0.949 . S
C634 C640 1.368 1_565 S
C635 C619 1.349 . S
C635 H627 0.950 . S
C635 C633 1.327 . S
C636 C624 1.349 1_565 S
C636 H630 0.950 . S
C636 C637 1.327 . S
C637 H631 0.950 . S
C637 C636 1.327 . S
C637 C641 1.429 1_565 S
C638 C621 1.574 . S
C638 H632 0.949 . S
C638 C642 1.368 . S
C639 C620 1.410 1_545 S
C639 C633 1.429 . S
C639 C640 1.523 . S
C640 C621 1.368 . S
C640 C634 1.368 1_545 S
C640 C639 1.523 . S
C641 C625 1.429 . S
C641 C637 1.429 1_545 S
C641 C642 1.523 . S
C642 C626 1.368 1_545 S
C642 C638 1.368 . S
C642 C641 1.523 . S
H643 C618 0.927 1_565 S
H644 C620 0.991 . S
H645 C621 0.949 . S
H646 C623 0.950 . S
H647 C625 0.950 . S
C648 C649 1.350 1_545 S
C648 C650 1.327 . S
C648 H673 0.950 . S
C649 C648 1.350 1_565 S
C649 C665 1.347 . S
C650 C648 1.327 . S
C650 C669 1.381 1_545 S
C650 H674 0.950 . S
C651 C668 1.574 . S
C651 C670 1.368 . S
C651 H675 0.949 . S
H652 C656 0.949 . S
C653 C654 1.349 . S
C653 C655 1.327 . S
C653 H676 0.950 . S
C654 C653 1.349 . S
C654 C666 1.349 1_565 S
C655 C653 1.327 . S
C655 C671 1.429 . S
C655 H677 0.950 . S
C656 H652 0.949 . S
C656 C664 1.574 . S
C656 C672 1.368 1_545 S
H657 C665 0.950 . S
H658 C663 0.950 . S
H659 C664 0.949 . S
H660 C666 0.950 . S
H661 C667 0.950 . S
H662 C668 0.949 . S
C663 H658 0.950 . S
C663 C665 1.327 . S
C663 C669 1.445 . S
C664 C656 1.574 . S
C664 H659 0.949 . S
C664 C670 1.368 1_545 S
C665 C649 1.347 . S
C665 H657 0.950 . S
C665 C663 1.327 . S
C666 C654 1.349 1_545 S
C666 H660 0.950 . S
C666 C667 1.327 . S
C667 H661 0.950 . S
C667 C666 1.327 . S
C667 C671 1.429 1_545 S
C668 C651 1.574 . S
C668 H662 0.949 . S
C668 C672 1.368 . S
C669 C650 1.381 1_565 S
C669 C663 1.445 . S
C669 C670 1.556 . S
C670 C651 1.368 . S
C670 C664 1.368 1_565 S
C670 C669 1.556 . S
C671 C655 1.429 . S
C671 C667 1.429 1_565 S
C671 C672 1.523 . S
C672 C656 1.368 1_565 S
C672 C668 1.368 . S
C672 C671 1.523 . S
H673 C648 0.950 . S
H674 C650 0.950 . S
H675 C651 0.949 . S
H676 C653 0.950 . S
H677 C655 0.950 . S
C678 C679 1.349 . S
C678 C680 1.327 . S
C678 H703 0.950 . S
C679 C678 1.349 . S
C679 C695 1.349 1_455 S
C680 C678 1.327 . S
C680 C699 1.429 . S
C680 H704 0.950 . S
C681 C698 1.574 . S
C681 C700 1.368 1_655 S
C681 H705 0.949 . S
H682 C686 0.949 . S
C683 C684 1.349 1_655 S
C683 C685 1.327 . S
C683 H706 0.950 . S
C684 C683 1.349 1_455 S
C684 C696 1.349 . S
C685 C683 1.327 . S
C685 C701 1.429 1_655 S
C685 H707 0.950 . S
C686 H682 0.949 . S
C686 C694 1.574 . S
C686 C702 1.368 . S
H687 C695 0.950 . S
H688 C693 0.950 . S
H689 C694 0.949 . S
H690 C696 0.950 . S
H691 C697 0.950 . S
H692 C698 0.949 . S
C693 H688 0.950 . S
C693 C695 1.327 . S
C693 C699 1.429 1_655 S
C694 C686 1.574 . S
C694 H689 0.949 . S
C694 C700 1.368 . S
C695 C679 1.349 1_655 S
C695 H687 0.950 . S
C695 C693 1.327 . S
C696 C684 1.349 . S
C696 H690 0.950 . S
C696 C697 1.327 . S
C697 H691 0.950 . S
C697 C696 1.327 . S
C697 C701 1.429 . S
C698 C681 1.574 . S
C698 H692 0.949 . S
C698 C702 1.368 1_655 S
C699 C680 1.429 . S
C699 C693 1.429 1_455 S
C699 C700 1.523 . S
C700 C681 1.368 1_455 S
C700 C694 1.368 . S
C700 C699 1.523 . S
C701 C685 1.429 1_455 S
C701 C697 1.429 . S
C701 C702 1.523 . S
C702 C686 1.368 . S
C702 C698 1.368 1_455 S
C702 C701 1.523 . S
H703 C678 0.950 . S
H704 C680 0.950 . S
H705 C681 0.949 . S
H706 C683 0.950 . S
H707 C685 0.950 . S
C708 C709 1.349 . S
C708 C710 1.327 . S
C708 H733 0.950 . S
C709 C708 1.349 . S
C709 C725 1.349 . S
C710 C708 1.327 . S
C710 C729 1.429 . S
C710 H734 0.950 . S
C711 C728 1.574 . S
C711 C730 1.368 . S
C711 H735 0.949 . S
H712 C716 0.949 . S
C713 C714 1.349 . S
C713 C715 1.327 . S
C713 H736 0.950 . S
C714 C713 1.349 . S
C714 C726 1.349 . S
C715 C713 1.327 . S
C715 C731 1.429 . S
C715 H737 0.950 . S
C716 H712 0.949 . S
C716 C724 1.574 . S
C716 C732 1.368 . S
H717 C725 0.950 . S
H718 C723 0.950 . S
H719 C724 0.949 . S
H720 C726 0.950 . S
H721 C727 0.950 . S
H722 C728 0.949 . S
C723 H718 0.950 . S
C723 C725 1.327 . S
C723 C729 1.429 . S
C724 C716 1.574 . S
C724 H719 0.949 . S
C724 C730 1.368 . S
C725 C709 1.349 . S
C725 H717 0.950 . S
C725 C723 1.327 . S
C726 C714 1.349 . S
C726 H720 0.950 . S
C726 C727 1.327 . S
C727 H721 0.950 . S
C727 C726 1.327 . S
C727 C731 1.429 . S
C728 C711 1.574 . S
C728 H722 0.949 . S
C728 C732 1.368 . S
C729 C710 1.429 . S
C729 C723 1.429 . S
C729 C730 1.523 . S
C730 C711 1.368 . S
C730 C724 1.368 . S
C730 C729 1.523 . S
C731 C715 1.429 . S
C731 C727 1.429 . S
C731 C732 1.523 . S
C732 C716 1.368 . S
C732 C728 1.368 . S
C732 C731 1.523 . S
H733 C708 0.950 . S
H734 C710 0.950 . S
H735 C711 0.949 . S
H736 C713 0.950 . S
H737 C715 0.950 . S
C738 C739 1.349 . S
C738 C740 1.327 . S
C738 H763 0.950 . S
C739 C738 1.349 . S
C739 C755 1.349 . S
C740 C738 1.327 . S
C740 C759 1.429 . S
C740 H764 0.950 . S
C741 C758 1.574 . S
C741 C760 1.368 . S
C741 H765 0.949 . S
H742 C746 0.949 . S
C743 C744 1.334 . S
C743 C745 1.347 1_655 S
C743 H766 0.957 . S
C744 C743 1.334 . S
C744 C756 1.339 1_655 S
C745 C743 1.347 1_455 S
C745 C761 1.429 . S
C745 H767 0.948 1_455 S
C746 H742 0.949 . S
C746 C754 1.574 . S
C746 C762 1.368 . S
H747 C755 0.950 . S
H748 C753 0.950 . S
H749 C754 0.949 . S
H750 C756 0.940 . S
H751 C757 0.950 . S
H752 C758 0.961 . S
C753 H748 0.950 . S
C753 C755 1.327 . S
C753 C759 1.429 . S
C754 C746 1.574 . S
C754 H749 0.949 . S
C754 C760 1.368 . S
C755 C739 1.349 . S
C755 H747 0.950 . S
C755 C753 1.327 . S
C756 C744 1.339 1_455 S
C756 H750 0.940 . S
C756 C757 1.305 . S
C757 H751 0.950 . S
C757 C756 1.305 . S
C757 C761 1.429 . S
C758 C741 1.574 . S
C758 H752 0.961 . S
C758 C762 1.368 . S
C759 C740 1.429 . S
C759 C753 1.429 . S
C759 C760 1.523 . S
C760 C741 1.368 . S
C760 C754 1.368 . S
C760 C759 1.523 . S
C761 C745 1.429 . S
C761 C757 1.429 . S
C761 C762 1.523 . S
C762 C746 1.368 . S
C762 C758 1.368 . S
C762 C761 1.523 . S
H763 C738 0.950 . S
H764 C740 0.950 . S
H765 C741 0.949 . S
H766 C743 0.957 . S
H767 C745 0.948 1_655 S
C768 C769 1.349 . S
C768 C770 1.327 . S
C768 H793 0.950 . S
C769 C768 1.349 . S
C769 C785 1.349 . S
C770 C768 1.327 . S
C770 C789 1.429 . S
C770 H794 0.950 . S
C771 C788 1.574 . S
C771 C790 1.368 . S
C771 H795 0.949 . S
H772 C776 0.949 . S
C773 C774 1.349 . S
C773 C775 1.327 . S
C773 H796 0.950 . S
C774 C773 1.349 . S
C774 C786 1.349 . S
C775 C773 1.327 . S
C775 C791 1.429 . S
C775 H797 0.950 . S
C776 H772 0.949 . S
C776 C784 1.574 . S
C776 C792 1.368 . S
H777 C785 0.950 . S
H778 C783 0.950 . S
H779 C784 0.949 . S
H780 C786 0.950 . S
H781 C787 0.950 . S
H782 C788 0.949 . S
C783 H778 0.950 . S
C783 C785 1.327 . S
C783 C789 1.429 . S
C784 C776 1.574 . S
C784 H779 0.949 . S
C784 C790 1.368 . S
C785 C769 1.349 . S
C785 H777 0.950 . S
C785 C783 1.327 . S
C786 C774 1.349 . S
C786 H780 0.950 . S
C786 C787 1.327 . S
C787 H781 0.950 . S
C787 C786 1.327 . S
C787 C791 1.429 . S
C788 C771 1.574 . S
C788 H782 0.949 . S
C788 C792 1.368 . S
C789 C770 1.429 . S
C789 C783 1.429 . S
C789 C790 1.523 . S
C790 C771 1.368 . S
C790 C784 1.368 . S
C790 C789 1.523 . S
C791 C775 1.429 . S
C791 C787 1.429 . S
C791 C792 1.523 . S
C792 C776 1.368 . S
C792 C788 1.368 . S
C792 C791 1.523 . S
H793 C768 0.950 . S
H794 C770 0.950 . S
H795 C771 0.949 . S
H796 C773 0.950 . S
H797 C775 0.950 . S
C798 C799 1.349 . S
C798 C800 1.327 . S
C798 H823 0.950 . S
C799 C798 1.349 . S
C799 C815 1.349 1_565 S
C800 C798 1.327 . S
C800 C819 1.429 . S
C800 H824 0.950 . S
C801 C818 1.574 . S
C801 C820 1.368 1_545 S
C801 H825 0.949 . S
H802 C806 0.949 . S
C803 C804 1.347 1_545 S
C803 C805 1.327 . S
C803 H826 0.950 . S
C804 C803 1.347 1_565 S
C804 C816 1.354 . S
C805 C803 1.327 . S
C805 C821 1.429 1_545 S
C805 H827 0.950 . S
C806 H802 0.949 . S
C806 C814 1.574 . S
C806 C822 1.368 . S
H807 C815 0.950 . S
H808 C813 0.950 . S
H809 C814 0.949 . S
H810 C816 0.950 . S
H811 C817 0.950 . S
H812 C818 0.949 . S
C813 H808 0.950 . S
C813 C815 1.327 . S
C813 C819 1.429 1_545 S
C814 C806 1.574 . S
C814 H809 0.949 . S
C814 C820 1.368 . S
C815 C799 1.349 1_545 S
C815 H807 0.950 . S
C815 C813 1.327 . S
C816 C804 1.354 . S
C816 H810 0.950 . S
C816 C817 1.327 . S
C817 H811 0.950 . S
C817 C816 1.327 . S
C817 C821 1.429 . S
C818 C801 1.574 . S
C818 H812 0.949 . S
C818 C822 1.368 1_545 S
C819 C800 1.429 . S
C819 C813 1.429 1_565 S
C819 C820 1.523 . S
C820 C801 1.368 1_565 S
C820 C814 1.368 . S
C820 C819 1.523 . S
C821 C805 1.429 1_565 S
C821 C817 1.429 . S
C821 C822 1.523 . S
C822 C806 1.368 . S
C822 C818 1.368 1_565 S
C822 C821 1.523 . S
H823 C798 0.950 . S
H824 C800 0.950 . S
H825 C801 0.949 . S
H826 C803 0.950 . S
H827 C805 0.950 . S
C828 C829 1.349 . S
C828 C830 1.327 . S
C828 H853 0.950 . S
C829 C828 1.349 . S
C829 C845 1.349 1_545 S
C830 C828 1.327 . S
C830 C849 1.429 . S
C830 H854 0.950 . S
C831 C848 1.574 . S
C831 C850 1.368 1_565 S
C831 H855 0.949 . S
H832 C836 0.949 . S
C833 C834 1.339 . S
C833 C835 1.327 . S
C833 H856 0.950 . S
C834 C833 1.339 . S
C834 C846 1.355 1_565 S
C835 C833 1.327 . S
C835 C851 1.429 1_565 S
C835 H857 0.950 . S
C836 H832 0.949 . S
C836 C844 1.574 . S
C836 C852 1.368 . S
H837 C845 0.950 . S
H838 C843 0.950 . S
H839 C844 0.949 . S
H840 C846 0.950 . S
H841 C847 0.950 . S
H842 C848 0.949 . S
C843 H838 0.950 . S
C843 C845 1.327 . S
C843 C849 1.429 1_565 S
C844 C836 1.574 . S
C844 H839 0.949 . S
C844 C850 1.368 . S
C845 C829 1.349 1_565 S
C845 H837 0.950 . S
C845 C843 1.327 . S
C846 C834 1.355 1_545 S
C846 H840 0.950 . S
C846 C847 1.327 . S
C847 H841 0.950 . S
C847 C846 1.327 . S
C847 C851 1.429 . S
C848 C831 1.574 . S
C848 H842 0.949 . S
C848 C852 1.368 1_565 S
C849 C830 1.429 . S
C849 C843 1.429 1_545 S
C849 C850 1.523 . S
C850 C831 1.368 1_545 S
C850 C844 1.368 . S
C850 C849 1.523 . S
C851 C835 1.429 1_545 S
C851 C847 1.429 . S
C851 C852 1.523 . S
C852 C836 1.368 . S
C852 C848 1.368 1_545 S
C852 C851 1.523 . S
H853 C828 0.950 . S
H854 C830 0.950 . S
H855 C831 0.949 . S
H856 C833 0.950 . S
H857 C835 0.950 . S
C858 C859 1.304 1_455 S
C858 C860 1.355 . S
C858 H883 0.970 . S
C859 C858 1.304 1_655 S
C859 C875 1.349 . S
C860 C858 1.355 . S
C860 C879 1.429 1_455 S
C860 H884 0.950 . S
C861 C878 1.574 . S
C861 C880 1.368 . S
C861 H885 0.949 . S
H862 C866 0.949 . S
C863 C864 1.364 . S
C863 C865 1.327 . S
C863 H886 0.950 . S
C864 C863 1.364 . S
C864 C876 1.343 1_655 S
C865 C863 1.327 . S
C865 C881 1.429 . S
C865 H887 0.950 . S
C866 H862 0.949 . S
C866 C874 1.574 . S
C866 C882 1.368 1_455 S
H867 C875 0.950 . S
H868 C873 0.950 . S
H869 C874 0.949 . S
H870 C876 0.950 . S
H871 C877 0.950 . S
H872 C878 0.949 . S
C873 H868 0.950 . S
C873 C875 1.327 . S
C873 C879 1.429 . S
C874 C866 1.574 . S
C874 H869 0.949 . S
C874 C880 1.368 1_455 S
C875 C859 1.349 . S
C875 H867 0.950 . S
C875 C873 1.327 . S
C876 C864 1.343 1_455 S
C876 H870 0.950 . S
C876 C877 1.327 . S
C877 H871 0.950 . S
C877 C876 1.327 . S
C877 C881 1.429 1_455 S
C878 C861 1.574 . S
C878 H872 0.949 . S
C878 C882 1.368 . S
C879 C860 1.429 1_655 S
C879 C873 1.429 . S
C879 C880 1.523 . S
C880 C861 1.368 . S
C880 C874 1.368 1_655 S
C880 C879 1.523 . S
C881 C865 1.429 . S
C881 C877 1.429 1_655 S
C881 C882 1.523 . S
C882 C866 1.368 1_655 S
C882 C878 1.368 . S
C882 C881 1.523 . S
H883 C858 0.970 . S
H884 C860 0.950 . S
H885 C861 0.949 . S
H886 C863 0.950 . S
H887 C865 0.950 . S
C888 C889 1.349 . S
C888 C890 1.327 . S
C888 H913 0.950 . S
C889 C888 1.349 . S
C889 C905 1.349 . S
C890 C888 1.327 . S
C890 C909 1.429 . S
C890 H914 0.950 . S
C891 C908 1.574 . S
C891 C910 1.368 . S
C891 H915 0.949 . S
H892 C896 0.949 . S
C893 C894 1.349 . S
C893 C895 1.327 . S
C893 H916 0.950 . S
C894 C893 1.349 . S
C894 C906 1.349 . S
C895 C893 1.327 . S
C895 C911 1.429 . S
C895 H917 0.950 . S
C896 H892 0.949 . S
C896 C904 1.574 . S
C896 C912 1.368 . S
H897 C905 0.950 . S
H898 C903 0.950 . S
H899 C904 0.949 . S
H900 C906 0.950 . S
H901 C907 0.950 . S
H902 C908 0.949 . S
C903 H898 0.950 . S
C903 C905 1.327 . S
C903 C909 1.429 . S
C904 C896 1.574 . S
C904 H899 0.949 . S
C904 C910 1.368 . S
C905 C889 1.349 . S
C905 H897 0.950 . S
C905 C903 1.327 . S
C906 C894 1.349 . S
C906 H900 0.950 . S
C906 C907 1.327 . S
C907 H901 0.950 . S
C907 C906 1.327 . S
C907 C911 1.429 . S
C908 C891 1.574 . S
C908 H902 0.949 . S
C908 C912 1.368 . S
C909 C890 1.429 . S
C909 C903 1.429 . S
C909 C910 1.523 . S
C910 C891 1.368 . S
C910 C904 1.368 . S
C910 C909 1.523 . S
C911 C895 1.429 . S
C911 C907 1.429 . S
C911 C912 1.523 . S
C912 C896 1.368 . S
C912 C908 1.368 . S
C912 C911 1.523 . S
H913 C888 0.950 . S
H914 C890 0.950 . S
H915 C891 0.949 . S
H916 C893 0.950 . S
H917 C895 0.950 . S
C918 C919 1.349 . S
C918 C920 1.327 . S
C918 H943 0.950 . S
C919 C918 1.349 . S
C919 C935 1.349 . S
C920 C918 1.327 . S
C920 C939 1.429 . S
C920 H944 0.950 . S
C921 C938 1.574 . S
C921 C940 1.368 . S
C921 H945 0.949 . S
H922 C926 0.949 . S
C923 C924 1.349 . S
C923 C925 1.327 . S
C923 H946 0.950 . S
C924 C923 1.349 . S
C924 C936 1.349 . S
C925 C923 1.327 . S
C925 C941 1.429 . S
C925 H947 0.950 . S
C926 H922 0.949 . S
C926 C934 1.574 . S
C926 C942 1.368 . S
H927 C935 0.950 . S
H928 C933 0.950 . S
H929 C934 0.949 . S
H930 C936 0.950 . S
H931 C937 0.950 . S
H932 C938 0.949 . S
C933 H928 0.950 . S
C933 C935 1.327 . S
C933 C939 1.429 . S
C934 C926 1.574 . S
C934 H929 0.949 . S
C934 C940 1.368 . S
C935 C919 1.349 . S
C935 H927 0.950 . S
C935 C933 1.327 . S
C936 C924 1.349 . S
C936 H930 0.950 . S
C936 C937 1.327 . S
C937 H931 0.950 . S
C937 C936 1.327 . S
C937 C941 1.429 . S
C938 C921 1.574 . S
C938 H932 0.949 . S
C938 C942 1.368 . S
C939 C920 1.429 . S
C939 C933 1.429 . S
C939 C940 1.523 . S
C940 C921 1.368 . S
C940 C934 1.368 . S
C940 C939 1.523 . S
C941 C925 1.429 . S
C941 C937 1.429 . S
C941 C942 1.523 . S
C942 C926 1.368 . S
C942 C938 1.368 . S
C942 C941 1.523 . S
H943 C918 0.950 . S
H944 C920 0.950 . S
H945 C921 0.949 . S
H946 C923 0.950 . S
H947 C925 0.950 . S
C948 C949 1.349 . S
C948 C950 1.327 . S
C948 H973 0.950 . S
C949 C948 1.349 . S
C949 C965 1.349 . S
C950 C948 1.327 . S
C950 C969 1.429 . S
C950 H974 0.950 . S
C951 C968 1.574 . S
C951 C970 1.368 . S
C951 H975 0.949 . S
H952 C956 0.949 . S
C953 C954 1.349 . S
C953 C955 1.327 . S
C953 H976 0.950 . S
C954 C953 1.349 . S
C954 C966 1.349 . S
C955 C953 1.327 . S
C955 C971 1.429 . S
C955 H977 0.950 . S
C956 H952 0.949 . S
C956 C964 1.574 . S
C956 C972 1.368 . S
H957 C965 0.950 . S
H958 C963 0.950 . S
H959 C964 0.949 . S
H960 C966 0.950 . S
H961 C967 0.950 . S
H962 C968 0.949 . S
C963 H958 0.950 . S
C963 C965 1.327 . S
C963 C969 1.429 . S
C964 C956 1.574 . S
C964 H959 0.949 . S
C964 C970 1.368 . S
C965 C949 1.349 . S
C965 H957 0.950 . S
C965 C963 1.327 . S
C966 C954 1.349 . S
C966 H960 0.950 . S
C966 C967 1.327 . S
C967 H961 0.950 . S
C967 C966 1.327 . S
C967 C971 1.429 . S
C968 C951 1.574 . S
C968 H962 0.949 . S
C968 C972 1.368 . S
C969 C950 1.429 . S
C969 C963 1.429 . S
C969 C970 1.523 . S
C970 C951 1.368 . S
C970 C964 1.368 . S
C970 C969 1.523 . S
C971 C955 1.429 . S
C971 C967 1.429 . S
C971 C972 1.523 . S
C972 C956 1.368 . S
C972 C968 1.368 . S
C972 C971 1.523 . S
H973 C948 0.950 . S
H974 C950 0.950 . S
H975 C951 0.949 . S
H976 C953 0.950 . S
H977 C955 0.950 . S
C978 C979 1.349 . S
C978 C980 1.327 . S
C978 H1003 0.950 . S
C979 C978 1.349 . S
C979 C995 1.349 . S
C980 C978 1.327 . S
C980 C999 1.429 . S
C980 H1004 0.950 . S
C981 C998 1.574 . S
C981 C1000 1.368 . S
C981 H1005 0.949 . S
H982 C986 0.949 . S
C983 C984 1.349 . S
C983 C985 1.327 . S
C983 H1006 0.950 . S
C984 C983 1.349 . S
C984 C996 1.349 . S
C985 C983 1.327 . S
C985 C1001 1.429 . S
C985 H1007 0.950 . S
C986 H982 0.949 . S
C986 C994 1.574 . S
C986 C1002 1.368 . S
H987 C995 0.950 . S
H988 C993 0.950 . S
H989 C994 0.949 . S
H990 C996 0.950 . S
H991 C997 0.950 . S
H992 C998 0.949 . S
C993 H988 0.950 . S
C993 C995 1.327 . S
C993 C999 1.429 . S
C994 C986 1.574 . S
C994 H989 0.949 . S
C994 C1000 1.368 . S
C995 C979 1.349 . S
C995 H987 0.950 . S
C995 C993 1.327 . S
C996 C984 1.349 . S
C996 H990 0.950 . S
C996 C997 1.327 . S
C997 H991 0.950 . S
C997 C996 1.327 . S
C997 C1001 1.429 . S
C998 C981 1.574 . S
C998 H992 0.949 . S
C998 C1002 1.368 . S
C999 C980 1.429 . S
C999 C993 1.429 . S
C999 C1000 1.523 . S
C1000 C981 1.368 . S
C1000 C994 1.368 . S
C1000 C999 1.523 . S
C1001 C985 1.429 . S
C1001 C997 1.429 . S
C1001 C1002 1.523 . S
C1002 C986 1.368 . S
C1002 C998 1.368 . S
C1002 C1001 1.523 . S
H1003 C978 0.950 . S
H1004 C980 0.950 . S
H1005 C981 0.949 . S
H1006 C983 0.950 . S
H1007 C985 0.950 . S
C1008 C1009 1.349 . S
C1008 C1010 1.327 . S
C1008 H1033 0.950 . S
C1009 C1008 1.349 . S
C1009 C1025 1.349 . S
C1010 C1008 1.327 . S
C1010 C1029 1.429 . S
C1010 H1034 0.950 . S
C1011 C1028 1.574 . S
C1011 C1030 1.368 . S
C1011 H1035 0.949 . S
H1012 C1016 0.949 . S
C1013 C1014 1.349 . S
C1013 C1015 1.327 . S
C1013 H1036 0.950 . S
C1014 C1013 1.349 . S
C1014 C1026 1.349 . S
C1015 C1013 1.327 . S
C1015 C1031 1.429 . S
C1015 H1037 0.950 . S
C1016 H1012 0.949 . S
C1016 C1024 1.574 . S
C1016 C1032 1.368 . S
H1017 C1025 0.950 . S
H1018 C1023 0.950 . S
H1019 C1024 0.949 . S
H1020 C1026 0.950 . S
H1021 C1027 0.950 . S
H1022 C1028 0.949 . S
C1023 H1018 0.950 . S
C1023 C1025 1.327 . S
C1023 C1029 1.429 . S
C1024 C1016 1.574 . S
C1024 H1019 0.949 . S
C1024 C1030 1.368 . S
C1025 C1009 1.349 . S
C1025 H1017 0.950 . S
C1025 C1023 1.327 . S
C1026 C1014 1.349 . S
C1026 H1020 0.950 . S
C1026 C1027 1.327 . S
C1027 H1021 0.950 . S
C1027 C1026 1.327 . S
C1027 C1031 1.429 . S
C1028 C1011 1.574 . S
C1028 H1022 0.949 . S
C1028 C1032 1.368 . S
C1029 C1010 1.429 . S
C1029 C1023 1.429 . S
C1029 C1030 1.523 . S
C1030 C1011 1.368 . S
C1030 C1024 1.368 . S
C1030 C1029 1.523 . S
C1031 C1015 1.429 . S
C1031 C1027 1.429 . S
C1031 C1032 1.523 . S
C1032 C1016 1.368 . S
C1032 C1028 1.368 . S
C1032 C1031 1.523 . S
H1033 C1008 0.950 . S
H1034 C1010 0.950 . S
H1035 C1011 0.949 . S
H1036 C1013 0.950 . S
H1037 C1015 0.950 . S
C1038 C1039 1.349 . S
C1038 C1040 1.327 . S
C1038 H1063 0.950 . S
C1039 C1038 1.349 . S
C1039 C1055 1.349 . S
C1040 C1038 1.327 . S
C1040 C1059 1.429 . S
C1040 H1064 0.950 . S
C1041 C1058 1.574 . S
C1041 C1060 1.368 . S
C1041 H1065 0.949 . S
H1042 C1046 0.949 . S
C1043 C1044 1.349 . S
C1043 C1045 1.327 . S
C1043 H1066 0.950 . S
C1044 C1043 1.349 . S
C1044 C1056 1.349 . S
C1045 C1043 1.327 . S
C1045 C1061 1.429 . S
C1045 H1067 0.950 . S
C1046 H1042 0.949 . S
C1046 C1054 1.574 . S
C1046 C1062 1.368 . S
H1047 C1055 0.950 . S
H1048 C1053 0.950 . S
H1049 C1054 0.949 . S
H1050 C1056 0.950 . S
H1051 C1057 0.950 . S
H1052 C1058 0.949 . S
C1053 H1048 0.950 . S
C1053 C1055 1.327 . S
C1053 C1059 1.429 . S
C1054 C1046 1.574 . S
C1054 H1049 0.949 . S
C1054 C1060 1.368 . S
C1055 C1039 1.349 . S
C1055 H1047 0.950 . S
C1055 C1053 1.327 . S
C1056 C1044 1.349 . S
C1056 H1050 0.950 . S
C1056 C1057 1.327 . S
C1057 H1051 0.950 . S
C1057 C1056 1.327 . S
C1057 C1061 1.429 . S
C1058 C1041 1.574 . S
C1058 H1052 0.949 . S
C1058 C1062 1.368 . S
C1059 C1040 1.429 . S
C1059 C1053 1.429 . S
C1059 C1060 1.523 . S
C1060 C1041 1.368 . S
C1060 C1054 1.368 . S
C1060 C1059 1.523 . S
C1061 C1045 1.429 . S
C1061 C1057 1.429 . S
C1061 C1062 1.523 . S
C1062 C1046 1.368 . S
C1062 C1058 1.368 . S
C1062 C1061 1.523 . S
H1063 C1038 0.950 . S
H1064 C1040 0.950 . S
H1065 C1041 0.949 . S
H1066 C1043 0.950 . S
H1067 C1045 0.950 . S
C1068 C1069 1.349 . S
C1068 C1070 1.327 . S
C1068 H1093 0.950 . S
C1069 C1068 1.349 . S
C1069 C1085 1.349 . S
C1070 C1068 1.327 . S
C1070 C1089 1.429 . S
C1070 H1094 0.950 . S
C1071 C1088 1.574 . S
C1071 C1090 1.368 . S
C1071 H1095 0.949 . S
H1072 C1076 0.949 . S
C1073 C1074 1.349 . S
C1073 C1075 1.327 . S
C1073 H1096 0.950 . S
C1074 C1073 1.349 . S
C1074 C1086 1.349 . S
C1075 C1073 1.327 . S
C1075 C1091 1.429 . S
C1075 H1097 0.950 . S
C1076 H1072 0.949 . S
C1076 C1084 1.574 . S
C1076 C1092 1.368 . S
H1077 C1085 0.950 . S
H1078 C1083 0.950 . S
H1079 C1084 0.949 . S
H1080 C1086 0.950 . S
H1081 C1087 0.950 . S
H1082 C1088 0.949 . S
C1083 H1078 0.950 . S
C1083 C1085 1.327 . S
C1083 C1089 1.429 . S
C1084 C1076 1.574 . S
C1084 H1079 0.949 . S
C1084 C1090 1.368 . S
C1085 C1069 1.349 . S
C1085 H1077 0.950 . S
C1085 C1083 1.327 . S
C1086 C1074 1.349 . S
C1086 H1080 0.950 . S
C1086 C1087 1.327 . S
C1087 H1081 0.950 . S
C1087 C1086 1.327 . S
C1087 C1091 1.429 . S
C1088 C1071 1.574 . S
C1088 H1082 0.949 . S
C1088 C1092 1.368 . S
C1089 C1070 1.429 . S
C1089 C1083 1.429 . S
C1089 C1090 1.523 . S
C1090 C1071 1.368 . S
C1090 C1084 1.368 . S
C1090 C1089 1.523 . S
C1091 C1075 1.429 . S
C1091 C1087 1.429 . S
C1091 C1092 1.523 . S
C1092 C1076 1.368 . S
C1092 C1088 1.368 . S
C1092 C1091 1.523 . S
H1093 C1068 0.950 . S
H1094 C1070 0.950 . S
H1095 C1071 0.949 . S
H1096 C1073 0.950 . S
H1097 C1075 0.950 . S
C1098 C1099 1.349 . S
C1098 C1100 1.327 . S
C1098 H1123 0.950 . S
C1099 C1098 1.349 . S
C1099 C1115 1.349 . S
C1100 C1098 1.327 . S
C1100 C1119 1.429 . S
C1100 H1124 0.950 . S
C1101 C1118 1.574 . S
C1101 C1120 1.368 . S
C1101 H1125 0.949 . S
H1102 C1106 0.949 . S
C1103 C1104 1.349 . S
C1103 C1105 1.327 . S
C1103 H1126 0.950 . S
C1104 C1103 1.349 . S
C1104 C1116 1.349 . S
C1105 C1103 1.327 . S
C1105 C1121 1.429 . S
C1105 H1127 0.950 . S
C1106 H1102 0.949 . S
C1106 C1114 1.574 . S
C1106 C1122 1.368 . S
H1107 C1115 0.950 . S
H1108 C1113 0.950 . S
H1109 C1114 0.949 . S
H1110 C1116 0.950 . S
H1111 C1117 0.950 . S
H1112 C1118 0.949 . S
C1113 H1108 0.950 . S
C1113 C1115 1.327 . S
C1113 C1119 1.429 . S
C1114 C1106 1.574 . S
C1114 H1109 0.949 . S
C1114 C1120 1.368 . S
C1115 C1099 1.349 . S
C1115 H1107 0.950 . S
C1115 C1113 1.327 . S
C1116 C1104 1.349 . S
C1116 H1110 0.950 . S
C1116 C1117 1.327 . S
C1117 H1111 0.950 . S
C1117 C1116 1.327 . S
C1117 C1121 1.429 . S
C1118 C1101 1.574 . S
C1118 H1112 0.949 . S
C1118 C1122 1.368 . S
C1119 C1100 1.429 . S
C1119 C1113 1.429 . S
C1119 C1120 1.523 . S
C1120 C1101 1.368 . S
C1120 C1114 1.368 . S
C1120 C1119 1.523 . S
C1121 C1105 1.429 . S
C1121 C1117 1.429 . S
C1121 C1122 1.523 . S
C1122 C1106 1.368 . S
C1122 C1118 1.368 . S
C1122 C1121 1.523 . S
H1123 C1098 0.950 . S
H1124 C1100 0.950 . S
H1125 C1101 0.949 . S
H1126 C1103 0.950 . S
H1127 C1105 0.950 . S
C1128 C1129 1.349 . S
C1128 C1130 1.327 . S
C1128 H1153 0.950 . S
C1129 C1128 1.349 . S
C1129 C1145 1.349 . S
C1130 C1128 1.327 . S
C1130 C1149 1.429 . S
C1130 H1154 0.950 . S
C1131 C1148 1.574 . S
C1131 C1150 1.368 . S
C1131 H1155 0.949 . S
H1132 C1136 0.949 . S
C1133 C1134 1.349 . S
C1133 C1135 1.327 . S
C1133 H1156 0.950 . S
C1134 C1133 1.349 . S
C1134 C1146 1.349 . S
C1135 C1133 1.327 . S
C1135 C1151 1.429 . S
C1135 H1157 0.950 . S
C1136 H1132 0.949 . S
C1136 C1144 1.574 . S
C1136 C1152 1.368 . S
H1137 C1145 0.950 . S
H1138 C1143 0.950 . S
H1139 C1144 0.949 . S
H1140 C1146 0.950 . S
H1141 C1147 0.950 . S
H1142 C1148 0.949 . S
C1143 H1138 0.950 . S
C1143 C1145 1.327 . S
C1143 C1149 1.429 . S
C1144 C1136 1.574 . S
C1144 H1139 0.949 . S
C1144 C1150 1.368 . S
C1145 C1129 1.349 . S
C1145 H1137 0.950 . S
C1145 C1143 1.327 . S
C1146 C1134 1.349 . S
C1146 H1140 0.950 . S
C1146 C1147 1.327 . S
C1147 H1141 0.950 . S
C1147 C1146 1.327 . S
C1147 C1151 1.429 . S
C1148 C1131 1.574 . S
C1148 H1142 0.949 . S
C1148 C1152 1.368 . S
C1149 C1130 1.429 . S
C1149 C1143 1.429 . S
C1149 C1150 1.523 . S
C1150 C1131 1.368 . S
C1150 C1144 1.368 . S
C1150 C1149 1.523 . S
C1151 C1135 1.429 . S
C1151 C1147 1.429 . S
C1151 C1152 1.523 . S
C1152 C1136 1.368 . S
C1152 C1148 1.368 . S
C1152 C1151 1.523 . S
H1153 C1128 0.950 . S
H1154 C1130 0.950 . S
H1155 C1131 0.949 . S
H1156 C1133 0.950 . S
H1157 C1135 0.950 . S
C1158 C1159 1.349 . S
C1158 C1160 1.327 . S
C1158 H1183 0.950 . S
C1159 C1158 1.349 . S
C1159 C1175 1.349 . S
C1160 C1158 1.327 . S
C1160 C1179 1.429 . S
C1160 H1184 0.950 . S
C1161 C1178 1.574 . S
C1161 C1180 1.368 . S
C1161 H1185 0.949 . S
H1162 C1166 0.949 . S
C1163 C1164 1.349 . S
C1163 C1165 1.327 . S
C1163 H1186 0.950 . S
C1164 C1163 1.349 . S
C1164 C1176 1.349 . S
C1165 C1163 1.327 . S
C1165 C1181 1.429 . S
C1165 H1187 0.950 . S
C1166 H1162 0.949 . S
C1166 C1174 1.574 . S
C1166 C1182 1.368 . S
H1167 C1175 0.950 . S
H1168 C1173 0.950 . S
H1169 C1174 0.949 . S
H1170 C1176 0.950 . S
H1171 C1177 0.950 . S
H1172 C1178 0.949 . S
C1173 H1168 0.950 . S
C1173 C1175 1.327 . S
C1173 C1179 1.429 . S
C1174 C1166 1.574 . S
C1174 H1169 0.949 . S
C1174 C1180 1.368 . S
C1175 C1159 1.349 . S
C1175 H1167 0.950 . S
C1175 C1173 1.327 . S
C1176 C1164 1.349 . S
C1176 H1170 0.950 . S
C1176 C1177 1.327 . S
C1177 H1171 0.950 . S
C1177 C1176 1.327 . S
C1177 C1181 1.429 . S
C1178 C1161 1.574 . S
C1178 H1172 0.949 . S
C1178 C1182 1.368 . S
C1179 C1160 1.429 . S
C1179 C1173 1.429 . S
C1179 C1180 1.523 . S
C1180 C1161 1.368 . S
C1180 C1174 1.368 . S
C1180 C1179 1.523 . S
C1181 C1165 1.429 . S
C1181 C1177 1.429 . S
C1181 C1182 1.523 . S
C1182 C1166 1.368 . S
C1182 C1178 1.368 . S
C1182 C1181 1.523 . S
H1183 C1158 0.950 . S
H1184 C1160 0.950 . S
H1185 C1161 0.949 . S
H1186 C1163 0.950 . S
H1187 C1165 0.950 . S
C1188 C1189 1.349 . S
C1188 C1190 1.327 . S
C1188 H1213 0.950 . S
C1189 C1188 1.349 . S
C1189 C1205 1.349 . S
C1190 C1188 1.327 . S
C1190 C1209 1.429 . S
C1190 H1214 0.950 . S
C1191 C1208 1.574 . S
C1191 C1210 1.368 . S
C1191 H1215 0.949 . S
H1192 C1196 0.949 . S
C1193 C1194 1.349 . S
C1193 C1195 1.327 . S
C1193 H1216 0.950 . S
C1194 C1193 1.349 . S
C1194 C1206 1.349 . S
C1195 C1193 1.327 . S
C1195 C1211 1.429 . S
C1195 H1217 0.950 . S
C1196 H1192 0.949 . S
C1196 C1204 1.574 . S
C1196 C1212 1.368 . S
H1197 C1205 0.950 . S
H1198 C1203 0.950 . S
H1199 C1204 0.949 . S
H1200 C1206 0.950 . S
H1201 C1207 0.950 . S
H1202 C1208 0.949 . S
C1203 H1198 0.950 . S
C1203 C1205 1.327 . S
C1203 C1209 1.429 . S
C1204 C1196 1.574 . S
C1204 H1199 0.949 . S
C1204 C1210 1.368 . S
C1205 C1189 1.349 . S
C1205 H1197 0.950 . S
C1205 C1203 1.327 . S
C1206 C1194 1.349 . S
C1206 H1200 0.950 . S
C1206 C1207 1.327 . S
C1207 H1201 0.950 . S
C1207 C1206 1.327 . S
C1207 C1211 1.429 . S
C1208 C1191 1.574 . S
C1208 H1202 0.949 . S
C1208 C1212 1.368 . S
C1209 C1190 1.429 . S
C1209 C1203 1.429 . S
C1209 C1210 1.523 . S
C1210 C1191 1.368 . S
C1210 C1204 1.368 . S
C1210 C1209 1.523 . S
C1211 C1195 1.429 . S
C1211 C1207 1.429 . S
C1211 C1212 1.523 . S
C1212 C1196 1.368 . S
C1212 C1208 1.368 . S
C1212 C1211 1.523 . S
H1213 C1188 0.950 . S
H1214 C1190 0.950 . S
H1215 C1191 0.949 . S
H1216 C1193 0.950 . S
H1217 C1195 0.950 . S
C1218 C1219 1.349 . S
C1218 C1220 1.327 . S
C1218 H1243 0.950 . S
C1219 C1218 1.349 . S
C1219 C1235 1.349 . S
C1220 C1218 1.327 . S
C1220 C1239 1.429 . S
C1220 H1244 0.950 . S
C1221 C1238 1.574 . S
C1221 C1240 1.368 . S
C1221 H1245 0.949 . S
H1222 C1226 0.949 . S
C1223 C1224 1.349 . S
C1223 C1225 1.327 . S
C1223 H1246 0.950 . S
C1224 C1223 1.349 . S
C1224 C1236 1.349 . S
C1225 C1223 1.327 . S
C1225 C1241 1.429 . S
C1225 H1247 0.950 . S
C1226 H1222 0.949 . S
C1226 C1234 1.574 . S
C1226 C1242 1.368 . S
H1227 C1235 0.950 . S
H1228 C1233 0.950 . S
H1229 C1234 0.949 . S
H1230 C1236 0.950 . S
H1231 C1237 0.950 . S
H1232 C1238 0.949 . S
C1233 H1228 0.950 . S
C1233 C1235 1.327 . S
C1233 C1239 1.429 . S
C1234 C1226 1.574 . S
C1234 H1229 0.949 . S
C1234 C1240 1.368 . S
C1235 C1219 1.349 . S
C1235 H1227 0.950 . S
C1235 C1233 1.327 . S
C1236 C1224 1.349 . S
C1236 H1230 0.950 . S
C1236 C1237 1.327 . S
C1237 H1231 0.950 . S
C1237 C1236 1.327 . S
C1237 C1241 1.429 . S
C1238 C1221 1.574 . S
C1238 H1232 0.949 . S
C1238 C1242 1.368 . S
C1239 C1220 1.429 . S
C1239 C1233 1.429 . S
C1239 C1240 1.523 . S
C1240 C1221 1.368 . S
C1240 C1234 1.368 . S
C1240 C1239 1.523 . S
C1241 C1225 1.429 . S
C1241 C1237 1.429 . S
C1241 C1242 1.523 . S
C1242 C1226 1.368 . S
C1242 C1238 1.368 . S
C1242 C1241 1.523 . S
H1243 C1218 0.950 . S
H1244 C1220 0.950 . S
H1245 C1221 0.949 . S
H1246 C1223 0.950 . S
H1247 C1225 0.950 . S
C1248 C1249 1.349 . S
C1248 C1250 1.327 . S
C1248 H1273 0.950 . S
C1249 C1248 1.349 . S
C1249 C1265 1.349 . S
C1250 C1248 1.327 . S
C1250 C1269 1.429 . S
C1250 H1274 0.950 . S
C1251 C1268 1.574 . S
C1251 C1270 1.368 . S
C1251 H1275 0.949 . S
H1252 C1256 0.949 . S
C1253 C1254 1.349 . S
C1253 C1255 1.327 . S
C1253 H1276 0.950 . S
C1254 C1253 1.349 . S
C1254 C1266 1.349 . S
C1255 C1253 1.327 . S
C1255 C1271 1.429 . S
C1255 H1277 0.950 . S
C1256 H1252 0.949 . S
C1256 C1264 1.574 . S
C1256 C1272 1.368 . S
H1257 C1265 0.950 . S
H1258 C1263 0.950 . S
H1259 C1264 0.949 . S
H1260 C1266 0.950 . S
H1261 C1267 0.950 . S
H1262 C1268 0.949 . S
C1263 H1258 0.950 . S
C1263 C1265 1.327 . S
C1263 C1269 1.429 . S
C1264 C1256 1.574 . S
C1264 H1259 0.949 . S
C1264 C1270 1.368 . S
C1265 C1249 1.349 . S
C1265 H1257 0.950 . S
C1265 C1263 1.327 . S
C1266 C1254 1.349 . S
C1266 H1260 0.950 . S
C1266 C1267 1.327 . S
C1267 H1261 0.950 . S
C1267 C1266 1.327 . S
C1267 C1271 1.429 . S
C1268 C1251 1.574 . S
C1268 H1262 0.949 . S
C1268 C1272 1.368 . S
C1269 C1250 1.429 . S
C1269 C1263 1.429 . S
C1269 C1270 1.523 . S
C1270 C1251 1.368 . S
C1270 C1264 1.368 . S
C1270 C1269 1.523 . S
C1271 C1255 1.429 . S
C1271 C1267 1.429 . S
C1271 C1272 1.523 . S
C1272 C1256 1.368 . S
C1272 C1268 1.368 . S
C1272 C1271 1.523 . S
H1273 C1248 0.950 . S
H1274 C1250 0.950 . S
H1275 C1251 0.949 . S
H1276 C1253 0.950 . S
H1277 C1255 0.950 . S
C1278 C1279 1.349 . S
C1278 C1280 1.327 . S
C1278 H1303 0.950 . S
C1279 C1278 1.349 . S
C1279 C1295 1.349 . S
C1280 C1278 1.327 . S
C1280 C1299 1.429 . S
C1280 H1304 0.950 . S
C1281 C1298 1.574 . S
C1281 C1300 1.368 . S
C1281 H1305 0.949 . S
H1282 C1286 0.949 . S
C1283 C1284 1.349 . S
C1283 C1285 1.327 . S
C1283 H1306 0.950 . S
C1284 C1283 1.349 . S
C1284 C1296 1.349 . S
C1285 C1283 1.327 . S
C1285 C1301 1.429 . S
C1285 H1307 0.950 . S
C1286 H1282 0.949 . S
C1286 C1294 1.574 . S
C1286 C1302 1.368 . S
H1287 C1295 0.950 . S
H1288 C1293 0.950 . S
H1289 C1294 0.949 . S
H1290 C1296 0.950 . S
H1291 C1297 0.950 . S
H1292 C1298 0.949 . S
C1293 H1288 0.950 . S
C1293 C1295 1.327 . S
C1293 C1299 1.429 . S
C1294 C1286 1.574 . S
C1294 H1289 0.949 . S
C1294 C1300 1.368 . S
C1295 C1279 1.349 . S
C1295 H1287 0.950 . S
C1295 C1293 1.327 . S
C1296 C1284 1.349 . S
C1296 H1290 0.950 . S
C1296 C1297 1.327 . S
C1297 H1291 0.950 . S
C1297 C1296 1.327 . S
C1297 C1301 1.429 . S
C1298 C1281 1.574 . S
C1298 H1292 0.949 . S
C1298 C1302 1.368 . S
C1299 C1280 1.429 . S
C1299 C1293 1.429 . S
C1299 C1300 1.523 . S
C1300 C1281 1.368 . S
C1300 C1294 1.368 . S
C1300 C1299 1.523 . S
C1301 C1285 1.429 . S
C1301 C1297 1.429 . S
C1301 C1302 1.523 . S
C1302 C1286 1.368 . S
C1302 C1298 1.368 . S
C1302 C1301 1.523 . S
H1303 C1278 0.950 . S
H1304 C1280 0.950 . S
H1305 C1281 0.949 . S
H1306 C1283 0.950 . S
H1307 C1285 0.950 . S
C1308 C1309 1.349 . S
C1308 C1310 1.327 . S
C1308 H1333 0.950 . S
C1309 C1308 1.349 . S
C1309 C1325 1.349 . S
C1310 C1308 1.327 . S
C1310 C1329 1.429 . S
C1310 H1334 0.950 . S
C1311 C1328 1.574 . S
C1311 C1330 1.368 . S
C1311 H1335 0.949 . S
H1312 C1316 0.949 . S
C1313 C1314 1.349 . S
C1313 C1315 1.327 . S
C1313 H1336 0.950 . S
C1314 C1313 1.349 . S
C1314 C1326 1.349 . S
C1315 C1313 1.327 . S
C1315 C1331 1.429 . S
C1315 H1337 0.950 . S
C1316 H1312 0.949 . S
C1316 C1324 1.574 . S
C1316 C1332 1.368 . S
H1317 C1325 0.950 . S
H1318 C1323 0.950 . S
H1319 C1324 0.949 . S
H1320 C1326 0.950 . S
H1321 C1327 0.950 . S
H1322 C1328 0.949 . S
C1323 H1318 0.950 . S
C1323 C1325 1.327 . S
C1323 C1329 1.429 . S
C1324 C1316 1.574 . S
C1324 H1319 0.949 . S
C1324 C1330 1.368 . S
C1325 C1309 1.349 . S
C1325 H1317 0.950 . S
C1325 C1323 1.327 . S
C1326 C1314 1.349 . S
C1326 H1320 0.950 . S
C1326 C1327 1.327 . S
C1327 H1321 0.950 . S
C1327 C1326 1.327 . S
C1327 C1331 1.429 . S
C1328 C1311 1.574 . S
C1328 H1322 0.949 . S
C1328 C1332 1.368 . S
C1329 C1310 1.429 . S
C1329 C1323 1.429 . S
C1329 C1330 1.523 . S
C1330 C1311 1.368 . S
C1330 C1324 1.368 . S
C1330 C1329 1.523 . S
C1331 C1315 1.429 . S
C1331 C1327 1.429 . S
C1331 C1332 1.523 . S
C1332 C1316 1.368 . S
C1332 C1328 1.368 . S
C1332 C1331 1.523 . S
H1333 C1308 0.950 . S
H1334 C1310 0.950 . S
H1335 C1311 0.949 . S
H1336 C1313 0.950 . S
H1337 C1315 0.950 . S
C1338 C1339 1.349 . S
C1338 C1340 1.327 . S
C1338 H1363 0.950 . S
C1339 C1338 1.349 . S
C1339 C1355 1.349 . S
C1340 C1338 1.327 . S
C1340 C1359 1.429 . S
C1340 H1364 0.950 . S
C1341 C1358 1.574 . S
C1341 C1360 1.368 . S
C1341 H1365 0.949 . S
H1342 C1346 0.949 . S
C1343 C1344 1.349 . S
C1343 C1345 1.327 . S
C1343 H1366 0.950 . S
C1344 C1343 1.349 . S
C1344 C1356 1.349 . S
C1345 C1343 1.327 . S
C1345 C1361 1.429 . S
C1345 H1367 0.950 . S
C1346 H1342 0.949 . S
C1346 C1354 1.574 . S
C1346 C1362 1.368 . S
H1347 C1355 0.950 . S
H1348 C1353 0.950 . S
H1349 C1354 0.949 . S
H1350 C1356 0.950 . S
H1351 C1357 0.950 . S
H1352 C1358 0.949 . S
C1353 H1348 0.950 . S
C1353 C1355 1.327 . S
C1353 C1359 1.429 . S
C1354 C1346 1.574 . S
C1354 H1349 0.949 . S
C1354 C1360 1.368 . S
C1355 C1339 1.349 . S
C1355 H1347 0.950 . S
C1355 C1353 1.327 . S
C1356 C1344 1.349 . S
C1356 H1350 0.950 . S
C1356 C1357 1.327 . S
C1357 H1351 0.950 . S
C1357 C1356 1.327 . S
C1357 C1361 1.429 . S
C1358 C1341 1.574 . S
C1358 H1352 0.949 . S
C1358 C1362 1.368 . S
C1359 C1340 1.429 . S
C1359 C1353 1.429 . S
C1359 C1360 1.523 . S
C1360 C1341 1.368 . S
C1360 C1354 1.368 . S
C1360 C1359 1.523 . S
C1361 C1345 1.429 . S
C1361 C1357 1.429 . S
C1361 C1362 1.523 . S
C1362 C1346 1.368 . S
C1362 C1358 1.368 . S
C1362 C1361 1.523 . S
H1363 C1338 0.950 . S
H1364 C1340 0.950 . S
H1365 C1341 0.949 . S
H1366 C1343 0.950 . S
H1367 C1345 0.950 . S
C1368 C1369 1.349 . S
C1368 C1370 1.327 . S
C1368 H1393 0.950 . S
C1369 C1368 1.349 . S
C1369 C1385 1.349 . S
C1370 C1368 1.327 . S
C1370 C1389 1.429 . S
C1370 H1394 0.950 . S
C1371 C1388 1.574 . S
C1371 C1390 1.368 . S
C1371 H1395 0.949 . S
H1372 C1376 0.949 . S
C1373 C1374 1.349 . S
C1373 C1375 1.327 . S
C1373 H1396 0.950 . S
C1374 C1373 1.349 . S
C1374 C1386 1.349 . S
C1375 C1373 1.327 . S
C1375 C1391 1.429 . S
C1375 H1397 0.950 . S
C1376 H1372 0.949 . S
C1376 C1384 1.574 . S
C1376 C1392 1.368 . S
H1377 C1385 0.950 . S
H1378 C1383 0.950 . S
H1379 C1384 0.949 . S
H1380 C1386 0.950 . S
H1381 C1387 0.950 . S
H1382 C1388 0.949 . S
C1383 H1378 0.950 . S
C1383 C1385 1.327 . S
C1383 C1389 1.429 . S
C1384 C1376 1.574 . S
C1384 H1379 0.949 . S
C1384 C1390 1.368 . S
C1385 C1369 1.349 . S
C1385 H1377 0.950 . S
C1385 C1383 1.327 . S
C1386 C1374 1.349 . S
C1386 H1380 0.950 . S
C1386 C1387 1.327 . S
C1387 H1381 0.950 . S
C1387 C1386 1.327 . S
C1387 C1391 1.429 . S
C1388 C1371 1.574 . S
C1388 H1382 0.949 . S
C1388 C1392 1.368 . S
C1389 C1370 1.429 . S
C1389 C1383 1.429 . S
C1389 C1390 1.523 . S
C1390 C1371 1.368 . S
C1390 C1384 1.368 . S
C1390 C1389 1.523 . S
C1391 C1375 1.429 . S
C1391 C1387 1.429 . S
C1391 C1392 1.523 . S
C1392 C1376 1.368 . S
C1392 C1388 1.368 . S
C1392 C1391 1.523 . S
H1393 C1368 0.950 . S
H1394 C1370 0.950 . S
H1395 C1371 0.949 . S
H1396 C1373 0.950 . S
H1397 C1375 0.950 . S
C1398 C1399 1.349 . S
C1398 C1400 1.327 . S
C1398 H1423 0.950 . S
C1399 C1398 1.349 . S
C1399 C1415 1.349 . S
C1400 C1398 1.327 . S
C1400 C1419 1.429 . S
C1400 H1424 0.950 . S
C1401 C1418 1.574 . S
C1401 C1420 1.368 . S
C1401 H1425 0.949 . S
H1402 C1406 0.949 . S
C1403 C1404 1.349 . S
C1403 C1405 1.327 . S
C1403 H1426 0.950 . S
C1404 C1403 1.349 . S
C1404 C1416 1.349 . S
C1405 C1403 1.327 . S
C1405 C1421 1.429 . S
C1405 H1427 0.950 . S
C1406 H1402 0.949 . S
C1406 C1414 1.574 . S
C1406 C1422 1.368 . S
H1407 C1415 0.950 . S
H1408 C1413 0.950 . S
H1409 C1414 0.949 . S
H1410 C1416 0.950 . S
H1411 C1417 0.950 . S
H1412 C1418 0.949 . S
C1413 H1408 0.950 . S
C1413 C1415 1.327 . S
C1413 C1419 1.429 . S
C1414 C1406 1.574 . S
C1414 H1409 0.949 . S
C1414 C1420 1.368 . S
C1415 C1399 1.349 . S
C1415 H1407 0.950 . S
C1415 C1413 1.327 . S
C1416 C1404 1.349 . S
C1416 H1410 0.950 . S
C1416 C1417 1.327 . S
C1417 H1411 0.950 . S
C1417 C1416 1.327 . S
C1417 C1421 1.429 . S
C1418 C1401 1.574 . S
C1418 H1412 0.949 . S
C1418 C1422 1.368 . S
C1419 C1400 1.429 . S
C1419 C1413 1.429 . S
C1419 C1420 1.523 . S
C1420 C1401 1.368 . S
C1420 C1414 1.368 . S
C1420 C1419 1.523 . S
C1421 C1405 1.429 . S
C1421 C1417 1.429 . S
C1421 C1422 1.523 . S
C1422 C1406 1.368 . S
C1422 C1418 1.368 . S
C1422 C1421 1.523 . S
H1423 C1398 0.950 . S
H1424 C1400 0.950 . S
H1425 C1401 0.949 . S
H1426 C1403 0.950 . S
H1427 C1405 0.950 . S
C1428 C1429 1.349 . S
C1428 C1430 1.327 . S
C1428 H1453 0.950 . S
C1429 C1428 1.349 . S
C1429 C1445 1.349 . S
C1430 C1428 1.327 . S
C1430 C1449 1.429 . S
C1430 H1454 0.950 . S
C1431 C1448 1.574 . S
C1431 C1450 1.368 . S
C1431 H1455 0.949 . S
H1432 C1436 0.949 . S
C1433 C1434 1.349 . S
C1433 C1435 1.327 . S
C1433 H1456 0.950 . S
C1434 C1433 1.349 . S
C1434 C1446 1.349 . S
C1435 C1433 1.327 . S
C1435 C1451 1.429 . S
C1435 H1457 0.950 . S
C1436 H1432 0.949 . S
C1436 C1444 1.574 . S
C1436 C1452 1.368 . S
H1437 C1445 0.950 . S
H1438 C1443 0.950 . S
H1439 C1444 0.949 . S
H1440 C1446 0.950 . S
H1441 C1447 0.950 . S
H1442 C1448 0.949 . S
C1443 H1438 0.950 . S
C1443 C1445 1.327 . S
C1443 C1449 1.429 . S
C1444 C1436 1.574 . S
C1444 H1439 0.949 . S
C1444 C1450 1.368 . S
C1445 C1429 1.349 . S
C1445 H1437 0.950 . S
C1445 C1443 1.327 . S
C1446 C1434 1.349 . S
C1446 H1440 0.950 . S
C1446 C1447 1.327 . S
C1447 H1441 0.950 . S
C1447 C1446 1.327 . S
C1447 C1451 1.429 . S
C1448 C1431 1.574 . S
C1448 H1442 0.949 . S
C1448 C1452 1.368 . S
C1449 C1430 1.429 . S
C1449 C1443 1.429 . S
C1449 C1450 1.523 . S
C1450 C1431 1.368 . S
C1450 C1444 1.368 . S
C1450 C1449 1.523 . S
C1451 C1435 1.429 . S
C1451 C1447 1.429 . S
C1451 C1452 1.523 . S
C1452 C1436 1.368 . S
C1452 C1448 1.368 . S
C1452 C1451 1.523 . S
H1453 C1428 0.950 . S
H1454 C1430 0.950 . S
H1455 C1431 0.949 . S
H1456 C1433 0.950 . S
H1457 C1435 0.950 . S
C1458 C1459 1.349 . S
C1458 C1460 1.327 . S
C1458 H1483 0.950 . S
C1459 C1458 1.349 . S
C1459 C1475 1.349 . S
C1460 C1458 1.327 . S
C1460 C1479 1.429 . S
C1460 H1484 0.950 . S
C1461 C1478 1.574 . S
C1461 C1480 1.368 . S
C1461 H1485 0.949 . S
H1462 C1466 0.949 . S
C1463 C1464 1.349 . S
C1463 C1465 1.327 . S
C1463 H1486 0.950 . S
C1464 C1463 1.349 . S
C1464 C1476 1.349 . S
C1465 C1463 1.327 . S
C1465 C1481 1.429 . S
C1465 H1487 0.950 . S
C1466 H1462 0.949 . S
C1466 C1474 1.574 . S
C1466 C1482 1.368 . S
H1467 C1475 0.950 . S
H1468 C1473 0.950 . S
H1469 C1474 0.949 . S
H1470 C1476 0.950 . S
H1471 C1477 0.950 . S
H1472 C1478 0.949 . S
C1473 H1468 0.950 . S
C1473 C1475 1.327 . S
C1473 C1479 1.429 . S
C1474 C1466 1.574 . S
C1474 H1469 0.949 . S
C1474 C1480 1.368 . S
C1475 C1459 1.349 . S
C1475 H1467 0.950 . S
C1475 C1473 1.327 . S
C1476 C1464 1.349 . S
C1476 H1470 0.950 . S
C1476 C1477 1.327 . S
C1477 H1471 0.950 . S
C1477 C1476 1.327 . S
C1477 C1481 1.429 . S
C1478 C1461 1.574 . S
C1478 H1472 0.949 . S
C1478 C1482 1.368 . S
C1479 C1460 1.429 . S
C1479 C1473 1.429 . S
C1479 C1480 1.523 . S
C1480 C1461 1.368 . S
C1480 C1474 1.368 . S
C1480 C1479 1.523 . S
C1481 C1465 1.429 . S
C1481 C1477 1.429 . S
C1481 C1482 1.523 . S
C1482 C1466 1.368 . S
C1482 C1478 1.368 . S
C1482 C1481 1.523 . S
H1483 C1458 0.950 . S
H1484 C1460 0.950 . S
H1485 C1461 0.949 . S
H1486 C1463 0.950 . S
H1487 C1465 0.950 . S
C1488 C1489 1.349 . S
C1488 C1490 1.327 . S
C1488 H1513 0.950 . S
C1489 C1488 1.349 . S
C1489 C1505 1.349 . S
C1490 C1488 1.327 . S
C1490 C1509 1.429 . S
C1490 H1514 0.950 . S
C1491 C1508 1.574 . S
C1491 C1510 1.368 . S
C1491 H1515 0.949 . S
H1492 C1496 0.949 . S
C1493 C1494 1.349 . S
C1493 C1495 1.327 . S
C1493 H1516 0.950 . S
C1494 C1493 1.349 . S
C1494 C1506 1.349 . S
C1495 C1493 1.327 . S
C1495 C1511 1.429 . S
C1495 H1517 0.950 . S
C1496 H1492 0.949 . S
C1496 C1504 1.574 . S
C1496 C1512 1.368 . S
H1497 C1505 0.950 . S
H1498 C1503 0.950 . S
H1499 C1504 0.949 . S
H1500 C1506 0.950 . S
H1501 C1507 0.950 . S
H1502 C1508 0.949 . S
C1503 H1498 0.950 . S
C1503 C1505 1.327 . S
C1503 C1509 1.429 . S
C1504 C1496 1.574 . S
C1504 H1499 0.949 . S
C1504 C1510 1.368 . S
C1505 C1489 1.349 . S
C1505 H1497 0.950 . S
C1505 C1503 1.327 . S
C1506 C1494 1.349 . S
C1506 H1500 0.950 . S
C1506 C1507 1.327 . S
C1507 H1501 0.950 . S
C1507 C1506 1.327 . S
C1507 C1511 1.429 . S
C1508 C1491 1.574 . S
C1508 H1502 0.949 . S
C1508 C1512 1.368 . S
C1509 C1490 1.429 . S
C1509 C1503 1.429 . S
C1509 C1510 1.523 . S
C1510 C1491 1.368 . S
C1510 C1504 1.368 . S
C1510 C1509 1.523 . S
C1511 C1495 1.429 . S
C1511 C1507 1.429 . S
C1511 C1512 1.523 . S
C1512 C1496 1.368 . S
C1512 C1508 1.368 . S
C1512 C1511 1.523 . S
H1513 C1488 0.950 . S
H1514 C1490 0.950 . S
H1515 C1491 0.949 . S
H1516 C1493 0.950 . S
H1517 C1495 0.950 . S
C1518 C1519 1.349 . S
C1518 C1520 1.327 . S
C1518 H1543 0.950 . S
C1519 C1518 1.349 . S
C1519 C1535 1.349 . S
C1520 C1518 1.327 . S
C1520 C1539 1.429 . S
C1520 H1544 0.950 . S
C1521 C1538 1.574 . S
C1521 C1540 1.368 . S
C1521 H1545 0.949 . S
H1522 C1526 0.949 . S
C1523 C1524 1.349 . S
C1523 C1525 1.327 . S
C1523 H1546 0.950 . S
C1524 C1523 1.349 . S
C1524 C1536 1.349 . S
C1525 C1523 1.327 . S
C1525 C1541 1.429 . S
C1525 H1547 0.950 . S
C1526 H1522 0.949 . S
C1526 C1534 1.574 . S
C1526 C1542 1.368 . S
H1527 C1535 0.950 . S
H1528 C1533 0.950 . S
H1529 C1534 0.949 . S
H1530 C1536 0.950 . S
H1531 C1537 0.950 . S
H1532 C1538 0.949 . S
C1533 H1528 0.950 . S
C1533 C1535 1.327 . S
C1533 C1539 1.429 . S
C1534 C1526 1.574 . S
C1534 H1529 0.949 . S
C1534 C1540 1.368 . S
C1535 C1519 1.349 . S
C1535 H1527 0.950 . S
C1535 C1533 1.327 . S
C1536 C1524 1.349 . S
C1536 H1530 0.950 . S
C1536 C1537 1.327 . S
C1537 H1531 0.950 . S
C1537 C1536 1.327 . S
C1537 C1541 1.429 . S
C1538 C1521 1.574 . S
C1538 H1532 0.949 . S
C1538 C1542 1.368 . S
C1539 C1520 1.429 . S
C1539 C1533 1.429 . S
C1539 C1540 1.523 . S
C1540 C1521 1.368 . S
C1540 C1534 1.368 . S
C1540 C1539 1.523 . S
C1541 C1525 1.429 . S
C1541 C1537 1.429 . S
C1541 C1542 1.523 . S
C1542 C1526 1.368 . S
C1542 C1538 1.368 . S
C1542 C1541 1.523 . S
H1543 C1518 0.950 . S
H1544 C1520 0.950 . S
H1545 C1521 0.949 . S
H1546 C1523 0.950 . S
H1547 C1525 0.950 . S
C1548 C1549 1.349 . S
C1548 C1550 1.327 . S
C1548 H1573 0.950 . S
C1549 C1548 1.349 . S
C1549 C1565 1.349 . S
C1550 C1548 1.327 . S
C1550 C1569 1.429 . S
C1550 H1574 0.950 . S
C1551 C1568 1.574 . S
C1551 C1570 1.368 . S
C1551 H1575 0.949 . S
H1552 C1556 0.949 . S
C1553 C1554 1.349 . S
C1553 C1555 1.327 . S
C1553 H1576 0.950 . S
C1554 C1553 1.349 . S
C1554 C1566 1.349 . S
C1555 C1553 1.327 . S
C1555 C1571 1.429 . S
C1555 H1577 0.950 . S
C1556 H1552 0.949 . S
C1556 C1564 1.574 . S
C1556 C1572 1.368 . S
H1557 C1565 0.950 . S
H1558 C1563 0.950 . S
H1559 C1564 0.949 . S
H1560 C1566 0.950 . S
H1561 C1567 0.950 . S
H1562 C1568 0.949 . S
C1563 H1558 0.950 . S
C1563 C1565 1.327 . S
C1563 C1569 1.429 . S
C1564 C1556 1.574 . S
C1564 H1559 0.949 . S
C1564 C1570 1.368 . S
C1565 C1549 1.349 . S
C1565 H1557 0.950 . S
C1565 C1563 1.327 . S
C1566 C1554 1.349 . S
C1566 H1560 0.950 . S
C1566 C1567 1.327 . S
C1567 H1561 0.950 . S
C1567 C1566 1.327 . S
C1567 C1571 1.429 . S
C1568 C1551 1.574 . S
C1568 H1562 0.949 . S
C1568 C1572 1.368 . S
C1569 C1550 1.429 . S
C1569 C1563 1.429 . S
C1569 C1570 1.523 . S
C1570 C1551 1.368 . S
C1570 C1564 1.368 . S
C1570 C1569 1.523 . S
C1571 C1555 1.429 . S
C1571 C1567 1.429 . S
C1571 C1572 1.523 . S
C1572 C1556 1.368 . S
C1572 C1568 1.368 . S
C1572 C1571 1.523 . S
H1573 C1548 0.950 . S
H1574 C1550 0.950 . S
H1575 C1551 0.949 . S
H1576 C1553 0.950 . S
H1577 C1555 0.950 . S
C1578 C1579 1.349 . S
C1578 C1580 1.327 . S
C1578 H1603 0.950 . S
C1579 C1578 1.349 . S
C1579 C1595 1.349 . S
C1580 C1578 1.327 . S
C1580 C1599 1.429 . S
C1580 H1604 0.950 . S
C1581 C1598 1.574 . S
C1581 C1600 1.368 . S
C1581 H1605 0.949 . S
H1582 C1586 0.949 . S
C1583 C1584 1.349 . S
C1583 C1585 1.327 . S
C1583 H1606 0.950 . S
C1584 C1583 1.349 . S
C1584 C1596 1.349 . S
C1585 C1583 1.327 . S
C1585 C1601 1.429 . S
C1585 H1607 0.950 . S
C1586 H1582 0.949 . S
C1586 C1594 1.574 . S
C1586 C1602 1.368 . S
H1587 C1595 0.950 . S
H1588 C1593 0.950 . S
H1589 C1594 0.949 . S
H1590 C1596 0.950 . S
H1591 C1597 0.950 . S
H1592 C1598 0.949 . S
C1593 H1588 0.950 . S
C1593 C1595 1.327 . S
C1593 C1599 1.429 . S
C1594 C1586 1.574 . S
C1594 H1589 0.949 . S
C1594 C1600 1.368 . S
C1595 C1579 1.349 . S
C1595 H1587 0.950 . S
C1595 C1593 1.327 . S
C1596 C1584 1.349 . S
C1596 H1590 0.950 . S
C1596 C1597 1.327 . S
C1597 H1591 0.950 . S
C1597 C1596 1.327 . S
C1597 C1601 1.429 . S
C1598 C1581 1.574 . S
C1598 H1592 0.949 . S
C1598 C1602 1.368 . S
C1599 C1580 1.429 . S
C1599 C1593 1.429 . S
C1599 C1600 1.523 . S
C1600 C1581 1.368 . S
C1600 C1594 1.368 . S
C1600 C1599 1.523 . S
C1601 C1585 1.429 . S
C1601 C1597 1.429 . S
C1601 C1602 1.523 . S
C1602 C1586 1.368 . S
C1602 C1598 1.368 . S
C1602 C1601 1.523 . S
H1603 C1578 0.950 . S
H1604 C1580 0.950 . S
H1605 C1581 0.949 . S
H1606 C1583 0.950 . S
H1607 C1585 0.950 . S
C1608 C1609 1.349 . S
C1608 C1610 1.327 . S
C1608 H1633 0.950 . S
C1609 C1608 1.349 . S
C1609 C1625 1.349 . S
C1610 C1608 1.327 . S
C1610 C1629 1.429 . S
C1610 H1634 0.950 . S
C1611 C1628 1.574 . S
C1611 C1630 1.368 . S
C1611 H1635 0.949 . S
H1612 C1616 0.949 . S
C1613 C1614 1.349 . S
C1613 C1615 1.327 . S
C1613 H1636 0.950 . S
C1614 C1613 1.349 . S
C1614 C1626 1.349 . S
C1615 C1613 1.327 . S
C1615 C1631 1.429 . S
C1615 H1637 0.950 . S
C1616 H1612 0.949 . S
C1616 C1624 1.574 . S
C1616 C1632 1.368 . S
H1617 C1625 0.950 . S
H1618 C1623 0.950 . S
H1619 C1624 0.949 . S
H1620 C1626 0.950 . S
H1621 C1627 0.950 . S
H1622 C1628 0.949 . S
C1623 H1618 0.950 . S
C1623 C1625 1.327 . S
C1623 C1629 1.429 . S
C1624 C1616 1.574 . S
C1624 H1619 0.949 . S
C1624 C1630 1.368 . S
C1625 C1609 1.349 . S
C1625 H1617 0.950 . S
C1625 C1623 1.327 . S
C1626 C1614 1.349 . S
C1626 H1620 0.950 . S
C1626 C1627 1.327 . S
C1627 H1621 0.950 . S
C1627 C1626 1.327 . S
C1627 C1631 1.429 . S
C1628 C1611 1.574 . S
C1628 H1622 0.949 . S
C1628 C1632 1.368 . S
C1629 C1610 1.429 . S
C1629 C1623 1.429 . S
C1629 C1630 1.523 . S
C1630 C1611 1.368 . S
C1630 C1624 1.368 . S
C1630 C1629 1.523 . S
C1631 C1615 1.429 . S
C1631 C1627 1.429 . S
C1631 C1632 1.523 . S
C1632 C1616 1.368 . S
C1632 C1628 1.368 . S
C1632 C1631 1.523 . S
H1633 C1608 0.950 . S
H1634 C1610 0.950 . S
H1635 C1611 0.949 . S
H1636 C1613 0.950 . S
H1637 C1615 0.950 . S
C1638 C1639 1.349 . S
C1638 C1640 1.327 . S
C1638 H1663 0.950 . S
C1639 C1638 1.349 . S
C1639 C1655 1.349 . S
C1640 C1638 1.327 . S
C1640 C1659 1.429 . S
C1640 H1664 0.950 . S
C1641 C1658 1.574 . S
C1641 C1660 1.368 . S
C1641 H1665 0.949 . S
H1642 C1646 0.949 . S
C1643 C1644 1.349 . S
C1643 C1645 1.327 . S
C1643 H1666 0.950 . S
C1644 C1643 1.349 . S
C1644 C1656 1.349 . S
C1645 C1643 1.327 . S
C1645 C1661 1.429 . S
C1645 H1667 0.950 . S
C1646 H1642 0.949 . S
C1646 C1654 1.574 . S
C1646 C1662 1.368 . S
H1647 C1655 0.950 . S
H1648 C1653 0.950 . S
H1649 C1654 0.949 . S
H1650 C1656 0.950 . S
H1651 C1657 0.950 . S
H1652 C1658 0.949 . S
C1653 H1648 0.950 . S
C1653 C1655 1.327 . S
C1653 C1659 1.429 . S
C1654 C1646 1.574 . S
C1654 H1649 0.949 . S
C1654 C1660 1.368 . S
C1655 C1639 1.349 . S
C1655 H1647 0.950 . S
C1655 C1653 1.327 . S
C1656 C1644 1.349 . S
C1656 H1650 0.950 . S
C1656 C1657 1.327 . S
C1657 H1651 0.950 . S
C1657 C1656 1.327 . S
C1657 C1661 1.429 . S
C1658 C1641 1.574 . S
C1658 H1652 0.949 . S
C1658 C1662 1.368 . S
C1659 C1640 1.429 . S
C1659 C1653 1.429 . S
C1659 C1660 1.523 . S
C1660 C1641 1.368 . S
C1660 C1654 1.368 . S
C1660 C1659 1.523 . S
C1661 C1645 1.429 . S
C1661 C1657 1.429 . S
C1661 C1662 1.523 . S
C1662 C1646 1.368 . S
C1662 C1658 1.368 . S
C1662 C1661 1.523 . S
H1663 C1638 0.950 . S
H1664 C1640 0.950 . S
H1665 C1641 0.949 . S
H1666 C1643 0.950 . S
H1667 C1645 0.950 . S
C1668 C1669 1.349 . S
C1668 C1670 1.327 . S
C1668 H1693 0.950 . S
C1669 C1668 1.349 . S
C1669 C1685 1.349 . S
C1670 C1668 1.327 . S
C1670 C1689 1.429 . S
C1670 H1694 0.950 . S
C1671 C1688 1.574 . S
C1671 C1690 1.368 . S
C1671 H1695 0.949 . S
H1672 C1676 0.949 . S
C1673 C1674 1.349 . S
C1673 C1675 1.327 . S
C1673 H1696 0.950 . S
C1674 C1673 1.349 . S
C1674 C1686 1.349 . S
C1675 C1673 1.327 . S
C1675 C1691 1.429 . S
C1675 H1697 0.950 . S
C1676 H1672 0.949 . S
C1676 C1684 1.574 . S
C1676 C1692 1.368 . S
H1677 C1685 0.950 . S
H1678 C1683 0.950 . S
H1679 C1684 0.949 . S
H1680 C1686 0.950 . S
H1681 C1687 0.950 . S
H1682 C1688 0.949 . S
C1683 H1678 0.950 . S
C1683 C1685 1.327 . S
C1683 C1689 1.429 . S
C1684 C1676 1.574 . S
C1684 H1679 0.949 . S
C1684 C1690 1.368 . S
C1685 C1669 1.349 . S
C1685 H1677 0.950 . S
C1685 C1683 1.327 . S
C1686 C1674 1.349 . S
C1686 H1680 0.950 . S
C1686 C1687 1.327 . S
C1687 H1681 0.950 . S
C1687 C1686 1.327 . S
C1687 C1691 1.429 . S
C1688 C1671 1.574 . S
C1688 H1682 0.949 . S
C1688 C1692 1.368 . S
C1689 C1670 1.429 . S
C1689 C1683 1.429 . S
C1689 C1690 1.523 . S
C1690 C1671 1.368 . S
C1690 C1684 1.368 . S
C1690 C1689 1.523 . S
C1691 C1675 1.429 . S
C1691 C1687 1.429 . S
C1691 C1692 1.523 . S
C1692 C1676 1.368 . S
C1692 C1688 1.368 . S
C1692 C1691 1.523 . S
H1693 C1668 0.950 . S
H1694 C1670 0.950 . S
H1695 C1671 0.949 . S
H1696 C1673 0.950 . S
H1697 C1675 0.950 . S
C1698 C1699 1.349 . S
C1698 C1700 1.327 . S
C1698 H1723 0.950 . S
C1699 C1698 1.349 . S
C1699 C1715 1.349 . S
C1700 C1698 1.327 . S
C1700 C1719 1.429 . S
C1700 H1724 0.950 . S
C1701 C1718 1.574 . S
C1701 C1720 1.368 . S
C1701 H1725 0.949 . S
H1702 C1706 0.949 . S
C1703 C1704 1.349 . S
C1703 C1705 1.327 . S
C1703 H1726 0.950 . S
C1704 C1703 1.349 . S
C1704 C1716 1.349 . S
C1705 C1703 1.327 . S
C1705 C1721 1.429 . S
C1705 H1727 0.950 . S
C1706 H1702 0.949 . S
C1706 C1714 1.574 . S
C1706 C1722 1.368 . S
H1707 C1715 0.950 . S
H1708 C1713 0.950 . S
H1709 C1714 0.949 . S
H1710 C1716 0.950 . S
H1711 C1717 0.950 . S
H1712 C1718 0.949 . S
C1713 H1708 0.950 . S
C1713 C1715 1.327 . S
C1713 C1719 1.429 . S
C1714 C1706 1.574 . S
C1714 H1709 0.949 . S
C1714 C1720 1.368 . S
C1715 C1699 1.349 . S
C1715 H1707 0.950 . S
C1715 C1713 1.327 . S
C1716 C1704 1.349 . S
C1716 H1710 0.950 . S
C1716 C1717 1.327 . S
C1717 H1711 0.950 . S
C1717 C1716 1.327 . S
C1717 C1721 1.429 . S
C1718 C1701 1.574 . S
C1718 H1712 0.949 . S
C1718 C1722 1.368 . S
C1719 C1700 1.429 . S
C1719 C1713 1.429 . S
C1719 C1720 1.523 . S
C1720 C1701 1.368 . S
C1720 C1714 1.368 . S
C1720 C1719 1.523 . S
C1721 C1705 1.429 . S
C1721 C1717 1.429 . S
C1721 C1722 1.523 . S
C1722 C1706 1.368 . S
C1722 C1718 1.368 . S
C1722 C1721 1.523 . S
H1723 C1698 0.950 . S
H1724 C1700 0.950 . S
H1725 C1701 0.949 . S
H1726 C1703 0.950 . S
H1727 C1705 0.950 . S
C1728 C1729 1.349 1_554 S
C1728 C1730 1.327 1_554 S
C1728 H1753 0.950 . S
C1729 C1728 1.349 1_556 S
C1729 C1745 1.349 . S
C1730 C1728 1.327 1_556 S
C1730 C1749 1.429 . S
C1730 H1754 0.950 1_556 S
C1731 C1748 1.574 . S
C1731 C1750 1.368 . S
C1731 H1755 0.949 . S
H1732 C1736 0.949 . S
C1733 C1734 1.349 . S
C1733 C1735 1.327 . S
C1733 H1756 0.950 . S
C1734 C1733 1.349 . S
C1734 C1746 1.349 . S
C1735 C1733 1.327 . S
C1735 C1751 1.429 . S
C1735 H1757 0.950 . S
C1736 H1732 0.949 . S
C1736 C1744 1.574 . S
C1736 C1752 1.368 . S
H1737 C1745 0.950 . S
H1738 C1743 0.950 . S
H1739 C1744 0.949 . S
H1740 C1746 0.950 . S
H1741 C1747 0.950 . S
H1742 C1748 0.949 . S
C1743 H1738 0.950 . S
C1743 C1745 1.327 . S
C1743 C1749 1.429 . S
C1744 C1736 1.574 . S
C1744 H1739 0.949 . S
C1744 C1750 1.368 . S
C1745 C1729 1.349 . S
C1745 H1737 0.950 . S
C1745 C1743 1.327 . S
C1746 C1734 1.349 . S
C1746 H1740 0.950 . S
C1746 C1747 1.327 . S
C1747 H1741 0.950 . S
C1747 C1746 1.327 . S
C1747 C1751 1.429 . S
C1748 C1731 1.574 . S
C1748 H1742 0.949 . S
C1748 C1752 1.368 . S
C1749 C1730 1.429 . S
C1749 C1743 1.429 . S
C1749 C1750 1.523 . S
C1750 C1731 1.368 . S
C1750 C1744 1.368 . S
C1750 C1749 1.523 . S
C1751 C1735 1.429 . S
C1751 C1747 1.429 . S
C1751 C1752 1.523 . S
C1752 C1736 1.368 . S
C1752 C1748 1.368 . S
C1752 C1751 1.523 . S
H1753 C1728 0.950 . S
H1754 C1730 0.950 1_554 S
H1755 C1731 0.949 . S
H1756 C1733 0.950 . S
H1757 C1735 0.950 . S
C1758 C1759 1.349 . S
C1758 C1760 1.327 . S
C1758 H1783 0.950 . S
C1759 C1758 1.349 . S
C1759 C1775 1.349 1_556 S
C1760 C1758 1.327 . S
C1760 C1779 1.429 . S
C1760 H1784 0.950 . S
C1761 C1778 1.574 . S
C1761 C1780 1.368 . S
C1761 H1785 0.949 . S
H1762 C1766 0.949 . S
C1763 C1764 1.349 . S
C1763 C1765 1.327 . S
C1763 H1786 0.950 . S
C1764 C1763 1.349 . S
C1764 C1776 1.349 . S
C1765 C1763 1.327 . S
C1765 C1781 1.429 . S
C1765 H1787 0.950 . S
C1766 H1762 0.949 . S
C1766 C1774 1.574 . S
C1766 C1782 1.368 . S
H1767 C1775 0.950 . S
H1768 C1773 0.950 1_554 S
H1769 C1774 0.949 . S
H1770 C1776 0.950 . S
H1771 C1777 0.950 . S
H1772 C1778 0.949 . S
C1773 H1768 0.950 1_556 S
C1773 C1775 1.327 1_556 S
C1773 C1779 1.429 . S
C1774 C1766 1.574 . S
C1774 H1769 0.949 . S
C1774 C1780 1.368 . S
C1775 C1759 1.349 1_554 S
C1775 H1767 0.950 . S
C1775 C1773 1.327 1_554 S
C1776 C1764 1.349 . S
C1776 H1770 0.950 . S
C1776 C1777 1.327 . S
C1777 H1771 0.950 . S
C1777 C1776 1.327 . S
C1777 C1781 1.429 . S
C1778 C1761 1.574 . S
C1778 H1772 0.949 . S
C1778 C1782 1.368 . S
C1779 C1760 1.429 . S
C1779 C1773 1.429 . S
C1779 C1780 1.523 . S
C1780 C1761 1.368 . S
C1780 C1774 1.368 . S
C1780 C1779 1.523 . S
C1781 C1765 1.429 . S
C1781 C1777 1.429 . S
C1781 C1782 1.523 . S
C1782 C1766 1.368 . S
C1782 C1778 1.368 . S
C1782 C1781 1.523 . S
H1783 C1758 0.950 . S
H1784 C1760 0.950 . S
H1785 C1761 0.949 . S
H1786 C1763 0.950 . S
H1787 C1765 0.950 . S
C1788 C1789 1.349 . S
C1788 C1790 1.327 . S
C1788 H1813 0.948 . S
C1789 C1788 1.349 . S
C1789 C1805 1.349 . S
C1790 C1788 1.327 . S
C1790 C1809 1.429 . S
C1790 H1814 0.950 . S
C1791 C1808 1.574 . S
C1791 C1810 1.368 . S
C1791 H1815 0.949 . S
H1792 C1796 0.949 . S
C1793 C1794 1.349 . S
C1793 C1795 1.327 . S
C1793 H1816 0.950 . S
C1794 C1793 1.349 . S
C1794 C1806 1.349 . S
C1795 C1793 1.327 . S
C1795 C1811 1.429 . S
C1795 H1817 0.950 . S
C1796 H1792 0.949 . S
C1796 C1804 1.574 . S
C1796 C1812 1.368 . S
H1797 C1805 0.950 . S
H1798 C1803 0.950 . S
H1799 C1804 0.949 . S
H1800 C1806 0.950 . S
H1801 C1807 0.950 . S
H1802 C1808 0.949 . S
C1803 H1798 0.950 . S
C1803 C1805 1.327 . S
C1803 C1809 1.429 . S
C1804 C1796 1.574 . S
C1804 H1799 0.949 . S
C1804 C1810 1.368 . S
C1805 C1789 1.349 . S
C1805 H1797 0.950 . S
C1805 C1803 1.327 . S
C1806 C1794 1.349 . S
C1806 H1800 0.950 . S
C1806 C1807 1.327 . S
C1807 H1801 0.950 . S
C1807 C1806 1.327 . S
C1807 C1811 1.429 . S
C1808 C1791 1.574 . S
C1808 H1802 0.949 . S
C1808 C1812 1.368 . S
C1809 C1790 1.429 . S
C1809 C1803 1.429 . S
C1809 C1810 1.523 . S
C1810 C1791 1.368 . S
C1810 C1804 1.368 . S
C1810 C1809 1.523 . S
C1811 C1795 1.429 . S
C1811 C1807 1.429 . S
C1811 C1812 1.523 . S
C1812 C1796 1.368 . S
C1812 C1808 1.368 . S
C1812 C1811 1.523 . S
H1813 C1788 0.948 . S
H1814 C1790 0.950 . S
H1815 C1791 0.949 . S
H1816 C1793 0.950 . S
H1817 C1795 0.950 . S
C1818 C1819 1.349 . S
C1818 C1820 1.327 . S
C1818 H1843 0.950 . S
C1819 C1818 1.349 . S
C1819 C1835 1.349 . S
C1820 C1818 1.327 . S
C1820 C1839 1.429 . S
C1820 H1844 0.950 . S
C1821 C1838 1.574 . S
C1821 C1840 1.368 . S
C1821 H1845 0.949 . S
H1822 C1826 0.949 . S
C1823 C1824 1.349 . S
C1823 C1825 1.327 . S
C1823 H1846 0.950 . S
C1824 C1823 1.349 . S
C1824 C1836 1.349 . S
C1825 C1823 1.327 . S
C1825 C1841 1.429 . S
C1825 H1847 0.950 . S
C1826 H1822 0.949 . S
C1826 C1834 1.574 . S
C1826 C1842 1.368 . S
H1827 C1835 0.950 . S
H1828 C1833 0.950 . S
H1829 C1834 0.949 . S
H1830 C1836 0.950 . S
H1831 C1837 0.950 . S
H1832 C1838 0.949 . S
C1833 H1828 0.950 . S
C1833 C1835 1.327 . S
C1833 C1839 1.429 . S
C1834 C1826 1.574 . S
C1834 H1829 0.949 . S
C1834 C1840 1.368 . S
C1835 C1819 1.349 . S
C1835 H1827 0.950 . S
C1835 C1833 1.327 . S
C1836 C1824 1.349 . S
C1836 H1830 0.950 . S
C1836 C1837 1.327 . S
C1837 H1831 0.950 . S
C1837 C1836 1.327 . S
C1837 C1841 1.429 . S
C1838 C1821 1.574 . S
C1838 H1832 0.949 . S
C1838 C1842 1.368 . S
C1839 C1820 1.429 . S
C1839 C1833 1.429 . S
C1839 C1840 1.523 . S
C1840 C1821 1.368 . S
C1840 C1834 1.368 . S
C1840 C1839 1.523 . S
C1841 C1825 1.429 . S
C1841 C1837 1.429 . S
C1841 C1842 1.523 . S
C1842 C1826 1.368 . S
C1842 C1838 1.368 . S
C1842 C1841 1.523 . S
H1843 C1818 0.950 . S
H1844 C1820 0.950 . S
H1845 C1821 0.949 . S
H1846 C1823 0.950 . S
H1847 C1825 0.950 . S
C1848 C1849 1.349 . S
C1848 C1850 1.327 . S
C1848 H1873 0.950 . S
C1849 C1848 1.349 . S
C1849 C1865 1.361 . S
C1850 C1848 1.327 . S
C1850 C1869 1.429 . S
C1850 H1874 0.950 . S
C1851 C1868 1.574 . S
C1851 C1870 1.368 . S
C1851 H1875 0.949 . S
H1852 C1856 0.949 . S
C1853 C1854 1.349 . S
C1853 C1855 1.327 . S
C1853 H1876 0.950 . S
C1854 C1853 1.349 . S
C1854 C1866 1.349 . S
C1855 C1853 1.327 . S
C1855 C1871 1.429 . S
C1855 H1877 0.950 . S
C1856 H1852 0.949 . S
C1856 C1864 1.574 . S
C1856 C1872 1.368 . S
H1857 C1865 0.932 1_554 S
H1858 C1863 0.950 1_554 S
H1859 C1864 0.949 . S
H1860 C1866 0.950 . S
H1861 C1867 0.950 . S
H1862 C1868 0.949 . S
C1863 H1858 0.950 1_556 S
C1863 C1865 1.333 . S
C1863 C1869 1.429 . S
C1864 C1856 1.574 . S
C1864 H1859 0.949 . S
C1864 C1870 1.368 . S
C1865 C1849 1.361 . S
C1865 H1857 0.932 1_556 S
C1865 C1863 1.333 . S
C1866 C1854 1.349 . S
C1866 H1860 0.950 . S
C1866 C1867 1.327 . S
C1867 H1861 0.950 . S
C1867 C1866 1.327 . S
C1867 C1871 1.429 . S
C1868 C1851 1.574 . S
C1868 H1862 0.949 . S
C1868 C1872 1.368 . S
C1869 C1850 1.429 . S
C1869 C1863 1.429 . S
C1869 C1870 1.523 . S
C1870 C1851 1.368 . S
C1870 C1864 1.368 . S
C1870 C1869 1.523 . S
C1871 C1855 1.429 . S
C1871 C1867 1.429 . S
C1871 C1872 1.523 . S
C1872 C1856 1.368 . S
C1872 C1868 1.368 . S
C1872 C1871 1.523 . S
H1873 C1848 0.950 . S
H1874 C1850 0.950 . S
H1875 C1851 0.949 . S
H1876 C1853 0.950 . S
H1877 C1855 0.950 . S
C1878 C1879 1.349 . S
C1878 C1880 1.327 . S
C1878 H1903 0.950 1_556 S
C1879 C1878 1.349 . S
C1879 C1895 1.349 . S
C1880 C1878 1.327 . S
C1880 C1899 1.429 . S
C1880 H1904 0.950 . S
C1881 C1898 1.574 . S
C1881 C1900 1.368 . S
C1881 H1905 0.949 . S
H1882 C1886 0.949 . S
C1883 C1884 1.349 . S
C1883 C1885 1.327 . S
C1883 H1906 0.950 . S
C1884 C1883 1.349 . S
C1884 C1896 1.349 . S
C1885 C1883 1.327 . S
C1885 C1901 1.429 . S
C1885 H1907 0.950 . S
C1886 H1882 0.949 . S
C1886 C1894 1.574 . S
C1886 C1902 1.368 . S
H1887 C1895 0.950 . S
H1888 C1893 0.950 . S
H1889 C1894 0.949 . S
H1890 C1896 0.950 . S
H1891 C1897 0.950 . S
H1892 C1898 0.949 . S
C1893 H1888 0.950 . S
C1893 C1895 1.327 . S
C1893 C1899 1.429 . S
C1894 C1886 1.574 . S
C1894 H1889 0.949 . S
C1894 C1900 1.368 . S
C1895 C1879 1.349 . S
C1895 H1887 0.950 . S
C1895 C1893 1.327 . S
C1896 C1884 1.349 . S
C1896 H1890 0.950 . S
C1896 C1897 1.327 . S
C1897 H1891 0.950 . S
C1897 C1896 1.327 . S
C1897 C1901 1.429 . S
C1898 C1881 1.574 . S
C1898 H1892 0.949 . S
C1898 C1902 1.368 . S
C1899 C1880 1.429 . S
C1899 C1893 1.429 . S
C1899 C1900 1.523 . S
C1900 C1881 1.368 . S
C1900 C1894 1.368 . S
C1900 C1899 1.523 . S
C1901 C1885 1.429 . S
C1901 C1897 1.429 . S
C1901 C1902 1.523 . S
C1902 C1886 1.368 . S
C1902 C1898 1.368 . S
C1902 C1901 1.523 . S
H1903 C1878 0.950 1_554 S
H1904 C1880 0.950 . S
H1905 C1881 0.949 . S
H1906 C1883 0.950 . S
H1907 C1885 0.950 . S
C1908 C1909 1.349 . S
C1908 C1910 1.327 . S
C1908 H1933 0.952 1_554 S
C1909 C1908 1.349 . S
C1909 C1925 1.349 . S
C1910 C1908 1.327 . S
C1910 C1929 1.429 . S
C1910 H1934 0.950 . S
C1911 C1928 1.574 . S
C1911 C1930 1.368 . S
C1911 H1935 0.949 . S
H1912 C1916 0.949 . S
C1913 C1914 1.349 . S
C1913 C1915 1.327 . S
C1913 H1936 0.950 . S
C1914 C1913 1.349 . S
C1914 C1926 1.349 . S
C1915 C1913 1.327 . S
C1915 C1931 1.429 . S
C1915 H1937 0.950 . S
C1916 H1912 0.949 . S
C1916 C1924 1.574 . S
C1916 C1932 1.368 . S
H1917 C1925 0.950 . S
H1918 C1923 0.950 . S
H1919 C1924 0.949 . S
H1920 C1926 0.950 . S
H1921 C1927 0.950 . S
H1922 C1928 0.949 . S
C1923 H1918 0.950 . S
C1923 C1925 1.327 . S
C1923 C1929 1.429 . S
C1924 C1916 1.574 . S
C1924 H1919 0.949 . S
C1924 C1930 1.368 . S
C1925 C1909 1.349 . S
C1925 H1917 0.950 . S
C1925 C1923 1.327 . S
C1926 C1914 1.349 . S
C1926 H1920 0.950 . S
C1926 C1927 1.327 . S
C1927 H1921 0.950 . S
C1927 C1926 1.327 . S
C1927 C1931 1.429 . S
C1928 C1911 1.574 . S
C1928 H1922 0.949 . S
C1928 C1932 1.368 . S
C1929 C1910 1.429 . S
C1929 C1923 1.429 . S
C1929 C1930 1.523 . S
C1930 C1911 1.368 . S
C1930 C1924 1.368 . S
C1930 C1929 1.523 . S
C1931 C1915 1.429 . S
C1931 C1927 1.429 . S
C1931 C1932 1.523 . S
C1932 C1916 1.368 . S
C1932 C1928 1.368 . S
C1932 C1931 1.523 . S
H1933 C1908 0.952 1_556 S
H1934 C1910 0.950 . S
H1935 C1911 0.949 . S
H1936 C1913 0.950 . S
H1937 C1915 0.950 . S
C1938 C1939 1.349 . S
C1938 C1940 1.327 . S
C1938 H1963 0.950 . S
C1939 C1938 1.349 . S
C1939 C1955 1.349 . S
C1940 C1938 1.327 . S
C1940 C1959 1.429 . S
C1940 H1964 0.950 . S
C1941 C1958 1.574 . S
C1941 C1960 1.368 . S
C1941 H1965 0.949 . S
H1942 C1946 0.949 . S
C1943 C1944 1.349 . S
C1943 C1945 1.327 . S
C1943 H1966 0.950 . S
C1944 C1943 1.349 . S
C1944 C1956 1.349 . S
C1945 C1943 1.327 . S
C1945 C1961 1.429 . S
C1945 H1967 0.950 . S
C1946 H1942 0.949 . S
C1946 C1954 1.574 . S
C1946 C1962 1.368 . S
H1947 C1955 0.950 . S
H1948 C1953 0.950 . S
H1949 C1954 0.949 . S
H1950 C1956 0.950 . S
H1951 C1957 0.950 . S
H1952 C1958 0.949 . S
C1953 H1948 0.950 . S
C1953 C1955 1.327 . S
C1953 C1959 1.429 . S
C1954 C1946 1.574 . S
C1954 H1949 0.949 . S
C1954 C1960 1.368 . S
C1955 C1939 1.349 . S
C1955 H1947 0.950 . S
C1955 C1953 1.327 . S
C1956 C1944 1.349 . S
C1956 H1950 0.950 . S
C1956 C1957 1.327 . S
C1957 H1951 0.950 . S
C1957 C1956 1.327 . S
C1957 C1961 1.429 . S
C1958 C1941 1.574 . S
C1958 H1952 0.949 . S
C1958 C1962 1.368 . S
C1959 C1940 1.429 . S
C1959 C1953 1.429 . S
C1959 C1960 1.523 . S
C1960 C1941 1.368 . S
C1960 C1954 1.368 . S
C1960 C1959 1.523 . S
C1961 C1945 1.429 . S
C1961 C1957 1.429 . S
C1961 C1962 1.523 . S
C1962 C1946 1.368 . S
C1962 C1958 1.368 . S
C1962 C1961 1.523 . S
H1963 C1938 0.950 . S
H1964 C1940 0.950 . S
H1965 C1941 0.949 . S
H1966 C1943 0.950 . S
H1967 C1945 0.950 . S
C1968 C1969 1.349 . S
C1968 C1970 1.327 . S
C1968 H1993 0.950 . S
C1969 C1968 1.349 . S
C1969 C1985 1.349 . S
C1970 C1968 1.327 . S
C1970 C1989 1.429 . S
C1970 H1994 0.950 . S
C1971 C1988 1.574 . S
C1971 C1990 1.368 . S
C1971 H1995 0.949 . S
H1972 C1976 0.949 . S
C1973 C1974 1.349 . S
C1973 C1975 1.327 . S
C1973 H1996 0.950 . S
C1974 C1973 1.349 . S
C1974 C1986 1.349 . S
C1975 C1973 1.327 . S
C1975 C1991 1.429 . S
C1975 H1997 0.950 . S
C1976 H1972 0.949 . S
C1976 C1984 1.574 . S
C1976 C1992 1.368 . S
H1977 C1985 0.950 . S
H1978 C1983 0.950 . S
H1979 C1984 0.949 . S
H1980 C1986 0.950 . S
H1981 C1987 0.950 . S
H1982 C1988 0.949 . S
C1983 H1978 0.950 . S
C1983 C1985 1.327 . S
C1983 C1989 1.429 . S
C1984 C1976 1.574 . S
C1984 H1979 0.949 . S
C1984 C1990 1.368 . S
C1985 C1969 1.349 . S
C1985 H1977 0.950 . S
C1985 C1983 1.327 . S
C1986 C1974 1.349 . S
C1986 H1980 0.950 . S
C1986 C1987 1.327 . S
C1987 H1981 0.950 . S
C1987 C1986 1.327 . S
C1987 C1991 1.429 . S
C1988 C1971 1.574 . S
C1988 H1982 0.949 . S
C1988 C1992 1.368 . S
C1989 C1970 1.429 . S
C1989 C1983 1.429 . S
C1989 C1990 1.523 . S
C1990 C1971 1.368 . S
C1990 C1984 1.368 . S
C1990 C1989 1.523 . S
C1991 C1975 1.429 . S
C1991 C1987 1.429 . S
C1991 C1992 1.523 . S
C1992 C1976 1.368 . S
C1992 C1988 1.368 . S
C1992 C1991 1.523 . S
H1993 C1968 0.950 . S
H1994 C1970 0.950 . S
H1995 C1971 0.949 . S
H1996 C1973 0.950 . S
H1997 C1975 0.950 . S
C1998 C1999 1.349 . S
C1998 C2000 1.327 . S
C1998 H2023 0.950 . S
C1999 C1998 1.349 . S
C1999 C2015 1.349 . S
C2000 C1998 1.327 . S
C2000 C2019 1.429 . S
C2000 H2024 0.950 . S
C2001 C2018 1.574 . S
C2001 C2020 1.368 . S
C2001 H2025 0.949 . S
H2002 C2006 0.949 . S
C2003 C2004 1.349 . S
C2003 C2005 1.327 . S
C2003 H2026 0.950 . S
C2004 C2003 1.349 . S
C2004 C2016 1.349 . S
C2005 C2003 1.327 . S
C2005 C2021 1.429 . S
C2005 H2027 0.950 . S
C2006 H2002 0.949 . S
C2006 C2014 1.574 . S
C2006 C2022 1.368 . S
H2007 C2015 0.950 . S
H2008 C2013 0.950 . S
H2009 C2014 0.949 . S
H2010 C2016 0.950 . S
H2011 C2017 0.950 . S
H2012 C2018 0.949 . S
C2013 H2008 0.950 . S
C2013 C2015 1.327 . S
C2013 C2019 1.429 . S
C2014 C2006 1.574 . S
C2014 H2009 0.949 . S
C2014 C2020 1.368 . S
C2015 C1999 1.349 . S
C2015 H2007 0.950 . S
C2015 C2013 1.327 . S
C2016 C2004 1.349 . S
C2016 H2010 0.950 . S
C2016 C2017 1.327 . S
C2017 H2011 0.950 . S
C2017 C2016 1.327 . S
C2017 C2021 1.429 . S
C2018 C2001 1.574 . S
C2018 H2012 0.949 . S
C2018 C2022 1.368 . S
C2019 C2000 1.429 . S
C2019 C2013 1.429 . S
C2019 C2020 1.523 . S
C2020 C2001 1.368 . S
C2020 C2014 1.368 . S
C2020 C2019 1.523 . S
C2021 C2005 1.429 . S
C2021 C2017 1.429 . S
C2021 C2022 1.523 . S
C2022 C2006 1.368 . S
C2022 C2018 1.368 . S
C2022 C2021 1.523 . S
H2023 C1998 0.950 . S
H2024 C2000 0.950 . S
H2025 C2001 0.949 . S
H2026 C2003 0.950 . S
H2027 C2005 0.950 . S
C2028 C2029 1.349 . S
C2028 C2030 1.327 . S
C2028 H2053 0.950 . S
C2029 C2028 1.349 . S
C2029 C2045 1.349 . S
C2030 C2028 1.327 . S
C2030 C2049 1.429 . S
C2030 H2054 0.950 . S
C2031 C2048 1.574 . S
C2031 C2050 1.368 . S
C2031 H2055 0.949 . S
H2032 C2036 0.949 . S
C2033 C2034 1.349 . S
C2033 C2035 1.327 . S
C2033 H2056 0.950 . S
C2034 C2033 1.349 . S
C2034 C2046 1.349 . S
C2035 C2033 1.327 . S
C2035 C2051 1.429 . S
C2035 H2057 0.950 . S
C2036 H2032 0.949 . S
C2036 C2044 1.574 . S
C2036 C2052 1.368 . S
H2037 C2045 0.950 . S
H2038 C2043 0.950 . S
H2039 C2044 0.949 . S
H2040 C2046 0.950 . S
H2041 C2047 0.950 . S
H2042 C2048 0.949 . S
C2043 H2038 0.950 . S
C2043 C2045 1.327 . S
C2043 C2049 1.429 . S
C2044 C2036 1.574 . S
C2044 H2039 0.949 . S
C2044 C2050 1.368 . S
C2045 C2029 1.349 . S
C2045 H2037 0.950 . S
C2045 C2043 1.327 . S
C2046 C2034 1.349 . S
C2046 H2040 0.950 . S
C2046 C2047 1.327 . S
C2047 H2041 0.950 . S
C2047 C2046 1.327 . S
C2047 C2051 1.429 . S
C2048 C2031 1.574 . S
C2048 H2042 0.949 . S
C2048 C2052 1.368 . S
C2049 C2030 1.429 . S
C2049 C2043 1.429 . S
C2049 C2050 1.523 . S
C2050 C2031 1.368 . S
C2050 C2044 1.368 . S
C2050 C2049 1.523 . S
C2051 C2035 1.429 . S
C2051 C2047 1.429 . S
C2051 C2052 1.523 . S
C2052 C2036 1.368 . S
C2052 C2048 1.368 . S
C2052 C2051 1.523 . S
H2053 C2028 0.950 . S
H2054 C2030 0.950 . S
H2055 C2031 0.949 . S
H2056 C2033 0.950 . S
H2057 C2035 0.950 . S
C2058 C2059 1.349 . S
C2058 C2060 1.327 . S
C2058 H2083 0.950 . S
C2059 C2058 1.349 . S
C2059 C2075 1.349 . S
C2060 C2058 1.327 . S
C2060 C2079 1.429 . S
C2060 H2084 0.950 . S
C2061 C2078 1.574 . S
C2061 C2080 1.368 . S
C2061 H2085 0.949 . S
H2062 C2066 0.949 . S
C2063 C2064 1.349 . S
C2063 C2065 1.327 . S
C2063 H2086 0.950 . S
C2064 C2063 1.349 . S
C2064 C2076 1.349 . S
C2065 C2063 1.327 . S
C2065 C2081 1.429 . S
C2065 H2087 0.950 . S
C2066 H2062 0.949 . S
C2066 C2074 1.574 . S
C2066 C2082 1.368 . S
H2067 C2075 0.950 . S
H2068 C2073 0.950 . S
H2069 C2074 0.949 . S
H2070 C2076 0.950 . S
H2071 C2077 0.950 . S
H2072 C2078 0.949 . S
C2073 H2068 0.950 . S
C2073 C2075 1.327 . S
C2073 C2079 1.429 . S
C2074 C2066 1.574 . S
C2074 H2069 0.949 . S
C2074 C2080 1.368 . S
C2075 C2059 1.349 . S
C2075 H2067 0.950 . S
C2075 C2073 1.327 . S
C2076 C2064 1.349 . S
C2076 H2070 0.950 . S
C2076 C2077 1.327 . S
C2077 H2071 0.950 . S
C2077 C2076 1.327 . S
C2077 C2081 1.429 . S
C2078 C2061 1.574 . S
C2078 H2072 0.949 . S
C2078 C2082 1.368 . S
C2079 C2060 1.429 . S
C2079 C2073 1.429 . S
C2079 C2080 1.523 . S
C2080 C2061 1.368 . S
C2080 C2074 1.368 . S
C2080 C2079 1.523 . S
C2081 C2065 1.429 . S
C2081 C2077 1.429 . S
C2081 C2082 1.523 . S
C2082 C2066 1.368 . S
C2082 C2078 1.368 . S
C2082 C2081 1.523 . S
H2083 C2058 0.950 . S
H2084 C2060 0.950 . S
H2085 C2061 0.949 . S
H2086 C2063 0.950 . S
H2087 C2065 0.950 . S
C2088 C2089 1.349 . S
C2088 C2090 1.327 . S
C2088 H2113 0.950 1_455 S
C2089 C2088 1.349 . S
C2089 C2105 1.349 . S
C2090 C2088 1.327 . S
C2090 C2109 1.429 . S
C2090 H2114 0.950 1_455 S
C2091 C2108 1.574 . S
C2091 C2110 1.368 . S
C2091 H2115 0.949 . S
H2092 C2096 0.949 . S
C2093 C2094 1.349 . S
C2093 C2095 1.327 . S
C2093 H2116 0.950 . S
C2094 C2093 1.349 . S
C2094 C2106 1.349 1_455 S
C2095 C2093 1.327 . S
C2095 C2111 1.429 . S
C2095 H2117 0.950 . S
C2096 H2092 0.949 . S
C2096 C2104 1.594 . S
C2096 C2112 1.368 1_655 S
H2097 C2105 0.950 . S
H2098 C2103 0.950 . S
H2099 C2104 0.959 . S
H2100 C2106 0.950 . S
H2101 C2107 0.950 . S
H2102 C2108 0.949 . S
C2103 H2098 0.950 . S
C2103 C2105 1.327 . S
C2103 C2109 1.429 . S
C2104 C2096 1.594 . S
C2104 H2099 0.959 . S
C2104 C2110 1.338 1_655 S
C2105 C2089 1.349 . S
C2105 H2097 0.950 . S
C2105 C2103 1.327 . S
C2106 C2094 1.349 1_655 S
C2106 H2100 0.950 . S
C2106 C2107 1.327 . S
C2107 H2101 0.950 . S
C2107 C2106 1.327 . S
C2107 C2111 1.429 1_655 S
C2108 C2091 1.574 . S
C2108 H2102 0.949 . S
C2108 C2112 1.368 . S
C2109 C2090 1.429 . S
C2109 C2103 1.429 . S
C2109 C2110 1.523 . S
C2110 C2091 1.368 . S
C2110 C2104 1.338 1_455 S
C2110 C2109 1.523 . S
C2111 C2095 1.429 . S
C2111 C2107 1.429 1_455 S
C2111 C2112 1.523 . S
C2112 C2096 1.368 1_455 S
C2112 C2108 1.368 . S
C2112 C2111 1.523 . S
H2113 C2088 0.950 1_655 S
H2114 C2090 0.950 1_655 S
H2115 C2091 0.949 . S
H2116 C2093 0.950 . S
H2117 C2095 0.950 . S
C2118 C2119 1.349 . S
C2118 C2120 1.327 . S
C2118 H2143 0.950 . S
C2119 C2118 1.349 . S
C2119 C2135 1.349 . S
C2120 C2118 1.327 . S
C2120 C2139 1.429 . S
C2120 H2144 0.950 . S
C2121 C2138 1.574 . S
C2121 C2140 1.368 . S
C2121 H2145 0.949 . S
H2122 C2126 0.949 . S
C2123 C2124 1.349 . S
C2123 C2125 1.327 . S
C2123 H2146 0.950 . S
C2124 C2123 1.349 . S
C2124 C2136 1.349 . S
C2125 C2123 1.327 . S
C2125 C2141 1.429 . S
C2125 H2147 0.950 . S
C2126 H2122 0.949 . S
C2126 C2134 1.574 . S
C2126 C2142 1.368 . S
H2127 C2135 0.950 . S
H2128 C2133 0.950 . S
H2129 C2134 0.949 . S
H2130 C2136 0.950 . S
H2131 C2137 0.950 . S
H2132 C2138 0.949 . S
C2133 H2128 0.950 . S
C2133 C2135 1.327 . S
C2133 C2139 1.429 . S
C2134 C2126 1.574 . S
C2134 H2129 0.949 . S
C2134 C2140 1.368 . S
C2135 C2119 1.349 . S
C2135 H2127 0.950 . S
C2135 C2133 1.327 . S
C2136 C2124 1.349 . S
C2136 H2130 0.950 . S
C2136 C2137 1.327 . S
C2137 H2131 0.950 . S
C2137 C2136 1.327 . S
C2137 C2141 1.429 . S
C2138 C2121 1.574 . S
C2138 H2132 0.949 . S
C2138 C2142 1.368 . S
C2139 C2120 1.429 . S
C2139 C2133 1.429 . S
C2139 C2140 1.523 . S
C2140 C2121 1.368 . S
C2140 C2134 1.368 . S
C2140 C2139 1.523 . S
C2141 C2125 1.429 . S
C2141 C2137 1.429 . S
C2141 C2142 1.523 . S
C2142 C2126 1.368 . S
C2142 C2138 1.368 . S
C2142 C2141 1.523 . S
H2143 C2118 0.950 . S
H2144 C2120 0.950 . S
H2145 C2121 0.949 . S
H2146 C2123 0.950 . S
H2147 C2125 0.950 . S
C2148 C2149 1.349 . S
C2148 C2150 1.327 . S
C2148 H2173 0.950 . S
C2149 C2148 1.349 . S
C2149 C2165 1.349 . S
C2150 C2148 1.327 . S
C2150 C2169 1.429 . S
C2150 H2174 0.950 . S
C2151 C2168 1.574 . S
C2151 C2170 1.368 1_545 S
C2151 H2175 0.949 . S
H2152 C2156 0.949 . S
C2153 C2154 1.349 1_545 S
C2153 C2155 1.327 . S
C2153 H2176 0.950 . S
C2154 C2153 1.349 1_565 S
C2154 C2166 1.349 . S
C2155 C2153 1.327 . S
C2155 C2171 1.429 1_545 S
C2155 H2177 0.950 . S
C2156 H2152 0.949 . S
C2156 C2164 1.574 . S
C2156 C2172 1.368 . S
H2157 C2165 0.950 1_545 S
H2158 C2163 0.955 . S
H2159 C2164 0.949 . S
H2160 C2166 0.950 . S
H2161 C2167 0.950 . S
H2162 C2168 0.949 . S
C2163 H2158 0.955 . S
C2163 C2165 1.331 1_545 S
C2163 C2169 1.419 1_545 S
C2164 C2156 1.574 . S
C2164 H2159 0.949 . S
C2164 C2170 1.368 . S
C2165 C2149 1.349 . S
C2165 H2157 0.950 1_565 S
C2165 C2163 1.331 1_565 S
C2166 C2154 1.349 . S
C2166 H2160 0.950 . S
C2166 C2167 1.327 . S
C2167 H2161 0.950 . S
C2167 C2166 1.327 . S
C2167 C2171 1.429 . S
C2168 C2151 1.574 . S
C2168 H2162 0.949 . S
C2168 C2172 1.368 1_545 S
C2169 C2150 1.429 . S
C2169 C2163 1.419 1_565 S
C2169 C2170 1.523 . S
C2170 C2151 1.368 1_565 S
C2170 C2164 1.368 . S
C2170 C2169 1.523 . S
C2171 C2155 1.429 1_565 S
C2171 C2167 1.429 . S
C2171 C2172 1.523 . S
C2172 C2156 1.368 . S
C2172 C2168 1.368 1_565 S
C2172 C2171 1.523 . S
H2173 C2148 0.950 . S
H2174 C2150 0.950 . S
H2175 C2151 0.949 . S
H2176 C2153 0.950 . S
H2177 C2155 0.950 . S
C2178 C2179 1.344 . S
C2178 C2180 1.331 1_565 S
C2178 H2203 0.951 1_565 S
C2179 C2178 1.344 . S
C2179 C2195 1.349 . S
C2180 C2178 1.331 1_545 S
C2180 C2199 1.429 1_545 S
C2180 H2204 0.950 . S
C2181 C2198 1.574 . S
C2181 C2200 1.368 . S
C2181 H2205 0.949 . S
H2182 C2186 0.949 . S
C2183 C2184 1.407 . S
C2183 C2185 1.327 . S
C2183 H2206 0.950 . S
C2184 C2183 1.407 . S
C2184 C2196 1.332 1_565 S
C2185 C2183 1.327 . S
C2185 C2201 1.429 . S
C2185 H2207 0.950 . S
C2186 H2182 0.949 . S
C2186 C2194 1.574 . S
C2186 C2202 1.368 1_545 S
H2187 C2195 0.950 . S
H2188 C2193 0.950 . S
H2189 C2194 0.949 . S
H2190 C2196 0.950 . S
H2191 C2197 0.950 . S
H2192 C2198 0.949 . S
C2193 H2188 0.950 . S
C2193 C2195 1.327 . S
C2193 C2199 1.429 . S
C2194 C2186 1.574 . S
C2194 H2189 0.949 . S
C2194 C2200 1.368 1_545 S
C2195 C2179 1.349 . S
C2195 H2187 0.950 . S
C2195 C2193 1.327 . S
C2196 C2184 1.332 1_545 S
C2196 H2190 0.950 . S
C2196 C2197 1.327 . S
C2197 H2191 0.950 . S
C2197 C2196 1.327 . S
C2197 C2201 1.429 1_545 S
C2198 C2181 1.574 . S
C2198 H2192 0.949 . S
C2198 C2202 1.368 . S
C2199 C2180 1.429 1_565 S
C2199 C2193 1.429 . S
C2199 C2200 1.523 . S
C2200 C2181 1.368 . S
C2200 C2194 1.368 1_565 S
C2200 C2199 1.523 . S
C2201 C2185 1.429 . S
C2201 C2197 1.429 1_565 S
C2201 C2202 1.523 . S
C2202 C2186 1.368 1_565 S
C2202 C2198 1.368 . S
C2202 C2201 1.523 . S
H2203 C2178 0.951 1_545 S
H2204 C2180 0.950 . S
H2205 C2181 0.949 . S
H2206 C2183 0.950 . S
H2207 C2185 0.950 . S
C2208 C2209 1.349 . S
C2208 C2210 1.327 . S
C2208 H2233 0.950 . S
C2209 C2208 1.349 . S
C2209 C2225 1.349 . S
C2210 C2208 1.327 . S
C2210 C2229 1.429 . S
C2210 H2234 0.950 . S
C2211 C2228 1.574 . S
C2211 C2230 1.368 1_655 S
C2211 H2235 0.949 . S
H2212 C2216 0.949 . S
C2213 C2214 1.363 . S
C2213 C2215 1.327 . S
C2213 H2236 0.950 . S
C2214 C2213 1.363 . S
C2214 C2226 1.344 1_655 S
C2215 C2213 1.327 . S
C2215 C2231 1.429 1_655 S
C2215 H2237 0.950 . S
C2216 H2212 0.949 . S
C2216 C2224 1.574 . S
C2216 C2232 1.368 . S
H2217 C2225 0.950 1_655 S
H2218 C2223 0.945 1_655 S
H2219 C2224 0.949 . S
H2220 C2226 0.950 . S
H2221 C2227 0.950 . S
H2222 C2228 0.949 . S
C2223 H2218 0.945 1_455 S
C2223 C2225 1.319 . S
C2223 C2229 1.442 . S
C2224 C2216 1.574 . S
C2224 H2219 0.949 . S
C2224 C2230 1.368 . S
C2225 C2209 1.349 . S
C2225 H2217 0.950 1_455 S
C2225 C2223 1.319 . S
C2226 C2214 1.344 1_455 S
C2226 H2220 0.950 . S
C2226 C2227 1.327 . S
C2227 H2221 0.950 . S
C2227 C2226 1.327 . S
C2227 C2231 1.429 . S
C2228 C2211 1.574 . S
C2228 H2222 0.949 . S
C2228 C2232 1.368 1_655 S
C2229 C2210 1.429 . S
C2229 C2223 1.442 . S
C2229 C2230 1.523 . S
C2230 C2211 1.368 1_455 S
C2230 C2224 1.368 . S
C2230 C2229 1.523 . S
C2231 C2215 1.429 1_455 S
C2231 C2227 1.429 . S
C2231 C2232 1.523 . S
C2232 C2216 1.368 . S
C2232 C2228 1.368 1_455 S
C2232 C2231 1.523 . S
H2233 C2208 0.950 . S
H2234 C2210 0.950 . S
H2235 C2211 0.949 . S
H2236 C2213 0.950 . S
H2237 C2215 0.950 . S
C2238 C2239 1.349 . S
C2238 C2240 1.327 . S
C2238 H2263 0.950 . S
C2239 C2238 1.349 . S
C2239 C2255 1.349 . S
C2240 C2238 1.327 . S
C2240 C2259 1.429 . S
C2240 H2264 0.950 . S
C2241 C2258 1.574 . S
C2241 C2260 1.368 . S
C2241 H2265 0.949 . S
H2242 C2246 0.949 . S
C2243 C2244 1.349 . S
C2243 C2245 1.327 . S
C2243 H2266 0.950 . S
C2244 C2243 1.349 . S
C2244 C2256 1.349 . S
C2245 C2243 1.327 . S
C2245 C2261 1.429 . S
C2245 H2267 0.950 . S
C2246 H2242 0.949 . S
C2246 C2254 1.574 . S
C2246 C2262 1.368 . S
H2247 C2255 0.950 . S
H2248 C2253 0.950 . S
H2249 C2254 0.949 . S
H2250 C2256 0.950 . S
H2251 C2257 0.950 . S
H2252 C2258 0.949 . S
C2253 H2248 0.950 . S
C2253 C2255 1.327 . S
C2253 C2259 1.429 . S
C2254 C2246 1.574 . S
C2254 H2249 0.949 . S
C2254 C2260 1.368 . S
C2255 C2239 1.349 . S
C2255 H2247 0.950 . S
C2255 C2253 1.327 . S
C2256 C2244 1.349 . S
C2256 H2250 0.950 . S
C2256 C2257 1.327 . S
C2257 H2251 0.950 . S
C2257 C2256 1.327 . S
C2257 C2261 1.429 . S
C2258 C2241 1.574 . S
C2258 H2252 0.949 . S
C2258 C2262 1.368 . S
C2259 C2240 1.429 . S
C2259 C2253 1.429 . S
C2259 C2260 1.523 . S
C2260 C2241 1.368 . S
C2260 C2254 1.368 . S
C2260 C2259 1.523 . S
C2261 C2245 1.429 . S
C2261 C2257 1.429 . S
C2261 C2262 1.523 . S
C2262 C2246 1.368 . S
C2262 C2258 1.368 . S
C2262 C2261 1.523 . S
H2263 C2238 0.950 . S
H2264 C2240 0.950 . S
H2265 C2241 0.949 . S
H2266 C2243 0.950 . S
H2267 C2245 0.950 . S
C2268 C2269 1.349 . S
C2268 C2270 1.327 . S
C2268 H2293 0.950 . S
C2269 C2268 1.349 . S
C2269 C2285 1.349 . S
C2270 C2268 1.327 . S
C2270 C2289 1.429 . S
C2270 H2294 0.950 . S
C2271 C2288 1.574 . S
C2271 C2290 1.368 . S
C2271 H2295 0.949 . S
H2272 C2276 0.949 . S
C2273 C2274 1.349 . S
C2273 C2275 1.327 . S
C2273 H2296 0.950 . S
C2274 C2273 1.349 . S
C2274 C2286 1.349 . S
C2275 C2273 1.327 . S
C2275 C2291 1.429 . S
C2275 H2297 0.950 . S
C2276 H2272 0.949 . S
C2276 C2284 1.574 . S
C2276 C2292 1.368 . S
H2277 C2285 0.950 . S
H2278 C2283 0.950 . S
H2279 C2284 0.949 . S
H2280 C2286 0.950 . S
H2281 C2287 0.950 . S
H2282 C2288 0.949 . S
C2283 H2278 0.950 . S
C2283 C2285 1.327 . S
C2283 C2289 1.429 . S
C2284 C2276 1.574 . S
C2284 H2279 0.949 . S
C2284 C2290 1.368 . S
C2285 C2269 1.349 . S
C2285 H2277 0.950 . S
C2285 C2283 1.327 . S
C2286 C2274 1.349 . S
C2286 H2280 0.950 . S
C2286 C2287 1.327 . S
C2287 H2281 0.950 . S
C2287 C2286 1.327 . S
C2287 C2291 1.429 . S
C2288 C2271 1.574 . S
C2288 H2282 0.949 . S
C2288 C2292 1.368 . S
C2289 C2270 1.429 . S
C2289 C2283 1.429 . S
C2289 C2290 1.523 . S
C2290 C2271 1.368 . S
C2290 C2284 1.368 . S
C2290 C2289 1.523 . S
C2291 C2275 1.429 . S
C2291 C2287 1.429 . S
C2291 C2292 1.523 . S
C2292 C2276 1.368 . S
C2292 C2288 1.368 . S
C2292 C2291 1.523 . S
H2293 C2268 0.950 . S
H2294 C2270 0.950 . S
H2295 C2271 0.949 . S
H2296 C2273 0.950 . S
H2297 C2275 0.950 . S
C2298 C2299 1.349 . S
C2298 C2300 1.327 . S
C2298 H2323 0.950 . S
C2299 C2298 1.349 . S
C2299 C2315 1.349 . S
C2300 C2298 1.327 . S
C2300 C2319 1.429 . S
C2300 H2324 0.950 . S
C2301 C2318 1.574 . S
C2301 C2320 1.368 . S
C2301 H2325 0.949 . S
H2302 C2306 0.949 . S
C2303 C2304 1.349 . S
C2303 C2305 1.327 . S
C2303 H2326 0.950 . S
C2304 C2303 1.349 . S
C2304 C2316 1.349 . S
C2305 C2303 1.327 . S
C2305 C2321 1.429 . S
C2305 H2327 0.950 . S
C2306 H2302 0.949 . S
C2306 C2314 1.574 . S
C2306 C2322 1.368 . S
H2307 C2315 0.950 . S
H2308 C2313 0.950 . S
H2309 C2314 0.949 . S
H2310 C2316 0.950 . S
H2311 C2317 0.950 . S
H2312 C2318 0.949 . S
C2313 H2308 0.950 . S
C2313 C2315 1.327 . S
C2313 C2319 1.429 . S
C2314 C2306 1.574 . S
C2314 H2309 0.949 . S
C2314 C2320 1.368 . S
C2315 C2299 1.349 . S
C2315 H2307 0.950 . S
C2315 C2313 1.327 . S
C2316 C2304 1.349 . S
C2316 H2310 0.950 . S
C2316 C2317 1.327 . S
C2317 H2311 0.950 . S
C2317 C2316 1.327 . S
C2317 C2321 1.429 . S
C2318 C2301 1.574 . S
C2318 H2312 0.949 . S
C2318 C2322 1.368 . S
C2319 C2300 1.429 . S
C2319 C2313 1.429 . S
C2319 C2320 1.523 . S
C2320 C2301 1.368 . S
C2320 C2314 1.368 . S
C2320 C2319 1.523 . S
C2321 C2305 1.429 . S
C2321 C2317 1.429 . S
C2321 C2322 1.523 . S
C2322 C2306 1.368 . S
C2322 C2318 1.368 . S
C2322 C2321 1.523 . S
H2323 C2298 0.950 . S
H2324 C2300 0.950 . S
H2325 C2301 0.949 . S
H2326 C2303 0.950 . S
H2327 C2305 0.950 . S
C2328 C2329 1.349 . S
C2328 C2330 1.327 . S
C2328 H2353 0.950 . S
C2329 C2328 1.349 . S
C2329 C2345 1.349 . S
C2330 C2328 1.327 . S
C2330 C2349 1.429 . S
C2330 H2354 0.950 . S
C2331 C2348 1.574 . S
C2331 C2350 1.368 . S
C2331 H2355 0.949 . S
H2332 C2336 0.949 . S
C2333 C2334 1.349 . S
C2333 C2335 1.327 . S
C2333 H2356 0.950 . S
C2334 C2333 1.349 . S
C2334 C2346 1.349 . S
C2335 C2333 1.327 . S
C2335 C2351 1.429 . S
C2335 H2357 0.950 . S
C2336 H2332 0.949 . S
C2336 C2344 1.574 . S
C2336 C2352 1.368 . S
H2337 C2345 0.950 . S
H2338 C2343 0.950 . S
H2339 C2344 0.949 . S
H2340 C2346 0.950 . S
H2341 C2347 0.950 . S
H2342 C2348 0.949 . S
C2343 H2338 0.950 . S
C2343 C2345 1.327 . S
C2343 C2349 1.429 . S
C2344 C2336 1.574 . S
C2344 H2339 0.949 . S
C2344 C2350 1.368 . S
C2345 C2329 1.349 . S
C2345 H2337 0.950 . S
C2345 C2343 1.327 . S
C2346 C2334 1.349 . S
C2346 H2340 0.950 . S
C2346 C2347 1.327 . S
C2347 H2341 0.950 . S
C2347 C2346 1.327 . S
C2347 C2351 1.429 . S
C2348 C2331 1.574 . S
C2348 H2342 0.949 . S
C2348 C2352 1.368 . S
C2349 C2330 1.429 . S
C2349 C2343 1.429 . S
C2349 C2350 1.523 . S
C2350 C2331 1.368 . S
C2350 C2344 1.368 . S
C2350 C2349 1.523 . S
C2351 C2335 1.429 . S
C2351 C2347 1.429 . S
C2351 C2352 1.523 . S
C2352 C2336 1.368 . S
C2352 C2348 1.368 . S
C2352 C2351 1.523 . S
H2353 C2328 0.950 . S
H2354 C2330 0.950 . S
H2355 C2331 0.949 . S
H2356 C2333 0.950 . S
H2357 C2335 0.950 . S
C2358 C2359 1.349 . S
C2358 C2360 1.327 . S
C2358 H2383 0.950 . S
C2359 C2358 1.349 . S
C2359 C2375 1.349 . S
C2360 C2358 1.327 . S
C2360 C2379 1.429 . S
C2360 H2384 0.950 . S
C2361 C2378 1.600 . S
C2361 C2380 1.368 . S
C2361 H2385 0.949 1_545 S
H2362 C2366 0.949 . S
C2363 C2364 1.349 1_565 S
C2363 C2365 1.327 . S
C2363 H2386 0.950 . S
C2364 C2363 1.349 1_545 S
C2364 C2376 1.349 . S
C2365 C2363 1.327 . S
C2365 C2381 1.429 1_565 S
C2365 H2387 0.950 . S
C2366 H2362 0.949 . S
C2366 C2374 1.574 . S
C2366 C2382 1.368 . S
H2367 C2375 0.950 . S
H2368 C2373 0.873 1_565 S
H2369 C2374 0.949 . S
H2370 C2376 0.950 . S
H2371 C2377 0.950 . S
H2372 C2378 0.909 1_565 S
C2373 H2368 0.873 1_545 S
C2373 C2375 1.327 . S
C2373 C2379 1.429 . S
C2374 C2366 1.574 . S
C2374 H2369 0.949 . S
C2374 C2380 1.368 . S
C2375 C2359 1.349 . S
C2375 H2367 0.950 . S
C2375 C2373 1.327 . S
C2376 C2364 1.349 . S
C2376 H2370 0.950 . S
C2376 C2377 1.327 . S
C2377 H2371 0.950 . S
C2377 C2376 1.327 . S
C2377 C2381 1.429 . S
C2378 C2361 1.600 . S
C2378 H2372 0.909 1_545 S
C2378 C2382 1.387 . S
C2379 C2360 1.429 . S
C2379 C2373 1.429 . S
C2379 C2380 1.523 . S
C2380 C2361 1.368 . S
C2380 C2374 1.368 . S
C2380 C2379 1.523 . S
C2381 C2365 1.429 1_545 S
C2381 C2377 1.429 . S
C2381 C2382 1.523 . S
C2382 C2366 1.368 . S
C2382 C2378 1.387 . S
C2382 C2381 1.523 . S
H2383 C2358 0.950 . S
H2384 C2360 0.950 . S
H2385 C2361 0.949 1_565 S
H2386 C2363 0.950 . S
H2387 C2365 0.950 . S
C2388 C2389 1.349 . S
C2388 C2390 1.327 . S
C2388 H2413 0.950 . S
C2389 C2388 1.349 . S
C2389 C2405 1.349 . S
C2390 C2388 1.327 . S
C2390 C2409 1.429 . S
C2390 H2414 0.960 . S
C2391 C2408 1.574 . S
C2391 C2410 1.368 . S
C2391 H2415 0.949 . S
H2392 C2396 0.949 1_455 S
C2393 C2394 1.349 . S
C2393 C2395 1.327 . S
C2393 H2416 0.950 . S
C2394 C2393 1.349 . S
C2394 C2406 1.349 1_655 S
C2395 C2393 1.327 . S
C2395 C2411 1.429 . S
C2395 H2417 0.950 . S
C2396 H2392 0.949 1_655 S
C2396 C2404 1.574 . S
C2396 C2412 1.368 . S
H2397 C2405 0.950 . S
H2398 C2403 0.950 . S
H2399 C2404 0.891 1_455 S
H2400 C2406 0.950 . S
H2401 C2407 0.975 . S
H2402 C2408 0.949 . S
C2403 H2398 0.950 . S
C2403 C2405 1.327 . S
C2403 C2409 1.429 . S
C2404 C2396 1.574 . S
C2404 H2399 0.891 1_655 S
C2404 C2410 1.368 . S
C2405 C2389 1.349 . S
C2405 H2397 0.950 . S
C2405 C2403 1.327 . S
C2406 C2394 1.349 1_455 S
C2406 H2400 0.950 . S
C2406 C2407 1.311 . S
C2407 H2401 0.975 . S
C2407 C2406 1.311 . S
C2407 C2411 1.421 1_455 S
C2408 C2391 1.574 . S
C2408 H2402 0.949 . S
C2408 C2412 1.368 . S
C2409 C2390 1.429 . S
C2409 C2403 1.429 . S
C2409 C2410 1.523 . S
C2410 C2391 1.368 . S
C2410 C2404 1.368 . S
C2410 C2409 1.523 . S
C2411 C2395 1.429 . S
C2411 C2407 1.421 1_655 S
C2411 C2412 1.523 . S
C2412 C2396 1.368 . S
C2412 C2408 1.368 . S
C2412 C2411 1.523 . S
H2413 C2388 0.950 . S
H2414 C2390 0.960 . S
H2415 C2391 0.949 . S
H2416 C2393 0.950 . S
H2417 C2395 0.950 . S
C2418 C2419 1.349 . S
C2418 C2420 1.327 . S
C2418 H2443 0.950 . S
C2419 C2418 1.349 . S
C2419 C2435 1.349 . S
C2420 C2418 1.327 . S
C2420 C2439 1.429 . S
C2420 H2444 0.950 . S
C2421 C2438 1.574 . S
C2421 C2440 1.368 . S
C2421 H2445 0.949 . S
H2422 C2426 0.949 . S
C2423 C2424 1.349 . S
C2423 C2425 1.327 . S
C2423 H2446 0.950 . S
C2424 C2423 1.349 . S
C2424 C2436 1.349 . S
C2425 C2423 1.327 . S
C2425 C2441 1.429 . S
C2425 H2447 0.950 . S
C2426 H2422 0.949 . S
C2426 C2434 1.574 . S
C2426 C2442 1.368 . S
H2427 C2435 0.950 . S
H2428 C2433 0.950 . S
H2429 C2434 0.949 . S
H2430 C2436 0.950 . S
H2431 C2437 0.950 . S
H2432 C2438 0.949 . S
C2433 H2428 0.950 . S
C2433 C2435 1.327 . S
C2433 C2439 1.429 . S
C2434 C2426 1.574 . S
C2434 H2429 0.949 . S
C2434 C2440 1.368 . S
C2435 C2419 1.349 . S
C2435 H2427 0.950 . S
C2435 C2433 1.327 . S
C2436 C2424 1.349 . S
C2436 H2430 0.950 . S
C2436 C2437 1.327 . S
C2437 H2431 0.950 . S
C2437 C2436 1.327 . S
C2437 C2441 1.429 . S
C2438 C2421 1.574 . S
C2438 H2432 0.949 . S
C2438 C2442 1.368 . S
C2439 C2420 1.429 . S
C2439 C2433 1.429 . S
C2439 C2440 1.523 . S
C2440 C2421 1.368 . S
C2440 C2434 1.368 . S
C2440 C2439 1.523 . S
C2441 C2425 1.429 . S
C2441 C2437 1.429 . S
C2441 C2442 1.523 . S
C2442 C2426 1.368 . S
C2442 C2438 1.368 . S
C2442 C2441 1.523 . S
H2443 C2418 0.950 . S
H2444 C2420 0.950 . S
H2445 C2421 0.949 . S
H2446 C2423 0.950 . S
H2447 C2425 0.950 . S
C2448 C2449 1.349 . S
C2448 C2450 1.327 . S
C2448 H2473 0.950 . S
C2449 C2448 1.349 . S
C2449 C2465 1.349 . S
C2450 C2448 1.327 . S
C2450 C2469 1.429 . S
C2450 H2474 0.950 . S
C2451 C2468 1.574 . S
C2451 C2470 1.368 . S
C2451 H2475 0.949 . S
H2452 C2456 0.949 . S
C2453 C2454 1.349 . S
C2453 C2455 1.327 . S
C2453 H2476 0.950 . S
C2454 C2453 1.349 . S
C2454 C2466 1.349 . S
C2455 C2453 1.327 . S
C2455 C2471 1.429 . S
C2455 H2477 0.950 . S
C2456 H2452 0.949 . S
C2456 C2464 1.574 . S
C2456 C2472 1.368 . S
H2457 C2465 0.950 . S
H2458 C2463 0.950 . S
H2459 C2464 0.949 . S
H2460 C2466 0.950 . S
H2461 C2467 0.950 . S
H2462 C2468 0.949 . S
C2463 H2458 0.950 . S
C2463 C2465 1.327 . S
C2463 C2469 1.429 . S
C2464 C2456 1.574 . S
C2464 H2459 0.949 . S
C2464 C2470 1.368 . S
C2465 C2449 1.349 . S
C2465 H2457 0.950 . S
C2465 C2463 1.327 . S
C2466 C2454 1.349 . S
C2466 H2460 0.950 . S
C2466 C2467 1.327 . S
C2467 H2461 0.950 . S
C2467 C2466 1.327 . S
C2467 C2471 1.429 . S
C2468 C2451 1.574 . S
C2468 H2462 0.949 . S
C2468 C2472 1.368 . S
C2469 C2450 1.429 . S
C2469 C2463 1.429 . S
C2469 C2470 1.523 . S
C2470 C2451 1.368 . S
C2470 C2464 1.368 . S
C2470 C2469 1.523 . S
C2471 C2455 1.429 . S
C2471 C2467 1.429 . S
C2471 C2472 1.523 . S
C2472 C2456 1.368 . S
C2472 C2468 1.368 . S
C2472 C2471 1.523 . S
H2473 C2448 0.950 . S
H2474 C2450 0.950 . S
H2475 C2451 0.949 . S
H2476 C2453 0.950 . S
H2477 C2455 0.950 . S
C2478 C2479 1.349 . S
C2478 C2480 1.327 . S
C2478 H2503 0.950 . S
C2479 C2478 1.349 . S
C2479 C2495 1.349 . S
C2480 C2478 1.327 . S
C2480 C2499 1.429 . S
C2480 H2504 0.950 . S
C2481 C2498 1.574 . S
C2481 C2500 1.368 . S
C2481 H2505 0.949 . S
H2482 C2486 0.949 . S
C2483 C2484 1.349 . S
C2483 C2485 1.327 . S
C2483 H2506 0.950 . S
C2484 C2483 1.349 . S
C2484 C2496 1.349 . S
C2485 C2483 1.327 . S
C2485 C2501 1.429 . S
C2485 H2507 0.950 . S
C2486 H2482 0.949 . S
C2486 C2494 1.574 . S
C2486 C2502 1.368 . S
H2487 C2495 0.950 . S
H2488 C2493 0.950 . S
H2489 C2494 0.949 . S
H2490 C2496 0.950 . S
H2491 C2497 0.950 . S
H2492 C2498 0.949 . S
C2493 H2488 0.950 . S
C2493 C2495 1.327 . S
C2493 C2499 1.429 . S
C2494 C2486 1.574 . S
C2494 H2489 0.949 . S
C2494 C2500 1.368 . S
C2495 C2479 1.349 . S
C2495 H2487 0.950 . S
C2495 C2493 1.327 . S
C2496 C2484 1.349 . S
C2496 H2490 0.950 . S
C2496 C2497 1.327 . S
C2497 H2491 0.950 . S
C2497 C2496 1.327 . S
C2497 C2501 1.429 . S
C2498 C2481 1.574 . S
C2498 H2492 0.949 . S
C2498 C2502 1.368 . S
C2499 C2480 1.429 . S
C2499 C2493 1.429 . S
C2499 C2500 1.523 . S
C2500 C2481 1.368 . S
C2500 C2494 1.368 . S
C2500 C2499 1.523 . S
C2501 C2485 1.429 . S
C2501 C2497 1.429 . S
C2501 C2502 1.523 . S
C2502 C2486 1.368 . S
C2502 C2498 1.368 . S
C2502 C2501 1.523 . S
H2503 C2478 0.950 . S
H2504 C2480 0.950 . S
H2505 C2481 0.949 . S
H2506 C2483 0.950 . S
H2507 C2485 0.950 . S
C2508 C2509 1.349 . S
C2508 C2510 1.327 . S
C2508 H2533 0.950 . S
C2509 C2508 1.349 . S
C2509 C2525 1.349 . S
C2510 C2508 1.327 . S
C2510 C2529 1.429 . S
C2510 H2534 0.950 . S
C2511 C2528 1.574 . S
C2511 C2530 1.368 . S
C2511 H2535 0.949 . S
H2512 C2516 0.949 . S
C2513 C2514 1.349 . S
C2513 C2515 1.327 . S
C2513 H2536 0.950 . S
C2514 C2513 1.349 . S
C2514 C2526 1.349 . S
C2515 C2513 1.327 . S
C2515 C2531 1.429 . S
C2515 H2537 0.950 . S
C2516 H2512 0.949 . S
C2516 C2524 1.574 . S
C2516 C2532 1.368 . S
H2517 C2525 0.950 . S
H2518 C2523 0.950 . S
H2519 C2524 0.949 . S
H2520 C2526 0.950 . S
H2521 C2527 0.950 . S
H2522 C2528 0.949 . S
C2523 H2518 0.950 . S
C2523 C2525 1.327 . S
C2523 C2529 1.429 . S
C2524 C2516 1.574 . S
C2524 H2519 0.949 . S
C2524 C2530 1.368 . S
C2525 C2509 1.349 . S
C2525 H2517 0.950 . S
C2525 C2523 1.327 . S
C2526 C2514 1.349 . S
C2526 H2520 0.950 . S
C2526 C2527 1.327 . S
C2527 H2521 0.950 . S
C2527 C2526 1.327 . S
C2527 C2531 1.429 . S
C2528 C2511 1.574 . S
C2528 H2522 0.949 . S
C2528 C2532 1.368 . S
C2529 C2510 1.429 . S
C2529 C2523 1.429 . S
C2529 C2530 1.523 . S
C2530 C2511 1.368 . S
C2530 C2524 1.368 . S
C2530 C2529 1.523 . S
C2531 C2515 1.429 . S
C2531 C2527 1.429 . S
C2531 C2532 1.523 . S
C2532 C2516 1.368 . S
C2532 C2528 1.368 . S
C2532 C2531 1.523 . S
H2533 C2508 0.950 . S
H2534 C2510 0.950 . S
H2535 C2511 0.949 . S
H2536 C2513 0.950 . S
H2537 C2515 0.950 . S
C2538 C2539 1.349 . S
C2538 C2540 1.327 . S
C2538 H2563 0.950 . S
C2539 C2538 1.349 . S
C2539 C2555 1.349 . S
C2540 C2538 1.327 . S
C2540 C2559 1.429 . S
C2540 H2564 0.950 . S
C2541 C2558 1.574 . S
C2541 C2560 1.368 . S
C2541 H2565 0.949 . S
H2542 C2546 0.949 . S
C2543 C2544 1.349 . S
C2543 C2545 1.327 . S
C2543 H2566 0.950 . S
C2544 C2543 1.349 . S
C2544 C2556 1.349 . S
C2545 C2543 1.327 . S
C2545 C2561 1.429 . S
C2545 H2567 0.950 . S
C2546 H2542 0.949 . S
C2546 C2554 1.574 . S
C2546 C2562 1.368 . S
H2547 C2555 0.950 . S
H2548 C2553 0.950 . S
H2549 C2554 0.949 . S
H2550 C2556 0.950 . S
H2551 C2557 0.950 . S
H2552 C2558 0.949 . S
C2553 H2548 0.950 . S
C2553 C2555 1.327 . S
C2553 C2559 1.429 . S
C2554 C2546 1.574 . S
C2554 H2549 0.949 . S
C2554 C2560 1.368 . S
C2555 C2539 1.349 . S
C2555 H2547 0.950 . S
C2555 C2553 1.327 . S
C2556 C2544 1.349 . S
C2556 H2550 0.950 . S
C2556 C2557 1.327 . S
C2557 H2551 0.950 . S
C2557 C2556 1.327 . S
C2557 C2561 1.429 . S
C2558 C2541 1.574 . S
C2558 H2552 0.949 . S
C2558 C2562 1.368 . S
C2559 C2540 1.429 . S
C2559 C2553 1.429 . S
C2559 C2560 1.523 . S
C2560 C2541 1.368 . S
C2560 C2554 1.368 . S
C2560 C2559 1.523 . S
C2561 C2545 1.429 . S
C2561 C2557 1.429 . S
C2561 C2562 1.523 . S
C2562 C2546 1.368 . S
C2562 C2558 1.368 . S
C2562 C2561 1.523 . S
H2563 C2538 0.950 . S
H2564 C2540 0.950 . S
H2565 C2541 0.949 . S
H2566 C2543 0.950 . S
H2567 C2545 0.950 . S
C2568 C2569 1.349 . S
C2568 C2570 1.327 . S
C2568 H2593 0.950 . S
C2569 C2568 1.349 . S
C2569 C2585 1.349 . S
C2570 C2568 1.327 . S
C2570 C2589 1.429 . S
C2570 H2594 0.950 . S
C2571 C2588 1.574 . S
C2571 C2590 1.368 . S
C2571 H2595 0.949 . S
H2572 C2576 0.949 . S
C2573 C2574 1.349 . S
C2573 C2575 1.327 . S
C2573 H2596 0.950 . S
C2574 C2573 1.349 . S
C2574 C2586 1.349 . S
C2575 C2573 1.327 . S
C2575 C2591 1.429 . S
C2575 H2597 0.950 . S
C2576 H2572 0.949 . S
C2576 C2584 1.574 . S
C2576 C2592 1.368 . S
H2577 C2585 0.950 . S
H2578 C2583 0.950 . S
H2579 C2584 0.949 . S
H2580 C2586 0.950 . S
H2581 C2587 0.950 . S
H2582 C2588 0.949 . S
C2583 H2578 0.950 . S
C2583 C2585 1.327 . S
C2583 C2589 1.429 . S
C2584 C2576 1.574 . S
C2584 H2579 0.949 . S
C2584 C2590 1.368 . S
C2585 C2569 1.349 . S
C2585 H2577 0.950 . S
C2585 C2583 1.327 . S
C2586 C2574 1.349 . S
C2586 H2580 0.950 . S
C2586 C2587 1.327 . S
C2587 H2581 0.950 . S
C2587 C2586 1.327 . S
C2587 C2591 1.429 . S
C2588 C2571 1.574 . S
C2588 H2582 0.949 . S
C2588 C2592 1.368 . S
C2589 C2570 1.429 . S
C2589 C2583 1.429 . S
C2589 C2590 1.523 . S
C2590 C2571 1.368 . S
C2590 C2584 1.368 . S
C2590 C2589 1.523 . S
C2591 C2575 1.429 . S
C2591 C2587 1.429 . S
C2591 C2592 1.523 . S
C2592 C2576 1.368 . S
C2592 C2588 1.368 . S
C2592 C2591 1.523 . S
H2593 C2568 0.950 . S
H2594 C2570 0.950 . S
H2595 C2571 0.949 . S
H2596 C2573 0.950 . S
H2597 C2575 0.950 . S
C2598 C2599 1.349 . S
C2598 C2600 1.327 . S
C2598 H2623 0.950 . S
C2599 C2598 1.349 . S
C2599 C2615 1.349 . S
C2600 C2598 1.327 . S
C2600 C2619 1.429 . S
C2600 H2624 0.950 . S
C2601 C2618 1.574 . S
C2601 C2620 1.368 . S
C2601 H2625 0.949 . S
H2602 C2606 0.949 . S
C2603 C2604 1.349 . S
C2603 C2605 1.327 . S
C2603 H2626 0.950 . S
C2604 C2603 1.349 . S
C2604 C2616 1.349 . S
C2605 C2603 1.327 . S
C2605 C2621 1.429 . S
C2605 H2627 0.950 . S
C2606 H2602 0.949 . S
C2606 C2614 1.574 . S
C2606 C2622 1.368 . S
H2607 C2615 0.950 . S
H2608 C2613 0.950 . S
H2609 C2614 0.949 . S
H2610 C2616 0.950 . S
H2611 C2617 0.950 . S
H2612 C2618 0.949 . S
C2613 H2608 0.950 . S
C2613 C2615 1.327 . S
C2613 C2619 1.429 . S
C2614 C2606 1.574 . S
C2614 H2609 0.949 . S
C2614 C2620 1.368 . S
C2615 C2599 1.349 . S
C2615 H2607 0.950 . S
C2615 C2613 1.327 . S
C2616 C2604 1.349 . S
C2616 H2610 0.950 . S
C2616 C2617 1.327 . S
C2617 H2611 0.950 . S
C2617 C2616 1.327 . S
C2617 C2621 1.429 . S
C2618 C2601 1.574 . S
C2618 H2612 0.949 . S
C2618 C2622 1.368 . S
C2619 C2600 1.429 . S
C2619 C2613 1.429 . S
C2619 C2620 1.523 . S
C2620 C2601 1.368 . S
C2620 C2614 1.368 . S
C2620 C2619 1.523 . S
C2621 C2605 1.429 . S
C2621 C2617 1.429 . S
C2621 C2622 1.523 . S
C2622 C2606 1.368 . S
C2622 C2618 1.368 . S
C2622 C2621 1.523 . S
H2623 C2598 0.950 . S
H2624 C2600 0.950 . S
H2625 C2601 0.949 . S
H2626 C2603 0.950 . S
H2627 C2605 0.950 . S
C2628 C2629 1.349 . S
C2628 C2630 1.327 . S
C2628 H2653 0.950 . S
C2629 C2628 1.349 . S
C2629 C2645 1.349 . S
C2630 C2628 1.327 . S
C2630 C2649 1.429 . S
C2630 H2654 0.950 . S
C2631 C2648 1.574 . S
C2631 C2650 1.368 . S
C2631 H2655 0.949 . S
H2632 C2636 0.980 . S
C2633 C2634 1.349 . S
C2633 C2635 1.327 . S
C2633 H2656 0.950 . S
C2634 C2633 1.349 . S
C2634 C2646 1.349 1_655 S
C2635 C2633 1.327 . S
C2635 C2651 1.429 . S
C2635 H2657 0.950 . S
C2636 H2632 0.980 . S
C2636 C2644 1.574 . S
C2636 C2652 1.368 . S
H2637 C2645 0.950 . S
H2638 C2643 0.950 . S
H2639 C2644 0.949 . S
H2640 C2646 0.950 . S
H2641 C2647 0.950 1_455 S
H2642 C2648 0.949 . S
C2643 H2638 0.950 . S
C2643 C2645 1.327 . S
C2643 C2649 1.429 . S
C2644 C2636 1.574 . S
C2644 H2639 0.949 . S
C2644 C2650 1.368 . S
C2645 C2629 1.349 . S
C2645 H2637 0.950 . S
C2645 C2643 1.327 . S
C2646 C2634 1.349 1_455 S
C2646 H2640 0.950 . S
C2646 C2647 1.331 1_455 S
C2647 H2641 0.950 1_655 S
C2647 C2646 1.331 1_655 S
C2647 C2651 1.424 . S
C2648 C2631 1.574 . S
C2648 H2642 0.949 . S
C2648 C2652 1.368 . S
C2649 C2630 1.429 . S
C2649 C2643 1.429 . S
C2649 C2650 1.523 . S
C2650 C2631 1.368 . S
C2650 C2644 1.368 . S
C2650 C2649 1.523 . S
C2651 C2635 1.429 . S
C2651 C2647 1.424 . S
C2651 C2652 1.523 . S
C2652 C2636 1.368 . S
C2652 C2648 1.368 . S
C2652 C2651 1.523 . S
H2653 C2628 0.950 . S
H2654 C2630 0.950 . S
H2655 C2631 0.949 . S
H2656 C2633 0.950 . S
H2657 C2635 0.950 . S
C2658 C2659 1.349 . S
C2658 C2660 1.327 . S
C2658 H2683 0.950 . S
C2659 C2658 1.349 . S
C2659 C2675 1.349 . S
C2660 C2658 1.327 . S
C2660 C2679 1.429 . S
C2660 H2684 0.950 . S
C2661 C2678 1.574 . S
C2661 C2680 1.368 . S
C2661 H2685 0.949 . S
H2662 C2666 0.949 . S
C2663 C2664 1.349 . S
C2663 C2665 1.327 . S
C2663 H2686 0.950 . S
C2664 C2663 1.349 . S
C2664 C2676 1.349 . S
C2665 C2663 1.327 . S
C2665 C2681 1.429 . S
C2665 H2687 0.950 . S
C2666 H2662 0.949 . S
C2666 C2674 1.574 . S
C2666 C2682 1.368 . S
H2667 C2675 0.950 . S
H2668 C2673 0.950 . S
H2669 C2674 0.949 . S
H2670 C2676 0.950 . S
H2671 C2677 0.950 . S
H2672 C2678 0.949 . S
C2673 H2668 0.950 . S
C2673 C2675 1.327 . S
C2673 C2679 1.429 . S
C2674 C2666 1.574 . S
C2674 H2669 0.949 . S
C2674 C2680 1.368 . S
C2675 C2659 1.349 . S
C2675 H2667 0.950 . S
C2675 C2673 1.327 . S
C2676 C2664 1.349 . S
C2676 H2670 0.950 . S
C2676 C2677 1.327 . S
C2677 H2671 0.950 . S
C2677 C2676 1.327 . S
C2677 C2681 1.429 . S
C2678 C2661 1.574 . S
C2678 H2672 0.949 . S
C2678 C2682 1.368 . S
C2679 C2660 1.429 . S
C2679 C2673 1.429 . S
C2679 C2680 1.523 . S
C2680 C2661 1.368 . S
C2680 C2674 1.368 . S
C2680 C2679 1.523 . S
C2681 C2665 1.429 . S
C2681 C2677 1.429 . S
C2681 C2682 1.523 . S
C2682 C2666 1.368 . S
C2682 C2678 1.368 . S
C2682 C2681 1.523 . S
H2683 C2658 0.950 . S
H2684 C2660 0.950 . S
H2685 C2661 0.949 . S
H2686 C2663 0.950 . S
H2687 C2665 0.950 . S
C2688 C2689 1.349 . S
C2688 C2690 1.327 . S
C2688 H2713 0.950 . S
C2689 C2688 1.349 . S
C2689 C2705 1.349 . S
C2690 C2688 1.327 . S
C2690 C2709 1.429 . S
C2690 H2714 0.950 . S
C2691 C2708 1.574 . S
C2691 C2710 1.368 . S
C2691 H2715 0.949 . S
H2692 C2696 0.949 . S
C2693 C2694 1.350 1_565 S
C2693 C2695 1.327 . S
C2693 H2716 0.950 . S
C2694 C2693 1.350 1_545 S
C2694 C2706 1.349 . S
C2695 C2693 1.327 . S
C2695 C2711 1.429 1_565 S
C2695 H2717 0.950 . S
C2696 H2692 0.949 . S
C2696 C2704 1.574 . S
C2696 C2712 1.368 . S
H2697 C2705 0.950 . S
H2698 C2703 0.950 . S
H2699 C2704 0.949 . S
H2700 C2706 0.950 . S
H2701 C2707 0.950 . S
H2702 C2708 0.949 1_565 S
C2703 H2698 0.950 . S
C2703 C2705 1.327 . S
C2703 C2709 1.429 . S
C2704 C2696 1.574 . S
C2704 H2699 0.949 . S
C2704 C2710 1.368 . S
C2705 C2689 1.349 . S
C2705 H2697 0.950 . S
C2705 C2703 1.327 . S
C2706 C2694 1.349 . S
C2706 H2700 0.950 . S
C2706 C2707 1.327 . S
C2707 H2701 0.950 . S
C2707 C2706 1.327 . S
C2707 C2711 1.429 . S
C2708 C2691 1.574 . S
C2708 H2702 0.949 1_545 S
C2708 C2712 1.368 . S
C2709 C2690 1.429 . S
C2709 C2703 1.429 . S
C2709 C2710 1.523 . S
C2710 C2691 1.368 . S
C2710 C2704 1.368 . S
C2710 C2709 1.523 . S
C2711 C2695 1.429 1_545 S
C2711 C2707 1.429 . S
C2711 C2712 1.523 . S
C2712 C2696 1.368 . S
C2712 C2708 1.368 . S
C2712 C2711 1.523 . S
H2713 C2688 0.950 . S
H2714 C2690 0.950 . S
H2715 C2691 0.949 . S
H2716 C2693 0.950 . S
H2717 C2695 0.950 . S
C559 C8 1.482 . S
C564 C403 1.529 . S
C589 C18 1.518 . S
C594 C428 1.544 . S
C624 C439 1.547 . S
C619 C31 1.517 . S
C649 C34 1.508 1_565 S
C654 C464 1.557 . S
C679 C5 1.515 . S
C684 C482 1.551 . S
C709 C21 1.508 . S
C714 C493 1.548 . S
C739 C47 1.471 . S
C744 C475 1.533 . S
C774 C500 1.532 . S
C769 C57 1.500 . S
C804 C457 1.561 1_565 S
C799 C70 1.528 . S
C829 C73 1.477 . S
C834 C446 1.533 . S
C864 C410 1.521 1_655 S
C859 C44 1.514 . S
C889 C60 1.488 . S
C894 C421 1.537 . S
C919 C86 1.549 . S
C924 C511 1.589 . S
C949 C96 1.544 . S
C954 C536 1.562 . S
C984 C547 1.600 . S
C979 C109 1.599 . S
C1009 C112 1.580 . S
C1014 C248 1.621 . S
C1039 C83 1.592 . S
C1044 C266 1.610 . S
C1069 C99 1.534 . S
C1074 C277 1.570 . S
C1099 C125 1.493 . S
C1104 C259 1.542 . S
C1129 C135 1.524 . S
C1134 C284 1.556 . S
C1164 C241 1.589 . S
C1159 C148 1.565 . S
C1194 C554 1.621 . S
C1189 C151 1.575 . S
C1224 C518 1.565 . S
C1219 C122 1.547 . S
C1254 C529 1.577 . S
C1249 C138 1.529 . S
C1279 C164 1.522 . S
C1284 C295 1.561 . S
C1309 C174 1.537 . S
C1314 C320 1.562 . S
C1339 C187 1.590 . S
C1344 C331 1.596 . S
C1369 C190 1.603 . S
C1374 C356 1.646 . S
C1404 C374 1.601 . S
C1399 C161 1.590 . S
C1434 C385 1.590 . S
C1429 C177 1.553 . S
C1464 C367 1.586 . S
C1459 C203 1.534 . S
C1494 C392 1.557 . S
C1489 C213 1.532 . S
C1519 C226 1.561 . S
C1524 C349 1.579 . S
C1554 C338 1.584 . S
C1549 C229 1.539 . S
C1579 C200 1.561 . S
C1584 C302 1.586 . S
C1614 C313 1.569 . S
C1609 C216 1.521 . S
C1644 C250 1.283 . S
C1639 C0 1.309 . S
C1669 C23 1.287 . S
C1674 C268 1.220 . S
C1704 C278 1.277 . S
C1699 C36 1.347 . S
C1734 C296 1.304 . S
C1729 C26 1.334 1_556 S
C1764 C322 1.236 . S
C1759 C10 1.305 1_556 S
C1794 C332 1.235 . S
C1789 C13 1.272 . S
C1819 C39 1.345 . S
C1824 C340 1.307 . S
C1849 C62 1.315 . S
C1854 C304 1.228 . S
C1879 C75 1.352 . S
C1884 C314 1.261 . S
C1909 C65 1.392 . S
C1914 C260 1.362 . S
C1944 C286 1.236 . S
C1939 C49 1.324 . S
C1969 C52 1.305 . S
C1974 C242 1.267 . S
C2004 C358 1.275 . S
C1999 C78 1.307 . S
C2029 C101 1.363 . S
C2034 C376 1.294 . S
C2059 C114 1.392 . S
C2064 C386 1.319 . S
C2094 C404 1.236 . S
C2089 C104 1.274 . S
C2119 C88 1.306 . S
C2124 C430 1.237 . S
C2149 C91 1.204 . S
C2154 C440 1.165 . S
C2179 C117 1.247 . S
C2184 C448 1.201 . S
C2209 C140 1.261 . S
C2214 C412 1.183 . S
C2244 C422 1.290 . S
C2239 C153 1.363 . S
C2269 C143 1.354 . S
C2274 C368 1.315 . S
C2299 C127 1.400 . S
C2304 C394 1.305 . S
C2334 C350 1.318 . S
C2329 C130 1.362 . S
C2364 C466 1.213 . S
C2359 C156 1.252 . S
C2389 C179 1.242 . S
C2394 C484 1.182 . S
C2419 C192 1.335 . S
C2424 C494 1.268 . S
C2454 C512 1.273 . S
C2449 C182 1.310 . S
C2484 C538 1.303 . S
C2479 C166 1.378 . S
C2509 C169 1.335 . S
C2514 C548 1.294 . S
C2539 C195 1.346 . S
C2544 C556 1.296 . S
C2569 C218 1.390 . S
C2574 C520 1.299 . S
C2604 C530 1.320 . S
C2599 C231 1.398 . S
C2634 C476 1.237 1_655 S
C2629 C221 1.270 . S
C2664 C502 1.249 . S
C2659 C205 1.336 . S
C2689 C208 1.228 . S
C2694 C458 1.216 1_545 S
