# Generated by pormake.
# Topology zzz, (3,6)-cn, num edge types: 1
# Building blocks:
#     Node 0, Type 0, BuildingBlock: BETDIP_clean_linker_0, # of connection points: 3
#     Node 1, Type 0, BuildingBlock: BETDIP_clean_linker_0, # of connection points: 3
#     Node 2, Type 0, BuildingBlock: BETDIP_clean_linker_0, # of connection points: 3
#     Node 3, Type 0, BuildingBlock: BETDIP_clean_linker_0, # of connection points: 3
#     Node 4, Type 0, BuildingBlock: BETDIP_clean_linker_0, # of connection points: 3
#     Node 5, Type 0, BuildingBlock: BETDIP_clean_linker_0, # of connection points: 3
#     Node 6, Type 0, BuildingBlock: BETDIP_clean_linker_0, # of connection points: 3
#     Node 7, Type 0, BuildingBlock: BETDIP_clean_linker_0, # of connection points: 3
#     Node 8, Type 1, BuildingBlock: MIFKUJ_clean_sbu_0, # of connection points: 6
#     Node 9, Type 1, BuildingBlock: MIFKUJ_clean_sbu_0, # of connection points: 6
#     Node 10, Type 1, BuildingBlock: MIFKUJ_clean_sbu_0, # of connection points: 6
#     Node 11, Type 1, BuildingBlock: MIFKUJ_clean_sbu_0, # of connection points: 6
#     Edge 12, Type (0, 1), BuildingBlock: XUDNAN_clean_linker_2, # of connection points: 2
#     Edge 13, Type (0, 1), BuildingBlock: XUDNAN_clean_linker_2, # of connection points: 2
#     Edge 14, Type (0, 1), BuildingBlock: XUDNAN_clean_linker_2, # of connection points: 2
#     Edge 15, Type (0, 1), BuildingBlock: XUDNAN_clean_linker_2, # of connection points: 2
#     Edge 16, Type (0, 1), BuildingBlock: XUDNAN_clean_linker_2, # of connection points: 2
#     Edge 17, Type (0, 1), BuildingBlock: XUDNAN_clean_linker_2, # of connection points: 2
#     Edge 18, Type (0, 1), BuildingBlock: XUDNAN_clean_linker_2, # of connection points: 2
#     Edge 19, Type (0, 1), BuildingBlock: XUDNAN_clean_linker_2, # of connection points: 2
#     Edge 20, Type (0, 1), BuildingBlock: XUDNAN_clean_linker_2, # of connection points: 2
#     Edge 21, Type (0, 1), BuildingBlock: XUDNAN_clean_linker_2, # of connection points: 2
#     Edge 22, Type (0, 1), BuildingBlock: XUDNAN_clean_linker_2, # of connection points: 2
#     Edge 23, Type (0, 1), BuildingBlock: XUDNAN_clean_linker_2, # of connection points: 2
#     Edge 24, Type (0, 1), BuildingBlock: XUDNAN_clean_linker_2, # of connection points: 2
#     Edge 25, Type (0, 1), BuildingBlock: XUDNAN_clean_linker_2, # of connection points: 2
#     Edge 26, Type (0, 1), BuildingBlock: XUDNAN_clean_linker_2, # of connection points: 2
#     Edge 27, Type (0, 1), BuildingBlock: XUDNAN_clean_linker_2, # of connection points: 2
#     Edge 28, Type (0, 1), BuildingBlock: XUDNAN_clean_linker_2, # of connection points: 2
#     Edge 29, Type (0, 1), BuildingBlock: XUDNAN_clean_linker_2, # of connection points: 2
#     Edge 30, Type (0, 1), BuildingBlock: XUDNAN_clean_linker_2, # of connection points: 2
#     Edge 31, Type (0, 1), BuildingBlock: XUDNAN_clean_linker_2, # of connection points: 2
#     Edge 32, Type (0, 1), BuildingBlock: XUDNAN_clean_linker_2, # of connection points: 2
#     Edge 33, Type (0, 1), BuildingBlock: XUDNAN_clean_linker_2, # of connection points: 2
#     Edge 34, Type (0, 1), BuildingBlock: XUDNAN_clean_linker_2, # of connection points: 2
#     Edge 35, Type (0, 1), BuildingBlock: XUDNAN_clean_linker_2, # of connection points: 2
# Relax obj value: 0.116
# Max RMSD: 0.118
# Mean RMSD: 0.085
data_MOF--net-zzz--node1-MIFKUJ_clean_sbu_0--node2-BETDIP_clean_linker_0--edge1-XUDNAN_clean_linker_2
_symmetry_space_group_name_H-M    P1
_symmetry_Int_Tables_number       1
_symmetry_cell_setting            triclinic
loop_
_symmetry_equiv_pos_as_xyz
'x, y, z'
_cell_length_a     51.22296
_cell_length_b     50.801064
_cell_length_c     15.898547
_cell_angle_alpha  90.321261
_cell_angle_beta   90.525608
_cell_angle_gamma 89.856429
loop_
_atom_site_label
_atom_site_type_symbol
_atom_site_fract_x
_atom_site_fract_y
_atom_site_fract_z
_atom_type_partial_charge
H0 H 0.74597 0.5096 0.24881 0.0
H1 H 0.7398 0.50279 0.97892 0.0
H2 H 0.81458 0.4959 0.10046 0.0
H3 H 0.70702 0.54524 0.0416 0.0
C4 C 0.6986 0.52649 0.0595 0.0
C5 C 0.75511 0.50659 0.18833 0.0
C6 C 0.78241 0.50341 0.18336 0.0
C7 C 0.73975 0.50703 0.11431 0.0
C8 C 0.7516 0.50301 0.03586 0.0
C9 C 0.77846 0.49831 0.03103 0.0
C10 C 0.79365 0.49889 0.10462 0.0
N11 N 0.7123 0.51059 0.11871 0.0
H12 H 0.96724 0.73346 0.24038 0.0
H13 H 0.95902 0.73049 0.96996 0.0
H14 H 0.96409 0.80483 0.09587 0.0
H15 H 0.92633 0.6948 0.03383 0.0
C16 C 0.94502 0.68594 0.05033 0.0
C17 C 0.96507 0.74334 0.18052 0.0
C18 C 0.96584 0.7711 0.17679 0.0
C19 C 0.96172 0.72844 0.10571 0.0
C20 C 0.96007 0.74155 0.02811 0.0
C21 C 0.96068 0.76896 0.02467 0.0
C22 C 0.96305 0.7835 0.09897 0.0
N23 N 0.96124 0.70039 0.10729 0.0
H24 H 0.77578 0.00357 0.24048 0.0
H25 H 0.77513 0.00671 0.9694 0.0
H26 H 0.70296 0.00469 0.10303 0.0
H27 H 0.81385 0.96674 0.0491 0.0
C28 C 0.82043 0.98702 0.05419 0.0
C29 C 0.76501 0.00397 0.18152 0.0
C30 C 0.73755 0.00307 0.18117 0.0
C31 C 0.77859 0.00457 0.10504 0.0
C32 C 0.76475 0.00555 0.02835 0.0
C33 C 0.73751 0.00552 0.02828 0.0
C34 C 0.72415 0.0041 0.10418 0.0
N35 N 0.8062 0.00493 0.10498 0.0
H36 H 0.5441 0.76977 0.2085 0.0
H37 H 0.54689 0.77826 0.93863 0.0
H38 H 0.54406 0.70148 0.0462 0.0
H39 H 0.58904 0.80957 0.04337 0.0
C40 C 0.5696 0.81822 0.04113 0.0
C41 C 0.54464 0.76093 0.1464 0.0
C42 C 0.54316 0.73332 0.13673 0.0
C43 C 0.54695 0.77713 0.07485 0.0
C44 C 0.54643 0.76585 0.99385 0.0
C45 C 0.54451 0.73866 0.98454 0.0
C46 C 0.54421 0.72267 0.05543 0.0
N47 N 0.5493 0.80482 0.08337 0.0
H48 H 0.26618 0.48656 0.98463 0.0
H49 H 0.27267 0.51703 0.2382 0.0
H50 H 0.19914 0.51968 0.10824 0.0
H51 H 0.315 0.53502 0.13391 0.0
C52 C 0.31842 0.5142 0.1453 0.0
C53 C 0.25741 0.49589 0.03893 0.0
C54 C 0.23078 0.50307 0.03702 0.0
C55 C 0.27289 0.50188 0.11064 0.0
C56 C 0.26124 0.51351 0.18155 0.0
C57 C 0.23475 0.51993 0.18017 0.0
C58 C 0.21984 0.515 0.10799 0.0
N59 N 0.29996 0.49573 0.11298 0.0
H60 H 0.05137 0.26508 0.9604 0.0
H61 H 0.03718 0.2709 0.22717 0.0
H62 H 0.04602 0.19521 0.11075 0.0
H63 H 0.07717 0.31618 0.13928 0.0
C64 C 0.05597 0.31656 0.14081 0.0
C65 C 0.04881 0.25579 0.02092 0.0
C66 C 0.05042 0.22819 0.02792 0.0
C67 C 0.04457 0.27138 0.09347 0.0
C68 C 0.04096 0.25917 0.17157 0.0
C69 C 0.0404 0.23176 0.17692 0.0
C70 C 0.04577 0.21652 0.10574 0.0
N71 N 0.04181 0.29911 0.08729 0.0
H72 H 0.22901 0.00969 0.96053 0.0
H73 H 0.23248 0.00993 0.23047 0.0
H74 H 0.3015 0.02583 0.0894 0.0
H75 H 0.21094 0.96309 0.14317 0.0
C76 C 0.196 0.97836 0.14345 0.0
C77 C 0.23976 0.01381 0.01811 0.0
C78 C 0.26674 0.01897 0.01536 0.0
C79 C 0.22731 0.01117 0.09594 0.0
C80 C 0.24181 0.01373 0.17085 0.0
C81 C 0.26862 0.01868 0.16857 0.0
C82 C 0.28057 0.02272 0.09094 0.0
N83 N 0.20126 0.00199 0.09957 0.0
H84 H 0.44881 0.22654 0.97811 0.0
H85 H 0.45651 0.22782 0.24816 0.0
H86 H 0.45353 0.30018 0.11304 0.0
H87 H 0.49282 0.19621 0.17402 0.0
C88 C 0.47535 0.18459 0.16195 0.0
C89 C 0.44956 0.23757 0.03658 0.0
C90 C 0.44984 0.26534 0.03568 0.0
C91 C 0.45214 0.22399 0.11317 0.0
C92 C 0.45411 0.23817 0.18914 0.0
C93 C 0.45372 0.26561 0.18891 0.0
C94 C 0.45158 0.27893 0.11252 0.0
N95 N 0.45488 0.1962 0.11392 0.0
Zn96 Zn 0.00922 0.03412 0.5809 0.0
Zn97 Zn 0.00973 0.96611 0.62406 0.0
C98 C 0.01326 0.07254 0.70501 0.0
O99 O 0.9895 0.07558 0.67469 0.0
C100 C 0.00743 0.93208 0.48419 0.0
O101 O 0.03249 0.93135 0.50236 0.0
O102 O 0.00454 0.06584 0.50785 0.0
O103 O 0.03477 0.01156 0.51482 0.0
O104 O 0.04562 0.98005 0.60356 0.0
C105 C 0.02557 0.07905 0.50547 0.0
O106 O 0.04717 0.06872 0.53614 0.0
O107 O 0.0262 0.05221 0.6827 0.0
C108 C 0.99149 0.92229 0.70008 0.0
O109 O 0.97031 0.9346 0.67458 0.0
O110 O 0.01361 0.93305 0.68999 0.0
O111 O 0.98418 0.98722 0.69158 0.0
O112 O 0.97331 0.02182 0.61477 0.0
O113 O 0.9933 0.94948 0.51977 0.0
C114 C 0.05085 0.99424 0.54059 0.0
C115 C 0.96853 0.00579 0.6737 0.0
Zn116 Zn 0.46029 0.98627 0.62266 0.0
Zn117 Zn 0.53937 0.00696 0.6082 0.0
C118 C 0.42885 0.9739 0.7533 0.0
O119 O 0.43522 0.95098 0.72063 0.0
C120 C 0.58385 0.02038 0.5248 0.0
O121 O 0.57648 0.04227 0.56221 0.0
O122 O 0.42919 0.98012 0.54792 0.0
O123 O 0.47838 0.01797 0.57257 0.0
O124 O 0.51747 0.03545 0.55874 0.0
C125 C 0.41304 0.9989 0.55884 0.0
O126 O 0.41986 0.01911 0.60598 0.0
O127 O 0.44209 0.99395 0.73238 0.0
C128 C 0.57447 0.00178 0.73363 0.0
O129 O 0.57097 0.97791 0.70402 0.0
O130 O 0.55889 0.01977 0.70997 0.0
O131 O 0.5193 0.97391 0.63306 0.0
O132 O 0.48189 0.95337 0.64069 0.0
O133 O 0.56899 1.00037 0.52804 0.0
C134 C 0.49299 0.0363 0.54612 0.0
C135 C 0.50654 0.95313 0.64861 0.0
Zn136 Zn 0.50393 0.45918 0.61632 0.0
Zn137 Zn 0.5079 0.54152 0.62148 0.0
C138 C 0.50496 0.41398 0.70746 0.0
O139 O 0.52852 0.41613 0.67623 0.0
C140 C 0.51485 0.5762 0.47878 0.0
O141 O 0.49273 0.56582 0.4528 0.0
O142 O 0.51276 0.43464 0.52147 0.0
O143 O 0.47697 0.48442 0.57117 0.0
O144 O 0.47472 0.52774 0.56417 0.0
C145 C 0.49172 0.42401 0.49587 0.0
O146 O 0.46946 0.43339 0.5231 0.0
O147 O 0.48899 0.43303 0.69815 0.0
C148 C 0.51456 0.5727 0.76605 0.0
O149 O 0.53248 0.55509 0.78395 0.0
O150 O 0.4972 0.56706 0.71154 0.0
O151 O 0.53599 0.51702 0.67012 0.0
O152 O 0.5364 0.47343 0.66866 0.0
O153 O 0.52586 0.56718 0.5445 0.0
C154 C 0.46483 0.5052 0.55013 0.0
C155 C 0.54698 0.49521 0.68789 0.0
Zn156 Zn 0.03357 0.51102 0.5732 0.0
Zn157 Zn 0.97744 0.4909 0.63947 0.0
C158 C 0.07072 0.51459 0.7045 0.0
O159 O 0.0682 0.53927 0.68137 0.0
C160 C 0.9412 0.48355 0.51483 0.0
O161 O 0.94708 0.46 0.54311 0.0
O162 O 0.06213 0.52594 0.50321 0.0
O163 O 0.01935 0.48053 0.50506 0.0
O164 O 0.99861 0.45885 0.604 0.0
C165 C 0.08122 0.51024 0.49348 0.0
O166 O 0.07902 0.48586 0.51975 0.0
O167 O 0.05492 0.49771 0.67358 0.0
C168 C 0.93122 0.50061 0.71169 0.0
O169 O 0.93986 0.52337 0.68484 0.0
O170 O 0.94641 0.4807 0.70949 0.0
O171 O 0.99409 0.52021 0.71029 0.0
O172 O 0.01036 0.54179 0.60426 0.0
O173 O 0.95592 0.50273 0.53647 0.0
C174 C 0.01036 0.45911 0.53373 0.0
C175 C 1.00031 0.54188 0.67684 0.0
H176 H 0.15177 0.00906 0.16197 0.0
H177 H 0.19613 0.94554 0.276 0.0
H178 H 0.16488 0.94402 0.39319 0.0
H179 H 0.1329 0.04212 0.3537 0.0
H180 H 0.10041 0.04991 0.31685 0.0
H181 H 0.12669 0.04669 0.24291 0.0
H182 H 0.10041 0.01143 0.15986 0.0
H183 H 0.07402 0.01464 0.23333 0.0
H184 H 0.08852 0.98283 0.21402 0.0
H185 H 0.1292 0.94919 0.49723 0.0
H186 H 0.0896 0.95894 0.57858 0.0
H187 H 0.06733 0.01841 0.39587 0.0
C188 C 0.15484 0.99489 0.21176 0.0
C189 C 0.17631 0.97742 0.21048 0.0
C190 C 0.17967 0.95898 0.27604 0.0
C191 C 0.16214 0.95806 0.34294 0.0
C192 C 0.14118 0.97555 0.34274 0.0
C193 C 0.13726 0.99346 0.27863 0.0
C194 C 0.11248 0.00923 0.29227 0.0
C195 C 0.11849 0.03874 0.30203 0.0
C196 C 0.09269 0.00423 0.22062 0.0
C197 C 0.10327 0.9975 0.37427 0.0
C198 C 0.12019 0.97819 0.40233 0.0
C199 C 0.11575 0.96425 0.47596 0.0
C200 C 0.09318 0.96996 0.52175 0.0
C201 C 0.07527 0.98941 0.49369 0.0
C202 C 0.08061 0.00347 0.41921 0.0
H203 H 0.50573 0.1687 0.29069 0.0
H204 H 0.43615 0.14726 0.14946 0.0
H205 H 0.43066 0.10804 0.24032 0.0
H206 H 0.53107 0.10512 0.32065 0.0
H207 H 0.54282 0.11158 0.42596 0.0
H208 H 0.54009 0.13807 0.35183 0.0
H209 H 0.51072 0.16386 0.45584 0.0
H210 H 0.51319 0.13732 0.53022 0.0
H211 H 0.48156 0.14865 0.49523 0.0
H212 H 0.43428 0.07007 0.34642 0.0
H213 H 0.44784 0.03639 0.45047 0.0
H214 H 0.51462 0.08433 0.52044 0.0
C215 C 0.48932 0.15573 0.27891 0.0
C216 C 0.47142 0.16081 0.21323 0.0
C217 C 0.45007 0.14361 0.19975 0.0
C218 C 0.44678 0.1214 0.25118 0.0
C219 C 0.46482 0.11704 0.31611 0.0
C220 C 0.48563 0.13385 0.32992 0.0
C221 C 0.50266 0.12484 0.40229 0.0
C222 C 0.53081 0.11958 0.37341 0.0
C223 C 0.50198 0.14486 0.47519 0.0
C224 C 0.48887 0.09971 0.42535 0.0
C225 C 0.46681 0.09564 0.37623 0.0
C226 C 0.45141 0.07322 0.38554 0.0
C227 C 0.45916 0.05427 0.44512 0.0
C228 C 0.48226 0.05779 0.49362 0.0
C229 C 0.49686 0.08108 0.48438 0.0
H230 H 0.35754 0.5455 0.20364 0.0
H231 H 0.32641 0.46651 0.22403 0.0
H232 H 0.3595 0.45637 0.33379 0.0
H233 H 0.42577 0.52731 0.23025 0.0
H234 H 0.43372 0.55662 0.28945 0.0
H235 H 0.40772 0.55731 0.21246 0.0
H236 H 0.3759 0.57425 0.32649 0.0
H237 H 0.40174 0.57331 0.40404 0.0
H238 H 0.37185 0.5556 0.42159 0.0
H239 H 0.39426 0.45601 0.44789 0.0
H240 H 0.43135 0.4633 0.545 0.0
H241 H 0.44191 0.54161 0.44375 0.0
C242 C 0.35788 0.52598 0.23074 0.0
C243 C 0.33947 0.50677 0.20537 0.0
C244 C 0.34042 0.48148 0.24218 0.0
C245 C 0.35905 0.47561 0.30491 0.0
C246 C 0.37667 0.49519 0.32952 0.0
C247 C 0.3765 0.51974 0.29266 0.0
C248 C 0.39782 0.53715 0.32937 0.0
C249 C 0.41742 0.54505 0.26133 0.0
C250 C 0.38612 0.56152 0.37296 0.0
C251 C 0.41007 0.51858 0.39284 0.0
C252 C 0.39737 0.49459 0.39256 0.0
C253 C 0.40466 0.47452 0.44728 0.0
C254 C 0.42596 0.47876 0.50176 0.0
C255 C 0.4402 0.50265 0.50026 0.0
C256 C 0.43164 0.52303 0.44621 0.0
H257 H 0.07053 0.36699 0.17496 0.0
H258 H 0.01185 0.30889 0.23456 0.0
H259 H 0.99417 0.33849 0.34437 0.0
H260 H 0.08319 0.3932 0.37444 0.0
H261 H 0.08443 0.42713 0.34211 0.0
H262 H 0.09244 0.40137 0.26857 0.0
H263 H 0.05734 0.41876 0.16429 0.0
H264 H 0.04941 0.44479 0.23728 0.0
H265 H 0.02421 0.42296 0.19923 0.0
H266 H 0.98589 0.37325 0.45764 0.0
H267 H 0.98284 0.41291 0.54839 0.0
H268 H 0.04348 0.45019 0.40239 0.0
C269 C 0.05376 0.3607 0.21059 0.0
C270 C 0.0428 0.33554 0.19745 0.0
C271 C 0.02069 0.32799 0.24418 0.0
C272 C 0.01053 0.34468 0.30677 0.0
C273 C 0.02211 0.36924 0.31941 0.0
C274 C 0.04269 0.37756 0.27063 0.0
C275 C 0.05059 0.40546 0.29316 0.0
C276 C 0.07937 0.40684 0.32127 0.0
C277 C 0.04506 0.42409 0.2191 0.0
C278 C 0.03231 0.41098 0.36555 0.0
C279 C 0.01603 0.38987 0.37994 0.0
C280 C 0.99823 0.39007 0.44592 0.0
C281 C 0.99674 0.41262 0.49748 0.0
C282 C 0.01275 0.43475 0.48224 0.0
C283 C 0.03076 0.43373 0.41533 0.0
H284 H 0.85848 0.95672 0.98634 0.0
H285 H 0.83012 0.03712 -0.00128 0.0
H286 H 0.86415 0.05073 0.8984 0.0
H287 H 0.9271 0.97367 0.9796 0.0
H288 H 0.93511 0.94688 0.90951 0.0
H289 H 0.90825 0.94374 0.98095 0.0
H290 H 0.87747 0.93281 0.85537 0.0
H291 H 0.90427 0.93617 0.78379 0.0
H292 H 0.875 0.95542 0.76861 0.0
H293 H 0.90019 0.05484 0.79044 0.0
H294 H 0.93847 0.05014 0.69723 0.0
H295 H 0.94458 0.96775 0.76536 0.0
C296 C 0.85962 0.97722 0.96826 0.0
C297 C 0.84187 0.99591 0.00011 0.0
C298 C 0.84379 0.02257 0.97549 0.0
C299 C 0.86291 0.03042 0.91815 0.0
C300 C 0.88007 0.01142 0.88721 0.0
C301 C 0.87886 0.98544 0.91255 0.0
C302 C 0.90012 0.96904 0.87253 0.0
C303 C 0.91875 0.95768 0.93966 0.0
C304 C 0.88851 0.94707 0.81675 0.0
C305 C 0.91337 0.98981 0.82033 0.0
C306 C 0.90137 0.01405 0.82849 0.0
C307 C 0.90989 0.036 0.78412 0.0
C308 C 0.93153 0.03313 0.73109 0.0
C309 C 0.94457 0.00861 0.72417 0.0
C310 C 0.93516 0.98677 0.76929 0.0
H311 H 0.52243 0.84193 -0.00175 0.0
H312 H 0.60482 0.84 0.93773 0.0
H313 H 0.59712 0.87183 0.82326 0.0
H314 H 0.49818 0.84731 0.7843 0.0
H315 H 0.47212 0.86969 0.81083 0.0
H316 H 0.48379 0.84628 0.88729 0.0
H317 H 0.49296 0.88412 0.99336 0.0
H318 H 0.481 0.90756 0.91765 0.0
H319 H 0.51326 0.91127 0.96234 0.0
H320 H 0.58055 0.90325 0.71392 0.0
H321 H 0.55681 0.93592 0.62698 0.0
H322 H 0.48561 0.9189 0.76156 0.0
C323 C 0.53882 0.84827 0.96099 0.0
C324 C 0.56427 0.83849 0.97654 0.0
C325 C 0.58521 0.8473 0.92664 0.0
C326 C 0.581 0.86524 0.86125 0.0
C327 C 0.55569 0.87425 0.84653 0.0
C328 C 0.53497 0.86633 0.89544 0.0
C329 C 0.50987 0.87978 0.86789 0.0
C330 C 0.48981 0.85955 0.83566 0.0
C331 C 0.49862 0.89669 0.93957 0.0
C332 C 0.51983 0.8967 0.79672 0.0
C333 C 0.54625 0.89293 0.78474 0.0
C334 C 0.55989 0.90654 0.72319 0.0
C335 C 0.54633 0.92516 0.67451 0.0
C336 C 0.5196 0.93033 0.68874 0.0
C337 C 0.50606 0.9153 0.74898 0.0
H338 H 0.66479 0.55508 0.96351 0.0
H339 H 0.6814 0.47542 0.04527 0.0
H340 H 0.6455 0.45886 0.95461 0.0
H341 H 0.59388 0.54741 0.95754 0.0
H342 H 0.58977 0.56819 0.86685 0.0
H343 H 0.61664 0.57369 0.93867 0.0
H344 H 0.649 0.56963 0.81485 0.0
H345 H 0.6222 0.5639 0.74302 0.0
H346 H 0.64859 0.54043 0.74985 0.0
H347 H 0.60889 0.45086 0.85193 0.0
H348 H 0.57135 0.45202 0.75452 0.0
H349 H 0.57791 0.53714 0.73947 0.0
C350 C 0.66066 0.53418 0.96271 0.0
C351 C 0.67576 0.51652 0.01145 0.0
C352 C 0.66992 0.48931 0.00903 0.0
C353 C 0.64967 0.47972 0.95733 0.0
C354 C 0.63533 0.49763 0.90926 0.0
C355 C 0.64029 0.52434 0.91235 0.0
C356 C 0.62153 0.53942 0.85587 0.0
C357 C 0.60444 0.55829 0.90784 0.0
C358 C 0.63622 0.55421 0.78679 0.0
C359 C 0.60552 0.51696 0.81944 0.0
C360 C 0.61387 0.49305 0.85102 0.0
C361 C 0.60209 0.46948 0.82719 0.0
C362 C 0.58079 0.47039 0.77135 0.0
C363 C 0.5713 0.49473 0.73979 0.0
C364 C 0.5843 0.51825 0.76319 0.0
H365 H 0.96697 0.63657 0.0683 0.0
H366 H 0.94629 0.69564 0.88363 0.0
H367 H 0.96199 0.66666 0.76998 0.0
H368 H 0.02425 0.60811 0.96021 0.0
H369 H 0.0159 0.57477 0.98707 0.0
H370 H 0.00678 0.60155 0.05573 0.0
H371 H 0.95848 0.58668 0.04696 0.0
H372 H 0.96744 0.55997 0.97808 0.0
H373 H 0.94286 0.58331 0.94539 0.0
H374 H 0.97879 0.63121 0.67566 0.0
H375 H 0.99111 0.58965 0.60493 0.0
H376 H 0.99619 0.55098 0.84723 0.0
C377 C 0.96644 0.64351 0.00403 0.0
C378 C 0.9564 0.66872 0.98474 0.0
C379 C 0.95478 0.67679 0.89984 0.0
C380 C 0.96355 0.6604 0.83479 0.0
C381 C 0.97323 0.63561 0.85535 0.0
C382 C 0.97438 0.62695 0.93768 0.0
C383 C 0.98294 0.59831 0.94108 0.0
C384 C 0.00902 0.59553 0.98886 0.0
C385 C 0.96166 0.58105 0.98018 0.0
C386 C 0.98615 0.59228 0.848 0.0
C387 C 0.98099 0.61429 0.79997 0.0
C388 C 0.98284 0.61381 0.71254 0.0
C389 C 0.98991 0.59013 0.67291 0.0
C390 C 0.99449 0.56707 0.72042 0.0
C391 C 0.99265 0.56827 0.80922 0.0
H392 H 0.0025 0.19561 0.19588 0.0
H393 H 0.06401 0.23655 0.33105 0.0
H394 H 0.05977 0.20535 0.44909 0.0
H395 H 0.96467 0.1715 0.39113 0.0
H396 H 0.95777 0.14082 0.33805 0.0
H397 H 0.9596 0.17091 0.27877 0.0
H398 H 0.99427 0.14934 0.18275 0.0
H399 H 0.99313 0.11954 0.24246 0.0
H400 H 0.0238 0.13628 0.2292 0.0
H401 H 0.05754 0.16417 0.53007 0.0
H402 H 0.0554 0.11777 0.57386 0.0
H403 H 0.99508 0.10293 0.3867 0.0
C404 C 0.01417 0.19861 0.25226 0.0
C405 C 0.0335 0.21829 0.25532 0.0
C406 C 0.04889 0.22169 0.32863 0.0
C407 C 0.04657 0.20408 0.39571 0.0
C408 C 0.02849 0.18364 0.3884 0.0
C409 C 0.0121 0.18118 0.31917 0.0
C410 C 0.99748 0.15531 0.31955 0.0
C411 C 0.96814 0.15992 0.3327 0.0
C412 C 0.0025 0.13919 0.23876 0.0
C413 C 0.00987 0.14259 0.39571 0.0
C414 C 0.02718 0.1595 0.43584 0.0
C415 C 0.04353 0.15103 0.50073 0.0
C416 C 0.04244 0.12459 0.5243 0.0
C417 C 0.02514 0.10698 0.48298 0.0
C418 C 0.00815 0.11624 0.41975 0.0
H419 H 0.31369 0.99055 0.17976 0.0
H420 H 0.26042 0.03786 0.3285 0.0
H421 H 0.28937 0.03214 0.45296 0.0
H422 H 0.33485 0.94524 0.34646 0.0
H423 H 0.36799 0.94456 0.30929 0.0
H424 H 0.34135 0.94934 0.23605 0.0
H425 H 0.36253 0.99261 0.18433 0.0
H426 H 0.38925 0.98782 0.25673 0.0
H427 H 0.37067 0.01798 0.25979 0.0
H428 H 0.32649 0.02576 0.55449 0.0
H429 H 0.36935 0.02039 0.6247 0.0
H430 H 0.39818 0.97739 0.40826 0.0
C431 C 0.30805 0.99974 0.2385 0.0
C432 C 0.28505 0.01499 0.24453 0.0
C433 C 0.27803 0.02615 0.32284 0.0
C434 C 0.29427 0.02291 0.39364 0.0
C435 C 0.31715 0.00822 0.38476 0.0
C436 C 0.32397 0.99678 0.3091 0.0
C437 C 0.35058 0.98392 0.31351 0.0
C438 C 0.34855 0.95398 0.30059 0.0
C439 C 0.36935 0.99633 0.24986 0.0
C440 C 0.35821 0.9907 0.40292 0.0
C441 C 0.3385 0.00438 0.44339 0.0
C442 C 0.34188 0.01476 0.52391 0.0
C443 C 0.36626 0.01175 0.56298 0.0
C444 C 0.38683 0.9985 0.5214 0.0
C445 C 0.38253 0.98717 0.44163 0.0
H446 H 0.42588 0.30701 0.24672 0.0
H447 H 0.49522 0.26053 0.29651 0.0
H448 H 0.51211 0.29571 0.39034 0.0
H449 H 0.45719 0.3634 0.21706 0.0
H450 H 0.4336 0.38531 0.26372 0.0
H451 H 0.42323 0.35429 0.22025 0.0
H452 H 0.40291 0.34061 0.36222 0.0
H453 H 0.41206 0.37218 0.40536 0.0
H454 H 0.42236 0.34239 0.45718 0.0
H455 H 0.52511 0.33958 0.45406 0.0
H456 H 0.52982 0.3859 0.50167 0.0
H457 H 0.45264 0.40344 0.40208 0.0
C458 C 0.44399 0.30376 0.28089 0.0
C459 C 0.45923 0.28119 0.26536 0.0
C460 C 0.48313 0.2776 0.3091 0.0
C461 C 0.49296 0.29758 0.36169 0.0
C462 C 0.47844 0.3207 0.36986 0.0
C463 C 0.45412 0.32357 0.3323 0.0
C464 C 0.44375 0.35125 0.3418 0.0
C465 C 0.43919 0.36431 0.25561 0.0
C466 C 0.4188 0.35162 0.39484 0.0
C467 C 0.46633 0.36375 0.38828 0.0
C468 C 0.48615 0.34593 0.40443 0.0
C469 C 0.50953 0.35359 0.44294 0.0
C470 C 0.51223 0.37997 0.4684 0.0
C471 C 0.49161 0.3981 0.45494 0.0
C472 C 0.46868 0.38991 0.41315 0.0
H473 H 0.22186 0.49053 0.31309 0.0
H474 H 0.21406 0.56836 0.20735 0.0
H475 H 0.17703 0.57763 0.30134 0.0
H476 H 0.16104 0.47572 0.30317 0.0
H477 H 0.1575 0.45735 0.39905 0.0
H478 H 0.18889 0.45966 0.35075 0.0
H479 H 0.20917 0.47909 0.48719 0.0
H480 H 0.17795 0.47599 0.53768 0.0
H481 H 0.19428 0.50736 0.53645 0.0
H482 H 0.13477 0.57394 0.37401 0.0
H483 H 0.09256 0.55901 0.43022 0.0
H484 H 0.12677 0.48267 0.48464 0.0
C485 C 0.21345 0.51012 0.3146 0.0
C486 C 0.22103 0.52907 0.25552 0.0
C487 C 0.20884 0.55402 0.25449 0.0
C488 C 0.18774 0.55934 0.30731 0.0
C489 C 0.17925 0.53947 0.36058 0.0
C490 C 0.19211 0.51549 0.36615 0.0
C491 C 0.17643 0.4958 0.41582 0.0
C492 C 0.17063 0.47069 0.36404 0.0
C493 C 0.19028 0.48918 0.49925 0.0
C494 C 0.15193 0.51168 0.43096 0.0
C495 C 0.15417 0.53703 0.40089 0.0
C496 C 0.13304 0.5544 0.40006 0.0
C497 C 0.10907 0.54567 0.43124 0.0
C498 C 0.10641 0.51968 0.46149 0.0
C499 C 0.12824 0.5027 0.46218 0.0
H500 H 0.93051 0.80973 0.97226 0.0
H501 H 0.99633 0.761 0.90179 0.0
H502 H 0.00865 0.79351 0.79439 0.0
H503 H 0.9177 0.83974 0.75323 0.0
H504 H 0.90966 0.87088 0.8015 0.0
H505 H 0.90202 0.84058 0.85429 0.0
H506 H 0.9277 0.85726 0.9851 0.0
H507 H 0.9363 0.88705 0.93194 0.0
H508 H 0.96157 0.86614 0.9747 0.0
H509 H 0.02027 0.83563 0.72496 0.0
H510 H 0.02585 0.8817 0.67822 0.0
H511 H 0.95191 0.90259 0.79144 0.0
C512 C 0.94665 0.80535 0.93086 0.0
C513 C 0.96241 0.78297 0.9442 0.0
C514 C 0.98382 0.7779 0.89104 0.0
C515 C 0.99103 0.79633 0.83039 0.0
C516 C 0.97627 0.81931 0.82316 0.0
C517 C 0.95399 0.82351 0.87011 0.0
C518 C 0.94343 0.85109 0.85834 0.0
C519 C 0.91662 0.85052 0.81416 0.0
C520 C 0.94221 0.86625 0.9425 0.0
C521 C 0.96409 0.8622 0.80166 0.0
C522 C 0.98279 0.84358 0.78153 0.0
C523 C 0.00535 0.85017 0.73802 0.0
C524 C 0.00858 0.87637 0.71295 0.0
C525 C 0.98925 0.89539 0.73137 0.0
C526 C 0.96675 0.88818 0.77573 0.0
H527 H 0.70776 0.9677 0.95933 0.0
H528 H 0.7299 0.0493 0.93357 0.0
H529 H 0.69097 0.05721 0.84344 0.0
H530 H 0.67423 0.95934 0.74496 0.0
H531 H 0.6497 0.93886 0.79187 0.0
H532 H 0.68265 0.93853 0.83267 0.0
H533 H 0.66456 0.94951 0.9806 0.0
H534 H 0.63176 0.95118 0.94005 0.0
H535 H 0.64549 0.97902 0.99538 0.0
H536 H 0.64508 0.05792 0.7829 0.0
H537 H 0.5993 0.04976 0.73849 0.0
H538 H 0.60741 0.96793 0.8111 0.0
C539 C 0.70518 0.98675 0.93008 0.0
C540 C 0.72187 0.00776 0.95098 0.0
C541 C 0.71756 0.03288 0.91566 0.0
C542 C 0.69538 0.03755 0.86535 0.0
C543 C 0.67807 0.0168 0.85118 0.0
C544 C 0.68313 0.9917 0.88078 0.0
C545 C 0.66013 0.9736 0.86697 0.0
C546 C 0.66709 0.95127 0.80542 0.0
C547 C 0.6499 0.96271 0.95072 0.0
C548 C 0.64095 0.99262 0.82816 0.0
C549 C 0.65157 0.01739 0.81874 0.0
C550 C 0.63674 0.03847 0.78866 0.0
C551 C 0.61067 0.03377 0.76498 0.0
C552 C 0.59987 0.00824 0.772 0.0
C553 C 0.61519 0.98764 0.80503 0.0
H554 H 0.50003 0.71803 0.92692 0.0
H555 H 0.58175 0.72703 0.86942 0.0
H556 H 0.57986 0.68736 0.77934 0.0
H557 H 0.50482 0.65751 0.97371 0.0
H558 H 0.47401 0.64503 0.93532 0.0
H559 H 0.47706 0.67915 0.96317 0.0
H560 H 0.46222 0.69391 0.81487 0.0
H561 H 0.45744 0.6598 0.78689 0.0
H562 H 0.47792 0.68035 0.72324 0.0
H563 H 0.57357 0.64111 0.74006 0.0
H564 H 0.56136 0.59426 0.7322 0.0
H565 H 0.48356 0.6134 0.81867 0.0
C566 C 0.51685 0.7127 0.88957 0.0
C567 C 0.54085 0.72564 0.90278 0.0
C568 C 0.56308 0.71767 0.8576 0.0
C569 C 0.56217 0.69498 0.80717 0.0
C570 C 0.53887 0.68078 0.80307 0.0
C571 C 0.51631 0.6897 0.84131 0.0
C572 C 0.49559 0.66844 0.84333 0.0
C573 C 0.48742 0.66218 0.93423 0.0
C574 C 0.47189 0.67608 0.78877 0.0
C575 C 0.51048 0.64575 0.80483 0.0
C576 C 0.53528 0.65337 0.78123 0.0
C577 C 0.55394 0.63512 0.75555 0.0
C578 C 0.54698 0.60855 0.75273 0.0
C579 C 0.52157 0.6005 0.7752 0.0
C580 C 0.50299 0.61931 0.80038 0.0
H581 H 0.81378 0.46032 0.99236 0.0
H582 H 0.77382 0.52833 0.8899 0.0
H583 H 0.80495 0.52935 0.77256 0.0
H584 H 0.8722 0.48261 0.97652 0.0
H585 H 0.88936 0.45301 0.94662 0.0
H586 H 0.85933 0.45073 0.00306 0.0
H587 H 0.8391 0.42149 0.88565 0.0
H588 H 0.86947 0.42298 0.82926 0.0
H589 H 0.83939 0.43257 0.77816 0.0
H590 H 0.84594 0.53124 0.69487 0.0
H591 H 0.8922 0.53229 0.65589 0.0
H592 H 0.90731 0.46347 0.80922 0.0
C593 C 0.81096 0.47461 0.94279 0.0
C594 C 0.79155 0.49424 0.94963 0.0
C595 C 0.78839 0.51292 0.88487 0.0
C596 C 0.80602 0.51362 0.81809 0.0
C597 C 0.82632 0.49524 0.81671 0.0
C598 C 0.82854 0.47564 0.87639 0.0
C599 C 0.85445 0.4613 0.86992 0.0
C600 C 0.86971 0.462 0.95397 0.0
C601 C 0.85035 0.4329 0.83888 0.0
C602 C 0.86755 0.47768 0.80349 0.0
C603 C 0.85063 0.49653 0.77155 0.0
C604 C 0.85911 0.51612 0.71758 0.0
C605 C 0.88553 0.51677 0.69687 0.0
C606 C 0.90327 0.49803 0.73037 0.0
C607 C 0.89402 0.47779 0.78221 0.0
H608 H 0.01898 0.21752 0.89235 0.0
H609 H 0.09233 0.19617 0.01075 0.0
H610 H 0.09358 0.15509 0.92731 0.0
H611 H 0.99048 0.16011 0.8997 0.0
H612 H 0.97442 0.15956 0.7983 0.0
H613 H 0.9824 0.19048 0.84716 0.0
H614 H 0.00886 0.20445 0.71696 0.0
H615 H 1.00048 0.17377 0.66595 0.0
H616 H 0.03421 0.18314 0.67766 0.0
H617 H 0.08202 0.11233 0.85541 0.0
H618 H 0.06085 0.0737 0.78786 0.0
H619 H 0.9949 0.12288 0.71733 0.0
C620 C 0.03606 0.20497 0.89638 0.0
C621 C 0.05583 0.2102 0.95644 0.0
C622 C 0.07734 0.19274 0.96343 0.0
C623 C 0.07811 0.16926 0.91672 0.0
C624 C 0.05741 0.16369 0.86207 0.0
C625 C 0.03716 0.18144 0.84956 0.0
C626 C 0.01601 0.16952 0.79402 0.0
C627 C 0.98927 0.16994 0.83747 0.0
C628 C 0.01482 0.18356 0.7086 0.0
C629 C 0.02636 0.14172 0.78408 0.0
C630 C 0.05059 0.13888 0.82161 0.0
C631 C 0.06328 0.1145 0.82425 0.0
C632 C 0.05102 0.09259 0.78649 0.0
C633 C 0.02611 0.09512 0.7481 0.0
C634 C 0.01384 0.12012 0.74683 0.0
H635 H 0.3061 0.04841 0.94772 0.0
H636 H 0.26449 0.97462 0.92075 0.0
H637 H 0.30111 0.95615 0.84068 0.0
H638 H 0.34194 0.04346 0.73517 0.0
H639 H 0.37101 0.0579 0.78031 0.0
H640 H 0.33928 0.06801 0.81685 0.0
H641 H 0.35282 0.05666 0.96893 0.0
H642 H 0.38445 0.0459 0.93461 0.0
H643 H 0.36401 0.02386 0.99315 0.0
H644 H 0.34534 0.94208 0.8009 0.0
H645 H 0.39167 0.93604 0.76771 0.0
H646 H 0.40544 0.01929 0.81365 0.0
C647 C 0.30413 0.02894 0.92036 0.0
C648 C 0.28238 0.01301 0.93972 0.0
C649 C 0.28066 0.98735 0.90514 0.0
C650 C 0.30156 0.97656 0.86049 0.0
C651 C 0.32371 0.99194 0.84924 0.0
C652 C 0.32482 0.01794 0.87504 0.0
C653 C 0.35186 0.02929 0.86161 0.0
C654 C 0.35097 0.05094 0.79447 0.0
C655 C 0.36397 0.03951 0.94452 0.0
C656 C 0.36613 0.00511 0.8298 0.0
C657 C 0.34945 0.98386 0.82302 0.0
C658 C 0.35842 0.95878 0.8029 0.0
C659 C 0.38492 0.95551 0.78528 0.0
C660 C 0.40222 0.97725 0.78709 0.0
C661 C 0.39269 0.00232 0.81099 0.0
H662 H 0.42892 0.31386 -0.00115 0.0
H663 H 0.47931 0.2528 0.89781 0.0
H664 H 0.4948 0.2837 0.79053 0.0
H665 H 0.41589 0.35176 0.80131 0.0
H666 H 0.41883 0.38273 0.85649 0.0
H667 H 0.4066 0.35421 0.91023 0.0
H668 H 0.44231 0.36034 0.02514 0.0
H669 H 0.45502 0.38844 0.97092 0.0
H670 H 0.47613 0.36102 0.99505 0.0
H671 H 0.51125 0.3227 0.7141 0.0
H672 H 0.52484 0.36634 0.66461 0.0
H673 H 0.46586 0.40332 0.82021 0.0
C674 C 0.44259 0.30669 0.95246 0.0
C675 C 0.45286 0.28078 0.95697 0.0
C676 C 0.47073 0.27227 0.89504 0.0
C677 C 0.47988 0.28983 0.83427 0.0
C678 C 0.47094 0.31579 0.83627 0.0
C679 C 0.45244 0.32415 0.89314 0.0
C680 C 0.4488 0.3538 0.8902 0.0
C681 C 0.42087 0.36104 0.86288 0.0
C682 C 0.45599 0.36663 0.97535 0.0
C683 C 0.46837 0.36086 0.8233 0.0
C684 C 0.48086 0.3386 0.79299 0.0
C685 C 0.50126 0.34019 0.73614 0.0
C686 C 0.509 0.36511 0.70906 0.0
C687 C 0.49632 0.38816 0.73854 0.0
C688 C 0.4756 0.38597 0.79586 0.0
H689 H 0.20373 0.54016 0.95211 0.0
H690 H 0.21597 0.45598 0.96486 0.0
H691 H 0.17657 0.44895 0.8751 0.0
H692 H 0.13781 0.538 0.98065 0.0
H693 H 0.12971 0.56511 0.91248 0.0
H694 H 0.1613 0.56367 0.96254 0.0
H695 H 0.18414 0.56627 0.81787 0.0
H696 H 0.1526 0.5686 0.76734 0.0
H697 H 0.17524 0.54326 0.73577 0.0
H698 H 0.13175 0.45181 0.7986 0.0
H699 H 0.08934 0.46422 0.73321 0.0
H700 H 0.10678 0.54657 0.77964 0.0
C701 C 0.19876 0.52029 0.93278 0.0
C702 C 0.21313 0.49862 0.96376 0.0
C703 C 0.2056 0.47284 0.9398 0.0
C704 C 0.18306 0.46872 0.88975 0.0
C705 C 0.1684 0.4906 0.86439 0.0
C706 C 0.17632 0.51591 0.88419 0.0
C707 C 0.15631 0.53613 0.85673 0.0
C708 C 0.14567 0.55162 0.93261 0.0
C709 C 0.16776 0.55465 0.79046 0.0
C710 C 0.13564 0.51839 0.81894 0.0
C711 C 0.14281 0.49218 0.82345 0.0
C712 C 0.12617 0.47232 0.79424 0.0
C713 C 0.10198 0.47953 0.75792 0.0
C714 C 0.09461 0.50639 0.75147 0.0
C715 C 0.11171 0.52587 0.78341 0.0
H716 H 0.0077 0.80243 0.20121 0.0
H717 H 0.93363 0.78123 0.31019 0.0
H718 H 0.93588 0.82074 0.40282 0.0
H719 H 0.03868 0.83233 0.39053 0.0
H720 H 0.05368 0.85771 0.32873 0.0
H721 H 0.04764 0.82576 0.283 0.0
H722 H 0.02175 0.84809 0.16196 0.0
H723 H 0.02687 0.88002 0.20878 0.0
H724 H 0.99418 0.86876 0.18656 0.0
H725 H 0.94387 0.86635 0.46863 0.0
H726 H 0.95989 0.90984 0.51739 0.0
H727 H 0.02862 0.90064 0.36285 0.0
C728 C 0.99259 0.80547 0.24754 0.0
C729 C 0.97081 0.78849 0.25036 0.0
C730 C 0.95082 0.79359 0.30904 0.0
C731 C 0.9518 0.8162 0.36081 0.0
C732 C 0.97289 0.83341 0.35274 0.0
C733 C 0.99317 0.82795 0.29859 0.0
C734 C 0.01269 0.85027 0.29652 0.0
C735 C 0.03978 0.84096 0.32654 0.0
C736 C 0.01393 0.86249 0.20823 0.0
C737 C 1.00048 0.86917 0.35863 0.0
C738 C 0.97734 0.85936 0.38965 0.0
C739 C 0.96209 0.87402 0.44526 0.0
C740 C 0.97119 0.89887 0.47182 0.0
C741 C 0.99544 0.90867 0.44352 0.0
C742 C 0.01 0.89367 0.38541 0.0
H743 H 0.69489 0.97286 0.2132 0.0
H744 H 0.74398 0.03384 0.32183 0.0
H745 H 0.71127 0.04137 0.43287 0.0
H746 H 0.63836 0.00712 0.22895 0.0
H747 H 0.61738 0.97976 0.25262 0.0
H748 H 0.64682 0.97438 0.19422 0.0
H749 H 0.66285 0.94019 0.30347 0.0
H750 H 0.63308 0.94489 0.36127 0.0
H751 H 0.6642 0.94908 0.41338 0.0
H752 H 0.67026 0.04807 0.51357 0.0
H753 H 0.62548 0.05067 0.5682 0.0
H754 H 0.60225 0.98592 0.40498 0.0
C755 C 0.69915 0.98717 0.26216 0.0
C756 C 0.72198 0.00276 0.25926 0.0
C757 C 0.72684 0.02143 0.32374 0.0
C758 C 0.70827 0.02595 0.3866 0.0
C759 C 0.68516 0.01144 0.38419 0.0
C760 C 0.68073 0.99208 0.32446 0.0
C761 C 0.65317 0.98141 0.32932 0.0
C762 C 0.63806 0.98595 0.24638 0.0
C763 C 0.65335 0.95215 0.35333 0.0
C764 C 0.64248 0.99834 0.39967 0.0
C765 C 0.6613 0.01541 0.43068 0.0
C766 C 0.65554 0.03444 0.49103 0.0
C767 C 0.62997 0.03592 0.52101 0.0
C768 C 0.61047 0.01843 0.49084 0.0
C769 C 0.61689 0.99928 0.42986 0.0
H770 H 0.51251 0.68953 0.1396 0.0
H771 H 0.5668 0.73433 0.29469 0.0
H772 H 0.56598 0.69876 0.40141 0.0
H773 H 0.47479 0.65892 0.29667 0.0
H774 H 0.47322 0.62788 0.24136 0.0
H775 H 0.47646 0.65799 0.18341 0.0
H776 H 0.51804 0.63953 0.11199 0.0
H777 H 0.51499 0.60942 0.17016 0.0
H778 H 0.54483 0.62807 0.17628 0.0
H779 H 0.5605 0.65597 0.48724 0.0
H780 H 0.54904 0.61251 0.54614 0.0
H781 H 0.50148 0.59582 0.32514 0.0
C782 C 0.52432 0.69206 0.1959 0.0
C783 C 0.53997 0.71471 0.2082 0.0
C784 C 0.55452 0.7173 0.28399 0.0
C785 C 0.55439 0.69704 0.3444 0.0
C786 C 0.53983 0.67433 0.32742 0.0
C787 C 0.52508 0.67189 0.25471 0.0
C788 C 0.51232 0.64518 0.24744 0.0
C789 C 0.48242 0.64766 0.24198 0.0
C790 C 0.5232 0.62964 0.17201 0.0
C791 C 0.52116 0.63314 0.32939 0.0
C792 C 0.53729 0.64998 0.37452 0.0
C793 C 0.54792 0.64272 0.45213 0.0
C794 C 0.54145 0.6179 0.4848 0.0
C795 C 0.52439 0.60076 0.44003 0.0
C796 C 0.5145 0.60848 0.36092 0.0
H797 H 0.8282 0.53036 0.20157 0.0
H798 H 0.77701 0.47667 0.33161 0.0
H799 H 0.81107 0.47017 0.44111 0.0
H800 H 0.88377 0.49424 0.22389 0.0
H801 H 0.90597 0.52135 0.23938 0.0
H802 H 0.87607 0.52618 0.18132 0.0
H803 H 0.86276 0.56399 0.28224 0.0
H804 H 0.89289 0.55963 0.34006 0.0
H805 H 0.86213 0.55821 0.39398 0.0
H806 H 0.85278 0.46359 0.52063 0.0
H807 H 0.89807 0.45926 0.5712 0.0
H808 H 0.9231 0.51752 0.39071 0.0
C809 C 0.82389 0.51785 0.25458 0.0
C810 C 0.79993 0.50405 0.25845 0.0
C811 C 0.79502 0.48771 0.32818 0.0
C812 C 0.81434 0.48382 0.3903 0.0
C813 C 0.83825 0.49671 0.38216 0.0
C814 C 0.84294 0.51375 0.31677 0.0
C815 C 0.87105 0.52324 0.31792 0.0
C816 C 0.88503 0.5158 0.23577 0.0
C817 C 0.87227 0.55304 0.33456 0.0
C818 C 0.88188 0.50793 0.39201 0.0
C819 C 0.86248 0.49299 0.42858 0.0
C820 C 0.86796 0.47553 0.49341 0.0
C821 C 0.89385 0.47306 0.52113 0.0
C822 C 0.91411 0.48806 0.48474 0.0
C823 C 0.90795 0.5061 0.42032 0.0
loop_
_geom_bond_atom_site_label_1
_geom_bond_atom_site_label_2
_geom_bond_distance
_geom_bond_site_symmetry_2
_ccdc_geom_bond_type
H0 C5 0.930 . S
H1 C8 0.930 . S
H2 C10 0.930 . S
H3 C4 1.016 . S
C4 H3 1.016 . S
C4 N11 1.286 1_556 S
C5 H0 0.930 . S
C5 C6 1.397 . S
C5 C7 1.361 . S
C6 C5 1.397 . S
C6 C10 1.390 . S
C7 C5 1.361 . S
C7 C8 1.393 1_554 S
C7 N11 1.413 . S
C8 H1 0.930 . S
C8 C7 1.393 1_556 S
C8 C9 1.399 . S
C9 C8 1.399 . S
C9 C10 1.381 1_556 S
C10 H2 0.930 . S
C10 C6 1.390 . S
C10 C9 1.381 1_554 S
N11 C4 1.286 1_554 S
N11 C7 1.413 . S
H12 C17 0.930 . S
H13 C20 0.930 . S
H14 C22 0.930 . S
H15 C16 1.016 . S
C16 H15 1.016 . S
C16 N23 1.286 1_556 S
C17 H12 0.930 . S
C17 C18 1.397 . S
C17 C19 1.361 . S
C18 C17 1.397 . S
C18 C22 1.390 . S
C19 C17 1.361 . S
C19 C20 1.393 1_554 S
C19 N23 1.413 . S
C20 H13 0.930 . S
C20 C19 1.393 1_556 S
C20 C21 1.399 . S
C21 C20 1.399 . S
C21 C22 1.381 1_556 S
C22 H14 0.930 . S
C22 C18 1.390 . S
C22 C21 1.381 1_554 S
N23 C16 1.286 1_554 S
N23 C19 1.413 . S
H24 C29 0.930 . S
H25 C32 0.930 . S
H26 C34 0.930 . S
H27 C28 1.029 . S
C28 H27 1.029 . S
C28 N35 1.268 1_566 S
C29 H24 0.930 . S
C29 C30 1.397 . S
C29 C31 1.361 . S
C30 C29 1.397 . S
C30 C34 1.390 1_545 S
C31 C29 1.361 . S
C31 C32 1.393 1_554 S
C31 N35 1.413 . S
C32 H25 0.930 . S
C32 C31 1.393 1_556 S
C32 C33 1.402 . S
C33 C32 1.402 . S
C33 C34 1.379 1_546 S
C34 H26 0.930 . S
C34 C30 1.390 1_565 S
C34 C33 1.379 1_564 S
N35 C28 1.268 1_544 S
N35 C31 1.413 . S
H36 C41 0.930 . S
H37 C44 0.930 . S
H38 C46 0.930 . S
H39 C40 1.016 . S
C40 H39 1.016 . S
C40 N47 1.286 1_556 S
C41 H36 0.930 . S
C41 C42 1.397 . S
C41 C43 1.361 . S
C42 C41 1.397 . S
C42 C46 1.390 . S
C43 C41 1.361 . S
C43 C44 1.393 1_554 S
C43 N47 1.413 . S
C44 H37 0.930 . S
C44 C43 1.393 1_556 S
C44 C45 1.399 . S
C45 C44 1.399 . S
C45 C46 1.381 1_556 S
C46 H38 0.930 . S
C46 C42 1.390 . S
C46 C45 1.381 1_554 S
N47 C40 1.286 1_554 S
N47 C43 1.413 . S
H48 C53 0.930 . S
H49 C56 0.930 . S
H50 C58 0.930 . S
H51 C52 1.016 . S
C52 H51 1.016 . S
C52 N59 1.286 . S
C53 H48 0.930 . S
C53 C54 1.397 . S
C53 C55 1.361 . S
C54 C53 1.397 . S
C54 C58 1.390 . S
C55 C53 1.361 . S
C55 C56 1.393 . S
C55 N59 1.413 . S
C56 H49 0.930 . S
C56 C55 1.393 . S
C56 C57 1.399 . S
C57 C56 1.399 . S
C57 C58 1.381 . S
C58 H50 0.930 . S
C58 C54 1.390 . S
C58 C57 1.381 . S
N59 C52 1.286 . S
N59 C55 1.413 . S
H60 C65 0.930 . S
H61 C68 0.930 . S
H62 C70 0.930 . S
H63 C64 1.016 . S
C64 H63 1.016 . S
C64 N71 1.286 . S
C65 H60 0.930 . S
C65 C66 1.397 . S
C65 C67 1.361 . S
C66 C65 1.397 . S
C66 C70 1.390 . S
C67 C65 1.361 . S
C67 C68 1.393 . S
C67 N71 1.413 . S
C68 H61 0.930 . S
C68 C67 1.393 . S
C68 C69 1.399 . S
C69 C68 1.399 . S
C69 C70 1.381 . S
C70 H62 0.930 . S
C70 C66 1.390 . S
C70 C69 1.381 . S
N71 C64 1.286 . S
N71 C67 1.413 . S
H72 C77 0.930 . S
H73 C80 0.930 . S
H74 C82 0.930 . S
H75 C76 1.026 . S
C76 H75 1.026 . S
C76 N83 1.273 1_565 S
C77 H72 0.930 . S
C77 C78 1.397 . S
C77 C79 1.361 . S
C78 C77 1.397 . S
C78 C82 1.390 1_545 S
C79 C77 1.361 . S
C79 C80 1.393 . S
C79 N83 1.413 . S
C80 H73 0.930 . S
C80 C79 1.393 . S
C80 C81 1.404 . S
C81 C80 1.404 . S
C81 C82 1.378 1_545 S
C82 H74 0.930 . S
C82 C78 1.390 1_565 S
C82 C81 1.378 1_565 S
N83 C76 1.273 1_545 S
N83 C79 1.413 . S
H84 C89 0.930 . S
H85 C92 0.930 . S
H86 C94 0.930 . S
H87 C88 1.016 . S
C88 H87 1.016 . S
C88 N95 1.286 . S
C89 H84 0.930 . S
C89 C90 1.397 . S
C89 C91 1.361 . S
C90 C89 1.397 . S
C90 C94 1.390 . S
C91 C89 1.361 . S
C91 C92 1.393 . S
C91 N95 1.413 . S
C92 H85 0.930 . S
C92 C91 1.393 . S
C92 C93 1.399 . S
C93 C92 1.399 . S
C93 C94 1.381 . S
C94 H86 0.930 . S
C94 C90 1.390 . S
C94 C93 1.381 . S
N95 C88 1.286 . S
N95 C91 1.413 . S
Zn96 O102 1.969 1_455 S
Zn96 O103 1.965 . S
Zn96 O107 2.024 . S
Zn96 O112 1.969 1_455 S
Zn97 O104 1.990 . S
Zn97 O110 1.978 . S
Zn97 O111 1.955 1_455 S
Zn97 O113 2.011 1_455 S
C98 O99 1.229 . S
C98 O107 1.058 . S
O99 C98 1.229 . S
C100 O101 1.229 1_655 S
C100 O113 1.058 . S
O101 C100 1.229 1_455 S
O102 Zn96 1.969 1_655 S
O102 C105 1.267 1_655 S
O103 Zn96 1.965 . S
O103 C114 1.260 1_545 S
O104 Zn97 1.990 . S
O104 C114 1.258 . S
C105 O102 1.267 1_455 S
C105 O106 1.228 . S
O106 C105 1.228 . S
O107 Zn96 2.024 . S
O107 C98 1.058 . S
C108 O109 1.228 . S
C108 O110 1.267 1_655 S
O109 C108 1.228 . S
O110 Zn97 1.978 . S
O110 C108 1.267 1_455 S
O111 Zn97 1.955 1_655 S
O111 C115 1.260 1_565 S
O112 Zn96 1.969 1_655 S
O112 C115 1.258 . S
O113 Zn97 2.011 1_655 S
O113 C100 1.058 . S
C114 O103 1.260 1_565 S
C114 O104 1.258 . S
C115 O111 1.260 1_545 S
C115 O112 1.258 . S
Zn116 O122 1.969 . S
Zn116 O123 1.965 1_565 S
Zn116 O127 2.024 1_565 S
Zn116 O132 1.969 . S
Zn117 O124 1.969 . S
Zn117 O130 1.969 . S
Zn117 O131 1.965 1_545 S
Zn117 O133 2.024 1_545 S
C118 O119 1.229 1_545 S
C118 O127 1.058 . S
O119 C118 1.229 1_565 S
C120 O121 1.229 1_565 S
C120 O133 1.058 . S
O121 C120 1.229 1_545 S
O122 Zn116 1.969 . S
O122 C125 1.267 . S
O123 Zn116 1.965 1_545 S
O123 C134 1.260 . S
O124 Zn117 1.969 . S
O124 C134 1.258 . S
C125 O122 1.267 . S
C125 O126 1.228 1_565 S
O126 C125 1.228 1_545 S
O127 Zn116 2.024 1_545 S
O127 C118 1.058 . S
C128 O129 1.228 1_545 S
C128 O130 1.267 . S
O129 C128 1.228 1_565 S
O130 Zn117 1.969 . S
O130 C128 1.267 . S
O131 Zn117 1.965 1_565 S
O131 C135 1.260 . S
O132 Zn116 1.969 . S
O132 C135 1.258 . S
O133 Zn117 2.024 1_565 S
O133 C120 1.058 . S
C134 O123 1.260 . S
C134 O124 1.258 . S
C135 O131 1.260 . S
C135 O132 1.258 . S
Zn136 O142 1.969 . S
Zn136 O143 1.965 . S
Zn136 O147 2.024 . S
Zn136 O152 1.969 . S
Zn137 O144 1.969 . S
Zn137 O150 1.969 . S
Zn137 O151 1.965 . S
Zn137 O153 2.024 . S
C138 O139 1.229 . S
C138 O147 1.058 . S
O139 C138 1.229 . S
C140 O141 1.229 . S
C140 O153 1.058 . S
O141 C140 1.229 . S
O142 Zn136 1.969 . S
O142 C145 1.267 . S
O143 Zn136 1.965 . S
O143 C154 1.260 . S
O144 Zn137 1.969 . S
O144 C154 1.258 . S
C145 O142 1.267 . S
C145 O146 1.228 . S
O146 C145 1.228 . S
O147 Zn136 2.024 . S
O147 C138 1.058 . S
C148 O149 1.228 . S
C148 O150 1.267 . S
O149 C148 1.228 . S
O150 Zn137 1.969 . S
O150 C148 1.267 . S
O151 Zn137 1.965 . S
O151 C155 1.260 . S
O152 Zn136 1.969 . S
O152 C155 1.258 . S
O153 Zn137 2.024 . S
O153 C140 1.058 . S
C154 O143 1.260 . S
C154 O144 1.258 . S
C155 O151 1.260 . S
C155 O152 1.258 . S
Zn156 O162 1.969 . S
Zn156 O163 1.965 . S
Zn156 O167 2.024 . S
Zn156 O172 1.969 . S
Zn157 O164 1.969 . S
Zn157 O170 1.969 . S
Zn157 O171 1.965 . S
Zn157 O173 2.024 . S
C158 O159 1.229 . S
C158 O167 1.058 . S
O159 C158 1.229 . S
C160 O161 1.229 . S
C160 O173 1.058 . S
O161 C160 1.229 . S
O162 Zn156 1.969 . S
O162 C165 1.267 . S
O163 Zn156 1.965 . S
O163 C174 1.260 . S
O164 Zn157 1.969 . S
O164 C174 1.258 1_655 S
C165 O162 1.267 . S
C165 O166 1.228 . S
O166 C165 1.228 . S
O167 Zn156 2.024 . S
O167 C158 1.058 . S
C168 O169 1.228 . S
C168 O170 1.267 . S
O169 C168 1.228 . S
O170 Zn157 1.969 . S
O170 C168 1.267 . S
O171 Zn157 1.965 . S
O171 C175 1.260 1_655 S
O172 Zn156 1.969 . S
O172 C175 1.258 . S
O173 Zn157 2.024 . S
O173 C160 1.058 . S
C174 O163 1.260 . S
C174 O164 1.258 1_455 S
C175 O171 1.260 1_455 S
C175 O172 1.258 . S
H176 C188 0.930 . S
H177 C190 0.930 . S
H178 C191 0.930 . S
H179 C195 0.959 . S
H180 C195 0.959 . S
H181 C195 0.961 . S
H182 C196 0.963 . S
H183 C196 0.965 . S
H184 C196 0.945 1_565 S
H185 C199 0.929 . S
H186 C200 0.931 . S
H187 C202 0.930 . S
C188 H176 0.930 . S
C188 C189 1.399 1_545 S
C188 C193 1.399 . S
C189 C188 1.399 1_565 S
C189 C190 1.376 . S
C190 H177 0.930 . S
C190 C189 1.376 . S
C190 C191 1.388 . S
C191 H178 0.930 . S
C191 C190 1.388 . S
C191 C192 1.390 . S
C192 C191 1.390 . S
C192 C193 1.394 1_565 S
C192 C198 1.465 . S
C193 C188 1.399 . S
C193 C192 1.394 1_545 S
C193 C194 1.516 . S
C194 C193 1.516 . S
C194 C195 1.502 . S
C194 C196 1.568 . S
C194 C197 1.526 . S
C195 H179 0.959 . S
C195 H180 0.959 . S
C195 H181 0.961 . S
C195 C194 1.502 . S
C196 H182 0.963 . S
C196 H183 0.965 . S
C196 H184 0.945 1_545 S
C196 C194 1.568 . S
C197 C194 1.526 . S
C197 C198 1.396 1_545 S
C197 C202 1.390 . S
C198 C192 1.465 . S
C198 C197 1.396 1_565 S
C198 C199 1.399 . S
C199 H185 0.929 . S
C199 C198 1.399 . S
C199 C200 1.385 . S
C200 H186 0.931 . S
C200 C199 1.385 . S
C200 C201 1.389 . S
C201 C200 1.389 . S
C201 C202 1.387 1_565 S
C202 H187 0.930 . S
C202 C197 1.390 . S
C202 C201 1.387 1_545 S
H203 C215 0.930 . S
H204 C217 0.930 . S
H205 C218 0.930 . S
H206 C222 0.959 . S
H207 C222 0.959 . S
H208 C222 0.961 . S
H209 C223 0.960 . S
H210 C223 0.961 . S
H211 C223 0.959 . S
H212 C226 0.929 . S
H213 C227 0.931 . S
H214 C229 0.930 . S
C215 H203 0.930 . S
C215 C216 1.399 . S
C215 C220 1.399 . S
C216 C215 1.399 . S
C216 C217 1.376 . S
C217 H204 0.930 . S
C217 C216 1.376 . S
C217 C218 1.388 . S
C218 H205 0.930 . S
C218 C217 1.388 . S
C218 C219 1.390 . S
C219 C218 1.390 . S
C219 C220 1.394 . S
C219 C225 1.465 . S
C220 C215 1.399 . S
C220 C219 1.394 . S
C220 C221 1.516 . S
C221 C220 1.516 . S
C221 C222 1.502 . S
C221 C223 1.561 . S
C221 C224 1.526 . S
C222 H206 0.959 . S
C222 H207 0.959 . S
C222 H208 0.961 . S
C222 C221 1.502 . S
C223 H209 0.960 . S
C223 H210 0.961 . S
C223 H211 0.959 . S
C223 C221 1.561 . S
C224 C221 1.526 . S
C224 C225 1.396 . S
C224 C229 1.390 . S
C225 C219 1.465 . S
C225 C224 1.396 . S
C225 C226 1.399 . S
C226 H212 0.929 . S
C226 C225 1.399 . S
C226 C227 1.385 . S
C227 H213 0.931 . S
C227 C226 1.385 . S
C227 C228 1.389 . S
C228 C227 1.389 . S
C228 C229 1.387 . S
C229 H214 0.930 . S
C229 C224 1.390 . S
C229 C228 1.387 . S
H230 C242 0.930 . S
H231 C244 0.930 . S
H232 C245 0.930 . S
H233 C249 0.959 . S
H234 C249 0.959 . S
H235 C249 0.961 . S
H236 C250 0.960 . S
H237 C250 0.961 . S
H238 C250 0.959 . S
H239 C253 0.929 . S
H240 C254 0.931 . S
H241 C256 0.930 . S
C242 H230 0.930 . S
C242 C243 1.399 . S
C242 C247 1.399 . S
C243 C242 1.399 . S
C243 C244 1.376 . S
C244 H231 0.930 . S
C244 C243 1.376 . S
C244 C245 1.388 . S
C245 H232 0.930 . S
C245 C244 1.388 . S
C245 C246 1.390 . S
C246 C245 1.390 . S
C246 C247 1.394 . S
C246 C252 1.465 . S
C247 C242 1.399 . S
C247 C246 1.394 . S
C247 C248 1.516 . S
C248 C247 1.516 . S
C248 C249 1.502 . S
C248 C250 1.561 . S
C248 C251 1.526 . S
C249 H233 0.959 . S
C249 H234 0.959 . S
C249 H235 0.961 . S
C249 C248 1.502 . S
C250 H236 0.960 . S
C250 H237 0.961 . S
C250 H238 0.959 . S
C250 C248 1.561 . S
C251 C248 1.526 . S
C251 C252 1.396 . S
C251 C256 1.390 . S
C252 C246 1.465 . S
C252 C251 1.396 . S
C252 C253 1.399 . S
C253 H239 0.929 . S
C253 C252 1.399 . S
C253 C254 1.385 . S
C254 H240 0.931 . S
C254 C253 1.385 . S
C254 C255 1.389 . S
C255 C254 1.389 . S
C255 C256 1.387 . S
C256 H241 0.930 . S
C256 C251 1.390 . S
C256 C255 1.387 . S
H257 C269 0.930 . S
H258 C271 0.930 . S
H259 C272 0.930 . S
H260 C276 0.959 . S
H261 C276 0.959 . S
H262 C276 0.961 . S
H263 C277 0.960 . S
H264 C277 0.961 . S
H265 C277 0.959 . S
H266 C280 0.929 1_655 S
H267 C281 0.931 1_655 S
H268 C283 0.930 . S
C269 H257 0.930 . S
C269 C270 1.399 . S
C269 C274 1.399 . S
C270 C269 1.399 . S
C270 C271 1.376 . S
C271 H258 0.930 . S
C271 C270 1.376 . S
C271 C272 1.388 . S
C272 H259 0.930 . S
C272 C271 1.388 . S
C272 C273 1.390 . S
C273 C272 1.390 . S
C273 C274 1.394 . S
C273 C279 1.465 . S
C274 C269 1.399 . S
C274 C273 1.394 . S
C274 C275 1.516 . S
C275 C274 1.516 . S
C275 C276 1.502 . S
C275 C277 1.561 . S
C275 C278 1.526 . S
C276 H260 0.959 . S
C276 H261 0.959 . S
C276 H262 0.961 . S
C276 C275 1.502 . S
C277 H263 0.960 . S
C277 H264 0.961 . S
C277 H265 0.959 . S
C277 C275 1.561 . S
C278 C275 1.526 . S
C278 C279 1.396 . S
C278 C283 1.390 . S
C279 C273 1.465 . S
C279 C278 1.396 . S
C279 C280 1.399 . S
C280 H266 0.929 1_455 S
C280 C279 1.399 . S
C280 C281 1.385 . S
C281 H267 0.931 1_455 S
C281 C280 1.385 . S
C281 C282 1.389 . S
C282 C281 1.389 . S
C282 C283 1.387 . S
C283 H268 0.930 . S
C283 C278 1.390 . S
C283 C282 1.387 . S
H284 C296 0.930 . S
H285 C298 0.930 . S
H286 C299 0.930 . S
H287 C303 0.959 . S
H288 C303 0.959 . S
H289 C303 0.961 . S
H290 C304 0.960 . S
H291 C304 0.961 . S
H292 C304 0.959 . S
H293 C307 0.929 . S
H294 C308 0.931 . S
H295 C310 0.930 . S
C296 H284 0.930 . S
C296 C297 1.399 1_565 S
C296 C301 1.399 . S
C297 C296 1.399 1_545 S
C297 C298 1.376 . S
C298 H285 0.930 . S
C298 C297 1.376 . S
C298 C299 1.388 . S
C299 H286 0.930 . S
C299 C298 1.388 . S
C299 C300 1.390 . S
C300 C299 1.390 . S
C300 C301 1.394 1_545 S
C300 C306 1.465 . S
C301 C296 1.399 . S
C301 C300 1.394 1_565 S
C301 C302 1.516 . S
C302 C301 1.516 . S
C302 C303 1.502 . S
C302 C304 1.561 . S
C302 C305 1.526 . S
C303 H287 0.959 . S
C303 H288 0.959 . S
C303 H289 0.961 . S
C303 C302 1.502 . S
C304 H290 0.960 . S
C304 H291 0.961 . S
C304 H292 0.959 . S
C304 C302 1.561 . S
C305 C302 1.526 . S
C305 C306 1.396 1_565 S
C305 C310 1.390 . S
C306 C300 1.465 . S
C306 C305 1.396 1_545 S
C306 C307 1.399 . S
C307 H293 0.929 . S
C307 C306 1.399 . S
C307 C308 1.385 . S
C308 H294 0.931 . S
C308 C307 1.385 . S
C308 C309 1.389 . S
C309 C308 1.389 . S
C309 C310 1.387 1_545 S
C310 H295 0.930 . S
C310 C305 1.390 . S
C310 C309 1.387 1_565 S
H311 C323 0.930 . S
H312 C325 0.930 . S
H313 C326 0.930 . S
H314 C330 0.959 . S
H315 C330 0.959 . S
H316 C330 0.961 . S
H317 C331 0.960 . S
H318 C331 0.961 . S
H319 C331 0.959 . S
H320 C334 0.929 . S
H321 C335 0.931 . S
H322 C337 0.930 . S
C323 H311 0.930 . S
C323 C324 1.399 . S
C323 C328 1.399 . S
C324 C323 1.399 . S
C324 C325 1.376 . S
C325 H312 0.930 . S
C325 C324 1.376 . S
C325 C326 1.388 . S
C326 H313 0.930 . S
C326 C325 1.388 . S
C326 C327 1.390 . S
C327 C326 1.390 . S
C327 C328 1.394 . S
C327 C333 1.465 . S
C328 C323 1.399 . S
C328 C327 1.394 . S
C328 C329 1.516 . S
C329 C328 1.516 . S
C329 C330 1.502 . S
C329 C331 1.561 . S
C329 C332 1.526 . S
C330 H314 0.959 . S
C330 H315 0.959 . S
C330 H316 0.961 . S
C330 C329 1.502 . S
C331 H317 0.960 . S
C331 H318 0.961 . S
C331 H319 0.959 . S
C331 C329 1.561 . S
C332 C329 1.526 . S
C332 C333 1.396 . S
C332 C337 1.390 . S
C333 C327 1.465 . S
C333 C332 1.396 . S
C333 C334 1.399 . S
C334 H320 0.929 . S
C334 C333 1.399 . S
C334 C335 1.385 . S
C335 H321 0.931 . S
C335 C334 1.385 . S
C335 C336 1.389 . S
C336 C335 1.389 . S
C336 C337 1.387 . S
C337 H322 0.930 . S
C337 C332 1.390 . S
C337 C336 1.387 . S
H338 C350 0.930 . S
H339 C352 0.930 . S
H340 C353 0.930 . S
H341 C357 0.959 . S
H342 C357 0.959 . S
H343 C357 0.961 . S
H344 C358 0.960 . S
H345 C358 0.961 . S
H346 C358 0.959 . S
H347 C361 0.929 . S
H348 C362 0.931 . S
H349 C364 0.930 . S
C350 H338 0.930 . S
C350 C351 1.399 . S
C350 C355 1.399 . S
C351 C350 1.399 . S
C351 C352 1.376 . S
C352 H339 0.930 . S
C352 C351 1.376 . S
C352 C353 1.388 . S
C353 H340 0.930 . S
C353 C352 1.388 . S
C353 C354 1.390 . S
C354 C353 1.390 . S
C354 C355 1.394 . S
C354 C360 1.465 . S
C355 C350 1.399 . S
C355 C354 1.394 . S
C355 C356 1.516 . S
C356 C355 1.516 . S
C356 C357 1.502 . S
C356 C358 1.561 . S
C356 C359 1.526 . S
C357 H341 0.959 . S
C357 H342 0.959 . S
C357 H343 0.961 . S
C357 C356 1.502 . S
C358 H344 0.960 . S
C358 H345 0.961 . S
C358 H346 0.959 . S
C358 C356 1.561 . S
C359 C356 1.526 . S
C359 C360 1.396 . S
C359 C364 1.390 . S
C360 C354 1.465 . S
C360 C359 1.396 . S
C360 C361 1.399 . S
C361 H347 0.929 . S
C361 C360 1.399 . S
C361 C362 1.385 . S
C362 H348 0.931 . S
C362 C361 1.385 . S
C362 C363 1.389 . S
C363 C362 1.389 . S
C363 C364 1.387 . S
C364 H349 0.930 . S
C364 C359 1.390 . S
C364 C363 1.387 . S
H365 C377 0.930 1_554 S
H366 C379 0.930 . S
H367 C380 0.930 . S
H368 C384 0.959 . S
H369 C384 0.959 . S
H370 C384 0.961 1_554 S
H371 C385 0.960 1_554 S
H372 C385 0.961 . S
H373 C385 0.959 . S
H374 C388 0.929 . S
H375 C389 0.931 . S
H376 C391 0.930 . S
C377 H365 0.930 1_556 S
C377 C378 1.399 . S
C377 C382 1.399 . S
C378 C377 1.399 . S
C378 C379 1.376 . S
C379 H366 0.930 . S
C379 C378 1.376 . S
C379 C380 1.388 . S
C380 H367 0.930 . S
C380 C379 1.388 . S
C380 C381 1.390 . S
C381 C380 1.390 . S
C381 C382 1.394 . S
C381 C387 1.465 . S
C382 C377 1.399 . S
C382 C381 1.394 . S
C382 C383 1.516 . S
C383 C382 1.516 . S
C383 C384 1.502 1_655 S
C383 C385 1.561 . S
C383 C386 1.526 . S
C384 H368 0.959 . S
C384 H369 0.959 . S
C384 H370 0.961 1_556 S
C384 C383 1.502 1_455 S
C385 H371 0.960 1_556 S
C385 H372 0.961 . S
C385 H373 0.959 . S
C385 C383 1.561 . S
C386 C383 1.526 . S
C386 C387 1.396 . S
C386 C391 1.390 . S
C387 C381 1.465 . S
C387 C386 1.396 . S
C387 C388 1.399 . S
C388 H374 0.929 . S
C388 C387 1.399 . S
C388 C389 1.385 . S
C389 H375 0.931 . S
C389 C388 1.385 . S
C389 C390 1.389 . S
C390 C389 1.389 . S
C390 C391 1.387 . S
C391 H376 0.930 . S
C391 C386 1.390 . S
C391 C390 1.387 . S
H392 C404 0.930 . S
H393 C406 0.930 . S
H394 C407 0.930 . S
H395 C411 0.959 . S
H396 C411 0.959 . S
H397 C411 0.961 . S
H398 C412 0.960 . S
H399 C412 0.961 . S
H400 C412 0.959 . S
H401 C415 0.929 . S
H402 C416 0.931 . S
H403 C418 0.930 1_655 S
C404 H392 0.930 . S
C404 C405 1.399 . S
C404 C409 1.399 . S
C405 C404 1.399 . S
C405 C406 1.376 . S
C406 H393 0.930 . S
C406 C405 1.376 . S
C406 C407 1.388 . S
C407 H394 0.930 . S
C407 C406 1.388 . S
C407 C408 1.390 . S
C408 C407 1.390 . S
C408 C409 1.394 . S
C408 C414 1.465 . S
C409 C404 1.399 . S
C409 C408 1.394 . S
C409 C410 1.516 . S
C410 C409 1.516 . S
C410 C411 1.502 1_455 S
C410 C412 1.561 . S
C410 C413 1.526 . S
C411 H395 0.959 . S
C411 H396 0.959 . S
C411 H397 0.961 . S
C411 C410 1.502 1_655 S
C412 H398 0.960 . S
C412 H399 0.961 . S
C412 H400 0.959 . S
C412 C410 1.561 . S
C413 C410 1.526 . S
C413 C414 1.396 . S
C413 C418 1.390 . S
C414 C408 1.465 . S
C414 C413 1.396 . S
C414 C415 1.399 . S
C415 H401 0.929 . S
C415 C414 1.399 . S
C415 C416 1.385 . S
C416 H402 0.931 . S
C416 C415 1.385 . S
C416 C417 1.389 . S
C417 C416 1.389 . S
C417 C418 1.387 . S
C418 H403 0.930 1_455 S
C418 C413 1.390 . S
C418 C417 1.387 . S
H419 C431 0.930 . S
H420 C433 0.930 . S
H421 C434 0.930 . S
H422 C438 0.959 . S
H423 C438 0.959 . S
H424 C438 0.961 . S
H425 C439 0.961 . S
H426 C439 0.964 . S
H427 C439 0.950 1_545 S
H428 C442 0.929 . S
H429 C443 0.931 . S
H430 C445 0.930 . S
C431 H419 0.930 . S
C431 C432 1.399 1_565 S
C431 C436 1.399 . S
C432 C431 1.399 1_545 S
C432 C433 1.376 . S
C433 H420 0.930 . S
C433 C432 1.376 . S
C433 C434 1.388 . S
C434 H421 0.930 . S
C434 C433 1.388 . S
C434 C435 1.390 . S
C435 C434 1.390 . S
C435 C436 1.394 1_545 S
C435 C441 1.465 . S
C436 C431 1.399 . S
C436 C435 1.394 1_565 S
C436 C437 1.516 . S
C437 C436 1.516 . S
C437 C438 1.502 . S
C437 C439 1.567 . S
C437 C440 1.526 . S
C438 H422 0.959 . S
C438 H423 0.959 . S
C438 H424 0.961 . S
C438 C437 1.502 . S
C439 H425 0.961 . S
C439 H426 0.964 . S
C439 H427 0.950 1_565 S
C439 C437 1.567 . S
C440 C437 1.526 . S
C440 C441 1.396 1_565 S
C440 C445 1.390 . S
C441 C435 1.465 . S
C441 C440 1.396 1_545 S
C441 C442 1.399 . S
C442 H428 0.929 . S
C442 C441 1.399 . S
C442 C443 1.385 . S
C443 H429 0.931 . S
C443 C442 1.385 . S
C443 C444 1.389 1_545 S
C444 C443 1.389 1_565 S
C444 C445 1.387 . S
C445 H430 0.930 . S
C445 C440 1.390 . S
C445 C444 1.387 . S
H446 C458 0.930 . S
H447 C460 0.930 . S
H448 C461 0.930 . S
H449 C465 0.959 . S
H450 C465 0.959 . S
H451 C465 0.961 . S
H452 C466 0.960 . S
H453 C466 0.961 . S
H454 C466 0.959 . S
H455 C469 0.929 . S
H456 C470 0.931 . S
H457 C472 0.930 . S
C458 H446 0.930 . S
C458 C459 1.399 . S
C458 C463 1.399 . S
C459 C458 1.399 . S
C459 C460 1.376 . S
C460 H447 0.930 . S
C460 C459 1.376 . S
C460 C461 1.388 . S
C461 H448 0.930 . S
C461 C460 1.388 . S
C461 C462 1.390 . S
C462 C461 1.390 . S
C462 C463 1.394 . S
C462 C468 1.465 . S
C463 C458 1.399 . S
C463 C462 1.394 . S
C463 C464 1.516 . S
C464 C463 1.516 . S
C464 C465 1.502 . S
C464 C466 1.561 . S
C464 C467 1.526 . S
C465 H449 0.959 . S
C465 H450 0.959 . S
C465 H451 0.961 . S
C465 C464 1.502 . S
C466 H452 0.960 . S
C466 H453 0.961 . S
C466 H454 0.959 . S
C466 C464 1.561 . S
C467 C464 1.526 . S
C467 C468 1.396 . S
C467 C472 1.390 . S
C468 C462 1.465 . S
C468 C467 1.396 . S
C468 C469 1.399 . S
C469 H455 0.929 . S
C469 C468 1.399 . S
C469 C470 1.385 . S
C470 H456 0.931 . S
C470 C469 1.385 . S
C470 C471 1.389 . S
C471 C470 1.389 . S
C471 C472 1.387 . S
C472 H457 0.930 . S
C472 C467 1.390 . S
C472 C471 1.387 . S
H473 C485 0.930 . S
H474 C487 0.930 . S
H475 C488 0.930 . S
H476 C492 0.959 . S
H477 C492 0.959 . S
H478 C492 0.961 . S
H479 C493 0.960 . S
H480 C493 0.961 . S
H481 C493 0.959 . S
H482 C496 0.929 . S
H483 C497 0.931 . S
H484 C499 0.930 . S
C485 H473 0.930 . S
C485 C486 1.399 . S
C485 C490 1.399 . S
C486 C485 1.399 . S
C486 C487 1.376 . S
C487 H474 0.930 . S
C487 C486 1.376 . S
C487 C488 1.388 . S
C488 H475 0.930 . S
C488 C487 1.388 . S
C488 C489 1.390 . S
C489 C488 1.390 . S
C489 C490 1.394 . S
C489 C495 1.465 . S
C490 C485 1.399 . S
C490 C489 1.394 . S
C490 C491 1.516 . S
C491 C490 1.516 . S
C491 C492 1.502 . S
C491 C493 1.561 . S
C491 C494 1.526 . S
C492 H476 0.959 . S
C492 H477 0.959 . S
C492 H478 0.961 . S
C492 C491 1.502 . S
C493 H479 0.960 . S
C493 H480 0.961 . S
C493 H481 0.959 . S
C493 C491 1.561 . S
C494 C491 1.526 . S
C494 C495 1.396 . S
C494 C499 1.390 . S
C495 C489 1.465 . S
C495 C494 1.396 . S
C495 C496 1.399 . S
C496 H482 0.929 . S
C496 C495 1.399 . S
C496 C497 1.385 . S
C497 H483 0.931 . S
C497 C496 1.385 . S
C497 C498 1.389 . S
C498 C497 1.389 . S
C498 C499 1.387 . S
C499 H484 0.930 . S
C499 C494 1.390 . S
C499 C498 1.387 . S
H500 C512 0.930 . S
H501 C514 0.930 . S
H502 C515 0.905 1_455 S
H503 C519 0.959 . S
H504 C519 0.959 . S
H505 C519 0.961 . S
H506 C520 0.960 1_554 S
H507 C520 0.961 . S
H508 C520 0.959 1_554 S
H509 C523 0.929 . S
H510 C524 0.931 . S
H511 C526 0.930 . S
C512 H500 0.930 . S
C512 C513 1.399 . S
C512 C517 1.399 . S
C513 C512 1.399 . S
C513 C514 1.376 . S
C514 H501 0.930 . S
C514 C513 1.376 . S
C514 C515 1.402 . S
C515 H502 0.905 1_655 S
C515 C514 1.402 . S
C515 C516 1.402 . S
C516 C515 1.402 . S
C516 C517 1.394 . S
C516 C522 1.465 . S
C517 C512 1.399 . S
C517 C516 1.394 . S
C517 C518 1.516 . S
C518 C517 1.516 . S
C518 C519 1.502 . S
C518 C520 1.561 . S
C518 C521 1.526 . S
C519 H503 0.959 . S
C519 H504 0.959 . S
C519 H505 0.961 . S
C519 C518 1.502 . S
C520 H506 0.960 1_556 S
C520 H507 0.961 . S
C520 H508 0.959 1_556 S
C520 C518 1.561 . S
C521 C518 1.526 . S
C521 C522 1.396 . S
C521 C526 1.390 . S
C522 C516 1.465 . S
C522 C521 1.396 . S
C522 C523 1.399 1_655 S
C523 H509 0.929 . S
C523 C522 1.399 1_455 S
C523 C524 1.385 . S
C524 H510 0.931 . S
C524 C523 1.385 . S
C524 C525 1.389 . S
C525 C524 1.389 . S
C525 C526 1.387 1_455 S
C526 H511 0.930 . S
C526 C521 1.390 . S
C526 C525 1.387 1_655 S
H527 C539 0.930 . S
H528 C541 0.930 . S
H529 C542 0.930 . S
H530 C546 0.959 . S
H531 C546 0.959 . S
H532 C546 0.961 . S
H533 C547 0.960 1_554 S
H534 C547 0.961 . S
H535 C547 0.959 1_554 S
H536 C550 0.929 . S
H537 C551 0.931 . S
H538 C553 0.930 . S
C539 H527 0.930 . S
C539 C540 1.399 1_565 S
C539 C544 1.399 . S
C540 C539 1.399 1_545 S
C540 C541 1.376 . S
C541 H528 0.930 . S
C541 C540 1.376 . S
C541 C542 1.388 . S
C542 H529 0.930 . S
C542 C541 1.388 . S
C542 C543 1.390 . S
C543 C542 1.390 . S
C543 C544 1.394 1_545 S
C543 C549 1.465 . S
C544 C539 1.399 . S
C544 C543 1.394 1_565 S
C544 C545 1.516 . S
C545 C544 1.516 . S
C545 C546 1.502 . S
C545 C547 1.561 . S
C545 C548 1.526 . S
C546 H530 0.959 . S
C546 H531 0.959 . S
C546 H532 0.961 . S
C546 C545 1.502 . S
C547 H533 0.960 1_556 S
C547 H534 0.961 . S
C547 H535 0.959 1_556 S
C547 C545 1.561 . S
C548 C545 1.526 . S
C548 C549 1.396 1_565 S
C548 C553 1.390 . S
C549 C543 1.465 . S
C549 C548 1.396 1_545 S
C549 C550 1.399 . S
C550 H536 0.929 . S
C550 C549 1.399 . S
C550 C551 1.385 . S
C551 H537 0.931 . S
C551 C550 1.385 . S
C551 C552 1.389 . S
C552 C551 1.389 . S
C552 C553 1.387 1_545 S
C553 H538 0.930 . S
C553 C548 1.390 . S
C553 C552 1.387 1_565 S
H554 C566 0.930 1_554 S
H555 C568 0.930 . S
H556 C569 0.930 . S
H557 C573 0.959 1_554 S
H558 C573 0.959 . S
H559 C573 0.961 1_554 S
H560 C574 0.960 . S
H561 C574 0.961 . S
H562 C574 0.959 . S
H563 C577 0.929 . S
H564 C578 0.931 . S
H565 C580 0.930 . S
C566 H554 0.930 1_556 S
C566 C567 1.399 . S
C566 C571 1.399 . S
C567 C566 1.399 . S
C567 C568 1.376 . S
C568 H555 0.930 . S
C568 C567 1.376 . S
C568 C569 1.388 . S
C569 H556 0.930 . S
C569 C568 1.388 . S
C569 C570 1.390 . S
C570 C569 1.390 . S
C570 C571 1.394 . S
C570 C576 1.465 . S
C571 C566 1.399 . S
C571 C570 1.394 . S
C571 C572 1.516 . S
C572 C571 1.516 . S
C572 C573 1.502 . S
C572 C574 1.561 . S
C572 C575 1.526 . S
C573 H557 0.959 1_556 S
C573 H558 0.959 . S
C573 H559 0.961 1_556 S
C573 C572 1.502 . S
C574 H560 0.960 . S
C574 H561 0.961 . S
C574 H562 0.959 . S
C574 C572 1.561 . S
C575 C572 1.526 . S
C575 C576 1.396 . S
C575 C580 1.390 . S
C576 C570 1.465 . S
C576 C575 1.396 . S
C576 C577 1.399 . S
C577 H563 0.929 . S
C577 C576 1.399 . S
C577 C578 1.385 . S
C578 H564 0.931 . S
C578 C577 1.385 . S
C578 C579 1.389 . S
C579 C578 1.389 . S
C579 C580 1.387 . S
C580 H565 0.930 . S
C580 C575 1.390 . S
C580 C579 1.387 . S
H581 C593 0.930 . S
H582 C595 0.930 . S
H583 C596 0.930 . S
H584 C600 0.958 1_554 S
H585 C600 0.959 . S
H586 C600 0.961 1_554 S
H587 C601 0.960 . S
H588 C601 0.961 . S
H589 C601 0.959 . S
H590 C604 0.929 . S
H591 C605 0.931 . S
H592 C607 0.930 . S
C593 H581 0.930 . S
C593 C594 1.399 . S
C593 C598 1.399 . S
C594 C593 1.399 . S
C594 C595 1.376 . S
C595 H582 0.930 . S
C595 C594 1.376 . S
C595 C596 1.388 . S
C596 H583 0.930 . S
C596 C595 1.388 . S
C596 C597 1.390 . S
C597 C596 1.390 . S
C597 C598 1.394 . S
C597 C603 1.465 . S
C598 C593 1.399 . S
C598 C597 1.394 . S
C598 C599 1.516 . S
C599 C598 1.516 . S
C599 C600 1.502 . S
C599 C601 1.561 . S
C599 C602 1.526 . S
C600 H584 0.958 1_556 S
C600 H585 0.959 . S
C600 H586 0.961 1_556 S
C600 C599 1.502 . S
C601 H587 0.960 . S
C601 H588 0.961 . S
C601 H589 0.959 . S
C601 C599 1.561 . S
C602 C599 1.526 . S
C602 C603 1.396 . S
C602 C607 1.390 . S
C603 C597 1.465 . S
C603 C602 1.396 . S
C603 C604 1.399 . S
C604 H590 0.929 . S
C604 C603 1.399 . S
C604 C605 1.385 . S
C605 H591 0.931 . S
C605 C604 1.385 . S
C605 C606 1.389 . S
C606 C605 1.389 . S
C606 C607 1.387 . S
C607 H592 0.930 . S
C607 C602 1.390 . S
C607 C606 1.387 . S
H608 C620 0.930 . S
H609 C622 0.930 . S
H610 C623 0.930 . S
H611 C627 0.959 1_655 S
H612 C627 0.959 1_655 S
H613 C627 0.961 . S
H614 C628 0.960 . S
H615 C628 0.961 . S
H616 C628 0.959 . S
H617 C631 0.929 . S
H618 C632 0.931 . S
H619 C634 0.930 . S
C620 H608 0.930 . S
C620 C621 1.399 1_556 S
C620 C625 1.399 . S
C621 C620 1.399 1_554 S
C621 C622 1.376 . S
C622 H609 0.930 . S
C622 C621 1.376 . S
C622 C623 1.388 . S
C623 H610 0.930 . S
C623 C622 1.388 . S
C623 C624 1.390 1_554 S
C624 C623 1.390 1_556 S
C624 C625 1.394 . S
C624 C630 1.465 . S
C625 C620 1.399 . S
C625 C624 1.394 . S
C625 C626 1.516 . S
C626 C625 1.516 . S
C626 C627 1.502 . S
C626 C628 1.561 . S
C626 C629 1.526 . S
C627 H611 0.959 1_455 S
C627 H612 0.959 1_455 S
C627 H613 0.961 . S
C627 C626 1.502 . S
C628 H614 0.960 . S
C628 H615 0.961 . S
C628 H616 0.959 . S
C628 C626 1.561 . S
C629 C626 1.526 . S
C629 C630 1.396 . S
C629 C634 1.390 . S
C630 C624 1.465 . S
C630 C629 1.396 . S
C630 C631 1.399 . S
C631 H617 0.929 . S
C631 C630 1.399 . S
C631 C632 1.385 . S
C632 H618 0.931 . S
C632 C631 1.385 . S
C632 C633 1.389 . S
C633 C632 1.389 . S
C633 C634 1.387 . S
C634 H619 0.930 . S
C634 C629 1.390 . S
C634 C633 1.387 . S
H635 C647 0.930 . S
H636 C649 0.930 1_554 S
H637 C650 0.930 . S
H638 C654 0.959 . S
H639 C654 0.959 . S
H640 C654 0.961 . S
H641 C655 0.960 1_554 S
H642 C655 0.961 . S
H643 C655 0.959 1_554 S
H644 C658 0.929 . S
H645 C659 0.931 . S
H646 C661 0.930 . S
C647 H635 0.930 . S
C647 C648 1.399 1_546 S
C647 C652 1.399 . S
C648 C647 1.399 1_564 S
C648 C649 1.376 1_554 S
C649 H636 0.930 1_556 S
C649 C648 1.376 1_556 S
C649 C650 1.388 . S
C650 H637 0.930 . S
C650 C649 1.388 . S
C650 C651 1.390 . S
C651 C650 1.390 . S
C651 C652 1.394 1_565 S
C651 C657 1.465 . S
C652 C647 1.399 . S
C652 C651 1.394 1_545 S
C652 C653 1.516 . S
C653 C652 1.516 . S
C653 C654 1.502 . S
C653 C655 1.561 . S
C653 C656 1.526 . S
C654 H638 0.959 . S
C654 H639 0.959 . S
C654 H640 0.961 . S
C654 C653 1.502 . S
C655 H641 0.960 1_556 S
C655 H642 0.961 . S
C655 H643 0.959 1_556 S
C655 C653 1.561 . S
C656 C653 1.526 . S
C656 C657 1.396 1_545 S
C656 C661 1.390 . S
C657 C651 1.465 . S
C657 C656 1.396 1_565 S
C657 C658 1.399 . S
C658 H644 0.929 . S
C658 C657 1.399 . S
C658 C659 1.385 . S
C659 H645 0.931 . S
C659 C658 1.385 . S
C659 C660 1.389 1_565 S
C660 C659 1.389 1_545 S
C660 C661 1.387 . S
C661 H646 0.930 . S
C661 C656 1.390 . S
C661 C660 1.387 . S
H662 C674 0.930 . S
H663 C676 0.930 . S
H664 C677 0.930 . S
H665 C681 0.959 . S
H666 C681 0.959 1_554 S
H667 C681 0.961 1_554 S
H668 C682 0.960 . S
H669 C682 0.961 . S
H670 C682 0.959 . S
H671 C685 0.929 . S
H672 C686 0.931 . S
H673 C688 0.930 . S
C674 H662 0.930 . S
C674 C675 1.399 . S
C674 C679 1.399 1_554 S
C675 C674 1.399 . S
C675 C676 1.376 1_554 S
C676 H663 0.930 . S
C676 C675 1.376 1_556 S
C676 C677 1.388 . S
C677 H664 0.930 . S
C677 C676 1.388 . S
C677 C678 1.390 . S
C678 C677 1.390 . S
C678 C679 1.394 . S
C678 C684 1.465 . S
C679 C674 1.399 1_556 S
C679 C678 1.394 . S
C679 C680 1.516 . S
C680 C679 1.516 . S
C680 C681 1.502 . S
C680 C682 1.561 1_556 S
C680 C683 1.526 . S
C681 H665 0.959 . S
C681 H666 0.959 1_556 S
C681 H667 0.961 1_556 S
C681 C680 1.502 . S
C682 H668 0.960 . S
C682 H669 0.961 . S
C682 H670 0.959 . S
C682 C680 1.561 1_554 S
C683 C680 1.526 . S
C683 C684 1.396 . S
C683 C688 1.390 . S
C684 C678 1.465 . S
C684 C683 1.396 . S
C684 C685 1.399 . S
C685 H671 0.929 . S
C685 C684 1.399 . S
C685 C686 1.385 . S
C686 H672 0.931 . S
C686 C685 1.385 . S
C686 C687 1.389 . S
C687 C686 1.389 . S
C687 C688 1.387 . S
C688 H673 0.930 . S
C688 C683 1.390 . S
C688 C687 1.387 . S
H689 C701 0.930 . S
H690 C703 0.930 . S
H691 C704 0.930 . S
H692 C708 0.959 1_554 S
H693 C708 0.959 . S
H694 C708 0.961 . S
H695 C709 0.960 . S
H696 C709 0.961 . S
H697 C709 0.959 . S
H698 C712 0.929 . S
H699 C713 0.931 . S
H700 C715 0.930 . S
C701 H689 0.930 . S
C701 C702 1.399 . S
C701 C706 1.399 . S
C702 C701 1.399 . S
C702 C703 1.376 . S
C703 H690 0.930 . S
C703 C702 1.376 . S
C703 C704 1.388 . S
C704 H691 0.930 . S
C704 C703 1.388 . S
C704 C705 1.390 . S
C705 C704 1.390 . S
C705 C706 1.394 . S
C705 C711 1.465 . S
C706 C701 1.399 . S
C706 C705 1.394 . S
C706 C707 1.516 . S
C707 C706 1.516 . S
C707 C708 1.502 . S
C707 C709 1.561 . S
C707 C710 1.526 . S
C708 H692 0.959 1_556 S
C708 H693 0.959 . S
C708 H694 0.961 . S
C708 C707 1.502 . S
C709 H695 0.960 . S
C709 H696 0.961 . S
C709 H697 0.959 . S
C709 C707 1.561 . S
C710 C707 1.526 . S
C710 C711 1.396 . S
C710 C715 1.390 . S
C711 C705 1.465 . S
C711 C710 1.396 . S
C711 C712 1.399 . S
C712 H698 0.929 . S
C712 C711 1.399 . S
C712 C713 1.385 . S
C713 H699 0.931 . S
C713 C712 1.385 . S
C713 C714 1.389 . S
C714 C713 1.389 . S
C714 C715 1.387 . S
C715 H700 0.930 . S
C715 C710 1.390 . S
C715 C714 1.387 . S
H716 C728 0.930 . S
H717 C730 0.930 . S
H718 C731 0.930 . S
H719 C735 0.959 . S
H720 C735 0.959 . S
H721 C735 0.961 . S
H722 C736 0.960 . S
H723 C736 0.961 . S
H724 C736 0.959 . S
H725 C739 0.929 . S
H726 C740 0.931 . S
H727 C742 0.930 1_455 S
C728 H716 0.930 . S
C728 C729 1.399 . S
C728 C733 1.399 . S
C729 C728 1.399 . S
C729 C730 1.376 . S
C730 H717 0.930 . S
C730 C729 1.376 . S
C730 C731 1.388 . S
C731 H718 0.930 . S
C731 C730 1.388 . S
C731 C732 1.390 . S
C732 C731 1.390 . S
C732 C733 1.394 . S
C732 C738 1.465 . S
C733 C728 1.399 . S
C733 C732 1.394 . S
C733 C734 1.516 . S
C734 C733 1.516 . S
C734 C735 1.502 1_655 S
C734 C736 1.561 . S
C734 C737 1.526 . S
C735 H719 0.959 . S
C735 H720 0.959 . S
C735 H721 0.961 . S
C735 C734 1.502 1_455 S
C736 H722 0.960 . S
C736 H723 0.961 . S
C736 H724 0.959 . S
C736 C734 1.561 . S
C737 C734 1.526 . S
C737 C738 1.396 . S
C737 C742 1.390 . S
C738 C732 1.465 . S
C738 C737 1.396 . S
C738 C739 1.399 . S
C739 H725 0.929 . S
C739 C738 1.399 . S
C739 C740 1.385 . S
C740 H726 0.931 . S
C740 C739 1.385 . S
C740 C741 1.389 . S
C741 C740 1.389 . S
C741 C742 1.387 . S
C742 H727 0.930 1_655 S
C742 C737 1.390 . S
C742 C741 1.387 . S
H743 C755 0.930 . S
H744 C757 0.930 . S
H745 C758 0.930 . S
H746 C762 0.959 . S
H747 C762 0.959 . S
H748 C762 0.961 . S
H749 C763 0.960 . S
H750 C763 0.961 . S
H751 C763 0.959 . S
H752 C766 0.929 . S
H753 C767 0.931 . S
H754 C769 0.930 . S
C755 H743 0.930 . S
C755 C756 1.398 1_565 S
C755 C760 1.399 . S
C756 C755 1.398 1_545 S
C756 C757 1.377 . S
C757 H744 0.930 . S
C757 C756 1.377 . S
C757 C758 1.388 . S
C758 H745 0.930 . S
C758 C757 1.388 . S
C758 C759 1.390 . S
C759 C758 1.390 . S
C759 C760 1.394 1_545 S
C759 C765 1.465 . S
C760 C755 1.399 . S
C760 C759 1.394 1_565 S
C760 C761 1.516 . S
C761 C760 1.516 . S
C761 C762 1.502 . S
C761 C763 1.561 . S
C761 C764 1.526 . S
C762 H746 0.959 . S
C762 H747 0.959 . S
C762 H748 0.961 . S
C762 C761 1.502 . S
C763 H749 0.960 . S
C763 H750 0.961 . S
C763 H751 0.959 . S
C763 C761 1.561 . S
C764 C761 1.526 . S
C764 C765 1.396 1_565 S
C764 C769 1.390 . S
C765 C759 1.465 . S
C765 C764 1.396 1_545 S
C765 C766 1.399 . S
C766 H752 0.929 . S
C766 C765 1.399 . S
C766 C767 1.385 . S
C767 H753 0.931 . S
C767 C766 1.385 . S
C767 C768 1.389 1_545 S
C768 C767 1.389 1_565 S
C768 C769 1.387 . S
C769 H754 0.930 . S
C769 C764 1.390 . S
C769 C768 1.387 . S
H770 C782 0.930 . S
H771 C784 0.930 . S
H772 C785 0.930 . S
H773 C789 0.959 . S
H774 C789 0.959 . S
H775 C789 0.961 . S
H776 C790 0.960 . S
H777 C790 0.961 . S
H778 C790 0.959 . S
H779 C793 0.929 . S
H780 C794 0.931 . S
H781 C796 0.930 . S
C782 H770 0.930 . S
C782 C783 1.399 . S
C782 C787 1.399 . S
C783 C782 1.399 . S
C783 C784 1.376 . S
C784 H771 0.930 . S
C784 C783 1.376 . S
C784 C785 1.388 . S
C785 H772 0.930 . S
C785 C784 1.388 . S
C785 C786 1.390 . S
C786 C785 1.390 . S
C786 C787 1.394 . S
C786 C792 1.465 . S
C787 C782 1.399 . S
C787 C786 1.394 . S
C787 C788 1.516 . S
C788 C787 1.516 . S
C788 C789 1.502 . S
C788 C790 1.561 . S
C788 C791 1.526 . S
C789 H773 0.959 . S
C789 H774 0.959 . S
C789 H775 0.961 . S
C789 C788 1.502 . S
C790 H776 0.960 . S
C790 H777 0.961 . S
C790 H778 0.959 . S
C790 C788 1.561 . S
C791 C788 1.526 . S
C791 C792 1.396 . S
C791 C796 1.390 . S
C792 C786 1.465 . S
C792 C791 1.396 . S
C792 C793 1.399 . S
C793 H779 0.929 . S
C793 C792 1.399 . S
C793 C794 1.385 . S
C794 H780 0.931 . S
C794 C793 1.385 . S
C794 C795 1.389 . S
C795 C794 1.389 . S
C795 C796 1.387 . S
C796 H781 0.930 . S
C796 C791 1.390 . S
C796 C795 1.387 . S
H797 C809 0.930 . S
H798 C811 0.930 . S
H799 C812 0.930 . S
H800 C816 0.959 . S
H801 C816 0.959 . S
H802 C816 0.961 . S
H803 C817 0.960 . S
H804 C817 0.961 . S
H805 C817 0.959 . S
H806 C820 0.929 . S
H807 C821 0.931 . S
H808 C823 0.930 . S
C809 H797 0.930 . S
C809 C810 1.399 . S
C809 C814 1.399 . S
C810 C809 1.399 . S
C810 C811 1.376 . S
C811 H798 0.930 . S
C811 C810 1.376 . S
C811 C812 1.388 . S
C812 H799 0.930 . S
C812 C811 1.388 . S
C812 C813 1.390 . S
C813 C812 1.390 . S
C813 C814 1.394 . S
C813 C819 1.465 . S
C814 C809 1.399 . S
C814 C813 1.394 . S
C814 C815 1.516 . S
C815 C814 1.516 . S
C815 C816 1.502 . S
C815 C817 1.561 . S
C815 C818 1.526 . S
C816 H800 0.959 . S
C816 H801 0.959 . S
C816 H802 0.961 . S
C816 C815 1.502 . S
C817 H803 0.960 . S
C817 H804 0.961 . S
C817 H805 0.959 . S
C817 C815 1.561 . S
C818 C815 1.526 . S
C818 C819 1.396 . S
C818 C823 1.390 . S
C819 C813 1.465 . S
C819 C818 1.396 . S
C819 C820 1.399 . S
C820 H806 0.929 . S
C820 C819 1.399 . S
C820 C821 1.385 . S
C821 H807 0.931 . S
C821 C820 1.385 . S
C821 C822 1.389 . S
C822 C821 1.389 . S
C822 C823 1.387 . S
C823 H808 0.930 . S
C823 C818 1.390 . S
C823 C822 1.387 . S
C189 C76 1.437 . S
C201 C114 1.488 . S
C228 C134 1.550 . S
C216 C88 1.542 . S
C255 C154 1.503 . S
C243 C52 1.428 . S
C282 C174 1.565 . S
C270 C64 1.483 . S
C309 C115 1.477 . S
C297 C28 1.429 1_545 S
C324 C40 1.551 . S
C336 C135 1.570 . S
C351 C4 1.445 . S
C363 C155 1.460 . S
C378 C16 1.504 . S
C390 C175 1.584 1_655 S
C417 C105 0.766 . S
C405 C69 0.906 . S
C444 C125 0.753 . S
C432 C81 0.883 . S
C471 C145 0.826 . S
C459 C93 0.922 . S
C486 C57 0.831 . S
C498 C165 0.908 . S
C513 C21 0.827 . S
C525 C108 0.890 1_455 S
C552 C128 0.879 . S
C540 C33 0.821 . S
C579 C148 0.772 . S
C567 C45 0.929 . S
C594 C9 0.897 . S
C606 C168 0.758 . S
C621 C66 1.519 . S
C633 C98 1.545 . S
C648 C78 1.489 1_565 S
C660 C118 1.426 . S
C687 C138 1.435 . S
C675 C90 1.568 . S
C714 C158 1.459 . S
C702 C54 1.513 1_556 S
C729 C18 1.563 . S
C741 C100 1.492 . S
C768 C120 1.391 . S
C756 C30 1.545 . S
C795 C140 1.459 . S
C783 C42 1.573 . S
C810 C6 1.537 . S
C822 C160 1.387 . S
