# Generated by pormake.
# Topology pth, (4,4)-cn, num edge types: 1
# Building blocks:
#     Node 0, Type 0, BuildingBlock: GALJAG_clean_sbu_0, # of connection points: 4
#     Node 1, Type 0, BuildingBlock: GALJAG_clean_sbu_0, # of connection points: 4
#     Node 2, Type 0, BuildingBlock: GALJAG_clean_sbu_0, # of connection points: 4
#     Node 3, Type 1, BuildingBlock: MUDLON_clean_linker_0, # of connection points: 4
#     Node 4, Type 1, BuildingBlock: MUDLON_clean_linker_0, # of connection points: 4
#     Node 5, Type 1, BuildingBlock: MUDLON_clean_linker_0, # of connection points: 4
#     Edge 6, Type (0, 1), BuildingBlock: XUDNAN_clean_linker_2, # of connection points: 2
#     Edge 7, Type (0, 1), BuildingBlock: XUDNAN_clean_linker_2, # of connection points: 2
#     Edge 8, Type (0, 1), BuildingBlock: XUDNAN_clean_linker_2, # of connection points: 2
#     Edge 9, Type (0, 1), BuildingBlock: XUDNAN_clean_linker_2, # of connection points: 2
#     Edge 10, Type (0, 1), BuildingBlock: XUDNAN_clean_linker_2, # of connection points: 2
#     Edge 11, Type (0, 1), BuildingBlock: XUDNAN_clean_linker_2, # of connection points: 2
#     Edge 12, Type (0, 1), BuildingBlock: XUDNAN_clean_linker_2, # of connection points: 2
#     Edge 13, Type (0, 1), BuildingBlock: XUDNAN_clean_linker_2, # of connection points: 2
#     Edge 14, Type (0, 1), BuildingBlock: XUDNAN_clean_linker_2, # of connection points: 2
#     Edge 15, Type (0, 1), BuildingBlock: XUDNAN_clean_linker_2, # of connection points: 2
#     Edge 16, Type (0, 1), BuildingBlock: XUDNAN_clean_linker_2, # of connection points: 2
#     Edge 17, Type (0, 1), BuildingBlock: XUDNAN_clean_linker_2, # of connection points: 2
# Relax obj value: 0.015
# Max RMSD: 0.066
# Mean RMSD: 0.062
data_MOF--net-pth--node1-GALJAG_clean_sbu_0--node2-MUDLON_clean_linker_0--edge1-XUDNAN_clean_linker_2
_symmetry_space_group_name_H-M    P1
_symmetry_Int_Tables_number       1
_symmetry_cell_setting            triclinic
loop_
_symmetry_equiv_pos_as_xyz
'x, y, z'
_cell_length_a     34.247711
_cell_length_b     34.250321
_cell_length_c     66.199817
_cell_angle_alpha  90.078422
_cell_angle_beta   90.25534
_cell_angle_gamma 120.02209
loop_
_atom_site_label
_atom_site_type_symbol
_atom_site_fract_x
_atom_site_fract_y
_atom_site_fract_z
_atom_type_partial_charge
In0 In 0.99459 0.99887 0.04112 0.0
O1 O 0.96642 0.03884 0.05712 0.0
O2 O 0.00891 0.02176 0.07383 0.0
C3 C 0.9304 0.96538 0.01193 0.0
C4 C 0.06885 0.06721 0.0242 0.0
C5 C 0.99339 0.9247 0.056 0.0
O6 O 0.92101 0.96215 0.03046 0.0
O7 O 0.97195 0.98687 0.00807 0.0
O8 O 0.02999 0.96017 0.05198 0.0
O9 O 0.95853 0.92688 0.05217 0.0
C10 C 0.98631 0.04165 0.07365 0.0
O11 O 0.05803 0.02647 0.02128 0.0
O12 O 0.04248 0.07288 0.03542 0.0
In13 In 0.98769 0.99011 0.37512 0.0
O14 O 0.03431 0.06056 0.36236 0.0
O15 O 0.96574 0.02636 0.35293 0.0
C16 C 0.04407 0.9864 0.40282 0.0
C17 C 0.92187 0.98765 0.39827 0.0
C18 C 0.97745 0.92498 0.34878 0.0
O19 O 0.05673 0.01871 0.3906 0.0
O20 O 0.00314 0.95647 0.40117 0.0
O21 O 0.94695 0.92005 0.36083 0.0
O22 O 0.01286 0.96295 0.34977 0.0
C23 C 0.00388 0.06154 0.35193 0.0
O24 O 0.91443 0.95817 0.385 0.0
O25 O 0.96268 0.01814 0.40005 0.0
In26 In 0.99921 0.98542 0.70833 0.0
O27 O 0.95803 0.91709 0.72399 0.0
O28 O 0.94078 0.96797 0.72926 0.0
C29 C 0.05813 0.97576 0.68511 0.0
C30 C 0.94732 0.99315 0.67969 0.0
C31 C 0.05857 0.04167 0.73606 0.0
O32 O 0.02606 0.94264 0.694 0.0
O33 O 0.05981 0.01308 0.68777 0.0
O34 O 0.04021 0.05512 0.72333 0.0
O35 O 0.04616 1.00029 0.73489 0.0
C36 C 0.93215 0.9282 0.73265 0.0
O37 O 0.97083 0.02513 0.69183 0.0
O38 O 0.95127 0.9587 0.68181 0.0
H39 H 0.96375 0.66149 0.20847 0.0
N40 N 0.04599 0.66768 0.20371 0.0
H41 H 0.94216 0.69564 0.23536 0.0
H42 H 0.09472 0.71241 0.23601 0.0
H43 H 0.07309 0.74631 0.2633 0.0
H44 H 0.09606 0.75002 0.18878 0.0
H45 H 0.08082 0.782 0.15904 0.0
H46 H 0.97998 0.62061 0.17521 0.0
H47 H 0.96682 0.65091 0.14443 0.0
H48 H 0.9734 0.59648 0.22301 0.0
H49 H 0.09025 0.63122 0.18637 0.0
H50 H 0.95685 0.51949 0.2246 0.0
H51 H 0.07159 0.5525 0.18654 0.0
H52 H 0.91286 0.26273 0.22591 0.0
H53 H 0.92738 0.22516 0.25358 0.0
H54 H 0.05066 0.34905 0.26764 0.0
H55 H 0.03748 0.3851 0.23909 0.0
H56 H 0.04924 0.3485 0.20295 0.0
H57 H 0.06145 0.30199 0.17878 0.0
H58 H 0.92386 0.24493 0.15776 0.0
H59 H 0.91252 0.29299 0.1816 0.0
H60 H 0.91168 0.37445 0.21079 0.0
H61 H 0.92899 0.45246 0.20771 0.0
H62 H 0.07126 0.49583 0.20522 0.0
N63 N 0.96851 0.34329 0.21087 0.0
H64 H 0.05304 0.41766 0.20661 0.0
C65 C 0.03104 0.68449 0.22026 0.0
C66 C 0.98774 0.67973 0.22043 0.0
C67 C 0.97533 0.69904 0.23589 0.0
C68 C 0.00594 0.72374 0.25145 0.0
C69 C 0.04894 0.72788 0.25141 0.0
C70 C 0.06125 0.70833 0.23596 0.0
C71 C 0.03953 0.68302 0.18428 0.0
C72 C 0.06811 0.72819 0.17898 0.0
C73 C 0.05942 0.7463 0.1618 0.0
C74 C 0.0223 0.7193 0.14915 0.0
C75 C 0.99504 0.67327 0.15396 0.0
C76 C 0.00298 0.65552 0.17149 0.0
C77 C 0.03386 0.62059 0.2047 0.0
C78 C 0.99558 0.58787 0.21511 0.0
C79 C 0.9856 0.54305 0.2158 0.0
C80 C 0.01267 0.52915 0.20567 0.0
C81 C 0.05036 0.56173 0.19494 0.0
C82 C 0.06095 0.60683 0.19465 0.0
C83 C 0.9738 0.32666 0.23016 0.0
C84 C 0.94254 0.28201 0.23525 0.0
C85 C 0.95096 0.2606 0.25121 0.0
C86 C 0.99064 0.28373 0.26288 0.0
C87 C 0.02039 0.3296 0.2587 0.0
C88 C 0.01246 0.35067 0.24238 0.0
C89 C 0.97988 0.32438 0.19397 0.0
C90 C 0.02228 0.32745 0.19259 0.0
C91 C 0.02898 0.30021 0.17896 0.0
C92 C 0.99339 0.26915 0.16658 0.0
C93 C 0.95207 0.26862 0.16698 0.0
C94 C 0.94548 0.29604 0.18057 0.0
C95 C 0.98085 0.39009 0.2093 0.0
C96 C 0.94655 0.40095 0.20951 0.0
C97 C 0.95668 0.44574 0.20793 0.0
C98 C 0.00173 0.48105 0.20647 0.0
C99 C 0.03613 0.46988 0.20605 0.0
C100 C 0.02578 0.42491 0.20714 0.0
H101 H 0.76528 0.12937 0.55931 0.0
N102 N 0.68411 0.07691 0.54345 0.0
H103 H 0.80309 0.10895 0.58519 0.0
H104 H 0.6428 0.0027 0.56825 0.0
H105 H 0.67992 0.98248 0.59419 0.0
H106 H 0.66094 0.99034 0.5331 0.0
H107 H 0.68845 0.96747 0.50417 0.0
H108 H 0.73375 0.12851 0.51321 0.0
H109 H 0.76167 0.10573 0.484 0.0
H110 H 0.66812 0.14456 0.54742 0.0
H111 H 0.60058 1.00017 0.54026 0.0
H112 H 0.59538 0.14163 0.54672 0.0
H113 H 0.52791 0.99646 0.54072 0.0
H114 H 0.34814 0.10891 0.5582 0.0
H115 H 0.29423 0.08258 0.58576 0.0
H116 H 0.31026 0.96569 0.59251 0.0
H117 H 0.36256 0.99153 0.56403 0.0
H118 H 0.33071 0.97898 0.52825 0.0
H119 H 0.27222 0.95393 0.50238 0.0
H120 H 0.31362 0.09297 0.48923 0.0
H121 H 0.37395 0.11749 0.51431 0.0
H122 H 0.45775 0.11987 0.56275 0.0
H123 H 0.5294 0.12095 0.56487 0.0
H124 H 0.48023 0.01231 0.52121 0.0
N125 N 0.3855 0.06603 0.54083 0.0
H126 H 0.40846 0.00988 0.51994 0.0
C127 C 0.70135 0.06775 0.56167 0.0
C128 C 0.74616 0.09783 0.5673 0.0
C129 C 0.76767 0.0861 0.5821 0.0
C130 C 0.74466 0.04381 0.59154 0.0
C131 C 0.69878 0.01499 0.58692 0.0
C132 C 0.67733 0.02675 0.57211 0.0
C133 C 0.69505 0.06133 0.52525 0.0
C134 C 0.68191 0.01569 0.52226 0.0
C135 C 0.69777 0.00258 0.50567 0.0
C136 C 0.72736 0.03481 0.49183 0.0
C137 C 0.73928 0.08019 0.49451 0.0
C138 C 0.72314 0.09322 0.51105 0.0
C139 C 0.64012 0.07283 0.54411 0.0
C140 C 0.63752 0.11216 0.54605 0.0
C141 C 0.5958 0.11029 0.54577 0.0
C142 C 0.55545 0.06873 0.54374 0.0
C143 C 0.55814 0.02916 0.54202 0.0
C144 C 0.59997 0.03118 0.54203 0.0
C145 C 0.35953 0.0525 0.55917 0.0
C146 C 0.34054 0.07804 0.5659 0.0
C147 C 0.30984 0.06289 0.58177 0.0
C148 C 0.29775 0.0219 0.59152 0.0
C149 C 0.3182 0.99705 0.58521 0.0
C150 C 0.34855 0.01202 0.56908 0.0
C151 C 0.35727 0.05031 0.523 0.0
C152 C 0.32834 0.00407 0.51925 0.0
C153 C 0.29429 0.98979 0.50465 0.0
C154 C 0.28745 0.02134 0.49388 0.0
C155 C 0.31797 0.06758 0.49697 0.0
C156 C 0.35257 0.08178 0.51132 0.0
C157 C 0.42728 0.06502 0.54128 0.0
C158 C 0.46241 0.09613 0.55373 0.0
C159 C 0.50354 0.0969 0.55478 0.0
C160 C 0.51094 0.06685 0.54313 0.0
C161 C 0.47567 0.03551 0.53067 0.0
C162 C 0.43425 0.03435 0.52983 0.0
H163 H 0.64313 0.70075 0.87925 0.0
N164 N 0.65439 0.62679 0.87855 0.0
H165 H 0.68145 0.76534 0.9019 0.0
H166 H 0.69837 0.6312 0.91254 0.0
H167 H 0.73678 0.6961 0.93548 0.0
H168 H 0.73637 0.65178 0.86491 0.0
H169 H 0.77336 0.69887 0.83557 0.0
H170 H 0.61203 0.64662 0.84824 0.0
H171 H 0.64812 0.6921 0.81852 0.0
H172 H 0.57694 0.63 0.88668 0.0
H173 H 0.62695 0.54095 0.87064 0.0
H174 H 0.50024 0.5669 0.88618 0.0
H175 H 0.54965 0.4775 0.86922 0.0
H176 H 0.29173 0.38835 0.90564 0.0
H177 H 0.2571 0.34475 0.9362 0.0
H178 H 0.30672 0.25465 0.92095 0.0
H179 H 0.34006 0.29764 0.89028 0.0
H180 H 0.37084 0.3274 0.85589 0.0
H181 H 0.33318 0.27127 0.82923 0.0
H182 H 0.21943 0.29306 0.83191 0.0
H183 H 0.25787 0.34985 0.85831 0.0
H184 H 0.36486 0.45409 0.86396 0.0
H185 H 0.44269 0.51669 0.86379 0.0
H186 H 0.48706 0.42941 0.88958 0.0
N187 N 0.33458 0.37066 0.87693 0.0
H188 H 0.40981 0.36694 0.88881 0.0
C189 C 0.6681 0.66095 0.89411 0.0
C190 C 0.66251 0.69876 0.89173 0.0
C191 C 0.68465 0.73589 0.90464 0.0
C192 C 0.71249 0.73594 0.92029 0.0
C193 C 0.71534 0.69689 0.9236 0.0
C194 C 0.69344 0.65982 0.91054 0.0
C195 C 0.6716 0.64567 0.85888 0.0
C196 C 0.71669 0.65952 0.85452 0.0
C197 C 0.73771 0.68637 0.8377 0.0
C198 C 0.71385 0.69978 0.8248 0.0
C199 C 0.6677 0.68312 0.82837 0.0
C200 C 0.64682 0.65657 0.84529 0.0
C201 C 0.60818 0.59022 0.87894 0.0
C202 C 0.57167 0.59694 0.88309 0.0
C203 C 0.52744 0.56065 0.88256 0.0
C204 C 0.51852 0.51693 0.87763 0.0
C205 C 0.55512 0.51044 0.87341 0.0
C206 C 0.59934 0.54668 0.87412 0.0
C207 C 0.31849 0.34652 0.89569 0.0
C208 C 0.29551 0.3595 0.90907 0.0
C209 C 0.27594 0.33462 0.92655 0.0
C210 C 0.27909 0.29611 0.93103 0.0
C211 C 0.30316 0.28376 0.91783 0.0
C212 C 0.32262 0.30863 0.90033 0.0
C213 C 0.31701 0.34283 0.85911 0.0
C214 C 0.3383 0.32089 0.85044 0.0
C215 C 0.31652 0.2885 0.83529 0.0
C216 C 0.27308 0.27733 0.82856 0.0
C217 C 0.25302 0.3011 0.83655 0.0
C218 C 0.27482 0.33346 0.85167 0.0
C219 C 0.38122 0.40597 0.87653 0.0
C220 C 0.39154 0.44856 0.86944 0.0
C221 C 0.43601 0.48435 0.86955 0.0
C222 C 0.47129 0.47836 0.87688 0.0
C223 C 0.46094 0.43528 0.88366 0.0
C224 C 0.41646 0.39941 0.88338 0.0
H225 H 0.95314 0.09996 0.07484 0.0
H226 H 0.02332 0.04812 0.11086 0.0
H227 H 0.03259 0.10072 0.13839 0.0
H228 H 0.02182 0.21466 0.0891 0.0
H229 H 0.97642 0.2269 0.0899 0.0
H230 H 0.97261 0.18335 0.07335 0.0
H231 H 0.89694 0.12544 0.08974 0.0
H232 H 0.90028 0.16894 0.10622 0.0
H233 H 0.89424 0.11771 0.11674 0.0
H234 H 0.03736 0.16068 0.1613 0.0
H235 H 0.03369 0.22183 0.17916 0.0
H236 H 0.96161 0.23636 0.12824 0.0
C237 C 0.96978 0.0992 0.08866 0.0
C238 C 0.98734 0.06984 0.09077 0.0
C239 C 0.00946 0.07023 0.10896 0.0
C240 C 0.01499 0.10003 0.12466 0.0
C241 C 0.99817 0.12921 0.12195 0.0
C242 C 0.9757 0.12887 0.1045 0.0
C243 C 0.96188 0.16455 0.10533 0.0
C244 C 0.98455 0.19942 0.08841 0.0
C245 C 0.91027 0.14286 0.10446 0.0
C246 C 0.98035 0.18511 0.12591 0.0
C247 C 0.00119 0.1642 0.13519 0.0
C248 C 0.02116 0.17737 0.1542 0.0
C249 C 0.0193 0.2125 0.16413 0.0
C250 C 0.99772 0.23426 0.15505 0.0
C251 C 0.97817 0.22033 0.13562 0.0
H252 H 0.92947 0.04967 0.42649 0.0
H253 H 0.83213 0.9244 0.3974 0.0
H254 H 0.77109 0.92383 0.41742 0.0
H255 H 0.88011 0.02307 0.47574 0.0
H256 H 0.89231 0.07974 0.48103 0.0
H257 H 0.928 0.07035 0.46421 0.0
H258 H 0.9149 0.11562 0.43628 0.0
H259 H 0.87895 0.12494 0.45299 0.0
H260 H 0.85811 0.0991 0.42862 0.0
H261 H 0.72089 0.93638 0.44109 0.0
H262 H 0.68547 0.96091 0.46686 0.0
H263 H 0.81581 0.07799 0.48021 0.0
C264 C 0.89531 0.02211 0.42433 0.0
C265 C 0.88549 0.98704 0.41042 0.0
C266 C 0.84038 0.9516 0.408 0.0
C267 C 0.80549 0.95102 0.41927 0.0
C268 C 0.8163 0.9862 0.43282 0.0
C269 C 0.86011 0.02108 0.4354 0.0
C270 C 0.86282 0.05457 0.45108 0.0
C271 C 0.89256 0.05705 0.46908 0.0
C272 C 0.87969 0.10132 0.44167 0.0
C273 C 0.81373 0.03298 0.457 0.0
C274 C 0.7874 0.9936 0.4463 0.0
C275 C 0.74115 0.96723 0.44953 0.0
C276 C 0.72137 0.98133 0.46422 0.0
C277 C 0.74782 0.02145 0.47545 0.0
C278 C 0.79454 0.04762 0.47162 0.0
H279 H 0.91166 0.84435 0.74657 0.0
H280 H 0.86659 0.94239 0.7478 0.0
H281 H 0.80283 0.89185 0.76944 0.0
H282 H 0.79968 0.74354 0.74618 0.0
H283 H 0.81623 0.7123 0.76259 0.0
H284 H 0.85708 0.75489 0.74613 0.0
H285 H 0.90896 0.79524 0.77688 0.0
H286 H 0.86837 0.75275 0.79341 0.0
H287 H 0.88697 0.8114 0.79799 0.0
H288 H 0.74618 0.83298 0.79191 0.0
H289 H 0.70171 0.7706 0.81526 0.0
H290 H 0.78231 0.70949 0.7996 0.0
C291 C 0.88813 0.85494 0.75128 0.0
C292 C 0.89397 0.89722 0.74548 0.0
C293 C 0.86278 0.91015 0.75208 0.0
C294 C 0.82633 0.88162 0.76431 0.0
C295 C 0.82154 0.84025 0.76982 0.0
C296 C 0.85158 0.8269 0.76362 0.0
C297 C 0.83973 0.78156 0.77256 0.0
C298 C 0.82744 0.74597 0.75586 0.0
C299 C 0.8783 0.7855 0.78601 0.0
C300 C 0.79878 0.77197 0.78496 0.0
C301 C 0.78868 0.80609 0.78297 0.0
C302 C 0.75337 0.80574 0.79343 0.0
C303 C 0.72803 0.76988 0.80655 0.0
C304 C 0.73809 0.73475 0.80916 0.0
C305 C 0.77371 0.73575 0.79798 0.0
H306 H 0.06266 0.91439 0.0715 0.0
H307 H 0.91729 0.84524 0.06355 0.0
H308 H 0.90989 0.78166 0.08373 0.0
H309 H 0.07275 0.81035 0.07066 0.0
H310 H 0.11646 0.83233 0.0897 0.0
H311 H 0.11115 0.87023 0.07251 0.0
H312 H 0.10549 0.91483 0.10292 0.0
H313 H 0.1104 0.87694 0.12016 0.0
H314 H 0.06267 0.88549 0.1217 0.0
H315 H 0.9167 0.7312 0.10839 0.0
H316 H 0.93748 0.69454 0.13467 0.0
H317 H 0.07921 0.79223 0.12515 0.0
C318 C 0.02945 0.88534 0.0736 0.0
C319 C 0.99056 0.88473 0.06593 0.0
C320 C 0.94757 0.84645 0.06926 0.0
C321 C 0.94298 0.81007 0.08067 0.0
C322 C 0.98174 0.81215 0.0885 0.0
C323 C 0.02424 0.84844 0.08494 0.0
C324 C 0.05999 0.84318 0.09621 0.0
C325 C 0.09198 0.83875 0.08138 0.0
C326 C 0.08616 0.88244 0.11113 0.0
C327 C 0.0307 0.7992 0.10721 0.0
C328 C 0.98575 0.78183 0.10241 0.0
C329 C 0.95191 0.74369 0.11187 0.0
C330 C 0.96424 0.72281 0.12675 0.0
C331 C 0.0102 0.73974 0.13201 0.0
C332 C 0.04376 0.77818 0.12172 0.0
H333 H 0.13582 0.04151 0.40658 0.0
H334 H 0.02119 0.92433 0.4328 0.0
H335 H 0.07157 0.91873 0.45794 0.0
H336 H 0.21558 0.00169 0.41293 0.0
H337 H 0.26225 0.0568 0.41893 0.0
H338 H 0.21736 0.05133 0.40272 0.0
H339 H 0.20449 0.10405 0.42644 0.0
H340 H 0.24936 0.10975 0.44269 0.0
H341 H 0.19397 0.09046 0.45288 0.0
H342 H 0.13333 0.92765 0.48102 0.0
H343 H 0.20247 0.95011 0.50064 0.0
H344 H 0.27843 0.05929 0.45848 0.0
C345 C 0.12138 0.01466 0.4176 0.0
C346 C 0.07459 0.98338 0.41778 0.0
C347 C 0.05694 0.94863 0.43239 0.0
C348 C 0.08528 0.94514 0.44671 0.0
C349 C 0.13123 0.97645 0.44612 0.0
C350 C 0.14926 0.01046 0.43194 0.0
C351 C 0.19981 0.03993 0.43479 0.0
C352 C 0.22524 0.03726 0.41624 0.0
C353 C 0.21264 0.08894 0.43948 0.0
C354 C 0.2072 0.01753 0.45298 0.0
C355 C 0.16718 0.98094 0.45922 0.0
C356 C 0.16503 0.95584 0.47611 0.0
C357 C 0.20475 0.9687 0.48707 0.0
C358 C 0.24638 0.00622 0.48106 0.0
C359 C 0.24736 0.03057 0.4636 0.0
H360 H 0.08976 0.13192 0.74348 0.0
H361 H 0.10588 0.01915 0.76194 0.0
H362 H 0.1649 0.06825 0.78622 0.0
H363 H 0.20799 0.21788 0.74739 0.0
H364 H 0.19672 0.2603 0.75727 0.0
H365 H 0.15632 0.21677 0.74078 0.0
H366 H 0.09426 0.19437 0.76782 0.0
H367 H 0.13441 0.23794 0.78434 0.0
H368 H 0.10364 0.18041 0.79295 0.0
H369 H 0.22112 0.1284 0.80873 0.0
H370 H 0.26874 0.19552 0.82954 0.0
H371 H 0.21722 0.27029 0.79682 0.0
C372 C 0.1058 0.11767 0.75262 0.0
C373 C 0.09326 0.07172 0.7508 0.0
C374 C 0.11488 0.05423 0.76308 0.0
C375 C 0.14859 0.08187 0.77688 0.0
C376 C 0.16031 0.12698 0.77827 0.0
C377 C 0.13952 0.14483 0.7666 0.0
C378 C 0.15781 0.19424 0.77159 0.0
C379 C 0.18109 0.22405 0.75316 0.0
C380 C 0.12029 0.20219 0.77966 0.0
C381 C 0.19172 0.20108 0.78801 0.0
C382 C 0.19283 0.1619 0.79146 0.0
C383 C 0.22084 0.15943 0.80609 0.0
C384 C 0.24806 0.1979 0.81773 0.0
C385 C 0.24707 0.23836 0.81474 0.0
C386 C 0.2187 0.23988 0.79952 0.0
H387 H 0.92989 0.06227 0.67174 0.0
H388 H 0.89193 0.92545 0.65426 0.0
H389 H 0.83519 0.92346 0.63072 0.0
H390 H 0.81823 0.0474 0.67 0.0
H391 H 0.83575 0.10228 0.65957 0.0
H392 H 0.87412 0.09374 0.67513 0.0
H393 H 0.9333 0.124 0.6465 0.0
H394 H 0.89524 0.13292 0.63091 0.0
H395 H 0.91775 0.09863 0.62174 0.0
H396 H 0.78181 0.93484 0.60971 0.0
H397 H 0.73754 0.96096 0.59052 0.0
H398 H 0.80922 0.0908 0.62093 0.0
C399 C 0.90978 0.03205 0.66286 0.0
C400 C 0.91534 0.994 0.66485 0.0
C401 C 0.88835 0.95504 0.65299 0.0
C402 C 0.8559 0.95348 0.6396 0.0
C403 C 0.85086 0.99122 0.63815 0.0
C404 C 0.87719 0.02996 0.64927 0.0
C405 C 0.86489 0.06585 0.64454 0.0
C406 C 0.84719 0.07802 0.66344 0.0
C407 C 0.9052 0.10783 0.63537 0.0
C408 C 0.82761 0.0411 0.62904 0.0
C409 C 0.81998 0.99801 0.62574 0.0
C410 C 0.78733 0.96848 0.61218 0.0
C411 C 0.76205 0.98352 0.60148 0.0
C412 C 0.76955 0.02778 0.60434 0.0
C413 C 0.80275 0.05682 0.6184 0.0
H414 H 0.85336 0.88414 0.01524 0.0
H415 H 0.9322 0.99115 0.97287 0.0
H416 H 0.87918 0.94656 0.94538 0.0
H417 H 0.83641 0.79706 0.98266 0.0
H418 H 0.78023 0.75753 0.99106 0.0
H419 H 0.81938 0.80058 0.00802 0.0
H420 H 0.76262 0.8286 0.01369 0.0
H421 H 0.72309 0.78539 0.99681 0.0
H422 H 0.74039 0.84369 0.99223 0.0
H423 H 0.82119 0.88858 0.92226 0.0
H424 H 0.76587 0.81932 0.90443 0.0
H425 H 0.72775 0.74741 0.96135 0.0
C426 C 0.85851 0.89867 0.00028 0.0
C427 C 0.8961 0.9414 0.99615 0.0
C428 C 0.90311 0.9587 0.9763 0.0
C429 C 0.87317 0.93368 0.96065 0.0
C430 C 0.83686 0.89118 0.96511 0.0
C431 C 0.82959 0.87362 0.98441 0.0
C432 C 0.7913 0.82512 0.9847 0.0
C433 C 0.80784 0.79321 0.99204 0.0
C434 C 0.75202 0.82044 0.99762 0.0
C435 C 0.77868 0.81789 0.9625 0.0
C436 C 0.80477 0.85672 0.95155 0.0
C437 C 0.80026 0.85812 0.9307 0.0
C438 C 0.76862 0.81866 0.92072 0.0
C439 C 0.74232 0.77814 0.93154 0.0
C440 C 0.7473 0.77796 0.95273 0.0
H441 H 0.04061 0.92685 0.32295 0.0
H442 H 0.90355 0.84114 0.34379 0.0
H443 H 0.8961 0.77978 0.3215 0.0
H444 H 0.02056 0.88953 0.27112 0.0
H445 H 0.07417 0.89216 0.26844 0.0
H446 H 0.06842 0.9292 0.28596 0.0
H447 H 0.09807 0.8999 0.31491 0.0
H448 H 0.10368 0.86258 0.29749 0.0
H449 H 0.07027 0.84025 0.31996 0.0
H450 H 0.90375 0.72781 0.29692 0.0
H451 H 0.92567 0.68926 0.27163 0.0
H452 H 0.05768 0.80915 0.2669 0.0
C453 C 0.00898 0.89522 0.32277 0.0
C454 C 0.9726 0.88872 0.33506 0.0
C455 C 0.93182 0.84682 0.33447 0.0
C456 C 0.92729 0.81178 0.32188 0.0
C457 C 0.9639 0.8192 0.31003 0.0
C458 C 0.00393 0.8599 0.31035 0.0
C459 C 0.03815 0.8592 0.29617 0.0
C460 C 0.05107 0.89462 0.27943 0.0
C461 C 0.08001 0.86587 0.30783 0.0
C462 C 0.01111 0.81177 0.2878 0.0
C463 C 0.96836 0.78924 0.29598 0.0
C464 C 0.93711 0.74513 0.2904 0.0
C465 C 0.9498 0.72359 0.27597 0.0
C466 C 0.99338 0.74615 0.2673 0.0
C467 C 0.02436 0.79076 0.27344 0.0
H468 H 0.13911 0.04401 0.67239 0.0
H469 H 0.05235 0.89878 0.66947 0.0
H470 H 0.10734 0.89358 0.64702 0.0
H471 H 0.17411 0.0609 0.62197 0.0
H472 H 0.23119 0.10441 0.62739 0.0
H473 H 0.18637 0.09598 0.6441 0.0
H474 H 0.22899 0.0857 0.67423 0.0
H475 H 0.27406 0.09418 0.65759 0.0
H476 H 0.24606 0.04381 0.67266 0.0
H477 H 0.169 0.90579 0.62238 0.0
H478 H 0.23236 0.93365 0.5985 0.0
H479 H 0.28106 0.07036 0.61998 0.0
C480 C 0.13181 0.01104 0.66716 0.0
C481 C 0.09147 0.97178 0.67255 0.0
C482 C 0.08318 0.92925 0.6655 0.0
C483 C 0.11419 0.926 0.65278 0.0
C484 C 0.15355 0.96554 0.64759 0.0
C485 C 0.16259 0.00718 0.65476 0.0
C486 C 0.20665 0.04472 0.64663 0.0
C487 C 0.1991 0.07847 0.63429 0.0
C488 C 0.24097 0.06849 0.6638 0.0
C489 C 0.22046 0.01791 0.63327 0.0
C490 C 0.18957 0.9723 0.63405 0.0
C491 C 0.19384 0.94134 0.62194 0.0
C492 C 0.23024 0.95753 0.6085 0.0
C493 C 0.26208 0.00431 0.60731 0.0
C494 C 0.25731 0.03449 0.62027 0.0
H495 H 0.11065 0.06869 0.98862 0.0
H496 H 0.11372 0.15322 0.03815 0.0
H497 H 0.1738 0.22029 0.02109 0.0
H498 H 0.23298 0.13373 0.97625 0.0
H499 H 0.22232 0.12585 0.94945 0.0
H500 H 0.18424 0.08351 0.96681 0.0
H501 H 0.11751 0.08909 0.9514 0.0
H502 H 0.15534 0.13144 0.93407 0.0
H503 H 0.12052 0.14314 0.95046 0.0
H504 H 0.22844 0.27869 0.99768 0.0
H505 H 0.27276 0.32511 0.96889 0.0
H506 H 0.23177 0.20354 0.93361 0.0
C507 C 0.12495 0.10119 0.99607 0.0
C508 C 0.10806 0.10585 0.01478 0.0
C509 C 0.12647 0.14901 0.02385 0.0
C510 C 0.16069 0.18725 0.01432 0.0
C511 C 0.17598 0.18181 0.99566 0.0
C512 C 0.15876 0.13994 0.98658 0.0
C513 C 0.17812 0.14412 0.96562 0.0
C514 C 0.20608 0.12039 0.96447 0.0
C515 C 0.14064 0.12588 0.94944 0.0
C516 C 0.20796 0.19488 0.9642 0.0
C517 C 0.20673 0.21587 0.98181 0.0
C518 C 0.22995 0.26265 0.98384 0.0
C519 C 0.25474 0.28875 0.96734 0.0
C520 C 0.25577 0.26807 0.94895 0.0
C521 C 0.23242 0.22042 0.94755 0.0
H522 H 0.94057 0.0794 0.33631 0.0
H523 H 0.08498 0.13259 0.34031 0.0
H524 H 0.09783 0.19786 0.31944 0.0
H525 H 0.93668 0.1102 0.28561 0.0
H526 H 0.89393 0.12521 0.28998 0.0
H527 H 0.89643 0.08359 0.30564 0.0
H528 H 0.90185 0.12992 0.33759 0.0
H529 H 0.89939 0.17174 0.32202 0.0
H530 H 0.94573 0.18816 0.33941 0.0
H531 H 0.09419 0.25408 0.29609 0.0
H532 H 0.07509 0.29831 0.27305 0.0
H533 H 0.93306 0.21183 0.28694 0.0
C534 C 0.97491 0.10484 0.33282 0.0
C535 C 0.01183 0.10093 0.33978 0.0
C536 C 0.05626 0.13503 0.33509 0.0
C537 C 0.06385 0.17217 0.32327 0.0
C538 C 0.02665 0.17495 0.31658 0.0
C539 C 0.98308 0.14241 0.32135 0.0
C540 C 0.94896 0.15319 0.31223 0.0
C541 C 0.91714 0.11583 0.29749 0.0
C542 C 0.92243 0.16124 0.3288 0.0
C543 C 0.98008 0.19639 0.30119 0.0
C544 C 0.02472 0.20837 0.30388 0.0
C545 C 0.05939 0.24552 0.29419 0.0
C546 C 0.0481 0.27077 0.28122 0.0
C547 C 0.00245 0.25916 0.27816 0.0
C548 C 0.96826 0.22175 0.28867 0.0
loop_
_geom_bond_atom_site_label_1
_geom_bond_atom_site_label_2
_geom_bond_distance
_geom_bond_site_symmetry_2
_ccdc_geom_bond_type
In0 O1 2.294 1_455 S
In0 O2 2.326 . S
In0 O6 2.266 1_445 S
In0 O7 2.326 1_445 S
In0 O8 2.266 1_545 S
In0 O9 2.326 1_445 S
In0 O11 2.294 . S
In0 O12 2.326 . S
O1 In0 2.294 1_655 S
O1 C10 1.240 1_655 S
O2 In0 2.326 . S
O2 C10 1.252 . S
C3 O6 1.252 . S
C3 O7 1.260 . S
C4 O11 1.240 . S
C4 O12 1.252 . S
C5 O8 1.234 1_655 S
C5 O9 1.290 . S
O6 In0 2.266 1_665 S
O6 C3 1.252 . S
O7 In0 2.326 1_665 S
O7 C3 1.260 . S
O8 In0 2.266 1_565 S
O8 C5 1.234 1_455 S
O9 In0 2.326 1_665 S
O9 C5 1.290 . S
C10 O1 1.240 1_455 S
C10 O2 1.252 . S
O11 In0 2.294 . S
O11 C4 1.240 . S
O12 In0 2.326 . S
O12 C4 1.252 . S
In13 O14 2.292 . S
In13 O15 2.308 1_455 S
In13 O19 2.288 . S
In13 O20 2.341 1_545 S
In13 O21 2.269 1_445 S
In13 O22 2.344 1_545 S
In13 O24 2.272 1_445 S
In13 O25 2.311 1_455 S
O14 In13 2.292 . S
O14 C23 1.240 1_455 S
O15 In13 2.308 1_655 S
O15 C23 1.252 . S
C16 O19 1.235 1_565 S
C16 O20 1.268 . S
C17 O24 1.240 1_545 S
C17 O25 1.252 . S
C18 O21 1.252 1_455 S
C18 O22 1.260 . S
O19 In13 2.288 . S
O19 C16 1.235 1_545 S
O20 In13 2.341 1_565 S
O20 C16 1.268 . S
O21 In13 2.269 1_665 S
O21 C18 1.252 1_655 S
O22 In13 2.344 1_565 S
O22 C18 1.260 . S
C23 O14 1.240 1_655 S
C23 O15 1.252 . S
O24 In13 2.272 1_665 S
O24 C17 1.240 1_565 S
O25 In13 2.311 1_655 S
O25 C17 1.252 . S
In26 O27 2.269 1_445 S
In26 O28 2.308 1_445 S
In26 O32 2.269 1_545 S
In26 O33 2.347 . S
In26 O34 2.291 . S
In26 O35 2.343 . S
In26 O37 2.292 1_455 S
In26 O38 2.305 1_445 S
O27 In26 2.269 1_665 S
O27 C36 1.240 . S
O28 In26 2.308 1_665 S
O28 C36 1.252 . S
C29 O32 1.252 1_545 S
C29 O33 1.260 . S
C30 O37 1.240 1_565 S
C30 O38 1.252 . S
C31 O34 1.252 . S
C31 O35 1.260 . S
O32 In26 2.269 1_565 S
O32 C29 1.252 1_565 S
O33 In26 2.347 . S
O33 C29 1.260 . S
O34 In26 2.291 . S
O34 C31 1.252 . S
O35 In26 2.343 . S
O35 C31 1.260 . S
C36 O27 1.240 . S
C36 O28 1.252 . S
O37 In26 2.292 1_655 S
O37 C30 1.240 1_545 S
O38 In26 2.305 1_665 S
O38 C30 1.252 . S
H39 C66 0.929 . S
N40 C65 1.433 . S
N40 C71 1.435 . S
N40 C77 1.423 . S
H41 C67 0.930 . S
H42 C70 0.931 . S
H43 C69 0.929 . S
H44 C72 0.930 . S
H45 C73 0.932 . S
H46 C76 0.929 . S
H47 C75 0.931 . S
H48 C78 0.929 . S
H49 C82 0.928 1_455 S
H50 C79 0.931 . S
H51 C81 0.929 1_455 S
H52 C84 0.929 . S
H53 C85 0.930 . S
H54 C87 0.929 . S
H55 C88 0.931 . S
H56 C90 0.930 . S
H57 C91 0.932 . S
H58 C93 0.931 . S
H59 C94 0.929 . S
H60 C96 0.929 . S
H61 C97 0.931 . S
H62 C99 0.929 1_455 S
N63 C83 1.433 . S
N63 C89 1.435 . S
N63 C95 1.423 . S
H64 C100 0.921 1_455 S
C65 N40 1.433 . S
C65 C66 1.363 . S
C65 C70 1.370 1_655 S
C66 H39 0.929 . S
C66 C65 1.363 . S
C66 C67 1.385 . S
C67 H41 0.930 . S
C67 C66 1.385 . S
C67 C68 1.357 . S
C68 C67 1.357 . S
C68 C69 1.406 1_655 S
C69 H43 0.929 . S
C69 C68 1.406 1_455 S
C69 C70 1.391 . S
C70 H42 0.931 . S
C70 C65 1.370 1_455 S
C70 C69 1.391 . S
C71 N40 1.435 . S
C71 C72 1.358 1_655 S
C71 C76 1.371 . S
C72 H44 0.930 . S
C72 C71 1.358 1_455 S
C72 C73 1.405 . S
C73 H45 0.932 . S
C73 C72 1.405 . S
C73 C74 1.389 . S
C74 C73 1.389 . S
C74 C75 1.390 1_455 S
C75 H47 0.931 . S
C75 C74 1.390 1_655 S
C75 C76 1.382 . S
C76 H46 0.929 . S
C76 C71 1.371 . S
C76 C75 1.382 . S
C77 N40 1.423 . S
C77 C78 1.362 . S
C77 C82 1.399 . S
C78 H48 0.929 . S
C78 C77 1.362 . S
C78 C79 1.376 . S
C79 H50 0.931 . S
C79 C78 1.376 . S
C79 C80 1.396 . S
C80 C79 1.396 . S
C80 C81 1.348 . S
C80 C98 1.472 . S
C81 H51 0.929 1_655 S
C81 C80 1.348 . S
C81 C82 1.437 . S
C82 H49 0.928 1_655 S
C82 C77 1.399 . S
C82 C81 1.437 . S
C83 N63 1.433 . S
C83 C84 1.363 . S
C83 C88 1.370 1_655 S
C84 H52 0.929 . S
C84 C83 1.363 . S
C84 C85 1.385 . S
C85 H53 0.930 . S
C85 C84 1.385 . S
C85 C86 1.357 . S
C86 C85 1.357 . S
C86 C87 1.406 1_655 S
C87 H54 0.929 . S
C87 C86 1.406 1_455 S
C87 C88 1.391 . S
C88 H55 0.931 . S
C88 C83 1.370 1_455 S
C88 C87 1.391 . S
C89 N63 1.435 . S
C89 C90 1.358 1_655 S
C89 C94 1.371 . S
C90 H56 0.930 . S
C90 C89 1.358 1_455 S
C90 C91 1.405 . S
C91 H57 0.932 . S
C91 C90 1.405 . S
C91 C92 1.390 . S
C92 C91 1.390 . S
C92 C93 1.380 1_455 S
C93 H58 0.931 . S
C93 C92 1.380 1_655 S
C93 C94 1.382 . S
C94 H59 0.929 . S
C94 C89 1.371 . S
C94 C93 1.382 . S
C95 N63 1.423 . S
C95 C96 1.362 . S
C95 C100 1.392 . S
C96 H60 0.929 . S
C96 C95 1.362 . S
C96 C97 1.376 . S
C97 H61 0.931 . S
C97 C96 1.376 . S
C97 C98 1.396 . S
C98 C80 1.472 . S
C98 C97 1.396 . S
C98 C99 1.348 . S
C99 H62 0.929 1_655 S
C99 C98 1.348 . S
C99 C100 1.451 . S
C100 H64 0.921 1_655 S
C100 C95 1.392 . S
C100 C99 1.451 . S
H101 C128 0.929 . S
N102 C127 1.433 . S
N102 C133 1.435 . S
N102 C139 1.423 . S
H103 C129 0.930 . S
H104 C132 0.931 . S
H105 C131 0.929 . S
H106 C134 0.930 . S
H107 C135 0.932 . S
H108 C138 0.929 . S
H109 C137 0.931 . S
H110 C140 0.929 . S
H111 C144 0.932 1_565 S
H112 C141 0.931 . S
H113 C143 0.929 1_565 S
H114 C146 0.929 . S
H115 C147 0.930 . S
H116 C149 0.929 . S
H117 C150 0.931 . S
H118 C152 0.930 . S
H119 C153 0.932 . S
H120 C155 0.931 . S
H121 C156 0.929 . S
H122 C158 0.929 . S
H123 C159 0.931 . S
H124 C161 0.929 1_565 S
N125 C145 1.433 . S
N125 C151 1.435 . S
N125 C157 1.423 . S
H126 C162 0.932 1_565 S
C127 N102 1.433 . S
C127 C128 1.363 . S
C127 C132 1.370 1_545 S
C128 H101 0.929 . S
C128 C127 1.363 . S
C128 C129 1.385 . S
C129 H103 0.930 . S
C129 C128 1.385 . S
C129 C130 1.357 . S
C130 C129 1.357 . S
C130 C131 1.406 1_545 S
C131 H105 0.929 . S
C131 C130 1.406 1_565 S
C131 C132 1.391 . S
C132 H104 0.931 . S
C132 C127 1.370 1_565 S
C132 C131 1.391 . S
C133 N102 1.435 . S
C133 C134 1.358 1_545 S
C133 C138 1.371 . S
C134 H106 0.930 . S
C134 C133 1.358 1_565 S
C134 C135 1.405 . S
C135 H107 0.932 . S
C135 C134 1.405 . S
C135 C136 1.383 1_565 S
C136 C135 1.383 1_545 S
C136 C137 1.393 . S
C137 H109 0.931 . S
C137 C136 1.393 . S
C137 C138 1.382 . S
C138 H108 0.929 . S
C138 C133 1.371 . S
C138 C137 1.382 . S
C139 N102 1.423 . S
C139 C140 1.362 . S
C139 C144 1.388 . S
C140 H110 0.929 . S
C140 C139 1.362 . S
C140 C141 1.376 . S
C141 H112 0.931 . S
C141 C140 1.376 . S
C141 C142 1.396 . S
C142 C141 1.396 . S
C142 C143 1.348 . S
C142 C160 1.472 . S
C143 H113 0.929 1_545 S
C143 C142 1.348 . S
C143 C144 1.443 . S
C144 H111 0.932 1_545 S
C144 C139 1.388 . S
C144 C143 1.443 . S
C145 N125 1.433 . S
C145 C146 1.363 . S
C145 C150 1.370 1_545 S
C146 H114 0.929 . S
C146 C145 1.363 . S
C146 C147 1.385 . S
C147 H115 0.930 . S
C147 C146 1.385 . S
C147 C148 1.357 . S
C148 C147 1.357 . S
C148 C149 1.406 1_545 S
C149 H116 0.929 . S
C149 C148 1.406 1_565 S
C149 C150 1.391 . S
C150 H117 0.931 . S
C150 C145 1.370 1_565 S
C150 C149 1.391 . S
C151 N125 1.435 . S
C151 C152 1.358 1_545 S
C151 C156 1.371 . S
C152 H118 0.930 . S
C152 C151 1.358 1_565 S
C152 C153 1.405 . S
C153 H119 0.932 . S
C153 C152 1.405 . S
C153 C154 1.383 1_565 S
C154 C153 1.383 1_545 S
C154 C155 1.393 . S
C155 H120 0.931 . S
C155 C154 1.393 . S
C155 C156 1.382 . S
C156 H121 0.929 . S
C156 C151 1.371 . S
C156 C155 1.382 . S
C157 N125 1.423 . S
C157 C158 1.362 . S
C157 C162 1.388 . S
C158 H122 0.929 . S
C158 C157 1.362 . S
C158 C159 1.376 . S
C159 H123 0.931 . S
C159 C158 1.376 . S
C159 C160 1.396 . S
C160 C142 1.472 . S
C160 C159 1.396 . S
C160 C161 1.348 . S
C161 H124 0.929 1_545 S
C161 C160 1.348 . S
C161 C162 1.443 . S
C162 H126 0.932 1_545 S
C162 C157 1.388 . S
C162 C161 1.443 . S
H163 C190 0.929 . S
N164 C189 1.433 . S
N164 C195 1.435 . S
N164 C201 1.423 . S
H165 C191 0.930 . S
H166 C194 0.931 . S
H167 C193 0.929 . S
H168 C196 0.930 . S
H169 C197 0.932 . S
H170 C200 0.929 . S
H171 C199 0.931 . S
H172 C202 0.929 . S
H173 C206 0.932 . S
H174 C203 0.931 . S
H175 C205 0.929 . S
H176 C208 0.929 . S
H177 C209 0.930 . S
H178 C211 0.929 . S
H179 C212 0.931 . S
H180 C214 0.930 . S
H181 C215 0.932 . S
H182 C217 0.931 . S
H183 C218 0.929 . S
H184 C220 0.929 . S
H185 C221 0.931 . S
H186 C223 0.929 . S
N187 C207 1.433 . S
N187 C213 1.435 . S
N187 C219 1.423 . S
H188 C224 0.932 . S
C189 N164 1.433 . S
C189 C190 1.363 . S
C189 C194 1.370 . S
C190 H163 0.929 . S
C190 C189 1.363 . S
C190 C191 1.385 . S
C191 H165 0.930 . S
C191 C190 1.385 . S
C191 C192 1.357 . S
C192 C191 1.357 . S
C192 C193 1.406 . S
C193 H167 0.929 . S
C193 C192 1.406 . S
C193 C194 1.391 . S
C194 H166 0.931 . S
C194 C189 1.370 . S
C194 C193 1.391 . S
C195 N164 1.435 . S
C195 C196 1.358 . S
C195 C200 1.371 . S
C196 H168 0.930 . S
C196 C195 1.358 . S
C196 C197 1.405 . S
C197 H169 0.932 . S
C197 C196 1.405 . S
C197 C198 1.383 . S
C198 C197 1.383 . S
C198 C199 1.393 . S
C199 H171 0.931 . S
C199 C198 1.393 . S
C199 C200 1.382 . S
C200 H170 0.929 . S
C200 C195 1.371 . S
C200 C199 1.382 . S
C201 N164 1.423 . S
C201 C202 1.362 . S
C201 C206 1.388 . S
C202 H172 0.929 . S
C202 C201 1.362 . S
C202 C203 1.376 . S
C203 H174 0.931 . S
C203 C202 1.376 . S
C203 C204 1.396 . S
C204 C203 1.396 . S
C204 C205 1.348 . S
C204 C222 1.472 . S
C205 H175 0.929 . S
C205 C204 1.348 . S
C205 C206 1.443 . S
C206 H173 0.932 . S
C206 C201 1.388 . S
C206 C205 1.443 . S
C207 N187 1.433 . S
C207 C208 1.363 . S
C207 C212 1.370 . S
C208 H176 0.929 . S
C208 C207 1.363 . S
C208 C209 1.385 . S
C209 H177 0.930 . S
C209 C208 1.385 . S
C209 C210 1.357 . S
C210 C209 1.357 . S
C210 C211 1.406 . S
C211 H178 0.929 . S
C211 C210 1.406 . S
C211 C212 1.391 . S
C212 H179 0.931 . S
C212 C207 1.370 . S
C212 C211 1.391 . S
C213 N187 1.435 . S
C213 C214 1.358 . S
C213 C218 1.371 . S
C214 H180 0.930 . S
C214 C213 1.358 . S
C214 C215 1.405 . S
C215 H181 0.932 . S
C215 C214 1.405 . S
C215 C216 1.383 . S
C216 C215 1.383 . S
C216 C217 1.393 . S
C217 H182 0.931 . S
C217 C216 1.393 . S
C217 C218 1.382 . S
C218 H183 0.929 . S
C218 C213 1.371 . S
C218 C217 1.382 . S
C219 N187 1.423 . S
C219 C220 1.362 . S
C219 C224 1.388 . S
C220 H184 0.929 . S
C220 C219 1.362 . S
C220 C221 1.376 . S
C221 H185 0.931 . S
C221 C220 1.376 . S
C221 C222 1.396 . S
C222 C204 1.472 . S
C222 C221 1.396 . S
C222 C223 1.348 . S
C223 H186 0.929 . S
C223 C222 1.348 . S
C223 C224 1.443 . S
C224 H188 0.932 . S
C224 C219 1.388 . S
C224 C223 1.443 . S
H225 C237 0.930 . S
H226 C239 0.930 . S
H227 C240 0.930 . S
H228 C244 0.959 1_455 S
H229 C244 0.959 . S
H230 C244 0.961 . S
H231 C245 0.960 . S
H232 C245 0.961 . S
H233 C245 0.959 . S
H234 C248 0.929 . S
H235 C249 0.931 . S
H236 C251 0.930 . S
C237 H225 0.930 . S
C237 C238 1.399 1_655 S
C237 C242 1.399 . S
C238 C237 1.399 1_455 S
C238 C239 1.376 . S
C239 H226 0.930 . S
C239 C238 1.376 . S
C239 C240 1.388 . S
C240 H227 0.930 . S
C240 C239 1.388 . S
C240 C241 1.390 . S
C241 C240 1.390 . S
C241 C242 1.394 1_455 S
C241 C247 1.465 . S
C242 C237 1.399 . S
C242 C241 1.394 1_655 S
C242 C243 1.516 . S
C243 C242 1.516 . S
C243 C244 1.502 . S
C243 C245 1.561 . S
C243 C246 1.526 . S
C244 H228 0.959 1_655 S
C244 H229 0.959 . S
C244 H230 0.961 . S
C244 C243 1.502 . S
C245 H231 0.960 . S
C245 H232 0.961 . S
C245 H233 0.959 . S
C245 C243 1.561 . S
C246 C243 1.526 . S
C246 C247 1.396 1_655 S
C246 C251 1.390 . S
C247 C241 1.465 . S
C247 C246 1.396 1_455 S
C247 C248 1.399 . S
C248 H234 0.929 . S
C248 C247 1.399 . S
C248 C249 1.385 . S
C249 H235 0.931 . S
C249 C248 1.385 . S
C249 C250 1.389 . S
C250 C249 1.389 . S
C250 C251 1.387 1_455 S
C251 H236 0.930 . S
C251 C246 1.390 . S
C251 C250 1.387 1_655 S
H252 C264 0.930 . S
H253 C266 0.930 . S
H254 C267 0.930 . S
H255 C271 0.959 . S
H256 C271 0.959 . S
H257 C271 0.961 . S
H258 C272 0.960 . S
H259 C272 0.961 . S
H260 C272 0.959 . S
H261 C275 0.929 . S
H262 C276 0.931 . S
H263 C278 0.930 . S
C264 H252 0.930 . S
C264 C265 1.399 . S
C264 C269 1.399 . S
C265 C264 1.399 . S
C265 C266 1.376 1_545 S
C266 H253 0.930 . S
C266 C265 1.376 1_565 S
C266 C267 1.388 . S
C267 H254 0.930 . S
C267 C266 1.388 . S
C267 C268 1.390 . S
C268 C267 1.390 . S
C268 C269 1.394 1_565 S
C268 C274 1.465 . S
C269 C264 1.399 . S
C269 C268 1.394 1_545 S
C269 C270 1.516 . S
C270 C269 1.516 . S
C270 C271 1.502 . S
C270 C272 1.561 . S
C270 C273 1.526 . S
C271 H255 0.959 . S
C271 H256 0.959 . S
C271 H257 0.961 . S
C271 C270 1.502 . S
C272 H258 0.960 . S
C272 H259 0.961 . S
C272 H260 0.959 . S
C272 C270 1.561 . S
C273 C270 1.526 . S
C273 C274 1.396 1_545 S
C273 C278 1.390 . S
C274 C268 1.465 . S
C274 C273 1.396 1_565 S
C274 C275 1.399 . S
C275 H261 0.929 . S
C275 C274 1.399 . S
C275 C276 1.385 . S
C276 H262 0.931 . S
C276 C275 1.385 . S
C276 C277 1.390 . S
C277 C276 1.390 . S
C277 C278 1.387 1_565 S
C278 H263 0.930 . S
C278 C273 1.390 . S
C278 C277 1.387 1_545 S
H279 C291 0.930 . S
H280 C293 0.930 . S
H281 C294 0.930 . S
H282 C298 0.959 . S
H283 C298 0.959 . S
H284 C298 0.961 . S
H285 C299 0.960 . S
H286 C299 0.961 . S
H287 C299 0.959 . S
H288 C302 0.929 . S
H289 C303 0.931 . S
H290 C305 0.930 . S
C291 H279 0.930 . S
C291 C292 1.399 . S
C291 C296 1.399 . S
C292 C291 1.399 . S
C292 C293 1.376 . S
C293 H280 0.930 . S
C293 C292 1.376 . S
C293 C294 1.388 . S
C294 H281 0.930 . S
C294 C293 1.388 . S
C294 C295 1.390 . S
C295 C294 1.390 . S
C295 C296 1.394 . S
C295 C301 1.465 . S
C296 C291 1.399 . S
C296 C295 1.394 . S
C296 C297 1.516 . S
C297 C296 1.516 . S
C297 C298 1.502 . S
C297 C299 1.561 . S
C297 C300 1.526 . S
C298 H282 0.959 . S
C298 H283 0.959 . S
C298 H284 0.961 . S
C298 C297 1.502 . S
C299 H285 0.960 . S
C299 H286 0.961 . S
C299 H287 0.959 . S
C299 C297 1.561 . S
C300 C297 1.526 . S
C300 C301 1.396 . S
C300 C305 1.390 . S
C301 C295 1.465 . S
C301 C300 1.396 . S
C301 C302 1.399 . S
C302 H288 0.929 . S
C302 C301 1.399 . S
C302 C303 1.385 . S
C303 H289 0.931 . S
C303 C302 1.385 . S
C303 C304 1.389 . S
C304 C303 1.389 . S
C304 C305 1.387 . S
C305 H290 0.930 . S
C305 C300 1.390 . S
C305 C304 1.387 . S
H306 C318 0.930 . S
H307 C320 0.930 . S
H308 C321 0.930 . S
H309 C325 0.959 . S
H310 C325 0.959 . S
H311 C325 0.961 . S
H312 C326 0.960 . S
H313 C326 0.961 . S
H314 C326 0.959 . S
H315 C329 0.929 . S
H316 C330 0.931 . S
H317 C332 0.930 . S
C318 H306 0.930 . S
C318 C319 1.399 1_455 S
C318 C323 1.399 . S
C319 C318 1.399 1_655 S
C319 C320 1.376 . S
C320 H307 0.930 . S
C320 C319 1.376 . S
C320 C321 1.388 . S
C321 H308 0.930 . S
C321 C320 1.388 . S
C321 C322 1.390 . S
C322 C321 1.390 . S
C322 C323 1.394 1_655 S
C322 C328 1.465 . S
C323 C318 1.399 . S
C323 C322 1.394 1_455 S
C323 C324 1.516 . S
C324 C323 1.516 . S
C324 C325 1.502 . S
C324 C326 1.561 . S
C324 C327 1.526 . S
C325 H309 0.959 . S
C325 H310 0.959 . S
C325 H311 0.961 . S
C325 C324 1.502 . S
C326 H312 0.960 . S
C326 H313 0.961 . S
C326 H314 0.959 . S
C326 C324 1.561 . S
C327 C324 1.526 . S
C327 C328 1.396 1_455 S
C327 C332 1.390 . S
C328 C322 1.465 . S
C328 C327 1.396 1_655 S
C328 C329 1.399 . S
C329 H315 0.929 . S
C329 C328 1.399 . S
C329 C330 1.385 . S
C330 H316 0.931 . S
C330 C329 1.385 . S
C330 C331 1.389 . S
C331 C330 1.389 . S
C331 C332 1.387 1_655 S
C332 H317 0.930 . S
C332 C327 1.390 . S
C332 C331 1.387 1_455 S
H333 C345 0.930 . S
H334 C347 0.930 . S
H335 C348 0.930 . S
H336 C352 0.959 1_565 S
H337 C352 0.959 . S
H338 C352 0.961 . S
H339 C353 0.960 . S
H340 C353 0.961 . S
H341 C353 0.959 . S
H342 C356 0.929 . S
H343 C357 0.931 . S
H344 C359 0.930 . S
C345 H333 0.930 . S
C345 C346 1.402 1_545 S
C345 C350 1.399 . S
C346 C345 1.402 1_565 S
C346 C347 1.380 . S
C347 H334 0.930 . S
C347 C346 1.380 . S
C347 C348 1.388 . S
C348 H335 0.930 . S
C348 C347 1.388 . S
C348 C349 1.390 . S
C349 C348 1.390 . S
C349 C350 1.394 1_565 S
C349 C355 1.465 . S
C350 C345 1.399 . S
C350 C349 1.394 1_545 S
C350 C351 1.516 . S
C351 C350 1.516 . S
C351 C352 1.502 . S
C351 C353 1.561 . S
C351 C354 1.526 . S
C352 H336 0.959 1_545 S
C352 H337 0.959 . S
C352 H338 0.961 . S
C352 C351 1.502 . S
C353 H339 0.960 . S
C353 H340 0.961 . S
C353 H341 0.959 . S
C353 C351 1.561 . S
C354 C351 1.526 . S
C354 C355 1.396 1_545 S
C354 C359 1.390 . S
C355 C349 1.465 . S
C355 C354 1.396 1_565 S
C355 C356 1.399 . S
C356 H342 0.929 . S
C356 C355 1.399 . S
C356 C357 1.385 . S
C357 H343 0.931 . S
C357 C356 1.385 . S
C357 C358 1.390 1_565 S
C358 C357 1.390 1_545 S
C358 C359 1.398 . S
C359 H344 0.930 . S
C359 C354 1.390 . S
C359 C358 1.398 . S
H360 C372 0.930 . S
H361 C374 0.930 . S
H362 C375 0.930 . S
H363 C379 0.959 . S
H364 C379 0.959 . S
H365 C379 0.961 . S
H366 C380 0.960 . S
H367 C380 0.961 . S
H368 C380 0.959 . S
H369 C383 0.929 . S
H370 C384 0.931 . S
H371 C386 0.930 . S
C372 H360 0.930 . S
C372 C373 1.399 . S
C372 C377 1.399 . S
C373 C372 1.399 . S
C373 C374 1.376 . S
C374 H361 0.930 . S
C374 C373 1.376 . S
C374 C375 1.388 . S
C375 H362 0.930 . S
C375 C374 1.388 . S
C375 C376 1.390 . S
C376 C375 1.390 . S
C376 C377 1.394 . S
C376 C382 1.465 . S
C377 C372 1.399 . S
C377 C376 1.394 . S
C377 C378 1.516 . S
C378 C377 1.516 . S
C378 C379 1.502 . S
C378 C380 1.561 . S
C378 C381 1.526 . S
C379 H363 0.959 . S
C379 H364 0.959 . S
C379 H365 0.961 . S
C379 C378 1.502 . S
C380 H366 0.960 . S
C380 H367 0.961 . S
C380 H368 0.959 . S
C380 C378 1.561 . S
C381 C378 1.526 . S
C381 C382 1.396 . S
C381 C386 1.390 . S
C382 C376 1.465 . S
C382 C381 1.396 . S
C382 C383 1.399 . S
C383 H369 0.929 . S
C383 C382 1.399 . S
C383 C384 1.385 . S
C384 H370 0.931 . S
C384 C383 1.385 . S
C384 C385 1.389 . S
C385 C384 1.389 . S
C385 C386 1.387 . S
C386 H371 0.930 . S
C386 C381 1.390 . S
C386 C385 1.387 . S
H387 C399 0.930 . S
H388 C401 0.930 . S
H389 C402 0.930 . S
H390 C406 0.959 . S
H391 C406 0.959 . S
H392 C406 0.961 . S
H393 C407 0.960 . S
H394 C407 0.961 . S
H395 C407 0.959 . S
H396 C410 0.929 . S
H397 C411 0.931 . S
H398 C413 0.930 . S
C399 H387 0.930 . S
C399 C400 1.399 1_545 S
C399 C404 1.399 . S
C400 C399 1.399 1_565 S
C400 C401 1.376 . S
C401 H388 0.930 . S
C401 C400 1.376 . S
C401 C402 1.388 . S
C402 H389 0.930 . S
C402 C401 1.388 . S
C402 C403 1.390 . S
C403 C402 1.390 . S
C403 C404 1.394 1_565 S
C403 C409 1.465 . S
C404 C399 1.399 . S
C404 C403 1.394 1_545 S
C404 C405 1.516 . S
C405 C404 1.516 . S
C405 C406 1.502 . S
C405 C407 1.561 . S
C405 C408 1.526 . S
C406 H390 0.959 . S
C406 H391 0.959 . S
C406 H392 0.961 . S
C406 C405 1.502 . S
C407 H393 0.960 . S
C407 H394 0.961 . S
C407 H395 0.959 . S
C407 C405 1.561 . S
C408 C405 1.526 . S
C408 C409 1.396 1_545 S
C408 C413 1.390 . S
C409 C403 1.465 . S
C409 C408 1.396 1_565 S
C409 C410 1.399 . S
C410 H396 0.929 . S
C410 C409 1.399 . S
C410 C411 1.385 . S
C411 H397 0.931 . S
C411 C410 1.385 . S
C411 C412 1.389 . S
C412 C411 1.389 . S
C412 C413 1.387 1_565 S
C413 H398 0.930 . S
C413 C408 1.390 . S
C413 C412 1.387 1_545 S
H414 C426 0.930 . S
H415 C428 0.930 . S
H416 C429 0.930 . S
H417 C433 0.959 1_556 S
H418 C433 0.959 . S
H419 C433 0.961 . S
H420 C434 0.960 . S
H421 C434 0.961 . S
H422 C434 0.959 . S
H423 C437 0.929 . S
H424 C438 0.931 . S
H425 C440 0.930 . S
C426 H414 0.930 . S
C426 C427 1.399 . S
C426 C431 1.399 1_554 S
C427 C426 1.399 . S
C427 C428 1.376 1_554 S
C428 H415 0.930 . S
C428 C427 1.376 1_556 S
C428 C429 1.388 . S
C429 H416 0.930 . S
C429 C428 1.388 . S
C429 C430 1.390 . S
C430 C429 1.390 . S
C430 C431 1.394 . S
C430 C436 1.465 . S
C431 C426 1.399 1_556 S
C431 C430 1.394 . S
C431 C432 1.516 . S
C432 C431 1.516 . S
C432 C433 1.502 1_556 S
C432 C434 1.561 1_556 S
C432 C435 1.526 . S
C433 H417 0.959 1_554 S
C433 H418 0.959 . S
C433 H419 0.961 . S
C433 C432 1.502 1_554 S
C434 H420 0.960 . S
C434 H421 0.961 . S
C434 H422 0.959 . S
C434 C432 1.561 1_554 S
C435 C432 1.526 . S
C435 C436 1.396 . S
C435 C440 1.390 . S
C436 C430 1.465 . S
C436 C435 1.396 . S
C436 C437 1.399 . S
C437 H423 0.929 . S
C437 C436 1.399 . S
C437 C438 1.385 . S
C438 H424 0.931 . S
C438 C437 1.385 . S
C438 C439 1.389 . S
C439 C438 1.389 . S
C439 C440 1.387 . S
C440 H425 0.930 . S
C440 C435 1.390 . S
C440 C439 1.387 . S
H441 C453 0.930 . S
H442 C455 0.930 . S
H443 C456 0.930 . S
H444 C460 0.959 . S
H445 C460 0.959 . S
H446 C460 0.961 . S
H447 C461 0.960 . S
H448 C461 0.961 . S
H449 C461 0.959 . S
H450 C464 0.929 . S
H451 C465 0.931 . S
H452 C467 0.930 . S
C453 H441 0.930 . S
C453 C454 1.408 . S
C453 C458 1.399 . S
C454 C453 1.408 . S
C454 C455 1.370 1_455 S
C455 H442 0.930 . S
C455 C454 1.370 1_655 S
C455 C456 1.388 . S
C456 H443 0.930 . S
C456 C455 1.388 . S
C456 C457 1.390 . S
C457 C456 1.390 . S
C457 C458 1.394 1_655 S
C457 C463 1.465 . S
C458 C453 1.399 . S
C458 C457 1.394 1_455 S
C458 C459 1.516 . S
C459 C458 1.516 . S
C459 C460 1.502 . S
C459 C461 1.561 . S
C459 C462 1.526 . S
C460 H444 0.959 . S
C460 H445 0.959 . S
C460 H446 0.961 . S
C460 C459 1.502 . S
C461 H447 0.960 . S
C461 H448 0.961 . S
C461 H449 0.959 . S
C461 C459 1.561 . S
C462 C459 1.526 . S
C462 C463 1.396 1_455 S
C462 C467 1.390 . S
C463 C457 1.465 . S
C463 C462 1.396 1_655 S
C463 C464 1.399 . S
C464 H450 0.929 . S
C464 C463 1.399 . S
C464 C465 1.385 . S
C465 H451 0.931 . S
C465 C464 1.385 . S
C465 C466 1.389 . S
C466 C465 1.389 . S
C466 C467 1.387 1_655 S
C467 H452 0.930 . S
C467 C462 1.390 . S
C467 C466 1.387 1_455 S
H468 C480 0.930 . S
H469 C482 0.930 . S
H470 C483 0.930 . S
H471 C487 0.959 . S
H472 C487 0.959 . S
H473 C487 0.961 . S
H474 C488 0.960 . S
H475 C488 0.961 . S
H476 C488 0.959 . S
H477 C491 0.929 . S
H478 C492 0.931 . S
H479 C494 0.930 . S
C480 H468 0.930 . S
C480 C481 1.399 . S
C480 C485 1.399 . S
C481 C480 1.399 . S
C481 C482 1.376 1_545 S
C482 H469 0.930 . S
C482 C481 1.376 1_565 S
C482 C483 1.388 . S
C483 H470 0.930 . S
C483 C482 1.388 . S
C483 C484 1.390 . S
C484 C483 1.390 . S
C484 C485 1.394 1_565 S
C484 C490 1.465 . S
C485 C480 1.399 . S
C485 C484 1.394 1_545 S
C485 C486 1.516 . S
C486 C485 1.516 . S
C486 C487 1.502 . S
C486 C488 1.561 . S
C486 C489 1.526 . S
C487 H471 0.959 . S
C487 H472 0.959 . S
C487 H473 0.961 . S
C487 C486 1.502 . S
C488 H474 0.960 . S
C488 H475 0.961 . S
C488 H476 0.959 . S
C488 C486 1.561 . S
C489 C486 1.526 . S
C489 C490 1.396 1_545 S
C489 C494 1.390 . S
C490 C484 1.465 . S
C490 C489 1.396 1_565 S
C490 C491 1.399 . S
C491 H477 0.929 . S
C491 C490 1.399 . S
C491 C492 1.385 . S
C492 H478 0.931 . S
C492 C491 1.385 . S
C492 C493 1.389 . S
C493 C492 1.389 . S
C493 C494 1.387 1_565 S
C494 H479 0.930 . S
C494 C489 1.390 . S
C494 C493 1.387 1_545 S
H495 C507 0.930 . S
H496 C509 0.930 . S
H497 C510 0.930 . S
H498 C514 0.959 . S
H499 C514 0.959 . S
H500 C514 0.961 . S
H501 C515 0.960 . S
H502 C515 0.961 . S
H503 C515 0.959 . S
H504 C518 0.929 . S
H505 C519 0.931 . S
H506 C521 0.930 . S
C507 H495 0.930 . S
C507 C508 1.399 1_556 S
C507 C512 1.399 . S
C508 C507 1.399 1_554 S
C508 C509 1.376 . S
C509 H496 0.930 . S
C509 C508 1.376 . S
C509 C510 1.388 . S
C510 H497 0.930 . S
C510 C509 1.388 . S
C510 C511 1.390 1_554 S
C511 C510 1.390 1_556 S
C511 C512 1.394 . S
C511 C517 1.465 . S
C512 C507 1.399 . S
C512 C511 1.394 . S
C512 C513 1.516 . S
C513 C512 1.516 . S
C513 C514 1.502 . S
C513 C515 1.561 . S
C513 C516 1.526 . S
C514 H498 0.959 . S
C514 H499 0.959 . S
C514 H500 0.961 . S
C514 C513 1.502 . S
C515 H501 0.960 . S
C515 H502 0.961 . S
C515 H503 0.959 . S
C515 C513 1.561 . S
C516 C513 1.526 . S
C516 C517 1.396 . S
C516 C521 1.390 . S
C517 C511 1.465 . S
C517 C516 1.396 . S
C517 C518 1.399 . S
C518 H504 0.929 . S
C518 C517 1.399 . S
C518 C519 1.385 . S
C519 H505 0.931 . S
C519 C518 1.385 . S
C519 C520 1.389 . S
C520 C519 1.389 . S
C520 C521 1.387 . S
C521 H506 0.930 . S
C521 C516 1.390 . S
C521 C520 1.387 . S
H522 C534 0.930 . S
H523 C536 0.930 . S
H524 C537 0.930 . S
H525 C541 0.959 . S
H526 C541 0.959 . S
H527 C541 0.961 . S
H528 C542 0.960 . S
H529 C542 0.961 . S
H530 C542 0.959 . S
H531 C545 0.929 . S
H532 C546 0.931 . S
H533 C548 0.930 . S
C534 H522 0.930 . S
C534 C535 1.399 1_655 S
C534 C539 1.399 . S
C535 C534 1.399 1_455 S
C535 C536 1.376 . S
C536 H523 0.930 . S
C536 C535 1.376 . S
C536 C537 1.388 . S
C537 H524 0.930 . S
C537 C536 1.388 . S
C537 C538 1.390 . S
C538 C537 1.390 . S
C538 C539 1.394 1_455 S
C538 C544 1.465 . S
C539 C534 1.399 . S
C539 C538 1.394 1_655 S
C539 C540 1.516 . S
C540 C539 1.516 . S
C540 C541 1.502 . S
C540 C542 1.561 . S
C540 C543 1.526 . S
C541 H525 0.959 . S
C541 H526 0.959 . S
C541 H527 0.961 . S
C541 C540 1.502 . S
C542 H528 0.960 . S
C542 H529 0.961 . S
C542 H530 0.959 . S
C542 C540 1.561 . S
C543 C540 1.526 . S
C543 C544 1.396 1_655 S
C543 C548 1.390 . S
C544 C538 1.465 . S
C544 C543 1.396 1_455 S
C544 C545 1.399 . S
C545 H531 0.929 . S
C545 C544 1.399 . S
C545 C546 1.385 . S
C546 H532 0.931 . S
C546 C545 1.385 . S
C546 C547 1.389 . S
C547 C546 1.389 . S
C547 C548 1.387 1_455 S
C548 H533 0.930 . S
C548 C543 1.390 . S
C548 C547 1.387 1_655 S
C250 C92 1.375 . S
C238 C10 1.399 . S
C265 C17 1.398 . S
C277 C136 1.405 1_565 S
C292 C36 1.401 . S
C304 C198 1.365 . S
C319 C5 1.388 . S
C331 C74 1.362 1_655 S
C358 C154 1.361 . S
C346 C16 1.398 . S
C373 C31 1.395 . S
C385 C216 1.364 . S
C412 C130 1.608 1_565 S
C400 C30 1.752 . S
C427 C3 1.750 . S
C439 C192 1.581 . S
C466 C68 1.621 . S
C454 C18 1.740 . S
C493 C148 1.657 1_565 S
C481 C29 1.741 . S
C520 C210 1.635 . S
C508 C4 1.744 . S
C535 C23 1.737 1_455 S
C547 C86 1.651 1_455 S
