# Generated by pormake.
# Topology anh, (6,3)-cn, num edge types: 1
# Building blocks:
#     Node 0, Type 0, BuildingBlock: PAMTOO_clean_sbu_0, # of connection points: 6
#     Node 1, Type 0, BuildingBlock: PAMTOO_clean_sbu_0, # of connection points: 6
#     Node 2, Type 0, BuildingBlock: PAMTOO_clean_sbu_0, # of connection points: 6
#     Node 3, Type 1, BuildingBlock: QEWDON_clean_linker_0, # of connection points: 3
#     Node 4, Type 1, BuildingBlock: QEWDON_clean_linker_0, # of connection points: 3
#     Node 5, Type 1, BuildingBlock: QEWDON_clean_linker_0, # of connection points: 3
#     Node 6, Type 1, BuildingBlock: QEWDON_clean_linker_0, # of connection points: 3
#     Node 7, Type 1, BuildingBlock: QEWDON_clean_linker_0, # of connection points: 3
#     Node 8, Type 1, BuildingBlock: QEWDON_clean_linker_0, # of connection points: 3
#     Edge 9, Type (0, 1), BuildingBlock: ZUJKAS_clean_linker_0, # of connection points: 2
#     Edge 10, Type (0, 1), BuildingBlock: ZUJKAS_clean_linker_0, # of connection points: 2
#     Edge 11, Type (0, 1), BuildingBlock: ZUJKAS_clean_linker_0, # of connection points: 2
#     Edge 12, Type (0, 1), BuildingBlock: ZUJKAS_clean_linker_0, # of connection points: 2
#     Edge 13, Type (0, 1), BuildingBlock: ZUJKAS_clean_linker_0, # of connection points: 2
#     Edge 14, Type (0, 1), BuildingBlock: ZUJKAS_clean_linker_0, # of connection points: 2
#     Edge 15, Type (0, 1), BuildingBlock: ZUJKAS_clean_linker_0, # of connection points: 2
#     Edge 16, Type (0, 1), BuildingBlock: ZUJKAS_clean_linker_0, # of connection points: 2
#     Edge 17, Type (0, 1), BuildingBlock: ZUJKAS_clean_linker_0, # of connection points: 2
#     Edge 18, Type (0, 1), BuildingBlock: ZUJKAS_clean_linker_0, # of connection points: 2
#     Edge 19, Type (0, 1), BuildingBlock: ZUJKAS_clean_linker_0, # of connection points: 2
#     Edge 20, Type (0, 1), BuildingBlock: ZUJKAS_clean_linker_0, # of connection points: 2
#     Edge 21, Type (0, 1), BuildingBlock: ZUJKAS_clean_linker_0, # of connection points: 2
#     Edge 22, Type (0, 1), BuildingBlock: ZUJKAS_clean_linker_0, # of connection points: 2
#     Edge 23, Type (0, 1), BuildingBlock: ZUJKAS_clean_linker_0, # of connection points: 2
#     Edge 24, Type (0, 1), BuildingBlock: ZUJKAS_clean_linker_0, # of connection points: 2
#     Edge 25, Type (0, 1), BuildingBlock: ZUJKAS_clean_linker_0, # of connection points: 2
#     Edge 26, Type (0, 1), BuildingBlock: ZUJKAS_clean_linker_0, # of connection points: 2
# Relax obj value: 0.100
# Max RMSD: 0.142
# Mean RMSD: 0.117
data_MOF--net-anh--node1-PAMTOO_clean_sbu_0--node2-QEWDON_clean_linker_0--edge1-ZUJKAS_clean_linker_0
_symmetry_space_group_name_H-M    P1
_symmetry_Int_Tables_number       1
_symmetry_cell_setting            triclinic
loop_
_symmetry_equiv_pos_as_xyz
'x, y, z'
_cell_length_a     40.583677
_cell_length_b     39.765616
_cell_length_c     62.616811
_cell_angle_alpha  93.758444
_cell_angle_beta   99.767867
_cell_angle_gamma 105.46789
loop_
_atom_site_label
_atom_site_type_symbol
_atom_site_fract_x
_atom_site_fract_y
_atom_site_fract_z
_atom_type_partial_charge
Dy0 Dy 0.1045 0.62245 0.16736 0.0
Dy1 Dy 0.07725 0.53744 0.15168 0.0
C2 C 0.09376 0.59212 0.11703 0.0
O3 O 1.04757 0.60696 0.16942 0.0
O4 O 1.02898 0.55609 0.1458 0.0
O5 O 0.10315 0.67576 0.1635 0.0
O6 O 0.13641 0.665 0.19147 0.0
O7 O 0.06734 0.54519 0.18532 0.0
O8 O 0.11185 0.5949 0.19694 0.0
O9 O 0.13611 0.55046 0.16046 0.0
O10 O 0.15139 0.60989 0.15816 0.0
O11 O 0.07858 0.48533 0.15853 0.0
O12 O 1.04561 0.49247 0.12909 0.0
C13 C 1.02222 0.58177 0.15708 0.0
O14 O 0.09193 0.61736 0.13101 0.0
O15 O 0.09376 0.56082 0.12252 0.0
C16 C 0.1571 0.71801 0.17747 0.0
C17 C 0.21721 0.77138 0.17457 0.0
C18 C 0.20506 0.74134 0.15913 0.0
C19 C 0.17531 0.71472 0.16064 0.0
C20 C 0.1686 0.74829 0.19253 0.0
C21 C 0.19841 0.77476 0.19112 0.0
C22 C 0.12778 0.68909 0.18053 0.0
C23 C 0.0889 0.5674 0.20116 0.0
C24 C 0.15963 0.58007 0.1591 0.0
C25 C 1.02358 0.44399 0.14722 0.0
C26 C 0.96408 0.39536 0.15594 0.0
C27 C 0.98025 0.42681 0.16986 0.0
C28 C 1.00958 0.45096 0.16547 0.0
C29 C 1.00795 0.41253 0.13344 0.0
C30 C 0.97844 0.3884 0.13774 0.0
C31 C 1.05344 0.47014 0.14203 0.0
H32 H 0.2192 0.73791 0.14633 0.0
H33 H 0.16696 0.69126 0.149 0.0
H34 H 0.15491 0.75113 0.20567 0.0
H35 H 0.20692 0.7978 0.20308 0.0
H36 H 0.97024 0.43284 0.18417 0.0
H37 H 1.02115 0.47523 0.17626 0.0
H38 H 1.01825 0.40689 0.11917 0.0
H39 H 0.96637 0.36473 0.12648 0.0
Dy40 Dy 0.58098 0.04311 0.49848 0.0
Dy41 Dy 0.66693 0.06801 0.51153 0.0
C42 C 0.61958 0.04515 0.54711 0.0
O43 O 0.59652 0.10014 0.51151 0.0
O44 O 0.65147 0.11637 0.50394 0.0
O45 O 0.53112 0.04194 0.50655 0.0
O46 O 0.53375 0.01746 0.47514 0.0
O47 O 0.65341 0.05933 0.47504 0.0
O48 O 0.59919 0.06804 0.47018 0.0
O49 O 0.65164 0.01034 0.51408 0.0
O50 O 0.59816 0.99527 0.49113 0.0
O51 O 0.71744 0.06531 0.5061 0.0
O52 O 0.71357 0.1002 0.533 0.0
C53 C 0.62389 0.12444 0.50843 0.0
O54 O 0.59394 0.02711 0.53152 0.0
O55 O 0.64703 0.06784 0.54279 0.0
C56 C 0.48632 0.99094 0.49104 0.0
C57 C 0.43352 0.93019 0.49455 0.0
C58 C 0.46768 0.93608 0.50641 0.0
C59 C 0.49389 0.9662 0.50463 0.0
C60 C 0.45241 0.98534 0.4793 0.0
C61 C 0.42623 0.95524 0.48099 0.0
C62 C 0.51366 0.02222 0.48857 0.0
C63 C 0.62704 0.06631 0.46268 0.0
C64 C 0.62472 0.98658 0.5021 0.0
C65 C 0.75998 0.12018 0.51517 0.0
C66 C 0.80809 0.18059 0.50624 0.0
C67 C 0.77357 0.1699 0.49443 0.0
C68 C 0.74968 0.13998 0.4989 0.0
C69 C 0.79452 0.13012 0.52658 0.0
C70 C 0.81842 0.16008 0.52216 0.0
C71 C 0.73421 0.09091 0.52144 0.0
H72 H 0.47412 0.91751 0.51713 0.0
H73 H 0.52008 0.97014 0.51378 0.0
H74 H 0.44625 0.0041 0.46861 0.0
H75 H 0.40044 0.95126 0.4713 0.0
H76 H 0.76466 0.18534 0.48227 0.0
H77 H 0.72295 0.13281 0.49007 0.0
H78 H 0.80281 0.11517 0.53925 0.0
H79 H 0.84491 0.16739 0.53135 0.0
Dy80 Dy 0.64459 0.53726 0.83819 0.0
Dy81 Dy 0.56023 0.51341 0.82056 0.0
C82 C 0.61184 0.52314 0.78768 0.0
O83 O 0.62892 0.58615 0.84435 0.0
O84 O 0.57896 0.57109 0.81809 0.0
O85 O 0.69626 0.56975 0.83744 0.0
O86 O 0.68927 0.52831 0.85845 0.0
O87 O 0.56746 0.53512 0.85545 0.0
O88 O 0.62099 0.5269 0.86763 0.0
O89 O 0.57354 0.46517 0.83095 0.0
O90 O 0.62934 0.48056 0.82506 0.0
O91 O 0.50701 0.49139 0.82433 0.0
O92 O 0.51805 0.50759 0.79333 0.0
C93 C 0.60422 0.59487 0.83142 0.0
O94 O 0.63553 0.5447 0.80293 0.0
O95 O 0.58443 0.50142 0.79259 0.0
C96 C 0.73618 0.53643 0.8404 0.0
C97 C 0.7837 0.50767 0.82312 0.0
C98 C 0.74788 0.49537 0.8142 0.0
C99 C 0.7243 0.50966 0.82279 0.0
C100 C 0.7718 0.54904 0.8492 0.0
C101 C 0.7954 0.53487 0.8406 0.0
C102 C 0.71131 0.55072 0.84971 0.0
C103 C 0.592 0.53269 0.87141 0.0
C104 C 0.60169 0.45668 0.82801 0.0
C105 C 0.46757 0.51692 0.80313 0.0
C106 C 0.42016 0.55761 0.79899 0.0
C107 C 0.43426 0.55022 0.81965 0.0
C108 C 0.45787 0.53017 0.82173 0.0
C109 C 0.45281 0.52362 0.78245 0.0
C110 C 0.4295 0.54399 0.7804 0.0
C111 C 0.49414 0.49762 0.80491 0.0
H112 H 0.73804 0.47439 0.80084 0.0
H113 H 0.69675 0.49968 0.8158 0.0
H114 H 0.78135 0.56981 0.86271 0.0
H115 H 0.82291 0.54548 0.84753 0.0
H116 H 0.42764 0.56065 0.83426 0.0
H117 H 0.46888 0.52558 0.8379 0.0
H118 H 0.45976 0.51355 0.76786 0.0
H119 H 0.41867 0.54898 0.76428 0.0
H120 H 0.60747 0.1369 0.22728 0.0
C121 C 0.58573 0.11373 0.22141 0.0
C122 C 0.57173 0.09214 0.23646 0.0
C123 C 0.57036 0.10652 0.19905 0.0
H124 H 0.53189 0.04622 0.24061 0.0
C125 C 0.5426 0.06302 0.22902 0.0
C126 C 0.52737 0.05508 0.20682 0.0
C127 C 0.54167 0.07659 0.19192 0.0
C128 C 0.58253 0.13109 0.1832 0.0
H129 H 0.52977 0.07048 0.17475 0.0
C130 C 0.61828 0.14743 0.18428 0.0
C131 C 0.62921 0.16999 0.16882 0.0
C132 C 0.55797 0.13839 0.16675 0.0
H133 H 0.53026 0.12715 0.16579 0.0
C134 C 0.56873 0.16072 0.15148 0.0
H135 H 0.63759 0.142 0.19674 0.0
C136 C 0.60408 0.17633 0.15242 0.0
H137 H 0.61176 0.19395 0.14052 0.0
H138 H 0.54957 0.16613 0.13894 0.0
H139 H 0.60079 0.572 0.55099 0.0
C140 C 0.60616 0.54808 0.54523 0.0
C141 C 0.61852 0.52775 0.56049 0.0
C142 C 0.59979 0.53712 0.52268 0.0
H143 H 0.63235 0.47973 0.56491 0.0
C144 C 0.62439 0.49621 0.5531 0.0
C145 C 0.61792 0.48446 0.53079 0.0
C146 C 0.60583 0.50516 0.51565 0.0
C147 C 0.58512 0.55798 0.50657 0.0
H148 H 0.60123 0.49634 0.49838 0.0
C149 C 0.59597 0.59514 0.50943 0.0
C150 C 0.58157 0.61452 0.49418 0.0
C151 C 0.55945 0.54061 0.4883 0.0
H152 H 0.54984 0.51222 0.48583 0.0
C153 C 0.54517 0.55962 0.47321 0.0
H154 H 0.61607 0.60897 0.52323 0.0
C155 C 0.55606 0.59622 0.47608 0.0
H156 H 0.54398 0.61023 0.46428 0.0
H157 H 0.52528 0.5459 0.45931 0.0
H158 H 0.12709 0.68428 0.89226 0.0
C159 C 0.11408 0.65955 0.88215 0.0
C160 C 0.10155 0.629 0.8918 0.0
C161 C 0.10987 0.65826 0.85938 0.0
H162 H 0.07703 0.57335 0.88597 0.0
C163 C 0.0853 0.59711 0.87841 0.0
C164 C 0.07886 0.59571 0.85554 0.0
C165 C 0.09185 0.62655 0.84621 0.0
C166 C 0.1255 0.68954 0.84913 0.0
H167 H 0.08709 0.62652 0.82866 0.0
C168 C 0.14831 0.687 0.83506 0.0
C169 C 0.16477 0.7163 0.82549 0.0
C170 C 0.11873 0.72182 0.85359 0.0
H171 H 0.10118 0.72434 0.86445 0.0
C172 C 0.13451 0.75103 0.84385 0.0
H173 H 0.15448 0.66233 0.83243 0.0
C174 C 0.15758 0.74842 0.82996 0.0
H175 H 0.16993 0.77147 0.82286 0.0
H176 H 0.12912 0.77586 0.84727 0.0
H177 H 1.0539 0.55053 0.4368 0.0
C178 C 0.07789 0.57118 0.44288 0.0
C179 C 0.10047 0.58336 0.42859 0.0
C180 C 0.08586 0.58601 0.46485 0.0
H181 H 0.14809 0.62091 0.4253 0.0
C182 C 0.13095 0.61086 0.43637 0.0
C183 C 0.13916 0.62625 0.45809 0.0
C184 C 0.11683 0.61333 0.47234 0.0
C185 C 1.06129 0.57398 0.47975 0.0
H186 H 0.12326 0.6251 0.48917 0.0
C187 C 1.04401 0.53805 0.47924 0.0
C188 C 1.02078 0.52676 0.49337 0.0
C189 C 1.05478 0.59852 0.49453 0.0
H190 H 0.06706 0.62639 0.49505 0.0
C191 C 1.03183 0.58744 0.50857 0.0
H192 H 1.04921 0.51879 0.46822 0.0
C193 C 1.01494 0.55184 0.50806 0.0
H194 H 0.99687 0.54398 0.51892 0.0
H195 H 1.02692 0.60657 0.51981 0.0
H196 H 0.58178 0.99394 0.78059 0.0
C197 C 0.5853 0.02131 0.78601 0.0
C198 C 0.58656 0.04523 0.77043 0.0
C199 C 0.58689 0.03243 0.80815 0.0
H200 H 0.59033 0.09883 0.76488 0.0
C201 C 0.58916 0.08036 0.77692 0.0
C202 C 0.59096 0.09216 0.79875 0.0
C203 C 0.59073 0.06834 0.81435 0.0
C204 C 0.58268 0.00657 0.82457 0.0
H205 H 0.59279 0.07787 0.83126 0.0
C206 C 0.59368 0.97579 0.8226 0.0
C207 C 0.58868 0.95133 0.83791 0.0
C208 C 0.56646 0.01208 0.84219 0.0
H209 H 0.55627 0.0344 0.84398 0.0
C210 C 0.5622 0.98833 0.85759 0.0
H211 H 0.60644 0.97083 0.80936 0.0
C212 C 0.57321 0.9582 0.85553 0.0
H213 H 0.56865 0.93969 0.86739 0.0
H214 H 0.54968 0.99298 0.871 0.0
H215 H 0.56389 0.58202 0.10832 0.0
C216 C 0.58922 0.5792 0.11514 0.0
C217 C 0.60931 0.56962 0.10088 0.0
C218 C 0.60201 0.58616 0.13785 0.0
H219 H 0.65873 0.56137 0.09812 0.0
C220 C 0.64282 0.56724 0.10932 0.0
C221 C 0.65694 0.57424 0.13173 0.0
C222 C 0.63624 0.58346 0.14596 0.0
C223 C 0.58077 0.59894 0.15263 0.0
H224 H 0.64688 0.58821 0.16328 0.0
C225 C 0.54346 0.58988 0.14773 0.0
C226 C 0.52481 0.60521 0.16098 0.0
C227 C 0.59828 0.6227 0.17134 0.0
H228 H 0.62643 0.63145 0.17552 0.0
C229 C 0.57995 0.63683 0.18469 0.0
H230 H 0.52891 0.57165 0.13356 0.0
C231 C 0.54375 0.6284 0.17954 0.0
H232 H 0.53042 0.64026 0.19016 0.0
H233 H 0.59402 0.65508 0.19896 0.0
H234 H 0.21609 0.63642 0.15837 0.0
H235 H 0.27594 0.6366 0.15681 0.0
H236 H 0.2476 0.52417 0.1567 0.0
H237 H 0.18744 0.52369 0.1581 0.0
H238 H 0.3236 0.61548 0.18578 0.0
H239 H 0.29794 0.53604 0.1054 0.0
H240 H 0.26594 0.55463 0.11443 0.0
H241 H 0.27322 0.51549 0.12463 0.0
C242 C 0.22238 0.6116 0.15794 0.0
C243 C 0.19651 0.58 0.15831 0.0
C244 C 0.25684 0.61177 0.15705 0.0
C245 C 0.26659 0.58037 0.15627 0.0
C246 C 0.2409 0.54877 0.15678 0.0
H247 H 0.47224 0.54228 0.15429 0.0
H248 H 0.40942 0.53448 0.15269 0.0
C249 C 0.20638 0.54857 0.15776 0.0
C250 C 0.3038 0.58112 0.1557 0.0
H251 H 0.35582 0.55143 0.12557 0.0
C252 C 0.33052 0.60148 0.17256 0.0
C253 C 0.31326 0.56267 0.13861 0.0
C254 C 0.28619 0.54119 0.11962 0.0
C255 C 0.36596 0.60382 0.17289 0.0
C256 C 0.37557 0.58608 0.15555 0.0
C257 C 0.34882 0.56519 0.13885 0.0
C258 C 0.41321 0.58998 0.15431 0.0
C259 C 0.39275 0.6249 0.19217 0.0
C260 C 0.43635 0.62348 0.15472 0.0
C261 C 0.47206 0.6279 0.15565 0.0
C262 C 0.48591 0.59894 0.15586 0.0
C263 C 0.46252 0.56513 0.15403 0.0
C264 C 0.42657 0.56071 0.15326 0.0
H265 H 0.381 0.62724 0.20679 0.0
H266 H 0.41439 0.61285 0.19639 0.0
H267 H 0.40377 0.65183 0.1881 0.0
H268 H 0.42691 0.64651 0.15484 0.0
H269 H 0.48918 0.65431 0.15684 0.0
H270 H 0.85345 0.23077 0.53724 0.0
H271 H 0.89187 0.287 0.53181 0.0
H272 H 0.85675 0.2625 0.46215 0.0
H273 H 0.81811 0.20605 0.46745 0.0
H274 H 0.94599 0.30233 0.50876 0.0
H275 H 0.839 0.35775 0.47423 0.0
H276 H 0.83135 0.31855 0.48782 0.0
H277 H 0.8384 0.31662 0.46025 0.0
C278 C 0.85417 0.23712 0.52074 0.0
C279 C 0.83265 0.21397 0.50277 0.0
C280 C 0.87603 0.26934 0.51767 0.0
C281 C 0.87678 0.27914 0.4966 0.0
C282 C 0.85601 0.25577 0.47857 0.0
H283 H 0.98857 0.47892 0.45747 0.0
H284 H 0.95579 0.4172 0.45673 0.0
C285 C 0.83399 0.22354 0.48163 0.0
C286 C 0.89915 0.31401 0.49371 0.0
H287 H 0.89651 0.39304 0.4763 0.0
C288 C 0.93521 0.32213 0.50158 0.0
C289 C 0.88499 0.33975 0.48429 0.0
C290 C 0.8463 0.33298 0.47631 0.0
C291 C 0.95748 0.35542 0.50047 0.0
C292 C 0.94322 0.38136 0.49151 0.0
C293 C 0.90732 0.37301 0.48312 0.0
C294 C 0.96475 0.41795 0.49184 0.0
C295 C 0.99608 0.36261 0.50891 0.0
C296 C 0.9805 0.43873 0.51181 0.0
C297 C 0.99916 0.47387 0.51229 0.0
C298 C 1.00236 0.48894 0.49277 0.0
C299 C 0.98688 0.46793 0.47276 0.0
C300 C 0.96803 0.43278 0.47231 0.0
H301 H 1.00388 0.33789 0.50963 0.0
H302 H 1.01142 0.37945 0.4985 0.0
H303 H 1.00288 0.37663 0.52567 0.0
H304 H 0.97778 0.42794 0.52707 0.0
H305 H 1.01101 0.48931 0.52795 0.0
H306 H 0.56416 0.62368 0.80263 0.0
H307 H 0.56627 0.68551 0.80199 0.0
H308 H 0.64758 0.71295 0.85956 0.0
H309 H 0.64636 0.65117 0.85998 0.0
H310 H 0.55308 0.72931 0.83124 0.0
H311 H 0.68949 0.78235 0.82076 0.0
H312 H 0.66777 0.73585 0.81733 0.0
H313 H 0.68613 0.75897 0.84421 0.0
C314 C 0.58265 0.64283 0.81512 0.0
C315 C 0.60522 0.63242 0.83131 0.0
C316 C 0.58384 0.67823 0.81471 0.0
C317 C 0.60753 0.70404 0.83047 0.0
C318 C 0.62976 0.6937 0.84685 0.0
H319 H 0.62338 0.92101 0.86883 0.0
H320 H 0.63006 0.86151 0.86566 0.0
C321 C 0.62882 0.65828 0.84717 0.0
C322 C 0.60776 0.74148 0.83024 0.0
H323 H 0.66013 0.8245 0.82975 0.0
C324 C 0.57644 0.75003 0.83072 0.0
C325 C 0.63824 0.76859 0.8295 0.0
C326 C 0.67223 0.761 0.8277 0.0
C327 C 0.57493 0.7849 0.83092 0.0
C328 C 0.60549 0.81195 0.8306 0.0
C329 C 0.63679 0.80358 0.83 0.0
C330 C 0.60529 0.84918 0.8316 0.0
C331 C 0.54083 0.79283 0.83188 0.0
C332 C 0.59003 0.86215 0.8133 0.0
C333 C 0.58633 0.89618 0.81502 0.0
C334 C 0.59755 0.9176 0.83514 0.0
C335 C 0.61422 0.90498 0.85317 0.0
C336 C 0.61817 0.8711 0.85138 0.0
H337 H 0.52037 0.76935 0.83436 0.0
H338 H 0.54458 0.81394 0.84533 0.0
H339 H 0.53146 0.80242 0.81639 0.0
H340 H 0.57998 0.84552 0.79789 0.0
H341 H 0.57314 0.90507 0.80092 0.0
H342 H 0.9623 0.53269 0.13501 0.0
H343 H 0.90164 0.53269 0.13364 0.0
H344 H 0.93617 0.63029 0.17604 0.0
H345 H 0.99694 0.63075 0.17728 0.0
H346 H 0.86334 0.53124 0.16586 0.0
H347 H 0.86974 0.65386 0.12732 0.0
H348 H 0.90375 0.63223 0.12853 0.0
H349 H 0.90127 0.65923 0.15207 0.0
C350 C 0.95714 0.55436 0.14396 0.0
C351 C 0.98492 0.58188 0.15613 0.0
C352 C 0.92224 0.55425 0.1432 0.0
C353 C 0.9139 0.58177 0.15442 0.0
C354 C 0.94156 0.6091 0.16677 0.0
H355 H 0.71093 0.62257 0.16029 0.0
H356 H 0.77295 0.62432 0.16797 0.0
C357 C 0.9765 0.60921 0.16758 0.0
C358 C 0.87639 0.58135 0.15349 0.0
H359 H 0.81734 0.62762 0.13906 0.0
C360 C 0.85338 0.55236 0.15996 0.0
C361 C 0.86298 0.60889 0.14595 0.0
C362 C 0.88557 0.64018 0.13788 0.0
C363 C 0.81785 0.55021 0.15923 0.0
C364 C 0.8043 0.57745 0.15135 0.0
C365 C 0.82741 0.60671 0.14519 0.0
C366 C 0.76605 0.57524 0.14824 0.0
C367 C 0.7953 0.51886 0.16727 0.0
C368 C 0.74103 0.54703 0.13479 0.0
C369 C 0.70563 0.54592 0.13051 0.0
C370 C 0.69391 0.57312 0.13939 0.0
C371 C 0.71876 0.60093 0.15338 0.0
C372 C 0.75439 0.6021 0.15761 0.0
H373 H 0.81112 0.50692 0.17911 0.0
H374 H 0.77526 0.52613 0.17517 0.0
H375 H 0.78184 0.49857 0.15323 0.0
H376 H 0.749 0.52625 0.12694 0.0
H377 H 0.6874 0.52403 0.11968 0.0
H378 H 0.43908 0.86306 0.49598 0.0
H379 H 0.39223 0.80916 0.49496 0.0
H380 H 0.31812 0.86945 0.49373 0.0
H381 H 0.36496 0.9236 0.49575 0.0
H382 H 0.30624 0.81582 0.52017 0.0
H383 H 0.32264 0.76713 0.43845 0.0
H384 H 0.36093 0.7765 0.45951 0.0
H385 H 0.3436 0.81162 0.45087 0.0
C386 C 0.41294 0.86496 0.49592 0.0
C387 C 0.40572 0.89766 0.49567 0.0
C388 C 0.38614 0.83407 0.49511 0.0
C389 C 0.35162 0.83527 0.49382 0.0
C390 C 0.34456 0.86793 0.49455 0.0
H391 H 0.15918 0.68402 0.43729 0.0
H392 H 0.21159 0.73349 0.44805 0.0
C393 C 0.37132 0.89882 0.49548 0.0
C394 C 0.32246 0.80256 0.4905 0.0
H395 H 0.27939 0.73046 0.45384 0.0
C396 C 0.30045 0.79697 0.50576 0.0
C397 C 0.31481 0.77827 0.47154 0.0
C398 C 0.3365 0.78369 0.45403 0.0
C399 C 0.27062 0.76799 0.5024 0.0
C400 C 0.26302 0.74377 0.48344 0.0
C401 C 0.28543 0.74901 0.46842 0.0
C402 C 0.23064 0.71424 0.47787 0.0
C403 C 0.2468 0.76429 0.51869 0.0
C404 C 0.22386 0.68704 0.49115 0.0
C405 C 0.19376 0.65865 0.48502 0.0
C406 C 0.1703 0.65689 0.46539 0.0
C407 C 0.17705 0.6844 0.45233 0.0
C408 C 0.20691 0.71272 0.45849 0.0
H409 H 0.25239 0.78889 0.52985 0.0
H410 H 0.21908 0.75702 0.51025 0.0
H411 H 0.25044 0.74311 0.52873 0.0
H412 H 0.24214 0.68741 0.50598 0.0
H413 H 0.1893 0.63766 0.49529 0.0
H414 H 0.65618 0.42996 0.82399 0.0
H415 H 0.65638 0.36846 0.82188 0.0
H416 H 0.54853 0.33741 0.82808 0.0
H417 H 0.54814 0.39898 0.83055 0.0
H418 H 0.58988 0.30269 0.85373 0.0
H419 H 0.60922 0.29719 0.76798 0.0
H420 H 0.64147 0.33134 0.78642 0.0
H421 H 0.59697 0.33278 0.78079 0.0
C422 C 0.63245 0.41011 0.82492 0.0
C423 C 0.60201 0.41942 0.82723 0.0
C424 C 0.63262 0.37493 0.82365 0.0
C425 C 0.60233 0.34833 0.82449 0.0
C426 C 0.57216 0.35755 0.82733 0.0
H427 H 0.55019 0.12908 0.77802 0.0
H428 H 0.55369 0.19098 0.78601 0.0
C429 C 0.57196 0.39275 0.82866 0.0
C430 C 0.60182 0.31083 0.82192 0.0
H431 H 0.61056 0.24701 0.78592 0.0
C432 C 0.59445 0.29046 0.83893 0.0
C433 C 0.60747 0.29492 0.80251 0.0
C434 C 0.61392 0.31503 0.78328 0.0
C435 C 0.59257 0.25453 0.83704 0.0
C436 C 0.59865 0.23876 0.81773 0.0
C437 C 0.60614 0.25921 0.80077 0.0
C438 C 0.59558 0.2007 0.81411 0.0
C439 C 0.58315 0.23354 0.85544 0.0
C440 C 0.61782 0.18546 0.82738 0.0
C441 C 0.61584 0.1499 0.82284 0.0
C442 C 0.59187 0.12921 0.8048 0.0
C443 C 0.56927 0.14448 0.79184 0.0
C444 C 0.57116 0.17981 0.79642 0.0
H445 H 0.57166 0.24751 0.86684 0.0
H446 H 0.56434 0.20755 0.84903 0.0
H447 H 0.60702 0.22899 0.86484 0.0
H448 H 0.63728 0.20125 0.84089 0.0
H449 H 0.63377 0.13891 0.83298 0.0
H450 H 0.57316 0.92964 0.47978 0.0
H451 H 0.56992 0.86751 0.4806 0.0
H452 H 0.66927 0.89542 0.52485 0.0
H453 H 0.6731 0.95773 0.52388 0.0
H454 H 0.66424 0.84363 0.49222 0.0
H455 H 0.54783 0.80996 0.53038 0.0
H456 H 0.54103 0.83033 0.5059 0.0
H457 H 0.57233 0.85476 0.52936 0.0
C458 C 0.59442 0.92267 0.48966 0.0
C459 C 0.62336 0.94881 0.50183 0.0
C460 C 0.59237 0.88705 0.49024 0.0
C461 C 0.61902 0.87674 0.50312 0.0
C462 C 0.64828 0.90273 0.51491 0.0
H463 H 0.59266 0.65907 0.53178 0.0
H464 H 0.60555 0.7233 0.53556 0.0
C465 C 0.6504 0.93838 0.51432 0.0
C466 C 0.61657 0.83886 0.50405 0.0
H467 H 0.56485 0.76182 0.51554 0.0
C468 C 0.64264 0.82579 0.49746 0.0
C469 C 0.58873 0.81565 0.51128 0.0
C470 C 0.56107 0.8284 0.51985 0.0
C471 C 0.64098 0.78998 0.49719 0.0
C472 C 0.61219 0.76647 0.50334 0.0
C473 C 0.58676 0.77975 0.51064 0.0
C474 C 0.60714 0.72784 0.50148 0.0
C475 C 0.67021 0.77772 0.49042 0.0
C476 C 0.60392 0.70902 0.48111 0.0
C477 C 0.59678 0.67244 0.47894 0.0
C478 C 0.59236 0.65371 0.49706 0.0
C479 C 0.59627 0.67267 0.51755 0.0
C480 C 0.6034 0.70936 0.51971 0.0
H481 H 0.69466 0.79958 0.49283 0.0
H482 H 0.67539 0.75626 0.49974 0.0
H483 H 0.66283 0.76764 0.47282 0.0
H484 H 0.60604 0.72254 0.46673 0.0
H485 H 0.59427 0.65875 0.46296 0.0
H486 H 0.83959 0.49169 0.84608 0.0
H487 H 0.88698 0.47739 0.83205 0.0
H488 H 0.83208 0.47275 0.76605 0.0
H489 H 0.78506 0.48926 0.78016 0.0
H490 H 0.89829 0.42618 0.80431 0.0
H491 H 0.91786 0.55238 0.7673 0.0
H492 H 0.88631 0.54175 0.78465 0.0
H493 H 0.87835 0.51738 0.75817 0.0
C494 C 0.83747 0.48757 0.82857 0.0
C495 C 0.80913 0.49274 0.81426 0.0
C496 C 0.86435 0.47878 0.82052 0.0
C497 C 0.86345 0.47462 0.79796 0.0
C498 C 0.83368 0.47654 0.78351 0.0
H499 H 0.07909 0.57068 0.81307 0.0
H500 H 1.03194 0.52594 0.78865 0.0
C501 C 0.80674 0.48575 0.79162 0.0
C502 C 0.89625 0.47416 0.79068 0.0
H503 H 0.96717 0.53707 0.78289 0.0
C504 C 0.91318 0.44966 0.79866 0.0
C505 C 0.9156 0.50402 0.78249 0.0
C506 C 0.89879 0.53047 0.77261 0.0
C507 C 0.94965 0.45789 0.80281 0.0
C508 C 0.96914 0.49121 0.79888 0.0
C509 C 0.95206 0.51192 0.78649 0.0
C510 C 1.00234 0.51013 0.81374 0.0
C511 C 0.96706 0.43304 0.81408 0.0
C512 C 1.00162 0.51571 0.83598 0.0
C513 C 1.0275 0.54209 0.84971 0.0
C514 C 1.05533 0.56338 0.8417 0.0
C515 C 1.05768 0.55558 0.81978 0.0
C516 C 1.03109 0.52953 0.80583 0.0
H517 H 0.95256 0.40537 0.80766 0.0
H518 H 0.99451 0.43812 0.81193 0.0
H519 H 0.96678 0.43631 0.83178 0.0
H520 H 0.9792 0.50195 0.84238 0.0
H521 H 1.02387 0.54736 0.86619 0.0
H522 H 0.23837 0.80165 0.13926 0.0
H523 H 0.29255 0.84753 0.13898 0.0
H524 H 0.32394 0.84822 0.20837 0.0
H525 H 0.27027 0.8024 0.20876 0.0
H526 H 0.31515 0.91615 0.16472 0.0
H527 H 0.40959 0.83853 0.18253 0.0
H528 H 0.36369 0.81842 0.1719 0.0
H529 H 0.37882 0.83397 0.20043 0.0
C530 C 0.25704 0.81138 0.15439 0.0
C531 C 0.25008 0.79856 0.17405 0.0
C532 C 0.28784 0.83758 0.15421 0.0
C533 C 0.31233 0.85087 0.17361 0.0
C534 C 0.30556 0.83792 0.19318 0.0
H535 H 0.46924 0.03898 0.22466 0.0
H536 H 0.41699 0.98931 0.21315 0.0
C537 C 0.27474 0.81202 0.19341 0.0
C538 C 0.34429 0.87958 0.17385 0.0
H539 H 0.43296 0.90118 0.18837 0.0
C540 C 0.34095 0.91281 0.16954 0.0
C541 C 0.37786 0.87499 0.17991 0.0
C542 C 0.38286 0.83948 0.18378 0.0
C543 C 0.37034 0.94207 0.17234 0.0
C544 C 0.40375 0.93788 0.17974 0.0
C545 C 0.40723 0.9043 0.18286 0.0
C546 C 0.43503 0.96841 0.18599 0.0
C547 C 0.36543 0.97739 0.16784 0.0
C548 C 0.46264 0.97276 0.17468 0.0
C549 C 0.4926 1.00115 0.18125 0.0
C550 C 0.49554 0.02523 0.19944 0.0
C551 C 0.46782 0.02065 0.21072 0.0
C552 C 0.43785 0.99252 0.20405 0.0
H553 H 0.33993 0.97473 0.15703 0.0
H554 H 0.36621 0.99271 0.18348 0.0
H555 H 0.3866 0.9925 0.16016 0.0
H556 H 0.46098 0.95419 0.16081 0.0
H557 H 0.51369 0.00395 0.17237 0.0
H558 H 0.67394 0.18119 0.50052 0.0
H559 H 0.67304 0.24253 0.50208 0.0
H560 H 0.57185 0.21373 0.51967 0.0
H561 H 0.5725 0.15226 0.51829 0.0
H562 H 0.62347 0.27286 0.47846 0.0
H563 H 0.63173 0.29249 0.56811 0.0
H564 H 0.64169 0.25577 0.55481 0.0
H565 H 0.59714 0.25556 0.55383 0.0
C566 C 0.65148 0.18782 0.50479 0.0
C567 C 0.62336 0.16172 0.50943 0.0
C568 C 0.65099 0.22292 0.50558 0.0
C569 C 0.62255 0.23274 0.51119 0.0
C570 C 0.59428 0.20679 0.5156 0.0
H571 H 0.57248 0.43209 0.50084 0.0
H572 H 0.5745 0.37129 0.4941 0.0
C573 C 0.59468 0.17163 0.51475 0.0
C574 C 0.62267 0.27021 0.51261 0.0
H575 H 0.62294 0.33901 0.54831 0.0
C576 C 0.62336 0.28738 0.49371 0.0
C577 C 0.62291 0.28916 0.53257 0.0
C578 C 0.62363 0.2725 0.55356 0.0
C579 C 0.62389 0.32296 0.49423 0.0
C580 C 0.62348 0.3417 0.51413 0.0
C581 C 0.6231 0.32456 0.53303 0.0
C582 C 0.62402 0.3793 0.51598 0.0
C583 C 0.62552 0.34039 0.4736 0.0
C584 C 0.65134 0.40409 0.53029 0.0
C585 C 0.65026 0.43875 0.53413 0.0
C586 C 0.62169 0.44936 0.52386 0.0
C587 C 0.59505 0.42487 0.50878 0.0
C588 C 0.59614 0.3901 0.50495 0.0
H589 H 0.63382 0.32502 0.46112 0.0
H590 H 0.59928 0.34264 0.46663 0.0
H591 H 0.64383 0.36727 0.47706 0.0
H592 H 0.67313 0.39637 0.53894 0.0
H593 H 0.67136 0.45706 0.54566 0.0
H594 H 0.36395 0.552 0.81818 0.0
H595 H 0.3252 0.58982 0.81601 0.0
H596 H 0.3836 0.65154 0.77349 0.0
H597 H 0.42217 0.61322 0.77531 0.0
H598 H 0.34412 0.65997 0.82924 0.0
H599 H 0.28339 0.63307 0.74098 0.0
H600 H 0.30756 0.60571 0.75436 0.0
H601 H 0.33021 0.64758 0.74737 0.0
C602 C 0.36842 0.57355 0.80831 0.0
C603 C 0.39599 0.57974 0.79693 0.0
C604 C 0.34627 0.59507 0.80702 0.0
C605 C 0.35136 0.62329 0.79444 0.0
C606 C 0.37878 0.62948 0.78293 0.0
H607 H 0.22892 0.7629 0.82738 0.0
H608 H 0.27839 0.74975 0.81465 0.0
C609 C 0.40081 0.60768 0.78404 0.0
C610 C 0.32868 0.6469 0.79445 0.0
H611 H 0.26468 0.67229 0.76259 0.0
C612 C 0.32701 0.66308 0.81465 0.0
C613 C 0.30656 0.65085 0.77533 0.0
C614 C 0.30668 0.63323 0.75327 0.0
C615 C 0.30234 0.68131 0.81654 0.0
C616 C 0.27951 0.68463 0.79749 0.0
C617 C 0.28248 0.67007 0.77709 0.0
C618 C 0.24897 0.69771 0.79903 0.0
C619 C 0.29936 0.69448 0.83913 0.0
C620 C 0.21548 0.67434 0.79247 0.0
C621 C 0.18707 0.68218 0.79915 0.0
C622 C 0.19178 0.71329 0.8128 0.0
C623 C 0.2245 0.73855 0.81707 0.0
C624 C 0.25289 0.73091 0.81001 0.0
H625 H 0.31454 0.68382 0.85212 0.0
H626 H 0.30956 0.72354 0.84174 0.0
H627 H 0.27174 0.68713 0.84107 0.0
H628 H 0.21171 0.64877 0.7837 0.0
H629 H 0.1619 0.66265 0.79506 0.0
H630 H 0.90922 0.41134 0.17008 0.0
H631 H 0.85545 0.37088 0.17581 0.0
H632 H 0.89055 0.28286 0.15542 0.0
H633 H 0.94526 0.32317 0.15064 0.0
H634 H 0.8069 0.3252 0.14538 0.0
H635 H 0.85657 0.25292 0.21036 0.0
H636 H 0.88305 0.29328 0.2033 0.0
H637 H 0.87669 0.25228 0.18698 0.0
C638 C 0.90594 0.38338 0.16729 0.0
C639 C 0.93172 0.37055 0.15999 0.0
C640 C 0.87503 0.36027 0.17043 0.0
C641 C 0.86915 0.32382 0.16635 0.0
C642 C 0.89481 0.31085 0.15914 0.0
H643 H 0.6646 0.17433 0.13537 0.0
H644 H 0.72402 0.20998 0.13569 0.0
C645 C 0.92588 0.33397 0.1561 0.0
C646 C 0.83514 0.29967 0.16817 0.0
H647 H 0.79707 0.2288 0.19248 0.0
C648 C 0.80477 0.30425 0.15577 0.0
C649 C 0.83235 0.2726 0.18194 0.0
C650 C 0.86387 0.26762 0.19657 0.0
C651 C 0.77175 0.2822 0.15646 0.0
C652 C 0.76904 0.2542 0.16949 0.0
C653 C 0.79929 0.24999 0.18227 0.0
C654 C 0.73483 0.22928 0.17001 0.0
C655 C 0.74002 0.28947 0.14342 0.0
C656 C 0.72192 0.22683 0.18946 0.0
C657 C 0.68803 0.20615 0.18935 0.0
C658 C 0.6666 0.18775 0.16977 0.0
C659 C 0.68035 0.18876 0.1506 0.0
C660 C 0.71422 0.20915 0.15076 0.0
H661 H 0.7458 0.31694 0.13931 0.0
H662 H 0.73123 0.27167 0.1279 0.0
H663 H 0.71827 0.28478 0.15249 0.0
H664 H 0.73752 0.24201 0.20452 0.0
H665 H 0.67803 0.20589 0.20434 0.0
H666 H 0.10616 0.6559 0.10117 0.0
H667 H 0.11175 0.66795 0.06397 0.0
H668 H 0.09351 0.55739 0.04467 0.0
H669 H 0.0886 0.5451 0.0819 0.0
H670 H 0.14822 0.59863 0.02917 0.0
H671 H 1.0318 0.64816 0.01179 0.0
H672 H 1.06356 0.67089 0.03542 0.0
H673 H 1.04051 0.62544 0.03518 0.0
C674 C 0.10315 0.63409 0.089 0.0
C675 C 0.09666 0.59948 0.09447 0.0
C676 C 0.10627 0.64105 0.06773 0.0
C677 C 0.10252 0.61351 0.05151 0.0
C678 C 0.09641 0.57901 0.05697 0.0
H679 H 1.0509 0.59677 0.91314 0.0
H680 H 1.05435 0.59616 0.95232 0.0
C681 C 0.09352 0.57204 0.07824 0.0
C682 C 0.10494 0.6204 0.0288 0.0
H683 H 0.06559 0.65052 0.98446 0.0
C684 C 0.13029 0.61014 0.01939 0.0
C685 C 0.08133 0.63521 0.0161 0.0
C686 C 1.05255 0.6453 0.02502 0.0
C687 C 0.13229 0.61367 -0.00254 0.0
C688 C 0.10872 0.62853 0.98478 0.0
C689 C 0.08382 0.63943 0.99431 0.0
C690 C 0.10724 0.63001 0.96109 0.0
C691 C 0.15862 0.60015 0.98782 0.0
C692 C 0.13575 0.64963 0.953 0.0
C693 C 0.13402 0.64967 0.93048 0.0
C694 C 0.10368 0.6302 0.91575 0.0
C695 C 0.07493 0.6114 0.92402 0.0
C696 C 0.07673 0.61127 0.94642 0.0
H697 H 0.1697 0.58295 -0.00155 0.0
H698 H 0.14665 0.58513 0.9715 0.0
H699 H 0.18038 0.62271 0.98581 0.0
H700 H 0.15932 0.66478 0.96409 0.0
H701 H 0.15657 0.66441 0.9246 0.0
H702 H 0.57565 0.07658 0.43182 0.0
H703 H 0.57821 0.08857 0.39439 0.0
H704 H 0.68502 0.08525 0.40437 0.0
H705 H 0.68262 0.07266 0.44198 0.0
H706 H 0.62243 0.14453 0.3791 0.0
H707 H 0.6387 0.01593 0.3493 0.0
H708 H 0.62537 0.02305 0.3749 0.0
H709 H 0.67009 0.04052 0.37264 0.0
C710 C 0.59974 0.07827 0.42612 0.0
C711 C 0.62887 0.07339 0.4399 0.0
C712 C 0.60116 0.08524 0.4047 0.0
C713 C 0.63168 0.08748 0.39652 0.0
C714 C 0.66102 0.08304 0.41024 0.0
H715 H 0.63933 0.10264 0.25725 0.0
H716 H 0.66107 0.10774 0.29686 0.0
C717 C 0.6596 0.07593 0.43174 0.0
C718 C 0.63215 0.0943 0.37356 0.0
H719 H 0.6331 0.05529 0.32351 0.0
C720 C 0.62523 0.12523 0.36698 0.0
C721 C 0.63607 0.0692 0.35781 0.0
C722 C 0.64274 0.03516 0.36387 0.0
C723 C 0.62068 0.13106 0.34496 0.0
C724 C 0.62273 0.10513 0.32909 0.0
C725 C 0.63161 0.07514 0.33576 0.0
C726 C 0.61133 0.10635 0.30547 0.0
C727 C 0.61278 0.1645 0.33876 0.0
C728 C 0.57634 0.10415 0.2973 0.0
C729 C 0.56395 0.10103 0.27488 0.0
C730 C 0.58632 0.10006 0.26016 0.0
C731 C 0.62168 0.10361 0.26831 0.0
C732 C 0.63405 0.10638 0.29085 0.0
H733 H 0.62264 0.1858 0.35261 0.0
H734 H 0.62446 0.17359 0.32461 0.0
H735 H 0.58413 0.1596 0.33416 0.0
H736 H 0.55824 0.10347 0.30826 0.0
H737 H 0.53659 0.09842 0.26899 0.0
H738 H 0.56697 0.48416 0.75143 0.0
H739 H 0.57145 0.48918 0.71324 0.0
H740 H 0.66862 0.57059 0.73336 0.0
H741 H 0.66434 0.56602 0.77159 0.0
H742 H 0.62032 0.58689 0.70006 0.0
H743 H 0.63922 0.45587 0.68051 0.0
H744 H 0.60195 0.45494 0.69263 0.0
H745 H 0.64501 0.47568 0.70817 0.0
C746 C 0.58945 0.50294 0.74777 0.0
C747 C 0.61535 0.52461 0.76458 0.0
C748 C 0.59199 0.50571 0.72593 0.0
C749 C 0.62051 0.53005 0.72052 0.0
C750 C 0.64644 0.55162 0.73723 0.0
H751 H 0.6736 0.5281 0.59226 0.0
H752 H 0.67634 0.53334 0.63171 0.0
C753 C 0.64397 0.54886 0.75907 0.0
C754 C 0.62298 0.53344 0.69741 0.0
H755 H 0.62876 0.48803 0.65072 0.0
C756 C 0.62234 0.56537 0.68925 0.0
C757 C 0.626 0.50544 0.68348 0.0
C758 C 0.62842 0.47113 0.69162 0.0
C759 C 0.62392 0.5698 0.66734 0.0
C760 C 0.62583 0.54141 0.65325 0.0
C761 C 0.62713 0.50972 0.66154 0.0
C762 C 0.62622 0.54357 0.62976 0.0
C763 C 0.6239 0.60487 0.65951 0.0
C764 C 0.59751 0.54847 0.61563 0.0
C765 C 0.59593 0.54558 0.59306 0.0
C766 C 0.6229 0.53738 0.5843 0.0
C767 C 0.65234 0.53419 0.59858 0.0
C768 C 0.65394 0.53718 0.62108 0.0
H769 H 0.63162 0.62623 0.67329 0.0
H770 H 0.64188 0.61173 0.64791 0.0
H771 H 0.59724 0.60351 0.6509 0.0
H772 H 0.57554 0.55279 0.62194 0.0
H773 H 0.57274 0.54769 0.58243 0.0
H774 H 0.56484 0.0041 0.56231 0.0
H775 H 0.55939 0.99848 0.60026 0.0
H776 H 0.66295 0.06856 0.62192 0.0
H777 H 0.66851 0.0749 0.584 0.0
H778 H 0.59881 0.97596 0.63468 0.0
H779 H 0.60262 0.1158 0.65233 0.0
H780 H 0.59684 0.09499 0.62495 0.0
H781 H 0.63949 0.10948 0.64205 0.0
C782 C 0.58655 0.0183 0.57511 0.0
C783 C 0.61699 0.0403 0.57009 0.0
C784 C 0.5834 0.01492 0.5968 0.0
C785 C 0.61055 0.03349 0.61389 0.0
C786 C 0.64142 0.05452 0.60896 0.0
H787 H 0.62884 0.01242 0.75309 0.0
H788 H 0.6334 0.00529 0.71453 0.0
C789 C 0.64458 0.05804 0.58727 0.0
C790 C 0.60599 0.03181 0.63682 0.0
H791 H 0.60275 0.08237 0.68214 0.0
C792 C 0.59964 0.99917 0.6451 0.0
C793 C 0.60661 0.06208 0.65025 0.0
C794 C 0.61143 0.09753 0.64194 0.0
C795 C 0.59417 0.99608 0.66656 0.0
C796 C 0.59556 0.02651 0.6801 0.0
C797 C 0.60181 0.05907 0.67176 0.0
C798 C 0.58994 0.02558 0.70288 0.0
C799 C 0.58621 0.96023 0.67437 0.0
C800 C 0.5638 0.03888 0.70909 0.0
C801 C 0.56145 0.04327 0.73101 0.0
C802 C 0.58514 0.03433 0.74715 0.0
C803 C 0.61006 0.01913 0.74089 0.0
C804 C 0.61262 0.01502 0.71889 0.0
H805 H 0.57719 0.93891 0.66053 0.0
H806 H 0.61021 0.9571 0.68448 0.0
H807 H 0.56595 0.95708 0.68456 0.0
H808 H 0.546 0.04714 0.69703 0.0
H809 H 0.54193 0.05493 0.73546 0.0
H810 H 0.6393 0.53395 0.90828 0.0
H811 H 0.63261 0.54127 0.94609 0.0
H812 H 0.52842 0.54902 0.92485 0.0
H813 H 0.53474 0.54151 0.88666 0.0
H814 H 0.61693 0.59937 0.96767 0.0
H815 H 0.51807 0.47151 0.96727 0.0
H816 H 0.54436 0.47941 0.94657 0.0
H817 H 0.50889 0.49841 0.94628 0.0
C818 C 0.61484 0.53708 0.91153 0.0
C819 C 0.5875 0.53703 0.89436 0.0
C820 C 0.61112 0.54133 0.9332 0.0
C821 C 0.57996 0.54541 0.93826 0.0
C822 C 0.55255 0.54548 0.92126 0.0
H823 H 0.57831 0.61043 0.07531 0.0
H824 H 0.56495 0.60512 0.03531 0.0
C825 C 0.55628 0.54133 0.89947 0.0
C826 C 0.57687 0.55005 0.96146 0.0
H827 H 0.53857 0.50807 0.00065 0.0
C828 C 0.59948 0.57969 0.97487 0.0
C829 C 0.55424 0.52413 0.97075 0.0
C830 C 0.53009 0.49139 0.9571 0.0
C831 C 0.60081 0.58366 -0.00253 0.0
C832 C 0.57859 0.55747 0.00685 0.0
C833 C 0.55532 0.52824 0.99336 0.0
C834 C 0.5818 0.55834 0.03085 0.0
C835 C 0.6272 0.61501 0.01126 0.0
C836 C 0.59422 0.53295 0.04154 0.0
C837 C 0.60162 0.53577 0.0643 0.0
C838 C 0.59662 0.56399 0.07684 0.0
C839 C 0.58231 0.58833 0.0661 0.0
C840 C 0.57495 0.58551 0.04327 0.0
H841 H 0.64647 0.6294 0.002 0.0
H842 H 0.61351 0.63346 0.01708 0.0
H843 H 0.64145 0.60673 0.02579 0.0
H844 H 0.59954 0.51169 0.03226 0.0
H845 H 0.6122 0.51637 0.07212 0.0
H846 H 1.04354 0.51437 0.21631 0.0
H847 H 1.03726 0.50845 0.25423 0.0
H848 H 0.12181 0.60292 0.27568 0.0
H849 H 0.12816 0.60929 0.23797 0.0
H850 H 0.08656 0.50347 0.2912 0.0
H851 H 1.04096 0.6219 0.30182 0.0
H852 H 1.0415 0.60138 0.27533 0.0
H853 H 0.08086 0.63031 0.2917 0.0
C854 C 1.06087 0.53385 0.2291 0.0
C855 C 0.08621 0.56246 0.22409 0.0
C856 C 1.05722 0.53039 0.25074 0.0
C857 C 0.07866 0.55558 0.26766 0.0
C858 C 0.10455 0.58359 0.26278 0.0
H859 H 0.14355 0.565 0.40388 0.0
H860 H 0.13242 0.55169 0.36427 0.0
C861 C 0.10826 0.58706 0.24121 0.0
C862 C 0.07423 0.55287 0.29052 0.0
H863 H 1.06066 0.59899 0.33445 0.0
C864 C 0.08043 0.52407 0.30062 0.0
C865 C 0.0655 0.5794 0.30263 0.0
C866 C 1.05646 0.60982 0.29228 0.0
C867 C 0.08008 0.52216 0.32291 0.0
C868 C 0.07384 0.55 0.33537 0.0
C869 C 0.06571 0.57776 0.32494 0.0
C870 C 0.0786 0.55268 0.35948 0.0
C871 C 0.08683 0.49058 0.33294 0.0
C872 C 1.05203 0.55762 0.37002 0.0
C873 C 1.05848 0.56565 0.3927 0.0
C874 C 0.09173 0.56923 0.40517 0.0
C875 C 0.11775 0.56267 0.39466 0.0
C876 C 0.1113 0.55464 0.37204 0.0
H877 H 0.07921 0.46715 0.32057 0.0
H878 H 0.11512 0.49621 0.33965 0.0
H879 H 0.07243 0.48426 0.34641 0.0
H880 H 1.02669 0.5565 0.3606 0.0
H881 H 1.03804 0.57091 0.40032 0.0
loop_
_geom_bond_atom_site_label_1
_geom_bond_atom_site_label_2
_geom_bond_distance
_geom_bond_site_symmetry_2
_ccdc_geom_bond_type
Dy0 O3 2.307 1_455 S
Dy0 O5 2.395 . S
Dy0 O6 2.379 . S
Dy0 O8 2.339 . S
Dy0 O10 2.298 . S
Dy0 O14 2.275 . S
Dy0 C22 2.738 . S
Dy1 O4 2.298 1_455 S
Dy1 O7 2.275 . S
Dy1 O9 2.307 . S
Dy1 O11 2.395 1_455 S
Dy1 O12 2.379 1_455 S
Dy1 O15 2.339 . S
Dy1 C31 2.738 1_455 S
C2 O14 1.254 . S
C2 O15 1.257 . S
O3 Dy0 2.307 1_655 S
O3 C13 1.266 . S
O4 Dy1 2.298 1_655 S
O4 C13 1.236 . S
O5 Dy0 2.395 . S
O5 C22 1.255 . S
O6 Dy0 2.379 . S
O6 C22 1.249 . S
O7 Dy1 2.275 . S
O7 C23 1.254 . S
O8 Dy0 2.339 . S
O8 C23 1.257 . S
O9 Dy1 2.307 . S
O9 C24 1.266 . S
O10 Dy0 2.298 . S
O10 C24 1.236 . S
O11 Dy1 2.395 1_655 S
O11 C31 1.255 . S
O12 Dy1 2.379 1_655 S
O12 C31 1.249 . S
C13 O3 1.266 . S
C13 O4 1.236 . S
O14 Dy0 2.275 . S
O14 C2 1.254 . S
O15 Dy1 2.339 . S
O15 C2 1.257 . S
C16 C19 1.344 . S
C16 C20 1.328 . S
C16 C22 1.516 . S
C17 C18 1.304 . S
C17 C21 1.323 . S
C18 C17 1.304 . S
C18 C19 1.371 . S
C18 H32 0.930 . S
C19 C16 1.344 . S
C19 C18 1.371 . S
C19 H33 0.931 . S
C20 C16 1.328 . S
C20 C21 1.433 . S
C20 H34 0.931 . S
C21 C17 1.323 . S
C21 C20 1.433 . S
C21 H35 0.933 . S
C22 Dy0 2.738 . S
C22 O5 1.255 . S
C22 O6 1.249 . S
C22 C16 1.516 . S
C23 O7 1.254 . S
C23 O8 1.257 . S
C24 O9 1.266 . S
C24 O10 1.236 . S
C25 C28 1.344 . S
C25 C29 1.328 . S
C25 C31 1.516 . S
C26 C27 1.304 . S
C26 C30 1.323 . S
C27 C26 1.304 . S
C27 C28 1.371 . S
C27 H36 0.930 . S
C28 C25 1.344 . S
C28 C27 1.371 . S
C28 H37 0.931 . S
C29 C25 1.328 . S
C29 C30 1.433 . S
C29 H38 0.931 . S
C30 C26 1.323 . S
C30 C29 1.433 . S
C30 H39 0.933 . S
C31 Dy1 2.738 1_655 S
C31 O11 1.255 . S
C31 O12 1.249 . S
C31 C25 1.516 . S
H32 C18 0.930 . S
H33 C19 0.931 . S
H34 C20 0.931 . S
H35 C21 0.933 . S
H36 C27 0.930 . S
H37 C28 0.931 . S
H38 C29 0.931 . S
H39 C30 0.933 . S
Dy40 O43 2.307 . S
Dy40 O45 2.395 1_545 S
Dy40 O46 2.379 1_545 S
Dy40 O48 2.339 . S
Dy40 O50 2.294 . S
Dy40 O54 2.275 . S
Dy40 C62 2.738 1_545 S
Dy41 O44 2.298 . S
Dy41 O47 2.275 . S
Dy41 O49 2.307 . S
Dy41 O51 2.395 . S
Dy41 O52 2.379 . S
Dy41 O55 2.339 . S
Dy41 C71 2.738 . S
C42 O54 1.254 . S
C42 O55 1.257 . S
O43 Dy40 2.307 . S
O43 C53 1.266 . S
O44 Dy41 2.298 . S
O44 C53 1.236 . S
O45 Dy40 2.395 1_565 S
O45 C62 1.255 . S
O46 Dy40 2.379 1_565 S
O46 C62 1.249 . S
O47 Dy41 2.275 . S
O47 C63 1.254 . S
O48 Dy40 2.339 . S
O48 C63 1.257 . S
O49 Dy41 2.307 . S
O49 C64 1.266 1_545 S
O50 Dy40 2.294 . S
O50 C64 1.238 1_545 S
O51 Dy41 2.395 . S
O51 C71 1.255 . S
O52 Dy41 2.379 . S
O52 C71 1.249 . S
C53 O43 1.266 . S
C53 O44 1.236 . S
O54 Dy40 2.275 . S
O54 C42 1.254 . S
O55 Dy41 2.339 . S
O55 C42 1.257 . S
C56 C59 1.344 . S
C56 C60 1.328 . S
C56 C62 1.516 . S
C57 C58 1.304 . S
C57 C61 1.323 . S
C58 C57 1.304 . S
C58 C59 1.371 . S
C58 H72 0.930 . S
C59 C56 1.344 . S
C59 C58 1.371 . S
C59 H73 0.931 . S
C60 C56 1.328 . S
C60 C61 1.433 . S
C60 H74 0.931 . S
C61 C57 1.323 . S
C61 C60 1.433 . S
C61 H75 0.933 . S
C62 Dy40 2.738 1_565 S
C62 O45 1.255 . S
C62 O46 1.249 . S
C62 C56 1.516 . S
C63 O47 1.254 . S
C63 O48 1.257 . S
C64 O49 1.266 1_565 S
C64 O50 1.238 1_565 S
C65 C68 1.344 . S
C65 C69 1.328 . S
C65 C71 1.516 . S
C66 C67 1.304 . S
C66 C70 1.323 . S
C67 C66 1.304 . S
C67 C68 1.371 . S
C67 H76 0.930 . S
C68 C65 1.344 . S
C68 C67 1.371 . S
C68 H77 0.931 . S
C69 C65 1.328 . S
C69 C70 1.433 . S
C69 H78 0.931 . S
C70 C66 1.323 . S
C70 C69 1.433 . S
C70 H79 0.933 . S
C71 Dy41 2.738 . S
C71 O51 1.255 . S
C71 O52 1.249 . S
C71 C65 1.516 . S
H72 C58 0.930 . S
H73 C59 0.931 . S
H74 C60 0.931 . S
H75 C61 0.933 . S
H76 C67 0.930 . S
H77 C68 0.931 . S
H78 C69 0.931 . S
H79 C70 0.933 . S
Dy80 O83 2.307 . S
Dy80 O85 2.395 . S
Dy80 O86 2.379 . S
Dy80 O88 2.339 . S
Dy80 O90 2.298 . S
Dy80 O94 2.275 . S
Dy80 C102 2.738 . S
Dy81 O84 2.298 . S
Dy81 O87 2.275 . S
Dy81 O89 2.307 . S
Dy81 O91 2.395 . S
Dy81 O92 2.379 . S
Dy81 O95 2.339 . S
Dy81 C111 2.738 . S
C82 O94 1.254 . S
C82 O95 1.257 . S
O83 Dy80 2.307 . S
O83 C93 1.266 . S
O84 Dy81 2.298 . S
O84 C93 1.236 . S
O85 Dy80 2.395 . S
O85 C102 1.255 . S
O86 Dy80 2.379 . S
O86 C102 1.249 . S
O87 Dy81 2.275 . S
O87 C103 1.254 . S
O88 Dy80 2.339 . S
O88 C103 1.257 . S
O89 Dy81 2.307 . S
O89 C104 1.266 . S
O90 Dy80 2.298 . S
O90 C104 1.236 . S
O91 Dy81 2.395 . S
O91 C111 1.255 . S
O92 Dy81 2.379 . S
O92 C111 1.249 . S
C93 O83 1.266 . S
C93 O84 1.236 . S
O94 Dy80 2.275 . S
O94 C82 1.254 . S
O95 Dy81 2.339 . S
O95 C82 1.257 . S
C96 C99 1.344 . S
C96 C100 1.328 . S
C96 C102 1.516 . S
C97 C98 1.304 . S
C97 C101 1.323 . S
C98 C97 1.304 . S
C98 C99 1.371 . S
C98 H112 0.930 . S
C99 C96 1.344 . S
C99 C98 1.371 . S
C99 H113 0.931 . S
C100 C96 1.328 . S
C100 C101 1.433 . S
C100 H114 0.931 . S
C101 C97 1.323 . S
C101 C100 1.433 . S
C101 H115 0.933 . S
C102 Dy80 2.738 . S
C102 O85 1.255 . S
C102 O86 1.249 . S
C102 C96 1.516 . S
C103 O87 1.254 . S
C103 O88 1.257 . S
C104 O89 1.266 . S
C104 O90 1.236 . S
C105 C108 1.344 . S
C105 C109 1.328 . S
C105 C111 1.516 . S
C106 C107 1.304 . S
C106 C110 1.323 . S
C107 C106 1.304 . S
C107 C108 1.371 . S
C107 H116 0.930 . S
C108 C105 1.344 . S
C108 C107 1.371 . S
C108 H117 0.931 . S
C109 C105 1.328 . S
C109 C110 1.433 . S
C109 H118 0.931 . S
C110 C106 1.323 . S
C110 C109 1.433 . S
C110 H119 0.933 . S
C111 Dy81 2.738 . S
C111 O91 1.255 . S
C111 O92 1.249 . S
C111 C105 1.516 . S
H112 C98 0.930 . S
H113 C99 0.931 . S
H114 C100 0.931 . S
H115 C101 0.933 . S
H116 C107 0.930 . S
H117 C108 0.931 . S
H118 C109 0.931 . S
H119 C110 0.933 . S
H120 C121 0.949 . S
C121 H120 0.949 . S
C121 C122 1.395 . S
C121 C123 1.391 . S
C122 C121 1.395 . S
C122 C125 1.390 . S
C123 C121 1.391 . S
C123 C127 1.387 . S
C123 C128 1.491 . S
H124 C125 0.950 . S
C125 C122 1.390 . S
C125 H124 0.950 . S
C125 C126 1.378 . S
C126 C125 1.378 . S
C126 C127 1.409 . S
C127 C123 1.387 . S
C127 C126 1.409 . S
C127 H129 0.951 . S
C128 C123 1.491 . S
C128 C130 1.382 . S
C128 C132 1.404 . S
H129 C127 0.951 . S
C130 C128 1.382 . S
C130 C131 1.390 . S
C130 H135 0.949 . S
C131 C130 1.390 . S
C131 C136 1.399 . S
C132 C128 1.404 . S
C132 H133 0.950 . S
C132 C134 1.375 . S
H133 C132 0.950 . S
C134 C132 1.375 . S
C134 C136 1.382 . S
C134 H138 0.950 . S
H135 C130 0.949 . S
C136 C131 1.399 . S
C136 C134 1.382 . S
C136 H137 0.952 . S
H137 C136 0.952 . S
H138 C134 0.950 . S
H139 C140 0.949 . S
C140 H139 0.949 . S
C140 C141 1.395 . S
C140 C142 1.391 . S
C141 C140 1.395 . S
C141 C144 1.390 . S
C142 C140 1.391 . S
C142 C146 1.387 . S
C142 C147 1.491 . S
H143 C144 0.950 . S
C144 C141 1.390 . S
C144 H143 0.950 . S
C144 C145 1.378 . S
C145 C144 1.378 . S
C145 C146 1.409 . S
C146 C142 1.387 . S
C146 C145 1.409 . S
C146 H148 0.951 . S
C147 C142 1.491 . S
C147 C149 1.382 . S
C147 C151 1.404 . S
H148 C146 0.951 . S
C149 C147 1.382 . S
C149 C150 1.390 . S
C149 H154 0.949 . S
C150 C149 1.390 . S
C150 C155 1.399 . S
C151 C147 1.404 . S
C151 H152 0.950 . S
C151 C153 1.375 . S
H152 C151 0.950 . S
C153 C151 1.375 . S
C153 C155 1.382 . S
C153 H157 0.950 . S
H154 C149 0.949 . S
C155 C150 1.399 . S
C155 C153 1.382 . S
C155 H156 0.952 . S
H156 C155 0.952 . S
H157 C153 0.950 . S
H158 C159 0.949 . S
C159 H158 0.949 . S
C159 C160 1.395 . S
C159 C161 1.391 . S
C160 C159 1.395 . S
C160 C163 1.390 . S
C161 C159 1.391 . S
C161 C165 1.387 . S
C161 C166 1.491 . S
H162 C163 0.950 1_655 S
C163 C160 1.390 . S
C163 H162 0.950 1_455 S
C163 C164 1.378 . S
C164 C163 1.378 . S
C164 C165 1.409 . S
C165 C161 1.387 . S
C165 C164 1.409 . S
C165 H167 0.951 . S
C166 C161 1.491 . S
C166 C168 1.382 . S
C166 C170 1.404 . S
H167 C165 0.951 . S
C168 C166 1.382 . S
C168 C169 1.390 . S
C168 H173 0.949 . S
C169 C168 1.390 . S
C169 C174 1.399 . S
C170 C166 1.404 . S
C170 H171 0.950 . S
C170 C172 1.375 . S
H171 C170 0.950 . S
C172 C170 1.375 . S
C172 C174 1.382 . S
C172 H176 0.950 . S
H173 C168 0.949 . S
C174 C169 1.399 . S
C174 C172 1.382 . S
C174 H175 0.952 . S
H175 C174 0.952 . S
H176 C172 0.950 . S
H177 C178 0.949 1_655 S
C178 H177 0.949 1_455 S
C178 C179 1.395 . S
C178 C180 1.391 . S
C179 C178 1.395 . S
C179 C182 1.390 . S
C180 C178 1.391 . S
C180 C184 1.387 . S
C180 C185 1.491 1_455 S
H181 C182 0.950 . S
C182 C179 1.390 . S
C182 H181 0.950 . S
C182 C183 1.378 . S
C183 C182 1.378 . S
C183 C184 1.409 . S
C184 C180 1.387 . S
C184 C183 1.409 . S
C184 H186 0.951 . S
C185 C180 1.491 1_655 S
C185 C187 1.382 . S
C185 C189 1.404 . S
H186 C184 0.951 . S
C187 C185 1.382 . S
C187 C188 1.390 . S
C187 H192 0.949 . S
C188 C187 1.390 . S
C188 C193 1.399 . S
C189 C185 1.404 . S
C189 H190 0.950 1_655 S
C189 C191 1.375 . S
H190 C189 0.950 1_455 S
C191 C189 1.375 . S
C191 C193 1.382 . S
C191 H195 0.950 . S
H192 C187 0.949 . S
C193 C188 1.399 . S
C193 C191 1.382 . S
C193 H194 0.952 . S
H194 C193 0.952 . S
H195 C191 0.950 . S
H196 C197 0.949 1_565 S
C197 H196 0.949 1_545 S
C197 C198 1.395 . S
C197 C199 1.391 . S
C198 C197 1.395 . S
C198 C201 1.390 . S
C199 C197 1.391 . S
C199 C203 1.387 . S
C199 C204 1.491 1_545 S
H200 C201 0.950 . S
C201 C198 1.390 . S
C201 H200 0.950 . S
C201 C202 1.378 . S
C202 C201 1.378 . S
C202 C203 1.409 . S
C203 C199 1.387 . S
C203 C202 1.409 . S
C203 H205 0.951 . S
C204 C199 1.491 1_565 S
C204 C206 1.382 . S
C204 C208 1.404 . S
H205 C203 0.951 . S
C206 C204 1.382 . S
C206 C207 1.390 . S
C206 H211 0.949 . S
C207 C206 1.390 . S
C207 C212 1.399 . S
C208 C204 1.404 . S
C208 H209 0.950 . S
C208 C210 1.375 . S
H209 C208 0.950 . S
C210 C208 1.375 . S
C210 C212 1.382 . S
C210 H214 0.950 . S
H211 C206 0.949 . S
C212 C207 1.399 . S
C212 C210 1.382 . S
C212 H213 0.952 . S
H213 C212 0.952 . S
H214 C210 0.950 . S
H215 C216 0.949 . S
C216 H215 0.949 . S
C216 C217 1.395 . S
C216 C218 1.391 . S
C217 C216 1.395 . S
C217 C220 1.390 . S
C218 C216 1.391 . S
C218 C222 1.387 . S
C218 C223 1.491 . S
H219 C220 0.950 . S
C220 C217 1.390 . S
C220 H219 0.950 . S
C220 C221 1.378 . S
C221 C220 1.378 . S
C221 C222 1.409 . S
C222 C218 1.387 . S
C222 C221 1.409 . S
C222 H224 0.951 . S
C223 C218 1.491 . S
C223 C225 1.382 . S
C223 C227 1.404 . S
H224 C222 0.951 . S
C225 C223 1.382 . S
C225 C226 1.390 . S
C225 H230 0.949 . S
C226 C225 1.390 . S
C226 C231 1.399 . S
C227 C223 1.404 . S
C227 H228 0.950 . S
C227 C229 1.375 . S
H228 C227 0.950 . S
C229 C227 1.375 . S
C229 C231 1.382 . S
C229 H233 0.950 . S
H230 C225 0.949 . S
C231 C226 1.399 . S
C231 C229 1.382 . S
C231 H232 0.952 . S
H232 C231 0.952 . S
H233 C229 0.950 . S
H234 C242 0.929 . S
H235 C244 0.930 . S
H236 C246 0.930 . S
H237 C249 0.929 . S
H238 C252 0.930 . S
H239 C254 0.960 . S
H240 C254 0.960 . S
H241 C254 0.960 . S
C242 H234 0.929 . S
C242 C243 1.377 . S
C242 C244 1.384 . S
C243 C242 1.377 . S
C243 C249 1.390 . S
C244 H235 0.930 . S
C244 C242 1.384 . S
C244 C245 1.372 . S
C245 C244 1.372 . S
C245 C246 1.400 . S
C245 C250 1.490 . S
C246 H236 0.930 . S
C246 C245 1.400 . S
C246 C249 1.386 . S
H247 C263 0.930 . S
H248 C264 0.931 . S
C249 H237 0.929 . S
C249 C243 1.390 . S
C249 C246 1.386 . S
C250 C245 1.490 . S
C250 C252 1.395 . S
C250 C253 1.403 . S
H251 C257 0.930 . S
C252 H238 0.930 . S
C252 C250 1.395 . S
C252 C255 1.403 . S
C253 C250 1.403 . S
C253 C254 1.524 . S
C253 C257 1.400 . S
C254 H239 0.960 . S
C254 H240 0.960 . S
C254 H241 0.960 . S
C254 C253 1.524 . S
C255 C252 1.403 . S
C255 C256 1.392 . S
C255 C259 1.495 . S
C256 C255 1.392 . S
C256 C257 1.385 . S
C256 C258 1.478 . S
C257 H251 0.930 . S
C257 C253 1.400 . S
C257 C256 1.385 . S
C258 C256 1.478 . S
C258 C260 1.381 . S
C258 C264 1.383 . S
C259 C255 1.495 . S
C259 H265 0.959 . S
C259 H266 0.961 . S
C259 H267 0.960 . S
C260 C258 1.381 . S
C260 C261 1.394 . S
C260 H268 0.930 . S
C261 C260 1.394 . S
C261 C262 1.383 . S
C261 H269 0.929 . S
C262 C261 1.383 . S
C262 C263 1.377 . S
C263 H247 0.930 . S
C263 C262 1.377 . S
C263 C264 1.379 . S
C264 H248 0.931 . S
C264 C258 1.383 . S
C264 C263 1.379 . S
H265 C259 0.959 . S
H266 C259 0.961 . S
H267 C259 0.960 . S
H268 C260 0.930 . S
H269 C261 0.929 . S
H270 C278 0.929 . S
H271 C280 0.930 . S
H272 C282 0.930 . S
H273 C285 0.929 . S
H274 C288 0.930 . S
H275 C290 0.960 . S
H276 C290 0.960 . S
H277 C290 0.960 . S
C278 H270 0.929 . S
C278 C279 1.377 . S
C278 C280 1.384 . S
C279 C278 1.377 . S
C279 C285 1.390 . S
C280 H271 0.930 . S
C280 C278 1.384 . S
C280 C281 1.372 . S
C281 C280 1.372 . S
C281 C282 1.400 . S
C281 C286 1.490 . S
C282 H272 0.930 . S
C282 C281 1.400 . S
C282 C285 1.386 . S
H283 C299 0.930 . S
H284 C300 0.931 . S
C285 H273 0.929 . S
C285 C279 1.390 . S
C285 C282 1.386 . S
C286 C281 1.490 . S
C286 C288 1.395 . S
C286 C289 1.403 . S
H287 C293 0.930 . S
C288 H274 0.930 . S
C288 C286 1.395 . S
C288 C291 1.403 . S
C289 C286 1.403 . S
C289 C290 1.524 . S
C289 C293 1.400 . S
C290 H275 0.960 . S
C290 H276 0.960 . S
C290 H277 0.960 . S
C290 C289 1.524 . S
C291 C288 1.403 . S
C291 C292 1.392 . S
C291 C295 1.495 . S
C292 C291 1.392 . S
C292 C293 1.385 . S
C292 C294 1.478 . S
C293 H287 0.930 . S
C293 C289 1.400 . S
C293 C292 1.385 . S
C294 C292 1.478 . S
C294 C296 1.381 . S
C294 C300 1.383 . S
C295 C291 1.495 . S
C295 H301 0.959 . S
C295 H302 0.961 . S
C295 H303 0.960 . S
C296 C294 1.381 . S
C296 C297 1.394 . S
C296 H304 0.930 . S
C297 C296 1.394 . S
C297 C298 1.383 . S
C297 H305 0.929 . S
C298 C297 1.383 . S
C298 C299 1.377 . S
C299 H283 0.930 . S
C299 C298 1.377 . S
C299 C300 1.379 . S
C300 H284 0.931 . S
C300 C294 1.383 . S
C300 C299 1.379 . S
H301 C295 0.959 . S
H302 C295 0.961 . S
H303 C295 0.960 . S
H304 C296 0.930 . S
H305 C297 0.929 . S
H306 C314 0.929 . S
H307 C316 0.930 . S
H308 C318 0.930 . S
H309 C321 0.929 . S
H310 C324 0.930 . S
H311 C326 0.960 . S
H312 C326 0.960 . S
H313 C326 0.960 . S
C314 H306 0.929 . S
C314 C315 1.377 . S
C314 C316 1.384 . S
C315 C314 1.377 . S
C315 C321 1.390 . S
C316 H307 0.930 . S
C316 C314 1.384 . S
C316 C317 1.372 . S
C317 C316 1.372 . S
C317 C318 1.400 . S
C317 C322 1.490 . S
C318 H308 0.930 . S
C318 C317 1.400 . S
C318 C321 1.386 . S
H319 C335 0.930 . S
H320 C336 0.931 . S
C321 H309 0.929 . S
C321 C315 1.390 . S
C321 C318 1.386 . S
C322 C317 1.490 . S
C322 C324 1.395 . S
C322 C325 1.403 . S
H323 C329 0.930 . S
C324 H310 0.930 . S
C324 C322 1.395 . S
C324 C327 1.403 . S
C325 C322 1.403 . S
C325 C326 1.524 . S
C325 C329 1.400 . S
C326 H311 0.960 . S
C326 H312 0.960 . S
C326 H313 0.960 . S
C326 C325 1.524 . S
C327 C324 1.403 . S
C327 C328 1.392 . S
C327 C331 1.495 . S
C328 C327 1.392 . S
C328 C329 1.385 . S
C328 C330 1.478 . S
C329 H323 0.930 . S
C329 C325 1.400 . S
C329 C328 1.385 . S
C330 C328 1.478 . S
C330 C332 1.381 . S
C330 C336 1.383 . S
C331 C327 1.495 . S
C331 H337 0.959 . S
C331 H338 0.961 . S
C331 H339 0.960 . S
C332 C330 1.381 . S
C332 C333 1.394 . S
C332 H340 0.930 . S
C333 C332 1.394 . S
C333 C334 1.383 . S
C333 H341 0.929 . S
C334 C333 1.383 . S
C334 C335 1.377 . S
C335 H319 0.930 . S
C335 C334 1.377 . S
C335 C336 1.379 . S
C336 H320 0.931 . S
C336 C330 1.383 . S
C336 C335 1.379 . S
H337 C331 0.959 . S
H338 C331 0.961 . S
H339 C331 0.960 . S
H340 C332 0.930 . S
H341 C333 0.929 . S
H342 C350 0.929 . S
H343 C352 0.930 . S
H344 C354 0.930 . S
H345 C357 0.929 . S
H346 C360 0.930 . S
H347 C362 0.960 . S
H348 C362 0.960 . S
H349 C362 0.960 . S
C350 H342 0.929 . S
C350 C351 1.377 . S
C350 C352 1.384 . S
C351 C350 1.377 . S
C351 C357 1.390 . S
C352 H343 0.930 . S
C352 C350 1.384 . S
C352 C353 1.372 . S
C353 C352 1.372 . S
C353 C354 1.400 . S
C353 C358 1.490 . S
C354 H344 0.930 . S
C354 C353 1.400 . S
C354 C357 1.386 . S
H355 C371 0.930 . S
H356 C372 0.931 . S
C357 H345 0.929 . S
C357 C351 1.390 . S
C357 C354 1.386 . S
C358 C353 1.490 . S
C358 C360 1.395 . S
C358 C361 1.403 . S
H359 C365 0.930 . S
C360 H346 0.930 . S
C360 C358 1.395 . S
C360 C363 1.403 . S
C361 C358 1.403 . S
C361 C362 1.524 . S
C361 C365 1.400 . S
C362 H347 0.960 . S
C362 H348 0.960 . S
C362 H349 0.960 . S
C362 C361 1.524 . S
C363 C360 1.403 . S
C363 C364 1.392 . S
C363 C367 1.495 . S
C364 C363 1.392 . S
C364 C365 1.385 . S
C364 C366 1.478 . S
C365 H359 0.930 . S
C365 C361 1.400 . S
C365 C364 1.385 . S
C366 C364 1.478 . S
C366 C368 1.381 . S
C366 C372 1.383 . S
C367 C363 1.495 . S
C367 H373 0.959 . S
C367 H374 0.961 . S
C367 H375 0.960 . S
C368 C366 1.381 . S
C368 C369 1.394 . S
C368 H376 0.930 . S
C369 C368 1.394 . S
C369 C370 1.383 . S
C369 H377 0.929 . S
C370 C369 1.383 . S
C370 C371 1.377 . S
C371 H355 0.930 . S
C371 C370 1.377 . S
C371 C372 1.379 . S
C372 H356 0.931 . S
C372 C366 1.383 . S
C372 C371 1.379 . S
H373 C367 0.959 . S
H374 C367 0.961 . S
H375 C367 0.960 . S
H376 C368 0.930 . S
H377 C369 0.929 . S
H378 C386 0.929 . S
H379 C388 0.930 . S
H380 C390 0.930 . S
H381 C393 0.929 . S
H382 C396 0.930 . S
H383 C398 0.960 . S
H384 C398 0.960 . S
H385 C398 0.960 . S
C386 H378 0.929 . S
C386 C387 1.377 . S
C386 C388 1.384 . S
C387 C386 1.377 . S
C387 C393 1.390 . S
C388 H379 0.930 . S
C388 C386 1.384 . S
C388 C389 1.372 . S
C389 C388 1.372 . S
C389 C390 1.400 . S
C389 C394 1.490 . S
C390 H380 0.930 . S
C390 C389 1.400 . S
C390 C393 1.386 . S
H391 C407 0.930 . S
H392 C408 0.931 . S
C393 H381 0.929 . S
C393 C387 1.390 . S
C393 C390 1.386 . S
C394 C389 1.490 . S
C394 C396 1.395 . S
C394 C397 1.403 . S
H395 C401 0.930 . S
C396 H382 0.930 . S
C396 C394 1.395 . S
C396 C399 1.403 . S
C397 C394 1.403 . S
C397 C398 1.524 . S
C397 C401 1.400 . S
C398 H383 0.960 . S
C398 H384 0.960 . S
C398 H385 0.960 . S
C398 C397 1.524 . S
C399 C396 1.403 . S
C399 C400 1.392 . S
C399 C403 1.495 . S
C400 C399 1.392 . S
C400 C401 1.385 . S
C400 C402 1.478 . S
C401 H395 0.930 . S
C401 C397 1.400 . S
C401 C400 1.385 . S
C402 C400 1.478 . S
C402 C404 1.381 . S
C402 C408 1.383 . S
C403 C399 1.495 . S
C403 H409 0.959 . S
C403 H410 0.961 . S
C403 H411 0.960 . S
C404 C402 1.381 . S
C404 C405 1.394 . S
C404 H412 0.930 . S
C405 C404 1.394 . S
C405 C406 1.383 . S
C405 H413 0.929 . S
C406 C405 1.383 . S
C406 C407 1.377 . S
C407 H391 0.930 . S
C407 C406 1.377 . S
C407 C408 1.379 . S
C408 H392 0.931 . S
C408 C402 1.383 . S
C408 C407 1.379 . S
H409 C403 0.959 . S
H410 C403 0.961 . S
H411 C403 0.960 . S
H412 C404 0.930 . S
H413 C405 0.929 . S
H414 C422 0.929 . S
H415 C424 0.930 . S
H416 C426 0.930 . S
H417 C429 0.929 . S
H418 C432 0.930 . S
H419 C434 0.960 . S
H420 C434 0.960 . S
H421 C434 0.960 . S
C422 H414 0.929 . S
C422 C423 1.377 . S
C422 C424 1.384 . S
C423 C422 1.377 . S
C423 C429 1.390 . S
C424 H415 0.930 . S
C424 C422 1.384 . S
C424 C425 1.372 . S
C425 C424 1.372 . S
C425 C426 1.400 . S
C425 C430 1.490 . S
C426 H416 0.930 . S
C426 C425 1.400 . S
C426 C429 1.386 . S
H427 C443 0.930 . S
H428 C444 0.931 . S
C429 H417 0.929 . S
C429 C423 1.390 . S
C429 C426 1.386 . S
C430 C425 1.490 . S
C430 C432 1.395 . S
C430 C433 1.403 . S
H431 C437 0.930 . S
C432 H418 0.930 . S
C432 C430 1.395 . S
C432 C435 1.403 . S
C433 C430 1.403 . S
C433 C434 1.524 . S
C433 C437 1.400 . S
C434 H419 0.960 . S
C434 H420 0.960 . S
C434 H421 0.960 . S
C434 C433 1.524 . S
C435 C432 1.403 . S
C435 C436 1.392 . S
C435 C439 1.495 . S
C436 C435 1.392 . S
C436 C437 1.385 . S
C436 C438 1.478 . S
C437 H431 0.930 . S
C437 C433 1.400 . S
C437 C436 1.385 . S
C438 C436 1.478 . S
C438 C440 1.381 . S
C438 C444 1.383 . S
C439 C435 1.495 . S
C439 H445 0.959 . S
C439 H446 0.961 . S
C439 H447 0.960 . S
C440 C438 1.381 . S
C440 C441 1.394 . S
C440 H448 0.930 . S
C441 C440 1.394 . S
C441 C442 1.383 . S
C441 H449 0.929 . S
C442 C441 1.383 . S
C442 C443 1.377 . S
C443 H427 0.930 . S
C443 C442 1.377 . S
C443 C444 1.379 . S
C444 H428 0.931 . S
C444 C438 1.383 . S
C444 C443 1.379 . S
H445 C439 0.959 . S
H446 C439 0.961 . S
H447 C439 0.960 . S
H448 C440 0.930 . S
H449 C441 0.929 . S
H450 C458 0.929 . S
H451 C460 0.930 . S
H452 C462 0.930 . S
H453 C465 0.929 . S
H454 C468 0.930 . S
H455 C470 0.960 . S
H456 C470 0.960 . S
H457 C470 0.960 . S
C458 H450 0.929 . S
C458 C459 1.377 . S
C458 C460 1.384 . S
C459 C458 1.377 . S
C459 C465 1.390 . S
C460 H451 0.930 . S
C460 C458 1.384 . S
C460 C461 1.372 . S
C461 C460 1.372 . S
C461 C462 1.400 . S
C461 C466 1.490 . S
C462 H452 0.930 . S
C462 C461 1.400 . S
C462 C465 1.386 . S
H463 C479 0.930 . S
H464 C480 0.931 . S
C465 H453 0.929 . S
C465 C459 1.390 . S
C465 C462 1.386 . S
C466 C461 1.490 . S
C466 C468 1.395 . S
C466 C469 1.403 . S
H467 C473 0.930 . S
C468 H454 0.930 . S
C468 C466 1.395 . S
C468 C471 1.403 . S
C469 C466 1.403 . S
C469 C470 1.524 . S
C469 C473 1.400 . S
C470 H455 0.960 . S
C470 H456 0.960 . S
C470 H457 0.960 . S
C470 C469 1.524 . S
C471 C468 1.403 . S
C471 C472 1.392 . S
C471 C475 1.495 . S
C472 C471 1.392 . S
C472 C473 1.385 . S
C472 C474 1.478 . S
C473 H467 0.930 . S
C473 C469 1.400 . S
C473 C472 1.385 . S
C474 C472 1.478 . S
C474 C476 1.381 . S
C474 C480 1.383 . S
C475 C471 1.495 . S
C475 H481 0.959 . S
C475 H482 0.961 . S
C475 H483 0.960 . S
C476 C474 1.381 . S
C476 C477 1.394 . S
C476 H484 0.930 . S
C477 C476 1.394 . S
C477 C478 1.383 . S
C477 H485 0.929 . S
C478 C477 1.383 . S
C478 C479 1.377 . S
C479 H463 0.930 . S
C479 C478 1.377 . S
C479 C480 1.379 . S
C480 H464 0.931 . S
C480 C474 1.383 . S
C480 C479 1.379 . S
H481 C475 0.959 . S
H482 C475 0.961 . S
H483 C475 0.960 . S
H484 C476 0.930 . S
H485 C477 0.929 . S
H486 C494 0.929 . S
H487 C496 0.930 . S
H488 C498 0.930 . S
H489 C501 0.929 . S
H490 C504 0.930 . S
H491 C506 0.960 . S
H492 C506 0.960 . S
H493 C506 0.960 . S
C494 H486 0.929 . S
C494 C495 1.377 . S
C494 C496 1.384 . S
C495 C494 1.377 . S
C495 C501 1.390 . S
C496 H487 0.930 . S
C496 C494 1.384 . S
C496 C497 1.372 . S
C497 C496 1.372 . S
C497 C498 1.400 . S
C497 C502 1.490 . S
C498 H488 0.930 . S
C498 C497 1.400 . S
C498 C501 1.386 . S
H499 C515 0.930 . S
H500 C516 0.931 . S
C501 H489 0.929 . S
C501 C495 1.390 . S
C501 C498 1.386 . S
C502 C497 1.490 . S
C502 C504 1.395 . S
C502 C505 1.403 . S
H503 C509 0.930 . S
C504 H490 0.930 . S
C504 C502 1.395 . S
C504 C507 1.403 . S
C505 C502 1.403 . S
C505 C506 1.524 . S
C505 C509 1.400 . S
C506 H491 0.960 . S
C506 H492 0.960 . S
C506 H493 0.960 . S
C506 C505 1.524 . S
C507 C504 1.403 . S
C507 C508 1.392 . S
C507 C511 1.495 . S
C508 C507 1.392 . S
C508 C509 1.385 . S
C508 C510 1.478 . S
C509 H503 0.930 . S
C509 C505 1.400 . S
C509 C508 1.385 . S
C510 C508 1.478 . S
C510 C512 1.381 . S
C510 C516 1.383 . S
C511 C507 1.495 . S
C511 H517 0.959 . S
C511 H518 0.961 . S
C511 H519 0.960 . S
C512 C510 1.381 . S
C512 C513 1.394 . S
C512 H520 0.930 . S
C513 C512 1.394 . S
C513 C514 1.383 1_655 S
C513 H521 0.929 1_655 S
C514 C513 1.383 1_455 S
C514 C515 1.377 1_455 S
C515 H499 0.930 . S
C515 C514 1.377 1_655 S
C515 C516 1.379 . S
C516 H500 0.931 . S
C516 C510 1.383 . S
C516 C515 1.379 . S
H517 C511 0.959 . S
H518 C511 0.961 . S
H519 C511 0.960 . S
H520 C512 0.930 . S
H521 C513 0.929 1_455 S
H522 C530 0.929 . S
H523 C532 0.930 . S
H524 C534 0.930 . S
H525 C537 0.929 . S
H526 C540 0.930 . S
H527 C542 0.960 . S
H528 C542 0.960 . S
H529 C542 0.960 . S
C530 H522 0.929 . S
C530 C531 1.377 . S
C530 C532 1.384 . S
C531 C530 1.377 . S
C531 C537 1.390 . S
C532 H523 0.930 . S
C532 C530 1.384 . S
C532 C533 1.372 . S
C533 C532 1.372 . S
C533 C534 1.400 . S
C533 C538 1.490 . S
C534 H524 0.930 . S
C534 C533 1.400 . S
C534 C537 1.386 . S
H535 C551 0.930 . S
H536 C552 0.931 . S
C537 H525 0.929 . S
C537 C531 1.390 . S
C537 C534 1.386 . S
C538 C533 1.490 . S
C538 C540 1.395 . S
C538 C541 1.403 . S
H539 C545 0.930 . S
C540 H526 0.930 . S
C540 C538 1.395 . S
C540 C543 1.403 . S
C541 C538 1.403 . S
C541 C542 1.524 . S
C541 C545 1.400 . S
C542 H527 0.960 . S
C542 H528 0.960 . S
C542 H529 0.960 . S
C542 C541 1.524 . S
C543 C540 1.403 . S
C543 C544 1.392 . S
C543 C547 1.495 1_565 S
C544 C543 1.392 . S
C544 C545 1.385 . S
C544 C546 1.478 . S
C545 H539 0.930 . S
C545 C541 1.400 . S
C545 C544 1.385 . S
C546 C544 1.478 . S
C546 C548 1.381 1_565 S
C546 C552 1.383 . S
C547 C543 1.495 1_545 S
C547 H553 0.959 . S
C547 H554 0.961 . S
C547 H555 0.960 . S
C548 C546 1.381 1_545 S
C548 C549 1.394 . S
C548 H556 0.930 1_545 S
C549 C548 1.394 . S
C549 C550 1.383 . S
C549 H557 0.929 . S
C550 C549 1.383 . S
C550 C551 1.377 . S
C551 H535 0.930 . S
C551 C550 1.377 . S
C551 C552 1.379 1_545 S
C552 H536 0.931 . S
C552 C546 1.383 . S
C552 C551 1.379 1_565 S
H553 C547 0.959 . S
H554 C547 0.961 . S
H555 C547 0.960 . S
H556 C548 0.930 1_565 S
H557 C549 0.929 . S
H558 C566 0.929 . S
H559 C568 0.930 . S
H560 C570 0.930 . S
H561 C573 0.929 . S
H562 C576 0.930 . S
H563 C578 0.960 . S
H564 C578 0.960 . S
H565 C578 0.960 . S
C566 H558 0.929 . S
C566 C567 1.377 . S
C566 C568 1.384 . S
C567 C566 1.377 . S
C567 C573 1.390 . S
C568 H559 0.930 . S
C568 C566 1.384 . S
C568 C569 1.372 . S
C569 C568 1.372 . S
C569 C570 1.400 . S
C569 C574 1.490 . S
C570 H560 0.930 . S
C570 C569 1.400 . S
C570 C573 1.386 . S
H571 C587 0.930 . S
H572 C588 0.931 . S
C573 H561 0.929 . S
C573 C567 1.390 . S
C573 C570 1.386 . S
C574 C569 1.490 . S
C574 C576 1.395 . S
C574 C577 1.403 . S
H575 C581 0.930 . S
C576 H562 0.930 . S
C576 C574 1.395 . S
C576 C579 1.403 . S
C577 C574 1.403 . S
C577 C578 1.524 . S
C577 C581 1.400 . S
C578 H563 0.960 . S
C578 H564 0.960 . S
C578 H565 0.960 . S
C578 C577 1.524 . S
C579 C576 1.403 . S
C579 C580 1.392 . S
C579 C583 1.495 . S
C580 C579 1.392 . S
C580 C581 1.385 . S
C580 C582 1.478 . S
C581 H575 0.930 . S
C581 C577 1.400 . S
C581 C580 1.385 . S
C582 C580 1.478 . S
C582 C584 1.381 . S
C582 C588 1.383 . S
C583 C579 1.495 . S
C583 H589 0.959 . S
C583 H590 0.961 . S
C583 H591 0.960 . S
C584 C582 1.381 . S
C584 C585 1.394 . S
C584 H592 0.930 . S
C585 C584 1.394 . S
C585 C586 1.383 . S
C585 H593 0.929 . S
C586 C585 1.383 . S
C586 C587 1.377 . S
C587 H571 0.930 . S
C587 C586 1.377 . S
C587 C588 1.379 . S
C588 H572 0.931 . S
C588 C582 1.383 . S
C588 C587 1.379 . S
H589 C583 0.959 . S
H590 C583 0.961 . S
H591 C583 0.960 . S
H592 C584 0.930 . S
H593 C585 0.929 . S
H594 C602 0.929 . S
H595 C604 0.930 . S
H596 C606 0.930 . S
H597 C609 0.929 . S
H598 C612 0.930 . S
H599 C614 0.960 . S
H600 C614 0.960 . S
H601 C614 0.960 . S
C602 H594 0.929 . S
C602 C603 1.377 . S
C602 C604 1.384 . S
C603 C602 1.377 . S
C603 C609 1.390 . S
C604 H595 0.930 . S
C604 C602 1.384 . S
C604 C605 1.372 . S
C605 C604 1.372 . S
C605 C606 1.400 . S
C605 C610 1.490 . S
C606 H596 0.930 . S
C606 C605 1.400 . S
C606 C609 1.386 . S
H607 C623 0.930 . S
H608 C624 0.931 . S
C609 H597 0.929 . S
C609 C603 1.390 . S
C609 C606 1.386 . S
C610 C605 1.490 . S
C610 C612 1.395 . S
C610 C613 1.403 . S
H611 C617 0.930 . S
C612 H598 0.930 . S
C612 C610 1.395 . S
C612 C615 1.403 . S
C613 C610 1.403 . S
C613 C614 1.524 . S
C613 C617 1.400 . S
C614 H599 0.960 . S
C614 H600 0.960 . S
C614 H601 0.960 . S
C614 C613 1.524 . S
C615 C612 1.403 . S
C615 C616 1.392 . S
C615 C619 1.495 . S
C616 C615 1.392 . S
C616 C617 1.385 . S
C616 C618 1.478 . S
C617 H611 0.930 . S
C617 C613 1.400 . S
C617 C616 1.385 . S
C618 C616 1.478 . S
C618 C620 1.381 . S
C618 C624 1.383 . S
C619 C615 1.495 . S
C619 H625 0.959 . S
C619 H626 0.961 . S
C619 H627 0.960 . S
C620 C618 1.381 . S
C620 C621 1.394 . S
C620 H628 0.930 . S
C621 C620 1.394 . S
C621 C622 1.383 . S
C621 H629 0.929 . S
C622 C621 1.383 . S
C622 C623 1.377 . S
C623 H607 0.930 . S
C623 C622 1.377 . S
C623 C624 1.379 . S
C624 H608 0.931 . S
C624 C618 1.383 . S
C624 C623 1.379 . S
H625 C619 0.959 . S
H626 C619 0.961 . S
H627 C619 0.960 . S
H628 C620 0.930 . S
H629 C621 0.929 . S
H630 C638 0.929 . S
H631 C640 0.930 . S
H632 C642 0.930 . S
H633 C645 0.929 . S
H634 C648 0.930 . S
H635 C650 0.960 . S
H636 C650 0.960 . S
H637 C650 0.960 . S
C638 H630 0.929 . S
C638 C639 1.377 . S
C638 C640 1.384 . S
C639 C638 1.377 . S
C639 C645 1.390 . S
C640 H631 0.930 . S
C640 C638 1.384 . S
C640 C641 1.372 . S
C641 C640 1.372 . S
C641 C642 1.400 . S
C641 C646 1.490 . S
C642 H632 0.930 . S
C642 C641 1.400 . S
C642 C645 1.386 . S
H643 C659 0.930 . S
H644 C660 0.931 . S
C645 H633 0.929 . S
C645 C639 1.390 . S
C645 C642 1.386 . S
C646 C641 1.490 . S
C646 C648 1.395 . S
C646 C649 1.403 . S
H647 C653 0.930 . S
C648 H634 0.930 . S
C648 C646 1.395 . S
C648 C651 1.403 . S
C649 C646 1.403 . S
C649 C650 1.524 . S
C649 C653 1.400 . S
C650 H635 0.960 . S
C650 H636 0.960 . S
C650 H637 0.960 . S
C650 C649 1.524 . S
C651 C648 1.403 . S
C651 C652 1.392 . S
C651 C655 1.495 . S
C652 C651 1.392 . S
C652 C653 1.385 . S
C652 C654 1.478 . S
C653 H647 0.930 . S
C653 C649 1.400 . S
C653 C652 1.385 . S
C654 C652 1.478 . S
C654 C656 1.381 . S
C654 C660 1.383 . S
C655 C651 1.495 . S
C655 H661 0.959 . S
C655 H662 0.961 . S
C655 H663 0.960 . S
C656 C654 1.381 . S
C656 C657 1.394 . S
C656 H664 0.930 . S
C657 C656 1.394 . S
C657 C658 1.383 . S
C657 H665 0.929 . S
C658 C657 1.383 . S
C658 C659 1.377 . S
C659 H643 0.930 . S
C659 C658 1.377 . S
C659 C660 1.379 . S
C660 H644 0.931 . S
C660 C654 1.383 . S
C660 C659 1.379 . S
H661 C655 0.959 . S
H662 C655 0.961 . S
H663 C655 0.960 . S
H664 C656 0.930 . S
H665 C657 0.929 . S
H666 C674 0.929 . S
H667 C676 0.930 . S
H668 C678 0.930 1_655 S
H669 C681 0.929 1_655 S
H670 C684 0.930 . S
H671 C686 0.960 . S
H672 C686 0.960 . S
H673 C686 0.960 1_655 S
C674 H666 0.929 . S
C674 C675 1.377 . S
C674 C676 1.384 . S
C675 C674 1.377 . S
C675 C681 1.390 . S
C676 H667 0.930 . S
C676 C674 1.384 . S
C676 C677 1.372 . S
C677 C676 1.372 . S
C677 C678 1.400 . S
C677 C682 1.490 . S
C678 H668 0.930 1_455 S
C678 C677 1.400 . S
C678 C681 1.386 . S
H679 C695 0.930 . S
H680 C696 0.909 1_655 S
C681 H669 0.929 1_455 S
C681 C675 1.390 . S
C681 C678 1.386 . S
C682 C677 1.490 . S
C682 C684 1.395 . S
C682 C685 1.403 . S
H683 C689 0.930 . S
C684 H670 0.930 . S
C684 C682 1.395 . S
C684 C687 1.403 . S
C685 C682 1.403 . S
C685 C686 1.524 . S
C685 C689 1.400 1_554 S
C686 H671 0.960 . S
C686 H672 0.960 . S
C686 H673 0.960 1_455 S
C686 C685 1.524 . S
C687 C684 1.403 . S
C687 C688 1.392 1_554 S
C687 C691 1.495 . S
C688 C687 1.392 1_556 S
C688 C689 1.385 . S
C688 C690 1.478 . S
C689 H683 0.930 . S
C689 C685 1.400 1_556 S
C689 C688 1.385 . S
C690 C688 1.478 . S
C690 C692 1.381 . S
C690 C696 1.383 . S
C691 C687 1.495 . S
C691 H697 0.959 . S
C691 H698 0.961 1_554 S
C691 H699 0.960 1_554 S
C692 C690 1.381 . S
C692 C693 1.394 . S
C692 H700 0.930 . S
C693 C692 1.394 . S
C693 C694 1.383 . S
C693 H701 0.929 . S
C694 C693 1.383 . S
C694 C695 1.377 . S
C695 H679 0.930 . S
C695 C694 1.377 . S
C695 C696 1.379 . S
C696 H680 0.909 1_455 S
C696 C690 1.383 . S
C696 C695 1.379 . S
H697 C691 0.959 . S
H698 C691 0.961 1_556 S
H699 C691 0.960 1_556 S
H700 C692 0.930 . S
H701 C693 0.929 . S
H702 C710 0.929 . S
H703 C712 0.930 . S
H704 C714 0.930 . S
H705 C717 0.929 . S
H706 C720 0.930 . S
H707 C722 0.960 1_565 S
H708 C722 0.960 . S
H709 C722 0.960 . S
C710 H702 0.929 . S
C710 C711 1.377 . S
C710 C712 1.384 . S
C711 C710 1.377 . S
C711 C717 1.390 . S
C712 H703 0.930 . S
C712 C710 1.384 . S
C712 C713 1.372 . S
C713 C712 1.372 . S
C713 C714 1.400 . S
C713 C718 1.490 . S
C714 H704 0.930 . S
C714 C713 1.400 . S
C714 C717 1.386 . S
H715 C731 0.930 . S
H716 C732 0.931 . S
C717 H705 0.929 . S
C717 C711 1.390 . S
C717 C714 1.386 . S
C718 C713 1.490 . S
C718 C720 1.395 . S
C718 C721 1.403 . S
H719 C725 0.930 . S
C720 H706 0.930 . S
C720 C718 1.395 . S
C720 C723 1.403 . S
C721 C718 1.403 . S
C721 C722 1.524 . S
C721 C725 1.400 . S
C722 H707 0.960 1_545 S
C722 H708 0.960 . S
C722 H709 0.960 . S
C722 C721 1.524 . S
C723 C720 1.403 . S
C723 C724 1.392 . S
C723 C727 1.495 . S
C724 C723 1.392 . S
C724 C725 1.385 . S
C724 C726 1.478 . S
C725 H719 0.930 . S
C725 C721 1.400 . S
C725 C724 1.385 . S
C726 C724 1.478 . S
C726 C728 1.381 . S
C726 C732 1.383 . S
C727 C723 1.495 . S
C727 H733 0.959 . S
C727 H734 0.961 . S
C727 H735 0.960 . S
C728 C726 1.381 . S
C728 C729 1.394 . S
C728 H736 0.930 . S
C729 C728 1.394 . S
C729 C730 1.383 . S
C729 H737 0.929 . S
C730 C729 1.383 . S
C730 C731 1.377 . S
C731 H715 0.930 . S
C731 C730 1.377 . S
C731 C732 1.379 . S
C732 H716 0.931 . S
C732 C726 1.383 . S
C732 C731 1.379 . S
H733 C727 0.959 . S
H734 C727 0.961 . S
H735 C727 0.960 . S
H736 C728 0.930 . S
H737 C729 0.929 . S
H738 C746 0.929 . S
H739 C748 0.930 . S
H740 C750 0.930 . S
H741 C753 0.929 . S
H742 C756 0.930 . S
H743 C758 0.960 . S
H744 C758 0.960 . S
H745 C758 0.960 . S
C746 H738 0.929 . S
C746 C747 1.377 . S
C746 C748 1.384 . S
C747 C746 1.377 . S
C747 C753 1.390 . S
C748 H739 0.930 . S
C748 C746 1.384 . S
C748 C749 1.372 . S
C749 C748 1.372 . S
C749 C750 1.400 . S
C749 C754 1.490 . S
C750 H740 0.930 . S
C750 C749 1.400 . S
C750 C753 1.386 . S
H751 C767 0.930 . S
H752 C768 0.931 . S
C753 H741 0.929 . S
C753 C747 1.390 . S
C753 C750 1.386 . S
C754 C749 1.490 . S
C754 C756 1.395 . S
C754 C757 1.403 . S
H755 C761 0.930 . S
C756 H742 0.930 . S
C756 C754 1.395 . S
C756 C759 1.403 . S
C757 C754 1.403 . S
C757 C758 1.524 . S
C757 C761 1.400 . S
C758 H743 0.960 . S
C758 H744 0.960 . S
C758 H745 0.960 . S
C758 C757 1.524 . S
C759 C756 1.403 . S
C759 C760 1.392 . S
C759 C763 1.495 . S
C760 C759 1.392 . S
C760 C761 1.385 . S
C760 C762 1.478 . S
C761 H755 0.930 . S
C761 C757 1.400 . S
C761 C760 1.385 . S
C762 C760 1.478 . S
C762 C764 1.381 . S
C762 C768 1.383 . S
C763 C759 1.495 . S
C763 H769 0.959 . S
C763 H770 0.961 . S
C763 H771 0.960 . S
C764 C762 1.381 . S
C764 C765 1.394 . S
C764 H772 0.930 . S
C765 C764 1.394 . S
C765 C766 1.383 . S
C765 H773 0.929 . S
C766 C765 1.383 . S
C766 C767 1.377 . S
C767 H751 0.930 . S
C767 C766 1.377 . S
C767 C768 1.379 . S
C768 H752 0.931 . S
C768 C762 1.383 . S
C768 C767 1.379 . S
H769 C763 0.959 . S
H770 C763 0.961 . S
H771 C763 0.960 . S
H772 C764 0.930 . S
H773 C765 0.929 . S
H774 C782 0.929 . S
H775 C784 0.930 . S
H776 C786 0.930 . S
H777 C789 0.929 . S
H778 C792 0.930 . S
H779 C794 0.960 . S
H780 C794 0.960 . S
H781 C794 0.960 . S
C782 H774 0.929 . S
C782 C783 1.377 . S
C782 C784 1.384 . S
C783 C782 1.377 . S
C783 C789 1.390 . S
C784 H775 0.930 . S
C784 C782 1.384 . S
C784 C785 1.372 . S
C785 C784 1.372 . S
C785 C786 1.400 . S
C785 C790 1.490 . S
C786 H776 0.930 . S
C786 C785 1.400 . S
C786 C789 1.386 . S
H787 C803 0.930 . S
H788 C804 0.931 . S
C789 H777 0.929 . S
C789 C783 1.390 . S
C789 C786 1.386 . S
C790 C785 1.490 . S
C790 C792 1.395 . S
C790 C793 1.403 . S
H791 C797 0.930 . S
C792 H778 0.930 . S
C792 C790 1.395 . S
C792 C795 1.403 . S
C793 C790 1.403 . S
C793 C794 1.524 . S
C793 C797 1.400 . S
C794 H779 0.960 . S
C794 H780 0.960 . S
C794 H781 0.960 . S
C794 C793 1.524 . S
C795 C792 1.403 . S
C795 C796 1.392 . S
C795 C799 1.495 1_545 S
C796 C795 1.392 . S
C796 C797 1.385 . S
C796 C798 1.478 . S
C797 H791 0.930 . S
C797 C793 1.400 . S
C797 C796 1.385 . S
C798 C796 1.478 . S
C798 C800 1.381 . S
C798 C804 1.383 . S
C799 C795 1.495 1_565 S
C799 H805 0.959 . S
C799 H806 0.961 . S
C799 H807 0.960 1_565 S
C800 C798 1.381 . S
C800 C801 1.394 . S
C800 H808 0.930 . S
C801 C800 1.394 . S
C801 C802 1.383 . S
C801 H809 0.929 . S
C802 C801 1.383 . S
C802 C803 1.377 . S
C803 H787 0.930 . S
C803 C802 1.377 . S
C803 C804 1.379 . S
C804 H788 0.931 . S
C804 C798 1.383 . S
C804 C803 1.379 . S
H805 C799 0.959 . S
H806 C799 0.961 . S
H807 C799 0.960 1_545 S
H808 C800 0.930 . S
H809 C801 0.929 . S
H810 C818 0.929 . S
H811 C820 0.930 . S
H812 C822 0.930 . S
H813 C825 0.929 . S
H814 C828 0.930 . S
H815 C830 0.960 . S
H816 C830 0.960 . S
H817 C830 0.960 . S
C818 H810 0.929 . S
C818 C819 1.377 . S
C818 C820 1.384 . S
C819 C818 1.377 . S
C819 C825 1.390 . S
C820 H811 0.930 . S
C820 C818 1.384 . S
C820 C821 1.372 . S
C821 C820 1.372 . S
C821 C822 1.400 . S
C821 C826 1.490 . S
C822 H812 0.930 . S
C822 C821 1.400 . S
C822 C825 1.386 . S
H823 C839 0.930 . S
H824 C840 0.931 . S
C825 H813 0.929 . S
C825 C819 1.390 . S
C825 C822 1.386 . S
C826 C821 1.490 . S
C826 C828 1.395 . S
C826 C829 1.403 . S
H827 C833 0.929 . S
C828 H814 0.930 . S
C828 C826 1.395 . S
C828 C831 1.403 1_556 S
C829 C826 1.403 . S
C829 C830 1.524 . S
C829 C833 1.400 . S
C830 H815 0.960 . S
C830 H816 0.960 . S
C830 H817 0.960 . S
C830 C829 1.524 . S
C831 C828 1.403 1_554 S
C831 C832 1.392 . S
C831 C835 1.495 . S
C832 C831 1.392 . S
C832 C833 1.385 1_554 S
C832 C834 1.478 . S
C833 H827 0.929 . S
C833 C829 1.400 . S
C833 C832 1.385 1_556 S
C834 C832 1.478 . S
C834 C836 1.381 . S
C834 C840 1.383 . S
C835 C831 1.495 . S
C835 H841 0.959 . S
C835 H842 0.961 . S
C835 H843 0.960 . S
C836 C834 1.381 . S
C836 C837 1.394 . S
C836 H844 0.930 . S
C837 C836 1.394 . S
C837 C838 1.383 . S
C837 H845 0.929 . S
C838 C837 1.383 . S
C838 C839 1.377 . S
C839 H823 0.930 . S
C839 C838 1.377 . S
C839 C840 1.379 . S
C840 H824 0.931 . S
C840 C834 1.383 . S
C840 C839 1.379 . S
H841 C835 0.959 . S
H842 C835 0.961 . S
H843 C835 0.960 . S
H844 C836 0.930 . S
H845 C837 0.929 . S
H846 C854 0.929 1_655 S
H847 C856 0.930 1_655 S
H848 C858 0.930 . S
H849 C861 0.929 . S
H850 C864 0.930 1_655 S
H851 C866 0.960 . S
H852 C866 0.960 . S
H853 C866 0.960 . S
C854 H846 0.929 1_455 S
C854 C855 1.377 . S
C854 C856 1.384 . S
C855 C854 1.377 . S
C855 C861 1.390 . S
C856 H847 0.930 1_455 S
C856 C854 1.384 . S
C856 C857 1.372 . S
C857 C856 1.372 . S
C857 C858 1.400 . S
C857 C862 1.490 . S
C858 H848 0.930 . S
C858 C857 1.400 . S
C858 C861 1.386 . S
H859 C875 0.930 . S
H860 C876 0.931 . S
C861 H849 0.929 . S
C861 C855 1.390 . S
C861 C858 1.386 . S
C862 C857 1.490 . S
C862 C864 1.395 . S
C862 C865 1.403 . S
H863 C869 0.930 . S
C864 H850 0.930 1_455 S
C864 C862 1.395 . S
C864 C867 1.401 1_455 S
C865 C862 1.403 . S
C865 C866 1.524 . S
C865 C869 1.400 . S
C866 H851 0.960 . S
C866 H852 0.960 . S
C866 H853 0.960 . S
C866 C865 1.524 . S
C867 C864 1.401 1_655 S
C867 C868 1.385 1_655 S
C867 C871 1.505 . S
C868 C867 1.385 1_455 S
C868 C869 1.385 . S
C868 C870 1.478 . S
C869 H863 0.930 . S
C869 C865 1.400 . S
C869 C868 1.385 . S
C870 C868 1.478 . S
C870 C872 1.381 . S
C870 C876 1.383 . S
C871 C867 1.505 . S
C871 H877 0.959 . S
C871 H878 0.961 . S
C871 H879 0.960 . S
C872 C870 1.381 . S
C872 C873 1.394 . S
C872 H880 0.930 1_455 S
C873 C872 1.394 . S
C873 C874 1.383 . S
C873 H881 0.929 1_455 S
C874 C873 1.383 . S
C874 C875 1.377 . S
C875 H859 0.930 . S
C875 C874 1.377 . S
C875 C876 1.379 . S
C876 H860 0.931 . S
C876 C870 1.383 . S
C876 C875 1.379 . S
H877 C871 0.959 . S
H878 C871 0.961 . S
H879 C871 0.960 . S
H880 C872 0.930 1_655 S
H881 C873 0.929 1_655 S
C243 C24 3.062 . S
C262 C226 2.964 . S
C279 C66 1.185 . S
C298 C188 1.156 . S
C315 C93 1.835 . S
C334 C207 1.761 . S
C351 C13 2.952 . S
C370 C221 2.918 . S
C406 C183 1.026 . S
C387 C57 1.013 . S
C442 C202 1.834 . S
C423 C104 1.854 . S
C459 C64 2.067 . S
C478 C150 1.990 . S
C495 C97 0.111 . S
C514 C164 0.192 . S
C531 C17 1.084 . S
C550 C126 1.072 . S
C586 C145 1.636 . S
C567 C53 1.654 . S
C622 C169 0.518 . S
C603 C106 0.242 . S
C639 C26 1.189 . S
C658 C131 1.109 . S
C694 C160 1.387 . S
C675 C2 1.352 . S
C711 C63 1.520 . S
C730 C122 1.520 . S
C747 C82 1.522 . S
C766 C141 1.568 . S
C802 C198 1.518 . S
C783 C42 1.493 . S
C838 C217 1.711 . S
C819 C103 1.726 . S
C855 C23 1.602 . S
C874 C179 1.603 . S
