# Generated by pormake.
# Topology zzz, (3,6)-cn, num edge types: 1
# Building blocks:
#     Node 0, Type 0, BuildingBlock: BETDIP_clean_linker_0, # of connection points: 3
#     Node 1, Type 0, BuildingBlock: BETDIP_clean_linker_0, # of connection points: 3
#     Node 2, Type 0, BuildingBlock: BETDIP_clean_linker_0, # of connection points: 3
#     Node 3, Type 0, BuildingBlock: BETDIP_clean_linker_0, # of connection points: 3
#     Node 4, Type 0, BuildingBlock: BETDIP_clean_linker_0, # of connection points: 3
#     Node 5, Type 0, BuildingBlock: BETDIP_clean_linker_0, # of connection points: 3
#     Node 6, Type 0, BuildingBlock: BETDIP_clean_linker_0, # of connection points: 3
#     Node 7, Type 0, BuildingBlock: BETDIP_clean_linker_0, # of connection points: 3
#     Node 8, Type 1, BuildingBlock: HISSIN_clean_sbu_0, # of connection points: 6
#     Node 9, Type 1, BuildingBlock: HISSIN_clean_sbu_0, # of connection points: 6
#     Node 10, Type 1, BuildingBlock: HISSIN_clean_sbu_0, # of connection points: 6
#     Node 11, Type 1, BuildingBlock: HISSIN_clean_sbu_0, # of connection points: 6
#     Edge 12, Type (0, 1), BuildingBlock: MIFKUJ_clean_linker_0, # of connection points: 2
#     Edge 13, Type (0, 1), BuildingBlock: MIFKUJ_clean_linker_0, # of connection points: 2
#     Edge 14, Type (0, 1), BuildingBlock: MIFKUJ_clean_linker_0, # of connection points: 2
#     Edge 15, Type (0, 1), BuildingBlock: MIFKUJ_clean_linker_0, # of connection points: 2
#     Edge 16, Type (0, 1), BuildingBlock: MIFKUJ_clean_linker_0, # of connection points: 2
#     Edge 17, Type (0, 1), BuildingBlock: MIFKUJ_clean_linker_0, # of connection points: 2
#     Edge 18, Type (0, 1), BuildingBlock: MIFKUJ_clean_linker_0, # of connection points: 2
#     Edge 19, Type (0, 1), BuildingBlock: MIFKUJ_clean_linker_0, # of connection points: 2
#     Edge 20, Type (0, 1), BuildingBlock: MIFKUJ_clean_linker_0, # of connection points: 2
#     Edge 21, Type (0, 1), BuildingBlock: MIFKUJ_clean_linker_0, # of connection points: 2
#     Edge 22, Type (0, 1), BuildingBlock: MIFKUJ_clean_linker_0, # of connection points: 2
#     Edge 23, Type (0, 1), BuildingBlock: MIFKUJ_clean_linker_0, # of connection points: 2
#     Edge 24, Type (0, 1), BuildingBlock: MIFKUJ_clean_linker_0, # of connection points: 2
#     Edge 25, Type (0, 1), BuildingBlock: MIFKUJ_clean_linker_0, # of connection points: 2
#     Edge 26, Type (0, 1), BuildingBlock: MIFKUJ_clean_linker_0, # of connection points: 2
#     Edge 27, Type (0, 1), BuildingBlock: MIFKUJ_clean_linker_0, # of connection points: 2
#     Edge 28, Type (0, 1), BuildingBlock: MIFKUJ_clean_linker_0, # of connection points: 2
#     Edge 29, Type (0, 1), BuildingBlock: MIFKUJ_clean_linker_0, # of connection points: 2
#     Edge 30, Type (0, 1), BuildingBlock: MIFKUJ_clean_linker_0, # of connection points: 2
#     Edge 31, Type (0, 1), BuildingBlock: MIFKUJ_clean_linker_0, # of connection points: 2
#     Edge 32, Type (0, 1), BuildingBlock: MIFKUJ_clean_linker_0, # of connection points: 2
#     Edge 33, Type (0, 1), BuildingBlock: MIFKUJ_clean_linker_0, # of connection points: 2
#     Edge 34, Type (0, 1), BuildingBlock: MIFKUJ_clean_linker_0, # of connection points: 2
#     Edge 35, Type (0, 1), BuildingBlock: MIFKUJ_clean_linker_0, # of connection points: 2
# Relax obj value: 0.220
# Max RMSD: 0.171
# Mean RMSD: 0.092
data_MOF--net-zzz--node1-HISSIN_clean_sbu_0--node2-BETDIP_clean_linker_0--edge1-MIFKUJ_clean_linker_0
_symmetry_space_group_name_H-M    P1
_symmetry_Int_Tables_number       1
_symmetry_cell_setting            triclinic
loop_
_symmetry_equiv_pos_as_xyz
'x, y, z'
_cell_length_a     65.444456
_cell_length_b     65.581524
_cell_length_c     21.028758
_cell_angle_alpha  89.687546
_cell_angle_beta   92.307373
_cell_angle_gamma 90.664082
loop_
_atom_site_label
_atom_site_type_symbol
_atom_site_fract_x
_atom_site_fract_y
_atom_site_fract_z
_atom_type_partial_charge
H0 H 0.75449 0.5457 0.34169 0.0
H1 H 0.73903 0.54601 0.14048 0.0
H2 H 0.802 0.54804 0.20586 0.0
H3 H 0.71403 0.57628 0.2269 0.0
C4 C 0.70947 0.5603 0.2247 0.0
C5 C 0.75919 0.54629 0.29291 0.0
C6 C 0.78023 0.54757 0.27985 0.0
C7 C 0.74425 0.54651 0.24225 0.0
C8 C 0.75044 0.54678 0.17928 0.0
C9 C 0.77117 0.54717 0.16604 0.0
C10 C 0.7859 0.54805 0.21626 0.0
N11 N 0.72296 0.5457 0.25344 0.0
H12 H 0.01394 0.77 0.27965 0.0
H13 H 0.9743 0.76147 0.11237 0.0
H14 H 0.96919 0.81518 0.2252 0.0
H15 H 0.97517 0.72606 0.18063 0.0
C16 C 0.99084 0.7263 0.16527 0.0
C17 C 1.00152 0.77518 0.24824 0.0
C18 C 0.99181 0.79397 0.26041 0.0
C19 C 0.99454 0.76282 0.19604 0.0
C20 C 0.97888 0.77011 0.15448 0.0
C21 C 0.96975 0.78887 0.16512 0.0
C22 C 0.97594 0.80033 0.2185 0.0
N23 N 1.00347 0.74348 0.18325 0.0
H24 H 0.77619 0.01081 0.28845 0.0
H25 H 0.7851 0.98067 0.10993 0.0
H26 H 0.72612 0.97931 0.19103 0.0
H27 H 0.81787 0.97293 0.18653 0.0
C28 C 0.82003 0.98906 0.17631 0.0
C29 C 0.77026 1.00162 0.24914 0.0
C30 C 0.74943 0.99463 0.24796 0.0
C31 C 0.78352 0.99594 0.19968 0.0
C32 C 0.7754 0.98434 0.14876 0.0
C33 C 0.75471 0.97887 0.14427 0.0
C34 C 0.7422 0.98339 0.19485 0.0
N35 N 0.80454 1.00262 0.19738 0.0
H36 H 0.5389 0.77565 0.27878 0.0
H37 H 0.49452 0.79183 0.13033 0.0
H38 H 0.48593 0.73749 0.24074 0.0
H39 H 0.53007 0.79522 0.08504 0.0
C40 C 0.53226 0.80781 0.11821 0.0
C41 C 0.52451 0.77276 0.253 0.0
C42 C 0.51259 0.75525 0.26772 0.0
C43 C 0.51794 0.78617 0.20316 0.0
C44 C 0.49954 0.78183 0.16892 0.0
C45 C 0.48805 0.76426 0.18155 0.0
C46 C 0.49437 0.75149 0.23212 0.0
N47 N 0.53003 0.80338 0.18437 0.0
H48 H 0.28519 0.51234 0.94749 0.0
H49 H 0.28886 0.4928 0.14374 0.0
H50 H 0.23331 0.48367 0.03166 0.0
H51 H 0.30551 0.53324 0.12331 0.0
C52 C 0.3166 0.5227 0.10539 0.0
C53 C 0.27833 0.50489 0.98759 0.0
C54 C 0.25782 0.49779 0.98219 0.0
C55 C 0.2897 0.50283 0.04603 0.0
C56 C 0.28037 0.49396 0.09856 0.0
C57 C 0.26016 0.4868 0.09348 0.0
C58 C 0.24925 0.4884 0.03498 0.0
N59 N 0.31033 0.50994 0.05325 0.0
H60 H 0.02643 0.27894 0.01 0.0
H61 H 0.06018 0.2891 0.18765 0.0
H62 H 0.06834 0.23375 0.08476 0.0
H63 H 0.02096 0.29614 0.2022 0.0
C64 C 0.02454 0.3093 0.17274 0.0
C65 C 0.03784 0.27414 0.04551 0.0
C66 C 0.04773 0.25507 0.03912 0.0
C67 C 0.0424 0.2866 0.09962 0.0
C68 C 0.0568 0.27983 0.14593 0.0
C69 C 0.06599 0.2608 0.14136 0.0
C70 C 0.0618 0.24884 0.08726 0.0
N71 N 0.0319 0.30525 0.11077 0.0
H72 H 0.27434 0.03084 0.05042 0.0
H73 H 0.26931 0.01803 0.25055 0.0
H74 H 0.32837 0.02033 0.17067 0.0
H75 H 0.24066 0.99921 0.20352 0.0
C76 C 0.23428 0.01358 0.18658 0.0
C77 C 0.28147 0.02741 0.09653 0.0
C78 C 0.3033 0.02597 0.10325 0.0
C79 C 0.26897 0.0244 0.15029 0.0
C80 C 0.27857 0.02023 0.20953 0.0
C81 C 0.29979 0.01879 0.2172 0.0
C82 C 0.31192 0.02158 0.16423 0.0
N83 N 0.24696 0.02605 0.14696 0.0
H84 H 0.51463 0.26719 0.01624 0.0
H85 H 0.54601 0.26055 0.19961 0.0
H86 H 0.54338 0.31915 0.10902 0.0
H87 H 0.55578 0.22959 0.13684 0.0
C88 C 0.53963 0.22545 0.13682 0.0
C89 C 0.52348 0.27373 0.05585 0.0
C90 C 0.52819 0.29492 0.0563 0.0
C91 C 0.53028 0.26105 0.10734 0.0
C92 C 0.54146 0.26987 0.15888 0.0
C93 C 0.54594 0.29076 0.16002 0.0
C94 C 0.5395 0.30302 0.10852 0.0
N95 N 0.52537 0.23971 0.10936 0.0
Eu96 Eu 1.00826 0.03049 0.60974 0.0
Eu97 Eu 0.0366 0.0115 0.72155 0.0
C98 C 0.0303 0.06091 0.71269 0.0
C99 C 0.993 0.06868 0.49055 0.0
C100 C 0.99189 0.08654 0.52717 0.0
C101 C 0.01433 0.08695 0.41701 0.0
C102 C 1.00275 0.10407 0.51055 0.0
C103 C 1.00341 0.06944 0.43346 0.0
C104 C 0.01484 0.10406 0.45701 0.0
C105 C 0.98763 0.04867 0.51834 0.0
O106 O 1.00368 1.00291 0.74369 0.0
O107 O 0.98818 0.0299 0.69571 0.0
C108 C 0.98805 0.01528 0.7385 0.0
O109 O 1.00194 0.99631 0.60344 0.0
O110 O 0.0437 0.01 0.82382 0.0
O111 O 0.05814 0.98905 0.76117 0.0
O112 O 0.03295 0.9869 0.64627 0.0
C113 C 0.01628 0.98255 0.61193 0.0
O114 O 0.03974 0.02695 0.56719 0.0
O115 O 0.06098 0.02339 0.65595 0.0
O116 O 0.03454 0.04495 0.74889 0.0
O117 O 1.00046 0.03407 0.50833 0.0
O118 O 0.98221 0.04883 0.57729 0.0
O119 O 0.02342 0.05861 0.65355 0.0
C120 C 0.04176 0.97562 0.8504 0.0
C121 C 0.02946 0.96232 0.81268 0.0
C122 C 0.02496 0.96305 0.94416 0.0
C123 C 0.01473 0.95 0.84002 0.0
C124 C 0.03969 0.9756 0.91657 0.0
C125 C 0.0119 0.95065 0.90572 0.0
C126 C 0.0526 0.99244 0.8191 0.0
C127 C 0.05834 0.02601 0.59386 0.0
H128 H 0.98392 0.08658 0.57133 0.0
H129 H 0.02316 0.08679 0.37451 0.0
H130 H 1.0028 0.11711 0.54197 0.0
H131 H 1.00441 0.056 0.40407 0.0
H132 H 0.03037 0.96224 0.76135 0.0
H133 H 0.02321 0.96369 0.99507 0.0
H134 H 1.00524 0.94024 0.80938 0.0
H135 H 0.04866 0.98606 0.94637 0.0
Eu136 Eu 0.53056 0.03907 0.69586 0.0
Eu137 Eu 0.51193 1.00503 0.59891 0.0
C138 C 0.52915 0.99175 0.73872 0.0
C139 C 0.57056 0.07187 0.76938 0.0
C140 C 0.58029 0.0724 0.8299 0.0
C141 C 0.60314 0.06556 0.72237 0.0
C142 C 0.60114 0.06827 0.83685 0.0
C143 C 0.58241 0.06992 0.71537 0.0
C144 C 0.61227 0.0634 0.78332 0.0
C145 C 0.54848 0.06768 0.76371 0.0
O146 O 0.48394 0.01597 0.65171 0.0
O147 O 0.49921 0.03337 0.73572 0.0
C148 C 0.48283 0.02501 0.70759 0.0
O149 O 0.51176 0.05555 0.61937 0.0
O150 O 0.51147 0.97382 0.56352 0.0
O151 O 0.49015 0.99589 0.52296 0.0
O152 O 0.51664 0.03343 0.53904 0.0
C153 C 0.51309 0.052 0.55836 0.0
O154 O 0.55671 0.03339 0.62908 0.0
O155 O 0.54616 1.00354 0.58135 0.0
O156 O 0.51503 0.9891 0.69361 0.0
O157 O 0.53981 0.07095 0.70783 0.0
O158 O 0.54291 0.05017 0.78749 0.0
O159 O 0.53982 0.00888 0.74258 0.0
C160 C 0.47713 0.96364 0.54637 0.0
C161 C 0.4624 0.95821 0.49936 0.0
C162 C 0.4536 0.95398 0.62813 0.0
C163 C 0.44299 0.95171 0.51662 0.0
C164 C 0.47299 0.96045 0.61081 0.0
C165 C 0.43804 0.95076 0.58124 0.0
C166 C 0.49455 0.9766 0.52969 0.0
C167 C 0.56034 0.0177 0.59237 0.0
H168 H 0.57143 0.07382 0.87205 0.0
H169 H 0.61155 0.06198 0.68059 0.0
H170 H 0.60793 0.06659 0.88442 0.0
H171 H 0.57532 0.06964 0.66795 0.0
H172 H 0.46527 0.96073 0.44952 0.0
H173 H 0.45029 0.95323 0.67817 0.0
H174 H 0.43133 0.94958 0.47915 0.0
H175 H 0.48414 0.96463 0.64803 0.0
Eu176 Eu 0.50207 0.52818 0.69076 0.0
Eu177 Eu 0.53768 0.51406 0.59831 0.0
C178 C 0.54845 0.52795 0.74162 0.0
C179 C 0.46458 0.55847 0.78644 0.0
C180 C 0.47129 0.57731 0.7628 0.0
C181 C 0.44376 0.57596 0.86119 0.0
C182 C 0.46434 0.59542 0.78849 0.0
C183 C 0.45065 0.55786 0.83524 0.0
C184 C 0.45068 0.59491 0.83845 0.0
C185 C 0.47215 0.53939 0.76099 0.0
O186 O 0.52478 0.48421 0.6363 0.0
O187 O 0.50967 0.49626 0.72485 0.0
C188 C 0.51672 0.48105 0.69197 0.0
O189 O 0.48723 0.51047 0.60876 0.0
O190 O 0.56997 0.51416 0.57558 0.0
O191 O 0.54774 0.49758 0.51598 0.0
O192 O 0.50963 0.52029 0.53479 0.0
C193 C 0.49121 0.51421 0.54917 0.0
O194 O 0.50764 0.5564 0.63046 0.0
O195 O 0.53854 0.54856 0.58902 0.0
O196 O 0.55109 0.5138 0.69901 0.0
O197 O 0.47052 0.5375 0.69935 0.0
O198 O 0.48981 0.53329 0.78437 0.0
O199 O 0.53194 0.5392 0.73828 0.0
C200 C 0.5799 0.48281 0.53341 0.0
C201 C 0.57415 0.46608 0.57079 0.0
C202 C 0.60756 0.46307 0.4929 0.0
C203 C 0.58443 0.44763 0.56692 0.0
C204 C 0.5971 0.48147 0.4963 0.0
C205 C 0.60075 0.44567 0.5259 0.0
C206 C 0.5671 0.50102 0.52967 0.0
C207 C 0.52386 0.56164 0.59873 0.0
H208 H 0.48212 0.578 0.72516 0.0
H209 H 0.43318 0.57515 0.89944 0.0
H210 H 0.47021 0.60979 0.77076 0.0
H211 H 0.4453 0.54339 0.85375 0.0
H212 H 0.56103 0.46697 0.60038 0.0
H213 H 0.62032 0.46217 0.46182 0.0
H214 H 0.57859 0.43458 0.59258 0.0
H215 H 0.60189 0.49436 0.46786 0.0
Eu216 Eu 0.02649 0.54115 0.58658 0.0
Eu217 Eu 0.01182 0.5106 0.69694 0.0
C218 C 0.06001 0.51923 0.68072 0.0
C219 C 0.05463 0.55627 0.44642 0.0
C220 C 0.0533 0.53626 0.42296 0.0
C221 C 0.08856 0.5596 0.40507 0.0
C222 C 0.06972 0.52772 0.39312 0.0
C223 C 0.07209 0.56812 0.43534 0.0
C224 C 0.08782 0.53905 0.38596 0.0
C225 C 0.04013 0.56289 0.4934 0.0
O226 O 1.00443 0.54243 0.73172 0.0
O227 O 0.02731 0.56083 0.67486 0.0
C228 C 0.01518 0.55923 0.72298 0.0
O229 O 0.9925 0.54679 0.59138 0.0
O230 O 1.00817 0.50309 0.79714 0.0
O231 O 0.99641 0.48244 0.72445 0.0
O232 O 0.98413 0.51547 0.63052 0.0
C233 C 0.97882 0.53241 0.60107 0.0
O234 O 0.02125 0.51045 0.53827 0.0
O235 O 0.02509 0.48942 0.62478 0.0
O236 O 0.04555 0.51541 0.72092 0.0
O237 O 0.02223 0.55388 0.4909 0.0
O238 O 0.04786 0.56394 0.55142 0.0
O239 O 0.05545 0.52532 0.62218 0.0
C240 C 0.97534 0.48955 0.80751 0.0
C241 C 0.96338 0.50591 0.78547 0.0
C242 C 0.94691 0.47695 0.86749 0.0
C243 C 0.9434 0.50784 0.80417 0.0
C244 C 0.96707 0.47499 0.84844 0.0
C245 C 0.93496 0.49348 0.84565 0.0
C246 C 0.99595 0.48769 0.78401 0.0
C247 C 0.02401 0.49212 0.56272 0.0
H248 H 0.0401 0.5267 0.43147 0.0
H249 H 0.10219 0.56881 0.39906 0.0
H250 H 0.06867 0.51182 0.37958 0.0
H251 H 0.07349 0.58352 0.45358 0.0
H252 H 0.96946 0.51715 0.75312 0.0
H253 H 0.94076 0.46571 0.89968 0.0
H254 H 0.93446 0.52048 0.78547 0.0
H255 H 0.97611 0.46218 0.86531 0.0
H256 H 0.23414 0.01885 0.31436 0.0
H257 H 0.20486 0.02339 0.38135 0.0
H258 H 0.16495 0.02693 0.21354 0.0
H259 H 0.19467 0.02327 0.14628 0.0
H260 H 0.14993 0.05066 0.2969 0.0
H261 H 0.17167 0.98153 0.31265 0.0
H262 H 0.19579 0.95334 0.33184 0.0
H263 H 0.20685 0.97318 0.52454 0.0
H264 H 0.18298 1.00166 0.50626 0.0
H265 H 0.05862 0.0281 0.4627 0.0
H266 H 0.08771 0.02793 0.39359 0.0
H267 H 0.12904 0.02599 0.55824 0.0
H268 H 0.09982 0.02554 0.62783 0.0
H269 H 0.14292 1.00143 0.4747 0.0
H270 H 0.11989 0.07079 0.45579 0.0
H271 H 0.09459 0.09765 0.43405 0.0
H272 H 0.08459 0.0758 0.243 0.0
H273 H 0.1097 0.04855 0.26403 0.0
C274 C 0.21921 0.02123 0.2916 0.0
C275 C 0.21694 0.02115 0.22471 0.0
C276 C 0.20227 0.02346 0.33018 0.0
C277 C 0.18222 0.02493 0.30344 0.0
C278 C 0.18003 0.02574 0.23626 0.0
C279 C 0.19713 0.02382 0.19748 0.0
C280 C 0.16375 0.02502 0.34543 0.0
C281 C 0.14837 0.03967 0.33518 0.0
C282 C 0.16138 0.01098 0.39663 0.0
C283 C 0.17569 0.99384 0.40788 0.0
C284 C 0.17935 0.97996 0.35899 0.0
C285 C 0.19296 0.96392 0.36972 0.0
C286 C 0.20289 0.9615 0.42932 0.0
C287 C 0.19917 0.97509 0.47837 0.0
C288 C 0.18559 0.99118 0.46787 0.0
C289 C 0.07387 0.02777 0.48463 0.0
C290 C 0.07659 0.02695 0.5516 0.0
C291 C 0.09068 0.0278 0.4446 0.0
C292 C 0.11099 0.02731 0.46975 0.0
C293 C 0.11374 0.02644 0.5367 0.0
C294 C 0.09689 0.02628 0.57683 0.0
C295 C 0.1292 0.02721 0.42669 0.0
C296 C 0.14451 0.01247 0.43659 0.0
C297 C 0.13136 0.041 0.37476 0.0
C298 C 0.11651 0.05752 0.36172 0.0
C299 C 0.11221 0.07164 0.40926 0.0
C300 C 0.09791 0.08695 0.397 0.0
C301 C 0.08791 0.0884 0.33716 0.0
C302 C 0.09231 0.07462 0.28934 0.0
C303 C 0.10659 0.05925 0.3014 0.0
H304 H 0.07674 0.10017 0.32774 0.0
H305 H 0.21343 0.94908 0.43753 0.0
H306 H 0.50126 0.20757 0.15461 0.0
H307 H 0.49376 0.17735 0.22026 0.0
H308 H 0.55797 0.17219 0.27203 0.0
H309 H 0.56543 0.20155 0.20525 0.0
H310 H 0.54501 0.13655 0.25458 0.0
H311 H 0.52007 0.19281 0.37324 0.0
H312 H 0.49919 0.2231 0.39203 0.0
H313 H 0.44432 0.18757 0.35876 0.0
H314 H 0.46489 0.15711 0.339 0.0
H315 H 0.51326 0.09304 0.58346 0.0
H316 H 0.51489 0.12141 0.50795 0.0
H317 H 0.51169 0.07896 0.35186 0.0
H318 H 0.51079 0.05046 0.4274 0.0
H319 H 0.49259 0.13765 0.41823 0.0
H320 H 0.53854 0.09638 0.2286 0.0
H321 H 0.56305 0.0682 0.22236 0.0
H322 H 0.58237 0.07767 0.41762 0.0
H323 H 0.5582 0.10609 0.42473 0.0
C324 C 0.51373 0.19986 0.17977 0.0
C325 C 0.53396 0.20697 0.17459 0.0
C326 C 0.50944 0.18263 0.21775 0.0
C327 C 0.52526 0.17236 0.25213 0.0
C328 C 0.54541 0.17952 0.24615 0.0
C329 C 0.54967 0.19646 0.20795 0.0
C330 C 0.52123 0.1543 0.29475 0.0
C331 C 0.53341 0.13684 0.28998 0.0
C332 C 0.50641 0.15448 0.34222 0.0
C333 C 0.49401 0.17276 0.35389 0.0
C334 C 0.50355 0.1915 0.36944 0.0
C335 C 0.49178 0.20869 0.38035 0.0
C336 C 0.47044 0.20727 0.37638 0.0
C337 C 0.46084 0.18865 0.36166 0.0
C338 C 0.47255 0.17142 0.35063 0.0
C339 C 0.51275 0.08969 0.53304 0.0
C340 C 0.51202 0.06935 0.51179 0.0
C341 C 0.51363 0.10602 0.48968 0.0
C342 C 0.51375 0.10252 0.42373 0.0
C343 C 0.51211 0.08222 0.40232 0.0
C344 C 0.51147 0.06586 0.44571 0.0
C345 C 0.51641 0.12002 0.37801 0.0
C346 C 0.50399 0.13732 0.38223 0.0
C347 C 0.53152 0.12002 0.33147 0.0
C348 C 0.54639 0.1032 0.32733 0.0
C349 C 0.54808 0.0925 0.27009 0.0
C350 C 0.56191 0.07648 0.26643 0.0
C351 C 0.57421 0.07111 0.31962 0.0
C352 C 0.57278 0.08181 0.37652 0.0
C353 C 0.55902 0.09786 0.38039 0.0
H354 H 0.58489 0.05871 0.31669 0.0
H355 H 0.46135 0.22059 0.38487 0.0
H356 H 0.34471 0.49132 0.10515 0.0
H357 H 0.37524 0.48757 0.17635 0.0
H358 H 0.36413 0.54655 0.2571 0.0
H359 H 0.33341 0.5499 0.18826 0.0
H360 H 0.41052 0.50575 0.19954 0.0
H361 H 0.37624 0.54842 0.41174 0.0
H362 H 0.34249 0.55437 0.456 0.0
H363 H 0.31899 0.49955 0.36789 0.0
H364 H 0.35266 0.49312 0.32388 0.0
H365 H 0.49007 0.53061 0.42862 0.0
H366 H 0.46168 0.52987 0.34936 0.0
H367 H 0.42636 0.49269 0.47555 0.0
H368 H 0.45435 0.49422 0.55593 0.0
H369 H 0.40257 0.51863 0.42937 0.0
H370 H 0.449 0.47439 0.33196 0.0
H371 H 0.48171 0.46339 0.28993 0.0
H372 H 0.4794 0.5123 0.15334 0.0
H373 H 0.44678 0.52376 0.1951 0.0
C374 C 0.34895 0.50355 0.13767 0.0
C375 C 0.3366 0.52089 0.14133 0.0
C376 C 0.36641 0.5014 0.17847 0.0
C377 C 0.37188 0.51657 0.22348 0.0
C378 C 0.36007 0.53433 0.22437 0.0
C379 C 0.34256 0.53632 0.18452 0.0
C380 C 0.38941 0.51375 0.27095 0.0
C381 C 0.40877 0.50855 0.24979 0.0
C382 C 0.38719 0.51679 0.33708 0.0
C383 C 0.36694 0.52041 0.36403 0.0
C384 C 0.3639 0.53759 0.40205 0.0
C385 C 0.34477 0.54106 0.42705 0.0
C386 C 0.32859 0.52738 0.4146 0.0
C387 C 0.33152 0.51017 0.37732 0.0
C388 C 0.35061 0.50662 0.35229 0.0
C389 C 0.47632 0.52211 0.43927 0.0
C390 C 0.47456 0.51245 0.49878 0.0
C391 C 0.46006 0.5216 0.39359 0.0
C392 C 0.44175 0.511 0.40553 0.0
C393 C 0.44017 0.50106 0.46469 0.0
C394 C 0.45627 0.50187 0.51075 0.0
C395 C 0.42392 0.51105 0.35804 0.0
C396 C 0.40443 0.51576 0.3792 0.0
C397 C 0.42593 0.50688 0.29236 0.0
C398 C 0.44553 0.50004 0.26706 0.0
C399 C 0.45554 0.48289 0.29326 0.0
C400 C 0.47405 0.47655 0.26943 0.0
C401 C 0.48265 0.48717 0.2191 0.0
C402 C 0.47273 0.50411 0.19238 0.0
C403 C 0.45421 0.51052 0.21606 0.0
H404 H 0.49698 0.48224 0.20072 0.0
H405 H 0.31379 0.5301 0.43395 0.0
H406 H 0.01779 0.31612 0.29581 0.0
H407 H 0.01832 0.34798 0.35439 0.0
H408 H 0.03217 0.38097 0.18319 0.0
H409 H 0.03235 0.34848 0.12411 0.0
H410 H 0.05358 0.39732 0.28115 0.0
H411 H 0.983 0.38103 0.24725 0.0
H412 H 0.95171 0.35971 0.24596 0.0
H413 H 0.95793 0.35216 0.44874 0.0
H414 H 0.98943 0.37321 0.45117 0.0
H415 H 0.02789 0.49185 0.43262 0.0
H416 H 0.02861 0.46247 0.36148 0.0
H417 H 0.02285 0.42193 0.52184 0.0
H418 H 0.02239 0.45126 0.59348 0.0
H419 H 0.99619 0.41151 0.42099 0.0
H420 H 0.06813 0.42672 0.45159 0.0
H421 H 0.09849 0.44938 0.45152 0.0
H422 H 0.08808 0.46073 0.25165 0.0
H423 H 0.05752 0.43825 0.25061 0.0
C424 C 0.0209 0.33014 0.27025 0.0
C425 C 0.02482 0.32967 0.20497 0.0
C426 C 0.02109 0.34848 0.30397 0.0
C427 C 0.02479 0.36721 0.27347 0.0
C428 C 0.02911 0.36685 0.20816 0.0
C429 C 0.02912 0.34827 0.1742 0.0
C430 C 0.0241 0.38682 0.31069 0.0
C431 C 0.04082 0.40054 0.31072 0.0
C432 C 1.00766 0.39121 0.35047 0.0
C433 C 0.98867 0.37858 0.3493 0.0
C434 C 0.97777 0.37471 0.29152 0.0
C435 C 0.95999 0.36269 0.2906 0.0
C436 C 0.95286 0.35455 0.34722 0.0
C437 C 0.96348 0.35846 0.40491 0.0
C438 C 0.98129 0.37046 0.4061 0.0
C439 C 0.02695 0.47672 0.45306 0.0
C440 C 0.02518 0.47409 0.51924 0.0
C441 C 0.02738 0.45985 0.41209 0.0
C442 C 0.02588 0.43982 0.43594 0.0
C443 C 0.02405 0.43715 0.50193 0.0
C444 C 0.02387 0.454 0.54304 0.0
C445 C 0.02577 0.4217 0.39224 0.0
C446 C 1.00886 0.4083 0.39101 0.0
C447 C 0.04189 0.41778 0.351 0.0
C448 C 0.06045 0.43095 0.35115 0.0
C449 C 0.07226 0.43413 0.40769 0.0
C450 C 0.0895 0.44691 0.40784 0.0
C451 C 0.09515 0.4565 0.35165 0.0
C452 C 0.08365 0.45328 0.29511 0.0
C453 C 0.06639 0.44049 0.29469 0.0
H454 H 0.10847 0.46637 0.35193 0.0
H455 H 0.93909 0.34524 0.3464 0.0
H456 H 0.82937 0.0256 0.11173 0.0
H457 H 0.85756 0.03157 0.03896 0.0
H458 H 0.87848 0.97024 0.07328 0.0
H459 H 0.8508 0.96446 0.14564 0.0
H460 H 0.91063 0.99307 0.06914 0.0
H461 H 0.85042 0.98608 0.93277 0.0
H462 H 0.81572 0.99431 0.89105 0.0
H463 H 0.83576 0.05499 0.84484 0.0
H464 H 0.87054 0.0472 0.88715 0.0
H465 H 0.9781 0.98257 0.81503 0.0
H466 H 0.94965 0.97902 0.88633 0.0
H467 H 0.92966 0.03957 0.83525 0.0
H468 H 0.95744 0.04264 0.76098 0.0
H469 H 0.89726 0.01858 0.84924 0.0
H470 H 0.95712 0.02584 0.99236 0.0
H471 H 0.99196 0.01687 0.03158 0.0
H472 H 0.97248 0.95492 0.06066 0.0
H473 H 0.93755 0.96353 0.02097 0.0
C474 C 0.84012 0.0135 0.10423 0.0
C475 C 0.83773 0.99454 0.13509 0.0
C476 C 0.85623 0.01683 0.06197 0.0
C477 C 0.87036 1.0013 0.04926 0.0
C478 C 0.86809 0.98261 0.08149 0.0
C479 C 0.8521 0.9793 0.12316 0.0
C480 C 0.88736 1.00404 1.00244 0.0
C481 C 0.90753 0.99855 0.02099 0.0
C482 C 0.88388 0.0114 0.93923 0.0
C483 C 0.86301 0.01613 0.91383 0.0
C484 C 0.84738 1.00123 0.9142 0.0
C485 C 0.82771 1.00581 0.89037 0.0
C486 C 0.82352 0.02518 0.8655 0.0
C487 C 0.83902 0.04 0.86426 0.0
C488 C 0.85871 0.03552 0.88814 0.0
C489 C 0.96763 0.99513 0.81871 0.0
C490 C 0.9703 0.01293 0.7819 0.0
C491 C 0.95134 0.99319 0.86042 0.0
C492 C 0.93745 0.00924 0.86858 0.0
C493 C 0.93995 0.02689 0.8309 0.0
C494 C 0.956 0.02866 0.78821 0.0
C495 C 0.9205 1.0077 0.91608 0.0
C496 C 0.90037 0.01333 0.89761 0.0
C497 C 0.92395 1.00043 0.97937 0.0
C498 C 0.94475 0.99533 1.0043 0.0
C499 C 0.96028 0.01032 0.00731 0.0
C500 C 0.98003 1.0053 0.02945 0.0
C501 C 0.98438 0.98535 0.04886 0.0
C502 C 0.96902 0.97037 0.04597 0.0
C503 C 0.94925 0.97532 0.02392 0.0
H504 H 0.99965 0.9815 0.0662 0.0
H505 H 0.80828 0.02869 0.84704 0.0
H506 H 0.52889 0.81721 0.99404 0.0
H507 H 0.53105 0.85027 0.94181 0.0
H508 H 0.54219 0.87919 0.12383 0.0
H509 H 0.53924 0.84565 0.17715 0.0
H510 H 0.51753 0.90261 0.05061 0.0
H511 H 0.58161 0.87196 0.01734 0.0
H512 H 0.60539 0.84493 0.98857 0.0
H513 H 0.57959 0.8446 0.79757 0.0
H514 H 0.55546 0.87142 0.82539 0.0
H515 H 0.54507 0.99301 0.86308 0.0
H516 H 0.54833 0.96429 0.9391 0.0
H517 H 0.52448 0.92315 0.79453 0.0
H518 H 0.52077 0.9515 0.71962 0.0
H519 H 0.56041 0.90894 0.86208 0.0
H520 H 0.49401 0.93731 0.9019 0.0
H521 H 0.47097 0.96487 0.93161 0.0
H522 H 0.50315 0.9705 0.1128 0.0
H523 H 0.5266 0.94317 0.08371 0.0
C524 C 0.53187 0.83057 0.02324 0.0
C525 C 0.53409 0.82869 0.08979 0.0
C526 C 0.53322 0.84956 0.99311 0.0
C527 C 0.53732 0.86741 0.02827 0.0
C528 C 0.5392 0.86572 0.09524 0.0
C529 C 0.53759 0.84653 0.12578 0.0
C530 C 0.53947 0.8875 0.99397 0.0
C531 C 0.52728 0.90409 0.0103 0.0
C532 C 0.55205 0.88969 0.94076 0.0
C533 C 0.56665 0.87365 0.9236 0.0
C534 C 0.58093 0.86605 0.9693 0.0
C535 C 0.59448 0.85077 0.95314 0.0
C536 C 0.59398 0.84304 0.89131 0.0
C537 C 0.57996 0.8506 0.84545 0.0
C538 C 0.56637 0.86587 0.86136 0.0
C539 C 0.54064 0.97782 0.84753 0.0
C540 C 0.53264 0.97463 0.78512 0.0
C541 C 0.54242 0.96142 0.8911 0.0
C542 C 0.53659 0.94148 0.87272 0.0
C543 C 0.52908 0.93831 0.81007 0.0
C544 C 0.52694 0.95463 0.7672 0.0
C545 C 0.53813 0.9237 0.91778 0.0
C546 C 0.551 0.90755 0.90322 0.0
C547 C 0.52637 0.92205 0.97277 0.0
C548 C 0.51222 0.93839 0.99032 0.0
C549 C 0.4963 0.94456 0.94782 0.0
C550 C 0.48314 0.96011 0.96459 0.0
C551 C 0.48563 0.96947 0.02397 0.0
C552 C 0.50126 0.96326 0.06677 0.0
C553 C 0.51449 0.94774 0.05017 0.0
H554 H 0.47542 0.9815 0.03688 0.0
H555 H 0.60448 0.8312 0.87891 0.0
H556 H 0.69879 0.52289 0.17158 0.0
H557 H 0.67048 0.51576 0.09398 0.0
H558 H 0.65116 0.57821 0.10564 0.0
H559 H 0.67945 0.5854 0.18225 0.0
H560 H 0.61821 0.55051 0.10425 0.0
H561 H 0.67884 0.5642 0.98589 0.0
H562 H 0.71457 0.55826 0.95854 0.0
H563 H 0.69912 0.49671 0.90526 0.0
H564 H 0.66334 0.50218 0.93335 0.0
H565 H 0.55348 0.5599 0.82574 0.0
H566 H 0.5799 0.5641 0.9107 0.0
H567 H 0.60499 0.50577 0.86385 0.0
H568 H 0.57922 0.50193 0.77757 0.0
H569 H 0.63499 0.52972 0.88622 0.0
H570 H 0.57504 0.51474 1.00065 0.0
H571 H 0.53947 0.51855 0.03285 0.0
H572 H 0.55317 0.57934 0.0977 0.0
H573 H 0.58878 0.576 0.06513 0.0
C574 C 0.68831 0.53499 0.15828 0.0
C575 C 0.69129 0.55471 0.18319 0.0
C576 C 0.6722 0.53094 0.11365 0.0
C577 C 0.65869 0.54648 0.09354 0.0
C578 C 0.66128 0.56594 0.12031 0.0
C579 C 0.67748 0.57004 0.16409 0.0
C580 C 0.64241 0.54291 0.04266 0.0
C581 C 0.62187 0.54612 0.05641 0.0
C582 C 0.64707 0.53669 0.98055 0.0
C583 C 0.66846 0.53353 0.96237 0.0
C584 C 0.68309 0.54935 0.96875 0.0
C585 C 0.70335 0.54608 0.95309 0.0
C586 C 0.70913 0.5271 0.93037 0.0
C587 C 0.69463 0.51139 0.92299 0.0
C588 C 0.67436 0.51457 0.93875 0.0
C589 C 0.5646 0.54796 0.83365 0.0
C590 C 0.56414 0.53058 0.79465 0.0
C591 C 0.57969 0.5503 0.88265 0.0
C592 C 0.59444 0.53512 0.8949 0.0
C593 C 0.59393 0.51778 0.85582 0.0
C594 C 0.57907 0.51557 0.80636 0.0
C595 C 0.61057 0.53735 0.94746 0.0
C596 C 0.63117 0.53396 0.93404 0.0
C597 C 0.60591 0.54311 0.0102 0.0
C598 C 0.58452 0.54519 0.02986 0.0
C599 C 0.57043 0.52898 0.02135 0.0
C600 C 0.55027 0.53104 0.03973 0.0
C601 C 0.54405 0.5492 0.06715 0.0
C602 C 0.558 0.5653 0.07638 0.0
C603 C 0.57818 0.56332 0.05801 0.0
H604 H 0.52844 0.55076 0.08136 0.0
H605 H 0.72482 0.52459 0.91836 0.0
H606 H 0.02372 0.72367 0.0852 0.0
H607 H 0.03065 0.69571 0.01122 0.0
H608 H 0.9787 0.66217 0.07857 0.0
H609 H 0.9717 0.68992 0.1513 0.0
H610 H 0.01118 0.63697 0.06451 0.0
H611 H 0.97552 0.6887 0.93964 0.0
H612 H 0.97083 0.72324 0.89479 0.0
H613 H 0.02795 0.71901 0.80242 0.0
H614 H 0.03311 0.68454 0.84749 0.0
H615 H 0.99016 0.56307 0.82471 0.0
H616 H 0.98859 0.59134 0.89975 0.0
H617 H 0.03591 0.62328 0.8012 0.0
H618 H 0.0372 0.59528 0.72515 0.0
H619 H 1.0091 0.64985 0.83177 0.0
H620 H 0.04487 0.59839 0.94953 0.0
H621 H 0.05129 0.56421 0.99492 0.0
H622 H 0.99691 0.5681 0.10167 0.0
H623 H 0.99002 0.60222 0.05627 0.0
C624 C 0.01399 0.7102 0.08474 0.0
C625 C 0.9972 0.70901 0.12445 0.0
C626 C 0.01785 0.69425 0.04208 0.0
C627 C 1.00512 0.67672 0.03868 0.0
C628 C 0.98881 0.67537 0.07995 0.0
C629 C 0.98482 0.69132 0.12165 0.0
C630 C 1.00814 0.65994 0.99142 0.0
C631 C 0.01057 0.6398 0.0136 0.0
C632 C 1.00794 0.66348 0.9248 0.0
C633 C 1.00481 0.68415 0.89754 0.0
C634 C 0.98716 0.69521 0.9102 0.0
C635 C 0.9844 0.71476 0.88466 0.0
C636 C 0.99911 0.72334 0.84594 0.0
C637 C 0.01659 0.71236 0.83253 0.0
C638 C 0.01943 0.69282 0.85803 0.0
C639 C 1.00024 0.5761 0.8188 0.0
C640 C 0.01385 0.57671 0.76855 0.0
C641 C 0.99943 0.5923 0.86224 0.0
C642 C 0.01237 0.60954 0.85737 0.0
C643 C 0.02574 0.61029 0.80661 0.0
C644 C 0.02649 0.59415 0.76299 0.0
C645 C 0.01188 0.62674 0.90475 0.0
C646 C 1.0099 0.64696 0.88264 0.0
C647 C 0.01276 0.6233 0.97155 0.0
C648 C 0.01683 0.60279 0.99902 0.0
C649 C 0.0342 0.5919 0.98232 0.0
C650 C 0.03794 0.57254 0.00811 0.0
C651 C 0.02449 0.56397 0.05102 0.0
C652 C 1.0073 0.57475 0.06836 0.0
C653 C 1.00348 0.59411 0.04266 0.0
H654 H 0.02741 0.54898 0.07095 0.0
H655 H 0.99695 0.73847 0.8262 0.0
H656 H 0.05352 0.26161 0.2626 0.0
H657 H 0.06227 0.23726 0.34506 0.0
H658 H 0.11049 0.21394 0.23245 0.0
H659 H 0.10121 0.23829 0.14781 0.0
H660 H 0.08446 0.18633 0.24525 0.0
H661 H 0.11843 0.22646 0.39833 0.0
H662 H 0.12761 0.25611 0.46542 0.0
H663 H 0.07031 0.25087 0.55695 0.0
H664 H 0.06057 0.22142 0.48978 0.0
H665 H 0.0549 0.10155 0.42977 0.0
H666 H 0.07822 0.12961 0.40298 0.0
H667 H 0.03067 0.17289 0.434 0.0
H668 H 1.00726 0.14498 0.46083 0.0
H669 H 0.0711 0.18627 0.47563 0.0
H670 H 0.03521 0.15403 0.29211 0.0
H671 H 0.0263 0.12518 0.22123 0.0
H672 H 0.0898 0.11688 0.18558 0.0
H673 H 0.09912 0.14543 0.25751 0.0
C674 C 0.06669 0.25206 0.25644 0.0
C675 C 0.07637 0.25151 0.19808 0.0
C676 C 0.07185 0.23811 0.3043 0.0
C677 C 0.08695 0.2235 0.29501 0.0
C678 C 0.09864 0.22493 0.24047 0.0
C679 C 0.09328 0.23876 0.19201 0.0
C680 C 0.086 0.20412 0.33158 0.0
C681 C 0.08244 0.18623 0.29621 0.0
C682 C 0.08312 0.20381 0.39799 0.0
C683 C 0.08877 0.22163 0.4388 0.0
C684 C 0.1077 0.23168 0.43245 0.0
C685 C 0.11302 0.24846 0.47058 0.0
C686 C 0.09956 0.25536 0.51544 0.0
C687 C 0.08075 0.24548 0.52227 0.0
C688 C 0.07534 0.22869 0.48426 0.0
C689 C 0.04947 0.11708 0.43083 0.0
C690 C 0.02915 0.12114 0.44544 0.0
C691 C 0.06283 0.13298 0.41636 0.0
C692 C 0.05604 0.15312 0.41583 0.0
C693 C 0.03616 0.15736 0.43425 0.0
C694 C 0.02278 0.14145 0.44907 0.0
C695 C 0.06855 0.16947 0.38813 0.0
C696 C 0.07419 0.18645 0.42536 0.0
C697 C 0.07353 0.169 0.3234 0.0
C698 C 0.06789 0.15161 0.2811 0.0
C699 C 0.0473 0.14586 0.26993 0.0
C700 C 0.04217 0.12959 0.22946 0.0
C701 C 0.05748 0.11915 0.19911 0.0
C702 C 0.07795 0.12497 0.20916 0.0
C703 C 0.08317 0.14114 0.24995 0.0
H704 H 0.05347 0.10659 0.16768 0.0
H705 H 0.10371 0.26836 0.54491 0.0
H706 H 0.28883 0.03293 0.33375 0.0
H707 H 0.30283 0.02283 0.43886 0.0
H708 H 0.34617 0.98419 0.35045 0.0
H709 H 0.33164 0.99319 0.24538 0.0
H710 H 0.31321 0.97303 0.47999 0.0
H711 H 0.38923 0.0115 0.42551 0.0
H712 H 0.40213 0.04253 0.37288 0.0
H713 H 0.34822 0.07471 0.42159 0.0
H714 H 0.33517 0.04396 0.47536 0.0
H715 H 0.40562 0.92841 0.53112 0.0
H716 H 0.37084 0.94103 0.52139 0.0
H717 H 0.38621 0.98814 0.65805 0.0
H718 H 0.4211 0.97588 0.66686 0.0
H719 H 0.38029 1.00381 0.54531 0.0
H720 H 0.3414 0.96112 0.67059 0.0
H721 H 0.32935 0.92965 0.72216 0.0
H722 H 0.30917 0.90569 0.54042 0.0
H723 H 0.32143 0.93682 0.48743 0.0
C724 C 0.30116 0.02204 0.33659 0.0
C725 C 0.30909 0.01381 0.28097 0.0
C726 C 0.30912 0.01638 0.39667 0.0
C727 C 0.32538 1.00276 0.40191 0.0
C728 C 0.33352 0.99471 0.34688 0.0
C729 C 0.32539 1.00009 0.28692 0.0
C730 C 0.33483 0.99728 0.46423 0.0
C731 C 0.32771 0.97984 0.49565 0.0
C732 C 0.35327 1.00677 0.48537 0.0
C733 C 0.36116 0.0254 0.45395 0.0
C734 C 0.38018 0.02523 0.4252 0.0
C735 C 0.38751 0.04276 0.39515 0.0
C736 C 0.37597 0.06056 0.39372 0.0
C737 C 0.3571 0.06089 0.4225 0.0
C738 C 0.34972 0.0434 0.45266 0.0
C739 C 0.40132 0.94084 0.56138 0.0
C740 C 0.41626 0.95163 0.59774 0.0
C741 C 0.38132 0.94796 0.55636 0.0
C742 C 0.37605 0.96587 0.58795 0.0
C743 C 0.39003 0.97445 0.63273 0.0
C744 C 0.41004 0.96735 0.63769 0.0
C745 C 0.35945 0.97853 0.55938 0.0
C746 C 0.36532 0.99735 0.53307 0.0
C747 C 0.33984 0.97032 0.54367 0.0
C748 C 0.33233 0.95143 0.57494 0.0
C749 C 0.3345 0.94912 0.64146 0.0
C750 C 0.32762 0.93132 0.671 0.0
C751 C 0.31848 0.91569 0.6346 0.0
C752 C 0.3162 0.91784 0.56857 0.0
C753 C 0.32308 0.9356 0.53875 0.0
H754 H 0.31316 0.90192 0.65756 0.0
H755 H 0.38167 0.07412 0.37042 0.0
H756 H 0.53517 0.32501 0.22128 0.0
H757 H 0.55347 0.34211 0.30913 0.0
H758 H 0.5987 0.29468 0.31562 0.0
H759 H 0.58048 0.27757 0.22585 0.0
H760 H 0.56351 0.33141 0.42975 0.0
H761 H 0.64498 0.32029 0.35802 0.0
H762 H 0.66455 0.31075 0.26487 0.0
H763 H 0.6185 0.33721 0.13978 0.0
H764 H 0.59882 0.34707 0.23221 0.0
H765 H 0.6075 0.41233 0.60453 0.0
H766 H 0.60946 0.37677 0.57016 0.0
H767 H 0.61138 0.39701 0.37482 0.0
H768 H 0.60945 0.43204 0.40827 0.0
H769 H 0.63098 0.36259 0.38672 0.0
H770 H 0.56615 0.39055 0.4608 0.0
H771 H 0.54261 0.40245 0.54123 0.0
H772 H 0.55015 0.34621 0.6446 0.0
H773 H 0.57428 0.33431 0.56601 0.0
C774 C 0.54902 0.31821 0.24132 0.0
C775 C 0.55657 0.30014 0.21624 0.0
C776 C 0.55934 0.32785 0.29203 0.0
C777 C 0.57745 0.31967 0.31888 0.0
C778 C 0.58477 0.30125 0.29542 0.0
C779 C 0.57435 0.29151 0.2444 0.0
C780 C 0.58898 0.33162 0.36818 0.0
C781 C 0.57853 0.33787 0.42144 0.0
C782 C 0.60863 0.33983 0.35767 0.0
C783 C 0.62034 0.33413 0.30185 0.0
C784 C 0.63907 0.32406 0.31059 0.0
C785 C 0.65017 0.31861 0.25796 0.0
C786 C 0.64273 0.32329 0.19644 0.0
C787 C 0.62421 0.33352 0.18742 0.0
C788 C 0.61307 0.33902 0.23989 0.0
C789 C 0.60894 0.40916 0.55445 0.0
C790 C 0.60791 0.42504 0.50909 0.0
C791 C 0.61016 0.38884 0.53493 0.0
C792 C 0.61011 0.38419 0.46979 0.0
C793 C 0.61144 0.40015 0.42538 0.0
C794 C 0.61034 0.42033 0.44474 0.0
C795 C 0.60479 0.36352 0.44559 0.0
C796 C 0.61649 0.35539 0.3974 0.0
C797 C 0.58592 0.35399 0.45951 0.0
C798 C 0.5723 0.36171 0.50831 0.0
C799 C 0.56304 0.38089 0.50129 0.0
C800 C 0.54959 0.38762 0.54652 0.0
C801 C 0.54493 0.37511 0.59806 0.0
C802 C 0.55387 0.35594 0.60487 0.0
C803 C 0.56752 0.34924 0.56027 0.0
H804 H 0.5343 0.38016 0.63255 0.0
H805 H 0.65134 0.31905 0.15576 0.0
H806 H 0.23394 0.45444 0.10689 0.0
H807 H 0.20597 0.45345 0.18035 0.0
H808 H 0.23268 0.50482 0.28158 0.0
H809 H 0.26044 0.50618 0.20774 0.0
H810 H 0.205 0.47613 0.3561 0.0
H811 H 0.20819 0.51917 0.16193 0.0
H812 H 0.21298 0.52423 0.04701 0.0
H813 H 0.16685 0.47879 1.00352 0.0
H814 H 0.16197 0.47329 0.11828 0.0
H815 H 0.1271 0.54372 0.43283 0.0
H816 H 0.15742 0.52612 0.39954 0.0
H817 H 0.12053 0.49249 0.26034 0.0
H818 H 0.0903 0.51086 0.29104 0.0
H819 H 0.1521 0.506 0.20862 0.0
H820 H 0.14273 0.46828 0.39874 0.0
H821 H 0.13594 0.4634 0.51231 0.0
H822 H 0.19106 0.49644 0.56444 0.0
H823 H 0.19809 0.50163 0.45104 0.0
C824 C 0.23433 0.46492 0.14656 0.0
C825 C 0.24897 0.48078 0.15053 0.0
C826 C 0.21844 0.46424 0.18874 0.0
C827 C 0.21714 0.47932 0.23533 0.0
C828 C 0.23348 0.49306 0.24578 0.0
C829 C 0.24935 0.49383 0.20339 0.0
C830 C 0.19701 0.48449 0.25923 0.0
C831 C 0.19333 0.48261 0.3242 0.0
C832 C 0.18174 0.49258 0.21714 0.0
C833 C 0.18494 0.49562 0.14843 0.0
C834 C 0.19923 0.51012 0.12782 0.0
C835 C 0.20189 0.51313 0.06282 0.0
C836 C 0.19025 0.5018 0.01819 0.0
C837 C 0.17589 0.48748 0.03829 0.0
C838 C 0.17317 0.48442 0.10323 0.0
C839 C 0.12547 0.53278 0.39452 0.0
C840 C 0.10631 0.52883 0.36414 0.0
C841 C 0.14276 0.52238 0.37654 0.0
C842 C 0.14118 0.5076 0.32853 0.0
C843 C 0.12208 0.50368 0.29799 0.0
C844 C 0.10481 0.51417 0.31563 0.0
C845 C 0.15976 0.49773 0.306 0.0
C846 C 0.16333 0.49898 0.24091 0.0
C847 C 0.17466 0.48885 0.34807 0.0
C848 C 0.17082 0.48549 0.41639 0.0
C849 C 0.15332 0.47461 0.43444 0.0
C850 C 0.14946 0.47174 0.49875 0.0
C851 C 0.16306 0.4796 0.54555 0.0
C852 C 0.18058 0.4903 0.52813 0.0
C853 C 0.18454 0.49316 0.46381 0.0
H854 H 0.16001 0.47735 0.59525 0.0
H855 H 0.1923 0.50411 0.96807 0.0
H856 H 0.93176 0.80488 0.1777 0.0
H857 H 0.91809 0.83318 0.11347 0.0
H858 H 0.9662 0.82508 0.98137 0.0
H859 H 0.979 0.79646 0.04343 0.0
H860 H 0.93909 0.86453 0.11764 0.0
H861 H 0.96406 0.85096 0.8536 0.0
H862 H 0.95678 0.82601 0.7684 0.0
H863 H 0.90157 0.80746 0.8571 0.0
H864 H 0.90829 0.83254 0.94241 0.0
H865 H 0.01413 0.92681 0.01229 0.0
H866 H 0.98857 0.90241 0.0476 0.0
H867 H 0.94664 0.92194 0.89625 0.0
H868 H 0.97236 0.94636 0.86039 0.0
H869 H 0.9503 0.88251 0.89243 0.0
H870 H 0.92966 0.92574 0.05317 0.0
H871 H 0.93311 0.95186 0.13708 0.0
H872 H 0.97222 0.9124 0.24936 0.0
H873 H 0.96876 0.8859 0.16657 0.0
C874 C 0.93855 0.80844 0.13276 0.0
C875 C 0.95657 0.79879 0.11576 0.0
C876 C 0.93082 0.82468 0.09623 0.0
C877 C 0.94127 0.83164 0.04304 0.0
C878 C 0.95755 0.82004 0.02148 0.0
C879 C 0.96501 0.80359 0.05728 0.0
C880 C 0.93932 0.85317 0.02128 0.0
C881 C 0.94097 0.86843 0.06804 0.0
C882 C 0.94088 0.85872 0.95649 0.0
C883 C 0.93668 0.84374 0.90457 0.0
C884 C 0.95023 0.84175 0.85471 0.0
C885 C 0.94624 0.82751 0.80643 0.0
C886 C 0.92872 0.81516 0.80732 0.0
C887 C 0.91515 0.81702 0.85651 0.0
C888 C 0.91907 0.83124 0.90491 0.0
C889 C 0.99928 0.9263 0.98762 0.0
C890 C 0.99534 0.93826 0.93315 0.0
C891 C 0.98458 0.91243 0.00801 0.0
C892 C 0.96558 0.91042 0.97479 0.0
C893 C 0.96117 0.92322 0.92255 0.0
C894 C 0.97591 0.93706 0.90199 0.0
C895 C 0.952 0.89292 0.98949 0.0
C896 C 0.94742 0.8786 0.94143 0.0
C897 C 0.94707 0.88832 0.0527 0.0
C898 C 0.94902 0.9039 0.10351 0.0
C899 C 0.939 0.92264 0.09575 0.0
C900 C 0.9409 0.93747 0.14314 0.0
C901 C 0.95302 0.93385 0.19807 0.0
C902 C 0.96291 0.9152 0.20656 0.0
C903 C 0.96085 0.9002 0.15964 0.0
H904 H 0.95476 0.94556 0.23384 0.0
H905 H 0.92567 0.80414 0.76992 0.0
H906 H 0.76417 0.99229 0.02579 0.0
H907 H 0.74059 0.99335 0.93468 0.0
H908 H 0.69913 0.95306 0.02991 0.0
H909 H 0.72318 0.9512 0.12165 0.0
H910 H 0.71063 0.9727 0.84943 0.0
H911 H 0.66118 0.98011 0.05474 0.0
H912 H 0.66173 0.98494 0.17135 0.0
H913 H 0.71521 0.02318 0.16068 0.0
H914 H 0.71502 0.01839 0.04416 0.0
H915 H 0.61861 0.02568 0.73825 0.0
H916 H 0.6447 1.00186 0.77686 0.0
H917 H 0.67395 0.04999 0.88787 0.0
H918 H 0.64713 0.07359 0.85174 0.0
H919 H 0.66452 0.01915 0.95992 0.0
H920 H 0.69452 0.02603 0.75192 0.0
H921 H 0.69179 0.02405 0.63509 0.0
H922 H 0.67737 0.96013 0.64663 0.0
H923 H 0.67942 0.96187 0.76387 0.0
C924 C 0.75071 0.98254 0.02641 0.0
C925 C 0.74515 0.97233 0.08231 0.0
C926 C 0.73719 0.98315 0.97369 0.0
C927 C 0.71792 0.97381 0.97661 0.0
C928 C 0.7139 0.9606 0.02739 0.0
C929 C 0.72754 0.9598 0.08011 0.0
C930 C 0.7009 0.98334 0.93996 0.0
C931 C 0.7002 0.98257 0.87324 0.0
C932 C 0.68755 0.9964 0.97122 0.0
C933 C 0.68816 0.99878 0.04121 0.0
C934 C 0.67308 0.98947 0.07749 0.0
C935 C 0.67333 0.99219 0.14344 0.0
C936 C 0.68848 1.00437 0.17335 0.0
C937 C 0.70347 0.01378 0.13742 0.0
C938 C 0.70336 0.01098 0.07153 0.0
C939 C 0.63104 0.03131 0.76917 0.0
C940 C 0.631 0.0514 0.79227 0.0
C941 C 0.64592 0.01768 0.79119 0.0
C942 C 0.66122 0.02413 0.83534 0.0
C943 C 0.66216 0.0447 0.85406 0.0
C944 C 0.64699 0.0582 0.83324 0.0
C945 C 0.67455 0.00917 0.86883 0.0
C946 C 0.67446 0.00894 0.93541 0.0
C947 C 0.68704 0.99532 0.83704 0.0
C948 C 0.68694 0.99413 0.76667 0.0
C949 C 0.69071 0.01157 0.72957 0.0
C950 C 0.68926 0.01048 0.66321 0.0
C951 C 0.68438 0.99197 0.63334 0.0
C952 C 0.68111 0.97447 0.66982 0.0
C953 C 0.68239 0.9755 0.73624 0.0
H954 H 0.6831 0.99114 0.58199 0.0
H955 H 0.68859 1.00653 0.22432 0.0
H956 H 0.45119 0.74573 0.20506 0.0
H957 H 0.43345 0.72173 0.13275 0.0
H958 H 0.47108 0.74185 0.98052 0.0
H959 H 0.48921 0.76531 0.05222 0.0
H960 H 0.41651 0.7153 0.99456 0.0
H961 H 0.50016 0.69977 0.95754 0.0
H962 H 0.53434 0.7084 1.00443 0.0
H963 H 0.50951 0.71139 0.18988 0.0
H964 H 0.47527 0.70253 0.14428 0.0
H965 H 0.43912 0.63109 0.78282 0.0
H966 H 0.43526 0.66394 0.83615 0.0
H967 H 0.44626 0.63471 0.01829 0.0
H968 H 0.45027 0.602 0.96565 0.0
H969 H 0.47389 0.66651 0.98839 0.0
H970 H 0.40157 0.65259 0.99018 0.0
H971 H 0.36761 0.6441 0.94189 0.0
H972 H 0.36952 0.69841 0.82722 0.0
H973 H 0.40365 0.70708 0.87417 0.0
C974 C 0.45507 0.74567 0.15546 0.0
C975 C 0.47207 0.75687 0.13493 0.0
C976 C 0.44473 0.73213 0.11402 0.0
C977 C 0.45135 0.72978 0.05194 0.0
C978 C 0.46587 0.74345 0.02849 0.0
C979 C 0.47626 0.75688 0.06983 0.0
C980 C 0.44819 0.70995 0.02019 0.0
C981 C 0.429 0.70462 0.99273 0.0
C982 C 0.4645 0.696 0.01887 0.0
C983 C 0.48512 0.70078 0.04732 0.0
C984 C 0.50202 0.70224 0.00835 0.0
C985 C 0.52139 0.70719 0.03471 0.0
C986 C 0.52405 0.71064 0.10005 0.0
C987 C 0.50737 0.70902 0.13918 0.0
C988 C 0.48798 0.70401 0.11311 0.0
C989 C 0.44036 0.63166 0.8343 0.0
C990 C 0.44513 0.61405 0.87012 0.0
C991 C 0.43797 0.65035 0.86461 0.0
C992 C 0.44044 0.65164 0.931 0.0
C993 C 0.44418 0.63391 0.96698 0.0
C994 C 0.4464 0.61525 0.93685 0.0
C995 C 0.44218 0.67168 0.9623 0.0
C996 C 0.4613 0.67711 0.98978 0.0
C997 C 0.4258 0.68555 0.9634 0.0
C998 C 0.40527 0.68038 0.93524 0.0
C999 C 0.39485 0.66262 0.95421 0.0
C1000 C 0.37554 0.6578 0.92719 0.0
C1001 C 0.36643 0.67068 0.88139 0.0
C1002 C 0.3766 0.68844 0.86265 0.0
C1003 C 0.39592 0.69332 0.8895 0.0
H1004 H 0.35148 0.66692 0.86053 0.0
H1005 H 0.53905 0.71445 0.12044 0.0
H1006 H 0.75911 0.51682 0.08526 0.0
H1007 H 0.77814 0.50499 0.99501 0.0
H1008 H 0.8176 0.558 0.0109 0.0
H1009 H 0.79873 0.56979 0.10144 0.0
H1010 H 0.81285 0.54027 0.88198 0.0
H1011 H 0.83013 0.52312 0.10718 0.0
H1012 H 0.81999 0.50967 0.21125 0.0
H1013 H 0.80139 0.45303 0.12378 0.0
H1014 H 0.81113 0.46634 0.01894 0.0
H1015 H 0.91747 0.52859 0.88272 0.0
H1016 H 0.88195 0.53396 0.90771 0.0
H1017 H 0.86888 0.46991 0.88007 0.0
H1018 H 0.90466 0.46442 0.85382 0.0
H1019 H 0.85323 0.48548 0.98976 0.0
H1020 H 0.85308 0.50195 0.77224 0.0
H1021 H 0.86628 0.5177 0.67576 0.0
H1022 H 0.85303 0.57718 0.74649 0.0
H1023 H 0.84104 0.56189 0.84568 0.0
C1024 C 0.77121 0.52642 0.06747 0.0
C1025 C 0.77781 0.54398 0.10073 0.0
C1026 C 0.78201 0.51967 0.01587 0.0
C1027 C 0.79938 0.53051 0.99714 0.0
C1028 C 0.80419 0.54948 0.02474 0.0
C1029 C 0.79356 0.55611 0.07672 0.0
C1030 C 0.81538 0.52009 0.96269 0.0
C1031 C 0.82163 0.52813 0.9047 0.0
C1032 C 0.82644 0.50399 0.99231 0.0
C1033 C 0.82114 0.49576 0.05535 0.0
C1034 C 0.82379 0.50783 0.11019 0.0
C1035 C 0.81811 0.50025 0.16925 0.0
C1036 C 0.81001 0.48052 0.17409 0.0
C1037 C 0.80763 0.46832 0.11991 0.0
C1038 C 0.81322 0.47588 0.06067 0.0
C1039 C 0.90703 0.51565 0.8814 0.0
C1040 C 0.91375 0.49613 0.8656 0.0
C1041 C 0.88674 0.51875 0.89554 0.0
C1042 C 0.87274 0.50241 0.89411 0.0
C1043 C 0.87947 0.48273 0.88057 0.0
C1044 C 0.89988 0.47961 0.86613 0.0
C1045 C 0.85133 0.50615 0.9098 0.0
C1046 C 0.84409 0.49693 0.96485 0.0
C1047 C 0.83955 0.5213 0.87747 0.0
C1048 C 0.8462 0.53069 0.81693 0.0
C1049 C 0.85316 0.51841 0.76775 0.0
C1050 C 0.86051 0.52728 0.71251 0.0
C1051 C 0.86037 0.54844 0.70469 0.0
C1052 C 0.85308 0.56078 0.75251 0.0
C1053 C 0.84612 0.552 0.80853 0.0
H1054 H 0.86592 0.55527 0.66163 0.0
H1055 H 0.80561 0.47467 0.21984 0.0
H1056 H 0.01184 0.23381 0.01451 0.0
H1057 H 1.00753 0.20243 0.95157 0.0
H1058 H 0.06916 0.20924 0.88895 0.0
H1059 H 0.07336 0.24053 0.95143 0.0
H1060 H 0.04636 0.19338 0.79455 0.0
H1061 H 0.05824 0.17785 0.0149 0.0
H1062 H 0.05223 0.17915 0.12991 0.0
H1063 H 0.99221 0.1533 0.09656 0.0
H1064 H 0.9978 0.15199 0.98125 0.0
H1065 H 0.04908 0.07278 0.82653 0.0
H1066 H 0.05122 0.10689 0.8731 0.0
H1067 H 0.01709 0.13099 0.71037 0.0
H1068 H 0.01569 0.0971 0.66254 0.0
H1069 H 0.02658 0.13183 0.91668 0.0
H1070 H 0.02662 0.18093 0.68588 0.0
H1071 H 0.03838 0.17843 0.57604 0.0
H1072 H 0.08415 0.13554 0.63813 0.0
H1073 H 0.07288 0.13797 0.7483 0.0
C1074 C 0.02416 0.22904 0.98529 0.0
C1075 C 0.04282 0.23996 0.98715 0.0
C1076 C 0.02183 0.21085 0.95001 0.0
C1077 C 0.03813 0.20305 0.91586 0.0
C1078 C 0.05629 0.21472 0.91451 0.0
C1079 C 0.05865 0.23277 0.94998 0.0
C1080 C 0.03691 0.18222 0.88537 0.0
C1081 C 0.04184 0.17997 0.82121 0.0
C1082 C 0.03174 0.16438 0.92009 0.0
C1083 C 0.02833 0.16507 0.98937 0.0
C1084 C 0.0437 0.17258 0.03206 0.0
C1085 C 0.04039 0.1733 0.09729 0.0
C1086 C 0.0218 0.16644 0.12042 0.0
C1087 C 1.00656 0.15868 0.07849 0.0
C1088 C 1.0098 0.15793 0.01321 0.0
C1089 C 0.04221 0.08536 0.80021 0.0
C1090 C 0.03237 0.08202 0.74023 0.0
C1091 C 0.04332 0.10497 0.82723 0.0
C1092 C 0.03453 0.12193 0.7955 0.0
C1093 C 0.02451 0.11853 0.73578 0.0
C1094 C 0.02364 0.09898 0.70833 0.0
C1095 C 0.03566 0.14294 0.82525 0.0
C1096 C 0.03082 0.14522 0.88952 0.0
C1097 C 0.0416 0.16069 0.79117 0.0
C1098 C 0.04875 0.15948 0.72522 0.0
C1099 C 0.03925 0.17104 0.67611 0.0
C1100 C 0.04582 0.16961 0.61379 0.0
C1101 C 0.06195 0.15678 0.60016 0.0
C1102 C 0.07161 0.14542 0.64876 0.0
C1103 C 0.06513 0.1468 0.71111 0.0
H1104 H 0.06703 0.15567 0.55202 0.0
H1105 H 0.0192 0.1671 0.17086 0.0
H1106 H 0.33839 0.04916 0.10397 0.0
H1107 H 0.36598 0.04893 0.03008 0.0
H1108 H 0.33038 0.00908 0.90539 0.0
H1109 H 0.30277 0.0085 0.98205 0.0
H1110 H 0.36749 0.99609 0.90608 0.0
H1111 H 0.34195 0.06267 0.87112 0.0
H1112 H 0.32988 0.09694 0.89768 0.0
H1113 H 0.38851 0.1115 0.9859 0.0
H1114 H 0.40086 0.07721 0.96063 0.0
H1115 H 0.44499 1.00815 0.67019 0.0
H1116 H 0.41276 0.00887 0.72621 0.0
H1117 H 0.44242 0.04356 0.87747 0.0
H1118 H 0.47444 0.04318 0.8216 0.0
H1119 H 0.4059 0.059 0.85214 0.0
H1120 H 0.43047 0.99028 0.88348 0.0
H1121 H 0.44124 0.95637 0.84843 0.0
H1122 H 0.3822 0.94614 0.75693 0.0
H1123 H 0.37127 0.98023 0.7897 0.0
C1124 C 0.33617 0.0405 0.06047 0.0
C1125 C 0.31805 0.02889 0.04961 0.0
C1126 C 0.35211 0.04049 0.01749 0.0
C1127 C 0.35062 0.02922 0.96058 0.0
C1128 C 0.33225 0.01801 0.94843 0.0
C1129 C 0.31621 0.0179 0.99207 0.0
C1130 C 0.36851 0.02875 0.91601 0.0
C1131 C 0.37558 0.00996 0.89352 0.0
C1132 C 0.37962 0.04664 0.89904 0.0
C1133 C 0.37228 0.06729 0.91442 0.0
C1134 C 0.35223 0.07312 0.89658 0.0
C1135 C 0.34534 0.09257 0.91135 0.0
C1136 C 0.3584 0.10637 0.94358 0.0
C1137 C 0.3784 0.10078 0.96098 0.0
C1138 C 0.38536 0.08135 0.94638 0.0
C1139 C 0.44471 0.01599 0.71533 0.0
C1140 C 0.46264 0.02561 0.74082 0.0
C1141 C 0.42615 0.01627 0.7478 0.0
C1142 C 0.42484 0.02604 0.80719 0.0
C1143 C 0.44268 0.03585 0.83211 0.0
C1144 C 0.46118 0.03558 0.79982 0.0
C1145 C 0.40511 0.02635 0.84345 0.0
C1146 C 0.3977 0.04515 0.86441 0.0
C1147 C 0.39354 0.0085 0.85784 0.0
C1148 C 0.40013 0.98795 0.83843 0.0
C1149 C 0.41984 0.9809 0.85533 0.0
C1150 C 0.42598 0.96163 0.83587 0.0
C1151 C 0.41243 0.94913 0.80037 0.0
C1152 C 0.39269 0.95583 0.78446 0.0
C1153 C 0.38654 0.97516 0.80327 0.0
H1154 H 0.41723 0.93425 0.78524 0.0
H1155 H 0.35304 0.12142 0.95495 0.0
H1156 H 0.50547 0.32889 0.06878 0.0
H1157 H 0.50166 0.35741 0.99473 0.0
H1158 H 0.53312 0.32373 0.85352 0.0
H1159 H 0.53747 0.29512 0.92928 0.0
H1160 H 0.54829 0.36093 0.85836 0.0
H1161 H 0.48026 0.33533 0.83733 0.0
H1162 H 0.44703 0.3222 0.87196 0.0
H1163 H 0.43657 0.37857 0.96764 0.0
H1164 H 0.46987 0.39196 0.93435 0.0
H1165 H 0.53051 0.44507 0.64169 0.0
H1166 H 0.53033 0.41103 0.69011 0.0
H1167 H 0.50166 0.43503 0.85434 0.0
H1168 H 0.50152 0.46894 0.80611 0.0
H1169 H 0.48428 0.39984 0.82321 0.0
H1170 H 0.55451 0.42411 0.84617 0.0
H1171 H 0.58681 0.43693 0.80347 0.0
H1172 H 0.59236 0.38187 0.6962 0.0
H1173 H 0.56011 0.36874 0.73854 0.0
C1174 C 0.51107 0.32729 0.02129 0.0
C1175 C 0.52153 0.30956 1.00476 0.0
C1176 C 0.50889 0.3437 0.97871 0.0
C1177 C 0.51691 0.34291 0.91771 0.0
C1178 C 0.52672 0.32486 0.90005 0.0
C1179 C 0.52895 0.30834 0.94303 0.0
C1180 C 0.51601 0.36142 0.87484 0.0
C1181 C 0.53417 0.36919 0.84973 0.0
C1182 C 0.49773 0.37255 0.8636 0.0
C1183 C 0.47765 0.36459 0.88367 0.0
C1184 C 0.47094 0.34488 0.86613 0.0
C1185 C 0.45208 0.3374 0.88546 0.0
C1186 C 0.43971 0.34953 0.92207 0.0
C1187 C 0.44617 0.36919 0.9393 0.0
C1188 C 0.46503 0.37674 0.92013 0.0
C1189 C 0.52408 0.44313 0.68801 0.0
C1190 C 0.51607 0.45994 0.71981 0.0
C1191 C 0.52405 0.42356 0.71588 0.0
C1192 C 0.51616 0.42026 0.77651 0.0
C1193 C 0.50785 0.43698 0.80765 0.0
C1194 C 0.50783 0.45649 0.77989 0.0
C1195 C 0.5166 0.39961 0.80827 0.0
C1196 C 0.49834 0.39146 0.83134 0.0
C1197 C 0.53475 0.38807 0.81701 0.0
C1198 C 0.55467 0.39561 0.79441 0.0
C1199 C 0.56258 0.41478 0.81328 0.0
C1200 C 0.5809 0.42208 0.78929 0.0
C1201 C 0.59158 0.41027 0.74691 0.0
C1202 C 0.58406 0.39104 0.72893 0.0
C1203 C 0.56578 0.38365 0.75298 0.0
H1204 H 0.60572 0.41599 0.72823 0.0
H1205 H 0.42512 0.34371 0.93699 0.0
H1206 H 0.2368 0.46962 0.91011 0.0
H1207 H 0.20615 0.47545 0.84264 0.0
H1208 H 0.21483 0.54039 0.86354 0.0
H1209 H 0.2455 0.53446 0.93209 0.0
H1210 H 0.17779 0.53062 0.89337 0.0
H1211 H 0.21708 0.51568 0.71394 0.0
H1212 H 0.24083 0.4965 0.64926 0.0
H1213 H 0.20022 0.4446 0.64923 0.0
H1214 H 0.17638 0.46336 0.71473 0.0
H1215 H 0.09453 0.52731 0.61355 0.0
H1216 H 0.13035 0.52558 0.65143 0.0
H1217 H 0.11133 0.50426 0.83436 0.0
H1218 H 0.07554 0.50631 0.79734 0.0
H1219 H 0.15512 0.49656 0.69241 0.0
H1220 H 0.14417 0.52102 0.95255 0.0
H1221 H 0.12065 0.54169 0.01366 0.0
H1222 H 0.10585 0.57756 0.84702 0.0
H1223 H 0.12951 0.55731 0.78514 0.0
C1224 C 0.23267 0.48516 0.898 0.0
C1225 C 0.2438 0.50158 0.92563 0.0
C1226 C 0.21505 0.48851 0.85938 0.0
C1227 C 0.20802 0.50841 0.8473 0.0
C1228 C 0.21986 0.52489 0.87172 0.0
C1229 C 0.23759 0.52152 0.91027 0.0
C1230 C 0.18717 0.51171 0.81657 0.0
C1231 C 0.17294 0.52319 0.84926 0.0
C1232 C 0.18063 0.50231 0.75855 0.0
C1233 C 0.195 0.4909 0.71959 0.0
C1234 C 0.2133 0.50012 0.70061 0.0
C1235 C 0.22677 0.48932 0.66374 0.0
C1236 C 0.22206 0.46932 0.64528 0.0
C1237 C 0.20387 0.46008 0.66367 0.0
C1238 C 0.19037 0.47079 0.70064 0.0
C1239 C 0.09792 0.52221 0.66186 0.0
C1240 C 0.08198 0.51709 0.7024 0.0
C1241 C 0.1185 0.52119 0.68348 0.0
C1242 C 0.12373 0.51513 0.74629 0.0
C1243 C 0.10784 0.50944 0.78619 0.0
C1244 C 0.08729 0.51051 0.76471 0.0
C1245 C 0.14568 0.51489 0.77025 0.0
C1246 C 0.16006 0.504 0.73636 0.0
C1247 C 0.15243 0.52493 0.82703 0.0
C1248 C 0.13846 0.5375 0.86406 0.0
C1249 C 0.13597 0.53338 0.92902 0.0
C1250 C 0.12261 0.54502 0.96378 0.0
C1251 C 0.11171 0.56088 0.93418 0.0
C1252 C 0.11424 0.56522 0.86983 0.0
C1253 C 0.12762 0.55366 0.83487 0.0
H1254 H 0.10132 0.56983 0.96114 0.0
H1255 H 0.23248 0.46101 0.61659 0.0
H1256 H 0.02917 0.81279 0.28802 0.0
H1257 H 0.03513 0.8433 0.35461 0.0
H1258 H 0.973 0.83947 0.41452 0.0
H1259 H 0.96721 0.80901 0.34957 0.0
H1260 H 0.98247 0.87762 0.36509 0.0
H1261 H 0.01141 0.83026 0.51894 0.0
H1262 H 0.03498 0.80336 0.55702 0.0
H1263 H 0.08644 0.84215 0.51925 0.0
H1264 H 0.06316 0.86919 0.48009 0.0
H1265 H 0.98129 0.96037 0.58099 0.0
H1266 H 0.97852 0.92675 0.53103 0.0
H1267 H 0.04414 0.92537 0.51808 0.0
H1268 H 0.04693 0.95821 0.5724 0.0
H1269 H 0.03384 0.88962 0.54099 0.0
H1270 H 1.00614 0.93681 0.38541 0.0
H1271 H 0.98327 0.96455 0.34924 0.0
H1272 H 0.93084 0.92677 0.38402 0.0
H1273 H 0.95339 0.8989 0.42133 0.0
C1274 C 0.01709 0.81797 0.31747 0.0
C1275 C 0.99776 0.80828 0.31377 0.0
C1276 C 0.0204 0.8356 0.35502 0.0
C1277 C 1.00443 0.84398 0.38931 0.0
C1278 C 0.98555 0.83356 0.38835 0.0
C1279 C 0.98233 0.81595 0.35164 0.0
C1280 C 1.0067 0.86417 0.42281 0.0
C1281 C 0.9936 0.88016 0.40396 0.0
C1282 C 0.02155 0.86789 0.4724 0.0
C1283 C 0.03555 0.85166 0.49591 0.0
C1284 C 0.02775 0.83298 0.51818 0.0
C1285 C 0.04106 0.81773 0.54009 0.0
C1286 C 0.0622 0.82102 0.54037 0.0
C1287 C 0.07007 0.83961 0.5189 0.0
C1288 C 0.05682 0.85491 0.49689 0.0
C1289 C 0.99511 0.95288 0.56749 0.0
C1290 C 0.01431 0.96213 0.58045 0.0
C1291 C 0.99355 0.93361 0.53826 0.0
C1292 C 0.01108 0.92339 0.5185 0.0
C1293 C 0.03027 0.93264 0.53223 0.0
C1294 C 0.03187 0.95159 0.56321 0.0
C1295 C 1.00952 0.90324 0.48358 0.0
C1296 C 0.02277 0.88723 0.50191 0.0
C1297 C 0.99499 0.89957 0.43266 0.0
C1298 C 0.98145 0.91588 0.40694 0.0
C1299 C 0.98973 0.93444 0.38548 0.0
C1300 C 0.97683 0.95021 0.36503 0.0
C1301 C 0.95562 0.94751 0.36517 0.0
C1302 C 0.94727 0.9289 0.38456 0.0
C1303 C 0.9601 0.9131 0.40527 0.0
H1304 H 0.94565 0.95976 0.34949 0.0
H1305 H 0.07247 0.80919 0.55737 0.0
H1306 H 0.73768 0.03161 0.30062 0.0
H1307 H 0.70714 0.03776 0.36297 0.0
H1308 H 0.69425 0.97323 0.36617 0.0
H1309 H 0.72467 0.96708 0.30596 0.0
H1310 H 0.66004 0.99529 0.3264 0.0
H1311 H 0.71202 0.9989 0.49688 0.0
H1312 H 0.74271 0.01307 0.55302 0.0
H1313 H 0.71416 0.07155 0.56179 0.0
H1314 H 0.68336 0.05779 0.50485 0.0
H1315 H 0.57689 0.98499 0.53018 0.0
H1316 H 0.60966 0.9829 0.47877 0.0
H1317 H 0.62333 0.04529 0.52972 0.0
H1318 H 0.59081 0.04717 0.58306 0.0
H1319 H 0.65737 0.02754 0.53845 0.0
H1320 H 0.60747 0.02815 0.37034 0.0
H1321 H 0.57639 0.01833 0.30714 0.0
H1322 H 0.60025 0.95834 0.28173 0.0
H1323 H 0.63138 0.9677 0.34558 0.0
C1324 C 0.72875 0.0187 0.3165 0.0
C1325 C 0.73397 0.9988 0.2983 0.0
C1326 C 0.71105 0.02223 0.3517 0.0
C1327 C 0.69797 1.00599 0.36936 0.0
C1328 C 0.70371 0.98615 0.3532 0.0
C1329 C 0.72136 0.98263 0.31898 0.0
C1330 C 0.678 0.00928 0.40241 0.0
C1331 C 0.65956 1.00213 0.37315 0.0
C1332 C 0.67685 0.01909 0.46219 0.0
C1333 C 0.69545 0.02737 0.4959 0.0
C1334 C 0.71237 0.01485 0.51 0.0
C1335 C 0.72977 0.02279 0.5422 0.0
C1336 C 0.73042 0.04322 0.56078 0.0
C1337 C 0.71365 0.05574 0.54727 0.0
C1338 C 0.69621 0.04787 0.51509 0.0
C1339 C 0.58682 0.99832 0.53066 0.0
C1340 C 0.58085 0.01628 0.56122 0.0
C1341 C 0.60571 0.99717 0.50052 0.0
C1342 C 0.6193 0.01406 0.49833 0.0
C1343 C 0.61349 0.03191 0.52988 0.0
C1344 C 0.59468 0.03299 0.56065 0.0
C1345 C 0.63928 0.01309 0.46307 0.0
C1346 C 0.65773 0.02072 0.49167 0.0
C1347 C 0.64039 1.00435 0.40146 0.0
C1348 C 0.62166 0.99856 0.36337 0.0
C1349 C 0.60602 0.01281 0.35173 0.0
C1350 C 0.58841 1.00734 0.31571 0.0
C1351 C 0.58632 0.98771 0.2906 0.0
C1352 C 0.60188 0.97353 0.30133 0.0
C1353 C 0.61951 0.97891 0.33741 0.0
H1354 H 0.57268 0.9835 0.26268 0.0
H1355 H 0.74389 0.04933 0.58579 0.0
H1356 H 0.54609 0.73036 0.26673 0.0
H1357 H 0.55136 0.69867 0.32801 0.0
H1358 H 0.49751 0.7109 0.43245 0.0
H1359 H 0.49244 0.74254 0.37183 0.0
H1360 H 0.52482 0.69445 0.51109 0.0
H1361 H 0.4939 0.67098 0.30843 0.0
H1362 H 0.49018 0.66766 0.19172 0.0
H1363 H 0.55324 0.65077 0.18417 0.0
H1364 H 0.55703 0.65314 0.30136 0.0
H1365 H 0.49765 0.59381 0.61228 0.0
H1366 H 0.49916 0.62766 0.56318 0.0
H1367 H 0.55463 0.61153 0.47273 0.0
H1368 H 0.55312 0.57755 0.5212 0.0
H1369 H 0.52926 0.63024 0.3892 0.0
H1370 H 0.55454 0.64495 0.60171 0.0
H1371 H 0.55365 0.64477 0.71884 0.0
H1372 H 0.49782 0.67859 0.70876 0.0
H1373 H 0.49823 0.67876 0.59149 0.0
C1374 C 0.53583 0.72663 0.30435 0.0
C1375 C 0.51908 0.73922 0.3152 0.0
C1376 C 0.53858 0.70825 0.3386 0.0
C1377 C 0.52462 0.70198 0.38446 0.0
C1378 C 0.50854 0.71517 0.39756 0.0
C1379 C 0.50573 0.73341 0.36317 0.0
C1380 C 0.52623 0.68154 0.41744 0.0
C1381 C 0.52568 0.68043 0.48426 0.0
C1382 C 0.52761 0.66304 0.38338 0.0
C1383 C 0.52581 0.66251 0.31318 0.0
C1384 C 0.50698 0.66669 0.28171 0.0
C1385 C 0.50482 0.66482 0.21562 0.0
C1386 C 0.52152 0.65924 0.18042 0.0
C1387 C 0.54034 0.65519 0.21144 0.0
C1388 C 0.54246 0.6566 0.27773 0.0
C1389 C 0.51028 0.59744 0.58231 0.0
C1390 C 0.52529 0.58277 0.57111 0.0
C1391 C 0.51118 0.61694 0.55435 0.0
C1392 C 0.52715 0.62245 0.51447 0.0
C1393 C 0.54215 0.60784 0.50327 0.0
C1394 C 0.5413 0.58834 0.53136 0.0
C1395 C 0.52783 0.64311 0.48287 0.0
C1396 C 0.52872 0.64425 0.41625 0.0
C1397 C 0.5265 0.66159 0.51726 0.0
C1398 C 0.52634 0.66173 0.58778 0.0
C1399 C 0.54201 0.65225 0.62445 0.0
C1400 C 0.5416 0.65216 0.69088 0.0
C1401 C 0.52567 0.66163 0.72122 0.0
C1402 C 0.51014 0.67126 0.68519 0.0
C1403 C 0.51047 0.67138 0.61875 0.0
H1404 H 0.52537 0.66153 0.77264 0.0
H1405 H 0.51985 0.658 0.12916 0.0
H1406 H 0.7909 0.51767 0.36661 0.0
H1407 H 0.8232 0.51539 0.42993 0.0
H1408 H 0.84031 0.57565 0.3665 0.0
H1409 H 0.80838 0.57762 0.30227 0.0
H1410 H 0.87043 0.55127 0.34946 0.0
H1411 H 0.83001 0.56472 0.53428 0.0
H1412 H 0.80146 0.55882 0.60563 0.0
H1413 H 0.81923 0.49637 0.63058 0.0
H1414 H 0.84788 0.50194 0.55932 0.0
H1415 H 0.96159 0.56519 0.53736 0.0
H1416 H 0.92672 0.56824 0.49223 0.0
H1417 H 0.91217 0.50795 0.56107 0.0
H1418 H 0.94684 0.50503 0.60782 0.0
H1419 H 0.88058 0.531 0.57582 0.0
H1420 H 0.92281 0.51815 0.40089 0.0
H1421 H 0.95176 0.52349 0.33092 0.0
H1422 H 0.93016 0.58344 0.28311 0.0
H1423 H 0.90122 0.57857 0.35352 0.0
C1424 C 0.80127 0.53066 0.36805 0.0
C1425 C 0.79697 0.54795 0.33022 0.0
C1426 C 0.81983 0.52936 0.40413 0.0
C1427 C 0.83438 0.54539 0.40355 0.0
C1428 C 0.82953 0.56301 0.36793 0.0
C1429 C 0.81115 0.56424 0.33166 0.0
C1430 C 0.85527 0.54334 0.43536 0.0
C1431 C 0.87257 0.54718 0.39932 0.0
C1432 C 0.85836 0.53722 0.49972 0.0
C1433 C 0.84098 0.53372 0.54141 0.0
C1434 C 0.82773 0.54971 0.55473 0.0
C1435 C 0.81157 0.54644 0.59525 0.0
C1436 C 0.80852 0.52722 0.62256 0.0
C1437 C 0.82158 0.51123 0.60929 0.0
C1438 C 0.8378 0.51444 0.56896 0.0
C1439 C 0.95098 0.55259 0.54323 0.0
C1440 C 0.95723 0.53479 0.57591 0.0
C1441 C 0.93098 0.5543 0.51696 0.0
C1442 C 0.91672 0.53816 0.52182 0.0
C1443 C 0.92276 0.52062 0.55612 0.0
C1444 C 0.94271 0.51895 0.58273 0.0
C1445 C 0.89571 0.53944 0.49036 0.0
C1446 C 0.87842 0.53525 0.52616 0.0
C1447 C 0.89261 0.54511 0.42551 0.0
C1448 C 0.90996 0.54807 0.38297 0.0
C1449 C 0.92431 0.53253 0.37581 0.0
C1450 C 0.94071 0.53546 0.33602 0.0
C1451 C 0.94283 0.55381 0.30272 0.0
C1452 C 0.92852 0.56925 0.30901 0.0
C1453 C 0.91211 0.5664 0.34882 0.0
H1454 H 0.95553 0.55605 0.27193 0.0
H1455 H 0.79604 0.52473 0.65405 0.0
loop_
_geom_bond_atom_site_label_1
_geom_bond_atom_site_label_2
_geom_bond_distance
_geom_bond_site_symmetry_2
_ccdc_geom_bond_type
H0 C5 0.930 . S
H1 C8 0.930 . S
H2 C10 0.930 . S
H3 C4 1.016 . S
C4 H3 1.016 . S
C4 N11 1.286 . S
C5 H0 0.930 . S
C5 C6 1.397 . S
C5 C7 1.361 . S
C6 C5 1.397 . S
C6 C10 1.390 . S
C7 C5 1.361 . S
C7 C8 1.393 . S
C7 N11 1.413 . S
C8 H1 0.930 . S
C8 C7 1.393 . S
C8 C9 1.399 . S
C9 C8 1.399 . S
C9 C10 1.381 . S
C10 H2 0.930 . S
C10 C6 1.390 . S
C10 C9 1.381 . S
N11 C4 1.286 . S
N11 C7 1.413 . S
H12 C17 0.930 . S
H13 C20 0.930 . S
H14 C22 0.930 . S
H15 C16 1.016 . S
C16 H15 1.016 . S
C16 N23 1.286 . S
C17 H12 0.930 . S
C17 C18 1.397 . S
C17 C19 1.361 . S
C18 C17 1.397 . S
C18 C22 1.390 . S
C19 C17 1.361 . S
C19 C20 1.393 . S
C19 N23 1.413 . S
C20 H13 0.930 . S
C20 C19 1.393 . S
C20 C21 1.399 . S
C21 C20 1.399 . S
C21 C22 1.381 . S
C22 H14 0.930 . S
C22 C18 1.390 . S
C22 C21 1.381 . S
N23 C16 1.286 . S
N23 C19 1.413 . S
H24 C29 0.930 . S
H25 C32 0.930 . S
H26 C34 0.930 . S
H27 C28 1.016 . S
C28 H27 1.016 . S
C28 N35 1.286 . S
C29 H24 0.930 . S
C29 C30 1.397 . S
C29 C31 1.361 . S
C30 C29 1.397 . S
C30 C34 1.390 . S
C31 C29 1.361 . S
C31 C32 1.393 . S
C31 N35 1.413 . S
C32 H25 0.930 . S
C32 C31 1.393 . S
C32 C33 1.399 . S
C33 C32 1.399 . S
C33 C34 1.381 . S
C34 H26 0.930 . S
C34 C30 1.390 . S
C34 C33 1.381 . S
N35 C28 1.286 . S
N35 C31 1.413 . S
H36 C41 0.930 . S
H37 C44 0.930 . S
H38 C46 0.930 . S
H39 C40 1.016 . S
C40 H39 1.016 . S
C40 N47 1.286 . S
C41 H36 0.930 . S
C41 C42 1.397 . S
C41 C43 1.361 . S
C42 C41 1.397 . S
C42 C46 1.390 . S
C43 C41 1.361 . S
C43 C44 1.393 . S
C43 N47 1.413 . S
C44 H37 0.930 . S
C44 C43 1.393 . S
C44 C45 1.399 . S
C45 C44 1.399 . S
C45 C46 1.381 . S
C46 H38 0.930 . S
C46 C42 1.390 . S
C46 C45 1.381 . S
N47 C40 1.286 . S
N47 C43 1.413 . S
H48 C53 0.930 1_556 S
H49 C56 0.930 . S
H50 C58 0.930 . S
H51 C52 1.016 . S
C52 H51 1.016 . S
C52 N59 1.286 . S
C53 H48 0.930 1_554 S
C53 C54 1.397 . S
C53 C55 1.361 . S
C54 C53 1.397 . S
C54 C58 1.390 . S
C55 C53 1.361 . S
C55 C56 1.393 . S
C55 N59 1.413 . S
C56 H49 0.930 . S
C56 C55 1.393 . S
C56 C57 1.399 . S
C57 C56 1.399 . S
C57 C58 1.381 . S
C58 H50 0.930 . S
C58 C54 1.390 . S
C58 C57 1.381 . S
N59 C52 1.286 . S
N59 C55 1.413 . S
H60 C65 0.930 . S
H61 C68 0.930 . S
H62 C70 0.930 . S
H63 C64 1.016 . S
C64 H63 1.016 . S
C64 N71 1.286 . S
C65 H60 0.930 . S
C65 C66 1.397 . S
C65 C67 1.361 1_556 S
C66 C65 1.397 . S
C66 C70 1.390 1_556 S
C67 C65 1.361 1_554 S
C67 C68 1.393 . S
C67 N71 1.413 . S
C68 H61 0.930 . S
C68 C67 1.393 . S
C68 C69 1.399 . S
C69 C68 1.399 . S
C69 C70 1.381 . S
C70 H62 0.930 . S
C70 C66 1.390 1_554 S
C70 C69 1.381 . S
N71 C64 1.286 . S
N71 C67 1.413 . S
H72 C77 0.930 . S
H73 C80 0.930 . S
H74 C82 0.930 . S
H75 C76 1.016 . S
C76 H75 1.016 . S
C76 N83 1.286 . S
C77 H72 0.930 . S
C77 C78 1.397 . S
C77 C79 1.361 1_556 S
C78 C77 1.397 . S
C78 C82 1.390 . S
C79 C77 1.361 1_554 S
C79 C80 1.393 . S
C79 N83 1.413 . S
C80 H73 0.930 . S
C80 C79 1.393 . S
C80 C81 1.399 . S
C81 C80 1.399 . S
C81 C82 1.381 1_554 S
C82 H74 0.930 . S
C82 C78 1.390 . S
C82 C81 1.381 1_556 S
N83 C76 1.286 . S
N83 C79 1.413 . S
H84 C89 0.930 1_556 S
H85 C92 0.930 . S
H86 C94 0.930 . S
H87 C88 1.016 . S
C88 H87 1.016 . S
C88 N95 1.286 . S
C89 H84 0.930 1_554 S
C89 C90 1.397 1_554 S
C89 C91 1.361 . S
C90 C89 1.397 1_556 S
C90 C94 1.390 1_556 S
C91 C89 1.361 . S
C91 C92 1.393 . S
C91 N95 1.413 . S
C92 H85 0.930 . S
C92 C91 1.393 . S
C92 C93 1.399 . S
C93 C92 1.399 . S
C93 C94 1.381 . S
C94 H86 0.930 . S
C94 C90 1.390 1_554 S
C94 C93 1.381 . S
N95 C88 1.286 . S
N95 C91 1.413 . S
Eu96 C105 2.828 . S
Eu96 O107 2.392 . S
Eu96 O109 2.418 1_545 S
Eu96 O114 2.373 1_655 S
Eu96 O117 2.488 . S
Eu96 O118 2.471 1_655 S
Eu96 O119 2.349 1_655 S
Eu97 O106 2.371 1_465 S
Eu97 O110 2.488 . S
Eu97 O111 2.471 . S
Eu97 O112 2.349 . S
Eu97 O115 2.392 1_565 S
Eu97 O116 2.418 1_565 S
Eu97 C126 2.828 . S
C98 O116 1.244 . S
C98 O119 1.265 . S
C99 C100 1.379 . S
C99 C103 1.373 1_455 S
C99 C105 1.505 1_455 S
C100 C99 1.379 . S
C100 C102 1.369 . S
C100 H128 0.930 . S
C101 C103 1.383 . S
C101 C104 1.382 1_655 S
C101 H129 0.930 . S
C102 C100 1.369 . S
C102 C104 1.392 . S
C102 H130 0.930 . S
C103 C99 1.373 1_655 S
C103 C101 1.383 . S
C103 H131 0.931 . S
C104 C101 1.382 1_455 S
C104 C102 1.392 . S
C105 Eu96 2.828 . S
C105 C99 1.505 1_655 S
C105 O117 1.249 . S
C105 O118 1.244 1_655 S
O106 Eu97 2.371 1_645 S
O106 C108 1.261 . S
O107 Eu96 2.392 . S
O107 C108 1.242 . S
C108 O106 1.261 . S
C108 O107 1.242 . S
O109 Eu96 2.418 1_565 S
O109 C113 1.244 . S
O110 Eu97 2.488 . S
O110 C126 1.249 . S
O111 Eu97 2.471 . S
O111 C126 1.244 . S
O112 Eu97 2.349 . S
O112 C113 1.265 1_455 S
C113 O109 1.244 . S
C113 O112 1.265 1_655 S
O114 Eu96 2.373 1_455 S
O114 C127 1.258 . S
O115 Eu97 2.392 1_545 S
O115 C127 1.242 . S
O116 Eu97 2.418 1_545 S
O116 C98 1.244 . S
O117 Eu96 2.488 . S
O117 C105 1.249 . S
O118 Eu96 2.471 1_455 S
O118 C105 1.244 1_455 S
O119 Eu96 2.349 1_455 S
O119 C98 1.265 . S
C120 C121 1.379 . S
C120 C124 1.373 . S
C120 C126 1.505 . S
C121 C120 1.379 . S
C121 C123 1.357 1_455 S
C121 H132 0.930 1_455 S
C122 C124 1.383 . S
C122 C125 1.382 . S
C122 H133 0.930 1_556 S
C123 C121 1.357 1_655 S
C123 C125 1.372 1_655 S
C123 H134 0.967 . S
C124 C120 1.373 . S
C124 C122 1.383 . S
C124 H135 0.931 . S
C125 C122 1.382 . S
C125 C123 1.372 1_455 S
C126 Eu97 2.828 . S
C126 O110 1.249 . S
C126 O111 1.244 . S
C126 C120 1.505 . S
C127 O114 1.258 . S
C127 O115 1.242 . S
H128 C100 0.930 . S
H129 C101 0.930 . S
H130 C102 0.930 . S
H131 C103 0.931 . S
H132 C121 0.930 1_655 S
H133 C122 0.930 1_554 S
H134 C123 0.967 . S
H135 C124 0.931 . S
Eu136 C145 2.828 . S
Eu136 O147 2.392 . S
Eu136 O149 2.418 . S
Eu136 O154 2.373 . S
Eu136 O157 2.488 . S
Eu136 O158 2.471 . S
Eu136 O159 2.349 1_545 S
Eu137 O146 2.373 1_565 S
Eu137 O150 2.488 . S
Eu137 O151 2.471 1_565 S
Eu137 O152 2.349 1_565 S
Eu137 O155 2.392 . S
Eu137 O156 2.418 . S
Eu137 C166 2.828 . S
C138 O156 1.244 . S
C138 O159 1.265 . S
C139 C140 1.379 . S
C139 C143 1.373 . S
C139 C145 1.505 . S
C140 C139 1.379 . S
C140 C142 1.369 . S
C140 H168 0.930 1_545 S
C141 C143 1.383 . S
C141 C144 1.382 . S
C141 H169 0.930 . S
C142 C140 1.369 . S
C142 C144 1.392 . S
C142 H170 0.930 1_545 S
C143 C139 1.373 . S
C143 C141 1.383 . S
C143 H171 0.931 . S
C144 C141 1.382 . S
C144 C142 1.392 . S
C145 Eu136 2.828 . S
C145 C139 1.505 . S
C145 O157 1.249 . S
C145 O158 1.244 . S
O146 Eu137 2.373 1_545 S
O146 C148 1.258 . S
O147 Eu136 2.392 . S
O147 C148 1.242 . S
C148 O146 1.258 . S
C148 O147 1.242 . S
O149 Eu136 2.418 . S
O149 C153 1.244 . S
O150 Eu137 2.488 . S
O150 C166 1.249 . S
O151 Eu137 2.471 1_545 S
O151 C166 1.244 1_545 S
O152 Eu137 2.349 1_545 S
O152 C153 1.265 . S
C153 O149 1.244 . S
C153 O152 1.265 . S
O154 Eu136 2.373 . S
O154 C167 1.233 1_545 S
O155 Eu137 2.392 . S
O155 C167 1.258 . S
O156 Eu137 2.418 . S
O156 C138 1.244 . S
O157 Eu136 2.488 . S
O157 C145 1.249 . S
O158 Eu136 2.471 . S
O158 C145 1.244 . S
O159 Eu136 2.349 1_565 S
O159 C138 1.265 . S
C160 C161 1.376 1_565 S
C160 C164 1.375 . S
C160 C166 1.505 . S
C161 C160 1.376 1_545 S
C161 C163 1.369 . S
C161 H172 0.930 . S
C162 C164 1.383 . S
C162 C165 1.382 1_565 S
C162 H173 0.930 . S
C163 C161 1.369 . S
C163 C165 1.392 . S
C163 H174 0.930 . S
C164 C160 1.375 . S
C164 C162 1.383 . S
C164 H175 0.931 . S
C165 C162 1.382 1_545 S
C165 C163 1.392 . S
C166 Eu137 2.828 . S
C166 O150 1.249 . S
C166 O151 1.244 1_565 S
C166 C160 1.505 . S
C167 O154 1.233 1_565 S
C167 O155 1.258 . S
H168 C140 0.930 1_565 S
H169 C141 0.930 . S
H170 C142 0.930 1_565 S
H171 C143 0.931 . S
H172 C161 0.930 . S
H173 C162 0.930 . S
H174 C163 0.930 . S
H175 C164 0.931 . S
Eu176 C185 2.828 . S
Eu176 O187 2.392 . S
Eu176 O189 2.418 . S
Eu176 O194 2.373 . S
Eu176 O197 2.488 . S
Eu176 O198 2.471 . S
Eu176 O199 2.349 . S
Eu177 O186 2.373 . S
Eu177 O190 2.488 . S
Eu177 O191 2.471 . S
Eu177 O192 2.349 . S
Eu177 O195 2.392 . S
Eu177 O196 2.418 . S
Eu177 C206 2.828 . S
C178 O196 1.244 . S
C178 O199 1.265 . S
C179 C180 1.379 . S
C179 C183 1.373 . S
C179 C185 1.505 . S
C180 C179 1.379 . S
C180 C182 1.369 . S
C180 H208 0.930 . S
C181 C183 1.383 . S
C181 C184 1.382 . S
C181 H209 0.930 . S
C182 C180 1.369 . S
C182 C184 1.392 . S
C182 H210 0.930 . S
C183 C179 1.373 . S
C183 C181 1.383 . S
C183 H211 0.931 . S
C184 C181 1.382 . S
C184 C182 1.392 . S
C185 Eu176 2.828 . S
C185 C179 1.505 . S
C185 O197 1.249 . S
C185 O198 1.244 . S
O186 Eu177 2.373 . S
O186 C188 1.258 . S
O187 Eu176 2.392 . S
O187 C188 1.242 . S
C188 O186 1.258 . S
C188 O187 1.242 . S
O189 Eu176 2.418 . S
O189 C193 1.244 . S
O190 Eu177 2.488 . S
O190 C206 1.249 . S
O191 Eu177 2.471 . S
O191 C206 1.244 . S
O192 Eu177 2.349 . S
O192 C193 1.265 . S
C193 O189 1.244 . S
C193 O192 1.265 . S
O194 Eu176 2.373 . S
O194 C207 1.258 . S
O195 Eu177 2.392 . S
O195 C207 1.242 . S
O196 Eu177 2.418 . S
O196 C178 1.244 . S
O197 Eu176 2.488 . S
O197 C185 1.249 . S
O198 Eu176 2.471 . S
O198 C185 1.244 . S
O199 Eu176 2.349 . S
O199 C178 1.265 . S
C200 C201 1.379 . S
C200 C204 1.373 . S
C200 C206 1.505 . S
C201 C200 1.379 . S
C201 C203 1.369 . S
C201 H212 0.930 . S
C202 C204 1.383 . S
C202 C205 1.382 . S
C202 H213 0.930 . S
C203 C201 1.369 . S
C203 C205 1.392 . S
C203 H214 0.930 . S
C204 C200 1.373 . S
C204 C202 1.383 . S
C204 H215 0.931 . S
C205 C202 1.382 . S
C205 C203 1.392 . S
C206 Eu177 2.828 . S
C206 O190 1.249 . S
C206 O191 1.244 . S
C206 C200 1.505 . S
C207 O194 1.258 . S
C207 O195 1.242 . S
H208 C180 0.930 . S
H209 C181 0.930 . S
H210 C182 0.930 . S
H211 C183 0.931 . S
H212 C201 0.930 . S
H213 C202 0.930 . S
H214 C203 0.930 . S
H215 C204 0.931 . S
Eu216 C225 2.828 . S
Eu216 O227 2.392 . S
Eu216 O229 2.418 1_455 S
Eu216 O234 2.373 . S
Eu216 O237 2.488 . S
Eu216 O238 2.471 . S
Eu216 O239 2.349 . S
Eu217 O226 2.373 . S
Eu217 O230 2.488 . S
Eu217 O231 2.471 . S
Eu217 O232 2.349 . S
Eu217 O235 2.392 1_655 S
Eu217 O236 2.418 1_655 S
Eu217 C246 2.828 . S
C218 O236 1.244 . S
C218 O239 1.265 . S
C219 C220 1.379 . S
C219 C223 1.373 . S
C219 C225 1.505 . S
C220 C219 1.379 . S
C220 C222 1.369 . S
C220 H248 0.930 . S
C221 C223 1.383 . S
C221 C224 1.382 . S
C221 H249 0.930 . S
C222 C220 1.369 . S
C222 C224 1.392 . S
C222 H250 0.930 . S
C223 C219 1.373 . S
C223 C221 1.383 . S
C223 H251 0.931 . S
C224 C221 1.382 . S
C224 C222 1.392 . S
C225 Eu216 2.828 . S
C225 C219 1.505 . S
C225 O237 1.249 . S
C225 O238 1.244 . S
O226 Eu217 2.373 . S
O226 C228 1.258 1_655 S
O227 Eu216 2.392 . S
O227 C228 1.242 . S
C228 O226 1.258 1_455 S
C228 O227 1.242 . S
O229 Eu216 2.418 1_655 S
O229 C233 1.244 . S
O230 Eu217 2.488 . S
O230 C246 1.249 . S
O231 Eu217 2.471 . S
O231 C246 1.244 . S
O232 Eu217 2.349 . S
O232 C233 1.265 . S
C233 O229 1.244 . S
C233 O232 1.265 . S
O234 Eu216 2.373 . S
O234 C247 1.258 . S
O235 Eu217 2.392 1_455 S
O235 C247 1.242 . S
O236 Eu217 2.418 1_455 S
O236 C218 1.244 . S
O237 Eu216 2.488 . S
O237 C225 1.249 . S
O238 Eu216 2.471 . S
O238 C225 1.244 . S
O239 Eu216 2.349 . S
O239 C218 1.265 . S
C240 C241 1.379 . S
C240 C244 1.373 . S
C240 C246 1.505 . S
C241 C240 1.379 . S
C241 C243 1.369 . S
C241 H252 0.930 . S
C242 C244 1.383 . S
C242 C245 1.382 . S
C242 H253 0.930 . S
C243 C241 1.369 . S
C243 C245 1.392 . S
C243 H254 0.930 . S
C244 C240 1.373 . S
C244 C242 1.383 . S
C244 H255 0.931 . S
C245 C242 1.382 . S
C245 C243 1.392 . S
C246 Eu217 2.828 . S
C246 O230 1.249 . S
C246 O231 1.244 . S
C246 C240 1.505 . S
C247 O234 1.258 . S
C247 O235 1.242 . S
H248 C220 0.930 . S
H249 C221 0.930 . S
H250 C222 0.930 . S
H251 C223 0.931 . S
H252 C241 0.930 . S
H253 C242 0.930 . S
H254 C243 0.930 . S
H255 C244 0.931 . S
H256 C274 0.951 . S
H257 C276 0.951 . S
H258 C278 0.950 . S
H259 C279 0.950 . S
H260 C281 0.950 . S
H261 C284 0.950 . S
H262 C285 0.950 . S
H263 C287 0.950 . S
H264 C288 0.950 . S
H265 C289 0.993 . S
H266 C291 0.951 . S
H267 C293 0.950 . S
H268 C294 0.950 . S
H269 C296 0.950 . S
H270 C299 0.950 . S
H271 C300 0.950 . S
H272 C302 0.950 . S
H273 C303 0.950 . S
C274 H256 0.951 . S
C274 C275 1.366 . S
C274 C276 1.388 . S
C275 C274 1.366 . S
C275 C279 1.385 . S
C276 H257 0.951 . S
C276 C274 1.388 . S
C276 C277 1.366 . S
C277 C276 1.366 . S
C277 C278 1.414 . S
C277 C280 1.499 . S
C278 H258 0.950 . S
C278 C277 1.414 . S
C278 C279 1.374 . S
C279 H259 0.950 . S
C279 C275 1.385 . S
C279 C278 1.374 . S
C280 C277 1.499 . S
C280 C281 1.373 . S
C280 C282 1.389 . S
C281 H260 0.950 . S
C281 C280 1.373 . S
C281 C297 1.377 . S
C282 C280 1.389 . S
C282 C283 1.524 . S
C282 C296 1.377 . S
C283 C282 1.524 . S
C283 C284 1.397 . S
C283 C288 1.363 . S
C284 H261 0.950 . S
C284 C283 1.397 . S
C284 C285 1.334 . S
C285 H262 0.950 . S
C285 C284 1.334 . S
C285 C286 1.287 . S
C286 C285 1.287 . S
C286 C287 1.524 . S
C286 H305 0.913 . S
C287 H263 0.950 . S
C287 C286 1.524 . S
C287 C288 1.415 . S
C288 H264 0.950 . S
C288 C283 1.363 . S
C288 C287 1.415 . S
C289 H265 0.993 . S
C289 C290 1.366 . S
C289 C291 1.388 . S
C290 C289 1.366 . S
C290 C294 1.385 . S
C291 H266 0.951 . S
C291 C289 1.388 . S
C291 C292 1.366 . S
C292 C291 1.366 . S
C292 C293 1.414 . S
C292 C295 1.499 . S
C293 H267 0.950 . S
C293 C292 1.414 . S
C293 C294 1.374 . S
C294 H268 0.950 . S
C294 C290 1.385 . S
C294 C293 1.374 . S
C295 C292 1.499 . S
C295 C296 1.373 . S
C295 C297 1.389 . S
C296 H269 0.950 . S
C296 C282 1.377 . S
C296 C295 1.373 . S
C297 C281 1.377 . S
C297 C295 1.389 . S
C297 C298 1.524 . S
C298 C297 1.524 . S
C298 C299 1.397 . S
C298 C303 1.363 . S
C299 H270 0.950 . S
C299 C298 1.397 . S
C299 C300 1.334 . S
C300 H271 0.950 . S
C300 C299 1.334 . S
C300 C301 1.287 . S
C301 C300 1.287 . S
C301 C302 1.524 . S
C301 H304 0.999 . S
C302 H272 0.950 . S
C302 C301 1.524 . S
C302 C303 1.415 . S
C303 H273 0.950 . S
C303 C298 1.363 . S
C303 C302 1.415 . S
H304 C301 0.999 . S
H305 C286 0.913 . S
H306 C324 0.951 . S
H307 C326 0.951 . S
H308 C328 0.950 . S
H309 C329 0.950 . S
H310 C331 0.950 . S
H311 C334 0.950 . S
H312 C335 0.950 . S
H313 C337 0.950 . S
H314 C338 0.950 . S
H315 C339 0.951 . S
H316 C341 0.951 . S
H317 C343 0.950 . S
H318 C344 0.950 . S
H319 C346 0.950 . S
H320 C349 0.950 . S
H321 C350 0.950 . S
H322 C352 0.950 . S
H323 C353 0.950 . S
C324 H306 0.951 . S
C324 C325 1.366 . S
C324 C326 1.388 . S
C325 C324 1.366 . S
C325 C329 1.385 . S
C326 H307 0.951 . S
C326 C324 1.388 . S
C326 C327 1.366 . S
C327 C326 1.366 . S
C327 C328 1.414 . S
C327 C330 1.499 . S
C328 H308 0.950 . S
C328 C327 1.414 . S
C328 C329 1.374 . S
C329 H309 0.950 . S
C329 C325 1.385 . S
C329 C328 1.374 . S
C330 C327 1.499 . S
C330 C331 1.373 . S
C330 C332 1.389 . S
C331 H310 0.950 . S
C331 C330 1.373 . S
C331 C347 1.377 . S
C332 C330 1.389 . S
C332 C333 1.524 . S
C332 C346 1.377 . S
C333 C332 1.524 . S
C333 C334 1.397 . S
C333 C338 1.363 . S
C334 H311 0.950 . S
C334 C333 1.397 . S
C334 C335 1.334 . S
C335 H312 0.950 . S
C335 C334 1.334 . S
C335 C336 1.287 . S
C336 C335 1.287 . S
C336 C337 1.524 . S
C336 H355 0.913 . S
C337 H313 0.950 . S
C337 C336 1.524 . S
C337 C338 1.415 . S
C338 H314 0.950 . S
C338 C333 1.363 . S
C338 C337 1.415 . S
C339 H315 0.951 . S
C339 C340 1.366 . S
C339 C341 1.388 . S
C340 C339 1.366 . S
C340 C344 1.385 . S
C341 H316 0.951 . S
C341 C339 1.388 . S
C341 C342 1.366 . S
C342 C341 1.366 . S
C342 C343 1.414 . S
C342 C345 1.499 . S
C343 H317 0.950 . S
C343 C342 1.414 . S
C343 C344 1.374 . S
C344 H318 0.950 . S
C344 C340 1.385 . S
C344 C343 1.374 . S
C345 C342 1.499 . S
C345 C346 1.373 . S
C345 C347 1.389 . S
C346 H319 0.950 . S
C346 C332 1.377 . S
C346 C345 1.373 . S
C347 C331 1.377 . S
C347 C345 1.389 . S
C347 C348 1.524 . S
C348 C347 1.524 . S
C348 C349 1.397 . S
C348 C353 1.363 . S
C349 H320 0.950 . S
C349 C348 1.397 . S
C349 C350 1.334 . S
C350 H321 0.950 . S
C350 C349 1.334 . S
C350 C351 1.287 . S
C351 C350 1.287 . S
C351 C352 1.524 . S
C351 H354 0.999 . S
C352 H322 0.950 . S
C352 C351 1.524 . S
C352 C353 1.415 . S
C353 H323 0.950 . S
C353 C348 1.363 . S
C353 C352 1.415 . S
H354 C351 0.999 . S
H355 C336 0.913 . S
H356 C374 0.951 . S
H357 C376 0.951 . S
H358 C378 0.950 . S
H359 C379 0.950 . S
H360 C381 0.950 . S
H361 C384 0.950 . S
H362 C385 0.950 . S
H363 C387 0.950 . S
H364 C388 0.950 . S
H365 C389 0.951 . S
H366 C391 0.951 . S
H367 C393 0.950 . S
H368 C394 0.950 . S
H369 C396 0.950 . S
H370 C399 0.950 . S
H371 C400 0.950 . S
H372 C402 0.950 . S
H373 C403 0.950 . S
C374 H356 0.951 . S
C374 C375 1.366 . S
C374 C376 1.388 . S
C375 C374 1.366 . S
C375 C379 1.385 . S
C376 H357 0.951 . S
C376 C374 1.388 . S
C376 C377 1.366 . S
C377 C376 1.366 . S
C377 C378 1.414 . S
C377 C380 1.499 . S
C378 H358 0.950 . S
C378 C377 1.414 . S
C378 C379 1.374 . S
C379 H359 0.950 . S
C379 C375 1.385 . S
C379 C378 1.374 . S
C380 C377 1.499 . S
C380 C381 1.373 . S
C380 C382 1.389 . S
C381 H360 0.950 . S
C381 C380 1.373 . S
C381 C397 1.377 . S
C382 C380 1.389 . S
C382 C383 1.524 . S
C382 C396 1.377 . S
C383 C382 1.524 . S
C383 C384 1.397 . S
C383 C388 1.363 . S
C384 H361 0.950 . S
C384 C383 1.397 . S
C384 C385 1.334 . S
C385 H362 0.950 . S
C385 C384 1.334 . S
C385 C386 1.287 . S
C386 C385 1.287 . S
C386 C387 1.524 . S
C386 H405 0.913 . S
C387 H363 0.950 . S
C387 C386 1.524 . S
C387 C388 1.415 . S
C388 H364 0.950 . S
C388 C383 1.363 . S
C388 C387 1.415 . S
C389 H365 0.951 . S
C389 C390 1.366 . S
C389 C391 1.388 . S
C390 C389 1.366 . S
C390 C394 1.385 . S
C391 H366 0.951 . S
C391 C389 1.388 . S
C391 C392 1.366 . S
C392 C391 1.366 . S
C392 C393 1.414 . S
C392 C395 1.499 . S
C393 H367 0.950 . S
C393 C392 1.414 . S
C393 C394 1.374 . S
C394 H368 0.950 . S
C394 C390 1.385 . S
C394 C393 1.374 . S
C395 C392 1.499 . S
C395 C396 1.373 . S
C395 C397 1.389 . S
C396 H369 0.950 . S
C396 C382 1.377 . S
C396 C395 1.373 . S
C397 C381 1.377 . S
C397 C395 1.389 . S
C397 C398 1.524 . S
C398 C397 1.524 . S
C398 C399 1.397 . S
C398 C403 1.363 . S
C399 H370 0.950 . S
C399 C398 1.397 . S
C399 C400 1.334 . S
C400 H371 0.950 . S
C400 C399 1.334 . S
C400 C401 1.287 . S
C401 C400 1.287 . S
C401 C402 1.524 . S
C401 H404 0.999 . S
C402 H372 0.950 . S
C402 C401 1.524 . S
C402 C403 1.415 . S
C403 H373 0.950 . S
C403 C398 1.363 . S
C403 C402 1.415 . S
H404 C401 0.999 . S
H405 C386 0.913 . S
H406 C424 0.951 . S
H407 C426 0.951 . S
H408 C428 0.950 . S
H409 C429 0.950 . S
H410 C431 0.950 . S
H411 C434 0.950 . S
H412 C435 0.925 1_655 S
H413 C437 0.950 . S
H414 C438 0.950 . S
H415 C439 0.951 . S
H416 C441 0.951 . S
H417 C443 0.950 . S
H418 C444 0.950 . S
H419 C446 0.950 . S
H420 C449 0.950 . S
H421 C450 0.950 . S
H422 C452 0.950 . S
H423 C453 0.950 . S
C424 H406 0.951 . S
C424 C425 1.366 . S
C424 C426 1.388 . S
C425 C424 1.366 . S
C425 C429 1.385 . S
C426 H407 0.951 . S
C426 C424 1.388 . S
C426 C427 1.366 . S
C427 C426 1.366 . S
C427 C428 1.414 . S
C427 C430 1.499 . S
C428 H408 0.950 . S
C428 C427 1.414 . S
C428 C429 1.374 . S
C429 H409 0.950 . S
C429 C425 1.385 . S
C429 C428 1.374 . S
C430 C427 1.499 . S
C430 C431 1.373 . S
C430 C432 1.389 . S
C431 H410 0.950 . S
C431 C430 1.373 . S
C431 C447 1.377 . S
C432 C430 1.389 . S
C432 C433 1.524 . S
C432 C446 1.377 . S
C433 C432 1.524 . S
C433 C434 1.397 . S
C433 C438 1.363 . S
C434 H411 0.950 . S
C434 C433 1.397 . S
C434 C435 1.334 . S
C435 H412 0.925 1_455 S
C435 C434 1.334 . S
C435 C436 1.287 . S
C436 C435 1.287 . S
C436 C437 1.524 . S
C436 H455 0.913 . S
C437 H413 0.950 . S
C437 C436 1.524 . S
C437 C438 1.415 . S
C438 H414 0.950 . S
C438 C433 1.363 . S
C438 C437 1.415 . S
C439 H415 0.951 . S
C439 C440 1.366 . S
C439 C441 1.388 . S
C440 C439 1.366 . S
C440 C444 1.385 . S
C441 H416 0.951 . S
C441 C439 1.388 . S
C441 C442 1.366 . S
C442 C441 1.366 . S
C442 C443 1.414 . S
C442 C445 1.499 . S
C443 H417 0.950 . S
C443 C442 1.414 . S
C443 C444 1.374 . S
C444 H418 0.950 . S
C444 C440 1.385 . S
C444 C443 1.374 . S
C445 C442 1.499 . S
C445 C446 1.373 . S
C445 C447 1.389 . S
C446 H419 0.950 . S
C446 C432 1.377 . S
C446 C445 1.373 . S
C447 C431 1.377 . S
C447 C445 1.389 . S
C447 C448 1.524 . S
C448 C447 1.524 . S
C448 C449 1.397 . S
C448 C453 1.363 . S
C449 H420 0.950 . S
C449 C448 1.397 . S
C449 C450 1.334 . S
C450 H421 0.950 . S
C450 C449 1.334 . S
C450 C451 1.287 . S
C451 C450 1.287 . S
C451 C452 1.524 . S
C451 H454 0.999 . S
C452 H422 0.950 . S
C452 C451 1.524 . S
C452 C453 1.415 . S
C453 H423 0.950 . S
C453 C448 1.363 . S
C453 C452 1.415 . S
H454 C451 0.999 . S
H455 C436 0.913 . S
H456 C474 0.951 . S
H457 C476 0.951 . S
H458 C478 0.950 . S
H459 C479 0.950 . S
H460 C481 0.950 1_545 S
H461 C484 0.950 . S
H462 C485 0.950 . S
H463 C487 0.950 . S
H464 C488 0.950 . S
H465 C489 0.951 . S
H466 C491 0.951 . S
H467 C493 0.954 . S
H468 C494 0.961 . S
H469 C496 0.950 . S
H470 C499 0.950 . S
H471 C500 0.950 . S
H472 C502 0.950 . S
H473 C503 0.950 . S
C474 H456 0.951 . S
C474 C475 1.366 . S
C474 C476 1.388 . S
C475 C474 1.366 . S
C475 C479 1.385 . S
C476 H457 0.951 . S
C476 C474 1.388 . S
C476 C477 1.366 . S
C477 C476 1.366 . S
C477 C478 1.414 . S
C477 C480 1.499 . S
C478 H458 0.950 . S
C478 C477 1.414 . S
C478 C479 1.374 . S
C479 H459 0.950 . S
C479 C475 1.385 . S
C479 C478 1.374 . S
C480 C477 1.499 . S
C480 C481 1.373 . S
C480 C482 1.389 1_554 S
C481 H460 0.950 1_565 S
C481 C480 1.373 . S
C481 C497 1.377 1_565 S
C482 C480 1.389 1_556 S
C482 C483 1.524 . S
C482 C496 1.377 . S
C483 C482 1.524 . S
C483 C484 1.397 1_556 S
C483 C488 1.363 . S
C484 H461 0.950 . S
C484 C483 1.397 1_554 S
C484 C485 1.334 . S
C485 H462 0.950 . S
C485 C484 1.334 . S
C485 C486 1.287 1_554 S
C486 C485 1.287 1_556 S
C486 C487 1.524 . S
C486 H505 0.913 . S
C487 H463 0.950 . S
C487 C486 1.524 . S
C487 C488 1.415 . S
C488 H464 0.950 . S
C488 C483 1.363 . S
C488 C487 1.415 . S
C489 H465 0.951 . S
C489 C490 1.375 . S
C489 C491 1.388 . S
C490 C489 1.375 . S
C490 C494 1.379 1_565 S
C491 H466 0.951 . S
C491 C489 1.388 . S
C491 C492 1.366 . S
C492 C491 1.366 . S
C492 C493 1.414 . S
C492 C495 1.499 . S
C493 H467 0.954 . S
C493 C492 1.414 . S
C493 C494 1.369 1_565 S
C494 H468 0.961 . S
C494 C490 1.379 1_545 S
C494 C493 1.369 1_545 S
C495 C492 1.499 . S
C495 C496 1.373 . S
C495 C497 1.389 1_566 S
C496 H469 0.950 . S
C496 C482 1.377 . S
C496 C495 1.373 . S
C497 C481 1.377 1_545 S
C497 C495 1.389 1_544 S
C497 C498 1.524 . S
C498 C497 1.524 . S
C498 C499 1.397 1_554 S
C498 C503 1.363 . S
C499 H470 0.950 . S
C499 C498 1.397 1_556 S
C499 C500 1.334 . S
C500 H471 0.950 . S
C500 C499 1.334 . S
C500 C501 1.287 1_556 S
C501 C500 1.287 1_554 S
C501 C502 1.524 . S
C501 H504 0.999 . S
C502 H472 0.950 . S
C502 C501 1.524 . S
C502 C503 1.415 . S
C503 H473 0.950 . S
C503 C498 1.363 . S
C503 C502 1.415 . S
H504 C501 0.999 . S
H505 C486 0.913 . S
H506 C524 0.951 . S
H507 C526 0.951 . S
H508 C528 0.950 . S
H509 C529 0.950 . S
H510 C531 0.950 . S
H511 C534 0.950 1_554 S
H512 C535 0.950 . S
H513 C537 0.950 . S
H514 C538 0.950 . S
H515 C539 0.951 . S
H516 C541 0.951 . S
H517 C543 0.950 . S
H518 C544 0.950 . S
H519 C546 0.950 . S
H520 C549 0.950 . S
H521 C550 0.950 . S
H522 C552 0.950 . S
H523 C553 0.950 . S
C524 H506 0.951 . S
C524 C525 1.366 . S
C524 C526 1.388 . S
C525 C524 1.366 . S
C525 C529 1.385 . S
C526 H507 0.951 . S
C526 C524 1.388 . S
C526 C527 1.366 . S
C527 C526 1.366 . S
C527 C528 1.414 . S
C527 C530 1.499 . S
C528 H508 0.950 . S
C528 C527 1.414 . S
C528 C529 1.374 . S
C529 H509 0.950 . S
C529 C525 1.385 . S
C529 C528 1.374 . S
C530 C527 1.499 . S
C530 C531 1.373 . S
C530 C532 1.389 1_554 S
C531 H510 0.950 . S
C531 C530 1.373 . S
C531 C547 1.377 1_554 S
C532 C530 1.389 1_556 S
C532 C533 1.524 . S
C532 C546 1.377 . S
C533 C532 1.524 . S
C533 C534 1.397 . S
C533 C538 1.363 . S
C534 H511 0.950 1_556 S
C534 C533 1.397 . S
C534 C535 1.334 . S
C535 H512 0.950 . S
C535 C534 1.334 . S
C535 C536 1.287 . S
C536 C535 1.287 . S
C536 C537 1.524 . S
C536 H555 0.913 . S
C537 H513 0.950 . S
C537 C536 1.524 . S
C537 C538 1.415 . S
C538 H514 0.950 . S
C538 C533 1.363 . S
C538 C537 1.415 . S
C539 H515 0.951 . S
C539 C540 1.366 . S
C539 C541 1.388 . S
C540 C539 1.366 . S
C540 C544 1.385 . S
C541 H516 0.951 . S
C541 C539 1.388 . S
C541 C542 1.366 . S
C542 C541 1.366 . S
C542 C543 1.414 . S
C542 C545 1.499 . S
C543 H517 0.950 . S
C543 C542 1.414 . S
C543 C544 1.374 . S
C544 H518 0.950 . S
C544 C540 1.385 . S
C544 C543 1.374 . S
C545 C542 1.499 . S
C545 C546 1.373 . S
C545 C547 1.389 . S
C546 H519 0.950 . S
C546 C532 1.377 . S
C546 C545 1.373 . S
C547 C531 1.377 1_556 S
C547 C545 1.389 . S
C547 C548 1.524 . S
C548 C547 1.524 . S
C548 C549 1.397 . S
C548 C553 1.363 1_556 S
C549 H520 0.950 . S
C549 C548 1.397 . S
C549 C550 1.334 . S
C550 H521 0.950 . S
C550 C549 1.334 . S
C550 C551 1.287 . S
C551 C550 1.287 . S
C551 C552 1.524 1_556 S
C551 H554 0.999 1_556 S
C552 H522 0.950 . S
C552 C551 1.524 1_554 S
C552 C553 1.415 . S
C553 H523 0.950 . S
C553 C548 1.363 1_554 S
C553 C552 1.415 . S
H554 C551 0.999 1_554 S
H555 C536 0.913 . S
H556 C574 0.951 . S
H557 C576 0.951 . S
H558 C578 0.950 . S
H559 C579 0.950 . S
H560 C581 0.950 . S
H561 C584 0.950 . S
H562 C585 0.950 . S
H563 C587 0.950 . S
H564 C588 0.950 . S
H565 C589 0.951 . S
H566 C591 0.951 . S
H567 C593 0.950 . S
H568 C594 0.950 . S
H569 C596 0.950 . S
H570 C599 0.950 . S
H571 C600 0.950 . S
H572 C602 0.950 . S
H573 C603 0.950 . S
C574 H556 0.951 . S
C574 C575 1.366 . S
C574 C576 1.388 . S
C575 C574 1.366 . S
C575 C579 1.385 . S
C576 H557 0.951 . S
C576 C574 1.388 . S
C576 C577 1.366 . S
C577 C576 1.366 . S
C577 C578 1.414 . S
C577 C580 1.499 1_554 S
C578 H558 0.950 . S
C578 C577 1.414 . S
C578 C579 1.374 . S
C579 H559 0.950 . S
C579 C575 1.385 . S
C579 C578 1.374 . S
C580 C577 1.499 1_556 S
C580 C581 1.373 1_556 S
C580 C582 1.389 . S
C581 H560 0.950 . S
C581 C580 1.373 1_554 S
C581 C597 1.377 1_554 S
C582 C580 1.389 . S
C582 C583 1.524 . S
C582 C596 1.377 . S
C583 C582 1.524 . S
C583 C584 1.397 . S
C583 C588 1.363 . S
C584 H561 0.950 . S
C584 C583 1.397 . S
C584 C585 1.334 . S
C585 H562 0.950 . S
C585 C584 1.334 . S
C585 C586 1.287 . S
C586 C585 1.287 . S
C586 C587 1.524 . S
C586 H605 0.913 . S
C587 H563 0.950 . S
C587 C586 1.524 . S
C587 C588 1.415 . S
C588 H564 0.950 . S
C588 C583 1.363 . S
C588 C587 1.415 . S
C589 H565 0.951 . S
C589 C590 1.366 . S
C589 C591 1.388 . S
C590 C589 1.366 . S
C590 C594 1.385 . S
C591 H566 0.951 . S
C591 C589 1.388 . S
C591 C592 1.366 . S
C592 C591 1.366 . S
C592 C593 1.414 . S
C592 C595 1.499 . S
C593 H567 0.950 . S
C593 C592 1.414 . S
C593 C594 1.374 . S
C594 H568 0.950 . S
C594 C590 1.385 . S
C594 C593 1.374 . S
C595 C592 1.499 . S
C595 C596 1.373 . S
C595 C597 1.389 . S
C596 H569 0.950 . S
C596 C582 1.377 . S
C596 C595 1.373 . S
C597 C581 1.377 1_556 S
C597 C595 1.389 . S
C597 C598 1.524 . S
C598 C597 1.524 . S
C598 C599 1.397 . S
C598 C603 1.363 1_556 S
C599 H570 0.950 . S
C599 C598 1.397 . S
C599 C600 1.334 . S
C600 H571 0.950 . S
C600 C599 1.334 . S
C600 C601 1.287 1_556 S
C601 C600 1.287 1_554 S
C601 C602 1.524 . S
C601 H604 0.999 . S
C602 H572 0.950 . S
C602 C601 1.524 . S
C602 C603 1.415 . S
C603 H573 0.950 . S
C603 C598 1.363 1_554 S
C603 C602 1.415 . S
H604 C601 0.999 . S
H605 C586 0.913 . S
H606 C624 0.951 . S
H607 C626 0.951 . S
H608 C628 0.950 . S
H609 C629 0.950 . S
H610 C631 0.950 . S
H611 C634 0.950 . S
H612 C635 0.950 . S
H613 C637 0.950 . S
H614 C638 0.950 . S
H615 C639 0.951 . S
H616 C641 0.951 . S
H617 C643 0.952 . S
H618 C644 0.950 . S
H619 C646 0.950 . S
H620 C649 0.950 . S
H621 C650 0.950 . S
H622 C652 0.950 . S
H623 C653 0.950 . S
C624 H606 0.951 . S
C624 C625 1.366 . S
C624 C626 1.388 . S
C625 C624 1.366 . S
C625 C629 1.385 . S
C626 H607 0.951 . S
C626 C624 1.388 . S
C626 C627 1.366 . S
C627 C626 1.366 . S
C627 C628 1.414 . S
C627 C630 1.499 . S
C628 H608 0.950 . S
C628 C627 1.414 . S
C628 C629 1.374 . S
C629 H609 0.950 . S
C629 C625 1.385 . S
C629 C628 1.374 . S
C630 C627 1.499 . S
C630 C631 1.373 . S
C630 C632 1.389 1_554 S
C631 H610 0.950 . S
C631 C630 1.373 . S
C631 C647 1.377 1_554 S
C632 C630 1.389 1_556 S
C632 C633 1.524 . S
C632 C646 1.377 . S
C633 C632 1.524 . S
C633 C634 1.397 . S
C633 C638 1.363 . S
C634 H611 0.950 . S
C634 C633 1.397 . S
C634 C635 1.334 . S
C635 H612 0.950 . S
C635 C634 1.334 . S
C635 C636 1.287 . S
C636 C635 1.287 . S
C636 C637 1.524 . S
C636 H655 0.913 . S
C637 H613 0.950 . S
C637 C636 1.524 . S
C637 C638 1.415 . S
C638 H614 0.950 . S
C638 C633 1.363 . S
C638 C637 1.415 . S
C639 H615 0.951 . S
C639 C640 1.366 . S
C639 C641 1.388 . S
C640 C639 1.366 . S
C640 C644 1.385 1_655 S
C641 H616 0.951 . S
C641 C639 1.388 . S
C641 C642 1.366 . S
C642 C641 1.366 . S
C642 C643 1.412 1_655 S
C642 C645 1.499 . S
C643 H617 0.952 . S
C643 C642 1.412 1_455 S
C643 C644 1.375 . S
C644 H618 0.950 . S
C644 C640 1.385 1_455 S
C644 C643 1.375 . S
C645 C642 1.499 . S
C645 C646 1.373 . S
C645 C647 1.389 . S
C646 H619 0.950 . S
C646 C632 1.377 . S
C646 C645 1.373 . S
C647 C631 1.377 1_556 S
C647 C645 1.389 . S
C647 C648 1.524 1_656 S
C648 C647 1.524 1_454 S
C648 C649 1.397 1_554 S
C648 C653 1.363 1_455 S
C649 H620 0.950 . S
C649 C648 1.397 1_556 S
C649 C650 1.334 1_556 S
C650 H621 0.950 . S
C650 C649 1.334 1_554 S
C650 C651 1.287 . S
C651 C650 1.287 . S
C651 C652 1.524 . S
C651 H654 0.999 . S
C652 H622 0.950 . S
C652 C651 1.524 . S
C652 C653 1.415 1_455 S
C653 H623 0.950 . S
C653 C648 1.363 1_655 S
C653 C652 1.415 1_655 S
H654 C651 0.999 . S
H655 C636 0.913 . S
H656 C674 0.951 . S
H657 C676 0.951 . S
H658 C678 0.950 . S
H659 C679 0.950 . S
H660 C681 0.950 . S
H661 C684 0.950 . S
H662 C685 0.950 . S
H663 C687 0.950 . S
H664 C688 0.950 . S
H665 C689 0.951 . S
H666 C691 0.951 . S
H667 C693 0.950 . S
H668 C694 0.950 1_655 S
H669 C696 0.950 . S
H670 C699 0.950 . S
H671 C700 0.950 . S
H672 C702 0.950 . S
H673 C703 0.950 . S
C674 H656 0.951 . S
C674 C675 1.366 . S
C674 C676 1.388 . S
C675 C674 1.366 . S
C675 C679 1.385 . S
C676 H657 0.951 . S
C676 C674 1.388 . S
C676 C677 1.366 . S
C677 C676 1.366 . S
C677 C678 1.414 . S
C677 C680 1.499 . S
C678 H658 0.950 . S
C678 C677 1.414 . S
C678 C679 1.374 . S
C679 H659 0.950 . S
C679 C675 1.385 . S
C679 C678 1.374 . S
C680 C677 1.499 . S
C680 C681 1.373 . S
C680 C682 1.389 . S
C681 H660 0.950 . S
C681 C680 1.373 . S
C681 C697 1.377 . S
C682 C680 1.389 . S
C682 C683 1.524 . S
C682 C696 1.377 . S
C683 C682 1.524 . S
C683 C684 1.397 . S
C683 C688 1.363 . S
C684 H661 0.950 . S
C684 C683 1.397 . S
C684 C685 1.334 . S
C685 H662 0.950 . S
C685 C684 1.334 . S
C685 C686 1.287 . S
C686 C685 1.287 . S
C686 C687 1.524 . S
C686 H705 0.913 . S
C687 H663 0.950 . S
C687 C686 1.524 . S
C687 C688 1.415 . S
C688 H664 0.950 . S
C688 C683 1.363 . S
C688 C687 1.415 . S
C689 H665 0.951 . S
C689 C690 1.366 . S
C689 C691 1.388 . S
C690 C689 1.366 . S
C690 C694 1.385 . S
C691 H666 0.951 . S
C691 C689 1.388 . S
C691 C692 1.366 . S
C692 C691 1.366 . S
C692 C693 1.414 . S
C692 C695 1.499 . S
C693 H667 0.950 . S
C693 C692 1.414 . S
C693 C694 1.374 . S
C694 H668 0.950 1_455 S
C694 C690 1.385 . S
C694 C693 1.374 . S
C695 C692 1.499 . S
C695 C696 1.373 . S
C695 C697 1.389 . S
C696 H669 0.950 . S
C696 C682 1.377 . S
C696 C695 1.373 . S
C697 C681 1.377 . S
C697 C695 1.389 . S
C697 C698 1.524 . S
C698 C697 1.524 . S
C698 C699 1.397 1_455 S
C698 C703 1.363 . S
C699 H670 0.950 . S
C699 C698 1.397 1_655 S
C699 C700 1.334 . S
C700 H671 0.950 . S
C700 C699 1.334 . S
C700 C701 1.273 1_655 S
C701 C700 1.273 1_455 S
C701 C702 1.547 . S
C701 H704 0.992 1_455 S
C702 H672 0.950 . S
C702 C701 1.547 . S
C702 C703 1.415 . S
C703 H673 0.950 . S
C703 C698 1.363 . S
C703 C702 1.415 . S
H704 C701 0.992 1_655 S
H705 C686 0.913 . S
H706 C724 0.951 . S
H707 C726 0.951 . S
H708 C728 0.950 . S
H709 C729 0.950 . S
H710 C731 0.950 . S
H711 C734 0.950 . S
H712 C735 0.950 . S
H713 C737 0.950 . S
H714 C738 0.950 . S
H715 C739 0.951 . S
H716 C741 0.951 . S
H717 C743 0.950 . S
H718 C744 0.950 . S
H719 C746 0.950 . S
H720 C749 0.950 1_545 S
H721 C750 0.950 . S
H722 C752 0.950 . S
H723 C753 0.950 . S
C724 H706 0.951 . S
C724 C725 1.366 . S
C724 C726 1.388 . S
C725 C724 1.366 . S
C725 C729 1.385 . S
C726 H707 0.951 . S
C726 C724 1.388 . S
C726 C727 1.366 . S
C727 C726 1.366 . S
C727 C728 1.414 . S
C727 C730 1.499 . S
C728 H708 0.950 . S
C728 C727 1.414 . S
C728 C729 1.374 . S
C729 H709 0.950 . S
C729 C725 1.385 . S
C729 C728 1.374 . S
C730 C727 1.499 . S
C730 C731 1.373 . S
C730 C732 1.389 . S
C731 H710 0.950 . S
C731 C730 1.373 . S
C731 C747 1.377 . S
C732 C730 1.389 . S
C732 C733 1.524 . S
C732 C746 1.377 . S
C733 C732 1.524 . S
C733 C734 1.397 . S
C733 C738 1.363 . S
C734 H711 0.950 . S
C734 C733 1.397 . S
C734 C735 1.334 . S
C735 H712 0.950 . S
C735 C734 1.334 . S
C735 C736 1.287 . S
C736 C735 1.287 . S
C736 C737 1.524 . S
C736 H755 0.913 . S
C737 H713 0.950 . S
C737 C736 1.524 . S
C737 C738 1.415 . S
C738 H714 0.950 . S
C738 C733 1.363 . S
C738 C737 1.415 . S
C739 H715 0.951 . S
C739 C740 1.366 1_565 S
C739 C741 1.388 . S
C740 C739 1.366 1_545 S
C740 C744 1.385 . S
C741 H716 0.951 . S
C741 C739 1.388 . S
C741 C742 1.366 1_565 S
C742 C741 1.366 1_545 S
C742 C743 1.414 . S
C742 C745 1.499 . S
C743 H717 0.950 . S
C743 C742 1.414 . S
C743 C744 1.374 . S
C744 H718 0.950 . S
C744 C740 1.385 . S
C744 C743 1.374 . S
C745 C742 1.499 . S
C745 C746 1.373 . S
C745 C747 1.389 . S
C746 H719 0.950 . S
C746 C732 1.377 . S
C746 C745 1.373 . S
C747 C731 1.377 . S
C747 C745 1.389 . S
C747 C748 1.524 1_545 S
C748 C747 1.524 1_565 S
C748 C749 1.397 . S
C748 C753 1.363 . S
C749 H720 0.950 1_565 S
C749 C748 1.397 . S
C749 C750 1.334 . S
C750 H721 0.950 . S
C750 C749 1.334 . S
C750 C751 1.287 . S
C751 C750 1.287 . S
C751 C752 1.524 . S
C751 H754 0.999 . S
C752 H722 0.950 . S
C752 C751 1.524 . S
C752 C753 1.415 . S
C753 H723 0.950 . S
C753 C748 1.363 . S
C753 C752 1.415 . S
H754 C751 0.999 . S
H755 C736 0.913 . S
H756 C774 0.951 . S
H757 C776 0.951 . S
H758 C778 0.950 . S
H759 C779 0.950 . S
H760 C781 0.950 . S
H761 C784 0.950 . S
H762 C785 0.950 . S
H763 C787 0.950 . S
H764 C788 0.950 . S
H765 C789 0.951 . S
H766 C791 0.951 . S
H767 C793 0.950 . S
H768 C794 0.950 . S
H769 C796 0.950 . S
H770 C799 0.950 . S
H771 C800 0.950 . S
H772 C802 0.950 . S
H773 C803 0.950 . S
C774 H756 0.951 . S
C774 C775 1.366 . S
C774 C776 1.388 . S
C775 C774 1.366 . S
C775 C779 1.385 . S
C776 H757 0.951 . S
C776 C774 1.388 . S
C776 C777 1.366 . S
C777 C776 1.366 . S
C777 C778 1.414 . S
C777 C780 1.499 . S
C778 H758 0.950 . S
C778 C777 1.414 . S
C778 C779 1.374 . S
C779 H759 0.950 . S
C779 C775 1.385 . S
C779 C778 1.374 . S
C780 C777 1.499 . S
C780 C781 1.373 . S
C780 C782 1.389 . S
C781 H760 0.950 . S
C781 C780 1.373 . S
C781 C797 1.377 . S
C782 C780 1.389 . S
C782 C783 1.524 . S
C782 C796 1.377 . S
C783 C782 1.524 . S
C783 C784 1.397 . S
C783 C788 1.363 . S
C784 H761 0.950 . S
C784 C783 1.397 . S
C784 C785 1.334 . S
C785 H762 0.950 . S
C785 C784 1.334 . S
C785 C786 1.287 . S
C786 C785 1.287 . S
C786 C787 1.524 . S
C786 H805 0.913 . S
C787 H763 0.950 . S
C787 C786 1.524 . S
C787 C788 1.415 . S
C788 H764 0.950 . S
C788 C783 1.363 . S
C788 C787 1.415 . S
C789 H765 0.951 . S
C789 C790 1.366 . S
C789 C791 1.388 . S
C790 C789 1.366 . S
C790 C794 1.385 . S
C791 H766 0.951 . S
C791 C789 1.388 . S
C791 C792 1.366 . S
C792 C791 1.366 . S
C792 C793 1.414 . S
C792 C795 1.499 . S
C793 H767 0.950 . S
C793 C792 1.414 . S
C793 C794 1.374 . S
C794 H768 0.950 . S
C794 C790 1.385 . S
C794 C793 1.374 . S
C795 C792 1.499 . S
C795 C796 1.373 . S
C795 C797 1.389 . S
C796 H769 0.950 . S
C796 C782 1.377 . S
C796 C795 1.373 . S
C797 C781 1.377 . S
C797 C795 1.389 . S
C797 C798 1.524 . S
C798 C797 1.524 . S
C798 C799 1.397 . S
C798 C803 1.363 . S
C799 H770 0.950 . S
C799 C798 1.397 . S
C799 C800 1.334 . S
C800 H771 0.950 . S
C800 C799 1.334 . S
C800 C801 1.287 . S
C801 C800 1.287 . S
C801 C802 1.524 . S
C801 H804 0.999 . S
C802 H772 0.950 . S
C802 C801 1.524 . S
C802 C803 1.415 . S
C803 H773 0.950 . S
C803 C798 1.363 . S
C803 C802 1.415 . S
H804 C801 0.999 . S
H805 C786 0.913 . S
H806 C824 0.951 . S
H807 C826 0.951 . S
H808 C828 0.950 . S
H809 C829 0.950 . S
H810 C831 0.950 . S
H811 C834 0.950 . S
H812 C835 0.950 . S
H813 C837 0.950 . S
H814 C838 0.950 . S
H815 C839 0.951 . S
H816 C841 0.951 . S
H817 C843 0.950 . S
H818 C844 0.950 . S
H819 C846 0.950 . S
H820 C849 0.950 . S
H821 C850 0.950 . S
H822 C852 0.950 . S
H823 C853 0.950 . S
C824 H806 0.951 . S
C824 C825 1.366 . S
C824 C826 1.388 . S
C825 C824 1.366 . S
C825 C829 1.385 . S
C826 H807 0.951 . S
C826 C824 1.388 . S
C826 C827 1.366 . S
C827 C826 1.366 . S
C827 C828 1.414 . S
C827 C830 1.499 . S
C828 H808 0.950 . S
C828 C827 1.414 . S
C828 C829 1.374 . S
C829 H809 0.950 . S
C829 C825 1.385 . S
C829 C828 1.374 . S
C830 C827 1.499 . S
C830 C831 1.373 . S
C830 C832 1.389 . S
C831 H810 0.950 . S
C831 C830 1.373 . S
C831 C847 1.377 . S
C832 C830 1.389 . S
C832 C833 1.524 . S
C832 C846 1.377 . S
C833 C832 1.524 . S
C833 C834 1.397 . S
C833 C838 1.363 . S
C834 H811 0.950 . S
C834 C833 1.397 . S
C834 C835 1.334 . S
C835 H812 0.950 . S
C835 C834 1.334 . S
C835 C836 1.287 . S
C836 C835 1.287 . S
C836 C837 1.524 . S
C836 H855 0.913 . S
C837 H813 0.950 . S
C837 C836 1.524 . S
C837 C838 1.415 . S
C838 H814 0.950 . S
C838 C833 1.363 . S
C838 C837 1.415 . S
C839 H815 0.951 . S
C839 C840 1.366 . S
C839 C841 1.388 . S
C840 C839 1.366 . S
C840 C844 1.385 . S
C841 H816 0.951 . S
C841 C839 1.388 . S
C841 C842 1.366 . S
C842 C841 1.366 . S
C842 C843 1.414 . S
C842 C845 1.499 . S
C843 H817 0.950 . S
C843 C842 1.414 . S
C843 C844 1.374 . S
C844 H818 0.950 . S
C844 C840 1.385 . S
C844 C843 1.374 . S
C845 C842 1.499 . S
C845 C846 1.373 . S
C845 C847 1.389 . S
C846 H819 0.950 . S
C846 C832 1.377 . S
C846 C845 1.373 . S
C847 C831 1.377 . S
C847 C845 1.389 . S
C847 C848 1.524 . S
C848 C847 1.524 . S
C848 C849 1.397 . S
C848 C853 1.363 . S
C849 H820 0.950 . S
C849 C848 1.397 . S
C849 C850 1.334 . S
C850 H821 0.950 . S
C850 C849 1.334 . S
C850 C851 1.287 . S
C851 C850 1.287 . S
C851 C852 1.524 . S
C851 H854 0.999 . S
C852 H822 0.950 . S
C852 C851 1.524 . S
C852 C853 1.415 . S
C853 H823 0.950 . S
C853 C848 1.363 . S
C853 C852 1.415 . S
H854 C851 0.999 . S
H855 C836 0.913 . S
H856 C874 0.951 . S
H857 C876 0.951 . S
H858 C878 0.982 . S
H859 C879 0.950 . S
H860 C881 0.950 . S
H861 C884 0.950 . S
H862 C885 0.950 . S
H863 C887 0.950 . S
H864 C888 0.950 . S
H865 C889 0.951 . S
H866 C891 0.951 . S
H867 C893 0.950 . S
H868 C894 0.950 . S
H869 C896 0.950 1_556 S
H870 C899 0.950 . S
H871 C900 0.950 . S
H872 C902 0.950 . S
H873 C903 0.950 . S
C874 H856 0.951 . S
C874 C875 1.366 . S
C874 C876 1.388 . S
C875 C874 1.366 . S
C875 C879 1.385 . S
C876 H857 0.951 . S
C876 C874 1.388 . S
C876 C877 1.366 . S
C877 C876 1.366 . S
C877 C878 1.414 . S
C877 C880 1.499 . S
C878 H858 0.982 . S
C878 C877 1.414 . S
C878 C879 1.374 . S
C879 H859 0.950 . S
C879 C875 1.385 . S
C879 C878 1.374 . S
C880 C877 1.499 . S
C880 C881 1.373 . S
C880 C882 1.389 . S
C881 H860 0.950 . S
C881 C880 1.373 . S
C881 C897 1.377 . S
C882 C880 1.389 . S
C882 C883 1.524 . S
C882 C896 1.377 . S
C883 C882 1.524 . S
C883 C884 1.397 . S
C883 C888 1.363 1_554 S
C884 H861 0.950 . S
C884 C883 1.397 . S
C884 C885 1.334 1_554 S
C885 H862 0.950 . S
C885 C884 1.334 1_556 S
C885 C886 1.287 . S
C886 C885 1.287 . S
C886 C887 1.524 . S
C886 H905 0.913 . S
C887 H863 0.950 . S
C887 C886 1.524 . S
C887 C888 1.415 . S
C888 H864 0.950 . S
C888 C883 1.363 1_556 S
C888 C887 1.415 . S
C889 H865 0.951 . S
C889 C890 1.366 1_554 S
C889 C891 1.388 . S
C890 C889 1.366 1_556 S
C890 C894 1.385 1_455 S
C891 H866 0.951 . S
C891 C889 1.388 . S
C891 C892 1.366 1_455 S
C892 C891 1.366 1_655 S
C892 C893 1.414 1_554 S
C892 C895 1.499 . S
C893 H867 0.950 . S
C893 C892 1.414 1_556 S
C893 C894 1.374 . S
C894 H868 0.950 . S
C894 C890 1.385 1_655 S
C894 C893 1.374 . S
C895 C892 1.499 . S
C895 C896 1.373 . S
C895 C897 1.389 . S
C896 H869 0.950 1_554 S
C896 C882 1.377 . S
C896 C895 1.373 . S
C897 C881 1.377 . S
C897 C895 1.389 . S
C897 C898 1.524 . S
C898 C897 1.524 . S
C898 C899 1.397 . S
C898 C903 1.363 1_655 S
C899 H870 0.950 . S
C899 C898 1.397 . S
C899 C900 1.334 . S
C900 H871 0.950 . S
C900 C899 1.334 . S
C900 C901 1.287 . S
C901 C900 1.287 . S
C901 C902 1.524 1_655 S
C901 H904 0.996 1_655 S
C902 H872 0.950 . S
C902 C901 1.524 1_455 S
C902 C903 1.415 . S
C903 H873 0.950 . S
C903 C898 1.363 1_455 S
C903 C902 1.415 . S
H904 C901 0.996 1_455 S
H905 C886 0.913 . S
H906 C924 0.951 . S
H907 C926 0.951 . S
H908 C928 0.950 . S
H909 C929 0.950 . S
H910 C931 0.954 . S
H911 C934 0.950 . S
H912 C935 0.950 . S
H913 C937 0.950 . S
H914 C938 0.950 . S
H915 C939 0.951 . S
H916 C941 0.951 1_565 S
H917 C943 0.950 1_554 S
H918 C944 0.950 . S
H919 C946 0.950 . S
H920 C949 0.950 . S
H921 C950 0.950 . S
H922 C952 0.950 . S
H923 C953 0.950 1_565 S
C924 H906 0.951 . S
C924 C925 1.366 . S
C924 C926 1.388 . S
C925 C924 1.366 . S
C925 C929 1.385 . S
C926 H907 0.951 . S
C926 C924 1.388 . S
C926 C927 1.366 . S
C927 C926 1.366 . S
C927 C928 1.414 . S
C927 C930 1.499 . S
C928 H908 0.950 . S
C928 C927 1.414 . S
C928 C929 1.374 . S
C929 H909 0.950 . S
C929 C925 1.385 . S
C929 C928 1.374 . S
C930 C927 1.499 . S
C930 C931 1.373 . S
C930 C932 1.389 . S
C931 H910 0.954 . S
C931 C930 1.373 . S
C931 C947 1.377 1_565 S
C932 C930 1.389 . S
C932 C933 1.524 . S
C932 C946 1.377 . S
C933 C932 1.524 . S
C933 C934 1.397 . S
C933 C938 1.363 . S
C934 H911 0.950 . S
C934 C933 1.397 . S
C934 C935 1.334 . S
C935 H912 0.950 . S
C935 C934 1.334 . S
C935 C936 1.287 . S
C936 C935 1.287 . S
C936 C937 1.524 . S
C936 H955 0.913 . S
C937 H913 0.950 . S
C937 C936 1.524 . S
C937 C938 1.415 . S
C938 H914 0.950 . S
C938 C933 1.363 . S
C938 C937 1.415 . S
C939 H915 0.951 . S
C939 C940 1.366 . S
C939 C941 1.388 . S
C940 C939 1.366 . S
C940 C944 1.385 . S
C941 H916 0.951 1_545 S
C941 C939 1.388 . S
C941 C942 1.366 . S
C942 C941 1.366 . S
C942 C943 1.414 . S
C942 C945 1.499 1_556 S
C943 H917 0.950 1_556 S
C943 C942 1.414 . S
C943 C944 1.374 . S
C944 H918 0.950 . S
C944 C940 1.385 . S
C944 C943 1.374 . S
C945 C942 1.499 1_554 S
C945 C946 1.373 1_545 S
C945 C947 1.389 . S
C946 H919 0.950 . S
C946 C932 1.377 . S
C946 C945 1.373 1_565 S
C947 C931 1.377 1_545 S
C947 C945 1.389 . S
C947 C948 1.524 1_554 S
C948 C947 1.524 1_556 S
C948 C949 1.397 . S
C948 C953 1.363 . S
C949 H920 0.950 . S
C949 C948 1.397 . S
C949 C950 1.334 . S
C950 H921 0.950 . S
C950 C949 1.334 . S
C950 C951 1.287 . S
C951 C950 1.287 . S
C951 C952 1.524 . S
C951 H954 0.999 . S
C952 H922 0.950 . S
C952 C951 1.524 . S
C952 C953 1.415 . S
C953 H923 0.950 1_545 S
C953 C948 1.363 . S
C953 C952 1.415 . S
H954 C951 0.999 . S
H955 C936 0.913 . S
H956 C974 0.951 . S
H957 C976 0.951 . S
H958 C978 0.950 . S
H959 C979 0.950 . S
H960 C981 0.948 1_556 S
H961 C984 0.950 . S
H962 C985 0.950 . S
H963 C987 0.950 . S
H964 C988 0.950 . S
H965 C989 0.951 . S
H966 C991 0.951 . S
H967 C993 0.950 1_554 S
H968 C994 0.950 . S
H969 C996 0.950 . S
H970 C999 0.950 . S
H971 C1000 0.950 . S
H972 C1002 0.950 . S
H973 C1003 0.950 . S
C974 H956 0.951 . S
C974 C975 1.366 . S
C974 C976 1.388 . S
C975 C974 1.366 . S
C975 C979 1.385 . S
C976 H957 0.951 . S
C976 C974 1.388 . S
C976 C977 1.366 . S
C977 C976 1.366 . S
C977 C978 1.414 . S
C977 C980 1.499 . S
C978 H958 0.950 . S
C978 C977 1.414 . S
C978 C979 1.374 . S
C979 H959 0.950 . S
C979 C975 1.385 . S
C979 C978 1.374 . S
C980 C977 1.499 . S
C980 C981 1.380 . S
C980 C982 1.389 . S
C981 H960 0.948 1_554 S
C981 C980 1.380 . S
C981 C997 1.372 1_554 S
C982 C980 1.389 . S
C982 C983 1.524 . S
C982 C996 1.377 . S
C983 C982 1.524 . S
C983 C984 1.397 . S
C983 C988 1.363 . S
C984 H961 0.950 . S
C984 C983 1.397 . S
C984 C985 1.334 . S
C985 H962 0.950 . S
C985 C984 1.334 . S
C985 C986 1.287 . S
C986 C985 1.287 . S
C986 C987 1.524 . S
C986 H1005 0.913 . S
C987 H963 0.950 . S
C987 C986 1.524 . S
C987 C988 1.415 . S
C988 H964 0.950 . S
C988 C983 1.363 . S
C988 C987 1.415 . S
C989 H965 0.951 . S
C989 C990 1.366 . S
C989 C991 1.388 . S
C990 C989 1.366 . S
C990 C994 1.385 . S
C991 H966 0.951 . S
C991 C989 1.388 . S
C991 C992 1.366 . S
C992 C991 1.366 . S
C992 C993 1.414 . S
C992 C995 1.499 . S
C993 H967 0.950 1_556 S
C993 C992 1.414 . S
C993 C994 1.374 . S
C994 H968 0.950 . S
C994 C990 1.385 . S
C994 C993 1.374 . S
C995 C992 1.499 . S
C995 C996 1.373 1_556 S
C995 C997 1.389 . S
C996 H969 0.950 . S
C996 C982 1.377 . S
C996 C995 1.373 1_554 S
C997 C981 1.372 1_556 S
C997 C995 1.389 . S
C997 C998 1.524 . S
C998 C997 1.524 . S
C998 C999 1.397 . S
C998 C1003 1.363 . S
C999 H970 0.950 . S
C999 C998 1.397 . S
C999 C1000 1.334 . S
C1000 H971 0.950 . S
C1000 C999 1.334 . S
C1000 C1001 1.287 . S
C1001 C1000 1.287 . S
C1001 C1002 1.524 . S
C1001 H1004 0.999 . S
C1002 H972 0.950 . S
C1002 C1001 1.524 . S
C1002 C1003 1.415 . S
C1003 H973 0.950 . S
C1003 C998 1.363 . S
C1003 C1002 1.415 . S
H1004 C1001 0.999 . S
H1005 C986 0.913 . S
H1006 C1024 0.951 . S
H1007 C1026 0.951 . S
H1008 C1028 0.950 . S
H1009 C1029 0.950 . S
H1010 C1031 0.950 . S
H1011 C1034 0.950 . S
H1012 C1035 0.950 . S
H1013 C1037 0.950 . S
H1014 C1038 0.950 . S
H1015 C1039 0.951 . S
H1016 C1041 0.951 1_554 S
H1017 C1043 0.950 . S
H1018 C1044 0.950 . S
H1019 C1046 0.950 . S
H1020 C1049 0.950 . S
H1021 C1050 0.950 . S
H1022 C1052 0.950 . S
H1023 C1053 0.950 . S
C1024 H1006 0.951 . S
C1024 C1025 1.366 . S
C1024 C1026 1.388 . S
C1025 C1024 1.366 . S
C1025 C1029 1.385 . S
C1026 H1007 0.951 . S
C1026 C1024 1.388 . S
C1026 C1027 1.366 . S
C1027 C1026 1.366 . S
C1027 C1028 1.414 . S
C1027 C1030 1.499 . S
C1028 H1008 0.950 . S
C1028 C1027 1.414 . S
C1028 C1029 1.374 . S
C1029 H1009 0.950 . S
C1029 C1025 1.385 . S
C1029 C1028 1.374 . S
C1030 C1027 1.499 . S
C1030 C1031 1.373 . S
C1030 C1032 1.389 . S
C1031 H1010 0.950 . S
C1031 C1030 1.373 . S
C1031 C1047 1.377 . S
C1032 C1030 1.389 . S
C1032 C1033 1.524 . S
C1032 C1046 1.377 . S
C1033 C1032 1.524 . S
C1033 C1034 1.397 . S
C1033 C1038 1.363 . S
C1034 H1011 0.950 . S
C1034 C1033 1.397 . S
C1034 C1035 1.334 . S
C1035 H1012 0.950 . S
C1035 C1034 1.334 . S
C1035 C1036 1.287 . S
C1036 C1035 1.287 . S
C1036 C1037 1.524 . S
C1036 H1055 0.913 . S
C1037 H1013 0.950 . S
C1037 C1036 1.524 . S
C1037 C1038 1.415 . S
C1038 H1014 0.950 . S
C1038 C1033 1.363 . S
C1038 C1037 1.415 . S
C1039 H1015 0.951 . S
C1039 C1040 1.366 . S
C1039 C1041 1.388 . S
C1040 C1039 1.366 . S
C1040 C1044 1.385 . S
C1041 H1016 0.951 1_556 S
C1041 C1039 1.388 . S
C1041 C1042 1.366 . S
C1042 C1041 1.366 . S
C1042 C1043 1.414 . S
C1042 C1045 1.499 1_556 S
C1043 H1017 0.950 . S
C1043 C1042 1.414 . S
C1043 C1044 1.374 . S
C1044 H1018 0.950 . S
C1044 C1040 1.385 . S
C1044 C1043 1.374 . S
C1045 C1042 1.499 1_554 S
C1045 C1046 1.373 . S
C1045 C1047 1.389 . S
C1046 H1019 0.950 . S
C1046 C1032 1.377 . S
C1046 C1045 1.373 . S
C1047 C1031 1.377 . S
C1047 C1045 1.389 . S
C1047 C1048 1.524 1_554 S
C1048 C1047 1.524 1_556 S
C1048 C1049 1.397 . S
C1048 C1053 1.363 . S
C1049 H1020 0.950 . S
C1049 C1048 1.397 . S
C1049 C1050 1.334 . S
C1050 H1021 0.950 . S
C1050 C1049 1.334 . S
C1050 C1051 1.287 . S
C1051 C1050 1.287 . S
C1051 C1052 1.524 . S
C1051 H1054 0.999 . S
C1052 H1022 0.950 . S
C1052 C1051 1.524 . S
C1052 C1053 1.415 . S
C1053 H1023 0.950 . S
C1053 C1048 1.363 . S
C1053 C1052 1.415 . S
H1054 C1051 0.999 . S
H1055 C1036 0.913 . S
H1056 C1074 0.951 . S
H1057 C1076 0.951 . S
H1058 C1078 0.950 . S
H1059 C1079 0.950 . S
H1060 C1081 0.950 . S
H1061 C1084 0.933 1_455 S
H1062 C1085 0.950 . S
H1063 C1087 0.950 . S
H1064 C1088 0.950 . S
H1065 C1089 0.951 . S
H1066 C1091 0.951 . S
H1067 C1093 0.950 . S
H1068 C1094 0.950 . S
H1069 C1096 0.950 . S
H1070 C1099 0.950 . S
H1071 C1100 0.950 . S
H1072 C1102 0.950 . S
H1073 C1103 0.950 . S
C1074 H1056 0.951 . S
C1074 C1075 1.366 . S
C1074 C1076 1.388 . S
C1075 C1074 1.366 . S
C1075 C1079 1.385 . S
C1076 H1057 0.951 . S
C1076 C1074 1.388 . S
C1076 C1077 1.366 . S
C1077 C1076 1.366 . S
C1077 C1078 1.414 . S
C1077 C1080 1.499 . S
C1078 H1058 0.950 . S
C1078 C1077 1.414 . S
C1078 C1079 1.374 . S
C1079 H1059 0.950 . S
C1079 C1075 1.385 . S
C1079 C1078 1.374 . S
C1080 C1077 1.499 . S
C1080 C1081 1.373 . S
C1080 C1082 1.389 . S
C1081 H1060 0.950 . S
C1081 C1080 1.373 . S
C1081 C1097 1.377 . S
C1082 C1080 1.389 . S
C1082 C1083 1.524 . S
C1082 C1096 1.377 . S
C1083 C1082 1.524 . S
C1083 C1084 1.393 1_455 S
C1083 C1088 1.363 1_455 S
C1084 H1061 0.933 1_655 S
C1084 C1083 1.393 1_655 S
C1084 C1085 1.354 . S
C1085 H1062 0.950 . S
C1085 C1084 1.354 . S
C1085 C1086 1.287 . S
C1086 C1085 1.287 . S
C1086 C1087 1.524 . S
C1086 H1105 0.913 . S
C1087 H1063 0.950 . S
C1087 C1086 1.524 . S
C1087 C1088 1.415 . S
C1088 H1064 0.950 . S
C1088 C1083 1.363 1_655 S
C1088 C1087 1.415 . S
C1089 H1065 0.951 . S
C1089 C1090 1.366 . S
C1089 C1091 1.388 . S
C1090 C1089 1.366 . S
C1090 C1094 1.385 . S
C1091 H1066 0.951 . S
C1091 C1089 1.388 . S
C1091 C1092 1.366 . S
C1092 C1091 1.366 . S
C1092 C1093 1.414 . S
C1092 C1095 1.499 . S
C1093 H1067 0.950 . S
C1093 C1092 1.414 . S
C1093 C1094 1.374 . S
C1094 H1068 0.950 . S
C1094 C1090 1.385 . S
C1094 C1093 1.374 . S
C1095 C1092 1.499 . S
C1095 C1096 1.373 . S
C1095 C1097 1.389 . S
C1096 H1069 0.950 . S
C1096 C1082 1.377 . S
C1096 C1095 1.373 . S
C1097 C1081 1.377 . S
C1097 C1095 1.389 . S
C1097 C1098 1.524 . S
C1098 C1097 1.524 . S
C1098 C1099 1.397 . S
C1098 C1103 1.363 . S
C1099 H1070 0.950 . S
C1099 C1098 1.397 . S
C1099 C1100 1.334 . S
C1100 H1071 0.950 . S
C1100 C1099 1.334 . S
C1100 C1101 1.287 . S
C1101 C1100 1.287 . S
C1101 C1102 1.524 . S
C1101 H1104 0.999 . S
C1102 H1072 0.950 . S
C1102 C1101 1.524 . S
C1102 C1103 1.415 . S
C1103 H1073 0.950 . S
C1103 C1098 1.363 . S
C1103 C1102 1.415 . S
H1104 C1101 0.999 . S
H1105 C1086 0.913 . S
H1106 C1124 0.951 . S
H1107 C1126 0.951 . S
H1108 C1128 0.950 . S
H1109 C1129 0.950 . S
H1110 C1131 0.950 . S
H1111 C1134 0.950 . S
H1112 C1135 0.950 . S
H1113 C1137 0.950 . S
H1114 C1138 0.950 . S
H1115 C1139 0.951 . S
H1116 C1141 0.951 . S
H1117 C1143 0.950 . S
H1118 C1144 0.950 . S
H1119 C1146 0.950 . S
H1120 C1149 0.950 . S
H1121 C1150 0.950 . S
H1122 C1152 0.950 . S
H1123 C1153 0.950 1_545 S
C1124 H1106 0.951 . S
C1124 C1125 1.366 . S
C1124 C1126 1.388 . S
C1125 C1124 1.366 . S
C1125 C1129 1.385 . S
C1126 H1107 0.951 . S
C1126 C1124 1.388 . S
C1126 C1127 1.366 . S
C1127 C1126 1.366 . S
C1127 C1128 1.414 . S
C1127 C1130 1.499 . S
C1128 H1108 0.950 . S
C1128 C1127 1.414 . S
C1128 C1129 1.374 . S
C1129 H1109 0.950 . S
C1129 C1125 1.385 . S
C1129 C1128 1.374 . S
C1130 C1127 1.499 . S
C1130 C1131 1.373 . S
C1130 C1132 1.389 . S
C1131 H1110 0.950 . S
C1131 C1130 1.373 . S
C1131 C1147 1.377 . S
C1132 C1130 1.389 . S
C1132 C1133 1.524 . S
C1132 C1146 1.377 . S
C1133 C1132 1.524 . S
C1133 C1134 1.397 . S
C1133 C1138 1.363 . S
C1134 H1111 0.950 . S
C1134 C1133 1.397 . S
C1134 C1135 1.334 . S
C1135 H1112 0.950 . S
C1135 C1134 1.334 . S
C1135 C1136 1.287 . S
C1136 C1135 1.287 . S
C1136 C1137 1.524 . S
C1136 H1155 0.913 . S
C1137 H1113 0.950 . S
C1137 C1136 1.524 . S
C1137 C1138 1.415 . S
C1138 H1114 0.950 . S
C1138 C1133 1.363 . S
C1138 C1137 1.415 . S
C1139 H1115 0.951 . S
C1139 C1140 1.366 . S
C1139 C1141 1.388 . S
C1140 C1139 1.366 . S
C1140 C1144 1.385 . S
C1141 H1116 0.951 . S
C1141 C1139 1.388 . S
C1141 C1142 1.366 . S
C1142 C1141 1.366 . S
C1142 C1143 1.414 . S
C1142 C1145 1.499 . S
C1143 H1117 0.950 . S
C1143 C1142 1.414 . S
C1143 C1144 1.374 . S
C1144 H1118 0.950 . S
C1144 C1140 1.385 . S
C1144 C1143 1.374 . S
C1145 C1142 1.499 . S
C1145 C1146 1.373 . S
C1145 C1147 1.389 . S
C1146 H1119 0.950 . S
C1146 C1132 1.377 . S
C1146 C1145 1.373 . S
C1147 C1131 1.377 . S
C1147 C1145 1.389 . S
C1147 C1148 1.549 . S
C1148 C1147 1.549 . S
C1148 C1149 1.380 1_545 S
C1148 C1153 1.356 1_545 S
C1149 H1120 0.950 . S
C1149 C1148 1.380 1_565 S
C1149 C1150 1.334 . S
C1150 H1121 0.950 . S
C1150 C1149 1.334 . S
C1150 C1151 1.287 . S
C1151 C1150 1.287 . S
C1151 C1152 1.524 . S
C1151 H1154 0.999 . S
C1152 H1122 0.950 . S
C1152 C1151 1.524 . S
C1152 C1153 1.415 . S
C1153 H1123 0.950 1_565 S
C1153 C1148 1.356 1_565 S
C1153 C1152 1.415 . S
H1154 C1151 0.999 . S
H1155 C1136 0.913 . S
H1156 C1174 0.951 . S
H1157 C1176 0.951 . S
H1158 C1178 0.950 . S
H1159 C1179 0.950 . S
H1160 C1181 0.950 . S
H1161 C1184 0.950 . S
H1162 C1185 0.950 . S
H1163 C1187 0.950 . S
H1164 C1188 0.950 . S
H1165 C1189 0.951 . S
H1166 C1191 0.951 . S
H1167 C1193 0.950 . S
H1168 C1194 0.950 . S
H1169 C1196 0.950 . S
H1170 C1199 0.950 . S
H1171 C1200 0.950 . S
H1172 C1202 0.950 . S
H1173 C1203 0.950 . S
C1174 H1156 0.951 . S
C1174 C1175 1.366 . S
C1174 C1176 1.388 . S
C1175 C1174 1.366 . S
C1175 C1179 1.385 . S
C1176 H1157 0.951 . S
C1176 C1174 1.388 . S
C1176 C1177 1.366 . S
C1177 C1176 1.366 . S
C1177 C1178 1.414 . S
C1177 C1180 1.499 . S
C1178 H1158 0.950 . S
C1178 C1177 1.414 . S
C1178 C1179 1.374 . S
C1179 H1159 0.950 . S
C1179 C1175 1.385 . S
C1179 C1178 1.374 . S
C1180 C1177 1.499 . S
C1180 C1181 1.373 . S
C1180 C1182 1.389 . S
C1181 H1160 0.950 . S
C1181 C1180 1.373 . S
C1181 C1197 1.377 . S
C1182 C1180 1.389 . S
C1182 C1183 1.524 . S
C1182 C1196 1.377 . S
C1183 C1182 1.524 . S
C1183 C1184 1.397 . S
C1183 C1188 1.363 . S
C1184 H1161 0.950 . S
C1184 C1183 1.397 . S
C1184 C1185 1.334 . S
C1185 H1162 0.950 . S
C1185 C1184 1.334 . S
C1185 C1186 1.287 . S
C1186 C1185 1.287 . S
C1186 C1187 1.524 . S
C1186 H1205 0.913 . S
C1187 H1163 0.950 . S
C1187 C1186 1.524 . S
C1187 C1188 1.415 . S
C1188 H1164 0.950 . S
C1188 C1183 1.363 . S
C1188 C1187 1.415 . S
C1189 H1165 0.951 . S
C1189 C1190 1.366 . S
C1189 C1191 1.388 . S
C1190 C1189 1.366 . S
C1190 C1194 1.385 . S
C1191 H1166 0.951 . S
C1191 C1189 1.388 . S
C1191 C1192 1.366 . S
C1192 C1191 1.366 . S
C1192 C1193 1.414 . S
C1192 C1195 1.499 . S
C1193 H1167 0.950 . S
C1193 C1192 1.414 . S
C1193 C1194 1.374 . S
C1194 H1168 0.950 . S
C1194 C1190 1.385 . S
C1194 C1193 1.374 . S
C1195 C1192 1.499 . S
C1195 C1196 1.373 . S
C1195 C1197 1.389 . S
C1196 H1169 0.950 . S
C1196 C1182 1.377 . S
C1196 C1195 1.373 . S
C1197 C1181 1.377 . S
C1197 C1195 1.389 . S
C1197 C1198 1.524 . S
C1198 C1197 1.524 . S
C1198 C1199 1.397 . S
C1198 C1203 1.363 . S
C1199 H1170 0.950 . S
C1199 C1198 1.397 . S
C1199 C1200 1.334 . S
C1200 H1171 0.950 . S
C1200 C1199 1.334 . S
C1200 C1201 1.287 . S
C1201 C1200 1.287 . S
C1201 C1202 1.524 . S
C1201 H1204 0.999 . S
C1202 H1172 0.950 . S
C1202 C1201 1.524 . S
C1202 C1203 1.415 . S
C1203 H1173 0.950 . S
C1203 C1198 1.363 . S
C1203 C1202 1.415 . S
H1204 C1201 0.999 . S
H1205 C1186 0.913 . S
H1206 C1224 0.951 1_554 S
H1207 C1226 0.954 . S
H1208 C1228 0.950 . S
H1209 C1229 0.950 . S
H1210 C1231 0.950 . S
H1211 C1234 0.950 . S
H1212 C1235 0.950 . S
H1213 C1237 0.950 1_554 S
H1214 C1238 0.950 . S
H1215 C1239 0.951 . S
H1216 C1241 0.951 . S
H1217 C1243 0.950 . S
H1218 C1244 0.950 . S
H1219 C1246 0.950 . S
H1220 C1249 0.950 . S
H1221 C1250 0.950 . S
H1222 C1252 0.950 . S
H1223 C1253 0.950 . S
C1224 H1206 0.951 1_556 S
C1224 C1225 1.366 . S
C1224 C1226 1.388 . S
C1225 C1224 1.366 . S
C1225 C1229 1.385 . S
C1226 H1207 0.954 . S
C1226 C1224 1.388 . S
C1226 C1227 1.366 . S
C1227 C1226 1.366 . S
C1227 C1228 1.414 . S
C1227 C1230 1.499 . S
C1228 H1208 0.950 . S
C1228 C1227 1.414 . S
C1228 C1229 1.374 . S
C1229 H1209 0.950 . S
C1229 C1225 1.385 . S
C1229 C1228 1.374 . S
C1230 C1227 1.499 . S
C1230 C1231 1.373 . S
C1230 C1232 1.389 . S
C1231 H1210 0.950 . S
C1231 C1230 1.373 . S
C1231 C1247 1.377 . S
C1232 C1230 1.389 . S
C1232 C1233 1.524 . S
C1232 C1246 1.377 . S
C1233 C1232 1.524 . S
C1233 C1234 1.397 . S
C1233 C1238 1.363 . S
C1234 H1211 0.950 . S
C1234 C1233 1.397 . S
C1234 C1235 1.334 . S
C1235 H1212 0.950 . S
C1235 C1234 1.334 . S
C1235 C1236 1.287 . S
C1236 C1235 1.287 . S
C1236 C1237 1.524 . S
C1236 H1255 0.913 . S
C1237 H1213 0.950 1_556 S
C1237 C1236 1.524 . S
C1237 C1238 1.415 . S
C1238 H1214 0.950 . S
C1238 C1233 1.363 . S
C1238 C1237 1.415 . S
C1239 H1215 0.951 . S
C1239 C1240 1.366 . S
C1239 C1241 1.388 . S
C1240 C1239 1.366 . S
C1240 C1244 1.385 . S
C1241 H1216 0.951 . S
C1241 C1239 1.388 . S
C1241 C1242 1.366 . S
C1242 C1241 1.366 . S
C1242 C1243 1.414 . S
C1242 C1245 1.499 . S
C1243 H1217 0.950 . S
C1243 C1242 1.414 . S
C1243 C1244 1.374 . S
C1244 H1218 0.950 . S
C1244 C1240 1.385 . S
C1244 C1243 1.374 . S
C1245 C1242 1.499 . S
C1245 C1246 1.373 . S
C1245 C1247 1.389 . S
C1246 H1219 0.950 . S
C1246 C1232 1.377 . S
C1246 C1245 1.373 . S
C1247 C1231 1.377 . S
C1247 C1245 1.389 . S
C1247 C1248 1.524 . S
C1248 C1247 1.524 . S
C1248 C1249 1.397 . S
C1248 C1253 1.363 . S
C1249 H1220 0.950 . S
C1249 C1248 1.397 . S
C1249 C1250 1.334 . S
C1250 H1221 0.950 . S
C1250 C1249 1.334 . S
C1250 C1251 1.287 . S
C1251 C1250 1.287 . S
C1251 C1252 1.524 . S
C1251 H1254 0.999 . S
C1252 H1222 0.950 . S
C1252 C1251 1.524 . S
C1252 C1253 1.415 . S
C1253 H1223 0.950 . S
C1253 C1248 1.363 . S
C1253 C1252 1.415 . S
H1254 C1251 0.999 . S
H1255 C1236 0.913 . S
H1256 C1274 0.951 . S
H1257 C1276 0.951 . S
H1258 C1278 0.950 . S
H1259 C1279 0.950 . S
H1260 C1281 0.950 . S
H1261 C1284 0.950 . S
H1262 C1285 0.950 . S
H1263 C1287 0.950 . S
H1264 C1288 0.950 . S
H1265 C1289 0.951 . S
H1266 C1291 0.951 . S
H1267 C1293 0.945 1_455 S
H1268 C1294 0.950 . S
H1269 C1296 0.959 . S
H1270 C1299 0.950 . S
H1271 C1300 0.950 . S
H1272 C1302 0.950 . S
H1273 C1303 0.950 . S
C1274 H1256 0.951 . S
C1274 C1275 1.366 . S
C1274 C1276 1.388 . S
C1275 C1274 1.366 . S
C1275 C1279 1.385 . S
C1276 H1257 0.951 . S
C1276 C1274 1.388 . S
C1276 C1277 1.366 . S
C1277 C1276 1.366 . S
C1277 C1278 1.414 . S
C1277 C1280 1.499 . S
C1278 H1258 0.950 . S
C1278 C1277 1.414 . S
C1278 C1279 1.374 . S
C1279 H1259 0.950 . S
C1279 C1275 1.385 . S
C1279 C1278 1.374 . S
C1280 C1277 1.499 . S
C1280 C1281 1.373 . S
C1280 C1282 1.389 . S
C1281 H1260 0.950 . S
C1281 C1280 1.373 . S
C1281 C1297 1.377 . S
C1282 C1280 1.389 . S
C1282 C1283 1.524 1_655 S
C1282 C1296 1.376 1_655 S
C1283 C1282 1.524 1_455 S
C1283 C1284 1.397 . S
C1283 C1288 1.363 . S
C1284 H1261 0.950 . S
C1284 C1283 1.397 . S
C1284 C1285 1.334 . S
C1285 H1262 0.950 . S
C1285 C1284 1.334 . S
C1285 C1286 1.287 . S
C1286 C1285 1.287 . S
C1286 C1287 1.524 . S
C1286 H1305 0.913 . S
C1287 H1263 0.950 . S
C1287 C1286 1.524 . S
C1287 C1288 1.415 . S
C1288 H1264 0.950 . S
C1288 C1283 1.363 . S
C1288 C1287 1.415 . S
C1289 H1265 0.951 . S
C1289 C1290 1.366 . S
C1289 C1291 1.388 . S
C1290 C1289 1.366 . S
C1290 C1294 1.385 1_655 S
C1291 H1266 0.951 . S
C1291 C1289 1.388 . S
C1291 C1292 1.366 . S
C1292 C1291 1.366 . S
C1292 C1293 1.421 . S
C1292 C1295 1.499 . S
C1293 H1267 0.945 1_655 S
C1293 C1292 1.421 . S
C1293 C1294 1.372 1_655 S
C1294 H1268 0.950 . S
C1294 C1290 1.385 1_455 S
C1294 C1293 1.372 1_455 S
C1295 C1292 1.499 . S
C1295 C1296 1.366 1_655 S
C1295 C1297 1.389 . S
C1296 H1269 0.959 . S
C1296 C1282 1.376 1_455 S
C1296 C1295 1.366 1_455 S
C1297 C1281 1.377 . S
C1297 C1295 1.389 . S
C1297 C1298 1.524 . S
C1298 C1297 1.524 . S
C1298 C1299 1.397 . S
C1298 C1303 1.363 . S
C1299 H1270 0.950 . S
C1299 C1298 1.397 . S
C1299 C1300 1.334 . S
C1300 H1271 0.950 . S
C1300 C1299 1.334 . S
C1300 C1301 1.287 . S
C1301 C1300 1.287 . S
C1301 C1302 1.524 . S
C1301 H1304 0.999 . S
C1302 H1272 0.950 . S
C1302 C1301 1.524 . S
C1302 C1303 1.415 . S
C1303 H1273 0.950 . S
C1303 C1298 1.363 . S
C1303 C1302 1.415 . S
H1304 C1301 0.999 . S
H1305 C1286 0.913 . S
H1306 C1324 0.951 1_545 S
H1307 C1326 0.951 1_545 S
H1308 C1328 0.950 . S
H1309 C1329 0.950 . S
H1310 C1331 0.950 . S
H1311 C1334 0.950 . S
H1312 C1335 0.950 . S
H1313 C1337 0.950 . S
H1314 C1338 0.950 . S
H1315 C1339 0.951 . S
H1316 C1341 0.951 . S
H1317 C1343 0.950 . S
H1318 C1344 0.950 . S
H1319 C1346 0.928 1_545 S
H1320 C1349 0.950 . S
H1321 C1350 0.950 . S
H1322 C1352 0.950 . S
H1323 C1353 0.950 . S
C1324 H1306 0.951 1_565 S
C1324 C1325 1.366 . S
C1324 C1326 1.388 . S
C1325 C1324 1.366 . S
C1325 C1329 1.385 . S
C1326 H1307 0.951 1_565 S
C1326 C1324 1.388 . S
C1326 C1327 1.366 . S
C1327 C1326 1.366 . S
C1327 C1328 1.414 . S
C1327 C1330 1.499 . S
C1328 H1308 0.950 . S
C1328 C1327 1.414 . S
C1328 C1329 1.374 . S
C1329 H1309 0.950 . S
C1329 C1325 1.385 . S
C1329 C1328 1.374 . S
C1330 C1327 1.499 . S
C1330 C1331 1.373 . S
C1330 C1332 1.389 . S
C1331 H1310 0.950 . S
C1331 C1330 1.373 . S
C1331 C1347 1.377 . S
C1332 C1330 1.389 . S
C1332 C1333 1.524 1_565 S
C1332 C1346 1.381 . S
C1333 C1332 1.524 1_545 S
C1333 C1334 1.397 1_545 S
C1333 C1338 1.363 . S
C1334 H1311 0.950 . S
C1334 C1333 1.397 1_565 S
C1334 C1335 1.334 1_565 S
C1335 H1312 0.950 . S
C1335 C1334 1.334 1_545 S
C1335 C1336 1.287 . S
C1336 C1335 1.287 . S
C1336 C1337 1.524 . S
C1336 H1355 0.913 . S
C1337 H1313 0.950 . S
C1337 C1336 1.524 . S
C1337 C1338 1.415 . S
C1338 H1314 0.950 . S
C1338 C1333 1.363 . S
C1338 C1337 1.415 . S
C1339 H1315 0.951 . S
C1339 C1340 1.366 . S
C1339 C1341 1.388 . S
C1340 C1339 1.366 . S
C1340 C1344 1.385 1_565 S
C1341 H1316 0.951 . S
C1341 C1339 1.388 . S
C1341 C1342 1.366 . S
C1342 C1341 1.366 . S
C1342 C1343 1.414 1_565 S
C1342 C1345 1.499 . S
C1343 H1317 0.950 . S
C1343 C1342 1.414 1_545 S
C1343 C1344 1.374 . S
C1344 H1318 0.950 . S
C1344 C1340 1.385 1_545 S
C1344 C1343 1.374 . S
C1345 C1342 1.499 . S
C1345 C1346 1.391 . S
C1345 C1347 1.389 . S
C1346 H1319 0.928 1_565 S
C1346 C1332 1.381 . S
C1346 C1345 1.391 . S
C1347 C1331 1.377 . S
C1347 C1345 1.389 . S
C1347 C1348 1.524 . S
C1348 C1347 1.524 . S
C1348 C1349 1.397 . S
C1348 C1353 1.363 . S
C1349 H1320 0.950 . S
C1349 C1348 1.397 . S
C1349 C1350 1.334 . S
C1350 H1321 0.950 . S
C1350 C1349 1.334 . S
C1350 C1351 1.287 . S
C1351 C1350 1.287 . S
C1351 C1352 1.524 . S
C1351 H1354 0.999 . S
C1352 H1322 0.950 . S
C1352 C1351 1.524 . S
C1352 C1353 1.415 . S
C1353 H1323 0.950 . S
C1353 C1348 1.363 . S
C1353 C1352 1.415 . S
H1354 C1351 0.999 . S
H1355 C1336 0.913 . S
H1356 C1374 0.951 . S
H1357 C1376 0.951 . S
H1358 C1378 0.950 . S
H1359 C1379 0.950 . S
H1360 C1381 0.950 . S
H1361 C1384 0.950 . S
H1362 C1385 0.950 . S
H1363 C1387 0.950 . S
H1364 C1388 0.950 . S
H1365 C1389 0.951 . S
H1366 C1391 0.951 . S
H1367 C1393 0.950 . S
H1368 C1394 0.950 . S
H1369 C1396 0.950 . S
H1370 C1399 0.950 . S
H1371 C1400 0.950 . S
H1372 C1402 0.950 . S
H1373 C1403 0.950 . S
C1374 H1356 0.951 . S
C1374 C1375 1.366 . S
C1374 C1376 1.388 . S
C1375 C1374 1.366 . S
C1375 C1379 1.385 . S
C1376 H1357 0.951 . S
C1376 C1374 1.388 . S
C1376 C1377 1.366 . S
C1377 C1376 1.366 . S
C1377 C1378 1.414 . S
C1377 C1380 1.499 . S
C1378 H1358 0.950 . S
C1378 C1377 1.414 . S
C1378 C1379 1.374 . S
C1379 H1359 0.950 . S
C1379 C1375 1.385 . S
C1379 C1378 1.374 . S
C1380 C1377 1.499 . S
C1380 C1381 1.373 . S
C1380 C1382 1.389 . S
C1381 H1360 0.950 . S
C1381 C1380 1.373 . S
C1381 C1397 1.377 . S
C1382 C1380 1.389 . S
C1382 C1383 1.524 . S
C1382 C1396 1.377 . S
C1383 C1382 1.524 . S
C1383 C1384 1.397 . S
C1383 C1388 1.363 . S
C1384 H1361 0.950 . S
C1384 C1383 1.397 . S
C1384 C1385 1.334 . S
C1385 H1362 0.950 . S
C1385 C1384 1.334 . S
C1385 C1386 1.287 . S
C1386 C1385 1.287 . S
C1386 C1387 1.524 . S
C1386 H1405 0.913 . S
C1387 H1363 0.950 . S
C1387 C1386 1.524 . S
C1387 C1388 1.415 . S
C1388 H1364 0.950 . S
C1388 C1383 1.363 . S
C1388 C1387 1.415 . S
C1389 H1365 0.951 . S
C1389 C1390 1.366 . S
C1389 C1391 1.388 . S
C1390 C1389 1.366 . S
C1390 C1394 1.385 . S
C1391 H1366 0.951 . S
C1391 C1389 1.388 . S
C1391 C1392 1.366 . S
C1392 C1391 1.366 . S
C1392 C1393 1.414 . S
C1392 C1395 1.499 . S
C1393 H1367 0.950 . S
C1393 C1392 1.414 . S
C1393 C1394 1.374 . S
C1394 H1368 0.950 . S
C1394 C1390 1.385 . S
C1394 C1393 1.374 . S
C1395 C1392 1.499 . S
C1395 C1396 1.373 . S
C1395 C1397 1.389 . S
C1396 H1369 0.950 . S
C1396 C1382 1.377 . S
C1396 C1395 1.373 . S
C1397 C1381 1.377 . S
C1397 C1395 1.389 . S
C1397 C1398 1.524 . S
C1398 C1397 1.524 . S
C1398 C1399 1.397 . S
C1398 C1403 1.363 . S
C1399 H1370 0.950 . S
C1399 C1398 1.397 . S
C1399 C1400 1.334 . S
C1400 H1371 0.950 . S
C1400 C1399 1.334 . S
C1400 C1401 1.287 . S
C1401 C1400 1.287 . S
C1401 C1402 1.524 . S
C1401 H1404 0.999 . S
C1402 H1372 0.950 . S
C1402 C1401 1.524 . S
C1402 C1403 1.415 . S
C1403 H1373 0.950 . S
C1403 C1398 1.363 . S
C1403 C1402 1.415 . S
H1404 C1401 0.999 . S
H1405 C1386 0.913 . S
H1406 C1424 0.951 . S
H1407 C1426 0.951 . S
H1408 C1428 0.950 . S
H1409 C1429 0.950 . S
H1410 C1431 0.950 . S
H1411 C1434 0.950 . S
H1412 C1435 0.950 . S
H1413 C1437 0.950 . S
H1414 C1438 0.950 . S
H1415 C1439 0.951 . S
H1416 C1441 0.951 . S
H1417 C1443 0.950 . S
H1418 C1444 0.950 . S
H1419 C1446 0.950 . S
H1420 C1449 0.950 . S
H1421 C1450 0.950 . S
H1422 C1452 0.950 . S
H1423 C1453 0.950 . S
C1424 H1406 0.951 . S
C1424 C1425 1.366 . S
C1424 C1426 1.388 . S
C1425 C1424 1.366 . S
C1425 C1429 1.385 . S
C1426 H1407 0.951 . S
C1426 C1424 1.388 . S
C1426 C1427 1.366 . S
C1427 C1426 1.366 . S
C1427 C1428 1.414 . S
C1427 C1430 1.499 . S
C1428 H1408 0.950 . S
C1428 C1427 1.414 . S
C1428 C1429 1.374 . S
C1429 H1409 0.950 . S
C1429 C1425 1.385 . S
C1429 C1428 1.374 . S
C1430 C1427 1.499 . S
C1430 C1431 1.373 . S
C1430 C1432 1.389 . S
C1431 H1410 0.950 . S
C1431 C1430 1.373 . S
C1431 C1447 1.377 . S
C1432 C1430 1.389 . S
C1432 C1433 1.524 . S
C1432 C1446 1.377 . S
C1433 C1432 1.524 . S
C1433 C1434 1.397 . S
C1433 C1438 1.363 . S
C1434 H1411 0.950 . S
C1434 C1433 1.397 . S
C1434 C1435 1.334 . S
C1435 H1412 0.950 . S
C1435 C1434 1.334 . S
C1435 C1436 1.287 . S
C1436 C1435 1.287 . S
C1436 C1437 1.524 . S
C1436 H1455 0.913 . S
C1437 H1413 0.950 . S
C1437 C1436 1.524 . S
C1437 C1438 1.415 . S
C1438 H1414 0.950 . S
C1438 C1433 1.363 . S
C1438 C1437 1.415 . S
C1439 H1415 0.951 . S
C1439 C1440 1.366 . S
C1439 C1441 1.388 . S
C1440 C1439 1.366 . S
C1440 C1444 1.385 . S
C1441 H1416 0.951 . S
C1441 C1439 1.388 . S
C1441 C1442 1.366 . S
C1442 C1441 1.366 . S
C1442 C1443 1.414 . S
C1442 C1445 1.499 . S
C1443 H1417 0.950 . S
C1443 C1442 1.414 . S
C1443 C1444 1.374 . S
C1444 H1418 0.950 . S
C1444 C1440 1.385 . S
C1444 C1443 1.374 . S
C1445 C1442 1.499 . S
C1445 C1446 1.373 . S
C1445 C1447 1.389 . S
C1446 H1419 0.950 . S
C1446 C1432 1.377 . S
C1446 C1445 1.373 . S
C1447 C1431 1.377 . S
C1447 C1445 1.389 . S
C1447 C1448 1.524 . S
C1448 C1447 1.524 . S
C1448 C1449 1.397 . S
C1448 C1453 1.363 . S
C1449 H1420 0.950 . S
C1449 C1448 1.397 . S
C1449 C1450 1.334 . S
C1450 H1421 0.950 . S
C1450 C1449 1.334 . S
C1450 C1451 1.287 . S
C1451 C1450 1.287 . S
C1451 C1452 1.524 . S
C1451 H1454 0.999 . S
C1452 H1422 0.950 . S
C1452 C1451 1.524 . S
C1452 C1453 1.415 . S
C1453 H1423 0.950 . S
C1453 C1448 1.363 . S
C1453 C1452 1.415 . S
H1454 C1451 0.999 . S
H1455 C1436 0.913 . S
C275 C76 2.123 . S
C290 C127 2.284 . S
C340 C153 1.686 . S
C325 C88 1.569 . S
C390 C193 1.833 . S
C375 C52 1.727 . S
C440 C247 2.375 . S
C425 C64 2.232 . S
C490 C108 2.278 1_565 S
C475 C28 2.130 . S
C525 C40 1.565 . S
C540 C138 1.686 . S
C575 C4 1.734 . S
C590 C178 1.834 . S
C625 C16 2.240 . S
C640 C228 2.375 1_655 S
C690 C104 0.288 . S
C675 C69 0.355 . S
C740 C165 0.528 . S
C725 C81 0.527 . S
C790 C205 0.415 . S
C775 C93 0.415 . S
C825 C57 0.344 . S
C840 C224 0.227 . S
C875 C21 0.381 . S
C890 C125 0.288 . S
C940 C144 0.528 . S
C925 C33 0.535 . S
C990 C184 0.415 . S
C975 C45 0.416 . S
C1025 C9 0.369 . S
C1040 C245 0.229 . S
C1075 C66 1.780 . S
C1090 C98 1.938 . S
C1125 C78 2.389 . S
C1140 C148 2.566 . S
C1190 C188 2.308 . S
C1175 C90 2.145 . S
C1240 C218 1.679 . S
C1225 C54 1.556 1_556 S
C1275 C18 1.766 . S
C1290 C113 1.938 . S
C1340 C167 2.572 . S
C1325 C30 2.379 . S
C1390 C207 2.308 . S
C1375 C42 2.157 . S
C1425 C6 1.546 . S
C1440 C233 1.679 . S
