# Generated by pormake.
# Topology ctn, (3,4)-cn, num edge types: 1
# Building blocks:
#     Node 0, Type 0, BuildingBlock: CUQRIR_clean_linker_1, # of connection points: 3
#     Node 1, Type 0, BuildingBlock: CUQRIR_clean_linker_1, # of connection points: 3
#     Node 2, Type 0, BuildingBlock: CUQRIR_clean_linker_1, # of connection points: 3
#     Node 3, Type 0, BuildingBlock: CUQRIR_clean_linker_1, # of connection points: 3
#     Node 4, Type 0, BuildingBlock: CUQRIR_clean_linker_1, # of connection points: 3
#     Node 5, Type 0, BuildingBlock: CUQRIR_clean_linker_1, # of connection points: 3
#     Node 6, Type 0, BuildingBlock: CUQRIR_clean_linker_1, # of connection points: 3
#     Node 7, Type 0, BuildingBlock: CUQRIR_clean_linker_1, # of connection points: 3
#     Node 8, Type 0, BuildingBlock: CUQRIR_clean_linker_1, # of connection points: 3
#     Node 9, Type 0, BuildingBlock: CUQRIR_clean_linker_1, # of connection points: 3
#     Node 10, Type 0, BuildingBlock: CUQRIR_clean_linker_1, # of connection points: 3
#     Node 11, Type 0, BuildingBlock: CUQRIR_clean_linker_1, # of connection points: 3
#     Node 12, Type 0, BuildingBlock: CUQRIR_clean_linker_1, # of connection points: 3
#     Node 13, Type 0, BuildingBlock: CUQRIR_clean_linker_1, # of connection points: 3
#     Node 14, Type 0, BuildingBlock: CUQRIR_clean_linker_1, # of connection points: 3
#     Node 15, Type 0, BuildingBlock: CUQRIR_clean_linker_1, # of connection points: 3
#     Node 16, Type 1, BuildingBlock: UXUYUI_clean_sbu_0, # of connection points: 4
#     Node 17, Type 1, BuildingBlock: UXUYUI_clean_sbu_0, # of connection points: 4
#     Node 18, Type 1, BuildingBlock: UXUYUI_clean_sbu_0, # of connection points: 4
#     Node 19, Type 1, BuildingBlock: UXUYUI_clean_sbu_0, # of connection points: 4
#     Node 20, Type 1, BuildingBlock: UXUYUI_clean_sbu_0, # of connection points: 4
#     Node 21, Type 1, BuildingBlock: UXUYUI_clean_sbu_0, # of connection points: 4
#     Node 22, Type 1, BuildingBlock: UXUYUI_clean_sbu_0, # of connection points: 4
#     Node 23, Type 1, BuildingBlock: UXUYUI_clean_sbu_0, # of connection points: 4
#     Node 24, Type 1, BuildingBlock: UXUYUI_clean_sbu_0, # of connection points: 4
#     Node 25, Type 1, BuildingBlock: UXUYUI_clean_sbu_0, # of connection points: 4
#     Node 26, Type 1, BuildingBlock: UXUYUI_clean_sbu_0, # of connection points: 4
#     Node 27, Type 1, BuildingBlock: UXUYUI_clean_sbu_0, # of connection points: 4
#     Edge 28, Type (0, 1), BuildingBlock: EZIPEK_clean_linker_0, # of connection points: 2
#     Edge 29, Type (0, 1), BuildingBlock: EZIPEK_clean_linker_0, # of connection points: 2
#     Edge 30, Type (0, 1), BuildingBlock: EZIPEK_clean_linker_0, # of connection points: 2
#     Edge 31, Type (0, 1), BuildingBlock: EZIPEK_clean_linker_0, # of connection points: 2
#     Edge 32, Type (0, 1), BuildingBlock: EZIPEK_clean_linker_0, # of connection points: 2
#     Edge 33, Type (0, 1), BuildingBlock: EZIPEK_clean_linker_0, # of connection points: 2
#     Edge 34, Type (0, 1), BuildingBlock: EZIPEK_clean_linker_0, # of connection points: 2
#     Edge 35, Type (0, 1), BuildingBlock: EZIPEK_clean_linker_0, # of connection points: 2
#     Edge 36, Type (0, 1), BuildingBlock: EZIPEK_clean_linker_0, # of connection points: 2
#     Edge 37, Type (0, 1), BuildingBlock: EZIPEK_clean_linker_0, # of connection points: 2
#     Edge 38, Type (0, 1), BuildingBlock: EZIPEK_clean_linker_0, # of connection points: 2
#     Edge 39, Type (0, 1), BuildingBlock: EZIPEK_clean_linker_0, # of connection points: 2
#     Edge 40, Type (0, 1), BuildingBlock: EZIPEK_clean_linker_0, # of connection points: 2
#     Edge 41, Type (0, 1), BuildingBlock: EZIPEK_clean_linker_0, # of connection points: 2
#     Edge 42, Type (0, 1), BuildingBlock: EZIPEK_clean_linker_0, # of connection points: 2
#     Edge 43, Type (0, 1), BuildingBlock: EZIPEK_clean_linker_0, # of connection points: 2
#     Edge 44, Type (0, 1), BuildingBlock: EZIPEK_clean_linker_0, # of connection points: 2
#     Edge 45, Type (0, 1), BuildingBlock: EZIPEK_clean_linker_0, # of connection points: 2
#     Edge 46, Type (0, 1), BuildingBlock: EZIPEK_clean_linker_0, # of connection points: 2
#     Edge 47, Type (0, 1), BuildingBlock: EZIPEK_clean_linker_0, # of connection points: 2
#     Edge 48, Type (0, 1), BuildingBlock: EZIPEK_clean_linker_0, # of connection points: 2
#     Edge 49, Type (0, 1), BuildingBlock: EZIPEK_clean_linker_0, # of connection points: 2
#     Edge 50, Type (0, 1), BuildingBlock: EZIPEK_clean_linker_0, # of connection points: 2
#     Edge 51, Type (0, 1), BuildingBlock: EZIPEK_clean_linker_0, # of connection points: 2
#     Edge 52, Type (0, 1), BuildingBlock: EZIPEK_clean_linker_0, # of connection points: 2
#     Edge 53, Type (0, 1), BuildingBlock: EZIPEK_clean_linker_0, # of connection points: 2
#     Edge 54, Type (0, 1), BuildingBlock: EZIPEK_clean_linker_0, # of connection points: 2
#     Edge 55, Type (0, 1), BuildingBlock: EZIPEK_clean_linker_0, # of connection points: 2
#     Edge 56, Type (0, 1), BuildingBlock: EZIPEK_clean_linker_0, # of connection points: 2
#     Edge 57, Type (0, 1), BuildingBlock: EZIPEK_clean_linker_0, # of connection points: 2
#     Edge 58, Type (0, 1), BuildingBlock: EZIPEK_clean_linker_0, # of connection points: 2
#     Edge 59, Type (0, 1), BuildingBlock: EZIPEK_clean_linker_0, # of connection points: 2
#     Edge 60, Type (0, 1), BuildingBlock: EZIPEK_clean_linker_0, # of connection points: 2
#     Edge 61, Type (0, 1), BuildingBlock: EZIPEK_clean_linker_0, # of connection points: 2
#     Edge 62, Type (0, 1), BuildingBlock: EZIPEK_clean_linker_0, # of connection points: 2
#     Edge 63, Type (0, 1), BuildingBlock: EZIPEK_clean_linker_0, # of connection points: 2
#     Edge 64, Type (0, 1), BuildingBlock: EZIPEK_clean_linker_0, # of connection points: 2
#     Edge 65, Type (0, 1), BuildingBlock: EZIPEK_clean_linker_0, # of connection points: 2
#     Edge 66, Type (0, 1), BuildingBlock: EZIPEK_clean_linker_0, # of connection points: 2
#     Edge 67, Type (0, 1), BuildingBlock: EZIPEK_clean_linker_0, # of connection points: 2
#     Edge 68, Type (0, 1), BuildingBlock: EZIPEK_clean_linker_0, # of connection points: 2
#     Edge 69, Type (0, 1), BuildingBlock: EZIPEK_clean_linker_0, # of connection points: 2
#     Edge 70, Type (0, 1), BuildingBlock: EZIPEK_clean_linker_0, # of connection points: 2
#     Edge 71, Type (0, 1), BuildingBlock: EZIPEK_clean_linker_0, # of connection points: 2
#     Edge 72, Type (0, 1), BuildingBlock: EZIPEK_clean_linker_0, # of connection points: 2
#     Edge 73, Type (0, 1), BuildingBlock: EZIPEK_clean_linker_0, # of connection points: 2
#     Edge 74, Type (0, 1), BuildingBlock: EZIPEK_clean_linker_0, # of connection points: 2
#     Edge 75, Type (0, 1), BuildingBlock: EZIPEK_clean_linker_0, # of connection points: 2
# Relax obj value: 0.080
# Max RMSD: 0.211
# Mean RMSD: 0.129
data_MOF--net-ctn--node1-UXUYUI_clean_sbu_0--node2-CUQRIR_clean_linker_1--edge1-EZIPEK_clean_linker_0
_symmetry_space_group_name_H-M    P1
_symmetry_Int_Tables_number       1
_symmetry_cell_setting            triclinic
loop_
_symmetry_equiv_pos_as_xyz
'x, y, z'
_cell_length_a     49.918018
_cell_length_b     46.517115
_cell_length_c     47.737932
_cell_angle_alpha  96.518078
_cell_angle_beta   88.887429
_cell_angle_gamma 92.61194
loop_
_atom_site_label
_atom_site_type_symbol
_atom_site_fract_x
_atom_site_fract_y
_atom_site_fract_z
_atom_type_partial_charge
C0 C 0.0533 0.02534 0.08077 0.0
N1 N 0.06623 0.03493 0.05805 0.0
N2 N 0.03294 0.04242 0.08964 0.0
C3 C 0.0613 1.00001 0.09524 0.0
C4 C 0.03359 0.06274 0.07156 0.0
N5 N 0.05354 0.05823 0.052 0.0
C6 C 0.01378 0.08626 0.07227 0.0
H7 H 0.04345 0.989 0.10414 0.0
H8 H 0.07476 1.00802 0.11292 0.0
H9 H 0.07208 0.98422 0.08044 0.0
H10 H 1.00755 0.09356 0.09425 0.0
H11 H 0.99561 0.07752 0.06062 0.0
H12 H 0.02234 0.10506 0.06221 0.0
C13 C 0.28928 0.73293 0.224 0.0
N14 N 0.29844 0.72025 0.24599 0.0
N15 N 0.30419 0.75714 0.22005 0.0
C16 C 0.26533 0.72204 0.20662 0.0
C17 C 0.32307 0.75877 0.24025 0.0
N18 N 0.31994 0.73617 0.25595 0.0
C19 C 0.34486 0.78213 0.2442 0.0
H20 H 0.26786 0.72761 0.1847 0.0
H21 H 0.24726 0.73263 0.21599 0.0
H22 H 0.26209 0.69825 0.2063 0.0
H23 H 0.35082 0.78614 0.26662 0.0
H24 H 0.33827 0.8025 0.23698 0.0
H25 H 0.36265 0.77506 0.23138 0.0
C26 C 0.97973 0.50444 0.08339 0.0
N27 N 0.99503 0.48085 0.08192 0.0
N28 N 0.95918 0.49997 0.06513 0.0
C29 C 0.98438 0.53164 0.10316 0.0
C30 C 0.96242 0.47293 0.05229 0.0
N31 N 0.98437 0.46123 0.06203 0.0
C32 C 0.9444 0.45832 0.02958 0.0
H33 H 0.97281 0.52957 0.12296 0.0
H34 H 0.97729 0.55066 0.09381 0.0
H35 H 1.00593 0.53518 0.10838 0.0
H36 H 0.95128 0.46503 1.00896 0.0
H37 H 0.92346 0.46502 0.03334 0.0
H38 H 0.94492 0.4344 0.02853 0.0
C39 C 0.69916 0.77813 0.23096 0.0
N40 N 0.72119 0.79156 0.22036 0.0
N41 N 0.6904 0.79336 0.25492 0.0
C42 C 0.68577 0.75047 0.21767 0.0
C43 C 0.70793 0.81641 0.25886 0.0
N44 N 0.727 0.81525 0.23816 0.0
C45 C 0.70682 0.83955 0.28349 0.0
H46 H 0.66925 0.75585 0.20421 0.0
H47 H 0.67694 0.73768 0.23409 0.0
H48 H 0.70012 0.73723 0.20435 0.0
H49 H 0.71734 0.83223 0.30149 0.0
H50 H 0.68573 0.84332 0.29014 0.0
H51 H 0.71674 0.86012 0.27823 0.0
C52 C 0.04304 0.97242 0.484 0.0
N53 N 0.06459 0.9767 0.50122 0.0
N54 N 0.04262 0.993 0.46626 0.0
C55 C 0.02166 0.94871 0.48517 0.0
C56 C 0.06477 1.00998 0.47285 0.0
N57 N 0.07854 1.00009 0.49387 0.0
C58 C 0.07347 0.03564 0.45786 0.0
H59 H 0.01365 0.94175 0.46384 0.0
H60 H 1.00486 0.95712 0.49881 0.0
H61 H 0.02956 0.92979 0.49402 0.0
H62 H 0.05578 0.04658 0.45113 0.0
H63 H 0.0852 0.02802 0.43869 0.0
H64 H 0.08623 0.05134 0.47155 0.0
C65 C 0.20217 0.73942 0.80936 0.0
N66 N 0.22305 0.72805 0.82136 0.0
N67 N 0.1984 0.72671 0.7828 0.0
C68 C 0.1861 0.76388 0.82311 0.0
C69 C 0.21755 0.70693 0.77894 0.0
N70 N 0.23247 0.70735 0.80248 0.0
C71 C 0.22113 0.68676 0.75239 0.0
H72 H 0.18573 0.76417 0.84638 0.0
H73 H 0.16527 0.7621 0.8152 0.0
H74 H 0.19549 0.78467 0.81776 0.0
H75 H 0.21562 0.6973 0.73372 0.0
H76 H 0.20764 0.66727 0.75338 0.0
H77 H 0.24211 0.67984 0.75001 0.0
C78 C 0.97101 0.5362 0.46283 0.0
N79 N 0.98872 0.55936 0.46465 0.0
N80 N 0.9501 0.54111 0.48092 0.0
C81 C 0.97375 0.50909 0.44286 0.0
C82 C 0.95563 0.56795 0.49401 0.0
N83 N 0.97923 0.57909 0.4845 0.0
C84 C 0.93834 0.58285 0.51686 0.0
H85 H 0.9646 0.51217 0.42248 0.0
H86 H 0.96317 0.49034 0.4513 0.0
H87 H 0.99519 0.50447 0.4389 0.0
H88 H 0.9442 0.57637 0.53747 0.0
H89 H 0.9169 0.57625 0.51348 0.0
H90 H 0.94099 0.60674 0.51767 0.0
C91 C 0.79481 0.81142 0.82914 0.0
N92 N 0.81548 0.79329 0.82436 0.0
N93 N 0.79243 0.82774 0.80771 0.0
C94 C 0.77621 0.8125 0.85434 0.0
C95 C 0.81245 0.81925 0.78963 0.0
N96 N 0.82679 0.7985 0.79959 0.0
C97 C 0.81871 0.8323 0.76271 0.0
H98 H 0.75859 0.79753 0.84923 0.0
H99 H 0.76887 0.83464 0.85967 0.0
H100 H 0.78632 0.80568 0.87285 0.0
H101 H 0.83224 0.85177 0.76742 0.0
H102 H 0.80011 0.83914 0.75349 0.0
H103 H 0.82886 0.81672 0.74714 0.0
C104 C 0.29407 0.31157 0.32708 0.0
N105 N 0.31503 0.29387 0.32212 0.0
N106 N 0.29178 0.32849 0.30615 0.0
C107 C 0.27521 0.31184 0.35205 0.0
C108 C 0.31209 0.32085 0.28817 0.0
N109 N 0.32663 0.30005 0.29776 0.0
C110 C 0.31831 0.3347 0.26168 0.0
H111 H 0.25754 0.29718 0.34626 0.0
H112 H 0.26796 0.33392 0.35806 0.0
H113 H 0.28507 0.30427 0.37034 0.0
H114 H 0.33097 0.35473 0.26705 0.0
H115 H 0.2996 0.34086 0.25217 0.0
H116 H 0.32931 0.31992 0.24608 0.0
C117 C 0.47786 1.00243 0.58749 0.0
N118 N 0.49399 0.97945 0.58576 0.0
N119 N 0.46161 1.00073 0.56498 0.0
C120 C 0.47835 0.02702 0.61083 0.0
C121 C 0.46811 0.97589 0.54942 0.0
N122 N 0.48744 0.96249 0.56208 0.0
C123 C 0.45478 0.96429 0.5222 0.0
H124 H 0.48615 0.02016 0.63053 0.0
H125 H 0.45798 0.0353 0.61484 0.0
H126 H 0.49158 0.04499 0.60436 0.0
H127 H 0.44984 0.98226 0.51005 0.0
H128 H 0.43573 0.9525 0.52703 0.0
H129 H 0.4678 0.94923 0.50908 0.0
C130 C 0.2024 0.27269 0.73135 0.0
N131 N 0.22395 0.28708 0.72088 0.0
N132 N 0.19243 0.28793 0.75475 0.0
C133 C 0.19074 0.24398 0.71849 0.0
C134 C 0.20876 0.312 0.75847 0.0
N135 N 0.22826 0.31146 0.73822 0.0
C136 C 0.2058 0.33585 0.78221 0.0
H137 H 0.17474 0.24778 0.7037 0.0
H138 H 0.18162 0.23154 0.73503 0.0
H139 H 0.20629 0.23112 0.70658 0.0
H140 H 0.21638 0.33016 0.8009 0.0
H141 H 0.18434 0.33832 0.78808 0.0
H142 H 0.21463 0.3567 0.77634 0.0
C143 C 0.78957 0.23379 0.72594 0.0
N144 N 0.80062 0.21975 0.74597 0.0
N145 N 0.80562 0.25643 0.71972 0.0
C146 C 0.76343 0.22482 0.71165 0.0
C147 C 0.82689 0.25598 0.73682 0.0
N148 N 0.82385 0.23392 0.7532 0.0
C149 C 0.85034 0.27745 0.73784 0.0
H150 H 0.76744 0.20949 0.69264 0.0
H151 H 0.75376 0.24382 0.70482 0.0
H152 H 0.74953 0.21381 0.72585 0.0
H153 H 0.84577 0.29635 0.75324 0.0
H154 H 0.85397 0.28527 0.71693 0.0
H155 H 0.86871 0.26778 0.74466 0.0
C156 C 0.5508 0.52482 0.57926 0.0
N157 N 0.56464 0.53454 0.55713 0.0
N158 N 0.53111 0.54272 0.58831 0.0
C159 C 0.55727 0.49851 0.59302 0.0
C160 C 0.53313 0.56373 0.57099 0.0
N161 N 0.55326 0.55884 0.5517 0.0
C162 C 0.51441 0.58828 0.57208 0.0
H163 H 0.53874 0.48815 0.60126 0.0
H164 H 0.57066 0.50527 0.61109 0.0
H165 H 0.56762 0.48258 0.57796 0.0
H166 H 0.50777 0.5949 0.59409 0.0
H167 H 0.49637 0.58091 0.55957 0.0
H168 H 0.52411 0.60719 0.56309 0.0
C169 C 0.53591 0.47976 0.98866 0.0
N170 N 0.55909 0.47992 1.00322 0.0
N171 N 0.53885 0.49586 0.96689 0.0
C172 C 0.51052 0.46278 0.99483 0.0
C173 C 0.56451 0.50634 0.96868 0.0
N174 N 0.57699 0.49698 0.9908 0.0
C175 C 0.57715 0.52648 0.94921 0.0
H176 H 0.50985 0.44195 0.98095 0.0
H177 H 0.49271 0.47478 0.99025 0.0
H178 H 0.50958 0.45821 0.01715 0.0
H179 H 0.57383 0.54915 0.95809 0.0
H180 H 0.56792 0.52281 0.92808 0.0
H181 H 0.59908 0.52365 0.94709 0.0
C182 C 0.70058 0.23498 0.31406 0.0
N183 N 0.72252 0.22502 0.32528 0.0
N184 N 0.69307 0.21819 0.28982 0.0
C185 C 0.69023 0.26451 0.32418 0.0
C186 C 0.71428 0.2004 0.28501 0.0
N187 N 0.73102 0.20332 0.30727 0.0
C188 C 0.72326 0.18584 0.25674 0.0
H189 H 0.67695 0.26306 0.34291 0.0
H190 H 0.6797 0.27396 0.30743 0.0
H191 H 0.70705 0.27988 0.3311 0.0
H192 H 0.71518 0.19607 0.23903 0.0
H193 H 0.71785 0.16233 0.255 0.0
H194 H 0.74543 0.18757 0.25476 0.0
C195 C 0.47001 0.03428 0.96062 0.0
N196 N 0.48757 0.05757 0.96269 0.0
N197 N 0.44916 0.03878 0.97882 0.0
C198 C 0.47276 1.00741 0.9403 0.0
C199 C 0.45453 0.06548 0.99227 0.0
N200 N 0.47805 0.07692 0.98289 0.0
C201 C 0.43715 0.07985 0.01534 0.0
H202 H 0.4617 1.00987 0.92084 0.0
H203 H 0.46388 0.98821 0.94947 0.0
H204 H 0.49411 1.00391 0.93458 0.0
H205 H 0.44224 0.07203 0.0356 0.0
H206 H 0.41567 0.07401 0.0112 0.0
H207 H 0.44037 0.10375 0.01735 0.0
Li208 Li 0.28184 0.90734 0.02191 0.0
Li209 Li 0.26095 0.87645 0.0545 0.0
Li210 Li 0.25326 0.86625 1.00381 0.0
Li211 Li 0.2334 0.90851 0.0305 0.0
C212 C 0.31173 0.86199 0.03582 0.0
N213 N 0.36043 0.85445 0.05994 0.0
C214 C 0.32199 0.88263 0.05693 0.0
C215 C 0.3263 0.83758 0.02692 0.0
C216 C 0.34663 0.8784 0.06888 0.0
C217 C 0.35087 0.83414 0.03939 0.0
C218 C 0.25159 0.93095 0.08305 0.0
C219 C 0.21846 0.92819 0.12022 0.0
N220 N 0.22874 0.95362 0.13347 0.0
C221 C 0.26182 0.95704 0.09702 0.0
C222 C 0.22973 0.91637 0.09471 0.0
C223 C 0.24999 0.96815 0.1225 0.0
C224 C 0.31295 0.95971 0.02167 0.0
N225 N 0.31299 0.9307 0.01366 0.0
C226 C 0.357 0.9354 0.99346 0.0
C227 C 0.33439 0.91836 0.99974 0.0
C228 C 0.35746 0.96532 1.00154 0.0
C229 C 0.33516 0.97757 0.01578 0.0
H230 H 0.29562 0.96894 0.0326 0.0
H231 H 0.33393 0.89529 0.99344 0.0
C232 C 0.2602 0.82892 0.0868 0.0
N233 N 0.26704 0.85769 0.08792 0.0
C234 C 0.26636 0.81331 0.10909 0.0
C235 C 0.28631 0.85717 0.13351 0.0
C236 C 0.27977 0.87197 0.11076 0.0
C237 C 0.27973 0.82744 0.13269 0.0
H238 H 0.25046 0.81797 0.06827 0.0
H239 H 0.28548 0.89469 0.11105 0.0
C240 C 0.26371 0.90925 0.96764 0.0
N241 N 0.28541 0.91454 0.91468 0.0
C242 C 0.25416 0.92963 0.95137 0.0
C243 C 0.28429 0.89154 0.95697 0.0
C244 C 0.26541 0.93199 0.92465 0.0
C245 C 0.29499 0.89454 0.93015 0.0
C246 C 0.20169 0.85639 0.02457 0.0
C247 C 0.19093 0.8685 1.00201 0.0
C248 C 0.18744 0.834 0.03627 0.0
C249 C 0.16602 0.85796 0.9915 0.0
C250 C 0.16259 0.82405 0.02516 0.0
N251 N 0.15248 0.83614 1.00319 0.0
C252 C 0.26222 0.81126 0.97306 0.0
C253 C 0.23383 0.84071 0.95047 0.0
C254 C 0.26127 0.79007 0.94972 0.0
N255 N 0.2488 0.83608 0.97291 0.0
C256 C 0.23213 0.82004 0.92688 0.0
C257 C 0.24609 0.79447 0.92627 0.0
H258 H 0.27407 0.80816 0.9911 0.0
H259 H 0.22373 0.86077 0.95055 0.0
C260 C 0.20692 0.9595 0.02134 0.0
N261 N 0.20361 0.93435 0.03335 0.0
C262 C 0.18625 0.97907 0.02251 0.0
C263 C 0.15901 0.94657 0.04837 0.0
C264 C 0.18024 0.9277 0.04684 0.0
C265 C 0.16191 0.97259 0.03609 0.0
H266 H 0.22573 0.96444 0.01091 0.0
H267 H 0.17803 0.90775 0.05646 0.0
O268 O 0.28758 0.86553 0.02381 0.0
O269 O 0.26296 0.91998 0.05803 0.0
O270 O 0.25281 0.9067 0.99381 0.0
O271 O 0.22603 0.8663 0.0353 0.0
H272 H 0.31112 0.90174 0.06404 0.0
H273 H 0.31874 0.82145 0.01052 0.0
H274 H 0.35477 0.89419 0.08526 0.0
H275 H 0.36235 0.81534 0.0327 0.0
H276 H 0.20155 0.91715 0.12948 0.0
H277 H 0.27873 0.96857 0.08825 0.0
H278 H 0.22155 0.89613 0.08429 0.0
H279 H 0.25771 0.98833 0.13355 0.0
H280 H 0.37395 0.92539 0.98241 0.0
H281 H 0.33501 1.00064 0.02225 0.0
H282 H 0.26109 0.79036 0.10777 0.0
H283 H 0.29675 0.86867 0.15137 0.0
H284 H 0.2382 0.94345 0.9593 0.0
H285 H 0.29191 0.8756 0.96921 0.0
H286 H 0.25822 0.94769 0.91183 0.0
H287 H 0.31089 0.88094 0.92163 0.0
H288 H 0.20162 0.88589 0.99273 0.0
H289 H 0.19552 0.82442 0.05376 0.0
H290 H 0.15745 0.86714 0.97405 0.0
H291 H 0.15133 0.80673 0.034 0.0
H292 H 0.27242 0.77065 0.9498 0.0
H293 H 0.22041 0.82417 0.90901 0.0
H294 H 0.18923 0.99908 0.01306 0.0
H295 H 0.14057 0.94105 0.05926 0.0
Li296 Li 0.12986 0.52781 0.30199 0.0
Li297 Li 0.1634 0.49497 0.28002 0.0
Li298 Li 0.16792 0.54358 0.27196 0.0
Li299 Li 0.13174 0.51315 0.24691 0.0
C300 C 0.18451 0.51924 0.32837 0.0
N301 N 0.21689 0.49878 0.36729 0.0
C302 C 0.17373 0.51246 0.35417 0.0
C303 C 0.21181 0.51592 0.32247 0.0
C304 C 0.19043 0.50209 0.37356 0.0
C305 C 0.22783 0.50543 0.34239 0.0
C306 C 0.1202 0.4609 0.28356 0.0
C307 C 0.12209 0.41028 0.26622 0.0
N308 N 0.1159 0.40324 0.29254 0.0
C309 C 0.11382 0.45319 0.31043 0.0
C310 C 0.12429 0.43932 0.26124 0.0
C311 C 0.11172 0.42391 0.31453 0.0
C312 C 0.08169 0.52359 0.33417 0.0
N313 N 0.1059 0.53815 0.33329 0.0
C314 C 0.09564 0.56707 0.37673 0.0
C315 C 0.11308 0.55965 0.35393 0.0
C316 C 0.07075 0.55197 0.37836 0.0
C317 C 0.0638 0.53009 0.35667 0.0
H318 H 0.07633 0.5068 0.3174 0.0
H319 H 0.13242 0.57095 0.35274 0.0
C320 C 0.18195 0.44864 0.30984 0.0
N321 N 0.18362 0.46125 0.28542 0.0
C322 C 0.19845 0.426 0.31398 0.0
C323 C 0.21733 0.42871 0.26735 0.0
C324 C 0.20057 0.45137 0.26415 0.0
C325 C 0.21658 0.41609 0.29266 0.0
H326 H 0.16824 0.45651 0.32642 0.0
H327 H 0.20141 0.46138 0.2448 0.0
C328 C 0.13112 0.58036 0.2644 0.0
N329 N 0.13815 0.63747 0.25409 0.0
C330 C 0.12994 0.58765 0.23686 0.0
C331 C 0.13572 0.60208 0.28672 0.0
C332 C 0.13353 0.61667 0.23209 0.0
C333 C 0.13932 0.63083 0.28106 0.0
C334 C 0.1894 0.51832 0.22429 0.0
C335 C 0.18126 0.52587 0.19835 0.0
C336 C 0.21663 0.52018 0.23091 0.0
C337 C 0.20054 0.53549 0.17953 0.0
C338 C 0.23527 0.52998 0.21155 0.0
N339 N 0.22691 0.53737 0.18648 0.0
C340 C 0.19796 0.58902 0.2457 0.0
C341 C 0.20764 0.58593 0.2936 0.0
C342 C 0.21684 0.61212 0.24486 0.0
N343 N 0.19382 0.57618 0.26978 0.0
C344 C 0.22664 0.60905 0.2937 0.0
C345 C 0.23143 0.62231 0.26906 0.0
H346 H 0.18654 0.58151 0.22713 0.0
H347 H 0.20378 0.57594 0.3127 0.0
C348 C 0.08711 0.5199 0.21209 0.0
N349 N 0.10907 0.504 0.21412 0.0
C350 C 0.06958 0.51348 0.18944 0.0
C351 C 0.09724 0.47415 0.17133 0.0
C352 C 0.11442 0.48149 0.19425 0.0
C353 C 0.07451 0.49032 0.16871 0.0
H354 H 0.08307 0.5375 0.22823 0.0
H355 H 0.13194 0.46908 0.19627 0.0
O356 O 0.16846 0.52931 0.30908 0.0
O357 O 0.1229 0.48944 0.27922 0.0
O358 O 0.12843 0.55202 0.26941 0.0
O359 O 0.17083 0.50882 0.24295 0.0
H360 H 0.15263 0.51486 0.35904 0.0
H361 H 0.22047 0.52118 0.30264 0.0
H362 H 0.18234 0.49658 0.39354 0.0
H363 H 0.24895 0.50256 0.33803 0.0
H364 H 0.12538 0.39334 0.24919 0.0
H365 H 0.11092 0.46964 0.32801 0.0
H366 H 0.12946 0.44495 0.24038 0.0
H367 H 0.10694 0.41762 0.33524 0.0
H368 H 0.10156 0.58416 0.39304 0.0
H369 H 0.04469 0.51814 0.3572 0.0
H370 H 0.19738 0.41661 0.33374 0.0
H371 H 0.23109 0.42144 0.25047 0.0
H372 H 0.12667 0.57104 0.21933 0.0
H373 H 0.13689 0.59672 0.30812 0.0
H374 H 0.13282 0.62264 0.21087 0.0
H375 H 0.14313 0.64786 0.29809 0.0
H376 H 0.16027 0.52459 0.19291 0.0
H377 H 0.22325 0.51431 0.25085 0.0
H378 H 0.19453 0.54156 0.15943 0.0
H379 H 0.25639 0.53173 0.21647 0.0
H380 H 0.21982 0.62217 0.22558 0.0
H381 H 0.23733 0.61668 0.31284 0.0
H382 H 0.05218 0.52634 0.1882 0.0
H383 H 0.10161 0.45606 0.15582 0.0
Li384 Li 0.75508 0.62407 1.00698 0.0
Li385 Li 0.7739 0.66707 0.03573 0.0
Li386 Li 0.78446 0.65914 0.98368 0.0
Li387 Li 0.80319 0.62836 0.01656 0.0
C388 C 0.72265 0.67082 1.00498 0.0
N389 N 0.66821 0.67922 1.0077 0.0
C390 C 0.7075 0.66366 0.02831 0.0
C391 C 0.71015 0.68219 0.983 0.0
C392 C 0.67998 0.66806 0.02929 0.0
C393 C 0.68259 0.68632 0.98479 0.0
C394 C 0.78324 0.62486 0.07041 0.0
C395 C 0.81448 0.64262 0.10701 0.0
N396 N 0.80416 0.62252 0.12329 0.0
C397 C 0.7729 0.60444 0.08757 0.0
C398 C 0.80417 0.64416 0.08026 0.0
C399 C 0.78377 0.60358 0.1142 0.0
C400 C 0.72226 0.57598 0.02153 0.0
N401 N 0.7236 0.59717 1.00398 0.0
C402 C 0.67988 0.58188 0.98637 0.0
C403 C 0.70306 0.60011 0.98628 0.0
C404 C 0.67781 0.56027 1.00471 0.0
C405 C 0.69944 0.55731 0.02233 0.0
H406 H 0.73883 0.57379 0.03522 0.0
H407 H 0.70434 0.61697 0.97243 0.0
C408 C 0.77873 0.72263 0.06941 0.0
N409 N 0.76694 0.69549 0.06761 0.0
C410 C 0.77429 0.74258 0.09321 0.0
C411 C 0.74565 0.70636 0.11272 0.0
C412 C 0.75065 0.68717 0.0887 0.0
C413 C 0.75753 0.73439 0.11516 0.0
H414 H 0.7917 0.72871 0.05246 0.0
H415 H 0.74175 0.66544 0.08707 0.0
C416 C 0.77551 0.60393 0.95423 0.0
N417 N 0.75509 0.58015 0.90297 0.0
C418 C 0.78469 0.57769 0.94128 0.0
C419 C 0.75597 0.6181 0.94113 0.0
C420 C 0.77411 0.566 0.91535 0.0
C421 C 0.74589 0.60573 0.91522 0.0
C422 C 0.83408 0.67802 1.00497 0.0
C423 C 0.84611 0.65884 0.98432 0.0
C424 C 0.84729 0.70442 0.01422 0.0
C425 C 0.87119 0.66645 0.97321 0.0
C426 C 0.87236 0.71124 1.00258 0.0
N427 N 0.88369 0.69228 0.98249 0.0
C428 C 0.78232 0.70626 0.95007 0.0
C429 C 0.80816 0.66801 0.92888 0.0
C430 C 0.78832 0.72249 0.92753 0.0
N431 N 0.79222 0.67951 0.95043 0.0
C432 C 0.81488 0.68364 0.90602 0.0
C433 C 0.80486 0.71126 0.90517 0.0
H434 H 0.76992 0.71515 0.96748 0.0
H435 H 0.81596 0.64678 0.92952 0.0
C436 C 0.83178 0.57726 0.01806 0.0
N437 N 0.83347 0.60647 0.02503 0.0
C438 C 0.85254 0.56007 0.02474 0.0
C439 C 0.87652 0.60327 0.04561 0.0
C440 C 0.8553 0.61963 0.03858 0.0
C441 C 0.87519 0.57312 0.03873 0.0
H442 H 0.81414 0.56728 1.00752 0.0
H443 H 0.85615 0.64282 0.04421 0.0
O444 O 0.74945 0.66589 1.0032 0.0
O445 O 0.77276 0.62594 0.04425 0.0
O446 O 0.78571 0.61555 0.97962 0.0
O447 O 0.80944 0.67116 0.01605 0.0
H448 H 0.71676 0.65415 0.04512 0.0
H449 H 0.72158 0.68758 0.96467 0.0
H450 H 0.66797 0.66242 0.04713 0.0
H451 H 0.67262 0.69507 0.96792 0.0
H452 H 0.83067 0.65744 0.11484 0.0
H453 H 0.75661 0.58944 0.08048 0.0
H454 H 0.81237 0.66027 0.06749 0.0
H455 H 0.77596 0.58787 0.12767 0.0
H456 H 0.66355 0.58484 0.97251 0.0
H457 H 0.69854 0.54092 0.03677 0.0
H458 H 0.78379 0.76408 0.09453 0.0
H459 H 0.7327 0.69936 0.12935 0.0
H460 H 0.79983 0.56647 0.95117 0.0
H461 H 0.74862 0.63843 0.95081 0.0
H462 H 0.78101 0.54569 0.90508 0.0
H463 H 0.73075 0.61646 0.90485 0.0
H464 H 0.83621 0.63829 0.97694 0.0
H465 H 0.83825 0.71949 0.03021 0.0
H466 H 0.88072 0.65183 0.95721 0.0
H467 H 0.88281 0.73161 0.00952 0.0
H468 H 0.7803 0.74375 0.92762 0.0
H469 H 0.82772 0.6743 0.88918 0.0
H470 H 0.85092 0.53683 0.01919 0.0
H471 H 0.89372 0.61396 0.05648 0.0
Li472 Li 0.86724 0.03895 0.29388 0.0
Li473 Li 0.90063 1.0105 0.3109 0.0
Li474 Li 0.90316 0.01811 0.26053 0.0
Li475 Li 0.86719 0.986 0.27987 0.0
C476 C 0.90705 0.07661 0.29782 0.0
N477 N 0.90415 0.13614 0.30482 0.0
C478 C 0.90499 0.09142 0.32487 0.0
C479 C 0.90782 0.09204 0.27433 0.0
C480 C 0.90349 0.12154 0.32797 0.0
C481 C 0.9063 0.12215 0.27832 0.0
C482 C 0.85912 1.00025 0.34467 0.0
C483 C 0.8485 0.96586 0.37786 0.0
N484 N 0.8559 0.98621 0.39938 0.0
C485 C 0.86652 0.02087 0.36712 0.0
C486 C 0.84998 0.97253 0.35005 0.0
C487 C 0.86481 0.01333 0.39462 0.0
C488 C 0.83522 0.08025 0.3277 0.0
N489 N 0.84468 0.07176 0.30124 0.0
C490 C 0.82093 0.10886 0.28277 0.0
C491 C 0.8381 0.08576 0.27898 0.0
C492 C 0.81048 0.11768 0.30972 0.0
C493 C 0.81812 0.10343 0.33248 0.0
H494 H 0.8406 0.06882 0.34506 0.0
H495 H 0.84589 0.07865 0.25817 0.0
C496 C 0.94559 0.02721 0.34495 0.0
N497 N 0.92474 1.00725 0.34178 0.0
C498 C 0.96492 0.02565 0.36548 0.0
C499 C 0.94104 0.98311 0.37942 0.0
C500 C 0.92226 0.98536 0.35849 0.0
C501 C 0.96271 1.00336 0.38292 0.0
H502 H 0.94749 0.04413 0.33119 0.0
H503 H 0.90597 0.96934 0.35539 0.0
C504 C 0.84396 1.00696 0.2377 0.0
N505 N 0.80331 0.98146 0.20372 0.0
C506 C 0.85008 0.98885 0.21324 0.0
C507 C 0.81721 0.01221 0.24485 0.0
C508 C 0.82922 0.97612 0.19635 0.0
C509 C 0.79694 0.99911 0.22739 0.0
C510 C 0.9196 0.96022 0.28889 0.0
C511 C 0.94762 0.96183 0.2898 0.0
C512 C 0.9054 0.93783 0.3007 0.0
C513 C 0.96094 0.94098 0.3024 0.0
C514 C 0.91946 0.91735 0.31305 0.0
N515 N 0.94671 0.91935 0.31366 0.0
C516 C 0.95262 0.01951 0.23101 0.0
C517 C 0.91588 0.03226 0.20495 0.0
C518 C 0.9701 0.02269 0.20825 0.0
N519 N 0.92604 0.02394 0.22887 0.0
C520 C 0.93273 0.03604 0.18174 0.0
C521 C 0.96015 0.03097 0.18324 0.0
H522 H 0.96026 0.01355 0.25043 0.0
H523 H 0.89471 0.03598 0.2039 0.0
C524 C 0.81847 0.9517 0.27888 0.0
N525 N 0.84414 0.9523 0.26882 0.0
C526 C 0.801 0.92796 0.27095 0.0
C527 C 0.83654 0.90585 0.24217 0.0
C528 C 0.85332 0.93015 0.25055 0.0
C529 C 0.81007 0.90465 0.25252 0.0
H530 H 0.81158 0.96974 0.29309 0.0
H531 H 0.87372 0.93132 0.24256 0.0
O532 O 0.90741 0.04706 0.29431 0.0
O533 O 0.86054 1.00721 0.31759 0.0
O534 O 0.86402 0.01866 0.25509 0.0
O535 O 0.90614 0.98073 0.27706 0.0
H536 H 0.90428 0.07975 0.34325 0.0
H537 H 0.90922 0.08084 0.25324 0.0
H538 H 0.90172 0.13329 0.34877 0.0
H539 H 0.9067 0.13437 0.26033 0.0
H540 H 0.84153 0.94447 0.38233 0.0
H541 H 0.87402 0.04227 0.36332 0.0
H542 H 0.84422 0.95628 0.33296 0.0
H543 H 0.87068 0.02899 0.41217 0.0
H544 H 0.81539 0.11938 0.26474 0.0
H545 H 0.81036 0.10967 0.35352 0.0
H546 H 0.98153 0.04151 0.3676 0.0
H547 H 0.93892 0.96553 0.39246 0.0
H548 H 0.87069 0.9843 0.20761 0.0
H549 H 0.81216 0.02593 0.2639 0.0
H550 H 0.83363 0.96188 0.17747 0.0
H551 H 0.77613 1.00284 0.23273 0.0
H552 H 0.95899 0.97917 0.28121 0.0
H553 H 0.88374 0.93649 0.30083 0.0
H554 H 0.9826 0.94206 0.30332 0.0
H555 H 0.90868 0.9 0.32235 0.0
H556 H 0.99119 0.01882 0.21013 0.0
H557 H 0.92448 0.04263 0.16276 0.0
H558 H 0.78069 0.92759 0.27934 0.0
H559 H 0.84411 0.88815 0.22796 0.0
Li560 Li 0.27866 0.16773 0.53398 0.0
Li561 Li 0.25735 0.12534 0.50693 0.0
Li562 Li 0.30667 0.1296 0.51453 0.0
Li563 Li 0.28747 0.16151 0.48334 0.0
C564 C 0.28753 0.12333 0.56812 0.0
N565 N 0.3091 0.11546 0.61943 0.0
C566 C 0.27789 0.10053 0.58274 0.0
C567 C 0.3081 0.14217 0.57963 0.0
C568 C 0.28907 0.09689 0.60865 0.0
C569 C 0.31874 0.13783 0.60558 0.0
C570 C 0.23372 0.18508 0.51679 0.0
C571 C 0.21819 0.23311 0.53042 0.0
N572 N 0.19871 0.22182 0.5468 0.0
C573 C 0.21353 0.17398 0.53377 0.0
C574 C 0.23605 0.21489 0.51507 0.0
C575 C 0.19601 0.19289 0.54873 0.0
C576 C 0.28515 0.22188 0.57027 0.0
N577 N 0.2725 0.19516 0.56688 0.0
C578 C 0.2497 0.20481 0.6113 0.0
C579 C 0.25513 0.18642 0.58686 0.0
C580 C 0.2624 0.23241 0.61536 0.0
C581 C 0.28039 0.241 0.59459 0.0
H582 H 0.29892 0.2283 0.55411 0.0
H583 H 0.24539 0.16507 0.58377 0.0
C584 C 0.22774 0.07292 0.51585 0.0
N585 N 0.22621 0.09837 0.50448 0.0
C586 C 0.20532 0.05361 0.51619 0.0
C587 C 0.18011 0.0868 0.49288 0.0
C588 C 0.20303 0.10539 0.49283 0.0
C589 C 0.18105 0.06066 0.50486 0.0
H590 H 0.24637 0.06771 0.52488 0.0
H591 H 0.2022 0.12566 0.48387 0.0
C592 C 0.33813 0.17741 0.50198 0.0
N593 N 0.38733 0.18817 0.47683 0.0
C594 C 0.34745 0.1582 0.47962 0.0
C595 C 0.35383 0.20206 0.51154 0.0
C596 C 0.37237 0.16404 0.46719 0.0
C597 C 0.37866 0.20712 0.49856 0.0
C598 C 0.2767 0.10565 0.45357 0.0
C599 C 0.2874 0.08092 0.43903 0.0
C600 C 0.25478 0.11804 0.44254 0.0
C601 C 0.27602 0.06899 0.41357 0.0
C602 C 0.24397 0.10546 0.41704 0.0
N603 N 0.25473 0.0814 0.4032 0.0
C604 C 0.3358 0.07826 0.5138 0.0
C605 C 0.35827 0.12024 0.53658 0.0
C606 C 0.35654 0.06104 0.52048 0.0
N607 N 0.33695 0.10728 0.52198 0.0
C608 C 0.37936 0.10382 0.54381 0.0
C609 C 0.37855 0.07383 0.53584 0.0
H610 H 0.31854 0.06844 0.50246 0.0
H611 H 0.35869 0.14327 0.54311 0.0
C612 C 0.294 0.21093 0.45249 0.0
N613 N 0.29539 0.18156 0.44963 0.0
C614 C 0.29991 0.22673 0.42962 0.0
C615 C 0.30977 0.18214 0.40124 0.0
C616 C 0.30361 0.16714 0.42467 0.0
C617 C 0.30765 0.21232 0.40349 0.0
H618 H 0.28856 0.22221 0.47266 0.0
H619 H 0.30567 0.144 0.42285 0.0
O620 O 0.2769 0.12701 0.54262 0.0
O621 O 0.2516 0.16696 0.50271 0.0
O622 O 0.31366 0.17244 0.51437 0.0
O623 O 0.28754 0.11737 0.47862 0.0
H624 H 0.26194 0.08578 0.57417 0.0
H625 H 0.31584 0.15992 0.56862 0.0
H626 H 0.28183 0.07931 0.62018 0.0
H627 H 0.33469 0.15222 0.6147 0.0
H628 H 0.21988 0.25623 0.5294 0.0
H629 H 0.21179 0.1511 0.53596 0.0
H630 H 0.25162 0.22395 0.50228 0.0
H631 H 0.18044 0.18459 0.5621 0.0
H632 H 0.23574 0.19756 0.62696 0.0
H633 H 0.2905 0.26221 0.59717 0.0
H634 H 0.20682 0.03349 0.52534 0.0
H635 H 0.16177 0.09277 0.4837 0.0
H636 H 0.33562 0.13901 0.47187 0.0
H637 H 0.34688 0.21715 0.5288 0.0
H638 H 0.37981 0.14938 0.44986 0.0
H639 H 0.39102 0.22614 0.50574 0.0
H640 H 0.30434 0.07106 0.44734 0.0
H641 H 0.24626 0.13722 0.45344 0.0
H642 H 0.28412 0.04985 0.40207 0.0
H643 H 0.22704 0.11484 0.40824 0.0
H644 H 0.35529 0.03793 0.51409 0.0
H645 H 0.39602 0.11433 0.55575 0.0
H646 H 0.29831 0.25003 0.43226 0.0
H647 H 0.31595 0.1703 0.38149 0.0
Li648 Li 0.39842 0.5122 0.80938 0.0
Li649 Li 0.36551 0.53967 0.79063 0.0
Li650 Li 0.36527 0.48608 0.77761 0.0
Li651 Li 0.40106 0.51927 0.75902 0.0
C652 C 0.35517 0.49882 0.84102 0.0
N653 N 0.34818 0.4797 0.89352 0.0
C654 C 0.35894 0.51811 0.86544 0.0
C655 C 0.34771 0.46984 0.84332 0.0
C656 C 0.35537 0.508 0.89178 0.0
C657 C 0.34428 0.46059 0.87005 0.0
C658 C 0.40419 0.57746 0.80118 0.0
C659 C 0.40354 0.62706 0.79109 0.0
N660 N 0.39981 0.63569 0.81903 0.0
C661 C 0.40056 0.58683 0.82981 0.0
C662 C 0.40587 0.59771 0.78166 0.0
C663 C 0.39833 0.61636 0.83841 0.0
C664 C 0.44351 0.52876 0.84341 0.0
N665 N 0.42197 0.50963 0.84105 0.0
C666 C 0.43707 0.48699 0.88026 0.0
C667 C 0.41866 0.48876 0.85884 0.0
C668 C 0.45944 0.50641 0.88295 0.0
C669 C 0.4626 0.52749 0.86425 0.0
H670 H 0.44622 0.54468 0.82866 0.0
H671 H 0.40214 0.473 0.85609 0.0
C672 C 0.33076 0.57905 0.82287 0.0
N673 N 0.34252 0.57212 0.79716 0.0
C674 C 0.31366 0.60224 0.82724 0.0
C675 C 0.3212 0.6109 0.7787 0.0
C676 C 0.33817 0.58759 0.77526 0.0
C677 C 0.30856 0.61824 0.80487 0.0
H678 H 0.33439 0.5664 0.8399 0.0
H679 H 0.34775 0.58166 0.75504 0.0
C680 C 0.4208 0.4644 0.78806 0.0
N681 N 0.45368 0.42898 0.81334 0.0
C682 C 0.44841 0.47083 0.78958 0.0
C683 C 0.4099 0.44011 0.79968 0.0
C684 C 0.4647 0.45259 0.80233 0.0
C685 C 0.42686 0.42245 0.81232 0.0
C686 C 0.35539 0.50614 0.72576 0.0
C687 C 0.36998 0.48345 0.71231 0.0
C688 C 0.33423 0.51671 0.71179 0.0
C689 C 0.36312 0.47169 0.68503 0.0
C690 C 0.32799 0.50436 0.68451 0.0
N691 N 0.34244 0.4823 0.67181 0.0
C692 C 0.31606 0.45318 0.7727 0.0
C693 C 0.3532 0.42786 0.75259 0.0
C694 C 0.29883 0.42907 0.76528 0.0
N695 N 0.34276 0.45204 0.76664 0.0
C696 C 0.33668 0.40321 0.74481 0.0
C697 C 0.30919 0.40367 0.7514 0.0
H698 H 0.30822 0.47276 0.78359 0.0
H699 H 0.37442 0.42764 0.74756 0.0
C700 C 0.44393 0.50572 0.72072 0.0
N701 N 0.42377 0.52423 0.7269 0.0
C702 C 0.46117 0.50884 0.69777 0.0
C703 C 0.43605 0.54939 0.68718 0.0
C704 C 0.41933 0.54557 0.71048 0.0
C705 C 0.45736 0.53098 0.68087 0.0
H706 H 0.44655 0.48839 0.7335 0.0
H707 H 0.40278 0.55957 0.71544 0.0
O708 O 0.35832 0.50833 0.81502 0.0
O709 O 0.40534 0.54853 0.79227 0.0
O710 O 0.40447 0.4821 0.77582 0.0
O711 O 0.36164 0.51798 0.7525 0.0
H712 H 0.36485 0.54056 0.86412 0.0
H713 H 0.34475 0.45456 0.82472 0.0
H714 H 0.35839 0.52265 0.91084 0.0
H715 H 0.3386 0.4382 0.87213 0.0
H716 H 0.40459 0.64296 0.77619 0.0
H717 H 0.39924 0.57144 0.84519 0.0
H718 H 0.40863 0.59083 0.75944 0.0
H719 H 0.39534 0.6239 0.86048 0.0
H720 H 0.43428 0.47018 0.89413 0.0
H721 H 0.47981 0.54261 0.8656 0.0
H722 H 0.30409 0.6073 0.84765 0.0
H723 H 0.31758 0.62277 0.76099 0.0
H724 H 0.45714 0.48997 0.78143 0.0
H725 H 0.38854 0.43513 0.79929 0.0
H726 H 0.48608 0.45734 0.80366 0.0
H727 H 0.41868 0.40363 0.82144 0.0
H728 H 0.3864 0.47496 0.7228 0.0
H729 H 0.32275 0.53427 0.72194 0.0
H730 H 0.37423 0.45412 0.67438 0.0
H731 H 0.31165 0.51232 0.67343 0.0
H732 H 0.27769 0.43004 0.77071 0.0
H733 H 0.34525 0.38389 0.73414 0.0
H734 H 0.4773 0.49413 0.6932 0.0
H735 H 0.43252 0.56654 0.67432 0.0
Li736 Li 0.78253 0.40995 0.52374 0.0
Li737 Li 0.7604 0.3764 0.55601 0.0
Li738 Li 0.7551 0.36755 0.5048 0.0
Li739 Li 0.73269 0.40854 0.53142 0.0
C740 C 0.80343 0.34571 0.51669 0.0
N741 N 0.83247 0.29854 0.49585 0.0
C742 C 0.80635 0.32287 0.53294 0.0
C743 C 0.81555 0.34465 0.48996 0.0
C744 C 0.82107 0.29921 0.52201 0.0
C745 C 0.83005 0.32057 0.47976 0.0
C746 C 0.74981 0.43097 0.58464 0.0
C747 C 0.71605 0.42751 0.62107 0.0
N748 N 0.72556 0.45323 0.63443 0.0
C749 C 0.75924 0.45736 0.59869 0.0
C750 C 0.72803 0.41589 0.59587 0.0
C751 C 0.74672 0.46825 0.62386 0.0
C752 C 0.81045 0.46295 0.51579 0.0
N753 N 0.8133 0.43421 0.51715 0.0
C754 C 0.8602 0.43906 0.50658 0.0
C755 C 0.83755 0.42211 0.5129 0.0
C756 C 0.85785 0.46875 0.50501 0.0
C757 C 0.83267 0.4808 0.50983 0.0
H758 H 0.79088 0.47193 0.51913 0.0
H759 H 0.83929 0.39925 0.5142 0.0
C760 C 0.7526 0.33262 0.59301 0.0
N761 N 0.7661 0.35807 0.58947 0.0
C762 C 0.75886 0.31708 0.6153 0.0
C763 C 0.79236 0.3545 0.63035 0.0
C764 C 0.7855 0.36931 0.60772 0.0
C765 C 0.77918 0.32788 0.63405 0.0
H766 H 0.7376 0.32391 0.57794 0.0
H767 H 0.79618 0.38937 0.60421 0.0
C768 C 0.75744 0.41749 0.47014 0.0
N769 N 0.7649 0.43647 0.41764 0.0
C770 C 0.73648 0.42992 0.45746 0.0
C771 C 0.78217 0.41472 0.45611 0.0
C772 C 0.74065 0.43935 0.43089 0.0
C773 C 0.78557 0.42447 0.4296 0.0
C774 C 0.70272 0.35588 0.52276 0.0
C775 C 0.69447 0.36631 0.49812 0.0
C776 C 0.68657 0.33519 0.53494 0.0
C777 C 0.67016 0.35584 0.48607 0.0
C778 C 0.66238 0.32526 0.52225 0.0
N779 N 0.65475 0.33571 0.49828 0.0
C780 C 0.75694 0.30941 0.47758 0.0
C781 C 0.74454 0.3438 0.44779 0.0
C782 C 0.7559 0.28734 0.45502 0.0
N783 N 0.75189 0.33717 0.47351 0.0
C784 C 0.74261 0.32234 0.42488 0.0
C785 C 0.74841 0.29373 0.42833 0.0
H786 H 0.76189 0.30434 0.49834 0.0
H787 H 0.73985 0.36567 0.44499 0.0
C788 C 0.70642 0.46026 0.52484 0.0
N789 N 0.70236 0.43358 0.53375 0.0
C790 C 0.68551 0.47951 0.52589 0.0
C791 C 0.65651 0.44365 0.54541 0.0
C792 C 0.67799 0.42511 0.54407 0.0
C793 C 0.66018 0.47121 0.53626 0.0
H794 H 0.72601 0.46665 0.51697 0.0
H795 H 0.67521 0.40403 0.55146 0.0
O796 O 0.78894 0.36899 0.52703 0.0
O797 O 0.76165 0.42025 0.5598 0.0
O798 O 0.75365 0.4082 0.49617 0.0
O799 O 0.72652 0.36564 0.53491 0.0
H800 H 0.79734 0.32333 0.55373 0.0
H801 H 0.81355 0.36204 0.47708 0.0
H802 H 0.8234 0.28137 0.53433 0.0
H803 H 0.83933 0.31939 0.45902 0.0
H804 H 0.69917 0.41609 0.62999 0.0
H805 H 0.77603 0.46933 0.59018 0.0
H806 H 0.72037 0.39549 0.58523 0.0
H807 H 0.75379 0.48867 0.63497 0.0
H808 H 0.87938 0.42917 0.50302 0.0
H809 H 0.83026 0.50367 0.50879 0.0
H810 H 0.74842 0.29652 0.61753 0.0
H811 H 0.80821 0.36333 0.6444 0.0
H812 H 0.71714 0.43207 0.46792 0.0
H813 H 0.79862 0.40528 0.46559 0.0
H814 H 0.72459 0.44896 0.42081 0.0
H815 H 0.80464 0.42251 0.41855 0.0
H816 H 0.70661 0.38235 0.4884 0.0
H817 H 0.69265 0.3269 0.55401 0.0
H818 H 0.66354 0.36374 0.46702 0.0
H819 H 0.64968 0.30926 0.53145 0.0
H820 H 0.76034 0.26545 0.45846 0.0
H821 H 0.73652 0.32798 0.40461 0.0
H822 H 0.68909 0.50074 0.51894 0.0
H823 H 0.63729 0.43671 0.55386 0.0
Li824 Li 0.66394 0.99472 0.78314 0.0
Li825 Li 0.63155 0.02843 0.80188 0.0
Li826 Li 0.63144 0.01372 0.75007 0.0
Li827 Li 0.66876 0.04615 0.77515 0.0
C828 C 0.62198 0.96028 0.78178 0.0
N829 N 0.62132 0.90092 0.78211 0.0
C830 C 0.62217 0.94833 0.80734 0.0
C831 C 0.62132 0.94208 0.7564 0.0
C832 C 0.62188 0.91825 0.80706 0.0
C833 C 0.621 0.91211 0.75701 0.0
C834 C 0.67055 0.03921 0.83876 0.0
C835 C 0.68002 0.07762 0.87607 0.0
N836 N 0.67008 0.06029 0.89528 0.0
C837 C 0.66051 0.02176 0.8589 0.0
C838 C 0.6804 0.06738 0.8474 0.0
C839 C 0.66039 0.03284 0.88735 0.0
C840 C 0.69329 0.95786 0.81432 0.0
N841 N 0.68457 0.96157 0.78819 0.0
C842 C 0.70818 0.92031 0.76794 0.0
C843 C 0.69149 0.9432 0.76519 0.0
C844 C 0.71772 0.91629 0.79463 0.0
C845 C 0.70982 0.93515 0.81806 0.0
H846 H 0.68791 0.97286 0.83223 0.0
H847 H 0.6845 0.94673 0.74459 0.0
C848 C 0.58615 0.01943 0.8375 0.0
N849 N 0.60684 0.03864 0.83333 0.0
C850 C 0.56763 0.02542 0.85954 0.0
C851 C 0.59174 0.07097 0.87271 0.0
C852 C 0.60979 0.06413 0.85039 0.0
C853 C 0.57041 0.05141 0.87746 0.0
H854 H 0.58396 0.99945 0.82362 0.0
H855 H 0.62617 0.07927 0.84676 0.0
C856 C 0.69286 0.01887 0.73121 0.0
N857 N 0.73702 0.03884 0.7022 0.0
C858 C 0.68954 0.03625 0.70961 0.0
C859 C 0.7186 0.01161 0.73807 0.0
C860 C 0.71214 0.04616 0.6952 0.0
C861 C 0.74068 0.02191 0.72313 0.0
C862 C 0.6147 0.07556 0.78199 0.0
C863 C 0.58679 0.07157 0.78139 0.0
C864 C 0.62626 0.10143 0.79514 0.0
C865 C 0.57089 0.09347 0.79413 0.0
C866 C 0.60967 0.12288 0.80752 0.0
N867 N 0.58256 0.11846 0.80681 0.0
C868 C 0.58219 1.0036 0.72066 0.0
C869 C 0.62025 0.99676 0.6907 0.0
C870 C 0.56501 0.99699 0.69773 0.0
N871 N 0.6093 1.00393 0.7168 0.0
C872 C 0.60375 0.98969 0.66717 0.0
C873 C 0.57571 0.99019 0.6705 0.0
H874 H 0.57385 1.00843 0.74162 0.0
H875 H 0.64181 0.9965 0.6881 0.0
C876 C 0.72026 0.07426 0.78304 0.0
N877 N 0.69592 0.07664 0.77127 0.0
C878 C 0.74062 0.09576 0.78131 0.0
C879 C 0.71067 0.12172 0.75514 0.0
C880 C 0.69094 0.09965 0.75721 0.0
C881 C 0.73579 0.11995 0.76742 0.0
H882 H 0.72383 0.05563 0.79388 0.0
H883 H 0.6716 0.1009 0.74769 0.0
O884 O 0.62338 0.98967 0.78159 0.0
O885 O 0.67071 0.02883 0.81076 0.0
O886 O 0.6711 1.00997 0.74633 0.0
O887 O 0.63064 0.05417 0.77007 0.0
H888 H 0.6228 0.96214 0.82716 0.0
H889 H 0.62141 0.951 0.73643 0.0
H890 H 0.62218 0.90869 0.82667 0.0
H891 H 0.62063 0.89775 0.73753 0.0
H892 H 0.68749 0.0994 0.88304 0.0
H893 H 0.65237 1.00011 0.85259 0.0
H894 H 0.68796 0.08135 0.83216 0.0
H895 H 0.65245 0.01965 0.90312 0.0
H896 H 0.71399 0.90619 0.74941 0.0
H897 H 0.71691 0.9327 0.83892 0.0
H898 H 0.55126 1.00993 0.8626 0.0
H899 H 0.59436 0.09128 0.8861 0.0
H900 H 0.66976 0.04243 0.70437 0.0
H901 H 0.72152 0.99849 0.75499 0.0
H902 H 0.70991 0.05978 0.67855 0.0
H903 H 0.76073 0.01659 0.72828 0.0
H904 H 0.57749 0.05164 0.77156 0.0
H905 H 0.6478 0.10474 0.79628 0.0
H906 H 0.54926 0.09056 0.79401 0.0
H907 H 0.61836 0.14293 0.8179 0.0
H908 H 0.54351 0.99738 0.70119 0.0
H909 H 0.61274 0.98435 0.64651 0.0
H910 H 0.75988 0.0936 0.79074 0.0
H911 H 0.70645 0.13998 0.74397 0.0
Li912 Li 0.03056 0.24781 0.88936 0.0
Li913 Li 1.00557 0.26777 0.93346 0.0
Li914 Li 0.01226 0.21484 0.92467 0.0
Li915 Li 0.98165 0.23795 0.89586 0.0
C916 C 0.05791 0.23814 0.94696 0.0
N917 N 0.09253 0.21538 0.98224 0.0
C918 C 0.05456 0.24341 0.9762 0.0
C919 C 0.07892 0.22144 0.93564 0.0
C920 C 0.07229 0.23169 0.99369 0.0
C921 C 0.09619 0.21007 0.95384 0.0
C922 C 0.99195 0.30325 0.89854 0.0
C923 C 0.95577 0.33572 0.90872 0.0
N924 N 0.97382 0.35863 0.91091 0.0
C925 C 1.01015 0.32712 0.90127 0.0
C926 C 0.96454 0.30758 0.90253 0.0
C927 C 1.00059 0.35493 0.90731 0.0
C928 C 0.06471 0.28071 0.85506 0.0
N929 N 0.05942 0.25391 0.86318 0.0
C930 C 0.09603 0.23502 0.83468 0.0
C931 C 0.07442 0.23114 0.85322 0.0
C932 C 0.10226 0.26263 0.82652 0.0
C933 C 0.08624 0.28562 0.83678 0.0
H934 H 0.05229 0.29833 0.86278 0.0
H935 H 0.06966 0.20997 0.8598 0.0
C936 C 0.98224 0.311 0.97367 0.0
N937 N 1.00565 0.30129 0.96187 0.0
C938 C 0.9821 0.33651 0.99234 0.0
C939 C 0.03027 0.34119 0.98733 0.0
C940 C 0.02947 0.31568 0.96857 0.0
C941 C 1.00629 0.35213 0.99906 0.0
H942 H 0.96355 0.29938 0.96801 0.0
H943 H 0.04783 0.30771 0.9588 0.0
C944 C 0.99688 0.192 0.86317 0.0
N945 N 0.96751 0.15731 0.823 0.0
C946 C 0.9826 0.16733 0.87044 0.0
C947 C 0.99645 0.19894 0.83547 0.0
C948 C 0.96784 0.15007 0.84981 0.0
C949 C 0.98138 0.18117 0.81548 0.0
C950 C 0.95388 0.22386 0.94199 0.0
C951 C 0.94958 0.19439 0.94473 0.0
C952 C 0.93211 0.24188 0.94382 0.0
C953 C 0.92352 0.18342 0.94919 0.0
C954 C 0.90634 0.23006 0.94819 0.0
N955 N 0.90261 0.20133 0.95077 0.0
C956 C 0.01653 0.18178 0.97108 0.0
C957 C 0.03497 0.15952 0.92834 0.0
C958 C 0.0246 0.15918 0.98555 0.0
N959 N 0.02177 0.1816 0.94298 0.0
C960 C 0.04335 0.13638 0.94201 0.0
C961 C 0.03818 0.13616 0.971 0.0
H962 H 1.00628 0.19969 0.98232 0.0
H963 H 0.03923 0.16004 0.90609 0.0
C964 C 0.94798 0.25041 0.85173 0.0
N965 N 0.94911 0.23264 0.87245 0.0
C966 C 0.92624 0.2483 0.83339 0.0
C967 C 0.90718 0.20892 0.85711 0.0
C968 C 0.92938 0.21176 0.87503 0.0
C969 C 0.90545 0.22743 0.83601 0.0
H970 H 0.96412 0.26627 0.84931 0.0
H971 H 0.93092 0.19694 0.89065 0.0
O972 O 0.04017 0.24849 0.92951 0.0
O973 O 1.00095 0.27577 0.89297 0.0
O974 O 1.01066 0.2097 0.88326 0.0
O975 O 0.9793 0.23507 0.93798 0.0
H976 H 0.03821 0.25603 0.98528 0.0
H977 H 0.08164 0.217 0.91305 0.0
H978 H 0.06985 0.23543 0.01635 0.0
H979 H 0.11243 0.19693 0.94539 0.0
H980 H 0.93462 0.33934 0.91187 0.0
H981 H 0.03149 0.32426 0.89933 0.0
H982 H 0.95015 0.28943 0.90117 0.0
H983 H 0.01447 0.37357 0.90934 0.0
H984 H 0.10794 0.2168 0.827 0.0
H985 H 0.09042 0.30715 0.83074 0.0
H986 H 0.96322 0.34441 1.0009 0.0
H987 H 0.04927 0.35277 0.99194 0.0
H988 H 0.98268 0.16178 0.89185 0.0
H989 H 1.00734 0.21808 0.82961 0.0
H990 H 0.95654 0.131 0.85515 0.0
H991 H 0.98064 0.18639 0.794 0.0
H992 H 0.96611 0.18006 0.94321 0.0
H993 H 0.93501 0.26469 0.94168 0.0
H994 H 0.91989 0.16065 0.95127 0.0
H995 H 0.8893 0.24373 0.9495 0.0
H996 H 0.02022 0.1596 1.0079 0.0
H997 H 0.05372 0.11889 0.93017 0.0
H998 H 0.92567 0.26281 0.81722 0.0
H999 H 0.89161 0.19237 0.85955 0.0
Li1000 Li 0.53093 0.74709 0.38957 0.0
Li1001 Li 0.50453 0.76828 0.43381 0.0
Li1002 Li 0.51292 0.71634 0.42402 0.0
Li1003 Li 0.47988 0.73634 0.39533 0.0
C1004 C 0.55862 0.73974 0.44623 0.0
N1005 N 0.59594 0.71794 0.47922 0.0
C1006 C 0.55389 0.73955 0.47516 0.0
C1007 C 0.58238 0.72902 0.43408 0.0
C1008 C 0.57298 0.72835 0.49147 0.0
C1009 C 0.60099 0.71806 0.45113 0.0
C1010 C 0.49278 0.79964 0.38554 0.0
C1011 C 0.45924 0.83494 0.38315 0.0
N1012 N 0.47748 0.85203 0.37046 0.0
C1013 C 0.51116 0.81744 0.37231 0.0
C1014 C 0.46657 0.80835 0.39089 0.0
C1015 C 0.50305 0.84389 0.36491 0.0
C1016 C 0.55909 0.7423 0.33692 0.0
N1017 N 0.55924 0.7554 0.36389 0.0
C1018 C 0.60084 0.78078 0.35536 0.0
C1019 C 0.57947 0.77441 0.37332 0.0
C1020 C 0.60126 0.76744 0.32751 0.0
C1021 C 0.58009 0.74805 0.31822 0.0
H1022 H 0.54271 0.7273 0.32999 0.0
H1023 H 0.57902 0.78453 0.39487 0.0
C1024 C 0.49862 0.79858 0.48948 0.0
N1025 N 0.50368 0.80209 0.46189 0.0
C1026 C 0.49832 0.82267 0.51006 0.0
C1027 C 0.50825 0.8536 0.47355 0.0
C1028 C 0.50896 0.82895 0.45385 0.0
C1029 C 0.50265 0.85069 0.50204 0.0
H1030 H 0.49471 0.77705 0.49552 0.0
H1031 H 0.51375 0.83141 0.43211 0.0
C1032 C 0.50839 0.6806 0.37664 0.0
N1033 N 0.50702 0.62089 0.3673 0.0
C1034 C 0.48642 0.66444 0.38605 0.0
C1035 C 0.52957 0.66647 0.36229 0.0
C1036 C 0.48614 0.63424 0.38119 0.0
C1037 C 0.52851 0.63624 0.35781 0.0
C1038 C 0.45303 0.73638 0.44693 0.0
C1039 C 0.43817 0.71139 0.45244 0.0
C1040 C 0.44129 0.76324 0.45138 0.0
C1041 C 0.41162 0.71367 0.46194 0.0
C1042 C 0.4147 0.76463 0.46091 0.0
N1043 N 0.40053 0.74002 0.46593 0.0
C1044 C 0.5086 0.67655 0.46586 0.0
C1045 C 0.54427 0.66752 0.43306 0.0
C1046 C 0.51617 0.65399 0.48074 0.0
N1047 N 0.52265 0.68294 0.44248 0.0
C1048 C 0.55255 0.6448 0.44733 0.0
C1049 C 0.53851 0.63799 0.47161 0.0
H1050 H 0.49181 0.68933 0.4733 0.0
H1051 H 0.55551 0.67324 0.41479 0.0
C1052 C 0.44773 0.74643 0.34945 0.0
N1053 N 0.4473 0.7316 0.37249 0.0
C1054 C 0.42571 0.74477 0.33152 0.0
C1055 C 0.40313 0.7116 0.36039 0.0
C1056 C 0.4256 0.71411 0.37801 0.0
C1057 C 0.40295 0.7273 0.33691 0.0
H1058 H 0.46534 0.75955 0.34484 0.0
H1059 H 0.42572 0.70182 0.39586 0.0
O1060 O 0.53996 0.75009 0.42982 0.0
O1061 O 0.50046 0.77373 0.39299 0.0
O1062 O 0.50926 0.71012 0.38177 0.0
O1063 O 0.47902 0.73447 0.43758 0.0
H1064 H 0.53552 0.7476 0.48482 0.0
H1065 H 0.58625 0.72885 0.41168 0.0
H1066 H 0.5695 0.72784 0.51385 0.0
H1067 H 0.61941 0.70955 0.44201 0.0
H1068 H 0.43902 0.84196 0.38716 0.0
H1069 H 0.5315 0.81096 0.36793 0.0
H1070 H 0.45197 0.79461 0.40065 0.0
H1071 H 0.51708 0.85795 0.35476 0.0
H1072 H 0.61692 0.79584 0.36309 0.0
H1073 H 0.57991 0.73743 0.29682 0.0
H1074 H 0.49407 0.81956 0.53187 0.0
H1075 H 0.51188 0.87482 0.46658 0.0
H1076 H 0.46995 0.67512 0.39732 0.0
H1077 H 0.54675 0.67873 0.35496 0.0
H1078 H 0.46936 0.62143 0.38853 0.0
H1079 H 0.54482 0.62497 0.34687 0.0
H1080 H 0.44698 0.69041 0.44912 0.0
H1081 H 0.45258 0.78283 0.44759 0.0
H1082 H 0.39983 0.69449 0.46612 0.0
H1083 H 0.40534 0.78529 0.46437 0.0
H1084 H 0.50492 0.6493 0.49944 0.0
H1085 H 0.5699 0.63292 0.43975 0.0
H1086 H 0.42647 0.75695 0.31346 0.0
H1087 H 0.38607 0.69761 0.36504 0.0
Li1088 Li 0.02354 0.81633 0.63056 0.0
Li1089 Li 0.99306 0.78918 0.66344 0.0
Li1090 Li 0.04314 0.78226 0.65942 0.0
Li1091 Li 0.01451 0.76507 0.62127 0.0
C1092 C 0.01349 0.8434 0.68579 0.0
N1093 N 0.99181 0.89352 0.71143 0.0
C1094 C 0.99289 0.85613 0.67281 0.0
C1095 C 0.02309 0.85621 0.71177 0.0
C1096 C 0.98219 0.88145 0.68612 0.0
C1097 C 0.01186 0.88154 0.7244 0.0
C1098 C 0.96835 0.78394 0.60487 0.0
C1099 C 0.92499 0.76 0.5957 0.0
N1100 N 0.93002 0.75903 0.56751 0.0
C1101 C 0.97305 0.78277 0.5758 0.0
C1102 C 0.94412 0.77246 0.61491 0.0
C1103 C 0.95345 0.77004 0.55726 0.0
C1104 C 0.02957 0.84958 0.58447 0.0
N1105 N 0.03228 0.85161 0.61294 0.0
C1106 C 0.05191 0.89983 0.61315 0.0
C1107 C 0.04344 0.8761 0.62739 0.0
C1108 C 0.04896 0.89824 0.5838 0.0
C1109 C 0.03767 0.87271 0.56948 0.0
H1110 H 0.02167 0.82968 0.57323 0.0
H1111 H 0.04634 0.87705 0.64986 0.0
C1112 C 0.96479 0.77212 0.71175 0.0
N1113 N 0.96332 0.78965 0.69085 0.0
C1114 C 0.9441 0.7707 0.73194 0.0
C1115 C 0.92084 0.80594 0.70934 0.0
C1116 C 0.94193 0.8066 0.68948 0.0
C1117 C 0.92173 0.78769 0.7308 0.0
H1118 H 0.98205 0.75904 0.71267 0.0
H1119 H 0.9411 0.82048 0.67284 0.0
C1120 C 0.07407 0.80026 0.61586 0.0
N1121 N 0.12264 0.82992 0.60913 0.0
C1122 C 0.0888 0.79533 0.59069 0.0
C1123 C 0.08402 0.82049 0.63752 0.0
C1124 C 0.11331 0.81049 0.58772 0.0
C1125 C 0.10862 0.83518 0.63374 0.0
C1126 C 1.00782 0.72425 0.65552 0.0
C1127 C 0.02845 0.70565 0.64724 0.0
C1128 C 0.98166 0.71288 0.6586 0.0
C1129 C 0.0225 0.67591 0.64188 0.0
C1130 C 0.97654 0.683 0.65311 0.0
N1131 N 0.99689 0.6653 0.64489 0.0
C1132 C 0.07544 0.7845 0.70793 0.0
C1133 C 0.09175 0.75546 0.66769 0.0
C1134 C 0.09671 0.77717 0.72398 0.0
N1135 N 0.07332 0.77351 0.6804 0.0
C1136 C 0.1132 0.74734 0.68302 0.0
C1137 C 0.11569 0.75819 0.71151 0.0
H1138 H 0.06039 0.79862 0.71751 0.0
H1139 H 0.08957 0.74708 0.64574 0.0
C1140 C 0.98764 0.71608 0.58864 0.0
N1141 N 1.01068 0.73291 0.59152 0.0
C1142 C 0.98597 0.69191 0.56842 0.0
C1143 C 0.03165 0.70263 0.55409 0.0
C1144 C 0.03246 0.72665 0.57466 0.0
C1145 C 1.0082 0.6849 0.55102 0.0
H1146 H 0.9707 0.72096 0.60245 0.0
H1147 H 0.05071 0.7399 0.57761 0.0
O1148 O 0.02422 0.8185 0.67328 0.0
O1149 O 0.98726 0.79635 0.62341 0.0
O1150 O 0.04962 0.78613 0.61865 0.0
O1151 O 0.01316 0.75347 0.66034 0.0
H1152 H 0.98525 0.84666 0.65265 0.0
H1153 H 0.03906 0.84668 0.72208 0.0
H1154 H 0.96624 0.89152 0.67632 0.0
H1155 H 0.01909 0.89166 0.74453 0.0
H1156 H 0.9062 0.75095 0.6032 0.0
H1157 H 0.99179 0.79105 0.56758 0.0
H1158 H 0.94021 0.77281 0.63727 0.0
H1159 H 0.95692 0.7688 0.53473 0.0
H1160 H 0.06073 0.91914 0.62484 0.0
H1161 H 0.03528 0.87065 0.54682 0.0
H1162 H 0.94556 0.75657 0.74832 0.0
H1163 H 0.90395 0.81948 0.70794 0.0
H1164 H 0.08129 0.78016 0.57349 0.0
H1165 H 0.07287 0.82508 0.657 0.0
H1166 H 0.12488 0.80688 0.56834 0.0
H1167 H 0.11652 0.85086 0.65034 0.0
H1168 H 0.04876 0.71411 0.6446 0.0
H1169 H 0.9654 0.72699 0.66468 0.0
H1170 H 0.03823 0.66128 0.63525 0.0
H1171 H 0.95637 0.67392 0.65521 0.0
H1172 H 0.09811 0.78576 0.74598 0.0
H1173 H 0.12756 0.73262 0.67288 0.0
H1174 H 0.96766 0.67843 0.56674 0.0
H1175 H 0.04925 0.69757 0.54116 0.0
Li1176 Li 0.53006 0.31282 0.13104 0.0
Li1177 Li 0.49489 0.28625 0.16381 0.0
Li1178 Li 0.54318 0.27727 0.16189 0.0
Li1179 Li 0.51751 0.26034 0.12215 0.0
C1180 C 0.54211 0.32812 0.19426 0.0
N1181 N 0.57534 0.35331 0.23662 0.0
C1182 C 0.53954 0.31966 0.22139 0.0
C1183 C 0.56137 0.34957 0.1887 0.0
C1184 C 0.55663 0.33257 0.2425 0.0
C1185 C 0.578 0.36203 0.21041 0.0
C1186 C 0.47901 0.28674 0.09886 0.0
C1187 C 0.4393 0.26672 0.07465 0.0
N1188 N 0.45145 0.27075 0.04955 0.0
C1189 C 0.49107 0.29086 0.07287 0.0
C1190 C 0.45289 0.27471 0.09984 0.0
C1191 C 0.47681 0.28255 0.04816 0.0
C1192 C 0.55993 0.34423 0.09246 0.0
N1193 N 0.53949 0.34682 0.11177 0.0
C1194 C 0.53169 0.39443 0.09957 0.0
C1195 C 0.52552 0.37148 0.11575 0.0
C1196 C 0.55268 0.39216 0.07943 0.0
C1197 C 0.56729 0.36689 0.07656 0.0
H1198 H 0.57008 0.32413 0.08865 0.0
H1199 H 0.50909 0.37302 0.13088 0.0
C1200 C 0.46759 0.27723 0.21466 0.0
N1201 N 0.4642 0.28853 0.1899 0.0
C1202 C 0.44673 0.27682 0.23474 0.0
C1203 C 0.41887 0.29938 0.20353 0.0
C1204 C 0.44036 0.29949 0.18404 0.0
C1205 C 0.42196 0.2879 0.22924 0.0
H1206 H 0.48654 0.26822 0.21873 0.0
H1207 H 0.43796 0.30825 0.16424 0.0
C1208 C 0.57972 0.27262 0.12272 0.0
N1209 N 0.63259 0.25813 0.12618 0.0
C1210 C 0.58623 0.2436 0.12165 0.0
C1211 C 0.60018 0.29428 0.12559 0.0
C1212 C 0.61304 0.23671 0.12348 0.0
C1213 C 0.62677 0.28651 0.12721 0.0
C1214 C 0.50161 0.22145 0.15669 0.0
C1215 C 0.51804 0.19826 0.14872 0.0
C1216 C 0.47401 0.21614 0.16018 0.0
C1217 C 0.50655 0.17022 0.14399 0.0
C1218 C 0.4633 0.18776 0.15538 0.0
N1219 N 0.47964 0.1656 0.14739 0.0
C1220 C 0.56617 0.24196 0.19802 0.0
C1221 C 0.59387 0.28361 0.19207 0.0
C1222 C 0.5851 0.23201 0.21527 0.0
N1223 N 0.57088 0.26717 0.18648 0.0
C1224 C 0.61343 0.27443 0.20927 0.0
C1225 C 0.60907 0.24825 0.22086 0.0
H1226 H 0.54764 0.2295 0.19392 0.0
H1227 H 0.59715 0.30382 0.18318 0.0
C1228 C 0.4889 0.21357 0.0886 0.0
N1229 N 0.51237 0.22966 0.09113 0.0
C1230 C 0.48617 0.18982 0.06799 0.0
C1231 C 0.53123 0.20038 0.05162 0.0
C1232 C 0.53308 0.224 0.07258 0.0
C1233 C 0.50767 0.18276 0.04955 0.0
H1234 H 0.47242 0.21871 0.10299 0.0
H1235 H 0.55129 0.23749 0.07435 0.0
O1236 O 0.52586 0.31553 0.17319 0.0
O1237 O 0.49287 0.29413 0.12319 0.0
O1238 O 0.55346 0.27975 0.12144 0.0
O1239 O 0.51249 0.24913 0.16113 0.0
H1240 H 0.52477 0.30307 0.226 0.0
H1241 H 0.56359 0.35634 0.16779 0.0
H1242 H 0.55505 0.32606 0.26354 0.0
H1243 H 0.59309 0.37856 0.20641 0.0
H1244 H 0.41913 0.25721 0.07504 0.0
H1245 H 0.51132 0.30007 0.07182 0.0
H1246 H 0.44338 0.27123 0.11982 0.0
H1247 H 0.48594 0.28543 0.02787 0.0
H1248 H 0.51979 0.41348 0.10226 0.0
H1249 H 0.5834 0.36415 0.06109 0.0
H1250 H 0.44988 0.26792 0.25436 0.0
H1251 H 0.40007 0.30831 0.19869 0.0
H1252 H 0.57074 0.22655 0.11958 0.0
H1253 H 0.5956 0.31692 0.12738 0.0
H1254 H 0.61829 0.21433 0.1228 0.0
H1255 H 0.64275 0.30306 0.12962 0.0
H1256 H 0.53943 0.20185 0.1461 0.0
H1257 H 0.46087 0.23371 0.16605 0.0
H1258 H 0.51902 0.15213 0.13761 0.0
H1259 H 0.44196 0.1834 0.15782 0.0
H1260 H 0.58109 0.21185 0.22425 0.0
H1261 H 0.63167 0.28758 0.21353 0.0
H1262 H 0.46768 0.17664 0.06686 0.0
H1263 H 0.54815 0.19551 0.03762 0.0
C1264 C 0.22608 0.72946 0.87323 0.0
C1265 C 0.23488 0.74021 0.84783 0.0
C1266 C 0.25786 0.78156 0.87539 0.0
C1267 C 0.24546 0.7733 0.90034 0.0
N1268 N 0.21672 0.73993 0.92341 0.0
N1269 N 0.255 0.77961 0.82483 0.0
C1270 C 0.22969 0.74704 0.89951 0.0
C1271 C 0.25006 0.7669 0.84893 0.0
N1272 N 0.21318 0.70292 0.87198 0.0
N1273 N 0.27692 0.80371 0.87701 0.0
H1274 H 0.24856 0.77029 0.80511 0.0
H1275 H 0.26323 0.80058 0.82473 0.0
H1276 H 0.28307 0.81488 0.89618 0.0
H1277 H 0.28842 0.80895 0.85971 0.0
H1278 H 0.20854 0.6922 0.88956 0.0
H1279 H 0.20868 0.69083 0.8529 0.0
H1280 H 0.20248 0.72291 0.9237 0.0
H1281 H 0.21896 0.75218 0.94297 0.0
C1282 C 0.03678 0.55418 0.45131 0.0
C1283 C 0.01093 0.56299 0.44506 0.0
C1284 C 0.02693 0.57098 0.3974 0.0
C1285 C 0.05163 0.55879 0.40248 0.0
N1286 N 0.07959 0.53629 0.43358 0.0
N1287 N 0.97991 0.5734 0.40985 0.0
C1288 C 0.05665 0.55015 0.42944 0.0
C1289 C 1.00566 0.56995 0.41754 0.0
N1290 N 0.04192 0.54852 0.47801 0.0
N1291 N 0.02381 0.58366 0.37329 0.0
H1292 H 0.96359 0.57175 0.42358 0.0
H1293 H 0.97447 0.57519 0.38919 0.0
H1294 H 0.03907 0.58492 0.35816 0.0
H1295 H 1.00716 0.59538 0.3697 0.0
H1296 H 0.06099 0.54533 0.48521 0.0
H1297 H 0.027 0.5485 0.49343 0.0
H1298 H 0.0832 0.52649 0.45159 0.0
H1299 H 0.09449 0.53278 0.41813 0.0
C1300 C 0.83627 0.7698 0.86245 0.0
C1301 C 0.81822 0.76816 0.83966 0.0
C1302 C 0.79592 0.72458 0.85646 0.0
C1303 C 0.81159 0.72872 0.88116 0.0
N1304 N 0.84727 0.7545 0.90789 0.0
N1305 N 0.77938 0.74518 0.81606 0.0
C1306 C 0.83221 0.75092 0.88401 0.0
C1307 C 0.79798 0.74545 0.83672 0.0
N1308 N 0.857 0.78995 0.86364 0.0
N1309 N 0.77886 0.70073 0.85195 0.0
H1310 H 0.78068 0.75946 0.80074 0.0
H1311 H 0.76192 0.73201 0.81494 0.0
H1312 H 0.77608 0.68559 0.86638 0.0
H1313 H 0.76906 0.69466 0.833 0.0
H1314 H 0.87245 0.79133 0.8781 0.0
H1315 H 0.85966 0.80424 0.84856 0.0
H1316 H 0.8607 0.77194 0.91312 0.0
H1317 H 0.84561 0.74031 0.92333 0.0
C1318 C 1.00061 0.01341 0.45238 0.0
C1319 C 0.02285 0.99609 0.44519 0.0
C1320 C 1.00522 0.98254 0.39763 0.0
C1321 C 0.98346 1.00087 0.40443 0.0
N1322 N 0.96123 0.03582 0.43695 0.0
N1323 N 0.04834 0.9664 0.41114 0.0
C1324 C 0.98138 0.01692 0.43148 0.0
C1325 C 0.02569 0.98126 0.4178 0.0
N1326 N 0.99777 0.02593 0.47951 0.0
N1327 N 1.00598 0.96601 0.37205 0.0
H1328 H 0.06312 0.96452 0.42588 0.0
H1329 H 0.05337 0.95734 0.3909 0.0
H1330 H 0.9919 0.9672 0.35641 0.0
H1331 H 0.01962 0.94998 0.36666 0.0
H1332 H 0.9808 0.03645 0.48737 0.0
H1333 H 0.01212 0.02446 0.49479 0.0
H1334 H 0.95996 0.05039 0.45508 0.0
H1335 H 0.94626 0.03813 0.42252 0.0
C1336 C 0.26107 0.26346 0.6929 0.0
C1337 C 0.23702 0.27872 0.69391 0.0
C1338 C 0.2341 0.26964 0.64218 0.0
C1339 C 0.25642 0.25186 0.64157 0.0
N1340 N 0.29217 0.23217 0.66537 0.0
N1341 N 0.19849 0.29291 0.67002 0.0
C1342 C 0.27051 0.24929 0.66665 0.0
C1343 C 0.22318 0.28125 0.66859 0.0
N1344 N 0.27407 0.26144 0.71739 0.0
N1345 N 0.22326 0.27527 0.61739 0.0
H1346 H 0.18969 0.3015 0.68889 0.0
H1347 H 0.18579 0.29215 0.65289 0.0
H1348 H 0.23046 0.26658 0.59772 0.0
H1349 H 0.20878 0.29047 0.61616 0.0
H1350 H 0.29294 0.25314 0.71864 0.0
H1351 H 0.26589 0.26884 0.73688 0.0
H1352 H 0.30222 0.22691 0.68282 0.0
H1353 H 0.29998 0.22243 0.64637 0.0
C1354 C 0.4883 0.52312 0.60676 0.0
C1355 C 0.51235 0.54016 0.6114 0.0
C1356 C 0.49918 0.5534 0.6608 0.0
C1357 C 0.47587 0.53483 0.65665 0.0
N1358 N 0.44887 0.50009 0.62681 0.0
N1359 N 0.5424 0.5695 0.6424 0.0
C1360 C 0.47056 0.51917 0.62988 0.0
C1361 C 0.51822 0.55481 0.63834 0.0
N1362 N 0.48239 0.5112 0.58001 0.0
N1363 N 0.50281 0.57001 0.68609 0.0
H1364 H 0.55623 0.5715 0.62602 0.0
H1365 H 0.5495 0.57826 0.66202 0.0
H1366 H 0.48964 0.56896 0.70321 0.0
H1367 H 0.51785 0.58615 0.68973 0.0
H1368 H 0.46405 0.50092 0.57424 0.0
H1369 H 0.4955 0.51314 0.563 0.0
H1370 H 0.44529 0.48572 0.60881 0.0
H1371 H 0.43497 0.49741 0.64302 0.0
C1372 C 0.81006 0.26868 0.67073 0.0
C1373 C 0.80106 0.27582 0.69883 0.0
C1374 C 0.77773 0.31719 0.68479 0.0
C1375 C 0.78745 0.31059 0.65671 0.0
N1376 N 0.81624 0.28313 0.62362 0.0
N1377 N 0.77969 0.30826 0.734 0.0
C1378 C 0.80464 0.28719 0.64988 0.0
C1379 C 0.78596 0.30063 0.70626 0.0
N1380 N 0.82318 0.24364 0.66398 0.0
N1381 N 0.75992 0.33861 0.69064 0.0
H1382 H 0.78504 0.296 0.74985 0.0
H1383 H 0.7709 0.32751 0.74161 0.0
H1384 H 0.75377 0.35137 0.67554 0.0
H1385 H 0.74991 0.3427 0.7099 0.0
H1386 H 0.82778 0.23516 0.64343 0.0
H1387 H 0.82815 0.23032 0.6791 0.0
H1388 H 0.831 0.26836 0.61804 0.0
H1389 H 0.81255 0.29609 0.60777 0.0
C1390 C 0.53805 1.00014 0.60312 0.0
C1391 C 0.5174 0.97805 0.60328 0.0
C1392 C 0.53926 0.96002 0.64326 0.0
C1393 C 0.55737 0.98461 0.64569 0.0
N1394 N 0.57176 0.03032 0.6297 0.0
N1395 N 0.4962 0.93966 0.62645 0.0
C1396 C 0.55642 1.00511 0.62584 0.0
C1397 C 0.51762 0.95845 0.62394 0.0
N1398 N 0.53971 0.01683 0.58133 0.0
N1399 N 0.54282 0.93805 0.65935 0.0
H1400 H 0.47975 0.93895 0.61338 0.0
H1401 H 0.49369 0.92686 0.64293 0.0
H1402 H 0.55853 0.93847 0.67353 0.0
H1403 H 0.53184 0.91838 0.65668 0.0
H1404 H 0.55582 0.0312 0.57824 0.0
H1405 H 0.52606 0.01444 0.56488 0.0
H1406 H 0.56962 0.04759 0.61796 0.0
H1407 H 0.58512 0.03516 0.64624 0.0
C1408 C 0.86269 0.20923 0.7701 0.0
C1409 C 0.84175 0.22886 0.77571 0.0
C1410 C 0.8608 0.24472 0.82259 0.0
C1411 C 0.882 0.22558 0.81661 0.0
N1412 N 0.90082 0.18583 0.78724 0.0
N1413 N 0.82436 0.26978 0.80468 0.0
C1414 C 0.8821 0.20653 0.79118 0.0
C1415 C 0.84155 0.24756 0.80146 0.0
N1416 N 0.86559 0.19544 0.74351 0.0
N1417 N 0.85886 0.25987 0.84877 0.0
H1418 H 0.81066 0.27324 0.78937 0.0
H1419 H 0.82514 0.28632 0.82129 0.0
H1420 H 0.87278 0.25856 0.86455 0.0
H1421 H 0.84236 0.27174 0.85576 0.0
H1422 H 0.88169 0.18286 0.73677 0.0
H1423 H 0.85316 0.19911 0.7272 0.0
H1424 H 0.90043 0.16921 0.7707 0.0
H1425 H 0.91575 0.18389 0.80181 0.0
C1426 C 0.47304 0.91076 0.55351 0.0
C1427 C 0.49404 0.93251 0.55393 0.0
C1428 C 0.52282 0.89696 0.52766 0.0
C1429 C 0.50037 0.87723 0.52284 0.0
N1430 N 0.45278 0.86719 0.52862 0.0
N1431 N 0.538 0.94715 0.5381 0.0
C1432 C 0.47519 0.88435 0.53553 0.0
C1433 C 0.51889 0.9257 0.54052 0.0
N1434 N 0.45039 0.91603 0.56941 0.0
N1435 N 0.54791 0.88822 0.51991 0.0
H1436 H 0.53521 0.96844 0.54636 0.0
H1437 H 0.55542 0.94429 0.52592 0.0
H1438 H 0.55142 0.86725 0.51076 0.0
H1439 H 0.5653 0.90078 0.52509 0.0
H1440 H 0.4356 0.90012 0.57247 0.0
H1441 H 0.44743 0.93582 0.5814 0.0
H1442 H 0.43343 0.87309 0.53455 0.0
H1443 H 0.45304 0.84821 0.51477 0.0
C1444 C 0.14339 0.28325 0.76297 0.0
C1445 C 0.16979 0.28022 0.77213 0.0
C1446 C 0.15218 0.26672 0.81735 0.0
C1447 C 0.12561 0.26771 0.80743 0.0
N1448 N 0.09592 0.27159 0.76887 0.0
N1449 N 0.19956 0.26406 0.80533 0.0
C1450 C 0.1212 0.27444 0.77963 0.0
C1451 C 0.17423 0.27042 0.79856 0.0
N1452 N 0.13965 0.29552 0.73877 0.0
N1453 N 0.1564 0.2635 0.84501 0.0
H1454 H 0.21592 0.26638 0.79173 0.0
H1455 H 0.20395 0.25413 0.82307 0.0
H1456 H 0.14082 0.26105 0.85954 0.0
H1457 H 0.17526 0.26567 0.85414 0.0
H1458 H 0.12099 0.30116 0.73228 0.0
H1459 H 0.15561 0.30224 0.72632 0.0
H1460 H 0.09181 0.27341 0.74786 0.0
H1461 H 0.07925 0.26485 0.78034 0.0
C1462 C 0.57332 0.59788 0.52559 0.0
C1463 C 0.55557 0.57327 0.52621 0.0
C1464 C 0.53227 0.58743 0.48511 0.0
C1465 C 0.547 0.6143 0.4878 0.0
N1466 N 0.58157 0.64582 0.51064 0.0
N1467 N 0.51615 0.54611 0.50805 0.0
C1468 C 0.5679 0.61953 0.50774 0.0
C1469 C 0.53485 0.56814 0.50592 0.0
N1470 N 0.59497 0.60083 0.54276 0.0
N1471 N 0.51565 0.58045 0.46273 0.0
H1472 H 0.51723 0.53155 0.52299 0.0
H1473 H 0.4986 0.54348 0.4964 0.0
H1474 H 0.51317 0.59428 0.44731 0.0
H1475 H 0.50635 0.56001 0.45803 0.0
H1476 H 0.6102 0.61676 0.54195 0.0
H1477 H 0.59875 0.58554 0.55622 0.0
H1478 H 0.59488 0.65247 0.52685 0.0
H1479 H 0.57847 0.66187 0.49763 0.0
C1480 C 0.87467 0.8126 0.79175 0.0
C1481 C 0.85335 0.79109 0.78854 0.0
C1482 C 0.87836 0.76533 0.74895 0.0
C1483 C 0.89943 0.78699 0.7523 0.0
N1484 N 0.92075 0.82703 0.7811 0.0
N1485 N 0.83687 0.74472 0.76733 0.0
C1486 C 0.89859 0.80918 0.77517 0.0
C1487 C 0.85607 0.76654 0.76833 0.0
N1488 N 0.87118 0.83749 0.80929 0.0
N1489 N 0.87908 0.7444 0.72642 0.0
H1490 H 0.8203 0.74575 0.78083 0.0
H1491 H 0.83829 0.72491 0.75499 0.0
H1492 H 0.89526 0.74257 0.71226 0.0
H1493 H 0.8632 0.72978 0.72074 0.0
H1494 H 0.88412 0.85573 0.80975 0.0
H1495 H 0.85432 0.84051 0.8223 0.0
H1496 H 0.92244 0.84167 0.79923 0.0
H1497 H 0.93845 0.82539 0.76914 0.0
C1498 C 0.08382 0.9398 0.5282 0.0
C1499 C 0.0664 0.96288 0.52699 0.0
C1500 C 0.03996 0.94641 0.56695 0.0
C1501 C 0.05718 0.92308 0.56762 0.0
N1502 N 0.09919 0.90182 0.55424 0.0
N1503 N 0.03067 0.99124 0.54821 0.0
C1504 C 0.08044 0.92133 0.55006 0.0
C1505 C 0.0457 0.96739 0.5478 0.0
N1506 N 0.10227 0.93412 0.50716 0.0
N1507 N 0.0171 0.9474 0.58323 0.0
H1508 H 0.03306 1.00581 0.53323 0.0
H1509 H 0.01721 0.99778 0.56435 0.0
H1510 H 0.01244 0.93278 0.59779 0.0
H1511 H 1.00188 0.96158 0.58131 0.0
H1512 H 0.11347 0.91564 0.50467 0.0
H1513 H 0.105 0.94716 0.49102 0.0
H1514 H 0.11778 0.90115 0.54397 0.0
H1515 H 0.09711 0.88798 0.56998 0.0
C1516 C 0.15327 0.71773 0.76266 0.0
C1517 C 0.17839 0.7331 0.76327 0.0
C1518 C 0.16344 0.76304 0.72792 0.0
C1519 C 0.13763 0.7489 0.72863 0.0
N1520 N 0.10714 0.71352 0.74673 0.0
N1521 N 0.2079 0.77062 0.74827 0.0
C1522 C 0.13234 0.7263 0.74594 0.0
C1523 C 0.18365 0.75574 0.74622 0.0
N1524 N 0.14972 0.69479 0.77806 0.0
N1525 N 0.16855 0.78323 0.70956 0.0
H1526 H 0.2233 0.76476 0.76065 0.0
H1527 H 0.21258 0.78932 0.73882 0.0
H1528 H 0.15393 0.78984 0.69664 0.0
H1529 H 0.18745 0.79251 0.70592 0.0
H1530 H 0.13292 0.68068 0.77702 0.0
H1531 H 0.16452 0.68889 0.79115 0.0
H1532 H 0.10095 0.69896 0.76078 0.0
H1533 H 0.0917 0.71832 0.73384 0.0
C1534 C 1.00403 0.60486 0.52491 0.0
C1535 C 0.99296 0.60518 0.49768 0.0
C1536 C 0.99743 0.65851 0.5033 0.0
C1537 C 1.00696 0.65791 0.53097 0.0
N1538 N 0.02599 0.63137 0.56552 0.0
N1539 N 0.97573 0.63212 0.46255 0.0
C1540 C 0.01252 0.63129 0.54084 0.0
C1541 C 0.98939 0.63201 0.48699 0.0
N1542 N 1.00387 0.57945 0.53673 0.0
N1543 N 0.99607 0.68452 0.49275 0.0
H1544 H 0.96839 0.61315 0.4512 0.0
H1545 H 0.96979 0.65072 0.45461 0.0
H1546 H 1.00137 0.7042 0.50449 0.0
H1547 H 0.99177 0.68665 0.47187 0.0
H1548 H 1.00834 0.57804 0.55772 0.0
H1549 H 0.99701 0.55976 0.52622 0.0
H1550 H 0.03332 0.61287 0.57249 0.0
H1551 H 0.03202 0.65039 0.57793 0.0
C1552 C 0.77035 0.83366 0.25921 0.0
C1553 C 0.75074 0.83447 0.2381 0.0
C1554 C 0.77417 0.87767 0.22253 0.0
C1555 C 0.79196 0.87857 0.24542 0.0
N1556 N 0.80734 0.8582 0.28605 0.0
N1557 N 0.73112 0.8602 0.20339 0.0
C1558 C 0.7904 0.85648 0.26366 0.0
C1559 C 0.75214 0.85701 0.22041 0.0
N1560 N 0.7692 0.81137 0.27558 0.0
N1561 N 0.77817 0.89685 0.20303 0.0
H1562 H 0.71397 0.84668 0.20308 0.0
H1563 H 0.72943 0.87778 0.19195 0.0
H1564 H 0.79378 0.91263 0.20438 0.0
H1565 H 0.76754 0.89554 0.18435 0.0
H1566 H 0.78431 0.80726 0.28909 0.0
H1567 H 0.75339 0.79592 0.27482 0.0
H1568 H 0.8055 0.845 0.30222 0.0
H1569 H 0.8229 0.8739 0.28924 0.0
C1570 C 0.74344 0.15475 0.31792 0.0
C1571 C 0.75144 0.1831 0.31178 0.0
C1572 C 0.79851 0.16967 0.31004 0.0
C1573 C 0.79036 0.14067 0.31342 0.0
N1574 N 0.75471 0.10444 0.31711 0.0
N1575 N 0.78559 0.21399 0.2932 0.0
C1576 C 0.76272 0.13293 0.31684 0.0
C1577 C 0.77879 0.18981 0.30582 0.0
N1578 N 0.71711 0.14842 0.32381 0.0
N1579 N 0.82512 0.1779 0.3105 0.0
H1580 H 0.77111 0.22663 0.28598 0.0
H1581 H 0.80498 0.219 0.28624 0.0
H1582 H 0.84008 0.1636 0.31342 0.0
H1583 H 0.83204 0.1994 0.31069 0.0
H1584 H 0.71032 0.12964 0.33216 0.0
H1585 H 0.70199 0.16262 0.3215 0.0
H1586 H 0.73478 0.09686 0.31614 0.0
H1587 H 0.76807 0.08778 0.31624 0.0
C1588 C 0.42757 1.00156 1.00566 0.0
C1589 C 0.42662 0.01937 0.98362 0.0
C1590 C 0.38133 0.99987 0.97163 0.0
C1591 C 0.38141 0.98379 0.99521 0.0
N1592 N 0.40308 0.97147 0.03669 0.0
N1593 N 0.40251 0.03836 0.9474 0.0
C1594 C 0.40418 0.98515 0.01277 0.0
C1595 C 0.40345 0.01926 0.96703 0.0
N1596 N 0.45115 1.00005 0.01934 0.0
N1597 N 0.36042 0.99602 0.95331 0.0
H1598 H 0.4187 0.05237 0.9434 0.0
H1599 H 0.3853 0.04175 0.93646 0.0
H1600 H 0.34377 0.98222 0.95621 0.0
H1601 H 0.36033 1.0048 0.93421 0.0
H1602 H 0.45424 0.98545 0.03381 0.0
H1603 H 0.46845 0.01205 0.01451 0.0
H1604 H 0.41788 0.97404 0.05194 0.0
H1605 H 0.38638 0.959 0.0424 0.0
C1606 C 0.24803 0.34242 0.28965 0.0
C1607 C 0.27243 0.35024 0.30372 0.0
C1608 C 0.26054 0.40122 0.31016 0.0
C1609 C 0.23553 0.39323 0.29712 0.0
N1610 N 0.20365 0.35623 0.27763 0.0
N1611 N 0.30089 0.38553 0.33063 0.0
C1612 C 0.22873 0.36377 0.28777 0.0
C1613 C 0.27836 0.37926 0.31494 0.0
N1614 N 0.24377 0.3146 0.2775 0.0
N1615 N 0.2675 0.42987 0.31726 0.0
H1616 H 0.31436 0.36983 0.334 0.0
H1617 H 0.30536 0.40559 0.34192 0.0
H1618 H 0.25472 0.44647 0.31471 0.0
H1619 H 0.28647 0.43746 0.32406 0.0
H1620 H 0.25741 0.29857 0.27917 0.0
H1621 H 0.22776 0.30774 0.26441 0.0
H1622 H 0.19638 0.33493 0.27302 0.0
H1623 H 0.18925 0.37139 0.27554 0.0
C1624 C 0.12619 1.00427 0.47874 0.0
C1625 C 0.10629 1.00922 0.50035 0.0
C1626 C 0.13836 0.04264 0.52777 0.0
C1627 C 0.15671 0.04052 0.50461 0.0
N1628 N 0.16873 0.01941 0.45799 0.0
N1629 N 0.09257 0.03517 0.54419 0.0
C1630 C 0.15094 0.021 0.48022 0.0
C1631 C 0.11236 0.02856 0.52479 0.0
N1632 N 0.12087 0.98397 0.45632 0.0
N1633 N 0.14573 0.05837 0.55257 0.0
H1634 H 0.07355 0.02529 0.54239 0.0
H1635 H 0.09437 0.05164 0.56081 0.0
H1636 H 0.16425 0.06959 0.55516 0.0
H1637 H 0.1345 0.05843 0.57117 0.0
H1638 H 0.13496 0.977 0.441 0.0
H1639 H 0.10253 0.9724 0.45402 0.0
H1640 H 0.16473 1.0084 0.43822 0.0
H1641 H 0.18747 0.03034 0.45886 0.0
C1642 C 0.79001 0.16717 0.73516 0.0
C1643 C 0.78975 0.19263 0.75475 0.0
C1644 C 0.75917 0.16726 0.78576 0.0
C1645 C 0.75707 0.14317 0.76477 0.0
N1646 N 0.77082 0.11892 0.71999 0.0
N1647 N 0.77071 0.21841 0.79624 0.0
C1648 C 0.773 0.14258 0.73979 0.0
C1649 C 0.77385 0.19287 0.77971 0.0
N1650 N 0.8057 0.1672 0.71141 0.0
N1651 N 0.74677 0.16578 0.81136 0.0
H1652 H 0.77987 0.23772 0.7913 0.0
H1653 H 0.75719 0.22105 0.81311 0.0
H1654 H 0.73525 0.14766 0.81616 0.0
H1655 H 0.74974 0.1814 0.82857 0.0
H1656 H 0.80934 0.14893 0.69746 0.0
H1657 H 0.81585 0.18579 0.70585 0.0
H1658 H 0.77955 0.11772 0.69998 0.0
H1659 H 0.7594 0.10022 0.72331 0.0
C1660 C 0.41545 0.01789 0.57147 0.0
C1661 C 0.44128 0.02028 0.55901 0.0
C1662 C 0.42594 0.0569 0.5305 0.0
C1663 C 0.4004 0.05574 0.54415 0.0
N1664 N 0.37221 0.03904 0.58116 0.0
N1665 N 0.47278 0.04451 0.5302 0.0
C1666 C 0.39553 0.0373 0.56566 0.0
C1667 C 0.44701 0.04064 0.53961 0.0
N1668 N 0.40985 0.99646 0.58829 0.0
N1669 N 0.42971 0.07263 0.50812 0.0
H1670 H 0.48835 0.03246 0.53631 0.0
H1671 H 0.47912 0.06095 0.5182 0.0
H1672 H 0.41476 0.0847 0.50079 0.0
H1673 H 0.44692 0.07204 0.49543 0.0
H1674 H 0.39065 0.99128 0.59561 0.0
H1675 H 0.4243 0.98247 0.59337 0.0
H1676 H 0.36859 0.02836 0.59896 0.0
H1677 H 0.35725 0.0531 0.57765 0.0
C1678 C 0.61224 0.52856 0.5679 0.0
C1679 C 0.59102 0.52455 0.54812 0.0
C1680 C 0.61839 0.4906 0.51762 0.0
C1681 C 0.6378 0.49176 0.53908 0.0
N1682 N 0.65337 0.51112 0.5851 0.0
N1683 N 0.57277 0.49948 0.50556 0.0
C1684 C 0.63495 0.51089 0.5642 0.0
C1685 C 0.59402 0.50532 0.52309 0.0
N1686 N 0.6101 0.54889 0.59075 0.0
N1687 N 0.62324 0.47529 0.49201 0.0
H1688 H 0.55482 0.50975 0.50926 0.0
H1689 H 0.57224 0.48321 0.48869 0.0
H1690 H 0.64062 0.46386 0.48758 0.0
H1691 H 0.61123 0.47585 0.47451 0.0
H1692 H 0.62557 0.55518 0.60473 0.0
H1693 H 0.59328 0.56131 0.59455 0.0
H1694 H 0.65104 0.52179 0.60529 0.0
H1695 H 0.67063 0.49921 0.58279 0.0
C1696 C 0.72037 0.23066 0.37731 0.0
C1697 C 0.73387 0.23679 0.35211 0.0
C1698 C 0.76233 0.27356 0.37959 0.0
C1699 C 0.74592 0.27087 0.40378 0.0
N1700 N 0.70721 0.24843 0.42507 0.0
N1701 N 0.76244 0.27006 0.32886 0.0
C1702 C 0.72466 0.24941 0.40272 0.0
C1703 C 0.75389 0.25947 0.35312 0.0
N1704 N 0.70233 0.2077 0.37652 0.0
N1705 N 0.78554 0.29029 0.38177 0.0
H1706 H 0.75357 0.26322 0.30955 0.0
H1707 H 0.77539 0.28824 0.32853 0.0
H1708 H 0.79225 0.30084 0.401 0.0
H1709 H 0.79926 0.29115 0.3651 0.0
H1710 H 0.69393 0.19991 0.39447 0.0
H1711 H 0.69712 0.19533 0.35776 0.0
H1712 H 0.68954 0.23561 0.42432 0.0
H1713 H 0.70917 0.26208 0.44385 0.0
C1714 C 0.50414 0.06724 0.91519 0.0
C1715 C 0.50971 0.06166 0.94313 0.0
C1716 C 0.55633 0.05158 0.92856 0.0
C1717 C 0.55068 0.05795 0.90095 0.0
N1718 N 0.52146 0.07825 0.8696 0.0
N1719 N 0.54114 0.05008 0.97705 0.0
C1720 C 0.5253 0.06795 0.89486 0.0
C1721 C 0.536 0.05474 0.95005 0.0
N1722 N 0.47822 0.06983 0.90749 0.0
N1723 N 0.58068 0.04106 0.93376 0.0
H1724 H 0.526 0.04934 0.99218 0.0
H1725 H 0.56021 0.04806 0.98478 0.0
H1726 H 0.5961 0.03903 0.9187 0.0
H1727 H 0.58542 0.03305 0.95243 0.0
H1728 H 0.47245 0.0703 0.88671 0.0
H1729 H 0.46206 0.06913 0.92156 0.0
H1730 H 0.50431 0.08866 0.86502 0.0
H1731 H 0.53649 0.07879 0.85413 0.0
C1732 C 0.33772 0.26865 0.35803 0.0
C1733 C 0.31801 0.26846 0.33696 0.0
C1734 C 0.29295 0.22862 0.35753 0.0
C1735 C 0.31271 0.22901 0.37858 0.0
N1736 N 0.35699 0.2442 0.39479 0.0
N1737 N 0.27926 0.24501 0.31367 0.0
C1738 C 0.33616 0.2473 0.37738 0.0
C1739 C 0.29669 0.24695 0.33558 0.0
N1740 N 0.35687 0.29054 0.36086 0.0
N1741 N 0.26972 0.21217 0.35957 0.0
H1742 H 0.28036 0.25933 0.29837 0.0
H1743 H 0.26502 0.22811 0.3094 0.0
H1744 H 0.26625 0.19838 0.37513 0.0
H1745 H 0.25306 0.21349 0.3471 0.0
H1746 H 0.36991 0.29423 0.37778 0.0
H1747 H 0.35843 0.30619 0.34703 0.0
H1748 H 0.37566 0.25487 0.39321 0.0
H1749 H 0.35636 0.22889 0.4092 0.0
C1750 C 0.50001 0.5204 0.95078 0.0
C1751 C 0.51946 0.49917 0.94551 0.0
C1752 C 0.49936 0.48223 0.89969 0.0
C1753 C 0.48015 0.50396 0.90461 0.0
N1754 N 0.4627 0.545 0.93351 0.0
N1755 N 0.53999 0.4618 0.91481 0.0
C1756 C 0.48066 0.52348 0.92982 0.0
C1757 C 0.51974 0.48059 0.91988 0.0
N1758 N 0.49996 0.53715 0.97622 0.0
N1759 N 0.49786 0.46298 0.87582 0.0
H1760 H 0.55475 0.45984 0.92952 0.0
H1761 H 0.54329 0.44933 0.89567 0.0
H1762 H 0.48418 0.46446 0.8599 0.0
H1763 H 0.50923 0.44472 0.87209 0.0
H1764 H 0.48516 0.55146 0.98303 0.0
H1765 H 0.51452 0.53581 0.99136 0.0
H1766 H 0.46327 0.56164 0.95 0.0
H1767 H 0.44749 0.54698 0.91928 0.0
C1768 C 0.72011 0.78584 0.16811 0.0
C1769 C 0.7339 0.78266 0.19334 0.0
C1770 C 0.76682 0.75287 0.16574 0.0
C1771 C 0.75204 0.75462 0.14099 0.0
N1772 N 0.71848 0.77749 0.11692 0.0
N1773 N 0.76731 0.75909 0.2168 0.0
C1774 C 0.72995 0.77276 0.14167 0.0
C1775 C 0.75684 0.7656 0.19223 0.0
N1776 N 0.69621 0.7992 0.16984 0.0
N1777 N 0.79045 0.73899 0.16377 0.0
H1778 H 0.75909 0.76633 0.23632 0.0
H1779 H 0.78228 0.74443 0.21794 0.0
H1780 H 0.79801 0.72917 0.14468 0.0
H1781 H 0.80369 0.7393 0.18038 0.0
H1782 H 0.68339 0.79947 0.15297 0.0
H1783 H 0.68798 0.80831 0.18883 0.0
H1784 H 0.70417 0.79278 0.11536 0.0
H1785 H 0.72488 0.7677 0.09734 0.0
C1786 C 0.99307 0.0187 0.11016 0.0
C1787 C 0.0146 0.03961 0.11302 0.0
C1788 C 0.99866 0.05705 0.16051 0.0
C1789 C 0.97855 0.0343 0.15873 0.0
N1790 N 0.95931 0.99047 0.13358 0.0
N1791 N 0.04059 0.0759 0.14168 0.0
C1792 C 0.97642 0.0143 0.13396 0.0
C1793 C 0.01817 0.05798 0.13849 0.0
N1794 N 0.98835 1.00345 0.08445 0.0
N1795 N 0.99849 0.07835 0.18274 0.0
H1796 H 0.05498 0.07716 0.12568 0.0
H1797 H 0.04596 0.08774 0.16073 0.0
H1798 H 0.98422 0.07869 0.19902 0.0
H1799 H 0.01096 0.09699 0.18383 0.0
H1800 H 0.97134 0.99002 0.08005 0.0
H1801 H 1.00054 1.00604 0.06684 0.0
H1802 H 0.95888 0.97362 0.11723 0.0
H1803 H 0.94705 0.98623 0.15071 0.0
C1804 C 0.27971 0.79718 0.20406 0.0
C1805 C 0.29998 0.77681 0.1993 0.0
C1806 C 0.30953 0.79262 0.15263 0.0
C1807 C 0.28734 0.81087 0.15619 0.0
N1808 N 0.24958 0.82874 0.18411 0.0
N1809 N 0.33259 0.75269 0.1687 0.0
C1810 C 0.27204 0.81282 0.1817 0.0
C1811 C 0.31458 0.77399 0.17351 0.0
N1812 N 0.26812 0.80167 0.23024 0.0
N1813 N 0.3261 0.79361 0.12958 0.0
H1814 H 0.33686 0.73914 0.18385 0.0
H1815 H 0.34191 0.74716 0.14927 0.0
H1816 H 0.32297 0.80693 0.11388 0.0
H1817 H 0.34407 0.78305 0.12706 0.0
H1818 H 0.25495 0.81804 0.23625 0.0
H1819 H 0.27345 0.79032 0.24679 0.0
H1820 H 0.23595 0.82865 0.20088 0.0
H1821 H 0.24347 0.84064 0.1683 0.0
C1822 C 1.00879 0.47238 0.12995 0.0
C1823 C 0.016 0.47705 0.10181 0.0
C1824 C 0.06254 0.48912 0.11707 0.0
C1825 C 0.05537 0.48298 0.14481 0.0
N1826 N 0.02335 0.46174 0.17566 0.0
N1827 N 0.05024 0.48703 0.06789 0.0
C1828 C 0.02902 0.47228 0.15054 0.0
C1829 C 0.04318 0.48411 0.09515 0.0
N1830 N 0.98234 0.47003 0.13759 0.0
N1831 N 0.08729 0.50152 0.11207 0.0
H1832 H 0.0361 0.48572 0.05212 0.0
H1833 H 0.06998 0.48893 0.06067 0.0
H1834 H 0.10188 0.50568 0.1275 0.0
H1835 H 0.09285 0.50958 0.09325 0.0
H1836 H 0.97575 0.47018 0.15844 0.0
H1837 H 0.96683 0.4703 0.12335 0.0
H1838 H 1.00521 0.45101 0.17995 0.0
H1839 H 0.03773 0.46114 0.19114 0.0
C1840 C 0.36348 0.71743 0.26865 0.0
C1841 C 0.33862 0.7296 0.27721 0.0
C1842 C 0.35536 0.7394 0.32591 0.0
C1843 C 0.37945 0.72545 0.31744 0.0
N1844 N 0.40354 0.69519 0.2822 0.0
N1845 N 0.31032 0.75123 0.31414 0.0
C1846 C 0.3825 0.7125 0.28926 0.0
C1847 C 0.33429 0.73986 0.30604 0.0
N1848 N 0.36984 0.71245 0.24063 0.0
N1849 N 0.35333 0.75388 0.3524 0.0
H1850 H 0.29605 0.75491 0.29958 0.0
H1851 H 0.30416 0.75591 0.33505 0.0
H1852 H 0.36825 0.75418 0.36741 0.0
H1853 H 0.33771 0.76719 0.3591 0.0
H1854 H 0.38882 0.70676 0.2331 0.0
H1855 H 0.35693 0.71665 0.22484 0.0
H1856 H 0.40537 0.68284 0.26269 0.0
H1857 H 0.41771 0.69093 0.2968 0.0
C1858 C 0.9928 0.40872 0.06134 0.0
C1859 C 0.99596 0.43485 0.04869 0.0
C1860 C 1.00835 0.40681 1.00366 0.0
C1861 C 1.00596 0.38085 0.01673 0.0
N1862 N 1.00207 0.35772 0.0593 0.0
N1863 N 1.00981 0.45931 1.00863 0.0
C1864 C 1.00034 0.3821 0.04607 0.0
C1865 C 1.00515 0.43397 0.0202 0.0
N1866 N 0.98036 0.40895 0.087 0.0
N1867 N 0.0119 0.40538 0.97506 0.0
H1868 H 1.0055 0.47942 0.01923 0.0
H1869 H 0.01953 0.46069 0.98931 0.0
H1870 H 0.01468 0.38605 0.96225 0.0
H1871 H 1.01034 0.42296 0.96361 0.0
H1872 H 0.97483 0.39029 0.09624 0.0
H1873 H 0.97319 0.42778 0.09773 0.0
H1874 H 1.00071 0.35779 0.0811 0.0
H1875 H 1.00737 0.33791 0.04861 0.0
C1876 C 0.64278 0.79815 0.26883 0.0
C1877 C 0.66787 0.78632 0.27266 0.0
C1878 C 0.64875 0.76004 0.31058 0.0
C1879 C 0.62408 0.7736 0.30822 0.0
N1880 N 0.59815 0.80805 0.28754 0.0
N1881 N 0.69623 0.75874 0.29835 0.0
C1882 C 0.62119 0.7933 0.28791 0.0
C1883 C 0.67125 0.76799 0.2939 0.0
N1884 N 0.63969 0.81368 0.24657 0.0
N1885 N 0.65037 0.73896 0.32818 0.0
H1886 H 0.71281 0.76366 0.28585 0.0
H1887 H 0.70096 0.74786 0.31536 0.0
H1888 H 0.63434 0.73271 0.34081 0.0
H1889 H 0.66686 0.72616 0.32885 0.0
H1890 H 0.62132 0.82058 0.2406 0.0
H1891 H 0.65546 0.81802 0.23279 0.0
H1892 H 0.59574 0.82485 0.27529 0.0
H1893 H 0.58186 0.80486 0.30103 0.0
C1894 C 0.0736 0.09525 0.02305 0.0
C1895 C 0.05479 0.07194 0.02603 0.0
C1896 C 0.02751 0.08774 0.98841 0.0
C1897 C 0.04592 0.11156 0.98636 0.0
N1898 N 0.08948 0.1342 0.99614 0.0
N1899 N 0.01571 0.04345 1.00918 0.0
C1900 C 0.07006 0.11389 1.00175 0.0
C1901 C 0.03263 0.06714 1.00744 0.0
N1902 N 0.09361 0.10099 0.04212 0.0
N1903 N 1.00435 0.08584 0.97331 0.0
H1904 H 0.01766 0.02932 0.02439 0.0
H1905 H 1.0007 0.0367 0.99479 0.0
H1906 H 1.00046 0.09995 0.95853 0.0
H1907 H 0.98842 0.07117 0.97597 0.0
H1908 H 0.10615 0.11958 0.04358 0.0
H1909 H 0.0965 0.08777 0.05778 0.0
H1910 H 0.1086 0.1354 1.00464 0.0
H1911 H 0.08722 0.14834 0.98096 0.0
C1912 C 0.3737 0.31589 0.28859 0.0
C1913 C 0.35336 0.29325 0.28677 0.0
C1914 C 0.38118 0.26465 0.25154 0.0
C1915 C 0.39964 0.28872 0.25082 0.0
N1916 N 0.41421 0.33722 0.26871 0.0
N1917 N 0.3368 0.24706 0.26499 0.0
C1918 C 0.39629 0.31419 0.26971 0.0
C1919 C 0.35714 0.26765 0.26821 0.0
N1920 N 0.37069 0.33959 0.30791 0.0
N1921 N 0.38659 0.23893 0.23612 0.0
H1922 H 0.31934 0.24867 0.2771 0.0
H1923 H 0.33648 0.22948 0.24942 0.0
H1924 H 0.4035 0.23629 0.22304 0.0
H1925 H 0.37553 0.21969 0.23786 0.0
H1926 H 0.38544 0.35583 0.3126 0.0
H1927 H 0.35369 0.3422 0.32081 0.0
H1928 H 0.4117 0.35769 0.27939 0.0
H1929 H 0.43148 0.3363 0.25604 0.0
C1930 C 0.56118 0.42862 0.01149 0.0
C1931 C 0.56426 0.45836 0.02213 0.0
C1932 C 0.56551 0.4439 0.07017 0.0
C1933 C 0.5579 0.41489 0.05969 0.0
N1934 N 0.54331 0.3812 0.02005 0.0
N1935 N 0.5655 0.49447 0.0623 0.0
C1936 C 0.55466 0.40755 0.0302 0.0
C1937 C 0.5657 0.46605 0.0517 0.0
N1938 N 0.56337 0.42066 0.98315 0.0
N1939 N 0.57288 0.45029 0.09764 0.0
H1940 H 0.565 0.51088 0.04932 0.0
H1941 H 0.56359 0.50145 0.08374 0.0
H1942 H 0.57332 0.43459 0.11158 0.0
H1943 H 0.58094 0.4705 0.10578 0.0
H1944 H 0.56404 0.39917 0.9743 0.0
H1945 H 0.56697 0.43568 0.96875 0.0
H1946 H 0.53782 0.37592 0.99909 0.0
H1947 H 0.53658 0.36566 0.03296 0.0
C1948 C 0.64561 0.23397 0.28671 0.0
C1949 C 0.66785 0.21915 0.27441 0.0
C1950 C 0.64649 0.21585 0.22869 0.0
C1951 C 0.62904 0.23783 0.2395 0.0
N1952 N 0.60998 0.266 0.28015 0.0
N1953 N 0.66775 0.17499 0.24333 0.0
C1954 C 0.62782 0.24627 0.26901 0.0
C1955 C 0.66306 0.20373 0.24763 0.0
N1956 N 0.63934 0.23236 0.3144 0.0
N1957 N 0.647 0.20599 0.20068 0.0
H1958 H 0.66219 0.16192 0.22496 0.0
H1959 H 0.67323 0.16392 0.26003 0.0
H1960 H 0.63489 0.21403 0.18604 0.0
H1961 H 0.66086 0.19117 0.19213 0.0
H1962 H 0.62189 0.24046 0.32402 0.0
H1963 H 0.65017 0.21974 0.32654 0.0
H1964 H 0.61027 0.27469 0.30126 0.0
H1965 H 0.59615 0.27498 0.26793 0.0
C1966 C 0.48873 0.12977 0.98539 0.0
C1967 C 0.49168 0.10296 0.99633 0.0
C1968 C 0.51073 0.12899 0.03977 0.0
C1969 C 0.50575 0.15566 0.02966 0.0
N1970 N 0.49551 0.18231 0.99124 0.0
N1971 N 0.50156 0.07721 0.03573 0.0
C1972 C 0.49663 0.15629 1.00182 0.0
C1973 C 0.50218 0.10261 0.02381 0.0
N1974 N 0.47589 0.12986 0.96045 0.0
N1975 N 0.52384 0.12895 0.06467 0.0
H1976 H 0.49498 0.05746 0.02507 0.0
H1977 H 0.50549 0.07587 0.05685 0.0
H1978 H 0.52997 0.14792 0.07712 0.0
H1979 H 0.53081 0.11036 0.0718 0.0
H1980 H 0.47044 0.14843 0.95213 0.0
H1981 H 0.46888 0.11087 0.94886 0.0
H1982 H 0.49148 0.18449 0.97031 0.0
H1983 H 0.50057 0.20199 1.00307 0.0
C1984 C 0.25294 0.3531 0.71958 0.0
C1985 C 0.25133 0.3317 0.73852 0.0
C1986 C 0.28904 0.35669 0.76523 0.0
C1987 C 0.29128 0.37722 0.7454 0.0
N1988 N 0.27926 0.39186 0.70071 0.0
N1989 N 0.26922 0.31136 0.77806 0.0
C1990 C 0.27456 0.37426 0.72149 0.0
C1991 C 0.27004 0.33287 0.76078 0.0
N1992 N 0.2325 0.35474 0.7014 0.0
N1993 N 0.30415 0.36082 0.78908 0.0
H1994 H 0.25448 0.29471 0.77672 0.0
H1995 H 0.28399 0.30882 0.79255 0.0
H1996 H 0.31877 0.37751 0.79272 0.0
H1997 H 0.30126 0.34889 0.80614 0.0
H1998 H 0.23102 0.37147 0.68883 0.0
H1999 H 0.21551 0.34098 0.70124 0.0
H2000 H 0.26945 0.38892 0.68147 0.0
H2001 H 0.29468 0.40784 0.70174 0.0
C2002 C 0.24226 0.65665 0.80865 0.0
C2003 C 0.25158 0.68581 0.80722 0.0
C2004 C 0.29804 0.67102 0.80966 0.0
C2005 C 0.28884 0.6416 0.80811 0.0
N2006 N 0.25233 0.60573 0.80288 0.0
N2007 N 0.28834 0.71919 0.79945 0.0
C2008 C 0.26093 0.63422 0.80703 0.0
C2009 C 0.27951 0.69267 0.80621 0.0
N2010 N 0.21537 0.65037 0.81105 0.0
N2011 N 0.32455 0.67824 0.81432 0.0
H2012 H 0.27517 0.73429 0.79417 0.0
H2013 H 0.30843 0.72481 0.79582 0.0
H2014 H 0.33867 0.66284 0.81667 0.0
H2015 H 0.33201 0.69956 0.81837 0.0
H2016 H 0.20727 0.63034 0.81546 0.0
H2017 H 0.20106 0.66592 0.81067 0.0
H2018 H 0.23259 0.59883 0.79845 0.0
H2019 H 0.26529 0.58867 0.80183 0.0
C2020 C 0.90579 0.51843 0.46728 0.0
C2021 C 0.9275 0.52189 0.48614 0.0
C2022 C 0.90276 0.49263 0.51838 0.0
C2023 C 0.88184 0.48717 0.49847 0.0
N2024 N 0.86552 0.49053 0.45172 0.0
N2025 N 0.94924 0.50824 0.52668 0.0
C2026 C 0.88392 0.49887 0.47223 0.0
C2027 C 0.92672 0.50774 0.51084 0.0
N2028 N 0.90584 0.53456 0.44511 0.0
N2029 N 0.89933 0.48438 0.54485 0.0
H2030 H 0.96713 0.51878 0.5212 0.0
H2031 H 0.95093 0.49607 0.54353 0.0
H2032 H 0.88187 0.4737 0.55136 0.0
H2033 H 0.91275 0.49037 0.56113 0.0
H2034 H 0.8894 0.5354 0.43217 0.0
H2035 H 0.92171 0.54894 0.44106 0.0
H2036 H 0.86748 0.49606 0.43122 0.0
H2037 H 0.8494 0.47599 0.45443 0.0
C2038 C 0.74699 0.84181 0.79603 0.0
C2039 C 0.77343 0.84983 0.80499 0.0
C2040 C 0.76409 0.90109 0.80458 0.0
C2041 C 0.73691 0.89324 0.79796 0.0
N2042 N 0.70131 0.85635 0.79162 0.0
N2043 N 0.80594 0.88666 0.82262 0.0
C2044 C 0.728 0.8636 0.79482 0.0
C2045 C 0.78161 0.87939 0.81066 0.0
N2046 N 0.74035 0.81334 0.78793 0.0
N2047 N 0.77344 0.92911 0.80403 0.0
H2048 H 0.81889 0.8711 0.82759 0.0
H2049 H 0.81218 0.90779 0.82994 0.0
H2050 H 0.76136 0.94557 0.79928 0.0
H2051 H 0.79364 0.93557 0.80579 0.0
H2052 H 0.72231 0.80612 0.77843 0.0
H2053 H 0.75392 0.79708 0.78873 0.0
H2054 H 0.6932 0.83539 0.7921 0.0
H2055 H 0.68684 0.87171 0.79075 0.0
C2056 C 0.60378 0.53886 0.01399 0.0
C2057 C 0.60252 0.50954 1.00158 0.0
C2058 C 0.65147 0.51246 0.99331 0.0
C2059 C 0.65255 0.54165 1.00601 0.0
N2060 N 0.63101 0.58002 0.03484 0.0
N2061 N 0.62548 0.46702 0.98378 0.0
C2062 C 0.62909 0.55393 0.0185 0.0
C2063 C 0.62661 0.49585 0.99298 0.0
N2064 N 0.58056 0.55301 0.01961 0.0
N2065 N 0.67384 0.50117 0.98015 0.0
H2066 H 0.60745 0.45494 0.98265 0.0
H2067 H 0.64228 0.45471 0.97954 0.0
H2068 H 0.6923 0.51259 0.98006 0.0
H2069 H 0.67386 0.48126 0.96778 0.0
H2070 H 0.57999 0.57529 0.02512 0.0
H2071 H 0.56164 0.54273 0.0169 0.0
H2072 H 0.61509 0.58877 0.04684 0.0
H2073 H 0.6492 0.59169 0.03849 0.0
C2074 C 0.25883 0.70052 0.27074 0.0
C2075 C 0.2845 0.69619 0.2578 0.0
C2076 C 0.27735 0.64361 0.25883 0.0
C2077 C 0.25068 0.6478 0.26864 0.0
N2078 N 0.21534 0.67974 0.28377 0.0
N2079 N 0.31578 0.66336 0.23463 0.0
C2080 C 0.24138 0.67619 0.27503 0.0
C2081 C 0.29335 0.66766 0.25102 0.0
N2082 N 0.25076 0.7281 0.27777 0.0
N2083 N 0.28724 0.61653 0.25659 0.0
H2084 H 0.3266 0.68039 0.22683 0.0
H2085 H 0.32199 0.64302 0.22638 0.0
H2086 H 0.27581 0.5984 0.26156 0.0
H2087 H 0.30733 0.61248 0.25224 0.0
H2088 H 0.23391 0.73331 0.29013 0.0
H2089 H 0.26164 0.74622 0.2721 0.0
H2090 H 0.20602 0.69942 0.28572 0.0
H2091 H 0.20234 0.66251 0.28799 0.0
C2092 C 0.91488 0.52064 0.07603 0.0
C2093 C 0.93882 0.51967 0.05966 0.0
C2094 C 0.92098 0.5531 0.02912 0.0
C2095 C 0.89742 0.55517 0.0463 0.0
N2096 N 0.87335 0.5446 0.08846 0.0
N2097 N 0.96685 0.53756 0.02359 0.0
C2098 C 0.89478 0.53997 0.07048 0.0
C2099 C 0.94249 0.53674 0.03706 0.0
N2100 N 0.9112 0.50235 0.09635 0.0
N2101 N 0.92239 0.566 1.00475 0.0
H2102 H 0.98274 0.52557 0.029 0.0
H2103 H 0.97204 0.5516 1.00869 0.0
H2104 H 0.90719 0.57842 0.99845 0.0
H2105 H 0.9377 0.56286 0.98976 0.0
H2106 H 0.89316 0.49951 0.1072 0.0
H2107 H 0.92589 0.48847 0.10107 0.0
H2108 H 0.87152 0.53651 0.10789 0.0
H2109 H 0.85817 0.55839 0.08492 0.0
C2110 C 0.09533 1.00593 0.02355 0.0
C2111 C 0.09263 0.02554 0.04837 0.0
C2112 C 0.13743 0.01326 0.06337 0.0
C2113 C 0.13972 0.99338 0.0387 0.0
N2114 N 0.12408 0.97544 0.99237 0.0
N2115 N 0.11229 0.05081 0.09032 0.0
C2116 C 0.11976 0.99143 0.01775 0.0
C2117 C 0.11436 0.03038 0.06752 0.0
N2118 N 0.07372 0.99941 1.00665 0.0
N2119 N 0.15682 0.01474 0.08342 0.0
H2120 H 0.09506 0.06242 0.09484 0.0
H2121 H 0.12797 0.05772 0.10382 0.0
H2122 H 0.17443 1.00344 0.08052 0.0
H2123 H 0.15523 0.02606 0.1034 0.0
H2124 H 0.07297 0.98279 0.99009 0.0
H2125 H 0.05573 1.00951 0.01056 0.0
H2126 H 0.11164 0.97543 0.97511 0.0
H2127 H 0.14141 0.96398 0.98777 0.0
loop_
_geom_bond_atom_site_label_1
_geom_bond_atom_site_label_2
_geom_bond_distance
_geom_bond_site_symmetry_2
_ccdc_geom_bond_type
C0 N1 1.315 1_565 S
C0 N2 1.348 1_465 S
C0 C3 1.485 . S
N1 C0 1.315 1_545 S
N1 N5 1.375 . S
N2 C0 1.348 1_645 S
N2 C4 1.346 . S
C3 C0 1.485 . S
C3 H7 0.960 . S
C3 H8 0.961 . S
C3 H9 0.960 . S
C4 N2 1.346 . S
C4 N5 1.307 1_655 S
C4 C6 1.486 . S
N5 N1 1.375 . S
N5 C4 1.307 1_455 S
C6 C4 1.486 . S
C6 H10 0.960 . S
C6 H11 0.960 . S
C6 H12 0.959 . S
H7 C3 0.960 . S
H8 C3 0.961 . S
H9 C3 0.960 . S
H10 C6 0.960 . S
H11 C6 0.960 . S
H12 C6 0.959 . S
C13 N14 1.317 . S
C13 N15 1.348 . S
C13 C16 1.485 . S
N14 C13 1.317 . S
N14 N18 1.370 . S
N15 C13 1.348 . S
N15 C17 1.346 . S
C16 C13 1.485 . S
C16 H20 0.960 . S
C16 H21 0.961 . S
C16 H22 0.960 . S
C17 N15 1.346 . S
C17 N18 1.307 . S
C17 C19 1.486 . S
N18 N14 1.370 . S
N18 C17 1.307 . S
C19 C17 1.486 . S
C19 H23 0.960 . S
C19 H24 0.960 . S
C19 H25 0.959 . S
H20 C16 0.960 . S
H21 C16 0.961 . S
H22 C16 0.960 . S
H23 C19 0.960 . S
H24 C19 0.960 . S
H25 C19 0.959 . S
C26 N27 1.317 . S
C26 N28 1.348 . S
C26 C29 1.485 . S
N27 C26 1.317 . S
N27 N31 1.370 . S
N28 C26 1.348 . S
N28 C30 1.346 . S
C29 C26 1.485 . S
C29 H33 0.960 . S
C29 H34 0.961 . S
C29 H35 0.960 . S
C30 N28 1.346 . S
C30 N31 1.307 . S
C30 C32 1.486 . S
N31 N27 1.370 . S
N31 C30 1.307 . S
C32 C30 1.486 . S
C32 H36 0.960 1_554 S
C32 H37 0.960 . S
C32 H38 0.959 . S
H33 C29 0.960 . S
H34 C29 0.961 . S
H35 C29 0.960 . S
H36 C32 0.960 1_556 S
H37 C32 0.960 . S
H38 C32 0.959 . S
C39 N40 1.317 . S
C39 N41 1.348 . S
C39 C42 1.485 . S
N40 C39 1.317 . S
N40 N44 1.370 . S
N41 C39 1.348 . S
N41 C43 1.346 . S
C42 C39 1.485 . S
C42 H46 0.960 . S
C42 H47 0.961 . S
C42 H48 0.960 . S
C43 N41 1.346 . S
C43 N44 1.307 . S
C43 C45 1.486 . S
N44 N40 1.370 . S
N44 C43 1.307 . S
C45 C43 1.486 . S
C45 H49 0.960 . S
C45 H50 0.960 . S
C45 H51 0.959 . S
H46 C42 0.960 . S
H47 C42 0.961 . S
H48 C42 0.960 . S
H49 C45 0.960 . S
H50 C45 0.960 . S
H51 C45 0.959 . S
C52 N53 1.317 . S
C52 N54 1.348 . S
C52 C55 1.485 1_455 S
N53 C52 1.317 . S
N53 N57 1.370 . S
N54 C52 1.348 . S
N54 C56 1.346 1_565 S
C55 C52 1.485 1_655 S
C55 H59 0.960 . S
C55 H60 0.961 . S
C55 H61 0.960 . S
C56 N54 1.346 1_545 S
C56 N57 1.307 1_545 S
C56 C58 1.486 . S
N57 N53 1.370 . S
N57 C56 1.307 1_565 S
C58 C56 1.486 . S
C58 H62 0.960 . S
C58 H63 0.960 . S
C58 H64 0.959 . S
H59 C55 0.960 . S
H60 C55 0.961 . S
H61 C55 0.960 . S
H62 C58 0.960 . S
H63 C58 0.960 . S
H64 C58 0.959 . S
C65 N66 1.317 . S
C65 N67 1.348 . S
C65 C68 1.485 . S
N66 C65 1.317 . S
N66 N70 1.370 . S
N67 C65 1.348 . S
N67 C69 1.346 . S
C68 C65 1.485 . S
C68 H72 0.960 . S
C68 H73 0.961 . S
C68 H74 0.960 . S
C69 N67 1.346 . S
C69 N70 1.307 . S
C69 C71 1.486 . S
N70 N66 1.370 . S
N70 C69 1.307 . S
C71 C69 1.486 . S
C71 H75 0.960 . S
C71 H76 0.960 . S
C71 H77 0.959 . S
H72 C68 0.960 . S
H73 C68 0.961 . S
H74 C68 0.960 . S
H75 C71 0.960 . S
H76 C71 0.960 . S
H77 C71 0.959 . S
C78 N79 1.317 . S
C78 N80 1.348 . S
C78 C81 1.485 . S
N79 C78 1.317 . S
N79 N83 1.370 . S
N80 C78 1.348 . S
N80 C82 1.346 . S
C81 C78 1.485 . S
C81 H85 0.960 . S
C81 H86 0.961 . S
C81 H87 0.960 . S
C82 N80 1.346 . S
C82 N83 1.307 . S
C82 C84 1.486 . S
N83 N79 1.370 . S
N83 C82 1.307 . S
C84 C82 1.486 . S
C84 H88 0.960 . S
C84 H89 0.960 . S
C84 H90 0.959 . S
H85 C81 0.960 . S
H86 C81 0.961 . S
H87 C81 0.960 . S
H88 C84 0.960 . S
H89 C84 0.960 . S
H90 C84 0.959 . S
C91 N92 1.317 . S
C91 N93 1.348 . S
C91 C94 1.485 . S
N92 C91 1.317 . S
N92 N96 1.370 . S
N93 C91 1.348 . S
N93 C95 1.346 . S
C94 C91 1.485 . S
C94 H98 0.960 . S
C94 H99 0.961 . S
C94 H100 0.960 . S
C95 N93 1.346 . S
C95 N96 1.307 . S
C95 C97 1.486 . S
N96 N92 1.370 . S
N96 C95 1.307 . S
C97 C95 1.486 . S
C97 H101 0.960 . S
C97 H102 0.960 . S
C97 H103 0.959 . S
H98 C94 0.960 . S
H99 C94 0.961 . S
H100 C94 0.960 . S
H101 C97 0.960 . S
H102 C97 0.960 . S
H103 C97 0.959 . S
C104 N105 1.317 . S
C104 N106 1.348 . S
C104 C107 1.485 . S
N105 C104 1.317 . S
N105 N109 1.370 . S
N106 C104 1.348 . S
N106 C108 1.346 . S
C107 C104 1.485 . S
C107 H111 0.960 . S
C107 H112 0.961 . S
C107 H113 0.960 . S
C108 N106 1.346 . S
C108 N109 1.307 . S
C108 C110 1.486 . S
N109 N105 1.370 . S
N109 C108 1.307 . S
C110 C108 1.486 . S
C110 H114 0.960 . S
C110 H115 0.960 . S
C110 H116 0.959 . S
H111 C107 0.960 . S
H112 C107 0.961 . S
H113 C107 0.960 . S
H114 C110 0.960 . S
H115 C110 0.960 . S
H116 C110 0.959 . S
C117 N118 1.317 . S
C117 N119 1.348 . S
C117 C120 1.485 1_565 S
N118 C117 1.317 . S
N118 N122 1.370 . S
N119 C117 1.348 . S
N119 C121 1.346 . S
C120 C117 1.485 1_545 S
C120 H124 0.960 . S
C120 H125 0.961 . S
C120 H126 0.960 . S
C121 N119 1.346 . S
C121 N122 1.307 . S
C121 C123 1.486 . S
N122 N118 1.370 . S
N122 C121 1.307 . S
C123 C121 1.486 . S
C123 H127 0.960 . S
C123 H128 0.960 . S
C123 H129 0.959 . S
H124 C120 0.960 . S
H125 C120 0.961 . S
H126 C120 0.960 . S
H127 C123 0.960 . S
H128 C123 0.960 . S
H129 C123 0.959 . S
C130 N131 1.317 . S
C130 N132 1.348 . S
C130 C133 1.485 . S
N131 C130 1.317 . S
N131 N135 1.370 . S
N132 C130 1.348 . S
N132 C134 1.346 . S
C133 C130 1.485 . S
C133 H137 0.960 . S
C133 H138 0.961 . S
C133 H139 0.960 . S
C134 N132 1.346 . S
C134 N135 1.307 . S
C134 C136 1.486 . S
N135 N131 1.370 . S
N135 C134 1.307 . S
C136 C134 1.486 . S
C136 H140 0.960 . S
C136 H141 0.960 . S
C136 H142 0.959 . S
H137 C133 0.960 . S
H138 C133 0.961 . S
H139 C133 0.960 . S
H140 C136 0.960 . S
H141 C136 0.960 . S
H142 C136 0.959 . S
C143 N144 1.317 . S
C143 N145 1.348 . S
C143 C146 1.485 . S
N144 C143 1.317 . S
N144 N148 1.370 . S
N145 C143 1.348 . S
N145 C147 1.346 . S
C146 C143 1.485 . S
C146 H150 0.960 . S
C146 H151 0.961 . S
C146 H152 0.960 . S
C147 N145 1.346 . S
C147 N148 1.307 . S
C147 C149 1.486 . S
N148 N144 1.370 . S
N148 C147 1.307 . S
C149 C147 1.486 . S
C149 H153 0.960 . S
C149 H154 0.960 . S
C149 H155 0.959 . S
H150 C146 0.960 . S
H151 C146 0.961 . S
H152 C146 0.960 . S
H153 C149 0.960 . S
H154 C149 0.960 . S
H155 C149 0.959 . S
C156 N157 1.317 . S
C156 N158 1.348 . S
C156 C159 1.485 . S
N157 C156 1.317 . S
N157 N161 1.370 . S
N158 C156 1.348 . S
N158 C160 1.346 . S
C159 C156 1.485 . S
C159 H163 0.960 . S
C159 H164 0.961 . S
C159 H165 0.960 . S
C160 N158 1.346 . S
C160 N161 1.307 . S
C160 C162 1.486 . S
N161 N157 1.370 . S
N161 C160 1.307 . S
C162 C160 1.486 . S
C162 H166 0.960 . S
C162 H167 0.960 . S
C162 H168 0.959 . S
H163 C159 0.960 . S
H164 C159 0.961 . S
H165 C159 0.960 . S
H166 C162 0.960 . S
H167 C162 0.960 . S
H168 C162 0.959 . S
C169 N170 1.317 . S
C169 N171 1.348 . S
C169 C172 1.485 . S
N170 C169 1.317 . S
N170 N174 1.370 . S
N171 C169 1.348 . S
N171 C173 1.346 . S
C172 C169 1.485 . S
C172 H176 0.960 . S
C172 H177 0.961 . S
C172 H178 0.960 . S
C173 N171 1.346 . S
C173 N174 1.307 . S
C173 C175 1.486 . S
N174 N170 1.370 . S
N174 C173 1.307 . S
C175 C173 1.486 . S
C175 H179 0.960 . S
C175 H180 0.960 . S
C175 H181 0.959 . S
H176 C172 0.960 . S
H177 C172 0.961 . S
H178 C172 0.960 . S
H179 C175 0.960 . S
H180 C175 0.960 . S
H181 C175 0.959 . S
C182 N183 1.317 . S
C182 N184 1.348 . S
C182 C185 1.485 . S
N183 C182 1.317 . S
N183 N187 1.370 . S
N184 C182 1.348 . S
N184 C186 1.346 . S
C185 C182 1.485 . S
C185 H189 0.960 . S
C185 H190 0.961 . S
C185 H191 0.960 . S
C186 N184 1.346 . S
C186 N187 1.307 . S
C186 C188 1.486 . S
N187 N183 1.370 . S
N187 C186 1.307 . S
C188 C186 1.486 . S
C188 H192 0.960 . S
C188 H193 0.960 . S
C188 H194 0.959 . S
H189 C185 0.960 . S
H190 C185 0.961 . S
H191 C185 0.960 . S
H192 C188 0.960 . S
H193 C188 0.960 . S
H194 C188 0.959 . S
C195 N196 1.317 . S
C195 N197 1.348 . S
C195 C198 1.485 1_545 S
N196 C195 1.317 . S
N196 N200 1.370 . S
N197 C195 1.348 . S
N197 C199 1.346 . S
C198 C195 1.485 1_565 S
C198 H202 0.965 . S
C198 H203 0.961 . S
C198 H204 0.960 . S
C199 N197 1.346 . S
C199 N200 1.307 . S
C199 C201 1.486 1_556 S
N200 N196 1.370 . S
N200 C199 1.307 . S
C201 C199 1.486 1_554 S
C201 H205 0.960 . S
C201 H206 0.960 . S
C201 H207 0.959 . S
H202 C198 0.965 . S
H203 C198 0.961 . S
H204 C198 0.960 . S
H205 C201 0.960 . S
H206 C201 0.960 . S
H207 C201 0.959 . S
Li208 N225 1.991 . S
Li208 O268 1.956 . S
Li208 O269 1.970 . S
Li208 O270 1.961 1_554 S
Li209 N233 1.990 . S
Li209 O268 1.970 . S
Li209 O269 1.956 . S
Li209 O271 1.961 . S
Li210 N255 1.990 . S
Li210 O268 1.961 1_556 S
Li210 O270 1.956 . S
Li210 O271 1.970 1_556 S
Li211 N261 1.990 . S
Li211 O269 1.961 . S
Li211 O270 1.970 1_554 S
Li211 O271 1.956 . S
C212 C214 1.348 1_556 S
C212 C215 1.356 . S
C212 O268 1.325 1_556 S
N213 C216 1.314 1_556 S
N213 C217 1.279 . S
C214 C212 1.348 1_554 S
C214 C216 1.353 . S
C214 H272 0.929 . S
C215 C212 1.356 . S
C215 C217 1.358 . S
C215 H273 0.930 . S
C216 N213 1.314 1_554 S
C216 C214 1.353 . S
C216 H274 0.930 . S
C217 N213 1.279 . S
C217 C215 1.358 . S
C217 H275 0.930 . S
C218 C221 1.348 . S
C218 C222 1.356 . S
C218 O269 1.325 . S
C219 N220 1.279 . S
C219 C222 1.358 . S
C219 H276 0.930 . S
N220 C219 1.279 . S
N220 C223 1.314 . S
C221 C218 1.348 . S
C221 C223 1.353 . S
C221 H277 0.929 . S
C222 C218 1.356 . S
C222 C219 1.358 . S
C222 H278 0.930 . S
C223 N220 1.314 . S
C223 C221 1.353 . S
C223 H279 0.930 . S
C224 N225 1.313 1_556 S
C224 C229 1.353 . S
C224 H230 0.930 . S
N225 Li208 1.991 . S
N225 C224 1.313 1_554 S
N225 C227 1.280 . S
C226 C227 1.358 1_556 S
C226 C228 1.356 . S
C226 H280 0.929 1_556 S
C227 N225 1.280 . S
C227 C226 1.358 1_554 S
C227 H231 0.930 . S
C228 C226 1.356 . S
C228 C229 1.348 . S
C229 C224 1.353 . S
C229 C228 1.348 . S
C229 H281 0.929 . S
H230 C224 0.930 . S
H231 C227 0.930 . S
C232 N233 1.314 . S
C232 C234 1.353 . S
C232 H238 0.930 . S
N233 Li209 1.990 . S
N233 C232 1.314 . S
N233 C236 1.279 . S
C234 C232 1.353 . S
C234 C237 1.348 . S
C234 H282 0.929 . S
C235 C236 1.358 . S
C235 C237 1.356 . S
C235 H283 0.930 . S
C236 N233 1.279 . S
C236 C235 1.358 . S
C236 H239 0.930 . S
C237 C234 1.348 . S
C237 C235 1.356 . S
H238 C232 0.930 . S
H239 C236 0.930 . S
C240 C242 1.348 . S
C240 C243 1.356 . S
C240 O270 1.325 . S
N241 C244 1.314 . S
N241 C245 1.279 . S
C242 C240 1.348 . S
C242 C244 1.353 . S
C242 H284 0.929 . S
C243 C240 1.356 . S
C243 C245 1.358 . S
C243 H285 0.930 . S
C244 N241 1.314 . S
C244 C242 1.353 . S
C244 H286 0.930 . S
C245 N241 1.279 . S
C245 C243 1.358 . S
C245 H287 0.930 . S
C246 C247 1.348 1_554 S
C246 C248 1.356 . S
C246 O271 1.325 . S
C247 C246 1.348 1_556 S
C247 C249 1.353 . S
C247 H288 0.929 . S
C248 C246 1.356 . S
C248 C250 1.358 . S
C248 H289 0.930 . S
C249 C247 1.353 . S
C249 N251 1.314 1_556 S
C249 H290 0.930 . S
C250 C248 1.358 . S
C250 N251 1.279 . S
C250 H291 0.930 . S
N251 C249 1.314 1_554 S
N251 C250 1.279 . S
C252 C254 1.353 . S
C252 N255 1.314 . S
C252 H258 0.930 . S
C253 N255 1.279 . S
C253 C256 1.358 . S
C253 H259 0.930 . S
C254 C252 1.353 . S
C254 C257 1.348 . S
C254 H292 0.929 . S
N255 Li210 1.990 . S
N255 C252 1.314 . S
N255 C253 1.279 . S
C256 C253 1.358 . S
C256 C257 1.356 . S
C256 H293 0.930 . S
C257 C254 1.348 . S
C257 C256 1.356 . S
H258 C252 0.930 . S
H259 C253 0.930 . S
C260 N261 1.314 . S
C260 C262 1.353 . S
C260 H266 0.930 . S
N261 Li211 1.990 . S
N261 C260 1.314 . S
N261 C264 1.279 . S
C262 C260 1.353 . S
C262 C265 1.348 . S
C262 H294 0.929 . S
C263 C264 1.358 . S
C263 C265 1.356 . S
C263 H295 0.930 . S
C264 N261 1.279 . S
C264 C263 1.358 . S
C264 H267 0.930 . S
C265 C262 1.348 . S
C265 C263 1.356 . S
H266 C260 0.930 . S
H267 C264 0.930 . S
O268 Li208 1.956 . S
O268 Li209 1.970 . S
O268 Li210 1.961 1_554 S
O268 C212 1.325 1_554 S
O269 Li208 1.970 . S
O269 Li209 1.956 . S
O269 Li211 1.961 . S
O269 C218 1.325 . S
O270 Li208 1.961 1_556 S
O270 Li210 1.956 . S
O270 Li211 1.970 1_556 S
O270 C240 1.325 . S
O271 Li209 1.961 . S
O271 Li210 1.970 1_554 S
O271 Li211 1.956 . S
O271 C246 1.325 . S
H272 C214 0.929 . S
H273 C215 0.930 . S
H274 C216 0.930 . S
H275 C217 0.930 . S
H276 C219 0.930 . S
H277 C221 0.929 . S
H278 C222 0.930 . S
H279 C223 0.930 . S
H280 C226 0.929 1_554 S
H281 C229 0.929 . S
H282 C234 0.929 . S
H283 C235 0.930 . S
H284 C242 0.929 . S
H285 C243 0.930 . S
H286 C244 0.930 . S
H287 C245 0.930 . S
H288 C247 0.929 . S
H289 C248 0.930 . S
H290 C249 0.930 . S
H291 C250 0.930 . S
H292 C254 0.929 . S
H293 C256 0.930 . S
H294 C262 0.929 . S
H295 C263 0.930 . S
Li296 N313 1.990 . S
Li296 O356 1.956 . S
Li296 O357 1.970 . S
Li296 O358 1.961 . S
Li297 N321 1.990 . S
Li297 O356 1.970 . S
Li297 O357 1.956 . S
Li297 O359 1.961 . S
Li298 N343 1.990 . S
Li298 O356 1.961 . S
Li298 O358 1.956 . S
Li298 O359 1.970 . S
Li299 N349 1.990 . S
Li299 O357 1.961 . S
Li299 O358 1.970 . S
Li299 O359 1.956 . S
C300 C302 1.348 . S
C300 C303 1.356 . S
C300 O356 1.325 . S
N301 C304 1.314 . S
N301 C305 1.279 . S
C302 C300 1.348 . S
C302 C304 1.353 . S
C302 H360 0.929 . S
C303 C300 1.356 . S
C303 C305 1.358 . S
C303 H361 0.930 . S
C304 N301 1.314 . S
C304 C302 1.353 . S
C304 H362 0.930 . S
C305 N301 1.279 . S
C305 C303 1.358 . S
C305 H363 0.930 . S
C306 C309 1.348 . S
C306 C310 1.356 . S
C306 O357 1.325 . S
C307 N308 1.279 . S
C307 C310 1.358 . S
C307 H364 0.930 . S
N308 C307 1.279 . S
N308 C311 1.314 . S
C309 C306 1.348 . S
C309 C311 1.353 . S
C309 H365 0.929 . S
C310 C306 1.356 . S
C310 C307 1.358 . S
C310 H366 0.930 . S
C311 N308 1.314 . S
C311 C309 1.353 . S
C311 H367 0.930 . S
C312 N313 1.314 . S
C312 C317 1.353 . S
C312 H318 0.930 . S
N313 Li296 1.990 . S
N313 C312 1.314 . S
N313 C315 1.279 . S
C314 C315 1.358 . S
C314 C316 1.356 . S
C314 H368 0.930 . S
C315 N313 1.279 . S
C315 C314 1.358 . S
C315 H319 0.930 . S
C316 C314 1.356 . S
C316 C317 1.348 . S
C317 C312 1.353 . S
C317 C316 1.348 . S
C317 H369 0.929 . S
H318 C312 0.930 . S
H319 C315 0.930 . S
C320 N321 1.314 . S
C320 C322 1.353 . S
C320 H326 0.930 . S
N321 Li297 1.990 . S
N321 C320 1.314 . S
N321 C324 1.279 . S
C322 C320 1.353 . S
C322 C325 1.348 . S
C322 H370 0.929 . S
C323 C324 1.358 . S
C323 C325 1.356 . S
C323 H371 0.930 . S
C324 N321 1.279 . S
C324 C323 1.358 . S
C324 H327 0.930 . S
C325 C322 1.348 . S
C325 C323 1.356 . S
H326 C320 0.930 . S
H327 C324 0.930 . S
C328 C330 1.348 . S
C328 C331 1.356 . S
C328 O358 1.325 . S
N329 C332 1.314 . S
N329 C333 1.279 . S
C330 C328 1.348 . S
C330 C332 1.353 . S
C330 H372 0.929 . S
C331 C328 1.356 . S
C331 C333 1.358 . S
C331 H373 0.930 . S
C332 N329 1.314 . S
C332 C330 1.353 . S
C332 H374 0.930 . S
C333 N329 1.279 . S
C333 C331 1.358 . S
C333 H375 0.930 . S
C334 C335 1.348 . S
C334 C336 1.356 . S
C334 O359 1.325 . S
C335 C334 1.348 . S
C335 C337 1.353 . S
C335 H376 0.929 . S
C336 C334 1.356 . S
C336 C338 1.358 . S
C336 H377 0.930 . S
C337 C335 1.353 . S
C337 N339 1.314 . S
C337 H378 0.930 . S
C338 C336 1.358 . S
C338 N339 1.279 . S
C338 H379 0.930 . S
N339 C337 1.314 . S
N339 C338 1.279 . S
C340 C342 1.353 . S
C340 N343 1.314 . S
C340 H346 0.930 . S
C341 N343 1.279 . S
C341 C344 1.358 . S
C341 H347 0.930 . S
C342 C340 1.353 . S
C342 C345 1.348 . S
C342 H380 0.929 . S
N343 Li298 1.990 . S
N343 C340 1.314 . S
N343 C341 1.279 . S
C344 C341 1.358 . S
C344 C345 1.356 . S
C344 H381 0.930 . S
C345 C342 1.348 . S
C345 C344 1.356 . S
H346 C340 0.930 . S
H347 C341 0.930 . S
C348 N349 1.314 . S
C348 C350 1.353 . S
C348 H354 0.930 . S
N349 Li299 1.990 . S
N349 C348 1.314 . S
N349 C352 1.279 . S
C350 C348 1.353 . S
C350 C353 1.348 . S
C350 H382 0.929 . S
C351 C352 1.358 . S
C351 C353 1.356 . S
C351 H383 0.930 . S
C352 N349 1.279 . S
C352 C351 1.358 . S
C352 H355 0.930 . S
C353 C350 1.348 . S
C353 C351 1.356 . S
H354 C348 0.930 . S
H355 C352 0.930 . S
O356 Li296 1.956 . S
O356 Li297 1.970 . S
O356 Li298 1.961 . S
O356 C300 1.325 . S
O357 Li296 1.970 . S
O357 Li297 1.956 . S
O357 Li299 1.961 . S
O357 C306 1.325 . S
O358 Li296 1.961 . S
O358 Li298 1.956 . S
O358 Li299 1.970 . S
O358 C328 1.325 . S
O359 Li297 1.961 . S
O359 Li298 1.970 . S
O359 Li299 1.956 . S
O359 C334 1.325 . S
H360 C302 0.929 . S
H361 C303 0.930 . S
H362 C304 0.930 . S
H363 C305 0.930 . S
H364 C307 0.930 . S
H365 C309 0.929 . S
H366 C310 0.930 . S
H367 C311 0.930 . S
H368 C314 0.930 . S
H369 C317 0.929 . S
H370 C322 0.929 . S
H371 C323 0.930 . S
H372 C330 0.929 . S
H373 C331 0.930 . S
H374 C332 0.930 . S
H375 C333 0.930 . S
H376 C335 0.929 . S
H377 C336 0.930 . S
H378 C337 0.930 . S
H379 C338 0.930 . S
H380 C342 0.929 . S
H381 C344 0.930 . S
H382 C350 0.929 . S
H383 C351 0.930 . S
Li384 N401 1.990 . S
Li384 O444 1.956 1_556 S
Li384 O445 1.969 1_556 S
Li384 O446 1.962 . S
Li385 N409 1.990 . S
Li385 O444 1.970 . S
Li385 O445 1.956 . S
Li385 O447 1.961 . S
Li386 N431 1.990 . S
Li386 O444 1.961 1_556 S
Li386 O446 1.956 . S
Li386 O447 1.970 1_556 S
Li387 N437 1.990 . S
Li387 O445 1.961 . S
Li387 O446 1.970 1_554 S
Li387 O447 1.956 . S
C388 C390 1.348 . S
C388 C391 1.356 1_554 S
C388 O444 1.325 . S
N389 C392 1.314 1_556 S
N389 C393 1.279 . S
C390 C388 1.348 . S
C390 C392 1.353 . S
C390 H448 0.929 . S
C391 C388 1.356 1_556 S
C391 C393 1.358 . S
C391 H449 0.930 . S
C392 N389 1.314 1_554 S
C392 C390 1.353 . S
C392 H450 0.930 . S
C393 N389 1.279 . S
C393 C391 1.358 . S
C393 H451 0.930 . S
C394 C397 1.348 . S
C394 C398 1.356 . S
C394 O445 1.325 . S
C395 N396 1.279 . S
C395 C398 1.358 . S
C395 H452 0.930 . S
N396 C395 1.279 . S
N396 C399 1.314 . S
C397 C394 1.348 . S
C397 C399 1.353 . S
C397 H453 0.929 . S
C398 C394 1.356 . S
C398 C395 1.358 . S
C398 H454 0.930 . S
C399 N396 1.314 . S
C399 C397 1.353 . S
C399 H455 0.930 . S
C400 N401 1.314 . S
C400 C405 1.353 . S
C400 H406 0.930 . S
N401 Li384 1.990 . S
N401 C400 1.314 . S
N401 C403 1.279 . S
C402 C403 1.358 . S
C402 C404 1.356 . S
C402 H456 0.930 . S
C403 N401 1.279 . S
C403 C402 1.358 . S
C403 H407 0.930 . S
C404 C402 1.356 . S
C404 C405 1.348 . S
C405 C400 1.353 . S
C405 C404 1.348 . S
C405 H457 0.929 . S
H406 C400 0.930 . S
H407 C403 0.930 . S
C408 N409 1.314 . S
C408 C410 1.353 . S
C408 H414 0.930 . S
N409 Li385 1.990 . S
N409 C408 1.314 . S
N409 C412 1.279 . S
C410 C408 1.353 . S
C410 C413 1.348 . S
C410 H458 0.929 . S
C411 C412 1.358 . S
C411 C413 1.356 . S
C411 H459 0.930 . S
C412 N409 1.279 . S
C412 C411 1.358 . S
C412 H415 0.930 . S
C413 C410 1.348 . S
C413 C411 1.356 . S
H414 C408 0.930 . S
H415 C412 0.930 . S
C416 C418 1.348 . S
C416 C419 1.356 . S
C416 O446 1.325 . S
N417 C420 1.314 . S
N417 C421 1.279 . S
C418 C416 1.348 . S
C418 C420 1.353 . S
C418 H460 0.929 . S
C419 C416 1.356 . S
C419 C421 1.358 . S
C419 H461 0.930 . S
C420 N417 1.314 . S
C420 C418 1.353 . S
C420 H462 0.930 . S
C421 N417 1.279 . S
C421 C419 1.358 . S
C421 H463 0.930 . S
C422 C423 1.348 . S
C422 C424 1.356 . S
C422 O447 1.325 . S
C423 C422 1.348 . S
C423 C425 1.353 . S
C423 H464 0.929 1_554 S
C424 C422 1.356 . S
C424 C426 1.358 . S
C424 H465 0.930 . S
C425 C423 1.353 . S
C425 N427 1.314 . S
C425 H466 0.930 1_554 S
C426 C424 1.358 . S
C426 N427 1.279 . S
C426 H467 0.930 . S
N427 C425 1.314 . S
N427 C426 1.279 . S
C428 C430 1.353 . S
C428 N431 1.314 . S
C428 H434 0.930 . S
C429 N431 1.279 . S
C429 C432 1.358 . S
C429 H435 0.930 . S
C430 C428 1.353 . S
C430 C433 1.348 . S
C430 H468 0.929 . S
N431 Li386 1.990 . S
N431 C428 1.314 . S
N431 C429 1.279 . S
C432 C429 1.358 . S
C432 C433 1.356 . S
C432 H469 0.930 . S
C433 C430 1.348 . S
C433 C432 1.356 . S
H434 C428 0.930 . S
H435 C429 0.930 . S
C436 N437 1.314 . S
C436 C438 1.353 . S
C436 H442 0.930 . S
N437 Li387 1.990 . S
N437 C436 1.314 . S
N437 C440 1.279 . S
C438 C436 1.353 . S
C438 C441 1.348 . S
C438 H470 0.929 . S
C439 C440 1.358 . S
C439 C441 1.356 . S
C439 H471 0.930 . S
C440 N437 1.279 . S
C440 C439 1.358 . S
C440 H443 0.930 . S
C441 C438 1.348 . S
C441 C439 1.356 . S
H442 C436 0.930 . S
H443 C440 0.930 . S
O444 Li384 1.956 1_554 S
O444 Li385 1.970 . S
O444 Li386 1.961 1_554 S
O444 C388 1.325 . S
O445 Li384 1.969 1_554 S
O445 Li385 1.956 . S
O445 Li387 1.961 . S
O445 C394 1.325 . S
O446 Li384 1.962 . S
O446 Li386 1.956 . S
O446 Li387 1.970 1_556 S
O446 C416 1.325 . S
O447 Li385 1.961 . S
O447 Li386 1.970 1_554 S
O447 Li387 1.956 . S
O447 C422 1.325 . S
H448 C390 0.929 . S
H449 C391 0.930 . S
H450 C392 0.930 . S
H451 C393 0.930 . S
H452 C395 0.930 . S
H453 C397 0.929 . S
H454 C398 0.930 . S
H455 C399 0.930 . S
H456 C402 0.930 . S
H457 C405 0.929 . S
H458 C410 0.929 . S
H459 C411 0.930 . S
H460 C418 0.929 . S
H461 C419 0.930 . S
H462 C420 0.930 . S
H463 C421 0.930 . S
H464 C423 0.929 1_556 S
H465 C424 0.930 . S
H466 C425 0.930 1_556 S
H467 C426 0.930 . S
H468 C430 0.929 . S
H469 C432 0.930 . S
H470 C438 0.929 . S
H471 C439 0.930 . S
Li472 N489 1.990 . S
Li472 O532 1.956 . S
Li472 O533 1.970 . S
Li472 O534 1.978 . S
Li473 N497 1.995 . S
Li473 O532 1.970 . S
Li473 O533 1.956 . S
Li473 O535 1.961 1_545 S
Li474 N519 1.990 . S
Li474 O532 1.961 . S
Li474 O534 1.956 . S
Li474 O535 1.970 1_545 S
Li475 N525 1.990 . S
Li475 O533 1.961 1_565 S
Li475 O534 1.949 1_565 S
Li475 O535 1.956 . S
C476 C478 1.348 . S
C476 C479 1.356 . S
C476 O532 1.325 . S
N477 C480 1.314 . S
N477 C481 1.279 . S
C478 C476 1.348 . S
C478 C480 1.353 . S
C478 H536 0.929 . S
C479 C476 1.356 . S
C479 C481 1.358 . S
C479 H537 0.930 . S
C480 N477 1.314 . S
C480 C478 1.353 . S
C480 H538 0.930 . S
C481 N477 1.279 . S
C481 C479 1.358 . S
C481 H539 0.930 . S
C482 C485 1.377 . S
C482 C486 1.323 1_545 S
C482 O533 1.329 . S
C483 N484 1.307 . S
C483 C486 1.358 . S
C483 H540 0.930 . S
N484 C483 1.307 . S
N484 C487 1.283 1_565 S
C485 C482 1.377 . S
C485 C487 1.353 . S
C485 H541 0.929 . S
C486 C482 1.323 1_565 S
C486 C483 1.358 . S
C486 H542 0.930 . S
C487 N484 1.283 1_545 S
C487 C485 1.353 . S
C487 H543 0.930 . S
C488 N489 1.314 . S
C488 C493 1.353 . S
C488 H494 0.930 . S
N489 Li472 1.990 . S
N489 C488 1.314 . S
N489 C491 1.279 . S
C490 C491 1.358 . S
C490 C492 1.356 . S
C490 H544 0.930 . S
C491 N489 1.279 . S
C491 C490 1.358 . S
C491 H495 0.930 . S
C492 C490 1.356 . S
C492 C493 1.348 . S
C493 C488 1.353 . S
C493 C492 1.348 . S
C493 H545 0.929 . S
H494 C488 0.930 . S
H495 C491 0.930 . S
C496 N497 1.307 1_565 S
C496 C498 1.353 . S
C496 H502 0.930 . S
N497 Li473 1.995 . S
N497 C496 1.307 1_545 S
N497 C500 1.284 . S
C498 C496 1.353 . S
C498 C501 1.348 1_565 S
C498 H546 0.929 . S
C499 C500 1.358 . S
C499 C501 1.356 . S
C499 H547 0.930 . S
C500 N497 1.284 . S
C500 C499 1.358 . S
C500 H503 0.930 . S
C501 C498 1.348 1_545 S
C501 C499 1.356 . S
H502 C496 0.930 . S
H503 C500 0.930 . S
C504 C506 1.328 1_545 S
C504 C507 1.379 . S
C504 O534 1.325 . S
N505 C508 1.281 1_545 S
N505 C509 1.307 . S
C506 C504 1.328 1_565 S
C506 C508 1.353 . S
C506 H548 0.929 . S
C507 C504 1.379 . S
C507 C509 1.358 . S
C507 H549 0.930 . S
C508 N505 1.281 1_565 S
C508 C506 1.353 . S
C508 H550 0.930 . S
C509 N505 1.307 . S
C509 C507 1.358 . S
C509 H551 0.930 . S
C510 C511 1.348 . S
C510 C512 1.356 . S
C510 O535 1.325 . S
C511 C510 1.348 . S
C511 C513 1.353 . S
C511 H552 0.929 . S
C512 C510 1.356 . S
C512 C514 1.358 . S
C512 H553 0.930 . S
C513 C511 1.353 . S
C513 N515 1.314 . S
C513 H554 0.930 . S
C514 C512 1.358 . S
C514 N515 1.279 . S
C514 H555 0.930 . S
N515 C513 1.314 . S
N515 C514 1.279 . S
C516 C518 1.353 . S
C516 N519 1.314 . S
C516 H522 0.930 . S
C517 N519 1.279 1_565 S
C517 C520 1.358 . S
C517 H523 0.930 . S
C518 C516 1.353 . S
C518 C521 1.348 . S
C518 H556 0.929 . S
N519 Li474 1.990 . S
N519 C516 1.314 . S
N519 C517 1.279 1_545 S
C520 C517 1.358 . S
C520 C521 1.356 1_565 S
C520 H557 0.930 . S
C521 C518 1.348 . S
C521 C520 1.356 1_545 S
H522 C516 0.930 . S
H523 C517 0.930 . S
C524 N525 1.314 . S
C524 C526 1.353 . S
C524 H530 0.930 . S
N525 Li475 1.990 . S
N525 C524 1.314 . S
N525 C528 1.279 . S
C526 C524 1.353 . S
C526 C529 1.348 . S
C526 H558 0.929 . S
C527 C528 1.358 . S
C527 C529 1.356 . S
C527 H559 0.930 . S
C528 N525 1.279 . S
C528 C527 1.358 . S
C528 H531 0.930 . S
C529 C526 1.348 . S
C529 C527 1.356 . S
H530 C524 0.930 . S
H531 C528 0.930 . S
O532 Li472 1.956 . S
O532 Li473 1.970 . S
O532 Li474 1.961 . S
O532 C476 1.325 . S
O533 Li472 1.970 . S
O533 Li473 1.956 . S
O533 Li475 1.961 1_545 S
O533 C482 1.329 . S
O534 Li472 1.978 . S
O534 Li474 1.956 . S
O534 Li475 1.949 1_545 S
O534 C504 1.325 . S
O535 Li473 1.961 1_565 S
O535 Li474 1.970 1_565 S
O535 Li475 1.956 . S
O535 C510 1.325 . S
H536 C478 0.929 . S
H537 C479 0.930 . S
H538 C480 0.930 . S
H539 C481 0.930 . S
H540 C483 0.930 . S
H541 C485 0.929 . S
H542 C486 0.930 . S
H543 C487 0.930 . S
H544 C490 0.930 . S
H545 C493 0.929 . S
H546 C498 0.929 . S
H547 C499 0.930 . S
H548 C506 0.929 . S
H549 C507 0.930 . S
H550 C508 0.930 . S
H551 C509 0.930 . S
H552 C511 0.929 . S
H553 C512 0.930 . S
H554 C513 0.930 . S
H555 C514 0.930 . S
H556 C518 0.929 . S
H557 C520 0.930 . S
H558 C526 0.929 . S
H559 C527 0.930 . S
Li560 N577 1.990 . S
Li560 O620 1.956 . S
Li560 O621 1.970 . S
Li560 O622 1.961 . S
Li561 N585 1.990 . S
Li561 O620 1.970 . S
Li561 O621 1.956 . S
Li561 O623 1.961 . S
Li562 N607 1.990 . S
Li562 O620 1.961 . S
Li562 O622 1.956 . S
Li562 O623 1.970 . S
Li563 N613 1.990 . S
Li563 O621 1.961 . S
Li563 O622 1.970 . S
Li563 O623 1.956 . S
C564 C566 1.348 . S
C564 C567 1.356 . S
C564 O620 1.325 . S
N565 C568 1.314 . S
N565 C569 1.279 . S
C566 C564 1.348 . S
C566 C568 1.353 . S
C566 H624 0.929 . S
C567 C564 1.356 . S
C567 C569 1.358 . S
C567 H625 0.930 . S
C568 N565 1.314 . S
C568 C566 1.353 . S
C568 H626 0.930 . S
C569 N565 1.279 . S
C569 C567 1.358 . S
C569 H627 0.930 . S
C570 C573 1.348 . S
C570 C574 1.356 . S
C570 O621 1.325 . S
C571 N572 1.279 . S
C571 C574 1.358 . S
C571 H628 0.930 . S
N572 C571 1.279 . S
N572 C575 1.314 . S
C573 C570 1.348 . S
C573 C575 1.353 . S
C573 H629 0.929 . S
C574 C570 1.356 . S
C574 C571 1.358 . S
C574 H630 0.930 . S
C575 N572 1.314 . S
C575 C573 1.353 . S
C575 H631 0.930 . S
C576 N577 1.314 . S
C576 C581 1.353 . S
C576 H582 0.930 . S
N577 Li560 1.990 . S
N577 C576 1.314 . S
N577 C579 1.279 . S
C578 C579 1.358 . S
C578 C580 1.356 . S
C578 H632 0.930 . S
C579 N577 1.279 . S
C579 C578 1.358 . S
C579 H583 0.930 . S
C580 C578 1.356 . S
C580 C581 1.348 . S
C581 C576 1.353 . S
C581 C580 1.348 . S
C581 H633 0.929 . S
H582 C576 0.930 . S
H583 C579 0.930 . S
C584 N585 1.314 . S
C584 C586 1.353 . S
C584 H590 0.930 . S
N585 Li561 1.990 . S
N585 C584 1.314 . S
N585 C588 1.279 . S
C586 C584 1.353 . S
C586 C589 1.348 . S
C586 H634 0.929 . S
C587 C588 1.358 . S
C587 C589 1.356 . S
C587 H635 0.930 . S
C588 N585 1.279 . S
C588 C587 1.358 . S
C588 H591 0.930 . S
C589 C586 1.348 . S
C589 C587 1.356 . S
H590 C584 0.930 . S
H591 C588 0.930 . S
C592 C594 1.348 . S
C592 C595 1.356 . S
C592 O622 1.325 . S
N593 C596 1.314 . S
N593 C597 1.279 . S
C594 C592 1.348 . S
C594 C596 1.353 . S
C594 H636 0.929 . S
C595 C592 1.356 . S
C595 C597 1.358 . S
C595 H637 0.930 . S
C596 N593 1.314 . S
C596 C594 1.353 . S
C596 H638 0.930 . S
C597 N593 1.279 . S
C597 C595 1.358 . S
C597 H639 0.930 . S
C598 C599 1.348 . S
C598 C600 1.356 . S
C598 O623 1.325 . S
C599 C598 1.348 . S
C599 C601 1.353 . S
C599 H640 0.929 . S
C600 C598 1.356 . S
C600 C602 1.358 . S
C600 H641 0.930 . S
C601 C599 1.353 . S
C601 N603 1.314 . S
C601 H642 0.930 . S
C602 C600 1.358 . S
C602 N603 1.279 . S
C602 H643 0.930 . S
N603 C601 1.314 . S
N603 C602 1.279 . S
C604 C606 1.353 . S
C604 N607 1.314 . S
C604 H610 0.930 . S
C605 N607 1.279 . S
C605 C608 1.358 . S
C605 H611 0.930 . S
C606 C604 1.353 . S
C606 C609 1.348 . S
C606 H644 0.929 . S
N607 Li562 1.990 . S
N607 C604 1.314 . S
N607 C605 1.279 . S
C608 C605 1.358 . S
C608 C609 1.356 . S
C608 H645 0.930 . S
C609 C606 1.348 . S
C609 C608 1.356 . S
H610 C604 0.930 . S
H611 C605 0.930 . S
C612 N613 1.314 . S
C612 C614 1.353 . S
C612 H618 0.930 . S
N613 Li563 1.990 . S
N613 C612 1.314 . S
N613 C616 1.279 . S
C614 C612 1.353 . S
C614 C617 1.348 . S
C614 H646 0.929 . S
C615 C616 1.358 . S
C615 C617 1.356 . S
C615 H647 0.930 . S
C616 N613 1.279 . S
C616 C615 1.358 . S
C616 H619 0.930 . S
C617 C614 1.348 . S
C617 C615 1.356 . S
H618 C612 0.930 . S
H619 C616 0.930 . S
O620 Li560 1.956 . S
O620 Li561 1.970 . S
O620 Li562 1.961 . S
O620 C564 1.325 . S
O621 Li560 1.970 . S
O621 Li561 1.956 . S
O621 Li563 1.961 . S
O621 C570 1.325 . S
O622 Li560 1.961 . S
O622 Li562 1.956 . S
O622 Li563 1.970 . S
O622 C592 1.325 . S
O623 Li561 1.961 . S
O623 Li562 1.970 . S
O623 Li563 1.956 . S
O623 C598 1.325 . S
H624 C566 0.929 . S
H625 C567 0.930 . S
H626 C568 0.930 . S
H627 C569 0.930 . S
H628 C571 0.930 . S
H629 C573 0.929 . S
H630 C574 0.930 . S
H631 C575 0.930 . S
H632 C578 0.930 . S
H633 C581 0.929 . S
H634 C586 0.929 . S
H635 C587 0.930 . S
H636 C594 0.929 . S
H637 C595 0.930 . S
H638 C596 0.930 . S
H639 C597 0.930 . S
H640 C599 0.929 . S
H641 C600 0.930 . S
H642 C601 0.930 . S
H643 C602 0.930 . S
H644 C606 0.929 . S
H645 C608 0.930 . S
H646 C614 0.929 . S
H647 C615 0.930 . S
Li648 N665 1.990 . S
Li648 O708 1.956 . S
Li648 O709 1.970 . S
Li648 O710 1.961 . S
Li649 N673 1.990 . S
Li649 O708 1.970 . S
Li649 O709 1.956 . S
Li649 O711 1.961 . S
Li650 N695 1.990 . S
Li650 O708 1.961 . S
Li650 O710 1.956 . S
Li650 O711 1.970 . S
Li651 N701 1.990 . S
Li651 O709 1.961 . S
Li651 O710 1.970 . S
Li651 O711 1.956 . S
C652 C654 1.348 . S
C652 C655 1.356 . S
C652 O708 1.325 . S
N653 C656 1.314 . S
N653 C657 1.279 . S
C654 C652 1.348 . S
C654 C656 1.353 . S
C654 H712 0.929 . S
C655 C652 1.356 . S
C655 C657 1.358 . S
C655 H713 0.930 . S
C656 N653 1.314 . S
C656 C654 1.353 . S
C656 H714 0.930 . S
C657 N653 1.279 . S
C657 C655 1.358 . S
C657 H715 0.930 . S
C658 C661 1.348 . S
C658 C662 1.356 . S
C658 O709 1.325 . S
C659 N660 1.279 . S
C659 C662 1.358 . S
C659 H716 0.930 . S
N660 C659 1.279 . S
N660 C663 1.314 . S
C661 C658 1.348 . S
C661 C663 1.353 . S
C661 H717 0.929 . S
C662 C658 1.356 . S
C662 C659 1.358 . S
C662 H718 0.930 . S
C663 N660 1.314 . S
C663 C661 1.353 . S
C663 H719 0.930 . S
C664 N665 1.314 . S
C664 C669 1.353 . S
C664 H670 0.930 . S
N665 Li648 1.990 . S
N665 C664 1.314 . S
N665 C667 1.279 . S
C666 C667 1.358 . S
C666 C668 1.356 . S
C666 H720 0.930 . S
C667 N665 1.279 . S
C667 C666 1.358 . S
C667 H671 0.930 . S
C668 C666 1.356 . S
C668 C669 1.348 . S
C669 C664 1.353 . S
C669 C668 1.348 . S
C669 H721 0.929 . S
H670 C664 0.930 . S
H671 C667 0.930 . S
C672 N673 1.314 . S
C672 C674 1.353 . S
C672 H678 0.930 . S
N673 Li649 1.990 . S
N673 C672 1.314 . S
N673 C676 1.279 . S
C674 C672 1.353 . S
C674 C677 1.348 . S
C674 H722 0.929 . S
C675 C676 1.358 . S
C675 C677 1.356 . S
C675 H723 0.930 . S
C676 N673 1.279 . S
C676 C675 1.358 . S
C676 H679 0.930 . S
C677 C674 1.348 . S
C677 C675 1.356 . S
H678 C672 0.930 . S
H679 C676 0.930 . S
C680 C682 1.348 . S
C680 C683 1.356 . S
C680 O710 1.325 . S
N681 C684 1.314 . S
N681 C685 1.279 . S
C682 C680 1.348 . S
C682 C684 1.353 . S
C682 H724 0.929 . S
C683 C680 1.356 . S
C683 C685 1.358 . S
C683 H725 0.930 . S
C684 N681 1.314 . S
C684 C682 1.353 . S
C684 H726 0.930 . S
C685 N681 1.279 . S
C685 C683 1.358 . S
C685 H727 0.930 . S
C686 C687 1.348 . S
C686 C688 1.356 . S
C686 O711 1.325 . S
C687 C686 1.348 . S
C687 C689 1.353 . S
C687 H728 0.929 . S
C688 C686 1.356 . S
C688 C690 1.358 . S
C688 H729 0.930 . S
C689 C687 1.353 . S
C689 N691 1.314 . S
C689 H730 0.930 . S
C690 C688 1.358 . S
C690 N691 1.279 . S
C690 H731 0.930 . S
N691 C689 1.314 . S
N691 C690 1.279 . S
C692 C694 1.353 . S
C692 N695 1.314 . S
C692 H698 0.930 . S
C693 N695 1.279 . S
C693 C696 1.358 . S
C693 H699 0.930 . S
C694 C692 1.353 . S
C694 C697 1.348 . S
C694 H732 0.929 . S
N695 Li650 1.990 . S
N695 C692 1.314 . S
N695 C693 1.279 . S
C696 C693 1.358 . S
C696 C697 1.356 . S
C696 H733 0.930 . S
C697 C694 1.348 . S
C697 C696 1.356 . S
H698 C692 0.930 . S
H699 C693 0.930 . S
C700 N701 1.314 . S
C700 C702 1.353 . S
C700 H706 0.930 . S
N701 Li651 1.990 . S
N701 C700 1.314 . S
N701 C704 1.279 . S
C702 C700 1.353 . S
C702 C705 1.348 . S
C702 H734 0.929 . S
C703 C704 1.358 . S
C703 C705 1.356 . S
C703 H735 0.930 . S
C704 N701 1.279 . S
C704 C703 1.358 . S
C704 H707 0.930 . S
C705 C702 1.348 . S
C705 C703 1.356 . S
H706 C700 0.930 . S
H707 C704 0.930 . S
O708 Li648 1.956 . S
O708 Li649 1.970 . S
O708 Li650 1.961 . S
O708 C652 1.325 . S
O709 Li648 1.970 . S
O709 Li649 1.956 . S
O709 Li651 1.961 . S
O709 C658 1.325 . S
O710 Li648 1.961 . S
O710 Li650 1.956 . S
O710 Li651 1.970 . S
O710 C680 1.325 . S
O711 Li649 1.961 . S
O711 Li650 1.970 . S
O711 Li651 1.956 . S
O711 C686 1.325 . S
H712 C654 0.929 . S
H713 C655 0.930 . S
H714 C656 0.930 . S
H715 C657 0.930 . S
H716 C659 0.930 . S
H717 C661 0.929 . S
H718 C662 0.930 . S
H719 C663 0.930 . S
H720 C666 0.930 . S
H721 C669 0.929 . S
H722 C674 0.929 . S
H723 C675 0.930 . S
H724 C682 0.929 . S
H725 C683 0.930 . S
H726 C684 0.930 . S
H727 C685 0.930 . S
H728 C687 0.929 . S
H729 C688 0.930 . S
H730 C689 0.930 . S
H731 C690 0.930 . S
H732 C694 0.929 . S
H733 C696 0.930 . S
H734 C702 0.929 . S
H735 C703 0.930 . S
Li736 N753 1.990 . S
Li736 O796 1.956 . S
Li736 O797 1.970 . S
Li736 O798 1.961 . S
Li737 N761 1.990 . S
Li737 O796 1.970 . S
Li737 O797 1.956 . S
Li737 O799 1.961 . S
Li738 N783 1.990 . S
Li738 O796 1.961 . S
Li738 O798 1.956 . S
Li738 O799 1.970 . S
Li739 N789 1.990 . S
Li739 O797 1.961 . S
Li739 O798 1.970 . S
Li739 O799 1.956 . S
C740 C742 1.348 . S
C740 C743 1.356 . S
C740 O796 1.325 . S
N741 C744 1.314 . S
N741 C745 1.279 . S
C742 C740 1.348 . S
C742 C744 1.353 . S
C742 H800 0.929 . S
C743 C740 1.356 . S
C743 C745 1.358 . S
C743 H801 0.930 . S
C744 N741 1.314 . S
C744 C742 1.353 . S
C744 H802 0.930 . S
C745 N741 1.279 . S
C745 C743 1.358 . S
C745 H803 0.930 . S
C746 C749 1.348 . S
C746 C750 1.356 . S
C746 O797 1.325 . S
C747 N748 1.279 . S
C747 C750 1.358 . S
C747 H804 0.930 . S
N748 C747 1.279 . S
N748 C751 1.314 . S
C749 C746 1.348 . S
C749 C751 1.353 . S
C749 H805 0.929 . S
C750 C746 1.356 . S
C750 C747 1.358 . S
C750 H806 0.930 . S
C751 N748 1.314 . S
C751 C749 1.353 . S
C751 H807 0.930 . S
C752 N753 1.314 . S
C752 C757 1.353 . S
C752 H758 0.930 . S
N753 Li736 1.990 . S
N753 C752 1.314 . S
N753 C755 1.279 . S
C754 C755 1.358 . S
C754 C756 1.356 . S
C754 H808 0.930 . S
C755 N753 1.279 . S
C755 C754 1.358 . S
C755 H759 0.930 . S
C756 C754 1.356 . S
C756 C757 1.348 . S
C757 C752 1.353 . S
C757 C756 1.348 . S
C757 H809 0.929 . S
H758 C752 0.930 . S
H759 C755 0.930 . S
C760 N761 1.314 . S
C760 C762 1.353 . S
C760 H766 0.930 . S
N761 Li737 1.990 . S
N761 C760 1.314 . S
N761 C764 1.279 . S
C762 C760 1.353 . S
C762 C765 1.348 . S
C762 H810 0.929 . S
C763 C764 1.358 . S
C763 C765 1.356 . S
C763 H811 0.930 . S
C764 N761 1.279 . S
C764 C763 1.358 . S
C764 H767 0.930 . S
C765 C762 1.348 . S
C765 C763 1.356 . S
H766 C760 0.930 . S
H767 C764 0.930 . S
C768 C770 1.348 . S
C768 C771 1.356 . S
C768 O798 1.325 . S
N769 C772 1.314 . S
N769 C773 1.279 . S
C770 C768 1.348 . S
C770 C772 1.353 . S
C770 H812 0.929 . S
C771 C768 1.356 . S
C771 C773 1.358 . S
C771 H813 0.930 . S
C772 N769 1.314 . S
C772 C770 1.353 . S
C772 H814 0.930 . S
C773 N769 1.279 . S
C773 C771 1.358 . S
C773 H815 0.930 . S
C774 C775 1.348 . S
C774 C776 1.356 . S
C774 O799 1.325 . S
C775 C774 1.348 . S
C775 C777 1.353 . S
C775 H816 0.929 . S
C776 C774 1.356 . S
C776 C778 1.358 . S
C776 H817 0.930 . S
C777 C775 1.353 . S
C777 N779 1.314 . S
C777 H818 0.930 . S
C778 C776 1.358 . S
C778 N779 1.279 . S
C778 H819 0.930 . S
N779 C777 1.314 . S
N779 C778 1.279 . S
C780 C782 1.353 . S
C780 N783 1.314 . S
C780 H786 0.930 . S
C781 N783 1.279 . S
C781 C784 1.358 . S
C781 H787 0.930 . S
C782 C780 1.353 . S
C782 C785 1.348 . S
C782 H820 0.929 . S
N783 Li738 1.990 . S
N783 C780 1.314 . S
N783 C781 1.279 . S
C784 C781 1.358 . S
C784 C785 1.356 . S
C784 H821 0.930 . S
C785 C782 1.348 . S
C785 C784 1.356 . S
H786 C780 0.930 . S
H787 C781 0.930 . S
C788 N789 1.314 . S
C788 C790 1.353 . S
C788 H794 0.930 . S
N789 Li739 1.990 . S
N789 C788 1.314 . S
N789 C792 1.279 . S
C790 C788 1.353 . S
C790 C793 1.348 . S
C790 H822 0.929 . S
C791 C792 1.358 . S
C791 C793 1.356 . S
C791 H823 0.930 . S
C792 N789 1.279 . S
C792 C791 1.358 . S
C792 H795 0.930 . S
C793 C790 1.348 . S
C793 C791 1.356 . S
H794 C788 0.930 . S
H795 C792 0.930 . S
O796 Li736 1.956 . S
O796 Li737 1.970 . S
O796 Li738 1.961 . S
O796 C740 1.325 . S
O797 Li736 1.970 . S
O797 Li737 1.956 . S
O797 Li739 1.961 . S
O797 C746 1.325 . S
O798 Li736 1.961 . S
O798 Li738 1.956 . S
O798 Li739 1.970 . S
O798 C768 1.325 . S
O799 Li737 1.961 . S
O799 Li738 1.970 . S
O799 Li739 1.956 . S
O799 C774 1.325 . S
H800 C742 0.929 . S
H801 C743 0.930 . S
H802 C744 0.930 . S
H803 C745 0.930 . S
H804 C747 0.930 . S
H805 C749 0.929 . S
H806 C750 0.930 . S
H807 C751 0.930 . S
H808 C754 0.930 . S
H809 C757 0.929 . S
H810 C762 0.929 . S
H811 C763 0.930 . S
H812 C770 0.929 . S
H813 C771 0.930 . S
H814 C772 0.930 . S
H815 C773 0.930 . S
H816 C775 0.929 . S
H817 C776 0.930 . S
H818 C777 0.930 . S
H819 C778 0.930 . S
H820 C782 0.929 . S
H821 C784 0.930 . S
H822 C790 0.929 . S
H823 C791 0.930 . S
Li824 N841 1.990 . S
Li824 O884 1.956 . S
Li824 O885 1.970 1_565 S
Li824 O886 1.961 1_565 S
Li825 N849 1.990 . S
Li825 O884 1.970 1_545 S
Li825 O885 1.956 . S
Li825 O887 1.961 . S
Li826 N871 1.990 1_545 S
Li826 O884 1.961 1_545 S
Li826 O886 1.956 . S
Li826 O887 1.970 . S
Li827 N877 1.990 . S
Li827 O885 1.961 . S
Li827 O886 1.970 . S
Li827 O887 1.956 . S
C828 C830 1.348 . S
C828 C831 1.356 . S
C828 O884 1.325 . S
N829 C832 1.314 . S
N829 C833 1.279 . S
C830 C828 1.348 . S
C830 C832 1.353 . S
C830 H888 0.929 . S
C831 C828 1.356 . S
C831 C833 1.358 . S
C831 H889 0.930 . S
C832 N829 1.314 . S
C832 C830 1.353 . S
C832 H890 0.930 . S
C833 N829 1.279 . S
C833 C831 1.358 . S
C833 H891 0.930 . S
C834 C837 1.348 . S
C834 C838 1.356 . S
C834 O885 1.325 . S
C835 N836 1.279 . S
C835 C838 1.358 . S
C835 H892 0.930 . S
N836 C835 1.279 . S
N836 C839 1.314 . S
C837 C834 1.348 . S
C837 C839 1.353 . S
C837 H893 0.929 1_545 S
C838 C834 1.356 . S
C838 C835 1.358 . S
C838 H894 0.930 . S
C839 N836 1.314 . S
C839 C837 1.353 . S
C839 H895 0.930 . S
C840 N841 1.314 . S
C840 C845 1.353 . S
C840 H846 0.930 . S
N841 Li824 1.990 . S
N841 C840 1.314 . S
N841 C843 1.279 . S
C842 C843 1.358 . S
C842 C844 1.356 . S
C842 H896 0.930 . S
C843 N841 1.279 . S
C843 C842 1.358 . S
C843 H847 0.930 . S
C844 C842 1.356 . S
C844 C845 1.348 . S
C845 C840 1.353 . S
C845 C844 1.348 . S
C845 H897 0.929 . S
H846 C840 0.930 . S
H847 C843 0.930 . S
C848 N849 1.314 . S
C848 C850 1.353 . S
C848 H854 0.930 . S
N849 Li825 1.990 . S
N849 C848 1.314 . S
N849 C852 1.279 . S
C850 C848 1.353 . S
C850 C853 1.348 . S
C850 H898 0.929 . S
C851 C852 1.358 . S
C851 C853 1.356 . S
C851 H899 0.930 . S
C852 N849 1.279 . S
C852 C851 1.358 . S
C852 H855 0.930 . S
C853 C850 1.348 . S
C853 C851 1.356 . S
H854 C848 0.930 . S
H855 C852 0.930 . S
C856 C858 1.348 . S
C856 C859 1.356 1_545 S
C856 O886 1.325 . S
N857 C860 1.314 1_565 S
N857 C861 1.279 . S
C858 C856 1.348 . S
C858 C860 1.353 . S
C858 H900 0.929 . S
C859 C856 1.356 1_565 S
C859 C861 1.358 . S
C859 H901 0.930 . S
C860 N857 1.314 1_545 S
C860 C858 1.353 . S
C860 H902 0.930 . S
C861 N857 1.279 . S
C861 C859 1.358 . S
C861 H903 0.930 . S
C862 C863 1.348 . S
C862 C864 1.356 . S
C862 O887 1.325 . S
C863 C862 1.348 . S
C863 C865 1.353 . S
C863 H904 0.929 . S
C864 C862 1.356 . S
C864 C866 1.358 . S
C864 H905 0.930 . S
C865 C863 1.353 . S
C865 N867 1.314 . S
C865 H906 0.930 . S
C866 C864 1.358 . S
C866 N867 1.279 . S
C866 H907 0.930 . S
N867 C865 1.314 . S
N867 C866 1.279 . S
C868 C870 1.353 . S
C868 N871 1.314 . S
C868 H874 0.930 . S
C869 N871 1.279 . S
C869 C872 1.358 . S
C869 H875 0.925 1_565 S
C870 C868 1.353 . S
C870 C873 1.348 . S
C870 H908 0.929 . S
N871 Li826 1.990 1_565 S
N871 C868 1.314 . S
N871 C869 1.279 . S
C872 C869 1.358 . S
C872 C873 1.356 . S
C872 H909 0.930 . S
C873 C870 1.348 . S
C873 C872 1.356 . S
H874 C868 0.930 . S
H875 C869 0.925 1_545 S
C876 N877 1.314 . S
C876 C878 1.353 . S
C876 H882 0.930 . S
N877 Li827 1.990 . S
N877 C876 1.314 . S
N877 C880 1.279 . S
C878 C876 1.353 . S
C878 C881 1.348 . S
C878 H910 0.929 . S
C879 C880 1.358 . S
C879 C881 1.356 . S
C879 H911 0.930 . S
C880 N877 1.279 . S
C880 C879 1.358 . S
C880 H883 0.930 . S
C881 C878 1.348 . S
C881 C879 1.356 . S
H882 C876 0.930 . S
H883 C880 0.930 . S
O884 Li824 1.956 . S
O884 Li825 1.970 1_565 S
O884 Li826 1.961 1_565 S
O884 C828 1.325 . S
O885 Li824 1.970 1_545 S
O885 Li825 1.956 . S
O885 Li827 1.961 . S
O885 C834 1.325 . S
O886 Li824 1.961 1_545 S
O886 Li826 1.956 . S
O886 Li827 1.970 . S
O886 C856 1.325 . S
O887 Li825 1.961 . S
O887 Li826 1.970 . S
O887 Li827 1.956 . S
O887 C862 1.325 . S
H888 C830 0.929 . S
H889 C831 0.930 . S
H890 C832 0.930 . S
H891 C833 0.930 . S
H892 C835 0.930 . S
H893 C837 0.929 1_565 S
H894 C838 0.930 . S
H895 C839 0.930 . S
H896 C842 0.930 . S
H897 C845 0.929 . S
H898 C850 0.929 . S
H899 C851 0.930 . S
H900 C858 0.929 . S
H901 C859 0.930 . S
H902 C860 0.930 . S
H903 C861 0.930 . S
H904 C863 0.929 . S
H905 C864 0.930 . S
H906 C865 0.930 . S
H907 C866 0.930 . S
H908 C870 0.929 . S
H909 C872 0.930 . S
H910 C878 0.929 . S
H911 C879 0.930 . S
Li912 N929 1.990 . S
Li912 O972 1.956 . S
Li912 O973 1.970 . S
Li912 O974 1.961 . S
Li913 N937 1.991 . S
Li913 O972 1.969 1_655 S
Li913 O973 1.956 1_655 S
Li913 O975 1.962 . S
Li914 N959 1.990 . S
Li914 O972 1.961 . S
Li914 O974 1.956 . S
Li914 O975 1.970 1_455 S
Li915 N965 1.990 . S
Li915 O973 1.961 1_655 S
Li915 O974 1.970 1_655 S
Li915 O975 1.956 . S
C916 C918 1.348 . S
C916 C919 1.356 . S
C916 O972 1.325 . S
N917 C920 1.314 . S
N917 C921 1.279 . S
C918 C916 1.348 . S
C918 C920 1.353 . S
C918 H976 0.929 . S
C919 C916 1.356 . S
C919 C921 1.358 . S
C919 H977 0.930 . S
C920 N917 1.314 . S
C920 C918 1.353 . S
C920 H978 0.930 . S
C921 N917 1.279 . S
C921 C919 1.358 . S
C921 H979 0.930 . S
C922 C925 1.348 . S
C922 C926 1.356 1_455 S
C922 O973 1.325 . S
C923 N924 1.279 . S
C923 C926 1.358 . S
C923 H980 0.930 . S
N924 C923 1.279 . S
N924 C927 1.314 1_655 S
C925 C922 1.348 . S
C925 C927 1.353 . S
C925 H981 0.929 . S
C926 C922 1.356 1_655 S
C926 C923 1.358 . S
C926 H982 0.930 . S
C927 N924 1.314 1_455 S
C927 C925 1.353 . S
C927 H983 0.930 . S
C928 N929 1.314 . S
C928 C933 1.353 . S
C928 H934 0.930 . S
N929 Li912 1.990 . S
N929 C928 1.314 . S
N929 C931 1.279 . S
C930 C931 1.358 . S
C930 C932 1.356 . S
C930 H984 0.930 . S
C931 N929 1.279 . S
C931 C930 1.358 . S
C931 H935 0.930 . S
C932 C930 1.356 . S
C932 C933 1.348 . S
C933 C928 1.353 . S
C933 C932 1.348 . S
C933 H985 0.929 . S
H934 C928 0.930 . S
H935 C931 0.930 . S
C936 N937 1.314 . S
C936 C938 1.353 . S
C936 H942 0.930 . S
N937 Li913 1.991 . S
N937 C936 1.314 . S
N937 C940 1.279 . S
C938 C936 1.353 . S
C938 C941 1.348 . S
C938 H986 0.929 1_556 S
C939 C940 1.358 . S
C939 C941 1.356 . S
C939 H987 0.930 1_655 S
C940 N937 1.279 . S
C940 C939 1.358 . S
C940 H943 0.931 1_655 S
C941 C938 1.348 . S
C941 C939 1.356 . S
H942 C936 0.930 . S
H943 C940 0.931 1_455 S
C944 C946 1.348 1_455 S
C944 C947 1.356 . S
C944 O974 1.325 . S
N945 C948 1.314 1_455 S
N945 C949 1.279 . S
C946 C944 1.348 1_655 S
C946 C948 1.353 . S
C946 H988 0.929 . S
C947 C944 1.356 . S
C947 C949 1.358 . S
C947 H989 0.930 . S
C948 N945 1.314 1_655 S
C948 C946 1.353 . S
C948 H990 0.930 . S
C949 N945 1.279 . S
C949 C947 1.358 . S
C949 H991 0.930 . S
C950 C951 1.348 . S
C950 C952 1.356 . S
C950 O975 1.325 . S
C951 C950 1.348 . S
C951 C953 1.353 . S
C951 H992 0.929 . S
C952 C950 1.356 . S
C952 C954 1.358 . S
C952 H993 0.930 . S
C953 C951 1.353 . S
C953 N955 1.314 . S
C953 H994 0.930 . S
C954 C952 1.358 . S
C954 N955 1.279 . S
C954 H995 0.930 . S
N955 C953 1.314 . S
N955 C954 1.279 . S
C956 C958 1.353 . S
C956 N959 1.314 . S
C956 H962 0.930 . S
C957 N959 1.279 . S
C957 C960 1.358 . S
C957 H963 0.926 1_455 S
C958 C956 1.353 . S
C958 C961 1.348 . S
C958 H996 0.929 1_556 S
N959 Li914 1.990 . S
N959 C956 1.314 . S
N959 C957 1.279 . S
C960 C957 1.358 . S
C960 C961 1.356 . S
C960 H997 0.931 . S
C961 C958 1.348 . S
C961 C960 1.356 . S
H962 C956 0.930 . S
H963 C957 0.926 1_655 S
C964 N965 1.314 . S
C964 C966 1.353 . S
C964 H970 0.930 . S
N965 Li915 1.990 . S
N965 C964 1.314 . S
N965 C968 1.279 . S
C966 C964 1.353 . S
C966 C969 1.348 . S
C966 H998 0.929 . S
C967 C968 1.358 . S
C967 C969 1.356 . S
C967 H999 0.930 . S
C968 N965 1.279 . S
C968 C967 1.358 . S
C968 H971 0.930 . S
C969 C966 1.348 . S
C969 C967 1.356 . S
H970 C964 0.930 . S
H971 C968 0.930 . S
O972 Li912 1.956 . S
O972 Li913 1.969 1_455 S
O972 Li914 1.961 . S
O972 C916 1.325 . S
O973 Li912 1.970 . S
O973 Li913 1.956 1_455 S
O973 Li915 1.961 1_455 S
O973 C922 1.325 . S
O974 Li912 1.961 . S
O974 Li914 1.956 . S
O974 Li915 1.970 1_455 S
O974 C944 1.325 . S
O975 Li913 1.962 . S
O975 Li914 1.970 1_655 S
O975 Li915 1.956 . S
O975 C950 1.325 . S
H976 C918 0.929 . S
H977 C919 0.930 . S
H978 C920 0.930 . S
H979 C921 0.930 . S
H980 C923 0.930 . S
H981 C925 0.929 . S
H982 C926 0.930 . S
H983 C927 0.930 . S
H984 C930 0.930 . S
H985 C933 0.929 . S
H986 C938 0.929 1_554 S
H987 C939 0.930 1_455 S
H988 C946 0.929 . S
H989 C947 0.930 . S
H990 C948 0.930 . S
H991 C949 0.930 . S
H992 C951 0.929 . S
H993 C952 0.930 . S
H994 C953 0.930 . S
H995 C954 0.930 . S
H996 C958 0.929 1_554 S
H997 C960 0.931 . S
H998 C966 0.929 . S
H999 C967 0.930 . S
Li1000 N1017 1.990 . S
Li1000 O1060 1.956 . S
Li1000 O1061 1.970 . S
Li1000 O1062 1.961 . S
Li1001 N1025 1.990 . S
Li1001 O1060 1.970 . S
Li1001 O1061 1.956 . S
Li1001 O1063 1.961 . S
Li1002 N1047 1.990 . S
Li1002 O1060 1.961 . S
Li1002 O1062 1.956 . S
Li1002 O1063 1.970 . S
Li1003 N1053 1.990 . S
Li1003 O1061 1.961 . S
Li1003 O1062 1.970 . S
Li1003 O1063 1.956 . S
C1004 C1006 1.348 . S
C1004 C1007 1.356 . S
C1004 O1060 1.325 . S
N1005 C1008 1.314 . S
N1005 C1009 1.279 . S
C1006 C1004 1.348 . S
C1006 C1008 1.353 . S
C1006 H1064 0.929 . S
C1007 C1004 1.356 . S
C1007 C1009 1.358 . S
C1007 H1065 0.930 . S
C1008 N1005 1.314 . S
C1008 C1006 1.353 . S
C1008 H1066 0.930 . S
C1009 N1005 1.279 . S
C1009 C1007 1.358 . S
C1009 H1067 0.930 . S
C1010 C1013 1.348 . S
C1010 C1014 1.356 . S
C1010 O1061 1.325 . S
C1011 N1012 1.279 . S
C1011 C1014 1.358 . S
C1011 H1068 0.930 . S
N1012 C1011 1.279 . S
N1012 C1015 1.314 . S
C1013 C1010 1.348 . S
C1013 C1015 1.353 . S
C1013 H1069 0.929 . S
C1014 C1010 1.356 . S
C1014 C1011 1.358 . S
C1014 H1070 0.930 . S
C1015 N1012 1.314 . S
C1015 C1013 1.353 . S
C1015 H1071 0.930 . S
C1016 N1017 1.314 . S
C1016 C1021 1.353 . S
C1016 H1022 0.930 . S
N1017 Li1000 1.990 . S
N1017 C1016 1.314 . S
N1017 C1019 1.279 . S
C1018 C1019 1.358 . S
C1018 C1020 1.356 . S
C1018 H1072 0.930 . S
C1019 N1017 1.279 . S
C1019 C1018 1.358 . S
C1019 H1023 0.930 . S
C1020 C1018 1.356 . S
C1020 C1021 1.348 . S
C1021 C1016 1.353 . S
C1021 C1020 1.348 . S
C1021 H1073 0.929 . S
H1022 C1016 0.930 . S
H1023 C1019 0.930 . S
C1024 N1025 1.314 . S
C1024 C1026 1.353 . S
C1024 H1030 0.930 . S
N1025 Li1001 1.990 . S
N1025 C1024 1.314 . S
N1025 C1028 1.279 . S
C1026 C1024 1.353 . S
C1026 C1029 1.348 . S
C1026 H1074 0.929 . S
C1027 C1028 1.358 . S
C1027 C1029 1.356 . S
C1027 H1075 0.930 . S
C1028 N1025 1.279 . S
C1028 C1027 1.358 . S
C1028 H1031 0.930 . S
C1029 C1026 1.348 . S
C1029 C1027 1.356 . S
H1030 C1024 0.930 . S
H1031 C1028 0.930 . S
C1032 C1034 1.348 . S
C1032 C1035 1.356 . S
C1032 O1062 1.325 . S
N1033 C1036 1.314 . S
N1033 C1037 1.279 . S
C1034 C1032 1.348 . S
C1034 C1036 1.353 . S
C1034 H1076 0.929 . S
C1035 C1032 1.356 . S
C1035 C1037 1.358 . S
C1035 H1077 0.930 . S
C1036 N1033 1.314 . S
C1036 C1034 1.353 . S
C1036 H1078 0.930 . S
C1037 N1033 1.279 . S
C1037 C1035 1.358 . S
C1037 H1079 0.930 . S
C1038 C1039 1.348 . S
C1038 C1040 1.356 . S
C1038 O1063 1.325 . S
C1039 C1038 1.348 . S
C1039 C1041 1.353 . S
C1039 H1080 0.929 . S
C1040 C1038 1.356 . S
C1040 C1042 1.358 . S
C1040 H1081 0.930 . S
C1041 C1039 1.353 . S
C1041 N1043 1.314 . S
C1041 H1082 0.930 . S
C1042 C1040 1.358 . S
C1042 N1043 1.279 . S
C1042 H1083 0.930 . S
N1043 C1041 1.314 . S
N1043 C1042 1.279 . S
C1044 C1046 1.353 . S
C1044 N1047 1.314 . S
C1044 H1050 0.930 . S
C1045 N1047 1.279 . S
C1045 C1048 1.358 . S
C1045 H1051 0.930 . S
C1046 C1044 1.353 . S
C1046 C1049 1.348 . S
C1046 H1084 0.929 . S
N1047 Li1002 1.990 . S
N1047 C1044 1.314 . S
N1047 C1045 1.279 . S
C1048 C1045 1.358 . S
C1048 C1049 1.356 . S
C1048 H1085 0.930 . S
C1049 C1046 1.348 . S
C1049 C1048 1.356 . S
H1050 C1044 0.930 . S
H1051 C1045 0.930 . S
C1052 N1053 1.314 . S
C1052 C1054 1.353 . S
C1052 H1058 0.930 . S
N1053 Li1003 1.990 . S
N1053 C1052 1.314 . S
N1053 C1056 1.279 . S
C1054 C1052 1.353 . S
C1054 C1057 1.348 . S
C1054 H1086 0.929 . S
C1055 C1056 1.358 . S
C1055 C1057 1.356 . S
C1055 H1087 0.930 . S
C1056 N1053 1.279 . S
C1056 C1055 1.358 . S
C1056 H1059 0.930 . S
C1057 C1054 1.348 . S
C1057 C1055 1.356 . S
H1058 C1052 0.930 . S
H1059 C1056 0.930 . S
O1060 Li1000 1.956 . S
O1060 Li1001 1.970 . S
O1060 Li1002 1.961 . S
O1060 C1004 1.325 . S
O1061 Li1000 1.970 . S
O1061 Li1001 1.956 . S
O1061 Li1003 1.961 . S
O1061 C1010 1.325 . S
O1062 Li1000 1.961 . S
O1062 Li1002 1.956 . S
O1062 Li1003 1.970 . S
O1062 C1032 1.325 . S
O1063 Li1001 1.961 . S
O1063 Li1002 1.970 . S
O1063 Li1003 1.956 . S
O1063 C1038 1.325 . S
H1064 C1006 0.929 . S
H1065 C1007 0.930 . S
H1066 C1008 0.930 . S
H1067 C1009 0.930 . S
H1068 C1011 0.930 . S
H1069 C1013 0.929 . S
H1070 C1014 0.930 . S
H1071 C1015 0.930 . S
H1072 C1018 0.930 . S
H1073 C1021 0.929 . S
H1074 C1026 0.929 . S
H1075 C1027 0.930 . S
H1076 C1034 0.929 . S
H1077 C1035 0.930 . S
H1078 C1036 0.930 . S
H1079 C1037 0.930 . S
H1080 C1039 0.929 . S
H1081 C1040 0.930 . S
H1082 C1041 0.930 . S
H1083 C1042 0.930 . S
H1084 C1046 0.929 . S
H1085 C1048 0.930 . S
H1086 C1054 0.929 . S
H1087 C1055 0.930 . S
Li1088 N1105 1.990 . S
Li1088 O1148 1.956 . S
Li1088 O1149 1.970 1_455 S
Li1088 O1150 1.961 . S
Li1089 N1113 1.990 . S
Li1089 O1148 1.970 1_655 S
Li1089 O1149 1.956 . S
Li1089 O1151 1.961 1_655 S
Li1090 N1135 1.990 . S
Li1090 O1148 1.961 . S
Li1090 O1150 1.956 . S
Li1090 O1151 1.970 . S
Li1091 N1141 1.990 . S
Li1091 O1149 1.961 1_455 S
Li1091 O1150 1.970 . S
Li1091 O1151 1.956 . S
C1092 C1094 1.348 . S
C1092 C1095 1.356 . S
C1092 O1148 1.325 . S
N1093 C1096 1.314 . S
N1093 C1097 1.279 . S
C1094 C1092 1.348 . S
C1094 C1096 1.353 . S
C1094 H1152 0.929 1_455 S
C1095 C1092 1.356 . S
C1095 C1097 1.358 . S
C1095 H1153 0.930 . S
C1096 N1093 1.314 . S
C1096 C1094 1.353 . S
C1096 H1154 0.930 . S
C1097 N1093 1.279 . S
C1097 C1095 1.358 . S
C1097 H1155 0.930 . S
C1098 C1101 1.348 . S
C1098 C1102 1.356 . S
C1098 O1149 1.325 . S
C1099 N1100 1.279 . S
C1099 C1102 1.358 . S
C1099 H1156 0.930 . S
N1100 C1099 1.279 . S
N1100 C1103 1.314 . S
C1101 C1098 1.348 . S
C1101 C1103 1.353 . S
C1101 H1157 0.929 . S
C1102 C1098 1.356 . S
C1102 C1099 1.358 . S
C1102 H1158 0.930 . S
C1103 N1100 1.314 . S
C1103 C1101 1.353 . S
C1103 H1159 0.930 . S
C1104 N1105 1.314 . S
C1104 C1109 1.353 . S
C1104 H1110 0.930 . S
N1105 Li1088 1.990 . S
N1105 C1104 1.314 . S
N1105 C1107 1.279 . S
C1106 C1107 1.358 . S
C1106 C1108 1.356 . S
C1106 H1160 0.930 . S
C1107 N1105 1.279 . S
C1107 C1106 1.358 . S
C1107 H1111 0.930 . S
C1108 C1106 1.356 . S
C1108 C1109 1.348 . S
C1109 C1104 1.353 . S
C1109 C1108 1.348 . S
C1109 H1161 0.929 . S
H1110 C1104 0.930 . S
H1111 C1107 0.930 . S
C1112 N1113 1.314 . S
C1112 C1114 1.353 . S
C1112 H1118 0.930 . S
N1113 Li1089 1.990 . S
N1113 C1112 1.314 . S
N1113 C1116 1.279 . S
C1114 C1112 1.353 . S
C1114 C1117 1.348 . S
C1114 H1162 0.929 . S
C1115 C1116 1.358 . S
C1115 C1117 1.356 . S
C1115 H1163 0.930 . S
C1116 N1113 1.279 . S
C1116 C1115 1.358 . S
C1116 H1119 0.930 . S
C1117 C1114 1.348 . S
C1117 C1115 1.356 . S
H1118 C1112 0.930 . S
H1119 C1116 0.930 . S
C1120 C1122 1.348 . S
C1120 C1123 1.356 . S
C1120 O1150 1.325 . S
N1121 C1124 1.314 . S
N1121 C1125 1.279 . S
C1122 C1120 1.348 . S
C1122 C1124 1.353 . S
C1122 H1164 0.929 . S
C1123 C1120 1.356 . S
C1123 C1125 1.358 . S
C1123 H1165 0.930 . S
C1124 N1121 1.314 . S
C1124 C1122 1.353 . S
C1124 H1166 0.930 . S
C1125 N1121 1.279 . S
C1125 C1123 1.358 . S
C1125 H1167 0.930 . S
C1126 C1127 1.348 . S
C1126 C1128 1.356 1_455 S
C1126 O1151 1.325 . S
C1127 C1126 1.348 . S
C1127 C1129 1.353 . S
C1127 H1168 0.929 . S
C1128 C1126 1.356 1_655 S
C1128 C1130 1.358 . S
C1128 H1169 0.930 . S
C1129 C1127 1.353 . S
C1129 N1131 1.339 . S
C1129 H1170 0.930 . S
C1130 C1128 1.358 . S
C1130 N1131 1.258 1_655 S
C1130 H1171 0.930 . S
N1131 C1129 1.339 . S
N1131 C1130 1.258 1_455 S
C1132 C1134 1.353 . S
C1132 N1135 1.314 . S
C1132 H1138 0.930 . S
C1133 N1135 1.279 . S
C1133 C1136 1.358 . S
C1133 H1139 0.930 . S
C1134 C1132 1.353 . S
C1134 C1137 1.348 . S
C1134 H1172 0.929 . S
N1135 Li1090 1.990 . S
N1135 C1132 1.314 . S
N1135 C1133 1.279 . S
C1136 C1133 1.358 . S
C1136 C1137 1.356 . S
C1136 H1173 0.930 . S
C1137 C1134 1.348 . S
C1137 C1136 1.356 . S
H1138 C1132 0.930 . S
H1139 C1133 0.930 . S
C1140 N1141 1.314 1_655 S
C1140 C1142 1.353 . S
C1140 H1146 0.930 . S
N1141 Li1091 1.990 . S
N1141 C1140 1.314 1_455 S
N1141 C1144 1.279 . S
C1142 C1140 1.353 . S
C1142 C1145 1.348 . S
C1142 H1174 0.929 . S
C1143 C1144 1.362 . S
C1143 C1145 1.351 1_455 S
C1143 H1175 0.932 . S
C1144 N1141 1.279 . S
C1144 C1143 1.362 . S
C1144 H1147 0.930 . S
C1145 C1142 1.348 . S
C1145 C1143 1.351 1_655 S
H1146 C1140 0.930 . S
H1147 C1144 0.930 . S
O1148 Li1088 1.956 . S
O1148 Li1089 1.970 1_455 S
O1148 Li1090 1.961 . S
O1148 C1092 1.325 . S
O1149 Li1088 1.970 1_655 S
O1149 Li1089 1.956 . S
O1149 Li1091 1.961 1_655 S
O1149 C1098 1.325 . S
O1150 Li1088 1.961 . S
O1150 Li1090 1.956 . S
O1150 Li1091 1.970 . S
O1150 C1120 1.325 . S
O1151 Li1089 1.961 1_455 S
O1151 Li1090 1.970 . S
O1151 Li1091 1.956 . S
O1151 C1126 1.325 . S
H1152 C1094 0.929 1_655 S
H1153 C1095 0.930 . S
H1154 C1096 0.930 . S
H1155 C1097 0.930 . S
H1156 C1099 0.930 . S
H1157 C1101 0.929 . S
H1158 C1102 0.930 . S
H1159 C1103 0.930 . S
H1160 C1106 0.930 . S
H1161 C1109 0.929 . S
H1162 C1114 0.929 . S
H1163 C1115 0.930 . S
H1164 C1122 0.929 . S
H1165 C1123 0.930 . S
H1166 C1124 0.930 . S
H1167 C1125 0.930 . S
H1168 C1127 0.929 . S
H1169 C1128 0.930 . S
H1170 C1129 0.930 . S
H1171 C1130 0.930 . S
H1172 C1134 0.929 . S
H1173 C1136 0.930 . S
H1174 C1142 0.929 . S
H1175 C1143 0.932 . S
Li1176 N1193 1.990 . S
Li1176 O1236 1.956 . S
Li1176 O1237 1.970 . S
Li1176 O1238 1.961 . S
Li1177 N1201 1.990 . S
Li1177 O1236 1.970 . S
Li1177 O1237 1.956 . S
Li1177 O1239 1.961 . S
Li1178 N1223 1.990 . S
Li1178 O1236 1.961 . S
Li1178 O1238 1.956 . S
Li1178 O1239 1.970 . S
Li1179 N1229 1.990 . S
Li1179 O1237 1.961 . S
Li1179 O1238 1.970 . S
Li1179 O1239 1.956 . S
C1180 C1182 1.348 . S
C1180 C1183 1.356 . S
C1180 O1236 1.325 . S
N1181 C1184 1.314 . S
N1181 C1185 1.279 . S
C1182 C1180 1.348 . S
C1182 C1184 1.353 . S
C1182 H1240 0.929 . S
C1183 C1180 1.356 . S
C1183 C1185 1.358 . S
C1183 H1241 0.930 . S
C1184 N1181 1.314 . S
C1184 C1182 1.353 . S
C1184 H1242 0.930 . S
C1185 N1181 1.279 . S
C1185 C1183 1.358 . S
C1185 H1243 0.930 . S
C1186 C1189 1.348 . S
C1186 C1190 1.356 . S
C1186 O1237 1.325 . S
C1187 N1188 1.279 . S
C1187 C1190 1.358 . S
C1187 H1244 0.930 . S
N1188 C1187 1.279 . S
N1188 C1191 1.314 . S
C1189 C1186 1.348 . S
C1189 C1191 1.353 . S
C1189 H1245 0.929 . S
C1190 C1186 1.356 . S
C1190 C1187 1.358 . S
C1190 H1246 0.930 . S
C1191 N1188 1.314 . S
C1191 C1189 1.353 . S
C1191 H1247 0.930 . S
C1192 N1193 1.314 . S
C1192 C1197 1.353 . S
C1192 H1198 0.930 . S
N1193 Li1176 1.990 . S
N1193 C1192 1.314 . S
N1193 C1195 1.279 . S
C1194 C1195 1.358 . S
C1194 C1196 1.356 . S
C1194 H1248 0.930 . S
C1195 N1193 1.279 . S
C1195 C1194 1.358 . S
C1195 H1199 0.930 . S
C1196 C1194 1.356 . S
C1196 C1197 1.348 . S
C1197 C1192 1.353 . S
C1197 C1196 1.348 . S
C1197 H1249 0.929 . S
H1198 C1192 0.930 . S
H1199 C1195 0.930 . S
C1200 N1201 1.314 . S
C1200 C1202 1.353 . S
C1200 H1206 0.930 . S
N1201 Li1177 1.990 . S
N1201 C1200 1.314 . S
N1201 C1204 1.279 . S
C1202 C1200 1.353 . S
C1202 C1205 1.348 . S
C1202 H1250 0.929 . S
C1203 C1204 1.358 . S
C1203 C1205 1.356 . S
C1203 H1251 0.930 . S
C1204 N1201 1.279 . S
C1204 C1203 1.358 . S
C1204 H1207 0.930 . S
C1205 C1202 1.348 . S
C1205 C1203 1.356 . S
H1206 C1200 0.930 . S
H1207 C1204 0.930 . S
C1208 C1210 1.348 . S
C1208 C1211 1.356 . S
C1208 O1238 1.325 . S
N1209 C1212 1.314 . S
N1209 C1213 1.279 . S
C1210 C1208 1.348 . S
C1210 C1212 1.353 . S
C1210 H1252 0.929 . S
C1211 C1208 1.356 . S
C1211 C1213 1.358 . S
C1211 H1253 0.930 . S
C1212 N1209 1.314 . S
C1212 C1210 1.353 . S
C1212 H1254 0.930 . S
C1213 N1209 1.279 . S
C1213 C1211 1.358 . S
C1213 H1255 0.930 . S
C1214 C1215 1.348 . S
C1214 C1216 1.356 . S
C1214 O1239 1.325 . S
C1215 C1214 1.348 . S
C1215 C1217 1.353 . S
C1215 H1256 0.929 . S
C1216 C1214 1.356 . S
C1216 C1218 1.358 . S
C1216 H1257 0.930 . S
C1217 C1215 1.353 . S
C1217 N1219 1.314 . S
C1217 H1258 0.930 . S
C1218 C1216 1.358 . S
C1218 N1219 1.279 . S
C1218 H1259 0.930 . S
N1219 C1217 1.314 . S
N1219 C1218 1.279 . S
C1220 C1222 1.353 . S
C1220 N1223 1.314 . S
C1220 H1226 0.930 . S
C1221 N1223 1.279 . S
C1221 C1224 1.358 . S
C1221 H1227 0.930 . S
C1222 C1220 1.353 . S
C1222 C1225 1.348 . S
C1222 H1260 0.929 . S
N1223 Li1178 1.990 . S
N1223 C1220 1.314 . S
N1223 C1221 1.279 . S
C1224 C1221 1.358 . S
C1224 C1225 1.356 . S
C1224 H1261 0.930 . S
C1225 C1222 1.348 . S
C1225 C1224 1.356 . S
H1226 C1220 0.930 . S
H1227 C1221 0.930 . S
C1228 N1229 1.314 . S
C1228 C1230 1.353 . S
C1228 H1234 0.930 . S
N1229 Li1179 1.990 . S
N1229 C1228 1.314 . S
N1229 C1232 1.279 . S
C1230 C1228 1.353 . S
C1230 C1233 1.348 . S
C1230 H1262 0.929 . S
C1231 C1232 1.358 . S
C1231 C1233 1.356 . S
C1231 H1263 0.930 . S
C1232 N1229 1.279 . S
C1232 C1231 1.358 . S
C1232 H1235 0.930 . S
C1233 C1230 1.348 . S
C1233 C1231 1.356 . S
H1234 C1228 0.930 . S
H1235 C1232 0.930 . S
O1236 Li1176 1.956 . S
O1236 Li1177 1.970 . S
O1236 Li1178 1.961 . S
O1236 C1180 1.325 . S
O1237 Li1176 1.970 . S
O1237 Li1177 1.956 . S
O1237 Li1179 1.961 . S
O1237 C1186 1.325 . S
O1238 Li1176 1.961 . S
O1238 Li1178 1.956 . S
O1238 Li1179 1.970 . S
O1238 C1208 1.325 . S
O1239 Li1177 1.961 . S
O1239 Li1178 1.970 . S
O1239 Li1179 1.956 . S
O1239 C1214 1.325 . S
H1240 C1182 0.929 . S
H1241 C1183 0.930 . S
H1242 C1184 0.930 . S
H1243 C1185 0.930 . S
H1244 C1187 0.930 . S
H1245 C1189 0.929 . S
H1246 C1190 0.930 . S
H1247 C1191 0.930 . S
H1248 C1194 0.930 . S
H1249 C1197 0.929 . S
H1250 C1202 0.929 . S
H1251 C1203 0.930 . S
H1252 C1210 0.929 . S
H1253 C1211 0.930 . S
H1254 C1212 0.930 . S
H1255 C1213 0.930 . S
H1256 C1215 0.929 . S
H1257 C1216 0.930 . S
H1258 C1217 0.930 . S
H1259 C1218 0.930 . S
H1260 C1222 0.929 . S
H1261 C1224 0.930 . S
H1262 C1230 0.929 . S
H1263 C1231 0.930 . S
C1264 C1265 1.363 . S
C1264 C1270 1.379 . S
C1264 N1272 1.356 . S
C1265 C1264 1.363 . S
C1265 C1271 1.363 . S
C1266 C1267 1.363 . S
C1266 C1271 1.379 . S
C1266 N1273 1.356 . S
C1267 C1266 1.363 . S
C1267 C1270 1.363 . S
N1268 C1270 1.356 . S
N1268 H1280 0.984 . S
N1268 H1281 0.985 . S
N1269 C1271 1.356 . S
N1269 H1274 0.984 . S
N1269 H1275 0.985 . S
C1270 C1264 1.379 . S
C1270 C1267 1.363 . S
C1270 N1268 1.356 . S
C1271 C1265 1.363 . S
C1271 C1266 1.379 . S
C1271 N1269 1.356 . S
N1272 C1264 1.356 . S
N1272 H1278 0.984 . S
N1272 H1279 0.984 . S
N1273 C1266 1.356 . S
N1273 H1276 0.984 . S
N1273 H1277 0.985 . S
H1274 N1269 0.984 . S
H1275 N1269 0.985 . S
H1276 N1273 0.984 . S
H1277 N1273 0.985 . S
H1278 N1272 0.984 . S
H1279 N1272 0.984 . S
H1280 N1268 0.984 . S
H1281 N1268 0.985 . S
C1282 C1283 1.363 1_455 S
C1282 C1288 1.379 . S
C1282 N1290 1.356 . S
C1283 C1282 1.363 1_655 S
C1283 C1289 1.363 . S
C1284 C1285 1.363 . S
C1284 C1289 1.379 1_455 S
C1284 N1291 1.356 . S
C1285 C1284 1.363 . S
C1285 C1288 1.363 . S
N1286 C1288 1.356 . S
N1286 H1298 0.984 . S
N1286 H1299 0.985 . S
N1287 C1289 1.356 . S
N1287 H1292 0.984 . S
N1287 H1293 0.985 . S
C1288 C1282 1.379 . S
C1288 C1285 1.363 . S
C1288 N1286 1.356 . S
C1289 C1283 1.363 . S
C1289 C1284 1.379 1_655 S
C1289 N1287 1.356 . S
N1290 C1282 1.356 . S
N1290 H1296 0.984 . S
N1290 H1297 0.984 1_455 S
N1291 C1284 1.356 . S
N1291 H1294 0.984 . S
N1291 H1295 0.985 . S
H1292 N1287 0.984 . S
H1293 N1287 0.985 . S
H1294 N1291 0.984 . S
H1295 N1291 0.985 . S
H1296 N1290 0.984 . S
H1297 N1290 0.984 1_655 S
H1298 N1286 0.984 . S
H1299 N1286 0.985 . S
C1300 C1301 1.363 . S
C1300 C1306 1.379 . S
C1300 N1308 1.356 . S
C1301 C1300 1.363 . S
C1301 C1307 1.363 . S
C1302 C1303 1.363 . S
C1302 C1307 1.379 . S
C1302 N1309 1.356 . S
C1303 C1302 1.363 . S
C1303 C1306 1.363 . S
N1304 C1306 1.356 . S
N1304 H1316 0.984 . S
N1304 H1317 0.985 . S
N1305 C1307 1.356 . S
N1305 H1310 0.984 . S
N1305 H1311 0.985 . S
C1306 C1300 1.379 . S
C1306 C1303 1.363 . S
C1306 N1304 1.356 . S
C1307 C1301 1.363 . S
C1307 C1302 1.379 . S
C1307 N1305 1.356 . S
N1308 C1300 1.356 . S
N1308 H1314 0.984 . S
N1308 H1315 0.984 . S
N1309 C1302 1.356 . S
N1309 H1312 0.984 . S
N1309 H1313 0.985 . S
H1310 N1305 0.984 . S
H1311 N1305 0.985 . S
H1312 N1309 0.984 . S
H1313 N1309 0.985 . S
H1314 N1308 0.984 . S
H1315 N1308 0.984 . S
H1316 N1304 0.984 . S
H1317 N1304 0.985 . S
C1318 C1319 1.353 1_645 S
C1318 C1324 1.379 . S
C1318 N1326 1.356 . S
C1319 C1318 1.353 1_465 S
C1319 C1325 1.362 1_455 S
C1320 C1321 1.363 1_565 S
C1320 C1325 1.379 . S
C1320 N1327 1.356 . S
C1321 C1320 1.363 1_545 S
C1321 C1324 1.363 . S
N1322 C1324 1.356 . S
N1322 H1334 0.984 . S
N1322 H1335 0.985 . S
N1323 C1325 1.356 1_455 S
N1323 H1328 0.984 . S
N1323 H1329 0.985 . S
C1324 C1318 1.379 . S
C1324 C1321 1.363 . S
C1324 N1322 1.356 . S
C1325 C1319 1.362 1_655 S
C1325 C1320 1.379 . S
C1325 N1323 1.356 1_655 S
N1326 C1318 1.356 . S
N1326 H1332 0.984 . S
N1326 H1333 0.984 1_655 S
N1327 C1320 1.356 . S
N1327 H1330 0.984 . S
N1327 H1331 0.985 . S
H1328 N1323 0.984 . S
H1329 N1323 0.985 . S
H1330 N1327 0.984 . S
H1331 N1327 0.985 . S
H1332 N1326 0.984 . S
H1333 N1326 0.984 1_455 S
H1334 N1322 0.984 . S
H1335 N1322 0.985 . S
C1336 C1337 1.363 . S
C1336 C1342 1.379 . S
C1336 N1344 1.356 . S
C1337 C1336 1.363 . S
C1337 C1343 1.363 . S
C1338 C1339 1.363 . S
C1338 C1343 1.379 . S
C1338 N1345 1.356 . S
C1339 C1338 1.363 . S
C1339 C1342 1.363 . S
N1340 C1342 1.356 . S
N1340 H1352 0.984 . S
N1340 H1353 0.985 . S
N1341 C1343 1.356 . S
N1341 H1346 0.984 . S
N1341 H1347 0.985 . S
C1342 C1336 1.379 . S
C1342 C1339 1.363 . S
C1342 N1340 1.356 . S
C1343 C1337 1.363 . S
C1343 C1338 1.379 . S
C1343 N1341 1.356 . S
N1344 C1336 1.356 . S
N1344 H1350 0.984 . S
N1344 H1351 0.984 . S
N1345 C1338 1.356 . S
N1345 H1348 0.984 . S
N1345 H1349 0.985 . S
H1346 N1341 0.984 . S
H1347 N1341 0.985 . S
H1348 N1345 0.984 . S
H1349 N1345 0.985 . S
H1350 N1344 0.984 . S
H1351 N1344 0.984 . S
H1352 N1340 0.984 . S
H1353 N1340 0.985 . S
C1354 C1355 1.363 . S
C1354 C1360 1.379 . S
C1354 N1362 1.356 . S
C1355 C1354 1.363 . S
C1355 C1361 1.363 . S
C1356 C1357 1.363 . S
C1356 C1361 1.379 . S
C1356 N1363 1.356 . S
C1357 C1356 1.363 . S
C1357 C1360 1.363 . S
N1358 C1360 1.356 . S
N1358 H1370 0.984 . S
N1358 H1371 0.985 . S
N1359 C1361 1.356 . S
N1359 H1364 0.984 . S
N1359 H1365 0.985 . S
C1360 C1354 1.379 . S
C1360 C1357 1.363 . S
C1360 N1358 1.356 . S
C1361 C1355 1.363 . S
C1361 C1356 1.379 . S
C1361 N1359 1.356 . S
N1362 C1354 1.356 . S
N1362 H1368 0.984 . S
N1362 H1369 0.984 . S
N1363 C1356 1.356 . S
N1363 H1366 0.984 . S
N1363 H1367 0.985 . S
H1364 N1359 0.984 . S
H1365 N1359 0.985 . S
H1366 N1363 0.984 . S
H1367 N1363 0.985 . S
H1368 N1362 0.984 . S
H1369 N1362 0.984 . S
H1370 N1358 0.984 . S
H1371 N1358 0.985 . S
C1372 C1373 1.363 . S
C1372 C1378 1.379 . S
C1372 N1380 1.356 . S
C1373 C1372 1.363 . S
C1373 C1379 1.363 . S
C1374 C1375 1.363 . S
C1374 C1379 1.379 . S
C1374 N1381 1.356 . S
C1375 C1374 1.363 . S
C1375 C1378 1.363 . S
N1376 C1378 1.356 . S
N1376 H1388 0.984 . S
N1376 H1389 0.985 . S
N1377 C1379 1.356 . S
N1377 H1382 0.984 . S
N1377 H1383 0.985 . S
C1378 C1372 1.379 . S
C1378 C1375 1.363 . S
C1378 N1376 1.356 . S
C1379 C1373 1.363 . S
C1379 C1374 1.379 . S
C1379 N1377 1.356 . S
N1380 C1372 1.356 . S
N1380 H1386 0.984 . S
N1380 H1387 0.984 . S
N1381 C1374 1.356 . S
N1381 H1384 0.984 . S
N1381 H1385 0.985 . S
H1382 N1377 0.984 . S
H1383 N1377 0.985 . S
H1384 N1381 0.984 . S
H1385 N1381 0.985 . S
H1386 N1380 0.984 . S
H1387 N1380 0.984 . S
H1388 N1376 0.984 . S
H1389 N1376 0.985 . S
C1390 C1391 1.363 . S
C1390 C1396 1.379 . S
C1390 N1398 1.356 1_565 S
C1391 C1390 1.363 . S
C1391 C1397 1.363 . S
C1392 C1393 1.363 . S
C1392 C1397 1.379 . S
C1392 N1399 1.356 . S
C1393 C1392 1.363 . S
C1393 C1396 1.363 . S
N1394 C1396 1.356 1_545 S
N1394 H1406 0.984 . S
N1394 H1407 0.985 . S
N1395 C1397 1.356 . S
N1395 H1400 0.984 . S
N1395 H1401 0.985 . S
C1396 C1390 1.379 . S
C1396 C1393 1.363 . S
C1396 N1394 1.356 1_565 S
C1397 C1391 1.363 . S
C1397 C1392 1.379 . S
C1397 N1395 1.356 . S
N1398 C1390 1.356 1_545 S
N1398 H1404 0.984 . S
N1398 H1405 0.984 1_545 S
N1399 C1392 1.356 . S
N1399 H1402 0.984 . S
N1399 H1403 0.985 . S
H1400 N1395 0.984 . S
H1401 N1395 0.985 . S
H1402 N1399 0.984 . S
H1403 N1399 0.985 . S
H1404 N1398 0.984 . S
H1405 N1398 0.984 1_565 S
H1406 N1394 0.984 . S
H1407 N1394 0.985 . S
C1408 C1409 1.363 . S
C1408 C1414 1.379 . S
C1408 N1416 1.356 . S
C1409 C1408 1.363 . S
C1409 C1415 1.363 . S
C1410 C1411 1.363 . S
C1410 C1415 1.379 . S
C1410 N1417 1.356 . S
C1411 C1410 1.363 . S
C1411 C1414 1.363 . S
N1412 C1414 1.356 . S
N1412 H1424 0.984 . S
N1412 H1425 0.985 . S
N1413 C1415 1.356 . S
N1413 H1418 0.984 . S
N1413 H1419 0.985 . S
C1414 C1408 1.379 . S
C1414 C1411 1.363 . S
C1414 N1412 1.356 . S
C1415 C1409 1.363 . S
C1415 C1410 1.379 . S
C1415 N1413 1.356 . S
N1416 C1408 1.356 . S
N1416 H1422 0.984 . S
N1416 H1423 0.984 . S
N1417 C1410 1.356 . S
N1417 H1420 0.984 . S
N1417 H1421 0.985 . S
H1418 N1413 0.984 . S
H1419 N1413 0.985 . S
H1420 N1417 0.984 . S
H1421 N1417 0.985 . S
H1422 N1416 0.984 . S
H1423 N1416 0.984 . S
H1424 N1412 0.984 . S
H1425 N1412 0.985 . S
C1426 C1427 1.363 . S
C1426 C1432 1.379 . S
C1426 N1434 1.356 . S
C1427 C1426 1.363 . S
C1427 C1433 1.363 . S
C1428 C1429 1.363 . S
C1428 C1433 1.379 . S
C1428 N1435 1.356 . S
C1429 C1428 1.363 . S
C1429 C1432 1.363 . S
N1430 C1432 1.356 . S
N1430 H1442 0.984 . S
N1430 H1443 0.985 . S
N1431 C1433 1.356 . S
N1431 H1436 0.984 . S
N1431 H1437 0.985 . S
C1432 C1426 1.379 . S
C1432 C1429 1.363 . S
C1432 N1430 1.356 . S
C1433 C1427 1.363 . S
C1433 C1428 1.379 . S
C1433 N1431 1.356 . S
N1434 C1426 1.356 . S
N1434 H1440 0.984 . S
N1434 H1441 0.984 . S
N1435 C1428 1.356 . S
N1435 H1438 0.984 . S
N1435 H1439 0.985 . S
H1436 N1431 0.984 . S
H1437 N1431 0.985 . S
H1438 N1435 0.984 . S
H1439 N1435 0.985 . S
H1440 N1434 0.984 . S
H1441 N1434 0.984 . S
H1442 N1430 0.984 . S
H1443 N1430 0.985 . S
C1444 C1445 1.363 . S
C1444 C1450 1.379 . S
C1444 N1452 1.356 . S
C1445 C1444 1.363 . S
C1445 C1451 1.363 . S
C1446 C1447 1.363 . S
C1446 C1451 1.379 . S
C1446 N1453 1.356 . S
C1447 C1446 1.363 . S
C1447 C1450 1.363 . S
N1448 C1450 1.356 . S
N1448 H1460 0.984 . S
N1448 H1461 0.985 . S
N1449 C1451 1.356 . S
N1449 H1454 0.984 . S
N1449 H1455 0.985 . S
C1450 C1444 1.379 . S
C1450 C1447 1.363 . S
C1450 N1448 1.356 . S
C1451 C1445 1.363 . S
C1451 C1446 1.379 . S
C1451 N1449 1.356 . S
N1452 C1444 1.356 . S
N1452 H1458 0.984 . S
N1452 H1459 0.984 . S
N1453 C1446 1.356 . S
N1453 H1456 0.984 . S
N1453 H1457 0.985 . S
H1454 N1449 0.984 . S
H1455 N1449 0.985 . S
H1456 N1453 0.984 . S
H1457 N1453 0.985 . S
H1458 N1452 0.984 . S
H1459 N1452 0.984 . S
H1460 N1448 0.984 . S
H1461 N1448 0.985 . S
C1462 C1463 1.363 . S
C1462 C1468 1.379 . S
C1462 N1470 1.356 . S
C1463 C1462 1.363 . S
C1463 C1469 1.363 . S
C1464 C1465 1.363 . S
C1464 C1469 1.379 . S
C1464 N1471 1.356 . S
C1465 C1464 1.363 . S
C1465 C1468 1.363 . S
N1466 C1468 1.356 . S
N1466 H1478 0.984 . S
N1466 H1479 0.985 . S
N1467 C1469 1.356 . S
N1467 H1472 0.984 . S
N1467 H1473 0.985 . S
C1468 C1462 1.379 . S
C1468 C1465 1.363 . S
C1468 N1466 1.356 . S
C1469 C1463 1.363 . S
C1469 C1464 1.379 . S
C1469 N1467 1.356 . S
N1470 C1462 1.356 . S
N1470 H1476 0.984 . S
N1470 H1477 0.984 . S
N1471 C1464 1.356 . S
N1471 H1474 0.984 . S
N1471 H1475 0.985 . S
H1472 N1467 0.984 . S
H1473 N1467 0.985 . S
H1474 N1471 0.984 . S
H1475 N1471 0.985 . S
H1476 N1470 0.984 . S
H1477 N1470 0.984 . S
H1478 N1466 0.984 . S
H1479 N1466 0.985 . S
C1480 C1481 1.363 . S
C1480 C1486 1.379 . S
C1480 N1488 1.356 . S
C1481 C1480 1.363 . S
C1481 C1487 1.363 . S
C1482 C1483 1.363 . S
C1482 C1487 1.379 . S
C1482 N1489 1.356 . S
C1483 C1482 1.363 . S
C1483 C1486 1.363 . S
N1484 C1486 1.356 . S
N1484 H1496 0.984 . S
N1484 H1497 0.985 . S
N1485 C1487 1.356 . S
N1485 H1490 0.984 . S
N1485 H1491 0.985 . S
C1486 C1480 1.379 . S
C1486 C1483 1.363 . S
C1486 N1484 1.356 . S
C1487 C1481 1.363 . S
C1487 C1482 1.379 . S
C1487 N1485 1.356 . S
N1488 C1480 1.356 . S
N1488 H1494 0.984 . S
N1488 H1495 0.984 . S
N1489 C1482 1.356 . S
N1489 H1492 0.984 . S
N1489 H1493 0.985 . S
H1490 N1485 0.984 . S
H1491 N1485 0.985 . S
H1492 N1489 0.984 . S
H1493 N1489 0.985 . S
H1494 N1488 0.984 . S
H1495 N1488 0.984 . S
H1496 N1484 0.984 . S
H1497 N1484 0.985 . S
C1498 C1499 1.363 . S
C1498 C1504 1.379 . S
C1498 N1506 1.356 . S
C1499 C1498 1.363 . S
C1499 C1505 1.363 . S
C1500 C1501 1.363 . S
C1500 C1505 1.379 . S
C1500 N1507 1.356 . S
C1501 C1500 1.363 . S
C1501 C1504 1.363 . S
N1502 C1504 1.356 . S
N1502 H1514 0.984 . S
N1502 H1515 0.985 . S
N1503 C1505 1.356 . S
N1503 H1508 0.984 . S
N1503 H1509 0.985 1_455 S
C1504 C1498 1.379 . S
C1504 C1501 1.363 . S
C1504 N1502 1.356 . S
C1505 C1499 1.363 . S
C1505 C1500 1.379 . S
C1505 N1503 1.356 . S
N1506 C1498 1.356 . S
N1506 H1512 0.984 . S
N1506 H1513 0.984 . S
N1507 C1500 1.356 . S
N1507 H1510 0.984 . S
N1507 H1511 0.985 1_455 S
H1508 N1503 0.984 . S
H1509 N1503 0.985 1_655 S
H1510 N1507 0.984 . S
H1511 N1507 0.985 1_655 S
H1512 N1506 0.984 . S
H1513 N1506 0.984 . S
H1514 N1502 0.984 . S
H1515 N1502 0.985 . S
C1516 C1517 1.363 . S
C1516 C1522 1.379 . S
C1516 N1524 1.356 . S
C1517 C1516 1.363 . S
C1517 C1523 1.363 . S
C1518 C1519 1.363 . S
C1518 C1523 1.379 . S
C1518 N1525 1.356 . S
C1519 C1518 1.363 . S
C1519 C1522 1.363 . S
N1520 C1522 1.356 . S
N1520 H1532 0.984 . S
N1520 H1533 0.985 . S
N1521 C1523 1.356 . S
N1521 H1526 0.984 . S
N1521 H1527 0.985 . S
C1522 C1516 1.379 . S
C1522 C1519 1.363 . S
C1522 N1520 1.356 . S
C1523 C1517 1.363 . S
C1523 C1518 1.379 . S
C1523 N1521 1.356 . S
N1524 C1516 1.356 . S
N1524 H1530 0.984 . S
N1524 H1531 0.984 . S
N1525 C1518 1.356 . S
N1525 H1528 0.984 . S
N1525 H1529 0.985 . S
H1526 N1521 0.984 . S
H1527 N1521 0.985 . S
H1528 N1525 0.984 . S
H1529 N1525 0.985 . S
H1530 N1524 0.984 . S
H1531 N1524 0.984 . S
H1532 N1520 0.984 . S
H1533 N1520 0.985 . S
C1534 C1535 1.363 . S
C1534 C1540 1.379 . S
C1534 N1542 1.356 . S
C1535 C1534 1.363 . S
C1535 C1541 1.363 . S
C1536 C1537 1.363 . S
C1536 C1541 1.379 . S
C1536 N1543 1.356 1_655 S
C1537 C1536 1.363 . S
C1537 C1540 1.363 . S
N1538 C1540 1.356 . S
N1538 H1550 0.984 . S
N1538 H1551 0.985 . S
N1539 C1541 1.356 . S
N1539 H1544 0.984 . S
N1539 H1545 0.985 . S
C1540 C1534 1.379 . S
C1540 C1537 1.363 . S
C1540 N1538 1.356 . S
C1541 C1535 1.363 . S
C1541 C1536 1.379 . S
C1541 N1539 1.356 . S
N1542 C1534 1.356 . S
N1542 H1548 0.984 . S
N1542 H1549 0.984 . S
N1543 C1536 1.356 1_455 S
N1543 H1546 0.984 . S
N1543 H1547 0.985 . S
H1544 N1539 0.984 . S
H1545 N1539 0.985 . S
H1546 N1543 0.984 . S
H1547 N1543 0.985 . S
H1548 N1542 0.984 . S
H1549 N1542 0.984 . S
H1550 N1538 0.984 . S
H1551 N1538 0.985 . S
C1552 C1553 1.363 . S
C1552 C1558 1.379 . S
C1552 N1560 1.356 . S
C1553 C1552 1.363 . S
C1553 C1559 1.363 . S
C1554 C1555 1.363 . S
C1554 C1559 1.379 . S
C1554 N1561 1.356 . S
C1555 C1554 1.363 . S
C1555 C1558 1.363 . S
N1556 C1558 1.356 . S
N1556 H1568 0.984 . S
N1556 H1569 0.985 . S
N1557 C1559 1.356 . S
N1557 H1562 0.984 . S
N1557 H1563 0.985 . S
C1558 C1552 1.379 . S
C1558 C1555 1.363 . S
C1558 N1556 1.356 . S
C1559 C1553 1.363 . S
C1559 C1554 1.379 . S
C1559 N1557 1.356 . S
N1560 C1552 1.356 . S
N1560 H1566 0.984 . S
N1560 H1567 0.984 . S
N1561 C1554 1.356 . S
N1561 H1564 0.984 . S
N1561 H1565 0.985 . S
H1562 N1557 0.984 . S
H1563 N1557 0.985 . S
H1564 N1561 0.984 . S
H1565 N1561 0.985 . S
H1566 N1560 0.984 . S
H1567 N1560 0.984 . S
H1568 N1556 0.984 . S
H1569 N1556 0.985 . S
C1570 C1571 1.363 . S
C1570 C1576 1.379 . S
C1570 N1578 1.356 . S
C1571 C1570 1.363 . S
C1571 C1577 1.363 . S
C1572 C1573 1.363 . S
C1572 C1577 1.379 . S
C1572 N1579 1.356 . S
C1573 C1572 1.363 . S
C1573 C1576 1.363 . S
N1574 C1576 1.356 . S
N1574 H1586 0.984 . S
N1574 H1587 0.985 . S
N1575 C1577 1.356 . S
N1575 H1580 0.984 . S
N1575 H1581 0.985 . S
C1576 C1570 1.379 . S
C1576 C1573 1.363 . S
C1576 N1574 1.356 . S
C1577 C1571 1.363 . S
C1577 C1572 1.379 . S
C1577 N1575 1.356 . S
N1578 C1570 1.356 . S
N1578 H1584 0.984 . S
N1578 H1585 0.984 . S
N1579 C1572 1.356 . S
N1579 H1582 0.984 . S
N1579 H1583 0.985 . S
H1580 N1575 0.984 . S
H1581 N1575 0.985 . S
H1582 N1579 0.984 . S
H1583 N1579 0.985 . S
H1584 N1578 0.984 . S
H1585 N1578 0.984 . S
H1586 N1574 0.984 . S
H1587 N1574 0.985 . S
C1588 C1589 1.363 1_554 S
C1588 C1594 1.379 1_545 S
C1588 N1596 1.356 . S
C1589 C1588 1.363 1_556 S
C1589 C1595 1.363 . S
C1590 C1591 1.363 . S
C1590 C1595 1.379 1_565 S
C1590 N1597 1.356 . S
C1591 C1590 1.363 . S
C1591 C1594 1.363 1_556 S
N1592 C1594 1.356 . S
N1592 H1604 0.984 . S
N1592 H1605 0.985 . S
N1593 C1595 1.356 . S
N1593 H1598 0.984 . S
N1593 H1599 0.985 . S
C1594 C1588 1.379 1_565 S
C1594 C1591 1.363 1_554 S
C1594 N1592 1.356 . S
C1595 C1589 1.363 . S
C1595 C1590 1.379 1_545 S
C1595 N1593 1.356 . S
N1596 C1588 1.356 . S
N1596 H1602 0.984 . S
N1596 H1603 0.984 . S
N1597 C1590 1.356 . S
N1597 H1600 0.984 . S
N1597 H1601 0.985 . S
H1598 N1593 0.984 . S
H1599 N1593 0.985 . S
H1600 N1597 0.984 . S
H1601 N1597 0.985 . S
H1602 N1596 0.984 . S
H1603 N1596 0.984 . S
H1604 N1592 0.984 . S
H1605 N1592 0.985 . S
C1606 C1607 1.363 . S
C1606 C1612 1.379 . S
C1606 N1614 1.356 . S
C1607 C1606 1.363 . S
C1607 C1613 1.363 . S
C1608 C1609 1.363 . S
C1608 C1613 1.379 . S
C1608 N1615 1.356 . S
C1609 C1608 1.363 . S
C1609 C1612 1.363 . S
N1610 C1612 1.356 . S
N1610 H1622 0.984 . S
N1610 H1623 0.985 . S
N1611 C1613 1.356 . S
N1611 H1616 0.984 . S
N1611 H1617 0.985 . S
C1612 C1606 1.379 . S
C1612 C1609 1.363 . S
C1612 N1610 1.356 . S
C1613 C1607 1.363 . S
C1613 C1608 1.379 . S
C1613 N1611 1.356 . S
N1614 C1606 1.356 . S
N1614 H1620 0.984 . S
N1614 H1621 0.984 . S
N1615 C1608 1.356 . S
N1615 H1618 0.984 . S
N1615 H1619 0.985 . S
H1616 N1611 0.984 . S
H1617 N1611 0.985 . S
H1618 N1615 0.984 . S
H1619 N1615 0.985 . S
H1620 N1614 0.984 . S
H1621 N1614 0.984 . S
H1622 N1610 0.984 . S
H1623 N1610 0.985 . S
C1624 C1625 1.363 . S
C1624 C1630 1.379 . S
C1624 N1632 1.356 1_545 S
C1625 C1624 1.363 . S
C1625 C1631 1.363 . S
C1626 C1627 1.363 . S
C1626 C1631 1.379 . S
C1626 N1633 1.356 . S
C1627 C1626 1.363 . S
C1627 C1630 1.363 . S
N1628 C1630 1.356 . S
N1628 H1640 0.984 1_545 S
N1628 H1641 0.985 . S
N1629 C1631 1.356 . S
N1629 H1634 0.984 . S
N1629 H1635 0.985 . S
C1630 C1624 1.379 . S
C1630 C1627 1.363 . S
C1630 N1628 1.356 . S
C1631 C1625 1.363 . S
C1631 C1626 1.379 . S
C1631 N1629 1.356 . S
N1632 C1624 1.356 1_565 S
N1632 H1638 0.984 . S
N1632 H1639 0.984 . S
N1633 C1626 1.356 . S
N1633 H1636 0.984 . S
N1633 H1637 0.985 . S
H1634 N1629 0.984 . S
H1635 N1629 0.985 . S
H1636 N1633 0.984 . S
H1637 N1633 0.985 . S
H1638 N1632 0.984 . S
H1639 N1632 0.984 . S
H1640 N1628 0.984 1_565 S
H1641 N1628 0.985 . S
C1642 C1643 1.363 . S
C1642 C1648 1.379 . S
C1642 N1650 1.356 . S
C1643 C1642 1.363 . S
C1643 C1649 1.363 . S
C1644 C1645 1.363 . S
C1644 C1649 1.379 . S
C1644 N1651 1.356 . S
C1645 C1644 1.363 . S
C1645 C1648 1.363 . S
N1646 C1648 1.356 . S
N1646 H1658 0.984 . S
N1646 H1659 0.985 . S
N1647 C1649 1.356 . S
N1647 H1652 0.984 . S
N1647 H1653 0.985 . S
C1648 C1642 1.379 . S
C1648 C1645 1.363 . S
C1648 N1646 1.356 . S
C1649 C1643 1.363 . S
C1649 C1644 1.379 . S
C1649 N1647 1.356 . S
N1650 C1642 1.356 . S
N1650 H1656 0.984 . S
N1650 H1657 0.984 . S
N1651 C1644 1.356 . S
N1651 H1654 0.984 . S
N1651 H1655 0.985 . S
H1652 N1647 0.984 . S
H1653 N1647 0.985 . S
H1654 N1651 0.984 . S
H1655 N1651 0.985 . S
H1656 N1650 0.984 . S
H1657 N1650 0.984 . S
H1658 N1646 0.984 . S
H1659 N1646 0.985 . S
C1660 C1661 1.363 . S
C1660 C1666 1.379 . S
C1660 N1668 1.356 . S
C1661 C1660 1.363 . S
C1661 C1667 1.363 . S
C1662 C1663 1.363 . S
C1662 C1667 1.379 . S
C1662 N1669 1.356 . S
C1663 C1662 1.363 . S
C1663 C1666 1.363 . S
N1664 C1666 1.356 . S
N1664 H1676 0.984 . S
N1664 H1677 0.985 . S
N1665 C1667 1.356 1_565 S
N1665 H1670 0.984 . S
N1665 H1671 0.985 . S
C1666 C1660 1.379 . S
C1666 C1663 1.363 . S
C1666 N1664 1.356 . S
C1667 C1661 1.363 . S
C1667 C1662 1.379 . S
C1667 N1665 1.356 1_545 S
N1668 C1660 1.356 . S
N1668 H1674 0.984 . S
N1668 H1675 0.984 . S
N1669 C1662 1.356 . S
N1669 H1672 0.984 . S
N1669 H1673 0.985 . S
H1670 N1665 0.984 . S
H1671 N1665 0.985 . S
H1672 N1669 0.984 . S
H1673 N1669 0.985 . S
H1674 N1668 0.984 . S
H1675 N1668 0.984 . S
H1676 N1664 0.984 . S
H1677 N1664 0.985 . S
C1678 C1679 1.363 . S
C1678 C1684 1.379 . S
C1678 N1686 1.356 . S
C1679 C1678 1.363 . S
C1679 C1685 1.363 . S
C1680 C1681 1.363 . S
C1680 C1685 1.379 . S
C1680 N1687 1.356 . S
C1681 C1680 1.363 . S
C1681 C1684 1.363 . S
N1682 C1684 1.356 . S
N1682 H1694 0.984 . S
N1682 H1695 0.985 . S
N1683 C1685 1.356 . S
N1683 H1688 0.984 . S
N1683 H1689 0.985 . S
C1684 C1678 1.379 . S
C1684 C1681 1.363 . S
C1684 N1682 1.356 . S
C1685 C1679 1.363 . S
C1685 C1680 1.379 . S
C1685 N1683 1.356 . S
N1686 C1678 1.356 . S
N1686 H1692 0.984 . S
N1686 H1693 0.984 . S
N1687 C1680 1.356 . S
N1687 H1690 0.984 . S
N1687 H1691 0.985 . S
H1688 N1683 0.984 . S
H1689 N1683 0.985 . S
H1690 N1687 0.984 . S
H1691 N1687 0.985 . S
H1692 N1686 0.984 . S
H1693 N1686 0.984 . S
H1694 N1682 0.984 . S
H1695 N1682 0.985 . S
C1696 C1697 1.363 . S
C1696 C1702 1.379 . S
C1696 N1704 1.356 . S
C1697 C1696 1.363 . S
C1697 C1703 1.363 . S
C1698 C1699 1.363 . S
C1698 C1703 1.379 . S
C1698 N1705 1.356 . S
C1699 C1698 1.363 . S
C1699 C1702 1.363 . S
N1700 C1702 1.356 . S
N1700 H1712 0.984 . S
N1700 H1713 0.985 . S
N1701 C1703 1.356 . S
N1701 H1706 0.984 . S
N1701 H1707 0.985 . S
C1702 C1696 1.379 . S
C1702 C1699 1.363 . S
C1702 N1700 1.356 . S
C1703 C1697 1.363 . S
C1703 C1698 1.379 . S
C1703 N1701 1.356 . S
N1704 C1696 1.356 . S
N1704 H1710 0.984 . S
N1704 H1711 0.984 . S
N1705 C1698 1.356 . S
N1705 H1708 0.984 . S
N1705 H1709 0.985 . S
H1706 N1701 0.984 . S
H1707 N1701 0.985 . S
H1708 N1705 0.984 . S
H1709 N1705 0.985 . S
H1710 N1704 0.984 . S
H1711 N1704 0.984 . S
H1712 N1700 0.984 . S
H1713 N1700 0.985 . S
C1714 C1715 1.363 . S
C1714 C1720 1.379 . S
C1714 N1722 1.356 . S
C1715 C1714 1.363 . S
C1715 C1721 1.363 . S
C1716 C1717 1.363 . S
C1716 C1721 1.379 . S
C1716 N1723 1.356 . S
C1717 C1716 1.363 . S
C1717 C1720 1.363 . S
N1718 C1720 1.356 . S
N1718 H1730 0.984 . S
N1718 H1731 0.985 . S
N1719 C1721 1.356 . S
N1719 H1724 0.984 . S
N1719 H1725 0.985 1_545 S
C1720 C1714 1.379 . S
C1720 C1717 1.363 . S
C1720 N1718 1.356 . S
C1721 C1715 1.363 . S
C1721 C1716 1.379 . S
C1721 N1719 1.356 . S
N1722 C1714 1.356 . S
N1722 H1728 0.984 . S
N1722 H1729 0.984 . S
N1723 C1716 1.356 . S
N1723 H1726 0.984 . S
N1723 H1727 0.985 1_545 S
H1724 N1719 0.984 . S
H1725 N1719 0.985 1_565 S
H1726 N1723 0.984 . S
H1727 N1723 0.985 1_565 S
H1728 N1722 0.984 . S
H1729 N1722 0.984 . S
H1730 N1718 0.984 . S
H1731 N1718 0.985 . S
C1732 C1733 1.363 . S
C1732 C1738 1.379 . S
C1732 N1740 1.356 . S
C1733 C1732 1.363 . S
C1733 C1739 1.363 . S
C1734 C1735 1.363 . S
C1734 C1739 1.379 . S
C1734 N1741 1.356 . S
C1735 C1734 1.363 . S
C1735 C1738 1.363 . S
N1736 C1738 1.356 . S
N1736 H1748 0.984 . S
N1736 H1749 0.985 . S
N1737 C1739 1.356 . S
N1737 H1742 0.984 . S
N1737 H1743 0.985 . S
C1738 C1732 1.379 . S
C1738 C1735 1.363 . S
C1738 N1736 1.356 . S
C1739 C1733 1.363 . S
C1739 C1734 1.379 . S
C1739 N1737 1.356 . S
N1740 C1732 1.356 . S
N1740 H1746 0.984 . S
N1740 H1747 0.984 . S
N1741 C1734 1.356 . S
N1741 H1744 0.984 . S
N1741 H1745 0.985 . S
H1742 N1737 0.984 . S
H1743 N1737 0.985 . S
H1744 N1741 0.984 . S
H1745 N1741 0.985 . S
H1746 N1740 0.984 . S
H1747 N1740 0.984 . S
H1748 N1736 0.984 . S
H1749 N1736 0.985 . S
C1750 C1751 1.363 . S
C1750 C1756 1.379 . S
C1750 N1758 1.356 . S
C1751 C1750 1.363 . S
C1751 C1757 1.363 . S
C1752 C1753 1.363 . S
C1752 C1757 1.379 . S
C1752 N1759 1.356 . S
C1753 C1752 1.363 . S
C1753 C1756 1.363 . S
N1754 C1756 1.356 . S
N1754 H1766 0.984 . S
N1754 H1767 0.985 . S
N1755 C1757 1.356 . S
N1755 H1760 0.984 . S
N1755 H1761 0.985 . S
C1756 C1750 1.379 . S
C1756 C1753 1.363 . S
C1756 N1754 1.356 . S
C1757 C1751 1.363 . S
C1757 C1752 1.379 . S
C1757 N1755 1.356 . S
N1758 C1750 1.356 . S
N1758 H1764 0.984 . S
N1758 H1765 0.984 . S
N1759 C1752 1.356 . S
N1759 H1762 0.984 . S
N1759 H1763 0.985 . S
H1760 N1755 0.984 . S
H1761 N1755 0.985 . S
H1762 N1759 0.984 . S
H1763 N1759 0.985 . S
H1764 N1758 0.984 . S
H1765 N1758 0.984 . S
H1766 N1754 0.984 . S
H1767 N1754 0.985 . S
C1768 C1769 1.363 . S
C1768 C1774 1.379 . S
C1768 N1776 1.356 . S
C1769 C1768 1.363 . S
C1769 C1775 1.363 . S
C1770 C1771 1.363 . S
C1770 C1775 1.379 . S
C1770 N1777 1.356 . S
C1771 C1770 1.363 . S
C1771 C1774 1.363 . S
N1772 C1774 1.356 . S
N1772 H1784 0.984 . S
N1772 H1785 0.985 . S
N1773 C1775 1.356 . S
N1773 H1778 0.984 . S
N1773 H1779 0.985 . S
C1774 C1768 1.379 . S
C1774 C1771 1.363 . S
C1774 N1772 1.356 . S
C1775 C1769 1.363 . S
C1775 C1770 1.379 . S
C1775 N1773 1.356 . S
N1776 C1768 1.356 . S
N1776 H1782 0.984 . S
N1776 H1783 0.984 . S
N1777 C1770 1.356 . S
N1777 H1780 0.984 . S
N1777 H1781 0.985 . S
H1778 N1773 0.984 . S
H1779 N1773 0.985 . S
H1780 N1777 0.984 . S
H1781 N1777 0.985 . S
H1782 N1776 0.984 . S
H1783 N1776 0.984 . S
H1784 N1772 0.984 . S
H1785 N1772 0.985 . S
C1786 C1787 1.363 1_565 S
C1786 C1792 1.379 . S
C1786 N1794 1.356 . S
C1787 C1786 1.363 1_545 S
C1787 C1793 1.363 . S
C1788 C1789 1.363 . S
C1788 C1793 1.379 . S
C1788 N1795 1.356 . S
C1789 C1788 1.363 . S
C1789 C1792 1.363 1_545 S
N1790 C1792 1.356 . S
N1790 H1802 0.984 . S
N1790 H1803 0.985 . S
N1791 C1793 1.356 1_455 S
N1791 H1796 0.984 . S
N1791 H1797 0.985 . S
C1792 C1786 1.379 . S
C1792 C1789 1.363 1_565 S
C1792 N1790 1.356 . S
C1793 C1787 1.363 . S
C1793 C1788 1.379 . S
C1793 N1791 1.356 1_655 S
N1794 C1786 1.356 . S
N1794 H1800 0.984 . S
N1794 H1801 0.984 . S
N1795 C1788 1.356 . S
N1795 H1798 0.984 . S
N1795 H1799 0.985 . S
H1796 N1791 0.984 . S
H1797 N1791 0.985 . S
H1798 N1795 0.984 . S
H1799 N1795 0.985 . S
H1800 N1794 0.984 . S
H1801 N1794 0.984 . S
H1802 N1790 0.984 . S
H1803 N1790 0.985 . S
C1804 C1805 1.363 . S
C1804 C1810 1.379 . S
C1804 N1812 1.356 . S
C1805 C1804 1.363 . S
C1805 C1811 1.363 . S
C1806 C1807 1.363 . S
C1806 C1811 1.379 . S
C1806 N1813 1.356 . S
C1807 C1806 1.363 . S
C1807 C1810 1.363 . S
N1808 C1810 1.356 . S
N1808 H1820 0.984 . S
N1808 H1821 0.985 . S
N1809 C1811 1.356 . S
N1809 H1814 0.984 . S
N1809 H1815 0.985 . S
C1810 C1804 1.379 . S
C1810 C1807 1.363 . S
C1810 N1808 1.356 . S
C1811 C1805 1.363 . S
C1811 C1806 1.379 . S
C1811 N1809 1.356 . S
N1812 C1804 1.356 . S
N1812 H1818 0.984 . S
N1812 H1819 0.984 . S
N1813 C1806 1.356 . S
N1813 H1816 0.984 . S
N1813 H1817 0.985 . S
H1814 N1809 0.984 . S
H1815 N1809 0.985 . S
H1816 N1813 0.984 . S
H1817 N1813 0.985 . S
H1818 N1812 0.984 . S
H1819 N1812 0.984 . S
H1820 N1808 0.984 . S
H1821 N1808 0.985 . S
C1822 C1823 1.363 . S
C1822 C1828 1.379 . S
C1822 N1830 1.356 1_455 S
C1823 C1822 1.363 . S
C1823 C1829 1.363 . S
C1824 C1825 1.363 . S
C1824 C1829 1.379 . S
C1824 N1831 1.356 . S
C1825 C1824 1.363 . S
C1825 C1828 1.363 . S
N1826 C1828 1.356 . S
N1826 H1838 0.984 . S
N1826 H1839 0.985 . S
N1827 C1829 1.356 . S
N1827 H1832 0.984 . S
N1827 H1833 0.985 . S
C1828 C1822 1.379 . S
C1828 C1825 1.363 . S
C1828 N1826 1.356 . S
C1829 C1823 1.363 . S
C1829 C1824 1.379 . S
C1829 N1827 1.356 . S
N1830 C1822 1.356 1_655 S
N1830 H1836 0.984 . S
N1830 H1837 0.984 . S
N1831 C1824 1.356 . S
N1831 H1834 0.984 . S
N1831 H1835 0.985 . S
H1832 N1827 0.984 . S
H1833 N1827 0.985 . S
H1834 N1831 0.984 . S
H1835 N1831 0.985 . S
H1836 N1830 0.984 . S
H1837 N1830 0.984 . S
H1838 N1826 0.984 . S
H1839 N1826 0.985 . S
C1840 C1841 1.363 . S
C1840 C1846 1.379 . S
C1840 N1848 1.356 . S
C1841 C1840 1.363 . S
C1841 C1847 1.363 . S
C1842 C1843 1.363 . S
C1842 C1847 1.379 . S
C1842 N1849 1.356 . S
C1843 C1842 1.363 . S
C1843 C1846 1.363 . S
N1844 C1846 1.356 . S
N1844 H1856 0.984 . S
N1844 H1857 0.985 . S
N1845 C1847 1.356 . S
N1845 H1850 0.984 . S
N1845 H1851 0.985 . S
C1846 C1840 1.379 . S
C1846 C1843 1.363 . S
C1846 N1844 1.356 . S
C1847 C1841 1.363 . S
C1847 C1842 1.379 . S
C1847 N1845 1.356 . S
N1848 C1840 1.356 . S
N1848 H1854 0.984 . S
N1848 H1855 0.984 . S
N1849 C1842 1.356 . S
N1849 H1852 0.984 . S
N1849 H1853 0.985 . S
H1850 N1845 0.984 . S
H1851 N1845 0.985 . S
H1852 N1849 0.984 . S
H1853 N1849 0.985 . S
H1854 N1848 0.984 . S
H1855 N1848 0.984 . S
H1856 N1844 0.984 . S
H1857 N1844 0.985 . S
C1858 C1859 1.363 . S
C1858 C1864 1.379 . S
C1858 N1866 1.356 . S
C1859 C1858 1.363 . S
C1859 C1865 1.363 . S
C1860 C1861 1.363 1_556 S
C1860 C1865 1.379 1_556 S
C1860 N1867 1.356 . S
C1861 C1860 1.363 1_554 S
C1861 C1864 1.363 . S
N1862 C1864 1.356 . S
N1862 H1874 0.984 . S
N1862 H1875 0.985 . S
N1863 C1865 1.356 1_556 S
N1863 H1868 0.984 1_556 S
N1863 H1869 0.985 . S
C1864 C1858 1.379 . S
C1864 C1861 1.363 . S
C1864 N1862 1.356 . S
C1865 C1859 1.363 . S
C1865 C1860 1.379 1_554 S
C1865 N1863 1.356 1_554 S
N1866 C1858 1.356 . S
N1866 H1872 0.984 . S
N1866 H1873 0.984 . S
N1867 C1860 1.356 . S
N1867 H1870 0.984 . S
N1867 H1871 0.985 . S
H1868 N1863 0.984 1_554 S
H1869 N1863 0.985 . S
H1870 N1867 0.984 . S
H1871 N1867 0.985 . S
H1872 N1866 0.984 . S
H1873 N1866 0.984 . S
H1874 N1862 0.984 . S
H1875 N1862 0.985 . S
C1876 C1877 1.363 . S
C1876 C1882 1.379 . S
C1876 N1884 1.356 . S
C1877 C1876 1.363 . S
C1877 C1883 1.363 . S
C1878 C1879 1.363 . S
C1878 C1883 1.379 . S
C1878 N1885 1.356 . S
C1879 C1878 1.363 . S
C1879 C1882 1.363 . S
N1880 C1882 1.356 . S
N1880 H1892 0.984 . S
N1880 H1893 0.985 . S
N1881 C1883 1.356 . S
N1881 H1886 0.984 . S
N1881 H1887 0.985 . S
C1882 C1876 1.379 . S
C1882 C1879 1.363 . S
C1882 N1880 1.356 . S
C1883 C1877 1.363 . S
C1883 C1878 1.379 . S
C1883 N1881 1.356 . S
N1884 C1876 1.356 . S
N1884 H1890 0.984 . S
N1884 H1891 0.984 . S
N1885 C1878 1.356 . S
N1885 H1888 0.984 . S
N1885 H1889 0.985 . S
H1886 N1881 0.984 . S
H1887 N1881 0.985 . S
H1888 N1885 0.984 . S
H1889 N1885 0.985 . S
H1890 N1884 0.984 . S
H1891 N1884 0.984 . S
H1892 N1880 0.984 . S
H1893 N1880 0.985 . S
C1894 C1895 1.363 . S
C1894 C1900 1.379 1_554 S
C1894 N1902 1.356 . S
C1895 C1894 1.363 . S
C1895 C1901 1.363 1_455 S
C1896 C1897 1.363 1_655 S
C1896 C1901 1.379 1_556 S
C1896 N1903 1.356 . S
C1897 C1896 1.363 1_455 S
C1897 C1900 1.363 . S
N1898 C1900 1.356 . S
N1898 H1910 0.984 . S
N1898 H1911 0.985 . S
N1899 C1901 1.356 . S
N1899 H1904 0.984 . S
N1899 H1905 0.985 . S
C1900 C1894 1.379 1_556 S
C1900 C1897 1.363 . S
C1900 N1898 1.356 . S
C1901 C1895 1.363 1_655 S
C1901 C1896 1.379 1_554 S
C1901 N1899 1.356 . S
N1902 C1894 1.356 . S
N1902 H1908 0.984 . S
N1902 H1909 0.984 . S
N1903 C1896 1.356 . S
N1903 H1906 0.984 . S
N1903 H1907 0.985 . S
H1904 N1899 0.984 . S
H1905 N1899 0.985 . S
H1906 N1903 0.984 . S
H1907 N1903 0.985 . S
H1908 N1902 0.984 . S
H1909 N1902 0.984 . S
H1910 N1898 0.984 . S
H1911 N1898 0.985 . S
C1912 C1913 1.363 . S
C1912 C1918 1.379 . S
C1912 N1920 1.356 . S
C1913 C1912 1.363 . S
C1913 C1919 1.363 . S
C1914 C1915 1.363 . S
C1914 C1919 1.379 . S
C1914 N1921 1.356 . S
C1915 C1914 1.363 . S
C1915 C1918 1.363 . S
N1916 C1918 1.356 . S
N1916 H1928 0.984 . S
N1916 H1929 0.985 . S
N1917 C1919 1.356 . S
N1917 H1922 0.984 . S
N1917 H1923 0.985 . S
C1918 C1912 1.379 . S
C1918 C1915 1.363 . S
C1918 N1916 1.356 . S
C1919 C1913 1.363 . S
C1919 C1914 1.379 . S
C1919 N1917 1.356 . S
N1920 C1912 1.356 . S
N1920 H1926 0.984 . S
N1920 H1927 0.984 . S
N1921 C1914 1.356 . S
N1921 H1924 0.984 . S
N1921 H1925 0.985 . S
H1922 N1917 0.984 . S
H1923 N1917 0.985 . S
H1924 N1921 0.984 . S
H1925 N1921 0.985 . S
H1926 N1920 0.984 . S
H1927 N1920 0.984 . S
H1928 N1916 0.984 . S
H1929 N1916 0.985 . S
C1930 C1931 1.363 1_556 S
C1930 C1936 1.379 1_556 S
C1930 N1938 1.356 . S
C1931 C1930 1.363 1_554 S
C1931 C1937 1.363 . S
C1932 C1933 1.363 . S
C1932 C1937 1.379 . S
C1932 N1939 1.356 . S
C1933 C1932 1.363 . S
C1933 C1936 1.363 . S
N1934 C1936 1.356 . S
N1934 H1946 0.984 1_554 S
N1934 H1947 0.985 . S
N1935 C1937 1.356 . S
N1935 H1940 0.984 . S
N1935 H1941 0.985 . S
C1936 C1930 1.379 1_554 S
C1936 C1933 1.363 . S
C1936 N1934 1.356 . S
C1937 C1931 1.363 . S
C1937 C1932 1.379 . S
C1937 N1935 1.356 . S
N1938 C1930 1.356 . S
N1938 H1944 0.984 . S
N1938 H1945 0.984 . S
N1939 C1932 1.356 . S
N1939 H1942 0.984 . S
N1939 H1943 0.985 . S
H1940 N1935 0.984 . S
H1941 N1935 0.985 . S
H1942 N1939 0.984 . S
H1943 N1939 0.985 . S
H1944 N1938 0.984 . S
H1945 N1938 0.984 . S
H1946 N1934 0.984 1_556 S
H1947 N1934 0.985 . S
C1948 C1949 1.363 . S
C1948 C1954 1.379 . S
C1948 N1956 1.356 . S
C1949 C1948 1.363 . S
C1949 C1955 1.363 . S
C1950 C1951 1.363 . S
C1950 C1955 1.379 . S
C1950 N1957 1.356 . S
C1951 C1950 1.363 . S
C1951 C1954 1.363 . S
N1952 C1954 1.356 . S
N1952 H1964 0.984 . S
N1952 H1965 0.985 . S
N1953 C1955 1.356 . S
N1953 H1958 0.984 . S
N1953 H1959 0.985 . S
C1954 C1948 1.379 . S
C1954 C1951 1.363 . S
C1954 N1952 1.356 . S
C1955 C1949 1.363 . S
C1955 C1950 1.379 . S
C1955 N1953 1.356 . S
N1956 C1948 1.356 . S
N1956 H1962 0.984 . S
N1956 H1963 0.984 . S
N1957 C1950 1.356 . S
N1957 H1960 0.984 . S
N1957 H1961 0.985 . S
H1958 N1953 0.984 . S
H1959 N1953 0.985 . S
H1960 N1957 0.984 . S
H1961 N1957 0.985 . S
H1962 N1956 0.984 . S
H1963 N1956 0.984 . S
H1964 N1952 0.984 . S
H1965 N1952 0.985 . S
C1966 C1967 1.358 1_556 S
C1966 C1972 1.379 1_556 S
C1966 N1974 1.356 . S
C1967 C1966 1.358 1_554 S
C1967 C1973 1.377 . S
C1968 C1969 1.363 . S
C1968 C1973 1.379 . S
C1968 N1975 1.356 . S
C1969 C1968 1.363 . S
C1969 C1972 1.363 . S
N1970 C1972 1.356 . S
N1970 H1982 0.984 1_554 S
N1970 H1983 0.985 . S
N1971 C1973 1.356 . S
N1971 H1976 0.984 . S
N1971 H1977 0.985 . S
C1972 C1966 1.379 1_554 S
C1972 C1969 1.363 . S
C1972 N1970 1.356 . S
C1973 C1967 1.377 . S
C1973 C1968 1.379 . S
C1973 N1971 1.356 . S
N1974 C1966 1.356 . S
N1974 H1980 0.984 . S
N1974 H1981 0.984 . S
N1975 C1968 1.356 . S
N1975 H1978 0.984 . S
N1975 H1979 0.985 . S
H1976 N1971 0.984 . S
H1977 N1971 0.985 . S
H1978 N1975 0.984 . S
H1979 N1975 0.985 . S
H1980 N1974 0.984 . S
H1981 N1974 0.984 . S
H1982 N1970 0.984 1_556 S
H1983 N1970 0.985 . S
C1984 C1985 1.363 . S
C1984 C1990 1.379 . S
C1984 N1992 1.356 . S
C1985 C1984 1.363 . S
C1985 C1991 1.363 . S
C1986 C1987 1.363 . S
C1986 C1991 1.379 . S
C1986 N1993 1.356 . S
C1987 C1986 1.363 . S
C1987 C1990 1.363 . S
N1988 C1990 1.356 . S
N1988 H2000 0.984 . S
N1988 H2001 0.985 . S
N1989 C1991 1.356 . S
N1989 H1994 0.984 . S
N1989 H1995 0.985 . S
C1990 C1984 1.379 . S
C1990 C1987 1.363 . S
C1990 N1988 1.356 . S
C1991 C1985 1.363 . S
C1991 C1986 1.379 . S
C1991 N1989 1.356 . S
N1992 C1984 1.356 . S
N1992 H1998 0.984 . S
N1992 H1999 0.984 . S
N1993 C1986 1.356 . S
N1993 H1996 0.984 . S
N1993 H1997 0.985 . S
H1994 N1989 0.984 . S
H1995 N1989 0.985 . S
H1996 N1993 0.984 . S
H1997 N1993 0.985 . S
H1998 N1992 0.984 . S
H1999 N1992 0.984 . S
H2000 N1988 0.984 . S
H2001 N1988 0.985 . S
C2002 C2003 1.363 . S
C2002 C2008 1.379 . S
C2002 N2010 1.356 . S
C2003 C2002 1.363 . S
C2003 C2009 1.363 . S
C2004 C2005 1.363 . S
C2004 C2009 1.379 . S
C2004 N2011 1.356 . S
C2005 C2004 1.363 . S
C2005 C2008 1.363 . S
N2006 C2008 1.356 . S
N2006 H2018 0.984 . S
N2006 H2019 0.985 . S
N2007 C2009 1.356 . S
N2007 H2012 0.984 . S
N2007 H2013 0.985 . S
C2008 C2002 1.379 . S
C2008 C2005 1.363 . S
C2008 N2006 1.356 . S
C2009 C2003 1.363 . S
C2009 C2004 1.379 . S
C2009 N2007 1.356 . S
N2010 C2002 1.356 . S
N2010 H2016 0.984 . S
N2010 H2017 0.984 . S
N2011 C2004 1.356 . S
N2011 H2014 0.984 . S
N2011 H2015 0.985 . S
H2012 N2007 0.984 . S
H2013 N2007 0.985 . S
H2014 N2011 0.984 . S
H2015 N2011 0.985 . S
H2016 N2010 0.984 . S
H2017 N2010 0.984 . S
H2018 N2006 0.984 . S
H2019 N2006 0.985 . S
C2020 C2021 1.363 . S
C2020 C2026 1.379 . S
C2020 N2028 1.356 . S
C2021 C2020 1.363 . S
C2021 C2027 1.363 . S
C2022 C2023 1.363 . S
C2022 C2027 1.379 . S
C2022 N2029 1.356 . S
C2023 C2022 1.363 . S
C2023 C2026 1.363 . S
N2024 C2026 1.356 . S
N2024 H2036 0.984 . S
N2024 H2037 0.985 . S
N2025 C2027 1.356 . S
N2025 H2030 0.984 . S
N2025 H2031 0.985 . S
C2026 C2020 1.379 . S
C2026 C2023 1.363 . S
C2026 N2024 1.356 . S
C2027 C2021 1.363 . S
C2027 C2022 1.379 . S
C2027 N2025 1.356 . S
N2028 C2020 1.356 . S
N2028 H2034 0.984 . S
N2028 H2035 0.984 . S
N2029 C2022 1.356 . S
N2029 H2032 0.984 . S
N2029 H2033 0.985 . S
H2030 N2025 0.984 . S
H2031 N2025 0.985 . S
H2032 N2029 0.984 . S
H2033 N2029 0.985 . S
H2034 N2028 0.984 . S
H2035 N2028 0.984 . S
H2036 N2024 0.984 . S
H2037 N2024 0.985 . S
C2038 C2039 1.363 . S
C2038 C2044 1.379 . S
C2038 N2046 1.356 . S
C2039 C2038 1.363 . S
C2039 C2045 1.363 . S
C2040 C2041 1.363 . S
C2040 C2045 1.379 . S
C2040 N2047 1.356 . S
C2041 C2040 1.363 . S
C2041 C2044 1.363 . S
N2042 C2044 1.356 . S
N2042 H2054 0.984 . S
N2042 H2055 0.985 . S
N2043 C2045 1.356 . S
N2043 H2048 0.984 . S
N2043 H2049 0.985 . S
C2044 C2038 1.379 . S
C2044 C2041 1.363 . S
C2044 N2042 1.356 . S
C2045 C2039 1.363 . S
C2045 C2040 1.379 . S
C2045 N2043 1.356 . S
N2046 C2038 1.356 . S
N2046 H2052 0.984 . S
N2046 H2053 0.984 . S
N2047 C2040 1.356 . S
N2047 H2050 0.984 . S
N2047 H2051 0.985 . S
H2048 N2043 0.984 . S
H2049 N2043 0.985 . S
H2050 N2047 0.984 . S
H2051 N2047 0.985 . S
H2052 N2046 0.984 . S
H2053 N2046 0.984 . S
H2054 N2042 0.984 . S
H2055 N2042 0.985 . S
C2056 C2057 1.363 . S
C2056 C2062 1.379 . S
C2056 N2064 1.356 1_556 S
C2057 C2056 1.363 . S
C2057 C2063 1.363 . S
C2058 C2059 1.363 . S
C2058 C2063 1.379 . S
C2058 N2065 1.356 . S
C2059 C2058 1.363 . S
C2059 C2062 1.363 . S
N2060 C2062 1.356 1_554 S
N2060 H2072 0.984 . S
N2060 H2073 0.985 . S
N2061 C2063 1.356 . S
N2061 H2066 0.984 . S
N2061 H2067 0.985 . S
C2062 C2056 1.379 . S
C2062 C2059 1.363 . S
C2062 N2060 1.356 1_556 S
C2063 C2057 1.363 . S
C2063 C2058 1.379 . S
C2063 N2061 1.356 . S
N2064 C2056 1.356 1_554 S
N2064 H2070 0.984 . S
N2064 H2071 0.984 . S
N2065 C2058 1.356 . S
N2065 H2068 0.984 . S
N2065 H2069 0.985 . S
H2066 N2061 0.984 . S
H2067 N2061 0.985 . S
H2068 N2065 0.984 . S
H2069 N2065 0.985 . S
H2070 N2064 0.984 . S
H2071 N2064 0.984 . S
H2072 N2060 0.984 . S
H2073 N2060 0.985 . S
C2074 C2075 1.363 . S
C2074 C2080 1.379 . S
C2074 N2082 1.356 . S
C2075 C2074 1.363 . S
C2075 C2081 1.363 . S
C2076 C2077 1.363 . S
C2076 C2081 1.379 . S
C2076 N2083 1.356 . S
C2077 C2076 1.363 . S
C2077 C2080 1.363 . S
N2078 C2080 1.356 . S
N2078 H2090 0.984 . S
N2078 H2091 0.985 . S
N2079 C2081 1.356 . S
N2079 H2084 0.984 . S
N2079 H2085 0.985 . S
C2080 C2074 1.379 . S
C2080 C2077 1.363 . S
C2080 N2078 1.356 . S
C2081 C2075 1.363 . S
C2081 C2076 1.379 . S
C2081 N2079 1.356 . S
N2082 C2074 1.356 . S
N2082 H2088 0.984 . S
N2082 H2089 0.984 . S
N2083 C2076 1.356 . S
N2083 H2086 0.984 . S
N2083 H2087 0.985 . S
H2084 N2079 0.984 . S
H2085 N2079 0.985 . S
H2086 N2083 0.984 . S
H2087 N2083 0.985 . S
H2088 N2082 0.984 . S
H2089 N2082 0.984 . S
H2090 N2078 0.984 . S
H2091 N2078 0.985 . S
C2092 C2093 1.363 . S
C2092 C2098 1.379 . S
C2092 N2100 1.356 . S
C2093 C2092 1.363 . S
C2093 C2099 1.363 . S
C2094 C2095 1.363 . S
C2094 C2099 1.379 . S
C2094 N2101 1.356 1_554 S
C2095 C2094 1.363 . S
C2095 C2098 1.363 . S
N2096 C2098 1.356 . S
N2096 H2108 0.984 . S
N2096 H2109 0.985 . S
N2097 C2099 1.356 . S
N2097 H2102 0.984 . S
N2097 H2103 0.985 1_554 S
C2098 C2092 1.379 . S
C2098 C2095 1.363 . S
C2098 N2096 1.356 . S
C2099 C2093 1.363 . S
C2099 C2094 1.379 . S
C2099 N2097 1.356 . S
N2100 C2092 1.356 . S
N2100 H2106 0.984 . S
N2100 H2107 0.984 . S
N2101 C2094 1.356 1_556 S
N2101 H2104 0.984 . S
N2101 H2105 0.985 . S
H2102 N2097 0.984 . S
H2103 N2097 0.985 1_556 S
H2104 N2101 0.984 . S
H2105 N2101 0.985 . S
H2106 N2100 0.984 . S
H2107 N2100 0.984 . S
H2108 N2096 0.984 . S
H2109 N2096 0.985 . S
C2110 C2111 1.363 . S
C2110 C2116 1.379 . S
C2110 N2118 1.356 . S
C2111 C2110 1.363 . S
C2111 C2117 1.363 . S
C2112 C2113 1.363 . S
C2112 C2117 1.379 . S
C2112 N2119 1.356 . S
C2113 C2112 1.363 . S
C2113 C2116 1.363 . S
N2114 C2116 1.370 . S
N2114 H2126 0.964 1_554 S
N2114 H2127 0.992 . S
N2115 C2117 1.356 1_545 S
N2115 H2120 0.984 . S
N2115 H2121 0.985 . S
C2116 C2110 1.379 . S
C2116 C2113 1.363 . S
C2116 N2114 1.370 . S
C2117 C2111 1.363 . S
C2117 C2112 1.379 . S
C2117 N2115 1.356 1_565 S
N2118 C2110 1.356 . S
N2118 H2124 0.984 1_554 S
N2118 H2125 0.984 . S
N2119 C2112 1.356 . S
N2119 H2122 0.984 . S
N2119 H2123 0.985 1_565 S
H2120 N2115 0.984 . S
H2121 N2115 0.985 . S
H2122 N2119 0.984 . S
H2123 N2119 0.985 1_545 S
H2124 N2118 0.984 1_556 S
H2125 N2118 0.984 . S
H2126 N2114 0.964 1_556 S
H2127 N2114 0.992 . S
C1267 C257 1.307 . S
C1265 N66 1.288 . S
C1285 C316 1.577 . S
C1283 N79 1.570 . S
C1301 N92 1.770 . S
C1303 C433 1.795 . S
C1321 C501 1.398 . S
C1319 N54 1.415 . S
C1339 C580 1.555 . S
C1337 N131 1.566 . S
C1357 C705 1.234 . S
C1355 N158 1.229 . S
C1373 N145 1.540 . S
C1375 C765 1.543 . S
C1393 C873 1.774 . S
C1391 N118 1.760 . S
C1409 N148 1.964 . S
C1411 C969 1.946 . S
C1429 C1029 1.619 . S
C1427 N122 1.613 . S
C1445 N132 1.303 . S
C1447 C932 1.299 . S
C1465 C1049 1.516 . S
C1463 N161 1.476 . S
C1481 N96 1.839 . S
C1483 C1117 1.884 . S
C1499 N53 1.729 . S
C1501 C1108 1.747 . S
C1517 N67 1.127 . S
C1519 C1137 1.130 . S
C1535 N83 1.349 . S
C1537 C1145 1.362 . S
C1553 N44 1.451 . S
C1555 C529 1.477 . S
C1571 N187 1.538 . S
C1573 C492 1.539 . S
C1591 C228 1.225 . S
C1589 N197 1.233 . S
C1609 C325 1.314 . S
C1607 N106 1.317 . S
C1625 N57 1.824 1_545 S
C1627 C589 1.847 . S
C1645 C881 1.464 . S
C1643 N144 1.443 . S
C1663 C609 1.407 . S
C1661 N119 1.419 1_545 S
C1681 C793 1.807 . S
C1679 N157 1.758 . S
C1699 C785 1.307 . S
C1697 N183 1.288 . S
C1715 N196 1.570 . S
C1717 C853 1.577 . S
C1733 N105 1.770 . S
C1735 C617 1.795 . S
C1753 C668 1.398 . S
C1751 N171 1.406 . S
C1769 N40 1.566 . S
C1771 C413 1.555 . S
C1789 C521 1.234 . S
C1787 N2 1.229 . S
C1807 C237 1.543 . S
C1805 N15 1.540 . S
C1825 C353 1.774 . S
C1823 N27 1.760 1_455 S
C1841 N18 1.965 . S
C1843 C1057 1.946 . S
C1859 N31 1.613 . S
C1861 C941 1.619 1_554 S
C1877 N41 1.303 . S
C1879 C1020 1.299 . S
C1895 N5 1.476 . S
C1897 C961 1.516 . S
C1915 C1205 1.884 . S
C1913 N109 1.839 . S
C1933 C1196 1.747 . S
C1931 N170 1.729 1_554 S
C1951 C1225 1.129 . S
C1949 N184 1.127 . S
C1967 N200 1.343 1_554 S
C1969 C1233 1.362 . S
C1985 N135 1.451 . S
C1987 C697 1.477 . S
C2005 C677 1.539 . S
C2003 N70 1.538 . S
C2023 C756 1.225 . S
C2021 N80 1.233 . S
C2041 C844 1.314 . S
C2039 N93 1.317 . S
C2057 N174 1.824 . S
C2059 C404 1.847 . S
C2077 C345 1.464 . S
C2075 N14 1.443 . S
C2093 N28 1.419 . S
C2095 C441 1.407 . S
C2113 C265 1.807 . S
C2111 N1 1.756 1_565 S
