# Generated by pormake.
# Topology ptr, (4,4)-cn, num edge types: 1
# Building blocks:
#     Node 0, Type 0, BuildingBlock: AZAVOO_clean_sbu_0, # of connection points: 4
#     Node 1, Type 0, BuildingBlock: AZAVOO_clean_sbu_0, # of connection points: 4
#     Node 2, Type 0, BuildingBlock: AZAVOO_clean_sbu_0, # of connection points: 4
#     Node 3, Type 0, BuildingBlock: AZAVOO_clean_sbu_0, # of connection points: 4
#     Node 4, Type 0, BuildingBlock: AZAVOO_clean_sbu_0, # of connection points: 4
#     Node 5, Type 0, BuildingBlock: AZAVOO_clean_sbu_0, # of connection points: 4
#     Node 6, Type 0, BuildingBlock: AZAVOO_clean_sbu_0, # of connection points: 4
#     Node 7, Type 0, BuildingBlock: AZAVOO_clean_sbu_0, # of connection points: 4
#     Node 8, Type 0, BuildingBlock: AZAVOO_clean_sbu_0, # of connection points: 4
#     Node 9, Type 0, BuildingBlock: AZAVOO_clean_sbu_0, # of connection points: 4
#     Node 10, Type 0, BuildingBlock: AZAVOO_clean_sbu_0, # of connection points: 4
#     Node 11, Type 0, BuildingBlock: AZAVOO_clean_sbu_0, # of connection points: 4
#     Node 12, Type 0, BuildingBlock: AZAVOO_clean_sbu_0, # of connection points: 4
#     Node 13, Type 0, BuildingBlock: AZAVOO_clean_sbu_0, # of connection points: 4
#     Node 14, Type 0, BuildingBlock: AZAVOO_clean_sbu_0, # of connection points: 4
#     Node 15, Type 0, BuildingBlock: AZAVOO_clean_sbu_0, # of connection points: 4
#     Node 16, Type 0, BuildingBlock: AZAVOO_clean_sbu_0, # of connection points: 4
#     Node 17, Type 0, BuildingBlock: AZAVOO_clean_sbu_0, # of connection points: 4
#     Node 18, Type 1, BuildingBlock: MUDLON_clean_linker_0, # of connection points: 4
#     Node 19, Type 1, BuildingBlock: MUDLON_clean_linker_0, # of connection points: 4
#     Node 20, Type 1, BuildingBlock: MUDLON_clean_linker_0, # of connection points: 4
#     Node 21, Type 1, BuildingBlock: MUDLON_clean_linker_0, # of connection points: 4
#     Node 22, Type 1, BuildingBlock: MUDLON_clean_linker_0, # of connection points: 4
#     Node 23, Type 1, BuildingBlock: MUDLON_clean_linker_0, # of connection points: 4
#     Node 24, Type 1, BuildingBlock: MUDLON_clean_linker_0, # of connection points: 4
#     Node 25, Type 1, BuildingBlock: MUDLON_clean_linker_0, # of connection points: 4
#     Node 26, Type 1, BuildingBlock: MUDLON_clean_linker_0, # of connection points: 4
#     Node 27, Type 1, BuildingBlock: MUDLON_clean_linker_0, # of connection points: 4
#     Node 28, Type 1, BuildingBlock: MUDLON_clean_linker_0, # of connection points: 4
#     Node 29, Type 1, BuildingBlock: MUDLON_clean_linker_0, # of connection points: 4
#     Node 30, Type 1, BuildingBlock: MUDLON_clean_linker_0, # of connection points: 4
#     Node 31, Type 1, BuildingBlock: MUDLON_clean_linker_0, # of connection points: 4
#     Node 32, Type 1, BuildingBlock: MUDLON_clean_linker_0, # of connection points: 4
#     Node 33, Type 1, BuildingBlock: MUDLON_clean_linker_0, # of connection points: 4
#     Node 34, Type 1, BuildingBlock: MUDLON_clean_linker_0, # of connection points: 4
#     Node 35, Type 1, BuildingBlock: MUDLON_clean_linker_0, # of connection points: 4
#     Edge 36, Type (0, 1), BuildingBlock: KIFKEQ_clean_linker_1, # of connection points: 2
#     Edge 37, Type (0, 1), BuildingBlock: KIFKEQ_clean_linker_1, # of connection points: 2
#     Edge 38, Type (0, 1), BuildingBlock: KIFKEQ_clean_linker_1, # of connection points: 2
#     Edge 39, Type (0, 1), BuildingBlock: KIFKEQ_clean_linker_1, # of connection points: 2
#     Edge 40, Type (0, 1), BuildingBlock: KIFKEQ_clean_linker_1, # of connection points: 2
#     Edge 41, Type (0, 1), BuildingBlock: KIFKEQ_clean_linker_1, # of connection points: 2
#     Edge 42, Type (0, 1), BuildingBlock: KIFKEQ_clean_linker_1, # of connection points: 2
#     Edge 43, Type (0, 1), BuildingBlock: KIFKEQ_clean_linker_1, # of connection points: 2
#     Edge 44, Type (0, 1), BuildingBlock: KIFKEQ_clean_linker_1, # of connection points: 2
#     Edge 45, Type (0, 1), BuildingBlock: KIFKEQ_clean_linker_1, # of connection points: 2
#     Edge 46, Type (0, 1), BuildingBlock: KIFKEQ_clean_linker_1, # of connection points: 2
#     Edge 47, Type (0, 1), BuildingBlock: KIFKEQ_clean_linker_1, # of connection points: 2
#     Edge 48, Type (0, 1), BuildingBlock: KIFKEQ_clean_linker_1, # of connection points: 2
#     Edge 49, Type (0, 1), BuildingBlock: KIFKEQ_clean_linker_1, # of connection points: 2
#     Edge 50, Type (0, 1), BuildingBlock: KIFKEQ_clean_linker_1, # of connection points: 2
#     Edge 51, Type (0, 1), BuildingBlock: KIFKEQ_clean_linker_1, # of connection points: 2
#     Edge 52, Type (0, 1), BuildingBlock: KIFKEQ_clean_linker_1, # of connection points: 2
#     Edge 53, Type (0, 1), BuildingBlock: KIFKEQ_clean_linker_1, # of connection points: 2
#     Edge 54, Type (0, 1), BuildingBlock: KIFKEQ_clean_linker_1, # of connection points: 2
#     Edge 55, Type (0, 1), BuildingBlock: KIFKEQ_clean_linker_1, # of connection points: 2
#     Edge 56, Type (0, 1), BuildingBlock: KIFKEQ_clean_linker_1, # of connection points: 2
#     Edge 57, Type (0, 1), BuildingBlock: KIFKEQ_clean_linker_1, # of connection points: 2
#     Edge 58, Type (0, 1), BuildingBlock: KIFKEQ_clean_linker_1, # of connection points: 2
#     Edge 59, Type (0, 1), BuildingBlock: KIFKEQ_clean_linker_1, # of connection points: 2
#     Edge 60, Type (0, 1), BuildingBlock: KIFKEQ_clean_linker_1, # of connection points: 2
#     Edge 61, Type (0, 1), BuildingBlock: KIFKEQ_clean_linker_1, # of connection points: 2
#     Edge 62, Type (0, 1), BuildingBlock: KIFKEQ_clean_linker_1, # of connection points: 2
#     Edge 63, Type (0, 1), BuildingBlock: KIFKEQ_clean_linker_1, # of connection points: 2
#     Edge 64, Type (0, 1), BuildingBlock: KIFKEQ_clean_linker_1, # of connection points: 2
#     Edge 65, Type (0, 1), BuildingBlock: KIFKEQ_clean_linker_1, # of connection points: 2
#     Edge 66, Type (0, 1), BuildingBlock: KIFKEQ_clean_linker_1, # of connection points: 2
#     Edge 67, Type (0, 1), BuildingBlock: KIFKEQ_clean_linker_1, # of connection points: 2
#     Edge 68, Type (0, 1), BuildingBlock: KIFKEQ_clean_linker_1, # of connection points: 2
#     Edge 69, Type (0, 1), BuildingBlock: KIFKEQ_clean_linker_1, # of connection points: 2
#     Edge 70, Type (0, 1), BuildingBlock: KIFKEQ_clean_linker_1, # of connection points: 2
#     Edge 71, Type (0, 1), BuildingBlock: KIFKEQ_clean_linker_1, # of connection points: 2
#     Edge 72, Type (0, 1), BuildingBlock: KIFKEQ_clean_linker_1, # of connection points: 2
#     Edge 73, Type (0, 1), BuildingBlock: KIFKEQ_clean_linker_1, # of connection points: 2
#     Edge 74, Type (0, 1), BuildingBlock: KIFKEQ_clean_linker_1, # of connection points: 2
#     Edge 75, Type (0, 1), BuildingBlock: KIFKEQ_clean_linker_1, # of connection points: 2
#     Edge 76, Type (0, 1), BuildingBlock: KIFKEQ_clean_linker_1, # of connection points: 2
#     Edge 77, Type (0, 1), BuildingBlock: KIFKEQ_clean_linker_1, # of connection points: 2
#     Edge 78, Type (0, 1), BuildingBlock: KIFKEQ_clean_linker_1, # of connection points: 2
#     Edge 79, Type (0, 1), BuildingBlock: KIFKEQ_clean_linker_1, # of connection points: 2
#     Edge 80, Type (0, 1), BuildingBlock: KIFKEQ_clean_linker_1, # of connection points: 2
#     Edge 81, Type (0, 1), BuildingBlock: KIFKEQ_clean_linker_1, # of connection points: 2
#     Edge 82, Type (0, 1), BuildingBlock: KIFKEQ_clean_linker_1, # of connection points: 2
#     Edge 83, Type (0, 1), BuildingBlock: KIFKEQ_clean_linker_1, # of connection points: 2
#     Edge 84, Type (0, 1), BuildingBlock: KIFKEQ_clean_linker_1, # of connection points: 2
#     Edge 85, Type (0, 1), BuildingBlock: KIFKEQ_clean_linker_1, # of connection points: 2
#     Edge 86, Type (0, 1), BuildingBlock: KIFKEQ_clean_linker_1, # of connection points: 2
#     Edge 87, Type (0, 1), BuildingBlock: KIFKEQ_clean_linker_1, # of connection points: 2
#     Edge 88, Type (0, 1), BuildingBlock: KIFKEQ_clean_linker_1, # of connection points: 2
#     Edge 89, Type (0, 1), BuildingBlock: KIFKEQ_clean_linker_1, # of connection points: 2
#     Edge 90, Type (0, 1), BuildingBlock: KIFKEQ_clean_linker_1, # of connection points: 2
#     Edge 91, Type (0, 1), BuildingBlock: KIFKEQ_clean_linker_1, # of connection points: 2
#     Edge 92, Type (0, 1), BuildingBlock: KIFKEQ_clean_linker_1, # of connection points: 2
#     Edge 93, Type (0, 1), BuildingBlock: KIFKEQ_clean_linker_1, # of connection points: 2
#     Edge 94, Type (0, 1), BuildingBlock: KIFKEQ_clean_linker_1, # of connection points: 2
#     Edge 95, Type (0, 1), BuildingBlock: KIFKEQ_clean_linker_1, # of connection points: 2
#     Edge 96, Type (0, 1), BuildingBlock: KIFKEQ_clean_linker_1, # of connection points: 2
#     Edge 97, Type (0, 1), BuildingBlock: KIFKEQ_clean_linker_1, # of connection points: 2
#     Edge 98, Type (0, 1), BuildingBlock: KIFKEQ_clean_linker_1, # of connection points: 2
#     Edge 99, Type (0, 1), BuildingBlock: KIFKEQ_clean_linker_1, # of connection points: 2
#     Edge 100, Type (0, 1), BuildingBlock: KIFKEQ_clean_linker_1, # of connection points: 2
#     Edge 101, Type (0, 1), BuildingBlock: KIFKEQ_clean_linker_1, # of connection points: 2
#     Edge 102, Type (0, 1), BuildingBlock: KIFKEQ_clean_linker_1, # of connection points: 2
#     Edge 103, Type (0, 1), BuildingBlock: KIFKEQ_clean_linker_1, # of connection points: 2
#     Edge 104, Type (0, 1), BuildingBlock: KIFKEQ_clean_linker_1, # of connection points: 2
#     Edge 105, Type (0, 1), BuildingBlock: KIFKEQ_clean_linker_1, # of connection points: 2
#     Edge 106, Type (0, 1), BuildingBlock: KIFKEQ_clean_linker_1, # of connection points: 2
#     Edge 107, Type (0, 1), BuildingBlock: KIFKEQ_clean_linker_1, # of connection points: 2
# Relax obj value: 0.069
# Max RMSD: 0.226
# Mean RMSD: 0.109
data_MOF--net-ptr--node1-AZAVOO_clean_sbu_0--node2-MUDLON_clean_linker_0--edge1-KIFKEQ_clean_linker_1
_symmetry_space_group_name_H-M    P1
_symmetry_Int_Tables_number       1
_symmetry_cell_setting            triclinic
loop_
_symmetry_equiv_pos_as_xyz
'x, y, z'
_cell_length_a     107.84809
_cell_length_b     106.33845
_cell_length_c     60.59573
_cell_angle_alpha  90.997166
_cell_angle_beta   90.983246
_cell_angle_gamma 120.03305
loop_
_atom_site_label
_atom_site_type_symbol
_atom_site_fract_x
_atom_site_fract_y
_atom_site_fract_z
_atom_type_partial_charge
Mg0 Mg 0.00675 0.3577 0.98435 0.0
O1 O 0.00301 0.36917 0.01393 0.0
O2 O 0.9843 0.37183 0.0047 0.0
Mg3 Mg 0.97681 0.36318 0.96928 0.0
C4 C 0.99412 0.37342 0.01846 0.0
C5 C 0.03354 0.36255 0.01163 0.0
O6 O 0.03726 0.376 0.00703 0.0
O7 O 0.98685 0.3361 0.99204 0.0
O8 O 0.96931 0.3398 0.97978 0.0
O9 O 0.02163 0.37926 0.9702 0.0
O10 O 0.99836 0.36688 0.96282 0.0
C11 C 0.9736 0.33156 0.98785 0.0
C12 C 0.01049 0.37856 0.96055 0.0
O13 O 0.02119 0.35236 0.00539 0.0
Mg14 Mg 0.63886 0.64288 0.05303 0.0
O15 O 0.62399 0.63165 0.0229 0.0
O16 O 0.60243 0.6286 0.03022 0.0
Mg17 Mg 0.60336 0.63688 0.06573 0.0
C18 C 0.61096 0.6273 0.01728 0.0
C19 C 0.66864 0.6477 0.03988 0.0
O20 O 0.66769 0.64238 0.05958 0.0
O21 O 0.63986 0.66417 0.04552 0.0
O22 O 0.61865 0.66061 0.05612 0.0
O23 O 0.63305 0.62141 0.06639 0.0
O24 O 0.62136 0.63312 0.07347 0.0
C25 C 0.63117 0.6688 0.0488 0.0
C26 C 0.62236 0.6216 0.07551 0.0
O27 O 0.65834 0.64907 0.03228 0.0
Mg28 Mg 0.36534 0.99441 0.98315 0.0
O29 O 0.37946 0.99693 0.01339 0.0
O30 O 0.40213 0.01314 0.00611 0.0
Mg31 Mg 0.40251 0.02043 0.97062 0.0
C32 C 0.39272 0.00428 0.01908 0.0
C33 C 0.33392 0.97325 0.9944 0.0
O34 O 0.33382 0.97036 0.9732 0.0
O35 O 0.36737 0.01649 0.99062 0.0
O36 O 0.38971 0.03156 0.98019 0.0
O37 O 0.36892 0.97682 0.96946 0.0
O38 O 0.38242 0.00013 0.9626 0.0
C39 C 0.37767 0.02929 0.98724 0.0
C40 C 0.38004 0.98706 0.96016 0.0
O41 O 0.34554 0.9829 0.00379 0.0
Mg42 Mg 0.98917 0.64476 0.03414 0.0
O43 O 0.99256 0.63351 0.00388 0.0
O44 O 0.0102 0.6291 0.01287 0.0
Mg45 Mg 0.01787 0.63712 0.04835 0.0
C46 C 0.00081 0.62851 -0.00089 0.0
C47 C 0.96294 0.64728 0.01931 0.0
O48 O 0.95812 0.63911 0.03664 0.0
O49 O 0.00975 0.66609 0.0277 0.0
O50 O 0.02652 0.66068 0.03787 0.0
O51 O 0.97355 0.62299 0.04694 0.0
O52 O 0.99676 0.63457 0.055 0.0
C53 C 0.02287 0.66966 0.0308 0.0
C54 C 0.9844 0.62307 0.05657 0.0
O55 O 0.97564 0.65143 0.01334 0.0
Mg56 Mg 0.36516 0.36288 0.97821 0.0
O57 O 0.38102 0.37229 0.00796 0.0
O58 O 0.40179 0.37462 0.99728 0.0
Mg59 Mg 0.39943 0.36736 0.96099 0.0
C60 C 0.39407 0.37586 0.01194 0.0
C61 C 0.34129 0.36541 0.00316 0.0
O62 O 0.3477 0.37821 0.99418 0.0
O63 O 0.36286 0.34062 0.98241 0.0
O64 O 0.38365 0.34373 0.97032 0.0
O65 O 0.37217 0.38527 0.96717 0.0
O66 O 0.38199 0.37231 0.95664 0.0
C67 C 0.37117 0.33569 0.97789 0.0
C68 C 0.38195 0.3844 0.95626 0.0
O69 O 0.34626 0.35691 0.00027 0.0
Mg70 Mg 0.63402 0.00871 0.03758 0.0
O71 O 0.61835 0.00017 0.0075 0.0
O72 O 0.59812 0.98089 0.01813 0.0
Mg73 Mg 0.60092 0.97678 0.05415 0.0
C74 C 0.60553 0.98986 0.00347 0.0
C75 C 0.65828 0.03657 0.01695 0.0
O76 O 0.65309 0.04237 0.03064 0.0
O77 O 0.63842 0.99005 0.03364 0.0
O78 O 0.61809 0.97096 0.04454 0.0
O79 O 0.62496 0.02254 0.04851 0.0
O80 O 0.61699 1e-05 0.05883 0.0
C81 C 0.63082 0.97655 0.03748 0.0
C82 C 0.61576 0.01145 0.05925 0.0
O83 O 0.65253 0.02283 0.01557 0.0
Mg84 Mg 0.67114 0.69221 0.32377 0.0
O85 O 0.66531 0.70165 0.35386 0.0
O86 O 0.64653 0.70376 0.34293 0.0
Mg87 Mg 0.64097 0.69683 0.30657 0.0
C88 C 0.65572 0.70506 0.35772 0.0
C89 C 0.69836 0.6944 0.34721 0.0
O90 O 0.70423 0.70722 0.33829 0.0
O91 O 0.65136 0.66996 0.32822 0.0
O92 O 0.63365 0.67315 0.31527 0.0
O93 O 0.68621 0.71452 0.3123 0.0
O94 O 0.66326 0.70205 0.30263 0.0
C95 C 0.63815 0.66504 0.32312 0.0
C96 C 0.67536 0.71397 0.3019 0.0
O97 O 0.68487 0.68599 0.34506 0.0
Mg98 Mg 0.30237 0.97695 0.38111 0.0
O99 O 0.28757 0.96651 0.35051 0.0
O100 O 0.26614 0.96349 0.35875 0.0
Mg101 Mg 0.26693 0.97092 0.3947 0.0
C102 C 0.27454 0.96239 0.34525 0.0
C103 C 0.32975 0.9776 0.36683 0.0
O104 O 0.32597 0.96926 0.38403 0.0
O105 O 0.30371 0.99864 0.37493 0.0
O106 O 0.28253 0.9948 0.38636 0.0
O107 O 0.29612 0.95507 0.39339 0.0
O108 O 0.28478 0.96694 0.40155 0.0
C109 C 0.29504 0.00319 0.37913 0.0
C110 C 0.2856 0.9553 0.40298 0.0
O111 O 0.32207 0.98296 0.36075 0.0
Mg112 Mg 0.03468 0.33725 0.32055 0.0
O113 O 0.04724 0.33996 0.35294 0.0
O114 O 0.0694 0.35875 0.34978 0.0
Mg115 Mg 0.07121 0.36774 0.31534 0.0
C116 C 0.05987 0.34844 0.36085 0.0
C117 C 0.01003 0.30922 0.34049 0.0
O118 O 0.01839 0.30431 0.33387 0.0
O119 O 0.03287 0.35724 0.3289 0.0
O120 O 0.05522 0.37527 0.32382 0.0
O121 O 0.04211 0.32262 0.30664 0.0
O122 O 0.05362 0.34643 0.30326 0.0
C123 C 0.04216 0.37075 0.32845 0.0
C124 C 0.05315 0.33422 0.2998 0.0
O125 O 0.01378 0.32244 0.3375 0.0
Mg126 Mg 0.66621 0.97922 0.36994 0.0
O127 O 0.67248 0.97041 0.33954 0.0
O128 O 0.69302 0.97111 0.34882 0.0
Mg129 Mg 0.69926 0.97907 0.38457 0.0
C130 C 0.68291 0.96843 0.3349 0.0
C131 C 0.63723 0.97273 0.34629 0.0
O132 O 0.63295 0.95979 0.35413 0.0
O133 O 0.6841 0.00241 0.36376 0.0
O134 O 0.70366 0.00154 0.37415 0.0
O135 O 0.65376 0.95673 0.3828 0.0
O136 O 0.67665 0.97185 0.39066 0.0
C137 C 0.69766 0.00847 0.36692 0.0
C138 C 0.6656 0.95914 0.39242 0.0
O139 O 0.65024 0.98264 0.34933 0.0
Mg140 Mg 0.03242 0.6939 0.31584 0.0
O141 O 0.04848 0.70383 0.34537 0.0
O142 O 0.06883 0.70512 0.33464 0.0
Mg143 Mg 0.06629 0.69708 0.29871 0.0
C144 C 0.06147 0.70707 0.34919 0.0
C145 C 0.00181 0.67734 0.33321 0.0
O146 O 0.00135 0.66845 0.31748 0.0
O147 O 0.02988 0.67167 0.322 0.0
O148 O 0.04991 0.67373 0.30833 0.0
O149 O 0.03951 0.71593 0.30244 0.0
O150 O 0.04932 0.7025 0.29458 0.0
C151 C 0.03763 0.66618 0.31681 0.0
C152 C 0.04939 0.71456 0.29272 0.0
O153 O 0.0135 0.6891 0.33733 0.0
Mg154 Mg 0.30349 0.34396 0.3737 0.0
O155 O 0.28783 0.33476 0.34385 0.0
O156 O 0.26787 0.3152 0.35457 0.0
Mg157 Mg 0.27059 0.31227 0.39129 0.0
C158 C 0.27522 0.32409 0.33976 0.0
C159 C 0.33419 0.36553 0.36066 0.0
O160 O 0.33539 0.36577 0.38231 0.0
O161 O 0.30803 0.32533 0.37076 0.0
O162 O 0.28813 0.30666 0.38349 0.0
O163 O 0.29438 0.35795 0.38351 0.0
O164 O 0.28645 0.33563 0.39485 0.0
C165 C 0.30075 0.31204 0.37604 0.0
C166 C 0.28516 0.34703 0.39454 0.0
O167 O 0.32195 0.35756 0.3514 0.0
Mg168 Mg 0.34677 0.026 0.64988 0.0
O169 O 0.3422 0.03633 0.68004 0.0
O170 O 0.32383 0.03947 0.67041 0.0
Mg171 Mg 0.31713 0.0318 0.63443 0.0
C172 C 0.33327 0.04053 0.68453 0.0
C173 C 0.37164 0.02824 0.68176 0.0
O174 O 0.37567 0.04213 0.68274 0.0
O175 O 0.3267 0.00419 0.6554 0.0
O176 O 0.30915 0.00807 0.64384 0.0
O177 O 0.36197 0.04814 0.63796 0.0
O178 O 0.33889 0.03577 0.62886 0.0
C179 C 0.31345 0.99968 0.65129 0.0
C180 C 0.35103 0.0476 0.62783 0.0
O181 O 0.36036 0.01948 0.67065 0.0
Mg182 Mg 0.96665 0.30868 0.71639 0.0
O183 O 0.95242 0.29688 0.68583 0.0
O184 O 0.93032 0.29263 0.69224 0.0
Mg185 Mg 0.93022 0.30065 0.72749 0.0
C186 C 0.93936 0.29191 0.67971 0.0
C187 C 0.99784 0.31724 0.70686 0.0
O188 O 0.99765 0.31601 0.72841 0.0
O189 O 0.96663 0.32942 0.70818 0.0
O190 O 0.94473 0.32445 0.71756 0.0
O191 O 0.96181 0.28768 0.73046 0.0
O192 O 0.94888 0.29825 0.73621 0.0
C193 C 0.95724 0.33323 0.71071 0.0
C194 C 0.95067 0.28725 0.73896 0.0
O195 O 0.98657 0.3152 0.69662 0.0
Mg196 Mg 0.70016 0.65622 0.65445 0.0
O197 O 0.71614 0.66488 0.68412 0.0
O198 O 0.73661 0.68338 0.67251 0.0
Mg199 Mg 0.73373 0.68678 0.63614 0.0
C200 C 0.72914 0.67492 0.68765 0.0
C201 C 0.67543 0.62922 0.67533 0.0
O202 O 0.68003 0.62318 0.66102 0.0
O203 O 0.6967 0.67557 0.65762 0.0
O204 O 0.71724 0.69363 0.64528 0.0
O205 O 0.70821 0.6414 0.64423 0.0
O206 O 0.71695 0.66377 0.63269 0.0
C207 C 0.7047 0.68886 0.65279 0.0
C208 C 0.71757 0.65199 0.63285 0.0
O209 O 0.68171 0.643 0.67708 0.0
Mg210 Mg 0.32802 0.31131 0.70331 0.0
O211 O 0.33458 0.30167 0.67426 0.0
O212 O 0.3536 0.30037 0.68658 0.0
Mg213 Mg 0.35862 0.30799 0.72264 0.0
C214 C 0.3445 0.29858 0.67134 0.0
C215 C 0.30057 0.30776 0.67941 0.0
O216 O 0.29515 0.29548 0.68987 0.0
O217 O 0.34744 0.33384 0.69859 0.0
O218 O 0.36543 0.33112 0.71176 0.0
O219 O 0.3135 0.28896 0.7152 0.0
O220 O 0.3362 0.3025 0.72577 0.0
C221 C 0.36071 0.33891 0.70337 0.0
C222 C 0.32443 0.29026 0.72637 0.0
O223 O 0.31403 0.31644 0.6807 0.0
Mg224 Mg 0.69885 0.0307 0.64264 0.0
O225 O 0.71386 0.04295 0.6723 0.0
O226 O 0.73605 0.04844 0.66372 0.0
Mg227 Mg 0.73533 0.04051 0.62806 0.0
C228 C 0.72719 0.04861 0.67725 0.0
C229 C 0.66795 0.01172 0.65952 0.0
O230 O 0.66772 0.00336 0.64311 0.0
O231 O 0.69999 0.0102 0.64977 0.0
O232 O 0.72185 0.0167 0.63796 0.0
O233 O 0.70293 0.05181 0.62909 0.0
O234 O 0.71569 0.04138 0.62128 0.0
C235 C 0.70984 0.00725 0.64559 0.0
C236 C 0.71373 0.05229 0.61926 0.0
O237 O 0.67943 0.0236 0.66401 0.0
Mg238 Mg 0.97023 0.68427 0.70461 0.0
O239 O 0.95359 0.67702 0.6759 0.0
O240 O 0.93268 0.65955 0.6882 0.0
Mg241 Mg 0.9357 0.65612 0.72449 0.0
C242 C 0.94031 0.66768 0.67287 0.0
C243 C 0.99871 0.70841 0.68716 0.0
O244 O 0.99803 0.71407 0.70624 0.0
O245 O 0.97117 0.66336 0.70064 0.0
O246 O 0.94999 0.64694 0.71374 0.0
O247 O 0.96453 0.70082 0.71601 0.0
O248 O 0.95426 0.67824 0.7273 0.0
C249 C 0.96206 0.65033 0.70548 0.0
C250 C 0.95492 0.69067 0.72776 0.0
O251 O 0.98846 0.69596 0.68107 0.0
H252 H 0.23661 0.33606 0.14415 0.0
N253 N 0.21289 0.31308 0.12382 0.0
H254 H 0.2466 0.33652 0.18059 0.0
H255 H 0.20241 0.29219 0.15338 0.0
H256 H 0.21244 0.29265 0.19032 0.0
H257 H 0.22328 0.29786 0.10452 0.0
H258 H 0.244 0.30688 0.08091 0.0
H259 H 0.22716 0.34025 0.1061 0.0
H260 H 0.24748 0.34919 0.08196 0.0
H261 H 0.21328 0.33636 0.14534 0.0
H262 H 0.18939 0.3012 0.09791 0.0
H263 H 0.19525 0.34342 0.14258 0.0
H264 H 0.17153 0.30886 0.09387 0.0
H265 H 0.1427 0.36332 0.15492 0.0
H266 H 0.13093 0.3594 0.19032 0.0
H267 H 0.11058 0.31295 0.17853 0.0
H268 H 0.12198 0.31701 0.14304 0.0
H269 H 0.11483 0.31996 0.10686 0.0
H270 H 0.09701 0.32101 0.0827 0.0
H271 H 0.12411 0.36764 0.08018 0.0
H272 H 0.1419 0.3664 0.10411 0.0
H273 H 0.16712 0.36098 0.1242 0.0
H274 H 0.18562 0.35428 0.12077 0.0
H275 H 0.15265 0.30914 0.11199 0.0
N276 N 0.13909 0.34341 0.12462 0.0
H277 H 0.1344 0.31618 0.11365 0.0
C278 C 0.21877 0.31394 0.14581 0.0
C279 C 0.23125 0.32646 0.15392 0.0
C280 C 0.237 0.32673 0.17482 0.0
C281 C 0.23039 0.31457 0.1882 0.0
C282 C 0.21774 0.30219 0.18036 0.0
C283 C 0.21203 0.30189 0.15931 0.0
C284 C 0.22359 0.31826 0.10707 0.0
C285 C 0.22837 0.30899 0.09927 0.0
C286 C 0.24019 0.31418 0.08574 0.0
C287 C 0.24748 0.3288 0.07967 0.0
C288 C 0.24226 0.33793 0.08663 0.0
C289 C 0.23048 0.33276 0.10026 0.0
C290 C 0.20257 0.31796 0.12212 0.0
C291 C 0.20418 0.33013 0.13422 0.0
C292 C 0.19388 0.33435 0.13234 0.0
C293 C 0.18186 0.32677 0.11793 0.0
C294 C 0.18048 0.31483 0.10542 0.0
C295 C 0.1907 0.31046 0.10759 0.0
C296 C 0.13327 0.34054 0.14634 0.0
C297 C 0.13586 0.35232 0.1602 0.0
C298 C 0.12919 0.35003 0.18046 0.0
C299 C 0.11978 0.33583 0.18726 0.0
C300 C 0.11763 0.32401 0.17367 0.0
C301 C 0.12425 0.32634 0.15335 0.0
C302 C 0.12973 0.34316 0.10725 0.0
C303 C 0.11711 0.33035 0.10067 0.0
C304 C 0.10685 0.33098 0.087 0.0
C305 C 0.10906 0.34442 0.07966 0.0
C306 C 0.12209 0.35709 0.0853 0.0
C307 C 0.13229 0.35643 0.09897 0.0
C308 C 0.14944 0.3391 0.11966 0.0
C309 C 0.16396 0.34969 0.12109 0.0
C310 C 0.17449 0.34578 0.11941 0.0
C311 C 0.17068 0.33109 0.11668 0.0
C312 C 0.15605 0.32056 0.11407 0.0
C313 C 0.14553 0.32455 0.11532 0.0
H314 H 0.71136 0.80335 0.15024 0.0
N315 N 0.69275 0.80917 0.13041 0.0
H316 H 0.70836 0.79056 0.18478 0.0
H317 H 0.67089 0.80143 0.15901 0.0
H318 H 0.66758 0.7882 0.1932 0.0
H319 H 0.66418 0.78912 0.12442 0.0
H320 H 0.65399 0.7681 0.09924 0.0
H321 H 0.70587 0.8042 0.0975 0.0
H322 H 0.69563 0.78317 0.07168 0.0
H323 H 0.71191 0.83483 0.14773 0.0
H324 H 0.67134 0.81322 0.11165 0.0
H325 H 0.71121 0.85736 0.1483 0.0
H326 H 0.67103 0.83582 0.11089 0.0
H327 H 0.71128 0.92827 0.14926 0.0
H328 H 0.71032 0.9394 0.18433 0.0
H329 H 0.66928 0.90145 0.19631 0.0
H330 H 0.67095 0.89014 0.16237 0.0
H331 H 0.66376 0.89709 0.13022 0.0
H332 H 0.65321 0.906 0.10394 0.0
H333 H 0.69119 0.92249 0.06479 0.0
H334 H 0.70224 0.91466 0.0928 0.0
H335 H 0.71393 0.89907 0.12802 0.0
H336 H 0.71402 0.87617 0.12645 0.0
H337 H 0.66787 0.85269 0.1315 0.0
N338 N 0.69163 0.90291 0.13128 0.0
H339 H 0.66792 0.87565 0.13134 0.0
C340 C 0.69131 0.80316 0.15197 0.0
C341 C 0.70192 0.80031 0.1598 0.0
C342 C 0.70021 0.79306 0.1795 0.0
C343 C 0.6877 0.78835 0.19154 0.0
C344 C 0.67726 0.79163 0.18409 0.0
C345 C 0.67912 0.79913 0.16457 0.0
C346 C 0.68588 0.79827 0.11293 0.0
C347 C 0.67111 0.78813 0.11271 0.0
C348 C 0.66524 0.77611 0.09811 0.0
C349 C 0.67401 0.7739 0.08352 0.0
C350 C 0.68862 0.78449 0.08289 0.0
C351 C 0.69447 0.79655 0.09748 0.0
C352 C 0.6918 0.82225 0.12967 0.0
C353 C 0.70292 0.83498 0.13972 0.0
C354 C 0.70255 0.8479 0.13983 0.0
C355 C 0.69111 0.84853 0.12944 0.0
C356 C 0.67992 0.83576 0.11933 0.0
C357 C 0.68017 0.82273 0.1196 0.0
C358 C 0.6912 0.90846 0.15299 0.0
C359 C 0.70222 0.92231 0.15973 0.0
C360 C 0.70153 0.92872 0.17966 0.0
C361 C 0.68959 0.92148 0.19317 0.0
C362 C 0.67874 0.90737 0.18663 0.0
C363 C 0.67961 0.90087 0.16693 0.0
C364 C 0.68407 0.90567 0.11392 0.0
C365 C 0.66989 0.90264 0.11609 0.0
C366 C 0.66372 0.90759 0.10062 0.0
C367 C 0.67136 0.91526 0.08216 0.0
C368 C 0.68509 0.9171 0.07908 0.0
C369 C 0.6914 0.91249 0.09494 0.0
C370 C 0.69102 0.88909 0.13017 0.0
C371 C 0.70386 0.88894 0.12868 0.0
C372 C 0.70386 0.87582 0.128 0.0
C373 C 0.69096 0.86249 0.12919 0.0
C374 C 0.67802 0.86268 0.13038 0.0
C375 C 0.67803 0.87585 0.13063 0.0
H376 H 0.13118 0.76319 0.13347 0.0
N377 N 0.13924 0.78868 0.11567 0.0
H378 H 0.11749 0.75347 0.1666 0.0
H379 H 0.13017 0.80287 0.14346 0.0
H380 H 0.1175 0.79381 0.17769 0.0
H381 H 0.11719 0.79334 0.10459 0.0
H382 H 0.09753 0.77852 0.07822 0.0
H383 H 0.13882 0.77033 0.08509 0.0
H384 H 0.11912 0.75517 0.05919 0.0
H385 H 0.16221 0.80048 0.14252 0.0
H386 H 0.14215 0.81126 0.08961 0.0
H387 H 0.18057 0.82584 0.14704 0.0
H388 H 0.16109 0.8364 0.0928 0.0
H389 H 0.2375 0.89417 0.15516 0.0
H390 H 0.2475 0.90526 0.19141 0.0
H391 H 0.21379 0.91568 0.19862 0.0
H392 H 0.20423 0.90506 0.16181 0.0
H393 H 0.21978 0.91754 0.11219 0.0
H394 H 0.23841 0.93092 0.08549 0.0
H395 H 0.25217 0.89923 0.09052 0.0
H396 H 0.23354 0.88592 0.11662 0.0
H397 H 0.21824 0.87053 0.14173 0.0
H398 H 0.20064 0.84513 0.13457 0.0
H399 H 0.16971 0.85747 0.11358 0.0
N400 N 0.21485 0.89394 0.13339 0.0
H401 H 0.18803 0.883 0.11875 0.0
C402 C 0.13187 0.78377 0.13616 0.0
C403 C 0.12824 0.7699 0.14315 0.0
C404 C 0.12052 0.76445 0.16227 0.0
C405 C 0.11648 0.77289 0.17518 0.0
C406 C 0.12023 0.78688 0.16816 0.0
C407 C 0.12766 0.79219 0.14868 0.0
C408 C 0.12948 0.7829 0.09677 0.0
C409 C 0.11788 0.78537 0.09416 0.0
C410 C 0.10659 0.77678 0.07921 0.0
C411 C 0.10659 0.76547 0.06677 0.0
C412 C 0.11876 0.76384 0.06825 0.0
C413 C 0.13006 0.77249 0.08308 0.0
C414 C 0.15053 0.80379 0.1161 0.0
C415 C 0.16188 0.80829 0.13164 0.0
C416 C 0.17251 0.82286 0.13403 0.0
C417 C 0.17242 0.83337 0.12036 0.0
C418 C 0.16137 0.82877 0.1041 0.0
C419 C 0.15048 0.81421 0.10211 0.0
C420 C 0.22016 0.89895 0.15566 0.0
C421 C 0.2322 0.89876 0.16454 0.0
C422 C 0.23788 0.90506 0.18541 0.0
C423 C 0.23156 0.91154 0.19791 0.0
C424 C 0.21915 0.91111 0.18929 0.0
C425 C 0.21357 0.90493 0.16837 0.0
C426 C 0.22515 0.90071 0.11639 0.0
C427 C 0.22671 0.91342 0.10724 0.0
C428 C 0.23741 0.92108 0.09216 0.0
C429 C 0.2468 0.91615 0.08594 0.0
C430 C 0.245 0.90322 0.09472 0.0
C431 C 0.23431 0.89558 0.10981 0.0
C432 C 0.20453 0.87871 0.13027 0.0
C433 C 0.2078 0.86781 0.13509 0.0
C434 C 0.19754 0.85317 0.13132 0.0
C435 C 0.1836 0.84905 0.12343 0.0
C436 C 0.18035 0.86008 0.11909 0.0
C437 C 0.19075 0.87471 0.12228 0.0
H438 H 0.339 0.22044 0.87988 0.0
N439 N 0.31603 0.19587 0.8953 0.0
H440 H 0.33951 0.23297 0.84648 0.0
H441 H 0.29512 0.18772 0.86475 0.0
H442 H 0.29558 0.20029 0.83087 0.0
H443 H 0.30127 0.20675 0.91421 0.0
H444 H 0.31064 0.22804 0.93918 0.0
H445 H 0.34185 0.20795 0.91963 0.0
H446 H 0.35102 0.22889 0.94447 0.0
H447 H 0.34243 0.20049 0.88323 0.0
H448 H 0.30054 0.16763 0.90291 0.0
H449 H 0.34994 0.18266 0.88066 0.0
H450 H 0.30755 0.14915 0.89838 0.0
H451 H 0.37067 0.1214 0.86192 0.0
H452 H 0.36739 0.10648 0.82883 0.0
H453 H 0.32269 0.09446 0.82471 0.0
H454 H 0.32601 0.10889 0.85847 0.0
H455 H 0.3326 0.09597 0.89217 0.0
H456 H 0.33534 0.08284 0.92213 0.0
H457 H 0.36991 0.12321 0.95047 0.0
H458 H 0.36801 0.13599 0.91868 0.0
H459 H 0.35806 0.14759 0.85869 0.0
H460 H 0.34863 0.16409 0.86007 0.0
H461 H 0.32046 0.13904 0.912 0.0
N462 N 0.35093 0.12454 0.88293 0.0
H463 H 0.32895 0.12181 0.9088 0.0
C464 C 0.31696 0.20304 0.87484 0.0
C465 C 0.32952 0.21578 0.86918 0.0
C466 C 0.32982 0.22295 0.84997 0.0
C467 C 0.3176 0.2176 0.83598 0.0
C468 C 0.30514 0.20472 0.84141 0.0
C469 C 0.30486 0.19751 0.86065 0.0
C470 C 0.32078 0.20576 0.91439 0.0
C471 C 0.312 0.21125 0.92129 0.0
C472 C 0.31737 0.22342 0.9356 0.0
C473 C 0.33168 0.23032 0.94341 0.0
C474 C 0.34005 0.224 0.93827 0.0
C475 C 0.3347 0.21188 0.92391 0.0
C476 C 0.32093 0.18549 0.8938 0.0
C477 C 0.33476 0.18939 0.88694 0.0
C478 C 0.339 0.17901 0.88509 0.0
C479 C 0.32936 0.16428 0.88909 0.0
C480 C 0.31542 0.16037 0.89556 0.0
C481 C 0.31133 0.17089 0.89804 0.0
C482 C 0.34868 0.11639 0.86248 0.0
C483 C 0.36021 0.11561 0.85372 0.0
C484 C 0.3583 0.10712 0.83475 0.0
C485 C 0.34477 0.09928 0.82396 0.0
C486 C 0.33321 0.10019 0.83269 0.0
C487 C 0.33512 0.10858 0.85185 0.0
C488 C 0.35057 0.11692 0.90265 0.0
C489 C 0.34083 0.10202 0.90473 0.0
C490 C 0.34227 0.09451 0.92233 0.0
C491 C 0.35312 0.10179 0.9388 0.0
C492 C 0.36183 0.11701 0.93777 0.0
C493 C 0.36068 0.12442 0.91973 0.0
C494 C 0.34447 0.1336 0.8838 0.0
C495 C 0.34972 0.14559 0.87016 0.0
C496 C 0.34441 0.15514 0.87124 0.0
C497 C 0.33398 0.15323 0.88659 0.0
C498 C 0.32841 0.14092 0.89987 0.0
C499 C 0.33342 0.13109 0.89826 0.0
H500 H 0.75653 0.12704 0.85451 0.0
N501 N 0.77609 0.12888 0.88346 0.0
H502 H 0.7493 0.11375 0.8191 0.0
H503 H 0.78875 0.11482 0.86389 0.0
H504 H 0.78219 0.10216 0.8279 0.0
H505 H 0.76888 0.1011 0.89376 0.0
H506 H 0.75029 0.08542 0.91892 0.0
H507 H 0.76131 0.13626 0.91008 0.0
H508 H 0.74265 0.12062 0.93538 0.0
H509 H 0.7934 0.15609 0.87242 0.0
H510 H 0.79251 0.12141 0.90941 0.0
H511 H 0.81871 0.17166 0.88241 0.0
H512 H 0.81753 0.13713 0.92072 0.0
H513 H 0.8856 0.22 0.90547 0.0
H514 H 0.8939 0.23295 0.8715 0.0
H515 H 0.89189 0.19494 0.84055 0.0
H516 H 0.88467 0.18246 0.87552 0.0
H517 H 0.90921 0.20565 0.92023 0.0
H518 H 0.92413 0.22615 0.94478 0.0
H519 H 0.88628 0.22081 0.97673 0.0
H520 H 0.8714 0.20092 0.95124 0.0
H521 H 0.86081 0.20119 0.91506 0.0
H522 H 0.83501 0.18534 0.9107 0.0
H523 H 0.84084 0.14794 0.90788 0.0
N524 N 0.88102 0.19278 0.91382 0.0
H525 H 0.86663 0.16396 0.91371 0.0
C526 C 0.77323 0.12208 0.86172 0.0
C527 C 0.76225 0.12174 0.84862 0.0
C528 C 0.7582 0.11418 0.82831 0.0
C529 C 0.76519 0.10689 0.82045 0.0
C530 C 0.77643 0.10747 0.83348 0.0
C531 C 0.78034 0.11488 0.85399 0.0
C532 C 0.76637 0.11985 0.89994 0.0
C533 C 0.76331 0.10549 0.90292 0.0
C534 C 0.75264 0.09652 0.91724 0.0
C535 C 0.74494 0.10176 0.92897 0.0
C536 C 0.74847 0.11631 0.92668 0.0
C537 C 0.75907 0.12524 0.91224 0.0
C538 C 0.79098 0.13768 0.89027 0.0
C539 C 0.79865 0.15193 0.88297 0.0
C540 C 0.81309 0.16085 0.88895 0.0
C541 C 0.82022 0.15578 0.90268 0.0
C542 C 0.81249 0.14142 0.91 0.0
C543 C 0.79806 0.13241 0.90369 0.0
C544 C 0.88486 0.20033 0.89321 0.0
C545 C 0.88699 0.21445 0.89142 0.0
C546 C 0.89157 0.22181 0.87174 0.0
C547 C 0.89369 0.21509 0.85308 0.0
C548 C 0.89078 0.20066 0.85463 0.0
C549 C 0.88654 0.19343 0.87455 0.0
C550 C 0.88911 0.20207 0.93278 0.0
C551 C 0.90411 0.20875 0.93277 0.0
C552 C 0.91269 0.2205 0.94707 0.0
C553 C 0.90649 0.22561 0.96248 0.0
C554 C 0.89148 0.21771 0.96442 0.0
C555 C 0.88287 0.20616 0.94967 0.0
C556 C 0.86567 0.18372 0.91514 0.0
C557 C 0.8565 0.18956 0.91422 0.0
C558 C 0.84171 0.18044 0.91133 0.0
C559 C 0.83575 0.1653 0.90858 0.0
C560 C 0.84493 0.15949 0.91023 0.0
C561 C 0.8597 0.16862 0.91357 0.0
H562 H 0.78302 0.71803 0.88386 0.0
N563 N 0.79222 0.70307 0.90661 0.0
H564 H 0.77235 0.71268 0.84651 0.0
H565 H 0.78828 0.6805 0.87931 0.0
H566 H 0.77792 0.6752 0.8417 0.0
H567 H 0.77226 0.67438 0.91154 0.0
H568 H 0.75255 0.66483 0.93707 0.0
H569 H 0.78806 0.71759 0.93893 0.0
H570 H 0.76848 0.70808 0.96498 0.0
H571 H 0.81766 0.72442 0.8958 0.0
H572 H 0.7971 0.68228 0.92496 0.0
H573 H 0.84071 0.72554 0.89922 0.0
H574 H 0.82019 0.68371 0.92997 0.0
H575 H 0.91389 0.72518 0.89764 0.0
H576 H 0.92287 0.7243 0.86135 0.0
H577 H 0.87969 0.69357 0.83823 0.0
H578 H 0.87105 0.69368 0.87468 0.0
H579 H 0.88169 0.6808 0.90488 0.0
H580 H 0.89267 0.66897 0.92503 0.0
H581 H 0.91389 0.70635 0.96972 0.0
H582 H 0.90301 0.71819 0.94916 0.0
H583 H 0.88236 0.7302 0.92047 0.0
H584 H 0.85914 0.72881 0.92275 0.0
H585 H 0.83805 0.68221 0.9115 0.0
N586 N 0.88751 0.70878 0.9118 0.0
H587 H 0.86129 0.68371 0.91096 0.0
C588 C 0.7865 0.69977 0.88426 0.0
C589 C 0.78198 0.70871 0.87465 0.0
C590 C 0.77595 0.70566 0.8533 0.0
C591 C 0.77434 0.69354 0.84106 0.0
C592 C 0.77888 0.68453 0.85075 0.0
C593 C 0.7849 0.6876 0.87218 0.0
C594 C 0.7816 0.69677 0.92329 0.0
C595 C 0.77163 0.68179 0.92331 0.0
C596 C 0.76039 0.67632 0.93803 0.0
C597 C 0.75888 0.68572 0.95294 0.0
C598 C 0.76922 0.7006 0.95346 0.0
C599 C 0.78046 0.70604 0.93876 0.0
C600 C 0.80565 0.70342 0.91026 0.0
C601 C 0.81819 0.71554 0.90334 0.0
C602 C 0.83139 0.71619 0.90555 0.0
C603 C 0.83246 0.70479 0.91514 0.0
C604 C 0.81985 0.69265 0.92228 0.0
C605 C 0.80656 0.69188 0.91964 0.0
C606 C 0.89184 0.70956 0.88917 0.0
C607 C 0.90636 0.71841 0.88461 0.0
C608 C 0.91145 0.71796 0.86374 0.0
C609 C 0.90204 0.70877 0.84674 0.0
C610 C 0.88734 0.70052 0.85099 0.0
C611 C 0.88231 0.70073 0.872 0.0
C612 C 0.89157 0.70043 0.92557 0.0
C613 C 0.8884 0.68629 0.91934 0.0
C614 C 0.89472 0.67954 0.93088 0.0
C615 C 0.90431 0.6868 0.94881 0.0
C616 C 0.90677 0.70058 0.95573 0.0
C617 C 0.90046 0.7073 0.94419 0.0
C618 C 0.8736 0.70716 0.91527 0.0
C619 C 0.87268 0.71969 0.91891 0.0
C620 C 0.85937 0.71885 0.91992 0.0
C621 C 0.8466 0.70542 0.91681 0.0
C622 C 0.84756 0.69275 0.91415 0.0
C623 C 0.86092 0.69359 0.91367 0.0
H624 H 0.77238 0.61844 0.47187 0.0
N625 N 0.78393 0.64069 0.44485 0.0
H626 H 0.76523 0.61859 0.51006 0.0
H627 H 0.78861 0.66457 0.4695 0.0
H628 H 0.7813 0.66479 0.5071 0.0
H629 H 0.7948 0.66833 0.42955 0.0
H630 H 0.78091 0.67767 0.41076 0.0
H631 H 0.75772 0.62535 0.42746 0.0
H632 H 0.74381 0.63452 0.4084 0.0
H633 H 0.79053 0.62345 0.42211 0.0
H634 H 0.80963 0.66456 0.45794 0.0
H635 H 0.81405 0.62542 0.41985 0.0
H636 H 0.83297 0.66628 0.45683 0.0
H637 H 0.87597 0.62471 0.48275 0.0
H638 H 0.88543 0.62874 0.52068 0.0
H639 H 0.89969 0.67455 0.51602 0.0
H640 H 0.88907 0.67005 0.4789 0.0
H641 H 0.89874 0.67153 0.44505 0.0
H642 H 0.91898 0.67702 0.42207 0.0
H643 H 0.90022 0.63131 0.4049 0.0
H644 H 0.88029 0.62589 0.42903 0.0
H645 H 0.8508 0.62206 0.45311 0.0
H646 H 0.82863 0.62241 0.44638 0.0
H647 H 0.85314 0.66879 0.43734 0.0
N648 N 0.87721 0.64433 0.45514 0.0
H649 H 0.87527 0.6683 0.44487 0.0
C650 C 0.78093 0.64141 0.46779 0.0
C651 C 0.77451 0.6286 0.47967 0.0
C652 C 0.7704 0.62871 0.5014 0.0
C653 C 0.77267 0.6417 0.51162 0.0
C654 C 0.77959 0.65464 0.49989 0.0
C655 C 0.78368 0.6545 0.47823 0.0
C656 C 0.77724 0.64609 0.42994 0.0
C657 C 0.78379 0.66082 0.42454 0.0
C658 C 0.77582 0.66616 0.4138 0.0
C659 C 0.7612 0.65687 0.40842 0.0
C660 C 0.75498 0.642 0.4127 0.0
C661 C 0.76293 0.63671 0.42333 0.0
C662 C 0.79823 0.64367 0.44044 0.0
C663 C 0.79984 0.633 0.42919 0.0
C664 C 0.81327 0.63408 0.42815 0.0
C665 C 0.82538 0.64584 0.43864 0.0
C666 C 0.82392 0.65708 0.44854 0.0
C667 C 0.81049 0.65606 0.44933 0.0
C668 C 0.88204 0.64707 0.4779 0.0
C669 C 0.88099 0.63556 0.49013 0.0
C670 C 0.88658 0.63796 0.51172 0.0
C671 C 0.89366 0.65206 0.52144 0.0
C672 C 0.89429 0.66353 0.50928 0.0
C673 C 0.88838 0.66103 0.48782 0.0
C674 C 0.88806 0.64821 0.43898 0.0
C675 C 0.89888 0.66268 0.43626 0.0
C676 C 0.91046 0.66583 0.4229 0.0
C677 C 0.91138 0.6546 0.4118 0.0
C678 C 0.90007 0.64021 0.41361 0.0
C679 C 0.88859 0.63708 0.42715 0.0
C680 C 0.86462 0.64507 0.44945 0.0
C681 C 0.85135 0.63225 0.44945 0.0
C682 C 0.8387 0.63249 0.4454 0.0
C683 C 0.83905 0.64563 0.44112 0.0
C684 C 0.85246 0.6585 0.44073 0.0
C685 C 0.86514 0.65824 0.44492 0.0
H686 H 0.37949 0.13407 0.47216 0.0
N687 N 0.36246 0.14443 0.46147 0.0
H688 H 0.37892 0.121 0.50511 0.0
H689 H 0.34684 0.14165 0.49855 0.0
H690 H 0.34684 0.1295 0.53202 0.0
H691 H 0.33416 0.1236 0.4633 0.0
H692 H 0.32154 0.10222 0.43876 0.0
H693 H 0.37154 0.13966 0.42351 0.0
H694 H 0.35895 0.11818 0.39877 0.0
H695 H 0.38435 0.17095 0.45657 0.0
H696 H 0.33876 0.14753 0.46551 0.0
H697 H 0.3842 0.19384 0.45694 0.0
H698 H 0.33857 0.17027 0.46747 0.0
H699 H 0.38074 0.26205 0.49274 0.0
H700 H 0.37669 0.27063 0.5283 0.0
H701 H 0.33415 0.23322 0.52888 0.0
H702 H 0.33853 0.2243 0.49384 0.0
H703 H 0.33431 0.23033 0.4591 0.0
H704 H 0.32579 0.24097 0.43199 0.0
H705 H 0.36916 0.26863 0.41128 0.0
H706 H 0.3777 0.25776 0.43875 0.0
H707 H 0.38262 0.23321 0.48237 0.0
H708 H 0.38236 0.21016 0.48057 0.0
H709 H 0.3404 0.18983 0.44839 0.0
N710 N 0.36237 0.23868 0.46894 0.0
H711 H 0.34037 0.21255 0.45165 0.0
C712 C 0.36333 0.13894 0.48273 0.0
C713 C 0.37252 0.13329 0.48536 0.0
C714 C 0.37221 0.12588 0.50433 0.0
C715 C 0.36278 0.12409 0.52134 0.0
C716 C 0.35405 0.13038 0.51913 0.0
C717 C 0.35418 0.13757 0.49996 0.0
C718 C 0.35383 0.13328 0.44514 0.0
C719 C 0.33949 0.12279 0.44883 0.0
C720 C 0.33228 0.11053 0.43478 0.0
C721 C 0.3393 0.10847 0.41692 0.0
C722 C 0.35332 0.11941 0.41251 0.0
C723 C 0.36049 0.13171 0.4265 0.0
C724 C 0.36167 0.15756 0.46124 0.0
C725 C 0.37433 0.17079 0.45878 0.0
C726 C 0.37421 0.18387 0.45924 0.0
C727 C 0.36139 0.18402 0.46254 0.0
C728 C 0.34863 0.17066 0.46464 0.0
C729 C 0.34874 0.15756 0.46375 0.0
C730 C 0.35992 0.2427 0.49056 0.0
C731 C 0.37064 0.25562 0.50072 0.0
C732 C 0.36831 0.26049 0.52092 0.0
C733 C 0.35508 0.25262 0.5311 0.0
C734 C 0.34438 0.23952 0.52115 0.0
C735 C 0.34685 0.23447 0.50115 0.0
C736 C 0.35672 0.2432 0.45093 0.0
C737 C 0.34201 0.23839 0.44846 0.0
C738 C 0.33711 0.24446 0.43279 0.0
C739 C 0.3468 0.25562 0.41946 0.0
C740 C 0.36145 0.26007 0.42138 0.0
C741 C 0.36633 0.25385 0.43694 0.0
C742 C 0.36167 0.22479 0.467 0.0
C743 C 0.37337 0.22374 0.47498 0.0
C744 C 0.37323 0.21055 0.47372 0.0
C745 C 0.36141 0.19806 0.4641 0.0
C746 C 0.34963 0.19912 0.45616 0.0
C747 C 0.34967 0.21228 0.45782 0.0
H748 H 0.78469 0.12209 0.45975 0.0
N749 N 0.78646 0.14742 0.4465 0.0
H750 H 0.77509 0.10986 0.49413 0.0
H751 H 0.776 0.15605 0.47931 0.0
H752 H 0.76594 0.14352 0.51383 0.0
H753 H 0.75952 0.13698 0.43256 0.0
H754 H 0.74548 0.11605 0.40767 0.0
H755 H 0.79779 0.13574 0.41661 0.0
H756 H 0.78391 0.11517 0.39176 0.0
H757 H 0.80753 0.14028 0.45268 0.0
H758 H 0.80022 0.17611 0.44267 0.0
H759 H 0.83301 0.15687 0.45625 0.0
H760 H 0.82591 0.19313 0.44797 0.0
H761 H 0.91246 0.21747 0.49801 0.0
H762 H 0.92013 0.23067 0.53353 0.0
H763 H 0.88705 0.24214 0.52659 0.0
H764 H 0.88 0.22951 0.49052 0.0
H765 H 0.89675 0.24169 0.45765 0.0
H766 H 0.91439 0.25745 0.43135 0.0
H767 H 0.92561 0.22432 0.41843 0.0
H768 H 0.90772 0.20854 0.44449 0.0
H769 H 0.87549 0.18945 0.48748 0.0
H770 H 0.8499 0.17319 0.48111 0.0
H771 H 0.84896 0.20317 0.43465 0.0
N772 N 0.89204 0.21512 0.47037 0.0
H773 H 0.87428 0.21981 0.44244 0.0
C774 C 0.78125 0.14016 0.46707 0.0
C775 C 0.78096 0.12708 0.47161 0.0
C776 C 0.77543 0.12005 0.49128 0.0
C777 C 0.76987 0.12581 0.50668 0.0
C778 C 0.77016 0.13887 0.5022 0.0
C779 C 0.77591 0.14603 0.4826 0.0
C780 C 0.77967 0.13781 0.42735 0.0
C781 C 0.76499 0.13252 0.42325 0.0
C782 C 0.75697 0.12055 0.40895 0.0
C783 C 0.76353 0.1137 0.39816 0.0
C784 C 0.77847 0.11994 0.40038 0.0
C785 C 0.78648 0.13183 0.41482 0.0
C786 C 0.80184 0.1569 0.44694 0.0
C787 C 0.81137 0.15174 0.45114 0.0
C788 C 0.82606 0.16135 0.45354 0.0
C789 C 0.83165 0.17645 0.4527 0.0
C790 C 0.82212 0.1816 0.44838 0.0
C791 C 0.8074 0.1719 0.44542 0.0
C792 C 0.89562 0.22238 0.49179 0.0
C793 C 0.90686 0.2228 0.50428 0.0
C794 C 0.91114 0.23027 0.52464 0.0
C795 C 0.90415 0.23742 0.53309 0.0
C796 C 0.89279 0.23692 0.52053 0.0
C797 C 0.88863 0.22957 0.49999 0.0
C798 C 0.90097 0.22392 0.45301 0.0
C799 C 0.90285 0.23774 0.44889 0.0
C800 C 0.913 0.24677 0.43395 0.0
C801 C 0.92149 0.24219 0.42292 0.0
C802 C 0.91915 0.22813 0.42644 0.0
C803 C 0.90898 0.21911 0.44135 0.0
C804 C 0.87694 0.20576 0.46534 0.0
C805 C 0.86972 0.19249 0.47593 0.0
C806 C 0.85508 0.18313 0.47206 0.0
C807 C 0.84727 0.18668 0.45705 0.0
C808 C 0.85452 0.20007 0.44646 0.0
C809 C 0.86915 0.20959 0.45074 0.0
H810 H 0.99705 0.55119 0.20635 0.0
N811 N 0.97363 0.52825 0.224 0.0
H812 H 0.99768 0.5628 0.17186 0.0
H813 H 0.95255 0.51951 0.19353 0.0
H814 H 0.95305 0.53125 0.15873 0.0
H815 H 0.96624 0.54894 0.22798 0.0
H816 H 0.97525 0.56895 0.25452 0.0
H817 H 0.98886 0.53117 0.26344 0.0
H818 H 0.99761 0.55112 0.29037 0.0
H819 H 0.00207 0.53595 0.22557 0.0
H820 H 0.95905 0.49941 0.22133 0.0
H821 H 0.01166 0.51964 0.22277 0.0
H822 H 0.96854 0.48289 0.21746 0.0
H823 H 0.03501 0.46028 0.18936 0.0
H824 H 0.03113 0.44449 0.15716 0.0
H825 H 0.98589 0.43033 0.15699 0.0
H826 H 0.98986 0.44565 0.18988 0.0
H827 H 0.99589 0.43613 0.22633 0.0
H828 H 0.99921 0.42367 0.2573 0.0
H829 H 0.03995 0.46198 0.27381 0.0
H830 H 0.0367 0.47419 0.24219 0.0
H831 H 0.02522 0.48894 0.19502 0.0
H832 H 0.01483 0.5047 0.19762 0.0
H833 H 0.98034 0.47235 0.23558 0.0
N834 N 0.01556 0.46295 0.21187 0.0
H835 H 0.99034 0.4564 0.23164 0.0
C836 C 0.97473 0.53435 0.20247 0.0
C837 C 0.98752 0.54644 0.19578 0.0
C838 C 0.98785 0.55312 0.17603 0.0
C839 C 0.97541 0.54794 0.16256 0.0
C840 C 0.96277 0.53555 0.16886 0.0
C841 C 0.96247 0.52879 0.18861 0.0
C842 C 0.97787 0.53906 0.24205 0.0
C843 C 0.97324 0.54932 0.24132 0.0
C844 C 0.97822 0.56073 0.25689 0.0
C845 C 0.98753 0.56195 0.27435 0.0
C846 C 0.99093 0.55086 0.27661 0.0
C847 C 0.98599 0.53943 0.26087 0.0
C848 C 0.97976 0.51887 0.22395 0.0
C849 C 0.99466 0.5244 0.22391 0.0
C850 C 0.00014 0.515 0.22215 0.0
C851 C 0.99091 0.49988 0.21974 0.0
C852 C 0.97601 0.49441 0.21968 0.0
C853 C 0.97054 0.50383 0.22183 0.0
C854 C 0.01282 0.4543 0.19186 0.0
C855 C 0.02429 0.45384 0.1822 0.0
C856 C 0.02203 0.44484 0.16373 0.0
C857 C 0.00818 0.43613 0.1543 0.0
C858 C 0.99667 0.43672 0.16391 0.0
C859 C 0.99894 0.44563 0.1826 0.0
C860 C 0.01622 0.45603 0.23175 0.0
C861 C 0.00545 0.44191 0.23675 0.0
C862 C 0.00731 0.43484 0.25464 0.0
C863 C 0.01992 0.44178 0.26793 0.0
C864 C 0.03023 0.45624 0.26368 0.0
C865 C 0.02839 0.46326 0.24572 0.0
C866 C 0.00874 0.47163 0.21334 0.0
C867 C 0.01537 0.48527 0.20376 0.0
C868 C 0.00947 0.4943 0.20549 0.0
C869 C 0.99683 0.48994 0.21713 0.0
C870 C 0.99001 0.47608 0.22636 0.0
C871 C 0.99583 0.46695 0.22431 0.0
H872 H 0.57295 0.52865 0.22231 0.0
N873 N 0.55051 0.52455 0.24512 0.0
H874 H 0.58141 0.54188 0.188 0.0
H875 H 0.53619 0.5345 0.21957 0.0
H876 H 0.54471 0.54796 0.18564 0.0
H877 H 0.54269 0.54486 0.25535 0.0
H878 H 0.5559 0.5659 0.27992 0.0
H879 H 0.57054 0.5286 0.27497 0.0
H880 H 0.58382 0.54972 0.30013 0.0
H881 H 0.54614 0.49793 0.24 0.0
H882 H 0.52402 0.52154 0.25257 0.0
H883 H 0.52326 0.47519 0.23742 0.0
H884 H 0.50111 0.49887 0.25049 0.0
H885 H 0.46567 0.41806 0.19655 0.0
H886 H 0.45565 0.41035 0.15884 0.0
H887 H 0.42879 0.42924 0.16887 0.0
H888 H 0.43896 0.4371 0.20623 0.0
H889 H 0.44594 0.44579 0.24578 0.0
H890 H 0.42535 0.43564 0.26971 0.0
H891 H 0.42456 0.3946 0.26821 0.0
H892 H 0.44504 0.40481 0.24391 0.0
H893 H 0.48103 0.4352 0.25003 0.0
H894 H 0.50323 0.45815 0.25796 0.0
H895 H 0.48583 0.48101 0.22236 0.0
N896 N 0.45811 0.43102 0.22703 0.0
H897 H 0.46357 0.4581 0.21519 0.0
C898 C 0.55408 0.53072 0.22361 0.0
C899 C 0.56661 0.5326 0.2141 0.0
C900 C 0.57138 0.5401 0.19454 0.0
C901 C 0.56373 0.546 0.18429 0.0
C902 C 0.55086 0.54363 0.19335 0.0
C903 C 0.546 0.53595 0.21277 0.0
C904 C 0.55562 0.53505 0.26326 0.0
C905 C 0.55129 0.54546 0.26554 0.0
C906 C 0.55891 0.55759 0.27971 0.0
C907 C 0.57104 0.5596 0.29183 0.0
C908 C 0.57466 0.54861 0.29078 0.0
C909 C 0.56701 0.53647 0.27661 0.0
C910 C 0.53687 0.51142 0.24654 0.0
C911 C 0.53634 0.49815 0.24265 0.0
C912 C 0.52325 0.48517 0.24125 0.0
C913 C 0.51031 0.48519 0.24373 0.0
C914 C 0.51086 0.49849 0.24823 0.0
C915 C 0.52401 0.5115 0.2496 0.0
C916 C 0.453 0.42798 0.20431 0.0
C917 C 0.45777 0.4207 0.19045 0.0
C918 C 0.45207 0.41634 0.16897 0.0
C919 C 0.44135 0.41909 0.16105 0.0
C920 C 0.4369 0.42681 0.17469 0.0
C921 C 0.44274 0.43134 0.19606 0.0
C922 C 0.44704 0.426 0.24308 0.0
C923 C 0.44149 0.43469 0.25083 0.0
C924 C 0.42971 0.42887 0.26456 0.0
C925 C 0.42326 0.41428 0.27071 0.0
C926 C 0.42914 0.4058 0.26347 0.0
C927 C 0.4409 0.41162 0.24978 0.0
C928 C 0.47075 0.44488 0.23183 0.0
C929 C 0.48203 0.44521 0.24409 0.0
C930 C 0.4947 0.45831 0.24849 0.0
C931 C 0.49637 0.47143 0.24064 0.0
C932 C 0.48487 0.47115 0.22884 0.0
C933 C 0.47216 0.45801 0.22452 0.0
H934 H 0.54137 0.9889 0.21872 0.0
N935 N 0.53992 0.00995 0.24343 0.0
H936 H 0.55024 0.99112 0.18166 0.0
H937 H 0.54902 0.03277 0.21752 0.0
H938 H 0.55808 0.0351 0.17994 0.0
H939 H 0.56493 0.02778 0.26321 0.0
H940 H 0.58065 0.02124 0.28336 0.0
H941 H 0.53227 0.98259 0.25749 0.0
H942 H 0.54797 0.97594 0.27741 0.0
H943 H 0.51797 0.98473 0.22409 0.0
H944 H 0.52722 0.02065 0.26855 0.0
H945 H 0.49284 0.97708 0.22393 0.0
H946 H 0.50162 0.01227 0.27014 0.0
H947 H 0.41375 0.96063 0.20626 0.0
H948 H 0.40653 0.96471 0.16985 0.0
H949 H 0.44503 0.00682 0.16928 0.0
H950 H 0.45174 0.00299 0.2058 0.0
H951 H 0.43422 0.00355 0.23629 0.0
H952 H 0.41895 0.00704 0.2622 0.0
H953 H 0.40673 0.96548 0.29016 0.0
H954 H 0.42175 0.96189 0.26381 0.0
H955 H 0.44657 0.96097 0.23242 0.0
H956 H 0.47122 0.96689 0.2402 0.0
H957 H 0.48359 0.0122 0.24938 0.0
N958 N 0.43631 0.97899 0.23127 0.0
H959 H 0.45872 0.00583 0.24359 0.0
C960 C 0.54448 0.01071 0.22097 0.0
C961 C 0.54479 0.99899 0.21042 0.0
C962 C 0.54979 0.00023 0.18908 0.0
C963 C 0.55473 0.01325 0.17782 0.0
C964 C 0.55433 0.02494 0.18825 0.0
C965 C 0.54916 0.02363 0.20961 0.0
C966 C 0.54747 0.00576 0.25883 0.0
C967 C 0.56104 0.01648 0.26677 0.0
C968 C 0.57004 0.01271 0.27804 0.0
C969 C 0.56563 0.99806 0.28165 0.0
C970 C 0.55166 0.98733 0.27492 0.0
C971 C 0.54265 0.99113 0.26354 0.0
C972 C 0.52466 0.0036 0.24591 0.0
C973 C 0.51462 0.99089 0.23418 0.0
C974 C 0.50004 0.98635 0.23437 0.0
C975 C 0.49502 0.99412 0.24681 0.0
C976 C 0.50502 0.00623 0.2598 0.0
C977 C 0.51967 0.01095 0.25917 0.0
C978 C 0.43331 0.98134 0.20885 0.0
C979 C 0.42068 0.97067 0.19812 0.0
C980 C 0.41661 0.97302 0.17726 0.0
C981 C 0.42518 0.98613 0.16657 0.0
C982 C 0.43803 0.9967 0.17713 0.0
C983 C 0.442 0.9944 0.19808 0.0
C984 C 0.42892 0.98229 0.24794 0.0
C985 C 0.42835 0.99524 0.24807 0.0
C986 C 0.41963 0.99723 0.26286 0.0
C987 C 0.41163 0.9865 0.27806 0.0
C988 C 0.41285 0.97396 0.27869 0.0
C989 C 0.42137 0.97187 0.26367 0.0
C990 C 0.45088 0.98295 0.23688 0.0
C991 C 0.45464 0.97213 0.23637 0.0
C992 C 0.46879 0.9756 0.24064 0.0
C993 C 0.47962 0.99011 0.24503 0.0
C994 C 0.47566 0.00089 0.2463 0.0
C995 C 0.46141 0.99731 0.24262 0.0
H996 H 0.42356 0.9516 0.7942 0.0
N997 N 0.45023 0.96789 0.7813 0.0
H998 H 0.41392 0.95238 0.82986 0.0
H999 H 0.46612 0.98237 0.81907 0.0
H1000 H 0.45683 0.9823 0.85512 0.0
H1001 H 0.45742 0.99634 0.78725 0.0
H1002 H 0.44614 0.00827 0.76797 0.0
H1003 H 0.43385 0.95826 0.7449 0.0
H1004 H 0.42253 0.97009 0.72549 0.0
H1005 H 0.45405 0.94585 0.77075 0.0
H1006 H 0.4771 0.99205 0.78404 0.0
H1007 H 0.47664 0.94595 0.76805 0.0
H1008 H 0.49975 0.99221 0.78311 0.0
H1009 H 0.5507 0.95122 0.80668 0.0
H1010 H 0.5613 0.95543 0.84398 0.0
H1011 H 0.55752 0.99388 0.85135 0.0
H1012 H 0.54732 0.98977 0.81376 0.0
H1013 H 0.56396 0.99592 0.7819 0.0
H1014 H 0.58444 0.00487 0.75782 0.0
H1015 H 0.56674 0.96194 0.7278 0.0
H1016 H 0.54623 0.95307 0.75202 0.0
H1017 H 0.5166 0.94686 0.79442 0.0
H1018 H 0.49433 0.94735 0.7915 0.0
H1019 H 0.5172 0.99013 0.76401 0.0
N1020 N 0.54268 0.96756 0.78507 0.0
H1021 H 0.53956 0.98987 0.76847 0.0
C1022 C 0.44552 0.96687 0.80371 0.0
C1023 C 0.43088 0.95816 0.80757 0.0
C1024 C 0.42541 0.95856 0.82812 0.0
C1025 C 0.43455 0.9675 0.84556 0.0
C1026 C 0.44937 0.97556 0.84203 0.0
C1027 C 0.45478 0.97545 0.82128 0.0
C1028 C 0.44646 0.97639 0.76739 0.0
C1029 C 0.45021 0.99075 0.77329 0.0
C1030 C 0.44371 0.99753 0.76232 0.0
C1031 C 0.4333 0.99002 0.74545 0.0
C1032 C 0.43034 0.97606 0.73866 0.0
C1033 C 0.43689 0.96934 0.74953 0.0
C1034 C 0.46386 0.96883 0.77794 0.0
C1035 C 0.46404 0.95602 0.7731 0.0
C1036 C 0.47699 0.95611 0.77184 0.0
C1037 C 0.49013 0.96903 0.77589 0.0
C1038 C 0.48993 0.98204 0.77977 0.0
C1039 C 0.47692 0.98197 0.78051 0.0
C1040 C 0.54814 0.97007 0.80755 0.0
C1041 C 0.5521 0.96049 0.81647 0.0
C1042 C 0.55808 0.9629 0.83779 0.0
C1043 C 0.56021 0.97497 0.85072 0.0
C1044 C 0.55617 0.98457 0.84177 0.0
C1045 C 0.55022 0.98217 0.82035 0.0
C1046 C 0.55359 0.97375 0.7688 0.0
C1047 C 0.56435 0.98848 0.76991 0.0
C1048 C 0.57609 0.99358 0.75621 0.0
C1049 C 0.57727 0.98407 0.74109 0.0
C1050 C 0.56609 0.96955 0.73918 0.0
C1051 C 0.55439 0.96446 0.75297 0.0
C1052 C 0.52972 0.96817 0.78149 0.0
C1053 C 0.51675 0.95629 0.78765 0.0
C1054 C 0.504 0.95658 0.78575 0.0
C1055 C 0.50382 0.96873 0.77724 0.0
C1056 C 0.51687 0.98064 0.77084 0.0
C1057 C 0.52972 0.98044 0.77316 0.0
H1058 H 0.96081 0.54754 0.82096 0.0
N1059 N 0.98067 0.54519 0.79911 0.0
H1060 H 0.96403 0.56209 0.85451 0.0
H1061 H 0.00559 0.56047 0.82405 0.0
H1062 H 0.00881 0.57441 0.85804 0.0
H1063 H 0.00271 0.57166 0.78759 0.0
H1064 H 0.00109 0.58737 0.76014 0.0
H1065 H 0.96046 0.53726 0.76783 0.0
H1066 H 0.95894 0.55266 0.73964 0.0
H1067 H 0.96525 0.51684 0.80412 0.0
H1068 H 0.00767 0.55092 0.78924 0.0
H1069 H 0.97317 0.49902 0.802 0.0
H1070 H 0.01604 0.53338 0.78843 0.0
H1071 H 0.99116 0.44933 0.81413 0.0
H1072 H 0.99249 0.43718 0.84681 0.0
H1073 H 0.03794 0.46755 0.85362 0.0
H1074 H 0.03655 0.47968 0.82026 0.0
H1075 H 0.02657 0.46149 0.7696 0.0
H1076 H 0.01526 0.44022 0.7445 0.0
H1077 H 0.97434 0.43763 0.75296 0.0
H1078 H 0.98564 0.45859 0.77844 0.0
H1079 H 0.99379 0.4733 0.8215 0.0
H1080 H 0.98675 0.4915 0.82214 0.0
H1081 H 0.01528 0.51348 0.76903 0.0
N1082 N 0.01358 0.47216 0.7941 0.0
H1083 H 0.02304 0.49544 0.76935 0.0
C1084 C 0.98284 0.55274 0.82008 0.0
C1085 C 0.97126 0.55329 0.82917 0.0
C1086 C 0.97314 0.56157 0.84839 0.0
C1087 C 0.9867 0.56946 0.85906 0.0
C1088 C 0.99826 0.56868 0.85012 0.0
C1089 C 0.99639 0.5605 0.83075 0.0
C1090 C 0.98152 0.55339 0.78001 0.0
C1091 C 0.99327 0.56734 0.77687 0.0
C1092 C 0.99235 0.57629 0.76103 0.0
C1093 C 0.97975 0.57136 0.748 0.0
C1094 C 0.96865 0.55689 0.74977 0.0
C1095 C 0.96952 0.54804 0.76572 0.0
C1096 C 0.98587 0.53515 0.79717 0.0
C1097 C 0.97633 0.52045 0.80058 0.0
C1098 C 0.98094 0.51033 0.79956 0.0
C1099 C 0.99534 0.51475 0.79541 0.0
C1100 C 0.00487 0.52953 0.79154 0.0
C1101 C 0.00015 0.53963 0.79224 0.0
C1102 C 0.01382 0.4655 0.81463 0.0
C1103 C 0.00142 0.45351 0.82262 0.0
C1104 C 0.00217 0.44661 0.84152 0.0
C1105 C 0.01531 0.45143 0.85289 0.0
C1106 C 0.02767 0.46354 0.84514 0.0
C1107 C 0.02689 0.47052 0.82621 0.0
C1108 C 0.00704 0.46164 0.77602 0.0
C1109 C 0.01524 0.45655 0.76554 0.0
C1110 C 0.00874 0.44442 0.75114 0.0
C1111 C 0.99385 0.43712 0.7469 0.0
C1112 C 0.9858 0.44287 0.75615 0.0
C1113 C 0.99229 0.45497 0.77062 0.0
C1114 C 0.00919 0.48299 0.79543 0.0
C1115 C 0.99877 0.48203 0.81009 0.0
C1116 C 0.99455 0.49246 0.81028 0.0
C1117 C 0.00032 0.50396 0.79552 0.0
C1118 C 0.01072 0.50492 0.78086 0.0
C1119 C 0.01512 0.49457 0.78092 0.0
H1120 H 0.45186 0.45135 0.79376 0.0
N1121 N 0.45443 0.47715 0.78117 0.0
H1122 H 0.44255 0.43923 0.82828 0.0
H1123 H 0.44469 0.48614 0.81454 0.0
H1124 H 0.43512 0.47386 0.84937 0.0
H1125 H 0.42797 0.46791 0.766 0.0
H1126 H 0.4136 0.44699 0.74122 0.0
H1127 H 0.46543 0.46463 0.75221 0.0
H1128 H 0.45119 0.44395 0.72765 0.0
H1129 H 0.47521 0.46964 0.78755 0.0
H1130 H 0.46845 0.50591 0.77846 0.0
H1131 H 0.50058 0.48606 0.7935 0.0
H1132 H 0.49397 0.5227 0.78621 0.0
H1133 H 0.57834 0.54491 0.84463 0.0
H1134 H 0.5861 0.55922 0.87914 0.0
H1135 H 0.55479 0.57267 0.86764 0.0
H1136 H 0.54767 0.55886 0.83252 0.0
H1137 H 0.56738 0.57051 0.80196 0.0
H1138 H 0.58605 0.58444 0.77593 0.0
H1139 H 0.59062 0.5469 0.76253 0.0
H1140 H 0.57235 0.53328 0.78951 0.0
H1141 H 0.54121 0.51712 0.8306 0.0
H1142 H 0.51587 0.50137 0.82116 0.0
H1143 H 0.51781 0.53316 0.77559 0.0
N1144 N 0.55902 0.54298 0.81515 0.0
H1145 H 0.54289 0.54924 0.78644 0.0
C1146 C 0.44905 0.46976 0.80159 0.0
C1147 C 0.44844 0.45649 0.80585 0.0
C1148 C 0.44314 0.44957 0.82566 0.0
C1149 C 0.43821 0.45566 0.84157 0.0
C1150 C 0.43882 0.46891 0.83735 0.0
C1151 C 0.44428 0.47593 0.81755 0.0
C1152 C 0.44772 0.46773 0.76183 0.0
C1153 C 0.43322 0.46302 0.75715 0.0
C1154 C 0.425 0.45105 0.74293 0.0
C1155 C 0.43119 0.44358 0.73291 0.0
C1156 C 0.44604 0.44924 0.73565 0.0
C1157 C 0.45424 0.46118 0.74992 0.0
C1158 C 0.46983 0.4865 0.78201 0.0
C1159 C 0.47917 0.48116 0.78651 0.0
C1160 C 0.49377 0.49065 0.79038 0.0
C1161 C 0.49941 0.50579 0.79075 0.0
C1162 C 0.49011 0.51114 0.78581 0.0
C1163 C 0.4755 0.50157 0.7814 0.0
C1164 C 0.56237 0.55068 0.83618 0.0
C1165 C 0.5731 0.55086 0.84972 0.0
C1166 C 0.57744 0.559 0.8695 0.0
C1167 C 0.57101 0.56706 0.87635 0.0
C1168 C 0.56009 0.56673 0.86282 0.0
C1169 C 0.55588 0.5587 0.84283 0.0
C1170 C 0.56866 0.5509 0.79789 0.0
C1171 C 0.57236 0.56527 0.79336 0.0
C1172 C 0.58297 0.57319 0.77829 0.0
C1173 C 0.58998 0.56685 0.76729 0.0
C1174 C 0.5857 0.55223 0.77107 0.0
C1175 C 0.57518 0.54438 0.78629 0.0
C1176 C 0.54402 0.5342 0.80905 0.0
C1177 C 0.53611 0.52067 0.81864 0.0
C1178 C 0.52165 0.51162 0.81298 0.0
C1179 C 0.51476 0.5158 0.79719 0.0
C1180 C 0.52268 0.52955 0.78785 0.0
C1181 C 0.53712 0.53874 0.79389 0.0
H1182 H 0.70181 0.89914 0.53556 0.0
N1183 N 0.68273 0.8772 0.55864 0.0
H1184 H 0.69745 0.9092 0.5023 0.0
H1185 H 0.65725 0.86608 0.53555 0.0
H1186 H 0.65276 0.87584 0.5019 0.0
H1187 H 0.66262 0.88502 0.56795 0.0
H1188 H 0.66548 0.90324 0.59496 0.0
H1189 H 0.7009 0.88658 0.59343 0.0
H1190 H 0.70299 0.90363 0.62266 0.0
H1191 H 0.69129 0.86211 0.53455 0.0
H1192 H 0.66172 0.85736 0.58511 0.0
H1193 H 0.68281 0.83625 0.53489 0.0
H1194 H 0.65413 0.83165 0.58727 0.0
H1195 H 0.67348 0.76913 0.54914 0.0
H1196 H 0.67458 0.75774 0.51461 0.0
H1197 H 0.63165 0.74809 0.4968 0.0
H1198 H 0.63049 0.75916 0.53192 0.0
H1199 H 0.63536 0.74484 0.58152 0.0
H1200 H 0.64408 0.73317 0.60695 0.0
H1201 H 0.68439 0.77336 0.61468 0.0
H1202 H 0.6759 0.7848 0.58927 0.0
H1203 H 0.67675 0.79331 0.55324 0.0
H1204 H 0.68418 0.81884 0.55349 0.0
H1205 H 0.64158 0.80856 0.57205 0.0
N1206 N 0.65045 0.77081 0.56413 0.0
H1207 H 0.63471 0.78293 0.5738 0.0
C1208 C 0.67992 0.88191 0.53792 0.0
C1209 C 0.69114 0.89392 0.52807 0.0
C1210 C 0.68861 0.89958 0.50902 0.0
C1211 C 0.67474 0.8933 0.49939 0.0
C1212 C 0.66353 0.88099 0.50901 0.0
C1213 C 0.66608 0.87534 0.52811 0.0
C1214 C 0.68199 0.88494 0.57797 0.0
C1215 C 0.67148 0.88902 0.57978 0.0
C1216 C 0.67305 0.89941 0.59571 0.0
C1217 C 0.68483 0.90554 0.61086 0.0
C1218 C 0.69421 0.89988 0.61072 0.0
C1219 C 0.69293 0.8899 0.59421 0.0
C1220 C 0.67733 0.86177 0.55989 0.0
C1221 C 0.6831 0.85547 0.546 0.0
C1222 C 0.67833 0.84064 0.54646 0.0
C1223 C 0.66793 0.83171 0.56145 0.0
C1224 C 0.66204 0.83804 0.57533 0.0
C1225 C 0.66652 0.85287 0.57433 0.0
C1226 C 0.65179 0.76491 0.54322 0.0
C1227 C 0.66431 0.76463 0.53782 0.0
C1228 C 0.66496 0.75815 0.51794 0.0
C1229 C 0.65318 0.75191 0.50292 0.0
C1230 C 0.64082 0.75253 0.50815 0.0
C1231 C 0.64016 0.75895 0.5281 0.0
C1232 C 0.65489 0.76563 0.58295 0.0
C1233 C 0.64594 0.75123 0.58917 0.0
C1234 C 0.65093 0.74459 0.60375 0.0
C1235 C 0.66503 0.75229 0.61251 0.0
C1236 C 0.67357 0.76706 0.60781 0.0
C1237 C 0.66862 0.77366 0.59315 0.0
C1238 C 0.65519 0.78615 0.56395 0.0
C1239 C 0.66904 0.79651 0.5577 0.0
C1240 C 0.67322 0.81122 0.55752 0.0
C1241 C 0.66349 0.81597 0.56259 0.0
C1242 C 0.64953 0.8055 0.56846 0.0
C1243 C 0.64551 0.79079 0.56931 0.0
H1244 H 0.24295 0.86453 0.55094 0.0
N1245 N 0.2212 0.8596 0.57619 0.0
H1246 H 0.24944 0.87744 0.51612 0.0
H1247 H 0.20533 0.86886 0.55319 0.0
H1248 H 0.21198 0.88214 0.51875 0.0
H1249 H 0.21414 0.88027 0.58801 0.0
H1250 H 0.22835 0.90133 0.61213 0.0
H1251 H 0.24186 0.86327 0.60453 0.0
H1252 H 0.25612 0.88437 0.62932 0.0
H1253 H 0.21534 0.83333 0.56337 0.0
H1254 H 0.19604 0.85643 0.59247 0.0
H1255 H 0.19212 0.81114 0.5613 0.0
H1256 H 0.17288 0.83414 0.59162 0.0
H1257 H 0.11979 0.74263 0.54504 0.0
H1258 H 0.10956 0.7326 0.50824 0.0
H1259 H 0.11221 0.77327 0.49192 0.0
H1260 H 0.12201 0.78299 0.52879 0.0
H1261 H 0.10679 0.77775 0.56106 0.0
H1262 H 0.08573 0.7692 0.58374 0.0
H1263 H 0.09864 0.74268 0.6197 0.0
H1264 H 0.1196 0.75115 0.59658 0.0
H1265 H 0.15098 0.77037 0.57349 0.0
H1266 H 0.17406 0.79242 0.58052 0.0
H1267 H 0.15435 0.81839 0.56688 0.0
N1268 N 0.12618 0.76829 0.56236 0.0
H1269 H 0.13124 0.79629 0.56147 0.0
C1270 C 0.22382 0.86591 0.55474 0.0
C1271 C 0.23603 0.86814 0.54375 0.0
C1272 C 0.23968 0.87544 0.5239 0.0
C1273 C 0.23122 0.8808 0.51486 0.0
C1274 C 0.21871 0.87818 0.5255 0.0
C1275 C 0.21494 0.87065 0.54519 0.0
C1276 C 0.22694 0.8701 0.59436 0.0
C1277 C 0.22296 0.88074 0.59743 0.0
C1278 C 0.23115 0.89287 0.61136 0.0
C1279 C 0.24351 0.89466 0.62248 0.0
C1280 C 0.2468 0.88344 0.62072 0.0
C1281 C 0.23858 0.87131 0.60677 0.0
C1282 C 0.20755 0.84653 0.57818 0.0
C1283 C 0.20612 0.8335 0.56984 0.0
C1284 C 0.1928 0.82079 0.56878 0.0
C1285 C 0.18052 0.82075 0.57634 0.0
C1286 C 0.18203 0.83377 0.58532 0.0
C1287 C 0.19538 0.84657 0.58606 0.0
C1288 C 0.12177 0.76354 0.53971 0.0
C1289 C 0.11834 0.74941 0.53336 0.0
C1290 C 0.11252 0.74373 0.51232 0.0
C1291 C 0.11001 0.75212 0.49711 0.0
C1292 C 0.1138 0.76644 0.50332 0.0
C1293 C 0.11958 0.77209 0.52443 0.0
C1294 C 0.11475 0.76502 0.57716 0.0
C1295 C 0.10524 0.77031 0.57405 0.0
C1296 C 0.0932 0.76542 0.58707 0.0
C1297 C 0.09044 0.75515 0.60337 0.0
C1298 C 0.10033 0.7504 0.60703 0.0
C1299 C 0.11235 0.75529 0.59401 0.0
C1300 C 0.13947 0.78164 0.56653 0.0
C1301 C 0.15169 0.78086 0.57214 0.0
C1302 C 0.16489 0.7935 0.576 0.0
C1303 C 0.1662 0.80728 0.57399 0.0
C1304 C 0.1538 0.80802 0.5688 0.0
C1305 C 0.14054 0.79533 0.56532 0.0
H1306 H 0.20828 0.32789 0.55163 0.0
N1307 N 0.20798 0.35026 0.57418 0.0
H1308 H 0.21717 0.32863 0.51483 0.0
H1309 H 0.21734 0.37207 0.54636 0.0
H1310 H 0.22634 0.3729 0.50913 0.0
H1311 H 0.23446 0.36761 0.58965 0.0
H1312 H 0.24984 0.36077 0.60998 0.0
H1313 H 0.19898 0.32386 0.59422 0.0
H1314 H 0.21406 0.31714 0.61489 0.0
H1315 H 0.18578 0.32277 0.56333 0.0
H1316 H 0.19578 0.36495 0.5891 0.0
H1317 H 0.16045 0.31442 0.56497 0.0
H1318 H 0.17025 0.35704 0.58911 0.0
H1319 H 0.08066 0.29981 0.54285 0.0
H1320 H 0.07305 0.30548 0.50787 0.0
H1321 H 0.10934 0.3491 0.51294 0.0
H1322 H 0.11686 0.34334 0.54787 0.0
H1323 H 0.10488 0.3429 0.58284 0.0
H1324 H 0.08987 0.34549 0.61018 0.0
H1325 H 0.06952 0.29951 0.62216 0.0
H1326 H 0.0848 0.29711 0.59499 0.0
H1327 H 0.11761 0.30879 0.54381 0.0
H1328 H 0.14293 0.31645 0.54624 0.0
H1329 H 0.1479 0.34303 0.60426 0.0
N1330 N 0.10311 0.31742 0.56877 0.0
H1331 H 0.1229 0.33616 0.60087 0.0
C1332 C 0.21212 0.34998 0.55176 0.0
C1333 C 0.2119 0.33767 0.54238 0.0
C1334 C 0.21696 0.33809 0.52123 0.0
C1335 C 0.22241 0.35081 0.50903 0.0
C1336 C 0.22227 0.36298 0.51819 0.0
C1337 C 0.21712 0.36252 0.53936 0.0
C1338 C 0.21555 0.34637 0.59012 0.0
C1339 C 0.22987 0.35666 0.59557 0.0
C1340 C 0.23864 0.35271 0.6072 0.0
C1341 C 0.23324 0.33833 0.6138 0.0
C1342 C 0.21866 0.32823 0.60958 0.0
C1343 C 0.20992 0.33216 0.59781 0.0
C1344 C 0.19279 0.3445 0.57656 0.0
C1345 C 0.18257 0.33025 0.56959 0.0
C1346 C 0.16796 0.32553 0.57016 0.0
C1347 C 0.16315 0.33506 0.57694 0.0
C1348 C 0.17343 0.34927 0.58413 0.0
C1349 C 0.18806 0.35386 0.58405 0.0
C1350 C 0.09933 0.32106 0.54783 0.0
C1351 C 0.08697 0.31056 0.5363 0.0
C1352 C 0.08261 0.31385 0.51647 0.0
C1353 C 0.0906 0.32774 0.50771 0.0
C1354 C 0.10305 0.33827 0.5192 0.0
C1355 C 0.10734 0.335 0.53916 0.0
C1356 C 0.0959 0.31974 0.58688 0.0
C1357 C 0.09733 0.33342 0.59157 0.0
C1358 C 0.08869 0.33488 0.60713 0.0
C1359 C 0.07841 0.32269 0.61823 0.0
C1360 C 0.07744 0.30915 0.61412 0.0
C1361 C 0.08611 0.30773 0.59859 0.0
C1362 C 0.11816 0.32193 0.57179 0.0
C1363 C 0.12418 0.31633 0.557 0.0
C1364 C 0.13869 0.32062 0.55861 0.0
C1365 C 0.14759 0.33037 0.57554 0.0
C1366 C 0.14151 0.33574 0.59073 0.0
C1367 C 0.12702 0.33168 0.58883 0.0
H1368 H 0.01746 0.38607 0.04694 0.0
H1369 H 0.9744 0.37856 0.03811 0.0
H1370 H 0.02067 0.40068 0.08042 0.0
H1371 H 0.97763 0.3931 0.0716 0.0
H1372 H 0.98534 0.40877 0.14504 0.0
H1373 H 0.98166 0.39283 0.11312 0.0
H1374 H 0.02215 0.4251 0.08775 0.0
H1375 H 0.02567 0.44129 0.11913 0.0
C1376 C 0.00863 0.38739 0.05226 0.0
C1377 C 0.99569 0.3812 0.03979 0.0
C1378 C 0.01051 0.39583 0.07134 0.0
C1379 C 0.99942 0.39808 0.07854 0.0
C1380 C 0.98633 0.39149 0.06651 0.0
C1381 C 0.98452 0.38322 0.04728 0.0
C1382 C 0.99339 0.41259 0.13254 0.0
C1383 C 0.00582 0.42637 0.13476 0.0
C1384 C 0.9913 0.4034 0.11432 0.0
C1385 C 0.00167 0.40769 0.09805 0.0
C1386 C 0.01409 0.42141 0.10024 0.0
C1387 C 0.0161 0.43067 0.11828 0.0
H1388 H 0.59662 0.6166 0.09116 0.0
H1389 H 0.62453 0.59841 0.08866 0.0
H1390 H 0.58039 0.59691 0.11422 0.0
H1391 H 0.60875 0.57917 0.11262 0.0
H1392 H 0.5745 0.54098 0.14675 0.0
H1393 H 0.58671 0.55794 0.11741 0.0
H1394 H 0.57971 0.59003 0.15089 0.0
H1395 H 0.56705 0.57285 0.17952 0.0
C1396 C 0.59928 0.60838 0.09546 0.0
C1397 C 0.61189 0.60911 0.08812 0.0
C1398 C 0.59001 0.59713 0.10884 0.0
C1399 C 0.59327 0.58647 0.11551 0.0
C1400 C 0.60572 0.58701 0.1076 0.0
C1401 C 0.61486 0.59814 0.09396 0.0
C1402 C 0.57544 0.55161 0.14757 0.0
C1403 C 0.56985 0.55562 0.16535 0.0
C1404 C 0.5825 0.56137 0.13087 0.0
C1405 C 0.58433 0.57544 0.13179 0.0
C1406 C 0.57832 0.57924 0.14932 0.0
C1407 C 0.5711 0.56941 0.16582 0.0
H1408 H 0.41872 0.02093 0.0405 0.0
H1409 H 0.37728 0.98249 0.04748 0.0
H1410 H 0.42659 0.01662 0.07618 0.0
H1411 H 0.38522 0.97824 0.08308 0.0
H1412 H 0.41153 0.96686 0.13172 0.0
H1413 H 0.40347 0.97146 0.09648 0.0
H1414 H 0.42056 0.01641 0.11653 0.0
H1415 H 0.42824 0.01181 0.15205 0.0
C1416 C 0.41127 0.01159 0.04964 0.0
C1417 C 0.39737 0.00205 0.0411 0.0
C1418 C 0.41577 0.00917 0.07011 0.0
C1419 C 0.40653 0.99707 0.08234 0.0
C1420 C 0.39262 0.98757 0.07389 0.0
C1421 C 0.38805 0.99008 0.05356 0.0
C1422 C 0.41343 0.9777 0.12877 0.0
C1423 C 0.42056 0.98896 0.1448 0.0
C1424 C 0.40885 0.98032 0.10855 0.0
C1425 C 0.4114 0.99429 0.10379 0.0
C1426 C 0.41861 0.00558 0.11966 0.0
C1427 C 0.42306 0.00293 0.13998 0.0
H1428 H 0.38162 0.96209 0.95801 0.0
H1429 H 0.39995 0.00513 0.93193 0.0
H1430 H 0.39662 0.95693 0.93399 0.0
H1431 H 0.41427 0.99984 0.90734 0.0
H1432 H 0.44474 0.99215 0.87199 0.0
H1433 H 0.43353 0.99623 0.9033 0.0
H1434 H 0.39847 0.95195 0.89672 0.0
H1435 H 0.41047 0.94738 0.86675 0.0
C1436 C 0.38888 0.97045 0.9472 0.0
C1437 C 0.38963 0.98401 0.94687 0.0
C1438 C 0.39742 0.96748 0.93333 0.0
C1439 C 0.40672 0.97795 0.91865 0.0
C1440 C 0.40755 0.99159 0.91871 0.0
C1441 C 0.39922 0.99461 0.93275 0.0
C1442 C 0.43491 0.98307 0.87759 0.0
C1443 C 0.42848 0.96944 0.86645 0.0
C1444 C 0.42829 0.98553 0.89541 0.0
C1445 C 0.41487 0.97456 0.90228 0.0
C1446 C 0.4088 0.96069 0.89198 0.0
C1447 C 0.41559 0.95814 0.87444 0.0
H1448 H 0.03449 0.40476 0.95375 0.0
H1449 H 0.98915 0.3798 0.93754 0.0
H1450 H 0.03658 0.42419 0.93038 0.0
H1451 H 0.99126 0.39909 0.91421 0.0
H1452 H 0.99668 0.4404 0.88672 0.0
H1453 H 0.99612 0.42418 0.91517 0.0
H1454 H 0.03496 0.42752 0.89049 0.0
H1455 H 0.03552 0.44372 0.86202 0.0
C1456 C 0.02495 0.40346 0.94536 0.0
C1457 C 0.01164 0.39074 0.94756 0.0
C1458 C 0.02617 0.41456 0.93191 0.0
C1459 C 0.01408 0.4132 0.92047 0.0
C1460 C 0.00074 0.4006 0.92307 0.0
C1461 C 0.99953 0.3895 0.93642 0.0
C1462 C 0.00515 0.43774 0.88746 0.0
C1463 C 0.01606 0.44322 0.87197 0.0
C1464 C 0.00482 0.42845 0.90375 0.0
C1465 C 0.0154 0.42444 0.90494 0.0
C1466 C 0.02671 0.4305 0.89014 0.0
C1467 C 0.02704 0.4398 0.87383 0.0
H1468 H 0.58639 0.62184 0.99487 0.0
H1469 H 0.62271 0.6152 0.99088 0.0
H1470 H 0.57634 0.60756 0.96045 0.0
H1471 H 0.61254 0.60085 0.95673 0.0
H1472 H 0.57953 0.56055 0.91532 0.0
H1473 H 0.58946 0.57593 0.94853 0.0
H1474 H 0.58321 0.60896 0.91868 0.0
H1475 H 0.57382 0.59389 0.88491 0.0
C1476 C 0.59226 0.61742 0.98661 0.0
C1477 C 0.60533 0.61962 0.99565 0.0
C1478 C 0.58653 0.6093 0.9669 0.0
C1479 C 0.59363 0.60304 0.9561 0.0
C1480 C 0.6068 0.60545 0.96489 0.0
C1481 C 0.61265 0.61375 0.98436 0.0
C1482 C 0.58041 0.57115 0.91564 0.0
C1483 C 0.576 0.57601 0.89725 0.0
C1484 C 0.58604 0.57992 0.93472 0.0
C1485 C 0.58719 0.59365 0.93605 0.0
C1486 C 0.58237 0.59837 0.91807 0.0
C1487 C 0.57692 0.58969 0.89879 0.0
H1488 H 0.9778 0.61765 0.97001 0.0
H1489 H 0.01986 0.62255 0.97912 0.0
H1490 H 0.97438 0.60389 0.93547 0.0
H1491 H 0.01641 0.60886 0.94466 0.0
H1492 H 0.00986 0.5961 0.87054 0.0
H1493 H 0.01339 0.61109 0.90355 0.0
H1494 H 0.97172 0.57916 0.92571 0.0
H1495 H 0.96829 0.56387 0.8931 0.0
C1496 C 0.98637 0.61593 0.96455 0.0
C1497 C 0.99908 0.62116 0.97735 0.0
C1498 C 0.98436 0.60797 0.94487 0.0
C1499 C 0.99511 0.60527 0.93745 0.0
C1500 C 0.00798 0.61086 0.94991 0.0
C1501 C 0.00991 0.61864 0.9697 0.0
C1502 C 0.00151 0.59214 0.88255 0.0
C1503 C 0.98881 0.5787 0.87913 0.0
C1504 C 0.00351 0.6008 0.90139 0.0
C1505 C 0.99281 0.59631 0.91713 0.0
C1506 C 0.98006 0.58298 0.91367 0.0
C1507 C 0.97811 0.57424 0.89495 0.0
H1508 H 0.38569 0.41176 0.95448 0.0
H1509 H 0.40157 0.38461 0.92827 0.0
H1510 H 0.40111 0.43104 0.92995 0.0
H1511 H 0.41665 0.40365 0.90346 0.0
H1512 H 0.44877 0.44286 0.86887 0.0
H1513 H 0.43698 0.42745 0.89995 0.0
H1514 H 0.40132 0.43486 0.89087 0.0
H1515 H 0.41327 0.45048 0.86012 0.0
C1516 C 0.39257 0.40996 0.94364 0.0
C1517 C 0.39237 0.39664 0.94325 0.0
C1518 C 0.40134 0.42097 0.9295 0.0
C1519 C 0.41006 0.41887 0.91463 0.0
C1520 C 0.41024 0.40574 0.91489 0.0
C1521 C 0.40152 0.39477 0.92907 0.0
C1522 C 0.43847 0.44129 0.8737 0.0
C1523 C 0.43187 0.44776 0.86199 0.0
C1524 C 0.4317 0.43245 0.89146 0.0
C1525 C 0.41813 0.42979 0.89777 0.0
C1526 C 0.41184 0.4368 0.88664 0.0
C1527 C 0.41866 0.44573 0.86898 0.0
H1528 H 0.61843 0.0042 0.96593 0.0
H1529 H 0.57761 0.97179 0.99049 0.0
H1530 H 0.60748 0.00086 0.92914 0.0
H1531 H 0.56664 0.96878 0.95402 0.0
H1532 H 0.57994 0.0009 0.8708 0.0
H1533 H 0.5907 0.00494 0.90786 0.0
H1534 H 0.5665 0.95875 0.91839 0.0
H1535 H 0.55523 0.95481 0.88191 0.0
C1536 C 0.60712 0.99644 0.96354 0.0
C1537 C 0.59894 0.9882 0.98116 0.0
C1538 C 0.60081 0.99459 0.94247 0.0
C1539 C 0.58618 0.9845 0.93858 0.0
C1540 C 0.57799 0.97644 0.9563 0.0
C1541 C 0.58429 0.97823 0.97728 0.0
C1542 C 0.57677 0.99164 0.88115 0.0
C1543 C 0.56671 0.97753 0.87336 0.0
C1544 C 0.58308 0.99393 0.90229 0.0
C1545 C 0.57949 0.98217 0.91611 0.0
C1546 C 0.5694 0.96809 0.90832 0.0
C1547 C 0.56306 0.9658 0.88726 0.0
H1548 H 0.61133 0.03448 0.06542 0.0
H1549 H 0.59495 0.98974 0.08273 0.0
H1550 H 0.59443 0.03599 0.09025 0.0
H1551 H 0.57826 0.99126 0.10733 0.0
H1552 H 0.57986 0.03576 0.1638 0.0
H1553 H 0.59275 0.03597 0.13099 0.0
H1554 H 0.55721 0.99418 0.10985 0.0
H1555 H 0.54437 0.99394 0.14276 0.0
C1556 C 0.60399 0.02491 0.07421 0.0
C1557 C 0.6045 0.01199 0.07211 0.0
C1558 C 0.59436 0.0258 0.08846 0.0
C1559 C 0.58501 0.01375 0.10072 0.0
C1560 C 0.58514 0.00068 0.09786 0.0
C1561 C 0.59479 0.99982 0.08378 0.0
C1562 C 0.57464 0.02682 0.15182 0.0
C1563 C 0.56122 0.01473 0.15598 0.0
C1564 C 0.58201 0.02695 0.133 0.0
C1565 C 0.57607 0.01499 0.11801 0.0
C1566 C 0.56217 0.00342 0.12134 0.0
C1567 C 0.55483 0.00328 0.14015 0.0
H1568 H 0.96018 0.59653 0.0603 0.0
H1569 H 0.00485 0.62112 0.08088 0.0
H1570 H 0.95726 0.57634 0.0826 0.0
H1571 H 0.0019 0.60115 0.10328 0.0
H1572 H 0.95524 0.55501 0.15027 0.0
H1573 H 0.95693 0.57162 0.12176 0.0
H1574 H 0.99747 0.5765 0.10252 0.0
H1575 H 0.99582 0.55996 0.13123 0.0
C1576 C 0.9694 0.59759 0.06943 0.0
C1577 C 0.98275 0.61043 0.0688 0.0
C1578 C 0.96771 0.58604 0.08227 0.0
C1579 C 0.97935 0.58711 0.09472 0.0
C1580 C 0.99277 0.59984 0.09361 0.0
C1581 C 0.99445 0.61134 0.08081 0.0
C1582 C 0.96435 0.55936 0.13961 0.0
C1583 C 0.97546 0.55627 0.14312 0.0
C1584 C 0.96532 0.56888 0.12324 0.0
C1585 C 0.97741 0.57551 0.10999 0.0
C1586 C 0.98815 0.5718 0.11274 0.0
C1587 C 0.9872 0.56231 0.12914 0.0
H1588 H 0.4185 0.3782 0.03013 0.0
H1589 H 0.3846 0.38741 0.04371 0.0
H1590 H 0.42968 0.38865 0.06602 0.0
H1591 H 0.39611 0.39848 0.0793 0.0
H1592 H 0.41276 0.40407 0.15068 0.0
H1593 H 0.40115 0.39346 0.11496 0.0
H1594 H 0.44272 0.41087 0.08584 0.0
H1595 H 0.45423 0.42098 0.12186 0.0
C1596 C 0.41347 0.38255 0.04073 0.0
C1597 C 0.40065 0.38196 0.03404 0.0
C1598 C 0.41996 0.38867 0.0613 0.0
C1599 C 0.41389 0.39454 0.07561 0.0
C1600 C 0.40101 0.39389 0.06891 0.0
C1601 C 0.39442 0.38759 0.04843 0.0
C1602 C 0.41938 0.4057 0.13657 0.0
C1603 C 0.43439 0.41333 0.13902 0.0
C1604 C 0.41274 0.39966 0.11605 0.0
C1605 C 0.42096 0.40124 0.09741 0.0
C1606 C 0.43601 0.40914 0.09986 0.0
C1607 C 0.44264 0.41502 0.12046 0.0
H1608 H 0.63461 0.7094 0.37378 0.0
H1609 H 0.6759 0.71448 0.39164 0.0
H1610 H 0.63422 0.72029 0.40917 0.0
H1611 H 0.6754 0.72533 0.42732 0.0
H1612 H 0.67582 0.76029 0.47543 0.0
H1613 H 0.67655 0.74822 0.44126 0.0
H1614 H 0.63245 0.71495 0.4489 0.0
H1615 H 0.63174 0.72683 0.48322 0.0
C1616 C 0.64359 0.71276 0.38529 0.0
C1617 C 0.65531 0.71108 0.3798 0.0
C1618 C 0.64331 0.71893 0.40566 0.0
C1619 C 0.65477 0.72367 0.42104 0.0
C1620 C 0.66646 0.7219 0.4157 0.0
C1621 C 0.6667 0.7156 0.39533 0.0
C1622 C 0.66632 0.7503 0.46999 0.0
C1623 C 0.65369 0.74458 0.48206 0.0
C1624 C 0.66676 0.74339 0.4504 0.0
C1625 C 0.65455 0.73065 0.44237 0.0
C1626 C 0.64197 0.72487 0.45451 0.0
C1627 C 0.64156 0.73172 0.47413 0.0
H1628 H 0.2875 0.93168 0.41435 0.0
H1629 H 0.26049 0.95073 0.42074 0.0
H1630 H 0.27233 0.9126 0.43891 0.0
H1631 H 0.24478 0.93115 0.44446 0.0
H1632 H 0.23403 0.90748 0.51054 0.0
H1633 H 0.24527 0.92429 0.48088 0.0
H1634 H 0.25046 0.89168 0.44525 0.0
H1635 H 0.23977 0.87514 0.4756 0.0
C1636 C 0.27812 0.93161 0.42061 0.0
C1637 C 0.27527 0.9428 0.41571 0.0
C1638 C 0.26932 0.92057 0.43461 0.0
C1639 C 0.25731 0.9203 0.44383 0.0
C1640 C 0.25409 0.93114 0.43805 0.0
C1641 C 0.26304 0.94233 0.42428 0.0
C1642 C 0.23736 0.90385 0.49617 0.0
C1643 C 0.23613 0.89008 0.49537 0.0
C1644 C 0.24376 0.91346 0.47907 0.0
C1645 C 0.24891 0.90943 0.46064 0.0
C1646 C 0.24694 0.89531 0.45938 0.0
C1647 C 0.24074 0.88578 0.47667 0.0
H1648 H 0.04485 0.32478 0.38643 0.0
H1649 H 0.08388 0.36643 0.38588 0.0
H1650 H 0.05217 0.32004 0.42211 0.0
H1651 H 0.09097 0.3619 0.42184 0.0
H1652 H 0.10704 0.34181 0.47277 0.0
H1653 H 0.0993 0.34706 0.43782 0.0
H1654 H 0.05586 0.32699 0.46042 0.0
H1655 H 0.06361 0.32148 0.49517 0.0
C1656 C 0.05491 0.33301 0.39404 0.0
C1657 C 0.06381 0.34595 0.38322 0.0
C1658 C 0.05908 0.33032 0.41457 0.0
C1659 C 0.07221 0.34055 0.42484 0.0
C1660 C 0.08093 0.35365 0.41423 0.0
C1661 C 0.07682 0.35629 0.39365 0.0
C1662 C 0.09586 0.33862 0.47029 0.0
C1663 C 0.08592 0.33121 0.48666 0.0
C1664 C 0.09141 0.34166 0.45029 0.0
C1665 C 0.07694 0.33747 0.44628 0.0
C1666 C 0.06703 0.33017 0.46278 0.0
C1667 C 0.07147 0.32703 0.48272 0.0
H1668 H 0.07771 0.35684 0.28451 0.0
H1669 H 0.05438 0.30999 0.28745 0.0
H1670 H 0.09507 0.35567 0.26093 0.0
H1671 H 0.07189 0.30884 0.26363 0.0
H1672 H 0.12883 0.35057 0.22724 0.0
H1673 H 0.11399 0.349 0.25826 0.0
H1674 H 0.07689 0.31425 0.22388 0.0
H1675 H 0.09157 0.31593 0.19285 0.0
C1676 C 0.07644 0.34629 0.28054 0.0
C1677 C 0.06462 0.33351 0.28783 0.0
C1678 C 0.08646 0.34563 0.26707 0.0
C1679 C 0.08484 0.33216 0.2604 0.0
C1680 C 0.07334 0.31937 0.26839 0.0
C1681 C 0.06336 0.32004 0.28207 0.0
C1682 C 0.11752 0.34252 0.22639 0.0
C1683 C 0.11137 0.33348 0.20746 0.0
C1684 C 0.10906 0.34159 0.24417 0.0
C1685 C 0.09427 0.33157 0.24343 0.0
C1686 C 0.08828 0.32197 0.22507 0.0
C1687 C 0.09672 0.32293 0.20726 0.0
H1688 H 0.70001 0.73642 0.28693 0.0
H1689 H 0.65438 0.71963 0.28791 0.0
H1690 H 0.70259 0.7554 0.26249 0.0
H1691 H 0.65697 0.73907 0.26445 0.0
H1692 H 0.66418 0.76223 0.19879 0.0
H1693 H 0.66102 0.74538 0.22768 0.0
H1694 H 0.70223 0.77682 0.25694 0.0
H1695 H 0.70559 0.79334 0.22719 0.0
C1696 C 0.69056 0.73697 0.2823 0.0
C1697 C 0.67697 0.72642 0.28918 0.0
C1698 C 0.69204 0.74795 0.26836 0.0
C1699 C 0.67998 0.74879 0.26126 0.0
C1700 C 0.66647 0.73859 0.26907 0.0
C1701 C 0.66497 0.72746 0.28268 0.0
C1702 C 0.67244 0.76559 0.21162 0.0
C1703 C 0.68514 0.77904 0.21077 0.0
C1704 C 0.67063 0.75595 0.22829 0.0
C1705 C 0.68139 0.75964 0.24473 0.0
C1706 C 0.69384 0.77343 0.24434 0.0
C1707 C 0.69575 0.78296 0.22742 0.0
H1708 H 0.2493 0.95679 0.32521 0.0
H1709 H 0.28658 0.95242 0.31521 0.0
H1710 H 0.23924 0.94462 0.28955 0.0
H1711 H 0.27645 0.94024 0.27944 0.0
H1712 H 0.24434 0.90368 0.23032 0.0
H1713 H 0.25531 0.91647 0.26537 0.0
H1714 H 0.24453 0.94932 0.24949 0.0
H1715 H 0.23389 0.93682 0.21428 0.0
C1716 C 0.25539 0.95329 0.31539 0.0
C1717 C 0.26876 0.95559 0.3231 0.0
C1718 C 0.24964 0.94638 0.2949 0.0
C1719 C 0.25705 0.94146 0.28173 0.0
C1720 C 0.27044 0.9438 0.28934 0.0
C1721 C 0.27628 0.95087 0.30975 0.0
C1722 C 0.24444 0.91371 0.23416 0.0
C1723 C 0.23814 0.91915 0.21946 0.0
C1724 C 0.25072 0.92102 0.25426 0.0
C1725 C 0.25074 0.93387 0.26018 0.0
C1726 C 0.24449 0.93933 0.24551 0.0
C1727 C 0.23833 0.93211 0.22536 0.0
H1728 H 0.66032 0.94905 0.30838 0.0
H1729 H 0.70655 0.97435 0.31197 0.0
H1730 H 0.66147 0.93772 0.27335 0.0
H1731 H 0.70762 0.96336 0.27678 0.0
H1732 H 0.69899 0.95053 0.20073 0.0
H1733 H 0.69706 0.96235 0.23427 0.0
H1734 H 0.67438 0.92086 0.26507 0.0
H1735 H 0.67705 0.90897 0.2322 0.0
C1736 C 0.67068 0.95234 0.30151 0.0
C1737 C 0.68335 0.96253 0.31287 0.0
C1738 C 0.67133 0.94582 0.28161 0.0
C1739 C 0.68463 0.94971 0.27253 0.0
C1740 C 0.69725 0.96026 0.28348 0.0
C1741 C 0.69663 0.96648 0.30359 0.0
C1742 C 0.69382 0.94388 0.21471 0.0
C1743 C 0.68827 0.92873 0.21362 0.0
C1744 C 0.69258 0.95067 0.23381 0.0
C1745 C 0.68548 0.94246 0.25205 0.0
C1746 C 0.67973 0.92736 0.25102 0.0
C1747 C 0.68123 0.92058 0.23211 0.0
H1748 H 0.07811 0.72523 0.2945 0.0
H1749 H 0.04499 0.72983 0.26136 0.0
H1750 H 0.09573 0.7422 0.26948 0.0
H1751 H 0.06218 0.74584 0.23501 0.0
H1752 H 0.09578 0.77788 0.19246 0.0
H1753 H 0.08135 0.76703 0.22436 0.0
H1754 H 0.10267 0.74217 0.23443 0.0
H1755 H 0.11814 0.75427 0.20433 0.0
C1756 C 0.07465 0.72993 0.28177 0.0
C1757 C 0.06026 0.72622 0.27963 0.0
C1758 C 0.08469 0.73955 0.26724 0.0
C1759 C 0.08043 0.74523 0.24972 0.0
C1760 C 0.06604 0.74192 0.24833 0.0
C1761 C 0.0561 0.73266 0.26334 0.0
C1762 C 0.0977 0.77043 0.20185 0.0
C1763 C 0.10809 0.76688 0.19548 0.0
C1764 C 0.08919 0.76396 0.22002 0.0
C1765 C 0.0906 0.7535 0.23202 0.0
C1766 C 0.10128 0.75029 0.22598 0.0
C1767 C 0.11001 0.75703 0.20823 0.0
H1768 H 0.25011 0.30113 0.32323 0.0
H1769 H 0.28569 0.34254 0.3053 0.0
H1770 H 0.23934 0.29805 0.28645 0.0
H1771 H 0.27471 0.33965 0.26879 0.0
H1772 H 0.25846 0.32418 0.19862 0.0
H1773 H 0.26932 0.3258 0.23491 0.0
H1774 H 0.22766 0.30761 0.26385 0.0
H1775 H 0.2168 0.30574 0.22737 0.0
C1776 C 0.25562 0.3096 0.31148 0.0
C1777 C 0.26878 0.32209 0.31725 0.0
C1778 C 0.2494 0.30787 0.29042 0.0
C1779 C 0.25614 0.3186 0.27464 0.0
C1780 C 0.26932 0.33105 0.28039 0.0
C1781 C 0.27559 0.33275 0.30141 0.0
C1782 C 0.25164 0.32055 0.21276 0.0
C1783 C 0.2368 0.31491 0.2102 0.0
C1784 C 0.25786 0.32151 0.23357 0.0
C1785 C 0.24939 0.31694 0.25236 0.0
C1786 C 0.23449 0.31106 0.24972 0.0
C1787 C 0.22825 0.31001 0.22884 0.0
H1788 H 0.28023 0.36986 0.39868 0.0
H1789 H 0.26446 0.32572 0.41872 0.0
H1790 H 0.26297 0.37156 0.42242 0.0
H1791 H 0.24741 0.32744 0.44225 0.0
H1792 H 0.21275 0.33039 0.47532 0.0
H1793 H 0.22606 0.32992 0.44344 0.0
H1794 H 0.26101 0.37246 0.46297 0.0
H1795 H 0.24771 0.37294 0.49475 0.0
C1796 C 0.27296 0.36046 0.40785 0.0
C1797 C 0.27374 0.34766 0.40682 0.0
C1798 C 0.26312 0.36146 0.42148 0.0
C1799 C 0.25382 0.34963 0.43419 0.0
C1800 C 0.25424 0.33666 0.43241 0.0
C1801 C 0.2641 0.3357 0.41894 0.0
C1802 C 0.22319 0.33972 0.4726 0.0
C1803 C 0.22927 0.35161 0.48769 0.0
C1804 C 0.23081 0.33946 0.45437 0.0
C1805 C 0.24466 0.35107 0.45086 0.0
C1806 C 0.25032 0.36339 0.46509 0.0
C1807 C 0.24269 0.36366 0.48333 0.0
H1808 H 0.68906 0.9612 0.41379 0.0
H1809 H 0.64404 0.93146 0.39997 0.0
H1810 H 0.69028 0.94327 0.43652 0.0
H1811 H 0.64528 0.91342 0.42303 0.0
H1812 H 0.65201 0.8976 0.49234 0.0
H1813 H 0.64907 0.91171 0.46355 0.0
H1814 H 0.6884 0.91906 0.43467 0.0
H1815 H 0.69128 0.9048 0.46331 0.0
C1816 C 0.67946 0.95075 0.41526 0.0
C1817 C 0.66646 0.94776 0.40495 0.0
C1818 C 0.68018 0.94043 0.42829 0.0
C1819 C 0.66789 0.92691 0.4315 0.0
C1820 C 0.65491 0.92379 0.42092 0.0
C1821 C 0.65422 0.93409 0.40768 0.0
C1822 C 0.65985 0.9019 0.47954 0.0
C1823 C 0.67197 0.9002 0.48027 0.0
C1824 C 0.65816 0.91001 0.46305 0.0
C1825 C 0.66858 0.91661 0.44699 0.0
C1826 C 0.68032 0.91429 0.44706 0.0
C1827 C 0.68198 0.90616 0.46348 0.0
H1828 H 0.08957 0.71799 0.36166 0.0
H1829 H 0.04925 0.71107 0.3861 0.0
H1830 H 0.10124 0.7291 0.39699 0.0
H1831 H 0.06093 0.72188 0.42178 0.0
H1832 H 0.08958 0.75555 0.47494 0.0
H1833 H 0.07798 0.7449 0.43922 0.0
H1834 H 0.10247 0.72297 0.43448 0.0
H1835 H 0.11458 0.73418 0.46964 0.0
C1836 C 0.08315 0.71873 0.37461 0.0
C1837 C 0.06844 0.7136 0.37099 0.0
C1838 C 0.08985 0.72505 0.39496 0.0
C1839 C 0.08204 0.72635 0.41228 0.0
C1840 C 0.06732 0.72122 0.4087 0.0
C1841 C 0.0606 0.71493 0.38828 0.0
C1842 C 0.09266 0.74863 0.46612 0.0
C1843 C 0.10307 0.74577 0.47515 0.0
C1844 C 0.08584 0.74235 0.44577 0.0
C1845 C 0.08925 0.73304 0.43397 0.0
C1846 C 0.09969 0.73021 0.44298 0.0
C1847 C 0.10653 0.73652 0.46329 0.0
H1848 H 0.31341 0.0458 0.70345 0.0
H1849 H 0.35567 0.05158 0.71476 0.0
H1850 H 0.31599 0.05935 0.73776 0.0
H1851 H 0.35821 0.06518 0.74908 0.0
H1852 H 0.36341 0.10494 0.79031 0.0
H1853 H 0.3604 0.08965 0.75796 0.0
H1854 H 0.31847 0.05765 0.77915 0.0
H1855 H 0.32159 0.07269 0.81198 0.0
C1856 C 0.3232 0.04985 0.71333 0.0
C1857 C 0.33436 0.04765 0.7063 0.0
C1858 C 0.32464 0.05756 0.73303 0.0
C1859 C 0.33733 0.06338 0.74601 0.0
C1860 C 0.34836 0.06093 0.73927 0.0
C1861 C 0.34686 0.05306 0.71969 0.0
C1862 C 0.35362 0.09456 0.78831 0.0
C1863 C 0.34276 0.09007 0.80388 0.0
C1864 C 0.3519 0.08581 0.76973 0.0
C1865 C 0.33923 0.07244 0.76609 0.0
C1866 C 0.32831 0.06797 0.78146 0.0
C1867 C 0.33008 0.07664 0.80021 0.0
H1868 H 0.9569 0.26935 0.76175 0.0
H1869 H 0.92221 0.27715 0.74589 0.0
H1870 H 0.94175 0.25057 0.78668 0.0
H1871 H 0.90656 0.25759 0.76973 0.0
H1872 H 0.88944 0.23649 0.83585 0.0
H1873 H 0.9022 0.25259 0.80639 0.0
H1874 H 0.92313 0.22777 0.79259 0.0
H1875 H 0.91165 0.21273 0.82369 0.0
C1876 C 0.94588 0.26678 0.76323 0.0
C1877 C 0.94077 0.27481 0.75207 0.0
C1878 C 0.9371 0.25588 0.77743 0.0
C1879 C 0.92283 0.25246 0.78043 0.0
C1880 C 0.91756 0.2601 0.76836 0.0
C1881 C 0.92649 0.27128 0.75456 0.0
C1882 C 0.89691 0.23455 0.82676 0.0
C1883 C 0.8997 0.22344 0.83267 0.0
C1884 C 0.90405 0.24366 0.80944 0.0
C1885 C 0.91393 0.2417 0.79712 0.0
C1886 C 0.91595 0.22995 0.80204 0.0
C1887 C 0.90909 0.22107 0.81972 0.0
H1888 H 0.71636 0.6612 0.72567 0.0
H1889 H 0.75708 0.69329 0.70034 0.0
H1890 H 0.72737 0.66536 0.76258 0.0
H1891 H 0.76808 0.69715 0.73698 0.0
H1892 H 0.77894 0.71288 0.80871 0.0
H1893 H 0.7678 0.70794 0.77197 0.0
H1894 H 0.74448 0.66201 0.78468 0.0
H1895 H 0.75518 0.66704 0.82193 0.0
C1896 C 0.72768 0.66906 0.72791 0.0
C1897 C 0.7358 0.67698 0.71002 0.0
C1898 C 0.734 0.67138 0.74906 0.0
C1899 C 0.7486 0.68164 0.75277 0.0
C1900 C 0.75675 0.68936 0.7348 0.0
C1901 C 0.75044 0.68709 0.71372 0.0
C1902 C 0.77134 0.70173 0.80377 0.0
C1903 C 0.76791 0.69036 0.81832 0.0
C1904 C 0.76508 0.69887 0.78258 0.0
C1905 C 0.75527 0.68457 0.77533 0.0
C1906 C 0.75189 0.67317 0.78981 0.0
C1907 C 0.75815 0.67603 0.81107 0.0
H1908 H 0.72013 0.62781 0.62726 0.0
H1909 H 0.73879 0.67253 0.60828 0.0
H1910 H 0.73554 0.62442 0.60163 0.0
H1911 H 0.75408 0.66913 0.58285 0.0
H1912 H 0.78525 0.66187 0.5456 0.0
H1913 H 0.7739 0.66392 0.57893 0.0
H1914 H 0.73549 0.62366 0.56058 0.0
H1915 H 0.74671 0.62167 0.52724 0.0
C1916 C 0.72768 0.63698 0.61794 0.0
C1917 C 0.72818 0.65043 0.61974 0.0
C1918 C 0.73646 0.63501 0.60324 0.0
C1919 C 0.74599 0.64649 0.5902 0.0
C1920 C 0.74699 0.66013 0.59287 0.0
C1921 C 0.73816 0.66206 0.60741 0.0
C1922 C 0.77443 0.65338 0.54882 0.0
C1923 C 0.76682 0.6417 0.53362 0.0
C1924 C 0.76796 0.65455 0.56791 0.0
C1925 C 0.75377 0.64402 0.57226 0.0
C1926 C 0.74649 0.63186 0.55782 0.0
C1927 C 0.75294 0.63072 0.53869 0.0
H1928 H 0.33188 0.04748 0.59793 0.0
H1929 H 0.37332 0.07566 0.62917 0.0
H1930 H 0.33485 0.06707 0.57466 0.0
H1931 H 0.37607 0.09563 0.60658 0.0
H1932 H 0.3838 0.12097 0.54267 0.0
H1933 H 0.38073 0.10336 0.57013 0.0
H1934 H 0.33557 0.08922 0.57207 0.0
H1935 H 0.33839 0.10589 0.54326 0.0
C1936 C 0.34152 0.05798 0.60013 0.0
C1937 C 0.35239 0.06001 0.6153 0.0
C1938 C 0.3432 0.06929 0.58686 0.0
C1939 C 0.35572 0.08302 0.58864 0.0
C1940 C 0.3664 0.08517 0.60441 0.0
C1941 C 0.36479 0.07375 0.61749 0.0
C1942 C 0.37318 0.11404 0.54881 0.0
C1943 C 0.36133 0.11479 0.54039 0.0
C1944 C 0.37145 0.10407 0.5649 0.0
C1945 C 0.35786 0.0947 0.57326 0.0
C1946 C 0.34615 0.096 0.56571 0.0
C1947 C 0.34783 0.1058 0.54938 0.0
H1948 H 0.95261 0.28154 0.65302 0.0
H1949 H 0.91482 0.28572 0.65661 0.0
H1950 H 0.94386 0.2685 0.6175 0.0
H1951 H 0.90618 0.27276 0.62097 0.0
H1952 H 0.90552 0.26316 0.54506 0.0
H1953 H 0.91387 0.27659 0.58034 0.0
H1954 H 0.92237 0.24377 0.60519 0.0
H1955 H 0.91353 0.23001 0.57036 0.0
C1956 C 0.9425 0.27978 0.64618 0.0
C1957 C 0.93439 0.28463 0.65768 0.0
C1958 C 0.93746 0.27224 0.62592 0.0
C1959 C 0.92433 0.26959 0.61657 0.0
C1960 C 0.91637 0.27472 0.62778 0.0
C1961 C 0.9213 0.28208 0.64821 0.0
C1962 C 0.90893 0.25865 0.55813 0.0
C1963 C 0.90888 0.24549 0.55475 0.0
C1964 C 0.91378 0.2664 0.57828 0.0
C1965 C 0.91886 0.26126 0.59538 0.0
C1966 C 0.91872 0.24809 0.59213 0.0
C1967 C 0.9137 0.24025 0.57213 0.0
H1968 H 0.36862 0.3024 0.65218 0.0
H1969 H 0.32272 0.2809 0.6421 0.0
H1970 H 0.37062 0.29131 0.61811 0.0
H1971 H 0.32452 0.26895 0.60849 0.0
H1972 H 0.33427 0.2594 0.53869 0.0
H1973 H 0.33139 0.27098 0.57186 0.0
H1974 H 0.36689 0.26952 0.60358 0.0
H1975 H 0.37018 0.25883 0.56991 0.0
C1976 C 0.35892 0.2952 0.64267 0.0
C1977 C 0.34551 0.29247 0.64981 0.0
C1978 C 0.36003 0.28868 0.6232 0.0
C1979 C 0.34771 0.27895 0.61059 0.0
C1980 C 0.33428 0.27646 0.61756 0.0
C1981 C 0.33321 0.28327 0.63687 0.0
C1982 C 0.34136 0.26153 0.55289 0.0
C1983 C 0.35248 0.25832 0.55184 0.0
C1984 C 0.3397 0.26811 0.57195 0.0
C1985 C 0.349 0.27139 0.59048 0.0
C1986 C 0.35978 0.26761 0.58952 0.0
C1987 C 0.36161 0.26133 0.57033 0.0
H1988 H 0.73483 0.0545 0.59281 0.0
H1989 H 0.71441 0.07827 0.61542 0.0
H1990 H 0.74942 0.074 0.56845 0.0
H1991 H 0.7294 0.09813 0.59134 0.0
H1992 H 0.7438 0.11892 0.52267 0.0
H1993 H 0.73133 0.10267 0.5526 0.0
H1994 H 0.76848 0.09829 0.56607 0.0
H1995 H 0.78071 0.1142 0.53568 0.0
C1996 C 0.73365 0.06404 0.59291 0.0
C1997 C 0.72344 0.06482 0.60602 0.0
C1998 C 0.7421 0.07529 0.57898 0.0
C1999 C 0.74063 0.08769 0.57791 0.0
C2000 C 0.73069 0.08867 0.59154 0.0
C2001 C 0.72215 0.07733 0.60542 0.0
C2002 C 0.74936 0.11468 0.53233 0.0
C2003 C 0.76314 0.11767 0.52676 0.0
C2004 C 0.74225 0.10539 0.54952 0.0
C2005 C 0.74883 0.09902 0.56162 0.0
C2006 C 0.76295 0.10272 0.55678 0.0
C2007 C 0.76999 0.11187 0.53945 0.0
H2008 H 0.94791 0.68791 0.64084 0.0
H2009 H 0.91738 0.6433 0.65498 0.0
H2010 H 0.93649 0.68458 0.60414 0.0
H2011 H 0.90632 0.63997 0.61821 0.0
H2012 H 0.9069 0.63834 0.54019 0.0
H2013 H 0.91786 0.64235 0.57699 0.0
H2014 H 0.90842 0.67661 0.59003 0.0
H2015 H 0.89654 0.6721 0.55369 0.0
C2016 C 0.93882 0.67742 0.63609 0.0
C2017 C 0.93352 0.66587 0.65076 0.0
C2018 C 0.93227 0.67555 0.61521 0.0
C2019 C 0.92058 0.66203 0.6085 0.0
C2020 C 0.91535 0.65048 0.62307 0.0
C2021 C 0.92166 0.65242 0.64409 0.0
C2022 C 0.90683 0.64654 0.55094 0.0
C2023 C 0.90064 0.65477 0.54385 0.0
C2024 C 0.91326 0.6489 0.57194 0.0
C2025 C 0.91396 0.65978 0.58619 0.0
C2026 C 0.90808 0.66824 0.57917 0.0
C2027 C 0.90136 0.66567 0.5583 0.0
H2028 H 0.93711 0.6728 0.7585 0.0
H2029 H 0.95109 0.71432 0.72903 0.0
H2030 H 0.92298 0.67757 0.78423 0.0
H2031 H 0.93638 0.71896 0.75449 0.0
H2032 H 0.92501 0.72914 0.82385 0.0
H2033 H 0.93638 0.72476 0.79265 0.0
H2034 H 0.90267 0.67977 0.78912 0.0
H2035 H 0.89204 0.68379 0.82134 0.0
C2036 C 0.93691 0.68284 0.75718 0.0
C2037 C 0.94523 0.69318 0.74172 0.0
C2038 C 0.9287 0.68556 0.77191 0.0
C2039 C 0.92845 0.69865 0.77144 0.0
C2040 C 0.93645 0.70884 0.7555 0.0
C2041 C 0.94481 0.70616 0.74083 0.0
C2042 C 0.92004 0.71829 0.81649 0.0
C2043 C 0.90771 0.70679 0.82549 0.0
C2044 C 0.92645 0.71583 0.79832 0.0
C2045 C 0.92057 0.70184 0.78853 0.0
C2046 C 0.9077 0.6906 0.79656 0.0
C2047 C 0.90144 0.69299 0.81491 0.0
H2048 H 0.34514 0.29039 0.7531 0.0
H2049 H 0.30139 0.26286 0.72948 0.0
H2050 H 0.34298 0.27124 0.77682 0.0
H2051 H 0.29928 0.24356 0.75317 0.0
H2052 H 0.29679 0.22344 0.82208 0.0
H2053 H 0.29822 0.23961 0.79297 0.0
H2054 H 0.34022 0.24706 0.77698 0.0
H2055 H 0.33879 0.23089 0.80615 0.0
C2056 C 0.33513 0.28016 0.75267 0.0
C2057 C 0.32344 0.27816 0.73939 0.0
C2058 C 0.33391 0.26914 0.76623 0.0
C2059 C 0.32095 0.25587 0.76689 0.0
C2060 C 0.30935 0.25373 0.7532 0.0
C2061 C 0.31059 0.26476 0.73957 0.0
C2062 C 0.3062 0.22827 0.81204 0.0
C2063 C 0.31773 0.22599 0.81654 0.0
C2064 C 0.30702 0.23755 0.79534 0.0
C2065 C 0.31939 0.24472 0.78279 0.0
C2066 C 0.33065 0.2419 0.78664 0.0
C2067 C 0.32983 0.23264 0.80333 0.0
H2068 H 0.75252 0.05575 0.69874 0.0
H2069 H 0.71433 0.05901 0.70467 0.0
H2070 H 0.76208 0.06968 0.73354 0.0
H2071 H 0.72402 0.07307 0.73922 0.0
H2072 H 0.75551 0.11339 0.78254 0.0
H2073 H 0.7461 0.09866 0.74862 0.0
H2074 H 0.75517 0.06668 0.77533 0.0
H2075 H 0.764 0.08102 0.80979 0.0
C2076 C 0.74615 0.05938 0.70749 0.0
C2077 C 0.73267 0.05629 0.69892 0.0
C2078 C 0.75161 0.0673 0.72742 0.0
C2079 C 0.74381 0.0725 0.73893 0.0
C2080 C 0.73029 0.06929 0.73053 0.0
C2081 C 0.72472 0.06116 0.71083 0.0
C2082 C 0.75536 0.10315 0.7814 0.0
C2083 C 0.76043 0.09839 0.79911 0.0
C2084 C 0.75002 0.09475 0.7619 0.0
C2085 C 0.74984 0.08152 0.75945 0.0
C2086 C 0.75527 0.0769 0.77678 0.0
C2087 C 0.76041 0.08519 0.79646 0.0
H2088 H 0.06117 0.38179 0.02466 0.0
H2089 H 0.02984 0.33593 0.0222 0.0
H2090 H 0.07898 0.37647 0.04003 0.0
H2091 H 0.04779 0.33061 0.03734 0.0
H2092 H 0.08044 0.33011 0.08814 0.0
H2093 H 0.06185 0.33388 0.07152 0.0
H2094 H 0.09285 0.36521 0.0281 0.0
H2095 H 0.11145 0.36141 0.04466 0.0
C2096 C 0.05806 0.37056 0.02743 0.0
C2097 C 0.04407 0.35928 0.02216 0.0
C2098 C 0.06832 0.36751 0.03607 0.0
C2099 C 0.06485 0.3531 0.0397 0.0
C2100 C 0.05079 0.34182 0.03483 0.0
C2101 C 0.04051 0.34488 0.02612 0.0
C2102 C 0.08324 0.33758 0.07473 0.0
C2103 C 0.09746 0.3455 0.06779 0.0
C2104 C 0.07258 0.33977 0.06526 0.0
C2105 C 0.0759 0.34996 0.04866 0.0
C2106 C 0.09001 0.3575 0.04118 0.0
C2107 C 0.10066 0.3553 0.05063 0.0
H2108 H 0.61789 0.68391 0.06119 0.0
H2109 H 0.65632 0.68937 0.03127 0.0
H2110 H 0.62831 0.71012 0.06376 0.0
H2111 H 0.6666 0.71565 0.03328 0.0
H2112 H 0.64804 0.75818 0.06134 0.0
H2113 H 0.63718 0.73323 0.04667 0.0
H2114 H 0.67598 0.73272 0.06391 0.0
H2115 H 0.68677 0.75751 0.0783 0.0
C2116 C 0.62842 0.69068 0.05464 0.0
C2117 C 0.63636 0.68451 0.0464 0.0
C2118 C 0.63438 0.70575 0.05599 0.0
C2119 C 0.64839 0.71502 0.049 0.0
C2120 C 0.6559 0.70883 0.03924 0.0
C2121 C 0.64997 0.69375 0.038 0.0
C2122 C 0.6543 0.75277 0.06166 0.0
C2123 C 0.66824 0.7598 0.07112 0.0
C2124 C 0.64807 0.73848 0.05329 0.0
C2125 C 0.65565 0.7309 0.05426 0.0
C2126 C 0.66988 0.73826 0.06256 0.0
C2127 C 0.6761 0.75252 0.07085 0.0
H2128 H 0.3076 0.95161 0.97948 0.0
H2129 H 0.3305 0.97673 0.03826 0.0
H2130 H 0.28602 0.93816 0.00068 0.0
H2131 H 0.309 0.96311 0.05949 0.0
H2132 H 0.26452 0.94562 0.08655 0.0
H2133 H 0.28503 0.95971 0.06355 0.0
H2134 H 0.27723 0.92023 0.02963 0.0
H2135 H 0.25639 0.90618 0.05209 0.0
C2136 C 0.30804 0.95426 0.99692 0.0
C2137 C 0.32078 0.96523 0.00719 0.0
C2138 C 0.29569 0.9465 0.00908 0.0
C2139 C 0.2958 0.94956 0.03176 0.0
C2140 C 0.30851 0.96062 0.04198 0.0
C2141 C 0.32086 0.96836 0.02984 0.0
C2142 C 0.26703 0.93997 0.07393 0.0
C2143 C 0.25883 0.92477 0.07115 0.0
C2144 C 0.27889 0.94803 0.06094 0.0
C2145 C 0.28281 0.94108 0.04486 0.0
C2146 C 0.27443 0.92592 0.04176 0.0
C2147 C 0.26258 0.91786 0.05478 0.0
H2148 H 0.39476 0.05654 0.97246 0.0
H2149 H 0.35479 0.03028 0.00487 0.0
H2150 H 0.38886 0.07534 0.96774 0.0
H2151 H 0.34915 0.04972 0.00142 0.0
H2152 H 0.33462 0.07513 0.95649 0.0
H2153 H 0.34115 0.05902 0.97423 0.0
H2154 H 0.38531 0.09368 0.97917 0.0
H2155 H 0.37917 0.10911 0.95879 0.0
C2156 C 0.38486 0.05494 0.97923 0.0
C2157 C 0.37514 0.04175 0.9887 0.0
C2158 C 0.38149 0.06589 0.97671 0.0
C2159 C 0.3684 0.06414 0.984 0.0
C2160 C 0.35916 0.05137 0.99507 0.0
C2161 C 0.36244 0.04025 0.99723 0.0
C2162 C 0.34577 0.07934 0.96109 0.0
C2163 C 0.35638 0.09334 0.95512 0.0
C2164 C 0.3495 0.07011 0.97182 0.0
C2165 C 0.3639 0.07481 0.97756 0.0
C2166 C 0.3742 0.08941 0.97417 0.0
C2167 C 0.37056 0.09845 0.96277 0.0
H2168 H 0.94616 0.31689 0.97138 0.0
H2169 H 0.97684 0.31079 0.00959 0.0
H2170 H 0.92965 0.29108 0.97076 0.0
H2171 H 0.95983 0.28472 0.01008 0.0
H2172 H 0.93495 0.23882 0.97651 0.0
H2173 H 0.95051 0.2642 0.98687 0.0
H2174 H 0.91381 0.27033 0.98801 0.0
H2175 H 0.89853 0.2455 0.97521 0.0
C2176 C 0.94927 0.31006 0.98017 0.0
C2177 C 0.96292 0.31596 0.99038 0.0
C2178 C 0.93967 0.29514 0.98 0.0
C2179 C 0.9433 0.28563 0.99038 0.0
C2180 C 0.95671 0.29161 0.00155 0.0
C2181 C 0.96645 0.3066 0.00141 0.0
C2182 C 0.93016 0.24556 0.9788 0.0
C2183 C 0.91544 0.24002 0.97422 0.0
C2184 C 0.93911 0.26016 0.98519 0.0
C2185 C 0.93355 0.26956 0.98775 0.0
C2186 C 0.91863 0.26363 0.98543 0.0
C2187 C 0.90974 0.24916 0.97848 0.0
H2188 H 0.69266 0.64646 0.05131 0.0
H2189 H 0.67437 0.66016 -0.00048 0.0
H2190 H 0.7147 0.65561 0.03087 0.0
H2191 H 0.69629 0.66908 0.97902 0.0
H2192 H 0.74271 0.69835 0.96111 0.0
H2193 H 0.72112 0.68895 0.98251 0.0
H2194 H 0.724 0.65081 0.99675 0.0
H2195 H 0.74596 0.66048 0.97587 0.0
C2196 C 0.6933 0.65134 0.03552 0.0
C2197 C 0.68178 0.65264 0.02709 0.0
C2198 C 0.70591 0.65651 0.02377 0.0
C2199 C 0.70727 0.66314 0.0034 0.0
C2200 C 0.69566 0.66424 0.99484 0.0
C2201 C 0.68306 0.65904 0.00654 0.0
C2202 C 0.73888 0.68807 0.96909 0.0
C2203 C 0.74608 0.68018 0.96684 0.0
C2204 C 0.72639 0.68259 0.98111 0.0
C2205 C 0.72079 0.66909 0.99118 0.0
C2206 C 0.7281 0.66129 0.98927 0.0
C2207 C 0.7406 0.66676 0.97717 0.0
H2208 H 0.97014 0.66575 0.98479 0.0
H2209 H 0.93535 0.63991 0.02778 0.0
H2210 H 0.95564 0.67469 0.96718 0.0
H2211 H 0.92097 0.64902 0.01041 0.0
H2212 H 0.89462 0.65849 0.95988 0.0
H2213 H 0.90856 0.64826 0.97564 0.0
H2214 H 0.94648 0.69083 0.97721 0.0
H2215 H 0.9327 0.70092 0.96088 0.0
C2216 C 0.9594 0.66194 0.99045 0.0
C2217 C 0.95394 0.65217 0.00777 0.0
C2218 C 0.95111 0.66713 0.98044 0.0
C2219 C 0.93718 0.66264 0.98748 0.0
C2220 C 0.93161 0.65261 0.00446 0.0
C2221 C 0.9399 0.64745 0.0145 0.0
C2222 C 0.90595 0.66563 0.96351 0.0
C2223 C 0.91253 0.68053 0.95923 0.0
C2224 C 0.91391 0.6598 0.97268 0.0
C2225 C 0.92864 0.66872 0.97763 0.0
C2226 C 0.93519 0.68361 0.97335 0.0
C2227 C 0.92724 0.68944 0.96428 0.0
H2228 H 0.38679 0.32191 0.97988 0.0
H2229 H 0.34331 0.31375 0.97935 0.0
H2230 H 0.37785 0.29588 0.97717 0.0
H2231 H 0.33435 0.28777 0.97563 0.0
H2232 H 0.32082 0.24039 0.9756 0.0
H2233 H 0.3309 0.26548 0.98944 0.0
H2234 H 0.3674 0.27852 0.94806 0.0
H2235 H 0.35754 0.25366 0.9348 0.0
C2236 C 0.37532 0.31455 0.97935 0.0
C2237 C 0.36577 0.31991 0.97952 0.0
C2238 C 0.37018 0.29961 0.97767 0.0
C2239 C 0.35537 0.28968 0.97575 0.0
C2240 C 0.34582 0.29503 0.97725 0.0
C2241 C 0.35096 0.30997 0.97926 0.0
C2242 C 0.3311 0.24863 0.96977 0.0
C2243 C 0.3384 0.24502 0.95417 0.0
C2244 C 0.33686 0.26301 0.97762 0.0
C2245 C 0.34998 0.27409 0.96987 0.0
C2246 C 0.35745 0.27031 0.95484 0.0
C2247 C 0.35177 0.25598 0.94716 0.0
H2248 H 0.674 0.02839 0.99177 0.0
H2249 H 0.67138 0.06599 0.01293 0.0
H2250 H 0.69539 0.04397 0.97141 0.0
H2251 H 0.69249 0.08152 0.992 0.0
H2252 H 0.73858 0.10709 0.97037 0.0
H2253 H 0.71786 0.09117 0.99195 0.0
H2254 H 0.70282 0.05843 0.93936 0.0
H2255 H 0.72366 0.07424 0.9181 0.0
C2256 C 0.67792 0.03997 0.99193 0.0
C2257 C 0.67099 0.04596 0.00398 0.0
C2258 C 0.69016 0.04891 0.98017 0.0
C2259 C 0.69569 0.06402 0.98007 0.0
C2260 C 0.68868 0.06997 0.99202 0.0
C2261 C 0.6765 0.06104 0.00389 0.0
C2262 C 0.73084 0.09648 0.96349 0.0
C2263 C 0.73274 0.09189 0.94259 0.0
C2264 C 0.71894 0.08737 0.97579 0.0
C2265 C 0.70863 0.07353 0.96737 0.0
C2266 C 0.71065 0.06891 0.94653 0.0
C2267 C 0.72259 0.07798 0.93432 0.0
H2268 H 0.65854 0.98463 0.04681 0.0
H2269 H 0.61798 0.94771 0.02586 0.0
H2270 H 0.66852 0.96893 0.05188 0.0
H2271 H 0.62823 0.93192 0.02903 0.0
H2272 H 0.64314 0.9064 0.07127 0.0
H2273 H 0.63392 0.92087 0.05558 0.0
H2274 H 0.67707 0.95433 0.04136 0.0
H2275 H 0.68638 0.94074 0.05978 0.0
C2276 C 0.65191 0.97317 0.04254 0.0
C2277 C 0.63746 0.96735 0.03622 0.0
C2278 C 0.65766 0.96408 0.04528 0.0
C2279 C 0.6492 0.94896 0.04116 0.0
C2280 C 0.63501 0.94337 0.03311 0.0
C2281 C 0.62914 0.95243 0.03104 0.0
C2282 C 0.65072 0.91692 0.06507 0.0
C2283 C 0.66558 0.92251 0.06768 0.0
C2284 C 0.64537 0.92517 0.05551 0.0
C2285 C 0.65471 0.93908 0.04755 0.0
C2286 C 0.6695 0.94397 0.04803 0.0
C2287 C 0.67487 0.93593 0.05826 0.0
H2288 H 0.05128 0.67973 0.02514 0.0
H2289 H 0.02046 0.69416 0.03109 0.0
H2290 H 0.07072 0.70478 0.02799 0.0
H2291 H 0.04006 0.7194 0.03383 0.0
H2292 H 0.07887 0.75382 0.07959 0.0
H2293 H 0.05792 0.73221 0.06447 0.0
H2294 H 0.08318 0.72926 0.01229 0.0
H2295 H 0.10425 0.75117 0.02722 0.0
C2296 C 0.04864 0.68828 0.02658 0.0
C2297 C 0.03433 0.68493 0.0282 0.0
C2298 C 0.05981 0.70268 0.02803 0.0
C2299 C 0.05695 0.71409 0.0313 0.0
C2300 C 0.04259 0.71083 0.03152 0.0
C2301 C 0.03137 0.69638 0.02983 0.0
C2302 C 0.07992 0.74894 0.06443 0.0
C2303 C 0.09335 0.75419 0.05481 0.0
C2304 C 0.06785 0.73648 0.05575 0.0
C2305 C 0.06891 0.72892 0.03732 0.0
C2306 C 0.08208 0.73473 0.02672 0.0
C2307 C 0.09415 0.74726 0.03532 0.0
H2308 H 0.3238 0.33854 0.01949 0.0
H2309 H 0.32823 0.38104 0.01349 0.0
H2310 H 0.301 0.33003 0.0374 0.0
H2311 H 0.30534 0.37245 0.03127 0.0
H2312 H 0.27199 0.35505 0.08642 0.0
H2313 H 0.29466 0.36418 0.06791 0.0
H2314 H 0.27646 0.32494 0.02712 0.0
H2315 H 0.25367 0.31585 0.04539 0.0
C2316 C 0.31994 0.34608 0.02205 0.0
C2317 C 0.32783 0.36047 0.01505 0.0
C2318 C 0.30682 0.34117 0.03215 0.0
C2319 C 0.30135 0.35054 0.0356 0.0
C2320 C 0.30934 0.365 0.02895 0.0
C2321 C 0.32243 0.3699 0.01872 0.0
C2322 C 0.27271 0.34847 0.07322 0.0
C2323 C 0.26099 0.33471 0.06738 0.0
C2324 C 0.28573 0.35369 0.06268 0.0
C2325 C 0.28735 0.34524 0.04616 0.0
C2326 C 0.27559 0.33159 0.04005 0.0
C2327 C 0.26254 0.32639 0.05051 0.0
H2328 H 0.69025 0.66722 0.36183 0.0
H2329 H 0.72722 0.71003 0.3562 0.0
H2330 H 0.70556 0.65842 0.37654 0.0
H2331 H 0.74251 0.70133 0.37154 0.0
H2332 H 0.76734 0.6767 0.37599 0.0
H2333 H 0.7522 0.68603 0.36196 0.0
H2334 H 0.71972 0.65986 0.40811 0.0
H2335 H 0.73471 0.65041 0.42174 0.0
C2336 C 0.70162 0.67481 0.364 0.0
C2337 C 0.7075 0.68932 0.35779 0.0
C2338 C 0.71042 0.66977 0.37252 0.0
C2339 C 0.72531 0.67915 0.37519 0.0
C2340 C 0.73114 0.69374 0.36937 0.0
C2341 C 0.72234 0.69876 0.36073 0.0
C2342 C 0.75698 0.67299 0.38314 0.0
C2343 C 0.75216 0.66271 0.39979 0.0
C2344 C 0.74831 0.67837 0.37518 0.0
C2345 C 0.73469 0.67366 0.38384 0.0
C2346 C 0.73 0.66351 0.40072 0.0
C2347 C 0.7386 0.65809 0.40855 0.0
H2348 H 0.28247 0.01796 0.39593 0.0
H2349 H 0.31929 0.02419 0.35996 0.0
H2350 H 0.29281 0.04405 0.39996 0.0
H2351 H 0.32942 0.05043 0.36316 0.0
H2352 H 0.35191 0.09258 0.40661 0.0
H2353 H 0.3405 0.06775 0.39225 0.0
H2354 H 0.3002 0.0671 0.38545 0.0
H2355 H 0.31168 0.09199 0.40057 0.0
C2356 C 0.29261 0.02489 0.38836 0.0
C2357 C 0.30015 0.01895 0.37794 0.0
C2358 C 0.29853 0.03993 0.39054 0.0
C2359 C 0.31207 0.04943 0.38214 0.0
C2360 C 0.31913 0.04346 0.37032 0.0
C2361 C 0.31328 0.0284 0.36836 0.0
C2362 C 0.34069 0.08727 0.40155 0.0
C2363 C 0.33268 0.09422 0.40481 0.0
C2364 C 0.33412 0.07299 0.39322 0.0
C2365 C 0.31937 0.0653 0.38777 0.0
C2366 C 0.31152 0.07256 0.38988 0.0
C2367 C 0.31809 0.08684 0.39845 0.0
H2368 H 0.99874 0.28037 0.34847 0.0
H2369 H 0.99053 0.31597 0.35699 0.0
H2370 H 0.97664 0.2644 0.36699 0.0
H2371 H 0.96827 0.29988 0.37522 0.0
H2372 H 0.94037 0.27103 0.43125 0.0
H2373 H 0.96107 0.28727 0.41012 0.0
H2374 H 0.95055 0.25258 0.36219 0.0
H2375 H 0.92975 0.23629 0.38332 0.0
C2376 C 0.99218 0.28478 0.35417 0.0
C2377 C 0.99643 0.29947 0.35132 0.0
C2378 C 0.97946 0.27558 0.36465 0.0
C2379 C 0.97069 0.28086 0.37254 0.0
C2380 C 0.97487 0.29552 0.36952 0.0
C2381 C 0.98759 0.30472 0.359 0.0
C2382 C 0.94229 0.26693 0.41598 0.0
C2383 C 0.9334 0.25235 0.40899 0.0
C2384 C 0.95419 0.27625 0.40388 0.0
C2385 C 0.9575 0.2712 0.38453 0.0
C2386 C 0.94842 0.25672 0.37723 0.0
C2387 C 0.9365 0.2474 0.38932 0.0
H2388 H 0.0583 0.39953 0.33998 0.0
H2389 H 0.01544 0.36656 0.31936 0.0
H2390 H 0.05229 0.41834 0.3327 0.0
H2391 H 0.00959 0.38533 0.31119 0.0
H2392 H 0.04525 0.44258 0.27545 0.0
H2393 H 0.04974 0.42654 0.29764 0.0
H2394 H 0.00612 0.40552 0.31957 0.0
H2395 H 0.00158 0.42173 0.29698 0.0
C2396 C 0.0475 0.39629 0.33434 0.0
C2397 C 0.03743 0.3816 0.32982 0.0
C2398 C 0.04407 0.40707 0.33003 0.0
C2399 C 0.03059 0.40339 0.32075 0.0
C2400 C 0.02007 0.3886 0.31835 0.0
C2401 C 0.02344 0.3778 0.32298 0.0
C2402 C 0.03671 0.43487 0.2855 0.0
C2403 C 0.02303 0.43342 0.28433 0.0
C2404 C 0.0393 0.42563 0.29834 0.0
C2405 C 0.02828 0.41468 0.31043 0.0
C2406 C 0.01478 0.41371 0.31023 0.0
C2407 C 0.01218 0.42298 0.29729 0.0
H2408 H 0.60937 0.65059 0.31333 0.0
H2409 H 0.64357 0.6436 0.33629 0.0
H2410 H 0.59314 0.62453 0.31094 0.0
H2411 H 0.62713 0.6174 0.33438 0.0
H2412 H 0.60025 0.57488 0.29156 0.0
H2413 H 0.61614 0.5998 0.30426 0.0
H2414 H 0.58004 0.60193 0.32971 0.0
H2415 H 0.56403 0.57686 0.31681 0.0
C2416 C 0.61339 0.64351 0.31826 0.0
C2417 C 0.62786 0.64924 0.32471 0.0
C2418 C 0.60401 0.62852 0.31706 0.0
C2419 C 0.60884 0.61883 0.32232 0.0
C2420 C 0.62312 0.62455 0.32988 0.0
C2421 C 0.63252 0.63958 0.33107 0.0
C2422 C 0.59572 0.58048 0.30043 0.0
C2423 C 0.58083 0.57388 0.30304 0.0
C2424 C 0.60486 0.59483 0.30773 0.0
C2425 C 0.59937 0.60294 0.31785 0.0
C2426 C 0.58459 0.59607 0.32161 0.0
C2427 C 0.57542 0.5817 0.31426 0.0
H2428 H 0.34385 0.9981 0.3358 0.0
H2429 H 0.34464 0.96327 0.37024 0.0
H2430 H 0.36497 0.00234 0.31571 0.0
H2431 H 0.36524 0.96702 0.34961 0.0
H2432 H 0.40853 0.98271 0.32245 0.0
H2433 H 0.38983 0.98239 0.34494 0.0
H2434 H 0.37204 0.99195 0.2874 0.0
H2435 H 0.39113 0.99286 0.26531 0.0
C2436 C 0.3485 0.99131 0.33899 0.0
C2437 C 0.34258 0.98035 0.3546 0.0
C2438 C 0.36057 0.99369 0.32742 0.0
C2439 C 0.36689 0.98505 0.33102 0.0
C2440 C 0.36092 0.97412 0.3467 0.0
C2441 C 0.349 0.97187 0.35843 0.0
C2442 C 0.4007 0.98492 0.31476 0.0
C2443 C 0.40123 0.98778 0.29218 0.0
C2444 C 0.38992 0.98464 0.32757 0.0
C2445 C 0.37927 0.98695 0.31797 0.0
C2446 C 0.38013 0.9903 0.29547 0.0
C2447 C 0.39104 0.99079 0.28276 0.0
H2448 H 0.60897 0.95393 0.33549 0.0
H2449 H 0.64179 0.99915 0.33323 0.0
H2450 H 0.59157 0.95968 0.31943 0.0
H2451 H 0.62435 0.00496 0.31785 0.0
H2452 H 0.59341 0.00866 0.27061 0.0
H2453 H 0.6105 0.00213 0.28523 0.0
H2454 H 0.57835 0.97171 0.32832 0.0
H2455 H 0.56111 0.97811 0.31326 0.0
C2456 C 0.61248 0.9651 0.33157 0.0
C2457 C 0.62679 0.97607 0.33561 0.0
C2458 C 0.60247 0.96842 0.32252 0.0
C2459 C 0.60652 0.9828 0.31738 0.0
C2460 C 0.62087 0.99373 0.32128 0.0
C2461 C 0.63088 0.99041 0.3302 0.0
C2462 C 0.59002 0.00067 0.28335 0.0
C2463 C 0.57595 0.99401 0.29095 0.0
C2464 C 0.59983 0.99692 0.29176 0.0
C2465 C 0.59586 0.98646 0.30808 0.0
C2466 C 0.58173 0.97969 0.31557 0.0
C2467 C 0.57187 0.98339 0.30702 0.0
H2468 H 0.04826 0.64978 0.29938 0.0
H2469 H 0.01307 0.64641 0.33695 0.0
H2470 H 0.03628 0.62361 0.29535 0.0
H2471 H 0.00129 0.61999 0.33384 0.0
H2472 H 0.9759 0.57809 0.28999 0.0
H2473 H 0.98872 0.60258 0.30577 0.0
H2474 H 0.0277 0.60043 0.30891 0.0
H2475 H 0.0151 0.57637 0.29138 0.0
C2476 C 0.03813 0.64344 0.30734 0.0
C2477 C 0.03154 0.65025 0.31818 0.0
C2478 C 0.03126 0.62832 0.30517 0.0
C2479 C 0.01768 0.61956 0.31406 0.0
C2480 C 0.01157 0.62636 0.32632 0.0
C2481 C 0.01838 0.64153 0.32825 0.0
C2482 C 0.98721 0.58281 0.29407 0.0
C2483 C 0.99451 0.57535 0.28878 0.0
C2484 C 0.99455 0.59684 0.30352 0.0
C2485 C 0.00938 0.6037 0.30828 0.0
C2486 C 0.01638 0.59569 0.30492 0.0
C2487 C 0.00908 0.58174 0.29514 0.0
H2488 H 0.36183 0.3831 0.37552 0.0
H2489 H 0.33566 0.36652 0.31564 0.0
H2490 H 0.38322 0.39543 0.35364 0.0
H2491 H 0.35706 0.37909 0.29377 0.0
H2492 H 0.39937 0.38761 0.26432 0.0
H2493 H 0.37784 0.37658 0.286 0.0
H2494 H 0.39552 0.41528 0.32801 0.0
H2495 H 0.41734 0.42616 0.3067 0.0
C2496 C 0.36062 0.38219 0.35768 0.0
C2497 C 0.34705 0.37375 0.34732 0.0
C2498 C 0.37288 0.38934 0.34515 0.0
C2499 C 0.37184 0.38819 0.32197 0.0
C2500 C 0.35823 0.38001 0.3116 0.0
C2501 C 0.34597 0.37288 0.32414 0.0
C2502 C 0.39873 0.39372 0.27831 0.0
C2503 C 0.41011 0.40772 0.28389 0.0
C2504 C 0.38631 0.38747 0.29056 0.0
C2505 C 0.38495 0.39507 0.30869 0.0
C2506 C 0.39629 0.4091 0.31424 0.0
C2507 C 0.40873 0.41538 0.30193 0.0
H2508 H 0.32803 0.31976 0.36394 0.0
H2509 H 0.28886 0.28354 0.3868 0.0
H2510 H 0.34002 0.3056 0.36792 0.0
H2511 H 0.3009 0.26963 0.39129 0.0
H2512 H 0.32302 0.24428 0.39195 0.0
H2513 H 0.3123 0.25742 0.37504 0.0
H2514 H 0.34811 0.29803 0.3997 0.0
H2515 H 0.35886 0.28494 0.4162 0.0
C2516 C 0.32191 0.30873 0.36953 0.0
C2517 C 0.30752 0.30287 0.37535 0.0
C2518 C 0.32881 0.30064 0.3719 0.0
C2519 C 0.32147 0.28652 0.38012 0.0
C2520 C 0.30687 0.28039 0.38468 0.0
C2521 C 0.29997 0.28845 0.38228 0.0
C2522 C 0.3287 0.25604 0.39336 0.0
C2523 C 0.3417 0.26357 0.40558 0.0
C2524 C 0.32256 0.26356 0.38374 0.0
C2525 C 0.32923 0.27877 0.38628 0.0
C2526 C 0.34273 0.28635 0.3972 0.0
C2527 C 0.3489 0.27883 0.4067 0.0
H2528 H 0.72573 0.02299 0.35629 0.0
H2529 H 0.69034 0.0296 0.37108 0.0
H2530 H 0.74198 0.04914 0.35775 0.0
H2531 H 0.70671 0.05581 0.37356 0.0
H2532 H 0.73928 0.10373 0.37138 0.0
H2533 H 0.72328 0.07873 0.35794 0.0
H2534 H 0.75155 0.06571 0.38817 0.0
H2535 H 0.76739 0.09042 0.40122 0.0
C2536 C 0.7214 0.03007 0.35963 0.0
C2537 C 0.70681 0.02426 0.36391 0.0
C2538 C 0.73073 0.04506 0.36059 0.0
C2539 C 0.72574 0.0546 0.3663 0.0
C2540 C 0.71094 0.04882 0.36903 0.0
C2541 C 0.70154 0.03378 0.3677 0.0
C2542 C 0.74212 0.09552 0.37486 0.0
C2543 C 0.75466 0.09911 0.38729 0.0
C2544 C 0.73295 0.0812 0.36721 0.0
C2545 C 0.7361 0.07017 0.37191 0.0
C2546 C 0.74889 0.07392 0.38373 0.0
C2547 C 0.75803 0.08816 0.39126 0.0
H2548 H 0.97661 0.65158 0.33294 0.0
H2549 H 0.9973 0.69545 0.36033 0.0
H2550 H 0.95465 0.64611 0.35153 0.0
H2551 H 0.97526 0.68992 0.37891 0.0
H2552 H 0.92784 0.67807 0.38626 0.0
H2553 H 0.9499 0.68369 0.36776 0.0
H2554 H 0.94643 0.64389 0.3907 0.0
H2555 H 0.92469 0.63843 0.40975 0.0
C2556 C 0.97649 0.66005 0.34296 0.0
C2557 C 0.98869 0.67395 0.34517 0.0
C2558 C 0.96393 0.65689 0.35366 0.0
C2559 C 0.96325 0.6676 0.3666 0.0
C2560 C 0.97545 0.68151 0.36885 0.0
C2561 C 0.98808 0.68463 0.35834 0.0
C2562 C 0.93183 0.67056 0.38753 0.0
C2563 C 0.92442 0.65777 0.39949 0.0
C2564 C 0.94445 0.67379 0.3769 0.0
C2565 C 0.94986 0.66422 0.37781 0.0
C2566 C 0.9424 0.65137 0.3895 0.0
C2567 C 0.92988 0.64821 0.40031 0.0
H2568 H 0.36852 0.00127 0.67697 0.0
H2569 H 0.39523 0.04313 0.70952 0.0
H2570 H 0.38374 0.99261 0.69216 0.0
H2571 H 0.41027 0.03425 0.7255 0.0
H2572 H 0.44238 0.01764 0.73131 0.0
H2573 H 0.42759 0.02719 0.71643 0.0
H2574 H 0.38959 0.9856 0.72564 0.0
H2575 H 0.40435 0.97607 0.7398 0.0
C2576 C 0.37756 0.00859 0.68761 0.0
C2577 C 0.38063 0.02289 0.69206 0.0
C2578 C 0.38627 0.00359 0.69644 0.0
C2579 C 0.39823 0.01269 0.71018 0.0
C2580 C 0.40127 0.02699 0.71476 0.0
C2581 C 0.39258 0.03205 0.70574 0.0
C2582 C 0.43086 0.01058 0.73008 0.0
C2583 C 0.42454 0.99605 0.73638 0.0
C2584 C 0.42237 0.01606 0.72169 0.0
C2585 C 0.40737 0.00714 0.71965 0.0
C2586 C 0.40111 0.99269 0.72642 0.0
C2587 C 0.40957 0.98721 0.73456 0.0
H2588 H 0.93996 0.34527 0.71103 0.0
H2589 H 0.98413 0.35631 0.70496 0.0
H2590 H 0.94746 0.37101 0.71376 0.0
H2591 H 0.99163 0.38195 0.70837 0.0
H2592 H 0.00237 0.42831 0.71002 0.0
H2593 H 0.99231 0.4035 0.69504 0.0
H2594 H 0.95923 0.38844 0.7434 0.0
H2595 H 0.96916 0.41302 0.75813 0.0
C2596 C 0.95125 0.35317 0.70996 0.0
C2597 C 0.96146 0.3487 0.70818 0.0
C2598 C 0.95555 0.36793 0.71163 0.0
C2599 C 0.97017 0.37856 0.7117 0.0
C2600 C 0.98028 0.3741 0.70825 0.0
C2601 C 0.97597 0.35934 0.70642 0.0
C2602 C 0.99283 0.4197 0.7172 0.0
C2603 C 0.98661 0.42265 0.73533 0.0
C2604 C 0.98707 0.40549 0.70864 0.0
C2605 C 0.975 0.39394 0.71807 0.0
C2606 C 0.96838 0.39706 0.73543 0.0
C2607 C 0.9741 0.41121 0.74393 0.0
H2608 H 0.66047 0.6379 0.70146 0.0
H2609 H 0.66193 0.59982 0.67933 0.0
H2610 H 0.63949 0.6226 0.72307 0.0
H2611 H 0.64098 0.58458 0.70088 0.0
H2612 H 0.61484 0.56607 0.7637 0.0
H2613 H 0.63523 0.58098 0.74107 0.0
H2614 H 0.61361 0.60297 0.71618 0.0
H2615 H 0.59295 0.58778 0.73841 0.0
C2616 C 0.65633 0.62629 0.70123 0.0
C2617 C 0.66287 0.62007 0.68872 0.0
C2618 C 0.64427 0.61753 0.71347 0.0
C2619 C 0.63861 0.60242 0.71361 0.0
C2620 C 0.64519 0.59622 0.7012 0.0
C2621 C 0.65716 0.60494 0.68881 0.0
C2622 C 0.61427 0.57388 0.75311 0.0
C2623 C 0.60219 0.57566 0.75284 0.0
C2624 C 0.626 0.58247 0.74022 0.0
C2625 C 0.626 0.59314 0.72691 0.0
C2626 C 0.61396 0.59493 0.72652 0.0
C2627 C 0.60214 0.58624 0.73928 0.0
H2628 H 0.71971 0.71847 0.65591 0.0
H2629 H 0.67659 0.68183 0.65196 0.0
H2630 H 0.71038 0.73497 0.65184 0.0
H2631 H 0.66726 0.69826 0.64688 0.0
H2632 H 0.65312 0.73154 0.64414 0.0
H2633 H 0.66294 0.7171 0.65955 0.0
H2634 H 0.70079 0.74076 0.62103 0.0
H2635 H 0.69117 0.75517 0.60615 0.0
C2636 C 0.70822 0.71395 0.65436 0.0
C2637 C 0.6989 0.69884 0.65392 0.0
C2638 C 0.70286 0.7234 0.65191 0.0
C2639 C 0.68808 0.71795 0.64855 0.0
C2640 C 0.67869 0.70287 0.64956 0.0
C2641 C 0.68405 0.69342 0.65236 0.0
C2642 C 0.66362 0.73373 0.63925 0.0
C2643 C 0.67139 0.74455 0.62401 0.0
C2644 C 0.66923 0.72545 0.64802 0.0
C2645 C 0.68268 0.72775 0.64159 0.0
C2646 C 0.69057 0.73887 0.62683 0.0
C2647 C 0.68502 0.74716 0.61822 0.0
H2648 H 0.31831 0.97779 0.66389 0.0
H2649 H 0.28448 0.98597 0.64328 0.0
H2650 H 0.30129 0.95173 0.66259 0.0
H2651 H 0.26763 0.96002 0.64151 0.0
H2652 H 0.23772 0.91249 0.6484 0.0
H2653 H 0.25447 0.93751 0.66071 0.0
H2654 H 0.2893 0.93416 0.63265 0.0
H2655 H 0.27267 0.90932 0.62046 0.0
C2656 C 0.30723 0.97407 0.65934 0.0
C2657 C 0.30283 0.98401 0.65343 0.0
C2658 C 0.29748 0.95912 0.65849 0.0
C2659 C 0.28311 0.95375 0.65174 0.0
C2660 C 0.27857 0.96373 0.647 0.0
C2661 C 0.28829 0.97867 0.64785 0.0
C2662 C 0.24898 0.91706 0.64513 0.0
C2663 C 0.25382 0.9089 0.63333 0.0
C2664 C 0.25858 0.93139 0.65216 0.0
C2665 C 0.27323 0.93791 0.64752 0.0
C2666 C 0.27815 0.92947 0.6368 0.0
C2667 C 0.26857 0.91516 0.6298 0.0
H2668 H 0.02344 0.32166 0.72373 0.0
H2669 H 0.0012 0.31883 0.66219 0.0
H2670 H 0.04402 0.32466 0.70337 0.0
H2671 H 0.02163 0.32152 0.64188 0.0
H2672 H 0.06469 0.3381 0.6115 0.0
H2673 H 0.04638 0.33857 0.63389 0.0
H2674 H 0.04979 0.30969 0.67971 0.0
H2675 H 0.06855 0.3097 0.65779 0.0
C2676 C 0.02296 0.32173 0.70587 0.0
C2677 C 0.01066 0.31995 0.69458 0.0
C2678 C 0.03472 0.32337 0.69421 0.0
C2679 C 0.03445 0.32328 0.671 0.0
C2680 C 0.02227 0.32183 0.65975 0.0
C2681 C 0.01051 0.3202 0.6714 0.0
C2682 C 0.06176 0.33209 0.6266 0.0
C2683 C 0.06807 0.32384 0.63284 0.0
C2684 C 0.05113 0.33222 0.63928 0.0
C2685 C 0.04655 0.32408 0.65849 0.0
C2686 C 0.05316 0.31617 0.6651 0.0
C2687 C 0.0638 0.31605 0.65241 0.0
H2688 H 0.30761 0.334 0.66179 0.0
H2689 H 0.27168 0.29112 0.67196 0.0
H2690 H 0.29134 0.34134 0.64578 0.0
H2691 H 0.25547 0.29851 0.65617 0.0
H2692 H 0.23319 0.31291 0.60568 0.0
H2693 H 0.24956 0.30549 0.62065 0.0
H2694 H 0.27207 0.34585 0.65864 0.0
H2695 H 0.25555 0.35324 0.64392 0.0
C2696 C 0.29627 0.32611 0.66048 0.0
C2697 C 0.29094 0.31197 0.66818 0.0
C2698 C 0.28694 0.33036 0.65148 0.0
C2699 C 0.27211 0.32053 0.64982 0.0
C2700 C 0.26685 0.3063 0.65706 0.0
C2701 C 0.27615 0.30209 0.66617 0.0
C2702 C 0.24147 0.32013 0.61751 0.0
C2703 C 0.24297 0.33365 0.62369 0.0
C2704 C 0.2509 0.31589 0.626 0.0
C2705 C 0.26213 0.32509 0.64079 0.0
C2706 C 0.26365 0.33861 0.64702 0.0
C2707 C 0.25417 0.34283 0.6386 0.0
H2708 H 0.68719 0.98402 0.66503 0.0
H2709 H 0.72579 0.99607 0.6295 0.0
H2710 H 0.68145 0.95868 0.66375 0.0
H2711 H 0.71975 0.97105 0.62699 0.0
H2712 H 0.71135 0.92734 0.62646 0.0
H2713 H 0.7175 0.95069 0.64219 0.0
H2714 H 0.67286 0.93883 0.63953 0.0
H2715 H 0.6664 0.9146 0.62662 0.0
C2716 C 0.69449 0.98129 0.6571 0.0
C2717 C 0.70692 0.9921 0.64731 0.0
C2718 C 0.69116 0.96673 0.6562 0.0
C2719 C 0.70007 0.96263 0.6452 0.0
C2720 C 0.71272 0.97361 0.63611 0.0
C2721 C 0.71616 0.9881 0.63736 0.0
C2722 C 0.70266 0.92929 0.62999 0.0
C2723 C 0.6883 0.91891 0.62444 0.0
C2724 C 0.70629 0.943 0.63865 0.0
C2725 C 0.6958 0.94703 0.64127 0.0
C2726 C 0.68134 0.93631 0.63757 0.0
C2727 C 0.67764 0.92238 0.62962 0.0
H2728 H 0.02261 0.7348 0.69607 0.0
H2729 H 0.00411 0.69912 0.64803 0.0
H2730 H 0.04461 0.74646 0.67542 0.0
H2731 H 0.02603 0.71092 0.62722 0.0
H2732 H 0.07297 0.72669 0.61285 0.0
H2733 H 0.05063 0.71596 0.63252 0.0
H2734 H 0.05453 0.75826 0.64037 0.0
H2735 H 0.07722 0.76912 0.62124 0.0
C2736 C 0.02318 0.72951 0.68099 0.0
C2737 C 0.01164 0.71598 0.67377 0.0
C2738 C 0.03576 0.73624 0.6691 0.0
C2739 C 0.03709 0.72957 0.64977 0.0
C2740 C 0.02541 0.71622 0.64225 0.0
C2741 C 0.01282 0.7095 0.65411 0.0
C2742 C 0.06916 0.73374 0.619 0.0
C2743 C 0.07691 0.74877 0.61562 0.0
C2744 C 0.05625 0.72755 0.63 0.0
C2745 C 0.05077 0.73624 0.63789 0.0
C2746 C 0.05853 0.75129 0.6346 0.0
C2747 C 0.07145 0.75749 0.62351 0.0
H2748 H 0.98824 0.6527 0.71252 0.0
H2749 H 0.94425 0.62197 0.69402 0.0
H2750 H 0.99297 0.63272 0.71738 0.0
H2751 H 0.94907 0.60204 0.6976 0.0
H2752 H 0.95552 0.57313 0.74602 0.0
H2753 H 0.95201 0.59167 0.72969 0.0
H2754 H 0.99499 0.61227 0.70507 0.0
H2755 H 0.99859 0.59352 0.72195 0.0
C2756 C 0.97972 0.64169 0.70874 0.0
C2757 C 0.96582 0.63882 0.70331 0.0
C2758 C 0.98243 0.63022 0.71144 0.0
C2759 C 0.9713 0.61571 0.70839 0.0
C2760 C 0.95777 0.61303 0.70079 0.0
C2761 C 0.95501 0.62444 0.69858 0.0
C2762 C 0.96412 0.58133 0.73659 0.0
C2763 C 0.97732 0.58177 0.73521 0.0
C2764 C 0.9621 0.59203 0.72714 0.0
C2765 C 0.97319 0.60349 0.7159 0.0
C2766 C 0.98627 0.60369 0.71379 0.0
C2767 C 0.98832 0.59294 0.72341 0.0
H2768 H 0.38926 0.35159 0.69618 0.0
H2769 H 0.35539 0.36151 0.70479 0.0
H2770 H 0.40688 0.37741 0.69741 0.0
H2771 H 0.37306 0.38738 0.70718 0.0
H2772 H 0.40775 0.43436 0.70463 0.0
H2773 H 0.39097 0.40939 0.69189 0.0
H2774 H 0.4167 0.39478 0.72635 0.0
H2775 H 0.43339 0.41949 0.73849 0.0
C2776 C 0.38558 0.35933 0.69818 0.0
C2777 C 0.37098 0.35454 0.7007 0.0
C2778 C 0.39568 0.37414 0.69903 0.0
C2779 C 0.39147 0.38453 0.7029 0.0
C2780 C 0.37674 0.37975 0.70404 0.0
C2781 C 0.36658 0.3649 0.70278 0.0
C2782 C 0.40988 0.42579 0.70914 0.0
C2783 C 0.42195 0.42893 0.72248 0.0
C2784 C 0.40025 0.41148 0.70193 0.0
C2785 C 0.40243 0.4 0.70806 0.0
C2786 C 0.41477 0.4033 0.72081 0.0
C2787 C 0.4244 0.41754 0.72783 0.0
H2788 H 0.64234 0.98626 0.65644 0.0
H2789 H 0.66374 0.02828 0.69017 0.0
H2790 H 0.6205 0.97998 0.6759 0.0
H2791 H 0.64179 0.0222 0.7091 0.0
H2792 H 0.60486 0.00026 0.75665 0.0
H2793 H 0.62674 0.00698 0.73708 0.0
H2794 H 0.60161 0.98562 0.67765 0.0
H2795 H 0.57968 0.97868 0.69746 0.0
C2796 C 0.64238 0.99418 0.66795 0.0
C2797 C 0.65479 0.00776 0.67178 0.0
C2798 C 0.62981 0.99063 0.67899 0.0
C2799 C 0.62934 0.0006 0.69401 0.0
C2800 C 0.6418 0.01417 0.69787 0.0
C2801 C 0.65439 0.01769 0.68694 0.0
C2802 C 0.60402 0.99718 0.73932 0.0
C2803 C 0.59055 0.98897 0.72857 0.0
C2804 C 0.61657 0.00103 0.72808 0.0
C2805 C 0.61596 0.99682 0.70577 0.0
C2806 C 0.60247 0.98882 0.69492 0.0
C2807 C 0.58991 0.98489 0.70622 0.0
loop_
_geom_bond_atom_site_label_1
_geom_bond_atom_site_label_2
_geom_bond_distance
_geom_bond_site_symmetry_2
_ccdc_geom_bond_type
Mg0 O1 2.008 1_556 S
Mg0 O7 1.983 1_456 S
Mg0 O9 2.124 . S
Mg0 O10 2.263 1_455 S
Mg0 O13 2.004 1_556 S
O1 Mg0 2.008 1_554 S
O1 C4 1.250 1_455 S
O2 Mg3 2.028 1_554 S
O2 C4 1.248 . S
Mg3 O2 2.028 1_556 S
Mg3 O8 2.032 . S
Mg3 O10 2.079 . S
C4 O1 1.250 1_655 S
C4 O2 1.248 . S
C5 O6 1.264 . S
C5 O13 1.249 . S
O6 C5 1.264 . S
O7 Mg0 1.983 1_654 S
O7 C11 1.246 1_554 S
O8 Mg3 2.032 . S
O8 C11 1.259 . S
O9 Mg0 2.124 . S
O9 C12 1.252 . S
O10 Mg0 2.263 1_655 S
O10 Mg3 2.079 . S
O10 C12 1.273 1_655 S
C11 O7 1.246 1_556 S
C11 O8 1.259 . S
C12 O9 1.252 . S
C12 O10 1.273 1_455 S
O13 Mg0 2.004 1_554 S
O13 C5 1.249 . S
Mg14 O15 2.028 1_554 S
Mg14 O21 1.986 . S
Mg14 O23 2.114 . S
Mg14 O24 2.251 . S
Mg14 O27 2.010 . S
O15 Mg14 2.028 1_556 S
O15 C18 1.250 . S
O16 Mg17 2.032 1_556 S
O16 C18 1.246 . S
Mg17 O16 2.032 1_554 S
Mg17 O22 2.032 . S
Mg17 O24 2.079 . S
C18 O15 1.250 . S
C18 O16 1.246 . S
C19 O20 1.264 . S
C19 O27 1.249 . S
O20 C19 1.264 . S
O21 Mg14 1.986 . S
O21 C25 1.246 . S
O22 Mg17 2.032 . S
O22 C25 1.259 . S
O23 Mg14 2.114 . S
O23 C26 1.252 . S
O24 Mg14 2.251 . S
O24 Mg17 2.079 . S
O24 C26 1.273 . S
C25 O21 1.246 . S
C25 O22 1.259 . S
C26 O23 1.252 . S
C26 O24 1.273 . S
O27 Mg14 2.010 . S
O27 C19 1.249 . S
Mg28 O29 2.040 . S
Mg28 O35 1.988 1_565 S
Mg28 O37 2.104 1_554 S
Mg28 O38 2.240 1_564 S
Mg28 O41 2.017 . S
O29 Mg28 2.040 . S
O29 C32 1.242 1_565 S
O30 Mg31 2.028 1_554 S
O30 C32 1.248 . S
Mg31 O30 2.028 1_556 S
Mg31 O36 2.031 1_556 S
Mg31 O38 2.079 . S
C32 O29 1.242 1_545 S
C32 O30 1.248 . S
C33 O34 1.264 . S
C33 O41 1.249 . S
O34 C33 1.264 . S
O35 Mg28 1.988 1_545 S
O35 C39 1.246 . S
O36 Mg31 2.031 1_554 S
O36 C39 1.260 . S
O37 Mg28 2.104 1_556 S
O37 C40 1.252 . S
O38 Mg28 2.240 1_546 S
O38 Mg31 2.079 . S
O38 C40 1.273 1_545 S
C39 O35 1.246 . S
C39 O36 1.260 . S
C40 O37 1.252 . S
C40 O38 1.273 1_565 S
O41 Mg28 2.017 . S
O41 C33 1.249 . S
Mg42 O43 2.059 1_554 S
Mg42 O49 1.986 1_655 S
Mg42 O51 2.114 . S
Mg42 O52 2.251 1_655 S
Mg42 O55 2.010 . S
O43 Mg42 2.059 1_556 S
O43 C46 1.167 1_655 S
O44 Mg45 2.045 . S
O44 C46 1.238 1_554 S
Mg45 O44 2.045 . S
Mg45 O50 2.032 . S
Mg45 O52 2.079 . S
C46 O43 1.167 1_455 S
C46 O44 1.238 1_556 S
C47 O48 1.264 . S
C47 O55 1.249 . S
O48 C47 1.264 . S
O49 Mg42 1.986 1_455 S
O49 C53 1.246 . S
O50 Mg45 2.032 . S
O50 C53 1.259 . S
O51 Mg42 2.114 . S
O51 C54 1.252 . S
O52 Mg42 2.251 1_455 S
O52 Mg45 2.079 . S
O52 C54 1.273 1_455 S
C53 O49 1.246 . S
C53 O50 1.259 . S
C54 O51 1.252 . S
C54 O52 1.273 1_655 S
O55 Mg42 2.010 . S
O55 C47 1.249 . S
Mg56 O57 2.028 . S
Mg56 O63 1.986 . S
Mg56 O65 2.114 1_554 S
Mg56 O66 2.251 1_554 S
Mg56 O69 2.010 . S
O57 Mg56 2.028 . S
O57 C60 1.250 . S
O58 Mg59 2.028 1_554 S
O58 C60 1.248 . S
Mg59 O58 2.028 1_556 S
Mg59 O64 2.033 . S
Mg59 O66 2.079 . S
C60 O57 1.250 . S
C60 O58 1.248 . S
C61 O62 1.264 . S
C61 O69 1.249 . S
O62 C61 1.264 . S
O63 Mg56 1.986 . S
O63 C67 1.257 . S
O64 Mg59 2.033 . S
O64 C67 1.256 1_556 S
O65 Mg56 2.114 1_556 S
O65 C68 1.252 . S
O66 Mg56 2.251 1_556 S
O66 Mg59 2.079 . S
O66 C68 1.273 . S
C67 O63 1.257 . S
C67 O64 1.256 1_554 S
C68 O65 1.252 . S
C68 O66 1.273 . S
O69 Mg56 2.010 . S
O69 C61 1.249 . S
Mg70 O71 1.985 1_554 S
Mg70 O77 1.986 1_545 S
Mg70 O79 2.114 . S
Mg70 O80 2.251 1_545 S
Mg70 O83 2.010 . S
O71 Mg70 1.985 1_556 S
O71 C74 1.267 1_545 S
O72 Mg73 2.028 . S
O72 C74 1.248 1_554 S
Mg73 O72 2.028 . S
Mg73 O78 2.032 . S
Mg73 O80 2.079 . S
C74 O71 1.267 1_565 S
C74 O72 1.248 1_556 S
C75 O76 1.264 . S
C75 O83 1.249 . S
O76 C75 1.264 . S
O77 Mg70 1.986 1_565 S
O77 C81 1.246 . S
O78 Mg73 2.032 . S
O78 C81 1.259 . S
O79 Mg70 2.114 . S
O79 C82 1.252 . S
O80 Mg70 2.251 1_565 S
O80 Mg73 2.079 . S
O80 C82 1.273 1_565 S
C81 O77 1.246 . S
C81 O78 1.259 . S
C82 O79 1.252 . S
C82 O80 1.273 1_545 S
O83 Mg70 2.010 . S
O83 C75 1.249 . S
Mg84 O85 2.028 . S
Mg84 O91 1.986 . S
Mg84 O93 2.114 . S
Mg84 O94 2.251 . S
Mg84 O97 2.010 . S
O85 Mg84 2.028 . S
O85 C88 1.250 . S
O86 Mg87 2.028 . S
O86 C88 1.248 . S
Mg87 O86 2.028 . S
Mg87 O92 2.032 . S
Mg87 O94 2.079 . S
C88 O85 1.250 . S
C88 O86 1.248 . S
C89 O90 1.264 . S
C89 O97 1.249 . S
O90 C89 1.264 . S
O91 Mg84 1.986 . S
O91 C95 1.246 . S
O92 Mg87 2.032 . S
O92 C95 1.259 . S
O93 Mg84 2.114 . S
O93 C96 1.252 . S
O94 Mg84 2.251 . S
O94 Mg87 2.079 . S
O94 C96 1.273 . S
C95 O91 1.246 . S
C95 O92 1.259 . S
C96 O93 1.252 . S
C96 O94 1.273 . S
O97 Mg84 2.010 . S
O97 C89 1.249 . S
Mg98 O99 2.028 . S
Mg98 O105 1.986 . S
Mg98 O107 2.114 . S
Mg98 O108 2.251 . S
Mg98 O111 2.010 . S
O99 Mg98 2.028 . S
O99 C102 1.250 . S
O100 Mg101 2.028 . S
O100 C102 1.248 . S
Mg101 O100 2.028 . S
Mg101 O106 2.032 . S
Mg101 O108 2.079 . S
C102 O99 1.250 . S
C102 O100 1.248 . S
C103 O104 1.264 . S
C103 O111 1.249 . S
O104 C103 1.264 . S
O105 Mg98 1.986 . S
O105 C109 1.246 1_565 S
O106 Mg101 2.032 . S
O106 C109 1.259 1_565 S
O107 Mg98 2.114 . S
O107 C110 1.252 . S
O108 Mg98 2.251 . S
O108 Mg101 2.079 . S
O108 C110 1.273 . S
C109 O105 1.246 1_545 S
C109 O106 1.259 1_545 S
C110 O107 1.252 . S
C110 O108 1.273 . S
O111 Mg98 2.010 . S
O111 C103 1.249 . S
Mg112 O113 2.028 . S
Mg112 O119 1.986 . S
Mg112 O121 2.114 . S
Mg112 O122 2.251 . S
Mg112 O125 2.010 . S
O113 Mg112 2.028 . S
O113 C116 1.250 . S
O114 Mg115 2.028 . S
O114 C116 1.248 . S
Mg115 O114 2.028 . S
Mg115 O120 2.032 . S
Mg115 O122 2.079 . S
C116 O113 1.250 . S
C116 O114 1.248 . S
C117 O118 1.264 . S
C117 O125 1.249 1_655 S
O118 C117 1.264 . S
O119 Mg112 1.986 . S
O119 C123 1.246 . S
O120 Mg115 2.032 . S
O120 C123 1.259 . S
O121 Mg112 2.114 . S
O121 C124 1.252 . S
O122 Mg112 2.251 . S
O122 Mg115 2.079 . S
O122 C124 1.273 . S
C123 O119 1.246 . S
C123 O120 1.259 . S
C124 O121 1.252 . S
C124 O122 1.273 . S
O125 Mg112 2.010 . S
O125 C117 1.249 1_455 S
Mg126 O127 2.028 . S
Mg126 O133 1.986 . S
Mg126 O135 2.114 . S
Mg126 O136 2.251 . S
Mg126 O139 2.010 . S
O127 Mg126 2.028 . S
O127 C130 1.250 . S
O128 Mg129 2.028 . S
O128 C130 1.248 . S
Mg129 O128 2.028 . S
Mg129 O134 2.032 . S
Mg129 O136 2.079 . S
C130 O127 1.250 . S
C130 O128 1.248 . S
C131 O132 1.264 . S
C131 O139 1.249 . S
O132 C131 1.264 . S
O133 Mg126 1.986 . S
O133 C137 1.240 . S
O134 Mg129 2.032 . S
O134 C137 1.301 . S
O135 Mg126 2.114 . S
O135 C138 1.252 . S
O136 Mg126 2.251 . S
O136 Mg129 2.079 . S
O136 C138 1.273 . S
C137 O133 1.240 . S
C137 O134 1.301 . S
C138 O135 1.252 . S
C138 O136 1.273 . S
O139 Mg126 2.010 . S
O139 C131 1.249 . S
Mg140 O141 2.028 . S
Mg140 O147 1.986 . S
Mg140 O149 2.114 . S
Mg140 O150 2.251 . S
Mg140 O153 2.010 . S
O141 Mg140 2.028 . S
O141 C144 1.250 . S
O142 Mg143 2.028 . S
O142 C144 1.248 . S
Mg143 O142 2.028 . S
Mg143 O148 2.032 . S
Mg143 O150 2.079 . S
C144 O141 1.250 . S
C144 O142 1.248 . S
C145 O146 1.264 . S
C145 O153 1.249 1_655 S
O146 C145 1.264 . S
O147 Mg140 1.986 . S
O147 C151 1.246 . S
O148 Mg143 2.032 . S
O148 C151 1.259 . S
O149 Mg140 2.114 . S
O149 C152 1.252 . S
O150 Mg140 2.251 . S
O150 Mg143 2.079 . S
O150 C152 1.273 . S
C151 O147 1.246 . S
C151 O148 1.259 . S
C152 O149 1.252 . S
C152 O150 1.273 . S
O153 Mg140 2.010 . S
O153 C145 1.249 1_455 S
Mg154 O155 2.028 . S
Mg154 O161 1.986 . S
Mg154 O163 2.114 . S
Mg154 O164 2.251 . S
Mg154 O167 2.010 . S
O155 Mg154 2.028 . S
O155 C158 1.250 . S
O156 Mg157 2.028 . S
O156 C158 1.248 . S
Mg157 O156 2.028 . S
Mg157 O162 2.032 . S
Mg157 O164 2.079 . S
C158 O155 1.250 . S
C158 O156 1.248 . S
C159 O160 1.264 . S
C159 O167 1.249 . S
O160 C159 1.264 . S
O161 Mg154 1.986 . S
O161 C165 1.246 . S
O162 Mg157 2.032 . S
O162 C165 1.259 . S
O163 Mg154 2.114 . S
O163 C166 1.252 . S
O164 Mg154 2.251 . S
O164 Mg157 2.079 . S
O164 C166 1.273 . S
C165 O161 1.246 . S
C165 O162 1.259 . S
C166 O163 1.252 . S
C166 O164 1.273 . S
O167 Mg154 2.010 . S
O167 C159 1.249 . S
Mg168 O169 2.028 . S
Mg168 O175 1.986 . S
Mg168 O177 2.114 . S
Mg168 O178 2.251 . S
Mg168 O181 2.010 . S
O169 Mg168 2.028 . S
O169 C172 1.250 . S
O170 Mg171 2.028 . S
O170 C172 1.248 . S
Mg171 O170 2.028 . S
Mg171 O176 2.032 . S
Mg171 O178 2.079 . S
C172 O169 1.250 . S
C172 O170 1.248 . S
C173 O174 1.264 . S
C173 O181 1.249 . S
O174 C173 1.264 . S
O175 Mg168 1.986 . S
O175 C179 1.246 . S
O176 Mg171 2.032 . S
O176 C179 1.259 . S
O177 Mg168 2.114 . S
O177 C180 1.252 . S
O178 Mg168 2.251 . S
O178 Mg171 2.079 . S
O178 C180 1.273 . S
C179 O175 1.246 . S
C179 O176 1.259 . S
C180 O177 1.252 . S
C180 O178 1.273 . S
O181 Mg168 2.010 . S
O181 C173 1.249 . S
Mg182 O183 2.028 . S
Mg182 O189 1.986 . S
Mg182 O191 2.114 . S
Mg182 O192 2.251 . S
Mg182 O195 2.094 . S
O183 Mg182 2.028 . S
O183 C186 1.250 . S
O184 Mg185 2.028 . S
O184 C186 1.248 . S
Mg185 O184 2.028 . S
Mg185 O190 2.032 . S
Mg185 O192 2.079 . S
C186 O183 1.250 . S
C186 O184 1.248 . S
C187 O188 1.264 . S
C187 O195 1.164 1_455 S
O188 C187 1.264 . S
O189 Mg182 1.986 . S
O189 C193 1.246 . S
O190 Mg185 2.032 . S
O190 C193 1.259 . S
O191 Mg182 2.114 . S
O191 C194 1.252 . S
O192 Mg182 2.251 . S
O192 Mg185 2.079 . S
O192 C194 1.273 . S
C193 O189 1.246 . S
C193 O190 1.259 . S
C194 O191 1.252 . S
C194 O192 1.273 . S
O195 Mg182 2.094 . S
O195 C187 1.164 1_655 S
Mg196 O197 2.028 . S
Mg196 O203 1.986 . S
Mg196 O205 2.114 . S
Mg196 O206 2.251 . S
Mg196 O209 2.010 . S
O197 Mg196 2.028 . S
O197 C200 1.250 . S
O198 Mg199 2.028 . S
O198 C200 1.248 . S
Mg199 O198 2.028 . S
Mg199 O204 2.032 . S
Mg199 O206 2.079 . S
C200 O197 1.250 . S
C200 O198 1.248 . S
C201 O202 1.264 . S
C201 O209 1.249 . S
O202 C201 1.264 . S
O203 Mg196 1.986 . S
O203 C207 1.246 . S
O204 Mg199 2.032 . S
O204 C207 1.259 . S
O205 Mg196 2.114 . S
O205 C208 1.252 . S
O206 Mg196 2.251 . S
O206 Mg199 2.079 . S
O206 C208 1.273 . S
C207 O203 1.246 . S
C207 O204 1.259 . S
C208 O205 1.252 . S
C208 O206 1.273 . S
O209 Mg196 2.010 . S
O209 C201 1.249 . S
Mg210 O211 2.028 . S
Mg210 O217 1.986 . S
Mg210 O219 2.114 . S
Mg210 O220 2.251 . S
Mg210 O223 2.010 . S
O211 Mg210 2.028 . S
O211 C214 1.250 . S
O212 Mg213 2.028 . S
O212 C214 1.248 . S
Mg213 O212 2.028 . S
Mg213 O218 2.032 . S
Mg213 O220 2.079 . S
C214 O211 1.250 . S
C214 O212 1.248 . S
C215 O216 1.264 . S
C215 O223 1.249 . S
O216 C215 1.264 . S
O217 Mg210 1.986 . S
O217 C221 1.246 . S
O218 Mg213 2.032 . S
O218 C221 1.259 . S
O219 Mg210 2.114 . S
O219 C222 1.252 . S
O220 Mg210 2.251 . S
O220 Mg213 2.079 . S
O220 C222 1.273 . S
C221 O217 1.246 . S
C221 O218 1.259 . S
C222 O219 1.252 . S
C222 O220 1.273 . S
O223 Mg210 2.010 . S
O223 C215 1.249 . S
Mg224 O225 2.028 . S
Mg224 O231 1.986 . S
Mg224 O233 2.114 . S
Mg224 O234 2.251 . S
Mg224 O237 2.010 . S
O225 Mg224 2.028 . S
O225 C228 1.250 . S
O226 Mg227 2.028 . S
O226 C228 1.248 . S
Mg227 O226 2.028 . S
Mg227 O232 2.032 . S
Mg227 O234 2.079 . S
C228 O225 1.250 . S
C228 O226 1.248 . S
C229 O230 1.264 . S
C229 O237 1.249 . S
O230 C229 1.264 . S
O231 Mg224 1.986 . S
O231 C235 1.306 . S
O232 Mg227 2.032 . S
O232 C235 1.267 . S
O233 Mg224 2.114 . S
O233 C236 1.252 . S
O234 Mg224 2.251 . S
O234 Mg227 2.079 . S
O234 C236 1.273 . S
C235 O231 1.306 . S
C235 O232 1.267 . S
C236 O233 1.252 . S
C236 O234 1.273 . S
O237 Mg224 2.010 . S
O237 C229 1.249 . S
Mg238 O239 2.028 . S
Mg238 O245 1.986 . S
Mg238 O247 2.114 . S
Mg238 O248 2.251 . S
Mg238 O251 2.010 1_655 S
O239 Mg238 2.028 . S
O239 C242 1.250 . S
O240 Mg241 2.028 . S
O240 C242 1.248 . S
Mg241 O240 2.028 . S
Mg241 O246 2.032 . S
Mg241 O248 2.079 . S
C242 O239 1.250 . S
C242 O240 1.248 . S
C243 O244 1.264 . S
C243 O251 1.249 . S
O244 C243 1.264 . S
O245 Mg238 1.986 . S
O245 C249 1.246 . S
O246 Mg241 2.032 . S
O246 C249 1.259 . S
O247 Mg238 2.114 . S
O247 C250 1.252 . S
O248 Mg238 2.251 . S
O248 Mg241 2.079 . S
O248 C250 1.273 . S
C249 O245 1.246 . S
C249 O246 1.259 . S
C250 O247 1.252 . S
C250 O248 1.273 . S
O251 Mg238 2.010 1_455 S
O251 C243 1.249 . S
H252 C279 0.929 . S
N253 C278 1.433 . S
N253 C284 1.435 . S
N253 C290 1.423 . S
H254 C280 0.930 . S
H255 C283 0.931 . S
H256 C282 0.929 . S
H257 C285 0.930 . S
H258 C286 0.932 . S
H259 C289 0.929 . S
H260 C288 0.931 . S
H261 C291 0.929 . S
H262 C295 0.932 . S
H263 C292 0.931 . S
H264 C294 0.929 . S
H265 C297 0.929 . S
H266 C298 0.930 . S
H267 C300 0.929 . S
H268 C301 0.931 . S
H269 C303 0.930 . S
H270 C304 0.932 . S
H271 C306 0.931 . S
H272 C307 0.929 . S
H273 C309 0.929 . S
H274 C310 0.931 . S
H275 C312 0.929 . S
N276 C296 1.433 . S
N276 C302 1.435 . S
N276 C308 1.423 . S
H277 C313 0.932 . S
C278 N253 1.433 . S
C278 C279 1.363 . S
C278 C283 1.370 . S
C279 H252 0.929 . S
C279 C278 1.363 . S
C279 C280 1.385 . S
C280 H254 0.930 . S
C280 C279 1.385 . S
C280 C281 1.357 . S
C281 C280 1.357 . S
C281 C282 1.406 . S
C282 H256 0.929 . S
C282 C281 1.406 . S
C282 C283 1.391 . S
C283 H255 0.931 . S
C283 C278 1.370 . S
C283 C282 1.391 . S
C284 N253 1.435 . S
C284 C285 1.358 . S
C284 C289 1.371 . S
C285 H257 0.930 . S
C285 C284 1.358 . S
C285 C286 1.405 . S
C286 H258 0.932 . S
C286 C285 1.405 . S
C286 C287 1.383 . S
C287 C286 1.383 . S
C287 C288 1.393 . S
C288 H260 0.931 . S
C288 C287 1.393 . S
C288 C289 1.382 . S
C289 H259 0.929 . S
C289 C284 1.371 . S
C289 C288 1.382 . S
C290 N253 1.423 . S
C290 C291 1.362 . S
C290 C295 1.388 . S
C291 H261 0.929 . S
C291 C290 1.362 . S
C291 C292 1.376 . S
C292 H263 0.931 . S
C292 C291 1.376 . S
C292 C293 1.396 . S
C293 C292 1.396 . S
C293 C294 1.348 . S
C293 C311 1.472 . S
C294 H264 0.929 . S
C294 C293 1.348 . S
C294 C295 1.443 . S
C295 H262 0.932 . S
C295 C290 1.388 . S
C295 C294 1.443 . S
C296 N276 1.433 . S
C296 C297 1.363 . S
C296 C301 1.370 . S
C297 H265 0.929 . S
C297 C296 1.363 . S
C297 C298 1.385 . S
C298 H266 0.930 . S
C298 C297 1.385 . S
C298 C299 1.357 . S
C299 C298 1.357 . S
C299 C300 1.406 . S
C300 H267 0.929 . S
C300 C299 1.406 . S
C300 C301 1.391 . S
C301 H268 0.931 . S
C301 C296 1.370 . S
C301 C300 1.391 . S
C302 N276 1.435 . S
C302 C303 1.358 . S
C302 C307 1.371 . S
C303 H269 0.930 . S
C303 C302 1.358 . S
C303 C304 1.405 . S
C304 H270 0.932 . S
C304 C303 1.405 . S
C304 C305 1.383 . S
C305 C304 1.383 . S
C305 C306 1.393 . S
C306 H271 0.931 . S
C306 C305 1.393 . S
C306 C307 1.382 . S
C307 H272 0.929 . S
C307 C302 1.371 . S
C307 C306 1.382 . S
C308 N276 1.423 . S
C308 C309 1.362 . S
C308 C313 1.388 . S
C309 H273 0.929 . S
C309 C308 1.362 . S
C309 C310 1.376 . S
C310 H274 0.931 . S
C310 C309 1.376 . S
C310 C311 1.396 . S
C311 C293 1.472 . S
C311 C310 1.396 . S
C311 C312 1.348 . S
C312 H275 0.929 . S
C312 C311 1.348 . S
C312 C313 1.443 . S
C313 H277 0.932 . S
C313 C308 1.388 . S
C313 C312 1.443 . S
H314 C341 0.929 . S
N315 C340 1.433 . S
N315 C346 1.435 . S
N315 C352 1.423 . S
H316 C342 0.930 . S
H317 C345 0.931 . S
H318 C344 0.929 . S
H319 C347 0.930 . S
H320 C348 0.932 . S
H321 C351 0.929 . S
H322 C350 0.931 . S
H323 C353 0.929 . S
H324 C357 0.932 . S
H325 C354 0.931 . S
H326 C356 0.929 . S
H327 C359 0.929 . S
H328 C360 0.930 . S
H329 C362 0.929 . S
H330 C363 0.931 . S
H331 C365 0.930 . S
H332 C366 0.932 . S
H333 C368 0.931 . S
H334 C369 0.929 . S
H335 C371 0.929 . S
H336 C372 0.931 . S
H337 C374 0.929 . S
N338 C358 1.433 . S
N338 C364 1.435 . S
N338 C370 1.423 . S
H339 C375 0.932 . S
C340 N315 1.433 . S
C340 C341 1.363 . S
C340 C345 1.370 . S
C341 H314 0.929 . S
C341 C340 1.363 . S
C341 C342 1.385 . S
C342 H316 0.930 . S
C342 C341 1.385 . S
C342 C343 1.357 . S
C343 C342 1.357 . S
C343 C344 1.406 . S
C344 H318 0.929 . S
C344 C343 1.406 . S
C344 C345 1.391 . S
C345 H317 0.931 . S
C345 C340 1.370 . S
C345 C344 1.391 . S
C346 N315 1.435 . S
C346 C347 1.358 . S
C346 C351 1.371 . S
C347 H319 0.930 . S
C347 C346 1.358 . S
C347 C348 1.405 . S
C348 H320 0.932 . S
C348 C347 1.405 . S
C348 C349 1.383 . S
C349 C348 1.383 . S
C349 C350 1.393 . S
C350 H322 0.931 . S
C350 C349 1.393 . S
C350 C351 1.382 . S
C351 H321 0.929 . S
C351 C346 1.371 . S
C351 C350 1.382 . S
C352 N315 1.423 . S
C352 C353 1.362 . S
C352 C357 1.388 . S
C353 H323 0.929 . S
C353 C352 1.362 . S
C353 C354 1.376 . S
C354 H325 0.931 . S
C354 C353 1.376 . S
C354 C355 1.396 . S
C355 C354 1.396 . S
C355 C356 1.348 . S
C355 C373 1.472 . S
C356 H326 0.929 . S
C356 C355 1.348 . S
C356 C357 1.443 . S
C357 H324 0.932 . S
C357 C352 1.388 . S
C357 C356 1.443 . S
C358 N338 1.433 . S
C358 C359 1.363 . S
C358 C363 1.370 . S
C359 H327 0.929 . S
C359 C358 1.363 . S
C359 C360 1.385 . S
C360 H328 0.930 . S
C360 C359 1.385 . S
C360 C361 1.357 . S
C361 C360 1.357 . S
C361 C362 1.406 . S
C362 H329 0.929 . S
C362 C361 1.406 . S
C362 C363 1.391 . S
C363 H330 0.931 . S
C363 C358 1.370 . S
C363 C362 1.391 . S
C364 N338 1.435 . S
C364 C365 1.358 . S
C364 C369 1.371 . S
C365 H331 0.930 . S
C365 C364 1.358 . S
C365 C366 1.405 . S
C366 H332 0.932 . S
C366 C365 1.405 . S
C366 C367 1.383 . S
C367 C366 1.383 . S
C367 C368 1.393 . S
C368 H333 0.931 . S
C368 C367 1.393 . S
C368 C369 1.382 . S
C369 H334 0.929 . S
C369 C364 1.371 . S
C369 C368 1.382 . S
C370 N338 1.423 . S
C370 C371 1.362 . S
C370 C375 1.388 . S
C371 H335 0.929 . S
C371 C370 1.362 . S
C371 C372 1.376 . S
C372 H336 0.931 . S
C372 C371 1.376 . S
C372 C373 1.396 . S
C373 C355 1.472 . S
C373 C372 1.396 . S
C373 C374 1.348 . S
C374 H337 0.929 . S
C374 C373 1.348 . S
C374 C375 1.443 . S
C375 H339 0.932 . S
C375 C370 1.388 . S
C375 C374 1.443 . S
H376 C403 0.929 . S
N377 C402 1.433 . S
N377 C408 1.435 . S
N377 C414 1.423 . S
H378 C404 0.930 . S
H379 C407 0.931 . S
H380 C406 0.929 . S
H381 C409 0.930 . S
H382 C410 0.932 . S
H383 C413 0.929 . S
H384 C412 0.931 . S
H385 C415 0.929 . S
H386 C419 0.932 . S
H387 C416 0.931 . S
H388 C418 0.929 . S
H389 C421 0.929 . S
H390 C422 0.930 . S
H391 C424 0.929 . S
H392 C425 0.931 . S
H393 C427 0.930 . S
H394 C428 0.932 . S
H395 C430 0.931 . S
H396 C431 0.929 . S
H397 C433 0.929 . S
H398 C434 0.931 . S
H399 C436 0.929 . S
N400 C420 1.433 . S
N400 C426 1.435 . S
N400 C432 1.423 . S
H401 C437 0.932 . S
C402 N377 1.433 . S
C402 C403 1.363 . S
C402 C407 1.370 . S
C403 H376 0.929 . S
C403 C402 1.363 . S
C403 C404 1.385 . S
C404 H378 0.930 . S
C404 C403 1.385 . S
C404 C405 1.357 . S
C405 C404 1.357 . S
C405 C406 1.406 . S
C406 H380 0.929 . S
C406 C405 1.406 . S
C406 C407 1.391 . S
C407 H379 0.931 . S
C407 C402 1.370 . S
C407 C406 1.391 . S
C408 N377 1.435 . S
C408 C409 1.358 . S
C408 C413 1.371 . S
C409 H381 0.930 . S
C409 C408 1.358 . S
C409 C410 1.405 . S
C410 H382 0.932 . S
C410 C409 1.405 . S
C410 C411 1.383 . S
C411 C410 1.383 . S
C411 C412 1.393 . S
C412 H384 0.931 . S
C412 C411 1.393 . S
C412 C413 1.382 . S
C413 H383 0.929 . S
C413 C408 1.371 . S
C413 C412 1.382 . S
C414 N377 1.423 . S
C414 C415 1.362 . S
C414 C419 1.388 . S
C415 H385 0.929 . S
C415 C414 1.362 . S
C415 C416 1.376 . S
C416 H387 0.931 . S
C416 C415 1.376 . S
C416 C417 1.396 . S
C417 C416 1.396 . S
C417 C418 1.348 . S
C417 C435 1.472 . S
C418 H388 0.929 . S
C418 C417 1.348 . S
C418 C419 1.443 . S
C419 H386 0.932 . S
C419 C414 1.388 . S
C419 C418 1.443 . S
C420 N400 1.433 . S
C420 C421 1.363 . S
C420 C425 1.370 . S
C421 H389 0.929 . S
C421 C420 1.363 . S
C421 C422 1.385 . S
C422 H390 0.930 . S
C422 C421 1.385 . S
C422 C423 1.357 . S
C423 C422 1.357 . S
C423 C424 1.406 . S
C424 H391 0.929 . S
C424 C423 1.406 . S
C424 C425 1.391 . S
C425 H392 0.931 . S
C425 C420 1.370 . S
C425 C424 1.391 . S
C426 N400 1.435 . S
C426 C427 1.358 . S
C426 C431 1.371 . S
C427 H393 0.930 . S
C427 C426 1.358 . S
C427 C428 1.405 . S
C428 H394 0.932 . S
C428 C427 1.405 . S
C428 C429 1.383 . S
C429 C428 1.383 . S
C429 C430 1.393 . S
C430 H395 0.931 . S
C430 C429 1.393 . S
C430 C431 1.382 . S
C431 H396 0.929 . S
C431 C426 1.371 . S
C431 C430 1.382 . S
C432 N400 1.423 . S
C432 C433 1.362 . S
C432 C437 1.388 . S
C433 H397 0.929 . S
C433 C432 1.362 . S
C433 C434 1.376 . S
C434 H398 0.931 . S
C434 C433 1.376 . S
C434 C435 1.396 . S
C435 C417 1.472 . S
C435 C434 1.396 . S
C435 C436 1.348 . S
C436 H399 0.929 . S
C436 C435 1.348 . S
C436 C437 1.443 . S
C437 H401 0.932 . S
C437 C432 1.388 . S
C437 C436 1.443 . S
H438 C465 0.929 . S
N439 C464 1.433 . S
N439 C470 1.435 . S
N439 C476 1.423 . S
H440 C466 0.930 . S
H441 C469 0.931 . S
H442 C468 0.929 . S
H443 C471 0.930 . S
H444 C472 0.932 . S
H445 C475 0.929 . S
H446 C474 0.931 . S
H447 C477 0.929 . S
H448 C481 0.932 . S
H449 C478 0.931 . S
H450 C480 0.929 . S
H451 C483 0.929 . S
H452 C484 0.930 . S
H453 C486 0.929 . S
H454 C487 0.931 . S
H455 C489 0.930 . S
H456 C490 0.932 . S
H457 C492 0.931 . S
H458 C493 0.929 . S
H459 C495 0.929 . S
H460 C496 0.931 . S
H461 C498 0.929 . S
N462 C482 1.433 . S
N462 C488 1.435 . S
N462 C494 1.423 . S
H463 C499 0.932 . S
C464 N439 1.433 . S
C464 C465 1.363 . S
C464 C469 1.370 . S
C465 H438 0.929 . S
C465 C464 1.363 . S
C465 C466 1.385 . S
C466 H440 0.930 . S
C466 C465 1.385 . S
C466 C467 1.357 . S
C467 C466 1.357 . S
C467 C468 1.406 . S
C468 H442 0.929 . S
C468 C467 1.406 . S
C468 C469 1.391 . S
C469 H441 0.931 . S
C469 C464 1.370 . S
C469 C468 1.391 . S
C470 N439 1.435 . S
C470 C471 1.358 . S
C470 C475 1.371 . S
C471 H443 0.930 . S
C471 C470 1.358 . S
C471 C472 1.405 . S
C472 H444 0.932 . S
C472 C471 1.405 . S
C472 C473 1.383 . S
C473 C472 1.383 . S
C473 C474 1.393 . S
C474 H446 0.931 . S
C474 C473 1.393 . S
C474 C475 1.382 . S
C475 H445 0.929 . S
C475 C470 1.371 . S
C475 C474 1.382 . S
C476 N439 1.423 . S
C476 C477 1.362 . S
C476 C481 1.388 . S
C477 H447 0.929 . S
C477 C476 1.362 . S
C477 C478 1.376 . S
C478 H449 0.931 . S
C478 C477 1.376 . S
C478 C479 1.396 . S
C479 C478 1.396 . S
C479 C480 1.348 . S
C479 C497 1.472 . S
C480 H450 0.929 . S
C480 C479 1.348 . S
C480 C481 1.443 . S
C481 H448 0.932 . S
C481 C476 1.388 . S
C481 C480 1.443 . S
C482 N462 1.433 . S
C482 C483 1.363 . S
C482 C487 1.370 . S
C483 H451 0.929 . S
C483 C482 1.363 . S
C483 C484 1.385 . S
C484 H452 0.930 . S
C484 C483 1.385 . S
C484 C485 1.357 . S
C485 C484 1.357 . S
C485 C486 1.406 . S
C486 H453 0.929 . S
C486 C485 1.406 . S
C486 C487 1.391 . S
C487 H454 0.931 . S
C487 C482 1.370 . S
C487 C486 1.391 . S
C488 N462 1.435 . S
C488 C489 1.358 . S
C488 C493 1.371 . S
C489 H455 0.930 . S
C489 C488 1.358 . S
C489 C490 1.405 . S
C490 H456 0.932 . S
C490 C489 1.405 . S
C490 C491 1.383 . S
C491 C490 1.383 . S
C491 C492 1.393 . S
C492 H457 0.931 . S
C492 C491 1.393 . S
C492 C493 1.382 . S
C493 H458 0.929 . S
C493 C488 1.371 . S
C493 C492 1.382 . S
C494 N462 1.423 . S
C494 C495 1.362 . S
C494 C499 1.388 . S
C495 H459 0.929 . S
C495 C494 1.362 . S
C495 C496 1.376 . S
C496 H460 0.931 . S
C496 C495 1.376 . S
C496 C497 1.396 . S
C497 C479 1.472 . S
C497 C496 1.396 . S
C497 C498 1.348 . S
C498 H461 0.929 . S
C498 C497 1.348 . S
C498 C499 1.443 . S
C499 H463 0.932 . S
C499 C494 1.388 . S
C499 C498 1.443 . S
H500 C527 0.929 . S
N501 C526 1.433 . S
N501 C532 1.435 . S
N501 C538 1.423 . S
H502 C528 0.930 . S
H503 C531 0.931 . S
H504 C530 0.929 . S
H505 C533 0.930 . S
H506 C534 0.932 . S
H507 C537 0.929 . S
H508 C536 0.931 . S
H509 C539 0.929 . S
H510 C543 0.932 . S
H511 C540 0.931 . S
H512 C542 0.929 . S
H513 C545 0.929 . S
H514 C546 0.930 . S
H515 C548 0.929 . S
H516 C549 0.931 . S
H517 C551 0.930 . S
H518 C552 0.932 . S
H519 C554 0.931 . S
H520 C555 0.929 . S
H521 C557 0.929 . S
H522 C558 0.931 . S
H523 C560 0.929 . S
N524 C544 1.433 . S
N524 C550 1.435 . S
N524 C556 1.423 . S
H525 C561 0.932 . S
C526 N501 1.433 . S
C526 C527 1.363 . S
C526 C531 1.370 . S
C527 H500 0.929 . S
C527 C526 1.363 . S
C527 C528 1.385 . S
C528 H502 0.930 . S
C528 C527 1.385 . S
C528 C529 1.357 . S
C529 C528 1.357 . S
C529 C530 1.406 . S
C530 H504 0.929 . S
C530 C529 1.406 . S
C530 C531 1.391 . S
C531 H503 0.931 . S
C531 C526 1.370 . S
C531 C530 1.391 . S
C532 N501 1.435 . S
C532 C533 1.358 . S
C532 C537 1.371 . S
C533 H505 0.930 . S
C533 C532 1.358 . S
C533 C534 1.405 . S
C534 H506 0.932 . S
C534 C533 1.405 . S
C534 C535 1.383 . S
C535 C534 1.383 . S
C535 C536 1.393 . S
C536 H508 0.931 . S
C536 C535 1.393 . S
C536 C537 1.382 . S
C537 H507 0.929 . S
C537 C532 1.371 . S
C537 C536 1.382 . S
C538 N501 1.423 . S
C538 C539 1.362 . S
C538 C543 1.388 . S
C539 H509 0.929 . S
C539 C538 1.362 . S
C539 C540 1.376 . S
C540 H511 0.931 . S
C540 C539 1.376 . S
C540 C541 1.396 . S
C541 C540 1.396 . S
C541 C542 1.348 . S
C541 C559 1.472 . S
C542 H512 0.929 . S
C542 C541 1.348 . S
C542 C543 1.443 . S
C543 H510 0.932 . S
C543 C538 1.388 . S
C543 C542 1.443 . S
C544 N524 1.433 . S
C544 C545 1.363 . S
C544 C549 1.370 . S
C545 H513 0.929 . S
C545 C544 1.363 . S
C545 C546 1.385 . S
C546 H514 0.930 . S
C546 C545 1.385 . S
C546 C547 1.357 . S
C547 C546 1.357 . S
C547 C548 1.406 . S
C548 H515 0.929 . S
C548 C547 1.406 . S
C548 C549 1.391 . S
C549 H516 0.931 . S
C549 C544 1.370 . S
C549 C548 1.391 . S
C550 N524 1.435 . S
C550 C551 1.358 . S
C550 C555 1.371 . S
C551 H517 0.930 . S
C551 C550 1.358 . S
C551 C552 1.405 . S
C552 H518 0.932 . S
C552 C551 1.405 . S
C552 C553 1.383 . S
C553 C552 1.383 . S
C553 C554 1.393 . S
C554 H519 0.931 . S
C554 C553 1.393 . S
C554 C555 1.382 . S
C555 H520 0.929 . S
C555 C550 1.371 . S
C555 C554 1.382 . S
C556 N524 1.423 . S
C556 C557 1.362 . S
C556 C561 1.388 . S
C557 H521 0.929 . S
C557 C556 1.362 . S
C557 C558 1.376 . S
C558 H522 0.931 . S
C558 C557 1.376 . S
C558 C559 1.396 . S
C559 C541 1.472 . S
C559 C558 1.396 . S
C559 C560 1.348 . S
C560 H523 0.929 . S
C560 C559 1.348 . S
C560 C561 1.443 . S
C561 H525 0.932 . S
C561 C556 1.388 . S
C561 C560 1.443 . S
H562 C589 0.929 . S
N563 C588 1.433 . S
N563 C594 1.435 . S
N563 C600 1.423 . S
H564 C590 0.930 . S
H565 C593 0.931 . S
H566 C592 0.929 . S
H567 C595 0.930 . S
H568 C596 0.932 . S
H569 C599 0.929 . S
H570 C598 0.931 . S
H571 C601 0.929 . S
H572 C605 0.932 . S
H573 C602 0.931 . S
H574 C604 0.929 . S
H575 C607 0.929 . S
H576 C608 0.930 . S
H577 C610 0.929 . S
H578 C611 0.931 . S
H579 C613 0.930 . S
H580 C614 0.932 . S
H581 C616 0.931 . S
H582 C617 0.929 . S
H583 C619 0.929 . S
H584 C620 0.931 . S
H585 C622 0.929 . S
N586 C606 1.433 . S
N586 C612 1.435 . S
N586 C618 1.423 . S
H587 C623 0.932 . S
C588 N563 1.433 . S
C588 C589 1.363 . S
C588 C593 1.370 . S
C589 H562 0.929 . S
C589 C588 1.363 . S
C589 C590 1.385 . S
C590 H564 0.930 . S
C590 C589 1.385 . S
C590 C591 1.357 . S
C591 C590 1.357 . S
C591 C592 1.406 . S
C592 H566 0.929 . S
C592 C591 1.406 . S
C592 C593 1.391 . S
C593 H565 0.931 . S
C593 C588 1.370 . S
C593 C592 1.391 . S
C594 N563 1.435 . S
C594 C595 1.358 . S
C594 C599 1.371 . S
C595 H567 0.930 . S
C595 C594 1.358 . S
C595 C596 1.405 . S
C596 H568 0.932 . S
C596 C595 1.405 . S
C596 C597 1.383 . S
C597 C596 1.383 . S
C597 C598 1.393 . S
C598 H570 0.931 . S
C598 C597 1.393 . S
C598 C599 1.382 . S
C599 H569 0.929 . S
C599 C594 1.371 . S
C599 C598 1.382 . S
C600 N563 1.423 . S
C600 C601 1.362 . S
C600 C605 1.388 . S
C601 H571 0.929 . S
C601 C600 1.362 . S
C601 C602 1.376 . S
C602 H573 0.931 . S
C602 C601 1.376 . S
C602 C603 1.396 . S
C603 C602 1.396 . S
C603 C604 1.348 . S
C603 C621 1.472 . S
C604 H574 0.929 . S
C604 C603 1.348 . S
C604 C605 1.443 . S
C605 H572 0.932 . S
C605 C600 1.388 . S
C605 C604 1.443 . S
C606 N586 1.433 . S
C606 C607 1.363 . S
C606 C611 1.370 . S
C607 H575 0.929 . S
C607 C606 1.363 . S
C607 C608 1.385 . S
C608 H576 0.930 . S
C608 C607 1.385 . S
C608 C609 1.357 . S
C609 C608 1.357 . S
C609 C610 1.406 . S
C610 H577 0.929 . S
C610 C609 1.406 . S
C610 C611 1.391 . S
C611 H578 0.931 . S
C611 C606 1.370 . S
C611 C610 1.391 . S
C612 N586 1.435 . S
C612 C613 1.358 . S
C612 C617 1.371 . S
C613 H579 0.930 . S
C613 C612 1.358 . S
C613 C614 1.405 . S
C614 H580 0.932 . S
C614 C613 1.405 . S
C614 C615 1.383 . S
C615 C614 1.383 . S
C615 C616 1.393 . S
C616 H581 0.931 . S
C616 C615 1.393 . S
C616 C617 1.382 . S
C617 H582 0.929 . S
C617 C612 1.371 . S
C617 C616 1.382 . S
C618 N586 1.423 . S
C618 C619 1.362 . S
C618 C623 1.388 . S
C619 H583 0.929 . S
C619 C618 1.362 . S
C619 C620 1.376 . S
C620 H584 0.931 . S
C620 C619 1.376 . S
C620 C621 1.396 . S
C621 C603 1.472 . S
C621 C620 1.396 . S
C621 C622 1.348 . S
C622 H585 0.929 . S
C622 C621 1.348 . S
C622 C623 1.443 . S
C623 H587 0.932 . S
C623 C618 1.388 . S
C623 C622 1.443 . S
H624 C651 0.929 . S
N625 C650 1.433 . S
N625 C656 1.435 . S
N625 C662 1.423 . S
H626 C652 0.930 . S
H627 C655 0.931 . S
H628 C654 0.929 . S
H629 C657 0.930 . S
H630 C658 0.932 . S
H631 C661 0.929 . S
H632 C660 0.931 . S
H633 C663 0.929 . S
H634 C667 0.932 . S
H635 C664 0.931 . S
H636 C666 0.929 . S
H637 C669 0.929 . S
H638 C670 0.930 . S
H639 C672 0.929 . S
H640 C673 0.931 . S
H641 C675 0.930 . S
H642 C676 0.932 . S
H643 C678 0.931 . S
H644 C679 0.929 . S
H645 C681 0.929 . S
H646 C682 0.931 . S
H647 C684 0.929 . S
N648 C668 1.433 . S
N648 C674 1.435 . S
N648 C680 1.423 . S
H649 C685 0.932 . S
C650 N625 1.433 . S
C650 C651 1.363 . S
C650 C655 1.370 . S
C651 H624 0.929 . S
C651 C650 1.363 . S
C651 C652 1.385 . S
C652 H626 0.930 . S
C652 C651 1.385 . S
C652 C653 1.357 . S
C653 C652 1.357 . S
C653 C654 1.406 . S
C654 H628 0.929 . S
C654 C653 1.406 . S
C654 C655 1.391 . S
C655 H627 0.931 . S
C655 C650 1.370 . S
C655 C654 1.391 . S
C656 N625 1.435 . S
C656 C657 1.358 . S
C656 C661 1.371 . S
C657 H629 0.930 . S
C657 C656 1.358 . S
C657 C658 1.405 . S
C658 H630 0.932 . S
C658 C657 1.405 . S
C658 C659 1.383 . S
C659 C658 1.383 . S
C659 C660 1.393 . S
C660 H632 0.931 . S
C660 C659 1.393 . S
C660 C661 1.382 . S
C661 H631 0.929 . S
C661 C656 1.371 . S
C661 C660 1.382 . S
C662 N625 1.423 . S
C662 C663 1.362 . S
C662 C667 1.388 . S
C663 H633 0.929 . S
C663 C662 1.362 . S
C663 C664 1.376 . S
C664 H635 0.931 . S
C664 C663 1.376 . S
C664 C665 1.396 . S
C665 C664 1.396 . S
C665 C666 1.348 . S
C665 C683 1.472 . S
C666 H636 0.929 . S
C666 C665 1.348 . S
C666 C667 1.443 . S
C667 H634 0.932 . S
C667 C662 1.388 . S
C667 C666 1.443 . S
C668 N648 1.433 . S
C668 C669 1.363 . S
C668 C673 1.370 . S
C669 H637 0.929 . S
C669 C668 1.363 . S
C669 C670 1.385 . S
C670 H638 0.930 . S
C670 C669 1.385 . S
C670 C671 1.357 . S
C671 C670 1.357 . S
C671 C672 1.406 . S
C672 H639 0.929 . S
C672 C671 1.406 . S
C672 C673 1.391 . S
C673 H640 0.931 . S
C673 C668 1.370 . S
C673 C672 1.391 . S
C674 N648 1.435 . S
C674 C675 1.358 . S
C674 C679 1.371 . S
C675 H641 0.930 . S
C675 C674 1.358 . S
C675 C676 1.405 . S
C676 H642 0.932 . S
C676 C675 1.405 . S
C676 C677 1.383 . S
C677 C676 1.383 . S
C677 C678 1.393 . S
C678 H643 0.931 . S
C678 C677 1.393 . S
C678 C679 1.382 . S
C679 H644 0.929 . S
C679 C674 1.371 . S
C679 C678 1.382 . S
C680 N648 1.423 . S
C680 C681 1.362 . S
C680 C685 1.388 . S
C681 H645 0.929 . S
C681 C680 1.362 . S
C681 C682 1.376 . S
C682 H646 0.931 . S
C682 C681 1.376 . S
C682 C683 1.396 . S
C683 C665 1.472 . S
C683 C682 1.396 . S
C683 C684 1.348 . S
C684 H647 0.929 . S
C684 C683 1.348 . S
C684 C685 1.443 . S
C685 H649 0.932 . S
C685 C680 1.388 . S
C685 C684 1.443 . S
H686 C713 0.929 . S
N687 C712 1.433 . S
N687 C718 1.435 . S
N687 C724 1.423 . S
H688 C714 0.930 . S
H689 C717 0.931 . S
H690 C716 0.929 . S
H691 C719 0.930 . S
H692 C720 0.932 . S
H693 C723 0.929 . S
H694 C722 0.931 . S
H695 C725 0.929 . S
H696 C729 0.932 . S
H697 C726 0.931 . S
H698 C728 0.929 . S
H699 C731 0.929 . S
H700 C732 0.930 . S
H701 C734 0.929 . S
H702 C735 0.931 . S
H703 C737 0.930 . S
H704 C738 0.932 . S
H705 C740 0.931 . S
H706 C741 0.929 . S
H707 C743 0.929 . S
H708 C744 0.931 . S
H709 C746 0.929 . S
N710 C730 1.433 . S
N710 C736 1.435 . S
N710 C742 1.423 . S
H711 C747 0.932 . S
C712 N687 1.433 . S
C712 C713 1.363 . S
C712 C717 1.370 . S
C713 H686 0.929 . S
C713 C712 1.363 . S
C713 C714 1.385 . S
C714 H688 0.930 . S
C714 C713 1.385 . S
C714 C715 1.357 . S
C715 C714 1.357 . S
C715 C716 1.406 . S
C716 H690 0.929 . S
C716 C715 1.406 . S
C716 C717 1.391 . S
C717 H689 0.931 . S
C717 C712 1.370 . S
C717 C716 1.391 . S
C718 N687 1.435 . S
C718 C719 1.358 . S
C718 C723 1.371 . S
C719 H691 0.930 . S
C719 C718 1.358 . S
C719 C720 1.405 . S
C720 H692 0.932 . S
C720 C719 1.405 . S
C720 C721 1.383 . S
C721 C720 1.383 . S
C721 C722 1.393 . S
C722 H694 0.931 . S
C722 C721 1.393 . S
C722 C723 1.382 . S
C723 H693 0.929 . S
C723 C718 1.371 . S
C723 C722 1.382 . S
C724 N687 1.423 . S
C724 C725 1.362 . S
C724 C729 1.388 . S
C725 H695 0.929 . S
C725 C724 1.362 . S
C725 C726 1.376 . S
C726 H697 0.931 . S
C726 C725 1.376 . S
C726 C727 1.396 . S
C727 C726 1.396 . S
C727 C728 1.348 . S
C727 C745 1.472 . S
C728 H698 0.929 . S
C728 C727 1.348 . S
C728 C729 1.443 . S
C729 H696 0.932 . S
C729 C724 1.388 . S
C729 C728 1.443 . S
C730 N710 1.433 . S
C730 C731 1.363 . S
C730 C735 1.370 . S
C731 H699 0.929 . S
C731 C730 1.363 . S
C731 C732 1.385 . S
C732 H700 0.930 . S
C732 C731 1.385 . S
C732 C733 1.357 . S
C733 C732 1.357 . S
C733 C734 1.406 . S
C734 H701 0.929 . S
C734 C733 1.406 . S
C734 C735 1.391 . S
C735 H702 0.931 . S
C735 C730 1.370 . S
C735 C734 1.391 . S
C736 N710 1.435 . S
C736 C737 1.358 . S
C736 C741 1.371 . S
C737 H703 0.930 . S
C737 C736 1.358 . S
C737 C738 1.405 . S
C738 H704 0.932 . S
C738 C737 1.405 . S
C738 C739 1.383 . S
C739 C738 1.383 . S
C739 C740 1.393 . S
C740 H705 0.931 . S
C740 C739 1.393 . S
C740 C741 1.382 . S
C741 H706 0.929 . S
C741 C736 1.371 . S
C741 C740 1.382 . S
C742 N710 1.423 . S
C742 C743 1.362 . S
C742 C747 1.388 . S
C743 H707 0.929 . S
C743 C742 1.362 . S
C743 C744 1.376 . S
C744 H708 0.931 . S
C744 C743 1.376 . S
C744 C745 1.396 . S
C745 C727 1.472 . S
C745 C744 1.396 . S
C745 C746 1.348 . S
C746 H709 0.929 . S
C746 C745 1.348 . S
C746 C747 1.443 . S
C747 H711 0.932 . S
C747 C742 1.388 . S
C747 C746 1.443 . S
H748 C775 0.929 . S
N749 C774 1.433 . S
N749 C780 1.435 . S
N749 C786 1.423 . S
H750 C776 0.930 . S
H751 C779 0.931 . S
H752 C778 0.929 . S
H753 C781 0.930 . S
H754 C782 0.932 . S
H755 C785 0.929 . S
H756 C784 0.931 . S
H757 C787 0.929 . S
H758 C791 0.932 . S
H759 C788 0.931 . S
H760 C790 0.929 . S
H761 C793 0.929 . S
H762 C794 0.930 . S
H763 C796 0.929 . S
H764 C797 0.931 . S
H765 C799 0.930 . S
H766 C800 0.932 . S
H767 C802 0.931 . S
H768 C803 0.929 . S
H769 C805 0.929 . S
H770 C806 0.931 . S
H771 C808 0.929 . S
N772 C792 1.433 . S
N772 C798 1.435 . S
N772 C804 1.423 . S
H773 C809 0.932 . S
C774 N749 1.433 . S
C774 C775 1.363 . S
C774 C779 1.370 . S
C775 H748 0.929 . S
C775 C774 1.363 . S
C775 C776 1.385 . S
C776 H750 0.930 . S
C776 C775 1.385 . S
C776 C777 1.357 . S
C777 C776 1.357 . S
C777 C778 1.406 . S
C778 H752 0.929 . S
C778 C777 1.406 . S
C778 C779 1.391 . S
C779 H751 0.931 . S
C779 C774 1.370 . S
C779 C778 1.391 . S
C780 N749 1.435 . S
C780 C781 1.358 . S
C780 C785 1.371 . S
C781 H753 0.930 . S
C781 C780 1.358 . S
C781 C782 1.405 . S
C782 H754 0.932 . S
C782 C781 1.405 . S
C782 C783 1.383 . S
C783 C782 1.383 . S
C783 C784 1.393 . S
C784 H756 0.931 . S
C784 C783 1.393 . S
C784 C785 1.382 . S
C785 H755 0.929 . S
C785 C780 1.371 . S
C785 C784 1.382 . S
C786 N749 1.423 . S
C786 C787 1.362 . S
C786 C791 1.388 . S
C787 H757 0.929 . S
C787 C786 1.362 . S
C787 C788 1.376 . S
C788 H759 0.931 . S
C788 C787 1.376 . S
C788 C789 1.396 . S
C789 C788 1.396 . S
C789 C790 1.348 . S
C789 C807 1.472 . S
C790 H760 0.929 . S
C790 C789 1.348 . S
C790 C791 1.443 . S
C791 H758 0.932 . S
C791 C786 1.388 . S
C791 C790 1.443 . S
C792 N772 1.433 . S
C792 C793 1.363 . S
C792 C797 1.370 . S
C793 H761 0.929 . S
C793 C792 1.363 . S
C793 C794 1.385 . S
C794 H762 0.930 . S
C794 C793 1.385 . S
C794 C795 1.357 . S
C795 C794 1.357 . S
C795 C796 1.406 . S
C796 H763 0.929 . S
C796 C795 1.406 . S
C796 C797 1.391 . S
C797 H764 0.931 . S
C797 C792 1.370 . S
C797 C796 1.391 . S
C798 N772 1.435 . S
C798 C799 1.358 . S
C798 C803 1.371 . S
C799 H765 0.930 . S
C799 C798 1.358 . S
C799 C800 1.405 . S
C800 H766 0.932 . S
C800 C799 1.405 . S
C800 C801 1.383 . S
C801 C800 1.383 . S
C801 C802 1.393 . S
C802 H767 0.931 . S
C802 C801 1.393 . S
C802 C803 1.382 . S
C803 H768 0.929 . S
C803 C798 1.371 . S
C803 C802 1.382 . S
C804 N772 1.423 . S
C804 C805 1.362 . S
C804 C809 1.388 . S
C805 H769 0.929 . S
C805 C804 1.362 . S
C805 C806 1.376 . S
C806 H770 0.931 . S
C806 C805 1.376 . S
C806 C807 1.396 . S
C807 C789 1.472 . S
C807 C806 1.396 . S
C807 C808 1.348 . S
C808 H771 0.929 . S
C808 C807 1.348 . S
C808 C809 1.443 . S
C809 H773 0.932 . S
C809 C804 1.388 . S
C809 C808 1.443 . S
H810 C837 0.929 . S
N811 C836 1.433 . S
N811 C842 1.435 . S
N811 C848 1.423 . S
H812 C838 0.930 . S
H813 C841 0.931 . S
H814 C840 0.929 . S
H815 C843 0.930 . S
H816 C844 0.932 . S
H817 C847 0.929 . S
H818 C846 0.931 . S
H819 C849 0.929 . S
H820 C853 0.932 1_655 S
H821 C850 0.931 . S
H822 C852 0.942 . S
H823 C855 0.929 . S
H824 C856 0.930 . S
H825 C858 0.929 . S
H826 C859 0.931 . S
H827 C861 0.930 . S
H828 C862 0.932 . S
H829 C864 0.931 . S
H830 C865 0.929 . S
H831 C867 0.929 . S
H832 C868 0.931 . S
H833 C870 0.929 . S
N834 C854 1.433 . S
N834 C860 1.435 . S
N834 C866 1.423 . S
H835 C871 0.932 1_655 S
C836 N811 1.433 . S
C836 C837 1.363 . S
C836 C841 1.370 1_455 S
C837 H810 0.929 . S
C837 C836 1.363 . S
C837 C838 1.385 . S
C838 H812 0.930 . S
C838 C837 1.385 . S
C838 C839 1.357 1_455 S
C839 C838 1.357 1_655 S
C839 C840 1.406 . S
C840 H814 0.929 . S
C840 C839 1.406 . S
C840 C841 1.391 . S
C841 H813 0.931 . S
C841 C836 1.370 1_655 S
C841 C840 1.391 . S
C842 N811 1.435 . S
C842 C843 1.358 1_455 S
C842 C847 1.371 . S
C843 H815 0.930 . S
C843 C842 1.358 1_655 S
C843 C844 1.405 . S
C844 H816 0.932 . S
C844 C843 1.405 . S
C844 C845 1.383 1_655 S
C845 C844 1.383 1_455 S
C845 C846 1.393 . S
C846 H818 0.931 . S
C846 C845 1.393 . S
C846 C847 1.382 . S
C847 H817 0.929 . S
C847 C842 1.371 . S
C847 C846 1.382 . S
C848 N811 1.423 . S
C848 C849 1.362 . S
C848 C853 1.388 . S
C849 H819 0.929 . S
C849 C848 1.362 . S
C849 C850 1.376 . S
C850 H821 0.931 . S
C850 C849 1.376 . S
C850 C851 1.396 . S
C851 C850 1.396 . S
C851 C852 1.348 . S
C851 C869 1.472 . S
C852 H822 0.942 . S
C852 C851 1.348 . S
C852 C853 1.443 . S
C853 H820 0.932 1_455 S
C853 C848 1.388 . S
C853 C852 1.443 . S
C854 N834 1.433 . S
C854 C855 1.363 . S
C854 C859 1.370 1_455 S
C855 H823 0.929 . S
C855 C854 1.363 . S
C855 C856 1.385 . S
C856 H824 0.930 . S
C856 C855 1.385 . S
C856 C857 1.357 1_455 S
C857 C856 1.357 1_655 S
C857 C858 1.406 . S
C858 H825 0.929 . S
C858 C857 1.406 . S
C858 C859 1.391 . S
C859 H826 0.931 . S
C859 C854 1.370 1_655 S
C859 C858 1.391 . S
C860 N834 1.435 . S
C860 C861 1.358 1_455 S
C860 C865 1.371 . S
C861 H827 0.930 . S
C861 C860 1.358 1_655 S
C861 C862 1.405 . S
C862 H828 0.932 . S
C862 C861 1.405 . S
C862 C863 1.383 1_655 S
C863 C862 1.383 1_455 S
C863 C864 1.393 . S
C864 H829 0.931 . S
C864 C863 1.393 . S
C864 C865 1.382 . S
C865 H830 0.929 . S
C865 C860 1.371 . S
C865 C864 1.382 . S
C866 N834 1.423 . S
C866 C867 1.362 . S
C866 C871 1.388 . S
C867 H831 0.929 . S
C867 C866 1.362 . S
C867 C868 1.376 . S
C868 H832 0.931 . S
C868 C867 1.376 . S
C868 C869 1.396 . S
C869 C851 1.472 . S
C869 C868 1.396 . S
C869 C870 1.348 . S
C870 H833 0.929 . S
C870 C869 1.348 . S
C870 C871 1.443 . S
C871 H835 0.932 1_455 S
C871 C866 1.388 . S
C871 C870 1.443 . S
H872 C899 0.929 . S
N873 C898 1.433 . S
N873 C904 1.435 . S
N873 C910 1.423 . S
H874 C900 0.930 . S
H875 C903 0.931 . S
H876 C902 0.929 . S
H877 C905 0.930 . S
H878 C906 0.932 . S
H879 C909 0.929 . S
H880 C908 0.931 . S
H881 C911 0.929 . S
H882 C915 0.932 . S
H883 C912 0.931 . S
H884 C914 0.929 . S
H885 C917 0.929 . S
H886 C918 0.930 . S
H887 C920 0.929 . S
H888 C921 0.931 . S
H889 C923 0.930 . S
H890 C924 0.932 . S
H891 C926 0.931 . S
H892 C927 0.929 . S
H893 C929 0.929 . S
H894 C930 0.931 . S
H895 C932 0.929 . S
N896 C916 1.433 . S
N896 C922 1.435 . S
N896 C928 1.423 . S
H897 C933 0.932 . S
C898 N873 1.433 . S
C898 C899 1.363 . S
C898 C903 1.370 . S
C899 H872 0.929 . S
C899 C898 1.363 . S
C899 C900 1.385 . S
C900 H874 0.930 . S
C900 C899 1.385 . S
C900 C901 1.357 . S
C901 C900 1.357 . S
C901 C902 1.406 . S
C902 H876 0.929 . S
C902 C901 1.406 . S
C902 C903 1.391 . S
C903 H875 0.931 . S
C903 C898 1.370 . S
C903 C902 1.391 . S
C904 N873 1.435 . S
C904 C905 1.358 . S
C904 C909 1.371 . S
C905 H877 0.930 . S
C905 C904 1.358 . S
C905 C906 1.405 . S
C906 H878 0.932 . S
C906 C905 1.405 . S
C906 C907 1.383 . S
C907 C906 1.383 . S
C907 C908 1.393 . S
C908 H880 0.931 . S
C908 C907 1.393 . S
C908 C909 1.382 . S
C909 H879 0.929 . S
C909 C904 1.371 . S
C909 C908 1.382 . S
C910 N873 1.423 . S
C910 C911 1.362 . S
C910 C915 1.388 . S
C911 H881 0.929 . S
C911 C910 1.362 . S
C911 C912 1.376 . S
C912 H883 0.931 . S
C912 C911 1.376 . S
C912 C913 1.396 . S
C913 C912 1.396 . S
C913 C914 1.348 . S
C913 C931 1.472 . S
C914 H884 0.929 . S
C914 C913 1.348 . S
C914 C915 1.443 . S
C915 H882 0.932 . S
C915 C910 1.388 . S
C915 C914 1.443 . S
C916 N896 1.433 . S
C916 C917 1.363 . S
C916 C921 1.370 . S
C917 H885 0.929 . S
C917 C916 1.363 . S
C917 C918 1.385 . S
C918 H886 0.930 . S
C918 C917 1.385 . S
C918 C919 1.357 . S
C919 C918 1.357 . S
C919 C920 1.406 . S
C920 H887 0.929 . S
C920 C919 1.406 . S
C920 C921 1.391 . S
C921 H888 0.931 . S
C921 C916 1.370 . S
C921 C920 1.391 . S
C922 N896 1.435 . S
C922 C923 1.358 . S
C922 C927 1.371 . S
C923 H889 0.930 . S
C923 C922 1.358 . S
C923 C924 1.405 . S
C924 H890 0.932 . S
C924 C923 1.405 . S
C924 C925 1.383 . S
C925 C924 1.383 . S
C925 C926 1.393 . S
C926 H891 0.931 . S
C926 C925 1.393 . S
C926 C927 1.382 . S
C927 H892 0.929 . S
C927 C922 1.371 . S
C927 C926 1.382 . S
C928 N896 1.423 . S
C928 C929 1.362 . S
C928 C933 1.388 . S
C929 H893 0.929 . S
C929 C928 1.362 . S
C929 C930 1.376 . S
C930 H894 0.931 . S
C930 C929 1.376 . S
C930 C931 1.396 . S
C931 C913 1.472 . S
C931 C930 1.396 . S
C931 C932 1.348 . S
C932 H895 0.929 . S
C932 C931 1.348 . S
C932 C933 1.443 . S
C933 H897 0.932 . S
C933 C928 1.388 . S
C933 C932 1.443 . S
H934 C961 0.929 . S
N935 C960 1.433 . S
N935 C966 1.435 . S
N935 C972 1.423 . S
H936 C962 0.930 . S
H937 C965 0.931 . S
H938 C964 0.929 . S
H939 C967 0.930 . S
H940 C968 0.932 . S
H941 C971 0.929 . S
H942 C970 0.931 . S
H943 C973 0.929 . S
H944 C977 0.932 1_545 S
H945 C974 0.931 . S
H946 C976 0.929 . S
H947 C979 0.929 . S
H948 C980 0.930 . S
H949 C982 0.929 . S
H950 C983 0.931 . S
H951 C985 0.930 . S
H952 C986 0.932 . S
H953 C988 0.931 . S
H954 C989 0.929 . S
H955 C991 0.929 . S
H956 C992 0.931 . S
H957 C994 0.929 . S
N958 C978 1.433 . S
N958 C984 1.435 . S
N958 C990 1.423 . S
H959 C995 0.932 1_545 S
C960 N935 1.433 . S
C960 C961 1.363 . S
C960 C965 1.370 1_565 S
C961 H934 0.929 . S
C961 C960 1.363 . S
C961 C962 1.385 . S
C962 H936 0.930 . S
C962 C961 1.385 . S
C962 C963 1.357 1_565 S
C963 C962 1.357 1_545 S
C963 C964 1.406 . S
C964 H938 0.929 . S
C964 C963 1.406 . S
C964 C965 1.391 . S
C965 H937 0.931 . S
C965 C960 1.370 1_545 S
C965 C964 1.391 . S
C966 N935 1.435 . S
C966 C967 1.358 1_565 S
C966 C971 1.371 . S
C967 H939 0.930 . S
C967 C966 1.358 1_545 S
C967 C968 1.405 . S
C968 H940 0.932 . S
C968 C967 1.405 . S
C968 C969 1.383 1_545 S
C969 C968 1.383 1_565 S
C969 C970 1.393 . S
C970 H942 0.931 . S
C970 C969 1.393 . S
C970 C971 1.382 . S
C971 H941 0.929 . S
C971 C966 1.371 . S
C971 C970 1.382 . S
C972 N935 1.423 . S
C972 C973 1.362 . S
C972 C977 1.388 . S
C973 H943 0.929 . S
C973 C972 1.362 . S
C973 C974 1.376 . S
C974 H945 0.931 . S
C974 C973 1.376 . S
C974 C975 1.396 . S
C975 C974 1.396 . S
C975 C976 1.348 . S
C975 C993 1.472 . S
C976 H946 0.929 . S
C976 C975 1.348 . S
C976 C977 1.443 . S
C977 H944 0.932 1_565 S
C977 C972 1.388 . S
C977 C976 1.443 . S
C978 N958 1.433 . S
C978 C979 1.363 . S
C978 C983 1.370 1_565 S
C979 H947 0.929 . S
C979 C978 1.363 . S
C979 C980 1.385 . S
C980 H948 0.930 . S
C980 C979 1.385 . S
C980 C981 1.357 1_565 S
C981 C980 1.357 1_545 S
C981 C982 1.406 . S
C982 H949 0.929 . S
C982 C981 1.406 . S
C982 C983 1.391 . S
C983 H950 0.931 . S
C983 C978 1.370 1_545 S
C983 C982 1.391 . S
C984 N958 1.435 . S
C984 C985 1.358 1_565 S
C984 C989 1.371 . S
C985 H951 0.930 . S
C985 C984 1.358 1_545 S
C985 C986 1.405 . S
C986 H952 0.932 . S
C986 C985 1.405 . S
C986 C987 1.383 1_545 S
C987 C986 1.383 1_565 S
C987 C988 1.393 . S
C988 H953 0.931 . S
C988 C987 1.393 . S
C988 C989 1.382 . S
C989 H954 0.929 . S
C989 C984 1.371 . S
C989 C988 1.382 . S
C990 N958 1.423 . S
C990 C991 1.362 . S
C990 C995 1.388 . S
C991 H955 0.929 . S
C991 C990 1.362 . S
C991 C992 1.376 . S
C992 H956 0.931 . S
C992 C991 1.376 . S
C992 C993 1.396 . S
C993 C975 1.472 . S
C993 C992 1.396 . S
C993 C994 1.348 . S
C994 H957 0.929 . S
C994 C993 1.348 . S
C994 C995 1.443 . S
C995 H959 0.932 1_565 S
C995 C990 1.388 . S
C995 C994 1.443 . S
H996 C1023 0.929 . S
N997 C1022 1.433 . S
N997 C1028 1.435 . S
N997 C1034 1.423 . S
H998 C1024 0.930 . S
H999 C1027 0.930 . S
H1000 C1026 0.945 . S
H1001 C1029 0.930 . S
H1002 C1030 0.932 . S
H1003 C1033 0.929 . S
H1004 C1032 0.931 . S
H1005 C1035 0.929 . S
H1006 C1039 1.008 . S
H1007 C1036 0.931 . S
H1008 C1038 0.917 1_545 S
H1009 C1041 0.929 . S
H1010 C1042 0.930 . S
H1011 C1044 0.929 . S
H1012 C1045 1.005 . S
H1013 C1047 0.930 . S
H1014 C1048 0.932 . S
H1015 C1050 0.931 . S
H1016 C1051 0.929 . S
H1017 C1053 0.929 . S
H1018 C1054 0.931 . S
H1019 C1056 0.897 1_545 S
N1020 C1040 1.433 . S
N1020 C1046 1.435 . S
N1020 C1052 1.423 . S
H1021 C1057 0.932 . S
C1022 N997 1.433 . S
C1022 C1023 1.363 . S
C1022 C1027 1.364 1_565 S
C1023 H996 0.929 . S
C1023 C1022 1.363 . S
C1023 C1024 1.385 . S
C1024 H998 0.930 . S
C1024 C1023 1.385 . S
C1024 C1025 1.357 . S
C1025 C1024 1.357 . S
C1025 C1026 1.412 1_565 S
C1026 H1000 0.945 . S
C1026 C1025 1.412 1_545 S
C1026 C1027 1.387 . S
C1027 H999 0.930 . S
C1027 C1022 1.364 1_545 S
C1027 C1026 1.387 . S
C1028 N997 1.435 . S
C1028 C1029 1.358 1_565 S
C1028 C1033 1.371 . S
C1029 H1001 0.930 . S
C1029 C1028 1.358 1_545 S
C1029 C1030 1.405 . S
C1030 H1002 0.932 . S
C1030 C1029 1.405 . S
C1030 C1031 1.383 . S
C1031 C1030 1.383 . S
C1031 C1032 1.393 1_545 S
C1032 H1004 0.931 . S
C1032 C1031 1.393 1_565 S
C1032 C1033 1.382 . S
C1033 H1003 0.929 . S
C1033 C1028 1.371 . S
C1033 C1032 1.382 . S
C1034 N997 1.423 . S
C1034 C1035 1.362 . S
C1034 C1039 1.365 1_565 S
C1035 H1005 0.929 . S
C1035 C1034 1.362 . S
C1035 C1036 1.376 . S
C1036 H1007 0.931 . S
C1036 C1035 1.376 . S
C1036 C1037 1.396 . S
C1037 C1036 1.396 . S
C1037 C1038 1.393 . S
C1037 C1055 1.472 . S
C1038 H1008 0.917 1_565 S
C1038 C1037 1.393 . S
C1038 C1039 1.364 1_565 S
C1039 H1006 1.008 . S
C1039 C1034 1.365 1_545 S
C1039 C1038 1.364 1_545 S
C1040 N1020 1.433 . S
C1040 C1041 1.363 . S
C1040 C1045 1.314 1_565 S
C1041 H1009 0.929 . S
C1041 C1040 1.363 . S
C1041 C1042 1.385 . S
C1042 H1010 0.930 . S
C1042 C1041 1.385 . S
C1042 C1043 1.357 . S
C1043 C1042 1.357 . S
C1043 C1044 1.406 1_565 S
C1044 H1011 0.929 . S
C1044 C1043 1.406 1_545 S
C1044 C1045 1.379 . S
C1045 H1012 1.005 . S
C1045 C1040 1.314 1_545 S
C1045 C1044 1.379 . S
C1046 N1020 1.435 . S
C1046 C1047 1.358 1_565 S
C1046 C1051 1.371 . S
C1047 H1013 0.930 . S
C1047 C1046 1.358 1_545 S
C1047 C1048 1.405 . S
C1048 H1014 0.932 . S
C1048 C1047 1.405 . S
C1048 C1049 1.383 . S
C1049 C1048 1.383 . S
C1049 C1050 1.393 1_545 S
C1050 H1015 0.931 . S
C1050 C1049 1.393 1_565 S
C1050 C1051 1.382 . S
C1051 H1016 0.929 . S
C1051 C1046 1.371 . S
C1051 C1050 1.382 . S
C1052 N1020 1.423 . S
C1052 C1053 1.362 . S
C1052 C1057 1.388 1_565 S
C1053 H1017 0.929 . S
C1053 C1052 1.362 . S
C1053 C1054 1.376 . S
C1054 H1018 0.931 . S
C1054 C1053 1.376 . S
C1054 C1055 1.396 . S
C1055 C1037 1.472 . S
C1055 C1054 1.396 . S
C1055 C1056 1.361 . S
C1056 H1019 0.897 1_565 S
C1056 C1055 1.361 . S
C1056 C1057 1.462 1_565 S
C1057 H1021 0.932 . S
C1057 C1052 1.388 1_545 S
C1057 C1056 1.462 1_545 S
H1058 C1085 0.929 . S
N1059 C1084 1.433 . S
N1059 C1090 1.435 . S
N1059 C1096 1.423 . S
H1060 C1086 0.930 . S
H1061 C1089 0.931 . S
H1062 C1088 0.929 . S
H1063 C1091 0.930 . S
H1064 C1092 0.932 . S
H1065 C1095 0.929 . S
H1066 C1094 0.931 . S
H1067 C1097 0.929 . S
H1068 C1101 0.932 1_455 S
H1069 C1098 0.931 . S
H1070 C1100 0.929 . S
H1071 C1103 0.929 . S
H1072 C1104 0.930 . S
H1073 C1106 0.929 . S
H1074 C1107 0.931 . S
H1075 C1109 0.930 . S
H1076 C1110 0.932 . S
H1077 C1112 0.931 . S
H1078 C1113 0.929 . S
H1079 C1115 0.929 . S
H1080 C1116 0.931 . S
H1081 C1118 0.929 . S
N1082 C1102 1.433 . S
N1082 C1108 1.435 . S
N1082 C1114 1.423 . S
H1083 C1119 0.932 1_455 S
C1084 N1059 1.433 . S
C1084 C1085 1.363 . S
C1084 C1089 1.370 1_655 S
C1085 H1058 0.929 . S
C1085 C1084 1.363 . S
C1085 C1086 1.385 . S
C1086 H1060 0.930 . S
C1086 C1085 1.385 . S
C1086 C1087 1.357 1_655 S
C1087 C1086 1.357 1_455 S
C1087 C1088 1.406 . S
C1088 H1062 0.929 . S
C1088 C1087 1.406 . S
C1088 C1089 1.391 . S
C1089 H1061 0.931 . S
C1089 C1084 1.370 1_455 S
C1089 C1088 1.391 . S
C1090 N1059 1.435 . S
C1090 C1091 1.358 1_655 S
C1090 C1095 1.371 . S
C1091 H1063 0.930 . S
C1091 C1090 1.358 1_455 S
C1091 C1092 1.405 . S
C1092 H1064 0.932 . S
C1092 C1091 1.405 . S
C1092 C1093 1.383 1_455 S
C1093 C1092 1.383 1_655 S
C1093 C1094 1.393 . S
C1094 H1066 0.931 . S
C1094 C1093 1.393 . S
C1094 C1095 1.382 . S
C1095 H1065 0.929 . S
C1095 C1090 1.371 . S
C1095 C1094 1.382 . S
C1096 N1059 1.423 . S
C1096 C1097 1.362 . S
C1096 C1101 1.388 . S
C1097 H1067 0.929 . S
C1097 C1096 1.362 . S
C1097 C1098 1.376 . S
C1098 H1069 0.931 . S
C1098 C1097 1.376 . S
C1098 C1099 1.396 . S
C1099 C1098 1.396 . S
C1099 C1100 1.348 . S
C1099 C1117 1.472 . S
C1100 H1070 0.929 . S
C1100 C1099 1.348 . S
C1100 C1101 1.443 . S
C1101 H1068 0.932 1_655 S
C1101 C1096 1.388 . S
C1101 C1100 1.443 . S
C1102 N1082 1.433 . S
C1102 C1103 1.363 . S
C1102 C1107 1.370 1_655 S
C1103 H1071 0.929 . S
C1103 C1102 1.363 . S
C1103 C1104 1.385 . S
C1104 H1072 0.930 . S
C1104 C1103 1.385 . S
C1104 C1105 1.357 1_655 S
C1105 C1104 1.357 1_455 S
C1105 C1106 1.406 . S
C1106 H1073 0.929 . S
C1106 C1105 1.406 . S
C1106 C1107 1.391 . S
C1107 H1074 0.931 . S
C1107 C1102 1.370 1_455 S
C1107 C1106 1.391 . S
C1108 N1082 1.435 . S
C1108 C1109 1.358 1_655 S
C1108 C1113 1.371 . S
C1109 H1075 0.930 . S
C1109 C1108 1.358 1_455 S
C1109 C1110 1.405 . S
C1110 H1076 0.932 . S
C1110 C1109 1.405 . S
C1110 C1111 1.383 1_455 S
C1111 C1110 1.383 1_655 S
C1111 C1112 1.393 . S
C1112 H1077 0.931 . S
C1112 C1111 1.393 . S
C1112 C1113 1.382 . S
C1113 H1078 0.929 . S
C1113 C1108 1.371 . S
C1113 C1112 1.382 . S
C1114 N1082 1.423 . S
C1114 C1115 1.362 . S
C1114 C1119 1.388 . S
C1115 H1079 0.929 . S
C1115 C1114 1.362 . S
C1115 C1116 1.376 . S
C1116 H1080 0.931 . S
C1116 C1115 1.376 . S
C1116 C1117 1.396 . S
C1117 C1099 1.472 . S
C1117 C1116 1.396 . S
C1117 C1118 1.348 . S
C1118 H1081 0.929 . S
C1118 C1117 1.348 . S
C1118 C1119 1.443 . S
C1119 H1083 0.932 1_655 S
C1119 C1114 1.388 . S
C1119 C1118 1.443 . S
H1120 C1147 0.929 . S
N1121 C1146 1.433 . S
N1121 C1152 1.435 . S
N1121 C1158 1.423 . S
H1122 C1148 0.930 . S
H1123 C1151 0.931 . S
H1124 C1150 0.929 . S
H1125 C1153 0.930 . S
H1126 C1154 0.932 . S
H1127 C1157 0.929 . S
H1128 C1156 0.931 . S
H1129 C1159 0.929 . S
H1130 C1163 0.932 . S
H1131 C1160 0.931 . S
H1132 C1162 0.929 . S
H1133 C1165 0.929 . S
H1134 C1166 0.930 . S
H1135 C1168 0.929 . S
H1136 C1169 0.931 . S
H1137 C1171 0.930 . S
H1138 C1172 0.932 . S
H1139 C1174 0.931 . S
H1140 C1175 0.929 . S
H1141 C1177 0.929 . S
H1142 C1178 0.931 . S
H1143 C1180 0.929 . S
N1144 C1164 1.433 . S
N1144 C1170 1.435 . S
N1144 C1176 1.423 . S
H1145 C1181 0.932 . S
C1146 N1121 1.433 . S
C1146 C1147 1.363 . S
C1146 C1151 1.370 . S
C1147 H1120 0.929 . S
C1147 C1146 1.363 . S
C1147 C1148 1.385 . S
C1148 H1122 0.930 . S
C1148 C1147 1.385 . S
C1148 C1149 1.357 . S
C1149 C1148 1.357 . S
C1149 C1150 1.406 . S
C1150 H1124 0.929 . S
C1150 C1149 1.406 . S
C1150 C1151 1.391 . S
C1151 H1123 0.931 . S
C1151 C1146 1.370 . S
C1151 C1150 1.391 . S
C1152 N1121 1.435 . S
C1152 C1153 1.358 . S
C1152 C1157 1.371 . S
C1153 H1125 0.930 . S
C1153 C1152 1.358 . S
C1153 C1154 1.405 . S
C1154 H1126 0.932 . S
C1154 C1153 1.405 . S
C1154 C1155 1.383 . S
C1155 C1154 1.383 . S
C1155 C1156 1.393 . S
C1156 H1128 0.931 . S
C1156 C1155 1.393 . S
C1156 C1157 1.382 . S
C1157 H1127 0.929 . S
C1157 C1152 1.371 . S
C1157 C1156 1.382 . S
C1158 N1121 1.423 . S
C1158 C1159 1.362 . S
C1158 C1163 1.388 . S
C1159 H1129 0.929 . S
C1159 C1158 1.362 . S
C1159 C1160 1.376 . S
C1160 H1131 0.931 . S
C1160 C1159 1.376 . S
C1160 C1161 1.396 . S
C1161 C1160 1.396 . S
C1161 C1162 1.348 . S
C1161 C1179 1.472 . S
C1162 H1132 0.929 . S
C1162 C1161 1.348 . S
C1162 C1163 1.443 . S
C1163 H1130 0.932 . S
C1163 C1158 1.388 . S
C1163 C1162 1.443 . S
C1164 N1144 1.433 . S
C1164 C1165 1.363 . S
C1164 C1169 1.370 . S
C1165 H1133 0.929 . S
C1165 C1164 1.363 . S
C1165 C1166 1.385 . S
C1166 H1134 0.930 . S
C1166 C1165 1.385 . S
C1166 C1167 1.357 . S
C1167 C1166 1.357 . S
C1167 C1168 1.406 . S
C1168 H1135 0.929 . S
C1168 C1167 1.406 . S
C1168 C1169 1.391 . S
C1169 H1136 0.931 . S
C1169 C1164 1.370 . S
C1169 C1168 1.391 . S
C1170 N1144 1.435 . S
C1170 C1171 1.358 . S
C1170 C1175 1.371 . S
C1171 H1137 0.930 . S
C1171 C1170 1.358 . S
C1171 C1172 1.405 . S
C1172 H1138 0.932 . S
C1172 C1171 1.405 . S
C1172 C1173 1.383 . S
C1173 C1172 1.383 . S
C1173 C1174 1.393 . S
C1174 H1139 0.931 . S
C1174 C1173 1.393 . S
C1174 C1175 1.382 . S
C1175 H1140 0.929 . S
C1175 C1170 1.371 . S
C1175 C1174 1.382 . S
C1176 N1144 1.423 . S
C1176 C1177 1.362 . S
C1176 C1181 1.388 . S
C1177 H1141 0.929 . S
C1177 C1176 1.362 . S
C1177 C1178 1.376 . S
C1178 H1142 0.931 . S
C1178 C1177 1.376 . S
C1178 C1179 1.396 . S
C1179 C1161 1.472 . S
C1179 C1178 1.396 . S
C1179 C1180 1.348 . S
C1180 H1143 0.929 . S
C1180 C1179 1.348 . S
C1180 C1181 1.443 . S
C1181 H1145 0.932 . S
C1181 C1176 1.388 . S
C1181 C1180 1.443 . S
H1182 C1209 0.929 . S
N1183 C1208 1.433 . S
N1183 C1214 1.435 . S
N1183 C1220 1.423 . S
H1184 C1210 0.930 . S
H1185 C1213 0.931 . S
H1186 C1212 0.929 . S
H1187 C1215 0.930 . S
H1188 C1216 0.932 . S
H1189 C1219 0.929 . S
H1190 C1218 0.931 . S
H1191 C1221 0.929 . S
H1192 C1225 0.932 . S
H1193 C1222 0.931 . S
H1194 C1224 0.929 . S
H1195 C1227 0.929 . S
H1196 C1228 0.930 . S
H1197 C1230 0.929 . S
H1198 C1231 0.931 . S
H1199 C1233 0.930 . S
H1200 C1234 0.932 . S
H1201 C1236 0.931 . S
H1202 C1237 0.929 . S
H1203 C1239 0.929 . S
H1204 C1240 0.931 . S
H1205 C1242 0.929 . S
N1206 C1226 1.433 . S
N1206 C1232 1.435 . S
N1206 C1238 1.423 . S
H1207 C1243 0.932 . S
C1208 N1183 1.433 . S
C1208 C1209 1.363 . S
C1208 C1213 1.370 . S
C1209 H1182 0.929 . S
C1209 C1208 1.363 . S
C1209 C1210 1.385 . S
C1210 H1184 0.930 . S
C1210 C1209 1.385 . S
C1210 C1211 1.357 . S
C1211 C1210 1.357 . S
C1211 C1212 1.406 . S
C1212 H1186 0.929 . S
C1212 C1211 1.406 . S
C1212 C1213 1.391 . S
C1213 H1185 0.931 . S
C1213 C1208 1.370 . S
C1213 C1212 1.391 . S
C1214 N1183 1.435 . S
C1214 C1215 1.358 . S
C1214 C1219 1.371 . S
C1215 H1187 0.930 . S
C1215 C1214 1.358 . S
C1215 C1216 1.405 . S
C1216 H1188 0.932 . S
C1216 C1215 1.405 . S
C1216 C1217 1.383 . S
C1217 C1216 1.383 . S
C1217 C1218 1.393 . S
C1218 H1190 0.931 . S
C1218 C1217 1.393 . S
C1218 C1219 1.382 . S
C1219 H1189 0.929 . S
C1219 C1214 1.371 . S
C1219 C1218 1.382 . S
C1220 N1183 1.423 . S
C1220 C1221 1.362 . S
C1220 C1225 1.388 . S
C1221 H1191 0.929 . S
C1221 C1220 1.362 . S
C1221 C1222 1.376 . S
C1222 H1193 0.931 . S
C1222 C1221 1.376 . S
C1222 C1223 1.396 . S
C1223 C1222 1.396 . S
C1223 C1224 1.348 . S
C1223 C1241 1.472 . S
C1224 H1194 0.929 . S
C1224 C1223 1.348 . S
C1224 C1225 1.443 . S
C1225 H1192 0.932 . S
C1225 C1220 1.388 . S
C1225 C1224 1.443 . S
C1226 N1206 1.433 . S
C1226 C1227 1.363 . S
C1226 C1231 1.370 . S
C1227 H1195 0.929 . S
C1227 C1226 1.363 . S
C1227 C1228 1.385 . S
C1228 H1196 0.930 . S
C1228 C1227 1.385 . S
C1228 C1229 1.357 . S
C1229 C1228 1.357 . S
C1229 C1230 1.406 . S
C1230 H1197 0.929 . S
C1230 C1229 1.406 . S
C1230 C1231 1.391 . S
C1231 H1198 0.931 . S
C1231 C1226 1.370 . S
C1231 C1230 1.391 . S
C1232 N1206 1.435 . S
C1232 C1233 1.358 . S
C1232 C1237 1.371 . S
C1233 H1199 0.930 . S
C1233 C1232 1.358 . S
C1233 C1234 1.405 . S
C1234 H1200 0.932 . S
C1234 C1233 1.405 . S
C1234 C1235 1.383 . S
C1235 C1234 1.383 . S
C1235 C1236 1.393 . S
C1236 H1201 0.931 . S
C1236 C1235 1.393 . S
C1236 C1237 1.382 . S
C1237 H1202 0.929 . S
C1237 C1232 1.371 . S
C1237 C1236 1.382 . S
C1238 N1206 1.423 . S
C1238 C1239 1.362 . S
C1238 C1243 1.388 . S
C1239 H1203 0.929 . S
C1239 C1238 1.362 . S
C1239 C1240 1.376 . S
C1240 H1204 0.931 . S
C1240 C1239 1.376 . S
C1240 C1241 1.396 . S
C1241 C1223 1.472 . S
C1241 C1240 1.396 . S
C1241 C1242 1.348 . S
C1242 H1205 0.929 . S
C1242 C1241 1.348 . S
C1242 C1243 1.443 . S
C1243 H1207 0.932 . S
C1243 C1238 1.388 . S
C1243 C1242 1.443 . S
H1244 C1271 0.929 . S
N1245 C1270 1.433 . S
N1245 C1276 1.435 . S
N1245 C1282 1.423 . S
H1246 C1272 0.930 . S
H1247 C1275 0.931 . S
H1248 C1274 0.929 . S
H1249 C1277 0.930 . S
H1250 C1278 0.932 . S
H1251 C1281 0.929 . S
H1252 C1280 0.931 . S
H1253 C1283 0.929 . S
H1254 C1287 0.932 . S
H1255 C1284 0.931 . S
H1256 C1286 0.929 . S
H1257 C1289 0.929 . S
H1258 C1290 0.930 . S
H1259 C1292 0.929 . S
H1260 C1293 0.931 . S
H1261 C1295 0.930 . S
H1262 C1296 0.932 . S
H1263 C1298 0.931 . S
H1264 C1299 0.929 . S
H1265 C1301 0.929 . S
H1266 C1302 0.931 . S
H1267 C1304 0.929 . S
N1268 C1288 1.433 . S
N1268 C1294 1.435 . S
N1268 C1300 1.423 . S
H1269 C1305 0.932 . S
C1270 N1245 1.433 . S
C1270 C1271 1.363 . S
C1270 C1275 1.370 . S
C1271 H1244 0.929 . S
C1271 C1270 1.363 . S
C1271 C1272 1.385 . S
C1272 H1246 0.930 . S
C1272 C1271 1.385 . S
C1272 C1273 1.357 . S
C1273 C1272 1.357 . S
C1273 C1274 1.406 . S
C1274 H1248 0.929 . S
C1274 C1273 1.406 . S
C1274 C1275 1.391 . S
C1275 H1247 0.931 . S
C1275 C1270 1.370 . S
C1275 C1274 1.391 . S
C1276 N1245 1.435 . S
C1276 C1277 1.358 . S
C1276 C1281 1.371 . S
C1277 H1249 0.930 . S
C1277 C1276 1.358 . S
C1277 C1278 1.405 . S
C1278 H1250 0.932 . S
C1278 C1277 1.405 . S
C1278 C1279 1.383 . S
C1279 C1278 1.383 . S
C1279 C1280 1.393 . S
C1280 H1252 0.931 . S
C1280 C1279 1.393 . S
C1280 C1281 1.382 . S
C1281 H1251 0.929 . S
C1281 C1276 1.371 . S
C1281 C1280 1.382 . S
C1282 N1245 1.423 . S
C1282 C1283 1.362 . S
C1282 C1287 1.388 . S
C1283 H1253 0.929 . S
C1283 C1282 1.362 . S
C1283 C1284 1.376 . S
C1284 H1255 0.931 . S
C1284 C1283 1.376 . S
C1284 C1285 1.396 . S
C1285 C1284 1.396 . S
C1285 C1286 1.348 . S
C1285 C1303 1.472 . S
C1286 H1256 0.929 . S
C1286 C1285 1.348 . S
C1286 C1287 1.443 . S
C1287 H1254 0.932 . S
C1287 C1282 1.388 . S
C1287 C1286 1.443 . S
C1288 N1268 1.433 . S
C1288 C1289 1.363 . S
C1288 C1293 1.370 . S
C1289 H1257 0.929 . S
C1289 C1288 1.363 . S
C1289 C1290 1.385 . S
C1290 H1258 0.930 . S
C1290 C1289 1.385 . S
C1290 C1291 1.357 . S
C1291 C1290 1.357 . S
C1291 C1292 1.406 . S
C1292 H1259 0.929 . S
C1292 C1291 1.406 . S
C1292 C1293 1.391 . S
C1293 H1260 0.931 . S
C1293 C1288 1.370 . S
C1293 C1292 1.391 . S
C1294 N1268 1.435 . S
C1294 C1295 1.358 . S
C1294 C1299 1.371 . S
C1295 H1261 0.930 . S
C1295 C1294 1.358 . S
C1295 C1296 1.405 . S
C1296 H1262 0.932 . S
C1296 C1295 1.405 . S
C1296 C1297 1.383 . S
C1297 C1296 1.383 . S
C1297 C1298 1.393 . S
C1298 H1263 0.931 . S
C1298 C1297 1.393 . S
C1298 C1299 1.382 . S
C1299 H1264 0.929 . S
C1299 C1294 1.371 . S
C1299 C1298 1.382 . S
C1300 N1268 1.423 . S
C1300 C1301 1.362 . S
C1300 C1305 1.388 . S
C1301 H1265 0.929 . S
C1301 C1300 1.362 . S
C1301 C1302 1.376 . S
C1302 H1266 0.931 . S
C1302 C1301 1.376 . S
C1302 C1303 1.396 . S
C1303 C1285 1.472 . S
C1303 C1302 1.396 . S
C1303 C1304 1.348 . S
C1304 H1267 0.929 . S
C1304 C1303 1.348 . S
C1304 C1305 1.443 . S
C1305 H1269 0.932 . S
C1305 C1300 1.388 . S
C1305 C1304 1.443 . S
H1306 C1333 0.929 . S
N1307 C1332 1.433 . S
N1307 C1338 1.435 . S
N1307 C1344 1.423 . S
H1308 C1334 0.930 . S
H1309 C1337 0.931 . S
H1310 C1336 0.929 . S
H1311 C1339 0.930 . S
H1312 C1340 0.932 . S
H1313 C1343 0.929 . S
H1314 C1342 0.931 . S
H1315 C1345 0.929 . S
H1316 C1349 0.932 . S
H1317 C1346 0.931 . S
H1318 C1348 0.929 . S
H1319 C1351 0.929 . S
H1320 C1352 0.930 . S
H1321 C1354 0.929 . S
H1322 C1355 0.931 . S
H1323 C1357 0.930 . S
H1324 C1358 0.932 . S
H1325 C1360 0.931 . S
H1326 C1361 0.929 . S
H1327 C1363 0.929 . S
H1328 C1364 0.931 . S
H1329 C1366 0.929 . S
N1330 C1350 1.433 . S
N1330 C1356 1.435 . S
N1330 C1362 1.423 . S
H1331 C1367 0.932 . S
C1332 N1307 1.433 . S
C1332 C1333 1.363 . S
C1332 C1337 1.370 . S
C1333 H1306 0.929 . S
C1333 C1332 1.363 . S
C1333 C1334 1.385 . S
C1334 H1308 0.930 . S
C1334 C1333 1.385 . S
C1334 C1335 1.357 . S
C1335 C1334 1.357 . S
C1335 C1336 1.406 . S
C1336 H1310 0.929 . S
C1336 C1335 1.406 . S
C1336 C1337 1.391 . S
C1337 H1309 0.931 . S
C1337 C1332 1.370 . S
C1337 C1336 1.391 . S
C1338 N1307 1.435 . S
C1338 C1339 1.358 . S
C1338 C1343 1.371 . S
C1339 H1311 0.930 . S
C1339 C1338 1.358 . S
C1339 C1340 1.405 . S
C1340 H1312 0.932 . S
C1340 C1339 1.405 . S
C1340 C1341 1.383 . S
C1341 C1340 1.383 . S
C1341 C1342 1.393 . S
C1342 H1314 0.931 . S
C1342 C1341 1.393 . S
C1342 C1343 1.382 . S
C1343 H1313 0.929 . S
C1343 C1338 1.371 . S
C1343 C1342 1.382 . S
C1344 N1307 1.423 . S
C1344 C1345 1.362 . S
C1344 C1349 1.388 . S
C1345 H1315 0.929 . S
C1345 C1344 1.362 . S
C1345 C1346 1.376 . S
C1346 H1317 0.931 . S
C1346 C1345 1.376 . S
C1346 C1347 1.396 . S
C1347 C1346 1.396 . S
C1347 C1348 1.348 . S
C1347 C1365 1.472 . S
C1348 H1318 0.929 . S
C1348 C1347 1.348 . S
C1348 C1349 1.443 . S
C1349 H1316 0.932 . S
C1349 C1344 1.388 . S
C1349 C1348 1.443 . S
C1350 N1330 1.433 . S
C1350 C1351 1.363 . S
C1350 C1355 1.370 . S
C1351 H1319 0.929 . S
C1351 C1350 1.363 . S
C1351 C1352 1.385 . S
C1352 H1320 0.930 . S
C1352 C1351 1.385 . S
C1352 C1353 1.357 . S
C1353 C1352 1.357 . S
C1353 C1354 1.406 . S
C1354 H1321 0.929 . S
C1354 C1353 1.406 . S
C1354 C1355 1.391 . S
C1355 H1322 0.931 . S
C1355 C1350 1.370 . S
C1355 C1354 1.391 . S
C1356 N1330 1.435 . S
C1356 C1357 1.358 . S
C1356 C1361 1.371 . S
C1357 H1323 0.930 . S
C1357 C1356 1.358 . S
C1357 C1358 1.405 . S
C1358 H1324 0.932 . S
C1358 C1357 1.405 . S
C1358 C1359 1.383 . S
C1359 C1358 1.383 . S
C1359 C1360 1.393 . S
C1360 H1325 0.931 . S
C1360 C1359 1.393 . S
C1360 C1361 1.382 . S
C1361 H1326 0.929 . S
C1361 C1356 1.371 . S
C1361 C1360 1.382 . S
C1362 N1330 1.423 . S
C1362 C1363 1.362 . S
C1362 C1367 1.388 . S
C1363 H1327 0.929 . S
C1363 C1362 1.362 . S
C1363 C1364 1.376 . S
C1364 H1328 0.931 . S
C1364 C1363 1.376 . S
C1364 C1365 1.396 . S
C1365 C1347 1.472 . S
C1365 C1364 1.396 . S
C1365 C1366 1.348 . S
C1366 H1329 0.929 . S
C1366 C1365 1.348 . S
C1366 C1367 1.443 . S
C1367 H1331 0.932 . S
C1367 C1362 1.388 . S
C1367 C1366 1.443 . S
H1368 C1376 0.950 . S
H1369 C1381 0.950 . S
H1370 C1378 0.950 . S
H1371 C1380 0.950 . S
H1372 C1382 0.950 . S
H1373 C1384 0.950 . S
H1374 C1386 0.950 . S
H1375 C1387 0.950 . S
C1376 H1368 0.950 . S
C1376 C1377 1.386 1_455 S
C1376 C1378 1.391 . S
C1377 C1376 1.386 1_655 S
C1377 C1381 1.393 . S
C1378 H1370 0.950 . S
C1378 C1376 1.391 . S
C1378 C1379 1.400 1_455 S
C1379 C1378 1.400 1_655 S
C1379 C1380 1.398 . S
C1379 C1385 1.491 . S
C1380 H1371 0.950 . S
C1380 C1379 1.398 . S
C1380 C1381 1.391 . S
C1381 H1369 0.950 . S
C1381 C1377 1.393 . S
C1381 C1380 1.391 . S
C1382 H1372 0.950 . S
C1382 C1383 1.386 . S
C1382 C1384 1.391 . S
C1383 C1382 1.386 . S
C1383 C1387 1.393 1_655 S
C1384 H1373 0.950 . S
C1384 C1382 1.391 . S
C1384 C1385 1.400 . S
C1385 C1379 1.491 . S
C1385 C1384 1.400 . S
C1385 C1386 1.398 1_655 S
C1386 H1374 0.950 . S
C1386 C1385 1.398 1_455 S
C1386 C1387 1.391 . S
C1387 H1375 0.950 . S
C1387 C1383 1.393 1_455 S
C1387 C1386 1.391 . S
H1388 C1396 0.950 . S
H1389 C1401 0.950 . S
H1390 C1398 0.950 . S
H1391 C1400 0.950 . S
H1392 C1402 0.950 . S
H1393 C1404 0.950 . S
H1394 C1406 0.950 . S
H1395 C1407 0.950 . S
C1396 H1388 0.950 . S
C1396 C1397 1.386 . S
C1396 C1398 1.391 . S
C1397 C1396 1.386 . S
C1397 C1401 1.393 . S
C1398 H1390 0.950 . S
C1398 C1396 1.391 . S
C1398 C1399 1.400 . S
C1399 C1398 1.400 . S
C1399 C1400 1.398 . S
C1399 C1405 1.491 . S
C1400 H1391 0.950 . S
C1400 C1399 1.398 . S
C1400 C1401 1.391 . S
C1401 H1389 0.950 . S
C1401 C1397 1.393 . S
C1401 C1400 1.391 . S
C1402 H1392 0.950 . S
C1402 C1403 1.386 . S
C1402 C1404 1.391 . S
C1403 C1402 1.386 . S
C1403 C1407 1.393 . S
C1404 H1393 0.950 . S
C1404 C1402 1.391 . S
C1404 C1405 1.400 . S
C1405 C1399 1.491 . S
C1405 C1404 1.400 . S
C1405 C1406 1.398 . S
C1406 H1394 0.950 . S
C1406 C1405 1.398 . S
C1406 C1407 1.391 . S
C1407 H1395 0.950 . S
C1407 C1403 1.393 . S
C1407 C1406 1.391 . S
H1408 C1416 0.950 . S
H1409 C1421 0.950 . S
H1410 C1418 0.950 . S
H1411 C1420 0.950 . S
H1412 C1422 0.950 . S
H1413 C1424 0.950 . S
H1414 C1426 0.950 . S
H1415 C1427 0.950 . S
C1416 H1408 0.950 . S
C1416 C1417 1.386 . S
C1416 C1418 1.391 . S
C1417 C1416 1.386 . S
C1417 C1421 1.393 1_545 S
C1418 H1410 0.950 . S
C1418 C1416 1.391 . S
C1418 C1419 1.400 . S
C1419 C1418 1.400 . S
C1419 C1420 1.398 1_545 S
C1419 C1425 1.491 . S
C1420 H1411 0.950 . S
C1420 C1419 1.398 1_565 S
C1420 C1421 1.391 . S
C1421 H1409 0.950 . S
C1421 C1417 1.393 1_565 S
C1421 C1420 1.391 . S
C1422 H1412 0.950 . S
C1422 C1423 1.386 1_565 S
C1422 C1424 1.391 . S
C1423 C1422 1.386 1_545 S
C1423 C1427 1.393 . S
C1424 H1413 0.950 . S
C1424 C1422 1.391 . S
C1424 C1425 1.400 1_565 S
C1425 C1419 1.491 . S
C1425 C1424 1.400 1_545 S
C1425 C1426 1.398 . S
C1426 H1414 0.950 . S
C1426 C1425 1.398 . S
C1426 C1427 1.391 . S
C1427 H1415 0.950 . S
C1427 C1423 1.393 . S
C1427 C1426 1.391 . S
H1428 C1436 0.950 . S
H1429 C1441 1.017 . S
H1430 C1438 0.950 . S
H1431 C1440 0.990 . S
H1432 C1442 0.950 . S
H1433 C1444 0.950 . S
H1434 C1446 0.950 . S
H1435 C1447 0.950 . S
C1436 H1428 0.950 . S
C1436 C1437 1.386 . S
C1436 C1438 1.391 . S
C1437 C1436 1.386 . S
C1437 C1441 1.357 1_565 S
C1438 H1430 0.950 . S
C1438 C1436 1.391 . S
C1438 C1439 1.400 . S
C1439 C1438 1.400 . S
C1439 C1440 1.334 1_565 S
C1439 C1445 1.491 . S
C1440 H1431 0.990 . S
C1440 C1439 1.334 1_545 S
C1440 C1441 1.391 . S
C1441 H1429 1.017 . S
C1441 C1437 1.357 1_545 S
C1441 C1440 1.391 . S
C1442 H1432 0.950 . S
C1442 C1443 1.386 1_545 S
C1442 C1444 1.391 . S
C1443 C1442 1.386 1_565 S
C1443 C1447 1.393 . S
C1444 H1433 0.950 . S
C1444 C1442 1.391 . S
C1444 C1445 1.400 1_545 S
C1445 C1439 1.491 . S
C1445 C1444 1.400 1_565 S
C1445 C1446 1.398 . S
C1446 H1434 0.950 . S
C1446 C1445 1.398 . S
C1446 C1447 1.391 . S
C1447 H1435 0.950 . S
C1447 C1443 1.393 . S
C1447 C1446 1.391 . S
H1448 C1456 0.950 . S
H1449 C1461 0.947 1_655 S
H1450 C1458 0.950 . S
H1451 C1460 0.932 1_655 S
H1452 C1462 0.950 . S
H1453 C1464 0.950 . S
H1454 C1466 0.950 . S
H1455 C1467 0.950 . S
C1456 H1448 0.950 . S
C1456 C1457 1.386 . S
C1456 C1458 1.391 . S
C1457 C1456 1.386 . S
C1457 C1461 1.441 . S
C1458 H1450 0.950 . S
C1458 C1456 1.391 . S
C1458 C1459 1.400 . S
C1459 C1458 1.400 . S
C1459 C1460 1.401 . S
C1459 C1465 1.491 . S
C1460 H1451 0.932 1_455 S
C1460 C1459 1.401 . S
C1460 C1461 1.371 . S
C1461 H1449 0.947 1_455 S
C1461 C1457 1.441 . S
C1461 C1460 1.371 . S
C1462 H1452 0.950 . S
C1462 C1463 1.386 1_655 S
C1462 C1464 1.391 . S
C1463 C1462 1.386 1_455 S
C1463 C1467 1.393 . S
C1464 H1453 0.950 . S
C1464 C1462 1.391 . S
C1464 C1465 1.400 1_655 S
C1465 C1459 1.491 . S
C1465 C1464 1.400 1_455 S
C1465 C1466 1.398 . S
C1466 H1454 0.950 . S
C1466 C1465 1.398 . S
C1466 C1467 1.391 . S
C1467 H1455 0.950 . S
C1467 C1463 1.393 . S
C1467 C1466 1.391 . S
H1468 C1476 0.950 . S
H1469 C1481 0.950 . S
H1470 C1478 0.950 . S
H1471 C1480 0.950 . S
H1472 C1482 0.950 . S
H1473 C1484 0.950 . S
H1474 C1486 0.950 . S
H1475 C1487 0.950 . S
C1476 H1468 0.950 . S
C1476 C1477 1.386 . S
C1476 C1478 1.391 . S
C1477 C1476 1.386 . S
C1477 C1481 1.393 . S
C1478 H1470 0.950 . S
C1478 C1476 1.391 . S
C1478 C1479 1.400 . S
C1479 C1478 1.400 . S
C1479 C1480 1.398 . S
C1479 C1485 1.491 . S
C1480 H1471 0.950 . S
C1480 C1479 1.398 . S
C1480 C1481 1.391 . S
C1481 H1469 0.950 . S
C1481 C1477 1.393 . S
C1481 C1480 1.391 . S
C1482 H1472 0.950 . S
C1482 C1483 1.386 . S
C1482 C1484 1.391 . S
C1483 C1482 1.386 . S
C1483 C1487 1.393 . S
C1484 H1473 0.950 . S
C1484 C1482 1.391 . S
C1484 C1485 1.400 . S
C1485 C1479 1.491 . S
C1485 C1484 1.400 . S
C1485 C1486 1.398 . S
C1486 H1474 0.950 . S
C1486 C1485 1.398 . S
C1486 C1487 1.391 . S
C1487 H1475 0.950 . S
C1487 C1483 1.393 . S
C1487 C1486 1.391 . S
H1488 C1496 0.950 . S
H1489 C1501 0.950 . S
H1490 C1498 0.950 . S
H1491 C1500 0.950 . S
H1492 C1502 0.950 . S
H1493 C1504 0.950 . S
H1494 C1506 0.950 . S
H1495 C1507 0.950 . S
C1496 H1488 0.950 . S
C1496 C1497 1.386 1_655 S
C1496 C1498 1.391 . S
C1497 C1496 1.386 1_455 S
C1497 C1501 1.393 . S
C1498 H1490 0.950 . S
C1498 C1496 1.391 . S
C1498 C1499 1.400 1_655 S
C1499 C1498 1.400 1_455 S
C1499 C1500 1.398 . S
C1499 C1505 1.491 . S
C1500 H1491 0.950 . S
C1500 C1499 1.398 . S
C1500 C1501 1.391 . S
C1501 H1489 0.950 . S
C1501 C1497 1.393 . S
C1501 C1500 1.391 . S
C1502 H1492 0.950 . S
C1502 C1503 1.386 . S
C1502 C1504 1.391 . S
C1503 C1502 1.386 . S
C1503 C1507 1.393 1_455 S
C1504 H1493 0.950 . S
C1504 C1502 1.391 . S
C1504 C1505 1.400 . S
C1505 C1499 1.491 . S
C1505 C1504 1.400 . S
C1505 C1506 1.398 1_455 S
C1506 H1494 0.950 . S
C1506 C1505 1.398 1_655 S
C1506 C1507 1.391 . S
C1507 H1495 0.950 . S
C1507 C1503 1.393 1_655 S
C1507 C1506 1.391 . S
H1508 C1516 0.950 . S
H1509 C1521 0.950 . S
H1510 C1518 0.950 . S
H1511 C1520 0.950 . S
H1512 C1522 0.950 . S
H1513 C1524 0.950 . S
H1514 C1526 0.950 . S
H1515 C1527 0.950 . S
C1516 H1508 0.950 . S
C1516 C1517 1.386 . S
C1516 C1518 1.391 . S
C1517 C1516 1.386 . S
C1517 C1521 1.393 . S
C1518 H1510 0.950 . S
C1518 C1516 1.391 . S
C1518 C1519 1.400 . S
C1519 C1518 1.400 . S
C1519 C1520 1.398 . S
C1519 C1525 1.491 . S
C1520 H1511 0.950 . S
C1520 C1519 1.398 . S
C1520 C1521 1.391 . S
C1521 H1509 0.950 . S
C1521 C1517 1.393 . S
C1521 C1520 1.391 . S
C1522 H1512 0.950 . S
C1522 C1523 1.386 . S
C1522 C1524 1.391 . S
C1523 C1522 1.386 . S
C1523 C1527 1.393 . S
C1524 H1513 0.950 . S
C1524 C1522 1.391 . S
C1524 C1525 1.400 . S
C1525 C1519 1.491 . S
C1525 C1524 1.400 . S
C1525 C1526 1.398 . S
C1526 H1514 0.950 . S
C1526 C1525 1.398 . S
C1526 C1527 1.391 . S
C1527 H1515 0.950 . S
C1527 C1523 1.393 . S
C1527 C1526 1.391 . S
H1528 C1536 0.950 . S
H1529 C1541 0.950 . S
H1530 C1538 0.950 . S
H1531 C1540 0.950 . S
H1532 C1542 0.950 . S
H1533 C1544 0.950 . S
H1534 C1546 0.950 . S
H1535 C1547 0.950 . S
C1536 H1528 0.950 . S
C1536 C1537 1.386 . S
C1536 C1538 1.391 . S
C1537 C1536 1.386 . S
C1537 C1541 1.393 1_565 S
C1538 H1530 0.950 . S
C1538 C1536 1.391 . S
C1538 C1539 1.400 . S
C1539 C1538 1.400 . S
C1539 C1540 1.398 1_565 S
C1539 C1545 1.491 . S
C1540 H1531 0.950 . S
C1540 C1539 1.398 1_545 S
C1540 C1541 1.391 . S
C1541 H1529 0.950 . S
C1541 C1537 1.393 1_545 S
C1541 C1540 1.391 . S
C1542 H1532 0.950 . S
C1542 C1543 1.386 1_545 S
C1542 C1544 1.391 . S
C1543 C1542 1.386 1_565 S
C1543 C1547 1.393 . S
C1544 H1533 0.950 . S
C1544 C1542 1.391 . S
C1544 C1545 1.400 1_545 S
C1545 C1539 1.491 . S
C1545 C1544 1.400 1_565 S
C1545 C1546 1.398 . S
C1546 H1534 0.950 . S
C1546 C1545 1.398 . S
C1546 C1547 1.391 . S
C1547 H1535 0.950 . S
C1547 C1543 1.393 . S
C1547 C1546 1.391 . S
H1548 C1556 0.950 . S
H1549 C1561 0.898 1_565 S
H1550 C1558 0.950 . S
H1551 C1560 0.950 1_565 S
H1552 C1562 0.950 1_565 S
H1553 C1564 0.950 1_565 S
H1554 C1566 0.950 . S
H1555 C1567 0.950 . S
C1556 H1548 0.950 . S
C1556 C1557 1.386 . S
C1556 C1558 1.391 . S
C1557 C1556 1.386 . S
C1557 C1561 1.393 . S
C1558 H1550 0.950 . S
C1558 C1556 1.391 . S
C1558 C1559 1.400 . S
C1559 C1558 1.400 . S
C1559 C1560 1.398 . S
C1559 C1565 1.491 . S
C1560 H1551 0.950 1_545 S
C1560 C1559 1.398 . S
C1560 C1561 1.391 . S
C1561 H1549 0.898 1_545 S
C1561 C1557 1.393 . S
C1561 C1560 1.391 . S
C1562 H1552 0.950 1_545 S
C1562 C1563 1.386 . S
C1562 C1564 1.391 . S
C1563 C1562 1.386 . S
C1563 C1567 1.393 . S
C1564 H1553 0.950 1_545 S
C1564 C1562 1.391 . S
C1564 C1565 1.400 . S
C1565 C1559 1.491 . S
C1565 C1564 1.400 . S
C1565 C1566 1.398 . S
C1566 H1554 0.950 . S
C1566 C1565 1.398 . S
C1566 C1567 1.391 . S
C1567 H1555 0.950 . S
C1567 C1563 1.393 . S
C1567 C1566 1.391 . S
H1568 C1576 0.923 1_455 S
H1569 C1581 0.950 . S
H1570 C1578 0.911 1_455 S
H1571 C1580 0.950 . S
H1572 C1582 0.950 . S
H1573 C1584 0.950 . S
H1574 C1586 0.975 . S
H1575 C1587 0.963 . S
C1576 H1568 0.923 1_655 S
C1576 C1577 1.386 . S
C1576 C1578 1.391 . S
C1577 C1576 1.386 . S
C1577 C1581 1.393 . S
C1578 H1570 0.911 1_655 S
C1578 C1576 1.391 . S
C1578 C1579 1.400 . S
C1579 C1578 1.400 . S
C1579 C1580 1.398 . S
C1579 C1585 1.491 . S
C1580 H1571 0.950 . S
C1580 C1579 1.398 . S
C1580 C1581 1.391 . S
C1581 H1569 0.950 . S
C1581 C1577 1.393 . S
C1581 C1580 1.391 . S
C1582 H1572 0.950 . S
C1582 C1583 1.386 . S
C1582 C1584 1.391 . S
C1583 C1582 1.386 . S
C1583 C1587 1.393 . S
C1584 H1573 0.950 . S
C1584 C1582 1.391 . S
C1584 C1585 1.400 . S
C1585 C1579 1.491 . S
C1585 C1584 1.400 . S
C1585 C1586 1.398 . S
C1586 H1574 0.975 . S
C1586 C1585 1.398 . S
C1586 C1587 1.391 . S
C1587 H1575 0.963 . S
C1587 C1583 1.393 . S
C1587 C1586 1.391 . S
H1588 C1596 0.950 . S
H1589 C1601 0.950 . S
H1590 C1598 0.950 . S
H1591 C1600 0.950 . S
H1592 C1602 0.950 . S
H1593 C1604 0.950 . S
H1594 C1606 0.950 . S
H1595 C1607 0.950 . S
C1596 H1588 0.950 . S
C1596 C1597 1.386 . S
C1596 C1598 1.391 . S
C1597 C1596 1.386 . S
C1597 C1601 1.393 . S
C1598 H1590 0.950 . S
C1598 C1596 1.391 . S
C1598 C1599 1.400 . S
C1599 C1598 1.400 . S
C1599 C1600 1.398 . S
C1599 C1605 1.491 . S
C1600 H1591 0.950 . S
C1600 C1599 1.398 . S
C1600 C1601 1.391 . S
C1601 H1589 0.950 . S
C1601 C1597 1.393 . S
C1601 C1600 1.391 . S
C1602 H1592 0.950 . S
C1602 C1603 1.386 . S
C1602 C1604 1.391 . S
C1603 C1602 1.386 . S
C1603 C1607 1.393 . S
C1604 H1593 0.950 . S
C1604 C1602 1.391 . S
C1604 C1605 1.400 . S
C1605 C1599 1.491 . S
C1605 C1604 1.400 . S
C1605 C1606 1.398 . S
C1606 H1594 0.950 . S
C1606 C1605 1.398 . S
C1606 C1607 1.391 . S
C1607 H1595 0.950 . S
C1607 C1603 1.393 . S
C1607 C1606 1.391 . S
H1608 C1616 0.950 . S
H1609 C1621 0.950 . S
H1610 C1618 0.950 . S
H1611 C1620 0.950 . S
H1612 C1622 0.950 . S
H1613 C1624 0.950 . S
H1614 C1626 0.950 . S
H1615 C1627 0.950 . S
C1616 H1608 0.950 . S
C1616 C1617 1.386 . S
C1616 C1618 1.391 . S
C1617 C1616 1.386 . S
C1617 C1621 1.393 . S
C1618 H1610 0.950 . S
C1618 C1616 1.391 . S
C1618 C1619 1.400 . S
C1619 C1618 1.400 . S
C1619 C1620 1.398 . S
C1619 C1625 1.491 . S
C1620 H1611 0.950 . S
C1620 C1619 1.398 . S
C1620 C1621 1.391 . S
C1621 H1609 0.950 . S
C1621 C1617 1.393 . S
C1621 C1620 1.391 . S
C1622 H1612 0.950 . S
C1622 C1623 1.386 . S
C1622 C1624 1.391 . S
C1623 C1622 1.386 . S
C1623 C1627 1.393 . S
C1624 H1613 0.950 . S
C1624 C1622 1.391 . S
C1624 C1625 1.400 . S
C1625 C1619 1.491 . S
C1625 C1624 1.400 . S
C1625 C1626 1.398 . S
C1626 H1614 0.950 . S
C1626 C1625 1.398 . S
C1626 C1627 1.391 . S
C1627 H1615 0.950 . S
C1627 C1623 1.393 . S
C1627 C1626 1.391 . S
H1628 C1636 0.950 . S
H1629 C1641 0.950 . S
H1630 C1638 0.950 . S
H1631 C1640 0.950 . S
H1632 C1642 0.950 . S
H1633 C1644 0.950 . S
H1634 C1646 0.950 . S
H1635 C1647 0.950 . S
C1636 H1628 0.950 . S
C1636 C1637 1.386 . S
C1636 C1638 1.391 . S
C1637 C1636 1.386 . S
C1637 C1641 1.393 . S
C1638 H1630 0.950 . S
C1638 C1636 1.391 . S
C1638 C1639 1.400 . S
C1639 C1638 1.400 . S
C1639 C1640 1.398 . S
C1639 C1645 1.491 . S
C1640 H1631 0.950 . S
C1640 C1639 1.398 . S
C1640 C1641 1.391 . S
C1641 H1629 0.950 . S
C1641 C1637 1.393 . S
C1641 C1640 1.391 . S
C1642 H1632 0.950 . S
C1642 C1643 1.386 . S
C1642 C1644 1.391 . S
C1643 C1642 1.386 . S
C1643 C1647 1.393 . S
C1644 H1633 0.950 . S
C1644 C1642 1.391 . S
C1644 C1645 1.400 . S
C1645 C1639 1.491 . S
C1645 C1644 1.400 . S
C1645 C1646 1.398 . S
C1646 H1634 0.950 . S
C1646 C1645 1.398 . S
C1646 C1647 1.391 . S
C1647 H1635 0.950 . S
C1647 C1643 1.393 . S
C1647 C1646 1.391 . S
H1648 C1656 0.950 . S
H1649 C1661 0.950 . S
H1650 C1658 0.950 . S
H1651 C1660 0.950 . S
H1652 C1662 0.950 . S
H1653 C1664 0.950 . S
H1654 C1666 0.950 . S
H1655 C1667 0.950 . S
C1656 H1648 0.950 . S
C1656 C1657 1.386 . S
C1656 C1658 1.391 . S
C1657 C1656 1.386 . S
C1657 C1661 1.393 . S
C1658 H1650 0.950 . S
C1658 C1656 1.391 . S
C1658 C1659 1.400 . S
C1659 C1658 1.400 . S
C1659 C1660 1.398 . S
C1659 C1665 1.491 . S
C1660 H1651 0.950 . S
C1660 C1659 1.398 . S
C1660 C1661 1.391 . S
C1661 H1649 0.950 . S
C1661 C1657 1.393 . S
C1661 C1660 1.391 . S
C1662 H1652 0.950 . S
C1662 C1663 1.386 . S
C1662 C1664 1.391 . S
C1663 C1662 1.386 . S
C1663 C1667 1.393 . S
C1664 H1653 0.950 . S
C1664 C1662 1.391 . S
C1664 C1665 1.400 . S
C1665 C1659 1.491 . S
C1665 C1664 1.400 . S
C1665 C1666 1.398 . S
C1666 H1654 0.950 . S
C1666 C1665 1.398 . S
C1666 C1667 1.391 . S
C1667 H1655 0.950 . S
C1667 C1663 1.393 . S
C1667 C1666 1.391 . S
H1668 C1676 0.950 . S
H1669 C1681 0.950 . S
H1670 C1678 0.950 . S
H1671 C1680 0.950 . S
H1672 C1682 0.950 . S
H1673 C1684 0.950 . S
H1674 C1686 0.950 . S
H1675 C1687 0.950 . S
C1676 H1668 0.950 . S
C1676 C1677 1.386 . S
C1676 C1678 1.391 . S
C1677 C1676 1.386 . S
C1677 C1681 1.393 . S
C1678 H1670 0.950 . S
C1678 C1676 1.391 . S
C1678 C1679 1.400 . S
C1679 C1678 1.400 . S
C1679 C1680 1.398 . S
C1679 C1685 1.491 . S
C1680 H1671 0.950 . S
C1680 C1679 1.398 . S
C1680 C1681 1.391 . S
C1681 H1669 0.950 . S
C1681 C1677 1.393 . S
C1681 C1680 1.391 . S
C1682 H1672 0.950 . S
C1682 C1683 1.386 . S
C1682 C1684 1.391 . S
C1683 C1682 1.386 . S
C1683 C1687 1.393 . S
C1684 H1673 0.950 . S
C1684 C1682 1.391 . S
C1684 C1685 1.400 . S
C1685 C1679 1.491 . S
C1685 C1684 1.400 . S
C1685 C1686 1.398 . S
C1686 H1674 0.950 . S
C1686 C1685 1.398 . S
C1686 C1687 1.391 . S
C1687 H1675 0.950 . S
C1687 C1683 1.393 . S
C1687 C1686 1.391 . S
H1688 C1696 0.950 . S
H1689 C1701 0.950 . S
H1690 C1698 0.950 . S
H1691 C1700 0.950 . S
H1692 C1702 0.950 . S
H1693 C1704 0.950 . S
H1694 C1706 0.950 . S
H1695 C1707 0.950 . S
C1696 H1688 0.950 . S
C1696 C1697 1.386 . S
C1696 C1698 1.391 . S
C1697 C1696 1.386 . S
C1697 C1701 1.393 . S
C1698 H1690 0.950 . S
C1698 C1696 1.391 . S
C1698 C1699 1.400 . S
C1699 C1698 1.400 . S
C1699 C1700 1.398 . S
C1699 C1705 1.491 . S
C1700 H1691 0.950 . S
C1700 C1699 1.398 . S
C1700 C1701 1.391 . S
C1701 H1689 0.950 . S
C1701 C1697 1.393 . S
C1701 C1700 1.391 . S
C1702 H1692 0.950 . S
C1702 C1703 1.386 . S
C1702 C1704 1.391 . S
C1703 C1702 1.386 . S
C1703 C1707 1.393 . S
C1704 H1693 0.950 . S
C1704 C1702 1.391 . S
C1704 C1705 1.400 . S
C1705 C1699 1.491 . S
C1705 C1704 1.400 . S
C1705 C1706 1.398 . S
C1706 H1694 0.950 . S
C1706 C1705 1.398 . S
C1706 C1707 1.391 . S
C1707 H1695 0.950 . S
C1707 C1703 1.393 . S
C1707 C1706 1.391 . S
H1708 C1716 0.950 . S
H1709 C1721 0.950 . S
H1710 C1718 0.950 . S
H1711 C1720 0.950 . S
H1712 C1722 0.950 . S
H1713 C1724 0.950 . S
H1714 C1726 0.950 . S
H1715 C1727 0.950 . S
C1716 H1708 0.950 . S
C1716 C1717 1.386 . S
C1716 C1718 1.391 . S
C1717 C1716 1.386 . S
C1717 C1721 1.393 . S
C1718 H1710 0.950 . S
C1718 C1716 1.391 . S
C1718 C1719 1.400 . S
C1719 C1718 1.400 . S
C1719 C1720 1.398 . S
C1719 C1725 1.491 . S
C1720 H1711 0.950 . S
C1720 C1719 1.398 . S
C1720 C1721 1.391 . S
C1721 H1709 0.950 . S
C1721 C1717 1.393 . S
C1721 C1720 1.391 . S
C1722 H1712 0.950 . S
C1722 C1723 1.386 . S
C1722 C1724 1.391 . S
C1723 C1722 1.386 . S
C1723 C1727 1.393 . S
C1724 H1713 0.950 . S
C1724 C1722 1.391 . S
C1724 C1725 1.400 . S
C1725 C1719 1.491 . S
C1725 C1724 1.400 . S
C1725 C1726 1.398 . S
C1726 H1714 0.950 . S
C1726 C1725 1.398 . S
C1726 C1727 1.391 . S
C1727 H1715 0.950 . S
C1727 C1723 1.393 . S
C1727 C1726 1.391 . S
H1728 C1736 0.950 . S
H1729 C1741 0.950 . S
H1730 C1738 0.950 . S
H1731 C1740 0.950 . S
H1732 C1742 0.950 . S
H1733 C1744 0.950 . S
H1734 C1746 0.950 . S
H1735 C1747 0.950 . S
C1736 H1728 0.950 . S
C1736 C1737 1.386 . S
C1736 C1738 1.391 . S
C1737 C1736 1.386 . S
C1737 C1741 1.393 . S
C1738 H1730 0.950 . S
C1738 C1736 1.391 . S
C1738 C1739 1.400 . S
C1739 C1738 1.400 . S
C1739 C1740 1.398 . S
C1739 C1745 1.491 . S
C1740 H1731 0.950 . S
C1740 C1739 1.398 . S
C1740 C1741 1.391 . S
C1741 H1729 0.950 . S
C1741 C1737 1.393 . S
C1741 C1740 1.391 . S
C1742 H1732 0.950 . S
C1742 C1743 1.386 . S
C1742 C1744 1.391 . S
C1743 C1742 1.386 . S
C1743 C1747 1.393 . S
C1744 H1733 0.950 . S
C1744 C1742 1.391 . S
C1744 C1745 1.400 . S
C1745 C1739 1.491 . S
C1745 C1744 1.400 . S
C1745 C1746 1.398 . S
C1746 H1734 0.950 . S
C1746 C1745 1.398 . S
C1746 C1747 1.391 . S
C1747 H1735 0.950 . S
C1747 C1743 1.393 . S
C1747 C1746 1.391 . S
H1748 C1756 0.950 . S
H1749 C1761 0.950 . S
H1750 C1758 0.950 . S
H1751 C1760 0.950 . S
H1752 C1762 0.950 . S
H1753 C1764 0.950 . S
H1754 C1766 0.950 . S
H1755 C1767 0.950 . S
C1756 H1748 0.950 . S
C1756 C1757 1.386 . S
C1756 C1758 1.391 . S
C1757 C1756 1.386 . S
C1757 C1761 1.393 . S
C1758 H1750 0.950 . S
C1758 C1756 1.391 . S
C1758 C1759 1.400 . S
C1759 C1758 1.400 . S
C1759 C1760 1.398 . S
C1759 C1765 1.491 . S
C1760 H1751 0.950 . S
C1760 C1759 1.398 . S
C1760 C1761 1.391 . S
C1761 H1749 0.950 . S
C1761 C1757 1.393 . S
C1761 C1760 1.391 . S
C1762 H1752 0.950 . S
C1762 C1763 1.386 . S
C1762 C1764 1.391 . S
C1763 C1762 1.386 . S
C1763 C1767 1.393 . S
C1764 H1753 0.950 . S
C1764 C1762 1.391 . S
C1764 C1765 1.400 . S
C1765 C1759 1.491 . S
C1765 C1764 1.400 . S
C1765 C1766 1.398 . S
C1766 H1754 0.950 . S
C1766 C1765 1.398 . S
C1766 C1767 1.391 . S
C1767 H1755 0.950 . S
C1767 C1763 1.393 . S
C1767 C1766 1.391 . S
H1768 C1776 0.950 . S
H1769 C1781 0.950 . S
H1770 C1778 0.950 . S
H1771 C1780 0.950 . S
H1772 C1782 0.950 . S
H1773 C1784 0.950 . S
H1774 C1786 0.950 . S
H1775 C1787 0.950 . S
C1776 H1768 0.950 . S
C1776 C1777 1.386 . S
C1776 C1778 1.391 . S
C1777 C1776 1.386 . S
C1777 C1781 1.393 . S
C1778 H1770 0.950 . S
C1778 C1776 1.391 . S
C1778 C1779 1.400 . S
C1779 C1778 1.400 . S
C1779 C1780 1.398 . S
C1779 C1785 1.491 . S
C1780 H1771 0.950 . S
C1780 C1779 1.398 . S
C1780 C1781 1.391 . S
C1781 H1769 0.950 . S
C1781 C1777 1.393 . S
C1781 C1780 1.391 . S
C1782 H1772 0.950 . S
C1782 C1783 1.386 . S
C1782 C1784 1.391 . S
C1783 C1782 1.386 . S
C1783 C1787 1.393 . S
C1784 H1773 0.950 . S
C1784 C1782 1.391 . S
C1784 C1785 1.400 . S
C1785 C1779 1.491 . S
C1785 C1784 1.400 . S
C1785 C1786 1.398 . S
C1786 H1774 0.950 . S
C1786 C1785 1.398 . S
C1786 C1787 1.391 . S
C1787 H1775 0.950 . S
C1787 C1783 1.393 . S
C1787 C1786 1.391 . S
H1788 C1796 0.950 . S
H1789 C1801 0.950 . S
H1790 C1798 0.950 . S
H1791 C1800 0.950 . S
H1792 C1802 0.950 . S
H1793 C1804 0.950 . S
H1794 C1806 0.950 . S
H1795 C1807 0.950 . S
C1796 H1788 0.950 . S
C1796 C1797 1.386 . S
C1796 C1798 1.391 . S
C1797 C1796 1.386 . S
C1797 C1801 1.393 . S
C1798 H1790 0.950 . S
C1798 C1796 1.391 . S
C1798 C1799 1.400 . S
C1799 C1798 1.400 . S
C1799 C1800 1.398 . S
C1799 C1805 1.491 . S
C1800 H1791 0.950 . S
C1800 C1799 1.398 . S
C1800 C1801 1.391 . S
C1801 H1789 0.950 . S
C1801 C1797 1.393 . S
C1801 C1800 1.391 . S
C1802 H1792 0.950 . S
C1802 C1803 1.386 . S
C1802 C1804 1.391 . S
C1803 C1802 1.386 . S
C1803 C1807 1.393 . S
C1804 H1793 0.950 . S
C1804 C1802 1.391 . S
C1804 C1805 1.400 . S
C1805 C1799 1.491 . S
C1805 C1804 1.400 . S
C1805 C1806 1.398 . S
C1806 H1794 0.950 . S
C1806 C1805 1.398 . S
C1806 C1807 1.391 . S
C1807 H1795 0.950 . S
C1807 C1803 1.393 . S
C1807 C1806 1.391 . S
H1808 C1816 0.950 . S
H1809 C1821 0.950 . S
H1810 C1818 0.950 . S
H1811 C1820 0.950 . S
H1812 C1822 0.950 . S
H1813 C1824 0.950 . S
H1814 C1826 0.950 . S
H1815 C1827 0.950 . S
C1816 H1808 0.950 . S
C1816 C1817 1.386 . S
C1816 C1818 1.391 . S
C1817 C1816 1.386 . S
C1817 C1821 1.393 . S
C1818 H1810 0.950 . S
C1818 C1816 1.391 . S
C1818 C1819 1.400 . S
C1819 C1818 1.400 . S
C1819 C1820 1.398 . S
C1819 C1825 1.491 . S
C1820 H1811 0.950 . S
C1820 C1819 1.398 . S
C1820 C1821 1.391 . S
C1821 H1809 0.950 . S
C1821 C1817 1.393 . S
C1821 C1820 1.391 . S
C1822 H1812 0.950 . S
C1822 C1823 1.386 . S
C1822 C1824 1.391 . S
C1823 C1822 1.386 . S
C1823 C1827 1.393 . S
C1824 H1813 0.950 . S
C1824 C1822 1.391 . S
C1824 C1825 1.400 . S
C1825 C1819 1.491 . S
C1825 C1824 1.400 . S
C1825 C1826 1.398 . S
C1826 H1814 0.950 . S
C1826 C1825 1.398 . S
C1826 C1827 1.391 . S
C1827 H1815 0.950 . S
C1827 C1823 1.393 . S
C1827 C1826 1.391 . S
H1828 C1836 0.950 . S
H1829 C1841 0.950 . S
H1830 C1838 0.950 . S
H1831 C1840 0.950 . S
H1832 C1842 0.950 . S
H1833 C1844 0.950 . S
H1834 C1846 0.950 . S
H1835 C1847 0.950 . S
C1836 H1828 0.950 . S
C1836 C1837 1.386 . S
C1836 C1838 1.391 . S
C1837 C1836 1.386 . S
C1837 C1841 1.393 . S
C1838 H1830 0.950 . S
C1838 C1836 1.391 . S
C1838 C1839 1.400 . S
C1839 C1838 1.400 . S
C1839 C1840 1.398 . S
C1839 C1845 1.491 . S
C1840 H1831 0.950 . S
C1840 C1839 1.398 . S
C1840 C1841 1.391 . S
C1841 H1829 0.950 . S
C1841 C1837 1.393 . S
C1841 C1840 1.391 . S
C1842 H1832 0.950 . S
C1842 C1843 1.386 . S
C1842 C1844 1.391 . S
C1843 C1842 1.386 . S
C1843 C1847 1.393 . S
C1844 H1833 0.950 . S
C1844 C1842 1.391 . S
C1844 C1845 1.400 . S
C1845 C1839 1.491 . S
C1845 C1844 1.400 . S
C1845 C1846 1.398 . S
C1846 H1834 0.950 . S
C1846 C1845 1.398 . S
C1846 C1847 1.391 . S
C1847 H1835 0.950 . S
C1847 C1843 1.393 . S
C1847 C1846 1.391 . S
H1848 C1856 0.950 . S
H1849 C1861 0.950 . S
H1850 C1858 0.950 . S
H1851 C1860 0.950 . S
H1852 C1862 0.950 . S
H1853 C1864 0.950 . S
H1854 C1866 0.950 . S
H1855 C1867 0.950 . S
C1856 H1848 0.950 . S
C1856 C1857 1.386 . S
C1856 C1858 1.391 . S
C1857 C1856 1.386 . S
C1857 C1861 1.393 . S
C1858 H1850 0.950 . S
C1858 C1856 1.391 . S
C1858 C1859 1.400 . S
C1859 C1858 1.400 . S
C1859 C1860 1.398 . S
C1859 C1865 1.491 . S
C1860 H1851 0.950 . S
C1860 C1859 1.398 . S
C1860 C1861 1.391 . S
C1861 H1849 0.950 . S
C1861 C1857 1.393 . S
C1861 C1860 1.391 . S
C1862 H1852 0.950 . S
C1862 C1863 1.386 . S
C1862 C1864 1.391 . S
C1863 C1862 1.386 . S
C1863 C1867 1.393 . S
C1864 H1853 0.950 . S
C1864 C1862 1.391 . S
C1864 C1865 1.400 . S
C1865 C1859 1.491 . S
C1865 C1864 1.400 . S
C1865 C1866 1.398 . S
C1866 H1854 0.950 . S
C1866 C1865 1.398 . S
C1866 C1867 1.391 . S
C1867 H1855 0.950 . S
C1867 C1863 1.393 . S
C1867 C1866 1.391 . S
H1868 C1876 0.950 . S
H1869 C1881 0.950 . S
H1870 C1878 0.950 . S
H1871 C1880 0.950 . S
H1872 C1882 0.950 . S
H1873 C1884 0.950 . S
H1874 C1886 0.950 . S
H1875 C1887 0.950 . S
C1876 H1868 0.950 . S
C1876 C1877 1.386 . S
C1876 C1878 1.391 . S
C1877 C1876 1.386 . S
C1877 C1881 1.393 . S
C1878 H1870 0.950 . S
C1878 C1876 1.391 . S
C1878 C1879 1.400 . S
C1879 C1878 1.400 . S
C1879 C1880 1.398 . S
C1879 C1885 1.491 . S
C1880 H1871 0.950 . S
C1880 C1879 1.398 . S
C1880 C1881 1.391 . S
C1881 H1869 0.950 . S
C1881 C1877 1.393 . S
C1881 C1880 1.391 . S
C1882 H1872 0.950 . S
C1882 C1883 1.386 . S
C1882 C1884 1.391 . S
C1883 C1882 1.386 . S
C1883 C1887 1.393 . S
C1884 H1873 0.950 . S
C1884 C1882 1.391 . S
C1884 C1885 1.400 . S
C1885 C1879 1.491 . S
C1885 C1884 1.400 . S
C1885 C1886 1.398 . S
C1886 H1874 0.950 . S
C1886 C1885 1.398 . S
C1886 C1887 1.391 . S
C1887 H1875 0.950 . S
C1887 C1883 1.393 . S
C1887 C1886 1.391 . S
H1888 C1896 0.950 . S
H1889 C1901 0.950 . S
H1890 C1898 0.950 . S
H1891 C1900 0.950 . S
H1892 C1902 0.950 . S
H1893 C1904 0.950 . S
H1894 C1906 0.950 . S
H1895 C1907 0.950 . S
C1896 H1888 0.950 . S
C1896 C1897 1.386 . S
C1896 C1898 1.391 . S
C1897 C1896 1.386 . S
C1897 C1901 1.393 . S
C1898 H1890 0.950 . S
C1898 C1896 1.391 . S
C1898 C1899 1.400 . S
C1899 C1898 1.400 . S
C1899 C1900 1.398 . S
C1899 C1905 1.491 . S
C1900 H1891 0.950 . S
C1900 C1899 1.398 . S
C1900 C1901 1.391 . S
C1901 H1889 0.950 . S
C1901 C1897 1.393 . S
C1901 C1900 1.391 . S
C1902 H1892 0.950 . S
C1902 C1903 1.386 . S
C1902 C1904 1.391 . S
C1903 C1902 1.386 . S
C1903 C1907 1.393 . S
C1904 H1893 0.950 . S
C1904 C1902 1.391 . S
C1904 C1905 1.400 . S
C1905 C1899 1.491 . S
C1905 C1904 1.400 . S
C1905 C1906 1.398 . S
C1906 H1894 0.950 . S
C1906 C1905 1.398 . S
C1906 C1907 1.391 . S
C1907 H1895 0.950 . S
C1907 C1903 1.393 . S
C1907 C1906 1.391 . S
H1908 C1916 0.950 . S
H1909 C1921 0.950 . S
H1910 C1918 0.950 . S
H1911 C1920 0.950 . S
H1912 C1922 0.950 . S
H1913 C1924 0.950 . S
H1914 C1926 0.950 . S
H1915 C1927 0.950 . S
C1916 H1908 0.950 . S
C1916 C1917 1.386 . S
C1916 C1918 1.391 . S
C1917 C1916 1.386 . S
C1917 C1921 1.393 . S
C1918 H1910 0.950 . S
C1918 C1916 1.391 . S
C1918 C1919 1.400 . S
C1919 C1918 1.400 . S
C1919 C1920 1.398 . S
C1919 C1925 1.491 . S
C1920 H1911 0.950 . S
C1920 C1919 1.398 . S
C1920 C1921 1.391 . S
C1921 H1909 0.950 . S
C1921 C1917 1.393 . S
C1921 C1920 1.391 . S
C1922 H1912 0.950 . S
C1922 C1923 1.386 . S
C1922 C1924 1.391 . S
C1923 C1922 1.386 . S
C1923 C1927 1.393 . S
C1924 H1913 0.950 . S
C1924 C1922 1.391 . S
C1924 C1925 1.400 . S
C1925 C1919 1.491 . S
C1925 C1924 1.400 . S
C1925 C1926 1.398 . S
C1926 H1914 0.950 . S
C1926 C1925 1.398 . S
C1926 C1927 1.391 . S
C1927 H1915 0.950 . S
C1927 C1923 1.393 . S
C1927 C1926 1.391 . S
H1928 C1936 0.950 . S
H1929 C1941 0.950 . S
H1930 C1938 0.950 . S
H1931 C1940 0.950 . S
H1932 C1942 0.950 . S
H1933 C1944 0.950 . S
H1934 C1946 0.950 . S
H1935 C1947 0.950 . S
C1936 H1928 0.950 . S
C1936 C1937 1.386 . S
C1936 C1938 1.391 . S
C1937 C1936 1.386 . S
C1937 C1941 1.393 . S
C1938 H1930 0.950 . S
C1938 C1936 1.391 . S
C1938 C1939 1.400 . S
C1939 C1938 1.400 . S
C1939 C1940 1.398 . S
C1939 C1945 1.491 . S
C1940 H1931 0.950 . S
C1940 C1939 1.398 . S
C1940 C1941 1.391 . S
C1941 H1929 0.950 . S
C1941 C1937 1.393 . S
C1941 C1940 1.391 . S
C1942 H1932 0.950 . S
C1942 C1943 1.386 . S
C1942 C1944 1.391 . S
C1943 C1942 1.386 . S
C1943 C1947 1.393 . S
C1944 H1933 0.950 . S
C1944 C1942 1.391 . S
C1944 C1945 1.400 . S
C1945 C1939 1.491 . S
C1945 C1944 1.400 . S
C1945 C1946 1.398 . S
C1946 H1934 0.950 . S
C1946 C1945 1.398 . S
C1946 C1947 1.391 . S
C1947 H1935 0.950 . S
C1947 C1943 1.393 . S
C1947 C1946 1.391 . S
H1948 C1956 0.950 . S
H1949 C1961 0.950 . S
H1950 C1958 0.950 . S
H1951 C1960 0.950 . S
H1952 C1962 0.950 . S
H1953 C1964 0.950 . S
H1954 C1966 0.950 . S
H1955 C1967 0.950 . S
C1956 H1948 0.950 . S
C1956 C1957 1.386 . S
C1956 C1958 1.391 . S
C1957 C1956 1.386 . S
C1957 C1961 1.393 . S
C1958 H1950 0.950 . S
C1958 C1956 1.391 . S
C1958 C1959 1.400 . S
C1959 C1958 1.400 . S
C1959 C1960 1.398 . S
C1959 C1965 1.491 . S
C1960 H1951 0.950 . S
C1960 C1959 1.398 . S
C1960 C1961 1.391 . S
C1961 H1949 0.950 . S
C1961 C1957 1.393 . S
C1961 C1960 1.391 . S
C1962 H1952 0.950 . S
C1962 C1963 1.386 . S
C1962 C1964 1.391 . S
C1963 C1962 1.386 . S
C1963 C1967 1.393 . S
C1964 H1953 0.950 . S
C1964 C1962 1.391 . S
C1964 C1965 1.400 . S
C1965 C1959 1.491 . S
C1965 C1964 1.400 . S
C1965 C1966 1.398 . S
C1966 H1954 0.950 . S
C1966 C1965 1.398 . S
C1966 C1967 1.391 . S
C1967 H1955 0.950 . S
C1967 C1963 1.393 . S
C1967 C1966 1.391 . S
H1968 C1976 0.950 . S
H1969 C1981 0.950 . S
H1970 C1978 0.950 . S
H1971 C1980 0.950 . S
H1972 C1982 0.950 . S
H1973 C1984 0.950 . S
H1974 C1986 0.950 . S
H1975 C1987 0.950 . S
C1976 H1968 0.950 . S
C1976 C1977 1.386 . S
C1976 C1978 1.391 . S
C1977 C1976 1.386 . S
C1977 C1981 1.393 . S
C1978 H1970 0.950 . S
C1978 C1976 1.391 . S
C1978 C1979 1.400 . S
C1979 C1978 1.400 . S
C1979 C1980 1.398 . S
C1979 C1985 1.491 . S
C1980 H1971 0.950 . S
C1980 C1979 1.398 . S
C1980 C1981 1.391 . S
C1981 H1969 0.950 . S
C1981 C1977 1.393 . S
C1981 C1980 1.391 . S
C1982 H1972 0.950 . S
C1982 C1983 1.386 . S
C1982 C1984 1.391 . S
C1983 C1982 1.386 . S
C1983 C1987 1.393 . S
C1984 H1973 0.950 . S
C1984 C1982 1.391 . S
C1984 C1985 1.400 . S
C1985 C1979 1.491 . S
C1985 C1984 1.400 . S
C1985 C1986 1.398 . S
C1986 H1974 0.950 . S
C1986 C1985 1.398 . S
C1986 C1987 1.391 . S
C1987 H1975 0.950 . S
C1987 C1983 1.393 . S
C1987 C1986 1.391 . S
H1988 C1996 0.950 . S
H1989 C2001 0.950 . S
H1990 C1998 0.950 . S
H1991 C2000 0.950 . S
H1992 C2002 0.950 . S
H1993 C2004 0.950 . S
H1994 C2006 0.950 . S
H1995 C2007 0.950 . S
C1996 H1988 0.950 . S
C1996 C1997 1.386 . S
C1996 C1998 1.391 . S
C1997 C1996 1.386 . S
C1997 C2001 1.393 . S
C1998 H1990 0.950 . S
C1998 C1996 1.391 . S
C1998 C1999 1.400 . S
C1999 C1998 1.400 . S
C1999 C2000 1.398 . S
C1999 C2005 1.491 . S
C2000 H1991 0.950 . S
C2000 C1999 1.398 . S
C2000 C2001 1.391 . S
C2001 H1989 0.950 . S
C2001 C1997 1.393 . S
C2001 C2000 1.391 . S
C2002 H1992 0.950 . S
C2002 C2003 1.386 . S
C2002 C2004 1.391 . S
C2003 C2002 1.386 . S
C2003 C2007 1.393 . S
C2004 H1993 0.950 . S
C2004 C2002 1.391 . S
C2004 C2005 1.400 . S
C2005 C1999 1.491 . S
C2005 C2004 1.400 . S
C2005 C2006 1.398 . S
C2006 H1994 0.950 . S
C2006 C2005 1.398 . S
C2006 C2007 1.391 . S
C2007 H1995 0.950 . S
C2007 C2003 1.393 . S
C2007 C2006 1.391 . S
H2008 C2016 0.950 . S
H2009 C2021 0.950 . S
H2010 C2018 0.950 . S
H2011 C2020 0.950 . S
H2012 C2022 0.950 . S
H2013 C2024 0.950 . S
H2014 C2026 0.950 . S
H2015 C2027 0.950 . S
C2016 H2008 0.950 . S
C2016 C2017 1.386 . S
C2016 C2018 1.391 . S
C2017 C2016 1.386 . S
C2017 C2021 1.393 . S
C2018 H2010 0.950 . S
C2018 C2016 1.391 . S
C2018 C2019 1.400 . S
C2019 C2018 1.400 . S
C2019 C2020 1.398 . S
C2019 C2025 1.491 . S
C2020 H2011 0.950 . S
C2020 C2019 1.398 . S
C2020 C2021 1.391 . S
C2021 H2009 0.950 . S
C2021 C2017 1.393 . S
C2021 C2020 1.391 . S
C2022 H2012 0.950 . S
C2022 C2023 1.386 . S
C2022 C2024 1.391 . S
C2023 C2022 1.386 . S
C2023 C2027 1.393 . S
C2024 H2013 0.950 . S
C2024 C2022 1.391 . S
C2024 C2025 1.400 . S
C2025 C2019 1.491 . S
C2025 C2024 1.400 . S
C2025 C2026 1.398 . S
C2026 H2014 0.950 . S
C2026 C2025 1.398 . S
C2026 C2027 1.391 . S
C2027 H2015 0.950 . S
C2027 C2023 1.393 . S
C2027 C2026 1.391 . S
H2028 C2036 0.950 . S
H2029 C2041 0.950 . S
H2030 C2038 0.950 . S
H2031 C2040 0.950 . S
H2032 C2042 0.950 . S
H2033 C2044 0.950 . S
H2034 C2046 0.950 . S
H2035 C2047 0.950 . S
C2036 H2028 0.950 . S
C2036 C2037 1.386 . S
C2036 C2038 1.391 . S
C2037 C2036 1.386 . S
C2037 C2041 1.393 . S
C2038 H2030 0.950 . S
C2038 C2036 1.391 . S
C2038 C2039 1.400 . S
C2039 C2038 1.400 . S
C2039 C2040 1.398 . S
C2039 C2045 1.491 . S
C2040 H2031 0.950 . S
C2040 C2039 1.398 . S
C2040 C2041 1.391 . S
C2041 H2029 0.950 . S
C2041 C2037 1.393 . S
C2041 C2040 1.391 . S
C2042 H2032 0.950 . S
C2042 C2043 1.386 . S
C2042 C2044 1.391 . S
C2043 C2042 1.386 . S
C2043 C2047 1.393 . S
C2044 H2033 0.950 . S
C2044 C2042 1.391 . S
C2044 C2045 1.400 . S
C2045 C2039 1.491 . S
C2045 C2044 1.400 . S
C2045 C2046 1.398 . S
C2046 H2034 0.950 . S
C2046 C2045 1.398 . S
C2046 C2047 1.391 . S
C2047 H2035 0.950 . S
C2047 C2043 1.393 . S
C2047 C2046 1.391 . S
H2048 C2056 0.950 . S
H2049 C2061 0.950 . S
H2050 C2058 0.950 . S
H2051 C2060 0.950 . S
H2052 C2062 0.950 . S
H2053 C2064 0.950 . S
H2054 C2066 0.950 . S
H2055 C2067 0.950 . S
C2056 H2048 0.950 . S
C2056 C2057 1.386 . S
C2056 C2058 1.391 . S
C2057 C2056 1.386 . S
C2057 C2061 1.393 . S
C2058 H2050 0.950 . S
C2058 C2056 1.391 . S
C2058 C2059 1.400 . S
C2059 C2058 1.400 . S
C2059 C2060 1.398 . S
C2059 C2065 1.491 . S
C2060 H2051 0.950 . S
C2060 C2059 1.398 . S
C2060 C2061 1.391 . S
C2061 H2049 0.950 . S
C2061 C2057 1.393 . S
C2061 C2060 1.391 . S
C2062 H2052 0.950 . S
C2062 C2063 1.386 . S
C2062 C2064 1.391 . S
C2063 C2062 1.386 . S
C2063 C2067 1.393 . S
C2064 H2053 0.950 . S
C2064 C2062 1.391 . S
C2064 C2065 1.400 . S
C2065 C2059 1.491 . S
C2065 C2064 1.400 . S
C2065 C2066 1.398 . S
C2066 H2054 0.950 . S
C2066 C2065 1.398 . S
C2066 C2067 1.391 . S
C2067 H2055 0.950 . S
C2067 C2063 1.393 . S
C2067 C2066 1.391 . S
H2068 C2076 0.950 . S
H2069 C2081 0.950 . S
H2070 C2078 0.950 . S
H2071 C2080 0.950 . S
H2072 C2082 0.950 . S
H2073 C2084 0.950 . S
H2074 C2086 0.950 . S
H2075 C2087 0.950 . S
C2076 H2068 0.950 . S
C2076 C2077 1.386 . S
C2076 C2078 1.391 . S
C2077 C2076 1.386 . S
C2077 C2081 1.393 . S
C2078 H2070 0.950 . S
C2078 C2076 1.391 . S
C2078 C2079 1.400 . S
C2079 C2078 1.400 . S
C2079 C2080 1.398 . S
C2079 C2085 1.491 . S
C2080 H2071 0.950 . S
C2080 C2079 1.398 . S
C2080 C2081 1.391 . S
C2081 H2069 0.950 . S
C2081 C2077 1.393 . S
C2081 C2080 1.391 . S
C2082 H2072 0.950 . S
C2082 C2083 1.386 . S
C2082 C2084 1.391 . S
C2083 C2082 1.386 . S
C2083 C2087 1.393 . S
C2084 H2073 0.950 . S
C2084 C2082 1.391 . S
C2084 C2085 1.400 . S
C2085 C2079 1.491 . S
C2085 C2084 1.400 . S
C2085 C2086 1.398 . S
C2086 H2074 0.950 . S
C2086 C2085 1.398 . S
C2086 C2087 1.391 . S
C2087 H2075 0.950 . S
C2087 C2083 1.393 . S
C2087 C2086 1.391 . S
H2088 C2096 0.950 . S
H2089 C2101 0.950 . S
H2090 C2098 0.950 . S
H2091 C2100 0.950 . S
H2092 C2102 0.950 . S
H2093 C2104 0.950 . S
H2094 C2106 0.950 . S
H2095 C2107 0.950 . S
C2096 H2088 0.950 . S
C2096 C2097 1.386 . S
C2096 C2098 1.391 . S
C2097 C2096 1.386 . S
C2097 C2101 1.393 . S
C2098 H2090 0.950 . S
C2098 C2096 1.391 . S
C2098 C2099 1.400 . S
C2099 C2098 1.400 . S
C2099 C2100 1.398 . S
C2099 C2105 1.491 . S
C2100 H2091 0.950 . S
C2100 C2099 1.398 . S
C2100 C2101 1.391 . S
C2101 H2089 0.950 . S
C2101 C2097 1.393 . S
C2101 C2100 1.391 . S
C2102 H2092 0.950 . S
C2102 C2103 1.386 . S
C2102 C2104 1.391 . S
C2103 C2102 1.386 . S
C2103 C2107 1.393 . S
C2104 H2093 0.950 . S
C2104 C2102 1.391 . S
C2104 C2105 1.400 . S
C2105 C2099 1.491 . S
C2105 C2104 1.400 . S
C2105 C2106 1.398 . S
C2106 H2094 0.950 . S
C2106 C2105 1.398 . S
C2106 C2107 1.391 . S
C2107 H2095 0.950 . S
C2107 C2103 1.393 . S
C2107 C2106 1.391 . S
H2108 C2116 0.950 . S
H2109 C2121 0.970 . S
H2110 C2118 0.950 . S
H2111 C2120 0.950 . S
H2112 C2122 0.950 . S
H2113 C2124 0.950 . S
H2114 C2126 0.950 . S
H2115 C2127 0.950 . S
C2116 H2108 0.950 . S
C2116 C2117 1.386 . S
C2116 C2118 1.391 . S
C2117 C2116 1.386 . S
C2117 C2121 1.393 . S
C2118 H2110 0.950 . S
C2118 C2116 1.391 . S
C2118 C2119 1.400 . S
C2119 C2118 1.400 . S
C2119 C2120 1.398 . S
C2119 C2125 1.491 . S
C2120 H2111 0.950 . S
C2120 C2119 1.398 . S
C2120 C2121 1.391 . S
C2121 H2109 0.970 . S
C2121 C2117 1.393 . S
C2121 C2120 1.391 . S
C2122 H2112 0.950 . S
C2122 C2123 1.386 . S
C2122 C2124 1.391 . S
C2123 C2122 1.386 . S
C2123 C2127 1.393 . S
C2124 H2113 0.950 . S
C2124 C2122 1.391 . S
C2124 C2125 1.400 . S
C2125 C2119 1.491 . S
C2125 C2124 1.400 . S
C2125 C2126 1.398 . S
C2126 H2114 0.950 . S
C2126 C2125 1.398 . S
C2126 C2127 1.391 . S
C2127 H2115 0.950 . S
C2127 C2123 1.393 . S
C2127 C2126 1.391 . S
H2128 C2136 0.950 . S
H2129 C2141 0.950 . S
H2130 C2138 0.950 . S
H2131 C2140 0.950 . S
H2132 C2142 0.950 . S
H2133 C2144 0.950 . S
H2134 C2146 0.950 . S
H2135 C2147 0.950 . S
C2136 H2128 0.950 . S
C2136 C2137 1.386 . S
C2136 C2138 1.391 . S
C2137 C2136 1.386 . S
C2137 C2141 1.393 . S
C2138 H2130 0.950 . S
C2138 C2136 1.391 . S
C2138 C2139 1.400 . S
C2139 C2138 1.400 . S
C2139 C2140 1.398 . S
C2139 C2145 1.491 . S
C2140 H2131 0.950 . S
C2140 C2139 1.398 . S
C2140 C2141 1.391 . S
C2141 H2129 0.950 . S
C2141 C2137 1.393 . S
C2141 C2140 1.391 . S
C2142 H2132 0.950 . S
C2142 C2143 1.386 . S
C2142 C2144 1.391 . S
C2143 C2142 1.386 . S
C2143 C2147 1.393 . S
C2144 H2133 0.950 . S
C2144 C2142 1.391 . S
C2144 C2145 1.400 . S
C2145 C2139 1.491 . S
C2145 C2144 1.400 . S
C2145 C2146 1.398 . S
C2146 H2134 0.950 . S
C2146 C2145 1.398 . S
C2146 C2147 1.391 . S
C2147 H2135 0.950 . S
C2147 C2143 1.393 . S
C2147 C2146 1.391 . S
H2148 C2156 0.950 . S
H2149 C2161 0.950 1_554 S
H2150 C2158 0.950 . S
H2151 C2160 0.950 . S
H2152 C2162 0.950 . S
H2153 C2164 0.950 . S
H2154 C2166 0.950 . S
H2155 C2167 0.950 . S
C2156 H2148 0.950 . S
C2156 C2157 1.386 . S
C2156 C2158 1.391 . S
C2157 C2156 1.386 . S
C2157 C2161 1.393 . S
C2158 H2150 0.950 . S
C2158 C2156 1.391 . S
C2158 C2159 1.400 . S
C2159 C2158 1.400 . S
C2159 C2160 1.398 . S
C2159 C2165 1.491 . S
C2160 H2151 0.950 . S
C2160 C2159 1.398 . S
C2160 C2161 1.391 . S
C2161 H2149 0.950 1_556 S
C2161 C2157 1.393 . S
C2161 C2160 1.391 . S
C2162 H2152 0.950 . S
C2162 C2163 1.386 . S
C2162 C2164 1.391 . S
C2163 C2162 1.386 . S
C2163 C2167 1.393 . S
C2164 H2153 0.950 . S
C2164 C2162 1.391 . S
C2164 C2165 1.400 . S
C2165 C2159 1.491 . S
C2165 C2164 1.400 . S
C2165 C2166 1.398 . S
C2166 H2154 0.950 . S
C2166 C2165 1.398 . S
C2166 C2167 1.391 . S
C2167 H2155 0.950 . S
C2167 C2163 1.393 . S
C2167 C2166 1.391 . S
H2168 C2176 0.950 . S
H2169 C2181 0.950 . S
H2170 C2178 0.950 . S
H2171 C2180 0.950 . S
H2172 C2182 0.950 . S
H2173 C2184 0.950 1_554 S
H2174 C2186 0.950 . S
H2175 C2187 0.950 . S
C2176 H2168 0.950 . S
C2176 C2177 1.386 . S
C2176 C2178 1.391 . S
C2177 C2176 1.386 . S
C2177 C2181 1.393 1_556 S
C2178 H2170 0.950 . S
C2178 C2176 1.391 . S
C2178 C2179 1.400 . S
C2179 C2178 1.400 . S
C2179 C2180 1.398 1_556 S
C2179 C2185 1.491 . S
C2180 H2171 0.950 . S
C2180 C2179 1.398 1_554 S
C2180 C2181 1.391 . S
C2181 H2169 0.950 . S
C2181 C2177 1.393 1_554 S
C2181 C2180 1.391 . S
C2182 H2172 0.950 . S
C2182 C2183 1.386 . S
C2182 C2184 1.391 . S
C2183 C2182 1.386 . S
C2183 C2187 1.393 . S
C2184 H2173 0.950 1_556 S
C2184 C2182 1.391 . S
C2184 C2185 1.400 . S
C2185 C2179 1.491 . S
C2185 C2184 1.400 . S
C2185 C2186 1.398 . S
C2186 H2174 0.950 . S
C2186 C2185 1.398 . S
C2186 C2187 1.391 . S
C2187 H2175 0.950 . S
C2187 C2183 1.393 . S
C2187 C2186 1.391 . S
H2188 C2196 0.950 1_554 S
H2189 C2201 0.950 . S
H2190 C2198 0.950 . S
H2191 C2200 0.950 . S
H2192 C2202 0.950 . S
H2193 C2204 0.950 . S
H2194 C2206 0.950 . S
H2195 C2207 0.950 . S
C2196 H2188 0.950 1_556 S
C2196 C2197 1.386 . S
C2196 C2198 1.391 . S
C2197 C2196 1.386 . S
C2197 C2201 1.393 . S
C2198 H2190 0.950 . S
C2198 C2196 1.391 . S
C2198 C2199 1.400 . S
C2199 C2198 1.400 . S
C2199 C2200 1.398 . S
C2199 C2205 1.491 . S
C2200 H2191 0.950 . S
C2200 C2199 1.398 . S
C2200 C2201 1.391 . S
C2201 H2189 0.950 . S
C2201 C2197 1.393 . S
C2201 C2200 1.391 . S
C2202 H2192 0.950 . S
C2202 C2203 1.386 . S
C2202 C2204 1.391 . S
C2203 C2202 1.386 . S
C2203 C2207 1.393 . S
C2204 H2193 0.950 . S
C2204 C2202 1.391 . S
C2204 C2205 1.400 . S
C2205 C2199 1.491 . S
C2205 C2204 1.400 . S
C2205 C2206 1.398 . S
C2206 H2194 0.950 . S
C2206 C2205 1.398 . S
C2206 C2207 1.391 . S
C2207 H2195 0.950 . S
C2207 C2203 1.393 . S
C2207 C2206 1.391 . S
H2208 C2216 0.950 . S
H2209 C2221 0.950 . S
H2210 C2218 0.950 . S
H2211 C2220 0.950 . S
H2212 C2222 0.950 . S
H2213 C2224 0.950 1_554 S
H2214 C2226 0.950 . S
H2215 C2227 0.950 . S
C2216 H2208 0.950 . S
C2216 C2217 1.386 . S
C2216 C2218 1.391 . S
C2217 C2216 1.386 . S
C2217 C2221 1.393 1_556 S
C2218 H2210 0.950 . S
C2218 C2216 1.391 . S
C2218 C2219 1.400 . S
C2219 C2218 1.400 . S
C2219 C2220 1.398 1_556 S
C2219 C2225 1.491 . S
C2220 H2211 0.950 . S
C2220 C2219 1.398 1_554 S
C2220 C2221 1.391 . S
C2221 H2209 0.950 . S
C2221 C2217 1.393 1_554 S
C2221 C2220 1.391 . S
C2222 H2212 0.950 . S
C2222 C2223 1.386 . S
C2222 C2224 1.391 . S
C2223 C2222 1.386 . S
C2223 C2227 1.393 . S
C2224 H2213 0.950 1_556 S
C2224 C2222 1.391 . S
C2224 C2225 1.400 . S
C2225 C2219 1.491 . S
C2225 C2224 1.400 . S
C2225 C2226 1.398 . S
C2226 H2214 0.950 . S
C2226 C2225 1.398 . S
C2226 C2227 1.391 . S
C2227 H2215 0.950 . S
C2227 C2223 1.393 . S
C2227 C2226 1.391 . S
H2228 C2236 0.950 . S
H2229 C2241 0.951 1_554 S
H2230 C2238 0.950 . S
H2231 C2240 0.950 . S
H2232 C2242 0.950 . S
H2233 C2244 0.950 . S
H2234 C2246 0.950 . S
H2235 C2247 0.950 . S
C2236 H2228 0.950 . S
C2236 C2237 1.386 . S
C2236 C2238 1.391 . S
C2237 C2236 1.386 . S
C2237 C2241 1.393 . S
C2238 H2230 0.950 . S
C2238 C2236 1.391 . S
C2238 C2239 1.400 . S
C2239 C2238 1.400 . S
C2239 C2240 1.398 . S
C2239 C2245 1.491 . S
C2240 H2231 0.950 . S
C2240 C2239 1.398 . S
C2240 C2241 1.391 . S
C2241 H2229 0.951 1_556 S
C2241 C2237 1.393 . S
C2241 C2240 1.391 . S
C2242 H2232 0.950 . S
C2242 C2243 1.386 . S
C2242 C2244 1.391 . S
C2243 C2242 1.386 . S
C2243 C2247 1.393 . S
C2244 H2233 0.950 . S
C2244 C2242 1.391 . S
C2244 C2245 1.400 . S
C2245 C2239 1.491 . S
C2245 C2244 1.400 . S
C2245 C2246 1.398 . S
C2246 H2234 0.950 . S
C2246 C2245 1.398 . S
C2246 C2247 1.391 . S
C2247 H2235 0.950 . S
C2247 C2243 1.393 . S
C2247 C2246 1.391 . S
H2248 C2256 0.950 . S
H2249 C2261 0.950 . S
H2250 C2258 0.950 . S
H2251 C2260 0.950 . S
H2252 C2262 0.950 . S
H2253 C2264 0.950 1_554 S
H2254 C2266 0.950 . S
H2255 C2267 0.950 . S
C2256 H2248 0.950 . S
C2256 C2257 1.383 . S
C2256 C2258 1.391 . S
C2257 C2256 1.383 . S
C2257 C2261 1.394 1_556 S
C2258 H2250 0.950 . S
C2258 C2256 1.391 . S
C2258 C2259 1.400 . S
C2259 C2258 1.400 . S
C2259 C2260 1.398 1_556 S
C2259 C2265 1.491 . S
C2260 H2251 0.950 . S
C2260 C2259 1.398 1_554 S
C2260 C2261 1.391 . S
C2261 H2249 0.950 . S
C2261 C2257 1.394 1_554 S
C2261 C2260 1.391 . S
C2262 H2252 0.950 . S
C2262 C2263 1.386 . S
C2262 C2264 1.391 . S
C2263 C2262 1.386 . S
C2263 C2267 1.393 . S
C2264 H2253 0.950 1_556 S
C2264 C2262 1.391 . S
C2264 C2265 1.400 . S
C2265 C2259 1.491 . S
C2265 C2264 1.400 . S
C2265 C2266 1.398 . S
C2266 H2254 0.950 . S
C2266 C2265 1.398 . S
C2266 C2267 1.391 . S
C2267 H2255 0.950 . S
C2267 C2263 1.393 . S
C2267 C2266 1.391 . S
H2268 C2276 0.950 . S
H2269 C2281 0.950 . S
H2270 C2278 0.950 . S
H2271 C2280 0.950 . S
H2272 C2282 0.950 . S
H2273 C2284 0.950 . S
H2274 C2286 0.950 . S
H2275 C2287 0.950 . S
C2276 H2268 0.950 . S
C2276 C2277 1.386 . S
C2276 C2278 1.391 . S
C2277 C2276 1.386 . S
C2277 C2281 1.393 . S
C2278 H2270 0.950 . S
C2278 C2276 1.391 . S
C2278 C2279 1.400 . S
C2279 C2278 1.400 . S
C2279 C2280 1.398 . S
C2279 C2285 1.491 . S
C2280 H2271 0.950 . S
C2280 C2279 1.398 . S
C2280 C2281 1.391 . S
C2281 H2269 0.950 . S
C2281 C2277 1.393 . S
C2281 C2280 1.391 . S
C2282 H2272 0.950 . S
C2282 C2283 1.386 . S
C2282 C2284 1.391 . S
C2283 C2282 1.386 . S
C2283 C2287 1.393 . S
C2284 H2273 0.950 . S
C2284 C2282 1.391 . S
C2284 C2285 1.400 . S
C2285 C2279 1.491 . S
C2285 C2284 1.400 . S
C2285 C2286 1.398 . S
C2286 H2274 0.950 . S
C2286 C2285 1.398 . S
C2286 C2287 1.391 . S
C2287 H2275 0.950 . S
C2287 C2283 1.393 . S
C2287 C2286 1.391 . S
H2288 C2296 0.950 . S
H2289 C2301 0.950 . S
H2290 C2298 0.950 . S
H2291 C2300 0.950 . S
H2292 C2302 0.950 . S
H2293 C2304 0.950 . S
H2294 C2306 0.950 . S
H2295 C2307 0.950 . S
C2296 H2288 0.950 . S
C2296 C2297 1.386 . S
C2296 C2298 1.391 . S
C2297 C2296 1.386 . S
C2297 C2301 1.393 . S
C2298 H2290 0.950 . S
C2298 C2296 1.391 . S
C2298 C2299 1.400 . S
C2299 C2298 1.400 . S
C2299 C2300 1.398 . S
C2299 C2305 1.491 . S
C2300 H2291 0.950 . S
C2300 C2299 1.398 . S
C2300 C2301 1.391 . S
C2301 H2289 0.950 . S
C2301 C2297 1.393 . S
C2301 C2300 1.391 . S
C2302 H2292 0.950 . S
C2302 C2303 1.386 . S
C2302 C2304 1.391 . S
C2303 C2302 1.386 . S
C2303 C2307 1.393 . S
C2304 H2293 0.950 . S
C2304 C2302 1.391 . S
C2304 C2305 1.400 . S
C2305 C2299 1.491 . S
C2305 C2304 1.400 . S
C2305 C2306 1.398 . S
C2306 H2294 0.950 . S
C2306 C2305 1.398 . S
C2306 C2307 1.391 . S
C2307 H2295 0.950 . S
C2307 C2303 1.393 . S
C2307 C2306 1.391 . S
H2308 C2316 0.950 . S
H2309 C2321 0.950 . S
H2310 C2318 0.950 . S
H2311 C2320 0.950 . S
H2312 C2322 0.950 . S
H2313 C2324 0.950 . S
H2314 C2326 0.950 . S
H2315 C2327 0.950 . S
C2316 H2308 0.950 . S
C2316 C2317 1.386 . S
C2316 C2318 1.391 . S
C2317 C2316 1.386 . S
C2317 C2321 1.393 . S
C2318 H2310 0.950 . S
C2318 C2316 1.391 . S
C2318 C2319 1.400 . S
C2319 C2318 1.400 . S
C2319 C2320 1.398 . S
C2319 C2325 1.491 . S
C2320 H2311 0.950 . S
C2320 C2319 1.398 . S
C2320 C2321 1.391 . S
C2321 H2309 0.950 . S
C2321 C2317 1.393 . S
C2321 C2320 1.391 . S
C2322 H2312 0.950 . S
C2322 C2323 1.386 . S
C2322 C2324 1.391 . S
C2323 C2322 1.386 . S
C2323 C2327 1.393 . S
C2324 H2313 0.950 . S
C2324 C2322 1.391 . S
C2324 C2325 1.400 . S
C2325 C2319 1.491 . S
C2325 C2324 1.400 . S
C2325 C2326 1.398 . S
C2326 H2314 0.950 . S
C2326 C2325 1.398 . S
C2326 C2327 1.391 . S
C2327 H2315 0.950 . S
C2327 C2323 1.393 . S
C2327 C2326 1.391 . S
H2328 C2336 0.950 . S
H2329 C2341 0.950 . S
H2330 C2338 0.950 . S
H2331 C2340 0.950 . S
H2332 C2342 0.950 . S
H2333 C2344 0.950 . S
H2334 C2346 0.950 . S
H2335 C2347 0.950 . S
C2336 H2328 0.950 . S
C2336 C2337 1.386 . S
C2336 C2338 1.391 . S
C2337 C2336 1.386 . S
C2337 C2341 1.393 . S
C2338 H2330 0.950 . S
C2338 C2336 1.391 . S
C2338 C2339 1.400 . S
C2339 C2338 1.400 . S
C2339 C2340 1.398 . S
C2339 C2345 1.491 . S
C2340 H2331 0.950 . S
C2340 C2339 1.398 . S
C2340 C2341 1.391 . S
C2341 H2329 0.950 . S
C2341 C2337 1.393 . S
C2341 C2340 1.391 . S
C2342 H2332 0.950 . S
C2342 C2343 1.386 . S
C2342 C2344 1.391 . S
C2343 C2342 1.386 . S
C2343 C2347 1.393 . S
C2344 H2333 0.950 . S
C2344 C2342 1.391 . S
C2344 C2345 1.400 . S
C2345 C2339 1.491 . S
C2345 C2344 1.400 . S
C2345 C2346 1.398 . S
C2346 H2334 0.950 . S
C2346 C2345 1.398 . S
C2346 C2347 1.391 . S
C2347 H2335 0.950 . S
C2347 C2343 1.393 . S
C2347 C2346 1.391 . S
H2348 C2356 0.950 . S
H2349 C2361 0.950 . S
H2350 C2358 0.950 . S
H2351 C2360 0.950 . S
H2352 C2362 0.950 . S
H2353 C2364 0.950 . S
H2354 C2366 0.950 . S
H2355 C2367 0.950 . S
C2356 H2348 0.950 . S
C2356 C2357 1.386 . S
C2356 C2358 1.391 . S
C2357 C2356 1.386 . S
C2357 C2361 1.393 . S
C2358 H2350 0.950 . S
C2358 C2356 1.391 . S
C2358 C2359 1.400 . S
C2359 C2358 1.400 . S
C2359 C2360 1.398 . S
C2359 C2365 1.491 . S
C2360 H2351 0.950 . S
C2360 C2359 1.398 . S
C2360 C2361 1.391 . S
C2361 H2349 0.950 . S
C2361 C2357 1.393 . S
C2361 C2360 1.391 . S
C2362 H2352 0.950 . S
C2362 C2363 1.386 . S
C2362 C2364 1.391 . S
C2363 C2362 1.386 . S
C2363 C2367 1.393 . S
C2364 H2353 0.950 . S
C2364 C2362 1.391 . S
C2364 C2365 1.400 . S
C2365 C2359 1.491 . S
C2365 C2364 1.400 . S
C2365 C2366 1.398 . S
C2366 H2354 0.950 . S
C2366 C2365 1.398 . S
C2366 C2367 1.391 . S
C2367 H2355 0.950 . S
C2367 C2363 1.393 . S
C2367 C2366 1.391 . S
H2368 C2376 0.950 . S
H2369 C2381 0.950 . S
H2370 C2378 0.950 . S
H2371 C2380 0.950 . S
H2372 C2382 0.950 . S
H2373 C2384 0.950 . S
H2374 C2386 0.950 . S
H2375 C2387 0.950 . S
C2376 H2368 0.950 . S
C2376 C2377 1.386 . S
C2376 C2378 1.391 . S
C2377 C2376 1.386 . S
C2377 C2381 1.393 . S
C2378 H2370 0.950 . S
C2378 C2376 1.391 . S
C2378 C2379 1.400 . S
C2379 C2378 1.400 . S
C2379 C2380 1.398 . S
C2379 C2385 1.491 . S
C2380 H2371 0.950 . S
C2380 C2379 1.398 . S
C2380 C2381 1.391 . S
C2381 H2369 0.950 . S
C2381 C2377 1.393 . S
C2381 C2380 1.391 . S
C2382 H2372 0.950 . S
C2382 C2383 1.386 . S
C2382 C2384 1.391 . S
C2383 C2382 1.386 . S
C2383 C2387 1.393 . S
C2384 H2373 0.950 . S
C2384 C2382 1.391 . S
C2384 C2385 1.400 . S
C2385 C2379 1.491 . S
C2385 C2384 1.400 . S
C2385 C2386 1.398 . S
C2386 H2374 0.950 . S
C2386 C2385 1.398 . S
C2386 C2387 1.391 . S
C2387 H2375 0.950 . S
C2387 C2383 1.393 . S
C2387 C2386 1.391 . S
H2388 C2396 0.950 . S
H2389 C2401 0.950 . S
H2390 C2398 0.950 . S
H2391 C2400 0.950 . S
H2392 C2402 0.950 . S
H2393 C2404 0.950 . S
H2394 C2406 0.950 . S
H2395 C2407 0.950 . S
C2396 H2388 0.950 . S
C2396 C2397 1.386 . S
C2396 C2398 1.391 . S
C2397 C2396 1.386 . S
C2397 C2401 1.393 . S
C2398 H2390 0.950 . S
C2398 C2396 1.391 . S
C2398 C2399 1.400 . S
C2399 C2398 1.400 . S
C2399 C2400 1.398 . S
C2399 C2405 1.491 . S
C2400 H2391 0.950 . S
C2400 C2399 1.398 . S
C2400 C2401 1.391 . S
C2401 H2389 0.950 . S
C2401 C2397 1.393 . S
C2401 C2400 1.391 . S
C2402 H2392 0.950 . S
C2402 C2403 1.386 . S
C2402 C2404 1.391 . S
C2403 C2402 1.386 . S
C2403 C2407 1.393 . S
C2404 H2393 0.950 . S
C2404 C2402 1.391 . S
C2404 C2405 1.400 . S
C2405 C2399 1.491 . S
C2405 C2404 1.400 . S
C2405 C2406 1.398 . S
C2406 H2394 0.950 . S
C2406 C2405 1.398 . S
C2406 C2407 1.391 . S
C2407 H2395 0.950 . S
C2407 C2403 1.393 . S
C2407 C2406 1.391 . S
H2408 C2416 0.950 . S
H2409 C2421 0.950 . S
H2410 C2418 0.950 . S
H2411 C2420 0.950 . S
H2412 C2422 0.950 . S
H2413 C2424 0.950 . S
H2414 C2426 0.950 . S
H2415 C2427 0.950 . S
C2416 H2408 0.950 . S
C2416 C2417 1.386 . S
C2416 C2418 1.391 . S
C2417 C2416 1.386 . S
C2417 C2421 1.393 . S
C2418 H2410 0.950 . S
C2418 C2416 1.391 . S
C2418 C2419 1.400 . S
C2419 C2418 1.400 . S
C2419 C2420 1.398 . S
C2419 C2425 1.491 . S
C2420 H2411 0.950 . S
C2420 C2419 1.398 . S
C2420 C2421 1.391 . S
C2421 H2409 0.950 . S
C2421 C2417 1.393 . S
C2421 C2420 1.391 . S
C2422 H2412 0.950 . S
C2422 C2423 1.386 . S
C2422 C2424 1.391 . S
C2423 C2422 1.386 . S
C2423 C2427 1.393 . S
C2424 H2413 0.950 . S
C2424 C2422 1.391 . S
C2424 C2425 1.400 . S
C2425 C2419 1.491 . S
C2425 C2424 1.400 . S
C2425 C2426 1.398 . S
C2426 H2414 0.950 . S
C2426 C2425 1.398 . S
C2426 C2427 1.391 . S
C2427 H2415 0.950 . S
C2427 C2423 1.393 . S
C2427 C2426 1.391 . S
H2428 C2436 0.950 . S
H2429 C2441 0.950 . S
H2430 C2438 0.949 1_545 S
H2431 C2440 0.950 . S
H2432 C2442 0.950 . S
H2433 C2444 0.950 . S
H2434 C2446 0.950 1_545 S
H2435 C2447 0.984 . S
C2436 H2428 0.950 . S
C2436 C2437 1.386 . S
C2436 C2438 1.391 . S
C2437 C2436 1.386 . S
C2437 C2441 1.393 . S
C2438 H2430 0.949 1_565 S
C2438 C2436 1.391 . S
C2438 C2439 1.400 . S
C2439 C2438 1.400 . S
C2439 C2440 1.398 . S
C2439 C2445 1.491 . S
C2440 H2431 0.950 . S
C2440 C2439 1.398 . S
C2440 C2441 1.391 . S
C2441 H2429 0.950 . S
C2441 C2437 1.393 . S
C2441 C2440 1.391 . S
C2442 H2432 0.950 . S
C2442 C2443 1.386 . S
C2442 C2444 1.391 . S
C2443 C2442 1.386 . S
C2443 C2447 1.343 1_565 S
C2444 H2433 0.950 . S
C2444 C2442 1.391 . S
C2444 C2445 1.400 . S
C2445 C2439 1.491 . S
C2445 C2444 1.400 . S
C2445 C2446 1.398 . S
C2446 H2434 0.950 1_565 S
C2446 C2445 1.398 . S
C2446 C2447 1.409 1_565 S
C2447 H2435 0.984 . S
C2447 C2443 1.343 1_545 S
C2447 C2446 1.409 1_545 S
H2448 C2456 0.950 . S
H2449 C2461 0.950 . S
H2450 C2458 0.950 . S
H2451 C2460 0.950 . S
H2452 C2462 0.944 1_545 S
H2453 C2464 0.950 1_545 S
H2454 C2466 0.950 . S
H2455 C2467 0.950 . S
C2456 H2448 0.950 . S
C2456 C2457 1.386 . S
C2456 C2458 1.391 . S
C2457 C2456 1.386 . S
C2457 C2461 1.393 . S
C2458 H2450 0.950 . S
C2458 C2456 1.391 . S
C2458 C2459 1.400 . S
C2459 C2458 1.400 . S
C2459 C2460 1.398 . S
C2459 C2465 1.491 . S
C2460 H2451 0.950 . S
C2460 C2459 1.398 . S
C2460 C2461 1.391 . S
C2461 H2449 0.950 . S
C2461 C2457 1.393 . S
C2461 C2460 1.391 . S
C2462 H2452 0.944 1_565 S
C2462 C2463 1.386 . S
C2462 C2464 1.397 . S
C2463 C2462 1.386 . S
C2463 C2467 1.393 . S
C2464 H2453 0.950 1_565 S
C2464 C2462 1.397 . S
C2464 C2465 1.400 . S
C2465 C2459 1.491 . S
C2465 C2464 1.400 . S
C2465 C2466 1.398 . S
C2466 H2454 0.950 . S
C2466 C2465 1.398 . S
C2466 C2467 1.391 . S
C2467 H2455 0.950 . S
C2467 C2463 1.393 . S
C2467 C2466 1.391 . S
H2468 C2476 0.950 . S
H2469 C2481 0.950 . S
H2470 C2478 0.950 . S
H2471 C2480 0.950 . S
H2472 C2482 0.950 . S
H2473 C2484 0.950 1_655 S
H2474 C2486 0.950 . S
H2475 C2487 0.950 . S
C2476 H2468 0.950 . S
C2476 C2477 1.386 . S
C2476 C2478 1.391 . S
C2477 C2476 1.386 . S
C2477 C2481 1.393 . S
C2478 H2470 0.950 . S
C2478 C2476 1.391 . S
C2478 C2479 1.400 . S
C2479 C2478 1.400 . S
C2479 C2480 1.398 . S
C2479 C2485 1.491 . S
C2480 H2471 0.950 . S
C2480 C2479 1.398 . S
C2480 C2481 1.391 . S
C2481 H2469 0.950 . S
C2481 C2477 1.393 . S
C2481 C2480 1.391 . S
C2482 H2472 0.950 . S
C2482 C2483 1.386 1_655 S
C2482 C2484 1.391 1_655 S
C2483 C2482 1.386 1_455 S
C2483 C2487 1.393 . S
C2484 H2473 0.950 1_455 S
C2484 C2482 1.391 1_455 S
C2484 C2485 1.400 . S
C2485 C2479 1.491 . S
C2485 C2484 1.400 . S
C2485 C2486 1.398 . S
C2486 H2474 0.950 . S
C2486 C2485 1.398 . S
C2486 C2487 1.391 . S
C2487 H2475 0.950 . S
C2487 C2483 1.393 . S
C2487 C2486 1.391 . S
H2488 C2496 0.950 . S
H2489 C2501 0.950 . S
H2490 C2498 0.950 . S
H2491 C2500 0.950 . S
H2492 C2502 0.950 . S
H2493 C2504 0.950 . S
H2494 C2506 0.950 . S
H2495 C2507 0.950 . S
C2496 H2488 0.950 . S
C2496 C2497 1.386 . S
C2496 C2498 1.391 . S
C2497 C2496 1.386 . S
C2497 C2501 1.393 . S
C2498 H2490 0.950 . S
C2498 C2496 1.391 . S
C2498 C2499 1.400 . S
C2499 C2498 1.400 . S
C2499 C2500 1.398 . S
C2499 C2505 1.491 . S
C2500 H2491 0.950 . S
C2500 C2499 1.398 . S
C2500 C2501 1.391 . S
C2501 H2489 0.950 . S
C2501 C2497 1.393 . S
C2501 C2500 1.391 . S
C2502 H2492 0.950 . S
C2502 C2503 1.386 . S
C2502 C2504 1.391 . S
C2503 C2502 1.386 . S
C2503 C2507 1.393 . S
C2504 H2493 0.950 . S
C2504 C2502 1.391 . S
C2504 C2505 1.400 . S
C2505 C2499 1.491 . S
C2505 C2504 1.400 . S
C2505 C2506 1.398 . S
C2506 H2494 0.950 . S
C2506 C2505 1.398 . S
C2506 C2507 1.391 . S
C2507 H2495 0.950 . S
C2507 C2503 1.393 . S
C2507 C2506 1.391 . S
H2508 C2516 0.950 . S
H2509 C2521 0.950 . S
H2510 C2518 0.950 . S
H2511 C2520 0.950 . S
H2512 C2522 0.950 . S
H2513 C2524 0.950 . S
H2514 C2526 0.950 . S
H2515 C2527 0.950 . S
C2516 H2508 0.950 . S
C2516 C2517 1.386 . S
C2516 C2518 1.391 . S
C2517 C2516 1.386 . S
C2517 C2521 1.393 . S
C2518 H2510 0.950 . S
C2518 C2516 1.391 . S
C2518 C2519 1.400 . S
C2519 C2518 1.400 . S
C2519 C2520 1.398 . S
C2519 C2525 1.491 . S
C2520 H2511 0.950 . S
C2520 C2519 1.398 . S
C2520 C2521 1.391 . S
C2521 H2509 0.950 . S
C2521 C2517 1.393 . S
C2521 C2520 1.391 . S
C2522 H2512 0.950 . S
C2522 C2523 1.386 . S
C2522 C2524 1.391 . S
C2523 C2522 1.386 . S
C2523 C2527 1.393 . S
C2524 H2513 0.950 . S
C2524 C2522 1.391 . S
C2524 C2525 1.400 . S
C2525 C2519 1.491 . S
C2525 C2524 1.400 . S
C2525 C2526 1.398 . S
C2526 H2514 0.950 . S
C2526 C2525 1.398 . S
C2526 C2527 1.391 . S
C2527 H2515 0.950 . S
C2527 C2523 1.393 . S
C2527 C2526 1.391 . S
H2528 C2536 0.950 . S
H2529 C2541 0.950 . S
H2530 C2538 0.950 . S
H2531 C2540 0.950 . S
H2532 C2542 0.950 . S
H2533 C2544 0.950 . S
H2534 C2546 0.950 . S
H2535 C2547 0.950 . S
C2536 H2528 0.950 . S
C2536 C2537 1.386 . S
C2536 C2538 1.391 . S
C2537 C2536 1.386 . S
C2537 C2541 1.393 . S
C2538 H2530 0.950 . S
C2538 C2536 1.391 . S
C2538 C2539 1.400 . S
C2539 C2538 1.400 . S
C2539 C2540 1.398 . S
C2539 C2545 1.491 . S
C2540 H2531 0.950 . S
C2540 C2539 1.398 . S
C2540 C2541 1.391 . S
C2541 H2529 0.950 . S
C2541 C2537 1.393 . S
C2541 C2540 1.391 . S
C2542 H2532 0.950 . S
C2542 C2543 1.386 . S
C2542 C2544 1.391 . S
C2543 C2542 1.386 . S
C2543 C2547 1.393 . S
C2544 H2533 0.950 . S
C2544 C2542 1.391 . S
C2544 C2545 1.400 . S
C2545 C2539 1.491 . S
C2545 C2544 1.400 . S
C2545 C2546 1.398 . S
C2546 H2534 0.950 . S
C2546 C2545 1.398 . S
C2546 C2547 1.391 . S
C2547 H2535 0.950 . S
C2547 C2543 1.393 . S
C2547 C2546 1.391 . S
H2548 C2556 0.950 . S
H2549 C2561 0.950 . S
H2550 C2558 0.950 . S
H2551 C2560 0.950 . S
H2552 C2562 0.950 . S
H2553 C2564 0.950 . S
H2554 C2566 0.950 . S
H2555 C2567 0.950 . S
C2556 H2548 0.950 . S
C2556 C2557 1.386 . S
C2556 C2558 1.391 . S
C2557 C2556 1.386 . S
C2557 C2561 1.393 . S
C2558 H2550 0.950 . S
C2558 C2556 1.391 . S
C2558 C2559 1.400 . S
C2559 C2558 1.400 . S
C2559 C2560 1.398 . S
C2559 C2565 1.491 . S
C2560 H2551 0.950 . S
C2560 C2559 1.398 . S
C2560 C2561 1.391 . S
C2561 H2549 0.950 . S
C2561 C2557 1.393 . S
C2561 C2560 1.391 . S
C2562 H2552 0.950 . S
C2562 C2563 1.386 . S
C2562 C2564 1.391 . S
C2563 C2562 1.386 . S
C2563 C2567 1.393 . S
C2564 H2553 0.950 . S
C2564 C2562 1.391 . S
C2564 C2565 1.400 . S
C2565 C2559 1.491 . S
C2565 C2564 1.400 . S
C2565 C2566 1.398 . S
C2566 H2554 0.950 . S
C2566 C2565 1.398 . S
C2566 C2567 1.391 . S
C2567 H2555 0.950 . S
C2567 C2563 1.393 . S
C2567 C2566 1.391 . S
H2568 C2576 0.950 . S
H2569 C2581 0.950 . S
H2570 C2578 0.863 1_565 S
H2571 C2580 0.950 . S
H2572 C2582 0.950 . S
H2573 C2584 0.950 . S
H2574 C2586 0.946 1_565 S
H2575 C2587 0.950 . S
C2576 H2568 0.950 . S
C2576 C2577 1.386 . S
C2576 C2578 1.391 . S
C2577 C2576 1.386 . S
C2577 C2581 1.393 . S
C2578 H2570 0.863 1_545 S
C2578 C2576 1.391 . S
C2578 C2579 1.400 . S
C2579 C2578 1.400 . S
C2579 C2580 1.398 . S
C2579 C2585 1.491 . S
C2580 H2571 0.950 . S
C2580 C2579 1.398 . S
C2580 C2581 1.391 . S
C2581 H2569 0.950 . S
C2581 C2577 1.393 . S
C2581 C2580 1.391 . S
C2582 H2572 0.950 . S
C2582 C2583 1.386 . S
C2582 C2584 1.391 . S
C2583 C2582 1.386 . S
C2583 C2587 1.393 1_545 S
C2584 H2573 0.950 . S
C2584 C2582 1.391 . S
C2584 C2585 1.400 . S
C2585 C2579 1.491 . S
C2585 C2584 1.400 . S
C2585 C2586 1.413 . S
C2586 H2574 0.946 1_545 S
C2586 C2585 1.413 . S
C2586 C2587 1.380 1_545 S
C2587 H2575 0.950 . S
C2587 C2583 1.393 1_565 S
C2587 C2586 1.380 1_565 S
H2588 C2596 0.950 . S
H2589 C2601 1.033 . S
H2590 C2598 0.950 . S
H2591 C2600 0.950 1_455 S
H2592 C2602 0.950 . S
H2593 C2604 0.950 . S
H2594 C2606 0.950 . S
H2595 C2607 0.950 . S
C2596 H2588 0.950 . S
C2596 C2597 1.386 . S
C2596 C2598 1.391 . S
C2597 C2596 1.386 . S
C2597 C2601 1.393 . S
C2598 H2590 0.950 . S
C2598 C2596 1.391 . S
C2598 C2599 1.400 . S
C2599 C2598 1.400 . S
C2599 C2600 1.398 . S
C2599 C2605 1.491 . S
C2600 H2591 0.950 1_655 S
C2600 C2599 1.398 . S
C2600 C2601 1.391 . S
C2601 H2589 1.033 . S
C2601 C2597 1.393 . S
C2601 C2600 1.391 . S
C2602 H2592 0.950 . S
C2602 C2603 1.386 1_455 S
C2602 C2604 1.391 . S
C2603 C2602 1.386 1_655 S
C2603 C2607 1.393 . S
C2604 H2593 0.950 . S
C2604 C2602 1.391 . S
C2604 C2605 1.400 1_455 S
C2605 C2599 1.491 . S
C2605 C2604 1.400 1_655 S
C2605 C2606 1.398 . S
C2606 H2594 0.950 . S
C2606 C2605 1.398 . S
C2606 C2607 1.391 . S
C2607 H2595 0.950 . S
C2607 C2603 1.393 . S
C2607 C2606 1.391 . S
H2608 C2616 0.950 . S
H2609 C2621 0.950 . S
H2610 C2618 0.950 . S
H2611 C2620 0.950 . S
H2612 C2622 0.950 . S
H2613 C2624 0.950 . S
H2614 C2626 0.950 . S
H2615 C2627 0.950 . S
C2616 H2608 0.950 . S
C2616 C2617 1.386 . S
C2616 C2618 1.391 . S
C2617 C2616 1.386 . S
C2617 C2621 1.393 . S
C2618 H2610 0.950 . S
C2618 C2616 1.391 . S
C2618 C2619 1.400 . S
C2619 C2618 1.400 . S
C2619 C2620 1.398 . S
C2619 C2625 1.491 . S
C2620 H2611 0.950 . S
C2620 C2619 1.398 . S
C2620 C2621 1.391 . S
C2621 H2609 0.950 . S
C2621 C2617 1.393 . S
C2621 C2620 1.391 . S
C2622 H2612 0.950 . S
C2622 C2623 1.386 . S
C2622 C2624 1.391 . S
C2623 C2622 1.386 . S
C2623 C2627 1.393 . S
C2624 H2613 0.950 . S
C2624 C2622 1.391 . S
C2624 C2625 1.400 . S
C2625 C2619 1.491 . S
C2625 C2624 1.400 . S
C2625 C2626 1.398 . S
C2626 H2614 0.950 . S
C2626 C2625 1.398 . S
C2626 C2627 1.391 . S
C2627 H2615 0.950 . S
C2627 C2623 1.393 . S
C2627 C2626 1.391 . S
H2628 C2636 0.950 . S
H2629 C2641 0.950 . S
H2630 C2638 0.950 . S
H2631 C2640 0.950 . S
H2632 C2642 0.950 . S
H2633 C2644 0.950 . S
H2634 C2646 0.950 . S
H2635 C2647 0.950 . S
C2636 H2628 0.950 . S
C2636 C2637 1.386 . S
C2636 C2638 1.391 . S
C2637 C2636 1.386 . S
C2637 C2641 1.393 . S
C2638 H2630 0.950 . S
C2638 C2636 1.391 . S
C2638 C2639 1.400 . S
C2639 C2638 1.400 . S
C2639 C2640 1.398 . S
C2639 C2645 1.491 . S
C2640 H2631 0.950 . S
C2640 C2639 1.398 . S
C2640 C2641 1.391 . S
C2641 H2629 0.950 . S
C2641 C2637 1.393 . S
C2641 C2640 1.391 . S
C2642 H2632 0.950 . S
C2642 C2643 1.386 . S
C2642 C2644 1.391 . S
C2643 C2642 1.386 . S
C2643 C2647 1.393 . S
C2644 H2633 0.950 . S
C2644 C2642 1.391 . S
C2644 C2645 1.400 . S
C2645 C2639 1.491 . S
C2645 C2644 1.400 . S
C2645 C2646 1.398 . S
C2646 H2634 0.950 . S
C2646 C2645 1.398 . S
C2646 C2647 1.391 . S
C2647 H2635 0.950 . S
C2647 C2643 1.393 . S
C2647 C2646 1.391 . S
H2648 C2656 0.950 . S
H2649 C2661 0.950 . S
H2650 C2658 0.950 . S
H2651 C2660 0.950 . S
H2652 C2662 0.950 . S
H2653 C2664 0.950 . S
H2654 C2666 0.950 . S
H2655 C2667 0.950 . S
C2656 H2648 0.950 . S
C2656 C2657 1.386 . S
C2656 C2658 1.391 . S
C2657 C2656 1.386 . S
C2657 C2661 1.393 . S
C2658 H2650 0.950 . S
C2658 C2656 1.391 . S
C2658 C2659 1.400 . S
C2659 C2658 1.400 . S
C2659 C2660 1.398 . S
C2659 C2665 1.491 . S
C2660 H2651 0.950 . S
C2660 C2659 1.398 . S
C2660 C2661 1.391 . S
C2661 H2649 0.950 . S
C2661 C2657 1.393 . S
C2661 C2660 1.391 . S
C2662 H2652 0.950 . S
C2662 C2663 1.386 . S
C2662 C2664 1.391 . S
C2663 C2662 1.386 . S
C2663 C2667 1.393 . S
C2664 H2653 0.950 . S
C2664 C2662 1.391 . S
C2664 C2665 1.400 . S
C2665 C2659 1.491 . S
C2665 C2664 1.400 . S
C2665 C2666 1.398 . S
C2666 H2654 0.950 . S
C2666 C2665 1.398 . S
C2666 C2667 1.391 . S
C2667 H2655 0.950 . S
C2667 C2663 1.393 . S
C2667 C2666 1.391 . S
H2668 C2676 0.950 . S
H2669 C2681 0.950 . S
H2670 C2678 0.950 . S
H2671 C2680 0.950 . S
H2672 C2682 0.950 . S
H2673 C2684 0.950 . S
H2674 C2686 0.950 . S
H2675 C2687 0.950 . S
C2676 H2668 0.950 . S
C2676 C2677 1.386 . S
C2676 C2678 1.391 . S
C2677 C2676 1.386 . S
C2677 C2681 1.393 . S
C2678 H2670 0.950 . S
C2678 C2676 1.391 . S
C2678 C2679 1.400 . S
C2679 C2678 1.400 . S
C2679 C2680 1.398 . S
C2679 C2685 1.491 . S
C2680 H2671 0.950 . S
C2680 C2679 1.398 . S
C2680 C2681 1.391 . S
C2681 H2669 0.950 . S
C2681 C2677 1.393 . S
C2681 C2680 1.391 . S
C2682 H2672 0.950 . S
C2682 C2683 1.386 . S
C2682 C2684 1.391 . S
C2683 C2682 1.386 . S
C2683 C2687 1.393 . S
C2684 H2673 0.950 . S
C2684 C2682 1.391 . S
C2684 C2685 1.400 . S
C2685 C2679 1.491 . S
C2685 C2684 1.400 . S
C2685 C2686 1.398 . S
C2686 H2674 0.950 . S
C2686 C2685 1.398 . S
C2686 C2687 1.391 . S
C2687 H2675 0.950 . S
C2687 C2683 1.393 . S
C2687 C2686 1.391 . S
H2688 C2696 0.950 . S
H2689 C2701 0.950 . S
H2690 C2698 0.950 . S
H2691 C2700 0.950 . S
H2692 C2702 0.950 . S
H2693 C2704 0.950 . S
H2694 C2706 0.950 . S
H2695 C2707 0.950 . S
C2696 H2688 0.950 . S
C2696 C2697 1.386 . S
C2696 C2698 1.391 . S
C2697 C2696 1.386 . S
C2697 C2701 1.393 . S
C2698 H2690 0.950 . S
C2698 C2696 1.391 . S
C2698 C2699 1.400 . S
C2699 C2698 1.400 . S
C2699 C2700 1.398 . S
C2699 C2705 1.491 . S
C2700 H2691 0.950 . S
C2700 C2699 1.398 . S
C2700 C2701 1.391 . S
C2701 H2689 0.950 . S
C2701 C2697 1.393 . S
C2701 C2700 1.391 . S
C2702 H2692 0.950 . S
C2702 C2703 1.386 . S
C2702 C2704 1.391 . S
C2703 C2702 1.386 . S
C2703 C2707 1.393 . S
C2704 H2693 0.950 . S
C2704 C2702 1.391 . S
C2704 C2705 1.400 . S
C2705 C2699 1.491 . S
C2705 C2704 1.400 . S
C2705 C2706 1.398 . S
C2706 H2694 0.950 . S
C2706 C2705 1.398 . S
C2706 C2707 1.391 . S
C2707 H2695 0.950 . S
C2707 C2703 1.393 . S
C2707 C2706 1.391 . S
H2708 C2716 0.950 . S
H2709 C2721 0.950 . S
H2710 C2718 0.950 . S
H2711 C2720 0.950 . S
H2712 C2722 0.950 . S
H2713 C2724 0.950 . S
H2714 C2726 0.950 . S
H2715 C2727 0.950 . S
C2716 H2708 0.950 . S
C2716 C2717 1.386 . S
C2716 C2718 1.391 . S
C2717 C2716 1.386 . S
C2717 C2721 1.393 . S
C2718 H2710 0.950 . S
C2718 C2716 1.391 . S
C2718 C2719 1.400 . S
C2719 C2718 1.400 . S
C2719 C2720 1.398 . S
C2719 C2725 1.491 . S
C2720 H2711 0.950 . S
C2720 C2719 1.398 . S
C2720 C2721 1.391 . S
C2721 H2709 0.950 . S
C2721 C2717 1.393 . S
C2721 C2720 1.391 . S
C2722 H2712 0.950 . S
C2722 C2723 1.386 . S
C2722 C2724 1.391 . S
C2723 C2722 1.386 . S
C2723 C2727 1.393 . S
C2724 H2713 0.950 . S
C2724 C2722 1.391 . S
C2724 C2725 1.400 . S
C2725 C2719 1.491 . S
C2725 C2724 1.400 . S
C2725 C2726 1.398 . S
C2726 H2714 0.950 . S
C2726 C2725 1.398 . S
C2726 C2727 1.391 . S
C2727 H2715 0.950 . S
C2727 C2723 1.393 . S
C2727 C2726 1.391 . S
H2728 C2736 0.950 . S
H2729 C2741 0.950 . S
H2730 C2738 0.950 . S
H2731 C2740 0.950 . S
H2732 C2742 0.950 . S
H2733 C2744 0.950 . S
H2734 C2746 0.950 . S
H2735 C2747 0.950 . S
C2736 H2728 0.950 . S
C2736 C2737 1.386 . S
C2736 C2738 1.391 . S
C2737 C2736 1.386 . S
C2737 C2741 1.393 . S
C2738 H2730 0.950 . S
C2738 C2736 1.391 . S
C2738 C2739 1.400 . S
C2739 C2738 1.400 . S
C2739 C2740 1.398 . S
C2739 C2745 1.491 . S
C2740 H2731 0.950 . S
C2740 C2739 1.398 . S
C2740 C2741 1.391 . S
C2741 H2729 0.950 . S
C2741 C2737 1.393 . S
C2741 C2740 1.391 . S
C2742 H2732 0.950 . S
C2742 C2743 1.386 . S
C2742 C2744 1.391 . S
C2743 C2742 1.386 . S
C2743 C2747 1.393 . S
C2744 H2733 0.950 . S
C2744 C2742 1.391 . S
C2744 C2745 1.400 . S
C2745 C2739 1.491 . S
C2745 C2744 1.400 . S
C2745 C2746 1.398 . S
C2746 H2734 0.950 . S
C2746 C2745 1.398 . S
C2746 C2747 1.391 . S
C2747 H2735 0.950 . S
C2747 C2743 1.393 . S
C2747 C2746 1.391 . S
H2748 C2756 0.950 . S
H2749 C2761 0.950 . S
H2750 C2758 0.950 1_455 S
H2751 C2760 0.950 . S
H2752 C2762 0.950 . S
H2753 C2764 0.950 . S
H2754 C2766 0.945 1_455 S
H2755 C2767 0.950 . S
C2756 H2748 0.950 . S
C2756 C2757 1.386 . S
C2756 C2758 1.391 . S
C2757 C2756 1.386 . S
C2757 C2761 1.393 . S
C2758 H2750 0.950 1_655 S
C2758 C2756 1.391 . S
C2758 C2759 1.400 . S
C2759 C2758 1.400 . S
C2759 C2760 1.398 . S
C2759 C2765 1.491 . S
C2760 H2751 0.950 . S
C2760 C2759 1.398 . S
C2760 C2761 1.391 . S
C2761 H2749 0.950 . S
C2761 C2757 1.393 . S
C2761 C2760 1.391 . S
C2762 H2752 0.950 . S
C2762 C2763 1.386 . S
C2762 C2764 1.391 . S
C2763 C2762 1.386 . S
C2763 C2767 1.393 1_655 S
C2764 H2753 0.950 . S
C2764 C2762 1.391 . S
C2764 C2765 1.400 . S
C2765 C2759 1.491 . S
C2765 C2764 1.400 . S
C2765 C2766 1.422 . S
C2766 H2754 0.945 1_655 S
C2766 C2765 1.422 . S
C2766 C2767 1.372 1_655 S
C2767 H2755 0.950 . S
C2767 C2763 1.393 1_455 S
C2767 C2766 1.372 1_455 S
H2768 C2776 0.950 . S
H2769 C2781 0.950 . S
H2770 C2778 0.950 . S
H2771 C2780 0.950 . S
H2772 C2782 0.950 . S
H2773 C2784 0.950 . S
H2774 C2786 0.950 . S
H2775 C2787 0.950 . S
C2776 H2768 0.950 . S
C2776 C2777 1.386 . S
C2776 C2778 1.391 . S
C2777 C2776 1.386 . S
C2777 C2781 1.393 . S
C2778 H2770 0.950 . S
C2778 C2776 1.391 . S
C2778 C2779 1.400 . S
C2779 C2778 1.400 . S
C2779 C2780 1.398 . S
C2779 C2785 1.491 . S
C2780 H2771 0.950 . S
C2780 C2779 1.398 . S
C2780 C2781 1.391 . S
C2781 H2769 0.950 . S
C2781 C2777 1.393 . S
C2781 C2780 1.391 . S
C2782 H2772 0.950 . S
C2782 C2783 1.386 . S
C2782 C2784 1.391 . S
C2783 C2782 1.386 . S
C2783 C2787 1.393 . S
C2784 H2773 0.950 . S
C2784 C2782 1.391 . S
C2784 C2785 1.400 . S
C2785 C2779 1.491 . S
C2785 C2784 1.400 . S
C2785 C2786 1.398 . S
C2786 H2774 0.950 . S
C2786 C2785 1.398 . S
C2786 C2787 1.391 . S
C2787 H2775 0.950 . S
C2787 C2783 1.393 . S
C2787 C2786 1.391 . S
H2788 C2796 0.950 . S
H2789 C2801 0.950 . S
H2790 C2798 0.950 . S
H2791 C2800 0.950 . S
H2792 C2802 0.950 . S
H2793 C2804 0.950 . S
H2794 C2806 0.950 . S
H2795 C2807 0.950 . S
C2796 H2788 0.950 . S
C2796 C2797 1.386 . S
C2796 C2798 1.391 . S
C2797 C2796 1.386 . S
C2797 C2801 1.393 . S
C2798 H2790 0.950 . S
C2798 C2796 1.391 . S
C2798 C2799 1.400 . S
C2799 C2798 1.400 . S
C2799 C2800 1.398 . S
C2799 C2805 1.491 . S
C2800 H2791 0.950 . S
C2800 C2799 1.398 . S
C2800 C2801 1.391 . S
C2801 H2789 0.950 . S
C2801 C2797 1.393 . S
C2801 C2800 1.391 . S
C2802 H2792 0.950 . S
C2802 C2803 1.386 . S
C2802 C2804 1.391 . S
C2803 C2802 1.386 . S
C2803 C2807 1.393 . S
C2804 H2793 0.950 . S
C2804 C2802 1.391 . S
C2804 C2805 1.400 . S
C2805 C2799 1.491 . S
C2805 C2804 1.400 . S
C2805 C2806 1.398 . S
C2806 H2794 0.950 . S
C2806 C2805 1.398 . S
C2806 C2807 1.391 . S
C2807 H2795 0.950 . S
C2807 C2803 1.393 . S
C2807 C2806 1.391 . S
C1377 C4 1.577 . S
C1383 C857 1.553 . S
C1397 C26 1.594 . S
C1403 C901 1.532 . S
C1423 C981 1.508 . S
C1417 C32 1.530 . S
C1437 C40 1.526 . S
C1443 C1025 1.480 . S
C1457 C12 1.566 . S
C1463 C1105 1.514 . S
C1477 C18 1.560 . S
C1483 C1167 1.539 . S
C1497 C46 1.576 . S
C1503 C1087 1.555 . S
C1523 C1149 1.501 . S
C1517 C68 1.588 . S
C1543 C1043 1.523 . S
C1537 C74 1.528 . S
C1557 C82 1.497 . S
C1563 C963 1.449 . S
C1583 C839 1.528 . S
C1577 C54 1.578 . S
C1597 C60 1.538 . S
C1603 C919 1.537 . S
C1617 C88 1.636 . S
C1623 C1229 1.615 . S
C1637 C110 1.618 . S
C1643 C1273 1.573 . S
C1663 C1353 1.567 . S
C1657 C116 1.591 . S
C1677 C124 1.535 . S
C1683 C299 1.476 . S
C1697 C96 1.582 . S
C1703 C343 1.542 . S
C1717 C102 1.568 . S
C1723 C423 1.547 . S
C1737 C130 1.618 . S
C1743 C361 1.615 . S
C1757 C152 1.631 . S
C1763 C405 1.567 . S
C1783 C281 1.571 . S
C1777 C158 1.594 . S
C1803 C1335 1.470 . S
C1797 C166 1.557 . S
C1823 C1211 1.510 . S
C1817 C138 1.577 . S
C1843 C1291 1.580 . S
C1837 C144 1.582 . S
C1857 C172 1.624 . S
C1863 C485 1.599 . S
C1877 C194 1.621 . S
C1883 C547 1.555 . S
C1897 C200 1.593 . S
C1903 C591 1.591 . S
C1917 C208 1.546 . S
C1923 C653 1.498 . S
C1943 C715 1.524 . S
C1937 C180 1.583 . S
C1963 C795 1.542 . S
C1957 C186 1.563 . S
C1983 C733 1.626 . S
C1977 C214 1.624 . S
C2003 C777 1.551 . S
C1997 C236 1.622 . S
C2017 C242 1.588 . S
C2023 C671 1.587 . S
C2043 C609 1.483 . S
C2037 C250 1.534 . S
C2057 C222 1.584 . S
C2063 C467 1.530 . S
C2083 C529 1.543 . S
C2077 C228 1.564 . S
C2103 C305 1.365 . S
C2097 C5 1.210 . S
C2117 C25 1.384 . S
C2123 C349 1.306 . S
C2143 C429 1.345 . S
C2137 C33 1.188 . S
C2163 C491 1.251 . S
C2157 C39 1.293 1_556 S
C2183 C553 1.294 . S
C2177 C11 1.379 . S
C2203 C597 1.330 . S
C2197 C19 1.166 1_556 S
C2217 C47 1.224 1_556 S
C2223 C615 1.408 . S
C2237 C67 1.373 1_556 S
C2243 C473 1.267 . S
C2257 C75 1.195 1_556 S
C2263 C535 1.344 . S
C2277 C81 1.323 . S
C2283 C367 1.279 . S
C2303 C411 1.257 . S
C2297 C53 1.359 . S
C2317 C61 1.159 . S
C2323 C287 1.312 . S
C2343 C659 1.345 . S
C2337 C89 1.155 . S
C2357 C109 1.418 . S
C2363 C721 1.362 . S
C2377 C117 1.190 . S
C2383 C801 1.349 . S
C2403 C863 1.233 . S
C2397 C123 1.285 . S
C2417 C95 1.357 . S
C2423 C907 1.310 . S
C2437 C103 1.059 . S
C2443 C987 1.219 . S
C2457 C131 1.078 . S
C2463 C969 1.232 . S
C2477 C151 1.341 . S
C2483 C845 1.250 . S
C2503 C925 1.320 . S
C2497 C159 1.128 . S
C2517 C165 1.337 . S
C2523 C739 1.295 . S
C2537 C137 1.373 1_545 S
C2543 C783 1.299 . S
C2563 C677 1.349 . S
C2557 C145 1.171 . S
C2583 C1031 1.279 . S
C2577 C173 1.107 . S
C2597 C193 1.311 . S
C2603 C1111 1.258 . S
C2617 C201 1.137 . S
C2623 C1173 1.299 . S
C2643 C1235 1.266 . S
C2637 C207 1.320 . S
C2663 C1279 1.331 . S
C2657 C179 1.417 1_565 S
C2677 C187 1.166 . S
C2683 C1359 1.328 . S
C2697 C215 1.214 . S
C2703 C1341 1.373 . S
C2717 C235 1.341 1_565 S
C2723 C1217 1.340 . S
C2743 C1297 1.343 . S
C2737 C243 1.148 . S
C2763 C1093 1.220 . S
C2757 C249 1.251 . S
C2783 C1155 1.267 . S
C2777 C221 1.368 . S
C2797 C229 1.104 . S
C2803 C1049 1.269 . S
