# Generated by pormake.
# Topology hwx, (6,3)-cn, num edge types: 1
# Building blocks:
#     Node 0, Type 0, BuildingBlock: IZENUY_clean_sbu_0, # of connection points: 6
#     Node 1, Type 0, BuildingBlock: IZENUY_clean_sbu_0, # of connection points: 6
#     Node 2, Type 0, BuildingBlock: IZENUY_clean_sbu_0, # of connection points: 6
#     Node 3, Type 0, BuildingBlock: IZENUY_clean_sbu_0, # of connection points: 6
#     Node 4, Type 1, BuildingBlock: BETDIP_clean_linker_0, # of connection points: 3
#     Node 5, Type 1, BuildingBlock: BETDIP_clean_linker_0, # of connection points: 3
#     Node 6, Type 1, BuildingBlock: BETDIP_clean_linker_0, # of connection points: 3
#     Node 7, Type 1, BuildingBlock: BETDIP_clean_linker_0, # of connection points: 3
#     Node 8, Type 1, BuildingBlock: BETDIP_clean_linker_0, # of connection points: 3
#     Node 9, Type 1, BuildingBlock: BETDIP_clean_linker_0, # of connection points: 3
#     Node 10, Type 1, BuildingBlock: BETDIP_clean_linker_0, # of connection points: 3
#     Node 11, Type 1, BuildingBlock: BETDIP_clean_linker_0, # of connection points: 3
#     Edge 12, Type (0, 1), BuildingBlock: ZUJKAS_clean_linker_0, # of connection points: 2
#     Edge 13, Type (0, 1), BuildingBlock: ZUJKAS_clean_linker_0, # of connection points: 2
#     Edge 14, Type (0, 1), BuildingBlock: ZUJKAS_clean_linker_0, # of connection points: 2
#     Edge 15, Type (0, 1), BuildingBlock: ZUJKAS_clean_linker_0, # of connection points: 2
#     Edge 16, Type (0, 1), BuildingBlock: ZUJKAS_clean_linker_0, # of connection points: 2
#     Edge 17, Type (0, 1), BuildingBlock: ZUJKAS_clean_linker_0, # of connection points: 2
#     Edge 18, Type (0, 1), BuildingBlock: ZUJKAS_clean_linker_0, # of connection points: 2
#     Edge 19, Type (0, 1), BuildingBlock: ZUJKAS_clean_linker_0, # of connection points: 2
#     Edge 20, Type (0, 1), BuildingBlock: ZUJKAS_clean_linker_0, # of connection points: 2
#     Edge 21, Type (0, 1), BuildingBlock: ZUJKAS_clean_linker_0, # of connection points: 2
#     Edge 22, Type (0, 1), BuildingBlock: ZUJKAS_clean_linker_0, # of connection points: 2
#     Edge 23, Type (0, 1), BuildingBlock: ZUJKAS_clean_linker_0, # of connection points: 2
#     Edge 24, Type (0, 1), BuildingBlock: ZUJKAS_clean_linker_0, # of connection points: 2
#     Edge 25, Type (0, 1), BuildingBlock: ZUJKAS_clean_linker_0, # of connection points: 2
#     Edge 26, Type (0, 1), BuildingBlock: ZUJKAS_clean_linker_0, # of connection points: 2
#     Edge 27, Type (0, 1), BuildingBlock: ZUJKAS_clean_linker_0, # of connection points: 2
#     Edge 28, Type (0, 1), BuildingBlock: ZUJKAS_clean_linker_0, # of connection points: 2
#     Edge 29, Type (0, 1), BuildingBlock: ZUJKAS_clean_linker_0, # of connection points: 2
#     Edge 30, Type (0, 1), BuildingBlock: ZUJKAS_clean_linker_0, # of connection points: 2
#     Edge 31, Type (0, 1), BuildingBlock: ZUJKAS_clean_linker_0, # of connection points: 2
#     Edge 32, Type (0, 1), BuildingBlock: ZUJKAS_clean_linker_0, # of connection points: 2
#     Edge 33, Type (0, 1), BuildingBlock: ZUJKAS_clean_linker_0, # of connection points: 2
#     Edge 34, Type (0, 1), BuildingBlock: ZUJKAS_clean_linker_0, # of connection points: 2
#     Edge 35, Type (0, 1), BuildingBlock: ZUJKAS_clean_linker_0, # of connection points: 2
# Relax obj value: 0.002
# Max RMSD: 0.065
# Mean RMSD: 0.050
data_MOF--net-hwx--node1-IZENUY_clean_sbu_0--node2-BETDIP_clean_linker_0--edge1-ZUJKAS_clean_linker_0
_symmetry_space_group_name_H-M    P1
_symmetry_Int_Tables_number       1
_symmetry_cell_setting            triclinic
loop_
_symmetry_equiv_pos_as_xyz
'x, y, z'
_cell_length_a     66.82616
_cell_length_b     66.764028
_cell_length_c     26.97719
_cell_angle_alpha  91.276361
_cell_angle_beta   91.265129
_cell_angle_gamma 89.995893
loop_
_atom_site_label
_atom_site_type_symbol
_atom_site_fract_x
_atom_site_fract_y
_atom_site_fract_z
_atom_type_partial_charge
Fe0 Fe 0.22953 0.22937 0.06261 0.0
Fe1 Fe 0.22957 0.22997 0.94883 0.0
O2 O 0.22067 0.21988 0.00435 0.0
Fe3 Fe 0.20289 0.2002 0.00154 0.0
O4 O 0.19042 0.20779 0.05892 0.0
O5 O 0.20444 0.23647 0.0807 0.0
O6 O 0.23268 0.25521 0.04179 0.0
C7 C 0.22532 0.26427 0.00482 0.0
C8 C 0.22741 0.18737 0.07648 0.0
O9 O 0.22051 0.25477 0.96542 0.0
C10 C 0.22891 0.19011 0.92358 0.0
O11 O 0.25521 0.22296 0.04846 0.0
O12 O 0.25477 0.23563 0.97395 0.0
O13 O 0.21979 0.18361 0.03414 0.0
O14 O 0.22798 0.20517 0.09389 0.0
C15 C 0.18817 0.22383 0.92813 0.0
O16 O 0.2393 0.20582 0.92853 0.0
O17 O 0.21203 0.18893 0.94368 0.0
C18 C 0.26434 0.22892 0.01109 0.0
O19 O 0.20592 0.2262 0.91368 0.0
O20 O 0.18486 0.21554 0.96868 0.0
C21 C 0.18983 0.22454 0.08177 0.0
Fe22 Fe 0.27213 0.73021 0.56586 0.0
Fe23 Fe 0.29851 0.70038 0.509 0.0
O24 O 0.28093 0.72024 0.50896 0.0
Fe25 Fe 0.27219 0.73008 0.45199 0.0
O26 O 0.26928 0.75584 0.47627 0.0
O27 O 0.28144 0.75499 0.55255 0.0
O28 O 0.29574 0.72611 0.60048 0.0
C29 C 0.31347 0.72353 0.58578 0.0
C30 C 0.23736 0.72973 0.50331 0.0
O31 O 0.31669 0.71535 0.54414 0.0
C32 C 0.27388 0.68816 0.43223 0.0
O33 O 0.26219 0.70608 0.58308 0.0
O34 O 0.28918 0.68889 0.56512 0.0
O35 O 0.24647 0.72384 0.46521 0.0
O36 O 0.24696 0.73615 0.54147 0.0
C37 C 0.31184 0.72499 0.43221 0.0
O38 O 0.28148 0.68412 0.47398 0.0
O39 O 0.2735 0.70605 0.41736 0.0
C40 C 0.27234 0.69019 0.58551 0.0
O41 O 0.31111 0.70816 0.45279 0.0
O42 O 0.29735 0.73704 0.43495 0.0
C43 C 0.2768 0.76467 0.51436 0.0
Fe44 Fe 0.77325 0.78858 0.95172 0.0
Fe45 Fe 0.7723 0.78836 0.06546 0.0
O46 O 0.78158 0.79835 0.01022 0.0
Fe47 Fe 0.79929 0.81811 0.01351 0.0
O48 O 0.7905 0.82986 0.95612 0.0
O49 O 0.76361 0.8128 0.93336 0.0
O50 O 0.74784 0.78265 0.97194 0.0
C51 C 0.73795 0.78897 0.00869 0.0
C52 C 0.81476 0.79519 0.93861 0.0
O53 O 0.74677 0.79478 0.04824 0.0
C54 C 0.81176 0.79314 0.09186 0.0
O55 O 0.78231 0.76368 0.96607 0.0
O56 O 0.76942 0.76271 0.0402 0.0
O57 O 0.81763 0.80309 0.98105 0.0
O58 O 0.79717 0.79274 0.92094 0.0
C59 C 0.77409 0.83019 0.08653 0.0
O60 O 0.79723 0.78119 0.0864 0.0
O61 O 0.81135 0.81005 0.07154 0.0
C62 C 0.77726 0.75392 0.00331 0.0
O63 O 0.77344 0.81223 0.10077 0.0
O64 O 0.78213 0.8344 0.04624 0.0
C65 C 0.77389 0.82863 0.9327 0.0
Fe66 Fe 0.70216 0.31761 0.50853 0.0
Fe67 Fe 0.72944 0.28877 0.56543 0.0
O68 O 0.72023 0.29822 0.50849 0.0
Fe69 Fe 0.72899 0.28833 0.45152 0.0
O70 O 0.73827 0.31265 0.43375 0.0
O71 O 0.71086 0.32911 0.45169 0.0
O72 O 0.71897 0.33441 0.54259 0.0
C73 C 0.72682 0.33071 0.5843 0.0
C74 C 0.68741 0.29394 0.43267 0.0
O75 O 0.72766 0.31289 0.59961 0.0
C76 C 0.72552 0.25388 0.50373 0.0
O77 O 0.69005 0.30975 0.56537 0.0
O78 O 0.70454 0.28124 0.58317 0.0
O79 O 0.70511 0.2918 0.4174 0.0
O80 O 0.68423 0.302 0.47444 0.0
C81 C 0.76401 0.28979 0.51318 0.0
O82 O 0.73291 0.26304 0.54152 0.0
O83 O 0.72039 0.26334 0.4655 0.0
C84 C 0.68977 0.29292 0.58603 0.0
O85 O 0.75495 0.29555 0.55148 0.0
O86 O 0.7544 0.28309 0.47532 0.0
C87 C 0.72764 0.32821 0.43091 0.0
H88 H 0.22883 0.5159 0.91463 0.0
H89 H 0.23423 0.51679 0.07422 0.0
H90 H 0.23617 0.57175 0.99546 0.0
H91 H 0.24293 0.48536 0.06438 0.0
C92 C 0.23579 0.47939 0.03071 0.0
C93 C 0.23063 0.52416 0.94948 0.0
C94 C 0.23212 0.54516 0.94971 0.0
C95 C 0.23157 0.51367 0.994 0.0
C96 C 0.23377 0.52446 0.03938 0.0
C97 C 0.23569 0.54542 0.04001 0.0
C98 C 0.23467 0.55558 0.99511 0.0
N99 N 0.23026 0.49237 0.99156 0.0
H100 H 0.98972 0.75949 0.60173 0.0
H101 H 0.98641 0.76222 0.44219 0.0
H102 H 0.93309 0.76837 0.52681 0.0
H103 H 0.01521 0.74572 0.44599 0.0
C104 C 0.02284 0.75025 0.48036 0.0
C105 C 0.98101 0.76115 0.5677 0.0
C106 C 0.96022 0.76392 0.56962 0.0
C107 C 0.9906 0.75989 0.52196 0.0
C108 C 0.97925 0.76225 0.47774 0.0
C109 C 0.9585 0.76553 0.47937 0.0
C110 C 0.94914 0.76609 0.52538 0.0
N111 N 0.01167 0.75665 0.52211 0.0
H112 H 0.76818 0.50289 0.10123 0.0
H113 H 0.76619 0.50398 0.94146 0.0
H114 H 0.75451 0.44928 0.01605 0.0
H115 H 0.78609 0.53083 0.95327 0.0
C116 C 0.7804 0.53822 0.98634 0.0
C117 C 0.7661 0.49519 0.06569 0.0
C118 C 0.76078 0.47484 0.06381 0.0
C119 C 0.76845 0.50582 0.02185 0.0
C120 C 0.76527 0.49588 0.97562 0.0
C121 C 0.76002 0.4755 0.9733 0.0
C122 C 0.75799 0.46515 0.01756 0.0
N123 N 0.773 0.52664 0.02561 0.0
H124 H 0.01219 0.25392 0.41616 0.0
H125 H 0.01493 0.25923 0.57592 0.0
H126 H 0.06806 0.24621 0.49541 0.0
H127 H 0.98281 0.25501 0.57197 0.0
C128 C 0.97697 0.25925 0.5359 0.0
C129 C 0.02067 0.25356 0.45085 0.0
C130 C 0.04133 0.2497 0.45055 0.0
C131 C 0.01075 0.25641 0.49585 0.0
C132 C 0.02194 0.25618 0.54086 0.0
C133 C 0.04265 0.25263 0.54087 0.0
C134 C 0.05211 0.24921 0.49563 0.0
N135 N 0.98967 0.25968 0.49425 0.0
H136 H 0.73124 1.00259 0.59802 0.0
H137 H 0.73142 1.00186 0.4383 0.0
H138 H 0.73313 0.9466 0.51638 0.0
H139 H 0.74519 0.03227 0.45036 0.0
C140 C 0.73753 0.03869 0.48205 0.0
C141 C 0.73149 0.99431 0.56303 0.0
C142 C 0.73174 0.97326 0.56252 0.0
C143 C 0.73173 0.00483 0.51856 0.0
C144 C 0.7319 0.99405 0.47301 0.0
C145 C 0.73219 0.97301 0.47196 0.0
C146 C 0.73212 0.96281 0.51687 0.0
N147 N 0.73143 0.02615 0.52094 0.0
H148 H 0.51366 0.26044 0.91592 0.0
H149 H 0.51264 0.2631 0.0756 0.0
H150 H 0.5672 0.27478 0.00058 0.0
H151 H 0.48678 0.24204 0.06429 0.0
C152 C 0.47906 0.24724 0.03117 0.0
C153 C 0.52134 0.26284 0.95136 0.0
C154 C 0.54165 0.26831 0.95301 0.0
C155 C 0.51079 0.26052 0.99531 0.0
C156 C 0.5207 0.26401 0.0414 0.0
C157 C 0.54104 0.26937 0.04356 0.0
C158 C 0.55133 0.27135 0.9992 0.0
N159 N 0.49014 0.25529 0.99183 0.0
H160 H 0.26749 0.014 0.41566 0.0
H161 H 0.26934 0.01623 0.57558 0.0
H162 H 0.25618 0.06933 0.49479 0.0
H163 H 0.28634 0.98771 0.56796 0.0
C164 C 0.28082 0.98031 0.53415 0.0
C165 C 0.26634 0.02245 0.45026 0.0
C166 C 0.26126 0.04286 0.44971 0.0
C167 C 0.26958 0.01267 0.49528 0.0
C168 C 0.26762 0.02354 0.5404 0.0
C169 C 0.26252 0.04395 0.54025 0.0
C170 C 0.25956 0.05344 0.49488 0.0
N171 N 0.27374 0.99176 0.49355 0.0
H172 H 0.48899 0.75361 0.10101 0.0
H173 H 0.4879 0.75793 0.9417 0.0
H174 H 0.43363 0.74667 0.01832 0.0
H175 H 0.51975 0.74839 0.94961 0.0
C176 C 0.52535 0.75517 0.98414 0.0
C177 C 0.48078 0.75326 0.06589 0.0
C178 C 0.46005 0.7498 0.06482 0.0
C179 C 0.49114 0.75554 0.02164 0.0
C180 C 0.48038 0.75528 0.97602 0.0
C181 C 0.45957 0.75229 0.97465 0.0
C182 C 0.44965 0.74932 0.01915 0.0
N183 N 0.51226 0.75835 0.02445 0.0
H184 H 0.18331 0.25847 0.13867 0.0
H185 H 0.15559 0.26493 0.19472 0.0
H186 H 0.12991 0.20746 0.15424 0.0
H187 H 0.15726 0.20099 0.09766 0.0
H188 H 0.1014 0.23804 0.16033 0.0
H189 H 0.1514 0.23706 0.32774 0.0
H190 H 0.1581 0.25491 0.28209 0.0
H191 H 0.15948 0.22855 0.2675 0.0
C192 C 0.17173 0.24723 0.14154 0.0
C193 C 0.17267 0.2291 0.11409 0.0
C194 C 0.15592 0.25094 0.17368 0.0
C195 C 0.14086 0.23654 0.17917 0.0
C196 C 0.14141 0.21875 0.15065 0.0
H197 H 0.06593 0.21867 0.42759 0.0
H198 H 0.08836 0.21579 0.35746 0.0
C199 C 0.15713 0.21505 0.11846 0.0
C200 C 0.12495 0.23949 0.21608 0.0
H201 H 0.11732 0.24392 0.34048 0.0
C202 C 0.10483 0.23943 0.19973 0.0
C203 C 0.1295 0.24104 0.26747 0.0
C204 C 0.15076 0.24023 0.28748 0.0
C205 C 0.08913 0.24075 0.23352 0.0
C206 C 0.09373 0.24241 0.28485 0.0
C207 C 0.11384 0.2427 0.30106 0.0
C208 C 0.07808 0.243 0.32299 0.0
C209 C 0.0678 0.23973 0.21419 0.0
C210 C 0.06443 0.25897 0.32616 0.0
C211 C 0.05145 0.26056 0.36618 0.0
C212 C 0.05216 0.24632 0.40377 0.0
C213 C 0.06519 0.2299 0.39922 0.0
C214 C 0.07801 0.22826 0.35925 0.0
H215 H 0.06685 0.23396 0.17525 0.0
H216 H 0.05863 0.22998 0.2376 0.0
H217 H 0.0612 0.25498 0.21534 0.0
H218 H 0.06445 0.27068 0.29902 0.0
H219 H 0.04169 0.27346 0.36918 0.0
H220 H 0.28847 0.65276 0.59101 0.0
H221 H 0.27861 0.62559 0.64429 0.0
H222 H 0.23146 0.66245 0.70374 0.0
H223 H 0.24098 0.68968 0.64971 0.0
H224 H 0.27926 0.62677 0.74475 0.0
H225 H 0.20231 0.60996 0.6747 0.0
H226 H 0.21968 0.62481 0.64067 0.0
H227 H 0.20622 0.63586 0.6914 0.0
C228 C 0.27588 0.65508 0.61508 0.0
C229 C 0.26557 0.67346 0.61624 0.0
C230 C 0.27024 0.63949 0.64544 0.0
C231 C 0.25416 0.64188 0.67757 0.0
C232 C 0.24364 0.6601 0.67843 0.0
H233 H 0.21144 0.57927 0.92853 0.0
H234 H 0.21597 0.60109 0.85797 0.0
C235 C 0.2492 0.67571 0.64779 0.0
C236 C 0.24947 0.62583 0.71269 0.0
H237 H 0.21213 0.59534 0.75154 0.0
C238 C 0.26464 0.61974 0.74586 0.0
C239 C 0.23038 0.61672 0.71414 0.0
C240 C 0.21375 0.62201 0.67802 0.0
C241 C 0.26113 0.60518 0.7813 0.0
C242 C 0.24198 0.59623 0.78315 0.0
C243 C 0.22682 0.60217 0.74977 0.0
C244 C 0.23724 0.5816 0.82166 0.0
C245 C 0.27774 0.59997 0.8176 0.0
C246 C 0.24713 0.56307 0.82357 0.0
C247 C 0.24461 0.55058 0.86394 0.0
C248 C 0.23216 0.55648 0.90298 0.0
C249 C 0.22133 0.57448 0.89929 0.0
C250 C 0.22382 0.5869 0.85894 0.0
H251 H 0.29017 0.61102 0.81754 0.0
H252 H 0.272 0.5992 0.85583 0.0
H253 H 0.28391 0.58504 0.8074 0.0
H254 H 0.25736 0.55862 0.79474 0.0
H255 H 0.25319 0.53684 0.86586 0.0
H256 H 0.81823 0.75837 0.14226 0.0
H257 H 0.84516 0.75145 0.20248 0.0
H258 H 0.86993 0.81014 0.18056 0.0
H259 H 0.8434 0.81708 0.11978 0.0
H260 H 0.89901 0.78054 0.18554 0.0
H261 H 0.8467 0.77618 0.34227 0.0
H262 H 0.84123 0.75913 0.29133 0.0
H263 H 0.83918 0.78568 0.28263 0.0
C264 C 0.82944 0.76979 0.15011 0.0
C265 C 0.8285 0.78838 0.1266 0.0
C266 C 0.84478 0.76582 0.18465 0.0
C267 C 0.85934 0.78042 0.19658 0.0
C268 C 0.85881 0.7987 0.17201 0.0
H269 H 0.931 0.79475 0.46232 0.0
H270 H 0.9083 0.79783 0.39066 0.0
C271 C 0.84356 0.80265 0.13738 0.0
C272 C 0.87476 0.77705 0.23587 0.0
H273 H 0.88073 0.76969 0.36009 0.0
C274 C 0.89506 0.77808 0.2237 0.0
C275 C 0.86952 0.7741 0.28571 0.0
C276 C 0.84799 0.77387 0.30154 0.0
C277 C 0.91028 0.77635 0.26015 0.0
C278 C 0.90502 0.77322 0.30987 0.0
C279 C 0.88473 0.772 0.32187 0.0
C280 C 0.92015 0.77213 0.35077 0.0
C281 C 0.93181 0.77855 0.24544 0.0
C282 C 0.93458 0.75683 0.35179 0.0
C283 C 0.94768 0.75511 0.39275 0.0
C284 C 0.94632 0.76849 0.4335 0.0
C285 C 0.93222 0.78409 0.43167 0.0
C286 C 0.91928 0.78588 0.39075 0.0
H287 H 0.93308 0.78554 0.20864 0.0
H288 H 0.94036 0.78777 0.27338 0.0
H289 H 0.93885 0.76352 0.24327 0.0
H290 H 0.93529 0.74585 0.32173 0.0
H291 H 0.95828 0.74284 0.39345 0.0
H292 H 0.73801 0.32913 0.6823 0.0
H293 H 0.74537 0.35721 0.73933 0.0
H294 H 0.73694 0.39853 0.62003 0.0
H295 H 0.72913 0.37055 0.56278 0.0
H296 H 0.77422 0.38665 0.73988 0.0
H297 H 0.69806 0.41965 0.72278 0.0
H298 H 0.70387 0.39489 0.69919 0.0
H299 H 0.71099 0.41659 0.66546 0.0
C300 C 0.73778 0.34417 0.66805 0.0
C301 C 0.73272 0.34759 0.61807 0.0
C302 C 0.74202 0.36021 0.70072 0.0
C303 C 0.74135 0.37998 0.68411 0.0
C304 C 0.73709 0.38342 0.63386 0.0
H305 H 0.78236 0.47719 0.88923 0.0
H306 H 0.77835 0.45652 0.81326 0.0
C307 C 0.73272 0.36739 0.60117 0.0
C308 C 0.74464 0.39687 0.71997 0.0
H309 H 0.7213 0.43676 0.77511 0.0
C310 C 0.76274 0.39773 0.74735 0.0
C311 C 0.72954 0.41119 0.72982 0.0
C312 C 0.70945 0.41052 0.70314 0.0
C313 C 0.76597 0.41221 0.78522 0.0
C314 C 0.75083 0.42647 0.79524 0.0
C315 C 0.73295 0.42593 0.76697 0.0
C316 C 0.75235 0.44061 0.83832 0.0
C317 C 0.78516 0.4115 0.81573 0.0
C318 C 0.73853 0.43918 0.87644 0.0
C319 C 0.74061 0.4511 0.91933 0.0
C320 C 0.75661 0.4647 0.92511 0.0
C321 C 0.7699 0.46684 0.88586 0.0
C322 C 0.76776 0.4549 0.84271 0.0
H323 H 0.79339 0.39721 0.80977 0.0
H324 H 0.79505 0.42396 0.80511 0.0
H325 H 0.78209 0.41331 0.85587 0.0
H326 H 0.72644 0.42838 0.87366 0.0
H327 H 0.72989 0.44939 0.94847 0.0
H328 H 0.68838 0.2831 0.33442 0.0
H329 H 0.66001 0.27786 0.27706 0.0
H330 H 0.61916 0.28858 0.39634 0.0
H331 H 0.64748 0.29431 0.45394 0.0
H332 H 0.62919 0.25094 0.27554 0.0
H333 H 0.60028 0.32874 0.29442 0.0
H334 H 0.62459 0.3215 0.31824 0.0
H335 H 0.60244 0.31547 0.35147 0.0
C336 C 0.67338 0.2843 0.34859 0.0
C337 C 0.67022 0.28936 0.39868 0.0
C338 C 0.65717 0.28127 0.31573 0.0
C339 C 0.63748 0.28319 0.33224 0.0
C340 C 0.63423 0.2875 0.38257 0.0
H341 H 0.53877 0.24699 0.12743 0.0
H342 H 0.5596 0.25021 0.20313 0.0
C343 C 0.65045 0.29067 0.41547 0.0
C344 C 0.62049 0.28095 0.29626 0.0
H345 H 0.58188 0.3065 0.24188 0.0
C346 C 0.61873 0.26301 0.26839 0.0
C347 C 0.60699 0.29683 0.28678 0.0
C348 C 0.6087 0.31679 0.31393 0.0
C349 C 0.60415 0.26066 0.23046 0.0
C350 C 0.59065 0.27653 0.22097 0.0
C351 C 0.59211 0.2943 0.24963 0.0
C352 C 0.57629 0.27575 0.17827 0.0
C353 C 0.60397 0.24156 0.19939 0.0
C354 C 0.57805 0.28967 0.14043 0.0
C355 C 0.56599 0.28808 0.09768 0.0
C356 C 0.55193 0.27248 0.09176 0.0
C357 C 0.54945 0.25916 0.13085 0.0
C358 C 0.5615 0.26084 0.17386 0.0
H359 H 0.61796 0.23279 0.20456 0.0
H360 H 0.59125 0.23206 0.21033 0.0
H361 H 0.60202 0.24485 0.1594 0.0
H362 H 0.58924 0.30141 0.14324 0.0
H363 H 0.56798 0.29883 0.06871 0.0
H364 H 0.26378 0.18716 0.87173 0.0
H365 H 0.27331 0.16048 0.81303 0.0
H366 H 0.21825 0.12932 0.84017 0.0
H367 H 0.20876 0.15557 0.89934 0.0
H368 H 0.25119 0.10381 0.83521 0.0
H369 H 0.24717 0.15477 0.67492 0.0
H370 H 0.264 0.16248 0.72457 0.0
H371 H 0.23754 0.16169 0.73483 0.0
C372 C 0.25374 0.17459 0.86536 0.0
C373 C 0.23538 0.17365 0.88979 0.0
C374 C 0.25919 0.15939 0.83172 0.0
C375 C 0.24633 0.14309 0.82171 0.0
C376 C 0.22836 0.14179 0.84727 0.0
H377 H 0.2314 0.06818 0.56418 0.0
H378 H 0.22886 0.09091 0.63595 0.0
C379 C 0.22293 0.15689 0.88094 0.0
C380 C 0.25098 0.12776 0.78306 0.0
H381 H 0.25598 0.12126 0.65814 0.0
C382 C 0.2524 0.10759 0.7965 0.0
C383 C 0.25233 0.13277 0.73258 0.0
C384 C 0.25003 0.15406 0.71558 0.0
C385 C 0.2548 0.09224 0.76062 0.0
C386 C 0.25605 0.09728 0.71016 0.0
C387 C 0.25507 0.11747 0.69692 0.0
C388 C 0.25701 0.0819 0.66981 0.0
C389 C 0.25519 0.07074 0.77669 0.0
C390 C 0.2735 0.06897 0.66555 0.0
C391 C 0.27493 0.05583 0.62452 0.0
C392 C 0.26 0.05568 0.58698 0.0
C393 C 0.24321 0.06816 0.59233 0.0
C394 C 0.24175 0.08113 0.63328 0.0
H395 H 0.24996 0.06919 0.81523 0.0
H396 H 0.24567 0.06122 0.75148 0.0
H397 H 0.27075 0.065 0.77509 0.0
H398 H 0.28559 0.06953 0.69296 0.0
H399 H 0.28809 0.04649 0.62101 0.0
H400 H 0.31872 0.75922 0.38056 0.0
H401 H 0.34633 0.76569 0.32487 0.0
H402 H 0.37122 0.70759 0.3558 0.0
H403 H 0.34399 0.70111 0.41203 0.0
H404 H 0.40018 0.73772 0.35363 0.0
H405 H 0.34948 0.73878 0.18751 0.0
H406 H 0.34328 0.75639 0.23607 0.0
H407 H 0.3415 0.72997 0.24664 0.0
C408 C 0.33011 0.74785 0.37568 0.0
C409 C 0.32898 0.72954 0.40032 0.0
C410 C 0.34584 0.75155 0.34375 0.0
C411 C 0.36064 0.73698 0.33564 0.0
C412 C 0.35993 0.71901 0.36143 0.0
H413 H 0.43438 0.71947 0.08307 0.0
H414 H 0.41191 0.71675 0.15283 0.0
C415 C 0.34427 0.71531 0.39343 0.0
C416 C 0.37644 0.73997 0.29877 0.0
H417 H 0.38361 0.74524 0.17492 0.0
C418 C 0.39661 0.73947 0.31455 0.0
C419 C 0.37169 0.74199 0.24777 0.0
C420 C 0.35034 0.74165 0.22823 0.0
C421 C 0.41218 0.7408 0.28056 0.0
C422 C 0.40739 0.74294 0.22964 0.0
C423 C 0.38723 0.74367 0.21404 0.0
C424 C 0.42289 0.74351 0.19118 0.0
C425 C 0.43357 0.73927 0.29913 0.0
C426 C 0.43689 0.75919 0.1902 0.0
C427 C 0.44988 0.76069 0.15037 0.0
C428 C 0.44883 0.74667 0.11077 0.0
C429 C 0.43537 0.73056 0.11296 0.0
C430 C 0.42254 0.72901 0.15274 0.0
H431 H 0.43457 0.73319 0.33711 0.0
H432 H 0.44245 0.72956 0.27394 0.0
H433 H 0.44044 0.75441 0.30021 0.0
H434 H 0.4372 0.77072 0.21908 0.0
H435 H 0.46 0.77334 0.14926 0.0
H436 H 0.74281 0.82932 0.86434 0.0
H437 H 0.73407 0.85633 0.8078 0.0
H438 H 0.78163 0.89273 0.87215 0.0
H439 H 0.79071 0.8658 0.92805 0.0
H440 H 0.72291 0.89635 0.82511 0.0
H441 H 0.79455 0.89144 0.7251 0.0
H442 H 0.78659 0.87238 0.76672 0.0
H443 H 0.79754 0.89528 0.79091 0.0
C444 C 0.75139 0.84308 0.86653 0.0
C445 C 0.76765 0.84527 0.90028 0.0
C446 C 0.74635 0.85851 0.83426 0.0
C447 C 0.75745 0.87638 0.83514 0.0
C448 C 0.77317 0.87889 0.87003 0.0
H449 H 0.75605 0.98011 0.6441 0.0
H450 H 0.76088 0.95834 0.71544 0.0
C451 C 0.77829 0.86347 0.90208 0.0
C452 C 0.75288 0.89224 0.79895 0.0
H453 H 0.77296 0.91816 0.70432 0.0
C454 C 0.73384 0.90113 0.79867 0.0
C455 C 0.76717 0.89845 0.76449 0.0
C456 C 0.78755 0.88879 0.76134 0.0
C457 C 0.72876 0.9162 0.76506 0.0
C458 C 0.74303 0.92232 0.73054 0.0
C459 C 0.76211 0.91356 0.73116 0.0
C460 C 0.73822 0.93689 0.69133 0.0
C461 C 0.70823 0.92555 0.76699 0.0
C462 C 0.72369 0.93218 0.65459 0.0
C463 C 0.72091 0.94457 0.61397 0.0
C464 C 0.73266 0.96187 0.60918 0.0
C465 C 0.74664 0.967 0.64705 0.0
C466 C 0.74948 0.95453 0.68764 0.0
H467 H 0.70126 0.9234 0.80351 0.0
H468 H 0.70892 0.94184 0.75971 0.0
H469 H 0.69841 0.91837 0.73806 0.0
H470 H 0.71508 0.91848 0.65622 0.0
H471 H 0.70996 0.94029 0.58546 0.0
H472 H 0.85454 0.79507 0.96587 0.0
H473 H 0.88323 0.78927 0.91223 0.0
H474 H 0.84315 0.77994 0.78652 0.0
H475 H 0.81439 0.78552 0.83957 0.0
H476 H 0.88874 0.75203 0.83904 0.0
H477 H 0.88544 0.82766 0.75644 0.0
H478 H 0.87567 0.82263 0.81687 0.0
H479 H 0.86208 0.81452 0.76196 0.0
C480 C 0.85181 0.79172 0.92684 0.0
C481 C 0.83216 0.79086 0.90696 0.0
C482 C 0.86822 0.78838 0.89636 0.0
C483 C 0.86523 0.78434 0.84554 0.0
C484 C 0.84569 0.78316 0.8257 0.0
H485 H 0.92759 0.74247 0.59484 0.0
H486 H 0.9074 0.74691 0.66882 0.0
C487 C 0.82929 0.78632 0.85612 0.0
C488 C 0.88244 0.78161 0.81265 0.0
H489 H 0.9067 0.80373 0.71831 0.0
C490 C 0.89288 0.76339 0.81302 0.0
C491 C 0.88786 0.79656 0.77925 0.0
C492 C 0.87732 0.81654 0.77852 0.0
C493 C 0.9081 0.7594 0.77906 0.0
C494 C 0.91284 0.774 0.74399 0.0
C495 C 0.90302 0.79257 0.74526 0.0
C496 C 0.92657 0.7697 0.70278 0.0
C497 C 0.91874 0.7395 0.78029 0.0
C498 C 0.9441 0.78098 0.69753 0.0
C499 C 0.95573 0.77839 0.65531 0.0
C500 C 0.94973 0.76476 0.61742 0.0
C501 C 0.9325 0.7531 0.62351 0.0
C502 C 0.92104 0.75553 0.66584 0.0
H503 H 0.91727 0.73228 0.81674 0.0
H504 H 0.91207 0.72933 0.75133 0.0
H505 H 0.93488 0.74129 0.77245 0.0
H506 H 0.94848 0.79212 0.7255 0.0
H507 H 0.96886 0.78767 0.65121 0.0
H508 H 0.70667 0.3622 0.40972 0.0
H509 H 0.71569 0.38866 0.3535 0.0
H510 H 0.77158 0.35887 0.32417 0.0
H511 H 0.76252 0.33199 0.37985 0.0
H512 H 0.74802 0.415 0.35213 0.0
H513 H 0.746 0.36408 0.18607 0.0
H514 H 0.73628 0.35686 0.24491 0.0
H515 H 0.7628 0.35671 0.23526 0.0
C516 C 0.72092 0.36122 0.39146 0.0
C517 C 0.73375 0.34479 0.39881 0.0
C518 C 0.72608 0.37645 0.35946 0.0
C519 C 0.74417 0.3756 0.33413 0.0
C520 C 0.75737 0.35962 0.34267 0.0
H521 H 0.78588 0.47265 0.14538 0.0
H522 H 0.78308 0.4497 0.21491 0.0
C523 C 0.75219 0.3443 0.37459 0.0
C524 C 0.74863 0.39107 0.29733 0.0
H525 H 0.75437 0.39776 0.17341 0.0
C526 C 0.74956 0.41126 0.31307 0.0
C527 C 0.75042 0.38613 0.24636 0.0
C528 C 0.74867 0.36481 0.22688 0.0
C529 C 0.75194 0.42668 0.27903 0.0
C530 C 0.75366 0.42171 0.2281 0.0
C531 C 0.75311 0.4015 0.21256 0.0
C532 C 0.7547 0.43713 0.18954 0.0
C533 C 0.75186 0.44817 0.29749 0.0
C534 C 0.73961 0.4378 0.15265 0.0
C535 C 0.74122 0.45075 0.1131 0.0
C536 C 0.75799 0.46329 0.1095 0.0
C537 C 0.77272 0.46326 0.14753 0.0
C538 C 0.77114 0.45017 0.18719 0.0
H539 H 0.74647 0.44961 0.33607 0.0
H540 H 0.76731 0.45423 0.29685 0.0
H541 H 0.74225 0.4575 0.2731 0.0
H542 H 0.72677 0.42793 0.15386 0.0
H543 H 0.72955 0.45061 0.08458 0.0
H544 H 0.18957 0.24272 0.83956 0.0
H545 H 0.16196 0.24884 0.78116 0.0
H546 H 0.12077 0.22167 0.88053 0.0
H547 H 0.14829 0.21573 0.93975 0.0
H548 H 0.13826 0.21922 0.73641 0.0
H549 H 0.09189 0.27353 0.8429 0.0
H550 H 0.11759 0.26815 0.85993 0.0
H551 H 0.09812 0.2508 0.87419 0.0
C552 C 0.17463 0.2382 0.84934 0.0
C553 C 0.17117 0.22865 0.89428 0.0
C554 C 0.15886 0.24173 0.81589 0.0
C555 C 0.13931 0.23587 0.8267 0.0
C556 C 0.13569 0.22665 0.87187 0.0
H557 H 0.03372 0.23397 0.62724 0.0
H558 H 0.05576 0.23006 0.70055 0.0
C559 C 0.15147 0.22316 0.90552 0.0
C560 C 0.12309 0.23826 0.78899 0.0
H561 H 0.07877 0.26211 0.76497 0.0
C562 C 0.12525 0.22857 0.74272 0.0
C563 C 0.10605 0.25034 0.79751 0.0
C564 C 0.10325 0.26145 0.84615 0.0
C565 C 0.11098 0.23086 0.70446 0.0
C566 C 0.09423 0.24331 0.71253 0.0
C567 C 0.0917 0.25259 0.75911 0.0
C568 C 0.0799 0.24761 0.67168 0.0
C569 C 0.11398 0.22007 0.65543 0.0
C570 C 0.08602 0.25926 0.63222 0.0
C571 C 0.07353 0.26157 0.59067 0.0
C572 C 0.05467 0.25223 0.58778 0.0
C573 C 0.04814 0.24139 0.62854 0.0
C574 C 0.0607 0.2391 0.67028 0.0
H575 H 0.12525 0.20789 0.65849 0.0
H576 H 0.09965 0.21356 0.64097 0.0
H577 H 0.11929 0.2309 0.62801 0.0
H578 H 0.10073 0.26611 0.633 0.0
H579 H 0.07882 0.27032 0.56025 0.0
H580 H 0.27297 0.64796 0.45075 0.0
H581 H 0.26451 0.62055 0.39232 0.0
H582 H 0.25231 0.66322 0.27789 0.0
H583 H 0.26044 0.69074 0.33605 0.0
H584 H 0.22384 0.63239 0.28107 0.0
H585 H 0.30162 0.60268 0.28041 0.0
H586 H 0.29042 0.6049 0.34023 0.0
H587 H 0.29558 0.62705 0.30617 0.0
C588 C 0.26841 0.65154 0.41321 0.0
C589 C 0.2676 0.67156 0.39794 0.0
C590 C 0.26365 0.63584 0.37985 0.0
C591 C 0.25811 0.63986 0.33061 0.0
C592 C 0.25664 0.65981 0.31572 0.0
H593 H 0.26322 0.57488 0.05787 0.0
H594 H 0.26771 0.59579 0.13264 0.0
C595 C 0.26134 0.67552 0.34901 0.0
C596 C 0.25439 0.62336 0.29391 0.0
H597 H 0.27764 0.58555 0.2303 0.0
C598 C 0.23551 0.622 0.27024 0.0
C599 C 0.26975 0.60997 0.2797 0.0
C600 C 0.29055 0.61123 0.30256 0.0
C601 C 0.23169 0.60786 0.23188 0.0
C602 C 0.2471 0.59458 0.21739 0.0
C603 C 0.26583 0.59564 0.24187 0.0
C604 C 0.24476 0.58094 0.1736 0.0
C605 C 0.21151 0.60784 0.20565 0.0
C606 C 0.23062 0.56537 0.17221 0.0
C607 C 0.22792 0.55342 0.12923 0.0
C608 C 0.23933 0.55691 0.08709 0.0
C609 C 0.25394 0.57208 0.08941 0.0
C610 C 0.25663 0.58394 0.1322 0.0
H611 H 0.20259 0.62136 0.21534 0.0
H612 H 0.21325 0.6071 0.16481 0.0
H613 H 0.20294 0.59445 0.21643 0.0
H614 H 0.22153 0.56261 0.2041 0.0
H615 H 0.21655 0.54184 0.12848 0.0
H616 H 0.35313 0.71421 0.57407 0.0
H617 H 0.38067 0.71951 0.63439 0.0
H618 H 0.34007 0.74856 0.7351 0.0
H619 H 0.31245 0.74308 0.67567 0.0
H620 H 0.39666 0.7543 0.68096 0.0
H621 H 0.36408 0.70347 0.81742 0.0
H622 H 0.35525 0.70422 0.75378 0.0
H623 H 0.34709 0.72278 0.79833 0.0
C624 C 0.35007 0.72179 0.60899 0.0
C625 C 0.33051 0.72796 0.62035 0.0
C626 C 0.36583 0.72482 0.64335 0.0
C627 C 0.36231 0.73405 0.68955 0.0
C628 C 0.34301 0.74098 0.70009 0.0
H629 H 0.42394 0.77068 0.95525 0.0
H630 H 0.4023 0.7664 0.8816 0.0
C631 C 0.32725 0.73788 0.66598 0.0
C632 C 0.3786 0.73609 0.72745 0.0
H633 H 0.3908 0.72456 0.84695 0.0
C634 C 0.39553 0.74763 0.71708 0.0
C635 C 0.37717 0.72716 0.77431 0.0
C636 C 0.36002 0.71354 0.78654 0.0
C637 C 0.41062 0.75122 0.75334 0.0
C638 C 0.40867 0.74301 0.80076 0.0
C639 C 0.39211 0.73097 0.81055 0.0
C640 C 0.42305 0.74744 0.84194 0.0
C641 C 0.42821 0.76429 0.74155 0.0
C642 C 0.44203 0.73845 0.84349 0.0
C643 C 0.45441 0.74074 0.88582 0.0
C644 C 0.44789 0.75196 0.92716 0.0
C645 C 0.42923 0.76167 0.92432 0.0
C646 C 0.41691 0.75934 0.88223 0.0
H647 H 0.42659 0.77106 0.70443 0.0
H648 H 0.42995 0.77647 0.77005 0.0
H649 H 0.44211 0.7552 0.74247 0.0
H650 H 0.4469 0.72903 0.81285 0.0
H651 H 0.46864 0.73298 0.8871 0.0
H652 H 0.75448 0.82673 0.1737 0.0
H653 H 0.74529 0.85349 0.23198 0.0
H654 H 0.76979 0.89737 0.13529 0.0
H655 H 0.77875 0.87072 0.07618 0.0
H656 H 0.77149 0.87929 0.27996 0.0
H657 H 0.71564 0.92179 0.16869 0.0
H658 H 0.72357 0.89679 0.15137 0.0
H659 H 0.73925 0.91793 0.13936 0.0
C660 C 0.75776 0.84208 0.16449 0.0
C661 C 0.76743 0.84656 0.12031 0.0
C662 C 0.75247 0.85736 0.19786 0.0
C663 C 0.75667 0.87743 0.18777 0.0
C664 C 0.76604 0.88202 0.14338 0.0
H665 H 0.75602 0.98045 0.39306 0.0
H666 H 0.76126 0.95868 0.31995 0.0
C667 C 0.77127 0.86674 0.10979 0.0
C668 C 0.75243 0.89329 0.22542 0.0
H669 H 0.72572 0.93621 0.24666 0.0
C670 C 0.76148 0.89172 0.27263 0.0
C671 C 0.73939 0.90953 0.2157 0.0
C672 C 0.72874 0.9116 0.16619 0.0
C673 C 0.75779 0.90589 0.31042 0.0
C674 C 0.74471 0.922 0.30081 0.0
C675 C 0.73581 0.92381 0.25358 0.0
C676 C 0.73959 0.9365 0.34062 0.0
C677 C 0.76776 0.90354 0.36069 0.0
C678 C 0.72533 0.93137 0.37544 0.0
C679 C 0.72226 0.94374 0.41697 0.0
C680 C 0.73347 0.96143 0.42447 0.0
C681 C 0.74706 0.96701 0.38813 0.0
C682 C 0.75011 0.95459 0.34649 0.0
H683 H 0.779 0.89127 0.36082 0.0
H684 H 0.77527 0.91773 0.37265 0.0
H685 H 0.75625 0.90022 0.38838 0.0
H686 H 0.71708 0.91744 0.37132 0.0
H687 H 0.71148 0.93919 0.44394 0.0
H688 H 0.68419 0.25882 0.63912 0.0
H689 H 0.65647 0.25136 0.69365 0.0
H690 H 0.6293 0.30817 0.65984 0.0
H691 H 0.65665 0.31563 0.60483 0.0
H692 H 0.64617 0.27249 0.77649 0.0
H693 H 0.58195 0.27037 0.64335 0.0
H694 H 0.60761 0.26919 0.62381 0.0
H695 H 0.59638 0.29292 0.63956 0.0
C696 C 0.67222 0.26965 0.64289 0.0
C697 C 0.67269 0.28785 0.61766 0.0
C698 C 0.65637 0.26534 0.674 0.0
C699 C 0.64064 0.27906 0.68019 0.0
C700 C 0.64099 0.29714 0.6547 0.0
H701 H 0.56673 0.29876 0.93072 0.0
H702 H 0.58972 0.30013 0.8617 0.0
C703 C 0.65678 0.30145 0.62358 0.0
C704 C 0.62472 0.2753 0.71629 0.0
H705 H 0.57397 0.2743 0.72957 0.0
C706 C 0.6304 0.27263 0.76608 0.0
C707 C 0.60413 0.27526 0.70263 0.0
C708 C 0.59714 0.27688 0.64933 0.0
C709 C 0.61607 0.27077 0.80288 0.0
C710 C 0.5955 0.27193 0.78967 0.0
C711 C 0.58976 0.27371 0.73963 0.0
C712 C 0.57992 0.27203 0.82788 0.0
C713 C 0.62308 0.26773 0.85575 0.0
C714 C 0.56612 0.25625 0.83031 0.0
C715 C 0.55286 0.25546 0.86975 0.0
C716 C 0.55327 0.27047 0.90718 0.0
C717 C 0.56632 0.28682 0.90287 0.0
C718 C 0.57948 0.28761 0.86354 0.0
H719 H 0.63862 0.26182 0.85766 0.0
H720 H 0.62286 0.28232 0.87626 0.0
H721 H 0.61309 0.25721 0.87478 0.0
H722 H 0.56616 0.24416 0.80286 0.0
H723 H 0.54299 0.24267 0.87224 0.0
H724 H 0.23004 0.14755 0.05053 0.0
H725 H 0.23793 0.1196 0.10473 0.0
H726 H 0.24589 0.16093 0.22874 0.0
H727 H 0.23844 0.18898 0.17478 0.0
H728 H 0.27498 0.13163 0.22608 0.0
H729 H 0.19898 0.09823 0.20491 0.0
H730 H 0.21193 0.10145 0.148 0.0
H731 H 0.20469 0.12306 0.18427 0.0
C732 C 0.23354 0.15072 0.08931 0.0
C733 C 0.23338 0.17051 0.10843 0.0
C734 C 0.23796 0.1347 0.12025 0.0
C735 C 0.24211 0.13816 0.17093 0.0
C736 C 0.24263 0.15792 0.18976 0.0
H737 H 0.23104 0.0688 0.42776 0.0
H738 H 0.22744 0.08971 0.35511 0.0
C739 C 0.23833 0.17395 0.15884 0.0
C740 C 0.24546 0.12127 0.20491 0.0
H741 H 0.22227 0.08122 0.25541 0.0
C742 C 0.26355 0.12048 0.23224 0.0
C743 C 0.23042 0.10686 0.21307 0.0
C744 C 0.21033 0.10745 0.1864 0.0
C745 C 0.26684 0.10598 0.26843 0.0
C746 C 0.25175 0.09163 0.27676 0.0
C747 C 0.23387 0.09211 0.24853 0.0
C748 C 0.25331 0.07748 0.31827 0.0
C749 C 0.28601 0.10675 0.29906 0.0
C750 C 0.26872 0.06321 0.32103 0.0
C751 C 0.27093 0.0513 0.36292 0.0
C752 C 0.25771 0.05348 0.40253 0.0
C753 C 0.2417 0.06705 0.39829 0.0
C754 C 0.23954 0.07891 0.35664 0.0
H755 H 0.29422 0.12104 0.29463 0.0
H756 H 0.28292 0.10495 0.339 0.0
H757 H 0.29592 0.09429 0.28715 0.0
H758 H 0.27928 0.06159 0.29133 0.0
H759 H 0.2834 0.04098 0.36513 0.0
H760 H 0.23654 0.2898 0.08118 0.0
H761 H 0.23665 0.32638 0.08193 0.0
H762 H 0.21262 0.32583 0.93227 0.0
H763 H 0.21225 0.28917 0.93119 0.0
H764 H 0.25772 0.35065 0.01664 0.0
H765 H 0.17589 0.36549 0.00593 0.0
H766 H 0.18605 0.34149 0.02306 0.0
H767 H 0.18525 0.34855 0.9592 0.0
C768 C 0.23111 0.2974 0.04849 0.0
C769 C 0.22441 0.28649 0.00608 0.0
C770 C 0.2312 0.31833 0.04901 0.0
C771 C 0.22447 0.32882 0.00736 0.0
C772 C 0.21756 0.31803 0.96513 0.0
H773 H 0.22058 0.45736 0.95078 0.0
H774 H 0.21801 0.42077 0.94303 0.0
C775 C 0.21747 0.29707 0.96452 0.0
C776 C 0.22564 0.351 0.00755 0.0
H777 H 0.19736 0.39355 0.00161 0.0
C778 C 0.24452 0.36004 0.01341 0.0
C779 C 0.20841 0.36319 0.00288 0.0
C780 C 0.18771 0.35426 0.9978 0.0
C781 C 0.24668 0.38095 0.01479 0.0
C782 C 0.22943 0.39317 0.0112 0.0
C783 C 0.21055 0.38415 0.00444 0.0
C784 C 0.23067 0.41531 0.01601 0.0
C785 C 0.26744 0.38977 0.0195 0.0
C786 C 0.2383 0.42437 0.0599 0.0
C787 C 0.23983 0.44519 0.06437 0.0
C788 C 0.23361 0.45738 0.0252 0.0
C789 C 0.22558 0.44835 0.98155 0.0
C790 C 0.22408 0.42746 0.97708 0.0
H791 H 0.27903 0.37884 0.00764 0.0
H792 H 0.26875 0.40342 0.997 0.0
H793 H 0.27064 0.394 0.05888 0.0
H794 H 0.24307 0.4153 0.09081 0.0
H795 H 0.24592 0.45179 0.09852 0.0
H796 H 0.21159 0.71988 0.42593 0.0
H797 H 0.17513 0.72338 0.42304 0.0
H798 H 0.17638 0.74561 0.57436 0.0
H799 H 0.21279 0.74243 0.57752 0.0
H800 H 0.14619 0.70597 0.48238 0.0
H801 H 0.14489 0.78894 0.50117 0.0
H802 H 0.16727 0.77516 0.48612 0.0
H803 H 0.15904 0.77671 0.54908 0.0
C804 C 0.20414 0.72554 0.45861 0.0
C805 C 0.21518 0.73105 0.50182 0.0
C806 C 0.18329 0.72751 0.45688 0.0
C807 C 0.17309 0.7351 0.49817 0.0
C808 C 0.18399 0.74015 0.5417 0.0
H809 H 0.04805 0.75895 0.56006 0.0
H810 H 0.08446 0.75473 0.56445 0.0
C811 C 0.20482 0.73821 0.54349 0.0
C812 C 0.15102 0.73751 0.49592 0.0
H813 H 0.11367 0.77223 0.50555 0.0
C814 C 0.13906 0.72046 0.48722 0.0
C815 C 0.14178 0.75644 0.50236 0.0
C816 C 0.15387 0.7754 0.50977 0.0
C817 C 0.11808 0.72177 0.4856 0.0
C818 C 0.10884 0.74069 0.492 0.0
C819 C 0.1208 0.75774 0.50077 0.0
C820 C 0.08679 0.74316 0.48923 0.0
C821 C 0.10597 0.70282 0.47807 0.0
C822 C 0.07607 0.73832 0.44527 0.0
C823 C 0.05529 0.7407 0.44267 0.0
C824 C 0.04487 0.74805 0.48388 0.0
C825 C 0.05564 0.75315 0.52772 0.0
C826 C 0.07644 0.75078 0.53028 0.0
H827 H 0.11493 0.68927 0.48671 0.0
H828 H 0.09254 0.70308 0.50159 0.0
H829 H 0.10086 0.70154 0.43871 0.0
H830 H 0.08379 0.73282 0.41282 0.0
H831 H 0.04735 0.73679 0.40836 0.0
H832 H 0.79112 0.72929 0.92868 0.0
H833 H 0.79216 0.69259 0.92657 0.0
H834 H 0.76804 0.69166 0.07339 0.0
H835 H 0.76673 0.7282 0.07578 0.0
H836 H 0.81212 0.66604 0.99171 0.0
H837 H 0.72977 0.65503 0.99186 0.0
H838 H 0.74112 0.67877 0.9783 0.0
H839 H 0.73937 0.67095 0.04138 0.0
C840 C 0.78601 0.72129 0.96052 0.0
C841 C 0.77865 0.73173 0.00221 0.0
C842 C 0.78664 0.70032 0.95925 0.0
C843 C 0.77985 0.68941 0.99946 0.0
C844 C 0.77295 0.69977 0.04152 0.0
H845 H 0.76804 0.56292 0.06285 0.0
H846 H 0.76881 0.59961 0.06648 0.0
C847 C 0.77231 0.72069 0.04287 0.0
C848 C 0.78008 0.66719 0.9977 0.0
H849 H 0.74983 0.62605 0.00209 0.0
C850 C 0.79851 0.65727 0.99372 0.0
C851 C 0.76229 0.65581 0.00049 0.0
C852 C 0.74198 0.66563 0.0028 0.0
C853 C 0.79968 0.63625 0.99339 0.0
C854 C 0.78188 0.62487 0.9962 0.0
C855 C 0.76345 0.6348 1.00012 0.0
C856 C 0.78199 0.60264 0.99447 0.0
C857 C 0.81998 0.62643 0.99115 0.0
C858 C 0.78899 0.59217 0.95261 0.0
C859 C 0.78859 0.57123 0.95049 0.0
C860 C 0.78108 0.56038 0.99001 0.0
C861 C 0.774 0.57085 0.03186 0.0
C862 C 0.7744 0.59182 0.03397 0.0
H863 H 0.83216 0.63699 0.00261 0.0
H864 H 0.82077 0.61318 0.01527 0.0
H865 H 0.82271 0.62131 0.95247 0.0
H866 H 0.79449 0.6002 0.92124 0.0
H867 H 0.794 0.56351 0.91767 0.0
H868 H 0.78868 0.28219 0.43543 0.0
H869 H 0.82512 0.27835 0.43806 0.0
H870 H 0.82603 0.29082 0.59552 0.0
H871 H 0.78959 0.29482 0.59342 0.0
H872 H 0.8562 0.3081 0.48157 0.0
H873 H 0.85372 0.23369 0.57039 0.0
H874 H 0.83262 0.24375 0.53608 0.0
H875 H 0.83877 0.25343 0.59707 0.0
C876 C 0.79661 0.28421 0.47064 0.0
C877 C 0.78618 0.28868 0.5143 0.0
C878 C 0.81743 0.28205 0.47199 0.0
C879 C 0.82816 0.28413 0.51702 0.0
C880 C 0.81792 0.28902 0.56048 0.0
H881 H 0.95064 0.26223 0.61019 0.0
H882 H 0.91472 0.26918 0.60436 0.0
C883 C 0.79712 0.29135 0.55914 0.0
C884 C 0.85003 0.2807 0.51877 0.0
H885 H 0.88557 0.24764 0.55826 0.0
C886 C 0.86269 0.29489 0.49821 0.0
C887 C 0.85833 0.26345 0.54055 0.0
C888 C 0.84524 0.24757 0.56208 0.0
C889 C 0.88359 0.29249 0.49982 0.0
C890 C 0.89194 0.27516 0.52144 0.0
C891 C 0.87918 0.26092 0.54171 0.0
C892 C 0.91387 0.27159 0.52445 0.0
C893 C 0.89652 0.30882 0.47965 0.0
C894 C 0.92536 0.27051 0.48145 0.0
C895 C 0.94595 0.26672 0.48478 0.0
C896 C 0.95532 0.26366 0.53117 0.0
C897 C 0.94378 0.26457 0.57401 0.0
C898 C 0.92327 0.26851 0.57071 0.0
H899 H 0.88833 0.32327 0.47744 0.0
H900 H 0.91025 0.31114 0.50301 0.0
H901 H 0.9011 0.30446 0.44163 0.0
H902 H 0.91836 0.27232 0.44524 0.0
H903 H 0.95443 0.26593 0.45105 0.0
H904 H 0.73815 0.2286 0.57647 0.0
H905 H 0.73889 0.19202 0.5733 0.0
H906 H 0.71253 0.19201 0.42602 0.0
H907 H 0.7116 0.2287 0.42878 0.0
H908 H 0.69552 0.16347 0.49206 0.0
H909 H 0.77851 0.15927 0.48733 0.0
H910 H 0.76874 0.17439 0.53716 0.0
H911 H 0.76484 0.18194 0.47419 0.0
C912 C 0.73244 0.22088 0.54337 0.0
C913 C 0.72498 0.23165 0.50266 0.0
C914 C 0.73295 0.19995 0.54161 0.0
C915 C 0.72605 0.18935 0.49916 0.0
C916 C 0.71804 0.19995 0.45903 0.0
H917 H 0.75026 0.06571 0.41658 0.0
H918 H 0.74668 0.10223 0.42059 0.0
C919 C 0.71756 0.22092 0.46066 0.0
C920 C 0.72751 0.16719 0.49642 0.0
H921 H 0.76114 0.12868 0.49592 0.0
C922 C 0.70985 0.15583 0.49285 0.0
C923 C 0.74624 0.15731 0.49694 0.0
C924 C 0.7657 0.1688 0.49868 0.0
C925 C 0.71042 0.13478 0.49048 0.0
C926 C 0.72915 0.1249 0.49216 0.0
C927 C 0.7468 0.13629 0.49507 0.0
C928 C 0.73083 0.10275 0.48968 0.0
C929 C 0.69103 0.12329 0.48534 0.0
C930 C 0.72325 0.09095 0.52743 0.0
C931 C 0.72533 0.07008 0.52526 0.0
C932 C 0.73508 0.06071 0.48533 0.0
C933 C 0.74267 0.07256 0.44773 0.0
C934 C 0.74065 0.0934 0.44998 0.0
H935 H 0.67841 0.13301 0.47329 0.0
H936 H 0.6924 0.11062 0.45823 0.0
H937 H 0.68731 0.11701 0.52174 0.0
H938 H 0.71593 0.0979 0.55883 0.0
H939 H 0.71935 0.06135 0.55487 0.0
H940 H 0.29029 0.21794 0.08606 0.0
H941 H 0.32684 0.22084 0.08837 0.0
H942 H 0.3252 0.24473 0.94118 0.0
H943 H 0.28876 0.2421 0.93858 0.0
H944 H 0.35519 0.20361 0.02359 0.0
H945 H 0.35772 0.28673 0.02213 0.0
H946 H 0.33529 0.27303 0.03581 0.0
H947 H 0.3429 0.27541 0.97273 0.0
C948 C 0.29768 0.22383 0.05418 0.0
C949 C 0.28653 0.22995 0.01231 0.0
C950 C 0.31857 0.22546 0.05557 0.0
C951 C 0.32868 0.23333 0.0153 0.0
C952 C 0.31766 0.23902 0.97308 0.0
H953 H 0.4536 0.25742 0.95405 0.0
H954 H 0.41715 0.25332 0.94958 0.0
C955 C 0.29681 0.2374 0.97162 0.0
C956 C 0.35079 0.23538 0.01713 0.0
H957 H 0.38859 0.2697 0.01292 0.0
C958 C 0.36251 0.21805 0.02149 0.0
C959 C 0.36028 0.25425 0.01419 0.0
C960 C 0.34844 0.27346 0.01139 0.0
C961 C 0.38352 0.21904 0.02217 0.0
C962 C 0.39301 0.23791 0.01936 0.0
C963 C 0.38128 0.25524 0.01493 0.0
C964 C 0.41511 0.24006 0.02178 0.0
C965 C 0.39535 0.19983 0.02487 0.0
C966 C 0.42602 0.23418 0.06407 0.0
C967 C 0.4468 0.23647 0.06666 0.0
C968 C 0.45706 0.2448 0.02719 0.0
C969 C 0.44613 0.25086 0.985 0.0
C970 C 0.42531 0.24855 0.98241 0.0
H971 H 0.38613 0.18662 0.01326 0.0
H972 H 0.40869 0.20038 0.00111 0.0
H973 H 0.40057 0.19765 0.06371 0.0
H974 H 0.41842 0.22801 0.09532 0.0
H975 H 0.45487 0.23183 0.09974 0.0
H976 H 0.2903 0.78918 0.59103 0.0
H977 H 0.29153 0.82584 0.59355 0.0
H978 H 0.26844 0.82704 0.44315 0.0
H979 H 0.26693 0.79049 0.44033 0.0
H980 H 0.31204 0.85239 0.53208 0.0
H981 H 0.22978 0.86366 0.51914 0.0
H982 H 0.24091 0.83985 0.53405 0.0
H983 H 0.23972 0.84787 0.47089 0.0
C984 C 0.28545 0.79722 0.55847 0.0
C985 C 0.27833 0.78686 0.51563 0.0
C986 C 0.2862 0.81818 0.55998 0.0
C987 C 0.27975 0.82915 0.51885 0.0
C988 C 0.27309 0.81887 0.47568 0.0
H989 H 0.26899 0.9557 0.45573 0.0
H990 H 0.26965 0.91904 0.45196 0.0
C991 C 0.27233 0.79795 0.47409 0.0
C992 C 0.28006 0.85137 0.52096 0.0
H993 H 0.25002 0.89261 0.51296 0.0
C994 C 0.29849 0.86121 0.52813 0.0
C995 C 0.26235 0.86281 0.51571 0.0
C996 C 0.24203 0.85306 0.50996 0.0
C997 C 0.29973 0.88223 0.52926 0.0
C998 C 0.28202 0.89367 0.52396 0.0
C999 C 0.26359 0.88381 0.51686 0.0
C1000 C 0.2822 0.91589 0.52601 0.0
C1001 C 0.32004 0.89199 0.53499 0.0
C1002 C 0.28888 0.92629 0.56906 0.0
C1003 C 0.28856 0.94724 0.57128 0.0
C1004 C 0.28142 0.95815 0.53065 0.0
C1005 C 0.27465 0.94773 0.48762 0.0
C1006 C 0.27499 0.92678 0.48542 0.0
H1007 H 0.33228 0.88142 0.5254 0.0
H1008 H 0.3211 0.90529 0.51121 0.0
H1009 H 0.32243 0.89702 0.57415 0.0
H1010 H 0.2941 0.9182 0.6012 0.0
H1011 H 0.29372 0.95491 0.60498 0.0
H1012 H 0.71394 0.77536 0.93164 0.0
H1013 H 0.67763 0.77105 0.93044 0.0
H1014 H 0.67539 0.79404 0.08083 0.0
H1015 H 0.71171 0.79865 0.08233 0.0
H1016 H 0.65581 0.74697 0.99359 0.0
H1017 H 0.63193 0.82656 0.00902 0.0
H1018 H 0.65697 0.81933 0.9922 0.0
H1019 H 0.64965 0.81879 0.05584 0.0
C1020 C 0.70575 0.77968 0.96438 0.0
C1021 C 0.71579 0.78735 0.00711 0.0
C1022 C 0.68498 0.77718 0.96361 0.0
C1023 C 0.67379 0.78241 0.00534 0.0
C1024 C 0.68369 0.79024 0.0479 0.0
H1025 H 0.54628 0.77112 0.06489 0.0
H1026 H 0.58241 0.77741 0.07176 0.0
C1027 C 0.70449 0.79276 0.04875 0.0
C1028 C 0.6519 0.77874 0.00489 0.0
H1029 H 0.60651 0.80198 0.01335 0.0
C1030 C 0.64502 0.759 0.99781 0.0
C1031 C 0.63787 0.79445 0.01077 0.0
C1032 C 0.6444 0.81601 0.01698 0.0
C1033 C 0.6245 0.75451 0.99655 0.0
C1034 C 0.61046 0.77024 0.00163 0.0
C1035 C 0.61732 0.78996 0.00944 0.0
C1036 C 0.5886 0.76655 0.99749 0.0
C1037 C 0.61804 0.73292 0.99044 0.0
C1038 C 0.58008 0.75866 0.95323 0.0
C1039 C 0.55952 0.75504 0.94924 0.0
C1040 C 0.54706 0.75935 0.98931 0.0
C1041 C 0.55552 0.76755 0.03343 0.0
C1042 C 0.57614 0.77118 0.03739 0.0
H1043 H 0.63029 0.72245 0.00078 0.0
H1044 H 0.60487 0.72977 0.01342 0.0
H1045 H 0.61379 0.72982 0.95102 0.0
H1046 H 0.58936 0.75536 0.92164 0.0
H1047 H 0.55334 0.74885 0.91473 0.0
loop_
_geom_bond_atom_site_label_1
_geom_bond_atom_site_label_2
_geom_bond_distance
_geom_bond_site_symmetry_2
_ccdc_geom_bond_type
Fe0 O2 1.918 . S
Fe0 O5 1.997 . S
Fe0 O6 2.002 . S
Fe0 O11 1.976 . S
Fe0 O14 1.996 . S
Fe1 O2 1.918 1_556 S
Fe1 O9 1.997 . S
Fe1 O12 1.996 . S
Fe1 O16 1.976 . S
Fe1 O19 2.002 . S
O2 Fe0 1.918 . S
O2 Fe1 1.918 1_554 S
O2 Fe3 1.918 . S
Fe3 O2 1.918 . S
Fe3 O4 2.002 . S
Fe3 O13 1.976 . S
Fe3 O17 1.996 1_554 S
Fe3 O20 1.997 1_554 S
O4 Fe3 2.002 . S
O4 C21 1.295 . S
O5 Fe0 1.997 . S
O5 C21 1.235 . S
O6 Fe0 2.002 . S
O6 C7 1.295 . S
C7 O6 1.295 . S
C7 O9 1.235 1_554 S
C8 O13 1.287 . S
C8 O14 1.255 . S
O9 Fe1 1.997 . S
O9 C7 1.235 1_556 S
C10 O16 1.287 . S
C10 O17 1.255 . S
O11 Fe0 1.976 . S
O11 C18 1.287 . S
O12 Fe1 1.996 . S
O12 C18 1.255 1_556 S
O13 Fe3 1.976 . S
O13 C8 1.287 . S
O14 Fe0 1.996 . S
O14 C8 1.255 . S
C15 O19 1.295 . S
C15 O20 1.235 . S
O16 Fe1 1.976 . S
O16 C10 1.287 . S
O17 Fe3 1.996 1_556 S
O17 C10 1.255 . S
C18 O11 1.287 . S
C18 O12 1.255 1_554 S
O19 Fe1 2.002 . S
O19 C15 1.295 . S
O20 Fe3 1.997 1_556 S
O20 C15 1.235 . S
C21 O4 1.295 . S
C21 O5 1.235 . S
Fe22 O24 1.918 . S
Fe22 O27 1.997 . S
Fe22 O28 2.002 . S
Fe22 O33 1.976 . S
Fe22 O36 1.996 . S
Fe23 O24 1.918 . S
Fe23 O31 1.997 . S
Fe23 O34 1.996 . S
Fe23 O38 1.976 . S
Fe23 O41 2.002 . S
O24 Fe22 1.918 . S
O24 Fe23 1.918 . S
O24 Fe25 1.918 . S
Fe25 O24 1.918 . S
Fe25 O26 2.002 . S
Fe25 O35 1.976 . S
Fe25 O39 1.996 . S
Fe25 O42 1.997 . S
O26 Fe25 2.002 . S
O26 C43 1.295 . S
O27 Fe22 1.997 . S
O27 C43 1.235 . S
O28 Fe22 2.002 . S
O28 C29 1.295 . S
C29 O28 1.295 . S
C29 O31 1.235 . S
C30 O35 1.287 . S
C30 O36 1.255 . S
O31 Fe23 1.997 . S
O31 C29 1.235 . S
C32 O38 1.287 . S
C32 O39 1.255 . S
O33 Fe22 1.976 . S
O33 C40 1.287 . S
O34 Fe23 1.996 . S
O34 C40 1.255 . S
O35 Fe25 1.976 . S
O35 C30 1.287 . S
O36 Fe22 1.996 . S
O36 C30 1.255 . S
C37 O41 1.295 . S
C37 O42 1.235 . S
O38 Fe23 1.976 . S
O38 C32 1.287 . S
O39 Fe25 1.996 . S
O39 C32 1.255 . S
C40 O33 1.287 . S
C40 O34 1.255 . S
O41 Fe23 2.002 . S
O41 C37 1.295 . S
O42 Fe25 1.997 . S
O42 C37 1.235 . S
C43 O26 1.295 . S
C43 O27 1.235 . S
Fe44 O46 1.918 1_556 S
Fe44 O49 1.997 . S
Fe44 O50 2.002 . S
Fe44 O55 1.976 . S
Fe44 O58 1.996 . S
Fe45 O46 1.918 . S
Fe45 O53 1.997 . S
Fe45 O56 1.996 . S
Fe45 O60 1.976 . S
Fe45 O63 2.002 . S
O46 Fe44 1.918 1_554 S
O46 Fe45 1.918 . S
O46 Fe47 1.918 . S
Fe47 O46 1.918 . S
Fe47 O48 2.002 1_554 S
Fe47 O57 1.976 1_554 S
Fe47 O61 1.996 . S
Fe47 O64 1.997 . S
O48 Fe47 2.002 1_556 S
O48 C65 1.295 . S
O49 Fe44 1.997 . S
O49 C65 1.235 . S
O50 Fe44 2.002 . S
O50 C51 1.295 1_556 S
C51 O50 1.295 1_554 S
C51 O53 1.235 . S
C52 O57 1.287 . S
C52 O58 1.255 . S
O53 Fe45 1.997 . S
O53 C51 1.235 . S
C54 O60 1.287 . S
C54 O61 1.255 . S
O55 Fe44 1.976 . S
O55 C62 1.287 1_556 S
O56 Fe45 1.996 . S
O56 C62 1.255 . S
O57 Fe47 1.976 1_556 S
O57 C52 1.287 . S
O58 Fe44 1.996 . S
O58 C52 1.255 . S
C59 O63 1.295 . S
C59 O64 1.235 . S
O60 Fe45 1.976 . S
O60 C54 1.287 . S
O61 Fe47 1.996 . S
O61 C54 1.255 . S
C62 O55 1.287 1_554 S
C62 O56 1.255 . S
O63 Fe45 2.002 . S
O63 C59 1.295 . S
O64 Fe47 1.997 . S
O64 C59 1.235 . S
C65 O48 1.295 . S
C65 O49 1.235 . S
Fe66 O68 1.918 . S
Fe66 O71 1.997 . S
Fe66 O72 2.002 . S
Fe66 O77 1.976 . S
Fe66 O80 1.996 . S
Fe67 O68 1.918 . S
Fe67 O75 1.997 . S
Fe67 O78 1.996 . S
Fe67 O82 1.976 . S
Fe67 O85 2.002 . S
O68 Fe66 1.918 . S
O68 Fe67 1.918 . S
O68 Fe69 1.918 . S
Fe69 O68 1.918 . S
Fe69 O70 2.002 . S
Fe69 O79 1.976 . S
Fe69 O83 1.996 . S
Fe69 O86 1.997 . S
O70 Fe69 2.002 . S
O70 C87 1.295 . S
O71 Fe66 1.997 . S
O71 C87 1.235 . S
O72 Fe66 2.002 . S
O72 C73 1.295 . S
C73 O72 1.295 . S
C73 O75 1.235 . S
C74 O79 1.287 . S
C74 O80 1.255 . S
O75 Fe67 1.997 . S
O75 C73 1.235 . S
C76 O82 1.287 . S
C76 O83 1.255 . S
O77 Fe66 1.976 . S
O77 C84 1.287 . S
O78 Fe67 1.996 . S
O78 C84 1.255 . S
O79 Fe69 1.976 . S
O79 C74 1.287 . S
O80 Fe66 1.996 . S
O80 C74 1.255 . S
C81 O85 1.295 . S
C81 O86 1.235 . S
O82 Fe67 1.976 . S
O82 C76 1.287 . S
O83 Fe69 1.996 . S
O83 C76 1.255 . S
C84 O77 1.287 . S
C84 O78 1.255 . S
O85 Fe67 2.002 . S
O85 C81 1.295 . S
O86 Fe69 1.997 . S
O86 C81 1.235 . S
C87 O70 1.295 . S
C87 O71 1.235 . S
H88 C93 0.930 . S
H89 C96 0.930 . S
H90 C98 0.929 1_554 S
H91 C92 1.016 . S
C92 H91 1.016 . S
C92 N99 1.286 1_554 S
C93 H88 0.930 . S
C93 C94 1.397 . S
C93 C95 1.361 . S
C94 C93 1.397 . S
C94 C98 1.405 . S
C95 C93 1.361 . S
C95 C96 1.393 1_556 S
C95 N99 1.413 . S
C96 H89 0.930 . S
C96 C95 1.393 1_554 S
C96 C97 1.399 . S
C97 C96 1.399 . S
C97 C98 1.367 1_554 S
C98 H90 0.929 1_556 S
C98 C94 1.405 . S
C98 C97 1.367 1_556 S
N99 C92 1.286 1_556 S
N99 C95 1.413 . S
H100 C105 0.930 . S
H101 C108 0.930 . S
H102 C110 0.930 . S
H103 C104 1.016 . S
C104 H103 1.016 . S
C104 N111 1.286 . S
C105 H100 0.930 . S
C105 C106 1.397 . S
C105 C107 1.361 . S
C106 C105 1.397 . S
C106 C110 1.390 . S
C107 C105 1.361 . S
C107 C108 1.393 . S
C107 N111 1.413 1_655 S
C108 H101 0.930 . S
C108 C107 1.393 . S
C108 C109 1.399 . S
C109 C108 1.399 . S
C109 C110 1.381 . S
C110 H102 0.930 . S
C110 C106 1.390 . S
C110 C109 1.381 . S
N111 C104 1.286 . S
N111 C107 1.413 1_455 S
H112 C117 0.930 . S
H113 C120 0.930 . S
H114 C122 0.930 . S
H115 C116 1.016 1_556 S
C116 H115 1.016 1_554 S
C116 N123 1.286 . S
C117 H112 0.930 . S
C117 C118 1.397 . S
C117 C119 1.361 . S
C118 C117 1.397 . S
C118 C122 1.390 . S
C119 C117 1.361 . S
C119 C120 1.393 1_554 S
C119 N123 1.413 . S
C120 H113 0.930 . S
C120 C119 1.393 1_556 S
C120 C121 1.399 . S
C121 C120 1.399 . S
C121 C122 1.381 1_556 S
C122 H114 0.930 . S
C122 C118 1.390 . S
C122 C121 1.381 1_554 S
N123 C116 1.286 . S
N123 C119 1.413 . S
H124 C129 0.930 . S
H125 C132 0.918 1_655 S
H126 C134 0.930 . S
H127 C128 1.016 . S
C128 H127 1.016 . S
C128 N135 1.286 . S
C129 H124 0.930 . S
C129 C130 1.397 . S
C129 C131 1.361 1_455 S
C130 C129 1.397 . S
C130 C134 1.390 . S
C131 C129 1.361 1_655 S
C131 C132 1.393 1_655 S
C131 N135 1.413 . S
C132 H125 0.918 1_455 S
C132 C131 1.393 1_455 S
C132 C133 1.399 . S
C133 C132 1.399 . S
C133 C134 1.381 . S
C134 H126 0.930 . S
C134 C130 1.390 . S
C134 C133 1.381 . S
N135 C128 1.286 . S
N135 C131 1.413 . S
H136 C141 0.930 . S
H137 C144 0.930 1_545 S
H138 C146 0.930 . S
H139 C140 1.016 . S
C140 H139 1.016 . S
C140 N147 1.286 . S
C141 H136 0.930 . S
C141 C142 1.397 . S
C141 C143 1.361 1_565 S
C142 C141 1.397 . S
C142 C146 1.390 . S
C143 C141 1.361 1_545 S
C143 C144 1.393 1_545 S
C143 N147 1.413 . S
C144 H137 0.930 1_565 S
C144 C143 1.393 1_565 S
C144 C145 1.399 . S
C145 C144 1.399 . S
C145 C146 1.381 . S
C146 H138 0.930 . S
C146 C142 1.390 . S
C146 C145 1.381 . S
N147 C140 1.286 . S
N147 C143 1.413 . S
H148 C153 0.930 . S
H149 C156 0.930 . S
H150 C158 0.930 . S
H151 C152 1.016 . S
C152 H151 1.016 . S
C152 N159 1.286 1_554 S
C153 H148 0.930 . S
C153 C154 1.397 . S
C153 C155 1.361 . S
C154 C153 1.397 . S
C154 C158 1.390 1_556 S
C155 C153 1.361 . S
C155 C156 1.393 1_556 S
C155 N159 1.413 . S
C156 H149 0.930 . S
C156 C155 1.393 1_554 S
C156 C157 1.399 . S
C157 C156 1.399 . S
C157 C158 1.381 . S
C158 H150 0.930 . S
C158 C154 1.390 1_554 S
C158 C157 1.381 . S
N159 C152 1.286 1_556 S
N159 C155 1.413 . S
H160 C165 0.930 . S
H161 C168 0.930 . S
H162 C170 0.930 . S
H163 C164 1.016 . S
C164 H163 1.016 . S
C164 N171 1.286 . S
C165 H160 0.930 . S
C165 C166 1.397 . S
C165 C167 1.361 . S
C166 C165 1.397 . S
C166 C170 1.390 . S
C167 C165 1.361 . S
C167 C168 1.393 . S
C167 N171 1.413 1_545 S
C168 H161 0.930 . S
C168 C167 1.393 . S
C168 C169 1.399 . S
C169 C168 1.399 . S
C169 C170 1.381 . S
C170 H162 0.930 . S
C170 C166 1.390 . S
C170 C169 1.381 . S
N171 C164 1.286 . S
N171 C167 1.413 1_565 S
H172 C177 0.930 . S
H173 C180 0.930 . S
H174 C182 0.930 . S
H175 C176 1.016 1_556 S
C176 H175 1.016 1_554 S
C176 N183 1.286 . S
C177 H172 0.930 . S
C177 C178 1.397 . S
C177 C179 1.361 . S
C178 C177 1.397 . S
C178 C182 1.390 . S
C179 C177 1.361 . S
C179 C180 1.393 1_554 S
C179 N183 1.413 . S
C180 H173 0.930 . S
C180 C179 1.393 1_556 S
C180 C181 1.399 . S
C181 C180 1.399 . S
C181 C182 1.381 1_556 S
C182 H174 0.930 . S
C182 C178 1.390 . S
C182 C181 1.381 1_554 S
N183 C176 1.286 . S
N183 C179 1.413 . S
H184 C192 0.929 . S
H185 C194 0.930 . S
H186 C196 0.930 . S
H187 C199 0.929 . S
H188 C202 0.930 . S
H189 C204 0.960 . S
H190 C204 0.960 . S
H191 C204 0.960 . S
C192 H184 0.929 . S
C192 C193 1.377 . S
C192 C194 1.384 . S
C193 C192 1.377 . S
C193 C199 1.390 . S
C194 H185 0.930 . S
C194 C192 1.384 . S
C194 C195 1.372 . S
C195 C194 1.372 . S
C195 C196 1.400 . S
C195 C200 1.490 . S
C196 H186 0.930 . S
C196 C195 1.400 . S
C196 C199 1.386 . S
H197 C213 0.930 . S
H198 C214 0.931 . S
C199 H187 0.929 . S
C199 C193 1.390 . S
C199 C196 1.386 . S
C200 C195 1.490 . S
C200 C202 1.395 . S
C200 C203 1.403 . S
H201 C207 0.930 . S
C202 H188 0.930 . S
C202 C200 1.395 . S
C202 C205 1.403 . S
C203 C200 1.403 . S
C203 C204 1.524 . S
C203 C207 1.400 . S
C204 H189 0.960 . S
C204 H190 0.960 . S
C204 H191 0.960 . S
C204 C203 1.524 . S
C205 C202 1.403 . S
C205 C206 1.392 . S
C205 C209 1.495 . S
C206 C205 1.392 . S
C206 C207 1.385 . S
C206 C208 1.478 . S
C207 H201 0.930 . S
C207 C203 1.400 . S
C207 C206 1.385 . S
C208 C206 1.478 . S
C208 C210 1.381 . S
C208 C214 1.383 . S
C209 C205 1.495 . S
C209 H215 0.959 . S
C209 H216 0.961 . S
C209 H217 0.960 . S
C210 C208 1.381 . S
C210 C211 1.394 . S
C210 H218 0.930 . S
C211 C210 1.394 . S
C211 C212 1.383 . S
C211 H219 0.929 . S
C212 C211 1.383 . S
C212 C213 1.377 . S
C213 H197 0.930 . S
C213 C212 1.377 . S
C213 C214 1.379 . S
C214 H198 0.931 . S
C214 C208 1.383 . S
C214 C213 1.379 . S
H215 C209 0.959 . S
H216 C209 0.961 . S
H217 C209 0.960 . S
H218 C210 0.930 . S
H219 C211 0.929 . S
H220 C228 0.929 . S
H221 C230 0.930 . S
H222 C232 0.930 . S
H223 C235 0.929 . S
H224 C238 0.930 . S
H225 C240 0.960 . S
H226 C240 0.960 . S
H227 C240 0.960 . S
C228 H220 0.929 . S
C228 C229 1.377 . S
C228 C230 1.384 . S
C229 C228 1.377 . S
C229 C235 1.390 . S
C230 H221 0.930 . S
C230 C228 1.384 . S
C230 C231 1.372 . S
C231 C230 1.372 . S
C231 C232 1.400 . S
C231 C236 1.490 . S
C232 H222 0.930 . S
C232 C231 1.400 . S
C232 C235 1.386 . S
H233 C249 0.930 . S
H234 C250 0.931 . S
C235 H223 0.929 . S
C235 C229 1.390 . S
C235 C232 1.386 . S
C236 C231 1.490 . S
C236 C238 1.395 . S
C236 C239 1.403 . S
H237 C243 0.930 . S
C238 H224 0.930 . S
C238 C236 1.395 . S
C238 C241 1.403 . S
C239 C236 1.403 . S
C239 C240 1.524 . S
C239 C243 1.400 . S
C240 H225 0.960 . S
C240 H226 0.960 . S
C240 H227 0.960 . S
C240 C239 1.524 . S
C241 C238 1.403 . S
C241 C242 1.392 . S
C241 C245 1.495 . S
C242 C241 1.392 . S
C242 C243 1.385 . S
C242 C244 1.478 . S
C243 H237 0.930 . S
C243 C239 1.400 . S
C243 C242 1.385 . S
C244 C242 1.478 . S
C244 C246 1.381 . S
C244 C250 1.383 . S
C245 C241 1.495 . S
C245 H251 0.959 . S
C245 H252 0.961 . S
C245 H253 0.960 . S
C246 C244 1.381 . S
C246 C247 1.394 . S
C246 H254 0.930 . S
C247 C246 1.394 . S
C247 C248 1.383 . S
C247 H255 0.929 . S
C248 C247 1.383 . S
C248 C249 1.377 . S
C249 H233 0.930 . S
C249 C248 1.377 . S
C249 C250 1.379 . S
C250 H234 0.931 . S
C250 C244 1.383 . S
C250 C249 1.379 . S
H251 C245 0.959 . S
H252 C245 0.961 . S
H253 C245 0.960 . S
H254 C246 0.930 . S
H255 C247 0.929 . S
H256 C264 0.929 . S
H257 C266 0.930 . S
H258 C268 0.930 . S
H259 C271 0.929 . S
H260 C274 0.930 . S
H261 C276 0.960 . S
H262 C276 0.960 . S
H263 C276 0.960 . S
C264 H256 0.929 . S
C264 C265 1.377 . S
C264 C266 1.384 . S
C265 C264 1.377 . S
C265 C271 1.390 . S
C266 H257 0.930 . S
C266 C264 1.384 . S
C266 C267 1.372 . S
C267 C266 1.372 . S
C267 C268 1.400 . S
C267 C272 1.490 . S
C268 H258 0.930 . S
C268 C267 1.400 . S
C268 C271 1.386 . S
H269 C285 0.930 . S
H270 C286 0.931 . S
C271 H259 0.929 . S
C271 C265 1.390 . S
C271 C268 1.386 . S
C272 C267 1.490 . S
C272 C274 1.395 . S
C272 C275 1.403 . S
H273 C279 0.930 . S
C274 H260 0.930 . S
C274 C272 1.395 . S
C274 C277 1.403 . S
C275 C272 1.403 . S
C275 C276 1.524 . S
C275 C279 1.400 . S
C276 H261 0.960 . S
C276 H262 0.960 . S
C276 H263 0.960 . S
C276 C275 1.524 . S
C277 C274 1.403 . S
C277 C278 1.392 . S
C277 C281 1.495 . S
C278 C277 1.392 . S
C278 C279 1.385 . S
C278 C280 1.478 . S
C279 H273 0.930 . S
C279 C275 1.400 . S
C279 C278 1.385 . S
C280 C278 1.478 . S
C280 C282 1.381 . S
C280 C286 1.383 . S
C281 C277 1.495 . S
C281 H287 0.959 . S
C281 H288 0.961 . S
C281 H289 0.960 . S
C282 C280 1.381 . S
C282 C283 1.394 . S
C282 H290 0.930 . S
C283 C282 1.394 . S
C283 C284 1.383 . S
C283 H291 0.929 . S
C284 C283 1.383 . S
C284 C285 1.377 . S
C285 H269 0.930 . S
C285 C284 1.377 . S
C285 C286 1.379 . S
C286 H270 0.931 . S
C286 C280 1.383 . S
C286 C285 1.379 . S
H287 C281 0.959 . S
H288 C281 0.961 . S
H289 C281 0.960 . S
H290 C282 0.930 . S
H291 C283 0.929 . S
H292 C300 0.929 . S
H293 C302 0.930 . S
H294 C304 0.930 . S
H295 C307 0.929 . S
H296 C310 0.930 . S
H297 C312 0.960 . S
H298 C312 0.960 . S
H299 C312 0.960 . S
C300 H292 0.929 . S
C300 C301 1.377 . S
C300 C302 1.384 . S
C301 C300 1.377 . S
C301 C307 1.390 . S
C302 H293 0.930 . S
C302 C300 1.384 . S
C302 C303 1.372 . S
C303 C302 1.372 . S
C303 C304 1.400 . S
C303 C308 1.490 . S
C304 H294 0.930 . S
C304 C303 1.400 . S
C304 C307 1.386 . S
H305 C321 0.930 . S
H306 C322 0.931 . S
C307 H295 0.929 . S
C307 C301 1.390 . S
C307 C304 1.386 . S
C308 C303 1.490 . S
C308 C310 1.395 . S
C308 C311 1.403 . S
H309 C315 0.930 . S
C310 H296 0.930 . S
C310 C308 1.395 . S
C310 C313 1.403 . S
C311 C308 1.403 . S
C311 C312 1.524 . S
C311 C315 1.400 . S
C312 H297 0.960 . S
C312 H298 0.960 . S
C312 H299 0.960 . S
C312 C311 1.524 . S
C313 C310 1.403 . S
C313 C314 1.392 . S
C313 C317 1.495 . S
C314 C313 1.392 . S
C314 C315 1.385 . S
C314 C316 1.478 . S
C315 H309 0.930 . S
C315 C311 1.400 . S
C315 C314 1.385 . S
C316 C314 1.478 . S
C316 C318 1.381 . S
C316 C322 1.383 . S
C317 C313 1.495 . S
C317 H323 0.959 . S
C317 H324 0.961 . S
C317 H325 0.960 . S
C318 C316 1.381 . S
C318 C319 1.394 . S
C318 H326 0.930 . S
C319 C318 1.394 . S
C319 C320 1.383 . S
C319 H327 0.929 . S
C320 C319 1.383 . S
C320 C321 1.377 . S
C321 H305 0.930 . S
C321 C320 1.377 . S
C321 C322 1.379 . S
C322 H306 0.931 . S
C322 C316 1.383 . S
C322 C321 1.379 . S
H323 C317 0.959 . S
H324 C317 0.961 . S
H325 C317 0.960 . S
H326 C318 0.930 . S
H327 C319 0.929 . S
H328 C336 0.929 . S
H329 C338 0.930 . S
H330 C340 0.930 . S
H331 C343 0.929 . S
H332 C346 0.930 . S
H333 C348 0.960 . S
H334 C348 0.960 . S
H335 C348 0.960 . S
C336 H328 0.929 . S
C336 C337 1.377 . S
C336 C338 1.384 . S
C337 C336 1.377 . S
C337 C343 1.390 . S
C338 H329 0.930 . S
C338 C336 1.384 . S
C338 C339 1.372 . S
C339 C338 1.372 . S
C339 C340 1.400 . S
C339 C344 1.490 . S
C340 H330 0.930 . S
C340 C339 1.400 . S
C340 C343 1.386 . S
H341 C357 0.930 . S
H342 C358 0.931 . S
C343 H331 0.929 . S
C343 C337 1.390 . S
C343 C340 1.386 . S
C344 C339 1.490 . S
C344 C346 1.395 . S
C344 C347 1.403 . S
H345 C351 0.930 . S
C346 H332 0.930 . S
C346 C344 1.395 . S
C346 C349 1.403 . S
C347 C344 1.403 . S
C347 C348 1.524 . S
C347 C351 1.400 . S
C348 H333 0.960 . S
C348 H334 0.960 . S
C348 H335 0.960 . S
C348 C347 1.524 . S
C349 C346 1.403 . S
C349 C350 1.392 . S
C349 C353 1.495 . S
C350 C349 1.392 . S
C350 C351 1.385 . S
C350 C352 1.478 . S
C351 H345 0.930 . S
C351 C347 1.400 . S
C351 C350 1.385 . S
C352 C350 1.478 . S
C352 C354 1.381 . S
C352 C358 1.383 . S
C353 C349 1.495 . S
C353 H359 0.959 . S
C353 H360 0.961 . S
C353 H361 0.960 . S
C354 C352 1.381 . S
C354 C355 1.394 . S
C354 H362 0.930 . S
C355 C354 1.394 . S
C355 C356 1.383 . S
C355 H363 0.929 . S
C356 C355 1.383 . S
C356 C357 1.377 . S
C357 H341 0.930 . S
C357 C356 1.377 . S
C357 C358 1.379 . S
C358 H342 0.931 . S
C358 C352 1.383 . S
C358 C357 1.379 . S
H359 C353 0.959 . S
H360 C353 0.961 . S
H361 C353 0.960 . S
H362 C354 0.930 . S
H363 C355 0.929 . S
H364 C372 0.929 . S
H365 C374 0.930 . S
H366 C376 0.930 . S
H367 C379 0.929 . S
H368 C382 0.930 . S
H369 C384 0.960 . S
H370 C384 0.960 . S
H371 C384 0.960 . S
C372 H364 0.929 . S
C372 C373 1.377 . S
C372 C374 1.384 . S
C373 C372 1.377 . S
C373 C379 1.390 . S
C374 H365 0.930 . S
C374 C372 1.384 . S
C374 C375 1.372 . S
C375 C374 1.372 . S
C375 C376 1.400 . S
C375 C380 1.490 . S
C376 H366 0.930 . S
C376 C375 1.400 . S
C376 C379 1.386 . S
H377 C393 0.930 . S
H378 C394 0.931 . S
C379 H367 0.929 . S
C379 C373 1.390 . S
C379 C376 1.386 . S
C380 C375 1.490 . S
C380 C382 1.395 . S
C380 C383 1.403 . S
H381 C387 0.930 . S
C382 H368 0.930 . S
C382 C380 1.395 . S
C382 C385 1.403 . S
C383 C380 1.403 . S
C383 C384 1.524 . S
C383 C387 1.400 . S
C384 H369 0.960 . S
C384 H370 0.960 . S
C384 H371 0.960 . S
C384 C383 1.524 . S
C385 C382 1.403 . S
C385 C386 1.392 . S
C385 C389 1.495 . S
C386 C385 1.392 . S
C386 C387 1.385 . S
C386 C388 1.478 . S
C387 H381 0.930 . S
C387 C383 1.400 . S
C387 C386 1.385 . S
C388 C386 1.478 . S
C388 C390 1.381 . S
C388 C394 1.383 . S
C389 C385 1.495 . S
C389 H395 0.959 . S
C389 H396 0.961 . S
C389 H397 0.960 . S
C390 C388 1.381 . S
C390 C391 1.394 . S
C390 H398 0.930 . S
C391 C390 1.394 . S
C391 C392 1.383 . S
C391 H399 0.929 . S
C392 C391 1.383 . S
C392 C393 1.377 . S
C393 H377 0.930 . S
C393 C392 1.377 . S
C393 C394 1.379 . S
C394 H378 0.931 . S
C394 C388 1.383 . S
C394 C393 1.379 . S
H395 C389 0.959 . S
H396 C389 0.961 . S
H397 C389 0.960 . S
H398 C390 0.930 . S
H399 C391 0.929 . S
H400 C408 0.929 . S
H401 C410 0.930 . S
H402 C412 0.930 . S
H403 C415 0.929 . S
H404 C418 0.930 . S
H405 C420 0.960 . S
H406 C420 0.960 . S
H407 C420 0.960 . S
C408 H400 0.929 . S
C408 C409 1.377 . S
C408 C410 1.384 . S
C409 C408 1.377 . S
C409 C415 1.390 . S
C410 H401 0.930 . S
C410 C408 1.384 . S
C410 C411 1.372 . S
C411 C410 1.372 . S
C411 C412 1.400 . S
C411 C416 1.490 . S
C412 H402 0.930 . S
C412 C411 1.400 . S
C412 C415 1.386 . S
H413 C429 0.930 . S
H414 C430 0.931 . S
C415 H403 0.929 . S
C415 C409 1.390 . S
C415 C412 1.386 . S
C416 C411 1.490 . S
C416 C418 1.395 . S
C416 C419 1.403 . S
H417 C423 0.930 . S
C418 H404 0.930 . S
C418 C416 1.395 . S
C418 C421 1.403 . S
C419 C416 1.403 . S
C419 C420 1.524 . S
C419 C423 1.400 . S
C420 H405 0.960 . S
C420 H406 0.960 . S
C420 H407 0.960 . S
C420 C419 1.524 . S
C421 C418 1.403 . S
C421 C422 1.392 . S
C421 C425 1.495 . S
C422 C421 1.392 . S
C422 C423 1.385 . S
C422 C424 1.478 . S
C423 H417 0.930 . S
C423 C419 1.400 . S
C423 C422 1.385 . S
C424 C422 1.478 . S
C424 C426 1.381 . S
C424 C430 1.383 . S
C425 C421 1.495 . S
C425 H431 0.959 . S
C425 H432 0.961 . S
C425 H433 0.960 . S
C426 C424 1.381 . S
C426 C427 1.394 . S
C426 H434 0.930 . S
C427 C426 1.394 . S
C427 C428 1.383 . S
C427 H435 0.929 . S
C428 C427 1.383 . S
C428 C429 1.377 . S
C429 H413 0.930 . S
C429 C428 1.377 . S
C429 C430 1.379 . S
C430 H414 0.931 . S
C430 C424 1.383 . S
C430 C429 1.379 . S
H431 C425 0.959 . S
H432 C425 0.961 . S
H433 C425 0.960 . S
H434 C426 0.930 . S
H435 C427 0.929 . S
H436 C444 0.929 . S
H437 C446 0.930 . S
H438 C448 0.930 . S
H439 C451 0.929 . S
H440 C454 0.930 . S
H441 C456 0.960 . S
H442 C456 0.960 . S
H443 C456 0.960 . S
C444 H436 0.929 . S
C444 C445 1.377 . S
C444 C446 1.384 . S
C445 C444 1.377 . S
C445 C451 1.390 . S
C446 H437 0.930 . S
C446 C444 1.384 . S
C446 C447 1.372 . S
C447 C446 1.372 . S
C447 C448 1.400 . S
C447 C452 1.490 . S
C448 H438 0.930 . S
C448 C447 1.400 . S
C448 C451 1.386 . S
H449 C465 0.930 . S
H450 C466 0.931 . S
C451 H439 0.929 . S
C451 C445 1.390 . S
C451 C448 1.386 . S
C452 C447 1.490 . S
C452 C454 1.395 . S
C452 C455 1.403 . S
H453 C459 0.930 . S
C454 H440 0.930 . S
C454 C452 1.395 . S
C454 C457 1.403 . S
C455 C452 1.403 . S
C455 C456 1.524 . S
C455 C459 1.400 . S
C456 H441 0.960 . S
C456 H442 0.960 . S
C456 H443 0.960 . S
C456 C455 1.524 . S
C457 C454 1.403 . S
C457 C458 1.392 . S
C457 C461 1.495 . S
C458 C457 1.392 . S
C458 C459 1.385 . S
C458 C460 1.478 . S
C459 H453 0.930 . S
C459 C455 1.400 . S
C459 C458 1.385 . S
C460 C458 1.478 . S
C460 C462 1.381 . S
C460 C466 1.383 . S
C461 C457 1.495 . S
C461 H467 0.959 . S
C461 H468 0.961 . S
C461 H469 0.960 . S
C462 C460 1.381 . S
C462 C463 1.394 . S
C462 H470 0.930 . S
C463 C462 1.394 . S
C463 C464 1.383 . S
C463 H471 0.929 . S
C464 C463 1.383 . S
C464 C465 1.377 . S
C465 H449 0.930 . S
C465 C464 1.377 . S
C465 C466 1.379 . S
C466 H450 0.931 . S
C466 C460 1.383 . S
C466 C465 1.379 . S
H467 C461 0.959 . S
H468 C461 0.961 . S
H469 C461 0.960 . S
H470 C462 0.930 . S
H471 C463 0.929 . S
H472 C480 0.929 . S
H473 C482 0.930 . S
H474 C484 0.930 . S
H475 C487 0.929 . S
H476 C490 0.930 . S
H477 C492 0.960 . S
H478 C492 0.960 . S
H479 C492 0.960 . S
C480 H472 0.929 . S
C480 C481 1.377 . S
C480 C482 1.384 . S
C481 C480 1.377 . S
C481 C487 1.390 . S
C482 H473 0.930 . S
C482 C480 1.384 . S
C482 C483 1.372 . S
C483 C482 1.372 . S
C483 C484 1.400 . S
C483 C488 1.490 . S
C484 H474 0.930 . S
C484 C483 1.400 . S
C484 C487 1.386 . S
H485 C501 0.930 . S
H486 C502 0.931 . S
C487 H475 0.929 . S
C487 C481 1.390 . S
C487 C484 1.386 . S
C488 C483 1.490 . S
C488 C490 1.395 . S
C488 C491 1.403 . S
H489 C495 0.930 . S
C490 H476 0.930 . S
C490 C488 1.395 . S
C490 C493 1.403 . S
C491 C488 1.403 . S
C491 C492 1.524 . S
C491 C495 1.400 . S
C492 H477 0.960 . S
C492 H478 0.960 . S
C492 H479 0.960 . S
C492 C491 1.524 . S
C493 C490 1.403 . S
C493 C494 1.392 . S
C493 C497 1.495 . S
C494 C493 1.392 . S
C494 C495 1.385 . S
C494 C496 1.478 . S
C495 H489 0.930 . S
C495 C491 1.400 . S
C495 C494 1.385 . S
C496 C494 1.478 . S
C496 C498 1.381 . S
C496 C502 1.383 . S
C497 C493 1.495 . S
C497 H503 0.959 . S
C497 H504 0.961 . S
C497 H505 0.960 . S
C498 C496 1.381 . S
C498 C499 1.394 . S
C498 H506 0.930 . S
C499 C498 1.394 . S
C499 C500 1.383 . S
C499 H507 0.929 . S
C500 C499 1.383 . S
C500 C501 1.377 . S
C501 H485 0.930 . S
C501 C500 1.377 . S
C501 C502 1.379 . S
C502 H486 0.931 . S
C502 C496 1.383 . S
C502 C501 1.379 . S
H503 C497 0.959 . S
H504 C497 0.961 . S
H505 C497 0.960 . S
H506 C498 0.930 . S
H507 C499 0.929 . S
H508 C516 0.929 . S
H509 C518 0.930 . S
H510 C520 0.930 . S
H511 C523 0.929 . S
H512 C526 0.930 . S
H513 C528 0.960 . S
H514 C528 0.960 . S
H515 C528 0.960 . S
C516 H508 0.929 . S
C516 C517 1.377 . S
C516 C518 1.384 . S
C517 C516 1.377 . S
C517 C523 1.390 . S
C518 H509 0.930 . S
C518 C516 1.384 . S
C518 C519 1.372 . S
C519 C518 1.372 . S
C519 C520 1.400 . S
C519 C524 1.490 . S
C520 H510 0.930 . S
C520 C519 1.400 . S
C520 C523 1.386 . S
H521 C537 0.930 . S
H522 C538 0.931 . S
C523 H511 0.929 . S
C523 C517 1.390 . S
C523 C520 1.386 . S
C524 C519 1.490 . S
C524 C526 1.395 . S
C524 C527 1.403 . S
H525 C531 0.930 . S
C526 H512 0.930 . S
C526 C524 1.395 . S
C526 C529 1.403 . S
C527 C524 1.403 . S
C527 C528 1.524 . S
C527 C531 1.400 . S
C528 H513 0.960 . S
C528 H514 0.960 . S
C528 H515 0.960 . S
C528 C527 1.524 . S
C529 C526 1.403 . S
C529 C530 1.392 . S
C529 C533 1.495 . S
C530 C529 1.392 . S
C530 C531 1.385 . S
C530 C532 1.478 . S
C531 H525 0.930 . S
C531 C527 1.400 . S
C531 C530 1.385 . S
C532 C530 1.478 . S
C532 C534 1.381 . S
C532 C538 1.383 . S
C533 C529 1.495 . S
C533 H539 0.959 . S
C533 H540 0.961 . S
C533 H541 0.960 . S
C534 C532 1.381 . S
C534 C535 1.394 . S
C534 H542 0.930 . S
C535 C534 1.394 . S
C535 C536 1.383 . S
C535 H543 0.929 . S
C536 C535 1.383 . S
C536 C537 1.377 . S
C537 H521 0.930 . S
C537 C536 1.377 . S
C537 C538 1.379 . S
C538 H522 0.931 . S
C538 C532 1.383 . S
C538 C537 1.379 . S
H539 C533 0.959 . S
H540 C533 0.961 . S
H541 C533 0.960 . S
H542 C534 0.930 . S
H543 C535 0.929 . S
H544 C552 0.929 . S
H545 C554 0.930 . S
H546 C556 0.930 . S
H547 C559 0.929 . S
H548 C562 0.930 . S
H549 C564 0.960 . S
H550 C564 0.960 . S
H551 C564 0.960 . S
C552 H544 0.929 . S
C552 C553 1.377 . S
C552 C554 1.384 . S
C553 C552 1.377 . S
C553 C559 1.390 . S
C554 H545 0.930 . S
C554 C552 1.384 . S
C554 C555 1.372 . S
C555 C554 1.372 . S
C555 C556 1.400 . S
C555 C560 1.490 . S
C556 H546 0.930 . S
C556 C555 1.400 . S
C556 C559 1.386 . S
H557 C573 0.930 . S
H558 C574 0.931 . S
C559 H547 0.929 . S
C559 C553 1.390 . S
C559 C556 1.386 . S
C560 C555 1.490 . S
C560 C562 1.395 . S
C560 C563 1.403 . S
H561 C567 0.930 . S
C562 H548 0.930 . S
C562 C560 1.395 . S
C562 C565 1.403 . S
C563 C560 1.403 . S
C563 C564 1.524 . S
C563 C567 1.400 . S
C564 H549 0.960 . S
C564 H550 0.960 . S
C564 H551 0.960 . S
C564 C563 1.524 . S
C565 C562 1.403 . S
C565 C566 1.392 . S
C565 C569 1.495 . S
C566 C565 1.392 . S
C566 C567 1.385 . S
C566 C568 1.478 . S
C567 H561 0.930 . S
C567 C563 1.400 . S
C567 C566 1.385 . S
C568 C566 1.478 . S
C568 C570 1.381 . S
C568 C574 1.383 . S
C569 C565 1.495 . S
C569 H575 0.959 . S
C569 H576 0.961 . S
C569 H577 0.960 . S
C570 C568 1.381 . S
C570 C571 1.394 . S
C570 H578 0.930 . S
C571 C570 1.394 . S
C571 C572 1.383 . S
C571 H579 0.929 . S
C572 C571 1.383 . S
C572 C573 1.377 . S
C573 H557 0.930 . S
C573 C572 1.377 . S
C573 C574 1.379 . S
C574 H558 0.931 . S
C574 C568 1.383 . S
C574 C573 1.379 . S
H575 C569 0.959 . S
H576 C569 0.961 . S
H577 C569 0.960 . S
H578 C570 0.930 . S
H579 C571 0.929 . S
H580 C588 0.929 . S
H581 C590 0.930 . S
H582 C592 0.930 . S
H583 C595 0.929 . S
H584 C598 0.930 . S
H585 C600 0.960 . S
H586 C600 0.960 . S
H587 C600 0.960 . S
C588 H580 0.929 . S
C588 C589 1.377 . S
C588 C590 1.384 . S
C589 C588 1.377 . S
C589 C595 1.390 . S
C590 H581 0.930 . S
C590 C588 1.384 . S
C590 C591 1.372 . S
C591 C590 1.372 . S
C591 C592 1.400 . S
C591 C596 1.490 . S
C592 H582 0.930 . S
C592 C591 1.400 . S
C592 C595 1.386 . S
H593 C609 0.930 . S
H594 C610 0.931 . S
C595 H583 0.929 . S
C595 C589 1.390 . S
C595 C592 1.386 . S
C596 C591 1.490 . S
C596 C598 1.395 . S
C596 C599 1.403 . S
H597 C603 0.930 . S
C598 H584 0.930 . S
C598 C596 1.395 . S
C598 C601 1.403 . S
C599 C596 1.403 . S
C599 C600 1.524 . S
C599 C603 1.400 . S
C600 H585 0.960 . S
C600 H586 0.960 . S
C600 H587 0.960 . S
C600 C599 1.524 . S
C601 C598 1.403 . S
C601 C602 1.392 . S
C601 C605 1.495 . S
C602 C601 1.392 . S
C602 C603 1.385 . S
C602 C604 1.478 . S
C603 H597 0.930 . S
C603 C599 1.400 . S
C603 C602 1.385 . S
C604 C602 1.478 . S
C604 C606 1.381 . S
C604 C610 1.383 . S
C605 C601 1.495 . S
C605 H611 0.959 . S
C605 H612 0.961 . S
C605 H613 0.960 . S
C606 C604 1.381 . S
C606 C607 1.394 . S
C606 H614 0.930 . S
C607 C606 1.394 . S
C607 C608 1.383 . S
C607 H615 0.929 . S
C608 C607 1.383 . S
C608 C609 1.377 . S
C609 H593 0.930 . S
C609 C608 1.377 . S
C609 C610 1.379 . S
C610 H594 0.931 . S
C610 C604 1.383 . S
C610 C609 1.379 . S
H611 C605 0.959 . S
H612 C605 0.961 . S
H613 C605 0.960 . S
H614 C606 0.930 . S
H615 C607 0.929 . S
H616 C624 0.929 . S
H617 C626 0.930 . S
H618 C628 0.930 . S
H619 C631 0.929 . S
H620 C634 0.930 . S
H621 C636 0.960 . S
H622 C636 0.960 . S
H623 C636 0.960 . S
C624 H616 0.929 . S
C624 C625 1.377 . S
C624 C626 1.384 . S
C625 C624 1.377 . S
C625 C631 1.390 . S
C626 H617 0.930 . S
C626 C624 1.384 . S
C626 C627 1.372 . S
C627 C626 1.372 . S
C627 C628 1.400 . S
C627 C632 1.490 . S
C628 H618 0.930 . S
C628 C627 1.400 . S
C628 C631 1.386 . S
H629 C645 0.930 . S
H630 C646 0.931 . S
C631 H619 0.929 . S
C631 C625 1.390 . S
C631 C628 1.386 . S
C632 C627 1.490 . S
C632 C634 1.395 . S
C632 C635 1.403 . S
H633 C639 0.930 . S
C634 H620 0.930 . S
C634 C632 1.395 . S
C634 C637 1.403 . S
C635 C632 1.403 . S
C635 C636 1.524 . S
C635 C639 1.400 . S
C636 H621 0.960 . S
C636 H622 0.960 . S
C636 H623 0.960 . S
C636 C635 1.524 . S
C637 C634 1.403 . S
C637 C638 1.392 . S
C637 C641 1.495 . S
C638 C637 1.392 . S
C638 C639 1.385 . S
C638 C640 1.478 . S
C639 H633 0.930 . S
C639 C635 1.400 . S
C639 C638 1.385 . S
C640 C638 1.478 . S
C640 C642 1.381 . S
C640 C646 1.383 . S
C641 C637 1.495 . S
C641 H647 0.959 . S
C641 H648 0.961 . S
C641 H649 0.960 . S
C642 C640 1.381 . S
C642 C643 1.394 . S
C642 H650 0.930 . S
C643 C642 1.394 . S
C643 C644 1.383 . S
C643 H651 0.929 . S
C644 C643 1.383 . S
C644 C645 1.377 . S
C645 H629 0.930 . S
C645 C644 1.377 . S
C645 C646 1.379 . S
C646 H630 0.931 . S
C646 C640 1.383 . S
C646 C645 1.379 . S
H647 C641 0.959 . S
H648 C641 0.961 . S
H649 C641 0.960 . S
H650 C642 0.930 . S
H651 C643 0.929 . S
H652 C660 0.929 . S
H653 C662 0.930 . S
H654 C664 0.930 . S
H655 C667 0.929 . S
H656 C670 0.930 . S
H657 C672 0.960 . S
H658 C672 0.960 . S
H659 C672 0.960 . S
C660 H652 0.929 . S
C660 C661 1.377 . S
C660 C662 1.384 . S
C661 C660 1.377 . S
C661 C667 1.390 . S
C662 H653 0.930 . S
C662 C660 1.384 . S
C662 C663 1.372 . S
C663 C662 1.372 . S
C663 C664 1.400 . S
C663 C668 1.490 . S
C664 H654 0.930 . S
C664 C663 1.400 . S
C664 C667 1.386 . S
H665 C681 0.930 . S
H666 C682 0.931 . S
C667 H655 0.929 . S
C667 C661 1.390 . S
C667 C664 1.386 . S
C668 C663 1.490 . S
C668 C670 1.395 . S
C668 C671 1.403 . S
H669 C675 0.930 . S
C670 H656 0.930 . S
C670 C668 1.395 . S
C670 C673 1.403 . S
C671 C668 1.403 . S
C671 C672 1.524 . S
C671 C675 1.400 . S
C672 H657 0.960 . S
C672 H658 0.960 . S
C672 H659 0.960 . S
C672 C671 1.524 . S
C673 C670 1.403 . S
C673 C674 1.392 . S
C673 C677 1.495 . S
C674 C673 1.392 . S
C674 C675 1.385 . S
C674 C676 1.478 . S
C675 H669 0.930 . S
C675 C671 1.400 . S
C675 C674 1.385 . S
C676 C674 1.478 . S
C676 C678 1.381 . S
C676 C682 1.383 . S
C677 C673 1.495 . S
C677 H683 0.959 . S
C677 H684 0.961 . S
C677 H685 0.960 . S
C678 C676 1.381 . S
C678 C679 1.394 . S
C678 H686 0.930 . S
C679 C678 1.394 . S
C679 C680 1.383 . S
C679 H687 0.929 . S
C680 C679 1.383 . S
C680 C681 1.377 . S
C681 H665 0.930 . S
C681 C680 1.377 . S
C681 C682 1.379 . S
C682 H666 0.931 . S
C682 C676 1.383 . S
C682 C681 1.379 . S
H683 C677 0.959 . S
H684 C677 0.961 . S
H685 C677 0.960 . S
H686 C678 0.930 . S
H687 C679 0.929 . S
H688 C696 0.929 . S
H689 C698 0.930 . S
H690 C700 0.930 . S
H691 C703 0.929 . S
H692 C706 0.930 . S
H693 C708 0.960 . S
H694 C708 0.960 . S
H695 C708 0.960 . S
C696 H688 0.929 . S
C696 C697 1.377 . S
C696 C698 1.384 . S
C697 C696 1.377 . S
C697 C703 1.390 . S
C698 H689 0.930 . S
C698 C696 1.384 . S
C698 C699 1.372 . S
C699 C698 1.372 . S
C699 C700 1.400 . S
C699 C704 1.490 . S
C700 H690 0.930 . S
C700 C699 1.400 . S
C700 C703 1.386 . S
H701 C717 0.930 . S
H702 C718 0.931 . S
C703 H691 0.929 . S
C703 C697 1.390 . S
C703 C700 1.386 . S
C704 C699 1.490 . S
C704 C706 1.395 . S
C704 C707 1.403 . S
H705 C711 0.930 . S
C706 H692 0.930 . S
C706 C704 1.395 . S
C706 C709 1.403 . S
C707 C704 1.403 . S
C707 C708 1.524 . S
C707 C711 1.400 . S
C708 H693 0.960 . S
C708 H694 0.960 . S
C708 H695 0.960 . S
C708 C707 1.524 . S
C709 C706 1.403 . S
C709 C710 1.392 . S
C709 C713 1.495 . S
C710 C709 1.392 . S
C710 C711 1.385 . S
C710 C712 1.478 . S
C711 H705 0.930 . S
C711 C707 1.400 . S
C711 C710 1.385 . S
C712 C710 1.478 . S
C712 C714 1.381 . S
C712 C718 1.383 . S
C713 C709 1.495 . S
C713 H719 0.959 . S
C713 H720 0.961 . S
C713 H721 0.960 . S
C714 C712 1.381 . S
C714 C715 1.394 . S
C714 H722 0.930 . S
C715 C714 1.394 . S
C715 C716 1.383 . S
C715 H723 0.929 . S
C716 C715 1.383 . S
C716 C717 1.377 . S
C717 H701 0.930 . S
C717 C716 1.377 . S
C717 C718 1.379 . S
C718 H702 0.931 . S
C718 C712 1.383 . S
C718 C717 1.379 . S
H719 C713 0.959 . S
H720 C713 0.961 . S
H721 C713 0.960 . S
H722 C714 0.930 . S
H723 C715 0.929 . S
H724 C732 0.929 . S
H725 C734 0.930 . S
H726 C736 0.930 . S
H727 C739 0.929 . S
H728 C742 0.930 . S
H729 C744 0.960 . S
H730 C744 0.960 . S
H731 C744 0.960 . S
C732 H724 0.929 . S
C732 C733 1.377 . S
C732 C734 1.384 . S
C733 C732 1.377 . S
C733 C739 1.390 . S
C734 H725 0.930 . S
C734 C732 1.384 . S
C734 C735 1.372 . S
C735 C734 1.372 . S
C735 C736 1.400 . S
C735 C740 1.490 . S
C736 H726 0.930 . S
C736 C735 1.400 . S
C736 C739 1.386 . S
H737 C753 0.930 . S
H738 C754 0.931 . S
C739 H727 0.929 . S
C739 C733 1.390 . S
C739 C736 1.386 . S
C740 C735 1.490 . S
C740 C742 1.395 . S
C740 C743 1.403 . S
H741 C747 0.930 . S
C742 H728 0.930 . S
C742 C740 1.395 . S
C742 C745 1.403 . S
C743 C740 1.403 . S
C743 C744 1.524 . S
C743 C747 1.400 . S
C744 H729 0.960 . S
C744 H730 0.960 . S
C744 H731 0.960 . S
C744 C743 1.524 . S
C745 C742 1.403 . S
C745 C746 1.392 . S
C745 C749 1.495 . S
C746 C745 1.392 . S
C746 C747 1.385 . S
C746 C748 1.478 . S
C747 H741 0.930 . S
C747 C743 1.400 . S
C747 C746 1.385 . S
C748 C746 1.478 . S
C748 C750 1.381 . S
C748 C754 1.383 . S
C749 C745 1.495 . S
C749 H755 0.959 . S
C749 H756 0.961 . S
C749 H757 0.960 . S
C750 C748 1.381 . S
C750 C751 1.394 . S
C750 H758 0.930 . S
C751 C750 1.394 . S
C751 C752 1.383 . S
C751 H759 0.929 . S
C752 C751 1.383 . S
C752 C753 1.377 . S
C753 H737 0.930 . S
C753 C752 1.377 . S
C753 C754 1.379 . S
C754 H738 0.931 . S
C754 C748 1.383 . S
C754 C753 1.379 . S
H755 C749 0.959 . S
H756 C749 0.961 . S
H757 C749 0.960 . S
H758 C750 0.930 . S
H759 C751 0.929 . S
H760 C768 0.929 . S
H761 C770 0.930 . S
H762 C772 0.930 . S
H763 C775 0.929 . S
H764 C778 0.930 . S
H765 C780 0.960 . S
H766 C780 0.960 1_554 S
H767 C780 0.960 . S
C768 H760 0.929 . S
C768 C769 1.377 . S
C768 C770 1.384 . S
C769 C768 1.377 . S
C769 C775 1.390 1_554 S
C770 H761 0.930 . S
C770 C768 1.384 . S
C770 C771 1.372 . S
C771 C770 1.372 . S
C771 C772 1.400 1_554 S
C771 C776 1.490 . S
C772 H762 0.930 . S
C772 C771 1.400 1_556 S
C772 C775 1.386 . S
H773 C789 0.930 . S
H774 C790 0.931 . S
C775 H763 0.929 . S
C775 C769 1.390 1_556 S
C775 C772 1.386 . S
C776 C771 1.490 . S
C776 C778 1.395 . S
C776 C779 1.406 . S
H777 C783 0.928 1_556 S
C778 H764 0.930 . S
C778 C776 1.395 . S
C778 C781 1.403 . S
C779 C776 1.406 . S
C779 C780 1.522 1_554 S
C779 C783 1.400 . S
C780 H765 0.960 . S
C780 H766 0.960 1_556 S
C780 H767 0.960 . S
C780 C779 1.522 1_556 S
C781 C778 1.403 . S
C781 C782 1.392 . S
C781 C785 1.495 . S
C782 C781 1.392 . S
C782 C783 1.387 . S
C782 C784 1.478 . S
C783 H777 0.928 1_554 S
C783 C779 1.400 . S
C783 C782 1.387 . S
C784 C782 1.478 . S
C784 C786 1.381 . S
C784 C790 1.383 1_554 S
C785 C781 1.495 . S
C785 H791 0.959 . S
C785 H792 0.961 1_554 S
C785 H793 0.960 . S
C786 C784 1.381 . S
C786 C787 1.394 . S
C786 H794 0.930 . S
C787 C786 1.394 . S
C787 C788 1.383 . S
C787 H795 0.929 . S
C788 C787 1.383 . S
C788 C789 1.377 1_554 S
C789 H773 0.930 . S
C789 C788 1.377 1_556 S
C789 C790 1.379 . S
C790 H774 0.931 . S
C790 C784 1.383 1_556 S
C790 C789 1.379 . S
H791 C785 0.959 . S
H792 C785 0.961 1_556 S
H793 C785 0.960 . S
H794 C786 0.930 . S
H795 C787 0.929 . S
H796 C804 0.929 . S
H797 C806 0.930 . S
H798 C808 0.930 . S
H799 C811 0.929 . S
H800 C814 0.930 . S
H801 C816 0.960 . S
H802 C816 0.960 . S
H803 C816 0.960 . S
C804 H796 0.929 . S
C804 C805 1.377 . S
C804 C806 1.384 . S
C805 C804 1.377 . S
C805 C811 1.390 . S
C806 H797 0.930 . S
C806 C804 1.384 . S
C806 C807 1.372 . S
C807 C806 1.372 . S
C807 C808 1.400 . S
C807 C812 1.490 . S
C808 H798 0.930 . S
C808 C807 1.400 . S
C808 C811 1.386 . S
H809 C825 0.930 . S
H810 C826 0.931 . S
C811 H799 0.929 . S
C811 C805 1.390 . S
C811 C808 1.386 . S
C812 C807 1.490 . S
C812 C814 1.395 . S
C812 C815 1.403 . S
H813 C819 0.930 . S
C814 H800 0.930 . S
C814 C812 1.395 . S
C814 C817 1.403 . S
C815 C812 1.403 . S
C815 C816 1.524 . S
C815 C819 1.400 . S
C816 H801 0.960 . S
C816 H802 0.960 . S
C816 H803 0.960 . S
C816 C815 1.524 . S
C817 C814 1.403 . S
C817 C818 1.392 . S
C817 C821 1.495 . S
C818 C817 1.392 . S
C818 C819 1.385 . S
C818 C820 1.478 . S
C819 H813 0.930 . S
C819 C815 1.400 . S
C819 C818 1.385 . S
C820 C818 1.478 . S
C820 C822 1.381 . S
C820 C826 1.383 . S
C821 C817 1.495 . S
C821 H827 0.959 . S
C821 H828 0.961 . S
C821 H829 0.960 . S
C822 C820 1.381 . S
C822 C823 1.394 . S
C822 H830 0.930 . S
C823 C822 1.394 . S
C823 C824 1.383 . S
C823 H831 0.929 . S
C824 C823 1.383 . S
C824 C825 1.377 . S
C825 H809 0.930 . S
C825 C824 1.377 . S
C825 C826 1.379 . S
C826 H810 0.931 . S
C826 C820 1.383 . S
C826 C825 1.379 . S
H827 C821 0.959 . S
H828 C821 0.961 . S
H829 C821 0.960 . S
H830 C822 0.930 . S
H831 C823 0.929 . S
H832 C840 0.929 . S
H833 C842 0.930 . S
H834 C844 0.930 . S
H835 C847 0.929 . S
H836 C850 0.930 . S
H837 C852 0.960 . S
H838 C852 0.960 . S
H839 C852 0.960 . S
C840 H832 0.929 . S
C840 C841 1.377 1_556 S
C840 C842 1.384 . S
C841 C840 1.377 1_554 S
C841 C847 1.390 . S
C842 H833 0.930 . S
C842 C840 1.384 . S
C842 C843 1.372 1_556 S
C843 C842 1.372 1_554 S
C843 C844 1.400 . S
C843 C848 1.490 . S
C844 H834 0.930 . S
C844 C843 1.400 . S
C844 C847 1.386 . S
H845 C861 0.930 . S
H846 C862 0.931 . S
C847 H835 0.929 . S
C847 C841 1.390 . S
C847 C844 1.386 . S
C848 C843 1.490 . S
C848 C850 1.395 . S
C848 C851 1.403 1_554 S
H849 C855 0.930 . S
C850 H836 0.930 . S
C850 C848 1.395 . S
C850 C853 1.403 . S
C851 C848 1.403 1_556 S
C851 C852 1.524 . S
C851 C855 1.400 . S
C852 H837 0.960 . S
C852 H838 0.960 . S
C852 H839 0.960 . S
C852 C851 1.524 . S
C853 C850 1.403 . S
C853 C854 1.392 . S
C853 C857 1.495 . S
C854 C853 1.392 . S
C854 C855 1.385 1_554 S
C854 C856 1.478 . S
C855 H849 0.930 . S
C855 C851 1.400 . S
C855 C854 1.385 1_556 S
C856 C854 1.478 . S
C856 C858 1.381 1_554 S
C856 C862 1.383 . S
C857 C853 1.495 . S
C857 H863 0.959 . S
C857 H864 0.961 . S
C857 H865 0.960 . S
C858 C856 1.381 1_556 S
C858 C859 1.394 . S
C858 H866 0.930 . S
C859 C858 1.394 . S
C859 C860 1.383 1_556 S
C859 H867 0.929 . S
C860 C859 1.383 1_554 S
C860 C861 1.377 . S
C861 H845 0.930 . S
C861 C860 1.377 . S
C861 C862 1.379 . S
C862 H846 0.931 . S
C862 C856 1.383 . S
C862 C861 1.379 . S
H863 C857 0.959 . S
H864 C857 0.961 . S
H865 C857 0.960 . S
H866 C858 0.930 . S
H867 C859 0.929 . S
H868 C876 0.929 . S
H869 C878 0.930 . S
H870 C880 0.930 . S
H871 C883 0.929 . S
H872 C886 0.930 . S
H873 C888 0.960 . S
H874 C888 0.960 . S
H875 C888 0.960 . S
C876 H868 0.929 . S
C876 C877 1.377 . S
C876 C878 1.384 . S
C877 C876 1.377 . S
C877 C883 1.390 . S
C878 H869 0.930 . S
C878 C876 1.384 . S
C878 C879 1.372 . S
C879 C878 1.372 . S
C879 C880 1.400 . S
C879 C884 1.490 . S
C880 H870 0.930 . S
C880 C879 1.400 . S
C880 C883 1.386 . S
H881 C897 0.930 . S
H882 C898 0.931 . S
C883 H871 0.929 . S
C883 C877 1.390 . S
C883 C880 1.386 . S
C884 C879 1.490 . S
C884 C886 1.395 . S
C884 C887 1.403 . S
H885 C891 0.930 . S
C886 H872 0.930 . S
C886 C884 1.395 . S
C886 C889 1.403 . S
C887 C884 1.403 . S
C887 C888 1.524 . S
C887 C891 1.400 . S
C888 H873 0.960 . S
C888 H874 0.960 . S
C888 H875 0.960 . S
C888 C887 1.524 . S
C889 C886 1.403 . S
C889 C890 1.392 . S
C889 C893 1.495 . S
C890 C889 1.392 . S
C890 C891 1.385 . S
C890 C892 1.478 . S
C891 H885 0.930 . S
C891 C887 1.400 . S
C891 C890 1.385 . S
C892 C890 1.478 . S
C892 C894 1.381 . S
C892 C898 1.383 . S
C893 C889 1.495 . S
C893 H899 0.959 . S
C893 H900 0.961 . S
C893 H901 0.960 . S
C894 C892 1.381 . S
C894 C895 1.394 . S
C894 H902 0.930 . S
C895 C894 1.394 . S
C895 C896 1.383 . S
C895 H903 0.929 . S
C896 C895 1.383 . S
C896 C897 1.377 . S
C897 H881 0.930 . S
C897 C896 1.377 . S
C897 C898 1.379 . S
C898 H882 0.931 . S
C898 C892 1.383 . S
C898 C897 1.379 . S
H899 C893 0.959 . S
H900 C893 0.961 . S
H901 C893 0.960 . S
H902 C894 0.930 . S
H903 C895 0.929 . S
H904 C912 0.929 . S
H905 C914 0.930 . S
H906 C916 0.930 . S
H907 C919 0.929 . S
H908 C922 0.930 . S
H909 C924 0.960 . S
H910 C924 0.960 . S
H911 C924 0.960 . S
C912 H904 0.929 . S
C912 C913 1.377 . S
C912 C914 1.384 . S
C913 C912 1.377 . S
C913 C919 1.390 . S
C914 H905 0.930 . S
C914 C912 1.384 . S
C914 C915 1.372 . S
C915 C914 1.372 . S
C915 C916 1.400 . S
C915 C920 1.490 . S
C916 H906 0.930 . S
C916 C915 1.400 . S
C916 C919 1.386 . S
H917 C933 0.930 . S
H918 C934 0.931 . S
C919 H907 0.929 . S
C919 C913 1.390 . S
C919 C916 1.386 . S
C920 C915 1.490 . S
C920 C922 1.395 . S
C920 C923 1.403 . S
H921 C927 0.930 . S
C922 H908 0.930 . S
C922 C920 1.395 . S
C922 C925 1.403 . S
C923 C920 1.403 . S
C923 C924 1.524 . S
C923 C927 1.400 . S
C924 H909 0.960 . S
C924 H910 0.960 . S
C924 H911 0.960 . S
C924 C923 1.524 . S
C925 C922 1.403 . S
C925 C926 1.392 . S
C925 C929 1.495 . S
C926 C925 1.392 . S
C926 C927 1.385 . S
C926 C928 1.478 . S
C927 H921 0.930 . S
C927 C923 1.400 . S
C927 C926 1.385 . S
C928 C926 1.478 . S
C928 C930 1.381 . S
C928 C934 1.383 . S
C929 C925 1.495 . S
C929 H935 0.959 . S
C929 H936 0.961 . S
C929 H937 0.960 . S
C930 C928 1.381 . S
C930 C931 1.394 . S
C930 H938 0.930 . S
C931 C930 1.394 . S
C931 C932 1.383 . S
C931 H939 0.929 . S
C932 C931 1.383 . S
C932 C933 1.377 . S
C933 H917 0.930 . S
C933 C932 1.377 . S
C933 C934 1.379 . S
C934 H918 0.931 . S
C934 C928 1.383 . S
C934 C933 1.379 . S
H935 C929 0.959 . S
H936 C929 0.961 . S
H937 C929 0.960 . S
H938 C930 0.930 . S
H939 C931 0.929 . S
H940 C948 0.929 . S
H941 C950 0.930 . S
H942 C952 0.930 . S
H943 C955 0.929 . S
H944 C958 0.930 . S
H945 C960 0.960 . S
H946 C960 0.960 . S
H947 C960 0.960 . S
C948 H940 0.929 . S
C948 C949 1.377 . S
C948 C950 1.384 . S
C949 C948 1.377 . S
C949 C955 1.390 1_554 S
C950 H941 0.930 . S
C950 C948 1.384 . S
C950 C951 1.372 . S
C951 C950 1.372 . S
C951 C952 1.400 1_554 S
C951 C956 1.490 . S
C952 H942 0.930 . S
C952 C951 1.400 1_556 S
C952 C955 1.386 . S
H953 C969 0.930 . S
H954 C970 0.931 . S
C955 H943 0.929 . S
C955 C949 1.390 1_556 S
C955 C952 1.386 . S
C956 C951 1.490 . S
C956 C958 1.395 1_554 S
C956 C959 1.403 . S
H957 C963 0.930 . S
C958 H944 0.930 . S
C958 C956 1.395 1_556 S
C958 C961 1.403 . S
C959 C956 1.403 . S
C959 C960 1.524 . S
C959 C963 1.400 . S
C960 H945 0.960 . S
C960 H946 0.960 . S
C960 H947 0.960 . S
C960 C959 1.524 . S
C961 C958 1.403 . S
C961 C962 1.392 1_556 S
C961 C965 1.495 . S
C962 C961 1.392 1_554 S
C962 C963 1.385 . S
C962 C964 1.478 . S
C963 H957 0.930 . S
C963 C959 1.400 . S
C963 C962 1.385 . S
C964 C962 1.478 . S
C964 C966 1.381 . S
C964 C970 1.383 1_554 S
C965 C961 1.495 . S
C965 H971 0.959 . S
C965 H972 0.961 . S
C965 H973 0.960 . S
C966 C964 1.381 . S
C966 C967 1.394 . S
C966 H974 0.930 . S
C967 C966 1.394 . S
C967 C968 1.383 . S
C967 H975 0.929 . S
C968 C967 1.383 . S
C968 C969 1.377 1_554 S
C969 H953 0.930 . S
C969 C968 1.377 1_556 S
C969 C970 1.379 . S
C970 H954 0.931 . S
C970 C964 1.383 1_556 S
C970 C969 1.379 . S
H971 C965 0.959 . S
H972 C965 0.961 . S
H973 C965 0.960 . S
H974 C966 0.930 . S
H975 C967 0.929 . S
H976 C984 0.929 . S
H977 C986 0.930 . S
H978 C988 0.930 . S
H979 C991 0.929 . S
H980 C994 0.930 . S
H981 C996 0.960 . S
H982 C996 0.960 . S
H983 C996 0.960 . S
C984 H976 0.929 . S
C984 C985 1.377 . S
C984 C986 1.384 . S
C985 C984 1.377 . S
C985 C991 1.390 . S
C986 H977 0.930 . S
C986 C984 1.384 . S
C986 C987 1.372 . S
C987 C986 1.372 . S
C987 C988 1.400 . S
C987 C992 1.490 . S
C988 H978 0.930 . S
C988 C987 1.400 . S
C988 C991 1.386 . S
H989 C1005 0.930 . S
H990 C1006 0.931 . S
C991 H979 0.929 . S
C991 C985 1.390 . S
C991 C988 1.386 . S
C992 C987 1.490 . S
C992 C994 1.395 . S
C992 C995 1.403 . S
H993 C999 0.930 . S
C994 H980 0.930 . S
C994 C992 1.395 . S
C994 C997 1.403 . S
C995 C992 1.403 . S
C995 C996 1.524 . S
C995 C999 1.400 . S
C996 H981 0.960 . S
C996 H982 0.960 . S
C996 H983 0.960 . S
C996 C995 1.524 . S
C997 C994 1.403 . S
C997 C998 1.392 . S
C997 C1001 1.495 . S
C998 C997 1.392 . S
C998 C999 1.385 . S
C998 C1000 1.478 . S
C999 H993 0.930 . S
C999 C995 1.400 . S
C999 C998 1.385 . S
C1000 C998 1.478 . S
C1000 C1002 1.381 . S
C1000 C1006 1.383 . S
C1001 C997 1.495 . S
C1001 H1007 0.959 . S
C1001 H1008 0.961 . S
C1001 H1009 0.960 . S
C1002 C1000 1.381 . S
C1002 C1003 1.394 . S
C1002 H1010 0.930 . S
C1003 C1002 1.394 . S
C1003 C1004 1.383 . S
C1003 H1011 0.929 . S
C1004 C1003 1.383 . S
C1004 C1005 1.377 . S
C1005 H989 0.930 . S
C1005 C1004 1.377 . S
C1005 C1006 1.379 . S
C1006 H990 0.931 . S
C1006 C1000 1.383 . S
C1006 C1005 1.379 . S
H1007 C1001 0.959 . S
H1008 C1001 0.961 . S
H1009 C1001 0.960 . S
H1010 C1002 0.930 . S
H1011 C1003 0.929 . S
H1012 C1020 0.929 . S
H1013 C1022 0.930 . S
H1014 C1024 0.930 . S
H1015 C1027 0.929 . S
H1016 C1030 0.930 . S
H1017 C1032 0.960 . S
H1018 C1032 0.960 . S
H1019 C1032 0.960 1_554 S
C1020 H1012 0.929 . S
C1020 C1021 1.377 1_556 S
C1020 C1022 1.384 . S
C1021 C1020 1.377 1_554 S
C1021 C1027 1.390 . S
C1022 H1013 0.930 . S
C1022 C1020 1.384 . S
C1022 C1023 1.372 1_556 S
C1023 C1022 1.372 1_554 S
C1023 C1024 1.400 . S
C1023 C1028 1.490 . S
C1024 H1014 0.930 . S
C1024 C1023 1.400 . S
C1024 C1027 1.386 . S
H1025 C1041 0.930 . S
H1026 C1042 0.931 . S
C1027 H1015 0.929 . S
C1027 C1021 1.390 . S
C1027 C1024 1.386 . S
C1028 C1023 1.490 . S
C1028 C1030 1.395 . S
C1028 C1031 1.403 . S
H1029 C1035 0.930 . S
C1030 H1016 0.930 . S
C1030 C1028 1.395 . S
C1030 C1033 1.403 . S
C1031 C1028 1.403 . S
C1031 C1032 1.524 1_554 S
C1031 C1035 1.400 . S
C1032 H1017 0.960 . S
C1032 H1018 0.960 . S
C1032 H1019 0.960 1_556 S
C1032 C1031 1.524 1_556 S
C1033 C1030 1.403 . S
C1033 C1034 1.392 . S
C1033 C1037 1.495 . S
C1034 C1033 1.392 . S
C1034 C1035 1.385 . S
C1034 C1036 1.478 . S
C1035 H1029 0.930 . S
C1035 C1031 1.400 . S
C1035 C1034 1.385 . S
C1036 C1034 1.478 . S
C1036 C1038 1.381 1_554 S
C1036 C1042 1.383 . S
C1037 C1033 1.495 . S
C1037 H1043 0.959 . S
C1037 H1044 0.961 . S
C1037 H1045 0.960 1_554 S
C1038 C1036 1.381 1_556 S
C1038 C1039 1.394 . S
C1038 H1046 0.930 . S
C1039 C1038 1.394 . S
C1039 C1040 1.383 1_556 S
C1039 H1047 0.929 . S
C1040 C1039 1.383 1_554 S
C1040 C1041 1.377 . S
C1041 H1025 0.930 . S
C1041 C1040 1.377 . S
C1041 C1042 1.379 . S
C1042 H1026 0.931 . S
C1042 C1036 1.383 . S
C1042 C1041 1.379 . S
H1043 C1037 0.959 . S
H1044 C1037 0.961 . S
H1045 C1037 0.960 1_556 S
H1046 C1038 0.930 . S
H1047 C1039 0.929 . S
C193 C21 1.490 . S
C212 C130 1.500 . S
C229 C40 1.488 . S
C248 C94 1.473 . S
C284 C109 1.455 . S
C265 C54 1.462 . S
C301 C73 1.521 . S
C320 C121 1.499 . S
C356 C157 1.419 . S
C337 C74 1.452 . S
C392 C169 1.490 . S
C373 C10 1.504 . S
C428 C178 1.507 . S
C409 C37 1.499 . S
C464 C142 1.519 . S
C445 C65 1.507 . S
C481 C52 1.435 . S
C500 C106 1.435 . S
C517 C87 1.513 . S
C536 C118 1.497 . S
C553 C15 1.517 . S
C572 C133 1.488 . S
C608 C97 1.467 . S
C589 C32 1.494 . S
C625 C29 1.504 . S
C644 C181 1.510 . S
C680 C145 1.497 . S
C661 C59 1.533 . S
C716 C154 1.430 . S
C697 C84 1.444 . S
C733 C8 1.477 . S
C752 C166 1.472 . S
C788 C92 1.516 . S
C769 C7 1.534 . S
C824 C104 1.468 . S
C805 C30 1.482 . S
C841 C62 1.535 . S
C860 C116 1.534 . S
C877 C81 1.505 . S
C896 C128 1.509 . S
C932 C140 1.521 . S
C913 C76 1.535 . S
C949 C18 1.483 . S
C968 C152 1.472 . S
C985 C43 1.532 . S
C1004 C164 1.535 . S
C1021 C51 1.506 . S
C1040 C176 1.509 . S
