# Generated by pormake.
# Topology apo, (3,6)-cn, num edge types: 1
# Building blocks:
#     Node 0, Type 0, BuildingBlock: BELTOD_clean_linker_0, # of connection points: 3
#     Node 1, Type 0, BuildingBlock: BELTOD_clean_linker_0, # of connection points: 3
#     Node 2, Type 0, BuildingBlock: BELTOD_clean_linker_0, # of connection points: 3
#     Node 3, Type 0, BuildingBlock: BELTOD_clean_linker_0, # of connection points: 3
#     Node 4, Type 0, BuildingBlock: BELTOD_clean_linker_0, # of connection points: 3
#     Node 5, Type 0, BuildingBlock: BELTOD_clean_linker_0, # of connection points: 3
#     Node 6, Type 0, BuildingBlock: BELTOD_clean_linker_0, # of connection points: 3
#     Node 7, Type 0, BuildingBlock: BELTOD_clean_linker_0, # of connection points: 3
#     Node 8, Type 1, BuildingBlock: KUMJIN_clean_sbu_1, # of connection points: 6
#     Node 9, Type 1, BuildingBlock: KUMJIN_clean_sbu_1, # of connection points: 6
#     Node 10, Type 1, BuildingBlock: KUMJIN_clean_sbu_1, # of connection points: 6
#     Node 11, Type 1, BuildingBlock: KUMJIN_clean_sbu_1, # of connection points: 6
#     Edge 12, Type (0, 1), BuildingBlock: CIFDUS_clean_linker_0, # of connection points: 2
#     Edge 13, Type (0, 1), BuildingBlock: CIFDUS_clean_linker_0, # of connection points: 2
#     Edge 14, Type (0, 1), BuildingBlock: CIFDUS_clean_linker_0, # of connection points: 2
#     Edge 15, Type (0, 1), BuildingBlock: CIFDUS_clean_linker_0, # of connection points: 2
#     Edge 16, Type (0, 1), BuildingBlock: CIFDUS_clean_linker_0, # of connection points: 2
#     Edge 17, Type (0, 1), BuildingBlock: CIFDUS_clean_linker_0, # of connection points: 2
#     Edge 18, Type (0, 1), BuildingBlock: CIFDUS_clean_linker_0, # of connection points: 2
#     Edge 19, Type (0, 1), BuildingBlock: CIFDUS_clean_linker_0, # of connection points: 2
#     Edge 20, Type (0, 1), BuildingBlock: CIFDUS_clean_linker_0, # of connection points: 2
#     Edge 21, Type (0, 1), BuildingBlock: CIFDUS_clean_linker_0, # of connection points: 2
#     Edge 22, Type (0, 1), BuildingBlock: CIFDUS_clean_linker_0, # of connection points: 2
#     Edge 23, Type (0, 1), BuildingBlock: CIFDUS_clean_linker_0, # of connection points: 2
#     Edge 24, Type (0, 1), BuildingBlock: CIFDUS_clean_linker_0, # of connection points: 2
#     Edge 25, Type (0, 1), BuildingBlock: CIFDUS_clean_linker_0, # of connection points: 2
#     Edge 26, Type (0, 1), BuildingBlock: CIFDUS_clean_linker_0, # of connection points: 2
#     Edge 27, Type (0, 1), BuildingBlock: CIFDUS_clean_linker_0, # of connection points: 2
#     Edge 28, Type (0, 1), BuildingBlock: CIFDUS_clean_linker_0, # of connection points: 2
#     Edge 29, Type (0, 1), BuildingBlock: CIFDUS_clean_linker_0, # of connection points: 2
#     Edge 30, Type (0, 1), BuildingBlock: CIFDUS_clean_linker_0, # of connection points: 2
#     Edge 31, Type (0, 1), BuildingBlock: CIFDUS_clean_linker_0, # of connection points: 2
#     Edge 32, Type (0, 1), BuildingBlock: CIFDUS_clean_linker_0, # of connection points: 2
#     Edge 33, Type (0, 1), BuildingBlock: CIFDUS_clean_linker_0, # of connection points: 2
#     Edge 34, Type (0, 1), BuildingBlock: CIFDUS_clean_linker_0, # of connection points: 2
#     Edge 35, Type (0, 1), BuildingBlock: CIFDUS_clean_linker_0, # of connection points: 2
# Relax obj value: 0.008
# Max RMSD: 0.117
# Mean RMSD: 0.086
data_MOF--net-apo--node1-KUMJIN_clean_sbu_1--node2-BELTOD_clean_linker_0--edge1-CIFDUS_clean_linker_0
_symmetry_space_group_name_H-M    P1
_symmetry_Int_Tables_number       1
_symmetry_cell_setting            triclinic
loop_
_symmetry_equiv_pos_as_xyz
'x, y, z'
_cell_length_a     24.522771
_cell_length_b     43.213505
_cell_length_c     54.035604
_cell_angle_alpha  89.743993
_cell_angle_beta   90.173978
_cell_angle_gamma 90.508645
loop_
_atom_site_label
_atom_site_type_symbol
_atom_site_fract_x
_atom_site_fract_y
_atom_site_fract_z
_atom_type_partial_charge
P0 P 0.35351 0.35191 0.40759 0.0
H1 H 0.36457 0.30599 0.44644 0.0
H2 H 0.36977 0.31055 0.49153 0.0
H3 H 0.31911 0.40568 0.48626 0.0
H4 H 0.31493 0.40126 0.44095 0.0
H5 H 0.36459 0.32175 0.36042 0.0
H6 H 0.3073 0.2854 0.33742 0.0
H7 H 0.18176 0.29321 0.39282 0.0
H8 H 0.24007 0.32972 0.41613 0.0
H9 H 0.43713 0.39898 0.41339 0.0
H10 H 0.28879 0.38776 0.37117 0.0
O11 O 0.41427 0.33509 0.4051 0.0
H12 H 0.45966 0.44564 0.38964 0.0
H13 H 0.31117 0.43474 0.34736 0.0
C14 C 0.3401 0.35337 0.44035 0.0
C15 C 0.35309 0.3276 0.45498 0.0
C16 C 0.35611 0.3302 0.48071 0.0
C17 C 0.34515 0.3585 0.49225 0.0
C18 C 0.32745 0.38358 0.47775 0.0
C19 C 0.32519 0.38107 0.45188 0.0
C20 C 0.30701 0.32787 0.3902 0.0
C21 C 0.32469 0.31576 0.36764 0.0
C22 C 0.29197 0.29498 0.35451 0.0
C23 C 0.24045 0.28618 0.36352 0.0
C24 C 0.2214 0.2996 0.38552 0.0
C25 C 0.25466 0.3203 0.39886 0.0
C26 C 0.36184 0.38967 0.39377 0.0
C27 C 0.40887 0.40692 0.39933 0.0
C28 C 0.42178 0.4335 0.38573 0.0
C29 C 0.38749 0.4435 0.36647 0.0
C30 C 0.33824 0.4275 0.36212 0.0
C31 C 0.32556 0.40062 0.37566 0.0
P32 P 0.28517 0.09865 0.92 0.0
H33 H 0.32828 0.06027 0.8809 0.0
H34 H 0.28713 0.02289 0.8527 0.0
H35 H 0.12868 0.04141 0.88402 0.0
H36 H 0.17016 0.08017 0.91121 0.0
H37 H 0.37837 0.14102 0.91995 0.0
H38 H 0.40036 0.18714 0.89562 0.0
H39 H 0.24171 0.18232 0.86081 0.0
H40 H 0.21969 0.13609 0.88553 0.0
H41 H 0.21814 0.05633 0.94974 0.0
H42 H 0.27857 0.15008 0.95512 0.0
O43 O 0.34539 0.08344 0.92744 0.0
H44 H 0.18136 0.05971 0.99154 0.0
H45 H 0.24303 0.15326 0.99739 0.0
C46 C 0.25259 0.07211 0.89879 0.0
C47 C 0.28466 0.05627 0.88169 0.0
C48 C 0.26102 0.03473 0.86563 0.0
C49 C 0.20461 0.02847 0.86637 0.0
C50 C 0.1722 0.04552 0.88285 0.0
C51 C 0.19595 0.06744 0.89869 0.0
C52 C 0.29783 0.13479 0.90418 0.0
C53 C 0.34815 0.14993 0.9072 0.0
C54 C 0.36077 0.17623 0.89318 0.0
C55 C 0.32314 0.18807 0.87597 0.0
C56 C 0.27157 0.17374 0.8739 0.0
C57 C 0.25902 0.14728 0.88793 0.0
C58 C 0.24925 0.10336 0.94883 0.0
C59 C 0.22193 0.07803 0.95956 0.0
C60 C 0.2012 0.0799 0.98357 0.0
C61 C 0.20896 0.10684 0.99768 0.0
C62 C 0.23626 0.13226 0.98691 0.0
C63 C 0.25617 0.13053 0.96268 0.0
P64 P 0.86799 0.1547 0.61949 0.0
H65 H 0.86745 0.20809 0.58732 0.0
H66 H 0.87588 0.2146 0.5426 0.0
H67 H 0.87348 0.11535 0.53362 0.0
H68 H 0.86471 0.10893 0.57867 0.0
H69 H 0.86196 0.18464 0.66735 0.0
H70 H 0.79333 0.21689 0.68688 0.0
H71 H 0.68889 0.20593 0.62289 0.0
H72 H 0.75838 0.17383 0.6033 0.0
H73 H 0.9493 0.10631 0.62083 0.0
H74 H 0.78281 0.1173 0.64441 0.0
O75 O 0.92781 0.16994 0.62812 0.0
H76 H 0.95412 0.05721 0.6431 0.0
H77 H 0.78686 0.0678 0.66642 0.0
C78 C 0.86537 0.15809 0.58629 0.0
C79 C 0.86788 0.1877 0.57572 0.0
C80 C 0.87306 0.1914 0.55019 0.0
C81 C 0.87596 0.16548 0.53465 0.0
C82 C 0.87116 0.13572 0.54516 0.0
C83 C 0.86626 0.13204 0.57088 0.0
C84 C 0.81573 0.17751 0.63369 0.0
C85 C 0.82433 0.18924 0.6575 0.0
C86 C 0.78484 0.20745 0.66873 0.0
C87 C 0.7357 0.21408 0.65639 0.0
C88 C 0.72666 0.20162 0.6327 0.0
C89 C 0.76627 0.18326 0.6215 0.0
C90 C 0.86607 0.11564 0.63125 0.0
C91 C 0.91337 0.09778 0.63037 0.0
C92 C 0.91594 0.06961 0.64307 0.0
C93 C 0.87102 0.05865 0.65683 0.0
C94 C 0.82251 0.07583 0.65642 0.0
C95 C 0.82003 0.10407 0.64368 0.0
P96 P 0.80089 0.40137 0.10284 0.0
H97 H 0.81994 0.46343 0.12267 0.0
H98 H 0.76555 0.49707 0.1489 0.0
H99 H 0.63621 0.42865 0.14988 0.0
H100 H 0.69057 0.39514 0.12301 0.0
H101 H 0.86342 0.34773 0.0883 0.0
H102 H 0.89032 0.30052 0.11001 0.0
H103 H 0.79912 0.32943 0.1741 0.0
H104 H 0.77461 0.37697 0.15278 0.0
H105 H 0.78609 0.44017 0.05945 0.0
H106 H 0.74174 0.34755 0.08212 0.0
O107 O 0.86035 0.41898 0.09701 0.0
H108 H 0.74823 0.43039 0.01832 0.0
H109 H 0.7058 0.33709 0.04076 0.0
C110 C 0.7594 0.42668 0.12109 0.0
C111 C 0.77976 0.45568 0.12832 0.0
C112 C 0.74863 0.47495 0.14326 0.0
C113 C 0.69687 0.46535 0.15146 0.0
C114 C 0.67621 0.43643 0.14394 0.0
C115 C 0.70704 0.41739 0.12858 0.0
C116 C 0.81644 0.36574 0.11872 0.0
C117 C 0.84898 0.34375 0.10699 0.0
C118 C 0.86404 0.31668 0.11938 0.0
C119 C 0.84685 0.3111 0.14383 0.0
C120 C 0.81367 0.33311 0.15541 0.0
C121 C 0.79898 0.36027 0.14305 0.0
C122 C 0.76797 0.39437 0.07358 0.0
C123 C 0.76823 0.41769 0.05553 0.0
C124 C 0.74687 0.41199 0.03198 0.0
C125 C 0.72482 0.38276 0.02606 0.0
C126 C 0.72231 0.35988 0.04467 0.0
C127 C 0.7434 0.36573 0.06829 0.0
P128 P 0.78938 0.59484 0.60462 0.0
H129 H 0.82842 0.60256 0.55428 0.0
H130 H 0.78238 0.60525 0.51457 0.0
H131 H 0.62712 0.61164 0.55192 0.0
H132 H 0.67385 0.60735 0.59178 0.0
H133 H 0.89673 0.61123 0.62386 0.0
H134 H 0.93021 0.65292 0.64965 0.0
H135 H 0.76947 0.69328 0.65 0.0
H136 H 0.73701 0.65218 0.62232 0.0
H137 H 0.79365 0.52886 0.61647 0.0
H138 H 0.69457 0.60664 0.63689 0.0
O139 O 0.8439 0.57426 0.59667 0.0
H140 H 0.74205 0.49575 0.64446 0.0
H141 H 0.64107 0.57325 0.66426 0.0
C142 C 0.7546 0.60397 0.57605 0.0
C143 C 0.78448 0.60484 0.554 0.0
C144 C 0.75791 0.60668 0.53115 0.0
C145 C 0.70065 0.60828 0.5298 0.0
C146 C 0.67109 0.60963 0.55212 0.0
C147 C 0.69784 0.60743 0.57503 0.0
C148 C 0.8141 0.62829 0.62129 0.0
C149 C 0.86861 0.62921 0.62909 0.0
C150 C 0.88766 0.653 0.64424 0.0
C151 C 0.85235 0.67621 0.65256 0.0
C152 C 0.79795 0.67586 0.64402 0.0
C153 C 0.77912 0.65218 0.62837 0.0
C154 C 0.74851 0.57044 0.62465 0.0
C155 C 0.76056 0.53889 0.62684 0.0
C156 C 0.73055 0.5198 0.64277 0.0
C157 C 0.68719 0.53173 0.65667 0.0
C158 C 0.6747 0.56333 0.65417 0.0
C159 C 0.70516 0.58249 0.63835 0.0
P160 P 0.85435 0.85508 0.10876 0.0
H161 H 0.9263 0.86462 0.15103 0.0
H162 H 0.94248 0.90836 0.17857 0.0
H163 H 0.81953 0.96063 0.13957 0.0
H164 H 0.80391 0.91662 0.11183 0.0
H165 H 0.83433 0.78913 0.10245 0.0
H166 H 0.77523 0.75203 0.12384 0.0
H167 H 0.70556 0.82648 0.16611 0.0
H168 H 0.76371 0.8636 0.14403 0.0
H169 H 0.89281 0.90715 0.07888 0.0
H170 H 0.78699 0.82791 0.06895 0.0
O171 O 0.91303 0.8359 0.10745 0.0
H172 H 0.88165 0.9208 0.03528 0.0
H173 H 0.77614 0.84131 0.02513 0.0
C174 C 0.86498 0.88769 0.12899 0.0
C175 C 0.90301 0.88554 0.1483 0.0
C176 C 0.91187 0.91049 0.16419 0.0
C177 C 0.88248 0.93807 0.1612 0.0
C178 C 0.84346 0.93991 0.1421 0.0
C179 C 0.83446 0.91479 0.12626 0.0
C180 C 0.80413 0.82905 0.12189 0.0
C181 C 0.80577 0.79753 0.11606 0.0
C182 C 0.77219 0.77632 0.12845 0.0
C183 C 0.73633 0.78618 0.14707 0.0
C184 C 0.73259 0.81807 0.15188 0.0
C185 C 0.76614 0.83934 0.13934 0.0
C186 C 0.83932 0.86708 0.07745 0.0
C187 C 0.86613 0.89306 0.06748 0.0
C188 C 0.85998 0.90076 0.04248 0.0
C189 C 0.82786 0.88219 0.02676 0.0
C190 C 0.80134 0.85599 0.03675 0.0
C191 C 0.80707 0.8485 0.06188 0.0
P192 P 0.28633 0.8931 0.41462 0.0
H193 H 0.30527 0.84858 0.45447 0.0
H194 H 0.26825 0.84461 0.49642 0.0
H195 H 0.15012 0.91478 0.47843 0.0
H196 H 0.18725 0.91871 0.43671 0.0
H197 H 0.35794 0.88984 0.3728 0.0
H198 H 0.38113 0.84876 0.34396 0.0
H199 H 0.27839 0.78488 0.3846 0.0
H200 H 0.25425 0.82657 0.41335 0.0
H201 H 0.29173 0.96032 0.40858 0.0
H202 H 0.20101 0.88396 0.37727 0.0
O203 O 0.3441 0.91033 0.42375 0.0
H204 H 0.2482 0.99578 0.37946 0.0
H205 H 0.15667 0.91945 0.34815 0.0
C206 C 0.24875 0.88366 0.44232 0.0
C207 C 0.27013 0.86229 0.45929 0.0
C208 C 0.24894 0.86005 0.48328 0.0
C209 C 0.20652 0.87957 0.4908 0.0
C210 C 0.18313 0.89964 0.47326 0.0
C211 C 0.20416 0.90174 0.44928 0.0
C212 C 0.30524 0.86109 0.39543 0.0
C213 C 0.34066 0.86694 0.37564 0.0
C214 C 0.35348 0.84356 0.35905 0.0
C215 C 0.33134 0.81373 0.36201 0.0
C216 C 0.29616 0.8077 0.38202 0.0
C217 C 0.2826 0.8314 0.3985 0.0
C218 C 0.25008 0.91951 0.39483 0.0
C219 C 0.26216 0.95122 0.39553 0.0
C220 C 0.23709 0.97148 0.37891 0.0
C221 C 0.1993 0.96037 0.36136 0.0
C222 C 0.18629 0.92861 0.36116 0.0
C223 C 0.21128 0.90837 0.37788 0.0
P224 P 0.35718 0.65006 0.90161 0.0
H225 H 0.33096 0.63757 0.85001 0.0
H226 H 0.33906 0.59207 0.82406 0.0
H227 H 0.4011 0.54039 0.88666 0.0
H228 H 0.38956 0.58566 0.91288 0.0
H229 H 0.34732 0.71635 0.89097 0.0
H230 H 0.27617 0.74654 0.87062 0.0
H231 H 0.17148 0.66562 0.86922 0.0
H232 H 0.24316 0.63548 0.88951 0.0
H233 H 0.44106 0.63039 0.93637 0.0
H234 H 0.27202 0.65649 0.93984 0.0
O235 O 0.41481 0.66916 0.89505 0.0
H236 H 0.44472 0.62721 0.98149 0.0
H237 H 0.27575 0.65451 0.98495 0.0
C238 C 0.35831 0.61494 0.8836 0.0
C239 C 0.34496 0.61624 0.85836 0.0
C240 C 0.35045 0.59021 0.84338 0.0
C241 C 0.371 0.5624 0.85312 0.0
C242 C 0.3842 0.56115 0.87852 0.0
C243 C 0.3779 0.58718 0.8936 0.0
C244 C 0.30092 0.67353 0.89124 0.0
C245 C 0.30878 0.7052 0.88663 0.0
C246 C 0.26791 0.7225 0.8751 0.0
C247 C 0.21844 0.70837 0.86798 0.0
C248 C 0.20951 0.67703 0.87407 0.0
C249 C 0.2503 0.65982 0.88577 0.0
C250 C 0.35642 0.64384 0.9347 0.0
C251 C 0.40455 0.63519 0.94686 0.0
C252 C 0.4067 0.63364 0.97271 0.0
C253 C 0.36073 0.64093 0.98701 0.0
C254 C 0.31186 0.64842 0.97464 0.0
C255 C 0.30971 0.64977 0.94874 0.0
Eu256 Eu 0.06573 0.13562 0.2335 0.0
C257 C 0.82962 0.10982 0.25161 0.0
N258 N 0.85664 0.13684 0.25626 0.0
C259 C 0.78898 0.16486 0.23334 0.0
C260 C 0.78257 0.1092 0.23652 0.0
C261 C 0.83502 0.16434 0.24866 0.0
C262 C 0.76324 0.13712 0.22684 0.0
C263 C 0.81849 0.0548 0.25987 0.0
C264 C 0.84708 0.08292 0.26317 0.0
C265 C 0.77318 0.05384 0.24394 0.0
C266 C 0.75529 0.08097 0.23228 0.0
Eu267 Eu 0.93683 0.13261 0.28077 0.0
N268 N 0.89178 0.08436 0.27802 0.0
C269 C 0.83587 0.02863 0.273 0.0
C270 C 0.90732 0.05944 0.29189 0.0
C271 C 0.87998 0.03108 0.28936 0.0
H272 H 0.85245 0.18606 0.25465 0.0
H273 H 0.89312 0.01111 0.29988 0.0
H274 H 0.16907 0.10863 0.26705 0.0
H275 H 0.05529 0.24357 0.18033 0.0
H276 H 0.94181 0.06142 0.30432 0.0
H277 H 0.81499 0.00658 0.27094 0.0
H278 H 0.03222 0.18929 0.19045 0.0
H279 H 0.77289 0.18671 0.22689 0.0
H280 H 0.75103 0.03238 0.24092 0.0
H281 H 0.71943 0.08002 0.22053 0.0
H282 H 0.25514 0.12788 0.28591 0.0
H283 H 0.72724 0.13763 0.21517 0.0
H284 H 0.13099 0.27 0.20237 0.0
N285 N 0.14892 0.15216 0.25128 0.0
C286 C 0.16487 0.18178 0.24681 0.0
C287 C 0.22996 0.14333 0.27508 0.0
C288 C 0.21317 0.19387 0.25731 0.0
C289 C 0.18135 0.1325 0.26444 0.0
C290 C 0.24558 0.17427 0.27178 0.0
N291 N 0.08948 0.18625 0.21994 0.0
C292 C 0.06339 0.20108 0.20103 0.0
C293 C 0.14982 0.23011 0.22515 0.0
C294 C 0.1336 0.19956 0.23097 0.0
C295 C 0.11995 0.24645 0.20734 0.0
C296 C 0.07717 0.23164 0.19489 0.0
H297 H 0.28308 0.18265 0.28015 0.0
H298 H 0.2646 0.23468 0.26077 0.0
H299 H 0.20909 0.26647 0.23256 0.0
O300 O 0.10424 0.13336 0.1969 0.0
O301 O 0.076 0.15506 0.27246 0.0
O302 O 0.99212 0.17508 0.28225 0.0
O303 O 0.10376 0.09328 0.22075 0.0
O304 O 0.98548 0.15798 0.22197 0.0
O305 O 0.94831 0.17658 0.25804 0.0
O306 O 0.94047 0.12688 0.32096 0.0
O307 O 0.95728 0.09271 0.25502 0.0
O308 O 0.98238 0.11985 0.22105 0.0
O309 O 0.87056 0.14852 0.30429 0.0
O310 O 0.01493 0.11192 0.29513 0.0
O311 O 0.06369 0.095 0.26087 0.0
C312 C 0.04564 0.17528 0.28409 0.0
C313 C 0.09587 0.08417 0.17756 0.0
C314 C 0.08994 0.07458 0.1329 0.0
C315 C 0.06315 0.04631 0.13797 0.0
C316 C 0.06898 0.05577 0.18193 0.0
C317 C 0.05287 0.03707 0.16226 0.0
C318 C 0.10646 0.09338 0.15294 0.0
C319 C 0.95877 0.17928 0.23424 0.0
C320 C 0.11364 0.10384 0.19858 0.0
C321 C 0.22803 0.22479 0.2526 0.0
C322 C 0.19635 0.24291 0.23658 0.0
C323 C 0.96021 0.09521 0.2309 0.0
C324 C 0.89807 0.16597 0.34372 0.0
C325 C 0.89299 0.18129 0.38713 0.0
C326 C 0.9053 0.21196 0.37999 0.0
C327 C 0.9109 0.19658 0.33707 0.0
C328 C 0.88935 0.15838 0.36871 0.0
C329 C 0.91435 0.21944 0.35516 0.0
C330 C 0.05167 0.09418 0.28472 0.0
C331 C 0.89537 0.14161 0.32487 0.0
H332 H 0.05092 0.03094 0.12315 0.0
H333 H 0.0603 0.04786 0.20057 0.0
H334 H 0.03242 0.01521 0.16586 0.0
H335 H 0.12707 0.11524 0.14942 0.0
H336 H 0.90748 0.23029 0.39356 0.0
H337 H 0.91821 0.20277 0.31791 0.0
H338 H 0.88073 0.13454 0.37377 0.0
H339 H 0.92403 0.24306 0.34991 0.0
Eu340 Eu 0.4303 0.35523 0.74028 0.0
C341 C 0.66439 0.39827 0.76268 0.0
N342 N 0.64218 0.36981 0.76701 0.0
C343 C 0.71932 0.34596 0.74793 0.0
C344 C 0.71397 0.40167 0.74974 0.0
C345 C 0.67046 0.34379 0.76113 0.0
C346 C 0.74069 0.37503 0.7418 0.0
C347 C 0.66223 0.45379 0.76942 0.0
C348 C 0.63897 0.42406 0.77236 0.0
C349 C 0.71037 0.45738 0.75566 0.0
C350 C 0.73611 0.43139 0.74579 0.0
Eu351 Eu 0.55691 0.36908 0.7877 0.0
N352 N 0.59149 0.42002 0.78488 0.0
C353 C 0.63643 0.47898 0.7805 0.0
C354 C 0.56756 0.44413 0.79677 0.0
C355 C 0.58922 0.47406 0.79447 0.0
H356 H 0.6562 0.32128 0.76699 0.0
H357 H 0.56951 0.49328 0.80346 0.0
H358 H 0.3281 0.38315 0.77374 0.0
H359 H 0.45427 0.23972 0.70034 0.0
H360 H 0.53144 0.44019 0.80775 0.0
H361 H 0.65298 0.5022 0.77863 0.0
H362 H 0.47253 0.29549 0.7045 0.0
H363 H 0.74089 0.3252 0.74284 0.0
H364 H 0.72844 0.4801 0.75285 0.0
H365 H 0.77383 0.43445 0.73564 0.0
H366 H 0.24545 0.36382 0.79528 0.0
H367 H 0.77883 0.37664 0.73179 0.0
H368 H 0.37953 0.21507 0.72416 0.0
N369 N 0.35031 0.33875 0.76068 0.0
C370 C 0.33649 0.30837 0.7586 0.0
C371 C 0.27088 0.34797 0.78515 0.0
C372 C 0.29002 0.29629 0.77066 0.0
C373 C 0.31764 0.35883 0.77303 0.0
C374 C 0.25727 0.31651 0.78417 0.0
N375 N 0.41285 0.30204 0.73249 0.0
C376 C 0.44164 0.28489 0.71596 0.0
C377 C 0.3562 0.25767 0.74205 0.0
C378 C 0.36933 0.28936 0.7445 0.0
C379 C 0.38824 0.2395 0.72653 0.0
C380 C 0.43058 0.2533 0.71312 0.0
H381 H 0.22125 0.30812 0.79372 0.0
H382 H 0.24271 0.25477 0.7783 0.0
H383 H 0.30056 0.22094 0.75319 0.0
O384 O 0.39062 0.34921 0.70418 0.0
O385 O 0.42562 0.33729 0.78005 0.0
O386 O 0.51331 0.32273 0.78831 0.0
O387 O 0.3838 0.39262 0.72332 0.0
O388 O 0.513 0.33597 0.72872 0.0
O389 O 0.55859 0.32451 0.76526 0.0
O390 O 0.54627 0.37581 0.82742 0.0
O391 O 0.53496 0.40499 0.75835 0.0
O392 O 0.50991 0.37463 0.72588 0.0
O393 O 0.62201 0.35768 0.8138 0.0
O394 O 0.47314 0.38495 0.79934 0.0
O395 O 0.42919 0.39952 0.7632 0.0
C396 C 0.46052 0.31825 0.79033 0.0
C397 C 0.3939 0.39453 0.67975 0.0
C398 C 0.3934 0.39956 0.63465 0.0
C399 C 0.43392 0.42265 0.63641 0.0
C400 C 0.43398 0.41797 0.68099 0.0
C401 C 0.45373 0.4319 0.65946 0.0
C402 C 0.37315 0.38567 0.65646 0.0
C403 C 0.54897 0.31983 0.74151 0.0
C404 C 0.37641 0.37807 0.70248 0.0
C405 C 0.27786 0.26457 0.76891 0.0
C406 C 0.31093 0.24529 0.75468 0.0
C407 C 0.53405 0.39944 0.73453 0.0
C408 C 0.59172 0.34009 0.85277 0.0
C409 C 0.60198 0.32597 0.89632 0.0
C410 C 0.58617 0.29546 0.89051 0.0
C411 C 0.57649 0.30952 0.8473 0.0
C412 C 0.6044 0.34823 0.87722 0.0
C413 C 0.57357 0.28736 0.86613 0.0
C414 C 0.43975 0.40299 0.787 0.0
C415 C 0.59308 0.36386 0.83327 0.0
H416 H 0.45001 0.43369 0.6199 0.0
H417 H 0.45056 0.42534 0.69861 0.0
H418 H 0.48483 0.44978 0.66063 0.0
H419 H 0.3426 0.36744 0.65526 0.0
H420 H 0.58444 0.27774 0.90473 0.0
H421 H 0.56693 0.30285 0.82851 0.0
H422 H 0.6155 0.37199 0.88138 0.0
H423 H 0.56172 0.2638 0.8618 0.0
Eu424 Eu 0.06217 0.85617 0.74017 0.0
C425 C 0.82598 0.8228 0.75752 0.0
N426 N 0.8439 0.85263 0.75636 0.0
C427 C 0.77119 0.86566 0.72865 0.0
C428 C 0.78027 0.81307 0.74361 0.0
C429 C 0.81709 0.87418 0.74251 0.0
C430 C 0.75284 0.83495 0.72909 0.0
C431 C 0.83716 0.77062 0.77335 0.0
C432 C 0.85474 0.80177 0.77201 0.0
C433 C 0.79216 0.76074 0.7592 0.0
C434 C 0.76381 0.78189 0.74439 0.0
Eu435 Eu 0.92257 0.86488 0.7795 0.0
N436 N 0.89893 0.81184 0.78518 0.0
C437 C 0.86453 0.75044 0.78932 0.0
C438 C 0.92193 0.79297 0.80257 0.0
C439 C 0.90631 0.76185 0.80439 0.0
H440 H 0.83157 0.89788 0.74204 0.0
H441 H 0.92576 0.74685 0.8178 0.0
H442 H 0.13139 0.79445 0.76027 0.0
H443 H 0.12814 0.97671 0.73055 0.0
H444 H 0.95109 0.80181 0.81574 0.0
H445 H 0.85227 0.72637 0.7909 0.0
H446 H 0.0664 0.93179 0.72509 0.0
H447 H 0.75017 0.88271 0.71752 0.0
H448 H 0.77849 0.73683 0.75985 0.0
H449 H 0.72902 0.77393 0.73368 0.0
H450 H 0.21869 0.78327 0.78149 0.0
H451 H 0.71754 0.82836 0.71815 0.0
H452 H 0.21659 0.97023 0.75204 0.0
N453 N 0.14618 0.84285 0.75847 0.0
C454 C 0.18193 0.86651 0.76255 0.0
C455 C 0.20877 0.80679 0.77635 0.0
C456 C 0.23257 0.86119 0.77414 0.0
C457 C 0.15922 0.81319 0.7646 0.0
C458 C 0.24548 0.83092 0.78129 0.0
N459 N 0.1187 0.90051 0.74389 0.0
C460 C 0.10473 0.92875 0.73457 0.0
C461 C 0.20471 0.92108 0.75825 0.0
C462 C 0.16819 0.89612 0.75475 0.0
C463 C 0.18969 0.95043 0.74967 0.0
C464 C 0.13972 0.9542 0.73757 0.0
H465 H 0.28392 0.82588 0.79032 0.0
H466 H 0.30773 0.8825 0.78707 0.0
H467 H 0.28333 0.9349 0.77315 0.0
O468 O 0.0566 0.86057 0.69988 0.0
O469 O 0.06643 0.88814 0.77362 0.0
O470 O 0.97984 0.90588 0.78321 0.0
O471 O 0.1175 0.8309 0.71609 0.0
O472 O 0.99745 0.88775 0.72392 0.0
O473 O 0.93627 0.90562 0.75361 0.0
O474 O 0.89869 0.86401 0.81874 0.0
O475 O 0.92283 0.84555 0.74023 0.0
O476 O 1.00028 0.81726 0.74137 0.0
O477 O 0.85598 0.89394 0.7926 0.0
O478 O 0.99919 0.8466 0.79859 0.0
O479 O 0.0367 0.81886 0.76709 0.0
C480 C 0.03332 0.90779 0.78433 0.0
C481 C 0.14067 0.85717 0.67906 0.0
C482 C 0.17367 0.8679 0.63723 0.0
C483 C 0.21669 0.88551 0.64734 0.0
C484 C 0.18447 0.8745 0.68867 0.0
C485 C 0.22211 0.88862 0.67289 0.0
C486 C 0.13568 0.85362 0.65325 0.0
C487 C 0.95973 0.90708 0.73163 0.0
C488 C 0.09939 0.84366 0.69582 0.0
C489 C 0.26873 0.88611 0.77808 0.0
C490 C 0.25486 0.91596 0.77013 0.0
C491 C 0.95063 0.82141 0.7332 0.0
C492 C 0.8249 0.89547 0.83542 0.0
C493 C 0.80148 0.89892 0.8794 0.0
C494 C 0.75782 0.91835 0.87308 0.0
C495 C 0.78108 0.91497 0.82972 0.0
C496 C 0.83478 0.88735 0.86035 0.0
C497 C 0.74778 0.92623 0.84844 0.0
C498 C 0.03281 0.82525 0.7907 0.0
C499 C 0.86046 0.88429 0.81532 0.0
H500 H 0.24667 0.89651 0.63543 0.0
H501 H 0.1897 0.87713 0.70836 0.0
H502 H 0.25565 0.902 0.68051 0.0
H503 H 0.10199 0.84026 0.64567 0.0
H504 H 0.73092 0.92719 0.88719 0.0
H505 H 0.77245 0.92157 0.81075 0.0
H506 H 0.86887 0.87259 0.86496 0.0
H507 H 0.71399 0.94116 0.84384 0.0
Eu508 Eu 0.43316 0.63649 0.23529 0.0
C509 C 0.6848 0.65443 0.25963 0.0
N510 N 0.65522 0.62771 0.2612 0.0
C511 C 0.72812 0.59944 0.24282 0.0
C512 C 0.73741 0.65463 0.24917 0.0
C513 C 0.67606 0.60036 0.25324 0.0
C514 C 0.75891 0.62669 0.24072 0.0
C515 C 0.69073 0.71007 0.26559 0.0
C516 C 0.66159 0.68191 0.26769 0.0
C517 C 0.74327 0.71028 0.25532 0.0
C518 C 0.76652 0.68266 0.24713 0.0
Eu519 Eu 0.56762 0.63183 0.27849 0.0
N520 N 0.60961 0.68126 0.27656 0.0
C521 C 0.66595 0.73727 0.27364 0.0
C522 C 0.58612 0.7075 0.2853 0.0
C523 C 0.61363 0.73591 0.28373 0.0
H524 H 0.65275 0.57917 0.25521 0.0
H525 H 0.59455 0.75675 0.29042 0.0
H526 H 0.34188 0.67487 0.26895 0.0
H527 H 0.42808 0.51674 0.20183 0.0
H528 H 0.54654 0.70669 0.29374 0.0
H529 H 0.687 0.75936 0.27233 0.0
H530 H 0.46225 0.57011 0.20409 0.0
H531 H 0.7445 0.57772 0.23644 0.0
H532 H 0.76615 0.73172 0.25347 0.0
H533 H 0.80693 0.68327 0.23908 0.0
H534 H 0.25425 0.66456 0.29006 0.0
H535 H 0.79915 0.62591 0.23254 0.0
H536 H 0.34429 0.50156 0.22429 0.0
N537 N 0.34975 0.62885 0.25596 0.0
C538 C 0.32691 0.60013 0.25418 0.0
C539 C 0.2744 0.64621 0.28015 0.0
C540 C 0.27696 0.59324 0.26592 0.0
C541 C 0.32417 0.65194 0.26838 0.0
C542 C 0.25075 0.61672 0.27899 0.0
N543 N 0.40331 0.58449 0.2304 0.0
C544 C 0.42802 0.56356 0.21538 0.0
C545 C 0.33242 0.54713 0.23976 0.0
C546 C 0.35478 0.57727 0.24138 0.0
C547 C 0.36014 0.52495 0.22598 0.0
C548 C 0.40766 0.53335 0.21342 0.0
H549 H 0.21231 0.61232 0.28825 0.0
H550 H 0.21696 0.55738 0.27358 0.0
H551 H 0.26528 0.5171 0.25059 0.0
O552 O 0.41704 0.63489 0.19496 0.0
O553 O 0.42755 0.61252 0.27315 0.0
O554 O 0.51139 0.59021 0.27748 0.0
O555 O 0.36976 0.66502 0.21894 0.0
O556 O 0.51059 0.61567 0.21926 0.0
O557 O 0.55163 0.5917 0.25269 0.0
O558 O 0.57144 0.63985 0.31839 0.0
O559 O 0.57494 0.65766 0.2419 0.0
O560 O 0.49041 0.67804 0.2335 0.0
O561 O 0.62543 0.60669 0.30172 0.0
O562 O 0.49246 0.65516 0.29397 0.0
O563 O 0.44628 0.67706 0.26096 0.0
C564 C 0.4589 0.59058 0.28202 0.0
C565 C 0.34538 0.66633 0.17537 0.0
C566 C 0.31818 0.66452 0.13177 0.0
C567 C 0.27843 0.68692 0.13646 0.0
C568 C 0.30546 0.68892 0.17943 0.0
C569 C 0.27244 0.69914 0.16008 0.0
C570 C 0.35215 0.65442 0.15127 0.0
C571 C 0.54441 0.59516 0.22871 0.0
C572 C 0.37793 0.65499 0.19664 0.0
C573 C 0.25518 0.56314 0.26459 0.0
C574 C 0.28283 0.54017 0.25157 0.0
C575 C 0.54354 0.67771 0.23054 0.0
C576 C 0.60037 0.59827 0.34356 0.0
C577 C 0.61067 0.58823 0.38799 0.0
C578 C 0.58751 0.55862 0.38439 0.0
C579 C 0.57744 0.56872 0.34049 0.0
C580 C 0.61637 0.60803 0.36729 0.0
C581 C 0.57079 0.54909 0.36085 0.0
C582 C 0.4576 0.67516 0.28474 0.0
C583 C 0.60878 0.6191 0.32225 0.0
H584 H 0.25216 0.69511 0.1217 0.0
H585 H 0.29937 0.6986 0.19766 0.0
H586 H 0.2418 0.71649 0.16346 0.0
H587 H 0.3826 0.63696 0.14779 0.0
H588 H 0.58341 0.54243 0.39963 0.0
H589 H 0.56533 0.56078 0.32233 0.0
H590 H 0.63335 0.63109 0.36952 0.0
H591 H 0.55336 0.52622 0.35834 0.0
H592 H 0.15846 0.0171 0.37082 0.0
H593 H 0.18233 0.95201 0.31166 0.0
H594 H 0.14081 0.9881 0.28221 0.0
H595 H 0.09675 0.03836 0.27345 0.0
H596 H 0.07245 0.10239 0.33342 0.0
H597 H 0.11606 0.06684 0.3622 0.0
C598 C 0.15508 0.01091 0.35144 0.0
C599 C 0.17357 0.98198 0.34345 0.0
C600 C 0.13128 0.03169 0.3347 0.0
C601 C 0.16791 0.97407 0.31834 0.0
C602 C 0.14451 0.99476 0.30146 0.0
C603 C 0.10152 0.04454 0.29277 0.0
C604 C 0.08128 0.07289 0.3013 0.0
C605 C 0.12598 0.02368 0.30944 0.0
C606 C 0.08724 0.08056 0.32643 0.0
C607 C 0.11222 0.06027 0.34293 0.0
H608 H 0.35803 0.50078 0.86385 0.0
H609 H 0.407 0.56303 0.80506 0.0
H610 H 0.42563 0.51919 0.77835 0.0
H611 H 0.43431 0.4629 0.77242 0.0
H612 H 0.39463 0.40103 0.83258 0.0
H613 H 0.36631 0.44479 0.85795 0.0
C614 C 0.37308 0.50485 0.84526 0.0
C615 C 0.3808 0.53537 0.83661 0.0
C616 C 0.38533 0.47947 0.83014 0.0
C617 C 0.39954 0.53995 0.81222 0.0
C618 C 0.41068 0.51483 0.79691 0.0
C619 C 0.4183 0.4591 0.7909 0.0
C620 C 0.41579 0.42895 0.80061 0.0
C621 C 0.40422 0.48448 0.80572 0.0
C622 C 0.39652 0.42416 0.82477 0.0
C623 C 0.3806 0.44914 0.83929 0.0
H624 H 0.65617 0.4717 0.64934 0.0
H625 H 0.64715 0.54558 0.70267 0.0
H626 H 0.59709 0.51163 0.731 0.0
H627 H 0.55684 0.46062 0.74086 0.0
H628 H 0.57189 0.38605 0.68863 0.0
H629 H 0.61845 0.42064 0.65962 0.0
C630 C 0.64388 0.48037 0.66726 0.0
C631 C 0.65563 0.51123 0.67378 0.0
C632 C 0.61613 0.46056 0.68369 0.0
C633 C 0.63811 0.52211 0.69693 0.0
C634 C 0.60979 0.50263 0.71325 0.0
C635 C 0.57118 0.45187 0.72331 0.0
C636 C 0.56183 0.42073 0.7171 0.0
C637 C 0.59883 0.47177 0.70688 0.0
C638 C 0.57885 0.40992 0.69391 0.0
C639 C 0.60561 0.42966 0.67733 0.0
H640 H 0.89228 -0.00098 0.14851 0.0
H641 H 0.89731 0.9371 0.21134 0.0
H642 H 0.92107 0.98027 0.23843 0.0
H643 H 0.94445 0.03508 0.24395 0.0
H644 H 0.93764 0.09738 0.1815 0.0
H645 H 0.91082 0.05456 0.15454 0.0
C646 C 0.89779 0.99504 0.16818 0.0
C647 C 0.89333 0.96481 0.17783 0.0
C648 C 0.91148 0.01998 0.18369 0.0
C649 C 0.90133 0.96004 0.20335 0.0
C650 C 0.91474 0.98472 0.21888 0.0
C651 C 0.93612 0.03939 0.22456 0.0
C652 C 0.94256 0.06939 0.21482 0.0
C653 C 0.92055 0.01471 0.20921 0.0
C654 C 0.93295 0.07447 0.18947 0.0
C655 C 0.91745 0.05002 0.17405 0.0
H656 H 0.92294 0.00483 0.64618 0.0
H657 H 0.83196 0.0498 0.7038 0.0
H658 H 0.8485 0.00619 0.73162 0.0
H659 H 0.89424 0.95683 0.74058 0.0
H660 H 0.98821 0.91331 0.68306 0.0
H661 H 0.96569 0.95493 0.65456 0.0
C662 C 0.90675 0.00514 0.66484 0.0
C663 C 0.87647 0.03069 0.67285 0.0
C664 C 0.91743 0.98033 0.68094 0.0
C665 C 0.85489 0.03033 0.69696 0.0
C666 C 0.86477 0.0055 0.71301 0.0
C667 C 0.90955 0.95633 0.72178 0.0
C668 C 0.9433 0.93197 0.71418 0.0
C669 C 0.89678 0.98059 0.70534 0.0
C670 C 0.96257 0.93179 0.68965 0.0
C671 C 0.94965 0.95562 0.67322 0.0
H672 H 0.67296 0.52593 0.14502 0.0
H673 H 0.65049 0.44939 0.19549 0.0
H674 H 0.60243 0.48305 0.22437 0.0
H675 H 0.5679 0.53459 0.23542 0.0
H676 H 0.58602 0.61031 0.18381 0.0
H677 H 0.63507 0.5768 0.15523 0.0
C678 C 0.65748 0.51671 0.16236 0.0
C679 C 0.66531 0.48536 0.16824 0.0
C680 C 0.62942 0.53608 0.17866 0.0
C681 C 0.64455 0.47346 0.19057 0.0
C682 C 0.61739 0.49271 0.20711 0.0
C683 C 0.58287 0.54366 0.21794 0.0
C684 C 0.5739 0.57479 0.21169 0.0
C685 C 0.60984 0.52409 0.2014 0.0
C686 C 0.5925 0.58633 0.18888 0.0
C687 C 0.62055 0.56723 0.1726 0.0
H688 H 0.3336 0.49597 0.35219 0.0
H689 H 0.48384 0.44638 0.34249 0.0
H690 H 0.51753 0.48659 0.31451 0.0
H691 H 0.50507 0.53568 0.29311 0.0
H692 H 0.35935 0.58856 0.30527 0.0
H693 H 0.32219 0.54684 0.33116 0.0
C694 C 0.37357 0.49406 0.34384 0.0
C695 C 0.40636 0.46837 0.34946 0.0
C696 C 0.39321 0.51765 0.32802 0.0
C697 C 0.45819 0.46613 0.33864 0.0
C698 C 0.47736 0.489 0.32256 0.0
C699 C 0.46539 0.53833 0.30162 0.0
C700 C 0.4351 0.56526 0.29723 0.0
C701 C 0.44542 0.51491 0.31725 0.0
C702 C 0.38326 0.5679 0.30802 0.0
C703 C 0.36221 0.54416 0.32305 0.0
H704 H 0.10494 0.0276 0.84315 0.0
H705 H 0.24955 0.97278 0.85419 0.0
H706 H 0.21051 0.93165 0.82894 0.0
H707 H 0.13395 0.90999 0.80537 0.0
H708 H 0.98768 0.96346 0.7955 0.0
H709 H 0.02811 0.00585 0.81934 0.0
C710 C 0.12779 0.00657 0.84028 0.0
C711 C 0.18035 0.00357 0.8506 0.0
C712 C 0.10459 0.98253 0.82615 0.0
C713 C 0.20951 0.9762 0.84619 0.0
C714 C 0.18701 0.95243 0.83191 0.0
C715 C 0.11112 0.93105 0.80815 0.0
C716 C 0.058 0.9336 0.79854 0.0
C717 C 0.13449 0.95525 0.82195 0.0
C718 C 0.02858 0.96083 0.8028 0.0
C719 C 0.05174 0.98513 0.81636 0.0
H720 H 0.11097 0.08954 0.01692 0.0
H721 H 0.26952 0.12479 0.03766 0.0
H722 H 0.24566 0.12008 0.08147 0.0
H723 H 0.18235 0.10168 0.11387 0.0
H724 H 0.02276 0.06783 0.09279 0.0
H725 H 0.04453 0.07609 0.04928 0.0
C726 C 0.14008 0.0964 0.03107 0.0
C727 C 0.19201 0.10729 0.02408 0.0
C728 C 0.12611 0.09359 0.0562 0.0
C729 C 0.22914 0.11649 0.04257 0.0
C730 C 0.21564 0.11362 0.06763 0.0
C731 C 0.15192 0.09667 0.09982 0.0
C732 C 0.10132 0.08358 0.1067 0.0
C733 C 0.16457 0.10165 0.07468 0.0
C734 C 0.06257 0.07715 0.08809 0.0
C735 C 0.07484 0.08201 0.06315 0.0
H736 H 0.27976 0.37465 0.53108 0.0
H737 H 0.44542 0.35265 0.51197 0.0
H738 H 0.47482 0.36244 0.55447 0.0
H739 H 0.45429 0.37908 0.5967 0.0
H740 H 0.28862 0.39867 0.61718 0.0
H741 H 0.25797 0.38761 0.57478 0.0
C742 C 0.32212 0.37188 0.5364 0.0
C743 C 0.3605 0.36303 0.51853 0.0
C744 C 0.33863 0.37704 0.56108 0.0
C745 C 0.41526 0.3593 0.52551 0.0
C746 C 0.43209 0.36496 0.54976 0.0
C747 C 0.41143 0.38071 0.59185 0.0
C748 C 0.37375 0.38986 0.60986 0.0
C749 C 0.39427 0.37407 0.56763 0.0
C750 C 0.31825 0.39157 0.60356 0.0
C751 C 0.30084 0.38542 0.57932 0.0
H752 H 0.63606 0.34889 0.01092 0.0
H753 H 0.7745 0.40061 0.98309 0.0
H754 H 0.74777 0.38845 0.94077 0.0
H755 H 0.68719 0.36173 0.9116 0.0
H756 H 0.54964 0.30913 0.93906 0.0
H757 H 0.57479 0.32236 0.98156 0.0
C758 C 0.66058 0.35736 0.99562 0.0
C759 C 0.70711 0.37578 1.00028 0.0
C760 C 0.64544 0.3499 0.97123 0.0
C761 C 0.73794 0.38686 0.98013 0.0
C762 C 0.72296 0.37971 0.95587 0.0
C763 C 0.66233 0.35345 0.92686 0.0
C764 C 0.61661 0.33448 0.92214 0.0
C765 C 0.67696 0.36116 0.95121 0.0
C766 C 0.58541 0.32349 0.94218 0.0
C767 C 0.59959 0.33117 0.96649 0.0
H768 H 0.82412 0.1385 0.49523 0.0
H769 H 0.95378 0.20233 0.51411 0.0
H770 H 0.97146 0.21203 0.47037 0.0
H771 H 0.94934 0.2033 0.42687 0.0
H772 H 0.81747 0.14121 0.40732 0.0
H773 H 0.80233 0.12938 0.45105 0.0
C774 C 0.85645 0.15433 0.48969 0.0
C775 C 0.88728 0.16988 0.50788 0.0
C776 C 0.86614 0.16007 0.46439 0.0
C777 C 0.92893 0.19045 0.50047 0.0
C778 C 0.93923 0.19592 0.47546 0.0
C779 C 0.91687 0.18741 0.43212 0.0
C780 C 0.88444 0.17336 0.41374 0.0
C781 C 0.90775 0.18113 0.45728 0.0
C782 C 0.84347 0.1522 0.42099 0.0
C783 C 0.83451 0.14555 0.44604 0.0
H784 H 0.83591 0.84355 0.98711 0.0
H785 H 0.80849 0.93889 1.00645 0.0
H786 H 0.80024 0.95258 0.96271 0.0
H787 H 0.79932 0.93747 0.91903 0.0
H788 H 0.82622 0.84223 0.89927 0.0
H789 H 0.83694 0.82858 0.94302 0.0
C790 C 0.82775 0.86726 0.98172 0.0
C791 C 0.82256 0.89014 1.00004 0.0
C792 C 0.82331 0.87503 0.95646 0.0
C793 C 0.81297 0.92088 0.99274 0.0
C794 C 0.8081 0.92872 0.96773 0.0
C795 C 0.80727 0.91368 0.92429 0.0
C796 C 0.81153 0.89087 0.90587 0.0
C797 C 0.81301 0.90599 0.94944 0.0
C798 C 0.82308 0.86029 0.91302 0.0
C799 C 0.82882 0.85243 0.93806 0.0
H800 H 0.73339 0.63224 0.48507 0.0
H801 H 0.60396 0.57866 0.51901 0.0
H802 H 0.5625 0.57017 0.47858 0.0
H803 H 0.56618 0.57463 0.43331 0.0
H804 H 0.7011 0.62346 0.39924 0.0
H805 H 0.73678 0.63697 0.43989 0.0
C806 C 0.69626 0.61854 0.48372 0.0
C807 C 0.6723 0.60603 0.5053 0.0
C808 C 0.67353 0.61271 0.46026 0.0
C809 C 0.62325 0.58905 0.50297 0.0
C810 C 0.59968 0.58384 0.47974 0.0
C811 C 0.60363 0.58804 0.43468 0.0
C812 C 0.63075 0.59785 0.413 0.0
C813 C 0.62506 0.595 0.45821 0.0
C814 C 0.67859 0.61588 0.4154 0.0
C815 C 0.69944 0.62344 0.43873 0.0
H816 H 0.28441 0.62328 0.02129 0.0
H817 H 0.44596 0.66296 0.01497 0.0
H818 H 0.45011 0.66988 0.05968 0.0
H819 H 0.40434 0.66943 0.10039 0.0
H820 H 0.24072 0.63313 0.10611 0.0
H821 H 0.24081 0.62016 0.06207 0.0
C822 C 0.32055 0.63346 0.02965 0.0
C823 C 0.36463 0.64268 0.01459 0.0
C824 C 0.32226 0.63807 0.0554 0.0
C825 C 0.41154 0.65527 0.02597 0.0
C826 C 0.41386 0.65948 0.05161 0.0
C827 C 0.36932 0.65806 0.09201 0.0
C828 C 0.32269 0.65207 0.10636 0.0
C829 C 0.36909 0.65152 0.06648 0.0
C830 C 0.27709 0.63781 0.09533 0.0
C831 C 0.27704 0.63056 0.07016 0.0
H832 H 0.18696 0.83265 0.52407 0.0
H833 H 0.1946 0.93216 0.51744 0.0
H834 H 0.18071 0.9373 0.56183 0.0
H835 H 0.17384 0.91372 0.60303 0.0
H836 H 0.16535 0.8145 0.61047 0.0
H837 H 0.17155 0.80899 0.56539 0.0
C838 C 0.18509 0.85542 0.53237 0.0
C839 C 0.19187 0.88196 0.51742 0.0
C840 C 0.17717 0.85826 0.55808 0.0
C841 C 0.18887 0.91134 0.52841 0.0
C842 C 0.18133 0.91433 0.55386 0.0
C843 C 0.17281 0.89091 0.59471 0.0
C844 C 0.16967 0.86455 0.60996 0.0
C845 C 0.17648 0.88799 0.56891 0.0
C846 C 0.16762 0.83512 0.59904 0.0
C847 C 0.17152 0.83199 0.5733 0.0
H848 H 0.13401 0.28766 0.34816 0.0
H849 H 0.27653 0.22991 0.34957 0.0
H850 H 0.22806 0.19008 0.32617 0.0
H851 H 0.14629 0.17209 0.30455 0.0
H852 H 0.00465 0.23023 0.30064 0.0
H853 H 0.05084 0.26907 0.32627 0.0
C854 C 0.1541 0.26623 0.34346 0.0
C855 C 0.20881 0.26176 0.35046 0.0
C856 C 0.12618 0.24353 0.32955 0.0
C857 C 0.23462 0.23399 0.34415 0.0
C858 C 0.20695 0.2112 0.3308 0.0
C859 C 0.12583 0.19346 0.30891 0.0
C860 C 0.07256 0.19845 0.30027 0.0
C861 C 0.15302 0.21587 0.32314 0.0
C862 C 0.04578 0.22579 0.30699 0.0
C863 C 0.07227 0.24809 0.32157 0.0
H864 H 0.41813 0.19573 0.8512 0.0
H865 H 0.26319 0.23932 0.8637 0.0
H866 H 0.29125 0.28329 0.83773 0.0
H867 H 0.36219 0.31047 0.81326 0.0
H868 H 0.51557 0.26538 0.80004 0.0
H869 H 0.48648 0.22137 0.82521 0.0
C870 C 0.39061 0.21496 0.84841 0.0
C871 C 0.33894 0.21444 0.85963 0.0
C872 C 0.40699 0.24004 0.83355 0.0
C873 C 0.3032 0.23916 0.85527 0.0
C874 C 0.31932 0.26435 0.84053 0.0
C875 C 0.38873 0.29074 0.81551 0.0
C876 C 0.44091 0.29122 0.80477 0.0
C877 C 0.37136 0.26517 0.82975 0.0
C878 C 0.47539 0.26577 0.80831 0.0
C879 C 0.45872 0.2405 0.82261 0.0
H880 H 0.70212 0.21345 0.70429 0.0
H881 H 0.67795 0.26089 0.63476 0.0
H882 H 0.61583 0.29697 0.65468 0.0
H883 H 0.57259 0.31686 0.69241 0.0
H884 H 0.59786 0.26951 0.76193 0.0
H885 H 0.65601 0.23189 0.74153 0.0
C886 C 0.68335 0.23173 0.6935 0.0
C887 C 0.69494 0.23457 0.66811 0.0
C888 C 0.64823 0.25257 0.70512 0.0
C889 C 0.66942 0.25802 0.65429 0.0
C890 C 0.63418 0.2788 0.6657 0.0
C891 C 0.59039 0.29811 0.70302 0.0
C892 C 0.58132 0.29612 0.72867 0.0
C893 C 0.62383 0.27653 0.69117 0.0
C894 C 0.60476 0.27176 0.7422 0.0
C895 C 0.6379 0.25019 0.73056 0.0
H896 H 0.8779 0.30695 0.19212 0.0
H897 H 0.85704 0.25203 0.12616 0.0
H898 H 0.8901 0.20643 0.14824 0.0
H899 H 0.92532 0.18215 0.18632 0.0
H900 H 0.94336 0.2369 0.25242 0.0
H901 H 0.90966 0.28243 0.23039 0.0
C902 C 0.87973 0.28493 0.18262 0.0
C903 C 0.86501 0.28302 0.15748 0.0
C904 C 0.89817 0.25874 0.19548 0.0
C905 C 0.86879 0.25434 0.1454 0.0
C906 C 0.88741 0.22818 0.15805 0.0
C907 C 0.92194 0.20411 0.19582 0.0
C908 C 0.93712 0.20634 0.22085 0.0
C909 C 0.90244 0.23015 0.18305 0.0
C910 C 0.93184 0.23471 0.23313 0.0
C911 C 0.91277 0.26073 0.22054 0.0
H912 H 0.82567 0.73785 0.6555 0.0
H913 H 0.92398 0.6678 0.69085 0.0
H914 H 0.96323 0.7064 0.71833 0.0
H915 H 0.97202 0.76021 0.73186 0.0
H916 H 0.87026 0.83006 0.69889 0.0
H917 H 0.82906 0.7913 0.67149 0.0
C918 C 0.85509 0.73088 0.6694 0.0
C919 C 0.8726 0.69991 0.67053 0.0
C920 C 0.87699 0.7532 0.68566 0.0
C921 C 0.91091 0.69155 0.68882 0.0
C922 C 0.93317 0.71358 0.70478 0.0
C923 C 0.941 0.76694 0.71858 0.0
C924 C 0.92475 0.79795 0.71709 0.0
C925 C 0.91715 0.74452 0.70314 0.0
C926 C 0.88363 0.80628 0.70024 0.0
C927 C 0.86013 0.78415 0.68457 0.0
H928 H 0.63066 0.78852 0.16379 0.0
H929 H 0.77483 0.73186 0.16552 0.0
H930 H 0.72742 0.69345 0.19073 0.0
H931 H 0.64574 0.67562 0.21199 0.0
H932 H 0.50159 0.73212 0.21231 0.0
H933 H 0.54814 0.77075 0.18635 0.0
C934 C 0.65173 0.76784 0.16978 0.0
C935 C 0.70614 0.76301 0.16244 0.0
C936 C 0.62425 0.74575 0.18455 0.0
C937 C 0.73267 0.73594 0.17033 0.0
C938 C 0.70572 0.714 0.18493 0.0
C939 C 0.6245 0.69653 0.20671 0.0
C940 C 0.5704 0.70108 0.21437 0.0
C941 C 0.65158 0.71864 0.19209 0.0
C942 C 0.54326 0.728 0.2067 0.0
C943 C 0.56994 0.75015 0.19192 0.0
H944 H 0.36881 0.75626 0.37251 0.0
H945 H 0.32777 0.81671 0.31171 0.0
H946 H 0.36073 0.7785 0.28218 0.0
H947 H 0.40625 0.72923 0.27382 0.0
H948 H 0.45035 0.66964 0.33487 0.0
H949 H 0.41117 0.70605 0.36403 0.0
C950 C 0.36636 0.76078 0.35277 0.0
C951 C 0.34605 0.78918 0.34425 0.0
C952 C 0.38643 0.73899 0.33595 0.0
C953 C 0.34366 0.79502 0.31866 0.0
C954 C 0.36249 0.77322 0.30179 0.0
C955 C 0.4069 0.72411 0.29348 0.0
C956 C 0.43147 0.69684 0.30211 0.0
C957 C 0.38483 0.74534 0.31024 0.0
C958 C 0.43216 0.69061 0.32769 0.0
C959 C 0.40961 0.71137 0.34443 0.0
H960 H 0.18276 0.76768 0.87388 0.0
H961 H 0.16515 0.68769 0.8269 0.0
H962 H 0.10463 0.7164 0.79942 0.0
H963 H 0.05964 0.76483 0.78768 0.0
H964 H 0.07676 0.84506 0.83422 0.0
H965 H 0.13436 0.81575 0.86295 0.0
C966 C 0.16555 0.75655 0.85765 0.0
C967 C 0.17844 0.72554 0.85251 0.0
C968 C 0.13085 0.77327 0.84181 0.0
C969 C 0.15534 0.71136 0.83152 0.0
C970 C 0.12103 0.72783 0.81567 0.0
C971 C 0.07603 0.77583 0.80414 0.0
C972 C 0.06464 0.80706 0.80877 0.0
C973 C 0.10895 0.75886 0.82049 0.0
C974 C 0.08511 0.82099 0.83034 0.0
C975 C 0.11819 0.80428 0.84668 0.0
loop_
_geom_bond_atom_site_label_1
_geom_bond_atom_site_label_2
_geom_bond_distance
_geom_bond_site_symmetry_2
_ccdc_geom_bond_type
P0 O11 1.490 . S
P0 C14 1.812 . S
P0 C20 1.803 . S
P0 C26 1.819 . S
H1 C15 0.941 . S
H2 C16 0.939 . S
H3 C18 0.940 . S
H4 C19 0.940 . S
H5 C21 0.939 . S
H6 C22 0.942 . S
H7 C24 0.940 . S
H8 C25 0.939 . S
H9 C27 0.941 . S
H10 C31 0.939 . S
O11 P0 1.490 . S
H12 C28 0.939 . S
H13 C30 0.940 . S
C14 P0 1.812 . S
C14 C15 1.389 . S
C14 C19 1.391 . S
C15 H1 0.941 . S
C15 C14 1.389 . S
C15 C16 1.397 . S
C16 H2 0.939 . S
C16 C15 1.397 . S
C16 C17 1.378 . S
C17 C16 1.378 . S
C17 C18 1.378 . S
C18 H3 0.940 . S
C18 C17 1.378 . S
C18 C19 1.396 . S
C19 H4 0.940 . S
C19 C14 1.391 . S
C19 C18 1.396 . S
C20 P0 1.803 . S
C20 C21 1.378 . S
C20 C25 1.400 . S
C21 H5 0.939 . S
C21 C20 1.378 . S
C21 C22 1.361 . S
C22 H6 0.942 . S
C22 C21 1.361 . S
C22 C23 1.369 . S
C23 C22 1.369 . S
C23 C24 1.404 . S
C24 H7 0.940 . S
C24 C23 1.404 . S
C24 C25 1.389 . S
C25 H8 0.939 . S
C25 C20 1.400 . S
C25 C24 1.389 . S
C26 P0 1.819 . S
C26 C27 1.391 . S
C26 C31 1.391 . S
C27 H9 0.941 . S
C27 C26 1.391 . S
C27 C28 1.396 . S
C28 H12 0.939 . S
C28 C27 1.396 . S
C28 C29 1.397 . S
C29 C28 1.397 . S
C29 C30 1.385 . S
C30 H13 0.940 . S
C30 C29 1.385 . S
C30 C31 1.388 . S
C31 H10 0.939 . S
C31 C26 1.391 . S
C31 C30 1.388 . S
P32 O43 1.490 . S
P32 C46 1.812 . S
P32 C52 1.803 . S
P32 C58 1.819 . S
H33 C47 0.941 . S
H34 C48 0.939 . S
H35 C50 0.940 . S
H36 C51 0.940 . S
H37 C53 0.939 . S
H38 C54 0.942 . S
H39 C56 0.940 . S
H40 C57 0.939 . S
H41 C59 0.941 . S
H42 C63 0.939 . S
O43 P32 1.490 . S
H44 C60 0.939 . S
H45 C62 0.940 . S
C46 P32 1.812 . S
C46 C47 1.389 . S
C46 C51 1.391 . S
C47 H33 0.941 . S
C47 C46 1.389 . S
C47 C48 1.397 . S
C48 H34 0.939 . S
C48 C47 1.397 . S
C48 C49 1.378 . S
C49 C48 1.378 . S
C49 C50 1.378 . S
C50 H35 0.940 . S
C50 C49 1.378 . S
C50 C51 1.396 . S
C51 H36 0.940 . S
C51 C46 1.391 . S
C51 C50 1.396 . S
C52 P32 1.803 . S
C52 C53 1.378 . S
C52 C57 1.400 . S
C53 H37 0.939 . S
C53 C52 1.378 . S
C53 C54 1.361 . S
C54 H38 0.942 . S
C54 C53 1.361 . S
C54 C55 1.369 . S
C55 C54 1.369 . S
C55 C56 1.404 . S
C56 H39 0.940 . S
C56 C55 1.404 . S
C56 C57 1.389 . S
C57 H40 0.939 . S
C57 C52 1.400 . S
C57 C56 1.389 . S
C58 P32 1.819 . S
C58 C59 1.391 . S
C58 C63 1.391 . S
C59 H41 0.941 . S
C59 C58 1.391 . S
C59 C60 1.396 . S
C60 H44 0.939 . S
C60 C59 1.396 . S
C60 C61 1.397 . S
C61 C60 1.397 . S
C61 C62 1.385 . S
C62 H45 0.940 . S
C62 C61 1.385 . S
C62 C63 1.388 . S
C63 H42 0.939 . S
C63 C58 1.391 . S
C63 C62 1.388 . S
P64 O75 1.490 . S
P64 C78 1.812 . S
P64 C84 1.803 . S
P64 C90 1.819 . S
H65 C79 0.941 . S
H66 C80 0.939 . S
H67 C82 0.940 . S
H68 C83 0.940 . S
H69 C85 0.939 . S
H70 C86 0.942 . S
H71 C88 0.940 . S
H72 C89 0.939 . S
H73 C91 0.941 . S
H74 C95 0.939 . S
O75 P64 1.490 . S
H76 C92 0.939 . S
H77 C94 0.940 . S
C78 P64 1.812 . S
C78 C79 1.389 . S
C78 C83 1.391 . S
C79 H65 0.941 . S
C79 C78 1.389 . S
C79 C80 1.397 . S
C80 H66 0.939 . S
C80 C79 1.397 . S
C80 C81 1.378 . S
C81 C80 1.378 . S
C81 C82 1.378 . S
C82 H67 0.940 . S
C82 C81 1.378 . S
C82 C83 1.396 . S
C83 H68 0.940 . S
C83 C78 1.391 . S
C83 C82 1.396 . S
C84 P64 1.803 . S
C84 C85 1.378 . S
C84 C89 1.400 . S
C85 H69 0.939 . S
C85 C84 1.378 . S
C85 C86 1.361 . S
C86 H70 0.942 . S
C86 C85 1.361 . S
C86 C87 1.369 . S
C87 C86 1.369 . S
C87 C88 1.404 . S
C88 H71 0.940 . S
C88 C87 1.404 . S
C88 C89 1.389 . S
C89 H72 0.939 . S
C89 C84 1.400 . S
C89 C88 1.389 . S
C90 P64 1.819 . S
C90 C91 1.391 . S
C90 C95 1.391 . S
C91 H73 0.941 . S
C91 C90 1.391 . S
C91 C92 1.396 . S
C92 H76 0.939 . S
C92 C91 1.396 . S
C92 C93 1.397 . S
C93 C92 1.397 . S
C93 C94 1.385 . S
C94 H77 0.940 . S
C94 C93 1.385 . S
C94 C95 1.388 . S
C95 H74 0.939 . S
C95 C90 1.391 . S
C95 C94 1.388 . S
P96 O107 1.490 . S
P96 C110 1.812 . S
P96 C116 1.803 . S
P96 C122 1.819 . S
H97 C111 0.941 . S
H98 C112 0.939 . S
H99 C114 0.940 . S
H100 C115 0.940 . S
H101 C117 0.939 . S
H102 C118 0.942 . S
H103 C120 0.940 . S
H104 C121 0.939 . S
H105 C123 0.941 . S
H106 C127 0.939 . S
O107 P96 1.490 . S
H108 C124 0.939 . S
H109 C126 0.940 . S
C110 P96 1.812 . S
C110 C111 1.389 . S
C110 C115 1.391 . S
C111 H97 0.941 . S
C111 C110 1.389 . S
C111 C112 1.397 . S
C112 H98 0.939 . S
C112 C111 1.397 . S
C112 C113 1.378 . S
C113 C112 1.378 . S
C113 C114 1.378 . S
C114 H99 0.940 . S
C114 C113 1.378 . S
C114 C115 1.396 . S
C115 H100 0.940 . S
C115 C110 1.391 . S
C115 C114 1.396 . S
C116 P96 1.803 . S
C116 C117 1.378 . S
C116 C121 1.400 . S
C117 H101 0.939 . S
C117 C116 1.378 . S
C117 C118 1.361 . S
C118 H102 0.942 . S
C118 C117 1.361 . S
C118 C119 1.369 . S
C119 C118 1.369 . S
C119 C120 1.404 . S
C120 H103 0.940 . S
C120 C119 1.404 . S
C120 C121 1.389 . S
C121 H104 0.939 . S
C121 C116 1.400 . S
C121 C120 1.389 . S
C122 P96 1.819 . S
C122 C123 1.391 . S
C122 C127 1.391 . S
C123 H105 0.941 . S
C123 C122 1.391 . S
C123 C124 1.396 . S
C124 H108 0.939 . S
C124 C123 1.396 . S
C124 C125 1.397 . S
C125 C124 1.397 . S
C125 C126 1.385 . S
C126 H109 0.940 . S
C126 C125 1.385 . S
C126 C127 1.388 . S
C127 H106 0.939 . S
C127 C122 1.391 . S
C127 C126 1.388 . S
P128 O139 1.490 . S
P128 C142 1.812 . S
P128 C148 1.803 . S
P128 C154 1.819 . S
H129 C143 0.941 . S
H130 C144 0.939 . S
H131 C146 0.940 . S
H132 C147 0.940 . S
H133 C149 0.939 . S
H134 C150 0.942 . S
H135 C152 0.940 . S
H136 C153 0.939 . S
H137 C155 0.941 . S
H138 C159 0.939 . S
O139 P128 1.490 . S
H140 C156 0.939 . S
H141 C158 0.940 . S
C142 P128 1.812 . S
C142 C143 1.389 . S
C142 C147 1.391 . S
C143 H129 0.941 . S
C143 C142 1.389 . S
C143 C144 1.397 . S
C144 H130 0.939 . S
C144 C143 1.397 . S
C144 C145 1.378 . S
C145 C144 1.378 . S
C145 C146 1.378 . S
C146 H131 0.940 . S
C146 C145 1.378 . S
C146 C147 1.396 . S
C147 H132 0.940 . S
C147 C142 1.391 . S
C147 C146 1.396 . S
C148 P128 1.803 . S
C148 C149 1.378 . S
C148 C153 1.400 . S
C149 H133 0.939 . S
C149 C148 1.378 . S
C149 C150 1.361 . S
C150 H134 0.942 . S
C150 C149 1.361 . S
C150 C151 1.369 . S
C151 C150 1.369 . S
C151 C152 1.404 . S
C152 H135 0.940 . S
C152 C151 1.404 . S
C152 C153 1.389 . S
C153 H136 0.939 . S
C153 C148 1.400 . S
C153 C152 1.389 . S
C154 P128 1.819 . S
C154 C155 1.391 . S
C154 C159 1.391 . S
C155 H137 0.941 . S
C155 C154 1.391 . S
C155 C156 1.396 . S
C156 H140 0.939 . S
C156 C155 1.396 . S
C156 C157 1.397 . S
C157 C156 1.397 . S
C157 C158 1.385 . S
C158 H141 0.940 . S
C158 C157 1.385 . S
C158 C159 1.388 . S
C159 H138 0.939 . S
C159 C154 1.391 . S
C159 C158 1.388 . S
P160 O171 1.490 . S
P160 C174 1.812 . S
P160 C180 1.803 . S
P160 C186 1.819 . S
H161 C175 0.941 . S
H162 C176 0.939 . S
H163 C178 0.940 . S
H164 C179 0.940 . S
H165 C181 0.939 . S
H166 C182 0.942 . S
H167 C184 0.940 . S
H168 C185 0.939 . S
H169 C187 0.941 . S
H170 C191 0.939 . S
O171 P160 1.490 . S
H172 C188 0.939 . S
H173 C190 0.940 . S
C174 P160 1.812 . S
C174 C175 1.389 . S
C174 C179 1.391 . S
C175 H161 0.941 . S
C175 C174 1.389 . S
C175 C176 1.397 . S
C176 H162 0.939 . S
C176 C175 1.397 . S
C176 C177 1.378 . S
C177 C176 1.378 . S
C177 C178 1.378 . S
C178 H163 0.940 . S
C178 C177 1.378 . S
C178 C179 1.396 . S
C179 H164 0.940 . S
C179 C174 1.391 . S
C179 C178 1.396 . S
C180 P160 1.803 . S
C180 C181 1.378 . S
C180 C185 1.400 . S
C181 H165 0.939 . S
C181 C180 1.378 . S
C181 C182 1.361 . S
C182 H166 0.942 . S
C182 C181 1.361 . S
C182 C183 1.369 . S
C183 C182 1.369 . S
C183 C184 1.404 . S
C184 H167 0.940 . S
C184 C183 1.404 . S
C184 C185 1.389 . S
C185 H168 0.939 . S
C185 C180 1.400 . S
C185 C184 1.389 . S
C186 P160 1.819 . S
C186 C187 1.391 . S
C186 C191 1.391 . S
C187 H169 0.941 . S
C187 C186 1.391 . S
C187 C188 1.396 . S
C188 H172 0.939 . S
C188 C187 1.396 . S
C188 C189 1.397 . S
C189 C188 1.397 . S
C189 C190 1.385 . S
C190 H173 0.940 . S
C190 C189 1.385 . S
C190 C191 1.388 . S
C191 H170 0.939 . S
C191 C186 1.391 . S
C191 C190 1.388 . S
P192 O203 1.490 . S
P192 C206 1.812 . S
P192 C212 1.803 . S
P192 C218 1.819 . S
H193 C207 0.941 . S
H194 C208 0.939 . S
H195 C210 0.940 . S
H196 C211 0.940 . S
H197 C213 0.939 . S
H198 C214 0.942 . S
H199 C216 0.940 . S
H200 C217 0.939 . S
H201 C219 0.941 . S
H202 C223 0.939 . S
O203 P192 1.490 . S
H204 C220 0.939 . S
H205 C222 0.940 . S
C206 P192 1.812 . S
C206 C207 1.389 . S
C206 C211 1.391 . S
C207 H193 0.941 . S
C207 C206 1.389 . S
C207 C208 1.397 . S
C208 H194 0.939 . S
C208 C207 1.397 . S
C208 C209 1.378 . S
C209 C208 1.378 . S
C209 C210 1.378 . S
C210 H195 0.940 . S
C210 C209 1.378 . S
C210 C211 1.396 . S
C211 H196 0.940 . S
C211 C206 1.391 . S
C211 C210 1.396 . S
C212 P192 1.803 . S
C212 C213 1.378 . S
C212 C217 1.400 . S
C213 H197 0.939 . S
C213 C212 1.378 . S
C213 C214 1.361 . S
C214 H198 0.942 . S
C214 C213 1.361 . S
C214 C215 1.369 . S
C215 C214 1.369 . S
C215 C216 1.404 . S
C216 H199 0.940 . S
C216 C215 1.404 . S
C216 C217 1.389 . S
C217 H200 0.939 . S
C217 C212 1.400 . S
C217 C216 1.389 . S
C218 P192 1.819 . S
C218 C219 1.391 . S
C218 C223 1.391 . S
C219 H201 0.941 . S
C219 C218 1.391 . S
C219 C220 1.396 . S
C220 H204 0.939 . S
C220 C219 1.396 . S
C220 C221 1.397 . S
C221 C220 1.397 . S
C221 C222 1.385 . S
C222 H205 0.940 . S
C222 C221 1.385 . S
C222 C223 1.388 . S
C223 H202 0.939 . S
C223 C218 1.391 . S
C223 C222 1.388 . S
P224 O235 1.490 . S
P224 C238 1.812 . S
P224 C244 1.803 . S
P224 C250 1.819 . S
H225 C239 0.941 . S
H226 C240 0.939 . S
H227 C242 0.940 . S
H228 C243 0.940 . S
H229 C245 0.939 . S
H230 C246 0.942 . S
H231 C248 0.940 . S
H232 C249 0.939 . S
H233 C251 0.941 . S
H234 C255 0.939 . S
O235 P224 1.490 . S
H236 C252 0.939 . S
H237 C254 0.940 . S
C238 P224 1.812 . S
C238 C239 1.389 . S
C238 C243 1.391 . S
C239 H225 0.941 . S
C239 C238 1.389 . S
C239 C240 1.397 . S
C240 H226 0.939 . S
C240 C239 1.397 . S
C240 C241 1.378 . S
C241 C240 1.378 . S
C241 C242 1.378 . S
C242 H227 0.940 . S
C242 C241 1.378 . S
C242 C243 1.396 . S
C243 H228 0.940 . S
C243 C238 1.391 . S
C243 C242 1.396 . S
C244 P224 1.803 . S
C244 C245 1.378 . S
C244 C249 1.400 . S
C245 H229 0.939 . S
C245 C244 1.378 . S
C245 C246 1.361 . S
C246 H230 0.942 . S
C246 C245 1.361 . S
C246 C247 1.369 . S
C247 C246 1.369 . S
C247 C248 1.404 . S
C248 H231 0.940 . S
C248 C247 1.404 . S
C248 C249 1.389 . S
C249 H232 0.939 . S
C249 C244 1.400 . S
C249 C248 1.389 . S
C250 P224 1.819 . S
C250 C251 1.391 . S
C250 C255 1.391 . S
C251 H233 0.941 . S
C251 C250 1.391 . S
C251 C252 1.396 . S
C252 H236 0.939 . S
C252 C251 1.396 . S
C252 C253 1.397 . S
C253 C252 1.397 . S
C253 C254 1.385 . S
C254 H237 0.940 . S
C254 C253 1.385 . S
C254 C255 1.388 . S
C255 H234 0.939 . S
C255 C250 1.391 . S
C255 C254 1.388 . S
Eu256 N285 2.600 . S
Eu256 N291 2.562 . S
Eu256 O300 2.462 . S
Eu256 O301 2.373 . S
Eu256 O303 2.432 . S
Eu256 O304 2.291 . S
Eu256 O308 2.335 . S
Eu256 O311 2.372 . S
Eu256 C320 2.787 . S
C257 N258 1.365 . S
C257 C260 1.405 . S
C257 C264 1.448 . S
N258 C257 1.365 . S
N258 C261 1.319 . S
N258 Eu267 2.600 . S
C259 C261 1.397 . S
C259 C262 1.367 . S
C259 H279 0.931 . S
C260 C257 1.405 . S
C260 C262 1.403 . S
C260 C266 1.439 . S
C261 N258 1.319 . S
C261 C259 1.397 . S
C261 H272 0.930 . S
C262 C259 1.367 . S
C262 C260 1.403 . S
C262 H283 0.929 . S
C263 C264 1.430 . S
C263 C265 1.387 . S
C263 C269 1.404 . S
C264 C257 1.448 . S
C264 C263 1.430 . S
C264 N268 1.351 . S
C265 C263 1.387 . S
C265 C266 1.374 . S
C265 H280 0.931 . S
C266 C260 1.439 . S
C266 C265 1.374 . S
C266 H281 0.931 . S
Eu267 N258 2.600 . S
Eu267 N268 2.562 . S
Eu267 O302 2.335 1_655 S
Eu267 O305 2.372 . S
Eu267 O306 2.462 . S
Eu267 O307 2.373 . S
Eu267 O309 2.432 . S
Eu267 O310 2.291 1_655 S
Eu267 C331 2.787 . S
N268 C264 1.351 . S
N268 Eu267 2.562 . S
N268 C270 1.325 . S
C269 C263 1.404 . S
C269 C271 1.366 . S
C269 H277 0.930 . S
C270 N268 1.325 . S
C270 C271 1.416 . S
C270 H276 0.929 . S
C271 C269 1.366 . S
C271 C270 1.416 . S
C271 H273 0.930 . S
H272 C261 0.930 . S
H273 C271 0.930 . S
H274 C289 0.930 . S
H275 C296 0.930 . S
H276 C270 0.929 . S
H277 C269 0.930 . S
H278 C292 0.929 . S
H279 C259 0.931 . S
H280 C265 0.931 . S
H281 C266 0.931 . S
H282 C287 0.931 . S
H283 C262 0.929 . S
H284 C295 0.930 . S
N285 Eu256 2.600 . S
N285 C286 1.365 . S
N285 C289 1.319 . S
C286 N285 1.365 . S
C286 C288 1.405 . S
C286 C294 1.448 . S
C287 H282 0.931 . S
C287 C289 1.397 . S
C287 C290 1.367 . S
C288 C286 1.405 . S
C288 C290 1.403 . S
C288 C321 1.439 . S
C289 H274 0.930 . S
C289 N285 1.319 . S
C289 C287 1.397 . S
C290 C287 1.367 . S
C290 C288 1.403 . S
C290 H297 0.929 . S
N291 Eu256 2.562 . S
N291 C292 1.325 . S
N291 C294 1.351 . S
C292 H278 0.929 . S
C292 N291 1.325 . S
C292 C296 1.416 . S
C293 C294 1.430 . S
C293 C295 1.404 . S
C293 C322 1.387 . S
C294 C286 1.448 . S
C294 N291 1.351 . S
C294 C293 1.430 . S
C295 H284 0.930 . S
C295 C293 1.404 . S
C295 C296 1.366 . S
C296 H275 0.930 . S
C296 C292 1.416 . S
C296 C295 1.366 . S
H297 C290 0.929 . S
H298 C321 0.931 . S
H299 C322 0.931 . S
O300 Eu256 2.462 . S
O300 C320 1.252 . S
O301 Eu256 2.373 . S
O301 C312 1.249 . S
O302 Eu267 2.335 1_455 S
O302 C312 1.264 . S
O303 Eu256 2.432 . S
O303 C320 1.268 . S
O304 Eu256 2.291 . S
O304 C319 1.255 1_455 S
O305 Eu267 2.372 . S
O305 C319 1.257 . S
O306 Eu267 2.462 . S
O306 C331 1.252 . S
O307 Eu267 2.373 . S
O307 C323 1.249 . S
O308 Eu256 2.335 . S
O308 C323 1.264 1_455 S
O309 Eu267 2.432 . S
O309 C331 1.268 . S
O310 Eu267 2.291 1_455 S
O310 C330 1.255 . S
O311 Eu256 2.372 . S
O311 C330 1.257 . S
C312 O301 1.249 . S
C312 O302 1.264 . S
C313 C316 1.382 . S
C313 C318 1.390 . S
C313 C320 1.506 . S
C314 C315 1.398 . S
C314 C318 1.392 . S
C315 C314 1.398 . S
C315 C317 1.372 . S
C315 H332 0.931 . S
C316 C313 1.382 . S
C316 C317 1.390 . S
C316 H333 0.931 . S
C317 C315 1.372 . S
C317 C316 1.390 . S
C317 H334 0.929 . S
C318 C313 1.390 . S
C318 C314 1.392 . S
C318 H335 0.930 . S
C319 O304 1.255 1_655 S
C319 O305 1.257 . S
C320 Eu256 2.787 . S
C320 O300 1.252 . S
C320 O303 1.268 . S
C320 C313 1.506 . S
C321 C288 1.439 . S
C321 H298 0.931 . S
C321 C322 1.374 . S
C322 C293 1.387 . S
C322 H299 0.931 . S
C322 C321 1.374 . S
C323 O307 1.249 . S
C323 O308 1.264 1_655 S
C324 C327 1.382 . S
C324 C328 1.390 . S
C324 C331 1.506 . S
C325 C326 1.398 . S
C325 C328 1.392 . S
C326 C325 1.398 . S
C326 C329 1.372 . S
C326 H336 0.931 . S
C327 C324 1.382 . S
C327 C329 1.390 . S
C327 H337 0.931 . S
C328 C324 1.390 . S
C328 C325 1.392 . S
C328 H338 0.930 . S
C329 C326 1.372 . S
C329 C327 1.390 . S
C329 H339 0.929 . S
C330 O310 1.255 . S
C330 O311 1.257 . S
C331 Eu267 2.787 . S
C331 O306 1.252 . S
C331 O309 1.268 . S
C331 C324 1.506 . S
H332 C315 0.931 . S
H333 C316 0.931 . S
H334 C317 0.929 . S
H335 C318 0.930 . S
H336 C326 0.931 . S
H337 C327 0.931 . S
H338 C328 0.930 . S
H339 C329 0.929 . S
Eu340 N369 2.600 . S
Eu340 N375 2.562 . S
Eu340 O384 2.462 . S
Eu340 O385 2.373 . S
Eu340 O387 2.432 . S
Eu340 O388 2.291 . S
Eu340 O392 2.335 . S
Eu340 O395 2.372 . S
Eu340 C404 2.787 . S
C341 N342 1.365 . S
C341 C344 1.405 . S
C341 C348 1.448 . S
N342 C341 1.365 . S
N342 C345 1.319 . S
N342 Eu351 2.600 . S
C343 C345 1.397 . S
C343 C346 1.367 . S
C343 H363 0.931 . S
C344 C341 1.405 . S
C344 C346 1.403 . S
C344 C350 1.439 . S
C345 N342 1.319 . S
C345 C343 1.397 . S
C345 H356 0.930 . S
C346 C343 1.367 . S
C346 C344 1.403 . S
C346 H367 0.929 . S
C347 C348 1.430 . S
C347 C349 1.387 . S
C347 C353 1.404 . S
C348 C341 1.448 . S
C348 C347 1.430 . S
C348 N352 1.351 . S
C349 C347 1.387 . S
C349 C350 1.374 . S
C349 H364 0.931 . S
C350 C344 1.439 . S
C350 C349 1.374 . S
C350 H365 0.931 . S
Eu351 N342 2.600 . S
Eu351 N352 2.562 . S
Eu351 O386 2.335 . S
Eu351 O389 2.372 . S
Eu351 O390 2.462 . S
Eu351 O391 2.373 . S
Eu351 O393 2.432 . S
Eu351 O394 2.291 . S
Eu351 C415 2.787 . S
N352 C348 1.351 . S
N352 Eu351 2.562 . S
N352 C354 1.325 . S
C353 C347 1.404 . S
C353 C355 1.366 . S
C353 H361 0.930 . S
C354 N352 1.325 . S
C354 C355 1.416 . S
C354 H360 0.929 . S
C355 C353 1.366 . S
C355 C354 1.416 . S
C355 H357 0.930 . S
H356 C345 0.930 . S
H357 C355 0.930 . S
H358 C373 0.930 . S
H359 C380 0.930 . S
H360 C354 0.929 . S
H361 C353 0.930 . S
H362 C376 0.929 . S
H363 C343 0.931 . S
H364 C349 0.931 . S
H365 C350 0.931 . S
H366 C371 0.931 . S
H367 C346 0.929 . S
H368 C379 0.930 . S
N369 Eu340 2.600 . S
N369 C370 1.365 . S
N369 C373 1.319 . S
C370 N369 1.365 . S
C370 C372 1.405 . S
C370 C378 1.448 . S
C371 H366 0.931 . S
C371 C373 1.397 . S
C371 C374 1.367 . S
C372 C370 1.405 . S
C372 C374 1.403 . S
C372 C405 1.439 . S
C373 H358 0.930 . S
C373 N369 1.319 . S
C373 C371 1.397 . S
C374 C371 1.367 . S
C374 C372 1.403 . S
C374 H381 0.929 . S
N375 Eu340 2.562 . S
N375 C376 1.325 . S
N375 C378 1.351 . S
C376 H362 0.929 . S
C376 N375 1.325 . S
C376 C380 1.416 . S
C377 C378 1.430 . S
C377 C379 1.404 . S
C377 C406 1.387 . S
C378 C370 1.448 . S
C378 N375 1.351 . S
C378 C377 1.430 . S
C379 H368 0.930 . S
C379 C377 1.404 . S
C379 C380 1.366 . S
C380 H359 0.930 . S
C380 C376 1.416 . S
C380 C379 1.366 . S
H381 C374 0.929 . S
H382 C405 0.931 . S
H383 C406 0.931 . S
O384 Eu340 2.462 . S
O384 C404 1.252 . S
O385 Eu340 2.373 . S
O385 C396 1.249 . S
O386 Eu351 2.335 . S
O386 C396 1.264 . S
O387 Eu340 2.432 . S
O387 C404 1.268 . S
O388 Eu340 2.291 . S
O388 C403 1.255 . S
O389 Eu351 2.372 . S
O389 C403 1.257 . S
O390 Eu351 2.462 . S
O390 C415 1.252 . S
O391 Eu351 2.373 . S
O391 C407 1.249 . S
O392 Eu340 2.335 . S
O392 C407 1.264 . S
O393 Eu351 2.432 . S
O393 C415 1.268 . S
O394 Eu351 2.291 . S
O394 C414 1.255 . S
O395 Eu340 2.372 . S
O395 C414 1.257 . S
C396 O385 1.249 . S
C396 O386 1.264 . S
C397 C400 1.382 . S
C397 C402 1.390 . S
C397 C404 1.506 . S
C398 C399 1.398 . S
C398 C402 1.392 . S
C399 C398 1.398 . S
C399 C401 1.372 . S
C399 H416 0.931 . S
C400 C397 1.382 . S
C400 C401 1.390 . S
C400 H417 0.931 . S
C401 C399 1.372 . S
C401 C400 1.390 . S
C401 H418 0.929 . S
C402 C397 1.390 . S
C402 C398 1.392 . S
C402 H419 0.930 . S
C403 O388 1.255 . S
C403 O389 1.257 . S
C404 Eu340 2.787 . S
C404 O384 1.252 . S
C404 O387 1.268 . S
C404 C397 1.506 . S
C405 C372 1.439 . S
C405 H382 0.931 . S
C405 C406 1.374 . S
C406 C377 1.387 . S
C406 H383 0.931 . S
C406 C405 1.374 . S
C407 O391 1.249 . S
C407 O392 1.264 . S
C408 C411 1.382 . S
C408 C412 1.390 . S
C408 C415 1.506 . S
C409 C410 1.398 . S
C409 C412 1.392 . S
C410 C409 1.398 . S
C410 C413 1.372 . S
C410 H420 0.931 . S
C411 C408 1.382 . S
C411 C413 1.390 . S
C411 H421 0.931 . S
C412 C408 1.390 . S
C412 C409 1.392 . S
C412 H422 0.930 . S
C413 C410 1.372 . S
C413 C411 1.390 . S
C413 H423 0.929 . S
C414 O394 1.255 . S
C414 O395 1.257 . S
C415 Eu351 2.787 . S
C415 O390 1.252 . S
C415 O393 1.268 . S
C415 C408 1.506 . S
H416 C399 0.931 . S
H417 C400 0.931 . S
H418 C401 0.929 . S
H419 C402 0.930 . S
H420 C410 0.931 . S
H421 C411 0.931 . S
H422 C412 0.930 . S
H423 C413 0.929 . S
Eu424 N453 2.600 . S
Eu424 N459 2.562 . S
Eu424 O468 2.462 . S
Eu424 O469 2.373 . S
Eu424 O471 2.432 . S
Eu424 O472 2.291 . S
Eu424 O476 2.335 . S
Eu424 O479 2.372 . S
Eu424 C488 2.787 . S
C425 N426 1.365 . S
C425 C428 1.405 . S
C425 C432 1.448 . S
N426 C425 1.365 . S
N426 C429 1.319 . S
N426 Eu435 2.600 . S
C427 C429 1.397 . S
C427 C430 1.367 . S
C427 H447 0.931 . S
C428 C425 1.405 . S
C428 C430 1.403 . S
C428 C434 1.439 . S
C429 N426 1.319 . S
C429 C427 1.397 . S
C429 H440 0.930 . S
C430 C427 1.367 . S
C430 C428 1.403 . S
C430 H451 0.929 . S
C431 C432 1.430 . S
C431 C433 1.387 . S
C431 C437 1.404 . S
C432 C425 1.448 . S
C432 C431 1.430 . S
C432 N436 1.351 . S
C433 C431 1.387 . S
C433 C434 1.374 . S
C433 H448 0.931 . S
C434 C428 1.439 . S
C434 C433 1.374 . S
C434 H449 0.931 . S
Eu435 N426 2.600 . S
Eu435 N436 2.562 . S
Eu435 O470 2.335 1_655 S
Eu435 O473 2.372 . S
Eu435 O474 2.462 . S
Eu435 O475 2.373 . S
Eu435 O477 2.432 . S
Eu435 O478 2.291 1_655 S
Eu435 C499 2.787 . S
N436 C432 1.351 . S
N436 Eu435 2.562 . S
N436 C438 1.325 . S
C437 C431 1.404 . S
C437 C439 1.366 . S
C437 H445 0.930 . S
C438 N436 1.325 . S
C438 C439 1.416 . S
C438 H444 0.929 . S
C439 C437 1.366 . S
C439 C438 1.416 . S
C439 H441 0.930 . S
H440 C429 0.930 . S
H441 C439 0.930 . S
H442 C457 0.930 . S
H443 C464 0.930 . S
H444 C438 0.929 . S
H445 C437 0.930 . S
H446 C460 0.929 . S
H447 C427 0.931 . S
H448 C433 0.931 . S
H449 C434 0.931 . S
H450 C455 0.931 . S
H451 C430 0.929 . S
H452 C463 0.930 . S
N453 Eu424 2.600 . S
N453 C454 1.365 . S
N453 C457 1.319 . S
C454 N453 1.365 . S
C454 C456 1.405 . S
C454 C462 1.448 . S
C455 H450 0.931 . S
C455 C457 1.397 . S
C455 C458 1.367 . S
C456 C454 1.405 . S
C456 C458 1.403 . S
C456 C489 1.439 . S
C457 H442 0.930 . S
C457 N453 1.319 . S
C457 C455 1.397 . S
C458 C455 1.367 . S
C458 C456 1.403 . S
C458 H465 0.929 . S
N459 Eu424 2.562 . S
N459 C460 1.325 . S
N459 C462 1.351 . S
C460 H446 0.929 . S
C460 N459 1.325 . S
C460 C464 1.416 . S
C461 C462 1.430 . S
C461 C463 1.404 . S
C461 C490 1.387 . S
C462 C454 1.448 . S
C462 N459 1.351 . S
C462 C461 1.430 . S
C463 H452 0.930 . S
C463 C461 1.404 . S
C463 C464 1.366 . S
C464 H443 0.930 . S
C464 C460 1.416 . S
C464 C463 1.366 . S
H465 C458 0.929 . S
H466 C489 0.931 . S
H467 C490 0.931 . S
O468 Eu424 2.462 . S
O468 C488 1.252 . S
O469 Eu424 2.373 . S
O469 C480 1.249 . S
O470 Eu435 2.335 1_455 S
O470 C480 1.264 . S
O471 Eu424 2.432 . S
O471 C488 1.268 . S
O472 Eu424 2.291 . S
O472 C487 1.255 1_455 S
O473 Eu435 2.372 . S
O473 C487 1.257 . S
O474 Eu435 2.462 . S
O474 C499 1.252 . S
O475 Eu435 2.373 . S
O475 C491 1.249 . S
O476 Eu424 2.335 . S
O476 C491 1.264 1_455 S
O477 Eu435 2.432 . S
O477 C499 1.268 . S
O478 Eu435 2.291 1_455 S
O478 C498 1.255 . S
O479 Eu424 2.372 . S
O479 C498 1.257 . S
C480 O469 1.249 . S
C480 O470 1.264 . S
C481 C484 1.382 . S
C481 C486 1.390 . S
C481 C488 1.506 . S
C482 C483 1.398 . S
C482 C486 1.392 . S
C483 C482 1.398 . S
C483 C485 1.372 . S
C483 H500 0.931 . S
C484 C481 1.382 . S
C484 C485 1.390 . S
C484 H501 0.931 . S
C485 C483 1.372 . S
C485 C484 1.390 . S
C485 H502 0.929 . S
C486 C481 1.390 . S
C486 C482 1.392 . S
C486 H503 0.930 . S
C487 O472 1.255 1_655 S
C487 O473 1.257 . S
C488 Eu424 2.787 . S
C488 O468 1.252 . S
C488 O471 1.268 . S
C488 C481 1.506 . S
C489 C456 1.439 . S
C489 H466 0.931 . S
C489 C490 1.374 . S
C490 C461 1.387 . S
C490 H467 0.931 . S
C490 C489 1.374 . S
C491 O475 1.249 . S
C491 O476 1.264 1_655 S
C492 C495 1.382 . S
C492 C496 1.390 . S
C492 C499 1.506 . S
C493 C494 1.398 . S
C493 C496 1.392 . S
C494 C493 1.398 . S
C494 C497 1.372 . S
C494 H504 0.931 . S
C495 C492 1.382 . S
C495 C497 1.390 . S
C495 H505 0.931 . S
C496 C492 1.390 . S
C496 C493 1.392 . S
C496 H506 0.930 . S
C497 C494 1.372 . S
C497 C495 1.390 . S
C497 H507 0.929 . S
C498 O478 1.255 . S
C498 O479 1.257 . S
C499 Eu435 2.787 . S
C499 O474 1.252 . S
C499 O477 1.268 . S
C499 C492 1.506 . S
H500 C483 0.931 . S
H501 C484 0.931 . S
H502 C485 0.929 . S
H503 C486 0.930 . S
H504 C494 0.931 . S
H505 C495 0.931 . S
H506 C496 0.930 . S
H507 C497 0.929 . S
Eu508 N537 2.600 . S
Eu508 N543 2.562 . S
Eu508 O552 2.462 . S
Eu508 O553 2.373 . S
Eu508 O555 2.432 . S
Eu508 O556 2.291 . S
Eu508 O560 2.335 . S
Eu508 O563 2.372 . S
Eu508 C572 2.787 . S
C509 N510 1.365 . S
C509 C512 1.405 . S
C509 C516 1.448 . S
N510 C509 1.365 . S
N510 C513 1.319 . S
N510 Eu519 2.600 . S
C511 C513 1.397 . S
C511 C514 1.367 . S
C511 H531 0.931 . S
C512 C509 1.405 . S
C512 C514 1.403 . S
C512 C518 1.439 . S
C513 N510 1.319 . S
C513 C511 1.397 . S
C513 H524 0.930 . S
C514 C511 1.367 . S
C514 C512 1.403 . S
C514 H535 0.929 . S
C515 C516 1.430 . S
C515 C517 1.387 . S
C515 C521 1.404 . S
C516 C509 1.448 . S
C516 C515 1.430 . S
C516 N520 1.351 . S
C517 C515 1.387 . S
C517 C518 1.374 . S
C517 H532 0.931 . S
C518 C512 1.439 . S
C518 C517 1.374 . S
C518 H533 0.931 . S
Eu519 N510 2.600 . S
Eu519 N520 2.562 . S
Eu519 O554 2.335 . S
Eu519 O557 2.372 . S
Eu519 O558 2.462 . S
Eu519 O559 2.373 . S
Eu519 O561 2.432 . S
Eu519 O562 2.291 . S
Eu519 C583 2.787 . S
N520 C516 1.351 . S
N520 Eu519 2.562 . S
N520 C522 1.325 . S
C521 C515 1.404 . S
C521 C523 1.366 . S
C521 H529 0.930 . S
C522 N520 1.325 . S
C522 C523 1.416 . S
C522 H528 0.929 . S
C523 C521 1.366 . S
C523 C522 1.416 . S
C523 H525 0.930 . S
H524 C513 0.930 . S
H525 C523 0.930 . S
H526 C541 0.930 . S
H527 C548 0.930 . S
H528 C522 0.929 . S
H529 C521 0.930 . S
H530 C544 0.929 . S
H531 C511 0.931 . S
H532 C517 0.931 . S
H533 C518 0.931 . S
H534 C539 0.931 . S
H535 C514 0.929 . S
H536 C547 0.930 . S
N537 Eu508 2.600 . S
N537 C538 1.365 . S
N537 C541 1.319 . S
C538 N537 1.365 . S
C538 C540 1.405 . S
C538 C546 1.448 . S
C539 H534 0.931 . S
C539 C541 1.397 . S
C539 C542 1.367 . S
C540 C538 1.405 . S
C540 C542 1.403 . S
C540 C573 1.439 . S
C541 H526 0.930 . S
C541 N537 1.319 . S
C541 C539 1.397 . S
C542 C539 1.367 . S
C542 C540 1.403 . S
C542 H549 0.929 . S
N543 Eu508 2.562 . S
N543 C544 1.325 . S
N543 C546 1.351 . S
C544 H530 0.929 . S
C544 N543 1.325 . S
C544 C548 1.416 . S
C545 C546 1.430 . S
C545 C547 1.404 . S
C545 C574 1.387 . S
C546 C538 1.448 . S
C546 N543 1.351 . S
C546 C545 1.430 . S
C547 H536 0.930 . S
C547 C545 1.404 . S
C547 C548 1.366 . S
C548 H527 0.930 . S
C548 C544 1.416 . S
C548 C547 1.366 . S
H549 C542 0.929 . S
H550 C573 0.931 . S
H551 C574 0.931 . S
O552 Eu508 2.462 . S
O552 C572 1.252 . S
O553 Eu508 2.373 . S
O553 C564 1.249 . S
O554 Eu519 2.335 . S
O554 C564 1.264 . S
O555 Eu508 2.432 . S
O555 C572 1.268 . S
O556 Eu508 2.291 . S
O556 C571 1.255 . S
O557 Eu519 2.372 . S
O557 C571 1.257 . S
O558 Eu519 2.462 . S
O558 C583 1.252 . S
O559 Eu519 2.373 . S
O559 C575 1.249 . S
O560 Eu508 2.335 . S
O560 C575 1.264 . S
O561 Eu519 2.432 . S
O561 C583 1.268 . S
O562 Eu519 2.291 . S
O562 C582 1.255 . S
O563 Eu508 2.372 . S
O563 C582 1.257 . S
C564 O553 1.249 . S
C564 O554 1.264 . S
C565 C568 1.382 . S
C565 C570 1.390 . S
C565 C572 1.506 . S
C566 C567 1.398 . S
C566 C570 1.392 . S
C567 C566 1.398 . S
C567 C569 1.372 . S
C567 H584 0.931 . S
C568 C565 1.382 . S
C568 C569 1.390 . S
C568 H585 0.931 . S
C569 C567 1.372 . S
C569 C568 1.390 . S
C569 H586 0.929 . S
C570 C565 1.390 . S
C570 C566 1.392 . S
C570 H587 0.930 . S
C571 O556 1.255 . S
C571 O557 1.257 . S
C572 Eu508 2.787 . S
C572 O552 1.252 . S
C572 O555 1.268 . S
C572 C565 1.506 . S
C573 C540 1.439 . S
C573 H550 0.931 . S
C573 C574 1.374 . S
C574 C545 1.387 . S
C574 H551 0.931 . S
C574 C573 1.374 . S
C575 O559 1.249 . S
C575 O560 1.264 . S
C576 C579 1.382 . S
C576 C580 1.390 . S
C576 C583 1.506 . S
C577 C578 1.398 . S
C577 C580 1.392 . S
C578 C577 1.398 . S
C578 C581 1.372 . S
C578 H588 0.931 . S
C579 C576 1.382 . S
C579 C581 1.390 . S
C579 H589 0.931 . S
C580 C576 1.390 . S
C580 C577 1.392 . S
C580 H590 0.930 . S
C581 C578 1.372 . S
C581 C579 1.390 . S
C581 H591 0.929 . S
C582 O562 1.255 . S
C582 O563 1.257 . S
C583 Eu519 2.787 . S
C583 O558 1.252 . S
C583 O561 1.268 . S
C583 C576 1.506 . S
H584 C567 0.931 . S
H585 C568 0.931 . S
H586 C569 0.929 . S
H587 C570 0.930 . S
H588 C578 0.931 . S
H589 C579 0.931 . S
H590 C580 0.930 . S
H591 C581 0.929 . S
H592 C598 0.930 . S
H593 C601 0.930 . S
H594 C602 0.930 . S
H595 C603 0.930 . S
H596 C606 0.930 . S
H597 C607 0.930 . S
C598 H592 0.930 . S
C598 C599 1.355 1_545 S
C598 C600 1.415 . S
C599 C598 1.355 1_565 S
C599 C601 1.419 . S
C600 C598 1.415 . S
C600 C605 1.425 . S
C600 C607 1.409 . S
C601 H593 0.930 . S
C601 C599 1.419 . S
C601 C602 1.362 . S
C602 H594 0.930 . S
C602 C601 1.362 . S
C602 C605 1.409 1_565 S
C603 H595 0.930 . S
C603 C604 1.355 . S
C603 C605 1.415 . S
C604 C603 1.355 . S
C604 C606 1.419 . S
C605 C600 1.425 . S
C605 C602 1.409 1_545 S
C605 C603 1.415 . S
C606 H596 0.930 . S
C606 C604 1.419 . S
C606 C607 1.362 . S
C607 H597 0.930 . S
C607 C600 1.409 . S
C607 C606 1.362 . S
H608 C614 0.930 . S
H609 C617 0.930 . S
H610 C618 0.930 . S
H611 C619 0.930 . S
H612 C622 0.930 . S
H613 C623 0.930 . S
C614 H608 0.930 . S
C614 C615 1.355 . S
C614 C616 1.415 . S
C615 C614 1.355 . S
C615 C617 1.419 . S
C616 C614 1.415 . S
C616 C621 1.425 . S
C616 C623 1.409 . S
C617 H609 0.930 . S
C617 C615 1.419 . S
C617 C618 1.362 . S
C618 H610 0.930 . S
C618 C617 1.362 . S
C618 C621 1.409 . S
C619 H611 0.930 . S
C619 C620 1.355 . S
C619 C621 1.415 . S
C620 C619 1.355 . S
C620 C622 1.419 . S
C621 C616 1.425 . S
C621 C618 1.409 . S
C621 C619 1.415 . S
C622 H612 0.930 . S
C622 C620 1.419 . S
C622 C623 1.362 . S
C623 H613 0.930 . S
C623 C616 1.409 . S
C623 C622 1.362 . S
H624 C630 0.930 . S
H625 C633 0.930 . S
H626 C634 0.930 . S
H627 C635 0.930 . S
H628 C638 0.930 . S
H629 C639 0.930 . S
C630 H624 0.930 . S
C630 C631 1.355 . S
C630 C632 1.415 . S
C631 C630 1.355 . S
C631 C633 1.419 . S
C632 C630 1.415 . S
C632 C637 1.425 . S
C632 C639 1.409 . S
C633 H625 0.930 . S
C633 C631 1.419 . S
C633 C634 1.362 . S
C634 H626 0.930 . S
C634 C633 1.362 . S
C634 C637 1.409 . S
C635 H627 0.930 . S
C635 C636 1.355 . S
C635 C637 1.415 . S
C636 C635 1.355 . S
C636 C638 1.419 . S
C637 C632 1.425 . S
C637 C634 1.409 . S
C637 C635 1.415 . S
C638 H628 0.930 . S
C638 C636 1.419 . S
C638 C639 1.362 . S
C639 H629 0.930 . S
C639 C632 1.409 . S
C639 C638 1.362 . S
H640 C646 0.930 . S
H641 C649 0.930 . S
H642 C650 0.930 . S
H643 C651 0.930 . S
H644 C654 0.930 . S
H645 C655 0.930 . S
C646 H640 0.930 . S
C646 C647 1.355 1_545 S
C646 C648 1.415 . S
C647 C646 1.355 1_565 S
C647 C649 1.419 . S
C648 C646 1.415 . S
C648 C653 1.425 . S
C648 C655 1.409 . S
C649 H641 0.930 . S
C649 C647 1.419 . S
C649 C650 1.362 . S
C650 H642 0.930 . S
C650 C649 1.362 . S
C650 C653 1.409 1_565 S
C651 H643 0.930 . S
C651 C652 1.355 . S
C651 C653 1.415 . S
C652 C651 1.355 . S
C652 C654 1.419 . S
C653 C648 1.425 . S
C653 C650 1.409 1_545 S
C653 C651 1.415 . S
C654 H644 0.930 . S
C654 C652 1.419 . S
C654 C655 1.362 . S
C655 H645 0.930 . S
C655 C648 1.409 . S
C655 C654 1.362 . S
H656 C662 0.930 . S
H657 C665 0.930 . S
H658 C666 0.930 . S
H659 C667 0.930 . S
H660 C670 0.930 . S
H661 C671 0.930 . S
C662 H656 0.930 . S
C662 C663 1.355 1_565 S
C662 C664 1.415 . S
C663 C662 1.355 1_545 S
C663 C665 1.419 . S
C664 C662 1.415 . S
C664 C669 1.425 . S
C664 C671 1.409 . S
C665 H657 0.930 . S
C665 C663 1.419 . S
C665 C666 1.362 . S
C666 H658 0.930 . S
C666 C665 1.362 . S
C666 C669 1.409 1_545 S
C667 H659 0.930 . S
C667 C668 1.355 . S
C667 C669 1.415 . S
C668 C667 1.355 . S
C668 C670 1.419 . S
C669 C664 1.425 . S
C669 C666 1.409 1_565 S
C669 C667 1.415 . S
C670 H660 0.930 . S
C670 C668 1.419 . S
C670 C671 1.362 . S
C671 H661 0.930 . S
C671 C664 1.409 . S
C671 C670 1.362 . S
H672 C678 0.930 . S
H673 C681 0.930 . S
H674 C682 0.930 . S
H675 C683 0.930 . S
H676 C686 0.930 . S
H677 C687 0.930 . S
C678 H672 0.930 . S
C678 C679 1.355 . S
C678 C680 1.415 . S
C679 C678 1.355 . S
C679 C681 1.419 . S
C680 C678 1.415 . S
C680 C685 1.425 . S
C680 C687 1.409 . S
C681 H673 0.930 . S
C681 C679 1.419 . S
C681 C682 1.362 . S
C682 H674 0.930 . S
C682 C681 1.362 . S
C682 C685 1.409 . S
C683 H675 0.930 . S
C683 C684 1.355 . S
C683 C685 1.415 . S
C684 C683 1.355 . S
C684 C686 1.419 . S
C685 C680 1.425 . S
C685 C682 1.409 . S
C685 C683 1.415 . S
C686 H676 0.930 . S
C686 C684 1.419 . S
C686 C687 1.362 . S
C687 H677 0.930 . S
C687 C680 1.409 . S
C687 C686 1.362 . S
H688 C694 0.930 . S
H689 C697 0.930 . S
H690 C698 0.930 . S
H691 C699 0.930 . S
H692 C702 0.930 . S
H693 C703 0.930 . S
C694 H688 0.930 . S
C694 C695 1.355 . S
C694 C696 1.415 . S
C695 C694 1.355 . S
C695 C697 1.419 . S
C696 C694 1.415 . S
C696 C701 1.425 . S
C696 C703 1.409 . S
C697 H689 0.930 . S
C697 C695 1.419 . S
C697 C698 1.362 . S
C698 H690 0.930 . S
C698 C697 1.362 . S
C698 C701 1.409 . S
C699 H691 0.930 . S
C699 C700 1.355 . S
C699 C701 1.415 . S
C700 C699 1.355 . S
C700 C702 1.419 . S
C701 C696 1.425 . S
C701 C698 1.409 . S
C701 C699 1.415 . S
C702 H692 0.930 . S
C702 C700 1.419 . S
C702 C703 1.362 . S
C703 H693 0.930 . S
C703 C696 1.409 . S
C703 C702 1.362 . S
H704 C710 0.930 . S
H705 C713 0.930 . S
H706 C714 0.930 . S
H707 C715 0.930 . S
H708 C718 0.930 . S
H709 C719 0.930 1_545 S
C710 H704 0.930 . S
C710 C711 1.355 . S
C710 C712 1.415 1_545 S
C711 C710 1.355 . S
C711 C713 1.419 1_545 S
C712 C710 1.415 1_565 S
C712 C717 1.425 . S
C712 C719 1.409 . S
C713 H705 0.930 . S
C713 C711 1.419 1_565 S
C713 C714 1.362 . S
C714 H706 0.930 . S
C714 C713 1.362 . S
C714 C717 1.409 . S
C715 H707 0.930 . S
C715 C716 1.355 . S
C715 C717 1.415 . S
C716 C715 1.355 . S
C716 C718 1.419 . S
C717 C712 1.425 . S
C717 C714 1.409 . S
C717 C715 1.415 . S
C718 H708 0.930 . S
C718 C716 1.419 . S
C718 C719 1.362 . S
C719 H709 0.930 1_565 S
C719 C712 1.409 . S
C719 C718 1.362 . S
H720 C726 0.930 . S
H721 C729 0.930 . S
H722 C730 0.930 . S
H723 C731 0.930 . S
H724 C734 0.930 . S
H725 C735 0.930 . S
C726 H720 0.930 . S
C726 C727 1.355 . S
C726 C728 1.415 . S
C727 C726 1.355 . S
C727 C729 1.419 . S
C728 C726 1.415 . S
C728 C733 1.425 . S
C728 C735 1.409 . S
C729 H721 0.930 . S
C729 C727 1.419 . S
C729 C730 1.362 . S
C730 H722 0.930 . S
C730 C729 1.362 . S
C730 C733 1.409 . S
C731 H723 0.930 . S
C731 C732 1.355 . S
C731 C733 1.415 . S
C732 C731 1.355 . S
C732 C734 1.419 . S
C733 C728 1.425 . S
C733 C730 1.409 . S
C733 C731 1.415 . S
C734 H724 0.930 . S
C734 C732 1.419 . S
C734 C735 1.362 . S
C735 H725 0.930 . S
C735 C728 1.409 . S
C735 C734 1.362 . S
H736 C742 0.930 . S
H737 C745 0.930 . S
H738 C746 0.930 . S
H739 C747 0.930 . S
H740 C750 0.930 . S
H741 C751 0.930 . S
C742 H736 0.930 . S
C742 C743 1.355 . S
C742 C744 1.415 . S
C743 C742 1.355 . S
C743 C745 1.419 . S
C744 C742 1.415 . S
C744 C749 1.425 . S
C744 C751 1.409 . S
C745 H737 0.930 . S
C745 C743 1.419 . S
C745 C746 1.362 . S
C746 H738 0.930 . S
C746 C745 1.362 . S
C746 C749 1.409 . S
C747 H739 0.930 . S
C747 C748 1.355 . S
C747 C749 1.415 . S
C748 C747 1.355 . S
C748 C750 1.419 . S
C749 C744 1.425 . S
C749 C746 1.409 . S
C749 C747 1.415 . S
C750 H740 0.930 . S
C750 C748 1.419 . S
C750 C751 1.362 . S
C751 H741 0.930 . S
C751 C744 1.409 . S
C751 C750 1.362 . S
H752 C758 0.930 1_554 S
H753 C761 0.930 . S
H754 C762 0.930 . S
H755 C763 0.930 . S
H756 C766 0.930 . S
H757 C767 0.930 . S
C758 H752 0.930 1_556 S
C758 C759 1.355 1_556 S
C758 C760 1.415 . S
C759 C758 1.355 1_554 S
C759 C761 1.419 1_554 S
C760 C758 1.415 . S
C760 C765 1.425 . S
C760 C767 1.409 . S
C761 H753 0.930 . S
C761 C759 1.419 1_556 S
C761 C762 1.362 . S
C762 H754 0.930 . S
C762 C761 1.362 . S
C762 C765 1.409 . S
C763 H755 0.930 . S
C763 C764 1.355 . S
C763 C765 1.415 . S
C764 C763 1.355 . S
C764 C766 1.419 . S
C765 C760 1.425 . S
C765 C762 1.409 . S
C765 C763 1.415 . S
C766 H756 0.930 . S
C766 C764 1.419 . S
C766 C767 1.362 . S
C767 H757 0.930 . S
C767 C760 1.409 . S
C767 C766 1.362 . S
H768 C774 0.930 . S
H769 C777 0.930 . S
H770 C778 0.930 . S
H771 C779 0.930 . S
H772 C782 0.930 . S
H773 C783 0.930 . S
C774 H768 0.930 . S
C774 C775 1.355 . S
C774 C776 1.415 . S
C775 C774 1.355 . S
C775 C777 1.419 . S
C776 C774 1.415 . S
C776 C781 1.425 . S
C776 C783 1.409 . S
C777 H769 0.930 . S
C777 C775 1.419 . S
C777 C778 1.362 . S
C778 H770 0.930 . S
C778 C777 1.362 . S
C778 C781 1.409 . S
C779 H771 0.930 . S
C779 C780 1.355 . S
C779 C781 1.415 . S
C780 C779 1.355 . S
C780 C782 1.419 . S
C781 C776 1.425 . S
C781 C778 1.409 . S
C781 C779 1.415 . S
C782 H772 0.930 . S
C782 C780 1.419 . S
C782 C783 1.362 . S
C783 H773 0.930 . S
C783 C776 1.409 . S
C783 C782 1.362 . S
H784 C790 0.930 . S
H785 C793 0.930 . S
H786 C794 0.930 . S
H787 C795 0.930 . S
H788 C798 0.930 . S
H789 C799 0.930 . S
C790 H784 0.930 . S
C790 C791 1.350 1_556 S
C790 C792 1.415 . S
C791 C790 1.350 1_554 S
C791 C793 1.414 1_554 S
C792 C790 1.415 . S
C792 C797 1.425 . S
C792 C799 1.409 . S
C793 H785 0.930 . S
C793 C791 1.414 1_556 S
C793 C794 1.362 . S
C794 H786 0.930 . S
C794 C793 1.362 . S
C794 C797 1.409 . S
C795 H787 0.930 . S
C795 C796 1.355 . S
C795 C797 1.415 . S
C796 C795 1.355 . S
C796 C798 1.419 . S
C797 C792 1.425 . S
C797 C794 1.409 . S
C797 C795 1.415 . S
C798 H788 0.930 . S
C798 C796 1.419 . S
C798 C799 1.362 . S
C799 H789 0.930 . S
C799 C792 1.409 . S
C799 C798 1.362 . S
H800 C806 0.930 . S
H801 C809 0.930 . S
H802 C810 0.930 . S
H803 C811 0.930 . S
H804 C814 0.930 . S
H805 C815 0.930 . S
C806 H800 0.930 . S
C806 C807 1.355 . S
C806 C808 1.415 . S
C807 C806 1.355 . S
C807 C809 1.419 . S
C808 C806 1.415 . S
C808 C813 1.425 . S
C808 C815 1.409 . S
C809 H801 0.930 . S
C809 C807 1.419 . S
C809 C810 1.362 . S
C810 H802 0.930 . S
C810 C809 1.362 . S
C810 C813 1.409 . S
C811 H803 0.930 . S
C811 C812 1.355 . S
C811 C813 1.415 . S
C812 C811 1.355 . S
C812 C814 1.419 . S
C813 C808 1.425 . S
C813 C810 1.409 . S
C813 C811 1.415 . S
C814 H804 0.930 . S
C814 C812 1.419 . S
C814 C815 1.362 . S
C815 H805 0.930 . S
C815 C808 1.409 . S
C815 C814 1.362 . S
H816 C822 0.930 . S
H817 C825 0.931 . S
H818 C826 0.930 . S
H819 C827 0.930 . S
H820 C830 0.930 . S
H821 C831 0.930 . S
C822 H816 0.930 . S
C822 C823 1.379 . S
C822 C824 1.415 . S
C823 C822 1.379 . S
C823 C825 1.419 1_554 S
C824 C822 1.415 . S
C824 C829 1.425 . S
C824 C831 1.409 . S
C825 H817 0.931 . S
C825 C823 1.419 1_556 S
C825 C826 1.361 1_556 S
C826 H818 0.930 . S
C826 C825 1.361 1_554 S
C826 C829 1.409 . S
C827 H819 0.930 . S
C827 C828 1.355 . S
C827 C829 1.415 . S
C828 C827 1.355 . S
C828 C830 1.419 . S
C829 C824 1.425 . S
C829 C826 1.409 . S
C829 C827 1.415 . S
C830 H820 0.930 . S
C830 C828 1.419 . S
C830 C831 1.362 . S
C831 H821 0.930 . S
C831 C824 1.409 . S
C831 C830 1.362 . S
H832 C838 0.930 . S
H833 C841 0.930 . S
H834 C842 0.930 . S
H835 C843 0.930 . S
H836 C846 0.930 . S
H837 C847 0.930 . S
C838 H832 0.930 . S
C838 C839 1.355 . S
C838 C840 1.415 . S
C839 C838 1.355 . S
C839 C841 1.419 . S
C840 C838 1.415 . S
C840 C845 1.425 . S
C840 C847 1.409 . S
C841 H833 0.930 . S
C841 C839 1.419 . S
C841 C842 1.362 . S
C842 H834 0.930 . S
C842 C841 1.362 . S
C842 C845 1.409 . S
C843 H835 0.930 . S
C843 C844 1.355 . S
C843 C845 1.415 . S
C844 C843 1.355 . S
C844 C846 1.419 . S
C845 C840 1.425 . S
C845 C842 1.409 . S
C845 C843 1.415 . S
C846 H836 0.930 . S
C846 C844 1.419 . S
C846 C847 1.362 . S
C847 H837 0.930 . S
C847 C840 1.409 . S
C847 C846 1.362 . S
H848 C854 0.930 . S
H849 C857 0.930 . S
H850 C858 0.930 . S
H851 C859 0.930 . S
H852 C862 0.930 . S
H853 C863 0.930 . S
C854 H848 0.930 . S
C854 C855 1.355 . S
C854 C856 1.415 . S
C855 C854 1.355 . S
C855 C857 1.419 . S
C856 C854 1.415 . S
C856 C861 1.425 . S
C856 C863 1.409 . S
C857 H849 0.930 . S
C857 C855 1.419 . S
C857 C858 1.362 . S
C858 H850 0.930 . S
C858 C857 1.362 . S
C858 C861 1.409 . S
C859 H851 0.930 . S
C859 C860 1.355 . S
C859 C861 1.415 . S
C860 C859 1.355 . S
C860 C862 1.419 . S
C861 C856 1.425 . S
C861 C858 1.409 . S
C861 C859 1.415 . S
C862 H852 0.930 . S
C862 C860 1.419 . S
C862 C863 1.362 . S
C863 H853 0.930 . S
C863 C856 1.409 . S
C863 C862 1.362 . S
H864 C870 0.930 . S
H865 C873 0.930 . S
H866 C874 0.930 . S
H867 C875 0.930 . S
H868 C878 0.930 . S
H869 C879 0.930 . S
C870 H864 0.930 . S
C870 C871 1.355 . S
C870 C872 1.415 . S
C871 C870 1.355 . S
C871 C873 1.419 . S
C872 C870 1.415 . S
C872 C877 1.425 . S
C872 C879 1.409 . S
C873 H865 0.930 . S
C873 C871 1.419 . S
C873 C874 1.362 . S
C874 H866 0.930 . S
C874 C873 1.362 . S
C874 C877 1.409 . S
C875 H867 0.930 . S
C875 C876 1.355 . S
C875 C877 1.415 . S
C876 C875 1.355 . S
C876 C878 1.419 . S
C877 C872 1.425 . S
C877 C874 1.409 . S
C877 C875 1.415 . S
C878 H868 0.930 . S
C878 C876 1.419 . S
C878 C879 1.362 . S
C879 H869 0.930 . S
C879 C872 1.409 . S
C879 C878 1.362 . S
H880 C886 0.930 . S
H881 C889 0.930 . S
H882 C890 0.930 . S
H883 C891 0.930 . S
H884 C894 0.930 . S
H885 C895 0.930 . S
C886 H880 0.930 . S
C886 C887 1.355 . S
C886 C888 1.415 . S
C887 C886 1.355 . S
C887 C889 1.419 . S
C888 C886 1.415 . S
C888 C893 1.425 . S
C888 C895 1.409 . S
C889 H881 0.930 . S
C889 C887 1.419 . S
C889 C890 1.362 . S
C890 H882 0.930 . S
C890 C889 1.362 . S
C890 C893 1.409 . S
C891 H883 0.930 . S
C891 C892 1.355 . S
C891 C893 1.415 . S
C892 C891 1.355 . S
C892 C894 1.419 . S
C893 C888 1.425 . S
C893 C890 1.409 . S
C893 C891 1.415 . S
C894 H884 0.930 . S
C894 C892 1.419 . S
C894 C895 1.362 . S
C895 H885 0.930 . S
C895 C888 1.409 . S
C895 C894 1.362 . S
H896 C902 0.930 . S
H897 C905 0.930 . S
H898 C906 0.930 . S
H899 C907 0.930 . S
H900 C910 0.930 . S
H901 C911 0.930 . S
C902 H896 0.930 . S
C902 C903 1.355 . S
C902 C904 1.415 . S
C903 C902 1.355 . S
C903 C905 1.419 . S
C904 C902 1.415 . S
C904 C909 1.425 . S
C904 C911 1.409 . S
C905 H897 0.930 . S
C905 C903 1.419 . S
C905 C906 1.362 . S
C906 H898 0.930 . S
C906 C905 1.362 . S
C906 C909 1.409 . S
C907 H899 0.930 . S
C907 C908 1.355 . S
C907 C909 1.415 . S
C908 C907 1.355 . S
C908 C910 1.419 . S
C909 C904 1.425 . S
C909 C906 1.409 . S
C909 C907 1.415 . S
C910 H900 0.930 . S
C910 C908 1.419 . S
C910 C911 1.362 . S
C911 H901 0.930 . S
C911 C904 1.409 . S
C911 C910 1.362 . S
H912 C918 0.930 . S
H913 C921 0.930 . S
H914 C922 0.930 . S
H915 C923 0.930 . S
H916 C926 0.930 . S
H917 C927 0.930 . S
C918 H912 0.930 . S
C918 C919 1.355 . S
C918 C920 1.415 . S
C919 C918 1.355 . S
C919 C921 1.419 . S
C920 C918 1.415 . S
C920 C925 1.425 . S
C920 C927 1.409 . S
C921 H913 0.930 . S
C921 C919 1.419 . S
C921 C922 1.362 . S
C922 H914 0.930 . S
C922 C921 1.362 . S
C922 C925 1.409 . S
C923 H915 0.930 . S
C923 C924 1.355 . S
C923 C925 1.415 . S
C924 C923 1.355 . S
C924 C926 1.419 . S
C925 C920 1.425 . S
C925 C922 1.409 . S
C925 C923 1.415 . S
C926 H916 0.930 . S
C926 C924 1.419 . S
C926 C927 1.362 . S
C927 H917 0.930 . S
C927 C920 1.409 . S
C927 C926 1.362 . S
H928 C934 0.930 . S
H929 C937 0.930 . S
H930 C938 0.930 . S
H931 C939 0.930 . S
H932 C942 0.930 . S
H933 C943 0.930 . S
C934 H928 0.930 . S
C934 C935 1.355 . S
C934 C936 1.415 . S
C935 C934 1.355 . S
C935 C937 1.419 . S
C936 C934 1.415 . S
C936 C941 1.425 . S
C936 C943 1.409 . S
C937 H929 0.930 . S
C937 C935 1.419 . S
C937 C938 1.362 . S
C938 H930 0.930 . S
C938 C937 1.362 . S
C938 C941 1.409 . S
C939 H931 0.930 . S
C939 C940 1.355 . S
C939 C941 1.415 . S
C940 C939 1.355 . S
C940 C942 1.419 . S
C941 C936 1.425 . S
C941 C938 1.409 . S
C941 C939 1.415 . S
C942 H932 0.930 . S
C942 C940 1.419 . S
C942 C943 1.362 . S
C943 H933 0.930 . S
C943 C936 1.409 . S
C943 C942 1.362 . S
H944 C950 0.930 . S
H945 C953 0.930 . S
H946 C954 0.930 . S
H947 C955 0.930 . S
H948 C958 0.930 . S
H949 C959 0.930 . S
C950 H944 0.930 . S
C950 C951 1.355 . S
C950 C952 1.415 . S
C951 C950 1.355 . S
C951 C953 1.419 . S
C952 C950 1.415 . S
C952 C957 1.425 . S
C952 C959 1.409 . S
C953 H945 0.930 . S
C953 C951 1.419 . S
C953 C954 1.362 . S
C954 H946 0.930 . S
C954 C953 1.362 . S
C954 C957 1.409 . S
C955 H947 0.930 . S
C955 C956 1.355 . S
C955 C957 1.415 . S
C956 C955 1.355 . S
C956 C958 1.419 . S
C957 C952 1.425 . S
C957 C954 1.409 . S
C957 C955 1.415 . S
C958 H948 0.930 . S
C958 C956 1.419 . S
C958 C959 1.362 . S
C959 H949 0.930 . S
C959 C952 1.409 . S
C959 C958 1.362 . S
H960 C966 0.930 . S
H961 C969 0.930 . S
H962 C970 0.930 . S
H963 C971 0.930 . S
H964 C974 0.930 1_655 S
H965 C975 0.930 . S
C966 H960 0.930 . S
C966 C967 1.355 . S
C966 C968 1.415 . S
C967 C966 1.355 . S
C967 C969 1.419 . S
C968 C966 1.415 . S
C968 C973 1.425 . S
C968 C975 1.409 . S
C969 H961 0.930 . S
C969 C967 1.419 . S
C969 C970 1.362 . S
C970 H962 0.930 . S
C970 C969 1.362 . S
C970 C973 1.409 . S
C971 H963 0.930 . S
C971 C972 1.355 . S
C971 C973 1.415 . S
C972 C971 1.355 . S
C972 C974 1.419 . S
C973 C968 1.425 . S
C973 C970 1.409 . S
C973 C971 1.415 . S
C974 H964 0.930 1_455 S
C974 C972 1.419 . S
C974 C975 1.362 . S
C975 H965 0.930 . S
C975 C968 1.409 . S
C975 C974 1.362 . S
C599 C221 1.482 . S
C604 C330 1.488 . S
C620 C414 1.468 . S
C615 C241 1.420 . S
C636 C407 1.467 . S
C631 C157 1.462 . S
C647 C177 1.405 . S
C652 C323 1.468 . S
C668 C487 1.490 . S
C663 C93 1.408 . S
C684 C571 1.474 . S
C679 C113 1.496 . S
C695 C29 1.387 . S
C700 C564 1.466 . S
C711 C49 1.479 . S
C716 C480 1.493 . S
C732 C314 1.366 . S
C727 C61 1.489 1_554 S
C748 C398 1.291 . S
C743 C17 1.439 . S
C764 C409 1.419 . S
C759 C125 1.498 . S
C780 C325 1.360 . S
C775 C81 1.449 . S
C796 C493 1.371 . S
C791 C189 1.481 . S
C807 C145 1.512 . S
C812 C577 1.309 . S
C828 C566 1.372 . S
C823 C253 1.404 1_554 S
C839 C209 1.522 . S
C844 C482 1.334 . S
C860 C312 1.557 . S
C855 C23 1.485 . S
C876 C396 1.563 . S
C871 C55 1.560 . S
C887 C87 1.526 . S
C892 C403 1.522 . S
C908 C319 1.531 . S
C903 C119 1.533 . S
C924 C491 1.538 . S
C919 C151 1.528 . S
C935 C183 1.458 . S
C940 C575 1.560 . S
C951 C215 1.524 . S
C956 C582 1.548 . S
C967 C247 1.456 . S
C972 C498 1.550 . S
