# Generated by pormake.
# Topology sit, (3,6)-cn, num edge types: 1
# Building blocks:
#     Node 0, Type 0, BuildingBlock: CUQRIR_clean_linker_1, # of connection points: 3
#     Node 1, Type 0, BuildingBlock: CUQRIR_clean_linker_1, # of connection points: 3
#     Node 2, Type 0, BuildingBlock: CUQRIR_clean_linker_1, # of connection points: 3
#     Node 3, Type 0, BuildingBlock: CUQRIR_clean_linker_1, # of connection points: 3
#     Node 4, Type 1, BuildingBlock: MIDCAF_clean_sbu_0, # of connection points: 6
#     Node 5, Type 1, BuildingBlock: MIDCAF_clean_sbu_0, # of connection points: 6
#     Edge 6, Type (0, 1), BuildingBlock: TEMPAE_clean_linker_10, # of connection points: 2
#     Edge 7, Type (0, 1), BuildingBlock: TEMPAE_clean_linker_10, # of connection points: 2
#     Edge 8, Type (0, 1), BuildingBlock: TEMPAE_clean_linker_10, # of connection points: 2
#     Edge 9, Type (0, 1), BuildingBlock: TEMPAE_clean_linker_10, # of connection points: 2
#     Edge 10, Type (0, 1), BuildingBlock: TEMPAE_clean_linker_10, # of connection points: 2
#     Edge 11, Type (0, 1), BuildingBlock: TEMPAE_clean_linker_10, # of connection points: 2
#     Edge 12, Type (0, 1), BuildingBlock: TEMPAE_clean_linker_10, # of connection points: 2
#     Edge 13, Type (0, 1), BuildingBlock: TEMPAE_clean_linker_10, # of connection points: 2
#     Edge 14, Type (0, 1), BuildingBlock: TEMPAE_clean_linker_10, # of connection points: 2
#     Edge 15, Type (0, 1), BuildingBlock: TEMPAE_clean_linker_10, # of connection points: 2
#     Edge 16, Type (0, 1), BuildingBlock: TEMPAE_clean_linker_10, # of connection points: 2
#     Edge 17, Type (0, 1), BuildingBlock: TEMPAE_clean_linker_10, # of connection points: 2
# Relax obj value: 0.072
# Max RMSD: 0.181
# Mean RMSD: 0.120
data_MOF--net-sit--node1-MIDCAF_clean_sbu_0--node2-CUQRIR_clean_linker_1--edge1-TEMPAE_clean_linker_10
_symmetry_space_group_name_H-M    P1
_symmetry_Int_Tables_number       1
_symmetry_cell_setting            triclinic
loop_
_symmetry_equiv_pos_as_xyz
'x, y, z'
_cell_length_a     19.716492
_cell_length_b     30.73517
_cell_length_c     36.209454
_cell_angle_alpha  90.056227
_cell_angle_beta   89.291806
_cell_angle_gamma 81.679336
loop_
_atom_site_label
_atom_site_type_symbol
_atom_site_fract_x
_atom_site_fract_y
_atom_site_fract_z
_atom_type_partial_charge
C0 C 0.07398 0.28957 0.04111 0.0
N1 N 0.08528 0.32696 0.0238 0.0
N2 N 0.13249 0.26896 0.05595 0.0
C3 C 0.00583 0.27289 0.04341 0.0
C4 C 0.17994 0.29514 0.04727 0.0
N5 N 0.15153 0.33021 0.02709 0.0
C6 C 0.25335 0.28679 0.05933 0.0
H7 H 0.97697 0.28774 0.06791 0.0
H8 H 0.01222 0.23669 0.04656 0.0
H9 H 0.97507 0.28213 0.01842 0.0
H10 H 0.28352 0.26453 0.03906 0.0
H11 H 0.25764 0.27038 0.08663 0.0
H12 H 0.27557 0.31791 0.06081 0.0
C13 C 0.94395 0.78912 0.01166 0.0
N14 N 0.96601 0.75602 -0.01218 0.0
N15 N -0.00262 0.80855 0.02349 0.0
C16 C 0.87021 0.8032 0.02243 0.0
C17 C 0.05265 0.78562 0.00612 0.0
N18 N 0.03332 0.75409 -0.01583 0.0
C19 C 0.12602 0.79102 0.01344 0.0
H20 H 0.86156 0.83801 0.03167 0.0
H21 H 0.85649 0.78215 0.04543 0.0
H22 H 0.83622 0.79889 -0.0011 0.0
H23 H 0.13224 0.80137 0.04242 0.0
H24 H 0.14096 0.8168 -0.00513 0.0
H25 H 0.16122 0.76004 0.00806 0.0
C26 C 0.53678 0.82046 0.56105 0.0
N27 N 0.55458 0.84838 0.53495 0.0
N28 N 0.59273 0.79384 0.5734 0.0
C29 C 0.46523 0.82143 0.57639 0.0
C30 C 0.64553 0.80719 0.5542 0.0
N31 N 0.62228 0.84046 0.53104 0.0
C32 C 0.71906 0.786 0.55627 0.0
H33 H 0.46653 0.81161 0.60589 0.0
H34 H 0.43861 0.79802 0.56073 0.0
H35 H 0.43543 0.85477 0.57374 0.0
H36 H 0.7471 0.79012 0.53005 0.0
H37 H 0.72236 0.75045 0.56262 0.0
H38 H 0.74447 0.80196 0.57868 0.0
C39 C 0.45686 0.25569 0.53516 0.0
N40 N 0.4796 0.22102 0.51302 0.0
N41 N 0.51033 0.27272 0.54966 0.0
C42 C 0.38266 0.274 0.54124 0.0
C43 C 0.56632 0.24684 0.5358 0.0
N44 N 0.54768 0.21572 0.51304 0.0
C45 C 0.63874 0.24953 0.54732 0.0
H46 H 0.37665 0.30949 0.54833 0.0
H47 H 0.36206 0.25615 0.56448 0.0
H48 H 0.35226 0.26926 0.51635 0.0
H49 H 0.63982 0.26123 0.57628 0.0
H50 H 0.66054 0.27335 0.52932 0.0
H51 H 0.67137 0.21706 0.5448 0.0
Zn52 Zn 0.01086 0.10131 0.32415 0.0
Zn53 Zn 0.10436 0.93159 0.32872 0.0
Zn54 Zn 0.05789 1.01707 0.32787 0.0
C55 C 0.08385 0.9542 0.25506 0.0
C56 C 0.9776 0.94494 0.36755 0.0
O57 O 0.13227 0.05148 0.35723 0.0
O58 O 0.08196 0.12065 0.35666 0.0
C59 C 0.04388 0.07576 0.25255 0.0
O60 O 0.06705 0.99242 0.27 0.0
O61 O 0.10268 0.92106 0.27496 0.0
O62 O 0.02779 0.91551 0.36039 0.0
O63 O 0.97864 0.98479 0.35663 0.0
O64 O 0.01967 0.1096 0.2707 0.0
O65 O 0.05983 0.03853 0.26899 0.0
O66 O 0.95552 0.03043 0.35581 0.0
O67 O 0.91836 0.10052 0.34424 0.0
C68 C 0.90872 0.06433 0.35814 0.0
O69 O 0.15466 1.00575 0.35974 0.0
O70 O 0.19371 0.93505 0.35169 0.0
C71 C 0.13139 0.09216 0.36619 0.0
C72 C 0.20084 0.97212 0.3648 0.0
Zn73 Zn 0.54561 0.65371 0.83654 0.0
Zn74 Zn 0.56142 0.43678 0.84241 0.0
Zn75 Zn 0.56794 0.517 0.83546 0.0
C76 C 0.56908 0.45077 0.76681 0.0
C77 C 0.44277 0.48229 0.87532 0.0
O78 O 0.66249 0.53343 0.85934 0.0
O79 O 0.60224 0.59435 0.84435 0.0
C80 C 0.56424 0.57751 0.77701 0.0
O81 O 0.56491 0.49087 0.77803 0.0
O82 O 0.57147 0.41986 0.78988 0.0
O83 O 0.46845 0.44391 0.86562 0.0
O84 O 0.47398 0.5151 0.86766 0.0
O85 O 0.55979 0.59552 0.80852 0.0
O86 O 0.57052 0.53567 0.77707 0.0
O87 O 0.47865 0.5632 0.86267 0.0
O88 O 0.46406 0.6384 0.8658 0.0
C89 C 0.44483 0.60109 0.87288 0.0
O90 O 0.66092 0.4891 0.86667 0.0
O91 O 0.6425 0.4205 0.87406 0.0
C92 C 0.65614 0.57525 0.85909 0.0
C93 C 0.6792 0.45023 0.87972 0.0
C94 C 0.13513 0.18931 0.0641 0.0
C95 C 0.13921 0.2308 0.07919 0.0
C96 C 0.12761 0.15336 0.08702 0.0
C97 C 0.12395 0.15946 0.1258 0.0
C98 C 0.13298 0.20078 0.14103 0.0
C99 C 0.14022 0.236 0.11744 0.0
C100 C 0.11869 0.10997 0.06962 0.0
C101 C 0.13002 0.20877 0.18222 0.0
C102 C 0.0113 0.10693 0.19154 0.0
C103 C 0.06029 0.08184 0.21336 0.0
C104 C 0.03088 0.12851 0.15996 0.0
C105 C 0.10135 0.12547 0.15053 0.0
C106 C 0.14998 0.09582 0.16994 0.0
C107 C 0.12868 0.07401 0.20123 0.0
C108 C 0.97691 0.15871 0.13946 0.0
C109 C 0.22535 0.09098 0.16039 0.0
H110 H 0.13408 0.18575 0.03434 0.0
H111 H 0.14292 0.26836 0.12876 0.0
H112 H 0.14593 0.08203 0.08549 0.0
H113 H 0.06346 0.1065 0.06974 0.0
H114 H 0.13768 0.10768 0.04057 0.0
H115 H 0.14462 0.24122 0.18963 0.0
H116 H 0.07716 0.20758 0.19268 0.0
H117 H 0.16466 0.1827 0.19659 0.0
H118 H 0.95835 0.1128 0.20102 0.0
H119 H 0.1666 0.05475 0.21831 0.0
H120 H -0.01481 0.15527 0.10919 0.0
H121 H 0.98042 0.19334 0.14693 0.0
H122 H 0.92432 0.15203 0.14634 0.0
H123 H 0.23374 0.09109 0.13004 0.0
H124 H 0.25367 0.06023 0.17197 0.0
H125 H 0.24725 0.11923 0.17208 0.0
C126 C 0.03293 0.87737 0.04614 0.0
C127 C -0.00211 0.84135 0.05189 0.0
C128 C 0.04437 0.90523 0.0755 0.0
C129 C 0.01968 0.89686 0.11128 0.0
C130 C 0.97955 0.86256 0.11647 0.0
C131 C 0.96962 0.83501 0.08674 0.0
C132 C 0.08702 0.9415 0.06872 0.0
C133 C 0.95142 0.85282 0.15406 0.0
C134 C 0.11827 0.91204 0.1978 0.0
C135 C 0.07655 0.94717 0.21504 0.0
C136 C 0.10319 0.89766 0.16256 0.0
C137 C 0.04436 0.91864 0.14424 0.0
C138 C 0.00537 0.95655 0.16016 0.0
C139 C 0.02211 0.97052 0.1955 0.0
C140 C 0.14728 0.85777 0.14628 0.0
C141 C 0.94281 0.98022 0.1414 0.0
H142 H 0.05402 0.88243 0.01897 0.0
H143 H 0.94309 0.80692 0.09119 0.0
H144 H 0.06476 0.97205 0.0834 0.0
H145 H 0.13928 0.93142 0.07962 0.0
H146 H 0.09164 0.9488 0.03882 0.0
H147 H 0.91439 0.82886 0.15256 0.0
H148 H -0.00579 0.83898 0.17214 0.0
H149 H 0.92552 0.88348 0.16726 0.0
H150 H 0.16097 0.8943 0.2127 0.0
H151 H -0.01043 0.99763 0.20882 0.0
H152 H 0.16078 0.86381 0.11708 0.0
H153 H 0.11827 0.8294 0.14665 0.0
H154 H 0.19538 0.84858 0.16188 0.0
H155 H 0.95135 0.98227 0.11116 0.0
H156 H 0.92815 1.01399 0.15262 0.0
H157 H 0.8992 0.96164 0.14599 0.0
C158 C 0.6389 0.75347 0.62872 0.0
C159 C 0.59409 0.7576 0.59883 0.0
C160 C 0.63696 0.72009 0.65505 0.0
C161 C 0.5877 0.69098 0.6519 0.0
C162 C 0.54372 0.69427 0.62113 0.0
C163 C 0.54831 0.72708 0.59467 0.0
C164 C 0.68591 0.71703 0.68698 0.0
C165 C 0.48955 0.66459 0.61706 0.0
C166 C 0.60409 0.58837 0.7122 0.0
C167 C 0.56473 0.60412 0.74316 0.0
C168 C 0.61192 0.61612 0.682 0.0
C169 C 0.57787 0.66006 0.68253 0.0
C170 C 0.53531 0.67519 0.71305 0.0
C171 C 0.53015 0.64726 0.74319 0.0
C172 C 0.65895 0.5991 0.65038 0.0
C173 C 0.49624 0.72125 0.71425 0.0
H174 H 0.67408 0.77715 0.63202 0.0
H175 H 0.51488 0.72961 0.57103 0.0
H176 H 0.65721 0.72708 0.71287 0.0
H177 H 0.71088 0.68258 0.69059 0.0
H178 H 0.72629 0.7384 0.68303 0.0
H179 H 0.46226 0.66963 0.5904 0.0
H180 H 0.51274 0.62961 0.61905 0.0
H181 H 0.45138 0.67112 0.63991 0.0
H182 H 0.63132 0.55509 0.71235 0.0
H183 H 0.49929 0.65934 0.76707 0.0
H184 H 0.70339 0.61749 0.64934 0.0
H185 H 0.63209 0.6046 0.6237 0.0
H186 H 0.67836 0.56348 0.65309 0.0
H187 H 0.53273 0.74551 0.71521 0.0
H188 H 0.4613 0.72671 0.73865 0.0
H189 H 0.46551 0.72789 0.68887 0.0
C190 C 0.54744 0.34312 0.56648 0.0
C191 C 0.50918 0.30924 0.57464 0.0
C192 C 0.55543 0.37543 0.59287 0.0
C193 C 0.52436 0.37358 0.62816 0.0
C194 C 0.48151 0.34119 0.63545 0.0
C195 C 0.47464 0.30928 0.60857 0.0
C196 C 0.60099 0.40951 0.58384 0.0
C197 C 0.44702 0.33819 0.67263 0.0
C198 C 0.61122 0.40112 0.71544 0.0
C199 C 0.56881 0.43912 0.72741 0.0
C200 C 0.60053 0.3815 0.68157 0.0
C201 C 0.54529 0.40006 0.65933 0.0
C202 C 0.50596 0.44064 0.66978 0.0
C203 C 0.51848 0.45996 0.70386 0.0
C204 C 0.6448 0.3388 0.67121 0.0
C205 C 0.44718 0.46171 0.64662 0.0
H206 H 0.57323 0.34322 0.53989 0.0
H207 H 0.4453 0.28292 0.61473 0.0
H208 H 0.57798 0.44237 0.59425 0.0
H209 H 0.65103 0.40068 0.59763 0.0
H210 H 0.61062 0.41168 0.55364 0.0
H211 H 0.40907 0.31477 0.67236 0.0
H212 H 0.48629 0.32702 0.6936 0.0
H213 H 0.4206 0.37096 0.68143 0.0
H214 H 0.65047 0.38525 0.73368 0.0
H215 H 0.48547 0.48927 0.71328 0.0
H216 H 0.66309 0.33982 0.64217 0.0
H217 H 0.61409 0.31135 0.67348 0.0
H218 H 0.69004 0.33147 0.68935 0.0
H219 H 0.46086 0.45954 0.6168 0.0
H220 H 0.43138 0.49678 0.65419 0.0
H221 H 0.40257 0.44396 0.65095 0.0
C222 C 0.24465 0.34901 -0.01279 0.0
C223 C 0.1868 0.36266 0.00927 0.0
C224 C 0.27806 0.37945 0.96801 0.0
C225 C 0.25174 0.42487 0.96997 0.0
C226 C 0.1931 0.43898 -0.00774 0.0
C227 C 0.16176 0.40767 0.01203 0.0
C228 C 0.34095 0.36272 0.94501 0.0
C229 C 0.16229 0.48676 -0.00567 0.0
C230 C 0.39035 0.48873 0.9376 0.0
C231 C 0.38164 0.48661 0.89939 0.0
C232 C 0.34315 0.47346 0.96202 0.0
C233 C 0.28578 0.45646 0.94762 0.0
C234 C 0.27173 0.46082 0.90941 0.0
C235 C 0.32073 0.47504 0.88558 0.0
C236 C 0.36006 0.46986 0.00251 0.0
C237 C 0.20951 0.44514 0.89307 0.0
H238 H 0.26295 0.31419 -0.01561 0.0
H239 H 0.11698 0.4182 0.02918 0.0
H240 H 0.3303 0.36927 0.91536 0.0
H241 H 0.3842 0.38021 0.95268 0.0
H242 H 0.35732 0.32684 0.9485 0.0
H243 H 0.12207 0.49305 0.01622 0.0
H244 H 0.20248 0.50768 -0.00037 0.0
H245 H 0.13886 0.49699 0.96743 0.0
H246 H 0.43786 0.49743 0.94817 0.0
H247 H 0.31415 0.47345 0.85593 0.0
H248 H 0.38413 0.43572 0.00853 0.0
H249 H 0.31316 0.477 0.01996 0.0
H250 H 0.39649 0.49257 0.0104 0.0
H251 H 0.2193 0.40885 0.88985 0.0
H252 H 0.19762 0.45987 0.86546 0.0
H253 H 0.16402 0.45332 0.91146 0.0
C254 C 0.89159 0.69856 -0.01183 0.0
C255 C 0.92518 0.72847 0.96863 0.0
C256 C 0.85141 0.67152 0.96968 0.0
C257 C 0.84381 0.67539 0.93089 0.0
C258 C 0.87845 0.70548 0.91109 0.0
C259 C 0.91947 0.73137 0.93027 0.0
C260 C 0.81662 0.63914 -0.00838 0.0
C261 C 0.87053 0.71131 0.8699 0.0
C262 C 0.77485 0.58378 0.87888 0.0
C263 C 0.70501 0.60046 0.87697 0.0
C264 C 0.82106 0.60799 0.89602 0.0
C265 C 0.79653 0.64976 0.91146 0.0
C266 C 0.72621 0.66703 0.90888 0.0
C267 C 0.68138 0.64219 0.89161 0.0
C268 C 0.89601 0.58902 0.89753 0.0
C269 C 0.69819 0.71168 0.92457 0.0
H270 H 0.8973 0.69631 0.01786 0.0
H271 H 0.94602 0.75469 0.91554 0.0
H272 H 0.76018 0.64713 -0.01094 0.0
H273 H 0.83177 0.60548 -0.01958 0.0
H274 H 0.82973 0.63914 0.02138 0.0
H275 H 0.90366 0.73448 0.85844 0.0
H276 H 0.8833 0.67924 0.85555 0.0
H277 H 0.81637 0.72406 0.86359 0.0
H278 H 0.79346 0.55206 0.86659 0.0
H279 H 0.62739 0.65524 0.89006 0.0
H280 H 0.91347 0.5875 0.92658 0.0
H281 H 0.92717 0.61065 0.88242 0.0
H282 H 0.90647 0.55555 0.88524 0.0
H283 H 0.70584 0.71185 0.95487 0.0
H284 H 0.64268 0.721 0.91908 0.0
H285 H 0.72637 0.73714 0.91256 0.0
C286 C 0.97316 0.37346 0.02256 0.0
C287 C 0.03476 0.35688 0.00461 0.0
C288 C 0.91785 0.39531 0.00282 0.0
C289 C 0.92567 0.40244 0.96449 0.0
C290 C -0.00961 0.39006 0.94713 0.0
C291 C 0.04389 0.36639 0.96725 0.0
C292 C 0.84954 0.40717 0.02237 0.0
C293 C 0.00177 0.39912 0.90676 0.0
C294 C 0.77028 0.39475 0.90596 0.0
C295 C 0.74324 0.43907 0.90083 0.0
C296 C 0.82974 0.38267 0.92642 0.0
C297 C 0.86391 0.41573 0.94179 0.0
C298 C 0.8372 0.46058 0.93673 0.0
C299 C 0.77676 0.47172 0.91647 0.0
C300 C 0.85526 0.33437 0.9321 0.0
C301 C 0.87248 0.4967 0.95254 0.0
H302 H 0.96712 0.36689 0.05171 0.0
H303 H 0.09172 0.35368 0.95343 0.0
H304 H 0.82655 0.44131 0.01579 0.0
H305 H 0.81362 0.38504 0.01267 0.0
H306 H 0.85399 0.40392 0.05283 0.0
H307 H 0.05721 0.39541 0.89942 0.0
H308 H 0.97755 0.37573 0.88973 0.0
H309 H 0.97762 0.43288 0.89954 0.0
H310 H 0.74472 0.3692 0.89407 0.0
H311 H 0.755 0.50586 0.91361 0.0
H312 H 0.85868 0.32694 0.96207 0.0
H313 H 0.9075 0.32594 0.92004 0.0
H314 H 0.82141 0.31284 0.91927 0.0
H315 H 0.88578 0.49025 -0.01812 0.0
H316 H 0.84018 0.52933 0.95066 0.0
H317 H 0.92122 0.49783 0.93717 0.0
C318 C 0.11902 0.73395 0.93542 0.0
C319 C 0.07799 0.72121 0.96393 0.0
C320 C 0.17156 0.7039 0.91967 0.0
C321 C 0.1837 0.66023 0.93328 0.0
C322 C 0.13872 0.64643 0.9602 0.0
C323 C 0.08608 0.67728 0.97527 0.0
C324 C 0.21734 0.71987 0.89045 0.0
C325 C 0.14923 0.60026 0.97521 0.0
C326 C 0.32174 0.59193 0.87622 0.0
C327 C 0.38011 0.60275 0.89358 0.0
C328 C 0.25608 0.60642 0.89102 0.0
C329 C 0.2496 0.63239 0.92357 0.0
C330 C 0.30904 0.63872 0.94326 0.0
C331 C 0.3737 0.62417 0.92776 0.0
C332 C 0.19409 0.59772 0.8698 0.0
C333 C 0.30454 0.66497 0.97871 0.0
H334 H 0.11178 0.76805 0.92679 0.0
H335 H 0.05388 0.66781 -0.00254 0.0
H336 H 0.26858 0.72168 0.90221 0.0
H337 H 0.22456 0.69653 0.86686 0.0
H338 H 0.19621 0.75295 0.87992 0.0
H339 H 0.10099 0.59134 -0.01277 0.0
H340 H 0.16853 0.57598 0.95347 0.0
H341 H 0.18797 0.59785 -0.00264 0.0
H342 H 0.32706 0.57536 0.84967 0.0
H343 H 0.41925 0.6323 0.94109 0.0
H344 H 0.17637 0.62661 0.85225 0.0
H345 H 0.15124 0.59264 0.88871 0.0
H346 H 0.20628 0.56845 0.85158 0.0
H347 H 0.28865 0.70031 0.97247 0.0
H348 H 0.35442 0.66149 -0.00685 0.0
H349 H 0.26544 0.65443 -0.00233 0.0
C350 C 0.69489 0.89658 0.51598 0.0
C351 C 0.66256 0.86125 0.5049 0.0
C352 C 0.73986 0.91457 0.49195 0.0
C353 C 0.75394 0.89583 0.4564 0.0
C354 C 0.71908 0.86107 0.44472 0.0
C355 C 0.67344 0.8443 0.46917 0.0
C356 C 0.77468 0.95222 0.50521 0.0
C357 C 0.73271 0.84005 0.40717 0.0
C358 C 0.8524 0.95403 0.38489 0.0
C359 C 0.91961 0.93308 0.38996 0.0
C360 C 0.79779 0.94282 0.40659 0.0
C361 C 0.81065 0.90905 0.43328 0.0
C362 C 0.87834 0.88728 0.43798 0.0
C363 C 0.93186 0.8996 0.41634 0.0
C364 C 0.72649 0.96706 0.40102 0.0
C365 C 0.89437 0.85091 0.46595 0.0
H366 H 0.68588 0.90941 0.54378 0.0
H367 H 0.6481 0.81683 0.46102 0.0
H368 H 0.82961 0.94026 0.51023 0.0
H369 H 0.7723 0.97821 0.48384 0.0
H370 H 0.75111 0.96701 0.53118 0.0
H371 H 0.69679 0.81635 0.401 0.0
H372 H 0.72832 0.86553 0.38533 0.0
H373 H 0.78587 0.82229 0.40592 0.0
H374 H 0.84233 0.9785 0.36345 0.0
H375 H -0.01629 0.88313 0.42028 0.0
H376 H 0.70677 0.98301 0.42727 0.0
H377 H 0.69125 0.94359 0.39332 0.0
H378 H 0.72499 0.99263 0.37928 0.0
H379 H 0.94955 0.83686 0.46581 0.0
H380 H 0.86385 0.82409 0.46021 0.0
H381 H 0.87985 0.86361 0.49408 0.0
C382 C 0.42848 0.20762 0.45347 0.0
C383 C 0.43807 0.19701 0.4907 0.0
C384 C 0.38321 0.18716 0.4321 0.0
C385 C 0.34809 0.15476 0.44841 0.0
C386 C 0.36083 0.14234 0.48563 0.0
C387 C 0.40478 0.16434 0.50659 0.0
C388 C 0.37039 0.20178 0.39271 0.0
C389 C 0.32608 0.10707 0.50372 0.0
C390 C 0.17271 0.14328 0.41121 0.0
C391 C 0.18715 0.10649 0.38801 0.0
C392 C 0.22467 0.15907 0.43105 0.0
C393 C 0.29288 0.13736 0.42785 0.0
C394 C 0.30784 0.0999 0.40473 0.0
C395 C 0.25481 0.08528 0.38465 0.0
C396 C 0.20662 0.19939 0.4551 0.0
C397 C 0.37992 0.07588 0.40058 0.0
H398 H 0.45464 0.23309 0.44163 0.0
H399 H 0.41304 0.15637 0.53549 0.0
H400 H 0.3773 0.17299 0.37385 0.0
H401 H 0.3166 0.218 0.3901 0.0
H402 H 0.40509 0.22519 0.3835 0.0
H403 H 0.35106 0.09553 0.52998 0.0
H404 H 0.27173 0.12029 0.50984 0.0
H405 H 0.32649 0.07847 0.48495 0.0
H406 H 0.12049 0.15994 0.41377 0.0
H407 H 0.26665 0.05811 0.36552 0.0
H408 H 0.23677 0.22542 0.44616 0.0
H409 H 0.22009 0.19129 0.48419 0.0
H410 H 0.15126 0.21284 0.45407 0.0
H411 H 0.41133 0.0962 0.38419 0.0
H412 H 0.3813 0.04373 0.38641 0.0
H413 H 0.40426 0.07036 0.42795 0.0
C414 C 0.51309 0.91991 0.5059 0.0
C415 C 0.50835 0.87531 0.51097 0.0
C416 C 0.46697 0.94613 0.48287 0.0
C417 C 0.41509 0.92712 0.46476 0.0
C418 C 0.41002 0.88205 0.47028 0.0
C419 C 0.45731 0.85668 0.49284 0.0
C420 C 0.47484 0.99372 0.47754 0.0
C421 C 0.35483 0.86037 0.45216 0.0
C422 C 0.24932 0.98479 0.42611 0.0
C423 C 0.25989 0.97443 0.38866 0.0
C424 C 0.30231 0.97376 0.45151 0.0
C425 C 0.36715 0.9528 0.43872 0.0
C426 C 0.3801 0.94799 0.4003 0.0
C427 C 0.32573 0.95788 0.37572 0.0
C428 C 0.2863 0.97977 0.4922 0.0
C429 C 0.44966 0.92838 0.38542 0.0
H430 H 0.55235 0.93429 0.52024 0.0
H431 H 0.45469 0.82196 0.49632 0.0
H432 H 0.5025 0.99725 0.45108 0.0
H433 H 0.42441 1.01481 0.47611 0.0
H434 H 0.50443 1.00579 0.50033 0.0
H435 H 0.35456 0.82612 0.46187 0.0
H436 H 0.30364 0.87952 0.45794 0.0
H437 H 0.36284 0.85961 0.42177 0.0
H438 H 0.19816 0.99763 0.43597 0.0
H439 H 0.33378 0.95037 0.34658 0.0
H440 H 0.33004 0.99016 0.50714 0.0
H441 H 0.27661 0.9479 0.50402 0.0
H442 H 0.24008 1.00446 0.49721 0.0
H443 H 0.49087 0.94182 0.40039 0.0
H444 H 0.45503 0.93491 0.35543 0.0
H445 H 0.45715 0.89225 0.38961 0.0
C446 C 0.58454 0.14037 0.48931 0.0
C447 C 0.59255 0.18491 0.49059 0.0
C448 C 0.6284 0.11041 0.46741 0.0
C449 C 0.6835 0.12505 0.448 0.0
C450 C 0.69194 0.17004 0.44952 0.0
C451 C 0.64533 0.19949 0.47003 0.0
C452 C 0.61553 0.06335 0.46516 0.0
C453 C 0.75037 0.18725 0.42957 0.0
C454 C 0.85072 0.05859 0.41848 0.0
C455 C 0.84604 0.06394 0.38022 0.0
C456 C 0.79459 0.074 0.44154 0.0
C457 C 0.73277 0.09436 0.42556 0.0
C458 C 0.72529 0.09365 0.38677 0.0
C459 C 0.7827 0.07931 0.36444 0.0
C460 C 0.80457 0.07371 0.48276 0.0
C461 C 0.65898 0.11261 0.36872 0.0
H462 H 0.54442 0.12889 0.50567 0.0
H463 H 0.65038 0.23411 0.47028 0.0
H464 H 0.62242 0.05073 0.43645 0.0
H465 H 0.65239 0.04239 0.48284 0.0
H466 H 0.56288 0.06019 0.4747 0.0
H467 H 0.75232 0.22243 0.43585 0.0
H468 H 0.80001 0.16783 0.43737 0.0
H469 H 0.74486 0.18373 0.39931 0.0
H470 H 0.90002 0.04666 0.43051 0.0
H471 H 0.7793 0.08302 0.33471 0.0
H472 H 0.75844 0.06559 0.4975 0.0
H473 H 0.81298 0.10698 0.49189 0.0
H474 H 0.84956 0.04976 0.49096 0.0
H475 H 0.61427 0.10401 0.38456 0.0
H476 H 0.65652 0.10069 0.33986 0.0
H477 H 0.65481 0.149 0.36815 0.0
loop_
_geom_bond_atom_site_label_1
_geom_bond_atom_site_label_2
_geom_bond_distance
_geom_bond_site_symmetry_2
_ccdc_geom_bond_type
C0 N1 1.317 . S
C0 N2 1.348 . S
C0 C3 1.485 . S
N1 C0 1.317 . S
N1 N5 1.370 . S
N2 C0 1.348 . S
N2 C4 1.346 . S
C3 C0 1.485 . S
C3 H7 0.960 1_455 S
C3 H8 0.961 . S
C3 H9 0.960 1_455 S
C4 N2 1.346 . S
C4 N5 1.307 . S
C4 C6 1.486 . S
N5 N1 1.370 . S
N5 C4 1.307 . S
C6 C4 1.486 . S
C6 H10 0.960 . S
C6 H11 0.960 . S
C6 H12 0.959 . S
H7 C3 0.960 1_655 S
H8 C3 0.961 . S
H9 C3 0.960 1_655 S
H10 C6 0.960 . S
H11 C6 0.960 . S
H12 C6 0.959 . S
C13 N14 1.317 . S
C13 N15 1.348 . S
C13 C16 1.485 . S
N14 C13 1.317 . S
N14 N18 1.370 1_655 S
N15 C13 1.348 . S
N15 C17 1.346 1_655 S
C16 C13 1.485 . S
C16 H20 0.960 . S
C16 H21 0.961 . S
C16 H22 0.960 . S
C17 N15 1.346 1_455 S
C17 N18 1.307 . S
C17 C19 1.486 . S
N18 N14 1.370 1_455 S
N18 C17 1.307 . S
C19 C17 1.486 . S
C19 H23 0.960 . S
C19 H24 0.960 . S
C19 H25 0.959 . S
H20 C16 0.960 . S
H21 C16 0.961 . S
H22 C16 0.960 . S
H23 C19 0.960 . S
H24 C19 0.960 . S
H25 C19 0.959 . S
C26 N27 1.317 . S
C26 N28 1.348 . S
C26 C29 1.485 . S
N27 C26 1.317 . S
N27 N31 1.370 . S
N28 C26 1.348 . S
N28 C30 1.346 . S
C29 C26 1.485 . S
C29 H33 0.960 . S
C29 H34 0.961 . S
C29 H35 0.960 . S
C30 N28 1.346 . S
C30 N31 1.307 . S
C30 C32 1.486 . S
N31 N27 1.370 . S
N31 C30 1.307 . S
C32 C30 1.486 . S
C32 H36 0.960 . S
C32 H37 0.960 . S
C32 H38 0.959 . S
H33 C29 0.960 . S
H34 C29 0.961 . S
H35 C29 0.960 . S
H36 C32 0.960 . S
H37 C32 0.960 . S
H38 C32 0.959 . S
C39 N40 1.317 . S
C39 N41 1.348 . S
C39 C42 1.485 . S
N40 C39 1.317 . S
N40 N44 1.370 . S
N41 C39 1.348 . S
N41 C43 1.346 . S
C42 C39 1.485 . S
C42 H46 0.960 . S
C42 H47 0.961 . S
C42 H48 0.960 . S
C43 N41 1.346 . S
C43 N44 1.307 . S
C43 C45 1.486 . S
N44 N40 1.370 . S
N44 C43 1.307 . S
C45 C43 1.486 . S
C45 H49 0.960 . S
C45 H50 0.960 . S
C45 H51 0.959 . S
H46 C42 0.960 . S
H47 C42 0.961 . S
H48 C42 0.960 . S
H49 C45 0.960 . S
H50 C45 0.960 . S
H51 C45 0.959 . S
Zn52 O58 1.920 . S
Zn52 O64 1.898 . S
Zn52 O67 1.905 1_455 S
Zn53 O61 1.905 . S
Zn53 O62 1.898 . S
Zn53 O70 1.920 . S
Zn54 O57 2.080 . S
Zn54 O60 2.114 1_545 S
Zn54 O63 2.120 1_545 S
Zn54 O65 2.120 . S
Zn54 O66 2.114 1_455 S
Zn54 O69 2.080 1_545 S
C55 O60 1.166 . S
C55 O61 1.182 . S
C56 O62 1.167 . S
C56 O63 1.299 . S
O57 Zn54 2.080 . S
O57 C71 1.305 . S
O58 Zn52 1.920 . S
O58 C71 1.234 . S
C59 O64 1.167 . S
C59 O65 1.299 . S
O60 Zn54 2.114 1_565 S
O60 C55 1.166 . S
O61 Zn53 1.905 . S
O61 C55 1.182 . S
O62 Zn53 1.898 . S
O62 C56 1.167 . S
O63 Zn54 2.120 1_565 S
O63 C56 1.299 . S
O64 Zn52 1.898 . S
O64 C59 1.167 . S
O65 Zn54 2.120 . S
O65 C59 1.299 . S
O66 Zn54 2.114 1_655 S
O66 C68 1.166 . S
O67 Zn52 1.905 1_655 S
O67 C68 1.182 . S
C68 O66 1.166 . S
C68 O67 1.182 . S
O69 Zn54 2.080 1_565 S
O69 C72 1.305 . S
O70 Zn53 1.920 . S
O70 C72 1.234 . S
C71 O57 1.305 . S
C71 O58 1.234 . S
C72 O69 1.305 . S
C72 O70 1.234 . S
Zn73 O79 1.920 . S
Zn73 O85 1.898 . S
Zn73 O88 1.905 . S
Zn74 O82 1.905 . S
Zn74 O83 1.898 . S
Zn74 O91 1.920 . S
Zn75 O78 2.080 . S
Zn75 O81 2.114 . S
Zn75 O84 2.120 . S
Zn75 O86 2.120 . S
Zn75 O87 2.114 . S
Zn75 O90 2.080 . S
C76 O81 1.166 . S
C76 O82 1.182 . S
C77 O83 1.167 . S
C77 O84 1.299 . S
O78 Zn75 2.080 . S
O78 C92 1.305 . S
O79 Zn73 1.920 . S
O79 C92 1.234 . S
C80 O85 1.167 . S
C80 O86 1.299 . S
O81 Zn75 2.114 . S
O81 C76 1.166 . S
O82 Zn74 1.905 . S
O82 C76 1.182 . S
O83 Zn74 1.898 . S
O83 C77 1.167 . S
O84 Zn75 2.120 . S
O84 C77 1.299 . S
O85 Zn73 1.898 . S
O85 C80 1.167 . S
O86 Zn75 2.120 . S
O86 C80 1.299 . S
O87 Zn75 2.114 . S
O87 C89 1.166 . S
O88 Zn73 1.905 . S
O88 C89 1.182 . S
C89 O87 1.166 . S
C89 O88 1.182 . S
O90 Zn75 2.080 . S
O90 C93 1.305 . S
O91 Zn74 1.920 . S
O91 C93 1.234 . S
C92 O78 1.305 . S
C92 O79 1.234 . S
C93 O90 1.305 . S
C93 O91 1.234 . S
C94 C95 1.391 . S
C94 C96 1.394 . S
C94 H110 0.931 . S
C95 C94 1.391 . S
C95 C99 1.376 . S
C96 C94 1.394 . S
C96 C97 1.369 . S
C96 C100 1.531 . S
C97 C96 1.369 . S
C97 C98 1.410 . S
C97 C105 1.503 . S
C98 C97 1.410 . S
C98 C99 1.392 . S
C98 C101 1.511 . S
C99 C95 1.376 . S
C99 C98 1.392 . S
C99 H111 0.929 . S
C100 C96 1.531 . S
C100 H112 0.960 . S
C100 H113 0.962 . S
C100 H114 0.960 . S
C101 C98 1.511 . S
C101 H115 0.961 1_455 S
C101 H116 0.961 . S
C101 H117 0.961 1_455 S
C102 C103 1.370 . S
C102 C104 1.363 . S
C102 H118 0.931 . S
C103 C102 1.370 . S
C103 C107 1.408 . S
C104 C102 1.363 . S
C104 C105 1.370 . S
C104 C108 1.524 . S
C105 C97 1.503 . S
C105 C104 1.370 . S
C105 C106 1.403 . S
C106 C105 1.403 . S
C106 C107 1.404 . S
C106 C109 1.539 . S
C107 C103 1.408 . S
C107 C106 1.404 . S
C107 H119 0.930 . S
C108 C104 1.524 . S
C108 H120 0.956 . S
C108 H121 0.961 . S
C108 H122 0.961 . S
C109 C106 1.539 . S
C109 H123 0.958 . S
C109 H124 0.961 . S
C109 H125 0.960 . S
H110 C94 0.931 . S
H111 C99 0.929 . S
H112 C100 0.960 . S
H113 C100 0.962 . S
H114 C100 0.960 . S
H115 C101 0.961 1_655 S
H116 C101 0.961 . S
H117 C101 0.961 1_655 S
H118 C102 0.931 . S
H119 C107 0.930 . S
H120 C108 0.956 . S
H121 C108 0.961 . S
H122 C108 0.961 . S
H123 C109 0.958 . S
H124 C109 0.961 . S
H125 C109 0.960 . S
C126 C127 1.384 1_455 S
C126 C128 1.394 . S
C126 H142 0.931 . S
C127 C126 1.384 1_655 S
C127 C131 1.382 . S
C128 C126 1.394 . S
C128 C129 1.369 . S
C128 C132 1.531 . S
C129 C128 1.369 . S
C129 C130 1.410 1_455 S
C129 C137 1.503 . S
C130 C129 1.410 1_655 S
C130 C131 1.392 . S
C130 C133 1.511 . S
C131 C127 1.382 . S
C131 C130 1.392 . S
C131 H143 0.929 . S
C132 C128 1.531 . S
C132 H144 0.960 . S
C132 H145 0.962 . S
C132 H146 0.960 . S
C133 C130 1.511 . S
C133 H147 0.961 . S
C133 H148 0.961 . S
C133 H149 0.961 . S
C134 C135 1.370 . S
C134 C136 1.363 . S
C134 H150 0.931 . S
C135 C134 1.370 . S
C135 C139 1.408 . S
C136 C134 1.363 . S
C136 C137 1.370 . S
C136 C140 1.524 . S
C137 C129 1.503 . S
C137 C136 1.370 . S
C137 C138 1.404 . S
C138 C137 1.404 . S
C138 C139 1.405 . S
C138 C141 1.537 1_455 S
C139 C135 1.408 . S
C139 C138 1.405 . S
C139 H151 0.930 1_455 S
C140 C136 1.524 . S
C140 H152 0.956 . S
C140 H153 0.961 . S
C140 H154 0.961 . S
C141 C138 1.537 1_655 S
C141 H155 0.947 1_655 S
C141 H156 0.961 . S
C141 H157 0.960 . S
H142 C126 0.931 . S
H143 C131 0.929 . S
H144 C132 0.960 . S
H145 C132 0.962 . S
H146 C132 0.960 . S
H147 C133 0.961 . S
H148 C133 0.961 . S
H149 C133 0.961 . S
H150 C134 0.931 . S
H151 C139 0.930 1_655 S
H152 C140 0.956 . S
H153 C140 0.961 . S
H154 C140 0.961 . S
H155 C141 0.947 1_455 S
H156 C141 0.961 . S
H157 C141 0.960 . S
C158 C159 1.391 . S
C158 C160 1.394 . S
C158 H174 0.931 . S
C159 C158 1.391 . S
C159 C163 1.376 . S
C160 C158 1.394 . S
C160 C161 1.369 . S
C160 C164 1.531 . S
C161 C160 1.369 . S
C161 C162 1.410 . S
C161 C169 1.503 . S
C162 C161 1.410 . S
C162 C163 1.392 . S
C162 C165 1.511 . S
C163 C159 1.376 . S
C163 C162 1.392 . S
C163 H175 0.929 . S
C164 C160 1.531 . S
C164 H176 0.960 . S
C164 H177 0.962 . S
C164 H178 0.960 . S
C165 C162 1.511 . S
C165 H179 0.961 . S
C165 H180 0.961 . S
C165 H181 0.961 . S
C166 C167 1.370 . S
C166 C168 1.363 . S
C166 H182 0.931 . S
C167 C166 1.370 . S
C167 C171 1.408 . S
C168 C166 1.363 . S
C168 C169 1.370 . S
C168 C172 1.524 . S
C169 C161 1.503 . S
C169 C168 1.370 . S
C169 C170 1.403 . S
C170 C169 1.403 . S
C170 C171 1.404 . S
C170 C173 1.539 . S
C171 C167 1.408 . S
C171 C170 1.404 . S
C171 H183 0.930 . S
C172 C168 1.524 . S
C172 H184 0.956 . S
C172 H185 0.961 . S
C172 H186 0.961 . S
C173 C170 1.539 . S
C173 H187 0.958 . S
C173 H188 0.961 . S
C173 H189 0.960 . S
H174 C158 0.931 . S
H175 C163 0.929 . S
H176 C164 0.960 . S
H177 C164 0.962 . S
H178 C164 0.960 . S
H179 C165 0.961 . S
H180 C165 0.961 . S
H181 C165 0.961 . S
H182 C166 0.931 . S
H183 C171 0.930 . S
H184 C172 0.956 . S
H185 C172 0.961 . S
H186 C172 0.961 . S
H187 C173 0.958 . S
H188 C173 0.961 . S
H189 C173 0.960 . S
C190 C191 1.391 . S
C190 C192 1.394 . S
C190 H206 0.931 . S
C191 C190 1.391 . S
C191 C195 1.376 . S
C192 C190 1.394 . S
C192 C193 1.369 . S
C192 C196 1.531 . S
C193 C192 1.369 . S
C193 C194 1.410 . S
C193 C201 1.503 . S
C194 C193 1.410 . S
C194 C195 1.392 . S
C194 C197 1.511 . S
C195 C191 1.376 . S
C195 C194 1.392 . S
C195 H207 0.929 . S
C196 C192 1.531 . S
C196 H208 0.960 . S
C196 H209 0.962 . S
C196 H210 0.960 . S
C197 C194 1.511 . S
C197 H211 0.961 . S
C197 H212 0.961 . S
C197 H213 0.961 . S
C198 C199 1.370 . S
C198 C200 1.363 . S
C198 H214 0.931 . S
C199 C198 1.370 . S
C199 C203 1.408 . S
C200 C198 1.363 . S
C200 C201 1.370 . S
C200 C204 1.524 . S
C201 C193 1.503 . S
C201 C200 1.370 . S
C201 C202 1.403 . S
C202 C201 1.403 . S
C202 C203 1.404 . S
C202 C205 1.539 . S
C203 C199 1.408 . S
C203 C202 1.404 . S
C203 H215 0.930 . S
C204 C200 1.524 . S
C204 H216 0.956 . S
C204 H217 0.961 . S
C204 H218 0.961 . S
C205 C202 1.539 . S
C205 H219 0.958 . S
C205 H220 0.961 . S
C205 H221 0.960 . S
H206 C190 0.931 . S
H207 C195 0.929 . S
H208 C196 0.960 . S
H209 C196 0.962 . S
H210 C196 0.960 . S
H211 C197 0.961 . S
H212 C197 0.961 . S
H213 C197 0.961 . S
H214 C198 0.931 . S
H215 C203 0.930 . S
H216 C204 0.956 . S
H217 C204 0.961 . S
H218 C204 0.961 . S
H219 C205 0.958 . S
H220 C205 0.961 . S
H221 C205 0.960 . S
C222 C223 1.391 . S
C222 C224 1.394 . S
C222 H238 0.931 . S
C223 C222 1.391 . S
C223 C227 1.376 1_556 S
C224 C222 1.394 . S
C224 C225 1.369 . S
C224 C228 1.531 . S
C225 C224 1.369 . S
C225 C226 1.410 . S
C225 C233 1.503 . S
C226 C225 1.410 . S
C226 C227 1.392 1_556 S
C226 C229 1.511 . S
C227 C223 1.376 1_554 S
C227 C226 1.392 1_554 S
C227 H239 0.929 . S
C228 C224 1.531 . S
C228 H240 0.960 . S
C228 H241 0.962 . S
C228 H242 0.960 . S
C229 C226 1.511 . S
C229 H243 0.961 1_556 S
C229 H244 0.961 . S
C229 H245 0.961 . S
C230 C231 1.370 . S
C230 C232 1.363 . S
C230 H246 0.931 . S
C231 C230 1.370 . S
C231 C235 1.408 . S
C232 C230 1.363 . S
C232 C233 1.370 . S
C232 C236 1.524 1_556 S
C233 C225 1.503 . S
C233 C232 1.370 . S
C233 C234 1.403 . S
C234 C233 1.403 . S
C234 C235 1.404 . S
C234 C237 1.539 . S
C235 C231 1.408 . S
C235 C234 1.404 . S
C235 H247 0.930 . S
C236 C232 1.524 1_554 S
C236 H248 0.956 . S
C236 H249 0.961 . S
C236 H250 0.961 . S
C237 C234 1.539 . S
C237 H251 0.958 . S
C237 H252 0.961 . S
C237 H253 0.960 . S
H238 C222 0.931 . S
H239 C227 0.929 . S
H240 C228 0.960 . S
H241 C228 0.962 . S
H242 C228 0.960 . S
H243 C229 0.961 1_554 S
H244 C229 0.961 . S
H245 C229 0.961 . S
H246 C230 0.931 . S
H247 C235 0.930 . S
H248 C236 0.956 . S
H249 C236 0.961 . S
H250 C236 0.961 . S
H251 C237 0.958 . S
H252 C237 0.961 . S
H253 C237 0.960 . S
C254 C255 1.391 . S
C254 C256 1.394 . S
C254 H270 0.931 . S
C255 C254 1.391 . S
C255 C259 1.376 1_554 S
C256 C254 1.394 . S
C256 C257 1.369 1_554 S
C256 C260 1.531 . S
C257 C256 1.369 1_556 S
C257 C258 1.410 . S
C257 C265 1.503 . S
C258 C257 1.410 . S
C258 C259 1.392 . S
C258 C261 1.511 . S
C259 C255 1.376 1_556 S
C259 C258 1.392 . S
C259 H271 0.929 . S
C260 C256 1.531 . S
C260 H272 0.960 . S
C260 H273 0.962 . S
C260 H274 0.960 . S
C261 C258 1.511 . S
C261 H275 0.961 . S
C261 H276 0.961 . S
C261 H277 0.961 . S
C262 C263 1.370 . S
C262 C264 1.363 . S
C262 H278 0.931 . S
C263 C262 1.370 . S
C263 C267 1.408 . S
C264 C262 1.363 . S
C264 C265 1.370 . S
C264 C268 1.524 . S
C265 C257 1.503 . S
C265 C264 1.370 . S
C265 C266 1.403 . S
C266 C265 1.403 . S
C266 C267 1.404 . S
C266 C269 1.539 . S
C267 C263 1.408 . S
C267 C266 1.404 . S
C267 H279 0.930 . S
C268 C264 1.524 . S
C268 H280 0.956 . S
C268 H281 0.961 . S
C268 H282 0.961 . S
C269 C266 1.539 . S
C269 H283 0.958 . S
C269 H284 0.961 . S
C269 H285 0.960 . S
H270 C254 0.931 . S
H271 C259 0.929 . S
H272 C260 0.960 . S
H273 C260 0.962 . S
H274 C260 0.960 . S
H275 C261 0.961 . S
H276 C261 0.961 . S
H277 C261 0.961 . S
H278 C262 0.931 . S
H279 C267 0.930 . S
H280 C268 0.956 . S
H281 C268 0.961 . S
H282 C268 0.961 . S
H283 C269 0.958 . S
H284 C269 0.961 . S
H285 C269 0.960 . S
C286 C287 1.391 1_655 S
C286 C288 1.395 . S
C286 H302 0.929 1_556 S
C287 C286 1.391 1_455 S
C287 C291 1.376 . S
C288 C286 1.395 . S
C288 C289 1.369 . S
C288 C292 1.531 . S
C289 C288 1.369 . S
C289 C290 1.410 1_655 S
C289 C297 1.503 . S
C290 C289 1.410 1_455 S
C290 C291 1.392 . S
C290 C293 1.511 . S
C291 C287 1.376 . S
C291 C290 1.392 . S
C291 H303 0.929 . S
C292 C288 1.531 . S
C292 H304 0.960 . S
C292 H305 0.962 . S
C292 H306 0.960 1_556 S
C293 C290 1.511 . S
C293 H307 0.961 . S
C293 H308 0.961 1_455 S
C293 H309 0.961 . S
C294 C295 1.370 . S
C294 C296 1.363 . S
C294 H310 0.931 . S
C295 C294 1.370 . S
C295 C299 1.408 . S
C296 C294 1.363 . S
C296 C297 1.370 . S
C296 C300 1.524 . S
C297 C289 1.503 . S
C297 C296 1.370 . S
C297 C298 1.403 . S
C298 C297 1.403 . S
C298 C299 1.404 . S
C298 C301 1.539 . S
C299 C295 1.408 . S
C299 C298 1.404 . S
C299 H311 0.930 . S
C300 C296 1.524 . S
C300 H312 0.956 . S
C300 H313 0.961 . S
C300 H314 0.961 . S
C301 C298 1.539 . S
C301 H315 0.958 1_556 S
C301 H316 0.961 . S
C301 H317 0.960 . S
H302 C286 0.929 1_554 S
H303 C291 0.929 . S
H304 C292 0.960 . S
H305 C292 0.962 . S
H306 C292 0.960 1_554 S
H307 C293 0.961 . S
H308 C293 0.961 1_655 S
H309 C293 0.961 . S
H310 C294 0.931 . S
H311 C299 0.930 . S
H312 C300 0.956 . S
H313 C300 0.961 . S
H314 C300 0.961 . S
H315 C301 0.958 1_554 S
H316 C301 0.961 . S
H317 C301 0.960 . S
C318 C319 1.391 . S
C318 C320 1.394 . S
C318 H334 0.931 . S
C319 C318 1.391 . S
C319 C323 1.376 1_556 S
C320 C318 1.394 . S
C320 C321 1.369 . S
C320 C324 1.531 . S
C321 C320 1.369 . S
C321 C322 1.410 . S
C321 C329 1.503 . S
C322 C321 1.410 . S
C322 C323 1.392 1_556 S
C322 C325 1.511 1_556 S
C323 C319 1.376 1_554 S
C323 C322 1.392 1_554 S
C323 H335 0.929 . S
C324 C320 1.531 . S
C324 H336 0.960 . S
C324 H337 0.962 . S
C324 H338 0.960 . S
C325 C322 1.511 1_554 S
C325 H339 0.961 . S
C325 H340 0.961 1_554 S
C325 H341 0.961 1_554 S
C326 C327 1.370 . S
C326 C328 1.363 . S
C326 H342 0.931 . S
C327 C326 1.370 . S
C327 C331 1.408 . S
C328 C326 1.363 . S
C328 C329 1.370 . S
C328 C332 1.524 . S
C329 C321 1.503 . S
C329 C328 1.370 . S
C329 C330 1.403 . S
C330 C329 1.403 . S
C330 C331 1.404 . S
C330 C333 1.539 . S
C331 C327 1.408 . S
C331 C330 1.404 . S
C331 H343 0.930 . S
C332 C328 1.524 . S
C332 H344 0.956 . S
C332 H345 0.961 . S
C332 H346 0.961 . S
C333 C330 1.539 . S
C333 H347 0.958 . S
C333 H348 0.961 . S
C333 H349 0.960 . S
H334 C318 0.931 . S
H335 C323 0.929 . S
H336 C324 0.960 . S
H337 C324 0.962 . S
H338 C324 0.960 . S
H339 C325 0.961 . S
H340 C325 0.961 1_556 S
H341 C325 0.961 1_556 S
H342 C326 0.931 . S
H343 C331 0.930 . S
H344 C332 0.956 . S
H345 C332 0.961 . S
H346 C332 0.961 . S
H347 C333 0.958 . S
H348 C333 0.961 . S
H349 C333 0.960 . S
C350 C351 1.391 . S
C350 C352 1.394 . S
C350 H366 0.931 . S
C351 C350 1.391 . S
C351 C355 1.376 . S
C352 C350 1.394 . S
C352 C353 1.369 . S
C352 C356 1.531 . S
C353 C352 1.369 . S
C353 C354 1.410 . S
C353 C361 1.503 . S
C354 C353 1.410 . S
C354 C355 1.392 . S
C354 C357 1.511 . S
C355 C351 1.376 . S
C355 C354 1.392 . S
C355 H367 0.929 . S
C356 C352 1.531 . S
C356 H368 0.960 . S
C356 H369 0.962 . S
C356 H370 0.960 . S
C357 C354 1.511 . S
C357 H371 0.961 . S
C357 H372 0.961 . S
C357 H373 0.961 . S
C358 C359 1.370 . S
C358 C360 1.363 . S
C358 H374 0.931 . S
C359 C358 1.370 . S
C359 C363 1.408 . S
C360 C358 1.363 . S
C360 C361 1.370 . S
C360 C364 1.524 . S
C361 C353 1.503 . S
C361 C360 1.370 . S
C361 C362 1.403 . S
C362 C361 1.403 . S
C362 C363 1.404 . S
C362 C365 1.539 . S
C363 C359 1.408 . S
C363 C362 1.404 . S
C363 H375 0.930 . S
C364 C360 1.524 . S
C364 H376 0.956 . S
C364 H377 0.961 . S
C364 H378 0.961 . S
C365 C362 1.539 . S
C365 H379 0.958 . S
C365 H380 0.961 . S
C365 H381 0.960 . S
H366 C350 0.931 . S
H367 C355 0.929 . S
H368 C356 0.960 . S
H369 C356 0.962 . S
H370 C356 0.960 . S
H371 C357 0.961 . S
H372 C357 0.961 . S
H373 C357 0.961 . S
H374 C358 0.931 . S
H375 C363 0.930 . S
H376 C364 0.956 . S
H377 C364 0.961 . S
H378 C364 0.961 . S
H379 C365 0.958 . S
H380 C365 0.961 . S
H381 C365 0.960 . S
C382 C383 1.391 . S
C382 C384 1.394 . S
C382 H398 0.931 . S
C383 C382 1.391 . S
C383 C387 1.376 . S
C384 C382 1.394 . S
C384 C385 1.369 . S
C384 C388 1.531 . S
C385 C384 1.369 . S
C385 C386 1.410 . S
C385 C393 1.503 . S
C386 C385 1.410 . S
C386 C387 1.392 . S
C386 C389 1.511 . S
C387 C383 1.376 . S
C387 C386 1.392 . S
C387 H399 0.929 . S
C388 C384 1.531 . S
C388 H400 0.960 . S
C388 H401 0.962 . S
C388 H402 0.960 . S
C389 C386 1.511 . S
C389 H403 0.961 . S
C389 H404 0.961 . S
C389 H405 0.961 . S
C390 C391 1.370 . S
C390 C392 1.363 . S
C390 H406 0.931 . S
C391 C390 1.370 . S
C391 C395 1.408 . S
C392 C390 1.363 . S
C392 C393 1.370 . S
C392 C396 1.524 . S
C393 C385 1.503 . S
C393 C392 1.370 . S
C393 C394 1.403 . S
C394 C393 1.403 . S
C394 C395 1.404 . S
C394 C397 1.539 . S
C395 C391 1.408 . S
C395 C394 1.404 . S
C395 H407 0.930 . S
C396 C392 1.524 . S
C396 H408 0.956 . S
C396 H409 0.961 . S
C396 H410 0.961 . S
C397 C394 1.539 . S
C397 H411 0.958 . S
C397 H412 0.961 . S
C397 H413 0.960 . S
H398 C382 0.931 . S
H399 C387 0.929 . S
H400 C388 0.960 . S
H401 C388 0.962 . S
H402 C388 0.960 . S
H403 C389 0.961 . S
H404 C389 0.961 . S
H405 C389 0.961 . S
H406 C390 0.931 . S
H407 C395 0.930 . S
H408 C396 0.956 . S
H409 C396 0.961 . S
H410 C396 0.961 . S
H411 C397 0.958 . S
H412 C397 0.961 . S
H413 C397 0.960 . S
C414 C415 1.391 . S
C414 C416 1.394 . S
C414 H430 0.931 . S
C415 C414 1.391 . S
C415 C419 1.376 . S
C416 C414 1.394 . S
C416 C417 1.369 . S
C416 C420 1.531 . S
C417 C416 1.369 . S
C417 C418 1.410 . S
C417 C425 1.503 . S
C418 C417 1.410 . S
C418 C419 1.392 . S
C418 C421 1.511 . S
C419 C415 1.376 . S
C419 C418 1.392 . S
C419 H431 0.929 . S
C420 C416 1.531 . S
C420 H432 0.960 . S
C420 H433 0.962 . S
C420 H434 0.960 . S
C421 C418 1.511 . S
C421 H435 0.961 . S
C421 H436 0.961 . S
C421 H437 0.961 . S
C422 C423 1.370 . S
C422 C424 1.363 . S
C422 H438 0.931 . S
C423 C422 1.370 . S
C423 C427 1.408 . S
C424 C422 1.363 . S
C424 C425 1.370 . S
C424 C428 1.524 . S
C425 C417 1.503 . S
C425 C424 1.370 . S
C425 C426 1.403 . S
C426 C425 1.403 . S
C426 C427 1.404 . S
C426 C429 1.539 . S
C427 C423 1.408 . S
C427 C426 1.404 . S
C427 H439 0.930 . S
C428 C424 1.524 . S
C428 H440 0.956 . S
C428 H441 0.961 . S
C428 H442 0.961 . S
C429 C426 1.539 . S
C429 H443 0.958 . S
C429 H444 0.961 . S
C429 H445 0.960 . S
H430 C414 0.931 . S
H431 C419 0.929 . S
H432 C420 0.960 . S
H433 C420 0.962 . S
H434 C420 0.960 . S
H435 C421 0.961 . S
H436 C421 0.961 . S
H437 C421 0.961 . S
H438 C422 0.931 . S
H439 C427 0.930 . S
H440 C428 0.956 . S
H441 C428 0.961 . S
H442 C428 0.961 . S
H443 C429 0.958 . S
H444 C429 0.961 . S
H445 C429 0.960 . S
C446 C447 1.391 . S
C446 C448 1.394 . S
C446 H462 0.931 . S
C447 C446 1.391 . S
C447 C451 1.376 . S
C448 C446 1.394 . S
C448 C449 1.369 . S
C448 C452 1.531 . S
C449 C448 1.369 . S
C449 C450 1.410 . S
C449 C457 1.503 . S
C450 C449 1.410 . S
C450 C451 1.392 . S
C450 C453 1.511 . S
C451 C447 1.376 . S
C451 C450 1.392 . S
C451 H463 0.929 . S
C452 C448 1.531 . S
C452 H464 0.960 . S
C452 H465 0.962 . S
C452 H466 0.960 . S
C453 C450 1.511 . S
C453 H467 0.961 . S
C453 H468 0.961 . S
C453 H469 0.961 . S
C454 C455 1.370 . S
C454 C456 1.363 . S
C454 H470 0.931 . S
C455 C454 1.370 . S
C455 C459 1.408 . S
C456 C454 1.363 . S
C456 C457 1.370 . S
C456 C460 1.524 . S
C457 C449 1.503 . S
C457 C456 1.370 . S
C457 C458 1.403 . S
C458 C457 1.403 . S
C458 C459 1.404 . S
C458 C461 1.539 . S
C459 C455 1.408 . S
C459 C458 1.404 . S
C459 H471 0.930 . S
C460 C456 1.524 . S
C460 H472 0.956 . S
C460 H473 0.961 . S
C460 H474 0.961 . S
C461 C458 1.539 . S
C461 H475 0.958 . S
C461 H476 0.961 . S
C461 H477 0.960 . S
H462 C446 0.931 . S
H463 C451 0.929 . S
H464 C452 0.960 . S
H465 C452 0.962 . S
H466 C452 0.960 . S
H467 C453 0.961 . S
H468 C453 0.961 . S
H469 C453 0.961 . S
H470 C454 0.931 . S
H471 C459 0.930 . S
H472 C460 0.956 . S
H473 C460 0.961 . S
H474 C460 0.961 . S
H475 C461 0.958 . S
H476 C461 0.961 . S
H477 C461 0.960 . S
C103 C59 1.367 . S
C95 N2 1.502 . S
C135 C55 1.413 . S
C127 N15 1.521 . S
C167 C80 1.369 . S
C159 N28 1.501 . S
C191 N41 1.519 . S
C199 C76 1.408 . S
C223 N5 1.290 1_556 S
C231 C77 1.136 . S
C263 C92 1.130 . S
C255 N14 1.289 . S
C287 N1 1.735 1_556 S
C295 C93 1.599 . S
C327 C89 1.592 . S
C319 N18 1.744 1_556 S
C359 C56 1.112 1_655 S
C351 N31 1.290 . S
C383 N40 1.267 . S
C391 C71 1.181 . S
C423 C72 1.583 . S
C415 N27 1.739 . S
C455 C68 1.625 . S
C447 N44 1.746 . S
