# Generated by pormake.
# Topology pyr, (3,6)-cn, num edge types: 1
# Building blocks:
#     Node 0, Type 0, BuildingBlock: MIDCAF_clean_linker_0, # of connection points: 3
#     Node 1, Type 0, BuildingBlock: MIDCAF_clean_linker_0, # of connection points: 3
#     Node 2, Type 0, BuildingBlock: MIDCAF_clean_linker_0, # of connection points: 3
#     Node 3, Type 0, BuildingBlock: MIDCAF_clean_linker_0, # of connection points: 3
#     Node 4, Type 0, BuildingBlock: MIDCAF_clean_linker_0, # of connection points: 3
#     Node 5, Type 0, BuildingBlock: MIDCAF_clean_linker_0, # of connection points: 3
#     Node 6, Type 0, BuildingBlock: MIDCAF_clean_linker_0, # of connection points: 3
#     Node 7, Type 0, BuildingBlock: MIDCAF_clean_linker_0, # of connection points: 3
#     Node 8, Type 1, BuildingBlock: FUNLAD_clean_sbu_0, # of connection points: 6
#     Node 9, Type 1, BuildingBlock: FUNLAD_clean_sbu_0, # of connection points: 6
#     Node 10, Type 1, BuildingBlock: FUNLAD_clean_sbu_0, # of connection points: 6
#     Node 11, Type 1, BuildingBlock: FUNLAD_clean_sbu_0, # of connection points: 6
#     Edge 12, Type (0, 1), BuildingBlock: CIFDUS_clean_linker_0, # of connection points: 2
#     Edge 13, Type (0, 1), BuildingBlock: CIFDUS_clean_linker_0, # of connection points: 2
#     Edge 14, Type (0, 1), BuildingBlock: CIFDUS_clean_linker_0, # of connection points: 2
#     Edge 15, Type (0, 1), BuildingBlock: CIFDUS_clean_linker_0, # of connection points: 2
#     Edge 16, Type (0, 1), BuildingBlock: CIFDUS_clean_linker_0, # of connection points: 2
#     Edge 17, Type (0, 1), BuildingBlock: CIFDUS_clean_linker_0, # of connection points: 2
#     Edge 18, Type (0, 1), BuildingBlock: CIFDUS_clean_linker_0, # of connection points: 2
#     Edge 19, Type (0, 1), BuildingBlock: CIFDUS_clean_linker_0, # of connection points: 2
#     Edge 20, Type (0, 1), BuildingBlock: CIFDUS_clean_linker_0, # of connection points: 2
#     Edge 21, Type (0, 1), BuildingBlock: CIFDUS_clean_linker_0, # of connection points: 2
#     Edge 22, Type (0, 1), BuildingBlock: CIFDUS_clean_linker_0, # of connection points: 2
#     Edge 23, Type (0, 1), BuildingBlock: CIFDUS_clean_linker_0, # of connection points: 2
#     Edge 24, Type (0, 1), BuildingBlock: CIFDUS_clean_linker_0, # of connection points: 2
#     Edge 25, Type (0, 1), BuildingBlock: CIFDUS_clean_linker_0, # of connection points: 2
#     Edge 26, Type (0, 1), BuildingBlock: CIFDUS_clean_linker_0, # of connection points: 2
#     Edge 27, Type (0, 1), BuildingBlock: CIFDUS_clean_linker_0, # of connection points: 2
#     Edge 28, Type (0, 1), BuildingBlock: CIFDUS_clean_linker_0, # of connection points: 2
#     Edge 29, Type (0, 1), BuildingBlock: CIFDUS_clean_linker_0, # of connection points: 2
#     Edge 30, Type (0, 1), BuildingBlock: CIFDUS_clean_linker_0, # of connection points: 2
#     Edge 31, Type (0, 1), BuildingBlock: CIFDUS_clean_linker_0, # of connection points: 2
#     Edge 32, Type (0, 1), BuildingBlock: CIFDUS_clean_linker_0, # of connection points: 2
#     Edge 33, Type (0, 1), BuildingBlock: CIFDUS_clean_linker_0, # of connection points: 2
#     Edge 34, Type (0, 1), BuildingBlock: CIFDUS_clean_linker_0, # of connection points: 2
#     Edge 35, Type (0, 1), BuildingBlock: CIFDUS_clean_linker_0, # of connection points: 2
# Relax obj value: 0.068
# Max RMSD: 0.068
# Mean RMSD: 0.030
data_MOF--net-pry--node1-FUNLAD_clean_sbu_0--node2-MIDCAF_clean_linker_0--edge1-CIFDUS_clean_linker_0
_symmetry_space_group_name_H-M    P1
_symmetry_Int_Tables_number       1
_symmetry_cell_setting            triclinic
loop_
_symmetry_equiv_pos_as_xyz
'x, y, z'
_cell_length_a     39.294653
_cell_length_b     41.909582
_cell_length_c     42.027042
_cell_angle_alpha  90.159787
_cell_angle_beta   90.237375
_cell_angle_gamma 85.044602
loop_
_atom_site_label
_atom_site_type_symbol
_atom_site_fract_x
_atom_site_fract_y
_atom_site_fract_z
_atom_type_partial_charge
C0 C 0.08934 0.14151 0.29062 0.0
C1 C 0.10032 0.10947 0.29819 0.0
C2 C 0.12466 0.09314 0.27819 0.0
C3 C 0.13755 0.10814 0.25156 0.0
H4 H 0.2065 0.09026 0.1783 0.0
H5 H 0.25715 0.0634 0.15387 0.0
H6 H 0.27952 0.15268 0.11062 0.0
H7 H 0.22769 0.179 0.13373 0.0
H8 H 0.13725 0.21479 0.11356 0.0
H9 H 0.11131 0.26378 0.08982 0.0
H10 H 0.08089 0.29863 0.18339 0.0
H11 H 0.10468 0.24832 0.2065 0.0
H12 H 0.09278 0.18107 0.25852 0.0
H13 H 0.07048 0.15487 0.30529 0.0
H14 H 0.13417 0.06865 0.28332 0.0
H15 H 0.15625 0.09444 0.23701 0.0
N16 N 0.16828 0.14053 0.19982 0.0
N17 N 0.16698 0.18145 0.16181 0.0
N18 N 0.12624 0.1839 0.20294 0.0
C19 C 0.18185 0.15335 0.17354 0.0
C20 C 0.13916 0.19691 0.17617 0.0
C21 C 0.14061 0.15545 0.21484 0.0
C22 C 0.21283 0.13689 0.15808 0.0
C23 C 0.22214 0.10417 0.16347 0.0
C24 C 0.25155 0.08876 0.14955 0.0
C25 C 0.27309 0.10565 0.1302 0.0
C26 C 0.2636 0.13844 0.12477 0.0
C27 C 0.23382 0.15373 0.13827 0.0
C28 C 0.12301 0.22739 0.16202 0.0
C29 C 0.12484 0.2329 0.12906 0.0
C30 C 0.1101 0.26143 0.1154 0.0
C31 C 0.0937 0.28603 0.13429 0.0
C32 C 0.0923 0.28047 0.16747 0.0
C33 C 0.10627 0.2515 0.181 0.0
C34 C 0.1264 0.14004 0.24365 0.0
C35 C 0.10201 0.15651 0.26362 0.0
C36 C 0.26378 0.94008 0.6518 0.0
C37 C 0.24164 0.92389 0.63216 0.0
C38 C 0.25043 0.89116 0.62584 0.0
C39 C 0.28026 0.87526 0.63863 0.0
H40 H 0.38001 0.82145 0.60805 0.0
H41 H 0.40243 0.7743 0.57906 0.0
H42 H 0.42867 0.72642 0.66798 0.0
H43 H 0.40804 0.77509 0.69694 0.0
H44 H 0.42701 0.8419 0.75219 0.0
H45 H 0.44937 0.86326 0.80152 0.0
H46 H 0.37776 0.94694 0.79335 0.0
H47 H 0.35578 0.92599 0.7441 0.0
H48 H 0.30946 0.93729 0.68016 0.0
H49 H 0.25866 0.96538 0.6568 0.0
H50 H 0.23399 0.87744 0.61149 0.0
H51 H 0.28594 0.85006 0.63334 0.0
N52 N 0.34794 0.84727 0.65892 0.0
N53 N 0.38939 0.84181 0.69958 0.0
N54 N 0.34696 0.88506 0.70012 0.0
C55 C 0.37606 0.83094 0.67187 0.0
C56 C 0.37499 0.86914 0.7138 0.0
C57 C 0.3331 0.87421 0.67289 0.0
C58 C 0.39197 0.80207 0.65488 0.0
C59 C 0.39076 0.80093 0.62147 0.0
C60 C 0.4034 0.77351 0.60478 0.0
C61 C 0.41688 0.74571 0.62085 0.0
C62 C 0.41882 0.74714 0.65444 0.0
C63 C 0.40684 0.77507 0.67119 0.0
C64 C 0.38942 0.88202 0.7439 0.0
C65 C 0.41608 0.8649 0.7608 0.0
C66 C 0.42881 0.87713 0.78928 0.0
C67 C 0.41546 0.90695 0.80165 0.0
C68 C 0.38909 0.92416 0.78453 0.0
C69 C 0.37626 0.9119 0.75623 0.0
C70 C 0.3019 0.89139 0.65865 0.0
C71 C 0.29323 0.924 0.66511 0.0
C72 C 0.60317 0.34306 0.99802 0.0
C73 C 0.57403 0.33189 0.98378 0.0
C74 C 0.55043 0.3538 0.96845 0.0
C75 C 0.55736 0.38568 0.96494 0.0
H76 H 0.53359 0.45944 0.90239 0.0
H77 H 0.51414 0.46625 0.84762 0.0
H78 H 0.60894 0.50495 0.82317 0.0
H79 H 0.6288 0.49772 0.87799 0.0
H80 H 0.68734 0.49734 0.92997 0.0
H81 H 0.7457 0.5067 0.94502 0.0
H82 H 0.73427 0.45626 0.03324 0.0
H83 H 0.67593 0.44693 0.01844 0.0
H84 H 0.63383 0.38232 1.00419 0.0
H85 H 0.62143 0.32676 1.01057 0.0
H86 H 0.52772 0.34591 0.95726 0.0
H87 H 0.5396 0.4015 0.95131 0.0
N88 N 0.58404 0.44158 0.94001 0.0
N89 N 0.62743 0.47632 0.93637 0.0
N90 N 0.6291 0.43749 0.97664 0.0
C91 C 0.59759 0.46624 0.92531 0.0
C92 C 0.64302 0.46237 0.96244 0.0
C93 C 0.59953 0.427 0.96559 0.0
C94 C 0.583 0.47754 0.89444 0.0
C95 C 0.55007 0.47001 0.88552 0.0
C96 C 0.53881 0.47403 0.85415 0.0
C97 C 0.56028 0.48557 0.83105 0.0
C98 C 0.59214 0.49542 0.84045 0.0
C99 C 0.60336 0.49157 0.87191 0.0
C100 C 0.67698 0.47122 0.97292 0.0
C101 C 0.69705 0.4886 0.95277 0.0
C102 C 0.73057 0.49375 0.96124 0.0
C103 C 0.74455 0.48197 0.99017 0.0
C104 C 0.72409 0.46573 1.01086 0.0
C105 C 0.69071 0.46029 1.00228 0.0
C106 C 0.58807 0.39623 0.97664 0.0
C107 C 0.61009 0.37498 0.9946 0.0
C108 C 0.78271 0.6057 0.48851 0.0
C109 C 0.76885 0.57659 0.48211 0.0
C110 C 0.79056 0.54997 0.47252 0.0
C111 C 0.82538 0.55267 0.46832 0.0
H112 H 0.90097 0.51941 0.40289 0.0
H113 H 0.91349 0.50209 0.34848 0.0
H114 H 0.98433 0.57506 0.34 0.0
H115 H 0.97327 0.59107 0.3944 0.0
H116 H 0.98816 0.63182 0.45792 0.0
H117 H 0.00916 0.68475 0.46298 0.0
H118 H 0.91269 0.72138 0.50325 0.0
H119 H 0.89148 0.66868 0.49833 0.0
H120 H 0.82754 0.63125 0.48921 0.0
H121 H 0.76645 0.62647 0.49618 0.0
H122 H 0.78039 0.52729 0.46734 0.0
H123 H 0.84134 0.53196 0.46004 0.0
N124 N 0.89084 0.56704 0.44307 0.0
N125 N 0.93796 0.5975 0.44486 0.0
N126 N 0.8911 0.6107 0.47805 0.0
C127 C 0.92225 0.57275 0.43233 0.0
C128 C 0.92278 0.6164 0.4679 0.0
C129 C 0.87519 0.58576 0.46604 0.0
C130 C 0.9356 0.55704 0.40283 0.0
C131 C 0.91993 0.53112 0.38965 0.0
C132 C 0.92687 0.52139 0.35834 0.0
C133 C 0.94929 0.53766 0.3395 0.0
C134 C 0.96707 0.56175 0.35368 0.0
C135 C 0.96054 0.57111 0.38505 0.0
C136 C 0.93793 0.64614 0.47722 0.0
C137 C 0.97164 0.65098 0.46847 0.0
C138 C 0.98375 0.68121 0.47144 0.0
C139 C 0.96227 0.70708 0.48296 0.0
C140 C 0.92951 0.70179 0.49383 0.0
C141 C 0.91749 0.67154 0.49118 0.0
C142 C 0.83924 0.58194 0.47408 0.0
C143 C 0.81768 0.60829 0.48481 0.0
C144 C 0.76127 0.92327 0.891 0.0
C145 C 0.74041 0.90379 0.90843 0.0
C146 C 0.74886 0.87038 0.90754 0.0
C147 C 0.77761 0.8571 0.89103 0.0
H148 H 0.85542 0.78812 0.90846 0.0
H149 H 0.88151 0.73898 0.93165 0.0
H150 H 0.96138 0.73597 0.86119 0.0
H151 H 0.93465 0.78512 0.83731 0.0
H152 H 0.93644 0.85726 0.79167 0.0
H153 H 0.9559 0.88126 0.74229 0.0
H154 H 0.85341 0.92194 0.72353 0.0
H155 H 0.834 0.899 0.77311 0.0
H156 H 0.80533 0.92556 0.8611 0.0
H157 H 0.7563 0.94906 0.89118 0.0
H158 H 0.73321 0.85416 0.91951 0.0
H159 H 0.78334 0.83134 0.89142 0.0
N160 N 0.84657 0.83491 0.86993 0.0
N161 N 0.88775 0.83461 0.82955 0.0
N162 N 0.84237 0.87528 0.83123 0.0
C163 C 0.87548 0.82098 0.85627 0.0
C164 C 0.87118 0.86173 0.81672 0.0
C165 C 0.82995 0.86202 0.85788 0.0
C166 C 0.8927 0.79092 0.87071 0.0
C167 C 0.87862 0.77719 0.89776 0.0
C168 C 0.89383 0.74889 0.91139 0.0
C169 C 0.92377 0.73314 0.89856 0.0
C170 C 0.93811 0.74699 0.87166 0.0
C171 C 0.92283 0.7754 0.85796 0.0
C172 C 0.88358 0.87615 0.78663 0.0
C173 C 0.91804 0.87142 0.77713 0.0
C174 C 0.92926 0.88528 0.74891 0.0
C175 C 0.9062 0.90359 0.72909 0.0
C176 C 0.8718 0.90809 0.73836 0.0
C177 C 0.86073 0.89491 0.76686 0.0
C178 C 0.79851 0.87657 0.87402 0.0
C179 C 0.78966 0.90981 0.87377 0.0
C180 C 0.62813 0.1102 0.24559 0.0
C181 C 0.60181 0.12749 0.22843 0.0
C182 C 0.58822 0.1571 0.2411 0.0
C183 C 0.60077 0.16915 0.26975 0.0
H184 H 0.58478 0.2452 0.34093 0.0
H185 H 0.56045 0.29277 0.36991 0.0
H186 H 0.64125 0.27923 0.43968 0.0
H187 H 0.66509 0.23224 0.41148 0.0
H188 H 0.73163 0.18649 0.3956 0.0
H189 H 0.78233 0.15962 0.42005 0.0
H190 H 0.75798 0.07004 0.37796 0.0
H191 H 0.70829 0.09758 0.35199 0.0
H192 H 0.66131 0.10821 0.28618 0.0
H193 H 0.63963 0.08756 0.23661 0.0
H194 H 0.56765 0.17102 0.22892 0.0
H195 H 0.58971 0.19206 0.27847 0.0
N196 N 0.62796 0.19284 0.33039 0.0
N197 N 0.6704 0.1886 0.37005 0.0
N198 N 0.67034 0.14944 0.33023 0.0
C199 C 0.64201 0.20467 0.35735 0.0
C200 C 0.68473 0.1611 0.35687 0.0
C201 C 0.64209 0.16514 0.31659 0.0
C202 C 0.6269 0.23445 0.37375 0.0
C203 C 0.59734 0.2524 0.36243 0.0
C204 C 0.58345 0.2798 0.37902 0.0
C205 C 0.59859 0.28979 0.40746 0.0
C206 C 0.62835 0.27206 0.41834 0.0
C207 C 0.64222 0.24499 0.40185 0.0
C208 C 0.71581 0.14426 0.3717 0.0
C209 C 0.73713 0.16104 0.39149 0.0
C210 C 0.76621 0.14545 0.40583 0.0
C211 C 0.77464 0.11238 0.40136 0.0
C212 C 0.75305 0.09558 0.38167 0.0
C213 C 0.72428 0.11135 0.36681 0.0
C214 C 0.62748 0.15205 0.28661 0.0
C215 C 0.64078 0.12228 0.2741 0.0
C216 C 0.28031 0.57608 0.07106 0.0
C217 C 0.27089 0.56815 0.03982 0.0
C218 C 0.29627 0.56617 0.01608 0.0
C219 C 0.32987 0.57233 0.02337 0.0
H220 H 0.38978 0.66069 1.01322 0.0
H221 H 0.40969 0.71221 0.99947 0.0
H222 H 0.50653 0.68489 0.04508 0.0
H223 H 0.4864 0.63357 0.0595 0.0
H224 H 0.47179 0.60905 0.13166 0.0
H225 H 0.4908 0.59766 0.18599 0.0
H226 H 0.41839 0.5263 0.1938 0.0
H227 H 0.3991 0.53759 0.13939 0.0
H228 H 0.32041 0.58722 0.10272 0.0
H229 H 0.26163 0.57897 0.08992 0.0
H230 H 0.29043 0.55958 0.99189 0.0
H231 H 0.34884 0.57095 1.00467 0.0
N232 N 0.39026 0.60732 0.04473 0.0
N233 N 0.43547 0.60469 0.08143 0.0
N234 N 0.38852 0.57522 0.09033 0.0
C235 C 0.42117 0.61646 0.05398 0.0
C236 C 0.41951 0.58395 0.09965 0.0
C237 C 0.37403 0.58648 0.06273 0.0
C238 C 0.43621 0.64333 0.0381 0.0
C239 C 0.41568 0.66524 0.01953 0.0
C240 C 0.42713 0.69482 1.01158 0.0
C241 C 0.45941 0.70288 0.02185 0.0
C242 C 0.4812 0.67966 0.03757 0.0
C243 C 0.4697 0.65019 0.04568 0.0
C244 C 0.43369 0.57438 0.13121 0.0
C245 C 0.46015 0.59062 0.14472 0.0
C246 C 0.47095 0.58428 0.1759 0.0
C247 C 0.45588 0.56131 0.19405 0.0
C248 C 0.43053 0.54404 0.18019 0.0
C249 C 0.41941 0.55062 0.1491 0.0
C250 C 0.339 0.57949 0.05468 0.0
C251 C 0.31404 0.58111 0.07847 0.0
C252 C 0.10897 0.33776 0.54141 0.0
C253 C 0.07893 0.32764 0.55465 0.0
C254 C 0.05431 0.35071 0.5668 0.0
C255 C 0.06072 0.3829 0.5679 0.0
H256 H 0.04595 0.4452 0.63669 0.0
H257 H 0.03351 0.45801 0.69164 0.0
H258 H 0.09568 0.53808 0.68644 0.0
H259 H 0.10968 0.52416 0.63146 0.0
H260 H 0.18045 0.50575 0.5981 0.0
H261 H 0.24076 0.51323 0.59233 0.0
H262 H 0.24897 0.44264 0.51718 0.0
H263 H 0.18839 0.43481 0.52284 0.0
H264 H 0.13966 0.37672 0.53369 0.0
H265 H 0.12808 0.32057 0.53122 0.0
H266 H 0.03093 0.34373 0.57724 0.0
H267 H 0.04187 0.39975 0.57894 0.0
N268 N 0.08387 0.44227 0.58791 0.0
N269 N 0.12569 0.47856 0.59046 0.0
N270 N 0.13237 0.43463 0.5557 0.0
C271 C 0.0954 0.46913 0.60051 0.0
C272 C 0.14423 0.46167 0.56789 0.0
C273 C 0.10196 0.42496 0.5654 0.0
C274 C 0.07969 0.48306 0.6299 0.0
C275 C 0.05638 0.46606 0.64687 0.0
C276 C 0.04903 0.47355 0.67856 0.0
C277 C 0.06432 0.4986 0.69382 0.0
C278 C 0.0844 0.51796 0.6757 0.0
C279 C 0.09218 0.51015 0.64407 0.0
C280 C 0.17953 0.46944 0.56109 0.0
C281 C 0.19484 0.49203 0.58002 0.0
C282 C 0.22948 0.49619 0.57695 0.0
C283 C 0.2495 0.47819 0.55465 0.0
C284 C 0.23401 0.45678 0.53459 0.0
C285 C 0.19935 0.45232 0.53788 0.0
C286 C 0.09198 0.39272 0.55705 0.0
C287 C 0.11543 0.37001 0.54253 0.0
C288 C 0.0332 0.04266 0.46535 0.0
N289 N 0.01787 0.08435 0.55502 0.0
C290 C 0.04844 0.09566 0.54841 0.0
C291 C 0.05346 0.12764 0.55392 0.0
C292 C 0.02682 0.14829 0.56657 0.0
C293 C 0.99638 0.13539 0.57544 0.0
C294 C 0.99237 0.10313 0.5693 0.0
Zn295 Zn 0.00914 0.04156 0.53521 0.0
C296 C 0.94152 0.04573 0.50075 0.0
N297 N 0.99295 0.955 0.48774 0.0
C298 C 0.01844 0.93615 0.47349 0.0
C299 C 0.96139 0.94473 0.49193 0.0
C300 C 0.95478 0.91399 0.48272 0.0
C301 C 0.98101 0.89341 0.46945 0.0
C302 C 0.01303 0.90493 0.46425 0.0
Zn303 Zn 1.0018 0.99739 0.50822 0.0
O304 O 0.02997 0.05803 0.49146 0.0
C305 C 0.06959 0.99315 0.54208 0.0
O306 O 0.02387 0.01428 0.4644 0.0
H307 H 0.94168 0.95987 0.50381 0.0
H308 H 0.06822 0.08045 0.5367 0.0
H309 H 0.04334 0.94485 0.47048 0.0
O310 O 0.05864 0.0213 0.55065 0.0
O311 O 0.05109 0.97755 0.52386 0.0
H312 H 0.96822 0.09361 0.57423 0.0
O313 O 0.97964 0.98086 0.55296 0.0
O314 O 0.98856 0.02504 0.57847 0.0
O315 O 0.95304 0.01782 0.4921 0.0
O316 O 0.95926 0.06124 0.51979 0.0
C317 C 0.9781 0.99712 0.57875 0.0
H318 H 0.07717 0.13646 0.54622 0.0
H319 H 0.97537 0.15034 0.58571 0.0
H320 H 0.92992 0.90581 0.48762 0.0
H321 H 0.03383 0.88969 0.45398 0.0
C322 C 0.57324 0.99635 0.98903 0.0
N323 N 0.51806 0.08665 0.98669 0.0
C324 C 0.54798 0.09877 0.99447 0.0
C325 C 0.55191 0.1311 0.9901 0.0
C326 C 0.52493 0.15126 0.97723 0.0
C327 C 0.495 0.1377 0.96764 0.0
C328 C 0.49203 0.10513 0.97275 0.0
Zn329 Zn 0.51165 0.04199 1.00274 0.0
C330 C 0.48063 1.00026 0.95584 0.0
N331 N 0.50056 0.95008 0.04073 0.0
C332 C 0.52729 0.93131 0.05321 0.0
C333 C 0.47036 0.93803 0.03377 0.0
C334 C 0.4669 0.90547 0.03725 0.0
C335 C 0.49472 0.88517 0.04813 0.0
C336 C 0.52483 0.89851 0.0573 0.0
Zn337 Zn 0.50688 0.99487 0.02482 0.0
O338 O 0.56078 0.02503 0.98465 0.0
C339 C 0.53787 0.03645 0.07197 0.0
O340 O 0.55658 0.97793 1.00592 0.0
H341 H 0.44952 0.95336 0.02375 0.0
H342 H 0.56823 0.0837 1.00574 0.0
H343 H 0.55113 0.94143 0.05833 0.0
O344 O 0.53343 0.05513 0.0482 0.0
O345 O 0.52962 1.00784 0.06914 0.0
H346 H 0.46842 0.09493 0.96688 0.0
O347 O 0.45706 0.01267 0.04355 0.0
O348 O 0.46237 0.05849 0.01994 0.0
O349 O 0.48437 0.98197 0.97995 0.0
O350 O 0.48966 0.02864 0.95817 0.0
C351 C 0.44492 0.04113 0.03713 0.0
H352 H 0.57523 0.1404 0.9984 0.0
H353 H 0.47376 0.15225 0.95718 0.0
H354 H 0.44309 0.89605 0.03041 0.0
H355 H 0.54683 0.88351 0.06574 0.0
C356 C 0.52821 0.45949 0.48423 0.0
N357 N 0.52778 0.48964 0.58061 0.0
C358 C 0.51255 0.46514 0.59432 0.0
C359 C 0.51943 0.45709 0.62619 0.0
C360 C 0.54264 0.47407 0.64342 0.0
C361 C 0.55845 0.49859 0.62855 0.0
C362 C 0.5503 0.5063 0.59718 0.0
Zn363 Zn 0.5158 0.50645 0.53601 0.0
C364 C 0.57772 0.53233 0.5072 0.0
N365 N 0.49468 0.54846 0.44558 0.0
C366 C 0.47552 0.53016 0.4271 0.0
C367 C 0.50833 0.57464 0.43358 0.0
C368 C 0.50388 0.5825 0.40138 0.0
C369 C 0.4852 0.56319 0.38161 0.0
C370 C 0.47016 0.5373 0.39514 0.0
Zn371 Zn 0.50558 0.53159 0.49023 0.0
O372 O 0.52746 0.45982 0.51455 0.0
C373 C 0.44387 0.50497 0.51878 0.0
O374 O 0.52085 0.48564 0.4694 0.0
H375 H 0.52365 0.58874 0.44866 0.0
H376 H 0.49446 0.45244 0.58085 0.0
H377 H 0.46524 0.50919 0.43683 0.0
O378 O 0.46414 0.4971 0.5416 0.0
O379 O 0.45492 0.51896 0.49467 0.0
H380 H 0.56131 0.52639 0.58645 0.0
O381 O 0.49023 0.5772 0.51162 0.0
O382 O 0.50421 0.55347 0.55682 0.0
O383 O 0.55672 0.54413 0.48644 0.0
O384 O 0.56708 0.51549 0.52945 0.0
C385 C 0.49331 0.57867 0.54176 0.0
H386 H 0.50662 0.43818 0.63731 0.0
H387 H 0.57601 0.51247 0.64149 0.0
H388 H 0.51599 0.60265 0.39186 0.0
H389 H 0.45489 0.52221 0.38101 0.0
C390 C 0.98959 0.57333 0.99648 0.0
N391 N 0.99078 0.52895 0.08728 0.0
C392 C 1.00384 0.55401 0.10227 0.0
C393 C 1.00056 0.55762 0.13517 0.0
C394 C 0.98354 0.53532 0.15259 0.0
C395 C 0.96884 0.5107 0.13624 0.0
C396 C 0.97287 0.50788 0.10344 0.0
Zn397 Zn 1.00315 0.51823 0.04144 0.0
C398 C 0.94544 0.4944 1.00573 0.0
N399 N 0.03077 0.49301 0.94682 0.0
C400 C 0.04732 0.51509 0.9307 0.0
C401 C 0.01849 0.46766 0.93165 0.0
C402 C 0.02115 0.46477 0.89861 0.0
C403 C 0.03664 0.48817 0.88127 0.0
C404 C 0.05058 0.5131 0.89782 0.0
Zn405 Zn 0.0186 0.50345 0.99277 0.0
O406 O 0.98813 0.56703 0.0261 0.0
C407 C 0.07612 0.52753 0.02851 0.0
O408 O 1.00102 0.55116 0.97768 0.0
H409 H 1.00527 0.4505 0.94498 0.0
H410 H 0.01804 0.5704 0.08891 0.0
H411 H 0.05639 0.53535 0.94311 0.0
O412 O 0.05375 0.52974 0.05028 0.0
O413 O 0.0682 0.51786 1.00104 0.0
H414 H 0.96309 0.4879 0.09112 0.0
O415 O 0.03638 0.45559 1.00848 0.0
O416 O 0.01824 0.46955 0.05614 0.0
O417 O 0.96855 0.48941 0.98481 0.0
O418 O 0.95294 0.50652 0.03229 0.0
C419 C 0.03243 0.44836 0.03762 0.0
H420 H 0.01187 0.57718 0.14695 0.0
H421 H 0.95583 0.49282 0.14883 0.0
H422 H 0.01043 0.44496 0.8867 0.0
H423 H 0.0623 0.5319 0.88537 0.0
H424 H 0.08839 0.13273 0.35884 0.0
H425 H 0.08114 0.04813 0.30146 0.0
H426 H 0.06044 0.01984 0.3473 0.0
H427 H 0.04417 0.01877 0.40431 0.0
H428 H 0.05235 0.10354 0.46145 0.0
H429 H 0.07254 0.13162 0.41556 0.0
C430 C 0.08202 0.1082 0.35625 0.0
C431 C 0.0865 0.09276 0.32647 0.0
C432 C 0.07027 0.09182 0.38294 0.0
C433 C 0.07843 0.0607 0.32398 0.0
C434 C 0.06642 0.04444 0.35027 0.0
C435 C 0.05044 0.04334 0.40677 0.0
C436 C 0.04659 0.05877 0.43664 0.0
C437 C 0.06231 0.05966 0.38 0.0
C438 C 0.05495 0.09076 0.43903 0.0
C439 C 0.06652 0.10702 0.41265 0.0
H440 H 0.42695 0.96903 0.81712 0.0
H441 H 0.43265 0.87365 0.85634 0.0
H442 H 0.45254 0.89391 0.90702 0.0
H443 H 0.46823 0.9387 0.94066 0.0
H444 H 0.46312 0.03407 0.9015 0.0
H445 H 0.44271 0.01392 0.85084 0.0
C446 C 0.4323 0.95264 0.83678 0.0
C447 C 0.42825 0.91969 0.83258 0.0
C448 C 0.44376 0.96452 0.86611 0.0
C449 C 0.43591 0.89896 0.85844 0.0
C450 C 0.44709 0.9106 0.88763 0.0
C451 C 0.46253 0.95518 0.92112 0.0
C452 C 0.46718 0.988 0.92516 0.0
C453 C 0.45111 0.94333 0.8918 0.0
C454 C 0.45982 1.00877 0.8993 0.0
C455 C 0.44814 0.99722 0.87022 0.0
H456 H 0.60041 0.46328 0.78239 0.0
H457 H 0.49854 0.50438 0.80351 0.0
H458 H 0.48275 0.50067 0.7473 0.0
H459 H 0.49902 0.48821 0.69167 0.0
H460 H 0.60161 0.44956 0.67069 0.0
H461 H 0.6161 0.44939 0.72744 0.0
C462 C 0.57486 0.47175 0.77462 0.0
C463 C 0.5508 0.48448 0.79694 0.0
C464 C 0.56605 0.46955 0.74241 0.0
C465 C 0.51752 0.49456 0.78671 0.0
C466 C 0.50848 0.49241 0.75463 0.0
C467 C 0.52423 0.47908 0.69979 0.0
C468 C 0.54915 0.46842 0.67748 0.0
C469 C 0.53259 0.48009 0.73226 0.0
C470 C 0.58205 0.45738 0.68779 0.0
C471 C 0.59036 0.45759 0.72008 0.0
H472 H 1.00509 0.53933 0.30114 0.0
H473 H 0.89754 0.52489 0.29889 0.0
H474 H 0.89891 0.52224 0.24109 0.0
H475 H 0.92957 0.52747 0.19097 0.0
H476 H 0.03615 0.54497 0.19296 0.0
H477 H 0.03575 0.54452 0.25109 0.0
C478 C 0.98187 0.53574 0.28807 0.0
C479 C 0.9513 0.5323 0.30455 0.0
C480 C 0.98244 0.53551 0.25473 0.0
C481 C 0.92166 0.52698 0.28707 0.0
C482 C 0.92225 0.52592 0.2539 0.0
C483 C 0.95272 0.53103 0.20417 0.0
C484 C 0.98277 0.53641 0.18777 0.0
C485 C 0.95234 0.53067 0.2375 0.0
C486 C 0.01254 0.54132 0.2051 0.0
C487 C 0.01242 0.54075 0.2383 0.0
H488 H 0.30428 0.11777 0.07327 0.0
H489 H 0.31574 0.05634 0.1557 0.0
H490 H 0.36765 0.02949 0.13337 0.0
H491 H 0.41164 0.0243 0.09115 0.0
H492 H 0.40259 0.08905 1.0114 0.0
H493 H 0.34867 0.11378 0.0322 0.0
C494 C 0.31818 0.09881 0.08671 0.0
C495 C 0.30539 0.08926 0.11626 0.0
C496 C 0.34885 0.08389 0.07415 0.0
C497 C 0.32401 0.06405 0.13265 0.0
C498 C 0.35411 0.04872 0.11999 0.0
C499 C 0.39769 0.04363 0.07821 0.0
C500 C 0.41119 0.05462 0.04961 0.0
C501 C 0.3669 0.05845 0.09079 0.0
C502 C 0.39293 0.08006 0.03345 0.0
C503 C 0.36202 0.09428 0.04535 0.0
H504 H 0.20929 0.91319 0.57519 0.0
H505 H 0.20028 0.97313 0.65911 0.0
H506 H 0.14838 1.00104 0.63776 0.0
H507 H 0.10398 1.00767 0.59608 0.0
H508 H 0.10995 0.9444 0.51481 0.0
H509 H 0.16394 0.91834 0.53464 0.0
C510 C 0.19591 0.93203 0.58917 0.0
C511 C 0.20939 0.9409 0.61883 0.0
C512 C 0.16519 0.94748 0.57722 0.0
C513 C 0.19147 0.96598 0.63595 0.0
C514 C 0.16139 0.98189 0.62387 0.0
C515 C 0.11723 0.98832 0.58261 0.0
C516 C 0.10298 0.97817 0.55387 0.0
C517 C 0.14793 0.97283 0.59458 0.0
C518 C 0.12028 0.95272 0.53698 0.0
C519 C 0.15121 0.93779 0.54832 0.0
H520 H 0.7997 0.47012 0.95202 0.0
H521 H 0.77046 0.50133 0.04667 0.0
H522 H 0.83031 0.50652 0.0603 0.0
H523 H 0.89061 0.50326 0.04493 0.0
H524 H 0.91992 0.47201 0.95016 0.0
H525 H 0.8603 0.46565 0.93701 0.0
C526 C 0.80646 0.47832 0.97553 0.0
C527 C 0.78076 0.48557 0.99825 0.0
C528 C 0.84086 0.48108 0.98322 0.0
C529 C 0.78986 0.49553 0.02884 0.0
C530 C 0.82402 0.49854 0.03661 0.0
C531 C 0.88403 0.49488 0.02144 0.0
C532 C 0.90971 0.48821 0.99855 0.0
C533 C 0.84971 0.49144 0.01396 0.0
C534 C 0.90069 0.47731 0.96825 0.0
C535 C 0.86658 0.47377 0.96066 0.0
H536 H 0.7378 0.53167 0.51411 0.0
H537 H 0.71713 0.61566 0.45593 0.0
H538 H 0.65574 0.60938 0.45799 0.0
H539 H 0.60807 0.57902 0.47562 0.0
H540 H 0.62963 0.49617 0.53557 0.0
H541 H 0.69049 0.50284 0.53338 0.0
C542 C 0.71977 0.54854 0.50191 0.0
C543 C 0.73175 0.57394 0.4848 0.0
C544 C 0.68473 0.5449 0.5034 0.0
C545 C 0.7083 0.596 0.46941 0.0
C546 C 0.6733 0.59232 0.47044 0.0
C547 C 0.62616 0.56245 0.48811 0.0
C548 C 0.61441 0.53708 0.50557 0.0
C549 C 0.66123 0.5667 0.48721 0.0
C550 C 0.63803 0.51595 0.52199 0.0
C551 C 0.67286 0.51969 0.52074 0.0
H552 H 0.11141 0.31607 0.07844 0.0
H553 H 0.03947 0.32685 0.15616 0.0
H554 H 0.01537 0.37727 0.13398 0.0
H555 H 0.01403 0.41904 0.09246 0.0
H556 H 0.08176 0.40572 1.01215 0.0
H557 H 0.10703 0.3554 0.03489 0.0
C558 C 0.09007 0.32886 0.09049 0.0
C559 C 0.07802 0.31701 0.11958 0.0
C560 C 0.07514 0.35767 0.0769 0.0
C561 C 0.05052 0.3351 0.13448 0.0
C562 C 0.03622 0.36407 0.12153 0.0
C563 C 0.0342 0.40505 0.0798 0.0
C564 C 0.04594 0.41641 0.05054 0.0
C565 C 0.04835 0.3757 0.09281 0.0
C566 C 0.07199 0.39769 0.03454 0.0
C567 C 0.08661 0.36888 0.04765 0.0
H568 H 0.51618 0.30162 0.99285 0.0
H569 H 0.62299 0.28438 0.96921 0.0
H570 H 0.61656 0.22741 0.96272 0.0
H571 H 0.5808 0.18267 0.96351 0.0
H572 H 0.47456 0.19901 0.98971 0.0
H573 H 0.48021 0.25638 0.99381 0.0
C574 C 0.538 0.28535 0.98627 0.0
C575 C 0.57006 0.29713 0.98186 0.0
C576 C 0.53411 0.25259 0.9824 0.0
C577 C 0.59818 0.2758 0.97343 0.0
C578 C 0.59446 0.24328 0.96935 0.0
C579 C 0.55888 0.19869 0.97033 0.0
C580 C 0.52737 0.18641 0.97639 0.0
C581 C 0.56257 0.23144 0.9738 0.0
C582 C 0.49905 0.20774 0.98442 0.0
C583 C 0.50234 0.24055 0.98719 0.0
H584 H 0.9264 0.75767 0.45627 0.0
H585 H 0.02163 0.72974 0.50394 0.0
H586 H 0.0376 0.78495 0.50094 0.0
H587 H 0.02234 0.84166 0.48796 0.0
H588 H 0.92679 0.86909 0.44042 0.0
H589 H 0.91304 0.81334 0.43992 0.0
C590 C 0.95058 0.76378 0.46612 0.0
C591 C 0.97259 0.74004 0.48082 0.0
C592 C 0.95951 0.7953 0.46417 0.0
C593 C 1.00425 0.74784 0.49274 0.0
C594 C 0.01334 0.77931 0.491 0.0
C595 C 0.9989 0.83528 0.47685 0.0
C596 C 0.97552 0.85935 0.46434 0.0
C597 C 0.99096 0.80329 0.47709 0.0
C598 C 0.945 0.85091 0.4504 0.0
C599 C 0.93711 0.81912 0.45019 0.0
H600 H 0.46759 0.69757 0.63527 0.0
H601 H 0.39022 0.72452 0.56462 0.0
H602 H 0.40856 0.67753 0.53329 0.0
H603 H 0.44578 0.62764 0.52566 0.0
H604 H 0.51892 0.59745 0.5986 0.0
H605 H 0.50267 0.64615 0.62914 0.0
C606 C 0.45435 0.69317 0.61325 0.0
C607 C 0.42782 0.71554 0.60243 0.0
C608 C 0.4643 0.66517 0.59548 0.0
C609 C 0.41146 0.70884 0.57347 0.0
C610 C 0.4217 0.68156 0.55547 0.0
C611 C 0.45833 0.63184 0.54813 0.0
C612 C 0.4838 0.60897 0.5596 0.0
C613 C 0.44815 0.65957 0.56612 0.0
C614 C 0.4993 0.61461 0.5891 0.0
C615 C 0.48999 0.64251 0.60663 0.0
H616 H 0.94514 0.95389 0.71992 0.0
H617 H 0.8919 0.88398 0.66903 0.0
H618 H 0.90941 0.90589 0.61813 0.0
H619 H 0.94007 0.94534 0.58772 0.0
H620 H 0.99001 0.01745 0.63916 0.0
H621 H 0.97367 0.99461 0.68961 0.0
C622 C 0.93751 0.94345 0.69764 0.0
C623 C 0.9175 0.91711 0.69828 0.0
C624 C 0.94704 0.95674 0.66836 0.0
C625 C 0.90743 0.90412 0.6692 0.0
C626 C 0.91743 0.9167 0.64006 0.0
C627 C 0.94731 0.95611 0.60996 0.0
C628 C 0.96637 0.98322 0.60934 0.0
C629 C 0.93725 0.94308 0.63925 0.0
C630 C 0.97525 0.99679 0.63861 0.0
C631 C 0.96599 0.98363 0.66764 0.0
H632 H 0.59135 0.06544 0.21145 0.0
H633 H 0.58437 0.16168 0.17428 0.0
H634 H 0.56475 0.14227 0.12316 0.0
H635 H 0.54953 0.098 0.08848 0.0
H636 H 0.55606 1.00177 0.1256 0.0
H637 H 0.57625 0.02106 0.17667 0.0
C638 C 0.58579 0.08221 0.19215 0.0
C639 C 0.58936 0.11516 0.19712 0.0
C640 C 0.57449 0.07083 0.16251 0.0
C641 C 0.58146 0.13635 0.17165 0.0
C642 C 0.57043 0.1252 0.14218 0.0
C643 C 0.55549 0.08115 0.10766 0.0
C644 C 0.55127 0.04833 0.1029 0.0
C645 C 0.56682 0.0925 0.13727 0.0
C646 C 0.55901 0.02709 0.12832 0.0
C647 C 0.57056 0.03815 0.15767 0.0
H648 H 0.46019 0.60707 0.23916 0.0
H649 H 0.47198 0.50478 0.22463 0.0
H650 H 0.48414 0.49665 0.28129 0.0
H651 H 0.48951 0.51848 0.3348 0.0
H652 H 0.47461 0.62059 0.35028 0.0
H653 H 0.46659 0.62907 0.29306 0.0
C654 C 0.46587 0.58305 0.24841 0.0
C655 C 0.46525 0.55652 0.2279 0.0
C656 C 0.47231 0.57858 0.28101 0.0
C657 C 0.47212 0.52549 0.24011 0.0
C658 C 0.47913 0.52086 0.27241 0.0
C659 C 0.48419 0.54262 0.32575 0.0
C660 C 0.48222 0.56885 0.34684 0.0
C661 C 0.47884 0.54721 0.29309 0.0
C662 C 0.47638 0.6 0.33456 0.0
C663 C 0.47158 0.60484 0.30189 0.0
H664 H 0.01062 0.48982 0.73312 0.0
H665 H 0.11569 0.51296 0.73398 0.0
H666 H 0.11629 0.51164 0.79179 0.0
H667 H 0.08834 0.50094 0.84202 0.0
H668 H 0.98411 0.4759 0.84157 0.0
H669 H 0.98252 0.47926 0.78355 0.0
C670 C 0.0337 0.49451 0.7459 0.0
C671 C 0.06298 0.50159 0.72904 0.0
C672 C 0.03435 0.49259 0.77921 0.0
C673 C 0.09246 0.50814 0.74616 0.0
C674 C 0.09306 0.50692 0.77929 0.0
C675 C 0.06522 0.49637 0.82923 0.0
C676 C 0.03645 0.48809 0.84604 0.0
C677 C 0.06434 0.49872 0.796 0.0
C678 C 1.00681 0.4818 0.82913 0.0
C679 C 1.00575 0.48407 0.796 0.0
H680 H 0.69869 0.95951 0.89782 0.0
H681 H 0.71402 0.88055 0.96377 0.0
H682 H 0.66416 0.90134 0.99366 0.0
H683 H 0.61524 0.94182 1.00143 0.0
H684 H 0.60323 0.02317 0.93845 0.0
H685 H 0.65296 1.00203 0.90805 0.0
C686 C 0.6917 0.94694 0.91897 0.0
C687 C 0.71037 0.91791 0.92775 0.0
C688 C 0.66336 0.95963 0.93699 0.0
C689 C 0.69998 0.90224 0.95533 0.0
C690 C 0.67147 0.91436 0.97287 0.0
C691 C 0.62363 0.95503 0.98117 0.0
C692 C 0.60527 0.98408 0.97233 0.0
C693 C 0.65277 0.94294 0.96387 0.0
C694 C 0.61678 1.00086 0.94604 0.0
C695 C 0.64524 0.9887 0.92847 0.0
H696 H 0.80426 0.12545 0.45911 0.0
H697 H 0.81652 0.06145 0.37835 0.0
H698 H 0.86705 0.03417 0.40292 0.0
H699 H 0.90931 0.02925 0.44637 0.0
H700 H 0.9004 0.09614 0.52468 0.0
H701 H 0.84761 0.12176 0.50169 0.0
C702 C 0.81808 0.10584 0.44652 0.0
C703 C 0.80594 0.09568 0.41675 0.0
C704 C 0.84801 0.0907 0.46036 0.0
C705 C 0.82432 0.06963 0.40149 0.0
C706 C 0.85361 0.05408 0.41542 0.0
C707 C 0.8957 0.0493 0.45855 0.0
C708 C 0.90875 0.06058 0.48738 0.0
C709 C 0.86578 0.06443 0.44478 0.0
C710 C 0.89097 0.0869 0.50253 0.0
C711 C 0.86075 0.10158 0.48936 0.0
H712 H 0.22452 0.5427 0.07869 0.0
H713 H 0.23528 0.57995 0.98373 0.0
H714 H 0.1767 0.56938 0.97152 0.0
H715 H 0.12178 0.55041 0.98805 0.0
H716 H 0.10946 0.51986 0.08493 0.0
H717 H 0.16901 0.52825 0.09648 0.0
C718 C 0.21412 0.54929 0.05549 0.0
C719 C 0.23481 0.56207 0.03225 0.0
C720 C 0.17989 0.54459 0.04901 0.0
C721 C 0.22058 0.56938 1.00203 0.0
C722 C 0.18682 0.5637 0.99505 0.0
C723 C 0.13222 0.54571 1.01168 0.0
C724 C 0.11147 0.53442 0.03558 0.0
C725 C 0.16623 0.55135 0.01837 0.0
C726 C 0.125 0.52872 0.06621 0.0
C727 C 0.15904 0.53336 0.07278 0.0
H728 H 0.28722 0.4869 0.50204 0.0
H729 H 0.29477 0.47613 0.60389 0.0
H730 H 0.35609 0.482 0.60176 0.0
H731 H 0.40726 0.49152 0.57102 0.0
H732 H 0.39906 0.50444 0.46933 0.0
H733 H 0.33843 0.4961 0.47126 0.0
C734 C 0.30243 0.48561 0.52368 0.0
C735 C 0.28666 0.48118 0.55304 0.0
C736 C 0.3375 0.48939 0.52232 0.0
C737 C 0.30643 0.47988 0.58103 0.0
C738 C 0.34145 0.4831 0.57982 0.0
C739 C 0.39222 0.49229 0.54928 0.0
C740 C 0.40758 0.49858 0.52012 0.0
C741 C 0.35722 0.48807 0.55062 0.0
C742 C 0.38776 0.49977 0.49214 0.0
C743 C 0.3531 0.495 0.49319 0.0
H744 H 0.92806 0.71464 0.96168 0.0
H745 H 0.954 0.68061 0.86704 0.0
H746 H 0.97734 0.62944 0.88882 0.0
H747 H 0.98904 0.59329 0.93443 0.0
H748 H 0.96211 0.62643 0.02907 0.0
H749 H 0.94031 0.67848 1.00755 0.0
C750 C 0.9386 0.69603 0.94569 0.0
C751 C 0.93912 0.70196 0.91253 0.0
C752 C 0.95179 0.66621 0.95842 0.0
C753 C 0.95355 0.67737 0.89257 0.0
C754 C 0.96674 0.64782 0.90504 0.0
C755 C 0.97852 0.61188 0.95047 0.0
C756 C 0.9773 0.60564 0.98348 0.0
C757 C 0.96586 0.64186 0.93789 0.0
C758 C 0.96349 0.63028 1.00365 0.0
C759 C 0.95094 0.66016 0.9913 0.0
H760 H 0.48879 0.73691 0.06777 0.0
H761 H 0.44915 0.74453 0.97188 0.0
H762 H 0.45731 0.80171 0.97157 0.0
H763 H 0.47309 0.84978 0.99951 0.0
H764 H 0.51303 0.84214 0.09518 0.0
H765 H 0.50801 0.78427 0.09443 0.0
C766 C 0.48267 0.75087 0.0465 0.0
C767 C 0.46838 0.73647 0.01985 0.0
C768 C 0.48725 0.78366 0.04657 0.0
C769 C 0.45991 0.75511 0.99276 0.0
C770 C 0.46458 0.78776 0.99258 0.0
C771 C 0.48056 0.8354 0.02023 0.0
C772 C 0.49293 0.8501 0.04755 0.0
C773 C 0.47763 0.80234 0.01956 0.0
C774 C 0.50335 0.83124 0.07396 0.0
C775 C 0.50042 0.79826 0.07353 0.0
H776 H 0.02093 0.29751 0.54545 0.0
H777 H 0.12684 0.28032 0.57307 0.0
H778 H 0.11935 0.22386 0.58169 0.0
H779 H 0.08293 0.17941 0.58122 0.0
H780 H 0.97744 0.19612 0.55192 0.0
H781 H 0.98415 0.25304 0.54586 0.0
C782 C 0.04231 0.28143 0.5535 0.0
C783 C 0.07445 0.29308 0.55831 0.0
C784 C 0.03777 0.24904 0.55875 0.0
C785 C 0.102 0.27187 0.5685 0.0
C786 C 0.09766 0.23964 0.5738 0.0
C787 C 0.06139 0.19546 0.57345 0.0
C788 C 0.02977 0.18338 0.567 0.0
C789 C 0.06569 0.22797 0.56894 0.0
C790 C 1.00196 0.20472 0.55758 0.0
C791 C 1.00587 0.23726 0.55367 0.0
H792 H 0.5715 0.34838 0.38535 0.0
H793 H 0.59229 0.29547 0.47217 0.0
H794 H 0.57217 0.34239 0.50348 0.0
H795 H 0.55005 0.39937 0.50666 0.0
H796 H 0.52915 0.4521 0.41967 0.0
H797 H 0.54742 0.40468 0.38847 0.0
C798 C 0.57125 0.34695 0.4111 0.0
C799 C 0.58379 0.31826 0.42619 0.0
C800 C 0.55963 0.37424 0.42918 0.0
C801 C 0.58344 0.31723 0.45972 0.0
C802 C 0.57175 0.3441 0.47776 0.0
C803 C 0.54932 0.40047 0.48089 0.0
C804 C 0.53825 0.42955 0.46575 0.0
C805 C 0.56009 0.37291 0.46281 0.0
C806 C 0.53758 0.43027 0.43221 0.0
C807 C 0.54807 0.40305 0.4142 0.0
loop_
_geom_bond_atom_site_label_1
_geom_bond_atom_site_label_2
_geom_bond_distance
_geom_bond_site_symmetry_2
_ccdc_geom_bond_type
C0 C1 1.384 . S
C0 H13 0.947 . S
C0 C35 1.382 . S
C1 C0 1.384 . S
C1 C2 1.378 . S
C2 C1 1.378 . S
C2 C3 1.378 . S
C2 H14 0.952 . S
C3 C2 1.378 . S
C3 H15 0.950 . S
C3 C34 1.383 . S
H4 C23 0.947 . S
H5 C24 0.946 . S
H6 C26 0.953 . S
H7 C27 0.945 . S
H8 C29 0.952 . S
H9 C30 0.949 . S
H10 C32 0.950 . S
H11 C33 0.948 . S
H12 C35 0.951 . S
H13 C0 0.947 . S
H14 C2 0.952 . S
H15 C3 0.950 . S
N16 C19 1.382 . S
N16 C21 1.363 . S
N17 C19 1.371 . S
N17 C20 1.372 . S
N18 C20 1.361 . S
N18 C21 1.377 . S
C19 N16 1.382 . S
C19 N17 1.371 . S
C19 C22 1.480 . S
C20 N17 1.372 . S
C20 N18 1.361 . S
C20 C28 1.457 . S
C21 N16 1.363 . S
C21 N18 1.377 . S
C21 C34 1.479 . S
C22 C19 1.480 . S
C22 C23 1.383 . S
C22 C27 1.385 . S
C23 H4 0.947 . S
C23 C22 1.383 . S
C23 C24 1.388 . S
C24 H5 0.946 . S
C24 C23 1.388 . S
C24 C25 1.384 . S
C25 C24 1.384 . S
C25 C26 1.377 . S
C26 H6 0.953 . S
C26 C25 1.377 . S
C26 C27 1.369 . S
C27 H7 0.945 . S
C27 C22 1.385 . S
C27 C26 1.369 . S
C28 C20 1.457 . S
C28 C29 1.372 . S
C28 C33 1.364 . S
C29 H8 0.952 . S
C29 C28 1.372 . S
C29 C30 1.389 . S
C30 H9 0.949 . S
C30 C29 1.389 . S
C30 C31 1.387 . S
C31 C30 1.387 . S
C31 C32 1.372 . S
C32 H10 0.950 . S
C32 C31 1.372 . S
C32 C33 1.379 . S
C33 H11 0.948 . S
C33 C28 1.364 . S
C33 C32 1.379 . S
C34 C3 1.383 . S
C34 C21 1.479 . S
C34 C35 1.398 . S
C35 C0 1.382 . S
C35 H12 0.951 . S
C35 C34 1.398 . S
C36 C37 1.384 . S
C36 H49 0.947 . S
C36 C71 1.382 . S
C37 C36 1.384 . S
C37 C38 1.378 . S
C38 C37 1.378 . S
C38 C39 1.378 . S
C38 H50 0.952 . S
C39 C38 1.378 . S
C39 H51 0.950 . S
C39 C70 1.383 . S
H40 C59 0.947 . S
H41 C60 0.946 . S
H42 C62 0.953 . S
H43 C63 0.945 . S
H44 C65 0.952 . S
H45 C66 0.949 . S
H46 C68 0.950 . S
H47 C69 0.948 . S
H48 C71 0.951 . S
H49 C36 0.947 . S
H50 C38 0.952 . S
H51 C39 0.950 . S
N52 C55 1.382 . S
N52 C57 1.363 . S
N53 C55 1.371 . S
N53 C56 1.372 . S
N54 C56 1.361 . S
N54 C57 1.377 . S
C55 N52 1.382 . S
C55 N53 1.371 . S
C55 C58 1.480 . S
C56 N53 1.372 . S
C56 N54 1.361 . S
C56 C64 1.457 . S
C57 N52 1.363 . S
C57 N54 1.377 . S
C57 C70 1.479 . S
C58 C55 1.480 . S
C58 C59 1.383 . S
C58 C63 1.385 . S
C59 H40 0.947 . S
C59 C58 1.383 . S
C59 C60 1.388 . S
C60 H41 0.946 . S
C60 C59 1.388 . S
C60 C61 1.384 . S
C61 C60 1.384 . S
C61 C62 1.377 . S
C62 H42 0.953 . S
C62 C61 1.377 . S
C62 C63 1.369 . S
C63 H43 0.945 . S
C63 C58 1.385 . S
C63 C62 1.369 . S
C64 C56 1.457 . S
C64 C65 1.372 . S
C64 C69 1.364 . S
C65 H44 0.952 . S
C65 C64 1.372 . S
C65 C66 1.389 . S
C66 H45 0.949 . S
C66 C65 1.389 . S
C66 C67 1.387 . S
C67 C66 1.387 . S
C67 C68 1.372 . S
C68 H46 0.950 . S
C68 C67 1.372 . S
C68 C69 1.379 . S
C69 H47 0.948 . S
C69 C64 1.364 . S
C69 C68 1.379 . S
C70 C39 1.383 . S
C70 C57 1.479 . S
C70 C71 1.398 . S
C71 C36 1.382 . S
C71 H48 0.951 . S
C71 C70 1.398 . S
C72 C73 1.384 . S
C72 H85 0.947 . S
C72 C107 1.382 . S
C73 C72 1.384 . S
C73 C74 1.378 . S
C74 C73 1.378 . S
C74 C75 1.378 . S
C74 H86 0.952 . S
C75 C74 1.378 . S
C75 H87 0.950 . S
C75 C106 1.383 . S
H76 C95 0.947 . S
H77 C96 0.946 . S
H78 C98 0.953 . S
H79 C99 0.945 . S
H80 C101 0.952 . S
H81 C102 0.949 . S
H82 C104 0.950 . S
H83 C105 0.948 . S
H84 C107 0.951 . S
H85 C72 0.947 . S
H86 C74 0.952 . S
H87 C75 0.950 . S
N88 C91 1.382 . S
N88 C93 1.363 . S
N89 C91 1.371 . S
N89 C92 1.372 . S
N90 C92 1.361 . S
N90 C93 1.377 . S
C91 N88 1.382 . S
C91 N89 1.371 . S
C91 C94 1.480 . S
C92 N89 1.372 . S
C92 N90 1.361 . S
C92 C100 1.457 . S
C93 N88 1.363 . S
C93 N90 1.377 . S
C93 C106 1.479 . S
C94 C91 1.480 . S
C94 C95 1.383 . S
C94 C99 1.385 . S
C95 H76 0.947 . S
C95 C94 1.383 . S
C95 C96 1.388 . S
C96 H77 0.946 . S
C96 C95 1.388 . S
C96 C97 1.384 . S
C97 C96 1.384 . S
C97 C98 1.377 . S
C98 H78 0.953 . S
C98 C97 1.377 . S
C98 C99 1.369 . S
C99 H79 0.945 . S
C99 C94 1.385 . S
C99 C98 1.369 . S
C100 C92 1.457 . S
C100 C101 1.372 . S
C100 C105 1.364 . S
C101 H80 0.952 . S
C101 C100 1.372 . S
C101 C102 1.389 . S
C102 H81 0.949 . S
C102 C101 1.389 . S
C102 C103 1.387 . S
C103 C102 1.387 . S
C103 C104 1.372 . S
C104 H82 0.950 . S
C104 C103 1.372 . S
C104 C105 1.379 . S
C105 H83 0.948 . S
C105 C100 1.364 . S
C105 C104 1.379 . S
C106 C75 1.383 . S
C106 C93 1.479 . S
C106 C107 1.398 . S
C107 C72 1.382 . S
C107 H84 0.951 . S
C107 C106 1.398 . S
C108 C109 1.384 . S
C108 H121 0.947 . S
C108 C143 1.382 . S
C109 C108 1.384 . S
C109 C110 1.378 . S
C110 C109 1.378 . S
C110 C111 1.378 . S
C110 H122 0.952 . S
C111 C110 1.378 . S
C111 H123 0.950 . S
C111 C142 1.383 . S
H112 C131 0.947 . S
H113 C132 0.946 . S
H114 C134 0.953 . S
H115 C135 0.945 . S
H116 C137 0.952 . S
H117 C138 0.949 . S
H118 C140 0.950 . S
H119 C141 0.948 . S
H120 C143 0.951 . S
H121 C108 0.947 . S
H122 C110 0.952 . S
H123 C111 0.950 . S
N124 C127 1.382 . S
N124 C129 1.363 . S
N125 C127 1.371 . S
N125 C128 1.372 . S
N126 C128 1.361 . S
N126 C129 1.377 . S
C127 N124 1.382 . S
C127 N125 1.371 . S
C127 C130 1.480 . S
C128 N125 1.372 . S
C128 N126 1.361 . S
C128 C136 1.457 . S
C129 N124 1.363 . S
C129 N126 1.377 . S
C129 C142 1.479 . S
C130 C127 1.480 . S
C130 C131 1.383 . S
C130 C135 1.385 . S
C131 H112 0.947 . S
C131 C130 1.383 . S
C131 C132 1.388 . S
C132 H113 0.946 . S
C132 C131 1.388 . S
C132 C133 1.384 . S
C133 C132 1.384 . S
C133 C134 1.377 . S
C134 H114 0.953 . S
C134 C133 1.377 . S
C134 C135 1.369 . S
C135 H115 0.945 . S
C135 C130 1.385 . S
C135 C134 1.369 . S
C136 C128 1.457 . S
C136 C137 1.372 . S
C136 C141 1.364 . S
C137 H116 0.952 . S
C137 C136 1.372 . S
C137 C138 1.389 . S
C138 H117 0.949 . S
C138 C137 1.389 . S
C138 C139 1.387 . S
C139 C138 1.387 . S
C139 C140 1.372 . S
C140 H118 0.950 . S
C140 C139 1.372 . S
C140 C141 1.379 . S
C141 H119 0.948 . S
C141 C136 1.364 . S
C141 C140 1.379 . S
C142 C111 1.383 . S
C142 C129 1.479 . S
C142 C143 1.398 . S
C143 C108 1.382 . S
C143 H120 0.951 . S
C143 C142 1.398 . S
C144 C145 1.384 . S
C144 H157 0.947 . S
C144 C179 1.382 . S
C145 C144 1.384 . S
C145 C146 1.378 . S
C146 C145 1.378 . S
C146 C147 1.378 . S
C146 H158 0.952 . S
C147 C146 1.378 . S
C147 H159 0.950 . S
C147 C178 1.383 . S
H148 C167 0.947 . S
H149 C168 0.946 . S
H150 C170 0.953 . S
H151 C171 0.945 . S
H152 C173 0.952 . S
H153 C174 0.949 . S
H154 C176 0.950 . S
H155 C177 0.948 . S
H156 C179 0.951 . S
H157 C144 0.947 . S
H158 C146 0.952 . S
H159 C147 0.950 . S
N160 C163 1.382 . S
N160 C165 1.363 . S
N161 C163 1.371 . S
N161 C164 1.372 . S
N162 C164 1.361 . S
N162 C165 1.377 . S
C163 N160 1.382 . S
C163 N161 1.371 . S
C163 C166 1.480 . S
C164 N161 1.372 . S
C164 N162 1.361 . S
C164 C172 1.457 . S
C165 N160 1.363 . S
C165 N162 1.377 . S
C165 C178 1.479 . S
C166 C163 1.480 . S
C166 C167 1.383 . S
C166 C171 1.385 . S
C167 H148 0.947 . S
C167 C166 1.383 . S
C167 C168 1.388 . S
C168 H149 0.946 . S
C168 C167 1.388 . S
C168 C169 1.384 . S
C169 C168 1.384 . S
C169 C170 1.377 . S
C170 H150 0.953 . S
C170 C169 1.377 . S
C170 C171 1.369 . S
C171 H151 0.945 . S
C171 C166 1.385 . S
C171 C170 1.369 . S
C172 C164 1.457 . S
C172 C173 1.372 . S
C172 C177 1.364 . S
C173 H152 0.952 . S
C173 C172 1.372 . S
C173 C174 1.389 . S
C174 H153 0.949 . S
C174 C173 1.389 . S
C174 C175 1.387 . S
C175 C174 1.387 . S
C175 C176 1.372 . S
C176 H154 0.950 . S
C176 C175 1.372 . S
C176 C177 1.379 . S
C177 H155 0.948 . S
C177 C172 1.364 . S
C177 C176 1.379 . S
C178 C147 1.383 . S
C178 C165 1.479 . S
C178 C179 1.398 . S
C179 C144 1.382 . S
C179 H156 0.951 . S
C179 C178 1.398 . S
C180 C181 1.384 . S
C180 H193 0.947 . S
C180 C215 1.382 . S
C181 C180 1.384 . S
C181 C182 1.378 . S
C182 C181 1.378 . S
C182 C183 1.378 . S
C182 H194 0.952 . S
C183 C182 1.378 . S
C183 H195 0.950 . S
C183 C214 1.383 . S
H184 C203 0.947 . S
H185 C204 0.946 . S
H186 C206 0.953 . S
H187 C207 0.945 . S
H188 C209 0.952 . S
H189 C210 0.949 . S
H190 C212 0.950 . S
H191 C213 0.948 . S
H192 C215 0.951 . S
H193 C180 0.947 . S
H194 C182 0.952 . S
H195 C183 0.950 . S
N196 C199 1.382 . S
N196 C201 1.363 . S
N197 C199 1.371 . S
N197 C200 1.372 . S
N198 C200 1.361 . S
N198 C201 1.377 . S
C199 N196 1.382 . S
C199 N197 1.371 . S
C199 C202 1.480 . S
C200 N197 1.372 . S
C200 N198 1.361 . S
C200 C208 1.457 . S
C201 N196 1.363 . S
C201 N198 1.377 . S
C201 C214 1.479 . S
C202 C199 1.480 . S
C202 C203 1.383 . S
C202 C207 1.385 . S
C203 H184 0.947 . S
C203 C202 1.383 . S
C203 C204 1.388 . S
C204 H185 0.946 . S
C204 C203 1.388 . S
C204 C205 1.384 . S
C205 C204 1.384 . S
C205 C206 1.377 . S
C206 H186 0.953 . S
C206 C205 1.377 . S
C206 C207 1.369 . S
C207 H187 0.945 . S
C207 C202 1.385 . S
C207 C206 1.369 . S
C208 C200 1.457 . S
C208 C209 1.372 . S
C208 C213 1.364 . S
C209 H188 0.952 . S
C209 C208 1.372 . S
C209 C210 1.389 . S
C210 H189 0.949 . S
C210 C209 1.389 . S
C210 C211 1.387 . S
C211 C210 1.387 . S
C211 C212 1.372 . S
C212 H190 0.950 . S
C212 C211 1.372 . S
C212 C213 1.379 . S
C213 H191 0.948 . S
C213 C208 1.364 . S
C213 C212 1.379 . S
C214 C183 1.383 . S
C214 C201 1.479 . S
C214 C215 1.398 . S
C215 C180 1.382 . S
C215 H192 0.951 . S
C215 C214 1.398 . S
C216 C217 1.384 . S
C216 H229 0.947 . S
C216 C251 1.382 . S
C217 C216 1.384 . S
C217 C218 1.378 . S
C218 C217 1.378 . S
C218 C219 1.378 . S
C218 H230 0.952 . S
C219 C218 1.378 . S
C219 H231 0.950 . S
C219 C250 1.383 . S
H220 C239 0.947 . S
H221 C240 0.946 . S
H222 C242 0.953 . S
H223 C243 0.945 . S
H224 C245 0.952 . S
H225 C246 0.949 . S
H226 C248 0.950 . S
H227 C249 0.948 . S
H228 C251 0.951 . S
H229 C216 0.947 . S
H230 C218 0.952 . S
H231 C219 0.950 . S
N232 C235 1.382 . S
N232 C237 1.363 . S
N233 C235 1.371 . S
N233 C236 1.372 . S
N234 C236 1.361 . S
N234 C237 1.377 . S
C235 N232 1.382 . S
C235 N233 1.371 . S
C235 C238 1.480 . S
C236 N233 1.372 . S
C236 N234 1.361 . S
C236 C244 1.457 . S
C237 N232 1.363 . S
C237 N234 1.377 . S
C237 C250 1.479 . S
C238 C235 1.480 . S
C238 C239 1.383 . S
C238 C243 1.385 . S
C239 H220 0.947 . S
C239 C238 1.383 . S
C239 C240 1.388 . S
C240 H221 0.946 . S
C240 C239 1.388 . S
C240 C241 1.384 . S
C241 C240 1.384 . S
C241 C242 1.377 . S
C242 H222 0.953 . S
C242 C241 1.377 . S
C242 C243 1.369 . S
C243 H223 0.945 . S
C243 C238 1.385 . S
C243 C242 1.369 . S
C244 C236 1.457 . S
C244 C245 1.372 . S
C244 C249 1.364 . S
C245 H224 0.952 . S
C245 C244 1.372 . S
C245 C246 1.389 . S
C246 H225 0.949 . S
C246 C245 1.389 . S
C246 C247 1.387 . S
C247 C246 1.387 . S
C247 C248 1.372 . S
C248 H226 0.950 . S
C248 C247 1.372 . S
C248 C249 1.379 . S
C249 H227 0.948 . S
C249 C244 1.364 . S
C249 C248 1.379 . S
C250 C219 1.383 . S
C250 C237 1.479 . S
C250 C251 1.398 . S
C251 C216 1.382 . S
C251 H228 0.951 . S
C251 C250 1.398 . S
C252 C253 1.384 . S
C252 H265 0.947 . S
C252 C287 1.382 . S
C253 C252 1.384 . S
C253 C254 1.378 . S
C254 C253 1.378 . S
C254 C255 1.378 . S
C254 H266 0.952 . S
C255 C254 1.378 . S
C255 H267 0.950 . S
C255 C286 1.383 . S
H256 C275 0.947 . S
H257 C276 0.946 . S
H258 C278 0.953 . S
H259 C279 0.945 . S
H260 C281 0.952 . S
H261 C282 0.949 . S
H262 C284 0.950 . S
H263 C285 0.948 . S
H264 C287 0.951 . S
H265 C252 0.947 . S
H266 C254 0.952 . S
H267 C255 0.950 . S
N268 C271 1.382 . S
N268 C273 1.363 . S
N269 C271 1.371 . S
N269 C272 1.372 . S
N270 C272 1.361 . S
N270 C273 1.377 . S
C271 N268 1.382 . S
C271 N269 1.371 . S
C271 C274 1.480 . S
C272 N269 1.372 . S
C272 N270 1.361 . S
C272 C280 1.457 . S
C273 N268 1.363 . S
C273 N270 1.377 . S
C273 C286 1.479 . S
C274 C271 1.480 . S
C274 C275 1.383 . S
C274 C279 1.385 . S
C275 H256 0.947 . S
C275 C274 1.383 . S
C275 C276 1.388 . S
C276 H257 0.946 . S
C276 C275 1.388 . S
C276 C277 1.384 . S
C277 C276 1.384 . S
C277 C278 1.377 . S
C278 H258 0.953 . S
C278 C277 1.377 . S
C278 C279 1.369 . S
C279 H259 0.945 . S
C279 C274 1.385 . S
C279 C278 1.369 . S
C280 C272 1.457 . S
C280 C281 1.372 . S
C280 C285 1.364 . S
C281 H260 0.952 . S
C281 C280 1.372 . S
C281 C282 1.389 . S
C282 H261 0.949 . S
C282 C281 1.389 . S
C282 C283 1.387 . S
C283 C282 1.387 . S
C283 C284 1.372 . S
C284 H262 0.950 . S
C284 C283 1.372 . S
C284 C285 1.379 . S
C285 H263 0.948 . S
C285 C280 1.364 . S
C285 C284 1.379 . S
C286 C255 1.383 . S
C286 C273 1.479 . S
C286 C287 1.398 . S
C287 C252 1.382 . S
C287 H264 0.951 . S
C287 C286 1.398 . S
C288 O304 1.251 . S
C288 O306 1.254 1_545 S
N289 C290 1.333 . S
N289 C294 1.307 . S
N289 Zn295 2.020 . S
C290 N289 1.333 . S
C290 C291 1.379 . S
C290 H308 0.952 . S
C291 C290 1.379 . S
C291 C292 1.390 . S
C291 H318 0.949 . S
C292 C291 1.390 . S
C292 C293 1.357 . S
C293 C292 1.357 . S
C293 C294 1.370 . S
C293 H319 0.950 . S
C294 N289 1.307 . S
C294 C293 1.370 . S
C294 H312 0.948 1_455 S
Zn295 N289 2.020 . S
Zn295 O304 2.039 . S
Zn295 O310 2.034 . S
Zn295 O314 2.025 1_455 S
Zn295 O316 2.024 1_455 S
C296 O315 1.246 1_545 S
C296 O316 1.249 . S
N297 C298 1.307 . S
N297 C299 1.333 . S
N297 Zn303 2.020 . S
C298 N297 1.307 . S
C298 C302 1.370 . S
C298 H309 0.948 1_655 S
C299 N297 1.333 . S
C299 C300 1.379 . S
C299 H307 0.952 . S
C300 C299 1.379 . S
C300 C301 1.390 . S
C300 H320 0.949 . S
C301 C300 1.390 . S
C301 C302 1.357 . S
C302 C298 1.370 . S
C302 C301 1.357 . S
C302 H321 0.959 . S
Zn303 N297 2.020 . S
Zn303 O306 2.025 1_655 S
Zn303 O311 2.024 1_655 S
Zn303 O313 2.039 . S
Zn303 O315 2.034 . S
O304 C288 1.251 . S
O304 Zn295 2.039 . S
C305 O310 1.246 1_565 S
C305 O311 1.249 . S
O306 C288 1.254 1_565 S
O306 Zn303 2.025 1_455 S
H307 C299 0.952 . S
H308 C290 0.952 . S
H309 C298 0.948 1_455 S
O310 Zn295 2.034 . S
O310 C305 1.246 1_545 S
O311 Zn303 2.024 1_455 S
O311 C305 1.249 . S
H312 C294 0.948 1_655 S
O313 Zn303 2.039 . S
O313 C317 1.251 . S
O314 Zn295 2.025 1_655 S
O314 C317 1.254 1_545 S
O315 C296 1.246 1_565 S
O315 Zn303 2.034 . S
O316 Zn295 2.024 1_655 S
O316 C296 1.249 . S
C317 O313 1.251 . S
C317 O314 1.254 1_565 S
H318 C291 0.949 . S
H319 C293 0.950 . S
H320 C300 0.949 . S
H321 C302 0.959 . S
C322 O338 1.251 1_565 S
C322 O340 1.254 . S
N323 C324 1.333 . S
N323 C328 1.307 . S
N323 Zn329 2.020 . S
C324 N323 1.333 . S
C324 C325 1.379 . S
C324 H342 0.952 . S
C325 C324 1.379 . S
C325 C326 1.390 . S
C325 H352 0.949 . S
C326 C325 1.390 . S
C326 C327 1.357 . S
C327 C326 1.357 . S
C327 C328 1.370 . S
C327 H353 0.950 . S
C328 N323 1.307 . S
C328 C327 1.370 . S
C328 H346 0.948 . S
Zn329 N323 2.020 . S
Zn329 O338 2.039 . S
Zn329 O344 2.034 1_556 S
Zn329 O348 2.025 1_556 S
Zn329 O350 2.024 . S
C330 O349 1.246 . S
C330 O350 1.249 1_565 S
N331 C332 1.307 . S
N331 C333 1.333 . S
N331 Zn337 2.020 . S
C332 N331 1.307 . S
C332 C336 1.370 . S
C332 H343 0.948 . S
C333 N331 1.333 . S
C333 C334 1.379 . S
C333 H341 0.952 . S
C334 C333 1.379 . S
C334 C335 1.390 . S
C334 H354 0.949 . S
C335 C334 1.390 . S
C335 C336 1.357 . S
C336 C332 1.370 . S
C336 C335 1.357 . S
C336 H355 0.950 . S
Zn337 N331 2.020 . S
Zn337 O340 2.025 1_554 S
Zn337 O345 2.024 . S
Zn337 O347 2.039 . S
Zn337 O349 2.034 1_554 S
O338 C322 1.251 1_545 S
O338 Zn329 2.039 . S
C339 O344 1.246 . S
C339 O345 1.249 1_545 S
O340 C322 1.254 . S
O340 Zn337 2.025 1_556 S
H341 C333 0.952 . S
H342 C324 0.952 . S
H343 C332 0.948 . S
O344 Zn329 2.034 1_554 S
O344 C339 1.246 . S
O345 Zn337 2.024 . S
O345 C339 1.249 1_565 S
H346 C328 0.948 . S
O347 Zn337 2.039 . S
O347 C351 1.251 1_565 S
O348 Zn329 2.025 1_554 S
O348 C351 1.254 . S
O349 C330 1.246 . S
O349 Zn337 2.034 1_556 S
O350 Zn329 2.024 . S
O350 C330 1.249 1_545 S
C351 O347 1.251 1_545 S
C351 O348 1.254 . S
H352 C325 0.949 . S
H353 C327 0.950 . S
H354 C334 0.949 . S
H355 C336 0.950 . S
C356 O372 1.251 . S
C356 O374 1.254 . S
N357 C358 1.333 . S
N357 C362 1.307 . S
N357 Zn363 2.020 . S
C358 N357 1.333 . S
C358 C359 1.379 . S
C358 H376 0.952 . S
C359 C358 1.379 . S
C359 C360 1.390 . S
C359 H386 0.949 . S
C360 C359 1.390 . S
C360 C361 1.357 . S
C361 C360 1.357 . S
C361 C362 1.370 . S
C361 H387 0.950 . S
C362 N357 1.307 . S
C362 C361 1.370 . S
C362 H380 0.948 . S
Zn363 N357 2.020 . S
Zn363 O372 2.039 . S
Zn363 O378 2.034 . S
Zn363 O382 2.025 . S
Zn363 O384 2.024 . S
C364 O383 1.246 . S
C364 O384 1.249 . S
N365 C366 1.307 . S
N365 C367 1.333 . S
N365 Zn371 2.020 . S
C366 N365 1.307 . S
C366 C370 1.370 . S
C366 H377 0.948 . S
C367 N365 1.333 . S
C367 C368 1.379 . S
C367 H375 0.952 . S
C368 C367 1.379 . S
C368 C369 1.390 . S
C368 H388 0.949 . S
C369 C368 1.390 . S
C369 C370 1.357 . S
C370 C366 1.370 . S
C370 C369 1.357 . S
C370 H389 0.950 . S
Zn371 N365 2.020 . S
Zn371 O374 2.025 . S
Zn371 O379 2.024 . S
Zn371 O381 2.039 . S
Zn371 O383 2.034 . S
O372 C356 1.251 . S
O372 Zn363 2.039 . S
C373 O378 1.246 . S
C373 O379 1.249 . S
O374 C356 1.254 . S
O374 Zn371 2.025 . S
H375 C367 0.952 . S
H376 C358 0.952 . S
H377 C366 0.948 . S
O378 Zn363 2.034 . S
O378 C373 1.246 . S
O379 Zn371 2.024 . S
O379 C373 1.249 . S
H380 C362 0.948 . S
O381 Zn371 2.039 . S
O381 C385 1.251 . S
O382 Zn363 2.025 . S
O382 C385 1.254 . S
O383 C364 1.246 . S
O383 Zn371 2.034 . S
O384 Zn363 2.024 . S
O384 C364 1.249 . S
C385 O381 1.251 . S
C385 O382 1.254 . S
H386 C359 0.949 . S
H387 C361 0.950 . S
H388 C368 0.949 . S
H389 C370 0.950 . S
C390 O406 1.251 1_556 S
C390 O408 1.254 . S
N391 C392 1.333 . S
N391 C396 1.307 . S
N391 Zn397 2.020 . S
C392 N391 1.333 . S
C392 C393 1.379 . S
C392 H410 0.952 . S
C393 C392 1.379 . S
C393 C394 1.390 . S
C393 H420 0.949 . S
C394 C393 1.390 . S
C394 C395 1.357 . S
C395 C394 1.357 . S
C395 C396 1.370 . S
C395 H421 0.950 . S
C396 N391 1.307 . S
C396 C395 1.370 . S
C396 H414 0.948 . S
Zn397 N391 2.020 . S
Zn397 O406 2.039 . S
Zn397 O412 2.034 1_655 S
Zn397 O416 2.025 1_655 S
Zn397 O418 2.024 . S
C398 O417 1.246 . S
C398 O418 1.249 1_556 S
N399 C400 1.307 . S
N399 C401 1.333 . S
N399 Zn405 2.020 . S
C400 N399 1.307 . S
C400 C404 1.370 . S
C400 H411 0.948 . S
C401 N399 1.333 . S
C401 C402 1.379 . S
C401 H409 0.952 . S
C402 C401 1.379 . S
C402 C403 1.390 . S
C402 H422 0.949 . S
C403 C402 1.390 . S
C403 C404 1.357 . S
C404 C400 1.370 . S
C404 C403 1.357 . S
C404 H423 0.950 . S
Zn405 N399 2.020 . S
Zn405 O408 2.025 1_455 S
Zn405 O413 2.024 . S
Zn405 O415 2.039 . S
Zn405 O417 2.034 1_455 S
O406 C390 1.251 1_554 S
O406 Zn397 2.039 . S
C407 O412 1.246 . S
C407 O413 1.249 1_554 S
O408 C390 1.254 . S
O408 Zn405 2.025 1_655 S
H409 C401 0.952 . S
H410 C392 0.952 . S
H411 C400 0.948 . S
O412 Zn397 2.034 1_455 S
O412 C407 1.246 . S
O413 Zn405 2.024 . S
O413 C407 1.249 1_556 S
H414 C396 0.948 . S
O415 Zn405 2.039 . S
O415 C419 1.251 1_556 S
O416 Zn397 2.025 1_455 S
O416 C419 1.254 . S
O417 C398 1.246 . S
O417 Zn405 2.034 1_655 S
O418 Zn397 2.024 . S
O418 C398 1.249 1_554 S
C419 O415 1.251 1_554 S
C419 O416 1.254 . S
H420 C393 0.949 . S
H421 C395 0.950 . S
H422 C402 0.949 . S
H423 C404 0.950 . S
H424 C430 0.930 . S
H425 C433 0.930 . S
H426 C434 0.930 1_565 S
H427 C435 0.930 . S
H428 C438 0.930 . S
H429 C439 0.930 . S
C430 H424 0.930 . S
C430 C431 1.355 . S
C430 C432 1.415 . S
C431 C430 1.355 . S
C431 C433 1.419 . S
C432 C430 1.415 . S
C432 C437 1.425 . S
C432 C439 1.409 . S
C433 H425 0.930 . S
C433 C431 1.419 . S
C433 C434 1.362 . S
C434 H426 0.930 1_545 S
C434 C433 1.362 . S
C434 C437 1.409 . S
C435 H427 0.930 . S
C435 C436 1.355 . S
C435 C437 1.415 . S
C436 C435 1.355 . S
C436 C438 1.419 . S
C437 C432 1.425 . S
C437 C434 1.409 . S
C437 C435 1.415 . S
C438 H428 0.930 . S
C438 C436 1.419 . S
C438 C439 1.362 . S
C439 H429 0.930 . S
C439 C432 1.409 . S
C439 C438 1.362 . S
H440 C446 0.930 . S
H441 C449 0.930 . S
H442 C450 0.930 . S
H443 C451 0.930 . S
H444 C454 0.930 . S
H445 C455 0.918 1_545 S
C446 H440 0.930 . S
C446 C447 1.355 . S
C446 C448 1.415 . S
C447 C446 1.355 . S
C447 C449 1.419 . S
C448 C446 1.415 . S
C448 C453 1.425 . S
C448 C455 1.424 . S
C449 H441 0.930 . S
C449 C447 1.419 . S
C449 C450 1.362 . S
C450 H442 0.930 . S
C450 C449 1.362 . S
C450 C453 1.409 . S
C451 H443 0.930 . S
C451 C452 1.355 . S
C451 C453 1.415 . S
C452 C451 1.355 . S
C452 C454 1.419 1_565 S
C453 C448 1.425 . S
C453 C450 1.409 . S
C453 C451 1.415 . S
C454 H444 0.930 . S
C454 C452 1.419 1_545 S
C454 C455 1.360 1_545 S
C455 H445 0.918 1_565 S
C455 C448 1.424 . S
C455 C454 1.360 1_565 S
H456 C462 0.930 . S
H457 C465 0.930 . S
H458 C466 0.930 . S
H459 C467 0.930 . S
H460 C470 0.930 . S
H461 C471 0.930 . S
C462 H456 0.930 . S
C462 C463 1.355 . S
C462 C464 1.415 . S
C463 C462 1.355 . S
C463 C465 1.419 . S
C464 C462 1.415 . S
C464 C469 1.425 . S
C464 C471 1.409 . S
C465 H457 0.930 . S
C465 C463 1.419 . S
C465 C466 1.362 . S
C466 H458 0.930 . S
C466 C465 1.362 . S
C466 C469 1.409 . S
C467 H459 0.930 . S
C467 C468 1.355 . S
C467 C469 1.415 . S
C468 C467 1.355 . S
C468 C470 1.419 . S
C469 C464 1.425 . S
C469 C466 1.409 . S
C469 C467 1.415 . S
C470 H460 0.930 . S
C470 C468 1.419 . S
C470 C471 1.362 . S
C471 H461 0.930 . S
C471 C464 1.409 . S
C471 C470 1.362 . S
H472 C478 0.930 . S
H473 C481 0.930 . S
H474 C482 0.930 . S
H475 C483 0.930 . S
H476 C486 0.930 . S
H477 C487 0.930 . S
C478 H472 0.930 . S
C478 C479 1.355 . S
C478 C480 1.415 . S
C479 C478 1.355 . S
C479 C481 1.419 . S
C480 C478 1.415 . S
C480 C485 1.425 . S
C480 C487 1.409 . S
C481 H473 0.930 . S
C481 C479 1.419 . S
C481 C482 1.362 . S
C482 H474 0.930 . S
C482 C481 1.362 . S
C482 C485 1.409 . S
C483 H475 0.930 . S
C483 C484 1.355 . S
C483 C485 1.415 . S
C484 C483 1.355 . S
C484 C486 1.419 . S
C485 C480 1.425 . S
C485 C482 1.409 . S
C485 C483 1.415 . S
C486 H476 0.930 . S
C486 C484 1.419 . S
C486 C487 1.362 . S
C487 H477 0.930 . S
C487 C480 1.409 . S
C487 C486 1.362 . S
H488 C494 0.930 . S
H489 C497 0.930 . S
H490 C498 0.930 . S
H491 C499 0.930 . S
H492 C502 0.930 1_556 S
H493 C503 0.930 1_556 S
C494 H488 0.930 . S
C494 C495 1.355 . S
C494 C496 1.415 . S
C495 C494 1.355 . S
C495 C497 1.419 . S
C496 C494 1.415 . S
C496 C501 1.425 . S
C496 C503 1.409 . S
C497 H489 0.930 . S
C497 C495 1.419 . S
C497 C498 1.362 . S
C498 H490 0.930 . S
C498 C497 1.362 . S
C498 C501 1.409 . S
C499 H491 0.930 . S
C499 C500 1.355 . S
C499 C501 1.415 . S
C500 C499 1.355 . S
C500 C502 1.419 . S
C501 C496 1.425 . S
C501 C498 1.409 . S
C501 C499 1.415 . S
C502 H492 0.930 1_554 S
C502 C500 1.419 . S
C502 C503 1.362 . S
C503 H493 0.930 1_554 S
C503 C496 1.409 . S
C503 C502 1.362 . S
H504 C510 0.930 . S
H505 C513 0.930 . S
H506 C514 0.930 . S
H507 C515 0.930 . S
H508 C518 0.930 . S
H509 C519 0.930 . S
C510 H504 0.930 . S
C510 C511 1.355 . S
C510 C512 1.415 . S
C511 C510 1.355 . S
C511 C513 1.419 . S
C512 C510 1.415 . S
C512 C517 1.425 . S
C512 C519 1.409 . S
C513 H505 0.930 . S
C513 C511 1.419 . S
C513 C514 1.362 . S
C514 H506 0.930 . S
C514 C513 1.362 . S
C514 C517 1.409 . S
C515 H507 0.930 . S
C515 C516 1.355 . S
C515 C517 1.415 . S
C516 C515 1.355 . S
C516 C518 1.419 . S
C517 C512 1.425 . S
C517 C514 1.409 . S
C517 C515 1.415 . S
C518 H508 0.930 . S
C518 C516 1.419 . S
C518 C519 1.362 . S
C519 H509 0.930 . S
C519 C512 1.409 . S
C519 C518 1.362 . S
H520 C526 0.930 . S
H521 C529 0.930 1_554 S
H522 C530 0.930 . S
H523 C531 0.930 1_554 S
H524 C534 0.930 . S
H525 C535 0.930 . S
C526 H520 0.930 . S
C526 C527 1.355 . S
C526 C528 1.415 . S
C527 C526 1.355 . S
C527 C529 1.419 . S
C528 C526 1.415 . S
C528 C533 1.425 . S
C528 C535 1.409 . S
C529 H521 0.930 1_556 S
C529 C527 1.419 . S
C529 C530 1.362 1_556 S
C530 H522 0.930 . S
C530 C529 1.362 1_554 S
C530 C533 1.409 1_554 S
C531 H523 0.930 1_556 S
C531 C532 1.355 . S
C531 C533 1.415 . S
C532 C531 1.355 . S
C532 C534 1.419 . S
C533 C528 1.425 . S
C533 C530 1.409 1_556 S
C533 C531 1.415 . S
C534 H524 0.930 . S
C534 C532 1.419 . S
C534 C535 1.362 . S
C535 H525 0.930 . S
C535 C528 1.409 . S
C535 C534 1.362 . S
H536 C542 0.930 . S
H537 C545 0.930 . S
H538 C546 0.930 . S
H539 C547 0.930 . S
H540 C550 0.930 . S
H541 C551 0.930 . S
C542 H536 0.930 . S
C542 C543 1.355 . S
C542 C544 1.415 . S
C543 C542 1.355 . S
C543 C545 1.419 . S
C544 C542 1.415 . S
C544 C549 1.425 . S
C544 C551 1.409 . S
C545 H537 0.930 . S
C545 C543 1.419 . S
C545 C546 1.362 . S
C546 H538 0.930 . S
C546 C545 1.362 . S
C546 C549 1.409 . S
C547 H539 0.930 . S
C547 C548 1.355 . S
C547 C549 1.415 . S
C548 C547 1.355 . S
C548 C550 1.419 . S
C549 C544 1.425 . S
C549 C546 1.409 . S
C549 C547 1.415 . S
C550 H540 0.930 . S
C550 C548 1.419 . S
C550 C551 1.362 . S
C551 H541 0.930 . S
C551 C544 1.409 . S
C551 C550 1.362 . S
H552 C558 0.930 . S
H553 C561 0.944 . S
H554 C562 0.930 1_655 S
H555 C563 0.930 1_655 S
H556 C566 0.930 . S
H557 C567 0.930 . S
C558 H552 0.930 . S
C558 C559 1.355 . S
C558 C560 1.415 . S
C559 C558 1.355 . S
C559 C561 1.419 . S
C560 C558 1.415 . S
C560 C565 1.425 . S
C560 C567 1.409 . S
C561 H553 0.944 . S
C561 C559 1.419 . S
C561 C562 1.362 . S
C562 H554 0.930 1_455 S
C562 C561 1.362 . S
C562 C565 1.409 . S
C563 H555 0.930 1_455 S
C563 C564 1.355 . S
C563 C565 1.415 . S
C564 C563 1.355 . S
C564 C566 1.419 . S
C565 C560 1.425 . S
C565 C562 1.409 . S
C565 C563 1.415 . S
C566 H556 0.930 . S
C566 C564 1.419 . S
C566 C567 1.362 . S
C567 H557 0.930 . S
C567 C560 1.409 . S
C567 C566 1.362 . S
H568 C574 0.930 . S
H569 C577 0.930 . S
H570 C578 0.930 . S
H571 C579 0.930 . S
H572 C582 0.930 1_554 S
H573 C583 0.930 1_554 S
C574 H568 0.930 . S
C574 C575 1.355 . S
C574 C576 1.415 . S
C575 C574 1.355 . S
C575 C577 1.419 . S
C576 C574 1.415 . S
C576 C581 1.425 . S
C576 C583 1.409 . S
C577 H569 0.930 . S
C577 C575 1.419 . S
C577 C578 1.362 . S
C578 H570 0.930 . S
C578 C577 1.362 . S
C578 C581 1.409 . S
C579 H571 0.930 . S
C579 C580 1.355 . S
C579 C581 1.415 . S
C580 C579 1.355 . S
C580 C582 1.419 . S
C581 C576 1.425 . S
C581 C578 1.409 . S
C581 C579 1.415 . S
C582 H572 0.930 1_556 S
C582 C580 1.419 . S
C582 C583 1.362 . S
C583 H573 0.930 1_556 S
C583 C576 1.409 . S
C583 C582 1.362 . S
H584 C590 0.930 . S
H585 C593 0.930 . S
H586 C594 0.930 . S
H587 C595 0.930 . S
H588 C598 0.930 . S
H589 C599 0.930 . S
C590 H584 0.930 . S
C590 C591 1.355 . S
C590 C592 1.415 . S
C591 C590 1.355 . S
C591 C593 1.419 . S
C592 C590 1.415 . S
C592 C597 1.425 . S
C592 C599 1.409 . S
C593 H585 0.930 . S
C593 C591 1.419 . S
C593 C594 1.362 . S
C594 H586 0.930 . S
C594 C593 1.362 . S
C594 C597 1.409 . S
C595 H587 0.930 . S
C595 C596 1.355 . S
C595 C597 1.415 . S
C596 C595 1.355 . S
C596 C598 1.419 . S
C597 C592 1.425 . S
C597 C594 1.409 . S
C597 C595 1.415 . S
C598 H588 0.930 . S
C598 C596 1.419 . S
C598 C599 1.362 . S
C599 H589 0.930 . S
C599 C592 1.409 . S
C599 C598 1.362 . S
H600 C606 0.930 . S
H601 C609 0.930 . S
H602 C610 0.930 . S
H603 C611 0.930 . S
H604 C614 0.930 . S
H605 C615 0.930 . S
C606 H600 0.930 . S
C606 C607 1.355 . S
C606 C608 1.415 . S
C607 C606 1.355 . S
C607 C609 1.419 . S
C608 C606 1.415 . S
C608 C613 1.425 . S
C608 C615 1.409 . S
C609 H601 0.930 . S
C609 C607 1.419 . S
C609 C610 1.362 . S
C610 H602 0.930 . S
C610 C609 1.362 . S
C610 C613 1.409 . S
C611 H603 0.930 . S
C611 C612 1.355 . S
C611 C613 1.415 . S
C612 C611 1.355 . S
C612 C614 1.419 . S
C613 C608 1.425 . S
C613 C610 1.409 . S
C613 C611 1.415 . S
C614 H604 0.930 . S
C614 C612 1.419 . S
C614 C615 1.362 . S
C615 H605 0.930 . S
C615 C608 1.409 . S
C615 C614 1.362 . S
H616 C622 0.930 . S
H617 C625 0.930 . S
H618 C626 0.930 . S
H619 C627 0.930 . S
H620 C630 0.930 . S
H621 C631 0.930 . S
C622 H616 0.930 . S
C622 C623 1.355 . S
C622 C624 1.415 . S
C623 C622 1.355 . S
C623 C625 1.419 . S
C624 C622 1.415 . S
C624 C629 1.425 . S
C624 C631 1.409 1_655 S
C625 H617 0.930 . S
C625 C623 1.419 . S
C625 C626 1.362 . S
C626 H618 0.930 . S
C626 C625 1.362 . S
C626 C629 1.409 . S
C627 H619 0.930 . S
C627 C628 1.355 . S
C627 C629 1.415 . S
C628 C627 1.355 . S
C628 C630 1.419 1_655 S
C629 C624 1.425 . S
C629 C626 1.409 . S
C629 C627 1.415 . S
C630 H620 0.930 . S
C630 C628 1.419 1_455 S
C630 C631 1.362 . S
C631 H621 0.930 . S
C631 C624 1.409 1_455 S
C631 C630 1.362 . S
H632 C638 0.930 . S
H633 C641 0.930 . S
H634 C642 0.930 . S
H635 C643 0.930 . S
H636 C646 0.930 1_565 S
H637 C647 0.930 1_565 S
C638 H632 0.930 . S
C638 C639 1.355 . S
C638 C640 1.415 . S
C639 C638 1.355 . S
C639 C641 1.419 . S
C640 C638 1.415 . S
C640 C645 1.425 . S
C640 C647 1.409 . S
C641 H633 0.930 . S
C641 C639 1.419 . S
C641 C642 1.362 . S
C642 H634 0.930 . S
C642 C641 1.362 . S
C642 C645 1.409 . S
C643 H635 0.930 . S
C643 C644 1.355 . S
C643 C645 1.415 . S
C644 C643 1.355 . S
C644 C646 1.419 . S
C645 C640 1.425 . S
C645 C642 1.409 . S
C645 C643 1.415 . S
C646 H636 0.930 1_545 S
C646 C644 1.419 . S
C646 C647 1.362 . S
C647 H637 0.930 1_545 S
C647 C640 1.409 . S
C647 C646 1.362 . S
H648 C654 0.930 . S
H649 C657 0.930 . S
H650 C658 0.930 . S
H651 C659 0.930 . S
H652 C662 0.930 . S
H653 C663 0.930 . S
C654 H648 0.930 . S
C654 C655 1.355 . S
C654 C656 1.415 . S
C655 C654 1.355 . S
C655 C657 1.419 . S
C656 C654 1.415 . S
C656 C661 1.425 . S
C656 C663 1.409 . S
C657 H649 0.930 . S
C657 C655 1.419 . S
C657 C658 1.362 . S
C658 H650 0.930 . S
C658 C657 1.362 . S
C658 C661 1.409 . S
C659 H651 0.930 . S
C659 C660 1.355 . S
C659 C661 1.415 . S
C660 C659 1.355 . S
C660 C662 1.419 . S
C661 C656 1.425 . S
C661 C658 1.409 . S
C661 C659 1.415 . S
C662 H652 0.930 . S
C662 C660 1.419 . S
C662 C663 1.362 . S
C663 H653 0.930 . S
C663 C656 1.409 . S
C663 C662 1.362 . S
H664 C670 0.930 . S
H665 C673 0.930 . S
H666 C674 0.930 . S
H667 C675 0.930 . S
H668 C678 0.930 . S
H669 C679 0.930 . S
C670 H664 0.930 . S
C670 C671 1.355 . S
C670 C672 1.415 . S
C671 C670 1.355 . S
C671 C673 1.419 . S
C672 C670 1.415 . S
C672 C677 1.425 . S
C672 C679 1.409 . S
C673 H665 0.930 . S
C673 C671 1.419 . S
C673 C674 1.362 . S
C674 H666 0.930 . S
C674 C673 1.362 . S
C674 C677 1.409 . S
C675 H667 0.930 . S
C675 C676 1.355 . S
C675 C677 1.415 . S
C676 C675 1.355 . S
C676 C678 1.419 . S
C677 C672 1.425 . S
C677 C674 1.409 . S
C677 C675 1.415 . S
C678 H668 0.930 . S
C678 C676 1.419 . S
C678 C679 1.362 . S
C679 H669 0.930 . S
C679 C672 1.409 . S
C679 C678 1.362 . S
H680 C686 0.930 . S
H681 C689 0.930 . S
H682 C690 0.930 1_554 S
H683 C691 0.930 1_554 S
H684 C694 0.930 . S
H685 C695 0.930 . S
C686 H680 0.930 . S
C686 C687 1.355 . S
C686 C688 1.415 . S
C687 C686 1.355 . S
C687 C689 1.419 . S
C688 C686 1.415 . S
C688 C693 1.425 . S
C688 C695 1.409 . S
C689 H681 0.930 . S
C689 C687 1.419 . S
C689 C690 1.362 . S
C690 H682 0.930 1_556 S
C690 C689 1.362 . S
C690 C693 1.409 . S
C691 H683 0.930 1_556 S
C691 C692 1.355 . S
C691 C693 1.415 . S
C692 C691 1.355 . S
C692 C694 1.419 . S
C693 C688 1.425 . S
C693 C690 1.409 . S
C693 C691 1.415 . S
C694 H684 0.930 . S
C694 C692 1.419 . S
C694 C695 1.362 . S
C695 H685 0.930 . S
C695 C688 1.409 . S
C695 C694 1.362 . S
H696 C702 0.930 . S
H697 C705 0.930 . S
H698 C706 0.930 . S
H699 C707 0.930 . S
H700 C710 0.930 . S
H701 C711 0.930 . S
C702 H696 0.930 . S
C702 C703 1.355 . S
C702 C704 1.415 . S
C703 C702 1.355 . S
C703 C705 1.419 . S
C704 C702 1.415 . S
C704 C709 1.425 . S
C704 C711 1.409 . S
C705 H697 0.930 . S
C705 C703 1.419 . S
C705 C706 1.362 . S
C706 H698 0.930 . S
C706 C705 1.362 . S
C706 C709 1.409 . S
C707 H699 0.930 . S
C707 C708 1.355 . S
C707 C709 1.415 . S
C708 C707 1.355 . S
C708 C710 1.419 . S
C709 C704 1.425 . S
C709 C706 1.409 . S
C709 C707 1.415 . S
C710 H700 0.930 . S
C710 C708 1.419 . S
C710 C711 1.362 . S
C711 H701 0.930 . S
C711 C704 1.409 . S
C711 C710 1.362 . S
H712 C718 0.930 . S
H713 C721 0.930 . S
H714 C722 0.930 1_556 S
H715 C723 0.928 . S
H716 C726 0.930 . S
H717 C727 0.930 . S
C718 H712 0.930 . S
C718 C719 1.355 . S
C718 C720 1.415 . S
C719 C718 1.355 . S
C719 C721 1.419 . S
C720 C718 1.415 . S
C720 C725 1.425 . S
C720 C727 1.409 . S
C721 H713 0.930 . S
C721 C719 1.419 . S
C721 C722 1.362 . S
C722 H714 0.930 1_554 S
C722 C721 1.362 . S
C722 C725 1.409 . S
C723 H715 0.928 . S
C723 C724 1.355 . S
C723 C725 1.415 . S
C724 C723 1.355 . S
C724 C726 1.419 . S
C725 C720 1.425 . S
C725 C722 1.409 . S
C725 C723 1.415 . S
C726 H716 0.930 . S
C726 C724 1.419 . S
C726 C727 1.362 . S
C727 H717 0.930 . S
C727 C720 1.409 . S
C727 C726 1.362 . S
H728 C734 0.930 . S
H729 C737 0.930 . S
H730 C738 0.930 . S
H731 C739 0.930 . S
H732 C742 0.930 . S
H733 C743 0.930 . S
C734 H728 0.930 . S
C734 C735 1.355 . S
C734 C736 1.415 . S
C735 C734 1.355 . S
C735 C737 1.419 . S
C736 C734 1.415 . S
C736 C741 1.425 . S
C736 C743 1.409 . S
C737 H729 0.930 . S
C737 C735 1.419 . S
C737 C738 1.362 . S
C738 H730 0.930 . S
C738 C737 1.362 . S
C738 C741 1.409 . S
C739 H731 0.930 . S
C739 C740 1.355 . S
C739 C741 1.415 . S
C740 C739 1.355 . S
C740 C742 1.419 . S
C741 C736 1.425 . S
C741 C738 1.409 . S
C741 C739 1.415 . S
C742 H732 0.930 . S
C742 C740 1.419 . S
C742 C743 1.362 . S
C743 H733 0.930 . S
C743 C736 1.409 . S
C743 C742 1.362 . S
H744 C750 0.930 . S
H745 C753 0.930 . S
H746 C754 0.930 . S
H747 C755 0.930 . S
H748 C758 0.930 1_454 S
H749 C759 0.930 1_455 S
C750 H744 0.930 . S
C750 C751 1.355 . S
C750 C752 1.415 . S
C751 C750 1.355 . S
C751 C753 1.419 . S
C752 C750 1.415 . S
C752 C757 1.425 . S
C752 C759 1.409 . S
C753 H745 0.930 . S
C753 C751 1.419 . S
C753 C754 1.362 . S
C754 H746 0.930 . S
C754 C753 1.362 . S
C754 C757 1.409 . S
C755 H747 0.930 . S
C755 C756 1.355 . S
C755 C757 1.415 . S
C756 C755 1.355 . S
C756 C758 1.419 . S
C757 C752 1.425 . S
C757 C754 1.409 . S
C757 C755 1.415 . S
C758 H748 0.930 1_656 S
C758 C756 1.419 . S
C758 C759 1.362 . S
C759 H749 0.930 1_655 S
C759 C752 1.409 . S
C759 C758 1.362 . S
H760 C766 0.930 . S
H761 C769 0.930 1_556 S
H762 C770 0.930 1_556 S
H763 C771 0.930 . S
H764 C774 0.930 . S
H765 C775 0.930 . S
C766 H760 0.930 . S
C766 C767 1.355 . S
C766 C768 1.415 . S
C767 C766 1.355 . S
C767 C769 1.419 . S
C768 C766 1.415 . S
C768 C773 1.425 . S
C768 C775 1.409 . S
C769 H761 0.930 1_554 S
C769 C767 1.419 . S
C769 C770 1.362 . S
C770 H762 0.930 1_554 S
C770 C769 1.362 . S
C770 C773 1.409 . S
C771 H763 0.930 . S
C771 C772 1.355 . S
C771 C773 1.415 . S
C772 C771 1.355 . S
C772 C774 1.419 . S
C773 C768 1.425 . S
C773 C770 1.409 . S
C773 C771 1.415 . S
C774 H764 0.930 . S
C774 C772 1.419 . S
C774 C775 1.362 . S
C775 H765 0.930 . S
C775 C768 1.409 . S
C775 C774 1.362 . S
H776 C782 0.930 . S
H777 C785 0.930 . S
H778 C786 0.930 . S
H779 C787 0.930 . S
H780 C790 0.930 . S
H781 C791 0.930 . S
C782 H776 0.930 . S
C782 C783 1.355 . S
C782 C784 1.415 . S
C783 C782 1.355 . S
C783 C785 1.419 . S
C784 C782 1.415 . S
C784 C789 1.425 . S
C784 C791 1.409 . S
C785 H777 0.930 . S
C785 C783 1.419 . S
C785 C786 1.362 . S
C786 H778 0.930 . S
C786 C785 1.362 . S
C786 C789 1.409 . S
C787 H779 0.930 . S
C787 C788 1.355 . S
C787 C789 1.415 . S
C788 C787 1.355 . S
C788 C790 1.419 . S
C789 C784 1.425 . S
C789 C786 1.409 . S
C789 C787 1.415 . S
C790 H780 0.930 . S
C790 C788 1.419 . S
C790 C791 1.362 . S
C791 H781 0.930 . S
C791 C784 1.409 . S
C791 C790 1.362 . S
H792 C798 0.930 . S
H793 C801 0.930 . S
H794 C802 0.930 . S
H795 C803 0.930 . S
H796 C806 0.930 . S
H797 C807 0.930 . S
C798 H792 0.930 . S
C798 C799 1.355 . S
C798 C800 1.415 . S
C799 C798 1.355 . S
C799 C801 1.419 . S
C800 C798 1.415 . S
C800 C805 1.425 . S
C800 C807 1.409 . S
C801 H793 0.930 . S
C801 C799 1.419 . S
C801 C802 1.362 . S
C802 H794 0.930 . S
C802 C801 1.362 . S
C802 C805 1.409 . S
C803 H795 0.930 . S
C803 C804 1.355 . S
C803 C805 1.415 . S
C804 C803 1.355 . S
C804 C806 1.419 . S
C805 C800 1.425 . S
C805 C802 1.409 . S
C805 C803 1.415 . S
C806 H796 0.930 . S
C806 C804 1.419 . S
C806 C807 1.362 . S
C807 H797 0.930 . S
C807 C800 1.409 . S
C807 C806 1.362 . S
C431 C1 2.298 . S
C436 C288 2.329 . S
C447 C67 2.272 . S
C452 C330 2.309 . S
C468 C360 1.044 . S
C463 C97 1.038 . S
C479 C133 1.073 . S
C484 C394 1.065 . S
C500 C351 1.875 . S
C495 C25 1.834 . S
C516 C305 1.861 . S
C511 C37 1.826 . S
C532 C398 1.413 . S
C527 C103 1.375 . S
C548 C364 1.435 . S
C543 C109 1.407 . S
C559 C31 2.202 . S
C564 C419 2.238 . S
C580 C326 1.150 . S
C575 C73 1.102 . S
C591 C139 1.194 . S
C596 C301 1.203 . S
C607 C61 2.143 . S
C612 C385 2.188 . S
C628 C317 2.336 . S
C623 C175 2.328 . S
C639 C181 2.244 . S
C644 C339 2.293 . S
C655 C247 1.089 . S
C660 C369 1.090 . S
C671 C277 1.093 . S
C676 C403 1.080 . S
C687 C145 1.863 . S
C692 C322 1.873 . S
C708 C296 1.859 . S
C703 C211 1.808 . S
C724 C407 1.394 . S
C719 C217 1.372 . S
C740 C373 1.448 . S
C735 C283 1.439 . S
C751 C169 2.219 . S
C756 C390 2.218 . S
C772 C335 1.207 . S
C767 C241 1.209 . S
C788 C292 1.203 . S
C783 C253 1.185 . S
C799 C205 2.146 . S
C804 C356 2.197 . S
