# Generated by pormake.
# Topology tsx, (6,3)-cn, num edge types: 1
# Building blocks:
#     Node 0, Type 0, BuildingBlock: JUFBIX_clean_sbu_0, # of connection points: 6
#     Node 1, Type 0, BuildingBlock: JUFBIX_clean_sbu_0, # of connection points: 6
#     Node 2, Type 1, BuildingBlock: PAMTOO_clean_linker_0, # of connection points: 3
#     Node 3, Type 1, BuildingBlock: PAMTOO_clean_linker_0, # of connection points: 3
#     Node 4, Type 1, BuildingBlock: PAMTOO_clean_linker_0, # of connection points: 3
#     Node 5, Type 1, BuildingBlock: PAMTOO_clean_linker_0, # of connection points: 3
#     Edge 6, Type (0, 1), BuildingBlock: FUNLAD_clean_linker_1, # of connection points: 2
#     Edge 7, Type (0, 1), BuildingBlock: FUNLAD_clean_linker_1, # of connection points: 2
#     Edge 8, Type (0, 1), BuildingBlock: FUNLAD_clean_linker_1, # of connection points: 2
#     Edge 9, Type (0, 1), BuildingBlock: FUNLAD_clean_linker_1, # of connection points: 2
#     Edge 10, Type (0, 1), BuildingBlock: FUNLAD_clean_linker_1, # of connection points: 2
#     Edge 11, Type (0, 1), BuildingBlock: FUNLAD_clean_linker_1, # of connection points: 2
#     Edge 12, Type (0, 1), BuildingBlock: FUNLAD_clean_linker_1, # of connection points: 2
#     Edge 13, Type (0, 1), BuildingBlock: FUNLAD_clean_linker_1, # of connection points: 2
#     Edge 14, Type (0, 1), BuildingBlock: FUNLAD_clean_linker_1, # of connection points: 2
#     Edge 15, Type (0, 1), BuildingBlock: FUNLAD_clean_linker_1, # of connection points: 2
#     Edge 16, Type (0, 1), BuildingBlock: FUNLAD_clean_linker_1, # of connection points: 2
#     Edge 17, Type (0, 1), BuildingBlock: FUNLAD_clean_linker_1, # of connection points: 2
# Relax obj value: 0.109
# Max RMSD: 0.125
# Mean RMSD: 0.121
data_MOF--net-tsx--node1-JUFBIX_clean_sbu_0--node2-PAMTOO_clean_linker_0--edge1-FUNLAD_clean_linker_1
_symmetry_space_group_name_H-M    P1
_symmetry_Int_Tables_number       1
_symmetry_cell_setting            triclinic
loop_
_symmetry_equiv_pos_as_xyz
'x, y, z'
_cell_length_a     20.885271
_cell_length_b     24.519406
_cell_length_c     34.243834
_cell_angle_alpha  84.623857
_cell_angle_beta   89.849043
_cell_angle_gamma 99.620462
loop_
_atom_site_label
_atom_site_type_symbol
_atom_site_fract_x
_atom_site_fract_y
_atom_site_fract_z
_atom_type_partial_charge
Co0 Co 0.09344 1.00913 0.00651 0.0
C1 C 0.05015 0.03514 0.93159 0.0
Co2 Co 1.01008 0.05456 0.00493 0.0
C3 C 0.17048 0.9245 -0.00819 0.0
C4 C 0.22014 0.98595 0.02651 0.0
N5 N 0.16397 0.97171 0.00775 0.0
N6 N 0.22852 0.90901 -0.00031 0.0
C7 C 0.25992 0.94761 0.0216 0.0
H8 H 0.1332 0.90165 0.97491 0.0
H9 H 0.23108 0.02153 0.04326 0.0
C10 C 0.05318 0.02984 0.07965 0.0
N11 N 0.93967 0.09164 0.00528 0.0
C12 C 0.93314 0.14182 0.98738 0.0
C13 C 0.88499 0.07512 0.02731 0.0
N14 N 0.87705 0.15746 -0.00219 0.0
C15 C 0.84634 0.11537 0.02273 0.0
C16 C 0.97399 0.93972 0.01035 0.0
O17 O 0.0953 1.0086 0.06212 0.0
O18 O 1.01038 0.0507 0.06006 0.0
O19 O 0.95276 0.98552 0.00725 0.0
O20 O 0.03487 0.94005 0.01124 0.0
O21 O 1.01019 0.05823 0.94961 0.0
H22 H 0.87454 0.03675 0.04627 0.0
H23 H 0.96957 0.16712 0.96785 0.0
O24 O 0.09094 1.01072 0.95086 0.0
O25 O 0.15094 0.07842 0.00193 0.0
O26 O 0.06855 0.12339 0.00281 0.0
C27 C 0.12952 0.12394 0.00173 0.0
H28 H 0.30745 0.94763 0.03408 0.0
H29 H 0.79952 0.11361 0.03682 0.0
Co30 Co 0.5344 0.48171 0.4973 0.0
C31 C 0.49321 0.52909 0.42586 0.0
Co32 Co 0.47341 0.54694 0.50204 0.0
C33 C 0.64132 0.41747 0.4993 0.0
C34 C 0.55544 0.37748 0.47295 0.0
N35 N 0.57959 0.42353 0.49034 0.0
N36 N 0.65599 0.36924 0.48858 0.0
C37 C 0.60196 0.34415 0.47189 0.0
H38 H 0.67525 0.44815 0.51283 0.0
H39 H 0.5075 0.36921 0.46072 0.0
C40 C 0.51471 0.49996 0.57329 0.0
N41 N 0.42927 0.60509 0.5098 0.0
C42 C 0.38176 0.62513 0.48914 0.0
C43 C 0.44299 0.63932 0.53842 0.0
N44 N 0.36518 0.67008 0.50406 0.0
C45 C 0.40384 0.67908 0.53504 0.0
C46 C 0.39835 0.44487 0.50409 0.0
O47 O 0.54459 0.47162 0.55248 0.0
O48 O 0.48028 0.53314 0.55696 0.0
O49 O 0.39481 0.49604 0.50407 0.0
O50 O 0.4538 0.43008 0.5019 0.0
O51 O 0.46689 0.55943 0.44698 0.0
H52 H 0.48078 0.63677 0.55974 0.0
H53 H 0.36089 0.60807 0.46308 0.0
O54 O 0.52422 0.49276 0.442 0.0
O55 O 0.61335 0.53445 0.49346 0.0
O56 O 0.55244 0.59782 0.50019 0.0
C57 C 0.6084 0.58487 0.49652 0.0
H58 H 0.59708 0.30566 0.45823 0.0
H59 H 0.40614 0.71336 0.55298 0.0
H60 H 0.18681 1.00423 0.37687 0.0
H61 H 0.07054 0.13345 0.37417 0.0
H62 H 0.08264 0.02846 0.48067 0.0
H63 H 0.94836 0.05224 0.45688 0.0
C64 C 0.96373 0.09504 0.44256 0.0
O65 O 0.0298 0.11107 0.44679 0.0
H66 H 0.95168 0.09521 0.41092 0.0
C67 C 0.15502 0.02654 0.39182 0.0
C68 C 0.13698 1.01037 0.43129 0.0
C69 C 0.13038 0.06988 0.37075 0.0
C70 C 0.09014 0.09976 0.38999 0.0
C71 C 0.07276 0.08484 0.42956 0.0
C72 C 0.09678 0.04054 0.45028 0.0
H73 H 0.0513 0.13219 0.62668 0.0
H74 H 0.91469 0.98042 0.62471 0.0
H75 H 1.00802 0.06035 0.51807 0.0
H76 H 0.86672 1.00623 0.50895 0.0
C77 C 0.86451 0.97502 0.53483 0.0
O78 O 0.92613 0.97491 0.5492 0.0
H79 H 0.83193 0.98584 0.55762 0.0
C80 C 0.02461 0.10036 0.61038 0.0
C81 C 0.03439 0.10252 0.56957 0.0
C82 C 0.98209 0.05617 0.63061 0.0
C83 C 0.94755 1.01484 0.60954 0.0
C84 C 0.95693 1.01654 0.56895 0.0
C85 C 1.00042 0.06006 0.5492 0.0
H86 H 0.68839 0.47556 0.87003 0.0
H87 H 0.58143 0.61094 0.85807 0.0
H88 H 0.61011 0.53239 0.97258 0.0
H89 H 0.47406 0.56386 0.95589 0.0
C90 C 0.49114 0.60066 0.93472 0.0
O91 O 0.55816 0.61067 0.93277 0.0
H92 H 0.47124 0.59258 0.90529 0.0
C93 C 0.66365 0.50458 0.88359 0.0
C94 C 0.65519 0.50032 0.9246 0.0
C95 C 0.63607 0.54312 0.85929 0.0
C96 C 0.60196 0.57989 0.87627 0.0
C97 C 0.59251 0.57586 0.917 0.0
C98 C 0.61842 0.53573 0.94112 0.0
H99 H 0.62257 0.62048 0.12445 0.0
H100 H 0.4617 0.4886 0.11393 0.0
H101 H 0.53777 0.59479 0.0119 0.0
H102 H 0.38778 0.55349 0.01047 0.0
C103 C 0.3884 0.51897 0.03377 0.0
O104 O 0.45115 0.50875 0.03817 0.0
H105 H 0.36919 0.53073 0.06159 0.0
C106 C 0.58812 0.59695 0.10616 0.0
C107 C 0.58704 0.61235 0.0656 0.0
C108 C 0.5425 0.55325 0.12399 0.0
C109 C 0.49637 0.5234 0.10082 0.0
C110 C 0.49481 0.53838 0.0604 0.0
C111 C 0.53948 0.58321 0.04302 0.0
H112 H 0.2275 0.17402 0.00206 0.0
C113 C 0.17592 0.17613 0.00291 0.0
H114 H 0.10551 0.22686 0.01086 0.0
H115 H 0.28696 0.39451 0.10775 0.0
H116 H 0.21143 0.34558 0.15813 0.0
H117 H 0.13239 0.26343 0.14424 0.0
H118 H 0.12839 0.22968 0.07988 0.0
C119 C 0.15685 0.2247 0.00802 0.0
C120 C 0.20495 0.2744 0.01585 0.0
C121 C 0.20702 0.29339 0.05377 0.0
C122 C 0.25333 0.34026 0.06194 0.0
C123 C 0.25355 0.35868 0.09997 0.0
C124 C 0.21028 0.33107 0.1292 0.0
C125 C 0.16571 0.28488 0.12137 0.0
C126 C 0.16391 0.26602 0.08421 0.0
H127 H 0.30933 0.4733 -0.00034 0.0
C128 C 0.3447 0.46807 0.02234 0.0
H129 H 0.37841 0.41294 0.06525 0.0
H130 H 0.21082 0.25159 0.93927 0.0
H131 H 0.29077 0.29661 0.88992 0.0
H132 H 0.37689 0.37283 0.90559 0.0
H133 H 0.38274 0.40525 0.97038 0.0
C134 C 0.34542 0.41751 0.04111 0.0
C135 C 0.29792 0.36788 0.03225 0.0
C136 C 0.29704 0.34787 -0.00539 0.0
C137 C 0.24944 0.30198 0.98613 0.0
C138 C 0.24741 0.28483 0.94773 0.0
C139 C 0.29282 0.3105 0.91905 0.0
C140 C 0.34114 0.35356 0.92783 0.0
C141 C 0.34356 0.37211 0.9651 0.0
H142 H 0.21407 0.82759 0.97709 0.0
C143 C 0.24977 0.85971 0.9882 0.0
H144 H 0.34865 0.88438 0.00105 0.0
H145 H 0.43035 0.64914 0.02359 0.0
H146 H 0.44096 0.67766 0.08933 0.0
H147 H 0.40215 0.76248 0.10599 0.0
H148 H 0.3527 0.81916 0.0569 0.0
C149 C 0.31238 0.8528 0.99003 0.0
C150 C 0.33425 0.80094 0.97965 0.0
C151 C 0.36321 0.76821 0.00874 0.0
C152 C 0.38572 0.71931 -0.00085 0.0
C153 C 0.41338 0.68704 0.02899 0.0
C154 C 0.41947 0.70282 0.06699 0.0
C155 C 0.39764 0.75055 0.07635 0.0
C156 C 0.36955 0.78285 0.04778 0.0
H157 H 0.50223 0.6858 0.95545 0.0
C158 C 0.46716 0.65059 0.94776 0.0
H159 H 0.36835 0.618 0.94116 0.0
H160 H 0.28946 0.85772 0.91521 0.0
H161 H 0.27833 0.82844 0.84969 0.0
H162 H 0.3123 0.74124 0.83404 0.0
H163 H 0.35848 0.68322 0.88383 0.0
C164 C 0.40339 0.65249 0.94989 0.0
C165 C 0.37928 0.70315 0.96046 0.0
C166 C 0.35004 0.73559 0.93144 0.0
C167 C 0.32867 0.7851 0.94078 0.0
C168 C 0.30381 0.81851 0.9104 0.0
C169 C 0.29775 0.80247 0.87244 0.0
C170 C 0.317 0.75345 0.86361 0.0
C171 C 0.34324 0.72043 0.89255 0.0
H172 H 0.94844 0.84818 0.01929 0.0
C173 C 0.92854 0.88646 0.01453 0.0
H174 H 0.84327 0.92241 0.01137 0.0
H175 H 0.72145 0.65966 0.98868 0.0
H176 H 0.76982 0.67938 0.92334 0.0
H177 H 0.84038 0.76906 0.90371 0.0
H178 H 0.86335 0.83945 0.94951 0.0
C179 C 0.86382 0.88437 0.01473 0.0
C180 C 0.81873 0.83134 0.02532 0.0
C181 C 0.80496 0.79109 -0.00199 0.0
C182 C 0.76302 0.73989 0.00904 0.0
C183 C 0.75167 0.69973 0.9816 0.0
C184 C 0.77937 0.71043 0.94402 0.0
C185 C 0.81919 0.76089 0.933 0.0
C186 C 0.83211 0.80088 0.95957 0.0
H187 H 0.61587 0.68583 0.02246 0.0
C188 C 0.6327 0.66085 0.04702 0.0
H189 H 0.71111 0.65027 0.08423 0.0
H190 H 0.8335 0.90055 0.0842 0.0
H191 H 0.78209 0.88237 0.14873 0.0
H192 H 0.70758 0.79453 0.16744 0.0
H193 H 0.68426 0.72431 0.12182 0.0
C194 C 0.69316 0.6754 0.06024 0.0
C195 C 0.73422 0.72963 0.04715 0.0
C196 C 0.74683 0.77052 0.07409 0.0
C197 C 0.78909 0.82141 0.06316 0.0
C198 C 0.80135 0.86129 0.09082 0.0
C199 C 0.77221 0.8514 0.12801 0.0
C200 C 0.73034 0.80193 0.13856 0.0
C201 C 0.71757 0.76187 0.11207 0.0
H202 H 0.88188 0.23481 0.96004 0.0
C203 C 0.85598 0.20897 0.98457 0.0
H204 H 0.78116 0.20283 0.02741 0.0
H205 H 0.7701 0.46063 0.00865 0.0
H206 H 0.81563 0.45004 0.07353 0.0
H207 H 0.84697 0.3611 0.09942 0.0
H208 H 0.83311 0.28219 0.06058 0.0
C209 C 0.80563 0.22613 0.00157 0.0
C210 C 0.7836 0.27879 0.98674 0.0
C211 C 0.79107 0.32419 0.0101 0.0
C212 C 0.77273 0.37545 -0.00473 0.0
C213 C 0.78246 0.42061 0.01871 0.0
C214 C 0.80872 0.41513 0.05594 0.0
C215 C 0.82638 0.36505 0.07052 0.0
C216 C 0.81802 0.32004 0.04795 0.0
H217 H 0.65055 0.43629 0.97536 0.0
C218 C 0.67922 0.45539 0.94961 0.0
H219 H 0.76232 0.4546 0.91443 0.0
H220 H 0.753 0.19725 0.93693 0.0
H221 H 0.7055 0.2073 0.87277 0.0
H222 H 0.67607 0.29674 0.84641 0.0
H223 H 0.69356 0.37639 0.88424 0.0
C224 C 0.73251 0.43525 0.93963 0.0
C225 C 0.74656 0.38091 0.95727 0.0
C226 C 0.73685 0.33485 0.93451 0.0
C227 C 0.75475 0.28357 0.94941 0.0
C228 C 0.74229 0.23772 0.9266 0.0
C229 C 0.71451 0.24276 0.88979 0.0
C230 C 0.69789 0.29308 0.87497 0.0
C231 C 0.70853 0.33861 0.89697 0.0
H232 H 0.71419 0.61491 0.50153 0.0
C233 C 0.66679 0.62758 0.49953 0.0
H234 H 0.61311 0.69272 0.50276 0.0
H235 H 0.7807 0.84332 0.61037 0.0
H236 H 0.69856 0.79413 0.65685 0.0
H237 H 0.62363 0.71132 0.63969 0.0
H238 H 0.63063 0.6771 0.5759 0.0
C239 C 0.66092 0.68068 0.50342 0.0
C240 C 0.71502 0.72273 0.51575 0.0
C241 C 0.71166 0.74134 0.55357 0.0
C242 C 0.75547 0.78863 0.56363 0.0
C243 C 0.74934 0.80727 0.6012 0.0
C244 C 0.70223 0.77947 0.62821 0.0
C245 C 0.65994 0.73294 0.61852 0.0
C246 C 0.66438 0.71387 0.58173 0.0
H247 H 0.80381 0.9174 0.49779 0.0
C248 C 0.83588 0.91877 0.52276 0.0
H249 H 0.87081 0.87273 0.57075 0.0
H250 H 0.73766 0.69562 0.44178 0.0
H251 H 0.82561 0.73996 0.3972 0.0
H252 H 0.90591 0.81826 0.41629 0.0
H253 H 0.89793 0.85344 0.47981 0.0
C254 C 0.84197 0.87125 0.54439 0.0
C255 C 0.8029 0.81708 0.53585 0.0
C256 C 0.81004 0.79534 0.49938 0.0
C257 C 0.76526 0.74871 0.489 0.0
C258 C 0.77124 0.72997 0.45152 0.0
C259 C 0.82146 0.7551 0.42564 0.0
C260 C 0.86657 0.7993 0.43634 0.0
C261 C 0.86118 0.81936 0.47274 0.0
H262 H 0.762 0.38274 0.49242 0.0
C263 C 0.71874 0.35181 0.49001 0.0
H264 H 0.68207 0.2671 0.48522 0.0
H265 H 0.93133 0.24233 0.38561 0.0
H266 H 0.8844 0.29653 0.33407 0.0
H267 H 0.79334 0.34443 0.34823 0.0
H268 H 0.74872 0.33835 0.41417 0.0
C269 C 0.7249 0.29877 0.48609 0.0
C270 C 0.78864 0.28105 0.47958 0.0
C271 C 0.81529 0.28608 0.44102 0.0
C272 C 0.86801 0.25852 0.4329 0.0
C273 C 0.8919 0.2627 0.39376 0.0
C274 C 0.86528 0.29365 0.36374 0.0
C275 C 0.814 0.3206 0.37171 0.0
C276 C 0.78888 0.31677 0.40976 0.0
H277 H 0.88045 0.11521 0.47578 0.0
C278 C 0.92582 0.13359 0.46061 0.0
H279 H 0.98405 0.20712 0.43619 0.0
H280 H 0.75407 0.26873 0.55716 0.0
H281 H 0.80596 0.21979 0.60999 0.0
H282 H 0.90059 0.17561 0.59644 0.0
H283 H 0.94327 0.17938 0.53003 0.0
C284 C 0.94075 0.18915 0.45346 0.0
C285 C 0.89388 0.22584 0.46342 0.0
C286 C 0.87129 0.22535 0.5026 0.0
C287 C 0.81787 0.25216 0.51055 0.0
C288 C 0.79463 0.24915 0.54966 0.0
C289 C 0.82413 0.22145 0.58019 0.0
C290 C 0.87735 0.1965 0.57257 0.0
C291 C 0.90101 0.19849 0.5343 0.0
H292 H 0.29249 0.41811 0.51171 0.0
C293 C 0.33831 0.40329 0.50861 0.0
H294 H 0.38451 0.33278 0.51009 0.0
H295 H 0.16566 0.18977 0.62317 0.0
H296 H 0.25289 0.21 0.66877 0.0
H297 H 0.35301 0.27528 0.64838 0.0
H298 H 0.36651 0.32047 0.58213 0.0
C299 C 0.33888 0.34835 0.51153 0.0
C300 C 0.27891 0.30785 0.52291 0.0
C301 C 0.27178 0.28172 0.56174 0.0
C302 C 0.2137 0.2447 0.57361 0.0
C303 C 0.20821 0.21893 0.61259 0.0
C304 C 0.25807 0.23002 0.63911 0.0
C305 C 0.31445 0.2667 0.62762 0.0
C306 C 0.32154 0.29233 0.58946 0.0
H307 H 0.11123 0.13361 0.52431 0.0
C308 C 0.08477 0.14542 0.5487 0.0
H309 H 0.07467 0.20951 0.5842 0.0
H310 H 0.27945 0.34733 0.44555 0.0
H311 H 0.19171 0.32797 0.39981 0.0
H312 H 0.08933 0.26655 0.42092 0.0
H313 H 0.07397 0.2236 0.48793 0.0
C314 C 0.1014 0.19669 0.56039 0.0
C315 C 0.16271 0.23381 0.54662 0.0
C316 C 0.17016 0.25938 0.5076 0.0
C317 C 0.22865 0.29605 0.49564 0.0
C318 C 0.23553 0.32008 0.45633 0.0
C319 C 0.18566 0.30918 0.42977 0.0
C320 C 0.128 0.27446 0.44166 0.0
C321 C 0.11996 0.24988 0.48012 0.0
H322 H 0.30595 0.70044 0.45703 0.0
C323 C 0.32182 0.70525 0.48691 0.0
H324 H 0.31635 0.74991 0.53645 0.0
H325 H 0.27485 0.94326 0.39646 0.0
H326 H 0.38521 0.93998 0.37621 0.0
H327 H 0.44434 0.86864 0.40702 0.0
H328 H 0.39327 0.79991 0.45785 0.0
C329 C 0.30406 0.74614 0.50597 0.0
C330 C 0.26807 0.78835 0.48652 0.0
C331 C 0.29934 0.82882 0.45715 0.0
C332 C 0.2658 0.87072 0.43999 0.0
C333 C 0.29794 0.91046 0.41054 0.0
C334 C 0.36145 0.90922 0.39869 0.0
C335 C 0.39468 0.86902 0.416 0.0
C336 C 0.36445 0.82943 0.44501 0.0
H337 H 0.17059 0.96291 0.48354 0.0
C338 C 0.1597 0.96178 0.45257 0.0
H339 H 0.15539 0.9146 0.40369 0.0
H340 H 0.19455 0.71754 0.54222 0.0
H341 H 0.08433 0.72173 0.56299 0.0
H342 H 0.0264 0.79471 0.53325 0.0
H343 H 0.07846 0.86416 0.48273 0.0
C344 C 0.16776 0.917 0.43434 0.0
C345 C 0.20188 0.87307 0.45295 0.0
C346 C 0.17071 0.8329 0.48239 0.0
C347 C 0.20397 0.79058 0.4993 0.0
C348 C 0.17164 0.75075 0.52854 0.0
C349 C 0.10833 0.75258 0.54064 0.0
C350 C 0.07572 0.79368 0.52391 0.0
C351 C 0.10624 0.83341 0.49504 0.0
H352 H 1.01254 0.04502 0.13595 0.0
C353 C 0.05471 0.03363 0.12209 0.0
H354 H 0.1519 0.02133 0.12956 0.0
H355 H 0.17472 0.17319 0.27194 0.0
H356 H 0.24528 0.23212 0.22281 0.0
H357 H 0.25438 0.20444 0.15585 0.0
H358 H 0.19267 0.11803 0.13743 0.0
C359 C 0.10768 0.02898 0.14328 0.0
C360 C 0.10884 0.04181 0.18478 0.0
C361 C 0.14604 0.09207 0.19509 0.0
C362 C 0.1412 0.10785 0.23375 0.0
C363 C 0.17744 0.15893 0.24311 0.0
C364 C 0.21788 0.19319 0.21518 0.0
C365 C 0.22294 0.17764 0.17745 0.0
C366 C 0.18729 0.12789 0.16728 0.0
H367 H 0.18631 0.06634 0.31655 0.0
C368 C 0.14253 0.07842 0.3279 0.0
H369 H 0.04879 0.09444 0.31354 0.0
H370 H 0.03721 0.93972 0.17559 0.0
H371 H 0.96765 0.88036 0.22477 0.0
H372 H 0.95766 0.90837 0.29157 0.0
H373 H 1.01711 0.99572 0.30957 0.0
C374 C 0.09554 0.08771 0.30276 0.0
C375 C 0.0996 0.07305 0.2619 0.0
C376 C 0.06355 0.02215 0.25181 0.0
C377 C 0.06868 1.00626 0.21328 0.0
C378 C 0.03376 0.95444 0.20421 0.0
C379 C 0.99403 0.91977 0.23224 0.0
C380 C 0.98846 0.93551 0.26984 0.0
C381 C 0.02283 0.98591 0.27974 0.0
H382 H 0.08618 0.018 0.87418 0.0
C383 C 0.04942 0.03611 0.88857 0.0
H384 H 0.96855 0.0774 0.88085 0.0
H385 H 0.04358 0.17099 0.70554 0.0
H386 H 0.06111 0.25544 0.73846 0.0
H387 H 0.05418 0.25153 0.81063 0.0
H388 H 0.02929 0.16316 0.8503 0.0
C389 C 1.00464 0.05795 0.86699 0.0
C390 C 1.00608 0.05992 0.82349 0.0
C391 C 1.02079 0.11196 0.80081 0.0
C392 C 0.02572 0.11416 0.75927 0.0
C393 C 0.04006 0.16677 0.73725 0.0
C394 C 0.0501 0.21563 0.75576 0.0
C395 C 0.04613 0.21344 0.79638 0.0
C396 C 0.03172 0.16237 0.8188 0.0
H397 H 0.92746 0.03275 0.68692 0.0
C398 C 0.97433 0.05179 0.67385 0.0
H399 H 0.07201 0.08512 0.68486 0.0
H400 H 0.96711 0.95392 0.85789 0.0
H401 H 0.95306 0.86919 0.82532 0.0
H402 H 0.97084 0.87245 0.75382 0.0
H403 H 1.00125 0.96041 0.71443 0.0
C404 C 0.02432 0.06742 0.69727 0.0
C405 C 1.01624 0.06431 0.74056 0.0
C406 C 1.00122 1.01219 0.76326 0.0
C407 C 0.99439 1.01011 0.80471 0.0
C408 C 0.9757 0.95779 0.82651 0.0
C409 C 0.96703 0.90882 0.80816 0.0
C410 C 0.97678 0.91067 0.76789 0.0
C411 C 0.99379 0.96158 0.74557 0.0
H412 H 0.48641 0.51543 0.63228 0.0
C413 C 0.52181 0.49828 0.6159 0.0
H414 H 0.61276 0.47124 0.61797 0.0
H415 H 0.67961 0.62579 0.7579 0.0
H416 H 0.75203 0.6754 0.70598 0.0
H417 H 0.74926 0.64334 0.63975 0.0
H418 H 0.67342 0.56199 0.62484 0.0
C419 C 0.57413 0.48432 0.63423 0.0
C420 C 0.58449 0.49659 0.67559 0.0
C421 C 0.63037 0.54331 0.684 0.0
C422 C 0.63268 0.56128 0.72233 0.0
C423 C 0.67687 0.60957 0.72953 0.0
C424 C 0.7185 0.63859 0.69995 0.0
C425 C 0.71687 0.62059 0.66264 0.0
C426 C 0.6731 0.57381 0.65449 0.0
H427 H 0.68049 0.52366 0.80473 0.0
C428 C 0.64032 0.54075 0.81635 0.0
H429 H 0.54801 0.56179 0.80391 0.0
H430 H 0.4967 0.40168 0.66997 0.0
H431 H 0.42554 0.35075 0.72207 0.0
H432 H 0.42918 0.38179 0.78865 0.0
H433 H 0.50375 0.46382 0.80353 0.0
C434 C 0.59161 0.54977 0.79245 0.0
C435 C 0.58989 0.53176 0.75221 0.0
C436 C 0.54571 0.48378 0.74411 0.0
C437 C 0.5433 0.46601 0.70578 0.0
C438 C 0.49951 0.41752 0.69849 0.0
C439 C 0.45873 0.38772 0.72816 0.0
C440 C 0.46082 0.40518 0.76564 0.0
C441 C 0.50379 0.45248 0.77374 0.0
H442 H 0.458 0.56587 0.37042 0.0
C443 C 0.48718 0.53602 0.38292 0.0
H444 H 0.54465 0.47597 0.37134 0.0
H445 H 0.43491 0.42743 0.20535 0.0
H446 H 0.39512 0.34022 0.24401 0.0
H447 H 0.40597 0.3314 0.31595 0.0
H448 H 0.45716 0.40951 0.34965 0.0
C449 C 0.51684 0.50702 0.35912 0.0
C450 C 0.50905 0.51331 0.31583 0.0
C451 C 0.47818 0.46739 0.29666 0.0
C452 C 0.47093 0.47271 0.25525 0.0
C453 C 0.44107 0.42587 0.23678 0.0
C454 C 0.41803 0.37553 0.25861 0.0
C455 C 0.42419 0.37055 0.29911 0.0
C456 C 0.45383 0.41575 0.31807 0.0
H457 H 0.59099 0.54826 0.18105 0.0
C458 C 0.54406 0.54083 0.16701 0.0
H459 H 0.4423 0.52218 0.17648 0.0
H460 H 0.57841 0.60768 0.3423 0.0
H461 H 0.61156 0.6964 0.30433 0.0
H462 H 0.58731 0.7086 0.23388 0.0
H463 H 0.53148 0.63166 0.20088 0.0
C464 C 0.48995 0.52845 0.1896 0.0
C465 C 0.49392 0.52408 0.23316 0.0
C466 C 0.52241 0.57071 0.25255 0.0
C467 C 0.5323 0.56473 0.29368 0.0
C468 C 0.56626 0.61059 0.3116 0.0
C469 C 0.5861 0.66174 0.29006 0.0
C470 C 0.57276 0.66853 0.25038 0.0
C471 C 0.54121 0.62377 0.23171 0.0
loop_
_geom_bond_atom_site_label_1
_geom_bond_atom_site_label_2
_geom_bond_distance
_geom_bond_site_symmetry_2
_ccdc_geom_bond_type
Co0 N5 2.057 . S
Co0 O17 2.021 . S
Co0 O20 2.062 1_455 S
Co0 O24 2.117 1_564 S
Co0 O25 2.020 1_565 S
C1 O21 1.259 1_455 S
C1 O24 1.258 . S
Co2 N11 2.057 . S
Co2 O18 2.117 . S
Co2 O19 2.020 1_545 S
Co2 O21 2.021 1_554 S
Co2 O26 2.062 1_655 S
C3 N5 1.316 . S
C3 N6 1.347 . S
C3 H8 0.931 . S
C4 N5 1.375 1_556 S
C4 C7 1.350 . S
C4 H9 0.930 . S
N5 Co0 2.057 . S
N5 C3 1.316 . S
N5 C4 1.375 1_554 S
N6 C3 1.347 . S
N6 C7 1.373 1_554 S
C7 C4 1.350 . S
C7 N6 1.373 1_556 S
C7 H28 0.931 . S
H8 C3 0.931 . S
H9 C4 0.930 . S
C10 O17 1.259 1_545 S
C10 O18 1.258 1_455 S
N11 Co2 2.057 . S
N11 C12 1.316 1_554 S
N11 C13 1.375 . S
C12 N11 1.316 1_556 S
C12 N14 1.347 1_556 S
C12 H23 0.931 . S
C13 N11 1.375 . S
C13 C15 1.350 . S
C13 H22 0.930 . S
N14 C12 1.347 1_554 S
N14 C15 1.373 . S
C15 C13 1.350 . S
C15 N14 1.373 . S
C15 H29 0.931 . S
C16 O19 1.256 . S
C16 O20 1.255 . S
O17 Co0 2.021 . S
O17 C10 1.259 1_565 S
O18 Co2 2.117 . S
O18 C10 1.258 1_655 S
O19 Co2 2.020 1_565 S
O19 C16 1.256 . S
O20 Co0 2.062 1_655 S
O20 C16 1.255 . S
O21 C1 1.259 1_655 S
O21 Co2 2.021 1_556 S
H22 C13 0.930 . S
H23 C12 0.931 . S
O24 Co0 2.117 1_546 S
O24 C1 1.258 . S
O25 Co0 2.020 1_545 S
O25 C27 1.256 . S
O26 Co2 2.062 1_455 S
O26 C27 1.255 . S
C27 O25 1.256 . S
C27 O26 1.255 . S
H28 C7 0.931 . S
H29 C15 0.931 . S
Co30 N35 2.057 . S
Co30 O47 2.021 . S
Co30 O50 2.062 . S
Co30 O54 2.117 . S
Co30 O55 2.020 . S
C31 O51 1.259 . S
C31 O54 1.258 . S
Co32 N41 2.057 . S
Co32 O48 2.117 . S
Co32 O49 2.020 . S
Co32 O51 2.021 . S
Co32 O56 2.062 . S
C33 N35 1.316 . S
C33 N36 1.347 . S
C33 H38 0.931 . S
C34 N35 1.375 . S
C34 C37 1.350 . S
C34 H39 0.930 . S
N35 Co30 2.057 . S
N35 C33 1.316 . S
N35 C34 1.375 . S
N36 C33 1.347 . S
N36 C37 1.373 . S
C37 C34 1.350 . S
C37 N36 1.373 . S
C37 H58 0.931 . S
H38 C33 0.931 . S
H39 C34 0.930 . S
C40 O47 1.259 . S
C40 O48 1.258 . S
N41 Co32 2.057 . S
N41 C42 1.316 . S
N41 C43 1.375 . S
C42 N41 1.316 . S
C42 N44 1.347 . S
C42 H53 0.931 . S
C43 N41 1.375 . S
C43 C45 1.350 . S
C43 H52 0.930 . S
N44 C42 1.347 . S
N44 C45 1.373 . S
C45 C43 1.350 . S
C45 N44 1.373 . S
C45 H59 0.931 . S
C46 O49 1.256 . S
C46 O50 1.255 . S
O47 Co30 2.021 . S
O47 C40 1.259 . S
O48 Co32 2.117 . S
O48 C40 1.258 . S
O49 Co32 2.020 . S
O49 C46 1.256 . S
O50 Co30 2.062 . S
O50 C46 1.255 . S
O51 C31 1.259 . S
O51 Co32 2.021 . S
H52 C43 0.930 . S
H53 C42 0.931 . S
O54 Co30 2.117 . S
O54 C31 1.258 . S
O55 Co30 2.020 . S
O55 C57 1.256 . S
O56 Co32 2.062 . S
O56 C57 1.255 . S
C57 O55 1.256 . S
C57 O56 1.255 . S
H58 C37 0.931 . S
H59 C45 0.931 . S
H60 C67 0.929 . S
H61 C70 0.930 . S
H62 C72 0.929 . S
H63 C64 0.969 . S
C64 H63 0.969 . S
C64 O65 1.550 . S
C64 H66 0.973 . S
O65 C64 1.550 . S
O65 C71 1.412 . S
H66 C64 0.973 . S
C67 H60 0.929 . S
C67 C68 1.400 . S
C67 C69 1.364 . S
C68 C67 1.400 . S
C68 C72 1.377 . S
C69 C67 1.364 . S
C69 C70 1.374 1_465 S
C70 H61 0.930 . S
C70 C69 1.374 1_645 S
C70 C71 1.383 . S
C71 O65 1.412 . S
C71 C70 1.383 . S
C71 C72 1.394 1_645 S
C72 H62 0.929 . S
C72 C68 1.377 . S
C72 C71 1.394 1_465 S
H73 C80 0.929 . S
H74 C83 0.930 1_565 S
H75 C85 0.929 . S
H76 C77 0.969 . S
C77 H76 0.969 . S
C77 O78 1.550 . S
C77 H79 0.973 . S
O78 C77 1.550 . S
O78 C84 1.412 1_565 S
H79 C77 0.973 . S
C80 H73 0.929 . S
C80 C81 1.400 . S
C80 C82 1.364 . S
C81 C80 1.400 . S
C81 C85 1.377 . S
C82 C80 1.364 . S
C82 C83 1.374 1_455 S
C83 H74 0.930 1_545 S
C83 C82 1.374 1_655 S
C83 C84 1.383 . S
C84 O78 1.412 1_545 S
C84 C83 1.383 . S
C84 C85 1.394 1_655 S
C85 H75 0.929 . S
C85 C81 1.377 . S
C85 C84 1.394 1_455 S
H86 C93 0.929 . S
H87 C96 0.930 . S
H88 C98 0.929 1_554 S
H89 C90 0.969 . S
C90 H89 0.969 . S
C90 O91 1.550 . S
C90 H92 0.973 . S
O91 C90 1.550 . S
O91 C97 1.412 . S
H92 C90 0.973 . S
C93 H86 0.929 . S
C93 C94 1.400 . S
C93 C95 1.364 . S
C94 C93 1.400 . S
C94 C98 1.377 . S
C95 C93 1.364 . S
C95 C96 1.374 . S
C96 H87 0.930 . S
C96 C95 1.374 . S
C96 C97 1.383 . S
C97 O91 1.412 . S
C97 C96 1.383 . S
C97 C98 1.394 . S
C98 H88 0.929 1_556 S
C98 C94 1.377 . S
C98 C97 1.394 . S
H99 C106 0.929 . S
H100 C109 0.930 . S
H101 C111 0.929 . S
H102 C103 0.969 . S
C103 H102 0.969 . S
C103 O104 1.550 . S
C103 H105 0.973 . S
O104 C103 1.550 . S
O104 C110 1.412 . S
H105 C103 0.973 . S
C106 H99 0.929 . S
C106 C107 1.400 . S
C106 C108 1.364 . S
C107 C106 1.400 . S
C107 C111 1.377 . S
C108 C106 1.364 . S
C108 C109 1.374 . S
C109 H100 0.930 . S
C109 C108 1.374 . S
C109 C110 1.383 . S
C110 O104 1.412 . S
C110 C109 1.383 . S
C110 C111 1.394 . S
C111 H101 0.929 . S
C111 C107 1.377 . S
C111 C110 1.394 . S
H112 C113 0.951 . S
C113 H112 0.951 . S
C113 C119 1.265 . S
H114 C119 0.950 . S
H115 C123 0.949 . S
H116 C124 0.950 . S
H117 C125 0.951 . S
H118 C126 0.951 . S
C119 C113 1.265 . S
C119 H114 0.950 . S
C119 C120 1.478 . S
C120 C119 1.478 . S
C120 C121 1.397 . S
C120 C137 1.394 1_554 S
C121 C120 1.397 . S
C121 C122 1.438 . S
C121 C126 1.429 . S
C122 C121 1.438 . S
C122 C123 1.428 . S
C122 C135 1.394 . S
C123 H115 0.949 . S
C123 C122 1.428 . S
C123 C124 1.345 . S
C124 H116 0.950 . S
C124 C123 1.345 . S
C124 C125 1.424 . S
C125 H117 0.951 . S
C125 C124 1.424 . S
C125 C126 1.347 . S
C126 H118 0.951 . S
C126 C121 1.429 . S
C126 C125 1.347 . S
H127 C128 0.951 . S
C128 H127 0.951 . S
C128 C134 1.265 . S
H129 C134 0.950 . S
H130 C138 0.949 . S
H131 C139 0.950 . S
H132 C140 0.951 . S
H133 C141 0.951 . S
C134 C128 1.265 . S
C134 H129 0.950 . S
C134 C135 1.478 . S
C135 C122 1.394 . S
C135 C134 1.478 . S
C135 C136 1.397 1_554 S
C136 C135 1.397 1_556 S
C136 C137 1.438 . S
C136 C141 1.429 . S
C137 C120 1.394 1_556 S
C137 C136 1.438 . S
C137 C138 1.428 . S
C138 H130 0.949 . S
C138 C137 1.428 . S
C138 C139 1.345 . S
C139 H131 0.950 . S
C139 C138 1.345 . S
C139 C140 1.424 . S
C140 H132 0.951 . S
C140 C139 1.424 . S
C140 C141 1.347 . S
C141 H133 0.951 . S
C141 C136 1.429 . S
C141 C140 1.347 . S
H142 C143 0.951 . S
C143 H142 0.951 . S
C143 C149 1.265 . S
H144 C149 0.950 . S
H145 C153 0.949 . S
H146 C154 0.950 . S
H147 C155 0.951 . S
H148 C156 0.951 . S
C149 C143 1.265 . S
C149 H144 0.950 . S
C149 C150 1.478 . S
C150 C149 1.478 . S
C150 C151 1.397 . S
C150 C167 1.394 1_554 S
C151 C150 1.397 . S
C151 C152 1.438 . S
C151 C156 1.429 . S
C152 C151 1.438 . S
C152 C153 1.428 . S
C152 C165 1.391 . S
C153 H145 0.949 . S
C153 C152 1.428 . S
C153 C154 1.345 . S
C154 H146 0.950 . S
C154 C153 1.345 . S
C154 C155 1.424 . S
C155 H147 0.951 . S
C155 C154 1.424 . S
C155 C156 1.347 . S
C156 H148 0.951 . S
C156 C151 1.429 . S
C156 C155 1.347 . S
H157 C158 0.951 . S
C158 H157 0.951 . S
C158 C164 1.265 . S
H159 C164 0.950 . S
H160 C168 0.949 . S
H161 C169 0.950 . S
H162 C170 0.951 . S
H163 C171 0.951 . S
C164 C158 1.265 . S
C164 H159 0.950 . S
C164 C165 1.479 1_556 S
C165 C152 1.391 . S
C165 C164 1.479 1_554 S
C165 C166 1.399 1_554 S
C166 C165 1.399 1_556 S
C166 C167 1.438 . S
C166 C171 1.429 . S
C167 C150 1.394 1_556 S
C167 C166 1.438 . S
C167 C168 1.428 . S
C168 H160 0.949 . S
C168 C167 1.428 . S
C168 C169 1.345 . S
C169 H161 0.950 . S
C169 C168 1.345 . S
C169 C170 1.424 . S
C170 H162 0.951 . S
C170 C169 1.424 . S
C170 C171 1.347 . S
C171 H163 0.951 . S
C171 C166 1.429 . S
C171 C170 1.347 . S
H172 C173 0.951 . S
C173 H172 0.951 . S
C173 C179 1.265 . S
H174 C179 0.950 . S
H175 C183 0.949 . S
H176 C184 0.950 . S
H177 C185 0.951 . S
H178 C186 0.951 . S
C179 C173 1.265 . S
C179 H174 0.950 . S
C179 C180 1.478 . S
C180 C179 1.478 . S
C180 C181 1.397 1_554 S
C180 C197 1.394 . S
C181 C180 1.397 1_556 S
C181 C182 1.436 1_556 S
C181 C186 1.429 . S
C182 C181 1.436 1_554 S
C182 C183 1.404 1_554 S
C182 C195 1.418 . S
C183 H175 0.949 . S
C183 C182 1.404 1_556 S
C183 C184 1.345 . S
C184 H176 0.950 . S
C184 C183 1.345 . S
C184 C185 1.424 . S
C185 H177 0.951 . S
C185 C184 1.424 . S
C185 C186 1.347 . S
C186 H178 0.951 . S
C186 C181 1.429 . S
C186 C185 1.347 . S
H187 C188 0.951 . S
C188 H187 0.951 . S
C188 C194 1.265 . S
H189 C194 0.950 . S
H190 C198 0.949 . S
H191 C199 0.950 . S
H192 C200 0.951 . S
H193 C201 0.951 . S
C194 C188 1.265 . S
C194 H189 0.950 . S
C194 C195 1.478 . S
C195 C182 1.418 . S
C195 C194 1.478 . S
C195 C196 1.397 . S
C196 C195 1.397 . S
C196 C197 1.438 . S
C196 C201 1.429 . S
C197 C180 1.394 . S
C197 C196 1.438 . S
C197 C198 1.428 . S
C198 H190 0.949 . S
C198 C197 1.428 . S
C198 C199 1.345 . S
C199 H191 0.950 . S
C199 C198 1.345 . S
C199 C200 1.424 . S
C200 H192 0.951 . S
C200 C199 1.424 . S
C200 C201 1.347 . S
C201 H193 0.951 . S
C201 C196 1.429 . S
C201 C200 1.347 . S
H202 C203 0.951 . S
C203 H202 0.951 . S
C203 C209 1.265 1_556 S
H204 C209 0.950 . S
H205 C213 0.949 . S
H206 C214 0.950 . S
H207 C215 0.951 . S
H208 C216 0.951 . S
C209 C203 1.265 1_554 S
C209 H204 0.950 . S
C209 C210 1.478 1_554 S
C210 C209 1.478 1_556 S
C210 C211 1.397 1_556 S
C210 C227 1.394 . S
C211 C210 1.397 1_554 S
C211 C212 1.438 . S
C211 C216 1.429 . S
C212 C211 1.438 . S
C212 C213 1.428 . S
C212 C225 1.394 1_554 S
C213 H205 0.949 . S
C213 C212 1.428 . S
C213 C214 1.345 . S
C214 H206 0.950 . S
C214 C213 1.345 . S
C214 C215 1.424 . S
C215 H207 0.951 . S
C215 C214 1.424 . S
C215 C216 1.347 . S
C216 H208 0.951 . S
C216 C211 1.429 . S
C216 C215 1.347 . S
H217 C218 0.951 . S
C218 H217 0.951 . S
C218 C224 1.265 . S
H219 C224 0.950 . S
H220 C228 0.949 . S
H221 C229 0.950 . S
H222 C230 0.951 . S
H223 C231 0.951 . S
C224 C218 1.265 . S
C224 H219 0.950 . S
C224 C225 1.478 . S
C225 C212 1.394 1_556 S
C225 C224 1.478 . S
C225 C226 1.397 . S
C226 C225 1.397 . S
C226 C227 1.438 . S
C226 C231 1.429 . S
C227 C210 1.394 . S
C227 C226 1.438 . S
C227 C228 1.428 . S
C228 H220 0.949 . S
C228 C227 1.428 . S
C228 C229 1.345 . S
C229 H221 0.950 . S
C229 C228 1.345 . S
C229 C230 1.424 . S
C230 H222 0.951 . S
C230 C229 1.424 . S
C230 C231 1.347 . S
C231 H223 0.951 . S
C231 C226 1.429 . S
C231 C230 1.347 . S
H232 C233 0.951 . S
C233 H232 0.951 . S
C233 C239 1.265 . S
H234 C239 0.950 . S
H235 C243 0.949 . S
H236 C244 0.950 . S
H237 C245 0.951 . S
H238 C246 0.951 . S
C239 C233 1.265 . S
C239 H234 0.950 . S
C239 C240 1.478 . S
C240 C239 1.478 . S
C240 C241 1.397 . S
C240 C257 1.394 . S
C241 C240 1.397 . S
C241 C242 1.438 . S
C241 C246 1.429 . S
C242 C241 1.438 . S
C242 C243 1.428 . S
C242 C255 1.394 . S
C243 H235 0.949 . S
C243 C242 1.428 . S
C243 C244 1.345 . S
C244 H236 0.950 . S
C244 C243 1.345 . S
C244 C245 1.424 . S
C245 H237 0.951 . S
C245 C244 1.424 . S
C245 C246 1.347 . S
C246 H238 0.951 . S
C246 C241 1.429 . S
C246 C245 1.347 . S
H247 C248 0.951 . S
C248 H247 0.951 . S
C248 C254 1.265 . S
H249 C254 0.950 . S
H250 C258 0.949 . S
H251 C259 0.950 . S
H252 C260 0.951 . S
H253 C261 0.951 . S
C254 C248 1.265 . S
C254 H249 0.950 . S
C254 C255 1.478 . S
C255 C242 1.394 . S
C255 C254 1.478 . S
C255 C256 1.397 . S
C256 C255 1.397 . S
C256 C257 1.438 . S
C256 C261 1.429 . S
C257 C240 1.394 . S
C257 C256 1.438 . S
C257 C258 1.428 . S
C258 H250 0.949 . S
C258 C257 1.428 . S
C258 C259 1.345 . S
C259 H251 0.950 . S
C259 C258 1.345 . S
C259 C260 1.424 . S
C260 H252 0.951 . S
C260 C259 1.424 . S
C260 C261 1.347 . S
C261 H253 0.951 . S
C261 C256 1.429 . S
C261 C260 1.347 . S
H262 C263 0.951 . S
C263 H262 0.951 . S
C263 C269 1.265 . S
H264 C269 0.950 . S
H265 C273 0.949 . S
H266 C274 0.950 . S
H267 C275 0.951 . S
H268 C276 0.951 . S
C269 C263 1.265 . S
C269 H264 0.950 . S
C269 C270 1.478 . S
C270 C269 1.478 . S
C270 C271 1.397 . S
C270 C287 1.394 . S
C271 C270 1.397 . S
C271 C272 1.438 . S
C271 C276 1.429 . S
C272 C271 1.438 . S
C272 C273 1.428 . S
C272 C285 1.394 . S
C273 H265 0.949 . S
C273 C272 1.428 . S
C273 C274 1.345 . S
C274 H266 0.950 . S
C274 C273 1.345 . S
C274 C275 1.424 . S
C275 H267 0.951 . S
C275 C274 1.424 . S
C275 C276 1.347 . S
C276 H268 0.951 . S
C276 C271 1.429 . S
C276 C275 1.347 . S
H277 C278 0.951 . S
C278 H277 0.951 . S
C278 C284 1.265 . S
H279 C284 0.950 . S
H280 C288 0.949 . S
H281 C289 0.950 . S
H282 C290 0.951 . S
H283 C291 0.951 . S
C284 C278 1.265 . S
C284 H279 0.950 . S
C284 C285 1.478 . S
C285 C272 1.394 . S
C285 C284 1.478 . S
C285 C286 1.397 . S
C286 C285 1.397 . S
C286 C287 1.438 . S
C286 C291 1.429 . S
C287 C270 1.394 . S
C287 C286 1.438 . S
C287 C288 1.428 . S
C288 H280 0.949 . S
C288 C287 1.428 . S
C288 C289 1.345 . S
C289 H281 0.950 . S
C289 C288 1.345 . S
C289 C290 1.424 . S
C290 H282 0.951 . S
C290 C289 1.424 . S
C290 C291 1.347 . S
C291 H283 0.951 . S
C291 C286 1.429 . S
C291 C290 1.347 . S
H292 C293 0.951 . S
C293 H292 0.951 . S
C293 C299 1.265 . S
H294 C299 0.950 . S
H295 C303 0.949 . S
H296 C304 0.950 . S
H297 C305 0.951 . S
H298 C306 0.951 . S
C299 C293 1.265 . S
C299 H294 0.950 . S
C299 C300 1.478 . S
C300 C299 1.478 . S
C300 C301 1.397 . S
C300 C317 1.394 . S
C301 C300 1.397 . S
C301 C302 1.438 . S
C301 C306 1.429 . S
C302 C301 1.438 . S
C302 C303 1.428 . S
C302 C315 1.394 . S
C303 H295 0.949 . S
C303 C302 1.428 . S
C303 C304 1.345 . S
C304 H296 0.950 . S
C304 C303 1.345 . S
C304 C305 1.424 . S
C305 H297 0.951 . S
C305 C304 1.424 . S
C305 C306 1.347 . S
C306 H298 0.951 . S
C306 C301 1.429 . S
C306 C305 1.347 . S
H307 C308 0.951 . S
C308 H307 0.951 . S
C308 C314 1.265 . S
H309 C314 0.950 . S
H310 C318 0.949 . S
H311 C319 0.950 . S
H312 C320 0.951 . S
H313 C321 0.951 . S
C314 C308 1.265 . S
C314 H309 0.950 . S
C314 C315 1.478 . S
C315 C302 1.394 . S
C315 C314 1.478 . S
C315 C316 1.397 . S
C316 C315 1.397 . S
C316 C317 1.438 . S
C316 C321 1.429 . S
C317 C300 1.394 . S
C317 C316 1.438 . S
C317 C318 1.428 . S
C318 H310 0.949 . S
C318 C317 1.428 . S
C318 C319 1.345 . S
C319 H311 0.950 . S
C319 C318 1.345 . S
C319 C320 1.424 . S
C320 H312 0.951 . S
C320 C319 1.424 . S
C320 C321 1.347 . S
C321 H313 0.951 . S
C321 C316 1.429 . S
C321 C320 1.347 . S
H322 C323 0.951 . S
C323 H322 0.951 . S
C323 C329 1.265 . S
H324 C329 0.950 . S
H325 C333 0.949 . S
H326 C334 0.950 . S
H327 C335 0.951 . S
H328 C336 0.951 . S
C329 C323 1.265 . S
C329 H324 0.950 . S
C329 C330 1.478 . S
C330 C329 1.478 . S
C330 C331 1.397 . S
C330 C347 1.394 . S
C331 C330 1.397 . S
C331 C332 1.438 . S
C331 C336 1.429 . S
C332 C331 1.438 . S
C332 C333 1.428 . S
C332 C345 1.394 . S
C333 H325 0.949 . S
C333 C332 1.428 . S
C333 C334 1.345 . S
C334 H326 0.950 . S
C334 C333 1.345 . S
C334 C335 1.424 . S
C335 H327 0.951 . S
C335 C334 1.424 . S
C335 C336 1.347 . S
C336 H328 0.951 . S
C336 C331 1.429 . S
C336 C335 1.347 . S
H337 C338 0.951 . S
C338 H337 0.951 . S
C338 C344 1.265 . S
H339 C344 0.950 . S
H340 C348 0.949 . S
H341 C349 0.950 . S
H342 C350 0.951 . S
H343 C351 0.951 . S
C344 C338 1.265 . S
C344 H339 0.950 . S
C344 C345 1.478 . S
C345 C332 1.394 . S
C345 C344 1.478 . S
C345 C346 1.397 . S
C346 C345 1.397 . S
C346 C347 1.438 . S
C346 C351 1.429 . S
C347 C330 1.394 . S
C347 C346 1.438 . S
C347 C348 1.428 . S
C348 H340 0.949 . S
C348 C347 1.428 . S
C348 C349 1.345 . S
C349 H341 0.950 . S
C349 C348 1.345 . S
C349 C350 1.424 . S
C350 H342 0.951 . S
C350 C349 1.424 . S
C350 C351 1.347 . S
C351 H343 0.951 . S
C351 C346 1.429 . S
C351 C350 1.347 . S
H352 C353 0.951 1_665 S
C353 H352 0.951 1_445 S
C353 C359 1.265 . S
H354 C359 0.950 . S
H355 C363 0.949 . S
H356 C364 0.950 . S
H357 C365 0.951 . S
H358 C366 0.951 . S
C359 C353 1.265 . S
C359 H354 0.950 . S
C359 C360 1.478 . S
C360 C359 1.478 . S
C360 C361 1.397 . S
C360 C377 1.394 1_545 S
C361 C360 1.397 . S
C361 C362 1.438 . S
C361 C366 1.429 . S
C362 C361 1.438 . S
C362 C363 1.428 . S
C362 C375 1.397 1_545 S
C363 H355 0.949 . S
C363 C362 1.428 . S
C363 C364 1.345 . S
C364 H356 0.950 . S
C364 C363 1.345 . S
C364 C365 1.424 . S
C365 H357 0.951 . S
C365 C364 1.424 . S
C365 C366 1.347 . S
C366 H358 0.951 . S
C366 C361 1.429 . S
C366 C365 1.347 . S
H367 C368 0.951 1_545 S
C368 H367 0.951 1_565 S
C368 C374 1.265 1_455 S
H369 C374 0.950 . S
H370 C378 0.948 1_455 S
H371 C379 0.950 . S
H372 C380 0.951 . S
H373 C381 0.951 . S
C374 C368 1.265 1_655 S
C374 H369 0.950 . S
C374 C375 1.476 1_655 S
C375 C362 1.397 1_565 S
C375 C374 1.476 1_455 S
C375 C376 1.396 1_455 S
C376 C375 1.396 1_655 S
C376 C377 1.438 1_655 S
C376 C381 1.429 . S
C377 C360 1.394 1_565 S
C377 C376 1.438 1_455 S
C377 C378 1.428 1_455 S
C378 H370 0.948 1_655 S
C378 C377 1.428 1_655 S
C378 C379 1.345 . S
C379 H371 0.950 . S
C379 C378 1.345 . S
C379 C380 1.424 . S
C380 H372 0.951 . S
C380 C379 1.424 . S
C380 C381 1.347 . S
C381 H373 0.951 . S
C381 C376 1.429 . S
C381 C380 1.347 . S
H382 C383 0.951 . S
C383 H382 0.951 . S
C383 C389 1.265 1_455 S
H384 C389 0.950 . S
H385 C393 0.949 . S
H386 C394 0.950 . S
H387 C395 0.951 . S
H388 C396 0.951 . S
C389 C383 1.265 1_655 S
C389 H384 0.950 . S
C389 C390 1.478 1_655 S
C390 C389 1.478 1_455 S
C390 C391 1.397 . S
C390 C407 1.394 1_545 S
C391 C390 1.397 . S
C391 C392 1.438 . S
C391 C396 1.429 1_455 S
C392 C391 1.438 . S
C392 C393 1.428 . S
C392 C405 1.394 . S
C393 H385 0.949 . S
C393 C392 1.428 . S
C393 C394 1.345 1_455 S
C394 H386 0.950 . S
C394 C393 1.345 1_655 S
C394 C395 1.424 . S
C395 H387 0.951 . S
C395 C394 1.424 . S
C395 C396 1.347 . S
C396 H388 0.951 . S
C396 C391 1.429 1_655 S
C396 C395 1.347 . S
H397 C398 0.951 1_655 S
C398 H397 0.951 1_455 S
C398 C404 1.265 . S
H399 C404 0.950 . S
H400 C408 0.949 . S
H401 C409 0.950 . S
H402 C410 0.951 . S
H403 C411 0.951 . S
C404 C398 1.265 . S
C404 H399 0.950 . S
C404 C405 1.478 . S
C405 C392 1.394 . S
C405 C404 1.478 . S
C405 C406 1.387 1_545 S
C406 C405 1.387 1_565 S
C406 C407 1.436 . S
C406 C411 1.440 . S
C407 C390 1.394 1_565 S
C407 C406 1.436 . S
C407 C408 1.428 . S
C408 H400 0.949 . S
C408 C407 1.428 . S
C408 C409 1.345 . S
C409 H401 0.950 . S
C409 C408 1.345 . S
C409 C410 1.424 . S
C410 H402 0.951 . S
C410 C409 1.424 . S
C410 C411 1.347 . S
C411 H403 0.951 . S
C411 C406 1.440 . S
C411 C410 1.347 . S
H412 C413 0.951 . S
C413 H412 0.951 . S
C413 C419 1.265 . S
H414 C419 0.950 . S
H415 C423 0.949 . S
H416 C424 0.950 . S
H417 C425 0.951 . S
H418 C426 0.951 . S
C419 C413 1.265 . S
C419 H414 0.950 . S
C419 C420 1.478 . S
C420 C419 1.478 . S
C420 C421 1.397 . S
C420 C437 1.394 . S
C421 C420 1.397 . S
C421 C422 1.438 . S
C421 C426 1.429 . S
C422 C421 1.438 . S
C422 C423 1.428 . S
C422 C435 1.394 . S
C423 H415 0.949 . S
C423 C422 1.428 . S
C423 C424 1.345 . S
C424 H416 0.950 . S
C424 C423 1.345 . S
C424 C425 1.424 . S
C425 H417 0.951 . S
C425 C424 1.424 . S
C425 C426 1.347 . S
C426 H418 0.951 . S
C426 C421 1.429 . S
C426 C425 1.347 . S
H427 C428 0.951 . S
C428 H427 0.951 . S
C428 C434 1.265 . S
H429 C434 0.950 . S
H430 C438 0.949 . S
H431 C439 0.950 . S
H432 C440 0.951 . S
H433 C441 0.951 . S
C434 C428 1.265 . S
C434 H429 0.950 . S
C434 C435 1.478 . S
C435 C422 1.394 . S
C435 C434 1.478 . S
C435 C436 1.397 . S
C436 C435 1.397 . S
C436 C437 1.438 . S
C436 C441 1.429 . S
C437 C420 1.394 . S
C437 C436 1.438 . S
C437 C438 1.428 . S
C438 H430 0.949 . S
C438 C437 1.428 . S
C438 C439 1.345 . S
C439 H431 0.950 . S
C439 C438 1.345 . S
C439 C440 1.424 . S
C440 H432 0.951 . S
C440 C439 1.424 . S
C440 C441 1.347 . S
C441 H433 0.951 . S
C441 C436 1.429 . S
C441 C440 1.347 . S
H442 C443 0.951 . S
C443 H442 0.951 . S
C443 C449 1.265 . S
H444 C449 0.950 . S
H445 C453 0.949 . S
H446 C454 0.950 . S
H447 C455 0.951 . S
H448 C456 0.951 . S
C449 C443 1.265 . S
C449 H444 0.950 . S
C449 C450 1.478 . S
C450 C449 1.478 . S
C450 C451 1.397 . S
C450 C467 1.394 . S
C451 C450 1.397 . S
C451 C452 1.438 . S
C451 C456 1.429 . S
C452 C451 1.438 . S
C452 C453 1.428 . S
C452 C465 1.394 . S
C453 H445 0.949 . S
C453 C452 1.428 . S
C453 C454 1.345 . S
C454 H446 0.950 . S
C454 C453 1.345 . S
C454 C455 1.424 . S
C455 H447 0.951 . S
C455 C454 1.424 . S
C455 C456 1.347 . S
C456 H448 0.951 . S
C456 C451 1.429 . S
C456 C455 1.347 . S
H457 C458 0.951 . S
C458 H457 0.951 . S
C458 C464 1.265 . S
H459 C464 0.950 . S
H460 C468 0.949 . S
H461 C469 0.950 . S
H462 C470 0.951 . S
H463 C471 0.951 . S
C464 C458 1.265 . S
C464 H459 0.950 . S
C464 C465 1.478 . S
C465 C452 1.394 . S
C465 C464 1.478 . S
C465 C466 1.397 . S
C466 C465 1.397 . S
C466 C467 1.438 . S
C466 C471 1.429 . S
C467 C450 1.394 . S
C467 C466 1.438 . S
C467 C468 1.428 . S
C468 H460 0.949 . S
C468 C467 1.428 . S
C468 C469 1.345 . S
C469 H461 0.950 . S
C469 C468 1.345 . S
C469 C470 1.424 . S
C470 H462 0.951 . S
C470 C469 1.424 . S
C470 C471 1.347 . S
C471 H463 0.951 . S
C471 C466 1.429 . S
C471 C470 1.347 . S
C128 C103 1.266 . S
C113 C27 1.423 . S
C143 N6 1.366 . S
C158 C90 1.324 . S
C173 C16 1.484 . S
C188 C107 1.462 . S
C203 N14 1.455 1_556 S
C218 C94 1.444 . S
C233 C57 1.424 . S
C248 C77 1.259 . S
C263 N36 1.343 . S
C278 C64 1.262 . S
C308 C81 1.457 . S
C293 C46 1.470 . S
C338 C68 1.432 . S
C323 N44 1.396 . S
C353 C10 1.473 . S
C368 C69 1.453 . S
C383 C1 1.555 . S
C398 C82 1.551 . S
C428 C95 1.452 . S
C413 C40 1.473 . S
C443 C31 1.528 . S
C458 C108 1.533 . S
