# Generated by pormake.
# Topology zzz, (3,6)-cn, num edge types: 1
# Building blocks:
#     Node 0, Type 0, BuildingBlock: BETDIP_clean_linker_0, # of connection points: 3
#     Node 1, Type 0, BuildingBlock: BETDIP_clean_linker_0, # of connection points: 3
#     Node 2, Type 0, BuildingBlock: BETDIP_clean_linker_0, # of connection points: 3
#     Node 3, Type 0, BuildingBlock: BETDIP_clean_linker_0, # of connection points: 3
#     Node 4, Type 0, BuildingBlock: BETDIP_clean_linker_0, # of connection points: 3
#     Node 5, Type 0, BuildingBlock: BETDIP_clean_linker_0, # of connection points: 3
#     Node 6, Type 0, BuildingBlock: BETDIP_clean_linker_0, # of connection points: 3
#     Node 7, Type 0, BuildingBlock: BETDIP_clean_linker_0, # of connection points: 3
#     Node 8, Type 1, BuildingBlock: GEDQOX_clean_sbu_0, # of connection points: 6
#     Node 9, Type 1, BuildingBlock: GEDQOX_clean_sbu_0, # of connection points: 6
#     Node 10, Type 1, BuildingBlock: GEDQOX_clean_sbu_0, # of connection points: 6
#     Node 11, Type 1, BuildingBlock: GEDQOX_clean_sbu_0, # of connection points: 6
#     Edge 12, Type (0, 1), BuildingBlock: OJICUG_clean_linker_0, # of connection points: 2
#     Edge 13, Type (0, 1), BuildingBlock: OJICUG_clean_linker_0, # of connection points: 2
#     Edge 14, Type (0, 1), BuildingBlock: OJICUG_clean_linker_0, # of connection points: 2
#     Edge 15, Type (0, 1), BuildingBlock: OJICUG_clean_linker_0, # of connection points: 2
#     Edge 16, Type (0, 1), BuildingBlock: OJICUG_clean_linker_0, # of connection points: 2
#     Edge 17, Type (0, 1), BuildingBlock: OJICUG_clean_linker_0, # of connection points: 2
#     Edge 18, Type (0, 1), BuildingBlock: OJICUG_clean_linker_0, # of connection points: 2
#     Edge 19, Type (0, 1), BuildingBlock: OJICUG_clean_linker_0, # of connection points: 2
#     Edge 20, Type (0, 1), BuildingBlock: OJICUG_clean_linker_0, # of connection points: 2
#     Edge 21, Type (0, 1), BuildingBlock: OJICUG_clean_linker_0, # of connection points: 2
#     Edge 22, Type (0, 1), BuildingBlock: OJICUG_clean_linker_0, # of connection points: 2
#     Edge 23, Type (0, 1), BuildingBlock: OJICUG_clean_linker_0, # of connection points: 2
#     Edge 24, Type (0, 1), BuildingBlock: OJICUG_clean_linker_0, # of connection points: 2
#     Edge 25, Type (0, 1), BuildingBlock: OJICUG_clean_linker_0, # of connection points: 2
#     Edge 26, Type (0, 1), BuildingBlock: OJICUG_clean_linker_0, # of connection points: 2
#     Edge 27, Type (0, 1), BuildingBlock: OJICUG_clean_linker_0, # of connection points: 2
#     Edge 28, Type (0, 1), BuildingBlock: OJICUG_clean_linker_0, # of connection points: 2
#     Edge 29, Type (0, 1), BuildingBlock: OJICUG_clean_linker_0, # of connection points: 2
#     Edge 30, Type (0, 1), BuildingBlock: OJICUG_clean_linker_0, # of connection points: 2
#     Edge 31, Type (0, 1), BuildingBlock: OJICUG_clean_linker_0, # of connection points: 2
#     Edge 32, Type (0, 1), BuildingBlock: OJICUG_clean_linker_0, # of connection points: 2
#     Edge 33, Type (0, 1), BuildingBlock: OJICUG_clean_linker_0, # of connection points: 2
#     Edge 34, Type (0, 1), BuildingBlock: OJICUG_clean_linker_0, # of connection points: 2
#     Edge 35, Type (0, 1), BuildingBlock: OJICUG_clean_linker_0, # of connection points: 2
# Relax obj value: 0.140
# Max RMSD: 0.228
# Mean RMSD: 0.080
data_MOF--net-zzz--node1-GEDQOX_clean_sbu_0--node2-BETDIP_clean_linker_0--edge1-OJICUG_clean_linker_0
_symmetry_space_group_name_H-M    P1
_symmetry_Int_Tables_number       1
_symmetry_cell_setting            triclinic
loop_
_symmetry_equiv_pos_as_xyz
'x, y, z'
_cell_length_a     40.186669
_cell_length_b     39.107678
_cell_length_c     13.411318
_cell_angle_alpha  77.216366
_cell_angle_beta   89.232767
_cell_angle_gamma 101.85498
loop_
_atom_site_label
_atom_site_type_symbol
_atom_site_fract_x
_atom_site_fract_y
_atom_site_fract_z
_atom_type_partial_charge
H0 H 0.78853 0.59121 0.31173 0.0
H1 H 0.7948 0.53687 0.06619 0.0
H2 H 0.88456 0.57296 0.21694 0.0
H3 H 0.74973 0.57201 0.01411 0.0
C4 C 0.73457 0.56434 0.08639 0.0
C5 C 0.80337 0.58078 0.2621 0.0
C6 C 0.83868 0.58502 0.27064 0.0
C7 C 0.78728 0.56431 0.18678 0.0
C8 C 0.80684 0.55035 0.12287 0.0
C9 C 0.84198 0.55289 0.13582 0.0
C10 C 0.85741 0.57067 0.20821 0.0
N11 N 0.75143 0.56141 0.17967 0.0
H12 H 0.01588 0.74954 0.46027 0.0
H13 H 0.05952 0.80664 0.15695 0.0
H14 H 0.0468 0.86432 0.38641 0.0
H15 H 0.0723 0.75481 0.147 0.0
C16 C 0.05345 0.73305 0.19371 0.0
C17 C 0.0275 0.77424 0.40614 0.0
C18 C 0.03068 0.80735 0.43458 0.0
C19 C 0.03929 0.77321 0.30688 0.0
C20 C 0.05253 0.80617 0.23542 0.0
C21 C 0.05587 0.8391 0.26486 0.0
C22 C 0.04554 0.83896 0.36452 0.0
N23 N 0.03626 0.73907 0.28046 0.0
H24 H 0.78233 0.98984 0.31063 0.0
H25 H 0.78544 0.05929 1.00954 0.0
H26 H 0.69126 0.02033 0.19276 0.0
H27 H 0.83387 0.03692 0.98576 0.0
C28 C 0.8451 0.03437 0.05954 0.0
C29 C 0.76944 1.00389 0.24931 0.0
C30 C 0.73427 1.00179 0.26126 0.0
C31 C 0.78813 0.02374 0.15799 0.0
C32 C 0.77143 0.04291 0.0791 0.0
C33 C 0.73645 0.04192 0.09292 0.0
C34 C 0.71825 0.02091 0.18278 0.0
N35 N 0.82381 0.02512 0.15133 0.0
H36 H 0.55696 0.81158 0.63634 0.0
H37 H 0.50073 0.81818 0.36305 0.0
H38 H 0.49416 0.71654 0.57276 0.0
H39 H 0.56845 0.85797 0.32446 0.0
C40 C 0.55615 0.87372 0.36485 0.0
C41 C 0.53901 0.7989 0.58907 0.0
C42 C 0.5261 0.76135 0.61628 0.0
C43 C 0.52948 0.8197 0.49764 0.0
C44 C 0.50742 0.80265 0.43446 0.0
C45 C 0.49412 0.76567 0.46246 0.0
C46 C 0.50318 0.74549 0.5537 0.0
N47 N 0.54238 0.85751 0.46699 0.0
H48 H 0.28688 0.49385 0.6564 0.0
H49 H 0.28437 0.56046 0.87332 0.0
H50 H 0.1949 0.52732 0.71765 0.0
H51 H 0.34362 0.58241 0.78562 0.0
C52 C 0.34992 0.55611 0.79817 0.0
C53 C 0.27323 0.50848 0.69649 0.0
C54 C 0.23877 0.50825 0.67954 0.0
C55 C 0.2902 0.52771 0.76511 0.0
C56 C 0.27205 0.54649 0.81796 0.0
C57 C 0.23754 0.54634 0.80018 0.0
C58 C 0.22152 0.5274 0.73098 0.0
N59 N 0.32499 0.52657 0.78195 0.0
H60 H 0.0718 0.35223 0.47318 0.0
H61 H 0.02556 0.29697 0.77496 0.0
H62 H 0.04068 0.2374 0.5526 0.0
H63 H 0.01059 0.34834 0.77705 0.0
C64 C 0.0302 0.37002 0.73334 0.0
C65 C 0.05971 0.32781 0.52765 0.0
C66 C 0.05714 0.29429 0.50169 0.0
C67 C 0.04672 0.32956 0.62503 0.0
C68 C 0.03314 0.29695 0.69734 0.0
C69 C 0.03036 0.26372 0.67035 0.0
C70 C 0.04157 0.26307 0.57222 0.0
N71 N 0.04897 0.36394 0.64954 0.0
H72 H 0.30772 0.12151 0.56953 0.0
H73 H 0.3056 0.04974 0.86728 0.0
H74 H 0.39648 0.08175 0.66939 0.0
H75 H 0.25996 0.07087 0.90122 0.0
C76 C 0.24784 0.07822 0.83013 0.0
C77 C 0.32022 0.10539 0.62728 0.0
C78 C 0.35452 0.10446 0.60968 0.0
C79 C 0.30219 0.08629 0.72064 0.0
C80 C 0.31877 0.06509 0.79543 0.0
C81 C 0.35268 0.06307 0.7756 0.0
C82 C 0.37011 0.08293 0.68353 0.0
N83 N 0.26749 0.08856 0.73491 0.0
H84 H 0.52222 0.29832 0.28126 0.0
H85 H 0.59148 0.29249 0.52436 0.0
H86 H 0.58963 0.39396 0.32233 0.0
H87 H 0.59181 0.23753 0.41864 0.0
C88 C 0.56692 0.22933 0.45982 0.0
C89 C 0.54259 0.31126 0.32109 0.0
C90 C 0.55586 0.34861 0.28889 0.0
C91 C 0.5564 0.29067 0.40446 0.0
C92 C 0.58202 0.30799 0.45773 0.0
C93 C 0.59397 0.34528 0.42951 0.0
C94 C 0.58139 0.36496 0.34341 0.0
N95 N 0.54384 0.2529 0.43861 0.0
Nd96 Nd 0.03276 0.04008 0.86264 0.0
Nd97 Nd 0.06223 0.06733 0.06401 0.0
C98 C 0.99953 0.9983 0.74955 0.0
C99 C 1.00148 0.96311 0.72754 0.0
C100 C 0.97165 0.93666 0.73185 0.0
C101 C 0.97296 0.9035 0.70959 0.0
C102 C 1.0042 0.89598 0.682 0.0
C103 C 0.03414 0.92237 0.68028 0.0
C104 C 0.03282 0.95536 0.70322 0.0
C105 C 0.10184 0.0681 0.85469 0.0
C106 C 0.05933 0.98373 0.05707 0.0
C107 C 0.10048 0.10835 0.1691 0.0
C108 C 0.09707 0.14152 0.20144 0.0
C109 C 0.12604 0.1682 0.20517 0.0
C110 C 0.12296 0.20011 0.23283 0.0
C111 C 0.09075 0.20616 0.25751 0.0
C112 C 0.06176 0.17939 0.25212 0.0
C113 C 0.06487 0.14767 0.22393 0.0
C114 C 0.99149 0.05089 0.07336 0.0
C115 C 0.03159 0.12098 0.87699 0.0
O116 O 0.98894 0.99756 0.84292 0.0
O117 O 0.02469 0.02569 0.71241 0.0
O118 O 0.08372 0.07099 0.77454 0.0
O119 O 0.0836 0.04918 0.93265 0.0
O120 O 0.04341 0.98946 0.97097 0.0
O121 O 0.07113 1.00953 0.10583 0.0
O122 O 0.10575 0.11193 0.0702 0.0
O123 O 0.07884 0.07846 0.21297 0.0
O124 O 1.0088 0.06001 0.14808 0.0
O125 O 0.01228 0.04982 1.00436 0.0
O126 O 0.05422 0.11724 0.94718 0.0
O127 O 0.01603 0.0939 0.83831 0.0
H128 H 0.94719 0.94177 0.75166 0.0
H129 H 0.94938 0.8839 0.71319 0.0
H130 H 0.05868 0.91819 0.65764 0.0
H131 H 0.05635 0.97501 0.70031 0.0
H132 H 0.15114 0.16439 0.1865 0.0
H133 H 0.1459 0.22004 0.23466 0.0
H134 H 0.03652 0.18239 0.27227 0.0
H135 H 0.04202 0.12782 0.22029 0.0
Nd136 Nd 0.54589 0.0233 0.87039 0.0
Nd137 Nd 0.54276 0.07964 1.00794 0.0
C138 C 0.5562 0.96752 0.80274 0.0
C139 C 0.58453 0.96509 0.73601 0.0
C140 C 0.5852 0.93366 0.70274 0.0
C141 C 0.61228 0.93258 0.63707 0.0
C142 C 0.63915 0.96281 0.60515 0.0
C143 C 0.63835 0.99396 0.64015 0.0
C144 C 0.61126 0.99513 0.70416 0.0
C145 C 0.54777 0.09036 0.74357 0.0
C146 C 0.61786 0.07155 0.92553 0.0
C147 C 0.5377 0.13327 0.09258 0.0
C148 C 0.50858 0.13726 0.15334 0.0
C149 C 0.50958 0.16776 0.19274 0.0
C150 C 0.48169 0.17022 0.25289 0.0
C151 C 0.4524 0.14217 0.27428 0.0
C152 C 0.45151 0.11209 0.23225 0.0
C153 C 0.47924 0.1097 0.17264 0.0
C154 C 0.53636 1.00879 0.11259 0.0
C155 C 0.47192 0.03513 0.94281 0.0
O156 O 0.56459 0.97279 0.89282 0.0
O157 O 0.53626 0.98833 0.75946 0.0
O158 O 0.54996 0.06205 0.71094 0.0
O159 O 0.54563 0.08224 0.84025 0.0
O160 O 0.60255 0.04541 0.88343 0.0
O161 O 0.6008 0.08998 0.97181 0.0
O162 O 0.53232 0.13381 0.99618 0.0
O163 O 0.55268 0.1074 0.13538 0.0
O164 O 0.5199 0.03068 0.14119 0.0
O165 O 0.55552 0.02518 0.03428 0.0
O166 O 0.48786 0.06516 0.96564 0.0
O167 O 0.48848 1.01171 0.91883 0.0
H168 H 0.56469 0.91024 0.72637 0.0
H169 H 0.6121 0.90829 0.61072 0.0
H170 H 0.65804 0.01804 0.61485 0.0
H171 H 0.6109 0.01986 0.72723 0.0
H172 H 0.53199 0.18938 0.1782 0.0
H173 H 0.48325 0.19383 0.28368 0.0
H174 H 0.42994 0.08954 0.24883 0.0
H175 H 0.47806 0.08584 0.14329 0.0
Nd176 Nd 0.52027 0.55507 0.04635 0.0
Nd177 Nd 0.56092 0.55415 0.85926 0.0
C178 C 0.47481 0.564 0.17717 0.0
C179 C 0.46322 0.59455 0.20154 0.0
C180 C 0.46284 0.62549 0.12527 0.0
C181 C 0.45723 0.65648 0.1521 0.0
C182 C 0.45193 0.65688 0.25563 0.0
C183 C 0.44999 0.62494 0.33086 0.0
C184 C 0.45563 0.59408 0.30391 0.0
C185 C 0.58934 0.56152 0.07026 0.0
C186 C 0.54754 0.63118 0.8705 0.0
C187 C 0.60569 0.54299 0.73054 0.0
C188 C 0.61354 0.51035 0.7087 0.0
C189 C 0.6454 0.51099 0.66386 0.0
C190 C 0.65213 0.47999 0.63943 0.0
C191 C 0.62694 0.44802 0.65912 0.0
C192 C 0.59565 0.44736 0.70898 0.0
C193 C 0.58913 0.47814 0.73395 0.0
C194 C 0.4924 0.54929 0.83369 0.0
C195 C 0.53312 0.47795 0.03571 0.0
O196 O 0.46736 0.55706 0.08812 0.0
O197 O 0.50595 0.56176 0.1999 0.0
O198 O 0.56607 0.5425 0.14011 0.0
O199 O 0.57587 0.57728 0.99403 0.0
O200 O 0.52457 0.61276 0.94525 0.0
O201 O 0.56914 0.61533 0.83258 0.0
O202 O 0.61288 0.54803 0.82149 0.0
O203 O 0.57591 0.54937 0.70431 0.0
O204 O 0.5161 0.56862 0.76571 0.0
O205 O 0.50513 0.53239 0.90989 0.0
O206 O 0.5556 0.49607 0.95941 0.0
O207 O 0.51236 0.49411 0.07554 0.0
H208 H 0.46831 0.62617 0.04557 0.0
H209 H 0.45863 0.68054 0.09242 0.0
H210 H 0.44657 0.62437 0.4115 0.0
H211 H 0.45585 0.5704 0.36367 0.0
H212 H 0.66476 0.53559 0.64584 0.0
H213 H 0.67663 0.48137 0.60239 0.0
H214 H 0.57527 0.42366 0.7238 0.0
H215 H 0.56452 0.47705 0.77004 0.0
Nd216 Nd 0.04113 0.57625 0.87073 0.0
Nd217 Nd 0.04012 0.52536 0.06443 0.0
C218 C 0.02593 0.62558 0.7192 0.0
C219 C 0.99475 0.62558 0.66306 0.0
C220 C 0.98929 0.65695 0.59757 0.0
C221 C 0.95975 0.65613 0.54285 0.0
C222 C 0.93522 0.62389 0.55305 0.0
C223 C 0.94061 0.59282 0.62119 0.0
C224 C 0.97001 0.59368 0.67549 0.0
C225 C 0.04296 0.50838 0.84433 0.0
C226 C 0.96688 0.53373 0.99291 0.0
C227 C 0.05443 0.47551 0.21681 0.0
C228 C 0.08487 0.47377 0.27598 0.0
C229 C 0.08737 0.4423 0.34692 0.0
C230 C 0.11595 0.44144 0.40555 0.0
C231 C 0.14253 0.47209 0.39393 0.0
C232 C 0.1401 0.50324 0.32055 0.0
C233 C 0.11159 0.50405 0.26241 0.0
C234 C 0.03878 0.59349 0.08956 0.0
C235 C 0.11432 0.56846 0.94201 0.0
O236 O 0.02256 0.62644 0.81555 0.0
O237 O 0.04339 0.60211 0.70528 0.0
O238 O 0.06095 0.53797 0.78874 0.0
O239 O 0.02394 0.51495 0.91098 0.0
O240 O 0.98455 0.56259 0.92918 0.0
O241 O 0.98261 0.5103 0.04801 0.0
O242 O 0.05829 0.47495 0.12038 0.0
O243 O 0.03773 0.49966 0.2301 0.0
O244 O 0.02058 0.56412 0.14566 0.0
O245 O 0.05768 0.58651 0.02357 0.0
O246 O 0.09682 0.5395 1.006 0.0
O247 O 0.09847 0.59178 0.887 0.0
H248 H 1.00801 0.68189 0.58774 0.0
H249 H 0.95637 0.68062 0.49159 0.0
H250 H 0.92282 0.56733 0.62961 0.0
H251 H 0.97377 0.56915 0.72574 0.0
H252 H 0.06703 0.4186 0.35807 0.0
H253 H 0.117 0.41696 0.4609 0.0
H254 H 0.15955 0.52761 0.3108 0.0
H255 H 0.11006 0.52867 0.20836 0.0
C256 C 0.19352 0.0883 0.74672 0.0
C257 C 0.21081 0.07816 0.83533 0.0
H258 H 0.14553 0.09357 0.68351 0.0
C259 C 0.19227 0.06702 0.93068 0.0
H260 H 0.20705 0.09717 0.67206 0.0
C261 C 0.15708 0.06501 0.93725 0.0
C262 C 0.13959 0.07416 0.84849 0.0
H263 H 0.20493 0.05919 1.00028 0.0
H264 H 0.14343 0.05548 0.01172 0.0
C265 C 0.15828 0.08638 0.75331 0.0
C266 C 0.54003 0.18684 0.62608 0.0
C267 C 0.5586 0.19339 0.5314 0.0
H268 H 0.52282 0.14922 0.7704 0.0
C269 C 0.57312 0.16613 0.50876 0.0
H270 H 0.52904 0.20767 0.64611 0.0
C271 C 0.56917 0.13299 0.57817 0.0
C272 C 0.55152 0.12644 0.67399 0.0
H273 H 0.5878 0.17055 0.43695 0.0
H274 H 0.58062 0.11258 0.5573 0.0
C275 C 0.53689 0.15368 0.69761 0.0
C276 C 0.39549 0.52198 0.86095 0.0
C277 C 0.38623 0.5537 0.80876 0.0
H278 H 0.43654 0.49599 0.91268 0.0
C279 C 0.41209 0.58381 0.76658 0.0
H280 H 0.37607 0.49846 0.89493 0.0
C281 C 0.44647 0.58205 0.77389 0.0
C282 C 0.45582 0.55051 0.82672 0.0
H283 H 0.40568 0.60861 0.72621 0.0
H284 H 0.4658 0.60561 0.73938 0.0
C285 C 0.43001 0.5206 0.87143 0.0
C286 C 0.05774 0.43638 0.70669 0.0
C287 C 0.03448 0.40572 0.76092 0.0
H288 H 0.0787 0.4926 0.69086 0.0
C289 C 0.01447 0.40903 0.84404 0.0
H290 H 0.07356 0.4349 0.64243 0.0
C291 C 0.01734 0.44207 0.87191 0.0
C292 C 0.04032 0.47283 0.8173 0.0
H293 H 0.99636 0.38591 0.88765 0.0
H294 H 1.00139 0.44356 0.93589 0.0
C295 C 0.06062 0.46949 0.73462 0.0
C296 C 0.8985 0.03846 0.15609 0.0
C297 C 0.88249 0.03728 0.06398 0.0
H298 H 0.9455 0.04372 0.23072 0.0
C299 C 0.90256 0.03933 0.9753 0.0
H300 H 0.88385 0.03707 0.22578 0.0
C301 C 0.93795 0.04267 0.97852 0.0
C302 C 0.95394 0.04448 0.0703 0.0
H303 H 0.89088 0.03848 0.9033 0.0
H304 H 0.95283 0.04466 0.90879 0.0
C305 C 0.93385 0.04224 0.159 0.0
C306 C 0.57076 0.92497 0.21291 0.0
C307 C 0.55174 0.90948 0.30643 0.0
H308 H 0.58136 0.96839 0.08043 0.0
C309 C 0.52759 0.92713 0.33726 0.0
H310 H 0.58963 0.91207 0.18722 0.0
C311 C 0.52219 0.95926 0.27418 0.0
C312 C 0.541 0.9744 0.17966 0.0
H313 H 0.51238 0.91575 0.40865 0.0
H314 H 0.50324 0.97216 0.29918 0.0
C315 C 0.5657 0.95707 0.15092 0.0
C316 C 0.67477 0.54597 0.16991 0.0
C317 C 0.6974 0.56391 0.08473 0.0
H318 H 0.62281 0.53064 0.23161 0.0
C319 C 0.6843 0.58171 0.99615 0.0
H320 H 0.68407 0.53193 0.23924 0.0
C321 C 0.64945 0.58181 0.99275 0.0
C322 C 0.62661 0.56308 0.07666 0.0
H323 H 0.70114 0.59596 0.9296 0.0
H324 H 0.64037 0.59632 0.9238 0.0
C325 C 0.63969 0.54525 0.16551 0.0
C326 C 0.06802 0.69316 0.08414 0.0
C327 C 0.04872 0.69707 0.16783 0.0
H328 H 0.08011 0.65781 0.99358 0.0
C329 C 0.02563 0.66669 0.22441 0.0
H330 H 0.08597 0.71604 0.03875 0.0
C331 C 0.02224 0.63325 0.19821 0.0
C332 C 0.04187 0.62931 0.11504 0.0
H333 H 1.01026 0.66865 0.28903 0.0
H334 H 1.00432 0.61037 0.24368 0.0
C335 C 0.06468 0.65978 0.05808 0.0
C336 C 1.00001 0.19936 0.71717 0.0
C337 C 0.0214 0.22863 0.74526 0.0
H338 H 0.98686 0.1423 0.73508 0.0
C339 C 0.04167 0.2219 0.82853 0.0
H340 H 0.98409 0.2039 0.65305 0.0
C341 C 0.04345 0.18667 0.87506 0.0
C342 C 0.02509 0.1575 0.83883 0.0
H343 H 0.05861 0.24385 0.85124 0.0
H344 H 0.06093 0.18259 0.93519 0.0
C345 C 1.00199 0.16411 0.76305 0.0
C346 C 0.38573 0.05874 0.93049 0.0
C347 C 0.37262 0.04324 0.85066 0.0
H348 H 0.42779 0.06776 0.02418 0.0
C349 C 0.3882 0.01754 0.82141 0.0
H350 H 0.37442 0.07888 0.95361 0.0
C351 C 0.41909 1.0114 0.86076 0.0
C352 C 0.43483 0.03105 0.92952 0.0
H353 H 0.37867 1.00552 0.75911 0.0
H354 H 0.43226 0.99435 0.82885 0.0
C355 C 0.41664 0.05272 0.96962 0.0
C356 C 0.6373 0.39775 0.45692 0.0
C357 C 0.61437 0.36511 0.49842 0.0
H358 H 0.65892 0.45033 0.47494 0.0
C359 C 0.60476 0.35642 0.60361 0.0
H360 H 0.64615 0.40468 0.37687 0.0
C361 C 0.61312 0.38226 0.66135 0.0
C362 C 0.63048 0.41734 0.61413 0.0
H363 H 0.58756 0.3313 0.63883 0.0
H364 H 0.60293 0.37583 0.74003 0.0
C365 C 0.64493 0.4239 0.51383 0.0
C366 C 0.20019 0.54297 0.9519 0.0
C367 C 0.21561 0.56281 0.85644 0.0
H368 H 0.15586 0.5294 0.05464 0.0
C369 C 0.20073 0.59012 0.80057 0.0
H370 H 0.21077 0.52133 0.99545 0.0
C371 C 0.16899 0.59456 0.83358 0.0
C372 C 0.15147 0.57154 0.92271 0.0
H373 H 0.21183 0.6053 0.72574 0.0
H374 H 0.15688 0.61368 0.78425 0.0
C375 C 0.16839 0.54727 0.98476 0.0
C376 C 0.08653 0.90347 0.22295 0.0
C377 C 0.06519 0.87472 0.19214 0.0
H378 H 0.1008 0.96044 0.20671 0.0
C379 C 0.04592 0.88233 0.1069 0.0
H380 H 0.10181 0.89832 0.28838 0.0
C381 C 0.04536 0.91792 0.06008 0.0
C382 C 0.06387 0.94659 0.09817 0.0
H383 H 0.02899 0.86086 0.08208 0.0
H384 H 0.02874 0.92273 0.99793 0.0
C385 C 0.08559 0.93903 0.17724 0.0
C386 C 0.70347 0.04632 0.93764 0.0
C387 C 0.71696 0.0619 0.01691 0.0
H388 H 0.66146 0.03798 0.84357 0.0
C389 C 0.70203 0.08814 0.04531 0.0
H390 H 0.71429 0.02573 0.91532 0.0
C391 C 0.67133 0.0948 1.00585 0.0
C392 C 0.65509 0.07522 0.93746 0.0
H393 H 0.71186 0.10023 0.10721 0.0
H394 H 0.65872 0.11239 0.03728 0.0
C395 C 0.67284 0.05307 0.89773 0.0
C396 C 0.44594 0.71959 0.42698 0.0
C397 C 0.47528 0.7463 0.39091 0.0
H398 H 0.41441 0.6704 0.40917 0.0
C399 C 0.4912 0.7481 0.29565 0.0
H400 H 0.43312 0.71797 0.5 0.0
C401 C 0.4809 0.72064 0.24446 0.0
C402 C 0.45443 0.69118 0.28784 0.0
H403 H 0.51397 0.76839 0.2666 0.0
H404 H 0.49611 0.72065 0.17717 0.0
C405 C 0.43544 0.6923 0.3754 0.0
C406 C 0.88126 0.56019 0.9847 0.0
C407 C 0.86472 0.53824 0.07635 0.0
H408 H 0.92654 0.57568 0.88542 0.0
C409 C 0.87911 0.50993 0.12856 0.0
H410 H 0.87115 0.58267 0.94426 0.0
C411 C 0.91124 0.5062 0.09624 0.0
C412 C 0.92964 0.53086 0.0112 0.0
H413 H 0.8672 0.49313 0.20072 0.0
H414 H 0.9228 0.48602 0.1431 0.0
C415 C 0.91336 0.55648 0.95221 0.0
C416 C 0.10388 0.27737 0.41535 0.0
C417 C 0.07266 0.28842 0.40746 0.0
H418 H 0.13374 0.24216 0.37719 0.0
C419 C 0.05084 0.27796 0.33351 0.0
H420 H 0.12078 0.28414 0.47364 0.0
C421 C 0.05809 0.25356 0.27805 0.0
C422 C 0.08722 0.23871 0.29593 0.0
H423 H 0.02629 0.28538 0.32712 0.0
H424 H 0.03961 0.24449 0.22639 0.0
C425 C 0.11102 0.25269 0.36076 0.0
C426 C 0.36602 0.11648 0.42007 0.0
C427 C 0.37512 0.12438 0.51426 0.0
H428 H 0.38332 0.11693 0.26795 0.0
C429 C 0.40784 0.14473 0.52135 0.0
H430 H 0.341 0.10077 0.41275 0.0
C431 C 0.4323 0.15327 0.4398 0.0
C432 C 0.42445 0.14184 0.349 0.0
H433 H 0.41542 0.15121 0.59338 0.0
H434 H 0.45806 0.166 0.45167 0.0
C435 C 0.39047 0.12527 0.33788 0.0
C436 C 0.56401 0.39078 0.11695 0.0
C437 C 0.54259 0.37306 0.20498 0.0
H438 H 0.57767 0.43748 0.99357 0.0
C439 C 0.51485 0.38748 0.22712 0.0
H440 H 0.58612 0.38079 0.09958 0.0
C441 C 0.51032 0.42041 0.16764 0.0
C442 C 0.53351 0.43975 0.08466 0.0
H443 H 0.49852 0.37498 0.29596 0.0
H444 H 0.48991 0.43177 0.191 0.0
C445 C 0.5594 0.4236 0.05706 0.0
C446 C 0.22798 0.50193 0.50087 0.0
C447 C 0.21962 0.4896 0.60636 0.0
H448 H 0.21023 0.50536 0.34974 0.0
C449 C 0.18814 0.46601 0.63996 0.0
H450 H 0.25196 0.52038 0.47316 0.0
C451 C 0.16401 0.45795 0.56999 0.0
C452 C 0.17088 0.47329 0.4647 0.0
H453 H 0.18106 0.45635 0.72114 0.0
H454 H 0.13902 0.44218 0.59953 0.0
C455 C 0.20381 0.49378 0.43053 0.0
C456 C 0.03988 0.82221 0.60331 0.0
C457 C 0.01668 0.81233 0.53193 0.0
H458 H 0.05395 0.85584 0.70872 0.0
C459 C 0.98566 0.82372 0.52925 0.0
H460 H 0.06424 0.81436 0.60589 0.0
C461 C 0.98025 0.84873 0.58491 0.0
C462 C 1.00559 0.86252 0.64582 0.0
H463 H 0.96765 0.81725 0.47328 0.0
H464 H 0.9577 0.8598 0.57164 0.0
C465 C 0.03435 0.84692 0.65994 0.0
C466 C 0.72367 0.99103 0.45086 0.0
C467 C 0.71383 0.98263 0.35769 0.0
H468 H 0.7076 0.99061 0.60412 0.0
C469 C 0.68124 0.96143 0.35365 0.0
H470 H 0.74857 1.00737 0.45603 0.0
C471 C 0.65768 0.95213 0.43782 0.0
C472 C 0.66632 0.96389 0.52758 0.0
H473 H 0.67314 0.95437 0.28274 0.0
H474 H 0.63193 0.9384 0.42937 0.0
C475 C 0.70008 0.98175 0.53515 0.0
C476 C 0.51504 0.71732 0.78522 0.0
C477 C 0.53799 0.73629 0.70184 0.0
H478 H 0.50019 0.6697 0.90443 0.0
C479 C 0.56681 0.72282 0.68394 0.0
H480 H 0.49209 0.72648 0.79899 0.0
C481 C 0.57117 0.68973 0.743 0.0
C482 C 0.54677 0.66931 0.82152 0.0
H483 H 0.58438 0.73629 0.6184 0.0
H484 H 0.59259 0.67919 0.72289 0.0
C485 C 0.51951 0.68441 0.84482 0.0
C486 C 0.8504 0.58852 0.45121 0.0
C487 C 0.85733 0.60302 0.34586 0.0
H488 H 0.86947 0.58451 0.60086 0.0
C489 C 0.88708 0.62949 0.31207 0.0
H490 H 0.82772 0.56796 0.47903 0.0
C491 C 0.91127 0.63844 0.3809 0.0
C492 C 0.90613 0.62122 0.48533 0.0
H493 H 0.89296 0.64103 0.23096 0.0
H494 H 0.93517 0.65658 0.35059 0.0
C495 C 0.87459 0.59763 0.52051 0.0
loop_
_geom_bond_atom_site_label_1
_geom_bond_atom_site_label_2
_geom_bond_distance
_geom_bond_site_symmetry_2
_ccdc_geom_bond_type
H0 C5 0.930 . S
H1 C8 0.930 . S
H2 C10 0.930 . S
H3 C4 1.016 . S
C4 H3 1.016 . S
C4 N11 1.286 1_556 S
C5 H0 0.930 . S
C5 C6 1.397 . S
C5 C7 1.361 . S
C6 C5 1.397 . S
C6 C10 1.390 . S
C7 C5 1.361 . S
C7 C8 1.393 1_554 S
C7 N11 1.413 . S
C8 H1 0.930 . S
C8 C7 1.393 1_556 S
C8 C9 1.399 . S
C9 C8 1.399 . S
C9 C10 1.381 1_556 S
C10 H2 0.930 . S
C10 C6 1.390 . S
C10 C9 1.381 1_554 S
N11 C4 1.286 1_554 S
N11 C7 1.413 . S
H12 C17 0.930 . S
H13 C20 0.930 1_556 S
H14 C22 0.930 . S
H15 C16 1.016 1_556 S
C16 H15 1.016 1_554 S
C16 N23 1.284 1_655 S
C17 H12 0.930 . S
C17 C18 1.397 . S
C17 C19 1.361 . S
C18 C17 1.397 . S
C18 C22 1.390 . S
C19 C17 1.361 . S
C19 C20 1.393 . S
C19 N23 1.411 1_655 S
C20 H13 0.930 1_554 S
C20 C19 1.393 . S
C20 C21 1.399 . S
C21 C20 1.399 . S
C21 C22 1.381 . S
C22 H14 0.930 . S
C22 C18 1.390 . S
C22 C21 1.381 . S
N23 C16 1.284 1_455 S
N23 C19 1.411 1_455 S
H24 C29 0.930 . S
H25 C32 0.930 . S
H26 C34 0.930 . S
H27 C28 1.016 1_556 S
C28 H27 1.016 1_554 S
C28 N35 1.286 . S
C29 H24 0.930 . S
C29 C30 1.397 . S
C29 C31 1.361 . S
C30 C29 1.397 . S
C30 C34 1.390 . S
C31 C29 1.361 . S
C31 C32 1.393 1_554 S
C31 N35 1.413 . S
C32 H25 0.930 . S
C32 C31 1.393 1_556 S
C32 C33 1.399 1_556 S
C33 C32 1.399 1_554 S
C33 C34 1.381 . S
C34 H26 0.930 . S
C34 C30 1.390 . S
C34 C33 1.381 . S
N35 C28 1.286 . S
N35 C31 1.413 . S
H36 C41 0.930 . S
H37 C44 0.930 . S
H38 C46 0.930 . S
H39 C40 1.016 . S
C40 H39 1.016 . S
C40 N47 1.286 . S
C41 H36 0.930 . S
C41 C42 1.397 . S
C41 C43 1.361 . S
C42 C41 1.397 . S
C42 C46 1.390 . S
C43 C41 1.361 . S
C43 C44 1.393 . S
C43 N47 1.413 . S
C44 H37 0.930 . S
C44 C43 1.393 . S
C44 C45 1.399 . S
C45 C44 1.399 . S
C45 C46 1.381 . S
C46 H38 0.930 . S
C46 C42 1.390 . S
C46 C45 1.381 . S
N47 C40 1.286 . S
N47 C43 1.413 . S
H48 C53 0.930 . S
H49 C56 0.930 1_554 S
H50 C58 0.930 . S
H51 C52 1.016 1_554 S
C52 H51 1.016 1_556 S
C52 N59 1.286 . S
C53 H48 0.930 . S
C53 C54 1.397 . S
C53 C55 1.361 . S
C54 C53 1.397 . S
C54 C58 1.390 . S
C55 C53 1.361 . S
C55 C56 1.393 . S
C55 N59 1.413 . S
C56 H49 0.930 1_556 S
C56 C55 1.393 . S
C56 C57 1.399 . S
C57 C56 1.399 . S
C57 C58 1.381 . S
C58 H50 0.930 . S
C58 C54 1.390 . S
C58 C57 1.381 . S
N59 C52 1.286 . S
N59 C55 1.413 . S
H60 C65 0.930 . S
H61 C68 0.930 . S
H62 C70 0.930 . S
H63 C64 1.016 . S
C64 H63 1.016 . S
C64 N71 1.286 . S
C65 H60 0.930 . S
C65 C66 1.397 . S
C65 C67 1.361 . S
C66 C65 1.397 . S
C66 C70 1.390 . S
C67 C65 1.361 . S
C67 C68 1.393 . S
C67 N71 1.413 . S
C68 H61 0.930 . S
C68 C67 1.393 . S
C68 C69 1.399 . S
C69 C68 1.399 . S
C69 C70 1.381 . S
C70 H62 0.930 . S
C70 C66 1.390 . S
C70 C69 1.381 . S
N71 C64 1.286 . S
N71 C67 1.413 . S
H72 C77 0.930 . S
H73 C80 0.930 . S
H74 C82 0.930 . S
H75 C76 1.016 . S
C76 H75 1.016 . S
C76 N83 1.286 . S
C77 H72 0.930 . S
C77 C78 1.397 . S
C77 C79 1.361 . S
C78 C77 1.397 . S
C78 C82 1.390 . S
C79 C77 1.361 . S
C79 C80 1.393 . S
C79 N83 1.413 . S
C80 H73 0.930 . S
C80 C79 1.393 . S
C80 C81 1.399 . S
C81 C80 1.399 . S
C81 C82 1.381 . S
C82 H74 0.930 . S
C82 C78 1.390 . S
C82 C81 1.381 . S
N83 C76 1.286 . S
N83 C79 1.413 . S
H84 C89 0.930 . S
H85 C92 0.930 . S
H86 C94 0.930 . S
H87 C88 1.016 . S
C88 H87 1.016 . S
C88 N95 1.286 . S
C89 H84 0.930 . S
C89 C90 1.397 . S
C89 C91 1.361 . S
C90 C89 1.397 . S
C90 C94 1.390 . S
C91 C89 1.361 . S
C91 C92 1.393 . S
C91 N95 1.413 . S
C92 H85 0.930 . S
C92 C91 1.393 . S
C92 C93 1.399 . S
C93 C92 1.399 . S
C93 C94 1.381 . S
C94 H86 0.930 . S
C94 C90 1.390 . S
C94 C93 1.381 . S
N95 C88 1.286 . S
N95 C91 1.413 . S
Nd96 C98 2.836 1_545 S
Nd96 O116 2.500 1_445 S
Nd96 O117 2.492 . S
Nd96 O118 2.487 . S
Nd96 O119 2.682 . S
Nd96 O120 2.410 1_545 S
Nd96 O125 2.414 1_455 S
Nd96 O127 2.424 . S
Nd97 C107 2.836 . S
Nd97 O119 2.414 1_554 S
Nd97 O121 2.424 1_545 S
Nd97 O122 2.500 . S
Nd97 O123 2.492 . S
Nd97 O124 2.487 1_455 S
Nd97 O125 2.682 1_454 S
Nd97 O126 2.410 1_554 S
C98 Nd96 2.836 1_565 S
C98 C99 1.498 . S
C98 O116 1.258 1_455 S
C98 O117 1.239 1_565 S
C99 C98 1.498 . S
C99 C100 1.366 1_455 S
C99 C104 1.407 . S
C100 C99 1.366 1_655 S
C100 C101 1.392 . S
C100 H128 0.930 . S
C101 C100 1.392 . S
C101 C102 1.401 . S
C101 H129 0.929 . S
C102 C101 1.401 . S
C102 C103 1.349 1_655 S
C103 C102 1.349 1_455 S
C103 C104 1.384 . S
C103 H130 0.930 . S
C104 C99 1.407 . S
C104 C103 1.384 . S
C104 H131 0.929 . S
C105 O118 1.241 . S
C105 O119 1.273 . S
C106 O120 1.251 . S
C106 O121 1.268 1_556 S
C107 Nd97 2.836 . S
C107 C108 1.498 . S
C107 O122 1.258 . S
C107 O123 1.239 . S
C108 C107 1.498 . S
C108 C109 1.366 . S
C108 C113 1.407 . S
C109 C108 1.366 . S
C109 C110 1.392 . S
C109 H132 0.930 . S
C110 C109 1.392 . S
C110 C111 1.398 . S
C110 H133 0.929 . S
C111 C110 1.398 . S
C111 C112 1.352 . S
C112 C111 1.352 . S
C112 C113 1.384 . S
C112 H134 0.930 . S
C113 C108 1.407 . S
C113 C112 1.384 . S
C113 H135 0.929 . S
C114 O124 1.241 1_556 S
C114 O125 1.273 . S
C115 O126 1.251 . S
C115 O127 1.268 . S
O116 Nd96 2.500 1_665 S
O116 C98 1.258 1_655 S
O117 Nd96 2.492 . S
O117 C98 1.239 1_545 S
O118 Nd96 2.487 . S
O118 C105 1.241 . S
O119 Nd96 2.682 . S
O119 Nd97 2.414 1_556 S
O119 C105 1.273 . S
O120 Nd96 2.410 1_565 S
O120 C106 1.251 . S
O121 Nd97 2.424 1_565 S
O121 C106 1.268 1_554 S
O122 Nd97 2.500 . S
O122 C107 1.258 . S
O123 Nd97 2.492 . S
O123 C107 1.239 . S
O124 Nd97 2.487 1_655 S
O124 C114 1.241 1_554 S
O125 Nd96 2.414 1_655 S
O125 Nd97 2.682 1_656 S
O125 C114 1.273 . S
O126 Nd97 2.410 1_556 S
O126 C115 1.251 . S
O127 Nd96 2.424 . S
O127 C115 1.268 . S
H128 C100 0.930 . S
H129 C101 0.929 . S
H130 C103 0.930 . S
H131 C104 0.929 . S
H132 C109 0.930 . S
H133 C110 0.929 . S
H134 C112 0.930 . S
H135 C113 0.929 . S
Nd136 C138 2.836 1_545 S
Nd136 O156 2.500 1_545 S
Nd136 O157 2.492 . S
Nd136 O158 2.487 . S
Nd136 O159 2.682 . S
Nd136 O160 2.410 . S
Nd136 O165 2.413 1_545 S
Nd136 O167 2.424 . S
Nd137 C147 2.836 . S
Nd137 O159 2.414 1_554 S
Nd137 O161 2.424 . S
Nd137 O162 2.500 . S
Nd137 O163 2.492 . S
Nd137 O164 2.487 1_545 S
Nd137 O165 2.678 1_544 S
Nd137 O166 2.410 . S
C138 Nd136 2.836 1_565 S
C138 C139 1.498 . S
C138 O156 1.258 . S
C138 O157 1.239 1_565 S
C139 C138 1.498 . S
C139 C140 1.366 . S
C139 C144 1.407 1_565 S
C140 C139 1.366 . S
C140 C141 1.392 . S
C140 H168 0.930 . S
C141 C140 1.392 . S
C141 C142 1.398 . S
C141 H169 0.929 . S
C142 C141 1.398 . S
C142 C143 1.352 . S
C143 C142 1.352 . S
C143 C144 1.384 1_565 S
C143 H170 0.930 . S
C144 C139 1.407 1_545 S
C144 C143 1.384 1_545 S
C144 H171 0.929 . S
C145 O158 1.241 . S
C145 O159 1.273 . S
C146 O160 1.251 . S
C146 O161 1.268 1_556 S
C147 Nd137 2.836 . S
C147 C148 1.498 . S
C147 O162 1.258 . S
C147 O163 1.239 . S
C148 C147 1.498 . S
C148 C149 1.366 . S
C148 C153 1.407 . S
C149 C148 1.366 . S
C149 C150 1.392 . S
C149 H172 0.930 . S
C150 C149 1.392 . S
C150 C151 1.398 . S
C150 H173 0.929 . S
C151 C150 1.398 . S
C151 C152 1.352 . S
C152 C151 1.352 . S
C152 C153 1.384 . S
C152 H174 0.930 . S
C153 C148 1.407 . S
C153 C152 1.384 . S
C153 H175 0.929 . S
C154 O164 1.241 . S
C154 O165 1.275 1_554 S
C155 O166 1.251 1_556 S
C155 O167 1.268 . S
O156 Nd136 2.500 1_565 S
O156 C138 1.258 . S
O157 Nd136 2.492 . S
O157 C138 1.239 1_545 S
O158 Nd136 2.487 . S
O158 C145 1.241 . S
O159 Nd136 2.682 . S
O159 Nd137 2.414 1_556 S
O159 C145 1.273 . S
O160 Nd136 2.410 . S
O160 C146 1.251 . S
O161 Nd137 2.424 . S
O161 C146 1.268 1_554 S
O162 Nd137 2.500 . S
O162 C147 1.258 . S
O163 Nd137 2.492 . S
O163 C147 1.239 . S
O164 Nd137 2.487 1_565 S
O164 C154 1.241 . S
O165 Nd136 2.413 1_565 S
O165 Nd137 2.678 1_566 S
O165 C154 1.275 1_556 S
O166 Nd137 2.410 . S
O166 C155 1.251 1_554 S
O167 Nd136 2.424 . S
O167 C155 1.268 . S
H168 C140 0.930 . S
H169 C141 0.929 . S
H170 C143 0.930 . S
H171 C144 0.929 . S
H172 C149 0.930 . S
H173 C150 0.929 . S
H174 C152 0.930 . S
H175 C153 0.929 . S
Nd176 C178 2.836 . S
Nd176 O196 2.500 . S
Nd176 O197 2.492 . S
Nd176 O198 2.487 . S
Nd176 O199 2.682 1_554 S
Nd176 O200 2.410 1_554 S
Nd176 O205 2.414 1_554 S
Nd176 O207 2.424 . S
Nd177 C187 2.836 . S
Nd177 O199 2.414 . S
Nd177 O201 2.424 . S
Nd177 O202 2.500 . S
Nd177 O203 2.492 . S
Nd177 O204 2.487 . S
Nd177 O205 2.682 . S
Nd177 O206 2.410 . S
C178 Nd176 2.836 . S
C178 C179 1.498 . S
C178 O196 1.258 . S
C178 O197 1.239 . S
C179 C178 1.498 . S
C179 C180 1.366 . S
C179 C184 1.407 . S
C180 C179 1.366 . S
C180 C181 1.392 . S
C180 H208 0.930 . S
C181 C180 1.392 . S
C181 C182 1.398 . S
C181 H209 0.929 . S
C182 C181 1.398 . S
C182 C183 1.352 . S
C183 C182 1.352 . S
C183 C184 1.384 . S
C183 H210 0.930 . S
C184 C179 1.407 . S
C184 C183 1.384 . S
C184 H211 0.929 . S
C185 O198 1.241 1_556 S
C185 O199 1.273 . S
C186 O200 1.251 . S
C186 O201 1.268 . S
C187 Nd177 2.836 . S
C187 C188 1.498 . S
C187 O202 1.258 . S
C187 O203 1.239 . S
C188 C187 1.498 . S
C188 C189 1.366 . S
C188 C193 1.407 . S
C189 C188 1.366 . S
C189 C190 1.392 . S
C189 H212 0.930 . S
C190 C189 1.392 . S
C190 C191 1.398 . S
C190 H213 0.929 . S
C191 C190 1.398 . S
C191 C192 1.352 . S
C192 C191 1.352 . S
C192 C193 1.384 . S
C192 H214 0.930 . S
C193 C188 1.407 . S
C193 C192 1.384 . S
C193 H215 0.929 . S
C194 O204 1.241 . S
C194 O205 1.273 . S
C195 O206 1.251 1_554 S
C195 O207 1.268 . S
O196 Nd176 2.500 . S
O196 C178 1.258 . S
O197 Nd176 2.492 . S
O197 C178 1.239 . S
O198 Nd176 2.487 . S
O198 C185 1.241 1_554 S
O199 Nd176 2.682 1_556 S
O199 Nd177 2.414 . S
O199 C185 1.273 . S
O200 Nd176 2.410 1_556 S
O200 C186 1.251 . S
O201 Nd177 2.424 . S
O201 C186 1.268 . S
O202 Nd177 2.500 . S
O202 C187 1.258 . S
O203 Nd177 2.492 . S
O203 C187 1.239 . S
O204 Nd177 2.487 . S
O204 C194 1.241 . S
O205 Nd176 2.414 1_556 S
O205 Nd177 2.682 . S
O205 C194 1.273 . S
O206 Nd177 2.410 . S
O206 C195 1.251 1_556 S
O207 Nd176 2.424 . S
O207 C195 1.268 . S
H208 C180 0.930 . S
H209 C181 0.929 . S
H210 C183 0.930 . S
H211 C184 0.929 . S
H212 C189 0.930 . S
H213 C190 0.929 . S
H214 C192 0.930 . S
H215 C193 0.929 . S
Nd216 C218 2.836 1_455 S
Nd216 O236 2.500 1_455 S
Nd216 O237 2.492 1_455 S
Nd216 O238 2.487 . S
Nd216 O239 2.682 . S
Nd216 O240 2.410 1_455 S
Nd216 O245 2.414 . S
Nd216 O247 2.424 . S
Nd217 C227 2.836 . S
Nd217 O239 2.414 1_554 S
Nd217 O241 2.424 1_455 S
Nd217 O242 2.500 . S
Nd217 O243 2.492 . S
Nd217 O244 2.487 . S
Nd217 O245 2.682 1_554 S
Nd217 O246 2.410 . S
C218 Nd216 2.836 1_655 S
C218 C219 1.498 . S
C218 O236 1.258 . S
C218 O237 1.239 . S
C219 C218 1.498 . S
C219 C220 1.366 . S
C219 C224 1.407 . S
C220 C219 1.366 . S
C220 C221 1.392 . S
C220 H248 0.930 . S
C221 C220 1.392 . S
C221 C222 1.398 . S
C221 H249 0.929 . S
C222 C221 1.398 . S
C222 C223 1.352 . S
C223 C222 1.352 . S
C223 C224 1.384 . S
C223 H250 0.930 . S
C224 C219 1.407 . S
C224 C223 1.384 . S
C224 H251 0.929 . S
C225 O238 1.241 . S
C225 O239 1.273 . S
C226 O240 1.251 . S
C226 O241 1.268 1_556 S
C227 Nd217 2.836 . S
C227 C228 1.498 . S
C227 O242 1.258 . S
C227 O243 1.239 . S
C228 C227 1.498 . S
C228 C229 1.366 . S
C228 C233 1.407 . S
C229 C228 1.366 . S
C229 C230 1.392 . S
C229 H252 0.930 . S
C230 C229 1.392 . S
C230 C231 1.398 . S
C230 H253 0.929 . S
C231 C230 1.398 . S
C231 C232 1.352 . S
C232 C231 1.352 . S
C232 C233 1.384 . S
C232 H254 0.930 . S
C233 C228 1.407 . S
C233 C232 1.384 . S
C233 H255 0.929 . S
C234 O244 1.241 1_556 S
C234 O245 1.273 . S
C235 O246 1.251 1_556 S
C235 O247 1.268 . S
O236 Nd216 2.500 1_655 S
O236 C218 1.258 . S
O237 Nd216 2.492 1_655 S
O237 C218 1.239 . S
O238 Nd216 2.487 . S
O238 C225 1.241 . S
O239 Nd216 2.682 . S
O239 Nd217 2.414 1_556 S
O239 C225 1.273 . S
O240 Nd216 2.410 1_655 S
O240 C226 1.251 . S
O241 Nd217 2.424 1_655 S
O241 C226 1.268 1_554 S
O242 Nd217 2.500 . S
O242 C227 1.258 . S
O243 Nd217 2.492 . S
O243 C227 1.239 . S
O244 Nd217 2.487 . S
O244 C234 1.241 1_554 S
O245 Nd216 2.414 . S
O245 Nd217 2.682 1_556 S
O245 C234 1.273 . S
O246 Nd217 2.410 . S
O246 C235 1.251 1_554 S
O247 Nd216 2.424 . S
O247 C235 1.268 . S
H248 C220 0.930 . S
H249 C221 0.929 . S
H250 C223 0.930 . S
H251 C224 0.929 . S
H252 C229 0.930 . S
H253 C230 0.929 . S
H254 C232 0.930 . S
H255 C233 0.929 . S
C256 C257 1.387 . S
C256 H260 0.950 . S
C256 C265 1.390 . S
C257 C256 1.387 . S
C257 C259 1.387 . S
H258 C265 0.950 . S
C259 C257 1.387 . S
C259 C261 1.390 . S
C259 H263 0.950 1_556 S
H260 C256 0.950 . S
C261 C259 1.390 . S
C261 C262 1.387 . S
C261 H264 0.950 1_556 S
C262 C261 1.387 . S
C262 C265 1.387 . S
H263 C259 0.950 1_554 S
H264 C261 0.950 1_554 S
C265 C256 1.390 . S
C265 H258 0.950 . S
C265 C262 1.387 . S
C266 C267 1.387 . S
C266 H270 0.950 . S
C266 C275 1.390 . S
C267 C266 1.387 . S
C267 C269 1.387 . S
H268 C275 0.950 . S
C269 C267 1.387 . S
C269 C271 1.390 . S
C269 H273 0.950 . S
H270 C266 0.950 . S
C271 C269 1.390 . S
C271 C272 1.387 . S
C271 H274 0.950 . S
C272 C271 1.387 . S
C272 C275 1.387 . S
H273 C269 0.950 . S
H274 C271 0.950 . S
C275 C266 1.390 . S
C275 H268 0.950 . S
C275 C272 1.387 . S
C276 C277 1.387 . S
C276 H280 0.950 . S
C276 C285 1.390 . S
C277 C276 1.387 . S
C277 C279 1.387 . S
H278 C285 0.950 . S
C279 C277 1.387 . S
C279 C281 1.390 . S
C279 H283 0.950 . S
H280 C276 0.950 . S
C281 C279 1.390 . S
C281 C282 1.387 . S
C281 H284 0.950 . S
C282 C281 1.387 . S
C282 C285 1.387 . S
H283 C279 0.950 . S
H284 C281 0.950 . S
C285 C276 1.390 . S
C285 H278 0.950 . S
C285 C282 1.387 . S
C286 C287 1.387 . S
C286 H290 0.950 . S
C286 C295 1.390 . S
C287 C286 1.387 . S
C287 C289 1.387 . S
H288 C295 0.950 . S
C289 C287 1.387 . S
C289 C291 1.390 . S
C289 H293 0.950 . S
H290 C286 0.950 . S
C291 C289 1.390 . S
C291 C292 1.387 . S
C291 H294 0.950 1_556 S
C292 C291 1.387 . S
C292 C295 1.387 . S
H293 C289 0.950 . S
H294 C291 0.950 1_554 S
C295 C286 1.390 . S
C295 H288 0.950 . S
C295 C292 1.387 . S
C296 C297 1.387 1_544 S
C296 H300 0.950 . S
C296 C305 1.390 . S
C297 C296 1.387 1_566 S
C297 C299 1.387 . S
H298 C305 0.950 . S
C299 C297 1.387 . S
C299 C301 1.390 . S
C299 H303 0.950 . S
H300 C296 0.950 . S
C301 C299 1.390 . S
C301 C302 1.387 1_565 S
C301 H304 0.950 . S
C302 C301 1.387 1_545 S
C302 C305 1.387 1_556 S
H303 C299 0.950 . S
H304 C301 0.950 . S
C305 C296 1.390 . S
C305 H298 0.950 . S
C305 C302 1.387 1_554 S
C306 C307 1.387 . S
C306 H310 0.950 . S
C306 C315 1.390 . S
C307 C306 1.387 . S
C307 C309 1.387 . S
H308 C315 0.950 . S
C309 C307 1.387 . S
C309 C311 1.390 . S
C309 H313 0.950 . S
H310 C306 0.950 . S
C311 C309 1.390 . S
C311 C312 1.387 . S
C311 H314 0.950 . S
C312 C311 1.387 . S
C312 C315 1.387 . S
H313 C309 0.950 . S
H314 C311 0.950 . S
C315 C306 1.390 . S
C315 H308 0.950 . S
C315 C312 1.387 . S
C316 C317 1.387 1_554 S
C316 H320 0.950 . S
C316 C325 1.390 . S
C317 C316 1.387 1_556 S
C317 C319 1.387 . S
H318 C325 0.950 . S
C319 C317 1.387 . S
C319 C321 1.390 . S
C319 H323 0.950 . S
H320 C316 0.950 . S
C321 C319 1.390 . S
C321 C322 1.387 . S
C321 H324 0.950 . S
C322 C321 1.387 . S
C322 C325 1.387 1_556 S
H323 C319 0.950 . S
H324 C321 0.950 . S
C325 C316 1.390 . S
C325 H318 0.950 . S
C325 C322 1.387 1_554 S
C326 C327 1.387 1_456 S
C326 H330 0.950 . S
C326 C335 1.390 . S
C327 C326 1.387 1_654 S
C327 C329 1.387 . S
H328 C335 0.950 . S
C329 C327 1.387 . S
C329 C331 1.390 1_655 S
C329 H333 0.950 . S
H330 C326 0.950 . S
C331 C329 1.390 1_455 S
C331 C332 1.387 1_554 S
C331 H334 0.950 . S
C332 C331 1.387 1_556 S
C332 C335 1.387 . S
H333 C329 0.950 . S
H334 C331 0.950 . S
C335 C326 1.390 . S
C335 H328 0.950 . S
C335 C332 1.387 . S
C336 C337 1.387 . S
C336 H340 0.950 1_556 S
C336 C345 1.390 . S
C337 C336 1.387 . S
C337 C339 1.387 . S
H338 C345 0.950 1_554 S
C339 C337 1.387 . S
C339 C341 1.390 . S
C339 H343 0.950 . S
H340 C336 0.950 1_554 S
C341 C339 1.390 . S
C341 C342 1.387 . S
C341 H344 0.950 . S
C342 C341 1.387 . S
C342 C345 1.387 . S
H343 C339 0.950 . S
H344 C341 0.950 . S
C345 C336 1.390 . S
C345 H338 0.950 1_556 S
C345 C342 1.387 . S
C346 C347 1.387 1_554 S
C346 H350 0.950 . S
C346 C355 1.390 . S
C347 C346 1.387 1_556 S
C347 C349 1.387 . S
H348 C355 0.950 . S
C349 C347 1.387 . S
C349 C351 1.390 . S
C349 H353 0.950 . S
H350 C346 0.950 . S
C351 C349 1.390 . S
C351 C352 1.387 . S
C351 H354 0.950 . S
C352 C351 1.387 . S
C352 C355 1.387 1_556 S
H353 C349 0.950 . S
H354 C351 0.950 . S
C355 C346 1.390 . S
C355 H348 0.950 . S
C355 C352 1.387 1_554 S
C356 C357 1.387 . S
C356 H360 0.950 . S
C356 C365 1.390 . S
C357 C356 1.387 . S
C357 C359 1.387 . S
H358 C365 0.950 . S
C359 C357 1.387 . S
C359 C361 1.390 . S
C359 H363 0.950 . S
H360 C356 0.950 . S
C361 C359 1.390 . S
C361 C362 1.387 . S
C361 H364 0.950 . S
C362 C361 1.387 . S
C362 C365 1.387 . S
H363 C359 0.950 . S
H364 C361 0.950 . S
C365 C356 1.390 . S
C365 H358 0.950 . S
C365 C362 1.387 . S
C366 C367 1.387 . S
C366 H370 0.950 . S
C366 C375 1.390 . S
C367 C366 1.387 . S
C367 C369 1.387 1_556 S
H368 C375 0.950 . S
C369 C367 1.387 1_554 S
C369 C371 1.390 . S
C369 H373 0.950 . S
H370 C366 0.950 . S
C371 C369 1.390 . S
C371 C372 1.387 1_554 S
C371 H374 0.950 . S
C372 C371 1.387 1_556 S
C372 C375 1.387 . S
H373 C369 0.950 . S
H374 C371 0.950 . S
C375 C366 1.390 . S
C375 H368 0.950 . S
C375 C372 1.387 . S
C376 C377 1.386 . S
C376 H380 0.950 . S
C376 C385 1.390 1_655 S
C377 C376 1.386 . S
C377 C379 1.388 1_654 S
H378 C385 0.950 . S
C379 C377 1.388 1_456 S
C379 C381 1.390 . S
C379 H383 0.950 . S
H380 C376 0.950 . S
C381 C379 1.390 . S
C381 C382 1.387 1_556 S
C381 H384 0.950 . S
C382 C381 1.387 1_554 S
C382 C385 1.387 . S
H383 C379 0.950 . S
H384 C381 0.950 . S
C385 C376 1.390 1_455 S
C385 H378 0.950 . S
C385 C382 1.387 . S
C386 C387 1.387 1_545 S
C386 H390 0.936 1_545 S
C386 C395 1.390 . S
C387 C386 1.387 1_565 S
C387 C389 1.387 1_556 S
H388 C395 0.950 . S
C389 C387 1.387 1_554 S
C389 C391 1.390 1_565 S
C389 H393 0.950 . S
H390 C386 0.936 1_565 S
C391 C389 1.390 1_545 S
C391 C392 1.387 1_554 S
C391 H394 0.950 . S
C392 C391 1.387 1_556 S
C392 C395 1.387 . S
H393 C389 0.950 . S
H394 C391 0.950 . S
C395 C386 1.390 . S
C395 H388 0.950 . S
C395 C392 1.387 . S
C396 C397 1.387 . S
C396 H400 0.950 . S
C396 C405 1.390 . S
C397 C396 1.387 . S
C397 C399 1.387 . S
H398 C405 0.950 . S
C399 C397 1.387 . S
C399 C401 1.390 . S
C399 H403 0.950 . S
H400 C396 0.950 . S
C401 C399 1.390 . S
C401 C402 1.387 . S
C401 H404 0.950 . S
C402 C401 1.387 . S
C402 C405 1.387 . S
H403 C399 0.950 . S
H404 C401 0.950 . S
C405 C396 1.390 . S
C405 H398 0.950 . S
C405 C402 1.387 . S
C406 C407 1.387 . S
C406 H410 0.950 1_556 S
C406 C415 1.390 1_556 S
C407 C406 1.387 . S
C407 C409 1.387 . S
H408 C415 0.950 . S
C409 C407 1.387 . S
C409 C411 1.390 . S
C409 H413 0.950 . S
H410 C406 0.950 1_554 S
C411 C409 1.390 . S
C411 C412 1.387 . S
C411 H414 0.950 . S
C412 C411 1.387 . S
C412 C415 1.387 1_556 S
H413 C409 0.950 . S
H414 C411 0.950 . S
C415 C406 1.390 1_554 S
C415 H408 0.950 . S
C415 C412 1.387 1_554 S
C416 C417 1.387 . S
C416 H420 0.950 . S
C416 C425 1.390 . S
C417 C416 1.387 . S
C417 C419 1.387 . S
H418 C425 0.950 . S
C419 C417 1.387 . S
C419 C421 1.390 . S
C419 H423 0.950 . S
H420 C416 0.950 . S
C421 C419 1.390 . S
C421 C422 1.387 . S
C421 H424 0.950 . S
C422 C421 1.387 . S
C422 C425 1.387 . S
H423 C419 0.950 . S
H424 C421 0.950 . S
C425 C416 1.390 . S
C425 H418 0.950 . S
C425 C422 1.387 . S
C426 C427 1.387 . S
C426 H430 0.950 . S
C426 C435 1.390 . S
C427 C426 1.387 . S
C427 C429 1.387 . S
H428 C435 0.950 . S
C429 C427 1.387 . S
C429 C431 1.390 . S
C429 H433 0.950 . S
H430 C426 0.950 . S
C431 C429 1.390 . S
C431 C432 1.387 . S
C431 H434 0.950 . S
C432 C431 1.387 . S
C432 C435 1.387 . S
H433 C429 0.950 . S
H434 C431 0.950 . S
C435 C426 1.390 . S
C435 H428 0.950 . S
C435 C432 1.387 . S
C436 C437 1.387 . S
C436 H440 0.950 . S
C436 C445 1.390 . S
C437 C436 1.387 . S
C437 C439 1.387 . S
H438 C445 0.950 . S
C439 C437 1.387 . S
C439 C441 1.390 . S
C439 H443 0.950 . S
H440 C436 0.950 . S
C441 C439 1.390 . S
C441 C442 1.387 . S
C441 H444 0.950 . S
C442 C441 1.387 . S
C442 C445 1.387 . S
H443 C439 0.950 . S
H444 C441 0.950 . S
C445 C436 1.390 . S
C445 H438 0.950 . S
C445 C442 1.387 . S
C446 C447 1.387 . S
C446 H450 0.950 . S
C446 C455 1.390 . S
C447 C446 1.387 . S
C447 C449 1.387 . S
H448 C455 0.950 . S
C449 C447 1.387 . S
C449 C451 1.390 . S
C449 H453 0.950 . S
H450 C446 0.950 . S
C451 C449 1.390 . S
C451 C452 1.387 . S
C451 H454 0.950 . S
C452 C451 1.387 . S
C452 C455 1.387 . S
H453 C449 0.950 . S
H454 C451 0.950 . S
C455 C446 1.390 . S
C455 H448 0.950 . S
C455 C452 1.387 . S
C456 C457 1.387 1_455 S
C456 H460 0.950 . S
C456 C465 1.390 . S
C457 C456 1.387 1_655 S
C457 C459 1.387 . S
H458 C465 0.950 . S
C459 C457 1.387 . S
C459 C461 1.390 . S
C459 H463 0.950 . S
H460 C456 0.950 . S
C461 C459 1.390 . S
C461 C462 1.387 . S
C461 H464 0.950 . S
C462 C461 1.387 . S
C462 C465 1.387 1_655 S
H463 C459 0.950 . S
H464 C461 0.950 . S
C465 C456 1.390 . S
C465 H458 0.950 . S
C465 C462 1.387 1_455 S
C466 C467 1.387 . S
C466 H470 0.950 1_565 S
C466 C475 1.390 . S
C467 C466 1.387 . S
C467 C469 1.387 . S
H468 C475 0.950 1_545 S
C469 C467 1.387 . S
C469 C471 1.390 . S
C469 H473 0.950 . S
H470 C466 0.950 1_545 S
C471 C469 1.390 . S
C471 C472 1.387 . S
C471 H474 0.950 . S
C472 C471 1.387 . S
C472 C475 1.387 . S
H473 C469 0.950 . S
H474 C471 0.950 . S
C475 C466 1.390 . S
C475 H468 0.950 1_565 S
C475 C472 1.387 . S
C476 C477 1.387 . S
C476 H480 0.950 . S
C476 C485 1.390 . S
C477 C476 1.387 . S
C477 C479 1.387 . S
H478 C485 0.950 . S
C479 C477 1.387 . S
C479 C481 1.390 . S
C479 H483 0.950 . S
H480 C476 0.950 . S
C481 C479 1.390 . S
C481 C482 1.387 . S
C481 H484 0.950 . S
C482 C481 1.387 . S
C482 C485 1.387 . S
H483 C479 0.950 . S
H484 C481 0.950 . S
C485 C476 1.390 . S
C485 H478 0.950 . S
C485 C482 1.387 . S
C486 C487 1.387 . S
C486 H490 0.950 . S
C486 C495 1.390 . S
C487 C486 1.387 . S
C487 C489 1.387 . S
H488 C495 0.950 . S
C489 C487 1.387 . S
C489 C491 1.390 . S
C489 H493 0.950 . S
H490 C486 0.950 . S
C491 C489 1.390 . S
C491 C492 1.387 . S
C491 H494 0.950 . S
C492 C491 1.387 . S
C492 C495 1.387 . S
H493 C489 0.950 . S
H494 C491 0.950 . S
C495 C486 1.390 . S
C495 H488 0.950 . S
C495 C492 1.387 . S
C257 C76 1.657 . S
C262 C105 1.662 . S
C272 C145 1.406 . S
C267 C88 1.412 . S
C282 C194 1.432 . S
C277 C52 1.460 . S
C292 C225 1.790 . S
C287 C64 1.860 . S
C302 C114 1.661 . S
C297 C28 1.675 1_556 S
C307 C40 1.424 . S
C312 C154 1.408 . S
C317 C4 1.462 . S
C322 C185 1.432 . S
C327 C16 1.876 . S
C332 C234 1.789 . S
C342 C115 1.249 . S
C337 C69 1.091 . S
C352 C155 1.712 . S
C347 C81 1.501 . S
C362 C191 0.943 . S
C357 C93 0.962 . S
C367 C57 1.269 . S
C372 C235 1.458 . S
C377 C21 1.081 . S
C382 C106 1.249 1_554 S
C392 C146 1.711 . S
C387 C33 1.476 1_556 S
C402 C182 0.947 . S
C397 C45 0.960 . S
C407 C9 1.264 . S
C412 C226 1.460 . S
C417 C66 1.631 . S
C422 C111 1.660 . S
C427 C78 1.529 . S
C432 C151 1.486 . S
C442 C195 2.037 . S
C437 C90 1.845 . S
C452 C231 1.463 . S
C447 C54 1.488 . S
C457 C18 1.625 . S
C462 C102 1.660 . S
C472 C142 1.485 . S
C467 C30 1.540 . S
C482 C186 2.037 . S
C477 C42 1.846 . S
C487 C6 1.506 . S
C492 C222 1.461 . S
