# Generated by pormake.
# Topology nom, (4,4)-cn, num edge types: 1
# Building blocks:
#     Node 0, Type 0, BuildingBlock: KUFVIS_clean_linker_0, # of connection points: 4
#     Node 1, Type 0, BuildingBlock: KUFVIS_clean_linker_0, # of connection points: 4
#     Node 2, Type 0, BuildingBlock: KUFVIS_clean_linker_0, # of connection points: 4
#     Node 3, Type 0, BuildingBlock: KUFVIS_clean_linker_0, # of connection points: 4
#     Node 4, Type 0, BuildingBlock: KUFVIS_clean_linker_0, # of connection points: 4
#     Node 5, Type 0, BuildingBlock: KUFVIS_clean_linker_0, # of connection points: 4
#     Node 6, Type 1, BuildingBlock: CEKHIL_clean_sbu_0, # of connection points: 4
#     Node 7, Type 1, BuildingBlock: CEKHIL_clean_sbu_0, # of connection points: 4
#     Node 8, Type 1, BuildingBlock: CEKHIL_clean_sbu_0, # of connection points: 4
#     Node 9, Type 1, BuildingBlock: CEKHIL_clean_sbu_0, # of connection points: 4
#     Node 10, Type 1, BuildingBlock: CEKHIL_clean_sbu_0, # of connection points: 4
#     Node 11, Type 1, BuildingBlock: CEKHIL_clean_sbu_0, # of connection points: 4
#     Edge 12, Type (0, 1), BuildingBlock: EYOCIG_clean_linker_4, # of connection points: 2
#     Edge 13, Type (0, 1), BuildingBlock: EYOCIG_clean_linker_4, # of connection points: 2
#     Edge 14, Type (0, 1), BuildingBlock: EYOCIG_clean_linker_4, # of connection points: 2
#     Edge 15, Type (0, 1), BuildingBlock: EYOCIG_clean_linker_4, # of connection points: 2
#     Edge 16, Type (0, 1), BuildingBlock: EYOCIG_clean_linker_4, # of connection points: 2
#     Edge 17, Type (0, 1), BuildingBlock: EYOCIG_clean_linker_4, # of connection points: 2
#     Edge 18, Type (0, 1), BuildingBlock: EYOCIG_clean_linker_4, # of connection points: 2
#     Edge 19, Type (0, 1), BuildingBlock: EYOCIG_clean_linker_4, # of connection points: 2
#     Edge 20, Type (0, 1), BuildingBlock: EYOCIG_clean_linker_4, # of connection points: 2
#     Edge 21, Type (0, 1), BuildingBlock: EYOCIG_clean_linker_4, # of connection points: 2
#     Edge 22, Type (0, 1), BuildingBlock: EYOCIG_clean_linker_4, # of connection points: 2
#     Edge 23, Type (0, 1), BuildingBlock: EYOCIG_clean_linker_4, # of connection points: 2
#     Edge 24, Type (0, 1), BuildingBlock: EYOCIG_clean_linker_4, # of connection points: 2
#     Edge 25, Type (0, 1), BuildingBlock: EYOCIG_clean_linker_4, # of connection points: 2
#     Edge 26, Type (0, 1), BuildingBlock: EYOCIG_clean_linker_4, # of connection points: 2
#     Edge 27, Type (0, 1), BuildingBlock: EYOCIG_clean_linker_4, # of connection points: 2
#     Edge 28, Type (0, 1), BuildingBlock: EYOCIG_clean_linker_4, # of connection points: 2
#     Edge 29, Type (0, 1), BuildingBlock: EYOCIG_clean_linker_4, # of connection points: 2
#     Edge 30, Type (0, 1), BuildingBlock: EYOCIG_clean_linker_4, # of connection points: 2
#     Edge 31, Type (0, 1), BuildingBlock: EYOCIG_clean_linker_4, # of connection points: 2
#     Edge 32, Type (0, 1), BuildingBlock: EYOCIG_clean_linker_4, # of connection points: 2
#     Edge 33, Type (0, 1), BuildingBlock: EYOCIG_clean_linker_4, # of connection points: 2
#     Edge 34, Type (0, 1), BuildingBlock: EYOCIG_clean_linker_4, # of connection points: 2
#     Edge 35, Type (0, 1), BuildingBlock: EYOCIG_clean_linker_4, # of connection points: 2
# Relax obj value: 0.005
# Max RMSD: 0.051
# Mean RMSD: 0.042
data_MOF--net-nom--node1-CEKHIL_clean_sbu_0--node2-KUFVIS_clean_linker_0--edge1-EYOCIG_clean_linker_4
_symmetry_space_group_name_H-M    P1
_symmetry_Int_Tables_number       1
_symmetry_cell_setting            triclinic
loop_
_symmetry_equiv_pos_as_xyz
'x, y, z'
_cell_length_a     36.307034
_cell_length_b     35.86064
_cell_length_c     37.3724
_cell_angle_alpha  89.964564
_cell_angle_beta   90.039805
_cell_angle_gamma 121.23779
loop_
_atom_site_label
_atom_site_type_symbol
_atom_site_fract_x
_atom_site_fract_y
_atom_site_fract_z
_atom_type_partial_charge
H0 H 0.18193 0.60839 0.34714 0.0
H1 H 0.08933 0.57734 0.26447 0.0
H2 H 0.04829 0.52808 0.37264 0.0
H3 H 0.98836 0.52332 0.35753 0.0
H4 H 0.89504 0.4721 0.27362 0.0
H5 H 0.02738 0.52415 0.24732 0.0
C6 C 0.14842 0.59148 0.33869 0.0
C7 C 0.11602 0.56886 0.3637 0.0
C8 C 0.13849 0.59349 0.30313 0.0
C9 C 0.09553 0.57308 0.292 0.0
C10 C 0.06151 0.54864 0.31651 0.0
C11 C 0.07265 0.54658 0.35275 0.0
C12 C 1.0151 0.52663 0.30444 0.0
C13 C 0.98161 0.51557 0.32945 0.0
C14 C 0.93864 0.49531 0.3182 0.0
C15 C 0.9284 0.48707 0.28212 0.0
C16 C 0.9605 0.49869 0.25675 0.0
C17 C 1.00356 0.51733 0.26767 0.0
H18 H 0.5857 0.1699 0.52012 0.0
H19 H 0.53102 0.07554 0.4362 0.0
H20 H 0.53166 0.03539 0.54597 0.0
H21 H 0.47642 0.9738 0.52916 0.0
H22 H 0.4445 0.87918 0.44702 0.0
H23 H 0.52621 1.01421 0.42118 0.0
C24 C 0.56982 0.13606 0.51155 0.0
C25 C 0.55818 0.10341 0.5368 0.0
C26 C 0.56064 0.12585 0.47554 0.0
C27 C 0.53932 0.08231 0.46421 0.0
C28 C 0.52818 0.04824 0.48912 0.0
C29 C 0.53849 0.05974 0.52579 0.0
C30 C 0.50528 1.00126 0.47712 0.0
C31 C 0.48043 0.96713 0.50169 0.0
C32 C 0.45961 0.92355 0.49076 0.0
C33 C 0.46156 0.91316 0.4553 0.0
C34 C 0.48471 0.94571 0.43026 0.0
C35 C 0.5073 0.98968 0.44102 0.0
H36 H 0.59863 0.44437 0.61378 0.0
H37 H 0.53885 0.47663 0.69622 0.0
H38 H 0.54596 0.52344 0.58746 0.0
H39 H 0.49188 0.52962 0.60306 0.0
H40 H 0.45078 0.57989 0.68749 0.0
H41 H 0.5312 0.52936 0.71307 0.0
C42 C 0.58254 0.46141 0.62208 0.0
C43 C 0.57259 0.48327 0.59682 0.0
C44 C 0.57112 0.4601 0.6577 0.0
C45 C 0.54911 0.48059 0.66864 0.0
C46 C 0.53954 0.50441 0.64392 0.0
C47 C 0.55203 0.50562 0.60758 0.0
C48 C 0.51575 0.52649 0.65602 0.0
C49 C 0.49322 0.53733 0.63116 0.0
C50 C 0.47074 0.55724 0.64265 0.0
C51 C 0.46912 0.56535 0.67878 0.0
C52 C 0.48973 0.55399 0.70395 0.0
C53 C 0.51403 0.53586 0.6928 0.0
H54 H 0.17842 0.57431 0.77347 0.0
H55 H 0.08545 0.51996 0.85752 0.0
H56 H 0.04567 0.5217 0.74802 0.0
H57 H 0.98452 0.46612 0.7651 0.0
H58 H 0.89199 0.43362 0.84811 0.0
H59 H 1.02563 0.51627 0.873 0.0
C60 C 0.14509 0.55891 0.78213 0.0
C61 C 0.1128 0.54765 0.75698 0.0
C62 C 0.13506 0.54953 0.81814 0.0
C63 C 0.09214 0.52863 0.82956 0.0
C64 C 0.05851 0.51802 0.80481 0.0
C65 C 0.06975 0.52837 0.76812 0.0
C66 C 1.01221 0.49521 0.81704 0.0
C67 C 0.97823 0.47017 0.79266 0.0
C68 C 0.93531 0.44905 0.80396 0.0
C69 C 0.92545 0.45097 0.83955 0.0
C70 C 0.95788 0.47432 0.8644 0.0
C71 C 1.00118 0.49723 0.85328 0.0
H72 H 0.4881 0.87448 0.02115 0.0
H73 H 0.54165 0.9682 0.93665 0.0
H74 H 0.54274 1.00917 0.04641 0.0
H75 H 0.59769 0.07056 0.02925 0.0
H76 H 0.62913 0.16493 0.94696 0.0
H77 H 0.54712 0.02982 0.92147 0.0
C78 C 0.50392 0.90825 0.01241 0.0
C79 C 0.516 0.9411 0.03752 0.0
C80 C 0.51254 0.91817 0.9763 0.0
C81 C 0.5338 0.96165 0.96474 0.0
C82 C 0.54544 0.99594 0.98954 0.0
C83 C 0.53561 0.98469 0.0263 0.0
C84 C 0.56839 0.04291 0.97736 0.0
C85 C 0.59347 0.07713 0.0018 0.0
C86 C 0.61427 0.12069 0.99077 0.0
C87 C 0.6121 0.13097 0.95531 0.0
C88 C 0.58875 0.09836 0.93036 0.0
C89 C 0.56617 0.0544 0.94124 0.0
H90 H 0.47403 0.59883 0.11368 0.0
H91 H 0.53526 0.56792 0.19598 0.0
H92 H 0.52631 0.51941 0.08764 0.0
H93 H 0.58146 0.5148 0.10274 0.0
H94 H 0.62447 0.46579 0.18681 0.0
H95 H 0.54334 0.51531 0.21303 0.0
C96 C 0.49024 0.58191 0.12202 0.0
C97 C 0.4998 0.55966 0.09687 0.0
C98 C 0.50224 0.58377 0.15756 0.0
C99 C 0.52451 0.56354 0.1685 0.0
C100 C 0.53375 0.53942 0.14389 0.0
C101 C 0.52055 0.53752 0.10767 0.0
C102 C 0.55807 0.51789 0.15587 0.0
C103 C 0.58056 0.50727 0.13085 0.0
C104 C 0.60353 0.48784 0.14215 0.0
C105 C 0.60577 0.48001 0.17826 0.0
C106 C 0.58523 0.49121 0.20361 0.0
C107 C 0.56042 0.50888 0.19265 0.0
Co108 Co 0.67689 0.39667 0.40162 0.0
O109 O 0.71431 0.3903 0.36874 0.0
O110 O 0.7351 0.4449 0.40712 0.0
C111 C 0.64383 0.32672 0.4197 0.0
O112 O 0.65011 0.41511 0.44075 0.0
Co113 Co 0.57756 0.3432 0.39717 0.0
O114 O 0.57796 0.37286 0.44189 0.0
C115 C 0.62773 0.4175 0.34799 0.0
C116 C 0.74525 0.42578 0.38301 0.0
C117 C 0.61317 0.40431 0.45393 0.0
O118 O 0.66327 0.42877 0.36438 0.0
O119 O 0.5917 0.38309 0.35518 0.0
O120 O 0.68004 0.35575 0.43416 0.0
O121 O 0.62905 0.34004 0.39466 0.0
Co122 Co 0.30526 0.65165 0.56211 0.0
O123 O 0.34891 0.6581 0.59544 0.0
O124 O 0.31557 0.60452 0.55588 0.0
C125 C 0.34284 0.72213 0.5455 0.0
O126 O 0.26039 0.63345 0.52225 0.0
Co127 Co 0.25865 0.70321 0.56685 0.0
O128 O 0.23023 0.67453 0.52136 0.0
C129 C 0.23317 0.62786 0.61475 0.0
C130 C 0.34475 0.62348 0.58047 0.0
C131 C 0.23431 0.64392 0.50891 0.0
O132 O 0.25806 0.61771 0.59843 0.0
O133 O 0.23179 0.66205 0.60804 0.0
O134 O 0.35063 0.69422 0.53064 0.0
O135 O 0.31381 0.70742 0.57004 0.0
Co136 Co 0.66589 0.29353 0.73522 0.0
O137 O 0.67176 0.33858 0.70317 0.0
O138 O 0.61965 0.30393 0.74331 0.0
C139 C 0.73578 0.33079 0.75089 0.0
O140 O 0.64861 0.24712 0.77409 0.0
Co141 Co 0.71605 0.24597 0.72691 0.0
O142 O 0.68896 0.21636 0.77248 0.0
C143 C 0.64086 0.22212 0.68058 0.0
C144 C 0.63785 0.33394 0.71902 0.0
C145 C 0.65917 0.22035 0.78616 0.0
O146 O 0.63138 0.24683 0.69835 0.0
O147 O 0.67464 0.22029 0.686 0.0
O148 O 0.70868 0.33852 0.76687 0.0
O149 O 0.72065 0.30213 0.72576 0.0
Co150 Co 0.39693 0.64742 0.90141 0.0
O151 O 0.35976 0.65392 0.86825 0.0
O152 O 0.33883 0.59883 0.90621 0.0
C153 C 0.42934 0.71713 0.92011 0.0
O154 O 0.42323 0.62858 0.94065 0.0
Co155 Co 0.49628 0.70137 0.89819 0.0
O156 O 0.49536 0.67063 0.94244 0.0
C157 C 0.44728 0.6277 0.84824 0.0
C158 C 0.32879 0.61813 0.88214 0.0
C159 C 0.45998 0.63904 0.95405 0.0
O160 O 0.41141 0.61608 0.86416 0.0
O161 O 0.4831 0.6621 0.85595 0.0
O162 O 0.39298 0.68771 0.9341 0.0
O163 O 0.44467 0.70432 0.89516 0.0
Co164 Co 0.76805 0.39286 0.06167 0.0
O165 O 0.72431 0.38679 0.09464 0.0
O166 O 0.75768 0.43982 0.05457 0.0
C167 C 0.73074 0.32215 0.04568 0.0
O168 O 0.81304 0.41056 0.02208 0.0
Co169 Co 0.81491 0.34169 0.06805 0.0
O170 O 0.84364 0.36988 0.02251 0.0
C171 C 0.84014 0.41792 0.11472 0.0
C172 C 0.72854 0.42124 0.07923 0.0
C173 C 0.8394 0.40012 0.00939 0.0
O174 O 0.81511 0.42753 0.09793 0.0
O175 O 0.84173 0.38372 0.1087 0.0
O176 O 0.72285 0.34977 0.03036 0.0
O177 O 0.7596 0.33724 0.07039 0.0
Co178 Co 0.40811 0.75057 0.23546 0.0
O179 O 0.40287 0.70584 0.20346 0.0
O180 O 0.45459 0.7406 0.24393 0.0
C181 C 0.33805 0.71278 0.25067 0.0
O182 O 0.42481 0.79675 0.27437 0.0
Co183 Co 0.35757 0.79763 0.22676 0.0
O184 O 0.38442 0.82744 0.27232 0.0
C185 C 0.43347 0.82246 0.18114 0.0
C186 C 0.43677 0.71069 0.21953 0.0
C187 C 0.41414 0.82349 0.28624 0.0
O188 O 0.44278 0.79754 0.19882 0.0
O189 O 0.3996 0.82416 0.18636 0.0
O190 O 0.36523 0.70529 0.26685 0.0
O191 O 0.35322 0.74158 0.22561 0.0
C192 C 0.20969 0.63982 0.26725 0.0
C193 C 0.17395 0.61789 0.2792 0.0
C194 C 0.25419 0.66533 0.26049 0.0
C195 C 0.2926 0.68656 0.25649 0.0
C196 C 0.58766 0.1976 0.43922 0.0
C197 C 0.57325 0.1616 0.45138 0.0
C198 C 0.60697 0.2424 0.43177 0.0
C199 C 0.62442 0.28107 0.42676 0.0
C200 C 0.42495 0.58054 0.60527 0.0
C201 C 0.44709 0.56832 0.61851 0.0
C202 C 0.39731 0.59551 0.5956 0.0
C203 C 0.37342 0.60847 0.58883 0.0
C204 C 0.86407 0.40245 0.76817 0.0
C205 C 0.89982 0.4245 0.78008 0.0
C206 C 0.81958 0.37727 0.76131 0.0
C207 C 0.78118 0.35652 0.75708 0.0
C208 C 0.48485 0.8461 0.94023 0.0
C209 C 0.49947 0.88218 0.9523 0.0
C210 C 0.46557 0.8013 0.93271 0.0
C211 C 0.44833 0.76267 0.92751 0.0
C212 C 0.64901 0.4648 0.10413 0.0
C213 C 0.62695 0.47685 0.11774 0.0
C214 C 0.67648 0.44978 0.09418 0.0
C215 C 0.70019 0.43665 0.08743 0.0
C216 C 0.41401 0.85179 0.5271 0.0
C217 C 0.43558 0.88788 0.51492 0.0
C218 C 0.38925 0.8068 0.53429 0.0
C219 C 0.36862 0.76798 0.5388 0.0
C220 C 0.59346 0.41364 0.6956 0.0
C221 C 0.58129 0.43573 0.68198 0.0
C222 C 0.60895 0.38631 0.70526 0.0
C223 C 0.62228 0.36248 0.71144 0.0
C224 C 0.20457 0.57276 0.85574 0.0
C225 C 0.17004 0.56045 0.84224 0.0
C226 C 0.24751 0.58835 0.86592 0.0
C227 C 0.28469 0.60211 0.87322 0.0
C228 C 0.66011 0.19247 0.02711 0.0
C229 C 0.63846 0.15642 0.01486 0.0
C230 C 0.68484 0.23741 0.03449 0.0
C231 C 0.70533 0.27624 0.03909 0.0
C232 C 0.48065 0.63083 0.19541 0.0
C233 C 0.49249 0.60852 0.18171 0.0
C234 C 0.4657 0.65847 0.20546 0.0
C235 C 0.45264 0.68242 0.21201 0.0
C236 C 0.86942 0.47107 0.35652 0.0
C237 C 0.90383 0.4837 0.34267 0.0
C238 C 0.82655 0.4554 0.36697 0.0
C239 C 0.78939 0.44178 0.37423 0.0
C240 C 0.15033 0.58094 0.42781 0.0
C241 C 0.12937 0.57178 0.40056 0.0
C242 C 0.18011 0.59895 0.45652 0.0
C243 C 0.20578 0.61798 0.48031 0.0
C244 C 0.57679 0.13691 0.60147 0.0
C245 C 0.56633 0.11661 0.57381 0.0
C246 C 0.59324 0.16663 0.63038 0.0
C247 C 0.61194 0.19319 0.65368 0.0
C248 C 0.47277 0.56909 0.76878 0.0
C249 C 0.48361 0.56032 0.74107 0.0
C250 C 0.4581 0.58351 0.79759 0.0
C251 C 0.44893 0.6006 0.82085 0.0
C252 C 0.92369 0.46264 0.92843 0.0
C253 C 0.94465 0.47174 0.90123 0.0
C254 C 0.89382 0.44468 0.95706 0.0
C255 C 0.86807 0.42577 0.98079 0.0
C256 C 0.49802 0.90805 0.10238 0.0
C257 C 0.50825 0.92818 0.07461 0.0
C258 C 0.48155 0.87836 0.13131 0.0
C259 C 0.46263 0.85163 0.15446 0.0
C260 C 0.60299 0.47653 0.26837 0.0
C261 C 0.59184 0.48507 0.24068 0.0
C262 C 0.61773 0.46221 0.29725 0.0
C263 C 0.62669 0.445 0.3206 0.0
C264 C 0.47409 0.91017 0.36671 0.0
C265 C 0.48266 0.93181 0.39365 0.0
C266 C 0.457 0.87945 0.33838 0.0
C267 C 0.43888 0.85297 0.3148 0.0
C268 C 0.59326 0.46938 0.53293 0.0
C269 C 0.58214 0.47939 0.55995 0.0
C270 C 0.60443 0.45049 0.50483 0.0
C271 C 0.61074 0.43086 0.4817 0.0
C272 C 0.14612 0.56525 0.69247 0.0
C273 C 0.12569 0.55524 0.71993 0.0
C274 C 0.17631 0.58102 0.66415 0.0
C275 C 0.20348 0.59924 0.64138 0.0
C276 C 0.59912 0.13382 0.86676 0.0
C277 C 0.59063 0.1122 0.89373 0.0
C278 C 0.61617 0.16451 0.83837 0.0
C279 C 0.63433 0.19095 0.81475 0.0
C280 C 0.47872 0.57295 0.0329 0.0
C281 C 0.48996 0.56318 0.06 0.0
C282 C 0.46782 0.59198 0.00472 0.0
C283 C 0.46193 0.61202 0.98167 0.0
C284 C 0.92696 0.48194 0.19224 0.0
C285 C 0.94737 0.49159 0.21972 0.0
C286 C 0.89683 0.46594 0.16385 0.0
C287 C 0.86971 0.4472 0.14112 0.0
loop_
_geom_bond_atom_site_label_1
_geom_bond_atom_site_label_2
_geom_bond_distance
_geom_bond_site_symmetry_2
_ccdc_geom_bond_type
H0 C6 0.930 . S
H1 C9 0.931 . S
H2 C11 0.931 . S
H3 C13 0.930 . S
H4 C15 0.930 . S
H5 C17 0.931 . S
C6 H0 0.930 . S
C6 C7 1.380 . S
C6 C8 1.394 . S
C7 C6 1.380 . S
C7 C11 1.382 . S
C8 C6 1.394 . S
C8 C9 1.400 . S
C9 H1 0.931 . S
C9 C8 1.400 . S
C9 C10 1.375 . S
C10 C9 1.375 . S
C10 C11 1.415 . S
C10 C12 1.501 1_455 S
C11 H2 0.931 . S
C11 C7 1.382 . S
C11 C10 1.415 . S
C12 C10 1.501 1_655 S
C12 C13 1.384 . S
C12 C17 1.408 . S
C13 H3 0.930 . S
C13 C12 1.384 . S
C13 C14 1.389 . S
C14 C13 1.389 . S
C14 C15 1.405 . S
C15 H4 0.930 . S
C15 C14 1.405 . S
C15 C16 1.364 . S
C16 C15 1.364 . S
C16 C17 1.400 . S
C17 H5 0.931 . S
C17 C12 1.408 . S
C17 C16 1.400 . S
H18 C24 0.930 . S
H19 C27 0.931 . S
H20 C29 0.931 . S
H21 C31 0.930 . S
H22 C33 0.930 . S
H23 C35 0.931 . S
C24 H18 0.930 . S
C24 C25 1.380 . S
C24 C26 1.394 . S
C25 C24 1.380 . S
C25 C29 1.382 . S
C26 C24 1.394 . S
C26 C27 1.400 . S
C27 H19 0.931 . S
C27 C26 1.400 . S
C27 C28 1.375 . S
C28 C27 1.375 . S
C28 C29 1.415 . S
C28 C30 1.501 1_545 S
C29 H20 0.931 . S
C29 C25 1.382 . S
C29 C28 1.415 . S
C30 C28 1.501 1_565 S
C30 C31 1.384 . S
C30 C35 1.408 . S
C31 H21 0.930 . S
C31 C30 1.384 . S
C31 C32 1.389 . S
C32 C31 1.389 . S
C32 C33 1.405 . S
C33 H22 0.930 . S
C33 C32 1.405 . S
C33 C34 1.364 . S
C34 C33 1.364 . S
C34 C35 1.400 . S
C35 H23 0.931 . S
C35 C30 1.408 . S
C35 C34 1.400 . S
H36 C42 0.930 . S
H37 C45 0.931 . S
H38 C47 0.931 . S
H39 C49 0.930 . S
H40 C51 0.930 . S
H41 C53 0.931 . S
C42 H36 0.930 . S
C42 C43 1.380 . S
C42 C44 1.394 . S
C43 C42 1.380 . S
C43 C47 1.382 . S
C44 C42 1.394 . S
C44 C45 1.400 . S
C45 H37 0.931 . S
C45 C44 1.400 . S
C45 C46 1.375 . S
C46 C45 1.375 . S
C46 C47 1.415 . S
C46 C48 1.501 . S
C47 H38 0.931 . S
C47 C43 1.382 . S
C47 C46 1.415 . S
C48 C46 1.501 . S
C48 C49 1.384 . S
C48 C53 1.408 . S
C49 H39 0.930 . S
C49 C48 1.384 . S
C49 C50 1.389 . S
C50 C49 1.389 . S
C50 C51 1.405 . S
C51 H40 0.930 . S
C51 C50 1.405 . S
C51 C52 1.364 . S
C52 C51 1.364 . S
C52 C53 1.400 . S
C53 H41 0.931 . S
C53 C48 1.408 . S
C53 C52 1.400 . S
H54 C60 0.930 . S
H55 C63 0.931 . S
H56 C65 0.931 . S
H57 C67 0.930 . S
H58 C69 0.930 . S
H59 C71 0.931 . S
C60 H54 0.930 . S
C60 C61 1.380 . S
C60 C62 1.394 . S
C61 C60 1.380 . S
C61 C65 1.382 . S
C62 C60 1.394 . S
C62 C63 1.400 . S
C63 H55 0.931 . S
C63 C62 1.400 . S
C63 C64 1.375 . S
C64 C63 1.375 . S
C64 C65 1.415 . S
C64 C66 1.501 1_455 S
C65 H56 0.931 . S
C65 C61 1.382 . S
C65 C64 1.415 . S
C66 C64 1.501 1_655 S
C66 C67 1.384 . S
C66 C71 1.408 . S
C67 H57 0.930 . S
C67 C66 1.384 . S
C67 C68 1.389 . S
C68 C67 1.389 . S
C68 C69 1.405 . S
C69 H58 0.930 . S
C69 C68 1.405 . S
C69 C70 1.364 . S
C70 C69 1.364 . S
C70 C71 1.400 . S
C71 H59 0.931 . S
C71 C66 1.408 . S
C71 C70 1.400 . S
H72 C78 0.930 . S
H73 C81 0.931 . S
H74 C83 0.931 . S
H75 C85 0.930 . S
H76 C87 0.930 . S
H77 C89 0.931 . S
C78 H72 0.930 . S
C78 C79 1.380 . S
C78 C80 1.394 1_554 S
C79 C78 1.380 . S
C79 C83 1.382 . S
C80 C78 1.394 1_556 S
C80 C81 1.400 . S
C81 H73 0.931 . S
C81 C80 1.400 . S
C81 C82 1.375 . S
C82 C81 1.375 . S
C82 C83 1.415 1_556 S
C82 C84 1.501 1_565 S
C83 H74 0.931 . S
C83 C79 1.382 . S
C83 C82 1.415 1_554 S
C84 C82 1.501 1_545 S
C84 C85 1.384 1_556 S
C84 C89 1.408 . S
C85 H75 0.930 . S
C85 C84 1.384 1_554 S
C85 C86 1.399 . S
C86 C85 1.399 . S
C86 C87 1.373 1_554 S
C87 H76 0.930 . S
C87 C86 1.373 1_556 S
C87 C88 1.364 . S
C88 C87 1.364 . S
C88 C89 1.400 . S
C89 H77 0.931 . S
C89 C84 1.408 . S
C89 C88 1.400 . S
H90 C96 0.930 . S
H91 C99 0.931 . S
H92 C101 0.931 . S
H93 C103 0.930 . S
H94 C105 0.930 . S
H95 C107 0.931 . S
C96 H90 0.930 . S
C96 C97 1.380 . S
C96 C98 1.394 . S
C97 C96 1.380 . S
C97 C101 1.382 . S
C98 C96 1.394 . S
C98 C99 1.400 . S
C99 H91 0.931 . S
C99 C98 1.400 . S
C99 C100 1.375 . S
C100 C99 1.375 . S
C100 C101 1.415 . S
C100 C102 1.501 . S
C101 H92 0.931 . S
C101 C97 1.382 . S
C101 C100 1.415 . S
C102 C100 1.501 . S
C102 C103 1.384 . S
C102 C107 1.408 . S
C103 H93 0.930 . S
C103 C102 1.384 . S
C103 C104 1.389 . S
C104 C103 1.389 . S
C104 C105 1.405 . S
C105 H94 0.930 . S
C105 C104 1.405 . S
C105 C106 1.364 . S
C106 C105 1.364 . S
C106 C107 1.400 . S
C107 H95 0.931 . S
C107 C102 1.408 . S
C107 C106 1.400 . S
Co108 O109 2.216 . S
Co108 O110 2.091 . S
Co108 O112 2.004 . S
Co108 O118 2.021 . S
Co108 O120 2.137 . S
Co108 O121 2.244 . S
O109 Co108 2.216 . S
O109 C116 1.247 . S
O110 Co108 2.091 . S
O110 C116 1.261 . S
C111 O120 1.247 . S
C111 O121 1.272 . S
O112 Co108 2.004 . S
O112 C117 1.259 . S
Co113 O114 2.061 . S
Co113 O119 2.052 . S
Co113 O121 2.135 . S
O114 Co113 2.061 . S
O114 C117 1.235 . S
C115 O118 1.238 . S
C115 O119 1.241 . S
C116 O109 1.247 . S
C116 O110 1.261 . S
C117 O112 1.259 . S
C117 O114 1.235 . S
O118 Co108 2.021 . S
O118 C115 1.238 . S
O119 Co113 2.052 . S
O119 C115 1.241 . S
O120 Co108 2.137 . S
O120 C111 1.247 . S
O121 Co108 2.244 . S
O121 C111 1.272 . S
O121 Co113 2.135 . S
Co122 O123 2.216 . S
Co122 O124 2.091 . S
Co122 O126 2.004 . S
Co122 O132 2.021 . S
Co122 O134 2.137 . S
Co122 O135 2.244 . S
O123 Co122 2.216 . S
O123 C130 1.247 . S
O124 Co122 2.091 . S
O124 C130 1.261 . S
C125 O134 1.247 . S
C125 O135 1.272 . S
O126 Co122 2.004 . S
O126 C131 1.259 . S
Co127 O128 2.061 . S
Co127 O133 2.052 . S
Co127 O135 2.135 . S
O128 Co127 2.061 . S
O128 C131 1.235 . S
C129 O132 1.238 . S
C129 O133 1.241 . S
C130 O123 1.247 . S
C130 O124 1.261 . S
C131 O126 1.259 . S
C131 O128 1.235 . S
O132 Co122 2.021 . S
O132 C129 1.238 . S
O133 Co127 2.052 . S
O133 C129 1.241 . S
O134 Co122 2.137 . S
O134 C125 1.247 . S
O135 Co122 2.244 . S
O135 C125 1.272 . S
O135 Co127 2.135 . S
Co136 O137 2.216 . S
Co136 O138 2.091 . S
Co136 O140 2.004 . S
Co136 O146 2.021 . S
Co136 O148 2.137 . S
Co136 O149 2.244 . S
O137 Co136 2.216 . S
O137 C144 1.247 . S
O138 Co136 2.091 . S
O138 C144 1.261 . S
C139 O148 1.247 . S
C139 O149 1.272 . S
O140 Co136 2.004 . S
O140 C145 1.259 . S
Co141 O142 2.061 . S
Co141 O147 2.052 . S
Co141 O149 2.135 . S
O142 Co141 2.061 . S
O142 C145 1.235 . S
C143 O146 1.238 . S
C143 O147 1.241 . S
C144 O137 1.247 . S
C144 O138 1.261 . S
C145 O140 1.259 . S
C145 O142 1.235 . S
O146 Co136 2.021 . S
O146 C143 1.238 . S
O147 Co141 2.052 . S
O147 C143 1.241 . S
O148 Co136 2.137 . S
O148 C139 1.247 . S
O149 Co136 2.244 . S
O149 C139 1.272 . S
O149 Co141 2.135 . S
Co150 O151 2.216 . S
Co150 O152 2.091 . S
Co150 O154 2.004 . S
Co150 O160 2.021 . S
Co150 O162 2.137 . S
Co150 O163 2.244 . S
O151 Co150 2.216 . S
O151 C158 1.247 . S
O152 Co150 2.091 . S
O152 C158 1.261 . S
C153 O162 1.247 . S
C153 O163 1.272 . S
O154 Co150 2.004 . S
O154 C159 1.259 . S
Co155 O156 2.061 . S
Co155 O161 2.052 . S
Co155 O163 2.135 . S
O156 Co155 2.061 . S
O156 C159 1.235 . S
C157 O160 1.238 . S
C157 O161 1.241 . S
C158 O151 1.247 . S
C158 O152 1.261 . S
C159 O154 1.259 . S
C159 O156 1.235 . S
O160 Co150 2.021 . S
O160 C157 1.238 . S
O161 Co155 2.052 . S
O161 C157 1.241 . S
O162 Co150 2.137 . S
O162 C153 1.247 . S
O163 Co150 2.244 . S
O163 C153 1.272 . S
O163 Co155 2.135 . S
Co164 O165 2.216 . S
Co164 O166 2.091 . S
Co164 O168 2.004 . S
Co164 O174 2.021 . S
Co164 O176 2.137 . S
Co164 O177 2.244 . S
O165 Co164 2.216 . S
O165 C172 1.247 . S
O166 Co164 2.091 . S
O166 C172 1.261 . S
C167 O176 1.247 . S
C167 O177 1.272 . S
O168 Co164 2.004 . S
O168 C173 1.259 . S
Co169 O170 2.061 . S
Co169 O175 2.052 . S
Co169 O177 2.135 . S
O170 Co169 2.061 . S
O170 C173 1.235 . S
C171 O174 1.238 . S
C171 O175 1.241 . S
C172 O165 1.247 . S
C172 O166 1.261 . S
C173 O168 1.259 . S
C173 O170 1.235 . S
O174 Co164 2.021 . S
O174 C171 1.238 . S
O175 Co169 2.052 . S
O175 C171 1.241 . S
O176 Co164 2.137 . S
O176 C167 1.247 . S
O177 Co164 2.244 . S
O177 C167 1.272 . S
O177 Co169 2.135 . S
Co178 O179 2.216 . S
Co178 O180 2.091 . S
Co178 O182 2.004 . S
Co178 O188 2.021 . S
Co178 O190 2.137 . S
Co178 O191 2.244 . S
O179 Co178 2.216 . S
O179 C186 1.247 . S
O180 Co178 2.091 . S
O180 C186 1.261 . S
C181 O190 1.247 . S
C181 O191 1.272 . S
O182 Co178 2.004 . S
O182 C187 1.259 . S
Co183 O184 2.061 . S
Co183 O189 2.052 . S
Co183 O191 2.135 . S
O184 Co183 2.061 . S
O184 C187 1.235 . S
C185 O188 1.238 . S
C185 O189 1.241 . S
C186 O179 1.247 . S
C186 O180 1.261 . S
C187 O182 1.259 . S
C187 O184 1.235 . S
O188 Co178 2.021 . S
O188 C185 1.238 . S
O189 Co183 2.052 . S
O189 C185 1.241 . S
O190 Co178 2.137 . S
O190 C181 1.247 . S
O191 Co178 2.244 . S
O191 C181 1.272 . S
O191 Co183 2.135 . S
C192 C193 1.170 . S
C192 C194 1.380 . S
C193 C192 1.170 . S
C194 C192 1.380 . S
C194 C195 1.170 . S
C195 C194 1.170 . S
C196 C197 1.170 . S
C196 C198 1.380 . S
C197 C196 1.170 . S
C198 C196 1.380 . S
C198 C199 1.170 . S
C199 C198 1.170 . S
C200 C201 1.170 . S
C200 C202 1.380 . S
C201 C200 1.170 . S
C202 C200 1.380 . S
C202 C203 1.170 . S
C203 C202 1.170 . S
C204 C205 1.170 . S
C204 C206 1.380 . S
C205 C204 1.170 . S
C206 C204 1.380 . S
C206 C207 1.170 . S
C207 C206 1.170 . S
C208 C209 1.170 . S
C208 C210 1.380 . S
C209 C208 1.170 . S
C210 C208 1.380 . S
C210 C211 1.170 . S
C211 C210 1.170 . S
C212 C213 1.170 . S
C212 C214 1.380 . S
C213 C212 1.170 . S
C214 C212 1.380 . S
C214 C215 1.170 . S
C215 C214 1.170 . S
C216 C217 1.170 . S
C216 C218 1.380 . S
C217 C216 1.170 . S
C218 C216 1.380 . S
C218 C219 1.170 . S
C219 C218 1.170 . S
C220 C221 1.170 . S
C220 C222 1.380 . S
C221 C220 1.170 . S
C222 C220 1.380 . S
C222 C223 1.170 . S
C223 C222 1.170 . S
C224 C225 1.170 . S
C224 C226 1.380 . S
C225 C224 1.170 . S
C226 C224 1.380 . S
C226 C227 1.170 . S
C227 C226 1.170 . S
C228 C229 1.170 . S
C228 C230 1.380 . S
C229 C228 1.170 . S
C230 C228 1.380 . S
C230 C231 1.170 . S
C231 C230 1.170 . S
C232 C233 1.170 . S
C232 C234 1.380 . S
C233 C232 1.170 . S
C234 C232 1.380 . S
C234 C235 1.170 . S
C235 C234 1.170 . S
C236 C237 1.170 . S
C236 C238 1.380 . S
C237 C236 1.170 . S
C238 C236 1.380 . S
C238 C239 1.170 . S
C239 C238 1.170 . S
C240 C241 1.170 . S
C240 C242 1.380 . S
C241 C240 1.170 . S
C242 C240 1.380 . S
C242 C243 1.170 . S
C243 C242 1.170 . S
C244 C245 1.170 . S
C244 C246 1.380 . S
C245 C244 1.170 . S
C246 C244 1.380 . S
C246 C247 1.170 . S
C247 C246 1.170 . S
C248 C249 1.170 . S
C248 C250 1.380 . S
C249 C248 1.170 . S
C250 C248 1.380 . S
C250 C251 1.170 . S
C251 C250 1.170 . S
C252 C253 1.170 . S
C252 C254 1.380 . S
C253 C252 1.170 . S
C254 C252 1.380 . S
C254 C255 1.170 . S
C255 C254 1.170 . S
C256 C257 1.170 . S
C256 C258 1.380 . S
C257 C256 1.170 . S
C258 C256 1.380 . S
C258 C259 1.170 . S
C259 C258 1.170 . S
C260 C261 1.170 . S
C260 C262 1.380 . S
C261 C260 1.170 . S
C262 C260 1.380 . S
C262 C263 1.170 . S
C263 C262 1.170 . S
C264 C265 1.170 . S
C264 C266 1.380 . S
C265 C264 1.170 . S
C266 C264 1.380 . S
C266 C267 1.170 . S
C267 C266 1.170 . S
C268 C269 1.170 . S
C268 C270 1.380 . S
C269 C268 1.170 . S
C270 C268 1.380 . S
C270 C271 1.170 . S
C271 C270 1.170 . S
C272 C273 1.170 . S
C272 C274 1.380 . S
C273 C272 1.170 . S
C274 C272 1.380 . S
C274 C275 1.170 . S
C275 C274 1.170 . S
C276 C277 1.170 . S
C276 C278 1.380 . S
C277 C276 1.170 . S
C278 C276 1.380 . S
C278 C279 1.170 . S
C279 C278 1.170 . S
C280 C281 1.170 . S
C280 C282 1.380 . S
C281 C280 1.170 . S
C282 C280 1.380 . S
C282 C283 1.170 1_554 S
C283 C282 1.170 1_556 S
C284 C285 1.170 . S
C284 C286 1.380 . S
C285 C284 1.170 . S
C286 C284 1.380 . S
C286 C287 1.170 . S
C287 C286 1.170 . S
C195 C181 1.570 . S
C193 C8 1.535 . S
C197 C26 1.545 . S
C199 C111 1.571 . S
C201 C50 1.535 . S
C203 C130 1.589 . S
C205 C68 1.509 . S
C207 C139 1.579 . S
C211 C153 1.570 . S
C209 C80 1.543 . S
C213 C104 1.529 . S
C215 C172 1.579 . S
C217 C32 1.534 . S
C219 C125 1.568 . S
C221 C44 1.527 . S
C223 C144 1.569 . S
C225 C62 1.512 . S
C227 C158 1.568 . S
C231 C167 1.566 . S
C229 C86 1.541 . S
C235 C186 1.565 . S
C233 C98 1.534 . S
C239 C116 1.568 . S
C237 C14 1.533 . S
C241 C7 1.453 . S
C243 C131 1.513 . S
C245 C25 1.447 . S
C247 C143 1.481 . S
C251 C157 1.463 . S
C249 C52 1.476 . S
C253 C70 1.470 . S
C255 C173 1.509 1_556 S
C259 C185 1.490 . S
C257 C79 1.482 . S
C263 C115 1.495 . S
C261 C106 1.456 . S
C267 C187 1.516 . S
C265 C34 1.461 . S
C269 C43 1.453 . S
C271 C117 1.519 . S
C275 C129 1.473 . S
C273 C61 1.467 . S
C277 C88 1.456 . S
C279 C145 1.517 . S
C281 C97 1.482 . S
C283 C159 1.516 . S
C285 C16 1.480 . S
C287 C171 1.501 . S
