# Generated by pormake.
# Topology anh, (6,3)-cn, num edge types: 1
# Building blocks:
#     Node 0, Type 0, BuildingBlock: HISSIN_clean_sbu_0, # of connection points: 6
#     Node 1, Type 0, BuildingBlock: HISSIN_clean_sbu_0, # of connection points: 6
#     Node 2, Type 0, BuildingBlock: HISSIN_clean_sbu_0, # of connection points: 6
#     Node 3, Type 1, BuildingBlock: ESEHIV_clean_linker_0, # of connection points: 3
#     Node 4, Type 1, BuildingBlock: ESEHIV_clean_linker_0, # of connection points: 3
#     Node 5, Type 1, BuildingBlock: ESEHIV_clean_linker_0, # of connection points: 3
#     Node 6, Type 1, BuildingBlock: ESEHIV_clean_linker_0, # of connection points: 3
#     Node 7, Type 1, BuildingBlock: ESEHIV_clean_linker_0, # of connection points: 3
#     Node 8, Type 1, BuildingBlock: ESEHIV_clean_linker_0, # of connection points: 3
#     Edge 9, Type (0, 1), BuildingBlock: XUDNAN_clean_linker_2, # of connection points: 2
#     Edge 10, Type (0, 1), BuildingBlock: XUDNAN_clean_linker_2, # of connection points: 2
#     Edge 11, Type (0, 1), BuildingBlock: XUDNAN_clean_linker_2, # of connection points: 2
#     Edge 12, Type (0, 1), BuildingBlock: XUDNAN_clean_linker_2, # of connection points: 2
#     Edge 13, Type (0, 1), BuildingBlock: XUDNAN_clean_linker_2, # of connection points: 2
#     Edge 14, Type (0, 1), BuildingBlock: XUDNAN_clean_linker_2, # of connection points: 2
#     Edge 15, Type (0, 1), BuildingBlock: XUDNAN_clean_linker_2, # of connection points: 2
#     Edge 16, Type (0, 1), BuildingBlock: XUDNAN_clean_linker_2, # of connection points: 2
#     Edge 17, Type (0, 1), BuildingBlock: XUDNAN_clean_linker_2, # of connection points: 2
#     Edge 18, Type (0, 1), BuildingBlock: XUDNAN_clean_linker_2, # of connection points: 2
#     Edge 19, Type (0, 1), BuildingBlock: XUDNAN_clean_linker_2, # of connection points: 2
#     Edge 20, Type (0, 1), BuildingBlock: XUDNAN_clean_linker_2, # of connection points: 2
#     Edge 21, Type (0, 1), BuildingBlock: XUDNAN_clean_linker_2, # of connection points: 2
#     Edge 22, Type (0, 1), BuildingBlock: XUDNAN_clean_linker_2, # of connection points: 2
#     Edge 23, Type (0, 1), BuildingBlock: XUDNAN_clean_linker_2, # of connection points: 2
#     Edge 24, Type (0, 1), BuildingBlock: XUDNAN_clean_linker_2, # of connection points: 2
#     Edge 25, Type (0, 1), BuildingBlock: XUDNAN_clean_linker_2, # of connection points: 2
#     Edge 26, Type (0, 1), BuildingBlock: XUDNAN_clean_linker_2, # of connection points: 2
# Relax obj value: 0.303
# Max RMSD: 0.197
# Mean RMSD: 0.163
data_MOF--net-anh--node1-HISSIN_clean_sbu_0--node2-ESEHIV_clean_linker_0--edge1-XUDNAN_clean_linker_2
_symmetry_space_group_name_H-M    P1
_symmetry_Int_Tables_number       1
_symmetry_cell_setting            triclinic
loop_
_symmetry_equiv_pos_as_xyz
'x, y, z'
_cell_length_a     27.83858
_cell_length_b     27.979625
_cell_length_c     51.732086
_cell_angle_alpha  92.27682
_cell_angle_beta   90.146979
_cell_angle_gamma 120.07559
loop_
_atom_site_label
_atom_site_type_symbol
_atom_site_fract_x
_atom_site_fract_y
_atom_site_fract_z
_atom_type_partial_charge
Eu0 Eu 1.08047 0.47915 0.15771 0.0
Eu1 Eu 0.14746 0.61013 0.16379 0.0
C2 C 1.09808 0.54225 0.21484 0.0
C3 C 0.95201 0.35463 0.1599 0.0
C4 C 0.92199 0.3754 0.14712 0.0
C5 C 0.8933 0.33806 0.19696 0.0
C6 C 0.882 0.38241 0.16011 0.0
C7 C 0.93405 0.33187 0.1841 0.0
C8 C 0.86993 0.36719 0.18584 0.0
C9 C 1.01039 0.37485 0.15296 0.0
O10 O 0.21605 0.58793 0.15515 0.0
O11 O 0.1693 0.49686 0.16566 0.0
C12 C 0.21615 0.54164 0.15977 0.0
O13 O 1.13148 0.50915 0.12164 0.0
O14 O 0.21268 0.68976 0.17963 0.0
O15 O 0.1565 0.68646 0.14948 0.0
O16 O 1.11857 0.58169 0.12287 0.0
C17 C 0.13602 0.55223 0.11045 0.0
O18 O 1.01828 0.50721 0.14646 0.0
O19 O 1.05712 0.58719 0.17113 0.0
O20 O 0.13757 0.5874 0.2052 0.0
O21 O 1.02744 0.40584 0.13296 0.0
O22 O 1.04603 0.39644 0.17246 0.0
O23 O 1.0671 0.49767 0.19991 0.0
C24 C 0.24711 0.76384 0.1513 0.0
C25 C 0.29977 0.76872 0.14995 0.0
C26 C 0.28506 0.856 0.13572 0.0
C27 C 0.34544 0.81833 0.14283 0.0
C28 C 0.23964 0.80667 0.14293 0.0
C29 C 0.33889 0.86349 0.13706 0.0
C30 C 0.20078 0.7177 0.16378 0.0
C31 C 1.01375 0.54769 0.15792 0.0
H32 H 0.93376 0.39248 0.12822 0.0
H33 H 0.88279 0.32311 0.21629 0.0
H34 H 0.86423 0.40397 0.15064 0.0
H35 H 0.95575 0.3149 0.19429 0.0
H36 H 0.30624 0.7356 0.15584 0.0
H37 H 0.27845 0.88997 0.13163 0.0
H38 H 0.38639 0.82282 0.14377 0.0
H39 H 0.19917 0.80335 0.14361 0.0
Eu40 Eu 0.5798 1.01774 0.48279 0.0
Eu41 Eu 0.52761 1.08265 0.51302 0.0
C42 C 0.57632 1.0247 0.54573 0.0
C43 C 0.67061 0.95375 0.46943 0.0
C44 C 0.68209 0.95032 0.4955 0.0
C45 C 0.73839 0.92774 0.4566 0.0
C46 C 0.72 0.93372 0.50204 0.0
C47 C 0.69996 0.94378 0.45007 0.0
C48 C 0.74759 0.92086 0.48262 0.0
C49 C 0.62575 0.96412 0.46222 0.0
O50 O 0.62207 0.14378 0.51248 0.0
O51 O 0.64484 0.10874 0.47723 0.0
C52 C 0.65694 0.15051 0.49377 0.0
O53 O 0.53199 1.03153 0.45133 0.0
O54 O 0.52698 0.12965 0.54753 0.0
O55 O 0.47784 0.1233 0.51365 0.0
O56 O 0.53675 0.10714 0.47207 0.0
C57 C 0.52574 1.07497 0.45133 0.0
O58 O 0.48812 0.95036 0.48506 0.0
O59 O 0.44891 0.99844 0.50367 0.0
O60 O 0.5325 1.02966 0.5428 0.0
O61 O 0.58205 0.94171 0.47653 0.0
O62 O 0.64016 1.01455 0.45676 0.0
O63 O 0.60699 1.02876 0.52563 0.0
C64 C 0.53933 0.21185 0.53248 0.0
C65 C 0.55318 0.24809 0.55423 0.0
C66 C 0.6211 0.28087 0.51111 0.0
C67 C 0.60178 0.29983 0.55471 0.0
C68 C 0.57205 0.23007 0.51044 0.0
C69 C 0.63821 0.31535 0.53372 0.0
C70 C 0.50311 0.15199 0.53494 0.0
C71 C 0.44398 0.95205 0.49318 0.0
H72 H 0.6601 0.95832 0.51077 0.0
H73 H 0.75972 0.91922 0.44121 0.0
H74 H 0.72544 0.92832 0.52224 0.0
H75 H 0.69194 0.94679 0.42987 0.0
H76 H 0.52882 0.23484 0.57151 0.0
H77 H 0.64748 0.2906 0.49453 0.0
H78 H 0.61211 0.3262 0.57211 0.0
H79 H 0.56272 0.20289 0.49341 0.0
Eu80 Eu 0.588 0.50419 0.81956 0.0
Eu81 Eu 0.71893 0.57269 0.83096 0.0
C82 C 0.63624 0.54602 0.87772 0.0
C83 C 0.44871 0.47728 0.80082 0.0
C84 C 0.47531 0.52866 0.78931 0.0
C85 C 0.37748 0.49617 0.81602 0.0
C86 C 0.45574 0.56541 0.79315 0.0
C87 C 0.39733 0.45946 0.81232 0.0
C88 C 0.40955 0.55118 0.80865 0.0
C89 C 0.48207 0.45263 0.80827 0.0
O90 O 0.69747 0.48223 0.83462 0.0
O91 O 0.61452 0.43895 0.81202 0.0
C92 C 0.65718 0.43739 0.82233 0.0
O93 O 0.63068 0.55241 0.78448 0.0
O94 O 0.79035 0.59629 0.85633 0.0
O95 O 0.80152 0.63453 0.81912 0.0
O96 O 0.70592 0.543 0.78938 0.0
C97 C 0.6743 0.55316 0.77471 0.0
O98 O 0.60371 0.59377 0.82196 0.0
O99 O 0.69914 0.64131 0.82287 0.0
O100 O 0.68019 0.58429 0.86675 0.0
O101 O 0.51909 0.45591 0.7919 0.0
O102 O 0.50248 0.46701 0.83186 0.0
O103 O 0.59872 0.50316 0.86361 0.0
C104 C 0.88278 0.64368 0.8402 0.0
C105 C 0.92066 0.68383 0.82394 0.0
C106 C 0.95967 0.64765 0.86418 0.0
C107 C 0.97772 0.70721 0.82839 0.0
C108 C 0.90275 0.62413 0.85965 0.0
C109 C 0.99775 0.6911 0.84931 0.0
C110 C 0.82513 0.63213 0.84049 0.0
C111 C 0.65154 0.64098 0.82138 0.0
H112 H 0.51512 0.54338 0.78031 0.0
H113 H 0.34094 0.48376 0.8275 0.0
H114 H 0.4813 0.60726 0.78708 0.0
H115 H 0.37616 0.41991 0.82126 0.0
H116 H 0.90633 0.69993 0.80891 0.0
H117 H 0.97346 0.63453 0.88065 0.0
H118 H 1.00604 0.7399 0.81632 0.0
H119 H 0.87462 0.59359 0.87265 0.0
H120 H 0.45372 0.12823 0.26443 0.0
H121 H 0.54749 0.29234 0.29914 0.0
H122 H 0.55724 0.26199 0.21738 0.0
C123 C 0.48095 0.17223 0.26243 0.0
C124 C 0.50132 0.1923 0.23812 0.0
C125 C 0.49768 0.20816 0.28444 0.0
C126 C 0.53361 0.26511 0.28191 0.0
C127 C 0.55648 0.28574 0.25783 0.0
C128 C 0.53837 0.24869 0.23594 0.0
H129 H 0.8633 0.75317 0.60604 0.0
H130 H 0.92319 0.64434 0.62591 0.0
H131 H 0.93616 0.69825 0.54838 0.0
C132 C 0.88559 0.73173 0.60112 0.0
C133 C 0.90323 0.73264 0.57565 0.0
C134 C 0.89145 0.69891 0.61935 0.0
C135 C 0.91658 0.66787 0.6117 0.0
C136 C 0.92635 0.6614 0.58543 0.0
C137 C 0.92521 0.69877 0.56831 0.0
H138 H 0.30259 0.80122 0.98006 0.0
H139 H 0.44627 0.78322 0.9705 0.0
H140 H 0.39056 0.84722 0.91027 0.0
C141 C 0.34011 0.81047 0.96994 0.0
C142 C 0.34664 0.83135 0.94531 0.0
C143 C 0.37577 0.79272 0.97937 0.0
C144 C 0.41986 0.79871 0.96394 0.0
C145 C 0.42432 0.81606 0.93839 0.0
C146 C 0.39043 0.83686 0.93025 0.0
H147 H 0.97577 0.46632 0.40604 0.0
H148 H 1.13012 0.61914 0.40985 0.0
H149 H 1.05116 0.54636 0.48059 0.0
C150 C 1.00954 0.49844 0.41783 0.0
C151 C 1.00702 0.49801 0.44528 0.0
C152 C 1.05346 0.54203 0.40507 0.0
C153 C 1.09689 0.58565 0.41989 0.0
C154 C 1.09724 0.58876 0.44708 0.0
C155 C 1.05145 0.54461 0.45968 0.0
H156 H 0.63971 0.1024 0.73761 0.0
H157 H 0.64056 0.94985 0.73757 0.0
H158 H 0.65174 1.03709 0.81021 0.0
C159 C 0.6399 1.07021 0.74849 0.0
C160 C 0.64473 1.07617 0.7758 0.0
C161 C 0.63884 1.02523 0.7347 0.0
C162 C 0.64101 0.9839 0.74849 0.0
C163 C 0.64498 0.98613 0.77577 0.0
C164 C 0.64798 1.03368 0.7893 0.0
H165 H 0.53608 0.54203 0.0717 0.0
H166 H 0.6912 0.54493 0.07223 0.0
H167 H 0.60964 0.53581 0.14442 0.0
C168 C 0.56872 0.54105 0.08271 0.0
C169 C 0.56606 0.53897 0.10997 0.0
C170 C 0.61319 0.54247 0.06921 0.0
C171 C 0.65631 0.54144 0.08297 0.0
C172 C 0.65645 0.53858 0.11018 0.0
C173 C 0.61055 0.53745 0.12355 0.0
H174 H 0.30725 0.5979 0.12712 0.0
H175 H 0.24522 0.47559 0.18561 0.0
H176 H 0.32804 0.46529 0.18114 0.0
H177 H 0.36042 0.52769 0.08628 0.0
H178 H 0.42029 0.59007 0.07635 0.0
H179 H 0.35819 0.59088 0.08529 0.0
H180 H 0.41463 0.67011 0.11932 0.0
H181 H 0.47701 0.66965 0.11052 0.0
H182 H 0.45573 0.66147 0.14369 0.0
H183 H 0.42074 0.46837 0.17028 0.0
H184 H 0.50704 0.47844 0.15163 0.0
H185 H 0.50854 0.59501 0.09836 0.0
C186 C 0.31141 0.56949 0.13927 0.0
C187 C 0.26908 0.53818 0.15715 0.0
C188 C 0.27638 0.50048 0.17196 0.0
C189 C 0.32375 0.49436 0.16955 0.0
C190 C 0.36436 0.52546 0.15182 0.0
C191 C 0.35834 0.56195 0.1367 0.0
C192 C 0.40666 0.58808 0.11807 0.0
C193 C 0.3851 0.5733 0.08982 0.0
C194 C 0.44051 0.65108 0.12321 0.0
C195 C 0.44079 0.56092 0.12509 0.0
C196 C 0.41596 0.52536 0.14484 0.0
C197 C 0.44014 0.49611 0.15476 0.0
C198 C 0.48988 0.50243 0.1441 0.0
C199 C 0.51585 0.53733 0.12326 0.0
C200 C 0.49038 0.5673 0.11401 0.0
H201 H 0.73444 0.18855 0.45371 0.0
H202 H 0.70233 0.24094 0.5285 0.0
H203 H 0.78722 0.33204 0.52526 0.0
H204 H 0.88573 0.2609 0.46133 0.0
H205 H 0.89779 0.27937 0.42803 0.0
H206 H 0.83526 0.2178 0.43648 0.0
H207 H 0.77622 0.25284 0.41418 0.0
H208 H 0.83858 0.31455 0.40572 0.0
H209 H 0.7861 0.31987 0.42383 0.0
H210 H 0.87781 0.42183 0.51299 0.0
H211 H 0.96011 0.49732 0.49329 0.0
H212 H 0.93643 0.38696 0.42687 0.0
C213 C 0.74517 0.219 0.46951 0.0
C214 C 0.71047 0.20625 0.49149 0.0
C215 C 0.72709 0.24846 0.51142 0.0
C216 C 0.77566 0.30094 0.50972 0.0
C217 C 0.80839 0.3122 0.48779 0.0
C218 C 0.79372 0.27217 0.46803 0.0
C219 C 0.83591 0.29496 0.44645 0.0
C220 C 0.86542 0.26124 0.44286 0.0
C221 C 0.8075 0.29558 0.42104 0.0
C222 C 0.87637 0.35389 0.45699 0.0
C223 C 0.85984 0.36308 0.4809 0.0
C224 C 0.89058 0.41461 0.49421 0.0
C225 C 0.93834 0.45763 0.48283 0.0
C226 C 0.95668 0.45005 0.45812 0.0
C227 C 0.92453 0.3963 0.44543 0.0
H228 H 0.59447 0.67296 0.78712 0.0
H229 H 0.71496 0.73636 0.85074 0.0
H230 H 0.7233 0.82837 0.84794 0.0
H231 H 0.6663 0.79789 0.75062 0.0
H232 H 0.60355 0.79301 0.73794 0.0
H233 H 0.60425 0.73128 0.746 0.0
H234 H 0.52188 0.70543 0.77621 0.0
H235 H 0.52091 0.76716 0.76842 0.0
H236 H 0.52826 0.75442 0.80167 0.0
H237 H 0.71792 0.91684 0.83806 0.0
H238 H 0.70568 0.99088 0.81991 0.0
H239 H 0.59197 0.87244 0.76135 0.0
C240 C 0.62206 0.706 0.8007 0.0
C241 C 0.65331 0.69625 0.81959 0.0
C242 C 0.69007 0.7418 0.8363 0.0
C243 C 0.6951 0.79462 0.83483 0.0
C244 C 0.66413 0.80301 0.81603 0.0
C245 C 0.62888 0.75995 0.79898 0.0
C246 C 0.60297 0.78095 0.77953 0.0
C247 C 0.6203 0.77545 0.75188 0.0
C248 C 0.53962 0.75005 0.78153 0.0
C249 C 0.628 0.84182 0.78854 0.0
C250 C 0.66304 0.85382 0.80973 0.0
C251 C 0.6905 0.9074 0.8214 0.0
C252 C 0.68286 0.94955 0.81103 0.0
C253 C 0.64811 0.93911 0.78887 0.0
C254 C 0.61982 0.88348 0.77795 0.0
H255 H 0.92619 0.49637 0.12066 0.0
H256 H 0.97755 0.60342 0.19018 0.0
H257 H 0.89154 0.60859 0.18728 0.0
H258 H 0.86862 0.56855 0.0875 0.0
H259 H 0.81207 0.50707 0.07203 0.0
H260 H 0.87586 0.5089 0.08037 0.0
H261 H 0.82143 0.42173 0.10688 0.0
H262 H 0.75754 0.41961 0.09834 0.0
H263 H 0.77631 0.42147 0.13183 0.0
H264 H 0.79673 0.60251 0.17634 0.0
H265 H 0.70976 0.59115 0.15715 0.0
H266 H 0.72005 0.49059 0.09383 0.0
C267 C 0.91928 0.52063 0.13543 0.0
C268 C 0.95968 0.54932 0.15583 0.0
C269 C 0.94824 0.58099 0.17435 0.0
C270 C 0.89895 0.58404 0.17289 0.0
C271 C 0.86042 0.55576 0.15254 0.0
C272 C 0.8703 0.52486 0.13401 0.0
C273 C 0.82348 0.50059 0.11339 0.0
C274 C 0.84638 0.52259 0.08674 0.0
C275 C 0.7929 0.43708 0.11257 0.0
C276 C 0.78574 0.52237 0.12314 0.0
C277 C 0.80757 0.55386 0.14588 0.0
C278 C 0.77978 0.57803 0.15846 0.0
C279 C 0.7296 0.57086 0.14746 0.0
C280 C 0.7067 0.54014 0.12369 0.0
C281 C 0.7357 0.51507 0.11179 0.0
H282 H 0.4099 0.85491 0.46232 0.0
H283 H 0.34695 0.92852 0.518 0.0
H284 H 0.25474 0.84331 0.51477 0.0
H285 H 0.28505 0.78673 0.42162 0.0
H286 H 0.29119 0.72665 0.41393 0.0
H287 H 0.35249 0.79242 0.42152 0.0
H288 H 0.37976 0.74868 0.45773 0.0
H289 H 0.31832 0.68283 0.45035 0.0
H290 H 0.33124 0.71344 0.48276 0.0
H291 H 0.16607 0.74561 0.50539 0.0
H292 H 1.09201 0.65381 0.48789 0.0
H293 H 0.21102 0.64464 0.43713 0.0
C294 C 0.3769 0.85324 0.47397 0.0
C295 C 0.38693 0.89948 0.49064 0.0
C296 C 0.34144 0.89461 0.50511 0.0
C297 C 0.2885 0.84583 0.50344 0.0
C298 C 0.28019 0.80122 0.48695 0.0
C299 C 0.32326 0.80491 0.47223 0.0
C300 C 0.30301 0.75214 0.45513 0.0
C301 C 0.30825 0.76528 0.42634 0.0
C302 C 0.335 0.72253 0.4619 0.0
C303 C 0.24205 0.7181 0.46244 0.0
C304 C 0.22966 0.74677 0.48106 0.0
C305 C 0.17582 0.72325 0.49076 0.0
C306 C 1.13372 0.6704 0.48084 0.0
C307 C 0.14454 0.64073 0.461 0.0
C308 C 0.20033 0.66545 0.45217 0.0
H309 H 0.59779 0.34239 0.78898 0.0
H310 H 0.72471 0.41041 0.84997 0.0
H311 H 0.73209 0.32591 0.8466 0.0
H312 H 0.53119 0.19791 0.80636 0.0
H313 H 0.51909 0.17077 0.77332 0.0
H314 H 0.52204 0.23555 0.78116 0.0
H315 H 0.5993 0.28367 0.74797 0.0
H316 H 0.59645 0.21901 0.74001 0.0
H317 H 0.66135 0.27887 0.75039 0.0
H318 H 0.72534 0.23012 0.83638 0.0
H319 H 0.7104 0.1401 0.81836 0.0
H320 H 0.58995 0.13413 0.76306 0.0
C321 C 0.62694 0.33954 0.80181 0.0
C322 C 0.66038 0.38417 0.82 0.0
C323 C 0.69834 0.3778 0.83593 0.0
C324 C 0.70279 0.3294 0.83417 0.0
C325 C 0.66945 0.28652 0.81612 0.0
C326 C 0.6325 0.29144 0.80005 0.0
C327 C 0.60298 0.24022 0.78158 0.0
C328 C 0.54009 0.20929 0.78586 0.0
C329 C 0.61578 0.25642 0.75331 0.0
C330 C 0.62888 0.20579 0.78969 0.0
C331 C 0.66681 0.23294 0.80984 0.0
C332 C 0.69566 0.20893 0.82056 0.0
C333 C 0.68652 0.15704 0.81026 0.0
C334 C 0.64905 0.12861 0.78903 0.0
C335 C 0.6195 0.15398 0.77904 0.0
H336 H 0.81743 0.94486 0.52511 0.0
H337 H 0.75108 0.8362 0.4561 0.0
H338 H 0.79551 0.78435 0.47002 0.0
H339 H 0.94949 0.9409 0.53114 0.0
H340 H 0.94618 0.93978 0.56592 0.0
H341 H 0.91804 0.97504 0.54839 0.0
H342 H 0.82323 0.91637 0.5699 0.0
H343 H 0.85085 0.88071 0.5873 0.0
H344 H 0.78941 0.84199 0.56696 0.0
H345 H 0.83237 0.73517 0.49415 0.0
H346 H 0.86282 0.69331 0.52627 0.0
H347 H 0.90782 0.83353 0.58005 0.0
C348 C 0.81312 0.91083 0.51268 0.0
C349 C 0.78111 0.89506 0.48936 0.0
C350 C 0.77644 0.85011 0.4737 0.0
C351 C 0.80131 0.8201 0.48152 0.0
C352 C 0.83098 0.83564 0.50497 0.0
C353 C 0.8375 0.8802 0.52025 0.0
C354 C 0.86687 0.88477 0.54574 0.0
C355 C 0.92352 0.93831 0.54792 0.0
C356 C 0.8304 0.88069 0.56883 0.0
C357 C 0.87362 0.8344 0.54279 0.0
C358 C 0.85325 0.80717 0.51897 0.0
C359 C 0.85012 0.75697 0.51254 0.0
C360 C 0.86803 0.73371 0.53096 0.0
C361 C 0.88932 0.76077 0.55558 0.0
C362 C 0.89254 0.81215 0.56134 0.0
H363 H 1.06219 0.65203 0.86888 0.0
H364 H 1.06599 0.80382 0.85031 0.0
H365 H 0.15832 0.85821 0.87178 0.0
H366 H 1.11395 0.69494 0.93146 0.0
H367 H 0.15401 0.66052 0.93179 0.0
H368 H 1.093 0.63346 0.91115 0.0
H369 H 0.15061 0.63853 0.87094 0.0
H370 H 0.21165 0.66439 0.89156 0.0
H371 H 0.21208 0.7029 0.86436 0.0
H372 H 0.24831 0.89595 0.89849 0.0
H373 H 0.32805 0.91206 0.92687 0.0
H374 H 0.25774 0.73514 0.93083 0.0
C375 C 1.08272 0.6967 0.86895 0.0
C376 C 1.05688 0.72355 0.85784 0.0
C377 C 1.08539 0.78219 0.85824 0.0
C378 C 0.13766 0.81351 0.87061 0.0
C379 C 0.16065 0.78554 0.88249 0.0
C380 C 1.13417 0.7284 0.88154 0.0
C381 C 0.16516 0.70792 0.89737 0.0
C382 C 1.12938 0.67212 0.91924 0.0
C383 C 0.18613 0.6766 0.88002 0.0
C384 C 0.21246 0.76234 0.90793 0.0
C385 C 0.21 0.80689 0.8989 0.0
C386 C 0.2505 0.86136 0.9058 0.0
C387 C 0.29514 0.87024 0.92202 0.0
C388 C 0.29746 0.82474 0.93145 0.0
C389 C 0.25558 0.77045 0.9244 0.0
H390 H 0.42045 0.90461 0.17374 0.0
H391 H 0.36111 0.95145 0.10732 0.0
H392 H 0.41513 1.04924 0.12281 0.0
H393 H 0.39689 0.97426 0.2161 0.0
H394 H 0.45606 0.99737 0.23773 0.0
H395 H 0.43311 0.936 0.21751 0.0
H396 H 0.52979 0.97566 0.19723 0.0
H397 H 0.5544 1.03677 0.21829 0.0
H398 H 0.56209 1.04298 0.18379 0.0
H399 H 0.45017 0.1341 0.15146 0.0
H400 H 0.47175 0.20069 0.18866 0.0
H401 H 0.50639 0.09762 0.23676 0.0
C402 C 0.42188 0.93574 0.16149 0.0
C403 C 0.38671 0.92058 0.13935 0.0
C404 C 0.38795 0.96236 0.12434 0.0
C405 C 0.41856 1.01801 0.13301 0.0
C406 C 0.44833 1.03102 0.15645 0.0
C407 C 0.45159 0.99113 0.17012 0.0
C408 C 0.47721 1.01318 0.19688 0.0
C409 C 0.43847 0.97813 0.21827 0.0
C410 C 0.53428 1.01742 0.19917 0.0
C411 C 0.48296 1.06974 0.19701 0.0
C412 C 0.46781 1.0801 0.17332 0.0
C413 C 0.46379 0.12717 0.16983 0.0
C414 C 0.47558 0.16445 0.19107 0.0
C415 C 0.49012 0.15378 0.21553 0.0
C416 C 0.49484 0.10641 0.2183 0.0
H417 H 0.7042 0.35858 0.57778 0.0
H418 H 0.70336 0.38347 0.49542 0.0
H419 H 0.79883 0.46178 0.49997 0.0
H420 H 0.75787 0.49367 0.59595 0.0
H421 H 0.79751 0.49251 0.62331 0.0
H422 H 0.73685 0.43019 0.61189 0.0
H423 H 0.79745 0.38371 0.60737 0.0
H424 H 0.85859 0.44761 0.61782 0.0
H425 H 0.85753 0.4136 0.58731 0.0
H426 H 0.89088 0.54353 0.51408 0.0
H427 H 0.95157 0.63329 0.53625 0.0
H428 H 0.88353 0.56132 0.60977 0.0
C429 C 0.72368 0.38016 0.56056 0.0
C430 C 0.69564 0.364 0.5362 0.0
C431 C 0.72381 0.39366 0.51428 0.0
C432 C 0.77844 0.43823 0.51662 0.0
C433 C 0.80452 0.45315 0.54101 0.0
C434 C 0.77742 0.42558 0.56266 0.0
C435 C 0.8093 0.45607 0.58725 0.0
C436 C 0.77322 0.4689 0.60562 0.0
C437 C 0.83208 0.42328 0.60073 0.0
C438 C 0.85588 0.50776 0.57616 0.0
C439 C 0.85466 0.50352 0.54946 0.0
C440 C 0.8912 0.54759 0.53499 0.0
C441 C 0.92507 0.59902 0.54792 0.0
C442 C 0.91879 0.60695 0.57478 0.0
C443 C 0.88858 0.55897 0.5892 0.0
H444 H 0.39469 0.55737 0.86021 0.0
H445 H 0.41985 0.64739 0.79042 0.0
H446 H 0.43865 0.7307 0.81736 0.0
H447 H 0.32674 0.62188 0.89575 0.0
H448 H 0.35723 0.61903 0.92602 0.0
H449 H 0.3426 0.56772 0.90047 0.0
H450 H 0.44579 0.59241 0.90347 0.0
H451 H 0.46126 0.64603 0.92798 0.0
H452 H 0.49995 0.66236 0.8986 0.0
H453 H 0.46869 0.80751 0.85266 0.0
H454 H 0.47289 0.86211 0.89222 0.0
H455 H 0.42228 0.7172 0.93724 0.0
C456 C 0.40261 0.59397 0.85037 0.0
C457 C 0.40607 0.59598 0.82317 0.0
C458 C 0.41753 0.64521 0.81127 0.0
C459 C 0.42905 0.69279 0.82639 0.0
C460 C 0.4297 0.69039 0.85323 0.0
C461 C 0.41459 0.64158 0.86502 0.0
C462 C 0.41547 0.64863 0.89411 0.0
C463 C 0.35705 0.6122 0.9047 0.0
C464 C 0.45816 0.63664 0.90677 0.0
C465 C 0.43372 0.70929 0.89695 0.0
C466 C 0.4431 0.73313 0.87326 0.0
C467 C 0.46021 0.78889 0.87127 0.0
C468 C 0.4629 0.81966 0.89389 0.0
C469 C 0.44648 0.79389 0.91793 0.0
C470 C 0.43548 0.73898 0.9195 0.0
H471 H 0.78043 0.37584 0.16998 0.0
H472 H 0.88414 0.39937 0.23741 0.0
H473 H 0.82233 0.41745 0.2645 0.0
H474 H 0.73614 0.48295 0.19637 0.0
H475 H 0.6681 0.4406 0.18153 0.0
H476 H 0.72826 0.44641 0.16575 0.0
H477 H 0.68556 0.34083 0.16335 0.0
H478 H 0.62463 0.33361 0.1782 0.0
H479 H 0.66164 0.30329 0.19255 0.0
H480 H 0.7373 0.39868 0.28482 0.0
H481 H 0.64013 0.34186 0.29497 0.0
H482 H 0.59277 0.35315 0.21652 0.0
C483 C 0.79167 0.38754 0.19019 0.0
C484 C 0.83648 0.38498 0.20155 0.0
C485 C 0.84896 0.3991 0.22828 0.0
C486 C 0.81481 0.4109 0.24378 0.0
C487 C 0.76934 0.41052 0.23222 0.0
C488 C 0.75859 0.40077 0.20582 0.0
C489 C 0.70244 0.39364 0.19881 0.0
C490 C 0.70917 0.44394 0.18481 0.0
C491 C 0.66651 0.33963 0.18233 0.0
C492 C 0.67985 0.3919 0.22562 0.0
C493 C 0.72006 0.40421 0.24464 0.0
C494 C 0.70593 0.391 0.27027 0.0
C495 C 0.64977 0.35859 0.27597 0.0
C496 C 0.60831 0.34056 0.25612 0.0
C497 C 0.62371 0.36448 0.2318 0.0
H498 H 0.17121 0.65409 0.09242 0.0
H499 H 0.19143 0.51055 0.08152 0.0
H500 H 0.26437 0.56059 0.04955 0.0
H501 H 0.18986 0.6948 0.02757 0.0
H502 H 0.22701 0.76754 0.03675 0.0
H503 H 0.17669 0.71916 0.05803 0.0
H504 H 0.25152 0.75615 0.09458 0.0
H505 H 0.30304 0.80385 0.07346 0.0
H506 H 0.31521 0.75516 0.08994 0.0
H507 H 0.33072 0.62606 0.01641 0.0
H508 H 0.3811 0.69768 0.98513 0.0
H509 H 0.32518 0.8016 0.02324 0.0
C510 C 0.19035 0.63257 0.08321 0.0
C511 C 0.17499 0.57797 0.08921 0.0
C512 C 0.20196 0.55206 0.07692 0.0
C513 C 0.24374 0.58036 0.05895 0.0
C514 C 0.25848 0.6347 0.05395 0.0
C515 C 0.23249 0.66035 0.06584 0.0
C516 C 0.25526 0.71871 0.05737 0.0
C517 C 0.20949 0.72541 0.04414 0.0
C518 C 0.28298 0.76099 0.0802 0.0
C519 C 0.29758 0.72191 0.03835 0.0
C520 C 0.29892 0.67316 0.03648 0.0
C521 C 0.33086 0.66481 0.01815 0.0
C522 C 0.36008 0.70632 0.00061 0.0
C523 C 0.35771 0.75596 0.00172 0.0
C524 C 0.32806 0.76441 0.02175 0.0
H525 H 0.53332 1.04871 0.3999 0.0
H526 H 0.47661 0.1373 0.45028 0.0
H527 H 0.45311 0.1725 0.41244 0.0
H528 H 0.59917 0.15292 0.35652 0.0
H529 H 0.5806 0.10817 0.32775 0.0
H530 H 0.58596 1.08317 0.3585 0.0
H531 H 0.48516 1.00128 0.35236 0.0
H532 H 0.47954 1.0261 0.3215 0.0
H533 H 0.42956 1.01496 0.34603 0.0
H534 H 0.44682 0.20798 0.37032 0.0
H535 H 0.45646 0.2395 0.32559 0.0
H536 H 0.51528 0.12769 0.30197 0.0
C537 C 0.51465 1.07433 0.40285 0.0
C538 C 0.50683 0.09024 0.428 0.0
C539 C 0.4833 0.12478 0.43117 0.0
C540 C 0.46943 0.14479 0.40979 0.0
C541 C 0.47898 0.12974 0.38528 0.0
C542 C 0.50068 0.09504 0.38158 0.0
C543 C 0.51102 0.08925 0.3532 0.0
C544 C 0.57285 0.10961 0.34874 0.0
C545 C 0.4741 1.02933 0.34266 0.0
C546 C 0.49339 0.12739 0.34182 0.0
C547 C 0.47454 0.14989 0.36064 0.0
C548 C 0.46035 0.1898 0.35524 0.0
C549 C 0.46608 0.2076 0.3299 0.0
C550 C 0.48555 0.18524 0.3104 0.0
C551 C 0.49865 0.14416 0.31642 0.0
H552 H 0.71326 0.51635 0.7352 0.0
H553 H 0.68946 0.65223 0.76075 0.0
H554 H 0.74494 0.7065 0.72426 0.0
H555 H 0.84935 0.59168 0.7147 0.0
H556 H 0.83987 0.54849 0.68614 0.0
H557 H 0.79653 0.5196 0.71353 0.0
H558 H 0.70815 0.48601 0.68467 0.0
H559 H 0.75107 0.51371 0.65707 0.0
H560 H 0.70142 0.53474 0.66539 0.0
H561 H 0.8133 0.74943 0.68805 0.0
H562 H 0.87314 0.77145 0.6501 0.0
H563 H 0.84076 0.60219 0.6455 0.0
C564 C 0.71877 0.55704 0.73267 0.0
C565 C 0.69715 0.58027 0.75047 0.0
C566 C 0.70521 0.63366 0.74691 0.0
C567 C 0.73707 0.66489 0.72646 0.0
C568 C 0.75927 0.6414 0.70954 0.0
C569 C 0.74896 0.58802 0.71197 0.0
C570 C 0.77585 0.57162 0.69077 0.0
C571 C 0.81789 0.557 0.70197 0.0
C572 C 0.73148 0.5237 0.67345 0.0
C573 C 0.80464 0.62475 0.67657 0.0
C574 C 0.79521 0.66476 0.6878 0.0
C575 C 0.81993 0.71798 0.67871 0.0
C576 C 0.85386 0.73005 0.65708 0.0
C577 C 0.86201 0.68878 0.64443 0.0
C578 C 0.83702 0.63555 0.65468 0.0
H579 H 0.53604 1.04102 0.59163 0.0
H580 H 0.6557 0.9989 0.56087 0.0
H581 H 0.68438 0.99383 0.60566 0.0
H582 H 0.62174 0.12845 0.64492 0.0
H583 H 0.56487 0.10746 0.66668 0.0
H584 H 0.55282 0.10591 0.63235 0.0
H585 H 0.47764 1.00235 0.63306 0.0
H586 H 0.48932 1.0036 0.6674 0.0
H587 H 0.49504 0.95407 0.64622 0.0
H588 H 0.6994 0.99314 0.65454 0.0
H589 H 0.70149 0.99929 0.70236 0.0
H590 H 0.57344 1.04435 0.70095 0.0
C591 C 0.56802 1.03024 0.59419 0.0
C592 C 0.59326 1.01985 0.57253 0.0
C593 C 0.63553 1.0068 0.57701 0.0
C594 C 0.65208 1.00385 0.60243 0.0
C595 C 0.62637 1.01455 0.62328 0.0
C596 C 0.58538 1.02773 0.61935 0.0
C597 C 0.56513 1.03881 0.64492 0.0
C598 C 0.57685 0.09871 0.64736 0.0
C599 C 0.5031 0.99722 0.64808 0.0
C600 C 0.60085 1.02953 0.66399 0.0
C601 C 0.63576 1.01534 0.65114 0.0
C602 C 0.67215 1.00419 0.66469 0.0
C603 C 0.67283 1.00753 0.69193 0.0
C604 C 0.63753 1.02214 0.70561 0.0
C605 C 0.60129 1.0335 0.69122 0.0
H606 H 0.5727 0.46831 0.91458 0.0
H607 H 0.6901 0.64269 0.90603 0.0
H608 H 0.69346 0.65951 0.95296 0.0
H609 H 0.49849 0.49012 0.9696 0.0
H610 H 0.48899 0.43039 0.98595 0.0
H611 H 0.49229 0.43116 0.95115 0.0
H612 H 0.57258 0.40989 0.95292 0.0
H613 H 0.56972 0.40934 0.9877 0.0
H614 H 0.63401 0.45462 0.97239 0.0
H615 H 0.69115 0.65853 0.00068 0.0
H616 H 0.67838 0.63944 0.04716 0.0
H617 H 0.56081 0.46708 0.02747 0.0
C618 C 0.59828 0.5101 0.92259 0.0
C619 C 0.63131 0.55405 0.90627 0.0
C620 C 0.66466 0.60802 0.91779 0.0
C621 C 0.66687 0.61823 0.9446 0.0
C622 C 0.63524 0.57426 0.96014 0.0
C623 C 0.60105 0.52129 0.94972 0.0
C624 C 0.57259 0.48173 0.97139 0.0
C625 C 0.50933 0.45687 0.9694 0.0
C626 C 0.58817 0.4362 0.97107 0.0
C627 C 0.59714 0.52068 0.99536 0.0
C628 C 0.6331 0.5739 0.98821 0.0
C629 C 0.66261 0.61715 0.00654 0.0
C630 C 0.65523 0.60598 0.0329 0.0
C631 C 0.61847 0.5521 0.0409 0.0
C632 C 0.58881 0.50882 0.02185 0.0
H633 H 1.06449 0.46334 0.25308 0.0
H634 H 1.10341 0.63109 0.23975 0.0
H635 H 1.08896 0.64494 0.28558 0.0
H636 H 0.9588 0.43504 0.30305 0.0
H637 H 0.98073 0.39726 0.32267 0.0
H638 H 0.98909 0.39737 0.28811 0.0
H639 H 1.09406 0.4334 0.29498 0.0
H640 H 1.08604 0.43336 0.32952 0.0
H641 H 0.13567 0.49583 0.31463 0.0
H642 H 1.07537 0.64425 0.3325 0.0
H643 H 1.06685 0.63015 0.37924 0.0
H644 H 1.03899 0.46403 0.36543 0.0
C645 C 1.06906 0.50256 0.25983 0.0
C646 C 1.08509 0.54617 0.24263 0.0
C647 C 1.09153 0.59717 0.2524 0.0
C648 C 1.08312 0.60543 0.27847 0.0
C649 C 1.06846 0.56245 0.295 0.0
C650 C 1.06156 0.51199 0.28628 0.0
C651 C 1.04896 0.47443 0.30898 0.0
C652 C 0.99094 0.42296 0.30549 0.0
C653 C 1.09386 0.45831 0.31221 0.0
C654 C 1.05088 0.51216 0.33164 0.0
C655 C 1.06157 0.56245 0.32283 0.0
C656 C 1.06689 0.60502 0.33965 0.0
C657 C 1.06219 0.59665 0.36626 0.0
C658 C 1.05263 0.54621 0.37621 0.0
C659 C 1.0459 0.50292 0.35849 0.0
loop_
_geom_bond_atom_site_label_1
_geom_bond_atom_site_label_2
_geom_bond_distance
_geom_bond_site_symmetry_2
_ccdc_geom_bond_type
Eu0 C9 2.828 . S
Eu0 O11 2.392 1_655 S
Eu0 O13 2.418 . S
Eu0 O18 2.373 . S
Eu0 O21 2.488 . S
Eu0 O22 2.471 . S
Eu0 O23 2.349 . S
Eu1 O10 2.373 . S
Eu1 O14 2.488 . S
Eu1 O15 2.471 . S
Eu1 O16 2.349 . S
Eu1 O19 2.392 1_455 S
Eu1 O20 2.418 . S
Eu1 C30 2.828 . S
C2 O20 1.244 . S
C2 O23 1.265 1_455 S
C3 C4 1.379 . S
C3 C7 1.373 . S
C3 C9 1.505 . S
C4 C3 1.379 . S
C4 C6 1.369 . S
C4 H32 0.930 . S
C5 C7 1.383 . S
C5 C8 1.382 . S
C5 H33 0.930 . S
C6 C4 1.369 . S
C6 C8 1.392 . S
C6 H34 0.930 . S
C7 C3 1.373 . S
C7 C5 1.383 . S
C7 H35 0.931 . S
C8 C5 1.382 . S
C8 C6 1.392 . S
C9 Eu0 2.828 . S
C9 C3 1.505 . S
C9 O21 1.249 . S
C9 O22 1.244 . S
O10 Eu1 2.373 . S
O10 C12 1.258 . S
O11 Eu0 2.392 1_455 S
O11 C12 1.242 . S
C12 O10 1.258 . S
C12 O11 1.242 . S
O13 Eu0 2.418 . S
O13 C17 1.247 . S
O14 Eu1 2.488 . S
O14 C30 1.249 . S
O15 Eu1 2.471 . S
O15 C30 1.244 . S
O16 Eu1 2.349 . S
O16 C17 1.263 1_455 S
C17 O13 1.247 . S
C17 O16 1.263 1_655 S
O18 Eu0 2.373 . S
O18 C31 1.258 . S
O19 Eu1 2.392 1_655 S
O19 C31 1.242 . S
O20 Eu1 2.418 . S
O20 C2 1.244 . S
O21 Eu0 2.488 . S
O21 C9 1.249 . S
O22 Eu0 2.471 . S
O22 C9 1.244 . S
O23 Eu0 2.349 . S
O23 C2 1.265 1_655 S
C24 C25 1.379 . S
C24 C28 1.373 . S
C24 C30 1.505 . S
C25 C24 1.379 . S
C25 C27 1.369 . S
C25 H36 0.930 . S
C26 C28 1.383 . S
C26 C29 1.382 . S
C26 H37 0.930 . S
C27 C25 1.369 . S
C27 C29 1.392 . S
C27 H38 0.930 . S
C28 C24 1.373 . S
C28 C26 1.383 . S
C28 H39 0.931 . S
C29 C26 1.382 . S
C29 C27 1.392 . S
C30 Eu1 2.828 . S
C30 O14 1.249 . S
C30 O15 1.244 . S
C30 C24 1.505 . S
C31 O18 1.258 . S
C31 O19 1.242 . S
H32 C4 0.930 . S
H33 C5 0.930 . S
H34 C6 0.930 . S
H35 C7 0.931 . S
H36 C25 0.930 . S
H37 C26 0.930 . S
H38 C27 0.930 . S
H39 C28 0.931 . S
Eu40 C49 2.828 . S
Eu40 O51 2.392 1_565 S
Eu40 O53 2.418 . S
Eu40 O58 2.373 . S
Eu40 O61 2.488 . S
Eu40 O62 2.471 . S
Eu40 O63 2.349 . S
Eu41 O50 2.373 . S
Eu41 O54 2.488 . S
Eu41 O55 2.471 . S
Eu41 O56 2.349 . S
Eu41 O59 2.392 1_545 S
Eu41 O60 2.418 . S
Eu41 C70 2.828 . S
C42 O60 1.244 . S
C42 O63 1.265 1_545 S
C43 C44 1.379 . S
C43 C47 1.373 . S
C43 C49 1.505 . S
C44 C43 1.379 . S
C44 C46 1.369 . S
C44 H72 0.930 . S
C45 C47 1.383 . S
C45 C48 1.382 . S
C45 H73 0.930 . S
C46 C44 1.369 . S
C46 C48 1.392 . S
C46 H74 0.930 . S
C47 C43 1.373 . S
C47 C45 1.383 . S
C47 H75 0.931 . S
C48 C45 1.382 . S
C48 C46 1.392 . S
C49 Eu40 2.828 . S
C49 C43 1.505 . S
C49 O61 1.249 . S
C49 O62 1.244 . S
O50 Eu41 2.373 . S
O50 C52 1.258 . S
O51 Eu40 2.392 1_545 S
O51 C52 1.242 . S
C52 O50 1.258 . S
C52 O51 1.242 . S
O53 Eu40 2.418 . S
O53 C57 1.244 1_565 S
O54 Eu41 2.488 . S
O54 C70 1.249 . S
O55 Eu41 2.471 . S
O55 C70 1.244 . S
O56 Eu41 2.349 . S
O56 C57 1.265 . S
C57 O53 1.244 1_545 S
C57 O56 1.265 . S
O58 Eu40 2.373 . S
O58 C71 1.258 . S
O59 Eu41 2.392 1_565 S
O59 C71 1.242 . S
O60 Eu41 2.418 . S
O60 C42 1.244 . S
O61 Eu40 2.488 . S
O61 C49 1.249 . S
O62 Eu40 2.471 . S
O62 C49 1.244 . S
O63 Eu40 2.349 . S
O63 C42 1.265 1_565 S
C64 C65 1.379 . S
C64 C68 1.373 . S
C64 C70 1.505 . S
C65 C64 1.379 . S
C65 C67 1.369 . S
C65 H76 0.930 . S
C66 C68 1.383 . S
C66 C69 1.382 . S
C66 H77 0.930 . S
C67 C65 1.369 . S
C67 C69 1.392 . S
C67 H78 0.930 . S
C68 C64 1.373 . S
C68 C66 1.383 . S
C68 H79 0.931 . S
C69 C66 1.382 . S
C69 C67 1.392 . S
C70 Eu41 2.828 . S
C70 O54 1.249 . S
C70 O55 1.244 . S
C70 C64 1.505 . S
C71 O58 1.258 . S
C71 O59 1.242 . S
H72 C44 0.930 . S
H73 C45 0.930 . S
H74 C46 0.930 . S
H75 C47 0.931 . S
H76 C65 0.930 . S
H77 C66 0.930 . S
H78 C67 0.930 . S
H79 C68 0.931 . S
Eu80 C89 2.828 . S
Eu80 O91 2.392 . S
Eu80 O93 2.418 . S
Eu80 O98 2.373 . S
Eu80 O101 2.488 . S
Eu80 O102 2.471 . S
Eu80 O103 2.349 . S
Eu81 O90 2.373 . S
Eu81 O94 2.488 . S
Eu81 O95 2.471 . S
Eu81 O96 2.349 . S
Eu81 O99 2.392 . S
Eu81 O100 2.418 . S
Eu81 C110 2.828 . S
C82 O100 1.244 . S
C82 O103 1.265 . S
C83 C84 1.379 . S
C83 C87 1.373 . S
C83 C89 1.505 . S
C84 C83 1.379 . S
C84 C86 1.369 . S
C84 H112 0.930 . S
C85 C87 1.383 . S
C85 C88 1.382 . S
C85 H113 0.930 . S
C86 C84 1.369 . S
C86 C88 1.392 . S
C86 H114 0.930 . S
C87 C83 1.373 . S
C87 C85 1.383 . S
C87 H115 0.931 . S
C88 C85 1.382 . S
C88 C86 1.392 . S
C89 Eu80 2.828 . S
C89 C83 1.505 . S
C89 O101 1.249 . S
C89 O102 1.244 . S
O90 Eu81 2.373 . S
O90 C92 1.258 . S
O91 Eu80 2.392 . S
O91 C92 1.242 . S
C92 O90 1.258 . S
C92 O91 1.242 . S
O93 Eu80 2.418 . S
O93 C97 1.244 . S
O94 Eu81 2.488 . S
O94 C110 1.249 . S
O95 Eu81 2.471 . S
O95 C110 1.244 . S
O96 Eu81 2.349 . S
O96 C97 1.265 . S
C97 O93 1.244 . S
C97 O96 1.265 . S
O98 Eu80 2.373 . S
O98 C111 1.258 . S
O99 Eu81 2.392 . S
O99 C111 1.242 . S
O100 Eu81 2.418 . S
O100 C82 1.244 . S
O101 Eu80 2.488 . S
O101 C89 1.249 . S
O102 Eu80 2.471 . S
O102 C89 1.244 . S
O103 Eu80 2.349 . S
O103 C82 1.265 . S
C104 C105 1.379 . S
C104 C108 1.373 . S
C104 C110 1.505 . S
C105 C104 1.379 . S
C105 C107 1.369 . S
C105 H116 0.930 . S
C106 C108 1.383 . S
C106 C109 1.382 . S
C106 H117 0.930 . S
C107 C105 1.369 . S
C107 C109 1.392 . S
C107 H118 0.930 . S
C108 C104 1.373 . S
C108 C106 1.383 . S
C108 H119 0.931 . S
C109 C106 1.382 . S
C109 C107 1.392 . S
C110 Eu81 2.828 . S
C110 O94 1.249 . S
C110 O95 1.244 . S
C110 C104 1.505 . S
C111 O98 1.258 . S
C111 O99 1.242 . S
H112 C84 0.930 . S
H113 C85 0.930 . S
H114 C86 0.930 . S
H115 C87 0.931 . S
H116 C105 0.930 . S
H117 C106 0.930 . S
H118 C107 0.930 . S
H119 C108 0.931 . S
H120 C123 0.931 . S
H121 C126 0.928 . S
H122 C128 0.930 . S
C123 H120 0.931 . S
C123 C124 1.413 . S
C123 C125 1.360 1_565 S
C124 C123 1.413 . S
C124 C128 1.429 1_565 S
C125 C123 1.360 1_545 S
C125 C126 1.372 . S
C126 H121 0.928 . S
C126 C125 1.372 . S
C126 C127 1.404 . S
C127 C126 1.404 . S
C127 C128 1.391 . S
C128 H122 0.930 . S
C128 C124 1.429 1_545 S
C128 C127 1.391 . S
H129 C132 0.931 . S
H130 C135 0.928 . S
H131 C137 0.930 . S
C132 H129 0.931 . S
C132 C133 1.413 . S
C132 C134 1.360 . S
C133 C132 1.413 . S
C133 C137 1.429 . S
C134 C132 1.360 . S
C134 C135 1.372 . S
C135 H130 0.928 . S
C135 C134 1.372 . S
C135 C136 1.404 . S
C136 C135 1.404 . S
C136 C137 1.391 . S
C137 H131 0.930 . S
C137 C133 1.429 . S
C137 C136 1.391 . S
H138 C141 0.931 1_655 S
H139 C144 0.928 . S
H140 C146 0.930 . S
C141 H138 0.931 1_455 S
C141 C142 1.413 . S
C141 C143 1.360 . S
C142 C141 1.413 . S
C142 C146 1.429 . S
C143 C141 1.360 . S
C143 C144 1.372 . S
C144 H139 0.928 . S
C144 C143 1.372 . S
C144 C145 1.404 . S
C145 C144 1.404 . S
C145 C146 1.391 . S
C146 H140 0.930 . S
C146 C142 1.429 . S
C146 C145 1.391 . S
H147 C150 0.931 . S
H148 C153 0.928 . S
H149 C155 0.930 . S
C150 H147 0.931 . S
C150 C151 1.413 . S
C150 C152 1.360 1_655 S
C151 C150 1.413 . S
C151 C155 1.429 1_655 S
C152 C150 1.360 1_455 S
C152 C153 1.372 . S
C153 H148 0.928 . S
C153 C152 1.372 . S
C153 C154 1.404 . S
C154 C153 1.404 . S
C154 C155 1.391 . S
C155 H149 0.930 . S
C155 C151 1.429 1_455 S
C155 C154 1.391 . S
H156 C159 0.931 . S
H157 C162 0.928 . S
H158 C164 0.930 . S
C159 H156 0.931 . S
C159 C160 1.413 . S
C159 C161 1.360 . S
C160 C159 1.413 . S
C160 C164 1.429 . S
C161 C159 1.360 . S
C161 C162 1.372 1_545 S
C162 H157 0.928 . S
C162 C161 1.372 1_565 S
C162 C163 1.404 . S
C163 C162 1.404 . S
C163 C164 1.391 1_565 S
C164 H158 0.930 . S
C164 C160 1.429 . S
C164 C163 1.391 1_545 S
H165 C168 0.931 . S
H166 C171 0.928 . S
H167 C173 0.930 . S
C168 H165 0.931 . S
C168 C169 1.413 . S
C168 C170 1.360 . S
C169 C168 1.413 . S
C169 C173 1.429 . S
C170 C168 1.360 . S
C170 C171 1.372 . S
C171 H166 0.928 . S
C171 C170 1.372 . S
C171 C172 1.404 . S
C172 C171 1.404 . S
C172 C173 1.391 . S
C173 H167 0.930 . S
C173 C169 1.429 . S
C173 C172 1.391 . S
H174 C186 0.930 . S
H175 C188 0.930 . S
H176 C189 0.930 . S
H177 C193 0.959 . S
H178 C193 0.959 . S
H179 C193 0.961 . S
H180 C194 0.960 . S
H181 C194 0.961 . S
H182 C194 0.959 . S
H183 C197 0.929 . S
H184 C198 0.931 . S
H185 C200 0.930 . S
C186 H174 0.930 . S
C186 C187 1.399 . S
C186 C191 1.399 . S
C187 C186 1.399 . S
C187 C188 1.376 . S
C188 H175 0.930 . S
C188 C187 1.376 . S
C188 C189 1.388 . S
C189 H176 0.930 . S
C189 C188 1.388 . S
C189 C190 1.390 . S
C190 C189 1.390 . S
C190 C191 1.394 . S
C190 C196 1.465 . S
C191 C186 1.399 . S
C191 C190 1.394 . S
C191 C192 1.516 . S
C192 C191 1.516 . S
C192 C193 1.502 . S
C192 C194 1.561 . S
C192 C195 1.526 . S
C193 H177 0.959 . S
C193 H178 0.959 . S
C193 H179 0.961 . S
C193 C192 1.502 . S
C194 H180 0.960 . S
C194 H181 0.961 . S
C194 H182 0.959 . S
C194 C192 1.561 . S
C195 C192 1.526 . S
C195 C196 1.396 . S
C195 C200 1.390 . S
C196 C190 1.465 . S
C196 C195 1.396 . S
C196 C197 1.399 . S
C197 H183 0.929 . S
C197 C196 1.399 . S
C197 C198 1.385 . S
C198 H184 0.931 . S
C198 C197 1.385 . S
C198 C199 1.389 . S
C199 C198 1.389 . S
C199 C200 1.387 . S
C200 H185 0.930 . S
C200 C195 1.390 . S
C200 C199 1.387 . S
H201 C213 0.930 . S
H202 C215 0.930 . S
H203 C216 0.930 . S
H204 C220 0.959 . S
H205 C220 0.959 . S
H206 C220 0.961 . S
H207 C221 0.960 . S
H208 C221 0.961 . S
H209 C221 0.959 . S
H210 C224 0.929 . S
H211 C225 0.931 . S
H212 C227 0.930 . S
C213 H201 0.930 . S
C213 C214 1.399 . S
C213 C218 1.399 . S
C214 C213 1.399 . S
C214 C215 1.376 . S
C215 H202 0.930 . S
C215 C214 1.376 . S
C215 C216 1.388 . S
C216 H203 0.930 . S
C216 C215 1.388 . S
C216 C217 1.390 . S
C217 C216 1.390 . S
C217 C218 1.394 . S
C217 C223 1.465 . S
C218 C213 1.399 . S
C218 C217 1.394 . S
C218 C219 1.516 . S
C219 C218 1.516 . S
C219 C220 1.502 . S
C219 C221 1.561 . S
C219 C222 1.526 . S
C220 H204 0.959 . S
C220 H205 0.959 . S
C220 H206 0.961 . S
C220 C219 1.502 . S
C221 H207 0.960 . S
C221 H208 0.961 . S
C221 H209 0.959 . S
C221 C219 1.561 . S
C222 C219 1.526 . S
C222 C223 1.396 . S
C222 C227 1.390 . S
C223 C217 1.465 . S
C223 C222 1.396 . S
C223 C224 1.399 . S
C224 H210 0.929 . S
C224 C223 1.399 . S
C224 C225 1.385 . S
C225 H211 0.931 . S
C225 C224 1.385 . S
C225 C226 1.389 . S
C226 C225 1.389 . S
C226 C227 1.387 . S
C227 H212 0.930 . S
C227 C222 1.390 . S
C227 C226 1.387 . S
H228 C240 0.930 . S
H229 C242 0.930 . S
H230 C243 0.930 . S
H231 C247 0.959 . S
H232 C247 0.959 . S
H233 C247 0.961 . S
H234 C248 0.960 . S
H235 C248 0.961 . S
H236 C248 0.959 . S
H237 C251 0.929 . S
H238 C252 0.931 . S
H239 C254 0.930 . S
C240 H228 0.930 . S
C240 C241 1.399 . S
C240 C245 1.399 . S
C241 C240 1.399 . S
C241 C242 1.376 . S
C242 H229 0.930 . S
C242 C241 1.376 . S
C242 C243 1.388 . S
C243 H230 0.930 . S
C243 C242 1.388 . S
C243 C244 1.390 . S
C244 C243 1.390 . S
C244 C245 1.394 . S
C244 C250 1.465 . S
C245 C240 1.399 . S
C245 C244 1.394 . S
C245 C246 1.516 . S
C246 C245 1.516 . S
C246 C247 1.502 . S
C246 C248 1.561 . S
C246 C249 1.526 . S
C247 H231 0.959 . S
C247 H232 0.959 . S
C247 H233 0.961 . S
C247 C246 1.502 . S
C248 H234 0.960 . S
C248 H235 0.961 . S
C248 H236 0.959 . S
C248 C246 1.561 . S
C249 C246 1.526 . S
C249 C250 1.396 . S
C249 C254 1.390 . S
C250 C244 1.465 . S
C250 C249 1.396 . S
C250 C251 1.399 . S
C251 H237 0.929 . S
C251 C250 1.399 . S
C251 C252 1.385 . S
C252 H238 0.931 . S
C252 C251 1.385 . S
C252 C253 1.389 . S
C253 C252 1.389 . S
C253 C254 1.387 . S
C254 H239 0.930 . S
C254 C249 1.390 . S
C254 C253 1.387 . S
H255 C267 0.930 . S
H256 C269 0.930 . S
H257 C270 0.930 . S
H258 C274 0.959 . S
H259 C274 0.959 . S
H260 C274 0.961 . S
H261 C275 0.960 . S
H262 C275 0.961 . S
H263 C275 0.959 . S
H264 C278 0.929 . S
H265 C279 0.931 . S
H266 C281 0.930 . S
C267 H255 0.930 . S
C267 C268 1.399 . S
C267 C272 1.399 . S
C268 C267 1.399 . S
C268 C269 1.376 . S
C269 H256 0.930 . S
C269 C268 1.376 . S
C269 C270 1.388 . S
C270 H257 0.930 . S
C270 C269 1.388 . S
C270 C271 1.390 . S
C271 C270 1.390 . S
C271 C272 1.394 . S
C271 C277 1.465 . S
C272 C267 1.399 . S
C272 C271 1.394 . S
C272 C273 1.516 . S
C273 C272 1.516 . S
C273 C274 1.502 . S
C273 C275 1.561 . S
C273 C276 1.526 . S
C274 H258 0.959 . S
C274 H259 0.959 . S
C274 H260 0.961 . S
C274 C273 1.502 . S
C275 H261 0.960 . S
C275 H262 0.961 . S
C275 H263 0.959 . S
C275 C273 1.561 . S
C276 C273 1.526 . S
C276 C277 1.396 . S
C276 C281 1.390 . S
C277 C271 1.465 . S
C277 C276 1.396 . S
C277 C278 1.399 . S
C278 H264 0.929 . S
C278 C277 1.399 . S
C278 C279 1.385 . S
C279 H265 0.931 . S
C279 C278 1.385 . S
C279 C280 1.389 . S
C280 C279 1.389 . S
C280 C281 1.387 . S
C281 H266 0.930 . S
C281 C276 1.390 . S
C281 C280 1.387 . S
H282 C294 0.930 . S
H283 C296 0.930 . S
H284 C297 0.930 . S
H285 C301 0.959 . S
H286 C301 0.959 . S
H287 C301 0.961 . S
H288 C302 0.960 . S
H289 C302 0.961 . S
H290 C302 0.959 . S
H291 C305 0.929 . S
H292 C306 0.931 . S
H293 C308 0.930 . S
C294 H282 0.930 . S
C294 C295 1.399 . S
C294 C299 1.399 . S
C295 C294 1.399 . S
C295 C296 1.376 . S
C296 H283 0.930 . S
C296 C295 1.376 . S
C296 C297 1.388 . S
C297 H284 0.930 . S
C297 C296 1.388 . S
C297 C298 1.390 . S
C298 C297 1.390 . S
C298 C299 1.394 . S
C298 C304 1.465 . S
C299 C294 1.399 . S
C299 C298 1.394 . S
C299 C300 1.516 . S
C300 C299 1.516 . S
C300 C301 1.502 . S
C300 C302 1.561 . S
C300 C303 1.526 . S
C301 H285 0.959 . S
C301 H286 0.959 . S
C301 H287 0.961 . S
C301 C300 1.502 . S
C302 H288 0.960 . S
C302 H289 0.961 . S
C302 H290 0.959 . S
C302 C300 1.561 . S
C303 C300 1.526 . S
C303 C304 1.396 . S
C303 C308 1.390 . S
C304 C298 1.465 . S
C304 C303 1.396 . S
C304 C305 1.399 . S
C305 H291 0.929 . S
C305 C304 1.399 . S
C305 C306 1.385 . S
C306 H292 0.931 . S
C306 C305 1.385 . S
C306 C307 1.389 . S
C307 C306 1.389 . S
C307 C308 1.387 . S
C308 H293 0.930 . S
C308 C303 1.390 . S
C308 C307 1.387 . S
H309 C321 0.930 . S
H310 C323 0.930 . S
H311 C324 0.930 . S
H312 C328 0.959 . S
H313 C328 0.959 . S
H314 C328 0.961 . S
H315 C329 0.960 . S
H316 C329 0.961 . S
H317 C329 0.959 . S
H318 C332 0.929 . S
H319 C333 0.931 . S
H320 C335 0.930 . S
C321 H309 0.930 . S
C321 C322 1.399 . S
C321 C326 1.399 . S
C322 C321 1.399 . S
C322 C323 1.376 . S
C323 H310 0.930 . S
C323 C322 1.376 . S
C323 C324 1.388 . S
C324 H311 0.930 . S
C324 C323 1.388 . S
C324 C325 1.390 . S
C325 C324 1.390 . S
C325 C326 1.394 . S
C325 C331 1.465 . S
C326 C321 1.399 . S
C326 C325 1.394 . S
C326 C327 1.516 . S
C327 C326 1.516 . S
C327 C328 1.502 . S
C327 C329 1.561 . S
C327 C330 1.526 . S
C328 H312 0.959 . S
C328 H313 0.959 . S
C328 H314 0.961 . S
C328 C327 1.502 . S
C329 H315 0.960 . S
C329 H316 0.961 . S
C329 H317 0.959 . S
C329 C327 1.561 . S
C330 C327 1.526 . S
C330 C331 1.396 . S
C330 C335 1.390 . S
C331 C325 1.465 . S
C331 C330 1.396 . S
C331 C332 1.399 . S
C332 H318 0.929 . S
C332 C331 1.399 . S
C332 C333 1.385 . S
C333 H319 0.931 . S
C333 C332 1.385 . S
C333 C334 1.389 . S
C334 C333 1.389 . S
C334 C335 1.387 . S
C335 H320 0.930 . S
C335 C330 1.390 . S
C335 C334 1.387 . S
H336 C348 0.930 . S
H337 C350 0.930 . S
H338 C351 0.930 . S
H339 C355 0.959 . S
H340 C355 0.959 . S
H341 C355 0.961 . S
H342 C356 0.960 . S
H343 C356 0.961 . S
H344 C356 0.959 . S
H345 C359 0.929 . S
H346 C360 0.931 . S
H347 C362 0.930 . S
C348 H336 0.930 . S
C348 C349 1.399 . S
C348 C353 1.399 . S
C349 C348 1.399 . S
C349 C350 1.376 . S
C350 H337 0.930 . S
C350 C349 1.376 . S
C350 C351 1.388 . S
C351 H338 0.930 . S
C351 C350 1.388 . S
C351 C352 1.390 . S
C352 C351 1.390 . S
C352 C353 1.394 . S
C352 C358 1.465 . S
C353 C348 1.399 . S
C353 C352 1.394 . S
C353 C354 1.516 . S
C354 C353 1.516 . S
C354 C355 1.502 . S
C354 C356 1.561 . S
C354 C357 1.526 . S
C355 H339 0.959 . S
C355 H340 0.959 . S
C355 H341 0.961 . S
C355 C354 1.502 . S
C356 H342 0.960 . S
C356 H343 0.961 . S
C356 H344 0.959 . S
C356 C354 1.561 . S
C357 C354 1.526 . S
C357 C358 1.396 . S
C357 C362 1.390 . S
C358 C352 1.465 . S
C358 C357 1.396 . S
C358 C359 1.399 . S
C359 H345 0.929 . S
C359 C358 1.399 . S
C359 C360 1.385 . S
C360 H346 0.931 . S
C360 C359 1.385 . S
C360 C361 1.389 . S
C361 C360 1.389 . S
C361 C362 1.387 . S
C362 H347 0.930 . S
C362 C357 1.390 . S
C362 C361 1.387 . S
H363 C375 0.930 . S
H364 C377 0.930 . S
H365 C378 0.930 . S
H366 C382 0.959 . S
H367 C382 0.959 . S
H368 C382 0.961 . S
H369 C383 0.960 . S
H370 C383 0.961 . S
H371 C383 0.959 . S
H372 C386 0.929 . S
H373 C387 0.931 1_455 S
H374 C389 0.930 . S
C375 H363 0.930 . S
C375 C376 1.399 . S
C375 C380 1.399 . S
C376 C375 1.399 . S
C376 C377 1.376 . S
C377 H364 0.930 . S
C377 C376 1.376 . S
C377 C378 1.388 . S
C378 H365 0.930 . S
C378 C377 1.388 . S
C378 C379 1.390 . S
C379 C378 1.390 . S
C379 C380 1.394 . S
C379 C385 1.465 . S
C380 C375 1.399 . S
C380 C379 1.394 . S
C380 C381 1.516 . S
C381 C380 1.516 . S
C381 C382 1.502 . S
C381 C383 1.561 . S
C381 C384 1.526 . S
C382 H366 0.959 . S
C382 H367 0.959 . S
C382 H368 0.961 . S
C382 C381 1.502 . S
C383 H369 0.960 . S
C383 H370 0.961 . S
C383 H371 0.959 . S
C383 C381 1.561 . S
C384 C381 1.526 . S
C384 C385 1.396 . S
C384 C389 1.390 . S
C385 C379 1.465 . S
C385 C384 1.396 . S
C385 C386 1.399 . S
C386 H372 0.929 . S
C386 C385 1.399 . S
C386 C387 1.385 . S
C387 H373 0.931 1_655 S
C387 C386 1.385 . S
C387 C388 1.389 . S
C388 C387 1.389 . S
C388 C389 1.387 . S
C389 H374 0.930 . S
C389 C384 1.390 . S
C389 C388 1.387 . S
H390 C402 0.930 . S
H391 C404 0.930 . S
H392 C405 0.930 . S
H393 C409 0.959 . S
H394 C409 0.959 . S
H395 C409 0.961 . S
H396 C410 0.960 . S
H397 C410 0.961 . S
H398 C410 0.959 . S
H399 C413 0.929 . S
H400 C414 0.931 1_545 S
H401 C416 0.930 . S
C402 H390 0.930 . S
C402 C403 1.399 . S
C402 C407 1.399 . S
C403 C402 1.399 . S
C403 C404 1.376 . S
C404 H391 0.930 . S
C404 C403 1.376 . S
C404 C405 1.388 . S
C405 H392 0.930 . S
C405 C404 1.388 . S
C405 C406 1.390 . S
C406 C405 1.390 . S
C406 C407 1.394 . S
C406 C412 1.465 . S
C407 C402 1.399 . S
C407 C406 1.394 . S
C407 C408 1.516 . S
C408 C407 1.516 . S
C408 C409 1.502 . S
C408 C410 1.561 . S
C408 C411 1.526 . S
C409 H393 0.959 . S
C409 H394 0.959 . S
C409 H395 0.961 . S
C409 C408 1.502 . S
C410 H396 0.960 . S
C410 H397 0.961 . S
C410 H398 0.959 . S
C410 C408 1.561 . S
C411 C408 1.526 . S
C411 C412 1.396 . S
C411 C416 1.390 . S
C412 C406 1.465 . S
C412 C411 1.396 . S
C412 C413 1.399 . S
C413 H399 0.929 . S
C413 C412 1.399 . S
C413 C414 1.385 . S
C414 H400 0.931 1_565 S
C414 C413 1.385 . S
C414 C415 1.389 . S
C415 C414 1.389 . S
C415 C416 1.387 . S
C416 H401 0.930 . S
C416 C411 1.390 . S
C416 C415 1.387 . S
H417 C429 0.930 . S
H418 C431 0.930 . S
H419 C432 0.930 . S
H420 C436 0.959 . S
H421 C436 0.959 . S
H422 C436 0.961 . S
H423 C437 0.960 . S
H424 C437 0.961 . S
H425 C437 0.959 . S
H426 C440 0.929 . S
H427 C441 0.931 . S
H428 C443 0.930 . S
C429 H417 0.930 . S
C429 C430 1.399 . S
C429 C434 1.399 . S
C430 C429 1.399 . S
C430 C431 1.376 . S
C431 H418 0.930 . S
C431 C430 1.376 . S
C431 C432 1.388 . S
C432 H419 0.930 . S
C432 C431 1.388 . S
C432 C433 1.390 . S
C433 C432 1.390 . S
C433 C434 1.394 . S
C433 C439 1.465 . S
C434 C429 1.399 . S
C434 C433 1.394 . S
C434 C435 1.516 . S
C435 C434 1.516 . S
C435 C436 1.502 . S
C435 C437 1.561 . S
C435 C438 1.526 . S
C436 H420 0.959 . S
C436 H421 0.959 . S
C436 H422 0.961 . S
C436 C435 1.502 . S
C437 H423 0.960 . S
C437 H424 0.961 . S
C437 H425 0.959 . S
C437 C435 1.561 . S
C438 C435 1.526 . S
C438 C439 1.396 . S
C438 C443 1.390 . S
C439 C433 1.465 . S
C439 C438 1.396 . S
C439 C440 1.399 . S
C440 H426 0.929 . S
C440 C439 1.399 . S
C440 C441 1.385 . S
C441 H427 0.931 . S
C441 C440 1.385 . S
C441 C442 1.389 . S
C442 C441 1.389 . S
C442 C443 1.387 . S
C443 H428 0.930 . S
C443 C438 1.390 . S
C443 C442 1.387 . S
H444 C456 0.930 . S
H445 C458 0.930 . S
H446 C459 0.930 . S
H447 C463 0.959 . S
H448 C463 0.959 . S
H449 C463 0.961 . S
H450 C464 0.960 . S
H451 C464 0.961 . S
H452 C464 0.959 . S
H453 C467 0.929 . S
H454 C468 0.931 . S
H455 C470 0.930 . S
C456 H444 0.930 . S
C456 C457 1.399 . S
C456 C461 1.399 . S
C457 C456 1.399 . S
C457 C458 1.376 . S
C458 H445 0.930 . S
C458 C457 1.376 . S
C458 C459 1.388 . S
C459 H446 0.930 . S
C459 C458 1.388 . S
C459 C460 1.390 . S
C460 C459 1.390 . S
C460 C461 1.394 . S
C460 C466 1.465 . S
C461 C456 1.399 . S
C461 C460 1.394 . S
C461 C462 1.516 . S
C462 C461 1.516 . S
C462 C463 1.502 . S
C462 C464 1.561 . S
C462 C465 1.526 . S
C463 H447 0.959 . S
C463 H448 0.959 . S
C463 H449 0.961 . S
C463 C462 1.502 . S
C464 H450 0.960 . S
C464 H451 0.961 . S
C464 H452 0.959 . S
C464 C462 1.561 . S
C465 C462 1.526 . S
C465 C466 1.396 . S
C465 C470 1.390 . S
C466 C460 1.465 . S
C466 C465 1.396 . S
C466 C467 1.399 . S
C467 H453 0.929 . S
C467 C466 1.399 . S
C467 C468 1.385 . S
C468 H454 0.931 . S
C468 C467 1.385 . S
C468 C469 1.389 . S
C469 C468 1.389 . S
C469 C470 1.387 . S
C470 H455 0.930 . S
C470 C465 1.390 . S
C470 C469 1.387 . S
H471 C483 0.930 . S
H472 C485 0.930 . S
H473 C486 0.930 . S
H474 C490 0.959 . S
H475 C490 0.959 . S
H476 C490 0.961 . S
H477 C491 0.960 . S
H478 C491 0.961 . S
H479 C491 0.959 . S
H480 C494 0.929 . S
H481 C495 0.931 . S
H482 C497 0.930 . S
C483 H471 0.930 . S
C483 C484 1.399 . S
C483 C488 1.399 . S
C484 C483 1.399 . S
C484 C485 1.376 . S
C485 H472 0.930 . S
C485 C484 1.376 . S
C485 C486 1.388 . S
C486 H473 0.930 . S
C486 C485 1.388 . S
C486 C487 1.390 . S
C487 C486 1.390 . S
C487 C488 1.394 . S
C487 C493 1.465 . S
C488 C483 1.399 . S
C488 C487 1.394 . S
C488 C489 1.516 . S
C489 C488 1.516 . S
C489 C490 1.502 . S
C489 C491 1.561 . S
C489 C492 1.526 . S
C490 H474 0.959 . S
C490 H475 0.959 . S
C490 H476 0.961 . S
C490 C489 1.502 . S
C491 H477 0.960 . S
C491 H478 0.961 . S
C491 H479 0.959 . S
C491 C489 1.561 . S
C492 C489 1.526 . S
C492 C493 1.396 . S
C492 C497 1.390 . S
C493 C487 1.465 . S
C493 C492 1.396 . S
C493 C494 1.399 . S
C494 H480 0.929 . S
C494 C493 1.399 . S
C494 C495 1.385 . S
C495 H481 0.931 . S
C495 C494 1.385 . S
C495 C496 1.389 . S
C496 C495 1.389 . S
C496 C497 1.387 . S
C497 H482 0.930 . S
C497 C492 1.390 . S
C497 C496 1.387 . S
H498 C510 0.930 . S
H499 C512 0.930 . S
H500 C513 0.930 . S
H501 C517 0.959 . S
H502 C517 0.959 1_455 S
H503 C517 0.961 . S
H504 C518 0.960 . S
H505 C518 0.961 . S
H506 C518 0.959 . S
H507 C521 0.929 . S
H508 C522 0.931 . S
H509 C524 0.930 . S
C510 H498 0.930 . S
C510 C511 1.399 . S
C510 C515 1.399 . S
C511 C510 1.399 . S
C511 C512 1.376 . S
C512 H499 0.930 . S
C512 C511 1.376 . S
C512 C513 1.388 . S
C513 H500 0.930 . S
C513 C512 1.388 . S
C513 C514 1.390 . S
C514 C513 1.390 . S
C514 C515 1.394 . S
C514 C520 1.465 . S
C515 C510 1.399 . S
C515 C514 1.394 . S
C515 C516 1.516 . S
C516 C515 1.516 . S
C516 C517 1.502 1_455 S
C516 C518 1.561 . S
C516 C519 1.526 . S
C517 H501 0.959 . S
C517 H502 0.959 1_655 S
C517 H503 0.961 . S
C517 C516 1.502 1_655 S
C518 H504 0.960 . S
C518 H505 0.961 . S
C518 H506 0.959 . S
C518 C516 1.561 . S
C519 C516 1.526 . S
C519 C520 1.396 . S
C519 C524 1.390 1_554 S
C520 C514 1.465 . S
C520 C519 1.396 . S
C520 C521 1.399 1_554 S
C521 H507 0.929 . S
C521 C520 1.399 1_556 S
C521 C522 1.385 . S
C522 H508 0.931 . S
C522 C521 1.385 . S
C522 C523 1.389 . S
C523 C522 1.389 . S
C523 C524 1.387 . S
C524 H509 0.930 . S
C524 C519 1.390 1_556 S
C524 C523 1.387 . S
H525 C537 0.930 . S
H526 C539 0.930 . S
H527 C540 0.930 . S
H528 C544 0.959 . S
H529 C544 0.959 . S
H530 C544 0.961 . S
H531 C545 0.960 . S
H532 C545 0.961 . S
H533 C545 0.959 . S
H534 C548 0.929 . S
H535 C549 0.931 . S
H536 C551 0.930 . S
C537 H525 0.930 . S
C537 C538 1.399 1_565 S
C537 C542 1.399 . S
C538 C537 1.399 1_545 S
C538 C539 1.376 . S
C539 H526 0.930 . S
C539 C538 1.376 . S
C539 C540 1.388 . S
C540 H527 0.930 . S
C540 C539 1.388 . S
C540 C541 1.390 . S
C541 C540 1.390 . S
C541 C542 1.394 1_545 S
C541 C547 1.465 . S
C542 C537 1.399 . S
C542 C541 1.394 1_565 S
C542 C543 1.516 . S
C543 C542 1.516 . S
C543 C544 1.502 . S
C543 C545 1.561 . S
C543 C546 1.526 1_565 S
C544 H528 0.959 . S
C544 H529 0.959 . S
C544 H530 0.961 . S
C544 C543 1.502 . S
C545 H531 0.960 . S
C545 H532 0.961 . S
C545 H533 0.959 . S
C545 C543 1.561 . S
C546 C543 1.526 1_545 S
C546 C547 1.396 . S
C546 C551 1.390 1_545 S
C547 C541 1.465 . S
C547 C546 1.396 . S
C547 C548 1.399 . S
C548 H534 0.929 . S
C548 C547 1.399 . S
C548 C549 1.385 . S
C549 H535 0.931 . S
C549 C548 1.385 . S
C549 C550 1.389 . S
C550 C549 1.389 . S
C550 C551 1.387 1_545 S
C551 H536 0.930 . S
C551 C546 1.390 1_565 S
C551 C550 1.387 1_565 S
H552 C564 0.930 . S
H553 C566 0.930 . S
H554 C567 0.930 . S
H555 C571 0.959 . S
H556 C571 0.959 . S
H557 C571 0.961 . S
H558 C572 0.960 . S
H559 C572 0.961 . S
H560 C572 0.959 . S
H561 C575 0.929 . S
H562 C576 0.931 . S
H563 C578 0.930 . S
C564 H552 0.930 . S
C564 C565 1.399 . S
C564 C569 1.399 . S
C565 C564 1.399 . S
C565 C566 1.376 . S
C566 H553 0.930 . S
C566 C565 1.376 . S
C566 C567 1.388 . S
C567 H554 0.930 . S
C567 C566 1.388 . S
C567 C568 1.390 . S
C568 C567 1.390 . S
C568 C569 1.394 . S
C568 C574 1.465 . S
C569 C564 1.399 . S
C569 C568 1.394 . S
C569 C570 1.516 . S
C570 C569 1.516 . S
C570 C571 1.502 . S
C570 C572 1.561 . S
C570 C573 1.526 . S
C571 H555 0.959 . S
C571 H556 0.959 . S
C571 H557 0.961 . S
C571 C570 1.502 . S
C572 H558 0.960 . S
C572 H559 0.961 . S
C572 H560 0.959 . S
C572 C570 1.561 . S
C573 C570 1.526 . S
C573 C574 1.396 . S
C573 C578 1.390 . S
C574 C568 1.465 . S
C574 C573 1.396 . S
C574 C575 1.399 . S
C575 H561 0.929 . S
C575 C574 1.399 . S
C575 C576 1.385 . S
C576 H562 0.931 . S
C576 C575 1.385 . S
C576 C577 1.389 . S
C577 C576 1.389 . S
C577 C578 1.387 . S
C578 H563 0.930 . S
C578 C573 1.390 . S
C578 C577 1.387 . S
H579 C591 0.930 . S
H580 C593 0.930 . S
H581 C594 0.930 . S
H582 C598 0.959 . S
H583 C598 0.959 . S
H584 C598 0.961 . S
H585 C599 0.960 . S
H586 C599 0.961 . S
H587 C599 0.959 . S
H588 C602 0.929 . S
H589 C603 0.931 . S
H590 C605 0.930 . S
C591 H579 0.930 . S
C591 C592 1.399 1_565 S
C591 C596 1.399 . S
C592 C591 1.399 1_545 S
C592 C593 1.376 . S
C593 H580 0.930 . S
C593 C592 1.376 . S
C593 C594 1.388 . S
C594 H581 0.930 . S
C594 C593 1.388 . S
C594 C595 1.390 . S
C595 C594 1.390 . S
C595 C596 1.394 1_545 S
C595 C601 1.465 . S
C596 C591 1.399 . S
C596 C595 1.394 1_565 S
C596 C597 1.516 . S
C597 C596 1.516 . S
C597 C598 1.502 . S
C597 C599 1.561 . S
C597 C600 1.526 . S
C598 H582 0.959 . S
C598 H583 0.959 . S
C598 H584 0.961 . S
C598 C597 1.502 . S
C599 H585 0.960 . S
C599 H586 0.961 . S
C599 H587 0.959 . S
C599 C597 1.561 . S
C600 C597 1.526 . S
C600 C601 1.396 1_565 S
C600 C605 1.390 . S
C601 C595 1.465 . S
C601 C600 1.396 1_545 S
C601 C602 1.399 . S
C602 H588 0.929 . S
C602 C601 1.399 . S
C602 C603 1.385 . S
C603 H589 0.931 . S
C603 C602 1.385 . S
C603 C604 1.389 . S
C604 C603 1.389 . S
C604 C605 1.387 1_545 S
C605 H590 0.930 . S
C605 C600 1.390 . S
C605 C604 1.387 1_565 S
H606 C618 0.930 . S
H607 C620 0.930 . S
H608 C621 0.930 . S
H609 C625 0.959 . S
H610 C625 0.959 . S
H611 C625 0.961 . S
H612 C626 0.960 . S
H613 C626 0.961 . S
H614 C626 0.959 . S
H615 C629 0.929 . S
H616 C630 0.931 . S
H617 C632 0.930 . S
C618 H606 0.930 . S
C618 C619 1.399 . S
C618 C623 1.399 . S
C619 C618 1.399 . S
C619 C620 1.376 . S
C620 H607 0.930 . S
C620 C619 1.376 . S
C620 C621 1.388 . S
C621 H608 0.930 . S
C621 C620 1.388 . S
C621 C622 1.390 . S
C622 C621 1.390 . S
C622 C623 1.394 . S
C622 C628 1.465 . S
C623 C618 1.399 . S
C623 C622 1.394 . S
C623 C624 1.516 . S
C624 C623 1.516 . S
C624 C625 1.502 . S
C624 C626 1.561 . S
C624 C627 1.493 1_556 S
C625 H609 0.959 . S
C625 H610 0.959 . S
C625 H611 0.961 . S
C625 C624 1.502 . S
C626 H612 0.960 . S
C626 H613 0.961 . S
C626 H614 0.959 . S
C626 C624 1.561 . S
C627 C624 1.493 1_554 S
C627 C628 1.384 1_554 S
C627 C632 1.430 . S
C628 C622 1.465 . S
C628 C627 1.384 1_556 S
C628 C629 1.399 1_556 S
C629 H615 0.929 . S
C629 C628 1.399 1_554 S
C629 C630 1.385 . S
C630 H616 0.931 . S
C630 C629 1.385 . S
C630 C631 1.389 . S
C631 C630 1.389 . S
C631 C632 1.387 . S
C632 H617 0.930 . S
C632 C627 1.430 . S
C632 C631 1.387 . S
H633 C645 0.930 . S
H634 C647 0.930 . S
H635 C648 0.930 . S
H636 C652 0.959 . S
H637 C652 0.959 . S
H638 C652 0.961 . S
H639 C653 0.960 . S
H640 C653 0.961 . S
H641 C653 0.959 1_455 S
H642 C656 0.929 . S
H643 C657 0.931 . S
H644 C659 0.930 . S
C645 H633 0.930 . S
C645 C646 1.399 1_655 S
C645 C650 1.399 . S
C646 C645 1.399 1_455 S
C646 C647 1.376 . S
C647 H634 0.930 . S
C647 C646 1.376 . S
C647 C648 1.388 . S
C648 H635 0.930 . S
C648 C647 1.388 . S
C648 C649 1.390 . S
C649 C648 1.390 . S
C649 C650 1.394 1_455 S
C649 C655 1.465 . S
C650 C645 1.399 . S
C650 C649 1.394 1_655 S
C650 C651 1.516 . S
C651 C650 1.516 . S
C651 C652 1.502 . S
C651 C653 1.561 . S
C651 C654 1.526 . S
C652 H636 0.959 . S
C652 H637 0.959 . S
C652 H638 0.961 . S
C652 C651 1.502 . S
C653 H639 0.960 . S
C653 H640 0.961 . S
C653 H641 0.959 1_655 S
C653 C651 1.561 . S
C654 C651 1.526 . S
C654 C655 1.396 1_655 S
C654 C659 1.390 . S
C655 C649 1.465 . S
C655 C654 1.396 1_455 S
C655 C656 1.399 . S
C656 H642 0.929 . S
C656 C655 1.399 . S
C656 C657 1.385 . S
C657 H643 0.931 . S
C657 C656 1.385 . S
C657 C658 1.389 . S
C658 C657 1.389 . S
C658 C659 1.387 1_455 S
C659 H644 0.930 . S
C659 C654 1.390 . S
C659 C658 1.387 1_655 S
C187 C12 2.858 . S
C199 C169 2.847 . S
C214 C52 2.869 . S
C226 C151 2.860 . S
C241 C111 2.873 . S
C253 C163 2.843 . S
C268 C31 2.977 . S
C280 C172 2.949 . S
C307 C154 2.938 . S
C295 C71 2.971 . S
C334 C160 2.904 . S
C322 C92 2.936 . S
C349 C48 0.703 . S
C361 C133 0.524 . S
C376 C109 0.676 . S
C388 C142 0.668 1_655 S
C403 C29 0.765 . S
C415 C124 0.563 . S
C442 C136 0.523 . S
C430 C69 0.693 . S
C469 C145 0.454 . S
C457 C88 0.509 . S
C484 C8 0.442 . S
C496 C127 0.416 . S
C523 C143 1.008 . S
C511 C17 0.970 1_455 S
C538 C57 1.035 . S
C550 C125 1.020 . S
C565 C97 0.995 . S
C577 C134 1.025 . S
C604 C161 1.801 . S
C592 C42 1.743 . S
C631 C170 1.796 . S
C619 C82 1.712 . S
C646 C2 1.721 . S
C658 C152 1.798 . S
