# Generated by pormake.
# Topology tsx, (6,3)-cn, num edge types: 1
# Building blocks:
#     Node 0, Type 0, BuildingBlock: MIDCAF_clean_sbu_0, # of connection points: 6
#     Node 1, Type 0, BuildingBlock: MIDCAF_clean_sbu_0, # of connection points: 6
#     Node 2, Type 1, BuildingBlock: PAMTOO_clean_linker_0, # of connection points: 3
#     Node 3, Type 1, BuildingBlock: PAMTOO_clean_linker_0, # of connection points: 3
#     Node 4, Type 1, BuildingBlock: PAMTOO_clean_linker_0, # of connection points: 3
#     Node 5, Type 1, BuildingBlock: PAMTOO_clean_linker_0, # of connection points: 3
#     Edge 6, Type (0, 1), BuildingBlock: EZIPEK_clean_linker_0, # of connection points: 2
#     Edge 7, Type (0, 1), BuildingBlock: EZIPEK_clean_linker_0, # of connection points: 2
#     Edge 8, Type (0, 1), BuildingBlock: EZIPEK_clean_linker_0, # of connection points: 2
#     Edge 9, Type (0, 1), BuildingBlock: EZIPEK_clean_linker_0, # of connection points: 2
#     Edge 10, Type (0, 1), BuildingBlock: EZIPEK_clean_linker_0, # of connection points: 2
#     Edge 11, Type (0, 1), BuildingBlock: EZIPEK_clean_linker_0, # of connection points: 2
#     Edge 12, Type (0, 1), BuildingBlock: EZIPEK_clean_linker_0, # of connection points: 2
#     Edge 13, Type (0, 1), BuildingBlock: EZIPEK_clean_linker_0, # of connection points: 2
#     Edge 14, Type (0, 1), BuildingBlock: EZIPEK_clean_linker_0, # of connection points: 2
#     Edge 15, Type (0, 1), BuildingBlock: EZIPEK_clean_linker_0, # of connection points: 2
#     Edge 16, Type (0, 1), BuildingBlock: EZIPEK_clean_linker_0, # of connection points: 2
#     Edge 17, Type (0, 1), BuildingBlock: EZIPEK_clean_linker_0, # of connection points: 2
# Relax obj value: 0.097
# Max RMSD: 0.164
# Mean RMSD: 0.126
data_MOF--net-tsx--node1-MIDCAF_clean_sbu_0--node2-PAMTOO_clean_linker_0--edge1-EZIPEK_clean_linker_0
_symmetry_space_group_name_H-M    P1
_symmetry_Int_Tables_number       1
_symmetry_cell_setting            triclinic
loop_
_symmetry_equiv_pos_as_xyz
'x, y, z'
_cell_length_a     14.194486
_cell_length_b     15.265034
_cell_length_c     27.025011
_cell_angle_alpha  81.633183
_cell_angle_beta   98.332368
_cell_angle_gamma 90.815905
loop_
_atom_site_label
_atom_site_type_symbol
_atom_site_fract_x
_atom_site_fract_y
_atom_site_fract_z
_atom_type_partial_charge
Zn0 Zn 0.89463 0.02964 0.93148 0.0
Zn1 Zn 0.21598 0.99876 0.0097 0.0
Zn2 Zn 0.05255 0.01452 -0.0261 0.0
C3 C 0.19516 0.17348 -0.01107 0.0
C4 C 0.19758 0.87848 0.94439 0.0
O5 O 0.96758 0.9097 0.01465 0.0
O6 O 0.84485 0.91203 0.95476 0.0
C7 C 0.92114 0.18546 0.96336 0.0
O8 O 0.10842 0.14671 -0.01293 0.0
O9 O 0.2608 0.11843 -0.01094 0.0
O10 O 0.25493 0.89769 -0.01864 0.0
O11 O 0.12225 0.92688 0.9288 0.0
O12 O 0.85255 0.13225 0.95904 0.0
O13 O 1.00656 0.15632 0.96542 0.0
O14 O 0.07374 0.99834 0.8987 0.0
O15 O 0.9385 0.06156 0.86383 0.0
C16 C 0.02303 0.04203 0.86 0.0
O17 O 0.04328 0.9424 0.04822 0.0
O18 O 0.18862 0.977 0.07989 0.0
C19 C 0.89071 0.87333 -0.00463 0.0
C20 C 0.10708 0.94825 0.08655 0.0
Zn21 Zn 0.71766 0.51558 0.51971 0.0
Zn22 Zn 0.40633 0.53073 0.41903 0.0
Zn23 Zn 0.55581 0.5267 0.47411 0.0
C24 C 0.55307 0.5328 0.36024 0.0
C25 C 0.41838 0.69317 0.45012 0.0
O26 O 0.53107 0.45983 0.54726 0.0
O27 O 0.67214 0.49248 0.58597 0.0
C28 C 0.71744 0.38716 0.46012 0.0
O29 O 0.59641 0.49842 0.40363 0.0
O30 O 0.46621 0.55312 0.35656 0.0
O31 O 0.35384 0.6385 0.43902 0.0
O32 O 0.50581 0.66678 0.46009 0.0
O33 O 0.77023 0.41341 0.49661 0.0
O34 O 0.64225 0.43366 0.44049 0.0
O35 O 0.60371 0.66265 0.4821 0.0
O36 O 0.75878 0.6379 0.49915 0.0
C37 C 0.68949 0.69168 0.48949 0.0
O38 O 0.45605 0.43642 0.51208 0.0
O39 O 0.35861 0.41179 0.44407 0.0
C40 C 0.58883 0.4637 0.58801 0.0
C41 C 0.38856 0.39153 0.49058 0.0
H42 H 0.22327 0.9132 0.31777 0.0
H43 H 0.98356 0.09008 0.27666 0.0
H44 H 0.14033 0.06616 0.42655 0.0
H45 H 0.88488 0.05936 0.37818 0.0
C46 C 0.89703 0.12921 0.3625 0.0
O47 O 0.99351 0.14598 0.36329 0.0
H48 H 0.86629 0.13951 0.32194 0.0
C49 C 0.17565 0.9603 0.32801 0.0
C50 C 0.18825 0.98108 0.3776 0.0
C51 C 0.10244 0.9994 0.29141 0.0
C52 C 0.04084 0.06004 0.30463 0.0
C53 C 0.05363 0.08471 0.35293 0.0
C54 C 0.12842 0.04599 0.38944 0.0
H55 H 0.21678 0.14153 0.65846 0.0
H56 H 0.99197 0.9506 0.64761 0.0
H57 H 0.10862 0.06277 0.51474 0.0
H58 H 0.88824 0.06166 0.50799 0.0
C59 C 0.88394 1.00082 0.53515 0.0
O60 O 0.97316 0.96162 0.54946 0.0
H61 H 0.86009 0.01986 0.56949 0.0
C62 C 0.17177 0.099 0.63634 0.0
C63 C 0.17231 0.10725 0.58414 0.0
C64 C 0.10673 0.04301 0.65927 0.0
C65 C 0.04488 0.99142 0.6303 0.0
C66 C 0.04357 1.00031 0.57794 0.0
C67 C 0.10925 0.05628 0.55508 0.0
H68 H 0.70771 0.39856 0.81482 0.0
H69 H 0.46151 0.56817 0.78544 0.0
H70 H 0.6222 0.52542 0.93417 0.0
H71 H 0.37014 0.53032 0.90374 0.0
C72 C 0.37811 0.59045 0.87664 0.0
O73 O 0.47354 0.60941 0.87531 0.0
H74 H 0.34317 0.57246 0.84009 0.0
C75 C 0.65945 0.44097 0.82833 0.0
C76 C 0.67476 0.45545 0.87916 0.0
C77 C 0.58276 0.48143 0.79459 0.0
C78 C 0.52017 0.536 0.81164 0.0
C79 C 0.5337 0.55226 0.86152 0.0
C80 C 0.6113 0.51232 0.89552 0.0
H81 H 0.73989 0.61228 0.15966 0.0
H82 H 0.56123 0.3852 0.1658 0.0
H83 H 0.65796 0.48945 0.02589 0.0
H84 H 0.43347 0.50161 0.0507 0.0
C85 C 0.43395 0.43077 0.06634 0.0
O86 O 0.524 0.39437 0.0682 0.0
H87 H 0.41964 0.42573 0.10598 0.0
C88 C 0.70818 0.55822 0.14122 0.0
C89 C 0.71376 0.55599 0.08992 0.0
C90 C 0.65726 0.49468 0.1688 0.0
C91 C 0.607 0.42954 0.14511 0.0
C92 C 0.60038 0.43288 0.09275 0.0
C93 C 0.6598 0.49092 0.0659 0.0
C94 C 0.29806 0.30082 0.96668 0.0
C95 C 0.22412 0.2662 -0.00635 0.0
C96 C 0.26454 0.37214 0.053 0.0
C97 C 0.35461 0.3842 0.03596 0.0
N98 N 0.43513 0.39674 0.9631 0.0
N99 N 0.124 0.28167 0.05693 0.0
C100 C 0.36471 0.36009 -0.01168 0.0
C101 C 0.20184 0.30721 0.0344 0.0
N102 N 0.30644 0.27221 0.92185 0.0
N103 N 0.23691 0.42606 0.08456 0.0
H104 H 0.07053 0.24299 0.041 0.0
H105 H 0.11286 0.2988 0.09157 0.0
H106 H 0.2774 0.47968 0.09507 0.0
H107 H 0.16898 0.42522 0.0949 0.0
H108 H 0.36393 0.28535 0.90211 0.0
H109 H 0.25384 0.23367 0.9044 0.0
H110 H 0.44011 0.38975 0.92589 0.0
H111 H 0.48355 0.4417 -0.0224 0.0
C112 C 0.20953 0.78889 0.87206 0.0
C113 C 0.21884 0.79602 0.92422 0.0
C114 C 0.33115 0.67262 0.94381 0.0
C115 C 0.32711 0.66697 0.89182 0.0
N116 N 0.27809 0.73361 0.80526 0.0
N117 N 0.24938 0.71572 0.00848 0.0
C118 C 0.27009 0.72867 0.85537 0.0
C119 C 0.26746 0.72862 0.95962 0.0
N120 N 0.13776 0.83276 0.83937 0.0
N121 N 0.40077 0.62964 -0.0217 0.0
H122 H 0.19745 0.75214 0.0205 0.0
H123 H 0.27709 0.66222 0.03487 0.0
H124 H 0.45138 0.58928 0.96853 0.0
H125 H 0.41507 0.64408 0.0152 0.0
H126 H 0.12206 0.82466 0.80147 0.0
H127 H 0.08517 0.86691 0.85188 0.0
H128 H 0.24346 0.78125 0.77734 0.0
H129 H 0.32768 0.69667 0.79197 0.0
C130 C 0.87765 0.7521 0.07041 0.0
C131 C 0.85418 0.78601 0.01841 0.0
C132 C 0.7319 0.67224 0.01298 0.0
C133 C 0.76768 0.62881 0.06214 0.0
N134 N 0.9051 0.61604 0.1279 0.0
N135 N 0.78289 0.74644 0.93698 0.0
C136 C 0.85142 0.66429 0.08748 0.0
C137 C 0.78948 0.7358 -0.01165 0.0
N138 N 0.91371 0.80491 0.10485 0.0
N139 N 0.64061 0.6613 -0.00858 0.0
H140 H 0.83172 0.78329 0.91736 0.0
H141 H 0.73747 0.70765 0.91527 0.0
H142 H 0.59043 0.62915 0.01185 0.0
H143 H 0.61248 0.69615 0.95635 0.0
H144 H 0.92484 0.78159 0.14353 0.0
H145 H 0.91529 0.87344 0.09575 0.0
H146 H 0.96796 0.64077 0.14578 0.0
H147 H 0.89205 0.5492 0.13929 0.0
C148 C 0.81918 0.29724 -0.01458 0.0
C149 C 0.89617 0.2807 0.96049 0.0
C150 C 0.84939 0.41316 0.89931 0.0
C151 C 0.75685 0.40835 0.91396 0.0
N152 N 0.65296 0.33323 0.96961 0.0
N153 N 0.99468 0.3328 0.89689 0.0
C154 C 0.74215 0.34938 0.95794 0.0
C155 C 0.91614 0.34324 0.91918 0.0
N156 N 0.81536 0.25456 0.033 0.0
N157 N 0.87243 0.4836 0.86611 0.0
H158 H 0.04752 0.28611 0.9124 0.0
H159 H 1.00604 0.36922 0.86259 0.0
H160 H 0.82505 0.53608 0.85214 0.0
H161 H 0.94074 0.49399 0.85671 0.0
H162 H 0.76289 0.26777 0.05427 0.0
H163 H 0.87068 0.21291 0.0522 0.0
H164 H 0.63799 0.28632 -0.00052 0.0
H165 H 0.59361 0.35708 0.94475 0.0
C166 C 0.78192 0.82098 0.45729 0.0
C167 C 0.7113 0.78726 0.48681 0.0
C168 C 0.7248 0.9203 0.52781 0.0
C169 C 0.81395 0.93781 0.5106 0.0
N170 N 0.91627 0.9191 0.44902 0.0
N171 N 0.60839 0.80881 0.54802 0.0
C172 C 0.83829 0.89341 0.47149 0.0
C173 C 0.67883 0.83898 0.52062 0.0
N174 N 0.7942 0.78308 0.41584 0.0
N175 N 0.68262 0.98234 0.54919 0.0
H176 H 0.57014 0.75158 0.54261 0.0
H177 H 0.5911 0.83874 0.57784 0.0
H178 H 0.71037 0.04573 0.55061 0.0
H179 H 0.61421 0.97537 0.55891 0.0
H180 H 0.83957 0.80769 0.3902 0.0
H181 H 0.75138 0.73123 0.40457 0.0
H182 H 0.94427 0.88372 0.42433 0.0
H183 H 0.95406 0.97626 0.45568 0.0
C184 C 0.83171 0.26076 0.46486 0.0
C185 C 0.74919 0.3078 0.43911 0.0
C186 C 0.74779 0.21281 0.37279 0.0
C187 C 0.84526 0.1894 0.39071 0.0
N188 N 0.97679 0.18774 0.45917 0.0
N189 N 0.61391 0.30858 0.37312 0.0
C190 C 0.88673 0.21329 0.43795 0.0
C191 C 0.70284 0.27858 0.39413 0.0
N192 N 0.85145 0.25186 0.51642 0.0
N193 N 0.69527 0.16694 0.33859 0.0
H194 H 0.56664 0.33341 0.39373 0.0
H195 H 0.58586 0.30449 0.33569 0.0
H196 H 0.72097 0.11181 0.32599 0.0
H197 H 0.62227 0.17583 0.32748 0.0
H198 H 0.90691 0.21242 0.53732 0.0
H199 H 0.80336 0.27114 0.53862 0.0
H200 H 1.01377 0.21645 0.4889 0.0
H201 H 1.01296 0.13684 0.44848 0.0
C202 C 0.37568 0.23266 0.52797 0.0
C203 C 0.33923 0.32043 0.51984 0.0
C204 C 0.19512 0.26869 0.55498 0.0
C205 C 0.22838 0.17991 0.5598 0.0
N206 N 0.3446 0.07512 0.54696 0.0
N207 N 0.21335 0.4235 0.52172 0.0
C208 C 0.31724 0.1612 0.54521 0.0
C209 C 0.24885 0.33887 0.53255 0.0
N210 N 0.46661 0.21818 0.51968 0.0
N211 N 0.11246 0.28591 0.57245 0.0
H212 H 0.25312 0.47759 0.50841 0.0
H213 H 0.14322 0.44014 0.52351 0.0
H214 H 0.06693 0.23652 0.58554 0.0
H215 H 0.09044 0.349 0.57626 0.0
H216 H 0.50136 0.15719 0.52911 0.0
H217 H 0.51052 0.2692 0.50663 0.0
H218 H 0.40342 0.05623 0.53198 0.0
H219 H 0.30462 0.02148 0.56061 0.0
C220 C 0.41716 0.85651 0.41505 0.0
C221 C 0.38852 0.78635 0.4501 0.0
C222 C 0.24395 0.86846 0.45507 0.0
C223 C 0.26593 0.93284 0.41489 0.0
N224 N 0.3888 0.00819 0.37342 0.0
N225 N 0.29958 0.74323 0.51851 0.0
C226 C 0.35882 0.93394 0.40124 0.0
C227 C 0.31056 0.79924 0.47553 0.0
N228 N 0.4949 0.84668 0.39191 0.0
N229 N 0.15733 0.86918 0.47117 0.0
H230 H 0.34838 0.69236 0.53365 0.0
H231 H 0.24871 0.75254 0.54147 0.0
H232 H 0.10899 0.92087 0.45932 0.0
H233 H 0.13231 0.81732 0.49522 0.0
H234 H 0.51225 0.8911 0.36158 0.0
H235 H 0.54029 0.79203 0.40167 0.0
H236 H 0.45805 0.01642 0.3651 0.0
H237 H 0.34594 0.06486 0.36315 0.0
C238 C 0.0974 0.87966 0.1761 0.0
C239 C 0.08044 0.95198 0.13679 0.0
C240 C 0.08639 0.05382 0.19829 0.0
C241 C 0.09314 0.9815 0.23814 0.0
N242 N 0.07757 0.82337 0.26242 0.0
N243 N 0.02731 0.10294 0.11072 0.0
C244 C 0.09027 0.89333 0.22641 0.0
C245 C 0.06304 0.03711 0.14812 0.0
N246 N 0.1219 0.79893 0.16566 0.0
N247 N 0.10981 0.13767 0.20758 0.0
H248 H 1.00894 0.09256 0.07324 0.0
H249 H 1.0063 0.16417 0.11838 0.0
H250 H 0.13785 0.15221 0.24328 0.0
H251 H 0.11298 0.19058 0.17875 0.0
H252 H 0.14438 0.74614 0.19375 0.0
H253 H 0.12393 0.7868 0.12878 0.0
H254 H 0.06785 0.75883 0.25439 0.0
H255 H 0.0664 0.83127 0.29882 0.0
C256 C 0.99953 0.11209 0.76846 0.0
C257 C 0.05814 0.06312 0.80995 0.0
C258 C 0.16142 0.01918 0.75283 0.0
C259 C 0.09189 0.05188 0.71132 0.0
N260 N 0.94799 0.13695 0.67827 0.0
N261 N 0.22277 0.02599 0.84054 0.0
C262 C 1.01201 0.10099 0.71868 0.0
C263 C 0.14807 0.03301 0.80217 0.0
N264 N 0.94029 0.17674 0.77659 0.0
N265 N 0.23837 0.97261 0.74536 0.0
H266 H 0.21886 0.05011 0.87435 0.0
H267 H 0.29178 0.00954 0.83627 0.0
H268 H 0.25019 0.96075 0.7097 0.0
H269 H 0.28651 0.94012 0.77484 0.0
H270 H 0.90084 0.21954 0.74775 0.0
H271 H 0.94194 0.19691 0.81197 0.0
H272 H 0.88194 0.16218 0.68188 0.0
H273 H 0.95838 0.13794 0.64079 0.0
C274 C 0.54514 0.54419 0.65251 0.0
C275 C 0.55377 0.46124 0.63654 0.0
C276 C 0.55775 0.38866 0.72347 0.0
C277 C 0.57079 0.47298 0.74007 0.0
N278 N 0.59648 0.63061 0.71888 0.0
N279 N 0.56781 0.30301 0.65517 0.0
C280 C 0.56874 0.55102 0.70419 0.0
C281 C 0.55894 0.38257 0.6715 0.0
N282 N 0.51822 0.61691 0.61779 0.0
N283 N 0.54231 0.31553 0.75684 0.0
H284 H 0.56415 0.29762 0.61685 0.0
H285 H 0.5825 0.24385 0.67954 0.0
H286 H 0.53827 0.31834 0.7948 0.0
H287 H 0.52493 0.25396 0.74589 0.0
H288 H 0.50387 0.67821 0.62788 0.0
H289 H 0.50034 0.61269 0.57936 0.0
H290 H 0.60384 0.6874 0.69323 0.0
H291 H 0.62292 0.63788 0.75611 0.0
C292 C 0.68306 0.49668 0.31033 0.0
C293 C 0.5982 0.54213 0.31316 0.0
C294 C 0.56345 0.57008 0.22118 0.0
C295 C 0.63801 0.51059 0.21881 0.0
N296 N 0.76882 0.4153 0.26023 0.0
N297 N 0.49751 0.6648 0.2719 0.0
C298 C 0.69838 0.47358 0.26313 0.0
C299 C 0.54971 0.59182 0.26865 0.0
N300 N 0.75367 0.48598 0.35069 0.0
N301 N 0.50378 0.60353 0.17837 0.0
H302 H 0.49657 0.68879 0.30609 0.0
H303 H 0.46687 0.70828 0.24056 0.0
H304 H 0.51207 0.59094 0.14233 0.0
H305 H 0.44151 0.63838 0.17903 0.0
H306 H 0.81969 0.45763 0.35 0.0
H307 H 0.75178 0.51891 0.38171 0.0
H308 H 0.80788 0.37879 0.29198 0.0
H309 H 0.78322 0.39863 0.22596 0.0
loop_
_geom_bond_atom_site_label_1
_geom_bond_atom_site_label_2
_geom_bond_distance
_geom_bond_site_symmetry_2
_ccdc_geom_bond_type
Zn0 O6 1.920 1_545 S
Zn0 O12 1.898 . S
Zn0 O15 1.905 1_545 S
Zn1 O9 1.905 . S
Zn1 O10 1.898 1_545 S
Zn1 O18 1.920 1_545 S
Zn2 O5 2.080 1_445 S
Zn2 O8 2.114 1_554 S
Zn2 O11 2.120 1_545 S
Zn2 O13 2.120 1_455 S
Zn2 O14 2.114 1_554 S
Zn2 O17 2.080 . S
C3 O8 1.166 1_554 S
C3 O9 1.182 . S
C4 O10 1.167 . S
C4 O11 1.299 . S
O5 Zn2 2.080 1_665 S
O5 C19 1.305 . S
O6 Zn0 1.920 1_565 S
O6 C19 1.234 1_556 S
C7 O12 1.167 . S
C7 O13 1.299 1_556 S
O8 Zn2 2.114 1_556 S
O8 C3 1.166 1_556 S
O9 Zn1 1.905 . S
O9 C3 1.182 . S
O10 Zn1 1.898 1_565 S
O10 C4 1.167 . S
O11 Zn2 2.120 1_565 S
O11 C4 1.299 . S
O12 Zn0 1.898 . S
O12 C7 1.167 . S
O13 Zn2 2.120 1_655 S
O13 C7 1.299 1_554 S
O14 Zn2 2.114 1_556 S
O14 C16 1.167 1_545 S
O15 Zn0 1.905 1_565 S
O15 C16 1.180 1_655 S
C16 O14 1.167 1_565 S
C16 O15 1.180 1_455 S
O17 Zn2 2.080 . S
O17 C20 1.305 1_545 S
O18 Zn1 1.920 1_565 S
O18 C20 1.234 . S
C19 O5 1.305 . S
C19 O6 1.234 1_554 S
C20 O17 1.305 1_565 S
C20 O18 1.234 . S
Zn21 O27 1.920 . S
Zn21 O33 1.898 . S
Zn21 O36 1.905 . S
Zn22 O30 1.905 . S
Zn22 O31 1.898 . S
Zn22 O39 1.920 . S
Zn23 O26 2.080 . S
Zn23 O29 2.114 . S
Zn23 O32 2.120 . S
Zn23 O34 2.120 . S
Zn23 O35 2.114 . S
Zn23 O38 2.080 . S
C24 O29 1.166 . S
C24 O30 1.182 . S
C25 O31 1.167 . S
C25 O32 1.299 . S
O26 Zn23 2.080 . S
O26 C40 1.305 . S
O27 Zn21 1.920 . S
O27 C40 1.234 . S
C28 O33 1.167 . S
C28 O34 1.299 . S
O29 Zn23 2.114 . S
O29 C24 1.166 . S
O30 Zn22 1.905 . S
O30 C24 1.182 . S
O31 Zn22 1.898 . S
O31 C25 1.167 . S
O32 Zn23 2.120 . S
O32 C25 1.299 . S
O33 Zn21 1.898 . S
O33 C28 1.167 . S
O34 Zn23 2.120 . S
O34 C28 1.299 . S
O35 Zn23 2.114 . S
O35 C37 1.166 . S
O36 Zn21 1.905 . S
O36 C37 1.182 . S
C37 O35 1.166 . S
C37 O36 1.182 . S
O38 Zn23 2.080 . S
O38 C41 1.305 . S
O39 Zn22 1.920 . S
O39 C41 1.234 . S
C40 O26 1.305 . S
C40 O27 1.234 . S
C41 O38 1.305 . S
C41 O39 1.234 . S
H42 C49 0.929 . S
H43 C52 0.930 . S
H44 C54 0.929 . S
H45 C46 0.969 . S
C46 H45 0.969 . S
C46 O47 1.550 1_655 S
C46 H48 0.973 . S
O47 C46 1.550 1_455 S
O47 C53 1.412 . S
H48 C46 0.973 . S
C49 H42 0.929 . S
C49 C50 1.400 . S
C49 C51 1.364 1_565 S
C50 C49 1.400 . S
C50 C54 1.377 . S
C51 C49 1.364 1_545 S
C51 C52 1.374 . S
C52 H43 0.930 . S
C52 C51 1.374 . S
C52 C53 1.383 . S
C53 O47 1.412 . S
C53 C52 1.383 . S
C53 C54 1.394 1_545 S
C54 H44 0.929 . S
C54 C50 1.377 . S
C54 C53 1.394 1_565 S
H55 C62 0.929 . S
H56 C65 0.930 1_565 S
H57 C67 0.929 . S
H58 C59 0.969 . S
C59 H58 0.969 . S
C59 O60 1.550 . S
C59 H61 0.973 . S
O60 C59 1.550 . S
O60 C66 1.412 1_565 S
H61 C59 0.973 . S
C62 H55 0.929 . S
C62 C63 1.400 . S
C62 C64 1.364 . S
C63 C62 1.400 . S
C63 C67 1.377 . S
C64 C62 1.364 . S
C64 C65 1.374 1_455 S
C65 H56 0.930 1_545 S
C65 C64 1.374 1_655 S
C65 C66 1.383 . S
C66 O60 1.412 1_545 S
C66 C65 1.383 . S
C66 C67 1.394 1_655 S
C67 H57 0.929 . S
C67 C63 1.377 . S
C67 C66 1.394 1_455 S
H68 C75 0.929 . S
H69 C78 0.930 . S
H70 C80 0.929 . S
H71 C72 0.969 . S
C72 H71 0.969 . S
C72 O73 1.550 . S
C72 H74 0.973 . S
O73 C72 1.550 . S
O73 C79 1.412 . S
H74 C72 0.973 . S
C75 H68 0.929 . S
C75 C76 1.400 . S
C75 C77 1.364 . S
C76 C75 1.400 . S
C76 C80 1.377 . S
C77 C75 1.364 . S
C77 C78 1.374 . S
C78 H69 0.930 . S
C78 C77 1.374 . S
C78 C79 1.383 . S
C79 O73 1.412 . S
C79 C78 1.383 . S
C79 C80 1.394 . S
C80 H70 0.929 . S
C80 C76 1.377 . S
C80 C79 1.394 . S
H81 C88 0.929 . S
H82 C91 0.930 . S
H83 C93 0.929 . S
H84 C85 0.969 . S
C85 H84 0.969 . S
C85 O86 1.550 . S
C85 H87 0.973 . S
O86 C85 1.550 . S
O86 C92 1.412 . S
H87 C85 0.973 . S
C88 H81 0.929 . S
C88 C89 1.400 . S
C88 C90 1.364 . S
C89 C88 1.400 . S
C89 C93 1.377 . S
C90 C88 1.364 . S
C90 C91 1.374 . S
C91 H82 0.930 . S
C91 C90 1.374 . S
C91 C92 1.383 . S
C92 O86 1.412 . S
C92 C91 1.383 . S
C92 C93 1.394 . S
C93 H83 0.929 . S
C93 C89 1.377 . S
C93 C92 1.394 . S
C94 C95 1.363 . S
C94 C100 1.379 . S
C94 N102 1.356 1_554 S
C95 C94 1.363 . S
C95 C101 1.363 . S
C96 C97 1.363 . S
C96 C101 1.379 . S
C96 N103 1.356 . S
C97 C96 1.363 . S
C97 C100 1.363 . S
N98 C100 1.356 . S
N98 H110 0.984 . S
N98 H111 0.985 . S
N99 C101 1.356 . S
N99 H104 0.984 . S
N99 H105 0.985 . S
C100 C94 1.379 . S
C100 C97 1.363 . S
C100 N98 1.356 . S
C101 C95 1.363 . S
C101 C96 1.379 . S
C101 N99 1.356 . S
N102 C94 1.356 1_556 S
N102 H108 0.984 . S
N102 H109 0.984 . S
N103 C96 1.356 . S
N103 H106 0.984 . S
N103 H107 0.985 . S
H104 N99 0.984 . S
H105 N99 0.985 . S
H106 N103 0.984 . S
H107 N103 0.985 . S
H108 N102 0.984 . S
H109 N102 0.984 . S
H110 N98 0.984 . S
H111 N98 0.985 . S
C112 C113 1.363 . S
C112 C118 1.379 . S
C112 N120 1.356 . S
C113 C112 1.363 . S
C113 C119 1.363 1_556 S
C114 C115 1.363 1_554 S
C114 C119 1.379 . S
C114 N121 1.356 . S
C115 C114 1.363 1_556 S
C115 C118 1.363 . S
N116 C118 1.356 . S
N116 H128 0.984 . S
N116 H129 0.985 . S
N117 C119 1.356 . S
N117 H122 0.984 . S
N117 H123 0.985 . S
C118 C112 1.379 . S
C118 C115 1.363 . S
C118 N116 1.356 . S
C119 C113 1.363 1_554 S
C119 C114 1.379 . S
C119 N117 1.356 . S
N120 C112 1.356 . S
N120 H126 0.984 . S
N120 H127 0.984 . S
N121 C114 1.356 . S
N121 H124 0.984 . S
N121 H125 0.985 . S
H122 N117 0.984 . S
H123 N117 0.985 . S
H124 N121 0.984 . S
H125 N121 0.985 . S
H126 N120 0.984 . S
H127 N120 0.984 . S
H128 N116 0.984 . S
H129 N116 0.985 . S
C130 C131 1.363 . S
C130 C136 1.379 . S
C130 N138 1.356 . S
C131 C130 1.363 . S
C131 C137 1.363 . S
C132 C133 1.363 . S
C132 C137 1.379 . S
C132 N139 1.356 1_554 S
C133 C132 1.363 . S
C133 C136 1.363 . S
N134 C136 1.356 . S
N134 H146 0.984 . S
N134 H147 0.985 . S
N135 C137 1.356 1_556 S
N135 H140 0.984 . S
N135 H141 0.985 . S
C136 C130 1.379 . S
C136 C133 1.363 . S
C136 N134 1.356 . S
C137 C131 1.363 . S
C137 C132 1.379 . S
C137 N135 1.356 1_554 S
N138 C130 1.356 . S
N138 H144 0.984 . S
N138 H145 0.984 . S
N139 C132 1.356 1_556 S
N139 H142 0.984 1_556 S
N139 H143 0.985 . S
H140 N135 0.984 . S
H141 N135 0.985 . S
H142 N139 0.984 1_554 S
H143 N139 0.985 . S
H144 N138 0.984 . S
H145 N138 0.984 . S
H146 N134 0.984 . S
H147 N134 0.985 . S
C148 C149 1.363 1_554 S
C148 C154 1.379 1_554 S
C148 N156 1.356 . S
C149 C148 1.363 1_556 S
C149 C155 1.363 . S
C150 C151 1.363 . S
C150 C155 1.379 . S
C150 N157 1.356 . S
C151 C150 1.363 . S
C151 C154 1.363 . S
N152 C154 1.356 1_554 S
N152 H164 0.984 . S
N152 H165 0.985 . S
N153 C155 1.356 . S
N153 H158 0.984 . S
N153 H159 0.985 . S
C154 C148 1.379 1_556 S
C154 C151 1.363 . S
C154 N152 1.356 1_556 S
C155 C149 1.363 . S
C155 C150 1.379 . S
C155 N153 1.356 . S
N156 C148 1.356 . S
N156 H162 0.984 . S
N156 H163 0.984 . S
N157 C150 1.356 . S
N157 H160 0.984 . S
N157 H161 0.985 . S
H158 N153 0.984 . S
H159 N153 0.985 . S
H160 N157 0.984 . S
H161 N157 0.985 . S
H162 N156 0.984 . S
H163 N156 0.984 . S
H164 N152 0.984 . S
H165 N152 0.985 . S
C166 C167 1.363 . S
C166 C172 1.379 . S
C166 N174 1.356 . S
C167 C166 1.363 . S
C167 C173 1.363 . S
C168 C169 1.363 . S
C168 C173 1.379 . S
C168 N175 1.356 . S
C169 C168 1.363 . S
C169 C172 1.363 . S
N170 C172 1.356 . S
N170 H182 0.984 . S
N170 H183 0.985 . S
N171 C173 1.356 . S
N171 H176 0.984 . S
N171 H177 0.985 . S
C172 C166 1.379 . S
C172 C169 1.363 . S
C172 N170 1.356 . S
C173 C167 1.363 . S
C173 C168 1.379 . S
C173 N171 1.356 . S
N174 C166 1.356 . S
N174 H180 0.984 . S
N174 H181 0.984 . S
N175 C168 1.356 . S
N175 H178 0.984 . S
N175 H179 0.985 . S
H176 N171 0.984 . S
H177 N171 0.985 . S
H178 N175 0.984 . S
H179 N175 0.985 . S
H180 N174 0.984 . S
H181 N174 0.984 . S
H182 N170 0.984 . S
H183 N170 0.985 . S
C184 C185 1.363 . S
C184 C190 1.379 . S
C184 N192 1.356 . S
C185 C184 1.363 . S
C185 C191 1.363 . S
C186 C187 1.363 . S
C186 C191 1.379 . S
C186 N193 1.356 . S
C187 C186 1.363 . S
C187 C190 1.363 . S
N188 C190 1.356 . S
N188 H200 0.984 . S
N188 H201 0.985 1_655 S
N189 C191 1.356 . S
N189 H194 0.984 . S
N189 H195 0.985 . S
C190 C184 1.379 . S
C190 C187 1.363 . S
C190 N188 1.356 . S
C191 C185 1.363 . S
C191 C186 1.379 . S
C191 N189 1.356 . S
N192 C184 1.356 . S
N192 H198 0.984 . S
N192 H199 0.984 . S
N193 C186 1.356 . S
N193 H196 0.984 . S
N193 H197 0.985 . S
H194 N189 0.984 . S
H195 N189 0.985 . S
H196 N193 0.984 . S
H197 N193 0.985 . S
H198 N192 0.984 . S
H199 N192 0.984 . S
H200 N188 0.984 . S
H201 N188 0.985 1_455 S
C202 C203 1.363 . S
C202 C208 1.379 . S
C202 N210 1.356 . S
C203 C202 1.363 . S
C203 C209 1.363 . S
C204 C205 1.363 . S
C204 C209 1.379 . S
C204 N211 1.356 . S
C205 C204 1.363 . S
C205 C208 1.363 . S
N206 C208 1.356 . S
N206 H218 0.984 . S
N206 H219 0.985 . S
N207 C209 1.356 . S
N207 H212 0.984 . S
N207 H213 0.985 . S
C208 C202 1.379 . S
C208 C205 1.363 . S
C208 N206 1.356 . S
C209 C203 1.363 . S
C209 C204 1.379 . S
C209 N207 1.356 . S
N210 C202 1.356 . S
N210 H216 0.984 . S
N210 H217 0.984 . S
N211 C204 1.356 . S
N211 H214 0.984 . S
N211 H215 0.985 . S
H212 N207 0.984 . S
H213 N207 0.985 . S
H214 N211 0.984 . S
H215 N211 0.985 . S
H216 N210 0.984 . S
H217 N210 0.984 . S
H218 N206 0.984 . S
H219 N206 0.985 . S
C220 C221 1.363 . S
C220 C226 1.379 . S
C220 N228 1.356 . S
C221 C220 1.363 . S
C221 C227 1.363 . S
C222 C223 1.363 . S
C222 C227 1.379 . S
C222 N229 1.356 . S
C223 C222 1.363 . S
C223 C226 1.363 . S
N224 C226 1.356 . S
N224 H236 0.984 . S
N224 H237 0.985 . S
N225 C227 1.356 . S
N225 H230 0.984 . S
N225 H231 0.985 . S
C226 C220 1.379 . S
C226 C223 1.363 . S
C226 N224 1.356 . S
C227 C221 1.363 . S
C227 C222 1.379 . S
C227 N225 1.356 . S
N228 C220 1.356 . S
N228 H234 0.984 . S
N228 H235 0.984 . S
N229 C222 1.356 . S
N229 H232 0.984 . S
N229 H233 0.985 . S
H230 N225 0.984 . S
H231 N225 0.985 . S
H232 N229 0.984 . S
H233 N229 0.985 . S
H234 N228 0.984 . S
H235 N228 0.984 . S
H236 N224 0.984 . S
H237 N224 0.985 . S
C238 C239 1.363 . S
C238 C244 1.379 . S
C238 N246 1.356 . S
C239 C238 1.363 . S
C239 C245 1.363 1_565 S
C240 C241 1.362 1_545 S
C240 C245 1.379 . S
C240 N247 1.356 . S
C241 C240 1.362 1_565 S
C241 C244 1.365 . S
N242 C244 1.356 . S
N242 H254 0.984 . S
N242 H255 0.985 . S
N243 C245 1.356 . S
N243 H248 0.984 . S
N243 H249 0.985 . S
C244 C238 1.379 . S
C244 C241 1.365 . S
C244 N242 1.356 . S
C245 C239 1.363 1_545 S
C245 C240 1.379 . S
C245 N243 1.356 . S
N246 C238 1.356 . S
N246 H252 0.984 . S
N246 H253 0.984 . S
N247 C240 1.356 . S
N247 H250 0.984 . S
N247 H251 0.985 . S
H248 N243 0.984 . S
H249 N243 0.985 . S
H250 N247 0.984 . S
H251 N247 0.985 . S
H252 N246 0.984 . S
H253 N246 0.984 . S
H254 N242 0.984 . S
H255 N242 0.985 . S
C256 C257 1.363 1_645 S
C256 C262 1.379 . S
C256 N264 1.356 . S
C257 C256 1.363 1_465 S
C257 C263 1.363 . S
C258 C259 1.363 1_565 S
C258 C263 1.379 . S
C258 N265 1.356 . S
C259 C258 1.363 1_545 S
C259 C262 1.363 1_455 S
N260 C262 1.356 . S
N260 H272 0.984 . S
N260 H273 0.985 . S
N261 C263 1.356 . S
N261 H266 0.984 . S
N261 H267 0.985 . S
C262 C256 1.379 . S
C262 C259 1.363 1_655 S
C262 N260 1.356 . S
C263 C257 1.363 . S
C263 C258 1.379 . S
C263 N261 1.356 . S
N264 C256 1.356 . S
N264 H270 0.984 . S
N264 H271 0.984 . S
N265 C258 1.356 . S
N265 H268 0.984 . S
N265 H269 0.985 . S
H266 N261 0.984 . S
H267 N261 0.985 . S
H268 N265 0.984 . S
H269 N265 0.985 . S
H270 N264 0.984 . S
H271 N264 0.984 . S
H272 N260 0.984 . S
H273 N260 0.985 . S
C274 C275 1.363 . S
C274 C280 1.379 . S
C274 N282 1.356 . S
C275 C274 1.363 . S
C275 C281 1.363 . S
C276 C277 1.363 . S
C276 C281 1.379 . S
C276 N283 1.356 . S
C277 C276 1.363 . S
C277 C280 1.363 . S
N278 C280 1.356 . S
N278 H290 0.984 . S
N278 H291 0.985 . S
N279 C281 1.356 . S
N279 H284 0.984 . S
N279 H285 0.985 . S
C280 C274 1.379 . S
C280 C277 1.363 . S
C280 N278 1.356 . S
C281 C275 1.363 . S
C281 C276 1.379 . S
C281 N279 1.356 . S
N282 C274 1.356 . S
N282 H288 0.984 . S
N282 H289 0.984 . S
N283 C276 1.356 . S
N283 H286 0.984 . S
N283 H287 0.985 . S
H284 N279 0.984 . S
H285 N279 0.985 . S
H286 N283 0.984 . S
H287 N283 0.985 . S
H288 N282 0.984 . S
H289 N282 0.984 . S
H290 N278 0.984 . S
H291 N278 0.985 . S
C292 C293 1.363 . S
C292 C298 1.379 . S
C292 N300 1.356 . S
C293 C292 1.363 . S
C293 C299 1.363 . S
C294 C295 1.363 . S
C294 C299 1.379 . S
C294 N301 1.356 . S
C295 C294 1.363 . S
C295 C298 1.363 . S
N296 C298 1.356 . S
N296 H308 0.984 . S
N296 H309 0.985 . S
N297 C299 1.356 . S
N297 H302 0.984 . S
N297 H303 0.985 . S
C298 C292 1.379 . S
C298 C295 1.363 . S
C298 N296 1.356 . S
C299 C293 1.363 . S
C299 C294 1.379 . S
C299 N297 1.356 . S
N300 C292 1.356 . S
N300 H306 0.984 . S
N300 H307 0.984 . S
N301 C294 1.356 . S
N301 H304 0.984 . S
N301 H305 0.985 . S
H302 N297 0.984 . S
H303 N297 0.985 . S
H304 N301 0.984 . S
H305 N301 0.985 . S
H306 N300 0.984 . S
H307 N300 0.984 . S
H308 N296 0.984 . S
H309 N296 0.985 . S
C97 C85 1.253 . S
C95 C3 1.213 . S
C113 C4 1.451 1_556 S
C115 C72 1.439 . S
C131 C19 1.497 . S
C133 C89 1.622 . S
C149 C7 1.228 . S
C151 C76 1.388 . S
C167 C37 1.213 . S
C169 C59 1.253 . S
C185 C28 1.451 . S
C187 C46 1.438 . S
C205 C63 1.622 . S
C203 C41 1.497 . S
C223 C50 1.388 . S
C221 C25 1.228 . S
C239 C20 1.355 . S
C241 C51 1.544 1_565 S
C257 C16 1.406 . S
C259 C64 1.567 . S
C277 C77 1.545 . S
C275 C40 1.355 . S
C293 C24 1.405 . S
C295 C90 1.567 . S
