# Generated by pormake.
# Topology pyr, (3,6)-cn, num edge types: 1
# Building blocks:
#     Node 0, Type 0, BuildingBlock: QEWDON_clean_linker_0, # of connection points: 3
#     Node 1, Type 0, BuildingBlock: QEWDON_clean_linker_0, # of connection points: 3
#     Node 2, Type 0, BuildingBlock: QEWDON_clean_linker_0, # of connection points: 3
#     Node 3, Type 0, BuildingBlock: QEWDON_clean_linker_0, # of connection points: 3
#     Node 4, Type 0, BuildingBlock: QEWDON_clean_linker_0, # of connection points: 3
#     Node 5, Type 0, BuildingBlock: QEWDON_clean_linker_0, # of connection points: 3
#     Node 6, Type 0, BuildingBlock: QEWDON_clean_linker_0, # of connection points: 3
#     Node 7, Type 0, BuildingBlock: QEWDON_clean_linker_0, # of connection points: 3
#     Node 8, Type 1, BuildingBlock: MIFKUJ_clean_sbu_0, # of connection points: 6
#     Node 9, Type 1, BuildingBlock: MIFKUJ_clean_sbu_0, # of connection points: 6
#     Node 10, Type 1, BuildingBlock: MIFKUJ_clean_sbu_0, # of connection points: 6
#     Node 11, Type 1, BuildingBlock: MIFKUJ_clean_sbu_0, # of connection points: 6
#     Edge 12, Type (0, 1), BuildingBlock: XIVTED_clean_linker_0, # of connection points: 2
#     Edge 13, Type (0, 1), BuildingBlock: XIVTED_clean_linker_0, # of connection points: 2
#     Edge 14, Type (0, 1), BuildingBlock: XIVTED_clean_linker_0, # of connection points: 2
#     Edge 15, Type (0, 1), BuildingBlock: XIVTED_clean_linker_0, # of connection points: 2
#     Edge 16, Type (0, 1), BuildingBlock: XIVTED_clean_linker_0, # of connection points: 2
#     Edge 17, Type (0, 1), BuildingBlock: XIVTED_clean_linker_0, # of connection points: 2
#     Edge 18, Type (0, 1), BuildingBlock: XIVTED_clean_linker_0, # of connection points: 2
#     Edge 19, Type (0, 1), BuildingBlock: XIVTED_clean_linker_0, # of connection points: 2
#     Edge 20, Type (0, 1), BuildingBlock: XIVTED_clean_linker_0, # of connection points: 2
#     Edge 21, Type (0, 1), BuildingBlock: XIVTED_clean_linker_0, # of connection points: 2
#     Edge 22, Type (0, 1), BuildingBlock: XIVTED_clean_linker_0, # of connection points: 2
#     Edge 23, Type (0, 1), BuildingBlock: XIVTED_clean_linker_0, # of connection points: 2
#     Edge 24, Type (0, 1), BuildingBlock: XIVTED_clean_linker_0, # of connection points: 2
#     Edge 25, Type (0, 1), BuildingBlock: XIVTED_clean_linker_0, # of connection points: 2
#     Edge 26, Type (0, 1), BuildingBlock: XIVTED_clean_linker_0, # of connection points: 2
#     Edge 27, Type (0, 1), BuildingBlock: XIVTED_clean_linker_0, # of connection points: 2
#     Edge 28, Type (0, 1), BuildingBlock: XIVTED_clean_linker_0, # of connection points: 2
#     Edge 29, Type (0, 1), BuildingBlock: XIVTED_clean_linker_0, # of connection points: 2
#     Edge 30, Type (0, 1), BuildingBlock: XIVTED_clean_linker_0, # of connection points: 2
#     Edge 31, Type (0, 1), BuildingBlock: XIVTED_clean_linker_0, # of connection points: 2
#     Edge 32, Type (0, 1), BuildingBlock: XIVTED_clean_linker_0, # of connection points: 2
#     Edge 33, Type (0, 1), BuildingBlock: XIVTED_clean_linker_0, # of connection points: 2
#     Edge 34, Type (0, 1), BuildingBlock: XIVTED_clean_linker_0, # of connection points: 2
#     Edge 35, Type (0, 1), BuildingBlock: XIVTED_clean_linker_0, # of connection points: 2
# Relax obj value: 0.096
# Max RMSD: 0.268
# Mean RMSD: 0.179
data_MOF--net-pyr--node1-MIFKUJ_clean_sbu_0--node2-QEWDON_clean_linker_0--edge1-XIVTED_clean_linker_0
_symmetry_space_group_name_H-M    P1
_symmetry_Int_Tables_number       1
_symmetry_cell_setting            triclinic
loop_
_symmetry_equiv_pos_as_xyz
'x, y, z'
_cell_length_a     39.199918
_cell_length_b     35.350288
_cell_length_c     40.317983
_cell_angle_alpha  85.700002
_cell_angle_beta   88.406531
_cell_angle_gamma 107.25248
loop_
_atom_site_label
_atom_site_type_symbol
_atom_site_fract_x
_atom_site_fract_y
_atom_site_fract_z
_atom_type_partial_charge
H0 H 0.27451 0.24508 0.18277 0.0
C1 C 0.25532 0.22856 0.20248 0.0
C2 C 0.25451 0.18961 0.21356 0.0
C3 C 0.23135 0.24636 0.21655 0.0
H4 H 0.22906 0.1389 0.24819 0.0
C5 C 0.22948 0.1687 0.23921 0.0
C6 C 0.20582 0.1864 0.25412 0.0
C7 C 0.20661 0.22507 0.24215 0.0
C8 C 0.23391 0.28831 0.2064 0.0
H9 H 0.18932 0.2396 0.25395 0.0
C10 C 0.20344 0.29916 0.19724 0.0
C11 C 0.20588 0.33936 0.18911 0.0
C12 C 0.26687 0.31798 0.20708 0.0
H13 H 0.2906 0.31036 0.21427 0.0
C14 C 0.26931 0.35785 0.19932 0.0
H15 H 0.17795 0.27641 0.19645 0.0
C16 C 0.23904 0.36857 0.19052 0.0
H17 H 0.24172 0.39966 0.18409 0.0
H18 H 0.29477 0.38055 0.20011 0.0
H19 H 0.34617 0.9059 0.79795 0.0
C20 C 0.35634 0.89159 0.77874 0.0
C21 C 0.39036 0.88638 0.78099 0.0
C22 C 0.33432 0.87657 0.75299 0.0
H23 H 0.42783 0.86014 0.75924 0.0
C24 C 0.40214 0.86545 0.75694 0.0
C25 C 0.3804 0.85012 0.73078 0.0
C26 C 0.34673 0.85676 0.7287 0.0
C27 C 0.29663 0.87684 0.75451 0.0
H28 H 0.32938 0.84507 0.70904 0.0
C29 C 0.28269 0.89659 0.72907 0.0
C30 C 0.24722 0.89817 0.73246 0.0
C31 C 0.27457 0.8576 0.78258 0.0
H32 H 0.28474 0.84203 0.80227 0.0
C33 C 0.23925 0.85811 0.78549 0.0
H34 H 0.29973 0.91193 0.70756 0.0
C35 C 0.22567 0.87838 0.76075 0.0
H36 H 0.19818 0.8786 0.76374 0.0
H37 H 0.22241 0.84305 0.80716 0.0
H38 H 0.68614 0.48165 0.89721 0.0
C39 C 0.67334 0.45024 0.90396 0.0
C40 C 0.69328 0.42633 0.91757 0.0
C41 C 0.63637 0.43423 0.90104 0.0
H42 H 0.69148 0.36756 0.93758 0.0
C43 C 0.67612 0.38594 0.92688 0.0
C44 C 0.63924 0.36939 0.92363 0.0
C45 C 0.61942 0.39393 0.91093 0.0
C46 C 0.61492 0.46018 0.88979 0.0
H47 H 0.59082 0.38179 0.90868 0.0
C48 C 0.61703 0.47504 0.85628 0.0
C49 C 0.59557 0.49876 0.84542 0.0
C50 C 0.59177 0.46958 0.91269 0.0
H51 H 0.58985 0.45826 0.93863 0.0
C52 C 0.57105 0.49379 0.90229 0.0
H53 H 0.63498 0.46763 0.8387 0.0
C54 C 0.5728 0.50823 0.8689 0.0
H55 H 0.55556 0.52588 0.86133 0.0
H56 H 0.55321 0.50095 0.92007 0.0
H57 H 0.85725 0.77226 0.27952 0.0
C58 C 0.83422 0.7563 0.29585 0.0
C59 C 0.83461 0.76155 0.32999 0.0
C60 C 0.80385 0.73115 0.28264 0.0
H61 H 0.80443 0.74667 0.37695 0.0
C62 C 0.80452 0.74125 0.35084 0.0
C63 C 0.77395 0.71591 0.33807 0.0
C64 C 0.77383 0.71111 0.30377 0.0
C65 C 0.80314 0.72641 0.24658 0.0
H66 H 0.75066 0.69135 0.29345 0.0
C67 C 0.82918 0.71301 0.23071 0.0
C68 C 0.82854 0.70844 0.19638 0.0
C69 C 0.77634 0.73523 0.22791 0.0
H70 H 0.75602 0.7456 0.23975 0.0
C71 C 0.77592 0.73132 0.19372 0.0
H72 H 0.84977 0.70594 0.24513 0.0
C73 C 0.80189 0.7181 0.17795 0.0
H74 H 0.80072 0.71463 0.1515 0.0
H75 H 0.7553 0.73838 0.17942 0.0
H76 H 0.83102 0.82405 0.87202 0.0
C77 C 0.84388 0.84019 0.84885 0.0
C78 C 0.87848 0.83984 0.83892 0.0
C79 C 0.82467 0.85896 0.82797 0.0
H80 H 0.92021 0.85871 0.80003 0.0
C81 C 0.89379 0.85935 0.80793 0.0
C82 C 0.87501 0.87872 0.78676 0.0
C83 C 0.84032 0.8783 0.79718 0.0
C84 C 0.78666 0.85417 0.83645 0.0
H85 H 0.82515 0.89275 0.78136 0.0
C86 C 0.77637 0.87353 0.8625 0.0
C87 C 0.73983 0.86758 0.8706 0.0
C88 C 0.76037 0.82913 0.81848 0.0
H89 H 0.76788 0.81401 0.79837 0.0
C90 C 0.72422 0.82292 0.82661 0.0
H91 H 0.79664 0.89301 0.87634 0.0
C92 C 0.71395 0.84189 0.85253 0.0
H93 H 0.68569 0.8371 0.85802 0.0
H94 H 0.70407 0.80344 0.81271 0.0
H95 H 0.71605 0.18226 0.45398 0.0
C96 C 0.70742 0.181 0.42867 0.0
C97 C 0.72794 0.17061 0.40372 0.0
C98 C 0.67556 0.18961 0.42146 0.0
H99 H 0.7311 0.16038 0.35172 0.0
C100 C 0.716 0.16913 0.37106 0.0
C101 C 0.68411 0.17778 0.36333 0.0
C102 C 0.66434 0.18857 0.38872 0.0
C103 C 0.65222 0.19545 0.44893 0.0
H104 H 0.63909 0.19389 0.3835 0.0
C105 C 0.64115 0.22992 0.44892 0.0
C106 C 0.61882 0.23466 0.47538 0.0
C107 C 0.64067 0.16575 0.47542 0.0
H108 H 0.64874 0.13894 0.47585 0.0
C109 C 0.61826 0.17007 0.50136 0.0
H110 H 0.6501 0.25299 0.42858 0.0
C111 C 0.60738 0.20421 0.50141 0.0
H112 H 0.59065 0.20719 0.52229 0.0
H113 H 0.60946 0.14698 0.52165 0.0
H114 H 0.40337 0.67807 0.22546 0.0
C115 C 0.37732 0.67193 0.21497 0.0
C116 C 0.36741 0.70302 0.19816 0.0
C117 C 0.3538 0.63291 0.21783 0.0
H118 H 0.32658 0.71868 0.17042 0.0
C119 C 0.3339 0.69496 0.18422 0.0
C120 C 0.3106 0.6562 0.18618 0.0
C121 C 0.32058 0.62534 0.20309 0.0
C122 C 0.36357 0.5998 0.23602 0.0
H123 H 0.3021 0.59548 0.20522 0.0
C124 C 0.37902 0.6045 0.26717 0.0
C125 C 0.38597 0.57221 0.28547 0.0
C126 C 0.35609 0.56271 0.2228 0.0
H127 H 0.34472 0.55836 0.19869 0.0
C128 C 0.36307 0.53074 0.24059 0.0
H129 H 0.3851 0.63315 0.27727 0.0
C130 C 0.37754 0.53523 0.27176 0.0
H131 H 0.38149 0.50937 0.2853 0.0
H132 H 0.35684 0.50217 0.23033 0.0
H133 H 0.1982 0.39324 0.75831 0.0
C134 C 0.18443 0.37441 0.73981 0.0
C135 C 0.19979 0.37859 0.70729 0.0
C136 C 0.15179 0.34511 0.74879 0.0
H137 H 0.19501 0.35451 0.65955 0.0
C138 C 0.18213 0.35302 0.68394 0.0
C139 C 0.14917 0.32407 0.6923 0.0
C140 C 0.13398 0.32086 0.72471 0.0
C141 C 0.13715 0.33751 0.78376 0.0
H142 H 0.10831 0.29908 0.73151 0.0
C143 C 0.13428 0.36874 0.8023 0.0
C144 C 0.11926 0.36069 0.8352 0.0
C145 C 0.12558 0.29827 0.79862 0.0
H146 H 0.12799 0.27378 0.78506 0.0
C147 C 0.11092 0.29017 0.83114 0.0
H148 H 0.14335 0.39904 0.79099 0.0
C149 C 0.10752 0.32099 0.84925 0.0
H150 H 0.09501 0.31349 0.87413 0.0
H151 H 0.10184 0.25981 0.84226 0.0
Zn152 Zn 0.05625 0.0263 0.53039 0.0
Zn153 Zn 0.98472 0.04114 0.49421 0.0
C154 C 0.07907 0.11042 0.53935 0.0
O155 O 0.10425 0.11157 0.51676 0.0
C156 C 0.98038 0.96504 0.46528 0.0
O157 O 0.00481 0.9608 0.48558 0.0
O158 O 0.09771 0.01215 0.55174 0.0
O159 O 0.01289 0.98433 0.54969 0.0
O160 O 0.97634 0.02105 0.54353 0.0
C161 C 0.10034 0.01705 0.58263 0.0
O162 O 0.07725 0.03137 0.59759 0.0
O163 O 0.05507 0.07773 0.54765 0.0
C164 C 0.94504 0.08476 0.45586 0.0
O165 O 0.96641 0.08103 0.43145 0.0
O166 O 0.94877 0.07128 0.48526 0.0
O167 O 0.03295 0.07535 0.47342 0.0
O168 O 0.06475 0.03347 0.48083 0.0
O169 O 0.9689 0.99504 0.466 0.0
C170 C 0.98593 0.99395 0.55977 0.0
C171 C 0.05757 0.06141 0.4635 0.0
Zn172 Zn 0.55023 0.01544 0.0413 0.0
Zn173 Zn 0.51083 0.06627 0.11033 0.0
C174 C 0.51506 0.96928 0.99055 0.0
O175 O 0.52733 0.94343 0.00765 0.0
C176 C 0.55763 0.1204 0.15154 0.0
O177 O 0.53864 0.14347 0.141 0.0
O178 O 0.59261 0.99599 0.03047 0.0
O179 O 0.56802 0.07521 0.04349 0.0
O180 O 0.52228 0.09275 0.06375 0.0
C181 C 0.61507 0.01386 0.00679 0.0
O182 O 0.61226 0.04706 0.99187 0.0
O183 O 0.52038 0.00372 1.00071 0.0
C184 C 0.43747 0.06687 0.1284 0.0
O185 O 0.42729 0.03173 0.11676 0.0
O186 O 0.47065 0.08553 0.12824 0.0
O187 O 0.49535 0.00693 0.11722 0.0
O188 O 0.52189 0.97968 0.08032 0.0
O189 O 0.55196 0.08649 0.14029 0.0
C190 C 0.54855 0.09832 0.04286 0.0
C191 C 0.50178 0.97683 0.10628 0.0
Zn192 Zn 0.5206 0.5341 0.547 0.0
Zn193 Zn 0.49407 0.60476 0.57919 0.0
C194 C 0.56012 0.57494 0.48956 0.0
O195 O 0.53429 0.54786 0.47699 0.0
C196 C 0.44427 0.55464 0.62983 0.0
O197 O 0.46661 0.57556 0.65007 0.0
O198 O 0.52623 0.48196 0.53321 0.0
O199 O 0.52834 0.53458 0.59585 0.0
O200 O 0.53774 0.59842 0.60192 0.0
C201 C 0.55792 0.47942 0.53058 0.0
O202 O 0.58467 0.5096 0.53792 0.0
O203 O 0.56026 0.57648 0.52097 0.0
C204 C 0.45425 0.65847 0.59367 0.0
O205 O 0.42908 0.63088 0.58081 0.0
O206 O 0.48565 0.65502 0.59434 0.0
O207 O 0.49136 0.60522 0.52898 0.0
O208 O 0.47402 0.53978 0.53138 0.0
O209 O 0.45148 0.56081 0.59861 0.0
C210 C 0.54087 0.5647 0.61205 0.0
C211 C 0.47495 0.57314 0.51651 0.0
Zn212 Zn 0.0075 0.59519 0.99793 0.0
Zn213 Zn 0.01997 0.53201 0.05299 0.0
C214 C 0.95042 0.55175 0.96297 0.0
O215 O 0.974 0.56957 0.93861 0.0
C216 C 0.0734 0.5848 0.08554 0.0
O217 O 0.04691 0.57466 0.10829 0.0
O218 O 0.0059 0.64376 0.96856 0.0
O219 O 0.00997 0.61189 0.04493 0.0
O220 O 0.98137 0.5533 0.07032 0.0
C221 C 0.98102 0.65764 0.97779 0.0
O222 O 0.96107 0.64081 0.00473 0.0
O223 O 0.95907 0.55654 0.99287 0.0
C224 C 0.04825 0.47089 0.0729 0.0
O225 O 0.06475 0.48489 0.04378 0.0
O226 O 0.02472 0.48582 0.08374 0.0
O227 O 0.01517 0.51356 0.00698 0.0
O228 O 0.04395 0.57079 0.97931 0.0
O229 O 0.06793 0.57215 0.05686 0.0
C230 C 0.98758 0.59081 0.06747 0.0
C231 C 0.03574 0.53301 0.98261 0.0
H232 H 0.13676 0.1857 0.26983 0.0
H233 H 0.11847 0.04747 0.43987 0.0
H234 H 0.22096 0.14045 0.30624 0.0
H235 H 0.04547 0.11477 0.41566 0.0
H236 H 0.15339 0.07614 0.38814 0.0
H237 H 0.10004 0.15487 0.32038 0.0
C238 C 0.14756 0.1693 0.28838 0.0
C239 C 0.1821 0.16574 0.28364 0.0
C240 C 0.12975 0.08467 0.39414 0.0
C241 C 0.13997 0.13001 0.34141 0.0
C242 C 0.10973 0.06826 0.42368 0.0
C243 C 0.079 0.0788 0.43222 0.0
C244 C 0.11889 0.11163 0.37275 0.0
C245 C 0.06905 0.10592 0.41019 0.0
C246 C 0.12652 0.15162 0.31719 0.0
C247 C 0.19435 0.14352 0.30839 0.0
N248 N 0.08889 0.12134 0.38143 0.0
N249 N 0.17334 0.12658 0.33614 0.0
H250 H 0.42814 0.84697 0.81928 0.0
H251 H 0.48531 0.01431 0.9483 0.0
H252 H 0.40135 0.95705 0.80935 0.0
H253 H 0.50402 0.89988 0.961 0.0
H254 H 0.45694 0.99565 0.89604 0.0
H255 H 0.45954 0.8681 0.86935 0.0
C256 C 0.42926 0.87583 0.82735 0.0
C257 C 0.41202 0.90023 0.81001 0.0
C258 C 0.46725 0.97465 0.9103 0.0
C259 C 0.44752 0.92442 0.86785 0.0
C260 C 0.48341 0.98528 0.94017 0.0
C261 C 0.49701 0.95862 0.95918 0.0
C262 C 0.46479 0.93715 0.89927 0.0
C263 C 0.49386 0.92142 0.94731 0.0
C264 C 0.44694 0.88775 0.85617 0.0
C265 C 0.41391 0.93706 0.8221 0.0
N266 N 0.47816 0.91185 0.9182 0.0
N267 N 0.43122 0.94798 0.85027 0.0
H268 H 0.59725 0.45588 0.79186 0.0
H269 H 0.55846 0.61718 0.66034 0.0
H270 H 0.59242 0.5708 0.81706 0.0
H271 H 0.55843 0.49965 0.63784 0.0
H272 H 0.57811 0.6042 0.71601 0.0
H273 H 0.59071 0.47505 0.7336 0.0
C274 C 0.59537 0.4854 0.78511 0.0
C275 C 0.59514 0.51165 0.80951 0.0
C276 C 0.5741 0.58141 0.69876 0.0
C277 C 0.58693 0.53358 0.74271 0.0
C278 C 0.56299 0.58885 0.66693 0.0
C279 C 0.55645 0.55932 0.64446 0.0
C280 C 0.57875 0.54423 0.70815 0.0
C281 C 0.56276 0.52316 0.65441 0.0
C282 C 0.59135 0.49624 0.7518 0.0
C283 C 0.59209 0.54933 0.7992 0.0
N284 N 0.57331 0.51657 0.68554 0.0
N285 N 0.58785 0.55906 0.76663 0.0
H286 H 0.84835 0.64293 0.21694 0.0
H287 H 0.98958 0.66908 0.06387 0.0
H288 H 0.86855 0.7378 0.13835 0.0
H289 H 0.94088 0.55647 0.1209 0.0
H290 H 0.95326 0.69916 0.09707 0.0
H291 H 0.89011 0.61536 0.18789 0.0
C292 C 0.86187 0.65813 0.19373 0.0
C293 C 0.85498 0.69258 0.17991 0.0
C294 C 0.95064 0.6679 0.10237 0.0
C295 C 0.90263 0.66136 0.14671 0.0
C296 C 0.97141 0.65067 0.08348 0.0
C297 C 0.96795 0.61 0.08931 0.0
C298 C 0.92659 0.6445 0.12762 0.0
C299 C 0.9442 0.58783 0.11533 0.0
C300 C 0.88548 0.64228 0.17711 0.0
C301 C 0.8729 0.71096 0.14964 0.0
N302 N 0.92436 0.60536 0.13352 0.0
N303 N 0.89597 0.69515 0.13406 0.0
H304 H 0.24261 0.11327 0.19614 0.0
H305 H 0.44922 0.14137 0.14949 0.0
H306 H 0.3264 0.22409 0.19932 0.0
H307 H 0.36449 0.03427 0.13569 0.0
H308 H 0.40468 0.1714 0.16928 0.0
H309 H 0.28683 0.08314 0.17535 0.0
C310 C 0.27031 0.13127 0.19248 0.0
C311 C 0.28077 0.1713 0.1995 0.0
C312 C 0.39579 0.14134 0.1619 0.0
C313 C 0.33159 0.13698 0.17563 0.0
C314 C 0.42125 0.1241 0.15066 0.0
C315 C 0.41063 0.08517 0.14088 0.0
C316 C 0.35934 0.11952 0.16358 0.0
C317 C 0.37394 0.06434 0.14292 0.0
C318 C 0.29553 0.11409 0.18048 0.0
C319 C 0.317 0.19329 0.19389 0.0
N320 N 0.34965 0.08174 0.15409 0.0
N321 N 0.34108 0.17581 0.18244 0.0
H322 H 0.24816 0.89697 0.66412 0.0
H323 H 0.11696 0.0325 0.64627 0.0
H324 H 0.2122 0.9519 0.74456 0.0
H325 H 0.14521 0.97409 0.56415 0.0
H326 H 0.15761 0.00866 0.68052 0.0
H327 H 0.21677 0.93035 0.62511 0.0
C328 C 0.23409 0.91646 0.67345 0.0
C329 C 0.23236 0.92133 0.70763 0.0
C330 C 0.15517 0.00111 0.65498 0.0
C331 C 0.19646 0.95932 0.66346 0.0
C332 C 0.13187 0.01476 0.63534 0.0
C333 C 0.12736 0.005 0.60233 0.0
C334 C 0.17415 0.97717 0.64176 0.0
C335 C 0.14776 0.9822 0.58953 0.0
C336 C 0.21605 0.9353 0.65127 0.0
C337 C 0.21371 0.94679 0.71848 0.0
N338 N 0.17007 0.96873 0.60937 0.0
N339 N 0.1964 0.96457 0.69657 0.0
H340 H 0.72653 0.4157 0.97448 0.0
H341 H 0.92103 0.54647 0.9022 0.0
H342 H 0.74675 0.47657 0.87581 0.0
H343 H 0.89539 0.5084 0.00658 0.0
H344 H 0.85869 0.51492 0.89058 0.0
H345 H 0.78966 0.44376 0.98516 0.0
C346 C 0.74437 0.43482 0.95498 0.0
C347 C 0.7315 0.44371 0.92414 0.0
C348 C 0.86674 0.51339 0.916 0.0
C349 C 0.80372 0.4761 0.93627 0.0
C350 C 0.90236 0.53121 0.92267 0.0
C351 C 0.91341 0.53017 0.95546 0.0
C352 C 0.84201 0.49412 0.94227 0.0
C353 C 0.88802 0.51003 0.98096 0.0
C354 C 0.78034 0.45099 0.96116 0.0
C355 C 0.75561 0.46917 0.89997 0.0
N356 N 0.85347 0.49282 0.97382 0.0
N357 N 0.79066 0.48439 0.9065 0.0
H358 H 0.7722 0.6837 0.40243 0.0
H359 H 0.5611 0.59159 0.4224 0.0
H360 H 0.70284 0.70167 0.3253 0.0
H361 H 0.62773 0.61445 0.50652 0.0
H362 H 0.61287 0.62747 0.38532 0.0
H363 H 0.71974 0.65315 0.4399 0.0
C364 C 0.74599 0.68147 0.39336 0.0
C365 C 0.74206 0.69555 0.3606 0.0
C366 C 0.61607 0.62492 0.41191 0.0
C367 C 0.6818 0.65983 0.40335 0.0
C368 C 0.5866 0.60444 0.43307 0.0
C369 C 0.59024 0.59999 0.46754 0.0
C370 C 0.64951 0.64046 0.4253 0.0
C371 C 0.62378 0.61733 0.48009 0.0
C372 C 0.71605 0.66392 0.4148 0.0
C373 C 0.70725 0.69082 0.35013 0.0
N374 N 0.65227 0.63646 0.45891 0.0
N375 N 0.67846 0.67325 0.37142 0.0
H376 H 0.18026 0.39768 0.21103 0.0
H377 H 0.07256 0.41202 0.05197 0.0
H378 H 0.1609 0.3085 0.14073 0.0
H379 H 0.05422 0.46574 0.14063 0.0
H380 H 0.10392 0.37277 0.08441 0.0
H381 H 0.13368 0.42266 0.18658 0.0
C382 C 0.16585 0.38308 0.1907 0.0
C383 C 0.17455 0.35117 0.1777 0.0
C384 C 0.09246 0.39253 0.09697 0.0
C385 C 0.12166 0.37983 0.14939 0.0
C386 C 0.07459 0.41493 0.07847 0.0
C387 C 0.06085 0.4421 0.0937 0.0
C388 C 0.09755 0.39814 0.13079 0.0
C389 C 0.06425 0.44489 0.12805 0.0
C390 C 0.13919 0.3972 0.17688 0.0
C391 C 0.15494 0.33311 0.15152 0.0
N392 N 0.08292 0.42375 0.14536 0.0
N393 N 0.12983 0.34812 0.13784 0.0
H394 H 0.57555 0.33774 0.95987 0.0
H395 H 0.60583 0.12519 0.99733 0.0
H396 H 0.66282 0.30492 0.91509 0.0
H397 H 0.51586 0.15689 0.03787 0.0
H398 H 0.62475 0.18896 0.96363 0.0
H399 H 0.55041 0.26954 0.98466 0.0
C400 C 0.58913 0.31605 0.9548 0.0
C401 C 0.62152 0.32716 0.93562 0.0
C402 C 0.60074 0.18182 0.97976 0.0
C403 C 0.59326 0.24915 0.96448 0.0
C404 C 0.58995 0.14541 0.99905 0.0
C405 C 0.55942 0.13576 0.02078 0.0
C406 C 0.58095 0.20885 0.98227 0.0
C407 C 0.53977 0.16311 0.02174 0.0
C408 C 0.5749 0.27714 0.96917 0.0
C409 C 0.63815 0.29783 0.93024 0.0
N410 N 0.55101 0.19846 1.00297 0.0
N411 N 0.624 0.26027 0.94483 0.0
H412 H 0.86644 0.83913 0.30743 0.0
H413 H 0.98288 0.88823 0.46733 0.0
H414 H 0.87072 0.7499 0.38488 0.0
H415 H 0.94482 0.97381 0.40946 0.0
H416 H 0.95455 0.83797 0.42971 0.0
H417 H 0.90894 0.8895 0.33674 0.0
C418 C 0.87702 0.83006 0.3302 0.0
C419 C 0.86495 0.79052 0.344 0.0
C420 C 0.95274 0.86788 0.42516 0.0
C421 C 0.91306 0.8477 0.37766 0.0
C422 C 0.96888 0.89653 0.44655 0.0
C423 C 0.96574 0.93504 0.44173 0.0
C424 C 0.93385 0.87809 0.39858 0.0
C425 C 0.94743 0.94429 0.41436 0.0
C426 C 0.90097 0.85878 0.34703 0.0
C427 C 0.87917 0.78025 0.3737 0.0
N428 N 0.93208 0.91598 0.39386 0.0
N429 N 0.90232 0.80876 0.38973 0.0
H430 H 0.33821 0.78346 0.70464 0.0
H431 H 0.49913 0.72188 0.62216 0.0
H432 H 0.44803 0.85727 0.70397 0.0
H433 H 0.38808 0.66785 0.60345 0.0
H434 H 0.48183 0.77108 0.65313 0.0
H435 H 0.35665 0.74027 0.66849 0.0
C436 C 0.36617 0.79108 0.69656 0.0
C437 C 0.39149 0.82447 0.70741 0.0
C438 C 0.46133 0.74862 0.642 0.0
C439 C 0.41303 0.77394 0.6664 0.0
C440 C 0.47118 0.72051 0.62432 0.0
C441 C 0.44503 0.69054 0.61023 0.0
C442 C 0.42505 0.74649 0.64591 0.0
C443 C 0.40922 0.69029 0.61386 0.0
C444 C 0.37673 0.76607 0.67603 0.0
C445 C 0.42753 0.83171 0.69669 0.0
N446 N 0.40031 0.71756 0.63151 0.0
N447 N 0.43723 0.80658 0.67695 0.0
H448 H 0.94572 0.9183 0.76887 0.0
H449 H 0.91773 0.98784 0.58268 0.0
H450 H 0.84132 0.88296 0.72789 0.0
H451 H 0.01354 0.9604 0.61147 0.0
H452 H 0.88983 0.9605 0.63817 0.0
H453 H 0.97193 0.94545 0.71336 0.0
C454 C 0.92822 0.91601 0.74834 0.0
C455 C 0.89113 0.89778 0.75333 0.0
C456 C 0.91691 0.96042 0.63215 0.0
C457 C 0.92114 0.93015 0.68976 0.0
C458 C 0.93283 0.97602 0.60062 0.0
C459 C 0.96792 0.9762 0.59243 0.0
C460 C 0.93658 0.9459 0.65581 0.0
C461 C 0.98633 0.96056 0.61661 0.0
C462 C 0.94327 0.93177 0.71667 0.0
C463 C 0.86992 0.8971 0.72561 0.0
N464 N 0.97057 0.9464 0.6473 0.0
N465 N 0.88521 0.91313 0.69506 0.0
H466 H 0.65295 0.22592 0.32647 0.0
H467 H 0.59822 0.07812 0.18245 0.0
H468 H 0.68266 0.11804 0.32308 0.0
H469 H 0.57175 0.18811 0.18426 0.0
H470 H 0.63278 0.0944 0.23181 0.0
H471 H 0.62611 0.21452 0.27266 0.0
C472 C 0.65394 0.1999 0.31436 0.0
C473 C 0.67004 0.17287 0.32944 0.0
C474 C 0.61964 0.11513 0.22125 0.0
C475 C 0.63936 0.15961 0.26765 0.0
C476 C 0.59994 0.10588 0.19299 0.0
C477 C 0.58182 0.13165 0.17923 0.0
C478 C 0.62116 0.15035 0.23601 0.0
C479 C 0.58511 0.16723 0.19402 0.0
C480 C 0.63873 0.19348 0.28355 0.0
C481 C 0.67091 0.13993 0.31231 0.0
N482 N 0.60412 0.17536 0.22169 0.0
N483 N 0.65559 0.13411 0.28251 0.0
H484 H 0.37437 0.61858 0.33441 0.0
H485 H 0.45703 0.51275 0.47587 0.0
H486 H 0.43217 0.5354 0.31373 0.0
H487 H 0.46095 0.63563 0.48036 0.0
H488 H 0.43702 0.51521 0.41927 0.0
H489 H 0.39696 0.62139 0.39049 0.0
C490 C 0.39204 0.60123 0.34133 0.0
C491 C 0.40101 0.57638 0.31909 0.0
C492 C 0.44226 0.54162 0.43267 0.0
C493 C 0.42583 0.57865 0.38364 0.0
C494 C 0.45347 0.54023 0.46506 0.0
C495 C 0.46091 0.57415 0.48285 0.0
C496 C 0.43756 0.57686 0.41809 0.0
C497 C 0.45575 0.60889 0.46743 0.0
C498 C 0.4047 0.60274 0.37345 0.0
C499 C 0.42357 0.55413 0.33005 0.0
N500 N 0.44412 0.60932 0.43591 0.0
N501 N 0.4348 0.55544 0.36159 0.0
H502 H 0.09976 0.42699 0.81347 0.0
H503 H 0.03299 0.45509 0.99051 0.0
H504 H 0.1275 0.36805 0.90184 0.0
H505 H 0.07214 0.55987 0.92148 0.0
H506 H 0.05924 0.41859 0.95396 0.0
H507 H 0.08375 0.4739 0.84833 0.0
C508 C 0.1031 0.42425 0.84001 0.0
C509 C 0.11431 0.3929 0.8548 0.0
C510 C 0.0623 0.44965 0.9469 0.0
C511 C 0.09525 0.44571 0.8945 0.0
C512 C 0.04726 0.47061 0.96772 0.0
C513 C 0.05085 0.51092 0.95937 0.0
C514 C 0.08024 0.46857 0.91689 0.0
C515 C 0.06908 0.52896 0.92903 0.0
C516 C 0.09384 0.45095 0.85981 0.0
C517 C 0.11787 0.39081 0.88939 0.0
N518 N 0.08289 0.50749 0.90858 0.0
N519 N 0.10775 0.41633 0.90809 0.0
H520 H 0.68957 0.83646 0.92154 0.0
H521 H 0.67075 0.04624 0.96069 0.0
H522 H 0.76272 0.94727 0.87882 0.0
H523 H 0.61651 0.93715 0.02028 0.0
H524 H 0.70676 0.01135 0.93226 0.0
H525 H 0.66442 0.873 0.95971 0.0
C526 C 0.70059 0.86851 0.9205 0.0
C527 C 0.72808 0.88893 0.89687 0.0
C528 C 0.68733 0.99517 0.95187 0.0
C529 C 0.69915 0.93108 0.9402 0.0
C530 C 0.66672 0.01507 0.96811 0.0
C531 C 0.64035 0.99454 0.99275 0.0
C532 C 0.68122 0.95428 0.95998 0.0
C533 C 0.63645 0.95419 1.0014 0.0
C534 C 0.68629 0.88937 0.94233 0.0
C535 C 0.7416 0.93042 0.89674 0.0
N536 N 0.65629 0.93528 0.98473 0.0
N537 N 0.72665 0.95021 0.91773 0.0
H538 H 0.73953 0.12849 0.46024 0.0
H539 H 0.93233 0.12124 0.39706 0.0
H540 H 0.7916 0.18725 0.36647 0.0
H541 H 0.88906 0.08536 0.49805 0.0
H542 H 0.88055 0.14402 0.38463 0.0
H543 H 0.79339 0.11082 0.47373 0.0
C544 C 0.76237 0.13809 0.44256 0.0
C545 C 0.76088 0.15968 0.41217 0.0
C546 C 0.88249 0.13138 0.40956 0.0
C547 C 0.82272 0.13862 0.42734 0.0
C548 C 0.91206 0.11834 0.4167 0.0
C549 C 0.91507 0.10124 0.44865 0.0
C550 C 0.85546 0.12698 0.43445 0.0
C551 C 0.88794 0.09835 0.47307 0.0
C552 C 0.79312 0.12773 0.45026 0.0
C553 C 0.7912 0.17022 0.39001 0.0
N554 N 0.85921 0.11081 0.4654 0.0
N555 N 0.82079 0.15952 0.39799 0.0
H556 H 0.28431 0.59984 0.14315 0.0
H557 H 0.09355 0.63215 0.13616 0.0
H558 H 0.25966 0.69436 0.19101 0.0
H559 H 0.13606 0.57851 0.05863 0.0
H560 H 0.15291 0.65315 0.15874 0.0
H561 H 0.22808 0.5877 0.11471 0.0
C562 C 0.2669 0.61786 0.14775 0.0
C563 C 0.27637 0.64797 0.16951 0.0
C564 C 0.14935 0.63732 0.13649 0.0
C565 C 0.21239 0.63444 0.13715 0.0
C566 C 0.11555 0.62539 0.12359 0.0
C567 C 0.10998 0.60357 0.09555 0.0
C568 C 0.1775 0.62651 0.12166 0.0
C569 C 0.13931 0.5955 0.0802 0.0
C570 C 0.23509 0.61123 0.1313 0.0
C571 C 0.25323 0.6709 0.17434 0.0
N572 N 0.17176 0.60642 0.09379 0.0
N573 N 0.22208 0.66342 0.1585 0.0
H574 H 0.22029 0.42528 0.64874 0.0
H575 H 0.42147 0.52834 0.69482 0.0
H576 H 0.26002 0.39867 0.74374 0.0
H577 H 0.38681 0.52016 0.59417 0.0
H578 H 0.36142 0.48715 0.71532 0.0
H579 H 0.28005 0.46794 0.63067 0.0
C580 C 0.24159 0.42845 0.66584 0.0
C581 C 0.23518 0.40795 0.69767 0.0
C582 C 0.36713 0.49431 0.68877 0.0
C583 C 0.30372 0.45715 0.67719 0.0
C584 C 0.40133 0.51775 0.67705 0.0
C585 C 0.40915 0.52767 0.64273 0.0
C586 C 0.34056 0.48126 0.666 0.0
C587 C 0.38206 0.51317 0.62081 0.0
C588 C 0.2757 0.45284 0.6555 0.0
C589 C 0.26367 0.41404 0.71905 0.0
N590 N 0.34895 0.49093 0.63284 0.0
N591 N 0.2968 0.43801 0.70837 0.0
H592 H 0.88105 0.83372 0.90712 0.0
H593 H 1.00063 0.68465 0.91216 0.0
H594 H 0.91972 0.79396 0.81887 0.0
H595 H 0.94029 0.70313 0.99737 0.0
H596 H 0.97929 0.73287 0.87829 0.0
H597 H 0.91009 0.79344 0.94123 0.0
C598 C 0.89563 0.81658 0.89488 0.0
C599 C 0.89773 0.81721 0.86 0.0
C600 C 0.97098 0.72653 0.90447 0.0
C601 C 0.93153 0.77135 0.89899 0.0
C602 C 0.98331 0.69922 0.92383 0.0
C603 C 0.97201 0.68968 0.95756 0.0
C604 C 0.9475 0.74463 0.91908 0.0
C605 C 0.94942 0.70931 0.97138 0.0
C606 C 0.91238 0.79373 0.91438 0.0
C607 C 0.91768 0.7949 0.8456 0.0
N608 N 0.93785 0.73571 0.9521 0.0
N609 N 0.93368 0.77282 0.86513 0.0
H610 H 0.43622 0.7257 0.17206 0.0
H611 H 0.45037 0.95692 0.15731 0.0
H612 H 0.35483 0.77247 0.2108 0.0
H613 H 0.51546 0.90652 0.09666 0.0
H614 H 0.42199 0.89111 0.18568 0.0
H615 H 0.47296 0.79373 0.15372 0.0
C616 C 0.42652 0.75041 0.17737 0.0
C617 C 0.39247 0.74368 0.19273 0.0
C618 C 0.44261 0.89452 0.16627 0.0
C619 C 0.43387 0.82109 0.1716 0.0
C620 C 0.45884 0.93209 0.15003 0.0
C621 C 0.48514 0.93725 0.1243 0.0
C622 C 0.45284 0.86184 0.15692 0.0
C623 C 0.49507 0.90391 0.1161 0.0
C624 C 0.44727 0.7891 0.16664 0.0
C625 C 0.38087 0.77655 0.19876 0.0
N626 N 0.47883 0.86758 0.1323 0.0
N627 N 0.40143 0.81385 0.18798 0.0
H628 H 0.14791 0.33739 0.62407 0.0
H629 H 0.04353 0.11163 0.59829 0.0
H630 H 0.11176 0.24483 0.70475 0.0
H631 H 0.12116 0.18743 0.525 0.0
H632 H 0.05479 0.16631 0.63411 0.0
H633 H 0.12545 0.28773 0.58445 0.0
C634 C 0.13516 0.3068 0.63356 0.0
C635 C 0.13215 0.29539 0.66796 0.0
C636 C 0.06901 0.17104 0.61 0.0
C637 C 0.10552 0.23887 0.62269 0.0
C638 C 0.06251 0.13997 0.58946 0.0
C639 C 0.0818 0.14488 0.55877 0.0
C640 C 0.09462 0.20741 0.59963 0.0
C641 C 0.10602 0.18228 0.54863 0.0
C642 C 0.12218 0.27861 0.61089 0.0
C643 C 0.11441 0.25539 0.67864 0.0
N644 N 0.11192 0.21215 0.56913 0.0
N645 N 0.10189 0.22862 0.6561 0.0
H646 H 0.66159 0.31175 0.46353 0.0
H647 H 0.50981 0.40692 0.52131 0.0
H648 H 0.55293 0.24208 0.49196 0.0
H649 H 0.62264 0.47041 0.51298 0.0
H650 H 0.5234 0.34796 0.50331 0.0
H651 H 0.64581 0.37217 0.47332 0.0
C652 C 0.63428 0.30922 0.47131 0.0
C653 C 0.60861 0.2718 0.47716 0.0
C654 C 0.54513 0.37487 0.50534 0.0
C655 C 0.59042 0.34077 0.48881 0.0
C656 C 0.53739 0.40852 0.5156 0.0
C657 C 0.56513 0.44358 0.51894 0.0
C658 C 0.58084 0.37641 0.49807 0.0
C659 C 0.60039 0.44396 0.51107 0.0
C660 C 0.62534 0.34368 0.47719 0.0
C661 C 0.57368 0.2703 0.48759 0.0
N662 N 0.60721 0.41095 0.50106 0.0
N663 N 0.56565 0.30422 0.49321 0.0
loop_
_geom_bond_atom_site_label_1
_geom_bond_atom_site_label_2
_geom_bond_distance
_geom_bond_site_symmetry_2
_ccdc_geom_bond_type
H0 C1 0.949 . S
C1 H0 0.949 . S
C1 C2 1.395 . S
C1 C3 1.391 . S
C2 C1 1.395 . S
C2 C5 1.390 . S
C3 C1 1.391 . S
C3 C7 1.387 . S
C3 C8 1.491 . S
H4 C5 0.950 . S
C5 C2 1.390 . S
C5 H4 0.950 . S
C5 C6 1.378 . S
C6 C5 1.378 . S
C6 C7 1.409 . S
C7 C3 1.387 . S
C7 C6 1.409 . S
C7 H9 0.951 . S
C8 C3 1.491 . S
C8 C10 1.382 . S
C8 C12 1.404 . S
H9 C7 0.951 . S
C10 C8 1.382 . S
C10 C11 1.390 . S
C10 H15 0.949 . S
C11 C10 1.390 . S
C11 C16 1.399 . S
C12 C8 1.404 . S
C12 H13 0.950 . S
C12 C14 1.375 . S
H13 C12 0.950 . S
C14 C12 1.375 . S
C14 C16 1.382 . S
C14 H18 0.950 . S
H15 C10 0.949 . S
C16 C11 1.399 . S
C16 C14 1.382 . S
C16 H17 0.952 . S
H17 C16 0.952 . S
H18 C14 0.950 . S
H19 C20 0.949 . S
C20 H19 0.949 . S
C20 C21 1.395 . S
C20 C22 1.391 . S
C21 C20 1.395 . S
C21 C24 1.390 . S
C22 C20 1.391 . S
C22 C26 1.387 . S
C22 C27 1.491 . S
H23 C24 0.950 . S
C24 C21 1.390 . S
C24 H23 0.950 . S
C24 C25 1.378 . S
C25 C24 1.378 . S
C25 C26 1.409 . S
C26 C22 1.387 . S
C26 C25 1.409 . S
C26 H28 0.951 . S
C27 C22 1.491 . S
C27 C29 1.382 . S
C27 C31 1.404 . S
H28 C26 0.951 . S
C29 C27 1.382 . S
C29 C30 1.390 . S
C29 H34 0.949 . S
C30 C29 1.390 . S
C30 C35 1.399 . S
C31 C27 1.404 . S
C31 H32 0.950 . S
C31 C33 1.375 . S
H32 C31 0.950 . S
C33 C31 1.375 . S
C33 C35 1.382 . S
C33 H37 0.950 . S
H34 C29 0.949 . S
C35 C30 1.399 . S
C35 C33 1.382 . S
C35 H36 0.952 . S
H36 C35 0.952 . S
H37 C33 0.950 . S
H38 C39 0.949 . S
C39 H38 0.949 . S
C39 C40 1.395 . S
C39 C41 1.391 . S
C40 C39 1.395 . S
C40 C43 1.390 . S
C41 C39 1.391 . S
C41 C45 1.387 . S
C41 C46 1.491 . S
H42 C43 0.950 . S
C43 C40 1.390 . S
C43 H42 0.950 . S
C43 C44 1.378 . S
C44 C43 1.378 . S
C44 C45 1.409 . S
C45 C41 1.387 . S
C45 C44 1.409 . S
C45 H47 0.951 . S
C46 C41 1.491 . S
C46 C48 1.382 . S
C46 C50 1.404 . S
H47 C45 0.951 . S
C48 C46 1.382 . S
C48 C49 1.390 . S
C48 H53 0.949 . S
C49 C48 1.390 . S
C49 C54 1.399 . S
C50 C46 1.404 . S
C50 H51 0.950 . S
C50 C52 1.375 . S
H51 C50 0.950 . S
C52 C50 1.375 . S
C52 C54 1.382 . S
C52 H56 0.950 . S
H53 C48 0.949 . S
C54 C49 1.399 . S
C54 C52 1.382 . S
C54 H55 0.952 . S
H55 C54 0.952 . S
H56 C52 0.950 . S
H57 C58 0.949 . S
C58 H57 0.949 . S
C58 C59 1.395 . S
C58 C60 1.391 . S
C59 C58 1.395 . S
C59 C62 1.390 . S
C60 C58 1.391 . S
C60 C64 1.387 . S
C60 C65 1.491 . S
H61 C62 0.950 . S
C62 C59 1.390 . S
C62 H61 0.950 . S
C62 C63 1.378 . S
C63 C62 1.378 . S
C63 C64 1.409 . S
C64 C60 1.387 . S
C64 C63 1.409 . S
C64 H66 0.951 . S
C65 C60 1.491 . S
C65 C67 1.382 . S
C65 C69 1.404 . S
H66 C64 0.951 . S
C67 C65 1.382 . S
C67 C68 1.390 . S
C67 H72 0.949 . S
C68 C67 1.390 . S
C68 C73 1.399 . S
C69 C65 1.404 . S
C69 H70 0.950 . S
C69 C71 1.375 . S
H70 C69 0.950 . S
C71 C69 1.375 . S
C71 C73 1.382 . S
C71 H75 0.950 . S
H72 C67 0.949 . S
C73 C68 1.399 . S
C73 C71 1.382 . S
C73 H74 0.952 . S
H74 C73 0.952 . S
H75 C71 0.950 . S
H76 C77 0.949 . S
C77 H76 0.949 . S
C77 C78 1.395 . S
C77 C79 1.391 . S
C78 C77 1.395 . S
C78 C81 1.390 . S
C79 C77 1.391 . S
C79 C83 1.387 . S
C79 C84 1.491 . S
H80 C81 0.950 . S
C81 C78 1.390 . S
C81 H80 0.950 . S
C81 C82 1.378 . S
C82 C81 1.378 . S
C82 C83 1.409 . S
C83 C79 1.387 . S
C83 C82 1.409 . S
C83 H85 0.951 . S
C84 C79 1.491 . S
C84 C86 1.382 . S
C84 C88 1.404 . S
H85 C83 0.951 . S
C86 C84 1.382 . S
C86 C87 1.390 . S
C86 H91 0.949 . S
C87 C86 1.390 . S
C87 C92 1.399 . S
C88 C84 1.404 . S
C88 H89 0.950 . S
C88 C90 1.375 . S
H89 C88 0.950 . S
C90 C88 1.375 . S
C90 C92 1.382 . S
C90 H94 0.950 . S
H91 C86 0.949 . S
C92 C87 1.399 . S
C92 C90 1.382 . S
C92 H93 0.952 . S
H93 C92 0.952 . S
H94 C90 0.950 . S
H95 C96 0.949 . S
C96 H95 0.949 . S
C96 C97 1.395 . S
C96 C98 1.391 . S
C97 C96 1.395 . S
C97 C100 1.390 . S
C98 C96 1.391 . S
C98 C102 1.387 . S
C98 C103 1.491 . S
H99 C100 0.950 . S
C100 C97 1.390 . S
C100 H99 0.950 . S
C100 C101 1.378 . S
C101 C100 1.378 . S
C101 C102 1.409 . S
C102 C98 1.387 . S
C102 C101 1.409 . S
C102 H104 0.951 . S
C103 C98 1.491 . S
C103 C105 1.382 . S
C103 C107 1.404 . S
H104 C102 0.951 . S
C105 C103 1.382 . S
C105 C106 1.390 . S
C105 H110 0.949 . S
C106 C105 1.390 . S
C106 C111 1.399 . S
C107 C103 1.404 . S
C107 H108 0.950 . S
C107 C109 1.375 . S
H108 C107 0.950 . S
C109 C107 1.375 . S
C109 C111 1.382 . S
C109 H113 0.950 . S
H110 C105 0.949 . S
C111 C106 1.399 . S
C111 C109 1.382 . S
C111 H112 0.952 . S
H112 C111 0.952 . S
H113 C109 0.950 . S
H114 C115 0.949 . S
C115 H114 0.949 . S
C115 C116 1.395 . S
C115 C117 1.391 . S
C116 C115 1.395 . S
C116 C119 1.390 . S
C117 C115 1.391 . S
C117 C121 1.387 . S
C117 C122 1.491 . S
H118 C119 0.950 . S
C119 C116 1.390 . S
C119 H118 0.950 . S
C119 C120 1.378 . S
C120 C119 1.378 . S
C120 C121 1.409 . S
C121 C117 1.387 . S
C121 C120 1.409 . S
C121 H123 0.951 . S
C122 C117 1.491 . S
C122 C124 1.382 . S
C122 C126 1.404 . S
H123 C121 0.951 . S
C124 C122 1.382 . S
C124 C125 1.390 . S
C124 H129 0.949 . S
C125 C124 1.390 . S
C125 C130 1.399 . S
C126 C122 1.404 . S
C126 H127 0.950 . S
C126 C128 1.375 . S
H127 C126 0.950 . S
C128 C126 1.375 . S
C128 C130 1.382 . S
C128 H132 0.950 . S
H129 C124 0.949 . S
C130 C125 1.399 . S
C130 C128 1.382 . S
C130 H131 0.952 . S
H131 C130 0.952 . S
H132 C128 0.950 . S
H133 C134 0.949 . S
C134 H133 0.949 . S
C134 C135 1.395 . S
C134 C136 1.391 . S
C135 C134 1.395 . S
C135 C138 1.390 . S
C136 C134 1.391 . S
C136 C140 1.387 . S
C136 C141 1.491 . S
H137 C138 0.950 . S
C138 C135 1.390 . S
C138 H137 0.950 . S
C138 C139 1.378 . S
C139 C138 1.378 . S
C139 C140 1.409 . S
C140 C136 1.387 . S
C140 C139 1.409 . S
C140 H142 0.951 . S
C141 C136 1.491 . S
C141 C143 1.382 . S
C141 C145 1.404 . S
H142 C140 0.951 . S
C143 C141 1.382 . S
C143 C144 1.390 . S
C143 H148 0.949 . S
C144 C143 1.390 . S
C144 C149 1.399 . S
C145 C141 1.404 . S
C145 H146 0.950 . S
C145 C147 1.375 . S
H146 C145 0.950 . S
C147 C145 1.375 . S
C147 C149 1.382 . S
C147 H151 0.950 . S
H148 C143 0.949 . S
C149 C144 1.399 . S
C149 C147 1.382 . S
C149 H150 0.952 . S
H150 C149 0.952 . S
H151 C147 0.950 . S
Zn152 O158 1.969 . S
Zn152 O159 1.957 1_545 S
Zn152 O163 2.024 . S
Zn152 O168 1.969 . S
Zn153 O160 1.969 1_545 S
Zn153 O166 1.969 . S
Zn153 O167 1.965 1_655 S
Zn153 O169 2.024 1_545 S
C154 O155 1.229 . S
C154 O163 1.058 . S
O155 C154 1.229 . S
C156 O157 1.229 . S
C156 O169 1.058 . S
O157 C156 1.229 . S
O158 Zn152 1.969 . S
O158 C161 1.267 1_545 S
O159 Zn152 1.957 1_565 S
O159 C170 1.258 1_455 S
O160 Zn153 1.969 1_565 S
O160 C170 1.258 . S
C161 O158 1.267 1_565 S
C161 O162 1.228 1_565 S
O162 C161 1.228 1_545 S
O163 Zn152 2.024 . S
O163 C154 1.058 . S
C164 O165 1.228 . S
C164 O166 1.267 . S
O165 C164 1.228 . S
O166 Zn153 1.969 . S
O166 C164 1.267 . S
O167 Zn153 1.965 1_455 S
O167 C171 1.260 . S
O168 Zn152 1.969 . S
O168 C171 1.258 . S
O169 Zn153 2.024 1_565 S
O169 C156 1.058 . S
C170 O159 1.258 1_655 S
C170 O160 1.258 . S
C171 O167 1.260 . S
C171 O168 1.258 . S
Zn172 O178 1.969 . S
Zn172 O179 1.965 1_565 S
Zn172 O183 2.024 1_554 S
Zn172 O188 1.969 . S
Zn173 O180 1.969 . S
Zn173 O186 1.969 . S
Zn173 O187 1.965 . S
Zn173 O189 2.024 . S
C174 O175 1.229 . S
C174 O183 1.058 . S
O175 C174 1.229 . S
C176 O177 1.229 . S
C176 O189 1.058 . S
O177 C176 1.229 . S
O178 Zn172 1.969 . S
O178 C181 1.267 . S
O179 Zn172 1.965 1_545 S
O179 C190 1.260 . S
O180 Zn173 1.969 . S
O180 C190 1.258 . S
C181 O178 1.267 . S
C181 O182 1.228 1_554 S
O182 C181 1.228 1_556 S
O183 Zn172 2.024 1_556 S
O183 C174 1.058 . S
C184 O185 1.228 . S
C184 O186 1.267 . S
O185 C184 1.228 . S
O186 Zn173 1.969 . S
O186 C184 1.267 . S
O187 Zn173 1.965 . S
O187 C191 1.260 1_545 S
O188 Zn172 1.969 . S
O188 C191 1.258 . S
O189 Zn173 2.024 . S
O189 C176 1.058 . S
C190 O179 1.260 . S
C190 O180 1.258 . S
C191 O187 1.260 1_565 S
C191 O188 1.258 . S
Zn192 O198 1.969 . S
Zn192 O199 1.965 . S
Zn192 O203 2.024 . S
Zn192 O208 1.969 . S
Zn193 O200 1.969 . S
Zn193 O206 1.969 . S
Zn193 O207 1.965 . S
Zn193 O209 2.024 . S
C194 O195 1.229 . S
C194 O203 1.058 . S
O195 C194 1.229 . S
C196 O197 1.229 . S
C196 O209 1.058 . S
O197 C196 1.229 . S
O198 Zn192 1.969 . S
O198 C201 1.267 . S
O199 Zn192 1.965 . S
O199 C210 1.260 . S
O200 Zn193 1.969 . S
O200 C210 1.258 . S
C201 O198 1.267 . S
C201 O202 1.228 . S
O202 C201 1.228 . S
O203 Zn192 2.024 . S
O203 C194 1.058 . S
C204 O205 1.228 . S
C204 O206 1.267 . S
O205 C204 1.228 . S
O206 Zn193 1.969 . S
O206 C204 1.267 . S
O207 Zn193 1.965 . S
O207 C211 1.260 . S
O208 Zn192 1.969 . S
O208 C211 1.258 . S
O209 Zn193 2.024 . S
O209 C196 1.058 . S
C210 O199 1.260 . S
C210 O200 1.258 . S
C211 O207 1.260 . S
C211 O208 1.258 . S
Zn212 O218 1.969 1_655 S
Zn212 O219 1.965 1_656 S
Zn212 O223 2.024 . S
Zn212 O228 1.969 1_655 S
Zn213 O220 1.969 . S
Zn213 O226 1.969 . S
Zn213 O227 1.962 . S
Zn213 O229 2.024 . S
C214 O215 1.229 . S
C214 O223 1.058 . S
O215 C214 1.229 . S
C216 O217 1.229 . S
C216 O229 1.058 . S
O217 C216 1.229 . S
O218 Zn212 1.969 1_455 S
O218 C221 1.267 1_455 S
O219 Zn212 1.965 1_454 S
O219 C230 1.260 . S
O220 Zn213 1.969 . S
O220 C230 1.258 . S
C221 O218 1.267 1_655 S
C221 O222 1.228 . S
O222 C221 1.228 . S
O223 Zn212 2.024 . S
O223 C214 1.058 . S
C224 O225 1.228 . S
C224 O226 1.267 . S
O225 C224 1.228 . S
O226 Zn213 1.969 . S
O226 C224 1.267 . S
O227 Zn213 1.962 . S
O227 C231 1.263 1_554 S
O228 Zn212 1.969 1_455 S
O228 C231 1.258 . S
O229 Zn213 2.024 . S
O229 C216 1.058 . S
C230 O219 1.260 . S
C230 O220 1.258 . S
C231 O227 1.263 1_556 S
C231 O228 1.258 . S
H232 C238 0.930 . S
H233 C242 0.930 . S
H234 C247 0.929 . S
H235 C245 0.929 . S
H236 C240 0.929 . S
H237 C246 0.929 . S
C238 H232 0.930 . S
C238 C239 1.367 . S
C238 C246 1.378 . S
C239 C238 1.367 . S
C239 C247 1.433 . S
C240 H236 0.929 . S
C240 C242 1.378 . S
C240 C244 1.350 . S
C241 C244 1.463 . S
C241 C246 1.350 . S
C241 N249 1.427 . S
C242 H233 0.930 . S
C242 C240 1.378 . S
C242 C243 1.367 . S
C243 C242 1.367 . S
C243 C245 1.433 . S
C244 C240 1.350 . S
C244 C241 1.463 . S
C244 N248 1.427 . S
C245 H235 0.929 . S
C245 C243 1.433 . S
C245 N248 1.384 . S
C246 H237 0.929 . S
C246 C238 1.378 . S
C246 C241 1.350 . S
C247 H234 0.929 . S
C247 C239 1.433 . S
C247 N249 1.384 . S
N248 C244 1.427 . S
N248 C245 1.384 . S
N249 C241 1.427 . S
N249 C247 1.384 . S
H250 C256 0.930 . S
H251 C260 0.944 . S
H252 C265 0.929 . S
H253 C263 0.929 . S
H254 C258 0.929 . S
H255 C264 0.929 . S
C256 H250 0.930 . S
C256 C257 1.367 . S
C256 C264 1.378 . S
C257 C256 1.367 . S
C257 C265 1.433 . S
C258 H254 0.929 . S
C258 C260 1.378 . S
C258 C262 1.350 . S
C259 C262 1.463 . S
C259 C264 1.350 . S
C259 N267 1.427 . S
C260 H251 0.944 . S
C260 C258 1.378 . S
C260 C261 1.367 . S
C261 C260 1.367 . S
C261 C263 1.433 . S
C262 C258 1.350 . S
C262 C259 1.463 . S
C262 N266 1.427 . S
C263 H253 0.929 . S
C263 C261 1.433 . S
C263 N266 1.384 . S
C264 H255 0.929 . S
C264 C256 1.378 . S
C264 C259 1.350 . S
C265 H252 0.929 . S
C265 C257 1.433 . S
C265 N267 1.384 . S
N266 C262 1.427 . S
N266 C263 1.384 . S
N267 C259 1.427 . S
N267 C265 1.384 . S
H268 C274 0.930 . S
H269 C278 0.930 . S
H270 C283 0.929 . S
H271 C281 0.929 . S
H272 C276 0.929 . S
H273 C282 0.929 . S
C274 H268 0.930 . S
C274 C275 1.367 . S
C274 C282 1.378 . S
C275 C274 1.367 . S
C275 C283 1.433 . S
C276 H272 0.929 . S
C276 C278 1.378 . S
C276 C280 1.350 . S
C277 C280 1.463 . S
C277 C282 1.350 . S
C277 N285 1.427 . S
C278 H269 0.930 . S
C278 C276 1.378 . S
C278 C279 1.367 . S
C279 C278 1.367 . S
C279 C281 1.433 . S
C280 C276 1.350 . S
C280 C277 1.463 . S
C280 N284 1.427 . S
C281 H271 0.929 . S
C281 C279 1.433 . S
C281 N284 1.384 . S
C282 H273 0.929 . S
C282 C274 1.378 . S
C282 C277 1.350 . S
C283 H270 0.929 . S
C283 C275 1.433 . S
C283 N285 1.384 . S
N284 C280 1.427 . S
N284 C281 1.384 . S
N285 C277 1.427 . S
N285 C283 1.384 . S
H286 C292 0.930 . S
H287 C296 0.930 . S
H288 C301 0.929 . S
H289 C299 0.929 . S
H290 C294 0.929 . S
H291 C300 0.929 . S
C292 H286 0.930 . S
C292 C293 1.367 . S
C292 C300 1.378 . S
C293 C292 1.367 . S
C293 C301 1.433 . S
C294 H290 0.929 . S
C294 C296 1.378 . S
C294 C298 1.350 . S
C295 C298 1.463 . S
C295 C300 1.350 . S
C295 N303 1.427 . S
C296 H287 0.930 . S
C296 C294 1.378 . S
C296 C297 1.367 . S
C297 C296 1.367 . S
C297 C299 1.433 . S
C298 C294 1.350 . S
C298 C295 1.463 . S
C298 N302 1.427 . S
C299 H289 0.929 . S
C299 C297 1.433 . S
C299 N302 1.384 . S
C300 H291 0.929 . S
C300 C292 1.378 . S
C300 C295 1.350 . S
C301 H288 0.929 . S
C301 C293 1.433 . S
C301 N303 1.384 . S
N302 C298 1.427 . S
N302 C299 1.384 . S
N303 C295 1.427 . S
N303 C301 1.384 . S
H304 C310 0.930 . S
H305 C314 0.930 . S
H306 C319 0.929 . S
H307 C317 0.929 . S
H308 C312 0.929 . S
H309 C318 0.929 . S
C310 H304 0.930 . S
C310 C311 1.367 . S
C310 C318 1.378 . S
C311 C310 1.367 . S
C311 C319 1.433 . S
C312 H308 0.929 . S
C312 C314 1.378 . S
C312 C316 1.350 . S
C313 C316 1.463 . S
C313 C318 1.350 . S
C313 N321 1.427 . S
C314 H305 0.930 . S
C314 C312 1.378 . S
C314 C315 1.367 . S
C315 C314 1.367 . S
C315 C317 1.433 . S
C316 C312 1.350 . S
C316 C313 1.463 . S
C316 N320 1.427 . S
C317 H307 0.929 . S
C317 C315 1.433 . S
C317 N320 1.384 . S
C318 H309 0.929 . S
C318 C310 1.378 . S
C318 C313 1.350 . S
C319 H306 0.929 . S
C319 C311 1.433 . S
C319 N321 1.384 . S
N320 C316 1.427 . S
N320 C317 1.384 . S
N321 C313 1.427 . S
N321 C319 1.384 . S
H322 C328 0.930 . S
H323 C332 0.930 . S
H324 C337 0.929 . S
H325 C335 0.929 1_545 S
H326 C330 0.929 . S
H327 C336 0.929 . S
C328 H322 0.930 . S
C328 C329 1.367 . S
C328 C336 1.378 . S
C329 C328 1.367 . S
C329 C337 1.433 . S
C330 H326 0.929 . S
C330 C332 1.378 . S
C330 C334 1.350 . S
C331 C334 1.463 . S
C331 C336 1.350 . S
C331 N339 1.427 . S
C332 H323 0.930 . S
C332 C330 1.378 . S
C332 C333 1.367 . S
C333 C332 1.367 . S
C333 C335 1.433 . S
C334 C330 1.350 . S
C334 C331 1.463 . S
C334 N338 1.427 . S
C335 H325 0.929 1_565 S
C335 C333 1.433 . S
C335 N338 1.384 . S
C336 H327 0.929 . S
C336 C328 1.378 . S
C336 C331 1.350 . S
C337 H324 0.929 . S
C337 C329 1.433 . S
C337 N339 1.384 . S
N338 C334 1.427 . S
N338 C335 1.384 . S
N339 C331 1.427 . S
N339 C337 1.384 . S
H340 C346 0.930 . S
H341 C350 0.930 . S
H342 C355 0.929 . S
H343 C353 0.929 . S
H344 C348 0.929 . S
H345 C354 0.929 . S
C346 H340 0.930 . S
C346 C347 1.367 . S
C346 C354 1.378 . S
C347 C346 1.367 . S
C347 C355 1.433 . S
C348 H344 0.929 . S
C348 C350 1.378 . S
C348 C352 1.350 . S
C349 C352 1.463 . S
C349 C354 1.350 . S
C349 N357 1.427 . S
C350 H341 0.930 . S
C350 C348 1.378 . S
C350 C351 1.367 . S
C351 C350 1.367 . S
C351 C353 1.433 . S
C352 C348 1.350 . S
C352 C349 1.463 . S
C352 N356 1.427 . S
C353 H343 0.929 . S
C353 C351 1.433 . S
C353 N356 1.384 . S
C354 H345 0.929 . S
C354 C346 1.378 . S
C354 C349 1.350 . S
C355 H342 0.929 . S
C355 C347 1.433 . S
C355 N357 1.384 . S
N356 C352 1.427 . S
N356 C353 1.384 . S
N357 C349 1.427 . S
N357 C355 1.384 . S
H358 C364 0.930 . S
H359 C368 0.930 . S
H360 C373 0.929 . S
H361 C371 0.929 . S
H362 C366 0.929 . S
H363 C372 0.929 . S
C364 H358 0.930 . S
C364 C365 1.367 . S
C364 C372 1.378 . S
C365 C364 1.367 . S
C365 C373 1.433 . S
C366 H362 0.929 . S
C366 C368 1.378 . S
C366 C370 1.350 . S
C367 C370 1.463 . S
C367 C372 1.350 . S
C367 N375 1.427 . S
C368 H359 0.930 . S
C368 C366 1.378 . S
C368 C369 1.367 . S
C369 C368 1.367 . S
C369 C371 1.433 . S
C370 C366 1.350 . S
C370 C367 1.463 . S
C370 N374 1.427 . S
C371 H361 0.929 . S
C371 C369 1.433 . S
C371 N374 1.384 . S
C372 H363 0.929 . S
C372 C364 1.378 . S
C372 C367 1.350 . S
C373 H360 0.929 . S
C373 C365 1.433 . S
C373 N375 1.384 . S
N374 C370 1.427 . S
N374 C371 1.384 . S
N375 C367 1.427 . S
N375 C373 1.384 . S
H376 C382 0.930 . S
H377 C386 0.930 . S
H378 C391 0.929 . S
H379 C389 0.929 . S
H380 C384 0.929 . S
H381 C390 0.929 . S
C382 H376 0.930 . S
C382 C383 1.367 . S
C382 C390 1.378 . S
C383 C382 1.367 . S
C383 C391 1.433 . S
C384 H380 0.929 . S
C384 C386 1.378 . S
C384 C388 1.350 . S
C385 C388 1.463 . S
C385 C390 1.350 . S
C385 N393 1.427 . S
C386 H377 0.930 . S
C386 C384 1.378 . S
C386 C387 1.367 . S
C387 C386 1.367 . S
C387 C389 1.433 . S
C388 C384 1.350 . S
C388 C385 1.463 . S
C388 N392 1.427 . S
C389 H379 0.929 . S
C389 C387 1.433 . S
C389 N392 1.384 . S
C390 H381 0.929 . S
C390 C382 1.378 . S
C390 C385 1.350 . S
C391 H378 0.929 . S
C391 C383 1.433 . S
C391 N393 1.384 . S
N392 C388 1.427 . S
N392 C389 1.384 . S
N393 C385 1.427 . S
N393 C391 1.384 . S
H394 C400 0.930 . S
H395 C404 0.930 . S
H396 C409 0.929 . S
H397 C407 0.929 . S
H398 C402 0.929 . S
H399 C408 0.929 . S
C400 H394 0.930 . S
C400 C401 1.367 . S
C400 C408 1.378 . S
C401 C400 1.367 . S
C401 C409 1.433 . S
C402 H398 0.929 . S
C402 C404 1.378 . S
C402 C406 1.350 . S
C403 C406 1.463 . S
C403 C408 1.350 . S
C403 N411 1.427 . S
C404 H395 0.930 . S
C404 C402 1.378 . S
C404 C405 1.367 1_556 S
C405 C404 1.367 1_554 S
C405 C407 1.433 . S
C406 C402 1.350 . S
C406 C403 1.463 . S
C406 N410 1.427 . S
C407 H397 0.929 . S
C407 C405 1.433 . S
C407 N410 1.384 1_554 S
C408 H399 0.929 . S
C408 C400 1.378 . S
C408 C403 1.350 . S
C409 H396 0.929 . S
C409 C401 1.433 . S
C409 N411 1.384 . S
N410 C406 1.427 . S
N410 C407 1.384 1_556 S
N411 C403 1.427 . S
N411 C409 1.384 . S
H412 C418 0.930 . S
H413 C422 0.930 . S
H414 C427 0.929 . S
H415 C425 0.929 . S
H416 C420 0.929 . S
H417 C426 0.929 . S
C418 H412 0.930 . S
C418 C419 1.367 . S
C418 C426 1.378 . S
C419 C418 1.367 . S
C419 C427 1.433 . S
C420 H416 0.929 . S
C420 C422 1.378 . S
C420 C424 1.350 . S
C421 C424 1.463 . S
C421 C426 1.350 . S
C421 N429 1.427 . S
C422 H413 0.930 . S
C422 C420 1.378 . S
C422 C423 1.367 . S
C423 C422 1.367 . S
C423 C425 1.433 . S
C424 C420 1.350 . S
C424 C421 1.463 . S
C424 N428 1.427 . S
C425 H415 0.929 . S
C425 C423 1.433 . S
C425 N428 1.384 . S
C426 H417 0.929 . S
C426 C418 1.378 . S
C426 C421 1.350 . S
C427 H414 0.929 . S
C427 C419 1.433 . S
C427 N429 1.384 . S
N428 C424 1.427 . S
N428 C425 1.384 . S
N429 C421 1.427 . S
N429 C427 1.384 . S
H430 C436 0.930 . S
H431 C440 0.930 . S
H432 C445 0.929 . S
H433 C443 0.929 . S
H434 C438 0.929 . S
H435 C444 0.929 . S
C436 H430 0.930 . S
C436 C437 1.367 . S
C436 C444 1.378 . S
C437 C436 1.367 . S
C437 C445 1.433 . S
C438 H434 0.929 . S
C438 C440 1.378 . S
C438 C442 1.350 . S
C439 C442 1.463 . S
C439 C444 1.350 . S
C439 N447 1.427 . S
C440 H431 0.930 . S
C440 C438 1.378 . S
C440 C441 1.367 . S
C441 C440 1.367 . S
C441 C443 1.433 . S
C442 C438 1.350 . S
C442 C439 1.463 . S
C442 N446 1.427 . S
C443 H433 0.929 . S
C443 C441 1.433 . S
C443 N446 1.384 . S
C444 H435 0.929 . S
C444 C436 1.378 . S
C444 C439 1.350 . S
C445 H432 0.929 . S
C445 C437 1.433 . S
C445 N447 1.384 . S
N446 C442 1.427 . S
N446 C443 1.384 . S
N447 C439 1.427 . S
N447 C445 1.384 . S
H448 C454 0.930 . S
H449 C458 0.930 . S
H450 C463 0.929 . S
H451 C461 0.929 1_545 S
H452 C456 0.929 . S
H453 C462 0.929 . S
C454 H448 0.930 . S
C454 C455 1.367 . S
C454 C462 1.378 . S
C455 C454 1.367 . S
C455 C463 1.433 . S
C456 H452 0.929 . S
C456 C458 1.378 . S
C456 C460 1.350 . S
C457 C460 1.463 . S
C457 C462 1.350 . S
C457 N465 1.427 . S
C458 H449 0.930 . S
C458 C456 1.378 . S
C458 C459 1.367 . S
C459 C458 1.367 . S
C459 C461 1.433 . S
C460 C456 1.350 . S
C460 C457 1.463 . S
C460 N464 1.427 . S
C461 H451 0.929 1_565 S
C461 C459 1.433 . S
C461 N464 1.384 . S
C462 H453 0.929 . S
C462 C454 1.378 . S
C462 C457 1.350 . S
C463 H450 0.929 . S
C463 C455 1.433 . S
C463 N465 1.384 . S
N464 C460 1.427 . S
N464 C461 1.384 . S
N465 C457 1.427 . S
N465 C463 1.384 . S
H466 C472 0.930 . S
H467 C476 0.930 . S
H468 C481 0.929 . S
H469 C479 0.929 . S
H470 C474 0.929 . S
H471 C480 0.929 . S
C472 H466 0.930 . S
C472 C473 1.367 . S
C472 C480 1.378 . S
C473 C472 1.367 . S
C473 C481 1.433 . S
C474 H470 0.929 . S
C474 C476 1.378 . S
C474 C478 1.350 . S
C475 C478 1.463 . S
C475 C480 1.350 . S
C475 N483 1.427 . S
C476 H467 0.930 . S
C476 C474 1.378 . S
C476 C477 1.367 . S
C477 C476 1.367 . S
C477 C479 1.433 . S
C478 C474 1.350 . S
C478 C475 1.463 . S
C478 N482 1.427 . S
C479 H469 0.929 . S
C479 C477 1.433 . S
C479 N482 1.384 . S
C480 H471 0.929 . S
C480 C472 1.378 . S
C480 C475 1.350 . S
C481 H468 0.929 . S
C481 C473 1.433 . S
C481 N483 1.384 . S
N482 C478 1.427 . S
N482 C479 1.384 . S
N483 C475 1.427 . S
N483 C481 1.384 . S
H484 C490 0.930 . S
H485 C494 0.930 . S
H486 C499 0.929 . S
H487 C497 0.929 . S
H488 C492 0.929 . S
H489 C498 0.929 . S
C490 H484 0.930 . S
C490 C491 1.367 . S
C490 C498 1.378 . S
C491 C490 1.367 . S
C491 C499 1.433 . S
C492 H488 0.929 . S
C492 C494 1.378 . S
C492 C496 1.350 . S
C493 C496 1.463 . S
C493 C498 1.350 . S
C493 N501 1.427 . S
C494 H485 0.930 . S
C494 C492 1.378 . S
C494 C495 1.367 . S
C495 C494 1.367 . S
C495 C497 1.433 . S
C496 C492 1.350 . S
C496 C493 1.463 . S
C496 N500 1.427 . S
C497 H487 0.929 . S
C497 C495 1.433 . S
C497 N500 1.384 . S
C498 H489 0.929 . S
C498 C490 1.378 . S
C498 C493 1.350 . S
C499 H486 0.929 . S
C499 C491 1.433 . S
C499 N501 1.384 . S
N500 C496 1.427 . S
N500 C497 1.384 . S
N501 C493 1.427 . S
N501 C499 1.384 . S
H502 C508 0.930 . S
H503 C512 0.930 . S
H504 C517 0.929 . S
H505 C515 0.929 . S
H506 C510 0.929 . S
H507 C516 0.929 . S
C508 H502 0.930 . S
C508 C509 1.367 . S
C508 C516 1.378 . S
C509 C508 1.367 . S
C509 C517 1.433 . S
C510 H506 0.929 . S
C510 C512 1.378 . S
C510 C514 1.350 . S
C511 C514 1.463 . S
C511 C516 1.350 . S
C511 N519 1.427 . S
C512 H503 0.930 . S
C512 C510 1.378 . S
C512 C513 1.367 . S
C513 C512 1.367 . S
C513 C515 1.433 . S
C514 C510 1.350 . S
C514 C511 1.463 . S
C514 N518 1.427 . S
C515 H505 0.929 . S
C515 C513 1.433 . S
C515 N518 1.384 . S
C516 H507 0.929 . S
C516 C508 1.378 . S
C516 C511 1.350 . S
C517 H504 0.929 . S
C517 C509 1.433 . S
C517 N519 1.384 . S
N518 C514 1.427 . S
N518 C515 1.384 . S
N519 C511 1.427 . S
N519 C517 1.384 . S
H520 C526 0.930 . S
H521 C530 0.930 . S
H522 C535 0.929 . S
H523 C533 0.929 . S
H524 C528 0.929 . S
H525 C534 0.929 . S
C526 H520 0.930 . S
C526 C527 1.367 . S
C526 C534 1.378 . S
C527 C526 1.367 . S
C527 C535 1.433 . S
C528 H524 0.929 . S
C528 C530 1.378 . S
C528 C532 1.350 . S
C529 C532 1.463 . S
C529 C534 1.350 . S
C529 N537 1.427 . S
C530 H521 0.930 . S
C530 C528 1.378 . S
C530 C531 1.367 . S
C531 C530 1.367 . S
C531 C533 1.433 1_556 S
C532 C528 1.350 . S
C532 C529 1.463 . S
C532 N536 1.427 . S
C533 H523 0.929 . S
C533 C531 1.433 1_554 S
C533 N536 1.384 1_554 S
C534 H525 0.929 . S
C534 C526 1.378 . S
C534 C529 1.350 . S
C535 H522 0.929 . S
C535 C527 1.433 . S
C535 N537 1.384 . S
N536 C532 1.427 . S
N536 C533 1.384 1_556 S
N537 C529 1.427 . S
N537 C535 1.384 . S
H538 C544 0.930 . S
H539 C548 0.930 . S
H540 C553 0.929 . S
H541 C551 0.929 . S
H542 C546 0.929 . S
H543 C552 0.929 . S
C544 H538 0.930 . S
C544 C545 1.367 . S
C544 C552 1.378 . S
C545 C544 1.367 . S
C545 C553 1.433 . S
C546 H542 0.929 . S
C546 C548 1.378 . S
C546 C550 1.350 . S
C547 C550 1.463 . S
C547 C552 1.350 . S
C547 N555 1.427 . S
C548 H539 0.930 . S
C548 C546 1.378 . S
C548 C549 1.367 . S
C549 C548 1.367 . S
C549 C551 1.433 . S
C550 C546 1.350 . S
C550 C547 1.463 . S
C550 N554 1.427 . S
C551 H541 0.929 . S
C551 C549 1.433 . S
C551 N554 1.384 . S
C552 H543 0.929 . S
C552 C544 1.378 . S
C552 C547 1.350 . S
C553 H540 0.929 . S
C553 C545 1.433 . S
C553 N555 1.384 . S
N554 C550 1.427 . S
N554 C551 1.384 . S
N555 C547 1.427 . S
N555 C553 1.384 . S
H556 C562 0.930 . S
H557 C566 0.930 . S
H558 C571 0.929 . S
H559 C569 0.929 . S
H560 C564 0.929 . S
H561 C570 0.929 . S
C562 H556 0.930 . S
C562 C563 1.367 . S
C562 C570 1.378 . S
C563 C562 1.367 . S
C563 C571 1.433 . S
C564 H560 0.929 . S
C564 C566 1.378 . S
C564 C568 1.350 . S
C565 C568 1.463 . S
C565 C570 1.350 . S
C565 N573 1.427 . S
C566 H557 0.930 . S
C566 C564 1.378 . S
C566 C567 1.367 . S
C567 C566 1.367 . S
C567 C569 1.433 . S
C568 C564 1.350 . S
C568 C565 1.463 . S
C568 N572 1.427 . S
C569 H559 0.929 . S
C569 C567 1.433 . S
C569 N572 1.384 . S
C570 H561 0.929 . S
C570 C562 1.378 . S
C570 C565 1.350 . S
C571 H558 0.929 . S
C571 C563 1.433 . S
C571 N573 1.384 . S
N572 C568 1.427 . S
N572 C569 1.384 . S
N573 C565 1.427 . S
N573 C571 1.384 . S
H574 C580 0.930 . S
H575 C584 0.930 . S
H576 C589 0.929 . S
H577 C587 0.929 . S
H578 C582 0.929 . S
H579 C588 0.929 . S
C580 H574 0.930 . S
C580 C581 1.367 . S
C580 C588 1.378 . S
C581 C580 1.367 . S
C581 C589 1.433 . S
C582 H578 0.929 . S
C582 C584 1.378 . S
C582 C586 1.350 . S
C583 C586 1.463 . S
C583 C588 1.350 . S
C583 N591 1.427 . S
C584 H575 0.930 . S
C584 C582 1.378 . S
C584 C585 1.367 . S
C585 C584 1.367 . S
C585 C587 1.433 . S
C586 C582 1.350 . S
C586 C583 1.463 . S
C586 N590 1.427 . S
C587 H577 0.929 . S
C587 C585 1.433 . S
C587 N590 1.384 . S
C588 H579 0.929 . S
C588 C580 1.378 . S
C588 C583 1.350 . S
C589 H576 0.929 . S
C589 C581 1.433 . S
C589 N591 1.384 . S
N590 C586 1.427 . S
N590 C587 1.384 . S
N591 C583 1.427 . S
N591 C589 1.384 . S
H592 C598 0.930 . S
H593 C602 0.930 . S
H594 C607 0.929 . S
H595 C605 0.929 . S
H596 C600 0.929 . S
H597 C606 0.929 . S
C598 H592 0.930 . S
C598 C599 1.367 . S
C598 C606 1.378 . S
C599 C598 1.367 . S
C599 C607 1.433 . S
C600 H596 0.929 . S
C600 C602 1.378 . S
C600 C604 1.350 . S
C601 C604 1.463 . S
C601 C606 1.350 . S
C601 N609 1.427 . S
C602 H593 0.930 . S
C602 C600 1.378 . S
C602 C603 1.367 . S
C603 C602 1.367 . S
C603 C605 1.433 . S
C604 C600 1.350 . S
C604 C601 1.463 . S
C604 N608 1.427 . S
C605 H595 0.929 . S
C605 C603 1.433 . S
C605 N608 1.384 . S
C606 H597 0.929 . S
C606 C598 1.378 . S
C606 C601 1.350 . S
C607 H594 0.929 . S
C607 C599 1.433 . S
C607 N609 1.384 . S
N608 C604 1.427 . S
N608 C605 1.384 . S
N609 C601 1.427 . S
N609 C607 1.384 . S
H610 C616 0.930 . S
H611 C620 0.930 . S
H612 C625 0.929 . S
H613 C623 0.929 . S
H614 C618 0.929 . S
H615 C624 0.929 . S
C616 H610 0.930 . S
C616 C617 1.367 . S
C616 C624 1.378 . S
C617 C616 1.367 . S
C617 C625 1.433 . S
C618 H614 0.929 . S
C618 C620 1.378 . S
C618 C622 1.350 . S
C619 C622 1.463 . S
C619 C624 1.350 . S
C619 N627 1.427 . S
C620 H611 0.930 . S
C620 C618 1.378 . S
C620 C621 1.367 . S
C621 C620 1.367 . S
C621 C623 1.433 . S
C622 C618 1.350 . S
C622 C619 1.463 . S
C622 N626 1.427 . S
C623 H613 0.929 . S
C623 C621 1.433 . S
C623 N626 1.384 . S
C624 H615 0.929 . S
C624 C616 1.378 . S
C624 C619 1.350 . S
C625 H612 0.929 . S
C625 C617 1.433 . S
C625 N627 1.384 . S
N626 C622 1.427 . S
N626 C623 1.384 . S
N627 C619 1.427 . S
N627 C625 1.384 . S
H628 C634 0.930 . S
H629 C638 0.930 . S
H630 C643 0.929 . S
H631 C641 0.929 . S
H632 C636 0.929 . S
H633 C642 0.929 . S
C634 H628 0.930 . S
C634 C635 1.367 . S
C634 C642 1.378 . S
C635 C634 1.367 . S
C635 C643 1.433 . S
C636 H632 0.929 . S
C636 C638 1.378 . S
C636 C640 1.350 . S
C637 C640 1.463 . S
C637 C642 1.350 . S
C637 N645 1.427 . S
C638 H629 0.930 . S
C638 C636 1.378 . S
C638 C639 1.367 . S
C639 C638 1.367 . S
C639 C641 1.433 . S
C640 C636 1.350 . S
C640 C637 1.463 . S
C640 N644 1.427 . S
C641 H631 0.929 . S
C641 C639 1.433 . S
C641 N644 1.384 . S
C642 H633 0.929 . S
C642 C634 1.378 . S
C642 C637 1.350 . S
C643 H630 0.929 . S
C643 C635 1.433 . S
C643 N645 1.384 . S
N644 C640 1.427 . S
N644 C641 1.384 . S
N645 C637 1.427 . S
N645 C643 1.384 . S
H646 C652 0.930 . S
H647 C656 0.930 . S
H648 C661 0.929 . S
H649 C659 0.929 . S
H650 C654 0.929 . S
H651 C660 0.929 . S
C652 H646 0.930 . S
C652 C653 1.367 . S
C652 C660 1.378 . S
C653 C652 1.367 . S
C653 C661 1.433 . S
C654 H650 0.929 . S
C654 C656 1.378 . S
C654 C658 1.350 . S
C655 C658 1.463 . S
C655 C660 1.350 . S
C655 N663 1.427 . S
C656 H647 0.930 . S
C656 C654 1.378 . S
C656 C657 1.367 . S
C657 C656 1.367 . S
C657 C659 1.433 . S
C658 C654 1.350 . S
C658 C655 1.463 . S
C658 N662 1.427 . S
C659 H649 0.929 . S
C659 C657 1.433 . S
C659 N662 1.384 . S
C660 H651 0.929 . S
C660 C652 1.378 . S
C660 C655 1.350 . S
C661 H648 0.929 . S
C661 C653 1.433 . S
C661 N663 1.384 . S
N662 C658 1.427 . S
N662 C659 1.384 . S
N663 C655 1.427 . S
N663 C661 1.384 . S
C239 C6 1.736 . S
C243 C171 1.732 . S
C257 C21 1.746 . S
C261 C174 1.697 . S
C279 C210 1.158 . S
C275 C49 1.061 . S
C293 C68 1.445 . S
C297 C230 1.479 1_655 S
C315 C184 2.369 . S
C311 C2 2.374 . S
C333 C161 1.226 . S
C329 C30 1.174 . S
C351 C214 1.347 . S
C347 C40 1.399 . S
C369 C194 1.220 . S
C365 C63 1.352 . S
C383 C11 1.310 . S
C387 C224 1.354 . S
C405 C190 1.837 . S
C401 C44 1.851 . S
C419 C59 1.357 . S
C423 C156 1.337 . S
C437 C25 1.608 . S
C441 C204 1.534 . S
C459 C170 1.861 . S
C455 C82 1.867 . S
C473 C101 1.485 . S
C477 C176 1.443 . S
C491 C125 1.503 . S
C495 C211 1.583 . S
C509 C144 1.222 . S
C513 C231 1.199 . S
C527 C87 1.434 . S
C531 C181 1.435 1_556 S
C549 C164 2.218 . S
C545 C97 2.206 . S
C567 C216 1.330 . S
C563 C120 1.509 . S
C585 C196 1.245 . S
C581 C135 1.275 . S
C599 C78 1.753 . S
C603 C221 1.641 . S
C621 C191 1.349 . S
C617 C116 1.336 . S
C639 C154 1.793 . S
C635 C139 1.855 . S
C653 C106 1.194 . S
C657 C201 1.281 . S
