# Generated by pormake.
# Topology pyr, (3,6)-cn, num edge types: 1
# Building blocks:
#     Node 0, Type 0, BuildingBlock: KAKCAD_clean_linker_0, # of connection points: 3
#     Node 1, Type 0, BuildingBlock: KAKCAD_clean_linker_0, # of connection points: 3
#     Node 2, Type 0, BuildingBlock: KAKCAD_clean_linker_0, # of connection points: 3
#     Node 3, Type 0, BuildingBlock: KAKCAD_clean_linker_0, # of connection points: 3
#     Node 4, Type 0, BuildingBlock: KAKCAD_clean_linker_0, # of connection points: 3
#     Node 5, Type 0, BuildingBlock: KAKCAD_clean_linker_0, # of connection points: 3
#     Node 6, Type 0, BuildingBlock: KAKCAD_clean_linker_0, # of connection points: 3
#     Node 7, Type 0, BuildingBlock: KAKCAD_clean_linker_0, # of connection points: 3
#     Node 8, Type 1, BuildingBlock: JUFBIX_clean_sbu_0, # of connection points: 6
#     Node 9, Type 1, BuildingBlock: JUFBIX_clean_sbu_0, # of connection points: 6
#     Node 10, Type 1, BuildingBlock: JUFBIX_clean_sbu_0, # of connection points: 6
#     Node 11, Type 1, BuildingBlock: JUFBIX_clean_sbu_0, # of connection points: 6
#     Edge 12, Type (0, 1), BuildingBlock: EZIPEK_clean_linker_0, # of connection points: 2
#     Edge 13, Type (0, 1), BuildingBlock: EZIPEK_clean_linker_0, # of connection points: 2
#     Edge 14, Type (0, 1), BuildingBlock: EZIPEK_clean_linker_0, # of connection points: 2
#     Edge 15, Type (0, 1), BuildingBlock: EZIPEK_clean_linker_0, # of connection points: 2
#     Edge 16, Type (0, 1), BuildingBlock: EZIPEK_clean_linker_0, # of connection points: 2
#     Edge 17, Type (0, 1), BuildingBlock: EZIPEK_clean_linker_0, # of connection points: 2
#     Edge 18, Type (0, 1), BuildingBlock: EZIPEK_clean_linker_0, # of connection points: 2
#     Edge 19, Type (0, 1), BuildingBlock: EZIPEK_clean_linker_0, # of connection points: 2
#     Edge 20, Type (0, 1), BuildingBlock: EZIPEK_clean_linker_0, # of connection points: 2
#     Edge 21, Type (0, 1), BuildingBlock: EZIPEK_clean_linker_0, # of connection points: 2
#     Edge 22, Type (0, 1), BuildingBlock: EZIPEK_clean_linker_0, # of connection points: 2
#     Edge 23, Type (0, 1), BuildingBlock: EZIPEK_clean_linker_0, # of connection points: 2
#     Edge 24, Type (0, 1), BuildingBlock: EZIPEK_clean_linker_0, # of connection points: 2
#     Edge 25, Type (0, 1), BuildingBlock: EZIPEK_clean_linker_0, # of connection points: 2
#     Edge 26, Type (0, 1), BuildingBlock: EZIPEK_clean_linker_0, # of connection points: 2
#     Edge 27, Type (0, 1), BuildingBlock: EZIPEK_clean_linker_0, # of connection points: 2
#     Edge 28, Type (0, 1), BuildingBlock: EZIPEK_clean_linker_0, # of connection points: 2
#     Edge 29, Type (0, 1), BuildingBlock: EZIPEK_clean_linker_0, # of connection points: 2
#     Edge 30, Type (0, 1), BuildingBlock: EZIPEK_clean_linker_0, # of connection points: 2
#     Edge 31, Type (0, 1), BuildingBlock: EZIPEK_clean_linker_0, # of connection points: 2
#     Edge 32, Type (0, 1), BuildingBlock: EZIPEK_clean_linker_0, # of connection points: 2
#     Edge 33, Type (0, 1), BuildingBlock: EZIPEK_clean_linker_0, # of connection points: 2
#     Edge 34, Type (0, 1), BuildingBlock: EZIPEK_clean_linker_0, # of connection points: 2
#     Edge 35, Type (0, 1), BuildingBlock: EZIPEK_clean_linker_0, # of connection points: 2
# Relax obj value: 0.067
# Max RMSD: 0.101
# Mean RMSD: 0.036
data_MOF--net-pry--node1-JUFBIX_clean_sbu_0--node2-KAKCAD_clean_linker_0--edge1-EZIPEK_clean_linker_0
_symmetry_space_group_name_H-M    P1
_symmetry_Int_Tables_number       1
_symmetry_cell_setting            triclinic
loop_
_symmetry_equiv_pos_as_xyz
'x, y, z'
_cell_length_a     35.846914
_cell_length_b     34.006174
_cell_length_c     35.745191
_cell_angle_alpha  83.437205
_cell_angle_beta   89.96232
_cell_angle_gamma 91.598211
loop_
_atom_site_label
_atom_site_type_symbol
_atom_site_fract_x
_atom_site_fract_y
_atom_site_fract_z
_atom_type_partial_charge
C0 C 0.10328 0.09816 0.28172 0.0
C1 C 0.12482 0.08319 0.31261 0.0
C2 C 0.12041 0.11613 0.24857 0.0
C3 C 0.15962 0.11973 0.24536 0.0
C4 C 0.18117 0.10369 0.27607 0.0
C5 C 0.16395 0.08571 0.30935 0.0
C6 C 0.17751 0.14196 0.21086 0.0
C7 C 0.16163 0.17708 0.19425 0.0
C8 C 0.17694 0.19868 0.16166 0.0
C9 C 0.2097 0.18499 0.14603 0.0
C10 C 0.22651 0.14958 0.16173 0.0
C11 C 0.20991 0.12848 0.19437 0.0
C12 C 0.26042 0.13388 0.14346 0.0
C13 C 0.26696 0.14144 0.10443 0.0
C14 C 0.28709 0.11149 0.16479 0.0
C15 C 0.31724 0.09492 0.14742 0.0
C16 C 0.32151 0.09833 0.10768 0.0
C17 C 0.15804 0.23523 0.14415 0.0
C18 C 0.11873 0.23647 0.14287 0.0
C19 C 0.1787 0.26941 0.12944 0.0
C20 C 0.16056 0.30387 0.11454 0.0
C21 C 0.12135 0.30499 0.11391 0.0
C22 C 0.10069 0.27086 0.12808 0.0
C23 C 0.29749 0.12544 0.08729 0.0
H24 H 0.0731 0.09641 0.28347 0.0
H25 H 0.10281 0.12747 0.22543 0.0
H26 H 0.21134 0.1061 0.27483 0.0
H27 H 0.18116 0.07437 0.33282 0.0
H28 H 0.13741 0.18821 0.20733 0.0
H29 H 0.2214 0.10077 0.20639 0.0
H30 H 0.22181 0.20196 0.12135 0.0
H31 H 0.24834 0.1596 0.08652 0.0
H32 H 0.28511 0.10704 0.19521 0.0
H33 H 0.3374 0.07961 0.16579 0.0
H34 H 0.10175 0.21068 0.15323 0.0
H35 H 0.2089 0.26988 0.13018 0.0
H36 H 0.30176 0.13571 0.058 0.0
H37 H 0.07047 0.27089 0.1278 0.0
H38 H 0.17713 0.32984 0.1038 0.0
C39 C 0.4593 0.96786 0.72683 0.0
C40 C 0.49577 0.96461 0.74039 0.0
C41 C 0.45059 0.9577 0.69127 0.0
C42 C 0.47827 0.9442 0.66829 0.0
C43 C 0.51521 0.94197 0.68151 0.0
C44 C 0.52399 0.9524 0.71737 0.0
C45 C 0.46692 0.92911 0.63256 0.0
C46 C 0.43891 0.94843 0.61071 0.0
C47 C 0.41846 0.92877 0.5847 0.0
C48 C 0.42918 0.89104 0.57746 0.0
C49 C 0.45871 0.87229 0.59736 0.0
C50 C 0.47772 0.89149 0.62474 0.0
C51 C 0.46543 0.83031 0.59378 0.0
C52 C 0.43594 0.80224 0.60005 0.0
C53 C 0.50085 0.81804 0.58413 0.0
C54 C 0.50638 0.77832 0.57961 0.0
C55 C 0.47669 0.75043 0.58541 0.0
C56 C 0.38156 0.9435 0.57181 0.0
C57 C 0.3574 0.95756 0.59801 0.0
C58 C 0.36832 0.93916 0.5354 0.0
C59 C 0.33117 0.94722 0.52601 0.0
C60 C 0.30701 0.95942 0.55305 0.0
C61 C 0.32053 0.96546 0.58867 0.0
C62 C 0.44161 0.76253 0.5962 0.0
H63 H 0.43722 0.97707 0.74436 0.0
H64 H 0.42168 0.95881 0.68251 0.0
H65 H 0.53701 0.93156 0.66444 0.0
H66 H 0.55234 0.94982 0.72762 0.0
H67 H 0.43057 0.97751 0.61659 0.0
H68 H 0.49831 0.87557 0.64226 0.0
H69 H 0.41286 0.87491 0.5584 0.0
H70 H 0.40851 0.81108 0.60804 0.0
H71 H 0.52392 0.83929 0.57935 0.0
H72 H 0.53365 0.76933 0.57134 0.0
H73 H 0.36628 0.96036 0.62656 0.0
H74 H 0.38632 0.9284 0.51468 0.0
H75 H 0.41851 0.74131 0.60097 0.0
H76 H 0.30206 0.97476 0.6098 0.0
H77 H 0.32091 0.94249 0.49833 0.0
C78 C 0.79477 0.45843 0.93419 0.0
C79 C 0.82414 0.43299 0.94506 0.0
C80 C 0.76316 0.44462 0.91593 0.0
C81 C 0.75987 0.40485 0.90875 0.0
C82 C 0.78918 0.37939 0.91994 0.0
C83 C 0.82103 0.39336 0.93761 0.0
C84 C 0.72544 0.3894 0.89112 0.0
C85 C 0.70978 0.40964 0.85827 0.0
C86 C 0.6775 0.39427 0.84163 0.0
C87 C 0.66028 0.35931 0.85939 0.0
C88 C 0.67555 0.33893 0.89178 0.0
C89 C 0.70819 0.35376 0.90729 0.0
C90 C 0.65752 0.30149 0.90877 0.0
C91 C 0.62462 0.30196 0.93 0.0
C92 C 0.67224 0.26506 0.90232 0.0
C93 C 0.65404 0.22952 0.91653 0.0
C94 C 0.62114 0.22987 0.93791 0.0
C95 C 0.6618 0.41339 0.80532 0.0
C96 C 0.65988 0.45484 0.79744 0.0
C97 C 0.64735 0.38971 0.7785 0.0
C98 C 0.63048 0.40674 0.74551 0.0
C99 C 0.62788 0.44795 0.73807 0.0
C100 C 0.64311 0.47195 0.76412 0.0
C101 C 0.60674 0.26641 0.94479 0.0
H102 H 0.79656 0.48916 0.93948 0.0
H103 H 0.74096 0.46486 0.90804 0.0
H104 H 0.78764 0.34866 0.91465 0.0
H105 H 0.84338 0.37326 0.94536 0.0
H106 H 0.7235 0.43645 0.84501 0.0
H107 H 0.71972 0.33784 0.93247 0.0
H108 H 0.63492 0.34749 0.84788 0.0
H109 H 0.61278 0.32985 0.93507 0.0
H110 H 0.69745 0.26416 0.88574 0.0
H111 H 0.66559 0.20169 0.91086 0.0
H112 H 0.67051 0.47403 0.81738 0.0
H113 H 0.64904 0.35778 0.78295 0.0
H114 H 0.58147 0.26734 0.96125 0.0
H115 H 0.64162 0.50387 0.75884 0.0
H116 H 0.61932 0.38765 0.7257 0.0
C117 C 0.9575 0.52206 0.33793 0.0
C118 C 0.98739 0.53614 0.31461 0.0
C119 C 0.95361 0.53489 0.3733 0.0
C120 C 0.98061 0.56067 0.38724 0.0
C121 C 1.01287 0.57077 0.36518 0.0
C122 C 1.01588 0.5592 0.32895 0.0
C123 C 0.97242 0.58055 0.4217 0.0
C124 C 0.9445 0.56441 0.44712 0.0
C125 C 0.92675 0.58795 0.47099 0.0
C126 C 0.94156 0.62572 0.47486 0.0
C127 C 0.97209 0.64121 0.45282 0.0
C128 C 0.98706 0.61889 0.42589 0.0
C129 C 0.98471 0.68273 0.4548 0.0
C130 C 0.95862 0.71297 0.45075 0.0
C131 C 1.02201 0.69216 0.46299 0.0
C132 C 0.03255 0.73094 0.46903 0.0
C133 C 1.00599 0.76074 0.46627 0.0
C134 C 0.88799 0.57747 0.48338 0.0
C135 C 0.86211 0.56722 0.45635 0.0
C136 C 0.87537 0.58236 0.51976 0.0
C137 C 0.83725 0.57792 0.52854 0.0
C138 C 0.81145 0.56975 0.50065 0.0
C139 C 0.82428 0.56362 0.46485 0.0
C140 C 0.9692 0.75163 0.45629 0.0
H141 H 0.93536 0.50401 0.32737 0.0
H142 H 0.92778 0.5265 0.38799 0.0
H143 H 0.03512 0.5891 0.37494 0.0
H144 H 0.03958 0.56982 0.31146 0.0
H145 H 0.93352 0.53462 0.44608 0.0
H146 H 1.00797 0.63299 0.40663 0.0
H147 H 0.92774 0.6442 0.49311 0.0
H148 H 0.92978 0.70647 0.44406 0.0
H149 H 0.04254 0.66925 0.46628 0.0
H150 H 0.06102 0.73747 0.47695 0.0
H151 H 0.87085 0.56406 0.42785 0.0
H152 H 0.89479 0.59051 0.54094 0.0
H153 H 0.94835 0.77425 0.45411 0.0
H154 H 0.80478 0.55727 0.44302 0.0
H155 H 0.8277 0.58248 0.55643 0.0
C156 C 0.89052 0.88326 0.72638 0.0
C157 C 0.9039 0.92262 0.71943 0.0
C158 C 0.873 0.86946 0.76058 0.0
C159 C 0.86791 0.89476 0.78861 0.0
C160 C 0.87981 0.93464 0.78111 0.0
C161 C 0.89787 0.94839 0.74691 0.0
C162 C 0.85444 0.87772 0.82678 0.0
C163 C 0.87374 0.84607 0.84549 0.0
C164 C 0.86088 0.82548 0.87973 0.0
C165 C 0.82847 0.83923 0.89623 0.0
C166 C 0.80923 0.87245 0.87899 0.0
C167 C 0.82261 0.89131 0.84392 0.0
C168 C 0.77515 0.88714 0.89748 0.0
C169 C 0.74973 0.86063 0.91828 0.0
C170 C 0.76788 0.92795 0.89503 0.0
C171 C 0.7366 0.94169 0.91292 0.0
C172 C 0.71166 0.91513 0.93395 0.0
C173 C 0.88159 0.78977 0.8973 0.0
C174 C 0.90391 0.7681 0.87478 0.0
C175 C 0.88014 0.77706 0.93636 0.0
C176 C 0.90043 0.74432 0.95202 0.0
C177 C 0.92393 0.72433 0.9294 0.0
C178 C 0.92549 0.73696 0.89065 0.0
C179 C 0.71862 0.87443 0.93634 0.0
H180 H 0.89462 0.86285 0.70567 0.0
H181 H 0.86419 0.83857 0.76559 0.0
H182 H 0.87663 0.95467 0.8023 0.0
H183 H 0.90792 0.97889 0.74221 0.0
H184 H 0.89941 0.83798 0.83283 0.0
H185 H 0.80771 0.91574 0.82932 0.0
H186 H 0.81812 0.8242 0.92261 0.0
H187 H 0.75361 0.829 0.92044 0.0
H188 H 0.78677 0.94952 0.87987 0.0
H189 H 0.73206 0.97323 0.91069 0.0
H190 H 0.90493 0.77469 0.84449 0.0
H191 H 0.86389 0.79256 0.9552 0.0
H192 H 0.69989 0.85324 0.95229 0.0
H193 H 0.94306 0.72211 0.87232 0.0
H194 H 0.8984 0.73511 0.98199 0.0
C195 C 0.5412 0.05956 0.3401 0.0
C196 C 0.54259 0.08182 0.30451 0.0
C197 C 0.54996 0.07776 0.37226 0.0
C198 C 0.5588 0.11853 0.36916 0.0
C199 C 0.55574 0.14136 0.33413 0.0
C200 C 0.54798 0.12307 0.30195 0.0
C201 C 0.57942 0.13553 0.3994 0.0
C202 C 0.61446 0.12056 0.40934 0.0
C203 C 0.63876 0.14062 0.43177 0.0
C204 C 0.62716 0.17547 0.44519 0.0
C205 C 0.59168 0.1906 0.43627 0.0
C206 C 0.5679 0.17025 0.41316 0.0
C207 C 0.58099 0.22896 0.44907 0.0
C208 C 0.59431 0.24006 0.48353 0.0
C209 C 0.55912 0.25577 0.42617 0.0
C210 C 0.55128 0.29274 0.43725 0.0
C211 C 0.56606 0.30414 0.47083 0.0
C212 C 0.67727 0.12674 0.43839 0.0
C213 C 0.68387 0.08605 0.4459 0.0
C214 C 0.70784 0.15385 0.43527 0.0
C215 C 0.74425 0.14044 0.43912 0.0
C216 C 0.75053 0.09978 0.44573 0.0
C217 C 0.72024 0.07269 0.44943 0.0
C218 C 0.58754 0.27749 0.49391 0.0
H219 H 0.53665 0.02775 0.34254 0.0
H220 H 0.55238 0.05966 0.39908 0.0
H221 H 0.56281 0.17276 0.33109 0.0
H222 H 0.54881 0.14075 0.27473 0.0
H223 H 0.62392 0.09482 0.3971 0.0
H224 H 0.54075 0.18154 0.40513 0.0
H225 H 0.64645 0.19137 0.46171 0.0
H226 H 0.6103 0.21999 0.50253 0.0
H227 H 0.54887 0.24884 0.39916 0.0
H228 H 0.5345 0.31293 0.41914 0.0
H229 H 0.66091 0.06452 0.44888 0.0
H230 H 0.70372 0.18532 0.42887 0.0
H231 H 0.59895 0.28567 0.52009 0.0
H232 H 0.72483 0.0412 0.4549 0.0
H233 H 0.76751 0.16161 0.43632 0.0
C234 C 0.22993 0.58939 0.14716 0.0
C235 C 0.23013 0.59235 0.10761 0.0
C236 C 0.26109 0.60233 0.16678 0.0
C237 C 0.29312 0.61853 0.14721 0.0
C238 C 0.29337 0.62032 0.10757 0.0
C239 C 0.26223 0.60759 0.08805 0.0
C240 C 0.32555 0.63526 0.16745 0.0
C241 C 0.33834 0.61689 0.20248 0.0
C242 C 0.36968 0.63264 0.22024 0.0
C243 C 0.3875 0.66749 0.20319 0.0
C244 C 0.37481 0.68669 0.16891 0.0
C245 C 0.34399 0.67032 0.1513 0.0
C246 C 0.39362 0.72405 0.15165 0.0
C247 C 0.40338 0.75438 0.17384 0.0
C248 C 0.40182 0.72978 0.11285 0.0
C249 C 0.41935 0.76498 0.09667 0.0
C250 C 0.42867 0.79523 0.1189 0.0
C251 C 0.38467 0.61333 0.25653 0.0
C252 C 0.36196 0.60608 0.28883 0.0
C253 C 0.42296 0.60552 0.25985 0.0
C254 C 0.43842 0.59188 0.29475 0.0
C255 C 0.41607 0.58628 0.32728 0.0
C256 C 0.3776 0.593 0.32398 0.0
C257 C 0.42059 0.7897 0.15757 0.0
H258 H 0.20538 0.57772 0.16279 0.0
H259 H 0.25965 0.60071 0.19717 0.0
H260 H 0.31767 0.63179 0.09144 0.0
H261 H 0.26308 0.60992 0.05758 0.0
H262 H 0.32481 0.5898 0.21532 0.0
H263 H 0.33371 0.68567 0.12527 0.0
H264 H 0.41149 0.67975 0.21676 0.0
H265 H 0.39711 0.75106 0.2037 0.0
H266 H 0.39499 0.70687 0.09508 0.0
H267 H 0.42537 0.76881 0.06675 0.0
H268 H 0.33248 0.61217 0.28718 0.0
H269 H 0.44113 0.61075 0.23546 0.0
H270 H 0.42747 0.81282 0.1751 0.0
H271 H 0.35986 0.5889 0.34874 0.0
H272 H 0.4681 0.58687 0.29662 0.0
C273 C 0.07556 0.23041 0.5637 0.0
C274 C 0.03893 0.21842 0.57394 0.0
C275 C 0.09155 0.26434 0.57622 0.0
C276 C 0.07115 0.28698 0.59922 0.0
C277 C 0.03394 0.27554 0.60848 0.0
C278 C 1.01787 0.24152 0.59578 0.0
C279 C 0.08966 0.32097 0.61503 0.0
C280 C 0.11445 0.34652 0.5926 0.0
C281 C 0.1352 0.376 0.60832 0.0
C282 C 0.13114 0.37997 0.64661 0.0
C283 C 0.107 0.3546 0.66942 0.0
C284 C 0.08564 0.32563 0.6535 0.0
C285 C 0.10621 0.35785 0.7102 0.0
C286 C 0.13952 0.35482 0.73098 0.0
C287 C 0.07363 0.36916 0.7273 0.0
C288 C 0.07503 0.38024 0.76374 0.0
C289 C 0.1089 0.37974 0.7835 0.0
C290 C 0.16565 0.3986 0.58716 0.0
C291 C 0.19493 0.37799 0.57307 0.0
C292 C 0.16949 0.43977 0.58783 0.0
C293 C 0.20344 0.45937 0.57786 0.0
C294 C 0.23399 0.4377 0.56808 0.0
C295 C 0.22901 0.39741 0.56379 0.0
C296 C 0.14078 0.36532 0.76761 0.0
H297 H 0.09221 0.2127 0.54706 0.0
H298 H 0.12043 0.27192 0.56908 0.0
H299 H 1.01749 0.29258 0.62591 0.0
H300 H 0.98953 0.23249 0.60394 0.0
H301 H 0.11834 0.34296 0.56311 0.0
H302 H 0.06768 0.3054 0.67149 0.0
H303 H 0.14817 0.40181 0.65919 0.0
H304 H 0.16493 0.34601 0.7182 0.0
H305 H 0.04777 0.37183 0.71166 0.0
H306 H 0.05014 0.39113 0.77581 0.0
H307 H 0.19266 0.34621 0.57258 0.0
H308 H 0.14716 0.45615 0.59862 0.0
H309 H 0.16703 0.36455 0.78263 0.0
H310 H 0.25232 0.38038 0.55602 0.0
H311 H 0.20686 0.49057 0.58101 0.0
Co312 Co 0.98995 0.99554 0.50073 0.0
C313 C 1.02213 0.92186 0.50025 0.0
Co314 Co 0.04426 0.99022 0.5291 0.0
C315 C 0.923 0.02942 0.46745 0.0
C316 C 0.9192 0.96615 0.47805 0.0
N317 N 0.94325 0.99739 0.47881 0.0
N318 N 0.88732 0.01922 0.46055 0.0
C319 C 0.88476 0.97956 0.46688 0.0
H320 H 0.93312 0.05972 0.4673 0.0
H321 H 0.92536 0.93578 0.4879 0.0
C322 C 1.01276 0.06355 0.53026 0.0
N323 N 0.09024 0.98784 0.55161 0.0
C324 C 0.12216 0.97613 0.53692 0.0
C325 C 0.10008 1.00059 0.58473 0.0
N326 N 0.15142 0.98141 0.55945 0.0
C327 C 0.13794 0.99669 0.5896 0.0
C328 C 0.04865 0.01827 0.45182 0.0
O329 O 0.98571 0.04831 0.51351 0.0
O330 O 0.04128 0.0433 0.53885 0.0
O331 O 0.06757 1.00765 0.4812 0.0
O332 O 1.01316 0.0158 0.4537 0.0
O333 O 0.04749 0.93646 0.51965 0.0
H334 H 0.08113 0.01299 0.60351 0.0
H335 H 0.12415 0.965 0.50982 0.0
O336 O 0.99494 0.94288 0.48851 0.0
O337 O 0.96668 0.97568 0.5478 0.0
O338 O 1.0204 0.9736 0.57679 0.0
C339 C 0.98503 0.96918 0.5782 0.0
H340 H 0.85919 0.96195 0.46615 0.0
H341 H 0.15444 1.00512 0.61291 0.0
Co342 Co 0.50909 0.00888 0.99847 0.0
C343 C 0.49625 0.94451 0.05348 0.0
Co344 Co 0.53478 0.01565 0.053 0.0
C345 C 0.50534 1.00371 0.91945 0.0
C346 C 0.45284 0.98787 0.94663 0.0
N347 N 0.48783 1.00111 0.95307 0.0
N348 N 0.48276 0.99227 0.89249 0.0
C349 C 0.4497 0.98222 0.90922 0.0
H350 H 0.53448 0.01217 0.91504 0.0
H351 H 0.43156 0.9812 0.96806 0.0
C352 C 0.54777 0.08035 0.99746 0.0
N353 N 0.55652 0.0238 0.09823 0.0
C354 C 0.54037 0.01912 0.1326 0.0
C355 C 0.58978 0.04204 0.10309 0.0
N356 N 0.56173 0.03498 0.15831 0.0
C357 C 0.593 0.04906 0.14005 0.0
C358 C 0.58228 0.98016 1.00481 0.0
O359 O 0.52744 0.05996 0.9774 0.0
O360 O 0.55416 0.06647 0.03134 0.0
O361 O 0.5796 0.99029 0.03792 0.0
O362 O 0.55452 0.98636 0.98299 0.0
O363 O 0.51532 0.96533 0.07425 0.0
H364 H 0.60942 0.05182 0.08078 0.0
H365 H 0.51254 1.00678 0.13823 0.0
O366 O 0.49088 0.95758 1.01922 0.0
O367 O 0.46343 0.03114 1.01459 0.0
O368 O 0.48971 0.04014 0.0682 0.0
C369 C 0.46093 0.04242 0.04728 0.0
H370 H 0.42563 0.97027 0.89562 0.0
H371 H 0.6157 0.06488 0.15229 0.0
Co372 Co 0.54693 0.53774 0.52372 0.0
C373 C 0.4889 0.54346 0.47158 0.0
Co374 Co 0.49371 0.51187 0.54701 0.0
C375 C 0.62601 0.55025 0.51655 0.0
C376 C 0.59678 0.59071 0.47746 0.0
N377 N 0.59143 0.56042 0.50499 0.0
N378 N 0.65259 0.57273 0.49722 0.0
C379 C 0.63451 0.59823 0.47249 0.0
H380 H 0.63182 0.52667 0.53857 0.0
H381 H 0.57471 0.60649 0.46217 0.0
C382 C 0.55184 0.50547 0.599 0.0
N383 N 0.4497 0.48841 0.56572 0.0
C384 C 0.41446 0.49955 0.55793 0.0
C385 C 0.44618 0.45317 0.58717 0.0
N386 N 0.38931 0.47216 0.57314 0.0
C387 C 0.40898 0.44312 0.5918 0.0
C388 C 0.53781 0.45915 0.51453 0.0
O389 O 0.5697 0.52476 0.57185 0.0
O390 O 0.51764 0.49643 0.5944 0.0
O391 O 0.5066 0.46354 0.53001 0.0
O392 O 0.56089 0.48827 0.50932 0.0
O393 O 0.47011 0.52706 0.49956 0.0
H394 H 0.46921 0.43525 0.59763 0.0
H395 H 0.40736 0.52632 0.54032 0.0
O396 O 0.52361 0.55046 0.47559 0.0
O397 O 0.53295 0.58695 0.53819 0.0
O398 O 0.48087 0.56061 0.5638 0.0
C399 C 0.50273 0.59047 0.55588 0.0
H400 H 0.64771 0.62083 0.45266 0.0
H401 H 0.39717 0.41618 0.60684 0.0
Co402 Co 0.04026 0.5116 0.99375 0.0
C403 C 0.96328 0.49015 1.00766 0.0
Co404 Co 1.01704 0.52477 0.04784 0.0
C405 C 0.08117 0.47471 0.9368 0.0
C406 C 0.03254 0.50525 0.91614 0.0
N407 N 0.05391 0.49803 0.94712 0.0
N408 N 0.07719 0.46747 0.90064 0.0
C409 C 0.0469 0.48679 0.88756 0.0
H410 H 0.10199 0.46146 0.95582 0.0
H411 H 1.0064 0.52027 0.9152 0.0
C412 C 0.09409 0.54521 0.03432 0.0
N413 N 1.00309 0.53943 0.0942 0.0
C414 C 0.99488 0.51737 0.12727 0.0
C415 C 1.00615 0.577 0.10293 0.0
N416 N 0.9933 0.54005 0.15585 0.0
C417 C 0.99998 0.57747 0.14057 0.0
C418 C 0.04945 0.45051 0.052 0.0
O419 O 0.08951 0.53177 1.00278 0.0
O420 O 0.06628 0.54589 0.05632 0.0
O421 O 0.03232 0.47373 0.07126 0.0
O422 O 0.05462 0.46085 1.01701 0.0
O423 O 0.96784 0.50344 0.0393 0.0
H424 H 1.0146 0.60242 0.08376 0.0
H425 H 0.99203 0.48539 0.13077 0.0
O426 O 0.99091 0.491 0.98525 0.0
O427 O 0.02622 0.56326 0.97052 0.0
O428 O 1.00174 0.57562 0.02347 0.0
C429 C 1.00874 0.58679 0.98895 0.0
H430 H 0.03488 0.48561 0.8599 0.0
H431 H 1.0017 0.60309 0.15599 0.0
C432 C 0.08853 0.02782 0.35135 0.0
C433 C 0.10611 0.06602 0.34869 0.0
C434 C 0.08798 0.0718 0.41437 0.0
C435 C 0.06805 0.03483 0.4161 0.0
N436 N 0.04558 0.97958 0.38495 0.0
N437 N 0.11796 0.12703 0.37545 0.0
C438 C 0.06713 0.01349 0.38412 0.0
C439 C 0.10472 0.08865 0.3797 0.0
N440 N 0.09344 1.00463 0.323 0.0
N441 N 0.09095 0.09094 0.44592 0.0
H442 H 0.13058 0.14036 0.35073 0.0
H443 H 0.11393 0.14676 0.3952 0.0
H444 H 0.07704 0.08132 0.47105 0.0
H445 H 0.1089 0.11517 0.44801 0.0
H446 H 0.08498 0.97495 0.32472 0.0
H447 H 0.10881 0.01414 0.29869 0.0
H448 H 0.04019 0.96502 0.36137 0.0
H449 H 0.0309 0.96716 0.4088 0.0
C450 C 0.50307 0.93997 0.80867 0.0
C451 C 0.50276 0.97226 0.77974 0.0
C452 C 0.49407 0.01864 0.82635 0.0
C453 C 0.49331 0.9863 0.85494 0.0
N454 N 0.50665 0.91859 0.87572 0.0
N455 N 0.50723 0.04244 0.76086 0.0
C456 C 0.50111 0.94768 0.84679 0.0
C457 C 0.5015 0.01177 0.78865 0.0
N458 N 0.5029 0.90196 0.79967 0.0
N459 N 0.48598 0.05546 0.83527 0.0
H460 H 0.51296 0.03788 0.73306 0.0
H461 H 0.50951 0.07199 0.76575 0.0
H462 H 0.48093 0.06107 0.86289 0.0
H463 H 0.48221 0.07984 0.81538 0.0
H464 H 0.49854 0.87719 0.81929 0.0
H465 H 0.50505 0.89506 0.77209 0.0
H466 H 0.51599 0.89059 0.87194 0.0
H467 H 0.50499 0.92369 0.90391 0.0
C468 C 0.5739 0.483 0.70415 0.0
C469 C 0.60931 0.46541 0.70269 0.0
C470 C 0.60508 0.4707 0.6337 0.0
C471 C 0.57146 0.49181 0.63485 0.0
N472 N 0.52761 0.52454 0.67126 0.0
N473 N 0.66215 0.45035 0.66565 0.0
C474 C 0.55689 0.49979 0.67013 0.0
C475 C 0.62598 0.46173 0.66728 0.0
N476 N 0.55574 0.48231 0.73786 0.0
N477 N 0.61607 0.45708 0.60099 0.0
H478 H 0.67848 0.44394 0.6896 0.0
H479 H 0.67701 0.45111 0.6405 0.0
H480 H 0.60074 0.46104 0.57615 0.0
H481 H 0.6382 0.4381 0.59952 0.0
H482 H 0.52815 0.49059 0.74017 0.0
H483 H 0.5671 0.47028 0.76334 0.0
H484 H 0.51846 0.53485 0.69593 0.0
H485 H 0.51462 0.5378 0.64715 0.0
C486 C 0.95757 0.54889 0.25096 0.0
C487 C 0.98629 0.53099 0.2739 0.0
C488 C 1.01717 0.51189 0.21781 0.0
C489 C 0.98779 0.52871 0.19542 0.0
N490 N 0.92569 0.55273 0.19092 0.0
N491 N 0.03823 0.48718 0.28039 0.0
C492 C 0.95633 0.54325 0.21238 0.0
C493 C 1.01444 0.50967 0.2577 0.0
N494 N 0.93324 0.57377 0.26512 0.0
N495 N 0.04857 0.50033 0.20093 0.0
H496 H 0.03666 0.4848 0.30972 0.0
H497 H 0.05714 0.46821 0.27024 0.0
H498 H 0.05134 0.50141 0.17181 0.0
H499 H 0.07271 0.49208 0.21566 0.0
H500 H 0.91426 0.59049 0.24848 0.0
H501 H 0.9344 0.58106 0.29263 0.0
H502 H 0.90043 0.5604 0.20214 0.0
H503 H 0.92468 0.54889 0.16236 0.0
C504 C 0.36313 0.08577 0.05052 0.0
C505 C 0.35278 0.07672 0.08901 0.0
C506 C 0.40909 0.03594 0.09719 0.0
C507 C 0.42371 0.05422 0.06199 0.0
N508 N 0.41355 0.1 1.00618 0.0
N509 N 0.35373 0.0198 0.13545 0.0
C510 C 0.40042 0.08015 0.03904 0.0
C511 C 0.37253 0.04529 0.10921 0.0
N512 N 0.33627 0.09128 0.02364 0.0
N513 N 0.42936 0.00867 0.11892 0.0
H514 H 0.32501 0.02145 0.13954 0.0
H515 H 0.36485 0.99395 0.14883 0.0
H516 H 0.45297 0.99578 0.1093 0.0
H517 H 0.42297 0.99943 0.14705 0.0
H518 H 0.34234 0.09509 0.99488 0.0
H519 H 0.30826 0.08428 0.02994 0.0
H520 H 0.3981 0.12146 0.99031 0.0
H521 H 0.44081 0.0978 0.99691 0.0
C522 C 0.2522 1.00118 0.53467 0.0
C523 C 0.2666 0.96328 0.54602 0.0
C524 C 0.20389 0.93637 0.56212 0.0
C525 C 0.18974 0.97442 0.55189 0.0
N526 N 0.19732 0.04091 0.52182 0.0
N527 N 0.25667 0.8931 0.56298 0.0
C528 C 0.21303 1.00618 0.53586 0.0
C529 C 0.24247 0.9302 0.55709 0.0
N530 N 0.2762 0.03248 0.52426 0.0
N531 N 0.18046 0.9068 0.57821 0.0
H532 H 0.28497 0.88777 0.55998 0.0
H533 H 0.24034 0.86727 0.56801 0.0
H534 H 0.15192 0.91064 0.5815 0.0
H535 H 0.1893 0.87929 0.5901 0.0
H536 H 0.26809 0.06177 0.51965 0.0
H537 H 0.3049 0.02924 0.52154 0.0
H538 H 0.21202 0.06441 0.50681 0.0
H539 H 0.16865 0.04517 0.523 0.0
C540 C 0.88198 0.47734 0.94132 0.0
C541 C 0.85893 0.44835 0.9625 0.0
C542 C 0.90452 0.44583 1.01445 0.0
C543 C 0.92568 0.47734 0.99436 0.0
N544 N 0.92803 0.53017 0.94329 0.0
N545 N 0.84471 0.41042 0.02229 0.0
C546 C 0.91245 0.49513 0.95913 0.0
C547 C 0.86917 0.43415 1.00003 0.0
N548 N 0.87584 0.48689 0.90368 0.0
N549 N 0.91879 0.42588 0.04635 0.0
H550 H 0.81852 0.40174 1.01291 0.0
H551 H 0.84896 0.40236 0.05093 0.0
H552 H 0.94451 0.4334 0.05758 0.0
H553 H 0.90658 0.39995 0.05991 0.0
H554 H 0.89425 0.50476 0.88618 0.0
H555 H 0.85454 0.47381 0.8891 0.0
H556 H 0.91726 0.54641 0.91945 0.0
H557 H 0.9489 0.54518 0.95664 0.0
C558 C 0.75198 0.60472 0.51124 0.0
C559 C 0.77059 0.56907 0.50733 0.0
C560 C 0.71084 0.5356 0.49697 0.0
C561 C 0.69222 0.5706 0.50269 0.0
N562 N 0.69379 0.6343 0.52578 0.0
N563 N 0.76728 0.49828 0.5066 0.0
C564 C 0.71245 0.60389 0.51321 0.0
C565 C 0.74976 0.53366 0.50368 0.0
N566 N 0.77166 0.63978 0.51083 0.0
N567 N 0.69183 0.5052 0.48295 0.0
H568 H 0.79579 0.496 0.51204 0.0
H569 H 0.753 0.47108 0.50742 0.0
H570 H 0.6636 0.50638 0.47603 0.0
H571 H 0.70479 0.4805 0.47474 0.0
H572 H 0.75896 0.66709 0.50937 0.0
H573 H 0.80064 0.64211 0.50875 0.0
H574 H 0.70719 0.65779 0.5371 0.0
H575 H 0.6648 0.63382 0.52853 0.0
C576 C 0.08169 0.34352 0.06454 0.0
C577 C 0.1018 0.342 0.09889 0.0
C578 C 0.08805 0.412 0.10281 0.0
C579 C 0.06531 0.41256 0.07003 0.0
N580 N 0.03366 0.3755 0.02523 0.0
N581 N 0.11714 0.37226 0.1549 0.0
C582 C 0.0602 0.37731 0.05248 0.0
C583 C 0.10282 0.3755 0.11928 0.0
N584 N 0.08406 0.31321 0.0427 0.0
N585 N 0.0975 0.44649 0.11716 0.0
H586 H 0.1282 0.34616 0.16795 0.0
H587 H 0.11484 0.39425 0.17275 0.0
H588 H 0.08868 0.47418 0.10568 0.0
H589 H 0.11733 0.44824 0.13824 0.0
H590 H 0.07343 0.3146 1.01548 0.0
H591 H 0.0996 0.28811 0.05039 0.0
H592 H 0.02621 0.34951 1.01391 0.0
H593 H 1.01617 0.39887 1.01685 0.0
C594 C 0.56565 0.18202 0.94031 0.0
C595 C 0.60187 0.19186 0.95307 0.0
C596 C 0.60447 0.12626 0.98897 0.0
C597 C 0.56625 0.11858 0.98103 0.0
N598 N 0.50864 0.14325 0.95336 0.0
N599 N 0.65253 0.17606 0.99614 0.0
C600 C 0.54629 0.14756 0.95776 0.0
C601 C 0.62028 0.16482 0.97946 0.0
N602 N 0.55016 0.20473 0.91062 0.0
N603 N 0.62654 0.09614 1.00321 0.0
H604 H 0.66466 0.20437 0.99059 0.0
H605 H 0.66502 0.15855 1.01824 0.0
H606 H 0.61697 0.0668 1.00671 0.0
H607 H 0.65529 0.09953 1.00656 0.0
H608 H 0.52559 0.19655 0.89761 0.0
H609 H 0.56368 0.22971 0.89658 0.0
H610 H 0.49226 0.16551 0.9401 0.0
H611 H 0.4932 0.11905 0.96605 0.0
C612 C 0.99952 0.81141 0.51103 0.0
C613 C 1.01514 0.80072 0.47729 0.0
C614 C 0.04257 0.86775 0.46338 0.0
C615 C 1.02219 0.87967 0.49396 0.0
N616 N 0.97825 0.86414 0.54507 0.0
N617 N 0.0493 0.81892 0.41948 0.0
C618 C 0.99994 0.85182 0.51741 0.0
C619 C 0.03644 0.82884 0.45307 0.0
N620 N 0.98497 0.78272 0.53735 0.0
N621 N 0.06776 0.89357 0.44435 0.0
H622 H 0.04558 0.79065 0.4112 0.0
H623 H 0.06136 0.83931 0.39871 0.0
H624 H 0.07259 0.92231 0.45114 0.0
H625 H 0.08601 0.8856 0.42402 0.0
H626 H 0.97659 0.78817 0.56413 0.0
H627 H 0.98465 0.75267 0.53382 0.0
H628 H 0.95817 0.84606 0.56011 0.0
H629 H 0.9783 0.89336 0.55118 0.0
C630 C 0.5051 0.68441 0.60395 0.0
C631 C 0.48197 0.70856 0.57928 0.0
C632 C 0.46624 0.65204 0.54494 0.0
C633 C 0.49315 0.6296 0.56634 0.0
N634 N 0.54092 0.62475 0.61406 0.0
N635 N 0.44529 0.71749 0.52242 0.0
C636 C 0.51342 0.64588 0.59526 0.0
C637 C 0.4636 0.69291 0.54881 0.0
N638 N 0.51804 0.6978 0.63631 0.0
N639 N 0.44324 0.6344 0.52091 0.0
H640 H 0.44346 0.74787 0.52363 0.0
H641 H 0.43494 0.70851 0.49744 0.0
H642 H 0.44482 0.60468 0.51665 0.0
H643 H 0.42055 0.64836 0.50756 0.0
H644 H 0.53181 0.68007 0.6573 0.0
H645 H 0.51208 0.7257 0.64385 0.0
H646 H 0.55957 0.63679 0.63227 0.0
H647 H 0.54667 0.59573 0.60969 0.0
C648 C 0.91061 0.96437 0.65607 0.0
C649 C 0.92543 0.936 0.68393 0.0
C650 C 0.97777 0.92678 0.64135 0.0
C651 C 0.96497 0.95803 0.61499 0.0
N652 N 0.92361 0.01312 0.6026 0.0
N653 N 0.97772 0.89689 0.70625 0.0
C654 C 0.93258 0.97867 0.62382 0.0
C655 C 0.96042 0.91923 0.67749 0.0
N656 N 0.87501 0.97683 0.65967 0.0
N657 N 1.00525 0.90283 0.63146 0.0
H658 H 0.96635 0.89128 0.73327 0.0
H659 H 1.00496 0.88736 0.70434 0.0
H660 H 1.01799 0.9061 0.60505 0.0
H661 H 1.01271 0.87711 0.64812 0.0
H662 H 0.8613 0.99406 0.63822 0.0
H663 H 0.8579 0.96693 0.68263 0.0
H664 H 0.90255 0.03128 0.61006 0.0
H665 H 0.93964 0.02604 0.57992 0.0
C666 C 0.5152 0.07133 0.24195 0.0
C667 C 0.54308 0.06232 0.26943 0.0
C668 C 0.57582 0.02476 0.22572 0.0
C669 C 0.55219 0.04029 0.19644 0.0
N670 N 0.5018 0.08299 0.17541 0.0
N671 N 0.60341 0.03466 0.28555 0.0
C672 C 0.52207 0.06437 0.20419 0.0
C673 C 0.57415 0.03962 0.26111 0.0
N674 N 0.4824 0.08682 0.25197 0.0
N675 N 0.60002 0.99594 0.2194 0.0
H676 H 0.60449 0.04631 0.31124 0.0
H677 H 0.62831 0.02203 0.27875 0.0
H678 H 0.6013 0.98438 0.19361 0.0
H679 H 0.61576 0.98086 0.24064 0.0
H680 H 0.45973 0.09075 0.23382 0.0
H681 H 0.47665 0.09196 0.2796 0.0
H682 H 0.482 0.104 0.17934 0.0
H683 H 0.50713 0.08046 0.14716 0.0
C684 C 0.45285 0.60503 0.38315 0.0
C685 C 0.43363 0.57542 0.36496 0.0
C686 C 0.45306 0.52455 0.41527 0.0
C687 C 0.47032 0.55447 0.43462 0.0
N688 N 0.48271 0.62372 0.43973 0.0
N689 N 0.41134 0.50787 0.36553 0.0
C690 C 0.46931 0.59486 0.41919 0.0
C691 C 0.43243 0.53544 0.38168 0.0
N692 N 0.45574 0.64295 0.36568 0.0
N693 N 0.45805 0.48556 0.42797 0.0
H694 H 0.39728 0.51429 0.34012 0.0
H695 H 0.40558 0.47934 0.37845 0.0
H696 H 0.47344 0.47638 0.45198 0.0
H697 H 0.44979 0.46222 0.41312 0.0
H698 H 0.47329 0.66479 0.37479 0.0
H699 H 0.4421 0.65225 0.34059 0.0
H700 H 0.47873 0.65381 0.43247 0.0
H701 H 0.49557 0.61763 0.46581 0.0
C702 C 0.1261 0.43733 0.81881 0.0
C703 C 0.11119 0.39809 0.81914 0.0
C704 C 0.08423 0.40091 0.88161 0.0
C705 C 0.09688 0.44085 0.87994 0.0
N706 N 0.13796 0.49345 0.85411 0.0
N707 N 0.08581 0.33878 0.85421 0.0
C708 C 0.1211 0.4575 0.851 0.0
C709 C 0.09368 0.37852 0.85192 0.0
N710 N 0.1424 0.4563 0.78688 0.0
N711 N 0.0611 0.38556 0.91029 0.0
H712 H 0.0926 0.32194 0.83264 0.0
H713 H 0.07563 0.322 0.87843 0.0
H714 H 0.05468 0.40123 0.93278 0.0
H715 H 0.04721 0.35818 0.91115 0.0
H716 H 0.14998 0.48626 0.78355 0.0
H717 H 0.14654 0.44273 0.76257 0.0
H718 H 0.15835 0.50648 0.83557 0.0
H719 H 0.13371 0.50849 0.87758 0.0
C720 C 0.68455 0.95238 0.98492 0.0
C721 C 0.67879 0.92999 0.95412 0.0
C722 C 0.61108 0.93152 0.96518 0.0
C723 C 0.61631 0.9601 0.99114 0.0
N724 N 0.66057 0.99931 0.02403 0.0
N725 N 0.63554 0.90322 0.91134 0.0
C726 C 0.65373 0.97077 1.00081 0.0
C727 C 0.64174 0.92096 0.94327 0.0
N728 N 0.71941 0.95496 1.0001 0.0
N729 N 0.57719 0.91252 0.9629 0.0
H730 H 0.65708 0.89541 0.89425 0.0
H731 H 0.60902 0.89982 0.89998 0.0
H732 H 0.55504 0.91621 0.98099 0.0
H733 H 0.57267 0.88924 0.9467 0.0
H734 H 0.7247 0.96681 0.02524 0.0
H735 H 0.74251 0.94167 0.98967 0.0
H736 H 0.68693 0.01227 0.02701 0.0
H737 H 0.64015 0.01198 0.03886 0.0
C738 C 0.80413 0.07524 0.48556 0.0
C739 C 0.78887 0.08499 0.44917 0.0
C740 C 0.84168 0.05568 0.42013 0.0
C741 C 0.85626 0.04492 0.45643 0.0
N742 N 0.85568 0.04791 0.52329 0.0
N743 N 0.79475 0.09087 0.38155 0.0
C744 C 0.83887 0.05609 0.48906 0.0
C745 C 0.80833 0.07737 0.41627 0.0
N746 N 0.7846 0.08315 0.51663 0.0
N747 N 0.85934 0.04368 0.38968 0.0
H748 H 0.7699 0.10604 0.37782 0.0
H749 H 0.80891 0.08927 0.35639 0.0
H750 H 0.8845 0.02887 0.39205 0.0
H751 H 0.84873 0.04679 0.36246 0.0
H752 H 0.79186 0.07337 0.54421 0.0
H753 H 0.75991 0.09877 0.51488 0.0
H754 H 0.84663 0.05802 0.54802 0.0
H755 H 0.88028 0.03231 0.52683 0.0
C756 C 0.16885 0.60882 0.07556 0.0
C757 C 0.1964 0.58052 0.08638 0.0
C758 C 0.15888 0.52949 0.05859 0.0
C759 C 0.13165 0.55805 0.04728 0.0
N760 N 0.11501 0.62627 0.03647 0.0
N761 N 0.22114 0.51591 0.08289 0.0
C762 C 0.13794 0.59816 0.05335 0.0
C763 C 0.19249 0.54145 0.07615 0.0
N764 N 0.17186 0.64571 0.08718 0.0
N765 N 0.15195 0.49061 0.05395 0.0
H766 H 0.24549 0.52316 0.09686 0.0
H767 H 0.22205 0.48859 0.0725 0.0
H768 H 0.12858 0.48094 0.0399 0.0
H769 H 0.16811 0.4675 0.06584 0.0
H770 H 0.15072 0.66619 0.084 0.0
H771 H 0.19461 0.65503 0.10243 0.0
H772 H 0.11955 0.65658 0.03689 0.0
H773 H 0.09353 0.61928 1.01849 0.0
C774 C 0.28977 0.46152 0.60235 0.0
C775 C 0.27239 0.455 0.56773 0.0
C776 C 0.3325 0.46492 0.53509 0.0
C777 C 0.34948 0.47214 0.56951 0.0
N778 N 0.34384 0.48794 0.63283 0.0
N779 N 0.27493 0.45972 0.50006 0.0
C780 C 0.32775 0.47416 0.60208 0.0
C781 C 0.29307 0.45994 0.53363 0.0
N782 N 0.271 0.45293 0.63574 0.0
N783 N 0.35422 0.46039 0.50456 0.0
H784 H 0.24598 0.45618 0.49836 0.0
H785 H 0.28804 0.4666 0.47403 0.0
H786 H 0.38323 0.46339 0.50487 0.0
H787 H 0.34378 0.45087 0.47985 0.0
H788 H 0.28379 0.45292 0.66189 0.0
H789 H 0.2434 0.4425 0.63771 0.0
H790 H 0.32878 0.49364 0.65646 0.0
H791 H 0.37181 0.49735 0.63298 0.0
C792 C 0.94513 0.65421 0.92831 0.0
C793 C 0.94683 0.68989 0.94537 0.0
C794 C 0.99372 0.65983 0.98952 0.0
C795 C 0.99349 0.62527 0.97037 0.0
N796 N 0.98236 0.60219 0.90961 0.0
N797 N 0.98112 0.72996 0.98602 0.0
C798 C 0.97333 0.6261 0.93612 0.0
C799 C 0.97342 0.69369 0.97443 0.0
N800 N 0.91625 0.64652 0.9051 0.0
N801 N 1.01454 0.66105 1.02129 0.0
H802 H 0.96853 0.75575 0.97435 0.0
H803 H 1.00273 0.73525 1.00442 0.0
H804 H 0.03399 0.63971 0.02976 0.0
H805 H 1.01192 0.68276 0.03939 0.0
H806 H 0.91281 0.61947 0.89422 0.0
H807 H 0.89373 0.6652 0.90034 0.0
H808 H 0.96916 0.60351 0.88352 0.0
H809 H 1.00686 0.58655 0.91088 0.0
C810 C 0.48558 0.8385 0.10111 0.0
C811 C 0.44614 0.83323 0.1015 0.0
C812 C 0.43955 0.90151 0.07195 0.0
C813 C 0.47905 0.90598 0.06943 0.0
N814 N 0.53971 0.87723 0.07579 0.0
N815 N 0.38543 0.85724 0.08317 0.0
C816 C 0.50212 0.87408 0.08254 0.0
C817 C 0.42309 0.86403 0.08563 0.0
N818 N 0.50718 0.80968 0.11902 0.0
N819 N 0.41777 0.93357 0.0628 0.0
H820 H 0.37212 0.83078 0.09424 0.0
H821 H 0.3676 0.87665 0.06791 0.0
H822 H 0.42856 0.96137 0.05217 0.0
H823 H 0.38928 0.93362 0.06841 0.0
H824 H 0.53566 0.81345 0.12363 0.0
H825 H 0.49618 0.78266 0.13164 0.0
H826 H 0.55765 0.8537 0.08091 0.0
H827 H 0.55273 0.90269 0.06204 0.0
C828 C 1.01399 0.17589 0.52637 0.0
C829 C 0.02431 0.17974 0.56409 0.0
C830 C 1.01519 0.10832 0.58059 0.0
C831 C 1.01113 0.1038 0.54184 0.0
N832 N 1.00842 0.1327 0.47704 0.0
N833 N 0.03757 0.14969 0.62702 0.0
C834 C 1.01033 0.13745 0.51446 0.0
C835 C 0.02517 0.14604 0.59136 0.0
N836 N 1.00769 0.20906 0.50209 0.0
N837 N 1.00909 0.0765 0.60712 0.0
H838 H 0.04478 0.17682 0.63636 0.0
H839 H 0.0433 0.12557 0.64663 0.0
H840 H 1.0017 0.0484 0.60017 0.0
H841 H 1.00781 0.07869 0.63591 0.0
H842 H 0.99673 0.2083 0.47521 0.0
H843 H 1.01032 0.23755 0.51016 0.0
H844 H 1.01231 0.15586 0.45559 0.0
H845 H 1.00543 0.1051 0.46719 0.0
C846 C 0.57175 0.37847 0.45834 0.0
C847 C 0.55931 0.34412 0.48189 0.0
C848 C 0.54007 0.38567 0.52944 0.0
C849 C 0.54705 0.41995 0.50358 0.0
N850 N 0.56225 0.44805 0.43993 0.0
N851 N 0.52375 0.31588 0.53641 0.0
C852 C 0.56097 0.41623 0.46701 0.0
C853 C 0.54115 0.34792 0.51649 0.0
N854 N 0.59486 0.3753 0.42848 0.0
N855 N 0.53397 0.38893 0.56669 0.0
H856 H 0.52252 0.28789 0.52714 0.0
H857 H 0.5072 0.31814 0.56002 0.0
H858 H 0.53535 0.41594 0.57787 0.0
H859 H 0.53198 0.36448 0.5871 0.0
H860 H 0.60745 0.3998 0.41273 0.0
H861 H 0.60457 0.34828 0.42192 0.0
H862 H 0.56877 0.44566 0.41188 0.0
H863 H 0.55301 0.47593 0.44439 0.0
loop_
_geom_bond_atom_site_label_1
_geom_bond_atom_site_label_2
_geom_bond_distance
_geom_bond_site_symmetry_2
_ccdc_geom_bond_type
C0 C1 1.386 . S
C0 C2 1.397 . S
C0 H24 0.931 . S
C1 C0 1.386 . S
C1 C5 1.397 . S
C2 C0 1.397 . S
C2 C3 1.384 . S
C2 H25 0.930 . S
C3 C2 1.384 . S
C3 C4 1.377 . S
C3 C6 1.481 . S
C4 C3 1.377 . S
C4 C5 1.389 . S
C4 H26 0.929 . S
C5 C1 1.397 . S
C5 C4 1.389 . S
C5 H27 0.931 . S
C6 C3 1.481 . S
C6 C7 1.387 . S
C6 C11 1.390 . S
C7 C6 1.387 . S
C7 C8 1.401 . S
C7 H28 0.930 . S
C8 C7 1.401 . S
C8 C9 1.376 . S
C8 C17 1.511 . S
C9 C8 1.376 . S
C9 C10 1.392 . S
C9 H30 0.931 . S
C10 C9 1.392 . S
C10 C11 1.361 . S
C10 C12 1.500 . S
C11 C6 1.390 . S
C11 C10 1.361 . S
C11 H29 0.931 . S
C12 C10 1.500 . S
C12 C13 1.371 . S
C12 C14 1.365 . S
C13 C12 1.371 . S
C13 C23 1.386 . S
C13 H31 0.931 . S
C14 C12 1.365 . S
C14 C15 1.409 . S
C14 H32 0.929 . S
C15 C14 1.409 . S
C15 C16 1.380 . S
C15 H33 0.930 . S
C16 C15 1.380 . S
C16 C23 1.357 . S
C17 C8 1.511 . S
C17 C18 1.341 . S
C17 C19 1.371 . S
C18 C17 1.341 . S
C18 C22 1.394 . S
C18 H34 0.930 . S
C19 C17 1.371 . S
C19 C20 1.392 . S
C19 H35 0.931 . S
C20 C19 1.392 . S
C20 C21 1.331 . S
C20 H38 0.932 . S
C21 C20 1.331 . S
C21 C22 1.336 . S
C22 C18 1.394 . S
C22 C21 1.336 . S
C22 H37 0.929 . S
C23 C13 1.386 . S
C23 C16 1.357 . S
C23 H36 0.928 . S
H24 C0 0.931 . S
H25 C2 0.930 . S
H26 C4 0.929 . S
H27 C5 0.931 . S
H28 C7 0.930 . S
H29 C11 0.931 . S
H30 C9 0.931 . S
H31 C13 0.931 . S
H32 C14 0.929 . S
H33 C15 0.930 . S
H34 C18 0.930 . S
H35 C19 0.931 . S
H36 C23 0.928 . S
H37 C22 0.929 . S
H38 C20 0.932 . S
C39 C40 1.386 . S
C39 C41 1.397 . S
C39 H63 0.931 . S
C40 C39 1.386 . S
C40 C44 1.397 . S
C41 C39 1.397 . S
C41 C42 1.384 . S
C41 H64 0.930 . S
C42 C41 1.384 . S
C42 C43 1.377 . S
C42 C45 1.481 . S
C43 C42 1.377 . S
C43 C44 1.389 . S
C43 H65 0.929 . S
C44 C40 1.397 . S
C44 C43 1.389 . S
C44 H66 0.931 . S
C45 C42 1.481 . S
C45 C46 1.387 . S
C45 C50 1.390 . S
C46 C45 1.387 . S
C46 C47 1.401 . S
C46 H67 0.930 . S
C47 C46 1.401 . S
C47 C48 1.376 . S
C47 C56 1.511 . S
C48 C47 1.376 . S
C48 C49 1.392 . S
C48 H69 0.931 . S
C49 C48 1.392 . S
C49 C50 1.361 . S
C49 C51 1.500 . S
C50 C45 1.390 . S
C50 C49 1.361 . S
C50 H68 0.931 . S
C51 C49 1.500 . S
C51 C52 1.371 . S
C51 C53 1.365 . S
C52 C51 1.371 . S
C52 C62 1.386 . S
C52 H70 0.931 . S
C53 C51 1.365 . S
C53 C54 1.409 . S
C53 H71 0.929 . S
C54 C53 1.409 . S
C54 C55 1.380 . S
C54 H72 0.930 . S
C55 C54 1.380 . S
C55 C62 1.357 . S
C56 C47 1.511 . S
C56 C57 1.341 . S
C56 C58 1.371 . S
C57 C56 1.341 . S
C57 C61 1.394 . S
C57 H73 0.930 . S
C58 C56 1.371 . S
C58 C59 1.392 . S
C58 H74 0.931 . S
C59 C58 1.392 . S
C59 C60 1.331 . S
C59 H77 0.932 . S
C60 C59 1.331 . S
C60 C61 1.336 . S
C61 C57 1.394 . S
C61 C60 1.336 . S
C61 H76 0.929 . S
C62 C52 1.386 . S
C62 C55 1.357 . S
C62 H75 0.928 . S
H63 C39 0.931 . S
H64 C41 0.930 . S
H65 C43 0.929 . S
H66 C44 0.931 . S
H67 C46 0.930 . S
H68 C50 0.931 . S
H69 C48 0.931 . S
H70 C52 0.931 . S
H71 C53 0.929 . S
H72 C54 0.930 . S
H73 C57 0.930 . S
H74 C58 0.931 . S
H75 C62 0.928 . S
H76 C61 0.929 . S
H77 C59 0.932 . S
C78 C79 1.386 . S
C78 C80 1.397 . S
C78 H102 0.931 . S
C79 C78 1.386 . S
C79 C83 1.397 . S
C80 C78 1.397 . S
C80 C81 1.384 . S
C80 H103 0.930 . S
C81 C80 1.384 . S
C81 C82 1.377 . S
C81 C84 1.481 . S
C82 C81 1.377 . S
C82 C83 1.389 . S
C82 H104 0.929 . S
C83 C79 1.397 . S
C83 C82 1.389 . S
C83 H105 0.931 . S
C84 C81 1.481 . S
C84 C85 1.387 . S
C84 C89 1.390 . S
C85 C84 1.387 . S
C85 C86 1.401 . S
C85 H106 0.930 . S
C86 C85 1.401 . S
C86 C87 1.376 . S
C86 C95 1.511 . S
C87 C86 1.376 . S
C87 C88 1.392 . S
C87 H108 0.931 . S
C88 C87 1.392 . S
C88 C89 1.361 . S
C88 C90 1.500 . S
C89 C84 1.390 . S
C89 C88 1.361 . S
C89 H107 0.931 . S
C90 C88 1.500 . S
C90 C91 1.371 . S
C90 C92 1.365 . S
C91 C90 1.371 . S
C91 C101 1.386 . S
C91 H109 0.931 . S
C92 C90 1.365 . S
C92 C93 1.409 . S
C92 H110 0.929 . S
C93 C92 1.409 . S
C93 C94 1.380 . S
C93 H111 0.930 . S
C94 C93 1.380 . S
C94 C101 1.357 . S
C95 C86 1.511 . S
C95 C96 1.341 . S
C95 C97 1.371 . S
C96 C95 1.341 . S
C96 C100 1.394 . S
C96 H112 0.930 . S
C97 C95 1.371 . S
C97 C98 1.392 . S
C97 H113 0.931 . S
C98 C97 1.392 . S
C98 C99 1.331 . S
C98 H116 0.932 . S
C99 C98 1.331 . S
C99 C100 1.336 . S
C100 C96 1.394 . S
C100 C99 1.336 . S
C100 H115 0.929 . S
C101 C91 1.386 . S
C101 C94 1.357 . S
C101 H114 0.928 . S
H102 C78 0.931 . S
H103 C80 0.930 . S
H104 C82 0.929 . S
H105 C83 0.931 . S
H106 C85 0.930 . S
H107 C89 0.931 . S
H108 C87 0.931 . S
H109 C91 0.931 . S
H110 C92 0.929 . S
H111 C93 0.930 . S
H112 C96 0.930 . S
H113 C97 0.931 . S
H114 C101 0.928 . S
H115 C100 0.929 . S
H116 C98 0.932 . S
C117 C118 1.386 . S
C117 C119 1.397 . S
C117 H141 0.931 . S
C118 C117 1.386 . S
C118 C122 1.397 . S
C119 C117 1.397 . S
C119 C120 1.384 . S
C119 H142 0.930 . S
C120 C119 1.384 . S
C120 C121 1.377 . S
C120 C123 1.481 . S
C121 C120 1.377 . S
C121 C122 1.389 . S
C121 H143 0.929 . S
C122 C118 1.397 . S
C122 C121 1.389 . S
C122 H144 0.931 1_655 S
C123 C120 1.481 . S
C123 C124 1.387 . S
C123 C128 1.390 . S
C124 C123 1.387 . S
C124 C125 1.401 . S
C124 H145 0.930 . S
C125 C124 1.401 . S
C125 C126 1.376 . S
C125 C134 1.511 . S
C126 C125 1.376 . S
C126 C127 1.392 . S
C126 H147 0.931 . S
C127 C126 1.392 . S
C127 C128 1.361 . S
C127 C129 1.500 . S
C128 C123 1.390 . S
C128 C127 1.361 . S
C128 H146 0.931 . S
C129 C127 1.500 . S
C129 C130 1.371 . S
C129 C131 1.365 . S
C130 C129 1.371 . S
C130 C140 1.386 . S
C130 H148 0.931 . S
C131 C129 1.365 . S
C131 C132 1.409 . S
C131 H149 0.929 . S
C132 C131 1.409 . S
C132 C133 1.380 . S
C132 H150 0.930 1_655 S
C133 C132 1.380 . S
C133 C140 1.357 . S
C134 C125 1.511 . S
C134 C135 1.341 . S
C134 C136 1.371 . S
C135 C134 1.341 . S
C135 C139 1.394 . S
C135 H151 0.930 . S
C136 C134 1.371 . S
C136 C137 1.392 . S
C136 H152 0.931 . S
C137 C136 1.392 . S
C137 C138 1.331 . S
C137 H155 0.932 . S
C138 C137 1.331 . S
C138 C139 1.336 . S
C139 C135 1.394 . S
C139 C138 1.336 . S
C139 H154 0.929 . S
C140 C130 1.386 . S
C140 C133 1.357 . S
C140 H153 0.928 . S
H141 C117 0.931 . S
H142 C119 0.930 . S
H143 C121 0.929 . S
H144 C122 0.931 1_455 S
H145 C124 0.930 . S
H146 C128 0.931 . S
H147 C126 0.931 . S
H148 C130 0.931 . S
H149 C131 0.929 . S
H150 C132 0.930 1_455 S
H151 C135 0.930 . S
H152 C136 0.931 . S
H153 C140 0.928 . S
H154 C139 0.929 . S
H155 C137 0.932 . S
C156 C157 1.386 . S
C156 C158 1.397 . S
C156 H180 0.931 . S
C157 C156 1.386 . S
C157 C161 1.397 . S
C158 C156 1.397 . S
C158 C159 1.384 . S
C158 H181 0.930 . S
C159 C158 1.384 . S
C159 C160 1.377 . S
C159 C162 1.481 . S
C160 C159 1.377 . S
C160 C161 1.389 . S
C160 H182 0.929 . S
C161 C157 1.397 . S
C161 C160 1.389 . S
C161 H183 0.931 . S
C162 C159 1.481 . S
C162 C163 1.387 . S
C162 C167 1.390 . S
C163 C162 1.387 . S
C163 C164 1.401 . S
C163 H184 0.930 . S
C164 C163 1.401 . S
C164 C165 1.376 . S
C164 C173 1.511 . S
C165 C164 1.376 . S
C165 C166 1.392 . S
C165 H186 0.931 . S
C166 C165 1.392 . S
C166 C167 1.361 . S
C166 C168 1.500 . S
C167 C162 1.390 . S
C167 C166 1.361 . S
C167 H185 0.931 . S
C168 C166 1.500 . S
C168 C169 1.371 . S
C168 C170 1.365 . S
C169 C168 1.371 . S
C169 C179 1.386 . S
C169 H187 0.931 . S
C170 C168 1.365 . S
C170 C171 1.409 . S
C170 H188 0.929 . S
C171 C170 1.409 . S
C171 C172 1.380 . S
C171 H189 0.930 . S
C172 C171 1.380 . S
C172 C179 1.357 . S
C173 C164 1.511 . S
C173 C174 1.341 . S
C173 C175 1.371 . S
C174 C173 1.341 . S
C174 C178 1.394 . S
C174 H190 0.930 . S
C175 C173 1.371 . S
C175 C176 1.392 . S
C175 H191 0.931 . S
C176 C175 1.392 . S
C176 C177 1.331 . S
C176 H194 0.932 . S
C177 C176 1.331 . S
C177 C178 1.336 . S
C178 C174 1.394 . S
C178 C177 1.336 . S
C178 H193 0.929 . S
C179 C169 1.386 . S
C179 C172 1.357 . S
C179 H192 0.928 . S
H180 C156 0.931 . S
H181 C158 0.930 . S
H182 C160 0.929 . S
H183 C161 0.931 . S
H184 C163 0.930 . S
H185 C167 0.931 . S
H186 C165 0.931 . S
H187 C169 0.931 . S
H188 C170 0.929 . S
H189 C171 0.930 . S
H190 C174 0.930 . S
H191 C175 0.931 . S
H192 C179 0.928 . S
H193 C178 0.929 . S
H194 C176 0.932 . S
C195 C196 1.386 . S
C195 C197 1.397 . S
C195 H219 0.931 . S
C196 C195 1.386 . S
C196 C200 1.397 . S
C197 C195 1.397 . S
C197 C198 1.384 . S
C197 H220 0.930 . S
C198 C197 1.384 . S
C198 C199 1.377 . S
C198 C201 1.481 . S
C199 C198 1.377 . S
C199 C200 1.389 . S
C199 H221 0.929 . S
C200 C196 1.397 . S
C200 C199 1.389 . S
C200 H222 0.931 . S
C201 C198 1.481 . S
C201 C202 1.387 . S
C201 C206 1.390 . S
C202 C201 1.387 . S
C202 C203 1.401 . S
C202 H223 0.930 . S
C203 C202 1.401 . S
C203 C204 1.376 . S
C203 C212 1.511 . S
C204 C203 1.376 . S
C204 C205 1.392 . S
C204 H225 0.931 . S
C205 C204 1.392 . S
C205 C206 1.361 . S
C205 C207 1.500 . S
C206 C201 1.390 . S
C206 C205 1.361 . S
C206 H224 0.931 . S
C207 C205 1.500 . S
C207 C208 1.371 . S
C207 C209 1.365 . S
C208 C207 1.371 . S
C208 C218 1.386 . S
C208 H226 0.931 . S
C209 C207 1.365 . S
C209 C210 1.409 . S
C209 H227 0.929 . S
C210 C209 1.409 . S
C210 C211 1.380 . S
C210 H228 0.930 . S
C211 C210 1.380 . S
C211 C218 1.357 . S
C212 C203 1.511 . S
C212 C213 1.341 . S
C212 C214 1.371 . S
C213 C212 1.341 . S
C213 C217 1.394 . S
C213 H229 0.930 . S
C214 C212 1.371 . S
C214 C215 1.392 . S
C214 H230 0.931 . S
C215 C214 1.392 . S
C215 C216 1.331 . S
C215 H233 0.932 . S
C216 C215 1.331 . S
C216 C217 1.336 . S
C217 C213 1.394 . S
C217 C216 1.336 . S
C217 H232 0.929 . S
C218 C208 1.386 . S
C218 C211 1.357 . S
C218 H231 0.928 . S
H219 C195 0.931 . S
H220 C197 0.930 . S
H221 C199 0.929 . S
H222 C200 0.931 . S
H223 C202 0.930 . S
H224 C206 0.931 . S
H225 C204 0.931 . S
H226 C208 0.931 . S
H227 C209 0.929 . S
H228 C210 0.930 . S
H229 C213 0.930 . S
H230 C214 0.931 . S
H231 C218 0.928 . S
H232 C217 0.929 . S
H233 C215 0.932 . S
C234 C235 1.386 . S
C234 C236 1.397 . S
C234 H258 0.931 . S
C235 C234 1.386 . S
C235 C239 1.397 . S
C236 C234 1.397 . S
C236 C237 1.384 . S
C236 H259 0.930 . S
C237 C236 1.384 . S
C237 C238 1.377 . S
C237 C240 1.481 . S
C238 C237 1.377 . S
C238 C239 1.389 . S
C238 H260 0.929 . S
C239 C235 1.397 . S
C239 C238 1.389 . S
C239 H261 0.931 . S
C240 C237 1.481 . S
C240 C241 1.387 . S
C240 C245 1.390 . S
C241 C240 1.387 . S
C241 C242 1.401 . S
C241 H262 0.930 . S
C242 C241 1.401 . S
C242 C243 1.376 . S
C242 C251 1.511 . S
C243 C242 1.376 . S
C243 C244 1.392 . S
C243 H264 0.931 . S
C244 C243 1.392 . S
C244 C245 1.361 . S
C244 C246 1.500 . S
C245 C240 1.390 . S
C245 C244 1.361 . S
C245 H263 0.931 . S
C246 C244 1.500 . S
C246 C247 1.371 . S
C246 C248 1.365 . S
C247 C246 1.371 . S
C247 C257 1.386 . S
C247 H265 0.931 . S
C248 C246 1.365 . S
C248 C249 1.409 . S
C248 H266 0.929 . S
C249 C248 1.409 . S
C249 C250 1.380 . S
C249 H267 0.930 . S
C250 C249 1.380 . S
C250 C257 1.357 . S
C251 C242 1.511 . S
C251 C252 1.341 . S
C251 C253 1.371 . S
C252 C251 1.341 . S
C252 C256 1.394 . S
C252 H268 0.930 . S
C253 C251 1.371 . S
C253 C254 1.392 . S
C253 H269 0.931 . S
C254 C253 1.392 . S
C254 C255 1.331 . S
C254 H272 0.932 . S
C255 C254 1.331 . S
C255 C256 1.336 . S
C256 C252 1.394 . S
C256 C255 1.336 . S
C256 H271 0.929 . S
C257 C247 1.386 . S
C257 C250 1.357 . S
C257 H270 0.928 . S
H258 C234 0.931 . S
H259 C236 0.930 . S
H260 C238 0.929 . S
H261 C239 0.931 . S
H262 C241 0.930 . S
H263 C245 0.931 . S
H264 C243 0.931 . S
H265 C247 0.931 . S
H266 C248 0.929 . S
H267 C249 0.930 . S
H268 C252 0.930 . S
H269 C253 0.931 . S
H270 C257 0.928 . S
H271 C256 0.929 . S
H272 C254 0.932 . S
C273 C274 1.386 . S
C273 C275 1.397 . S
C273 H297 0.931 . S
C274 C273 1.386 . S
C274 C278 1.397 . S
C275 C273 1.397 . S
C275 C276 1.384 . S
C275 H298 0.930 . S
C276 C275 1.384 . S
C276 C277 1.377 . S
C276 C279 1.481 . S
C277 C276 1.377 . S
C277 C278 1.389 . S
C277 H299 0.929 . S
C278 C274 1.397 . S
C278 C277 1.389 . S
C278 H300 0.931 1_455 S
C279 C276 1.481 . S
C279 C280 1.387 . S
C279 C284 1.390 . S
C280 C279 1.387 . S
C280 C281 1.401 . S
C280 H301 0.930 . S
C281 C280 1.401 . S
C281 C282 1.376 . S
C281 C290 1.511 . S
C282 C281 1.376 . S
C282 C283 1.392 . S
C282 H303 0.931 . S
C283 C282 1.392 . S
C283 C284 1.361 . S
C283 C285 1.500 . S
C284 C279 1.390 . S
C284 C283 1.361 . S
C284 H302 0.931 . S
C285 C283 1.500 . S
C285 C286 1.371 . S
C285 C287 1.365 . S
C286 C285 1.371 . S
C286 C296 1.386 . S
C286 H304 0.931 . S
C287 C285 1.365 . S
C287 C288 1.409 . S
C287 H305 0.929 . S
C288 C287 1.409 . S
C288 C289 1.380 . S
C288 H306 0.930 1_455 S
C289 C288 1.380 . S
C289 C296 1.357 . S
C290 C281 1.511 . S
C290 C291 1.341 . S
C290 C292 1.371 . S
C291 C290 1.341 . S
C291 C295 1.394 . S
C291 H307 0.930 . S
C292 C290 1.371 . S
C292 C293 1.392 . S
C292 H308 0.931 . S
C293 C292 1.392 . S
C293 C294 1.331 . S
C293 H311 0.932 . S
C294 C293 1.331 . S
C294 C295 1.336 . S
C295 C291 1.394 . S
C295 C294 1.336 . S
C295 H310 0.929 . S
C296 C286 1.386 . S
C296 C289 1.357 . S
C296 H309 0.928 . S
H297 C273 0.931 . S
H298 C275 0.930 . S
H299 C277 0.929 . S
H300 C278 0.931 1_655 S
H301 C280 0.930 . S
H302 C284 0.931 . S
H303 C282 0.931 . S
H304 C286 0.931 . S
H305 C287 0.929 . S
H306 C288 0.930 1_655 S
H307 C291 0.930 . S
H308 C292 0.931 . S
H309 C296 0.928 . S
H310 C295 0.929 . S
H311 C293 0.932 . S
Co312 N317 2.057 . S
Co312 O329 2.021 . S
Co312 O332 2.062 . S
Co312 O336 2.117 1_545 S
Co312 O337 2.020 1_545 S
C313 O333 1.259 1_655 S
C313 O336 1.258 . S
Co314 N323 2.057 . S
Co314 O330 2.117 1_565 S
Co314 O331 2.020 1_565 S
Co314 O333 2.021 . S
Co314 O338 2.062 . S
C315 N317 1.316 . S
C315 N318 1.347 . S
C315 H320 0.931 . S
C316 N317 1.375 1_565 S
C316 C319 1.350 1_565 S
C316 H321 0.930 . S
N317 Co312 2.057 . S
N317 C315 1.316 . S
N317 C316 1.375 1_545 S
N318 C315 1.347 . S
N318 C319 1.373 . S
C319 C316 1.350 1_545 S
C319 N318 1.373 . S
C319 H340 0.931 1_545 S
H320 C315 0.931 . S
H321 C316 0.930 . S
C322 O329 1.259 1_455 S
C322 O330 1.258 . S
N323 Co314 2.057 . S
N323 C324 1.316 . S
N323 C325 1.375 1_565 S
C324 N323 1.316 . S
C324 N326 1.347 . S
C324 H335 0.931 . S
C325 N323 1.375 1_545 S
C325 C327 1.350 1_545 S
C325 H334 0.930 . S
N326 C324 1.347 . S
N326 C327 1.373 . S
C327 C325 1.350 1_565 S
C327 N326 1.373 . S
C327 H341 0.931 1_565 S
C328 O331 1.256 . S
C328 O332 1.255 1_455 S
O329 Co312 2.021 . S
O329 C322 1.259 1_655 S
O330 Co314 2.117 1_545 S
O330 C322 1.258 . S
O331 Co314 2.020 1_545 S
O331 C328 1.256 . S
O332 Co312 2.062 . S
O332 C328 1.255 1_655 S
O333 C313 1.259 1_455 S
O333 Co314 2.021 . S
H334 C325 0.930 . S
H335 C324 0.931 . S
O336 Co312 2.117 1_565 S
O336 C313 1.258 . S
O337 Co312 2.020 1_565 S
O337 C339 1.256 . S
O338 Co314 2.062 . S
O338 C339 1.255 1_455 S
C339 O337 1.256 . S
C339 O338 1.255 1_655 S
H340 C319 0.931 1_565 S
H341 C327 0.931 1_545 S
Co342 N347 2.057 . S
Co342 O359 2.021 1_565 S
Co342 O362 2.062 . S
Co342 O366 2.103 1_556 S
Co342 O367 2.020 1_565 S
C343 O363 1.259 . S
C343 O366 1.281 . S
Co344 N353 2.057 . S
Co344 O360 2.117 . S
Co344 O361 2.020 1_545 S
Co344 O363 2.021 1_545 S
Co344 O368 2.062 . S
C345 N347 1.316 . S
C345 N348 1.347 . S
C345 H350 0.931 1_565 S
C346 N347 1.375 . S
C346 C349 1.350 . S
C346 H351 0.930 . S
N347 Co342 2.057 . S
N347 C345 1.316 . S
N347 C346 1.375 . S
N348 C345 1.347 . S
N348 C349 1.373 . S
C349 C346 1.350 . S
C349 N348 1.373 . S
C349 H370 0.931 . S
H350 C345 0.931 1_545 S
H351 C346 0.930 . S
C352 O359 1.259 . S
C352 O360 1.258 1_556 S
N353 Co344 2.057 . S
N353 C354 1.316 . S
N353 C355 1.375 . S
C354 N353 1.316 . S
C354 N356 1.347 . S
C354 H365 0.931 1_545 S
C355 N353 1.375 . S
C355 C357 1.350 . S
C355 H364 0.930 . S
N356 C354 1.347 . S
N356 C357 1.373 . S
C357 C355 1.350 . S
C357 N356 1.373 . S
C357 H371 0.931 . S
C358 O361 1.256 1_556 S
C358 O362 1.255 . S
O359 Co342 2.021 1_545 S
O359 C352 1.259 . S
O360 Co344 2.117 . S
O360 C352 1.258 1_554 S
O361 Co344 2.020 1_565 S
O361 C358 1.256 1_554 S
O362 Co342 2.062 . S
O362 C358 1.255 . S
O363 C343 1.259 . S
O363 Co344 2.021 1_565 S
H364 C355 0.930 . S
H365 C354 0.931 1_565 S
O366 Co342 2.103 1_554 S
O366 C343 1.281 . S
O367 Co342 2.020 1_545 S
O367 C369 1.256 1_556 S
O368 Co344 2.062 . S
O368 C369 1.255 . S
C369 O367 1.256 1_554 S
C369 O368 1.255 . S
H370 C349 0.931 . S
H371 C357 0.931 . S
Co372 N377 2.057 . S
Co372 O389 2.021 . S
Co372 O392 2.062 . S
Co372 O396 2.117 . S
Co372 O397 2.020 . S
C373 O393 1.259 . S
C373 O396 1.258 . S
Co374 N383 2.057 . S
Co374 O390 2.117 . S
Co374 O391 2.020 . S
Co374 O393 2.021 . S
Co374 O398 2.062 . S
C375 N377 1.316 . S
C375 N378 1.347 . S
C375 H380 0.931 . S
C376 N377 1.375 . S
C376 C379 1.350 . S
C376 H381 0.930 . S
N377 Co372 2.057 . S
N377 C375 1.316 . S
N377 C376 1.375 . S
N378 C375 1.347 . S
N378 C379 1.373 . S
C379 C376 1.350 . S
C379 N378 1.373 . S
C379 H400 0.931 . S
H380 C375 0.931 . S
H381 C376 0.930 . S
C382 O389 1.259 . S
C382 O390 1.258 . S
N383 Co374 2.057 . S
N383 C384 1.316 . S
N383 C385 1.375 . S
C384 N383 1.316 . S
C384 N386 1.347 . S
C384 H395 0.931 . S
C385 N383 1.375 . S
C385 C387 1.350 . S
C385 H394 0.930 . S
N386 C384 1.347 . S
N386 C387 1.373 . S
C387 C385 1.350 . S
C387 N386 1.373 . S
C387 H401 0.931 . S
C388 O391 1.256 . S
C388 O392 1.255 . S
O389 Co372 2.021 . S
O389 C382 1.259 . S
O390 Co374 2.117 . S
O390 C382 1.258 . S
O391 Co374 2.020 . S
O391 C388 1.256 . S
O392 Co372 2.062 . S
O392 C388 1.255 . S
O393 C373 1.259 . S
O393 Co374 2.021 . S
H394 C385 0.930 . S
H395 C384 0.931 . S
O396 Co372 2.117 . S
O396 C373 1.258 . S
O397 Co372 2.020 . S
O397 C399 1.256 . S
O398 Co374 2.062 . S
O398 C399 1.255 . S
C399 O397 1.256 . S
C399 O398 1.255 . S
H400 C379 0.931 . S
H401 C387 0.931 . S
Co402 N407 2.057 . S
Co402 O419 2.021 . S
Co402 O422 2.062 . S
Co402 O426 2.117 1_455 S
Co402 O427 2.020 1_455 S
C403 O423 1.259 1_556 S
C403 O426 1.258 . S
Co404 N413 2.057 . S
Co404 O420 2.117 1_655 S
Co404 O421 2.020 1_655 S
Co404 O423 2.021 . S
Co404 O428 2.062 . S
C405 N407 1.316 . S
C405 N408 1.347 . S
C405 H410 0.931 . S
C406 N407 1.375 1_655 S
C406 C409 1.350 1_655 S
C406 H411 0.930 . S
N407 Co402 2.057 . S
N407 C405 1.316 . S
N407 C406 1.375 1_455 S
N408 C405 1.347 . S
N408 C409 1.373 . S
C409 C406 1.350 1_455 S
C409 N408 1.373 . S
C409 H430 0.931 1_455 S
H410 C405 0.931 . S
H411 C406 0.930 . S
C412 O419 1.259 1_554 S
C412 O420 1.258 . S
N413 Co404 2.057 . S
N413 C414 1.316 . S
N413 C415 1.375 1_655 S
C414 N413 1.316 . S
C414 N416 1.347 . S
C414 H425 0.931 . S
C415 N413 1.375 1_455 S
C415 C417 1.350 1_455 S
C415 H424 0.930 . S
N416 C414 1.347 . S
N416 C417 1.373 . S
C417 C415 1.350 1_655 S
C417 N416 1.373 . S
C417 H431 0.931 1_655 S
C418 O421 1.256 . S
C418 O422 1.255 1_554 S
O419 Co402 2.021 . S
O419 C412 1.259 1_556 S
O420 Co404 2.117 1_455 S
O420 C412 1.258 . S
O421 Co404 2.020 1_455 S
O421 C418 1.256 . S
O422 Co402 2.062 . S
O422 C418 1.255 1_556 S
O423 C403 1.259 1_554 S
O423 Co404 2.021 . S
H424 C415 0.930 . S
H425 C414 0.931 . S
O426 Co402 2.117 1_655 S
O426 C403 1.258 . S
O427 Co402 2.020 1_655 S
O427 C429 1.256 . S
O428 Co404 2.062 . S
O428 C429 1.255 1_554 S
C429 O427 1.256 . S
C429 O428 1.255 1_556 S
H430 C409 0.931 1_655 S
H431 C417 0.931 1_455 S
C432 C433 1.363 . S
C432 C438 1.379 . S
C432 N440 1.356 1_545 S
C433 C432 1.363 . S
C433 C439 1.363 . S
C434 C435 1.363 . S
C434 C439 1.379 . S
C434 N441 1.356 . S
C435 C434 1.363 . S
C435 C438 1.363 . S
N436 C438 1.356 1_565 S
N436 H448 0.984 1_455 S
N436 H449 0.985 . S
N437 C439 1.356 . S
N437 H442 0.984 . S
N437 H443 0.985 . S
C438 C432 1.379 . S
C438 C435 1.363 . S
C438 N436 1.356 1_545 S
C439 C433 1.363 . S
C439 C434 1.379 . S
C439 N437 1.356 . S
N440 C432 1.356 1_565 S
N440 H446 0.984 . S
N440 H447 0.984 . S
N441 C434 1.356 . S
N441 H444 0.984 . S
N441 H445 0.985 . S
H442 N437 0.984 . S
H443 N437 0.985 . S
H444 N441 0.984 . S
H445 N441 0.985 . S
H446 N440 0.984 . S
H447 N440 0.984 . S
H448 N436 0.984 1_655 S
H449 N436 0.985 . S
C450 C451 1.363 . S
C450 C456 1.379 . S
C450 N458 1.356 . S
C451 C450 1.363 . S
C451 C457 1.363 . S
C452 C453 1.363 . S
C452 C457 1.379 . S
C452 N459 1.356 . S
C453 C452 1.363 . S
C453 C456 1.363 . S
N454 C456 1.356 . S
N454 H466 0.984 . S
N454 H467 0.985 . S
N455 C457 1.356 . S
N455 H460 0.984 . S
N455 H461 0.985 . S
C456 C450 1.379 . S
C456 C453 1.363 . S
C456 N454 1.356 . S
C457 C451 1.363 . S
C457 C452 1.379 . S
C457 N455 1.356 . S
N458 C450 1.356 . S
N458 H464 0.984 . S
N458 H465 0.984 . S
N459 C452 1.356 . S
N459 H462 0.984 . S
N459 H463 0.985 . S
H460 N455 0.984 . S
H461 N455 0.985 . S
H462 N459 0.984 . S
H463 N459 0.985 . S
H464 N458 0.984 . S
H465 N458 0.984 . S
H466 N454 0.984 . S
H467 N454 0.985 . S
C468 C469 1.363 . S
C468 C474 1.379 . S
C468 N476 1.356 . S
C469 C468 1.363 . S
C469 C475 1.363 . S
C470 C471 1.363 . S
C470 C475 1.379 . S
C470 N477 1.356 . S
C471 C470 1.363 . S
C471 C474 1.363 . S
N472 C474 1.356 . S
N472 H484 0.984 . S
N472 H485 0.985 . S
N473 C475 1.356 . S
N473 H478 0.984 . S
N473 H479 0.985 . S
C474 C468 1.379 . S
C474 C471 1.363 . S
C474 N472 1.356 . S
C475 C469 1.363 . S
C475 C470 1.379 . S
C475 N473 1.356 . S
N476 C468 1.356 . S
N476 H482 0.984 . S
N476 H483 0.984 . S
N477 C470 1.356 . S
N477 H480 0.984 . S
N477 H481 0.985 . S
H478 N473 0.984 . S
H479 N473 0.985 . S
H480 N477 0.984 . S
H481 N477 0.985 . S
H482 N476 0.984 . S
H483 N476 0.984 . S
H484 N472 0.984 . S
H485 N472 0.985 . S
C486 C487 1.363 . S
C486 C492 1.379 . S
C486 N494 1.356 . S
C487 C486 1.363 . S
C487 C493 1.363 . S
C488 C489 1.363 . S
C488 C493 1.379 . S
C488 N495 1.356 . S
C489 C488 1.363 . S
C489 C492 1.363 . S
N490 C492 1.356 . S
N490 H502 0.984 . S
N490 H503 0.985 . S
N491 C493 1.356 . S
N491 H496 0.984 . S
N491 H497 0.985 1_655 S
C492 C486 1.379 . S
C492 C489 1.363 . S
C492 N490 1.356 . S
C493 C487 1.363 . S
C493 C488 1.379 . S
C493 N491 1.356 . S
N494 C486 1.356 . S
N494 H500 0.984 . S
N494 H501 0.984 . S
N495 C488 1.356 . S
N495 H498 0.984 . S
N495 H499 0.985 . S
H496 N491 0.984 . S
H497 N491 0.985 1_455 S
H498 N495 0.984 . S
H499 N495 0.985 . S
H500 N494 0.984 . S
H501 N494 0.984 . S
H502 N490 0.984 . S
H503 N490 0.985 . S
C504 C505 1.363 . S
C504 C510 1.379 . S
C504 N512 1.356 1_554 S
C505 C504 1.363 . S
C505 C511 1.363 . S
C506 C507 1.363 . S
C506 C511 1.379 . S
C506 N513 1.356 . S
C507 C506 1.363 . S
C507 C510 1.363 . S
N508 C510 1.356 1_556 S
N508 H520 0.984 . S
N508 H521 0.985 . S
N509 C511 1.356 . S
N509 H514 0.984 . S
N509 H515 0.985 . S
C510 C504 1.379 . S
C510 C507 1.363 . S
C510 N508 1.356 1_554 S
C511 C505 1.363 . S
C511 C506 1.379 . S
C511 N509 1.356 . S
N512 C504 1.356 1_556 S
N512 H518 0.984 . S
N512 H519 0.984 1_556 S
N513 C506 1.356 . S
N513 H516 0.984 . S
N513 H517 0.985 . S
H514 N509 0.984 . S
H515 N509 0.985 . S
H516 N513 0.984 . S
H517 N513 0.985 . S
H518 N512 0.984 . S
H519 N512 0.984 1_554 S
H520 N508 0.984 . S
H521 N508 0.985 . S
C522 C523 1.363 . S
C522 C528 1.379 . S
C522 N530 1.356 . S
C523 C522 1.363 . S
C523 C529 1.363 . S
C524 C525 1.363 . S
C524 C529 1.379 . S
C524 N531 1.356 . S
C525 C524 1.363 . S
C525 C528 1.363 . S
N526 C528 1.356 . S
N526 H538 0.984 . S
N526 H539 0.985 . S
N527 C529 1.356 . S
N527 H532 0.984 . S
N527 H533 0.985 . S
C528 C522 1.379 . S
C528 C525 1.363 . S
C528 N526 1.356 . S
C529 C523 1.363 . S
C529 C524 1.379 . S
C529 N527 1.356 . S
N530 C522 1.356 . S
N530 H536 0.984 . S
N530 H537 0.984 . S
N531 C524 1.356 . S
N531 H534 0.984 . S
N531 H535 0.985 . S
H532 N527 0.984 . S
H533 N527 0.985 . S
H534 N531 0.984 . S
H535 N531 0.985 . S
H536 N530 0.984 . S
H537 N530 0.984 . S
H538 N526 0.984 . S
H539 N526 0.985 . S
C540 C541 1.363 . S
C540 C546 1.379 . S
C540 N548 1.356 . S
C541 C540 1.363 . S
C541 C547 1.363 . S
C542 C543 1.363 . S
C542 C547 1.379 . S
C542 N549 1.356 1_556 S
C543 C542 1.363 . S
C543 C546 1.363 . S
N544 C546 1.356 . S
N544 H556 0.984 . S
N544 H557 0.985 . S
N545 C547 1.356 . S
N545 H550 0.984 . S
N545 H551 0.985 . S
C546 C540 1.379 . S
C546 C543 1.363 . S
C546 N544 1.356 . S
C547 C541 1.363 . S
C547 C542 1.379 . S
C547 N545 1.356 . S
N548 C540 1.356 . S
N548 H554 0.984 . S
N548 H555 0.984 . S
N549 C542 1.356 1_554 S
N549 H552 0.984 . S
N549 H553 0.985 . S
H550 N545 0.984 . S
H551 N545 0.985 . S
H552 N549 0.984 . S
H553 N549 0.985 . S
H554 N548 0.984 . S
H555 N548 0.984 . S
H556 N544 0.984 . S
H557 N544 0.985 . S
C558 C559 1.363 . S
C558 C564 1.379 . S
C558 N566 1.356 . S
C559 C558 1.363 . S
C559 C565 1.363 . S
C560 C561 1.363 . S
C560 C565 1.379 . S
C560 N567 1.356 . S
C561 C560 1.363 . S
C561 C564 1.363 . S
N562 C564 1.356 . S
N562 H574 0.984 . S
N562 H575 0.985 . S
N563 C565 1.356 . S
N563 H568 0.984 . S
N563 H569 0.985 . S
C564 C558 1.379 . S
C564 C561 1.363 . S
C564 N562 1.356 . S
C565 C559 1.363 . S
C565 C560 1.379 . S
C565 N563 1.356 . S
N566 C558 1.356 . S
N566 H572 0.984 . S
N566 H573 0.984 . S
N567 C560 1.356 . S
N567 H570 0.984 . S
N567 H571 0.985 . S
H568 N563 0.984 . S
H569 N563 0.985 . S
H570 N567 0.984 . S
H571 N567 0.985 . S
H572 N566 0.984 . S
H573 N566 0.984 . S
H574 N562 0.984 . S
H575 N562 0.985 . S
C576 C577 1.363 . S
C576 C582 1.379 . S
C576 N584 1.356 1_554 S
C577 C576 1.363 . S
C577 C583 1.363 . S
C578 C579 1.363 . S
C578 C583 1.379 . S
C578 N585 1.356 . S
C579 C578 1.363 . S
C579 C582 1.363 . S
N580 C582 1.356 1_556 S
N580 H592 0.984 . S
N580 H593 0.985 . S
N581 C583 1.356 . S
N581 H586 0.984 . S
N581 H587 0.985 . S
C582 C576 1.379 . S
C582 C579 1.363 . S
C582 N580 1.356 1_554 S
C583 C577 1.363 . S
C583 C578 1.379 . S
C583 N581 1.356 . S
N584 C576 1.356 1_556 S
N584 H590 0.984 . S
N584 H591 0.976 1_556 S
N585 C578 1.356 . S
N585 H588 0.984 . S
N585 H589 0.985 . S
H586 N581 0.984 . S
H587 N581 0.985 . S
H588 N585 0.984 . S
H589 N585 0.985 . S
H590 N584 0.984 . S
H591 N584 0.976 1_554 S
H592 N580 0.984 . S
H593 N580 0.985 . S
C594 C595 1.363 . S
C594 C600 1.379 . S
C594 N602 1.356 . S
C595 C594 1.363 . S
C595 C601 1.363 . S
C596 C597 1.363 . S
C596 C601 1.379 . S
C596 N603 1.356 1_556 S
C597 C596 1.363 . S
C597 C600 1.363 . S
N598 C600 1.356 . S
N598 H610 0.984 . S
N598 H611 0.985 . S
N599 C601 1.356 . S
N599 H604 0.984 . S
N599 H605 0.985 1_556 S
C600 C594 1.379 . S
C600 C597 1.363 . S
C600 N598 1.356 . S
C601 C595 1.363 . S
C601 C596 1.379 . S
C601 N599 1.356 . S
N602 C594 1.356 . S
N602 H608 0.984 . S
N602 H609 0.984 . S
N603 C596 1.356 1_554 S
N603 H606 0.984 . S
N603 H607 0.985 . S
H604 N599 0.984 . S
H605 N599 0.985 1_554 S
H606 N603 0.984 . S
H607 N603 0.985 . S
H608 N602 0.984 . S
H609 N602 0.984 . S
H610 N598 0.984 . S
H611 N598 0.985 . S
C612 C613 1.363 . S
C612 C618 1.379 . S
C612 N620 1.356 . S
C613 C612 1.363 . S
C613 C619 1.363 . S
C614 C615 1.363 . S
C614 C619 1.379 . S
C614 N621 1.356 1_655 S
C615 C614 1.363 . S
C615 C618 1.363 . S
N616 C618 1.356 . S
N616 H628 0.984 . S
N616 H629 0.985 . S
N617 C619 1.356 1_455 S
N617 H622 0.984 . S
N617 H623 0.985 . S
C618 C612 1.379 . S
C618 C615 1.363 . S
C618 N616 1.356 . S
C619 C613 1.363 . S
C619 C614 1.379 . S
C619 N617 1.356 1_655 S
N620 C612 1.356 . S
N620 H626 0.984 . S
N620 H627 0.984 . S
N621 C614 1.356 1_455 S
N621 H624 0.984 . S
N621 H625 0.985 . S
H622 N617 0.984 . S
H623 N617 0.985 . S
H624 N621 0.984 . S
H625 N621 0.985 . S
H626 N620 0.984 . S
H627 N620 0.984 . S
H628 N616 0.984 . S
H629 N616 0.985 . S
C630 C631 1.363 . S
C630 C636 1.379 . S
C630 N638 1.356 . S
C631 C630 1.363 . S
C631 C637 1.363 . S
C632 C633 1.363 . S
C632 C637 1.379 . S
C632 N639 1.356 . S
C633 C632 1.363 . S
C633 C636 1.363 . S
N634 C636 1.356 . S
N634 H646 0.984 . S
N634 H647 0.985 . S
N635 C637 1.356 . S
N635 H640 0.984 . S
N635 H641 0.985 . S
C636 C630 1.379 . S
C636 C633 1.363 . S
C636 N634 1.356 . S
C637 C631 1.363 . S
C637 C632 1.379 . S
C637 N635 1.356 . S
N638 C630 1.356 . S
N638 H644 0.984 . S
N638 H645 0.984 . S
N639 C632 1.356 . S
N639 H642 0.984 . S
N639 H643 0.985 . S
H640 N635 0.984 . S
H641 N635 0.985 . S
H642 N639 0.984 . S
H643 N639 0.985 . S
H644 N638 0.984 . S
H645 N638 0.984 . S
H646 N634 0.984 . S
H647 N634 0.985 . S
C648 C649 1.363 . S
C648 C654 1.379 . S
C648 N656 1.356 1_565 S
C649 C648 1.363 . S
C649 C655 1.363 . S
C650 C651 1.363 . S
C650 C655 1.379 . S
C650 N657 1.356 1_655 S
C651 C650 1.363 . S
C651 C654 1.363 . S
N652 C654 1.356 1_545 S
N652 H664 0.984 . S
N652 H665 0.985 . S
N653 C655 1.356 . S
N653 H658 0.984 . S
N653 H659 0.985 . S
C654 C648 1.379 . S
C654 C651 1.363 . S
C654 N652 1.356 1_565 S
C655 C649 1.363 . S
C655 C650 1.379 . S
C655 N653 1.356 . S
N656 C648 1.356 1_545 S
N656 H662 0.984 . S
N656 H663 0.978 1_545 S
N657 C650 1.356 1_455 S
N657 H660 0.984 . S
N657 H661 0.985 . S
H658 N653 0.984 . S
H659 N653 0.985 . S
H660 N657 0.984 . S
H661 N657 0.985 . S
H662 N656 0.984 . S
H663 N656 0.978 1_565 S
H664 N652 0.984 . S
H665 N652 0.985 . S
C666 C667 1.363 . S
C666 C672 1.379 . S
C666 N674 1.356 . S
C667 C666 1.363 . S
C667 C673 1.363 . S
C668 C669 1.363 . S
C668 C673 1.379 . S
C668 N675 1.356 . S
C669 C668 1.363 . S
C669 C672 1.363 . S
N670 C672 1.356 . S
N670 H682 0.984 . S
N670 H683 0.985 . S
N671 C673 1.356 . S
N671 H676 0.984 . S
N671 H677 0.985 . S
C672 C666 1.379 . S
C672 C669 1.363 . S
C672 N670 1.356 . S
C673 C667 1.363 . S
C673 C668 1.379 . S
C673 N671 1.356 . S
N674 C666 1.356 . S
N674 H680 0.984 . S
N674 H681 0.984 . S
N675 C668 1.356 . S
N675 H678 0.984 . S
N675 H679 0.985 . S
H676 N671 0.984 . S
H677 N671 0.985 . S
H678 N675 0.984 . S
H679 N675 0.985 . S
H680 N674 0.984 . S
H681 N674 0.984 . S
H682 N670 0.984 . S
H683 N670 0.985 . S
C684 C685 1.363 . S
C684 C690 1.379 . S
C684 N692 1.356 . S
C685 C684 1.363 . S
C685 C691 1.363 . S
C686 C687 1.363 . S
C686 C691 1.379 . S
C686 N693 1.356 . S
C687 C686 1.363 . S
C687 C690 1.363 . S
N688 C690 1.356 . S
N688 H700 0.984 . S
N688 H701 0.985 . S
N689 C691 1.356 . S
N689 H694 0.984 . S
N689 H695 0.985 . S
C690 C684 1.379 . S
C690 C687 1.363 . S
C690 N688 1.356 . S
C691 C685 1.363 . S
C691 C686 1.379 . S
C691 N689 1.356 . S
N692 C684 1.356 . S
N692 H698 0.984 . S
N692 H699 0.984 . S
N693 C686 1.356 . S
N693 H696 0.984 . S
N693 H697 0.985 . S
H694 N689 0.984 . S
H695 N689 0.985 . S
H696 N693 0.984 . S
H697 N693 0.985 . S
H698 N692 0.984 . S
H699 N692 0.984 . S
H700 N688 0.984 . S
H701 N688 0.985 . S
C702 C703 1.363 . S
C702 C708 1.379 . S
C702 N710 1.356 . S
C703 C702 1.363 . S
C703 C709 1.363 . S
C704 C705 1.363 . S
C704 C709 1.379 . S
C704 N711 1.356 . S
C705 C704 1.363 . S
C705 C708 1.363 . S
N706 C708 1.356 . S
N706 H718 0.984 . S
N706 H719 0.985 . S
N707 C709 1.356 . S
N707 H712 0.984 . S
N707 H713 0.985 1_455 S
C708 C702 1.379 . S
C708 C705 1.363 . S
C708 N706 1.356 . S
C709 C703 1.363 . S
C709 C704 1.379 . S
C709 N707 1.356 . S
N710 C702 1.356 . S
N710 H716 0.984 . S
N710 H717 0.984 . S
N711 C704 1.356 . S
N711 H714 0.984 . S
N711 H715 0.985 . S
H712 N707 0.984 . S
H713 N707 0.985 1_655 S
H714 N711 0.984 . S
H715 N711 0.985 . S
H716 N710 0.984 . S
H717 N710 0.984 . S
H718 N706 0.984 . S
H719 N706 0.985 . S
C720 C721 1.363 . S
C720 C726 1.379 . S
C720 N728 1.356 1_565 S
C721 C720 1.363 . S
C721 C727 1.363 . S
C722 C723 1.363 . S
C722 C727 1.379 . S
C722 N729 1.356 . S
C723 C722 1.363 . S
C723 C726 1.363 . S
N724 C726 1.356 1_545 S
N724 H736 0.984 . S
N724 H737 0.985 . S
N725 C727 1.356 . S
N725 H730 0.984 . S
N725 H731 0.985 . S
C726 C720 1.379 . S
C726 C723 1.363 . S
C726 N724 1.356 1_565 S
C727 C721 1.363 . S
C727 C722 1.379 . S
C727 N725 1.356 . S
N728 C720 1.356 1_545 S
N728 H734 0.984 . S
N728 H735 0.984 . S
N729 C722 1.356 . S
N729 H732 0.984 . S
N729 H733 0.985 . S
H730 N725 0.984 . S
H731 N725 0.985 . S
H732 N729 0.984 . S
H733 N729 0.985 . S
H734 N728 0.984 . S
H735 N728 0.984 . S
H736 N724 0.984 . S
H737 N724 0.985 . S
C738 C739 1.363 . S
C738 C744 1.379 . S
C738 N746 1.356 . S
C739 C738 1.363 . S
C739 C745 1.363 . S
C740 C741 1.363 . S
C740 C745 1.379 . S
C740 N747 1.356 . S
C741 C740 1.363 . S
C741 C744 1.363 . S
N742 C744 1.356 . S
N742 H754 0.984 . S
N742 H755 0.985 . S
N743 C745 1.356 . S
N743 H748 0.984 . S
N743 H749 0.985 . S
C744 C738 1.379 . S
C744 C741 1.363 . S
C744 N742 1.356 . S
C745 C739 1.363 . S
C745 C740 1.379 . S
C745 N743 1.356 . S
N746 C738 1.356 . S
N746 H752 0.984 . S
N746 H753 0.984 . S
N747 C740 1.356 . S
N747 H750 0.984 . S
N747 H751 0.985 . S
H748 N743 0.984 . S
H749 N743 0.985 . S
H750 N747 0.984 . S
H751 N747 0.985 . S
H752 N746 0.984 . S
H753 N746 0.984 . S
H754 N742 0.984 . S
H755 N742 0.985 . S
C756 C757 1.363 . S
C756 C762 1.379 . S
C756 N764 1.356 . S
C757 C756 1.363 . S
C757 C763 1.363 . S
C758 C759 1.363 . S
C758 C763 1.379 . S
C758 N765 1.356 . S
C759 C758 1.363 . S
C759 C762 1.363 . S
N760 C762 1.353 1_556 S
N760 H772 0.987 . S
N760 H773 0.985 . S
N761 C763 1.356 . S
N761 H766 0.984 . S
N761 H767 0.985 . S
C762 C756 1.379 . S
C762 C759 1.363 . S
C762 N760 1.353 1_554 S
C763 C757 1.363 . S
C763 C758 1.379 . S
C763 N761 1.356 . S
N764 C756 1.356 . S
N764 H770 0.984 . S
N764 H771 0.984 . S
N765 C758 1.356 . S
N765 H768 0.984 . S
N765 H769 0.985 . S
H766 N761 0.984 . S
H767 N761 0.985 . S
H768 N765 0.984 . S
H769 N765 0.985 . S
H770 N764 0.984 . S
H771 N764 0.984 . S
H772 N760 0.987 . S
H773 N760 0.985 . S
C774 C775 1.363 . S
C774 C780 1.379 . S
C774 N782 1.356 . S
C775 C774 1.363 . S
C775 C781 1.363 . S
C776 C777 1.363 . S
C776 C781 1.379 . S
C776 N783 1.356 . S
C777 C776 1.363 . S
C777 C780 1.363 . S
N778 C780 1.356 . S
N778 H790 0.984 . S
N778 H791 0.985 . S
N779 C781 1.356 . S
N779 H784 0.984 . S
N779 H785 0.985 . S
C780 C774 1.379 . S
C780 C777 1.363 . S
C780 N778 1.356 . S
C781 C775 1.363 . S
C781 C776 1.379 . S
C781 N779 1.356 . S
N782 C774 1.356 . S
N782 H788 0.984 . S
N782 H789 0.984 . S
N783 C776 1.356 . S
N783 H786 0.984 . S
N783 H787 0.985 . S
H784 N779 0.984 . S
H785 N779 0.985 . S
H786 N783 0.984 . S
H787 N783 0.985 . S
H788 N782 0.984 . S
H789 N782 0.984 . S
H790 N778 0.984 . S
H791 N778 0.985 . S
C792 C793 1.363 . S
C792 C798 1.379 . S
C792 N800 1.356 . S
C793 C792 1.363 . S
C793 C799 1.363 . S
C794 C795 1.363 . S
C794 C799 1.379 . S
C794 N801 1.356 1_656 S
C795 C794 1.363 . S
C795 C798 1.363 . S
N796 C798 1.356 . S
N796 H808 0.984 . S
N796 H809 0.985 . S
N797 C799 1.356 1_554 S
N797 H802 0.984 1_554 S
N797 H803 0.985 1_655 S
C798 C792 1.379 . S
C798 C795 1.363 . S
C798 N796 1.356 . S
C799 C793 1.363 . S
C799 C794 1.379 . S
C799 N797 1.356 1_556 S
N800 C792 1.356 . S
N800 H806 0.984 . S
N800 H807 0.984 . S
N801 C794 1.356 1_454 S
N801 H804 0.984 . S
N801 H805 0.985 . S
H802 N797 0.984 1_556 S
H803 N797 0.985 1_455 S
H804 N801 0.984 . S
H805 N801 0.985 . S
H806 N800 0.984 . S
H807 N800 0.984 . S
H808 N796 0.984 . S
H809 N796 0.985 . S
C810 C811 1.363 . S
C810 C816 1.379 . S
C810 N818 1.356 . S
C811 C810 1.363 . S
C811 C817 1.363 . S
C812 C813 1.363 . S
C812 C817 1.379 . S
C812 N819 1.356 . S
C813 C812 1.363 . S
C813 C816 1.363 . S
N814 C816 1.356 . S
N814 H826 0.984 1_554 S
N814 H827 0.985 . S
N815 C817 1.356 . S
N815 H820 0.984 . S
N815 H821 0.985 . S
C816 C810 1.379 . S
C816 C813 1.363 . S
C816 N814 1.356 . S
C817 C811 1.363 . S
C817 C812 1.379 . S
C817 N815 1.356 . S
N818 C810 1.356 . S
N818 H824 0.984 1_554 S
N818 H825 0.984 . S
N819 C812 1.356 . S
N819 H822 0.984 . S
N819 H823 0.985 . S
H820 N815 0.984 . S
H821 N815 0.985 . S
H822 N819 0.984 . S
H823 N819 0.985 . S
H824 N818 0.984 1_556 S
H825 N818 0.984 . S
H826 N814 0.984 1_556 S
H827 N814 0.985 . S
C828 C829 1.363 . S
C828 C834 1.379 . S
C828 N836 1.356 1_455 S
C829 C828 1.363 . S
C829 C835 1.363 . S
C830 C831 1.363 . S
C830 C835 1.379 . S
C830 N837 1.356 . S
C831 C830 1.363 . S
C831 C834 1.363 . S
N832 C834 1.356 1_655 S
N832 H844 0.984 . S
N832 H845 0.985 . S
N833 C835 1.356 . S
N833 H838 0.984 . S
N833 H839 0.985 . S
C834 C828 1.379 . S
C834 C831 1.363 . S
C834 N832 1.356 1_455 S
C835 C829 1.363 . S
C835 C830 1.379 . S
C835 N833 1.356 . S
N836 C828 1.356 1_655 S
N836 H842 0.984 . S
N836 H843 0.984 . S
N837 C830 1.356 . S
N837 H840 0.984 . S
N837 H841 0.985 . S
H838 N833 0.984 . S
H839 N833 0.985 . S
H840 N837 0.984 . S
H841 N837 0.985 . S
H842 N836 0.984 . S
H843 N836 0.984 . S
H844 N832 0.984 . S
H845 N832 0.985 . S
C846 C847 1.363 . S
C846 C852 1.379 . S
C846 N854 1.356 . S
C847 C846 1.363 . S
C847 C853 1.363 . S
C848 C849 1.363 . S
C848 C853 1.379 . S
C848 N855 1.356 . S
C849 C848 1.363 . S
C849 C852 1.363 . S
N850 C852 1.356 . S
N850 H862 0.984 . S
N850 H863 0.985 . S
N851 C853 1.356 . S
N851 H856 0.984 . S
N851 H857 0.985 . S
C852 C846 1.379 . S
C852 C849 1.363 . S
C852 N850 1.356 . S
C853 C847 1.363 . S
C853 C848 1.379 . S
C853 N851 1.356 . S
N854 C846 1.356 . S
N854 H860 0.984 . S
N854 H861 0.984 . S
N855 C848 1.356 . S
N855 H858 0.984 . S
N855 H859 0.985 . S
H856 N851 0.984 . S
H857 N851 0.985 . S
H858 N855 0.984 . S
H859 N855 0.985 . S
H860 N854 0.984 . S
H861 N854 0.984 . S
H862 N850 0.984 . S
H863 N850 0.985 . S
C433 C1 2.169 . S
C435 C328 2.195 . S
C451 C40 1.178 . S
C453 N348 1.198 . S
C471 C382 2.036 . S
C469 C99 2.024 . S
C487 C118 1.416 . S
C489 N416 1.323 . S
C507 C369 2.340 . S
C505 C16 2.318 . S
C525 N326 1.222 . S
C523 C60 1.270 . S
C543 C403 2.068 . S
C541 C79 2.052 . S
C561 N378 1.150 . S
C559 C138 1.100 . S
C577 C21 1.837 . S
C579 C418 1.861 . S
C597 C352 1.781 . S
C595 C94 1.750 . S
C613 C133 1.507 . S
C615 C313 1.538 . S
C631 C55 1.481 . S
C633 C399 1.507 . S
C651 C339 2.197 . S
C649 C157 2.165 . S
C667 C196 1.181 . S
C669 N356 1.196 . S
C685 C255 2.007 . S
C687 C373 2.034 . S
C703 C289 1.423 . S
C705 N408 1.321 . S
C721 C172 2.322 . S
C723 C358 2.339 . S
C741 N318 1.223 . S
C739 C216 1.286 . S
C759 C412 2.069 . S
C757 C235 2.047 . S
C777 N386 1.150 . S
C775 C294 1.098 . S
C793 C177 1.823 . S
C795 C429 1.861 . S
C813 C343 1.782 . S
C811 C250 1.755 . S
C831 C322 1.540 . S
C829 C274 1.501 . S
C847 C211 1.471 . S
C849 C388 1.502 . S
