# Generated by pormake.
# Topology zzz, (3,6)-cn, num edge types: 1
# Building blocks:
#     Node 0, Type 0, BuildingBlock: QEWDON_clean_linker_0, # of connection points: 3
#     Node 1, Type 0, BuildingBlock: QEWDON_clean_linker_0, # of connection points: 3
#     Node 2, Type 0, BuildingBlock: QEWDON_clean_linker_0, # of connection points: 3
#     Node 3, Type 0, BuildingBlock: QEWDON_clean_linker_0, # of connection points: 3
#     Node 4, Type 0, BuildingBlock: QEWDON_clean_linker_0, # of connection points: 3
#     Node 5, Type 0, BuildingBlock: QEWDON_clean_linker_0, # of connection points: 3
#     Node 6, Type 0, BuildingBlock: QEWDON_clean_linker_0, # of connection points: 3
#     Node 7, Type 0, BuildingBlock: QEWDON_clean_linker_0, # of connection points: 3
#     Node 8, Type 1, BuildingBlock: JUFBIX_clean_sbu_0, # of connection points: 6
#     Node 9, Type 1, BuildingBlock: JUFBIX_clean_sbu_0, # of connection points: 6
#     Node 10, Type 1, BuildingBlock: JUFBIX_clean_sbu_0, # of connection points: 6
#     Node 11, Type 1, BuildingBlock: JUFBIX_clean_sbu_0, # of connection points: 6
#     Edge 12, Type (0, 1), BuildingBlock: EYOCIG_clean_linker_4, # of connection points: 2
#     Edge 13, Type (0, 1), BuildingBlock: EYOCIG_clean_linker_4, # of connection points: 2
#     Edge 14, Type (0, 1), BuildingBlock: EYOCIG_clean_linker_4, # of connection points: 2
#     Edge 15, Type (0, 1), BuildingBlock: EYOCIG_clean_linker_4, # of connection points: 2
#     Edge 16, Type (0, 1), BuildingBlock: EYOCIG_clean_linker_4, # of connection points: 2
#     Edge 17, Type (0, 1), BuildingBlock: EYOCIG_clean_linker_4, # of connection points: 2
#     Edge 18, Type (0, 1), BuildingBlock: EYOCIG_clean_linker_4, # of connection points: 2
#     Edge 19, Type (0, 1), BuildingBlock: EYOCIG_clean_linker_4, # of connection points: 2
#     Edge 20, Type (0, 1), BuildingBlock: EYOCIG_clean_linker_4, # of connection points: 2
#     Edge 21, Type (0, 1), BuildingBlock: EYOCIG_clean_linker_4, # of connection points: 2
#     Edge 22, Type (0, 1), BuildingBlock: EYOCIG_clean_linker_4, # of connection points: 2
#     Edge 23, Type (0, 1), BuildingBlock: EYOCIG_clean_linker_4, # of connection points: 2
#     Edge 24, Type (0, 1), BuildingBlock: EYOCIG_clean_linker_4, # of connection points: 2
#     Edge 25, Type (0, 1), BuildingBlock: EYOCIG_clean_linker_4, # of connection points: 2
#     Edge 26, Type (0, 1), BuildingBlock: EYOCIG_clean_linker_4, # of connection points: 2
#     Edge 27, Type (0, 1), BuildingBlock: EYOCIG_clean_linker_4, # of connection points: 2
#     Edge 28, Type (0, 1), BuildingBlock: EYOCIG_clean_linker_4, # of connection points: 2
#     Edge 29, Type (0, 1), BuildingBlock: EYOCIG_clean_linker_4, # of connection points: 2
#     Edge 30, Type (0, 1), BuildingBlock: EYOCIG_clean_linker_4, # of connection points: 2
#     Edge 31, Type (0, 1), BuildingBlock: EYOCIG_clean_linker_4, # of connection points: 2
#     Edge 32, Type (0, 1), BuildingBlock: EYOCIG_clean_linker_4, # of connection points: 2
#     Edge 33, Type (0, 1), BuildingBlock: EYOCIG_clean_linker_4, # of connection points: 2
#     Edge 34, Type (0, 1), BuildingBlock: EYOCIG_clean_linker_4, # of connection points: 2
#     Edge 35, Type (0, 1), BuildingBlock: EYOCIG_clean_linker_4, # of connection points: 2
# Relax obj value: 0.076
# Max RMSD: 0.168
# Mean RMSD: 0.075
data_MOF--net-zzz--node1-JUFBIX_clean_sbu_0--node2-QEWDON_clean_linker_0--edge1-EYOCIG_clean_linker_4
_symmetry_space_group_name_H-M    P1
_symmetry_Int_Tables_number       1
_symmetry_cell_setting            triclinic
loop_
_symmetry_equiv_pos_as_xyz
'x, y, z'
_cell_length_a     43.826935
_cell_length_b     43.597039
_cell_length_c     14.331663
_cell_angle_alpha  78.850765
_cell_angle_beta   89.853612
_cell_angle_gamma 90.148425
loop_
_atom_site_label
_atom_site_type_symbol
_atom_site_fract_x
_atom_site_fract_y
_atom_site_fract_z
_atom_type_partial_charge
H0 H 0.84647 0.5446 0.12345 0.0
C1 C 0.85726 0.54622 0.19026 0.0
C2 C 0.88728 0.53552 0.20666 0.0
C3 C 0.84204 0.5606 0.25738 0.0
H4 H 0.92586 0.53138 0.30058 0.0
C5 C 0.90235 0.53901 0.2895 0.0
C6 C 0.88786 0.55324 0.35659 0.0
C7 C 0.85765 0.5636 0.34165 0.0
C8 C 0.81093 0.57435 0.23646 0.0
H9 H 0.84662 0.57428 0.39505 0.0
C10 C 0.78935 0.56067 0.18335 0.0
C11 C 0.76081 0.57484 0.16053 0.0
C12 C 0.803 0.60224 0.26643 0.0
H13 H 0.81904 0.61405 0.3048 0.0
C14 C 0.77447 0.61592 0.24492 0.0
H15 H 0.7946 0.53911 0.15979 0.0
C16 C 0.75348 0.60235 0.19209 0.0
H17 H 0.73157 0.61351 0.17524 0.0
H18 H 0.76876 0.63737 0.26832 0.0
H19 H 1.00699 0.80662 0.11873 0.0
C20 C 1.00475 0.81531 0.1843 0.0
C21 C 1.01644 0.84493 0.18798 0.0
C22 C 0.98859 0.79798 0.26265 0.0
H23 H 1.02052 0.88103 0.27014 0.0
C24 C 1.01214 0.85763 0.26897 0.0
C25 C 0.99606 0.84117 0.34685 0.0
C26 C 0.98463 0.8112 0.34478 0.0
C27 C 0.97428 0.76734 0.25551 0.0
H28 H 0.97239 0.7986 0.40618 0.0
C29 C 0.98794 0.74745 0.20046 0.0
C30 C 0.97326 0.71988 0.18798 0.0
C31 C 0.94596 0.75843 0.29948 0.0
H32 H 0.93425 0.77327 0.3403 0.0
C33 C 0.93177 0.73059 0.2887 0.0
H34 H 1.00988 0.75337 0.16665 0.0
C35 C 0.94526 0.71143 0.23283 0.0
H36 H 0.93369 0.69019 0.22391 0.0
H37 H 0.90996 0.72411 0.32253 0.0
H38 H 0.76414 1.01609 -0.00097 0.0
C39 C 0.75375 1.0162 0.06766 0.0
C40 C 0.72278 0.02417 0.07261 0.0
C41 C 0.77051 1.00616 0.15228 0.0
H42 H 0.68465 0.02823 0.16399 0.0
C43 C 0.70878 1.02279 0.16068 0.0
C44 C 0.72482 1.01296 0.24462 0.0
C45 C 0.75573 1.00508 0.24098 0.0
C46 C 0.80211 0.99349 0.14936 0.0
H47 H 0.76791 0.99724 0.30696 0.0
C48 C 0.82433 1.00787 0.08293 0.0
C49 C 0.85385 0.99493 0.08292 0.0
C50 C 0.80998 0.96596 0.21368 0.0
H51 H 0.79342 0.95382 0.26388 0.0
C52 C 0.83913 0.95329 0.21318 0.0
H53 H 0.81886 0.02905 0.03266 0.0
C54 C 0.86095 0.96769 0.14841 0.0
H55 H 0.88349 0.95743 0.14933 0.0
H56 H 0.84478 0.93211 0.26308 0.0
H57 H 0.55844 0.73418 0.01962 0.0
C58 C 0.55798 0.72063 0.09148 0.0
C59 C 0.55059 0.6886 0.10699 0.0
C60 C 0.56675 0.73451 0.16873 0.0
H61 H 0.54603 0.64583 0.21002 0.0
C62 C 0.55127 0.67066 0.19875 0.0
C63 C 0.55973 0.68389 0.27573 0.0
C64 C 0.56718 0.71577 0.26131 0.0
C65 C 0.57872 0.76728 0.15282 0.0
H66 H 0.57398 0.72579 0.3217 0.0
C67 C 0.56421 0.79244 0.09158 0.0
C68 C 0.57642 0.82302 0.07983 0.0
C69 C 0.60564 0.77335 0.19968 0.0
H70 H 0.61773 0.75462 0.24535 0.0
C71 C 0.61765 0.80349 0.18731 0.0
H72 H 0.54346 0.78838 0.0548 0.0
C73 C 0.60313 0.82818 0.12804 0.0
H74 H 0.61284 0.85145 0.11984 0.0
H75 H 0.63837 0.80772 0.22385 0.0
H76 H 0.23283 0.53637 0.4208 0.0
C77 C 0.22044 0.52693 0.36739 0.0
C78 C 0.18846 0.52553 0.37225 0.0
C79 C 0.23611 0.51704 0.29207 0.0
H80 H 0.14714 0.51438 0.305 0.0
C81 C 0.17191 0.51475 0.30203 0.0
C82 C 0.18688 0.50506 0.22697 0.0
C83 C 0.21882 0.50556 0.22273 0.0
C84 C 0.27008 0.5203 0.28236 0.0
H85 H 0.23 0.49752 0.16442 0.0
C86 C 0.28934 0.51719 0.36282 0.0
C87 C 0.32107 0.52157 0.35146 0.0
C88 C 0.28354 0.52762 0.19118 0.0
H89 H 0.26975 0.53127 0.12749 0.0
C90 C 0.31507 0.53123 0.18045 0.0
H91 H 0.27984 0.51154 0.43395 0.0
C92 C 0.33376 0.52829 0.26009 0.0
H93 H 0.35815 0.53173 0.25028 0.0
H94 H 0.325 0.53685 0.10996 0.0
H95 H 0.04269 0.24987 0.42194 0.0
C96 C 0.05265 0.23903 0.36719 0.0
C97 C 0.0517 0.20641 0.37882 0.0
C98 C 0.06591 0.25734 0.28466 0.0
H99 H 0.06175 0.16652 0.31657 0.0
C100 C 0.06305 0.19181 0.3078 0.0
C101 C 0.07574 0.20934 0.22522 0.0
C102 C 0.07779 0.24194 0.21403 0.0
C103 C 0.06639 0.29227 0.27108 0.0
H104 H 0.08837 0.25505 0.15021 0.0
C105 C 0.06776 0.30741 0.34978 0.0
C106 C 0.06615 0.3401 0.3367 0.0
C107 C 0.06426 0.31091 0.17917 0.0
H108 H 0.06227 0.3005 0.1168 0.0
C109 C 0.06368 0.34349 0.16638 0.0
H110 H 0.0697 0.29397 0.42142 0.0
C111 C 0.06444 0.35807 0.24478 0.0
H112 H 0.06311 0.38334 0.23372 0.0
H113 H 0.06195 0.35747 0.09544 0.0
H114 H 0.31461 1.00584 0.58523 0.0
C115 C 0.32533 1.014 0.51667 0.0
C116 C 0.35695 1.01963 0.51147 0.0
C117 C 0.308 1.01724 0.43222 0.0
H118 H 0.39564 0.03273 0.41982 0.0
C119 C 0.3711 0.02898 0.42337 0.0
C120 C 0.35446 0.03232 0.33958 0.0
C121 C 0.32292 0.0268 0.34347 0.0
C122 C 0.27522 1.00774 0.43514 0.0
H123 H 0.31022 0.02906 0.2777 0.0
C124 C 0.25424 1.01666 0.50024 0.0
C125 C 0.22339 1.00729 0.49997 0.0
C126 C 0.26481 0.98903 0.37183 0.0
H127 H 0.28036 0.98123 0.32241 0.0
C128 C 0.23437 0.97967 0.37235 0.0
H129 H 0.26171 0.03111 0.54949 0.0
C130 C 0.21375 0.98878 0.43582 0.0
H131 H 0.19015 0.98134 0.43479 0.0
H132 H 0.22673 0.96525 0.32334 0.0
H133 H 0.54782 0.31858 0.55532 0.0
C134 C 0.54046 0.33222 0.48778 0.0
C135 C 0.53475 0.3644 0.47943 0.0
C136 C 0.53855 0.31826 0.40674 0.0
H137 H 0.52298 0.40738 0.38521 0.0
C138 C 0.52662 0.3824 0.39173 0.0
C139 C 0.5246 0.36907 0.3113 0.0
C140 C 0.53013 0.33704 0.31862 0.0
C141 C 0.54875 0.28538 0.41017 0.0
H142 H 0.52896 0.32701 0.25514 0.0
C143 C 0.53966 0.26032 0.48352 0.0
C144 C 0.54971 0.22959 0.48257 0.0
C145 C 0.56833 0.27908 0.33813 0.0
H146 H 0.57629 0.29773 0.28206 0.0
C147 C 0.57831 0.24877 0.33795 0.0
H148 H 0.52459 0.26459 0.53968 0.0
C149 C 0.56902 0.22417 0.40948 0.0
H150 H 0.57698 0.20076 0.4077 0.0
H151 H 0.59336 0.24435 0.28205 0.0
Co152 Co 0.04822 0.03557 0.84886 0.0
C153 C 0.98527 0.02417 0.8512 0.0
Co154 Co 0.03176 1.0148 0.7284 0.0
C155 C 0.07349 0.08303 0.94162 0.0
C156 C 0.05653 0.04374 0.04197 0.0
N157 N 0.06097 0.05431 0.94795 0.0
N158 N 0.07654 0.09075 0.02748 0.0
C159 C 0.06605 0.06624 0.0911 0.0
H160 H 0.07868 0.09871 0.87519 0.0
H161 H 0.0456 1.02181 0.07249 0.0
C162 C 0.09469 0.02594 0.72643 0.0
N163 N 1.01915 0.99575 0.6296 0.0
C164 C 1.00694 0.96685 0.63673 0.0
C165 C 0.02406 1.00585 0.5356 0.0
N166 N 1.00459 0.95855 0.55147 0.0
C167 C 1.01514 0.98289 0.48733 0.0
C168 C 0.03107 0.07898 0.68849 0.0
O169 O 0.08922 0.0362 0.80198 0.0
O170 O 0.07293 1.01552 0.68282 0.0
O171 O 0.02507 0.05516 0.65291 0.0
O172 O 0.04126 0.07557 0.77248 0.0
O173 O 0.99081 1.01415 0.77526 0.0
H174 H 0.03497 0.02775 0.50467 0.0
H175 H 1.00145 0.95146 0.70344 0.0
O176 O 1.00699 0.03466 0.89493 0.0
O177 O 0.05493 0.99518 0.92424 0.0
O178 O 0.03856 0.97492 0.80481 0.0
C179 C 0.04871 0.97142 0.88875 0.0
H180 H 0.06383 0.06541 0.16683 0.0
H181 H 1.01772 0.98336 0.4119 0.0
Co182 Co 0.53031 0.03001 0.86148 0.0
C183 C 0.54396 0.96754 0.85676 0.0
Co184 Co 0.54902 1.02275 0.72337 0.0
C185 C 0.48325 0.04524 0.98471 0.0
C186 C 0.5217 0.02431 0.06431 0.0
N187 N 0.51191 0.03489 0.97463 0.0
N188 N 0.47469 0.04086 0.07637 0.0
C189 C 0.49869 0.02791 0.12723 0.0
H190 H 0.46818 0.05396 0.92589 0.0
H191 H 0.54336 1.01291 0.08247 0.0
C192 C 0.53556 0.08519 0.72828 0.0
N193 N 0.56746 1.01805 0.60999 0.0
C194 C 0.59624 1.00806 0.59946 0.0
C195 C 0.55761 0.02882 0.52047 0.0
N196 N 0.60478 1.01284 0.5077 0.0
C197 C 0.58065 0.02566 0.45722 0.0
C198 C 0.48674 1.01816 0.72935 0.0
O199 O 0.52715 0.07411 0.81313 0.0
O200 O 0.54574 0.06689 0.67643 0.0
O201 O 0.50934 1.01657 0.67474 0.0
O202 O 0.49116 1.02365 0.8118 0.0
O203 O 0.55222 0.97867 0.77175 0.0
H204 H 0.53584 0.04004 0.50267 0.0
H205 H 0.61137 0.99924 0.65804 0.0
O206 O 0.53371 0.98579 0.90872 0.0
O207 O 0.57004 0.03619 0.91011 0.0
O208 O 0.58815 0.02902 0.7731 0.0
C209 C 0.59262 0.03447 0.85553 0.0
H210 H 0.4989 1.0199 0.20361 0.0
H211 H 0.58033 0.03375 0.38088 0.0
Co212 Co 0.56295 0.52394 0.8127 0.0
C213 C 0.52444 0.48653 0.94269 0.0
Co214 Co 0.51334 0.52909 0.77771 0.0
C215 C 0.6235 0.53715 0.8829 0.0
C216 C 0.62025 0.49131 0.85093 0.0
N217 N 0.60429 0.5181 0.8464 0.0
N218 N 0.65032 0.52313 0.90986 0.0
C219 C 0.64853 0.49441 0.88967 0.0
H220 H 0.61757 0.56032 0.89346 0.0
H221 H 0.6115 0.47017 0.83179 0.0
C222 C 0.55177 0.5666 0.64764 0.0
N223 N 0.47192 0.53414 0.74693 0.0
C224 C 0.45661 0.52595 0.67345 0.0
C225 C 0.45038 0.54661 0.79601 0.0
N226 N 0.42668 0.53278 0.67564 0.0
C227 C 0.42257 0.54592 0.75196 0.0
C228 C 0.53522 0.57208 0.88177 0.0
O229 O 0.57316 0.55397 0.70164 0.0
O230 O 0.52422 0.55807 0.66537 0.0
O231 O 0.5116 0.56329 0.84305 0.0
O232 O 0.56002 0.55716 0.88109 0.0
O233 O 0.50308 0.50004 0.89069 0.0
H234 H 0.45447 0.55552 0.86024 0.0
H235 H 0.46711 0.51515 0.61949 0.0
O236 O 0.55204 0.49411 0.92285 0.0
O237 O 0.56498 0.49081 0.74316 0.0
O238 O 0.5159 0.4949 0.71291 0.0
C239 C 0.54111 0.48102 0.70827 0.0
H240 H 0.66588 0.47654 0.90563 0.0
H241 H 0.40102 0.55431 0.77423 0.0
Co242 Co 0.0392 0.54836 0.81194 0.0
C243 C 0.07827 0.50394 0.91712 0.0
Co244 Co 0.03539 0.50022 0.78128 0.0
C245 C 0.02247 0.60304 0.88889 0.0
C246 C 0.06901 0.60462 0.84243 0.0
N247 N 0.04314 0.58748 0.84549 0.0
N248 N 0.03461 0.62875 0.91337 0.0
C249 C 0.06377 0.63006 0.88415 0.0
H250 H 0.99938 0.595 0.90617 0.0
H251 H 0.09073 0.59828 0.81577 0.0
C252 C 0.99609 0.54449 0.67644 0.0
N253 N 0.03142 0.46083 0.74821 0.0
C254 C 0.04986 0.44725 0.69203 0.0
C255 C 1.00731 0.44111 0.76692 0.0
N256 N 0.03801 0.42036 0.67506 0.0
C257 C 1.01136 0.41623 0.72197 0.0
C258 C 0.99546 0.51078 0.92 0.0
O259 O 1.0086 0.56377 0.72084 0.0
O260 O 1.00491 0.51621 0.69061 0.0
O261 O 1.00431 0.48998 0.87541 0.0
O262 O 1.00823 0.53739 0.90486 0.0
O263 O 0.06585 0.48473 0.87239 0.0
H264 H 0.98724 0.44512 0.80676 0.0
H265 H 0.07087 0.45746 0.66026 0.0
O266 O 0.06962 0.53226 0.90261 0.0
O267 O 0.07025 0.55884 0.71806 0.0
O268 O 0.06656 0.51142 0.68825 0.0
C269 C 0.07924 0.53812 0.67333 0.0
H270 H 0.08036 0.64735 0.89593 0.0
H271 H 0.99531 0.39744 0.71987 0.0
C272 C 0.17875 1.02113 0.60952 0.0
C273 C 0.20086 1.01633 0.56363 0.0
C274 C 0.15057 0.02437 0.65582 0.0
C275 C 0.12549 0.02554 0.69059 0.0
C276 C 0.53645 0.17749 0.60475 0.0
C277 C 0.5407 0.20287 0.55437 0.0
C278 C 0.53435 0.14598 0.6545 0.0
C279 C 0.53447 0.11848 0.69118 0.0
C280 C 0.36008 0.52083 0.49271 0.0
C281 C 0.34096 0.52075 0.43215 0.0
C282 C 0.38375 0.52351 0.55781 0.0
C283 C 0.40397 0.52756 0.61137 0.0
C284 C 0.06209 0.36939 0.48175 0.0
C285 C 0.06401 0.35527 0.41743 0.0
C286 C 0.05634 0.38708 0.55276 0.0
C287 C 0.04847 0.40292 0.60883 0.0
C288 C 0.90049 1.01603 0.97075 0.0
C289 C 0.87757 1.00879 0.01737 0.0
C290 C 0.92932 1.02064 0.9244 0.0
C291 C 0.95476 1.02216 0.89046 0.0
C292 C 0.55484 0.87535 0.97574 0.0
C293 C 0.56227 0.8499 0.02013 0.0
C294 C 0.54965 0.90692 0.9301 0.0
C295 C 0.54721 0.93449 0.89555 0.0
C296 C 0.71913 0.55277 0.05664 0.0
C297 C 0.7389 0.5618 0.1036 0.0
C298 C 0.69501 0.54314 0.00306 0.0
C299 C 0.67408 0.53437 0.95991 0.0
C300 C 0.99718 0.68427 0.07642 0.0
C301 C 0.98647 0.70065 0.12709 0.0
C302 C 1.00968 0.6649 0.01753 0.0
C303 C 0.02094 0.64802 0.96941 0.0
C304 C 0.03208 0.16512 0.52426 0.0
C305 C 0.03985 0.18685 0.46356 0.0
C306 C 0.02819 0.1359 0.5853 0.0
C307 C 0.02936 0.10973 0.6314 0.0
C308 C 0.39956 1.01253 0.64047 0.0
C309 C 0.37667 1.01434 0.59318 0.0
C310 C 0.42965 1.01286 0.67553 0.0
C311 C 0.45595 1.01517 0.69807 0.0
C312 C 0.54104 0.40102 0.6032 0.0
C313 C 0.53921 0.38087 0.55638 0.0
C314 C 0.54206 0.42834 0.64268 0.0
C315 C 0.54198 0.45235 0.67282 0.0
C316 C 0.15278 0.54132 0.50283 0.0
C317 C 0.17161 0.53508 0.44804 0.0
C318 C 0.12774 0.54449 0.56225 0.0
C319 C 0.1058 0.54336 0.61366 0.0
C320 C 0.04113 0.88544 0.04919 0.0
C321 C 0.02996 0.86451 0.10617 0.0
C322 C 0.04841 0.91442 -0.00876 0.0
C323 C 0.04889 0.9408 0.94667 0.0
C324 C 0.68024 0.03558 0.94383 0.0
C325 C 0.70311 0.03054 -0.00913 0.0
C326 C 0.64996 0.03774 0.90942 0.0
C327 C 0.62348 0.03641 0.88754 0.0
C328 C 0.53967 0.65214 0.98528 0.0
C329 C 0.54473 0.67216 0.03078 0.0
C330 C 0.53606 0.62489 0.94649 0.0
C331 C 0.53491 0.6009 0.9164 0.0
C332 C 0.92241 0.51359 0.08575 0.0
C333 C 0.90437 0.52363 0.13569 0.0
C334 C 0.94692 0.50677 0.02943 0.0
C335 C 0.96875 0.50603 0.9788 0.0
C336 C 0.08917 0.17283 0.10598 0.0
C337 C 0.08472 0.19288 0.15168 0.0
C338 C 0.08839 0.14531 0.06789 0.0
C339 C 0.08313 0.12051 0.04577 0.0
C340 C 0.39183 0.04332 0.1939 0.0
C341 C 0.37143 0.03866 0.25165 0.0
C342 C 0.41977 0.04504 0.14366 0.0
C343 C 0.44491 0.04338 0.11043 0.0
C344 C 0.5163 0.41069 0.15358 0.0
C345 C 0.52002 0.38969 0.2209 0.0
C346 C 0.51557 0.43742 0.07991 0.0
C347 C 0.518 0.45999 0.0166 0.0
C348 C 0.14959 0.49192 0.09597 0.0
C349 C 0.16866 0.4972 0.15135 0.0
C350 C 0.12495 0.49098 0.03329 0.0
C351 C 0.10359 0.49465 0.97944 0.0
C352 C 0.98957 0.87647 0.47399 0.0
C353 C 0.9903 0.85702 0.42451 0.0
C354 C 0.99241 0.90374 0.51292 0.0
C355 C 0.99781 0.92866 0.53422 0.0
C356 C 0.68735 1.00781 0.38968 0.0
C357 C 0.70768 1.00887 0.33219 0.0
C358 C 0.65954 1.00811 0.43975 0.0
C359 C 0.63445 1.01005 0.47309 0.0
C360 C 0.56234 0.64244 0.43623 0.0
C361 C 0.56199 0.66345 0.36759 0.0
C362 C 0.56103 0.61578 0.51035 0.0
C363 C 0.55797 0.59326 0.57366 0.0
C364 C 0.92411 0.55939 0.49829 0.0
C365 C 0.90532 0.558 0.4378 0.0
C366 C 0.94882 0.55796 0.56226 0.0
C367 C 0.97044 0.55363 0.61514 0.0
loop_
_geom_bond_atom_site_label_1
_geom_bond_atom_site_label_2
_geom_bond_distance
_geom_bond_site_symmetry_2
_ccdc_geom_bond_type
H0 C1 0.949 . S
C1 H0 0.949 . S
C1 C2 1.395 . S
C1 C3 1.391 . S
C2 C1 1.395 . S
C2 C5 1.390 . S
C3 C1 1.391 . S
C3 C7 1.387 . S
C3 C8 1.491 . S
H4 C5 0.950 . S
C5 C2 1.390 . S
C5 H4 0.950 . S
C5 C6 1.378 . S
C6 C5 1.378 . S
C6 C7 1.409 . S
C7 C3 1.387 . S
C7 C6 1.409 . S
C7 H9 0.951 . S
C8 C3 1.491 . S
C8 C10 1.382 . S
C8 C12 1.404 . S
H9 C7 0.951 . S
C10 C8 1.382 . S
C10 C11 1.390 . S
C10 H15 0.949 . S
C11 C10 1.390 . S
C11 C16 1.399 . S
C12 C8 1.404 . S
C12 H13 0.950 . S
C12 C14 1.375 . S
H13 C12 0.950 . S
C14 C12 1.375 . S
C14 C16 1.382 . S
C14 H18 0.950 . S
H15 C10 0.949 . S
C16 C11 1.399 . S
C16 C14 1.382 . S
C16 H17 0.952 . S
H17 C16 0.952 . S
H18 C14 0.950 . S
H19 C20 0.949 1_556 S
C20 H19 0.949 1_554 S
C20 C21 1.395 . S
C20 C22 1.391 . S
C21 C20 1.395 . S
C21 C24 1.390 . S
C22 C20 1.391 . S
C22 C26 1.387 . S
C22 C27 1.491 . S
H23 C24 0.950 . S
C24 C21 1.390 . S
C24 H23 0.950 . S
C24 C25 1.378 . S
C25 C24 1.378 . S
C25 C26 1.409 . S
C26 C22 1.387 . S
C26 C25 1.409 . S
C26 H28 0.951 . S
C27 C22 1.491 . S
C27 C29 1.382 . S
C27 C31 1.404 . S
H28 C26 0.951 . S
C29 C27 1.382 . S
C29 C30 1.390 . S
C29 H34 0.949 . S
C30 C29 1.390 . S
C30 C35 1.399 . S
C31 C27 1.404 . S
C31 H32 0.950 . S
C31 C33 1.375 . S
H32 C31 0.950 . S
C33 C31 1.375 . S
C33 C35 1.382 . S
C33 H37 0.950 . S
H34 C29 0.949 . S
C35 C30 1.399 . S
C35 C33 1.382 . S
C35 H36 0.952 . S
H36 C35 0.952 . S
H37 C33 0.950 . S
H38 C39 0.949 . S
C39 H38 0.949 . S
C39 C40 1.395 . S
C39 C41 1.391 1_556 S
C40 C39 1.395 . S
C40 C43 1.390 1_566 S
C41 C39 1.391 1_554 S
C41 C45 1.387 . S
C41 C46 1.491 . S
H42 C43 0.950 . S
C43 C40 1.390 1_544 S
C43 H42 0.950 . S
C43 C44 1.378 1_545 S
C44 C43 1.378 1_565 S
C44 C45 1.409 . S
C45 C41 1.387 . S
C45 C44 1.409 . S
C45 H47 0.951 . S
C46 C41 1.491 . S
C46 C48 1.382 1_554 S
C46 C50 1.404 . S
H47 C45 0.951 . S
C48 C46 1.382 1_556 S
C48 C49 1.390 . S
C48 H53 0.949 1_565 S
C49 C48 1.390 . S
C49 C54 1.399 1_556 S
C50 C46 1.404 . S
C50 H51 0.950 . S
C50 C52 1.375 . S
H51 C50 0.950 . S
C52 C50 1.375 . S
C52 C54 1.382 . S
C52 H56 0.950 . S
H53 C48 0.949 1_545 S
C54 C49 1.399 1_554 S
C54 C52 1.382 . S
C54 H55 0.952 . S
H55 C54 0.952 . S
H56 C52 0.950 . S
H57 C58 0.949 1_556 S
C58 H57 0.949 1_554 S
C58 C59 1.395 . S
C58 C60 1.391 . S
C59 C58 1.395 . S
C59 C62 1.390 . S
C60 C58 1.391 . S
C60 C64 1.387 . S
C60 C65 1.491 . S
H61 C62 0.950 . S
C62 C59 1.390 . S
C62 H61 0.950 . S
C62 C63 1.378 . S
C63 C62 1.378 . S
C63 C64 1.409 . S
C64 C60 1.387 . S
C64 C63 1.409 . S
C64 H66 0.951 . S
C65 C60 1.491 . S
C65 C67 1.382 . S
C65 C69 1.404 . S
H66 C64 0.951 . S
C67 C65 1.382 . S
C67 C68 1.390 . S
C67 H72 0.949 . S
C68 C67 1.390 . S
C68 C73 1.399 . S
C69 C65 1.404 . S
C69 H70 0.950 . S
C69 C71 1.375 . S
H70 C69 0.950 . S
C71 C69 1.375 . S
C71 C73 1.382 . S
C71 H75 0.950 . S
H72 C67 0.949 . S
C73 C68 1.399 . S
C73 C71 1.382 . S
C73 H74 0.952 . S
H74 C73 0.952 . S
H75 C71 0.950 . S
H76 C77 0.949 . S
C77 H76 0.949 . S
C77 C78 1.395 . S
C77 C79 1.391 . S
C78 C77 1.395 . S
C78 C81 1.390 . S
C79 C77 1.391 . S
C79 C83 1.387 . S
C79 C84 1.491 . S
H80 C81 0.950 . S
C81 C78 1.390 . S
C81 H80 0.950 . S
C81 C82 1.378 . S
C82 C81 1.378 . S
C82 C83 1.409 . S
C83 C79 1.387 . S
C83 C82 1.409 . S
C83 H85 0.951 . S
C84 C79 1.491 . S
C84 C86 1.382 . S
C84 C88 1.404 . S
H85 C83 0.951 . S
C86 C84 1.382 . S
C86 C87 1.390 . S
C86 H91 0.949 . S
C87 C86 1.390 . S
C87 C92 1.399 . S
C88 C84 1.404 . S
C88 H89 0.950 . S
C88 C90 1.375 . S
H89 C88 0.950 . S
C90 C88 1.375 . S
C90 C92 1.382 . S
C90 H94 0.950 . S
H91 C86 0.949 . S
C92 C87 1.399 . S
C92 C90 1.382 . S
C92 H93 0.952 . S
H93 C92 0.952 . S
H94 C90 0.950 . S
H95 C96 0.949 . S
C96 H95 0.949 . S
C96 C97 1.395 . S
C96 C98 1.391 . S
C97 C96 1.395 . S
C97 C100 1.390 . S
C98 C96 1.391 . S
C98 C102 1.387 . S
C98 C103 1.491 . S
H99 C100 0.950 . S
C100 C97 1.390 . S
C100 H99 0.950 . S
C100 C101 1.378 . S
C101 C100 1.378 . S
C101 C102 1.409 . S
C102 C98 1.387 . S
C102 C101 1.409 . S
C102 H104 0.951 . S
C103 C98 1.491 . S
C103 C105 1.382 . S
C103 C107 1.404 . S
H104 C102 0.951 . S
C105 C103 1.382 . S
C105 C106 1.390 . S
C105 H110 0.949 . S
C106 C105 1.390 . S
C106 C111 1.399 . S
C107 C103 1.404 . S
C107 H108 0.950 . S
C107 C109 1.375 . S
H108 C107 0.950 . S
C109 C107 1.375 . S
C109 C111 1.382 . S
C109 H113 0.950 . S
H110 C105 0.949 . S
C111 C106 1.399 . S
C111 C109 1.382 . S
C111 H112 0.952 . S
H112 C111 0.952 . S
H113 C109 0.950 . S
H114 C115 0.947 . S
C115 H114 0.947 . S
C115 C116 1.392 1_565 S
C115 C117 1.396 . S
C116 C115 1.392 1_545 S
C116 C119 1.390 . S
C117 C115 1.396 . S
C117 C121 1.387 . S
C117 C122 1.491 . S
H118 C119 0.950 . S
C119 C116 1.390 . S
C119 H118 0.950 . S
C119 C120 1.378 . S
C120 C119 1.378 . S
C120 C121 1.409 1_545 S
C121 C117 1.387 . S
C121 C120 1.409 1_565 S
C121 H123 0.951 . S
C122 C117 1.491 . S
C122 C124 1.382 1_565 S
C122 C126 1.404 . S
H123 C121 0.951 . S
C124 C122 1.382 1_545 S
C124 C125 1.390 1_545 S
C124 H129 0.949 . S
C125 C124 1.390 1_565 S
C125 C130 1.399 . S
C126 C122 1.404 . S
C126 H127 0.950 . S
C126 C128 1.375 . S
H127 C126 0.950 . S
C128 C126 1.375 . S
C128 C130 1.382 . S
C128 H132 0.950 . S
H129 C124 0.949 . S
C130 C125 1.399 . S
C130 C128 1.382 . S
C130 H131 0.952 . S
H131 C130 0.952 . S
H132 C128 0.950 . S
H133 C134 0.949 . S
C134 H133 0.949 . S
C134 C135 1.395 . S
C134 C136 1.391 . S
C135 C134 1.395 . S
C135 C138 1.390 . S
C136 C134 1.391 . S
C136 C140 1.387 . S
C136 C141 1.491 . S
H137 C138 0.950 . S
C138 C135 1.390 . S
C138 H137 0.950 . S
C138 C139 1.378 . S
C139 C138 1.378 . S
C139 C140 1.409 . S
C140 C136 1.387 . S
C140 C139 1.409 . S
C140 H142 0.951 . S
C141 C136 1.491 . S
C141 C143 1.382 . S
C141 C145 1.404 . S
H142 C140 0.951 . S
C143 C141 1.382 . S
C143 C144 1.390 . S
C143 H148 0.949 . S
C144 C143 1.390 . S
C144 C149 1.399 . S
C145 C141 1.404 . S
C145 H146 0.950 . S
C145 C147 1.375 . S
H146 C145 0.950 . S
C147 C145 1.375 . S
C147 C149 1.382 . S
C147 H151 0.950 . S
H148 C143 0.949 . S
C149 C144 1.399 . S
C149 C147 1.382 . S
C149 H150 0.952 . S
H150 C149 0.952 . S
H151 C147 0.950 . S
Co152 N157 2.057 1_556 S
Co152 O169 2.021 . S
Co152 O172 2.062 . S
Co152 O176 2.117 1_455 S
Co152 O177 2.020 1_545 S
C153 O173 1.259 1_545 S
C153 O176 1.258 . S
Co154 N163 2.057 . S
Co154 O170 2.117 . S
Co154 O171 2.020 1_565 S
Co154 O173 2.021 1_455 S
Co154 O178 2.062 . S
C155 N157 1.316 . S
C155 N158 1.347 . S
C155 H160 0.931 . S
C156 N157 1.386 . S
C156 C159 1.354 . S
C156 H161 0.917 1_455 S
N157 Co152 2.057 1_554 S
N157 C155 1.316 . S
N157 C156 1.386 . S
N158 C155 1.347 . S
N158 C159 1.373 . S
C159 C156 1.354 . S
C159 N158 1.373 . S
C159 H180 0.931 1_455 S
H160 C155 0.931 . S
H161 C156 0.917 1_655 S
C162 O169 1.259 1_565 S
C162 O170 1.258 . S
N163 Co154 2.057 . S
N163 C164 1.316 1_455 S
N163 C165 1.375 . S
C164 N163 1.316 1_655 S
C164 N166 1.347 . S
C164 H175 0.931 . S
C165 N163 1.375 . S
C165 C167 1.350 . S
C165 H174 0.930 . S
N166 C164 1.347 . S
N166 C167 1.373 1_655 S
C167 C165 1.350 . S
C167 N166 1.373 1_455 S
C167 H181 0.931 . S
C168 O171 1.256 . S
C168 O172 1.255 . S
O169 Co152 2.021 . S
O169 C162 1.259 1_545 S
O170 Co154 2.117 . S
O170 C162 1.258 . S
O171 Co154 2.020 1_545 S
O171 C168 1.256 . S
O172 Co152 2.062 . S
O172 C168 1.255 . S
O173 C153 1.259 1_565 S
O173 Co154 2.021 1_655 S
H174 C165 0.930 . S
H175 C164 0.931 . S
O176 Co152 2.117 1_655 S
O176 C153 1.258 . S
O177 Co152 2.020 1_565 S
O177 C179 1.256 . S
O178 Co154 2.062 . S
O178 C179 1.255 . S
C179 O177 1.256 . S
C179 O178 1.255 . S
H180 C159 0.931 1_655 S
H181 C167 0.931 . S
Co182 N187 2.057 1_546 S
Co182 O199 2.021 . S
Co182 O202 2.062 . S
Co182 O206 2.117 1_545 S
Co182 O207 2.020 . S
C183 O203 1.259 . S
C183 O206 1.258 . S
Co184 N193 2.057 1_565 S
Co184 O200 2.117 1_565 S
Co184 O201 2.020 . S
Co184 O203 2.021 . S
Co184 O208 2.065 . S
C185 N187 1.316 1_545 S
C185 N188 1.347 . S
C185 H190 0.931 . S
C186 N187 1.375 . S
C186 C189 1.350 . S
C186 H191 0.930 . S
N187 Co182 2.057 1_564 S
N187 C185 1.316 1_565 S
N187 C186 1.375 . S
N188 C185 1.347 . S
N188 C189 1.373 1_545 S
C189 C186 1.350 . S
C189 N188 1.373 1_565 S
C189 H210 0.931 . S
H190 C185 0.931 . S
H191 C186 0.930 . S
C192 O199 1.259 . S
C192 O200 1.258 . S
N193 Co184 2.057 1_545 S
N193 C194 1.316 1_545 S
N193 C195 1.375 . S
C194 N193 1.316 1_565 S
C194 N196 1.359 . S
C194 H205 0.931 . S
C195 N193 1.375 . S
C195 C197 1.350 . S
C195 H204 0.930 . S
N196 C194 1.359 . S
N196 C197 1.335 1_565 S
C197 C195 1.350 . S
C197 N196 1.335 1_545 S
C197 H211 0.931 . S
C198 O201 1.264 . S
C198 O202 1.244 1_565 S
O199 Co182 2.021 . S
O199 C192 1.259 . S
O200 Co184 2.117 1_545 S
O200 C192 1.258 . S
O201 Co184 2.020 . S
O201 C198 1.264 . S
O202 Co182 2.062 . S
O202 C198 1.244 1_545 S
O203 C183 1.259 . S
O203 Co184 2.021 . S
H204 C195 0.930 . S
H205 C194 0.931 . S
O206 Co182 2.117 1_565 S
O206 C183 1.258 . S
O207 Co182 2.020 . S
O207 C209 1.256 . S
O208 Co184 2.065 . S
O208 C209 1.247 1_565 S
C209 O207 1.256 . S
C209 O208 1.247 1_545 S
H210 C189 0.931 . S
H211 C197 0.931 . S
Co212 N217 2.057 . S
Co212 O229 2.021 . S
Co212 O232 2.062 . S
Co212 O236 2.117 . S
Co212 O237 2.020 . S
C213 O233 1.259 . S
C213 O236 1.258 . S
Co214 N223 2.057 . S
Co214 O230 2.117 . S
Co214 O231 2.020 . S
Co214 O233 2.021 . S
Co214 O238 2.062 . S
C215 N217 1.316 . S
C215 N218 1.347 . S
C215 H220 0.931 . S
C216 N217 1.375 . S
C216 C219 1.350 . S
C216 H221 0.930 . S
N217 Co212 2.057 . S
N217 C215 1.316 . S
N217 C216 1.375 . S
N218 C215 1.347 . S
N218 C219 1.373 . S
C219 C216 1.350 . S
C219 N218 1.373 . S
C219 H240 0.931 1_556 S
H220 C215 0.931 . S
H221 C216 0.930 . S
C222 O229 1.259 . S
C222 O230 1.258 . S
N223 Co214 2.057 . S
N223 C224 1.316 . S
N223 C225 1.375 . S
C224 N223 1.316 . S
C224 N226 1.347 . S
C224 H235 0.931 . S
C225 N223 1.375 . S
C225 C227 1.350 . S
C225 H234 0.930 . S
N226 C224 1.347 . S
N226 C227 1.373 . S
C227 C225 1.350 . S
C227 N226 1.373 . S
C227 H241 0.931 . S
C228 O231 1.256 . S
C228 O232 1.255 . S
O229 Co212 2.021 . S
O229 C222 1.259 . S
O230 Co214 2.117 . S
O230 C222 1.258 . S
O231 Co214 2.020 . S
O231 C228 1.256 . S
O232 Co212 2.062 . S
O232 C228 1.255 . S
O233 C213 1.259 . S
O233 Co214 2.021 . S
H234 C225 0.930 . S
H235 C224 0.931 . S
O236 Co212 2.117 . S
O236 C213 1.258 . S
O237 Co212 2.020 . S
O237 C239 1.256 . S
O238 Co214 2.062 . S
O238 C239 1.255 . S
C239 O237 1.256 . S
C239 O238 1.255 . S
H240 C219 0.931 1_554 S
H241 C227 0.931 . S
Co242 N247 2.057 . S
Co242 O259 2.021 1_455 S
Co242 O262 2.062 1_455 S
Co242 O266 2.117 . S
Co242 O267 2.020 . S
C243 O263 1.259 . S
C243 O266 1.258 . S
Co244 N253 2.057 . S
Co244 O260 2.117 1_455 S
Co244 O261 2.020 1_455 S
Co244 O263 2.021 . S
Co244 O268 2.062 . S
C245 N247 1.316 . S
C245 N248 1.347 . S
C245 H250 0.931 1_455 S
C246 N247 1.375 . S
C246 C249 1.350 . S
C246 H251 0.930 . S
N247 Co242 2.057 . S
N247 C245 1.316 . S
N247 C246 1.375 . S
N248 C245 1.347 . S
N248 C249 1.373 . S
C249 C246 1.350 . S
C249 N248 1.373 . S
C249 H270 0.931 . S
H250 C245 0.931 1_655 S
H251 C246 0.930 . S
C252 O259 1.259 . S
C252 O260 1.258 . S
N253 Co244 2.057 . S
N253 C254 1.316 . S
N253 C255 1.375 1_455 S
C254 N253 1.316 . S
C254 N256 1.347 . S
C254 H265 0.931 . S
C255 N253 1.375 1_655 S
C255 C257 1.351 . S
C255 H264 0.930 . S
N256 C254 1.347 . S
N256 C257 1.370 1_455 S
C257 C255 1.351 . S
C257 N256 1.370 1_655 S
C257 H271 0.933 . S
C258 O261 1.256 . S
C258 O262 1.255 . S
O259 Co242 2.021 1_655 S
O259 C252 1.259 . S
O260 Co244 2.117 1_655 S
O260 C252 1.258 . S
O261 Co244 2.020 1_655 S
O261 C258 1.256 . S
O262 Co242 2.062 1_655 S
O262 C258 1.255 . S
O263 C243 1.259 . S
O263 Co244 2.021 . S
H264 C255 0.930 . S
H265 C254 0.931 . S
O266 Co242 2.117 . S
O266 C243 1.258 . S
O267 Co242 2.020 . S
O267 C269 1.256 . S
O268 Co244 2.062 . S
O268 C269 1.255 . S
C269 O267 1.256 . S
C269 O268 1.255 . S
H270 C249 0.931 . S
H271 C257 0.933 . S
C272 C273 1.170 1_565 S
C272 C274 1.380 . S
C273 C272 1.170 1_545 S
C274 C272 1.380 . S
C274 C275 1.170 . S
C275 C274 1.170 . S
C276 C277 1.170 . S
C276 C278 1.380 . S
C277 C276 1.170 . S
C278 C276 1.380 . S
C278 C279 1.170 . S
C279 C278 1.170 . S
C280 C281 1.170 . S
C280 C282 1.380 . S
C281 C280 1.170 . S
C282 C280 1.380 . S
C282 C283 1.170 . S
C283 C282 1.170 . S
C284 C285 1.170 . S
C284 C286 1.380 . S
C285 C284 1.170 . S
C286 C284 1.380 . S
C286 C287 1.170 . S
C287 C286 1.170 . S
C288 C289 1.171 . S
C288 C290 1.381 1_565 S
C289 C288 1.171 . S
C290 C288 1.381 1_545 S
C290 C291 1.170 . S
C291 C290 1.170 . S
C292 C293 1.170 . S
C292 C294 1.380 . S
C293 C292 1.170 . S
C294 C292 1.380 . S
C294 C295 1.170 . S
C295 C294 1.170 . S
C296 C297 1.166 1_556 S
C296 C298 1.384 . S
C297 C296 1.166 1_554 S
C298 C296 1.384 . S
C298 C299 1.170 . S
C299 C298 1.170 . S
C300 C301 1.170 . S
C300 C302 1.380 . S
C301 C300 1.170 . S
C302 C300 1.380 . S
C302 C303 1.170 1_655 S
C303 C302 1.170 1_455 S
C304 C305 1.170 . S
C304 C306 1.380 . S
C305 C304 1.170 . S
C306 C304 1.380 . S
C306 C307 1.170 . S
C307 C306 1.170 . S
C308 C309 1.170 . S
C308 C310 1.380 . S
C309 C308 1.170 . S
C310 C308 1.380 . S
C310 C311 1.170 1_545 S
C311 C310 1.170 1_565 S
C312 C313 1.170 . S
C312 C314 1.380 . S
C313 C312 1.170 . S
C314 C312 1.380 . S
C314 C315 1.170 . S
C315 C314 1.170 . S
C316 C317 1.170 . S
C316 C318 1.380 . S
C317 C316 1.170 . S
C318 C316 1.380 . S
C318 C319 1.170 . S
C319 C318 1.170 . S
C320 C321 1.170 . S
C320 C322 1.380 1_655 S
C321 C320 1.170 . S
C322 C320 1.380 1_455 S
C322 C323 1.170 . S
C323 C322 1.170 . S
C324 C325 1.170 . S
C324 C326 1.380 . S
C325 C324 1.170 . S
C326 C324 1.380 . S
C326 C327 1.170 . S
C327 C326 1.170 . S
C328 C329 1.170 1_556 S
C328 C330 1.380 . S
C329 C328 1.170 1_554 S
C330 C328 1.380 . S
C330 C331 1.170 . S
C331 C330 1.170 . S
C332 C333 1.170 . S
C332 C334 1.380 1_554 S
C333 C332 1.170 . S
C334 C332 1.380 1_556 S
C334 C335 1.170 . S
C335 C334 1.170 . S
C336 C337 1.170 . S
C336 C338 1.380 . S
C337 C336 1.170 . S
C338 C336 1.380 . S
C338 C339 1.170 . S
C339 C338 1.170 . S
C340 C341 1.170 . S
C340 C342 1.380 . S
C341 C340 1.170 . S
C342 C340 1.380 . S
C342 C343 1.170 . S
C343 C342 1.170 . S
C344 C345 1.170 . S
C344 C346 1.380 . S
C345 C344 1.170 . S
C346 C344 1.380 . S
C346 C347 1.170 . S
C347 C346 1.170 . S
C348 C349 1.170 . S
C348 C350 1.380 . S
C349 C348 1.170 . S
C350 C348 1.380 . S
C350 C351 1.170 . S
C351 C350 1.170 . S
C352 C353 1.170 . S
C352 C354 1.380 . S
C353 C352 1.170 . S
C354 C352 1.380 . S
C354 C355 1.170 . S
C355 C354 1.170 . S
C356 C357 1.170 . S
C356 C358 1.380 . S
C357 C356 1.170 . S
C358 C356 1.380 . S
C358 C359 1.170 . S
C359 C358 1.170 . S
C360 C361 1.170 . S
C360 C362 1.380 . S
C361 C360 1.170 . S
C362 C360 1.380 . S
C362 C363 1.170 . S
C363 C362 1.170 . S
C364 C365 1.170 . S
C364 C366 1.380 . S
C365 C364 1.170 . S
C366 C364 1.380 . S
C366 C367 1.170 . S
C367 C366 1.170 . S
C273 C125 1.610 1_545 S
C275 C162 1.745 . S
C279 C192 1.827 . S
C277 C144 1.665 . S
C283 N226 1.404 . S
C281 C87 1.391 . S
C287 N256 1.422 . S
C285 C106 1.368 . S
C291 C153 1.736 . S
C289 C49 1.637 . S
C293 C68 1.751 1_556 S
C295 C183 1.823 . S
C297 C11 1.418 . S
C299 N218 1.406 . S
C301 C30 1.477 1_556 S
C303 N248 1.441 . S
C307 C168 0.637 . S
C305 C97 0.764 . S
C311 C198 1.131 . S
C309 C116 1.098 . S
C315 C239 1.394 . S
C313 C135 1.356 . S
C317 C78 0.897 . S
C319 C269 0.891 . S
C321 C21 0.726 1_556 S
C323 C179 0.709 . S
C327 C209 1.150 . S
C325 C40 1.083 1_545 S
C331 C228 1.400 . S
C329 C59 1.366 . S
C333 C2 0.862 . S
C335 C258 0.888 . S
C337 C101 1.449 . S
C339 N158 1.485 . S
C341 C120 1.444 . S
C343 N188 1.431 . S
C347 C213 1.657 1_554 S
C345 C139 1.623 . S
C351 C243 1.614 1_554 S
C349 C82 1.602 . S
C353 C25 1.485 . S
C355 N166 1.492 . S
C359 N196 1.457 . S
C357 C44 1.462 . S
C363 C222 1.655 . S
C361 C63 1.627 . S
C365 C6 1.602 . S
C367 C252 1.614 . S
