# Generated by pormake.
# Topology rtl, (3,6)-cn, num edge types: 1
# Building blocks:
#     Node 0, Type 0, BuildingBlock: BETDAH_clean_linker_0, # of connection points: 3
#     Node 1, Type 0, BuildingBlock: BETDAH_clean_linker_0, # of connection points: 3
#     Node 2, Type 0, BuildingBlock: BETDAH_clean_linker_0, # of connection points: 3
#     Node 3, Type 0, BuildingBlock: BETDAH_clean_linker_0, # of connection points: 3
#     Node 4, Type 1, BuildingBlock: KUMJIN_clean_sbu_1, # of connection points: 6
#     Node 5, Type 1, BuildingBlock: KUMJIN_clean_sbu_1, # of connection points: 6
#     Edge 6, Type (0, 1), BuildingBlock: TEMPAE_clean_linker_10, # of connection points: 2
#     Edge 7, Type (0, 1), BuildingBlock: TEMPAE_clean_linker_10, # of connection points: 2
#     Edge 8, Type (0, 1), BuildingBlock: TEMPAE_clean_linker_10, # of connection points: 2
#     Edge 9, Type (0, 1), BuildingBlock: TEMPAE_clean_linker_10, # of connection points: 2
#     Edge 10, Type (0, 1), BuildingBlock: TEMPAE_clean_linker_10, # of connection points: 2
#     Edge 11, Type (0, 1), BuildingBlock: TEMPAE_clean_linker_10, # of connection points: 2
#     Edge 12, Type (0, 1), BuildingBlock: TEMPAE_clean_linker_10, # of connection points: 2
#     Edge 13, Type (0, 1), BuildingBlock: TEMPAE_clean_linker_10, # of connection points: 2
#     Edge 14, Type (0, 1), BuildingBlock: TEMPAE_clean_linker_10, # of connection points: 2
#     Edge 15, Type (0, 1), BuildingBlock: TEMPAE_clean_linker_10, # of connection points: 2
#     Edge 16, Type (0, 1), BuildingBlock: TEMPAE_clean_linker_10, # of connection points: 2
#     Edge 17, Type (0, 1), BuildingBlock: TEMPAE_clean_linker_10, # of connection points: 2
# Relax obj value: 0.049
# Max RMSD: 0.218
# Mean RMSD: 0.157
data_MOF--net-rtl--node1-KUMJIN_clean_sbu_1--node2-BETDAH_clean_linker_0--edge1-TEMPAE_clean_linker_10
_symmetry_space_group_name_H-M    P1
_symmetry_Int_Tables_number       1
_symmetry_cell_setting            triclinic
loop_
_symmetry_equiv_pos_as_xyz
'x, y, z'
_cell_length_a     35.777199
_cell_length_b     35.903851
_cell_length_c     27.64823
_cell_angle_alpha  78.290936
_cell_angle_beta   101.05462
_cell_angle_gamma 91.33392
loop_
_atom_site_label
_atom_site_type_symbol
_atom_site_fract_x
_atom_site_fract_y
_atom_site_fract_z
_atom_type_partial_charge
H0 H 0.15073 0.88911 0.99682 0.0
H1 H 0.23558 0.82815 0.11569 0.0
H2 H 0.23202 0.81616 0.96315 0.0
C3 C 0.17436 0.86892 0.00919 0.0
C4 C 0.18853 0.85308 0.97365 0.0
C5 C 0.19052 0.85969 0.06047 0.0
C6 C 0.22266 0.8356 0.07613 0.0
C7 C 0.23789 0.81997 0.04146 0.0
C8 C 0.22067 0.82853 0.99003 0.0
N9 N 0.27057 0.79595 0.06039 0.0
C10 C 0.28634 0.77321 0.03414 0.0
H11 H 0.63821 0.64704 0.6374 0.0
H12 H 0.72199 0.72393 0.58411 0.0
H13 H 0.70642 0.71104 0.73696 0.0
C14 C 0.66063 0.66709 0.64488 0.0
C15 C 0.66981 0.67648 0.6926 0.0
C16 C 0.67979 0.68333 0.60606 0.0
C17 C 0.70731 0.71118 0.61406 0.0
C18 C 0.71646 0.72144 0.66146 0.0
C19 C 0.69803 0.70373 0.70031 0.0
N20 N 0.7445 0.74876 0.67242 0.0
C21 C 0.76527 0.76976 0.63889 0.0
H22 H 0.87193 0.13164 0.09275 0.0
H23 H 0.79169 0.2063 0.12531 0.0
H24 H 0.78883 0.19422 0.97293 0.0
C25 C 0.84864 0.15223 0.08008 0.0
C26 C 0.83291 0.16168 0.02868 0.0
C27 C 0.8346 0.16848 0.11534 0.0
C28 C 0.80289 0.19359 0.09861 0.0
C29 C 0.78613 0.20246 0.04701 0.0
C30 C 0.80133 0.18649 0.01261 0.0
N31 N 0.75418 0.2274 0.02752 0.0
C32 C 0.73713 0.24883 0.05416 0.0
H33 H 0.36756 0.38722 0.44893 0.0
H34 H 0.31002 0.29012 0.51764 0.0
H35 H 0.33979 0.29331 0.37377 0.0
C36 C 0.35504 0.35963 0.44741 0.0
C37 C 0.35556 0.34319 0.40549 0.0
C38 C 0.33943 0.34041 0.48838 0.0
C39 C 0.32223 0.30499 0.48628 0.0
C40 C 0.32164 0.28857 0.4441 0.0
C41 C 0.33906 0.30728 0.40481 0.0
N42 N 0.30503 0.25272 0.44027 0.0
C43 C 0.27854 0.23505 0.46786 0.0
Eu44 Eu 0.03662 0.97761 0.50951 0.0
C45 C 0.95199 0.12671 0.52112 0.0
N46 N 0.98539 0.11185 0.55036 0.0
C47 C 0.01212 0.17405 0.54428 0.0
C48 C 0.9477 0.16617 0.50157 0.0
C49 C 0.01511 0.13478 0.56272 0.0
C50 C 0.97832 0.18982 0.51345 0.0
C51 C 0.88793 0.11686 0.47761 0.0
C52 C 0.92241 0.10223 0.50922 0.0
C53 C 0.88357 0.15614 0.4583 0.0
C54 C 0.91331 0.18072 0.47033 0.0
Eu55 Eu 0.98772 0.0454 0.57943 0.0
N56 N 0.92779 0.06408 0.52718 0.0
C57 C 0.85886 0.09153 0.46607 0.0
C58 C 0.89874 0.03961 0.51822 0.0
C59 C 0.86416 0.05281 0.48692 0.0
H60 H 0.04089 0.12289 0.58763 0.0
H61 H 0.84144 0.03313 0.47936 0.0
H62 H 0.9841 0.89961 0.50256 0.0
H63 H 0.18331 0.99122 0.60746 0.0
H64 H 0.90155 0.01004 0.53575 0.0
H65 H 0.83204 0.10164 0.44174 0.0
H66 H 0.12306 0.01353 0.55092 0.0
H67 H 0.03583 0.19214 0.55404 0.0
H68 H 0.85735 0.1678 0.43379 0.0
H69 H 0.90957 0.21093 0.45484 0.0
H70 H 0.9895 0.83054 0.53745 0.0
H71 H 0.97613 0.22026 0.49909 0.0
H72 H 0.19296 0.92302 0.64681 0.0
N73 N 0.03949 0.91124 0.53949 0.0
C74 C 0.07298 0.89673 0.56883 0.0
C75 C 0.01311 0.84885 0.54678 0.0
C76 C 0.07751 0.85738 0.58906 0.0
C77 C 0.00992 0.88802 0.52762 0.0
C78 C 0.04701 0.83346 0.57776 0.0
N79 N 0.09684 0.95954 0.56146 0.0
C80 C 0.1259 0.98418 0.56941 0.0
C81 C 0.13703 0.90725 0.6118 0.0
C82 C 0.10242 0.9215 0.58017 0.0
C83 C 0.16604 0.93283 0.62252 0.0
C84 C 0.1606 0.97138 0.6007 0.0
H85 H 0.04936 0.80309 0.59268 0.0
H86 H 0.1159 0.81311 0.63644 0.0
H87 H 0.16791 0.85672 0.65641 0.0
O88 O 0.07248 0.9932 0.45323 0.0
O89 O 0.03786 0.95851 0.59343 0.0
O90 O 0.04162 0.01374 0.62369 0.0
O91 O 0.03546 0.945 0.4506 0.0
O92 O 0.05734 0.0385 0.50637 0.0
O93 O 0.05063 0.05491 0.58091 0.0
O94 O 0.95149 0.02961 0.63522 0.0
O95 O 0.98617 0.0644 0.49541 0.0
O96 O 0.98263 0.00911 0.46529 0.0
O97 O 0.98871 0.07759 0.63875 0.0
O98 O 0.96676 0.98463 0.58243 0.0
O99 O 0.97373 0.96792 0.50815 0.0
C100 C 0.04871 0.97718 0.62976 0.0
C101 C 0.04927 0.97842 0.37391 0.0
C102 C 0.05976 0.97301 0.29101 0.0
C103 C 0.02976 0.99938 0.26891 0.0
C104 C 0.01978 0.00491 0.35135 0.0
C105 C 0.00995 0.01517 0.29901 0.0
C106 C 0.06927 0.9627 0.34381 0.0
C107 C 0.06657 0.05931 0.54101 0.0
C108 C 0.05951 0.96672 0.42875 0.0
C109 C 0.11198 0.84322 0.62042 0.0
C110 C 0.1416 0.86808 0.63185 0.0
C111 C 0.97535 0.04563 0.45917 0.0
C112 C 0.97442 0.04373 0.71496 0.0
C113 C 0.96352 0.04845 0.79792 0.0
C114 C 0.99334 0.02186 0.81992 0.0
C115 C 1.00373 0.01702 0.73742 0.0
C116 C 0.95431 0.05923 0.74514 0.0
C117 C 0.01327 0.00631 0.78973 0.0
C118 C 0.95781 0.96357 0.54807 0.0
C119 C 0.96446 0.05584 0.66014 0.0
H120 H 0.02128 0.00744 0.22839 0.0
H121 H 1.00451 0.01753 0.37424 0.0
H122 H 0.98683 0.03527 0.28175 0.0
H123 H 0.09251 0.94273 0.36166 0.0
H124 H 1.00159 0.01345 0.86043 0.0
H125 H 0.01907 0.00456 0.71445 0.0
H126 H 0.9312 0.07938 0.72737 0.0
H127 H 0.03626 0.98605 0.80691 0.0
Eu128 Eu 0.47099 0.48595 1.00125 0.0
C129 C 0.633 0.55465 0.07048 0.0
N130 N 0.61633 0.52441 0.0959 0.0
C131 C 0.6756 0.48967 0.11872 0.0
C132 C 0.67185 0.55319 0.06755 0.0
C133 C 0.63703 0.49245 0.12063 0.0
C134 C 0.69307 0.52011 0.09191 0.0
C135 C 0.62724 0.61829 0.0185 0.0
C136 C 0.61089 0.58687 0.04616 0.0
C137 C 0.66594 0.61692 0.01567 0.0
C138 C 0.68817 0.58449 0.04012 0.0
Eu139 Eu 0.5509 0.53119 0.09553 0.0
N140 N 0.57307 0.58685 0.0479 0.0
C141 C 0.60411 0.65002 0.99402 0.0
C142 C 0.55082 0.61836 0.02587 0.0
C143 C 0.56583 0.65016 0.9981 0.0
H144 H 0.62391 0.46937 0.14261 0.0
H145 H 0.54789 0.67487 0.98009 0.0
H146 H 0.39223 0.53596 0.99642 0.0
H147 H 0.50322 0.33384 0.07424 0.0
H148 H 0.52162 0.61945 0.02985 0.0
H149 H 0.61558 0.67468 0.97232 0.0
H150 H 0.51265 0.39765 0.02681 0.0
H151 H 0.69187 0.46415 0.13812 0.0
H152 H 0.6789 0.64071 0.99435 0.0
H153 H 0.71793 0.58381 0.03732 0.0
H154 H 0.33082 0.52611 0.02545 0.0
H155 H 0.72297 0.51786 0.09044 0.0
H156 H 0.44567 0.32036 0.1116 0.0
N157 N 0.41201 0.47932 0.02769 0.0
C158 C 0.40416 0.44402 0.05212 0.0
C159 C 0.35123 0.50285 0.03332 0.0
C160 C 0.36923 0.43696 0.06853 0.0
C161 C 0.38603 0.50846 0.01724 0.0
C162 C 0.34281 0.46697 0.05917 0.0
N163 N 0.46483 0.42254 0.04465 0.0
C164 C 0.48924 0.39336 0.0465 0.0
C165 C 0.42364 0.37812 0.08616 0.0
C166 C 0.43143 0.41505 0.06135 0.0
C167 C 0.45058 0.34904 0.09262 0.0
C168 C 0.48322 0.35658 0.07192 0.0
H169 H 0.31573 0.46266 0.0714 0.0
H170 H 0.33472 0.3942 0.10551 0.0
H171 H 0.38227 0.34272 0.12092 0.0
O172 O 0.47008 0.45358 0.94196 0.0
O173 O 0.46075 0.49285 0.07788 0.0
O174 O 0.51895 0.48024 0.12938 0.0
O175 O 0.42457 0.49338 0.93581 0.0
O176 O 0.53207 0.46277 0.01909 0.0
O177 O 0.55395 0.46755 0.1016 0.0
O178 O 0.53993 0.56927 0.1437 0.0
O179 O 0.56216 0.53125 0.01743 0.0
O180 O 0.50364 0.53513 0.96424 0.0
O181 O 0.58831 0.53061 0.16811 0.0
O182 O 0.49228 0.56023 0.07092 0.0
O183 O 0.46477 0.54961 0.99182 0.0
C184 C 0.48175 0.4777 0.12137 0.0
C185 C 0.44061 0.48402 0.86039 0.0
C186 C 0.42792 0.47436 0.77387 0.0
C187 C 0.44468 0.50961 0.75882 0.0
C188 C 0.45689 0.51916 0.84452 0.0
C189 C 0.459 0.53183 0.79399 0.0
C190 C 0.42598 0.46174 0.825 0.0
C191 C 0.55527 0.45193 0.06286 0.0
C192 C 0.43923 0.47018 0.91381 0.0
C193 C 0.36165 0.40029 0.09336 0.0
C194 C 0.38878 0.37099 0.10222 0.0
C195 C 0.54043 0.54135 0.97281 0.0
C196 C 0.56041 0.54796 0.23092 0.0
C197 C 0.56999 0.56297 0.31463 0.0
C198 C 0.54558 0.53309 0.32879 0.0
C199 C 0.53618 0.51837 0.24567 0.0
C200 C 0.57724 0.57016 0.26533 0.0
C201 C 0.52887 0.51102 0.29446 0.0
C202 C 0.46762 0.56902 0.02796 0.0
C203 C 0.56841 0.55613 0.17981 0.0
H204 H 0.44624 0.52025 0.7197 0.0
H205 H 0.4678 0.53674 0.87125 0.0
H206 H 0.47165 0.55899 0.78202 0.0
H207 H 0.41361 0.43444 0.83738 0.0
H208 H 0.53987 0.52638 0.36665 0.0
H209 H 0.52304 0.50099 0.21958 0.0
H210 H 0.59565 0.59325 0.25349 0.0
H211 H 0.51037 0.48802 0.30579 0.0
C212 C 0.25631 0.17415 0.51021 0.0
C213 C 0.24948 0.21281 0.48959 0.0
C214 C 0.22668 0.15037 0.52376 0.0
C215 C 0.1894 0.16578 0.51625 0.0
C216 C 0.18293 0.20537 0.49768 0.0
C217 C 0.21314 0.22846 0.48429 0.0
C218 C 0.23483 0.10837 0.54331 0.0
C219 C 0.14371 0.22294 0.48933 0.0
C220 C 0.10836 0.09845 0.48823 0.0
C221 C 0.09697 0.08781 0.53486 0.0
C222 C 0.13794 0.12418 0.48166 0.0
C223 C 0.15673 0.13987 0.52269 0.0
C224 C 0.14506 0.12973 0.56972 0.0
C225 C 0.11543 0.10368 0.57533 0.0
C226 C 0.14947 0.13412 0.43084 0.0
C227 C 0.16428 0.14594 0.61428 0.0
H228 H 0.2845 0.16217 0.51375 0.0
H229 H 0.208 0.25842 0.46784 0.0
H230 H 0.22325 0.09835 0.57808 0.0
H231 H 0.22049 0.09223 0.51492 0.0
H232 H 0.26581 0.10152 0.55154 0.0
H233 H 0.14428 0.25452 0.48043 0.0
H234 H 0.12497 0.21317 0.45759 0.0
H235 H 0.13077 0.21368 0.52313 0.0
H236 H 0.09423 0.0865 0.45664 0.0
H237 H 0.10713 0.09532 0.61165 0.0
H238 H 0.17959 0.12545 0.43438 0.0
H239 H 0.14738 0.16534 0.41662 0.0
H240 H 0.13148 0.12004 0.40254 0.0
H241 H 0.19466 0.13678 0.62489 0.0
H242 H 0.15061 0.13674 0.64751 0.0
H243 H 0.16358 0.17748 0.60424 0.0
C244 C 0.34157 0.75678 1.00127 0.0
C245 C 0.30755 0.74608 0.01766 0.0
C246 C 0.36675 0.7292 0.99558 0.0
C247 C 0.35762 0.69017 0.00712 0.0
C248 C 0.32206 0.6796 0.0208 0.0
C249 C 0.29743 0.70781 0.02606 0.0
C250 C 0.40422 0.74166 0.98062 0.0
C251 C 0.31119 0.63837 0.03339 0.0
C252 C 0.41617 0.61447 0.97502 0.0
C253 C 0.44068 0.60134 0.02131 0.0
C254 C 0.38932 0.64378 0.96943 0.0
C255 C 0.38694 0.66034 0.01107 0.0
C256 C 0.41209 0.6477 0.05754 0.0
C257 C 0.43862 0.61847 0.06206 0.0
C258 C 0.36309 0.65659 0.91926 0.0
C259 C 0.41052 0.66456 0.10295 0.0
H260 H 0.3494 0.78649 0.99539 0.0
H261 H 0.27119 0.69972 0.03933 0.0
H262 H 0.42765 0.73374 0.01369 0.0
H263 H 0.40997 0.72698 0.95109 0.0
H264 H 0.40482 0.77288 0.96649 0.0
H265 H 0.28093 0.63516 0.03748 0.0
H266 H 0.31602 0.62323 0.00386 0.0
H267 H 0.32944 0.62422 0.06929 0.0
H268 H 0.41765 0.60159 0.9432 0.0
H269 H 0.45735 0.60863 0.098 0.0
H270 H 0.36517 0.68776 0.9062 0.0
H271 H 0.33315 0.65068 0.92329 0.0
H272 H 0.36971 0.64207 0.88997 0.0
H273 H 0.41444 0.69578 0.09391 0.0
H274 H 0.43265 0.65216 0.13601 0.0
H275 H 0.38215 0.65964 0.1135 0.0
C276 C 0.77851 0.83264 0.59128 0.0
C277 C 0.79008 0.79499 0.61247 0.0
C278 C 0.80463 0.85967 0.57432 0.0
C279 C 0.84317 0.84861 0.57913 0.0
C280 C 0.85431 0.80995 0.59799 0.0
C281 C 0.82756 0.78356 0.61468 0.0
C282 C 0.79154 0.90052 0.55443 0.0
C283 C 0.89503 0.79695 0.60364 0.0
C284 C 0.91031 0.91739 0.51536 0.0
C285 C 0.92842 0.93411 0.5552 0.0
C286 C 0.88259 0.88937 0.52243 0.0
C287 C 0.87254 0.87809 0.57035 0.0
C288 C 0.89057 0.89509 0.61053 0.0
C289 C 0.91821 0.9228 0.60248 0.0
C290 C 0.86404 0.87189 0.47871 0.0
C291 C 0.8807 0.88399 0.66225 0.0
H292 H 0.74949 0.84137 0.59019 0.0
H293 H 0.83642 0.75438 0.63166 0.0
H294 H 0.80399 0.91804 0.58211 0.0
H295 H 0.80159 0.91215 0.51891 0.0
H296 H 0.76003 0.90361 0.54744 0.0
H297 H 0.89806 0.76544 0.61289 0.0
H298 H 0.90595 0.8079 0.56856 0.0
H299 H 0.91325 0.80855 0.6342 0.0
H300 H 0.91765 0.92631 0.47853 0.0
H301 H 0.93203 0.93546 0.63357 0.0
H302 H 0.83281 0.87715 0.47079 0.0
H303 H 0.86874 0.84061 0.48836 0.0
H304 H 0.87527 0.88348 0.44399 0.0
H305 H 0.84992 0.88925 0.65995 0.0
H306 H 0.89725 0.90003 0.6894 0.0
H307 H 0.88635 0.85315 0.67718 0.0
C308 C 0.67604 0.26647 0.07158 0.0
C309 C 0.71434 0.27457 0.07074 0.0
C310 C 0.65102 0.29433 0.07677 0.0
C311 C 0.66482 0.33108 0.08099 0.0
C312 C 0.70414 0.33852 0.08322 0.0
C313 C 0.72848 0.3101 0.07775 0.0
C314 C 0.60936 0.28523 0.0742 0.0
C315 C 0.72001 0.37721 0.08803 0.0
C316 C 0.59469 0.41335 0.02523 0.0
C317 C 0.58382 0.42141 0.06813 0.0
C318 C 0.62126 0.38429 0.0291 0.0
C319 C 0.63747 0.3627 0.07711 0.0
C320 C 0.62682 0.37084 0.12065 0.0
C321 C 0.59994 0.4 0.11562 0.0
C322 C 0.63175 0.3765 0.98166 0.0
C323 C 0.64356 0.34855 0.17244 0.0
H324 H 0.66521 0.23899 0.0655 0.0
H325 H 0.75814 0.31629 0.07647 0.0
H326 H 0.59867 0.29439 0.10511 0.0
H327 H 0.59261 0.3011 0.03819 0.0
H328 H 0.60398 0.25437 0.07651 0.0
H329 H 0.75165 0.37695 0.09577 0.0
H330 H 0.70974 0.39798 0.05254 0.0
H331 H 0.70985 0.38744 0.1186 0.0
H332 H 0.58244 0.42987 0.98842 0.0
H333 H 0.5913 0.4058 0.14889 0.0
H334 H 0.62447 0.34686 0.97803 0.0
H335 H 0.66292 0.37938 0.98357 0.0
H336 H 0.61686 0.39614 0.94731 0.0
H337 H 0.63593 0.31817 0.17524 0.0
H338 H 0.63335 0.35934 0.20262 0.0
H339 H 0.6751 0.34989 0.17906 0.0
C340 C 0.19557 0.88902 0.13666 0.0
C341 C 0.17298 0.87485 0.09725 0.0
C342 C 0.17884 0.90464 0.17025 0.0
C343 C 0.13864 0.90617 0.16409 0.0
C344 C 0.11576 0.89139 0.12486 0.0
C345 C 0.1332 0.87577 0.09212 0.0
C346 C 0.20411 0.91996 0.21186 0.0
C347 C 0.0728 0.89243 0.11709 0.0
C348 C 0.09112 0.91732 0.27194 0.0
C349 C 0.08096 0.9561 0.25921 0.0
C350 C 0.11078 0.90088 0.24202 0.0
C351 C 0.12024 0.92369 0.19808 0.0
C352 C 0.11042 0.96291 0.18525 0.0
C353 C 0.09099 0.97866 0.21604 0.0
C354 C 0.12077 0.85895 0.25691 0.0
C355 C 0.11994 0.98811 0.13857 0.0
H356 H 0.22629 0.88863 0.14061 0.0
H357 H 0.11559 0.8642 0.06234 0.0
H358 H 0.19849 0.95088 0.20707 0.0
H359 H 0.19757 0.90598 0.24886 0.0
H360 H 0.23485 0.91549 0.21256 0.0
H361 H 0.05916 0.87945 0.08499 0.0
H362 H 0.06334 0.87706 0.15158 0.0
H363 H 0.06244 0.9223 0.10997 0.0
H364 H 0.08305 0.89958 0.30487 0.0
H365 H 0.08378 0.00875 0.2064 0.0
H366 H 0.15171 0.85452 0.25926 0.0
H367 H 0.10545 0.84399 0.22777 0.0
H368 H 0.11328 0.84566 0.29367 0.0
H369 H 0.15099 0.98674 0.13928 0.0
H370 H 0.11139 0.01827 0.13475 0.0
H371 H 0.10527 0.97784 0.10469 0.0
C372 C 0.63888 0.61924 0.73709 0.0
C373 C 0.65041 0.65723 0.73417 0.0
C374 C 0.61972 0.60096 0.77486 0.0
C375 C 0.61316 0.62046 0.8121 0.0
C376 C 0.62533 0.65843 0.81032 0.0
C377 C 0.64324 0.67654 0.77099 0.0
C378 C 0.60666 0.56061 0.77504 0.0
C379 C 0.61986 0.67972 0.85035 0.0
C380 C 0.53701 0.58423 0.88824 0.0
C381 C 0.55859 0.56128 0.93114 0.0
C382 C 0.55432 0.60348 0.84898 0.0
C383 C 0.59433 0.60068 0.85354 0.0
C384 C 0.61633 0.57814 0.89722 0.0
C385 C 0.59813 0.55825 0.93503 0.0
C386 C 0.52979 0.62654 0.80247 0.0
C387 C 0.65916 0.5752 0.90422 0.0
H388 H 0.6451 0.6034 0.71008 0.0
H389 H 0.65136 0.70597 0.76905 0.0
H390 H 0.62178 0.54132 0.80944 0.0
H391 H 0.57575 0.55871 0.77573 0.0
H392 H 0.61189 0.55023 0.74167 0.0
H393 H 0.6303 0.70934 0.84313 0.0
H394 H 0.5893 0.68059 0.85268 0.0
H395 H 0.63537 0.6646 0.8876 0.0
H396 H 0.50664 0.58757 0.88555 0.0
H397 H 0.61503 0.54033 0.96786 0.0
H398 H 0.53311 0.61526 0.76898 0.0
H399 H 0.53909 0.65653 0.79636 0.0
H400 H 0.49914 0.62598 0.80493 0.0
H401 H 0.66726 0.56427 0.87286 0.0
H402 H 0.67203 0.55618 0.94027 0.0
H403 H 0.67161 0.60385 0.90354 0.0
C404 C 0.89362 0.15402 0.18123 0.0
C405 C 0.8538 0.15834 0.16917 0.0
C406 C 0.91231 0.13784 0.22998 0.0
C407 C 0.89088 0.127 0.26841 0.0
C408 C 0.85106 0.13424 0.25767 0.0
C409 C 0.83284 0.14946 0.20791 0.0
C410 C 0.95479 0.13055 0.23965 0.0
C411 C 0.82759 0.1245 0.29829 0.0
C412 C 0.93297 0.04639 0.3755 0.0
C413 C 0.95283 0.06629 0.41083 0.0
C414 C 0.91226 0.06582 0.32923 0.0
C415 C 0.91017 0.10611 0.31884 0.0
C416 C 0.92921 0.12632 0.35498 0.0
C417 C 0.95096 0.10621 0.39999 0.0
C418 C 0.89364 0.04325 0.29084 0.0
C419 C 0.92674 0.16918 0.34605 0.0
H420 H 0.91021 0.16199 0.15187 0.0
H421 H 0.80211 0.15286 0.19906 0.0
H422 H 0.96936 0.144 0.27075 0.0
H423 H 0.96075 0.09953 0.25145 0.0
H424 H 0.96738 0.14151 0.20587 0.0
H425 H 0.79812 0.13632 0.28542 0.0
H426 H 0.82605 0.09315 0.3099 0.0
H427 H 0.84118 0.13552 0.33208 0.0
H428 H 0.93412 0.01556 0.38359 0.0
H429 H 0.96676 0.12191 0.42654 0.0
H430 H 0.90575 0.05143 0.25617 0.0
H431 H 0.86266 0.04982 0.28023 0.0
H432 H 0.89774 0.01209 0.30491 0.0
H433 H 0.93568 0.18218 0.31021 0.0
H434 H 0.94469 0.18069 0.37696 0.0
H435 H 0.89674 0.17819 0.34271 0.0
C436 C 0.33572 0.39506 0.53092 0.0
C437 C 0.34409 0.35654 0.53449 0.0
C438 C 0.34598 0.41237 0.57263 0.0
C439 C 0.36543 0.39069 0.61891 0.0
C440 C 0.37207 0.35128 0.62344 0.0
C441 C 0.36116 0.33462 0.58116 0.0
C442 C 0.33788 0.45434 0.56637 0.0
C443 C 0.39284 0.32722 0.67202 0.0
C444 C 0.43355 0.4462 0.69981 0.0
C445 C 0.41254 0.45104 0.73607 0.0
C446 C 0.41882 0.42588 0.66227 0.0
C447 C 0.38205 0.41012 0.66069 0.0
C448 C 0.36096 0.41423 0.69777 0.0
C449 C 0.37652 0.43456 0.73516 0.0
C450 C 0.44243 0.42183 0.62375 0.0
C451 C 0.32161 0.39802 0.69716 0.0
H452 H 0.32222 0.41196 0.49494 0.0
H453 H 0.36798 0.3049 0.58391 0.0
H454 H 0.32427 0.45964 0.59721 0.0
H455 H 0.36505 0.47002 0.56848 0.0
H456 H 0.31906 0.46615 0.52978 0.0
H457 H 0.39195 0.29641 0.67112 0.0
H458 H 0.42308 0.33581 0.67898 0.0
H459 H 0.3804 0.33176 0.7042 0.0
H460 H 0.46163 0.45839 0.70081 0.0
H461 H 0.36005 0.43847 0.76287 0.0
H462 H 0.42755 0.43605 0.58569 0.0
H463 H 0.446 0.39134 0.62307 0.0
H464 H 0.47108 0.43442 0.63145 0.0
H465 H 0.30207 0.41211 0.66237 0.0
H466 H 0.30977 0.40189 0.73018 0.0
H467 H 0.32222 0.36722 0.69671 0.0
C468 C 0.65932 0.6947 0.51205 0.0
C469 C 0.67108 0.66955 0.55815 0.0
C470 C 0.64533 0.68084 0.46799 0.0
C471 C 0.64334 0.64102 0.4704 0.0
C472 C 0.65735 0.61571 0.51641 0.0
C473 C 0.671 0.63029 0.55964 0.0
C474 C 0.63087 0.70869 0.41955 0.0
C475 C 0.65609 0.57309 0.52067 0.0
C476 C 0.56717 0.59766 0.38396 0.0
C477 C 0.58816 0.58609 0.3515 0.0
C478 C 0.58447 0.61714 0.42133 0.0
C479 C 0.62378 0.62536 0.42642 0.0
C480 C 0.64482 0.61516 0.39249 0.0
C481 C 0.62678 0.59558 0.35547 0.0
C482 C 0.56096 0.62761 0.45667 0.0
C483 C 0.68675 0.62342 0.39667 0.0
H484 H 0.65929 0.72505 0.51094 0.0
H485 H 0.68054 0.61086 0.59526 0.0
H486 H 0.64244 0.70132 0.38816 0.0
H487 H 0.59938 0.70714 0.40984 0.0
H488 H 0.63858 0.73843 0.42242 0.0
H489 H 0.67078 0.55747 0.55817 0.0
H490 H 0.62601 0.56392 0.51435 0.0
H491 H 0.66954 0.56478 0.49139 0.0
H492 H 0.53716 0.59109 0.38049 0.0
H493 H 0.64329 0.58653 0.33077 0.0
H494 H 0.56411 0.65821 0.458 0.0
H495 H 0.57135 0.61116 0.49534 0.0
H496 H 0.53024 0.62173 0.44541 0.0
H497 H 0.69217 0.65354 0.39943 0.0
H498 H 0.69796 0.61766 0.36407 0.0
H499 H 0.70292 0.60545 0.43152 0.0
C500 C 0.8902 0.14456 0.9978 0.0
C501 C 0.85041 0.14615 0.99218 0.0
C502 C 0.90758 0.12881 0.96512 0.0
C503 C 0.88462 0.11456 0.92547 0.0
C504 C 0.84443 0.11664 0.91893 0.0
C505 C 0.82777 0.13241 0.95244 0.0
C506 C 0.95054 0.12718 0.97329 0.0
C507 C 0.81908 0.10184 0.8769 0.0
C508 C 0.93242 0.10401 0.81764 0.0
C509 C 0.94224 0.06515 0.82982 0.0
C510 C 0.91278 0.12028 0.84772 0.0
C511 C 0.90295 0.09721 0.89125 0.0
C512 C 0.91237 0.0579 0.90348 0.0
C513 C 0.93183 0.04233 0.87256 0.0
C514 C 0.90322 0.16231 0.83348 0.0
C515 C 0.90244 0.03242 0.9497 0.0
H516 H 0.90787 0.1558 0.02785 0.0
H517 H 0.79702 0.1333 0.94813 0.0
H518 H 0.96049 0.09721 0.97989 0.0
H519 H 0.96034 0.14275 0.93914 0.0
H520 H 0.96425 0.13963 0.00584 0.0
H521 H 0.78837 0.10645 0.87618 0.0
H522 H 0.82576 0.11609 0.84009 0.0
H523 H 0.8245 0.07093 0.88119 0.0
H524 H 0.94079 0.12194 0.78506 0.0
H525 H 0.93878 0.01218 0.88176 0.0
H526 H 0.91861 0.17685 0.86305 0.0
H527 H 0.8723 0.16701 0.83097 0.0
H528 H 0.91096 0.17585 0.79696 0.0
H529 H 0.91717 0.04217 0.98394 0.0
H530 H 0.91062 1.00222 0.95298 0.0
H531 H 0.87139 0.03412 0.94881 0.0
C532 C 0.35946 0.35914 0.31341 0.0
C533 C 0.37383 0.36309 0.36306 0.0
C534 C 0.37679 0.37693 0.27343 0.0
C535 C 0.40854 0.4005 0.28263 0.0
C536 C 0.42281 0.40528 0.33236 0.0
C537 C 0.4058 0.38606 0.37196 0.0
C538 C 0.36129 0.37018 0.22135 0.0
C539 C 0.45585 0.43107 0.34371 0.0
C540 C 0.47711 0.42272 0.19115 0.0
C541 C 0.46303 0.45796 0.16227 0.0
C542 C 0.45895 0.40317 0.22942 0.0
C543 C 0.42694 0.42007 0.24037 0.0
C544 C 0.4129 0.45593 0.21135 0.0
C545 C 0.43067 0.47407 0.17193 0.0
C546 C 0.47383 0.3643 0.25785 0.0
C547 C 0.37954 0.47548 0.22246 0.0
H548 H 0.33439 0.34226 0.30548 0.0
H549 H 0.41794 0.38889 0.41002 0.0
H550 H 0.35138 0.39751 0.19577 0.0
H551 H 0.38427 0.35852 0.20668 0.0
H552 H 0.3372 0.35008 0.22054 0.0
H553 H 0.46356 0.43186 0.38436 0.0
H554 H 0.4812 0.42156 0.33156 0.0
H555 H 0.44844 0.46041 0.3222 0.0
H556 H 0.50178 0.41004 0.1829 0.0
H557 H 0.41983 0.50135 0.14936 0.0
H558 H 0.45056 0.34336 0.2557 0.0
H559 H 0.48398 0.3649 0.29818 0.0
H560 H 0.49762 0.35429 0.2429 0.0
H561 H 0.35383 0.45775 0.21775 0.0
H562 H 0.373 0.50388 0.19751 0.0
H563 H 0.38565 0.47903 0.26216 0.0
C564 C 0.19016 0.87234 0.88107 0.0
C565 C 0.16924 0.86333 0.91984 0.0
C566 C 0.17191 0.88767 0.83137 0.0
C567 C 0.13211 0.89495 0.82072 0.0
C568 C 0.1107 0.88396 0.85915 0.0
C569 C 0.12941 0.86762 0.90784 0.0
C570 C 0.19535 0.89746 0.79072 0.0
C571 C 0.06824 0.89133 0.84959 0.0
C572 C 0.0907 0.97599 0.71382 0.0
C573 C 0.07084 0.9563 0.67823 0.0
C574 C 0.11106 0.95634 0.76018 0.0
C575 C 0.11285 0.91605 0.7704 0.0
C576 C 0.09377 0.89604 0.73405 0.0
C577 C 0.07232 0.91638 0.68897 0.0
C578 C 0.1297 0.9787 0.79882 0.0
C579 C 0.09593 0.85317 0.74277 0.0
H580 H 0.22089 0.86899 0.88984 0.0
H581 H 0.11283 0.85951 0.93718 0.0
H582 H 0.18166 0.88661 0.75684 0.0
H583 H 0.197 0.92882 0.77929 0.0
H584 H 0.22478 0.88553 0.80347 0.0
H585 H 0.0556 0.87985 0.88319 0.0
H586 H 0.06242 0.92239 0.83869 0.0
H587 H 0.05361 0.87847 0.81796 0.0
H588 H 0.08981 0.00683 0.70584 0.0
H589 H 0.05645 0.90084 0.66226 0.0
H590 H 0.16068 0.97212 0.80935 0.0
H591 H 0.1176 0.97034 0.83349 0.0
H592 H 0.1256 0.00989 0.785 0.0
H593 H 0.12585 0.84399 0.74589 0.0
H594 H 0.07777 0.84184 0.71186 0.0
H595 H 0.08707 0.84015 0.77866 0.0
loop_
_geom_bond_atom_site_label_1
_geom_bond_atom_site_label_2
_geom_bond_distance
_geom_bond_site_symmetry_2
_ccdc_geom_bond_type
H0 C3 0.929 . S
H1 C6 0.929 . S
H2 C8 0.930 . S
C3 H0 0.929 . S
C3 C4 1.398 1_554 S
C3 C5 1.396 . S
C4 C3 1.398 1_556 S
C4 C8 1.407 . S
C5 C3 1.396 . S
C5 C6 1.394 . S
C6 H1 0.929 . S
C6 C5 1.394 . S
C6 C7 1.382 . S
C7 C6 1.382 . S
C7 C8 1.392 1_554 S
C7 N9 1.420 . S
C8 H2 0.930 . S
C8 C4 1.407 . S
C8 C7 1.392 1_556 S
N9 C7 1.420 . S
N9 C10 1.244 . S
C10 N9 1.244 . S
H11 C14 0.929 . S
H12 C17 0.929 . S
H13 C19 0.930 . S
C14 H11 0.929 . S
C14 C15 1.398 . S
C14 C16 1.396 . S
C15 C14 1.398 . S
C15 C19 1.407 . S
C16 C14 1.396 . S
C16 C17 1.394 . S
C17 H12 0.929 . S
C17 C16 1.394 . S
C17 C18 1.382 . S
C18 C17 1.382 . S
C18 C19 1.392 . S
C18 N20 1.420 . S
C19 H13 0.930 . S
C19 C15 1.407 . S
C19 C18 1.392 . S
N20 C18 1.420 . S
N20 C21 1.244 . S
C21 N20 1.244 . S
H22 C25 0.929 . S
H23 C28 0.929 . S
H24 C30 0.930 1_556 S
C25 H22 0.929 . S
C25 C26 1.398 . S
C25 C27 1.396 . S
C26 C25 1.398 . S
C26 C30 1.407 . S
C27 C25 1.396 . S
C27 C28 1.394 . S
C28 H23 0.929 . S
C28 C27 1.394 . S
C28 C29 1.382 . S
C29 C28 1.382 . S
C29 C30 1.392 . S
C29 N31 1.420 . S
C30 H24 0.930 1_554 S
C30 C26 1.407 . S
C30 C29 1.392 . S
N31 C29 1.420 . S
N31 C32 1.244 . S
C32 N31 1.244 . S
H33 C36 0.929 . S
H34 C39 0.929 . S
H35 C41 0.930 . S
C36 H33 0.929 . S
C36 C37 1.398 . S
C36 C38 1.396 . S
C37 C36 1.398 . S
C37 C41 1.407 . S
C38 C36 1.396 . S
C38 C39 1.394 . S
C39 H34 0.929 . S
C39 C38 1.394 . S
C39 C40 1.382 . S
C40 C39 1.382 . S
C40 C41 1.392 . S
C40 N42 1.420 . S
C41 H35 0.930 . S
C41 C37 1.407 . S
C41 C40 1.392 . S
N42 C40 1.420 . S
N42 C43 1.244 . S
C43 N42 1.244 . S
Eu44 N73 2.600 . S
Eu44 N79 2.562 . S
Eu44 O88 2.462 . S
Eu44 O89 2.373 . S
Eu44 O91 2.432 . S
Eu44 O92 2.291 1_565 S
Eu44 O96 2.335 1_465 S
Eu44 O99 2.372 1_455 S
Eu44 C108 2.787 . S
C45 N46 1.365 . S
C45 C48 1.405 . S
C45 C52 1.448 . S
N46 C45 1.365 . S
N46 C49 1.319 1_655 S
N46 Eu55 2.600 . S
C47 C49 1.397 . S
C47 C50 1.367 1_455 S
C47 H67 0.931 . S
C48 C45 1.405 . S
C48 C50 1.403 . S
C48 C54 1.439 . S
C49 N46 1.319 1_455 S
C49 C47 1.397 . S
C49 H60 0.930 . S
C50 C47 1.367 1_655 S
C50 C48 1.403 . S
C50 H71 0.929 . S
C51 C52 1.430 . S
C51 C53 1.387 . S
C51 C57 1.404 . S
C52 C45 1.448 . S
C52 C51 1.430 . S
C52 N56 1.351 . S
C53 C51 1.387 . S
C53 C54 1.374 . S
C53 H68 0.931 . S
C54 C48 1.439 . S
C54 C53 1.374 . S
C54 H69 0.931 . S
Eu55 N46 2.600 . S
Eu55 N56 2.562 . S
Eu55 O90 2.335 1_655 S
Eu55 O93 2.372 1_655 S
Eu55 O94 2.462 . S
Eu55 O95 2.373 . S
Eu55 O97 2.432 . S
Eu55 O98 2.291 1_545 S
Eu55 C119 2.787 . S
N56 C52 1.351 . S
N56 Eu55 2.562 . S
N56 C58 1.325 . S
C57 C51 1.404 . S
C57 C59 1.366 . S
C57 H65 0.930 . S
C58 N56 1.325 . S
C58 C59 1.416 . S
C58 H64 0.929 . S
C59 C57 1.366 . S
C59 C58 1.416 . S
C59 H61 0.930 . S
H60 C49 0.930 . S
H61 C59 0.930 . S
H62 C77 0.930 1_655 S
H63 C84 0.930 . S
H64 C58 0.929 . S
H65 C57 0.930 . S
H66 C80 0.929 . S
H67 C47 0.931 . S
H68 C53 0.931 . S
H69 C54 0.931 . S
H70 C75 0.931 1_655 S
H71 C50 0.929 . S
H72 C83 0.930 . S
N73 Eu44 2.600 . S
N73 C74 1.365 . S
N73 C77 1.319 . S
C74 N73 1.365 . S
C74 C76 1.405 . S
C74 C82 1.448 . S
C75 H70 0.931 1_455 S
C75 C77 1.397 . S
C75 C78 1.367 . S
C76 C74 1.405 . S
C76 C78 1.403 . S
C76 C109 1.439 . S
C77 H62 0.930 1_455 S
C77 N73 1.319 . S
C77 C75 1.397 . S
C78 C75 1.367 . S
C78 C76 1.403 . S
C78 H85 0.929 . S
N79 Eu44 2.562 . S
N79 C80 1.325 . S
N79 C82 1.351 . S
C80 H66 0.929 . S
C80 N79 1.325 . S
C80 C84 1.416 . S
C81 C82 1.430 . S
C81 C83 1.404 . S
C81 C110 1.387 . S
C82 C74 1.448 . S
C82 N79 1.351 . S
C82 C81 1.430 . S
C83 H72 0.930 . S
C83 C81 1.404 . S
C83 C84 1.366 . S
C84 H63 0.930 . S
C84 C80 1.416 . S
C84 C83 1.366 . S
H85 C78 0.929 . S
H86 C109 0.931 . S
H87 C110 0.931 . S
O88 Eu44 2.462 . S
O88 C108 1.252 . S
O89 Eu44 2.373 . S
O89 C100 1.249 . S
O90 Eu55 2.335 1_455 S
O90 C100 1.264 1_545 S
O91 Eu44 2.432 . S
O91 C108 1.268 . S
O92 Eu44 2.291 1_545 S
O92 C107 1.255 . S
O93 Eu55 2.372 1_455 S
O93 C107 1.257 . S
O94 Eu55 2.462 . S
O94 C119 1.252 . S
O95 Eu55 2.373 . S
O95 C111 1.249 . S
O96 Eu44 2.335 1_645 S
O96 C111 1.264 . S
O97 Eu55 2.432 . S
O97 C119 1.268 . S
O98 Eu55 2.291 1_565 S
O98 C118 1.255 . S
O99 Eu44 2.372 1_655 S
O99 C118 1.257 . S
C100 O89 1.249 . S
C100 O90 1.264 1_565 S
C101 C104 1.382 . S
C101 C106 1.390 . S
C101 C108 1.506 . S
C102 C103 1.398 . S
C102 C106 1.392 . S
C103 C102 1.398 . S
C103 C105 1.372 . S
C103 H120 0.931 . S
C104 C101 1.382 . S
C104 C105 1.390 . S
C104 H121 0.931 . S
C105 C103 1.372 . S
C105 C104 1.390 . S
C105 H122 0.929 . S
C106 C101 1.390 . S
C106 C102 1.392 . S
C106 H123 0.930 . S
C107 O92 1.255 . S
C107 O93 1.257 . S
C108 Eu44 2.787 . S
C108 O88 1.252 . S
C108 O91 1.268 . S
C108 C101 1.506 . S
C109 C76 1.439 . S
C109 H86 0.931 . S
C109 C110 1.374 . S
C110 C81 1.387 . S
C110 H87 0.931 . S
C110 C109 1.374 . S
C111 O95 1.249 . S
C111 O96 1.264 . S
C112 C115 1.382 . S
C112 C116 1.390 . S
C112 C119 1.506 . S
C113 C114 1.398 . S
C113 C116 1.392 . S
C114 C113 1.398 . S
C114 C117 1.372 . S
C114 H124 0.931 . S
C115 C112 1.382 . S
C115 C117 1.390 . S
C115 H125 0.931 . S
C116 C112 1.390 . S
C116 C113 1.392 . S
C116 H126 0.930 . S
C117 C114 1.372 . S
C117 C115 1.390 . S
C117 H127 0.929 . S
C118 O98 1.255 . S
C118 O99 1.257 . S
C119 Eu55 2.787 . S
C119 O94 1.252 . S
C119 O97 1.268 . S
C119 C112 1.506 . S
H120 C103 0.931 . S
H121 C104 0.931 . S
H122 C105 0.929 . S
H123 C106 0.930 . S
H124 C114 0.931 . S
H125 C115 0.931 . S
H126 C116 0.930 . S
H127 C117 0.929 . S
Eu128 N157 2.600 . S
Eu128 N163 2.562 . S
Eu128 O172 2.460 1_554 S
Eu128 O173 2.374 . S
Eu128 O175 2.430 1_554 S
Eu128 O176 2.291 . S
Eu128 O180 2.334 1_554 S
Eu128 O183 2.372 . S
Eu128 C192 2.785 1_554 S
C129 N130 1.365 . S
C129 C132 1.405 . S
C129 C136 1.448 . S
N130 C129 1.365 . S
N130 C133 1.319 . S
N130 Eu139 2.600 . S
C131 C133 1.397 . S
C131 C134 1.367 . S
C131 H151 0.931 . S
C132 C129 1.405 . S
C132 C134 1.403 . S
C132 C138 1.439 . S
C133 N130 1.319 . S
C133 C131 1.397 . S
C133 H144 0.930 . S
C134 C131 1.367 . S
C134 C132 1.403 . S
C134 H155 0.929 . S
C135 C136 1.430 . S
C135 C137 1.387 . S
C135 C141 1.404 . S
C136 C129 1.448 . S
C136 C135 1.430 . S
C136 N140 1.351 . S
C137 C135 1.387 . S
C137 C138 1.374 . S
C137 H152 0.931 . S
C138 C132 1.439 . S
C138 C137 1.374 . S
C138 H153 0.931 . S
Eu139 N130 2.600 . S
Eu139 N140 2.562 . S
Eu139 O174 2.335 . S
Eu139 O177 2.372 . S
Eu139 O178 2.462 . S
Eu139 O179 2.373 . S
Eu139 O181 2.432 . S
Eu139 O182 2.291 . S
Eu139 C203 2.787 . S
N140 C136 1.351 . S
N140 Eu139 2.562 . S
N140 C142 1.325 . S
C141 C135 1.404 . S
C141 C143 1.366 . S
C141 H149 0.930 . S
C142 N140 1.325 . S
C142 C143 1.416 . S
C142 H148 0.929 . S
C143 C141 1.366 . S
C143 C142 1.416 . S
C143 H145 0.930 . S
H144 C133 0.930 . S
H145 C143 0.930 . S
H146 C161 0.930 . S
H147 C168 0.930 . S
H148 C142 0.929 . S
H149 C141 0.930 . S
H150 C164 0.929 . S
H151 C131 0.931 . S
H152 C137 0.931 . S
H153 C138 0.931 . S
H154 C159 0.929 . S
H155 C134 0.929 . S
H156 C167 0.930 . S
N157 Eu128 2.600 . S
N157 C158 1.365 . S
N157 C161 1.319 1_554 S
C158 N157 1.365 . S
C158 C160 1.405 . S
C158 C166 1.448 . S
C159 H154 0.929 . S
C159 C161 1.406 . S
C159 C162 1.361 1_556 S
C160 C158 1.405 . S
C160 C162 1.403 . S
C160 C193 1.439 . S
C161 H146 0.930 . S
C161 N157 1.319 1_556 S
C161 C159 1.406 . S
C162 C159 1.361 1_554 S
C162 C160 1.403 . S
C162 H169 0.929 . S
N163 Eu128 2.562 . S
N163 C164 1.325 . S
N163 C166 1.351 . S
C164 H150 0.929 . S
C164 N163 1.325 . S
C164 C168 1.416 . S
C165 C166 1.430 . S
C165 C167 1.404 . S
C165 C194 1.387 . S
C166 C158 1.448 . S
C166 N163 1.351 . S
C166 C165 1.430 . S
C167 H156 0.930 . S
C167 C165 1.404 . S
C167 C168 1.366 . S
C168 H147 0.930 . S
C168 C164 1.416 . S
C168 C167 1.366 . S
H169 C162 0.929 . S
H170 C193 0.931 . S
H171 C194 0.931 . S
O172 Eu128 2.460 1_556 S
O172 C192 1.252 . S
O173 Eu128 2.374 . S
O173 C184 1.249 . S
O174 Eu139 2.335 . S
O174 C184 1.264 . S
O175 Eu128 2.430 1_556 S
O175 C192 1.268 . S
O176 Eu128 2.291 . S
O176 C191 1.255 . S
O177 Eu139 2.372 . S
O177 C191 1.257 . S
O178 Eu139 2.462 . S
O178 C203 1.252 . S
O179 Eu139 2.373 . S
O179 C195 1.249 1_554 S
O180 Eu128 2.334 1_556 S
O180 C195 1.264 . S
O181 Eu139 2.432 . S
O181 C203 1.268 . S
O182 Eu139 2.291 . S
O182 C202 1.255 . S
O183 Eu128 2.372 . S
O183 C202 1.257 . S
C184 O173 1.249 . S
C184 O174 1.264 . S
C185 C188 1.382 . S
C185 C190 1.390 . S
C185 C192 1.506 . S
C186 C187 1.398 . S
C186 C190 1.392 . S
C187 C186 1.398 . S
C187 C189 1.372 . S
C187 H204 0.931 . S
C188 C185 1.382 . S
C188 C189 1.390 . S
C188 H205 0.931 . S
C189 C187 1.372 . S
C189 C188 1.390 . S
C189 H206 0.929 . S
C190 C185 1.390 . S
C190 C186 1.392 . S
C190 H207 0.930 . S
C191 O176 1.255 . S
C191 O177 1.257 . S
C192 Eu128 2.785 1_556 S
C192 O172 1.252 . S
C192 O175 1.268 . S
C192 C185 1.506 . S
C193 C160 1.439 . S
C193 H170 0.931 . S
C193 C194 1.374 . S
C194 C165 1.387 . S
C194 H171 0.931 . S
C194 C193 1.374 . S
C195 O179 1.249 1_556 S
C195 O180 1.264 . S
C196 C199 1.382 . S
C196 C200 1.390 . S
C196 C203 1.506 . S
C197 C198 1.398 . S
C197 C200 1.392 . S
C198 C197 1.398 . S
C198 C201 1.372 . S
C198 H208 0.931 . S
C199 C196 1.382 . S
C199 C201 1.390 . S
C199 H209 0.931 . S
C200 C196 1.390 . S
C200 C197 1.392 . S
C200 H210 0.930 . S
C201 C198 1.372 . S
C201 C199 1.390 . S
C201 H211 0.929 . S
C202 O182 1.255 . S
C202 O183 1.257 . S
C203 Eu139 2.787 . S
C203 O178 1.252 . S
C203 O181 1.268 . S
C203 C196 1.506 . S
H204 C187 0.931 . S
H205 C188 0.931 . S
H206 C189 0.929 . S
H207 C190 0.930 . S
H208 C198 0.931 . S
H209 C199 0.931 . S
H210 C200 0.930 . S
H211 C201 0.929 . S
C212 C213 1.391 . S
C212 C214 1.394 . S
C212 H228 0.931 . S
C213 C212 1.391 . S
C213 C217 1.376 . S
C214 C212 1.394 . S
C214 C215 1.369 . S
C214 C218 1.531 . S
C215 C214 1.369 . S
C215 C216 1.410 . S
C215 C223 1.503 . S
C216 C215 1.410 . S
C216 C217 1.392 . S
C216 C219 1.511 . S
C217 C213 1.376 . S
C217 C216 1.392 . S
C217 H229 0.929 . S
C218 C214 1.531 . S
C218 H230 0.960 . S
C218 H231 0.962 . S
C218 H232 0.960 . S
C219 C216 1.511 . S
C219 H233 0.961 . S
C219 H234 0.961 . S
C219 H235 0.961 . S
C220 C221 1.370 . S
C220 C222 1.363 . S
C220 H236 0.931 . S
C221 C220 1.370 . S
C221 C225 1.408 . S
C222 C220 1.363 . S
C222 C223 1.370 . S
C222 C226 1.524 . S
C223 C215 1.503 . S
C223 C222 1.370 . S
C223 C224 1.403 . S
C224 C223 1.403 . S
C224 C225 1.404 . S
C224 C227 1.539 . S
C225 C221 1.408 . S
C225 C224 1.404 . S
C225 H237 0.930 . S
C226 C222 1.524 . S
C226 H238 0.956 . S
C226 H239 0.961 . S
C226 H240 0.961 . S
C227 C224 1.539 . S
C227 H241 0.958 . S
C227 H242 0.961 . S
C227 H243 0.960 . S
H228 C212 0.931 . S
H229 C217 0.929 . S
H230 C218 0.960 . S
H231 C218 0.962 . S
H232 C218 0.960 . S
H233 C219 0.961 . S
H234 C219 0.961 . S
H235 C219 0.961 . S
H236 C220 0.931 . S
H237 C225 0.930 . S
H238 C226 0.956 . S
H239 C226 0.961 . S
H240 C226 0.961 . S
H241 C227 0.958 . S
H242 C227 0.961 . S
H243 C227 0.960 . S
C244 C245 1.391 . S
C244 C246 1.394 . S
C244 H260 0.931 . S
C245 C244 1.391 . S
C245 C249 1.376 . S
C246 C244 1.394 . S
C246 C247 1.369 . S
C246 C250 1.531 . S
C247 C246 1.369 . S
C247 C248 1.410 . S
C247 C255 1.503 . S
C248 C247 1.410 . S
C248 C249 1.392 . S
C248 C251 1.511 . S
C249 C245 1.376 . S
C249 C248 1.392 . S
C249 H261 0.929 . S
C250 C246 1.531 . S
C250 H262 0.960 . S
C250 H263 0.962 . S
C250 H264 0.960 . S
C251 C248 1.511 . S
C251 H265 0.961 . S
C251 H266 0.961 . S
C251 H267 0.961 . S
C252 C253 1.370 . S
C252 C254 1.363 . S
C252 H268 0.931 1_554 S
C253 C252 1.370 . S
C253 C257 1.408 . S
C254 C252 1.363 . S
C254 C255 1.370 . S
C254 C258 1.524 1_554 S
C255 C247 1.503 . S
C255 C254 1.370 . S
C255 C256 1.403 . S
C256 C255 1.403 . S
C256 C257 1.404 . S
C256 C259 1.539 . S
C257 C253 1.408 . S
C257 C256 1.404 . S
C257 H269 0.930 . S
C258 C254 1.524 1_556 S
C258 H270 0.956 . S
C258 H271 0.961 . S
C258 H272 0.961 . S
C259 C256 1.539 . S
C259 H273 0.958 . S
C259 H274 0.961 . S
C259 H275 0.960 . S
H260 C244 0.931 . S
H261 C249 0.929 . S
H262 C250 0.960 . S
H263 C250 0.962 . S
H264 C250 0.960 . S
H265 C251 0.961 . S
H266 C251 0.961 . S
H267 C251 0.961 . S
H268 C252 0.931 1_556 S
H269 C257 0.930 . S
H270 C258 0.956 . S
H271 C258 0.961 . S
H272 C258 0.961 . S
H273 C259 0.958 . S
H274 C259 0.961 . S
H275 C259 0.960 . S
C276 C277 1.391 . S
C276 C278 1.394 . S
C276 H292 0.931 . S
C277 C276 1.391 . S
C277 C281 1.376 . S
C278 C276 1.394 . S
C278 C279 1.369 . S
C278 C282 1.531 . S
C279 C278 1.369 . S
C279 C280 1.410 . S
C279 C287 1.503 . S
C280 C279 1.410 . S
C280 C281 1.392 . S
C280 C283 1.511 . S
C281 C277 1.376 . S
C281 C280 1.392 . S
C281 H293 0.929 . S
C282 C278 1.531 . S
C282 H294 0.960 . S
C282 H295 0.962 . S
C282 H296 0.960 . S
C283 C280 1.511 . S
C283 H297 0.961 . S
C283 H298 0.961 . S
C283 H299 0.961 . S
C284 C285 1.370 . S
C284 C286 1.363 . S
C284 H300 0.931 . S
C285 C284 1.370 . S
C285 C289 1.408 . S
C286 C284 1.363 . S
C286 C287 1.370 . S
C286 C290 1.524 . S
C287 C279 1.503 . S
C287 C286 1.370 . S
C287 C288 1.403 . S
C288 C287 1.403 . S
C288 C289 1.404 . S
C288 C291 1.539 . S
C289 C285 1.408 . S
C289 C288 1.404 . S
C289 H301 0.930 . S
C290 C286 1.524 . S
C290 H302 0.956 . S
C290 H303 0.961 . S
C290 H304 0.961 . S
C291 C288 1.539 . S
C291 H305 0.958 . S
C291 H306 0.961 . S
C291 H307 0.960 . S
H292 C276 0.931 . S
H293 C281 0.929 . S
H294 C282 0.960 . S
H295 C282 0.962 . S
H296 C282 0.960 . S
H297 C283 0.961 . S
H298 C283 0.961 . S
H299 C283 0.961 . S
H300 C284 0.931 . S
H301 C289 0.930 . S
H302 C290 0.956 . S
H303 C290 0.961 . S
H304 C290 0.961 . S
H305 C291 0.958 . S
H306 C291 0.961 . S
H307 C291 0.960 . S
C308 C309 1.391 . S
C308 C310 1.394 . S
C308 H324 0.931 . S
C309 C308 1.391 . S
C309 C313 1.376 . S
C310 C308 1.394 . S
C310 C311 1.369 . S
C310 C314 1.531 . S
C311 C310 1.369 . S
C311 C312 1.410 . S
C311 C319 1.503 . S
C312 C311 1.410 . S
C312 C313 1.392 . S
C312 C315 1.511 . S
C313 C309 1.376 . S
C313 C312 1.392 . S
C313 H325 0.929 . S
C314 C310 1.531 . S
C314 H326 0.960 . S
C314 H327 0.962 . S
C314 H328 0.960 . S
C315 C312 1.511 . S
C315 H329 0.961 . S
C315 H330 0.961 . S
C315 H331 0.961 . S
C316 C317 1.370 . S
C316 C318 1.363 . S
C316 H332 0.931 1_554 S
C317 C316 1.370 . S
C317 C321 1.408 . S
C318 C316 1.363 . S
C318 C319 1.370 . S
C318 C322 1.524 1_554 S
C319 C311 1.503 . S
C319 C318 1.370 . S
C319 C320 1.403 . S
C320 C319 1.403 . S
C320 C321 1.404 . S
C320 C323 1.539 . S
C321 C317 1.408 . S
C321 C320 1.404 . S
C321 H333 0.930 . S
C322 C318 1.524 1_556 S
C322 H334 0.956 . S
C322 H335 0.961 . S
C322 H336 0.961 . S
C323 C320 1.539 . S
C323 H337 0.958 . S
C323 H338 0.961 . S
C323 H339 0.960 . S
H324 C308 0.931 . S
H325 C313 0.929 . S
H326 C314 0.960 . S
H327 C314 0.962 . S
H328 C314 0.960 . S
H329 C315 0.961 . S
H330 C315 0.961 . S
H331 C315 0.961 . S
H332 C316 0.931 1_556 S
H333 C321 0.930 . S
H334 C322 0.956 . S
H335 C322 0.961 . S
H336 C322 0.961 . S
H337 C323 0.958 . S
H338 C323 0.961 . S
H339 C323 0.960 . S
C340 C341 1.391 . S
C340 C342 1.394 . S
C340 H356 0.931 . S
C341 C340 1.391 . S
C341 C345 1.376 . S
C342 C340 1.394 . S
C342 C343 1.369 . S
C342 C346 1.531 . S
C343 C342 1.369 . S
C343 C344 1.410 . S
C343 C351 1.503 . S
C344 C343 1.410 . S
C344 C345 1.392 . S
C344 C347 1.511 . S
C345 C341 1.376 . S
C345 C344 1.392 . S
C345 H357 0.929 . S
C346 C342 1.531 . S
C346 H358 0.960 . S
C346 H359 0.962 . S
C346 H360 0.960 . S
C347 C344 1.511 . S
C347 H361 0.961 . S
C347 H362 0.961 . S
C347 H363 0.961 . S
C348 C349 1.370 . S
C348 C350 1.363 . S
C348 H364 0.931 . S
C349 C348 1.370 . S
C349 C353 1.408 . S
C350 C348 1.363 . S
C350 C351 1.370 . S
C350 C354 1.524 . S
C351 C343 1.503 . S
C351 C350 1.370 . S
C351 C352 1.403 . S
C352 C351 1.403 . S
C352 C353 1.404 . S
C352 C355 1.539 . S
C353 C349 1.408 . S
C353 C352 1.404 . S
C353 H365 0.930 1_565 S
C354 C350 1.524 . S
C354 H366 0.956 . S
C354 H367 0.961 . S
C354 H368 0.961 . S
C355 C352 1.539 . S
C355 H369 0.958 1_565 S
C355 H370 0.961 1_565 S
C355 H371 0.960 . S
H356 C340 0.931 . S
H357 C345 0.929 . S
H358 C346 0.960 . S
H359 C346 0.962 . S
H360 C346 0.960 . S
H361 C347 0.961 . S
H362 C347 0.961 . S
H363 C347 0.961 . S
H364 C348 0.931 . S
H365 C353 0.930 1_545 S
H366 C354 0.956 . S
H367 C354 0.961 . S
H368 C354 0.961 . S
H369 C355 0.958 1_545 S
H370 C355 0.961 1_545 S
H371 C355 0.960 . S
C372 C373 1.391 . S
C372 C374 1.394 . S
C372 H388 0.931 . S
C373 C372 1.391 . S
C373 C377 1.376 . S
C374 C372 1.394 . S
C374 C375 1.369 . S
C374 C378 1.531 . S
C375 C374 1.369 . S
C375 C376 1.410 . S
C375 C383 1.503 . S
C376 C375 1.410 . S
C376 C377 1.392 . S
C376 C379 1.511 . S
C377 C373 1.376 . S
C377 C376 1.392 . S
C377 H389 0.929 . S
C378 C374 1.531 . S
C378 H390 0.960 . S
C378 H391 0.962 . S
C378 H392 0.960 . S
C379 C376 1.511 . S
C379 H393 0.961 . S
C379 H394 0.961 . S
C379 H395 0.961 . S
C380 C381 1.370 . S
C380 C382 1.363 . S
C380 H396 0.931 . S
C381 C380 1.370 . S
C381 C385 1.408 . S
C382 C380 1.363 . S
C382 C383 1.370 . S
C382 C386 1.524 . S
C383 C375 1.503 . S
C383 C382 1.370 . S
C383 C384 1.403 . S
C384 C383 1.403 . S
C384 C385 1.404 . S
C384 C387 1.539 . S
C385 C381 1.408 . S
C385 C384 1.404 . S
C385 H397 0.930 . S
C386 C382 1.524 . S
C386 H398 0.956 . S
C386 H399 0.961 . S
C386 H400 0.961 . S
C387 C384 1.539 . S
C387 H401 0.958 . S
C387 H402 0.961 . S
C387 H403 0.960 . S
H388 C372 0.931 . S
H389 C377 0.929 . S
H390 C378 0.960 . S
H391 C378 0.962 . S
H392 C378 0.960 . S
H393 C379 0.961 . S
H394 C379 0.961 . S
H395 C379 0.961 . S
H396 C380 0.931 . S
H397 C385 0.930 . S
H398 C386 0.956 . S
H399 C386 0.961 . S
H400 C386 0.961 . S
H401 C387 0.958 . S
H402 C387 0.961 . S
H403 C387 0.960 . S
C404 C405 1.391 . S
C404 C406 1.394 . S
C404 H420 0.931 . S
C405 C404 1.391 . S
C405 C409 1.376 . S
C406 C404 1.394 . S
C406 C407 1.369 . S
C406 C410 1.531 . S
C407 C406 1.369 . S
C407 C408 1.410 . S
C407 C415 1.503 . S
C408 C407 1.410 . S
C408 C409 1.392 . S
C408 C411 1.511 . S
C409 C405 1.376 . S
C409 C408 1.392 . S
C409 H421 0.929 . S
C410 C406 1.531 . S
C410 H422 0.960 . S
C410 H423 0.962 . S
C410 H424 0.960 . S
C411 C408 1.511 . S
C411 H425 0.961 . S
C411 H426 0.961 . S
C411 H427 0.961 . S
C412 C413 1.370 . S
C412 C414 1.363 . S
C412 H428 0.931 . S
C413 C412 1.370 . S
C413 C417 1.408 . S
C414 C412 1.363 . S
C414 C415 1.370 . S
C414 C418 1.524 . S
C415 C407 1.503 . S
C415 C414 1.370 . S
C415 C416 1.403 . S
C416 C415 1.403 . S
C416 C417 1.404 . S
C416 C419 1.539 . S
C417 C413 1.408 . S
C417 C416 1.404 . S
C417 H429 0.930 . S
C418 C414 1.524 . S
C418 H430 0.956 . S
C418 H431 0.961 . S
C418 H432 0.961 1_545 S
C419 C416 1.539 . S
C419 H433 0.958 . S
C419 H434 0.961 . S
C419 H435 0.960 . S
H420 C404 0.931 . S
H421 C409 0.929 . S
H422 C410 0.960 . S
H423 C410 0.962 . S
H424 C410 0.960 . S
H425 C411 0.961 . S
H426 C411 0.961 . S
H427 C411 0.961 . S
H428 C412 0.931 . S
H429 C417 0.930 . S
H430 C418 0.956 . S
H431 C418 0.961 . S
H432 C418 0.961 1_565 S
H433 C419 0.958 . S
H434 C419 0.961 . S
H435 C419 0.960 . S
C436 C437 1.391 . S
C436 C438 1.394 . S
C436 H452 0.931 . S
C437 C436 1.391 . S
C437 C441 1.376 . S
C438 C436 1.394 . S
C438 C439 1.369 . S
C438 C442 1.531 . S
C439 C438 1.369 . S
C439 C440 1.410 . S
C439 C447 1.503 . S
C440 C439 1.410 . S
C440 C441 1.392 . S
C440 C443 1.511 . S
C441 C437 1.376 . S
C441 C440 1.392 . S
C441 H453 0.929 . S
C442 C438 1.531 . S
C442 H454 0.960 . S
C442 H455 0.962 . S
C442 H456 0.960 . S
C443 C440 1.511 . S
C443 H457 0.961 . S
C443 H458 0.961 . S
C443 H459 0.961 . S
C444 C445 1.370 . S
C444 C446 1.363 . S
C444 H460 0.931 . S
C445 C444 1.370 . S
C445 C449 1.408 . S
C446 C444 1.363 . S
C446 C447 1.370 . S
C446 C450 1.524 . S
C447 C439 1.503 . S
C447 C446 1.370 . S
C447 C448 1.403 . S
C448 C447 1.403 . S
C448 C449 1.404 . S
C448 C451 1.539 . S
C449 C445 1.408 . S
C449 C448 1.404 . S
C449 H461 0.930 . S
C450 C446 1.524 . S
C450 H462 0.956 . S
C450 H463 0.961 . S
C450 H464 0.961 . S
C451 C448 1.539 . S
C451 H465 0.958 . S
C451 H466 0.961 . S
C451 H467 0.960 . S
H452 C436 0.931 . S
H453 C441 0.929 . S
H454 C442 0.960 . S
H455 C442 0.962 . S
H456 C442 0.960 . S
H457 C443 0.961 . S
H458 C443 0.961 . S
H459 C443 0.961 . S
H460 C444 0.931 . S
H461 C449 0.930 . S
H462 C450 0.956 . S
H463 C450 0.961 . S
H464 C450 0.961 . S
H465 C451 0.958 . S
H466 C451 0.961 . S
H467 C451 0.960 . S
C468 C469 1.391 . S
C468 C470 1.394 . S
C468 H484 0.931 . S
C469 C468 1.391 . S
C469 C473 1.376 . S
C470 C468 1.394 . S
C470 C471 1.369 . S
C470 C474 1.531 . S
C471 C470 1.369 . S
C471 C472 1.410 . S
C471 C479 1.503 . S
C472 C471 1.410 . S
C472 C473 1.392 . S
C472 C475 1.511 . S
C473 C469 1.376 . S
C473 C472 1.392 . S
C473 H485 0.929 . S
C474 C470 1.531 . S
C474 H486 0.960 . S
C474 H487 0.962 . S
C474 H488 0.960 . S
C475 C472 1.511 . S
C475 H489 0.961 . S
C475 H490 0.961 . S
C475 H491 0.961 . S
C476 C477 1.370 . S
C476 C478 1.363 . S
C476 H492 0.931 . S
C477 C476 1.370 . S
C477 C481 1.408 . S
C478 C476 1.363 . S
C478 C479 1.370 . S
C478 C482 1.524 . S
C479 C471 1.503 . S
C479 C478 1.370 . S
C479 C480 1.403 . S
C480 C479 1.403 . S
C480 C481 1.404 . S
C480 C483 1.539 . S
C481 C477 1.408 . S
C481 C480 1.404 . S
C481 H493 0.930 . S
C482 C478 1.524 . S
C482 H494 0.956 . S
C482 H495 0.961 . S
C482 H496 0.961 . S
C483 C480 1.539 . S
C483 H497 0.958 . S
C483 H498 0.961 . S
C483 H499 0.960 . S
H484 C468 0.931 . S
H485 C473 0.929 . S
H486 C474 0.960 . S
H487 C474 0.962 . S
H488 C474 0.960 . S
H489 C475 0.961 . S
H490 C475 0.961 . S
H491 C475 0.961 . S
H492 C476 0.931 . S
H493 C481 0.930 . S
H494 C482 0.956 . S
H495 C482 0.961 . S
H496 C482 0.961 . S
H497 C483 0.958 . S
H498 C483 0.961 . S
H499 C483 0.960 . S
C500 C501 1.391 . S
C500 C502 1.394 . S
C500 H516 0.931 1_556 S
C501 C500 1.391 . S
C501 C505 1.376 . S
C502 C500 1.394 . S
C502 C503 1.369 . S
C502 C506 1.531 . S
C503 C502 1.369 . S
C503 C504 1.410 . S
C503 C511 1.503 . S
C504 C503 1.410 . S
C504 C505 1.392 . S
C504 C507 1.511 . S
C505 C501 1.376 . S
C505 C504 1.392 . S
C505 H517 0.929 . S
C506 C502 1.531 . S
C506 H518 0.960 . S
C506 H519 0.962 . S
C506 H520 0.960 1_556 S
C507 C504 1.511 . S
C507 H521 0.961 . S
C507 H522 0.961 . S
C507 H523 0.961 . S
C508 C509 1.370 . S
C508 C510 1.363 . S
C508 H524 0.931 . S
C509 C508 1.370 . S
C509 C513 1.408 . S
C510 C508 1.363 . S
C510 C511 1.370 . S
C510 C514 1.524 . S
C511 C503 1.503 . S
C511 C510 1.370 . S
C511 C512 1.403 . S
C512 C511 1.403 . S
C512 C513 1.404 . S
C512 C515 1.539 . S
C513 C509 1.408 . S
C513 C512 1.404 . S
C513 H525 0.930 . S
C514 C510 1.524 . S
C514 H526 0.956 . S
C514 H527 0.961 . S
C514 H528 0.961 . S
C515 C512 1.539 . S
C515 H529 0.958 1_545 S
C515 H530 0.961 1_545 S
C515 H531 0.960 . S
H516 C500 0.931 1_554 S
H517 C505 0.929 . S
H518 C506 0.960 . S
H519 C506 0.962 . S
H520 C506 0.960 1_554 S
H521 C507 0.961 . S
H522 C507 0.961 . S
H523 C507 0.961 . S
H524 C508 0.931 . S
H525 C513 0.930 . S
H526 C514 0.956 . S
H527 C514 0.961 . S
H528 C514 0.961 . S
H529 C515 0.958 1_565 S
H530 C515 0.961 1_565 S
H531 C515 0.960 . S
C532 C533 1.391 . S
C532 C534 1.394 . S
C532 H548 0.931 . S
C533 C532 1.391 . S
C533 C537 1.376 . S
C534 C532 1.394 . S
C534 C535 1.369 . S
C534 C538 1.531 . S
C535 C534 1.369 . S
C535 C536 1.410 . S
C535 C543 1.503 . S
C536 C535 1.410 . S
C536 C537 1.392 . S
C536 C539 1.511 . S
C537 C533 1.376 . S
C537 C536 1.392 . S
C537 H549 0.929 . S
C538 C534 1.531 . S
C538 H550 0.960 . S
C538 H551 0.962 . S
C538 H552 0.960 . S
C539 C536 1.511 . S
C539 H553 0.961 . S
C539 H554 0.961 . S
C539 H555 0.961 . S
C540 C541 1.370 . S
C540 C542 1.363 . S
C540 H556 0.931 . S
C541 C540 1.370 . S
C541 C545 1.408 . S
C542 C540 1.363 . S
C542 C543 1.370 . S
C542 C546 1.524 . S
C543 C535 1.503 . S
C543 C542 1.370 . S
C543 C544 1.403 . S
C544 C543 1.403 . S
C544 C545 1.404 . S
C544 C547 1.539 . S
C545 C541 1.408 . S
C545 C544 1.404 . S
C545 H557 0.930 . S
C546 C542 1.524 . S
C546 H558 0.956 . S
C546 H559 0.961 . S
C546 H560 0.961 . S
C547 C544 1.539 . S
C547 H561 0.958 . S
C547 H562 0.961 . S
C547 H563 0.960 . S
H548 C532 0.931 . S
H549 C537 0.929 . S
H550 C538 0.960 . S
H551 C538 0.962 . S
H552 C538 0.960 . S
H553 C539 0.961 . S
H554 C539 0.961 . S
H555 C539 0.961 . S
H556 C540 0.931 . S
H557 C545 0.930 . S
H558 C546 0.956 . S
H559 C546 0.961 . S
H560 C546 0.961 . S
H561 C547 0.958 . S
H562 C547 0.961 . S
H563 C547 0.960 . S
C564 C565 1.391 . S
C564 C566 1.394 . S
C564 H580 0.931 . S
C565 C564 1.391 . S
C565 C569 1.376 . S
C566 C564 1.394 . S
C566 C567 1.369 . S
C566 C570 1.531 . S
C567 C566 1.369 . S
C567 C568 1.410 . S
C567 C575 1.503 . S
C568 C567 1.410 . S
C568 C569 1.392 . S
C568 C571 1.511 . S
C569 C565 1.376 . S
C569 C568 1.392 . S
C569 H581 0.929 . S
C570 C566 1.531 . S
C570 H582 0.960 . S
C570 H583 0.962 . S
C570 H584 0.960 . S
C571 C568 1.511 . S
C571 H585 0.961 . S
C571 H586 0.961 . S
C571 H587 0.961 . S
C572 C573 1.370 . S
C572 C574 1.363 . S
C572 H588 0.931 1_565 S
C573 C572 1.370 . S
C573 C577 1.408 . S
C574 C572 1.363 . S
C574 C575 1.370 . S
C574 C578 1.524 . S
C575 C567 1.503 . S
C575 C574 1.370 . S
C575 C576 1.403 . S
C576 C575 1.403 . S
C576 C577 1.404 . S
C576 C579 1.539 . S
C577 C573 1.408 . S
C577 C576 1.404 . S
C577 H589 0.930 . S
C578 C574 1.524 . S
C578 H590 0.956 . S
C578 H591 0.961 . S
C578 H592 0.961 1_565 S
C579 C576 1.539 . S
C579 H593 0.958 . S
C579 H594 0.961 . S
C579 H595 0.960 . S
H580 C564 0.931 . S
H581 C569 0.929 . S
H582 C570 0.960 . S
H583 C570 0.962 . S
H584 C570 0.960 . S
H585 C571 0.961 . S
H586 C571 0.961 . S
H587 C571 0.961 . S
H588 C572 0.931 1_545 S
H589 C577 0.930 . S
H590 C578 0.956 . S
H591 C578 0.961 . S
H592 C578 0.961 1_545 S
H593 C579 0.958 . S
H594 C579 0.961 . S
H595 C579 0.960 . S
C221 C107 1.640 . S
C213 C43 1.641 . S
C245 C10 1.658 . S
C253 C202 1.652 . S
C277 C21 1.677 . S
C285 C118 1.673 . S
C309 C32 1.612 . S
C317 C191 1.620 . S
C349 C102 1.453 . S
C341 C5 1.590 . S
C381 C195 1.707 . S
C373 C15 1.709 . S
C405 C27 1.633 . S
C413 C111 1.652 . S
C437 C38 1.610 . S
C445 C186 1.452 . S
C477 C197 1.392 . S
C469 C16 1.565 . S
C509 C113 1.405 . S
C501 C26 1.558 1_556 S
C541 C184 1.630 . S
C533 C37 1.605 . S
C565 C4 1.552 . S
C573 C100 1.583 . S
