# Generated by pormake.
# Topology pyr, (3,6)-cn, num edge types: 1
# Building blocks:
#     Node 0, Type 0, BuildingBlock: KAKCAD_clean_linker_0, # of connection points: 3
#     Node 1, Type 0, BuildingBlock: KAKCAD_clean_linker_0, # of connection points: 3
#     Node 2, Type 0, BuildingBlock: KAKCAD_clean_linker_0, # of connection points: 3
#     Node 3, Type 0, BuildingBlock: KAKCAD_clean_linker_0, # of connection points: 3
#     Node 4, Type 0, BuildingBlock: KAKCAD_clean_linker_0, # of connection points: 3
#     Node 5, Type 0, BuildingBlock: KAKCAD_clean_linker_0, # of connection points: 3
#     Node 6, Type 0, BuildingBlock: KAKCAD_clean_linker_0, # of connection points: 3
#     Node 7, Type 0, BuildingBlock: KAKCAD_clean_linker_0, # of connection points: 3
#     Node 8, Type 1, BuildingBlock: GEDQOX_clean_sbu_0, # of connection points: 6
#     Node 9, Type 1, BuildingBlock: GEDQOX_clean_sbu_0, # of connection points: 6
#     Node 10, Type 1, BuildingBlock: GEDQOX_clean_sbu_0, # of connection points: 6
#     Node 11, Type 1, BuildingBlock: GEDQOX_clean_sbu_0, # of connection points: 6
#     Edge 12, Type (0, 1), BuildingBlock: MIFKUJ_clean_linker_0, # of connection points: 2
#     Edge 13, Type (0, 1), BuildingBlock: MIFKUJ_clean_linker_0, # of connection points: 2
#     Edge 14, Type (0, 1), BuildingBlock: MIFKUJ_clean_linker_0, # of connection points: 2
#     Edge 15, Type (0, 1), BuildingBlock: MIFKUJ_clean_linker_0, # of connection points: 2
#     Edge 16, Type (0, 1), BuildingBlock: MIFKUJ_clean_linker_0, # of connection points: 2
#     Edge 17, Type (0, 1), BuildingBlock: MIFKUJ_clean_linker_0, # of connection points: 2
#     Edge 18, Type (0, 1), BuildingBlock: MIFKUJ_clean_linker_0, # of connection points: 2
#     Edge 19, Type (0, 1), BuildingBlock: MIFKUJ_clean_linker_0, # of connection points: 2
#     Edge 20, Type (0, 1), BuildingBlock: MIFKUJ_clean_linker_0, # of connection points: 2
#     Edge 21, Type (0, 1), BuildingBlock: MIFKUJ_clean_linker_0, # of connection points: 2
#     Edge 22, Type (0, 1), BuildingBlock: MIFKUJ_clean_linker_0, # of connection points: 2
#     Edge 23, Type (0, 1), BuildingBlock: MIFKUJ_clean_linker_0, # of connection points: 2
#     Edge 24, Type (0, 1), BuildingBlock: MIFKUJ_clean_linker_0, # of connection points: 2
#     Edge 25, Type (0, 1), BuildingBlock: MIFKUJ_clean_linker_0, # of connection points: 2
#     Edge 26, Type (0, 1), BuildingBlock: MIFKUJ_clean_linker_0, # of connection points: 2
#     Edge 27, Type (0, 1), BuildingBlock: MIFKUJ_clean_linker_0, # of connection points: 2
#     Edge 28, Type (0, 1), BuildingBlock: MIFKUJ_clean_linker_0, # of connection points: 2
#     Edge 29, Type (0, 1), BuildingBlock: MIFKUJ_clean_linker_0, # of connection points: 2
#     Edge 30, Type (0, 1), BuildingBlock: MIFKUJ_clean_linker_0, # of connection points: 2
#     Edge 31, Type (0, 1), BuildingBlock: MIFKUJ_clean_linker_0, # of connection points: 2
#     Edge 32, Type (0, 1), BuildingBlock: MIFKUJ_clean_linker_0, # of connection points: 2
#     Edge 33, Type (0, 1), BuildingBlock: MIFKUJ_clean_linker_0, # of connection points: 2
#     Edge 34, Type (0, 1), BuildingBlock: MIFKUJ_clean_linker_0, # of connection points: 2
#     Edge 35, Type (0, 1), BuildingBlock: MIFKUJ_clean_linker_0, # of connection points: 2
# Relax obj value: 0.083
# Max RMSD: 0.144
# Mean RMSD: 0.058
data_MOF--net-pyr--node1-GEDQOX_clean_sbu_0--node2-KAKCAD_clean_linker_0--edge1-MIFKUJ_clean_linker_0
_symmetry_space_group_name_H-M    P1
_symmetry_Int_Tables_number       1
_symmetry_cell_setting            triclinic
loop_
_symmetry_equiv_pos_as_xyz
'x, y, z'
_cell_length_a     59.920067
_cell_length_b     60.138665
_cell_length_c     53.29125
_cell_angle_alpha  87.723422
_cell_angle_beta   90.921843
_cell_angle_gamma 88.135293
loop_
_atom_site_label
_atom_site_type_symbol
_atom_site_fract_x
_atom_site_fract_y
_atom_site_fract_z
_atom_type_partial_charge
C0 C 0.14727 0.15076 0.2317 0.0
C1 C 0.15993 0.14089 0.25205 0.0
C2 C 0.15758 0.16087 0.21076 0.0
C3 C 0.18104 0.16148 0.20908 0.0
C4 C 0.19376 0.15144 0.22924 0.0
C5 C 0.18344 0.14143 0.25031 0.0
C6 C 0.19201 0.17267 0.18657 0.0
C7 C 0.1826 0.1926 0.17532 0.0
C8 C 0.19194 0.20329 0.15393 0.0
C9 C 0.21169 0.19344 0.14401 0.0
C10 C 0.22196 0.17358 0.15495 0.0
C11 C 0.21172 0.16351 0.17621 0.0
C12 C 0.24321 0.16314 0.1443 0.0
C13 C 0.24731 0.16355 0.11824 0.0
C14 C 0.25965 0.15225 0.16016 0.0
C15 C 0.27915 0.14217 0.15046 0.0
C16 C 0.28321 0.14244 0.1244 0.0
C17 C 0.18091 0.22468 0.14232 0.0
C18 C 0.15758 0.22877 0.14351 0.0
C19 C 0.19336 0.24153 0.13041 0.0
C20 C 0.18298 0.26153 0.12043 0.0
C21 C 0.15966 0.26573 0.12202 0.0
C22 C 0.14727 0.24879 0.13381 0.0
C23 C 0.26682 0.15339 0.10852 0.0
H24 H 0.12922 0.15043 0.23165 0.0
H25 H 0.14704 0.16797 0.1956 0.0
H26 H 0.21182 0.1517 0.22904 0.0
H27 H 0.19404 0.13448 0.26547 0.0
H28 H 0.1681 0.20015 0.18385 0.0
H29 H 0.21876 0.148 0.18434 0.0
H30 H 0.21916 0.20127 0.12771 0.0
H31 H 0.23524 0.17145 0.10515 0.0
H32 H 0.25761 0.15163 0.18031 0.0
H33 H 0.29092 0.13383 0.16357 0.0
H34 H 0.14699 0.21638 0.15188 0.0
H35 H 0.2113 0.23952 0.12908 0.0
H36 H 0.26911 0.15438 0.08841 0.0
H37 H 0.12944 0.25099 0.13603 0.0
H38 H 0.1934 0.27365 0.11128 0.0
C39 C 0.36974 0.81197 0.84616 0.0
C40 C 0.39285 0.81518 0.84668 0.0
C41 C 0.36054 0.79698 0.82987 0.0
C42 C 0.3742 0.78503 0.81352 0.0
C43 C 0.39744 0.78764 0.81476 0.0
C44 C 0.40666 0.80251 0.83125 0.0
C45 C 0.36408 0.77133 0.79395 0.0
C46 C 0.34471 0.77934 0.78085 0.0
C47 C 0.33566 0.76761 0.76108 0.0
C48 C 0.34617 0.74756 0.75448 0.0
C49 C 0.36567 0.73926 0.7671 0.0
C50 C 0.3744 0.75117 0.78703 0.0
C51 C 0.37773 0.71928 0.7577 0.0
C52 C 0.36579 0.70169 0.74802 0.0
C53 C 0.40111 0.71874 0.7558 0.0
C54 C 0.4121 0.70181 0.74307 0.0
C55 C 0.39994 0.6852 0.73162 0.0
C56 C 0.31616 0.77709 0.74621 0.0
C57 C 0.29826 0.78784 0.75806 0.0
C58 C 0.3157 0.77611 0.7199 0.0
C59 C 0.29795 0.78592 0.70575 0.0
C60 C 0.28032 0.79716 0.71752 0.0
C61 C 0.28055 0.7978 0.74387 0.0
C62 C 0.37671 0.68499 0.73495 0.0
H63 H 0.35875 0.82127 0.85815 0.0
H64 H 0.34263 0.79504 0.82976 0.0
H65 H 0.40843 0.77895 0.80224 0.0
H66 H 0.42452 0.80479 0.83113 0.0
H67 H 0.33728 0.79537 0.78518 0.0
H68 H 0.38928 0.74482 0.79706 0.0
H69 H 0.33949 0.73875 0.73886 0.0
H70 H 0.34782 0.70127 0.74966 0.0
H71 H 0.41089 0.732 0.76296 0.0
H72 H 0.43007 0.70221 0.74151 0.0
H73 H 0.298 0.7887 0.77832 0.0
H74 H 0.32933 0.76823 0.71009 0.0
H75 H 0.36667 0.67261 0.72639 0.0
H76 H 0.26734 0.8065 0.75353 0.0
H77 H 0.29815 0.78483 0.68551 0.0
C78 C 0.77851 0.44508 0.87879 0.0
C79 C 0.79471 0.43037 0.89017 0.0
C80 C 0.75845 0.43711 0.86959 0.0
C81 C 0.75422 0.41425 0.87149 0.0
C82 C 0.77038 0.39959 0.88304 0.0
C83 C 0.79038 0.40757 0.89232 0.0
C84 C 0.73329 0.40557 0.86094 0.0
C85 C 0.72473 0.41386 0.83753 0.0
C86 C 0.70576 0.40473 0.82688 0.0
C87 C 0.69501 0.38756 0.83981 0.0
C88 C 0.70296 0.37942 0.86342 0.0
C89 C 0.72217 0.38843 0.87384 0.0
C90 C 0.69135 0.36115 0.87669 0.0
C91 C 0.66792 0.36153 0.87738 0.0
C92 C 0.70345 0.34265 0.88742 0.0
C93 C 0.69228 0.32443 0.8976 0.0
C94 C 0.66881 0.32443 0.89725 0.0
C95 C 0.69708 0.41273 0.80201 0.0
C96 C 0.6882 0.43448 0.79842 0.0
C97 C 0.69611 0.39803 0.7823 0.0
C98 C 0.68589 0.40481 0.75943 0.0
C99 C 0.67595 0.42628 0.75602 0.0
C100 C 0.67756 0.44116 0.7757 0.0
C101 C 0.65677 0.34338 0.88756 0.0
H102 H 0.78129 0.46279 0.87716 0.0
H103 H 0.74621 0.44888 0.86111 0.0
H104 H 0.76783 0.38184 0.88441 0.0
H105 H 0.80269 0.39579 0.90066 0.0
H106 H 0.73323 0.42681 0.82712 0.0
H107 H 0.72828 0.38228 0.89216 0.0
H108 H 0.68046 0.38042 0.83131 0.0
H109 H 0.65817 0.37576 0.86968 0.0
H110 H 0.72153 0.34186 0.88699 0.0
H111 H 0.70201 0.30999 0.90476 0.0
H112 H 0.68865 0.44597 0.81356 0.0
H113 H 0.70302 0.3812 0.78473 0.0
H114 H 0.63868 0.34405 0.88751 0.0
H115 H 0.66985 0.45769 0.77399 0.0
H116 H 0.68551 0.39306 0.74456 0.0
C117 C 0.8358 0.745 0.22502 0.0
C118 C 0.85829 0.74517 0.21791 0.0
C119 C 0.82952 0.75246 0.24845 0.0
C120 C 0.84561 0.76007 0.26527 0.0
C121 C 0.86767 0.76223 0.25715 0.0
C122 C 0.87392 0.75493 0.23366 0.0
C123 C 0.84034 0.76244 0.29219 0.0
C124 C 0.8279 0.74611 0.30464 0.0
C125 C 0.82552 0.74586 0.33077 0.0
C126 C 0.83566 0.7623 0.34455 0.0
C127 C 0.8482 0.77881 0.33252 0.0
C128 C 0.85006 0.779 0.30622 0.0
C129 C 0.86098 0.79444 0.34769 0.0
C130 C 0.85222 0.80272 0.36994 0.0
C131 C 0.88272 0.80005 0.34088 0.0
C132 C 0.89547 0.81331 0.35605 0.0
C133 C 0.88699 0.82101 0.3787 0.0
C134 C 0.81397 0.72734 0.34375 0.0
C135 C 0.79421 0.71922 0.33354 0.0
C136 C 0.82314 0.71706 0.36591 0.0
C137 C 0.81282 0.69901 0.37753 0.0
C138 C 0.79321 0.69077 0.36715 0.0
C139 C 0.78396 0.70108 0.34509 0.0
C140 C 0.86512 0.8157 0.38535 0.0
H141 H 0.82333 0.73756 0.21336 0.0
H142 H 0.8123 0.75099 0.254 0.0
H143 H 0.88052 0.76798 0.26961 0.0
H144 H 0.89129 0.75565 0.22848 0.0
H145 H 0.82128 0.73263 0.29419 0.0
H146 H 0.85954 0.79171 0.29666 0.0
H147 H 0.8344 0.76172 0.36481 0.0
H148 H 0.83543 0.799 0.37563 0.0
H149 H 0.89021 0.79373 0.32411 0.0
H150 H 0.91203 0.81746 0.34998 0.0
H151 H 0.78662 0.72694 0.31664 0.0
H152 H 0.8386 0.72261 0.37398 0.0
H153 H 0.85805 0.82119 0.40271 0.0
H154 H 0.76866 0.69526 0.3369 0.0
H155 H 0.82043 0.69121 0.39437 0.0
C156 C 0.90394 0.88149 0.79297 0.0
C157 C 0.89213 0.89576 0.77528 0.0
C158 C 0.89331 0.87147 0.81376 0.0
C159 C 0.87018 0.87475 0.81772 0.0
C160 C 0.85832 0.88895 0.80002 0.0
C161 C 0.86905 0.89933 0.77945 0.0
C162 C 0.85861 0.86327 0.83985 0.0
C163 C 0.86688 0.84243 0.85017 0.0
C164 C 0.85668 0.8313 0.87072 0.0
C165 C 0.83722 0.84147 0.8808 0.0
C166 C 0.8282 0.86227 0.87104 0.0
C167 C 0.8393 0.87292 0.85075 0.0
C168 C 0.80717 0.87293 0.88182 0.0
C169 C 0.78864 0.86018 0.88857 0.0
C170 C 0.80515 0.89612 0.88502 0.0
C171 C 0.7855 0.90611 0.89451 0.0
C172 C 0.76685 0.89343 0.90093 0.0
C173 C 0.86668 0.80921 0.88154 0.0
C174 C 0.87694 0.79353 0.86595 0.0
C175 C 0.86683 0.80375 0.90757 0.0
C176 C 0.87713 0.78372 0.91756 0.0
C177 C 0.88768 0.7682 0.90197 0.0
C178 C 0.88721 0.77356 0.87591 0.0
C179 C 0.76886 0.87022 0.89775 0.0
H180 H 0.92154 0.87767 0.7908 0.0
H181 H 0.90353 0.86122 0.82684 0.0
H182 H 0.84052 0.89196 0.80171 0.0
H183 H 0.85904 0.91035 0.76695 0.0
H184 H 0.88151 0.83471 0.84217 0.0
H185 H 0.83271 0.88887 0.8434 0.0
H186 H 0.82903 0.83317 0.89634 0.0
H187 H 0.78923 0.84236 0.88632 0.0
H188 H 0.81891 0.90666 0.88036 0.0
H189 H 0.78482 0.92398 0.89638 0.0
H190 H 0.87703 0.79658 0.8458 0.0
H191 H 0.85937 0.81519 0.92045 0.0
H192 H 0.75516 0.85967 0.90261 0.0
H193 H 0.8952 0.76249 0.863 0.0
H194 H 0.87665 0.78041 0.93765 0.0
C195 C 0.65349 0.1948 0.22377 0.0
C196 C 0.64396 0.20424 0.20135 0.0
C197 C 0.66379 0.20809 0.24107 0.0
C198 C 0.66447 0.2312 0.23663 0.0
C199 C 0.65409 0.24093 0.21493 0.0
C200 C 0.64403 0.22755 0.19733 0.0
C201 C 0.67731 0.24464 0.25405 0.0
C202 C 0.69976 0.23868 0.25933 0.0
C203 C 0.71206 0.24978 0.27732 0.0
C204 C 0.70157 0.26721 0.2899 0.0
C205 C 0.67908 0.27348 0.28481 0.0
C206 C 0.66709 0.26232 0.2665 0.0
C207 C 0.66808 0.29092 0.2997 0.0
C208 C 0.67168 0.29093 0.32583 0.0
C209 C 0.65444 0.30789 0.28805 0.0
C210 C 0.6451 0.32486 0.3022 0.0
C211 C 0.64919 0.32513 0.32827 0.0
C212 C 0.73537 0.2423 0.28407 0.0
C213 C 0.74129 0.21947 0.28562 0.0
C214 C 0.75163 0.25774 0.28995 0.0
C215 C 0.77312 0.25046 0.29779 0.0
C216 C 0.77884 0.22762 0.29957 0.0
C217 C 0.76279 0.21223 0.29315 0.0
C218 C 0.66236 0.30781 0.33993 0.0
H219 H 0.6532 0.17704 0.22793 0.0
H220 H 0.67146 0.20028 0.25789 0.0
H221 H 0.65452 0.25874 0.21113 0.0
H222 H 0.63702 0.23541 0.18022 0.0
H223 H 0.70761 0.22524 0.24935 0.0
H224 H 0.6496 0.26661 0.26282 0.0
H225 H 0.71076 0.27563 0.30418 0.0
H226 H 0.6817 0.2778 0.33544 0.0
H227 H 0.65146 0.30835 0.26793 0.0
H228 H 0.63514 0.33805 0.29264 0.0
H229 H 0.72912 0.20706 0.28178 0.0
H230 H 0.74774 0.27547 0.2886 0.0
H231 H 0.6654 0.30722 0.36004 0.0
H232 H 0.76662 0.19449 0.29481 0.0
H233 H 0.78525 0.26266 0.3025 0.0
C234 C 0.26893 0.588 0.15196 0.0
C235 C 0.26399 0.58869 0.12606 0.0
C236 C 0.28876 0.59657 0.16101 0.0
C237 C 0.30409 0.60602 0.14435 0.0
C238 C 0.29947 0.60612 0.11841 0.0
C239 C 0.27964 0.59754 0.10936 0.0
C240 C 0.32424 0.61676 0.15412 0.0
C241 C 0.33679 0.60684 0.17439 0.0
C242 C 0.35518 0.61757 0.18446 0.0
C243 C 0.36079 0.63844 0.17418 0.0
C244 C 0.34847 0.6486 0.15405 0.0
C245 C 0.33036 0.63759 0.14391 0.0
C246 C 0.35446 0.67096 0.14423 0.0
C247 C 0.35912 0.68771 0.16098 0.0
C248 C 0.35674 0.67537 0.11833 0.0
C249 C 0.3645 0.69587 0.10947 0.0
C250 C 0.36991 0.71235 0.12636 0.0
C251 C 0.36814 0.60779 0.20642 0.0
C252 C 0.35723 0.59836 0.22724 0.0
C253 C 0.39147 0.60958 0.20756 0.0
C254 C 0.40345 0.60338 0.2295 0.0
C255 C 0.39241 0.59501 0.25071 0.0
C256 C 0.36928 0.59196 0.24918 0.0
C257 C 0.36676 0.70817 0.15216 0.0
H258 H 0.25709 0.5816 0.16535 0.0
H259 H 0.29169 0.59652 0.18112 0.0
H260 H 0.31113 0.61298 0.10509 0.0
H261 H 0.27649 0.59798 0.08927 0.0
H262 H 0.33238 0.59068 0.18217 0.0
H263 H 0.32047 0.64569 0.12875 0.0
H264 H 0.3747 0.64705 0.18212 0.0
H265 H 0.35723 0.68485 0.18102 0.0
H266 H 0.35329 0.66271 0.10504 0.0
H267 H 0.36658 0.69872 0.08946 0.0
H268 H 0.33925 0.59692 0.22701 0.0
H269 H 0.40043 0.61632 0.19164 0.0
H270 H 0.37098 0.72041 0.16568 0.0
H271 H 0.36038 0.5856 0.26533 0.0
H272 H 0.42134 0.60549 0.23005 0.0
C273 C 0.15592 0.22686 0.63533 0.0
C274 C 0.13274 0.22665 0.63902 0.0
C275 C 0.16989 0.23696 0.65236 0.0
C276 C 0.16101 0.24732 0.67335 0.0
C277 C 0.13783 0.24721 0.67699 0.0
C278 C 0.12388 0.23691 0.66009 0.0
C279 C 0.17574 0.25913 0.69071 0.0
C280 C 0.19295 0.27209 0.681 0.0
C281 C 0.20571 0.28495 0.69677 0.0
C282 C 0.20161 0.28445 0.72256 0.0
C283 C 0.18455 0.27161 0.73268 0.0
C284 C 0.17174 0.25887 0.71668 0.0
C285 C 0.1784 0.27433 0.75921 0.0
C286 C 0.19511 0.27508 0.77794 0.0
C287 C 0.15626 0.28012 0.76509 0.0
C288 C 0.15136 0.28884 0.78833 0.0
C289 C 0.16851 0.29184 0.80606 0.0
C290 C 0.22168 0.30071 0.68597 0.0
C291 C 0.23794 0.2936 0.66911 0.0
C292 C 0.22011 0.32326 0.69185 0.0
C293 C 0.23435 0.33852 0.6808 0.0
C294 C 0.25059 0.33146 0.66392 0.0
C295 C 0.25244 0.30885 0.65833 0.0
C296 C 0.1902 0.28373 0.80122 0.0
H297 H 0.1633 0.21932 0.61918 0.0
H298 H 0.18769 0.2366 0.64909 0.0
H299 H 0.13037 0.25537 0.69271 0.0
H300 H 0.10616 0.23676 0.66375 0.0
H301 H 0.19557 0.2733 0.66091 0.0
H302 H 0.15846 0.24907 0.72446 0.0
H303 H 0.21105 0.295 0.73457 0.0
H304 H 0.21228 0.27047 0.77394 0.0
H305 H 0.14305 0.27975 0.75101 0.0
H306 H 0.13444 0.29474 0.79174 0.0
H307 H 0.23941 0.27628 0.66432 0.0
H308 H 0.20753 0.32916 0.70459 0.0
H309 H 0.20376 0.28587 0.8145 0.0
H310 H 0.2648 0.30308 0.64524 0.0
H311 H 0.23273 0.35586 0.6855 0.0
Nd312 Nd 0.0474 1.00708 0.52254 0.0
Nd313 Nd 1.0048 0.02788 0.50373 0.0
C314 C 0.08549 0.98395 0.52846 0.0
C315 C 0.09585 0.96497 0.54307 0.0
C316 C 0.10885 0.94925 0.53059 0.0
C317 C 0.12063 0.93221 0.54414 0.0
C318 C 0.11975 0.93069 0.57051 0.0
C319 C 0.10598 0.94598 0.58291 0.0
C320 C 0.09408 0.96296 0.56931 0.0
C321 C 0.03866 0.04865 0.53985 0.0
C322 C 1.00535 0.99802 0.55835 0.0
C323 C 0.96687 0.0507 0.49514 0.0
C324 C 0.958 0.06831 0.47725 0.0
C325 C 0.96448 0.09052 0.47857 0.0
C326 C 0.9557 0.10686 0.46142 0.0
C327 C 0.94045 0.10123 0.44259 0.0
C328 C 0.93401 0.07904 0.44134 0.0
C329 C 0.94261 0.06279 0.45855 0.0
C330 C 1.01371 0.98661 0.48575 0.0
C331 C 0.04698 0.03763 0.46837 0.0
O332 O 0.07031 0.97948 0.51165 0.0
O333 O 0.08073 1.00199 0.54049 0.0
O334 O 0.04721 0.03231 0.5539 0.0
O335 O 0.03581 0.04293 0.51765 0.0
O336 O 0.0257 0.99069 0.55298 0.0
O337 O 0.99497 1.01355 0.54357 0.0
O338 O 0.9818 0.0562 0.51182 0.0
O339 O 0.97127 0.03129 0.48581 0.0
O340 O 1.00669 1.0037 0.47182 0.0
O341 O 1.01623 0.99179 0.5083 0.0
O342 O 0.02676 0.04505 0.47406 0.0
O343 O 0.05717 0.0217 0.48275 0.0
H344 H 0.11032 0.95046 0.51034 0.0
H345 H 0.13076 0.92047 0.53399 0.0
H346 H 0.10508 0.9454 0.60321 0.0
H347 H 0.08404 0.97485 0.57937 0.0
H348 H 0.97628 0.09532 0.49281 0.0
H349 H 0.96092 0.12385 0.46277 0.0
H350 H 0.92194 0.07432 0.42733 0.0
H351 H 0.93715 0.04586 0.45726 0.0
Nd352 Nd 0.5262 1.00248 0.03197 0.0
Nd353 Nd 0.5207 0.0299 0.9899 0.0
C354 C 0.5309 0.96828 0.06482 0.0
C355 C 0.51933 0.94721 0.06891 0.0
C356 C 0.51375 0.93407 0.04866 0.0
C357 C 0.50168 0.91481 0.0526 0.0
C358 C 0.49489 0.90833 0.07686 0.0
C359 C 0.50064 0.92142 0.09713 0.0
C360 C 0.51279 0.94068 0.09317 0.0
C361 C 0.49001 0.03227 0.03765 0.0
C362 C 0.49632 0.98555 0.98507 0.0
C363 C 0.51569 0.0639 0.95696 0.0
C364 C 0.52874 0.08368 0.95162 0.0
C365 C 0.5182 0.10304 0.94109 0.0
C366 C 0.53014 0.12247 0.93777 0.0
C367 C 0.55285 0.12282 0.94492 0.0
C368 C 0.56338 0.10321 0.95522 0.0
C369 C 0.55139 0.08384 0.95868 0.0
C370 C 0.55726 1.00035 0.98479 0.0
C371 C 0.55038 0.04738 0.03666 0.0
O372 O 0.54264 0.9703 0.04448 0.0
O373 O 0.51932 0.98638 0.0692 0.0
O374 O 0.50597 0.02823 0.05404 0.0
O375 O 0.4938 0.02136 0.01809 0.0
O376 O 0.51064 0.97945 1.00321 0.0
O377 O 0.49365 1.00665 0.97843 0.0
O378 O 0.50615 0.06327 0.97877 0.0
O379 O 0.52505 0.04481 0.95163 0.0
O380 O 0.54138 1.00405 0.96824 0.0
O381 O 0.55318 1.01148 1.00409 0.0
O382 O 0.53669 0.05325 0.01787 0.0
O383 O 0.55252 0.02639 0.04418 0.0
H384 H 0.51848 0.9388 0.02974 0.0
H385 H 0.49723 0.90525 0.03655 0.0
H386 H 0.49579 0.91673 0.11605 0.0
H387 H 0.51686 0.95062 0.10903 0.0
H388 H 0.50063 0.10324 0.9359 0.0
H389 H 0.52142 0.13736 0.93018 0.0
H390 H 0.58089 0.10279 0.96063 0.0
H391 H 0.55973 0.06907 0.96714 0.0
Nd392 Nd 0.50166 0.50518 0.5096 0.0
Nd393 Nd 0.54423 0.53152 0.51909 0.0
C394 C 0.4613 0.49211 0.49828 0.0
C395 C 0.44156 0.48733 0.51305 0.0
C396 C 0.42201 0.48072 0.50118 0.0
C397 C 0.40408 0.4736 0.51553 0.0
C398 C 0.40568 0.47286 0.5419 0.0
C399 C 0.42497 0.48048 0.55367 0.0
C400 C 0.44278 0.48773 0.53933 0.0
C401 C 0.52732 0.49024 0.55023 0.0
C402 C 0.49946 0.54843 0.54618 0.0
C403 C 0.58483 0.54318 0.53174 0.0
C404 C 0.60645 0.54464 0.51951 0.0
C405 C 0.62597 0.54565 0.53414 0.0
C406 C 0.64648 0.54874 0.52264 0.0
C407 C 0.6477 0.55095 0.49632 0.0
C408 C 0.62813 0.54894 0.48173 0.0
C409 C 0.60768 0.54572 0.49325 0.0
C410 C 0.51863 0.54654 0.47833 0.0
C411 C 0.54618 0.48857 0.48236 0.0
O412 O 0.46684 0.51299 0.49667 0.0
O413 O 0.47839 0.47832 0.50276 0.0
O414 O 0.51626 0.47695 0.53644 0.0
O415 O 0.52311 0.51017 0.54356 0.0
O416 O 0.48832 0.5352 0.53154 0.0
O417 O 0.52149 0.54794 0.54735 0.0
O418 O 0.57765 0.52307 0.53589 0.0
O419 O 0.56919 0.55738 0.52326 0.0
O420 O 0.53033 0.55972 0.49164 0.0
O421 O 0.52266 0.52663 0.48516 0.0
O422 O 0.5573 0.5007 0.49821 0.0
O423 O 0.52423 0.4905 0.47999 0.0
H424 H 0.4209 0.48032 0.48089 0.0
H425 H 0.38946 0.46763 0.50604 0.0
H426 H 0.4265 0.48023 0.57397 0.0
H427 H 0.45782 0.4929 0.54872 0.0
H428 H 0.62526 0.54458 0.55446 0.0
H429 H 0.66129 0.5499 0.53437 0.0
H430 H 0.6284 0.55086 0.46145 0.0
H431 H 0.59271 0.54477 0.4817 0.0
Nd432 Nd 1.00566 0.5132 0.03244 0.0
Nd433 Nd 0.0435 0.52317 0.99685 0.0
C434 C 0.96658 0.50874 0.05391 0.0
C435 C 0.94937 0.52504 0.06137 0.0
C436 C 0.94034 0.52327 0.08542 0.0
C437 C 0.92707 0.5407 0.09433 0.0
C438 C 0.92266 0.56014 0.07927 0.0
C439 C 0.93062 0.56126 0.05464 0.0
C440 C 0.94391 0.54388 0.04581 0.0
C441 C 0.04175 0.53254 0.0537 0.0
C442 C 1.00481 0.56193 0.99844 0.0
C443 C 0.08276 0.52624 0.97533 0.0
C444 C 0.09897 0.50878 0.96861 0.0
C445 C 0.11863 0.51402 0.95611 0.0
C446 C 0.1332 0.49694 0.94857 0.0
C447 C 0.12837 0.47454 0.95394 0.0
C448 C 0.10896 0.46947 0.96704 0.0
C449 C 0.09426 0.48642 0.97398 0.0
C450 C 1.00762 0.50343 0.97554 0.0
C451 C 0.04488 0.47516 0.03153 0.0
O452 O 0.96949 0.50698 0.02976 0.0
O453 O 0.98541 0.50903 0.06663 0.0
O454 O 0.03064 0.51706 0.06504 0.0
O455 O 0.03301 0.538 0.03262 0.0
O456 O 0.99353 0.54675 1.01143 0.0
O457 O 0.02605 0.55801 0.99299 0.0
O458 O 0.07995 0.52833 0.99943 0.0
O459 O 0.06388 0.52651 0.9627 0.0
O460 O 1.01887 0.51869 0.96405 0.0
O461 O 1.01624 0.4982 0.99674 0.0
O462 O 0.05622 0.49099 0.01987 0.0
O463 O 0.02326 0.47831 0.03552 0.0
H464 H 0.94439 0.50888 0.09773 0.0
H465 H 0.92094 0.53933 0.11333 0.0
H466 H 0.92764 0.57605 0.04264 0.0
H467 H 0.95051 0.54547 0.02709 0.0
H468 H 0.12243 0.53121 0.95169 0.0
H469 H 0.148 0.50117 0.93825 0.0
H470 H 0.1046 0.45234 0.97088 0.0
H471 H 0.07893 0.48198 0.98298 0.0
H472 H 0.17478 0.10494 0.28319 0.0
H473 H 0.15678 0.0881 0.31968 0.0
H474 H 0.10088 0.13458 0.30909 0.0
H475 H 0.11931 0.15235 0.27344 0.0
H476 H 0.10834 0.12973 0.35678 0.0
H477 H 0.10077 0.07636 0.29265 0.0
H478 H 0.11386 0.05106 0.26026 0.0
H479 H 0.15468 1.01414 0.31539 0.0
H480 H 0.14204 0.0394 0.34805 0.0
H481 H 0.03214 0.07199 0.43574 0.0
H482 H 0.05134 0.08903 0.40003 0.0
H483 H 0.10799 0.04407 0.41437 0.0
H484 H 0.08871 0.02675 0.44998 0.0
H485 H 0.10064 0.04796 0.36532 0.0
H486 H 0.10788 0.1008 0.42953 0.0
H487 H 0.09476 0.12587 0.46213 0.0
H488 H 0.05458 0.1636 0.40709 0.0
H489 H 0.06726 0.13858 0.3742 0.0
C490 C 0.15877 0.11189 0.28863 0.0
C491 C 0.1487 0.13018 0.27477 0.0
C492 C 0.14824 0.1019 0.30953 0.0
C493 C 0.12703 0.10957 0.31729 0.0
C494 C 0.11708 0.12802 0.30374 0.0
C495 C 0.12766 0.1381 0.28294 0.0
C496 C 0.11531 0.09859 0.33942 0.0
C497 C 0.10644 0.11186 0.35833 0.0
C498 C 0.11307 0.07515 0.3423 0.0
C499 C 0.12063 0.0599 0.32273 0.0
C500 C 0.11265 0.06294 0.29782 0.0
C501 C 0.11997 0.04859 0.27942 0.0
C502 C 0.13514 0.03104 0.28575 0.0
C503 C 0.14296 0.02776 0.31051 0.0
C504 C 0.13571 0.04207 0.32897 0.0
C505 C 0.04869 0.06564 0.43138 0.0
C506 C 0.05875 0.04789 0.44608 0.0
C507 C 0.0598 0.07557 0.41088 0.0
C508 C 0.08146 0.06823 0.40435 0.0
C509 C 0.09139 0.05026 0.41876 0.0
C510 C 0.0803 0.04034 0.43931 0.0
C511 C 0.09361 0.07912 0.38254 0.0
C512 C 0.10256 0.06583 0.36373 0.0
C513 C 0.09592 0.10254 0.37975 0.0
C514 C 0.08836 0.11769 0.39945 0.0
C515 C 0.09613 0.11435 0.42441 0.0
C516 C 0.08879 0.12857 0.44294 0.0
C517 C 0.0738 0.14628 0.43669 0.0
C518 C 0.06617 0.14986 0.4119 0.0
C519 C 0.07344 0.13568 0.3933 0.0
H520 H 0.06814 0.15727 0.45106 0.0
H521 H 0.14079 0.01995 0.27148 0.0
H522 H 0.3774 0.858 0.85055 0.0
H523 H 0.39386 0.88733 0.87469 0.0
H524 H 0.44624 0.8412 0.90175 0.0
H525 H 0.42981 0.8117 0.87761 0.0
H526 H 0.42718 0.86794 0.9395 0.0
H527 H 0.45797 0.87609 0.8566 0.0
H528 H 0.45601 0.88063 0.81042 0.0
H529 H 0.41809 0.94201 0.81606 0.0
H530 H 0.41955 0.93766 0.8623 0.0
H531 H 0.50561 0.94089 0.98596 0.0
H532 H 0.48687 0.91277 0.96247 0.0
H533 H 0.44164 0.96337 0.92925 0.0
H534 H 0.46073 0.99181 0.95241 0.0
H535 H 0.45527 0.93512 0.89475 0.0
H536 H 0.42508 0.92858 0.97673 0.0
H537 H 0.42761 0.92556 0.02296 0.0
H538 H 0.46256 0.86235 0.01933 0.0
H539 H 0.46074 0.86522 0.97309 0.0
C540 C 0.39228 0.85405 0.86187 0.0
C541 C 0.40234 0.83258 0.86224 0.0
C542 C 0.40173 0.87084 0.8755 0.0
C543 C 0.42132 0.86643 0.88984 0.0
C544 C 0.43112 0.84489 0.89075 0.0
C545 C 0.42181 0.82813 0.87688 0.0
C546 C 0.43183 0.88445 0.90346 0.0
C547 C 0.43354 0.88252 0.92973 0.0
C548 C 0.4395 0.90375 0.8907 0.0
C549 C 0.43866 0.90642 0.86291 0.0
C550 C 0.44904 0.89045 0.84799 0.0
C551 C 0.44805 0.89301 0.82181 0.0
C552 C 0.43688 0.91156 0.81031 0.0
C553 C 0.42671 0.92763 0.82499 0.0
C554 C 0.42763 0.92513 0.85119 0.0
C555 C 0.49156 0.94605 0.97386 0.0
C556 C 0.48447 0.96853 0.97128 0.0
C557 C 0.48087 0.92994 0.96038 0.0
C558 C 0.46263 0.93591 0.94438 0.0
C559 C 0.45565 0.95839 0.94153 0.0
C560 C 0.4665 0.97459 0.95486 0.0
C561 C 0.45083 0.91856 0.93083 0.0
C562 C 0.44881 0.92062 0.90457 0.0
C563 C 0.44264 0.89949 0.94361 0.0
C564 C 0.44295 0.89722 0.97144 0.0
C565 C 0.43344 0.9141 0.9858 0.0
C566 C 0.43485 0.91248 1.012 0.0
C567 C 0.44546 0.89391 0.02405 0.0
C568 C 0.45455 0.87684 1.00997 0.0
C569 C 0.4533 0.87843 0.98376 0.0
H570 H 0.44622 0.89261 0.04431 0.0
H571 H 0.43614 0.91352 0.79004 0.0
H572 H 0.67223 0.46729 0.73116 0.0
H573 H 0.64808 0.47811 0.695 0.0
H574 H 0.62665 0.4106 0.69111 0.0
H575 H 0.64969 0.39977 0.72796 0.0
H576 H 0.63826 0.4336 0.64271 0.0
H577 H 0.59356 0.44212 0.71737 0.0
H578 H 0.58593 0.4566 0.75914 0.0
H579 H 0.58932 0.52363 0.72886 0.0
H580 H 0.59732 0.50952 0.68697 0.0
H581 H 0.54044 0.44796 0.56594 0.0
H582 H 0.56721 0.4371 0.59992 0.0
H583 H 0.57633 0.50635 0.61442 0.0
H584 H 0.54943 0.51721 0.58094 0.0
H585 H 0.57213 0.48304 0.6571 0.0
H586 H 0.61514 0.47743 0.58358 0.0
H587 H 0.62439 0.46573 0.54109 0.0
H588 H 0.62696 0.39726 0.56737 0.0
H589 H 0.61728 0.40852 0.61 0.0
C590 C 0.66231 0.45472 0.72277 0.0
C591 C 0.6629 0.43265 0.73267 0.0
C592 C 0.64869 0.46092 0.70197 0.0
C593 C 0.63565 0.44512 0.69051 0.0
C594 C 0.63677 0.42296 0.69965 0.0
C595 C 0.65008 0.41681 0.72067 0.0
C596 C 0.61982 0.45192 0.66991 0.0
C597 C 0.62364 0.44419 0.64581 0.0
C598 C 0.60121 0.46629 0.67398 0.0
C599 C 0.59629 0.47476 0.69912 0.0
C600 C 0.59289 0.45994 0.71968 0.0
C601 C 0.58846 0.46808 0.74336 0.0
C602 C 0.58721 0.49102 0.74667 0.0
C603 C 0.59033 0.50587 0.72628 0.0
C604 C 0.5948 0.49781 0.70257 0.0
C605 C 0.54813 0.46079 0.57648 0.0
C606 C 0.54295 0.48338 0.57086 0.0
C607 C 0.56347 0.45461 0.59575 0.0
C608 C 0.5739 0.47095 0.60952 0.0
C609 C 0.56848 0.49349 0.60405 0.0
C610 C 0.55316 0.49965 0.58488 0.0
C611 C 0.59038 0.46462 0.62975 0.0
C612 C 0.58672 0.47244 0.65384 0.0
C613 C 0.60936 0.45072 0.62552 0.0
C614 C 0.61525 0.44381 0.59995 0.0
C615 C 0.61747 0.45985 0.58027 0.0
C616 C 0.62281 0.45331 0.55616 0.0
C617 C 0.62621 0.43077 0.55153 0.0
C618 C 0.62428 0.41472 0.571 0.0
C619 C 0.61887 0.42117 0.59515 0.0
H620 H 0.63044 0.42577 0.53287 0.0
H621 H 0.58376 0.49729 0.76502 0.0
H622 H 0.83848 0.74255 0.17116 0.0
H623 H 0.84788 0.71561 0.13927 0.0
H624 H 0.904 0.69068 0.18505 0.0
H625 H 0.89485 0.71733 0.21663 0.0
H626 H 0.91456 0.69062 0.13717 0.0
H627 H 0.85221 0.66702 0.18795 0.0
H628 H 0.81432 0.67113 0.20497 0.0
H629 H 0.78636 0.67414 0.13016 0.0
H630 H 0.82416 0.67035 0.11269 0.0
H631 H 0.93196 0.57708 0.12459 0.0
H632 H 0.91857 0.61245 0.14054 0.0
H633 H 0.87715 0.62453 0.07416 0.0
H634 H 0.89044 0.58881 0.058 0.0
H635 H 0.85668 0.63511 0.12258 0.0
H636 H 0.92109 0.65068 0.07355 0.0
H637 H 0.95966 0.64389 0.05961 0.0
H638 H 0.9845 0.65389 0.1342 0.0
H639 H 0.94604 0.66037 0.1487 0.0
C640 C 0.85303 0.73155 0.17416 0.0
C641 C 0.86587 0.73204 0.19646 0.0
C642 C 0.85837 0.71619 0.15597 0.0
C643 C 0.87645 0.70092 0.15998 0.0
C644 C 0.89002 0.70233 0.18149 0.0
C645 C 0.8848 0.71769 0.19954 0.0
C646 C 0.88035 0.68214 0.14324 0.0
C647 C 0.90186 0.67856 0.13388 0.0
C648 C 0.86367 0.66657 0.13854 0.0
C649 C 0.84098 0.6687 0.14902 0.0
C650 C 0.83798 0.66872 0.17514 0.0
C651 C 0.81653 0.67097 0.18486 0.0
C652 C 0.79795 0.67297 0.16865 0.0
C653 C 0.80078 0.67265 0.14268 0.0
C654 C 0.8222 0.67045 0.13286 0.0
C655 C 0.91962 0.58698 0.11361 0.0
C656 C 0.91221 0.58018 0.09007 0.0
C657 C 0.91215 0.60727 0.12265 0.0
C658 C 0.89713 0.62113 0.10835 0.0
C659 C 0.88885 0.61402 0.08536 0.0
C660 C 0.89648 0.59373 0.07616 0.0
C661 C 0.891 0.64339 0.1173 0.0
C662 C 0.86913 0.64755 0.12521 0.0
C663 C 0.90743 0.65934 0.12099 0.0
C664 C 0.93065 0.65591 0.11224 0.0
C665 C 0.93476 0.6513 0.08702 0.0
C666 C 0.95661 0.64752 0.07901 0.0
C667 C 0.97452 0.64843 0.09602 0.0
C668 C 0.97061 0.65319 0.12105 0.0
C669 C 0.94879 0.65696 0.12917 0.0
H670 H 0.99142 0.64548 0.08979 0.0
H671 H 0.78136 0.6747 0.17621 0.0
H672 H 0.28896 0.12103 0.07937 0.0
H673 H 0.32274 0.10339 0.06295 0.0
H674 H 0.35952 0.12013 0.1293 0.0
H675 H 0.32605 0.13851 0.14543 0.0
H676 H 0.38528 0.12678 0.09095 0.0
H677 H 0.34105 0.06501 0.11692 0.0
H678 H 0.3076 0.04218 0.11803 0.0
H679 H 0.31201 0.03347 0.03865 0.0
H680 H 0.34534 0.05649 0.03702 0.0
H681 H 0.48094 0.05507 0.07985 0.0
H682 H 0.44621 0.07354 0.09224 0.0
H683 H 0.41456 0.0555 0.02312 0.0
H684 H 0.44959 0.03656 1.01071 0.0
H685 H 0.38569 0.04999 0.06036 0.0
H686 H 0.43088 0.11008 0.03456 0.0
H687 H 0.46427 0.13296 0.03313 0.0
H688 H 0.45777 0.1454 0.1115 0.0
H689 H 0.42465 0.12218 0.11356 0.0
C690 C 0.30421 0.12123 0.09051 0.0
C691 C 0.30428 0.13137 0.11402 0.0
C692 C 0.32367 0.11076 0.08112 0.0
C693 C 0.34406 0.10988 0.09485 0.0
C694 C 0.34426 0.12027 0.11812 0.0
C695 C 0.32481 0.1307 0.12754 0.0
C696 C 0.36512 0.09844 0.08505 0.0
C697 C 0.3853 0.10987 0.08462 0.0
C698 C 0.36555 0.07652 0.07586 0.0
C699 C 0.34554 0.06267 0.0768 0.0
C700 C 0.33479 0.05836 0.09967 0.0
C701 C 0.31586 0.04537 0.1004 0.0
C702 C 0.30764 0.03644 0.07841 0.0
C703 C 0.31837 0.04043 0.05566 0.0
C704 C 0.33728 0.05344 0.05482 0.0
C705 C 0.46667 0.05503 0.06712 0.0
C706 C 0.46835 0.04424 0.04414 0.0
C707 C 0.44665 0.0658 0.07425 0.0
C708 C 0.42739 0.06642 0.05865 0.0
C709 C 0.42894 0.0555 0.03568 0.0
C710 C 0.44912 0.0447 0.02847 0.0
C711 C 0.40588 0.07826 0.06656 0.0
C712 C 0.38565 0.06692 0.06664 0.0
C713 C 0.40538 0.10031 0.07538 0.0
C714 C 0.42538 0.11421 0.07426 0.0
C715 C 0.4367 0.11752 0.05156 0.0
C716 C 0.45558 0.13056 0.05063 0.0
C717 C 0.46318 0.14059 0.07222 0.0
C718 C 0.4519 0.13759 0.09479 0.0
C719 C 0.43308 0.12447 0.09586 0.0
H720 H 0.47776 0.15073 0.07142 0.0
H721 H 0.29299 0.02638 0.07902 0.0
H722 H 0.2354 0.79986 0.727 0.0
H723 H 0.20631 0.82094 0.70258 0.0
H724 H 0.25536 0.84164 0.64883 0.0
H725 H 0.28458 0.82156 0.67363 0.0
H726 H 0.23004 0.87586 0.66127 0.0
H727 H 0.21729 0.80121 0.63629 0.0
H728 H 0.20979 0.76136 0.64304 0.0
H729 H 0.14801 0.77823 0.6785 0.0
H730 H 0.15529 0.81821 0.67226 0.0
H731 H 0.16309 0.91884 0.56127 0.0
H732 H 0.18813 0.89397 0.58656 0.0
H733 H 0.13525 0.8813 0.63867 0.0
H734 H 0.10969 0.90566 0.61285 0.0
H735 H 0.16059 0.84323 0.62937 0.0
H736 H 0.17318 0.91812 0.65274 0.0
H737 H 0.18079 0.95784 0.64502 0.0
H738 H 0.24339 0.94012 0.61183 0.0
H739 H 0.23601 0.90027 0.61902 0.0
C740 C 0.23999 0.809 0.71004 0.0
C741 C 0.26232 0.80898 0.70225 0.0
C742 C 0.22331 0.82083 0.69596 0.0
C743 C 0.22864 0.83268 0.67375 0.0
C744 C 0.25086 0.83256 0.66587 0.0
C745 C 0.26752 0.82087 0.67996 0.0
C746 C 0.21132 0.84598 0.65909 0.0
C747 C 0.21499 0.86863 0.65406 0.0
C748 C 0.19137 0.83671 0.65032 0.0
C749 C 0.18696 0.81269 0.65406 0.0
C750 C 0.2022 0.79642 0.64572 0.0
C751 C 0.19797 0.77381 0.64941 0.0
C752 C 0.17847 0.76727 0.66126 0.0
C753 C 0.16312 0.78332 0.66937 0.0
C754 C 0.16728 0.80596 0.66574 0.0
C755 C 0.15658 0.91043 0.5778 0.0
C756 C 0.13438 0.91429 0.58507 0.0
C757 C 0.171 0.89638 0.59238 0.0
C758 C 0.16362 0.8861 0.61467 0.0
C759 C 0.14128 0.8892 0.62158 0.0
C760 C 0.12677 0.90326 0.60693 0.0
C761 C 0.1796 0.87291 0.6312 0.0
C762 C 0.17563 0.85039 0.63669 0.0
C763 C 0.19936 0.88224 0.64036 0.0
C764 C 0.20395 0.90621 0.63625 0.0
C765 C 0.1885 0.92269 0.64364 0.0
C766 C 0.19278 0.94523 0.63938 0.0
C767 C 0.21254 0.9515 0.6279 0.0
C768 C 0.22809 0.93524 0.62071 0.0
C769 C 0.22387 0.91268 0.6249 0.0
H770 H 0.21582 0.96896 0.62461 0.0
H771 H 0.17522 0.74976 0.66409 0.0
H772 H 0.82145 0.46033 0.8666 0.0
H773 H 0.85756 0.47315 0.88126 0.0
H774 H 0.85297 0.43162 0.94875 0.0
H775 H 0.81663 0.41907 0.93443 0.0
H776 H 0.86691 0.47353 0.95826 0.0
H777 H 0.88567 0.41515 0.90238 0.0
H778 H 0.88445 0.39585 0.86244 0.0
H779 H 0.91144 0.45277 0.82401 0.0
H780 H 0.91252 0.47255 0.86369 0.0
H781 H 0.98098 0.47301 0.99834 0.0
H782 H 0.94404 0.46186 0.98407 0.0
H783 H 0.94885 0.50488 0.91778 0.0
H784 H 0.98558 0.51638 0.93215 0.0
H785 H 0.93477 0.4627 0.9074 0.0
H786 H 0.91436 0.52187 0.96118 0.0
H787 H 0.91242 0.54346 0.9995 0.0
H788 H 0.88809 0.48665 0.0407 0.0
H789 H 0.88977 0.46475 1.00253 0.0
C790 C 0.82804 0.45412 0.88468 0.0
C791 C 0.81626 0.43865 0.89935 0.0
C792 C 0.84873 0.46129 0.89292 0.0
C793 C 0.85802 0.45311 0.91594 0.0
C794 C 0.84611 0.43804 0.93087 0.0
C795 C 0.82545 0.43079 0.9226 0.0
C796 C 0.8802 0.46025 0.92446 0.0
C797 C 0.88182 0.47086 0.94733 0.0
C798 C 0.89948 0.45732 0.90981 0.0
C799 C 0.89897 0.44541 0.88596 0.0
C800 C 0.89118 0.42362 0.88538 0.0
C801 C 0.89054 0.41258 0.8628 0.0
C802 C 0.8978 0.4231 0.84069 0.0
C803 C 0.90578 0.44466 0.84114 0.0
C804 C 0.90643 0.45578 0.86368 0.0
C805 C 0.9741 0.48012 0.98077 0.0
C806 C 0.98602 0.49565 0.96641 0.0
C807 C 0.95302 0.47381 0.9727 0.0
C808 C 0.94367 0.48274 0.95001 0.0
C809 C 0.95578 0.49787 0.93538 0.0
C810 C 0.97674 0.50438 0.94358 0.0
C811 C 0.92148 0.47588 0.94127 0.0
C812 C 0.91987 0.46531 0.91835 0.0
C813 C 0.90217 0.47895 0.9558 0.0
C814 C 0.90239 0.49162 0.97908 0.0
C815 C 0.90887 0.5139 0.97849 0.0
C816 C 0.90769 0.52623 1.00015 0.0
C817 C 0.90014 0.51641 0.02253 0.0
C818 C 0.8939 0.49422 0.02334 0.0
C819 C 0.8949 0.48187 1.00169 0.0
H820 H 0.89899 0.52601 0.03923 0.0
H821 H 0.8973 0.41453 0.82323 0.0
H822 H 0.78512 0.68385 0.41698 0.0
H823 H 0.76597 0.65287 0.43709 0.0
H824 H 0.75767 0.62326 0.36521 0.0
H825 H 0.77665 0.65445 0.34492 0.0
H826 H 0.71988 0.62379 0.38921 0.0
H827 H 0.79434 0.5999 0.41042 0.0
H828 H 0.83296 0.60321 0.42612 0.0
H829 H 0.80869 0.61733 0.49936 0.0
H830 H 0.76989 0.61443 0.48402 0.0
H831 H 0.66531 0.53628 0.45244 0.0
H832 H 0.69597 0.55257 0.42892 0.0
H833 H 0.70797 0.59687 0.48902 0.0
H834 H 0.67728 0.58107 0.51238 0.0
H835 H 0.74723 0.58236 0.46667 0.0
H836 H 0.67347 0.61337 0.44239 0.0
H837 H 0.6347 0.6105 0.42688 0.0
H838 H 0.65851 0.58281 0.35885 0.0
H839 H 0.69744 0.58521 0.37416 0.0
C840 C 0.77949 0.67057 0.40553 0.0
C841 C 0.78235 0.67154 0.37941 0.0
C842 C 0.76863 0.65283 0.41704 0.0
C843 C 0.76071 0.63556 0.4027 0.0
C844 C 0.76373 0.63637 0.37663 0.0
C845 C 0.77446 0.65422 0.36507 0.0
C846 C 0.74783 0.61759 0.4148 0.0
C847 C 0.72611 0.61432 0.40576 0.0
C848 C 0.75583 0.60544 0.4366 0.0
C849 C 0.77917 0.60706 0.44601 0.0
C850 C 0.79722 0.60385 0.42983 0.0
C851 C 0.81915 0.60564 0.43868 0.0
C852 C 0.82327 0.61051 0.46371 0.0
C853 C 0.80547 0.61356 0.47997 0.0
C854 C 0.7835 0.61181 0.47122 0.0
C855 C 0.67469 0.54929 0.46078 0.0
C856 C 0.66867 0.55759 0.48413 0.0
C857 C 0.69225 0.55846 0.4474 0.0
C858 C 0.70399 0.57608 0.45715 0.0
C859 C 0.69914 0.58322 0.48123 0.0
C860 C 0.68158 0.57412 0.49458 0.0
C861 C 0.71931 0.58904 0.4413 0.0
C862 C 0.74136 0.59142 0.4497 0.0
C863 C 0.71168 0.60039 0.41886 0.0
C864 C 0.68831 0.59921 0.40954 0.0
C865 C 0.67042 0.60652 0.4242 0.0
C866 C 0.64842 0.605 0.41544 0.0
C867 C 0.64414 0.59641 0.39192 0.0
C868 C 0.66185 0.58941 0.37708 0.0
C869 C 0.68388 0.59084 0.38579 0.0
H870 H 0.6271 0.59524 0.38517 0.0
H871 H 0.84027 0.6119 0.47052 0.0
H872 H 0.11603 0.2735 0.10381 0.0
H873 H 0.09755 0.30824 0.08905 0.0
H874 H 0.15869 0.3427 0.0997 0.0
H875 H 0.17695 0.30825 0.11639 0.0
H876 H 0.12863 0.36959 0.11207 0.0
H877 H 0.13437 0.32842 0.03834 0.0
H878 H 0.13076 0.2971 1.01023 0.0
H879 H 0.05944 0.30106 0.01696 0.0
H880 H 0.06264 0.33225 0.04538 0.0
H881 H 0.09026 0.46593 0.03565 0.0
H882 H 0.10985 0.43123 0.05031 0.0
H883 H 0.04676 0.40033 0.0614 0.0
H884 H 0.02702 0.43514 0.04721 0.0
H885 H 0.07851 0.37249 0.03701 0.0
H886 H 0.07586 0.41725 0.11019 0.0
H887 H 0.08276 0.45099 0.13354 0.0
H888 H 0.15329 0.44195 0.12294 0.0
H889 H 0.14678 0.40851 0.09884 0.0
C890 C 0.1257 0.28838 0.10348 0.0
C891 C 0.14832 0.28745 0.11164 0.0
C892 C 0.11503 0.30847 0.09443 0.0
C893 C 0.12655 0.32855 0.09253 0.0
C894 C 0.14911 0.32774 0.10068 0.0
C895 C 0.15975 0.30768 0.11004 0.0
C896 C 0.11505 0.35025 0.08259 0.0
C897 C 0.11797 0.37009 0.09542 0.0
C898 C 0.10079 0.35155 0.06088 0.0
C899 C 0.09877 0.33251 0.04422 0.0
C900 C 0.11793 0.32247 0.03402 0.0
C901 C 0.11595 0.30478 0.01798 0.0
C902 C 0.09489 0.29706 1.01185 0.0
C903 C 0.07575 0.30703 0.02176 0.0
C904 C 0.07763 0.32473 0.03782 0.0
C905 C 0.08046 0.4518 0.04121 0.0
C906 C 0.05689 0.45362 0.04023 0.0
C907 C 0.09177 0.43186 0.04969 0.0
C908 C 0.07996 0.41289 0.05719 0.0
C909 C 0.05644 0.41454 0.0558 0.0
C910 C 0.0451 0.4346 0.04773 0.0
C911 C 0.09203 0.3915 0.0666 0.0
C912 C 0.08921 0.37182 0.05365 0.0
C913 C 0.10687 0.39051 0.08772 0.0
C914 C 0.1108 0.41048 0.10246 0.0
C915 C 0.09283 0.42257 0.1126 0.0
C916 C 0.09667 0.44166 0.12596 0.0
C917 C 0.11844 0.44867 0.12962 0.0
C918 C 0.13643 0.43654 0.12002 0.0
C919 C 0.13267 0.41754 0.10645 0.0
H920 H 0.12138 0.46346 0.13996 0.0
H921 H 0.09339 0.2834 0.99938 0.0
H922 H 0.63357 0.30619 0.87377 0.0
H923 H 0.61427 0.27258 0.88622 0.0
H924 H 0.65789 0.26297 0.95123 0.0
H925 H 0.67741 0.2968 0.93878 0.0
H926 H 0.65315 0.22478 0.9276 0.0
H927 H 0.60407 0.28088 0.958 0.0
H928 H 0.58114 0.31571 0.95647 0.0
H929 H 0.53997 0.29063 0.898 0.0
H930 H 0.56286 0.25576 0.89891 0.0
H931 H 0.58384 0.13891 0.97736 0.0
H932 H 0.60432 0.17327 0.9725 0.0
H933 H 0.57029 0.18856 0.9017 0.0
H934 H 0.5502 0.15396 0.90599 0.0
H935 H 0.5706 0.22432 0.93363 0.0
H936 H 0.62231 0.16937 0.90157 0.0
H937 H 0.64538 0.13462 0.90388 0.0
H938 H 0.68154 0.15784 0.9674 0.0
H939 H 0.65846 0.19263 0.96568 0.0
C940 C 0.63885 0.29714 0.89094 0.0
C941 C 0.65687 0.30427 0.90545 0.0
C942 C 0.62782 0.27791 0.89801 0.0
C943 C 0.63441 0.26547 0.91986 0.0
C944 C 0.6525 0.2724 0.93434 0.0
C945 C 0.66364 0.29167 0.9272 0.0
C946 C 0.6227 0.2449 0.92695 0.0
C947 C 0.63515 0.22473 0.92943 0.0
C948 C 0.59918 0.24482 0.92898 0.0
C949 C 0.5853 0.26576 0.9284 0.0
C950 C 0.59023 0.28285 0.94468 0.0
C951 C 0.57722 0.3026 0.94394 0.0
C952 C 0.55913 0.3054 0.92712 0.0
C953 C 0.55399 0.28844 0.91102 0.0
C954 C 0.56696 0.26867 0.91166 0.0
C955 C 0.58092 0.1494 0.96057 0.0
C956 C 0.5654 0.14363 0.94202 0.0
C957 C 0.59256 0.16908 0.95792 0.0
C958 C 0.58883 0.18336 0.93672 0.0
C959 C 0.57329 0.17777 0.91826 0.0
C960 C 0.56177 0.15803 0.92079 0.0
C961 C 0.60102 0.20426 0.93374 0.0
C962 C 0.58864 0.22446 0.93209 0.0
C963 C 0.62458 0.20436 0.93266 0.0
C964 C 0.63849 0.18348 0.93368 0.0
C965 C 0.63505 0.16698 0.91617 0.0
C966 C 0.64815 0.14729 0.91734 0.0
C967 C 0.66487 0.14399 0.93582 0.0
C968 C 0.66856 0.1604 0.95313 0.0
C969 C 0.65548 0.18011 0.95205 0.0
H970 H 0.675 0.12874 0.9367 0.0
H971 H 0.54908 0.3207 0.92658 0.0
H972 H 0.93214 0.81671 0.38794 0.0
H973 H 0.95542 0.84112 0.4116 0.0
H974 H 0.89679 0.87934 0.43221 0.0
H975 H 0.87355 0.85612 0.40687 0.0
H976 H 0.92521 0.90614 0.4175 0.0
H977 H 0.92885 0.84474 0.47565 0.0
H978 H 0.93405 0.80573 0.49117 0.0
H979 H 1.00263 0.80568 0.46902 0.0
H980 H 0.99777 0.84462 0.45303 0.0
H981 H 1.00204 0.95161 0.51638 0.0
H982 H 0.98347 0.91834 0.50283 0.0
H983 H 0.99608 0.93719 0.42552 0.0
H984 H 1.0138 0.97088 0.43891 0.0
H985 H 0.98837 0.8817 0.47459 0.0
H986 H 0.94831 0.93723 0.39308 0.0
H987 H 0.9404 0.97719 0.38325 0.0
H988 H 0.93808 0.98962 0.46198 0.0
H989 H 0.94554 0.9497 0.47225 0.0
C990 C 0.92416 0.83041 0.39731 0.0
C991 C 0.90094 0.83458 0.39515 0.0
C992 C 0.9375 0.84412 0.41129 0.0
C993 C 0.92788 0.86197 0.42395 0.0
C994 C 0.90462 0.86567 0.42262 0.0
C995 C 0.8913 0.85221 0.40827 0.0
C996 C 0.94223 0.87796 0.43654 0.0
C997 C 0.93889 0.90069 0.4301 0.0
C998 C 0.95986 0.87104 0.45344 0.0
C999 C 0.96288 0.84757 0.46294 0.0
C1000 C 0.94499 0.83637 0.47389 0.0
C1001 C 0.94789 0.81427 0.48282 0.0
C1002 C 0.96864 0.80322 0.48104 0.0
C1003 C 0.98656 0.81426 0.47037 0.0
C1004 C 0.98375 0.83636 0.4614 0.0
C1005 C 1.00146 0.94825 0.49652 0.0
C1006 C 1.00886 0.96395 0.47853 0.0
C1007 C 0.9909 0.92923 0.48886 0.0
C1008 C 0.98792 0.92568 0.46318 0.0
C1009 C 0.99784 0.93994 0.44542 0.0
C1010 C 1.00798 0.95914 0.45302 0.0
C1011 C 0.97162 0.90948 0.45476 0.0
C1012 C 0.97457 0.88691 0.46206 0.0
C1013 C 0.95301 0.91656 0.43946 0.0
C1014 C 0.94769 0.9405 0.43341 0.0
C1015 C 0.94595 0.94847 0.40828 0.0
C1016 C 0.94157 0.97111 0.40264 0.0
C1017 C 0.93881 0.98594 0.42198 0.0
C1018 C 0.94027 0.97813 0.44701 0.0
C1019 C 0.94457 0.9555 0.45275 0.0
H1020 H 0.9355 1.00348 0.41757 0.0
H1021 H 0.97085 0.78611 0.48796 0.0
H1022 H 0.39027 0.64142 0.724 0.0
H1023 H 0.40544 0.61749 0.69213 0.0
H1024 H 0.45074 0.66857 0.66943 0.0
H1025 H 0.43448 0.69323 0.69973 0.0
H1026 H 0.43337 0.65338 0.63002 0.0
H1027 H 0.46731 0.61888 0.70446 0.0
H1028 H 0.46855 0.60132 0.7471 0.0
H1029 H 0.42785 0.54881 0.72204 0.0
H1030 H 0.42612 0.56621 0.6793 0.0
H1031 H 0.51348 0.58637 0.56662 0.0
H1032 H 0.49425 0.60877 0.59751 0.0
H1033 H 0.43887 0.56478 0.59648 0.0
H1034 H 0.45781 0.54247 0.56505 0.0
H1035 H 0.459 0.57484 0.64668 0.0
H1036 H 0.42795 0.61007 0.57064 0.0
H1037 H 0.42979 0.6279 0.5283 0.0
H1038 H 0.46911 0.67975 0.5575 0.0
H1039 H 0.46779 0.66202 0.59998 0.0
C1040 C 0.40339 0.64766 0.71217 0.0
C1041 C 0.41105 0.66938 0.71452 0.0
C1042 C 0.41227 0.63379 0.69413 0.0
C1043 C 0.4294 0.64111 0.67845 0.0
C1044 C 0.43752 0.66251 0.68126 0.0
C1045 C 0.42839 0.67652 0.69895 0.0
C1046 C 0.43826 0.62696 0.65838 0.0
C1047 C 0.4392 0.63629 0.63382 0.0
C1048 C 0.4454 0.60446 0.66307 0.0
C1049 C 0.44638 0.59398 0.68875 0.0
C1050 C 0.45847 0.60368 0.70809 0.0
C1051 C 0.45929 0.59374 0.73227 0.0
C1052 C 0.44823 0.574 0.73729 0.0
C1053 C 0.43637 0.56412 0.71813 0.0
C1054 C 0.43548 0.57401 0.69392 0.0
C1055 C 0.49712 0.58157 0.5728 0.0
C1056 C 0.48711 0.56272 0.56344 0.0
C1057 C 0.48617 0.59438 0.5904 0.0
C1058 C 0.46521 0.58836 0.5992 0.0
C1059 C 0.45507 0.56962 0.58983 0.0
C1060 C 0.46583 0.55703 0.57182 0.0
C1061 C 0.4543 0.60144 0.61872 0.0
C1062 C 0.453 0.5919 0.64306 0.0
C1063 C 0.44721 0.62385 0.61397 0.0
C1064 C 0.44794 0.63459 0.58846 0.0
C1065 C 0.43716 0.62516 0.568 0.0
C1066 C 0.43807 0.63527 0.54398 0.0
C1067 C 0.4496 0.65492 0.5402 0.0
C1068 C 0.4602 0.66452 0.56045 0.0
C1069 C 0.45936 0.65445 0.58451 0.0
H1070 H 0.45029 0.66273 0.52159 0.0
H1071 H 0.44889 0.56633 0.75602 0.0
H1072 H 0.93704 0.90602 0.76993 0.0
H1073 H 0.95566 0.92216 0.73384 0.0
H1074 H 0.89283 0.92887 0.69335 0.0
H1075 H 0.8743 0.91067 0.72851 0.0
H1076 H 0.92054 0.9193 0.66105 0.0
H1077 H 0.9237 0.97475 0.72255 0.0
H1078 H 0.93179 0.99046 0.76364 0.0
H1079 H 1.00158 0.97421 0.75578 0.0
H1080 H 0.99386 0.95815 0.71476 0.0
H1081 H 0.96032 0.99943 0.56889 0.0
H1082 H 0.94134 0.98243 0.60499 0.0
H1083 H 1.00465 0.95737 0.63553 0.0
H1084 H 0.02369 0.97391 0.59922 0.0
H1085 H 0.97665 0.97705 0.67223 0.0
H1086 H 0.9715 0.92257 0.60867 0.0
H1087 H 0.96173 0.90978 0.56662 0.0
H1088 H 0.89284 0.92805 0.57784 0.0
H1089 H 0.90227 0.94129 0.61983 0.0
C1090 C 0.92697 0.91045 0.75335 0.0
C1091 C 0.90377 0.90671 0.75285 0.0
C1092 C 0.93778 0.92029 0.73258 0.0
C1093 C 0.92585 0.92753 0.71056 0.0
C1094 C 0.90274 0.92374 0.70987 0.0
C1095 C 0.89197 0.91348 0.73047 0.0
C1096 C 0.93738 0.93869 0.68831 0.0
C1097 C 0.93252 0.93216 0.6637 0.0
C1098 C 0.95345 0.95541 0.69107 0.0
C1099 C 0.95817 0.96505 0.71571 0.0
C1100 C 0.94075 0.97439 0.72967 0.0
C1101 C 0.94527 0.98338 0.75293 0.0
C1102 C 0.96717 0.98327 0.76235 0.0
C1103 C 0.98461 0.97424 0.74848 0.0
C1104 C 0.98018 0.96522 0.72522 0.0
C1105 C 0.97028 0.99035 0.58327 0.0
C1106 C 0.99367 0.98814 0.58089 0.0
C1107 C 0.95933 0.98052 0.60397 0.0
C1108 C 0.97141 0.96842 0.62322 0.0
C1109 C 0.9948 0.96655 0.62112 0.0
C1110 C 1.00571 0.97601 0.60019 0.0
C1111 C 0.95972 0.95761 0.64532 0.0
C1112 C 0.96459 0.96422 0.66979 0.0
C1113 C 0.94335 0.94133 0.6424 0.0
C1114 C 0.93762 0.93313 0.6173 0.0
C1115 C 0.95429 0.92402 0.6021 0.0
C1116 C 0.94881 0.91667 0.57828 0.0
C1117 C 0.92669 0.91815 0.56954 0.0
C1118 C 0.90998 0.92694 0.58462 0.0
C1119 C 0.91538 0.93436 0.60844 0.0
H1120 H 0.92248 0.91246 0.55109 0.0
H1121 H 0.97064 0.99023 0.78037 0.0
H1122 H 0.66008 0.16323 0.18832 0.0
H1123 H 0.64451 0.13862 0.15803 0.0
H1124 H 0.59237 0.1878 0.13869 0.0
H1125 H 0.60702 0.21204 0.1704 0.0
H1126 H 0.57507 0.14913 0.14216 0.0
H1127 H 0.63782 0.17718 0.09937 0.0
H1128 H 0.67704 0.187 0.09324 0.0
H1129 H 0.69777 0.11816 0.10327 0.0
H1130 H 0.65869 0.10794 0.10982 0.0
H1131 H 0.54216 0.09228 0.03314 0.0
H1132 H 0.55891 0.12063 0.05841 0.0
H1133 H 0.60148 0.07023 0.09616 0.0
H1134 H 0.58456 0.0416 0.07123 0.0
H1135 H 0.62297 0.1115 0.08051 0.0
H1136 H 0.55782 0.08505 0.12378 0.0
H1137 H 0.51782 0.07722 0.127 0.0
H1138 H 0.50089 0.14658 0.11303 0.0
H1139 H 0.54072 0.1547 0.10884 0.0
C1140 C 0.64511 0.16879 0.17793 0.0
C1141 C 0.63474 0.18964 0.18202 0.0
C1142 C 0.63643 0.15478 0.16024 0.0
C1143 C 0.61748 0.16147 0.14569 0.0
C1144 C 0.60709 0.18231 0.14959 0.0
C1145 C 0.61562 0.19625 0.16758 0.0
C1146 C 0.60817 0.14632 0.12709 0.0
C1147 C 0.5855 0.14125 0.1284 0.0
C1148 C 0.62178 0.13577 0.10924 0.0
C1149 C 0.64533 0.14182 0.10529 0.0
C1150 C 0.65076 0.16415 0.10046 0.0
C1151 C 0.67296 0.16979 0.09687 0.0
C1152 C 0.68989 0.15322 0.09792 0.0
C1153 C 0.68464 0.13098 0.10249 0.0
C1154 C 0.66246 0.12525 0.10611 0.0
C1155 C 0.55523 0.08721 0.04665 0.0
C1156 C 0.56195 0.06467 0.05034 0.0
C1157 C 0.56474 0.10344 0.06108 0.0
C1158 C 0.58127 0.09745 0.07922 0.0
C1159 C 0.5887 0.07512 0.08223 0.0
C1160 C 0.57897 0.05881 0.06806 0.0
C1161 C 0.59009 0.1143 0.09589 0.0
C1162 C 0.61262 0.11962 0.09418 0.0
C1163 C 0.57627 0.12539 0.11302 0.0
C1164 C 0.55228 0.12044 0.11563 0.0
C1165 C 0.54556 0.09858 0.12103 0.0
C1166 C 0.52289 0.09409 0.12303 0.0
C1167 C 0.50679 0.11135 0.12003 0.0
C1168 C 0.51333 0.13317 0.11513 0.0
C1169 C 0.53595 0.13772 0.1129 0.0
H1170 H 0.48925 0.10784 0.12164 0.0
H1171 H 0.70707 0.15762 0.09514 0.0
H1172 H 0.39152 0.55822 0.28251 0.0
H1173 H 0.41224 0.55161 0.32226 0.0
H1174 H 0.44139 0.61608 0.31302 0.0
H1175 H 0.42121 0.62242 0.27304 0.0
H1176 H 0.47209 0.58719 0.3281 0.0
H1177 H 0.39824 0.60562 0.35495 0.0
H1178 H 0.35734 0.60283 0.35699 0.0
H1179 H 0.36513 0.53527 0.38577 0.0
H1180 H 0.40609 0.53755 0.38358 0.0
H1181 H 0.51396 0.5878 0.4549 0.0
H1182 H 0.49145 0.598 0.41696 0.0
H1183 H 0.46914 0.53063 0.41453 0.0
H1184 H 0.49168 0.52032 0.45202 0.0
H1185 H 0.43465 0.56321 0.40654 0.0
H1186 H 0.50892 0.54522 0.37739 0.0
H1187 H 0.54974 0.54906 0.37597 0.0
H1188 H 0.54054 0.6179 0.35236 0.0
H1189 H 0.49964 0.61453 0.35399 0.0
C1190 C 0.40232 0.57095 0.28906 0.0
C1191 C 0.40484 0.59078 0.27473 0.0
C1192 C 0.41407 0.56723 0.31179 0.0
C1193 C 0.42815 0.5835 0.32082 0.0
C1194 C 0.43068 0.60328 0.30644 0.0
C1195 C 0.41918 0.60687 0.2836 0.0
C1196 C 0.44058 0.57978 0.34501 0.0
C1197 C 0.46381 0.58231 0.34532 0.0
C1198 C 0.42987 0.57311 0.36745 0.0
C1199 C 0.40524 0.5717 0.36888 0.0
C1200 C 0.39123 0.59012 0.36154 0.0
C1201 C 0.36803 0.58863 0.36275 0.0
C1202 C 0.35864 0.56887 0.37144 0.0
C1203 C 0.37243 0.55056 0.37901 0.0
C1204 C 0.39564 0.55194 0.37781 0.0
C1205 C 0.50416 0.57525 0.44628 0.0
C1206 C 0.50458 0.55329 0.45627 0.0
C1207 C 0.49137 0.58106 0.42467 0.0
C1208 C 0.47874 0.56501 0.41297 0.0
C1209 C 0.47874 0.54323 0.42334 0.0
C1210 C 0.49167 0.53738 0.44469 0.0
C1211 C 0.46601 0.57055 0.38945 0.0
C1212 C 0.44279 0.56831 0.3893 0.0
C1213 C 0.47667 0.5777 0.36722 0.0
C1214 C 0.50124 0.57969 0.36609 0.0
C1215 C 0.51561 0.56122 0.37211 0.0
C1216 C 0.53875 0.5633 0.37122 0.0
C1217 C 0.54773 0.58373 0.36415 0.0
C1218 C 0.53357 0.6021 0.35787 0.0
C1219 C 0.5104 0.60011 0.35876 0.0
H1220 H 0.56565 0.58531 0.36348 0.0
H1221 H 0.34068 0.56776 0.37237 0.0
H1222 H 0.18249 0.2862 0.85544 0.0
H1223 H 0.18126 0.31458 0.88754 0.0
H1224 H 0.14642 0.36031 0.83502 0.0
H1225 H 0.14734 0.3323 0.80323 0.0
H1226 H 0.18952 0.37439 0.85908 0.0
H1227 H 0.11725 0.34135 0.87591 0.0
H1228 H 0.09325 0.3106 0.88901 0.0
H1229 H 0.12847 0.30351 0.95983 0.0
H1230 H 0.15295 0.334 0.94696 0.0
H1231 H 0.13942 0.46986 0.90536 0.0
H1232 H 0.15356 0.43613 0.88647 0.0
H1233 H 0.16141 0.40379 0.96007 0.0
H1234 H 0.14619 0.43747 0.97892 0.0
H1235 H 0.14002 0.37839 0.93253 0.0
H1236 H 0.20756 0.41524 0.92029 0.0
H1237 H 0.23247 0.44569 0.90878 0.0
H1238 H 0.20954 0.44478 0.83209 0.0
H1239 H 0.18424 0.41455 0.84318 0.0
C1240 C 0.1742 0.30218 0.85101 0.0
C1241 C 0.16486 0.307 0.82693 0.0
C1242 C 0.17355 0.3183 0.86927 0.0
C1243 C 0.16386 0.33946 0.86345 0.0
C1244 C 0.15396 0.34403 0.83975 0.0
C1245 C 0.1543 0.32792 0.82173 0.0
C1246 C 0.16502 0.35758 0.88121 0.0
C1247 C 0.17878 0.37537 0.87522 0.0
C1248 C 0.15172 0.35821 0.90278 0.0
C1249 C 0.1372 0.33968 0.91029 0.0
C1250 C 0.12011 0.33302 0.89412 0.0
C1251 C 0.10635 0.31569 0.90155 0.0
C1252 C 0.1094 0.30504 0.9252 0.0
C1253 C 0.12618 0.31173 0.94149 0.0
C1254 C 0.14 0.32902 0.93413 0.0
C1255 C 0.14486 0.4558 0.91753 0.0
C1256 C 0.1418 0.4562 0.94353 0.0
C1257 C 0.15302 0.43648 0.90675 0.0
C1258 C 0.15881 0.41738 0.92183 0.0
C1259 C 0.15706 0.41828 0.94803 0.0
C1260 C 0.14849 0.4375 0.95879 0.0
C1261 C 0.16391 0.39593 0.90991 0.0
C1262 C 0.15136 0.37738 0.91693 0.0
C1263 C 0.17864 0.39447 0.88948 0.0
C1264 C 0.19392 0.41263 0.88262 0.0
C1265 C 0.20772 0.42161 0.901 0.0
C1266 C 0.22193 0.43883 0.89454 0.0
C1267 C 0.22257 0.44717 0.86972 0.0
C1268 C 0.20904 0.43829 0.8513 0.0
C1269 C 0.19479 0.42107 0.85766 0.0
H1270 H 0.23358 0.46051 0.86477 0.0
H1271 H 0.0987 0.29167 0.93094 0.0
H1272 H 0.76194 0.92827 0.93337 0.0
H1273 H 0.72757 0.94599 0.94853 0.0
H1274 H 0.68842 0.90142 0.90602 0.0
H1275 H 0.72272 0.88369 0.89067 0.0
H1276 H 0.67082 0.94381 0.90075 0.0
H1277 H 0.69476 0.8954 0.97095 0.0
H1278 H 0.72126 0.88041 1.00374 0.0
H1279 H 0.72462 0.94508 0.0347 0.0
H1280 H 0.69835 0.96052 1.00187 0.0
H1281 H 0.56442 0.96912 0.94978 0.0
H1282 H 0.59931 0.95091 0.9375 0.0
H1283 H 0.63528 0.98739 0.99228 0.0
H1284 H 0.59982 1.00469 1.00568 0.0
H1285 H 0.65559 0.95016 0.9914 0.0
H1286 H 0.63333 0.99958 0.92273 0.0
H1287 H 0.60835 0.0167 0.88962 0.0
H1288 H 0.60392 0.95365 0.85509 0.0
H1289 H 0.62866 0.93609 0.88818 0.0
C1290 C 0.74607 0.92219 0.92709 0.0
C1291 C 0.74548 0.90432 0.91066 0.0
C1292 C 0.72625 0.93232 0.93603 0.0
C1293 C 0.705 0.92512 0.92877 0.0
C1294 C 0.70436 0.90745 0.91216 0.0
C1295 C 0.72417 0.89713 0.90347 0.0
C1296 C 0.68355 0.93607 0.93811 0.0
C1297 C 0.66743 0.94489 0.9206 0.0
C1298 C 0.67906 0.93843 0.96401 0.0
C1299 C 0.69476 0.92916 0.9838 0.0
C1300 C 0.70128 0.90646 0.98463 0.0
C1301 C 0.71624 0.89787 1.00325 0.0
C1302 C 0.72467 0.9118 0.02125 0.0
C1303 C 0.7181 0.93432 0.02072 0.0
C1304 C 0.70317 0.94299 1.00213 0.0
C1305 C 0.57972 0.97324 0.95937 0.0
C1306 C 0.57909 0.98858 0.97869 0.0
C1307 C 0.59994 0.96292 0.95206 0.0
C1308 C 0.62061 0.96805 0.96315 0.0
C1309 C 0.61992 0.983 0.98302 0.0
C1310 C 0.59951 0.993 0.99075 0.0
C1311 C 0.64261 0.95785 0.95401 0.0
C1312 C 0.6589 0.94918 0.97152 0.0
C1313 C 0.64748 0.95598 0.92805 0.0
C1314 C 0.63268 0.96649 0.90807 0.0
C1315 C 0.62692 0.98934 0.90816 0.0
C1316 C 0.61281 0.99912 0.88939 0.0
C1317 C 0.60451 0.98626 0.8703 0.0
C1318 C 0.61034 0.96359 0.86991 0.0
C1319 C 0.62442 0.95371 0.88865 0.0
H1320 H 0.59359 0.99386 0.85579 0.0
H1321 H 0.73625 0.90512 0.03565 0.0
H1322 H 0.80074 0.24081 0.34142 0.0
H1323 H 0.83427 0.22335 0.36141 0.0
H1324 H 0.84022 0.17861 0.30034 0.0
H1325 H 0.8065 0.19583 0.28049 0.0
H1326 H 0.84023 0.15633 0.34359 0.0
H1327 H 0.87903 0.21913 0.31085 0.0
H1328 H 0.88599 0.25893 0.30275 0.0
H1329 H 0.89214 0.26814 0.38201 0.0
H1330 H 0.8849 0.22844 0.39062 0.0
H1331 H 0.93531 0.09889 0.39187 0.0
H1332 H 0.91374 0.12467 0.36351 0.0
H1333 H 0.90115 0.16791 0.42475 0.0
H1334 H 0.92287 0.14221 0.45322 0.0
H1335 H 0.90676 0.19153 0.37931 0.0
H1336 H 0.86422 0.13054 0.41199 0.0
H1337 H 0.85683 0.09094 0.421 0.0
H1338 H 0.85682 0.07902 0.34208 0.0
H1339 H 0.86458 0.1185 0.33263 0.0
C1340 C 0.80955 0.22764 0.33196 0.0
C1341 C 0.80097 0.21954 0.30952 0.0
C1342 C 0.82874 0.2177 0.34337 0.0
C1343 C 0.83981 0.19971 0.33233 0.0
C1344 C 0.8319 0.19242 0.30922 0.0
C1345 C 0.81264 0.20222 0.29793 0.0
C1346 C 0.85791 0.18683 0.34622 0.0
C1347 C 0.85501 0.16399 0.35088 0.0
C1348 C 0.87682 0.19695 0.35649 0.0
C1349 C 0.88124 0.22083 0.35138 0.0
C1350 C 0.88169 0.22967 0.32656 0.0
C1351 C 0.88572 0.25221 0.32188 0.0
C1352 C 0.88946 0.26606 0.34185 0.0
C1353 C 0.88923 0.25739 0.36656 0.0
C1354 C 0.88519 0.23486 0.37135 0.0
C1355 C 0.92819 0.11405 0.39919 0.0
C1356 C 0.93044 0.11841 0.4248 0.0
C1357 C 0.91598 0.12878 0.38298 0.0
C1358 C 0.90557 0.14798 0.39216 0.0
C1359 C 0.90907 0.15317 0.41733 0.0
C1360 C 0.92144 0.13848 0.43356 0.0
C1361 C 0.88905 0.16115 0.37632 0.0
C1362 C 0.89212 0.18395 0.37157 0.0
C1363 C 0.87015 0.1511 0.366 0.0
C1364 C 0.86522 0.12741 0.37163 0.0
C1365 C 0.86281 0.11943 0.39657 0.0
C1366 C 0.85854 0.09702 0.40176 0.0
C1367 C 0.85642 0.08246 0.38213 0.0
C1368 C 0.85851 0.09031 0.35727 0.0
C1369 C 0.86284 0.1127 0.35199 0.0
H1370 H 0.85311 0.06511 0.38618 0.0
H1371 H 0.89258 0.28351 0.33818 0.0
H1372 H 0.23705 0.60896 0.08953 0.0
H1373 H 0.19991 0.59831 0.076 0.0
H1374 H 0.20374 0.54169 0.12836 0.0
H1375 H 0.24129 0.55186 0.14149 0.0
H1376 H 0.18509 0.53135 0.08315 0.0
H1377 H 0.17552 0.58808 0.14348 0.0
H1378 H 0.18134 0.62465 0.16143 0.0
H1379 H 0.15289 0.65744 0.09479 0.0
H1380 H 0.1472 0.62104 0.07627 0.0
H1381 H 0.06873 0.51181 0.08958 0.0
H1382 H 0.10724 0.52057 0.10045 0.0
H1383 H 0.10422 0.57562 0.04593 0.0
H1384 H 0.06571 0.56684 0.03486 0.0
H1385 H 0.12252 0.5865 0.09183 0.0
H1386 H 0.13145 0.53033 0.03159 0.0
H1387 H 0.12661 0.49413 0.01255 0.0
H1388 H 0.15637 0.46045 0.07779 0.0
H1389 H 0.16106 0.49646 0.09761 0.0
C1390 C 0.23019 0.59401 0.09786 0.0
C1391 C 0.24208 0.5813 0.11668 0.0
C1392 C 0.20887 0.58806 0.09027 0.0
C1393 C 0.19896 0.5694 0.10146 0.0
C1394 C 0.21107 0.55622 0.11959 0.0
C1395 C 0.23242 0.56215 0.12721 0.0
C1396 C 0.17566 0.56415 0.09487 0.0
C1397 C 0.17135 0.54326 0.08536 0.0
C1398 C 0.15785 0.57994 0.09725 0.0
C1399 C 0.16114 0.60184 0.10839 0.0
C1400 C 0.17067 0.60309 0.13257 0.0
C1401 C 0.17392 0.62378 0.14286 0.0
C1402 C 0.16754 0.64335 0.12923 0.0
C1403 C 0.15785 0.64226 0.10531 0.0
C1404 C 0.15459 0.62161 0.09491 0.0
C1405 C 0.07624 0.52589 0.08007 0.0
C1406 C 0.06431 0.53872 0.06144 0.0
C1407 C 0.09825 0.53076 0.08616 0.0
C1408 C 0.10859 0.54861 0.07382 0.0
C1409 C 0.09651 0.56175 0.05561 0.0
C1410 C 0.07457 0.55675 0.04933 0.0
C1411 C 0.13195 0.55371 0.08011 0.0
C1412 C 0.13626 0.57456 0.08962 0.0
C1413 C 0.14972 0.53789 0.07771 0.0
C1414 C 0.14637 0.51612 0.06622 0.0
C1415 C 0.13667 0.51521 0.04208 0.0
C1416 C 0.13396 0.49471 0.03113 0.0
C1417 C 0.14098 0.475 0.04403 0.0
C1418 C 0.15076 0.47573 0.06794 0.0
C1419 C 0.15348 0.49618 0.07903 0.0
H1420 H 0.13898 0.45917 0.03542 0.0
H1421 H 0.17007 0.65936 0.13723 0.0
H1422 H 0.29595 0.32888 0.66132 0.0
H1423 H 0.32042 0.35644 0.64208 0.0
H1424 H 0.26287 0.39813 0.62025 0.0
H1425 H 0.23834 0.37073 0.63967 0.0
H1426 H 0.29512 0.39065 0.58132 0.0
H1427 H 0.29084 0.41398 0.66649 0.0
H1428 H 0.29322 0.40853 0.71256 0.0
H1429 H 0.36241 0.38845 0.70793 0.0
H1430 H 0.36035 0.39344 0.66177 0.0
H1431 H 0.36039 0.47999 0.53816 0.0
H1432 H 0.33177 0.45949 0.56089 0.0
H1433 H 0.38338 0.42042 0.60134 0.0
H1434 H 0.41186 0.44122 0.57927 0.0
H1435 H 0.3512 0.42934 0.63171 0.0
H1436 H 0.35597 0.40162 0.5484 0.0
H1437 H 0.35507 0.40436 0.50209 0.0
H1438 H 0.28714 0.42935 0.50269 0.0
H1439 H 0.28774 0.42704 0.54905 0.0
C1440 C 0.28858 0.3439 0.65234 0.0
C1441 C 0.26535 0.34779 0.65198 0.0
C1442 C 0.30251 0.35962 0.64151 0.0
C1443 C 0.29336 0.3793 0.62996 0.0
C1444 C 0.27016 0.38305 0.62919 0.0
C1445 C 0.25624 0.36749 0.64033 0.0
C1446 C 0.3081 0.39584 0.61844 0.0
C1447 C 0.30714 0.39945 0.59231 0.0
C1448 C 0.32406 0.40679 0.63287 0.0
C1449 C 0.32538 0.4039 0.66064 0.0
C1450 C 0.30651 0.40821 0.67527 0.0
C1451 C 0.30782 0.40524 0.70141 0.0
C1452 C 0.32794 0.3981 0.71316 0.0
C1453 C 0.34683 0.39396 0.6988 0.0
C1454 C 0.3456 0.39688 0.67265 0.0
C1455 C 0.36552 0.46716 0.5521 0.0
C1456 C 0.38826 0.46213 0.55698 0.0
C1457 C 0.34922 0.45544 0.565 0.0
C1458 C 0.35546 0.43817 0.58251 0.0
C1459 C 0.37818 0.43369 0.58796 0.0
C1460 C 0.39443 0.4456 0.57536 0.0
C1461 C 0.33851 0.42401 0.59441 0.0
C1462 C 0.33904 0.42079 0.62066 0.0
C1463 C 0.32241 0.41309 0.58003 0.0
C1464 C 0.32198 0.41441 0.55217 0.0
C1465 C 0.34089 0.40786 0.53865 0.0
C1466 C 0.34043 0.40931 0.5124 0.0
C1467 C 0.32108 0.41709 0.49946 0.0
C1468 C 0.30213 0.42337 0.51274 0.0
C1469 C 0.30252 0.42199 0.539 0.0
H1470 H 0.32076 0.4182 0.47913 0.0
H1471 H 0.32892 0.39581 0.73341 0.0
H1472 H 0.91003 0.76025 0.94787 0.0
H1473 H 0.92887 0.72606 0.96459 0.0
H1474 H 0.91162 0.69291 0.89713 0.0
H1475 H 0.89185 0.72672 0.88074 0.0
H1476 H 0.90768 0.66419 0.93426 0.0
H1477 H 0.96643 0.71294 0.91093 0.0
H1478 H 0.98742 0.74756 0.91084 0.0
H1479 H 0.99841 0.73924 0.99054 0.0
H1480 H 0.97725 0.7047 0.99114 0.0
H1481 H 1.01963 0.5946 0.96521 0.0
H1482 H 1.00002 0.62896 0.94958 0.0
H1483 H 0.94414 0.61366 0.99638 0.0
H1484 H 0.96351 0.57928 1.01169 0.0
H1485 H 0.98516 0.6662 0.96803 0.0
H1486 H 0.89559 0.63412 0.97065 0.0
H1487 H 0.87675 0.59832 0.96862 0.0
H1488 H 0.9301 0.572 0.92459 0.0
H1489 H 0.9491 0.60772 0.92608 0.0
C1490 C 0.9099 0.7457 0.93656 0.0
C1491 C 0.89925 0.74677 0.91265 0.0
C1492 C 0.92106 0.72602 0.94613 0.0
C1493 C 0.92225 0.70657 0.93215 0.0
C1494 C 0.91127 0.70744 0.90851 0.0
C1495 C 0.90006 0.7271 0.89895 0.0
C1496 C 0.93496 0.68553 0.94193 0.0
C1497 C 0.9246 0.66479 0.94168 0.0
C1498 C 0.95729 0.68567 0.95144 0.0
C1499 C 0.97008 0.70636 0.95111 0.0
C1500 C 0.97321 0.71858 0.92846 0.0
C1501 C 0.98515 0.73817 0.92831 0.0
C1502 C 0.99419 0.74562 0.95068 0.0
C1503 C 0.99136 0.73346 0.97323 0.0
C1504 C 0.97942 0.71387 0.97348 0.0
C1505 C 1.00316 0.59849 0.97225 0.0
C1506 C 0.99319 0.58369 0.98963 0.0
C1507 C 0.9919 0.61832 0.96327 0.0
C1508 C 0.97021 0.62411 0.97127 0.0
C1509 C 0.96052 0.60965 0.98919 0.0
C1510 C 0.97173 0.5898 0.99807 0.0
C1511 C 0.95775 0.64499 0.96074 0.0
C1512 C 0.96819 0.66566 0.96076 0.0
C1513 C 0.93563 0.64472 0.95068 0.0
C1514 C 0.92383 0.62354 0.94866 0.0
C1515 C 0.9032 0.62075 0.96037 0.0
C1516 C 0.89252 0.60046 0.95935 0.0
C1517 C 0.90225 0.58288 0.94655 0.0
C1518 C 0.9226 0.58561 0.93456 0.0
C1519 C 0.93333 0.60587 0.93548 0.0
H1520 H 0.89402 0.56715 0.94591 0.0
H1521 H 1.00342 0.7608 0.95053 0.0
H1522 H 0.40258 0.71739 0.0916 0.0
H1523 H 0.42235 0.75124 0.08054 0.0
H1524 H 0.38099 0.78821 0.13088 0.0
H1525 H 0.36067 0.75458 0.14144 0.0
H1526 H 0.38813 0.81213 0.08785 0.0
H1527 H 0.43242 0.76915 0.14948 0.0
H1528 H 0.4526 0.73558 0.16717 0.0
H1529 H 0.4959 0.73578 0.10374 0.0
H1530 H 0.47575 0.76919 0.08548 0.0
H1531 H 0.45789 0.90382 0.10572 0.0
H1532 H 0.43518 0.87099 0.11132 0.0
H1533 H 0.47838 0.83492 0.06204 0.0
H1534 H 0.50148 0.86754 0.05684 0.0
H1535 H 0.47006 0.8105 0.10344 0.0
H1536 H 0.42026 0.84755 0.03819 0.0
H1537 H 0.39818 0.87932 0.01874 0.0
H1538 H 0.36645 0.89026 0.08907 0.0
H1539 H 0.38786 0.85811 0.10865 0.0
C1540 C 0.39737 0.73283 0.0999 0.0
C1541 C 0.38017 0.7333 0.11752 0.0
C1542 C 0.40883 0.75209 0.09376 0.0
C1543 C 0.40339 0.77211 0.10525 0.0
C1544 C 0.38554 0.77288 0.12194 0.0
C1545 C 0.37406 0.75364 0.12807 0.0
C1546 C 0.41683 0.79205 0.10065 0.0
C1547 C 0.40601 0.81182 0.0915 0.0
C1548 C 0.44021 0.79155 0.10499 0.0
C1549 C 0.45242 0.77153 0.11599 0.0
C1550 C 0.44613 0.76193 0.13921 0.0
C1551 C 0.45758 0.74295 0.14935 0.0
C1552 C 0.47548 0.73352 0.13655 0.0
C1553 C 0.48201 0.74309 0.11361 0.0
C1554 C 0.47058 0.76205 0.10336 0.0
C1555 C 0.46264 0.88883 0.09624 0.0
C1556 C 0.48146 0.88825 0.08083 0.0
C1557 C 0.44944 0.8702 0.09913 0.0
C1558 C 0.45482 0.85065 0.08667 0.0
C1559 C 0.47382 0.8499 0.07163 0.0
C1560 C 0.48697 0.86855 0.06865 0.0
C1561 C 0.44139 0.83056 0.0905 0.0
C1562 C 0.4522 0.81076 0.09965 0.0
C1563 C 0.41803 0.831 0.0862 0.0
C1564 C 0.40584 0.85075 0.0749 0.0
C1565 C 0.40867 0.85687 0.04949 0.0
C1566 C 0.39619 0.87482 0.03842 0.0
C1567 C 0.38111 0.88695 0.05272 0.0
C1568 C 0.37823 0.88094 0.07804 0.0
C1569 C 0.3904 0.86277 0.08908 0.0
H1570 H 0.37157 0.90092 0.04415 0.0
H1571 H 0.48433 0.71883 0.14444 0.0
H1572 H 0.14156 0.1874 0.61649 0.0
H1573 H 0.11654 0.16671 0.5905 0.0
H1574 H 0.06507 0.21792 0.59672 0.0
H1575 H 0.09038 0.23926 0.62229 0.0
H1576 H 0.05027 0.17712 0.6093 0.0
H1577 H 0.08554 0.21001 0.54011 0.0
H1578 H 0.11594 0.22387 0.51376 0.0
H1579 H 0.14283 0.15722 0.50839 0.0
H1580 H 0.11285 0.14296 0.53507 0.0
H1581 H 0.02777 0.08515 0.50978 0.0
H1582 H 0.03234 0.12417 0.51959 0.0
H1583 H 0.05304 0.10386 0.59523 0.0
H1584 H 0.04849 0.06489 0.58554 0.0
H1585 H 0.07166 0.14032 0.53115 0.0
H1586 H 0.04096 0.14322 0.6352 0.0
H1587 H 1.00877 0.13068 0.65957 0.0
H1588 H 0.96927 0.12885 0.5918 0.0
H1589 H 1.00108 0.14172 0.56702 0.0
C1590 C 0.12517 0.19465 0.6118 0.0
C1591 C 0.11799 0.21499 0.62156 0.0
C1592 C 0.11086 0.18277 0.59691 0.0
C1593 C 0.08904 0.19091 0.59148 0.0
C1594 C 0.08189 0.21143 0.60064 0.0
C1595 C 0.09631 0.22347 0.61542 0.0
C1596 C 0.07328 0.17653 0.57867 0.0
C1597 C 0.05469 0.16928 0.592 0.0
C1598 C 0.0786 0.16698 0.55561 0.0
C1599 C 0.0969 0.17542 0.53969 0.0
C1600 C 0.09802 0.19831 0.53349 0.0
C1601 C 0.11518 0.20624 0.51846 0.0
C1602 C 0.13131 0.19144 0.50941 0.0
C1603 C 0.13031 0.16867 0.51538 0.0
C1604 C 0.11321 0.16065 0.53044 0.0
C1605 C 0.03287 0.08907 0.52864 0.0
C1606 C 0.03811 0.07206 0.54686 0.0
C1607 C 0.03541 0.11135 0.5342 0.0
C1608 C 0.04292 0.1169 0.55813 0.0
C1609 C 0.04687 0.09996 0.57675 0.0
C1610 C 0.04446 0.0777 0.57116 0.0
C1611 C 0.04984 0.13975 0.56288 0.0
C1612 C 0.06677 0.14861 0.54801 0.0
C1613 C 0.04277 0.15098 0.58431 0.0
C1614 C 0.02349 0.1434 0.59921 0.0
C1615 C 0.02537 0.14032 0.62548 0.0
C1616 C 1.00719 0.1331 0.63938 0.0
C1617 C 0.987 0.12895 0.62724 0.0
C1618 C 0.98493 0.13202 0.60117 0.0
C1619 C 1.00305 0.13925 0.58719 0.0
H1620 H 0.97295 0.12335 0.63803 0.0
H1621 H 0.14457 0.19761 0.49776 0.0
H1622 H 0.60738 0.34503 0.32498 0.0
H1623 H 0.59216 0.37452 0.35069 0.0
H1624 H 0.65482 0.37593 0.39151 0.0
H1625 H 0.67021 0.34658 0.36579 0.0
H1626 H 0.62019 0.37567 0.42296 0.0
H1627 H 0.64022 0.41707 0.34874 0.0
H1628 H 0.64125 0.42628 0.30329 0.0
H1629 H 0.56995 0.43619 0.30101 0.0
H1630 H 0.56844 0.42673 0.34641 0.0
H1631 H 0.5904 0.47525 0.48557 0.0
H1632 H 0.61008 0.44891 0.45905 0.0
H1633 H 0.54944 0.44087 0.41611 0.0
H1634 H 0.52971 0.46708 0.44233 0.0
H1635 H 0.58568 0.44588 0.38604 0.0
H1636 H 0.56571 0.40282 0.45991 0.0
H1637 H 0.5647 0.39348 0.50533 0.0
H1638 H 0.63625 0.38655 0.50819 0.0
H1639 H 0.63772 0.39633 0.46284 0.0
C1640 C 0.61801 0.3518 0.33922 0.0
C1641 C 0.63999 0.34344 0.34336 0.0
C1642 C 0.60928 0.36863 0.35393 0.0
C1643 C 0.62242 0.37753 0.3729 0.0
C1644 C 0.64437 0.36925 0.37703 0.0
C1645 C 0.6531 0.35243 0.36236 0.0
C1646 C 0.61309 0.39515 0.38878 0.0
C1647 C 0.61298 0.39119 0.41492 0.0
C1648 C 0.60337 0.41523 0.37825 0.0
C1649 C 0.6042 0.42099 0.35095 0.0
C1650 C 0.62474 0.42104 0.33852 0.0
C1651 C 0.62541 0.42634 0.31276 0.0
C1652 C 0.60567 0.43176 0.29926 0.0
C1653 C 0.58522 0.43196 0.31149 0.0
C1654 C 0.58445 0.42665 0.33724 0.0
C1655 C 0.58129 0.46794 0.47041 0.0
C1656 C 0.55847 0.47319 0.46612 0.0
C1657 C 0.59254 0.45286 0.45534 0.0
C1658 C 0.58116 0.44286 0.43573 0.0
C1659 C 0.55852 0.44842 0.43113 0.0
C1660 C 0.54726 0.46334 0.44624 0.0
C1661 C 0.59258 0.42627 0.42014 0.0
C1662 C 0.59308 0.43044 0.39406 0.0
C1663 C 0.60269 0.4064 0.43074 0.0
C1664 C 0.60184 0.40058 0.45803 0.0
C1665 C 0.58125 0.39954 0.47027 0.0
C1666 C 0.58059 0.39414 0.496 0.0
C1667 C 0.6004 0.38948 0.50965 0.0
C1668 C 0.62091 0.39019 0.49759 0.0
C1669 C 0.62167 0.39569 0.47188 0.0
H1670 H 0.59985 0.38527 0.52956 0.0
H1671 H 0.60623 0.43586 0.27932 0.0
loop_
_geom_bond_atom_site_label_1
_geom_bond_atom_site_label_2
_geom_bond_distance
_geom_bond_site_symmetry_2
_ccdc_geom_bond_type
C0 C1 1.386 . S
C0 C2 1.397 . S
C0 H24 0.931 . S
C1 C0 1.386 . S
C1 C5 1.397 . S
C2 C0 1.397 . S
C2 C3 1.384 . S
C2 H25 0.930 . S
C3 C2 1.384 . S
C3 C4 1.377 . S
C3 C6 1.481 . S
C4 C3 1.377 . S
C4 C5 1.389 . S
C4 H26 0.929 . S
C5 C1 1.397 . S
C5 C4 1.389 . S
C5 H27 0.931 . S
C6 C3 1.481 . S
C6 C7 1.387 . S
C6 C11 1.390 . S
C7 C6 1.387 . S
C7 C8 1.401 . S
C7 H28 0.930 . S
C8 C7 1.401 . S
C8 C9 1.376 . S
C8 C17 1.511 . S
C9 C8 1.376 . S
C9 C10 1.392 . S
C9 H30 0.931 . S
C10 C9 1.392 . S
C10 C11 1.361 . S
C10 C12 1.500 . S
C11 C6 1.390 . S
C11 C10 1.361 . S
C11 H29 0.931 . S
C12 C10 1.500 . S
C12 C13 1.371 . S
C12 C14 1.365 . S
C13 C12 1.371 . S
C13 C23 1.386 . S
C13 H31 0.931 . S
C14 C12 1.365 . S
C14 C15 1.409 . S
C14 H32 0.929 . S
C15 C14 1.409 . S
C15 C16 1.380 . S
C15 H33 0.930 . S
C16 C15 1.380 . S
C16 C23 1.357 . S
C17 C8 1.511 . S
C17 C18 1.341 . S
C17 C19 1.371 . S
C18 C17 1.341 . S
C18 C22 1.394 . S
C18 H34 0.930 . S
C19 C17 1.371 . S
C19 C20 1.392 . S
C19 H35 0.931 . S
C20 C19 1.392 . S
C20 C21 1.331 . S
C20 H38 0.932 . S
C21 C20 1.331 . S
C21 C22 1.336 . S
C22 C18 1.394 . S
C22 C21 1.336 . S
C22 H37 0.929 . S
C23 C13 1.386 . S
C23 C16 1.357 . S
C23 H36 0.928 . S
H24 C0 0.931 . S
H25 C2 0.930 . S
H26 C4 0.929 . S
H27 C5 0.931 . S
H28 C7 0.930 . S
H29 C11 0.931 . S
H30 C9 0.931 . S
H31 C13 0.931 . S
H32 C14 0.929 . S
H33 C15 0.930 . S
H34 C18 0.930 . S
H35 C19 0.931 . S
H36 C23 0.928 . S
H37 C22 0.929 . S
H38 C20 0.932 . S
C39 C40 1.386 . S
C39 C41 1.397 . S
C39 H63 0.931 . S
C40 C39 1.386 . S
C40 C44 1.397 . S
C41 C39 1.397 . S
C41 C42 1.384 . S
C41 H64 0.930 . S
C42 C41 1.384 . S
C42 C43 1.377 . S
C42 C45 1.481 . S
C43 C42 1.377 . S
C43 C44 1.389 . S
C43 H65 0.929 . S
C44 C40 1.397 . S
C44 C43 1.389 . S
C44 H66 0.931 . S
C45 C42 1.481 . S
C45 C46 1.387 . S
C45 C50 1.390 . S
C46 C45 1.387 . S
C46 C47 1.401 . S
C46 H67 0.930 . S
C47 C46 1.401 . S
C47 C48 1.376 . S
C47 C56 1.511 . S
C48 C47 1.376 . S
C48 C49 1.392 . S
C48 H69 0.931 . S
C49 C48 1.392 . S
C49 C50 1.361 . S
C49 C51 1.500 . S
C50 C45 1.390 . S
C50 C49 1.361 . S
C50 H68 0.931 . S
C51 C49 1.500 . S
C51 C52 1.371 . S
C51 C53 1.365 . S
C52 C51 1.371 . S
C52 C62 1.386 . S
C52 H70 0.931 . S
C53 C51 1.365 . S
C53 C54 1.409 . S
C53 H71 0.929 . S
C54 C53 1.409 . S
C54 C55 1.380 . S
C54 H72 0.930 . S
C55 C54 1.380 . S
C55 C62 1.357 . S
C56 C47 1.511 . S
C56 C57 1.341 . S
C56 C58 1.371 . S
C57 C56 1.341 . S
C57 C61 1.394 . S
C57 H73 0.930 . S
C58 C56 1.371 . S
C58 C59 1.392 . S
C58 H74 0.931 . S
C59 C58 1.392 . S
C59 C60 1.331 . S
C59 H77 0.932 . S
C60 C59 1.331 . S
C60 C61 1.336 . S
C61 C57 1.394 . S
C61 C60 1.336 . S
C61 H76 0.929 . S
C62 C52 1.386 . S
C62 C55 1.357 . S
C62 H75 0.928 . S
H63 C39 0.931 . S
H64 C41 0.930 . S
H65 C43 0.929 . S
H66 C44 0.931 . S
H67 C46 0.930 . S
H68 C50 0.931 . S
H69 C48 0.931 . S
H70 C52 0.931 . S
H71 C53 0.929 . S
H72 C54 0.930 . S
H73 C57 0.930 . S
H74 C58 0.931 . S
H75 C62 0.928 . S
H76 C61 0.929 . S
H77 C59 0.932 . S
C78 C79 1.386 . S
C78 C80 1.397 . S
C78 H102 0.931 . S
C79 C78 1.386 . S
C79 C83 1.397 . S
C80 C78 1.397 . S
C80 C81 1.384 . S
C80 H103 0.930 . S
C81 C80 1.384 . S
C81 C82 1.377 . S
C81 C84 1.481 . S
C82 C81 1.377 . S
C82 C83 1.389 . S
C82 H104 0.929 . S
C83 C79 1.397 . S
C83 C82 1.389 . S
C83 H105 0.931 . S
C84 C81 1.481 . S
C84 C85 1.387 . S
C84 C89 1.390 . S
C85 C84 1.387 . S
C85 C86 1.401 . S
C85 H106 0.930 . S
C86 C85 1.401 . S
C86 C87 1.376 . S
C86 C95 1.511 . S
C87 C86 1.376 . S
C87 C88 1.392 . S
C87 H108 0.931 . S
C88 C87 1.392 . S
C88 C89 1.361 . S
C88 C90 1.500 . S
C89 C84 1.390 . S
C89 C88 1.361 . S
C89 H107 0.931 . S
C90 C88 1.500 . S
C90 C91 1.371 . S
C90 C92 1.365 . S
C91 C90 1.371 . S
C91 C101 1.386 . S
C91 H109 0.931 . S
C92 C90 1.365 . S
C92 C93 1.409 . S
C92 H110 0.929 . S
C93 C92 1.409 . S
C93 C94 1.380 . S
C93 H111 0.930 . S
C94 C93 1.380 . S
C94 C101 1.357 . S
C95 C86 1.511 . S
C95 C96 1.341 . S
C95 C97 1.371 . S
C96 C95 1.341 . S
C96 C100 1.394 . S
C96 H112 0.930 . S
C97 C95 1.371 . S
C97 C98 1.392 . S
C97 H113 0.931 . S
C98 C97 1.392 . S
C98 C99 1.331 . S
C98 H116 0.932 . S
C99 C98 1.331 . S
C99 C100 1.336 . S
C100 C96 1.394 . S
C100 C99 1.336 . S
C100 H115 0.929 . S
C101 C91 1.386 . S
C101 C94 1.357 . S
C101 H114 0.928 . S
H102 C78 0.931 . S
H103 C80 0.930 . S
H104 C82 0.929 . S
H105 C83 0.931 . S
H106 C85 0.930 . S
H107 C89 0.931 . S
H108 C87 0.931 . S
H109 C91 0.931 . S
H110 C92 0.929 . S
H111 C93 0.930 . S
H112 C96 0.930 . S
H113 C97 0.931 . S
H114 C101 0.928 . S
H115 C100 0.929 . S
H116 C98 0.932 . S
C117 C118 1.386 . S
C117 C119 1.397 . S
C117 H141 0.931 . S
C118 C117 1.386 . S
C118 C122 1.397 . S
C119 C117 1.397 . S
C119 C120 1.384 . S
C119 H142 0.930 . S
C120 C119 1.384 . S
C120 C121 1.377 . S
C120 C123 1.481 . S
C121 C120 1.377 . S
C121 C122 1.389 . S
C121 H143 0.929 . S
C122 C118 1.397 . S
C122 C121 1.389 . S
C122 H144 0.931 . S
C123 C120 1.481 . S
C123 C124 1.387 . S
C123 C128 1.390 . S
C124 C123 1.387 . S
C124 C125 1.401 . S
C124 H145 0.930 . S
C125 C124 1.401 . S
C125 C126 1.376 . S
C125 C134 1.511 . S
C126 C125 1.376 . S
C126 C127 1.392 . S
C126 H147 0.931 . S
C127 C126 1.392 . S
C127 C128 1.361 . S
C127 C129 1.500 . S
C128 C123 1.390 . S
C128 C127 1.361 . S
C128 H146 0.931 . S
C129 C127 1.500 . S
C129 C130 1.371 . S
C129 C131 1.365 . S
C130 C129 1.371 . S
C130 C140 1.386 . S
C130 H148 0.931 . S
C131 C129 1.365 . S
C131 C132 1.409 . S
C131 H149 0.929 . S
C132 C131 1.409 . S
C132 C133 1.380 . S
C132 H150 0.930 . S
C133 C132 1.380 . S
C133 C140 1.357 . S
C134 C125 1.511 . S
C134 C135 1.341 . S
C134 C136 1.371 . S
C135 C134 1.341 . S
C135 C139 1.394 . S
C135 H151 0.930 . S
C136 C134 1.371 . S
C136 C137 1.392 . S
C136 H152 0.931 . S
C137 C136 1.392 . S
C137 C138 1.331 . S
C137 H155 0.932 . S
C138 C137 1.331 . S
C138 C139 1.336 . S
C139 C135 1.394 . S
C139 C138 1.336 . S
C139 H154 0.929 . S
C140 C130 1.386 . S
C140 C133 1.357 . S
C140 H153 0.928 . S
H141 C117 0.931 . S
H142 C119 0.930 . S
H143 C121 0.929 . S
H144 C122 0.931 . S
H145 C124 0.930 . S
H146 C128 0.931 . S
H147 C126 0.931 . S
H148 C130 0.931 . S
H149 C131 0.929 . S
H150 C132 0.930 . S
H151 C135 0.930 . S
H152 C136 0.931 . S
H153 C140 0.928 . S
H154 C139 0.929 . S
H155 C137 0.932 . S
C156 C157 1.386 . S
C156 C158 1.397 . S
C156 H180 0.931 . S
C157 C156 1.386 . S
C157 C161 1.397 . S
C158 C156 1.397 . S
C158 C159 1.384 . S
C158 H181 0.930 . S
C159 C158 1.384 . S
C159 C160 1.377 . S
C159 C162 1.481 . S
C160 C159 1.377 . S
C160 C161 1.389 . S
C160 H182 0.929 . S
C161 C157 1.397 . S
C161 C160 1.389 . S
C161 H183 0.931 . S
C162 C159 1.481 . S
C162 C163 1.387 . S
C162 C167 1.390 . S
C163 C162 1.387 . S
C163 C164 1.401 . S
C163 H184 0.930 . S
C164 C163 1.401 . S
C164 C165 1.376 . S
C164 C173 1.511 . S
C165 C164 1.376 . S
C165 C166 1.392 . S
C165 H186 0.931 . S
C166 C165 1.392 . S
C166 C167 1.361 . S
C166 C168 1.500 . S
C167 C162 1.390 . S
C167 C166 1.361 . S
C167 H185 0.931 . S
C168 C166 1.500 . S
C168 C169 1.371 . S
C168 C170 1.365 . S
C169 C168 1.371 . S
C169 C179 1.386 . S
C169 H187 0.931 . S
C170 C168 1.365 . S
C170 C171 1.409 . S
C170 H188 0.929 . S
C171 C170 1.409 . S
C171 C172 1.380 . S
C171 H189 0.930 . S
C172 C171 1.380 . S
C172 C179 1.357 . S
C173 C164 1.511 . S
C173 C174 1.341 . S
C173 C175 1.371 . S
C174 C173 1.341 . S
C174 C178 1.394 . S
C174 H190 0.930 . S
C175 C173 1.371 . S
C175 C176 1.392 . S
C175 H191 0.931 . S
C176 C175 1.392 . S
C176 C177 1.331 . S
C176 H194 0.932 . S
C177 C176 1.331 . S
C177 C178 1.336 . S
C178 C174 1.394 . S
C178 C177 1.336 . S
C178 H193 0.929 . S
C179 C169 1.386 . S
C179 C172 1.357 . S
C179 H192 0.928 . S
H180 C156 0.931 . S
H181 C158 0.930 . S
H182 C160 0.929 . S
H183 C161 0.931 . S
H184 C163 0.930 . S
H185 C167 0.931 . S
H186 C165 0.931 . S
H187 C169 0.931 . S
H188 C170 0.929 . S
H189 C171 0.930 . S
H190 C174 0.930 . S
H191 C175 0.931 . S
H192 C179 0.928 . S
H193 C178 0.929 . S
H194 C176 0.932 . S
C195 C196 1.386 . S
C195 C197 1.397 . S
C195 H219 0.931 . S
C196 C195 1.386 . S
C196 C200 1.397 . S
C197 C195 1.397 . S
C197 C198 1.384 . S
C197 H220 0.930 . S
C198 C197 1.384 . S
C198 C199 1.377 . S
C198 C201 1.481 . S
C199 C198 1.377 . S
C199 C200 1.389 . S
C199 H221 0.929 . S
C200 C196 1.397 . S
C200 C199 1.389 . S
C200 H222 0.931 . S
C201 C198 1.481 . S
C201 C202 1.387 . S
C201 C206 1.390 . S
C202 C201 1.387 . S
C202 C203 1.401 . S
C202 H223 0.930 . S
C203 C202 1.401 . S
C203 C204 1.376 . S
C203 C212 1.511 . S
C204 C203 1.376 . S
C204 C205 1.392 . S
C204 H225 0.931 . S
C205 C204 1.392 . S
C205 C206 1.361 . S
C205 C207 1.500 . S
C206 C201 1.390 . S
C206 C205 1.361 . S
C206 H224 0.931 . S
C207 C205 1.500 . S
C207 C208 1.371 . S
C207 C209 1.365 . S
C208 C207 1.371 . S
C208 C218 1.386 . S
C208 H226 0.931 . S
C209 C207 1.365 . S
C209 C210 1.409 . S
C209 H227 0.929 . S
C210 C209 1.409 . S
C210 C211 1.380 . S
C210 H228 0.930 . S
C211 C210 1.380 . S
C211 C218 1.357 . S
C212 C203 1.511 . S
C212 C213 1.341 . S
C212 C214 1.371 . S
C213 C212 1.341 . S
C213 C217 1.394 . S
C213 H229 0.930 . S
C214 C212 1.371 . S
C214 C215 1.392 . S
C214 H230 0.931 . S
C215 C214 1.392 . S
C215 C216 1.331 . S
C215 H233 0.932 . S
C216 C215 1.331 . S
C216 C217 1.336 . S
C217 C213 1.394 . S
C217 C216 1.336 . S
C217 H232 0.929 . S
C218 C208 1.386 . S
C218 C211 1.357 . S
C218 H231 0.928 . S
H219 C195 0.931 . S
H220 C197 0.930 . S
H221 C199 0.929 . S
H222 C200 0.931 . S
H223 C202 0.930 . S
H224 C206 0.931 . S
H225 C204 0.931 . S
H226 C208 0.931 . S
H227 C209 0.929 . S
H228 C210 0.930 . S
H229 C213 0.930 . S
H230 C214 0.931 . S
H231 C218 0.928 . S
H232 C217 0.929 . S
H233 C215 0.932 . S
C234 C235 1.386 . S
C234 C236 1.397 . S
C234 H258 0.931 . S
C235 C234 1.386 . S
C235 C239 1.397 . S
C236 C234 1.397 . S
C236 C237 1.384 . S
C236 H259 0.930 . S
C237 C236 1.384 . S
C237 C238 1.377 . S
C237 C240 1.481 . S
C238 C237 1.377 . S
C238 C239 1.389 . S
C238 H260 0.929 . S
C239 C235 1.397 . S
C239 C238 1.389 . S
C239 H261 0.931 . S
C240 C237 1.481 . S
C240 C241 1.387 . S
C240 C245 1.390 . S
C241 C240 1.387 . S
C241 C242 1.401 . S
C241 H262 0.930 . S
C242 C241 1.401 . S
C242 C243 1.376 . S
C242 C251 1.511 . S
C243 C242 1.376 . S
C243 C244 1.392 . S
C243 H264 0.931 . S
C244 C243 1.392 . S
C244 C245 1.361 . S
C244 C246 1.500 . S
C245 C240 1.390 . S
C245 C244 1.361 . S
C245 H263 0.931 . S
C246 C244 1.500 . S
C246 C247 1.371 . S
C246 C248 1.365 . S
C247 C246 1.371 . S
C247 C257 1.386 . S
C247 H265 0.931 . S
C248 C246 1.365 . S
C248 C249 1.409 . S
C248 H266 0.929 . S
C249 C248 1.409 . S
C249 C250 1.380 . S
C249 H267 0.930 . S
C250 C249 1.380 . S
C250 C257 1.357 . S
C251 C242 1.511 . S
C251 C252 1.341 . S
C251 C253 1.371 . S
C252 C251 1.341 . S
C252 C256 1.394 . S
C252 H268 0.930 . S
C253 C251 1.371 . S
C253 C254 1.392 . S
C253 H269 0.931 . S
C254 C253 1.392 . S
C254 C255 1.331 . S
C254 H272 0.932 . S
C255 C254 1.331 . S
C255 C256 1.336 . S
C256 C252 1.394 . S
C256 C255 1.336 . S
C256 H271 0.929 . S
C257 C247 1.386 . S
C257 C250 1.357 . S
C257 H270 0.928 . S
H258 C234 0.931 . S
H259 C236 0.930 . S
H260 C238 0.929 . S
H261 C239 0.931 . S
H262 C241 0.930 . S
H263 C245 0.931 . S
H264 C243 0.931 . S
H265 C247 0.931 . S
H266 C248 0.929 . S
H267 C249 0.930 . S
H268 C252 0.930 . S
H269 C253 0.931 . S
H270 C257 0.928 . S
H271 C256 0.929 . S
H272 C254 0.932 . S
C273 C274 1.386 . S
C273 C275 1.397 . S
C273 H297 0.931 . S
C274 C273 1.386 . S
C274 C278 1.397 . S
C275 C273 1.397 . S
C275 C276 1.384 . S
C275 H298 0.930 . S
C276 C275 1.384 . S
C276 C277 1.377 . S
C276 C279 1.481 . S
C277 C276 1.377 . S
C277 C278 1.389 . S
C277 H299 0.929 . S
C278 C274 1.397 . S
C278 C277 1.389 . S
C278 H300 0.931 . S
C279 C276 1.481 . S
C279 C280 1.387 . S
C279 C284 1.390 . S
C280 C279 1.387 . S
C280 C281 1.401 . S
C280 H301 0.930 . S
C281 C280 1.401 . S
C281 C282 1.376 . S
C281 C290 1.511 . S
C282 C281 1.376 . S
C282 C283 1.392 . S
C282 H303 0.931 . S
C283 C282 1.392 . S
C283 C284 1.361 . S
C283 C285 1.500 . S
C284 C279 1.390 . S
C284 C283 1.361 . S
C284 H302 0.931 . S
C285 C283 1.500 . S
C285 C286 1.371 . S
C285 C287 1.365 . S
C286 C285 1.371 . S
C286 C296 1.386 . S
C286 H304 0.931 . S
C287 C285 1.365 . S
C287 C288 1.409 . S
C287 H305 0.929 . S
C288 C287 1.409 . S
C288 C289 1.380 . S
C288 H306 0.930 . S
C289 C288 1.380 . S
C289 C296 1.357 . S
C290 C281 1.511 . S
C290 C291 1.341 . S
C290 C292 1.371 . S
C291 C290 1.341 . S
C291 C295 1.394 . S
C291 H307 0.930 . S
C292 C290 1.371 . S
C292 C293 1.392 . S
C292 H308 0.931 . S
C293 C292 1.392 . S
C293 C294 1.331 . S
C293 H311 0.932 . S
C294 C293 1.331 . S
C294 C295 1.336 . S
C295 C291 1.394 . S
C295 C294 1.336 . S
C295 H310 0.929 . S
C296 C286 1.386 . S
C296 C289 1.357 . S
C296 H309 0.928 . S
H297 C273 0.931 . S
H298 C275 0.930 . S
H299 C277 0.929 . S
H300 C278 0.931 . S
H301 C280 0.930 . S
H302 C284 0.931 . S
H303 C282 0.931 . S
H304 C286 0.931 . S
H305 C287 0.929 . S
H306 C288 0.930 . S
H307 C291 0.930 . S
H308 C292 0.931 . S
H309 C296 0.928 . S
H310 C295 0.929 . S
H311 C293 0.932 . S
Nd312 C314 2.836 . S
Nd312 O332 2.500 . S
Nd312 O333 2.492 . S
Nd312 O334 2.487 1_565 S
Nd312 O335 2.682 1_565 S
Nd312 O336 2.410 . S
Nd312 O341 2.414 1_455 S
Nd312 O343 2.424 1_565 S
Nd313 C323 2.836 . S
Nd313 O335 2.414 1_655 S
Nd313 O337 2.424 1_545 S
Nd313 O338 2.500 . S
Nd313 O339 2.492 . S
Nd313 O340 2.487 1_545 S
Nd313 O341 2.682 1_545 S
Nd313 O342 2.410 . S
C314 Nd312 2.836 . S
C314 C315 1.498 . S
C314 O332 1.258 . S
C314 O333 1.239 . S
C315 C314 1.498 . S
C315 C316 1.366 . S
C315 C320 1.407 . S
C316 C315 1.366 . S
C316 C317 1.392 . S
C316 H344 0.930 . S
C317 C316 1.392 . S
C317 C318 1.398 . S
C317 H345 0.929 . S
C318 C317 1.398 . S
C318 C319 1.352 . S
C319 C318 1.352 . S
C319 C320 1.384 . S
C319 H346 0.930 . S
C320 C315 1.407 . S
C320 C319 1.384 . S
C320 H347 0.929 . S
C321 O334 1.241 . S
C321 O335 1.273 . S
C322 O336 1.251 1_655 S
C322 O337 1.268 . S
C323 Nd313 2.836 . S
C323 C324 1.498 . S
C323 O338 1.258 . S
C323 O339 1.239 . S
C324 C323 1.498 . S
C324 C325 1.366 . S
C324 C329 1.407 . S
C325 C324 1.366 . S
C325 C326 1.392 . S
C325 H348 0.930 . S
C326 C325 1.392 . S
C326 C327 1.398 . S
C326 H349 0.929 . S
C327 C326 1.398 . S
C327 C328 1.352 . S
C328 C327 1.352 . S
C328 C329 1.384 . S
C328 H350 0.930 . S
C329 C324 1.407 . S
C329 C328 1.384 . S
C329 H351 0.929 . S
C330 O340 1.241 . S
C330 O341 1.273 . S
C331 O342 1.251 1_455 S
C331 O343 1.268 . S
O332 Nd312 2.500 . S
O332 C314 1.258 . S
O333 Nd312 2.492 . S
O333 C314 1.239 . S
O334 Nd312 2.487 1_545 S
O334 C321 1.241 . S
O335 Nd312 2.682 1_545 S
O335 Nd313 2.414 1_455 S
O335 C321 1.273 . S
O336 Nd312 2.410 . S
O336 C322 1.251 1_455 S
O337 Nd313 2.424 1_565 S
O337 C322 1.268 . S
O338 Nd313 2.500 . S
O338 C323 1.258 . S
O339 Nd313 2.492 . S
O339 C323 1.239 . S
O340 Nd313 2.487 1_565 S
O340 C330 1.241 . S
O341 Nd312 2.414 1_655 S
O341 Nd313 2.682 1_565 S
O341 C330 1.273 . S
O342 Nd313 2.410 . S
O342 C331 1.251 1_655 S
O343 Nd312 2.424 1_545 S
O343 C331 1.268 . S
H344 C316 0.930 . S
H345 C317 0.929 . S
H346 C319 0.930 . S
H347 C320 0.929 . S
H348 C325 0.930 . S
H349 C326 0.929 . S
H350 C328 0.930 . S
H351 C329 0.929 . S
Nd352 C354 2.836 . S
Nd352 O372 2.500 . S
Nd352 O373 2.492 . S
Nd352 O374 2.487 1_565 S
Nd352 O375 2.682 1_565 S
Nd352 O376 2.410 1_554 S
Nd352 O381 2.414 1_554 S
Nd352 O383 2.424 1_565 S
Nd353 C363 2.836 . S
Nd353 O375 2.414 1_556 S
Nd353 O377 2.424 1_545 S
Nd353 O378 2.500 . S
Nd353 O379 2.492 . S
Nd353 O380 2.458 1_545 S
Nd353 O381 2.682 1_545 S
Nd353 O382 2.410 1_556 S
C354 Nd352 2.836 . S
C354 C355 1.498 . S
C354 O372 1.258 . S
C354 O373 1.239 . S
C355 C354 1.498 . S
C355 C356 1.366 . S
C355 C360 1.407 . S
C356 C355 1.366 . S
C356 C357 1.392 . S
C356 H384 0.930 . S
C357 C356 1.392 . S
C357 C358 1.398 . S
C357 H385 0.929 . S
C358 C357 1.398 . S
C358 C359 1.352 . S
C359 C358 1.352 . S
C359 C360 1.384 . S
C359 H386 0.930 . S
C360 C355 1.407 . S
C360 C359 1.384 . S
C360 H387 0.929 . S
C361 O374 1.241 . S
C361 O375 1.273 . S
C362 O376 1.251 . S
C362 O377 1.268 . S
C363 Nd353 2.836 . S
C363 C364 1.498 . S
C363 O378 1.258 . S
C363 O379 1.239 . S
C364 C363 1.498 . S
C364 C365 1.366 . S
C364 C369 1.407 . S
C365 C364 1.366 . S
C365 C366 1.392 . S
C365 H388 0.930 . S
C366 C365 1.392 . S
C366 C367 1.398 . S
C366 H389 0.929 . S
C367 C366 1.398 . S
C367 C368 1.352 . S
C368 C367 1.352 . S
C368 C369 1.384 . S
C368 H390 0.930 . S
C369 C364 1.407 . S
C369 C368 1.384 . S
C369 H391 0.929 . S
C370 O380 1.281 . S
C370 O381 1.273 . S
C371 O382 1.251 . S
C371 O383 1.268 . S
O372 Nd352 2.500 . S
O372 C354 1.258 . S
O373 Nd352 2.492 . S
O373 C354 1.239 . S
O374 Nd352 2.487 1_545 S
O374 C361 1.241 . S
O375 Nd352 2.682 1_545 S
O375 Nd353 2.414 1_554 S
O375 C361 1.273 . S
O376 Nd352 2.410 1_556 S
O376 C362 1.251 . S
O377 Nd353 2.424 1_565 S
O377 C362 1.268 . S
O378 Nd353 2.500 . S
O378 C363 1.258 . S
O379 Nd353 2.492 . S
O379 C363 1.239 . S
O380 Nd353 2.458 1_565 S
O380 C370 1.281 . S
O381 Nd352 2.414 1_556 S
O381 Nd353 2.682 1_565 S
O381 C370 1.273 . S
O382 Nd353 2.410 1_554 S
O382 C371 1.251 . S
O383 Nd352 2.424 1_545 S
O383 C371 1.268 . S
H384 C356 0.930 . S
H385 C357 0.929 . S
H386 C359 0.930 . S
H387 C360 0.929 . S
H388 C365 0.930 . S
H389 C366 0.929 . S
H390 C368 0.930 . S
H391 C369 0.929 . S
Nd392 C394 2.836 . S
Nd392 O412 2.500 . S
Nd392 O413 2.492 . S
Nd392 O414 2.487 . S
Nd392 O415 2.682 . S
Nd392 O416 2.410 . S
Nd392 O421 2.414 . S
Nd392 O423 2.424 . S
Nd393 C403 2.836 . S
Nd393 O415 2.414 . S
Nd393 O417 2.424 . S
Nd393 O418 2.500 . S
Nd393 O419 2.492 . S
Nd393 O420 2.487 . S
Nd393 O421 2.682 . S
Nd393 O422 2.410 . S
C394 Nd392 2.836 . S
C394 C395 1.498 . S
C394 O412 1.258 . S
C394 O413 1.239 . S
C395 C394 1.498 . S
C395 C396 1.366 . S
C395 C400 1.407 . S
C396 C395 1.366 . S
C396 C397 1.392 . S
C396 H424 0.930 . S
C397 C396 1.392 . S
C397 C398 1.398 . S
C397 H425 0.929 . S
C398 C397 1.398 . S
C398 C399 1.352 . S
C399 C398 1.352 . S
C399 C400 1.384 . S
C399 H426 0.930 . S
C400 C395 1.407 . S
C400 C399 1.384 . S
C400 H427 0.929 . S
C401 O414 1.241 . S
C401 O415 1.273 . S
C402 O416 1.251 . S
C402 O417 1.268 . S
C403 Nd393 2.836 . S
C403 C404 1.498 . S
C403 O418 1.258 . S
C403 O419 1.239 . S
C404 C403 1.498 . S
C404 C405 1.366 . S
C404 C409 1.407 . S
C405 C404 1.366 . S
C405 C406 1.392 . S
C405 H428 0.930 . S
C406 C405 1.392 . S
C406 C407 1.398 . S
C406 H429 0.929 . S
C407 C406 1.398 . S
C407 C408 1.352 . S
C408 C407 1.352 . S
C408 C409 1.384 . S
C408 H430 0.930 . S
C409 C404 1.407 . S
C409 C408 1.384 . S
C409 H431 0.929 . S
C410 O420 1.241 . S
C410 O421 1.273 . S
C411 O422 1.251 . S
C411 O423 1.268 . S
O412 Nd392 2.500 . S
O412 C394 1.258 . S
O413 Nd392 2.492 . S
O413 C394 1.239 . S
O414 Nd392 2.487 . S
O414 C401 1.241 . S
O415 Nd392 2.682 . S
O415 Nd393 2.414 . S
O415 C401 1.273 . S
O416 Nd392 2.410 . S
O416 C402 1.251 . S
O417 Nd393 2.424 . S
O417 C402 1.268 . S
O418 Nd393 2.500 . S
O418 C403 1.258 . S
O419 Nd393 2.492 . S
O419 C403 1.239 . S
O420 Nd393 2.487 . S
O420 C410 1.241 . S
O421 Nd392 2.414 . S
O421 Nd393 2.682 . S
O421 C410 1.273 . S
O422 Nd393 2.410 . S
O422 C411 1.251 . S
O423 Nd392 2.424 . S
O423 C411 1.268 . S
H424 C396 0.930 . S
H425 C397 0.929 . S
H426 C399 0.930 . S
H427 C400 0.929 . S
H428 C405 0.930 . S
H429 C406 0.929 . S
H430 C408 0.930 . S
H431 C409 0.929 . S
Nd432 C434 2.836 . S
Nd432 O452 2.500 . S
Nd432 O453 2.492 . S
Nd432 O454 2.487 1_655 S
Nd432 O455 2.682 1_655 S
Nd432 O456 2.410 . S
Nd432 O461 2.414 1_554 S
Nd432 O463 2.424 1_655 S
Nd433 C443 2.836 . S
Nd433 O455 2.414 1_556 S
Nd433 O457 2.424 1_455 S
Nd433 O458 2.500 . S
Nd433 O459 2.492 . S
Nd433 O460 2.487 1_455 S
Nd433 O461 2.682 1_455 S
Nd433 O462 2.410 . S
C434 Nd432 2.836 . S
C434 C435 1.498 . S
C434 O452 1.258 . S
C434 O453 1.239 . S
C435 C434 1.498 . S
C435 C436 1.366 . S
C435 C440 1.407 . S
C436 C435 1.366 . S
C436 C437 1.392 . S
C436 H464 0.930 . S
C437 C436 1.392 . S
C437 C438 1.398 . S
C437 H465 0.929 . S
C438 C437 1.398 . S
C438 C439 1.352 . S
C439 C438 1.352 . S
C439 C440 1.384 . S
C439 H466 0.930 . S
C440 C435 1.407 . S
C440 C439 1.384 . S
C440 H467 0.929 . S
C441 O454 1.241 . S
C441 O455 1.273 . S
C442 O456 1.251 1_556 S
C442 O457 1.268 . S
C443 Nd433 2.836 . S
C443 C444 1.498 . S
C443 O458 1.258 . S
C443 O459 1.239 . S
C444 C443 1.498 . S
C444 C445 1.366 . S
C444 C449 1.407 . S
C445 C444 1.366 . S
C445 C446 1.392 . S
C445 H468 0.930 . S
C446 C445 1.392 . S
C446 C447 1.398 . S
C446 H469 0.929 . S
C447 C446 1.398 . S
C447 C448 1.352 . S
C448 C447 1.352 . S
C448 C449 1.384 . S
C448 H470 0.930 . S
C449 C444 1.407 . S
C449 C448 1.384 . S
C449 H471 0.929 . S
C450 O460 1.241 . S
C450 O461 1.273 . S
C451 O462 1.251 1_554 S
C451 O463 1.268 . S
O452 Nd432 2.500 . S
O452 C434 1.258 . S
O453 Nd432 2.492 . S
O453 C434 1.239 . S
O454 Nd432 2.487 1_455 S
O454 C441 1.241 . S
O455 Nd432 2.682 1_455 S
O455 Nd433 2.414 1_554 S
O455 C441 1.273 . S
O456 Nd432 2.410 . S
O456 C442 1.251 1_554 S
O457 Nd433 2.424 1_655 S
O457 C442 1.268 . S
O458 Nd433 2.500 . S
O458 C443 1.258 . S
O459 Nd433 2.492 . S
O459 C443 1.239 . S
O460 Nd433 2.487 1_655 S
O460 C450 1.241 . S
O461 Nd432 2.414 1_556 S
O461 Nd433 2.682 1_655 S
O461 C450 1.273 . S
O462 Nd433 2.410 . S
O462 C451 1.251 1_556 S
O463 Nd432 2.424 1_455 S
O463 C451 1.268 . S
H464 C436 0.930 . S
H465 C437 0.929 . S
H466 C439 0.930 . S
H467 C440 0.929 . S
H468 C445 0.930 . S
H469 C446 0.929 . S
H470 C448 0.930 . S
H471 C449 0.929 . S
H472 C490 0.951 . S
H473 C492 0.951 . S
H474 C494 0.950 . S
H475 C495 0.950 . S
H476 C497 0.950 . S
H477 C500 0.950 . S
H478 C501 0.950 . S
H479 C503 0.950 . S
H480 C504 0.950 . S
H481 C505 0.951 . S
H482 C507 0.951 . S
H483 C509 0.950 . S
H484 C510 0.950 . S
H485 C512 0.950 . S
H486 C515 0.950 . S
H487 C516 0.950 . S
H488 C518 0.950 . S
H489 C519 0.950 . S
C490 H472 0.951 . S
C490 C491 1.366 . S
C490 C492 1.388 . S
C491 C490 1.366 . S
C491 C495 1.385 . S
C492 H473 0.951 . S
C492 C490 1.388 . S
C492 C493 1.366 . S
C493 C492 1.366 . S
C493 C494 1.414 . S
C493 C496 1.499 . S
C494 H474 0.950 . S
C494 C493 1.414 . S
C494 C495 1.374 . S
C495 H475 0.950 . S
C495 C491 1.385 . S
C495 C494 1.374 . S
C496 C493 1.499 . S
C496 C497 1.373 . S
C496 C498 1.389 . S
C497 H476 0.950 . S
C497 C496 1.373 . S
C497 C513 1.377 . S
C498 C496 1.389 . S
C498 C499 1.524 . S
C498 C512 1.377 . S
C499 C498 1.524 . S
C499 C500 1.397 . S
C499 C504 1.363 . S
C500 H477 0.950 . S
C500 C499 1.397 . S
C500 C501 1.334 . S
C501 H478 0.950 . S
C501 C500 1.334 . S
C501 C502 1.287 . S
C502 C501 1.287 . S
C502 C503 1.524 . S
C502 H521 0.913 . S
C503 H479 0.950 . S
C503 C502 1.524 . S
C503 C504 1.415 . S
C504 H480 0.950 . S
C504 C499 1.363 . S
C504 C503 1.415 . S
C505 H481 0.951 . S
C505 C506 1.366 . S
C505 C507 1.388 . S
C506 C505 1.366 . S
C506 C510 1.385 . S
C507 H482 0.951 . S
C507 C505 1.388 . S
C507 C508 1.366 . S
C508 C507 1.366 . S
C508 C509 1.414 . S
C508 C511 1.499 . S
C509 H483 0.950 . S
C509 C508 1.414 . S
C509 C510 1.374 . S
C510 H484 0.950 . S
C510 C506 1.385 . S
C510 C509 1.374 . S
C511 C508 1.499 . S
C511 C512 1.373 . S
C511 C513 1.389 . S
C512 H485 0.950 . S
C512 C498 1.377 . S
C512 C511 1.373 . S
C513 C497 1.377 . S
C513 C511 1.389 . S
C513 C514 1.524 . S
C514 C513 1.524 . S
C514 C515 1.397 . S
C514 C519 1.363 . S
C515 H486 0.950 . S
C515 C514 1.397 . S
C515 C516 1.334 . S
C516 H487 0.950 . S
C516 C515 1.334 . S
C516 C517 1.287 . S
C517 C516 1.287 . S
C517 C518 1.524 1_455 S
C517 H520 0.999 1_455 S
C518 H488 0.950 . S
C518 C517 1.524 1_655 S
C518 C519 1.415 1_655 S
C519 H489 0.950 . S
C519 C514 1.363 . S
C519 C518 1.415 1_455 S
H520 C517 0.999 1_655 S
H521 C502 0.913 . S
H522 C540 0.951 . S
H523 C542 0.951 . S
H524 C544 0.950 . S
H525 C545 0.950 . S
H526 C547 0.950 . S
H527 C550 0.950 . S
H528 C551 0.950 . S
H529 C553 0.950 . S
H530 C554 0.950 . S
H531 C555 0.951 . S
H532 C557 0.951 . S
H533 C559 0.950 . S
H534 C560 0.950 . S
H535 C562 0.950 . S
H536 C565 0.950 . S
H537 C566 0.950 . S
H538 C568 0.950 . S
H539 C569 0.950 . S
C540 H522 0.951 . S
C540 C541 1.366 . S
C540 C542 1.388 . S
C541 C540 1.366 . S
C541 C545 1.385 . S
C542 H523 0.951 . S
C542 C540 1.388 . S
C542 C543 1.366 . S
C543 C542 1.366 . S
C543 C544 1.414 . S
C543 C546 1.499 . S
C544 H524 0.950 . S
C544 C543 1.414 . S
C544 C545 1.374 . S
C545 H525 0.950 . S
C545 C541 1.385 . S
C545 C544 1.374 . S
C546 C543 1.499 . S
C546 C547 1.373 . S
C546 C548 1.389 . S
C547 H526 0.950 . S
C547 C546 1.373 . S
C547 C563 1.377 . S
C548 C546 1.389 . S
C548 C549 1.524 . S
C548 C562 1.377 . S
C549 C548 1.524 . S
C549 C550 1.397 . S
C549 C554 1.363 . S
C550 H527 0.950 . S
C550 C549 1.397 . S
C550 C551 1.334 . S
C551 H528 0.950 . S
C551 C550 1.334 . S
C551 C552 1.287 . S
C552 C551 1.287 . S
C552 C553 1.524 . S
C552 H571 0.913 . S
C553 H529 0.950 . S
C553 C552 1.524 . S
C553 C554 1.415 . S
C554 H530 0.950 . S
C554 C549 1.363 . S
C554 C553 1.415 . S
C555 H531 0.951 . S
C555 C556 1.366 . S
C555 C557 1.388 . S
C556 C555 1.366 . S
C556 C560 1.385 . S
C557 H532 0.951 . S
C557 C555 1.388 . S
C557 C558 1.366 . S
C558 C557 1.366 . S
C558 C559 1.414 . S
C558 C561 1.499 . S
C559 H533 0.950 . S
C559 C558 1.414 . S
C559 C560 1.374 . S
C560 H534 0.950 . S
C560 C556 1.385 . S
C560 C559 1.374 . S
C561 C558 1.499 . S
C561 C562 1.373 . S
C561 C563 1.389 . S
C562 H535 0.950 . S
C562 C548 1.377 . S
C562 C561 1.373 . S
C563 C547 1.377 . S
C563 C561 1.389 . S
C563 C564 1.524 . S
C564 C563 1.524 . S
C564 C565 1.397 . S
C564 C569 1.363 . S
C565 H536 0.950 . S
C565 C564 1.397 . S
C565 C566 1.334 . S
C566 H537 0.950 . S
C566 C565 1.334 . S
C566 C567 1.287 1_556 S
C567 C566 1.287 1_554 S
C567 C568 1.524 . S
C567 H570 0.999 . S
C568 H538 0.950 . S
C568 C567 1.524 . S
C568 C569 1.415 1_554 S
C569 H539 0.950 . S
C569 C564 1.363 . S
C569 C568 1.415 1_556 S
H570 C567 0.999 . S
H571 C552 0.913 . S
H572 C590 0.951 . S
H573 C592 0.951 . S
H574 C594 0.950 . S
H575 C595 0.950 . S
H576 C597 0.950 . S
H577 C600 0.950 . S
H578 C601 0.950 . S
H579 C603 0.950 . S
H580 C604 0.950 . S
H581 C605 0.951 . S
H582 C607 0.951 . S
H583 C609 0.950 . S
H584 C610 0.950 . S
H585 C612 0.950 . S
H586 C615 0.950 . S
H587 C616 0.950 . S
H588 C618 0.950 . S
H589 C619 0.950 . S
C590 H572 0.951 . S
C590 C591 1.366 . S
C590 C592 1.388 . S
C591 C590 1.366 . S
C591 C595 1.385 . S
C592 H573 0.951 . S
C592 C590 1.388 . S
C592 C593 1.366 . S
C593 C592 1.366 . S
C593 C594 1.414 . S
C593 C596 1.499 . S
C594 H574 0.950 . S
C594 C593 1.414 . S
C594 C595 1.374 . S
C595 H575 0.950 . S
C595 C591 1.385 . S
C595 C594 1.374 . S
C596 C593 1.499 . S
C596 C597 1.373 . S
C596 C598 1.389 . S
C597 H576 0.950 . S
C597 C596 1.373 . S
C597 C613 1.377 . S
C598 C596 1.389 . S
C598 C599 1.524 . S
C598 C612 1.377 . S
C599 C598 1.524 . S
C599 C600 1.397 . S
C599 C604 1.363 . S
C600 H577 0.950 . S
C600 C599 1.397 . S
C600 C601 1.334 . S
C601 H578 0.950 . S
C601 C600 1.334 . S
C601 C602 1.287 . S
C602 C601 1.287 . S
C602 C603 1.524 . S
C602 H621 0.913 . S
C603 H579 0.950 . S
C603 C602 1.524 . S
C603 C604 1.415 . S
C604 H580 0.950 . S
C604 C599 1.363 . S
C604 C603 1.415 . S
C605 H581 0.951 . S
C605 C606 1.366 . S
C605 C607 1.388 . S
C606 C605 1.366 . S
C606 C610 1.385 . S
C607 H582 0.951 . S
C607 C605 1.388 . S
C607 C608 1.366 . S
C608 C607 1.366 . S
C608 C609 1.414 . S
C608 C611 1.499 . S
C609 H583 0.950 . S
C609 C608 1.414 . S
C609 C610 1.374 . S
C610 H584 0.950 . S
C610 C606 1.385 . S
C610 C609 1.374 . S
C611 C608 1.499 . S
C611 C612 1.373 . S
C611 C613 1.389 . S
C612 H585 0.950 . S
C612 C598 1.377 . S
C612 C611 1.373 . S
C613 C597 1.377 . S
C613 C611 1.389 . S
C613 C614 1.524 . S
C614 C613 1.524 . S
C614 C615 1.397 . S
C614 C619 1.363 . S
C615 H586 0.950 . S
C615 C614 1.397 . S
C615 C616 1.334 . S
C616 H587 0.950 . S
C616 C615 1.334 . S
C616 C617 1.287 . S
C617 C616 1.287 . S
C617 C618 1.524 . S
C617 H620 0.999 . S
C618 H588 0.950 . S
C618 C617 1.524 . S
C618 C619 1.415 . S
C619 H589 0.950 . S
C619 C614 1.363 . S
C619 C618 1.415 . S
H620 C617 0.999 . S
H621 C602 0.913 . S
H622 C640 0.951 . S
H623 C642 0.951 . S
H624 C644 0.950 . S
H625 C645 0.950 . S
H626 C647 0.950 . S
H627 C650 0.950 . S
H628 C651 0.950 . S
H629 C653 0.950 . S
H630 C654 0.950 . S
H631 C655 0.951 . S
H632 C657 0.951 . S
H633 C659 0.950 . S
H634 C660 0.950 . S
H635 C662 0.950 . S
H636 C665 0.950 . S
H637 C666 0.950 . S
H638 C668 0.950 . S
H639 C669 0.950 . S
C640 H622 0.951 . S
C640 C641 1.366 . S
C640 C642 1.388 . S
C641 C640 1.366 . S
C641 C645 1.385 . S
C642 H623 0.951 . S
C642 C640 1.388 . S
C642 C643 1.366 . S
C643 C642 1.366 . S
C643 C644 1.414 . S
C643 C646 1.499 . S
C644 H624 0.950 . S
C644 C643 1.414 . S
C644 C645 1.374 . S
C645 H625 0.950 . S
C645 C641 1.385 . S
C645 C644 1.374 . S
C646 C643 1.499 . S
C646 C647 1.373 . S
C646 C648 1.389 . S
C647 H626 0.950 . S
C647 C646 1.373 . S
C647 C663 1.377 . S
C648 C646 1.389 . S
C648 C649 1.524 . S
C648 C662 1.377 . S
C649 C648 1.524 . S
C649 C650 1.397 . S
C649 C654 1.363 . S
C650 H627 0.950 . S
C650 C649 1.397 . S
C650 C651 1.334 . S
C651 H628 0.950 . S
C651 C650 1.334 . S
C651 C652 1.287 . S
C652 C651 1.287 . S
C652 C653 1.524 . S
C652 H671 0.913 . S
C653 H629 0.950 . S
C653 C652 1.524 . S
C653 C654 1.415 . S
C654 H630 0.950 . S
C654 C649 1.363 . S
C654 C653 1.415 . S
C655 H631 0.951 . S
C655 C656 1.366 . S
C655 C657 1.388 . S
C656 C655 1.366 . S
C656 C660 1.385 . S
C657 H632 0.951 . S
C657 C655 1.388 . S
C657 C658 1.366 . S
C658 C657 1.366 . S
C658 C659 1.414 . S
C658 C661 1.499 . S
C659 H633 0.950 . S
C659 C658 1.414 . S
C659 C660 1.374 . S
C660 H634 0.950 . S
C660 C656 1.385 . S
C660 C659 1.374 . S
C661 C658 1.499 . S
C661 C662 1.373 . S
C661 C663 1.389 . S
C662 H635 0.950 . S
C662 C648 1.377 . S
C662 C661 1.373 . S
C663 C647 1.377 . S
C663 C661 1.389 . S
C663 C664 1.524 . S
C664 C663 1.524 . S
C664 C665 1.397 . S
C664 C669 1.363 . S
C665 H636 0.950 . S
C665 C664 1.397 . S
C665 C666 1.334 . S
C666 H637 0.950 . S
C666 C665 1.334 . S
C666 C667 1.287 . S
C667 C666 1.287 . S
C667 C668 1.524 . S
C667 H670 0.999 . S
C668 H638 0.950 . S
C668 C667 1.524 . S
C668 C669 1.415 . S
C669 H639 0.950 . S
C669 C664 1.363 . S
C669 C668 1.415 . S
H670 C667 0.999 . S
H671 C652 0.913 . S
H672 C690 0.951 . S
H673 C692 0.951 . S
H674 C694 0.950 . S
H675 C695 0.950 . S
H676 C697 0.950 . S
H677 C700 0.950 . S
H678 C701 0.950 . S
H679 C703 0.950 . S
H680 C704 0.950 . S
H681 C705 0.951 . S
H682 C707 0.951 . S
H683 C709 0.950 . S
H684 C710 0.950 1_556 S
H685 C712 0.950 . S
H686 C715 0.950 . S
H687 C716 0.987 . S
H688 C718 0.950 . S
H689 C719 0.950 . S
C690 H672 0.951 . S
C690 C691 1.366 . S
C690 C692 1.388 . S
C691 C690 1.366 . S
C691 C695 1.385 . S
C692 H673 0.951 . S
C692 C690 1.388 . S
C692 C693 1.366 . S
C693 C692 1.366 . S
C693 C694 1.414 . S
C693 C696 1.499 . S
C694 H674 0.950 . S
C694 C693 1.414 . S
C694 C695 1.374 . S
C695 H675 0.950 . S
C695 C691 1.385 . S
C695 C694 1.374 . S
C696 C693 1.499 . S
C696 C697 1.373 . S
C696 C698 1.389 . S
C697 H676 0.950 . S
C697 C696 1.373 . S
C697 C713 1.377 . S
C698 C696 1.389 . S
C698 C699 1.524 . S
C698 C712 1.377 . S
C699 C698 1.524 . S
C699 C700 1.397 . S
C699 C704 1.363 . S
C700 H677 0.950 . S
C700 C699 1.397 . S
C700 C701 1.334 . S
C701 H678 0.950 . S
C701 C700 1.334 . S
C701 C702 1.287 . S
C702 C701 1.287 . S
C702 C703 1.524 . S
C702 H721 0.913 . S
C703 H679 0.950 . S
C703 C702 1.524 . S
C703 C704 1.415 . S
C704 H680 0.950 . S
C704 C699 1.363 . S
C704 C703 1.415 . S
C705 H681 0.951 . S
C705 C706 1.366 . S
C705 C707 1.388 . S
C706 C705 1.366 . S
C706 C710 1.385 . S
C707 H682 0.951 . S
C707 C705 1.388 . S
C707 C708 1.366 . S
C708 C707 1.366 . S
C708 C709 1.414 . S
C708 C711 1.499 . S
C709 H683 0.950 . S
C709 C708 1.414 . S
C709 C710 1.374 . S
C710 H684 0.950 1_554 S
C710 C706 1.385 . S
C710 C709 1.374 . S
C711 C708 1.499 . S
C711 C712 1.373 . S
C711 C713 1.389 . S
C712 H685 0.950 . S
C712 C698 1.377 . S
C712 C711 1.373 . S
C713 C697 1.377 . S
C713 C711 1.389 . S
C713 C714 1.524 . S
C714 C713 1.524 . S
C714 C715 1.397 . S
C714 C719 1.363 . S
C715 H686 0.950 . S
C715 C714 1.397 . S
C715 C716 1.334 . S
C716 H687 0.987 . S
C716 C715 1.334 . S
C716 C717 1.287 . S
C717 C716 1.287 . S
C717 C718 1.524 . S
C717 H720 0.999 . S
C718 H688 0.950 . S
C718 C717 1.524 . S
C718 C719 1.415 . S
C719 H689 0.950 . S
C719 C714 1.363 . S
C719 C718 1.415 . S
H720 C717 0.999 . S
H721 C702 0.913 . S
H722 C740 0.951 . S
H723 C742 0.951 . S
H724 C744 0.950 . S
H725 C745 0.950 . S
H726 C747 0.950 . S
H727 C750 0.950 . S
H728 C751 0.950 . S
H729 C753 0.950 . S
H730 C754 0.950 . S
H731 C755 0.951 . S
H732 C757 0.951 . S
H733 C759 0.950 . S
H734 C760 0.950 . S
H735 C762 0.950 . S
H736 C765 0.950 . S
H737 C766 0.950 . S
H738 C768 0.950 . S
H739 C769 0.950 . S
C740 H722 0.951 . S
C740 C741 1.366 . S
C740 C742 1.388 . S
C741 C740 1.366 . S
C741 C745 1.385 . S
C742 H723 0.951 . S
C742 C740 1.388 . S
C742 C743 1.366 . S
C743 C742 1.366 . S
C743 C744 1.414 . S
C743 C746 1.499 . S
C744 H724 0.950 . S
C744 C743 1.414 . S
C744 C745 1.374 . S
C745 H725 0.950 . S
C745 C741 1.385 . S
C745 C744 1.374 . S
C746 C743 1.499 . S
C746 C747 1.373 . S
C746 C748 1.389 . S
C747 H726 0.950 . S
C747 C746 1.373 . S
C747 C763 1.377 . S
C748 C746 1.389 . S
C748 C749 1.524 . S
C748 C762 1.377 . S
C749 C748 1.524 . S
C749 C750 1.397 . S
C749 C754 1.363 . S
C750 H727 0.950 . S
C750 C749 1.397 . S
C750 C751 1.334 . S
C751 H728 0.950 . S
C751 C750 1.334 . S
C751 C752 1.287 . S
C752 C751 1.287 . S
C752 C753 1.524 . S
C752 H771 0.913 . S
C753 H729 0.950 . S
C753 C752 1.524 . S
C753 C754 1.415 . S
C754 H730 0.950 . S
C754 C749 1.363 . S
C754 C753 1.415 . S
C755 H731 0.951 . S
C755 C756 1.366 . S
C755 C757 1.388 . S
C756 C755 1.366 . S
C756 C760 1.385 . S
C757 H732 0.951 . S
C757 C755 1.388 . S
C757 C758 1.366 . S
C758 C757 1.366 . S
C758 C759 1.414 . S
C758 C761 1.499 . S
C759 H733 0.950 . S
C759 C758 1.414 . S
C759 C760 1.374 . S
C760 H734 0.950 . S
C760 C756 1.385 . S
C760 C759 1.374 . S
C761 C758 1.499 . S
C761 C762 1.373 . S
C761 C763 1.389 . S
C762 H735 0.950 . S
C762 C748 1.377 . S
C762 C761 1.373 . S
C763 C747 1.377 . S
C763 C761 1.389 . S
C763 C764 1.524 . S
C764 C763 1.524 . S
C764 C765 1.397 . S
C764 C769 1.363 . S
C765 H736 0.950 . S
C765 C764 1.397 . S
C765 C766 1.334 . S
C766 H737 0.950 . S
C766 C765 1.334 . S
C766 C767 1.287 . S
C767 C766 1.287 . S
C767 C768 1.524 . S
C767 H770 0.999 . S
C768 H738 0.950 . S
C768 C767 1.524 . S
C768 C769 1.415 . S
C769 H739 0.950 . S
C769 C764 1.363 . S
C769 C768 1.415 . S
H770 C767 0.999 . S
H771 C752 0.913 . S
H772 C790 0.951 . S
H773 C792 0.951 . S
H774 C794 0.950 . S
H775 C795 0.950 . S
H776 C797 0.950 . S
H777 C800 0.950 . S
H778 C801 0.950 . S
H779 C803 0.950 . S
H780 C804 0.950 . S
H781 C805 0.951 . S
H782 C807 0.951 . S
H783 C809 0.950 . S
H784 C810 0.950 . S
H785 C812 0.950 . S
H786 C815 0.950 1_556 S
H787 C816 0.950 . S
H788 C818 0.950 . S
H789 C819 0.950 1_556 S
C790 H772 0.951 . S
C790 C791 1.366 . S
C790 C792 1.388 . S
C791 C790 1.366 . S
C791 C795 1.385 . S
C792 H773 0.951 . S
C792 C790 1.388 . S
C792 C793 1.366 . S
C793 C792 1.366 . S
C793 C794 1.414 . S
C793 C796 1.499 . S
C794 H774 0.950 . S
C794 C793 1.414 . S
C794 C795 1.374 . S
C795 H775 0.950 . S
C795 C791 1.385 . S
C795 C794 1.374 . S
C796 C793 1.499 . S
C796 C797 1.373 . S
C796 C798 1.389 . S
C797 H776 0.950 . S
C797 C796 1.373 . S
C797 C813 1.377 . S
C798 C796 1.389 . S
C798 C799 1.524 . S
C798 C812 1.377 . S
C799 C798 1.524 . S
C799 C800 1.397 . S
C799 C804 1.363 . S
C800 H777 0.950 . S
C800 C799 1.397 . S
C800 C801 1.334 . S
C801 H778 0.950 . S
C801 C800 1.334 . S
C801 C802 1.287 . S
C802 C801 1.287 . S
C802 C803 1.524 . S
C802 H821 0.913 . S
C803 H779 0.950 . S
C803 C802 1.524 . S
C803 C804 1.415 . S
C804 H780 0.950 . S
C804 C799 1.363 . S
C804 C803 1.415 . S
C805 H781 0.951 . S
C805 C806 1.366 . S
C805 C807 1.388 . S
C806 C805 1.366 . S
C806 C810 1.385 . S
C807 H782 0.951 . S
C807 C805 1.388 . S
C807 C808 1.366 . S
C808 C807 1.366 . S
C808 C809 1.414 . S
C808 C811 1.499 . S
C809 H783 0.950 . S
C809 C808 1.414 . S
C809 C810 1.374 . S
C810 H784 0.950 . S
C810 C806 1.385 . S
C810 C809 1.374 . S
C811 C808 1.499 . S
C811 C812 1.373 . S
C811 C813 1.389 . S
C812 H785 0.950 . S
C812 C798 1.377 . S
C812 C811 1.373 . S
C813 C797 1.377 . S
C813 C811 1.389 . S
C813 C814 1.524 . S
C814 C813 1.524 . S
C814 C815 1.397 1_556 S
C814 C819 1.363 1_556 S
C815 H786 0.950 1_554 S
C815 C814 1.397 1_554 S
C815 C816 1.334 . S
C816 H787 0.950 . S
C816 C815 1.334 . S
C816 C817 1.287 . S
C817 C816 1.287 . S
C817 C818 1.524 . S
C817 H820 0.999 . S
C818 H788 0.950 . S
C818 C817 1.524 . S
C818 C819 1.415 . S
C819 H789 0.950 1_554 S
C819 C814 1.363 1_554 S
C819 C818 1.415 . S
H820 C817 0.999 . S
H821 C802 0.913 . S
H822 C840 0.951 . S
H823 C842 0.951 . S
H824 C844 0.950 . S
H825 C845 0.950 . S
H826 C847 0.950 . S
H827 C850 0.950 . S
H828 C851 0.950 . S
H829 C853 0.950 . S
H830 C854 0.950 . S
H831 C855 0.951 . S
H832 C857 0.951 . S
H833 C859 0.950 . S
H834 C860 0.950 . S
H835 C862 0.950 . S
H836 C865 0.950 . S
H837 C866 0.950 . S
H838 C868 0.950 . S
H839 C869 0.950 . S
C840 H822 0.951 . S
C840 C841 1.366 . S
C840 C842 1.388 . S
C841 C840 1.366 . S
C841 C845 1.385 . S
C842 H823 0.951 . S
C842 C840 1.388 . S
C842 C843 1.366 . S
C843 C842 1.366 . S
C843 C844 1.414 . S
C843 C846 1.499 . S
C844 H824 0.950 . S
C844 C843 1.414 . S
C844 C845 1.374 . S
C845 H825 0.950 . S
C845 C841 1.385 . S
C845 C844 1.374 . S
C846 C843 1.499 . S
C846 C847 1.373 . S
C846 C848 1.389 . S
C847 H826 0.950 . S
C847 C846 1.373 . S
C847 C863 1.377 . S
C848 C846 1.389 . S
C848 C849 1.524 . S
C848 C862 1.377 . S
C849 C848 1.524 . S
C849 C850 1.397 . S
C849 C854 1.363 . S
C850 H827 0.950 . S
C850 C849 1.397 . S
C850 C851 1.334 . S
C851 H828 0.950 . S
C851 C850 1.334 . S
C851 C852 1.287 . S
C852 C851 1.287 . S
C852 C853 1.524 . S
C852 H871 0.913 . S
C853 H829 0.950 . S
C853 C852 1.524 . S
C853 C854 1.415 . S
C854 H830 0.950 . S
C854 C849 1.363 . S
C854 C853 1.415 . S
C855 H831 0.951 . S
C855 C856 1.366 . S
C855 C857 1.388 . S
C856 C855 1.366 . S
C856 C860 1.385 . S
C857 H832 0.951 . S
C857 C855 1.388 . S
C857 C858 1.366 . S
C858 C857 1.366 . S
C858 C859 1.414 . S
C858 C861 1.499 . S
C859 H833 0.950 . S
C859 C858 1.414 . S
C859 C860 1.374 . S
C860 H834 0.950 . S
C860 C856 1.385 . S
C860 C859 1.374 . S
C861 C858 1.499 . S
C861 C862 1.373 . S
C861 C863 1.389 . S
C862 H835 0.950 . S
C862 C848 1.377 . S
C862 C861 1.373 . S
C863 C847 1.377 . S
C863 C861 1.389 . S
C863 C864 1.524 . S
C864 C863 1.524 . S
C864 C865 1.397 . S
C864 C869 1.363 . S
C865 H836 0.950 . S
C865 C864 1.397 . S
C865 C866 1.334 . S
C866 H837 0.950 . S
C866 C865 1.334 . S
C866 C867 1.287 . S
C867 C866 1.287 . S
C867 C868 1.524 . S
C867 H870 0.999 . S
C868 H838 0.950 . S
C868 C867 1.524 . S
C868 C869 1.415 . S
C869 H839 0.950 . S
C869 C864 1.363 . S
C869 C868 1.415 . S
H870 C867 0.999 . S
H871 C852 0.913 . S
H872 C890 0.951 . S
H873 C892 0.951 . S
H874 C894 0.950 . S
H875 C895 0.950 . S
H876 C897 0.950 . S
H877 C900 0.950 . S
H878 C901 0.950 . S
H879 C903 0.950 . S
H880 C904 0.950 . S
H881 C905 0.951 . S
H882 C907 0.951 . S
H883 C909 0.950 . S
H884 C910 0.950 . S
H885 C912 0.950 . S
H886 C915 0.950 . S
H887 C916 0.950 . S
H888 C918 0.950 . S
H889 C919 0.950 . S
C890 H872 0.951 . S
C890 C891 1.366 . S
C890 C892 1.388 . S
C891 C890 1.366 . S
C891 C895 1.385 . S
C892 H873 0.951 . S
C892 C890 1.388 . S
C892 C893 1.366 . S
C893 C892 1.366 . S
C893 C894 1.414 . S
C893 C896 1.499 . S
C894 H874 0.950 . S
C894 C893 1.414 . S
C894 C895 1.374 . S
C895 H875 0.950 . S
C895 C891 1.385 . S
C895 C894 1.374 . S
C896 C893 1.499 . S
C896 C897 1.373 . S
C896 C898 1.389 . S
C897 H876 0.950 . S
C897 C896 1.373 . S
C897 C913 1.377 . S
C898 C896 1.389 . S
C898 C899 1.524 . S
C898 C912 1.377 . S
C899 C898 1.524 . S
C899 C900 1.397 . S
C899 C904 1.363 . S
C900 H877 0.950 . S
C900 C899 1.397 . S
C900 C901 1.334 1_554 S
C901 H878 0.950 . S
C901 C900 1.334 1_556 S
C901 C902 1.287 . S
C902 C901 1.287 . S
C902 C903 1.524 . S
C902 H921 0.913 . S
C903 H879 0.950 . S
C903 C902 1.524 . S
C903 C904 1.415 1_556 S
C904 H880 0.950 . S
C904 C899 1.363 . S
C904 C903 1.415 1_554 S
C905 H881 0.951 . S
C905 C906 1.366 . S
C905 C907 1.388 . S
C906 C905 1.366 . S
C906 C910 1.385 . S
C907 H882 0.951 . S
C907 C905 1.388 . S
C907 C908 1.366 . S
C908 C907 1.366 . S
C908 C909 1.414 . S
C908 C911 1.499 . S
C909 H883 0.950 . S
C909 C908 1.414 . S
C909 C910 1.374 . S
C910 H884 0.950 . S
C910 C906 1.385 . S
C910 C909 1.374 . S
C911 C908 1.499 . S
C911 C912 1.373 . S
C911 C913 1.389 . S
C912 H885 0.950 . S
C912 C898 1.377 . S
C912 C911 1.373 . S
C913 C897 1.377 . S
C913 C911 1.389 . S
C913 C914 1.524 . S
C914 C913 1.524 . S
C914 C915 1.397 . S
C914 C919 1.363 . S
C915 H886 0.950 . S
C915 C914 1.397 . S
C915 C916 1.334 . S
C916 H887 0.950 . S
C916 C915 1.334 . S
C916 C917 1.287 . S
C917 C916 1.287 . S
C917 C918 1.524 . S
C917 H920 0.999 . S
C918 H888 0.950 . S
C918 C917 1.524 . S
C918 C919 1.415 . S
C919 H889 0.950 . S
C919 C914 1.363 . S
C919 C918 1.415 . S
H920 C917 0.999 . S
H921 C902 0.913 . S
H922 C940 0.951 . S
H923 C942 0.951 . S
H924 C944 0.950 . S
H925 C945 0.950 . S
H926 C947 0.950 . S
H927 C950 0.950 . S
H928 C951 0.950 . S
H929 C953 0.950 . S
H930 C954 0.950 . S
H931 C955 0.951 . S
H932 C957 0.951 . S
H933 C959 0.950 . S
H934 C960 0.950 . S
H935 C962 0.950 . S
H936 C965 0.950 . S
H937 C966 0.950 . S
H938 C968 0.950 . S
H939 C969 0.950 . S
C940 H922 0.951 . S
C940 C941 1.366 . S
C940 C942 1.388 . S
C941 C940 1.366 . S
C941 C945 1.385 . S
C942 H923 0.951 . S
C942 C940 1.388 . S
C942 C943 1.366 . S
C943 C942 1.366 . S
C943 C944 1.414 . S
C943 C946 1.499 . S
C944 H924 0.950 . S
C944 C943 1.414 . S
C944 C945 1.374 . S
C945 H925 0.950 . S
C945 C941 1.385 . S
C945 C944 1.374 . S
C946 C943 1.499 . S
C946 C947 1.373 . S
C946 C948 1.389 . S
C947 H926 0.950 . S
C947 C946 1.373 . S
C947 C963 1.377 . S
C948 C946 1.389 . S
C948 C949 1.524 . S
C948 C962 1.377 . S
C949 C948 1.524 . S
C949 C950 1.397 . S
C949 C954 1.363 . S
C950 H927 0.950 . S
C950 C949 1.397 . S
C950 C951 1.334 . S
C951 H928 0.950 . S
C951 C950 1.334 . S
C951 C952 1.287 . S
C952 C951 1.287 . S
C952 C953 1.524 . S
C952 H971 0.913 . S
C953 H929 0.950 . S
C953 C952 1.524 . S
C953 C954 1.415 . S
C954 H930 0.950 . S
C954 C949 1.363 . S
C954 C953 1.415 . S
C955 H931 0.951 . S
C955 C956 1.366 . S
C955 C957 1.388 . S
C956 C955 1.366 . S
C956 C960 1.385 . S
C957 H932 0.951 . S
C957 C955 1.388 . S
C957 C958 1.366 . S
C958 C957 1.366 . S
C958 C959 1.414 . S
C958 C961 1.499 . S
C959 H933 0.950 . S
C959 C958 1.414 . S
C959 C960 1.374 . S
C960 H934 0.950 . S
C960 C956 1.385 . S
C960 C959 1.374 . S
C961 C958 1.499 . S
C961 C962 1.373 . S
C961 C963 1.389 . S
C962 H935 0.950 . S
C962 C948 1.377 . S
C962 C961 1.373 . S
C963 C947 1.377 . S
C963 C961 1.389 . S
C963 C964 1.524 . S
C964 C963 1.524 . S
C964 C965 1.397 . S
C964 C969 1.363 . S
C965 H936 0.950 . S
C965 C964 1.397 . S
C965 C966 1.334 . S
C966 H937 0.950 . S
C966 C965 1.334 . S
C966 C967 1.287 . S
C967 C966 1.287 . S
C967 C968 1.524 . S
C967 H970 0.999 . S
C968 H938 0.950 . S
C968 C967 1.524 . S
C968 C969 1.415 . S
C969 H939 0.950 . S
C969 C964 1.363 . S
C969 C968 1.415 . S
H970 C967 0.999 . S
H971 C952 0.913 . S
H972 C990 0.951 . S
H973 C992 0.951 . S
H974 C994 0.950 . S
H975 C995 0.950 . S
H976 C997 0.950 . S
H977 C1000 0.950 . S
H978 C1001 0.950 . S
H979 C1003 0.950 . S
H980 C1004 0.950 . S
H981 C1005 0.951 . S
H982 C1007 0.951 . S
H983 C1009 0.950 . S
H984 C1010 0.950 1_455 S
H985 C1012 0.950 . S
H986 C1015 0.950 . S
H987 C1016 0.950 . S
H988 C1018 0.950 . S
H989 C1019 0.950 . S
C990 H972 0.951 . S
C990 C991 1.366 . S
C990 C992 1.388 . S
C991 C990 1.366 . S
C991 C995 1.385 . S
C992 H973 0.951 . S
C992 C990 1.388 . S
C992 C993 1.366 . S
C993 C992 1.366 . S
C993 C994 1.414 . S
C993 C996 1.499 . S
C994 H974 0.950 . S
C994 C993 1.414 . S
C994 C995 1.374 . S
C995 H975 0.950 . S
C995 C991 1.385 . S
C995 C994 1.374 . S
C996 C993 1.499 . S
C996 C997 1.373 . S
C996 C998 1.389 . S
C997 H976 0.950 . S
C997 C996 1.373 . S
C997 C1013 1.377 . S
C998 C996 1.389 . S
C998 C999 1.524 . S
C998 C1012 1.377 . S
C999 C998 1.524 . S
C999 C1000 1.397 . S
C999 C1004 1.363 . S
C1000 H977 0.950 . S
C1000 C999 1.397 . S
C1000 C1001 1.334 . S
C1001 H978 0.950 . S
C1001 C1000 1.334 . S
C1001 C1002 1.287 . S
C1002 C1001 1.287 . S
C1002 C1003 1.524 . S
C1002 H1021 0.913 . S
C1003 H979 0.950 . S
C1003 C1002 1.524 . S
C1003 C1004 1.415 . S
C1004 H980 0.950 . S
C1004 C999 1.363 . S
C1004 C1003 1.415 . S
C1005 H981 0.951 . S
C1005 C1006 1.366 . S
C1005 C1007 1.388 . S
C1006 C1005 1.366 . S
C1006 C1010 1.385 . S
C1007 H982 0.951 . S
C1007 C1005 1.388 . S
C1007 C1008 1.366 . S
C1008 C1007 1.366 . S
C1008 C1009 1.414 . S
C1008 C1011 1.499 . S
C1009 H983 0.950 . S
C1009 C1008 1.414 . S
C1009 C1010 1.374 . S
C1010 H984 0.950 1_655 S
C1010 C1006 1.385 . S
C1010 C1009 1.374 . S
C1011 C1008 1.499 . S
C1011 C1012 1.373 . S
C1011 C1013 1.389 . S
C1012 H985 0.950 . S
C1012 C998 1.377 . S
C1012 C1011 1.373 . S
C1013 C997 1.377 . S
C1013 C1011 1.389 . S
C1013 C1014 1.524 . S
C1014 C1013 1.524 . S
C1014 C1015 1.397 . S
C1014 C1019 1.363 . S
C1015 H986 0.950 . S
C1015 C1014 1.397 . S
C1015 C1016 1.334 . S
C1016 H987 0.950 . S
C1016 C1015 1.334 . S
C1016 C1017 1.287 . S
C1017 C1016 1.287 . S
C1017 C1018 1.524 . S
C1017 H1020 0.999 . S
C1018 H988 0.950 . S
C1018 C1017 1.524 . S
C1018 C1019 1.415 . S
C1019 H989 0.950 . S
C1019 C1014 1.363 . S
C1019 C1018 1.415 . S
H1020 C1017 0.999 . S
H1021 C1002 0.913 . S
H1022 C1040 0.951 . S
H1023 C1042 0.951 . S
H1024 C1044 0.950 . S
H1025 C1045 0.950 . S
H1026 C1047 0.950 . S
H1027 C1050 0.950 . S
H1028 C1051 0.950 . S
H1029 C1053 0.950 . S
H1030 C1054 0.950 . S
H1031 C1055 0.951 . S
H1032 C1057 0.951 . S
H1033 C1059 0.950 . S
H1034 C1060 0.950 . S
H1035 C1062 0.950 . S
H1036 C1065 0.950 . S
H1037 C1066 0.950 . S
H1038 C1068 0.950 . S
H1039 C1069 0.950 . S
C1040 H1022 0.951 . S
C1040 C1041 1.366 . S
C1040 C1042 1.388 . S
C1041 C1040 1.366 . S
C1041 C1045 1.385 . S
C1042 H1023 0.951 . S
C1042 C1040 1.388 . S
C1042 C1043 1.366 . S
C1043 C1042 1.366 . S
C1043 C1044 1.414 . S
C1043 C1046 1.499 . S
C1044 H1024 0.950 . S
C1044 C1043 1.414 . S
C1044 C1045 1.374 . S
C1045 H1025 0.950 . S
C1045 C1041 1.385 . S
C1045 C1044 1.374 . S
C1046 C1043 1.499 . S
C1046 C1047 1.373 . S
C1046 C1048 1.389 . S
C1047 H1026 0.950 . S
C1047 C1046 1.373 . S
C1047 C1063 1.377 . S
C1048 C1046 1.389 . S
C1048 C1049 1.524 . S
C1048 C1062 1.377 . S
C1049 C1048 1.524 . S
C1049 C1050 1.397 . S
C1049 C1054 1.363 . S
C1050 H1027 0.950 . S
C1050 C1049 1.397 . S
C1050 C1051 1.334 . S
C1051 H1028 0.950 . S
C1051 C1050 1.334 . S
C1051 C1052 1.287 . S
C1052 C1051 1.287 . S
C1052 C1053 1.524 . S
C1052 H1071 0.913 . S
C1053 H1029 0.950 . S
C1053 C1052 1.524 . S
C1053 C1054 1.415 . S
C1054 H1030 0.950 . S
C1054 C1049 1.363 . S
C1054 C1053 1.415 . S
C1055 H1031 0.951 . S
C1055 C1056 1.366 . S
C1055 C1057 1.388 . S
C1056 C1055 1.366 . S
C1056 C1060 1.385 . S
C1057 H1032 0.951 . S
C1057 C1055 1.388 . S
C1057 C1058 1.366 . S
C1058 C1057 1.366 . S
C1058 C1059 1.414 . S
C1058 C1061 1.499 . S
C1059 H1033 0.950 . S
C1059 C1058 1.414 . S
C1059 C1060 1.374 . S
C1060 H1034 0.950 . S
C1060 C1056 1.385 . S
C1060 C1059 1.374 . S
C1061 C1058 1.499 . S
C1061 C1062 1.373 . S
C1061 C1063 1.389 . S
C1062 H1035 0.950 . S
C1062 C1048 1.377 . S
C1062 C1061 1.373 . S
C1063 C1047 1.377 . S
C1063 C1061 1.389 . S
C1063 C1064 1.524 . S
C1064 C1063 1.524 . S
C1064 C1065 1.397 . S
C1064 C1069 1.363 . S
C1065 H1036 0.950 . S
C1065 C1064 1.397 . S
C1065 C1066 1.334 . S
C1066 H1037 0.950 . S
C1066 C1065 1.334 . S
C1066 C1067 1.287 . S
C1067 C1066 1.287 . S
C1067 C1068 1.524 . S
C1067 H1070 0.999 . S
C1068 H1038 0.950 . S
C1068 C1067 1.524 . S
C1068 C1069 1.415 . S
C1069 H1039 0.950 . S
C1069 C1064 1.363 . S
C1069 C1068 1.415 . S
H1070 C1067 0.999 . S
H1071 C1052 0.913 . S
H1072 C1090 0.951 . S
H1073 C1092 0.951 . S
H1074 C1094 0.950 . S
H1075 C1095 0.950 . S
H1076 C1097 0.950 . S
H1077 C1100 0.950 . S
H1078 C1101 0.950 . S
H1079 C1103 0.950 . S
H1080 C1104 0.950 . S
H1081 C1105 0.951 . S
H1082 C1107 0.951 . S
H1083 C1109 0.950 . S
H1084 C1110 0.950 1_455 S
H1085 C1112 0.950 . S
H1086 C1115 0.950 . S
H1087 C1116 0.950 . S
H1088 C1118 0.950 . S
H1089 C1119 0.950 . S
C1090 H1072 0.951 . S
C1090 C1091 1.366 . S
C1090 C1092 1.388 . S
C1091 C1090 1.366 . S
C1091 C1095 1.385 . S
C1092 H1073 0.951 . S
C1092 C1090 1.388 . S
C1092 C1093 1.366 . S
C1093 C1092 1.366 . S
C1093 C1094 1.414 . S
C1093 C1096 1.499 . S
C1094 H1074 0.950 . S
C1094 C1093 1.414 . S
C1094 C1095 1.374 . S
C1095 H1075 0.950 . S
C1095 C1091 1.385 . S
C1095 C1094 1.374 . S
C1096 C1093 1.499 . S
C1096 C1097 1.373 . S
C1096 C1098 1.389 . S
C1097 H1076 0.950 . S
C1097 C1096 1.373 . S
C1097 C1113 1.377 . S
C1098 C1096 1.389 . S
C1098 C1099 1.524 . S
C1098 C1112 1.377 . S
C1099 C1098 1.524 . S
C1099 C1100 1.397 . S
C1099 C1104 1.363 . S
C1100 H1077 0.950 . S
C1100 C1099 1.397 . S
C1100 C1101 1.334 . S
C1101 H1078 0.950 . S
C1101 C1100 1.334 . S
C1101 C1102 1.287 . S
C1102 C1101 1.287 . S
C1102 C1103 1.524 . S
C1102 H1121 0.913 . S
C1103 H1079 0.950 . S
C1103 C1102 1.524 . S
C1103 C1104 1.415 . S
C1104 H1080 0.950 . S
C1104 C1099 1.363 . S
C1104 C1103 1.415 . S
C1105 H1081 0.951 . S
C1105 C1106 1.366 . S
C1105 C1107 1.388 . S
C1106 C1105 1.366 . S
C1106 C1110 1.385 . S
C1107 H1082 0.951 . S
C1107 C1105 1.388 . S
C1107 C1108 1.366 . S
C1108 C1107 1.366 . S
C1108 C1109 1.414 . S
C1108 C1111 1.499 . S
C1109 H1083 0.950 . S
C1109 C1108 1.414 . S
C1109 C1110 1.374 . S
C1110 H1084 0.950 1_655 S
C1110 C1106 1.385 . S
C1110 C1109 1.374 . S
C1111 C1108 1.499 . S
C1111 C1112 1.373 . S
C1111 C1113 1.389 . S
C1112 H1085 0.950 . S
C1112 C1098 1.377 . S
C1112 C1111 1.373 . S
C1113 C1097 1.377 . S
C1113 C1111 1.389 . S
C1113 C1114 1.524 . S
C1114 C1113 1.524 . S
C1114 C1115 1.397 . S
C1114 C1119 1.363 . S
C1115 H1086 0.950 . S
C1115 C1114 1.397 . S
C1115 C1116 1.334 . S
C1116 H1087 0.950 . S
C1116 C1115 1.334 . S
C1116 C1117 1.287 . S
C1117 C1116 1.287 . S
C1117 C1118 1.524 . S
C1117 H1120 0.999 . S
C1118 H1088 0.950 . S
C1118 C1117 1.524 . S
C1118 C1119 1.415 . S
C1119 H1089 0.950 . S
C1119 C1114 1.363 . S
C1119 C1118 1.415 . S
H1120 C1117 0.999 . S
H1121 C1102 0.913 . S
H1122 C1140 0.951 . S
H1123 C1142 0.951 . S
H1124 C1144 0.950 . S
H1125 C1145 0.950 . S
H1126 C1147 0.950 . S
H1127 C1150 0.950 . S
H1128 C1151 0.950 . S
H1129 C1153 0.950 . S
H1130 C1154 0.950 . S
H1131 C1155 0.951 . S
H1132 C1157 0.951 . S
H1133 C1159 0.950 . S
H1134 C1160 0.950 . S
H1135 C1162 0.950 . S
H1136 C1165 0.950 . S
H1137 C1166 0.950 . S
H1138 C1168 0.950 . S
H1139 C1169 0.950 . S
C1140 H1122 0.951 . S
C1140 C1141 1.366 . S
C1140 C1142 1.388 . S
C1141 C1140 1.366 . S
C1141 C1145 1.385 . S
C1142 H1123 0.951 . S
C1142 C1140 1.388 . S
C1142 C1143 1.366 . S
C1143 C1142 1.366 . S
C1143 C1144 1.414 . S
C1143 C1146 1.499 . S
C1144 H1124 0.950 . S
C1144 C1143 1.414 . S
C1144 C1145 1.374 . S
C1145 H1125 0.950 . S
C1145 C1141 1.385 . S
C1145 C1144 1.374 . S
C1146 C1143 1.499 . S
C1146 C1147 1.373 . S
C1146 C1148 1.389 . S
C1147 H1126 0.950 . S
C1147 C1146 1.373 . S
C1147 C1163 1.377 . S
C1148 C1146 1.389 . S
C1148 C1149 1.524 . S
C1148 C1162 1.377 . S
C1149 C1148 1.524 . S
C1149 C1150 1.397 . S
C1149 C1154 1.363 . S
C1150 H1127 0.950 . S
C1150 C1149 1.397 . S
C1150 C1151 1.334 . S
C1151 H1128 0.950 . S
C1151 C1150 1.334 . S
C1151 C1152 1.287 . S
C1152 C1151 1.287 . S
C1152 C1153 1.524 . S
C1152 H1171 0.913 . S
C1153 H1129 0.950 . S
C1153 C1152 1.524 . S
C1153 C1154 1.415 . S
C1154 H1130 0.950 . S
C1154 C1149 1.363 . S
C1154 C1153 1.415 . S
C1155 H1131 0.951 . S
C1155 C1156 1.366 . S
C1155 C1157 1.388 . S
C1156 C1155 1.366 . S
C1156 C1160 1.385 . S
C1157 H1132 0.951 . S
C1157 C1155 1.388 . S
C1157 C1158 1.366 . S
C1158 C1157 1.366 . S
C1158 C1159 1.414 . S
C1158 C1161 1.499 . S
C1159 H1133 0.950 . S
C1159 C1158 1.414 . S
C1159 C1160 1.374 . S
C1160 H1134 0.950 . S
C1160 C1156 1.385 . S
C1160 C1159 1.374 . S
C1161 C1158 1.499 . S
C1161 C1162 1.373 . S
C1161 C1163 1.389 . S
C1162 H1135 0.950 . S
C1162 C1148 1.377 . S
C1162 C1161 1.373 . S
C1163 C1147 1.377 . S
C1163 C1161 1.389 . S
C1163 C1164 1.524 . S
C1164 C1163 1.524 . S
C1164 C1165 1.397 . S
C1164 C1169 1.363 . S
C1165 H1136 0.950 . S
C1165 C1164 1.397 . S
C1165 C1166 1.334 . S
C1166 H1137 0.950 . S
C1166 C1165 1.334 . S
C1166 C1167 1.287 . S
C1167 C1166 1.287 . S
C1167 C1168 1.524 . S
C1167 H1170 0.999 . S
C1168 H1138 0.950 . S
C1168 C1167 1.524 . S
C1168 C1169 1.415 . S
C1169 H1139 0.950 . S
C1169 C1164 1.363 . S
C1169 C1168 1.415 . S
H1170 C1167 0.999 . S
H1171 C1152 0.913 . S
H1172 C1190 0.951 . S
H1173 C1192 0.951 . S
H1174 C1194 0.950 . S
H1175 C1195 0.950 . S
H1176 C1197 0.950 . S
H1177 C1200 0.950 . S
H1178 C1201 0.950 . S
H1179 C1203 0.950 . S
H1180 C1204 0.950 . S
H1181 C1205 0.951 . S
H1182 C1207 0.951 . S
H1183 C1209 0.950 . S
H1184 C1210 0.950 . S
H1185 C1212 0.950 . S
H1186 C1215 0.950 . S
H1187 C1216 0.950 . S
H1188 C1218 0.950 . S
H1189 C1219 0.950 . S
C1190 H1172 0.951 . S
C1190 C1191 1.366 . S
C1190 C1192 1.388 . S
C1191 C1190 1.366 . S
C1191 C1195 1.385 . S
C1192 H1173 0.951 . S
C1192 C1190 1.388 . S
C1192 C1193 1.366 . S
C1193 C1192 1.366 . S
C1193 C1194 1.414 . S
C1193 C1196 1.499 . S
C1194 H1174 0.950 . S
C1194 C1193 1.414 . S
C1194 C1195 1.374 . S
C1195 H1175 0.950 . S
C1195 C1191 1.385 . S
C1195 C1194 1.374 . S
C1196 C1193 1.499 . S
C1196 C1197 1.373 . S
C1196 C1198 1.389 . S
C1197 H1176 0.950 . S
C1197 C1196 1.373 . S
C1197 C1213 1.377 . S
C1198 C1196 1.389 . S
C1198 C1199 1.524 . S
C1198 C1212 1.377 . S
C1199 C1198 1.524 . S
C1199 C1200 1.397 . S
C1199 C1204 1.363 . S
C1200 H1177 0.950 . S
C1200 C1199 1.397 . S
C1200 C1201 1.334 . S
C1201 H1178 0.950 . S
C1201 C1200 1.334 . S
C1201 C1202 1.287 . S
C1202 C1201 1.287 . S
C1202 C1203 1.524 . S
C1202 H1221 0.913 . S
C1203 H1179 0.950 . S
C1203 C1202 1.524 . S
C1203 C1204 1.415 . S
C1204 H1180 0.950 . S
C1204 C1199 1.363 . S
C1204 C1203 1.415 . S
C1205 H1181 0.951 . S
C1205 C1206 1.366 . S
C1205 C1207 1.388 . S
C1206 C1205 1.366 . S
C1206 C1210 1.385 . S
C1207 H1182 0.951 . S
C1207 C1205 1.388 . S
C1207 C1208 1.366 . S
C1208 C1207 1.366 . S
C1208 C1209 1.414 . S
C1208 C1211 1.499 . S
C1209 H1183 0.950 . S
C1209 C1208 1.414 . S
C1209 C1210 1.374 . S
C1210 H1184 0.950 . S
C1210 C1206 1.385 . S
C1210 C1209 1.374 . S
C1211 C1208 1.499 . S
C1211 C1212 1.373 . S
C1211 C1213 1.389 . S
C1212 H1185 0.950 . S
C1212 C1198 1.377 . S
C1212 C1211 1.373 . S
C1213 C1197 1.377 . S
C1213 C1211 1.389 . S
C1213 C1214 1.524 . S
C1214 C1213 1.524 . S
C1214 C1215 1.397 . S
C1214 C1219 1.363 . S
C1215 H1186 0.950 . S
C1215 C1214 1.397 . S
C1215 C1216 1.334 . S
C1216 H1187 0.950 . S
C1216 C1215 1.334 . S
C1216 C1217 1.287 . S
C1217 C1216 1.287 . S
C1217 C1218 1.524 . S
C1217 H1220 0.999 . S
C1218 H1188 0.950 . S
C1218 C1217 1.524 . S
C1218 C1219 1.415 . S
C1219 H1189 0.950 . S
C1219 C1214 1.363 . S
C1219 C1218 1.415 . S
H1220 C1217 0.999 . S
H1221 C1202 0.913 . S
H1222 C1240 0.951 . S
H1223 C1242 0.951 . S
H1224 C1244 0.950 . S
H1225 C1245 0.950 . S
H1226 C1247 0.950 . S
H1227 C1250 0.950 . S
H1228 C1251 0.950 . S
H1229 C1253 0.950 . S
H1230 C1254 0.950 . S
H1231 C1255 0.951 . S
H1232 C1257 0.951 . S
H1233 C1259 0.950 . S
H1234 C1260 0.950 . S
H1235 C1262 0.950 . S
H1236 C1265 0.950 . S
H1237 C1266 0.950 . S
H1238 C1268 0.950 . S
H1239 C1269 0.950 . S
C1240 H1222 0.951 . S
C1240 C1241 1.366 . S
C1240 C1242 1.388 . S
C1241 C1240 1.366 . S
C1241 C1245 1.385 . S
C1242 H1223 0.951 . S
C1242 C1240 1.388 . S
C1242 C1243 1.366 . S
C1243 C1242 1.366 . S
C1243 C1244 1.414 . S
C1243 C1246 1.499 . S
C1244 H1224 0.950 . S
C1244 C1243 1.414 . S
C1244 C1245 1.374 . S
C1245 H1225 0.950 . S
C1245 C1241 1.385 . S
C1245 C1244 1.374 . S
C1246 C1243 1.499 . S
C1246 C1247 1.373 . S
C1246 C1248 1.389 . S
C1247 H1226 0.950 . S
C1247 C1246 1.373 . S
C1247 C1263 1.377 . S
C1248 C1246 1.389 . S
C1248 C1249 1.524 . S
C1248 C1262 1.377 . S
C1249 C1248 1.524 . S
C1249 C1250 1.397 . S
C1249 C1254 1.363 . S
C1250 H1227 0.950 . S
C1250 C1249 1.397 . S
C1250 C1251 1.334 . S
C1251 H1228 0.950 . S
C1251 C1250 1.334 . S
C1251 C1252 1.287 . S
C1252 C1251 1.287 . S
C1252 C1253 1.524 . S
C1252 H1271 0.913 . S
C1253 H1229 0.950 . S
C1253 C1252 1.524 . S
C1253 C1254 1.415 . S
C1254 H1230 0.950 . S
C1254 C1249 1.363 . S
C1254 C1253 1.415 . S
C1255 H1231 0.951 . S
C1255 C1256 1.366 . S
C1255 C1257 1.388 . S
C1256 C1255 1.366 . S
C1256 C1260 1.385 . S
C1257 H1232 0.951 . S
C1257 C1255 1.388 . S
C1257 C1258 1.366 . S
C1258 C1257 1.366 . S
C1258 C1259 1.414 . S
C1258 C1261 1.499 . S
C1259 H1233 0.950 . S
C1259 C1258 1.414 . S
C1259 C1260 1.374 . S
C1260 H1234 0.950 . S
C1260 C1256 1.385 . S
C1260 C1259 1.374 . S
C1261 C1258 1.499 . S
C1261 C1262 1.373 . S
C1261 C1263 1.389 . S
C1262 H1235 0.950 . S
C1262 C1248 1.377 . S
C1262 C1261 1.373 . S
C1263 C1247 1.377 . S
C1263 C1261 1.389 . S
C1263 C1264 1.524 . S
C1264 C1263 1.524 . S
C1264 C1265 1.397 . S
C1264 C1269 1.363 . S
C1265 H1236 0.950 . S
C1265 C1264 1.397 . S
C1265 C1266 1.334 . S
C1266 H1237 0.950 . S
C1266 C1265 1.334 . S
C1266 C1267 1.287 . S
C1267 C1266 1.287 . S
C1267 C1268 1.524 . S
C1267 H1270 0.999 . S
C1268 H1238 0.950 . S
C1268 C1267 1.524 . S
C1268 C1269 1.415 . S
C1269 H1239 0.950 . S
C1269 C1264 1.363 . S
C1269 C1268 1.415 . S
H1270 C1267 0.999 . S
H1271 C1252 0.913 . S
H1272 C1290 0.951 . S
H1273 C1292 0.951 . S
H1274 C1294 0.950 . S
H1275 C1295 0.950 . S
H1276 C1297 0.950 . S
H1277 C1300 0.944 1_556 S
H1278 C1301 0.950 . S
H1279 C1303 0.950 . S
H1280 C1304 0.950 . S
H1281 C1305 0.951 . S
H1282 C1307 0.951 . S
H1283 C1309 0.950 . S
H1284 C1310 0.950 . S
H1285 C1312 0.950 . S
H1286 C1315 0.950 . S
H1287 C1316 0.950 . S
H1288 C1318 0.950 . S
H1289 C1319 0.950 . S
C1290 H1272 0.951 . S
C1290 C1291 1.366 . S
C1290 C1292 1.388 . S
C1291 C1290 1.366 . S
C1291 C1295 1.385 . S
C1292 H1273 0.951 . S
C1292 C1290 1.388 . S
C1292 C1293 1.366 . S
C1293 C1292 1.366 . S
C1293 C1294 1.414 . S
C1293 C1296 1.499 . S
C1294 H1274 0.950 . S
C1294 C1293 1.414 . S
C1294 C1295 1.374 . S
C1295 H1275 0.950 . S
C1295 C1291 1.385 . S
C1295 C1294 1.374 . S
C1296 C1293 1.499 . S
C1296 C1297 1.373 . S
C1296 C1298 1.389 . S
C1297 H1276 0.950 . S
C1297 C1296 1.373 . S
C1297 C1313 1.377 . S
C1298 C1296 1.389 . S
C1298 C1299 1.524 . S
C1298 C1312 1.377 . S
C1299 C1298 1.524 . S
C1299 C1300 1.395 1_556 S
C1299 C1304 1.363 1_556 S
C1300 H1277 0.944 1_554 S
C1300 C1299 1.395 1_554 S
C1300 C1301 1.342 . S
C1301 H1278 0.950 . S
C1301 C1300 1.342 . S
C1301 C1302 1.287 . S
C1302 C1301 1.287 . S
C1302 C1303 1.524 . S
C1302 H1321 0.913 . S
C1303 H1279 0.950 . S
C1303 C1302 1.524 . S
C1303 C1304 1.415 . S
C1304 H1280 0.950 . S
C1304 C1299 1.363 1_554 S
C1304 C1303 1.415 . S
C1305 H1281 0.951 . S
C1305 C1306 1.366 . S
C1305 C1307 1.388 . S
C1306 C1305 1.366 . S
C1306 C1310 1.385 . S
C1307 H1282 0.951 . S
C1307 C1305 1.388 . S
C1307 C1308 1.366 . S
C1308 C1307 1.366 . S
C1308 C1309 1.414 . S
C1308 C1311 1.499 . S
C1309 H1283 0.950 . S
C1309 C1308 1.414 . S
C1309 C1310 1.374 . S
C1310 H1284 0.950 . S
C1310 C1306 1.385 . S
C1310 C1309 1.374 . S
C1311 C1308 1.499 . S
C1311 C1312 1.373 . S
C1311 C1313 1.389 . S
C1312 H1285 0.950 . S
C1312 C1298 1.377 . S
C1312 C1311 1.373 . S
C1313 C1297 1.377 . S
C1313 C1311 1.389 . S
C1313 C1314 1.524 . S
C1314 C1313 1.524 . S
C1314 C1315 1.397 . S
C1314 C1319 1.363 . S
C1315 H1286 0.950 . S
C1315 C1314 1.397 . S
C1315 C1316 1.334 . S
C1316 H1287 0.950 . S
C1316 C1315 1.334 . S
C1316 C1317 1.287 . S
C1317 C1316 1.287 . S
C1317 C1318 1.524 . S
C1317 H1320 0.999 . S
C1318 H1288 0.950 . S
C1318 C1317 1.524 . S
C1318 C1319 1.415 . S
C1319 H1289 0.950 . S
C1319 C1314 1.363 . S
C1319 C1318 1.415 . S
H1320 C1317 0.999 . S
H1321 C1302 0.913 . S
H1322 C1340 0.951 . S
H1323 C1342 0.951 . S
H1324 C1344 0.950 . S
H1325 C1345 0.950 . S
H1326 C1347 0.950 . S
H1327 C1350 0.950 . S
H1328 C1351 0.950 . S
H1329 C1353 0.950 . S
H1330 C1354 0.950 . S
H1331 C1355 0.951 . S
H1332 C1357 0.951 . S
H1333 C1359 0.950 . S
H1334 C1360 0.950 . S
H1335 C1362 0.950 . S
H1336 C1365 0.950 . S
H1337 C1366 0.950 . S
H1338 C1368 0.950 . S
H1339 C1369 0.950 . S
C1340 H1322 0.951 . S
C1340 C1341 1.366 . S
C1340 C1342 1.388 . S
C1341 C1340 1.366 . S
C1341 C1345 1.385 . S
C1342 H1323 0.951 . S
C1342 C1340 1.388 . S
C1342 C1343 1.366 . S
C1343 C1342 1.366 . S
C1343 C1344 1.414 . S
C1343 C1346 1.499 . S
C1344 H1324 0.950 . S
C1344 C1343 1.414 . S
C1344 C1345 1.374 . S
C1345 H1325 0.950 . S
C1345 C1341 1.385 . S
C1345 C1344 1.374 . S
C1346 C1343 1.499 . S
C1346 C1347 1.373 . S
C1346 C1348 1.389 . S
C1347 H1326 0.950 . S
C1347 C1346 1.373 . S
C1347 C1363 1.377 . S
C1348 C1346 1.389 . S
C1348 C1349 1.524 . S
C1348 C1362 1.377 . S
C1349 C1348 1.524 . S
C1349 C1350 1.397 . S
C1349 C1354 1.363 . S
C1350 H1327 0.950 . S
C1350 C1349 1.397 . S
C1350 C1351 1.334 . S
C1351 H1328 0.950 . S
C1351 C1350 1.334 . S
C1351 C1352 1.287 . S
C1352 C1351 1.287 . S
C1352 C1353 1.524 . S
C1352 H1371 0.913 . S
C1353 H1329 0.950 . S
C1353 C1352 1.524 . S
C1353 C1354 1.415 . S
C1354 H1330 0.950 . S
C1354 C1349 1.363 . S
C1354 C1353 1.415 . S
C1355 H1331 0.951 . S
C1355 C1356 1.366 . S
C1355 C1357 1.388 . S
C1356 C1355 1.366 . S
C1356 C1360 1.385 . S
C1357 H1332 0.951 . S
C1357 C1355 1.388 . S
C1357 C1358 1.366 . S
C1358 C1357 1.366 . S
C1358 C1359 1.414 . S
C1358 C1361 1.499 . S
C1359 H1333 0.950 . S
C1359 C1358 1.414 . S
C1359 C1360 1.374 . S
C1360 H1334 0.950 . S
C1360 C1356 1.385 . S
C1360 C1359 1.374 . S
C1361 C1358 1.499 . S
C1361 C1362 1.373 . S
C1361 C1363 1.389 . S
C1362 H1335 0.950 . S
C1362 C1348 1.377 . S
C1362 C1361 1.373 . S
C1363 C1347 1.377 . S
C1363 C1361 1.389 . S
C1363 C1364 1.524 . S
C1364 C1363 1.524 . S
C1364 C1365 1.397 . S
C1364 C1369 1.363 . S
C1365 H1336 0.950 . S
C1365 C1364 1.397 . S
C1365 C1366 1.334 . S
C1366 H1337 0.950 . S
C1366 C1365 1.334 . S
C1366 C1367 1.287 . S
C1367 C1366 1.287 . S
C1367 C1368 1.524 . S
C1367 H1370 0.999 . S
C1368 H1338 0.950 . S
C1368 C1367 1.524 . S
C1368 C1369 1.415 . S
C1369 H1339 0.950 . S
C1369 C1364 1.363 . S
C1369 C1368 1.415 . S
H1370 C1367 0.999 . S
H1371 C1352 0.913 . S
H1372 C1390 0.951 . S
H1373 C1392 0.951 . S
H1374 C1394 0.950 . S
H1375 C1395 0.950 . S
H1376 C1397 0.950 . S
H1377 C1400 0.950 . S
H1378 C1401 0.950 . S
H1379 C1403 0.950 . S
H1380 C1404 0.950 . S
H1381 C1405 0.951 . S
H1382 C1407 0.951 . S
H1383 C1409 0.950 . S
H1384 C1410 0.950 . S
H1385 C1412 0.950 . S
H1386 C1415 0.950 . S
H1387 C1416 0.950 1_556 S
H1388 C1418 0.950 . S
H1389 C1419 0.950 . S
C1390 H1372 0.951 . S
C1390 C1391 1.366 . S
C1390 C1392 1.388 . S
C1391 C1390 1.366 . S
C1391 C1395 1.385 . S
C1392 H1373 0.951 . S
C1392 C1390 1.388 . S
C1392 C1393 1.366 . S
C1393 C1392 1.366 . S
C1393 C1394 1.414 . S
C1393 C1396 1.499 . S
C1394 H1374 0.950 . S
C1394 C1393 1.414 . S
C1394 C1395 1.374 . S
C1395 H1375 0.950 . S
C1395 C1391 1.385 . S
C1395 C1394 1.374 . S
C1396 C1393 1.499 . S
C1396 C1397 1.373 . S
C1396 C1398 1.389 . S
C1397 H1376 0.950 . S
C1397 C1396 1.373 . S
C1397 C1413 1.377 . S
C1398 C1396 1.389 . S
C1398 C1399 1.524 . S
C1398 C1412 1.377 . S
C1399 C1398 1.524 . S
C1399 C1400 1.397 . S
C1399 C1404 1.363 . S
C1400 H1377 0.950 . S
C1400 C1399 1.397 . S
C1400 C1401 1.334 . S
C1401 H1378 0.950 . S
C1401 C1400 1.334 . S
C1401 C1402 1.287 . S
C1402 C1401 1.287 . S
C1402 C1403 1.524 . S
C1402 H1421 0.913 . S
C1403 H1379 0.950 . S
C1403 C1402 1.524 . S
C1403 C1404 1.415 . S
C1404 H1380 0.950 . S
C1404 C1399 1.363 . S
C1404 C1403 1.415 . S
C1405 H1381 0.951 . S
C1405 C1406 1.366 . S
C1405 C1407 1.388 . S
C1406 C1405 1.366 . S
C1406 C1410 1.385 . S
C1407 H1382 0.951 . S
C1407 C1405 1.388 . S
C1407 C1408 1.366 . S
C1408 C1407 1.366 . S
C1408 C1409 1.414 . S
C1408 C1411 1.499 . S
C1409 H1383 0.950 . S
C1409 C1408 1.414 . S
C1409 C1410 1.374 . S
C1410 H1384 0.950 . S
C1410 C1406 1.385 . S
C1410 C1409 1.374 . S
C1411 C1408 1.499 . S
C1411 C1412 1.373 . S
C1411 C1413 1.389 . S
C1412 H1385 0.950 . S
C1412 C1398 1.377 . S
C1412 C1411 1.373 . S
C1413 C1397 1.377 . S
C1413 C1411 1.389 . S
C1413 C1414 1.524 . S
C1414 C1413 1.524 . S
C1414 C1415 1.397 . S
C1414 C1419 1.363 . S
C1415 H1386 0.950 . S
C1415 C1414 1.397 . S
C1415 C1416 1.334 . S
C1416 H1387 0.950 1_554 S
C1416 C1415 1.334 . S
C1416 C1417 1.287 . S
C1417 C1416 1.287 . S
C1417 C1418 1.524 . S
C1417 H1420 0.999 . S
C1418 H1388 0.950 . S
C1418 C1417 1.524 . S
C1418 C1419 1.415 . S
C1419 H1389 0.950 . S
C1419 C1414 1.363 . S
C1419 C1418 1.415 . S
H1420 C1417 0.999 . S
H1421 C1402 0.913 . S
H1422 C1440 0.951 . S
H1423 C1442 0.951 . S
H1424 C1444 0.950 . S
H1425 C1445 0.950 . S
H1426 C1447 0.950 . S
H1427 C1450 0.950 . S
H1428 C1451 0.950 . S
H1429 C1453 0.950 . S
H1430 C1454 0.950 . S
H1431 C1455 0.951 . S
H1432 C1457 0.951 . S
H1433 C1459 0.950 . S
H1434 C1460 0.950 . S
H1435 C1462 0.950 . S
H1436 C1465 0.950 . S
H1437 C1466 0.950 . S
H1438 C1468 0.950 . S
H1439 C1469 0.950 . S
C1440 H1422 0.951 . S
C1440 C1441 1.366 . S
C1440 C1442 1.388 . S
C1441 C1440 1.366 . S
C1441 C1445 1.385 . S
C1442 H1423 0.951 . S
C1442 C1440 1.388 . S
C1442 C1443 1.366 . S
C1443 C1442 1.366 . S
C1443 C1444 1.414 . S
C1443 C1446 1.499 . S
C1444 H1424 0.950 . S
C1444 C1443 1.414 . S
C1444 C1445 1.374 . S
C1445 H1425 0.950 . S
C1445 C1441 1.385 . S
C1445 C1444 1.374 . S
C1446 C1443 1.499 . S
C1446 C1447 1.373 . S
C1446 C1448 1.389 . S
C1447 H1426 0.950 . S
C1447 C1446 1.373 . S
C1447 C1463 1.377 . S
C1448 C1446 1.389 . S
C1448 C1449 1.524 . S
C1448 C1462 1.377 . S
C1449 C1448 1.524 . S
C1449 C1450 1.397 . S
C1449 C1454 1.363 . S
C1450 H1427 0.950 . S
C1450 C1449 1.397 . S
C1450 C1451 1.334 . S
C1451 H1428 0.950 . S
C1451 C1450 1.334 . S
C1451 C1452 1.287 . S
C1452 C1451 1.287 . S
C1452 C1453 1.524 . S
C1452 H1471 0.913 . S
C1453 H1429 0.950 . S
C1453 C1452 1.524 . S
C1453 C1454 1.415 . S
C1454 H1430 0.950 . S
C1454 C1449 1.363 . S
C1454 C1453 1.415 . S
C1455 H1431 0.951 . S
C1455 C1456 1.366 . S
C1455 C1457 1.388 . S
C1456 C1455 1.366 . S
C1456 C1460 1.385 . S
C1457 H1432 0.951 . S
C1457 C1455 1.388 . S
C1457 C1458 1.366 . S
C1458 C1457 1.366 . S
C1458 C1459 1.414 . S
C1458 C1461 1.499 . S
C1459 H1433 0.950 . S
C1459 C1458 1.414 . S
C1459 C1460 1.374 . S
C1460 H1434 0.950 . S
C1460 C1456 1.385 . S
C1460 C1459 1.374 . S
C1461 C1458 1.499 . S
C1461 C1462 1.373 . S
C1461 C1463 1.389 . S
C1462 H1435 0.950 . S
C1462 C1448 1.377 . S
C1462 C1461 1.373 . S
C1463 C1447 1.377 . S
C1463 C1461 1.389 . S
C1463 C1464 1.524 . S
C1464 C1463 1.524 . S
C1464 C1465 1.397 . S
C1464 C1469 1.363 . S
C1465 H1436 0.950 . S
C1465 C1464 1.397 . S
C1465 C1466 1.334 . S
C1466 H1437 0.950 . S
C1466 C1465 1.334 . S
C1466 C1467 1.287 . S
C1467 C1466 1.287 . S
C1467 C1468 1.524 . S
C1467 H1470 0.999 . S
C1468 H1438 0.950 . S
C1468 C1467 1.524 . S
C1468 C1469 1.415 . S
C1469 H1439 0.950 . S
C1469 C1464 1.363 . S
C1469 C1468 1.415 . S
H1470 C1467 0.999 . S
H1471 C1452 0.913 . S
H1472 C1490 0.951 . S
H1473 C1492 0.951 . S
H1474 C1494 0.950 . S
H1475 C1495 0.950 . S
H1476 C1497 0.950 . S
H1477 C1500 0.950 . S
H1478 C1501 0.950 . S
H1479 C1503 0.950 1_554 S
H1480 C1504 0.950 1_554 S
H1481 C1505 0.951 . S
H1482 C1507 0.951 . S
H1483 C1509 0.950 1_554 S
H1484 C1510 0.986 . S
H1485 C1512 0.950 . S
H1486 C1515 0.950 . S
H1487 C1516 0.950 . S
H1488 C1518 0.950 . S
H1489 C1519 0.950 . S
C1490 H1472 0.951 . S
C1490 C1491 1.366 . S
C1490 C1492 1.388 . S
C1491 C1490 1.366 . S
C1491 C1495 1.385 . S
C1492 H1473 0.951 . S
C1492 C1490 1.388 . S
C1492 C1493 1.366 . S
C1493 C1492 1.366 . S
C1493 C1494 1.414 . S
C1493 C1496 1.499 . S
C1494 H1474 0.950 . S
C1494 C1493 1.414 . S
C1494 C1495 1.374 . S
C1495 H1475 0.950 . S
C1495 C1491 1.385 . S
C1495 C1494 1.374 . S
C1496 C1493 1.499 . S
C1496 C1497 1.373 . S
C1496 C1498 1.389 . S
C1497 H1476 0.950 . S
C1497 C1496 1.373 . S
C1497 C1513 1.377 . S
C1498 C1496 1.389 . S
C1498 C1499 1.524 . S
C1498 C1512 1.377 . S
C1499 C1498 1.524 . S
C1499 C1500 1.397 . S
C1499 C1504 1.363 . S
C1500 H1477 0.950 . S
C1500 C1499 1.397 . S
C1500 C1501 1.334 . S
C1501 H1478 0.950 . S
C1501 C1500 1.334 . S
C1501 C1502 1.287 . S
C1502 C1501 1.287 . S
C1502 C1503 1.524 . S
C1502 H1521 0.913 . S
C1503 H1479 0.950 1_556 S
C1503 C1502 1.524 . S
C1503 C1504 1.415 . S
C1504 H1480 0.950 1_556 S
C1504 C1499 1.363 . S
C1504 C1503 1.415 . S
C1505 H1481 0.951 . S
C1505 C1506 1.366 . S
C1505 C1507 1.388 . S
C1506 C1505 1.366 . S
C1506 C1510 1.357 1_556 S
C1507 H1482 0.951 . S
C1507 C1505 1.388 . S
C1507 C1508 1.366 . S
C1508 C1507 1.366 . S
C1508 C1509 1.414 . S
C1508 C1511 1.499 . S
C1509 H1483 0.950 1_556 S
C1509 C1508 1.414 . S
C1509 C1510 1.367 1_556 S
C1510 H1484 0.986 . S
C1510 C1506 1.357 1_554 S
C1510 C1509 1.367 1_554 S
C1511 C1508 1.499 . S
C1511 C1512 1.373 . S
C1511 C1513 1.389 . S
C1512 H1485 0.950 . S
C1512 C1498 1.377 . S
C1512 C1511 1.373 . S
C1513 C1497 1.377 . S
C1513 C1511 1.389 . S
C1513 C1514 1.524 . S
C1514 C1513 1.524 . S
C1514 C1515 1.397 . S
C1514 C1519 1.363 . S
C1515 H1486 0.950 . S
C1515 C1514 1.397 . S
C1515 C1516 1.334 . S
C1516 H1487 0.950 . S
C1516 C1515 1.334 . S
C1516 C1517 1.287 . S
C1517 C1516 1.287 . S
C1517 C1518 1.524 . S
C1517 H1520 0.999 . S
C1518 H1488 0.950 . S
C1518 C1517 1.524 . S
C1518 C1519 1.415 . S
C1519 H1489 0.950 . S
C1519 C1514 1.363 . S
C1519 C1518 1.415 . S
H1520 C1517 0.999 . S
H1521 C1502 0.913 . S
H1522 C1540 0.951 . S
H1523 C1542 0.951 . S
H1524 C1544 0.950 . S
H1525 C1545 0.950 . S
H1526 C1547 0.950 . S
H1527 C1550 0.950 . S
H1528 C1551 0.950 . S
H1529 C1553 0.950 . S
H1530 C1554 0.950 . S
H1531 C1555 0.951 . S
H1532 C1557 0.951 . S
H1533 C1559 0.950 . S
H1534 C1560 0.950 . S
H1535 C1562 0.950 . S
H1536 C1565 0.950 . S
H1537 C1566 0.950 1_556 S
H1538 C1568 0.950 . S
H1539 C1569 0.950 . S
C1540 H1522 0.951 . S
C1540 C1541 1.366 . S
C1540 C1542 1.388 . S
C1541 C1540 1.366 . S
C1541 C1545 1.385 . S
C1542 H1523 0.951 . S
C1542 C1540 1.388 . S
C1542 C1543 1.366 . S
C1543 C1542 1.366 . S
C1543 C1544 1.414 . S
C1543 C1546 1.499 . S
C1544 H1524 0.950 . S
C1544 C1543 1.414 . S
C1544 C1545 1.374 . S
C1545 H1525 0.950 . S
C1545 C1541 1.385 . S
C1545 C1544 1.374 . S
C1546 C1543 1.499 . S
C1546 C1547 1.373 . S
C1546 C1548 1.389 . S
C1547 H1526 0.950 . S
C1547 C1546 1.373 . S
C1547 C1563 1.377 . S
C1548 C1546 1.389 . S
C1548 C1549 1.524 . S
C1548 C1562 1.377 . S
C1549 C1548 1.524 . S
C1549 C1550 1.397 . S
C1549 C1554 1.363 . S
C1550 H1527 0.950 . S
C1550 C1549 1.397 . S
C1550 C1551 1.334 . S
C1551 H1528 0.950 . S
C1551 C1550 1.334 . S
C1551 C1552 1.287 . S
C1552 C1551 1.287 . S
C1552 C1553 1.524 . S
C1552 H1571 0.913 . S
C1553 H1529 0.950 . S
C1553 C1552 1.524 . S
C1553 C1554 1.415 . S
C1554 H1530 0.950 . S
C1554 C1549 1.363 . S
C1554 C1553 1.415 . S
C1555 H1531 0.951 . S
C1555 C1556 1.366 . S
C1555 C1557 1.388 . S
C1556 C1555 1.366 . S
C1556 C1560 1.385 . S
C1557 H1532 0.951 . S
C1557 C1555 1.388 . S
C1557 C1558 1.366 . S
C1558 C1557 1.366 . S
C1558 C1559 1.414 . S
C1558 C1561 1.499 . S
C1559 H1533 0.950 . S
C1559 C1558 1.414 . S
C1559 C1560 1.374 . S
C1560 H1534 0.950 . S
C1560 C1556 1.385 . S
C1560 C1559 1.374 . S
C1561 C1558 1.499 . S
C1561 C1562 1.373 . S
C1561 C1563 1.389 . S
C1562 H1535 0.950 . S
C1562 C1548 1.377 . S
C1562 C1561 1.373 . S
C1563 C1547 1.377 . S
C1563 C1561 1.389 . S
C1563 C1564 1.524 . S
C1564 C1563 1.524 . S
C1564 C1565 1.397 . S
C1564 C1569 1.363 . S
C1565 H1536 0.950 . S
C1565 C1564 1.397 . S
C1565 C1566 1.334 . S
C1566 H1537 0.950 1_554 S
C1566 C1565 1.334 . S
C1566 C1567 1.287 . S
C1567 C1566 1.287 . S
C1567 C1568 1.524 . S
C1567 H1570 0.999 1_554 S
C1568 H1538 0.950 . S
C1568 C1567 1.524 . S
C1568 C1569 1.415 . S
C1569 H1539 0.950 . S
C1569 C1564 1.363 . S
C1569 C1568 1.415 . S
H1570 C1567 0.999 1_556 S
H1571 C1552 0.913 . S
H1572 C1590 0.951 . S
H1573 C1592 0.951 . S
H1574 C1594 0.950 . S
H1575 C1595 0.950 . S
H1576 C1597 0.950 . S
H1577 C1600 0.950 . S
H1578 C1601 0.950 . S
H1579 C1603 0.950 . S
H1580 C1604 0.950 . S
H1581 C1605 0.951 1_655 S
H1582 C1607 0.951 . S
H1583 C1609 0.950 . S
H1584 C1610 0.950 . S
H1585 C1612 0.950 . S
H1586 C1615 0.950 . S
H1587 C1616 0.950 . S
H1588 C1618 0.950 . S
H1589 C1619 0.950 . S
C1590 H1572 0.951 . S
C1590 C1591 1.366 . S
C1590 C1592 1.388 . S
C1591 C1590 1.366 . S
C1591 C1595 1.385 . S
C1592 H1573 0.951 . S
C1592 C1590 1.388 . S
C1592 C1593 1.366 . S
C1593 C1592 1.366 . S
C1593 C1594 1.414 . S
C1593 C1596 1.499 . S
C1594 H1574 0.950 . S
C1594 C1593 1.414 . S
C1594 C1595 1.374 . S
C1595 H1575 0.950 . S
C1595 C1591 1.385 . S
C1595 C1594 1.374 . S
C1596 C1593 1.499 . S
C1596 C1597 1.373 . S
C1596 C1598 1.389 . S
C1597 H1576 0.950 . S
C1597 C1596 1.373 . S
C1597 C1613 1.377 . S
C1598 C1596 1.389 . S
C1598 C1599 1.524 . S
C1598 C1612 1.377 . S
C1599 C1598 1.524 . S
C1599 C1600 1.397 . S
C1599 C1604 1.363 . S
C1600 H1577 0.950 . S
C1600 C1599 1.397 . S
C1600 C1601 1.334 . S
C1601 H1578 0.950 . S
C1601 C1600 1.334 . S
C1601 C1602 1.287 . S
C1602 C1601 1.287 . S
C1602 C1603 1.524 . S
C1602 H1621 0.913 . S
C1603 H1579 0.950 . S
C1603 C1602 1.524 . S
C1603 C1604 1.415 . S
C1604 H1580 0.950 . S
C1604 C1599 1.363 . S
C1604 C1603 1.415 . S
C1605 H1581 0.951 1_455 S
C1605 C1606 1.366 . S
C1605 C1607 1.388 . S
C1606 C1605 1.366 . S
C1606 C1610 1.385 . S
C1607 H1582 0.951 . S
C1607 C1605 1.388 . S
C1607 C1608 1.366 . S
C1608 C1607 1.366 . S
C1608 C1609 1.414 . S
C1608 C1611 1.499 . S
C1609 H1583 0.950 . S
C1609 C1608 1.414 . S
C1609 C1610 1.374 . S
C1610 H1584 0.950 . S
C1610 C1606 1.385 . S
C1610 C1609 1.374 . S
C1611 C1608 1.499 . S
C1611 C1612 1.373 . S
C1611 C1613 1.389 . S
C1612 H1585 0.950 . S
C1612 C1598 1.377 . S
C1612 C1611 1.373 . S
C1613 C1597 1.377 . S
C1613 C1611 1.389 . S
C1613 C1614 1.524 . S
C1614 C1613 1.524 . S
C1614 C1615 1.397 . S
C1614 C1619 1.363 . S
C1615 H1586 0.950 . S
C1615 C1614 1.397 . S
C1615 C1616 1.334 . S
C1616 H1587 0.950 . S
C1616 C1615 1.334 . S
C1616 C1617 1.267 1_455 S
C1617 C1616 1.267 1_655 S
C1617 C1618 1.527 . S
C1617 H1620 1.021 . S
C1618 H1588 0.950 . S
C1618 C1617 1.527 . S
C1618 C1619 1.415 1_655 S
C1619 H1589 0.950 . S
C1619 C1614 1.363 . S
C1619 C1618 1.415 1_455 S
H1620 C1617 1.021 . S
H1621 C1602 0.913 . S
H1622 C1640 0.951 . S
H1623 C1642 0.951 . S
H1624 C1644 0.950 . S
H1625 C1645 0.950 . S
H1626 C1647 0.950 . S
H1627 C1650 0.950 . S
H1628 C1651 0.950 . S
H1629 C1653 0.950 . S
H1630 C1654 0.950 . S
H1631 C1655 0.951 . S
H1632 C1657 0.951 . S
H1633 C1659 0.950 . S
H1634 C1660 0.950 . S
H1635 C1662 0.950 . S
H1636 C1665 0.950 . S
H1637 C1666 0.950 . S
H1638 C1668 0.950 . S
H1639 C1669 0.950 . S
C1640 H1622 0.951 . S
C1640 C1641 1.366 . S
C1640 C1642 1.388 . S
C1641 C1640 1.366 . S
C1641 C1645 1.385 . S
C1642 H1623 0.951 . S
C1642 C1640 1.388 . S
C1642 C1643 1.366 . S
C1643 C1642 1.366 . S
C1643 C1644 1.414 . S
C1643 C1646 1.499 . S
C1644 H1624 0.950 . S
C1644 C1643 1.414 . S
C1644 C1645 1.374 . S
C1645 H1625 0.950 . S
C1645 C1641 1.385 . S
C1645 C1644 1.374 . S
C1646 C1643 1.499 . S
C1646 C1647 1.373 . S
C1646 C1648 1.389 . S
C1647 H1626 0.950 . S
C1647 C1646 1.373 . S
C1647 C1663 1.377 . S
C1648 C1646 1.389 . S
C1648 C1649 1.524 . S
C1648 C1662 1.377 . S
C1649 C1648 1.524 . S
C1649 C1650 1.397 . S
C1649 C1654 1.363 . S
C1650 H1627 0.950 . S
C1650 C1649 1.397 . S
C1650 C1651 1.334 . S
C1651 H1628 0.950 . S
C1651 C1650 1.334 . S
C1651 C1652 1.287 . S
C1652 C1651 1.287 . S
C1652 C1653 1.524 . S
C1652 H1671 0.913 . S
C1653 H1629 0.950 . S
C1653 C1652 1.524 . S
C1653 C1654 1.415 . S
C1654 H1630 0.950 . S
C1654 C1649 1.363 . S
C1654 C1653 1.415 . S
C1655 H1631 0.951 . S
C1655 C1656 1.366 . S
C1655 C1657 1.388 . S
C1656 C1655 1.366 . S
C1656 C1660 1.385 . S
C1657 H1632 0.951 . S
C1657 C1655 1.388 . S
C1657 C1658 1.366 . S
C1658 C1657 1.366 . S
C1658 C1659 1.414 . S
C1658 C1661 1.499 . S
C1659 H1633 0.950 . S
C1659 C1658 1.414 . S
C1659 C1660 1.374 . S
C1660 H1634 0.950 . S
C1660 C1656 1.385 . S
C1660 C1659 1.374 . S
C1661 C1658 1.499 . S
C1661 C1662 1.373 . S
C1661 C1663 1.389 . S
C1662 H1635 0.950 . S
C1662 C1648 1.377 . S
C1662 C1661 1.373 . S
C1663 C1647 1.377 . S
C1663 C1661 1.389 . S
C1663 C1664 1.524 . S
C1664 C1663 1.524 . S
C1664 C1665 1.397 . S
C1664 C1669 1.363 . S
C1665 H1636 0.950 . S
C1665 C1664 1.397 . S
C1665 C1666 1.334 . S
C1666 H1637 0.950 . S
C1666 C1665 1.334 . S
C1666 C1667 1.287 . S
C1667 C1666 1.287 . S
C1667 C1668 1.524 . S
C1667 H1670 0.999 . S
C1668 H1638 0.950 . S
C1668 C1667 1.524 . S
C1668 C1669 1.415 . S
C1669 H1639 0.950 . S
C1669 C1664 1.363 . S
C1669 C1668 1.415 . S
H1670 C1667 0.999 . S
H1671 C1652 0.913 . S
C491 C1 2.957 . S
C506 C331 2.933 . S
C541 C40 2.424 . S
C556 C362 2.482 . S
C606 C401 1.288 . S
C591 C99 1.328 . S
C641 C118 0.369 . S
C656 C438 0.388 . S
C706 C361 2.859 . S
C691 C16 2.940 . S
C756 C318 1.626 . S
C741 C60 1.613 . S
C806 C450 1.333 . S
C791 C79 1.381 . S
C856 C407 0.887 . S
C841 C138 0.894 . S
C891 C21 2.287 . S
C906 C451 2.284 . S
C956 C367 1.286 . S
C941 C94 1.285 . S
C991 C133 0.542 . S
C1006 C330 0.585 . S
C1041 C55 2.597 . S
C1056 C402 2.621 . S
C1106 C322 2.938 . S
C1091 C157 2.961 . S
C1141 C196 2.413 . S
C1156 C371 2.482 . S
C1191 C255 1.321 . S
C1206 C410 1.287 . S
C1241 C289 0.362 . S
C1256 C447 0.384 . S
C1291 C172 2.940 . S
C1306 C370 2.858 . S
C1356 C327 1.628 . S
C1341 C216 1.604 . S
C1406 C441 1.336 . S
C1391 C235 1.381 . S
C1456 C398 0.885 . S
C1441 C294 0.891 . S
C1491 C177 2.284 . S
C1506 C442 2.284 . S
C1556 C358 1.288 . S
C1541 C250 1.287 . S
C1606 C321 0.587 . S
C1591 C274 0.546 . S
C1641 C211 2.596 . S
C1656 C411 2.615 . S
