# Generated by pormake.
# Topology ctn, (3,4)-cn, num edge types: 1
# Building blocks:
#     Node 0, Type 0, BuildingBlock: MIDCAF_clean_linker_0, # of connection points: 3
#     Node 1, Type 0, BuildingBlock: MIDCAF_clean_linker_0, # of connection points: 3
#     Node 2, Type 0, BuildingBlock: MIDCAF_clean_linker_0, # of connection points: 3
#     Node 3, Type 0, BuildingBlock: MIDCAF_clean_linker_0, # of connection points: 3
#     Node 4, Type 0, BuildingBlock: MIDCAF_clean_linker_0, # of connection points: 3
#     Node 5, Type 0, BuildingBlock: MIDCAF_clean_linker_0, # of connection points: 3
#     Node 6, Type 0, BuildingBlock: MIDCAF_clean_linker_0, # of connection points: 3
#     Node 7, Type 0, BuildingBlock: MIDCAF_clean_linker_0, # of connection points: 3
#     Node 8, Type 0, BuildingBlock: MIDCAF_clean_linker_0, # of connection points: 3
#     Node 9, Type 0, BuildingBlock: MIDCAF_clean_linker_0, # of connection points: 3
#     Node 10, Type 0, BuildingBlock: MIDCAF_clean_linker_0, # of connection points: 3
#     Node 11, Type 0, BuildingBlock: MIDCAF_clean_linker_0, # of connection points: 3
#     Node 12, Type 0, BuildingBlock: MIDCAF_clean_linker_0, # of connection points: 3
#     Node 13, Type 0, BuildingBlock: MIDCAF_clean_linker_0, # of connection points: 3
#     Node 14, Type 0, BuildingBlock: MIDCAF_clean_linker_0, # of connection points: 3
#     Node 15, Type 0, BuildingBlock: MIDCAF_clean_linker_0, # of connection points: 3
#     Node 16, Type 1, BuildingBlock: AZAVOO_clean_sbu_0, # of connection points: 4
#     Node 17, Type 1, BuildingBlock: AZAVOO_clean_sbu_0, # of connection points: 4
#     Node 18, Type 1, BuildingBlock: AZAVOO_clean_sbu_0, # of connection points: 4
#     Node 19, Type 1, BuildingBlock: AZAVOO_clean_sbu_0, # of connection points: 4
#     Node 20, Type 1, BuildingBlock: AZAVOO_clean_sbu_0, # of connection points: 4
#     Node 21, Type 1, BuildingBlock: AZAVOO_clean_sbu_0, # of connection points: 4
#     Node 22, Type 1, BuildingBlock: AZAVOO_clean_sbu_0, # of connection points: 4
#     Node 23, Type 1, BuildingBlock: AZAVOO_clean_sbu_0, # of connection points: 4
#     Node 24, Type 1, BuildingBlock: AZAVOO_clean_sbu_0, # of connection points: 4
#     Node 25, Type 1, BuildingBlock: AZAVOO_clean_sbu_0, # of connection points: 4
#     Node 26, Type 1, BuildingBlock: AZAVOO_clean_sbu_0, # of connection points: 4
#     Node 27, Type 1, BuildingBlock: AZAVOO_clean_sbu_0, # of connection points: 4
#     Edge 28, Type (0, 1), BuildingBlock: ZUJKAS_clean_linker_0, # of connection points: 2
#     Edge 29, Type (0, 1), BuildingBlock: ZUJKAS_clean_linker_0, # of connection points: 2
#     Edge 30, Type (0, 1), BuildingBlock: ZUJKAS_clean_linker_0, # of connection points: 2
#     Edge 31, Type (0, 1), BuildingBlock: ZUJKAS_clean_linker_0, # of connection points: 2
#     Edge 32, Type (0, 1), BuildingBlock: ZUJKAS_clean_linker_0, # of connection points: 2
#     Edge 33, Type (0, 1), BuildingBlock: ZUJKAS_clean_linker_0, # of connection points: 2
#     Edge 34, Type (0, 1), BuildingBlock: ZUJKAS_clean_linker_0, # of connection points: 2
#     Edge 35, Type (0, 1), BuildingBlock: ZUJKAS_clean_linker_0, # of connection points: 2
#     Edge 36, Type (0, 1), BuildingBlock: ZUJKAS_clean_linker_0, # of connection points: 2
#     Edge 37, Type (0, 1), BuildingBlock: ZUJKAS_clean_linker_0, # of connection points: 2
#     Edge 38, Type (0, 1), BuildingBlock: ZUJKAS_clean_linker_0, # of connection points: 2
#     Edge 39, Type (0, 1), BuildingBlock: ZUJKAS_clean_linker_0, # of connection points: 2
#     Edge 40, Type (0, 1), BuildingBlock: ZUJKAS_clean_linker_0, # of connection points: 2
#     Edge 41, Type (0, 1), BuildingBlock: ZUJKAS_clean_linker_0, # of connection points: 2
#     Edge 42, Type (0, 1), BuildingBlock: ZUJKAS_clean_linker_0, # of connection points: 2
#     Edge 43, Type (0, 1), BuildingBlock: ZUJKAS_clean_linker_0, # of connection points: 2
#     Edge 44, Type (0, 1), BuildingBlock: ZUJKAS_clean_linker_0, # of connection points: 2
#     Edge 45, Type (0, 1), BuildingBlock: ZUJKAS_clean_linker_0, # of connection points: 2
#     Edge 46, Type (0, 1), BuildingBlock: ZUJKAS_clean_linker_0, # of connection points: 2
#     Edge 47, Type (0, 1), BuildingBlock: ZUJKAS_clean_linker_0, # of connection points: 2
#     Edge 48, Type (0, 1), BuildingBlock: ZUJKAS_clean_linker_0, # of connection points: 2
#     Edge 49, Type (0, 1), BuildingBlock: ZUJKAS_clean_linker_0, # of connection points: 2
#     Edge 50, Type (0, 1), BuildingBlock: ZUJKAS_clean_linker_0, # of connection points: 2
#     Edge 51, Type (0, 1), BuildingBlock: ZUJKAS_clean_linker_0, # of connection points: 2
#     Edge 52, Type (0, 1), BuildingBlock: ZUJKAS_clean_linker_0, # of connection points: 2
#     Edge 53, Type (0, 1), BuildingBlock: ZUJKAS_clean_linker_0, # of connection points: 2
#     Edge 54, Type (0, 1), BuildingBlock: ZUJKAS_clean_linker_0, # of connection points: 2
#     Edge 55, Type (0, 1), BuildingBlock: ZUJKAS_clean_linker_0, # of connection points: 2
#     Edge 56, Type (0, 1), BuildingBlock: ZUJKAS_clean_linker_0, # of connection points: 2
#     Edge 57, Type (0, 1), BuildingBlock: ZUJKAS_clean_linker_0, # of connection points: 2
#     Edge 58, Type (0, 1), BuildingBlock: ZUJKAS_clean_linker_0, # of connection points: 2
#     Edge 59, Type (0, 1), BuildingBlock: ZUJKAS_clean_linker_0, # of connection points: 2
#     Edge 60, Type (0, 1), BuildingBlock: ZUJKAS_clean_linker_0, # of connection points: 2
#     Edge 61, Type (0, 1), BuildingBlock: ZUJKAS_clean_linker_0, # of connection points: 2
#     Edge 62, Type (0, 1), BuildingBlock: ZUJKAS_clean_linker_0, # of connection points: 2
#     Edge 63, Type (0, 1), BuildingBlock: ZUJKAS_clean_linker_0, # of connection points: 2
#     Edge 64, Type (0, 1), BuildingBlock: ZUJKAS_clean_linker_0, # of connection points: 2
#     Edge 65, Type (0, 1), BuildingBlock: ZUJKAS_clean_linker_0, # of connection points: 2
#     Edge 66, Type (0, 1), BuildingBlock: ZUJKAS_clean_linker_0, # of connection points: 2
#     Edge 67, Type (0, 1), BuildingBlock: ZUJKAS_clean_linker_0, # of connection points: 2
#     Edge 68, Type (0, 1), BuildingBlock: ZUJKAS_clean_linker_0, # of connection points: 2
#     Edge 69, Type (0, 1), BuildingBlock: ZUJKAS_clean_linker_0, # of connection points: 2
#     Edge 70, Type (0, 1), BuildingBlock: ZUJKAS_clean_linker_0, # of connection points: 2
#     Edge 71, Type (0, 1), BuildingBlock: ZUJKAS_clean_linker_0, # of connection points: 2
#     Edge 72, Type (0, 1), BuildingBlock: ZUJKAS_clean_linker_0, # of connection points: 2
#     Edge 73, Type (0, 1), BuildingBlock: ZUJKAS_clean_linker_0, # of connection points: 2
#     Edge 74, Type (0, 1), BuildingBlock: ZUJKAS_clean_linker_0, # of connection points: 2
#     Edge 75, Type (0, 1), BuildingBlock: ZUJKAS_clean_linker_0, # of connection points: 2
# Relax obj value: 0.002
# Max RMSD: 0.044
# Mean RMSD: 0.023
data_MOF--net-ctn--node1-AZAVOO_clean_sbu_0--node2-MIDCAF_clean_linker_0--edge1-ZUJKAS_clean_linker_0
_symmetry_space_group_name_H-M    P1
_symmetry_Int_Tables_number       1
_symmetry_cell_setting            triclinic
loop_
_symmetry_equiv_pos_as_xyz
'x, y, z'
_cell_length_a     82.804603
_cell_length_b     83.949195
_cell_length_c     83.93022
_cell_angle_alpha  90.135916
_cell_angle_beta   92.488972
_cell_angle_gamma 92.781159
loop_
_atom_site_label
_atom_site_type_symbol
_atom_site_fract_x
_atom_site_fract_y
_atom_site_fract_z
_atom_type_partial_charge
C0 C 0.98818 0.02422 0.05537 0.0
C1 C 0.99229 0.01345 0.06751 0.0
C2 C 0.00484 0.00312 0.06511 0.0
C3 C 0.01336 0.00385 0.05108 0.0
H4 H 0.04839 0.98155 0.02606 0.0
H5 H 0.07121 0.9648 0.02231 0.0
H6 H 0.08598 0.99423 0.98289 0.0
H7 H 0.06336 0.01106 0.98663 0.0
H8 H 0.04049 0.03686 0.97325 0.0
H9 H 0.03851 0.06045 0.95664 0.0
H10 H 0.00475 0.07953 0.98866 0.0
H11 H 0.00638 0.05578 0.00508 0.0
H12 H 0.99329 0.03359 0.03241 0.0
H13 H 0.97838 0.03214 0.05671 0.0
H14 H 0.00841 0.99478 0.07428 0.0
H15 H 0.02318 0.99594 0.04979 0.0
N16 N 0.03121 0.00643 0.0221 0.0
N17 N 0.03779 0.02048 0.99898 0.0
N18 N 0.01672 0.02866 0.01432 0.0
C19 C 0.04052 0.00831 0.00922 0.0
C20 C 0.02591 0.03069 0.0014 0.0
C21 C 0.01923 0.01654 0.0247 0.0
C22 C 0.05401 0.99771 0.00669 0.0
C23 C 0.05646 0.98445 0.01656 0.0
C24 C 0.0695 0.9748 0.01438 0.0
C25 C 0.08041 0.97825 0.00234 0.0
C26 C 0.0779 0.9914 0.9924 0.0
C27 C 0.06484 0.00099 0.9945 0.0
C28 C 0.02371 0.04445 0.99061 0.0
C29 C 0.03253 0.04601 0.97671 0.0
C30 C 0.03145 0.05958 0.9672 0.0
C31 C 0.02158 0.07195 0.97139 0.0
C32 C 0.01234 0.07015 0.98499 0.0
C33 C 0.01336 0.05655 0.99447 0.0
C34 C 0.00955 0.01495 0.03914 0.0
C35 C 0.9967 0.02498 0.04138 0.0
C36 C 0.27768 0.67049 0.24451 0.0
C37 C 0.26424 0.66801 0.23383 0.0
C38 C 0.26196 0.67885 0.2213 0.0
C39 C 0.27291 0.69183 0.21944 0.0
H40 H 0.27923 0.73281 0.19429 0.0
H41 H 0.27454 0.75103 0.17236 0.0
H42 H 0.32236 0.77308 0.18103 0.0
H43 H 0.32697 0.75507 0.20335 0.0
H44 H 0.34607 0.74648 0.23579 0.0
H45 H 0.36962 0.7502 0.25405 0.0
H46 H 0.35565 0.70671 0.27835 0.0
H47 H 0.33193 0.7031 0.26037 0.0
H48 H 0.29894 0.68491 0.25104 0.0
H49 H 0.27988 0.66224 0.25418 0.0
H50 H 0.25162 0.67738 0.21298 0.0
H51 H 0.27074 0.69992 0.20962 0.0
N52 N 0.29569 0.71854 0.21598 0.0
N53 N 0.31977 0.73287 0.2237 0.0
N54 N 0.3116 0.70995 0.23775 0.0
C55 C 0.3064 0.73103 0.21377 0.0
C56 C 0.32245 0.72239 0.23574 0.0
C57 C 0.29818 0.70794 0.22791 0.0
C58 C 0.30352 0.74239 0.20058 0.0
C59 C 0.28878 0.74153 0.19158 0.0
C60 C 0.2861 0.75194 0.17892 0.0
C61 C 0.29812 0.76343 0.17484 0.0
C62 C 0.31279 0.76446 0.18395 0.0
C63 C 0.31546 0.75407 0.1967 0.0
C64 C 0.33702 0.72451 0.24661 0.0
C65 C 0.34799 0.73768 0.24501 0.0
C66 C 0.36157 0.73979 0.25543 0.0
C67 C 0.36449 0.72878 0.26769 0.0
C68 C 0.35361 0.71555 0.26919 0.0
C69 C 0.34004 0.71344 0.2588 0.0
C70 C 0.28644 0.69427 0.23005 0.0
C71 C 0.28867 0.68345 0.24264 0.0
C72 C 0.00038 0.42921 0.01491 0.0
C73 C 0.98868 0.42441 0.00302 0.0
C74 C 0.97381 0.4318 0.00226 0.0
C75 C 0.97067 0.44372 0.0132 0.0
H76 H 0.93898 0.47847 0.02149 0.0
H77 H 0.91675 0.49588 0.01594 0.0
H78 H 0.93231 0.52494 0.05681 0.0
H79 H 0.95468 0.50769 0.06233 0.0
H80 H 0.98203 0.49501 0.08631 0.0
H81 H 0.99994 0.49915 0.10993 0.0
H82 H 0.03115 0.4637 0.09282 0.0
H83 H 0.01346 0.45967 0.06912 0.0
H84 H 0.00644 0.44434 0.03504 0.0
H85 H 0.01189 0.42361 0.01587 0.0
H86 H 0.96462 0.42842 0.99313 0.0
H87 H 0.95906 0.44913 0.01228 0.0
N88 N 0.96587 0.46999 0.03465 0.0
N89 N 0.97255 0.48369 0.05859 0.0
N90 N 0.98861 0.46323 0.05033 0.0
C91 C 0.96266 0.48147 0.04533 0.0
C92 C 0.98553 0.47459 0.06121 0.0
C93 C 0.97883 0.46083 0.03704 0.0
C94 C 0.94872 0.49169 0.04233 0.0
C95 C 0.93768 0.48854 0.02935 0.0
C96 C 0.92486 0.49846 0.0262 0.0
C97 C 0.92281 0.51181 0.0359 0.0
C98 C 0.93369 0.51486 0.04899 0.0
C99 C 0.94647 0.50489 0.0522 0.0
C100 C 0.99629 0.47703 0.07572 0.0
C101 C 0.99271 0.48809 0.08755 0.0
C102 C 0.00292 0.4904 0.10116 0.0
C103 C 0.01698 0.48178 0.10324 0.0
C104 C 0.02052 0.47068 0.09147 0.0
C105 C 0.0103 0.46832 0.07791 0.0
C106 C 0.98228 0.44839 0.02525 0.0
C107 C 0.99719 0.44101 0.02596 0.0
C108 C 0.73395 0.78536 0.16428 0.0
C109 C 0.72708 0.76989 0.16641 0.0
C110 C 0.7177 0.76692 0.17976 0.0
C111 C 0.71529 0.77908 0.19069 0.0
H112 H 0.68343 0.7926 0.22437 0.0
H113 H 0.66194 0.78989 0.24322 0.0
H114 H 0.67701 0.83574 0.26377 0.0
H115 H 0.69868 0.83838 0.24517 0.0
H116 H 0.73213 0.85432 0.23612 0.0
H117 H 0.75157 0.87701 0.23842 0.0
H118 H 0.77091 0.86434 0.19341 0.0
H119 H 0.75143 0.84161 0.19099 0.0
H120 H 0.73722 0.80921 0.1733 0.0
H121 H 0.74097 0.78823 0.15399 0.0
H122 H 0.71242 0.75512 0.18196 0.0
H123 H 0.70811 0.77631 0.2009 0.0
N124 N 0.70809 0.80576 0.2109 0.0
N125 N 0.71653 0.83033 0.22255 0.0
N126 N 0.73039 0.82041 0.20118 0.0
C127 C 0.70613 0.8173 0.22193 0.0
C128 C 0.72869 0.83199 0.21224 0.0
C129 C 0.72017 0.80723 0.20047 0.0
C130 C 0.69286 0.81569 0.23324 0.0
C131 C 0.68218 0.80213 0.23289 0.0
C132 C 0.66978 0.80061 0.24364 0.0
C133 C 0.66776 0.8126 0.255 0.0
C134 C 0.67836 0.82619 0.2553 0.0
C135 C 0.69076 0.82773 0.24456 0.0
C136 C 0.74021 0.84608 0.21337 0.0
C137 C 0.74046 0.85637 0.22665 0.0
C138 C 0.75166 0.86934 0.22804 0.0
C139 C 0.76278 0.87242 0.21613 0.0
C140 C 0.76239 0.86232 0.20272 0.0
C141 C 0.75128 0.84924 0.20139 0.0
C142 C 0.72236 0.79446 0.18866 0.0
C143 C 0.73172 0.79746 0.17532 0.0
C144 C 0.05089 0.93645 0.51356 0.0
C145 C 0.03568 0.92826 0.5133 0.0
C146 C 0.02298 0.93403 0.50365 0.0
C147 C 0.02549 0.94761 0.4943 0.0
H148 H 0.00764 0.96882 0.45359 0.0
H149 H 0.98851 0.97414 0.43164 0.0
H150 H 0.01515 0.0183 0.42202 0.0
H151 H 0.03429 0.01313 0.44409 0.0
H152 H 0.06671 0.02221 0.46486 0.0
H153 H 0.09105 0.03926 0.46965 0.0
H154 H 0.11132 0.00326 0.5002 0.0
H155 H 0.0868 0.98641 0.49582 0.0
H156 H 0.06527 0.9561 0.50479 0.0
H157 H 0.06086 0.93233 0.52099 0.0
H158 H 0.01117 0.92787 0.50309 0.0
H159 H 0.01546 0.95165 0.48692 0.0
N160 N 0.03227 0.97385 0.47289 0.0
N161 N 0.0484 0.99628 0.46595 0.0
N162 N 0.05714 0.97956 0.4866 0.0
C163 C 0.03466 0.98689 0.46356 0.0
C164 C 0.05971 0.99269 0.47745 0.0
C165 C 0.04343 0.97011 0.48445 0.0
C166 C 0.0226 0.99051 0.45061 0.0
C167 C 0.00942 0.97973 0.44689 0.0
C168 C 0.99847 0.98273 0.43425 0.0
C169 C 0.00035 0.9966 0.42506 0.0
C170 C 0.0133 0.00757 0.42897 0.0
C171 C 0.02433 0.00454 0.44157 0.0
C172 C 0.07472 0.00294 0.48 0.0
C173 C 0.07636 0.01789 0.47258 0.0
C174 C 0.09039 0.02765 0.47526 0.0
C175 C 0.10318 0.02266 0.48533 0.0
C176 C 0.10161 0.00762 0.49259 0.0
C177 C 0.08755 0.99791 0.49001 0.0
C178 C 0.04073 0.9558 0.4945 0.0
C179 C 0.05337 0.95011 0.50433 0.0
C180 C 0.22473 0.7409 0.82664 0.0
C181 C 0.21366 0.75281 0.82883 0.0
C182 C 0.20039 0.7538 0.81792 0.0
C183 C 0.19819 0.74308 0.80516 0.0
H184 H 0.16646 0.72974 0.76871 0.0
H185 H 0.14399 0.73289 0.74962 0.0
H186 H 0.16336 0.69803 0.71865 0.0
H187 H 0.1857 0.69451 0.73801 0.0
H188 H 0.21521 0.67409 0.75224 0.0
H189 H 0.23415 0.65289 0.74996 0.0
H190 H 0.25959 0.66942 0.79335 0.0
H191 H 0.24064 0.69036 0.79583 0.0
H192 H 0.23124 0.72108 0.81269 0.0
H193 H 0.23495 0.73967 0.83496 0.0
H194 H 0.19174 0.76295 0.8192 0.0
H195 H 0.1878 0.7442 0.79701 0.0
N196 N 0.19414 0.72073 0.77889 0.0
N197 N 0.20227 0.69839 0.76501 0.0
N198 N 0.21705 0.7076 0.78797 0.0
C199 C 0.1918 0.71025 0.76655 0.0
C200 C 0.21493 0.69697 0.77573 0.0
C201 C 0.20674 0.71952 0.78963 0.0
C202 C 0.17797 0.7119 0.75491 0.0
C203 C 0.16597 0.72271 0.75785 0.0
C204 C 0.15309 0.72459 0.74684 0.0
C205 C 0.15189 0.7158 0.73253 0.0
C206 C 0.16379 0.70487 0.72963 0.0
C207 C 0.17666 0.70291 0.74071 0.0
C208 C 0.22635 0.68399 0.77422 0.0
C209 C 0.2248 0.67319 0.76133 0.0
C210 C 0.23571 0.66107 0.75997 0.0
C211 C 0.24835 0.65943 0.7715 0.0
C212 C 0.24984 0.67018 0.7844 0.0
C213 C 0.239 0.6823 0.78574 0.0
C214 C 0.20919 0.73107 0.80304 0.0
C215 C 0.22252 0.73015 0.81391 0.0
C216 C 0.99014 0.56506 0.49307 0.0
C217 C 0.97877 0.56978 0.50389 0.0
C218 C 0.96426 0.56053 0.50504 0.0
C219 C 0.96109 0.54702 0.49544 0.0
H220 H 0.92743 0.51096 0.48635 0.0
H221 H 0.90328 0.49403 0.49028 0.0
H222 H 0.91749 0.46171 0.45391 0.0
H223 H 0.94184 0.47852 0.45004 0.0
H224 H 0.97234 0.48854 0.42954 0.0
H225 H 0.98999 0.484 0.4076 0.0
H226 H 0.0207 0.52473 0.42286 0.0
H227 H 0.00306 0.52947 0.44455 0.0
H228 H 0.99596 0.54838 0.47517 0.0
H229 H 0.00155 0.57177 0.49205 0.0
H230 H 0.95513 0.56394 0.51308 0.0
H231 H 0.94968 0.54033 0.49652 0.0
N232 N 0.95512 0.51901 0.47556 0.0
N233 N 0.9617 0.50318 0.45393 0.0
N234 N 0.97867 0.52519 0.46192 0.0
C235 C 0.95154 0.50632 0.46574 0.0
C236 C 0.97529 0.51259 0.45194 0.0
C237 C 0.96867 0.52848 0.47377 0.0
C238 C 0.93667 0.49611 0.4679 0.0
C239 C 0.92546 0.50026 0.47915 0.0
C240 C 0.91152 0.49062 0.48135 0.0
C241 C 0.90846 0.47655 0.4724 0.0
C242 C 0.9196 0.47241 0.4611 0.0
C243 C 0.93352 0.4821 0.45884 0.0
C244 C 0.9862 0.50942 0.43882 0.0
C245 C 0.98286 0.49653 0.42824 0.0
C246 C 0.99302 0.49387 0.41569 0.0
C247 C 0.00669 0.50407 0.41342 0.0
C248 C 0.01011 0.51682 0.4241 0.0
C249 C 1.00001 0.51947 0.43663 0.0
C250 C 0.97233 0.54246 0.4844 0.0
C251 C 0.98695 0.55158 0.48343 0.0
C252 C 0.84602 0.76486 0.75205 0.0
C253 C 0.84932 0.77746 0.7415 0.0
C254 C 0.83916 0.79039 0.741 0.0
C255 C 0.82591 0.79066 0.75075 0.0
H256 H 0.7855 0.81526 0.75827 0.0
H257 H 0.7666 0.83647 0.75543 0.0
H258 H 0.7388 0.81594 0.79331 0.0
H259 H 0.75754 0.79453 0.79605 0.0
H260 H 0.77256 0.76759 0.81704 0.0
H261 H 0.77025 0.74892 0.83893 0.0
H262 H 0.80803 0.72164 0.81997 0.0
H263 H 0.81072 0.74065 0.79824 0.0
H264 H 0.83068 0.75524 0.76985 0.0
H265 H 0.85373 0.7548 0.7528 0.0
H266 H 0.84128 0.80019 0.73286 0.0
H267 H 0.81831 0.80079 0.74998 0.0
N268 N 0.79766 0.78991 0.76986 0.0
N269 N 0.78303 0.77922 0.79093 0.0
N270 N 0.80648 0.76722 0.78324 0.0
C271 C 0.78484 0.79041 0.7794 0.0
C272 C 0.79377 0.76758 0.79294 0.0
C273 C 0.80852 0.77836 0.77168 0.0
C274 C 0.77312 0.80317 0.77744 0.0
C275 C 0.77535 0.81519 0.76599 0.0
C276 C 0.76455 0.82742 0.7644 0.0
C277 C 0.75123 0.82793 0.77419 0.0
C278 C 0.74885 0.81581 0.78548 0.0
C279 C 0.75968 0.80358 0.7871 0.0
C280 C 0.79188 0.7557 0.80586 0.0
C281 C 0.78035 0.75758 0.81745 0.0
C282 C 0.77893 0.74678 0.82999 0.0
C283 C 0.78892 0.73372 0.83123 0.0
C284 C 0.80029 0.73168 0.81951 0.0
C285 C 0.80178 0.74255 0.80699 0.0
C286 C 0.82257 0.77805 0.76131 0.0
C287 C 0.83284 0.76517 0.76187 0.0
C288 C 0.34757 0.26803 0.25491 0.0
C289 C 0.3496 0.27982 0.24321 0.0
C290 C 0.33862 0.29206 0.24211 0.0
C291 C 0.32575 0.29237 0.25233 0.0
H292 H 0.28743 0.31905 0.26446 0.0
H293 H 0.26773 0.33954 0.26191 0.0
H294 H 0.2363 0.31278 0.29301 0.0
H295 H 0.25625 0.29254 0.296 0.0
H296 H 0.27381 0.26836 0.31977 0.0
H297 H 0.2723 0.24977 0.34189 0.0
H298 H 0.31295 0.22553 0.32462 0.0
H299 H 0.31445 0.24406 0.30231 0.0
H300 H 0.33354 0.25903 0.27398 0.0
H301 H 0.35594 0.25855 0.25618 0.0
H302 H 0.33976 0.30122 0.23311 0.0
H303 H 0.31744 0.3019 0.25103 0.0
N304 N 0.29846 0.29176 0.27278 0.0
N305 N 0.28442 0.28077 0.29411 0.0
N306 N 0.30824 0.26956 0.28634 0.0
C307 C 0.28572 0.29189 0.28245 0.0
C308 C 0.29562 0.26957 0.29616 0.0
C309 C 0.30976 0.28061 0.27461 0.0
C310 C 0.27348 0.30415 0.28048 0.0
C311 C 0.2763 0.31749 0.27073 0.0
C312 C 0.26493 0.32922 0.26918 0.0
C313 C 0.25038 0.32784 0.27724 0.0
C314 C 0.24748 0.31439 0.28684 0.0
C315 C 0.25891 0.30272 0.28849 0.0
C316 C 0.29432 0.2578 0.30926 0.0
C317 C 0.28241 0.25905 0.32058 0.0
C318 C 0.28158 0.24844 0.33334 0.0
C319 C 0.29258 0.23627 0.33505 0.0
C320 C 0.30425 0.23474 0.32355 0.0
C321 C 0.30515 0.24543 0.31082 0.0
C322 C 0.32359 0.28048 0.26394 0.0
C323 C 0.33474 0.26836 0.26517 0.0
C324 C 0.50656 0.93755 0.51261 0.0
C325 C 0.49443 0.92943 0.50303 0.0
C326 C 0.4783 0.93373 0.50422 0.0
C327 C 0.47439 0.94564 0.51486 0.0
H328 H 0.44285 0.98287 0.52 0.0
H329 H 0.41793 0.99692 0.5163 0.0
H330 H 0.42524 0.01718 0.56355 0.0
H331 H 0.45012 0.00304 0.5674 0.0
H332 H 0.48308 0.99777 0.58704 0.0
H333 H 0.50096 0.0025 0.61061 0.0
H334 H 0.53554 0.97163 0.59127 0.0
H335 H 0.5179 0.96707 0.56765 0.0
H336 H 0.51223 0.95513 0.53078 0.0
H337 H 0.51915 0.93486 0.51181 0.0
H338 H 0.46856 0.92759 0.4973 0.0
H339 H 0.46182 0.94843 0.51565 0.0
N340 N 0.46807 0.97278 0.53503 0.0
N341 N 0.47397 0.98643 0.55916 0.0
N342 N 0.49216 0.96844 0.54973 0.0
C343 C 0.4639 0.98345 0.54615 0.0
C344 C 0.48814 0.97897 0.56104 0.0
C345 C 0.48219 0.96525 0.53672 0.0
C346 C 0.44856 0.99181 0.54401 0.0
C347 C 0.43916 0.99026 0.52966 0.0
C348 C 0.4249 0.99839 0.52748 0.0
C349 C 0.41963 0.00816 0.53962 0.0
C350 C 0.4289 0.0096 0.55403 0.0
C351 C 0.44323 0.00156 0.55618 0.0
C352 C 0.49901 0.98205 0.57537 0.0
C353 C 0.49451 0.99202 0.58776 0.0
C354 C 0.50471 0.99466 0.60134 0.0
C355 C 0.51968 0.98746 0.60281 0.0
C356 C 0.52419 0.97754 0.59042 0.0
C357 C 0.514 0.97485 0.57689 0.0
C358 C 0.48647 0.95335 0.52477 0.0
C359 C 0.50261 0.94927 0.52345 0.0
C360 C 0.24018 0.28148 0.66835 0.0
C361 C 0.22875 0.26868 0.66594 0.0
C362 C 0.21459 0.26832 0.6746 0.0
C363 C 0.212 0.28042 0.68556 0.0
H364 H 0.18255 0.29206 0.72171 0.0
H365 H 0.16055 0.28935 0.73999 0.0
H366 H 0.17581 0.33467 0.76159 0.0
H367 H 0.19799 0.3373 0.74359 0.0
H368 H 0.233 0.35203 0.73682 0.0
H369 H 0.25294 0.37427 0.74004 0.0
H370 H 0.27314 0.36196 0.69534 0.0
H371 H 0.25322 0.33971 0.69202 0.0
H372 H 0.24668 0.30324 0.68076 0.0
H373 H 0.2511 0.28223 0.66169 0.0
H374 H 0.20561 0.25855 0.67308 0.0
H375 H 0.201 0.27969 0.69211 0.0
N376 N 0.20813 0.30481 0.70944 0.0
N377 N 0.2168 0.32894 0.72191 0.0
N378 N 0.2316 0.31874 0.70137 0.0
C379 C 0.20596 0.31628 0.72051 0.0
C380 C 0.22962 0.33029 0.71237 0.0
C381 C 0.22093 0.30594 0.69983 0.0
C382 C 0.19215 0.31486 0.73119 0.0
C383 C 0.18122 0.30149 0.73031 0.0
C384 C 0.16852 0.29997 0.74074 0.0
C385 C 0.16645 0.31177 0.75228 0.0
C386 C 0.17721 0.32525 0.753 0.0
C387 C 0.1899 0.32678 0.74259 0.0
C388 C 0.2415 0.34404 0.71417 0.0
C389 C 0.24163 0.35407 0.72763 0.0
C390 C 0.25311 0.36677 0.72954 0.0
C391 C 0.26459 0.36983 0.71795 0.0
C392 C 0.26434 0.35996 0.70439 0.0
C393 C 0.25298 0.34716 0.70256 0.0
C394 C 0.22348 0.2932 0.68803 0.0
C395 C 0.23757 0.2936 0.67923 0.0
C396 C 0.77551 0.17284 0.74769 0.0
C397 C 0.76182 0.17024 0.73735 0.0
C398 C 0.75956 0.18057 0.72438 0.0
C399 C 0.77075 0.19318 0.72178 0.0
H400 H 0.77722 0.23282 0.69492 0.0
H401 H 0.77188 0.25105 0.67312 0.0
H402 H 0.81932 0.27403 0.6813 0.0
H403 H 0.82486 0.25562 0.70311 0.0
H404 H 0.84754 0.24362 0.73142 0.0
H405 H 0.87203 0.24715 0.74841 0.0
H406 H 0.85372 0.21072 0.78012 0.0
H407 H 0.82943 0.20687 0.76296 0.0
H408 H 0.79721 0.18699 0.75323 0.0
H409 H 0.77769 0.16498 0.75769 0.0
H410 H 0.74904 0.17899 0.71631 0.0
H411 H 0.76859 0.20087 0.71164 0.0
N412 N 0.79382 0.21934 0.71698 0.0
N413 N 0.81853 0.23316 0.72336 0.0
N414 N 0.81036 0.21088 0.73836 0.0
C415 C 0.80473 0.23146 0.71403 0.0
C416 C 0.82143 0.22292 0.73557 0.0
C417 C 0.79653 0.20898 0.72909 0.0
C418 C 0.8015 0.24271 0.70081 0.0
C419 C 0.78656 0.24174 0.69214 0.0
C420 C 0.78342 0.25228 0.67969 0.0
C421 C 0.79514 0.26403 0.67555 0.0
C422 C 0.81009 0.26502 0.68416 0.0
C423 C 0.81323 0.25451 0.6967 0.0
C424 C 0.83645 0.22497 0.7458 0.0
C425 C 0.84872 0.23633 0.74199 0.0
C426 C 0.86276 0.23841 0.75178 0.0
C427 C 0.86485 0.22924 0.76565 0.0
C428 C 0.85263 0.21782 0.7694 0.0
C429 C 0.83863 0.21568 0.75959 0.0
C430 C 0.78453 0.19573 0.73205 0.0
C431 C 0.78675 0.18542 0.74506 0.0
C432 C 0.48484 0.5228 0.55428 0.0
C433 C 0.48798 0.51087 0.56556 0.0
C434 C 0.50053 0.50059 0.56298 0.0
C435 C 0.50993 0.50241 0.54959 0.0
H436 H 0.54771 0.48312 0.52562 0.0
H437 H 0.57099 0.46707 0.52191 0.0
H438 H 0.58847 0.5006 0.48688 0.0
H439 H 0.56502 0.51637 0.49021 0.0
H440 H 0.54351 0.54332 0.47811 0.0
H441 H 0.54034 0.56709 0.46202 0.0
H442 H 0.49698 0.57704 0.48632 0.0
H443 H 0.50029 0.55343 0.5027 0.0
H444 H 0.49155 0.53414 0.53267 0.0
H445 H 0.47543 0.53108 0.556 0.0
H446 H 0.50313 0.49115 0.57134 0.0
H447 H 0.51962 0.4944 0.54808 0.0
N448 N 0.53026 0.50796 0.52258 0.0
N449 N 0.53748 0.52327 0.50042 0.0
N450 N 0.51493 0.52956 0.51464 0.0
C451 C 0.54029 0.51089 0.51039 0.0
C452 C 0.52481 0.53263 0.50241 0.0
C453 C 0.51753 0.51726 0.52477 0.0
C454 C 0.55443 0.50104 0.5082 0.0
C455 C 0.5565 0.48707 0.51711 0.0
C456 C 0.56992 0.47791 0.51505 0.0
C457 C 0.58164 0.48254 0.5041 0.0
C458 C 0.57957 0.49653 0.49523 0.0
C459 C 0.56612 0.50563 0.49721 0.0
C460 C 0.52224 0.54649 0.49183 0.0
C461 C 0.53323 0.55048 0.47999 0.0
C462 C 0.53135 0.56408 0.47066 0.0
C463 C 0.51844 0.57399 0.47292 0.0
C464 C 0.5072 0.56977 0.48445 0.0
C465 C 0.50907 0.55618 0.4938 0.0
C466 C 0.507 0.51458 0.53849 0.0
C467 C 0.4942 0.52462 0.54092 0.0
C468 C 0.54837 0.44169 0.01652 0.0
C469 C 0.53321 0.43338 0.01577 0.0
C470 C 0.52081 0.43903 0.00566 0.0
C471 C 0.5236 0.45251 0.99623 0.0
H472 H 0.50482 0.47563 0.95692 0.0
H473 H 0.48627 0.48094 0.93446 0.0
H474 H 0.51905 0.5189 0.91914 0.0
H475 H 0.53744 0.51388 0.94172 0.0
H476 H 0.57165 0.51942 0.95905 0.0
H477 H 0.59646 0.536 0.96327 0.0
H478 H 0.60619 0.51244 0.00809 0.0
H479 H 0.58134 0.49588 0.004 0.0
H480 H 0.56301 0.46127 0.00802 0.0
H481 H 0.55811 0.4377 0.02433 0.0
H482 H 0.50904 0.43278 0.00473 0.0
H483 H 0.51382 0.45641 0.98842 0.0
N484 N 0.53126 0.47823 0.97438 0.0
N485 N 0.54833 0.49972 0.96679 0.0
N486 N 0.55594 0.48385 0.98852 0.0
C487 C 0.53432 0.49072 0.96451 0.0
C488 C 0.55919 0.4964 0.97879 0.0
C489 C 0.54202 0.4747 0.98641 0.0
C490 C 0.52271 0.49427 0.95115 0.0
C491 C 0.50807 0.48517 0.94883 0.0
C492 C 0.49743 0.48816 0.9359 0.0
C493 C 0.50116 0.50033 0.92497 0.0
C494 C 0.51567 0.50959 0.92744 0.0
C495 C 0.52629 0.50662 0.94036 0.0
C496 C 0.57443 0.50632 0.9812 0.0
C497 C 0.57906 0.51773 0.96981 0.0
C498 C 0.59334 0.52717 0.97216 0.0
C499 C 0.60327 0.52551 0.98601 0.0
C500 C 0.5987 0.51408 0.99737 0.0
C501 C 0.58449 0.50454 0.99497 0.0
C502 C 0.53883 0.46073 0.99682 0.0
C503 C 0.55113 0.45525 0.00722 0.0
C504 C 0.72877 0.24514 0.32052 0.0
C505 C 0.71647 0.25477 0.32546 0.0
C506 C 0.70128 0.25353 0.31726 0.0
C507 C 0.69841 0.24278 0.30458 0.0
H508 H 0.66608 0.23051 0.26749 0.0
H509 H 0.64321 0.23362 0.24883 0.0
H510 H 0.66215 0.19901 0.21729 0.0
H511 H 0.68486 0.19554 0.23619 0.0
H512 H 0.71484 0.17517 0.24966 0.0
H513 H 0.73383 0.15404 0.24707 0.0
H514 H 0.76053 0.17133 0.28949 0.0
H515 H 0.74158 0.1922 0.29227 0.0
H516 H 0.73563 0.22703 0.30458 0.0
H517 H 0.74073 0.24599 0.32632 0.0
H518 H 0.69145 0.2606 0.32085 0.0
H519 H 0.68651 0.24199 0.29866 0.0
N520 N 0.69441 0.22206 0.27666 0.0
N521 N 0.70209 0.19954 0.26273 0.0
N522 N 0.71784 0.20928 0.28485 0.0
C523 C 0.69161 0.21135 0.26455 0.0
C524 C 0.71522 0.1984 0.27291 0.0
C525 C 0.70753 0.22114 0.28682 0.0
C526 C 0.6774 0.21281 0.25334 0.0
C527 C 0.66539 0.22351 0.2566 0.0
C528 C 0.65228 0.22537 0.24584 0.0
C529 C 0.65086 0.21666 0.23149 0.0
C530 C 0.66274 0.20578 0.22832 0.0
C531 C 0.67583 0.20385 0.23914 0.0
C532 C 0.72663 0.18544 0.27117 0.0
C533 C 0.72473 0.17445 0.25847 0.0
C534 C 0.73565 0.16236 0.25693 0.0
C535 C 0.74866 0.16096 0.26811 0.0
C536 C 0.7505 0.17191 0.28082 0.0
C537 C 0.73965 0.18398 0.28233 0.0
C538 C 0.71063 0.23291 0.29991 0.0
C539 C 0.72586 0.23429 0.30798 0.0
C540 C 0.49103 0.06873 0.99043 0.0
C541 C 0.47994 0.07361 0.00145 0.0
C542 C 0.46542 0.06446 0.00297 0.0
C543 C 0.46199 0.05086 0.99358 0.0
H544 H 0.42594 0.01682 0.98238 0.0
H545 H 0.40149 0.00038 0.98647 0.0
H546 H 0.41917 0.96351 0.9567 0.0
H547 H 0.44337 0.98017 0.95216 0.0
H548 H 0.47055 0.99262 0.92719 0.0
H549 H 0.48817 0.98696 0.90559 0.0
H550 H 0.52339 0.02268 0.92422 0.0
H551 H 0.50566 0.02864 0.94553 0.0
H552 H 0.49641 0.05178 0.9726 0.0
H553 H 0.50243 0.07538 0.98911 0.0
H554 H 0.4565 0.06801 0.01118 0.0
H555 H 0.45059 0.04423 0.99498 0.0
N556 N 0.45535 0.02274 0.97404 0.0
N557 N 0.46187 0.00603 0.95307 0.0
N558 N 0.4792 0.02795 0.96053 0.0
C559 C 0.45165 0.00978 0.96461 0.0
C560 C 0.47567 0.01508 0.95094 0.0
C561 C 0.46912 0.03187 0.97211 0.0
C562 C 0.43666 -0.00017 0.96695 0.0
C563 C 0.42462 0.00522 0.97666 0.0
C564 C 0.4106 0.99575 0.97908 0.0
C565 C 0.40833 0.98058 0.97196 0.0
C566 C 0.42035 0.97523 0.96218 0.0
C567 C 0.43431 0.98476 0.95965 0.0
C568 C 0.48661 0.01116 0.9381 0.0
C569 C 0.48206 0.99926 0.92672 0.0
C570 C 0.49221 0.99595 0.91435 0.0
C571 C 0.50717 0.00442 0.9131 0.0
C572 C 0.51181 0.01613 0.92463 0.0
C573 C 0.50166 0.01949 0.93693 0.0
C574 C 0.47298 0.04608 0.98239 0.0
C575 C 0.48759 0.05513 0.981 0.0
Mg576 Mg 0.23956 0.85573 0.0079 0.0
O577 O 0.26335 0.86988 0.00304 0.0
O578 O 0.2828 0.85227 0.00404 0.0
Mg579 Mg 0.27197 0.82765 0.01027 0.0
C580 C 0.27814 0.86642 0.00196 0.0
C581 C 0.20955 0.87196 0.99601 0.0
O582 O 0.20495 0.8568 0.99694 0.0
O583 O 0.2392 0.84472 0.98304 0.0
O584 O 0.25811 0.82671 0.98588 0.0
O585 O 0.24338 0.86015 0.03401 0.0
O586 O 0.25219 0.83937 0.02141 0.0
C587 C 0.24711 0.8334 0.97752 0.0
C588 C 0.25146 0.84732 0.03448 0.0
O589 O 0.22432 0.87605 0.9992 0.0
Mg590 Mg 0.14956 0.50214 0.26954 0.0
O591 O 0.1342 0.50085 0.24595 0.0
O592 O 0.15148 0.50157 0.22621 0.0
Mg593 Mg 0.17737 0.50339 0.23679 0.0
C594 C 0.13708 0.50077 0.2311 0.0
C595 C 0.12787 0.5022 0.29742 0.0
O596 O 0.1404 0.51177 0.30151 0.0
O597 O 0.15604 0.47621 0.26663 0.0
O598 O 0.17375 0.47822 0.24727 0.0
O599 O 0.15021 0.52875 0.26909 0.0
O600 O 0.16843 0.51423 0.25833 0.0
C601 C 0.16595 0.46998 0.25747 0.0
C602 C 0.16311 0.5281 0.26097 0.0
O603 O 0.12753 0.49535 0.28388 0.0
Mg604 Mg 0.77614 0.65004 0.01805 0.0
O605 O 0.7515 0.63629 0.01432 0.0
O606 O 0.7326 0.65442 0.01247 0.0
Mg607 Mg 0.74492 0.67934 0.0143 0.0
C608 C 0.73672 0.63995 0.01259 0.0
C609 C 0.80505 0.62986 0.01477 0.0
O610 O 0.81116 0.64443 0.01736 0.0
O611 O 0.77568 0.65654 0.99169 0.0
O612 O 0.75694 0.67486 0.99054 0.0
O613 O 0.77326 0.65049 0.04439 0.0
O614 O 0.76513 0.66924 0.02791 0.0
C615 C 0.76739 0.66661 0.98391 0.0
C616 C 0.76602 0.66369 0.04218 0.0
O617 O 0.78975 0.6276 0.01375 0.0
Mg618 Mg 0.90315 0.03201 0.24296 0.0
O619 O 0.88778 0.00865 0.23909 0.0
O620 O 0.90469 0.98911 0.23554 0.0
Mg621 Mg 0.9306 -0.00016 0.23692 0.0
C622 C 0.8904 0.994 0.23654 0.0
C623 C 0.88035 0.05897 0.24692 0.0
O624 O 0.89219 0.06539 0.23878 0.0
O625 O 0.91062 0.02451 0.26828 0.0
O626 O 0.92797 0.00566 0.26347 0.0
O627 O 0.90249 0.03607 0.21674 0.0
O628 O 0.92146 0.02302 0.22971 0.0
C629 C 0.92063 0.01428 0.27315 0.0
C630 C 0.91526 0.0278 0.21632 0.0
O631 O 0.88112 0.04451 0.25124 0.0
Mg632 Mg 0.27641 0.14666 0.51755 0.0
O633 O 0.2516 0.1331 0.51448 0.0
O634 O 0.23302 0.15143 0.5114 0.0
Mg635 Mg 0.2455 0.17626 0.51296 0.0
C636 C 0.23691 0.13691 0.51221 0.0
C637 C 0.28823 0.11252 0.5238 0.0
O638 O 0.27817 0.11379 0.53536 0.0
O639 O 0.27579 0.15235 0.49095 0.0
O640 O 0.25758 0.17117 0.48943 0.0
O641 O 0.27401 0.14821 0.54394 0.0
O642 O 0.26563 0.16632 0.52691 0.0
C643 C 0.26778 0.1625 0.48297 0.0
C644 C 0.26683 0.16138 0.54139 0.0
O645 O 0.28963 0.12382 0.51382 0.0
Mg646 Mg 0.40228 0.53177 0.7419 0.0
O647 O 0.38777 0.5078 0.73924 0.0
O648 O 0.40529 0.48905 0.73466 0.0
Mg649 Mg 0.43069 0.5009 0.73398 0.0
C650 C 0.39091 0.49329 0.73665 0.0
C651 C 0.37996 0.55836 0.74896 0.0
O652 O 0.39194 0.56549 0.74156 0.0
O653 O 0.41182 0.52474 0.76678 0.0
O654 O 0.4298 0.50692 0.76067 0.0
O655 O 0.39952 0.53549 0.71564 0.0
O656 O 0.41993 0.52348 0.72742 0.0
C657 C 0.42276 0.51514 0.77091 0.0
C658 C 0.41257 0.52777 0.71441 0.0
O659 O 0.38045 0.54349 0.75166 0.0
Mg660 Mg 0.73734 0.35462 0.50587 0.0
O661 O 0.76158 0.36867 0.50267 0.0
O662 O 0.78072 0.35076 0.50399 0.0
Mg663 Mg 0.76922 0.32595 0.50823 0.0
C664 C 0.77639 0.36508 0.50226 0.0
C665 C 0.70766 0.37283 0.50008 0.0
O666 O 0.70297 0.35885 0.50574 0.0
O667 O 0.73797 0.34503 0.48051 0.0
O668 O 0.7566 0.32672 0.48326 0.0
O669 O 0.74008 0.35761 0.53226 0.0
O670 O 0.74909 0.33736 0.519 0.0
C671 C 0.74609 0.33397 0.47478 0.0
C672 C 0.74793 0.34464 0.53238 0.0
O673 O 0.72262 0.37558 0.49787 0.0
Mg674 Mg 0.64971 0.00205 0.77123 0.0
O675 O 0.63486 0.00193 0.74737 0.0
O676 O 0.65255 0.00438 0.72806 0.0
Mg677 Mg 0.67823 0.00627 0.73924 0.0
C678 C 0.63805 0.00289 0.73263 0.0
C679 C 0.62918 0.99621 0.79962 0.0
O680 O 0.64307 0.00242 0.80547 0.0
O681 O 0.65693 0.97658 0.76677 0.0
O682 O 0.67523 0.98043 0.74817 0.0
O683 O 0.64967 0.02861 0.77256 0.0
O684 O 0.66852 0.01536 0.76122 0.0
C685 C 0.66738 0.97129 0.75759 0.0
C686 C 0.66278 0.02886 0.76467 0.0
O687 O 0.62756 0.99373 0.78468 0.0
Mg688 Mg 0.03332 0.25732 0.89515 0.0
O689 O 0.00903 0.25285 0.88122 0.0
O690 O 0.99077 0.24397 0.89836 0.0
Mg691 Mg 0.00316 0.24332 0.92317 0.0
C692 C 0.99468 0.24786 0.88429 0.0
C693 C 0.05664 0.27889 0.87593 0.0
O694 O 0.06298 0.28082 0.89048 0.0
O695 O 0.02441 0.28024 0.90549 0.0
O696 O 0.00661 0.27073 0.92282 0.0
O697 O 0.0392 0.23205 0.89137 0.0
O698 O 0.02645 0.24055 0.91213 0.0
C699 C 0.01419 0.28238 0.91617 0.0
C700 C 0.03174 0.22879 0.9043 0.0
O701 O 0.0437 0.27025 0.87383 0.0
Mg702 Mg 0.53313 0.75843 0.39697 0.0
O703 O 0.5087 0.75479 0.38301 0.0
O704 O 0.49037 0.74614 0.40017 0.0
Mg705 Mg 0.50275 0.74481 0.42491 0.0
C706 C 0.49427 0.7501 0.38612 0.0
C707 C 0.5574 0.77912 0.37824 0.0
O708 O 0.56396 0.77998 0.39278 0.0
O709 O 0.52503 0.78144 0.40783 0.0
O710 O 0.50699 0.77214 0.42502 0.0
O711 O 0.53815 0.73306 0.39256 0.0
O712 O 0.52581 0.7415 0.41361 0.0
C713 C 0.51491 0.78369 0.41857 0.0
C714 C 0.53059 0.72975 0.40542 0.0
O715 O 0.54388 0.77148 0.37592 0.0
Mg716 Mg 0.98865 0.74627 0.60039 0.0
O717 O 0.01237 0.74171 0.61464 0.0
O718 O 0.03057 0.73549 0.59701 0.0
Mg719 Mg 0.01889 0.73644 0.5719 0.0
C720 C 0.02658 0.73777 0.61134 0.0
C721 C 0.96244 0.75818 0.62057 0.0
O722 O 0.95513 0.75407 0.60685 0.0
O723 O 0.99906 0.77049 0.59263 0.0
O724 O 0.0167 0.76359 0.57472 0.0
O725 O 0.98125 0.72045 0.60139 0.0
O726 O 0.99522 0.73145 0.5821 0.0
C727 C 0.00954 0.77418 0.58237 0.0
C728 C 0.98893 0.71877 0.58842 0.0
O729 O 0.97764 0.75685 0.6222 0.0
Mg730 Mg 0.48797 0.24933 0.0993 0.0
O731 O 0.51158 0.24461 0.11371 0.0
O732 O 0.53006 0.23923 0.09606 0.0
Mg733 Mg 0.51874 0.24094 0.07087 0.0
C734 C 0.52588 0.24095 0.11041 0.0
C735 C 0.46111 0.25701 0.12057 0.0
O736 O 0.45407 0.2503 0.10775 0.0
O737 O 0.49809 0.27394 0.09244 0.0
O738 O 0.51606 0.26793 0.07451 0.0
O739 O 0.48091 0.22341 0.0994 0.0
O740 O 0.49498 0.2352 0.08062 0.0
C741 C 0.50863 0.27814 0.08241 0.0
C742 C 0.48878 0.22224 0.08648 0.0
O743 O 0.47644 0.25897 0.12128 0.0
H744 H 0.19041 0.7626 0.84834 0.0
H745 H 0.19416 0.77951 0.87213 0.0
H746 H 0.2454 0.78434 0.86484 0.0
H747 H 0.2417 0.76781 0.84081 0.0
H748 H 0.21312 0.77225 0.89881 0.0
H749 H 0.23386 0.83036 0.87372 0.0
H750 H 0.2239 0.81465 0.86163 0.0
H751 H 0.24506 0.81393 0.86722 0.0
C752 C 0.20242 0.76754 0.8516 0.0
C753 C 0.21576 0.76386 0.84269 0.0
C754 C 0.20455 0.77714 0.86523 0.0
C755 C 0.22002 0.78334 0.87012 0.0
C756 C 0.23331 0.77993 0.8611 0.0
H757 H 0.26029 0.8086 0.9624 0.0
H758 H 0.25267 0.79753 0.93612 0.0
C759 C 0.23121 0.77031 0.84749 0.0
C760 C 0.22249 0.79221 0.88537 0.0
H761 H 0.23835 0.82707 0.90192 0.0
C762 C 0.21846 0.78431 0.89947 0.0
C763 C 0.22932 0.80798 0.88619 0.0
C764 C 0.23315 0.81731 0.87137 0.0
C765 C 0.22166 0.79153 0.91442 0.0
C766 C 0.22924 0.80697 0.91528 0.0
C767 C 0.23268 0.81516 0.90118 0.0
C768 C 0.23431 0.81441 0.93078 0.0
C769 C 0.21708 0.78251 0.92922 0.0
C770 C 0.22677 0.82785 0.93628 0.0
C771 C 0.23107 0.83425 0.95137 0.0
C772 C 0.24309 0.82736 0.96114 0.0
C773 C 0.25093 0.81418 0.95529 0.0
C774 C 0.24658 0.80779 0.94027 0.0
H775 H 0.20801 0.77259 0.92646 0.0
H776 H 0.22804 0.77735 0.93479 0.0
H777 H 0.21211 0.7906 0.93807 0.0
H778 H 0.21732 0.83316 0.92904 0.0
H779 H 0.22483 0.84444 0.95546 0.0
H780 H 0.01743 0.47581 0.4024 0.0
H781 H 0.03612 0.47203 0.381 0.0
H782 H 0.0391 0.52278 0.37294 0.0
H783 H 0.0201 0.52662 0.39393 0.0
H784 H 0.03602 0.5045 0.3447 0.0
H785 H 0.08488 0.48398 0.38624 0.0
H786 H 0.06574 0.47299 0.38678 0.0
H787 H 0.06737 0.49347 0.39315 0.0
C788 C 0.02191 0.48614 0.39593 0.0
C789 C 0.01741 0.50154 0.39998 0.0
C790 C 0.03269 0.48397 0.38381 0.0
C791 C 0.03917 0.49716 0.37556 0.0
C792 C 0.0343 0.51246 0.37923 0.0
H793 H 0.12523 0.51611 0.32645 0.0
H794 H 0.10298 0.51306 0.34442 0.0
C795 C 0.02356 0.51464 0.39132 0.0
C796 C 0.05142 0.49524 0.36343 0.0
H797 H 0.0906 0.48569 0.35909 0.0
C798 C 0.04791 0.50023 0.34777 0.0
C799 C 0.06695 0.4898 0.36756 0.0
C800 C 0.07159 0.48486 0.38436 0.0
C801 C 0.05965 0.50029 0.33618 0.0
C802 C 0.07523 0.49501 0.34035 0.0
C803 C 0.0786 0.48963 0.35591 0.0
C804 C 0.08868 0.49639 0.32926 0.0
C805 C 0.05552 0.50668 0.31979 0.0
C806 C 0.08809 0.4879 0.31479 0.0
C807 C 0.10084 0.48967 0.30439 0.0
C808 C 0.1144 0.49989 0.30836 0.0
C809 C 0.11499 0.50816 0.32298 0.0
C810 C 0.10228 0.50641 0.33331 0.0
H811 H 0.04407 0.51307 0.31944 0.0
H812 H 0.0654 0.51495 0.31579 0.0
H813 H 0.05408 0.49662 0.31117 0.0
H814 H 0.07781 0.47989 0.31156 0.0
H815 H 0.10006 0.48307 0.29325 0.0
H816 H 0.81368 0.72006 0.8482 0.0
H817 H 0.81185 0.70347 0.872 0.0
H818 H 0.75997 0.70665 0.8699 0.0
H819 H 0.76159 0.72247 0.84566 0.0
H820 H 0.80143 0.7125 0.89984 0.0
H821 H 0.7634 0.66009 0.87889 0.0
H822 H 0.77264 0.67406 0.86528 0.0
H823 H 0.75383 0.67826 0.87407 0.0
C824 C 0.80183 0.71686 0.85252 0.0
C825 C 0.78778 0.72264 0.845 0.0
C826 C 0.80082 0.70745 0.8662 0.0
C827 C 0.78576 0.7036 0.87262 0.0
C828 C 0.7717 0.70911 0.86497 0.0
H829 H 0.7485 0.68238 0.96232 0.0
H830 H 0.75429 0.68902 0.93478 0.0
C831 C 0.77268 0.7184 0.85124 0.0
C832 C 0.78481 0.69522 0.88813 0.0
H833 H 0.76424 0.66524 0.90735 0.0
C834 C 0.79357 0.70196 0.9014 0.0
C835 C 0.77459 0.68143 0.89019 0.0
C836 C 0.76573 0.67295 0.87629 0.0
C837 C 0.7917 0.69581 0.91677 0.0
C838 C 0.78081 0.6826 0.9189 0.0
C839 C 0.77254 0.67543 0.90562 0.0
C840 C 0.77685 0.67709 0.93502 0.0
C841 C 0.80078 0.70387 0.93078 0.0
C842 C 0.78753 0.66793 0.94411 0.0
C843 C 0.78424 0.66402 0.95989 0.0
C844 C 0.77028 0.66938 0.96682 0.0
C845 C 0.75941 0.67816 0.95743 0.0
C846 C 0.76265 0.68192 0.94166 0.0
H847 H 0.80827 0.71449 0.92718 0.0
H848 H 0.79211 0.70764 0.93962 0.0
H849 H 0.80881 0.69531 0.93678 0.0
H850 H 0.79855 0.66411 0.93911 0.0
H851 H 0.79285 0.65725 0.96679 0.0
H852 H 0.98636 0.02436 0.41616 0.0
H853 H 0.96869 0.02883 0.39255 0.0
H854 H 0.97197 0.97963 0.37864 0.0
H855 H 0.9894 0.97506 0.40221 0.0
H856 H 0.97546 0.02618 0.36177 0.0
H857 H 0.92392 0.98428 0.37378 0.0
H858 H 0.93928 0.99001 0.38891 0.0
H859 H 0.94269 0.97449 0.37475 0.0
C860 C 0.98322 0.01449 0.40809 0.0
C861 C 0.98919 0.99933 0.4111 0.0
C862 C 0.97308 0.01704 0.39466 0.0
C863 C 0.96871 0.00449 0.384 0.0
C864 C 0.97472 0.98938 0.38695 0.0
H865 H 0.93593 0.99013 0.28822 0.0
H866 H 0.94541 0.98899 0.31613 0.0
C867 C 0.98475 0.98679 0.40041 0.0
C868 C 0.95885 0.00737 0.36917 0.0
H869 H 0.92634 0.99248 0.34638 0.0
C870 C 0.96454 0.01904 0.35854 0.0
C871 C 0.94454 0.99809 0.36499 0.0
C872 C 0.93716 0.98614 0.3763 0.0
C873 C 0.95682 0.02106 0.34351 0.0
C874 C 0.94304 0.0112 0.33904 0.0
C875 C 0.93696 -3e-05 0.34986 0.0
C876 C 0.93576 0.01144 0.32264 0.0
C877 C 0.96386 0.03318 0.33217 0.0
C878 C 0.92684 0.0243 0.31721 0.0
C879 C 0.92129 0.02497 0.30123 0.0
C880 C 0.92473 0.01284 0.29044 0.0
C881 C 0.93318 -0.00027 0.29616 0.0
C882 C 0.93857 0.99901 0.31211 0.0
H883 H 0.97549 0.03885 0.33691 0.0
H884 H 0.96591 0.02744 0.32053 0.0
H885 H 0.95516 0.04265 0.32994 0.0
H886 H 0.9245 0.03396 0.32523 0.0
H887 H 0.91483 0.03523 0.29721 0.0
H888 H 0.20722 0.25469 0.64383 0.0
H889 H 0.21252 0.23455 0.62382 0.0
H890 H 0.26205 0.23359 0.64181 0.0
H891 H 0.25687 0.25375 0.66179 0.0
H892 H 0.25963 0.23717 0.60959 0.0
H893 H 0.21875 0.18687 0.62797 0.0
H894 H 0.2088 0.20524 0.62504 0.0
H895 H 0.22412 0.20381 0.64076 0.0
C896 C 0.21917 0.24999 0.64369 0.0
C897 C 0.23164 0.25583 0.65436 0.0
C898 C 0.22216 0.23845 0.63228 0.0
C899 C 0.23762 0.23242 0.63146 0.0
C900 C 0.25002 0.23806 0.64225 0.0
H901 H 0.26758 0.15403 0.57317 0.0
H902 H 0.25989 0.17086 0.59523 0.0
C903 C 0.24706 0.24963 0.6536 0.0
C904 C 0.24122 0.22106 0.61868 0.0
H905 H 0.2303 0.1845 0.60257 0.0
C906 C 0.25326 0.22562 0.60811 0.0
C907 C 0.23303 0.20594 0.61687 0.0
C908 C 0.22056 0.20007 0.62835 0.0
C909 C 0.25715 0.2156 0.59561 0.0
C910 C 0.24854 0.20073 0.59342 0.0
C911 C 0.23672 0.196 0.60417 0.0
C912 C 0.25181 0.18996 0.58007 0.0
C913 C 0.27061 0.22093 0.58497 0.0
C914 C 0.24936 0.19494 0.56425 0.0
C915 C 0.25378 0.18542 0.55165 0.0
C916 C 0.26061 0.17065 0.55463 0.0
C917 C 0.26239 0.16536 0.57048 0.0
C918 C 0.25799 0.17494 0.58309 0.0
H919 H 0.27866 0.2305 0.59066 0.0
H920 H 0.27806 0.2108 0.58193 0.0
H921 H 0.26529 0.22572 0.57371 0.0
H922 H 0.24434 0.20638 0.56166 0.0
H923 H 0.25225 0.18987 0.53962 0.0
H924 H 0.45541 0.51397 0.56843 0.0
H925 H 0.44061 0.51463 0.59303 0.0
H926 H 0.4844 0.50573 0.62053 0.0
H927 H 0.49939 0.50532 0.59606 0.0
H928 H 0.45507 0.48736 0.62958 0.0
H929 H 0.44742 0.55274 0.62516 0.0
H930 H 0.44105 0.54104 0.60783 0.0
H931 H 0.4621 0.54271 0.61398 0.0
C932 C 0.46191 0.51217 0.57971 0.0
C933 C 0.47863 0.50973 0.58029 0.0
C934 C 0.45342 0.51251 0.59373 0.0
C935 C 0.46148 0.51043 0.60856 0.0
C936 C 0.47799 0.50737 0.60917 0.0
H937 H 0.44124 0.5148 0.70816 0.0
H938 H 0.45189 0.50939 0.68214 0.0
C939 C 0.48651 0.50706 0.59516 0.0
C940 C 0.45288 0.51208 0.62352 0.0
H941 H 0.43561 0.53943 0.64671 0.0
C942 C 0.45076 0.49872 0.63334 0.0
C943 C 0.44724 0.52691 0.6283 0.0
C944 C 0.44963 0.54173 0.61837 0.0
C945 C 0.44309 0.49978 0.64788 0.0
C946 C 0.43777 0.51471 0.65285 0.0
C947 C 0.43968 0.528 0.64287 0.0
C948 C 0.43081 0.51702 0.66862 0.0
C949 C 0.44061 0.4849 0.65769 0.0
C950 C 0.41554 0.52342 0.66969 0.0
C951 C 0.40947 0.52668 0.68458 0.0
C952 C 0.41859 0.52363 0.69867 0.0
C953 C 0.43381 0.51709 0.69755 0.0
C954 C 0.4399 0.5139 0.68267 0.0
H955 H 0.44063 0.47397 0.65019 0.0
H956 H 0.45066 0.48433 0.66682 0.0
H957 H 0.42904 0.48489 0.66389 0.0
H958 H 0.40838 0.52603 0.65899 0.0
H959 H 0.39771 0.53174 0.68504 0.0
H960 H 0.81518 0.27312 0.65177 0.0
H961 H 0.80867 0.28937 0.62839 0.0
H962 H 0.76098 0.29566 0.64541 0.0
H963 H 0.76739 0.27946 0.6688 0.0
H964 H 0.76067 0.2848 0.61443 0.0
H965 H 0.80348 0.33738 0.62293 0.0
H966 H 0.81283 0.31853 0.62422 0.0
H967 H 0.79877 0.32375 0.63888 0.0
C968 C 0.80343 0.27824 0.65069 0.0
C969 C 0.79177 0.27496 0.66208 0.0
C970 C 0.79974 0.28755 0.63735 0.0
C971 C 0.7844 0.29384 0.63527 0.0
C972 C 0.7729 0.29092 0.64682 0.0
H973 H 0.74873 0.35808 0.56215 0.0
H974 H 0.75837 0.34625 0.58725 0.0
C975 C 0.77655 0.2816 0.66012 0.0
C976 C 0.77983 0.30233 0.62043 0.0
H977 H 0.78959 0.33466 0.59751 0.0
C978 C 0.76695 0.29574 0.61077 0.0
C979 C 0.78797 0.31666 0.61577 0.0
C980 C 0.80144 0.32461 0.62604 0.0
C981 C 0.76211 0.30296 0.59642 0.0
C982 C 0.77057 0.317 0.59149 0.0
C983 C 0.78327 0.32379 0.60127 0.0
C984 C 0.7662 0.32479 0.57624 0.0
C985 C 0.74786 0.29559 0.58674 0.0
C986 C 0.76783 0.3168 0.56176 0.0
C987 C 0.76231 0.32347 0.54743 0.0
C988 C 0.75514 0.33832 0.54735 0.0
C989 C 0.75414 0.3466 0.56183 0.0
C990 C 0.75966 0.33989 0.57617 0.0
H991 H 0.7404 0.28719 0.59393 0.0
H992 H 0.74002 0.30492 0.58182 0.0
H993 H 0.75234 0.28883 0.57659 0.0
H994 H 0.77304 0.30521 0.56158 0.0
H995 H 0.76326 0.31677 0.53652 0.0
H996 H 0.55252 0.99298 0.60405 0.0
H997 H 0.57062 0.9965 0.62773 0.0
H998 H 0.52972 0.99215 0.65777 0.0
H999 H 0.51151 0.98821 0.63413 0.0
H1000 H 0.57036 0.02016 0.65208 0.0
H1001 H 0.56066 0.95874 0.67579 0.0
H1002 H 0.55494 0.96391 0.65552 0.0
H1003 H 0.54275 0.96954 0.67159 0.0
C1004 C 0.54737 0.99263 0.61569 0.0
C1005 C 0.53058 0.99019 0.61721 0.0
C1006 C 0.55772 0.99474 0.6292 0.0
C1007 C 0.55152 0.99438 0.64449 0.0
C1008 C 0.53476 0.99223 0.64608 0.0
H1009 H 0.60535 0.99914 0.737 0.0
H1010 H 0.58338 0.99808 0.71643 0.0
C1011 C 0.52437 0.99015 0.63255 0.0
C1012 C 0.56272 0.9963 0.6587 0.0
H1013 H 0.57826 0.97642 0.69089 0.0
C1014 C 0.57204 0.01064 0.66062 0.0
C1015 C 0.56479 0.98388 0.66985 0.0
C1016 C 0.55537 0.96808 0.6681 0.0
C1017 C 0.58354 0.01282 0.67331 0.0
C1018 C 0.586 0.00022 0.68417 0.0
C1019 C 0.57635 0.98605 0.68252 0.0
C1020 C 0.59919 0.00115 0.6967 0.0
C1021 C 0.59297 0.02862 0.67497 0.0
C1022 C 0.61535 0.003 0.6924 0.0
C1023 C 0.6279 0.0036 0.70407 0.0
C1024 C 0.62458 0.00227 0.72033 0.0
C1025 C 0.60835 0.00027 0.72461 0.0
C1026 C 0.59578 -0.00035 0.71288 0.0
H1027 H 0.58646 0.03833 0.6689 0.0
H1028 H 0.59533 0.03193 0.6877 0.0
H1029 H 0.60478 0.02773 0.66935 0.0
H1030 H 0.61827 0.00382 0.67997 0.0
H1031 H 0.64022 0.00506 0.70029 0.0
H1032 H 0.88067 0.25757 0.77431 0.0
H1033 H 0.90437 0.26174 0.79248 0.0
H1034 H 0.90549 0.211 0.80004 0.0
H1035 H 0.88224 0.20666 0.78135 0.0
H1036 H 0.90672 0.2544 0.8238 0.0
H1037 H 0.95237 0.22249 0.79147 0.0
H1038 H 0.9333 0.22772 0.78216 0.0
H1039 H 0.93438 0.21032 0.79457 0.0
C1040 C 0.88616 0.24726 0.77956 0.0
C1041 C 0.87957 0.23177 0.77632 0.0
C1042 C 0.89964 0.24968 0.79004 0.0
C1043 C 0.90684 0.23667 0.79744 0.0
C1044 C 0.90035 0.22119 0.7942 0.0
H1045 H 0.96349 0.23577 0.88571 0.0
H1046 H 0.94271 0.23383 0.86421 0.0
C1047 C 0.8869 0.21875 0.78368 0.0
C1048 C 0.92052 0.23935 0.80928 0.0
H1049 H 0.95901 0.22875 0.8189 0.0
C1050 C 0.9182 0.24891 0.82265 0.0
C1051 C 0.93558 0.23237 0.80766 0.0
C1052 C 0.93914 0.22279 0.79311 0.0
C1053 C 0.93036 0.25128 0.8347 0.0
C1054 C 0.94509 0.2436 0.8335 0.0
C1055 C 0.94762 0.23447 0.81989 0.0
C1056 C 0.95786 0.24462 0.84643 0.0
C1057 C 0.92732 0.26206 0.84857 0.0
C1058 C 0.97345 0.25088 0.84344 0.0
C1059 C 0.98546 0.2519 0.8557 0.0
C1060 C 0.98209 0.2466 0.87116 0.0
C1061 C 0.9665 0.24011 0.87401 0.0
C1062 C 0.95455 0.23906 0.86175 0.0
H1063 H 0.9178 0.27054 0.84544 0.0
H1064 H 0.92313 0.25469 0.85868 0.0
H1065 H 0.93854 0.26898 0.85259 0.0
H1066 H 0.97628 0.25514 0.83166 0.0
H1067 H 0.99734 0.25692 0.85306 0.0
H1068 H 0.51736 0.90727 0.50834 0.0
H1069 H 0.52296 0.88461 0.49168 0.0
H1070 H 0.48532 0.89752 0.45768 0.0
H1071 H 0.48046 0.92097 0.47364 0.0
H1072 H 0.5038 0.86003 0.48516 0.0
H1073 H 0.51969 0.88774 0.42786 0.0
H1074 H 0.51838 0.89926 0.4459 0.0
H1075 H 0.50037 0.8936 0.434 0.0
C1076 C 0.51059 0.90565 0.49708 0.0
C1077 C 0.49845 0.91606 0.49238 0.0
C1078 C 0.51372 0.89254 0.48762 0.0
C1079 C 0.50471 0.88942 0.47331 0.0
C1080 C 0.49271 0.89985 0.46846 0.0
H1081 H 0.48914 0.79454 0.43376 0.0
H1082 H 0.48675 0.82069 0.44596 0.0
C1083 C 0.48974 0.91313 0.4778 0.0
C1084 C 0.50695 0.87451 0.46425 0.0
H1085 H 0.5128 0.85961 0.42712 0.0
C1086 C 0.50592 0.85999 0.47249 0.0
C1087 C 0.50993 0.87441 0.44776 0.0
C1088 C 0.51234 0.88961 0.43841 0.0
C1089 C 0.50748 0.8454 0.46471 0.0
C1090 C 0.50951 0.84523 0.44805 0.0
C1091 C 0.51095 0.85974 0.43984 0.0
C1092 C 0.51024 0.83006 0.43907 0.0
C1093 C 0.5072 0.83034 0.47453 0.0
C1094 C 0.5238 0.82696 0.43029 0.0
C1095 C 0.52506 0.81209 0.42299 0.0
C1096 C 0.51281 0.80005 0.42449 0.0
C1097 C 0.49891 0.80347 0.43263 0.0
C1098 C 0.49756 0.81839 0.43969 0.0
H1099 H 0.51066 0.83288 0.48726 0.0
H1100 H 0.49476 0.82478 0.47401 0.0
H1101 H 0.51555 0.82162 0.46995 0.0
H1102 H 0.53366 0.83585 0.42954 0.0
H1103 H 0.53591 0.80982 0.41676 0.0
H1104 H 0.16838 0.31838 0.78424 0.0
H1105 H 0.14716 0.31456 0.80341 0.0
H1106 H 0.11385 0.29689 0.76581 0.0
H1107 H 0.135 0.30079 0.74648 0.0
H1108 H 0.11601 0.32734 0.80379 0.0
H1109 H 0.11275 0.26111 0.79932 0.0
H1110 H 0.12931 0.27321 0.79174 0.0
H1111 H 0.11017 0.27159 0.7808 0.0
C1112 C 0.15649 0.31385 0.77999 0.0
C1113 C 0.15339 0.30984 0.76383 0.0
C1114 C 0.14441 0.31162 0.79098 0.0
C1115 C 0.12902 0.30528 0.78605 0.0
C1116 C 0.12575 0.30154 0.7699 0.0
H1117 H 0.04815 0.27504 0.8442 0.0
H1118 H 0.0642 0.28302 0.82148 0.0
C1119 C 0.13784 0.30375 0.75888 0.0
C1120 C 0.11653 0.30238 0.79796 0.0
H1121 H 0.09476 0.27276 0.81636 0.0
C1122 C 0.11129 0.31542 0.8065 0.0
C1123 C 0.11038 0.28682 0.80141 0.0
C1124 C 0.11599 0.27233 0.79296 0.0
C1125 C 0.10012 0.3133 0.81852 0.0
C1126 C 0.09429 0.2977 0.82225 0.0
C1127 C 0.09923 0.28471 0.81344 0.0
C1128 C 0.08381 0.29441 0.83585 0.0
C1129 C 0.09464 0.32777 0.82709 0.0
C1130 C 0.08946 0.29829 0.85145 0.0
C1131 C 0.08034 0.29377 0.86445 0.0
C1132 C 0.06542 0.28516 0.8621 0.0
C1133 C 0.05958 0.28167 0.84643 0.0
C1134 C 0.06873 0.2862 0.83343 0.0
H1135 H 0.09621 0.33872 0.8198 0.0
H1136 H 0.08174 0.3262 0.83011 0.0
H1137 H 0.10204 0.32958 0.83834 0.0
H1138 H 0.10122 0.30433 0.85362 0.0
H1139 H 0.08522 0.29661 0.87635 0.0
H1140 H 0.52358 0.57906 0.44122 0.0
H1141 H 0.52352 0.60446 0.42693 0.0
H1142 H 0.51039 0.62834 0.46968 0.0
H1143 H 0.51061 0.6031 0.48411 0.0
H1144 H 0.49276 0.63721 0.44086 0.0
H1145 H 0.55955 0.64003 0.435 0.0
H1146 H 0.54884 0.62213 0.42777 0.0
H1147 H 0.54958 0.62669 0.44871 0.0
C1148 C 0.52071 0.58972 0.44759 0.0
C1149 C 0.5172 0.58908 0.46383 0.0
C1150 C 0.52065 0.6042 0.4394 0.0
C1151 C 0.51715 0.61826 0.44733 0.0
C1152 C 0.51312 0.61759 0.46337 0.0
H1153 H 0.51746 0.71918 0.43299 0.0
H1154 H 0.51292 0.69162 0.44153 0.0
C1155 C 0.51318 0.60314 0.47157 0.0
C1156 C 0.51823 0.63383 0.43915 0.0
H1157 H 0.54522 0.66116 0.42399 0.0
C1158 C 0.50419 0.64244 0.43707 0.0
C1159 C 0.53318 0.64055 0.43421 0.0
C1160 C 0.5487 0.63198 0.4366 0.0
C1161 C 0.50473 0.6577 0.43026 0.0
C1162 C 0.51976 0.6646 0.42574 0.0
C1163 C 0.53372 0.65582 0.42746 0.0
C1164 C 0.52151 0.68124 0.42002 0.0
C1165 C 0.4892 0.66626 0.42793 0.0
C1166 C 0.52813 0.68457 0.40522 0.0
C1167 C 0.53086 0.70035 0.40034 0.0
C1168 C 0.52706 0.71306 0.41023 0.0
C1169 C 0.52032 0.70967 0.425 0.0
C1170 C 0.51763 0.69391 0.42987 0.0
H1171 H 0.47848 0.65774 0.4273 0.0
H1172 H 0.48791 0.67436 0.43821 0.0
H1173 H 0.4892 0.67351 0.41688 0.0
H1174 H 0.53132 0.67496 0.3975 0.0
H1175 H 0.53609 0.70257 0.3889 0.0
H1176 H 0.85839 0.75224 0.72394 0.0
H1177 H 0.88053 0.75165 0.70567 0.0
H1178 H 0.89358 0.80098 0.71653 0.0
H1179 H 0.8713 0.80168 0.73476 0.0
H1180 H 0.89227 0.79551 0.68497 0.0
H1181 H 0.92863 0.74983 0.71478 0.0
H1182 H 0.90803 0.74273 0.71105 0.0
H1183 H 0.91254 0.75929 0.72447 0.0
C1184 C 0.86613 0.76289 0.72263 0.0
C1185 C 0.86314 0.77699 0.73084 0.0
C1186 C 0.87882 0.76252 0.71222 0.0
C1187 C 0.88893 0.77618 0.70997 0.0
C1188 C 0.886 0.79027 0.71816 0.0
H1189 H 0.97326 0.76666 0.65098 0.0
H1190 H 0.9568 0.77342 0.67342 0.0
C1191 C 0.87323 0.79068 0.72851 0.0
C1192 C 0.90188 0.77594 0.69831 0.0
H1193 H 0.93368 0.75471 0.68711 0.0
C1194 C 0.90147 0.78674 0.68557 0.0
C1195 C 0.91411 0.76473 0.69924 0.0
C1196 C 0.91598 0.75361 0.71323 0.0
C1197 C 0.9124 0.78606 0.67329 0.0
C1198 C 0.9238 0.77402 0.67359 0.0
C1199 C 0.9248 0.7638 0.68677 0.0
C1200 C 0.93397 0.77109 0.65986 0.0
C1201 C 0.91153 0.79816 0.66006 0.0
C1202 C 0.9266 0.76748 0.64484 0.0
C1203 C 0.93592 0.76369 0.63204 0.0
C1204 C 0.95284 0.76322 0.63402 0.0
C1205 C 0.96026 0.76695 0.64905 0.0
C1206 C 0.95088 0.7708 0.66188 0.0
H1207 H 0.90645 0.80938 0.66421 0.0
H1208 H 0.92364 0.80103 0.65534 0.0
H1209 H 0.90342 0.79327 0.65018 0.0
H1210 H 0.91355 0.76721 0.64308 0.0
H1211 H 0.92979 0.76079 0.62066 0.0
H1212 H 0.0553 0.9031 0.51602 0.0
H1213 H 0.05048 0.87824 0.53061 0.0
H1214 H 0.0057 0.89538 0.5468 0.0
H1215 H 0.01033 0.92017 0.53199 0.0
H1216 H 0.04659 0.87211 0.56221 0.0
H1217 H 0.9908 0.8531 0.52663 0.0
H1218 H 0.00413 0.86946 0.52074 0.0
H1219 H 0.98994 0.87224 0.53603 0.0
C1220 C 0.04448 0.9016 0.52278 0.0
C1221 C 0.03312 0.91352 0.52277 0.0
C1222 C 0.04173 0.88739 0.53108 0.0
C1223 C 0.0276 0.88484 0.53956 0.0
C1224 C 0.01648 0.89692 0.54 0.0
H1225 H 0.99239 0.79995 0.5904 0.0
H1226 H 0.99698 0.82766 0.58194 0.0
C1227 C 0.01915 0.91108 0.53157 0.0
C1228 C 0.02448 0.86942 0.54774 0.0
H1229 H 0.99819 0.83681 0.54839 0.0
C1230 C 0.03599 0.86441 0.55922 0.0
C1231 C 0.01063 0.85938 0.54382 0.0
C1232 C 0.99823 0.86371 0.53104 0.0
C1233 C 0.03406 0.8496 0.5668 0.0
C1234 C 0.02034 0.83952 0.56272 0.0
C1235 C 0.00865 0.84465 0.55154 0.0
C1236 C 0.01838 0.82315 0.56907 0.0
C1237 C 0.04673 0.84477 0.57908 0.0
C1238 C 0.02893 0.81151 0.56466 0.0
C1239 C 0.02629 0.79569 0.56935 0.0
C1240 C 0.01304 0.7912 0.57858 0.0
C1241 C 0.00273 0.80301 0.58335 0.0
C1242 C 0.00532 0.81883 0.57852 0.0
H1243 H 0.05434 0.8552 0.58364 0.0
H1244 H 0.04102 0.83867 0.58928 0.0
H1245 H 0.05476 0.83632 0.57356 0.0
H1246 H 0.03894 0.81458 0.55717 0.0
H1247 H 0.03448 0.78693 0.56548 0.0
H1248 H 0.13863 0.74392 0.72382 0.0
H1249 H 0.11625 0.74792 0.70458 0.0
H1250 H 0.11272 0.69747 0.69436 0.0
H1251 H 0.13463 0.69324 0.71415 0.0
H1252 H 0.1145 0.74203 0.67295 0.0
H1253 H 0.06605 0.70647 0.70209 0.0
H1254 H 0.08517 0.71209 0.71221 0.0
H1255 H 0.08356 0.69536 0.69869 0.0
C1256 C 0.13292 0.73361 0.71771 0.0
C1257 C 0.13837 0.71823 0.72065 0.0
C1258 C 0.1202 0.73595 0.70662 0.0
C1259 C 0.11263 0.72297 0.69822 0.0
C1260 C 0.11813 0.70762 0.70096 0.0
H1261 H 0.0569 0.72665 0.60918 0.0
H1262 H 0.07733 0.72352 0.63058 0.0
C1263 C 0.13083 0.70525 0.71212 0.0
C1264 C 0.09942 0.72564 0.68615 0.0
H1265 H 0.06024 0.71457 0.67529 0.0
C1266 C 0.10261 0.7361 0.67352 0.0
C1267 C 0.08383 0.71809 0.68703 0.0
C1268 C 0.07936 0.7075 0.70082 0.0
C1269 C 0.09075 0.73893 0.66154 0.0
C1270 C 0.07541 0.73079 0.66201 0.0
C1271 C 0.07207 0.72065 0.67485 0.0
C1272 C 0.06278 0.73245 0.64913 0.0
C1273 C 0.09474 0.75074 0.64859 0.0
C1274 C 0.04759 0.73803 0.65252 0.0
C1275 C 0.03576 0.7397 0.6403 0.0
C1276 C 0.03891 0.73578 0.62445 0.0
C1277 C 0.05408 0.72995 0.62119 0.0
C1278 C 0.06584 0.72822 0.63341 0.0
H1279 H 0.10486 0.75924 0.65245 0.0
H1280 H 0.09851 0.74421 0.63797 0.0
H1281 H 0.08407 0.75763 0.64501 0.0
H1282 H 0.04496 0.74126 0.66461 0.0
H1283 H 0.02421 0.74419 0.64326 0.0
H1284 H 0.97185 0.5748 0.53513 0.0
H1285 H 0.97509 0.59981 0.55026 0.0
H1286 H 0.99618 0.62309 0.50984 0.0
H1287 H 0.99242 0.59838 0.49443 0.0
H1288 H 0.00265 0.61944 0.55839 0.0
H1289 H 0.95875 0.65103 0.51957 0.0
H1290 H 0.96039 0.62969 0.51885 0.0
H1291 H 0.97472 0.64263 0.50901 0.0
C1292 C 0.97707 0.58527 0.52942 0.0
C1293 C 0.98174 0.58461 0.51351 0.0
C1294 C 0.97903 0.59951 0.53812 0.0
C1295 C 0.98562 0.61334 0.53107 0.0
C1296 C 0.99079 0.61261 0.5154 0.0
H1297 H 0.00182 0.71194 0.55994 0.0
H1298 H 0.00227 0.68594 0.54687 0.0
C1299 C 0.9888 0.59841 0.50668 0.0
C1300 C 0.9868 0.62864 0.53997 0.0
H1301 H 0.974 0.66667 0.53895 0.0
C1302 C 0.99636 0.62977 0.5542 0.0
C1303 C 0.9785 0.64204 0.53448 0.0
C1304 C 0.96739 0.64131 0.51972 0.0
C1305 C 0.99811 0.6441 0.56292 0.0
C1306 C 0.98994 0.65753 0.55731 0.0
C1307 C 0.98034 0.65636 0.54314 0.0
C1308 C 0.99099 0.67293 0.56599 0.0
C1309 C 0.0089 0.64487 0.57788 0.0
C1310 C 0.98456 0.6742 0.5811 0.0
C1311 C 0.98428 0.68906 0.58862 0.0
C1312 C 0.99039 0.7029 0.58111 0.0
C1313 C 0.99712 0.70152 0.5661 0.0
C1314 C 0.99736 0.68667 0.55859 0.0
H1315 H 0.01716 0.63483 0.57854 0.0
H1316 H 0.01625 0.65629 0.57854 0.0
H1317 H 0.00128 0.64422 0.58844 0.0
H1318 H 0.97932 0.66376 0.58688 0.0
H1319 H 0.97896 0.68973 0.60015 0.0
H1320 H 0.78171 0.88088 0.24249 0.0
H1321 H 0.80209 0.90287 0.24528 0.0
H1322 H 0.79166 0.91658 0.19654 0.0
H1323 H 0.77143 0.89436 0.1936 0.0
H1324 H 0.82347 0.91625 0.20287 0.0
H1325 H 0.79588 0.94975 0.25068 0.0
H1326 H 0.79889 0.92946 0.25621 0.0
H1327 H 0.78505 0.93372 0.2398 0.0
C1328 C 0.78363 0.8887 0.23243 0.0
C1329 C 0.77492 0.88596 0.21785 0.0
C1330 C 0.79523 0.90131 0.23406 0.0
C1331 C 0.79817 0.9116 0.22123 0.0
C1332 C 0.78953 0.90885 0.20663 0.0
H1333 H 0.85822 -4e-05 0.23224 0.0
H1334 H 0.8355 0.9805 0.22767 0.0
C1335 C 0.77802 0.89614 0.20495 0.0
C1336 C 0.81079 0.92474 0.22284 0.0
H1337 H 0.82368 0.95675 0.24602 0.0
C1338 C 0.82343 0.92519 0.21222 0.0
C1339 C 0.8106 0.93659 0.23486 0.0
C1340 C 0.79678 0.93748 0.24592 0.0
C1341 C 0.83616 0.93685 0.21359 0.0
C1342 C 0.83647 0.94809 0.22621 0.0
C1343 C 0.82355 0.94798 0.2365 0.0
C1344 C 0.85023 0.9599 0.22907 0.0
C1345 C 0.84904 0.93705 0.2014 0.0
C1346 C 0.866 0.95477 0.2317 0.0
C1347 C 0.879 0.96584 0.23418 0.0
C1348 C 0.87648 0.9823 0.23436 0.0
C1349 C 0.8606 0.98739 0.23216 0.0
C1350 C 0.8476 0.97628 0.22953 0.0
H1351 H 0.84447 0.93127 0.19005 0.0
H1352 H 0.85349 0.94942 0.19879 0.0
H1353 H 0.85941 0.93032 0.20609 0.0
H1354 H 0.86826 0.94217 0.23186 0.0
H1355 H 0.89103 0.96148 0.23602 0.0
H1356 H 0.76199 0.14248 0.29157 0.0
H1357 H 0.78321 0.12343 0.2891 0.0
H1358 H 0.78344 0.13194 0.23847 0.0
H1359 H 0.76228 0.15109 0.24083 0.0
H1360 H 0.7848 0.09921 0.24711 0.0
H1361 H 0.83053 0.13783 0.28133 0.0
H1362 H 0.81214 0.1332 0.29133 0.0
H1363 H 0.8116 0.14508 0.27356 0.0
C1364 C 0.76658 0.14032 0.27991 0.0
C1365 C 0.76056 0.14843 0.26641 0.0
C1366 C 0.77868 0.12942 0.27852 0.0
C1367 C 0.78506 0.12648 0.26365 0.0
C1368 C 0.77869 0.13408 0.25007 0.0
H1369 H 0.87588 0.09012 0.23965 0.0
H1370 H 0.85229 0.10551 0.24434 0.0
C1371 C 0.76656 0.14497 0.25143 0.0
C1372 C 0.79876 0.1159 0.26231 0.0
H1373 H 0.83863 0.11256 0.27336 0.0
C1374 C 0.79656 0.10206 0.25289 0.0
C1375 C 0.81412 0.11978 0.26975 0.0
C1376 C 0.81736 0.13484 0.27946 0.0
C1377 C 0.80935 0.09198 0.25069 0.0
C1378 C 0.82467 0.0958 0.25824 0.0
C1379 C 0.82683 0.1096 0.2677 0.0
C1380 C 0.83891 0.08622 0.25567 0.0
C1381 C 0.80653 0.07762 0.23991 0.0
C1382 C 0.8393 0.07029 0.26068 0.0
C1383 C 0.85282 0.06141 0.25802 0.0
C1384 C 0.86619 0.06834 0.25034 0.0
C1385 C 0.8658 0.08437 0.24557 0.0
C1386 C 0.85232 0.09321 0.24824 0.0
H1387 H 0.79513 0.07817 0.2325 0.0
H1388 H 0.81675 0.07653 0.23191 0.0
H1389 H 0.8057 0.06669 0.2473 0.0
H1390 H 0.82917 0.06475 0.26668 0.0
H1391 H 0.85276 0.04911 0.26189 0.0
H1392 H 0.39251 0.97695 -0.00012 0.0
H1393 H 0.36895 0.95937 0.00496 0.0
H1394 H 0.36779 0.94261 0.95629 0.0
H1395 H 0.3908 0.9608 0.95084 0.0
H1396 H 0.33758 0.94763 0.96626 0.0
H1397 H 0.37124 0.91176 0.01085 0.0
H1398 H 0.37144 0.9326 0.0157 0.0
H1399 H 0.38122 0.92617 0.99824 0.0
C1400 C 0.38711 0.96973 0.99016 0.0
C1401 C 0.39367 0.97023 0.97496 0.0
C1402 C 0.37376 0.95952 0.99316 0.0
C1403 C 0.36683 0.94943 0.9811 0.0
C1404 C 0.37304 0.9502 0.96581 0.0
H1405 H 0.30904 0.86282 0.99301 0.0
H1406 H 0.32962 0.8836 0.98762 0.0
C1407 C 0.38631 0.96049 0.96277 0.0
C1408 C 0.35332 0.93785 0.98444 0.0
H1409 H 0.34306 0.9059 0.00761 0.0
C1410 C 0.33875 0.93849 0.9753 0.0
C1411 C 0.35496 0.92583 0.99611 0.0
C1412 C 0.3706 0.9239 0.00569 0.0
C1413 C 0.32577 0.92742 0.9775 0.0
C1414 C 0.32731 0.91561 0.9894 0.0
C1415 C 0.34186 0.91503 0.99857 0.0
C1416 C 0.31435 0.9032 0.99209 0.0
C1417 C 0.31076 0.92817 0.96673 0.0
C1418 C 0.29888 0.90729 0.99638 0.0
C1419 C 0.28697 0.89538 0.99934 0.0
C1420 C 0.29042 0.87917 0.99829 0.0
C1421 C 0.30595 0.87516 0.994 0.0
C1422 C 0.31776 0.88704 0.99091 0.0
H1423 H 0.31313 0.93507 0.95572 0.0
H1424 H 0.30594 0.91602 0.96325 0.0
H1425 H 0.3013 0.93415 0.97315 0.0
H1426 H 0.29608 0.91967 0.99772 0.0
H1427 H 0.27517 0.89887 0.00275 0.0
H1428 H 0.24173 0.34499 0.25069 0.0
H1429 H 0.22358 0.36705 0.24891 0.0
H1430 H 0.21306 0.36096 0.29846 0.0
H1431 H 0.23187 0.33946 0.30061 0.0
H1432 H 0.19126 0.36893 0.25393 0.0
H1433 H 0.22786 0.40752 0.29722 0.0
H1434 H 0.2353 0.3895 0.28913 0.0
H1435 H 0.22131 0.38848 0.30493 0.0
C1436 C 0.23571 0.34844 0.26128 0.0
C1437 C 0.23846 0.34055 0.27585 0.0
C1438 C 0.2252 0.36095 0.26019 0.0
C1439 C 0.21718 0.36583 0.27362 0.0
C1440 C 0.21938 0.35761 0.28803 0.0
H1441 H 0.16008 0.45051 0.28299 0.0
H1442 H 0.16974 0.42365 0.28745 0.0
C1443 C 0.23 0.34518 0.28917 0.0
C1444 C 0.20688 0.37979 0.27253 0.0
H1445 H 0.20371 0.41768 0.28659 0.0
C1446 C 0.19392 0.37955 0.26114 0.0
C1447 C 0.21034 0.39365 0.28197 0.0
C1448 C 0.22453 0.39493 0.2939 0.0
C1449 C 0.18453 0.3929 0.25875 0.0
C1450 C 0.18826 0.40683 0.26791 0.0
C1451 C 0.20083 0.4069 0.27967 0.0
C1452 C 0.18043 0.422 0.26448 0.0
C1453 C 0.1708 0.39207 0.24632 0.0
C1454 C 0.18311 0.42983 0.25004 0.0
C1455 C 0.17776 0.44517 0.24751 0.0
C1456 C 0.16958 0.45297 0.25938 0.0
C1457 C 0.16627 0.4448 0.27358 0.0
C1458 C 0.1718 0.42948 0.27617 0.0
H1459 H 0.1667 0.37955 0.2435 0.0
H1460 H 0.16035 0.3986 0.25034 0.0
H1461 H 0.17496 0.39772 0.23518 0.0
H1462 H 0.18998 0.42436 0.24097 0.0
H1463 H 0.18047 0.45109 0.23642 0.0
H1464 H 0.12086 0.02719 0.51353 0.0
H1465 H 0.14479 0.04489 0.51872 0.0
H1466 H 0.14261 0.06026 0.46972 0.0
H1467 H 0.11914 0.04199 0.46419 0.0
H1468 H 0.17359 0.05498 0.4805 0.0
H1469 H 0.14343 0.09287 0.5234 0.0
H1470 H 0.14321 0.07215 0.52867 0.0
H1471 H 0.13239 0.07825 0.51084 0.0
C1472 C 0.12558 0.03415 0.50378 0.0
C1473 C 0.11797 0.03321 0.48845 0.0
C1474 C 0.13916 0.04443 0.50683 0.0
C1475 C 0.14529 0.05413 0.49469 0.0
C1476 C 0.13799 0.05297 0.4793 0.0
H1477 H 0.20511 0.14039 0.50353 0.0
H1478 H 0.18377 0.1196 0.49949 0.0
C1479 C 0.12447 0.04262 0.4762 0.0
C1480 C 0.15919 0.06565 0.49802 0.0
H1481 H 0.17143 0.09836 0.52047 0.0
C1482 C 0.17315 0.06446 0.48925 0.0
C1483 C 0.1585 0.07811 0.50932 0.0
C1484 C 0.14353 0.08056 0.5185 0.0
C1485 C 0.18643 0.07543 0.49144 0.0
C1486 C 0.18584 0.08772 0.50295 0.0
C1487 C 0.17191 0.08884 0.51176 0.0
C1488 C 0.1991 0.10013 0.50541 0.0
C1489 C 0.20073 0.07406 0.48105 0.0
C1490 C 0.21483 0.09612 0.51022 0.0
C1491 C 0.22717 0.10802 0.51246 0.0
C1492 C 0.22393 0.12417 0.51009 0.0
C1493 C 0.20808 0.12811 0.50549 0.0
C1494 C 0.19583 0.11623 0.50317 0.0
H1495 H 0.19763 0.06658 0.47032 0.0
H1496 H 0.20532 0.086 0.47713 0.0
H1497 H 0.21063 0.06844 0.48797 0.0
H1498 H 0.21755 0.0838 0.51236 0.0
H1499 H 0.23921 0.10457 0.51611 0.0
H1500 H 0.74763 0.14965 0.71502 0.0
H1501 H 0.72889 0.12683 0.7194 0.0
H1502 H 0.73079 0.13722 0.76982 0.0
H1503 H 0.74957 0.16007 0.76554 0.0
H1504 H 0.7354 0.10593 0.76344 0.0
H1505 H 0.68114 0.1255 0.72927 0.0
H1506 H 0.69901 0.12599 0.71788 0.0
H1507 H 0.69811 0.13898 0.73485 0.0
C1508 C 0.74386 0.14723 0.72701 0.0
C1509 C 0.75006 0.15668 0.73994 0.0
C1510 C 0.73312 0.1342 0.72948 0.0
C1511 C 0.72824 0.13049 0.74489 0.0
C1512 C 0.73435 0.13994 0.75781 0.0
H1513 H 0.65368 0.05921 0.77032 0.0
H1514 H 0.6691 0.08422 0.76533 0.0
C1515 C 0.74514 0.15293 0.75536 0.0
C1516 C 0.71755 0.11618 0.74767 0.0
H1517 H 0.68078 0.09813 0.73707 0.0
C1518 C 0.72342 0.10428 0.75776 0.0
C1519 C 0.70185 0.11413 0.74039 0.0
C1520 C 0.69457 0.1269 0.73012 0.0
C1521 C 0.71417 0.09019 0.76048 0.0
C1522 C 0.69876 0.08783 0.75265 0.0
C1523 C 0.69269 0.0999 0.74288 0.0
C1524 C 0.68884 0.07286 0.75451 0.0
C1525 C 0.72092 0.07802 0.77184 0.0
C1526 C 0.69462 0.05828 0.74964 0.0
C1527 C 0.68589 0.04401 0.75251 0.0
C1528 C 0.67113 0.04406 0.76018 0.0
C1529 C 0.66502 0.05876 0.76443 0.0
C1530 C 0.6738 0.07305 0.76158 0.0
H1531 H 0.7307 0.08337 0.77994 0.0
H1532 H 0.71129 0.07257 0.77917 0.0
H1533 H 0.72612 0.0684 0.76489 0.0
H1534 H 0.70606 0.05792 0.74389 0.0
H1535 H 0.69096 0.03293 0.74908 0.0
H1536 H 0.39556 0.01166 0.56051 0.0
H1537 H 0.37134 0.02707 0.55674 0.0
H1538 H 0.38582 0.04041 0.50966 0.0
H1539 H 0.40996 0.02492 0.51329 0.0
H1540 H 0.37005 0.0588 0.55171 0.0
H1541 H 0.33894 0.02613 0.5008 0.0
H1542 H 0.35555 0.01811 0.51233 0.0
H1543 H 0.35938 0.03258 0.49699 0.0
C1544 C 0.39355 0.01784 0.54933 0.0
C1545 C 0.40465 0.01705 0.53718 0.0
C1546 C 0.37967 0.02657 0.54717 0.0
C1547 C 0.37662 0.03467 0.53281 0.0
C1548 C 0.38768 0.0339 0.52066 0.0
H1549 H 0.31127 0.10682 0.50228 0.0
H1550 H 0.33182 0.08682 0.50421 0.0
C1551 C 0.4015 0.02509 0.52277 0.0
C1552 C 0.36243 0.04475 0.53098 0.0
H1553 H 0.32892 0.0515 0.50718 0.0
C1554 C 0.36097 0.05709 0.54206 0.0
C1555 C 0.35062 0.04254 0.51835 0.0
C1556 C 0.35108 0.02903 0.50653 0.0
C1557 C 0.34825 0.0675 0.54067 0.0
C1558 C 0.33657 0.06541 0.52796 0.0
C1559 C 0.33793 0.05304 0.5169 0.0
C1560 C 0.32307 0.07624 0.52586 0.0
C1561 C 0.3476 0.08092 0.5526 0.0
C1562 C 0.31107 0.07654 0.53713 0.0
C1563 C 0.29929 0.08791 0.53606 0.0
C1564 C 0.29934 0.09921 0.5237 0.0
C1565 C 0.31093 0.09835 0.51199 0.0
C1566 C 0.32268 0.08693 0.51306 0.0
H1567 H 0.35916 0.08277 0.55974 0.0
H1568 H 0.34484 0.09224 0.54647 0.0
H1569 H 0.33782 0.07808 0.56091 0.0
H1570 H 0.31107 0.06824 0.54699 0.0
H1571 H 0.2905 0.08817 0.54522 0.0
H1572 H 0.59967 0.46729 0.52704 0.0
H1573 H 0.62268 0.45078 0.52332 0.0
H1574 H 0.61959 0.45981 0.47274 0.0
H1575 H 0.59604 0.47572 0.47623 0.0
H1576 H 0.62279 0.42887 0.47868 0.0
H1577 H 0.66904 0.46394 0.51516 0.0
H1578 H 0.65155 0.45877 0.52627 0.0
H1579 H 0.64972 0.47165 0.50922 0.0
C1580 C 0.6038 0.46571 0.5151 0.0
C1581 C 0.59598 0.47286 0.50194 0.0
C1582 C 0.61714 0.45647 0.51303 0.0
C1583 C 0.62309 0.45435 0.49779 0.0
C1584 C 0.61532 0.46144 0.48462 0.0
H1585 H 0.71296 0.40354 0.48948 0.0
H1586 H 0.69303 0.42417 0.48646 0.0
C1587 C 0.60192 0.47062 0.48667 0.0
C1588 C 0.63677 0.44392 0.49553 0.0
H1589 H 0.67506 0.43675 0.50951 0.0
C1590 C 0.6343 0.43073 0.48525 0.0
C1591 C 0.65193 0.44651 0.50383 0.0
C1592 C 0.65579 0.46109 0.5141 0.0
C1593 C 0.64624 0.4196 0.48371 0.0
C1594 C 0.6609 0.42153 0.49297 0.0
C1595 C 0.66373 0.43517 0.50257 0.0
C1596 C 0.67287 0.40895 0.4938 0.0
C1597 C 0.64296 0.40581 0.47227 0.0
C1598 C 0.66815 0.39363 0.499 0.0
C1599 C 0.67943 0.38188 0.50067 0.0
C1600 C 0.69573 0.38522 0.49735 0.0
C1601 C 0.70047 0.40057 0.49207 0.0
C1602 C 0.68912 0.41236 0.49037 0.0
H1603 H 0.63423 0.4089 0.46247 0.0
H1604 H 0.65426 0.4021 0.46699 0.0
H1605 H 0.63755 0.39551 0.47877 0.0
H1606 H 0.65578 0.39084 0.50213 0.0
H1607 H 0.67536 0.37023 0.50486 0.0
H1608 H 0.70542 0.28486 0.3295 0.0
H1609 H 0.70996 0.30239 0.35285 0.0
H1610 H 0.73885 0.26715 0.37604 0.0
H1611 H 0.73398 0.24936 0.35315 0.0
H1612 H 0.70268 0.29327 0.38653 0.0
H1613 H 0.76723 0.31052 0.37767 0.0
H1614 H 0.7535 0.30334 0.36161 0.0
H1615 H 0.76197 0.28955 0.37561 0.0
C1616 C 0.71265 0.28078 0.33961 0.0
C1617 C 0.7194 0.2657 0.33938 0.0
C1618 C 0.71531 0.29086 0.35287 0.0
C1619 C 0.72491 0.28611 0.36601 0.0
C1620 C 0.73164 0.27112 0.36586 0.0
H1621 H 0.75919 0.30936 0.45935 0.0
H1622 H 0.75333 0.30018 0.43209 0.0
C1623 C 0.72889 0.261 0.35271 0.0
C1624 C 0.72753 0.29642 0.38027 0.0
H1625 H 0.75741 0.31538 0.40344 0.0
C1626 C 0.71455 0.29839 0.39015 0.0
C1627 C 0.74305 0.30302 0.38485 0.0
C1628 C 0.75724 0.30165 0.37434 0.0
C1629 C 0.71691 0.30598 0.40506 0.0
C1630 C 0.73261 0.31203 0.40997 0.0
C1631 C 0.74541 0.31071 0.39968 0.0
C1632 C 0.73636 0.31832 0.42629 0.0
C1633 C 0.7028 0.30663 0.4158 0.0
C1634 C 0.72894 0.33174 0.43203 0.0
C1635 C 0.73217 0.337 0.44774 0.0
C1636 C 0.74303 0.32899 0.45791 0.0
C1637 C 0.75075 0.31581 0.45191 0.0
C1638 C 0.74744 0.31055 0.43629 0.0
H1639 H 0.6924 0.29863 0.41156 0.0
H1640 H 0.70642 0.30323 0.42818 0.0
H1641 H 0.69864 0.31899 0.41609 0.0
H1642 H 0.7206 0.33811 0.42439 0.0
H1643 H 0.72612 0.34726 0.45192 0.0
H1644 H 0.52507 0.02608 0.89605 0.0
H1645 H 0.54346 0.02084 0.87497 0.0
H1646 H 0.53149 0.97042 0.8783 0.0
H1647 H 0.51355 0.9755 0.89999 0.0
H1648 H 0.56366 0.97642 0.87755 0.0
H1649 H 0.53349 0.00945 0.82879 0.0
H1650 H 0.53758 0.02184 0.84606 0.0
H1651 H 0.52378 0.00465 0.84713 0.0
C1652 C 0.52638 0.01386 0.89238 0.0
C1653 C 0.51785 0.00121 0.89977 0.0
C1654 C 0.53672 0.0109 0.88013 0.0
C1655 C 0.53861 0.99526 0.87481 0.0
C1656 C 0.53009 0.98259 0.8821 0.0
H1657 H 0.59836 0.98436 0.79162 0.0
H1658 H 0.57553 0.98121 0.80922 0.0
C1659 C 0.51977 0.98553 0.89443 0.0
C1660 C 0.55024 0.99218 0.86234 0.0
H1661 H 0.5616 0.00433 0.82552 0.0
C1662 C 0.56307 0.98231 0.86606 0.0
C1663 C 0.5493 -0.00041 0.84722 0.0
C1664 C 0.53519 0.00933 0.84199 0.0
C1665 C 0.57549 0.98042 0.85546 0.0
C1666 C 0.57524 0.98891 0.84091 0.0
C1667 C 0.56192 0.998 0.83677 0.0
C1668 C 0.58923 0.98954 0.83042 0.0
C1669 C 0.58883 0.96948 0.86005 0.0
C1670 C 0.60446 0.99531 0.83648 0.0
C1671 C 0.61748 0.99705 0.82652 0.0
C1672 C 0.61551 0.99325 0.81021 0.0
C1673 C 0.60028 0.98734 0.80414 0.0
C1674 C 0.58723 0.98555 0.81417 0.0
H1675 H 0.58452 0.95996 0.86823 0.0
H1676 H 0.59367 0.96382 0.8494 0.0
H1677 H 0.59886 0.97648 0.86641 0.0
H1678 H 0.6062 0.99888 0.84887 0.0
H1679 H 0.629 0.00172 0.83159 0.0
H1680 H 0.28928 0.24453 0.3661 0.0
H1681 H 0.28775 0.22695 0.38917 0.0
H1682 H 0.29341 0.18618 0.35893 0.0
H1683 H 0.29474 0.20377 0.33561 0.0
H1684 H 0.26735 0.18286 0.3801 0.0
H1685 H 0.32471 0.20317 0.41183 0.0
H1686 H 0.31252 0.21935 0.40568 0.0
H1687 H 0.32064 0.20683 0.39087 0.0
C1688 C 0.29018 0.23182 0.36434 0.0
C1689 C 0.29209 0.22552 0.34904 0.0
C1690 C 0.28948 0.22182 0.37755 0.0
C1691 C 0.29072 0.20531 0.37577 0.0
C1692 C 0.2926 0.19892 0.36054 0.0
H1693 H 0.29291 0.15207 0.46598 0.0
H1694 H 0.29914 0.15885 0.43842 0.0
C1695 C 0.29341 0.20897 0.34728 0.0
C1696 C 0.28919 0.19483 0.38983 0.0
H1697 H 0.30463 0.18998 0.42775 0.0
C1698 C 0.27566 0.18416 0.39042 0.0
C1699 C 0.3002 0.19634 0.40317 0.0
C1700 C 0.31543 0.20693 0.40284 0.0
C1701 C 0.27223 0.17581 0.40445 0.0
C1702 C 0.28251 0.17837 0.4182 0.0
C1703 C 0.29667 0.18814 0.41723 0.0
C1704 C 0.27793 0.17255 0.43411 0.0
C1705 C 0.25738 0.16468 0.40454 0.0
C1706 C 0.26393 0.17795 0.44074 0.0
C1707 C 0.26039 0.1742 0.45643 0.0
C1708 C 0.27082 0.16499 0.46586 0.0
C1709 C 0.2846 0.15914 0.45903 0.0
C1710 C 0.28819 0.16301 0.4433 0.0
H1711 H 0.25402 0.16001 0.39239 0.0
H1712 H 0.25928 0.15446 0.41268 0.0
H1713 H 0.24706 0.17128 0.4087 0.0
H1714 H 0.25602 0.18561 0.43398 0.0
H1715 H 0.24966 0.17888 0.46127 0.0
H1716 H 0.4851 0.47781 0.90575 0.0
H1717 H 0.46899 0.48211 0.88117 0.0
H1718 H 0.47679 0.53297 0.88706 0.0
H1719 H 0.49277 0.52882 0.91181 0.0
H1720 H 0.44068 0.50062 0.87445 0.0
H1721 H 0.49521 0.52263 0.84306 0.0
H1722 H 0.49657 0.51206 0.86174 0.0
H1723 H 0.49147 0.53261 0.86142 0.0
C1724 C 0.48316 0.48993 0.902 0.0
C1725 C 0.49034 0.50297 0.9107 0.0
C1726 C 0.47398 0.49236 0.88792 0.0
C1727 C 0.47187 0.50784 0.88223 0.0
C1728 C 0.47849 0.52091 0.89115 0.0
H1729 H 0.41252 0.53168 0.79672 0.0
H1730 H 0.42312 0.53055 0.82444 0.0
C1731 C 0.48767 0.51851 0.90525 0.0
C1732 C 0.46353 0.51019 0.86651 0.0
H1733 H 0.47035 0.52186 0.82836 0.0
C1734 C 0.44709 0.50538 0.86438 0.0
C1735 C 0.47201 0.51628 0.8534 0.0
C1736 C 0.48982 0.5211 0.85489 0.0
C1737 C 0.43895 0.50637 0.84939 0.0
C1738 C 0.44748 0.51236 0.83628 0.0
C1739 C 0.46384 0.51736 0.83848 0.0
C1740 C 0.44011 0.51247 0.8199 0.0
C1741 C 0.42146 0.50051 0.84749 0.0
C1742 C 0.44615 0.50267 0.80823 0.0
C1743 C 0.44018 0.50329 0.79247 0.0
C1744 C 0.42808 0.51382 0.78796 0.0
C1745 C 0.42181 0.52342 0.79976 0.0
C1746 C 0.4278 0.52276 0.81562 0.0
H1747 H 0.4173 0.49407 0.85823 0.0
H1748 H 0.41378 0.51084 0.84542 0.0
H1749 H 0.41963 0.49246 0.83699 0.0
H1750 H 0.45565 0.49465 0.81131 0.0
H1751 H 0.4453 0.49567 0.78377 0.0
H1752 H 0.7057 0.74561 0.15594 0.0
H1753 H 0.71033 0.72433 0.13702 0.0
H1754 H 0.75867 0.74412 0.13075 0.0
H1755 H 0.75458 0.76474 0.15041 0.0
H1756 H 0.71605 0.72571 0.10665 0.0
H1757 H 0.76801 0.69845 0.13746 0.0
H1758 H 0.75609 0.71275 0.14713 0.0
H1759 H 0.77223 0.71935 0.1346 0.0
C1760 C 0.71745 0.74525 0.15082 0.0
C1761 C 0.72978 0.75691 0.15481 0.0
C1762 C 0.72003 0.73313 0.1399 0.0
C1763 C 0.73496 0.73242 0.13268 0.0
C1764 C 0.7472 0.74413 0.13647 0.0
H1765 H 0.75585 0.69403 0.04219 0.0
H1766 H 0.74659 0.70903 0.06464 0.0
C1767 C 0.74472 0.75612 0.14753 0.0
C1768 C 0.73749 0.71998 0.12054 0.0
H1769 H 0.76441 0.69305 0.10924 0.0
C1770 C 0.72651 0.7184 0.10734 0.0
C1771 C 0.75089 0.71013 0.12157 0.0
C1772 C 0.76235 0.71013 0.13606 0.0
C1773 C 0.72901 0.70785 0.09478 0.0
C1774 C 0.74316 0.69902 0.09519 0.0
C1775 C 0.75369 0.69999 0.10877 0.0
C1776 C 0.74779 0.68945 0.08135 0.0
C1777 C 0.71643 0.7063 0.08124 0.0
C1778 C 0.75197 0.67353 0.0833 0.0
C1779 C 0.75761 0.66499 0.0705 0.0
C1780 C 0.75908 0.67221 0.05551 0.0
C1781 C 0.75464 0.68805 0.05353 0.0
C1782 C 0.74922 0.69662 0.06635 0.0
H1783 H 0.70424 0.70889 0.08533 0.0
H1784 H 0.7195 0.71511 0.07187 0.0
H1785 H 0.71585 0.69418 0.07588 0.0
H1786 H 0.75108 0.66778 0.09479 0.0
H1787 H 0.76097 0.6528 0.07239 0.0
H1788 H 0.98338 0.03921 0.08443 0.0
H1789 H 0.96995 0.03933 0.10974 0.0
H1790 H 0.96923 0.98796 0.11095 0.0
H1791 H 0.98224 0.98768 0.08527 0.0
H1792 H 0.93981 0.00065 0.11893 0.0
H1793 H 0.9918 0.02999 0.15321 0.0
H1794 H 0.98571 0.04079 0.13569 0.0
H1795 H 0.99369 0.02137 0.13369 0.0
C1796 C 0.98021 0.02791 0.08996 0.0
C1797 C 0.9839 0.01343 0.08282 0.0
C1798 C 0.97271 0.02802 0.10453 0.0
C1799 C 0.96885 0.01367 0.11234 0.0
C1800 C 0.97224 0.99917 0.10516 0.0
H1801 H 0.94261 0.01166 0.21173 0.0
H1802 H 0.95502 0.00634 0.1865 0.0
C1803 C 0.97976 0.99904 0.09055 0.0
C1804 C 0.9612 0.0139 0.12796 0.0
H1805 H 0.96655 0.02861 0.16585 0.0
C1806 C 0.94568 0.00664 0.12924 0.0
C1807 C 0.96901 0.02151 0.14144 0.0
C1808 C 0.98604 0.02873 0.14103 0.0
C1809 C 0.93753 0.00726 0.14354 0.0
C1810 C 0.94503 0.01557 0.15679 0.0
C1811 C 0.96075 0.02237 0.15563 0.0
C1812 C 0.93673 0.01767 0.1719 0.0
C1813 C 0.92102 0.99895 0.14436 0.0
C1814 C 0.92232 0.02579 0.17207 0.0
C1815 C 0.91513 0.02876 0.18648 0.0
C1816 C 0.92231 0.02378 0.201 0.0
C1817 C 0.93668 0.01553 0.20077 0.0
C1818 C 0.94382 0.01252 0.18636 0.0
H1819 H 0.91911 0.98944 0.13515 0.0
H1820 H 0.9193 0.99358 0.15629 0.0
H1821 H 0.91162 0.00777 0.1422 0.0
H1822 H 0.91684 0.0302 0.1611 0.0
H1823 H 0.90413 0.03524 0.18625 0.0
H1824 H 0.28349 0.75558 0.14591 0.0
H1825 H 0.27784 0.77321 0.12348 0.0
H1826 H 0.30106 0.81289 0.1496 0.0
H1827 H 0.30648 0.79538 0.17238 0.0
H1828 H 0.25968 0.80284 0.12584 0.0
H1829 H 0.32216 0.81184 0.10423 0.0
H1830 H 0.3162 0.79487 0.11621 0.0
H1831 H 0.3192 0.81422 0.12524 0.0
C1832 C 0.28731 0.76807 0.14697 0.0
C1833 C 0.29534 0.77409 0.16099 0.0
C1834 C 0.28416 0.77809 0.1341 0.0
C1835 C 0.2891 0.79428 0.13491 0.0
C1836 C 0.29731 0.80036 0.14874 0.0
H1837 H 0.25197 0.86154 0.06388 0.0
H1838 H 0.26243 0.85081 0.08921 0.0
C1839 C 0.30043 0.79034 0.1617 0.0
C1840 C 0.28507 0.80477 0.12136 0.0
H1841 H 0.30122 0.82386 0.08945 0.0
C1842 C 0.26875 0.80763 0.11798 0.0
C1843 C 0.29699 0.81086 0.11116 0.0
C1844 C 0.31465 0.80779 0.11424 0.0
C1845 C 0.26394 0.81614 0.10437 0.0
C1846 C 0.27582 0.822 0.09399 0.0
C1847 C 0.2922 0.81943 0.09755 0.0
C1848 C 0.27122 0.82953 0.07866 0.0
C1849 C 0.24613 0.8182 0.10082 0.0
C1850 C 0.27317 0.82133 0.06437 0.0
C1851 C 0.26721 0.82738 0.04992 0.0
C1852 C 0.25927 0.84181 0.04952 0.0
C1853 C 0.25797 0.85036 0.0638 0.0
C1854 C 0.26391 0.84426 0.07828 0.0
H1855 H 0.2384 0.8108 0.10872 0.0
H1856 H 0.24344 0.83089 0.10258 0.0
H1857 H 0.2428 0.81497 0.08822 0.0
H1858 H 0.27877 0.80993 0.06446 0.0
H1859 H 0.26836 0.82046 0.03918 0.0
H1860 H 0.05002 0.48446 0.10431 0.0
H1861 H 0.06834 0.48851 0.12776 0.0
H1862 H 0.02748 0.48968 0.1578 0.0
H1863 H 0.00901 0.48528 0.1344 0.0
H1864 H 0.06918 0.51467 0.15009 0.0
H1865 H 0.05666 0.45587 0.17875 0.0
H1866 H 0.05146 0.45947 0.15799 0.0
H1867 H 0.03941 0.46719 0.17323 0.0
C1868 C 0.04492 0.4854 0.11592 0.0
C1869 C 0.02806 0.48444 0.1175 0.0
C1870 C 0.0554 0.48782 0.12929 0.0
C1871 C 0.04926 0.48921 0.14451 0.0
C1872 C 0.03245 0.48841 0.14617 0.0
H1873 H 0.10443 0.4987 0.23618 0.0
H1874 H 0.08209 0.49698 0.21599 0.0
C1875 C 0.02193 0.48605 0.13278 0.0
C1876 C 0.06056 0.49175 0.15855 0.0
H1877 H 0.07545 0.47373 0.19216 0.0
C1878 C 0.0705 0.50577 0.15934 0.0
C1879 C 0.06214 0.48016 0.17065 0.0
C1880 C 0.05196 0.46475 0.17016 0.0
C1881 C 0.08217 0.50842 0.1718 0.0
C1882 C 0.08418 0.49657 0.18359 0.0
C1883 C 0.07389 0.48277 0.18309 0.0
C1884 C 0.09759 0.49782 0.19589 0.0
C1885 C 0.09227 0.52388 0.17222 0.0
C1886 C 0.11367 0.49862 0.19126 0.0
C1887 C 0.12642 0.49961 0.2027 0.0
C1888 C 0.12339 0.49971 0.21907 0.0
C1889 C 0.10722 0.49872 0.22369 0.0
C1890 C 0.09444 0.49772 0.21219 0.0
H1891 H 0.08608 0.53342 0.16554 0.0
H1892 H 0.095 0.52802 0.18466 0.0
H1893 H 0.10389 0.52204 0.16653 0.0
H1894 H 0.11638 0.49834 0.17876 0.0
H1895 H 0.13868 0.50024 0.19866 0.0
H1896 H 0.3955 0.73885 0.26108 0.0
H1897 H 0.41884 0.74266 0.27991 0.0
H1898 H 0.38899 0.72796 0.31859 0.0
H1899 H 0.36561 0.7243 0.29995 0.0
H1900 H 0.42243 0.76268 0.30728 0.0
H1901 H 0.42754 0.69892 0.32296 0.0
H1902 H 0.41593 0.70532 0.30563 0.0
H1903 H 0.40763 0.70604 0.32505 0.0
C1904 C 0.39389 0.73652 0.27361 0.0
C1905 C 0.37872 0.73116 0.27901 0.0
C1906 C 0.40724 0.73863 0.28432 0.0
C1907 C 0.40568 0.73533 0.30057 0.0
C1908 C 0.39052 0.73022 0.30603 0.0
H1909 H 0.46234 0.74075 0.38821 0.0
H1910 H 0.44173 0.73782 0.36662 0.0
C1911 C 0.37718 0.72811 0.29535 0.0
C1912 C 0.41977 0.73751 0.31196 0.0
H1913 H 0.44257 0.71782 0.33966 0.0
C1914 C 0.42698 0.75286 0.31425 0.0
C1915 C 0.42567 0.72465 0.32098 0.0
C1916 C 0.41891 0.70777 0.31845 0.0
C1917 C 0.43954 0.75583 0.32583 0.0
C1918 C 0.44513 0.74303 0.33514 0.0
C1919 C 0.43818 0.72761 0.33255 0.0
C1920 C 0.45772 0.74542 0.34811 0.0
C1921 C 0.44631 0.77269 0.32842 0.0
C1922 C 0.47358 0.75064 0.34482 0.0
C1923 C 0.48545 0.75237 0.35717 0.0
C1924 C 0.48167 0.74881 0.37301 0.0
C1925 C 0.46572 0.74362 0.37619 0.0
C1926 C 0.4539 0.74191 0.36386 0.0
H1927 H 0.43844 0.78156 0.32267 0.0
H1928 H 0.44784 0.77549 0.34135 0.0
H1929 H 0.45839 0.77398 0.32321 0.0
H1930 H 0.47683 0.75316 0.33269 0.0
H1931 H 0.49761 0.75632 0.35427 0.0
H1932 H 0.96853 0.39897 0.99414 0.0
H1933 H 0.9741 0.37694 0.9764 0.0
H1934 H 0.02132 0.39866 0.96834 0.0
H1935 H 0.01591 0.42061 0.98635 0.0
H1936 H 0.98117 0.37601 0.94508 0.0
H1937 H 0.03256 0.35452 0.98262 0.0
H1938 H 0.01925 0.36915 0.98962 0.0
H1939 H 0.03507 0.37491 0.97647 0.0
C1940 C 0.98006 0.3991 0.98851 0.0
C1941 C 0.99184 0.41144 0.99171 0.0
C1942 C 0.98324 0.3865 0.9784 0.0
C1943 C 0.99823 0.38601 0.97125 0.0
C1944 C 0.00983 0.39858 0.97404 0.0
H1945 H 0.03327 0.30956 0.91203 0.0
H1946 H 0.02972 0.33608 0.92336 0.0
C1947 C 0.00672 0.41112 0.98429 0.0
C1948 C 0.00166 0.37221 0.96109 0.0
H1949 H 0.02639 0.341 0.95829 0.0
C1950 C 0.99111 0.36841 0.94792 0.0
C1951 C 0.01465 0.3623 0.96481 0.0
C1952 C 0.02596 0.3653 0.97922 0.0
C1953 C 0.99304 0.35482 0.93855 0.0
C1954 C 0.00582 0.3448 0.94248 0.0
C1955 C 0.01668 0.34883 0.95529 0.0
C1956 C 0.00729 0.32932 0.93437 0.0
C1957 C 0.98132 0.35114 0.92462 0.0
C1958 C 0.99581 0.31684 0.93681 0.0
C1959 C 0.99787 0.30171 0.93053 0.0
C1960 C 0.01142 0.29877 0.92162 0.0
C1961 C 0.02267 0.31145 0.91878 0.0
C1962 C 0.02069 0.32658 0.92525 0.0
H1963 H 0.97458 0.36175 0.92094 0.0
H1964 H 0.98776 0.34677 0.91425 0.0
H1965 H 0.97241 0.3416 0.92807 0.0
H1966 H 0.9855 0.3187 0.94399 0.0
H1967 H 0.98895 0.29223 0.93289 0.0
H1968 H 0.63639 0.80122 0.24964 0.0
H1969 H 0.61538 0.79769 0.26916 0.0
H1970 H 0.64887 0.81628 0.3062 0.0
H1971 H 0.66993 0.81976 0.28684 0.0
H1972 H 0.61643 0.77892 0.2963 0.0
H1973 H 0.60905 0.84214 0.31238 0.0
H1974 H 0.61918 0.83633 0.29481 0.0
H1975 H 0.62967 0.83644 0.31404 0.0
C1976 C 0.63928 0.80456 0.26195 0.0
C1977 C 0.65482 0.81083 0.26668 0.0
C1978 C 0.62724 0.80262 0.27305 0.0
C1979 C 0.63049 0.80699 0.28906 0.0
C1980 C 0.64598 0.81323 0.29383 0.0
H1981 H 0.5871 0.79484 0.37913 0.0
H1982 H 0.60346 0.80235 0.35654 0.0
C1983 C 0.65801 0.81519 0.28274 0.0
C1984 C 0.61802 0.80417 0.301 0.0
H1985 H 0.59761 0.82253 0.3298 0.0
C1986 C 0.61213 0.78846 0.30349 0.0
C1987 C 0.61247 0.81667 0.31035 0.0
C1988 C 0.61779 0.83387 0.30768 0.0
C1989 C 0.60133 0.78481 0.31553 0.0
C1990 C 0.59608 0.79727 0.32513 0.0
C1991 C 0.60168 0.81302 0.32241 0.0
C1992 C 0.58546 0.794 0.3386 0.0
C1993 C 0.59613 0.76759 0.31829 0.0
C1994 C 0.56973 0.78726 0.33595 0.0
C1995 C 0.56034 0.78292 0.34884 0.0
C1996 C 0.56652 0.78532 0.36459 0.0
C1997 C 0.582 0.79275 0.36716 0.0
C1998 C 0.59137 0.79708 0.35427 0.0
H1999 H 0.60386 0.75926 0.31214 0.0
H2000 H 0.59655 0.76482 0.33123 0.0
H2001 H 0.58348 0.76539 0.31361 0.0
H2002 H 0.56485 0.78506 0.32392 0.0
H2003 H 0.54842 0.77732 0.34645 0.0
H2004 H 0.99586 0.09015 0.96317 0.0
H2005 H 0.99664 0.11614 0.94997 0.0
H2006 H 0.04813 0.11373 0.94539 0.0
H2007 H 0.04759 0.08811 0.95907 0.0
H2008 H 0.03954 0.14189 0.95853 0.0
H2009 H 0.00232 0.12795 0.9032 0.0
H2010 H 0.99271 0.12228 0.92125 0.0
H2011 H 0.0106 0.11266 0.91578 0.0
C2012 C 0.00734 0.09514 0.95931 0.0
C2013 C 0.02166 0.08704 0.96217 0.0
C2014 C 0.00773 0.10989 0.9516 0.0
C2015 C 0.02241 0.11675 0.94652 0.0
C2016 C 0.03666 0.10858 0.94911 0.0
H2017 H 0.03958 0.20146 0.88928 0.0
H2018 H 0.03679 0.17411 0.89925 0.0
C2019 C 0.03629 0.09387 0.95683 0.0
C2020 C 0.02319 0.13294 0.93957 0.0
H2021 H 0.00906 0.15539 0.90857 0.0
C2022 C 0.03292 0.14483 0.94757 0.0
C2023 C 0.01465 0.13668 0.92521 0.0
C2024 C 0.00459 0.1242 0.91575 0.0
C2025 C 0.0342 0.16044 0.94172 0.0
C2026 C 0.02529 0.16431 0.92763 0.0
C2027 C 0.01574 0.15239 0.91946 0.0
C2028 C 0.02594 0.18069 0.92115 0.0
C2029 C 0.04529 0.17259 0.95055 0.0
C2030 C 0.02044 0.19335 0.93003 0.0
C2031 C 0.02206 0.20897 0.92442 0.0
C2032 C 0.02911 0.21217 0.90975 0.0
C2033 C 0.03415 0.19938 0.90064 0.0
C2034 C 0.03253 0.18376 0.90629 0.0
H2035 H 0.05417 0.16684 0.9587 0.0
H2036 H 0.052 0.1803 0.9421 0.0
H2037 H 0.03796 0.18031 0.95784 0.0
H2038 H 0.01509 0.19118 0.94142 0.0
H2039 H 0.01808 0.21852 0.93174 0.0
H2040 H 0.36958 0.30438 0.233 0.0
H2041 H 0.3908 0.3031 0.21363 0.0
H2042 H 0.38074 0.25242 0.2085 0.0
H2043 H 0.35959 0.25358 0.22782 0.0
H2044 H 0.41365 0.26077 0.21119 0.0
H2045 H 0.38218 0.29751 0.16557 0.0
H2046 H 0.38571 0.30674 0.18482 0.0
H2047 H 0.37218 0.28941 0.18265 0.0
C2048 C 0.37185 0.29298 0.22768 0.0
C2049 C 0.36286 0.27909 0.23189 0.0
C2050 C 0.38397 0.29228 0.21663 0.0
C2051 C 0.38719 0.2777 0.20948 0.0
C2052 C 0.37846 0.26379 0.21389 0.0
H2053 H 0.42843 0.25313 0.12245 0.0
H2054 H 0.41199 0.25955 0.14474 0.0
C2055 C 0.3664 0.26446 0.22497 0.0
C2056 C 0.39943 0.27684 0.19717 0.0
H2057 H 0.40764 0.28849 0.1593 0.0
C2058 C 0.41243 0.26692 0.19988 0.0
C2059 C 0.39772 0.28481 0.1824 0.0
C2060 C 0.38364 0.29512 0.17856 0.0
C2061 C 0.42358 0.26446 0.18809 0.0
C2062 C 0.4218 0.27235 0.17328 0.0
C2063 C 0.40902 0.28256 0.17072 0.0
C2064 C 0.4321 0.26902 0.15977 0.0
C2065 C 0.43672 0.25289 0.1913 0.0
C2066 C 0.4489 0.27239 0.16073 0.0
C2067 C 0.45841 0.26865 0.14796 0.0
C2068 C 0.45124 0.26156 0.13401 0.0
C2069 C 0.43437 0.25853 0.13302 0.0
C2070 C 0.42493 0.26223 0.14575 0.0
H2071 H 0.43444 0.24545 0.20198 0.0
H2072 H 0.43782 0.24489 0.18089 0.0
H2073 H 0.44847 0.25965 0.19342 0.0
H2074 H 0.45464 0.2779 0.17134 0.0
H2075 H 0.47136 0.27122 0.14905 0.0
H2076 H 0.55313 0.40854 0.01906 0.0
H2077 H 0.54826 0.38358 0.03343 0.0
H2078 H 0.50255 0.39984 0.04811 0.0
H2079 H 0.50725 0.42476 0.03351 0.0
H2080 H 0.54353 0.37731 0.06476 0.0
H2081 H 0.48903 0.35736 0.02767 0.0
H2082 H 0.50221 0.374 0.02218 0.0
H2083 H 0.48756 0.37641 0.0371 0.0
C2084 C 0.54209 0.40684 0.02544 0.0
C2085 C 0.53052 0.41856 0.02509 0.0
C2086 C 0.53931 0.39256 0.03362 0.0
C2087 C 0.52492 0.38973 0.04162 0.0
C2088 C 0.51355 0.4016 0.04169 0.0
H2089 H 0.49064 0.30324 0.09066 0.0
H2090 H 0.49464 0.33121 0.08281 0.0
C2091 C 0.51626 0.41584 0.03338 0.0
C2092 C 0.52185 0.37424 0.04969 0.0
H2093 H 0.49635 0.34099 0.04936 0.0
C2094 C 0.53318 0.3694 0.06143 0.0
C2095 C 0.50833 0.36392 0.04534 0.0
C2096 C 0.49615 0.36808 0.03229 0.0
C2097 C 0.53144 0.35445 0.06881 0.0
C2098 C 0.51808 0.34409 0.06426 0.0
C2099 C 0.50653 0.34906 0.05286 0.0
C2100 C 0.51645 0.32757 0.0703 0.0
C2101 C 0.54393 0.3498 0.08133 0.0
C2102 C 0.52744 0.31633 0.06589 0.0
C2103 C 0.52514 0.30036 0.07022 0.0
C2104 C 0.5118 0.29532 0.07909 0.0
C2105 C 0.50106 0.30672 0.08389 0.0
C2106 C 0.5033 0.3227 0.0794 0.0
H2107 H 0.55115 0.36034 0.0862 0.0
H2108 H 0.5381 0.3434 0.0913 0.0
H2109 H 0.55235 0.34164 0.07593 0.0
H2110 H 0.53754 0.31983 0.05867 0.0
H2111 H 0.53366 0.29192 0.06635 0.0
H2112 H 0.63343 0.19425 0.21307 0.0
H2113 H 0.61177 0.19871 0.19305 0.0
H2114 H 0.61526 0.24905 0.2038 0.0
H2115 H 0.63738 0.24483 0.22327 0.0
H2116 H 0.58191 0.21132 0.19585 0.0
H2117 H 0.61961 0.24847 0.15581 0.0
H2118 H 0.62824 0.23704 0.17195 0.0
H2119 H 0.61978 0.25591 0.17588 0.0
C2120 C 0.62973 0.2063 0.21105 0.0
C2121 C 0.63726 0.21919 0.21972 0.0
C2122 C 0.61725 0.20881 0.1997 0.0
C2123 C 0.61207 0.22424 0.19677 0.0
C2124 C 0.61927 0.23708 0.20565 0.0
H2125 H 0.52349 0.24691 0.14243 0.0
H2126 H 0.54395 0.24297 0.16382 0.0
C2127 C 0.6318 0.2346 0.21693 0.0
C2128 C 0.59919 0.22691 0.18436 0.0
H2129 H 0.59137 0.24678 0.14965 0.0
C2130 C 0.58396 0.21905 0.18573 0.0
C2131 C 0.60197 0.23686 0.17108 0.0
C2132 C 0.61832 0.24494 0.16846 0.0
C2133 C 0.57138 0.22094 0.1742 0.0
C2134 C 0.57405 0.23122 0.16113 0.0
C2135 C 0.5893 0.23902 0.15975 0.0
C2136 C 0.56145 0.23354 0.14834 0.0
C2137 C 0.55553 0.2116 0.17591 0.0
C2138 C 0.56464 0.22992 0.13249 0.0
C2139 C 0.55309 0.23234 0.12024 0.0
C2140 C 0.53805 0.23844 0.12355 0.0
C2141 C 0.53489 0.24209 0.13946 0.0
C2142 C 0.54653 0.23976 0.15172 0.0
H2143 H 0.55684 0.20134 0.18413 0.0
H2144 H 0.54662 0.21951 0.18088 0.0
H2145 H 0.55057 0.20706 0.16417 0.0
H2146 H 0.57608 0.22516 0.12959 0.0
H2147 H 0.55596 0.22935 0.10816 0.0
H2148 H 0.49327 0.10219 0.99158 0.0
H2149 H 0.4976 0.12691 0.00693 0.0
H2150 H 0.47771 0.10365 0.04796 0.0
H2151 H 0.4739 0.0787 0.03288 0.0
H2152 H 0.47383 0.14361 0.02024 0.0
H2153 H 0.5188 0.1261 0.06709 0.0
H2154 H 0.51441 0.11451 0.04914 0.0
H2155 H 0.50103 0.11296 0.06544 0.0
C2156 C 0.49014 0.10222 0.00397 0.0
C2157 C 0.48327 0.08844 0.01101 0.0
C2158 C 0.49253 0.11639 0.0127 0.0
C2159 C 0.48818 0.11706 0.02865 0.0
C2160 C 0.48146 0.10332 0.03577 0.0
H2161 H 0.4787 0.19281 0.09711 0.0
H2162 H 0.47953 0.16725 0.08311 0.0
C2163 C 0.47909 0.08912 0.02706 0.0
C2164 C 0.48962 0.13243 0.03744 0.0
H2165 H 0.50641 0.15079 0.071 0.0
C2166 C 0.48107 0.14523 0.03126 0.0
C2167 C 0.49901 0.13446 0.05186 0.0
C2168 C 0.50896 0.12133 0.05872 0.0
C2169 C 0.48139 0.15993 0.03927 0.0
C2170 C 0.4907 0.16194 0.05372 0.0
C2171 C 0.4993 0.14918 0.0599 0.0
C2172 C 0.49139 0.17718 0.06266 0.0
C2173 C 0.47142 0.17306 0.03241 0.0
C2174 C 0.49815 0.19112 0.05595 0.0
C2175 C 0.49768 0.20573 0.06388 0.0
C2176 C 0.49051 0.20662 0.07872 0.0
C2177 C 0.48426 0.19252 0.08567 0.0
C2178 C 0.48475 0.17792 0.07772 0.0
H2179 H 0.46219 0.16848 0.0233 0.0
H2180 H 0.46518 0.1792 0.04195 0.0
H2181 H 0.47951 0.18201 0.02661 0.0
H2182 H 0.50353 0.19074 0.04442 0.0
H2183 H 0.50259 0.21634 0.05819 0.0
H2184 H 0.27391 0.39212 0.69607 0.0
H2185 H 0.29477 0.41367 0.69958 0.0
H2186 H 0.30427 0.39886 0.74814 0.0
H2187 H 0.28319 0.3775 0.74479 0.0
H2188 H 0.30326 0.43079 0.74606 0.0
H2189 H 0.34293 0.40859 0.7002 0.0
H2190 H 0.32286 0.41203 0.6925 0.0
H2191 H 0.32592 0.39681 0.70726 0.0
C2192 C 0.28051 0.39344 0.70747 0.0
C2193 C 0.277 0.38309 0.72013 0.0
C2194 C 0.29245 0.40571 0.70944 0.0
C2195 C 0.30131 0.40768 0.72403 0.0
C2196 C 0.29763 0.39753 0.73677 0.0
H2197 H 0.39304 0.46092 0.73749 0.0
H2198 H 0.371 0.44056 0.73519 0.0
C2199 C 0.28557 0.38536 0.73485 0.0
C2200 C 0.31438 0.42035 0.72606 0.0
H2201 H 0.34991 0.43434 0.7109 0.0
C2202 C 0.3135 0.43155 0.73841 0.0
C2203 C 0.32784 0.42118 0.71622 0.0
C2204 C 0.33007 0.40892 0.70341 0.0
C2205 C 0.32564 0.44364 0.7411 0.0
C2206 C 0.33881 0.44481 0.7309 0.0
C2207 C 0.33973 0.43353 0.71863 0.0
C2208 C 0.35201 0.45735 0.73292 0.0
C2209 C 0.32442 0.45478 0.7551 0.0
C2210 C 0.34869 0.47359 0.73239 0.0
C2211 C 0.36128 0.4853 0.73389 0.0
C2212 C 0.37746 0.48097 0.73565 0.0
C2213 C 0.38073 0.46469 0.7361 0.0
C2214 C 0.36814 0.45302 0.73478 0.0
H2215 H 0.31644 0.44952 0.76422 0.0
H2216 H 0.33651 0.45778 0.76085 0.0
H2217 H 0.31915 0.466 0.75087 0.0
H2218 H 0.33638 0.47723 0.73055 0.0
H2219 H 0.35835 0.49772 0.73333 0.0
H2220 H 0.26277 0.64985 0.74457 0.0
H2221 H 0.2835 0.63027 0.7425 0.0
H2222 H 0.2817 0.62106 0.79293 0.0
H2223 H 0.2609 0.64059 0.79511 0.0
H2224 H 0.31263 0.62688 0.78332 0.0
H2225 H 0.28034 0.58166 0.7439 0.0
H2226 H 0.28003 0.60148 0.73593 0.0
H2227 H 0.27 0.59689 0.75407 0.0
C2228 C 0.26655 0.64344 0.75517 0.0
C2229 C 0.26018 0.64679 0.77001 0.0
C2230 C 0.27839 0.63223 0.75396 0.0
C2231 C 0.284 0.62405 0.76752 0.0
C2232 C 0.27751 0.6272 0.7823 0.0
H2233 H 0.35184 0.54711 0.76213 0.0
H2234 H 0.32829 0.56235 0.76819 0.0
C2235 C 0.26569 0.63842 0.78354 0.0
C2236 C 0.29739 0.61303 0.76647 0.0
H2237 H 0.30913 0.58011 0.74687 0.0
C2238 C 0.3118 0.61655 0.77548 0.0
C2239 C 0.29622 0.59943 0.75641 0.0
C2240 C 0.28076 0.59452 0.74714 0.0
C2241 C 0.3253 0.60722 0.77423 0.0
C2242 C 0.32443 0.59415 0.76351 0.0
C2243 C 0.30982 0.59023 0.75498 0.0
C2244 C 0.3388 0.58495 0.76038 0.0
C2245 C 0.3404 0.61147 0.78437 0.0
C2246 C 0.35243 0.59259 0.75389 0.0
C2247 C 0.36584 0.58396 0.75043 0.0
C2248 C 0.36589 0.56746 0.75331 0.0
C2249 C 0.35222 0.55981 0.75985 0.0
C2250 C 0.33875 0.56848 0.76328 0.0
H2251 H 0.33765 0.61852 0.79505 0.0
H2252 H 0.34654 0.60061 0.78834 0.0
H2253 H 0.34892 0.61882 0.77725 0.0
H2254 H 0.3526 0.60522 0.75126 0.0
H2255 H 0.37612 0.59023 0.74533 0.0
H2256 H 0.90651 0.44406 0.47474 0.0
H2257 H 0.88262 0.42686 0.47994 0.0
H2258 H 0.8537 0.4681 0.48191 0.0
H2259 H 0.87748 0.4854 0.47641 0.0
H2260 H 0.86293 0.42916 0.50758 0.0
H2261 H 0.82801 0.43691 0.45015 0.0
H2262 H 0.84953 0.44154 0.45235 0.0
H2263 H 0.83556 0.4548 0.46036 0.0
C2264 C 0.89502 0.44945 0.47605 0.0
C2265 C 0.89387 0.46608 0.47511 0.0
C2266 C 0.88142 0.43963 0.47912 0.0
C2267 C 0.8664 0.44621 0.48116 0.0
C2268 C 0.86515 0.46278 0.48017 0.0
H2269 H 0.77277 0.39729 0.49856 0.0
H2270 H 0.79406 0.418 0.49436 0.0
C2271 C 0.87877 0.47264 0.47717 0.0
C2272 C 0.85221 0.4357 0.48486 0.0
H2273 H 0.81565 0.4208 0.46959 0.0
C2274 C 0.85256 0.42735 0.49931 0.0
C2275 C 0.83865 0.43354 0.4741 0.0
C2276 C 0.83785 0.44206 0.4583 0.0
C2277 C 0.83978 0.41672 0.50323 0.0
C2278 C 0.82646 0.41411 0.49224 0.0
C2279 C 0.82589 0.4228 0.47798 0.0
C2280 C 0.81353 0.40171 0.49492 0.0
C2281 C 0.84063 0.4084 0.51915 0.0
C2282 C 0.81741 0.3857 0.49638 0.0
C2283 C 0.80536 0.37388 0.4988 0.0
C2284 C 0.78908 0.37779 0.49968 0.0
C2285 C 0.78517 0.39386 0.498 0.0
C2286 C 0.79731 0.40571 0.49559 0.0
H2287 H 0.84875 0.41516 0.52793 0.0
H2288 H 0.82845 0.40677 0.52413 0.0
H2289 H 0.84556 0.39647 0.51759 0.0
H2290 H 0.8298 0.38231 0.49552 0.0
H2291 H 0.80884 0.36165 0.49991 0.0
H2292 H 0.71808 0.82647 0.77482 0.0
H2293 H 0.69995 0.84871 0.77288 0.0
H2294 H 0.74109 0.88165 0.76845 0.0
H2295 H 0.75927 0.85962 0.77076 0.0
H2296 H 0.71833 0.89079 0.79097 0.0
H2297 H 0.6892 0.87437 0.73177 0.0
H2298 H 0.68914 0.85913 0.7468 0.0
H2299 H 0.70795 0.86626 0.73895 0.0
C2300 C 0.72325 0.83846 0.77352 0.0
C2301 C 0.74011 0.84128 0.77286 0.0
C2302 C 0.71288 0.85112 0.77227 0.0
C2303 C 0.71919 0.86677 0.77035 0.0
C2304 C 0.73599 0.86963 0.76984 0.0
H2305 H 0.68665 0.95528 0.7381 0.0
H2306 H 0.69659 0.92864 0.74182 0.0
C2307 C 0.74635 0.85702 0.77104 0.0
C2308 C 0.70844 0.88034 0.76901 0.0
H2309 H 0.68095 0.89775 0.74395 0.0
C2310 C 0.71 0.89225 0.7808 0.0
C2311 C 0.69768 0.88218 0.75567 0.0
C2312 C 0.69589 0.8699 0.74248 0.0
C2313 C 0.70141 0.90622 0.77939 0.0
C2314 C 0.69084 0.9082 0.76592 0.0
C2315 C 0.68896 0.89609 0.75433 0.0
C2316 C 0.68308 0.92348 0.76284 0.0
C2317 C 0.7043 0.91907 0.79194 0.0
C2318 C 0.67177 0.92922 0.77314 0.0
C2319 C 0.66604 0.94453 0.77107 0.0
C2320 C 0.67157 0.95434 0.75865 0.0
C2321 C 0.68224 0.94815 0.74788 0.0
C2322 C 0.68791 0.93288 0.74995 0.0
H2323 H 0.71486 0.9168 0.8001 0.0
H2324 H 0.70637 0.93091 0.7863 0.0
H2325 H 0.69345 0.91961 0.79919 0.0
H2326 H 0.66772 0.92203 0.78304 0.0
H2327 H 0.65777 0.94888 0.77954 0.0
H2328 H 0.61366 0.54112 0.01344 0.0
H2329 H 0.6375 0.55927 0.01762 0.0
H2330 H 0.65043 0.55142 0.96909 0.0
H2331 H 0.62647 0.53341 0.96477 0.0
H2332 H 0.66986 0.55511 0.01545 0.0
H2333 H 0.6493 0.59957 0.97111 0.0
H2334 H 0.63616 0.58343 0.97782 0.0
H2335 H 0.65068 0.5799 0.96304 0.0
C2336 C 0.62165 0.54317 0.0037 0.0
C2337 C 0.61813 0.53594 0.98874 0.0
C2338 C 0.63524 0.55357 0.00609 0.0
C2339 C 0.64559 0.55692 0.99359 0.0
C2340 C 0.6424 0.54933 0.97878 0.0
H2341 H 0.7402 0.60815 0.00657 0.0
H2342 H 0.7187 0.58739 0.00191 0.0
C2343 C 0.62873 0.53903 0.97634 0.0
C2344 C 0.65955 0.56855 0.99605 0.0
H2345 H 0.67562 0.60407 0.98282 0.0
C2346 C 0.67115 0.56582 0.00832 0.0
C2347 C 0.66109 0.5826 0.98684 0.0
C2348 C 0.64858 0.58667 0.97406 0.0
C2349 C 0.68423 0.57677 0.01167 0.0
C2350 C 0.68592 0.59067 0.00226 0.0
C2351 C 0.67436 0.59335 0.98995 0.0
C2352 C 0.69912 0.60303 0.00541 0.0
C2353 C 0.69581 0.5736 0.02555 0.0
C2354 C 0.69526 0.61877 0.00861 0.0
C2355 C 0.70748 0.63068 0.01107 0.0
C2356 C 0.72386 0.62711 0.01041 0.0
C2357 C 0.72772 0.61129 0.0073 0.0
C2358 C 0.71545 0.59938 0.00471 0.0
H2359 H 0.69052 0.56476 0.03393 0.0
H2360 H 0.70695 0.56872 0.02101 0.0
H2361 H 0.69929 0.58475 0.03225 0.0
H2362 H 0.68275 0.62187 0.00919 0.0
H2363 H 0.70404 0.64271 0.01347 0.0
H2364 H 0.2518 0.65629 0.26135 0.0
H2365 H 0.23354 0.6328 0.2644 0.0
H2366 H 0.23232 0.6248 0.21359 0.0
H2367 H 0.25062 0.64826 0.21042 0.0
H2368 H 0.20173 0.62158 0.22683 0.0
H2369 H 0.24718 0.58669 0.26029 0.0
H2370 H 0.24416 0.60589 0.26885 0.0
H2371 H 0.25259 0.60462 0.24953 0.0
C2372 C 0.24773 0.64947 0.25084 0.0
C2373 C 0.25275 0.65406 0.23566 0.0
C2374 C 0.23729 0.63607 0.2526 0.0
C2375 C 0.23179 0.62694 0.23924 0.0
C2376 C 0.23647 0.63168 0.22404 0.0
H2377 H 0.19073 0.53033 0.24428 0.0
H2378 H 0.2064 0.55448 0.23736 0.0
C2379 C 0.24688 0.64511 0.22226 0.0
C2380 C 0.22132 0.61233 0.24117 0.0
H2381 H 0.22017 0.57583 0.25895 0.0
C2382 C 0.20574 0.61153 0.2338 0.0
C2383 C 0.22671 0.59918 0.25006 0.0
C2384 C 0.24362 0.59901 0.25752 0.0
C2385 C 0.19528 0.598 0.23538 0.0
C2386 C 0.20048 0.58508 0.24474 0.0
C2387 C 0.21616 0.5858 0.25186 0.0
C2388 C 0.18995 0.57064 0.24742 0.0
C2389 C 0.17885 0.59757 0.22683 0.0
C2390 C 0.17538 0.5717 0.25521 0.0
C2391 C 0.1663 0.55788 0.25909 0.0
C2392 C 0.17172 0.54275 0.25536 0.0
C2393 C 0.18613 0.54176 0.24722 0.0
C2394 C 0.19515 0.55557 0.24331 0.0
H2395 H 0.17846 0.60621 0.21683 0.0
H2396 H 0.17547 0.58546 0.22207 0.0
H2397 H 0.16965 0.6008 0.23535 0.0
H2398 H 0.17131 0.58319 0.2588 0.0
H2399 H 0.15531 0.55904 0.26544 0.0
H2400 H 0.89113 0.50393 0.02722 0.0
H2401 H 0.86948 0.52214 0.02083 0.0
H2402 H 0.90293 0.56242 0.03001 0.0
H2403 H 0.92463 0.54437 0.03614 0.0
H2404 H 0.85821 0.5465 0.04127 0.0
H2405 H 0.88206 0.57128 0.98528 0.0
H2406 H 0.88866 0.55287 0.99389 0.0
H2407 H 0.89659 0.5717 0.00183 0.0
C2408 C 0.89389 0.51667 0.02772 0.0
C2409 C 0.90959 0.52273 0.03216 0.0
C2410 C 0.88151 0.52703 0.02414 0.0
C2411 C 0.88469 0.54359 0.02474 0.0
C2412 C 0.90031 0.54966 0.02924 0.0
H2413 H 0.83797 0.63121 0.01783 0.0
H2414 H 0.85591 0.60903 0.01901 0.0
C2415 C 0.91264 0.53934 0.0329 0.0
C2416 C 0.87161 0.55464 0.02121 0.0
H2417 H 0.86122 0.58543 0.99698 0.0
C2418 C 0.8587 0.55488 0.03147 0.0
C2419 C 0.87232 0.56549 0.00838 0.0
C2420 C 0.88557 0.56528 0.99661 0.0
C2421 C 0.84688 0.56628 0.02973 0.0
C2422 C 0.84787 0.57748 0.01719 0.0
C2423 C 0.86049 0.57684 0.00659 0.0
C2424 C 0.83674 0.59075 0.01561 0.0
C2425 C 0.83391 0.56672 0.04179 0.0
C2426 C 0.81999 0.58785 0.01298 0.0
C2427 C 0.80962 0.60056 0.01237 0.0
C2428 C 0.81588 0.61636 0.01428 0.0
C2429 C 0.83272 0.6192 0.01638 0.0
C2430 C 0.84302 0.60653 0.01704 0.0
H2431 H 0.83684 0.5595 0.05252 0.0
H2432 H 0.83215 0.57916 0.04563 0.0
H2433 H 0.82229 0.56181 0.03628 0.0
H2434 H 0.81492 0.57577 0.01153 0.0
H2435 H 0.79672 0.59798 0.01063 0.0
H2436 H 0.08093 0.9457 0.00254 0.0
H2437 H 0.10427 0.92931 0.99922 0.0
H2438 H 0.1349 0.9718 0.99383 0.0
H2439 H 0.11168 0.98828 0.99733 0.0
H2440 H 0.12618 0.93032 0.97179 0.0
H2441 H 0.15689 0.94525 0.03068 0.0
H2442 H 0.13557 0.94787 0.02668 0.0
H2443 H 0.15031 0.9616 0.0186 0.0
C2444 C 0.09266 0.95154 0.00076 0.0
C2445 C 0.09449 0.96827 0.00024 0.0
C2446 C 0.10593 0.94218 0.99877 0.0
C2447 C 0.12127 0.94939 0.99639 0.0
C2448 C 0.12315 0.96605 0.99578 0.0
H2449 H 0.2144 0.90452 0.9951 0.0
H2450 H 0.19365 0.92435 0.993 0.0
C2451 C 0.10987 0.97543 0.99767 0.0
C2452 C 0.13531 0.9394 0.99461 0.0
H2453 H 0.16996 0.92801 0.01388 0.0
C2454 C 0.13581 0.92984 0.98093 0.0
C2455 C 0.14788 0.93897 0.0065 0.0
C2456 C 0.14771 0.94887 0.02152 0.0
C2457 C 0.14855 0.91968 0.9789 0.0
C2458 C 0.16085 0.91881 0.99107 0.0
C2459 C 0.16053 0.92871 0.00455 0.0
C2460 C 0.17353 0.90695 0.99064 0.0
C2461 C 0.14873 0.91006 0.96371 0.0
C2462 C 0.1691 0.89061 0.9899 0.0
C2463 C 0.18089 0.87929 0.99101 0.0
C2464 C 0.19736 0.88407 0.99309 0.0
C2465 C 0.20182 0.90045 0.99347 0.0
C2466 C 0.18999 0.91179 0.9923 0.0
H2467 H 0.142 0.91588 0.95375 0.0
H2468 H 0.16128 0.90836 0.96013 0.0
H2469 H 0.14271 0.89815 0.96559 0.0
H2470 H 0.15647 0.88658 0.98902 0.0
H2471 H 0.17702 0.86678 0.99074 0.0
loop_
_geom_bond_atom_site_label_1
_geom_bond_atom_site_label_2
_geom_bond_distance
_geom_bond_site_symmetry_2
_ccdc_geom_bond_type
C0 C1 1.384 . S
C0 H13 0.947 . S
C0 C35 1.382 1_655 S
C1 C0 1.384 . S
C1 C2 1.378 1_655 S
C2 C1 1.378 1_455 S
C2 C3 1.378 . S
C2 H14 0.952 . S
C3 C2 1.378 . S
C3 H15 0.950 . S
C3 C34 1.383 . S
H4 C23 0.947 . S
H5 C24 0.946 . S
H6 C26 0.953 . S
H7 C27 0.945 . S
H8 C29 0.952 . S
H9 C30 0.949 . S
H10 C32 0.950 . S
H11 C33 0.948 . S
H12 C35 0.951 . S
H13 C0 0.947 . S
H14 C2 0.952 . S
H15 C3 0.950 . S
N16 C19 1.382 . S
N16 C21 1.363 . S
N17 C19 1.371 . S
N17 C20 1.372 . S
N18 C20 1.361 . S
N18 C21 1.377 . S
C19 N16 1.382 . S
C19 N17 1.371 . S
C19 C22 1.480 . S
C20 N17 1.372 . S
C20 N18 1.361 . S
C20 C28 1.457 . S
C21 N16 1.363 . S
C21 N18 1.377 . S
C21 C34 1.479 . S
C22 C19 1.480 . S
C22 C23 1.383 . S
C22 C27 1.385 . S
C23 H4 0.947 . S
C23 C22 1.383 . S
C23 C24 1.388 1_545 S
C24 H5 0.946 . S
C24 C23 1.388 1_565 S
C24 C25 1.384 . S
C25 C24 1.384 . S
C25 C26 1.377 1_565 S
C26 H6 0.953 . S
C26 C25 1.377 1_545 S
C26 C27 1.369 . S
C27 H7 0.945 . S
C27 C22 1.385 . S
C27 C26 1.369 . S
C28 C20 1.457 . S
C28 C29 1.372 1_554 S
C28 C33 1.364 . S
C29 H8 0.952 . S
C29 C28 1.372 1_556 S
C29 C30 1.389 . S
C30 H9 0.949 . S
C30 C29 1.389 . S
C30 C31 1.387 . S
C31 C30 1.387 . S
C31 C32 1.372 1_556 S
C32 H10 0.950 . S
C32 C31 1.372 1_554 S
C32 C33 1.379 . S
C33 H11 0.948 . S
C33 C28 1.364 . S
C33 C32 1.379 . S
C34 C3 1.383 . S
C34 C21 1.479 . S
C34 C35 1.398 . S
C35 C0 1.382 1_455 S
C35 H12 0.951 . S
C35 C34 1.398 . S
C36 C37 1.384 . S
C36 H49 0.947 . S
C36 C71 1.382 . S
C37 C36 1.384 . S
C37 C38 1.378 . S
C38 C37 1.378 . S
C38 C39 1.378 . S
C38 H50 0.952 . S
C39 C38 1.378 . S
C39 H51 0.950 . S
C39 C70 1.383 . S
H40 C59 0.947 . S
H41 C60 0.946 . S
H42 C62 0.953 . S
H43 C63 0.945 . S
H44 C65 0.952 . S
H45 C66 0.949 . S
H46 C68 0.950 . S
H47 C69 0.948 . S
H48 C71 0.951 . S
H49 C36 0.947 . S
H50 C38 0.952 . S
H51 C39 0.950 . S
N52 C55 1.382 . S
N52 C57 1.363 . S
N53 C55 1.371 . S
N53 C56 1.372 . S
N54 C56 1.361 . S
N54 C57 1.377 . S
C55 N52 1.382 . S
C55 N53 1.371 . S
C55 C58 1.480 . S
C56 N53 1.372 . S
C56 N54 1.361 . S
C56 C64 1.457 . S
C57 N52 1.363 . S
C57 N54 1.377 . S
C57 C70 1.479 . S
C58 C55 1.480 . S
C58 C59 1.383 . S
C58 C63 1.385 . S
C59 H40 0.947 . S
C59 C58 1.383 . S
C59 C60 1.388 . S
C60 H41 0.946 . S
C60 C59 1.388 . S
C60 C61 1.384 . S
C61 C60 1.384 . S
C61 C62 1.377 . S
C62 H42 0.953 . S
C62 C61 1.377 . S
C62 C63 1.369 . S
C63 H43 0.945 . S
C63 C58 1.385 . S
C63 C62 1.369 . S
C64 C56 1.457 . S
C64 C65 1.372 . S
C64 C69 1.364 . S
C65 H44 0.952 . S
C65 C64 1.372 . S
C65 C66 1.389 . S
C66 H45 0.949 . S
C66 C65 1.389 . S
C66 C67 1.387 . S
C67 C66 1.387 . S
C67 C68 1.372 . S
C68 H46 0.950 . S
C68 C67 1.372 . S
C68 C69 1.379 . S
C69 H47 0.948 . S
C69 C64 1.364 . S
C69 C68 1.379 . S
C70 C39 1.383 . S
C70 C57 1.479 . S
C70 C71 1.398 . S
C71 C36 1.382 . S
C71 H48 0.951 . S
C71 C70 1.398 . S
C72 C73 1.384 . S
C72 H85 0.947 1_655 S
C72 C107 1.382 . S
C73 C72 1.384 . S
C73 C74 1.372 1_554 S
C74 C73 1.372 1_556 S
C74 C75 1.358 1_556 S
C74 H86 0.980 . S
C75 C74 1.358 1_554 S
C75 H87 0.950 . S
C75 C106 1.383 . S
H76 C95 0.947 . S
H77 C96 0.946 . S
H78 C98 0.953 . S
H79 C99 0.945 . S
H80 C101 0.952 . S
H81 C102 0.949 . S
H82 C104 0.950 . S
H83 C105 0.948 . S
H84 C107 0.951 1_455 S
H85 C72 0.947 1_455 S
H86 C74 0.980 . S
H87 C75 0.950 . S
N88 C91 1.382 . S
N88 C93 1.363 . S
N89 C91 1.371 . S
N89 C92 1.372 . S
N90 C92 1.361 . S
N90 C93 1.377 . S
C91 N88 1.382 . S
C91 N89 1.371 . S
C91 C94 1.480 . S
C92 N89 1.372 . S
C92 N90 1.361 . S
C92 C100 1.457 1_655 S
C93 N88 1.363 . S
C93 N90 1.377 . S
C93 C106 1.479 . S
C94 C91 1.480 . S
C94 C95 1.383 . S
C94 C99 1.385 . S
C95 H76 0.947 . S
C95 C94 1.383 . S
C95 C96 1.388 . S
C96 H77 0.946 . S
C96 C95 1.388 . S
C96 C97 1.384 . S
C97 C96 1.384 . S
C97 C98 1.377 . S
C98 H78 0.953 . S
C98 C97 1.377 . S
C98 C99 1.369 . S
C99 H79 0.945 . S
C99 C94 1.385 . S
C99 C98 1.369 . S
C100 C92 1.457 1_455 S
C100 C101 1.372 1_455 S
C100 C105 1.364 . S
C101 H80 0.952 . S
C101 C100 1.372 1_655 S
C101 C102 1.389 1_655 S
C102 H81 0.949 . S
C102 C101 1.389 1_455 S
C102 C103 1.387 . S
C103 C102 1.387 . S
C103 C104 1.372 . S
C104 H82 0.950 . S
C104 C103 1.372 . S
C104 C105 1.379 . S
C105 H83 0.948 . S
C105 C100 1.364 . S
C105 C104 1.379 . S
C106 C75 1.383 . S
C106 C93 1.479 . S
C106 C107 1.398 . S
C107 C72 1.382 . S
C107 H84 0.951 1_655 S
C107 C106 1.398 . S
C108 C109 1.384 . S
C108 H121 0.947 . S
C108 C143 1.382 . S
C109 C108 1.384 . S
C109 C110 1.378 . S
C110 C109 1.378 . S
C110 C111 1.378 . S
C110 H122 0.952 . S
C111 C110 1.378 . S
C111 H123 0.950 . S
C111 C142 1.383 . S
H112 C131 0.947 . S
H113 C132 0.946 . S
H114 C134 0.953 . S
H115 C135 0.945 . S
H116 C137 0.952 . S
H117 C138 0.949 . S
H118 C140 0.950 . S
H119 C141 0.948 . S
H120 C143 0.951 . S
H121 C108 0.947 . S
H122 C110 0.952 . S
H123 C111 0.950 . S
N124 C127 1.382 . S
N124 C129 1.363 . S
N125 C127 1.371 . S
N125 C128 1.372 . S
N126 C128 1.361 . S
N126 C129 1.377 . S
C127 N124 1.382 . S
C127 N125 1.371 . S
C127 C130 1.480 . S
C128 N125 1.372 . S
C128 N126 1.361 . S
C128 C136 1.457 . S
C129 N124 1.363 . S
C129 N126 1.377 . S
C129 C142 1.479 . S
C130 C127 1.480 . S
C130 C131 1.383 . S
C130 C135 1.385 . S
C131 H112 0.947 . S
C131 C130 1.383 . S
C131 C132 1.388 . S
C132 H113 0.946 . S
C132 C131 1.388 . S
C132 C133 1.384 . S
C133 C132 1.384 . S
C133 C134 1.377 . S
C134 H114 0.953 . S
C134 C133 1.377 . S
C134 C135 1.369 . S
C135 H115 0.945 . S
C135 C130 1.385 . S
C135 C134 1.369 . S
C136 C128 1.457 . S
C136 C137 1.372 . S
C136 C141 1.364 . S
C137 H116 0.952 . S
C137 C136 1.372 . S
C137 C138 1.389 . S
C138 H117 0.949 . S
C138 C137 1.389 . S
C138 C139 1.387 . S
C139 C138 1.387 . S
C139 C140 1.372 . S
C140 H118 0.950 . S
C140 C139 1.372 . S
C140 C141 1.379 . S
C141 H119 0.948 . S
C141 C136 1.364 . S
C141 C140 1.379 . S
C142 C111 1.383 . S
C142 C129 1.479 . S
C142 C143 1.398 . S
C143 C108 1.382 . S
C143 H120 0.951 . S
C143 C142 1.398 . S
C144 C145 1.384 . S
C144 H157 0.947 . S
C144 C179 1.382 . S
C145 C144 1.384 . S
C145 C146 1.378 . S
C146 C145 1.378 . S
C146 C147 1.378 . S
C146 H158 0.952 . S
C147 C146 1.378 . S
C147 H159 0.950 . S
C147 C178 1.383 . S
H148 C167 0.947 . S
H149 C168 0.946 1_655 S
H150 C170 0.953 1_545 S
H151 C171 0.945 . S
H152 C173 0.952 . S
H153 C174 0.949 . S
H154 C176 0.950 . S
H155 C177 0.948 . S
H156 C179 0.951 . S
H157 C144 0.947 . S
H158 C146 0.952 . S
H159 C147 0.950 . S
N160 C163 1.382 . S
N160 C165 1.363 . S
N161 C163 1.371 . S
N161 C164 1.372 . S
N162 C164 1.361 . S
N162 C165 1.377 . S
C163 N160 1.382 . S
C163 N161 1.371 . S
C163 C166 1.480 . S
C164 N161 1.372 . S
C164 N162 1.361 . S
C164 C172 1.457 . S
C165 N160 1.363 . S
C165 N162 1.377 . S
C165 C178 1.479 . S
C166 C163 1.480 . S
C166 C167 1.383 . S
C166 C171 1.385 . S
C167 H148 0.947 . S
C167 C166 1.383 . S
C167 C168 1.388 . S
C168 H149 0.946 1_455 S
C168 C167 1.388 . S
C168 C169 1.384 . S
C169 C168 1.384 . S
C169 C170 1.377 . S
C170 H150 0.953 1_565 S
C170 C169 1.377 . S
C170 C171 1.369 . S
C171 H151 0.945 . S
C171 C166 1.385 . S
C171 C170 1.369 . S
C172 C164 1.457 . S
C172 C173 1.372 1_565 S
C172 C177 1.364 . S
C173 H152 0.952 . S
C173 C172 1.372 1_545 S
C173 C174 1.389 . S
C174 H153 0.949 . S
C174 C173 1.389 . S
C174 C175 1.387 . S
C175 C174 1.387 . S
C175 C176 1.372 1_545 S
C176 H154 0.950 . S
C176 C175 1.372 1_565 S
C176 C177 1.379 . S
C177 H155 0.948 . S
C177 C172 1.364 . S
C177 C176 1.379 . S
C178 C147 1.383 . S
C178 C165 1.479 . S
C178 C179 1.398 . S
C179 C144 1.382 . S
C179 H156 0.951 . S
C179 C178 1.398 . S
C180 C181 1.384 . S
C180 H193 0.947 . S
C180 C215 1.382 . S
C181 C180 1.384 . S
C181 C182 1.378 . S
C182 C181 1.378 . S
C182 C183 1.378 . S
C182 H194 0.952 . S
C183 C182 1.378 . S
C183 H195 0.950 . S
C183 C214 1.383 . S
H184 C203 0.947 . S
H185 C204 0.946 . S
H186 C206 0.953 . S
H187 C207 0.945 . S
H188 C209 0.952 . S
H189 C210 0.949 . S
H190 C212 0.950 . S
H191 C213 0.948 . S
H192 C215 0.951 . S
H193 C180 0.947 . S
H194 C182 0.952 . S
H195 C183 0.950 . S
N196 C199 1.382 . S
N196 C201 1.363 . S
N197 C199 1.371 . S
N197 C200 1.372 . S
N198 C200 1.361 . S
N198 C201 1.377 . S
C199 N196 1.382 . S
C199 N197 1.371 . S
C199 C202 1.480 . S
C200 N197 1.372 . S
C200 N198 1.361 . S
C200 C208 1.457 . S
C201 N196 1.363 . S
C201 N198 1.377 . S
C201 C214 1.479 . S
C202 C199 1.480 . S
C202 C203 1.383 . S
C202 C207 1.385 . S
C203 H184 0.947 . S
C203 C202 1.383 . S
C203 C204 1.388 . S
C204 H185 0.946 . S
C204 C203 1.388 . S
C204 C205 1.384 . S
C205 C204 1.384 . S
C205 C206 1.377 . S
C206 H186 0.953 . S
C206 C205 1.377 . S
C206 C207 1.369 . S
C207 H187 0.945 . S
C207 C202 1.385 . S
C207 C206 1.369 . S
C208 C200 1.457 . S
C208 C209 1.372 . S
C208 C213 1.364 . S
C209 H188 0.952 . S
C209 C208 1.372 . S
C209 C210 1.389 . S
C210 H189 0.949 . S
C210 C209 1.389 . S
C210 C211 1.387 . S
C211 C210 1.387 . S
C211 C212 1.372 . S
C212 H190 0.950 . S
C212 C211 1.372 . S
C212 C213 1.379 . S
C213 H191 0.948 . S
C213 C208 1.364 . S
C213 C212 1.379 . S
C214 C183 1.383 . S
C214 C201 1.479 . S
C214 C215 1.398 . S
C215 C180 1.382 . S
C215 H192 0.951 . S
C215 C214 1.398 . S
C216 C217 1.384 . S
C216 H229 0.947 . S
C216 C251 1.382 . S
C217 C216 1.384 . S
C217 C218 1.378 . S
C218 C217 1.378 . S
C218 C219 1.378 . S
C218 H230 0.952 . S
C219 C218 1.378 . S
C219 H231 0.950 . S
C219 C250 1.383 . S
H220 C239 0.947 . S
H221 C240 0.946 . S
H222 C242 0.953 . S
H223 C243 0.945 . S
H224 C245 0.952 . S
H225 C246 0.949 . S
H226 C248 0.950 . S
H227 C249 0.948 . S
H228 C251 0.951 . S
H229 C216 0.947 . S
H230 C218 0.952 . S
H231 C219 0.950 . S
N232 C235 1.382 . S
N232 C237 1.363 . S
N233 C235 1.371 . S
N233 C236 1.372 . S
N234 C236 1.361 . S
N234 C237 1.377 . S
C235 N232 1.382 . S
C235 N233 1.371 . S
C235 C238 1.480 . S
C236 N233 1.372 . S
C236 N234 1.361 . S
C236 C244 1.457 . S
C237 N232 1.363 . S
C237 N234 1.377 . S
C237 C250 1.479 . S
C238 C235 1.480 . S
C238 C239 1.383 . S
C238 C243 1.385 . S
C239 H220 0.947 . S
C239 C238 1.383 . S
C239 C240 1.388 . S
C240 H221 0.946 . S
C240 C239 1.388 . S
C240 C241 1.384 . S
C241 C240 1.384 . S
C241 C242 1.377 . S
C242 H222 0.953 . S
C242 C241 1.377 . S
C242 C243 1.369 . S
C243 H223 0.945 . S
C243 C238 1.385 . S
C243 C242 1.369 . S
C244 C236 1.457 . S
C244 C245 1.372 . S
C244 C249 1.364 1_655 S
C245 H224 0.952 . S
C245 C244 1.372 . S
C245 C246 1.389 . S
C246 H225 0.949 . S
C246 C245 1.389 . S
C246 C247 1.387 1_655 S
C247 C246 1.387 1_455 S
C247 C248 1.372 . S
C248 H226 0.950 . S
C248 C247 1.372 . S
C248 C249 1.379 . S
C249 H227 0.948 . S
C249 C244 1.364 1_455 S
C249 C248 1.379 . S
C250 C219 1.383 . S
C250 C237 1.479 . S
C250 C251 1.398 . S
C251 C216 1.382 . S
C251 H228 0.951 . S
C251 C250 1.398 . S
C252 C253 1.384 . S
C252 H265 0.947 . S
C252 C287 1.382 . S
C253 C252 1.384 . S
C253 C254 1.378 . S
C254 C253 1.378 . S
C254 C255 1.378 . S
C254 H266 0.952 . S
C255 C254 1.378 . S
C255 H267 0.950 . S
C255 C286 1.383 . S
H256 C275 0.947 . S
H257 C276 0.946 . S
H258 C278 0.953 . S
H259 C279 0.945 . S
H260 C281 0.952 . S
H261 C282 0.949 . S
H262 C284 0.950 . S
H263 C285 0.948 . S
H264 C287 0.951 . S
H265 C252 0.947 . S
H266 C254 0.952 . S
H267 C255 0.950 . S
N268 C271 1.382 . S
N268 C273 1.363 . S
N269 C271 1.371 . S
N269 C272 1.372 . S
N270 C272 1.361 . S
N270 C273 1.377 . S
C271 N268 1.382 . S
C271 N269 1.371 . S
C271 C274 1.480 . S
C272 N269 1.372 . S
C272 N270 1.361 . S
C272 C280 1.457 . S
C273 N268 1.363 . S
C273 N270 1.377 . S
C273 C286 1.479 . S
C274 C271 1.480 . S
C274 C275 1.383 . S
C274 C279 1.385 . S
C275 H256 0.947 . S
C275 C274 1.383 . S
C275 C276 1.388 . S
C276 H257 0.946 . S
C276 C275 1.388 . S
C276 C277 1.384 . S
C277 C276 1.384 . S
C277 C278 1.377 . S
C278 H258 0.953 . S
C278 C277 1.377 . S
C278 C279 1.369 . S
C279 H259 0.945 . S
C279 C274 1.385 . S
C279 C278 1.369 . S
C280 C272 1.457 . S
C280 C281 1.372 . S
C280 C285 1.364 . S
C281 H260 0.952 . S
C281 C280 1.372 . S
C281 C282 1.389 . S
C282 H261 0.949 . S
C282 C281 1.389 . S
C282 C283 1.387 . S
C283 C282 1.387 . S
C283 C284 1.372 . S
C284 H262 0.950 . S
C284 C283 1.372 . S
C284 C285 1.379 . S
C285 H263 0.948 . S
C285 C280 1.364 . S
C285 C284 1.379 . S
C286 C255 1.383 . S
C286 C273 1.479 . S
C286 C287 1.398 . S
C287 C252 1.382 . S
C287 H264 0.951 . S
C287 C286 1.398 . S
C288 C289 1.384 . S
C288 H301 0.947 . S
C288 C323 1.382 . S
C289 C288 1.384 . S
C289 C290 1.378 . S
C290 C289 1.378 . S
C290 C291 1.378 . S
C290 H302 0.952 . S
C291 C290 1.378 . S
C291 H303 0.950 . S
C291 C322 1.383 . S
H292 C311 0.947 . S
H293 C312 0.946 . S
H294 C314 0.953 . S
H295 C315 0.945 . S
H296 C317 0.952 . S
H297 C318 0.949 . S
H298 C320 0.950 . S
H299 C321 0.948 . S
H300 C323 0.951 . S
H301 C288 0.947 . S
H302 C290 0.952 . S
H303 C291 0.950 . S
N304 C307 1.382 . S
N304 C309 1.363 . S
N305 C307 1.371 . S
N305 C308 1.372 . S
N306 C308 1.361 . S
N306 C309 1.377 . S
C307 N304 1.382 . S
C307 N305 1.371 . S
C307 C310 1.480 . S
C308 N305 1.372 . S
C308 N306 1.361 . S
C308 C316 1.457 . S
C309 N304 1.363 . S
C309 N306 1.377 . S
C309 C322 1.479 . S
C310 C307 1.480 . S
C310 C311 1.383 . S
C310 C315 1.385 . S
C311 H292 0.947 . S
C311 C310 1.383 . S
C311 C312 1.388 . S
C312 H293 0.946 . S
C312 C311 1.388 . S
C312 C313 1.384 . S
C313 C312 1.384 . S
C313 C314 1.377 . S
C314 H294 0.953 . S
C314 C313 1.377 . S
C314 C315 1.369 . S
C315 H295 0.945 . S
C315 C310 1.385 . S
C315 C314 1.369 . S
C316 C308 1.457 . S
C316 C317 1.372 . S
C316 C321 1.364 . S
C317 H296 0.952 . S
C317 C316 1.372 . S
C317 C318 1.389 . S
C318 H297 0.949 . S
C318 C317 1.389 . S
C318 C319 1.387 . S
C319 C318 1.387 . S
C319 C320 1.372 . S
C320 H298 0.950 . S
C320 C319 1.372 . S
C320 C321 1.379 . S
C321 H299 0.948 . S
C321 C316 1.364 . S
C321 C320 1.379 . S
C322 C291 1.383 . S
C322 C309 1.479 . S
C322 C323 1.398 . S
C323 C288 1.382 . S
C323 H300 0.951 . S
C323 C322 1.398 . S
C324 C325 1.384 . S
C324 H337 0.947 . S
C324 C359 1.382 . S
C325 C324 1.384 . S
C325 C326 1.378 . S
C326 C325 1.378 . S
C326 C327 1.378 . S
C326 H338 0.952 . S
C327 C326 1.378 . S
C327 H339 0.950 . S
C327 C358 1.383 . S
H328 C347 0.947 . S
H329 C348 0.946 . S
H330 C350 0.953 . S
H331 C351 0.945 . S
H332 C353 0.952 . S
H333 C354 0.949 . S
H334 C356 0.950 . S
H335 C357 0.948 . S
H336 C359 0.951 . S
H337 C324 0.947 . S
H338 C326 0.952 . S
H339 C327 0.950 . S
N340 C343 1.382 . S
N340 C345 1.363 . S
N341 C343 1.371 . S
N341 C344 1.372 . S
N342 C344 1.361 . S
N342 C345 1.377 . S
C343 N340 1.382 . S
C343 N341 1.371 . S
C343 C346 1.480 . S
C344 N341 1.372 . S
C344 N342 1.361 . S
C344 C352 1.457 . S
C345 N340 1.363 . S
C345 N342 1.377 . S
C345 C358 1.479 . S
C346 C343 1.480 . S
C346 C347 1.383 . S
C346 C351 1.385 1_565 S
C347 H328 0.947 . S
C347 C346 1.383 . S
C347 C348 1.388 . S
C348 H329 0.946 . S
C348 C347 1.388 . S
C348 C349 1.384 1_565 S
C349 C348 1.384 1_545 S
C349 C350 1.377 . S
C350 H330 0.953 . S
C350 C349 1.377 . S
C350 C351 1.369 . S
C351 H331 0.945 . S
C351 C346 1.385 1_545 S
C351 C350 1.369 . S
C352 C344 1.457 . S
C352 C353 1.372 . S
C352 C357 1.364 . S
C353 H332 0.952 . S
C353 C352 1.372 . S
C353 C354 1.389 . S
C354 H333 0.949 . S
C354 C353 1.389 . S
C354 C355 1.387 . S
C355 C354 1.387 . S
C355 C356 1.372 . S
C356 H334 0.950 . S
C356 C355 1.372 . S
C356 C357 1.379 . S
C357 H335 0.948 . S
C357 C352 1.364 . S
C357 C356 1.379 . S
C358 C327 1.383 . S
C358 C345 1.479 . S
C358 C359 1.398 . S
C359 C324 1.382 . S
C359 H336 0.951 . S
C359 C358 1.398 . S
C360 C361 1.384 . S
C360 H373 0.947 . S
C360 C395 1.382 . S
C361 C360 1.384 . S
C361 C362 1.378 . S
C362 C361 1.378 . S
C362 C363 1.378 . S
C362 H374 0.952 . S
C363 C362 1.378 . S
C363 H375 0.950 . S
C363 C394 1.383 . S
H364 C383 0.947 . S
H365 C384 0.946 . S
H366 C386 0.953 . S
H367 C387 0.945 . S
H368 C389 0.952 . S
H369 C390 0.949 . S
H370 C392 0.950 . S
H371 C393 0.948 . S
H372 C395 0.951 . S
H373 C360 0.947 . S
H374 C362 0.952 . S
H375 C363 0.950 . S
N376 C379 1.382 . S
N376 C381 1.363 . S
N377 C379 1.371 . S
N377 C380 1.372 . S
N378 C380 1.361 . S
N378 C381 1.377 . S
C379 N376 1.382 . S
C379 N377 1.371 . S
C379 C382 1.480 . S
C380 N377 1.372 . S
C380 N378 1.361 . S
C380 C388 1.457 . S
C381 N376 1.363 . S
C381 N378 1.377 . S
C381 C394 1.479 . S
C382 C379 1.480 . S
C382 C383 1.383 . S
C382 C387 1.385 . S
C383 H364 0.947 . S
C383 C382 1.383 . S
C383 C384 1.388 . S
C384 H365 0.946 . S
C384 C383 1.388 . S
C384 C385 1.384 . S
C385 C384 1.384 . S
C385 C386 1.377 . S
C386 H366 0.953 . S
C386 C385 1.377 . S
C386 C387 1.369 . S
C387 H367 0.945 . S
C387 C382 1.385 . S
C387 C386 1.369 . S
C388 C380 1.457 . S
C388 C389 1.372 . S
C388 C393 1.364 . S
C389 H368 0.952 . S
C389 C388 1.372 . S
C389 C390 1.389 . S
C390 H369 0.949 . S
C390 C389 1.389 . S
C390 C391 1.387 . S
C391 C390 1.387 . S
C391 C392 1.372 . S
C392 H370 0.950 . S
C392 C391 1.372 . S
C392 C393 1.379 . S
C393 H371 0.948 . S
C393 C388 1.364 . S
C393 C392 1.379 . S
C394 C363 1.383 . S
C394 C381 1.479 . S
C394 C395 1.398 . S
C395 C360 1.382 . S
C395 H372 0.951 . S
C395 C394 1.398 . S
C396 C397 1.384 . S
C396 H409 0.947 . S
C396 C431 1.382 . S
C397 C396 1.384 . S
C397 C398 1.378 . S
C398 C397 1.378 . S
C398 C399 1.378 . S
C398 H410 0.952 . S
C399 C398 1.378 . S
C399 H411 0.950 . S
C399 C430 1.383 . S
H400 C419 0.947 . S
H401 C420 0.946 . S
H402 C422 0.953 . S
H403 C423 0.945 . S
H404 C425 0.952 . S
H405 C426 0.949 . S
H406 C428 0.950 . S
H407 C429 0.948 . S
H408 C431 0.951 . S
H409 C396 0.947 . S
H410 C398 0.952 . S
H411 C399 0.950 . S
N412 C415 1.382 . S
N412 C417 1.363 . S
N413 C415 1.371 . S
N413 C416 1.372 . S
N414 C416 1.361 . S
N414 C417 1.377 . S
C415 N412 1.382 . S
C415 N413 1.371 . S
C415 C418 1.480 . S
C416 N413 1.372 . S
C416 N414 1.361 . S
C416 C424 1.457 . S
C417 N412 1.363 . S
C417 N414 1.377 . S
C417 C430 1.479 . S
C418 C415 1.480 . S
C418 C419 1.383 . S
C418 C423 1.385 . S
C419 H400 0.947 . S
C419 C418 1.383 . S
C419 C420 1.388 . S
C420 H401 0.946 . S
C420 C419 1.388 . S
C420 C421 1.384 . S
C421 C420 1.384 . S
C421 C422 1.377 . S
C422 H402 0.953 . S
C422 C421 1.377 . S
C422 C423 1.369 . S
C423 H403 0.945 . S
C423 C418 1.385 . S
C423 C422 1.369 . S
C424 C416 1.457 . S
C424 C425 1.372 . S
C424 C429 1.364 . S
C425 H404 0.952 . S
C425 C424 1.372 . S
C425 C426 1.389 . S
C426 H405 0.949 . S
C426 C425 1.389 . S
C426 C427 1.387 . S
C427 C426 1.387 . S
C427 C428 1.372 . S
C428 H406 0.950 . S
C428 C427 1.372 . S
C428 C429 1.379 . S
C429 H407 0.948 . S
C429 C424 1.364 . S
C429 C428 1.379 . S
C430 C399 1.383 . S
C430 C417 1.479 . S
C430 C431 1.398 . S
C431 C396 1.382 . S
C431 H408 0.951 . S
C431 C430 1.398 . S
C432 C433 1.384 . S
C432 H445 0.947 . S
C432 C467 1.382 . S
C433 C432 1.384 . S
C433 C434 1.378 . S
C434 C433 1.378 . S
C434 C435 1.378 . S
C434 H446 0.952 . S
C435 C434 1.378 . S
C435 H447 0.950 . S
C435 C466 1.383 . S
H436 C455 0.947 . S
H437 C456 0.946 . S
H438 C458 0.953 . S
H439 C459 0.945 . S
H440 C461 0.952 . S
H441 C462 0.949 . S
H442 C464 0.950 . S
H443 C465 0.948 . S
H444 C467 0.951 . S
H445 C432 0.947 . S
H446 C434 0.952 . S
H447 C435 0.950 . S
N448 C451 1.382 . S
N448 C453 1.363 . S
N449 C451 1.371 . S
N449 C452 1.372 . S
N450 C452 1.361 . S
N450 C453 1.377 . S
C451 N448 1.382 . S
C451 N449 1.371 . S
C451 C454 1.480 . S
C452 N449 1.372 . S
C452 N450 1.361 . S
C452 C460 1.457 . S
C453 N448 1.363 . S
C453 N450 1.377 . S
C453 C466 1.479 . S
C454 C451 1.480 . S
C454 C455 1.383 . S
C454 C459 1.385 . S
C455 H436 0.947 . S
C455 C454 1.383 . S
C455 C456 1.388 . S
C456 H437 0.946 . S
C456 C455 1.388 . S
C456 C457 1.384 . S
C457 C456 1.384 . S
C457 C458 1.377 . S
C458 H438 0.953 . S
C458 C457 1.377 . S
C458 C459 1.369 . S
C459 H439 0.945 . S
C459 C454 1.385 . S
C459 C458 1.369 . S
C460 C452 1.457 . S
C460 C461 1.372 . S
C460 C465 1.364 . S
C461 H440 0.952 . S
C461 C460 1.372 . S
C461 C462 1.389 . S
C462 H441 0.949 . S
C462 C461 1.389 . S
C462 C463 1.387 . S
C463 C462 1.387 . S
C463 C464 1.372 . S
C464 H442 0.950 . S
C464 C463 1.372 . S
C464 C465 1.379 . S
C465 H443 0.948 . S
C465 C460 1.364 . S
C465 C464 1.379 . S
C466 C435 1.383 . S
C466 C453 1.479 . S
C466 C467 1.398 . S
C467 C432 1.382 . S
C467 H444 0.951 . S
C467 C466 1.398 . S
C468 C469 1.384 . S
C468 H481 0.947 . S
C468 C503 1.382 1_554 S
C469 C468 1.384 . S
C469 C470 1.378 1_554 S
C470 C469 1.378 1_556 S
C470 C471 1.378 . S
C470 H482 0.952 . S
C471 C470 1.378 . S
C471 H483 0.950 . S
C471 C502 1.383 . S
H472 C491 0.947 . S
H473 C492 0.946 . S
H474 C494 0.953 . S
H475 C495 0.945 . S
H476 C497 0.952 . S
H477 C498 0.949 . S
H478 C500 0.950 . S
H479 C501 0.948 . S
H480 C503 0.951 . S
H481 C468 0.947 . S
H482 C470 0.952 . S
H483 C471 0.950 . S
N484 C487 1.382 . S
N484 C489 1.363 . S
N485 C487 1.371 . S
N485 C488 1.372 . S
N486 C488 1.361 . S
N486 C489 1.377 . S
C487 N484 1.382 . S
C487 N485 1.371 . S
C487 C490 1.480 . S
C488 N485 1.372 . S
C488 N486 1.361 . S
C488 C496 1.457 . S
C489 N484 1.363 . S
C489 N486 1.377 . S
C489 C502 1.479 . S
C490 C487 1.480 . S
C490 C491 1.383 . S
C490 C495 1.385 . S
C491 H472 0.947 . S
C491 C490 1.383 . S
C491 C492 1.388 . S
C492 H473 0.946 . S
C492 C491 1.388 . S
C492 C493 1.384 . S
C493 C492 1.384 . S
C493 C494 1.377 . S
C494 H474 0.953 . S
C494 C493 1.377 . S
C494 C495 1.369 . S
C495 H475 0.945 . S
C495 C490 1.385 . S
C495 C494 1.369 . S
C496 C488 1.457 . S
C496 C497 1.372 . S
C496 C501 1.364 . S
C497 H476 0.952 . S
C497 C496 1.372 . S
C497 C498 1.389 . S
C498 H477 0.949 . S
C498 C497 1.389 . S
C498 C499 1.387 . S
C499 C498 1.387 . S
C499 C500 1.372 . S
C500 H478 0.950 . S
C500 C499 1.372 . S
C500 C501 1.379 . S
C501 H479 0.948 . S
C501 C496 1.364 . S
C501 C500 1.379 . S
C502 C471 1.383 . S
C502 C489 1.479 . S
C502 C503 1.398 . S
C503 C468 1.382 1_556 S
C503 H480 0.951 . S
C503 C502 1.398 . S
C504 C505 1.384 . S
C504 H517 0.947 . S
C504 C539 1.382 . S
C505 C504 1.384 . S
C505 C506 1.378 . S
C506 C505 1.378 . S
C506 C507 1.378 . S
C506 H518 0.952 . S
C507 C506 1.378 . S
C507 H519 0.950 . S
C507 C538 1.383 . S
H508 C527 0.947 . S
H509 C528 0.946 . S
H510 C530 0.953 . S
H511 C531 0.945 . S
H512 C533 0.952 . S
H513 C534 0.949 . S
H514 C536 0.950 . S
H515 C537 0.948 . S
H516 C539 0.951 . S
H517 C504 0.947 . S
H518 C506 0.952 . S
H519 C507 0.950 . S
N520 C523 1.382 . S
N520 C525 1.363 . S
N521 C523 1.371 . S
N521 C524 1.372 . S
N522 C524 1.361 . S
N522 C525 1.377 . S
C523 N520 1.382 . S
C523 N521 1.371 . S
C523 C526 1.480 . S
C524 N521 1.372 . S
C524 N522 1.361 . S
C524 C532 1.457 . S
C525 N520 1.363 . S
C525 N522 1.377 . S
C525 C538 1.479 . S
C526 C523 1.480 . S
C526 C527 1.383 . S
C526 C531 1.385 . S
C527 H508 0.947 . S
C527 C526 1.383 . S
C527 C528 1.388 . S
C528 H509 0.946 . S
C528 C527 1.388 . S
C528 C529 1.384 . S
C529 C528 1.384 . S
C529 C530 1.377 . S
C530 H510 0.953 . S
C530 C529 1.377 . S
C530 C531 1.369 . S
C531 H511 0.945 . S
C531 C526 1.385 . S
C531 C530 1.369 . S
C532 C524 1.457 . S
C532 C533 1.372 . S
C532 C537 1.364 . S
C533 H512 0.952 . S
C533 C532 1.372 . S
C533 C534 1.389 . S
C534 H513 0.949 . S
C534 C533 1.389 . S
C534 C535 1.387 . S
C535 C534 1.387 . S
C535 C536 1.372 . S
C536 H514 0.950 . S
C536 C535 1.372 . S
C536 C537 1.379 . S
C537 H515 0.948 . S
C537 C532 1.364 . S
C537 C536 1.379 . S
C538 C507 1.383 . S
C538 C525 1.479 . S
C538 C539 1.398 . S
C539 C504 1.382 . S
C539 H516 0.951 . S
C539 C538 1.398 . S
C540 C541 1.334 1_556 S
C540 H553 0.964 . S
C540 C575 1.418 . S
C541 C540 1.334 1_554 S
C541 C542 1.378 . S
C542 C541 1.378 . S
C542 C543 1.378 . S
C542 H554 0.952 . S
C543 C542 1.378 . S
C543 H555 0.950 . S
C543 C574 1.383 1_554 S
H544 C563 0.947 . S
H545 C564 0.946 . S
H546 C566 0.953 . S
H547 C567 0.945 . S
H548 C569 0.952 . S
H549 C570 0.949 . S
H550 C572 0.950 . S
H551 C573 0.948 . S
H552 C575 0.951 . S
H553 C540 0.964 . S
H554 C542 0.952 . S
H555 C543 0.950 . S
N556 C559 1.382 . S
N556 C561 1.363 . S
N557 C559 1.371 . S
N557 C560 1.372 . S
N558 C560 1.361 . S
N558 C561 1.377 . S
C559 N556 1.382 . S
C559 N557 1.371 . S
C559 C562 1.480 . S
C560 N557 1.372 . S
C560 N558 1.361 . S
C560 C568 1.457 . S
C561 N556 1.363 . S
C561 N558 1.377 . S
C561 C574 1.479 . S
C562 C559 1.480 . S
C562 C563 1.383 . S
C562 C567 1.385 1_545 S
C563 H544 0.947 . S
C563 C562 1.383 . S
C563 C564 1.388 . S
C564 H545 0.946 . S
C564 C563 1.388 . S
C564 C565 1.384 1_545 S
C565 C564 1.384 1_565 S
C565 C566 1.377 . S
C566 H546 0.953 . S
C566 C565 1.377 . S
C566 C567 1.369 . S
C567 H547 0.945 . S
C567 C562 1.385 1_565 S
C567 C566 1.369 . S
C568 C560 1.457 . S
C568 C569 1.372 . S
C568 C573 1.364 . S
C569 H548 0.952 . S
C569 C568 1.372 . S
C569 C570 1.389 . S
C570 H549 0.949 . S
C570 C569 1.389 . S
C570 C571 1.387 . S
C571 C570 1.387 . S
C571 C572 1.372 . S
C572 H550 0.950 . S
C572 C571 1.372 . S
C572 C573 1.379 . S
C573 H551 0.948 . S
C573 C568 1.364 . S
C573 C572 1.379 . S
C574 C543 1.383 1_556 S
C574 C561 1.479 . S
C574 C575 1.398 . S
C575 C540 1.418 . S
C575 H552 0.951 . S
C575 C574 1.398 . S
Mg576 O577 2.039 . S
Mg576 O583 1.986 1_554 S
Mg576 O585 2.114 . S
Mg576 O586 2.251 . S
Mg576 O589 2.010 . S
O577 Mg576 2.039 . S
O577 C580 1.242 1_554 S
O578 Mg579 2.028 . S
O578 C580 1.248 . S
Mg579 O578 2.028 . S
Mg579 O584 2.032 . S
Mg579 O586 2.079 1_556 S
C580 O577 1.242 1_556 S
C580 O578 1.248 . S
C581 O582 1.264 . S
C581 O589 1.249 . S
O582 C581 1.264 . S
O583 Mg576 1.986 1_556 S
O583 C587 1.246 . S
O584 Mg579 2.032 . S
O584 C587 1.259 . S
O585 Mg576 2.114 . S
O585 C588 1.252 . S
O586 Mg576 2.251 . S
O586 Mg579 2.079 1_554 S
O586 C588 1.273 . S
C587 O583 1.246 . S
C587 O584 1.259 . S
C588 O585 1.252 . S
C588 O586 1.273 . S
O589 Mg576 2.010 . S
O589 C581 1.249 . S
Mg590 O591 2.028 . S
Mg590 O597 1.986 . S
Mg590 O599 2.114 . S
Mg590 O600 2.251 . S
Mg590 O603 2.010 . S
O591 Mg590 2.028 . S
O591 C594 1.250 . S
O592 Mg593 2.028 . S
O592 C594 1.248 . S
Mg593 O592 2.028 . S
Mg593 O598 2.032 . S
Mg593 O600 2.079 . S
C594 O591 1.250 . S
C594 O592 1.248 . S
C595 O596 1.264 . S
C595 O603 1.249 . S
O596 C595 1.264 . S
O597 Mg590 1.986 . S
O597 C601 1.246 . S
O598 Mg593 2.032 . S
O598 C601 1.259 . S
O599 Mg590 2.114 . S
O599 C602 1.252 . S
O600 Mg590 2.251 . S
O600 Mg593 2.079 . S
O600 C602 1.273 . S
C601 O597 1.246 . S
C601 O598 1.259 . S
C602 O599 1.252 . S
C602 O600 1.273 . S
O603 Mg590 2.010 . S
O603 C595 1.249 . S
Mg604 O605 2.028 . S
Mg604 O611 1.986 1_554 S
Mg604 O613 2.114 . S
Mg604 O614 2.251 . S
Mg604 O617 2.010 . S
O605 Mg604 2.028 . S
O605 C608 1.263 . S
O606 Mg607 2.031 . S
O606 C608 1.243 1_556 S
Mg607 O606 2.031 . S
Mg607 O612 2.032 . S
Mg607 O614 2.079 1_556 S
C608 O605 1.263 . S
C608 O606 1.243 1_554 S
C609 O610 1.264 . S
C609 O617 1.249 . S
O610 C609 1.264 . S
O611 Mg604 1.986 1_556 S
O611 C615 1.246 . S
O612 Mg607 2.032 . S
O612 C615 1.259 . S
O613 Mg604 2.114 . S
O613 C616 1.252 . S
O614 Mg604 2.251 . S
O614 Mg607 2.079 1_554 S
O614 C616 1.273 . S
C615 O611 1.246 . S
C615 O612 1.259 . S
C616 O613 1.252 . S
C616 O614 1.273 . S
O617 Mg604 2.010 . S
O617 C609 1.249 . S
Mg618 O619 2.028 . S
Mg618 O625 1.986 . S
Mg618 O627 2.114 . S
Mg618 O628 2.251 . S
Mg618 O631 2.010 . S
O619 Mg618 2.028 . S
O619 C622 1.250 1_545 S
O620 Mg621 2.028 . S
O620 C622 1.248 . S
Mg621 O620 2.028 . S
Mg621 O626 2.032 . S
Mg621 O628 2.079 1_565 S
C622 O619 1.250 1_565 S
C622 O620 1.248 . S
C623 O624 1.264 . S
C623 O631 1.249 . S
O624 C623 1.264 . S
O625 Mg618 1.986 . S
O625 C629 1.246 . S
O626 Mg621 2.032 . S
O626 C629 1.259 1_565 S
O627 Mg618 2.114 . S
O627 C630 1.252 . S
O628 Mg618 2.251 . S
O628 Mg621 2.079 1_545 S
O628 C630 1.273 . S
C629 O625 1.246 . S
C629 O626 1.259 1_545 S
C630 O627 1.252 . S
C630 O628 1.273 . S
O631 Mg618 2.010 . S
O631 C623 1.249 . S
Mg632 O633 2.028 . S
Mg632 O639 1.986 . S
Mg632 O641 2.114 . S
Mg632 O642 2.251 . S
Mg632 O645 2.010 . S
O633 Mg632 2.028 . S
O633 C636 1.250 . S
O634 Mg635 2.028 . S
O634 C636 1.248 . S
Mg635 O634 2.028 . S
Mg635 O640 2.032 . S
Mg635 O642 2.079 . S
C636 O633 1.250 . S
C636 O634 1.248 . S
C637 O638 1.264 . S
C637 O645 1.249 . S
O638 C637 1.264 . S
O639 Mg632 1.986 . S
O639 C643 1.246 . S
O640 Mg635 2.032 . S
O640 C643 1.259 . S
O641 Mg632 2.114 . S
O641 C644 1.252 . S
O642 Mg632 2.251 . S
O642 Mg635 2.079 . S
O642 C644 1.273 . S
C643 O639 1.246 . S
C643 O640 1.259 . S
C644 O641 1.252 . S
C644 O642 1.273 . S
O645 Mg632 2.010 . S
O645 C637 1.249 . S
Mg646 O647 2.028 . S
Mg646 O653 1.986 . S
Mg646 O655 2.114 . S
Mg646 O656 2.251 . S
Mg646 O659 2.010 . S
O647 Mg646 2.028 . S
O647 C650 1.250 . S
O648 Mg649 2.028 . S
O648 C650 1.248 . S
Mg649 O648 2.028 . S
Mg649 O654 2.032 . S
Mg649 O656 2.079 . S
C650 O647 1.250 . S
C650 O648 1.248 . S
C651 O652 1.264 . S
C651 O659 1.249 . S
O652 C651 1.264 . S
O653 Mg646 1.986 . S
O653 C657 1.246 . S
O654 Mg649 2.032 . S
O654 C657 1.259 . S
O655 Mg646 2.114 . S
O655 C658 1.252 . S
O656 Mg646 2.251 . S
O656 Mg649 2.079 . S
O656 C658 1.273 . S
C657 O653 1.246 . S
C657 O654 1.259 . S
C658 O655 1.252 . S
C658 O656 1.273 . S
O659 Mg646 2.010 . S
O659 C651 1.249 . S
Mg660 O661 2.028 . S
Mg660 O667 1.986 . S
Mg660 O669 2.114 . S
Mg660 O670 2.251 . S
Mg660 O673 2.010 . S
O661 Mg660 2.028 . S
O661 C664 1.250 . S
O662 Mg663 2.028 . S
O662 C664 1.248 . S
Mg663 O662 2.028 . S
Mg663 O668 2.032 . S
Mg663 O670 2.079 . S
C664 O661 1.250 . S
C664 O662 1.248 . S
C665 O666 1.264 . S
C665 O673 1.249 . S
O666 C665 1.264 . S
O667 Mg660 1.986 . S
O667 C671 1.246 . S
O668 Mg663 2.032 . S
O668 C671 1.259 . S
O669 Mg660 2.114 . S
O669 C672 1.252 . S
O670 Mg660 2.251 . S
O670 Mg663 2.079 . S
O670 C672 1.273 . S
C671 O667 1.246 . S
C671 O668 1.259 . S
C672 O669 1.252 . S
C672 O670 1.273 . S
O673 Mg660 2.010 . S
O673 C665 1.249 . S
Mg674 O675 2.028 1_545 S
Mg674 O681 1.986 1_545 S
Mg674 O683 2.114 . S
Mg674 O684 2.251 . S
Mg674 O687 2.010 . S
O675 Mg674 2.028 1_565 S
O675 C678 1.250 . S
O676 Mg677 2.028 . S
O676 C678 1.248 . S
Mg677 O676 2.028 . S
Mg677 O682 2.032 . S
Mg677 O684 2.079 1_565 S
C678 O675 1.250 . S
C678 O676 1.248 . S
C679 O680 1.264 . S
C679 O687 1.249 . S
O680 C679 1.264 . S
O681 Mg674 1.986 1_565 S
O681 C685 1.246 . S
O682 Mg677 2.032 . S
O682 C685 1.259 . S
O683 Mg674 2.114 . S
O683 C686 1.252 . S
O684 Mg674 2.251 . S
O684 Mg677 2.079 1_545 S
O684 C686 1.273 . S
C685 O681 1.246 . S
C685 O682 1.259 . S
C686 O683 1.252 . S
C686 O684 1.273 . S
O687 Mg674 2.010 . S
O687 C679 1.249 . S
Mg688 O689 2.028 . S
Mg688 O695 1.986 . S
Mg688 O697 2.114 . S
Mg688 O698 2.251 . S
Mg688 O701 2.010 . S
O689 Mg688 2.028 . S
O689 C692 1.250 1_455 S
O690 Mg691 2.028 . S
O690 C692 1.248 . S
Mg691 O690 2.028 . S
Mg691 O696 2.032 . S
Mg691 O698 2.079 1_655 S
C692 O689 1.250 1_655 S
C692 O690 1.248 . S
C693 O694 1.264 . S
C693 O701 1.249 . S
O694 C693 1.264 . S
O695 Mg688 1.986 . S
O695 C699 1.246 . S
O696 Mg691 2.032 . S
O696 C699 1.259 1_655 S
O697 Mg688 2.114 . S
O697 C700 1.252 . S
O698 Mg688 2.251 . S
O698 Mg691 2.079 1_455 S
O698 C700 1.273 . S
C699 O695 1.246 . S
C699 O696 1.259 1_455 S
C700 O697 1.252 . S
C700 O698 1.273 . S
O701 Mg688 2.010 . S
O701 C693 1.249 . S
Mg702 O703 2.028 . S
Mg702 O709 1.986 . S
Mg702 O711 2.114 . S
Mg702 O712 2.251 . S
Mg702 O715 2.010 . S
O703 Mg702 2.028 . S
O703 C706 1.250 . S
O704 Mg705 2.028 . S
O704 C706 1.248 . S
Mg705 O704 2.028 . S
Mg705 O710 2.032 . S
Mg705 O712 2.079 . S
C706 O703 1.250 . S
C706 O704 1.248 . S
C707 O708 1.264 . S
C707 O715 1.249 . S
O708 C707 1.264 . S
O709 Mg702 1.986 . S
O709 C713 1.246 . S
O710 Mg705 2.032 . S
O710 C713 1.259 . S
O711 Mg702 2.114 . S
O711 C714 1.252 . S
O712 Mg702 2.251 . S
O712 Mg705 2.079 . S
O712 C714 1.273 . S
C713 O709 1.246 . S
C713 O710 1.259 . S
C714 O711 1.252 . S
C714 O712 1.273 . S
O715 Mg702 2.010 . S
O715 C707 1.249 . S
Mg716 O717 2.028 1_655 S
Mg716 O723 2.001 . S
Mg716 O725 2.114 . S
Mg716 O726 2.251 1_655 S
Mg716 O729 2.010 . S
O717 Mg716 2.028 1_455 S
O717 C720 1.250 . S
O718 Mg719 2.028 . S
O718 C720 1.248 . S
Mg719 O718 2.028 . S
Mg719 O724 2.032 . S
Mg719 O726 2.079 . S
C720 O717 1.250 . S
C720 O718 1.248 . S
C721 O722 1.264 . S
C721 O729 1.249 . S
O722 C721 1.264 . S
O723 Mg716 2.001 . S
O723 C727 1.206 1_655 S
O724 Mg719 2.032 . S
O724 C727 1.259 . S
O725 Mg716 2.114 . S
O725 C728 1.252 . S
O726 Mg716 2.251 1_455 S
O726 Mg719 2.079 . S
O726 C728 1.273 1_455 S
C727 O723 1.206 1_455 S
C727 O724 1.259 . S
C728 O725 1.252 . S
C728 O726 1.273 1_655 S
O729 Mg716 2.010 . S
O729 C721 1.249 . S
Mg730 O731 2.028 . S
Mg730 O737 1.986 . S
Mg730 O739 2.114 . S
Mg730 O740 2.251 . S
Mg730 O743 2.010 . S
O731 Mg730 2.028 . S
O731 C734 1.250 . S
O732 Mg733 2.028 . S
O732 C734 1.248 . S
Mg733 O732 2.028 . S
Mg733 O738 2.032 . S
Mg733 O740 2.079 . S
C734 O731 1.250 . S
C734 O732 1.248 . S
C735 O736 1.264 . S
C735 O743 1.249 . S
O736 C735 1.264 . S
O737 Mg730 1.986 . S
O737 C741 1.246 . S
O738 Mg733 2.032 . S
O738 C741 1.259 . S
O739 Mg730 2.114 . S
O739 C742 1.252 . S
O740 Mg730 2.251 . S
O740 Mg733 2.079 . S
O740 C742 1.273 . S
C741 O737 1.246 . S
C741 O738 1.259 . S
C742 O739 1.252 . S
C742 O740 1.273 . S
O743 Mg730 2.010 . S
O743 C735 1.249 . S
H744 C752 0.929 . S
H745 C754 0.930 . S
H746 C756 0.930 . S
H747 C759 0.929 . S
H748 C762 0.930 . S
H749 C764 0.960 . S
H750 C764 0.960 . S
H751 C764 0.960 . S
C752 H744 0.929 . S
C752 C753 1.377 . S
C752 C754 1.384 . S
C753 C752 1.377 . S
C753 C759 1.390 . S
C754 H745 0.930 . S
C754 C752 1.384 . S
C754 C755 1.372 . S
C755 C754 1.372 . S
C755 C756 1.400 . S
C755 C760 1.490 . S
C756 H746 0.930 . S
C756 C755 1.400 . S
C756 C759 1.386 . S
H757 C773 0.930 . S
H758 C774 0.931 . S
C759 H747 0.929 . S
C759 C753 1.390 . S
C759 C756 1.386 . S
C760 C755 1.490 . S
C760 C762 1.395 . S
C760 C763 1.403 . S
H761 C767 0.930 . S
C762 H748 0.930 . S
C762 C760 1.395 . S
C762 C765 1.403 . S
C763 C760 1.403 . S
C763 C764 1.524 . S
C763 C767 1.400 . S
C764 H749 0.960 . S
C764 H750 0.960 . S
C764 H751 0.960 . S
C764 C763 1.524 . S
C765 C762 1.403 . S
C765 C766 1.392 . S
C765 C769 1.495 . S
C766 C765 1.392 . S
C766 C767 1.385 . S
C766 C768 1.478 . S
C767 H761 0.930 . S
C767 C763 1.400 . S
C767 C766 1.385 . S
C768 C766 1.478 . S
C768 C770 1.381 . S
C768 C774 1.383 . S
C769 C765 1.495 . S
C769 H775 0.959 . S
C769 H776 0.961 . S
C769 H777 0.960 . S
C770 C768 1.381 . S
C770 C771 1.394 . S
C770 H778 0.930 . S
C771 C770 1.394 . S
C771 C772 1.383 . S
C771 H779 0.929 . S
C772 C771 1.383 . S
C772 C773 1.377 . S
C773 H757 0.930 . S
C773 C772 1.377 . S
C773 C774 1.379 . S
C774 H758 0.931 . S
C774 C768 1.383 . S
C774 C773 1.379 . S
H775 C769 0.959 . S
H776 C769 0.961 . S
H777 C769 0.960 . S
H778 C770 0.930 . S
H779 C771 0.929 . S
H780 C788 0.929 . S
H781 C790 0.930 . S
H782 C792 0.930 . S
H783 C795 0.929 . S
H784 C798 0.930 . S
H785 C800 0.960 . S
H786 C800 0.960 . S
H787 C800 0.960 . S
C788 H780 0.929 . S
C788 C789 1.377 . S
C788 C790 1.384 . S
C789 C788 1.377 . S
C789 C795 1.390 . S
C790 H781 0.930 . S
C790 C788 1.384 . S
C790 C791 1.372 . S
C791 C790 1.372 . S
C791 C792 1.400 . S
C791 C796 1.490 . S
C792 H782 0.930 . S
C792 C791 1.400 . S
C792 C795 1.386 . S
H793 C809 0.930 . S
H794 C810 0.931 . S
C795 H783 0.929 . S
C795 C789 1.390 . S
C795 C792 1.386 . S
C796 C791 1.490 . S
C796 C798 1.395 . S
C796 C799 1.403 . S
H797 C803 0.930 . S
C798 H784 0.930 . S
C798 C796 1.395 . S
C798 C801 1.403 . S
C799 C796 1.403 . S
C799 C800 1.524 . S
C799 C803 1.400 . S
C800 H785 0.960 . S
C800 H786 0.960 . S
C800 H787 0.960 . S
C800 C799 1.524 . S
C801 C798 1.403 . S
C801 C802 1.392 . S
C801 C805 1.495 . S
C802 C801 1.392 . S
C802 C803 1.385 . S
C802 C804 1.478 . S
C803 H797 0.930 . S
C803 C799 1.400 . S
C803 C802 1.385 . S
C804 C802 1.478 . S
C804 C806 1.381 . S
C804 C810 1.383 . S
C805 C801 1.495 . S
C805 H811 0.959 . S
C805 H812 0.961 . S
C805 H813 0.960 . S
C806 C804 1.381 . S
C806 C807 1.394 . S
C806 H814 0.930 . S
C807 C806 1.394 . S
C807 C808 1.383 . S
C807 H815 0.929 . S
C808 C807 1.383 . S
C808 C809 1.377 . S
C809 H793 0.930 . S
C809 C808 1.377 . S
C809 C810 1.379 . S
C810 H794 0.931 . S
C810 C804 1.383 . S
C810 C809 1.379 . S
H811 C805 0.959 . S
H812 C805 0.961 . S
H813 C805 0.960 . S
H814 C806 0.930 . S
H815 C807 0.929 . S
H816 C824 0.929 . S
H817 C826 0.930 . S
H818 C828 0.930 . S
H819 C831 0.929 . S
H820 C834 0.930 . S
H821 C836 0.960 . S
H822 C836 0.960 . S
H823 C836 0.960 . S
C824 H816 0.929 . S
C824 C825 1.377 . S
C824 C826 1.384 . S
C825 C824 1.377 . S
C825 C831 1.390 . S
C826 H817 0.930 . S
C826 C824 1.384 . S
C826 C827 1.372 . S
C827 C826 1.372 . S
C827 C828 1.400 . S
C827 C832 1.490 . S
C828 H818 0.930 . S
C828 C827 1.400 . S
C828 C831 1.386 . S
H829 C845 0.930 . S
H830 C846 0.931 . S
C831 H819 0.929 . S
C831 C825 1.390 . S
C831 C828 1.386 . S
C832 C827 1.490 . S
C832 C834 1.395 . S
C832 C835 1.403 . S
H833 C839 0.930 . S
C834 H820 0.930 . S
C834 C832 1.395 . S
C834 C837 1.403 . S
C835 C832 1.403 . S
C835 C836 1.524 . S
C835 C839 1.400 . S
C836 H821 0.960 . S
C836 H822 0.960 . S
C836 H823 0.960 . S
C836 C835 1.524 . S
C837 C834 1.403 . S
C837 C838 1.392 . S
C837 C841 1.495 . S
C838 C837 1.392 . S
C838 C839 1.385 . S
C838 C840 1.478 . S
C839 H833 0.930 . S
C839 C835 1.400 . S
C839 C838 1.385 . S
C840 C838 1.478 . S
C840 C842 1.381 . S
C840 C846 1.383 . S
C841 C837 1.495 . S
C841 H847 0.959 . S
C841 H848 0.961 . S
C841 H849 0.960 . S
C842 C840 1.381 . S
C842 C843 1.394 . S
C842 H850 0.930 . S
C843 C842 1.394 . S
C843 C844 1.383 . S
C843 H851 0.929 . S
C844 C843 1.383 . S
C844 C845 1.377 . S
C845 H829 0.930 . S
C845 C844 1.377 . S
C845 C846 1.379 . S
C846 H830 0.931 . S
C846 C840 1.383 . S
C846 C845 1.379 . S
H847 C841 0.959 . S
H848 C841 0.961 . S
H849 C841 0.960 . S
H850 C842 0.930 . S
H851 C843 0.929 . S
H852 C860 0.942 . S
H853 C862 0.930 . S
H854 C864 0.930 . S
H855 C867 0.929 1_455 S
H856 C870 0.930 . S
H857 C872 0.960 . S
H858 C872 0.960 . S
H859 C872 0.960 . S
C860 H852 0.942 . S
C860 C861 1.361 1_545 S
C860 C862 1.388 . S
C861 C860 1.361 1_565 S
C861 C867 1.390 . S
C862 H853 0.930 . S
C862 C860 1.388 . S
C862 C863 1.372 1_545 S
C863 C862 1.372 1_565 S
C863 C864 1.400 . S
C863 C868 1.490 . S
C864 H854 0.930 . S
C864 C863 1.400 . S
C864 C867 1.386 . S
H865 C881 0.930 . S
H866 C882 0.931 . S
C867 H855 0.929 1_655 S
C867 C861 1.390 . S
C867 C864 1.386 . S
C868 C863 1.490 . S
C868 C870 1.395 1_565 S
C868 C871 1.403 . S
H869 C875 0.930 . S
C870 H856 0.930 . S
C870 C868 1.395 1_545 S
C870 C873 1.403 . S
C871 C868 1.403 . S
C871 C872 1.524 . S
C871 C875 1.400 . S
C872 H857 0.960 . S
C872 H858 0.960 . S
C872 H859 0.960 . S
C872 C871 1.524 . S
C873 C870 1.403 . S
C873 C874 1.392 . S
C873 C877 1.495 . S
C874 C873 1.392 . S
C874 C875 1.385 1_545 S
C874 C876 1.478 . S
C875 H869 0.930 . S
C875 C871 1.400 . S
C875 C874 1.385 1_565 S
C876 C874 1.478 . S
C876 C878 1.381 . S
C876 C882 1.383 1_545 S
C877 C873 1.495 . S
C877 H883 0.959 . S
C877 H884 0.961 . S
C877 H885 0.960 . S
C878 C876 1.381 . S
C878 C879 1.394 . S
C878 H886 0.930 . S
C879 C878 1.394 . S
C879 C880 1.383 . S
C879 H887 0.929 . S
C880 C879 1.383 . S
C880 C881 1.377 1_545 S
C881 H865 0.930 . S
C881 C880 1.377 1_565 S
C881 C882 1.379 . S
C882 H866 0.931 . S
C882 C876 1.383 1_565 S
C882 C881 1.379 . S
H883 C877 0.959 . S
H884 C877 0.961 . S
H885 C877 0.960 . S
H886 C878 0.930 . S
H887 C879 0.929 . S
H888 C896 0.929 . S
H889 C898 0.930 . S
H890 C900 0.930 . S
H891 C903 0.929 . S
H892 C906 0.930 . S
H893 C908 0.960 . S
H894 C908 0.960 . S
H895 C908 0.960 . S
C896 H888 0.929 . S
C896 C897 1.377 . S
C896 C898 1.384 . S
C897 C896 1.377 . S
C897 C903 1.390 . S
C898 H889 0.930 . S
C898 C896 1.384 . S
C898 C899 1.372 . S
C899 C898 1.372 . S
C899 C900 1.400 . S
C899 C904 1.490 . S
C900 H890 0.930 . S
C900 C899 1.400 . S
C900 C903 1.386 . S
H901 C917 0.930 . S
H902 C918 0.931 . S
C903 H891 0.929 . S
C903 C897 1.390 . S
C903 C900 1.386 . S
C904 C899 1.490 . S
C904 C906 1.395 . S
C904 C907 1.403 . S
H905 C911 0.930 . S
C906 H892 0.930 . S
C906 C904 1.395 . S
C906 C909 1.403 . S
C907 C904 1.403 . S
C907 C908 1.524 . S
C907 C911 1.400 . S
C908 H893 0.960 . S
C908 H894 0.960 . S
C908 H895 0.960 . S
C908 C907 1.524 . S
C909 C906 1.403 . S
C909 C910 1.392 . S
C909 C913 1.495 . S
C910 C909 1.392 . S
C910 C911 1.385 . S
C910 C912 1.478 . S
C911 H905 0.930 . S
C911 C907 1.400 . S
C911 C910 1.385 . S
C912 C910 1.478 . S
C912 C914 1.381 . S
C912 C918 1.383 . S
C913 C909 1.495 . S
C913 H919 0.959 . S
C913 H920 0.961 . S
C913 H921 0.960 . S
C914 C912 1.381 . S
C914 C915 1.394 . S
C914 H922 0.930 . S
C915 C914 1.394 . S
C915 C916 1.383 . S
C915 H923 0.929 . S
C916 C915 1.383 . S
C916 C917 1.377 . S
C917 H901 0.930 . S
C917 C916 1.377 . S
C917 C918 1.379 . S
C918 H902 0.931 . S
C918 C912 1.383 . S
C918 C917 1.379 . S
H919 C913 0.959 . S
H920 C913 0.961 . S
H921 C913 0.960 . S
H922 C914 0.930 . S
H923 C915 0.929 . S
H924 C932 0.929 . S
H925 C934 0.930 . S
H926 C936 0.930 . S
H927 C939 0.929 . S
H928 C942 0.930 . S
H929 C944 0.960 . S
H930 C944 0.960 . S
H931 C944 0.960 . S
C932 H924 0.929 . S
C932 C933 1.377 . S
C932 C934 1.384 . S
C933 C932 1.377 . S
C933 C939 1.390 . S
C934 H925 0.930 . S
C934 C932 1.384 . S
C934 C935 1.372 . S
C935 C934 1.372 . S
C935 C936 1.400 . S
C935 C940 1.490 . S
C936 H926 0.930 . S
C936 C935 1.400 . S
C936 C939 1.386 . S
H937 C953 0.930 . S
H938 C954 0.931 . S
C939 H927 0.929 . S
C939 C933 1.390 . S
C939 C936 1.386 . S
C940 C935 1.490 . S
C940 C942 1.395 . S
C940 C943 1.403 . S
H941 C947 0.930 . S
C942 H928 0.930 . S
C942 C940 1.395 . S
C942 C945 1.403 . S
C943 C940 1.403 . S
C943 C944 1.524 . S
C943 C947 1.400 . S
C944 H929 0.960 . S
C944 H930 0.960 . S
C944 H931 0.960 . S
C944 C943 1.524 . S
C945 C942 1.403 . S
C945 C946 1.392 . S
C945 C949 1.495 . S
C946 C945 1.392 . S
C946 C947 1.385 . S
C946 C948 1.478 . S
C947 H941 0.930 . S
C947 C943 1.400 . S
C947 C946 1.385 . S
C948 C946 1.478 . S
C948 C950 1.381 . S
C948 C954 1.383 . S
C949 C945 1.495 . S
C949 H955 0.959 . S
C949 H956 0.961 . S
C949 H957 0.960 . S
C950 C948 1.381 . S
C950 C951 1.394 . S
C950 H958 0.930 . S
C951 C950 1.394 . S
C951 C952 1.383 . S
C951 H959 0.929 . S
C952 C951 1.383 . S
C952 C953 1.377 . S
C953 H937 0.930 . S
C953 C952 1.377 . S
C953 C954 1.379 . S
C954 H938 0.931 . S
C954 C948 1.383 . S
C954 C953 1.379 . S
H955 C949 0.959 . S
H956 C949 0.961 . S
H957 C949 0.960 . S
H958 C950 0.930 . S
H959 C951 0.929 . S
H960 C968 0.929 . S
H961 C970 0.930 . S
H962 C972 0.930 . S
H963 C975 0.929 . S
H964 C978 0.930 . S
H965 C980 0.960 . S
H966 C980 0.960 . S
H967 C980 0.960 . S
C968 H960 0.929 . S
C968 C969 1.377 . S
C968 C970 1.384 . S
C969 C968 1.377 . S
C969 C975 1.390 . S
C970 H961 0.930 . S
C970 C968 1.384 . S
C970 C971 1.372 . S
C971 C970 1.372 . S
C971 C972 1.400 . S
C971 C976 1.490 . S
C972 H962 0.930 . S
C972 C971 1.400 . S
C972 C975 1.386 . S
H973 C989 0.930 . S
H974 C990 0.931 . S
C975 H963 0.929 . S
C975 C969 1.390 . S
C975 C972 1.386 . S
C976 C971 1.490 . S
C976 C978 1.395 . S
C976 C979 1.403 . S
H977 C983 0.930 . S
C978 H964 0.930 . S
C978 C976 1.395 . S
C978 C981 1.403 . S
C979 C976 1.403 . S
C979 C980 1.524 . S
C979 C983 1.400 . S
C980 H965 0.960 . S
C980 H966 0.960 . S
C980 H967 0.960 . S
C980 C979 1.524 . S
C981 C978 1.403 . S
C981 C982 1.392 . S
C981 C985 1.495 . S
C982 C981 1.392 . S
C982 C983 1.385 . S
C982 C984 1.478 . S
C983 H977 0.930 . S
C983 C979 1.400 . S
C983 C982 1.385 . S
C984 C982 1.478 . S
C984 C986 1.381 . S
C984 C990 1.383 . S
C985 C981 1.495 . S
C985 H991 0.959 . S
C985 H992 0.961 . S
C985 H993 0.960 . S
C986 C984 1.381 . S
C986 C987 1.394 . S
C986 H994 0.930 . S
C987 C986 1.394 . S
C987 C988 1.383 . S
C987 H995 0.929 . S
C988 C987 1.383 . S
C988 C989 1.377 . S
C989 H973 0.930 . S
C989 C988 1.377 . S
C989 C990 1.379 . S
C990 H974 0.931 . S
C990 C984 1.383 . S
C990 C989 1.379 . S
H991 C985 0.959 . S
H992 C985 0.961 . S
H993 C985 0.960 . S
H994 C986 0.930 . S
H995 C987 0.929 . S
H996 C1004 0.929 . S
H997 C1006 0.930 . S
H998 C1008 0.930 . S
H999 C1011 0.929 . S
H1000 C1014 0.938 . S
H1001 C1016 0.960 . S
H1002 C1016 0.960 . S
H1003 C1016 0.960 . S
C1004 H996 0.929 . S
C1004 C1005 1.377 . S
C1004 C1006 1.384 . S
C1005 C1004 1.377 . S
C1005 C1011 1.390 . S
C1006 H997 0.930 . S
C1006 C1004 1.384 . S
C1006 C1007 1.372 . S
C1007 C1006 1.372 . S
C1007 C1008 1.400 . S
C1007 C1012 1.490 . S
C1008 H998 0.930 . S
C1008 C1007 1.400 . S
C1008 C1011 1.386 . S
H1009 C1025 0.930 . S
H1010 C1026 0.931 . S
C1011 H999 0.929 . S
C1011 C1005 1.390 . S
C1011 C1008 1.386 . S
C1012 C1007 1.490 . S
C1012 C1014 1.385 1_565 S
C1012 C1015 1.403 . S
H1013 C1019 0.930 . S
C1014 H1000 0.938 . S
C1014 C1012 1.385 1_545 S
C1014 C1017 1.405 . S
C1015 C1012 1.403 . S
C1015 C1016 1.524 . S
C1015 C1019 1.400 . S
C1016 H1001 0.960 . S
C1016 H1002 0.960 . S
C1016 H1003 0.960 . S
C1016 C1015 1.524 . S
C1017 C1014 1.405 . S
C1017 C1018 1.392 1_545 S
C1017 C1021 1.495 . S
C1018 C1017 1.392 1_565 S
C1018 C1019 1.385 . S
C1018 C1020 1.478 . S
C1019 H1013 0.930 . S
C1019 C1015 1.400 . S
C1019 C1018 1.385 . S
C1020 C1018 1.478 . S
C1020 C1022 1.381 1_565 S
C1020 C1026 1.383 . S
C1021 C1017 1.495 . S
C1021 H1027 0.959 . S
C1021 H1028 0.961 . S
C1021 H1029 0.960 . S
C1022 C1020 1.381 1_545 S
C1022 C1023 1.394 . S
C1022 H1030 0.930 . S
C1023 C1022 1.394 . S
C1023 C1024 1.383 1_545 S
C1023 H1031 0.929 . S
C1024 C1023 1.383 1_565 S
C1024 C1025 1.377 . S
C1025 H1009 0.930 . S
C1025 C1024 1.377 . S
C1025 C1026 1.379 . S
C1026 H1010 0.931 . S
C1026 C1020 1.383 . S
C1026 C1025 1.379 . S
H1027 C1021 0.959 . S
H1028 C1021 0.961 . S
H1029 C1021 0.960 . S
H1030 C1022 0.930 . S
H1031 C1023 0.929 . S
H1032 C1040 0.929 . S
H1033 C1042 0.930 . S
H1034 C1044 0.930 . S
H1035 C1047 0.929 . S
H1036 C1050 0.930 . S
H1037 C1052 0.960 . S
H1038 C1052 0.960 . S
H1039 C1052 0.960 . S
C1040 H1032 0.929 . S
C1040 C1041 1.377 . S
C1040 C1042 1.384 . S
C1041 C1040 1.377 . S
C1041 C1047 1.390 . S
C1042 H1033 0.930 . S
C1042 C1040 1.384 . S
C1042 C1043 1.372 . S
C1043 C1042 1.372 . S
C1043 C1044 1.400 . S
C1043 C1048 1.490 . S
C1044 H1034 0.930 . S
C1044 C1043 1.400 . S
C1044 C1047 1.386 . S
H1045 C1061 0.930 . S
H1046 C1062 0.931 . S
C1047 H1035 0.929 . S
C1047 C1041 1.390 . S
C1047 C1044 1.386 . S
C1048 C1043 1.490 . S
C1048 C1050 1.395 . S
C1048 C1051 1.403 . S
H1049 C1055 0.930 . S
C1050 H1036 0.930 . S
C1050 C1048 1.395 . S
C1050 C1053 1.403 . S
C1051 C1048 1.403 . S
C1051 C1052 1.524 . S
C1051 C1055 1.400 . S
C1052 H1037 0.960 . S
C1052 H1038 0.960 . S
C1052 H1039 0.960 . S
C1052 C1051 1.524 . S
C1053 C1050 1.403 . S
C1053 C1054 1.392 . S
C1053 C1057 1.495 . S
C1054 C1053 1.392 . S
C1054 C1055 1.385 . S
C1054 C1056 1.478 . S
C1055 H1049 0.930 . S
C1055 C1051 1.400 . S
C1055 C1054 1.385 . S
C1056 C1054 1.478 . S
C1056 C1058 1.381 . S
C1056 C1062 1.383 . S
C1057 C1053 1.495 . S
C1057 H1063 0.959 . S
C1057 H1064 0.961 . S
C1057 H1065 0.960 . S
C1058 C1056 1.381 . S
C1058 C1059 1.394 . S
C1058 H1066 0.930 . S
C1059 C1058 1.394 . S
C1059 C1060 1.383 . S
C1059 H1067 0.929 . S
C1060 C1059 1.383 . S
C1060 C1061 1.377 . S
C1061 H1045 0.930 . S
C1061 C1060 1.377 . S
C1061 C1062 1.379 . S
C1062 H1046 0.931 . S
C1062 C1056 1.383 . S
C1062 C1061 1.379 . S
H1063 C1057 0.959 . S
H1064 C1057 0.961 . S
H1065 C1057 0.960 . S
H1066 C1058 0.930 . S
H1067 C1059 0.929 . S
H1068 C1076 0.929 . S
H1069 C1078 0.930 . S
H1070 C1080 0.930 . S
H1071 C1083 0.929 . S
H1072 C1086 0.930 . S
H1073 C1088 0.960 . S
H1074 C1088 0.960 . S
H1075 C1088 0.960 . S
C1076 H1068 0.929 . S
C1076 C1077 1.377 . S
C1076 C1078 1.384 . S
C1077 C1076 1.377 . S
C1077 C1083 1.390 . S
C1078 H1069 0.930 . S
C1078 C1076 1.384 . S
C1078 C1079 1.372 . S
C1079 C1078 1.372 . S
C1079 C1080 1.400 . S
C1079 C1084 1.490 . S
C1080 H1070 0.930 . S
C1080 C1079 1.400 . S
C1080 C1083 1.386 . S
H1081 C1097 0.930 . S
H1082 C1098 0.931 . S
C1083 H1071 0.929 . S
C1083 C1077 1.390 . S
C1083 C1080 1.386 . S
C1084 C1079 1.490 . S
C1084 C1086 1.395 . S
C1084 C1087 1.403 . S
H1085 C1091 0.930 . S
C1086 H1072 0.930 . S
C1086 C1084 1.395 . S
C1086 C1089 1.403 . S
C1087 C1084 1.403 . S
C1087 C1088 1.524 . S
C1087 C1091 1.400 . S
C1088 H1073 0.960 . S
C1088 H1074 0.960 . S
C1088 H1075 0.960 . S
C1088 C1087 1.524 . S
C1089 C1086 1.403 . S
C1089 C1090 1.392 . S
C1089 C1093 1.495 . S
C1090 C1089 1.392 . S
C1090 C1091 1.385 . S
C1090 C1092 1.478 . S
C1091 H1085 0.930 . S
C1091 C1087 1.400 . S
C1091 C1090 1.385 . S
C1092 C1090 1.478 . S
C1092 C1094 1.381 . S
C1092 C1098 1.383 . S
C1093 C1089 1.495 . S
C1093 H1099 0.959 . S
C1093 H1100 0.961 . S
C1093 H1101 0.960 . S
C1094 C1092 1.381 . S
C1094 C1095 1.394 . S
C1094 H1102 0.930 . S
C1095 C1094 1.394 . S
C1095 C1096 1.383 . S
C1095 H1103 0.929 . S
C1096 C1095 1.383 . S
C1096 C1097 1.377 . S
C1097 H1081 0.930 . S
C1097 C1096 1.377 . S
C1097 C1098 1.379 . S
C1098 H1082 0.931 . S
C1098 C1092 1.383 . S
C1098 C1097 1.379 . S
H1099 C1093 0.959 . S
H1100 C1093 0.961 . S
H1101 C1093 0.960 . S
H1102 C1094 0.930 . S
H1103 C1095 0.929 . S
H1104 C1112 0.929 . S
H1105 C1114 0.930 . S
H1106 C1116 0.930 . S
H1107 C1119 0.929 . S
H1108 C1122 0.930 . S
H1109 C1124 0.960 . S
H1110 C1124 0.960 . S
H1111 C1124 0.960 . S
C1112 H1104 0.929 . S
C1112 C1113 1.377 . S
C1112 C1114 1.384 . S
C1113 C1112 1.377 . S
C1113 C1119 1.390 . S
C1114 H1105 0.930 . S
C1114 C1112 1.384 . S
C1114 C1115 1.372 . S
C1115 C1114 1.372 . S
C1115 C1116 1.400 . S
C1115 C1120 1.490 . S
C1116 H1106 0.930 . S
C1116 C1115 1.400 . S
C1116 C1119 1.386 . S
H1117 C1133 0.930 . S
H1118 C1134 0.931 . S
C1119 H1107 0.929 . S
C1119 C1113 1.390 . S
C1119 C1116 1.386 . S
C1120 C1115 1.490 . S
C1120 C1122 1.395 . S
C1120 C1123 1.403 . S
H1121 C1127 0.930 . S
C1122 H1108 0.930 . S
C1122 C1120 1.395 . S
C1122 C1125 1.403 . S
C1123 C1120 1.403 . S
C1123 C1124 1.524 . S
C1123 C1127 1.400 . S
C1124 H1109 0.960 . S
C1124 H1110 0.960 . S
C1124 H1111 0.960 . S
C1124 C1123 1.524 . S
C1125 C1122 1.403 . S
C1125 C1126 1.392 . S
C1125 C1129 1.495 . S
C1126 C1125 1.392 . S
C1126 C1127 1.385 . S
C1126 C1128 1.478 . S
C1127 H1121 0.930 . S
C1127 C1123 1.400 . S
C1127 C1126 1.385 . S
C1128 C1126 1.478 . S
C1128 C1130 1.381 . S
C1128 C1134 1.383 . S
C1129 C1125 1.495 . S
C1129 H1135 0.959 . S
C1129 H1136 0.961 . S
C1129 H1137 0.960 . S
C1130 C1128 1.381 . S
C1130 C1131 1.394 . S
C1130 H1138 0.930 . S
C1131 C1130 1.394 . S
C1131 C1132 1.383 . S
C1131 H1139 0.929 . S
C1132 C1131 1.383 . S
C1132 C1133 1.377 . S
C1133 H1117 0.930 . S
C1133 C1132 1.377 . S
C1133 C1134 1.379 . S
C1134 H1118 0.931 . S
C1134 C1128 1.383 . S
C1134 C1133 1.379 . S
H1135 C1129 0.959 . S
H1136 C1129 0.961 . S
H1137 C1129 0.960 . S
H1138 C1130 0.930 . S
H1139 C1131 0.929 . S
H1140 C1148 0.929 . S
H1141 C1150 0.930 . S
H1142 C1152 0.930 . S
H1143 C1155 0.929 . S
H1144 C1158 0.930 . S
H1145 C1160 0.960 . S
H1146 C1160 0.960 . S
H1147 C1160 0.960 . S
C1148 H1140 0.929 . S
C1148 C1149 1.377 . S
C1148 C1150 1.384 . S
C1149 C1148 1.377 . S
C1149 C1155 1.390 . S
C1150 H1141 0.930 . S
C1150 C1148 1.384 . S
C1150 C1151 1.372 . S
C1151 C1150 1.372 . S
C1151 C1152 1.400 . S
C1151 C1156 1.490 . S
C1152 H1142 0.930 . S
C1152 C1151 1.400 . S
C1152 C1155 1.386 . S
H1153 C1169 0.930 . S
H1154 C1170 0.931 . S
C1155 H1143 0.929 . S
C1155 C1149 1.390 . S
C1155 C1152 1.386 . S
C1156 C1151 1.490 . S
C1156 C1158 1.395 . S
C1156 C1159 1.403 . S
H1157 C1163 0.930 . S
C1158 H1144 0.930 . S
C1158 C1156 1.395 . S
C1158 C1161 1.403 . S
C1159 C1156 1.403 . S
C1159 C1160 1.524 . S
C1159 C1163 1.400 . S
C1160 H1145 0.960 . S
C1160 H1146 0.960 . S
C1160 H1147 0.960 . S
C1160 C1159 1.524 . S
C1161 C1158 1.403 . S
C1161 C1162 1.392 . S
C1161 C1165 1.495 . S
C1162 C1161 1.392 . S
C1162 C1163 1.385 . S
C1162 C1164 1.478 . S
C1163 H1157 0.930 . S
C1163 C1159 1.400 . S
C1163 C1162 1.385 . S
C1164 C1162 1.478 . S
C1164 C1166 1.381 . S
C1164 C1170 1.383 . S
C1165 C1161 1.495 . S
C1165 H1171 0.959 . S
C1165 H1172 0.961 . S
C1165 H1173 0.960 . S
C1166 C1164 1.381 . S
C1166 C1167 1.394 . S
C1166 H1174 0.930 . S
C1167 C1166 1.394 . S
C1167 C1168 1.383 . S
C1167 H1175 0.929 . S
C1168 C1167 1.383 . S
C1168 C1169 1.377 . S
C1169 H1153 0.930 . S
C1169 C1168 1.377 . S
C1169 C1170 1.379 . S
C1170 H1154 0.931 . S
C1170 C1164 1.383 . S
C1170 C1169 1.379 . S
H1171 C1165 0.959 . S
H1172 C1165 0.961 . S
H1173 C1165 0.960 . S
H1174 C1166 0.930 . S
H1175 C1167 0.929 . S
H1176 C1184 0.929 . S
H1177 C1186 0.930 . S
H1178 C1188 0.930 . S
H1179 C1191 0.929 . S
H1180 C1194 0.930 . S
H1181 C1196 0.960 . S
H1182 C1196 0.960 . S
H1183 C1196 0.960 . S
C1184 H1176 0.929 . S
C1184 C1185 1.377 . S
C1184 C1186 1.384 . S
C1185 C1184 1.377 . S
C1185 C1191 1.390 . S
C1186 H1177 0.930 . S
C1186 C1184 1.384 . S
C1186 C1187 1.372 . S
C1187 C1186 1.372 . S
C1187 C1188 1.400 . S
C1187 C1192 1.490 . S
C1188 H1178 0.930 . S
C1188 C1187 1.400 . S
C1188 C1191 1.386 . S
H1189 C1205 0.930 . S
H1190 C1206 0.931 . S
C1191 H1179 0.929 . S
C1191 C1185 1.390 . S
C1191 C1188 1.386 . S
C1192 C1187 1.490 . S
C1192 C1194 1.395 . S
C1192 C1195 1.403 . S
H1193 C1199 0.930 . S
C1194 H1180 0.930 . S
C1194 C1192 1.395 . S
C1194 C1197 1.403 . S
C1195 C1192 1.403 . S
C1195 C1196 1.524 . S
C1195 C1199 1.400 . S
C1196 H1181 0.960 . S
C1196 H1182 0.960 . S
C1196 H1183 0.960 . S
C1196 C1195 1.524 . S
C1197 C1194 1.403 . S
C1197 C1198 1.392 . S
C1197 C1201 1.495 . S
C1198 C1197 1.392 . S
C1198 C1199 1.385 . S
C1198 C1200 1.478 . S
C1199 H1193 0.930 . S
C1199 C1195 1.400 . S
C1199 C1198 1.385 . S
C1200 C1198 1.478 . S
C1200 C1202 1.381 . S
C1200 C1206 1.383 . S
C1201 C1197 1.495 . S
C1201 H1207 0.959 . S
C1201 H1208 0.961 . S
C1201 H1209 0.960 . S
C1202 C1200 1.381 . S
C1202 C1203 1.394 . S
C1202 H1210 0.930 . S
C1203 C1202 1.394 . S
C1203 C1204 1.383 . S
C1203 H1211 0.929 . S
C1204 C1203 1.383 . S
C1204 C1205 1.377 . S
C1205 H1189 0.930 . S
C1205 C1204 1.377 . S
C1205 C1206 1.379 . S
C1206 H1190 0.931 . S
C1206 C1200 1.383 . S
C1206 C1205 1.379 . S
H1207 C1201 0.959 . S
H1208 C1201 0.961 . S
H1209 C1201 0.960 . S
H1210 C1202 0.930 . S
H1211 C1203 0.929 . S
H1212 C1220 0.929 . S
H1213 C1222 0.930 . S
H1214 C1224 0.930 . S
H1215 C1227 0.929 . S
H1216 C1230 0.930 . S
H1217 C1232 0.960 1_655 S
H1218 C1232 0.960 . S
H1219 C1232 0.955 1_655 S
C1220 H1212 0.929 . S
C1220 C1221 1.377 . S
C1220 C1222 1.384 . S
C1221 C1220 1.377 . S
C1221 C1227 1.390 . S
C1222 H1213 0.930 . S
C1222 C1220 1.384 . S
C1222 C1223 1.372 . S
C1223 C1222 1.372 . S
C1223 C1224 1.400 . S
C1223 C1228 1.490 . S
C1224 H1214 0.930 . S
C1224 C1223 1.400 . S
C1224 C1227 1.386 . S
H1225 C1241 0.907 1_655 S
H1226 C1242 0.931 1_655 S
C1227 H1215 0.929 . S
C1227 C1221 1.390 . S
C1227 C1224 1.386 . S
C1228 C1223 1.490 . S
C1228 C1230 1.395 . S
C1228 C1231 1.403 . S
H1229 C1235 0.930 . S
C1230 H1216 0.930 . S
C1230 C1228 1.395 . S
C1230 C1233 1.403 . S
C1231 C1228 1.403 . S
C1231 C1232 1.524 . S
C1231 C1235 1.400 . S
C1232 H1217 0.960 1_455 S
C1232 H1218 0.960 . S
C1232 H1219 0.955 1_455 S
C1232 C1231 1.524 . S
C1233 C1230 1.403 . S
C1233 C1234 1.392 . S
C1233 C1237 1.495 . S
C1234 C1233 1.392 . S
C1234 C1235 1.385 . S
C1234 C1236 1.478 . S
C1235 H1229 0.930 . S
C1235 C1231 1.400 . S
C1235 C1234 1.385 . S
C1236 C1234 1.478 . S
C1236 C1238 1.381 . S
C1236 C1242 1.383 . S
C1237 C1233 1.495 . S
C1237 H1243 0.959 . S
C1237 H1244 0.961 . S
C1237 H1245 0.960 . S
C1238 C1236 1.381 . S
C1238 C1239 1.394 . S
C1238 H1246 0.930 . S
C1239 C1238 1.394 . S
C1239 C1240 1.383 . S
C1239 H1247 0.929 . S
C1240 C1239 1.383 . S
C1240 C1241 1.394 . S
C1241 H1225 0.907 1_455 S
C1241 C1240 1.394 . S
C1241 C1242 1.385 . S
C1242 H1226 0.931 1_455 S
C1242 C1236 1.383 . S
C1242 C1241 1.385 . S
H1243 C1237 0.959 . S
H1244 C1237 0.961 . S
H1245 C1237 0.960 . S
H1246 C1238 0.930 . S
H1247 C1239 0.929 . S
H1248 C1256 0.929 . S
H1249 C1258 0.930 . S
H1250 C1260 0.930 . S
H1251 C1263 0.929 . S
H1252 C1266 0.930 . S
H1253 C1268 0.960 . S
H1254 C1268 0.960 . S
H1255 C1268 0.960 . S
C1256 H1248 0.929 . S
C1256 C1257 1.377 . S
C1256 C1258 1.384 . S
C1257 C1256 1.377 . S
C1257 C1263 1.390 . S
C1258 H1249 0.930 . S
C1258 C1256 1.384 . S
C1258 C1259 1.372 . S
C1259 C1258 1.372 . S
C1259 C1260 1.400 . S
C1259 C1264 1.490 . S
C1260 H1250 0.930 . S
C1260 C1259 1.400 . S
C1260 C1263 1.386 . S
H1261 C1277 0.930 . S
H1262 C1278 0.931 . S
C1263 H1251 0.929 . S
C1263 C1257 1.390 . S
C1263 C1260 1.386 . S
C1264 C1259 1.490 . S
C1264 C1266 1.395 . S
C1264 C1267 1.403 . S
H1265 C1271 0.930 . S
C1266 H1252 0.930 . S
C1266 C1264 1.395 . S
C1266 C1269 1.403 . S
C1267 C1264 1.403 . S
C1267 C1268 1.524 . S
C1267 C1271 1.400 . S
C1268 H1253 0.960 . S
C1268 H1254 0.960 . S
C1268 H1255 0.960 . S
C1268 C1267 1.524 . S
C1269 C1266 1.403 . S
C1269 C1270 1.392 . S
C1269 C1273 1.495 . S
C1270 C1269 1.392 . S
C1270 C1271 1.385 . S
C1270 C1272 1.478 . S
C1271 H1265 0.930 . S
C1271 C1267 1.400 . S
C1271 C1270 1.385 . S
C1272 C1270 1.478 . S
C1272 C1274 1.381 . S
C1272 C1278 1.383 . S
C1273 C1269 1.495 . S
C1273 H1279 0.959 . S
C1273 H1280 0.961 . S
C1273 H1281 0.960 . S
C1274 C1272 1.381 . S
C1274 C1275 1.394 . S
C1274 H1282 0.930 . S
C1275 C1274 1.394 . S
C1275 C1276 1.383 . S
C1275 H1283 0.929 . S
C1276 C1275 1.383 . S
C1276 C1277 1.377 . S
C1277 H1261 0.930 . S
C1277 C1276 1.377 . S
C1277 C1278 1.379 . S
C1278 H1262 0.931 . S
C1278 C1272 1.383 . S
C1278 C1277 1.379 . S
H1279 C1273 0.959 . S
H1280 C1273 0.961 . S
H1281 C1273 0.960 . S
H1282 C1274 0.930 . S
H1283 C1275 0.929 . S
H1284 C1292 0.929 . S
H1285 C1294 0.930 . S
H1286 C1296 0.930 . S
H1287 C1299 0.929 . S
H1288 C1302 0.930 1_455 S
H1289 C1304 0.960 . S
H1290 C1304 0.960 . S
H1291 C1304 0.960 . S
C1292 H1284 0.929 . S
C1292 C1293 1.377 . S
C1292 C1294 1.384 . S
C1293 C1292 1.377 . S
C1293 C1299 1.390 . S
C1294 H1285 0.930 . S
C1294 C1292 1.384 . S
C1294 C1295 1.372 . S
C1295 C1294 1.372 . S
C1295 C1296 1.400 . S
C1295 C1300 1.490 . S
C1296 H1286 0.930 . S
C1296 C1295 1.400 . S
C1296 C1299 1.386 . S
H1297 C1313 0.930 . S
H1298 C1314 0.950 . S
C1299 H1287 0.929 . S
C1299 C1293 1.390 . S
C1299 C1296 1.386 . S
C1300 C1295 1.490 . S
C1300 C1302 1.395 . S
C1300 C1303 1.403 . S
H1301 C1307 0.930 . S
C1302 H1288 0.930 1_655 S
C1302 C1300 1.395 . S
C1302 C1305 1.411 . S
C1303 C1300 1.403 . S
C1303 C1304 1.524 . S
C1303 C1307 1.400 . S
C1304 H1289 0.960 . S
C1304 H1290 0.960 . S
C1304 H1291 0.960 . S
C1304 C1303 1.524 . S
C1305 C1302 1.411 . S
C1305 C1306 1.422 . S
C1305 C1309 1.461 1_655 S
C1306 C1305 1.422 . S
C1306 C1307 1.385 . S
C1306 C1308 1.478 . S
C1307 H1301 0.930 . S
C1307 C1303 1.400 . S
C1307 C1306 1.385 . S
C1308 C1306 1.478 . S
C1308 C1310 1.381 . S
C1308 C1314 1.365 1_655 S
C1309 C1305 1.461 1_455 S
C1309 H1315 0.959 . S
C1309 H1316 0.961 . S
C1309 H1317 0.960 . S
C1310 C1308 1.381 . S
C1310 C1311 1.394 . S
C1310 H1318 0.930 . S
C1311 C1310 1.394 . S
C1311 C1312 1.383 . S
C1311 H1319 0.929 . S
C1312 C1311 1.383 . S
C1312 C1313 1.377 1_655 S
C1313 H1297 0.930 . S
C1313 C1312 1.377 1_455 S
C1313 C1314 1.380 . S
C1314 H1298 0.950 . S
C1314 C1308 1.365 1_455 S
C1314 C1313 1.380 . S
H1315 C1309 0.959 . S
H1316 C1309 0.961 . S
H1317 C1309 0.960 . S
H1318 C1310 0.930 . S
H1319 C1311 0.929 . S
H1320 C1328 0.929 . S
H1321 C1330 0.930 . S
H1322 C1332 0.930 . S
H1323 C1335 0.929 . S
H1324 C1338 0.930 . S
H1325 C1340 0.960 . S
H1326 C1340 0.960 . S
H1327 C1340 0.960 . S
C1328 H1320 0.929 . S
C1328 C1329 1.377 . S
C1328 C1330 1.384 . S
C1329 C1328 1.377 . S
C1329 C1335 1.390 . S
C1330 H1321 0.930 . S
C1330 C1328 1.384 . S
C1330 C1331 1.372 . S
C1331 C1330 1.372 . S
C1331 C1332 1.400 . S
C1331 C1336 1.490 . S
C1332 H1322 0.930 . S
C1332 C1331 1.400 . S
C1332 C1335 1.386 . S
H1333 C1349 0.930 . S
H1334 C1350 0.931 . S
C1335 H1323 0.929 . S
C1335 C1329 1.390 . S
C1335 C1332 1.386 . S
C1336 C1331 1.490 . S
C1336 C1338 1.395 . S
C1336 C1339 1.403 . S
H1337 C1343 0.930 . S
C1338 H1324 0.930 . S
C1338 C1336 1.395 . S
C1338 C1341 1.403 . S
C1339 C1336 1.403 . S
C1339 C1340 1.524 . S
C1339 C1343 1.400 . S
C1340 H1325 0.960 . S
C1340 H1326 0.960 . S
C1340 H1327 0.960 . S
C1340 C1339 1.524 . S
C1341 C1338 1.403 . S
C1341 C1342 1.392 . S
C1341 C1345 1.495 . S
C1342 C1341 1.392 . S
C1342 C1343 1.385 . S
C1342 C1344 1.478 . S
C1343 H1337 0.930 . S
C1343 C1339 1.400 . S
C1343 C1342 1.385 . S
C1344 C1342 1.478 . S
C1344 C1346 1.381 . S
C1344 C1350 1.383 . S
C1345 C1341 1.495 . S
C1345 H1351 0.959 . S
C1345 H1352 0.961 . S
C1345 H1353 0.960 . S
C1346 C1344 1.381 . S
C1346 C1347 1.394 . S
C1346 H1354 0.930 . S
C1347 C1346 1.394 . S
C1347 C1348 1.383 . S
C1347 H1355 0.929 . S
C1348 C1347 1.383 . S
C1348 C1349 1.377 . S
C1349 H1333 0.930 . S
C1349 C1348 1.377 . S
C1349 C1350 1.379 . S
C1350 H1334 0.931 . S
C1350 C1344 1.383 . S
C1350 C1349 1.379 . S
H1351 C1345 0.959 . S
H1352 C1345 0.961 . S
H1353 C1345 0.960 . S
H1354 C1346 0.930 . S
H1355 C1347 0.929 . S
H1356 C1364 0.929 . S
H1357 C1366 0.930 . S
H1358 C1368 0.930 . S
H1359 C1371 0.929 . S
H1360 C1374 0.930 . S
H1361 C1376 0.960 . S
H1362 C1376 0.960 . S
H1363 C1376 0.960 . S
C1364 H1356 0.929 . S
C1364 C1365 1.377 . S
C1364 C1366 1.384 . S
C1365 C1364 1.377 . S
C1365 C1371 1.390 . S
C1366 H1357 0.930 . S
C1366 C1364 1.384 . S
C1366 C1367 1.372 . S
C1367 C1366 1.372 . S
C1367 C1368 1.400 . S
C1367 C1372 1.490 . S
C1368 H1358 0.930 . S
C1368 C1367 1.400 . S
C1368 C1371 1.386 . S
H1369 C1385 0.930 . S
H1370 C1386 0.931 . S
C1371 H1359 0.929 . S
C1371 C1365 1.390 . S
C1371 C1368 1.386 . S
C1372 C1367 1.490 . S
C1372 C1374 1.395 . S
C1372 C1375 1.403 . S
H1373 C1379 0.930 . S
C1374 H1360 0.930 . S
C1374 C1372 1.395 . S
C1374 C1377 1.403 . S
C1375 C1372 1.403 . S
C1375 C1376 1.524 . S
C1375 C1379 1.400 . S
C1376 H1361 0.960 . S
C1376 H1362 0.960 . S
C1376 H1363 0.960 . S
C1376 C1375 1.524 . S
C1377 C1374 1.403 . S
C1377 C1378 1.392 . S
C1377 C1381 1.495 . S
C1378 C1377 1.392 . S
C1378 C1379 1.385 . S
C1378 C1380 1.478 . S
C1379 H1373 0.930 . S
C1379 C1375 1.400 . S
C1379 C1378 1.385 . S
C1380 C1378 1.478 . S
C1380 C1382 1.381 . S
C1380 C1386 1.383 . S
C1381 C1377 1.495 . S
C1381 H1387 0.959 . S
C1381 H1388 0.961 . S
C1381 H1389 0.960 . S
C1382 C1380 1.381 . S
C1382 C1383 1.394 . S
C1382 H1390 0.930 . S
C1383 C1382 1.394 . S
C1383 C1384 1.383 . S
C1383 H1391 0.929 . S
C1384 C1383 1.383 . S
C1384 C1385 1.377 . S
C1385 H1369 0.930 . S
C1385 C1384 1.377 . S
C1385 C1386 1.379 . S
C1386 H1370 0.931 . S
C1386 C1380 1.383 . S
C1386 C1385 1.379 . S
H1387 C1381 0.959 . S
H1388 C1381 0.961 . S
H1389 C1381 0.960 . S
H1390 C1382 0.930 . S
H1391 C1383 0.929 . S
H1392 C1400 0.929 1_554 S
H1393 C1402 0.930 1_554 S
H1394 C1404 0.930 . S
H1395 C1407 0.929 . S
H1396 C1410 0.930 . S
H1397 C1412 0.960 . S
H1398 C1412 0.960 1_554 S
H1399 C1412 0.960 . S
C1400 H1392 0.929 1_556 S
C1400 C1401 1.377 . S
C1400 C1402 1.384 . S
C1401 C1400 1.377 . S
C1401 C1407 1.390 . S
C1402 H1393 0.930 1_556 S
C1402 C1400 1.384 . S
C1402 C1403 1.372 . S
C1403 C1402 1.372 . S
C1403 C1404 1.400 . S
C1403 C1408 1.490 . S
C1404 H1394 0.930 . S
C1404 C1403 1.400 . S
C1404 C1407 1.386 . S
H1405 C1421 0.930 . S
H1406 C1422 0.931 . S
C1407 H1395 0.929 . S
C1407 C1401 1.390 . S
C1407 C1404 1.386 . S
C1408 C1403 1.490 . S
C1408 C1410 1.395 . S
C1408 C1411 1.403 . S
H1409 C1415 0.930 . S
C1410 H1396 0.930 . S
C1410 C1408 1.395 . S
C1410 C1413 1.403 . S
C1411 C1408 1.403 . S
C1411 C1412 1.524 . S
C1411 C1415 1.400 . S
C1412 H1397 0.960 . S
C1412 H1398 0.960 1_556 S
C1412 H1399 0.960 . S
C1412 C1411 1.524 . S
C1413 C1410 1.403 . S
C1413 C1414 1.392 . S
C1413 C1417 1.495 . S
C1414 C1413 1.392 . S
C1414 C1415 1.385 . S
C1414 C1416 1.478 . S
C1415 H1409 0.930 . S
C1415 C1411 1.400 . S
C1415 C1414 1.385 . S
C1416 C1414 1.478 . S
C1416 C1418 1.381 1_556 S
C1416 C1422 1.383 . S
C1417 C1413 1.495 . S
C1417 H1423 0.959 . S
C1417 H1424 0.961 . S
C1417 H1425 0.960 . S
C1418 C1416 1.381 1_554 S
C1418 C1419 1.394 . S
C1418 H1426 0.930 . S
C1419 C1418 1.394 . S
C1419 C1420 1.383 1_554 S
C1419 H1427 0.929 . S
C1420 C1419 1.383 1_556 S
C1420 C1421 1.377 . S
C1421 H1405 0.930 . S
C1421 C1420 1.377 . S
C1421 C1422 1.379 . S
C1422 H1406 0.931 . S
C1422 C1416 1.383 . S
C1422 C1421 1.379 . S
H1423 C1417 0.959 . S
H1424 C1417 0.961 . S
H1425 C1417 0.960 . S
H1426 C1418 0.930 . S
H1427 C1419 0.929 . S
H1428 C1436 0.929 . S
H1429 C1438 0.930 . S
H1430 C1440 0.930 . S
H1431 C1443 0.929 . S
H1432 C1446 0.930 . S
H1433 C1448 0.960 . S
H1434 C1448 0.960 . S
H1435 C1448 0.960 . S
C1436 H1428 0.929 . S
C1436 C1437 1.377 . S
C1436 C1438 1.384 . S
C1437 C1436 1.377 . S
C1437 C1443 1.390 . S
C1438 H1429 0.930 . S
C1438 C1436 1.384 . S
C1438 C1439 1.372 . S
C1439 C1438 1.372 . S
C1439 C1440 1.400 . S
C1439 C1444 1.490 . S
C1440 H1430 0.930 . S
C1440 C1439 1.400 . S
C1440 C1443 1.386 . S
H1441 C1457 0.930 . S
H1442 C1458 0.931 . S
C1443 H1431 0.929 . S
C1443 C1437 1.390 . S
C1443 C1440 1.386 . S
C1444 C1439 1.490 . S
C1444 C1446 1.395 . S
C1444 C1447 1.403 . S
H1445 C1451 0.930 . S
C1446 H1432 0.930 . S
C1446 C1444 1.395 . S
C1446 C1449 1.403 . S
C1447 C1444 1.403 . S
C1447 C1448 1.524 . S
C1447 C1451 1.400 . S
C1448 H1433 0.960 . S
C1448 H1434 0.960 . S
C1448 H1435 0.960 . S
C1448 C1447 1.524 . S
C1449 C1446 1.403 . S
C1449 C1450 1.392 . S
C1449 C1453 1.495 . S
C1450 C1449 1.392 . S
C1450 C1451 1.385 . S
C1450 C1452 1.478 . S
C1451 H1445 0.930 . S
C1451 C1447 1.400 . S
C1451 C1450 1.385 . S
C1452 C1450 1.478 . S
C1452 C1454 1.381 . S
C1452 C1458 1.383 . S
C1453 C1449 1.495 . S
C1453 H1459 0.959 . S
C1453 H1460 0.961 . S
C1453 H1461 0.960 . S
C1454 C1452 1.381 . S
C1454 C1455 1.394 . S
C1454 H1462 0.930 . S
C1455 C1454 1.394 . S
C1455 C1456 1.383 . S
C1455 H1463 0.929 . S
C1456 C1455 1.383 . S
C1456 C1457 1.377 . S
C1457 H1441 0.930 . S
C1457 C1456 1.377 . S
C1457 C1458 1.379 . S
C1458 H1442 0.931 . S
C1458 C1452 1.383 . S
C1458 C1457 1.379 . S
H1459 C1453 0.959 . S
H1460 C1453 0.961 . S
H1461 C1453 0.960 . S
H1462 C1454 0.930 . S
H1463 C1455 0.929 . S
H1464 C1472 0.929 . S
H1465 C1474 0.930 . S
H1466 C1476 0.930 . S
H1467 C1479 0.929 . S
H1468 C1482 0.930 . S
H1469 C1484 0.960 . S
H1470 C1484 0.960 . S
H1471 C1484 0.960 . S
C1472 H1464 0.929 . S
C1472 C1473 1.377 . S
C1472 C1474 1.384 . S
C1473 C1472 1.377 . S
C1473 C1479 1.390 . S
C1474 H1465 0.930 . S
C1474 C1472 1.384 . S
C1474 C1475 1.372 . S
C1475 C1474 1.372 . S
C1475 C1476 1.400 . S
C1475 C1480 1.490 . S
C1476 H1466 0.930 . S
C1476 C1475 1.400 . S
C1476 C1479 1.386 . S
H1477 C1493 0.930 . S
H1478 C1494 0.931 . S
C1479 H1467 0.929 . S
C1479 C1473 1.390 . S
C1479 C1476 1.386 . S
C1480 C1475 1.490 . S
C1480 C1482 1.395 . S
C1480 C1483 1.403 . S
H1481 C1487 0.930 . S
C1482 H1468 0.930 . S
C1482 C1480 1.395 . S
C1482 C1485 1.403 . S
C1483 C1480 1.403 . S
C1483 C1484 1.524 . S
C1483 C1487 1.400 . S
C1484 H1469 0.960 . S
C1484 H1470 0.960 . S
C1484 H1471 0.960 . S
C1484 C1483 1.524 . S
C1485 C1482 1.403 . S
C1485 C1486 1.392 . S
C1485 C1489 1.495 . S
C1486 C1485 1.392 . S
C1486 C1487 1.385 . S
C1486 C1488 1.478 . S
C1487 H1481 0.930 . S
C1487 C1483 1.400 . S
C1487 C1486 1.385 . S
C1488 C1486 1.478 . S
C1488 C1490 1.381 . S
C1488 C1494 1.383 . S
C1489 C1485 1.495 . S
C1489 H1495 0.959 . S
C1489 H1496 0.961 . S
C1489 H1497 0.960 . S
C1490 C1488 1.381 . S
C1490 C1491 1.394 . S
C1490 H1498 0.930 . S
C1491 C1490 1.394 . S
C1491 C1492 1.383 . S
C1491 H1499 0.929 . S
C1492 C1491 1.383 . S
C1492 C1493 1.377 . S
C1493 H1477 0.930 . S
C1493 C1492 1.377 . S
C1493 C1494 1.379 . S
C1494 H1478 0.931 . S
C1494 C1488 1.383 . S
C1494 C1493 1.379 . S
H1495 C1489 0.959 . S
H1496 C1489 0.961 . S
H1497 C1489 0.960 . S
H1498 C1490 0.930 . S
H1499 C1491 0.929 . S
H1500 C1508 0.929 . S
H1501 C1510 0.930 . S
H1502 C1512 0.930 . S
H1503 C1515 0.929 . S
H1504 C1518 0.930 . S
H1505 C1520 0.960 . S
H1506 C1520 0.960 . S
H1507 C1520 0.960 . S
C1508 H1500 0.929 . S
C1508 C1509 1.377 . S
C1508 C1510 1.384 . S
C1509 C1508 1.377 . S
C1509 C1515 1.390 . S
C1510 H1501 0.930 . S
C1510 C1508 1.384 . S
C1510 C1511 1.372 . S
C1511 C1510 1.372 . S
C1511 C1512 1.400 . S
C1511 C1516 1.490 . S
C1512 H1502 0.930 . S
C1512 C1511 1.400 . S
C1512 C1515 1.386 . S
H1513 C1529 0.930 . S
H1514 C1530 0.931 . S
C1515 H1503 0.929 . S
C1515 C1509 1.390 . S
C1515 C1512 1.386 . S
C1516 C1511 1.490 . S
C1516 C1518 1.395 . S
C1516 C1519 1.403 . S
H1517 C1523 0.930 . S
C1518 H1504 0.930 . S
C1518 C1516 1.395 . S
C1518 C1521 1.403 . S
C1519 C1516 1.403 . S
C1519 C1520 1.524 . S
C1519 C1523 1.400 . S
C1520 H1505 0.960 . S
C1520 H1506 0.960 . S
C1520 H1507 0.960 . S
C1520 C1519 1.524 . S
C1521 C1518 1.403 . S
C1521 C1522 1.392 . S
C1521 C1525 1.495 . S
C1522 C1521 1.392 . S
C1522 C1523 1.385 . S
C1522 C1524 1.478 . S
C1523 H1517 0.930 . S
C1523 C1519 1.400 . S
C1523 C1522 1.385 . S
C1524 C1522 1.478 . S
C1524 C1526 1.381 . S
C1524 C1530 1.383 . S
C1525 C1521 1.495 . S
C1525 H1531 0.959 . S
C1525 H1532 0.961 . S
C1525 H1533 0.960 . S
C1526 C1524 1.381 . S
C1526 C1527 1.394 . S
C1526 H1534 0.930 . S
C1527 C1526 1.394 . S
C1527 C1528 1.383 . S
C1527 H1535 0.929 . S
C1528 C1527 1.383 . S
C1528 C1529 1.377 . S
C1529 H1513 0.930 . S
C1529 C1528 1.377 . S
C1529 C1530 1.379 . S
C1530 H1514 0.931 . S
C1530 C1524 1.383 . S
C1530 C1529 1.379 . S
H1531 C1525 0.959 . S
H1532 C1525 0.961 . S
H1533 C1525 0.960 . S
H1534 C1526 0.930 . S
H1535 C1527 0.929 . S
H1536 C1544 0.929 . S
H1537 C1546 0.930 . S
H1538 C1548 0.930 . S
H1539 C1551 0.929 . S
H1540 C1554 0.930 . S
H1541 C1556 0.960 . S
H1542 C1556 0.960 . S
H1543 C1556 0.960 . S
C1544 H1536 0.929 . S
C1544 C1545 1.377 . S
C1544 C1546 1.384 . S
C1545 C1544 1.377 . S
C1545 C1551 1.390 . S
C1546 H1537 0.930 . S
C1546 C1544 1.384 . S
C1546 C1547 1.372 . S
C1547 C1546 1.372 . S
C1547 C1548 1.400 . S
C1547 C1552 1.490 . S
C1548 H1538 0.930 . S
C1548 C1547 1.400 . S
C1548 C1551 1.386 . S
H1549 C1565 0.930 . S
H1550 C1566 0.931 . S
C1551 H1539 0.929 . S
C1551 C1545 1.390 . S
C1551 C1548 1.386 . S
C1552 C1547 1.490 . S
C1552 C1554 1.395 . S
C1552 C1555 1.403 . S
H1553 C1559 0.930 . S
C1554 H1540 0.930 . S
C1554 C1552 1.395 . S
C1554 C1557 1.403 . S
C1555 C1552 1.403 . S
C1555 C1556 1.524 . S
C1555 C1559 1.400 . S
C1556 H1541 0.960 . S
C1556 H1542 0.960 . S
C1556 H1543 0.960 . S
C1556 C1555 1.524 . S
C1557 C1554 1.403 . S
C1557 C1558 1.392 . S
C1557 C1561 1.495 . S
C1558 C1557 1.392 . S
C1558 C1559 1.385 . S
C1558 C1560 1.478 . S
C1559 H1553 0.930 . S
C1559 C1555 1.400 . S
C1559 C1558 1.385 . S
C1560 C1558 1.478 . S
C1560 C1562 1.381 . S
C1560 C1566 1.383 . S
C1561 C1557 1.495 . S
C1561 H1567 0.959 . S
C1561 H1568 0.961 . S
C1561 H1569 0.960 . S
C1562 C1560 1.381 . S
C1562 C1563 1.394 . S
C1562 H1570 0.930 . S
C1563 C1562 1.394 . S
C1563 C1564 1.383 . S
C1563 H1571 0.929 . S
C1564 C1563 1.383 . S
C1564 C1565 1.377 . S
C1565 H1549 0.930 . S
C1565 C1564 1.377 . S
C1565 C1566 1.379 . S
C1566 H1550 0.931 . S
C1566 C1560 1.383 . S
C1566 C1565 1.379 . S
H1567 C1561 0.959 . S
H1568 C1561 0.961 . S
H1569 C1561 0.960 . S
H1570 C1562 0.930 . S
H1571 C1563 0.929 . S
H1572 C1580 0.929 . S
H1573 C1582 0.930 . S
H1574 C1584 0.930 . S
H1575 C1587 0.929 . S
H1576 C1590 0.930 . S
H1577 C1592 0.960 . S
H1578 C1592 0.960 . S
H1579 C1592 0.960 . S
C1580 H1572 0.929 . S
C1580 C1581 1.377 . S
C1580 C1582 1.384 . S
C1581 C1580 1.377 . S
C1581 C1587 1.390 . S
C1582 H1573 0.930 . S
C1582 C1580 1.384 . S
C1582 C1583 1.372 . S
C1583 C1582 1.372 . S
C1583 C1584 1.400 . S
C1583 C1588 1.490 . S
C1584 H1574 0.930 . S
C1584 C1583 1.400 . S
C1584 C1587 1.386 . S
H1585 C1601 0.930 . S
H1586 C1602 0.931 . S
C1587 H1575 0.929 . S
C1587 C1581 1.390 . S
C1587 C1584 1.386 . S
C1588 C1583 1.490 . S
C1588 C1590 1.395 . S
C1588 C1591 1.403 . S
H1589 C1595 0.930 . S
C1590 H1576 0.930 . S
C1590 C1588 1.395 . S
C1590 C1593 1.403 . S
C1591 C1588 1.403 . S
C1591 C1592 1.524 . S
C1591 C1595 1.400 . S
C1592 H1577 0.960 . S
C1592 H1578 0.960 . S
C1592 H1579 0.960 . S
C1592 C1591 1.524 . S
C1593 C1590 1.403 . S
C1593 C1594 1.392 . S
C1593 C1597 1.495 . S
C1594 C1593 1.392 . S
C1594 C1595 1.385 . S
C1594 C1596 1.478 . S
C1595 H1589 0.930 . S
C1595 C1591 1.400 . S
C1595 C1594 1.385 . S
C1596 C1594 1.478 . S
C1596 C1598 1.381 . S
C1596 C1602 1.383 . S
C1597 C1593 1.495 . S
C1597 H1603 0.959 . S
C1597 H1604 0.961 . S
C1597 H1605 0.960 . S
C1598 C1596 1.381 . S
C1598 C1599 1.394 . S
C1598 H1606 0.930 . S
C1599 C1598 1.394 . S
C1599 C1600 1.383 . S
C1599 H1607 0.929 . S
C1600 C1599 1.383 . S
C1600 C1601 1.377 . S
C1601 H1585 0.930 . S
C1601 C1600 1.377 . S
C1601 C1602 1.379 . S
C1602 H1586 0.931 . S
C1602 C1596 1.383 . S
C1602 C1601 1.379 . S
H1603 C1597 0.959 . S
H1604 C1597 0.961 . S
H1605 C1597 0.960 . S
H1606 C1598 0.930 . S
H1607 C1599 0.929 . S
H1608 C1616 0.929 . S
H1609 C1618 0.930 . S
H1610 C1620 0.930 . S
H1611 C1623 0.929 . S
H1612 C1626 0.930 . S
H1613 C1628 0.960 . S
H1614 C1628 0.960 . S
H1615 C1628 0.960 . S
C1616 H1608 0.929 . S
C1616 C1617 1.377 . S
C1616 C1618 1.384 . S
C1617 C1616 1.377 . S
C1617 C1623 1.390 . S
C1618 H1609 0.930 . S
C1618 C1616 1.384 . S
C1618 C1619 1.372 . S
C1619 C1618 1.372 . S
C1619 C1620 1.400 . S
C1619 C1624 1.490 . S
C1620 H1610 0.930 . S
C1620 C1619 1.400 . S
C1620 C1623 1.386 . S
H1621 C1637 0.930 . S
H1622 C1638 0.931 . S
C1623 H1611 0.929 . S
C1623 C1617 1.390 . S
C1623 C1620 1.386 . S
C1624 C1619 1.490 . S
C1624 C1626 1.395 . S
C1624 C1627 1.403 . S
H1625 C1631 0.930 . S
C1626 H1612 0.930 . S
C1626 C1624 1.395 . S
C1626 C1629 1.403 . S
C1627 C1624 1.403 . S
C1627 C1628 1.524 . S
C1627 C1631 1.400 . S
C1628 H1613 0.960 . S
C1628 H1614 0.960 . S
C1628 H1615 0.960 . S
C1628 C1627 1.524 . S
C1629 C1626 1.403 . S
C1629 C1630 1.392 . S
C1629 C1633 1.495 . S
C1630 C1629 1.392 . S
C1630 C1631 1.385 . S
C1630 C1632 1.478 . S
C1631 H1625 0.930 . S
C1631 C1627 1.400 . S
C1631 C1630 1.385 . S
C1632 C1630 1.478 . S
C1632 C1634 1.381 . S
C1632 C1638 1.383 . S
C1633 C1629 1.495 . S
C1633 H1639 0.959 . S
C1633 H1640 0.961 . S
C1633 H1641 0.960 . S
C1634 C1632 1.381 . S
C1634 C1635 1.394 . S
C1634 H1642 0.930 . S
C1635 C1634 1.394 . S
C1635 C1636 1.383 . S
C1635 H1643 0.929 . S
C1636 C1635 1.383 . S
C1636 C1637 1.377 . S
C1637 H1621 0.930 . S
C1637 C1636 1.377 . S
C1637 C1638 1.379 . S
C1638 H1622 0.931 . S
C1638 C1632 1.383 . S
C1638 C1637 1.379 . S
H1639 C1633 0.959 . S
H1640 C1633 0.961 . S
H1641 C1633 0.960 . S
H1642 C1634 0.930 . S
H1643 C1635 0.929 . S
H1644 C1652 0.929 . S
H1645 C1654 0.930 . S
H1646 C1656 0.930 1_565 S
H1647 C1659 0.929 1_565 S
H1648 C1662 0.930 . S
H1649 C1664 0.960 . S
H1650 C1664 0.960 . S
H1651 C1664 0.960 . S
C1652 H1644 0.929 . S
C1652 C1653 1.377 . S
C1652 C1654 1.384 . S
C1653 C1652 1.377 . S
C1653 C1659 1.390 . S
C1654 H1645 0.930 . S
C1654 C1652 1.384 . S
C1654 C1655 1.372 . S
C1655 C1654 1.372 . S
C1655 C1656 1.400 . S
C1655 C1660 1.490 . S
C1656 H1646 0.930 1_545 S
C1656 C1655 1.400 . S
C1656 C1659 1.386 . S
H1657 C1673 0.930 . S
H1658 C1674 0.931 . S
C1659 H1647 0.929 1_545 S
C1659 C1653 1.390 . S
C1659 C1656 1.386 . S
C1660 C1655 1.490 . S
C1660 C1662 1.395 . S
C1660 C1663 1.403 . S
H1661 C1667 0.930 . S
C1662 H1648 0.930 . S
C1662 C1660 1.395 . S
C1662 C1665 1.403 . S
C1663 C1660 1.403 . S
C1663 C1664 1.524 . S
C1663 C1667 1.400 . S
C1664 H1649 0.960 . S
C1664 H1650 0.960 . S
C1664 H1651 0.960 . S
C1664 C1663 1.524 . S
C1665 C1662 1.403 . S
C1665 C1666 1.392 . S
C1665 C1669 1.495 . S
C1666 C1665 1.392 . S
C1666 C1667 1.385 . S
C1666 C1668 1.478 . S
C1667 H1661 0.930 . S
C1667 C1663 1.400 . S
C1667 C1666 1.385 . S
C1668 C1666 1.478 . S
C1668 C1670 1.381 . S
C1668 C1674 1.383 1_545 S
C1669 C1665 1.495 . S
C1669 H1675 0.959 . S
C1669 H1676 0.961 . S
C1669 H1677 0.960 . S
C1670 C1668 1.381 . S
C1670 C1671 1.394 . S
C1670 H1678 0.930 . S
C1671 C1670 1.394 . S
C1671 C1672 1.383 . S
C1671 H1679 0.929 . S
C1672 C1671 1.383 . S
C1672 C1673 1.377 1_545 S
C1673 H1657 0.930 . S
C1673 C1672 1.377 1_565 S
C1673 C1674 1.379 . S
C1674 H1658 0.931 . S
C1674 C1668 1.383 1_565 S
C1674 C1673 1.379 . S
H1675 C1669 0.959 . S
H1676 C1669 0.961 . S
H1677 C1669 0.960 . S
H1678 C1670 0.930 . S
H1679 C1671 0.929 . S
H1680 C1688 0.929 . S
H1681 C1690 0.930 . S
H1682 C1692 0.930 . S
H1683 C1695 0.929 . S
H1684 C1698 0.930 . S
H1685 C1700 0.960 . S
H1686 C1700 0.960 . S
H1687 C1700 0.960 . S
C1688 H1680 0.929 . S
C1688 C1689 1.377 . S
C1688 C1690 1.384 . S
C1689 C1688 1.377 . S
C1689 C1695 1.390 . S
C1690 H1681 0.930 . S
C1690 C1688 1.384 . S
C1690 C1691 1.372 . S
C1691 C1690 1.372 . S
C1691 C1692 1.400 . S
C1691 C1696 1.490 . S
C1692 H1682 0.930 . S
C1692 C1691 1.400 . S
C1692 C1695 1.386 . S
H1693 C1709 0.930 . S
H1694 C1710 0.931 . S
C1695 H1683 0.929 . S
C1695 C1689 1.390 . S
C1695 C1692 1.386 . S
C1696 C1691 1.490 . S
C1696 C1698 1.395 . S
C1696 C1699 1.403 . S
H1697 C1703 0.930 . S
C1698 H1684 0.930 . S
C1698 C1696 1.395 . S
C1698 C1701 1.403 . S
C1699 C1696 1.403 . S
C1699 C1700 1.524 . S
C1699 C1703 1.400 . S
C1700 H1685 0.960 . S
C1700 H1686 0.960 . S
C1700 H1687 0.960 . S
C1700 C1699 1.524 . S
C1701 C1698 1.403 . S
C1701 C1702 1.392 . S
C1701 C1705 1.495 . S
C1702 C1701 1.392 . S
C1702 C1703 1.385 . S
C1702 C1704 1.478 . S
C1703 H1697 0.930 . S
C1703 C1699 1.400 . S
C1703 C1702 1.385 . S
C1704 C1702 1.478 . S
C1704 C1706 1.381 . S
C1704 C1710 1.383 . S
C1705 C1701 1.495 . S
C1705 H1711 0.959 . S
C1705 H1712 0.961 . S
C1705 H1713 0.960 . S
C1706 C1704 1.381 . S
C1706 C1707 1.394 . S
C1706 H1714 0.930 . S
C1707 C1706 1.394 . S
C1707 C1708 1.383 . S
C1707 H1715 0.929 . S
C1708 C1707 1.383 . S
C1708 C1709 1.377 . S
C1709 H1693 0.930 . S
C1709 C1708 1.377 . S
C1709 C1710 1.379 . S
C1710 H1694 0.931 . S
C1710 C1704 1.383 . S
C1710 C1709 1.379 . S
H1711 C1705 0.959 . S
H1712 C1705 0.961 . S
H1713 C1705 0.960 . S
H1714 C1706 0.930 . S
H1715 C1707 0.929 . S
H1716 C1724 0.929 . S
H1717 C1726 0.930 . S
H1718 C1728 0.930 . S
H1719 C1731 0.929 . S
H1720 C1734 0.930 . S
H1721 C1736 0.960 . S
H1722 C1736 0.960 . S
H1723 C1736 0.960 . S
C1724 H1716 0.929 . S
C1724 C1725 1.377 . S
C1724 C1726 1.384 . S
C1725 C1724 1.377 . S
C1725 C1731 1.390 . S
C1726 H1717 0.930 . S
C1726 C1724 1.384 . S
C1726 C1727 1.372 . S
C1727 C1726 1.372 . S
C1727 C1728 1.400 . S
C1727 C1732 1.490 . S
C1728 H1718 0.930 . S
C1728 C1727 1.400 . S
C1728 C1731 1.386 . S
H1729 C1745 0.930 . S
H1730 C1746 0.931 . S
C1731 H1719 0.929 . S
C1731 C1725 1.390 . S
C1731 C1728 1.386 . S
C1732 C1727 1.490 . S
C1732 C1734 1.395 . S
C1732 C1735 1.403 . S
H1733 C1739 0.930 . S
C1734 H1720 0.930 . S
C1734 C1732 1.395 . S
C1734 C1737 1.403 . S
C1735 C1732 1.403 . S
C1735 C1736 1.524 . S
C1735 C1739 1.400 . S
C1736 H1721 0.960 . S
C1736 H1722 0.960 . S
C1736 H1723 0.960 . S
C1736 C1735 1.524 . S
C1737 C1734 1.403 . S
C1737 C1738 1.392 . S
C1737 C1741 1.495 . S
C1738 C1737 1.392 . S
C1738 C1739 1.385 . S
C1738 C1740 1.478 . S
C1739 H1733 0.930 . S
C1739 C1735 1.400 . S
C1739 C1738 1.385 . S
C1740 C1738 1.478 . S
C1740 C1742 1.381 . S
C1740 C1746 1.383 . S
C1741 C1737 1.495 . S
C1741 H1747 0.959 . S
C1741 H1748 0.961 . S
C1741 H1749 0.960 . S
C1742 C1740 1.381 . S
C1742 C1743 1.394 . S
C1742 H1750 0.930 . S
C1743 C1742 1.394 . S
C1743 C1744 1.383 . S
C1743 H1751 0.929 . S
C1744 C1743 1.383 . S
C1744 C1745 1.377 . S
C1745 H1729 0.930 . S
C1745 C1744 1.377 . S
C1745 C1746 1.379 . S
C1746 H1730 0.931 . S
C1746 C1740 1.383 . S
C1746 C1745 1.379 . S
H1747 C1741 0.959 . S
H1748 C1741 0.961 . S
H1749 C1741 0.960 . S
H1750 C1742 0.930 . S
H1751 C1743 0.929 . S
H1752 C1760 0.929 . S
H1753 C1762 0.930 . S
H1754 C1764 0.930 . S
H1755 C1767 0.929 . S
H1756 C1770 0.930 . S
H1757 C1772 0.960 . S
H1758 C1772 0.960 . S
H1759 C1772 0.960 . S
C1760 H1752 0.929 . S
C1760 C1761 1.377 . S
C1760 C1762 1.384 . S
C1761 C1760 1.377 . S
C1761 C1767 1.390 . S
C1762 H1753 0.930 . S
C1762 C1760 1.384 . S
C1762 C1763 1.372 . S
C1763 C1762 1.372 . S
C1763 C1764 1.400 . S
C1763 C1768 1.490 . S
C1764 H1754 0.930 . S
C1764 C1763 1.400 . S
C1764 C1767 1.386 . S
H1765 C1781 0.930 . S
H1766 C1782 0.931 . S
C1767 H1755 0.929 . S
C1767 C1761 1.390 . S
C1767 C1764 1.386 . S
C1768 C1763 1.490 . S
C1768 C1770 1.395 . S
C1768 C1771 1.403 . S
H1769 C1775 0.930 . S
C1770 H1756 0.930 . S
C1770 C1768 1.395 . S
C1770 C1773 1.403 . S
C1771 C1768 1.403 . S
C1771 C1772 1.524 . S
C1771 C1775 1.400 . S
C1772 H1757 0.960 . S
C1772 H1758 0.960 . S
C1772 H1759 0.960 . S
C1772 C1771 1.524 . S
C1773 C1770 1.403 . S
C1773 C1774 1.392 . S
C1773 C1777 1.495 . S
C1774 C1773 1.392 . S
C1774 C1775 1.385 . S
C1774 C1776 1.478 . S
C1775 H1769 0.930 . S
C1775 C1771 1.400 . S
C1775 C1774 1.385 . S
C1776 C1774 1.478 . S
C1776 C1778 1.381 . S
C1776 C1782 1.383 . S
C1777 C1773 1.495 . S
C1777 H1783 0.959 . S
C1777 H1784 0.961 . S
C1777 H1785 0.960 . S
C1778 C1776 1.381 . S
C1778 C1779 1.394 . S
C1778 H1786 0.930 . S
C1779 C1778 1.394 . S
C1779 C1780 1.383 . S
C1779 H1787 0.929 . S
C1780 C1779 1.383 . S
C1780 C1781 1.377 . S
C1781 H1765 0.930 . S
C1781 C1780 1.377 . S
C1781 C1782 1.379 . S
C1782 H1766 0.931 . S
C1782 C1776 1.383 . S
C1782 C1781 1.379 . S
H1783 C1777 0.959 . S
H1784 C1777 0.961 . S
H1785 C1777 0.960 . S
H1786 C1778 0.930 . S
H1787 C1779 0.929 . S
H1788 C1796 0.929 . S
H1789 C1798 0.930 . S
H1790 C1800 0.930 . S
H1791 C1803 0.929 . S
H1792 C1806 0.930 . S
H1793 C1808 0.960 1_565 S
H1794 C1808 0.960 . S
H1795 C1808 0.960 1_565 S
C1796 H1788 0.929 . S
C1796 C1797 1.377 . S
C1796 C1798 1.384 . S
C1797 C1796 1.377 . S
C1797 C1803 1.390 . S
C1798 H1789 0.930 . S
C1798 C1796 1.384 . S
C1798 C1799 1.372 . S
C1799 C1798 1.372 . S
C1799 C1800 1.400 . S
C1799 C1804 1.490 . S
C1800 H1790 0.930 . S
C1800 C1799 1.400 . S
C1800 C1803 1.386 . S
H1801 C1817 0.933 1_565 S
H1802 C1818 0.931 . S
C1803 H1791 0.929 . S
C1803 C1797 1.390 . S
C1803 C1800 1.386 . S
C1804 C1799 1.490 . S
C1804 C1806 1.395 . S
C1804 C1807 1.403 . S
H1805 C1811 0.930 . S
C1806 H1792 0.930 . S
C1806 C1804 1.395 . S
C1806 C1809 1.403 . S
C1807 C1804 1.403 . S
C1807 C1808 1.524 . S
C1807 C1811 1.400 . S
C1808 H1793 0.960 1_545 S
C1808 H1794 0.960 . S
C1808 H1795 0.960 1_545 S
C1808 C1807 1.524 . S
C1809 C1806 1.403 . S
C1809 C1810 1.392 . S
C1809 C1813 1.495 . S
C1810 C1809 1.392 . S
C1810 C1811 1.385 . S
C1810 C1812 1.478 . S
C1811 H1805 0.930 . S
C1811 C1807 1.400 . S
C1811 C1810 1.385 . S
C1812 C1810 1.478 . S
C1812 C1814 1.381 . S
C1812 C1818 1.383 . S
C1813 C1809 1.495 . S
C1813 H1819 0.959 . S
C1813 H1820 0.961 . S
C1813 H1821 0.960 . S
C1814 C1812 1.381 . S
C1814 C1815 1.394 . S
C1814 H1822 0.930 . S
C1815 C1814 1.394 . S
C1815 C1816 1.383 . S
C1815 H1823 0.929 . S
C1816 C1815 1.383 . S
C1816 C1817 1.377 . S
C1817 H1801 0.933 1_545 S
C1817 C1816 1.377 . S
C1817 C1818 1.379 . S
C1818 H1802 0.931 . S
C1818 C1812 1.383 . S
C1818 C1817 1.379 . S
H1819 C1813 0.959 . S
H1820 C1813 0.961 . S
H1821 C1813 0.960 . S
H1822 C1814 0.930 . S
H1823 C1815 0.929 . S
H1824 C1832 0.929 . S
H1825 C1834 0.930 . S
H1826 C1836 0.930 . S
H1827 C1839 0.929 . S
H1828 C1842 0.930 . S
H1829 C1844 0.960 . S
H1830 C1844 0.960 . S
H1831 C1844 0.960 . S
C1832 H1824 0.929 . S
C1832 C1833 1.377 . S
C1832 C1834 1.384 . S
C1833 C1832 1.377 . S
C1833 C1839 1.390 . S
C1834 H1825 0.930 . S
C1834 C1832 1.384 . S
C1834 C1835 1.372 . S
C1835 C1834 1.372 . S
C1835 C1836 1.400 . S
C1835 C1840 1.490 . S
C1836 H1826 0.930 . S
C1836 C1835 1.400 . S
C1836 C1839 1.386 . S
H1837 C1853 0.930 . S
H1838 C1854 0.931 . S
C1839 H1827 0.929 . S
C1839 C1833 1.390 . S
C1839 C1836 1.386 . S
C1840 C1835 1.490 . S
C1840 C1842 1.395 . S
C1840 C1843 1.403 . S
H1841 C1847 0.930 . S
C1842 H1828 0.930 . S
C1842 C1840 1.395 . S
C1842 C1845 1.403 . S
C1843 C1840 1.403 . S
C1843 C1844 1.524 . S
C1843 C1847 1.400 . S
C1844 H1829 0.960 . S
C1844 H1830 0.960 . S
C1844 H1831 0.960 . S
C1844 C1843 1.524 . S
C1845 C1842 1.403 . S
C1845 C1846 1.392 . S
C1845 C1849 1.495 . S
C1846 C1845 1.392 . S
C1846 C1847 1.385 . S
C1846 C1848 1.478 . S
C1847 H1841 0.930 . S
C1847 C1843 1.400 . S
C1847 C1846 1.385 . S
C1848 C1846 1.478 . S
C1848 C1850 1.381 . S
C1848 C1854 1.383 . S
C1849 C1845 1.495 . S
C1849 H1855 0.959 . S
C1849 H1856 0.961 . S
C1849 H1857 0.960 . S
C1850 C1848 1.381 . S
C1850 C1851 1.394 . S
C1850 H1858 0.930 . S
C1851 C1850 1.394 . S
C1851 C1852 1.383 . S
C1851 H1859 0.929 . S
C1852 C1851 1.383 . S
C1852 C1853 1.377 . S
C1853 H1837 0.930 . S
C1853 C1852 1.377 . S
C1853 C1854 1.379 . S
C1854 H1838 0.931 . S
C1854 C1848 1.383 . S
C1854 C1853 1.379 . S
H1855 C1849 0.959 . S
H1856 C1849 0.961 . S
H1857 C1849 0.960 . S
H1858 C1850 0.930 . S
H1859 C1851 0.929 . S
H1860 C1868 0.929 . S
H1861 C1870 0.930 . S
H1862 C1872 0.930 . S
H1863 C1875 0.929 . S
H1864 C1878 0.930 . S
H1865 C1880 0.960 . S
H1866 C1880 0.960 . S
H1867 C1880 0.960 . S
C1868 H1860 0.929 . S
C1868 C1869 1.377 . S
C1868 C1870 1.384 . S
C1869 C1868 1.377 . S
C1869 C1875 1.390 . S
C1870 H1861 0.930 . S
C1870 C1868 1.384 . S
C1870 C1871 1.372 . S
C1871 C1870 1.372 . S
C1871 C1872 1.400 . S
C1871 C1876 1.490 . S
C1872 H1862 0.930 . S
C1872 C1871 1.400 . S
C1872 C1875 1.386 . S
H1873 C1889 0.930 . S
H1874 C1890 0.931 . S
C1875 H1863 0.929 . S
C1875 C1869 1.390 . S
C1875 C1872 1.386 . S
C1876 C1871 1.490 . S
C1876 C1878 1.395 . S
C1876 C1879 1.403 . S
H1877 C1883 0.930 . S
C1878 H1864 0.930 . S
C1878 C1876 1.395 . S
C1878 C1881 1.403 . S
C1879 C1876 1.403 . S
C1879 C1880 1.524 . S
C1879 C1883 1.400 . S
C1880 H1865 0.960 . S
C1880 H1866 0.960 . S
C1880 H1867 0.960 . S
C1880 C1879 1.524 . S
C1881 C1878 1.403 . S
C1881 C1882 1.392 . S
C1881 C1885 1.495 . S
C1882 C1881 1.392 . S
C1882 C1883 1.385 . S
C1882 C1884 1.478 . S
C1883 H1877 0.930 . S
C1883 C1879 1.400 . S
C1883 C1882 1.385 . S
C1884 C1882 1.478 . S
C1884 C1886 1.381 . S
C1884 C1890 1.383 . S
C1885 C1881 1.495 . S
C1885 H1891 0.959 . S
C1885 H1892 0.961 . S
C1885 H1893 0.960 . S
C1886 C1884 1.381 . S
C1886 C1887 1.394 . S
C1886 H1894 0.930 . S
C1887 C1886 1.394 . S
C1887 C1888 1.383 . S
C1887 H1895 0.929 . S
C1888 C1887 1.383 . S
C1888 C1889 1.377 . S
C1889 H1873 0.930 . S
C1889 C1888 1.377 . S
C1889 C1890 1.379 . S
C1890 H1874 0.931 . S
C1890 C1884 1.383 . S
C1890 C1889 1.379 . S
H1891 C1885 0.959 . S
H1892 C1885 0.961 . S
H1893 C1885 0.960 . S
H1894 C1886 0.930 . S
H1895 C1887 0.929 . S
H1896 C1904 0.929 . S
H1897 C1906 0.930 . S
H1898 C1908 0.930 . S
H1899 C1911 0.929 . S
H1900 C1914 0.930 . S
H1901 C1916 0.960 . S
H1902 C1916 0.960 . S
H1903 C1916 0.960 . S
C1904 H1896 0.929 . S
C1904 C1905 1.377 . S
C1904 C1906 1.384 . S
C1905 C1904 1.377 . S
C1905 C1911 1.390 . S
C1906 H1897 0.930 . S
C1906 C1904 1.384 . S
C1906 C1907 1.372 . S
C1907 C1906 1.372 . S
C1907 C1908 1.400 . S
C1907 C1912 1.490 . S
C1908 H1898 0.930 . S
C1908 C1907 1.400 . S
C1908 C1911 1.386 . S
H1909 C1925 0.930 . S
H1910 C1926 0.931 . S
C1911 H1899 0.929 . S
C1911 C1905 1.390 . S
C1911 C1908 1.386 . S
C1912 C1907 1.490 . S
C1912 C1914 1.395 . S
C1912 C1915 1.403 . S
H1913 C1919 0.930 . S
C1914 H1900 0.930 . S
C1914 C1912 1.395 . S
C1914 C1917 1.403 . S
C1915 C1912 1.403 . S
C1915 C1916 1.524 . S
C1915 C1919 1.400 . S
C1916 H1901 0.960 . S
C1916 H1902 0.960 . S
C1916 H1903 0.960 . S
C1916 C1915 1.524 . S
C1917 C1914 1.403 . S
C1917 C1918 1.392 . S
C1917 C1921 1.495 . S
C1918 C1917 1.392 . S
C1918 C1919 1.385 . S
C1918 C1920 1.478 . S
C1919 H1913 0.930 . S
C1919 C1915 1.400 . S
C1919 C1918 1.385 . S
C1920 C1918 1.478 . S
C1920 C1922 1.381 . S
C1920 C1926 1.383 . S
C1921 C1917 1.495 . S
C1921 H1927 0.959 . S
C1921 H1928 0.961 . S
C1921 H1929 0.960 . S
C1922 C1920 1.381 . S
C1922 C1923 1.394 . S
C1922 H1930 0.930 . S
C1923 C1922 1.394 . S
C1923 C1924 1.383 . S
C1923 H1931 0.929 . S
C1924 C1923 1.383 . S
C1924 C1925 1.377 . S
C1925 H1909 0.930 . S
C1925 C1924 1.377 . S
C1925 C1926 1.379 . S
C1926 H1910 0.931 . S
C1926 C1920 1.383 . S
C1926 C1925 1.379 . S
H1927 C1921 0.959 . S
H1928 C1921 0.961 . S
H1929 C1921 0.960 . S
H1930 C1922 0.930 . S
H1931 C1923 0.929 . S
H1932 C1940 0.929 . S
H1933 C1942 0.930 . S
H1934 C1944 0.930 . S
H1935 C1947 0.929 . S
H1936 C1950 0.930 . S
H1937 C1952 0.960 . S
H1938 C1952 0.960 . S
H1939 C1952 0.960 . S
C1940 H1932 0.929 . S
C1940 C1941 1.377 . S
C1940 C1942 1.384 . S
C1941 C1940 1.377 . S
C1941 C1947 1.390 1_655 S
C1942 H1933 0.930 . S
C1942 C1940 1.384 . S
C1942 C1943 1.372 . S
C1943 C1942 1.372 . S
C1943 C1944 1.400 1_655 S
C1943 C1948 1.490 . S
C1944 H1934 0.930 . S
C1944 C1943 1.400 1_455 S
C1944 C1947 1.386 . S
H1945 C1961 0.930 . S
H1946 C1962 0.931 . S
C1947 H1935 0.929 . S
C1947 C1941 1.390 1_455 S
C1947 C1944 1.386 . S
C1948 C1943 1.490 . S
C1948 C1950 1.395 . S
C1948 C1951 1.403 1_655 S
H1949 C1955 0.930 . S
C1950 H1936 0.930 . S
C1950 C1948 1.395 . S
C1950 C1953 1.403 . S
C1951 C1948 1.403 1_455 S
C1951 C1952 1.524 . S
C1951 C1955 1.400 . S
C1952 H1937 0.960 . S
C1952 H1938 0.960 . S
C1952 H1939 0.960 . S
C1952 C1951 1.524 . S
C1953 C1950 1.403 . S
C1953 C1954 1.376 1_655 S
C1953 C1957 1.495 . S
C1954 C1953 1.376 1_455 S
C1954 C1955 1.396 . S
C1954 C1956 1.484 . S
C1955 H1949 0.930 . S
C1955 C1951 1.400 . S
C1955 C1954 1.396 . S
C1956 C1954 1.484 . S
C1956 C1958 1.381 1_455 S
C1956 C1962 1.383 . S
C1957 C1953 1.495 . S
C1957 H1963 0.959 . S
C1957 H1964 0.961 . S
C1957 H1965 0.960 . S
C1958 C1956 1.381 1_655 S
C1958 C1959 1.394 . S
C1958 H1966 0.930 . S
C1959 C1958 1.394 . S
C1959 C1960 1.383 1_655 S
C1959 H1967 0.929 . S
C1960 C1959 1.383 1_455 S
C1960 C1961 1.377 . S
C1961 H1945 0.930 . S
C1961 C1960 1.377 . S
C1961 C1962 1.379 . S
C1962 H1946 0.931 . S
C1962 C1956 1.383 . S
C1962 C1961 1.379 . S
H1963 C1957 0.959 . S
H1964 C1957 0.961 . S
H1965 C1957 0.960 . S
H1966 C1958 0.930 . S
H1967 C1959 0.929 . S
H1968 C1976 0.929 . S
H1969 C1978 0.930 . S
H1970 C1980 0.930 . S
H1971 C1983 0.929 . S
H1972 C1986 0.930 . S
H1973 C1988 0.960 . S
H1974 C1988 0.960 . S
H1975 C1988 0.960 . S
C1976 H1968 0.929 . S
C1976 C1977 1.377 . S
C1976 C1978 1.384 . S
C1977 C1976 1.377 . S
C1977 C1983 1.390 . S
C1978 H1969 0.930 . S
C1978 C1976 1.384 . S
C1978 C1979 1.372 . S
C1979 C1978 1.372 . S
C1979 C1980 1.400 . S
C1979 C1984 1.490 . S
C1980 H1970 0.930 . S
C1980 C1979 1.400 . S
C1980 C1983 1.386 . S
H1981 C1997 0.930 . S
H1982 C1998 0.931 . S
C1983 H1971 0.929 . S
C1983 C1977 1.390 . S
C1983 C1980 1.386 . S
C1984 C1979 1.490 . S
C1984 C1986 1.395 . S
C1984 C1987 1.403 . S
H1985 C1991 0.930 . S
C1986 H1972 0.930 . S
C1986 C1984 1.395 . S
C1986 C1989 1.403 . S
C1987 C1984 1.403 . S
C1987 C1988 1.524 . S
C1987 C1991 1.400 . S
C1988 H1973 0.960 . S
C1988 H1974 0.960 . S
C1988 H1975 0.960 . S
C1988 C1987 1.524 . S
C1989 C1986 1.403 . S
C1989 C1990 1.392 . S
C1989 C1993 1.495 . S
C1990 C1989 1.392 . S
C1990 C1991 1.385 . S
C1990 C1992 1.478 . S
C1991 H1985 0.930 . S
C1991 C1987 1.400 . S
C1991 C1990 1.385 . S
C1992 C1990 1.478 . S
C1992 C1994 1.381 . S
C1992 C1998 1.383 . S
C1993 C1989 1.495 . S
C1993 H1999 0.959 . S
C1993 H2000 0.961 . S
C1993 H2001 0.960 . S
C1994 C1992 1.381 . S
C1994 C1995 1.394 . S
C1994 H2002 0.930 . S
C1995 C1994 1.394 . S
C1995 C1996 1.383 . S
C1995 H2003 0.929 . S
C1996 C1995 1.383 . S
C1996 C1997 1.377 . S
C1997 H1981 0.930 . S
C1997 C1996 1.377 . S
C1997 C1998 1.379 . S
C1998 H1982 0.931 . S
C1998 C1992 1.383 . S
C1998 C1997 1.379 . S
H1999 C1993 0.959 . S
H2000 C1993 0.961 . S
H2001 C1993 0.960 . S
H2002 C1994 0.930 . S
H2003 C1995 0.929 . S
H2004 C2012 0.929 . S
H2005 C2014 0.935 . S
H2006 C2016 0.930 . S
H2007 C2019 0.929 . S
H2008 C2022 0.930 . S
H2009 C2024 0.960 . S
H2010 C2024 0.960 . S
H2011 C2024 0.960 . S
C2012 H2004 0.929 . S
C2012 C2013 1.377 . S
C2012 C2014 1.384 . S
C2013 C2012 1.377 . S
C2013 C2019 1.390 . S
C2014 H2005 0.935 . S
C2014 C2012 1.384 . S
C2014 C2015 1.372 . S
C2015 C2014 1.372 . S
C2015 C2016 1.400 . S
C2015 C2020 1.490 . S
C2016 H2006 0.930 . S
C2016 C2015 1.400 . S
C2016 C2019 1.386 . S
H2017 C2033 0.930 . S
H2018 C2034 0.931 . S
C2019 H2007 0.929 . S
C2019 C2013 1.390 . S
C2019 C2016 1.386 . S
C2020 C2015 1.490 . S
C2020 C2022 1.395 . S
C2020 C2023 1.403 . S
H2021 C2027 0.930 . S
C2022 H2008 0.930 . S
C2022 C2020 1.395 . S
C2022 C2025 1.403 . S
C2023 C2020 1.403 . S
C2023 C2024 1.524 . S
C2023 C2027 1.400 . S
C2024 H2009 0.960 . S
C2024 H2010 0.960 . S
C2024 H2011 0.960 . S
C2024 C2023 1.524 . S
C2025 C2022 1.403 . S
C2025 C2026 1.392 . S
C2025 C2029 1.495 . S
C2026 C2025 1.392 . S
C2026 C2027 1.385 . S
C2026 C2028 1.478 . S
C2027 H2021 0.930 . S
C2027 C2023 1.400 . S
C2027 C2026 1.385 . S
C2028 C2026 1.478 . S
C2028 C2030 1.381 . S
C2028 C2034 1.383 . S
C2029 C2025 1.495 . S
C2029 H2035 0.959 . S
C2029 H2036 0.961 . S
C2029 H2037 0.945 1_455 S
C2030 C2028 1.381 . S
C2030 C2031 1.394 . S
C2030 H2038 0.930 1_455 S
C2031 C2030 1.394 . S
C2031 C2032 1.383 . S
C2031 H2039 0.929 1_455 S
C2032 C2031 1.383 . S
C2032 C2033 1.377 . S
C2033 H2017 0.930 . S
C2033 C2032 1.377 . S
C2033 C2034 1.379 . S
C2034 H2018 0.931 . S
C2034 C2028 1.383 . S
C2034 C2033 1.379 . S
H2035 C2029 0.959 . S
H2036 C2029 0.961 . S
H2037 C2029 0.945 1_655 S
H2038 C2030 0.930 1_655 S
H2039 C2031 0.929 1_655 S
H2040 C2048 0.929 . S
H2041 C2050 0.930 . S
H2042 C2052 0.930 . S
H2043 C2055 0.929 . S
H2044 C2058 0.930 . S
H2045 C2060 0.960 . S
H2046 C2060 0.960 . S
H2047 C2060 0.960 . S
C2048 H2040 0.929 . S
C2048 C2049 1.377 . S
C2048 C2050 1.384 . S
C2049 C2048 1.377 . S
C2049 C2055 1.390 . S
C2050 H2041 0.930 . S
C2050 C2048 1.384 . S
C2050 C2051 1.372 . S
C2051 C2050 1.372 . S
C2051 C2052 1.400 . S
C2051 C2056 1.490 . S
C2052 H2042 0.930 . S
C2052 C2051 1.400 . S
C2052 C2055 1.386 . S
H2053 C2069 0.930 . S
H2054 C2070 0.931 . S
C2055 H2043 0.929 . S
C2055 C2049 1.390 . S
C2055 C2052 1.386 . S
C2056 C2051 1.490 . S
C2056 C2058 1.395 . S
C2056 C2059 1.403 . S
H2057 C2063 0.930 . S
C2058 H2044 0.930 . S
C2058 C2056 1.395 . S
C2058 C2061 1.403 . S
C2059 C2056 1.403 . S
C2059 C2060 1.524 . S
C2059 C2063 1.400 . S
C2060 H2045 0.960 . S
C2060 H2046 0.960 . S
C2060 H2047 0.960 . S
C2060 C2059 1.524 . S
C2061 C2058 1.403 . S
C2061 C2062 1.392 . S
C2061 C2065 1.495 . S
C2062 C2061 1.392 . S
C2062 C2063 1.385 . S
C2062 C2064 1.478 . S
C2063 H2057 0.930 . S
C2063 C2059 1.400 . S
C2063 C2062 1.385 . S
C2064 C2062 1.478 . S
C2064 C2066 1.381 . S
C2064 C2070 1.383 . S
C2065 C2061 1.495 . S
C2065 H2071 0.959 . S
C2065 H2072 0.961 . S
C2065 H2073 0.960 . S
C2066 C2064 1.381 . S
C2066 C2067 1.394 . S
C2066 H2074 0.930 . S
C2067 C2066 1.394 . S
C2067 C2068 1.383 . S
C2067 H2075 0.929 . S
C2068 C2067 1.383 . S
C2068 C2069 1.377 . S
C2069 H2053 0.930 . S
C2069 C2068 1.377 . S
C2069 C2070 1.379 . S
C2070 H2054 0.931 . S
C2070 C2064 1.383 . S
C2070 C2069 1.379 . S
H2071 C2065 0.959 . S
H2072 C2065 0.961 . S
H2073 C2065 0.960 . S
H2074 C2066 0.930 . S
H2075 C2067 0.929 . S
H2076 C2084 0.929 . S
H2077 C2086 0.930 . S
H2078 C2088 0.930 . S
H2079 C2091 0.929 . S
H2080 C2094 0.930 . S
H2081 C2096 0.960 . S
H2082 C2096 0.960 . S
H2083 C2096 0.960 . S
C2084 H2076 0.929 . S
C2084 C2085 1.377 . S
C2084 C2086 1.384 . S
C2085 C2084 1.377 . S
C2085 C2091 1.390 . S
C2086 H2077 0.930 . S
C2086 C2084 1.384 . S
C2086 C2087 1.372 . S
C2087 C2086 1.372 . S
C2087 C2088 1.400 . S
C2087 C2092 1.490 . S
C2088 H2078 0.930 . S
C2088 C2087 1.400 . S
C2088 C2091 1.386 . S
H2089 C2105 0.930 . S
H2090 C2106 0.931 . S
C2091 H2079 0.929 . S
C2091 C2085 1.390 . S
C2091 C2088 1.386 . S
C2092 C2087 1.490 . S
C2092 C2094 1.395 . S
C2092 C2095 1.403 . S
H2093 C2099 0.930 . S
C2094 H2080 0.930 . S
C2094 C2092 1.395 . S
C2094 C2097 1.403 . S
C2095 C2092 1.403 . S
C2095 C2096 1.524 . S
C2095 C2099 1.400 . S
C2096 H2081 0.960 . S
C2096 H2082 0.960 . S
C2096 H2083 0.960 . S
C2096 C2095 1.524 . S
C2097 C2094 1.403 . S
C2097 C2098 1.392 . S
C2097 C2101 1.495 . S
C2098 C2097 1.392 . S
C2098 C2099 1.385 . S
C2098 C2100 1.478 . S
C2099 H2093 0.930 . S
C2099 C2095 1.400 . S
C2099 C2098 1.385 . S
C2100 C2098 1.478 . S
C2100 C2102 1.381 . S
C2100 C2106 1.383 . S
C2101 C2097 1.495 . S
C2101 H2107 0.959 . S
C2101 H2108 0.961 . S
C2101 H2109 0.960 . S
C2102 C2100 1.381 . S
C2102 C2103 1.394 . S
C2102 H2110 0.930 . S
C2103 C2102 1.394 . S
C2103 C2104 1.383 . S
C2103 H2111 0.929 . S
C2104 C2103 1.383 . S
C2104 C2105 1.377 . S
C2105 H2089 0.930 . S
C2105 C2104 1.377 . S
C2105 C2106 1.379 . S
C2106 H2090 0.931 . S
C2106 C2100 1.383 . S
C2106 C2105 1.379 . S
H2107 C2101 0.959 . S
H2108 C2101 0.961 . S
H2109 C2101 0.960 . S
H2110 C2102 0.930 . S
H2111 C2103 0.929 . S
H2112 C2120 0.929 . S
H2113 C2122 0.930 . S
H2114 C2124 0.930 . S
H2115 C2127 0.929 . S
H2116 C2130 0.930 . S
H2117 C2132 0.960 . S
H2118 C2132 0.960 . S
H2119 C2132 0.960 . S
C2120 H2112 0.929 . S
C2120 C2121 1.377 . S
C2120 C2122 1.384 . S
C2121 C2120 1.377 . S
C2121 C2127 1.390 . S
C2122 H2113 0.930 . S
C2122 C2120 1.384 . S
C2122 C2123 1.372 . S
C2123 C2122 1.372 . S
C2123 C2124 1.400 . S
C2123 C2128 1.490 . S
C2124 H2114 0.930 . S
C2124 C2123 1.400 . S
C2124 C2127 1.386 . S
H2125 C2141 0.930 . S
H2126 C2142 0.931 . S
C2127 H2115 0.929 . S
C2127 C2121 1.390 . S
C2127 C2124 1.386 . S
C2128 C2123 1.490 . S
C2128 C2130 1.395 . S
C2128 C2131 1.403 . S
H2129 C2135 0.930 . S
C2130 H2116 0.930 . S
C2130 C2128 1.395 . S
C2130 C2133 1.403 . S
C2131 C2128 1.403 . S
C2131 C2132 1.524 . S
C2131 C2135 1.400 . S
C2132 H2117 0.960 . S
C2132 H2118 0.960 . S
C2132 H2119 0.960 . S
C2132 C2131 1.524 . S
C2133 C2130 1.403 . S
C2133 C2134 1.392 . S
C2133 C2137 1.495 . S
C2134 C2133 1.392 . S
C2134 C2135 1.385 . S
C2134 C2136 1.478 . S
C2135 H2129 0.930 . S
C2135 C2131 1.400 . S
C2135 C2134 1.385 . S
C2136 C2134 1.478 . S
C2136 C2138 1.381 . S
C2136 C2142 1.383 . S
C2137 C2133 1.495 . S
C2137 H2143 0.959 . S
C2137 H2144 0.961 . S
C2137 H2145 0.960 . S
C2138 C2136 1.381 . S
C2138 C2139 1.394 . S
C2138 H2146 0.930 . S
C2139 C2138 1.394 . S
C2139 C2140 1.383 . S
C2139 H2147 0.929 . S
C2140 C2139 1.383 . S
C2140 C2141 1.377 . S
C2141 H2125 0.930 . S
C2141 C2140 1.377 . S
C2141 C2142 1.379 . S
C2142 H2126 0.931 . S
C2142 C2136 1.383 . S
C2142 C2141 1.379 . S
H2143 C2137 0.959 . S
H2144 C2137 0.961 . S
H2145 C2137 0.960 . S
H2146 C2138 0.930 . S
H2147 C2139 0.929 . S
H2148 C2156 0.929 . S
H2149 C2158 0.930 . S
H2150 C2160 0.930 . S
H2151 C2163 0.929 . S
H2152 C2166 0.930 . S
H2153 C2168 0.960 . S
H2154 C2168 0.960 . S
H2155 C2168 0.960 . S
C2156 H2148 0.929 . S
C2156 C2157 1.377 . S
C2156 C2158 1.384 . S
C2157 C2156 1.377 . S
C2157 C2163 1.390 . S
C2158 H2149 0.930 . S
C2158 C2156 1.384 . S
C2158 C2159 1.372 . S
C2159 C2158 1.372 . S
C2159 C2160 1.400 . S
C2159 C2164 1.490 . S
C2160 H2150 0.930 . S
C2160 C2159 1.400 . S
C2160 C2163 1.386 . S
H2161 C2177 0.930 . S
H2162 C2178 0.931 . S
C2163 H2151 0.929 . S
C2163 C2157 1.390 . S
C2163 C2160 1.386 . S
C2164 C2159 1.490 . S
C2164 C2166 1.395 . S
C2164 C2167 1.403 . S
H2165 C2171 0.930 . S
C2166 H2152 0.930 . S
C2166 C2164 1.395 . S
C2166 C2169 1.403 . S
C2167 C2164 1.403 . S
C2167 C2168 1.524 . S
C2167 C2171 1.400 . S
C2168 H2153 0.960 . S
C2168 H2154 0.960 . S
C2168 H2155 0.960 . S
C2168 C2167 1.524 . S
C2169 C2166 1.403 . S
C2169 C2170 1.392 . S
C2169 C2173 1.495 . S
C2170 C2169 1.392 . S
C2170 C2171 1.385 . S
C2170 C2172 1.478 . S
C2171 H2165 0.930 . S
C2171 C2167 1.400 . S
C2171 C2170 1.385 . S
C2172 C2170 1.478 . S
C2172 C2174 1.381 . S
C2172 C2178 1.383 . S
C2173 C2169 1.495 . S
C2173 H2179 0.959 . S
C2173 H2180 0.961 . S
C2173 H2181 0.960 . S
C2174 C2172 1.381 . S
C2174 C2175 1.394 . S
C2174 H2182 0.930 . S
C2175 C2174 1.394 . S
C2175 C2176 1.383 . S
C2175 H2183 0.929 . S
C2176 C2175 1.383 . S
C2176 C2177 1.377 . S
C2177 H2161 0.930 . S
C2177 C2176 1.377 . S
C2177 C2178 1.379 . S
C2178 H2162 0.931 . S
C2178 C2172 1.383 . S
C2178 C2177 1.379 . S
H2179 C2173 0.959 . S
H2180 C2173 0.961 . S
H2181 C2173 0.960 . S
H2182 C2174 0.930 . S
H2183 C2175 0.929 . S
H2184 C2192 0.929 . S
H2185 C2194 0.930 . S
H2186 C2196 0.930 . S
H2187 C2199 0.929 . S
H2188 C2202 0.930 . S
H2189 C2204 0.960 . S
H2190 C2204 0.960 . S
H2191 C2204 0.960 . S
C2192 H2184 0.929 . S
C2192 C2193 1.377 . S
C2192 C2194 1.384 . S
C2193 C2192 1.377 . S
C2193 C2199 1.390 . S
C2194 H2185 0.930 . S
C2194 C2192 1.384 . S
C2194 C2195 1.372 . S
C2195 C2194 1.372 . S
C2195 C2196 1.400 . S
C2195 C2200 1.490 . S
C2196 H2186 0.930 . S
C2196 C2195 1.400 . S
C2196 C2199 1.386 . S
H2197 C2213 0.930 . S
H2198 C2214 0.931 . S
C2199 H2187 0.929 . S
C2199 C2193 1.390 . S
C2199 C2196 1.386 . S
C2200 C2195 1.490 . S
C2200 C2202 1.395 . S
C2200 C2203 1.403 . S
H2201 C2207 0.930 . S
C2202 H2188 0.930 . S
C2202 C2200 1.395 . S
C2202 C2205 1.403 . S
C2203 C2200 1.403 . S
C2203 C2204 1.524 . S
C2203 C2207 1.400 . S
C2204 H2189 0.960 . S
C2204 H2190 0.960 . S
C2204 H2191 0.960 . S
C2204 C2203 1.524 . S
C2205 C2202 1.403 . S
C2205 C2206 1.392 . S
C2205 C2209 1.495 . S
C2206 C2205 1.392 . S
C2206 C2207 1.385 . S
C2206 C2208 1.478 . S
C2207 H2201 0.930 . S
C2207 C2203 1.400 . S
C2207 C2206 1.385 . S
C2208 C2206 1.478 . S
C2208 C2210 1.381 . S
C2208 C2214 1.383 . S
C2209 C2205 1.495 . S
C2209 H2215 0.959 . S
C2209 H2216 0.961 . S
C2209 H2217 0.960 . S
C2210 C2208 1.381 . S
C2210 C2211 1.394 . S
C2210 H2218 0.930 . S
C2211 C2210 1.394 . S
C2211 C2212 1.383 . S
C2211 H2219 0.929 . S
C2212 C2211 1.383 . S
C2212 C2213 1.377 . S
C2213 H2197 0.930 . S
C2213 C2212 1.377 . S
C2213 C2214 1.379 . S
C2214 H2198 0.931 . S
C2214 C2208 1.383 . S
C2214 C2213 1.379 . S
H2215 C2209 0.959 . S
H2216 C2209 0.961 . S
H2217 C2209 0.960 . S
H2218 C2210 0.930 . S
H2219 C2211 0.929 . S
H2220 C2228 0.929 . S
H2221 C2230 0.930 . S
H2222 C2232 0.930 . S
H2223 C2235 0.929 . S
H2224 C2238 0.930 . S
H2225 C2240 0.960 . S
H2226 C2240 0.960 . S
H2227 C2240 0.960 . S
C2228 H2220 0.929 . S
C2228 C2229 1.377 . S
C2228 C2230 1.384 . S
C2229 C2228 1.377 . S
C2229 C2235 1.390 . S
C2230 H2221 0.930 . S
C2230 C2228 1.384 . S
C2230 C2231 1.372 . S
C2231 C2230 1.372 . S
C2231 C2232 1.400 . S
C2231 C2236 1.490 . S
C2232 H2222 0.930 . S
C2232 C2231 1.400 . S
C2232 C2235 1.386 . S
H2233 C2249 0.930 . S
H2234 C2250 0.931 . S
C2235 H2223 0.929 . S
C2235 C2229 1.390 . S
C2235 C2232 1.386 . S
C2236 C2231 1.490 . S
C2236 C2238 1.395 . S
C2236 C2239 1.403 . S
H2237 C2243 0.930 . S
C2238 H2224 0.930 . S
C2238 C2236 1.395 . S
C2238 C2241 1.403 . S
C2239 C2236 1.403 . S
C2239 C2240 1.524 . S
C2239 C2243 1.400 . S
C2240 H2225 0.960 . S
C2240 H2226 0.960 . S
C2240 H2227 0.960 . S
C2240 C2239 1.524 . S
C2241 C2238 1.403 . S
C2241 C2242 1.392 . S
C2241 C2245 1.495 . S
C2242 C2241 1.392 . S
C2242 C2243 1.385 . S
C2242 C2244 1.478 . S
C2243 H2237 0.930 . S
C2243 C2239 1.400 . S
C2243 C2242 1.385 . S
C2244 C2242 1.478 . S
C2244 C2246 1.381 . S
C2244 C2250 1.383 . S
C2245 C2241 1.495 . S
C2245 H2251 0.959 . S
C2245 H2252 0.961 . S
C2245 H2253 0.960 . S
C2246 C2244 1.381 . S
C2246 C2247 1.394 . S
C2246 H2254 0.930 . S
C2247 C2246 1.394 . S
C2247 C2248 1.383 . S
C2247 H2255 0.929 . S
C2248 C2247 1.383 . S
C2248 C2249 1.377 . S
C2249 H2233 0.930 . S
C2249 C2248 1.377 . S
C2249 C2250 1.379 . S
C2250 H2234 0.931 . S
C2250 C2244 1.383 . S
C2250 C2249 1.379 . S
H2251 C2245 0.959 . S
H2252 C2245 0.961 . S
H2253 C2245 0.960 . S
H2254 C2246 0.930 . S
H2255 C2247 0.929 . S
H2256 C2264 0.929 . S
H2257 C2266 0.930 . S
H2258 C2268 0.930 . S
H2259 C2271 0.929 . S
H2260 C2274 0.930 . S
H2261 C2276 0.960 . S
H2262 C2276 0.960 . S
H2263 C2276 0.960 . S
C2264 H2256 0.929 . S
C2264 C2265 1.377 . S
C2264 C2266 1.384 . S
C2265 C2264 1.377 . S
C2265 C2271 1.390 . S
C2266 H2257 0.930 . S
C2266 C2264 1.384 . S
C2266 C2267 1.372 . S
C2267 C2266 1.372 . S
C2267 C2268 1.400 . S
C2267 C2272 1.490 . S
C2268 H2258 0.930 . S
C2268 C2267 1.400 . S
C2268 C2271 1.386 . S
H2269 C2285 0.930 . S
H2270 C2286 0.931 . S
C2271 H2259 0.929 . S
C2271 C2265 1.390 . S
C2271 C2268 1.386 . S
C2272 C2267 1.490 . S
C2272 C2274 1.395 . S
C2272 C2275 1.403 . S
H2273 C2279 0.930 . S
C2274 H2260 0.930 . S
C2274 C2272 1.395 . S
C2274 C2277 1.403 . S
C2275 C2272 1.403 . S
C2275 C2276 1.524 . S
C2275 C2279 1.400 . S
C2276 H2261 0.960 . S
C2276 H2262 0.960 . S
C2276 H2263 0.960 . S
C2276 C2275 1.524 . S
C2277 C2274 1.403 . S
C2277 C2278 1.392 . S
C2277 C2281 1.495 . S
C2278 C2277 1.392 . S
C2278 C2279 1.385 . S
C2278 C2280 1.478 . S
C2279 H2273 0.930 . S
C2279 C2275 1.400 . S
C2279 C2278 1.385 . S
C2280 C2278 1.478 . S
C2280 C2282 1.381 . S
C2280 C2286 1.383 . S
C2281 C2277 1.495 . S
C2281 H2287 0.959 . S
C2281 H2288 0.961 . S
C2281 H2289 0.960 . S
C2282 C2280 1.381 . S
C2282 C2283 1.394 . S
C2282 H2290 0.930 . S
C2283 C2282 1.394 . S
C2283 C2284 1.383 . S
C2283 H2291 0.929 . S
C2284 C2283 1.383 . S
C2284 C2285 1.377 . S
C2285 H2269 0.930 . S
C2285 C2284 1.377 . S
C2285 C2286 1.379 . S
C2286 H2270 0.931 . S
C2286 C2280 1.383 . S
C2286 C2285 1.379 . S
H2287 C2281 0.959 . S
H2288 C2281 0.961 . S
H2289 C2281 0.960 . S
H2290 C2282 0.930 . S
H2291 C2283 0.929 . S
H2292 C2300 0.929 . S
H2293 C2302 0.930 . S
H2294 C2304 0.930 . S
H2295 C2307 0.929 . S
H2296 C2310 0.930 . S
H2297 C2312 0.960 . S
H2298 C2312 0.960 . S
H2299 C2312 0.960 . S
C2300 H2292 0.929 . S
C2300 C2301 1.377 . S
C2300 C2302 1.384 . S
C2301 C2300 1.377 . S
C2301 C2307 1.390 . S
C2302 H2293 0.930 . S
C2302 C2300 1.384 . S
C2302 C2303 1.372 . S
C2303 C2302 1.372 . S
C2303 C2304 1.400 . S
C2303 C2308 1.490 . S
C2304 H2294 0.930 . S
C2304 C2303 1.400 . S
C2304 C2307 1.386 . S
H2305 C2321 0.930 . S
H2306 C2322 0.931 . S
C2307 H2295 0.929 . S
C2307 C2301 1.390 . S
C2307 C2304 1.386 . S
C2308 C2303 1.490 . S
C2308 C2310 1.395 . S
C2308 C2311 1.403 . S
H2309 C2315 0.930 . S
C2310 H2296 0.930 . S
C2310 C2308 1.395 . S
C2310 C2313 1.403 . S
C2311 C2308 1.403 . S
C2311 C2312 1.524 . S
C2311 C2315 1.400 . S
C2312 H2297 0.960 . S
C2312 H2298 0.960 . S
C2312 H2299 0.960 . S
C2312 C2311 1.524 . S
C2313 C2310 1.403 . S
C2313 C2314 1.392 . S
C2313 C2317 1.495 . S
C2314 C2313 1.392 . S
C2314 C2315 1.385 . S
C2314 C2316 1.478 . S
C2315 H2309 0.930 . S
C2315 C2311 1.400 . S
C2315 C2314 1.385 . S
C2316 C2314 1.478 . S
C2316 C2318 1.381 . S
C2316 C2322 1.383 . S
C2317 C2313 1.495 . S
C2317 H2323 0.959 . S
C2317 H2324 0.961 . S
C2317 H2325 0.960 . S
C2318 C2316 1.381 . S
C2318 C2319 1.394 . S
C2318 H2326 0.930 . S
C2319 C2318 1.394 . S
C2319 C2320 1.383 . S
C2319 H2327 0.929 . S
C2320 C2319 1.383 . S
C2320 C2321 1.377 . S
C2321 H2305 0.930 . S
C2321 C2320 1.377 . S
C2321 C2322 1.379 . S
C2322 H2306 0.931 . S
C2322 C2316 1.383 . S
C2322 C2321 1.379 . S
H2323 C2317 0.959 . S
H2324 C2317 0.961 . S
H2325 C2317 0.960 . S
H2326 C2318 0.930 . S
H2327 C2319 0.929 . S
H2328 C2336 0.929 1_554 S
H2329 C2338 0.930 1_554 S
H2330 C2340 0.930 . S
H2331 C2343 0.929 . S
H2332 C2346 0.908 1_554 S
H2333 C2348 0.960 . S
H2334 C2348 0.960 . S
H2335 C2348 0.960 . S
C2336 H2328 0.929 1_556 S
C2336 C2337 1.377 . S
C2336 C2338 1.384 . S
C2337 C2336 1.377 . S
C2337 C2343 1.390 . S
C2338 H2329 0.930 1_556 S
C2338 C2336 1.384 . S
C2338 C2339 1.372 . S
C2339 C2338 1.372 . S
C2339 C2340 1.400 . S
C2339 C2344 1.490 . S
C2340 H2330 0.930 . S
C2340 C2339 1.400 . S
C2340 C2343 1.386 . S
H2341 C2357 0.930 . S
H2342 C2358 0.931 . S
C2343 H2331 0.929 . S
C2343 C2337 1.390 . S
C2343 C2340 1.386 . S
C2344 C2339 1.490 . S
C2344 C2346 1.424 . S
C2344 C2347 1.403 . S
H2345 C2351 0.930 . S
C2346 H2332 0.908 1_556 S
C2346 C2344 1.424 . S
C2346 C2349 1.397 1_556 S
C2347 C2344 1.403 . S
C2347 C2348 1.524 . S
C2347 C2351 1.400 . S
C2348 H2333 0.960 . S
C2348 H2334 0.960 . S
C2348 H2335 0.960 . S
C2348 C2347 1.524 . S
C2349 C2346 1.397 1_554 S
C2349 C2350 1.392 1_554 S
C2349 C2353 1.495 . S
C2350 C2349 1.392 1_556 S
C2350 C2351 1.385 . S
C2350 C2352 1.478 . S
C2351 H2345 0.930 . S
C2351 C2347 1.400 . S
C2351 C2350 1.385 . S
C2352 C2350 1.478 . S
C2352 C2354 1.381 1_556 S
C2352 C2358 1.383 . S
C2353 C2349 1.495 . S
C2353 H2359 0.959 . S
C2353 H2360 0.961 . S
C2353 H2361 0.960 . S
C2354 C2352 1.381 1_554 S
C2354 C2355 1.394 . S
C2354 H2362 0.930 . S
C2355 C2354 1.394 . S
C2355 C2356 1.377 1_554 S
C2355 H2363 0.929 . S
C2356 C2355 1.377 1_556 S
C2356 C2357 1.383 . S
C2357 H2341 0.930 . S
C2357 C2356 1.383 . S
C2357 C2358 1.379 . S
C2358 H2342 0.931 . S
C2358 C2352 1.383 . S
C2358 C2357 1.379 . S
H2359 C2353 0.959 . S
H2360 C2353 0.961 . S
H2361 C2353 0.960 . S
H2362 C2354 0.930 . S
H2363 C2355 0.929 . S
H2364 C2372 0.929 . S
H2365 C2374 0.930 . S
H2366 C2376 0.930 . S
H2367 C2379 0.929 . S
H2368 C2382 0.930 . S
H2369 C2384 0.960 . S
H2370 C2384 0.960 . S
H2371 C2384 0.960 . S
C2372 H2364 0.929 . S
C2372 C2373 1.377 . S
C2372 C2374 1.384 . S
C2373 C2372 1.377 . S
C2373 C2379 1.390 . S
C2374 H2365 0.930 . S
C2374 C2372 1.384 . S
C2374 C2375 1.372 . S
C2375 C2374 1.372 . S
C2375 C2376 1.400 . S
C2375 C2380 1.490 . S
C2376 H2366 0.930 . S
C2376 C2375 1.400 . S
C2376 C2379 1.386 . S
H2377 C2393 0.930 . S
H2378 C2394 0.931 . S
C2379 H2367 0.929 . S
C2379 C2373 1.390 . S
C2379 C2376 1.386 . S
C2380 C2375 1.490 . S
C2380 C2382 1.395 . S
C2380 C2383 1.403 . S
H2381 C2387 0.930 . S
C2382 H2368 0.930 . S
C2382 C2380 1.395 . S
C2382 C2385 1.403 . S
C2383 C2380 1.403 . S
C2383 C2384 1.524 . S
C2383 C2387 1.400 . S
C2384 H2369 0.960 . S
C2384 H2370 0.960 . S
C2384 H2371 0.960 . S
C2384 C2383 1.524 . S
C2385 C2382 1.403 . S
C2385 C2386 1.392 . S
C2385 C2389 1.495 . S
C2386 C2385 1.392 . S
C2386 C2387 1.385 . S
C2386 C2388 1.478 . S
C2387 H2381 0.930 . S
C2387 C2383 1.400 . S
C2387 C2386 1.385 . S
C2388 C2386 1.478 . S
C2388 C2390 1.381 . S
C2388 C2394 1.383 . S
C2389 C2385 1.495 . S
C2389 H2395 0.959 . S
C2389 H2396 0.961 . S
C2389 H2397 0.960 . S
C2390 C2388 1.381 . S
C2390 C2391 1.394 . S
C2390 H2398 0.930 . S
C2391 C2390 1.394 . S
C2391 C2392 1.383 . S
C2391 H2399 0.929 . S
C2392 C2391 1.383 . S
C2392 C2393 1.377 . S
C2393 H2377 0.930 . S
C2393 C2392 1.377 . S
C2393 C2394 1.379 . S
C2394 H2378 0.931 . S
C2394 C2388 1.383 . S
C2394 C2393 1.379 . S
H2395 C2389 0.959 . S
H2396 C2389 0.961 . S
H2397 C2389 0.960 . S
H2398 C2390 0.930 . S
H2399 C2391 0.929 . S
H2400 C2408 0.929 . S
H2401 C2410 0.930 . S
H2402 C2412 0.930 . S
H2403 C2415 0.929 . S
H2404 C2418 0.930 . S
H2405 C2420 0.960 . S
H2406 C2420 0.960 . S
H2407 C2420 0.960 . S
C2408 H2400 0.929 . S
C2408 C2409 1.377 . S
C2408 C2410 1.384 . S
C2409 C2408 1.377 . S
C2409 C2415 1.390 . S
C2410 H2401 0.930 . S
C2410 C2408 1.384 . S
C2410 C2411 1.372 . S
C2411 C2410 1.372 . S
C2411 C2412 1.400 . S
C2411 C2416 1.490 . S
C2412 H2402 0.930 . S
C2412 C2411 1.400 . S
C2412 C2415 1.386 . S
H2413 C2429 0.930 . S
H2414 C2430 0.931 . S
C2415 H2403 0.929 . S
C2415 C2409 1.390 . S
C2415 C2412 1.386 . S
C2416 C2411 1.490 . S
C2416 C2418 1.395 . S
C2416 C2419 1.403 . S
H2417 C2423 0.930 . S
C2418 H2404 0.930 . S
C2418 C2416 1.395 . S
C2418 C2421 1.403 . S
C2419 C2416 1.403 . S
C2419 C2420 1.524 . S
C2419 C2423 1.400 . S
C2420 H2405 0.960 . S
C2420 H2406 0.960 . S
C2420 H2407 0.960 . S
C2420 C2419 1.524 . S
C2421 C2418 1.403 . S
C2421 C2422 1.392 . S
C2421 C2425 1.495 . S
C2422 C2421 1.392 . S
C2422 C2423 1.385 . S
C2422 C2424 1.478 . S
C2423 H2417 0.930 . S
C2423 C2419 1.400 . S
C2423 C2422 1.385 . S
C2424 C2422 1.478 . S
C2424 C2426 1.381 . S
C2424 C2430 1.383 . S
C2425 C2421 1.495 . S
C2425 H2431 0.959 . S
C2425 H2432 0.961 . S
C2425 H2433 0.960 . S
C2426 C2424 1.381 . S
C2426 C2427 1.394 . S
C2426 H2434 0.912 1_554 S
C2427 C2426 1.394 . S
C2427 C2428 1.383 . S
C2427 H2435 0.929 1_554 S
C2428 C2427 1.383 . S
C2428 C2429 1.377 . S
C2429 H2413 0.930 . S
C2429 C2428 1.377 . S
C2429 C2430 1.379 . S
C2430 H2414 0.931 . S
C2430 C2424 1.383 . S
C2430 C2429 1.379 . S
H2431 C2425 0.959 . S
H2432 C2425 0.961 . S
H2433 C2425 0.960 . S
H2434 C2426 0.912 1_556 S
H2435 C2427 0.929 1_556 S
H2436 C2444 0.929 . S
H2437 C2446 0.930 . S
H2438 C2448 0.937 . S
H2439 C2451 0.929 . S
H2440 C2454 0.930 . S
H2441 C2456 0.960 . S
H2442 C2456 0.960 . S
H2443 C2456 0.960 . S
C2444 H2436 0.929 . S
C2444 C2445 1.377 . S
C2444 C2446 1.384 . S
C2445 C2444 1.377 . S
C2445 C2451 1.390 . S
C2446 H2437 0.930 . S
C2446 C2444 1.384 . S
C2446 C2447 1.372 . S
C2447 C2446 1.372 . S
C2447 C2448 1.400 . S
C2447 C2452 1.490 . S
C2448 H2438 0.937 . S
C2448 C2447 1.400 . S
C2448 C2451 1.386 . S
H2449 C2465 0.930 . S
H2450 C2466 0.931 . S
C2451 H2439 0.929 . S
C2451 C2445 1.390 . S
C2451 C2448 1.386 . S
C2452 C2447 1.490 . S
C2452 C2454 1.395 . S
C2452 C2455 1.403 . S
H2453 C2459 0.930 . S
C2454 H2440 0.930 . S
C2454 C2452 1.395 . S
C2454 C2457 1.403 . S
C2455 C2452 1.403 . S
C2455 C2456 1.524 . S
C2455 C2459 1.400 . S
C2456 H2441 0.960 . S
C2456 H2442 0.960 . S
C2456 H2443 0.960 . S
C2456 C2455 1.524 . S
C2457 C2454 1.403 . S
C2457 C2458 1.392 . S
C2457 C2461 1.487 1_554 S
C2458 C2457 1.392 . S
C2458 C2459 1.385 . S
C2458 C2460 1.478 . S
C2459 H2453 0.930 . S
C2459 C2455 1.400 . S
C2459 C2458 1.385 . S
C2460 C2458 1.478 . S
C2460 C2462 1.381 . S
C2460 C2466 1.383 1_554 S
C2461 C2457 1.487 1_556 S
C2461 H2467 0.962 . S
C2461 H2468 0.981 . S
C2461 H2469 0.945 1_556 S
C2462 C2460 1.381 . S
C2462 C2463 1.394 . S
C2462 H2470 0.930 . S
C2463 C2462 1.394 . S
C2463 C2464 1.383 . S
C2463 H2471 0.929 . S
C2464 C2463 1.383 . S
C2464 C2465 1.377 1_554 S
C2465 H2449 0.930 . S
C2465 C2464 1.377 1_556 S
C2465 C2466 1.379 . S
C2466 H2450 0.931 . S
C2466 C2460 1.383 1_556 S
C2466 C2465 1.379 . S
H2467 C2461 0.962 . S
H2468 C2461 0.981 . S
H2469 C2461 0.945 1_554 S
H2470 C2462 0.930 . S
H2471 C2463 0.929 . S
C772 C587 1.411 . S
C753 C181 1.439 . S
C808 C595 1.340 . S
C789 C247 1.548 . S
C825 C283 1.426 . S
C844 C615 1.416 . S
C880 C629 1.507 . S
C861 C169 1.522 1_655 S
C916 C644 1.534 . S
C897 C361 1.535 . S
C952 C658 1.509 . S
C933 C433 1.503 . S
C969 C421 1.565 . S
C988 C672 1.569 . S
C1024 C678 1.457 . S
C1005 C355 1.491 . S
C1041 C427 1.534 . S
C1060 C692 1.477 . S
C1096 C713 1.525 . S
C1077 C325 1.568 . S
C1113 C385 1.453 . S
C1132 C693 1.249 . S
C1168 C714 1.543 . S
C1149 C463 1.534 . S
C1185 C253 1.481 . S
C1204 C721 1.181 . S
C1221 C145 1.510 . S
C1240 C727 1.493 . S
C1257 C205 1.481 . S
C1276 C720 1.426 . S
C1293 C217 1.465 . S
C1312 C728 1.463 . S
C1329 C139 1.505 . S
C1348 C622 1.442 . S
C1365 C535 1.481 . S
C1384 C623 1.293 . S
C1420 C580 1.523 . S
C1401 C565 1.548 . S
C1456 C601 1.428 . S
C1437 C313 1.444 . S
C1473 C175 1.501 . S
C1492 C636 1.485 . S
C1528 C686 1.527 . S
C1509 C397 1.522 . S
C1564 C637 1.169 . S
C1545 C349 1.440 . S
C1600 C665 1.241 . S
C1581 C457 1.553 . S
C1636 C671 1.438 . S
C1617 C505 1.442 . S
C1653 C571 1.548 . S
C1672 C679 1.232 . S
C1689 C319 1.423 . S
C1708 C643 1.391 . S
C1744 C657 1.511 . S
C1725 C493 1.519 . S
C1761 C109 1.535 . S
C1780 C616 1.535 . S
C1816 C630 1.508 . S
C1797 C1 1.499 . S
C1852 C588 1.567 . S
C1833 C61 1.566 . S
C1888 C594 1.429 . S
C1869 C103 1.492 . S
C1905 C67 1.532 . S
C1924 C706 1.501 . S
C1941 C73 1.568 1_556 S
C1960 C699 1.544 . S
C1977 C133 1.451 . S
C1996 C707 1.208 . S
C2013 C31 1.536 . S
C2032 C700 1.543 . S
C2068 C735 1.288 . S
C2049 C289 1.478 . S
C2104 C741 1.485 . S
C2085 C469 1.510 . S
C2140 C734 1.464 . S
C2121 C529 1.482 . S
C2157 C541 1.466 . S
C2176 C742 1.464 . S
C2193 C391 1.503 . S
C2212 C650 1.487 . S
C2248 C651 1.190 . S
C2229 C211 1.484 . S
C2284 C664 1.490 . S
C2265 C241 1.548 . S
C2320 C685 1.442 . S
C2301 C277 1.448 . S
C2337 C499 1.502 . S
C2356 C608 1.482 1_556 S
C2392 C602 1.527 . S
C2373 C37 1.527 . S
C2409 C97 1.439 . S
C2428 C609 1.258 . S
C2464 C581 1.249 . S
C2445 C25 1.555 . S
