# Generated by pormake.
# Topology zzz, (3,6)-cn, num edge types: 1
# Building blocks:
#     Node 0, Type 0, BuildingBlock: QEWDON_clean_linker_0, # of connection points: 3
#     Node 1, Type 0, BuildingBlock: QEWDON_clean_linker_0, # of connection points: 3
#     Node 2, Type 0, BuildingBlock: QEWDON_clean_linker_0, # of connection points: 3
#     Node 3, Type 0, BuildingBlock: QEWDON_clean_linker_0, # of connection points: 3
#     Node 4, Type 0, BuildingBlock: QEWDON_clean_linker_0, # of connection points: 3
#     Node 5, Type 0, BuildingBlock: QEWDON_clean_linker_0, # of connection points: 3
#     Node 6, Type 0, BuildingBlock: QEWDON_clean_linker_0, # of connection points: 3
#     Node 7, Type 0, BuildingBlock: QEWDON_clean_linker_0, # of connection points: 3
#     Node 8, Type 1, BuildingBlock: BETDIP_clean_sbu_0, # of connection points: 6
#     Node 9, Type 1, BuildingBlock: BETDIP_clean_sbu_0, # of connection points: 6
#     Node 10, Type 1, BuildingBlock: BETDIP_clean_sbu_0, # of connection points: 6
#     Node 11, Type 1, BuildingBlock: BETDIP_clean_sbu_0, # of connection points: 6
#     Edge 12, Type (0, 1), BuildingBlock: ZUJKAS_clean_linker_0, # of connection points: 2
#     Edge 13, Type (0, 1), BuildingBlock: ZUJKAS_clean_linker_0, # of connection points: 2
#     Edge 14, Type (0, 1), BuildingBlock: ZUJKAS_clean_linker_0, # of connection points: 2
#     Edge 15, Type (0, 1), BuildingBlock: ZUJKAS_clean_linker_0, # of connection points: 2
#     Edge 16, Type (0, 1), BuildingBlock: ZUJKAS_clean_linker_0, # of connection points: 2
#     Edge 17, Type (0, 1), BuildingBlock: ZUJKAS_clean_linker_0, # of connection points: 2
#     Edge 18, Type (0, 1), BuildingBlock: ZUJKAS_clean_linker_0, # of connection points: 2
#     Edge 19, Type (0, 1), BuildingBlock: ZUJKAS_clean_linker_0, # of connection points: 2
#     Edge 20, Type (0, 1), BuildingBlock: ZUJKAS_clean_linker_0, # of connection points: 2
#     Edge 21, Type (0, 1), BuildingBlock: ZUJKAS_clean_linker_0, # of connection points: 2
#     Edge 22, Type (0, 1), BuildingBlock: ZUJKAS_clean_linker_0, # of connection points: 2
#     Edge 23, Type (0, 1), BuildingBlock: ZUJKAS_clean_linker_0, # of connection points: 2
#     Edge 24, Type (0, 1), BuildingBlock: ZUJKAS_clean_linker_0, # of connection points: 2
#     Edge 25, Type (0, 1), BuildingBlock: ZUJKAS_clean_linker_0, # of connection points: 2
#     Edge 26, Type (0, 1), BuildingBlock: ZUJKAS_clean_linker_0, # of connection points: 2
#     Edge 27, Type (0, 1), BuildingBlock: ZUJKAS_clean_linker_0, # of connection points: 2
#     Edge 28, Type (0, 1), BuildingBlock: ZUJKAS_clean_linker_0, # of connection points: 2
#     Edge 29, Type (0, 1), BuildingBlock: ZUJKAS_clean_linker_0, # of connection points: 2
#     Edge 30, Type (0, 1), BuildingBlock: ZUJKAS_clean_linker_0, # of connection points: 2
#     Edge 31, Type (0, 1), BuildingBlock: ZUJKAS_clean_linker_0, # of connection points: 2
#     Edge 32, Type (0, 1), BuildingBlock: ZUJKAS_clean_linker_0, # of connection points: 2
#     Edge 33, Type (0, 1), BuildingBlock: ZUJKAS_clean_linker_0, # of connection points: 2
#     Edge 34, Type (0, 1), BuildingBlock: ZUJKAS_clean_linker_0, # of connection points: 2
#     Edge 35, Type (0, 1), BuildingBlock: ZUJKAS_clean_linker_0, # of connection points: 2
# Relax obj value: 0.132
# Max RMSD: 0.138
# Mean RMSD: 0.106
data_MOF--net-zzz--node1-BETDIP_clean_sbu_0--node2-QEWDON_clean_linker_0--edge1-ZUJKAS_clean_linker_0
_symmetry_space_group_name_H-M    P1
_symmetry_Int_Tables_number       1
_symmetry_cell_setting            triclinic
loop_
_symmetry_equiv_pos_as_xyz
'x, y, z'
_cell_length_a     72.09369
_cell_length_b     72.069029
_cell_length_c     16.628389
_cell_angle_alpha  90.108707
_cell_angle_beta   90.112188
_cell_angle_gamma 90.029364
loop_
_atom_site_label
_atom_site_type_symbol
_atom_site_fract_x
_atom_site_fract_y
_atom_site_fract_z
_atom_type_partial_charge
H0 H 0.75115 0.49773 0.17819 0.0
C1 C 0.76215 0.50123 0.21982 0.0
C2 C 0.78042 0.49908 0.19355 0.0
C3 C 0.75819 0.50756 0.29828 0.0
H4 H 0.80924 0.50112 0.22518 0.0
C5 C 0.79511 0.50272 0.24642 0.0
C6 C 0.792 0.50907 0.3249 0.0
C7 C 0.77345 0.51145 0.35078 0.0
C8 C 0.73822 0.50972 0.32434 0.0
H9 H 0.77108 0.51687 0.41059 0.0
C10 C 0.72357 0.51258 0.26787 0.0
C11 C 0.70475 0.51291 0.29218 0.0
C12 C 0.73347 0.50797 0.40604 0.0
H13 H 0.74387 0.50528 0.45144 0.0
C14 C 0.71503 0.50912 0.43077 0.0
H15 H 0.72661 0.51424 0.2047 0.0
C16 C 0.70082 0.51149 0.37473 0.0
H17 H 0.68668 0.51221 0.39636 0.0
H18 H 0.71168 0.50784 0.49396 0.0
H19 H 1.01088 0.75673 0.12311 0.0
C20 C 1.0116 0.76702 0.17038 0.0
C21 C 0.01479 0.78542 0.14783 0.0
C22 C 1.00848 0.76221 0.25155 0.0
H23 H 0.01711 0.81366 0.18798 0.0
C24 C 0.01451 0.79944 0.20607 0.0
C25 C 1.01105 0.79552 0.28706 0.0
C26 C 1.00861 0.77679 0.31009 0.0
C27 C 1.00396 0.7423 0.27293 0.0
H28 H 1.00648 0.77383 0.37309 0.0
C29 C 1.00895 0.72716 0.22197 0.0
C30 C 1.00327 0.70879 0.23899 0.0
C31 C 0.99356 0.73827 0.34244 0.0
H32 H 0.98875 0.74911 0.38221 0.0
C33 C 0.9885 0.72008 0.36089 0.0
H34 H 0.01736 0.72939 0.16913 0.0
C35 C 0.9932 0.7055 0.30971 0.0
H36 H 0.98845 0.69166 0.32447 0.0
H37 H 0.98044 0.71732 0.41442 0.0
H38 H 0.77623 1.01003 0.15115 0.0
C39 C 0.76603 1.01125 0.19848 0.0
C40 C 0.74777 0.01533 0.17636 0.0
C41 C 0.7708 1.00795 0.27964 0.0
H42 H 0.71973 0.01919 0.217 0.0
C43 C 0.73389 0.01609 0.23483 0.0
C44 C 0.73785 1.01271 0.31564 0.0
C45 C 0.75633 1.00875 0.3383 0.0
C46 C 0.79056 1.00292 0.30125 0.0
H47 H 0.75926 1.00658 0.40137 0.0
C48 C 0.80587 1.0079 0.25147 0.0
C49 C 0.82415 1.00213 0.26988 0.0
C50 C 0.79428 0.99228 0.37044 0.0
H51 H 0.78325 0.9875 0.40916 0.0
C52 C 0.81235 0.98703 0.38998 0.0
H53 H 0.80382 0.01641 0.19874 0.0
C54 C 0.82713 0.99184 0.34032 0.0
H55 H 0.8409 0.98702 0.35606 0.0
H56 H 0.81487 0.97881 0.4433 0.0
H57 H 0.49219 0.77862 0.17883 0.0
C58 C 0.49649 0.76749 0.2182 0.0
C59 C 0.48875 0.74987 0.20582 0.0
C60 C 0.50921 0.77072 0.28148 0.0
H61 H 0.48769 0.72163 0.24731 0.0
C62 C 0.49334 0.73537 0.25809 0.0
C63 C 0.50577 0.7379 0.3217 0.0
C64 C 0.51409 0.75549 0.33206 0.0
C65 C 0.51668 0.79003 0.29611 0.0
H66 H 0.52416 0.75716 0.37985 0.0
C67 C 0.51781 0.80354 0.23376 0.0
C68 C 0.52399 0.82183 0.24971 0.0
C69 C 0.522 0.79545 0.37431 0.0
H70 H 0.52079 0.78609 0.42474 0.0
C71 C 0.52848 0.81334 0.3898 0.0
H72 H 0.51418 0.79995 0.17254 0.0
C73 C 0.52947 0.82641 0.32837 0.0
H74 H 0.53409 0.84032 0.34299 0.0
H75 H 0.53244 0.81721 0.45038 0.0
H76 H 0.2778 0.52023 0.22917 0.0
C77 C 0.26725 0.51924 0.18322 0.0
C78 C 0.2488 0.51911 0.20879 0.0
C79 C 0.2718 0.51868 0.10056 0.0
H80 H 0.22018 0.51875 0.17276 0.0
C81 C 0.23445 0.51902 0.15215 0.0
C82 C 0.2381 0.51856 0.06967 0.0
C83 C 0.25679 0.51781 0.04401 0.0
C84 C 0.29197 0.51982 0.0745 0.0
H85 H 0.25934 0.51678 0.98019 0.0
C86 C 0.30703 0.51641 0.12862 0.0
C87 C 0.32573 0.51927 0.10544 0.0
C88 C 0.29646 0.52544 0.99569 0.0
H89 H 0.28591 0.52892 0.95211 0.0
C90 C 0.31486 0.52727 0.97136 0.0
H91 H 0.30448 0.51191 0.18939 0.0
C92 C 0.32932 0.52428 0.02535 0.0
H93 H 0.3434 0.526 0.0041 0.0
H94 H 0.31793 0.53144 0.9103 0.0
H95 H 1.00756 0.27435 0.25069 0.0
C96 C 1.01105 0.26389 0.20648 0.0
C97 C 1.01144 0.24532 0.23079 0.0
C98 C 0.01476 0.2689 0.12615 0.0
H99 H 0.01453 0.21698 0.19237 0.0
C100 C 0.01502 0.23141 0.17398 0.0
C101 C 0.01825 0.23564 0.0931 0.0
C102 C 0.01819 0.25446 0.06926 0.0
C103 C 0.01423 0.28908 0.1026 0.0
H104 H 0.0211 0.25771 0.00705 0.0
C105 C 0.01832 0.30344 0.15886 0.0
C106 C 0.01649 0.32239 0.13816 0.0
C107 C 1.00872 0.29425 0.02456 0.0
H108 H 1.00495 0.28395 0.98006 0.0
C109 C 1.00735 0.31292 0.0032 0.0
H110 H 0.0231 0.30002 0.21872 0.0
C111 C 1.01108 0.32685 0.05928 0.0
H112 H 1.00927 0.34116 0.04123 0.0
H113 H 1.00296 0.31662 0.94304 0.0
H114 H 0.25569 1.00944 0.24116 0.0
C115 C 0.26599 1.01246 0.19584 0.0
C116 C 0.28456 0.01413 0.21997 0.0
C117 C 0.26082 0.0139 0.11425 0.0
H118 H 0.31274 0.01763 0.17957 0.0
C119 C 0.29827 0.01719 0.1617 0.0
C120 C 0.29385 0.01841 0.0799 0.0
C121 C 0.27508 0.01684 0.05626 0.0
C122 C 0.24082 1.01089 0.09054 0.0
H123 H 0.27173 0.01801 0.99302 0.0
C124 C 0.22592 0.01471 0.14435 0.0
C125 C 0.20745 1.00966 0.12513 0.0
C126 C 0.23651 1.00279 0.01567 0.0
H127 H 0.24726 0.99913 0.97325 0.0
C128 C 0.21822 0.99852 0.99519 0.0
H129 H 0.22859 0.02113 0.20207 0.0
C130 C 0.20386 1.00175 0.04944 0.0
H131 H 0.18986 0.99798 0.03212 0.0
H132 H 0.21521 0.99225 0.93741 0.0
H133 H 0.50355 0.25617 0.24645 0.0
C134 C 0.50548 0.2665 0.20009 0.0
C135 C 0.50866 0.28483 0.22411 0.0
C136 C 0.50404 0.26175 0.11793 0.0
H137 H 0.51276 0.31298 0.18553 0.0
C138 C 0.51036 0.29879 0.16619 0.0
C139 C 0.50896 0.2948 0.08398 0.0
C140 C 0.50582 0.27623 0.05995 0.0
C141 C 0.50002 0.24191 0.09411 0.0
H142 H 0.50516 0.27319 0.99629 0.0
C143 C 0.50474 0.2267 0.14477 0.0
C144 C 0.49982 0.20827 0.12429 0.0
C145 C 0.49057 0.23802 0.02179 0.0
H146 H 0.48607 0.24901 0.98209 0.0
C147 C 0.48616 0.21983 1.00028 0.0
H148 H 0.5124 0.22897 0.19989 0.0
C149 C 0.49065 0.2051 0.05093 0.0
H150 H 0.48646 0.19123 0.0335 0.0
H151 H 0.47882 0.21715 0.94459 0.0
Tb152 Tb 0.02537 1.00953 0.76889 0.0
Tb153 Tb 1.00653 0.02009 0.62392 0.0
C154 C 0.03432 0.99125 0.89065 0.0
C155 C 0.03498 0.97082 0.89717 0.0
C156 C 0.01907 0.96018 0.8806 0.0
C157 C 0.0205 0.94119 0.86653 0.0
C158 C 0.03785 0.9323 0.86906 0.0
C159 C 0.05357 0.94271 0.89139 0.0
C160 C 0.05214 0.96181 0.90523 0.0
C161 C 0.04834 0.02012 0.65399 0.0
C162 C 0.01463 0.97845 0.6367 0.0
C163 C 0.99607 0.03823 0.5043 0.0
C164 C 0.98891 0.05733 0.5056 0.0
C165 C 0.9964 0.07058 0.45344 0.0
C166 C 0.99326 0.08944 0.46703 0.0
C167 C 0.98262 0.09535 0.53321 0.0
C168 C 0.97407 0.08201 0.58202 0.0
C169 C 0.97728 0.06317 0.56869 0.0
C170 C 0.98356 1.00992 0.74026 0.0
C171 C 0.01783 0.0515 0.75496 0.0
O172 O 0.01786 0.99862 0.8811 0.0
O173 O 0.04647 0.99841 0.84145 0.0
O174 O 0.03401 1.01017 0.64485 0.0
O175 O 0.05027 0.02404 0.72966 0.0
O176 O 0.01811 0.98251 0.713 0.0
O177 O 1.0118 0.99184 0.58414 0.0
O178 O 0.01352 0.03674 0.52509 0.0
O179 O 0.9857 0.02572 0.53907 0.0
O180 O 0.99799 0.01973 0.74791 0.0
O181 O 0.98142 1.00604 0.66486 0.0
O182 O 1.0126 0.04728 0.68067 0.0
O183 O 0.02218 0.03827 0.80644 0.0
H184 H 1.00562 0.96665 0.87327 0.0
H185 H 1.0081 0.93375 0.84868 0.0
H186 H 0.06707 0.93623 0.89622 0.0
H187 H 0.0646 0.96969 0.91797 0.0
H188 H 1.00553 0.06639 0.40501 0.0
H189 H 0.99971 0.09944 0.42738 0.0
H190 H 0.96591 0.08614 0.63368 0.0
H191 H 0.97159 0.05327 0.61093 0.0
Tb192 Tb 0.51967 0.02336 0.75569 0.0
Tb193 Tb 0.50891 1.00545 0.60842 0.0
C194 C 0.53804 0.03138 0.87874 0.0
C195 C 0.55844 0.03194 0.88657 0.0
C196 C 0.56916 0.01628 0.86702 0.0
C197 C 0.58829 0.01781 0.8572 0.0
C198 C 0.5972 0.03503 0.86681 0.0
C199 C 0.58661 0.05046 0.8911 0.0
C200 C 0.56741 0.04892 0.9008 0.0
C201 C 0.50902 0.04704 0.64348 0.0
C202 C 0.55054 0.01356 0.62193 0.0
C203 C 0.49079 0.99544 0.48774 0.0
C204 C 0.47202 0.98749 0.48819 0.0
C205 C 0.45894 0.99324 0.43127 0.0
C206 C 0.44027 0.98849 0.44051 0.0
C207 C 0.4344 0.9779 0.50697 0.0
C208 C 0.44771 0.97157 0.56217 0.0
C209 C 0.46632 0.97638 0.55307 0.0
C210 C 0.51924 0.98188 0.72226 0.0
C211 C 0.47766 0.01599 0.74077 0.0
O212 O 0.53063 0.01501 0.86682 0.0
O213 O 0.531 0.0439 0.83083 0.0
O214 O 0.51892 0.03275 0.63271 0.0
O215 O 0.50524 0.04857 0.7194 0.0
O216 O 0.54656 0.01626 0.69885 0.0
O217 O 0.53705 1.01136 0.56901 0.0
O218 O 0.49165 1.01272 0.51168 0.0
O219 O 0.50373 0.98521 0.52041 0.0
O220 O 0.50935 0.99616 0.73124 0.0
O221 O 0.52314 0.98017 0.64679 0.0
O222 O 0.48178 1.01139 0.66565 0.0
O223 O 0.49098 0.01981 0.79288 0.0
H224 H 0.56271 1.00299 0.85479 0.0
H225 H 0.59589 1.00567 0.83768 0.0
H226 H 0.59309 0.06381 0.90129 0.0
H227 H 0.55946 0.06119 0.91588 0.0
H228 H 0.463 1.00212 0.38184 0.0
H229 H 0.43034 0.99389 0.3976 0.0
H230 H 0.44368 0.96327 0.6135 0.0
H231 H 0.47612 0.97205 0.59881 0.0
Tb232 Tb 0.50619 0.52087 0.76558 0.0
Tb233 Tb 0.52581 0.51017 0.62276 0.0
C234 C 0.49544 0.53812 0.88818 0.0
C235 C 0.48954 0.55765 0.89746 0.0
C236 C 0.50158 0.57224 0.87703 0.0
C237 C 0.4951 0.59045 0.87389 0.0
C238 C 0.4765 0.59449 0.8914 0.0
C239 C 0.46467 0.58009 0.91598 0.0
C240 C 0.47114 0.56179 0.91867 0.0
C241 C 0.4839 0.51073 0.64654 0.0
C242 C 0.51842 0.55209 0.63572 0.0
C243 C 0.53614 0.49228 0.50168 0.0
C244 C 0.5375 0.4719 0.49263 0.0
C245 C 0.52146 0.46121 0.47962 0.0
C246 C 0.52193 0.442 0.48894 0.0
C247 C 0.53847 0.433 0.51099 0.0
C248 C 0.5548 0.44354 0.5184 0.0
C249 C 0.55433 0.46279 0.50907 0.0
C250 C 0.54799 0.52037 0.74224 0.0
C251 C 0.51346 0.47895 0.74996 0.0
O252 O 0.51295 0.53528 0.87135 0.0
O253 O 0.4845 0.5278 0.84415 0.0
O254 O 0.49836 0.52055 0.64054 0.0
O255 O 0.48142 0.50663 0.72148 0.0
O256 O 0.51296 0.54805 0.7099 0.0
O257 O 0.52273 0.53875 0.58472 0.0
O258 O 0.51938 0.49903 0.50946 0.0
O259 O 0.54769 0.49972 0.55317 0.0
O260 O 0.53359 0.51044 0.74794 0.0
O261 O 0.55044 0.52459 0.66733 0.0
O262 O 0.51723 0.48316 0.67423 0.0
O263 O 0.51089 0.49231 0.80321 0.0
H264 H 0.51586 0.5696 0.86053 0.0
H265 H 0.50461 0.60138 0.85655 0.0
H266 H 0.45031 0.58292 0.93053 0.0
H267 H 0.4616 0.55078 0.9347 0.0
H268 H 0.50826 0.46773 0.46658 0.0
H269 H 0.50905 0.43437 0.48315 0.0
H270 H 0.56788 0.43697 0.53303 0.0
H271 H 0.56698 0.47062 0.51853 0.0
Tb272 Tb 1.01013 0.50783 0.77499 0.0
Tb273 Tb 0.02057 0.52128 0.61268 0.0
C274 C 0.99271 0.50642 0.90439 0.0
C275 C 0.97281 0.51047 0.91393 0.0
C276 C 0.96494 0.52567 0.87343 0.0
C277 C 0.94583 0.52676 0.86192 0.0
C278 C 0.93406 0.51284 0.89182 0.0
C279 C 0.94189 0.49863 0.93933 0.0
C280 C 0.9611 0.49735 0.94943 0.0
C281 C 0.01908 0.48129 0.67298 0.0
C282 C 0.97837 0.51708 0.64082 0.0
C283 C 0.03753 0.5223 0.48218 0.0
C284 C 0.05625 0.51492 0.46716 0.0
C285 C 0.06141 0.49755 0.49872 0.0
C286 C 0.07997 0.49215 0.50013 0.0
C287 C 0.09375 0.504 0.47011 0.0
C288 C 0.08847 0.52095 0.43479 0.0
C289 C 0.06986 0.52636 0.43346 0.0
C290 C 1.01182 0.54792 0.71493 0.0
C291 C 0.0522 0.51164 0.74605 0.0
O292 O 1.00314 0.52054 0.8843 0.0
O293 O 0.99635 0.49165 0.86124 0.0
O294 O 1.00998 0.49583 0.65774 0.0
O295 O 0.02255 0.48068 0.74973 0.0
O296 O 0.98306 0.51366 0.71662 0.0
O297 O 0.99113 0.51973 0.58504 0.0
O298 O 0.02474 0.50994 0.49803 0.0
O299 O 0.03694 0.53644 0.53169 0.0
O300 O 0.02079 0.53328 0.72991 0.0
O301 O 1.00854 0.54861 0.63806 0.0
O302 O 0.04746 0.5137 0.66928 0.0
O303 O 0.03943 0.51046 0.80275 0.0
H304 H 0.9736 0.53605 0.84504 0.0
H305 H 0.94058 0.53788 0.82466 0.0
H306 H 0.93328 0.48808 0.96662 0.0
H307 H 0.96685 0.48555 0.98116 0.0
H308 H 0.05125 0.48847 0.5261 0.0
H309 H 0.0836 0.47894 0.5268 0.0
H310 H 0.09882 0.53046 0.41185 0.0
H311 H 0.06624 0.5399 0.40996 0.0
H312 H 0.19834 0.03997 0.21909 0.0
H313 H 0.17155 0.04333 0.3098 0.0
H314 H 0.1546 0.9874 0.25473 0.0
H315 H 0.18113 0.98397 0.16438 0.0
H316 H 0.13036 0.03579 0.26142 0.0
H317 H 0.15768 0.99252 0.51165 0.0
H318 H 0.1727 1.00388 0.44009 0.0
H319 H 0.16016 0.98342 0.41131 0.0
C320 C 0.18899 0.02835 0.2269 0.0
C321 C 0.19188 1.01173 0.1841 0.0
C322 C 0.17362 0.03032 0.27835 0.0
C323 C 0.16104 0.01561 0.28915 0.0
C324 C 0.1641 0.99893 0.24757 0.0
H325 H 0.04968 1.00772 0.49723 0.0
H326 H 0.07666 1.00759 0.40675 0.0
C327 C 0.17926 0.99703 0.19564 0.0
C328 C 0.14459 0.01754 0.34304 0.0
H329 H 0.12638 1.00206 0.52061 0.0
C330 C 0.12951 0.02849 0.31826 0.0
C331 C 0.14346 1.00803 0.41725 0.0
C332 C 0.15936 0.99636 0.4474 0.0
C333 C 0.11326 0.02994 0.36512 0.0
C334 C 0.11199 0.02014 0.43869 0.0
C335 C 0.12724 1.00947 0.46404 0.0
C336 C 0.09518 0.02105 0.49126 0.0
C337 C 0.09762 0.0421 0.33607 0.0
C338 C 0.09652 0.02862 0.56892 0.0
C339 C 0.08114 0.02879 0.62036 0.0
C340 C 0.06405 0.02116 0.59594 0.0
C341 C 0.06261 0.01376 0.51778 0.0
C342 C 0.07802 0.01373 0.46595 0.0
H343 H 0.10214 0.05162 0.28744 0.0
H344 H 0.08629 0.03322 0.31216 0.0
H345 H 0.09189 0.05046 0.38638 0.0
H346 H 0.10956 0.03433 0.59004 0.0
H347 H 0.08276 0.03459 0.6801 0.0
H348 H 0.51277 0.17346 0.08693 0.0
H349 H 0.51495 0.14632 0.17489 0.0
H350 H 0.49692 0.1795 0.37589 0.0
H351 H 0.49449 0.20671 0.28794 0.0
H352 H 0.53545 0.14011 0.32139 0.0
H353 H 0.4593 0.13587 0.3684 0.0
H354 H 0.4695 0.14946 0.2888 0.0
H355 H 0.46965 0.15801 0.39032 0.0
C356 C 0.50931 0.17503 0.14993 0.0
C357 C 0.50331 0.19231 0.18005 0.0
C358 C 0.51063 0.15948 0.20026 0.0
C359 C 0.5058 0.16073 0.28185 0.0
C360 C 0.50045 0.17809 0.3129 0.0
H361 H 0.49426 0.08123 0.67185 0.0
H362 H 0.49396 0.10823 0.58313 0.0
C363 C 0.49926 0.1937 0.26266 0.0
C364 C 0.50599 0.14378 0.33368 0.0
H365 H 0.47786 0.1149 0.44203 0.0
C366 C 0.52286 0.13456 0.34767 0.0
C367 C 0.48957 0.13648 0.36796 0.0
C368 C 0.47093 0.14532 0.35282 0.0
C369 C 0.52383 0.11858 0.39639 0.0
C370 C 0.50737 0.11121 0.43052 0.0
C371 C 0.4905 0.12042 0.41606 0.0
C372 C 0.50738 0.09437 0.48341 0.0
C373 C 0.54259 0.11012 0.41281 0.0
C374 C 0.51465 0.07728 0.45694 0.0
C375 C 0.51493 0.06175 0.5081 0.0
C376 C 0.50775 0.06292 0.58654 0.0
C377 C 0.49997 0.07984 0.61194 0.0
C378 C 0.49978 0.09534 0.56111 0.0
H379 H 0.55399 0.12018 0.40192 0.0
H380 H 0.54363 0.10511 0.47577 0.0
H381 H 0.54471 0.09813 0.37191 0.0
H382 H 0.52012 0.07591 0.39665 0.0
H383 H 0.52091 0.04889 0.4865 0.0
H384 H 0.33099 0.49423 0.23033 0.0
H385 H 0.35737 0.49229 0.32355 0.0
H386 H 0.38329 0.53857 0.20441 0.0
H387 H 0.35678 0.54124 0.11463 0.0
H388 H 0.39377 0.48552 0.29834 0.0
H389 H 0.38746 0.55547 0.43241 0.0
H390 H 0.36945 0.54548 0.37057 0.0
H391 H 0.38926 0.55649 0.32505 0.0
C392 C 0.34214 0.50421 0.22478 0.0
C393 C 0.34159 0.51788 0.16427 0.0
C394 C 0.35734 0.50298 0.27788 0.0
C395 C 0.37232 0.51547 0.27232 0.0
C396 C 0.37182 0.52901 0.21173 0.0
H397 H 0.48087 0.52943 0.50284 0.0
H398 H 0.45416 0.52978 0.41046 0.0
C399 C 0.35667 0.53032 0.15922 0.0
C400 C 0.38871 0.51417 0.32794 0.0
H401 H 0.41616 0.53972 0.45526 0.0
C402 C 0.39853 0.49734 0.33313 0.0
C403 C 0.39508 0.52955 0.37381 0.0
C404 C 0.38465 0.54769 0.37592 0.0
C405 C 0.41466 0.49565 0.38087 0.0
C406 C 0.42119 0.51113 0.42522 0.0
C407 C 0.41132 0.52789 0.42061 0.0
C408 C 0.4379 0.51011 0.47868 0.0
C409 C 0.42484 0.47738 0.38225 0.0
C410 C 0.43774 0.49893 0.54778 0.0
C411 C 0.45291 0.49881 0.60077 0.0
C412 C 0.46866 0.50983 0.58593 0.0
C413 C 0.46901 0.52072 0.51582 0.0
C414 C 0.45371 0.52098 0.46313 0.0
H415 H 0.42057 0.46819 0.33177 0.0
H416 H 0.44007 0.47961 0.37908 0.0
H417 H 0.42178 0.47011 0.43949 0.0
H418 H 0.42566 0.49061 0.56189 0.0
H419 H 0.45217 0.4903 0.6543 0.0
H420 H 0.0338 0.35602 0.11672 0.0
H421 H 0.03569 0.38208 0.21067 0.0
H422 H 1.00773 0.34963 0.39105 0.0
H423 H 1.00537 0.32357 0.29645 0.0
H424 H 0.99261 0.38469 0.37435 0.0
H425 H 0.06893 0.39009 0.40594 0.0
H426 H 0.06115 0.3904 0.30333 0.0
H427 H 0.05771 0.36994 0.36322 0.0
C428 C 0.02811 0.35434 0.17649 0.0
C429 C 0.0194 0.3376 0.19869 0.0
C430 C 0.02937 0.36925 0.23058 0.0
C431 C 0.02205 0.36785 0.30858 0.0
C432 C 0.01359 0.35107 0.33146 0.0
H433 H 0.03691 0.44837 0.69982 0.0
H434 H 0.03778 0.42091 0.61232 0.0
C435 C 1.01238 0.3361 0.27741 0.0
C436 C 0.02237 0.38417 0.36447 0.0
H437 H 0.05122 0.41551 0.45636 0.0
C438 C 1.00545 0.39136 0.39254 0.0
C439 C 0.03909 0.39285 0.38914 0.0
C440 C 0.05777 0.38534 0.36455 0.0
C441 C 1.00477 0.40711 0.44281 0.0
C442 C 0.02145 0.41619 0.46511 0.0
C443 C 0.0384 0.40875 0.43863 0.0
C444 C 0.02156 0.43324 0.51674 0.0
C445 C 0.98615 0.41375 0.47252 0.0
C446 C 1.01254 0.44955 0.49173 0.0
C447 C 1.01205 0.46526 0.54167 0.0
C448 C 0.02063 0.46508 0.61772 0.0
C449 C 0.0301 0.44894 0.64177 0.0
C450 C 0.03062 0.43323 0.59171 0.0
H451 H 0.97542 0.40273 0.46776 0.0
H452 H 0.98701 0.41841 0.53611 0.0
H453 H 0.98156 0.42569 0.43544 0.0
H454 H 1.00576 0.45009 0.43361 0.0
H455 H 1.00464 0.47745 0.52127 0.0
H456 H 0.82578 0.99821 0.10542 0.0
H457 H 0.85319 1.00061 0.01871 0.0
H458 H 0.88619 0.01722 0.22302 0.0
H459 H 0.859 0.01445 0.30992 0.0
H460 H 0.87672 0.02779 0.97746 0.0
H461 H 0.91653 0.97447 0.1439 0.0
H462 H 0.89224 0.97864 0.16219 0.0
H463 H 0.90957 0.9935 0.20653 0.0
C464 C 0.83883 1.00258 0.13169 0.0
C465 C 0.84018 1.00594 0.21493 0.0
C466 C 0.85456 1.00386 0.08207 0.0
C467 C 0.87201 1.00858 0.11436 0.0
C468 C 0.87313 1.0129 0.19672 0.0
H469 H 0.98266 0.02259 0.89683 0.0
H470 H 0.95593 0.02272 0.98896 0.0
C471 C 0.85749 1.01145 0.24639 0.0
C472 C 0.889 1.00886 0.06221 0.0
H473 H 0.93297 0.99121 0.04383 0.0
C474 C 0.88897 0.01973 0.99204 0.0
C475 C 0.90511 0.99833 0.08059 0.0
C476 C 0.90585 0.98544 0.15192 0.0
C477 C 0.90452 0.02053 0.94079 0.0
C478 C 0.9206 1.01008 0.95946 0.0
C479 C 0.92072 0.99932 0.02974 0.0
C480 C 0.93708 1.00958 0.9049 0.0
C481 C 0.9037 0.03273 0.86726 0.0
C482 C 0.93557 1.00176 0.82776 0.0
C483 C 0.95081 1.00152 0.77557 0.0
C484 C 0.96798 1.00915 0.79898 0.0
C485 C 0.96964 0.01663 0.87691 0.0
C486 C 0.95436 0.01674 0.92953 0.0
H487 H 0.89233 0.04308 0.8712 0.0
H488 H 0.91704 0.04017 0.85858 0.0
H489 H 0.90121 0.02396 0.81339 0.0
H490 H 0.92253 0.99586 0.80772 0.0
H491 H 0.94905 0.99556 0.7162 0.0
H492 H 0.49657 0.83092 0.14158 0.0
H493 H 0.49556 0.85772 0.05096 0.0
H494 H 0.55086 0.87309 0.12483 0.0
H495 H 0.55172 0.84664 0.21659 0.0
H496 H 0.52931 0.90255 0.12744 0.0
H497 H 0.51837 0.86695 0.83584 0.0
H498 H 0.50088 0.86136 0.90842 0.0
H499 H 0.52456 0.85455 0.92609 0.0
C500 C 0.50865 0.8398 0.13722 0.0
C501 C 0.52423 0.83658 0.18635 0.0
C502 C 0.50808 0.85517 0.08522 0.0
C503 C 0.52321 0.86748 0.07999 0.0
C504 C 0.53896 0.86393 0.12754 0.0
H505 H 0.54002 0.9506 0.70739 0.0
H506 H 0.541 0.92365 0.79648 0.0
C507 C 0.53946 0.84874 0.17998 0.0
C508 C 0.52245 0.88452 0.02829 0.0
H509 H 0.5149 0.89975 0.83613 0.0
C510 C 0.5262 0.90189 0.06365 0.0
C511 C 0.51861 0.88381 0.9447 0.0
C512 C 0.51556 0.86566 0.90128 0.0
C513 C 0.52618 0.91841 0.01836 0.0
C514 C 0.52179 0.91777 0.93526 0.0
C515 C 0.5181 0.9004 0.89983 0.0
C516 C 0.52159 0.93476 0.88321 0.0
C517 C 0.53144 0.93631 0.05981 0.0
C518 C 0.51043 0.95023 0.90182 0.0
C519 C 0.51005 0.96585 0.85119 0.0
C520 C 0.52058 0.9662 0.78008 0.0
C521 C 0.53176 0.95078 0.76173 0.0
C522 C 0.53227 0.9353 0.81258 0.0
H523 H 0.53957 0.93374 0.11551 0.0
H524 H 0.53972 0.94537 0.0196 0.0
H525 H 0.51864 0.94386 0.07711 0.0
H526 H 0.50169 0.95011 0.95467 0.0
H527 H 0.50116 0.97742 0.8666 0.0
H528 H 0.6713 0.49465 0.29593 0.0
H529 H 0.64519 0.49718 0.2032 0.0
H530 H 0.67606 0.53595 0.05885 0.0
H531 H 0.70231 0.53375 0.1525 0.0
H532 H 0.62438 0.52839 0.16104 0.0
H533 H 0.65828 0.49786 0.89212 0.0
H534 H 0.66793 0.49571 0.99192 0.0
H535 H 0.67048 0.51701 0.93702 0.0
C536 C 0.6726 0.50388 0.24494 0.0
C537 C 0.68905 0.51409 0.23253 0.0
C538 C 0.65759 0.50522 0.19152 0.0
C539 C 0.65858 0.51663 0.12337 0.0
C540 C 0.67499 0.52678 0.11013 0.0
H541 H 0.58094 0.5387 0.73012 0.0
H542 H 0.60708 0.53854 0.8242 0.0
C543 C 0.69005 0.52549 0.16386 0.0
C544 C 0.64227 0.51807 0.06766 0.0
H545 H 0.6281 0.50997 0.87411 0.0
C546 C 0.6252 0.52434 0.0983 0.0
C547 C 0.64324 0.51282 0.98564 0.0
C548 C 0.6609 0.50532 0.94957 0.0
C549 C 0.60926 0.52575 0.0493 0.0
C550 C 0.61017 0.52032 0.9674 0.0
C551 C 0.62728 0.51414 0.93671 0.0
C552 C 0.59367 0.52103 0.91225 0.0
C553 C 0.59171 0.53348 0.0855 0.0
C554 C 0.57721 0.5113 0.92983 0.0
C555 C 0.56212 0.51149 0.87606 0.0
C556 C 0.56321 0.52123 0.80299 0.0
C557 C 0.5796 0.53107 0.78586 0.0
C558 C 0.59462 0.53094 0.83962 0.0
H559 H 0.59466 0.54193 0.14001 0.0
H560 H 0.58409 0.54221 0.04157 0.0
H561 H 0.58256 0.52183 0.10356 0.0
H562 H 0.57617 0.50319 0.98435 0.0
H563 H 0.54977 0.50363 0.89079 0.0
H564 H 0.0151 0.67352 0.27433 0.0
H565 H 0.01761 0.64688 0.18365 0.0
H566 H 1.00106 0.68135 0.98436 0.0
H567 H 0.99891 0.70814 0.07475 0.0
H568 H 0.9914 0.63004 0.09961 0.0
H569 H 0.04416 0.65531 0.88453 0.0
H570 H 0.03946 0.66707 0.97813 0.0
H571 H 0.02465 0.67063 0.8922 0.0
C572 C 1.01222 0.6755 0.21098 0.0
C573 C 1.00686 0.69305 0.18195 0.0
C574 C 0.01364 0.66021 0.15904 0.0
C575 C 1.00973 0.66198 0.07651 0.0
C576 C 1.00464 0.67958 0.04712 0.0
H577 H 0.99682 0.58199 0.68331 0.0
H578 H 0.99607 0.60937 0.77123 0.0
C579 C 1.00338 0.69495 0.09902 0.0
C580 C 1.01002 0.64522 0.02275 0.0
H581 H 0.02782 0.62784 0.84711 0.0
C582 C 0.9995 0.62957 0.04474 0.0
C583 C 0.02052 0.64444 0.95072 0.0
C584 C 0.03298 0.66019 0.92532 0.0
C585 C 0.99898 0.61344 0.99668 0.0
C586 C 1.00934 0.61275 0.92454 0.0
C587 C 0.01981 0.62836 0.90222 0.0
C588 C 1.00954 0.59592 0.87175 0.0
C589 C 0.98706 0.59733 0.02269 0.0
C590 C 0.01742 0.5792 0.89859 0.0
C591 C 0.01798 0.56354 0.8482 0.0
C592 C 1.01056 0.56423 0.76991 0.0
C593 C 1.00258 0.58095 0.74334 0.0
C594 C 1.00218 0.59665 0.7935 0.0
H595 H 0.97697 0.6014 0.06994 0.0
H596 H 0.97933 0.59146 0.97068 0.0
H597 H 0.99607 0.58623 0.04741 0.0
H598 H 0.02344 0.57833 0.95819 0.0
H599 H 0.02449 0.551 0.87016 0.0
H600 H 0.0303 0.22108 0.32513 0.0
H601 H 0.01872 0.20576 0.44512 0.0
H602 H 0.9714 0.24239 0.44841 0.0
H603 H 0.98258 0.25728 0.3251 0.0
H604 H 1.00578 0.21211 0.60096 0.0
H605 H 0.94779 0.19321 0.39249 0.0
H606 H 0.96772 0.20554 0.35538 0.0
H607 H 0.95127 0.2171 0.41933 0.0
C608 C 0.01762 0.22613 0.35232 0.0
C609 C 1.00703 0.23992 0.3145 0.0
C610 C 1.0111 0.21751 0.42154 0.0
C611 C 0.99393 0.2226 0.45448 0.0
C612 C 0.98447 0.23798 0.42281 0.0
H613 H 0.95224 0.1153 0.58269 0.0
H614 H 0.95054 0.14885 0.60661 0.0
C615 C 0.99093 0.24654 0.35269 0.0
C616 C 0.9848 0.20924 0.50918 0.0
H617 H 0.95619 0.17191 0.48941 0.0
C618 C 0.99443 0.20365 0.57858 0.0
C619 C 0.96968 0.1984 0.48134 0.0
C620 C 0.95846 0.20375 0.4081 0.0
C621 C 0.99115 0.18623 0.61331 0.0
C622 C 0.97813 0.17418 0.57682 0.0
C623 C 0.96645 0.18104 0.51629 0.0
C624 C 0.97969 0.15376 0.5838 0.0
C625 C 1.00272 0.18029 0.68434 0.0
C626 C 0.99664 0.14535 0.56403 0.0
C627 C 0.9976 0.12634 0.54974 0.0
C628 C 0.98159 0.1153 0.55435 0.0
C629 C 0.96479 0.1235 0.57844 0.0
C630 C 0.96383 0.14262 0.59265 0.0
H631 H 1.00511 0.19219 0.72567 0.0
H632 H 0.99605 0.16883 0.71826 0.0
H633 H 0.0165 0.17555 0.66298 0.0
H634 H 1.00898 0.15362 0.55448 0.0
H635 H 1.01084 0.12035 0.53336 0.0
H636 H 0.27175 0.98757 0.32455 0.0
H637 H 0.28653 0.97775 0.44956 0.0
H638 H 0.32605 0.02251 0.4269 0.0
H639 H 0.31042 0.03317 0.30691 0.0
H640 H 0.31696 0.9631 0.44681 0.0
H641 H 0.32833 0.01906 0.65932 0.0
H642 H 0.31032 0.02091 0.58403 0.0
H643 H 0.33347 0.02963 0.56493 0.0
C644 C 0.28299 0.99587 0.3486 0.0
C645 C 0.29021 1.01091 0.30481 0.0
C646 C 0.29151 0.99017 0.4201 0.0
C647 C 0.30752 0.99926 0.44837 0.0
C648 C 0.31352 0.01538 0.40851 0.0
H649 H 0.40785 0.9695 0.39565 0.0
H650 H 0.37451 0.96923 0.41473 0.0
C651 C 0.3048 0.02128 0.3383 0.0
C652 C 0.32054 0.98982 0.50451 0.0
H653 H 0.35825 1.00186 0.61641 0.0
C654 C 0.32551 0.97139 0.48677 0.0
C655 C 0.33141 0.99989 0.5606 0.0
C656 C 0.32535 0.01839 0.59379 0.0
C657 C 0.34269 0.96426 0.51101 0.0
C658 C 0.35534 0.97608 0.55104 0.0
C659 C 0.34895 0.99306 0.58194 0.0
C660 C 0.37563 0.97321 0.54403 0.0
C661 C 0.34771 0.94469 0.4873 0.0
C662 C 0.38752 0.97579 0.61004 0.0
C663 C 0.40674 0.97636 0.59873 0.0
C664 C 0.41435 0.97461 0.52109 0.0
C665 C 0.40244 0.97117 0.45596 0.0
C666 C 0.38332 0.97064 0.4672 0.0
H667 H 0.33554 0.93538 0.4947 0.0
H668 H 0.35159 0.94436 0.42275 0.0
H669 H 0.35942 0.93923 0.52371 0.0
H670 H 0.38192 0.97805 0.66968 0.0
H671 H 0.41554 0.97907 0.65022 0.0
H672 H 0.53332 0.271 0.33349 0.0
H673 H 0.54161 0.28525 0.46302 0.0
H674 H 0.49697 0.32461 0.43353 0.0
H675 H 0.48868 0.31032 0.30613 0.0
H676 H 0.55465 0.31868 0.45855 0.0
H677 H 0.49753 0.32232 0.6722 0.0
H678 H 0.49855 0.30432 0.5963 0.0
H679 H 0.48739 0.32627 0.57548 0.0
C680 C 0.52483 0.28217 0.3569 0.0
C681 C 0.51053 0.28979 0.30995 0.0
C682 C 0.52954 0.29026 0.43085 0.0
C683 C 0.51984 0.30592 0.45883 0.0
C684 C 0.50441 0.31227 0.41501 0.0
H685 H 0.51931 0.40585 0.43198 0.0
H686 H 0.51858 0.37283 0.46165 0.0
C687 C 0.4998 0.30429 0.34135 0.0
C688 C 0.52821 0.31861 0.51921 0.0
H689 H 0.51244 0.35372 0.63796 0.0
C690 C 0.54584 0.32581 0.50142 0.0
C691 C 0.51714 0.32772 0.57726 0.0
C692 C 0.49919 0.31953 0.60687 0.0
C693 C 0.55092 0.34363 0.52717 0.0
C694 C 0.53803 0.35424 0.57128 0.0
C695 C 0.52207 0.34568 0.60192 0.0
C696 C 0.53777 0.37455 0.56158 0.0
C697 C 0.56872 0.35205 0.49688 0.0
C698 C 0.5489 0.38637 0.608 0.0
C699 C 0.54913 0.40543 0.5919 0.0
C700 C 0.53847 0.4128 0.52832 0.0
C701 C 0.52743 0.40076 0.48216 0.0
C702 C 0.52701 0.38188 0.49898 0.0
H703 H 0.57848 0.34131 0.47439 0.0
H704 H 0.56556 0.36176 0.44692 0.0
H705 H 0.57561 0.3601 0.54549 0.0
H706 H 0.55751 0.38088 0.6557 0.0
H707 H 0.55756 0.41438 0.62951 0.0
H708 H 0.22656 0.54227 0.29338 0.0
H709 H 0.20951 0.53401 0.41365 0.0
H710 H 0.24248 0.48432 0.43817 0.0
H711 H 0.25939 0.49254 0.3156 0.0
H712 H 0.20863 0.47556 0.40935 0.0
H713 H 0.20432 0.52723 0.64873 0.0
H714 H 0.20367 0.54002 0.55671 0.0
H715 H 0.22398 0.52644 0.58136 0.0
C716 C 0.23076 0.53007 0.32675 0.0
C717 C 0.24396 0.51785 0.29484 0.0
C718 C 0.22116 0.52541 0.39642 0.0
C719 C 0.22463 0.50846 0.43539 0.0
C720 C 0.23958 0.49748 0.40936 0.0
H721 H 0.111 0.48947 0.60275 0.0
H722 H 0.14444 0.48501 0.62335 0.0
C723 C 0.24923 0.50217 0.33934 0.0
C724 C 0.20944 0.50021 0.48362 0.0
H725 H 0.17297 0.51599 0.59437 0.0
C726 C 0.20124 0.48394 0.45304 0.0
C727 C 0.1998 0.51065 0.5423 0.0
C728 C 0.20861 0.52693 0.58459 0.0
C729 C 0.18259 0.47989 0.46814 0.0
C730 C 0.17206 0.49239 0.51462 0.0
C731 C 0.18102 0.50672 0.55659 0.0
C732 C 0.15183 0.49363 0.50317 0.0
C733 C 0.17373 0.46349 0.42677 0.0
C734 C 0.14507 0.49994 0.4289 0.0
C735 C 0.12616 0.50281 0.41742 0.0
C736 C 0.11362 0.49932 0.47997 0.0
C737 C 0.12037 0.49234 0.55356 0.0
C738 C 0.13941 0.48978 0.56554 0.0
H739 H 0.18405 0.45234 0.41537 0.0
H740 H 0.16217 0.45778 0.46322 0.0
H741 H 0.16804 0.46799 0.36787 0.0
H742 H 0.15455 0.50311 0.38027 0.0
H743 H 0.12137 0.50795 0.35986 0.0
H744 H 0.04053 0.77071 0.04463 0.0
H745 H 0.05089 0.78451 0.91714 0.0
H746 H 1.00759 0.82564 0.9362 0.0
H747 H 0.99701 0.81164 0.06075 0.0
H748 H 0.01633 0.81725 0.77561 0.0
H749 H 0.08033 0.83157 0.95532 0.0
H750 H 0.07372 0.80814 0.93138 0.0
H751 H 0.06066 0.82114 0.00421 0.0
C752 C 0.03289 0.78229 0.01967 0.0
C753 C 0.01829 0.79047 0.06306 0.0
C754 C 0.03886 0.7902 0.9472 0.0
C755 C 0.0303 0.80638 0.91814 0.0
C756 C 0.01446 0.81319 0.95735 0.0
H757 H 1.01315 0.9043 0.8979 0.0
H758 H 0.01574 0.87187 0.86125 0.0
C759 C 1.00851 0.80532 0.02905 0.0
C760 C 0.03931 0.81869 0.8586 0.0
H761 H 0.06909 0.85521 0.87352 0.0
C762 C 0.02843 0.82513 0.79421 0.0
C763 C 0.05546 0.82871 0.88071 0.0
C764 C 0.06831 0.82212 0.94648 0.0
C765 C 0.03118 0.84297 0.76285 0.0
C766 C 0.045 0.85439 0.79724 0.0
C767 C 0.05816 0.84652 0.84902 0.0
C768 C 0.0424 0.87468 0.80263 0.0
C769 C 0.0179 0.85032 0.70047 0.0
C770 C 0.05665 0.88707 0.78283 0.0
C771 C 0.05514 0.90586 0.80339 0.0
C772 C 0.0395 0.91244 0.84558 0.0
C773 C 0.02521 0.89992 0.86416 0.0
C774 C 0.02661 0.88132 0.84262 0.0
H775 H 0.01369 0.83913 0.65815 0.0
H776 H 1.00517 0.85546 0.73067 0.0
H777 H 0.02413 0.86192 0.66595 0.0
H778 H 0.06909 0.88214 0.75332 0.0
H779 H 0.06624 0.91518 0.7865 0.0
H780 H 0.76039 0.04256 0.07613 0.0
H781 H 0.74513 0.05284 0.95136 0.0
H782 H 0.70774 1.00615 0.96596 0.0
H783 H 0.72309 0.99582 0.08837 0.0
H784 H 0.71493 0.01725 0.80593 0.0
H785 H 0.69546 0.07714 0.00234 0.0
H786 H 0.71937 0.07312 0.97721 0.0
H787 H 0.70763 0.05765 0.0448 0.0
C788 C 0.74939 0.03418 0.05044 0.0
C789 C 0.7426 0.01862 0.09185 0.0
C790 C 0.74064 0.04008 0.97965 0.0
C791 C 0.72505 0.03048 0.95049 0.0
C792 C 0.71973 0.0138 0.98732 0.0
H793 H 0.62459 1.00987 0.89892 0.0
H794 H 0.65769 1.01324 0.87755 0.0
C795 C 0.72841 1.00794 0.05752 0.0
C796 C 0.71173 0.03902 0.89383 0.0
H797 H 0.67335 0.06627 0.91176 0.0
C798 C 0.70621 0.02855 0.82664 0.0
C799 C 0.70052 0.05405 0.91956 0.0
C800 C 0.70593 0.06621 0.98983 0.0
C801 C 0.68846 0.03072 0.79347 0.0
C802 C 0.67612 0.04355 0.82876 0.0
C803 C 0.68279 0.05618 0.88601 0.0
C804 C 0.65585 0.04066 0.82517 0.0
C805 C 0.68235 0.01805 0.72641 0.0
C806 C 0.64377 0.05502 0.80319 0.0
C807 C 0.62465 0.05306 0.8148 0.0
C808 C 0.61737 0.03687 0.85023 0.0
C809 C 0.62958 0.0224 0.87039 0.0
C810 C 0.64856 0.02427 0.85776 0.0
H811 H 0.69422 0.0144 0.68692 0.0
H812 H 0.67683 1.00499 0.7523 0.0
H813 H 0.67129 0.02462 0.68966 0.0
H814 H 0.64918 0.06788 0.77909 0.0
H815 H 0.61562 0.06433 0.79692 0.0
H816 H 0.49587 0.75822 0.0487 0.0
H817 H 0.48395 0.74083 0.93327 0.0
H818 H 0.44497 0.713 0.0888 0.0
H819 H 0.45601 0.7311 0.20197 0.0
H820 H 0.49238 0.70716 0.93949 0.0
H821 H 0.4176 0.70638 0.88762 0.0
H822 H 0.42858 0.7253 0.94096 0.0
H823 H 0.42062 0.70493 0.99413 0.0
C824 C 0.48398 0.74923 0.057 0.0
C825 C 0.47718 0.74557 0.13445 0.0
C826 C 0.4772 0.73922 0.991 0.0
C827 C 0.46372 0.72532 0.00201 0.0
C828 C 0.45516 0.72372 0.07753 0.0
H829 H 0.45704 0.61449 0.00211 0.0
H830 H 0.45079 0.64788 0.99925 0.0
C831 C 0.46169 0.73392 0.14295 0.0
C832 C 0.46256 0.70936 0.94537 0.0
H833 H 0.43278 0.67469 0.89074 0.0
C834 C 0.47929 0.70045 0.92569 0.0
C835 C 0.44557 0.70049 0.92651 0.0
C836 C 0.42714 0.70998 0.93784 0.0
C837 C 0.47955 0.68211 0.89782 0.0
C838 C 0.46257 0.6725 0.88841 0.0
C839 C 0.44578 0.68201 0.89947 0.0
C840 C 0.46234 0.65206 0.88057 0.0
C841 C 0.49805 0.67262 0.88639 0.0
C842 C 0.4702 0.64329 0.81346 0.0
C843 C 0.47397 0.6243 0.81552 0.0
C844 C 0.46976 0.61379 0.88428 0.0
C845 C 0.46045 0.62229 0.94854 0.0
C846 C 0.45682 0.64133 0.94675 0.0
H847 H 0.50989 0.6815 0.90536 0.0
H848 H 0.49858 0.65951 0.9213 0.0
H849 H 0.49994 0.66911 0.82193 0.0
H850 H 0.47434 0.65131 0.76144 0.0
H851 H 0.48077 0.61791 0.76453 0.0
H852 H 0.80343 0.47261 0.13263 0.0
H853 H 0.82017 0.4755 0.00602 0.0
H854 H 0.78436 0.52053 0.93559 0.0
H855 H 0.7676 0.51777 0.0628 0.0
H856 H 0.81702 0.48437 0.82328 0.0
H857 H 0.83418 0.54282 0.0323 0.0
H858 H 0.82087 0.52326 0.06683 0.0
H859 H 0.81064 0.53974 0.99908 0.0
C860 C 0.79852 0.48246 0.08829 0.0
C861 C 0.78466 0.49534 0.1081 0.0
C862 C 0.80798 0.484 0.01558 0.0
C863 C 0.80375 0.49852 0.96255 0.0
C864 C 0.78785 0.5093 0.9761 0.0
H865 H 0.911 0.54263 0.86062 0.0
H866 H 0.87795 0.54209 0.83339 0.0
C867 C 0.77833 0.50774 0.04897 0.0
C868 C 0.81905 0.50585 0.91313 0.0
H869 H 0.85633 0.53407 0.94023 0.0
C870 C 0.82542 0.49564 0.84678 0.0
C871 C 0.82983 0.52077 0.94313 0.0
C872 C 0.82366 0.53233 0.01427 0.0
C873 C 0.84307 0.49902 0.81402 0.0
C874 C 0.8548 0.51228 0.85133 0.0
C875 C 0.84752 0.52376 0.91178 0.0
C876 C 0.87528 0.51222 0.84153 0.0
C877 C 0.84917 0.48792 0.74182 0.0
C878 C 0.88512 0.49557 0.85138 0.0
C879 C 0.90424 0.49576 0.86419 0.0
C880 C 0.91394 0.51266 0.87054 0.0
C881 C 0.90421 0.52928 0.85621 0.0
C882 C 0.88518 0.52902 0.84066 0.0
H883 H 0.83741 0.48603 0.69932 0.0
H884 H 0.86081 0.49469 0.70948 0.0
H885 H 0.85358 0.47389 0.7615 0.0
H886 H 0.87794 0.48241 0.85444 0.0
H887 H 0.91124 0.4826 0.87138 0.0
H888 H 0.99881 0.22762 0.95439 0.0
H889 H 0.99859 0.19785 0.88083 0.0
H890 H 0.0426 0.17765 0.03269 0.0
H891 H 0.04291 0.20717 0.1058 0.0
H892 H 0.03638 0.17254 0.81597 0.0
H893 H 0.98889 0.14491 0.05077 0.0
H894 H 0.98858 0.16903 0.02128 0.0
H895 H 1.0074 0.16031 0.0807 0.0
C896 C 1.00885 0.21705 0.97019 0.0
C897 C 0.02091 0.21979 0.03586 0.0
C898 C 1.00862 0.19999 0.92851 0.0
C899 C 0.02052 0.18546 0.95157 0.0
C900 C 0.03329 0.18861 0.01384 0.0
H901 H 0.02741 0.06606 0.90263 0.0
H902 H 0.02777 0.09868 0.94408 0.0
C903 C 0.03349 0.20553 0.05544 0.0
C904 C 0.01871 0.16644 0.91638 0.0
H905 H 1.0007 0.12355 0.95684 0.0
C906 C 0.02844 0.16183 0.84612 0.0
C907 C 1.00845 0.15247 0.95602 0.0
C908 C 0.99763 0.15678 0.0313 0.0
C909 C 0.02854 0.14351 0.81559 0.0
C910 C 0.01849 0.12938 0.85612 0.0
C911 C 1.0085 0.1342 0.92569 0.0
C912 C 0.01853 0.10944 0.82931 0.0
C913 C 0.04001 0.13941 0.7419 0.0
C914 C 1.01309 0.10434 0.75107 0.0
C915 C 1.01312 0.08566 0.72684 0.0
C916 C 0.0182 0.07144 0.78068 0.0
C917 C 0.02343 0.07654 0.85931 0.0
C918 C 0.02359 0.09526 0.88322 0.0
H919 H 0.05078 0.15019 0.73188 0.0
H920 H 0.04694 0.1257 0.74674 0.0
H921 H 0.03083 0.1392 0.68828 0.0
H922 H 1.00862 0.11481 0.70877 0.0
H923 H 1.00909 0.08237 0.66577 0.0
H924 H 0.30331 0.99494 0.95604 0.0
H925 H 0.33293 0.99425 0.88232 0.0
H926 H 0.34997 0.04454 0.00204 0.0
H927 H 0.32058 0.04518 0.07586 0.0
H928 H 0.35926 0.04174 0.82697 0.0
H929 H 0.3822 0.98146 0.0107 0.0
H930 H 0.36008 0.97969 0.96084 0.0
H931 H 0.36315 0.99617 0.04073 0.0
C932 C 0.31316 1.00613 0.96473 0.0
C933 C 0.30953 0.02018 0.02147 0.0
C934 C 0.33017 1.00562 0.92326 0.0
C935 C 0.34384 0.01923 0.93724 0.0
C936 C 0.33973 0.03387 0.99016 0.0
H937 H 0.46363 0.02022 0.89351 0.0
H938 H 0.43107 0.02069 0.93538 0.0
C939 C 0.32287 0.03426 0.03213 0.0
C940 C 0.36287 0.0177 0.90173 0.0
H941 H 0.40356 0.99343 0.91764 0.0
C942 C 0.36889 0.03107 0.84616 0.0
C943 C 0.37558 1.00393 0.92742 0.0
C944 C 0.37009 0.98951 0.98856 0.0
C945 C 0.38722 0.03111 0.81615 0.0
C946 C 0.39997 0.01739 0.84222 0.0
C947 C 0.39387 1.00394 0.89737 0.0
C948 C 0.41986 0.01713 0.81556 0.0
C949 C 0.39294 0.04623 0.75869 0.0
C950 C 0.42461 0.0148 0.73417 0.0
C951 C 0.44329 0.01435 0.71002 0.0
C952 C 0.45776 0.01638 0.7666 0.0
C953 C 0.45295 0.01869 0.84806 0.0
C954 C 0.43428 0.01893 0.87221 0.0
H955 H 0.38301 0.05802 0.75907 0.0
H956 H 0.40697 0.05156 0.7738 0.0
H957 H 0.39338 0.04048 0.69675 0.0
H958 H 0.41385 1.01314 0.68922 0.0
H959 H 0.44636 1.01246 0.6468 0.0
H960 H 0.48449 0.3054 0.96518 0.0
H961 H 0.48465 0.33473 0.88921 0.0
H962 H 0.53668 0.34966 0.99992 0.0
H963 H 0.53661 0.32053 0.07487 0.0
H964 H 0.48402 0.37003 0.95682 0.0
H965 H 0.54604 0.36271 0.76504 0.0
H966 H 0.53505 0.3432 0.81302 0.0
H967 H 0.55093 0.35768 0.86849 0.0
C968 C 0.49621 0.31471 0.97133 0.0
C969 C 0.51059 0.31056 0.02578 0.0
C970 C 0.49622 0.33156 0.92845 0.0
C971 C 0.51075 0.34447 0.93814 0.0
C972 C 0.52546 0.33992 0.98998 0.0
H973 H 0.5093 0.46458 0.90224 0.0
H974 H 0.50809 0.43195 0.94227 0.0
C975 C 0.52538 0.32323 0.03311 0.0
C976 C 0.50996 0.36331 0.9 0.0
H977 H 0.53522 0.39394 0.78721 0.0
C978 C 0.49513 0.37517 0.91901 0.0
C979 C 0.52423 0.37007 0.84938 0.0
C980 C 0.53986 0.3577 0.82204 0.0
C981 C 0.49459 0.39372 0.89202 0.0
C982 C 0.50953 0.4009 0.84605 0.0
C983 C 0.52392 0.38874 0.82372 0.0
C984 C 0.51055 0.42095 0.82147 0.0
C985 C 0.47787 0.40536 0.91268 0.0
C986 C 0.51302 0.42591 0.74041 0.0
C987 C 0.51395 0.44465 0.71749 0.0
C988 C 0.51249 0.459 0.77486 0.0
C989 C 0.51027 0.454 0.85609 0.0
C990 C 0.50944 0.43526 0.87907 0.0
H991 H 0.46547 0.39657 0.92368 0.0
H992 H 0.48074 0.41328 0.96861 0.0
H993 H 0.47457 0.41534 0.86393 0.0
H994 H 0.51404 0.41527 0.69453 0.0
H995 H 0.51572 0.4479 0.65456 0.0
H996 H 0.20953 0.54319 0.06955 0.0
H997 H 0.17998 0.54101 0.99832 0.0
H998 H 0.19964 0.49269 0.87126 0.0
H999 H 0.22935 0.49462 0.94458 0.0
H1000 H 0.16882 0.5418 0.8432 0.0
H1001 H 0.15261 0.47285 0.97422 0.0
H1002 H 0.17186 0.48676 0.00869 0.0
H1003 H 0.17361 0.47386 0.91642 0.0
C1004 C 0.20769 0.53221 0.02564 0.0
C1005 C 0.22181 0.519 0.01331 0.0
C1006 C 0.19072 0.53097 0.98482 0.0
C1007 C 0.18724 0.51644 0.93045 0.0
C1008 C 0.20172 0.5038 0.91425 0.0
H1009 H 0.08255 0.51779 0.64927 0.0
H1010 H 0.11531 0.51855 0.68766 0.0
C1011 C 0.21883 0.50506 0.95531 0.0
C1012 C 0.16821 0.51441 0.89423 0.0
H1013 H 0.13013 0.48593 0.88871 0.0
C1014 C 0.16043 0.52951 0.85263 0.0
C1015 C 0.15702 0.4985 0.9073 0.0
C1016 C 0.16407 0.48211 0.95463 0.0
C1017 C 0.14188 0.5293 0.82515 0.0
C1018 C 0.1307 0.51337 0.83796 0.0
C1019 C 0.13858 0.49815 0.87842 0.0
C1020 C 0.11061 0.5125 0.81334 0.0
C1021 C 0.13428 0.54654 0.78569 0.0
C1022 C 0.0968 0.50841 0.87037 0.0
C1023 C 0.07795 0.50793 0.84853 0.0
C1024 C 0.07234 0.51134 0.76871 0.0
C1025 C 0.08622 0.51507 0.71131 0.0
C1026 C 0.10505 0.51565 0.73336 0.0
H1027 H 0.14267 0.55901 0.80081 0.0
H1028 H 0.13462 0.54475 0.71943 0.0
H1029 H 0.11971 0.54913 0.80407 0.0
H1030 H 0.10057 0.50588 0.93248 0.0
H1031 H 0.06776 0.50499 0.89455 0.0
H1032 H 0.99061 0.82685 0.26687 0.0
H1033 H 0.99153 0.85546 0.34491 0.0
H1034 H 0.02832 0.82967 0.51616 0.0
H1035 H 0.02792 0.80089 0.43569 0.0
H1036 H 0.9821 0.86528 0.49384 0.0
H1037 H 0.0582 0.87497 0.4596 0.0
H1038 H 0.04567 0.85731 0.40504 0.0
H1039 H 0.0512 0.85406 0.50958 0.0
C1040 C 0.99886 0.82718 0.32139 0.0
C1041 C 1.00941 0.81159 0.34422 0.0
C1042 C 0.99934 0.84361 0.36627 0.0
C1043 C 1.01034 0.84507 0.43575 0.0
C1044 C 0.02009 0.82918 0.46168 0.0
H1045 H 0.03163 0.94872 0.70781 0.0
H1046 H 0.03026 0.91592 0.66796 0.0
C1047 C 0.01966 0.8126 0.41628 0.0
C1048 C 1.01169 0.86347 0.47816 0.0
H1049 H 0.04182 0.89865 0.526 0.0
C1050 C 0.99521 0.87248 0.50116 0.0
C1051 C 0.02876 0.87301 0.48868 0.0
C1052 C 0.04698 0.86446 0.46397 0.0
C1053 C 0.99526 0.89073 0.53189 0.0
C1054 C 1.01221 0.90054 0.53903 0.0
C1055 C 0.02878 0.89128 0.51969 0.0
C1056 C 1.01294 0.92056 0.56377 0.0
C1057 C 0.97708 0.89938 0.55644 0.0
C1058 C 1.00394 0.93428 0.51791 0.0
C1059 C 1.00463 0.95306 0.54086 0.0
C1060 C 0.01429 0.95859 0.61051 0.0
C1061 C 0.02361 0.94488 0.65535 0.0
C1062 C 0.02299 0.92613 0.63217 0.0
H1063 H 0.96639 0.88867 0.56914 0.0
H1064 H 0.97882 0.90824 0.61065 0.0
H1065 H 0.97188 0.90821 0.50669 0.0
H1066 H 0.99643 0.93049 0.46386 0.0
H1067 H 0.99741 0.96322 0.50452 0.0
H1068 H 0.72076 0.98325 0.38809 0.0
H1069 H 0.68968 0.98311 0.44902 0.0
H1070 H 0.68732 0.04269 0.42837 0.0
H1071 H 0.71806 0.04272 0.36557 0.0
H1072 H 0.67195 0.99834 0.57804 0.0
H1073 H 0.64247 0.02765 0.29839 0.0
H1074 H 0.66608 0.01956 0.30488 0.0
H1075 H 0.66 0.04224 0.34183 0.0
C1076 C 0.71382 0.99634 0.39903 0.0
C1077 C 0.72195 1.01302 0.37299 0.0
C1078 C 0.69596 0.99626 0.43316 0.0
C1079 C 0.68581 1.01285 0.44147 0.0
C1080 C 0.69454 0.02963 0.42075 0.0
H1081 H 0.58062 0.0284 0.69949 0.0
H1082 H 0.61323 0.02765 0.6589 0.0
C1083 C 0.71227 0.02969 0.38609 0.0
C1084 C 0.66586 1.01257 0.4676 0.0
H1085 H 0.62215 0.0258 0.41022 0.0
C1086 C 0.66109 1.00446 0.54158 0.0
C1087 C 0.65145 0.01998 0.41906 0.0
C1088 C 0.65518 0.02767 0.33627 0.0
C1089 C 0.6426 1.00419 0.56956 0.0
C1090 C 0.6283 1.01221 0.52221 0.0
C1091 C 0.63301 0.01984 0.44724 0.0
C1092 C 0.60835 1.01253 0.5482 0.0
C1093 C 0.63852 0.99503 0.64908 0.0
C1094 C 0.59441 1.00485 0.49884 0.0
C1095 C 0.57568 1.00529 0.52219 0.0
C1096 C 0.57037 1.01342 0.59561 0.0
C1097 C 0.58427 0.02145 0.64407 0.0
C1098 C 0.60298 0.02105 0.62072 0.0
H1099 H 0.64975 0.98532 0.66705 0.0
H1100 H 0.6374 1.00584 0.69638 0.0
H1101 H 0.62522 0.98728 0.6468 0.0
H1102 H 0.59805 0.99834 0.44227 0.0
H1103 H 0.56537 0.99905 0.48309 0.0
H1104 H 0.53947 0.72197 0.36054 0.0
H1105 H 0.54439 0.69125 0.42229 0.0
H1106 H 0.48551 0.68591 0.46002 0.0
H1107 H 0.48059 0.71638 0.39927 0.0
H1108 H 0.53159 0.67395 0.5807 0.0
H1109 H 0.50121 0.6417 0.30691 0.0
H1110 H 0.50987 0.66522 0.30839 0.0
H1111 H 0.48766 0.65996 0.35139 0.0
C1112 C 0.52768 0.71446 0.38423 0.0
C1113 C 0.50964 0.72159 0.37471 0.0
C1114 C 0.53047 0.69685 0.41899 0.0
C1115 C 0.51527 0.6861 0.44456 0.0
C1116 C 0.49743 0.69378 0.43981 0.0
H1117 H 0.50476 0.5829 0.71257 0.0
H1118 H 0.50564 0.61522 0.66826 0.0
C1119 C 0.49465 0.71126 0.40539 0.0
C1120 C 0.51763 0.66642 0.471 0.0
H1121 H 0.50635 0.6219 0.41819 0.0
C1122 C 0.52621 0.66254 0.54499 0.0
C1123 C 0.51076 0.65147 0.42418 0.0
C1124 C 0.50198 0.65468 0.34294 0.0
C1125 C 0.52765 0.64421 0.57424 0.0
C1126 C 0.52014 0.62929 0.52865 0.0
C1127 C 0.51204 0.6332 0.45363 0.0
C1128 C 0.5203 0.60958 0.55759 0.0
C1129 C 0.53735 0.64102 0.65344 0.0
C1130 C 0.52785 0.59536 0.50968 0.0
C1131 C 0.52733 0.57678 0.53504 0.0
C1132 C 0.51917 0.57188 0.60894 0.0
C1133 C 0.51151 0.58613 0.65641 0.0
C1134 C 0.51203 0.60469 0.63107 0.0
H1135 H 0.54709 0.6525 0.6679 0.0
H1136 H 0.52686 0.64039 0.70213 0.0
H1137 H 0.54519 0.62776 0.65308 0.0
H1138 H 0.53419 0.59864 0.45243 0.0
H1139 H 0.53335 0.56624 0.49658 0.0
H1140 H 0.79985 0.49801 0.48079 0.0
H1141 H 0.82957 0.50128 0.55315 0.0
H1142 H 0.85182 0.53224 0.35373 0.0
H1143 H 0.82229 0.52961 0.28352 0.0
H1144 H 0.86287 0.48799 0.51229 0.0
H1145 H 0.87 0.56392 0.53311 0.0
H1146 H 0.84834 0.55297 0.50632 0.0
H1147 H 0.86581 0.55716 0.43099 0.0
C1148 C 0.81092 0.50599 0.45367 0.0
C1149 C 0.80861 0.51354 0.37625 0.0
C1150 C 0.828 0.50772 0.49473 0.0
C1151 C 0.84308 0.51722 0.45973 0.0
C1152 C 0.84047 0.52524 0.38356 0.0
H1153 H 0.96192 0.53095 0.5037 0.0
H1154 H 0.92892 0.53073 0.46747 0.0
C1155 C 0.82351 0.52357 0.34291 0.0
C1156 C 0.86194 0.51766 0.49872 0.0
H1157 H 0.89855 0.54647 0.54099 0.0
C1158 C 0.87054 0.50082 0.51967 0.0
C1159 C 0.87213 0.53436 0.50923 0.0
C1160 C 0.86349 0.55311 0.49453 0.0
C1161 C 0.88917 0.50013 0.54612 0.0
C1162 C 0.89962 0.51676 0.55279 0.0
C1163 C 0.89079 0.53365 0.53482 0.0
C1164 C 0.9198 0.51696 0.57604 0.0
C1165 C 0.89769 0.48144 0.56344 0.0
C1166 C 0.92589 0.50949 0.64954 0.0
C1167 C 0.94481 0.5095 0.67011 0.0
C1168 C 0.95821 0.51725 0.61844 0.0
C1169 C 0.95208 0.52487 0.54514 0.0
C1170 C 0.93314 0.52481 0.52446 0.0
H1171 H 0.88962 0.46996 0.53556 0.0
H1172 H 0.91218 0.48072 0.54118 0.0
H1173 H 0.89787 0.47915 0.62942 0.0
H1174 H 0.916 0.50362 0.69124 0.0
H1175 H 0.94897 0.50316 0.72623 0.0
loop_
_geom_bond_atom_site_label_1
_geom_bond_atom_site_label_2
_geom_bond_distance
_geom_bond_site_symmetry_2
_ccdc_geom_bond_type
H0 C1 0.949 . S
C1 H0 0.949 . S
C1 C2 1.395 . S
C1 C3 1.391 . S
C2 C1 1.395 . S
C2 C5 1.390 . S
C3 C1 1.391 . S
C3 C7 1.387 . S
C3 C8 1.491 . S
H4 C5 0.950 . S
C5 C2 1.390 . S
C5 H4 0.950 . S
C5 C6 1.378 . S
C6 C5 1.378 . S
C6 C7 1.409 . S
C7 C3 1.387 . S
C7 C6 1.409 . S
C7 H9 0.951 . S
C8 C3 1.491 . S
C8 C10 1.382 . S
C8 C12 1.404 . S
H9 C7 0.951 . S
C10 C8 1.382 . S
C10 C11 1.390 . S
C10 H15 0.949 . S
C11 C10 1.390 . S
C11 C16 1.399 . S
C12 C8 1.404 . S
C12 H13 0.950 . S
C12 C14 1.375 . S
H13 C12 0.950 . S
C14 C12 1.375 . S
C14 C16 1.382 . S
C14 H18 0.950 . S
H15 C10 0.949 . S
C16 C11 1.399 . S
C16 C14 1.382 . S
C16 H17 0.952 . S
H17 C16 0.952 . S
H18 C14 0.950 . S
H19 C20 0.949 . S
C20 H19 0.949 . S
C20 C21 1.395 . S
C20 C22 1.391 . S
C21 C20 1.395 . S
C21 C24 1.390 1_655 S
C22 C20 1.391 . S
C22 C26 1.387 . S
C22 C27 1.491 . S
H23 C24 0.950 . S
C24 C21 1.390 1_455 S
C24 H23 0.950 . S
C24 C25 1.377 1_455 S
C25 C24 1.377 1_655 S
C25 C26 1.413 . S
C26 C22 1.387 . S
C26 C25 1.413 . S
C26 H28 0.951 . S
C27 C22 1.491 . S
C27 C29 1.407 . S
C27 C31 1.404 . S
H28 C26 0.951 . S
C29 C27 1.407 . S
C29 C30 1.403 . S
C29 H34 0.913 1_655 S
C30 C29 1.403 . S
C30 C35 1.399 . S
C31 C27 1.404 . S
C31 H32 0.950 . S
C31 C33 1.375 . S
H32 C31 0.950 . S
C33 C31 1.375 . S
C33 C35 1.382 . S
C33 H37 0.950 . S
H34 C29 0.913 1_455 S
C35 C30 1.399 . S
C35 C33 1.382 . S
C35 H36 0.952 . S
H36 C35 0.952 . S
H37 C33 0.950 . S
H38 C39 0.949 . S
C39 H38 0.949 . S
C39 C40 1.395 . S
C39 C41 1.391 . S
C40 C39 1.395 . S
C40 C43 1.390 1_565 S
C41 C39 1.391 . S
C41 C45 1.387 . S
C41 C46 1.491 . S
H42 C43 0.950 . S
C43 C40 1.390 1_545 S
C43 H42 0.950 . S
C43 C44 1.377 1_545 S
C44 C43 1.377 1_565 S
C44 C45 1.413 . S
C45 C41 1.387 . S
C45 C44 1.413 . S
C45 H47 0.951 . S
C46 C41 1.491 . S
C46 C48 1.407 . S
C46 C50 1.404 . S
H47 C45 0.951 . S
C48 C46 1.407 . S
C48 C49 1.403 . S
C48 H53 0.913 1_565 S
C49 C48 1.403 . S
C49 C54 1.399 . S
C50 C46 1.404 . S
C50 H51 0.950 . S
C50 C52 1.375 . S
H51 C50 0.950 . S
C52 C50 1.375 . S
C52 C54 1.382 . S
C52 H56 0.950 . S
H53 C48 0.913 1_545 S
C54 C49 1.399 . S
C54 C52 1.382 . S
C54 H55 0.952 . S
H55 C54 0.952 . S
H56 C52 0.950 . S
H57 C58 0.949 . S
C58 H57 0.949 . S
C58 C59 1.395 . S
C58 C60 1.391 . S
C59 C58 1.395 . S
C59 C62 1.390 . S
C60 C58 1.391 . S
C60 C64 1.387 . S
C60 C65 1.491 . S
H61 C62 0.950 . S
C62 C59 1.390 . S
C62 H61 0.950 . S
C62 C63 1.378 . S
C63 C62 1.378 . S
C63 C64 1.409 . S
C64 C60 1.387 . S
C64 C63 1.409 . S
C64 H66 0.951 . S
C65 C60 1.491 . S
C65 C67 1.382 . S
C65 C69 1.404 . S
H66 C64 0.951 . S
C67 C65 1.382 . S
C67 C68 1.390 . S
C67 H72 0.949 . S
C68 C67 1.390 . S
C68 C73 1.399 . S
C69 C65 1.404 . S
C69 H70 0.950 . S
C69 C71 1.375 . S
H70 C69 0.950 . S
C71 C69 1.375 . S
C71 C73 1.382 . S
C71 H75 0.950 . S
H72 C67 0.949 . S
C73 C68 1.399 . S
C73 C71 1.382 . S
C73 H74 0.952 . S
H74 C73 0.952 . S
H75 C71 0.950 . S
H76 C77 0.949 . S
C77 H76 0.949 . S
C77 C78 1.395 . S
C77 C79 1.391 . S
C78 C77 1.395 . S
C78 C81 1.391 1_554 S
C79 C77 1.391 . S
C79 C83 1.387 1_554 S
C79 C84 1.491 . S
H80 C81 0.950 . S
C81 C78 1.391 1_556 S
C81 H80 0.950 . S
C81 C82 1.377 . S
C82 C81 1.377 . S
C82 C83 1.409 . S
C83 C79 1.387 1_556 S
C83 C82 1.409 . S
C83 H85 0.951 . S
C84 C79 1.491 . S
C84 C86 1.382 . S
C84 C88 1.404 1_554 S
H85 C83 0.951 . S
C86 C84 1.382 . S
C86 C87 1.390 . S
C86 H91 0.949 . S
C87 C86 1.390 . S
C87 C92 1.399 . S
C88 C84 1.404 1_556 S
C88 H89 0.950 . S
C88 C90 1.375 . S
H89 C88 0.950 . S
C90 C88 1.375 . S
C90 C92 1.382 1_556 S
C90 H94 0.950 . S
H91 C86 0.949 . S
C92 C87 1.399 . S
C92 C90 1.382 1_554 S
C92 H93 0.952 . S
H93 C92 0.952 . S
H94 C90 0.950 . S
H95 C96 0.949 . S
C96 H95 0.949 . S
C96 C97 1.395 1_655 S
C96 C98 1.391 . S
C97 C96 1.395 1_455 S
C97 C100 1.390 . S
C98 C96 1.391 . S
C98 C102 1.387 1_554 S
C98 C103 1.491 . S
H99 C100 0.950 . S
C100 C97 1.390 . S
C100 H99 0.950 . S
C100 C101 1.378 1_454 S
C101 C100 1.378 1_656 S
C101 C102 1.410 . S
C102 C98 1.387 1_556 S
C102 C101 1.410 . S
C102 H104 0.951 . S
C103 C98 1.491 . S
C103 C105 1.400 . S
C103 C107 1.404 1_554 S
H104 C102 0.951 . S
C105 C103 1.400 . S
C105 C106 1.399 . S
C105 H110 0.922 1_655 S
C106 C105 1.399 . S
C106 C111 1.399 . S
C107 C103 1.404 1_556 S
C107 H108 0.950 . S
C107 C109 1.375 . S
H108 C107 0.950 . S
C109 C107 1.375 . S
C109 C111 1.382 1_556 S
C109 H113 0.950 . S
H110 C105 0.922 1_455 S
C111 C106 1.399 . S
C111 C109 1.382 1_554 S
C111 H112 0.952 . S
H112 C111 0.952 . S
H113 C109 0.950 . S
H114 C115 0.949 . S
C115 H114 0.949 . S
C115 C116 1.395 1_565 S
C115 C117 1.391 . S
C116 C115 1.395 1_545 S
C116 C119 1.397 . S
C117 C115 1.391 . S
C117 C121 1.387 1_554 S
C117 C122 1.491 . S
H118 C119 0.950 . S
C119 C116 1.397 . S
C119 H118 0.950 . S
C119 C120 1.371 1_544 S
C120 C119 1.371 1_566 S
C120 C121 1.410 . S
C121 C117 1.387 1_556 S
C121 C120 1.410 . S
C121 H123 0.951 . S
C122 C117 1.491 . S
C122 C124 1.400 . S
C122 C126 1.404 1_554 S
H123 C121 0.951 . S
C124 C122 1.400 . S
C124 C125 1.399 . S
C124 H129 0.922 1_565 S
C125 C124 1.399 . S
C125 C130 1.399 . S
C126 C122 1.404 1_556 S
C126 H127 0.950 . S
C126 C128 1.375 . S
H127 C126 0.950 . S
C128 C126 1.375 . S
C128 C130 1.382 1_556 S
C128 H132 0.950 . S
H129 C124 0.922 1_545 S
C130 C125 1.399 . S
C130 C128 1.382 1_554 S
C130 H131 0.952 . S
H131 C130 0.952 . S
H132 C128 0.950 . S
H133 C134 0.949 . S
C134 H133 0.949 . S
C134 C135 1.395 . S
C134 C136 1.391 . S
C135 C134 1.395 . S
C135 C138 1.383 1_554 S
C136 C134 1.391 . S
C136 C140 1.387 1_554 S
C136 C141 1.491 . S
H137 C138 0.950 . S
C138 C135 1.383 1_556 S
C138 H137 0.950 . S
C138 C139 1.386 . S
C139 C138 1.386 . S
C139 C140 1.409 . S
C140 C136 1.387 1_556 S
C140 C139 1.409 . S
C140 H142 0.951 . S
C141 C136 1.491 . S
C141 C143 1.382 . S
C141 C145 1.404 1_554 S
H142 C140 0.951 . S
C143 C141 1.382 . S
C143 C144 1.390 . S
C143 H148 0.949 . S
C144 C143 1.390 . S
C144 C149 1.399 . S
C145 C141 1.404 1_556 S
C145 H146 0.950 . S
C145 C147 1.375 . S
H146 C145 0.950 . S
C147 C145 1.375 . S
C147 C149 1.382 1_556 S
C147 H151 0.950 . S
H148 C143 0.949 . S
C149 C144 1.399 . S
C149 C147 1.382 1_554 S
C149 H150 0.952 . S
H150 C149 0.952 . S
H151 C147 0.950 . S
Tb152 C154 2.809 . S
Tb152 O172 2.484 1_455 S
Tb152 O173 2.440 . S
Tb152 O174 2.658 1_565 S
Tb152 O175 2.409 . S
Tb152 O176 2.378 . S
Tb152 O180 2.325 1_455 S
Tb152 O183 2.341 1_565 S
Tb153 C163 2.809 . S
Tb153 O174 2.325 1_655 S
Tb153 O177 2.341 1_545 S
Tb153 O178 2.484 1_655 S
Tb153 O179 2.440 . S
Tb153 O180 2.658 1_545 S
Tb153 O181 2.409 . S
Tb153 O182 2.378 . S
C154 Tb152 2.809 . S
C154 C155 1.514 . S
C154 O172 1.248 1_455 S
C154 O173 1.266 . S
C155 C154 1.514 . S
C155 C156 1.353 1_455 S
C155 C160 1.348 . S
C156 C155 1.353 1_655 S
C156 C157 1.378 1_655 S
C156 H184 0.935 . S
C157 C156 1.378 1_455 S
C157 C158 1.403 . S
C157 H185 0.878 1_455 S
C158 C157 1.403 . S
C158 C159 1.369 . S
C159 C158 1.369 . S
C159 C160 1.408 . S
C159 H186 0.930 . S
C160 C155 1.348 . S
C160 C159 1.408 . S
C160 H187 0.930 . S
C161 O174 1.265 1_565 S
C161 O175 1.278 . S
C162 O176 1.236 1_655 S
C162 O177 1.266 . S
C163 Tb153 2.809 . S
C163 C164 1.514 . S
C163 O178 1.248 1_655 S
C163 O179 1.266 . S
C164 C163 1.514 . S
C164 C165 1.341 1_655 S
C164 C169 1.348 . S
C165 C164 1.341 1_455 S
C165 C166 1.378 1_455 S
C165 H188 0.948 . S
C166 C165 1.378 1_655 S
C166 C167 1.390 . S
C166 H189 0.890 1_655 S
C167 C166 1.390 . S
C167 C168 1.369 . S
C168 C167 1.369 . S
C168 C169 1.408 . S
C168 H190 0.930 . S
C169 C164 1.348 . S
C169 C168 1.408 . S
C169 H191 0.930 . S
C170 O180 1.260 1_545 S
C170 O181 1.285 . S
C171 O182 1.236 1_455 S
C171 O183 1.266 . S
O172 Tb152 2.484 1_655 S
O172 C154 1.248 1_655 S
O173 Tb152 2.440 . S
O173 C154 1.266 . S
O174 Tb152 2.658 1_545 S
O174 Tb153 2.325 1_455 S
O174 C161 1.265 1_545 S
O175 Tb152 2.409 . S
O175 C161 1.278 . S
O176 Tb152 2.378 . S
O176 C162 1.236 1_455 S
O177 Tb153 2.341 1_565 S
O177 C162 1.266 . S
O178 Tb153 2.484 1_455 S
O178 C163 1.248 1_455 S
O179 Tb153 2.440 . S
O179 C163 1.266 . S
O180 Tb152 2.325 1_655 S
O180 Tb153 2.658 1_565 S
O180 C170 1.260 1_565 S
O181 Tb153 2.409 . S
O181 C170 1.285 . S
O182 Tb153 2.378 . S
O182 C171 1.236 1_655 S
O183 Tb152 2.341 1_545 S
O183 C171 1.266 . S
H184 C156 0.935 . S
H185 C157 0.878 1_655 S
H186 C159 0.930 . S
H187 C160 0.930 . S
H188 C165 0.948 . S
H189 C166 0.890 1_455 S
H190 C168 0.930 . S
H191 C169 0.930 . S
Tb192 C194 2.809 . S
Tb192 O212 2.484 1_545 S
Tb192 O213 2.440 . S
Tb192 O214 2.658 . S
Tb192 O215 2.409 . S
Tb192 O216 2.378 . S
Tb192 O220 2.325 1_545 S
Tb192 O223 2.341 . S
Tb193 C203 2.809 . S
Tb193 O214 2.325 1_565 S
Tb193 O217 2.341 . S
Tb193 O218 2.484 1_565 S
Tb193 O219 2.440 . S
Tb193 O220 2.658 . S
Tb193 O221 2.409 . S
Tb193 O222 2.378 . S
C194 Tb192 2.809 . S
C194 C195 1.514 . S
C194 O212 1.248 1_545 S
C194 O213 1.266 . S
C195 C194 1.514 . S
C195 C196 1.348 1_545 S
C195 C200 1.348 . S
C196 C195 1.348 1_565 S
C196 C197 1.378 1_565 S
C196 H224 0.940 . S
C197 C196 1.378 1_545 S
C197 C198 1.397 . S
C197 H225 0.884 1_545 S
C198 C197 1.397 . S
C198 C199 1.369 . S
C199 C198 1.369 . S
C199 C200 1.408 . S
C199 H226 0.930 . S
C200 C195 1.348 . S
C200 C199 1.408 . S
C200 H227 0.930 . S
C201 O214 1.281 . S
C201 O215 1.254 . S
C202 O216 1.236 1_565 S
C202 O217 1.266 . S
C203 Tb193 2.809 . S
C203 C204 1.514 . S
C203 O218 1.248 1_565 S
C203 O219 1.266 . S
C204 C203 1.514 . S
C204 C205 1.336 1_565 S
C204 C209 1.348 . S
C205 C204 1.336 1_545 S
C205 C206 1.378 1_545 S
C205 H228 0.953 . S
C206 C205 1.378 1_565 S
C206 C207 1.383 . S
C206 H229 0.896 1_565 S
C207 C206 1.383 . S
C207 C208 1.369 . S
C208 C207 1.369 . S
C208 C209 1.408 . S
C208 H230 0.930 . S
C209 C204 1.348 . S
C209 C208 1.408 . S
C209 H231 0.930 . S
C210 O220 1.281 . S
C210 O221 1.254 . S
C211 O222 1.236 1_545 S
C211 O223 1.266 . S
O212 Tb192 2.484 1_565 S
O212 C194 1.248 1_565 S
O213 Tb192 2.440 . S
O213 C194 1.266 . S
O214 Tb192 2.658 . S
O214 Tb193 2.325 1_545 S
O214 C201 1.281 . S
O215 Tb192 2.409 . S
O215 C201 1.254 . S
O216 Tb192 2.378 . S
O216 C202 1.236 1_545 S
O217 Tb193 2.341 . S
O217 C202 1.266 . S
O218 Tb193 2.484 1_545 S
O218 C203 1.248 1_545 S
O219 Tb193 2.440 . S
O219 C203 1.266 . S
O220 Tb192 2.325 1_565 S
O220 Tb193 2.658 . S
O220 C210 1.281 . S
O221 Tb193 2.409 . S
O221 C210 1.254 . S
O222 Tb193 2.378 . S
O222 C211 1.236 1_565 S
O223 Tb192 2.341 . S
O223 C211 1.266 . S
H224 C196 0.940 . S
H225 C197 0.884 1_565 S
H226 C199 0.930 . S
H227 C200 0.930 . S
H228 C205 0.953 . S
H229 C206 0.896 1_545 S
H230 C208 0.930 . S
H231 C209 0.930 . S
Tb232 C234 2.809 . S
Tb232 O252 2.484 . S
Tb232 O253 2.440 . S
Tb232 O254 2.658 . S
Tb232 O255 2.409 . S
Tb232 O256 2.378 . S
Tb232 O260 2.325 . S
Tb232 O263 2.341 . S
Tb233 C243 2.809 . S
Tb233 O254 2.325 . S
Tb233 O257 2.341 . S
Tb233 O258 2.484 . S
Tb233 O259 2.440 . S
Tb233 O260 2.658 . S
Tb233 O261 2.409 . S
Tb233 O262 2.378 . S
C234 Tb232 2.809 . S
C234 C235 1.514 . S
C234 O252 1.248 . S
C234 O253 1.266 . S
C235 C234 1.514 . S
C235 C236 1.359 . S
C235 C240 1.348 . S
C236 C235 1.359 . S
C236 C237 1.380 . S
C236 H264 0.929 . S
C237 C236 1.380 . S
C237 C238 1.347 . S
C237 H265 0.931 . S
C238 C237 1.347 . S
C238 C239 1.369 . S
C239 C238 1.369 . S
C239 C240 1.408 . S
C239 H266 0.930 . S
C240 C235 1.348 . S
C240 C239 1.408 . S
C240 H267 0.930 . S
C241 O254 1.281 . S
C241 O255 1.254 . S
C242 O256 1.236 . S
C242 O257 1.266 . S
C243 Tb233 2.809 . S
C243 C244 1.514 . S
C243 O258 1.248 . S
C243 O259 1.266 . S
C244 C243 1.514 . S
C244 C245 1.359 . S
C244 C249 1.348 . S
C245 C244 1.359 . S
C245 C246 1.380 . S
C245 H268 0.929 . S
C246 C245 1.380 . S
C246 C247 1.347 . S
C246 H269 0.931 . S
C247 C246 1.347 . S
C247 C248 1.369 . S
C248 C247 1.369 . S
C248 C249 1.408 . S
C248 H270 0.930 . S
C249 C244 1.348 . S
C249 C248 1.408 . S
C249 H271 0.930 . S
C250 O260 1.281 . S
C250 O261 1.254 . S
C251 O262 1.236 . S
C251 O263 1.266 . S
O252 Tb232 2.484 . S
O252 C234 1.248 . S
O253 Tb232 2.440 . S
O253 C234 1.266 . S
O254 Tb232 2.658 . S
O254 Tb233 2.325 . S
O254 C241 1.281 . S
O255 Tb232 2.409 . S
O255 C241 1.254 . S
O256 Tb232 2.378 . S
O256 C242 1.236 . S
O257 Tb233 2.341 . S
O257 C242 1.266 . S
O258 Tb233 2.484 . S
O258 C243 1.248 . S
O259 Tb233 2.440 . S
O259 C243 1.266 . S
O260 Tb232 2.325 . S
O260 Tb233 2.658 . S
O260 C250 1.281 . S
O261 Tb233 2.409 . S
O261 C250 1.254 . S
O262 Tb233 2.378 . S
O262 C251 1.236 . S
O263 Tb232 2.341 . S
O263 C251 1.266 . S
H264 C236 0.929 . S
H265 C237 0.931 . S
H266 C239 0.930 . S
H267 C240 0.930 . S
H268 C245 0.929 . S
H269 C246 0.931 . S
H270 C248 0.930 . S
H271 C249 0.930 . S
Tb272 C274 2.809 . S
Tb272 O292 2.484 . S
Tb272 O293 2.440 . S
Tb272 O294 2.658 1_655 S
Tb272 O295 2.409 . S
Tb272 O296 2.378 . S
Tb272 O300 2.325 . S
Tb272 O303 2.341 1_655 S
Tb273 C283 2.809 . S
Tb273 O294 2.325 . S
Tb273 O297 2.341 1_455 S
Tb273 O298 2.484 . S
Tb273 O299 2.440 . S
Tb273 O300 2.658 1_455 S
Tb273 O301 2.409 . S
Tb273 O302 2.378 . S
C274 Tb272 2.809 . S
C274 C275 1.514 . S
C274 O292 1.248 . S
C274 O293 1.266 . S
C275 C274 1.514 . S
C275 C276 1.359 . S
C275 C280 1.348 . S
C276 C275 1.359 . S
C276 C277 1.380 . S
C276 H304 0.929 . S
C277 C276 1.380 . S
C277 C278 1.347 . S
C277 H305 0.931 . S
C278 C277 1.347 . S
C278 C279 1.369 . S
C279 C278 1.369 . S
C279 C280 1.408 . S
C279 H306 0.930 . S
C280 C275 1.348 . S
C280 C279 1.408 . S
C280 H307 0.930 . S
C281 O294 1.267 1_655 S
C281 O295 1.274 . S
C282 O296 1.236 . S
C282 O297 1.266 . S
C283 Tb273 2.809 . S
C283 C284 1.514 . S
C283 O298 1.248 . S
C283 O299 1.266 . S
C284 C283 1.514 . S
C284 C285 1.359 . S
C284 C289 1.348 . S
C285 C284 1.359 . S
C285 C286 1.380 . S
C285 H308 0.929 . S
C286 C285 1.380 . S
C286 C287 1.347 . S
C286 H309 0.931 . S
C287 C286 1.347 . S
C287 C288 1.369 . S
C288 C287 1.369 . S
C288 C289 1.408 . S
C288 H310 0.930 . S
C289 C284 1.348 . S
C289 C288 1.408 . S
C289 H311 0.930 . S
C290 O300 1.262 1_455 S
C290 O301 1.281 . S
C291 O302 1.236 . S
C291 O303 1.266 . S
O292 Tb272 2.484 . S
O292 C274 1.248 . S
O293 Tb272 2.440 . S
O293 C274 1.266 . S
O294 Tb272 2.658 1_455 S
O294 Tb273 2.325 . S
O294 C281 1.267 1_455 S
O295 Tb272 2.409 . S
O295 C281 1.274 . S
O296 Tb272 2.378 . S
O296 C282 1.236 . S
O297 Tb273 2.341 1_655 S
O297 C282 1.266 . S
O298 Tb273 2.484 . S
O298 C283 1.248 . S
O299 Tb273 2.440 . S
O299 C283 1.266 . S
O300 Tb272 2.325 . S
O300 Tb273 2.658 1_655 S
O300 C290 1.262 1_655 S
O301 Tb273 2.409 . S
O301 C290 1.281 . S
O302 Tb273 2.378 . S
O302 C291 1.236 . S
O303 Tb272 2.341 1_455 S
O303 C291 1.266 . S
H304 C276 0.929 . S
H305 C277 0.931 . S
H306 C279 0.930 . S
H307 C280 0.930 . S
H308 C285 0.929 . S
H309 C286 0.931 . S
H310 C288 0.930 . S
H311 C289 0.930 . S
H312 C320 0.929 . S
H313 C322 0.930 . S
H314 C324 0.930 . S
H315 C327 0.929 . S
H316 C330 0.930 . S
H317 C332 0.960 . S
H318 C332 0.935 1_545 S
H319 C332 0.960 . S
C320 H312 0.929 . S
C320 C321 1.393 . S
C320 C322 1.384 . S
C321 C320 1.393 . S
C321 C327 1.374 1_545 S
C322 H313 0.930 . S
C322 C320 1.384 . S
C322 C323 1.372 . S
C323 C322 1.372 . S
C323 C324 1.400 1_545 S
C323 C328 1.490 . S
C324 H314 0.930 . S
C324 C323 1.400 1_565 S
C324 C327 1.386 . S
H325 C341 0.930 . S
H326 C342 0.931 . S
C327 H315 0.929 . S
C327 C321 1.374 1_565 S
C327 C324 1.386 . S
C328 C323 1.490 . S
C328 C330 1.395 . S
C328 C331 1.403 1_545 S
H329 C335 0.930 . S
C330 H316 0.930 . S
C330 C328 1.395 . S
C330 C333 1.403 . S
C331 C328 1.403 1_565 S
C331 C332 1.524 . S
C331 C335 1.400 . S
C332 H317 0.960 . S
C332 H318 0.935 1_565 S
C332 H319 0.960 . S
C332 C331 1.524 . S
C333 C330 1.403 . S
C333 C334 1.392 . S
C333 C337 1.495 . S
C334 C333 1.392 . S
C334 C335 1.385 1_545 S
C334 C336 1.478 . S
C335 H329 0.930 . S
C335 C331 1.400 . S
C335 C334 1.385 1_565 S
C336 C334 1.478 . S
C336 C338 1.381 . S
C336 C342 1.383 1_545 S
C337 C333 1.495 . S
C337 H343 0.959 . S
C337 H344 0.961 . S
C337 H345 0.960 . S
C338 C336 1.381 . S
C338 C339 1.394 . S
C338 H346 0.930 . S
C339 C338 1.394 . S
C339 C340 1.434 . S
C339 H347 0.929 . S
C340 C339 1.434 . S
C340 C341 1.328 1_545 S
C341 H325 0.930 . S
C341 C340 1.328 1_565 S
C341 C342 1.379 . S
C342 H326 0.931 . S
C342 C336 1.383 1_565 S
C342 C341 1.379 . S
H343 C337 0.959 . S
H344 C337 0.961 . S
H345 C337 0.960 . S
H346 C338 0.930 . S
H347 C339 0.929 . S
H348 C356 0.929 . S
H349 C358 0.930 . S
H350 C360 0.930 . S
H351 C363 0.929 . S
H352 C366 0.930 . S
H353 C368 0.960 . S
H354 C368 0.960 . S
H355 C368 0.960 . S
C356 H348 0.929 . S
C356 C357 1.377 . S
C356 C358 1.384 . S
C357 C356 1.377 . S
C357 C363 1.390 . S
C358 H349 0.930 . S
C358 C356 1.384 . S
C358 C359 1.372 . S
C359 C358 1.372 . S
C359 C360 1.400 . S
C359 C364 1.490 . S
C360 H350 0.930 . S
C360 C359 1.400 . S
C360 C363 1.386 . S
H361 C377 0.930 . S
H362 C378 0.931 . S
C363 H351 0.929 . S
C363 C357 1.390 . S
C363 C360 1.386 . S
C364 C359 1.490 . S
C364 C366 1.395 . S
C364 C367 1.403 . S
H365 C371 0.930 . S
C366 H352 0.930 . S
C366 C364 1.395 . S
C366 C369 1.403 . S
C367 C364 1.403 . S
C367 C368 1.524 . S
C367 C371 1.400 . S
C368 H353 0.960 . S
C368 H354 0.960 . S
C368 H355 0.960 . S
C368 C367 1.524 . S
C369 C366 1.403 . S
C369 C370 1.392 . S
C369 C373 1.495 . S
C370 C369 1.392 . S
C370 C371 1.385 . S
C370 C372 1.478 . S
C371 H365 0.930 . S
C371 C367 1.400 . S
C371 C370 1.385 . S
C372 C370 1.478 . S
C372 C374 1.381 . S
C372 C378 1.383 . S
C373 C369 1.495 . S
C373 H379 0.959 . S
C373 H380 0.961 . S
C373 H381 0.960 . S
C374 C372 1.381 . S
C374 C375 1.394 . S
C374 H382 0.930 . S
C375 C374 1.394 . S
C375 C376 1.383 . S
C375 H383 0.929 . S
C376 C375 1.383 . S
C376 C377 1.377 . S
C377 H361 0.930 . S
C377 C376 1.377 . S
C377 C378 1.379 . S
C378 H362 0.931 . S
C378 C372 1.383 . S
C378 C377 1.379 . S
H379 C373 0.959 . S
H380 C373 0.961 . S
H381 C373 0.960 . S
H382 C374 0.930 . S
H383 C375 0.929 . S
H384 C392 0.929 . S
H385 C394 0.930 . S
H386 C396 0.930 . S
H387 C399 0.929 . S
H388 C402 0.930 . S
H389 C404 0.960 . S
H390 C404 0.960 . S
H391 C404 0.960 . S
C392 H384 0.929 . S
C392 C393 1.377 . S
C392 C394 1.384 . S
C393 C392 1.377 . S
C393 C399 1.390 . S
C394 H385 0.930 . S
C394 C392 1.384 . S
C394 C395 1.372 . S
C395 C394 1.372 . S
C395 C396 1.400 . S
C395 C400 1.490 . S
C396 H386 0.930 . S
C396 C395 1.400 . S
C396 C399 1.386 . S
H397 C413 0.930 . S
H398 C414 0.931 . S
C399 H387 0.929 . S
C399 C393 1.390 . S
C399 C396 1.386 . S
C400 C395 1.490 . S
C400 C402 1.395 . S
C400 C403 1.403 . S
H401 C407 0.930 . S
C402 H388 0.930 . S
C402 C400 1.395 . S
C402 C405 1.403 . S
C403 C400 1.403 . S
C403 C404 1.524 . S
C403 C407 1.400 . S
C404 H389 0.960 . S
C404 H390 0.960 . S
C404 H391 0.960 . S
C404 C403 1.524 . S
C405 C402 1.403 . S
C405 C406 1.392 . S
C405 C409 1.495 . S
C406 C405 1.392 . S
C406 C407 1.385 . S
C406 C408 1.478 . S
C407 H401 0.930 . S
C407 C403 1.400 . S
C407 C406 1.385 . S
C408 C406 1.478 . S
C408 C410 1.381 . S
C408 C414 1.383 . S
C409 C405 1.495 . S
C409 H415 0.959 . S
C409 H416 0.961 . S
C409 H417 0.960 . S
C410 C408 1.381 . S
C410 C411 1.394 . S
C410 H418 0.930 . S
C411 C410 1.394 . S
C411 C412 1.383 . S
C411 H419 0.929 . S
C412 C411 1.383 . S
C412 C413 1.377 . S
C413 H397 0.930 . S
C413 C412 1.377 . S
C413 C414 1.379 . S
C414 H398 0.931 . S
C414 C408 1.383 . S
C414 C413 1.379 . S
H415 C409 0.959 . S
H416 C409 0.961 . S
H417 C409 0.960 . S
H418 C410 0.930 . S
H419 C411 0.929 . S
H420 C428 0.929 . S
H421 C430 0.930 . S
H422 C432 0.930 . S
H423 C435 0.929 . S
H424 C438 0.930 . S
H425 C440 0.960 . S
H426 C440 0.960 . S
H427 C440 0.960 . S
C428 H420 0.929 . S
C428 C429 1.384 . S
C428 C430 1.384 . S
C429 C428 1.384 . S
C429 C435 1.383 1_455 S
C430 H421 0.930 . S
C430 C428 1.384 . S
C430 C431 1.387 . S
C431 C430 1.387 . S
C431 C432 1.387 1_455 S
C431 C436 1.490 . S
C432 H422 0.930 . S
C432 C431 1.387 1_655 S
C432 C435 1.386 . S
H433 C449 0.930 . S
H434 C450 0.931 . S
C435 H423 0.929 . S
C435 C429 1.383 1_655 S
C435 C432 1.386 . S
C436 C431 1.490 . S
C436 C438 1.382 1_455 S
C436 C439 1.415 . S
H437 C443 0.930 . S
C438 H424 0.930 . S
C438 C436 1.382 1_655 S
C438 C441 1.403 . S
C439 C436 1.415 . S
C439 C440 1.524 . S
C439 C443 1.400 . S
C440 H425 0.960 . S
C440 H426 0.960 . S
C440 H427 0.960 . S
C440 C439 1.524 . S
C441 C438 1.403 . S
C441 C442 1.392 . S
C441 C445 1.495 . S
C442 C441 1.392 . S
C442 C443 1.385 1_655 S
C442 C444 1.478 . S
C443 H437 0.930 . S
C443 C439 1.400 . S
C443 C442 1.385 1_455 S
C444 C442 1.478 . S
C444 C446 1.381 1_655 S
C444 C450 1.383 . S
C445 C441 1.495 . S
C445 H451 0.959 . S
C445 H452 0.961 . S
C445 H453 0.960 . S
C446 C444 1.381 1_455 S
C446 C447 1.394 . S
C446 H454 0.930 . S
C447 C446 1.394 . S
C447 C448 1.377 1_455 S
C447 H455 0.929 . S
C448 C447 1.377 1_655 S
C448 C449 1.384 . S
C449 H433 0.930 . S
C449 C448 1.384 . S
C449 C450 1.379 . S
C450 H434 0.931 . S
C450 C444 1.383 . S
C450 C449 1.379 . S
H451 C445 0.959 . S
H452 C445 0.961 . S
H453 C445 0.960 . S
H454 C446 0.930 . S
H455 C447 0.929 . S
H456 C464 0.929 . S
H457 C466 0.930 . S
H458 C468 0.930 . S
H459 C471 0.929 . S
H460 C474 0.930 1_556 S
H461 C476 0.960 . S
H462 C476 0.960 . S
H463 C476 0.960 . S
C464 H456 0.929 . S
C464 C465 1.381 . S
C464 C466 1.384 . S
C465 C464 1.381 . S
C465 C471 1.386 1_565 S
C466 H457 0.930 . S
C466 C464 1.384 . S
C466 C467 1.391 . S
C467 C466 1.391 . S
C467 C468 1.382 1_565 S
C467 C472 1.490 . S
C468 H458 0.930 . S
C468 C467 1.382 1_545 S
C468 C471 1.386 . S
H469 C485 0.930 . S
H470 C486 0.931 . S
C471 H459 0.929 . S
C471 C465 1.386 1_545 S
C471 C468 1.386 . S
C472 C467 1.490 . S
C472 C474 1.384 1_565 S
C472 C475 1.413 . S
H473 C479 0.930 . S
C474 H460 0.930 1_554 S
C474 C472 1.384 1_545 S
C474 C477 1.403 1_554 S
C475 C472 1.413 . S
C475 C476 1.524 . S
C475 C479 1.400 . S
C476 H461 0.960 . S
C476 H462 0.960 . S
C476 H463 0.960 . S
C476 C475 1.524 . S
C477 C474 1.403 1_556 S
C477 C478 1.392 . S
C477 C481 1.495 . S
C478 C477 1.392 . S
C478 C479 1.385 1_546 S
C478 C480 1.478 . S
C479 H473 0.930 . S
C479 C475 1.400 . S
C479 C478 1.385 1_564 S
C480 C478 1.478 . S
C480 C482 1.381 1_545 S
C480 C486 1.383 . S
C481 C477 1.495 . S
C481 H487 0.959 . S
C481 H488 0.961 . S
C481 H489 0.960 . S
C482 C480 1.381 1_565 S
C482 C483 1.394 . S
C482 H490 0.930 . S
C483 C482 1.394 . S
C483 C484 1.370 1_565 S
C483 H491 0.929 . S
C484 C483 1.370 1_545 S
C484 C485 1.391 . S
C485 H469 0.930 . S
C485 C484 1.391 . S
C485 C486 1.379 . S
C486 H470 0.931 . S
C486 C480 1.383 . S
C486 C485 1.379 . S
H487 C481 0.959 . S
H488 C481 0.961 . S
H489 C481 0.960 . S
H490 C482 0.930 . S
H491 C483 0.929 . S
H492 C500 0.929 . S
H493 C502 0.930 . S
H494 C504 0.930 . S
H495 C507 0.929 . S
H496 C510 0.930 . S
H497 C512 0.960 . S
H498 C512 0.960 . S
H499 C512 0.960 1_554 S
C500 H492 0.929 . S
C500 C501 1.377 . S
C500 C502 1.384 . S
C501 C500 1.377 . S
C501 C507 1.390 . S
C502 H493 0.930 . S
C502 C500 1.384 . S
C502 C503 1.372 . S
C503 C502 1.372 . S
C503 C504 1.400 . S
C503 C508 1.490 . S
C504 H494 0.930 . S
C504 C503 1.400 . S
C504 C507 1.386 . S
H505 C521 0.930 . S
H506 C522 0.931 . S
C507 H495 0.929 . S
C507 C501 1.390 . S
C507 C504 1.386 . S
C508 C503 1.490 . S
C508 C510 1.395 . S
C508 C511 1.403 . S
H509 C515 0.930 . S
C510 H496 0.930 . S
C510 C508 1.395 . S
C510 C513 1.403 . S
C511 C508 1.403 . S
C511 C512 1.524 1_554 S
C511 C515 1.400 1_554 S
C512 H497 0.960 . S
C512 H498 0.960 . S
C512 H499 0.960 1_556 S
C512 C511 1.524 1_556 S
C513 C510 1.403 . S
C513 C514 1.392 1_554 S
C513 C517 1.495 . S
C514 C513 1.392 1_556 S
C514 C515 1.385 . S
C514 C516 1.478 . S
C515 H509 0.930 . S
C515 C511 1.400 1_556 S
C515 C514 1.385 . S
C516 C514 1.478 . S
C516 C518 1.381 . S
C516 C522 1.383 . S
C517 C513 1.495 . S
C517 H523 0.959 . S
C517 H524 0.961 . S
C517 H525 0.960 . S
C518 C516 1.381 . S
C518 C519 1.394 . S
C518 H526 0.930 . S
C519 C518 1.394 . S
C519 C520 1.383 . S
C519 H527 0.929 . S
C520 C519 1.383 . S
C520 C521 1.377 . S
C521 H505 0.930 . S
C521 C520 1.377 . S
C521 C522 1.379 . S
C522 H506 0.931 . S
C522 C516 1.383 . S
C522 C521 1.379 . S
H523 C517 0.959 . S
H524 C517 0.961 . S
H525 C517 0.960 . S
H526 C518 0.930 . S
H527 C519 0.929 . S
H528 C536 0.929 . S
H529 C538 0.930 . S
H530 C540 0.930 . S
H531 C543 0.929 . S
H532 C546 0.930 . S
H533 C548 0.960 . S
H534 C548 0.960 1_554 S
H535 C548 0.960 . S
C536 H528 0.929 . S
C536 C537 1.377 . S
C536 C538 1.384 . S
C537 C536 1.377 . S
C537 C543 1.390 . S
C538 H529 0.930 . S
C538 C536 1.384 . S
C538 C539 1.372 . S
C539 C538 1.372 . S
C539 C540 1.400 . S
C539 C544 1.490 . S
C540 H530 0.930 . S
C540 C539 1.400 . S
C540 C543 1.386 . S
H541 C557 0.930 . S
H542 C558 0.931 . S
C543 H531 0.929 . S
C543 C537 1.390 . S
C543 C540 1.386 . S
C544 C539 1.490 . S
C544 C546 1.395 . S
C544 C547 1.403 . S
H545 C551 0.930 . S
C546 H532 0.930 . S
C546 C544 1.395 . S
C546 C549 1.403 . S
C547 C544 1.403 . S
C547 C548 1.524 1_554 S
C547 C551 1.400 1_554 S
C548 H533 0.960 . S
C548 H534 0.960 1_556 S
C548 H535 0.960 . S
C548 C547 1.524 1_556 S
C549 C546 1.403 . S
C549 C550 1.392 1_554 S
C549 C553 1.495 . S
C550 C549 1.392 1_556 S
C550 C551 1.385 . S
C550 C552 1.478 . S
C551 H545 0.930 . S
C551 C547 1.400 1_556 S
C551 C550 1.385 . S
C552 C550 1.478 . S
C552 C554 1.381 . S
C552 C558 1.383 . S
C553 C549 1.495 . S
C553 H559 0.959 . S
C553 H560 0.961 . S
C553 H561 0.960 . S
C554 C552 1.381 . S
C554 C555 1.394 . S
C554 H562 0.919 1_556 S
C555 C554 1.394 . S
C555 C556 1.383 . S
C555 H563 0.929 . S
C556 C555 1.383 . S
C556 C557 1.377 . S
C557 H541 0.930 . S
C557 C556 1.377 . S
C557 C558 1.379 . S
C558 H542 0.931 . S
C558 C552 1.383 . S
C558 C557 1.379 . S
H559 C553 0.959 . S
H560 C553 0.961 . S
H561 C553 0.960 . S
H562 C554 0.919 1_554 S
H563 C555 0.929 . S
H564 C572 0.929 . S
H565 C574 0.930 . S
H566 C576 0.930 . S
H567 C579 0.929 . S
H568 C582 0.930 . S
H569 C584 0.960 . S
H570 C584 0.960 . S
H571 C584 0.960 . S
C572 H564 0.929 . S
C572 C573 1.376 . S
C572 C574 1.384 . S
C573 C572 1.376 . S
C573 C579 1.391 1_655 S
C574 H565 0.930 . S
C574 C572 1.384 . S
C574 C575 1.393 . S
C575 C574 1.393 . S
C575 C576 1.379 1_655 S
C575 C580 1.492 . S
C576 H566 0.930 . S
C576 C575 1.379 1_455 S
C576 C579 1.386 . S
H577 C593 0.930 . S
H578 C594 0.931 . S
C579 H567 0.929 . S
C579 C573 1.391 1_455 S
C579 C576 1.386 . S
C580 C575 1.492 . S
C580 C582 1.395 . S
C580 C583 1.403 1_655 S
H581 C587 0.930 1_556 S
C582 H568 0.930 . S
C582 C580 1.395 . S
C582 C585 1.403 . S
C583 C580 1.403 1_455 S
C583 C584 1.524 . S
C583 C587 1.400 . S
C584 H569 0.960 . S
C584 H570 0.960 . S
C584 H571 0.960 . S
C584 C583 1.524 . S
C585 C582 1.403 . S
C585 C586 1.392 1_554 S
C585 C589 1.495 1_554 S
C586 C585 1.392 1_556 S
C586 C587 1.385 1_656 S
C586 C588 1.478 . S
C587 H581 0.930 1_554 S
C587 C583 1.400 . S
C587 C586 1.385 1_454 S
C588 C586 1.478 . S
C588 C590 1.381 . S
C588 C594 1.383 1_655 S
C589 C585 1.495 1_556 S
C589 H595 0.956 1_556 S
C589 H596 0.961 . S
C589 H597 0.960 . S
C590 C588 1.381 . S
C590 C591 1.394 . S
C590 H598 0.930 . S
C591 C590 1.394 . S
C591 C592 1.383 . S
C591 H599 0.929 . S
C592 C591 1.383 . S
C592 C593 1.377 1_655 S
C593 H577 0.930 . S
C593 C592 1.377 1_455 S
C593 C594 1.379 . S
C594 H578 0.931 . S
C594 C588 1.383 1_455 S
C594 C593 1.379 . S
H595 C589 0.956 1_554 S
H596 C589 0.961 . S
H597 C589 0.960 . S
H598 C590 0.930 . S
H599 C591 0.929 . S
H600 C608 0.929 . S
H601 C610 0.928 1_455 S
H602 C612 0.930 . S
H603 C615 0.929 . S
H604 C618 0.930 . S
H605 C620 0.960 . S
H606 C620 0.960 . S
H607 C620 0.960 . S
C608 H600 0.929 . S
C608 C609 1.377 . S
C608 C610 1.383 1_455 S
C609 C608 1.377 . S
C609 C615 1.390 1_455 S
C610 H601 0.928 1_655 S
C610 C608 1.383 1_655 S
C610 C611 1.372 . S
C611 C610 1.372 . S
C611 C612 1.400 . S
C611 C616 1.490 . S
C612 H602 0.930 . S
C612 C611 1.400 . S
C612 C615 1.386 . S
H613 C629 0.930 . S
H614 C630 0.931 . S
C615 H603 0.929 . S
C615 C609 1.390 1_655 S
C615 C612 1.386 . S
C616 C611 1.490 . S
C616 C618 1.395 . S
C616 C619 1.403 1_655 S
H617 C623 0.937 . S
C618 H604 0.930 . S
C618 C616 1.395 . S
C618 C621 1.403 . S
C619 C616 1.403 1_455 S
C619 C620 1.524 . S
C619 C623 1.402 . S
C620 H605 0.960 . S
C620 H606 0.960 . S
C620 H607 0.960 . S
C620 C619 1.524 . S
C621 C618 1.403 . S
C621 C622 1.392 . S
C621 C625 1.495 . S
C622 C621 1.392 . S
C622 C623 1.376 1_655 S
C622 C624 1.478 . S
C623 H617 0.937 . S
C623 C619 1.402 . S
C623 C622 1.376 1_455 S
C624 C622 1.478 . S
C624 C626 1.381 . S
C624 C630 1.383 . S
C625 C621 1.495 . S
C625 H631 0.959 . S
C625 H632 0.961 . S
C625 H633 0.960 . S
C626 C624 1.381 . S
C626 C627 1.394 . S
C626 H634 0.930 . S
C627 C626 1.394 . S
C627 C628 1.383 . S
C627 H635 0.929 . S
C628 C627 1.383 . S
C628 C629 1.377 . S
C629 H613 0.930 . S
C629 C628 1.377 . S
C629 C630 1.379 . S
C630 H614 0.931 . S
C630 C624 1.383 . S
C630 C629 1.379 . S
H631 C625 0.959 . S
H632 C625 0.961 . S
H633 C625 0.960 . S
H634 C626 0.930 . S
H635 C627 0.929 . S
H636 C644 0.932 . S
H637 C646 0.930 . S
H638 C648 0.930 . S
H639 C651 0.938 . S
H640 C654 0.930 . S
H641 C656 0.960 . S
H642 C656 0.960 . S
H643 C656 0.960 . S
C644 H636 0.932 . S
C644 C645 1.372 1_565 S
C644 C646 1.384 . S
C645 C644 1.372 1_545 S
C645 C651 1.390 . S
C646 H637 0.930 . S
C646 C644 1.384 . S
C646 C647 1.372 . S
C647 C646 1.372 . S
C647 C648 1.400 . S
C647 C652 1.490 . S
C648 H638 0.930 . S
C648 C647 1.400 . S
C648 C651 1.380 1_565 S
H649 C665 0.930 . S
H650 C666 0.931 . S
C651 H639 0.938 . S
C651 C645 1.390 . S
C651 C648 1.380 1_545 S
C652 C647 1.490 . S
C652 C654 1.395 . S
C652 C655 1.403 1_565 S
H653 C659 0.930 . S
C654 H640 0.930 . S
C654 C652 1.395 . S
C654 C657 1.403 . S
C655 C652 1.403 1_545 S
C655 C656 1.524 . S
C655 C659 1.400 . S
C656 H641 0.960 . S
C656 H642 0.960 . S
C656 H643 0.960 . S
C656 C655 1.524 . S
C657 C654 1.403 . S
C657 C658 1.392 . S
C657 C661 1.495 . S
C658 C657 1.392 . S
C658 C659 1.385 1_565 S
C658 C660 1.478 . S
C659 H653 0.930 . S
C659 C655 1.400 . S
C659 C658 1.385 1_545 S
C660 C658 1.478 . S
C660 C662 1.381 . S
C660 C666 1.383 . S
C661 C657 1.495 . S
C661 H667 0.959 . S
C661 H668 0.961 . S
C661 H669 0.960 . S
C662 C660 1.381 . S
C662 C663 1.394 . S
C662 H670 0.930 . S
C663 C662 1.394 . S
C663 C664 1.383 . S
C663 H671 0.929 . S
C664 C663 1.383 . S
C664 C665 1.377 . S
C665 H649 0.930 . S
C665 C664 1.377 . S
C665 C666 1.379 . S
C666 H650 0.931 . S
C666 C660 1.383 . S
C666 C665 1.379 . S
H667 C661 0.959 . S
H668 C661 0.961 . S
H669 C661 0.960 . S
H670 C662 0.930 . S
H671 C663 0.929 . S
H672 C680 0.929 . S
H673 C682 0.930 . S
H674 C684 0.930 . S
H675 C687 0.929 . S
H676 C690 0.930 . S
H677 C692 0.960 . S
H678 C692 0.960 . S
H679 C692 0.960 . S
C680 H672 0.929 . S
C680 C681 1.377 . S
C680 C682 1.384 . S
C681 C680 1.377 . S
C681 C687 1.390 . S
C682 H673 0.930 . S
C682 C680 1.384 . S
C682 C683 1.372 . S
C683 C682 1.372 . S
C683 C684 1.400 . S
C683 C688 1.490 . S
C684 H674 0.930 . S
C684 C683 1.400 . S
C684 C687 1.386 . S
H685 C701 0.930 . S
H686 C702 0.931 . S
C687 H675 0.929 . S
C687 C681 1.390 . S
C687 C684 1.386 . S
C688 C683 1.490 . S
C688 C690 1.395 . S
C688 C691 1.403 . S
H689 C695 0.930 . S
C690 H676 0.930 . S
C690 C688 1.395 . S
C690 C693 1.403 . S
C691 C688 1.403 . S
C691 C692 1.524 . S
C691 C695 1.400 . S
C692 H677 0.960 . S
C692 H678 0.960 . S
C692 H679 0.960 . S
C692 C691 1.524 . S
C693 C690 1.403 . S
C693 C694 1.392 . S
C693 C697 1.495 . S
C694 C693 1.392 . S
C694 C695 1.385 . S
C694 C696 1.478 . S
C695 H689 0.930 . S
C695 C691 1.400 . S
C695 C694 1.385 . S
C696 C694 1.478 . S
C696 C698 1.381 . S
C696 C702 1.383 . S
C697 C693 1.495 . S
C697 H703 0.959 . S
C697 H704 0.961 . S
C697 H705 0.960 . S
C698 C696 1.381 . S
C698 C699 1.394 . S
C698 H706 0.930 . S
C699 C698 1.394 . S
C699 C700 1.383 . S
C699 H707 0.929 . S
C700 C699 1.383 . S
C700 C701 1.377 . S
C701 H685 0.930 . S
C701 C700 1.377 . S
C701 C702 1.379 . S
C702 H686 0.931 . S
C702 C696 1.383 . S
C702 C701 1.379 . S
H703 C697 0.959 . S
H704 C697 0.961 . S
H705 C697 0.960 . S
H706 C698 0.930 . S
H707 C699 0.929 . S
H708 C716 0.929 . S
H709 C718 0.930 . S
H710 C720 0.930 . S
H711 C723 0.929 . S
H712 C726 0.930 . S
H713 C728 0.960 . S
H714 C728 0.960 . S
H715 C728 0.960 . S
C716 H708 0.929 . S
C716 C717 1.377 . S
C716 C718 1.384 . S
C717 C716 1.377 . S
C717 C723 1.390 . S
C718 H709 0.930 . S
C718 C716 1.384 . S
C718 C719 1.372 . S
C719 C718 1.372 . S
C719 C720 1.400 . S
C719 C724 1.490 . S
C720 H710 0.930 . S
C720 C719 1.400 . S
C720 C723 1.386 . S
H721 C737 0.930 . S
H722 C738 0.931 . S
C723 H711 0.929 . S
C723 C717 1.390 . S
C723 C720 1.386 . S
C724 C719 1.490 . S
C724 C726 1.395 . S
C724 C727 1.403 . S
H725 C731 0.930 . S
C726 H712 0.930 . S
C726 C724 1.395 . S
C726 C729 1.403 . S
C727 C724 1.403 . S
C727 C728 1.524 . S
C727 C731 1.400 . S
C728 H713 0.960 . S
C728 H714 0.960 . S
C728 H715 0.960 . S
C728 C727 1.524 . S
C729 C726 1.403 . S
C729 C730 1.392 . S
C729 C733 1.495 . S
C730 C729 1.392 . S
C730 C731 1.385 . S
C730 C732 1.478 . S
C731 H725 0.930 . S
C731 C727 1.400 . S
C731 C730 1.385 . S
C732 C730 1.478 . S
C732 C734 1.381 . S
C732 C738 1.383 . S
C733 C729 1.495 . S
C733 H739 0.959 . S
C733 H740 0.961 . S
C733 H741 0.960 . S
C734 C732 1.381 . S
C734 C735 1.394 . S
C734 H742 0.930 . S
C735 C734 1.394 . S
C735 C736 1.383 . S
C735 H743 0.929 . S
C736 C735 1.383 . S
C736 C737 1.377 . S
C737 H721 0.930 . S
C737 C736 1.377 . S
C737 C738 1.379 . S
C738 H722 0.931 . S
C738 C732 1.383 . S
C738 C737 1.379 . S
H739 C733 0.959 . S
H740 C733 0.961 . S
H741 C733 0.960 . S
H742 C734 0.930 . S
H743 C735 0.929 . S
H744 C752 0.929 . S
H745 C754 0.930 . S
H746 C756 0.930 . S
H747 C759 0.929 . S
H748 C762 0.930 . S
H749 C764 0.960 . S
H750 C764 0.960 . S
H751 C764 0.998 . S
C752 H744 0.929 . S
C752 C753 1.353 1_455 S
C752 C754 1.384 . S
C753 C752 1.353 1_655 S
C753 C759 1.410 . S
C754 H745 0.930 . S
C754 C752 1.384 . S
C754 C755 1.372 . S
C755 C754 1.372 . S
C755 C756 1.400 1_455 S
C755 C760 1.490 . S
C756 H746 0.930 . S
C756 C755 1.400 1_655 S
C756 C759 1.386 . S
H757 C773 0.930 1_655 S
H758 C774 0.890 1_655 S
C759 H747 0.929 . S
C759 C753 1.410 . S
C759 C756 1.386 . S
C760 C755 1.490 . S
C760 C762 1.395 . S
C760 C763 1.403 . S
H761 C767 0.930 . S
C762 H748 0.930 . S
C762 C760 1.395 . S
C762 C765 1.403 . S
C763 C760 1.403 . S
C763 C764 1.524 . S
C763 C767 1.400 . S
C764 H749 0.960 . S
C764 H750 0.960 . S
C764 H751 0.998 . S
C764 C763 1.524 . S
C765 C762 1.403 . S
C765 C766 1.392 . S
C765 C769 1.495 1_554 S
C766 C765 1.392 . S
C766 C767 1.385 . S
C766 C768 1.478 . S
C767 H761 0.930 . S
C767 C763 1.400 . S
C767 C766 1.385 . S
C768 C766 1.478 . S
C768 C770 1.381 1_554 S
C768 C774 1.417 . S
C769 C765 1.495 1_556 S
C769 H775 0.959 . S
C769 H776 0.961 1_455 S
C769 H777 0.960 . S
C770 C768 1.381 1_556 S
C770 C771 1.394 . S
C770 H778 0.930 . S
C771 C770 1.394 . S
C771 C772 1.383 . S
C771 H779 0.929 . S
C772 C771 1.383 . S
C772 C773 1.377 1_556 S
C773 H757 0.930 1_455 S
C773 C772 1.377 1_554 S
C773 C774 1.387 . S
C774 H758 0.890 1_455 S
C774 C768 1.417 . S
C774 C773 1.387 . S
H775 C769 0.959 . S
H776 C769 0.961 1_655 S
H777 C769 0.960 . S
H778 C770 0.930 . S
H779 C771 0.929 . S
H780 C788 0.929 . S
H781 C790 0.930 . S
H782 C792 0.930 . S
H783 C795 0.929 . S
H784 C798 0.930 . S
H785 C800 0.960 . S
H786 C800 0.960 . S
H787 C800 0.960 . S
C788 H780 0.929 . S
C788 C789 1.365 1_545 S
C788 C790 1.384 . S
C789 C788 1.365 1_565 S
C789 C795 1.400 . S
C790 H781 0.930 . S
C790 C788 1.384 . S
C790 C791 1.372 . S
C791 C790 1.372 . S
C791 C792 1.400 1_545 S
C791 C796 1.490 . S
C792 H782 0.930 . S
C792 C791 1.400 1_565 S
C792 C795 1.386 . S
H793 C809 0.930 1_565 S
H794 C810 0.882 1_565 S
C795 H783 0.929 . S
C795 C789 1.400 . S
C795 C792 1.386 . S
C796 C791 1.490 . S
C796 C798 1.395 . S
C796 C799 1.403 . S
H797 C803 0.930 . S
C798 H784 0.930 . S
C798 C796 1.395 . S
C798 C801 1.403 . S
C799 C796 1.403 . S
C799 C800 1.524 . S
C799 C803 1.400 . S
C800 H785 0.960 . S
C800 H786 0.960 . S
C800 H787 0.960 . S
C800 C799 1.524 . S
C801 C798 1.403 . S
C801 C802 1.392 . S
C801 C805 1.495 1_554 S
C802 C801 1.392 . S
C802 C803 1.385 . S
C802 C804 1.478 . S
C803 H797 0.930 . S
C803 C799 1.400 . S
C803 C802 1.385 . S
C804 C802 1.478 . S
C804 C806 1.381 1_554 S
C804 C810 1.425 . S
C805 C801 1.495 1_556 S
C805 H811 0.959 . S
C805 H812 0.961 1_545 S
C805 H813 0.960 . S
C806 C804 1.381 1_556 S
C806 C807 1.394 . S
C806 H814 0.930 . S
C807 C806 1.394 . S
C807 C808 1.383 . S
C807 H815 0.929 . S
C808 C807 1.383 . S
C808 C809 1.377 1_556 S
C809 H793 0.930 1_545 S
C809 C808 1.377 1_554 S
C809 C810 1.389 . S
C810 H794 0.882 1_545 S
C810 C804 1.425 . S
C810 C809 1.389 . S
H811 C805 0.959 . S
H812 C805 0.961 1_565 S
H813 C805 0.960 . S
H814 C806 0.930 . S
H815 C807 0.929 . S
H816 C824 0.929 . S
H817 C826 0.930 . S
H818 C828 0.930 . S
H819 C831 0.929 . S
H820 C834 0.930 . S
H821 C836 0.960 . S
H822 C836 0.960 . S
H823 C836 0.960 . S
C824 H816 0.929 . S
C824 C825 1.377 . S
C824 C826 1.384 . S
C825 C824 1.377 . S
C825 C831 1.390 . S
C826 H817 0.930 . S
C826 C824 1.384 . S
C826 C827 1.372 . S
C827 C826 1.372 . S
C827 C828 1.400 . S
C827 C832 1.490 . S
C828 H818 0.930 . S
C828 C827 1.400 . S
C828 C831 1.386 . S
H829 C845 0.930 . S
H830 C846 0.931 . S
C831 H819 0.929 . S
C831 C825 1.390 . S
C831 C828 1.386 . S
C832 C827 1.490 . S
C832 C834 1.395 . S
C832 C835 1.403 . S
H833 C839 0.930 . S
C834 H820 0.930 . S
C834 C832 1.395 . S
C834 C837 1.403 . S
C835 C832 1.403 . S
C835 C836 1.524 . S
C835 C839 1.400 . S
C836 H821 0.960 . S
C836 H822 0.960 . S
C836 H823 0.960 . S
C836 C835 1.524 . S
C837 C834 1.403 . S
C837 C838 1.392 . S
C837 C841 1.495 . S
C838 C837 1.392 . S
C838 C839 1.385 . S
C838 C840 1.478 . S
C839 H833 0.930 . S
C839 C835 1.400 . S
C839 C838 1.385 . S
C840 C838 1.478 . S
C840 C842 1.381 1_554 S
C840 C846 1.383 . S
C841 C837 1.495 . S
C841 H847 0.959 . S
C841 H848 0.961 . S
C841 H849 0.960 . S
C842 C840 1.381 1_556 S
C842 C843 1.394 . S
C842 H850 0.930 . S
C843 C842 1.394 . S
C843 C844 1.383 . S
C843 H851 0.929 . S
C844 C843 1.383 . S
C844 C845 1.377 1_556 S
C845 H829 0.930 . S
C845 C844 1.377 1_554 S
C845 C846 1.379 . S
C846 H830 0.931 . S
C846 C840 1.383 . S
C846 C845 1.379 . S
H847 C841 0.959 . S
H848 C841 0.961 . S
H849 C841 0.960 . S
H850 C842 0.930 . S
H851 C843 0.929 . S
H852 C860 0.929 . S
H853 C862 0.930 . S
H854 C864 0.930 . S
H855 C867 0.929 . S
H856 C870 0.930 . S
H857 C872 0.960 . S
H858 C872 0.960 . S
H859 C872 0.960 . S
C860 H852 0.929 . S
C860 C861 1.377 . S
C860 C862 1.384 . S
C861 C860 1.377 . S
C861 C867 1.390 . S
C862 H853 0.930 . S
C862 C860 1.384 . S
C862 C863 1.372 . S
C863 C862 1.372 . S
C863 C864 1.400 . S
C863 C868 1.490 . S
C864 H854 0.930 . S
C864 C863 1.400 . S
C864 C867 1.386 . S
H865 C881 0.930 . S
H866 C882 0.931 . S
C867 H855 0.929 . S
C867 C861 1.390 . S
C867 C864 1.386 . S
C868 C863 1.490 . S
C868 C870 1.395 . S
C868 C871 1.403 . S
H869 C875 0.930 . S
C870 H856 0.930 . S
C870 C868 1.395 . S
C870 C873 1.403 . S
C871 C868 1.403 . S
C871 C872 1.524 . S
C871 C875 1.400 . S
C872 H857 0.960 . S
C872 H858 0.960 . S
C872 H859 0.960 . S
C872 C871 1.524 . S
C873 C870 1.403 . S
C873 C874 1.392 . S
C873 C877 1.495 1_554 S
C874 C873 1.392 . S
C874 C875 1.385 . S
C874 C876 1.478 . S
C875 H869 0.930 . S
C875 C871 1.400 . S
C875 C874 1.385 . S
C876 C874 1.478 . S
C876 C878 1.381 . S
C876 C882 1.383 . S
C877 C873 1.495 1_556 S
C877 H883 0.959 . S
C877 H884 0.961 . S
C877 H885 0.960 . S
C878 C876 1.381 . S
C878 C879 1.394 1_554 S
C878 H886 0.930 . S
C879 C878 1.394 1_556 S
C879 C880 1.383 . S
C879 H887 0.929 . S
C880 C879 1.383 . S
C880 C881 1.377 . S
C881 H865 0.930 . S
C881 C880 1.377 . S
C881 C882 1.379 1_556 S
C882 H866 0.931 . S
C882 C876 1.383 . S
C882 C881 1.379 1_554 S
H883 C877 0.959 . S
H884 C877 0.961 . S
H885 C877 0.960 . S
H886 C878 0.930 . S
H887 C879 0.929 . S
H888 C896 0.929 . S
H889 C898 0.930 . S
H890 C900 0.930 . S
H891 C903 0.929 . S
H892 C906 0.930 . S
H893 C908 0.960 1_554 S
H894 C908 1.011 . S
H895 C908 0.919 1_455 S
C896 H888 0.929 . S
C896 C897 1.358 1_655 S
C896 C898 1.384 . S
C897 C896 1.358 1_455 S
C897 C903 1.410 . S
C898 H889 0.930 . S
C898 C896 1.384 . S
C898 C899 1.372 1_655 S
C899 C898 1.372 1_455 S
C899 C900 1.400 . S
C899 C904 1.490 . S
C900 H890 0.930 . S
C900 C899 1.400 . S
C900 C903 1.386 . S
H901 C917 0.930 . S
H902 C918 0.931 . S
C903 H891 0.929 . S
C903 C897 1.410 . S
C903 C900 1.386 . S
C904 C899 1.490 . S
C904 C906 1.395 . S
C904 C907 1.403 . S
H905 C911 0.930 . S
C906 H892 0.930 . S
C906 C904 1.395 . S
C906 C909 1.403 . S
C907 C904 1.403 . S
C907 C908 1.519 1_455 S
C907 C911 1.400 . S
C908 H893 0.960 1_556 S
C908 H894 1.011 . S
C908 H895 0.919 1_655 S
C908 C907 1.519 1_655 S
C909 C906 1.403 . S
C909 C910 1.392 . S
C909 C913 1.495 . S
C910 C909 1.392 . S
C910 C911 1.385 . S
C910 C912 1.478 . S
C911 H905 0.930 . S
C911 C907 1.400 . S
C911 C910 1.385 . S
C912 C910 1.478 . S
C912 C914 1.381 1_455 S
C912 C918 1.383 . S
C913 C909 1.495 . S
C913 H919 0.959 . S
C913 H920 0.961 . S
C913 H921 0.960 1_455 S
C914 C912 1.381 1_655 S
C914 C915 1.394 . S
C914 H922 0.930 . S
C915 C914 1.394 . S
C915 C916 1.383 1_655 S
C915 H923 0.929 . S
C916 C915 1.383 1_455 S
C916 C917 1.377 . S
C917 H901 0.930 . S
C917 C916 1.377 . S
C917 C918 1.379 . S
C918 H902 0.931 . S
C918 C912 1.383 . S
C918 C917 1.379 . S
H919 C913 0.959 . S
H920 C913 0.961 . S
H921 C913 0.960 1_655 S
H922 C914 0.930 . S
H923 C915 0.929 . S
H924 C932 0.929 . S
H925 C934 0.930 . S
H926 C936 0.930 . S
H927 C939 0.929 . S
H928 C942 0.930 . S
H929 C944 0.960 1_554 S
H930 C944 0.960 1_565 S
H931 C944 0.960 . S
C932 H924 0.929 . S
C932 C933 1.357 1_565 S
C932 C934 1.384 . S
C933 C932 1.357 1_545 S
C933 C939 1.411 . S
C934 H925 0.930 . S
C934 C932 1.384 . S
C934 C935 1.372 1_565 S
C935 C934 1.372 1_545 S
C935 C936 1.400 . S
C935 C940 1.490 . S
C936 H926 0.930 . S
C936 C935 1.400 . S
C936 C939 1.386 . S
H937 C953 0.930 . S
H938 C954 0.931 . S
C939 H927 0.929 . S
C939 C933 1.411 . S
C939 C936 1.386 . S
C940 C935 1.490 . S
C940 C942 1.395 . S
C940 C943 1.403 . S
H941 C947 0.930 . S
C942 H928 0.930 . S
C942 C940 1.395 . S
C942 C945 1.403 . S
C943 C940 1.403 . S
C943 C944 1.524 . S
C943 C947 1.400 . S
C944 H929 0.960 1_556 S
C944 H930 0.960 1_545 S
C944 H931 0.960 . S
C944 C943 1.524 . S
C945 C942 1.403 . S
C945 C946 1.392 . S
C945 C949 1.495 . S
C946 C945 1.392 . S
C946 C947 1.385 . S
C946 C948 1.478 . S
C947 H941 0.930 . S
C947 C943 1.400 . S
C947 C946 1.385 . S
C948 C946 1.478 . S
C948 C950 1.381 1_545 S
C948 C954 1.383 . S
C949 C945 1.495 . S
C949 H955 0.959 . S
C949 H956 0.961 . S
C949 H957 0.960 1_545 S
C950 C948 1.381 1_565 S
C950 C951 1.394 . S
C950 H958 0.930 . S
C951 C950 1.394 . S
C951 C952 1.383 1_565 S
C951 H959 0.929 . S
C952 C951 1.383 1_545 S
C952 C953 1.377 . S
C953 H937 0.930 . S
C953 C952 1.377 . S
C953 C954 1.379 . S
C954 H938 0.931 . S
C954 C948 1.383 . S
C954 C953 1.379 . S
H955 C949 0.959 . S
H956 C949 0.961 . S
H957 C949 0.960 1_565 S
H958 C950 0.930 . S
H959 C951 0.929 . S
H960 C968 0.929 . S
H961 C970 0.930 . S
H962 C972 0.930 . S
H963 C975 0.929 . S
H964 C978 0.930 . S
H965 C980 0.960 . S
H966 C980 0.960 . S
H967 C980 0.960 . S
C968 H960 0.929 . S
C968 C969 1.377 . S
C968 C970 1.384 . S
C969 C968 1.377 . S
C969 C975 1.390 . S
C970 H961 0.930 . S
C970 C968 1.384 . S
C970 C971 1.372 . S
C971 C970 1.372 . S
C971 C972 1.400 . S
C971 C976 1.490 . S
C972 H962 0.930 . S
C972 C971 1.400 . S
C972 C975 1.386 . S
H973 C989 0.930 . S
H974 C990 0.931 . S
C975 H963 0.929 . S
C975 C969 1.390 . S
C975 C972 1.386 . S
C976 C971 1.490 . S
C976 C978 1.395 . S
C976 C979 1.403 . S
H977 C983 0.930 . S
C978 H964 0.930 . S
C978 C976 1.395 . S
C978 C981 1.403 . S
C979 C976 1.403 . S
C979 C980 1.524 . S
C979 C983 1.400 . S
C980 H965 0.960 . S
C980 H966 0.960 . S
C980 H967 0.960 . S
C980 C979 1.524 . S
C981 C978 1.403 . S
C981 C982 1.392 . S
C981 C985 1.495 . S
C982 C981 1.392 . S
C982 C983 1.385 . S
C982 C984 1.478 . S
C983 H977 0.930 . S
C983 C979 1.400 . S
C983 C982 1.385 . S
C984 C982 1.478 . S
C984 C986 1.381 . S
C984 C990 1.383 . S
C985 C981 1.495 . S
C985 H991 0.959 . S
C985 H992 0.961 . S
C985 H993 0.960 . S
C986 C984 1.381 . S
C986 C987 1.394 . S
C986 H994 0.930 . S
C987 C986 1.394 . S
C987 C988 1.383 . S
C987 H995 0.929 . S
C988 C987 1.383 . S
C988 C989 1.377 . S
C989 H973 0.930 . S
C989 C988 1.377 . S
C989 C990 1.379 . S
C990 H974 0.931 . S
C990 C984 1.383 . S
C990 C989 1.379 . S
H991 C985 0.959 . S
H992 C985 0.961 . S
H993 C985 0.960 . S
H994 C986 0.930 . S
H995 C987 0.929 . S
H996 C1004 0.929 . S
H997 C1006 0.930 . S
H998 C1008 0.930 . S
H999 C1011 0.929 . S
H1000 C1014 0.930 . S
H1001 C1016 0.960 . S
H1002 C1016 0.960 . S
H1003 C1016 0.960 . S
C1004 H996 0.929 . S
C1004 C1005 1.377 . S
C1004 C1006 1.384 . S
C1005 C1004 1.377 . S
C1005 C1011 1.390 . S
C1006 H997 0.930 . S
C1006 C1004 1.384 . S
C1006 C1007 1.372 . S
C1007 C1006 1.372 . S
C1007 C1008 1.400 . S
C1007 C1012 1.490 . S
C1008 H998 0.930 . S
C1008 C1007 1.400 . S
C1008 C1011 1.386 . S
H1009 C1025 0.930 . S
H1010 C1026 0.931 . S
C1011 H999 0.929 . S
C1011 C1005 1.390 . S
C1011 C1008 1.386 . S
C1012 C1007 1.490 . S
C1012 C1014 1.395 . S
C1012 C1015 1.403 . S
H1013 C1019 0.930 . S
C1014 H1000 0.930 . S
C1014 C1012 1.395 . S
C1014 C1017 1.403 . S
C1015 C1012 1.403 . S
C1015 C1016 1.524 . S
C1015 C1019 1.400 . S
C1016 H1001 0.960 . S
C1016 H1002 0.960 . S
C1016 H1003 0.960 . S
C1016 C1015 1.524 . S
C1017 C1014 1.403 . S
C1017 C1018 1.392 . S
C1017 C1021 1.495 . S
C1018 C1017 1.392 . S
C1018 C1019 1.385 . S
C1018 C1020 1.478 . S
C1019 H1013 0.930 . S
C1019 C1015 1.400 . S
C1019 C1018 1.385 . S
C1020 C1018 1.478 . S
C1020 C1022 1.381 . S
C1020 C1026 1.383 . S
C1021 C1017 1.495 . S
C1021 H1027 0.959 . S
C1021 H1028 0.961 . S
C1021 H1029 0.960 . S
C1022 C1020 1.381 . S
C1022 C1023 1.394 . S
C1022 H1030 0.930 . S
C1023 C1022 1.394 . S
C1023 C1024 1.383 . S
C1023 H1031 0.929 . S
C1024 C1023 1.383 . S
C1024 C1025 1.377 . S
C1025 H1009 0.930 . S
C1025 C1024 1.377 . S
C1025 C1026 1.379 . S
C1026 H1010 0.931 . S
C1026 C1020 1.383 . S
C1026 C1025 1.379 . S
H1027 C1021 0.959 . S
H1028 C1021 0.961 . S
H1029 C1021 0.960 . S
H1030 C1022 0.930 . S
H1031 C1023 0.929 . S
H1032 C1040 0.929 . S
H1033 C1042 0.930 . S
H1034 C1044 0.930 . S
H1035 C1047 0.929 . S
H1036 C1050 0.930 . S
H1037 C1052 0.960 . S
H1038 C1052 0.960 . S
H1039 C1052 0.960 . S
C1040 H1032 0.929 . S
C1040 C1041 1.413 . S
C1040 C1042 1.384 . S
C1041 C1040 1.413 . S
C1041 C1047 1.357 1_655 S
C1042 H1033 0.930 . S
C1042 C1040 1.384 . S
C1042 C1043 1.372 . S
C1043 C1042 1.372 . S
C1043 C1044 1.400 1_655 S
C1043 C1048 1.490 . S
C1044 H1034 0.930 . S
C1044 C1043 1.400 1_455 S
C1044 C1047 1.386 . S
H1045 C1061 0.930 . S
H1046 C1062 0.931 . S
C1047 H1035 0.929 . S
C1047 C1041 1.357 1_455 S
C1047 C1044 1.386 . S
C1048 C1043 1.490 . S
C1048 C1050 1.395 . S
C1048 C1051 1.403 1_655 S
H1049 C1055 0.930 . S
C1050 H1036 0.930 . S
C1050 C1048 1.395 . S
C1050 C1053 1.403 . S
C1051 C1048 1.403 1_455 S
C1051 C1052 1.524 . S
C1051 C1055 1.400 . S
C1052 H1037 0.960 . S
C1052 H1038 0.960 . S
C1052 H1039 0.960 . S
C1052 C1051 1.524 . S
C1053 C1050 1.403 . S
C1053 C1054 1.392 . S
C1053 C1057 1.495 . S
C1054 C1053 1.392 . S
C1054 C1055 1.385 1_655 S
C1054 C1056 1.478 . S
C1055 H1049 0.930 . S
C1055 C1051 1.400 . S
C1055 C1054 1.385 1_455 S
C1056 C1054 1.478 . S
C1056 C1058 1.381 . S
C1056 C1062 1.383 1_655 S
C1057 C1053 1.495 . S
C1057 H1063 0.959 . S
C1057 H1064 0.961 . S
C1057 H1065 0.960 . S
C1058 C1056 1.381 . S
C1058 C1059 1.394 . S
C1058 H1066 0.930 . S
C1059 C1058 1.394 . S
C1059 C1060 1.383 . S
C1059 H1067 0.929 . S
C1060 C1059 1.383 . S
C1060 C1061 1.377 1_655 S
C1061 H1045 0.930 . S
C1061 C1060 1.377 1_455 S
C1061 C1062 1.379 . S
C1062 H1046 0.931 . S
C1062 C1056 1.383 1_455 S
C1062 C1061 1.379 . S
H1063 C1057 0.959 . S
H1064 C1057 0.961 . S
H1065 C1057 0.960 . S
H1066 C1058 0.930 . S
H1067 C1059 0.929 . S
H1068 C1076 0.929 . S
H1069 C1078 0.930 . S
H1070 C1080 0.930 . S
H1071 C1083 0.929 . S
H1072 C1086 0.930 . S
H1073 C1088 0.969 . S
H1074 C1088 0.910 1_565 S
H1075 C1088 1.012 . S
C1076 H1068 0.929 . S
C1076 C1077 1.420 . S
C1076 C1078 1.384 . S
C1077 C1076 1.420 . S
C1077 C1083 1.350 1_565 S
C1078 H1069 0.930 . S
C1078 C1076 1.384 . S
C1078 C1079 1.372 . S
C1079 C1078 1.372 . S
C1079 C1080 1.400 1_565 S
C1079 C1084 1.490 . S
C1080 H1070 0.930 . S
C1080 C1079 1.400 1_545 S
C1080 C1083 1.386 . S
H1081 C1097 0.930 . S
H1082 C1098 0.931 . S
C1083 H1071 0.929 . S
C1083 C1077 1.350 1_545 S
C1083 C1080 1.386 . S
C1084 C1079 1.490 . S
C1084 C1086 1.395 . S
C1084 C1087 1.403 . S
H1085 C1091 0.933 . S
C1086 H1072 0.930 . S
C1086 C1084 1.395 . S
C1086 C1089 1.403 . S
C1087 C1084 1.403 . S
C1087 C1088 1.518 1_565 S
C1087 C1091 1.400 . S
C1088 H1073 0.969 . S
C1088 H1074 0.910 1_545 S
C1088 H1075 1.012 . S
C1088 C1087 1.518 1_545 S
C1089 C1086 1.403 . S
C1089 C1090 1.392 . S
C1089 C1093 1.495 . S
C1090 C1089 1.392 . S
C1090 C1091 1.385 . S
C1090 C1092 1.478 . S
C1091 H1085 0.933 . S
C1091 C1087 1.400 . S
C1091 C1090 1.385 . S
C1092 C1090 1.478 . S
C1092 C1094 1.381 . S
C1092 C1098 1.383 1_565 S
C1093 C1089 1.495 . S
C1093 H1099 0.959 . S
C1093 H1100 0.970 . S
C1093 H1101 0.960 . S
C1094 C1092 1.381 . S
C1094 C1095 1.394 . S
C1094 H1102 0.930 . S
C1095 C1094 1.394 . S
C1095 C1096 1.383 . S
C1095 H1103 0.929 . S
C1096 C1095 1.383 . S
C1096 C1097 1.377 1_565 S
C1097 H1081 0.930 . S
C1097 C1096 1.377 1_545 S
C1097 C1098 1.379 . S
C1098 H1082 0.931 . S
C1098 C1092 1.383 1_545 S
C1098 C1097 1.379 . S
H1099 C1093 0.959 . S
H1100 C1093 0.970 . S
H1101 C1093 0.960 . S
H1102 C1094 0.930 . S
H1103 C1095 0.929 . S
H1104 C1112 0.929 . S
H1105 C1114 0.930 . S
H1106 C1116 0.930 . S
H1107 C1119 0.929 . S
H1108 C1122 0.930 . S
H1109 C1124 0.960 . S
H1110 C1124 0.960 . S
H1111 C1124 0.960 . S
C1112 H1104 0.929 . S
C1112 C1113 1.377 . S
C1112 C1114 1.384 . S
C1113 C1112 1.377 . S
C1113 C1119 1.390 . S
C1114 H1105 0.930 . S
C1114 C1112 1.384 . S
C1114 C1115 1.372 . S
C1115 C1114 1.372 . S
C1115 C1116 1.400 . S
C1115 C1120 1.490 . S
C1116 H1106 0.930 . S
C1116 C1115 1.400 . S
C1116 C1119 1.386 . S
H1117 C1133 0.930 . S
H1118 C1134 0.931 . S
C1119 H1107 0.929 . S
C1119 C1113 1.390 . S
C1119 C1116 1.386 . S
C1120 C1115 1.490 . S
C1120 C1122 1.395 . S
C1120 C1123 1.403 . S
H1121 C1127 0.930 . S
C1122 H1108 0.930 . S
C1122 C1120 1.395 . S
C1122 C1125 1.403 . S
C1123 C1120 1.403 . S
C1123 C1124 1.524 . S
C1123 C1127 1.400 . S
C1124 H1109 0.960 . S
C1124 H1110 0.960 . S
C1124 H1111 0.960 . S
C1124 C1123 1.524 . S
C1125 C1122 1.403 . S
C1125 C1126 1.392 . S
C1125 C1129 1.495 . S
C1126 C1125 1.392 . S
C1126 C1127 1.385 . S
C1126 C1128 1.478 . S
C1127 H1121 0.930 . S
C1127 C1123 1.400 . S
C1127 C1126 1.385 . S
C1128 C1126 1.478 . S
C1128 C1130 1.381 . S
C1128 C1134 1.383 . S
C1129 C1125 1.495 . S
C1129 H1135 0.959 . S
C1129 H1136 0.961 . S
C1129 H1137 0.960 . S
C1130 C1128 1.381 . S
C1130 C1131 1.394 . S
C1130 H1138 0.930 . S
C1131 C1130 1.394 . S
C1131 C1132 1.383 . S
C1131 H1139 0.929 . S
C1132 C1131 1.383 . S
C1132 C1133 1.377 . S
C1133 H1117 0.930 . S
C1133 C1132 1.377 . S
C1133 C1134 1.379 . S
C1134 H1118 0.931 . S
C1134 C1128 1.383 . S
C1134 C1133 1.379 . S
H1135 C1129 0.959 . S
H1136 C1129 0.961 . S
H1137 C1129 0.960 . S
H1138 C1130 0.930 . S
H1139 C1131 0.929 . S
H1140 C1148 0.929 . S
H1141 C1150 0.930 . S
H1142 C1152 0.930 . S
H1143 C1155 0.929 . S
H1144 C1158 0.930 . S
H1145 C1160 0.960 . S
H1146 C1160 0.960 . S
H1147 C1160 0.960 . S
C1148 H1140 0.929 . S
C1148 C1149 1.377 . S
C1148 C1150 1.384 . S
C1149 C1148 1.377 . S
C1149 C1155 1.390 . S
C1150 H1141 0.930 . S
C1150 C1148 1.384 . S
C1150 C1151 1.372 . S
C1151 C1150 1.372 . S
C1151 C1152 1.400 . S
C1151 C1156 1.490 . S
C1152 H1142 0.930 . S
C1152 C1151 1.400 . S
C1152 C1155 1.386 . S
H1153 C1169 0.930 . S
H1154 C1170 0.931 . S
C1155 H1143 0.929 . S
C1155 C1149 1.390 . S
C1155 C1152 1.386 . S
C1156 C1151 1.490 . S
C1156 C1158 1.395 . S
C1156 C1159 1.403 . S
H1157 C1163 0.930 . S
C1158 H1144 0.930 . S
C1158 C1156 1.395 . S
C1158 C1161 1.403 . S
C1159 C1156 1.403 . S
C1159 C1160 1.524 . S
C1159 C1163 1.400 . S
C1160 H1145 0.960 . S
C1160 H1146 0.960 . S
C1160 H1147 0.960 . S
C1160 C1159 1.524 . S
C1161 C1158 1.403 . S
C1161 C1162 1.392 . S
C1161 C1165 1.495 . S
C1162 C1161 1.392 . S
C1162 C1163 1.385 . S
C1162 C1164 1.478 . S
C1163 H1157 0.930 . S
C1163 C1159 1.400 . S
C1163 C1162 1.385 . S
C1164 C1162 1.478 . S
C1164 C1166 1.381 . S
C1164 C1170 1.383 . S
C1165 C1161 1.495 . S
C1165 H1171 0.959 . S
C1165 H1172 0.961 . S
C1165 H1173 0.960 . S
C1166 C1164 1.381 . S
C1166 C1167 1.394 . S
C1166 H1174 0.930 . S
C1167 C1166 1.394 . S
C1167 C1168 1.383 . S
C1167 H1175 0.929 . S
C1168 C1167 1.383 . S
C1168 C1169 1.377 . S
C1169 H1153 0.930 . S
C1169 C1168 1.377 . S
C1169 C1170 1.379 . S
C1170 H1154 0.931 . S
C1170 C1164 1.383 . S
C1170 C1169 1.379 . S
H1171 C1165 0.959 . S
H1172 C1165 0.961 . S
H1173 C1165 0.960 . S
H1174 C1166 0.930 . S
H1175 C1167 0.929 . S
C321 C125 1.802 1_545 S
C340 C161 1.839 1_545 S
C376 C201 1.831 . S
C357 C144 1.801 . S
C412 C241 1.852 . S
C393 C87 1.811 . S
C448 C281 1.840 . S
C429 C106 1.802 1_455 S
C484 C170 1.823 . S
C465 C49 1.805 . S
C501 C68 1.805 . S
C520 C210 1.849 . S
C537 C11 1.807 . S
C556 C250 1.851 . S
C573 C30 1.801 . S
C592 C290 1.836 1_655 S
C628 C167 0.413 . S
C609 C97 0.475 . S
C664 C207 0.422 . S
C645 C116 0.476 . S
C700 C247 0.418 . S
C681 C135 0.483 . S
C717 C78 0.459 . S
C736 C287 0.354 . S
C753 C21 0.454 . S
C772 C158 0.366 . S
C808 C198 0.367 . S
C789 C40 0.457 . S
C844 C238 0.339 . S
C825 C59 0.481 . S
C861 C2 0.451 . S
C880 C278 0.390 . S
C897 C101 1.932 1_455 S
C916 C171 2.094 . S
C933 C120 1.925 1_545 S
C952 C211 2.093 . S
C988 C251 2.099 . S
C969 C139 1.927 . S
C1024 C291 2.082 . S
C1005 C82 1.918 . S
C1041 C25 1.928 . S
C1060 C162 2.119 . S
C1096 C202 2.092 . S
C1077 C44 1.922 . S
C1132 C242 2.091 . S
C1113 C63 1.917 . S
C1149 C6 1.936 . S
C1168 C282 2.089 . S
