# Generated by pormake.
# Topology nom, (4,4)-cn, num edge types: 1
# Building blocks:
#     Node 0, Type 0, BuildingBlock: NAWXER_clean_linker_0, # of connection points: 4
#     Node 1, Type 0, BuildingBlock: NAWXER_clean_linker_0, # of connection points: 4
#     Node 2, Type 0, BuildingBlock: NAWXER_clean_linker_0, # of connection points: 4
#     Node 3, Type 0, BuildingBlock: NAWXER_clean_linker_0, # of connection points: 4
#     Node 4, Type 0, BuildingBlock: NAWXER_clean_linker_0, # of connection points: 4
#     Node 5, Type 0, BuildingBlock: NAWXER_clean_linker_0, # of connection points: 4
#     Node 6, Type 1, BuildingBlock: KUFVIS_clean_sbu_0, # of connection points: 4
#     Node 7, Type 1, BuildingBlock: KUFVIS_clean_sbu_0, # of connection points: 4
#     Node 8, Type 1, BuildingBlock: KUFVIS_clean_sbu_0, # of connection points: 4
#     Node 9, Type 1, BuildingBlock: KUFVIS_clean_sbu_0, # of connection points: 4
#     Node 10, Type 1, BuildingBlock: KUFVIS_clean_sbu_0, # of connection points: 4
#     Node 11, Type 1, BuildingBlock: KUFVIS_clean_sbu_0, # of connection points: 4
#     Edge 12, Type (0, 1), BuildingBlock: KIFKEQ_clean_linker_1, # of connection points: 2
#     Edge 13, Type (0, 1), BuildingBlock: KIFKEQ_clean_linker_1, # of connection points: 2
#     Edge 14, Type (0, 1), BuildingBlock: KIFKEQ_clean_linker_1, # of connection points: 2
#     Edge 15, Type (0, 1), BuildingBlock: KIFKEQ_clean_linker_1, # of connection points: 2
#     Edge 16, Type (0, 1), BuildingBlock: KIFKEQ_clean_linker_1, # of connection points: 2
#     Edge 17, Type (0, 1), BuildingBlock: KIFKEQ_clean_linker_1, # of connection points: 2
#     Edge 18, Type (0, 1), BuildingBlock: KIFKEQ_clean_linker_1, # of connection points: 2
#     Edge 19, Type (0, 1), BuildingBlock: KIFKEQ_clean_linker_1, # of connection points: 2
#     Edge 20, Type (0, 1), BuildingBlock: KIFKEQ_clean_linker_1, # of connection points: 2
#     Edge 21, Type (0, 1), BuildingBlock: KIFKEQ_clean_linker_1, # of connection points: 2
#     Edge 22, Type (0, 1), BuildingBlock: KIFKEQ_clean_linker_1, # of connection points: 2
#     Edge 23, Type (0, 1), BuildingBlock: KIFKEQ_clean_linker_1, # of connection points: 2
#     Edge 24, Type (0, 1), BuildingBlock: KIFKEQ_clean_linker_1, # of connection points: 2
#     Edge 25, Type (0, 1), BuildingBlock: KIFKEQ_clean_linker_1, # of connection points: 2
#     Edge 26, Type (0, 1), BuildingBlock: KIFKEQ_clean_linker_1, # of connection points: 2
#     Edge 27, Type (0, 1), BuildingBlock: KIFKEQ_clean_linker_1, # of connection points: 2
#     Edge 28, Type (0, 1), BuildingBlock: KIFKEQ_clean_linker_1, # of connection points: 2
#     Edge 29, Type (0, 1), BuildingBlock: KIFKEQ_clean_linker_1, # of connection points: 2
#     Edge 30, Type (0, 1), BuildingBlock: KIFKEQ_clean_linker_1, # of connection points: 2
#     Edge 31, Type (0, 1), BuildingBlock: KIFKEQ_clean_linker_1, # of connection points: 2
#     Edge 32, Type (0, 1), BuildingBlock: KIFKEQ_clean_linker_1, # of connection points: 2
#     Edge 33, Type (0, 1), BuildingBlock: KIFKEQ_clean_linker_1, # of connection points: 2
#     Edge 34, Type (0, 1), BuildingBlock: KIFKEQ_clean_linker_1, # of connection points: 2
#     Edge 35, Type (0, 1), BuildingBlock: KIFKEQ_clean_linker_1, # of connection points: 2
# Relax obj value: 0.005
# Max RMSD: 0.110
# Mean RMSD: 0.070
data_MOF--net-nom--node1-KUFVIS_clean_sbu_0--node2-NAWXER_clean_linker_0--edge1-KIFKEQ_clean_linker_1
_symmetry_space_group_name_H-M    P1
_symmetry_Int_Tables_number       1
_symmetry_cell_setting            triclinic
loop_
_symmetry_equiv_pos_as_xyz
'x, y, z'
_cell_length_a     52.464495
_cell_length_b     53.009428
_cell_length_c     58.330874
_cell_angle_alpha  90.614677
_cell_angle_beta   90.660632
_cell_angle_gamma 120.04502
loop_
_atom_site_label
_atom_site_type_symbol
_atom_site_fract_x
_atom_site_fract_y
_atom_site_fract_z
_atom_type_partial_charge
C0 C 0.90536 0.50905 0.33608 0.0
C1 C 0.89085 0.48493 0.35037 0.0
C2 C 0.93426 0.51872 0.32948 0.0
C3 C 0.94925 0.50462 0.33724 0.0
C4 C 0.90565 0.47049 0.35783 0.0
C5 C 0.93484 0.48054 0.35157 0.0
C6 C 0.98048 0.51624 0.33145 0.0
C7 C 0.92753 0.47293 0.26751 0.0
C8 C 0.93432 0.49087 0.24835 0.0
C9 C 0.94563 0.48263 0.28715 0.0
C10 C 0.97047 0.51079 0.28825 0.0
C11 C 0.95943 0.51878 0.24926 0.0
C12 C 0.9773 0.52864 0.26902 0.0
C13 C 0.99046 0.52126 0.30868 0.0
C14 C 0.12301 0.57567 0.3199 0.0
C15 C 0.13092 0.59625 0.30247 0.0
C16 C 0.09362 0.55918 0.32654 0.0
C17 C 0.0718 0.56366 0.31634 0.0
C18 C 0.10901 0.60022 0.29197 0.0
C19 C 0.07983 0.58415 0.29885 0.0
C20 C 0.04033 0.54646 0.32261 0.0
C21 C 0.08881 0.59083 0.38866 0.0
C22 C 0.08577 0.57127 0.40598 0.0
C23 C 0.07097 0.58096 0.36886 0.0
C24 C 0.05001 0.55128 0.36587 0.0
C25 C 0.06446 0.54164 0.40302 0.0
C26 C 0.04666 0.5318 0.38322 0.0
C27 C 0.03027 0.54054 0.34541 0.0
H28 H 0.89437 0.52051 0.33013 0.0
H29 H 0.94514 0.53763 0.31872 0.0
H30 H 0.89494 0.45199 0.36902 0.0
H31 H 0.94616 0.46956 0.35788 0.0
H32 H 0.90859 0.45111 0.26708 0.0
H33 H 0.94046 0.46785 0.30126 0.0
H34 H 0.96509 0.5331 0.23476 0.0
H35 H 0.99645 0.55032 0.26929 0.0
H36 H 0.13946 0.57195 0.32806 0.0
H37 H 0.08798 0.54277 0.33944 0.0
H38 H 0.11452 0.6161 0.27862 0.0
H39 H 0.06348 0.58793 0.29055 0.0
H40 H 0.10463 0.61387 0.39059 0.0
H41 H 0.07332 0.59656 0.35602 0.0
H42 H 0.06173 0.52595 0.41589 0.0
H43 H 0.03041 0.50886 0.38136 0.0
N44 N 1.00073 0.52569 0.3489 0.0
N45 N 0.01994 0.53641 0.30524 0.0
C46 C 0.41985 0.91352 0.50252 0.0
C47 C 0.43146 0.90229 0.51874 0.0
C48 C 0.43636 0.94237 0.49548 0.0
C49 C 0.46494 0.96062 0.50438 0.0
C50 C 0.46005 0.92071 0.52771 0.0
C51 C 0.47651 0.94962 0.52071 0.0
C52 C 0.48202 0.99164 0.49789 0.0
C53 C 0.47381 0.93966 0.43413 0.0
C54 C 0.46093 0.94509 0.41497 0.0
C55 C 0.48177 0.95771 0.45367 0.0
C56 C 0.47621 0.98105 0.45469 0.0
C57 C 0.45595 0.96877 0.41577 0.0
C58 C 0.46349 0.98653 0.43544 0.0
C59 C 0.48536 1.00107 0.47497 0.0
C60 C 0.56245 0.13238 0.48486 0.0
C61 C 0.5488 0.1402 0.46771 0.0
C62 C 0.54991 0.10336 0.49161 0.0
C63 C 0.52299 0.08175 0.48182 0.0
C64 C 0.52232 0.11849 0.45754 0.0
C65 C 0.50956 0.08962 0.46454 0.0
C66 C 0.50924 0.05067 0.48833 0.0
C67 C 0.51604 0.09879 0.55489 0.0
C68 C 0.5357 0.09757 0.57083 0.0
C69 C 0.50678 0.08073 0.53529 0.0
C70 C 0.51698 0.06114 0.53136 0.0
C71 C 0.54571 0.07781 0.56687 0.0
C72 C 0.53621 0.05958 0.54743 0.0
C73 C 0.50676 0.04119 0.51119 0.0
H74 H 0.3977 0.90021 0.49562 0.0
H75 H 0.42656 0.95058 0.4834 0.0
H76 H 0.46981 0.91276 0.54005 0.0
H77 H 0.49841 0.96338 0.52797 0.0
H78 H 0.47836 0.92186 0.43379 0.0
H79 H 0.49273 0.95365 0.46778 0.0
H80 H 0.44596 0.97337 0.40126 0.0
H81 H 0.45929 0.00457 0.43563 0.0
H82 H 0.58313 0.14863 0.49272 0.0
H83 H 0.56153 0.09785 0.50423 0.0
H84 H 0.51124 0.12393 0.44436 0.0
H85 H 0.48898 0.07341 0.45651 0.0
H86 H 0.50804 0.11387 0.5575 0.0
H87 H 0.49149 0.08189 0.52329 0.0
H88 H 0.56055 0.07613 0.57901 0.0
H89 H 0.54405 0.04436 0.54484 0.0
N90 N 0.49325 0.0121 0.51504 0.0
N91 N 0.49849 0.03016 0.47118 0.0
C92 C 0.55671 0.48357 0.60147 0.0
C93 C 0.53747 0.47096 0.5825 0.0
C94 C 0.54793 0.49286 0.62081 0.0
C95 C 0.5194 0.48898 0.62183 0.0
C96 C 0.5092 0.46761 0.5833 0.0
C97 C 0.50026 0.47649 0.60277 0.0
C98 C 0.50989 0.49945 0.64193 0.0
C99 C 0.52676 0.43108 0.67128 0.0
C100 C 0.55088 0.44176 0.6867 0.0
C101 C 0.51615 0.44911 0.66383 0.0
C102 C 0.52944 0.47822 0.67161 0.0
C103 C 0.56431 0.47095 0.69437 0.0
C104 C 0.55345 0.48893 0.68708 0.0
C105 C 0.51691 0.49669 0.66492 0.0
C106 C 0.44411 0.52804 0.72205 0.0
C107 C 0.46484 0.5502 0.73674 0.0
C108 C 0.45327 0.51947 0.70254 0.0
C109 C 0.48333 0.53268 0.6976 0.0
C110 C 0.49488 0.56369 0.73157 0.0
C111 C 0.50408 0.5547 0.71229 0.0
C112 C 0.49321 0.52256 0.67777 0.0
C113 C 0.45353 0.57489 0.65021 0.0
C114 C 0.42972 0.55909 0.63481 0.0
C115 C 0.47163 0.56373 0.65691 0.0
C116 C 0.46596 0.53638 0.64857 0.0
C117 C 0.42429 0.53182 0.62645 0.0
C118 C 0.44227 0.5207 0.63316 0.0
C119 C 0.48489 0.52405 0.65495 0.0
H120 H 0.57883 0.48689 0.60112 0.0
H121 H 0.56369 0.50355 0.63475 0.0
H122 H 0.49389 0.45786 0.56894 0.0
H123 H 0.47826 0.4735 0.60295 0.0
H124 H 0.51608 0.40872 0.665 0.0
H125 H 0.49717 0.44015 0.65229 0.0
H126 H 0.58274 0.47966 0.70643 0.0
H127 H 0.56378 0.51119 0.69353 0.0
H128 H 0.42083 0.51738 0.72569 0.0
H129 H 0.43697 0.5022 0.69152 0.0
H130 H 0.51126 0.58064 0.74276 0.0
H131 H 0.52738 0.56495 0.70881 0.0
H132 H 0.45852 0.59613 0.65672 0.0
H133 H 0.49028 0.57671 0.66828 0.0
H134 H 0.40587 0.51885 0.61486 0.0
H135 H 0.43746 0.49959 0.62646 0.0
N136 N 0.49377 0.51263 0.63794 0.0
N137 N 0.50873 0.5088 0.68191 0.0
C138 C 0.90485 0.43295 0.81865 0.0
C139 C 0.88831 0.44272 0.80635 0.0
C140 C 0.93452 0.4518 0.82394 0.0
C141 C 0.94851 0.48089 0.81699 0.0
C142 C 0.9025 0.47192 0.79924 0.0
C143 C 0.93245 0.49075 0.80433 0.0
C144 C 0.98016 0.50027 0.82241 0.0
C145 C 0.93238 0.49061 0.88774 0.0
C146 C 0.93773 0.47538 0.90499 0.0
C147 C 0.94977 0.49974 0.86823 0.0
C148 C 0.97273 0.49363 0.86543 0.0
C149 C 0.96089 0.46952 0.9022 0.0
C150 C 0.97829 0.4787 0.8827 0.0
C151 C 0.99163 0.50361 0.84498 0.0
C152 C 0.12368 0.57467 0.83328 0.0
C153 C 0.13164 0.55692 0.84561 0.0
C154 C 0.094 0.56509 0.82824 0.0
C155 C 0.07189 0.53766 0.83551 0.0
C156 C 0.10938 0.5297 0.8531 0.0
C157 C 0.07984 0.52027 0.84821 0.0
C158 C 0.04033 0.52673 0.83046 0.0
C159 C 0.08118 0.52906 0.76223 0.0
C160 C 0.08467 0.55282 0.74924 0.0
C161 C 0.06314 0.52009 0.78137 0.0
C162 C 0.04791 0.53442 0.7878 0.0
C163 C 0.06921 0.56705 0.75583 0.0
C164 C 0.05077 0.55771 0.77477 0.0
C165 C 0.02896 0.525 0.80808 0.0
H166 H 0.89511 0.41049 0.82382 0.0
H167 H 0.94672 0.44351 0.83322 0.0
H168 H 0.89048 0.48031 0.78989 0.0
H169 H 0.94295 0.51309 0.79867 0.0
H170 H 0.91512 0.49599 0.88952 0.0
H171 H 0.94553 0.51198 0.8555 0.0
H172 H 0.96541 0.45753 0.91498 0.0
H173 H 0.99592 0.47381 0.88099 0.0
H174 H 0.14038 0.59577 0.82733 0.0
H175 H 0.08834 0.57916 0.81883 0.0
H176 H 0.11477 0.51577 0.86299 0.0
H177 H 0.06315 0.49915 0.85415 0.0
H178 H 0.09205 0.51704 0.75749 0.0
H179 H 0.06089 0.5018 0.79108 0.0
H180 H 0.07159 0.58568 0.74658 0.0
H181 H 0.03917 0.56904 0.77954 0.0
N182 N 0.99924 0.51153 0.8048 0.0
N183 N 0.02124 0.51621 0.84808 0.0
C184 C 0.48834 0.91481 0.98459 0.0
C185 C 0.46497 0.9013 0.96845 0.0
C186 C 0.49923 0.9438 0.99148 0.0
C187 C 0.48683 0.95982 0.98254 0.0
C188 C 0.45285 0.91755 0.95935 0.0
C189 C 0.46383 0.94659 0.96622 0.0
C190 C 0.49901 0.99084 0.98907 0.0
C191 C 0.45904 0.93827 0.05207 0.0
C192 C 0.47762 0.94639 0.07167 0.0
C193 C 0.46713 0.95612 0.03288 0.0
C194 C 0.49454 0.98203 0.03238 0.0
C195 C 0.50442 0.97305 0.07146 0.0
C196 C 0.51281 0.99047 0.05207 0.0
C197 C 0.50407 1.00125 0.01207 0.0
C198 C 0.5595 0.1325 1.00017 0.0
C199 C 0.58142 0.14119 0.01732 0.0
C200 C 0.54127 0.1029 0.99462 0.0
C201 C 0.54564 0.08171 0.00544 0.0
C202 C 0.5846 0.11998 0.02908 0.0
C203 C 0.56697 0.09055 0.02313 0.0
C204 C 0.52846 0.05034 0.99879 0.0
C205 C 0.57159 0.09837 0.93413 0.0
C206 C 0.55152 0.09371 0.91616 0.0
C207 C 0.56245 0.0808 0.95348 0.0
C208 C 0.53286 0.05883 0.95553 0.0
C209 C 0.52214 0.07122 0.91798 0.0
C210 C 0.51293 0.05396 0.93746 0.0
C211 C 0.52264 0.03982 0.9758 0.0
H212 H 0.49864 0.90318 0.99157 0.0
H213 H 0.51762 0.95382 1.00357 0.0
H214 H 0.43469 0.90778 0.94705 0.0
H215 H 0.45418 0.95868 0.95892 0.0
H216 H 0.43828 0.91796 0.05135 0.0
H217 H 0.45181 0.94955 0.01847 0.0
H218 H 0.51901 0.98075 0.08635 0.0
H219 H 0.53379 0.01061 0.05248 0.0
H220 H 0.55651 0.14859 0.9911 0.0
H221 H 0.52415 0.0967 0.98164 0.0
H222 H 0.60139 0.12628 0.04238 0.0
H223 H 0.57058 0.07471 0.03199 0.0
H224 H 0.59449 0.11518 0.93299 0.0
H225 H 0.57853 0.08435 0.9668 0.0
H226 H 0.50618 0.06716 0.90442 0.0
H227 H 0.49011 0.03689 0.9385 0.0
N228 N 0.50807 0.01051 0.97194 0.0
N229 N 0.51887 0.03058 0.01589 0.0
C230 C 0.49656 0.6111 0.16984 0.0
C231 C 0.47031 0.60089 0.18207 0.0
C232 C 0.50716 0.59246 0.16412 0.0
C233 C 0.49194 0.5632 0.1706 0.0
C234 C 0.45525 0.57152 0.18874 0.0
C235 C 0.46615 0.55294 0.18325 0.0
C236 C 0.50359 0.54379 0.16451 0.0
C237 C 0.46562 0.55829 0.10017 0.0
C238 C 0.48543 0.57099 0.0822 0.0
C239 C 0.47351 0.54815 0.11947 0.0
C240 C 0.50169 0.55126 0.12148 0.0
C241 C 0.5133 0.57344 0.0839 0.0
C242 C 0.52136 0.56372 0.10336 0.0
C243 C 0.51044 0.54038 0.14174 0.0
C244 C 0.56791 0.4659 0.15172 0.0
C245 C 0.59026 0.48054 0.13566 0.0
C246 C 0.54975 0.47698 0.15826 0.0
C247 C 0.55399 0.50328 0.14925 0.0
C248 C 0.59386 0.50644 0.12629 0.0
C249 C 0.57604 0.51766 0.13305 0.0
C250 C 0.53502 0.51564 0.15537 0.0
C251 C 0.57567 0.51274 0.22379 0.0
C252 C 0.55486 0.49057 0.23757 0.0
C253 C 0.56662 0.52125 0.20414 0.0
C254 C 0.53661 0.50798 0.19815 0.0
C255 C 0.52486 0.47708 0.23139 0.0
C256 C 0.51578 0.48602 0.21199 0.0
C257 C 0.52685 0.51778 0.17802 0.0
H258 H 0.50932 0.6337 0.16498 0.0
H259 H 0.5275 0.60101 0.1548 0.0
H260 H 0.43486 0.56276 0.19799 0.0
H261 H 0.4542 0.53043 0.18851 0.0
H262 H 0.44378 0.55564 0.09908 0.0
H263 H 0.45735 0.53748 0.13263 0.0
H264 H 0.529 0.58321 0.07029 0.0
H265 H 0.54311 0.56613 0.10432 0.0
H266 H 0.56449 0.44594 0.15936 0.0
H267 H 0.53222 0.46473 0.17009 0.0
H268 H 0.61023 0.51797 0.11344 0.0
H269 H 0.57958 0.53775 0.12555 0.0
H270 H 0.59892 0.52342 0.2282 0.0
H271 H 0.58299 0.53846 0.19378 0.0
H272 H 0.50842 0.46011 0.24187 0.0
H273 H 0.4925 0.47569 0.20769 0.0
N274 N 0.51161 0.53195 0.18175 0.0
N275 N 0.5262 0.5268 0.13817 0.0
Mn276 Mn 0.62497 0.3935 0.4148 0.0
Mn277 Mn 0.65959 0.46582 0.42666 0.0
C278 C 0.60581 0.41164 0.44152 0.0
C279 C 0.61837 0.34729 0.42145 0.0
C280 C 0.62302 0.43839 0.38334 0.0
O281 O 0.66597 0.40817 0.40199 0.0
O282 O 0.68777 0.45563 0.41278 0.0
C283 C 0.7007 0.46885 0.46319 0.0
N284 N 0.67875 0.47371 0.45606 0.0
C285 C 0.67809 0.49437 0.49283 0.0
C286 C 0.70083 0.48977 0.50053 0.0
C287 C 0.71214 0.47689 0.48565 0.0
C288 C 0.66769 0.48606 0.47023 0.0
H289 H 0.70936 0.45887 0.45182 0.0
C290 C 0.68829 0.43387 0.40346 0.0
O291 O 0.61051 0.35345 0.40207 0.0
O292 O 0.63081 0.36819 0.43667 0.0
N293 N 0.63488 0.47863 0.44025 0.0
C294 C 0.61184 0.47999 0.43058 0.0
C295 C 0.59741 0.49148 0.44345 0.0
C296 C 0.60694 0.50164 0.46602 0.0
C297 C 0.6309 0.5003 0.4755 0.0
C298 C 0.64456 0.48882 0.46181 0.0
H299 H 0.60441 0.47219 0.41325 0.0
O300 O 0.58909 0.38648 0.43161 0.0
O301 O 0.63325 0.42537 0.43554 0.0
O302 O 0.61439 0.41193 0.38821 0.0
O303 O 0.64024 0.46001 0.3963 0.0
C304 C 0.64137 0.50932 0.49817 0.0
C305 C 0.66492 0.50633 0.50684 0.0
H306 H 0.7096 0.49578 0.51788 0.0
H307 H 0.72958 0.47313 0.49151 0.0
H308 H 0.5789 0.49241 0.43601 0.0
H309 H 0.59555 0.5102 0.47597 0.0
H310 H 0.63114 0.51814 0.50921 0.0
H311 H 0.67248 0.51293 0.5244 0.0
Mn312 Mn 0.25334 0.65043 0.57499 0.0
Mn313 Mn 0.21412 0.57833 0.56279 0.0
C314 C 0.21497 0.63272 0.54838 0.0
C315 C 0.29377 0.69628 0.56811 0.0
C316 C 0.2074 0.60578 0.60665 0.0
O317 O 0.27937 0.63512 0.58773 0.0
O318 O 0.25362 0.58839 0.57512 0.0
C319 C 0.24923 0.5751 0.5247 0.0
N320 N 0.22301 0.57048 0.53279 0.0
C321 C 0.19875 0.55032 0.4964 0.0
C322 C 0.22546 0.55469 0.48773 0.0
C323 C 0.25081 0.56719 0.50193 0.0
C324 C 0.19849 0.55851 0.51926 0.0
H325 H 0.26878 0.5848 0.53554 0.0
C326 C 0.2763 0.60978 0.58488 0.0
O327 O 0.28039 0.69045 0.58759 0.0
O328 O 0.28419 0.67524 0.55299 0.0
N329 N 0.17556 0.5659 0.55044 0.0
C330 C 0.15194 0.5646 0.56106 0.0
C331 C 0.12499 0.55334 0.54901 0.0
C332 C 0.12256 0.54339 0.52623 0.0
C333 C 0.1471 0.54473 0.51572 0.0
C334 C 0.17332 0.55594 0.52865 0.0
H335 H 0.15366 0.5722 0.57856 0.0
O336 O 0.22437 0.65799 0.55822 0.0
O337 O 0.22845 0.6188 0.55431 0.0
O338 O 0.22482 0.63228 0.6015 0.0
O339 O 0.20286 0.58415 0.59384 0.0
C340 C 0.14672 0.53588 0.4928 0.0
C341 C 0.17254 0.53871 0.48314 0.0
H342 H 0.22682 0.54878 0.47014 0.0
H343 H 0.27153 0.57077 0.49532 0.0
H344 H 0.10616 0.55241 0.55722 0.0
H345 H 0.10181 0.53496 0.51693 0.0
H346 H 0.12681 0.52727 0.48234 0.0
H347 H 0.17209 0.53223 0.46539 0.0
Mn348 Mn 0.62272 0.2605 0.74165 0.0
Mn349 Mn 0.65959 0.22461 0.73137 0.0
C350 C 0.60472 0.22297 0.71468 0.0
C351 C 0.61438 0.29901 0.7345 0.0
C352 C 0.62209 0.21425 0.77322 0.0
O353 O 0.66336 0.28796 0.7553 0.0
O354 O 0.68647 0.26298 0.74659 0.0
C355 C 0.70092 0.264 0.69688 0.0
N356 N 0.67952 0.2369 0.70293 0.0
C357 C 0.68136 0.21659 0.66631 0.0
C358 C 0.70355 0.24426 0.65973 0.0
C359 C 0.7133 0.26808 0.67507 0.0
C360 C 0.66986 0.21386 0.68827 0.0
H361 H 0.70847 0.28237 0.70862 0.0
C362 C 0.68617 0.28523 0.75514 0.0
O363 O 0.607 0.28523 0.75373 0.0
O364 O 0.62703 0.29073 0.71963 0.0
N365 N 0.63646 0.18735 0.71653 0.0
C366 C 0.61371 0.1625 0.725 0.0
C367 C 0.60078 0.13683 0.7115 0.0
C368 C 0.61155 0.1369 0.68956 0.0
C369 C 0.63517 0.16266 0.6813 0.0
C370 C 0.64719 0.18757 0.69553 0.0
H371 H 0.60533 0.16231 0.74185 0.0
O372 O 0.58725 0.23064 0.72407 0.0
O373 O 0.6322 0.23751 0.72134 0.0
O374 O 0.61368 0.23241 0.76834 0.0
O375 O 0.63933 0.2099 0.76064 0.0
C376 C 0.64696 0.16472 0.65938 0.0
C377 C 0.66992 0.19169 0.65183 0.0
H378 H 0.71312 0.2475 0.6429 0.0
H379 H 0.73033 0.28952 0.67008 0.0
H380 H 0.58252 0.11705 0.71798 0.0
H381 H 0.6014 0.1171 0.67914 0.0
H382 H 0.63822 0.14577 0.64805 0.0
H383 H 0.67845 0.1931 0.63478 0.0
Mn384 Mn 0.39795 0.64868 0.91451 0.0
Mn385 Mn 0.36432 0.57692 0.92584 0.0
C386 C 0.41824 0.632 0.94155 0.0
C387 C 0.40324 0.69448 0.92133 0.0
C388 C 0.39922 0.60331 0.8828 0.0
O389 O 0.35669 0.63273 0.90072 0.0
O390 O 0.335 0.58639 0.91282 0.0
C391 C 0.32525 0.57432 0.96305 0.0
N392 N 0.347 0.56964 0.95542 0.0
C393 C 0.35009 0.54995 0.99165 0.0
C394 C 0.3276 0.5544 0.99986 0.0
C395 C 0.31518 0.56669 0.98551 0.0
C396 C 0.35912 0.55784 0.96908 0.0
H397 H 0.31571 0.58383 0.95208 0.0
C398 C 0.33413 0.60743 0.90291 0.0
O399 O 0.4112 0.68815 0.9021 0.0
O400 O 0.3916 0.67399 0.93628 0.0
N401 N 0.39028 0.565 0.93871 0.0
C402 C 0.413 0.56385 0.92865 0.0
C403 C 0.42847 0.55298 0.94099 0.0
C404 C 0.42031 0.54323 0.96345 0.0
C405 C 0.3967 0.5444 0.97337 0.0
C406 C 0.38197 0.55526 0.96019 0.0
H407 H 0.41937 0.57131 0.91139 0.0
O408 O 0.4344 0.65704 0.93211 0.0
O409 O 0.39072 0.6177 0.93502 0.0
O410 O 0.40866 0.62994 0.88826 0.0
O411 O 0.38182 0.58201 0.89521 0.0
C412 C 0.38761 0.53579 0.99599 0.0
C413 C 0.36434 0.53859 0.00513 0.0
H414 H 0.31989 0.54871 0.01722 0.0
H415 H 0.29791 0.57032 0.99176 0.0
H416 H 0.44671 0.5522 0.93323 0.0
H417 H 0.43248 0.53513 0.97299 0.0
H418 H 0.39869 0.52746 0.00663 0.0
H419 H 0.35786 0.53234 0.02265 0.0
Mn420 Mn 0.76776 0.40327 0.07879 0.0
Mn421 Mn 0.80358 0.36631 0.08893 0.0
C422 C 0.80562 0.42088 0.10565 0.0
C423 C 0.72903 0.41161 0.08614 0.0
C424 C 0.81432 0.40376 0.0472 0.0
O425 O 0.73998 0.36325 0.06496 0.0
O426 O 0.76469 0.33985 0.07375 0.0
C427 C 0.76375 0.32568 0.12353 0.0
N428 N 0.79118 0.34673 0.11744 0.0
C429 C 0.81145 0.34571 0.15441 0.0
C430 C 0.78346 0.32386 0.16102 0.0
C431 C 0.7595 0.31385 0.14552 0.0
C432 C 0.81438 0.35654 0.13222 0.0
H433 H 0.74525 0.31803 0.11171 0.0
C434 C 0.74243 0.34049 0.06512 0.0
O435 O 0.74291 0.41907 0.06689 0.0
O436 O 0.73728 0.39881 0.10086 0.0
N437 N 0.84133 0.38908 0.1037 0.0
C438 C 0.86651 0.41138 0.09511 0.0
C439 C 0.89236 0.42447 0.10873 0.0
C440 C 0.8921 0.41439 0.13095 0.0
C441 C 0.86602 0.39119 0.13931 0.0
C442 C 0.84099 0.37885 0.12489 0.0
H443 H 0.86682 0.41928 0.07808 0.0
O444 O 0.79788 0.43823 0.09638 0.0
O445 O 0.79087 0.39367 0.09899 0.0
O446 O 0.79625 0.41238 0.0522 0.0
O447 O 0.81836 0.38632 0.05962 0.0
C448 C 0.8637 0.38028 0.16157 0.0
C449 C 0.83643 0.35758 0.16912 0.0
H450 H 0.78005 0.31481 0.17801 0.0
H451 H 0.7378 0.29711 0.15054 0.0
H452 H 0.91239 0.44239 0.10217 0.0
H453 H 0.91199 0.42478 0.1415 0.0
H454 H 0.88264 0.3895 0.17315 0.0
H455 H 0.83482 0.34966 0.18639 0.0
Mn456 Mn 0.38393 0.7781 0.24678 0.0
Mn457 Mn 0.45745 0.81606 0.25642 0.0
C458 C 0.40369 0.81612 0.27323 0.0
C459 C 0.33776 0.73844 0.25457 0.0
C460 C 0.42771 0.8234 0.21413 0.0
O461 O 0.39794 0.75173 0.2331 0.0
O462 O 0.44622 0.77712 0.24297 0.0
C463 C 0.46221 0.78022 0.29293 0.0
N464 N 0.46682 0.80646 0.28561 0.0
C465 C 0.48929 0.82957 0.32182 0.0
C466 C 0.48496 0.80282 0.32969 0.0
C467 C 0.47132 0.77804 0.31519 0.0
C468 C 0.47994 0.83045 0.29941 0.0
H469 H 0.4516 0.76109 0.28186 0.0
C470 C 0.42365 0.75473 0.23408 0.0
O471 O 0.34291 0.75186 0.2352 0.0
O472 O 0.35958 0.7477 0.26917 0.0
N473 N 0.47116 0.85405 0.26956 0.0
C474 C 0.47195 0.87771 0.25987 0.0
C475 C 0.48399 0.90407 0.27244 0.0
C476 C 0.49522 0.90588 0.29475 0.0
C477 C 0.49441 0.88133 0.30428 0.0
C478 C 0.48236 0.8557 0.29088 0.0
H479 H 0.46328 0.87641 0.24276 0.0
O480 O 0.37776 0.80715 0.26422 0.0
O481 O 0.41715 0.80239 0.26659 0.0
O482 O 0.4012 0.8062 0.21995 0.0
O483 O 0.45015 0.82791 0.22617 0.0
C484 C 0.50446 0.88108 0.32673 0.0
C485 C 0.50189 0.85521 0.3355 0.0
H486 H 0.49177 0.801 0.34691 0.0
H487 H 0.46776 0.75728 0.32119 0.0
H488 H 0.48448 0.92291 0.26498 0.0
H489 H 0.50417 0.92616 0.30449 0.0
H490 H 0.51375 0.90053 0.33754 0.0
H491 H 0.50928 0.85518 0.35291 0.0
H492 H 0.15151 0.6052 0.25891 0.0
H493 H 0.18003 0.62712 0.3296 0.0
H494 H 0.20189 0.63668 0.24659 0.0
H495 H 0.23033 0.65959 0.31743 0.0
H496 H 0.32249 0.70096 0.29025 0.0
H497 H 0.27318 0.66384 0.30119 0.0
H498 H 0.23644 0.68645 0.24356 0.0
H499 H 0.28581 0.72256 0.23215 0.0
C500 C 0.16864 0.61686 0.2718 0.0
C501 C 0.1619 0.61384 0.29519 0.0
C502 C 0.19751 0.63505 0.26476 0.0
C503 C 0.2203 0.651 0.28096 0.0
C504 C 0.21355 0.64739 0.30443 0.0
C505 C 0.1847 0.62887 0.31146 0.0
C506 C 0.30386 0.69775 0.27981 0.0
C507 C 0.30802 0.71469 0.26035 0.0
C508 C 0.27553 0.67661 0.28618 0.0
C509 C 0.25065 0.67215 0.27339 0.0
C510 C 0.25499 0.68884 0.25366 0.0
C511 C 0.28333 0.70971 0.24715 0.0
H512 H 0.56872 0.18888 0.49491 0.0
H513 H 0.55836 0.16063 0.42408 0.0
H514 H 0.5875 0.23896 0.48296 0.0
H515 H 0.57829 0.21083 0.41195 0.0
H516 H 0.58071 0.29689 0.39826 0.0
H517 H 0.56571 0.24724 0.40911 0.0
H518 H 0.62665 0.28042 0.467 0.0
H519 H 0.6405 0.33002 0.45665 0.0
C520 C 0.57096 0.19353 0.47677 0.0
C521 C 0.56196 0.17089 0.46043 0.0
C522 C 0.58186 0.22228 0.46987 0.0
C523 C 0.58444 0.22913 0.44642 0.0
C524 C 0.57609 0.20643 0.43012 0.0
C525 C 0.56479 0.17764 0.43704 0.0
C526 C 0.59108 0.29355 0.41318 0.0
C527 C 0.61167 0.31735 0.42666 0.0
C528 C 0.58259 0.26503 0.41938 0.0
C529 C 0.5948 0.25961 0.43906 0.0
C530 C 0.61624 0.2836 0.45204 0.0
C531 C 0.6244 0.3121 0.44601 0.0
H532 H 0.40763 0.58695 0.66094 0.0
H533 H 0.40827 0.55761 0.59167 0.0
H534 H 0.37234 0.60188 0.64892 0.0
H535 H 0.37302 0.57227 0.5798 0.0
H536 H 0.28152 0.56201 0.57583 0.0
H537 H 0.32045 0.55287 0.58795 0.0
H538 H 0.36496 0.63625 0.62349 0.0
H539 H 0.32554 0.64555 0.61145 0.0
C540 C 0.4006 0.58409 0.6431 0.0
C541 C 0.41042 0.57069 0.62733 0.0
C542 C 0.3804 0.59263 0.63623 0.0
C543 C 0.36962 0.58788 0.61349 0.0
C544 C 0.38044 0.57565 0.59756 0.0
C545 C 0.4006 0.5672 0.60438 0.0
C546 C 0.2995 0.5785 0.58626 0.0
C547 C 0.30031 0.60457 0.59265 0.0
C548 C 0.32198 0.5733 0.59306 0.0
C549 C 0.3459 0.59393 0.60651 0.0
C550 C 0.34672 0.61991 0.61318 0.0
C551 C 0.32421 0.62526 0.6062 0.0
H552 H 0.84722 0.39874 0.83255 0.0
H553 H 0.85743 0.43972 0.76693 0.0
H554 H 0.79732 0.36151 0.82131 0.0
H555 H 0.80685 0.40313 0.75634 0.0
H556 H 0.70375 0.34329 0.75768 0.0
H557 H 0.75162 0.38335 0.77122 0.0
H558 H 0.77943 0.32153 0.7877 0.0
H559 H 0.73204 0.2816 0.77378 0.0
C560 C 0.8389 0.39995 0.81577 0.0
C561 C 0.85669 0.42209 0.80052 0.0
C562 C 0.81022 0.37872 0.80946 0.0
C563 C 0.7984 0.37945 0.78796 0.0
C564 C 0.81547 0.40226 0.7731 0.0
C565 C 0.8444 0.42327 0.77924 0.0
C566 C 0.72002 0.33827 0.76437 0.0
C567 C 0.71418 0.30933 0.76467 0.0
C568 C 0.74738 0.36117 0.77198 0.0
C569 C 0.76906 0.35542 0.78051 0.0
C570 C 0.76296 0.32647 0.78133 0.0
C571 C 0.73592 0.30368 0.77329 0.0
H572 H 0.44793 0.87742 0.92514 0.0
H573 H 0.45633 0.85539 0.99486 0.0
H574 H 0.42994 0.82705 0.91296 0.0
H575 H 0.43982 0.80551 0.98251 0.0
H576 H 0.3848 0.71225 0.95845 0.0
H577 H 0.39725 0.76172 0.96907 0.0
H578 H 0.44779 0.79356 0.90742 0.0
H579 H 0.43457 0.74387 0.89648 0.0
C580 C 0.44582 0.86182 0.9379 0.0
C581 C 0.45361 0.87049 0.96099 0.0
C582 C 0.43584 0.83301 0.93085 0.0
C583 C 0.43344 0.81218 0.94673 0.0
C584 C 0.441 0.82083 0.96985 0.0
C585 C 0.45089 0.84958 0.97689 0.0
C586 C 0.39833 0.72977 0.94705 0.0
C587 C 0.40882 0.72417 0.92668 0.0
C588 C 0.40565 0.75818 0.95322 0.0
C589 C 0.42379 0.78171 0.93924 0.0
C590 C 0.43355 0.77596 0.9185 0.0
C591 C 0.42607 0.74748 0.91226 0.0
H592 H 0.64901 0.5115 0.12586 0.0
H593 H 0.57571 0.4233 0.12907 0.0
H594 H 0.68029 0.49295 0.11225 0.0
H595 H 0.60767 0.40485 0.11634 0.0
H596 H 0.68958 0.39007 0.12076 0.0
H597 H 0.65452 0.4053 0.13216 0.0
H598 H 0.68204 0.46526 0.07606 0.0
H599 H 0.71689 0.44986 0.06445 0.0
C600 C 0.63944 0.48818 0.12354 0.0
C601 C 0.60966 0.46896 0.12841 0.0
C602 C 0.65745 0.47759 0.1158 0.0
C603 C 0.64631 0.44751 0.11309 0.0
C604 C 0.6168 0.42816 0.11838 0.0
C605 C 0.59859 0.43877 0.12581 0.0
C606 C 0.6879 0.40627 0.11071 0.0
C607 C 0.70604 0.41887 0.09176 0.0
C608 C 0.66777 0.41487 0.1172 0.0
C609 C 0.66575 0.43656 0.10507 0.0
C610 C 0.68339 0.44867 0.08581 0.0
C611 C 0.70318 0.43974 0.07911 0.0
H612 H 0.39464 0.85368 0.49292 0.0
H613 H 0.42762 0.88149 0.56223 0.0
H614 H 0.36346 0.80416 0.50586 0.0
H615 H 0.39755 0.83154 0.57499 0.0
H616 H 0.31198 0.74679 0.59285 0.0
H617 H 0.34695 0.79633 0.58139 0.0
H618 H 0.36435 0.7624 0.5195 0.0
H619 H 0.32873 0.71304 0.53064 0.0
C620 C 0.39533 0.84923 0.51092 0.0
C621 C 0.41357 0.87168 0.52652 0.0
C622 C 0.37773 0.82068 0.51831 0.0
C623 C 0.37799 0.81374 0.5415 0.0
C624 C 0.39654 0.83611 0.55706 0.0
C625 C 0.41408 0.86472 0.54967 0.0
C626 C 0.32352 0.74993 0.57692 0.0
C627 C 0.31743 0.72602 0.56258 0.0
C628 C 0.34368 0.77834 0.57037 0.0
C629 C 0.35832 0.78345 0.54939 0.0
C630 C 0.35303 0.75937 0.53552 0.0
C631 C 0.33276 0.73102 0.542 0.0
H632 H 0.60766 0.45281 0.68971 0.0
H633 H 0.51793 0.38662 0.70265 0.0
H634 H 0.62477 0.41994 0.7028 0.0
H635 H 0.53496 0.35378 0.71557 0.0
H636 H 0.63384 0.33636 0.69863 0.0
H637 H 0.61979 0.37236 0.68839 0.0
H638 H 0.56508 0.34994 0.74799 0.0
H639 H 0.57917 0.31395 0.75832 0.0
C640 C 0.59166 0.43132 0.69549 0.0
C641 C 0.56147 0.42221 0.69509 0.0
C642 C 0.60141 0.41247 0.70283 0.0
C643 C 0.58119 0.38432 0.71022 0.0
C644 C 0.55107 0.37544 0.71017 0.0
C645 C 0.5413 0.39412 0.70257 0.0
C646 C 0.61901 0.33928 0.70966 0.0
C647 C 0.60752 0.32224 0.72924 0.0
C648 C 0.61109 0.36 0.70385 0.0
C649 C 0.59126 0.36387 0.71734 0.0
C650 C 0.5802 0.34721 0.73716 0.0
C651 C 0.58839 0.32673 0.74312 0.0
H652 H 0.15917 0.52516 0.84149 0.0
H653 H 0.17475 0.61034 0.86194 0.0
H654 H 0.20902 0.53886 0.8538 0.0
H655 H 0.22479 0.62407 0.87455 0.0
H656 H 0.32154 0.64414 0.87836 0.0
H657 H 0.27375 0.63345 0.86242 0.0
H658 H 0.23363 0.54727 0.8908 0.0
H659 H 0.28097 0.55755 0.9063 0.0
C660 C 0.17331 0.54685 0.84862 0.0
C661 C 0.16294 0.56655 0.85103 0.0
C662 C 0.20185 0.5547 0.85571 0.0
C663 C 0.22073 0.58241 0.86549 0.0
C664 C 0.21084 0.60261 0.86698 0.0
C665 C 0.1822 0.59475 0.85979 0.0
C666 C 0.30252 0.62291 0.88117 0.0
C667 C 0.30524 0.60167 0.89351 0.0
C668 C 0.27512 0.61684 0.8721 0.0
C669 C 0.24995 0.58941 0.87513 0.0
C670 C 0.25268 0.5684 0.8877 0.0
C671 C 0.2799 0.57441 0.89674 0.0
H672 H 0.58895 0.17038 0.05772 0.0
H673 H 0.62071 0.18145 0.98859 0.0
H674 H 0.62685 0.22079 0.06736 0.0
H675 H 0.65924 0.2316 0.99842 0.0
H676 H 0.7453 0.29539 0.04494 0.0
H677 H 0.70421 0.24862 0.03127 0.0
H678 H 0.64281 0.27616 0.05113 0.0
H679 H 0.68393 0.32338 0.06424 0.0
C680 C 0.60385 0.18381 0.04457 0.0
C681 C 0.602 0.17233 0.02243 0.0
C682 C 0.62539 0.21251 0.05004 0.0
C683 C 0.64582 0.22987 0.03359 0.0
C684 C 0.64365 0.21854 0.01133 0.0
C685 C 0.62165 0.19005 0.00571 0.0
C686 C 0.72306 0.29158 0.04616 0.0
C687 C 0.71779 0.31299 0.05563 0.0
C688 C 0.69964 0.26494 0.03825 0.0
C689 C 0.67051 0.25899 0.04017 0.0
C690 C 0.66516 0.28038 0.04948 0.0
C691 C 0.68864 0.30734 0.05687 0.0
H692 H 0.47304 0.64541 0.15657 0.0
H693 H 0.44252 0.60247 0.2214 0.0
H694 H 0.45983 0.68163 0.16815 0.0
H695 H 0.42797 0.63803 0.23229 0.0
H696 H 0.38335 0.69635 0.23091 0.0
H697 H 0.39175 0.65717 0.21726 0.0
H698 H 0.48174 0.72073 0.20242 0.0
H699 H 0.47369 0.7597 0.21643 0.0
C700 C 0.46348 0.64356 0.17325 0.0
C701 C 0.45933 0.62115 0.18817 0.0
C702 C 0.45571 0.66421 0.17975 0.0
C703 C 0.44302 0.66261 0.20111 0.0
C704 C 0.43754 0.63956 0.21564 0.0
C705 C 0.44579 0.61915 0.20932 0.0
C706 C 0.40485 0.70191 0.22459 0.0
C707 C 0.42789 0.73106 0.22476 0.0
C708 C 0.40966 0.67953 0.21691 0.0
C709 C 0.43735 0.68603 0.20877 0.0
C710 C 0.46014 0.7152 0.20847 0.0
C711 C 0.45555 0.73745 0.21659 0.0
H712 H 0.84142 0.43108 0.34659 0.0
H713 H 0.87297 0.5186 0.37209 0.0
H714 H 0.79144 0.41734 0.35807 0.0
H715 H 0.8238 0.50486 0.38476 0.0
H716 H 0.73036 0.48374 0.38463 0.0
H717 H 0.77817 0.49456 0.37089 0.0
H718 H 0.75898 0.40776 0.38846 0.0
H719 H 0.71013 0.39651 0.40101 0.0
C720 C 0.83761 0.44723 0.35491 0.0
C721 C 0.86084 0.47593 0.35828 0.0
C722 C 0.80905 0.43939 0.36161 0.0
C723 C 0.8033 0.46003 0.37215 0.0
C724 C 0.82698 0.48853 0.37608 0.0
C725 C 0.85528 0.49643 0.369 0.0
C726 C 0.7363 0.46692 0.38544 0.0
C727 C 0.71662 0.43936 0.39403 0.0
C728 C 0.76389 0.47318 0.37773 0.0
C729 C 0.7729 0.45228 0.37892 0.0
C730 C 0.75284 0.42439 0.38707 0.0
C731 C 0.72487 0.41792 0.39436 0.0
H732 H 0.06966 0.55522 0.45033 0.0
H733 H 0.14474 0.61084 0.40933 0.0
H734 H 0.10109 0.57118 0.48473 0.0
H735 H 0.17591 0.62759 0.44383 0.0
H736 H 0.22726 0.62147 0.50602 0.0
H737 H 0.19609 0.60784 0.47149 0.0
H738 H 0.12954 0.61455 0.50969 0.0
H739 H 0.16091 0.62785 0.54436 0.0
C740 C 0.09286 0.57087 0.44865 0.0
C741 C 0.1047 0.58168 0.42705 0.0
C742 C 0.11078 0.58028 0.46841 0.0
C743 C 0.14097 0.60069 0.46702 0.0
C744 C 0.15278 0.61166 0.44545 0.0
C745 C 0.13485 0.60229 0.42571 0.0
C746 C 0.20585 0.61979 0.50697 0.0
C747 C 0.19586 0.62461 0.52784 0.0
C748 C 0.18817 0.61238 0.48719 0.0
C749 C 0.16023 0.6099 0.48788 0.0
C750 C 0.15073 0.61578 0.50871 0.0
C751 C 0.16861 0.62345 0.52848 0.0
H752 H 0.50217 0.10807 0.60073 0.0
H753 H 0.59178 0.1301 0.58783 0.0
H754 H 0.51868 0.13865 0.63553 0.0
H755 H 0.60827 0.1605 0.62254 0.0
H756 H 0.63064 0.23538 0.67335 0.0
H757 H 0.61374 0.20559 0.63822 0.0
H758 H 0.5385 0.13951 0.67391 0.0
H759 H 0.55552 0.16975 0.709 0.0
C760 C 0.5254 0.11956 0.60531 0.0
C761 C 0.54569 0.11666 0.59164 0.0
C762 C 0.53482 0.13682 0.62534 0.0
C763 C 0.56477 0.1518 0.63196 0.0
C764 C 0.58507 0.14923 0.61801 0.0
C765 C 0.57562 0.13172 0.59817 0.0
C766 C 0.61074 0.21427 0.67368 0.0
C767 C 0.59487 0.20425 0.69394 0.0
C768 C 0.60099 0.19726 0.65359 0.0
C769 C 0.57489 0.17004 0.65329 0.0
C770 C 0.5586 0.16043 0.67352 0.0
C771 C 0.56838 0.17755 0.69362 0.0
H772 H 0.47715 0.60456 0.75055 0.0
H773 H 0.43113 0.51453 0.77039 0.0
H774 H 0.46073 0.61806 0.7852 0.0
H775 H 0.41604 0.52787 0.80565 0.0
H776 H 0.36947 0.55409 0.85639 0.0
H777 H 0.3847 0.54214 0.82068 0.0
H778 H 0.46657 0.62442 0.82481 0.0
H779 H 0.45031 0.63697 0.85993 0.0
C780 C 0.46372 0.58774 0.76252 0.0
C781 C 0.45521 0.55852 0.75782 0.0
C782 C 0.45445 0.59543 0.78247 0.0
C783 C 0.43692 0.5741 0.79838 0.0
C784 C 0.42885 0.54488 0.79365 0.0
C785 C 0.43763 0.53717 0.77351 0.0
C786 C 0.3907 0.56964 0.84962 0.0
C787 C 0.40872 0.59644 0.86098 0.0
C788 C 0.39959 0.56272 0.82917 0.0
C789 C 0.42707 0.58214 0.81979 0.0
C790 C 0.44507 0.60905 0.8312 0.0
C791 C 0.43586 0.61622 0.85145 0.0
H792 H 0.95601 0.47668 0.94936 0.0
H793 H 0.87801 0.45266 0.90801 0.0
H794 H 0.92605 0.46004 0.98348 0.0
H795 H 0.84806 0.43627 0.94228 0.0
H796 H 0.80949 0.43673 0.01315 0.0
H797 H 0.83924 0.4549 0.97886 0.0
H798 H 0.88868 0.41349 0.99924 0.0
H799 H 0.85942 0.39567 0.03349 0.0
C800 C 0.93245 0.46767 0.94751 0.0
C801 C 0.91943 0.46585 0.92589 0.0
C802 C 0.91528 0.45818 0.96709 0.0
C803 C 0.88465 0.44672 0.96558 0.0
C804 C 0.87164 0.4453 0.94405 0.0
C805 C 0.88882 0.45471 0.92442 0.0
C806 C 0.82671 0.43152 0.01034 0.0
C807 C 0.832 0.41472 0.02615 0.0
C808 C 0.84365 0.44181 0.99061 0.0
C809 C 0.86638 0.43572 0.98637 0.0
C810 C 0.87161 0.41892 1.00215 0.0
C811 C 0.85464 0.40852 0.02175 0.0
H812 H 0.4221 0.9097 0.08835 0.0
H813 H 0.51417 0.9393 0.10183 0.0
H814 H 0.40895 0.87797 0.12105 0.0
H815 H 0.50127 0.91021 0.13581 0.0
H816 H 0.47225 0.83706 0.18468 0.0
H817 H 0.48276 0.86448 0.14958 0.0
H818 H 0.4071 0.87503 0.16038 0.0
H819 H 0.39558 0.8456 0.19469 0.0
C820 C 0.43963 0.90959 0.09823 0.0
C821 C 0.4693 0.92728 0.09218 0.0
C822 C 0.43206 0.89167 0.11737 0.0
C823 C 0.45394 0.89129 0.13134 0.0
C824 C 0.48359 0.90922 0.12539 0.0
C825 C 0.4911 0.92658 0.106 0.0
C826 C 0.45778 0.8451 0.17941 0.0
C827 C 0.43315 0.83927 0.19241 0.0
C828 C 0.46394 0.86113 0.15935 0.0
C829 C 0.44611 0.87256 0.15206 0.0
C830 C 0.42119 0.86636 0.16507 0.0
C831 C 0.41461 0.84961 0.18486 0.0
H832 H 0.58862 0.52616 0.27266 0.0
H833 H 0.54237 0.43612 0.25016 0.0
H834 H 0.60401 0.51284 0.30781 0.0
H835 H 0.5591 0.42264 0.28475 0.0
H836 H 0.57157 0.40402 0.35919 0.0
H837 H 0.55438 0.41618 0.3242 0.0
H838 H 0.63575 0.49884 0.32261 0.0
H839 H 0.65186 0.4873 0.35812 0.0
C840 C 0.58211 0.50351 0.27519 0.0
C841 C 0.56443 0.48218 0.25874 0.0
C842 C 0.59107 0.49581 0.29528 0.0
C843 C 0.58312 0.4666 0.29922 0.0
C844 C 0.56535 0.44526 0.28261 0.0
C845 C 0.55589 0.45295 0.2627 0.0
C846 C 0.58569 0.42476 0.35128 0.0
C847 C 0.61294 0.4448 0.36149 0.0
C848 C 0.57595 0.43172 0.33112 0.0
C849 C 0.5935 0.45867 0.32048 0.0
C850 C 0.62114 0.47826 0.33051 0.0
C851 C 0.63055 0.47156 0.35084 0.0
H852 H 0.47383 0.96202 0.37058 0.0
H853 H 0.43002 0.88573 0.41239 0.0
H854 H 0.4608 0.93101 0.33623 0.0
H855 H 0.4159 0.85462 0.37809 0.0
H856 H 0.41951 0.80597 0.31485 0.0
H857 H 0.4343 0.83737 0.34904 0.0
H858 H 0.42008 0.89971 0.31205 0.0
H859 H 0.40661 0.86858 0.27761 0.0
C860 C 0.46113 0.93858 0.37235 0.0
C861 C 0.45291 0.92624 0.39411 0.0
C862 C 0.45354 0.92079 0.35268 0.0
C863 C 0.43716 0.89025 0.35431 0.0
C864 C 0.42893 0.87799 0.37615 0.0
C865 C 0.43689 0.89579 0.39583 0.0
C866 C 0.42016 0.82669 0.31403 0.0
C867 C 0.41321 0.83558 0.29351 0.0
C868 C 0.42813 0.84448 0.33369 0.0
C869 C 0.42864 0.87127 0.33334 0.0
C870 C 0.42067 0.87961 0.31284 0.0
C871 C 0.41279 0.86179 0.29316 0.0
H872 H 0.56401 0.43802 0.58059 0.0
H873 H 0.53244 0.48295 0.53783 0.0
H874 H 0.57932 0.42223 0.54661 0.0
H875 H 0.54872 0.46819 0.50381 0.0
H876 H 0.55567 0.41437 0.44555 0.0
H877 H 0.53805 0.42735 0.47991 0.0
H878 H 0.61484 0.43939 0.51782 0.0
H879 H 0.63143 0.42523 0.4837 0.0
C880 C 0.56062 0.44472 0.56389 0.0
C881 C 0.54699 0.46162 0.56182 0.0
C882 C 0.56948 0.4358 0.5444 0.0
C883 C 0.56526 0.44389 0.52239 0.0
C884 C 0.55178 0.46101 0.5204 0.0
C885 C 0.54256 0.4696 0.53988 0.0
C886 C 0.56864 0.41987 0.46131 0.0
C887 C 0.5954 0.42001 0.46192 0.0
C888 C 0.55872 0.42746 0.48094 0.0
C889 C 0.5752 0.43484 0.50164 0.0
C890 C 0.60143 0.43371 0.50231 0.0
C891 C 0.61124 0.42608 0.4827 0.0
H892 H 0.13654 0.55265 0.74315 0.0
H893 H 0.07715 0.57502 0.70885 0.0
H894 H 0.16687 0.56611 0.70915 0.0
H895 H 0.10857 0.58989 0.67541 0.0
H896 H 0.19245 0.64105 0.63062 0.0
H897 H 0.16357 0.62951 0.66562 0.0
H898 H 0.1569 0.54504 0.66675 0.0
H899 H 0.18521 0.5562 0.63162 0.0
C900 C 0.12981 0.56032 0.72844 0.0
C901 C 0.10411 0.56246 0.72885 0.0
C902 C 0.14738 0.56824 0.70902 0.0
C903 C 0.14004 0.57904 0.68971 0.0
C904 C 0.11486 0.5819 0.6902 0.0
C905 C 0.09696 0.57348 0.70945 0.0
C906 C 0.18495 0.62009 0.63841 0.0
C907 C 0.19109 0.59953 0.62835 0.0
C908 C 0.16832 0.61346 0.65834 0.0
C909 C 0.15808 0.58642 0.66884 0.0
C910 C 0.1647 0.56611 0.65905 0.0
C911 C 0.18078 0.57247 0.63891 0.0
H912 H 0.54014 0.07509 0.87149 0.0
H913 H 0.58495 0.1531 0.91383 0.0
H914 H 0.55649 0.10461 0.8371 0.0
H915 H 0.6014 0.1827 0.87933 0.0
H916 H 0.59622 0.22428 0.81028 0.0
H917 H 0.57879 0.1955 0.84509 0.0
H918 H 0.60588 0.13635 0.81873 0.0
H919 H 0.62343 0.16495 0.78416 0.0
C920 C 0.55334 0.09857 0.87342 0.0
C921 C 0.56129 0.1118 0.89533 0.0
C922 C 0.56286 0.11544 0.85375 0.0
C923 C 0.58024 0.14594 0.85554 0.0
C924 C 0.58786 0.15925 0.87745 0.0
C925 C 0.57867 0.14232 0.89715 0.0
C926 C 0.59842 0.20511 0.8119 0.0
C927 C 0.61121 0.19695 0.79437 0.0
C928 C 0.58858 0.18876 0.83188 0.0
C929 C 0.59091 0.16366 0.83457 0.0
C930 C 0.60353 0.15543 0.81703 0.0
C931 C 0.61373 0.17195 0.79726 0.0
H932 H 0.46096 0.60576 0.08078 0.0
H933 H 0.49063 0.55959 0.0373 0.0
H934 H 0.44672 0.62287 0.047 0.0
H935 H 0.47538 0.57566 1.00342 0.0
H936 H 0.46848 0.62932 0.94616 0.0
H937 H 0.48659 0.61673 0.98059 0.0
H938 H 0.41087 0.6062 0.01746 0.0
H939 H 0.39379 0.61989 0.98332 0.0
C940 C 0.46419 0.59911 0.06395 0.0
C941 C 0.47689 0.58139 0.06162 0.0
C942 C 0.45595 0.6088 0.04457 0.0
C943 C 0.45986 0.60065 0.02241 0.0
C944 C 0.47258 0.58287 0.02016 0.0
C945 C 0.48118 0.57352 0.03955 0.0
C946 C 0.4559 0.62429 0.96172 0.0
C947 C 0.42924 0.62435 0.96203 0.0
C948 C 0.4661 0.61694 0.98138 0.0
C949 C 0.45001 0.61002 1.00178 0.0
C950 C 0.42399 0.61154 1.00219 0.0
C951 C 0.4139 0.6189 0.98256 0.0
H952 H 0.95157 0.49325 0.20411 0.0
H953 H 0.87451 0.4649 0.24541 0.0
H954 H 0.92044 0.47587 0.16955 0.0
H955 H 0.84334 0.44843 0.21089 0.0
H956 H 0.79366 0.3957 0.14715 0.0
H957 H 0.82487 0.41208 0.18167 0.0
H958 H 0.89046 0.48682 0.14538 0.0
H959 H 0.85944 0.46943 0.11063 0.0
C960 C 0.92796 0.48356 0.20572 0.0
C961 C 0.91541 0.48042 0.22739 0.0
C962 C 0.91012 0.47371 0.18594 0.0
C963 C 0.87935 0.46084 0.18738 0.0
C964 C 0.86688 0.45778 0.20913 0.0
C965 C 0.8847 0.4673 0.22892 0.0
C966 C 0.81502 0.41533 0.14657 0.0
C967 C 0.82487 0.43071 0.12615 0.0
C968 C 0.83271 0.42501 0.1664 0.0
C969 C 0.86037 0.45068 0.16631 0.0
C970 C 0.86965 0.46659 0.14594 0.0
C971 C 0.85191 0.4568 0.12609 0.0
loop_
_geom_bond_atom_site_label_1
_geom_bond_atom_site_label_2
_geom_bond_distance
_geom_bond_site_symmetry_2
_ccdc_geom_bond_type
C0 C1 1.384 . S
C0 C2 1.384 . S
C0 H28 0.931 . S
C1 C0 1.384 . S
C1 C4 1.382 . S
C2 C0 1.384 . S
C2 C3 1.381 . S
C2 H29 0.930 . S
C3 C2 1.381 . S
C3 C5 1.381 . S
C3 C6 1.487 . S
C4 C1 1.382 . S
C4 C5 1.387 . S
C4 H30 0.930 . S
C5 C3 1.381 . S
C5 C4 1.387 . S
C5 H31 0.931 . S
C6 C3 1.487 . S
C6 C13 1.399 . S
C6 N44 1.343 . S
C7 C8 1.384 . S
C7 C9 1.384 . S
C7 H32 0.931 . S
C8 C7 1.384 . S
C8 C11 1.382 . S
C9 C7 1.384 . S
C9 C10 1.381 . S
C9 H33 0.930 . S
C10 C9 1.381 . S
C10 C12 1.381 . S
C10 C13 1.487 . S
C11 C8 1.382 . S
C11 C12 1.387 . S
C11 H34 0.930 . S
C12 C10 1.381 . S
C12 C11 1.387 . S
C12 H35 0.931 . S
C13 C6 1.399 . S
C13 C10 1.487 . S
C13 N45 1.343 1_655 S
C14 C15 1.384 . S
C14 C16 1.384 . S
C14 H36 0.931 . S
C15 C14 1.384 . S
C15 C18 1.382 . S
C16 C14 1.384 . S
C16 C17 1.381 . S
C16 H37 0.930 . S
C17 C16 1.381 . S
C17 C19 1.381 . S
C17 C20 1.487 . S
C18 C15 1.382 . S
C18 C19 1.387 . S
C18 H38 0.930 . S
C19 C17 1.381 . S
C19 C18 1.387 . S
C19 H39 0.931 . S
C20 C17 1.487 . S
C20 C27 1.399 . S
C20 N45 1.343 . S
C21 C22 1.384 . S
C21 C23 1.384 . S
C21 H40 0.931 . S
C22 C21 1.384 . S
C22 C25 1.382 . S
C23 C21 1.384 . S
C23 C24 1.381 . S
C23 H41 0.930 . S
C24 C23 1.381 . S
C24 C26 1.381 . S
C24 C27 1.487 . S
C25 C22 1.382 . S
C25 C26 1.387 . S
C25 H42 0.930 . S
C26 C24 1.381 . S
C26 C25 1.387 . S
C26 H43 0.931 . S
C27 C20 1.399 . S
C27 C24 1.487 . S
C27 N44 1.343 1_455 S
H28 C0 0.931 . S
H29 C2 0.930 . S
H30 C4 0.930 . S
H31 C5 0.931 . S
H32 C7 0.931 . S
H33 C9 0.930 . S
H34 C11 0.930 . S
H35 C12 0.931 . S
H36 C14 0.931 . S
H37 C16 0.930 . S
H38 C18 0.930 . S
H39 C19 0.931 . S
H40 C21 0.931 . S
H41 C23 0.930 . S
H42 C25 0.930 . S
H43 C26 0.931 . S
N44 C6 1.343 . S
N44 C27 1.343 1_655 S
N45 C13 1.343 1_455 S
N45 C20 1.343 . S
C46 C47 1.384 . S
C46 C48 1.384 . S
C46 H74 0.931 . S
C47 C46 1.384 . S
C47 C50 1.382 . S
C48 C46 1.384 . S
C48 C49 1.381 . S
C48 H75 0.930 . S
C49 C48 1.381 . S
C49 C51 1.381 . S
C49 C52 1.487 . S
C50 C47 1.382 . S
C50 C51 1.387 . S
C50 H76 0.930 . S
C51 C49 1.381 . S
C51 C50 1.387 . S
C51 H77 0.931 . S
C52 C49 1.487 . S
C52 C59 1.399 . S
C52 N90 1.343 1_565 S
C53 C54 1.384 . S
C53 C55 1.384 . S
C53 H78 0.931 . S
C54 C53 1.384 . S
C54 C57 1.382 . S
C55 C53 1.384 . S
C55 C56 1.381 . S
C55 H79 0.930 . S
C56 C55 1.381 . S
C56 C58 1.381 . S
C56 C59 1.487 . S
C57 C54 1.382 . S
C57 C58 1.387 . S
C57 H80 0.930 . S
C58 C56 1.381 . S
C58 C57 1.387 . S
C58 H81 0.931 . S
C59 C52 1.399 . S
C59 C56 1.487 . S
C59 N91 1.343 1_565 S
C60 C61 1.384 . S
C60 C62 1.384 . S
C60 H82 0.931 . S
C61 C60 1.384 . S
C61 C64 1.382 . S
C62 C60 1.384 . S
C62 C63 1.381 . S
C62 H83 0.930 . S
C63 C62 1.381 . S
C63 C65 1.381 . S
C63 C66 1.487 . S
C64 C61 1.382 . S
C64 C65 1.387 . S
C64 H84 0.930 . S
C65 C63 1.381 . S
C65 C64 1.387 . S
C65 H85 0.931 . S
C66 C63 1.487 . S
C66 C73 1.399 . S
C66 N91 1.343 . S
C67 C68 1.384 . S
C67 C69 1.384 . S
C67 H86 0.931 . S
C68 C67 1.384 . S
C68 C71 1.382 . S
C69 C67 1.384 . S
C69 C70 1.381 . S
C69 H87 0.930 . S
C70 C69 1.381 . S
C70 C72 1.381 . S
C70 C73 1.487 . S
C71 C68 1.382 . S
C71 C72 1.387 . S
C71 H88 0.930 . S
C72 C70 1.381 . S
C72 C71 1.387 . S
C72 H89 0.931 . S
C73 C66 1.399 . S
C73 C70 1.487 . S
C73 N90 1.343 . S
H74 C46 0.931 . S
H75 C48 0.930 . S
H76 C50 0.930 . S
H77 C51 0.931 . S
H78 C53 0.931 . S
H79 C55 0.930 . S
H80 C57 0.930 . S
H81 C58 0.931 . S
H82 C60 0.931 . S
H83 C62 0.930 . S
H84 C64 0.930 . S
H85 C65 0.931 . S
H86 C67 0.931 . S
H87 C69 0.930 . S
H88 C71 0.930 . S
H89 C72 0.931 . S
N90 C52 1.343 1_545 S
N90 C73 1.343 . S
N91 C59 1.343 1_545 S
N91 C66 1.343 . S
C92 C93 1.384 . S
C92 C94 1.384 . S
C92 H120 0.931 . S
C93 C92 1.384 . S
C93 C96 1.382 . S
C94 C92 1.384 . S
C94 C95 1.381 . S
C94 H121 0.930 . S
C95 C94 1.381 . S
C95 C97 1.381 . S
C95 C98 1.487 . S
C96 C93 1.382 . S
C96 C97 1.387 . S
C96 H122 0.930 . S
C97 C95 1.381 . S
C97 C96 1.387 . S
C97 H123 0.931 . S
C98 C95 1.487 . S
C98 C105 1.399 . S
C98 N136 1.343 . S
C99 C100 1.384 . S
C99 C101 1.384 . S
C99 H124 0.931 . S
C100 C99 1.384 . S
C100 C103 1.382 . S
C101 C99 1.384 . S
C101 C102 1.381 . S
C101 H125 0.930 . S
C102 C101 1.381 . S
C102 C104 1.381 . S
C102 C105 1.487 . S
C103 C100 1.382 . S
C103 C104 1.387 . S
C103 H126 0.930 . S
C104 C102 1.381 . S
C104 C103 1.387 . S
C104 H127 0.931 . S
C105 C98 1.399 . S
C105 C102 1.487 . S
C105 N137 1.343 . S
C106 C107 1.384 . S
C106 C108 1.384 . S
C106 H128 0.931 . S
C107 C106 1.384 . S
C107 C110 1.382 . S
C108 C106 1.384 . S
C108 C109 1.381 . S
C108 H129 0.930 . S
C109 C108 1.381 . S
C109 C111 1.381 . S
C109 C112 1.487 . S
C110 C107 1.382 . S
C110 C111 1.387 . S
C110 H130 0.930 . S
C111 C109 1.381 . S
C111 C110 1.387 . S
C111 H131 0.931 . S
C112 C109 1.487 . S
C112 C119 1.399 . S
C112 N137 1.343 . S
C113 C114 1.384 . S
C113 C115 1.384 . S
C113 H132 0.931 . S
C114 C113 1.384 . S
C114 C117 1.382 . S
C115 C113 1.384 . S
C115 C116 1.381 . S
C115 H133 0.930 . S
C116 C115 1.381 . S
C116 C118 1.381 . S
C116 C119 1.487 . S
C117 C114 1.382 . S
C117 C118 1.387 . S
C117 H134 0.930 . S
C118 C116 1.381 . S
C118 C117 1.387 . S
C118 H135 0.931 . S
C119 C112 1.399 . S
C119 C116 1.487 . S
C119 N136 1.343 . S
H120 C92 0.931 . S
H121 C94 0.930 . S
H122 C96 0.930 . S
H123 C97 0.931 . S
H124 C99 0.931 . S
H125 C101 0.930 . S
H126 C103 0.930 . S
H127 C104 0.931 . S
H128 C106 0.931 . S
H129 C108 0.930 . S
H130 C110 0.930 . S
H131 C111 0.931 . S
H132 C113 0.931 . S
H133 C115 0.930 . S
H134 C117 0.930 . S
H135 C118 0.931 . S
N136 C98 1.343 . S
N136 C119 1.343 . S
N137 C105 1.343 . S
N137 C112 1.343 . S
C138 C139 1.384 . S
C138 C140 1.384 . S
C138 H166 0.931 . S
C139 C138 1.384 . S
C139 C142 1.382 . S
C140 C138 1.384 . S
C140 C141 1.381 . S
C140 H167 0.930 . S
C141 C140 1.381 . S
C141 C143 1.381 . S
C141 C144 1.487 . S
C142 C139 1.382 . S
C142 C143 1.387 . S
C142 H168 0.930 . S
C143 C141 1.381 . S
C143 C142 1.387 . S
C143 H169 0.931 . S
C144 C141 1.487 . S
C144 C151 1.399 . S
C144 N182 1.343 . S
C145 C146 1.384 . S
C145 C147 1.384 . S
C145 H170 0.931 . S
C146 C145 1.384 . S
C146 C149 1.382 . S
C147 C145 1.384 . S
C147 C148 1.381 . S
C147 H171 0.930 . S
C148 C147 1.381 . S
C148 C150 1.381 . S
C148 C151 1.487 . S
C149 C146 1.382 . S
C149 C150 1.387 . S
C149 H172 0.930 . S
C150 C148 1.381 . S
C150 C149 1.387 . S
C150 H173 0.931 . S
C151 C144 1.399 . S
C151 C148 1.487 . S
C151 N183 1.343 1_655 S
C152 C153 1.384 . S
C152 C154 1.384 . S
C152 H174 0.931 . S
C153 C152 1.384 . S
C153 C156 1.382 . S
C154 C152 1.384 . S
C154 C155 1.381 . S
C154 H175 0.930 . S
C155 C154 1.381 . S
C155 C157 1.381 . S
C155 C158 1.487 . S
C156 C153 1.382 . S
C156 C157 1.387 . S
C156 H176 0.930 . S
C157 C155 1.381 . S
C157 C156 1.387 . S
C157 H177 0.931 . S
C158 C155 1.487 . S
C158 C165 1.399 . S
C158 N183 1.343 . S
C159 C160 1.384 . S
C159 C161 1.384 . S
C159 H178 0.931 . S
C160 C159 1.384 . S
C160 C163 1.382 . S
C161 C159 1.384 . S
C161 C162 1.381 . S
C161 H179 0.930 . S
C162 C161 1.381 . S
C162 C164 1.381 . S
C162 C165 1.487 . S
C163 C160 1.382 . S
C163 C164 1.387 . S
C163 H180 0.930 . S
C164 C162 1.381 . S
C164 C163 1.387 . S
C164 H181 0.931 . S
C165 C158 1.399 . S
C165 C162 1.487 . S
C165 N182 1.343 1_455 S
H166 C138 0.931 . S
H167 C140 0.930 . S
H168 C142 0.930 . S
H169 C143 0.931 . S
H170 C145 0.931 . S
H171 C147 0.930 . S
H172 C149 0.930 . S
H173 C150 0.931 . S
H174 C152 0.931 . S
H175 C154 0.930 . S
H176 C156 0.930 . S
H177 C157 0.931 . S
H178 C159 0.931 . S
H179 C161 0.930 . S
H180 C163 0.930 . S
H181 C164 0.931 . S
N182 C144 1.343 . S
N182 C165 1.343 1_655 S
N183 C151 1.343 1_455 S
N183 C158 1.343 . S
C184 C185 1.384 . S
C184 C186 1.384 . S
C184 H212 0.931 . S
C185 C184 1.384 . S
C185 C188 1.382 . S
C186 C184 1.384 . S
C186 C187 1.381 . S
C186 H213 0.905 1_556 S
C187 C186 1.381 . S
C187 C189 1.381 . S
C187 C190 1.487 . S
C188 C185 1.382 . S
C188 C189 1.387 . S
C188 H214 0.930 . S
C189 C187 1.381 . S
C189 C188 1.387 . S
C189 H215 0.931 . S
C190 C187 1.487 . S
C190 C197 1.399 1_566 S
C190 N228 1.343 1_565 S
C191 C192 1.384 . S
C191 C193 1.384 . S
C191 H216 0.931 . S
C192 C191 1.384 . S
C192 C195 1.382 . S
C193 C191 1.384 . S
C193 C194 1.381 . S
C193 H217 0.930 . S
C194 C193 1.381 . S
C194 C196 1.381 . S
C194 C197 1.487 1_565 S
C195 C192 1.382 . S
C195 C196 1.387 . S
C195 H218 0.930 . S
C196 C194 1.381 . S
C196 C195 1.387 . S
C196 H219 0.931 1_565 S
C197 C190 1.399 1_544 S
C197 C194 1.487 1_545 S
C197 N229 1.343 . S
C198 C199 1.384 . S
C198 C200 1.384 1_554 S
C198 H220 0.918 1_554 S
C199 C198 1.384 . S
C199 C202 1.382 . S
C200 C198 1.384 1_556 S
C200 C201 1.381 1_556 S
C200 H221 0.930 . S
C201 C200 1.381 1_554 S
C201 C203 1.381 . S
C201 C204 1.487 1_554 S
C202 C199 1.382 . S
C202 C203 1.387 . S
C202 H222 0.930 . S
C203 C201 1.381 . S
C203 C202 1.387 . S
C203 H223 0.931 . S
C204 C201 1.487 1_556 S
C204 C211 1.399 . S
C204 N229 1.343 1_556 S
C205 C206 1.384 . S
C205 C207 1.384 . S
C205 H224 0.931 . S
C206 C205 1.384 . S
C206 C209 1.382 . S
C207 C205 1.384 . S
C207 C208 1.381 . S
C207 H225 0.930 . S
C208 C207 1.381 . S
C208 C210 1.381 . S
C208 C211 1.487 . S
C209 C206 1.382 . S
C209 C210 1.387 . S
C209 H226 0.930 . S
C210 C208 1.381 . S
C210 C209 1.387 . S
C210 H227 0.931 . S
C211 C204 1.399 . S
C211 C208 1.487 . S
C211 N228 1.343 . S
H212 C184 0.931 . S
H213 C186 0.905 1_554 S
H214 C188 0.930 . S
H215 C189 0.931 . S
H216 C191 0.931 . S
H217 C193 0.930 . S
H218 C195 0.930 . S
H219 C196 0.931 1_545 S
H220 C198 0.918 1_556 S
H221 C200 0.930 . S
H222 C202 0.930 . S
H223 C203 0.931 . S
H224 C205 0.931 . S
H225 C207 0.930 . S
H226 C209 0.930 . S
H227 C210 0.931 . S
N228 C190 1.343 1_545 S
N228 C211 1.343 . S
N229 C197 1.343 . S
N229 C204 1.343 1_554 S
C230 C231 1.384 . S
C230 C232 1.384 . S
C230 H258 0.931 . S
C231 C230 1.384 . S
C231 C234 1.382 . S
C232 C230 1.384 . S
C232 C233 1.381 . S
C232 H259 0.930 . S
C233 C232 1.381 . S
C233 C235 1.381 . S
C233 C236 1.487 . S
C234 C231 1.382 . S
C234 C235 1.387 . S
C234 H260 0.930 . S
C235 C233 1.381 . S
C235 C234 1.387 . S
C235 H261 0.931 . S
C236 C233 1.487 . S
C236 C243 1.399 . S
C236 N274 1.343 . S
C237 C238 1.384 . S
C237 C239 1.384 . S
C237 H262 0.931 . S
C238 C237 1.384 . S
C238 C241 1.382 . S
C239 C237 1.384 . S
C239 C240 1.381 . S
C239 H263 0.930 . S
C240 C239 1.381 . S
C240 C242 1.381 . S
C240 C243 1.487 . S
C241 C238 1.382 . S
C241 C242 1.387 . S
C241 H264 0.930 . S
C242 C240 1.381 . S
C242 C241 1.387 . S
C242 H265 0.931 . S
C243 C236 1.399 . S
C243 C240 1.487 . S
C243 N275 1.343 . S
C244 C245 1.384 . S
C244 C246 1.384 . S
C244 H266 0.931 . S
C245 C244 1.384 . S
C245 C248 1.382 . S
C246 C244 1.384 . S
C246 C247 1.381 . S
C246 H267 0.930 . S
C247 C246 1.381 . S
C247 C249 1.381 . S
C247 C250 1.487 . S
C248 C245 1.382 . S
C248 C249 1.387 . S
C248 H268 0.930 . S
C249 C247 1.381 . S
C249 C248 1.387 . S
C249 H269 0.931 . S
C250 C247 1.487 . S
C250 C257 1.399 . S
C250 N275 1.343 . S
C251 C252 1.384 . S
C251 C253 1.384 . S
C251 H270 0.931 . S
C252 C251 1.384 . S
C252 C255 1.382 . S
C253 C251 1.384 . S
C253 C254 1.381 . S
C253 H271 0.930 . S
C254 C253 1.381 . S
C254 C256 1.381 . S
C254 C257 1.487 . S
C255 C252 1.382 . S
C255 C256 1.387 . S
C255 H272 0.930 . S
C256 C254 1.381 . S
C256 C255 1.387 . S
C256 H273 0.931 . S
C257 C250 1.399 . S
C257 C254 1.487 . S
C257 N274 1.343 . S
H258 C230 0.931 . S
H259 C232 0.930 . S
H260 C234 0.930 . S
H261 C235 0.931 . S
H262 C237 0.931 . S
H263 C239 0.930 . S
H264 C241 0.930 . S
H265 C242 0.931 . S
H266 C244 0.931 . S
H267 C246 0.930 . S
H268 C248 0.930 . S
H269 C249 0.931 . S
H270 C251 0.931 . S
H271 C253 0.930 . S
H272 C255 0.930 . S
H273 C256 0.931 . S
N274 C236 1.343 . S
N274 C257 1.343 . S
N275 C243 1.343 . S
N275 C250 1.343 . S
Mn276 O281 2.095 . S
Mn276 O291 2.162 . S
Mn276 O292 2.297 . S
Mn276 O300 2.385 . S
Mn276 O301 2.209 . S
Mn276 O302 2.094 . S
Mn277 O282 2.121 . S
Mn277 N284 2.257 . S
Mn277 N293 2.282 . S
Mn277 O301 2.215 . S
Mn277 O303 2.117 . S
C278 O300 1.234 . S
C278 O301 1.283 . S
C279 O291 1.281 . S
C279 O292 1.236 . S
C280 O302 1.240 . S
C280 O303 1.264 . S
O281 Mn276 2.095 . S
O281 C290 1.250 . S
O282 Mn277 2.121 . S
O282 C290 1.258 . S
C283 N284 1.326 . S
C283 C287 1.460 . S
C283 H289 0.929 . S
N284 Mn277 2.257 . S
N284 C283 1.326 . S
N284 C288 1.362 . S
C285 C286 1.258 . S
C285 C288 1.431 . S
C285 C305 1.449 . S
C286 C285 1.258 . S
C286 C287 1.477 . S
C286 H306 0.931 . S
C287 C283 1.460 . S
C287 C286 1.477 . S
C287 H307 0.930 . S
C288 N284 1.362 . S
C288 C285 1.431 . S
C288 C298 1.476 . S
H289 C283 0.929 . S
C290 O281 1.250 . S
C290 O282 1.258 . S
O291 Mn276 2.162 . S
O291 C279 1.281 . S
O292 Mn276 2.297 . S
O292 C279 1.236 . S
N293 Mn277 2.282 . S
N293 C294 1.328 . S
N293 C298 1.318 . S
C294 N293 1.328 . S
C294 C295 1.457 . S
C294 H299 0.929 . S
C295 C294 1.457 . S
C295 C296 1.291 . S
C295 H308 0.931 . S
C296 C295 1.291 . S
C296 C297 1.373 . S
C296 H309 0.929 . S
C297 C296 1.373 . S
C297 C298 1.396 . S
C297 C304 1.403 . S
C298 C288 1.476 . S
C298 N293 1.318 . S
C298 C297 1.396 . S
H299 C294 0.929 . S
O300 Mn276 2.385 . S
O300 C278 1.234 . S
O301 Mn276 2.209 . S
O301 Mn277 2.215 . S
O301 C278 1.283 . S
O302 Mn276 2.094 . S
O302 C280 1.240 . S
O303 Mn277 2.117 . S
O303 C280 1.264 . S
C304 C297 1.403 . S
C304 C305 1.399 . S
C304 H310 0.929 . S
C305 C285 1.449 . S
C305 C304 1.399 . S
C305 H311 0.930 . S
H306 C286 0.931 . S
H307 C287 0.930 . S
H308 C295 0.931 . S
H309 C296 0.929 . S
H310 C304 0.929 . S
H311 C305 0.930 . S
Mn312 O317 2.095 . S
Mn312 O327 2.162 . S
Mn312 O328 2.297 . S
Mn312 O336 2.385 . S
Mn312 O337 2.209 . S
Mn312 O338 2.094 . S
Mn313 O318 2.121 . S
Mn313 N320 2.257 . S
Mn313 N329 2.282 . S
Mn313 O337 2.215 . S
Mn313 O339 2.117 . S
C314 O336 1.234 . S
C314 O337 1.283 . S
C315 O327 1.281 . S
C315 O328 1.236 . S
C316 O338 1.240 . S
C316 O339 1.264 . S
O317 Mn312 2.095 . S
O317 C326 1.250 . S
O318 Mn313 2.121 . S
O318 C326 1.258 . S
C319 N320 1.326 . S
C319 C323 1.460 . S
C319 H325 0.929 . S
N320 Mn313 2.257 . S
N320 C319 1.326 . S
N320 C324 1.362 . S
C321 C322 1.258 . S
C321 C324 1.431 . S
C321 C341 1.449 . S
C322 C321 1.258 . S
C322 C323 1.477 . S
C322 H342 0.931 . S
C323 C319 1.460 . S
C323 C322 1.477 . S
C323 H343 0.930 . S
C324 N320 1.362 . S
C324 C321 1.431 . S
C324 C334 1.476 . S
H325 C319 0.929 . S
C326 O317 1.250 . S
C326 O318 1.258 . S
O327 Mn312 2.162 . S
O327 C315 1.281 . S
O328 Mn312 2.297 . S
O328 C315 1.236 . S
N329 Mn313 2.282 . S
N329 C330 1.328 . S
N329 C334 1.318 . S
C330 N329 1.328 . S
C330 C331 1.457 . S
C330 H335 0.929 . S
C331 C330 1.457 . S
C331 C332 1.291 . S
C331 H344 0.931 . S
C332 C331 1.291 . S
C332 C333 1.373 . S
C332 H345 0.929 . S
C333 C332 1.373 . S
C333 C334 1.396 . S
C333 C340 1.403 . S
C334 C324 1.476 . S
C334 N329 1.318 . S
C334 C333 1.396 . S
H335 C330 0.929 . S
O336 Mn312 2.385 . S
O336 C314 1.234 . S
O337 Mn312 2.209 . S
O337 Mn313 2.215 . S
O337 C314 1.283 . S
O338 Mn312 2.094 . S
O338 C316 1.240 . S
O339 Mn313 2.117 . S
O339 C316 1.264 . S
C340 C333 1.403 . S
C340 C341 1.399 . S
C340 H346 0.929 . S
C341 C321 1.449 . S
C341 C340 1.399 . S
C341 H347 0.930 . S
H342 C322 0.931 . S
H343 C323 0.930 . S
H344 C331 0.931 . S
H345 C332 0.929 . S
H346 C340 0.929 . S
H347 C341 0.930 . S
Mn348 O353 2.095 . S
Mn348 O363 2.162 . S
Mn348 O364 2.297 . S
Mn348 O372 2.385 . S
Mn348 O373 2.209 . S
Mn348 O374 2.094 . S
Mn349 O354 2.121 . S
Mn349 N356 2.257 . S
Mn349 N365 2.282 . S
Mn349 O373 2.215 . S
Mn349 O375 2.117 . S
C350 O372 1.234 . S
C350 O373 1.283 . S
C351 O363 1.281 . S
C351 O364 1.236 . S
C352 O374 1.240 . S
C352 O375 1.264 . S
O353 Mn348 2.095 . S
O353 C362 1.250 . S
O354 Mn349 2.121 . S
O354 C362 1.258 . S
C355 N356 1.326 . S
C355 C359 1.460 . S
C355 H361 0.929 . S
N356 Mn349 2.257 . S
N356 C355 1.326 . S
N356 C360 1.362 . S
C357 C358 1.258 . S
C357 C360 1.431 . S
C357 C377 1.449 . S
C358 C357 1.258 . S
C358 C359 1.477 . S
C358 H378 0.931 . S
C359 C355 1.460 . S
C359 C358 1.477 . S
C359 H379 0.930 . S
C360 N356 1.362 . S
C360 C357 1.431 . S
C360 C370 1.476 . S
H361 C355 0.929 . S
C362 O353 1.250 . S
C362 O354 1.258 . S
O363 Mn348 2.162 . S
O363 C351 1.281 . S
O364 Mn348 2.297 . S
O364 C351 1.236 . S
N365 Mn349 2.282 . S
N365 C366 1.328 . S
N365 C370 1.318 . S
C366 N365 1.328 . S
C366 C367 1.457 . S
C366 H371 0.929 . S
C367 C366 1.457 . S
C367 C368 1.291 . S
C367 H380 0.931 . S
C368 C367 1.291 . S
C368 C369 1.373 . S
C368 H381 0.929 . S
C369 C368 1.373 . S
C369 C370 1.396 . S
C369 C376 1.403 . S
C370 C360 1.476 . S
C370 N365 1.318 . S
C370 C369 1.396 . S
H371 C366 0.929 . S
O372 Mn348 2.385 . S
O372 C350 1.234 . S
O373 Mn348 2.209 . S
O373 Mn349 2.215 . S
O373 C350 1.283 . S
O374 Mn348 2.094 . S
O374 C352 1.240 . S
O375 Mn349 2.117 . S
O375 C352 1.264 . S
C376 C369 1.403 . S
C376 C377 1.399 . S
C376 H382 0.929 . S
C377 C357 1.449 . S
C377 C376 1.399 . S
C377 H383 0.930 . S
H378 C358 0.931 . S
H379 C359 0.930 . S
H380 C367 0.931 . S
H381 C368 0.929 . S
H382 C376 0.929 . S
H383 C377 0.930 . S
Mn384 O389 2.095 . S
Mn384 O399 2.162 . S
Mn384 O400 2.297 . S
Mn384 O408 2.385 . S
Mn384 O409 2.209 . S
Mn384 O410 2.094 . S
Mn385 O390 2.121 . S
Mn385 N392 2.257 . S
Mn385 N401 2.282 . S
Mn385 O409 2.215 . S
Mn385 O411 2.117 . S
C386 O408 1.234 . S
C386 O409 1.283 . S
C387 O399 1.281 . S
C387 O400 1.236 . S
C388 O410 1.240 . S
C388 O411 1.264 . S
O389 Mn384 2.095 . S
O389 C398 1.250 . S
O390 Mn385 2.121 . S
O390 C398 1.258 . S
C391 N392 1.326 . S
C391 C395 1.460 . S
C391 H397 0.929 . S
N392 Mn385 2.257 . S
N392 C391 1.326 . S
N392 C396 1.362 . S
C393 C394 1.258 . S
C393 C396 1.431 . S
C393 C413 1.449 . S
C394 C393 1.258 . S
C394 C395 1.477 . S
C394 H414 0.931 . S
C395 C391 1.460 . S
C395 C394 1.477 . S
C395 H415 0.930 . S
C396 N392 1.362 . S
C396 C393 1.431 . S
C396 C406 1.476 . S
H397 C391 0.929 . S
C398 O389 1.250 . S
C398 O390 1.258 . S
O399 Mn384 2.162 . S
O399 C387 1.281 . S
O400 Mn384 2.297 . S
O400 C387 1.236 . S
N401 Mn385 2.282 . S
N401 C402 1.328 . S
N401 C406 1.318 . S
C402 N401 1.328 . S
C402 C403 1.457 . S
C402 H407 0.929 . S
C403 C402 1.457 . S
C403 C404 1.291 . S
C403 H416 0.931 . S
C404 C403 1.291 . S
C404 C405 1.373 . S
C404 H417 0.929 . S
C405 C404 1.373 . S
C405 C406 1.396 . S
C405 C412 1.403 . S
C406 C396 1.476 . S
C406 N401 1.318 . S
C406 C405 1.396 . S
H407 C402 0.929 . S
O408 Mn384 2.385 . S
O408 C386 1.234 . S
O409 Mn384 2.209 . S
O409 Mn385 2.215 . S
O409 C386 1.283 . S
O410 Mn384 2.094 . S
O410 C388 1.240 . S
O411 Mn385 2.117 . S
O411 C388 1.264 . S
C412 C405 1.403 . S
C412 C413 1.399 . S
C412 H418 0.929 . S
C413 C393 1.449 . S
C413 C412 1.399 . S
C413 H419 0.930 . S
H414 C394 0.931 . S
H415 C395 0.930 . S
H416 C403 0.931 . S
H417 C404 0.929 . S
H418 C412 0.929 . S
H419 C413 0.930 . S
Mn420 O425 2.095 . S
Mn420 O435 2.162 . S
Mn420 O436 2.297 . S
Mn420 O444 2.385 . S
Mn420 O445 2.209 . S
Mn420 O446 2.094 . S
Mn421 O426 2.121 . S
Mn421 N428 2.257 . S
Mn421 N437 2.282 . S
Mn421 O445 2.215 . S
Mn421 O447 2.117 . S
C422 O444 1.234 . S
C422 O445 1.283 . S
C423 O435 1.281 . S
C423 O436 1.236 . S
C424 O446 1.240 . S
C424 O447 1.264 . S
O425 Mn420 2.095 . S
O425 C434 1.250 . S
O426 Mn421 2.121 . S
O426 C434 1.258 . S
C427 N428 1.326 . S
C427 C431 1.460 . S
C427 H433 0.929 . S
N428 Mn421 2.257 . S
N428 C427 1.326 . S
N428 C432 1.362 . S
C429 C430 1.258 . S
C429 C432 1.431 . S
C429 C449 1.449 . S
C430 C429 1.258 . S
C430 C431 1.477 . S
C430 H450 0.931 . S
C431 C427 1.460 . S
C431 C430 1.477 . S
C431 H451 0.930 . S
C432 N428 1.362 . S
C432 C429 1.431 . S
C432 C442 1.476 . S
H433 C427 0.929 . S
C434 O425 1.250 . S
C434 O426 1.258 . S
O435 Mn420 2.162 . S
O435 C423 1.281 . S
O436 Mn420 2.297 . S
O436 C423 1.236 . S
N437 Mn421 2.282 . S
N437 C438 1.328 . S
N437 C442 1.318 . S
C438 N437 1.328 . S
C438 C439 1.457 . S
C438 H443 0.929 . S
C439 C438 1.457 . S
C439 C440 1.291 . S
C439 H452 0.931 . S
C440 C439 1.291 . S
C440 C441 1.373 . S
C440 H453 0.929 . S
C441 C440 1.373 . S
C441 C442 1.396 . S
C441 C448 1.403 . S
C442 C432 1.476 . S
C442 N437 1.318 . S
C442 C441 1.396 . S
H443 C438 0.929 . S
O444 Mn420 2.385 . S
O444 C422 1.234 . S
O445 Mn420 2.209 . S
O445 Mn421 2.215 . S
O445 C422 1.283 . S
O446 Mn420 2.094 . S
O446 C424 1.240 . S
O447 Mn421 2.117 . S
O447 C424 1.264 . S
C448 C441 1.403 . S
C448 C449 1.399 . S
C448 H454 0.929 . S
C449 C429 1.449 . S
C449 C448 1.399 . S
C449 H455 0.930 . S
H450 C430 0.931 . S
H451 C431 0.930 . S
H452 C439 0.931 . S
H453 C440 0.929 . S
H454 C448 0.929 . S
H455 C449 0.930 . S
Mn456 O461 2.095 . S
Mn456 O471 2.162 . S
Mn456 O472 2.297 . S
Mn456 O480 2.385 . S
Mn456 O481 2.209 . S
Mn456 O482 2.094 . S
Mn457 O462 2.121 . S
Mn457 N464 2.257 . S
Mn457 N473 2.282 . S
Mn457 O481 2.215 . S
Mn457 O483 2.117 . S
C458 O480 1.234 . S
C458 O481 1.283 . S
C459 O471 1.281 . S
C459 O472 1.236 . S
C460 O482 1.240 . S
C460 O483 1.264 . S
O461 Mn456 2.095 . S
O461 C470 1.250 . S
O462 Mn457 2.121 . S
O462 C470 1.258 . S
C463 N464 1.326 . S
C463 C467 1.460 . S
C463 H469 0.929 . S
N464 Mn457 2.257 . S
N464 C463 1.326 . S
N464 C468 1.362 . S
C465 C466 1.258 . S
C465 C468 1.431 . S
C465 C485 1.449 . S
C466 C465 1.258 . S
C466 C467 1.477 . S
C466 H486 0.931 . S
C467 C463 1.460 . S
C467 C466 1.477 . S
C467 H487 0.930 . S
C468 N464 1.362 . S
C468 C465 1.431 . S
C468 C478 1.476 . S
H469 C463 0.929 . S
C470 O461 1.250 . S
C470 O462 1.258 . S
O471 Mn456 2.162 . S
O471 C459 1.281 . S
O472 Mn456 2.297 . S
O472 C459 1.236 . S
N473 Mn457 2.282 . S
N473 C474 1.328 . S
N473 C478 1.318 . S
C474 N473 1.328 . S
C474 C475 1.457 . S
C474 H479 0.929 . S
C475 C474 1.457 . S
C475 C476 1.291 . S
C475 H488 0.931 . S
C476 C475 1.291 . S
C476 C477 1.373 . S
C476 H489 0.929 . S
C477 C476 1.373 . S
C477 C478 1.396 . S
C477 C484 1.403 . S
C478 C468 1.476 . S
C478 N473 1.318 . S
C478 C477 1.396 . S
H479 C474 0.929 . S
O480 Mn456 2.385 . S
O480 C458 1.234 . S
O481 Mn456 2.209 . S
O481 Mn457 2.215 . S
O481 C458 1.283 . S
O482 Mn456 2.094 . S
O482 C460 1.240 . S
O483 Mn457 2.117 . S
O483 C460 1.264 . S
C484 C477 1.403 . S
C484 C485 1.399 . S
C484 H490 0.929 . S
C485 C465 1.449 . S
C485 C484 1.399 . S
C485 H491 0.930 . S
H486 C466 0.931 . S
H487 C467 0.930 . S
H488 C475 0.931 . S
H489 C476 0.929 . S
H490 C484 0.929 . S
H491 C485 0.930 . S
H492 C500 0.950 . S
H493 C505 0.950 . S
H494 C502 0.950 . S
H495 C504 0.950 . S
H496 C506 0.950 . S
H497 C508 0.950 . S
H498 C510 0.950 . S
H499 C511 0.950 . S
C500 H492 0.950 . S
C500 C501 1.386 . S
C500 C502 1.391 . S
C501 C500 1.386 . S
C501 C505 1.393 . S
C502 H494 0.950 . S
C502 C500 1.391 . S
C502 C503 1.400 . S
C503 C502 1.400 . S
C503 C504 1.398 . S
C503 C509 1.491 . S
C504 H495 0.950 . S
C504 C503 1.398 . S
C504 C505 1.391 . S
C505 H493 0.950 . S
C505 C501 1.393 . S
C505 C504 1.391 . S
C506 H496 0.950 . S
C506 C507 1.386 . S
C506 C508 1.391 . S
C507 C506 1.386 . S
C507 C511 1.393 . S
C508 H497 0.950 . S
C508 C506 1.391 . S
C508 C509 1.400 . S
C509 C503 1.491 . S
C509 C508 1.400 . S
C509 C510 1.398 . S
C510 H498 0.950 . S
C510 C509 1.398 . S
C510 C511 1.391 . S
C511 H499 0.950 . S
C511 C507 1.393 . S
C511 C510 1.391 . S
H512 C520 0.950 . S
H513 C525 0.950 . S
H514 C522 0.950 . S
H515 C524 0.950 . S
H516 C526 0.950 . S
H517 C528 0.950 . S
H518 C530 0.950 . S
H519 C531 0.950 . S
C520 H512 0.950 . S
C520 C521 1.386 . S
C520 C522 1.391 . S
C521 C520 1.386 . S
C521 C525 1.393 . S
C522 H514 0.950 . S
C522 C520 1.391 . S
C522 C523 1.400 . S
C523 C522 1.400 . S
C523 C524 1.398 . S
C523 C529 1.491 . S
C524 H515 0.950 . S
C524 C523 1.398 . S
C524 C525 1.391 . S
C525 H513 0.950 . S
C525 C521 1.393 . S
C525 C524 1.391 . S
C526 H516 0.950 . S
C526 C527 1.386 . S
C526 C528 1.391 . S
C527 C526 1.386 . S
C527 C531 1.393 . S
C528 H517 0.950 . S
C528 C526 1.391 . S
C528 C529 1.400 . S
C529 C523 1.491 . S
C529 C528 1.400 . S
C529 C530 1.398 . S
C530 H518 0.950 . S
C530 C529 1.398 . S
C530 C531 1.391 . S
C531 H519 0.950 . S
C531 C527 1.393 . S
C531 C530 1.391 . S
H532 C540 0.950 . S
H533 C545 0.950 . S
H534 C542 0.950 . S
H535 C544 0.950 . S
H536 C546 0.950 . S
H537 C548 0.950 . S
H538 C550 0.950 . S
H539 C551 0.950 . S
C540 H532 0.950 . S
C540 C541 1.386 . S
C540 C542 1.391 . S
C541 C540 1.386 . S
C541 C545 1.393 . S
C542 H534 0.950 . S
C542 C540 1.391 . S
C542 C543 1.400 . S
C543 C542 1.400 . S
C543 C544 1.398 . S
C543 C549 1.491 . S
C544 H535 0.950 . S
C544 C543 1.398 . S
C544 C545 1.391 . S
C545 H533 0.950 . S
C545 C541 1.393 . S
C545 C544 1.391 . S
C546 H536 0.950 . S
C546 C547 1.386 . S
C546 C548 1.391 . S
C547 C546 1.386 . S
C547 C551 1.393 . S
C548 H537 0.950 . S
C548 C546 1.391 . S
C548 C549 1.400 . S
C549 C543 1.491 . S
C549 C548 1.400 . S
C549 C550 1.398 . S
C550 H538 0.950 . S
C550 C549 1.398 . S
C550 C551 1.391 . S
C551 H539 0.950 . S
C551 C547 1.393 . S
C551 C550 1.391 . S
H552 C560 0.950 . S
H553 C565 0.950 . S
H554 C562 0.950 . S
H555 C564 0.950 . S
H556 C566 0.950 . S
H557 C568 0.950 . S
H558 C570 0.950 . S
H559 C571 0.950 . S
C560 H552 0.950 . S
C560 C561 1.386 . S
C560 C562 1.391 . S
C561 C560 1.386 . S
C561 C565 1.393 . S
C562 H554 0.950 . S
C562 C560 1.391 . S
C562 C563 1.400 . S
C563 C562 1.400 . S
C563 C564 1.398 . S
C563 C569 1.491 . S
C564 H555 0.950 . S
C564 C563 1.398 . S
C564 C565 1.391 . S
C565 H553 0.950 . S
C565 C561 1.393 . S
C565 C564 1.391 . S
C566 H556 0.950 . S
C566 C567 1.386 . S
C566 C568 1.391 . S
C567 C566 1.386 . S
C567 C571 1.393 . S
C568 H557 0.950 . S
C568 C566 1.391 . S
C568 C569 1.400 . S
C569 C563 1.491 . S
C569 C568 1.400 . S
C569 C570 1.398 . S
C570 H558 0.950 . S
C570 C569 1.398 . S
C570 C571 1.391 . S
C571 H559 0.950 . S
C571 C567 1.393 . S
C571 C570 1.391 . S
H572 C580 0.950 . S
H573 C585 0.950 . S
H574 C582 0.950 . S
H575 C584 0.950 . S
H576 C586 0.950 . S
H577 C588 0.950 . S
H578 C590 0.950 . S
H579 C591 0.950 . S
C580 H572 0.950 . S
C580 C581 1.386 . S
C580 C582 1.391 . S
C581 C580 1.386 . S
C581 C585 1.393 . S
C582 H574 0.950 . S
C582 C580 1.391 . S
C582 C583 1.400 . S
C583 C582 1.400 . S
C583 C584 1.398 . S
C583 C589 1.491 . S
C584 H575 0.950 . S
C584 C583 1.398 . S
C584 C585 1.391 . S
C585 H573 0.950 . S
C585 C581 1.393 . S
C585 C584 1.391 . S
C586 H576 0.950 . S
C586 C587 1.386 . S
C586 C588 1.391 . S
C587 C586 1.386 . S
C587 C591 1.393 . S
C588 H577 0.950 . S
C588 C586 1.391 . S
C588 C589 1.400 . S
C589 C583 1.491 . S
C589 C588 1.400 . S
C589 C590 1.398 . S
C590 H578 0.950 . S
C590 C589 1.398 . S
C590 C591 1.391 . S
C591 H579 0.950 . S
C591 C587 1.393 . S
C591 C590 1.391 . S
H592 C600 0.950 . S
H593 C605 0.950 . S
H594 C602 0.950 . S
H595 C604 0.950 . S
H596 C606 0.950 . S
H597 C608 0.950 . S
H598 C610 0.950 . S
H599 C611 0.950 . S
C600 H592 0.950 . S
C600 C601 1.386 . S
C600 C602 1.391 . S
C601 C600 1.386 . S
C601 C605 1.393 . S
C602 H594 0.950 . S
C602 C600 1.391 . S
C602 C603 1.400 . S
C603 C602 1.400 . S
C603 C604 1.398 . S
C603 C609 1.491 . S
C604 H595 0.950 . S
C604 C603 1.398 . S
C604 C605 1.391 . S
C605 H593 0.950 . S
C605 C601 1.393 . S
C605 C604 1.391 . S
C606 H596 0.950 . S
C606 C607 1.386 . S
C606 C608 1.391 . S
C607 C606 1.386 . S
C607 C611 1.393 . S
C608 H597 0.950 . S
C608 C606 1.391 . S
C608 C609 1.400 . S
C609 C603 1.491 . S
C609 C608 1.400 . S
C609 C610 1.398 . S
C610 H598 0.950 . S
C610 C609 1.398 . S
C610 C611 1.391 . S
C611 H599 0.950 . S
C611 C607 1.393 . S
C611 C610 1.391 . S
H612 C620 0.950 . S
H613 C625 0.950 . S
H614 C622 0.950 . S
H615 C624 0.950 . S
H616 C626 0.950 . S
H617 C628 0.950 . S
H618 C630 0.950 . S
H619 C631 0.950 . S
C620 H612 0.950 . S
C620 C621 1.386 . S
C620 C622 1.391 . S
C621 C620 1.386 . S
C621 C625 1.393 . S
C622 H614 0.950 . S
C622 C620 1.391 . S
C622 C623 1.400 . S
C623 C622 1.400 . S
C623 C624 1.398 . S
C623 C629 1.491 . S
C624 H615 0.950 . S
C624 C623 1.398 . S
C624 C625 1.391 . S
C625 H613 0.950 . S
C625 C621 1.393 . S
C625 C624 1.391 . S
C626 H616 0.950 . S
C626 C627 1.386 . S
C626 C628 1.391 . S
C627 C626 1.386 . S
C627 C631 1.393 . S
C628 H617 0.950 . S
C628 C626 1.391 . S
C628 C629 1.400 . S
C629 C623 1.491 . S
C629 C628 1.400 . S
C629 C630 1.398 . S
C630 H618 0.950 . S
C630 C629 1.398 . S
C630 C631 1.391 . S
C631 H619 0.950 . S
C631 C627 1.393 . S
C631 C630 1.391 . S
H632 C640 0.950 . S
H633 C645 0.950 . S
H634 C642 0.950 . S
H635 C644 0.950 . S
H636 C646 0.950 . S
H637 C648 0.950 . S
H638 C650 0.950 . S
H639 C651 0.950 . S
C640 H632 0.950 . S
C640 C641 1.386 . S
C640 C642 1.391 . S
C641 C640 1.386 . S
C641 C645 1.393 . S
C642 H634 0.950 . S
C642 C640 1.391 . S
C642 C643 1.400 . S
C643 C642 1.400 . S
C643 C644 1.398 . S
C643 C649 1.491 . S
C644 H635 0.950 . S
C644 C643 1.398 . S
C644 C645 1.391 . S
C645 H633 0.950 . S
C645 C641 1.393 . S
C645 C644 1.391 . S
C646 H636 0.950 . S
C646 C647 1.386 . S
C646 C648 1.391 . S
C647 C646 1.386 . S
C647 C651 1.393 . S
C648 H637 0.950 . S
C648 C646 1.391 . S
C648 C649 1.400 . S
C649 C643 1.491 . S
C649 C648 1.400 . S
C649 C650 1.398 . S
C650 H638 0.950 . S
C650 C649 1.398 . S
C650 C651 1.391 . S
C651 H639 0.950 . S
C651 C647 1.393 . S
C651 C650 1.391 . S
H652 C660 0.950 . S
H653 C665 0.950 . S
H654 C662 0.950 . S
H655 C664 0.950 . S
H656 C666 0.950 . S
H657 C668 0.950 . S
H658 C670 0.950 . S
H659 C671 0.950 . S
C660 H652 0.950 . S
C660 C661 1.386 . S
C660 C662 1.391 . S
C661 C660 1.386 . S
C661 C665 1.393 . S
C662 H654 0.950 . S
C662 C660 1.391 . S
C662 C663 1.400 . S
C663 C662 1.400 . S
C663 C664 1.398 . S
C663 C669 1.491 . S
C664 H655 0.950 . S
C664 C663 1.398 . S
C664 C665 1.391 . S
C665 H653 0.950 . S
C665 C661 1.393 . S
C665 C664 1.391 . S
C666 H656 0.950 . S
C666 C667 1.386 . S
C666 C668 1.391 . S
C667 C666 1.386 . S
C667 C671 1.393 . S
C668 H657 0.950 . S
C668 C666 1.391 . S
C668 C669 1.400 . S
C669 C663 1.491 . S
C669 C668 1.400 . S
C669 C670 1.398 . S
C670 H658 0.950 . S
C670 C669 1.398 . S
C670 C671 1.391 . S
C671 H659 0.950 . S
C671 C667 1.393 . S
C671 C670 1.391 . S
H672 C680 0.950 . S
H673 C685 0.950 . S
H674 C682 0.950 . S
H675 C684 0.950 . S
H676 C686 0.950 . S
H677 C688 0.950 . S
H678 C690 0.950 . S
H679 C691 0.950 . S
C680 H672 0.950 . S
C680 C681 1.386 . S
C680 C682 1.391 . S
C681 C680 1.386 . S
C681 C685 1.393 . S
C682 H674 0.950 . S
C682 C680 1.391 . S
C682 C683 1.400 . S
C683 C682 1.400 . S
C683 C684 1.398 . S
C683 C689 1.491 . S
C684 H675 0.950 . S
C684 C683 1.398 . S
C684 C685 1.391 . S
C685 H673 0.950 . S
C685 C681 1.393 . S
C685 C684 1.391 . S
C686 H676 0.950 . S
C686 C687 1.386 . S
C686 C688 1.391 . S
C687 C686 1.386 . S
C687 C691 1.393 . S
C688 H677 0.950 . S
C688 C686 1.391 . S
C688 C689 1.400 . S
C689 C683 1.491 . S
C689 C688 1.400 . S
C689 C690 1.398 . S
C690 H678 0.950 . S
C690 C689 1.398 . S
C690 C691 1.391 . S
C691 H679 0.950 . S
C691 C687 1.393 . S
C691 C690 1.391 . S
H692 C700 0.950 . S
H693 C705 0.950 . S
H694 C702 0.950 . S
H695 C704 0.950 . S
H696 C706 0.950 . S
H697 C708 0.950 . S
H698 C710 0.950 . S
H699 C711 0.950 . S
C700 H692 0.950 . S
C700 C701 1.386 . S
C700 C702 1.391 . S
C701 C700 1.386 . S
C701 C705 1.393 . S
C702 H694 0.950 . S
C702 C700 1.391 . S
C702 C703 1.400 . S
C703 C702 1.400 . S
C703 C704 1.398 . S
C703 C709 1.491 . S
C704 H695 0.950 . S
C704 C703 1.398 . S
C704 C705 1.391 . S
C705 H693 0.950 . S
C705 C701 1.393 . S
C705 C704 1.391 . S
C706 H696 0.950 . S
C706 C707 1.386 . S
C706 C708 1.391 . S
C707 C706 1.386 . S
C707 C711 1.393 . S
C708 H697 0.950 . S
C708 C706 1.391 . S
C708 C709 1.400 . S
C709 C703 1.491 . S
C709 C708 1.400 . S
C709 C710 1.398 . S
C710 H698 0.950 . S
C710 C709 1.398 . S
C710 C711 1.391 . S
C711 H699 0.950 . S
C711 C707 1.393 . S
C711 C710 1.391 . S
H712 C720 0.950 . S
H713 C725 0.950 . S
H714 C722 0.950 . S
H715 C724 0.950 . S
H716 C726 0.950 . S
H717 C728 0.950 . S
H718 C730 0.950 . S
H719 C731 0.950 . S
C720 H712 0.950 . S
C720 C721 1.386 . S
C720 C722 1.391 . S
C721 C720 1.386 . S
C721 C725 1.393 . S
C722 H714 0.950 . S
C722 C720 1.391 . S
C722 C723 1.400 . S
C723 C722 1.400 . S
C723 C724 1.398 . S
C723 C729 1.491 . S
C724 H715 0.950 . S
C724 C723 1.398 . S
C724 C725 1.391 . S
C725 H713 0.950 . S
C725 C721 1.393 . S
C725 C724 1.391 . S
C726 H716 0.950 . S
C726 C727 1.386 . S
C726 C728 1.391 . S
C727 C726 1.386 . S
C727 C731 1.393 . S
C728 H717 0.950 . S
C728 C726 1.391 . S
C728 C729 1.400 . S
C729 C723 1.491 . S
C729 C728 1.400 . S
C729 C730 1.398 . S
C730 H718 0.950 . S
C730 C729 1.398 . S
C730 C731 1.391 . S
C731 H719 0.950 . S
C731 C727 1.393 . S
C731 C730 1.391 . S
H732 C740 0.950 . S
H733 C745 0.950 . S
H734 C742 0.950 . S
H735 C744 0.950 . S
H736 C746 0.950 . S
H737 C748 0.950 . S
H738 C750 0.950 . S
H739 C751 0.950 . S
C740 H732 0.950 . S
C740 C741 1.386 . S
C740 C742 1.391 . S
C741 C740 1.386 . S
C741 C745 1.393 . S
C742 H734 0.950 . S
C742 C740 1.391 . S
C742 C743 1.400 . S
C743 C742 1.400 . S
C743 C744 1.398 . S
C743 C749 1.491 . S
C744 H735 0.950 . S
C744 C743 1.398 . S
C744 C745 1.391 . S
C745 H733 0.950 . S
C745 C741 1.393 . S
C745 C744 1.391 . S
C746 H736 0.950 . S
C746 C747 1.386 . S
C746 C748 1.391 . S
C747 C746 1.386 . S
C747 C751 1.393 . S
C748 H737 0.950 . S
C748 C746 1.391 . S
C748 C749 1.400 . S
C749 C743 1.491 . S
C749 C748 1.400 . S
C749 C750 1.398 . S
C750 H738 0.950 . S
C750 C749 1.398 . S
C750 C751 1.391 . S
C751 H739 0.950 . S
C751 C747 1.393 . S
C751 C750 1.391 . S
H752 C760 0.950 . S
H753 C765 0.950 . S
H754 C762 0.950 . S
H755 C764 0.950 . S
H756 C766 0.950 . S
H757 C768 0.950 . S
H758 C770 0.950 . S
H759 C771 0.950 . S
C760 H752 0.950 . S
C760 C761 1.386 . S
C760 C762 1.391 . S
C761 C760 1.386 . S
C761 C765 1.393 . S
C762 H754 0.950 . S
C762 C760 1.391 . S
C762 C763 1.400 . S
C763 C762 1.400 . S
C763 C764 1.398 . S
C763 C769 1.491 . S
C764 H755 0.950 . S
C764 C763 1.398 . S
C764 C765 1.391 . S
C765 H753 0.950 . S
C765 C761 1.393 . S
C765 C764 1.391 . S
C766 H756 0.950 . S
C766 C767 1.386 . S
C766 C768 1.391 . S
C767 C766 1.386 . S
C767 C771 1.393 . S
C768 H757 0.950 . S
C768 C766 1.391 . S
C768 C769 1.400 . S
C769 C763 1.491 . S
C769 C768 1.400 . S
C769 C770 1.398 . S
C770 H758 0.950 . S
C770 C769 1.398 . S
C770 C771 1.391 . S
C771 H759 0.950 . S
C771 C767 1.393 . S
C771 C770 1.391 . S
H772 C780 0.950 . S
H773 C785 0.950 . S
H774 C782 0.950 . S
H775 C784 0.950 . S
H776 C786 0.950 . S
H777 C788 0.950 . S
H778 C790 0.950 . S
H779 C791 0.950 . S
C780 H772 0.950 . S
C780 C781 1.386 . S
C780 C782 1.391 . S
C781 C780 1.386 . S
C781 C785 1.393 . S
C782 H774 0.950 . S
C782 C780 1.391 . S
C782 C783 1.400 . S
C783 C782 1.400 . S
C783 C784 1.398 . S
C783 C789 1.491 . S
C784 H775 0.950 . S
C784 C783 1.398 . S
C784 C785 1.391 . S
C785 H773 0.950 . S
C785 C781 1.393 . S
C785 C784 1.391 . S
C786 H776 0.950 . S
C786 C787 1.386 . S
C786 C788 1.391 . S
C787 C786 1.386 . S
C787 C791 1.393 . S
C788 H777 0.950 . S
C788 C786 1.391 . S
C788 C789 1.400 . S
C789 C783 1.491 . S
C789 C788 1.400 . S
C789 C790 1.398 . S
C790 H778 0.950 . S
C790 C789 1.398 . S
C790 C791 1.391 . S
C791 H779 0.950 . S
C791 C787 1.393 . S
C791 C790 1.391 . S
H792 C800 0.950 . S
H793 C805 0.950 . S
H794 C802 0.950 . S
H795 C804 0.950 . S
H796 C806 0.950 . S
H797 C808 0.950 . S
H798 C810 0.956 . S
H799 C811 0.950 . S
C800 H792 0.950 . S
C800 C801 1.386 . S
C800 C802 1.391 . S
C801 C800 1.386 . S
C801 C805 1.393 . S
C802 H794 0.950 . S
C802 C800 1.391 . S
C802 C803 1.400 . S
C803 C802 1.400 . S
C803 C804 1.398 . S
C803 C809 1.491 . S
C804 H795 0.950 . S
C804 C803 1.398 . S
C804 C805 1.391 . S
C805 H793 0.950 . S
C805 C801 1.393 . S
C805 C804 1.391 . S
C806 H796 0.950 . S
C806 C807 1.386 1_556 S
C806 C808 1.391 . S
C807 C806 1.386 1_554 S
C807 C811 1.393 . S
C808 H797 0.950 . S
C808 C806 1.391 . S
C808 C809 1.400 . S
C809 C803 1.491 . S
C809 C808 1.400 . S
C809 C810 1.352 1_556 S
C810 H798 0.956 . S
C810 C809 1.352 1_554 S
C810 C811 1.432 . S
C811 H799 0.950 . S
C811 C807 1.393 . S
C811 C810 1.432 . S
H812 C820 0.950 . S
H813 C825 0.950 . S
H814 C822 0.950 . S
H815 C824 0.950 . S
H816 C826 0.950 . S
H817 C828 0.950 . S
H818 C830 0.950 . S
H819 C831 0.950 . S
C820 H812 0.950 . S
C820 C821 1.386 . S
C820 C822 1.391 . S
C821 C820 1.386 . S
C821 C825 1.393 . S
C822 H814 0.950 . S
C822 C820 1.391 . S
C822 C823 1.400 . S
C823 C822 1.400 . S
C823 C824 1.398 . S
C823 C829 1.491 . S
C824 H815 0.950 . S
C824 C823 1.398 . S
C824 C825 1.391 . S
C825 H813 0.950 . S
C825 C821 1.393 . S
C825 C824 1.391 . S
C826 H816 0.950 . S
C826 C827 1.386 . S
C826 C828 1.391 . S
C827 C826 1.386 . S
C827 C831 1.393 . S
C828 H817 0.950 . S
C828 C826 1.391 . S
C828 C829 1.400 . S
C829 C823 1.491 . S
C829 C828 1.400 . S
C829 C830 1.398 . S
C830 H818 0.950 . S
C830 C829 1.398 . S
C830 C831 1.391 . S
C831 H819 0.950 . S
C831 C827 1.393 . S
C831 C830 1.391 . S
H832 C840 0.950 . S
H833 C845 0.950 . S
H834 C842 0.950 . S
H835 C844 0.950 . S
H836 C846 0.950 . S
H837 C848 0.950 . S
H838 C850 0.950 . S
H839 C851 0.950 . S
C840 H832 0.950 . S
C840 C841 1.386 . S
C840 C842 1.391 . S
C841 C840 1.386 . S
C841 C845 1.393 . S
C842 H834 0.950 . S
C842 C840 1.391 . S
C842 C843 1.400 . S
C843 C842 1.400 . S
C843 C844 1.398 . S
C843 C849 1.491 . S
C844 H835 0.950 . S
C844 C843 1.398 . S
C844 C845 1.391 . S
C845 H833 0.950 . S
C845 C841 1.393 . S
C845 C844 1.391 . S
C846 H836 0.950 . S
C846 C847 1.386 . S
C846 C848 1.391 . S
C847 C846 1.386 . S
C847 C851 1.393 . S
C848 H837 0.950 . S
C848 C846 1.391 . S
C848 C849 1.400 . S
C849 C843 1.491 . S
C849 C848 1.400 . S
C849 C850 1.398 . S
C850 H838 0.950 . S
C850 C849 1.398 . S
C850 C851 1.391 . S
C851 H839 0.950 . S
C851 C847 1.393 . S
C851 C850 1.391 . S
H852 C860 0.950 . S
H853 C865 0.950 . S
H854 C862 0.950 . S
H855 C864 0.950 . S
H856 C866 0.950 . S
H857 C868 0.950 . S
H858 C870 0.950 . S
H859 C871 0.950 . S
C860 H852 0.950 . S
C860 C861 1.386 . S
C860 C862 1.391 . S
C861 C860 1.386 . S
C861 C865 1.393 . S
C862 H854 0.950 . S
C862 C860 1.391 . S
C862 C863 1.400 . S
C863 C862 1.400 . S
C863 C864 1.398 . S
C863 C869 1.491 . S
C864 H855 0.950 . S
C864 C863 1.398 . S
C864 C865 1.391 . S
C865 H853 0.950 . S
C865 C861 1.393 . S
C865 C864 1.391 . S
C866 H856 0.950 . S
C866 C867 1.386 . S
C866 C868 1.391 . S
C867 C866 1.386 . S
C867 C871 1.393 . S
C868 H857 0.950 . S
C868 C866 1.391 . S
C868 C869 1.400 . S
C869 C863 1.491 . S
C869 C868 1.400 . S
C869 C870 1.398 . S
C870 H858 0.950 . S
C870 C869 1.398 . S
C870 C871 1.391 . S
C871 H859 0.950 . S
C871 C867 1.393 . S
C871 C870 1.391 . S
H872 C880 0.950 . S
H873 C885 0.950 . S
H874 C882 0.950 . S
H875 C884 0.950 . S
H876 C886 0.950 . S
H877 C888 0.950 . S
H878 C890 0.950 . S
H879 C891 0.950 . S
C880 H872 0.950 . S
C880 C881 1.386 . S
C880 C882 1.391 . S
C881 C880 1.386 . S
C881 C885 1.393 . S
C882 H874 0.950 . S
C882 C880 1.391 . S
C882 C883 1.400 . S
C883 C882 1.400 . S
C883 C884 1.398 . S
C883 C889 1.491 . S
C884 H875 0.950 . S
C884 C883 1.398 . S
C884 C885 1.391 . S
C885 H873 0.950 . S
C885 C881 1.393 . S
C885 C884 1.391 . S
C886 H876 0.950 . S
C886 C887 1.386 . S
C886 C888 1.391 . S
C887 C886 1.386 . S
C887 C891 1.393 . S
C888 H877 0.950 . S
C888 C886 1.391 . S
C888 C889 1.400 . S
C889 C883 1.491 . S
C889 C888 1.400 . S
C889 C890 1.398 . S
C890 H878 0.950 . S
C890 C889 1.398 . S
C890 C891 1.391 . S
C891 H879 0.950 . S
C891 C887 1.393 . S
C891 C890 1.391 . S
H892 C900 0.950 . S
H893 C905 0.950 . S
H894 C902 0.950 . S
H895 C904 0.950 . S
H896 C906 0.950 . S
H897 C908 0.950 . S
H898 C910 0.950 . S
H899 C911 0.950 . S
C900 H892 0.950 . S
C900 C901 1.386 . S
C900 C902 1.391 . S
C901 C900 1.386 . S
C901 C905 1.393 . S
C902 H894 0.950 . S
C902 C900 1.391 . S
C902 C903 1.400 . S
C903 C902 1.400 . S
C903 C904 1.398 . S
C903 C909 1.491 . S
C904 H895 0.950 . S
C904 C903 1.398 . S
C904 C905 1.391 . S
C905 H893 0.950 . S
C905 C901 1.393 . S
C905 C904 1.391 . S
C906 H896 0.950 . S
C906 C907 1.386 . S
C906 C908 1.391 . S
C907 C906 1.386 . S
C907 C911 1.393 . S
C908 H897 0.950 . S
C908 C906 1.391 . S
C908 C909 1.400 . S
C909 C903 1.491 . S
C909 C908 1.400 . S
C909 C910 1.398 . S
C910 H898 0.950 . S
C910 C909 1.398 . S
C910 C911 1.391 . S
C911 H899 0.950 . S
C911 C907 1.393 . S
C911 C910 1.391 . S
H912 C920 0.950 . S
H913 C925 0.950 . S
H914 C922 0.950 . S
H915 C924 0.950 . S
H916 C926 0.950 . S
H917 C928 0.950 . S
H918 C930 0.950 . S
H919 C931 0.950 . S
C920 H912 0.950 . S
C920 C921 1.386 . S
C920 C922 1.391 . S
C921 C920 1.386 . S
C921 C925 1.393 . S
C922 H914 0.950 . S
C922 C920 1.391 . S
C922 C923 1.400 . S
C923 C922 1.400 . S
C923 C924 1.398 . S
C923 C929 1.491 . S
C924 H915 0.950 . S
C924 C923 1.398 . S
C924 C925 1.391 . S
C925 H913 0.950 . S
C925 C921 1.393 . S
C925 C924 1.391 . S
C926 H916 0.950 . S
C926 C927 1.386 . S
C926 C928 1.391 . S
C927 C926 1.386 . S
C927 C931 1.393 . S
C928 H917 0.950 . S
C928 C926 1.391 . S
C928 C929 1.400 . S
C929 C923 1.491 . S
C929 C928 1.400 . S
C929 C930 1.398 . S
C930 H918 0.950 . S
C930 C929 1.398 . S
C930 C931 1.391 . S
C931 H919 0.950 . S
C931 C927 1.393 . S
C931 C930 1.391 . S
H932 C940 0.950 . S
H933 C945 0.950 . S
H934 C942 0.950 . S
H935 C944 0.950 . S
H936 C946 0.950 . S
H937 C948 0.950 . S
H938 C950 0.950 1_554 S
H939 C951 0.950 . S
C940 H932 0.950 . S
C940 C941 1.386 . S
C940 C942 1.391 . S
C941 C940 1.386 . S
C941 C945 1.393 . S
C942 H934 0.950 . S
C942 C940 1.391 . S
C942 C943 1.400 . S
C943 C942 1.400 . S
C943 C944 1.398 . S
C943 C949 1.491 1_554 S
C944 H935 0.950 . S
C944 C943 1.398 . S
C944 C945 1.391 . S
C945 H933 0.950 . S
C945 C941 1.393 . S
C945 C944 1.391 . S
C946 H936 0.950 . S
C946 C947 1.386 . S
C946 C948 1.391 . S
C947 C946 1.386 . S
C947 C951 1.393 . S
C948 H937 0.950 . S
C948 C946 1.391 . S
C948 C949 1.400 . S
C949 C943 1.491 1_556 S
C949 C948 1.400 . S
C949 C950 1.398 . S
C950 H938 0.950 1_556 S
C950 C949 1.398 . S
C950 C951 1.391 . S
C951 H939 0.950 . S
C951 C947 1.393 . S
C951 C950 1.391 . S
H952 C960 0.950 . S
H953 C965 0.950 . S
H954 C962 0.950 . S
H955 C964 0.950 . S
H956 C966 0.950 . S
H957 C968 0.950 . S
H958 C970 0.950 . S
H959 C971 0.950 . S
C960 H952 0.950 . S
C960 C961 1.386 . S
C960 C962 1.391 . S
C961 C960 1.386 . S
C961 C965 1.393 . S
C962 H954 0.950 . S
C962 C960 1.391 . S
C962 C963 1.400 . S
C963 C962 1.400 . S
C963 C964 1.398 . S
C963 C969 1.491 . S
C964 H955 0.950 . S
C964 C963 1.398 . S
C964 C965 1.391 . S
C965 H953 0.950 . S
C965 C961 1.393 . S
C965 C964 1.391 . S
C966 H956 0.950 . S
C966 C967 1.386 . S
C966 C968 1.391 . S
C967 C966 1.386 . S
C967 C971 1.393 . S
C968 H957 0.950 . S
C968 C966 1.391 . S
C968 C969 1.400 . S
C969 C963 1.491 . S
C969 C968 1.400 . S
C969 C970 1.398 . S
C970 H958 0.950 . S
C970 C969 1.398 . S
C970 C971 1.391 . S
C971 H959 0.950 . S
C971 C967 1.393 . S
C971 C970 1.391 . S
C507 C459 1.595 . S
C501 C15 1.569 . S
C521 C61 1.621 . S
C527 C279 1.641 . S
C541 C114 1.596 . S
C547 C326 1.588 . S
C561 C139 1.547 . S
C567 C362 1.528 . S
C587 C387 1.573 . S
C581 C185 1.562 . S
C601 C245 1.560 . S
C607 C423 1.580 . S
C621 C47 1.624 . S
C627 C315 1.632 . S
C641 C100 1.570 . S
C647 C351 1.580 . S
C661 C153 1.524 . S
C667 C398 1.522 . S
C687 C434 1.581 . S
C681 C199 1.562 . S
C707 C470 1.579 . S
C701 C231 1.593 . S
C727 C290 1.599 . S
C721 C1 1.605 . S
C741 C22 1.469 . S
C747 C314 1.455 . S
C761 C68 1.491 . S
C767 C350 1.482 . S
C787 C388 1.485 . S
C781 C107 1.487 . S
C801 C146 1.490 . S
C807 C424 1.482 . S
C827 C460 1.452 . S
C821 C192 1.458 . S
C847 C280 1.444 . S
C841 C252 1.449 . S
C867 C458 1.454 . S
C861 C54 1.471 . S
C881 C93 1.469 . S
C887 C278 1.464 . S
C907 C316 1.471 . S
C901 C160 1.474 . S
C921 C206 1.484 . S
C927 C352 1.479 . S
C941 C238 1.514 . S
C947 C386 1.509 . S
C961 C8 1.496 . S
C967 C422 1.481 . S
