# Generated by pormake.
# Topology eea, (3,6)-cn, num edge types: 1
# Building blocks:
#     Node 0, Type 0, BuildingBlock: CUQRIR_clean_linker_1, # of connection points: 3
#     Node 1, Type 0, BuildingBlock: CUQRIR_clean_linker_1, # of connection points: 3
#     Node 2, Type 0, BuildingBlock: CUQRIR_clean_linker_1, # of connection points: 3
#     Node 3, Type 0, BuildingBlock: CUQRIR_clean_linker_1, # of connection points: 3
#     Node 4, Type 0, BuildingBlock: CUQRIR_clean_linker_1, # of connection points: 3
#     Node 5, Type 0, BuildingBlock: CUQRIR_clean_linker_1, # of connection points: 3
#     Node 6, Type 0, BuildingBlock: CUQRIR_clean_linker_1, # of connection points: 3
#     Node 7, Type 0, BuildingBlock: CUQRIR_clean_linker_1, # of connection points: 3
#     Node 8, Type 0, BuildingBlock: CUQRIR_clean_linker_1, # of connection points: 3
#     Node 9, Type 0, BuildingBlock: CUQRIR_clean_linker_1, # of connection points: 3
#     Node 10, Type 0, BuildingBlock: CUQRIR_clean_linker_1, # of connection points: 3
#     Node 11, Type 0, BuildingBlock: CUQRIR_clean_linker_1, # of connection points: 3
#     Node 12, Type 0, BuildingBlock: CUQRIR_clean_linker_1, # of connection points: 3
#     Node 13, Type 0, BuildingBlock: CUQRIR_clean_linker_1, # of connection points: 3
#     Node 14, Type 0, BuildingBlock: CUQRIR_clean_linker_1, # of connection points: 3
#     Node 15, Type 0, BuildingBlock: CUQRIR_clean_linker_1, # of connection points: 3
#     Node 16, Type 0, BuildingBlock: CUQRIR_clean_linker_1, # of connection points: 3
#     Node 17, Type 0, BuildingBlock: CUQRIR_clean_linker_1, # of connection points: 3
#     Node 18, Type 1, BuildingBlock: KUMBOL_clean_sbu_0, # of connection points: 6
#     Node 19, Type 1, BuildingBlock: KUMBOL_clean_sbu_0, # of connection points: 6
#     Node 20, Type 1, BuildingBlock: KUMBOL_clean_sbu_0, # of connection points: 6
#     Node 21, Type 1, BuildingBlock: KUMBOL_clean_sbu_0, # of connection points: 6
#     Node 22, Type 1, BuildingBlock: KUMBOL_clean_sbu_0, # of connection points: 6
#     Node 23, Type 1, BuildingBlock: KUMBOL_clean_sbu_0, # of connection points: 6
#     Node 24, Type 1, BuildingBlock: KUMBOL_clean_sbu_0, # of connection points: 6
#     Node 25, Type 1, BuildingBlock: KUMBOL_clean_sbu_0, # of connection points: 6
#     Node 26, Type 1, BuildingBlock: KUMBOL_clean_sbu_0, # of connection points: 6
#     Edge 27, Type (0, 1), BuildingBlock: KIFKEQ_clean_linker_1, # of connection points: 2
#     Edge 28, Type (0, 1), BuildingBlock: KIFKEQ_clean_linker_1, # of connection points: 2
#     Edge 29, Type (0, 1), BuildingBlock: KIFKEQ_clean_linker_1, # of connection points: 2
#     Edge 30, Type (0, 1), BuildingBlock: KIFKEQ_clean_linker_1, # of connection points: 2
#     Edge 31, Type (0, 1), BuildingBlock: KIFKEQ_clean_linker_1, # of connection points: 2
#     Edge 32, Type (0, 1), BuildingBlock: KIFKEQ_clean_linker_1, # of connection points: 2
#     Edge 33, Type (0, 1), BuildingBlock: KIFKEQ_clean_linker_1, # of connection points: 2
#     Edge 34, Type (0, 1), BuildingBlock: KIFKEQ_clean_linker_1, # of connection points: 2
#     Edge 35, Type (0, 1), BuildingBlock: KIFKEQ_clean_linker_1, # of connection points: 2
#     Edge 36, Type (0, 1), BuildingBlock: KIFKEQ_clean_linker_1, # of connection points: 2
#     Edge 37, Type (0, 1), BuildingBlock: KIFKEQ_clean_linker_1, # of connection points: 2
#     Edge 38, Type (0, 1), BuildingBlock: KIFKEQ_clean_linker_1, # of connection points: 2
#     Edge 39, Type (0, 1), BuildingBlock: KIFKEQ_clean_linker_1, # of connection points: 2
#     Edge 40, Type (0, 1), BuildingBlock: KIFKEQ_clean_linker_1, # of connection points: 2
#     Edge 41, Type (0, 1), BuildingBlock: KIFKEQ_clean_linker_1, # of connection points: 2
#     Edge 42, Type (0, 1), BuildingBlock: KIFKEQ_clean_linker_1, # of connection points: 2
#     Edge 43, Type (0, 1), BuildingBlock: KIFKEQ_clean_linker_1, # of connection points: 2
#     Edge 44, Type (0, 1), BuildingBlock: KIFKEQ_clean_linker_1, # of connection points: 2
#     Edge 45, Type (0, 1), BuildingBlock: KIFKEQ_clean_linker_1, # of connection points: 2
#     Edge 46, Type (0, 1), BuildingBlock: KIFKEQ_clean_linker_1, # of connection points: 2
#     Edge 47, Type (0, 1), BuildingBlock: KIFKEQ_clean_linker_1, # of connection points: 2
#     Edge 48, Type (0, 1), BuildingBlock: KIFKEQ_clean_linker_1, # of connection points: 2
#     Edge 49, Type (0, 1), BuildingBlock: KIFKEQ_clean_linker_1, # of connection points: 2
#     Edge 50, Type (0, 1), BuildingBlock: KIFKEQ_clean_linker_1, # of connection points: 2
#     Edge 51, Type (0, 1), BuildingBlock: KIFKEQ_clean_linker_1, # of connection points: 2
#     Edge 52, Type (0, 1), BuildingBlock: KIFKEQ_clean_linker_1, # of connection points: 2
#     Edge 53, Type (0, 1), BuildingBlock: KIFKEQ_clean_linker_1, # of connection points: 2
#     Edge 54, Type (0, 1), BuildingBlock: KIFKEQ_clean_linker_1, # of connection points: 2
#     Edge 55, Type (0, 1), BuildingBlock: KIFKEQ_clean_linker_1, # of connection points: 2
#     Edge 56, Type (0, 1), BuildingBlock: KIFKEQ_clean_linker_1, # of connection points: 2
#     Edge 57, Type (0, 1), BuildingBlock: KIFKEQ_clean_linker_1, # of connection points: 2
#     Edge 58, Type (0, 1), BuildingBlock: KIFKEQ_clean_linker_1, # of connection points: 2
#     Edge 59, Type (0, 1), BuildingBlock: KIFKEQ_clean_linker_1, # of connection points: 2
#     Edge 60, Type (0, 1), BuildingBlock: KIFKEQ_clean_linker_1, # of connection points: 2
#     Edge 61, Type (0, 1), BuildingBlock: KIFKEQ_clean_linker_1, # of connection points: 2
#     Edge 62, Type (0, 1), BuildingBlock: KIFKEQ_clean_linker_1, # of connection points: 2
#     Edge 63, Type (0, 1), BuildingBlock: KIFKEQ_clean_linker_1, # of connection points: 2
#     Edge 64, Type (0, 1), BuildingBlock: KIFKEQ_clean_linker_1, # of connection points: 2
#     Edge 65, Type (0, 1), BuildingBlock: KIFKEQ_clean_linker_1, # of connection points: 2
#     Edge 66, Type (0, 1), BuildingBlock: KIFKEQ_clean_linker_1, # of connection points: 2
#     Edge 67, Type (0, 1), BuildingBlock: KIFKEQ_clean_linker_1, # of connection points: 2
#     Edge 68, Type (0, 1), BuildingBlock: KIFKEQ_clean_linker_1, # of connection points: 2
#     Edge 69, Type (0, 1), BuildingBlock: KIFKEQ_clean_linker_1, # of connection points: 2
#     Edge 70, Type (0, 1), BuildingBlock: KIFKEQ_clean_linker_1, # of connection points: 2
#     Edge 71, Type (0, 1), BuildingBlock: KIFKEQ_clean_linker_1, # of connection points: 2
#     Edge 72, Type (0, 1), BuildingBlock: KIFKEQ_clean_linker_1, # of connection points: 2
#     Edge 73, Type (0, 1), BuildingBlock: KIFKEQ_clean_linker_1, # of connection points: 2
#     Edge 74, Type (0, 1), BuildingBlock: KIFKEQ_clean_linker_1, # of connection points: 2
#     Edge 75, Type (0, 1), BuildingBlock: KIFKEQ_clean_linker_1, # of connection points: 2
#     Edge 76, Type (0, 1), BuildingBlock: KIFKEQ_clean_linker_1, # of connection points: 2
#     Edge 77, Type (0, 1), BuildingBlock: KIFKEQ_clean_linker_1, # of connection points: 2
#     Edge 78, Type (0, 1), BuildingBlock: KIFKEQ_clean_linker_1, # of connection points: 2
#     Edge 79, Type (0, 1), BuildingBlock: KIFKEQ_clean_linker_1, # of connection points: 2
#     Edge 80, Type (0, 1), BuildingBlock: KIFKEQ_clean_linker_1, # of connection points: 2
# Relax obj value: 0.040
# Max RMSD: 0.205
# Mean RMSD: 0.146
data_MOF--net-eea--node1-KUMBOL_clean_sbu_0--node2-CUQRIR_clean_linker_1--edge1-KIFKEQ_clean_linker_1
_symmetry_space_group_name_H-M    P1
_symmetry_Int_Tables_number       1
_symmetry_cell_setting            triclinic
loop_
_symmetry_equiv_pos_as_xyz
'x, y, z'
_cell_length_a     48.906149
_cell_length_b     51.926212
_cell_length_c     64.06167
_cell_angle_alpha  83.327042
_cell_angle_beta   89.924694
_cell_angle_gamma 119.06097
loop_
_atom_site_label
_atom_site_type_symbol
_atom_site_fract_x
_atom_site_fract_y
_atom_site_fract_z
_atom_type_partial_charge
C0 C 0.21181 0.10942 0.41672 0.0
N1 N 0.22318 0.13214 0.42859 0.0
N2 N 0.21385 0.08589 0.42655 0.0
C3 C 0.19913 0.11026 0.39541 0.0
C4 C 0.22652 0.09493 0.4449 0.0
N5 N 0.23184 0.12281 0.44627 0.0
C6 C 0.23516 0.07711 0.46103 0.0
H7 H 0.18192 0.08769 0.39212 0.0
H8 H 0.21877 0.11975 0.38316 0.0
H9 H 0.18778 0.12435 0.39426 0.0
H10 H 0.26073 0.08533 0.45899 0.0
H11 H 0.22239 0.05312 0.45928 0.0
H12 H 0.22995 0.07995 0.47719 0.0
C13 C 0.91374 0.12455 0.41768 0.0
N14 N 0.92547 0.14644 0.43027 0.0
N15 N 0.88383 0.10361 0.42436 0.0
C16 C 0.93077 0.12458 0.39812 0.0
C17 C 0.8779 0.11363 0.44151 0.0
N18 N 0.90296 0.13962 0.44504 0.0
C19 C 0.84785 0.09757 0.45525 0.0
H20 H 0.91406 0.11195 0.38666 0.0
H21 H 0.9452 0.11389 0.40253 0.0
H22 H 0.94666 0.14763 0.39057 0.0
H23 H 0.83601 0.0733 0.4545 0.0
H24 H 0.83194 0.10614 0.44969 0.0
H25 H 0.85229 0.10152 0.47187 0.0
C26 C 0.8909 0.78984 0.40323 0.0
N27 N 0.90567 0.77974 0.41693 0.0
N28 N 0.86724 0.79071 0.41343 0.0
C29 C 0.90091 0.80086 0.38025 0.0
C30 C 0.86818 0.78099 0.43378 0.0
N31 N 0.89193 0.77478 0.43597 0.0
C32 C 0.84445 0.77536 0.45119 0.0
H33 H 0.92684 0.81237 0.37774 0.0
H34 H 0.89234 0.81629 0.37399 0.0
H35 H 0.89104 0.78156 0.37129 0.0
H36 H 0.83973 0.75547 0.4624 0.0
H37 H 0.82205 0.77211 0.44486 0.0
H38 H 0.85398 0.79482 0.45998 0.0
C39 C 0.12224 0.24893 0.66183 0.0
N40 N 0.14552 0.25776 0.64672 0.0
N41 N 0.09671 0.24822 0.65325 0.0
C42 C 0.12338 0.23836 0.68454 0.0
C43 C 0.10513 0.25676 0.63244 0.0
N44 N 0.13472 0.26221 0.62842 0.0
C45 C 0.08502 0.26137 0.61631 0.0
H46 H 0.09951 0.2237 0.69217 0.0
H47 H 0.13548 0.25795 0.69309 0.0
H48 H 0.1368 0.22615 0.68587 0.0
H49 H 0.06773 0.26613 0.62373 0.0
H50 H 0.07206 0.24083 0.60884 0.0
H51 H 0.09965 0.27997 0.60383 0.0
C52 C 0.79776 0.91288 0.64281 0.0
N53 N 0.7871 0.89105 0.63023 0.0
N54 N 0.78707 0.93224 0.63719 0.0
C55 C 0.81656 0.91401 0.66159 0.0
C56 C 0.76942 0.9213 0.62078 0.0
N57 N 0.76914 0.89615 0.61669 0.0
C58 C 0.75417 0.93628 0.60781 0.0
H59 H 0.8126 0.92591 0.67354 0.0
H60 H 0.84183 0.926 0.65635 0.0
H61 H 0.81039 0.89127 0.66895 0.0
H62 H 0.75383 0.93234 0.59114 0.0
H63 H 0.7666 0.96058 0.60846 0.0
H64 H 0.72957 0.92685 0.61414 0.0
C65 C 0.10904 0.91803 0.64709 0.0
N66 N 0.09654 0.89581 0.63481 0.0
N67 N 0.13545 0.94192 0.63735 0.0
C68 C 0.09422 0.91706 0.66794 0.0
C69 C 0.1384 0.93316 0.61868 0.0
N70 N 0.11465 0.90548 0.61702 0.0
C71 C 0.16601 0.95043 0.60281 0.0
H72 H 0.0998 0.93969 0.67087 0.0
H73 H 0.10346 0.90759 0.68064 0.0
H74 H 0.06839 0.90268 0.66857 0.0
H75 H 0.18738 0.9652 0.61046 0.0
H76 H 0.16059 0.96423 0.59083 0.0
H77 H 0.17084 0.93525 0.5946 0.0
C78 C 0.87962 0.44237 0.75084 0.0
N79 N 0.89209 0.46569 0.76211 0.0
N80 N 0.8891 0.42236 0.75753 0.0
C81 C 0.86019 0.44023 0.73226 0.0
C82 C 0.90782 0.43442 0.77325 0.0
N83 N 0.90986 0.46078 0.7759 0.0
C84 C 0.9226 0.4196 0.78692 0.0
H85 H 0.83516 0.42949 0.73795 0.0
H86 H 0.86279 0.42664 0.72108 0.0
H87 H 0.86703 0.46264 0.72387 0.0
H88 H 0.94661 0.42727 0.78013 0.0
H89 H 0.90888 0.39506 0.78771 0.0
H90 H 0.92445 0.42562 0.80312 0.0
C91 C 0.5779 0.45512 0.7499 0.0
N92 N 0.58971 0.47718 0.76235 0.0
N93 N 0.54819 0.43401 0.75687 0.0
C94 C 0.59467 0.45511 0.73023 0.0
C95 C 0.54247 0.44409 0.77406 0.0
N96 N 0.56746 0.47028 0.77734 0.0
C97 C 0.51268 0.42793 0.78807 0.0
H98 H 0.61033 0.47814 0.72255 0.0
H99 H 0.57778 0.44227 0.71892 0.0
H100 H 0.60931 0.44461 0.73453 0.0
H101 H 0.50099 0.40365 0.78743 0.0
H102 H 0.4965 0.43625 0.78265 0.0
H103 H 0.51742 0.43209 0.80463 0.0
C104 C 0.54818 0.11267 0.7345 0.0
N105 N 0.56467 0.10461 0.74821 0.0
N106 N 0.52085 0.10706 0.744 0.0
C107 C 0.55853 0.12609 0.71186 0.0
C108 C 0.52097 0.09518 0.76385 0.0
N109 N 0.54747 0.0935 0.76641 0.0
C110 C 0.49551 0.08584 0.78089 0.0
H111 H 0.53809 0.1189 0.70203 0.0
H112 H 0.57511 0.1197 0.70543 0.0
H113 H 0.57019 0.15066 0.71083 0.0
H114 H 0.49141 0.06507 0.79071 0.0
H115 H 0.47328 0.08244 0.77417 0.0
H116 H 0.50311 0.10349 0.79127 0.0
C117 C 0.79128 0.58252 0.99399 0.0
N118 N 0.81452 0.59143 0.97884 0.0
N119 N 0.76553 0.58129 0.98543 0.0
C120 C 0.79272 0.57239 0.01675 0.0
C121 C 0.77376 0.58958 0.96459 0.0
N122 N 0.80346 0.59537 0.96054 0.0
C123 C 0.75337 0.59363 0.94843 0.0
H124 H 0.76894 0.55763 0.0245 0.0
H125 H 0.80469 0.59217 0.02513 0.0
H126 H 0.8064 0.56043 0.01818 0.0
H127 H 0.73591 0.59823 0.95579 0.0
H128 H 0.74061 0.57293 0.94111 0.0
H129 H 0.76776 0.61214 0.93584 0.0
C130 C 0.46985 0.24783 0.97457 0.0
N131 N 0.45868 0.22557 0.96234 0.0
N132 N 0.46094 0.26829 0.96791 0.0
C133 C 0.48904 0.24943 0.99322 0.0
C134 C 0.44389 0.25754 0.95121 0.0
N135 N 0.44247 0.23166 0.94786 0.0
C136 C 0.42781 0.27187 0.93847 0.0
H137 H 0.50459 0.27284 0.99575 0.0
H138 H 0.50355 0.23874 0.99126 0.0
H139 H 0.47295 0.23751 1.00748 0.0
H140 H 0.44406 0.28729 0.92506 0.0
H141 H 0.4213 0.28468 0.94816 0.0
H142 H 0.40643 0.25502 0.93197 0.0
C143 C 0.77711 0.25213 0.98154 0.0
N144 N 0.76471 0.22967 0.96946 0.0
N145 N 0.80353 0.27594 0.97173 0.0
C146 C 0.76222 0.25145 1.00228 0.0
C147 C 0.80659 0.26687 0.95322 0.0
N148 N 0.78289 0.2391 0.9517 0.0
C149 C 0.83439 0.28387 0.93746 0.0
H150 H 0.73639 0.23707 1.00288 0.0
H151 H 0.7678 0.27415 1.00502 0.0
H152 H 0.77139 0.24212 0.01511 0.0
H153 H 0.83934 0.26852 0.92956 0.0
H154 H 0.85567 0.29878 0.94513 0.0
H155 H 0.82913 0.2975 0.92522 0.0
C156 C 0.54754 0.77548 0.08459 0.0
N157 N 0.56006 0.79868 0.09598 0.0
N158 N 0.55712 0.75545 0.09105 0.0
C159 C 0.52792 0.77346 0.06615 0.0
C160 C 0.57592 0.76739 0.10677 0.0
N161 N 0.57792 0.79367 0.10963 0.0
C162 C 0.59086 0.75254 0.12024 0.0
H163 H 0.53053 0.7601 0.05478 0.0
H164 H 0.53454 0.79592 0.05794 0.0
H165 H 0.50292 0.76252 0.07196 0.0
H166 H 0.61483 0.76029 0.11333 0.0
H167 H 0.57716 0.72801 0.12095 0.0
H168 H 0.59285 0.75846 0.13647 0.0
C169 C 0.24528 0.79078 0.0821 0.0
N170 N 0.25792 0.8123 0.09493 0.0
N171 N 0.21803 0.76722 0.09109 0.0
C172 C 0.26061 0.79212 0.06134 0.0
C173 C 0.21472 0.77541 0.10993 0.0
N174 N 0.23905 0.80246 0.1124 0.0
C175 C 0.1863 0.75825 0.12516 0.0
H176 H 0.25276 0.80304 0.04869 0.0
H177 H 0.25406 0.76949 0.05781 0.0
H178 H 0.28651 0.8054 0.06135 0.0
H179 H 0.19049 0.7434 0.13701 0.0
H180 H 0.16512 0.74453 0.11693 0.0
H181 H 0.18181 0.77343 0.13363 0.0
C182 C 0.21912 0.44984 0.0682 0.0
N183 N 0.23554 0.44168 0.08191 0.0
N184 N 0.1922 0.44503 0.07784 0.0
C185 C 0.22914 0.46254 0.04541 0.0
C186 C 0.19247 0.43353 0.09777 0.0
N187 N 0.2187 0.43134 0.10026 0.0
C188 C 0.16729 0.42477 0.11491 0.0
H189 H 0.20853 0.45537 0.03575 0.0
H190 H 0.24527 0.45557 0.03905 0.0
H191 H 0.24124 0.48717 0.04401 0.0
H192 H 0.16297 0.40403 0.12487 0.0
H193 H 0.14506 0.42155 0.10828 0.0
H194 H 0.1753 0.44263 0.12512 0.0
C195 C 0.45525 0.91362 0.32679 0.0
N196 N 0.47783 0.92033 0.31165 0.0
N197 N 0.42981 0.91297 0.31803 0.0
C198 C 0.45873 0.90884 0.35006 0.0
C199 C 0.43766 0.9192 0.29703 0.0
N200 N 0.46684 0.92341 0.29315 0.0
C201 C 0.41748 0.92261 0.28039 0.0
H202 H 0.4687 0.89371 0.35329 0.0
H203 H 0.43634 0.8997 0.35958 0.0
H204 H 0.47537 0.93045 0.35521 0.0
H205 H 0.42714 0.94657 0.27457 0.0
H206 H 0.39282 0.91317 0.28651 0.0
H207 H 0.4176 0.91126 0.26683 0.0
C208 C 0.1387 0.58401 0.30725 0.0
N209 N 0.12751 0.56152 0.29524 0.0
N210 N 0.13015 0.60458 0.30016 0.0
C211 C 0.15751 0.58571 0.32613 0.0
C212 C 0.11329 0.59367 0.28342 0.0
N213 N 0.11164 0.56757 0.28047 0.0
C214 C 0.09756 0.60802 0.2703 0.0
H215 H 0.14115 0.57382 0.34028 0.0
H216 H 0.17296 0.60914 0.32867 0.0
H217 H 0.17209 0.57503 0.32445 0.0
H218 H 0.11407 0.62328 0.25695 0.0
H219 H 0.09098 0.62103 0.27974 0.0
H220 H 0.07627 0.59117 0.26372 0.0
C221 C 0.44486 0.58837 0.31294 0.0
N222 N 0.43363 0.56521 0.30147 0.0
N223 N 0.47439 0.60962 0.3056 0.0
C224 C 0.4278 0.58937 0.33208 0.0
C225 C 0.48054 0.59845 0.2892 0.0
N226 N 0.45603 0.57155 0.28678 0.0
C227 C 0.51003 0.61438 0.27489 0.0
H228 H 0.41288 0.5993 0.32703 0.0
H229 H 0.44453 0.6032 0.34309 0.0
H230 H 0.4124 0.56665 0.34038 0.0
H231 H 0.52704 0.60744 0.28092 0.0
H232 H 0.5208 0.63883 0.27437 0.0
H233 H 0.50517 0.60856 0.25867 0.0
Gd234 Gd 0.52888 0.0352 0.05435 0.0
Gd235 Gd 0.50042 0.99717 1.00748 0.0
C236 C 0.40666 0.91149 1.01057 0.0
C237 C 0.42308 0.87496 1.00644 0.0
C238 C 0.46191 0.92706 1.00577 0.0
C239 C 0.43837 0.93393 1.00907 0.0
C240 C 0.45452 0.89764 1.00389 0.0
C241 C 0.39919 0.88187 1.0098 0.0
C242 C 0.38341 0.91963 0.01213 0.0
C243 C 0.39204 0.94962 1.01135 0.0
N244 N 0.44641 0.96284 1.00944 0.0
C245 C 0.42382 0.97109 1.00972 0.0
H246 H 0.43011 0.99414 1.00928 0.0
C247 C 0.51567 0.94455 0.9972 0.0
N248 N 0.492 0.94954 1.00322 0.0
C249 C 0.50954 0.91569 0.99528 0.0
C250 C 0.47889 0.89206 0.99891 0.0
H251 H 0.53941 0.96276 0.9945 0.0
H252 H 0.37499 0.86428 1.01118 0.0
H253 H 0.59782 0.03546 0.05294 0.0
H254 H 0.35879 0.90306 0.01342 0.0
H255 H 0.37424 0.95621 0.01213 0.0
H256 H 0.41695 0.85214 1.00529 0.0
H257 H 0.49278 0.07217 0.06739 0.0
H258 H 0.6718 0.12549 0.04823 0.0
H259 H 0.65417 0.07179 0.05023 0.0
H260 H 0.61738 0.18022 0.05484 0.0
H261 H 0.52844 0.91169 0.99102 0.0
H262 H 0.47419 0.86975 0.99734 0.0
H263 H 0.65781 0.16594 0.04942 0.0
H264 H 0.50584 0.12405 0.07004 0.0
N265 N 0.58332 0.06815 0.05217 0.0
C266 C 0.64695 0.10961 0.04949 0.0
C267 C 0.63709 0.07932 0.05068 0.0
C268 C 0.62463 0.11897 0.05065 0.0
C269 C 0.59259 0.09737 0.05225 0.0
C270 C 0.60501 0.05875 0.05222 0.0
N271 N 0.5396 0.08362 0.05844 0.0
C272 C 0.56995 0.10539 0.05542 0.0
C273 C 0.52408 0.11912 0.06584 0.0
C274 C 0.55505 0.142 0.06176 0.0
C275 C 0.51679 0.08981 0.06443 0.0
C276 C 0.57855 0.13523 0.05686 0.0
H277 H 0.56068 0.16467 0.06298 0.0
O278 O 0.51052 0.03058 0.0863 0.0
O279 O 0.49008 0.99754 0.04119 0.0
O280 O 0.48495 0.03198 1.00937 0.0
O281 O 0.52061 0.06559 0.03013 0.0
O282 O 0.47684 0.01749 0.06182 0.0
O283 O 0.54599 0.0181 0.08061 0.0
O284 O 0.52392 1.00746 0.97648 0.0
O285 O 0.53849 0.03545 0.02062 0.0
O286 O 0.54292 0.99914 0.05237 0.0
O287 O 0.5065 0.96593 0.03185 0.0
O288 O 0.55293 0.01578 1.00063 0.0
O289 O 0.4799 1.00762 0.97993 0.0
C290 C 0.46648 0.99621 0.05038 0.0
C291 C 0.61031 0.15711 0.05403 0.0
C292 C 0.63333 0.14898 0.05095 0.0
C293 C 0.52935 0.02174 0.0947 0.0
C294 C 0.54614 0.0363 0.11258 0.0
C295 C 0.56968 0.06618 0.10969 0.0
C296 C 0.53877 0.01998 0.13276 0.0
C297 C 0.55468 0.03345 0.15011 0.0
C298 C 0.5857 0.07964 0.12676 0.0
C299 C 0.57828 0.06345 0.14687 0.0
C300 C 0.49928 0.05854 0.01593 0.0
C301 C 0.56253 0.03746 0.01167 0.0
C302 C 0.5015 1.00954 0.96684 0.0
C303 C 0.49083 0.99297 0.94869 0.0
C304 C 0.46803 0.96284 0.95149 0.0
C305 C 0.50472 1.00709 0.92846 0.0
C306 C 0.49616 0.99113 0.91102 0.0
C307 C 0.45971 0.94675 0.93443 0.0
C308 C 0.47376 0.96066 0.91436 0.0
C309 C 0.52756 0.97238 0.04613 0.0
H310 H 0.5757 0.07908 0.09432 0.0
H311 H 0.52029 0.99697 0.135 0.0
H312 H 0.60391 0.10271 0.1244 0.0
H313 H 0.59114 0.07434 0.15986 0.0
H314 H 0.45678 0.95168 0.96683 0.0
H315 H 0.52187 0.03055 0.92634 0.0
H316 H 0.44235 0.92339 0.93677 0.0
H317 H 0.46711 0.94745 0.90148 0.0
Gd318 Gd 0.98733 0.51688 0.05354 0.0
Gd319 Gd 0.03081 0.53499 1.00114 0.0
C320 C 0.11246 0.51707 0.99165 0.0
C321 C 0.15653 0.56706 0.98342 0.0
C322 C 0.104 0.55942 0.99019 0.0
C323 C 0.09233 0.52909 0.99366 0.0
C324 C 0.13604 0.57875 0.9843 0.0
C325 C 0.14475 0.53625 0.98715 0.0
C326 C 0.09938 0.48617 0.99354 0.0
C327 C 0.0669 0.46819 0.99645 0.0
N328 N 0.06098 0.51129 0.9977 0.0
C329 C 0.04791 0.48121 0.99818 0.0
H330 H 0.0229 0.46694 1.00054 0.0
C331 C 0.09287 0.59903 0.98403 0.0
N332 N 0.08347 0.56983 0.99086 0.0
C333 C 0.12443 0.61912 0.97806 0.0
C334 C 0.14623 0.60903 0.97859 0.0
H335 H 0.07611 0.60694 0.98375 0.0
H336 H 0.16064 0.52744 0.98581 0.0
H337 H 0.99298 0.58418 0.05252 0.0
H338 H 0.11402 0.47603 0.99221 0.0
H339 H 0.05646 0.44429 0.99747 0.0
H340 H 0.1813 0.58157 0.97919 0.0
H341 H 0.94422 0.44545 0.07319 0.0
H342 H 0.9005 0.57262 0.0591 0.0
H343 H 0.95792 0.60561 0.05402 0.0
H344 H 0.83609 0.46692 0.07502 0.0
H345 H 0.13191 0.64236 0.97316 0.0
H346 H 0.17064 0.6246 0.97391 0.0
H347 H 0.855 0.52062 0.06659 0.0
H348 H 0.88883 0.40919 0.08435 0.0
N349 N 0.95583 0.53939 0.05593 0.0
C350 C 0.9158 0.56305 0.05842 0.0
C351 C 0.94819 0.58174 0.05563 0.0
C352 C 0.90365 0.53222 0.06117 0.0
C353 C 0.92459 0.52096 0.05999 0.0
C354 C 0.96801 0.56945 0.05479 0.0
N355 N 0.93521 0.48128 0.06451 0.0
C356 C 0.91392 0.49085 0.06448 0.0
C357 C 0.89552 0.43205 0.07863 0.0
C358 C 0.87291 0.44116 0.07736 0.0
C359 C 0.92683 0.45261 0.07233 0.0
C360 C 0.88207 0.47101 0.0706 0.0
H361 H 0.84868 0.42522 0.08228 0.0
O362 O 0.99721 0.49826 0.08286 0.0
O363 O 0.02543 0.51729 0.03482 0.0
O364 O 0.98908 0.48745 1.00614 0.0
O365 O 0.9542 0.48326 0.03321 0.0
O366 O 1.00013 0.48036 0.05694 0.0
O367 O 1.00157 0.54191 0.08026 0.0
O368 O 0.02491 0.55581 0.9713 0.0
O369 O 0.99261 0.53477 0.01971 0.0
O370 O 0.0286 0.56444 0.0484 0.0
O371 O 0.06398 0.56733 0.02233 0.0
O372 O 0.01882 0.57193 0.99799 0.0
O373 O 0.01302 0.50959 0.97488 0.0
C374 C 0.02328 0.49306 0.04289 0.0
C375 C 0.86075 0.48185 0.07064 0.0
C376 C 0.87152 0.51242 0.06586 0.0
C377 C 1.00283 0.52078 0.09262 0.0
C378 C 0.98789 0.51347 0.11408 0.0
C379 C 0.9553 0.50083 0.11714 0.0
C380 C 0.00621 0.51843 0.1317 0.0
C381 C 0.992 0.51058 0.15238 0.0
C382 C 0.94103 0.49271 0.13745 0.0
C383 C 0.95909 0.49734 0.15491 0.0
C384 C 0.96112 0.47347 0.01678 0.0
C385 C 0.99522 0.55925 0.01168 0.0
C386 C 0.01591 0.53224 0.96197 0.0
C387 C 0.03114 0.53686 0.94096 0.0
C388 C 0.06369 0.54868 0.93842 0.0
C389 C 0.01307 0.5292 0.9233 0.0
C390 C 0.0275 0.53315 0.9032 0.0
C391 C 0.07815 0.55298 0.91859 0.0
C392 C 0.06027 0.54531 0.9011 0.0
C393 C 0.057 0.57751 0.0385 0.0
H394 H 0.94086 0.49707 0.10387 0.0
H395 H 0.03145 0.52868 0.12923 0.0
H396 H 0.9158 0.48264 0.13968 0.0
H397 H 0.94712 0.49025 0.17044 0.0
H398 H 0.07797 0.5546 0.95172 0.0
H399 H 0.98784 0.51968 0.92529 0.0
H400 H 0.10332 0.56226 0.91677 0.0
H401 H 0.07217 0.54907 0.88587 0.0
Gd402 Gd 0.49255 0.51767 1.00792 0.0
Gd403 Gd 0.5093 0.49488 0.06199 0.0
C404 C 0.60378 0.50234 0.07798 0.0
C405 C 0.59048 0.45049 0.08569 0.0
C406 C 0.55027 0.46359 0.07612 0.0
C407 C 0.57227 0.49335 0.07391 0.0
C408 C 0.55889 0.44178 0.08261 0.0
C409 C 0.61292 0.48075 0.08334 0.0
C410 C 0.6249 0.53273 0.07717 0.0
C411 C 0.61412 0.55315 0.0732 0.0
N412 N 0.5625 0.51354 0.06893 0.0
C413 C 0.58259 0.54308 0.06942 0.0
H414 H 0.57472 0.55917 0.06626 0.0
C415 C 0.4967 0.42725 0.07824 0.0
N416 N 0.51998 0.45607 0.07331 0.0
C417 C 0.50404 0.40477 0.08466 0.0
C418 C 0.53534 0.41201 0.08655 0.0
H419 H 0.47247 0.42147 0.0767 0.0
H420 H 0.63707 0.48721 0.0863 0.0
H421 H 0.42722 0.45319 1.00427 0.0
H422 H 0.64932 0.54058 0.08011 0.0
H423 H 0.6301 0.57667 0.07296 0.0
H424 H 0.59765 0.43406 0.09046 0.0
H425 H 0.52854 0.59093 0.9926 0.0
H426 H 0.35106 0.47093 0.99473 0.0
H427 H 0.37109 0.43523 0.99964 0.0
H428 H 0.40189 0.57743 0.98471 0.0
H429 H 0.48559 0.38189 0.08808 0.0
H430 H 0.54098 0.39458 0.09158 0.0
H431 H 0.36273 0.52417 0.98952 0.0
H432 H 0.51446 0.63032 0.98283 0.0
N433 N 0.43892 0.4986 1.00252 0.0
C434 C 0.37577 0.47896 0.99674 0.0
C435 C 0.38701 0.45876 0.99943 0.0
C436 C 0.3968 0.50939 0.99583 0.0
C437 C 0.42869 0.51862 0.9986 0.0
C438 C 0.41891 0.46906 1.00203 0.0
N439 N 0.48119 0.55621 0.99742 0.0
C440 C 0.45058 0.54845 0.99591 0.0
C441 C 0.49625 0.60739 0.98657 0.0
C442 C 0.46471 0.59993 0.98603 0.0
C443 C 0.50414 0.58506 0.99204 0.0
C444 C 0.44141 0.57009 0.99038 0.0
H445 H 0.45864 0.61724 0.98172 0.0
O446 O 0.52358 0.53735 0.97937 0.0
O447 O 0.52668 0.51414 0.02889 0.0
O448 O 0.52162 0.54379 0.0564 0.0
O449 O 0.49184 0.54905 0.02935 0.0
O450 O 0.54396 0.55174 1.0069 0.0
O451 O 0.48361 0.49342 0.98088 0.0
O452 O 0.47839 0.47528 0.09058 0.0
O453 O 0.47494 0.4981 0.04103 0.0
O454 O 0.48152 0.46924 0.01303 0.0
O455 O 0.51069 0.46373 0.04046 0.0
O456 O 0.45826 0.46028 0.06255 0.0
O457 O 0.51655 0.52036 0.08813 0.0
C458 C 0.55115 0.53764 0.0218 0.0
C459 C 0.40948 0.56114 0.98871 0.0
C460 C 0.38718 0.53082 0.99146 0.0
C461 C 0.50721 0.51498 0.96911 0.0
C462 C 0.50096 0.52244 0.94728 0.0
C463 C 0.48233 0.53598 0.94369 0.0
C464 C 0.51368 0.51626 0.92988 0.0
C465 C 0.50749 0.52341 0.90903 0.0
C466 C 0.47652 0.54347 0.92323 0.0
C467 C 0.48896 0.53734 0.90607 0.0
C468 C 0.50872 0.55833 0.04582 0.0
C469 C 0.45061 0.47423 0.04785 0.0
C470 C 0.49388 0.49844 0.10031 0.0
C471 C 0.50137 0.49266 0.12209 0.0
C472 C 0.51879 0.47792 0.12612 0.0
C473 C 0.49154 0.50215 0.13898 0.0
C474 C 0.49948 0.49721 0.15972 0.0
C475 C 0.52634 0.47265 0.14655 0.0
C476 C 0.51685 0.4822 0.16321 0.0
C477 C 0.49474 0.45495 0.02351 0.0
H478 H 0.47232 0.54084 0.95673 0.0
H479 H 0.52783 0.50551 0.93262 0.0
H480 H 0.46228 0.55413 0.92063 0.0
H481 H 0.48421 0.54377 0.89039 0.0
H482 H 0.52656 0.47048 0.11347 0.0
H483 H 0.47835 0.51382 0.13592 0.0
H484 H 0.5397 0.46115 0.14949 0.0
H485 H 0.52295 0.47763 0.17893 0.0
Gd486 Gd 0.19744 0.36968 0.38734 0.0
Gd487 Gd 0.16677 0.33314 0.34023 0.0
C488 C 0.07328 0.24737 0.34247 0.0
C489 C 0.08978 0.21205 0.33474 0.0
C490 C 0.12848 0.26376 0.336 0.0
C491 C 0.10493 0.26994 0.34097 0.0
C492 C 0.12113 0.23494 0.33226 0.0
C493 C 0.0659 0.21825 0.33987 0.0
C494 C 0.04996 0.25494 0.34588 0.0
C495 C 0.05842 0.28458 0.34692 0.0
N496 N 0.11285 0.29843 0.34301 0.0
C497 C 0.09012 0.30622 0.34512 0.0
H498 H 0.09628 0.32901 0.346 0.0
C499 C 0.18197 0.28238 0.3258 0.0
N500 N 0.15846 0.28643 0.33353 0.0
C501 C 0.17587 0.25416 0.32194 0.0
C502 C 0.14538 0.23023 0.32547 0.0
H503 H 0.20558 0.3008 0.32312 0.0
H504 H 0.04175 0.20056 0.34119 0.0
H505 H 0.26645 0.37064 0.38194 0.0
H506 H 0.02538 0.23824 0.34722 0.0
H507 H 0.04055 0.29076 0.34916 0.0
H508 H 0.08368 0.18968 0.33216 0.0
H509 H 0.16135 0.40545 0.40277 0.0
H510 H 0.34032 0.46026 0.38016 0.0
H511 H 0.32272 0.40709 0.37881 0.0
H512 H 0.28605 0.5134 0.39302 0.0
H513 H 0.19466 0.25088 0.31627 0.0
H514 H 0.14069 0.20841 0.3224 0.0
H515 H 0.32638 0.49988 0.38517 0.0
H516 H 0.1745 0.4566 0.40792 0.0
N517 N 0.25187 0.40276 0.38457 0.0
C518 C 0.31549 0.44431 0.3816 0.0
C519 C 0.30565 0.41432 0.38086 0.0
C520 C 0.29319 0.45324 0.3847 0.0
C521 C 0.26115 0.43161 0.38632 0.0
C522 C 0.2736 0.39367 0.38265 0.0
N523 N 0.20818 0.41744 0.39335 0.0
C524 C 0.23855 0.43922 0.39077 0.0
C525 C 0.19273 0.45204 0.40302 0.0
C526 C 0.22374 0.475 0.3995 0.0
C527 C 0.18538 0.42313 0.40016 0.0
C528 C 0.2472 0.46866 0.39363 0.0
H529 H 0.2294 0.49735 0.40181 0.0
O530 O 0.17984 0.36304 0.41981 0.0
O531 O 0.15796 0.33198 0.37452 0.0
O532 O 0.15114 0.36732 0.34418 0.0
O533 O 0.18804 0.40065 0.36448 0.0
O534 O 0.14579 0.35174 0.39601 0.0
O535 O 0.21624 0.35243 0.41238 0.0
O536 O 0.18889 0.34565 0.30858 0.0
O537 O 0.20552 0.3712 0.35316 0.0
O538 O 0.21153 0.33419 0.38358 0.0
O539 O 0.17515 0.30142 0.36273 0.0
O540 O 0.21893 0.35224 0.33189 0.0
O541 O 0.1443 0.34402 0.31405 0.0
C542 C 0.13483 0.33043 0.3846 0.0
C543 C 0.27895 0.49059 0.39109 0.0
C544 C 0.30192 0.48289 0.38663 0.0
C545 C 0.19944 0.35456 0.42721 0.0
C546 C 0.21612 0.36797 0.44547 0.0
C547 C 0.24154 0.39697 0.44315 0.0
C548 C 0.2067 0.35123 0.46549 0.0
C549 C 0.22239 0.36332 0.4833 0.0
C550 C 0.25734 0.40912 0.46067 0.0
C551 C 0.24788 0.39247 0.48064 0.0
C552 C 0.16598 0.39379 0.35081 0.0
C553 C 0.22911 0.37363 0.34322 0.0
C554 C 0.16544 0.34708 0.30004 0.0
C555 C 0.15415 0.33097 0.28171 0.0
C556 C 0.12958 0.30153 0.28414 0.0
C557 C 0.16929 0.34467 0.26169 0.0
C558 C 0.16028 0.32896 0.24414 0.0
C559 C 0.12081 0.28565 0.26698 0.0
C560 C 0.13614 0.29911 0.24716 0.0
C561 C 0.19657 0.30779 0.37678 0.0
H562 H 0.24924 0.41017 0.42789 0.0
H563 H 0.1873 0.32865 0.46714 0.0
H564 H 0.2769 0.43156 0.45878 0.0
H565 H 0.26017 0.4026 0.49403 0.0
H566 H 0.11726 0.29073 0.29927 0.0
H567 H 0.1878 0.36765 0.25984 0.0
H568 H 0.1021 0.26279 0.26907 0.0
H569 H 0.12907 0.28602 0.23422 0.0
Gd570 Gd 0.65524 0.85188 0.38619 0.0
Gd571 Gd 0.69961 0.87088 0.33405 0.0
C572 C 0.78466 0.85784 0.32509 0.0
C573 C 0.82716 0.90877 0.31769 0.0
C574 C 0.77353 0.89857 0.32373 0.0
C575 C 0.76325 0.86845 0.32691 0.0
C576 C 0.80548 0.91909 0.31851 0.0
C577 C 0.81677 0.87817 0.321 0.0
C578 C 0.77306 0.82712 0.32687 0.0
C579 C 0.74076 0.80795 0.3296 0.0
N580 N 0.73206 0.84949 0.33071 0.0
C581 C 0.72047 0.81959 0.33122 0.0
H582 H 0.69563 0.80443 0.33349 0.0
C583 C 0.76022 0.93682 0.31837 0.0
N584 N 0.75189 0.90766 0.32439 0.0
C585 C 0.79165 0.95807 0.3132 0.0
C586 C 0.81447 0.94924 0.31358 0.0
H587 H 0.74268 0.94377 0.31817 0.0
H588 H 0.83362 0.87045 0.31979 0.0
H589 H 0.65878 0.91832 0.38554 0.0
H590 H 0.78872 0.81805 0.32566 0.0
H591 H 0.73147 0.78417 0.33059 0.0
H592 H 0.85187 0.9242 0.31393 0.0
H593 H 0.6129 0.77941 0.40348 0.0
H594 H 0.56537 0.90423 0.39244 0.0
H595 H 0.62257 0.93838 0.38738 0.0
H596 H 0.503 0.79811 0.4064 0.0
H597 H 0.79826 0.98124 0.30897 0.0
H598 H 0.83879 0.96572 0.30948 0.0
H599 H 0.52078 0.85171 0.39926 0.0
H600 H 0.55746 0.74184 0.41319 0.0
N601 N 0.62258 0.87313 0.38891 0.0
C602 C 0.58119 0.89526 0.39166 0.0
C603 C 0.61346 0.91459 0.38887 0.0
C604 C 0.56982 0.86455 0.39412 0.0
C605 C 0.59143 0.85406 0.39282 0.0
C606 C 0.63396 0.90307 0.38785 0.0
N607 N 0.60323 0.81511 0.39643 0.0
C608 C 0.58142 0.82403 0.39671 0.0
C609 C 0.56385 0.76486 0.40848 0.0
C610 C 0.54084 0.77346 0.40774 0.0
C611 C 0.59519 0.78617 0.40304 0.0
C612 C 0.54955 0.80345 0.40215 0.0
H613 H 0.51659 0.75694 0.41203 0.0
O614 O 0.66344 0.83262 0.41588 0.0
O615 O 0.69409 0.85334 0.36772 0.0
O616 O 0.65948 0.82248 0.33947 0.0
O617 O 0.62318 0.81898 0.36511 0.0
O618 O 0.66998 0.81657 0.39003 0.0
O619 O 0.67047 0.87738 0.41258 0.0
O620 O 0.69291 0.89077 0.30411 0.0
O621 O 0.66056 0.86951 0.35236 0.0
O622 O 0.69526 0.90012 0.38085 0.0
O623 O 0.73169 0.903 0.35566 0.0
O624 O 0.68564 0.90655 0.33039 0.0
O625 O 0.68322 0.84512 0.30785 0.0
C626 C 0.6931 0.82974 0.37598 0.0
C627 C 0.52766 0.81359 0.40248 0.0
C628 C 0.53778 0.84411 0.39843 0.0
C629 C 0.67032 0.85576 0.42528 0.0
C630 C 0.65549 0.84968 0.44662 0.0
C631 C 0.62377 0.84155 0.44947 0.0
C632 C 0.67306 0.85148 0.46435 0.0
C633 C 0.65899 0.84507 0.48493 0.0
C634 C 0.60969 0.83525 0.46972 0.0
C635 C 0.62706 0.83698 0.48731 0.0
C636 C 0.63103 0.80866 0.34945 0.0
C637 C 0.66215 0.89346 0.34415 0.0
C638 C 0.68506 0.86728 0.29488 0.0
C639 C 0.70051 0.87244 0.27388 0.0
C640 C 0.7332 0.88541 0.2713 0.0
C641 C 0.68248 0.86432 0.25625 0.0
C642 C 0.69707 0.86893 0.2361 0.0
C643 C 0.74781 0.89032 0.25142 0.0
C644 C 0.72996 0.88217 0.23394 0.0
C645 C 0.72392 0.91341 0.37131 0.0
H646 H 0.60993 0.84009 0.43605 0.0
H647 H 0.69752 0.8575 0.46209 0.0
H648 H 0.58521 0.82909 0.47181 0.0
H649 H 0.61556 0.83244 0.50281 0.0
H650 H 0.74743 0.89177 0.28462 0.0
H651 H 0.65717 0.85397 0.25829 0.0
H652 H 0.77308 0.90047 0.24954 0.0
H653 H 0.74197 0.88644 0.21866 0.0
Gd654 Gd 0.1588 0.85329 0.33966 0.0
Gd655 Gd 0.17388 0.8293 0.39385 0.0
C656 C 0.26827 0.83742 0.41079 0.0
C657 C 0.2556 0.78567 0.41778 0.0
C658 C 0.21513 0.7984 0.40819 0.0
C659 C 0.23685 0.82822 0.40637 0.0
C660 C 0.22402 0.77673 0.41448 0.0
C661 C 0.27773 0.816 0.4159 0.0
C662 C 0.28892 0.86777 0.41073 0.0
C663 C 0.27768 0.8879 0.40726 0.0
N664 N 0.22676 0.84821 0.40166 0.0
C665 C 0.24625 0.87762 0.40303 0.0
H666 H 0.23798 0.89346 0.40022 0.0
C667 C 0.16178 0.76166 0.40956 0.0
N668 N 0.18484 0.79065 0.40512 0.0
C669 C 0.16939 0.73931 0.41581 0.0
C670 C 0.20072 0.74683 0.41796 0.0
H671 H 0.13753 0.75563 0.4078 0.0
H672 H 0.30184 0.82263 0.41911 0.0
H673 H 0.0946 0.78823 0.33535 0.0
H674 H 0.31326 0.87578 0.414 0.0
H675 H 0.29323 0.91135 0.4077 0.0
H676 H 0.26298 0.76936 0.42239 0.0
H677 H 0.19387 0.92677 0.32539 0.0
H678 H 0.01781 0.80444 0.3237 0.0
H679 H 0.03857 0.76941 0.32973 0.0
H680 H 0.06687 0.91087 0.3139 0.0
H681 H 0.15112 0.71632 0.41887 0.0
H682 H 0.20656 0.7295 0.42284 0.0
H683 H 0.02854 0.8574 0.31805 0.0
H684 H 0.17906 0.96551 0.31509 0.0
N685 N 0.10541 0.83344 0.33321 0.0
C686 C 0.04245 0.81284 0.32619 0.0
C687 C 0.0541 0.79301 0.32952 0.0
C688 C 0.06298 0.84337 0.32535 0.0
C689 C 0.0948 0.85309 0.32881 0.0
C690 C 0.08593 0.8038 0.33268 0.0
N691 N 0.1468 0.89134 0.32896 0.0
C692 C 0.11622 0.88306 0.32657 0.0
C693 C 0.16113 0.94241 0.31838 0.0
C694 C 0.12954 0.93437 0.31693 0.0
C695 C 0.16944 0.92044 0.32417 0.0
C696 C 0.10665 0.90433 0.32071 0.0
H697 H 0.12316 0.95141 0.31238 0.0
O698 O 0.19183 0.8734 0.31214 0.0
O699 O 0.19252 0.85013 0.36119 0.0
O700 O 0.18496 0.87784 0.38902 0.0
O701 O 0.1564 0.88371 0.36131 0.0
O702 O 0.20961 0.88843 0.33988 0.0
O703 O 0.15086 0.83052 0.31186 0.0
O704 O 0.14087 0.80907 0.42135 0.0
O705 O 0.13986 0.83237 0.3724 0.0
O706 O 0.1491 0.80525 0.34424 0.0
O707 O 0.17772 0.79971 0.37202 0.0
O708 O 0.12356 0.79377 0.39313 0.0
O709 O 0.18035 0.85317 0.42087 0.0
C710 C 0.21672 0.87433 0.35483 0.0
C711 C 0.07476 0.89487 0.31819 0.0
C712 C 0.05295 0.86442 0.32055 0.0
C713 C 0.17568 0.85199 0.30105 0.0
C714 C 0.17179 0.86117 0.279 0.0
C715 C 0.15673 0.87809 0.27484 0.0
C716 C 0.18393 0.85381 0.26196 0.0
C717 C 0.18115 0.86354 0.24083 0.0
C718 C 0.1542 0.88805 0.25417 0.0
C719 C 0.16642 0.88108 0.23735 0.0
C720 C 0.17218 0.89239 0.37831 0.0
C721 C 0.11581 0.80789 0.37862 0.0
C722 C 0.15614 0.83132 0.43194 0.0
C723 C 0.16064 0.82375 0.45414 0.0
C724 C 0.17526 0.80659 0.45924 0.0
C725 C 0.14952 0.83309 0.47044 0.0
C726 C 0.15248 0.8248 0.49178 0.0
C727 C 0.17841 0.79847 0.48026 0.0
C728 C 0.16703 0.80735 0.49641 0.0
C729 C 0.16253 0.79121 0.35476 0.0
H730 H 0.14718 0.88389 0.28758 0.0
H731 H 0.19517 0.84036 0.2652 0.0
H732 H 0.14287 0.90145 0.25114 0.0
H733 H 0.16456 0.88983 0.22156 0.0
H734 H 0.18407 0.79932 0.447 0.0
H735 H 0.13813 0.84629 0.46653 0.0
H736 H 0.18972 0.7852 0.48407 0.0
H737 H 0.17007 0.80093 0.51257 0.0
Gd738 Gd 0.86064 0.70104 0.71921 0.0
Gd739 Gd 0.83166 0.66377 0.67218 0.0
C740 C 0.73789 0.57845 0.67405 0.0
C741 C 0.75424 0.54229 0.66843 0.0
C742 C 0.79315 0.59409 0.66905 0.0
C743 C 0.76961 0.60083 0.67281 0.0
C744 C 0.78571 0.5649 0.66631 0.0
C745 C 0.73038 0.54905 0.67232 0.0
C746 C 0.71467 0.58644 0.67649 0.0
C747 C 0.72332 0.61623 0.67695 0.0
N748 N 0.77767 0.62953 0.67419 0.0
C749 C 0.75509 0.63767 0.67548 0.0
H750 H 0.7614 0.66058 0.67593 0.0
C751 C 0.84696 0.61174 0.66055 0.0
N752 N 0.82329 0.61649 0.66694 0.0
C753 C 0.84078 0.58312 0.65779 0.0
C754 C 0.81007 0.55951 0.66094 0.0
H755 H 0.87074 0.62993 0.65815 0.0
H756 H 0.70616 0.53151 0.67345 0.0
H757 H 0.92985 0.70195 0.71669 0.0
H758 H 0.69004 0.56989 0.67762 0.0
H759 H 0.70554 0.62271 0.6785 0.0
H760 H 0.74807 0.51966 0.66659 0.0
H761 H 0.82417 0.73701 0.73364 0.0
H762 H 1.00335 0.79207 0.71296 0.0
H763 H 0.98611 0.73856 0.71395 0.0
H764 H 0.94831 0.84565 0.72194 0.0
H765 H 0.85968 0.57928 0.65322 0.0
H766 H 0.80533 0.53738 0.65871 0.0
H767 H 0.98898 0.83203 0.71545 0.0
H768 H 0.8369 0.78846 0.73751 0.0
N769 N 0.91501 0.73429 0.71689 0.0
C770 C 0.97855 0.77606 0.71423 0.0
C771 C 0.9689 0.74588 0.71485 0.0
C772 C 0.95606 0.78511 0.71598 0.0
C773 C 0.92407 0.76336 0.71755 0.0
C774 C 0.93688 0.72514 0.71641 0.0
N775 N 0.87103 0.74906 0.72425 0.0
C776 C 0.90131 0.77101 0.72131 0.0
C777 C 0.85523 0.78388 0.73287 0.0
C778 C 0.88611 0.80698 0.72891 0.0
C779 C 0.84811 0.7548 0.73075 0.0
C780 C 0.90971 0.80063 0.72341 0.0
H781 H 0.89159 0.82946 0.73065 0.0
O782 O 0.84257 0.6954 0.7514 0.0
O783 O 0.82163 0.66335 0.70613 0.0
O784 O 0.81629 0.69852 0.67462 0.0
O785 O 0.85192 0.73174 0.6956 0.0
O786 O 0.80875 0.68316 0.72709 0.0
O787 O 0.87852 0.68382 0.74489 0.0
O788 O 0.85549 0.67576 0.64114 0.0
O789 O 0.86986 0.70196 0.68532 0.0
O790 O 0.87492 0.66536 0.71643 0.0
O791 O 0.83841 0.63225 0.69588 0.0
O792 O 0.88409 0.68238 0.66506 0.0
O793 O 0.81023 0.67342 0.64482 0.0
C794 C 0.79816 0.66184 0.71569 0.0
C795 C 0.9414 0.8227 0.72063 0.0
C796 C 0.96455 0.81494 0.71693 0.0
C797 C 0.86177 0.68673 0.75933 0.0
C798 C 0.87846 0.70069 0.77741 0.0
C799 C 0.90272 0.73026 0.77492 0.0
C800 C 0.87027 0.68391 0.79741 0.0
C801 C 0.88603 0.69653 0.81505 0.0
C802 C 0.91864 0.74292 0.79227 0.0
C803 C 0.9104 0.72623 0.81224 0.0
C804 C 0.83057 0.72491 0.68142 0.0
C805 C 0.89379 0.70399 0.67618 0.0
C806 C 0.83242 0.67669 0.63163 0.0
C807 C 0.82285 0.66049 0.61325 0.0
C808 C 0.79973 0.63048 0.61539 0.0
C809 C 0.83849 0.67485 0.59348 0.0
C810 C 0.83158 0.65927 0.57586 0.0
C811 C 0.79291 0.61477 0.59815 0.0
C812 C 0.80883 0.62891 0.57856 0.0
C813 C 0.85964 0.6387 0.71004 0.0
H814 H 0.9094 0.74352 0.75966 0.0
H815 H 0.85177 0.66092 0.79918 0.0
H816 H 0.93731 0.7658 0.79026 0.0
H817 H 0.92269 0.73674 0.82551 0.0
H818 H 0.78709 0.61914 0.63036 0.0
H819 H 0.85579 0.69824 0.59188 0.0
H820 H 0.77532 0.59149 0.6 0.0
H821 H 0.80334 0.61597 0.56556 0.0
Gd822 Gd 0.31804 0.18196 0.72055 0.0
Gd823 Gd 0.36179 0.20055 0.66821 0.0
C824 C 0.44396 0.1837 0.65793 0.0
C825 C 0.4879 0.23393 0.65074 0.0
C826 C 0.43514 0.22575 0.65741 0.0
C827 C 0.42363 0.19542 0.66023 0.0
C828 C 0.46728 0.24539 0.65206 0.0
C829 C 0.47626 0.20311 0.6537 0.0
C830 C 0.43111 0.15285 0.65937 0.0
C831 C 0.39866 0.13464 0.66224 0.0
N832 N 0.39229 0.17736 0.66418 0.0
C833 C 0.37946 0.14736 0.66433 0.0
H834 H 0.35447 0.13293 0.66666 0.0
C835 C 0.42401 0.26547 0.65288 0.0
N836 N 0.41452 0.23599 0.65857 0.0
C837 C 0.45568 0.28587 0.64759 0.0
C838 C 0.4775 0.27584 0.64748 0.0
H839 H 0.40723 0.27333 0.65303 0.0
H840 H 0.4923 0.19453 0.65212 0.0
H841 H 0.32245 0.24872 0.7197 0.0
H842 H 0.44592 0.14294 0.65778 0.0
H843 H 0.3884 0.11079 0.66296 0.0
H844 H 0.51274 0.24866 0.64688 0.0
H845 H 0.27582 0.11035 0.74011 0.0
H846 H 0.22943 0.23573 0.72653 0.0
H847 H 0.28672 0.26939 0.72137 0.0
H848 H 0.16642 0.12986 0.74233 0.0
H849 H 0.46322 0.30928 0.64362 0.0
H850 H 0.502 0.29165 0.6433 0.0
H851 H 0.1845 0.18342 0.73401 0.0
H852 H 0.22065 0.07348 0.75126 0.0
N853 N 0.28583 0.20371 0.72312 0.0
C854 C 0.24502 0.2265 0.72578 0.0
C855 C 0.27734 0.24556 0.72294 0.0
C856 C 0.23334 0.19574 0.72848 0.0
C857 C 0.25467 0.18492 0.72721 0.0
C858 C 0.29755 0.23371 0.72202 0.0
N859 N 0.26613 0.14579 0.73161 0.0
C860 C 0.24447 0.15491 0.73165 0.0
C861 C 0.22698 0.09627 0.74563 0.0
C862 C 0.20402 0.10494 0.74447 0.0
C863 C 0.25819 0.11719 0.73931 0.0
C864 C 0.21271 0.1347 0.73779 0.0
H865 H 0.17988 0.08872 0.74939 0.0
O866 O 0.32861 0.16383 0.7498 0.0
O867 O 0.35611 0.18239 0.70178 0.0
O868 O 0.32024 0.15293 0.67303 0.0
O869 O 0.28513 0.14841 0.70008 0.0
O870 O 0.33101 0.14552 0.72395 0.0
O871 O 0.3323 0.20721 0.74717 0.0
O872 O 0.3555 0.2217 0.63871 0.0
O873 O 0.3233 0.19995 0.68672 0.0
O874 O 0.35874 0.22984 0.71509 0.0
O875 O 0.39473 0.23178 0.69001 0.0
O876 O 0.34955 0.23734 0.66518 0.0
O877 O 0.3451 0.17588 0.64147 0.0
C878 C 0.35398 0.15816 0.70978 0.0
C879 C 0.19101 0.14508 0.73793 0.0
C880 C 0.20131 0.17558 0.73321 0.0
C881 C 0.33398 0.1863 0.75953 0.0
C882 C 0.3191 0.17889 0.78103 0.0
C883 C 0.2865 0.16608 0.78414 0.0
C884 C 0.33748 0.18388 0.79863 0.0
C885 C 0.3233 0.17592 0.81933 0.0
C886 C 0.27227 0.15783 0.80446 0.0
C887 C 0.29038 0.16251 0.8219 0.0
C888 C 0.29223 0.1388 0.68361 0.0
C889 C 0.32581 0.22441 0.67875 0.0
C890 C 0.34717 0.19854 0.629 0.0
C891 C 0.36211 0.20421 0.60773 0.0
C892 C 0.39483 0.21875 0.60449 0.0
C893 C 0.34348 0.19547 0.59042 0.0
C894 C 0.35745 0.20141 0.56985 0.0
C895 C 0.40886 0.22485 0.58425 0.0
C896 C 0.39043 0.21641 0.56705 0.0
C897 C 0.38739 0.24258 0.70561 0.0
H898 H 0.27202 0.16226 0.77088 0.0
H899 H 0.36273 0.19425 0.79613 0.0
H900 H 0.24703 0.14763 0.80672 0.0
H901 H 0.27843 0.15532 0.83744 0.0
H902 H 0.40955 0.2256 0.61755 0.0
H903 H 0.31817 0.1838 0.59306 0.0
H904 H 0.43416 0.23633 0.58186 0.0
H905 H 0.40211 0.22198 0.55151 0.0
Gd906 Gd 0.8236 0.18421 0.67527 0.0
Gd907 Gd 0.83981 0.16095 0.72935 0.0
C908 C 0.9336 0.16734 0.74591 0.0
C909 C 0.91996 0.11533 0.75291 0.0
C910 C 0.8801 0.12894 0.74341 0.0
C911 C 0.90223 0.15866 0.74165 0.0
C912 C 0.88851 0.10689 0.74954 0.0
C913 C 0.94249 0.14553 0.75109 0.0
C914 C 0.95489 0.19764 0.74538 0.0
C915 C 0.94443 0.2183 0.74139 0.0
N916 N 0.89277 0.17908 0.7367 0.0
C917 C 0.91303 0.20854 0.73736 0.0
H918 H 0.90537 0.22479 0.73418 0.0
C919 C 0.82657 0.09272 0.74436 0.0
N920 N 0.84994 0.12164 0.74022 0.0
C921 C 0.83374 0.07002 0.75031 0.0
C922 C 0.86491 0.07709 0.75265 0.0
H923 H 0.80243 0.08705 0.7425 0.0
H924 H 0.96654 0.15176 0.75421 0.0
H925 H 0.75774 0.12037 0.67126 0.0
H926 H 0.97923 0.20525 0.74848 0.0
H927 H 0.96055 0.24176 0.74132 0.0
H928 H 0.92696 0.09872 0.75743 0.0
H929 H 0.86069 0.2576 0.66024 0.0
H930 H 0.68265 0.13955 0.66128 0.0
H931 H 0.70182 0.10321 0.66632 0.0
H932 H 0.735 0.24612 0.65153 0.0
H933 H 0.81524 0.04709 0.75308 0.0
H934 H 0.8704 0.05948 0.75735 0.0
H935 H 0.6952 0.19305 0.6561 0.0
H936 H 0.84752 0.29757 0.65043 0.0
N937 N 0.77015 0.16594 0.66954 0.0
C938 C 0.70726 0.14722 0.66342 0.0
C939 C 0.71801 0.12666 0.66618 0.0
C940 C 0.72865 0.17755 0.66261 0.0
C941 C 0.7604 0.18631 0.66556 0.0
C942 C 0.7498 0.13651 0.66895 0.0
N943 N 0.8131 0.22331 0.66469 0.0
C944 C 0.78265 0.21602 0.663 0.0
C945 C 0.82903 0.27473 0.65402 0.0
C946 C 0.79764 0.26774 0.65326 0.0
C947 C 0.83641 0.25207 0.65951 0.0
C948 C 0.77399 0.23801 0.65743 0.0
H949 H 0.79198 0.28531 0.64894 0.0
O950 O 0.85496 0.20355 0.64688 0.0
O951 O 0.85751 0.18055 0.69637 0.0
O952 O 0.85233 0.20992 0.7239 0.0
O953 O 0.82274 0.2154 0.69679 0.0
O954 O 0.87508 0.21811 0.67437 0.0
O955 O 0.81457 0.1599 0.64824 0.0
O956 O 0.80735 0.14173 0.75713 0.0
O957 O 0.80567 0.16459 0.70834 0.0
O958 O 0.81179 0.13553 0.68054 0.0
O959 O 0.84172 0.13041 0.70756 0.0
O960 O 0.78883 0.12642 0.72963 0.0
O961 O 0.84803 0.18514 0.7564 0.0
C962 C 0.88209 0.204 0.68937 0.0
C963 C 0.7422 0.22954 0.65557 0.0
C964 C 0.71954 0.19934 0.65818 0.0
C965 C 0.83843 0.1813 0.63656 0.0
C966 C 0.83253 0.18901 0.6147 0.0
C967 C 0.81385 0.20249 0.61104 0.0
C968 C 0.84571 0.18321 0.59735 0.0
C969 C 0.83995 0.19069 0.57645 0.0
C970 C 0.80845 0.2103 0.59053 0.0
C971 C 0.82135 0.20455 0.57341 0.0
C972 C 0.83956 0.22457 0.7133 0.0
C973 C 0.78131 0.14062 0.71502 0.0
C974 C 0.82369 0.16376 0.76768 0.0
C975 C 0.82853 0.15566 0.78971 0.0
C976 C 0.84125 0.13675 0.79424 0.0
C977 C 0.81962 0.16616 0.8064 0.0
C978 C 0.82318 0.15759 0.8276 0.0
C979 C 0.84462 0.128 0.81503 0.0
C980 C 0.83553 0.13809 0.83156 0.0
C981 C 0.82505 0.12124 0.69096 0.0
H982 H 0.80352 0.20707 0.62405 0.0
H983 H 0.85991 0.17252 0.60014 0.0
H984 H 0.79417 0.22091 0.58788 0.0
H985 H 0.81692 0.21123 0.5577 0.0
H986 H 0.84826 0.12847 0.78172 0.0
H987 H 0.81023 0.18113 0.80282 0.0
H988 H 0.85413 0.1131 0.81838 0.0
H989 H 0.83787 0.13024 0.8475 0.0
H990 H 0.26872 0.8583 0.0656 0.0
H991 H 0.31259 0.82845 0.11331 0.0
H992 H 0.31929 0.90305 0.05459 0.0
H993 H 0.36356 0.87294 0.10218 0.0
H994 H 0.45256 0.93759 0.0567 0.0
H995 H 0.40181 0.89374 0.06857 0.0
H996 H 0.3598 0.94993 0.06969 0.0
H997 H 0.41063 0.99373 0.05811 0.0
C998 C 0.28922 0.8617 0.07393 0.0
C999 C 0.28679 0.84029 0.09049 0.0
C1000 C 0.31817 0.88719 0.06762 0.0
C1001 C 0.34558 0.89158 0.07744 0.0
C1002 C 0.343 0.87017 0.09418 0.0
C1003 C 0.31386 0.84493 0.10073 0.0
C1004 C 0.43241 0.94051 0.05924 0.0
C1005 C 0.43544 0.96908 0.05597 0.0
C1006 C 0.4034 0.91543 0.06629 0.0
C1007 C 0.37665 0.91826 0.07009 0.0
C1008 C 0.37978 0.94687 0.06676 0.0
C1009 C 0.40889 0.97196 0.06013 0.0
H1010 H 0.18508 0.48948 0.08887 0.0
H1011 H 0.1505 0.42003 0.04924 0.0
H1012 H 0.1451 0.50258 0.07753 0.0
H1013 H 0.11057 0.43323 0.03735 0.0
H1014 H 0.01971 0.43926 0.04969 0.0
H1015 H 0.06297 0.42878 0.05553 0.0
H1016 H 0.12871 0.52307 0.04625 0.0
H1017 H 0.0854 0.53337 0.04096 0.0
C1018 C 0.16904 0.47744 0.07745 0.0
C1019 C 0.17048 0.45397 0.06977 0.0
C1020 C 0.14641 0.48494 0.07086 0.0
C1021 C 0.12482 0.4689 0.05655 0.0
C1022 C 0.12683 0.44576 0.04851 0.0
C1023 C 0.14958 0.43834 0.05512 0.0
C1024 C 0.0435 0.4576 0.04868 0.0
C1025 C 0.04949 0.48702 0.04441 0.0
C1026 C 0.06819 0.45167 0.05185 0.0
C1027 C 0.09914 0.47514 0.0512 0.0
C1028 C 0.10505 0.5046 0.0469 0.0
C1029 C 0.08036 0.51049 0.04368 0.0
H1030 H 0.49945 0.71012 0.086 0.0
H1031 H 0.59798 0.73884 0.07803 0.0
H1032 H 0.48688 0.66235 0.07444 0.0
H1033 H 0.58577 0.69124 0.06665 0.0
H1034 H 0.55208 0.59157 0.07238 0.0
H1035 H 0.56309 0.6393 0.08238 0.0
H1036 H 0.49059 0.63895 0.04382 0.0
H1037 H 0.47908 0.59071 0.03409 0.0
C1038 C 0.51837 0.70625 0.08153 0.0
C1039 C 0.54966 0.72802 0.08302 0.0
C1040 C 0.51125 0.67895 0.07492 0.0
C1041 C 0.5353 0.67278 0.06977 0.0
C1042 C 0.56662 0.69495 0.07086 0.0
C1043 C 0.57368 0.72223 0.07733 0.0
C1044 C 0.5384 0.60154 0.066 0.0
C1045 C 0.51489 0.58729 0.0522 0.0
C1046 C 0.5449 0.62912 0.07164 0.0
C1047 C 0.52794 0.64319 0.06378 0.0
C1048 C 0.50405 0.62874 0.05025 0.0
C1049 C 0.49765 0.60117 0.0445 0.0
H1050 H 0.8266 0.33086 0.94949 0.0
H1051 H 0.82709 0.28588 1.01033 0.0
H1052 H 0.86469 0.37857 0.96031 0.0
H1053 H 0.86364 0.33397 0.02165 0.0
H1054 H 0.90116 0.43539 0.03458 0.0
H1055 H 0.86264 0.38728 0.02479 0.0
H1056 H 0.92543 0.39886 0.97289 0.0
H1057 H 0.96483 0.44613 0.98334 0.0
C1058 C 0.83475 0.33115 0.9652 0.0
C1059 C 0.82394 0.3044 0.97895 0.0
C1060 C 0.85645 0.35851 0.97143 0.0
C1061 C 0.86726 0.36004 0.99181 0.0
C1062 C 0.85564 0.33351 1.00587 0.0
C1063 C 0.83453 0.30599 0.99943 0.0
C1064 C 0.9072 0.42752 0.0214 0.0
C1065 C 0.93668 0.44464 1.01019 0.0
C1066 C 0.88493 0.39995 0.01569 0.0
C1067 C 0.89104 0.38916 0.99814 0.0
C1068 C 0.92003 0.40655 0.98652 0.0
C1069 C 0.94265 0.43371 0.99257 0.0
H1070 H 0.7529 0.60493 0.01673 0.0
H1071 H 0.71112 0.53584 0.97699 0.0
H1072 H 0.70056 0.59164 0.03144 0.0
H1073 H 0.65892 0.52272 0.99114 0.0
H1074 H 0.56889 0.49523 0.02579 0.0
H1075 H 0.6222 0.50315 0.02261 0.0
H1076 H 0.65816 0.59819 0.01445 0.0
H1077 H 0.60473 0.59008 0.0183 0.0
C1078 C 0.73239 0.5866 1.01149 0.0
C1079 C 0.73549 0.57148 0.99571 0.0
C1080 C 0.70263 0.57908 0.01976 0.0
C1081 C 0.67577 0.55625 0.01236 0.0
C1082 C 0.6792 0.54017 0.99733 0.0
C1083 C 0.70888 0.54778 0.98907 0.0
C1084 C 0.58826 0.51774 0.02396 0.0
C1085 C 0.58299 0.5421 0.02267 0.0
C1086 C 0.6187 0.52228 0.02198 0.0
C1087 C 0.64425 0.55126 0.01829 0.0
C1088 C 0.63894 0.57561 0.01765 0.0
C1089 C 0.60847 0.57104 0.01965 0.0
H1090 H 0.41442 0.16955 0.97675 0.0
H1091 H 0.51161 0.22338 0.95518 0.0
H1092 H 0.42315 0.12739 0.98817 0.0
H1093 H 0.52076 0.18158 0.96646 0.0
H1094 H 0.53326 0.11844 0.01703 0.0
H1095 H 0.5221 0.15706 1.00149 0.0
H1096 H 0.43815 0.09088 0.9772 0.0
H1097 H 0.44916 0.05188 0.99305 0.0
C1098 C 0.43745 0.17197 0.97398 0.0
C1099 C 0.4624 0.19951 0.9652 0.0
C1100 C 0.44254 0.14797 0.98055 0.0
C1101 C 0.47279 0.15121 0.97855 0.0
C1102 C 0.49731 0.17844 0.96862 0.0
C1103 C 0.49211 0.20226 0.96196 0.0
C1104 C 0.51228 0.11196 1.00852 0.0
C1105 C 0.49201 0.08193 1.00646 0.0
C1106 C 0.50606 0.13423 0.99936 0.0
C1107 C 0.47932 0.12716 0.98793 0.0
C1108 C 0.45888 0.0971 0.98596 0.0
C1109 C 0.46527 0.07477 0.99499 0.0
H1110 H 0.75476 0.18595 1.00078 0.0
H1111 H 0.71079 0.20968 0.94971 0.0
H1112 H 0.70583 0.13881 1.01066 0.0
H1113 H 0.66142 0.16297 0.95982 0.0
H1114 H 0.62042 0.04392 1.00353 0.0
H1115 H 0.66987 0.09006 0.99287 0.0
H1116 H 0.6213 0.14054 0.99379 0.0
H1117 H 0.57216 0.09459 1.00484 0.0
C1118 C 0.73456 0.18088 0.99165 0.0
C1119 C 0.73646 0.20124 0.97445 0.0
C1120 C 0.70661 0.15399 0.99725 0.0
C1121 C 0.67968 0.14716 0.98606 0.0
C1122 C 0.68168 0.16762 0.96882 0.0
C1123 C 0.70987 0.19421 0.96293 0.0
C1124 C 0.62041 0.06492 1.00157 0.0
C1125 C 0.59253 0.06564 1.00561 0.0
C1126 C 0.64869 0.09132 0.9955 0.0
C1127 C 0.64957 0.11901 0.99254 0.0
C1128 C 0.62144 0.1196 0.9959 0.0
C1129 C 0.59332 0.09328 1.00243 0.0
H1130 H 0.8602 0.62313 1.00338 0.0
H1131 H 0.83235 0.55745 0.9609 0.0
H1132 H 0.90526 0.61621 0.01225 0.0
H1133 H 0.87738 0.55051 0.96948 0.0
H1134 H 0.93323 0.51868 0.01219 0.0
H1135 H 0.89044 0.52878 1.00341 0.0
H1136 H 0.95584 0.62308 0.99438 0.0
H1137 H 0.99866 0.61289 1.00333 0.0
C1138 C 0.86426 0.60766 0.99571 0.0
C1139 C 0.84327 0.59084 0.98149 0.0
C1140 C 0.88983 0.60368 1.00073 0.0
C1141 C 0.89445 0.58261 0.99169 0.0
C1142 C 0.87401 0.5666 0.97685 0.0
C1143 C 0.84863 0.57078 0.97174 0.0
C1144 C 0.93829 0.54153 1.00869 0.0
C1145 C 0.96896 0.5651 1.00879 0.0
C1146 C 0.91396 0.5473 1.00343 0.0
C1147 C 0.92001 0.57669 0.9981 0.0
C1148 C 0.95063 0.60026 0.99856 0.0
C1149 C 0.97501 0.59447 1.00363 0.0
H1150 H 0.48543 0.32354 0.94652 0.0
H1151 H 0.45202 0.27406 1.0085 0.0
H1152 H 0.49422 0.36886 0.9603 0.0
H1153 H 0.4621 0.31969 0.02257 0.0
H1154 H 0.51769 0.418 0.03935 0.0
H1155 H 0.5101 0.37246 0.02667 0.0
H1156 H 0.45709 0.38493 0.97659 0.0
H1157 H 0.46347 0.42962 0.9896 0.0
C1158 C 0.48005 0.32243 0.96311 0.0
C1159 C 0.46789 0.29528 0.97642 0.0
C1160 C 0.48516 0.34833 0.97101 0.0
C1161 C 0.47879 0.3478 0.99251 0.0
C1162 C 0.46746 0.32081 1.00597 0.0
C1163 C 0.46179 0.29476 0.99796 0.0
C1164 C 0.50392 0.41081 0.02589 0.0
C1165 C 0.49076 0.42739 0.0158 0.0
C1166 C 0.49974 0.38477 0.01856 0.0
C1167 C 0.483 0.37514 1.00064 0.0
C1168 C 0.47027 0.3919 0.99036 0.0
C1169 C 0.4739 0.41753 0.99791 0.0
H1170 H 0.19614 0.76131 0.05187 0.0
H1171 H 0.19197 0.71091 0.11138 0.0
H1172 H 0.15884 0.71513 0.0385 0.0
H1173 H 0.15314 0.66512 0.09851 0.0
H1174 H 0.05291 0.60418 0.07213 0.0
H1175 H 0.09321 0.64955 0.08433 0.0
H1176 H 0.15786 0.66039 0.03394 0.0
H1177 H 0.11826 0.61399 0.02237 0.0
C1178 C 0.18751 0.7404 0.06203 0.0
C1179 C 0.19703 0.73989 0.08274 0.0
C1180 C 0.166 0.71399 0.05442 0.0
C1181 C 0.15292 0.68654 0.06751 0.0
C1182 C 0.1626 0.68596 0.08813 0.0
C1183 C 0.1847 0.71221 0.09553 0.0
C1184 C 0.07567 0.61604 0.06358 0.0
C1185 C 0.08189 0.60542 0.04588 0.0
C1186 C 0.09878 0.6421 0.07065 0.0
C1187 C 0.12859 0.65868 0.05999 0.0
C1188 C 0.13496 0.64827 0.04231 0.0
C1189 C 0.11209 0.62173 0.03558 0.0
H1190 H 0.25693 0.40244 0.08964 0.0
H1191 H 0.28513 0.49333 0.06546 0.0
H1192 H 0.30943 0.41129 0.08109 0.0
H1193 H 0.33604 0.50134 0.05379 0.0
H1194 H 0.43513 0.51701 0.05186 0.0
H1195 H 0.38367 0.50959 0.06134 0.0
H1196 H 0.34342 0.41588 0.0555 0.0
H1197 H 0.39581 0.42337 0.04827 0.0
C1198 C 0.27445 0.42434 0.08252 0.0
C1199 C 0.26701 0.44716 0.07814 0.0
C1200 C 0.30444 0.42931 0.077 0.0
C1201 C 0.3273 0.45697 0.06627 0.0
C1202 C 0.31966 0.47986 0.06225 0.0
C1203 C 0.29018 0.47519 0.06859 0.0
C1204 C 0.41511 0.49498 0.0523 0.0
C1205 C 0.41913 0.47078 0.04909 0.0
C1206 C 0.38539 0.49059 0.0577 0.0
C1207 C 0.35889 0.46197 0.05945 0.0
C1208 C 0.36309 0.43807 0.05511 0.0
C1209 C 0.393 0.44233 0.05055 0.0
H1210 H 0.60584 0.85578 0.08655 0.0
H1211 H 0.50605 0.80032 0.09826 0.0
H1212 H 0.5989 0.89923 0.07643 0.0
H1213 H 0.49873 0.84345 0.0888 0.0
H1214 H 0.57514 0.97569 0.07098 0.0
H1215 H 0.58358 0.93462 0.086 0.0
H1216 H 0.50156 0.87306 0.05711 0.0
H1217 H 0.49252 0.91329 0.04313 0.0
C1218 C 0.58249 0.85315 0.08741 0.0
C1219 C 0.55642 0.82482 0.09298 0.0
C1220 C 0.57844 0.87796 0.08164 0.0
C1221 C 0.54818 0.87491 0.08144 0.0
C1222 C 0.52232 0.84665 0.0882 0.0
C1223 C 0.52641 0.82194 0.09378 0.0
C1224 C 0.55888 0.95334 0.06797 0.0
C1225 C 0.53335 0.94798 0.05559 0.0
C1226 C 0.5638 0.92978 0.07648 0.0
C1227 C 0.54319 0.90034 0.07291 0.0
C1228 C 0.51768 0.8952 0.06061 0.0
C1229 C 0.51275 0.91854 0.05223 0.0
H1230 H 0.9355 0.20162 0.41684 0.0
H1231 H 0.98275 0.15173 0.43433 0.0
H1232 H 0.98573 0.24576 0.40511 0.0
H1233 H 0.0335 0.19602 0.42398 0.0
H1234 H 0.11881 0.27139 0.38541 0.0
H1235 H 0.06839 0.22757 0.39684 0.0
H1236 H 0.03197 0.28452 0.41245 0.0
H1237 H 0.08165 0.32797 0.39948 0.0
C1238 C 0.95692 0.20051 0.41875 0.0
C1239 C 0.95539 0.17351 0.42675 0.0
C1240 C 0.98589 0.22582 0.41204 0.0
C1241 C 0.01431 0.22497 0.41342 0.0
C1242 C 0.0125 0.19785 0.4221 0.0
C1243 C 0.98344 0.17246 0.42843 0.0
C1244 C 0.09974 0.27445 0.39081 0.0
C1245 C 0.10395 0.30322 0.39081 0.0
C1246 C 0.0708 0.24922 0.39783 0.0
C1247 C 0.04543 0.25198 0.40568 0.0
C1248 C 0.0502 0.28098 0.40609 0.0
C1249 C 0.07892 0.3061 0.39877 0.0
H1250 H 0.85672 0.83346 0.42439 0.0
H1251 H 0.82858 0.76623 0.38315 0.0
H1252 H 0.81564 0.84448 0.41218 0.0
H1253 H 0.78756 0.77735 0.3705 0.0
H1254 H 0.6926 0.77719 0.38257 0.0
H1255 H 0.7376 0.76934 0.38866 0.0
H1256 H 0.79932 0.86442 0.38019 0.0
H1257 H 0.7544 0.8721 0.37461 0.0
C1258 C 0.84186 0.82143 0.41247 0.0
C1259 C 0.84533 0.79902 0.40469 0.0
C1260 C 0.81862 0.82778 0.40538 0.0
C1261 C 0.79846 0.81166 0.39046 0.0
C1262 C 0.80268 0.78986 0.38215 0.0
C1263 C 0.82608 0.78365 0.38921 0.0
C1264 C 0.71589 0.79628 0.38177 0.0
C1265 C 0.72029 0.82517 0.37764 0.0
C1266 C 0.74157 0.79185 0.38509 0.0
C1267 C 0.77186 0.81632 0.38475 0.0
C1268 C 0.77618 0.84522 0.38055 0.0
C1269 C 0.75055 0.84961 0.37716 0.0
H1270 H 0.25601 0.06941 0.41675 0.0
H1271 H 0.15743 0.0413 0.41875 0.0
H1272 H 0.24561 0.02269 0.40449 0.0
H1273 H 0.14654 0.99427 0.40658 0.0
H1274 H 0.14361 0.92546 0.36553 0.0
H1275 H 0.15372 0.9728 0.37623 0.0
H1276 H 0.22178 0.97034 0.41812 0.0
H1277 H 0.21233 0.92363 0.4071 0.0
C1278 C 0.23211 0.05311 0.41445 0.0
C1279 C 0.20753 0.05885 0.41849 0.0
C1280 C 0.22605 0.02632 0.40757 0.0
C1281 C 0.19519 1.00458 0.40459 0.0
C1282 C 0.17061 1.0106 0.40844 0.0
C1283 C 0.17674 0.03742 0.41541 0.0
C1284 C 0.16094 0.93514 0.37687 0.0
C1285 C 0.17742 0.92079 0.3852 0.0
C1286 C 0.16652 0.96218 0.38318 0.0
C1287 C 0.18875 0.97558 0.39795 0.0
C1288 C 0.20491 0.96101 0.40643 0.0
C1289 C 0.19929 0.93401 0.4002 0.0
H1290 H 0.46287 0.65422 0.31239 0.0
H1291 H 0.53347 0.62741 0.31689 0.0
H1292 H 0.49993 0.70237 0.32331 0.0
H1293 H 0.57057 0.67518 0.32785 0.0
H1294 H 0.63974 0.77442 0.32336 0.0
H1295 H 0.60131 0.72654 0.31367 0.0
H1296 H 0.52931 0.72804 0.35175 0.0
H1297 H 0.5677 0.77648 0.36099 0.0
C1298 C 0.48623 0.65855 0.31599 0.0
C1299 C 0.49534 0.63715 0.31365 0.0
C1300 C 0.50754 0.68613 0.32225 0.0
C1301 C 0.53857 0.69304 0.3263 0.0
C1302 C 0.54724 0.67114 0.32445 0.0
C1303 C 0.52595 0.64364 0.31826 0.0
C1304 C 0.61575 0.76467 0.3297 0.0
C1305 C 0.60712 0.77942 0.34322 0.0
C1306 C 0.59362 0.73693 0.32424 0.0
C1307 C 0.56203 0.72299 0.33204 0.0
C1308 C 0.55328 0.73796 0.34531 0.0
C1309 C 0.57547 0.76573 0.35081 0.0
H1310 H 0.4082 0.95163 0.3149 0.0
H1311 H 0.38864 0.86509 0.34438 0.0
H1312 H 0.35745 0.94252 0.32835 0.0
H1313 H 0.33908 0.85676 0.36019 0.0
H1314 H 0.23655 0.83392 0.35462 0.0
H1315 H 0.29022 0.84416 0.35008 0.0
H1316 H 0.3229 0.93729 0.35414 0.0
H1317 H 0.26869 0.92691 0.35675 0.0
C1318 C 0.39311 0.93093 0.3248 0.0
C1319 C 0.40183 0.90892 0.3285 0.0
C1320 C 0.36418 0.92576 0.33286 0.0
C1321 C 0.34374 0.89873 0.34539 0.0
C1322 C 0.35366 0.8775 0.35019 0.0
C1323 C 0.38219 0.88234 0.34145 0.0
C1324 C 0.25533 0.85644 0.35488 0.0
C1325 C 0.2488 0.87967 0.35611 0.0
C1326 C 0.28624 0.8624 0.35243 0.0
C1327 C 0.31125 0.89172 0.35147 0.0
C1328 C 0.30441 0.91461 0.35409 0.0
C1329 C 0.27344 0.90873 0.35582 0.0
H1330 H 0.18019 0.55859 0.289 0.0
H1331 H 0.08264 0.50589 0.30992 0.0
H1332 H 0.18867 0.51665 0.30132 0.0
H1333 H 0.09068 0.46357 0.32231 0.0
H1334 H 0.11611 0.38749 0.32786 0.0
H1335 H 0.1056 0.42666 0.3118 0.0
H1336 H 0.18882 0.49242 0.33702 0.0
H1337 H 0.19948 0.45355 0.3529 0.0
C1338 C 0.16047 0.53767 0.29585 0.0
C1339 C 0.13084 0.53528 0.2986 0.0
C1340 C 0.16529 0.5138 0.3031 0.0
C1341 C 0.14046 0.48687 0.31312 0.0
C1342 C 0.1103 0.48394 0.31465 0.0
C1343 C 0.1056 0.50801 0.30751 0.0
C1344 C 0.13213 0.4103 0.33003 0.0
C1345 C 0.1586 0.41728 0.34177 0.0
C1346 C 0.12603 0.43273 0.32085 0.0
C1347 C 0.14648 0.46272 0.32296 0.0
C1348 C 0.17283 0.46962 0.3348 0.0
C1349 C 0.17875 0.44723 0.34412 0.0
H1350 H 0.37517 0.55739 0.29824 0.0
H1351 H 0.42629 0.51094 0.31477 0.0
H1352 H 0.32559 0.51125 0.30711 0.0
H1353 H 0.37716 0.46491 0.32512 0.0
H1354 H 0.2842 0.37979 0.32797 0.0
H1355 H 0.33287 0.42536 0.31625 0.0
H1356 H 0.29029 0.47701 0.33269 0.0
H1357 H 0.24124 0.43139 0.34273 0.0
C1358 C 0.37559 0.5371 0.30383 0.0
C1359 C 0.40438 0.53754 0.30565 0.0
C1360 C 0.34718 0.51059 0.30922 0.0
C1361 C 0.34676 0.48379 0.31707 0.0
C1362 C 0.37595 0.48455 0.31878 0.0
C1363 C 0.40429 0.51098 0.31295 0.0
C1364 C 0.28536 0.40097 0.32904 0.0
C1365 C 0.25908 0.40185 0.33697 0.0
C1366 C 0.31348 0.42728 0.32248 0.0
C1367 C 0.31626 0.45546 0.32363 0.0
C1368 C 0.2895 0.45614 0.33117 0.0
C1369 C 0.26127 0.42979 0.3374 0.0
H1370 H 0.49489 0.88458 0.29571 0.0
H1371 H 0.52498 0.9549 0.33442 0.0
H1372 H 0.54061 0.87882 0.30431 0.0
H1373 H 0.57042 0.94888 0.34361 0.0
H1374 H 0.66379 0.94631 0.33557 0.0
H1375 H 0.6199 0.9549 0.32686 0.0
H1376 H 0.55658 0.86014 0.3372 0.0
H1377 H 0.60048 0.85167 0.34546 0.0
C1378 C 0.51164 0.89896 0.30588 0.0
C1379 C 0.50662 0.91989 0.31465 0.0
C1380 C 0.53745 0.89549 0.31101 0.0
C1381 C 0.55869 0.9131 0.3249 0.0
C1382 C 0.55435 0.93502 0.3329 0.0
C1383 C 0.52843 0.93837 0.32779 0.0
C1384 C 0.64036 0.92745 0.33621 0.0
C1385 C 0.63525 0.89842 0.34156 0.0
C1386 C 0.61534 0.93232 0.33128 0.0
C1387 C 0.58496 0.90817 0.33125 0.0
C1388 C 0.57986 0.87913 0.33685 0.0
C1389 C 0.60485 0.87428 0.34186 0.0
H1390 H 0.15531 0.65969 0.27848 0.0
H1391 H 0.12039 0.61072 0.34047 0.0
H1392 H 0.16413 0.70529 0.29186 0.0
H1393 H 0.13047 0.65659 0.35415 0.0
H1394 H 0.18577 0.75465 0.37087 0.0
H1395 H 0.17868 0.7092 0.35832 0.0
H1396 H 0.12681 0.72173 0.30747 0.0
H1397 H 0.13267 0.76633 0.32034 0.0
C1398 C 0.14962 0.65877 0.29498 0.0
C1399 C 0.13705 0.6317 0.30842 0.0
C1400 C 0.15475 0.68481 0.30265 0.0
C1401 C 0.14796 0.68447 0.32405 0.0
C1402 C 0.13618 0.65755 0.33764 0.0
C1403 C 0.1305 0.63137 0.32985 0.0
C1404 C 0.17238 0.7475 0.35726 0.0
C1405 C 0.1593 0.764 0.34694 0.0
C1406 C 0.16848 0.72153 0.35 0.0
C1407 C 0.15215 0.71192 0.33194 0.0
C1408 C 0.13965 0.72869 0.32137 0.0
C1409 C 0.14298 0.75426 0.32884 0.0
H1410 H 0.89313 0.05854 0.41542 0.0
H1411 H 0.82598 0.08967 0.41218 0.0
H1412 H 0.85525 1.01275 0.40195 0.0
H1413 H 0.78812 0.04434 0.39858 0.0
H1414 H 0.71574 0.9468 0.39833 0.0
H1415 H 0.75497 0.99266 0.41016 0.0
H1416 H 0.82688 0.99091 0.37213 0.0
H1417 H 0.78761 0.94432 0.36078 0.0
C1418 C 0.87035 0.05567 0.41156 0.0
C1419 C 0.8624 0.07753 0.41499 0.0
C1420 C 0.8486 0.02947 0.40382 0.0
C1421 C 0.8183 0.02448 0.3993 0.0
C1422 C 0.81083 0.04689 0.40227 0.0
C1423 C 0.83255 0.07298 0.40998 0.0
C1424 C 0.73988 0.9561 0.39243 0.0
C1425 C 0.74825 0.94179 0.37836 0.0
C1426 C 0.76248 0.98268 0.39912 0.0
C1427 C 0.79429 0.99591 0.39203 0.0
C1428 C 0.80274 0.98146 0.37809 0.0
C1429 C 0.78007 0.95481 0.37136 0.0
H1430 H 0.9604 0.81086 0.4337 0.0
H1431 H 0.91491 0.7491 0.38927 0.0
H1432 H 0.0113 0.81747 0.42166 0.0
H1433 H 0.96579 0.75559 0.377 0.0
H1434 H 0.06247 0.75519 0.38296 0.0
H1435 H 0.00956 0.74615 0.39186 0.0
H1436 H 0.04461 0.84085 0.38655 0.0
H1437 H 0.0974 0.84981 0.37778 0.0
C1438 C 0.96144 0.79829 0.42165 0.0
C1439 C 0.93419 0.77949 0.41236 0.0
C1440 C 0.9904 0.80236 0.41454 0.0
C1441 C 0.99237 0.7874 0.39817 0.0
C1442 C 0.96481 0.76742 0.38959 0.0
C1443 C 0.93588 0.76363 0.39659 0.0
C1444 C 0.05857 0.77399 0.38322 0.0
C1445 C 0.08373 0.80314 0.3795 0.0
C1446 C 0.02844 0.76885 0.3883 0.0
C1447 C 0.02324 0.79281 0.39014 0.0
C1448 C 0.0482 0.82202 0.3855 0.0
C1449 C 0.07826 0.82716 0.38023 0.0
H1450 H 0.20147 0.15916 0.45224 0.0
H1451 H 0.24973 0.17022 0.39276 0.0
H1452 H 0.19883 0.20486 0.44101 0.0
H1453 H 0.2457 0.2149 0.38116 0.0
H1454 H 0.16948 0.25052 0.36786 0.0
H1455 H 0.18094 0.21133 0.3815 0.0
H1456 H 0.24894 0.26987 0.42064 0.0
H1457 H 0.23876 0.31016 0.40617 0.0
C1458 C 0.21202 0.17168 0.43696 0.0
C1459 C 0.22539 0.16097 0.42323 0.0
C1460 C 0.21042 0.19768 0.43053 0.0
C1461 C 0.22196 0.21319 0.41021 0.0
C1462 C 0.23659 0.20324 0.39687 0.0
C1463 C 0.23866 0.17762 0.40343 0.0
C1464 C 0.18741 0.25552 0.37898 0.0
C1465 C 0.20368 0.28392 0.38546 0.0
C1466 C 0.19372 0.23287 0.38694 0.0
C1467 C 0.21586 0.2377 0.40202 0.0
C1468 C 0.23178 0.26572 0.40897 0.0
C1469 C 0.22594 0.28872 0.40064 0.0
H1470 H 0.64731 0.48344 0.76688 0.0
H1471 H 0.59893 0.53175 0.74775 0.0
H1472 H 0.69773 0.52793 0.75609 0.0
H1473 H 0.64883 0.57603 0.73559 0.0
H1474 H 0.78272 0.60285 0.71727 0.0
H1475 H 0.73247 0.55892 0.72873 0.0
H1476 H 0.69475 0.61559 0.74253 0.0
H1477 H 0.74433 0.65915 0.72949 0.0
C1478 C 0.64769 0.50387 0.76053 0.0
C1479 C 0.61941 0.50444 0.75853 0.0
C1480 C 0.67655 0.52936 0.75394 0.0
C1481 C 0.67796 0.55608 0.74468 0.0
C1482 C 0.64931 0.55644 0.74296 0.0
C1483 C 0.62052 0.53104 0.74992 0.0
C1484 C 0.7634 0.60584 0.72223 0.0
C1485 C 0.76726 0.63455 0.72172 0.0
C1486 C 0.73455 0.58054 0.72929 0.0
C1487 C 0.70889 0.58317 0.73671 0.0
C1488 C 0.71324 0.61213 0.73654 0.0
C1489 C 0.74189 0.63732 0.72917 0.0
H1490 H 0.51385 0.15129 0.7556 0.0
H1491 H 0.47943 0.08296 0.71504 0.0
H1492 H 0.47448 0.1652 0.74418 0.0
H1493 H 0.44006 0.09694 0.70311 0.0
H1494 H 0.34962 0.10401 0.71559 0.0
H1495 H 0.39238 0.09274 0.72113 0.0
H1496 H 0.45912 0.18676 0.71286 0.0
H1497 H 0.4163 0.19786 0.70786 0.0
C1498 C 0.49795 0.13965 0.74398 0.0
C1499 C 0.49926 0.11626 0.73606 0.0
C1500 C 0.47569 0.14762 0.73734 0.0
C1501 C 0.45433 0.13215 0.72274 0.0
C1502 C 0.45616 0.10906 0.71449 0.0
C1503 C 0.47857 0.10117 0.72114 0.0
C1504 C 0.37353 0.12213 0.7147 0.0
C1505 C 0.37993 0.15171 0.71084 0.0
C1506 C 0.39794 0.11575 0.71771 0.0
C1507 C 0.42901 0.13891 0.71731 0.0
C1508 C 0.43535 0.16852 0.71331 0.0
C1509 C 0.41094 0.17487 0.71025 0.0
H1510 H 0.83134 0.37709 0.75274 0.0
H1511 H 0.92977 0.40536 0.74481 0.0
H1512 H 0.8185 0.32909 0.7415 0.0
H1513 H 0.91729 0.35753 0.7337 0.0
H1514 H 0.88303 0.25772 0.73982 0.0
H1515 H 0.89436 0.30564 0.74965 0.0
H1516 H 0.82202 0.3055 0.71101 0.0
H1517 H 0.81017 0.2571 0.70147 0.0
C1518 C 0.85018 0.37307 0.74835 0.0
C1519 C 0.88151 0.39477 0.74974 0.0
C1520 C 0.8429 0.34564 0.74192 0.0
C1521 C 0.86686 0.3393 0.73685 0.0
C1522 C 0.89823 0.36139 0.73786 0.0
C1523 C 0.90544 0.3888 0.74416 0.0
C1524 C 0.86944 0.26779 0.73341 0.0
C1525 C 0.84588 0.25356 0.71964 0.0
C1526 C 0.87613 0.29545 0.73894 0.0
C1527 C 0.85931 0.30963 0.731 0.0
C1528 C 0.83537 0.2952 0.7175 0.0
C1529 C 0.82877 0.26754 0.71187 0.0
H1530 H 0.15825 0.99706 0.61552 0.0
H1531 H 0.15916 0.95134 0.67593 0.0
H1532 H 0.19616 0.04461 0.62664 0.0
H1533 H 0.19553 0.99926 0.68757 0.0
H1534 H 0.23246 0.10013 0.70148 0.0
H1535 H 0.19415 0.05216 0.69138 0.0
H1536 H 0.2569 0.06506 0.63904 0.0
H1537 H 0.29608 0.11221 0.64977 0.0
C1538 C 0.16647 0.99715 0.6312 0.0
C1539 C 0.15583 0.97026 0.64473 0.0
C1540 C 0.18806 0.02442 0.6376 0.0
C1541 C 0.19891 0.02569 0.65796 0.0
C1542 C 0.18748 0.99899 0.67181 0.0
C1543 C 0.16649 0.97158 0.6652 0.0
C1544 C 0.23853 0.09259 0.68812 0.0
C1545 C 0.26793 0.11004 0.67687 0.0
C1546 C 0.21639 0.0651 0.68224 0.0
C1547 C 0.22256 0.05472 0.66448 0.0
C1548 C 0.25147 0.07243 0.65283 0.0
C1549 C 0.27395 0.09952 0.65904 0.0
H1550 H 0.04229 0.20312 0.64447 0.0
H1551 H 0.08398 0.27151 0.68475 0.0
H1552 H 0.99006 0.18983 0.65868 0.0
H1553 H 0.0316 0.25808 0.6995 0.0
H1554 H 0.89997 0.16167 0.69338 0.0
H1555 H 0.95336 0.16976 0.69026 0.0
H1556 H 0.98907 0.26474 0.68265 0.0
H1557 H 0.93557 0.25646 0.68641 0.0
C1558 C 0.04001 0.21488 0.65666 0.0
C1559 C 0.06662 0.23842 0.66346 0.0
C1560 C 0.01032 0.20716 0.66496 0.0
C1561 C 0.00684 0.22299 0.68017 0.0
C1562 C 0.0337 0.2457 0.68768 0.0
C1563 C 0.06347 0.25331 0.67939 0.0
C1564 C 0.9193 0.1842 0.69171 0.0
C1565 C 0.91393 0.2085 0.6905 0.0
C1566 C 0.94979 0.18884 0.68976 0.0
C1567 C 0.97529 0.21786 0.6862 0.0
C1568 C 0.96988 0.24213 0.68573 0.0
C1569 C 0.93937 0.23746 0.68768 0.0
H1570 H 0.74341 0.83308 0.63863 0.0
H1571 H 0.84264 0.89247 0.62765 0.0
H1572 H 0.75318 0.79149 0.64954 0.0
H1573 H 0.85281 0.85124 0.63801 0.0
H1574 H 0.86196 0.78414 0.68543 0.0
H1575 H 0.85048 0.82273 0.67064 0.0
H1576 H 0.77202 0.75832 0.64059 0.0
H1577 H 0.78292 0.7192 0.65614 0.0
C1578 C 0.76725 0.83693 0.63797 0.0
C1579 C 0.79231 0.86582 0.6324 0.0
C1580 C 0.77295 0.81322 0.64427 0.0
C1581 C 0.80387 0.81801 0.64506 0.0
C1582 C 0.82875 0.84675 0.63815 0.0
C1583 C 0.82301 0.87034 0.63198 0.0
C1584 C 0.842 0.77799 0.6759 0.0
C1585 C 0.82318 0.74836 0.67224 0.0
C1586 C 0.83567 0.80032 0.6671 0.0
C1587 C 0.81042 0.79383 0.65421 0.0
C1588 C 0.79151 0.76417 0.65054 0.0
C1589 C 0.79787 0.74173 0.65939 0.0
H1590 H 0.08648 0.85134 0.6655 0.0
H1591 H 0.04247 0.87678 0.61531 0.0
H1592 H 0.03735 0.8043 0.67513 0.0
H1593 H 0.99292 0.83016 0.62519 0.0
H1594 H 0.95134 0.7102 0.66726 0.0
H1595 H 1.0009 0.75627 0.65677 0.0
H1596 H 0.9531 0.8072 0.65938 0.0
H1597 H 0.90382 0.7613 0.67028 0.0
C1598 C 0.06623 0.84666 0.6565 0.0
C1599 C 0.06816 0.86745 0.63961 0.0
C1600 C 0.03817 0.81983 0.66196 0.0
C1601 C 0.01118 0.81352 0.65096 0.0
C1602 C 0.01322 0.83442 0.63404 0.0
C1603 C 0.04152 0.86095 0.62828 0.0
C1604 C 0.95152 0.73128 0.6657 0.0
C1605 C 0.92383 0.73213 0.67016 0.0
C1606 C 0.97987 0.75763 0.65973 0.0
C1607 C 0.98098 0.78543 0.65729 0.0
C1608 C 0.95304 0.78618 0.66107 0.0
C1609 C 0.92485 0.75988 0.66752 0.0
H1610 H 0.16287 0.22358 0.62858 0.0
H1611 H 0.19121 0.28878 0.67147 0.0
H1612 H 0.20767 0.21616 0.637 0.0
H1613 H 0.23604 0.28141 0.68017 0.0
H1614 H 0.32924 0.27806 0.67072 0.0
H1615 H 0.28642 0.28835 0.66205 0.0
H1616 H 0.22099 0.19406 0.67065 0.0
H1617 H 0.26379 0.18386 0.67917 0.0
C1618 C 0.1792 0.23669 0.63949 0.0
C1619 C 0.17406 0.25677 0.64938 0.0
C1620 C 0.20444 0.23223 0.64451 0.0
C1621 C 0.22499 0.24801 0.65939 0.0
C1622 C 0.22054 0.26906 0.66861 0.0
C1623 C 0.1951 0.2733 0.66369 0.0
C1624 C 0.30558 0.25966 0.67099 0.0
C1625 C 0.29953 0.23026 0.67596 0.0
C1626 C 0.2812 0.2655 0.66607 0.0
C1627 C 0.25056 0.24198 0.66559 0.0
C1628 C 0.24452 0.21255 0.67071 0.0
C1629 C 0.26886 0.20673 0.67581 0.0
H1630 H 0.84322 0.97802 0.64429 0.0
H1631 H 0.74371 0.94518 0.65113 0.0
H1632 H 0.85288 0.02341 0.65849 0.0
H1633 H 0.75303 0.99043 0.66516 0.0
H1634 H 0.78319 0.08914 0.66336 0.0
H1635 H 0.77446 0.04308 0.65155 0.0
H1636 H 0.84603 0.04261 0.69073 0.0
H1637 H 0.85524 0.08925 0.70239 0.0
C1638 C 0.82346 0.98046 0.64907 0.0
C1639 C 0.79275 0.95828 0.64652 0.0
C1640 C 0.82891 1.00638 0.6572 0.0
C1641 C 0.80374 1.01069 0.66284 0.0
C1642 C 0.77299 0.9881 0.66066 0.0
C1643 C 0.76759 0.96219 0.65265 0.0
C1644 C 0.79713 0.07932 0.66953 0.0
C1645 C 0.81982 0.09294 0.68397 0.0
C1646 C 0.79193 0.05271 0.66284 0.0
C1647 C 0.80938 0.03898 0.67027 0.0
C1648 C 0.83227 0.05266 0.68461 0.0
C1649 C 0.83737 0.07928 0.69142 0.0
H1650 H 0.49008 0.41959 0.74505 0.0
H1651 H 0.55764 0.38897 0.74805 0.0
H1652 H 0.45214 0.37396 0.73185 0.0
H1653 H 0.51965 0.34281 0.73504 0.0
H1654 H 0.4511 0.27306 0.69491 0.0
H1655 H 0.49065 0.31995 0.70577 0.0
H1656 H 0.41927 0.32256 0.74378 0.0
H1657 H 0.37981 0.2765 0.73242 0.0
C1658 C 0.49672 0.40295 0.74289 0.0
C1659 C 0.5267 0.40773 0.74771 0.0
C1660 C 0.47495 0.37666 0.73541 0.0
C1661 C 0.48248 0.35426 0.73253 0.0
C1662 C 0.51292 0.35949 0.73685 0.0
C1663 C 0.53474 0.3859 0.74434 0.0
C1664 C 0.44376 0.28381 0.70538 0.0
C1665 C 0.412 0.27098 0.71249 0.0
C1666 C 0.46659 0.31063 0.71183 0.0
C1667 C 0.45836 0.32544 0.7256 0.0
C1668 C 0.42663 0.31235 0.73285 0.0
C1669 C 0.40388 0.28562 0.72642 0.0
H1670 H 0.58694 0.06605 0.75572 0.0
H1671 H 0.61397 0.15692 0.73237 0.0
H1672 H 0.63985 0.07585 0.74739 0.0
H1673 H 0.66537 0.16593 0.72089 0.0
H1674 H 0.76506 0.18289 0.71911 0.0
H1675 H 0.71319 0.1747 0.72842 0.0
H1676 H 0.67429 0.08135 0.72183 0.0
H1677 H 0.72699 0.08957 0.71482 0.0
C1678 C 0.6043 0.08815 0.74882 0.0
C1679 C 0.5964 0.11067 0.74459 0.0
C1680 C 0.63453 0.09368 0.74342 0.0
C1681 C 0.65721 0.12163 0.73296 0.0
C1682 C 0.64912 0.14424 0.72912 0.0
C1683 C 0.61937 0.13899 0.73535 0.0
C1684 C 0.74523 0.16077 0.71937 0.0
C1685 C 0.7497 0.13687 0.71604 0.0
C1686 C 0.71529 0.15594 0.72467 0.0
C1687 C 0.68905 0.12717 0.72618 0.0
C1688 C 0.69372 0.10361 0.72166 0.0
C1689 C 0.72383 0.10831 0.71721 0.0
H1690 H 0.93801 0.52277 0.75281 0.0
H1691 H 0.83806 0.46737 0.76355 0.0
H1692 H 0.93119 0.56612 0.74187 0.0
H1693 H 0.83086 0.51038 0.75312 0.0
H1694 H 0.82603 0.57976 0.70595 0.0
H1695 H 0.83508 0.53968 0.72053 0.0
H1696 H 0.91492 0.60133 0.75109 0.0
H1697 H 0.90645 0.64218 0.73566 0.0
C1698 C 0.91464 0.52013 0.75329 0.0
C1699 C 0.88851 0.49185 0.75883 0.0
C1700 C 0.91067 0.54488 0.74703 0.0
C1701 C 0.88042 0.54176 0.74625 0.0
C1702 C 0.85446 0.51358 0.75298 0.0
C1703 C 0.85848 0.48895 0.75912 0.0
C1704 C 0.84578 0.58505 0.71556 0.0
C1705 C 0.86572 0.61443 0.71936 0.0
C1706 C 0.85071 0.56182 0.72424 0.0
C1707 C 0.87558 0.56706 0.73721 0.0
C1708 C 0.89564 0.59646 0.74107 0.0
C1709 C 0.8907 0.61987 0.73231 0.0
H1710 H 0.51879 0.97644 0.28546 0.0
H1711 H 0.45657 0.89942 0.25682 0.0
H1712 H 0.54531 1.00253 0.25098 0.0
H1713 H 0.48168 0.92569 0.22206 0.0
H1714 H 0.54304 0.97646 0.16233 0.0
H1715 H 0.52694 0.94833 0.19763 0.0
H1716 H 0.53019 0.02423 0.22147 0.0
H1717 H 0.54662 0.05225 0.18643 0.0
C1718 C 0.51121 0.96506 0.2717 0.0
C1719 C 0.48541 0.93634 0.27351 0.0
C1720 C 0.52603 0.98 0.25196 0.0
C1721 C 0.51517 0.96648 0.23365 0.0
C1722 C 0.49069 0.93683 0.23577 0.0
C1723 C 0.47607 0.92185 0.25558 0.0
C1724 C 0.54034 0.98707 0.17517 0.0
C1725 C 0.54607 0.01656 0.17162 0.0
C1726 C 0.53115 0.97098 0.19538 0.0
C1727 C 0.52736 0.98402 0.21244 0.0
C1728 C 0.53354 1.01366 0.20885 0.0
C1729 C 0.54285 0.02973 0.18872 0.0
H1730 H 0.05172 0.52482 0.28068 0.0
H1731 H 0.13766 0.57499 0.24182 0.0
H1732 H 0.02279 0.50719 0.24944 0.0
H1733 H 0.10911 0.55768 0.21036 0.0
H1734 H 0.04569 0.50636 0.15893 0.0
H1735 H 0.0756 0.5149 0.19045 0.0
H1736 H 0.01091 0.5356 0.22042 0.0
H1737 H 0.98171 0.52803 0.18902 0.0
C1738 C 0.06448 0.53104 0.26547 0.0
C1739 C 0.09682 0.55077 0.26354 0.0
C1740 C 0.04799 0.52139 0.24756 0.0
C1741 C 0.06358 0.53135 0.22734 0.0
C1742 C 0.0964 0.54943 0.22566 0.0
C1743 C 0.11281 0.5592 0.24361 0.0
C1744 C 0.03799 0.513 0.17216 0.0
C1745 C 0.01099 0.51622 0.17135 0.0
C1746 C 0.05506 0.5177 0.19028 0.0
C1747 C 0.04537 0.52545 0.20811 0.0
C1748 C 0.01858 0.52887 0.20722 0.0
C1749 C 1.00178 0.5245 0.18912 0.0
H1750 H 0.42522 0.56604 0.25133 0.0
H1751 H 0.48539 0.53962 0.2851 0.0
H1752 H 0.4334 0.54685 0.21998 0.0
H1753 H 0.49292 0.51932 0.25436 0.0
H1754 H 0.53641 0.52605 0.19037 0.0
H1755 H 0.52179 0.54025 0.22154 0.0
H1756 H 0.42723 0.50622 0.20197 0.0
H1757 H 0.44231 0.49244 0.17029 0.0
C1758 C 0.43926 0.55507 0.25218 0.0
C1759 C 0.45447 0.55395 0.27054 0.0
C1760 C 0.44412 0.54417 0.23425 0.0
C1761 C 0.46434 0.53195 0.23439 0.0
C1762 C 0.47786 0.52924 0.25338 0.0
C1763 C 0.4732 0.54035 0.27114 0.0
C1764 C 0.51245 0.5215 0.1927 0.0
C1765 C 0.49048 0.50782 0.17789 0.0
C1766 C 0.50394 0.52947 0.21072 0.0
C1767 C 0.47308 0.52387 0.21466 0.0
C1768 C 0.45122 0.51095 0.19953 0.0
C1769 C 0.45985 0.50308 0.18133 0.0
H1770 H 0.88503 0.46847 0.81059 0.0
H1771 H 0.97215 0.49185 0.77746 0.0
H1772 H 0.91312 0.48841 0.8417 0.0
H1773 H 1.00072 0.5128 0.80797 0.0
H1774 H 0.03384 0.50325 0.87297 0.0
H1775 H 0.00558 0.49038 0.84134 0.0
H1776 H 0.95044 0.52999 0.85882 0.0
H1777 H 0.97879 0.54264 0.89089 0.0
C1778 C 0.91037 0.47894 0.80982 0.0
C1779 C 0.92663 0.47886 0.79181 0.0
C1780 C 0.92649 0.49027 0.82758 0.0
C1781 C 0.95919 0.50172 0.82754 0.0
C1782 C 0.9755 0.50348 0.80881 0.0
C1783 C 0.95933 0.49195 0.79123 0.0
C1784 C 0.01585 0.50944 0.87003 0.0
C1785 C 0.00882 0.52424 0.88438 0.0
C1786 C 0.99969 0.50219 0.85179 0.0
C1787 C 0.97604 0.50961 0.84723 0.0
C1788 C 0.96846 0.52388 0.86181 0.0
C1789 C 0.98465 0.53108 0.8802 0.0
H1790 H 0.54184 0.50529 0.77973 0.0
H1791 H 0.59367 0.46924 0.81417 0.0
H1792 H 0.53065 0.52068 0.8119 0.0
H1793 H 0.58203 0.48381 0.84677 0.0
H1794 H 0.56614 0.52955 0.90063 0.0
H1795 H 0.58624 0.52165 0.86822 0.0
H1796 H 0.49601 0.49333 0.84243 0.0
H1797 H 0.4762 0.50114 0.87445 0.0
C1798 C 0.55174 0.50165 0.79415 0.0
C1799 C 0.56907 0.48665 0.79446 0.0
C1800 C 0.54488 0.5099 0.8127 0.0
C1801 C 0.55484 0.50297 0.83217 0.0
C1802 C 0.57403 0.48967 0.83216 0.0
C1803 C 0.58096 0.48152 0.81349 0.0
C1804 C 0.55056 0.52138 0.88809 0.0
C1805 C 0.51962 0.5164 0.89015 0.0
C1806 C 0.56212 0.51695 0.86944 0.0
C1807 C 0.54303 0.50745 0.85238 0.0
C1808 C 0.51185 0.5016 0.85482 0.0
C1809 C 0.50037 0.50597 0.87334 0.0
H1810 H 0.57315 0.12069 0.80004 0.0
H1811 H 0.53335 0.03689 0.7758 0.0
H1812 H 0.5667 0.09512 0.83593 0.0
H1813 H 0.5272 1.01109 0.81141 0.0
H1814 H 0.46644 0.9814 0.87433 0.0
H1815 H 0.48772 1.00592 0.83897 0.0
H1816 H 0.57764 0.06076 0.86276 0.0
H1817 H 0.5566 0.03535 0.89845 0.0
C1818 C 0.56461 0.09695 0.80239 0.0
C1819 C 0.55426 0.08065 0.78534 0.0
C1820 C 0.56072 0.08229 0.82285 0.0
C1821 C 0.54605 0.05107 0.82646 0.0
C1822 C 0.5383 0.03513 0.8091 0.0
C1823 C 0.54222 0.04982 0.78874 0.0
C1824 C 0.49096 0.99815 0.87211 0.0
C1825 C 0.50978 1.00617 0.88934 0.0
C1826 C 0.50318 1.01225 0.85177 0.0
C1827 C 0.53448 0.035 0.84806 0.0
C1828 C 0.55344 0.04325 0.86518 0.0
C1829 C 0.54128 0.02883 0.88562 0.0
H1830 H 0.18965 0.31233 0.61825 0.0
H1831 H 0.11822 0.23584 0.59337 0.0
H1832 H 0.21378 0.33494 0.58257 0.0
H1833 H 0.14217 0.25794 0.55769 0.0
H1834 H 0.16214 0.32753 0.49969 0.0
H1835 H 0.14426 0.30007 0.53483 0.0
H1836 H 0.24031 0.33236 0.55064 0.0
H1837 H 0.25835 0.3598 0.51522 0.0
C1838 C 0.17973 0.30012 0.6051 0.0
C1839 C 0.15201 0.27271 0.60827 0.0
C1840 C 0.19342 0.31295 0.58473 0.0
C1841 C 0.17954 0.29842 0.56727 0.0
C1842 C 0.153 0.26996 0.57076 0.0
C1843 C 0.13939 0.25724 0.59109 0.0
C1844 C 0.1795 0.3284 0.51049 0.0
C1845 C 0.21168 0.34585 0.50461 0.0
C1846 C 0.16924 0.31261 0.53066 0.0
C1847 C 0.19088 0.31389 0.54549 0.0
C1848 C 0.22309 0.33112 0.53961 0.0
C1849 C 0.23338 0.34689 0.51935 0.0
H1850 H 0.79708 0.89207 0.58191 0.0
H1851 H 0.70733 0.86538 0.6126 0.0
H1852 H 0.77178 0.87508 0.54929 0.0
H1853 H 0.68177 0.84859 0.5803 0.0
H1854 H 0.64031 0.80772 0.52233 0.0
H1855 H 0.66787 0.81412 0.55463 0.0
H1856 H 0.74685 0.89391 0.52313 0.0
H1857 H 0.71923 0.88754 0.49079 0.0
C1858 C 0.7718 0.88161 0.58178 0.0
C1859 C 0.75398 0.87966 0.59966 0.0
C1860 C 0.75732 0.87229 0.5631 0.0
C1861 C 0.72471 0.86068 0.56205 0.0
C1862 C 0.70682 0.85708 0.58049 0.0
C1863 C 0.72134 0.86659 0.59903 0.0
C1864 C 0.6636 0.82662 0.52224 0.0
C1865 C 0.67733 0.84732 0.50396 0.0
C1866 C 0.67944 0.83025 0.54079 0.0
C1867 C 0.70953 0.85466 0.5416 0.0
C1868 C 0.72387 0.87464 0.52306 0.0
C1869 C 0.70798 0.87102 0.50448 0.0
H1870 H 0.11935 0.85585 0.61734 0.0
H1871 H 0.10399 0.91939 0.57729 0.0
H1872 H 0.12477 0.83451 0.5865 0.0
H1873 H 0.10796 0.89764 0.54631 0.0
H1874 H 0.16084 0.8803 0.49518 0.0
H1875 H 0.14679 0.89707 0.52538 0.0
H1876 H 0.10342 0.80753 0.55829 0.0
H1877 H 0.11849 0.79117 0.52829 0.0
C1878 C 0.11609 0.86451 0.6019 0.0
C1879 C 0.11115 0.88907 0.59958 0.0
C1880 C 0.11922 0.85239 0.58415 0.0
C1881 C 0.11722 0.86449 0.56366 0.0
C1882 C 0.11044 0.88809 0.56165 0.0
C1883 C 0.10768 0.90033 0.57937 0.0
C1884 C 0.14795 0.86415 0.50876 0.0
C1885 C 0.14101 0.83445 0.50934 0.0
C1886 C 0.13973 0.87372 0.52615 0.0
C1887 C 0.12399 0.85376 0.54453 0.0
C1888 C 0.11609 0.82379 0.54472 0.0
C1889 C 0.12461 0.81432 0.52744 0.0
H1890 H 0.64023 0.82551 0.11073 0.0
H1891 H 0.55326 0.80039 0.1448 0.0
H1892 H 0.66921 0.84709 0.14096 0.0
H1893 H 0.58174 0.82084 0.17565 0.0
H1894 H 0.64689 0.87626 0.22426 0.0
H1895 H 0.61814 0.86264 0.19246 0.0
H1896 H 0.67617 0.82638 0.17412 0.0
H1897 H 0.70489 0.8403 0.20548 0.0
C1898 C 0.62752 0.8253 0.12466 0.0
C1899 C 0.59476 0.81163 0.12557 0.0
C1900 C 0.64392 0.83719 0.14209 0.0
C1901 C 0.62782 0.83518 0.16099 0.0
C1902 C 0.59499 0.82296 0.16139 0.0
C1903 C 0.57863 0.81132 0.14378 0.0
C1904 C 0.65333 0.86524 0.21344 0.0
C1905 C 0.6784 0.85963 0.21732 0.0
C1906 C 0.63689 0.85747 0.1952 0.0
C1907 C 0.64508 0.8438 0.18047 0.0
C1908 C 0.66973 0.83768 0.18469 0.0
C1909 C 0.68617 0.84554 0.20278 0.0
H1910 H 0.24985 0.78813 0.15201 0.0
H1911 H 0.23129 0.85029 0.11295 0.0
H1912 H 0.23956 0.80528 0.1837 0.0
H1913 H 0.2208 0.86767 0.14452 0.0
H1914 H 0.15537 0.85133 0.20268 0.0
H1915 H 0.17603 0.84199 0.17172 0.0
H1916 H 0.25448 0.84723 0.20544 0.0
H1917 H 0.23433 0.85774 0.23656 0.0
C1918 C 0.24474 0.80632 0.15029 0.0
C1919 C 0.24177 0.81823 0.13012 0.0
C1920 C 0.23865 0.81605 0.16839 0.0
C1921 C 0.22894 0.83761 0.16672 0.0
C1922 C 0.22784 0.85076 0.14641 0.0
C1923 C 0.23429 0.84122 0.12832 0.0
C1924 C 0.17735 0.85109 0.20356 0.0
C1925 C 0.19329 0.85581 0.22227 0.0
C1926 C 0.18922 0.84569 0.18568 0.0
C1927 C 0.21723 0.84433 0.18589 0.0
C1928 C 0.23287 0.8482 0.20469 0.0
C1929 C 0.22116 0.85402 0.22261 0.0
H1930 H 0.20353 0.37446 0.10951 0.0
H1931 H 0.24467 0.45813 0.13398 0.0
H1932 H 0.19586 0.34827 0.14515 0.0
H1933 H 0.23677 0.43218 0.16989 0.0
H1934 H 0.22213 0.37066 0.23262 0.0
H1935 H 0.24533 0.39583 0.19722 0.0
H1936 H 0.15565 0.34528 0.17173 0.0
H1937 H 0.13221 0.32116 0.20678 0.0
C1938 C 0.21246 0.38725 0.12251 0.0
C1939 C 0.22521 0.41818 0.11916 0.0
C1940 C 0.20768 0.37235 0.14288 0.0
C1941 C 0.21532 0.38819 0.16029 0.0
C1942 C 0.23087 0.41943 0.15676 0.0
C1943 C 0.23559 0.43432 0.13629 0.0
C1944 C 0.20731 0.36502 0.21948 0.0
C1945 C 0.17523 0.3437 0.22265 0.0
C1946 C 0.22071 0.37929 0.19922 0.0
C1947 C 0.20242 0.37214 0.18172 0.0
C1948 C 0.17055 0.35068 0.18486 0.0
C1949 C 0.15711 0.3368 0.20502 0.0
H1950 H 0.78749 0.56821 0.92582 0.0
H1951 H 0.85747 0.64626 0.94996 0.0
H1952 H 0.81065 0.59026 0.88997 0.0
H1953 H 0.88072 0.66887 0.91411 0.0
H1954 H 0.9237 0.69494 0.84637 0.0
H1955 H 0.90734 0.6674 0.88186 0.0
H1956 H 0.81036 0.63122 0.86725 0.0
H1957 H 0.82657 0.65873 0.83205 0.0
C1958 C 0.80822 0.58994 0.92334 0.0
C1959 C 0.82062 0.60585 0.94035 0.0
C1960 C 0.82136 0.60264 0.90292 0.0
C1961 C 0.84715 0.63154 0.89917 0.0
C1962 C 0.86094 0.64654 0.91647 0.0
C1963 C 0.84774 0.63371 0.93694 0.0
C1964 C 0.89889 0.68113 0.85078 0.0
C1965 C 0.87643 0.67901 0.83637 0.0
C1966 C 0.88956 0.66531 0.87107 0.0
C1967 C 0.85758 0.64697 0.87731 0.0
C1968 C 0.83521 0.64462 0.8628 0.0
C1969 C 0.84451 0.66044 0.8426 0.0
H1970 H 0.46868 0.23967 0.90918 0.0
H1971 H 0.38252 0.18907 0.94776 0.0
H1972 H 0.44033 0.22283 0.87756 0.0
H1973 H 0.35379 0.1719 0.91636 0.0
H1974 H 0.3129 0.19313 0.85605 0.0
H1975 H 0.34202 0.20055 0.88748 0.0
H1976 H 0.40699 0.18033 0.85736 0.0
H1977 H 0.37716 0.17195 0.8258 0.0
C1978 C 0.44382 0.2239 0.91086 0.0
C1979 C 0.42771 0.21521 0.93077 0.0
C1980 C 0.42752 0.21439 0.89282 0.0
C1981 C 0.39471 0.19632 0.89438 0.0
C1982 C 0.37899 0.18612 0.91457 0.0
C1983 C 0.39537 0.1955 0.93256 0.0
C1984 C 0.33302 0.18969 0.85611 0.0
C1985 C 0.34231 0.18157 0.83829 0.0
C1986 C 0.34978 0.19397 0.87423 0.0
C1987 C 0.37661 0.19062 0.8751 0.0
C1988 C 0.38641 0.18307 0.85721 0.0
C1989 C 0.36938 0.17846 0.83906 0.0
H1990 H 0.77375 0.2524 0.91141 0.0
H1991 H 0.78717 0.1891 0.95336 0.0
H1992 H 0.78009 0.23059 0.88103 0.0
H1993 H 0.79363 0.16703 0.92309 0.0
H1994 H 0.85242 0.17173 0.86445 0.0
H1995 H 0.83681 0.18697 0.89467 0.0
H1996 H 0.75873 0.18511 0.86227 0.0
H1997 H 0.77368 0.16874 0.83203 0.0
C1998 C 0.77717 0.23321 0.91406 0.0
C1999 C 0.77982 0.22224 0.93461 0.0
C2000 C 0.78086 0.22074 0.89672 0.0
C2001 C 0.78772 0.19726 0.89958 0.0
C2002 C 0.78875 0.18533 0.92031 0.0
C2003 C 0.78468 0.19763 0.93765 0.0
C2004 C 0.83156 0.17399 0.86376 0.0
C2005 C 0.81419 0.16856 0.84569 0.0
C2006 C 0.82262 0.18279 0.88119 0.0
C2007 C 0.79626 0.1869 0.88106 0.0
C2008 C 0.77917 0.18216 0.86289 0.0
C2009 C 0.78791 0.17295 0.84547 0.0
H2010 H 0.20845 0.11832 0.48528 0.0
H2011 H 0.29228 0.16512 0.44407 0.0
H2012 H 0.2386 0.14021 0.51519 0.0
H2013 H 0.32285 0.18739 0.47378 0.0
H2014 H 0.36868 0.17987 0.53562 0.0
H2015 H 0.33817 0.1657 0.50496 0.0
H2016 H 0.271 0.18649 0.5312 0.0
H2017 H 0.30202 0.20143 0.56187 0.0
C2018 C 0.23326 0.13406 0.48264 0.0
C2019 C 0.2482 0.14033 0.46255 0.0
C2020 C 0.25055 0.14655 0.49968 0.0
C2021 C 0.28322 0.16532 0.49693 0.0
C2022 C 0.2978 0.17271 0.47649 0.0
C2023 C 0.2804 0.16034 0.45946 0.0
C2024 C 0.34771 0.18194 0.5348 0.0
C2025 C 0.33804 0.19204 0.55129 0.0
C2026 C 0.33018 0.17379 0.51714 0.0
C2027 C 0.30228 0.17523 0.51549 0.0
C2028 C 0.29232 0.185 0.53202 0.0
C2029 C 0.31004 0.19342 0.54967 0.0
H2030 H 0.92828 0.13791 0.48214 0.0
H2031 H 0.87771 0.17497 0.44722 0.0
H2032 H 0.91596 0.15207 0.5147 0.0
H2033 H 0.86584 0.18995 0.47936 0.0
H2034 H 0.80964 0.16919 0.54139 0.0
H2035 H 0.83032 0.16199 0.50947 0.0
H2036 H 0.91975 0.18968 0.53633 0.0
H2037 H 0.8988 0.197 0.56862 0.0
C2038 C 0.91573 0.15033 0.48136 0.0
C2039 C 0.90436 0.15585 0.4622 0.0
C2040 C 0.9084 0.15825 0.5 0.0
C2041 C 0.88934 0.1717 0.49985 0.0
C2042 C 0.87996 0.17905 0.48028 0.0
C2043 C 0.88721 0.17104 0.46175 0.0
C2044 C 0.83383 0.17402 0.54053 0.0
C2045 C 0.8526 0.1841 0.5576 0.0
C2046 C 0.8458 0.17 0.52208 0.0
C2047 C 0.87701 0.17585 0.51998 0.0
C2048 C 0.89563 0.185 0.5373 0.0
C2049 C 0.88357 0.18909 0.55587 0.0
H2050 H 0.88248 0.7191 0.44164 0.0
H2051 H 0.91045 0.79673 0.47242 0.0
H2052 H 0.8745 0.689 0.47593 0.0
H2053 H 0.9028 0.76704 0.50676 0.0
H2054 H 0.89258 0.70399 0.56592 0.0
H2055 H 0.91619 0.73215 0.53134 0.0
H2056 H 0.83025 0.67729 0.50318 0.0
H2057 H 0.80612 0.65011 0.53754 0.0
C2058 C 0.88823 0.72984 0.45575 0.0
C2059 C 0.89699 0.75998 0.45466 0.0
C2060 C 0.88341 0.7127 0.47531 0.0
C2061 C 0.88766 0.72565 0.49399 0.0
C2062 C 0.89952 0.7565 0.49264 0.0
C2063 C 0.90395 0.7735 0.47309 0.0
C2064 C 0.87863 0.69795 0.55239 0.0
C2065 C 0.84727 0.67481 0.55466 0.0
C2066 C 0.89233 0.71392 0.53258 0.0
C2067 C 0.87515 0.70672 0.51459 0.0
C2068 C 0.84429 0.68293 0.51672 0.0
C2069 C 0.83046 0.66732 0.53649 0.0
loop_
_geom_bond_atom_site_label_1
_geom_bond_atom_site_label_2
_geom_bond_distance
_geom_bond_site_symmetry_2
_ccdc_geom_bond_type
C0 N1 1.317 . S
C0 N2 1.348 . S
C0 C3 1.485 . S
N1 C0 1.317 . S
N1 N5 1.370 . S
N2 C0 1.348 . S
N2 C4 1.346 . S
C3 C0 1.485 . S
C3 H7 0.960 . S
C3 H8 0.961 . S
C3 H9 0.960 . S
C4 N2 1.346 . S
C4 N5 1.307 . S
C4 C6 1.486 . S
N5 N1 1.370 . S
N5 C4 1.307 . S
C6 C4 1.486 . S
C6 H10 0.960 . S
C6 H11 0.960 . S
C6 H12 0.959 . S
H7 C3 0.960 . S
H8 C3 0.961 . S
H9 C3 0.960 . S
H10 C6 0.960 . S
H11 C6 0.960 . S
H12 C6 0.959 . S
C13 N14 1.317 . S
C13 N15 1.348 . S
C13 C16 1.485 . S
N14 C13 1.317 . S
N14 N18 1.370 . S
N15 C13 1.348 . S
N15 C17 1.346 . S
C16 C13 1.485 . S
C16 H20 0.960 . S
C16 H21 0.961 . S
C16 H22 0.960 . S
C17 N15 1.346 . S
C17 N18 1.307 . S
C17 C19 1.486 . S
N18 N14 1.370 . S
N18 C17 1.307 . S
C19 C17 1.486 . S
C19 H23 0.960 . S
C19 H24 0.960 . S
C19 H25 0.959 . S
H20 C16 0.960 . S
H21 C16 0.961 . S
H22 C16 0.960 . S
H23 C19 0.960 . S
H24 C19 0.960 . S
H25 C19 0.959 . S
C26 N27 1.317 . S
C26 N28 1.348 . S
C26 C29 1.485 . S
N27 C26 1.317 . S
N27 N31 1.370 . S
N28 C26 1.348 . S
N28 C30 1.346 . S
C29 C26 1.485 . S
C29 H33 0.960 . S
C29 H34 0.961 . S
C29 H35 0.960 . S
C30 N28 1.346 . S
C30 N31 1.307 . S
C30 C32 1.486 . S
N31 N27 1.370 . S
N31 C30 1.307 . S
C32 C30 1.486 . S
C32 H36 0.960 . S
C32 H37 0.960 . S
C32 H38 0.959 . S
H33 C29 0.960 . S
H34 C29 0.961 . S
H35 C29 0.960 . S
H36 C32 0.960 . S
H37 C32 0.960 . S
H38 C32 0.959 . S
C39 N40 1.317 . S
C39 N41 1.348 . S
C39 C42 1.485 . S
N40 C39 1.317 . S
N40 N44 1.370 . S
N41 C39 1.348 . S
N41 C43 1.346 . S
C42 C39 1.485 . S
C42 H46 0.960 . S
C42 H47 0.961 . S
C42 H48 0.960 . S
C43 N41 1.346 . S
C43 N44 1.307 . S
C43 C45 1.486 . S
N44 N40 1.370 . S
N44 C43 1.307 . S
C45 C43 1.486 . S
C45 H49 0.960 . S
C45 H50 0.960 . S
C45 H51 0.959 . S
H46 C42 0.960 . S
H47 C42 0.961 . S
H48 C42 0.960 . S
H49 C45 0.960 . S
H50 C45 0.960 . S
H51 C45 0.959 . S
C52 N53 1.317 . S
C52 N54 1.348 . S
C52 C55 1.485 . S
N53 C52 1.317 . S
N53 N57 1.370 . S
N54 C52 1.348 . S
N54 C56 1.346 . S
C55 C52 1.485 . S
C55 H59 0.960 . S
C55 H60 0.961 . S
C55 H61 0.960 . S
C56 N54 1.346 . S
C56 N57 1.307 . S
C56 C58 1.486 . S
N57 N53 1.370 . S
N57 C56 1.307 . S
C58 C56 1.486 . S
C58 H62 0.960 . S
C58 H63 0.960 . S
C58 H64 0.959 . S
H59 C55 0.960 . S
H60 C55 0.961 . S
H61 C55 0.960 . S
H62 C58 0.960 . S
H63 C58 0.960 . S
H64 C58 0.959 . S
C65 N66 1.317 . S
C65 N67 1.348 . S
C65 C68 1.485 . S
N66 C65 1.317 . S
N66 N70 1.370 . S
N67 C65 1.348 . S
N67 C69 1.346 . S
C68 C65 1.485 . S
C68 H72 0.960 . S
C68 H73 0.961 . S
C68 H74 0.960 . S
C69 N67 1.346 . S
C69 N70 1.307 . S
C69 C71 1.486 . S
N70 N66 1.370 . S
N70 C69 1.307 . S
C71 C69 1.486 . S
C71 H75 0.960 . S
C71 H76 0.960 . S
C71 H77 0.959 . S
H72 C68 0.960 . S
H73 C68 0.961 . S
H74 C68 0.960 . S
H75 C71 0.960 . S
H76 C71 0.960 . S
H77 C71 0.959 . S
C78 N79 1.317 . S
C78 N80 1.348 . S
C78 C81 1.485 . S
N79 C78 1.317 . S
N79 N83 1.370 . S
N80 C78 1.348 . S
N80 C82 1.346 . S
C81 C78 1.485 . S
C81 H85 0.960 . S
C81 H86 0.961 . S
C81 H87 0.960 . S
C82 N80 1.346 . S
C82 N83 1.307 . S
C82 C84 1.486 . S
N83 N79 1.370 . S
N83 C82 1.307 . S
C84 C82 1.486 . S
C84 H88 0.960 . S
C84 H89 0.960 . S
C84 H90 0.959 . S
H85 C81 0.960 . S
H86 C81 0.961 . S
H87 C81 0.960 . S
H88 C84 0.960 . S
H89 C84 0.960 . S
H90 C84 0.959 . S
C91 N92 1.317 . S
C91 N93 1.348 . S
C91 C94 1.485 . S
N92 C91 1.317 . S
N92 N96 1.370 . S
N93 C91 1.348 . S
N93 C95 1.346 . S
C94 C91 1.485 . S
C94 H98 0.960 . S
C94 H99 0.961 . S
C94 H100 0.960 . S
C95 N93 1.346 . S
C95 N96 1.307 . S
C95 C97 1.486 . S
N96 N92 1.370 . S
N96 C95 1.307 . S
C97 C95 1.486 . S
C97 H101 0.960 . S
C97 H102 0.960 . S
C97 H103 0.959 . S
H98 C94 0.960 . S
H99 C94 0.961 . S
H100 C94 0.960 . S
H101 C97 0.960 . S
H102 C97 0.960 . S
H103 C97 0.959 . S
C104 N105 1.317 . S
C104 N106 1.348 . S
C104 C107 1.485 . S
N105 C104 1.317 . S
N105 N109 1.370 . S
N106 C104 1.348 . S
N106 C108 1.346 . S
C107 C104 1.485 . S
C107 H111 0.960 . S
C107 H112 0.961 . S
C107 H113 0.960 . S
C108 N106 1.346 . S
C108 N109 1.307 . S
C108 C110 1.486 . S
N109 N105 1.370 . S
N109 C108 1.307 . S
C110 C108 1.486 . S
C110 H114 0.960 . S
C110 H115 0.960 . S
C110 H116 0.959 . S
H111 C107 0.960 . S
H112 C107 0.961 . S
H113 C107 0.960 . S
H114 C110 0.960 . S
H115 C110 0.960 . S
H116 C110 0.959 . S
C117 N118 1.317 . S
C117 N119 1.348 . S
C117 C120 1.485 . S
N118 C117 1.317 . S
N118 N122 1.370 . S
N119 C117 1.348 . S
N119 C121 1.346 . S
C120 C117 1.485 . S
C120 H124 0.960 . S
C120 H125 0.961 1_556 S
C120 H126 0.960 . S
C121 N119 1.346 . S
C121 N122 1.307 . S
C121 C123 1.486 . S
N122 N118 1.370 . S
N122 C121 1.307 . S
C123 C121 1.486 . S
C123 H127 0.960 . S
C123 H128 0.960 . S
C123 H129 0.959 . S
H124 C120 0.960 . S
H125 C120 0.961 1_554 S
H126 C120 0.960 . S
H127 C123 0.960 . S
H128 C123 0.960 . S
H129 C123 0.959 . S
C130 N131 1.317 . S
C130 N132 1.348 . S
C130 C133 1.479 1_556 S
N131 C130 1.317 . S
N131 N135 1.370 . S
N132 C130 1.348 . S
N132 C134 1.346 . S
C133 C130 1.479 1_554 S
C133 H137 0.964 . S
C133 H138 0.964 . S
C133 H139 0.957 1_554 S
C134 N132 1.346 . S
C134 N135 1.307 . S
C134 C136 1.486 . S
N135 N131 1.370 . S
N135 C134 1.307 . S
C136 C134 1.486 . S
C136 H140 0.960 . S
C136 H141 0.960 . S
C136 H142 0.959 . S
H137 C133 0.964 . S
H138 C133 0.964 . S
H139 C133 0.957 1_556 S
H140 C136 0.960 . S
H141 C136 0.960 . S
H142 C136 0.959 . S
C143 N144 1.317 . S
C143 N145 1.348 . S
C143 C146 1.485 1_556 S
N144 C143 1.317 . S
N144 N148 1.370 . S
N145 C143 1.348 . S
N145 C147 1.346 . S
C146 C143 1.485 1_554 S
C146 H150 0.960 . S
C146 H151 0.961 . S
C146 H152 0.960 . S
C147 N145 1.346 . S
C147 N148 1.307 . S
C147 C149 1.486 . S
N148 N144 1.370 . S
N148 C147 1.307 . S
C149 C147 1.486 . S
C149 H153 0.960 . S
C149 H154 0.960 . S
C149 H155 0.959 . S
H150 C146 0.960 . S
H151 C146 0.961 . S
H152 C146 0.960 . S
H153 C149 0.960 . S
H154 C149 0.960 . S
H155 C149 0.959 . S
C156 N157 1.317 . S
C156 N158 1.348 . S
C156 C159 1.485 . S
N157 C156 1.317 . S
N157 N161 1.370 . S
N158 C156 1.348 . S
N158 C160 1.346 . S
C159 C156 1.485 . S
C159 H163 0.960 . S
C159 H164 0.961 . S
C159 H165 0.960 . S
C160 N158 1.346 . S
C160 N161 1.307 . S
C160 C162 1.486 . S
N161 N157 1.370 . S
N161 C160 1.307 . S
C162 C160 1.486 . S
C162 H166 0.960 . S
C162 H167 0.960 . S
C162 H168 0.959 . S
H163 C159 0.960 . S
H164 C159 0.961 . S
H165 C159 0.960 . S
H166 C162 0.960 . S
H167 C162 0.960 . S
H168 C162 0.959 . S
C169 N170 1.317 . S
C169 N171 1.348 . S
C169 C172 1.485 . S
N170 C169 1.317 . S
N170 N174 1.370 . S
N171 C169 1.348 . S
N171 C173 1.346 . S
C172 C169 1.485 . S
C172 H176 0.960 . S
C172 H177 0.961 . S
C172 H178 0.960 . S
C173 N171 1.346 . S
C173 N174 1.307 . S
C173 C175 1.486 . S
N174 N170 1.370 . S
N174 C173 1.307 . S
C175 C173 1.486 . S
C175 H179 0.960 . S
C175 H180 0.960 . S
C175 H181 0.959 . S
H176 C172 0.960 . S
H177 C172 0.961 . S
H178 C172 0.960 . S
H179 C175 0.960 . S
H180 C175 0.960 . S
H181 C175 0.959 . S
C182 N183 1.317 . S
C182 N184 1.348 . S
C182 C185 1.485 . S
N183 C182 1.317 . S
N183 N187 1.370 . S
N184 C182 1.348 . S
N184 C186 1.346 . S
C185 C182 1.485 . S
C185 H189 0.960 . S
C185 H190 0.961 . S
C185 H191 0.960 . S
C186 N184 1.346 . S
C186 N187 1.307 . S
C186 C188 1.486 . S
N187 N183 1.370 . S
N187 C186 1.307 . S
C188 C186 1.486 . S
C188 H192 0.960 . S
C188 H193 0.960 . S
C188 H194 0.959 . S
H189 C185 0.960 . S
H190 C185 0.961 . S
H191 C185 0.960 . S
H192 C188 0.960 . S
H193 C188 0.960 . S
H194 C188 0.959 . S
C195 N196 1.317 . S
C195 N197 1.348 . S
C195 C198 1.485 . S
N196 C195 1.317 . S
N196 N200 1.370 . S
N197 C195 1.348 . S
N197 C199 1.346 . S
C198 C195 1.485 . S
C198 H202 0.960 . S
C198 H203 0.961 . S
C198 H204 0.960 . S
C199 N197 1.346 . S
C199 N200 1.307 . S
C199 C201 1.486 . S
N200 N196 1.370 . S
N200 C199 1.307 . S
C201 C199 1.486 . S
C201 H205 0.960 . S
C201 H206 0.960 . S
C201 H207 0.959 . S
H202 C198 0.960 . S
H203 C198 0.961 . S
H204 C198 0.960 . S
H205 C201 0.960 . S
H206 C201 0.960 . S
H207 C201 0.959 . S
C208 N209 1.317 . S
C208 N210 1.348 . S
C208 C211 1.485 . S
N209 C208 1.317 . S
N209 N213 1.370 . S
N210 C208 1.348 . S
N210 C212 1.346 . S
C211 C208 1.485 . S
C211 H215 0.960 . S
C211 H216 0.961 . S
C211 H217 0.960 . S
C212 N210 1.346 . S
C212 N213 1.307 . S
C212 C214 1.486 . S
N213 N209 1.370 . S
N213 C212 1.307 . S
C214 C212 1.486 . S
C214 H218 0.960 . S
C214 H219 0.960 . S
C214 H220 0.959 . S
H215 C211 0.960 . S
H216 C211 0.961 . S
H217 C211 0.960 . S
H218 C214 0.960 . S
H219 C214 0.960 . S
H220 C214 0.959 . S
C221 N222 1.317 . S
C221 N223 1.348 . S
C221 C224 1.485 . S
N222 C221 1.317 . S
N222 N226 1.370 . S
N223 C221 1.348 . S
N223 C225 1.346 . S
C224 C221 1.485 . S
C224 H228 0.960 . S
C224 H229 0.961 . S
C224 H230 0.960 . S
C225 N223 1.346 . S
C225 N226 1.307 . S
C225 C227 1.486 . S
N226 N222 1.370 . S
N226 C225 1.307 . S
C227 C225 1.486 . S
C227 H231 0.960 . S
C227 H232 0.960 . S
C227 H233 0.959 . S
H228 C224 0.960 . S
H229 C224 0.961 . S
H230 C224 0.960 . S
H231 C227 0.960 . S
H232 C227 0.960 . S
H233 C227 0.959 . S
Gd234 N265 2.661 . S
Gd234 N271 2.601 . S
Gd234 O278 2.545 . S
Gd234 O279 2.606 1_545 S
Gd234 O281 2.429 . S
Gd234 O282 2.545 1_545 S
Gd234 O283 2.412 1_545 S
Gd234 O285 2.362 . S
Gd234 O286 2.324 1_545 S
Gd234 C293 2.828 1_545 S
Gd235 N244 2.661 . S
Gd235 N248 2.601 . S
Gd235 O279 2.362 1_556 S
Gd235 O280 2.324 1_565 S
Gd235 O284 2.545 . S
Gd235 O285 2.606 1_566 S
Gd235 O287 2.429 1_556 S
Gd235 O288 2.545 1_565 S
Gd235 O289 2.412 1_565 S
Gd235 C302 2.828 1_565 S
C236 C239 1.417 . S
C236 C241 1.431 . S
C236 C242 1.412 . S
C237 C240 1.437 . S
C237 C241 1.317 . S
C237 H256 0.929 . S
C238 C239 1.426 . S
C238 C240 1.413 . S
C238 N248 1.359 . S
C239 C236 1.417 . S
C239 C238 1.426 . S
C239 N244 1.350 . S
C240 C237 1.437 . S
C240 C238 1.413 . S
C240 C250 1.391 . S
C241 C236 1.431 . S
C241 C237 1.317 . S
C241 H252 0.930 . S
C242 C236 1.412 . S
C242 C243 1.355 . S
C242 H254 0.930 . S
C243 C242 1.355 . S
C243 C245 1.402 . S
C243 H255 0.930 . S
N244 Gd235 2.661 . S
N244 C239 1.350 . S
N244 C245 1.307 . S
C245 C243 1.402 . S
C245 N244 1.307 . S
C245 H246 0.930 1_565 S
H246 C245 0.930 1_545 S
C247 N248 1.334 . S
C247 C249 1.394 . S
C247 H251 0.930 . S
N248 Gd235 2.601 . S
N248 C238 1.359 . S
N248 C247 1.334 . S
C249 C247 1.394 . S
C249 C250 1.359 . S
C249 H261 0.930 . S
C250 C240 1.391 . S
C250 C249 1.359 . S
C250 H262 0.929 . S
H251 C247 0.930 . S
H252 C241 0.930 . S
H253 C270 0.930 . S
H254 C242 0.930 . S
H255 C243 0.930 . S
H256 C237 0.929 . S
H257 C275 0.930 . S
H258 C266 0.930 . S
H259 C267 0.930 . S
H260 C291 0.929 . S
H261 C249 0.930 . S
H262 C250 0.929 . S
H263 C292 0.930 . S
H264 C273 0.930 . S
N265 Gd234 2.661 . S
N265 C269 1.350 . S
N265 C270 1.307 . S
C266 H258 0.930 . S
C266 C267 1.355 . S
C266 C268 1.412 . S
C267 H259 0.930 . S
C267 C266 1.355 . S
C267 C270 1.402 . S
C268 C266 1.412 . S
C268 C269 1.417 . S
C268 C292 1.431 . S
C269 N265 1.350 . S
C269 C268 1.417 . S
C269 C272 1.426 . S
C270 H253 0.930 . S
C270 N265 1.307 . S
C270 C267 1.402 . S
N271 Gd234 2.601 . S
N271 C272 1.359 . S
N271 C275 1.334 . S
C272 C269 1.426 . S
C272 N271 1.359 . S
C272 C276 1.413 . S
C273 H264 0.930 . S
C273 C274 1.359 . S
C273 C275 1.394 . S
C274 C273 1.359 . S
C274 C276 1.391 . S
C274 H277 0.929 . S
C275 H257 0.930 . S
C275 N271 1.334 . S
C275 C273 1.394 . S
C276 C272 1.413 . S
C276 C274 1.391 . S
C276 C291 1.437 . S
H277 C274 0.929 . S
O278 Gd234 2.545 . S
O278 C293 1.258 1_545 S
O279 Gd234 2.606 1_565 S
O279 Gd235 2.362 1_554 S
O279 C290 1.284 . S
O280 Gd235 2.324 1_545 S
O280 C300 1.254 1_556 S
O281 Gd234 2.429 . S
O281 C300 1.268 . S
O282 Gd234 2.545 1_565 S
O282 C290 1.250 . S
O283 Gd234 2.412 1_565 S
O283 C293 1.252 . S
O284 Gd235 2.545 . S
O284 C302 1.258 1_565 S
O285 Gd234 2.362 . S
O285 Gd235 2.606 1_544 S
O285 C301 1.284 . S
O286 Gd234 2.324 1_565 S
O286 C309 1.254 . S
O287 Gd235 2.429 1_554 S
O287 C309 1.268 . S
O288 Gd235 2.545 1_545 S
O288 C301 1.250 1_556 S
O289 Gd235 2.412 1_545 S
O289 C302 1.252 . S
C290 O279 1.284 . S
C290 O282 1.250 . S
C291 H260 0.929 . S
C291 C276 1.437 . S
C291 C292 1.317 . S
C292 H263 0.930 . S
C292 C268 1.431 . S
C292 C291 1.317 . S
C293 Gd234 2.828 1_565 S
C293 O278 1.258 1_565 S
C293 O283 1.252 . S
C293 C294 1.497 . S
C294 C293 1.497 . S
C294 C295 1.395 . S
C294 C296 1.380 . S
C295 C294 1.395 . S
C295 C298 1.398 . S
C295 H310 0.930 1_565 S
C296 C294 1.380 . S
C296 C297 1.391 . S
C296 H311 0.930 . S
C297 C296 1.391 . S
C297 C299 1.387 . S
C298 C295 1.398 . S
C298 C299 1.380 . S
C298 H312 0.930 . S
C299 C297 1.387 . S
C299 C298 1.380 . S
C299 H313 0.930 . S
C300 O280 1.254 1_554 S
C300 O281 1.268 . S
C301 O285 1.284 . S
C301 O288 1.250 1_554 S
C302 Gd235 2.828 1_545 S
C302 O284 1.258 1_545 S
C302 O289 1.252 . S
C302 C303 1.497 . S
C303 C302 1.497 . S
C303 C304 1.395 . S
C303 C305 1.380 . S
C304 C303 1.395 . S
C304 C307 1.398 . S
C304 H314 0.930 1_545 S
C305 C303 1.380 . S
C305 C306 1.391 . S
C305 H315 0.930 . S
C306 C305 1.391 . S
C306 C308 1.387 . S
C307 C304 1.398 . S
C307 C308 1.380 . S
C307 H316 0.930 . S
C308 C306 1.387 . S
C308 C307 1.380 . S
C308 H317 0.930 . S
C309 O286 1.254 . S
C309 O287 1.268 . S
H310 C295 0.930 1_545 S
H311 C296 0.930 . S
H312 C298 0.930 . S
H313 C299 0.930 . S
H314 C304 0.930 1_565 S
H315 C305 0.930 . S
H316 C307 0.930 . S
H317 C308 0.930 . S
Gd318 N349 2.661 . S
Gd318 N355 2.601 . S
Gd318 O362 2.545 . S
Gd318 O363 2.606 1_655 S
Gd318 O365 2.429 . S
Gd318 O366 2.545 1_655 S
Gd318 O367 2.412 1_655 S
Gd318 O369 2.362 . S
Gd318 O370 2.324 1_655 S
Gd318 C377 2.828 . S
Gd319 N328 2.661 . S
Gd319 N332 2.601 . S
Gd319 O363 2.362 1_556 S
Gd319 O364 2.324 1_455 S
Gd319 O368 2.545 . S
Gd319 O369 2.606 1_456 S
Gd319 O371 2.429 . S
Gd319 O372 2.545 1_455 S
Gd319 O373 2.412 . S
Gd319 C386 2.828 . S
C320 C323 1.417 . S
C320 C325 1.431 . S
C320 C326 1.412 . S
C321 C324 1.437 . S
C321 C325 1.317 . S
C321 H340 0.929 . S
C322 C323 1.426 . S
C322 C324 1.413 . S
C322 N332 1.359 . S
C323 C320 1.417 . S
C323 C322 1.426 . S
C323 N328 1.350 . S
C324 C321 1.437 . S
C324 C322 1.413 . S
C324 C334 1.391 . S
C325 C320 1.431 . S
C325 C321 1.317 . S
C325 H336 0.930 . S
C326 C320 1.412 . S
C326 C327 1.355 . S
C326 H338 0.930 . S
C327 C326 1.355 . S
C327 C329 1.402 . S
C327 H339 0.930 . S
N328 Gd319 2.661 . S
N328 C323 1.350 . S
N328 C329 1.307 . S
C329 C327 1.402 . S
C329 N328 1.307 . S
C329 H330 0.930 . S
H330 C329 0.930 . S
C331 N332 1.334 . S
C331 C333 1.394 . S
C331 H335 0.930 . S
N332 Gd319 2.601 . S
N332 C322 1.359 . S
N332 C331 1.334 . S
C333 C331 1.394 . S
C333 C334 1.359 . S
C333 H345 0.930 . S
C334 C324 1.391 . S
C334 C333 1.359 . S
C334 H346 0.929 . S
H335 C331 0.930 . S
H336 C325 0.930 . S
H337 C354 0.930 . S
H338 C326 0.930 . S
H339 C327 0.930 . S
H340 C321 0.929 . S
H341 C359 0.930 . S
H342 C350 0.930 . S
H343 C351 0.930 . S
H344 C375 0.929 . S
H345 C333 0.930 . S
H346 C334 0.929 . S
H347 C376 0.930 . S
H348 C357 0.930 . S
N349 Gd318 2.661 . S
N349 C353 1.350 . S
N349 C354 1.307 . S
C350 H342 0.930 . S
C350 C351 1.355 . S
C350 C352 1.412 . S
C351 H343 0.930 . S
C351 C350 1.355 . S
C351 C354 1.402 . S
C352 C350 1.412 . S
C352 C353 1.417 . S
C352 C376 1.431 . S
C353 N349 1.350 . S
C353 C352 1.417 . S
C353 C356 1.426 . S
C354 H337 0.930 . S
C354 N349 1.307 . S
C354 C351 1.402 . S
N355 Gd318 2.601 . S
N355 C356 1.359 . S
N355 C359 1.334 . S
C356 C353 1.426 . S
C356 N355 1.359 . S
C356 C360 1.413 . S
C357 H348 0.930 . S
C357 C358 1.359 . S
C357 C359 1.394 . S
C358 C357 1.359 . S
C358 C360 1.391 . S
C358 H361 0.929 . S
C359 H341 0.930 . S
C359 N355 1.334 . S
C359 C357 1.394 . S
C360 C356 1.413 . S
C360 C358 1.391 . S
C360 C375 1.437 . S
H361 C358 0.929 . S
O362 Gd318 2.545 . S
O362 C377 1.258 . S
O363 Gd318 2.606 1_455 S
O363 Gd319 2.362 1_554 S
O363 C374 1.284 . S
O364 Gd319 2.324 1_655 S
O364 C384 1.254 1_556 S
O365 Gd318 2.429 . S
O365 C384 1.268 . S
O366 Gd318 2.545 1_455 S
O366 C374 1.250 . S
O367 Gd318 2.412 1_455 S
O367 C377 1.252 1_455 S
O368 Gd319 2.545 . S
O368 C386 1.258 . S
O369 Gd318 2.362 . S
O369 Gd319 2.606 1_654 S
O369 C385 1.284 1_554 S
O370 Gd318 2.324 1_455 S
O370 C393 1.254 . S
O371 Gd319 2.429 . S
O371 C393 1.268 1_556 S
O372 Gd319 2.545 1_655 S
O372 C385 1.250 . S
O373 Gd319 2.412 . S
O373 C386 1.252 . S
C374 O363 1.284 . S
C374 O366 1.250 . S
C375 H344 0.929 . S
C375 C360 1.437 . S
C375 C376 1.317 . S
C376 H347 0.930 . S
C376 C352 1.431 . S
C376 C375 1.317 . S
C377 Gd318 2.828 . S
C377 O362 1.258 . S
C377 O367 1.252 1_655 S
C377 C378 1.497 . S
C378 C377 1.497 . S
C378 C379 1.395 . S
C378 C380 1.380 1_655 S
C379 C378 1.395 . S
C379 C382 1.398 . S
C379 H394 0.930 . S
C380 C378 1.380 1_455 S
C380 C381 1.391 . S
C380 H395 0.930 . S
C381 C380 1.391 . S
C381 C383 1.387 . S
C382 C379 1.398 . S
C382 C383 1.380 1_655 S
C382 H396 0.930 . S
C383 C381 1.387 . S
C383 C382 1.380 1_455 S
C383 H397 0.930 . S
C384 O364 1.254 1_554 S
C384 O365 1.268 . S
C385 O369 1.284 1_556 S
C385 O372 1.250 . S
C386 Gd319 2.828 . S
C386 O368 1.258 . S
C386 O373 1.252 . S
C386 C387 1.497 . S
C387 C386 1.497 . S
C387 C388 1.395 . S
C387 C389 1.380 1_455 S
C388 C387 1.395 . S
C388 C391 1.398 . S
C388 H398 0.930 . S
C389 C387 1.380 1_655 S
C389 C390 1.391 . S
C389 H399 0.930 . S
C390 C389 1.391 . S
C390 C392 1.387 1_655 S
C391 C388 1.398 . S
C391 C392 1.380 . S
C391 H400 0.930 . S
C392 C390 1.387 1_455 S
C392 C391 1.380 . S
C392 H401 0.930 . S
C393 O370 1.254 . S
C393 O371 1.268 1_554 S
H394 C379 0.930 . S
H395 C380 0.930 . S
H396 C382 0.930 . S
H397 C383 0.930 . S
H398 C388 0.930 . S
H399 C389 0.930 . S
H400 C391 0.930 . S
H401 C392 0.930 . S
Gd402 N433 2.663 . S
Gd402 N439 2.605 . S
Gd402 O446 2.557 . S
Gd402 O447 2.597 1_556 S
Gd402 O449 2.421 1_556 S
Gd402 O450 2.548 . S
Gd402 O451 2.426 . S
Gd402 O453 2.348 1_556 S
Gd402 O454 2.322 1_556 S
Gd402 C461 2.843 . S
Gd403 N412 2.661 . S
Gd403 N416 2.601 . S
Gd403 O447 2.362 . S
Gd403 O448 2.324 . S
Gd403 O452 2.545 . S
Gd403 O453 2.606 . S
Gd403 O455 2.429 . S
Gd403 O456 2.545 . S
Gd403 O457 2.412 . S
Gd403 C470 2.828 . S
C404 C407 1.417 . S
C404 C409 1.431 . S
C404 C410 1.412 . S
C405 C408 1.437 . S
C405 C409 1.317 . S
C405 H424 0.929 . S
C406 C407 1.426 . S
C406 C408 1.413 . S
C406 N416 1.359 . S
C407 C404 1.417 . S
C407 C406 1.426 . S
C407 N412 1.350 . S
C408 C405 1.437 . S
C408 C406 1.413 . S
C408 C418 1.391 . S
C409 C404 1.431 . S
C409 C405 1.317 . S
C409 H420 0.930 . S
C410 C404 1.412 . S
C410 C411 1.355 . S
C410 H422 0.930 . S
C411 C410 1.355 . S
C411 C413 1.402 . S
C411 H423 0.930 . S
N412 Gd403 2.661 . S
N412 C407 1.350 . S
N412 C413 1.307 . S
C413 C411 1.402 . S
C413 N412 1.307 . S
C413 H414 0.930 . S
H414 C413 0.930 . S
C415 N416 1.334 . S
C415 C417 1.394 . S
C415 H419 0.930 . S
N416 Gd403 2.601 . S
N416 C406 1.359 . S
N416 C415 1.334 . S
C417 C415 1.394 . S
C417 C418 1.359 . S
C417 H429 0.930 . S
C418 C408 1.391 . S
C418 C417 1.359 . S
C418 H430 0.929 . S
H419 C415 0.930 . S
H420 C409 0.930 . S
H421 C438 0.930 . S
H422 C410 0.930 . S
H423 C411 0.930 . S
H424 C405 0.929 . S
H425 C443 0.930 . S
H426 C434 0.930 . S
H427 C435 0.934 . S
H428 C459 0.929 . S
H429 C417 0.930 . S
H430 C418 0.929 . S
H431 C460 0.930 . S
H432 C441 0.930 . S
N433 Gd402 2.663 . S
N433 C437 1.350 . S
N433 C438 1.307 1_556 S
C434 H426 0.930 . S
C434 C435 1.347 1_556 S
C434 C436 1.412 . S
C435 H427 0.934 . S
C435 C434 1.347 1_554 S
C435 C438 1.406 . S
C436 C434 1.412 . S
C436 C437 1.417 . S
C436 C460 1.431 . S
C437 N433 1.350 . S
C437 C436 1.417 . S
C437 C440 1.426 . S
C438 H421 0.930 . S
C438 N433 1.307 1_554 S
C438 C435 1.406 . S
N439 Gd402 2.605 . S
N439 C440 1.359 . S
N439 C443 1.334 . S
C440 C437 1.426 . S
C440 N439 1.359 . S
C440 C444 1.413 . S
C441 H432 0.930 . S
C441 C442 1.359 . S
C441 C443 1.394 . S
C442 C441 1.359 . S
C442 C444 1.391 . S
C442 H445 0.929 . S
C443 H425 0.930 . S
C443 N439 1.334 . S
C443 C441 1.394 . S
C444 C440 1.413 . S
C444 C442 1.391 . S
C444 C459 1.437 . S
H445 C442 0.929 . S
O446 Gd402 2.557 . S
O446 C461 1.258 . S
O447 Gd402 2.597 1_554 S
O447 Gd403 2.362 . S
O447 C458 1.284 . S
O448 Gd403 2.324 . S
O448 C468 1.254 . S
O449 Gd402 2.421 1_554 S
O449 C468 1.268 . S
O450 Gd402 2.548 . S
O450 C458 1.250 1_556 S
O451 Gd402 2.426 . S
O451 C461 1.252 . S
O452 Gd403 2.545 . S
O452 C470 1.258 . S
O453 Gd402 2.348 1_554 S
O453 Gd403 2.606 . S
O453 C469 1.284 . S
O454 Gd402 2.322 1_554 S
O454 C477 1.254 . S
O455 Gd403 2.429 . S
O455 C477 1.268 . S
O456 Gd403 2.545 . S
O456 C469 1.250 . S
O457 Gd403 2.412 . S
O457 C470 1.252 . S
C458 O447 1.284 . S
C458 O450 1.250 1_554 S
C459 H428 0.929 . S
C459 C444 1.437 . S
C459 C460 1.317 . S
C460 H431 0.930 . S
C460 C436 1.431 . S
C460 C459 1.317 . S
C461 Gd402 2.843 . S
C461 O446 1.258 . S
C461 O451 1.252 . S
C461 C462 1.497 . S
C462 C461 1.497 . S
C462 C463 1.395 . S
C462 C464 1.380 . S
C463 C462 1.395 . S
C463 C466 1.398 . S
C463 H478 0.930 . S
C464 C462 1.380 . S
C464 C465 1.391 . S
C464 H479 0.930 . S
C465 C464 1.391 . S
C465 C467 1.387 . S
C466 C463 1.398 . S
C466 C467 1.380 . S
C466 H480 0.930 . S
C467 C465 1.387 . S
C467 C466 1.380 . S
C467 H481 0.930 . S
C468 O448 1.254 . S
C468 O449 1.268 . S
C469 O453 1.284 . S
C469 O456 1.250 . S
C470 Gd403 2.828 . S
C470 O452 1.258 . S
C470 O457 1.252 . S
C470 C471 1.497 . S
C471 C470 1.497 . S
C471 C472 1.395 . S
C471 C473 1.380 . S
C472 C471 1.395 . S
C472 C475 1.398 . S
C472 H482 0.930 . S
C473 C471 1.380 . S
C473 C474 1.391 . S
C473 H483 0.930 . S
C474 C473 1.391 . S
C474 C476 1.387 . S
C475 C472 1.398 . S
C475 C476 1.380 . S
C475 H484 0.930 . S
C476 C474 1.387 . S
C476 C475 1.380 . S
C476 H485 0.930 . S
C477 O454 1.254 . S
C477 O455 1.268 . S
H478 C463 0.930 . S
H479 C464 0.930 . S
H480 C466 0.930 . S
H481 C467 0.930 . S
H482 C472 0.930 . S
H483 C473 0.930 . S
H484 C475 0.930 . S
H485 C476 0.930 . S
Gd486 N517 2.661 . S
Gd486 N523 2.601 . S
Gd486 O530 2.545 . S
Gd486 O531 2.606 . S
Gd486 O533 2.429 . S
Gd486 O534 2.545 . S
Gd486 O535 2.412 . S
Gd486 O537 2.362 . S
Gd486 O538 2.324 . S
Gd486 C545 2.828 . S
Gd487 N496 2.661 . S
Gd487 N500 2.601 . S
Gd487 O531 2.362 . S
Gd487 O532 2.324 . S
Gd487 O536 2.545 . S
Gd487 O537 2.606 . S
Gd487 O539 2.429 . S
Gd487 O540 2.545 . S
Gd487 O541 2.412 . S
Gd487 C554 2.828 . S
C488 C491 1.417 . S
C488 C493 1.431 . S
C488 C494 1.412 . S
C489 C492 1.437 . S
C489 C493 1.317 . S
C489 H508 0.929 . S
C490 C491 1.426 . S
C490 C492 1.413 . S
C490 N500 1.359 . S
C491 C488 1.417 . S
C491 C490 1.426 . S
C491 N496 1.350 . S
C492 C489 1.437 . S
C492 C490 1.413 . S
C492 C502 1.391 . S
C493 C488 1.431 . S
C493 C489 1.317 . S
C493 H504 0.930 . S
C494 C488 1.412 . S
C494 C495 1.355 . S
C494 H506 0.930 . S
C495 C494 1.355 . S
C495 C497 1.402 . S
C495 H507 0.930 . S
N496 Gd487 2.661 . S
N496 C491 1.350 . S
N496 C497 1.307 . S
C497 C495 1.402 . S
C497 N496 1.307 . S
C497 H498 0.930 . S
H498 C497 0.930 . S
C499 N500 1.334 . S
C499 C501 1.394 . S
C499 H503 0.930 . S
N500 Gd487 2.601 . S
N500 C490 1.359 . S
N500 C499 1.334 . S
C501 C499 1.394 . S
C501 C502 1.359 . S
C501 H513 0.930 . S
C502 C492 1.391 . S
C502 C501 1.359 . S
C502 H514 0.929 . S
H503 C499 0.930 . S
H504 C493 0.930 . S
H505 C522 0.930 . S
H506 C494 0.930 . S
H507 C495 0.930 . S
H508 C489 0.929 . S
H509 C527 0.930 . S
H510 C518 0.930 . S
H511 C519 0.930 . S
H512 C543 0.929 . S
H513 C501 0.930 . S
H514 C502 0.929 . S
H515 C544 0.930 . S
H516 C525 0.930 . S
N517 Gd486 2.661 . S
N517 C521 1.350 . S
N517 C522 1.307 . S
C518 H510 0.930 . S
C518 C519 1.355 . S
C518 C520 1.412 . S
C519 H511 0.930 . S
C519 C518 1.355 . S
C519 C522 1.402 . S
C520 C518 1.412 . S
C520 C521 1.417 . S
C520 C544 1.431 . S
C521 N517 1.350 . S
C521 C520 1.417 . S
C521 C524 1.426 . S
C522 H505 0.930 . S
C522 N517 1.307 . S
C522 C519 1.402 . S
N523 Gd486 2.601 . S
N523 C524 1.359 . S
N523 C527 1.334 . S
C524 C521 1.426 . S
C524 N523 1.359 . S
C524 C528 1.413 . S
C525 H516 0.930 . S
C525 C526 1.359 . S
C525 C527 1.394 . S
C526 C525 1.359 . S
C526 C528 1.391 . S
C526 H529 0.929 . S
C527 H509 0.930 . S
C527 N523 1.334 . S
C527 C525 1.394 . S
C528 C524 1.413 . S
C528 C526 1.391 . S
C528 C543 1.437 . S
H529 C526 0.929 . S
O530 Gd486 2.545 . S
O530 C545 1.258 . S
O531 Gd486 2.606 . S
O531 Gd487 2.362 . S
O531 C542 1.284 . S
O532 Gd487 2.324 . S
O532 C552 1.254 . S
O533 Gd486 2.429 . S
O533 C552 1.268 . S
O534 Gd486 2.545 . S
O534 C542 1.250 . S
O535 Gd486 2.412 . S
O535 C545 1.252 . S
O536 Gd487 2.545 . S
O536 C554 1.258 . S
O537 Gd486 2.362 . S
O537 Gd487 2.606 . S
O537 C553 1.284 . S
O538 Gd486 2.324 . S
O538 C561 1.254 . S
O539 Gd487 2.429 . S
O539 C561 1.268 . S
O540 Gd487 2.545 . S
O540 C553 1.250 . S
O541 Gd487 2.412 . S
O541 C554 1.252 . S
C542 O531 1.284 . S
C542 O534 1.250 . S
C543 H512 0.929 . S
C543 C528 1.437 . S
C543 C544 1.317 . S
C544 H515 0.930 . S
C544 C520 1.431 . S
C544 C543 1.317 . S
C545 Gd486 2.828 . S
C545 O530 1.258 . S
C545 O535 1.252 . S
C545 C546 1.497 . S
C546 C545 1.497 . S
C546 C547 1.395 . S
C546 C548 1.380 . S
C547 C546 1.395 . S
C547 C550 1.398 . S
C547 H562 0.930 . S
C548 C546 1.380 . S
C548 C549 1.391 . S
C548 H563 0.930 . S
C549 C548 1.391 . S
C549 C551 1.387 . S
C550 C547 1.398 . S
C550 C551 1.380 . S
C550 H564 0.930 . S
C551 C549 1.387 . S
C551 C550 1.380 . S
C551 H565 0.930 . S
C552 O532 1.254 . S
C552 O533 1.268 . S
C553 O537 1.284 . S
C553 O540 1.250 . S
C554 Gd487 2.828 . S
C554 O536 1.258 . S
C554 O541 1.252 . S
C554 C555 1.497 . S
C555 C554 1.497 . S
C555 C556 1.395 . S
C555 C557 1.380 . S
C556 C555 1.395 . S
C556 C559 1.398 . S
C556 H566 0.930 . S
C557 C555 1.380 . S
C557 C558 1.391 . S
C557 H567 0.930 . S
C558 C557 1.391 . S
C558 C560 1.387 . S
C559 C556 1.398 . S
C559 C560 1.380 . S
C559 H568 0.930 . S
C560 C558 1.387 . S
C560 C559 1.380 . S
C560 H569 0.930 . S
C561 O538 1.254 . S
C561 O539 1.268 . S
H562 C547 0.930 . S
H563 C548 0.930 . S
H564 C550 0.930 . S
H565 C551 0.930 . S
H566 C556 0.930 . S
H567 C557 0.930 . S
H568 C559 0.930 . S
H569 C560 0.930 . S
Gd570 N601 2.661 . S
Gd570 N607 2.601 . S
Gd570 O614 2.545 . S
Gd570 O615 2.606 . S
Gd570 O617 2.429 . S
Gd570 O618 2.545 . S
Gd570 O619 2.412 . S
Gd570 O621 2.362 . S
Gd570 O622 2.324 . S
Gd570 C629 2.828 . S
Gd571 N580 2.661 . S
Gd571 N584 2.601 . S
Gd571 O615 2.362 . S
Gd571 O616 2.324 . S
Gd571 O620 2.545 . S
Gd571 O621 2.606 . S
Gd571 O623 2.429 . S
Gd571 O624 2.545 . S
Gd571 O625 2.412 . S
Gd571 C638 2.828 . S
C572 C575 1.417 . S
C572 C577 1.431 . S
C572 C578 1.412 . S
C573 C576 1.437 . S
C573 C577 1.317 . S
C573 H592 0.929 . S
C574 C575 1.426 . S
C574 C576 1.413 . S
C574 N584 1.359 . S
C575 C572 1.417 . S
C575 C574 1.426 . S
C575 N580 1.350 . S
C576 C573 1.437 . S
C576 C574 1.413 . S
C576 C586 1.391 . S
C577 C572 1.431 . S
C577 C573 1.317 . S
C577 H588 0.930 . S
C578 C572 1.412 . S
C578 C579 1.355 . S
C578 H590 0.930 . S
C579 C578 1.355 . S
C579 C581 1.402 . S
C579 H591 0.930 . S
N580 Gd571 2.661 . S
N580 C575 1.350 . S
N580 C581 1.307 . S
C581 C579 1.402 . S
C581 N580 1.307 . S
C581 H582 0.930 . S
H582 C581 0.930 . S
C583 N584 1.334 . S
C583 C585 1.394 . S
C583 H587 0.930 . S
N584 Gd571 2.601 . S
N584 C574 1.359 . S
N584 C583 1.334 . S
C585 C583 1.394 . S
C585 C586 1.359 . S
C585 H597 0.930 . S
C586 C576 1.391 . S
C586 C585 1.359 . S
C586 H598 0.929 . S
H587 C583 0.930 . S
H588 C577 0.930 . S
H589 C606 0.930 . S
H590 C578 0.930 . S
H591 C579 0.930 . S
H592 C573 0.929 . S
H593 C611 0.930 . S
H594 C602 0.930 . S
H595 C603 0.930 . S
H596 C627 0.929 . S
H597 C585 0.930 . S
H598 C586 0.929 . S
H599 C628 0.930 . S
H600 C609 0.930 . S
N601 Gd570 2.661 . S
N601 C605 1.350 . S
N601 C606 1.307 . S
C602 H594 0.930 . S
C602 C603 1.355 . S
C602 C604 1.412 . S
C603 H595 0.930 . S
C603 C602 1.355 . S
C603 C606 1.402 . S
C604 C602 1.412 . S
C604 C605 1.417 . S
C604 C628 1.431 . S
C605 N601 1.350 . S
C605 C604 1.417 . S
C605 C608 1.426 . S
C606 H589 0.930 . S
C606 N601 1.307 . S
C606 C603 1.402 . S
N607 Gd570 2.601 . S
N607 C608 1.359 . S
N607 C611 1.334 . S
C608 C605 1.426 . S
C608 N607 1.359 . S
C608 C612 1.413 . S
C609 H600 0.930 . S
C609 C610 1.359 . S
C609 C611 1.394 . S
C610 C609 1.359 . S
C610 C612 1.391 . S
C610 H613 0.929 . S
C611 H593 0.930 . S
C611 N607 1.334 . S
C611 C609 1.394 . S
C612 C608 1.413 . S
C612 C610 1.391 . S
C612 C627 1.437 . S
H613 C610 0.929 . S
O614 Gd570 2.545 . S
O614 C629 1.258 . S
O615 Gd570 2.606 . S
O615 Gd571 2.362 . S
O615 C626 1.284 . S
O616 Gd571 2.324 . S
O616 C636 1.254 . S
O617 Gd570 2.429 . S
O617 C636 1.268 . S
O618 Gd570 2.545 . S
O618 C626 1.250 . S
O619 Gd570 2.412 . S
O619 C629 1.252 . S
O620 Gd571 2.545 . S
O620 C638 1.258 . S
O621 Gd570 2.362 . S
O621 Gd571 2.606 . S
O621 C637 1.284 . S
O622 Gd570 2.324 . S
O622 C645 1.254 . S
O623 Gd571 2.429 . S
O623 C645 1.268 . S
O624 Gd571 2.545 . S
O624 C637 1.250 . S
O625 Gd571 2.412 . S
O625 C638 1.252 . S
C626 O615 1.284 . S
C626 O618 1.250 . S
C627 H596 0.929 . S
C627 C612 1.437 . S
C627 C628 1.317 . S
C628 H599 0.930 . S
C628 C604 1.431 . S
C628 C627 1.317 . S
C629 Gd570 2.828 . S
C629 O614 1.258 . S
C629 O619 1.252 . S
C629 C630 1.497 . S
C630 C629 1.497 . S
C630 C631 1.395 . S
C630 C632 1.380 . S
C631 C630 1.395 . S
C631 C634 1.398 . S
C631 H646 0.930 . S
C632 C630 1.380 . S
C632 C633 1.391 . S
C632 H647 0.930 . S
C633 C632 1.391 . S
C633 C635 1.387 . S
C634 C631 1.398 . S
C634 C635 1.380 . S
C634 H648 0.930 . S
C635 C633 1.387 . S
C635 C634 1.380 . S
C635 H649 0.930 . S
C636 O616 1.254 . S
C636 O617 1.268 . S
C637 O621 1.284 . S
C637 O624 1.250 . S
C638 Gd571 2.828 . S
C638 O620 1.258 . S
C638 O625 1.252 . S
C638 C639 1.497 . S
C639 C638 1.497 . S
C639 C640 1.395 . S
C639 C641 1.380 . S
C640 C639 1.395 . S
C640 C643 1.398 . S
C640 H650 0.930 . S
C641 C639 1.380 . S
C641 C642 1.391 . S
C641 H651 0.930 . S
C642 C641 1.391 . S
C642 C644 1.387 . S
C643 C640 1.398 . S
C643 C644 1.380 . S
C643 H652 0.930 . S
C644 C642 1.387 . S
C644 C643 1.380 . S
C644 H653 0.930 . S
C645 O622 1.254 . S
C645 O623 1.268 . S
H646 C631 0.930 . S
H647 C632 0.930 . S
H648 C634 0.930 . S
H649 C635 0.930 . S
H650 C640 0.930 . S
H651 C641 0.930 . S
H652 C643 0.930 . S
H653 C644 0.930 . S
Gd654 N685 2.661 . S
Gd654 N691 2.601 . S
Gd654 O698 2.545 . S
Gd654 O699 2.606 . S
Gd654 O701 2.429 . S
Gd654 O702 2.545 . S
Gd654 O703 2.412 . S
Gd654 O705 2.362 . S
Gd654 O706 2.324 . S
Gd654 C713 2.828 . S
Gd655 N664 2.661 . S
Gd655 N668 2.601 . S
Gd655 O699 2.362 . S
Gd655 O700 2.324 . S
Gd655 O704 2.545 . S
Gd655 O705 2.606 . S
Gd655 O707 2.429 . S
Gd655 O708 2.545 . S
Gd655 O709 2.412 . S
Gd655 C722 2.828 . S
C656 C659 1.417 . S
C656 C661 1.431 . S
C656 C662 1.412 . S
C657 C660 1.437 . S
C657 C661 1.317 . S
C657 H676 0.929 . S
C658 C659 1.426 . S
C658 C660 1.413 . S
C658 N668 1.359 . S
C659 C656 1.417 . S
C659 C658 1.426 . S
C659 N664 1.350 . S
C660 C657 1.437 . S
C660 C658 1.413 . S
C660 C670 1.391 . S
C661 C656 1.431 . S
C661 C657 1.317 . S
C661 H672 0.930 . S
C662 C656 1.412 . S
C662 C663 1.355 . S
C662 H674 0.930 . S
C663 C662 1.355 . S
C663 C665 1.402 . S
C663 H675 0.930 . S
N664 Gd655 2.661 . S
N664 C659 1.350 . S
N664 C665 1.307 . S
C665 C663 1.402 . S
C665 N664 1.307 . S
C665 H666 0.930 . S
H666 C665 0.930 . S
C667 N668 1.334 . S
C667 C669 1.394 . S
C667 H671 0.930 . S
N668 Gd655 2.601 . S
N668 C658 1.359 . S
N668 C667 1.334 . S
C669 C667 1.394 . S
C669 C670 1.359 . S
C669 H681 0.930 . S
C670 C660 1.391 . S
C670 C669 1.359 . S
C670 H682 0.929 . S
H671 C667 0.930 . S
H672 C661 0.930 . S
H673 C690 0.930 . S
H674 C662 0.930 . S
H675 C663 0.930 . S
H676 C657 0.929 . S
H677 C695 0.930 . S
H678 C686 0.930 . S
H679 C687 0.930 . S
H680 C711 0.929 . S
H681 C669 0.930 . S
H682 C670 0.929 . S
H683 C712 0.930 . S
H684 C693 0.930 . S
N685 Gd654 2.661 . S
N685 C689 1.350 . S
N685 C690 1.307 . S
C686 H678 0.930 . S
C686 C687 1.355 . S
C686 C688 1.412 . S
C687 H679 0.930 . S
C687 C686 1.355 . S
C687 C690 1.402 . S
C688 C686 1.412 . S
C688 C689 1.417 . S
C688 C712 1.431 . S
C689 N685 1.350 . S
C689 C688 1.417 . S
C689 C692 1.426 . S
C690 H673 0.930 . S
C690 N685 1.307 . S
C690 C687 1.402 . S
N691 Gd654 2.601 . S
N691 C692 1.359 . S
N691 C695 1.334 . S
C692 C689 1.426 . S
C692 N691 1.359 . S
C692 C696 1.413 . S
C693 H684 0.930 . S
C693 C694 1.359 . S
C693 C695 1.394 . S
C694 C693 1.359 . S
C694 C696 1.391 . S
C694 H697 0.929 . S
C695 H677 0.930 . S
C695 N691 1.334 . S
C695 C693 1.394 . S
C696 C692 1.413 . S
C696 C694 1.391 . S
C696 C711 1.437 . S
H697 C694 0.929 . S
O698 Gd654 2.545 . S
O698 C713 1.258 . S
O699 Gd654 2.606 . S
O699 Gd655 2.362 . S
O699 C710 1.284 . S
O700 Gd655 2.324 . S
O700 C720 1.254 . S
O701 Gd654 2.429 . S
O701 C720 1.268 . S
O702 Gd654 2.545 . S
O702 C710 1.250 . S
O703 Gd654 2.412 . S
O703 C713 1.252 . S
O704 Gd655 2.545 . S
O704 C722 1.258 . S
O705 Gd654 2.362 . S
O705 Gd655 2.606 . S
O705 C721 1.284 . S
O706 Gd654 2.324 . S
O706 C729 1.254 . S
O707 Gd655 2.429 . S
O707 C729 1.268 . S
O708 Gd655 2.545 . S
O708 C721 1.250 . S
O709 Gd655 2.412 . S
O709 C722 1.252 . S
C710 O699 1.284 . S
C710 O702 1.250 . S
C711 H680 0.929 . S
C711 C696 1.437 . S
C711 C712 1.317 . S
C712 H683 0.930 . S
C712 C688 1.431 . S
C712 C711 1.317 . S
C713 Gd654 2.828 . S
C713 O698 1.258 . S
C713 O703 1.252 . S
C713 C714 1.497 . S
C714 C713 1.497 . S
C714 C715 1.395 . S
C714 C716 1.380 . S
C715 C714 1.395 . S
C715 C718 1.398 . S
C715 H730 0.930 . S
C716 C714 1.380 . S
C716 C717 1.391 . S
C716 H731 0.930 . S
C717 C716 1.391 . S
C717 C719 1.387 . S
C718 C715 1.398 . S
C718 C719 1.380 . S
C718 H732 0.930 . S
C719 C717 1.387 . S
C719 C718 1.380 . S
C719 H733 0.930 . S
C720 O700 1.254 . S
C720 O701 1.268 . S
C721 O705 1.284 . S
C721 O708 1.250 . S
C722 Gd655 2.828 . S
C722 O704 1.258 . S
C722 O709 1.252 . S
C722 C723 1.497 . S
C723 C722 1.497 . S
C723 C724 1.395 . S
C723 C725 1.380 . S
C724 C723 1.395 . S
C724 C727 1.398 . S
C724 H734 0.930 . S
C725 C723 1.380 . S
C725 C726 1.391 . S
C725 H735 0.930 . S
C726 C725 1.391 . S
C726 C728 1.387 . S
C727 C724 1.398 . S
C727 C728 1.380 . S
C727 H736 0.930 . S
C728 C726 1.387 . S
C728 C727 1.380 . S
C728 H737 0.930 . S
C729 O706 1.254 . S
C729 O707 1.268 . S
H730 C715 0.930 . S
H731 C716 0.930 . S
H732 C718 0.930 . S
H733 C719 0.930 . S
H734 C724 0.930 . S
H735 C725 0.930 . S
H736 C727 0.930 . S
H737 C728 0.930 . S
Gd738 N769 2.661 . S
Gd738 N775 2.601 . S
Gd738 O782 2.545 . S
Gd738 O783 2.606 . S
Gd738 O785 2.429 . S
Gd738 O786 2.545 . S
Gd738 O787 2.412 . S
Gd738 O789 2.362 . S
Gd738 O790 2.324 . S
Gd738 C797 2.828 . S
Gd739 N748 2.661 . S
Gd739 N752 2.601 . S
Gd739 O783 2.362 . S
Gd739 O784 2.324 . S
Gd739 O788 2.545 . S
Gd739 O789 2.606 . S
Gd739 O791 2.429 . S
Gd739 O792 2.545 . S
Gd739 O793 2.412 . S
Gd739 C806 2.828 . S
C740 C743 1.417 . S
C740 C745 1.431 . S
C740 C746 1.412 . S
C741 C744 1.437 . S
C741 C745 1.317 . S
C741 H760 0.929 . S
C742 C743 1.426 . S
C742 C744 1.413 . S
C742 N752 1.359 . S
C743 C740 1.417 . S
C743 C742 1.426 . S
C743 N748 1.350 . S
C744 C741 1.437 . S
C744 C742 1.413 . S
C744 C754 1.391 . S
C745 C740 1.431 . S
C745 C741 1.317 . S
C745 H756 0.930 . S
C746 C740 1.412 . S
C746 C747 1.355 . S
C746 H758 0.930 . S
C747 C746 1.355 . S
C747 C749 1.402 . S
C747 H759 0.930 . S
N748 Gd739 2.661 . S
N748 C743 1.350 . S
N748 C749 1.307 . S
C749 C747 1.402 . S
C749 N748 1.307 . S
C749 H750 0.930 . S
H750 C749 0.930 . S
C751 N752 1.334 . S
C751 C753 1.394 . S
C751 H755 0.930 . S
N752 Gd739 2.601 . S
N752 C742 1.359 . S
N752 C751 1.334 . S
C753 C751 1.394 . S
C753 C754 1.359 . S
C753 H765 0.930 . S
C754 C744 1.391 . S
C754 C753 1.359 . S
C754 H766 0.929 . S
H755 C751 0.930 . S
H756 C745 0.930 . S
H757 C774 0.930 . S
H758 C746 0.930 . S
H759 C747 0.930 . S
H760 C741 0.929 . S
H761 C779 0.930 . S
H762 C770 0.930 1_455 S
H763 C771 0.930 . S
H764 C795 0.929 . S
H765 C753 0.930 . S
H766 C754 0.929 . S
H767 C796 0.930 . S
H768 C777 0.930 . S
N769 Gd738 2.661 . S
N769 C773 1.350 . S
N769 C774 1.307 . S
C770 H762 0.930 1_655 S
C770 C771 1.355 . S
C770 C772 1.412 . S
C771 H763 0.930 . S
C771 C770 1.355 . S
C771 C774 1.402 . S
C772 C770 1.412 . S
C772 C773 1.417 . S
C772 C796 1.431 . S
C773 N769 1.350 . S
C773 C772 1.417 . S
C773 C776 1.426 . S
C774 H757 0.930 . S
C774 N769 1.307 . S
C774 C771 1.402 . S
N775 Gd738 2.601 . S
N775 C776 1.359 . S
N775 C779 1.334 . S
C776 C773 1.426 . S
C776 N775 1.359 . S
C776 C780 1.413 . S
C777 H768 0.930 . S
C777 C778 1.359 . S
C777 C779 1.394 . S
C778 C777 1.359 . S
C778 C780 1.391 . S
C778 H781 0.929 . S
C779 H761 0.930 . S
C779 N775 1.334 . S
C779 C777 1.394 . S
C780 C776 1.413 . S
C780 C778 1.391 . S
C780 C795 1.437 . S
H781 C778 0.929 . S
O782 Gd738 2.545 . S
O782 C797 1.258 . S
O783 Gd738 2.606 . S
O783 Gd739 2.362 . S
O783 C794 1.284 . S
O784 Gd739 2.324 . S
O784 C804 1.254 . S
O785 Gd738 2.429 . S
O785 C804 1.268 . S
O786 Gd738 2.545 . S
O786 C794 1.250 . S
O787 Gd738 2.412 . S
O787 C797 1.252 . S
O788 Gd739 2.545 . S
O788 C806 1.258 . S
O789 Gd738 2.362 . S
O789 Gd739 2.606 . S
O789 C805 1.284 . S
O790 Gd738 2.324 . S
O790 C813 1.254 . S
O791 Gd739 2.429 . S
O791 C813 1.268 . S
O792 Gd739 2.545 . S
O792 C805 1.250 . S
O793 Gd739 2.412 . S
O793 C806 1.252 . S
C794 O783 1.284 . S
C794 O786 1.250 . S
C795 H764 0.929 . S
C795 C780 1.437 . S
C795 C796 1.317 . S
C796 H767 0.930 . S
C796 C772 1.431 . S
C796 C795 1.317 . S
C797 Gd738 2.828 . S
C797 O782 1.258 . S
C797 O787 1.252 . S
C797 C798 1.497 . S
C798 C797 1.497 . S
C798 C799 1.395 . S
C798 C800 1.380 . S
C799 C798 1.395 . S
C799 C802 1.398 . S
C799 H814 0.930 . S
C800 C798 1.380 . S
C800 C801 1.391 . S
C800 H815 0.930 . S
C801 C800 1.391 . S
C801 C803 1.387 . S
C802 C799 1.398 . S
C802 C803 1.380 . S
C802 H816 0.930 . S
C803 C801 1.387 . S
C803 C802 1.380 . S
C803 H817 0.930 . S
C804 O784 1.254 . S
C804 O785 1.268 . S
C805 O789 1.284 . S
C805 O792 1.250 . S
C806 Gd739 2.828 . S
C806 O788 1.258 . S
C806 O793 1.252 . S
C806 C807 1.497 . S
C807 C806 1.497 . S
C807 C808 1.395 . S
C807 C809 1.380 . S
C808 C807 1.395 . S
C808 C811 1.398 . S
C808 H818 0.930 . S
C809 C807 1.380 . S
C809 C810 1.391 . S
C809 H819 0.930 . S
C810 C809 1.391 . S
C810 C812 1.387 . S
C811 C808 1.398 . S
C811 C812 1.380 . S
C811 H820 0.930 . S
C812 C810 1.387 . S
C812 C811 1.380 . S
C812 H821 0.930 . S
C813 O790 1.254 . S
C813 O791 1.268 . S
H814 C799 0.930 . S
H815 C800 0.930 . S
H816 C802 0.930 . S
H817 C803 0.930 . S
H818 C808 0.930 . S
H819 C809 0.930 . S
H820 C811 0.930 . S
H821 C812 0.930 . S
Gd822 N853 2.661 . S
Gd822 N859 2.601 . S
Gd822 O866 2.545 . S
Gd822 O867 2.606 . S
Gd822 O869 2.429 . S
Gd822 O870 2.545 . S
Gd822 O871 2.412 . S
Gd822 O873 2.362 . S
Gd822 O874 2.324 . S
Gd822 C881 2.828 . S
Gd823 N832 2.661 . S
Gd823 N836 2.601 . S
Gd823 O867 2.362 . S
Gd823 O868 2.324 . S
Gd823 O872 2.545 . S
Gd823 O873 2.606 . S
Gd823 O875 2.429 . S
Gd823 O876 2.545 . S
Gd823 O877 2.412 . S
Gd823 C890 2.828 . S
C824 C827 1.417 . S
C824 C829 1.431 . S
C824 C830 1.412 . S
C825 C828 1.437 . S
C825 C829 1.317 . S
C825 H844 0.929 . S
C826 C827 1.426 . S
C826 C828 1.413 . S
C826 N836 1.359 . S
C827 C824 1.417 . S
C827 C826 1.426 . S
C827 N832 1.350 . S
C828 C825 1.437 . S
C828 C826 1.413 . S
C828 C838 1.391 . S
C829 C824 1.431 . S
C829 C825 1.317 . S
C829 H840 0.930 . S
C830 C824 1.412 . S
C830 C831 1.355 . S
C830 H842 0.930 . S
C831 C830 1.355 . S
C831 C833 1.402 . S
C831 H843 0.930 . S
N832 Gd823 2.661 . S
N832 C827 1.350 . S
N832 C833 1.307 . S
C833 C831 1.402 . S
C833 N832 1.307 . S
C833 H834 0.930 . S
H834 C833 0.930 . S
C835 N836 1.334 . S
C835 C837 1.394 . S
C835 H839 0.930 . S
N836 Gd823 2.601 . S
N836 C826 1.359 . S
N836 C835 1.334 . S
C837 C835 1.394 . S
C837 C838 1.359 . S
C837 H849 0.930 . S
C838 C828 1.391 . S
C838 C837 1.359 . S
C838 H850 0.929 . S
H839 C835 0.930 . S
H840 C829 0.930 . S
H841 C858 0.930 . S
H842 C830 0.930 . S
H843 C831 0.930 . S
H844 C825 0.929 . S
H845 C863 0.930 . S
H846 C854 0.930 . S
H847 C855 0.930 . S
H848 C879 0.929 . S
H849 C837 0.930 . S
H850 C838 0.929 . S
H851 C880 0.930 . S
H852 C861 0.930 . S
N853 Gd822 2.661 . S
N853 C857 1.350 . S
N853 C858 1.307 . S
C854 H846 0.930 . S
C854 C855 1.355 . S
C854 C856 1.412 . S
C855 H847 0.930 . S
C855 C854 1.355 . S
C855 C858 1.402 . S
C856 C854 1.412 . S
C856 C857 1.417 . S
C856 C880 1.431 . S
C857 N853 1.350 . S
C857 C856 1.417 . S
C857 C860 1.426 . S
C858 H841 0.930 . S
C858 N853 1.307 . S
C858 C855 1.402 . S
N859 Gd822 2.601 . S
N859 C860 1.359 . S
N859 C863 1.334 . S
C860 C857 1.426 . S
C860 N859 1.359 . S
C860 C864 1.413 . S
C861 H852 0.930 . S
C861 C862 1.359 . S
C861 C863 1.394 . S
C862 C861 1.359 . S
C862 C864 1.391 . S
C862 H865 0.929 . S
C863 H845 0.930 . S
C863 N859 1.334 . S
C863 C861 1.394 . S
C864 C860 1.413 . S
C864 C862 1.391 . S
C864 C879 1.437 . S
H865 C862 0.929 . S
O866 Gd822 2.545 . S
O866 C881 1.258 . S
O867 Gd822 2.606 . S
O867 Gd823 2.362 . S
O867 C878 1.284 . S
O868 Gd823 2.324 . S
O868 C888 1.254 . S
O869 Gd822 2.429 . S
O869 C888 1.268 . S
O870 Gd822 2.545 . S
O870 C878 1.250 . S
O871 Gd822 2.412 . S
O871 C881 1.252 . S
O872 Gd823 2.545 . S
O872 C890 1.258 . S
O873 Gd822 2.362 . S
O873 Gd823 2.606 . S
O873 C889 1.284 . S
O874 Gd822 2.324 . S
O874 C897 1.254 . S
O875 Gd823 2.429 . S
O875 C897 1.268 . S
O876 Gd823 2.545 . S
O876 C889 1.250 . S
O877 Gd823 2.412 . S
O877 C890 1.252 . S
C878 O867 1.284 . S
C878 O870 1.250 . S
C879 H848 0.929 . S
C879 C864 1.437 . S
C879 C880 1.317 . S
C880 H851 0.930 . S
C880 C856 1.431 . S
C880 C879 1.317 . S
C881 Gd822 2.828 . S
C881 O866 1.258 . S
C881 O871 1.252 . S
C881 C882 1.497 . S
C882 C881 1.497 . S
C882 C883 1.395 . S
C882 C884 1.380 . S
C883 C882 1.395 . S
C883 C886 1.398 . S
C883 H898 0.930 . S
C884 C882 1.380 . S
C884 C885 1.391 . S
C884 H899 0.930 . S
C885 C884 1.391 . S
C885 C887 1.387 . S
C886 C883 1.398 . S
C886 C887 1.380 . S
C886 H900 0.930 . S
C887 C885 1.387 . S
C887 C886 1.380 . S
C887 H901 0.930 . S
C888 O868 1.254 . S
C888 O869 1.268 . S
C889 O873 1.284 . S
C889 O876 1.250 . S
C890 Gd823 2.828 . S
C890 O872 1.258 . S
C890 O877 1.252 . S
C890 C891 1.497 . S
C891 C890 1.497 . S
C891 C892 1.395 . S
C891 C893 1.380 . S
C892 C891 1.395 . S
C892 C895 1.398 . S
C892 H902 0.930 . S
C893 C891 1.380 . S
C893 C894 1.391 . S
C893 H903 0.930 . S
C894 C893 1.391 . S
C894 C896 1.387 . S
C895 C892 1.398 . S
C895 C896 1.380 . S
C895 H904 0.930 . S
C896 C894 1.387 . S
C896 C895 1.380 . S
C896 H905 0.930 . S
C897 O874 1.254 . S
C897 O875 1.268 . S
H898 C883 0.930 . S
H899 C884 0.930 . S
H900 C886 0.930 . S
H901 C887 0.930 . S
H902 C892 0.930 . S
H903 C893 0.930 . S
H904 C895 0.930 . S
H905 C896 0.930 . S
Gd906 N937 2.661 . S
Gd906 N943 2.601 . S
Gd906 O950 2.545 . S
Gd906 O951 2.606 . S
Gd906 O953 2.429 . S
Gd906 O954 2.545 . S
Gd906 O955 2.412 . S
Gd906 O957 2.362 . S
Gd906 O958 2.324 . S
Gd906 C965 2.828 . S
Gd907 N916 2.661 . S
Gd907 N920 2.601 . S
Gd907 O951 2.362 . S
Gd907 O952 2.324 . S
Gd907 O956 2.545 . S
Gd907 O957 2.606 . S
Gd907 O959 2.429 . S
Gd907 O960 2.545 . S
Gd907 O961 2.412 . S
Gd907 C974 2.828 . S
C908 C911 1.417 . S
C908 C913 1.431 . S
C908 C914 1.412 . S
C909 C912 1.437 . S
C909 C913 1.317 . S
C909 H928 0.929 . S
C910 C911 1.426 . S
C910 C912 1.413 . S
C910 N920 1.359 . S
C911 C908 1.417 . S
C911 C910 1.426 . S
C911 N916 1.350 . S
C912 C909 1.437 . S
C912 C910 1.413 . S
C912 C922 1.391 . S
C913 C908 1.431 . S
C913 C909 1.317 . S
C913 H924 0.930 . S
C914 C908 1.412 . S
C914 C915 1.355 . S
C914 H926 0.930 . S
C915 C914 1.355 . S
C915 C917 1.402 . S
C915 H927 0.930 . S
N916 Gd907 2.661 . S
N916 C911 1.350 . S
N916 C917 1.307 . S
C917 C915 1.402 . S
C917 N916 1.307 . S
C917 H918 0.930 . S
H918 C917 0.930 . S
C919 N920 1.334 . S
C919 C921 1.394 . S
C919 H923 0.930 . S
N920 Gd907 2.601 . S
N920 C910 1.359 . S
N920 C919 1.334 . S
C921 C919 1.394 . S
C921 C922 1.359 . S
C921 H933 0.930 . S
C922 C912 1.391 . S
C922 C921 1.359 . S
C922 H934 0.929 . S
H923 C919 0.930 . S
H924 C913 0.930 . S
H925 C942 0.930 . S
H926 C914 0.930 . S
H927 C915 0.930 . S
H928 C909 0.929 . S
H929 C947 0.930 . S
H930 C938 0.930 . S
H931 C939 0.930 . S
H932 C963 0.929 . S
H933 C921 0.930 . S
H934 C922 0.929 . S
H935 C964 0.930 . S
H936 C945 0.930 . S
N937 Gd906 2.661 . S
N937 C941 1.350 . S
N937 C942 1.307 . S
C938 H930 0.930 . S
C938 C939 1.355 . S
C938 C940 1.412 . S
C939 H931 0.930 . S
C939 C938 1.355 . S
C939 C942 1.402 . S
C940 C938 1.412 . S
C940 C941 1.417 . S
C940 C964 1.431 . S
C941 N937 1.350 . S
C941 C940 1.417 . S
C941 C944 1.426 . S
C942 H925 0.930 . S
C942 N937 1.307 . S
C942 C939 1.402 . S
N943 Gd906 2.601 . S
N943 C944 1.359 . S
N943 C947 1.334 . S
C944 C941 1.426 . S
C944 N943 1.359 . S
C944 C948 1.413 . S
C945 H936 0.930 . S
C945 C946 1.359 . S
C945 C947 1.394 . S
C946 C945 1.359 . S
C946 C948 1.391 . S
C946 H949 0.929 . S
C947 H929 0.930 . S
C947 N943 1.334 . S
C947 C945 1.394 . S
C948 C944 1.413 . S
C948 C946 1.391 . S
C948 C963 1.437 . S
H949 C946 0.929 . S
O950 Gd906 2.545 . S
O950 C965 1.258 . S
O951 Gd906 2.606 . S
O951 Gd907 2.362 . S
O951 C962 1.284 . S
O952 Gd907 2.324 . S
O952 C972 1.254 . S
O953 Gd906 2.429 . S
O953 C972 1.268 . S
O954 Gd906 2.545 . S
O954 C962 1.250 . S
O955 Gd906 2.412 . S
O955 C965 1.252 . S
O956 Gd907 2.545 . S
O956 C974 1.258 . S
O957 Gd906 2.362 . S
O957 Gd907 2.606 . S
O957 C973 1.284 . S
O958 Gd906 2.324 . S
O958 C981 1.254 . S
O959 Gd907 2.429 . S
O959 C981 1.268 . S
O960 Gd907 2.545 . S
O960 C973 1.250 . S
O961 Gd907 2.412 . S
O961 C974 1.252 . S
C962 O951 1.284 . S
C962 O954 1.250 . S
C963 H932 0.929 . S
C963 C948 1.437 . S
C963 C964 1.317 . S
C964 H935 0.930 . S
C964 C940 1.431 . S
C964 C963 1.317 . S
C965 Gd906 2.828 . S
C965 O950 1.258 . S
C965 O955 1.252 . S
C965 C966 1.497 . S
C966 C965 1.497 . S
C966 C967 1.395 . S
C966 C968 1.380 . S
C967 C966 1.395 . S
C967 C970 1.398 . S
C967 H982 0.930 . S
C968 C966 1.380 . S
C968 C969 1.391 . S
C968 H983 0.930 . S
C969 C968 1.391 . S
C969 C971 1.387 . S
C970 C967 1.398 . S
C970 C971 1.380 . S
C970 H984 0.930 . S
C971 C969 1.387 . S
C971 C970 1.380 . S
C971 H985 0.930 . S
C972 O952 1.254 . S
C972 O953 1.268 . S
C973 O957 1.284 . S
C973 O960 1.250 . S
C974 Gd907 2.828 . S
C974 O956 1.258 . S
C974 O961 1.252 . S
C974 C975 1.497 . S
C975 C974 1.497 . S
C975 C976 1.395 . S
C975 C977 1.380 . S
C976 C975 1.395 . S
C976 C979 1.398 . S
C976 H986 0.930 . S
C977 C975 1.380 . S
C977 C978 1.391 . S
C977 H987 0.930 . S
C978 C977 1.391 . S
C978 C980 1.387 . S
C979 C976 1.398 . S
C979 C980 1.380 . S
C979 H988 0.930 . S
C980 C978 1.387 . S
C980 C979 1.380 . S
C980 H989 0.930 . S
C981 O958 1.254 . S
C981 O959 1.268 . S
H982 C967 0.930 . S
H983 C968 0.930 . S
H984 C970 0.930 . S
H985 C971 0.930 . S
H986 C976 0.930 . S
H987 C977 0.930 . S
H988 C979 0.930 . S
H989 C980 0.930 . S
H990 C998 0.950 . S
H991 C1003 0.950 . S
H992 C1000 0.950 . S
H993 C1002 0.950 . S
H994 C1004 0.950 . S
H995 C1006 0.950 . S
H996 C1008 0.950 . S
H997 C1009 0.950 . S
C998 H990 0.950 . S
C998 C999 1.386 . S
C998 C1000 1.391 . S
C999 C998 1.386 . S
C999 C1003 1.393 . S
C1000 H992 0.950 . S
C1000 C998 1.391 . S
C1000 C1001 1.400 . S
C1001 C1000 1.400 . S
C1001 C1002 1.398 . S
C1001 C1007 1.491 . S
C1002 H993 0.950 . S
C1002 C1001 1.398 . S
C1002 C1003 1.391 . S
C1003 H991 0.950 . S
C1003 C999 1.393 . S
C1003 C1002 1.391 . S
C1004 H994 0.950 . S
C1004 C1005 1.386 . S
C1004 C1006 1.391 . S
C1005 C1004 1.386 . S
C1005 C1009 1.393 . S
C1006 H995 0.950 . S
C1006 C1004 1.391 . S
C1006 C1007 1.400 . S
C1007 C1001 1.491 . S
C1007 C1006 1.400 . S
C1007 C1008 1.398 . S
C1008 H996 0.950 . S
C1008 C1007 1.398 . S
C1008 C1009 1.391 . S
C1009 H997 0.950 . S
C1009 C1005 1.393 . S
C1009 C1008 1.391 . S
H1010 C1018 0.950 . S
H1011 C1023 0.950 . S
H1012 C1020 0.950 . S
H1013 C1022 0.950 . S
H1014 C1024 0.950 . S
H1015 C1026 0.950 . S
H1016 C1028 0.950 . S
H1017 C1029 0.950 . S
C1018 H1010 0.950 . S
C1018 C1019 1.386 . S
C1018 C1020 1.391 . S
C1019 C1018 1.386 . S
C1019 C1023 1.393 . S
C1020 H1012 0.950 . S
C1020 C1018 1.391 . S
C1020 C1021 1.400 . S
C1021 C1020 1.400 . S
C1021 C1022 1.398 . S
C1021 C1027 1.491 . S
C1022 H1013 0.950 . S
C1022 C1021 1.398 . S
C1022 C1023 1.391 . S
C1023 H1011 0.950 . S
C1023 C1019 1.393 . S
C1023 C1022 1.391 . S
C1024 H1014 0.950 . S
C1024 C1025 1.386 . S
C1024 C1026 1.391 . S
C1025 C1024 1.386 . S
C1025 C1029 1.393 . S
C1026 H1015 0.950 . S
C1026 C1024 1.391 . S
C1026 C1027 1.400 . S
C1027 C1021 1.491 . S
C1027 C1026 1.400 . S
C1027 C1028 1.398 . S
C1028 H1016 0.950 . S
C1028 C1027 1.398 . S
C1028 C1029 1.391 . S
C1029 H1017 0.950 . S
C1029 C1025 1.393 . S
C1029 C1028 1.391 . S
H1030 C1038 0.950 . S
H1031 C1043 0.950 . S
H1032 C1040 0.950 . S
H1033 C1042 0.950 . S
H1034 C1044 0.950 . S
H1035 C1046 0.950 . S
H1036 C1048 0.950 . S
H1037 C1049 0.950 . S
C1038 H1030 0.950 . S
C1038 C1039 1.386 . S
C1038 C1040 1.391 . S
C1039 C1038 1.386 . S
C1039 C1043 1.393 . S
C1040 H1032 0.950 . S
C1040 C1038 1.391 . S
C1040 C1041 1.400 . S
C1041 C1040 1.400 . S
C1041 C1042 1.398 . S
C1041 C1047 1.491 . S
C1042 H1033 0.950 . S
C1042 C1041 1.398 . S
C1042 C1043 1.391 . S
C1043 H1031 0.950 . S
C1043 C1039 1.393 . S
C1043 C1042 1.391 . S
C1044 H1034 0.950 . S
C1044 C1045 1.386 . S
C1044 C1046 1.391 . S
C1045 C1044 1.386 . S
C1045 C1049 1.393 . S
C1046 H1035 0.950 . S
C1046 C1044 1.391 . S
C1046 C1047 1.400 . S
C1047 C1041 1.491 . S
C1047 C1046 1.400 . S
C1047 C1048 1.398 . S
C1048 H1036 0.950 . S
C1048 C1047 1.398 . S
C1048 C1049 1.391 . S
C1049 H1037 0.950 . S
C1049 C1045 1.393 . S
C1049 C1048 1.391 . S
H1050 C1058 0.950 . S
H1051 C1063 0.950 1_554 S
H1052 C1060 0.950 . S
H1053 C1062 0.950 . S
H1054 C1064 0.950 . S
H1055 C1066 0.950 . S
H1056 C1068 0.950 . S
H1057 C1069 0.950 . S
C1058 H1050 0.950 . S
C1058 C1059 1.386 . S
C1058 C1060 1.391 . S
C1059 C1058 1.386 . S
C1059 C1063 1.393 . S
C1060 H1052 0.950 . S
C1060 C1058 1.391 . S
C1060 C1061 1.400 . S
C1061 C1060 1.400 . S
C1061 C1062 1.398 1_556 S
C1061 C1067 1.491 . S
C1062 H1053 0.950 . S
C1062 C1061 1.398 1_554 S
C1062 C1063 1.391 1_554 S
C1063 H1051 0.950 1_556 S
C1063 C1059 1.393 . S
C1063 C1062 1.391 1_556 S
C1064 H1054 0.950 . S
C1064 C1065 1.386 1_554 S
C1064 C1066 1.391 . S
C1065 C1064 1.386 1_556 S
C1065 C1069 1.393 . S
C1066 H1055 0.950 . S
C1066 C1064 1.391 . S
C1066 C1067 1.400 1_554 S
C1067 C1061 1.491 . S
C1067 C1066 1.400 1_556 S
C1067 C1068 1.398 . S
C1068 H1056 0.950 . S
C1068 C1067 1.398 . S
C1068 C1069 1.391 . S
C1069 H1057 0.950 . S
C1069 C1065 1.393 . S
C1069 C1068 1.391 . S
H1070 C1078 0.950 . S
H1071 C1083 0.950 . S
H1072 C1080 0.950 . S
H1073 C1082 0.950 . S
H1074 C1084 0.949 . S
H1075 C1086 0.950 . S
H1076 C1088 0.950 . S
H1077 C1089 0.950 . S
C1078 H1070 0.950 . S
C1078 C1079 1.386 . S
C1078 C1080 1.391 . S
C1079 C1078 1.386 . S
C1079 C1083 1.393 . S
C1080 H1072 0.950 . S
C1080 C1078 1.391 . S
C1080 C1081 1.400 . S
C1081 C1080 1.400 . S
C1081 C1082 1.398 . S
C1081 C1087 1.491 . S
C1082 H1073 0.950 . S
C1082 C1081 1.398 . S
C1082 C1083 1.391 . S
C1083 H1071 0.950 . S
C1083 C1079 1.393 . S
C1083 C1082 1.391 . S
C1084 H1074 0.949 . S
C1084 C1085 1.387 1_556 S
C1084 C1086 1.391 . S
C1085 C1084 1.387 1_554 S
C1085 C1089 1.393 . S
C1086 H1075 0.950 . S
C1086 C1084 1.391 . S
C1086 C1087 1.400 . S
C1087 C1081 1.491 . S
C1087 C1086 1.400 . S
C1087 C1088 1.398 1_556 S
C1088 H1076 0.950 . S
C1088 C1087 1.398 1_554 S
C1088 C1089 1.391 . S
C1089 H1077 0.950 . S
C1089 C1085 1.393 . S
C1089 C1088 1.391 . S
H1090 C1098 0.950 . S
H1091 C1103 0.950 . S
H1092 C1100 0.950 . S
H1093 C1102 0.952 . S
H1094 C1104 0.950 . S
H1095 C1106 0.950 . S
H1096 C1108 0.950 . S
H1097 C1109 0.950 . S
C1098 H1090 0.950 . S
C1098 C1099 1.386 . S
C1098 C1100 1.391 . S
C1099 C1098 1.386 . S
C1099 C1103 1.393 . S
C1100 H1092 0.950 . S
C1100 C1098 1.391 . S
C1100 C1101 1.400 . S
C1101 C1100 1.400 . S
C1101 C1102 1.398 . S
C1101 C1107 1.491 . S
C1102 H1093 0.952 . S
C1102 C1101 1.398 . S
C1102 C1103 1.391 . S
C1103 H1091 0.950 . S
C1103 C1099 1.393 . S
C1103 C1102 1.391 . S
C1104 H1094 0.950 . S
C1104 C1105 1.386 . S
C1104 C1106 1.391 . S
C1105 C1104 1.386 . S
C1105 C1109 1.393 1_554 S
C1106 H1095 0.950 . S
C1106 C1104 1.391 . S
C1106 C1107 1.400 1_554 S
C1107 C1101 1.491 . S
C1107 C1106 1.400 1_556 S
C1107 C1108 1.398 . S
C1108 H1096 0.950 . S
C1108 C1107 1.398 . S
C1108 C1109 1.391 . S
C1109 H1097 0.950 . S
C1109 C1105 1.393 1_556 S
C1109 C1108 1.391 . S
H1110 C1118 0.950 1_554 S
H1111 C1123 0.950 . S
H1112 C1120 0.948 1_554 S
H1113 C1122 0.950 . S
H1114 C1124 0.950 . S
H1115 C1126 0.950 . S
H1116 C1128 0.950 . S
H1117 C1129 0.950 . S
C1118 H1110 0.950 1_556 S
C1118 C1119 1.386 . S
C1118 C1120 1.392 . S
C1119 C1118 1.386 . S
C1119 C1123 1.393 . S
C1120 H1112 0.948 1_556 S
C1120 C1118 1.392 . S
C1120 C1121 1.402 . S
C1121 C1120 1.402 . S
C1121 C1122 1.398 . S
C1121 C1127 1.491 . S
C1122 H1113 0.950 . S
C1122 C1121 1.398 . S
C1122 C1123 1.391 . S
C1123 H1111 0.950 . S
C1123 C1119 1.393 . S
C1123 C1122 1.391 . S
C1124 H1114 0.950 . S
C1124 C1125 1.386 1_556 S
C1124 C1126 1.391 . S
C1125 C1124 1.386 1_554 S
C1125 C1129 1.393 . S
C1126 H1115 0.950 . S
C1126 C1124 1.391 . S
C1126 C1127 1.400 . S
C1127 C1121 1.491 . S
C1127 C1126 1.400 . S
C1127 C1128 1.398 1_556 S
C1128 H1116 0.950 . S
C1128 C1127 1.398 1_554 S
C1128 C1129 1.391 . S
C1129 H1117 0.950 . S
C1129 C1125 1.393 . S
C1129 C1128 1.391 . S
H1130 C1138 0.950 . S
H1131 C1143 0.950 . S
H1132 C1140 0.950 . S
H1133 C1142 0.950 . S
H1134 C1144 0.950 . S
H1135 C1146 0.950 . S
H1136 C1148 0.950 . S
H1137 C1149 0.950 1_554 S
C1138 H1130 0.950 . S
C1138 C1139 1.386 . S
C1138 C1140 1.391 . S
C1139 C1138 1.386 . S
C1139 C1143 1.393 . S
C1140 H1132 0.950 . S
C1140 C1138 1.391 . S
C1140 C1141 1.400 . S
C1141 C1140 1.400 . S
C1141 C1142 1.398 . S
C1141 C1147 1.491 . S
C1142 H1133 0.950 . S
C1142 C1141 1.398 . S
C1142 C1143 1.391 . S
C1143 H1131 0.950 . S
C1143 C1139 1.393 . S
C1143 C1142 1.391 . S
C1144 H1134 0.950 . S
C1144 C1145 1.386 . S
C1144 C1146 1.391 . S
C1145 C1144 1.386 . S
C1145 C1149 1.393 . S
C1146 H1135 0.950 . S
C1146 C1144 1.391 . S
C1146 C1147 1.400 . S
C1147 C1141 1.491 . S
C1147 C1146 1.400 . S
C1147 C1148 1.398 . S
C1148 H1136 0.950 . S
C1148 C1147 1.398 . S
C1148 C1149 1.391 . S
C1149 H1137 0.950 1_556 S
C1149 C1145 1.393 . S
C1149 C1148 1.391 . S
H1150 C1158 0.950 . S
H1151 C1163 0.950 . S
H1152 C1160 0.950 . S
H1153 C1162 0.950 . S
H1154 C1164 0.950 . S
H1155 C1166 0.950 . S
H1156 C1168 0.950 . S
H1157 C1169 0.950 . S
C1158 H1150 0.950 . S
C1158 C1159 1.386 . S
C1158 C1160 1.391 . S
C1159 C1158 1.386 . S
C1159 C1163 1.393 1_556 S
C1160 H1152 0.950 . S
C1160 C1158 1.391 . S
C1160 C1161 1.400 . S
C1161 C1160 1.400 . S
C1161 C1162 1.398 1_556 S
C1161 C1167 1.491 1_556 S
C1162 H1153 0.950 . S
C1162 C1161 1.398 1_554 S
C1162 C1163 1.391 . S
C1163 H1151 0.950 . S
C1163 C1159 1.393 1_554 S
C1163 C1162 1.391 . S
C1164 H1154 0.950 . S
C1164 C1165 1.386 . S
C1164 C1166 1.391 . S
C1165 C1164 1.386 . S
C1165 C1169 1.393 1_554 S
C1166 H1155 0.950 . S
C1166 C1164 1.391 . S
C1166 C1167 1.400 . S
C1167 C1161 1.491 1_554 S
C1167 C1166 1.400 . S
C1167 C1168 1.398 1_554 S
C1168 H1156 0.950 . S
C1168 C1167 1.398 1_556 S
C1168 C1169 1.391 . S
C1169 H1157 0.950 . S
C1169 C1165 1.393 1_556 S
C1169 C1168 1.391 . S
H1170 C1178 0.950 . S
H1171 C1183 0.950 . S
H1172 C1180 0.950 . S
H1173 C1182 0.950 . S
H1174 C1184 0.950 . S
H1175 C1186 0.950 . S
H1176 C1188 0.950 . S
H1177 C1189 0.950 1_556 S
C1178 H1170 0.950 . S
C1178 C1179 1.386 . S
C1178 C1180 1.391 . S
C1179 C1178 1.386 . S
C1179 C1183 1.393 . S
C1180 H1172 0.950 . S
C1180 C1178 1.391 . S
C1180 C1181 1.400 . S
C1181 C1180 1.400 . S
C1181 C1182 1.398 . S
C1181 C1187 1.491 . S
C1182 H1173 0.950 . S
C1182 C1181 1.398 . S
C1182 C1183 1.391 . S
C1183 H1171 0.950 . S
C1183 C1179 1.393 . S
C1183 C1182 1.391 . S
C1184 H1174 0.950 . S
C1184 C1185 1.386 . S
C1184 C1186 1.391 . S
C1185 C1184 1.386 . S
C1185 C1189 1.393 . S
C1186 H1175 0.950 . S
C1186 C1184 1.391 . S
C1186 C1187 1.400 . S
C1187 C1181 1.491 . S
C1187 C1186 1.400 . S
C1187 C1188 1.398 . S
C1188 H1176 0.950 . S
C1188 C1187 1.398 . S
C1188 C1189 1.391 . S
C1189 H1177 0.950 1_554 S
C1189 C1185 1.393 . S
C1189 C1188 1.391 . S
H1190 C1198 0.950 . S
H1191 C1203 0.950 . S
H1192 C1200 0.950 . S
H1193 C1202 0.950 . S
H1194 C1204 0.950 . S
H1195 C1206 0.950 . S
H1196 C1208 0.950 . S
H1197 C1209 0.950 . S
C1198 H1190 0.950 . S
C1198 C1199 1.386 . S
C1198 C1200 1.391 . S
C1199 C1198 1.386 . S
C1199 C1203 1.393 . S
C1200 H1192 0.950 . S
C1200 C1198 1.391 . S
C1200 C1201 1.400 . S
C1201 C1200 1.400 . S
C1201 C1202 1.398 . S
C1201 C1207 1.491 . S
C1202 H1193 0.950 . S
C1202 C1201 1.398 . S
C1202 C1203 1.391 . S
C1203 H1191 0.950 . S
C1203 C1199 1.393 . S
C1203 C1202 1.391 . S
C1204 H1194 0.950 . S
C1204 C1205 1.386 . S
C1204 C1206 1.391 . S
C1205 C1204 1.386 . S
C1205 C1209 1.393 . S
C1206 H1195 0.950 . S
C1206 C1204 1.391 . S
C1206 C1207 1.400 . S
C1207 C1201 1.491 . S
C1207 C1206 1.400 . S
C1207 C1208 1.398 . S
C1208 H1196 0.950 . S
C1208 C1207 1.398 . S
C1208 C1209 1.391 . S
C1209 H1197 0.950 . S
C1209 C1205 1.393 . S
C1209 C1208 1.391 . S
H1210 C1218 0.950 . S
H1211 C1223 0.950 . S
H1212 C1220 0.950 . S
H1213 C1222 0.950 . S
H1214 C1224 0.950 . S
H1215 C1226 0.950 . S
H1216 C1228 0.950 . S
H1217 C1229 0.950 . S
C1218 H1210 0.950 . S
C1218 C1219 1.386 . S
C1218 C1220 1.391 . S
C1219 C1218 1.386 . S
C1219 C1223 1.393 . S
C1220 H1212 0.950 . S
C1220 C1218 1.391 . S
C1220 C1221 1.400 . S
C1221 C1220 1.400 . S
C1221 C1222 1.398 . S
C1221 C1227 1.491 . S
C1222 H1213 0.950 . S
C1222 C1221 1.398 . S
C1222 C1223 1.391 . S
C1223 H1211 0.950 . S
C1223 C1219 1.393 . S
C1223 C1222 1.391 . S
C1224 H1214 0.950 . S
C1224 C1225 1.386 . S
C1224 C1226 1.391 . S
C1225 C1224 1.386 . S
C1225 C1229 1.393 . S
C1226 H1215 0.950 . S
C1226 C1224 1.391 . S
C1226 C1227 1.400 . S
C1227 C1221 1.491 . S
C1227 C1226 1.400 . S
C1227 C1228 1.398 . S
C1228 H1216 0.950 . S
C1228 C1227 1.398 . S
C1228 C1229 1.391 . S
C1229 H1217 0.950 . S
C1229 C1225 1.393 . S
C1229 C1228 1.391 . S
H1230 C1238 0.950 . S
H1231 C1243 0.950 . S
H1232 C1240 0.950 . S
H1233 C1242 0.950 1_455 S
H1234 C1244 0.950 . S
H1235 C1246 0.950 . S
H1236 C1248 0.950 . S
H1237 C1249 0.950 . S
C1238 H1230 0.950 . S
C1238 C1239 1.386 . S
C1238 C1240 1.391 . S
C1239 C1238 1.386 . S
C1239 C1243 1.393 . S
C1240 H1232 0.950 . S
C1240 C1238 1.391 . S
C1240 C1241 1.400 . S
C1241 C1240 1.400 . S
C1241 C1242 1.398 . S
C1241 C1247 1.491 1_655 S
C1242 H1233 0.950 1_655 S
C1242 C1241 1.398 . S
C1242 C1243 1.391 . S
C1243 H1231 0.950 . S
C1243 C1239 1.393 . S
C1243 C1242 1.391 . S
C1244 H1234 0.950 . S
C1244 C1245 1.386 . S
C1244 C1246 1.391 . S
C1245 C1244 1.386 . S
C1245 C1249 1.393 . S
C1246 H1235 0.950 . S
C1246 C1244 1.391 . S
C1246 C1247 1.400 . S
C1247 C1241 1.491 1_455 S
C1247 C1246 1.400 . S
C1247 C1248 1.398 . S
C1248 H1236 0.950 . S
C1248 C1247 1.398 . S
C1248 C1249 1.391 . S
C1249 H1237 0.950 . S
C1249 C1245 1.393 . S
C1249 C1248 1.391 . S
H1250 C1258 0.950 . S
H1251 C1263 0.950 . S
H1252 C1260 0.950 . S
H1253 C1262 0.950 . S
H1254 C1264 0.950 . S
H1255 C1266 0.950 . S
H1256 C1268 0.950 . S
H1257 C1269 0.950 . S
C1258 H1250 0.950 . S
C1258 C1259 1.386 . S
C1258 C1260 1.391 . S
C1259 C1258 1.386 . S
C1259 C1263 1.393 . S
C1260 H1252 0.950 . S
C1260 C1258 1.391 . S
C1260 C1261 1.400 . S
C1261 C1260 1.400 . S
C1261 C1262 1.398 . S
C1261 C1267 1.491 . S
C1262 H1253 0.950 . S
C1262 C1261 1.398 . S
C1262 C1263 1.391 . S
C1263 H1251 0.950 . S
C1263 C1259 1.393 . S
C1263 C1262 1.391 . S
C1264 H1254 0.950 . S
C1264 C1265 1.386 . S
C1264 C1266 1.391 . S
C1265 C1264 1.386 . S
C1265 C1269 1.393 . S
C1266 H1255 0.950 . S
C1266 C1264 1.391 . S
C1266 C1267 1.400 . S
C1267 C1261 1.491 . S
C1267 C1266 1.400 . S
C1267 C1268 1.398 . S
C1268 H1256 0.950 . S
C1268 C1267 1.398 . S
C1268 C1269 1.391 . S
C1269 H1257 0.950 . S
C1269 C1265 1.393 . S
C1269 C1268 1.391 . S
H1270 C1278 0.950 . S
H1271 C1283 0.950 . S
H1272 C1280 0.950 1_565 S
H1273 C1282 0.950 . S
H1274 C1284 0.950 . S
H1275 C1286 0.950 . S
H1276 C1288 0.950 . S
H1277 C1289 0.950 . S
C1278 H1270 0.950 . S
C1278 C1279 1.386 . S
C1278 C1280 1.391 . S
C1279 C1278 1.386 . S
C1279 C1283 1.393 . S
C1280 H1272 0.950 1_545 S
C1280 C1278 1.391 . S
C1280 C1281 1.400 1_545 S
C1281 C1280 1.400 1_565 S
C1281 C1282 1.398 1_565 S
C1281 C1287 1.491 . S
C1282 H1273 0.950 . S
C1282 C1281 1.398 1_545 S
C1282 C1283 1.391 . S
C1283 H1271 0.950 . S
C1283 C1279 1.393 . S
C1283 C1282 1.391 . S
C1284 H1274 0.950 . S
C1284 C1285 1.386 . S
C1284 C1286 1.391 . S
C1285 C1284 1.386 . S
C1285 C1289 1.393 . S
C1286 H1275 0.950 . S
C1286 C1284 1.391 . S
C1286 C1287 1.400 . S
C1287 C1281 1.491 . S
C1287 C1286 1.400 . S
C1287 C1288 1.398 . S
C1288 H1276 0.950 . S
C1288 C1287 1.398 . S
C1288 C1289 1.391 . S
C1289 H1277 0.950 . S
C1289 C1285 1.393 . S
C1289 C1288 1.391 . S
H1290 C1298 0.950 . S
H1291 C1303 0.950 . S
H1292 C1300 0.950 . S
H1293 C1302 0.950 . S
H1294 C1304 0.950 . S
H1295 C1306 0.950 . S
H1296 C1308 0.950 . S
H1297 C1309 0.950 . S
C1298 H1290 0.950 . S
C1298 C1299 1.386 . S
C1298 C1300 1.391 . S
C1299 C1298 1.386 . S
C1299 C1303 1.393 . S
C1300 H1292 0.950 . S
C1300 C1298 1.391 . S
C1300 C1301 1.400 . S
C1301 C1300 1.400 . S
C1301 C1302 1.398 . S
C1301 C1307 1.491 . S
C1302 H1293 0.950 . S
C1302 C1301 1.398 . S
C1302 C1303 1.391 . S
C1303 H1291 0.950 . S
C1303 C1299 1.393 . S
C1303 C1302 1.391 . S
C1304 H1294 0.950 . S
C1304 C1305 1.386 . S
C1304 C1306 1.391 . S
C1305 C1304 1.386 . S
C1305 C1309 1.393 . S
C1306 H1295 0.950 . S
C1306 C1304 1.391 . S
C1306 C1307 1.400 . S
C1307 C1301 1.491 . S
C1307 C1306 1.400 . S
C1307 C1308 1.398 . S
C1308 H1296 0.950 . S
C1308 C1307 1.398 . S
C1308 C1309 1.391 . S
C1309 H1297 0.950 . S
C1309 C1305 1.393 . S
C1309 C1308 1.391 . S
H1310 C1318 0.950 . S
H1311 C1323 0.950 . S
H1312 C1320 0.950 . S
H1313 C1322 0.950 . S
H1314 C1324 0.950 . S
H1315 C1326 0.950 . S
H1316 C1328 0.950 . S
H1317 C1329 0.950 . S
C1318 H1310 0.950 . S
C1318 C1319 1.386 . S
C1318 C1320 1.391 . S
C1319 C1318 1.386 . S
C1319 C1323 1.393 . S
C1320 H1312 0.950 . S
C1320 C1318 1.391 . S
C1320 C1321 1.400 . S
C1321 C1320 1.400 . S
C1321 C1322 1.398 . S
C1321 C1327 1.491 . S
C1322 H1313 0.950 . S
C1322 C1321 1.398 . S
C1322 C1323 1.391 . S
C1323 H1311 0.950 . S
C1323 C1319 1.393 . S
C1323 C1322 1.391 . S
C1324 H1314 0.950 . S
C1324 C1325 1.386 . S
C1324 C1326 1.391 . S
C1325 C1324 1.386 . S
C1325 C1329 1.393 . S
C1326 H1315 0.950 . S
C1326 C1324 1.391 . S
C1326 C1327 1.400 . S
C1327 C1321 1.491 . S
C1327 C1326 1.400 . S
C1327 C1328 1.398 . S
C1328 H1316 0.950 . S
C1328 C1327 1.398 . S
C1328 C1329 1.391 . S
C1329 H1317 0.950 . S
C1329 C1325 1.393 . S
C1329 C1328 1.391 . S
H1330 C1338 0.950 . S
H1331 C1343 0.950 . S
H1332 C1340 0.950 . S
H1333 C1342 0.950 . S
H1334 C1344 0.950 . S
H1335 C1346 0.950 . S
H1336 C1348 0.950 . S
H1337 C1349 0.950 . S
C1338 H1330 0.950 . S
C1338 C1339 1.386 . S
C1338 C1340 1.391 . S
C1339 C1338 1.386 . S
C1339 C1343 1.393 . S
C1340 H1332 0.950 . S
C1340 C1338 1.391 . S
C1340 C1341 1.400 . S
C1341 C1340 1.400 . S
C1341 C1342 1.398 . S
C1341 C1347 1.491 . S
C1342 H1333 0.950 . S
C1342 C1341 1.398 . S
C1342 C1343 1.391 . S
C1343 H1331 0.950 . S
C1343 C1339 1.393 . S
C1343 C1342 1.391 . S
C1344 H1334 0.950 . S
C1344 C1345 1.386 . S
C1344 C1346 1.391 . S
C1345 C1344 1.386 . S
C1345 C1349 1.393 . S
C1346 H1335 0.950 . S
C1346 C1344 1.391 . S
C1346 C1347 1.400 . S
C1347 C1341 1.491 . S
C1347 C1346 1.400 . S
C1347 C1348 1.398 . S
C1348 H1336 0.950 . S
C1348 C1347 1.398 . S
C1348 C1349 1.391 . S
C1349 H1337 0.950 . S
C1349 C1345 1.393 . S
C1349 C1348 1.391 . S
H1350 C1358 0.950 . S
H1351 C1363 0.950 . S
H1352 C1360 0.950 . S
H1353 C1362 0.950 . S
H1354 C1364 0.950 . S
H1355 C1366 0.950 . S
H1356 C1368 0.950 . S
H1357 C1369 0.950 . S
C1358 H1350 0.950 . S
C1358 C1359 1.386 . S
C1358 C1360 1.391 . S
C1359 C1358 1.386 . S
C1359 C1363 1.393 . S
C1360 H1352 0.950 . S
C1360 C1358 1.391 . S
C1360 C1361 1.400 . S
C1361 C1360 1.400 . S
C1361 C1362 1.398 . S
C1361 C1367 1.491 . S
C1362 H1353 0.950 . S
C1362 C1361 1.398 . S
C1362 C1363 1.391 . S
C1363 H1351 0.950 . S
C1363 C1359 1.393 . S
C1363 C1362 1.391 . S
C1364 H1354 0.950 . S
C1364 C1365 1.386 . S
C1364 C1366 1.391 . S
C1365 C1364 1.386 . S
C1365 C1369 1.393 . S
C1366 H1355 0.950 . S
C1366 C1364 1.391 . S
C1366 C1367 1.400 . S
C1367 C1361 1.491 . S
C1367 C1366 1.400 . S
C1367 C1368 1.398 . S
C1368 H1356 0.950 . S
C1368 C1367 1.398 . S
C1368 C1369 1.391 . S
C1369 H1357 0.950 . S
C1369 C1365 1.393 . S
C1369 C1368 1.391 . S
H1370 C1378 0.950 . S
H1371 C1383 0.950 . S
H1372 C1380 0.950 . S
H1373 C1382 0.950 . S
H1374 C1384 0.950 . S
H1375 C1386 0.950 . S
H1376 C1388 0.950 . S
H1377 C1389 0.950 . S
C1378 H1370 0.950 . S
C1378 C1379 1.386 . S
C1378 C1380 1.391 . S
C1379 C1378 1.386 . S
C1379 C1383 1.393 . S
C1380 H1372 0.950 . S
C1380 C1378 1.391 . S
C1380 C1381 1.400 . S
C1381 C1380 1.400 . S
C1381 C1382 1.398 . S
C1381 C1387 1.491 . S
C1382 H1373 0.950 . S
C1382 C1381 1.398 . S
C1382 C1383 1.391 . S
C1383 H1371 0.950 . S
C1383 C1379 1.393 . S
C1383 C1382 1.391 . S
C1384 H1374 0.950 . S
C1384 C1385 1.386 . S
C1384 C1386 1.391 . S
C1385 C1384 1.386 . S
C1385 C1389 1.393 . S
C1386 H1375 0.950 . S
C1386 C1384 1.391 . S
C1386 C1387 1.400 . S
C1387 C1381 1.491 . S
C1387 C1386 1.400 . S
C1387 C1388 1.398 . S
C1388 H1376 0.950 . S
C1388 C1387 1.398 . S
C1388 C1389 1.391 . S
C1389 H1377 0.950 . S
C1389 C1385 1.393 . S
C1389 C1388 1.391 . S
H1390 C1398 0.950 . S
H1391 C1403 0.950 . S
H1392 C1400 0.950 . S
H1393 C1402 0.950 . S
H1394 C1404 0.950 . S
H1395 C1406 0.950 . S
H1396 C1408 0.950 . S
H1397 C1409 0.950 . S
C1398 H1390 0.950 . S
C1398 C1399 1.386 . S
C1398 C1400 1.391 . S
C1399 C1398 1.386 . S
C1399 C1403 1.393 . S
C1400 H1392 0.950 . S
C1400 C1398 1.391 . S
C1400 C1401 1.400 . S
C1401 C1400 1.400 . S
C1401 C1402 1.398 . S
C1401 C1407 1.491 . S
C1402 H1393 0.950 . S
C1402 C1401 1.398 . S
C1402 C1403 1.391 . S
C1403 H1391 0.950 . S
C1403 C1399 1.393 . S
C1403 C1402 1.391 . S
C1404 H1394 0.950 . S
C1404 C1405 1.386 . S
C1404 C1406 1.391 . S
C1405 C1404 1.386 . S
C1405 C1409 1.393 . S
C1406 H1395 0.950 . S
C1406 C1404 1.391 . S
C1406 C1407 1.400 . S
C1407 C1401 1.491 . S
C1407 C1406 1.400 . S
C1407 C1408 1.398 . S
C1408 H1396 0.950 . S
C1408 C1407 1.398 . S
C1408 C1409 1.391 . S
C1409 H1397 0.950 . S
C1409 C1405 1.393 . S
C1409 C1408 1.391 . S
H1410 C1418 0.950 . S
H1411 C1423 0.950 . S
H1412 C1420 0.950 . S
H1413 C1422 0.950 . S
H1414 C1424 0.950 . S
H1415 C1426 0.950 . S
H1416 C1428 0.950 . S
H1417 C1429 0.950 . S
C1418 H1410 0.950 . S
C1418 C1419 1.386 . S
C1418 C1420 1.391 . S
C1419 C1418 1.386 . S
C1419 C1423 1.393 . S
C1420 H1412 0.950 . S
C1420 C1418 1.391 . S
C1420 C1421 1.400 . S
C1421 C1420 1.400 . S
C1421 C1422 1.398 . S
C1421 C1427 1.491 1_545 S
C1422 H1413 0.950 . S
C1422 C1421 1.398 . S
C1422 C1423 1.391 . S
C1423 H1411 0.950 . S
C1423 C1419 1.393 . S
C1423 C1422 1.391 . S
C1424 H1414 0.950 . S
C1424 C1425 1.386 . S
C1424 C1426 1.391 . S
C1425 C1424 1.386 . S
C1425 C1429 1.393 . S
C1426 H1415 0.950 . S
C1426 C1424 1.391 . S
C1426 C1427 1.400 . S
C1427 C1421 1.491 1_565 S
C1427 C1426 1.400 . S
C1427 C1428 1.398 . S
C1428 H1416 0.950 . S
C1428 C1427 1.398 . S
C1428 C1429 1.391 . S
C1429 H1417 0.950 . S
C1429 C1425 1.393 . S
C1429 C1428 1.391 . S
H1430 C1438 0.950 . S
H1431 C1443 0.950 . S
H1432 C1440 0.950 . S
H1433 C1442 0.950 . S
H1434 C1444 0.950 . S
H1435 C1446 0.950 . S
H1436 C1448 0.950 . S
H1437 C1449 0.950 . S
C1438 H1430 0.950 . S
C1438 C1439 1.386 . S
C1438 C1440 1.391 1_655 S
C1439 C1438 1.386 . S
C1439 C1443 1.393 . S
C1440 H1432 0.950 . S
C1440 C1438 1.391 1_455 S
C1440 C1441 1.400 . S
C1441 C1440 1.400 . S
C1441 C1442 1.398 1_455 S
C1441 C1447 1.491 . S
C1442 H1433 0.950 . S
C1442 C1441 1.398 1_655 S
C1442 C1443 1.391 . S
C1443 H1431 0.950 . S
C1443 C1439 1.393 . S
C1443 C1442 1.391 . S
C1444 H1434 0.950 . S
C1444 C1445 1.386 . S
C1444 C1446 1.391 . S
C1445 C1444 1.386 . S
C1445 C1449 1.393 . S
C1446 H1435 0.950 . S
C1446 C1444 1.391 . S
C1446 C1447 1.400 . S
C1447 C1441 1.491 . S
C1447 C1446 1.400 . S
C1447 C1448 1.398 . S
C1448 H1436 0.950 . S
C1448 C1447 1.398 . S
C1448 C1449 1.391 . S
C1449 H1437 0.950 . S
C1449 C1445 1.393 . S
C1449 C1448 1.391 . S
H1450 C1458 0.950 . S
H1451 C1463 0.950 . S
H1452 C1460 0.950 . S
H1453 C1462 0.950 . S
H1454 C1464 0.950 . S
H1455 C1466 0.950 . S
H1456 C1468 0.950 . S
H1457 C1469 0.950 . S
C1458 H1450 0.950 . S
C1458 C1459 1.386 . S
C1458 C1460 1.391 . S
C1459 C1458 1.386 . S
C1459 C1463 1.393 . S
C1460 H1452 0.950 . S
C1460 C1458 1.391 . S
C1460 C1461 1.400 . S
C1461 C1460 1.400 . S
C1461 C1462 1.398 . S
C1461 C1467 1.491 . S
C1462 H1453 0.950 . S
C1462 C1461 1.398 . S
C1462 C1463 1.391 . S
C1463 H1451 0.950 . S
C1463 C1459 1.393 . S
C1463 C1462 1.391 . S
C1464 H1454 0.950 . S
C1464 C1465 1.386 . S
C1464 C1466 1.391 . S
C1465 C1464 1.386 . S
C1465 C1469 1.393 . S
C1466 H1455 0.950 . S
C1466 C1464 1.391 . S
C1466 C1467 1.400 . S
C1467 C1461 1.491 . S
C1467 C1466 1.400 . S
C1467 C1468 1.398 . S
C1468 H1456 0.950 . S
C1468 C1467 1.398 . S
C1468 C1469 1.391 . S
C1469 H1457 0.950 . S
C1469 C1465 1.393 . S
C1469 C1468 1.391 . S
H1470 C1478 0.950 . S
H1471 C1483 0.950 . S
H1472 C1480 0.950 . S
H1473 C1482 0.950 . S
H1474 C1484 0.950 . S
H1475 C1486 0.950 . S
H1476 C1488 0.950 . S
H1477 C1489 0.950 . S
C1478 H1470 0.950 . S
C1478 C1479 1.386 . S
C1478 C1480 1.391 . S
C1479 C1478 1.386 . S
C1479 C1483 1.393 . S
C1480 H1472 0.950 . S
C1480 C1478 1.391 . S
C1480 C1481 1.400 . S
C1481 C1480 1.400 . S
C1481 C1482 1.398 . S
C1481 C1487 1.491 . S
C1482 H1473 0.950 . S
C1482 C1481 1.398 . S
C1482 C1483 1.391 . S
C1483 H1471 0.950 . S
C1483 C1479 1.393 . S
C1483 C1482 1.391 . S
C1484 H1474 0.950 . S
C1484 C1485 1.386 . S
C1484 C1486 1.391 . S
C1485 C1484 1.386 . S
C1485 C1489 1.393 . S
C1486 H1475 0.950 . S
C1486 C1484 1.391 . S
C1486 C1487 1.400 . S
C1487 C1481 1.491 . S
C1487 C1486 1.400 . S
C1487 C1488 1.398 . S
C1488 H1476 0.950 . S
C1488 C1487 1.398 . S
C1488 C1489 1.391 . S
C1489 H1477 0.950 . S
C1489 C1485 1.393 . S
C1489 C1488 1.391 . S
H1490 C1498 0.950 . S
H1491 C1503 0.950 . S
H1492 C1500 0.950 . S
H1493 C1502 0.950 . S
H1494 C1504 0.950 . S
H1495 C1506 0.950 . S
H1496 C1508 0.950 . S
H1497 C1509 0.950 . S
C1498 H1490 0.950 . S
C1498 C1499 1.386 . S
C1498 C1500 1.391 . S
C1499 C1498 1.386 . S
C1499 C1503 1.393 . S
C1500 H1492 0.950 . S
C1500 C1498 1.391 . S
C1500 C1501 1.400 . S
C1501 C1500 1.400 . S
C1501 C1502 1.398 . S
C1501 C1507 1.491 . S
C1502 H1493 0.950 . S
C1502 C1501 1.398 . S
C1502 C1503 1.391 . S
C1503 H1491 0.950 . S
C1503 C1499 1.393 . S
C1503 C1502 1.391 . S
C1504 H1494 0.950 . S
C1504 C1505 1.386 . S
C1504 C1506 1.391 . S
C1505 C1504 1.386 . S
C1505 C1509 1.393 . S
C1506 H1495 0.950 . S
C1506 C1504 1.391 . S
C1506 C1507 1.400 . S
C1507 C1501 1.491 . S
C1507 C1506 1.400 . S
C1507 C1508 1.398 . S
C1508 H1496 0.950 . S
C1508 C1507 1.398 . S
C1508 C1509 1.391 . S
C1509 H1497 0.950 . S
C1509 C1505 1.393 . S
C1509 C1508 1.391 . S
H1510 C1518 0.950 . S
H1511 C1523 0.950 . S
H1512 C1520 0.950 . S
H1513 C1522 0.950 . S
H1514 C1524 0.950 . S
H1515 C1526 0.950 . S
H1516 C1528 0.950 . S
H1517 C1529 0.950 . S
C1518 H1510 0.950 . S
C1518 C1519 1.386 . S
C1518 C1520 1.391 . S
C1519 C1518 1.386 . S
C1519 C1523 1.393 . S
C1520 H1512 0.950 . S
C1520 C1518 1.391 . S
C1520 C1521 1.400 . S
C1521 C1520 1.400 . S
C1521 C1522 1.398 . S
C1521 C1527 1.491 . S
C1522 H1513 0.950 . S
C1522 C1521 1.398 . S
C1522 C1523 1.391 . S
C1523 H1511 0.950 . S
C1523 C1519 1.393 . S
C1523 C1522 1.391 . S
C1524 H1514 0.950 . S
C1524 C1525 1.386 . S
C1524 C1526 1.391 . S
C1525 C1524 1.386 . S
C1525 C1529 1.393 . S
C1526 H1515 0.950 . S
C1526 C1524 1.391 . S
C1526 C1527 1.400 . S
C1527 C1521 1.491 . S
C1527 C1526 1.400 . S
C1527 C1528 1.398 . S
C1528 H1516 0.950 . S
C1528 C1527 1.398 . S
C1528 C1529 1.391 . S
C1529 H1517 0.950 . S
C1529 C1525 1.393 . S
C1529 C1528 1.391 . S
H1530 C1538 0.950 . S
H1531 C1543 0.950 . S
H1532 C1540 0.950 . S
H1533 C1542 0.971 . S
H1534 C1544 0.950 . S
H1535 C1546 0.950 . S
H1536 C1548 0.950 . S
H1537 C1549 0.950 . S
C1538 H1530 0.950 . S
C1538 C1539 1.386 . S
C1538 C1540 1.391 1_565 S
C1539 C1538 1.386 . S
C1539 C1543 1.393 . S
C1540 H1532 0.950 . S
C1540 C1538 1.391 1_545 S
C1540 C1541 1.400 . S
C1541 C1540 1.400 . S
C1541 C1542 1.398 1_545 S
C1541 C1547 1.491 . S
C1542 H1533 0.971 . S
C1542 C1541 1.398 1_565 S
C1542 C1543 1.391 . S
C1543 H1531 0.950 . S
C1543 C1539 1.393 . S
C1543 C1542 1.391 . S
C1544 H1534 0.950 . S
C1544 C1545 1.386 . S
C1544 C1546 1.391 . S
C1545 C1544 1.386 . S
C1545 C1549 1.393 . S
C1546 H1535 0.950 . S
C1546 C1544 1.391 . S
C1546 C1547 1.400 . S
C1547 C1541 1.491 . S
C1547 C1546 1.400 . S
C1547 C1548 1.398 . S
C1548 H1536 0.950 . S
C1548 C1547 1.398 . S
C1548 C1549 1.391 . S
C1549 H1537 0.950 . S
C1549 C1545 1.393 . S
C1549 C1548 1.391 . S
H1550 C1558 0.948 1_455 S
H1551 C1563 0.950 . S
H1552 C1560 0.950 . S
H1553 C1562 0.950 . S
H1554 C1564 0.950 . S
H1555 C1566 0.950 . S
H1556 C1568 0.950 . S
H1557 C1569 0.950 . S
C1558 H1550 0.948 1_655 S
C1558 C1559 1.375 1_655 S
C1558 C1560 1.403 . S
C1559 C1558 1.375 1_455 S
C1559 C1563 1.393 . S
C1560 H1552 0.950 . S
C1560 C1558 1.403 . S
C1560 C1561 1.400 . S
C1561 C1560 1.400 . S
C1561 C1562 1.398 . S
C1561 C1567 1.491 . S
C1562 H1553 0.950 . S
C1562 C1561 1.398 . S
C1562 C1563 1.391 1_655 S
C1563 H1551 0.950 . S
C1563 C1559 1.393 . S
C1563 C1562 1.391 1_455 S
C1564 H1554 0.950 . S
C1564 C1565 1.386 . S
C1564 C1566 1.391 . S
C1565 C1564 1.386 . S
C1565 C1569 1.393 . S
C1566 H1555 0.950 . S
C1566 C1564 1.391 . S
C1566 C1567 1.400 . S
C1567 C1561 1.491 . S
C1567 C1566 1.400 . S
C1567 C1568 1.398 . S
C1568 H1556 0.950 . S
C1568 C1567 1.398 . S
C1568 C1569 1.391 . S
C1569 H1557 0.950 . S
C1569 C1565 1.393 . S
C1569 C1568 1.391 . S
H1570 C1578 0.950 . S
H1571 C1583 0.950 . S
H1572 C1580 0.950 . S
H1573 C1582 0.950 . S
H1574 C1584 0.950 . S
H1575 C1586 0.950 . S
H1576 C1588 0.950 . S
H1577 C1589 0.950 . S
C1578 H1570 0.950 . S
C1578 C1579 1.386 . S
C1578 C1580 1.391 . S
C1579 C1578 1.386 . S
C1579 C1583 1.393 . S
C1580 H1572 0.950 . S
C1580 C1578 1.391 . S
C1580 C1581 1.400 . S
C1581 C1580 1.400 . S
C1581 C1582 1.398 . S
C1581 C1587 1.491 . S
C1582 H1573 0.950 . S
C1582 C1581 1.398 . S
C1582 C1583 1.391 . S
C1583 H1571 0.950 . S
C1583 C1579 1.393 . S
C1583 C1582 1.391 . S
C1584 H1574 0.950 . S
C1584 C1585 1.386 . S
C1584 C1586 1.391 . S
C1585 C1584 1.386 . S
C1585 C1589 1.393 . S
C1586 H1575 0.950 . S
C1586 C1584 1.391 . S
C1586 C1587 1.400 . S
C1587 C1581 1.491 . S
C1587 C1586 1.400 . S
C1587 C1588 1.398 . S
C1588 H1576 0.950 . S
C1588 C1587 1.398 . S
C1588 C1589 1.391 . S
C1589 H1577 0.950 . S
C1589 C1585 1.393 . S
C1589 C1588 1.391 . S
H1590 C1598 0.950 . S
H1591 C1603 0.950 . S
H1592 C1600 0.950 . S
H1593 C1602 0.950 . S
H1594 C1604 0.950 . S
H1595 C1606 0.950 . S
H1596 C1608 0.950 1_455 S
H1597 C1609 0.950 . S
C1598 H1590 0.950 . S
C1598 C1599 1.386 . S
C1598 C1600 1.391 . S
C1599 C1598 1.386 . S
C1599 C1603 1.393 . S
C1600 H1592 0.950 . S
C1600 C1598 1.391 . S
C1600 C1601 1.400 . S
C1601 C1600 1.400 . S
C1601 C1602 1.398 . S
C1601 C1607 1.498 . S
C1602 H1593 0.950 . S
C1602 C1601 1.398 . S
C1602 C1603 1.391 . S
C1603 H1591 0.950 . S
C1603 C1599 1.393 . S
C1603 C1602 1.391 . S
C1604 H1594 0.950 . S
C1604 C1605 1.386 . S
C1604 C1606 1.391 . S
C1605 C1604 1.386 . S
C1605 C1609 1.393 . S
C1606 H1595 0.950 . S
C1606 C1604 1.391 . S
C1606 C1607 1.394 1_655 S
C1607 C1601 1.498 . S
C1607 C1606 1.394 1_455 S
C1607 C1608 1.397 1_455 S
C1608 H1596 0.950 1_655 S
C1608 C1607 1.397 1_655 S
C1608 C1609 1.391 . S
C1609 H1597 0.950 . S
C1609 C1605 1.393 . S
C1609 C1608 1.391 . S
H1610 C1618 0.950 . S
H1611 C1623 0.950 . S
H1612 C1620 0.950 . S
H1613 C1622 0.950 . S
H1614 C1624 0.950 . S
H1615 C1626 0.950 . S
H1616 C1628 0.950 . S
H1617 C1629 0.950 . S
C1618 H1610 0.950 . S
C1618 C1619 1.386 . S
C1618 C1620 1.391 . S
C1619 C1618 1.386 . S
C1619 C1623 1.393 . S
C1620 H1612 0.950 . S
C1620 C1618 1.391 . S
C1620 C1621 1.400 . S
C1621 C1620 1.400 . S
C1621 C1622 1.398 . S
C1621 C1627 1.491 . S
C1622 H1613 0.950 . S
C1622 C1621 1.398 . S
C1622 C1623 1.391 . S
C1623 H1611 0.950 . S
C1623 C1619 1.393 . S
C1623 C1622 1.391 . S
C1624 H1614 0.950 . S
C1624 C1625 1.386 . S
C1624 C1626 1.391 . S
C1625 C1624 1.386 . S
C1625 C1629 1.393 . S
C1626 H1615 0.950 . S
C1626 C1624 1.391 . S
C1626 C1627 1.400 . S
C1627 C1621 1.491 . S
C1627 C1626 1.400 . S
C1627 C1628 1.398 . S
C1628 H1616 0.950 . S
C1628 C1627 1.398 . S
C1628 C1629 1.391 . S
C1629 H1617 0.950 . S
C1629 C1625 1.393 . S
C1629 C1628 1.391 . S
H1630 C1638 0.950 . S
H1631 C1643 0.950 . S
H1632 C1640 0.950 . S
H1633 C1642 0.950 . S
H1634 C1644 0.950 . S
H1635 C1646 0.950 . S
H1636 C1648 0.950 . S
H1637 C1649 0.950 . S
C1638 H1630 0.950 . S
C1638 C1639 1.386 . S
C1638 C1640 1.391 . S
C1639 C1638 1.386 . S
C1639 C1643 1.393 . S
C1640 H1632 0.950 . S
C1640 C1638 1.391 . S
C1640 C1641 1.400 . S
C1641 C1640 1.400 . S
C1641 C1642 1.398 . S
C1641 C1647 1.491 1_565 S
C1642 H1633 0.950 . S
C1642 C1641 1.398 . S
C1642 C1643 1.391 . S
C1643 H1631 0.950 . S
C1643 C1639 1.393 . S
C1643 C1642 1.391 . S
C1644 H1634 0.950 . S
C1644 C1645 1.386 . S
C1644 C1646 1.391 . S
C1645 C1644 1.386 . S
C1645 C1649 1.393 . S
C1646 H1635 0.950 . S
C1646 C1644 1.391 . S
C1646 C1647 1.400 . S
C1647 C1641 1.491 1_545 S
C1647 C1646 1.400 . S
C1647 C1648 1.398 . S
C1648 H1636 0.950 . S
C1648 C1647 1.398 . S
C1648 C1649 1.391 . S
C1649 H1637 0.950 . S
C1649 C1645 1.393 . S
C1649 C1648 1.391 . S
H1650 C1658 0.950 . S
H1651 C1663 0.950 . S
H1652 C1660 0.950 . S
H1653 C1662 0.950 . S
H1654 C1664 0.950 . S
H1655 C1666 0.950 . S
H1656 C1668 0.950 . S
H1657 C1669 0.950 . S
C1658 H1650 0.950 . S
C1658 C1659 1.386 . S
C1658 C1660 1.391 . S
C1659 C1658 1.386 . S
C1659 C1663 1.393 . S
C1660 H1652 0.950 . S
C1660 C1658 1.391 . S
C1660 C1661 1.400 . S
C1661 C1660 1.400 . S
C1661 C1662 1.398 . S
C1661 C1667 1.491 . S
C1662 H1653 0.950 . S
C1662 C1661 1.398 . S
C1662 C1663 1.391 . S
C1663 H1651 0.950 . S
C1663 C1659 1.393 . S
C1663 C1662 1.391 . S
C1664 H1654 0.950 . S
C1664 C1665 1.386 . S
C1664 C1666 1.391 . S
C1665 C1664 1.386 . S
C1665 C1669 1.393 . S
C1666 H1655 0.950 . S
C1666 C1664 1.391 . S
C1666 C1667 1.400 . S
C1667 C1661 1.491 . S
C1667 C1666 1.400 . S
C1667 C1668 1.398 . S
C1668 H1656 0.950 . S
C1668 C1667 1.398 . S
C1668 C1669 1.391 . S
C1669 H1657 0.950 . S
C1669 C1665 1.393 . S
C1669 C1668 1.391 . S
H1670 C1678 0.950 . S
H1671 C1683 0.950 . S
H1672 C1680 0.950 . S
H1673 C1682 0.950 . S
H1674 C1684 0.950 . S
H1675 C1686 0.950 . S
H1676 C1688 0.950 . S
H1677 C1689 0.950 . S
C1678 H1670 0.950 . S
C1678 C1679 1.386 . S
C1678 C1680 1.391 . S
C1679 C1678 1.386 . S
C1679 C1683 1.393 . S
C1680 H1672 0.950 . S
C1680 C1678 1.391 . S
C1680 C1681 1.400 . S
C1681 C1680 1.400 . S
C1681 C1682 1.398 . S
C1681 C1687 1.491 . S
C1682 H1673 0.950 . S
C1682 C1681 1.398 . S
C1682 C1683 1.391 . S
C1683 H1671 0.950 . S
C1683 C1679 1.393 . S
C1683 C1682 1.391 . S
C1684 H1674 0.950 . S
C1684 C1685 1.386 . S
C1684 C1686 1.391 . S
C1685 C1684 1.386 . S
C1685 C1689 1.393 . S
C1686 H1675 0.950 . S
C1686 C1684 1.391 . S
C1686 C1687 1.400 . S
C1687 C1681 1.491 . S
C1687 C1686 1.400 . S
C1687 C1688 1.398 . S
C1688 H1676 0.950 . S
C1688 C1687 1.398 . S
C1688 C1689 1.391 . S
C1689 H1677 0.950 . S
C1689 C1685 1.393 . S
C1689 C1688 1.391 . S
H1690 C1698 0.950 . S
H1691 C1703 0.950 . S
H1692 C1700 0.950 . S
H1693 C1702 0.950 . S
H1694 C1704 0.950 . S
H1695 C1706 0.950 . S
H1696 C1708 0.950 . S
H1697 C1709 0.950 . S
C1698 H1690 0.950 . S
C1698 C1699 1.386 . S
C1698 C1700 1.391 . S
C1699 C1698 1.386 . S
C1699 C1703 1.393 . S
C1700 H1692 0.950 . S
C1700 C1698 1.391 . S
C1700 C1701 1.400 . S
C1701 C1700 1.400 . S
C1701 C1702 1.398 . S
C1701 C1707 1.491 . S
C1702 H1693 0.950 . S
C1702 C1701 1.398 . S
C1702 C1703 1.391 . S
C1703 H1691 0.950 . S
C1703 C1699 1.393 . S
C1703 C1702 1.391 . S
C1704 H1694 0.950 . S
C1704 C1705 1.386 . S
C1704 C1706 1.391 . S
C1705 C1704 1.386 . S
C1705 C1709 1.393 . S
C1706 H1695 0.950 . S
C1706 C1704 1.391 . S
C1706 C1707 1.400 . S
C1707 C1701 1.491 . S
C1707 C1706 1.400 . S
C1707 C1708 1.398 . S
C1708 H1696 0.950 . S
C1708 C1707 1.398 . S
C1708 C1709 1.391 . S
C1709 H1697 0.950 . S
C1709 C1705 1.393 . S
C1709 C1708 1.391 . S
H1710 C1718 0.950 . S
H1711 C1723 0.950 . S
H1712 C1720 0.950 . S
H1713 C1722 0.950 . S
H1714 C1724 0.950 . S
H1715 C1726 0.950 . S
H1716 C1728 0.950 . S
H1717 C1729 0.950 . S
C1718 H1710 0.950 . S
C1718 C1719 1.386 . S
C1718 C1720 1.391 . S
C1719 C1718 1.386 . S
C1719 C1723 1.393 . S
C1720 H1712 0.950 . S
C1720 C1718 1.391 . S
C1720 C1721 1.400 . S
C1721 C1720 1.400 . S
C1721 C1722 1.398 . S
C1721 C1727 1.491 . S
C1722 H1713 0.950 . S
C1722 C1721 1.398 . S
C1722 C1723 1.391 . S
C1723 H1711 0.950 . S
C1723 C1719 1.393 . S
C1723 C1722 1.391 . S
C1724 H1714 0.950 . S
C1724 C1725 1.386 . S
C1724 C1726 1.391 . S
C1725 C1724 1.386 . S
C1725 C1729 1.393 . S
C1726 H1715 0.950 . S
C1726 C1724 1.391 . S
C1726 C1727 1.400 . S
C1727 C1721 1.491 . S
C1727 C1726 1.400 . S
C1727 C1728 1.398 . S
C1728 H1716 0.950 . S
C1728 C1727 1.398 . S
C1728 C1729 1.391 . S
C1729 H1717 0.950 . S
C1729 C1725 1.393 . S
C1729 C1728 1.391 . S
H1730 C1738 0.950 . S
H1731 C1743 0.950 . S
H1732 C1740 0.950 . S
H1733 C1742 0.950 . S
H1734 C1744 0.950 . S
H1735 C1746 0.950 . S
H1736 C1748 0.950 . S
H1737 C1749 0.950 . S
C1738 H1730 0.950 . S
C1738 C1739 1.386 . S
C1738 C1740 1.391 . S
C1739 C1738 1.386 . S
C1739 C1743 1.393 . S
C1740 H1732 0.950 . S
C1740 C1738 1.391 . S
C1740 C1741 1.400 . S
C1741 C1740 1.400 . S
C1741 C1742 1.398 . S
C1741 C1747 1.491 . S
C1742 H1733 0.950 . S
C1742 C1741 1.398 . S
C1742 C1743 1.391 . S
C1743 H1731 0.950 . S
C1743 C1739 1.393 . S
C1743 C1742 1.391 . S
C1744 H1734 0.950 . S
C1744 C1745 1.386 . S
C1744 C1746 1.391 . S
C1745 C1744 1.386 . S
C1745 C1749 1.393 . S
C1746 H1735 0.950 . S
C1746 C1744 1.391 . S
C1746 C1747 1.400 . S
C1747 C1741 1.491 . S
C1747 C1746 1.400 . S
C1747 C1748 1.398 . S
C1748 H1736 0.950 . S
C1748 C1747 1.398 . S
C1748 C1749 1.391 . S
C1749 H1737 0.950 . S
C1749 C1745 1.393 . S
C1749 C1748 1.391 . S
H1750 C1758 0.950 . S
H1751 C1763 0.950 . S
H1752 C1760 0.950 . S
H1753 C1762 0.950 . S
H1754 C1764 0.950 . S
H1755 C1766 0.950 . S
H1756 C1768 0.950 . S
H1757 C1769 0.950 . S
C1758 H1750 0.950 . S
C1758 C1759 1.386 . S
C1758 C1760 1.391 . S
C1759 C1758 1.386 . S
C1759 C1763 1.393 . S
C1760 H1752 0.950 . S
C1760 C1758 1.391 . S
C1760 C1761 1.400 . S
C1761 C1760 1.400 . S
C1761 C1762 1.398 . S
C1761 C1767 1.491 . S
C1762 H1753 0.950 . S
C1762 C1761 1.398 . S
C1762 C1763 1.391 . S
C1763 H1751 0.950 . S
C1763 C1759 1.393 . S
C1763 C1762 1.391 . S
C1764 H1754 0.950 . S
C1764 C1765 1.386 . S
C1764 C1766 1.391 . S
C1765 C1764 1.386 . S
C1765 C1769 1.393 . S
C1766 H1755 0.950 . S
C1766 C1764 1.391 . S
C1766 C1767 1.400 . S
C1767 C1761 1.491 . S
C1767 C1766 1.400 . S
C1767 C1768 1.398 . S
C1768 H1756 0.950 . S
C1768 C1767 1.398 . S
C1768 C1769 1.391 . S
C1769 H1757 0.950 . S
C1769 C1765 1.393 . S
C1769 C1768 1.391 . S
H1770 C1778 0.950 . S
H1771 C1783 0.950 . S
H1772 C1780 0.950 . S
H1773 C1782 0.950 . S
H1774 C1784 0.950 1_455 S
H1775 C1786 0.950 . S
H1776 C1788 0.950 . S
H1777 C1789 0.950 . S
C1778 H1770 0.950 . S
C1778 C1779 1.386 . S
C1778 C1780 1.391 . S
C1779 C1778 1.386 . S
C1779 C1783 1.393 . S
C1780 H1772 0.950 . S
C1780 C1778 1.391 . S
C1780 C1781 1.400 . S
C1781 C1780 1.400 . S
C1781 C1782 1.398 . S
C1781 C1787 1.491 . S
C1782 H1773 0.950 . S
C1782 C1781 1.398 . S
C1782 C1783 1.391 . S
C1783 H1771 0.950 . S
C1783 C1779 1.393 . S
C1783 C1782 1.391 . S
C1784 H1774 0.950 1_655 S
C1784 C1785 1.386 . S
C1784 C1786 1.391 . S
C1785 C1784 1.386 . S
C1785 C1789 1.393 . S
C1786 H1775 0.950 . S
C1786 C1784 1.391 . S
C1786 C1787 1.400 . S
C1787 C1781 1.491 . S
C1787 C1786 1.400 . S
C1787 C1788 1.398 . S
C1788 H1776 0.950 . S
C1788 C1787 1.398 . S
C1788 C1789 1.391 . S
C1789 H1777 0.950 . S
C1789 C1785 1.393 . S
C1789 C1788 1.391 . S
H1790 C1798 0.950 . S
H1791 C1803 0.950 . S
H1792 C1800 0.950 . S
H1793 C1802 0.950 . S
H1794 C1804 0.950 . S
H1795 C1806 0.950 . S
H1796 C1808 0.950 . S
H1797 C1809 0.950 . S
C1798 H1790 0.950 . S
C1798 C1799 1.386 . S
C1798 C1800 1.391 . S
C1799 C1798 1.386 . S
C1799 C1803 1.393 . S
C1800 H1792 0.950 . S
C1800 C1798 1.391 . S
C1800 C1801 1.400 . S
C1801 C1800 1.400 . S
C1801 C1802 1.398 . S
C1801 C1807 1.491 . S
C1802 H1793 0.950 . S
C1802 C1801 1.398 . S
C1802 C1803 1.391 . S
C1803 H1791 0.950 . S
C1803 C1799 1.393 . S
C1803 C1802 1.391 . S
C1804 H1794 0.950 . S
C1804 C1805 1.386 . S
C1804 C1806 1.391 . S
C1805 C1804 1.386 . S
C1805 C1809 1.393 . S
C1806 H1795 0.950 . S
C1806 C1804 1.391 . S
C1806 C1807 1.400 . S
C1807 C1801 1.491 . S
C1807 C1806 1.400 . S
C1807 C1808 1.398 . S
C1808 H1796 0.950 . S
C1808 C1807 1.398 . S
C1808 C1809 1.391 . S
C1809 H1797 0.950 . S
C1809 C1805 1.393 . S
C1809 C1808 1.391 . S
H1810 C1818 0.950 . S
H1811 C1823 0.950 . S
H1812 C1820 0.950 . S
H1813 C1822 0.950 . S
H1814 C1824 0.950 . S
H1815 C1826 0.950 . S
H1816 C1828 0.950 . S
H1817 C1829 0.950 . S
C1818 H1810 0.950 . S
C1818 C1819 1.386 . S
C1818 C1820 1.391 . S
C1819 C1818 1.386 . S
C1819 C1823 1.393 . S
C1820 H1812 0.950 . S
C1820 C1818 1.391 . S
C1820 C1821 1.400 . S
C1821 C1820 1.400 . S
C1821 C1822 1.398 . S
C1821 C1827 1.491 . S
C1822 H1813 0.950 . S
C1822 C1821 1.398 . S
C1822 C1823 1.391 . S
C1823 H1811 0.950 . S
C1823 C1819 1.393 . S
C1823 C1822 1.391 . S
C1824 H1814 0.950 . S
C1824 C1825 1.386 . S
C1824 C1826 1.391 . S
C1825 C1824 1.386 . S
C1825 C1829 1.393 . S
C1826 H1815 0.950 . S
C1826 C1824 1.391 . S
C1826 C1827 1.400 . S
C1827 C1821 1.491 . S
C1827 C1826 1.400 . S
C1827 C1828 1.398 . S
C1828 H1816 0.950 . S
C1828 C1827 1.398 . S
C1828 C1829 1.391 . S
C1829 H1817 0.950 . S
C1829 C1825 1.393 . S
C1829 C1828 1.391 . S
H1830 C1838 0.950 . S
H1831 C1843 0.950 . S
H1832 C1840 0.950 . S
H1833 C1842 0.950 . S
H1834 C1844 0.950 . S
H1835 C1846 0.950 . S
H1836 C1848 0.950 . S
H1837 C1849 0.950 . S
C1838 H1830 0.950 . S
C1838 C1839 1.386 . S
C1838 C1840 1.391 . S
C1839 C1838 1.386 . S
C1839 C1843 1.393 . S
C1840 H1832 0.950 . S
C1840 C1838 1.391 . S
C1840 C1841 1.400 . S
C1841 C1840 1.400 . S
C1841 C1842 1.398 . S
C1841 C1847 1.491 . S
C1842 H1833 0.950 . S
C1842 C1841 1.398 . S
C1842 C1843 1.391 . S
C1843 H1831 0.950 . S
C1843 C1839 1.393 . S
C1843 C1842 1.391 . S
C1844 H1834 0.950 . S
C1844 C1845 1.386 . S
C1844 C1846 1.391 . S
C1845 C1844 1.386 . S
C1845 C1849 1.393 . S
C1846 H1835 0.950 . S
C1846 C1844 1.391 . S
C1846 C1847 1.400 . S
C1847 C1841 1.491 . S
C1847 C1846 1.400 . S
C1847 C1848 1.398 . S
C1848 H1836 0.950 . S
C1848 C1847 1.398 . S
C1848 C1849 1.391 . S
C1849 H1837 0.950 . S
C1849 C1845 1.393 . S
C1849 C1848 1.391 . S
H1850 C1858 0.950 . S
H1851 C1863 0.950 . S
H1852 C1860 0.950 . S
H1853 C1862 0.950 . S
H1854 C1864 0.950 . S
H1855 C1866 0.950 . S
H1856 C1868 0.950 . S
H1857 C1869 0.950 . S
C1858 H1850 0.950 . S
C1858 C1859 1.386 . S
C1858 C1860 1.391 . S
C1859 C1858 1.386 . S
C1859 C1863 1.393 . S
C1860 H1852 0.950 . S
C1860 C1858 1.391 . S
C1860 C1861 1.400 . S
C1861 C1860 1.400 . S
C1861 C1862 1.398 . S
C1861 C1867 1.491 . S
C1862 H1853 0.950 . S
C1862 C1861 1.398 . S
C1862 C1863 1.391 . S
C1863 H1851 0.950 . S
C1863 C1859 1.393 . S
C1863 C1862 1.391 . S
C1864 H1854 0.950 . S
C1864 C1865 1.386 . S
C1864 C1866 1.391 . S
C1865 C1864 1.386 . S
C1865 C1869 1.393 . S
C1866 H1855 0.950 . S
C1866 C1864 1.391 . S
C1866 C1867 1.400 . S
C1867 C1861 1.491 . S
C1867 C1866 1.400 . S
C1867 C1868 1.398 . S
C1868 H1856 0.950 . S
C1868 C1867 1.398 . S
C1868 C1869 1.391 . S
C1869 H1857 0.950 . S
C1869 C1865 1.393 . S
C1869 C1868 1.391 . S
H1870 C1878 0.950 . S
H1871 C1883 0.950 . S
H1872 C1880 0.950 . S
H1873 C1882 0.950 . S
H1874 C1884 0.950 . S
H1875 C1886 0.950 . S
H1876 C1888 0.950 . S
H1877 C1889 0.950 . S
C1878 H1870 0.950 . S
C1878 C1879 1.386 . S
C1878 C1880 1.391 . S
C1879 C1878 1.386 . S
C1879 C1883 1.393 . S
C1880 H1872 0.950 . S
C1880 C1878 1.391 . S
C1880 C1881 1.400 . S
C1881 C1880 1.400 . S
C1881 C1882 1.398 . S
C1881 C1887 1.491 . S
C1882 H1873 0.950 . S
C1882 C1881 1.398 . S
C1882 C1883 1.391 . S
C1883 H1871 0.950 . S
C1883 C1879 1.393 . S
C1883 C1882 1.391 . S
C1884 H1874 0.950 . S
C1884 C1885 1.386 . S
C1884 C1886 1.391 . S
C1885 C1884 1.386 . S
C1885 C1889 1.393 . S
C1886 H1875 0.950 . S
C1886 C1884 1.391 . S
C1886 C1887 1.400 . S
C1887 C1881 1.491 . S
C1887 C1886 1.400 . S
C1887 C1888 1.398 . S
C1888 H1876 0.950 . S
C1888 C1887 1.398 . S
C1888 C1889 1.391 . S
C1889 H1877 0.950 . S
C1889 C1885 1.393 . S
C1889 C1888 1.391 . S
H1890 C1898 0.950 . S
H1891 C1903 0.950 . S
H1892 C1900 0.950 . S
H1893 C1902 0.950 . S
H1894 C1904 0.950 . S
H1895 C1906 0.950 . S
H1896 C1908 0.950 . S
H1897 C1909 0.950 . S
C1898 H1890 0.950 . S
C1898 C1899 1.386 . S
C1898 C1900 1.391 . S
C1899 C1898 1.386 . S
C1899 C1903 1.393 . S
C1900 H1892 0.950 . S
C1900 C1898 1.391 . S
C1900 C1901 1.400 . S
C1901 C1900 1.400 . S
C1901 C1902 1.398 . S
C1901 C1907 1.491 . S
C1902 H1893 0.950 . S
C1902 C1901 1.398 . S
C1902 C1903 1.391 . S
C1903 H1891 0.950 . S
C1903 C1899 1.393 . S
C1903 C1902 1.391 . S
C1904 H1894 0.950 . S
C1904 C1905 1.386 . S
C1904 C1906 1.391 . S
C1905 C1904 1.386 . S
C1905 C1909 1.393 . S
C1906 H1895 0.950 . S
C1906 C1904 1.391 . S
C1906 C1907 1.400 . S
C1907 C1901 1.491 . S
C1907 C1906 1.400 . S
C1907 C1908 1.398 . S
C1908 H1896 0.950 . S
C1908 C1907 1.398 . S
C1908 C1909 1.391 . S
C1909 H1897 0.950 . S
C1909 C1905 1.393 . S
C1909 C1908 1.391 . S
H1910 C1918 0.950 . S
H1911 C1923 0.950 . S
H1912 C1920 0.950 . S
H1913 C1922 0.950 . S
H1914 C1924 0.950 . S
H1915 C1926 0.950 . S
H1916 C1928 0.950 . S
H1917 C1929 0.950 . S
C1918 H1910 0.950 . S
C1918 C1919 1.386 . S
C1918 C1920 1.391 . S
C1919 C1918 1.386 . S
C1919 C1923 1.393 . S
C1920 H1912 0.950 . S
C1920 C1918 1.391 . S
C1920 C1921 1.400 . S
C1921 C1920 1.400 . S
C1921 C1922 1.398 . S
C1921 C1927 1.491 . S
C1922 H1913 0.950 . S
C1922 C1921 1.398 . S
C1922 C1923 1.391 . S
C1923 H1911 0.950 . S
C1923 C1919 1.393 . S
C1923 C1922 1.391 . S
C1924 H1914 0.950 . S
C1924 C1925 1.386 . S
C1924 C1926 1.391 . S
C1925 C1924 1.386 . S
C1925 C1929 1.393 . S
C1926 H1915 0.950 . S
C1926 C1924 1.391 . S
C1926 C1927 1.400 . S
C1927 C1921 1.491 . S
C1927 C1926 1.400 . S
C1927 C1928 1.398 . S
C1928 H1916 0.950 . S
C1928 C1927 1.398 . S
C1928 C1929 1.391 . S
C1929 H1917 0.950 . S
C1929 C1925 1.393 . S
C1929 C1928 1.391 . S
H1930 C1938 0.950 . S
H1931 C1943 0.950 . S
H1932 C1940 0.950 . S
H1933 C1942 0.950 . S
H1934 C1944 0.950 . S
H1935 C1946 0.950 . S
H1936 C1948 0.950 . S
H1937 C1949 0.950 . S
C1938 H1930 0.950 . S
C1938 C1939 1.386 . S
C1938 C1940 1.391 . S
C1939 C1938 1.386 . S
C1939 C1943 1.393 . S
C1940 H1932 0.950 . S
C1940 C1938 1.391 . S
C1940 C1941 1.400 . S
C1941 C1940 1.400 . S
C1941 C1942 1.398 . S
C1941 C1947 1.491 . S
C1942 H1933 0.950 . S
C1942 C1941 1.398 . S
C1942 C1943 1.391 . S
C1943 H1931 0.950 . S
C1943 C1939 1.393 . S
C1943 C1942 1.391 . S
C1944 H1934 0.950 . S
C1944 C1945 1.386 . S
C1944 C1946 1.391 . S
C1945 C1944 1.386 . S
C1945 C1949 1.393 . S
C1946 H1935 0.950 . S
C1946 C1944 1.391 . S
C1946 C1947 1.400 . S
C1947 C1941 1.491 . S
C1947 C1946 1.400 . S
C1947 C1948 1.398 . S
C1948 H1936 0.950 . S
C1948 C1947 1.398 . S
C1948 C1949 1.391 . S
C1949 H1937 0.950 . S
C1949 C1945 1.393 . S
C1949 C1948 1.391 . S
H1950 C1958 0.950 . S
H1951 C1963 0.950 . S
H1952 C1960 0.950 . S
H1953 C1962 0.950 . S
H1954 C1964 0.950 . S
H1955 C1966 0.950 . S
H1956 C1968 0.950 . S
H1957 C1969 0.950 . S
C1958 H1950 0.950 . S
C1958 C1959 1.386 . S
C1958 C1960 1.391 . S
C1959 C1958 1.386 . S
C1959 C1963 1.393 . S
C1960 H1952 0.950 . S
C1960 C1958 1.391 . S
C1960 C1961 1.400 . S
C1961 C1960 1.400 . S
C1961 C1962 1.398 . S
C1961 C1967 1.491 . S
C1962 H1953 0.950 . S
C1962 C1961 1.398 . S
C1962 C1963 1.391 . S
C1963 H1951 0.950 . S
C1963 C1959 1.393 . S
C1963 C1962 1.391 . S
C1964 H1954 0.950 . S
C1964 C1965 1.386 . S
C1964 C1966 1.391 . S
C1965 C1964 1.386 . S
C1965 C1969 1.393 . S
C1966 H1955 0.950 . S
C1966 C1964 1.391 . S
C1966 C1967 1.400 . S
C1967 C1961 1.491 . S
C1967 C1966 1.400 . S
C1967 C1968 1.398 . S
C1968 H1956 0.950 . S
C1968 C1967 1.398 . S
C1968 C1969 1.391 . S
C1969 H1957 0.950 . S
C1969 C1965 1.393 . S
C1969 C1968 1.391 . S
H1970 C1978 0.950 . S
H1971 C1983 0.950 . S
H1972 C1980 0.950 . S
H1973 C1982 0.950 . S
H1974 C1984 0.950 . S
H1975 C1986 0.950 . S
H1976 C1988 0.950 . S
H1977 C1989 0.950 . S
C1978 H1970 0.950 . S
C1978 C1979 1.386 . S
C1978 C1980 1.391 . S
C1979 C1978 1.386 . S
C1979 C1983 1.393 . S
C1980 H1972 0.950 . S
C1980 C1978 1.391 . S
C1980 C1981 1.400 . S
C1981 C1980 1.400 . S
C1981 C1982 1.398 . S
C1981 C1987 1.491 . S
C1982 H1973 0.950 . S
C1982 C1981 1.398 . S
C1982 C1983 1.391 . S
C1983 H1971 0.950 . S
C1983 C1979 1.393 . S
C1983 C1982 1.391 . S
C1984 H1974 0.950 . S
C1984 C1985 1.386 . S
C1984 C1986 1.391 . S
C1985 C1984 1.386 . S
C1985 C1989 1.393 . S
C1986 H1975 0.950 . S
C1986 C1984 1.391 . S
C1986 C1987 1.400 . S
C1987 C1981 1.491 . S
C1987 C1986 1.400 . S
C1987 C1988 1.398 . S
C1988 H1976 0.950 . S
C1988 C1987 1.398 . S
C1988 C1989 1.391 . S
C1989 H1977 0.950 . S
C1989 C1985 1.393 . S
C1989 C1988 1.391 . S
H1990 C1998 0.950 . S
H1991 C2003 0.950 . S
H1992 C2000 0.950 . S
H1993 C2002 0.950 . S
H1994 C2004 0.950 . S
H1995 C2006 0.950 . S
H1996 C2008 0.950 . S
H1997 C2009 0.950 . S
C1998 H1990 0.950 . S
C1998 C1999 1.386 . S
C1998 C2000 1.391 . S
C1999 C1998 1.386 . S
C1999 C2003 1.393 . S
C2000 H1992 0.950 . S
C2000 C1998 1.391 . S
C2000 C2001 1.400 . S
C2001 C2000 1.400 . S
C2001 C2002 1.398 . S
C2001 C2007 1.491 . S
C2002 H1993 0.950 . S
C2002 C2001 1.398 . S
C2002 C2003 1.391 . S
C2003 H1991 0.950 . S
C2003 C1999 1.393 . S
C2003 C2002 1.391 . S
C2004 H1994 0.950 . S
C2004 C2005 1.386 . S
C2004 C2006 1.391 . S
C2005 C2004 1.386 . S
C2005 C2009 1.393 . S
C2006 H1995 0.950 . S
C2006 C2004 1.391 . S
C2006 C2007 1.400 . S
C2007 C2001 1.491 . S
C2007 C2006 1.400 . S
C2007 C2008 1.398 . S
C2008 H1996 0.950 . S
C2008 C2007 1.398 . S
C2008 C2009 1.391 . S
C2009 H1997 0.950 . S
C2009 C2005 1.393 . S
C2009 C2008 1.391 . S
H2010 C2018 0.950 . S
H2011 C2023 0.950 . S
H2012 C2020 0.950 . S
H2013 C2022 0.950 . S
H2014 C2024 0.950 . S
H2015 C2026 0.950 . S
H2016 C2028 0.950 . S
H2017 C2029 0.950 . S
C2018 H2010 0.950 . S
C2018 C2019 1.386 . S
C2018 C2020 1.391 . S
C2019 C2018 1.386 . S
C2019 C2023 1.393 . S
C2020 H2012 0.950 . S
C2020 C2018 1.391 . S
C2020 C2021 1.400 . S
C2021 C2020 1.400 . S
C2021 C2022 1.398 . S
C2021 C2027 1.491 . S
C2022 H2013 0.950 . S
C2022 C2021 1.398 . S
C2022 C2023 1.391 . S
C2023 H2011 0.950 . S
C2023 C2019 1.393 . S
C2023 C2022 1.391 . S
C2024 H2014 0.950 . S
C2024 C2025 1.386 . S
C2024 C2026 1.391 . S
C2025 C2024 1.386 . S
C2025 C2029 1.393 . S
C2026 H2015 0.950 . S
C2026 C2024 1.391 . S
C2026 C2027 1.400 . S
C2027 C2021 1.491 . S
C2027 C2026 1.400 . S
C2027 C2028 1.398 . S
C2028 H2016 0.950 . S
C2028 C2027 1.398 . S
C2028 C2029 1.391 . S
C2029 H2017 0.950 . S
C2029 C2025 1.393 . S
C2029 C2028 1.391 . S
H2030 C2038 0.950 . S
H2031 C2043 0.950 . S
H2032 C2040 0.950 . S
H2033 C2042 0.950 . S
H2034 C2044 0.950 . S
H2035 C2046 0.950 . S
H2036 C2048 0.950 . S
H2037 C2049 0.950 . S
C2038 H2030 0.950 . S
C2038 C2039 1.386 . S
C2038 C2040 1.391 . S
C2039 C2038 1.386 . S
C2039 C2043 1.393 . S
C2040 H2032 0.950 . S
C2040 C2038 1.391 . S
C2040 C2041 1.400 . S
C2041 C2040 1.400 . S
C2041 C2042 1.398 . S
C2041 C2047 1.491 . S
C2042 H2033 0.950 . S
C2042 C2041 1.398 . S
C2042 C2043 1.391 . S
C2043 H2031 0.950 . S
C2043 C2039 1.393 . S
C2043 C2042 1.391 . S
C2044 H2034 0.950 . S
C2044 C2045 1.386 . S
C2044 C2046 1.391 . S
C2045 C2044 1.386 . S
C2045 C2049 1.393 . S
C2046 H2035 0.950 . S
C2046 C2044 1.391 . S
C2046 C2047 1.400 . S
C2047 C2041 1.491 . S
C2047 C2046 1.400 . S
C2047 C2048 1.398 . S
C2048 H2036 0.950 . S
C2048 C2047 1.398 . S
C2048 C2049 1.391 . S
C2049 H2037 0.950 . S
C2049 C2045 1.393 . S
C2049 C2048 1.391 . S
H2050 C2058 0.950 . S
H2051 C2063 0.950 . S
H2052 C2060 0.950 . S
H2053 C2062 0.950 . S
H2054 C2064 0.950 . S
H2055 C2066 0.950 . S
H2056 C2068 0.950 . S
H2057 C2069 0.950 . S
C2058 H2050 0.950 . S
C2058 C2059 1.386 . S
C2058 C2060 1.391 . S
C2059 C2058 1.386 . S
C2059 C2063 1.393 . S
C2060 H2052 0.950 . S
C2060 C2058 1.391 . S
C2060 C2061 1.400 . S
C2061 C2060 1.400 . S
C2061 C2062 1.398 . S
C2061 C2067 1.491 . S
C2062 H2053 0.950 . S
C2062 C2061 1.398 . S
C2062 C2063 1.391 . S
C2063 H2051 0.950 . S
C2063 C2059 1.393 . S
C2063 C2062 1.391 . S
C2064 H2054 0.950 . S
C2064 C2065 1.386 . S
C2064 C2066 1.391 . S
C2065 C2064 1.386 . S
C2065 C2069 1.393 . S
C2066 H2055 0.950 . S
C2066 C2064 1.391 . S
C2066 C2067 1.400 . S
C2067 C2061 1.491 . S
C2067 C2066 1.400 . S
C2067 C2068 1.398 . S
C2068 H2056 0.950 . S
C2068 C2067 1.398 . S
C2068 C2069 1.391 . S
C2069 H2057 0.950 . S
C2069 C2065 1.393 . S
C2069 C2068 1.391 . S
C999 N170 1.978 . S
C1005 C290 1.908 . S
C1019 N184 0.963 . S
C1025 C374 0.911 . S
C1039 N158 1.562 . S
C1045 C468 1.540 . S
C1059 N145 1.533 . S
C1065 C384 1.499 1_556 S
C1085 C458 0.908 . S
C1079 N119 0.897 . S
C1099 N131 1.934 . S
C1105 C300 1.890 . S
C1125 C301 1.575 . S
C1119 N144 1.643 . S
C1145 C385 1.330 . S
C1139 N118 1.363 . S
C1159 N132 1.440 . S
C1165 C477 1.435 . S
C1179 N171 1.415 . S
C1185 C393 1.405 . S
C1199 N183 1.321 . S
C1205 C469 1.288 . S
C1225 C309 1.565 . S
C1219 N157 1.599 . S
C1245 C542 1.919 . S
C1239 N14 1.987 . S
C1259 N28 0.963 . S
C1265 C626 0.911 . S
C1279 N2 1.556 . S
C1285 C720 1.523 . S
C1299 N223 1.537 . S
C1305 C636 1.515 . S
C1319 N197 0.893 . S
C1325 C710 0.905 . S
C1339 N209 1.941 . S
C1345 C552 1.908 . S
C1359 N222 1.648 . S
C1365 C553 1.589 . S
C1379 N196 1.371 . S
C1385 C637 1.344 . S
C1405 C729 1.434 . S
C1399 N210 1.440 . S
C1419 N15 1.415 . S
C1425 C645 1.407 . S
C1445 C721 1.305 . S
C1439 N27 1.323 . S
C1459 N1 1.605 . S
C1465 C561 1.570 . S
C1485 C794 1.903 . S
C1479 N92 1.976 . S
C1499 N106 0.957 . S
C1505 C878 0.908 . S
C1525 C972 1.535 . S
C1519 N80 1.562 . S
C1545 C888 1.498 . S
C1539 N67 1.532 . S
C1565 C962 0.873 . S
C1559 N41 0.915 . S
C1579 N53 1.936 . S
C1585 C804 1.892 . S
C1599 N66 1.643 . S
C1605 C805 1.571 . S
C1619 N40 1.371 . S
C1625 C889 1.351 . S
C1645 C981 1.427 . S
C1639 N54 1.432 . S
C1659 N93 1.422 . S
C1665 C897 1.413 . S
C1679 N105 1.313 . S
C1685 C973 1.280 . S
C1699 N79 1.602 . S
C1705 C813 1.574 . S
C1719 N200 1.248 . S
C1725 C297 1.150 . S
C1745 C381 1.597 . S
C1739 N213 1.778 . S
C1759 N226 1.494 . S
C1765 C474 1.360 . S
C1779 N83 1.524 . S
C1785 C390 1.384 . S
C1799 N96 1.756 . S
C1805 C465 1.568 . S
C1825 C306 1.162 . S
C1819 N109 1.258 . S
C1839 N44 1.256 . S
C1845 C549 1.116 . S
C1859 N57 1.782 . S
C1865 C633 1.587 . S
C1879 N70 1.500 . S
C1885 C726 1.365 . S
C1899 N161 1.535 . S
C1905 C642 1.417 . S
C1925 C717 1.604 . S
C1919 N174 1.768 . S
C1939 N187 1.273 . S
C1945 C558 1.183 . S
C1959 N122 1.236 . S
C1965 C801 1.152 . S
C1979 N135 1.791 . S
C1985 C885 1.614 . S
C2005 C978 1.360 . S
C1999 N148 1.497 . S
C2019 N5 1.527 . S
C2025 C894 1.381 . S
C2039 N18 1.769 . S
C2045 C969 1.606 . S
C2059 N31 1.275 . S
C2065 C810 1.168 . S
