# Generated by pormake.
# Topology eea, (3,6)-cn, num edge types: 1
# Building blocks:
#     Node 0, Type 0, BuildingBlock: CUQRIR_clean_linker_1, # of connection points: 3
#     Node 1, Type 0, BuildingBlock: CUQRIR_clean_linker_1, # of connection points: 3
#     Node 2, Type 0, BuildingBlock: CUQRIR_clean_linker_1, # of connection points: 3
#     Node 3, Type 0, BuildingBlock: CUQRIR_clean_linker_1, # of connection points: 3
#     Node 4, Type 0, BuildingBlock: CUQRIR_clean_linker_1, # of connection points: 3
#     Node 5, Type 0, BuildingBlock: CUQRIR_clean_linker_1, # of connection points: 3
#     Node 6, Type 0, BuildingBlock: CUQRIR_clean_linker_1, # of connection points: 3
#     Node 7, Type 0, BuildingBlock: CUQRIR_clean_linker_1, # of connection points: 3
#     Node 8, Type 0, BuildingBlock: CUQRIR_clean_linker_1, # of connection points: 3
#     Node 9, Type 0, BuildingBlock: CUQRIR_clean_linker_1, # of connection points: 3
#     Node 10, Type 0, BuildingBlock: CUQRIR_clean_linker_1, # of connection points: 3
#     Node 11, Type 0, BuildingBlock: CUQRIR_clean_linker_1, # of connection points: 3
#     Node 12, Type 0, BuildingBlock: CUQRIR_clean_linker_1, # of connection points: 3
#     Node 13, Type 0, BuildingBlock: CUQRIR_clean_linker_1, # of connection points: 3
#     Node 14, Type 0, BuildingBlock: CUQRIR_clean_linker_1, # of connection points: 3
#     Node 15, Type 0, BuildingBlock: CUQRIR_clean_linker_1, # of connection points: 3
#     Node 16, Type 0, BuildingBlock: CUQRIR_clean_linker_1, # of connection points: 3
#     Node 17, Type 0, BuildingBlock: CUQRIR_clean_linker_1, # of connection points: 3
#     Node 18, Type 1, BuildingBlock: KUMJIN_clean_sbu_0, # of connection points: 6
#     Node 19, Type 1, BuildingBlock: KUMJIN_clean_sbu_0, # of connection points: 6
#     Node 20, Type 1, BuildingBlock: KUMJIN_clean_sbu_0, # of connection points: 6
#     Node 21, Type 1, BuildingBlock: KUMJIN_clean_sbu_0, # of connection points: 6
#     Node 22, Type 1, BuildingBlock: KUMJIN_clean_sbu_0, # of connection points: 6
#     Node 23, Type 1, BuildingBlock: KUMJIN_clean_sbu_0, # of connection points: 6
#     Node 24, Type 1, BuildingBlock: KUMJIN_clean_sbu_0, # of connection points: 6
#     Node 25, Type 1, BuildingBlock: KUMJIN_clean_sbu_0, # of connection points: 6
#     Node 26, Type 1, BuildingBlock: KUMJIN_clean_sbu_0, # of connection points: 6
#     Edge 27, Type (0, 1), BuildingBlock: MIFKUJ_clean_linker_0, # of connection points: 2
#     Edge 28, Type (0, 1), BuildingBlock: MIFKUJ_clean_linker_0, # of connection points: 2
#     Edge 29, Type (0, 1), BuildingBlock: MIFKUJ_clean_linker_0, # of connection points: 2
#     Edge 30, Type (0, 1), BuildingBlock: MIFKUJ_clean_linker_0, # of connection points: 2
#     Edge 31, Type (0, 1), BuildingBlock: MIFKUJ_clean_linker_0, # of connection points: 2
#     Edge 32, Type (0, 1), BuildingBlock: MIFKUJ_clean_linker_0, # of connection points: 2
#     Edge 33, Type (0, 1), BuildingBlock: MIFKUJ_clean_linker_0, # of connection points: 2
#     Edge 34, Type (0, 1), BuildingBlock: MIFKUJ_clean_linker_0, # of connection points: 2
#     Edge 35, Type (0, 1), BuildingBlock: MIFKUJ_clean_linker_0, # of connection points: 2
#     Edge 36, Type (0, 1), BuildingBlock: MIFKUJ_clean_linker_0, # of connection points: 2
#     Edge 37, Type (0, 1), BuildingBlock: MIFKUJ_clean_linker_0, # of connection points: 2
#     Edge 38, Type (0, 1), BuildingBlock: MIFKUJ_clean_linker_0, # of connection points: 2
#     Edge 39, Type (0, 1), BuildingBlock: MIFKUJ_clean_linker_0, # of connection points: 2
#     Edge 40, Type (0, 1), BuildingBlock: MIFKUJ_clean_linker_0, # of connection points: 2
#     Edge 41, Type (0, 1), BuildingBlock: MIFKUJ_clean_linker_0, # of connection points: 2
#     Edge 42, Type (0, 1), BuildingBlock: MIFKUJ_clean_linker_0, # of connection points: 2
#     Edge 43, Type (0, 1), BuildingBlock: MIFKUJ_clean_linker_0, # of connection points: 2
#     Edge 44, Type (0, 1), BuildingBlock: MIFKUJ_clean_linker_0, # of connection points: 2
#     Edge 45, Type (0, 1), BuildingBlock: MIFKUJ_clean_linker_0, # of connection points: 2
#     Edge 46, Type (0, 1), BuildingBlock: MIFKUJ_clean_linker_0, # of connection points: 2
#     Edge 47, Type (0, 1), BuildingBlock: MIFKUJ_clean_linker_0, # of connection points: 2
#     Edge 48, Type (0, 1), BuildingBlock: MIFKUJ_clean_linker_0, # of connection points: 2
#     Edge 49, Type (0, 1), BuildingBlock: MIFKUJ_clean_linker_0, # of connection points: 2
#     Edge 50, Type (0, 1), BuildingBlock: MIFKUJ_clean_linker_0, # of connection points: 2
#     Edge 51, Type (0, 1), BuildingBlock: MIFKUJ_clean_linker_0, # of connection points: 2
#     Edge 52, Type (0, 1), BuildingBlock: MIFKUJ_clean_linker_0, # of connection points: 2
#     Edge 53, Type (0, 1), BuildingBlock: MIFKUJ_clean_linker_0, # of connection points: 2
#     Edge 54, Type (0, 1), BuildingBlock: MIFKUJ_clean_linker_0, # of connection points: 2
#     Edge 55, Type (0, 1), BuildingBlock: MIFKUJ_clean_linker_0, # of connection points: 2
#     Edge 56, Type (0, 1), BuildingBlock: MIFKUJ_clean_linker_0, # of connection points: 2
#     Edge 57, Type (0, 1), BuildingBlock: MIFKUJ_clean_linker_0, # of connection points: 2
#     Edge 58, Type (0, 1), BuildingBlock: MIFKUJ_clean_linker_0, # of connection points: 2
#     Edge 59, Type (0, 1), BuildingBlock: MIFKUJ_clean_linker_0, # of connection points: 2
#     Edge 60, Type (0, 1), BuildingBlock: MIFKUJ_clean_linker_0, # of connection points: 2
#     Edge 61, Type (0, 1), BuildingBlock: MIFKUJ_clean_linker_0, # of connection points: 2
#     Edge 62, Type (0, 1), BuildingBlock: MIFKUJ_clean_linker_0, # of connection points: 2
#     Edge 63, Type (0, 1), BuildingBlock: MIFKUJ_clean_linker_0, # of connection points: 2
#     Edge 64, Type (0, 1), BuildingBlock: MIFKUJ_clean_linker_0, # of connection points: 2
#     Edge 65, Type (0, 1), BuildingBlock: MIFKUJ_clean_linker_0, # of connection points: 2
#     Edge 66, Type (0, 1), BuildingBlock: MIFKUJ_clean_linker_0, # of connection points: 2
#     Edge 67, Type (0, 1), BuildingBlock: MIFKUJ_clean_linker_0, # of connection points: 2
#     Edge 68, Type (0, 1), BuildingBlock: MIFKUJ_clean_linker_0, # of connection points: 2
#     Edge 69, Type (0, 1), BuildingBlock: MIFKUJ_clean_linker_0, # of connection points: 2
#     Edge 70, Type (0, 1), BuildingBlock: MIFKUJ_clean_linker_0, # of connection points: 2
#     Edge 71, Type (0, 1), BuildingBlock: MIFKUJ_clean_linker_0, # of connection points: 2
#     Edge 72, Type (0, 1), BuildingBlock: MIFKUJ_clean_linker_0, # of connection points: 2
#     Edge 73, Type (0, 1), BuildingBlock: MIFKUJ_clean_linker_0, # of connection points: 2
#     Edge 74, Type (0, 1), BuildingBlock: MIFKUJ_clean_linker_0, # of connection points: 2
#     Edge 75, Type (0, 1), BuildingBlock: MIFKUJ_clean_linker_0, # of connection points: 2
#     Edge 76, Type (0, 1), BuildingBlock: MIFKUJ_clean_linker_0, # of connection points: 2
#     Edge 77, Type (0, 1), BuildingBlock: MIFKUJ_clean_linker_0, # of connection points: 2
#     Edge 78, Type (0, 1), BuildingBlock: MIFKUJ_clean_linker_0, # of connection points: 2
#     Edge 79, Type (0, 1), BuildingBlock: MIFKUJ_clean_linker_0, # of connection points: 2
#     Edge 80, Type (0, 1), BuildingBlock: MIFKUJ_clean_linker_0, # of connection points: 2
# Relax obj value: 0.039
# Max RMSD: 0.194
# Mean RMSD: 0.139
data_MOF--net-eea--node1-KUMJIN_clean_sbu_0--node2-CUQRIR_clean_linker_1--edge1-MIFKUJ_clean_linker_0
_symmetry_space_group_name_H-M    P1
_symmetry_Int_Tables_number       1
_symmetry_cell_setting            triclinic
loop_
_symmetry_equiv_pos_as_xyz
'x, y, z'
_cell_length_a     63.851349
_cell_length_b     68.308839
_cell_length_c     79.801518
_cell_angle_alpha  83.252242
_cell_angle_beta   90.185795
_cell_angle_gamma 118.56448
loop_
_atom_site_label
_atom_site_type_symbol
_atom_site_fract_x
_atom_site_fract_y
_atom_site_fract_z
_atom_type_partial_charge
C0 C 0.2089 0.09975 0.4115 0.0
N1 N 0.21471 0.11606 0.42162 0.0
N2 N 0.21165 0.08248 0.41944 0.0
C3 C 0.20031 0.10041 0.39396 0.0
C4 C 0.21925 0.08891 0.43475 0.0
N5 N 0.22097 0.10916 0.43609 0.0
C6 C 0.22474 0.07534 0.44855 0.0
H7 H 0.18053 0.0906 0.39469 0.0
H8 H 0.20736 0.09259 0.38575 0.0
H9 H 0.2055 0.11771 0.38808 0.0
H10 H 0.24407 0.08053 0.44742 0.0
H11 H 0.21434 0.0571 0.44759 0.0
H12 H 0.22071 0.07848 0.46117 0.0
C13 C 0.91148 0.1129 0.41512 0.0
N14 N 0.92104 0.12955 0.42517 0.0
N15 N 0.88877 0.09749 0.42071 0.0
C16 C 0.92348 0.11263 0.39903 0.0
C17 C 0.88481 0.10534 0.4345 0.0
N18 N 0.90422 0.1249 0.43717 0.0
C19 C 0.86243 0.09302 0.44598 0.0
H20 H 0.91016 0.10254 0.39031 0.0
H21 H 0.93516 0.10499 0.40213 0.0
H22 H 0.93474 0.12998 0.39256 0.0
H23 H 0.85354 0.07469 0.44524 0.0
H24 H 0.84984 0.09933 0.44199 0.0
H25 H 0.86647 0.09586 0.45929 0.0
C26 C 0.93765 0.8646 0.41912 0.0
N27 N 0.94581 0.85453 0.43101 0.0
N28 N 0.91656 0.86257 0.42457 0.0
C29 C 0.94863 0.87376 0.40138 0.0
C30 C 0.9122 0.85085 0.44021 0.0
N31 N 0.92987 0.84584 0.44409 0.0
C32 C 0.8892 0.84168 0.45075 0.0
H33 H 0.93995 0.88257 0.39424 0.0
H34 H 0.94685 0.85971 0.39472 0.0
H35 H 0.96795 0.88567 0.40168 0.0
H36 H 0.87601 0.82542 0.44675 0.0
H37 H 0.88168 0.85337 0.44908 0.0
H38 H 0.89211 0.83876 0.46431 0.0
C39 C 0.08218 0.16438 0.62281 0.0
N40 N 0.10166 0.17239 0.61207 0.0
N41 N 0.06455 0.16684 0.61509 0.0
C42 C 0.08131 0.15661 0.64137 0.0
C43 C 0.07404 0.17661 0.59921 0.0
N44 N 0.0966 0.17987 0.59734 0.0
C45 C 0.06243 0.18549 0.58626 0.0
H46 H 0.06342 0.14239 0.64565 0.0
H47 H 0.08459 0.17063 0.6486 0.0
H48 H 0.09499 0.15127 0.6442 0.0
H49 H 0.07245 0.20415 0.58446 0.0
H50 H 0.0435 0.17975 0.59012 0.0
H51 H 0.06314 0.17978 0.57394 0.0
C52 C 0.80386 0.9127 0.62706 0.0
N53 N 0.79671 0.89589 0.61724 0.0
N54 N 0.79508 0.92688 0.62177 0.0
C55 C 0.81853 0.91486 0.64224 0.0
C56 C 0.78215 0.91787 0.60851 0.0
N57 N 0.78308 0.89909 0.60583 0.0
C58 C 0.76832 0.92723 0.59825 0.0
H59 H 0.8063 0.90551 0.6536 0.0
H60 H 0.82933 0.93273 0.64422 0.0
H61 H 0.83072 0.90778 0.64108 0.0
H62 H 0.77977 0.93858 0.58707 0.0
H63 H 0.76282 0.93683 0.60578 0.0
H64 H 0.75211 0.91371 0.59361 0.0
C65 C 0.11468 0.91412 0.63271 0.0
N66 N 0.10343 0.8974 0.6229 0.0
N67 N 0.13535 0.931 0.62473 0.0
C68 C 0.10672 0.913 0.65068 0.0
C69 C 0.13619 0.92385 0.6097 0.0
N70 N 0.11703 0.90351 0.60863 0.0
C71 C 0.15523 0.93709 0.59569 0.0
H72 H 0.09492 0.92076 0.65076 0.0
H73 H 0.12227 0.92236 0.65817 0.0
H74 H 0.09657 0.89531 0.65677 0.0
H75 H 0.16964 0.93244 0.59717 0.0
H76 H 0.16301 0.95543 0.59607 0.0
H77 H 0.14793 0.93318 0.58315 0.0
C78 C 0.87022 0.43076 0.74918 0.0
N79 N 0.87694 0.44729 0.75919 0.0
N80 N 0.87509 0.41445 0.75618 0.0
C81 C 0.85957 0.43077 0.73237 0.0
C82 C 0.88499 0.42159 0.77078 0.0
N83 N 0.88597 0.44144 0.77269 0.0
C84 C 0.89436 0.40949 0.78291 0.0
H85 H 0.84935 0.44015 0.73196 0.0
H86 H 0.8477 0.41335 0.72974 0.0
H87 H 0.8742 0.4391 0.7223 0.0
H88 H 0.88485 0.39116 0.78214 0.0
H89 H 0.8925 0.41249 0.79606 0.0
H90 H 0.91362 0.41606 0.77956 0.0
C91 C 0.57334 0.44337 0.74878 0.0
N92 N 0.58332 0.45958 0.7592 0.0
N93 N 0.55258 0.42579 0.75599 0.0
C94 C 0.58385 0.44421 0.73166 0.0
C95 C 0.55047 0.43179 0.77125 0.0
N96 N 0.56903 0.45215 0.77324 0.0
C97 C 0.5305 0.41756 0.78446 0.0
H98 H 0.59877 0.46094 0.72681 0.0
H99 H 0.56972 0.43896 0.72245 0.0
H100 H 0.59093 0.43216 0.73258 0.0
H101 H 0.5226 0.39945 0.7831 0.0
H102 H 0.51638 0.42259 0.78303 0.0
H103 H 0.53701 0.42019 0.79734 0.0
C104 C 0.60248 0.19703 0.75054 0.0
N105 N 0.61008 0.1864 0.76242 0.0
N106 N 0.58108 0.1947 0.75558 0.0
C107 C 0.61401 0.20656 0.73297 0.0
C108 C 0.57601 0.18232 0.771 0.0
N109 N 0.59343 0.177 0.77507 0.0
C110 C 0.55262 0.1732 0.78111 0.0
H111 H 0.60561 0.2156 0.72577 0.0
H112 H 0.61228 0.19263 0.72619 0.0
H113 H 0.63331 0.21834 0.73352 0.0
H114 H 0.53889 0.15832 0.77576 0.0
H115 H 0.54649 0.18595 0.78034 0.0
H116 H 0.55422 0.16816 0.79459 0.0
C117 C 0.74974 0.5005 0.95756 0.0
N118 N 0.76907 0.50727 0.94697 0.0
N119 N 0.7333 0.50483 0.94981 0.0
C120 C 0.74748 0.49078 0.9758 0.0
C121 C 0.74337 0.51459 0.93406 0.0
N122 N 0.76518 0.51601 0.9323 0.0
C123 C 0.73338 0.52541 0.92125 0.0
H124 H 0.72843 0.48023 0.98029 0.0
H125 H 0.75595 0.50472 0.9836 0.0
H126 H 0.75681 0.48059 0.97753 0.0
H127 H 0.71922 0.52794 0.92701 0.0
H128 H 0.72559 0.51439 0.91126 0.0
H129 H 0.74778 0.54187 0.91516 0.0
C130 C 0.46956 0.24419 0.96033 0.0
N131 N 0.46505 0.22913 0.94927 0.0
N132 N 0.46902 0.26275 0.95264 0.0
C133 C 0.47379 0.24048 0.97873 0.0
C134 C 0.46434 0.25855 0.93648 0.0
N135 N 0.46216 0.23827 0.93438 0.0
C136 C 0.46042 0.27368 0.92303 0.0
H137 H 0.45629 0.23059 0.98599 0.0
H138 H 0.48376 0.25648 0.98407 0.0
H139 H 0.48378 0.2309 0.98052 0.0
H140 H 0.46811 0.27395 0.91054 0.0
H141 H 0.4685 0.29116 0.92607 0.0
H142 H 0.44092 0.26711 0.92206 0.0
C143 C 0.7841 0.25039 0.96345 0.0
N144 N 0.77243 0.23413 0.9534 0.0
N145 N 0.80415 0.26769 0.95518 0.0
C146 C 0.77515 0.24996 0.98096 0.0
C147 C 0.80421 0.26126 0.93972 0.0
N148 N 0.78481 0.24104 0.93854 0.0
C149 C 0.82452 0.27361 0.92644 0.0
H150 H 0.75535 0.24045 0.98229 0.0
H151 H 0.78132 0.26727 0.98397 0.0
H152 H 0.7822 0.24147 0.99021 0.0
H153 H 0.84156 0.28396 0.93219 0.0
H154 H 0.82058 0.28489 0.91741 0.0
H155 H 0.82676 0.26166 0.9193 0.0
C156 C 0.53304 0.76047 0.08345 0.0
N157 N 0.54043 0.77713 0.09339 0.0
N158 N 0.53654 0.74334 0.09071 0.0
C159 C 0.52094 0.76021 0.06721 0.0
C160 C 0.54635 0.75025 0.10544 0.0
N161 N 0.54848 0.7706 0.10713 0.0
C162 C 0.55532 0.73781 0.11766 0.0
H163 H 0.50834 0.74272 0.06508 0.0
H164 H 0.53467 0.7681 0.05653 0.0
H165 H 0.5111 0.76989 0.06737 0.0
H166 H 0.56174 0.72818 0.11094 0.0
H167 H 0.54043 0.7258 0.12684 0.0
H168 H 0.56998 0.74947 0.12484 0.0
C169 C 0.24371 0.77964 0.07863 0.0
N170 N 0.25423 0.79516 0.08944 0.0
N171 N 0.22408 0.7612 0.08626 0.0
C172 C 0.25337 0.78185 0.06094 0.0
C173 C 0.22306 0.76606 0.10212 0.0
N174 N 0.24143 0.78654 0.10414 0.0
C175 C 0.20344 0.75121 0.11544 0.0
H176 H 0.24666 0.79117 0.05218 0.0
H177 H 0.24743 0.76509 0.05687 0.0
H178 H 0.27318 0.79138 0.06005 0.0
H179 H 0.20867 0.73967 0.12294 0.0
H180 H 0.18646 0.74094 0.10959 0.0
H181 H 0.20047 0.76121 0.12421 0.0
C182 C 0.26629 0.5298 0.08581 0.0
N183 N 0.27385 0.51801 0.09664 0.0
N184 N 0.24765 0.53074 0.09288 0.0
C185 C 0.27613 0.53968 0.06791 0.0
C186 C 0.2444 0.51944 0.10858 0.0
N187 N 0.26048 0.51198 0.11096 0.0
C188 C 0.22311 0.51249 0.12048 0.0
H189 H 0.27493 0.55532 0.06443 0.0
H190 H 0.26522 0.5276 0.05919 0.0
H191 H 0.29501 0.54346 0.06627 0.0
H192 H 0.21005 0.49463 0.11974 0.0
H193 H 0.21437 0.52299 0.11719 0.0
H194 H 0.22858 0.5139 0.13368 0.0
C195 C 0.41517 0.82475 0.29339 0.0
N196 N 0.43274 0.83154 0.28115 0.0
N197 N 0.3968 0.82748 0.28726 0.0
C198 C 0.41795 0.81928 0.31182 0.0
C199 C 0.4039 0.8361 0.27086 0.0
N200 N 0.42576 0.83868 0.26715 0.0
C201 C 0.39054 0.84411 0.25887 0.0
H202 H 0.40131 0.81356 0.3197 0.0
H203 H 0.43243 0.83446 0.31637 0.0
H204 H 0.42338 0.806 0.31342 0.0
H205 H 0.39763 0.86243 0.25897 0.0
H206 H 0.37116 0.83529 0.26267 0.0
H207 H 0.39323 0.84136 0.2458 0.0
C208 C 0.13298 0.57746 0.29509 0.0
N209 N 0.12834 0.56223 0.28416 0.0
N210 N 0.13194 0.59574 0.28737 0.0
C211 C 0.13834 0.57442 0.31331 0.0
C212 C 0.12677 0.5912 0.27132 0.0
N213 N 0.12483 0.57098 0.26932 0.0
C214 C 0.1234 0.60637 0.25756 0.0
H215 H 0.12126 0.56444 0.32105 0.0
H216 H 0.14839 0.5907 0.31827 0.0
H217 H 0.14873 0.56521 0.31483 0.0
H218 H 0.13874 0.61364 0.24809 0.0
H219 H 0.12238 0.62046 0.26236 0.0
H220 H 0.10696 0.59647 0.25102 0.0
C221 C 0.44993 0.58424 0.2984 0.0
N222 N 0.4395 0.56757 0.28841 0.0
N223 N 0.47049 0.60163 0.29069 0.0
C224 C 0.4414 0.5825 0.31634 0.0
C225 C 0.47209 0.59485 0.27565 0.0
N226 N 0.45363 0.57415 0.27436 0.0
C227 C 0.49064 0.60916 0.26154 0.0
H228 H 0.42939 0.59002 0.31641 0.0
H229 H 0.45667 0.59175 0.32409 0.0
H230 H 0.43134 0.56468 0.32217 0.0
H231 H 0.50584 0.60557 0.26252 0.0
H232 H 0.49739 0.62731 0.26223 0.0
H233 H 0.48313 0.60525 0.24905 0.0
Eu234 Eu 0.51045 0.99972 1.00058 0.0
C235 C 0.56096 0.07077 0.04905 0.0
C236 C 0.59905 0.07118 0.05047 0.0
C237 C 0.59643 0.10435 0.05531 0.0
C238 C 0.57434 0.05995 0.04783 0.0
C239 C 0.57179 0.09297 0.05314 0.0
C240 C 0.61006 0.09354 0.05384 0.0
C241 C 0.53275 0.0903 0.05458 0.0
N242 N 0.53707 0.0591 0.04751 0.0
C243 C 0.52281 0.06822 0.0509 0.0
C244 C 0.5574 0.10282 0.05556 0.0
Eu245 Eu 0.52089 0.02133 0.04186 0.0
N246 N 0.56305 0.0381 0.04502 0.0
C247 C 0.57551 0.02638 0.04541 0.0
C248 C 0.61184 0.05938 0.05033 0.0
C249 C 0.59993 0.0368 0.04803 0.0
H250 H 0.50361 0.05837 0.05071 0.0
H251 H 0.6096 0.0274 0.04809 0.0
H252 H 0.62899 0.10241 0.05582 0.0
H253 H 0.52136 0.09751 0.0569 0.0
H254 H 0.56719 0.00906 0.04339 0.0
H255 H 0.41457 0.97097 0.99802 0.0
H256 H 0.63078 0.0674 0.05234 0.0
H257 H 0.54067 0.97496 0.98755 0.0
H258 H 0.45701 0.9987 0.99891 0.0
H259 H 0.5327 0.93725 0.98168 0.0
H260 H 0.60503 0.12136 0.05849 0.0
H261 H 0.40272 0.93106 0.9966 0.0
H262 H 0.41512 0.90174 0.99371 0.0
H263 H 0.56506 0.11983 0.05868 0.0
H264 H 0.44735 0.89248 0.9893 0.0
N265 N 0.46927 0.97472 0.99845 0.0
C266 C 0.45222 0.98141 0.99817 0.0
C267 C 0.42144 0.94319 0.99695 0.0
C268 C 0.43913 0.93675 0.99602 0.0
C269 C 0.42806 0.96571 0.9977 0.0
C270 C 0.46323 0.95318 0.99665 0.0
H271 H 0.49127 0.90574 0.9844 0.0
N272 N 0.50425 0.96449 0.99402 0.0
C273 C 0.51809 0.93996 0.98538 0.0
C274 C 0.4813 0.94788 0.99439 0.0
C275 C 0.52254 0.96125 0.98864 0.0
C276 C 0.49469 0.9222 0.98699 0.0
C277 C 0.47587 0.92615 0.99116 0.0
O278 O 0.53395 0.01168 0.97764 0.0
O279 O 0.53463 0.02716 0.01517 0.0
O280 O 0.51164 0.04455 0.02457 0.0
O281 O 0.49864 0.02649 1.00044 0.0
O282 O 0.55086 0.01482 1.00048 0.0
O283 O 0.49951 0.0105 0.97683 0.0
O284 O 0.50363 0.02132 0.06551 0.0
O285 O 0.49571 0.99485 0.0271 0.0
O286 O 0.51724 0.9748 0.01772 0.0
O287 O 0.52627 0.99046 0.04307 0.0
O288 O 0.48104 0.00883 0.04166 0.0
O289 O 0.51993 0.99998 0.06467 0.0
C290 C 0.55469 0.02994 0.01015 0.0
C291 C 0.51567 1.00625 0.95173 0.0
C292 C 0.52481 0.01416 0.92121 0.0
C293 C 0.52691 0.0216 0.93716 0.0
C294 C 0.51137 0.99097 0.92016 0.0
C295 C 0.50208 0.98328 0.9504 0.0
C296 C 0.50006 0.97569 0.93468 0.0
C297 C 0.50218 0.04261 0.00967 0.0
C298 C 0.51878 0.01461 0.96818 0.0
C299 C 0.45189 0.90938 0.9915 0.0
C300 C 0.43354 0.91466 0.99397 0.0
C301 C 0.47614 0.99324 0.03222 0.0
C302 C 0.51892 0.01235 0.09065 0.0
C303 C 0.51135 0.99464 0.10391 0.0
C304 C 0.52058 0.9984 0.11992 0.0
C305 C 0.53779 0.0203 0.12241 0.0
C306 C 0.5361 0.03408 0.09328 0.0
C307 C 0.54546 0.03799 0.10914 0.0
C308 C 0.52381 0.97502 0.03345 0.0
C309 C 0.50925 1.00724 0.0741 0.0
H310 H 0.53695 0.0394 0.93826 0.0
H311 H 0.50963 0.98461 0.90814 0.0
H312 H 0.49307 0.97123 0.96146 0.0
H313 H 0.48968 0.95791 0.93373 0.0
H314 H 0.49848 0.9778 0.10161 0.0
H315 H 0.54506 0.02383 0.13465 0.0
H316 H 0.54231 0.04791 0.08313 0.0
H317 H 0.55867 0.05479 0.11117 0.0
Eu318 Eu 0.02222 0.53004 0.99591 0.0
C319 C 0.94275 0.48301 0.05279 0.0
C320 C 0.93261 0.51262 0.05491 0.0
C321 C 0.90257 0.47361 0.06254 0.0
C322 C 0.94938 0.50565 0.05103 0.0
C323 C 0.91943 0.46679 0.05905 0.0
C324 C 0.90909 0.49647 0.06034 0.0
C325 C 0.932 0.4385 0.06043 0.0
N326 N 0.95971 0.47698 0.05006 0.0
C327 C 0.95498 0.45523 0.0546 0.0
C328 C 0.91408 0.44429 0.06253 0.0
Eu329 Eu 0.99861 0.50634 0.04081 0.0
N330 N 0.97255 0.5209 0.04656 0.0
C331 C 0.98023 0.54337 0.04635 0.0
C332 C 0.94018 0.53562 0.05393 0.0
C333 C 0.96416 0.55105 0.04979 0.0
H334 H 0.96901 0.45079 0.05345 0.0
H335 H 0.97031 0.56889 0.04926 0.0
H336 H 0.89603 0.50155 0.06345 0.0
H337 H 0.92824 0.42123 0.06358 0.0
H338 H 0.9986 0.55566 0.04313 0.0
H339 H 0.06477 0.47914 0.98533 0.0
H340 H 0.92782 0.54162 0.05675 0.0
H341 H 0.04325 0.58519 0.98309 0.0
H342 H 0.03128 0.48618 0.99114 0.0
H343 H 0.08207 0.61921 0.97457 0.0
H344 H 0.88466 0.46136 0.06747 0.0
H345 H 0.10583 0.51097 0.98002 0.0
H346 H 0.13311 0.55276 0.97595 0.0
H347 H 0.89643 0.43145 0.0675 0.0
H348 H 0.13789 0.59098 0.97323 0.0
N349 N 0.05304 0.52171 0.98926 0.0
C350 C 0.049 0.50028 0.98863 0.0
C351 C 0.09114 0.51419 0.98243 0.0
C352 C 0.09495 0.53618 0.98212 0.0
C353 C 0.06799 0.49619 0.98538 0.0
C354 C 0.07521 0.53944 0.9854 0.0
H355 H 0.11891 0.61593 0.97242 0.0
N356 N 0.05829 0.56323 0.98632 0.0
C357 C 0.08121 0.60293 0.97731 0.0
C358 C 0.07795 0.56089 0.984 0.0
C359 C 0.0593 0.58369 0.98207 0.0
C360 C 0.10196 0.60101 0.97616 0.0
C361 C 0.10043 0.57974 0.97911 0.0
O362 O 0.00966 0.54357 0.97436 0.0
O363 O 0.99195 0.51799 0.01503 0.0
O364 O 0.97894 0.47763 0.02539 0.0
O365 O 0.99772 0.49181 0.99814 0.0
O366 O 1.00007 0.54721 0.99925 0.0
O367 O 0.0119 0.51319 0.97324 0.0
O368 O 0.00464 0.48804 0.06306 0.0
O369 O 0.02814 0.51744 0.02147 0.0
O370 O 0.0429 0.55837 0.01149 0.0
O371 O 0.027 0.54346 0.03936 0.0
O372 O 0.02095 0.48904 0.03775 0.0
O373 O 0.01233 0.52241 0.06345 0.0
C374 C 0.98527 0.53242 0.01102 0.0
C375 C 0.01712 0.53622 0.94738 0.0
C376 C 0.01171 0.534 0.9171 0.0
C377 C 1.00271 0.52647 0.93411 0.0
C378 C 0.03531 0.55163 0.9137 0.0
C379 C 0.04069 0.55341 0.9436 0.0
C380 C 0.04965 0.56113 0.92685 0.0
C381 C 0.98213 0.47536 0.00948 0.0
C382 C 0.0074 0.52829 0.96505 0.0
C383 C 0.1204 0.57668 0.97674 0.0
C384 C 0.11767 0.55492 0.97826 0.0
C385 C 0.03524 0.50335 0.02552 0.0
C386 C 1.00054 0.49876 0.08956 0.0
C387 C 0.0152 0.50237 0.10332 0.0
C388 C 0.0055 0.49788 0.12007 0.0
C389 C 0.98072 0.48947 0.12274 0.0
C390 C 0.97596 0.49041 0.09261 0.0
C391 C 0.96612 0.4857 0.10911 0.0
C392 C 0.04165 0.56011 0.02776 0.0
C393 C 0.01121 0.50449 0.07212 0.0
H394 H 0.98467 0.51284 0.9371 0.0
H395 H 0.04271 0.55829 0.90083 0.0
H396 H 0.05218 0.56095 0.95353 0.0
H397 H 0.06779 0.57458 0.92404 0.0
H398 H 0.03413 0.50867 0.10098 0.0
H399 H 0.9726 0.48626 0.13535 0.0
H400 H 0.96439 0.48772 0.08228 0.0
H401 H 0.94712 0.47938 0.11133 0.0
Eu402 Eu 0.50321 0.48997 0.04897 0.0
C403 C 0.46399 0.53359 0.99261 0.0
C404 C 0.42153 0.50765 0.99538 0.0
C405 C 0.43577 0.54734 0.9859 0.0
C406 C 0.44536 0.51207 0.99685 0.0
C407 C 0.45947 0.55137 0.98658 0.0
C408 C 0.41682 0.5255 0.99031 0.0
C409 C 0.50198 0.57508 0.98063 0.0
N410 N 0.48661 0.53683 0.99336 0.0
C411 C 0.50551 0.55689 0.98674 0.0
C412 C 0.47889 0.57244 0.98085 0.0
Eu413 Eu 0.4914 0.50576 1.00483 0.0
N414 N 0.4506 0.49526 1.00162 0.0
C415 C 0.43296 0.47337 1.00374 0.0
C416 C 0.40323 0.48537 0.99862 0.0
C417 C 0.40901 0.46812 1.00255 0.0
H418 H 0.52341 0.55901 0.98669 0.0
H419 H 0.39503 0.45078 1.00471 0.0
H420 H 0.39862 0.52249 0.9893 0.0
H421 H 0.51707 0.59114 0.97583 0.0
H422 H 0.43719 0.45991 0.00687 0.0
H423 H 0.59762 0.55029 0.05254 0.0
H424 H 0.38468 0.48125 0.99768 0.0
H425 H 0.47415 0.43491 0.06282 0.0
H426 H 0.55514 0.53825 0.04859 0.0
H427 H 0.48341 0.40433 0.07278 0.0
H428 H 0.43191 0.56084 0.98152 0.0
H429 H 0.61089 0.52193 0.05998 0.0
H430 H 0.60009 0.48129 0.06738 0.0
H431 H 0.47619 0.58654 0.9761 0.0
H432 H 0.56906 0.44159 0.07287 0.0
N433 N 0.54428 0.50329 0.05343 0.0
C434 C 0.56055 0.52564 0.05194 0.0
C435 C 0.59215 0.51651 0.05831 0.0
C436 C 0.57521 0.49367 0.06066 0.0
C437 C 0.58472 0.53257 0.05414 0.0
C438 C 0.55106 0.48752 0.05824 0.0
H439 H 0.52549 0.41276 0.07511 0.0
N440 N 0.5106 0.46006 0.05921 0.0
C441 C 0.49773 0.42136 0.06947 0.0
C442 C 0.53369 0.46521 0.06116 0.0
C443 C 0.49254 0.43866 0.06389 0.0
C444 C 0.52151 0.42618 0.07074 0.0
C445 C 0.53984 0.44838 0.0668 0.0
O446 O 0.4799 0.47675 0.07213 0.0
O447 O 0.47792 0.49483 0.03199 0.0
O448 O 0.49737 0.5347 0.01907 0.0
O449 O 0.51377 0.52732 0.0439 0.0
O450 O 0.4636 0.46623 0.04948 0.0
O451 O 0.51096 0.50966 0.07013 0.0
O452 O 0.51477 0.51445 0.98205 0.0
O453 O 0.5165 0.50136 0.0221 0.0
O454 O 0.50096 0.46369 0.03315 0.0
O455 O 0.47869 0.46797 0.01112 0.0
O456 O 0.53155 0.52858 1.00352 0.0
O457 O 0.47985 0.48549 0.98386 0.0
C458 C 0.45854 0.47817 0.03813 0.0
C459 C 0.49749 0.48937 0.09757 0.0
C460 C 0.49424 0.49281 0.12761 0.0
C461 C 0.48996 0.49734 0.11058 0.0
C462 C 0.50594 0.47994 0.13131 0.0
C463 C 0.50928 0.4768 0.10165 0.0
C464 C 0.5134 0.47207 0.11843 0.0
C465 C 0.50795 0.54032 0.0334 0.0
C466 C 0.49285 0.49413 0.07984 0.0
C467 C 0.56394 0.4543 0.0687 0.0
C468 C 0.5816 0.47691 0.0656 0.0
C469 C 0.53609 0.5175 0.01591 0.0
C470 C 0.49632 0.50465 0.95641 0.0
C471 C 0.50449 0.49751 0.94311 0.0
C472 C 0.5028 0.50467 0.926 0.0
C473 C 0.49287 0.51915 0.92263 0.0
C474 C 0.48601 0.51856 0.95251 0.0
C475 C 0.48439 0.52581 0.93574 0.0
C476 C 0.48819 0.45671 0.01988 0.0
C477 C 0.49927 0.49829 0.97428 0.0
H478 H 0.48117 0.50734 0.10742 0.0
H479 H 0.50918 0.47576 0.14423 0.0
H480 H 0.51524 0.47056 0.09188 0.0
H481 H 0.5224 0.46222 0.12148 0.0
H482 H 0.51192 0.48632 0.94611 0.0
H483 H 0.49187 0.52569 0.90979 0.0
H484 H 0.47937 0.524 0.96242 0.0
H485 H 0.47671 0.53683 0.93288 0.0
Eu486 Eu 0.17356 0.33271 0.33346 0.0
C487 C 0.22039 0.40893 0.3795 0.0
C488 C 0.26233 0.41966 0.37623 0.0
C489 C 0.25056 0.44733 0.38193 0.0
C490 C 0.23802 0.40341 0.37634 0.0
C491 C 0.22643 0.43078 0.38282 0.0
C492 C 0.26849 0.44179 0.37859 0.0
C493 C 0.1845 0.41767 0.38925 0.0
N494 N 0.19731 0.39253 0.38035 0.0
C495 C 0.17946 0.39625 0.38591 0.0
C496 C 0.20807 0.43512 0.38745 0.0
Eu497 Eu 0.18981 0.35698 0.37363 0.0
N498 N 0.23142 0.38187 0.37413 0.0
C499 C 0.24825 0.37503 0.37319 0.0
C500 C 0.27968 0.41305 0.37416 0.0
C501 C 0.27259 0.39055 0.37293 0.0
H502 H 0.16121 0.38277 0.38725 0.0
H503 H 0.28585 0.38514 0.37166 0.0
H504 H 0.28706 0.45458 0.37832 0.0
H505 H 0.17022 0.42071 0.3932 0.0
H506 H 0.24313 0.35777 0.37207 0.0
H507 H 0.07823 0.30764 0.33402 0.0
H508 H 0.29854 0.42504 0.37391 0.0
H509 H 0.20047 0.30468 0.32102 0.0
H510 H 0.12123 0.33411 0.33339 0.0
H511 H 0.19001 0.2657 0.31697 0.0
H512 H 0.25556 0.46429 0.38423 0.0
H513 H 0.06416 0.2671 0.3337 0.0
H514 H 0.0742 0.23612 0.33134 0.0
H515 H 0.21195 0.45168 0.39011 0.0
H516 H 0.10466 0.22463 0.32677 0.0
N517 N 0.13176 0.3089 0.33287 0.0
C518 C 0.11553 0.31656 0.33304 0.0
C519 C 0.08315 0.27868 0.33329 0.0
C520 C 0.0999 0.27115 0.33209 0.0
C521 C 0.09103 0.30156 0.33343 0.0
C522 C 0.1244 0.28692 0.33169 0.0
H523 H 0.14788 0.23561 0.3211 0.0
N524 N 0.16477 0.29636 0.32788 0.0
C525 C 0.17619 0.26958 0.32049 0.0
C526 C 0.14146 0.28043 0.32917 0.0
C527 C 0.18204 0.29159 0.32273 0.0
C528 C 0.1524 0.25264 0.32288 0.0
C529 C 0.13461 0.25804 0.32691 0.0
O530 O 0.19387 0.34097 0.30934 0.0
O531 O 0.20059 0.36065 0.34638 0.0
O532 O 0.18194 0.38116 0.3564 0.0
O533 O 0.16288 0.36014 0.3345 0.0
O534 O 0.21374 0.34651 0.33076 0.0
O535 O 0.16245 0.34531 0.31069 0.0
O536 O 0.17061 0.34759 0.39831 0.0
O537 O 0.16264 0.32936 0.3606 0.0
O538 O 0.18015 0.30826 0.35121 0.0
O539 O 0.20155 0.33037 0.37192 0.0
O540 O 0.14961 0.34308 0.37665 0.0
O541 O 0.2018 0.34325 0.39536 0.0
C542 C 0.21962 0.3624 0.34004 0.0
C543 C 0.17288 0.33801 0.28465 0.0
C544 C 0.17886 0.34522 0.25395 0.0
C545 C 0.1851 0.35237 0.26989 0.0
C546 C 0.16032 0.32334 0.25298 0.0
C547 C 0.15456 0.31615 0.28356 0.0
C548 C 0.14837 0.30886 0.26774 0.0
C549 C 0.1695 0.3778 0.34273 0.0
C550 C 0.17948 0.34644 0.30096 0.0
C551 C 0.11027 0.24199 0.32822 0.0
C552 C 0.09294 0.24854 0.33082 0.0
C553 C 0.14362 0.32763 0.36695 0.0
C554 C 0.1928 0.34922 0.42232 0.0
C555 C 0.18934 0.33315 0.4362 0.0
C556 C 0.1952 0.33947 0.45246 0.0
C557 C 0.20502 0.3624 0.45442 0.0
C558 C 0.20285 0.37195 0.42449 0.0
C559 C 0.20896 0.37847 0.4405 0.0
C560 C 0.19361 0.31207 0.36432 0.0
C561 C 0.18527 0.34168 0.40581 0.0
H562 H 0.19908 0.36936 0.27081 0.0
H563 H 0.15515 0.31743 0.24084 0.0
H564 H 0.14499 0.30485 0.29486 0.0
H565 H 0.13416 0.292 0.26691 0.0
H566 H 0.18206 0.3157 0.43423 0.0
H567 H 0.20927 0.36795 0.46674 0.0
H568 H 0.20578 0.38457 0.4139 0.0
H569 H 0.2165 0.39602 0.44217 0.0
Eu570 Eu 0.69235 0.86295 0.32821 0.0
C571 C 0.61039 0.81537 0.3843 0.0
C572 C 0.59357 0.84061 0.38312 0.0
C573 C 0.56798 0.80046 0.39114 0.0
C574 C 0.61325 0.83687 0.3811 0.0
C575 C 0.58786 0.79699 0.38982 0.0
C576 C 0.57082 0.82223 0.38776 0.0
C577 C 0.60676 0.77353 0.39374 0.0
N578 N 0.62996 0.81262 0.38294 0.0
C579 C 0.62873 0.79231 0.38824 0.0
C580 C 0.58616 0.77581 0.3943 0.0
Eu581 Eu 0.66616 0.84489 0.37256 0.0
N582 N 0.63549 0.85426 0.37674 0.0
C583 C 0.63963 0.87594 0.37543 0.0
C584 C 0.59747 0.86275 0.38082 0.0
C585 C 0.62066 0.88051 0.37722 0.0
H586 H 0.64464 0.79053 0.38768 0.0
H587 H 0.62394 0.89771 0.37573 0.0
H588 H 0.55543 0.82473 0.3892 0.0
H589 H 0.60572 0.75733 0.39751 0.0
H590 H 0.65744 0.88979 0.37251 0.0
H591 H 0.73478 0.81085 0.32229 0.0
H592 H 0.58281 0.86633 0.3822 0.0
H593 H 0.71313 0.91764 0.31465 0.0
H594 H 0.70147 0.8184 0.32753 0.0
H595 H 0.75128 0.95098 0.30366 0.0
H596 H 0.55045 0.7865 0.39517 0.0
H597 H 0.77528 0.84243 0.31398 0.0
H598 H 0.80196 0.88402 0.30631 0.0
H599 H 0.56917 0.76125 0.3986 0.0
H600 H 0.80647 0.92213 0.30124 0.0
N601 N 0.72292 0.85396 0.32266 0.0
C602 C 0.71899 0.83235 0.32385 0.0
C603 C 0.7607 0.84586 0.31625 0.0
C604 C 0.76432 0.86791 0.31417 0.0
C605 C 0.73786 0.82799 0.32091 0.0
C606 C 0.74477 0.87146 0.3174 0.0
H607 H 0.78761 0.94721 0.29999 0.0
N608 N 0.72803 0.89557 0.31754 0.0
C609 C 0.75048 0.93478 0.30684 0.0
C610 C 0.74741 0.89292 0.31477 0.0
C611 C 0.72894 0.91593 0.31304 0.0
C612 C 0.77095 0.93259 0.30481 0.0
C613 C 0.76952 0.91142 0.30855 0.0
O614 O 0.67802 0.87333 0.30609 0.0
O615 O 0.66218 0.85563 0.34595 0.0
O616 O 0.6428 0.81712 0.35744 0.0
O617 O 0.66752 0.82448 0.3333 0.0
O618 O 0.67341 0.88381 0.32849 0.0
O619 O 0.68328 0.84432 0.30633 0.0
O620 O 0.67942 0.83422 0.39517 0.0
O621 O 0.69616 0.85188 0.35477 0.0
O622 O 0.71637 0.89039 0.34368 0.0
O623 O 0.6914 0.8831 0.36763 0.0
O624 O 0.68534 0.82416 0.3727 0.0
O625 O 0.67477 0.86365 0.39428 0.0
C626 C 0.65742 0.87097 0.34038 0.0
C627 C 0.68642 0.86543 0.27971 0.0
C628 C 0.67989 0.86387 0.24947 0.0
C629 C 0.6716 0.85574 0.26659 0.0
C630 C 0.70326 0.88185 0.24586 0.0
C631 C 0.70975 0.88295 0.27566 0.0
C632 C 0.71806 0.89112 0.25885 0.0
C633 C 0.64793 0.81134 0.34337 0.0
C634 C 0.67709 0.85787 0.29751 0.0
C635 C 0.78926 0.90809 0.30585 0.0
C636 C 0.78668 0.88639 0.30871 0.0
C637 C 0.70083 0.8365 0.36041 0.0
C638 C 0.66981 0.84231 0.42101 0.0
C639 C 0.68481 0.84704 0.43461 0.0
C640 C 0.6751 0.83845 0.45135 0.0
C641 C 0.65017 0.82549 0.45426 0.0
C642 C 0.645 0.8296 0.42425 0.0
C643 C 0.63526 0.82126 0.44079 0.0
C644 C 0.71132 0.89605 0.35789 0.0
C645 C 0.68022 0.84984 0.40351 0.0
H646 H 0.65373 0.84189 0.26975 0.0
H647 H 0.71014 0.88901 0.23295 0.0
H648 H 0.72148 0.89054 0.28546 0.0
H649 H 0.73601 0.90487 0.25586 0.0
H650 H 0.70397 0.85701 0.43219 0.0
H651 H 0.64217 0.81892 0.46701 0.0
H652 H 0.63316 0.82604 0.41402 0.0
H653 H 0.61608 0.81141 0.44319 0.0
Eu654 Eu 0.16919 0.82636 0.38013 0.0
C655 C 0.14162 0.8746 0.31913 0.0
C656 C 0.0995 0.85027 0.31613 0.0
C657 C 0.11723 0.89041 0.30678 0.0
C658 C 0.12186 0.85339 0.32142 0.0
C659 C 0.13957 0.89333 0.3117 0.0
C660 C 0.09732 0.86888 0.3088 0.0
C661 C 0.18232 0.91602 0.31268 0.0
N662 N 0.16316 0.87668 0.32324 0.0
C663 C 0.18355 0.89685 0.31962 0.0
C664 C 0.16021 0.91429 0.3088 0.0
Eu665 Eu 0.16377 0.84347 0.33489 0.0
N666 N 0.12478 0.83563 0.32787 0.0
C667 C 0.10626 0.81421 0.32889 0.0
C668 C 0.0802 0.82843 0.3178 0.0
C669 C 0.08362 0.81032 0.32417 0.0
H670 H 0.20071 0.89822 0.32247 0.0
H671 H 0.0689 0.79333 0.32527 0.0
H672 H 0.08048 0.86674 0.30423 0.0
H673 H 0.19845 0.93206 0.31021 0.0
H674 H 0.10878 0.80005 0.33355 0.0
H675 H 0.26372 0.87807 0.39056 0.0
H676 H 0.06273 0.82531 0.31387 0.0
H677 H 0.13342 0.77157 0.39297 0.0
H678 H 0.22348 0.87067 0.3827 0.0
H679 H 0.13677 0.73802 0.40448 0.0
H680 H 0.1153 0.90455 0.30094 0.0
H681 H 0.27108 0.84629 0.4005 0.0
H682 H 0.25521 0.80477 0.40755 0.0
H683 H 0.15935 0.9291 0.30318 0.0
H684 H 0.22074 0.76663 0.4112 0.0
N685 N 0.20839 0.83508 0.38748 0.0
C686 C 0.22646 0.85667 0.38688 0.0
C687 C 0.25351 0.84301 0.3968 0.0
C688 C 0.23473 0.82098 0.39798 0.0
C689 C 0.24934 0.86095 0.39132 0.0
C690 C 0.21201 0.81752 0.39334 0.0
H691 H 0.17647 0.74161 0.41028 0.0
N692 N 0.17086 0.79367 0.39184 0.0
C693 C 0.15264 0.75425 0.40196 0.0
C694 C 0.19265 0.79613 0.39551 0.0
C695 C 0.15079 0.77326 0.3955 0.0
C696 C 0.17509 0.75633 0.40517 0.0
C697 C 0.19541 0.77752 0.40222 0.0
O698 O 0.14527 0.8152 0.40296 0.0
O699 O 0.14687 0.83256 0.36106 0.0
O700 O 0.16572 0.87034 0.34984 0.0
O701 O 0.1845 0.8646 0.37367 0.0
O702 O 0.12903 0.80513 0.37898 0.0
O703 O 0.17639 0.84806 0.39986 0.0
O704 O 0.18873 0.85276 0.31297 0.0
O705 O 0.18591 0.83714 0.35399 0.0
O706 O 0.16717 0.79953 0.36501 0.0
O707 O 0.14831 0.80532 0.34128 0.0
O708 O 0.20405 0.86434 0.33582 0.0
O709 O 0.15435 0.82303 0.31405 0.0
C710 C 0.12636 0.81702 0.36622 0.0
C711 C 0.16362 0.8297 0.42779 0.0
C712 C 0.15784 0.83098 0.45799 0.0
C713 C 0.1523 0.83397 0.441 0.0
C714 C 0.17507 0.82393 0.46133 0.0
C715 C 0.1804 0.82242 0.43164 0.0
C716 C 0.1861 0.8196 0.44829 0.0
C717 C 0.17729 0.87692 0.36363 0.0
C718 C 0.15835 0.83321 0.40997 0.0
C719 C 0.2182 0.78074 0.40616 0.0
C720 C 0.23782 0.80245 0.40408 0.0
C721 C 0.20646 0.85252 0.34875 0.0
C722 C 0.17191 0.84245 0.28688 0.0
C723 C 0.17994 0.83457 0.27401 0.0
C724 C 0.17827 0.84107 0.25672 0.0
C725 C 0.1688 0.85583 0.25275 0.0
C726 C 0.16218 0.85671 0.28238 0.0
C727 C 0.16072 0.8634 0.26546 0.0
C728 C 0.15571 0.79307 0.35115 0.0
C729 C 0.17416 0.83633 0.30496 0.0
H730 H 0.13918 0.83943 0.43803 0.0
H731 H 0.18041 0.82208 0.47406 0.0
H732 H 0.1893 0.81912 0.42177 0.0
H733 H 0.19929 0.81421 0.45109 0.0
H734 H 0.18725 0.82336 0.27749 0.0
H735 H 0.1679 0.86191 0.23976 0.0
H736 H 0.1559 0.86289 0.29194 0.0
H737 H 0.15344 0.87467 0.26215 0.0
Eu738 Eu 0.83461 0.66547 0.6696 0.0
C739 C 0.88669 0.74054 0.71529 0.0
C740 C 0.92845 0.75093 0.7111 0.0
C741 C 0.91738 0.77883 0.71746 0.0
C742 C 0.90405 0.73482 0.71165 0.0
C743 C 0.89315 0.76249 0.71859 0.0
C744 C 0.935 0.77307 0.71369 0.0
C745 C 0.85135 0.75007 0.72498 0.0
N746 N 0.86348 0.72437 0.71629 0.0
C747 C 0.84586 0.72854 0.72164 0.0
C748 C 0.87508 0.7672 0.72326 0.0
Eu749 Eu 0.85542 0.68874 0.70944 0.0
N750 N 0.8971 0.71332 0.70909 0.0
C751 C 0.91369 0.70641 0.70713 0.0
C752 C 0.94553 0.74422 0.70821 0.0
C753 C 0.9381 0.72178 0.70644 0.0
H754 H 0.82747 0.71535 0.72285 0.0
H755 H 0.95116 0.71633 0.70445 0.0
H756 H 0.95365 0.78575 0.71312 0.0
H757 H 0.83729 0.75345 0.72884 0.0
H758 H 0.90823 0.68918 0.7056 0.0
H759 H 0.73824 0.63356 0.6719 0.0
H760 H 0.96445 0.75611 0.70761 0.0
H761 H 0.86634 0.64239 0.65574 0.0
H762 H 0.78033 0.66169 0.67326 0.0
H763 H 0.8593 0.60602 0.64767 0.0
H764 H 0.9227 0.79585 0.71978 0.0
H765 H 0.72754 0.59502 0.66653 0.0
H766 H 0.74108 0.56762 0.65991 0.0
H767 H 0.8793 0.78386 0.72588 0.0
H768 H 0.77401 0.56013 0.65334 0.0
N769 N 0.79365 0.63944 0.66878 0.0
C770 C 0.77603 0.64502 0.67083 0.0
C771 C 0.74614 0.60735 0.66707 0.0
C772 C 0.76433 0.602 0.66431 0.0
C773 C 0.75207 0.62905 0.67013 0.0
C774 C 0.78826 0.61871 0.66508 0.0
H775 H 0.8181 0.57442 0.64853 0.0
N776 N 0.82956 0.63128 0.66155 0.0
C777 C 0.84437 0.60814 0.65159 0.0
C778 C 0.80677 0.61447 0.66142 0.0
C779 C 0.84829 0.62872 0.65616 0.0
C780 C 0.82109 0.59032 0.65213 0.0
C781 C 0.8019 0.59344 0.65684 0.0
O782 O 0.8544 0.68032 0.6452 0.0
O783 O 0.86363 0.69261 0.68191 0.0
O784 O 0.84976 0.71419 0.69191 0.0
O785 O 0.82179 0.69046 0.67478 0.0
O786 O 0.87462 0.67889 0.66462 0.0
O787 O 0.81863 0.67578 0.64839 0.0
O788 O 0.83964 0.68031 0.73521 0.0
O789 O 0.82584 0.66188 0.69725 0.0
O790 O 0.83904 0.63918 0.68681 0.0
O791 O 0.8661 0.66196 0.70492 0.0
O792 O 0.81569 0.67554 0.71514 0.0
O793 O 0.86892 0.67399 0.72949 0.0
C794 C 0.88192 0.6943 0.67445 0.0
C795 C 0.83232 0.67443 0.62116 0.0
C796 C 0.84216 0.68354 0.5907 0.0
C797 C 0.8437 0.69028 0.60688 0.0
C798 C 0.82847 0.66049 0.58914 0.0
C799 C 0.81857 0.65164 0.61932 0.0
C800 C 0.81661 0.64475 0.60334 0.0
C801 C 0.83322 0.71002 0.68077 0.0
C802 C 0.83696 0.68195 0.63789 0.0
C803 C 0.7781 0.57646 0.65669 0.0
C804 C 0.75935 0.58073 0.66042 0.0
C805 C 0.80784 0.66038 0.70509 0.0
C806 C 0.8647 0.68097 0.75719 0.0
C807 C 0.86117 0.66476 0.77096 0.0
C808 C 0.86959 0.67111 0.78683 0.0
C809 C 0.88223 0.6942 0.78847 0.0
C810 C 0.87742 0.70385 0.75902 0.0
C811 C 0.88622 0.71039 0.77461 0.0
C812 C 0.85461 0.64259 0.6986 0.0
C813 C 0.8544 0.67346 0.74121 0.0
H814 H 0.85389 0.70789 0.60852 0.0
H815 H 0.82719 0.65449 0.57701 0.0
H816 H 0.80967 0.6392 0.6302 0.0
H817 H 0.80619 0.62709 0.60198 0.0
H818 H 0.85174 0.64715 0.76922 0.0
H819 H 0.8886 0.69981 0.80051 0.0
H820 H 0.88035 0.71657 0.74851 0.0
H821 H 0.89588 0.72808 0.77603 0.0
Eu822 Eu 0.35717 0.19447 0.6606 0.0
C823 C 0.2771 0.14239 0.71834 0.0
C824 C 0.2597 0.16662 0.72109 0.0
C825 C 0.23575 0.12623 0.72892 0.0
C826 C 0.27923 0.16367 0.71651 0.0
C827 C 0.2554 0.12343 0.72469 0.0
C828 C 0.23788 0.14777 0.72709 0.0
C829 C 0.27479 0.10061 0.72371 0.0
N830 N 0.29669 0.14037 0.71482 0.0
C831 C 0.29608 0.11998 0.71787 0.0
C832 C 0.25431 0.10232 0.72706 0.0
Eu833 Eu 0.332 0.17386 0.70483 0.0
N834 N 0.30079 0.18159 0.71126 0.0
C835 C 0.30438 0.20298 0.71108 0.0
C836 C 0.26295 0.18849 0.72011 0.0
C837 C 0.28548 0.20676 0.71529 0.0
H838 H 0.31191 0.11861 0.71539 0.0
H839 H 0.28832 0.22376 0.71482 0.0
H840 H 0.22266 0.1497 0.73062 0.0
H841 H 0.27423 0.08442 0.72575 0.0
H842 H 0.32175 0.21723 0.70747 0.0
H843 H 0.39659 0.14284 0.64551 0.0
H844 H 0.24839 0.19147 0.72348 0.0
H845 H 0.37888 0.25022 0.65196 0.0
H846 H 0.36528 0.15023 0.65624 0.0
H847 H 0.41667 0.28394 0.64106 0.0
H848 H 0.21892 0.11187 0.73381 0.0
H849 H 0.43569 0.17454 0.6345 0.0
H850 H 0.46299 0.21624 0.62891 0.0
H851 H 0.23791 0.08733 0.73181 0.0
H852 H 0.46885 0.25459 0.62843 0.0
N853 N 0.38691 0.18582 0.65222 0.0
C854 C 0.38247 0.16424 0.65185 0.0
C855 C 0.42236 0.17791 0.63976 0.0
C856 C 0.42677 0.19999 0.64005 0.0
C857 C 0.40018 0.15996 0.64578 0.0
C858 C 0.40834 0.20346 0.64628 0.0
H859 H 0.45171 0.28002 0.63294 0.0
N860 N 0.39283 0.22766 0.65074 0.0
C861 C 0.41553 0.26751 0.64243 0.0
C862 C 0.4115 0.22504 0.64573 0.0
C863 C 0.39418 0.24841 0.64857 0.0
C864 C 0.43527 0.26522 0.63787 0.0
C865 C 0.43327 0.24376 0.63915 0.0
O866 O 0.34381 0.20737 0.63925 0.0
O867 O 0.32759 0.18656 0.67899 0.0
O868 O 0.30679 0.14879 0.68844 0.0
O869 O 0.33227 0.15588 0.6649 0.0
O870 O 0.33877 0.21557 0.66293 0.0
O871 O 0.34547 0.17661 0.63842 0.0
O872 O 0.34397 0.16163 0.72746 0.0
O873 O 0.36155 0.1813 0.68633 0.0
O874 O 0.38231 0.21938 0.67731 0.0
O875 O 0.35641 0.21226 0.70053 0.0
O876 O 0.35071 0.15283 0.7033 0.0
O877 O 0.34359 0.19327 0.72613 0.0
C878 C 0.32264 0.20206 0.67452 0.0
C879 C 0.3503 0.19932 0.61236 0.0
C880 C 0.34426 0.19687 0.58217 0.0
C881 C 0.33569 0.18924 0.59927 0.0
C882 C 0.36765 0.2148 0.57852 0.0
C883 C 0.37356 0.21701 0.60831 0.0
C884 C 0.38215 0.22467 0.59149 0.0
C885 C 0.31214 0.14294 0.67449 0.0
C886 C 0.34099 0.19171 0.63015 0.0
C887 C 0.45199 0.24043 0.63351 0.0
C888 C 0.44867 0.21858 0.63383 0.0
C889 C 0.36583 0.16539 0.6909 0.0
C890 C 0.33725 0.17241 0.75315 0.0
C891 C 0.35254 0.17888 0.76655 0.0
C892 C 0.34302 0.17388 0.7834 0.0
C893 C 0.31806 0.162 0.78658 0.0
C894 C 0.31246 0.16066 0.75668 0.0
C895 C 0.30295 0.15543 0.77331 0.0
C896 C 0.3769 0.22498 0.69139 0.0
C897 C 0.34721 0.17832 0.73552 0.0
H898 H 0.31779 0.17543 0.60243 0.0
H899 H 0.37471 0.2215 0.56559 0.0
H900 H 0.38503 0.22511 0.61808 0.0
H901 H 0.40006 0.23846 0.58849 0.0
H902 H 0.37172 0.18818 0.76385 0.0
H903 H 0.31021 0.15765 0.79939 0.0
H904 H 0.30045 0.1556 0.74662 0.0
H905 H 0.28378 0.1463 0.77591 0.0
Eu906 Eu 0.83726 0.16004 0.71344 0.0
C907 C 0.8069 0.20972 0.65621 0.0
C908 C 0.76441 0.18487 0.65545 0.0
C909 C 0.78052 0.22526 0.64829 0.0
C910 C 0.78759 0.18826 0.65851 0.0
C911 C 0.80369 0.22842 0.65069 0.0
C912 C 0.76091 0.20352 0.65069 0.0
C913 C 0.84664 0.2517 0.64906 0.0
N914 N 0.82902 0.21216 0.65857 0.0
C915 C 0.84891 0.2326 0.65447 0.0
C916 C 0.82392 0.24965 0.64736 0.0
Eu917 Eu 0.83127 0.17931 0.66876 0.0
N918 N 0.79163 0.17062 0.66299 0.0
C919 C 0.77357 0.14907 0.66343 0.0
C920 C 0.74555 0.16281 0.65686 0.0
C921 C 0.75022 0.14483 0.66062 0.0
H922 H 0.86648 0.23422 0.65591 0.0
H923 H 0.73584 0.12771 0.66142 0.0
H924 H 0.7432 0.20127 0.64844 0.0
H925 H 0.8624 0.26796 0.64623 0.0
H926 H 0.77697 0.13506 0.66644 0.0
H927 H 0.93236 0.21325 0.72148 0.0
H928 H 0.72745 0.15948 0.65466 0.0
H929 H 0.80282 0.10548 0.72721 0.0
H930 H 0.89135 0.2051 0.71549 0.0
H931 H 0.80725 0.07243 0.73854 0.0
H932 H 0.77764 0.23944 0.64422 0.0
H933 H 0.94125 0.18208 0.72982 0.0
H934 H 0.92605 0.14053 0.73723 0.0
H935 H 0.82221 0.26447 0.64314 0.0
H936 H 0.89199 0.10216 0.74189 0.0
N937 N 0.87703 0.16955 0.71989 0.0
C938 C 0.89485 0.19128 0.71915 0.0
C939 C 0.92316 0.17837 0.72718 0.0
C940 C 0.90456 0.15618 0.72888 0.0
C941 C 0.9182 0.19601 0.72252 0.0
C942 C 0.88137 0.15229 0.7252 0.0
H943 H 0.84756 0.07664 0.74271 0.0
N944 N 0.8402 0.12789 0.72473 0.0
C945 C 0.8229 0.08871 0.73546 0.0
C946 C 0.86233 0.13074 0.72766 0.0
C947 C 0.82045 0.10743 0.72908 0.0
C948 C 0.84569 0.09115 0.73774 0.0
C949 C 0.86576 0.11242 0.73408 0.0
O950 O 0.8128 0.14804 0.73603 0.0
O951 O 0.81466 0.16682 0.695 0.0
O952 O 0.83373 0.20552 0.68467 0.0
O953 O 0.85175 0.19826 0.70839 0.0
O954 O 0.79732 0.13827 0.71213 0.0
O955 O 0.84439 0.18049 0.73402 0.0
O956 O 0.85619 0.19091 0.6465 0.0
O957 O 0.85348 0.17201 0.68719 0.0
O958 O 0.83397 0.13318 0.69773 0.0
O959 O 0.81733 0.14122 0.67339 0.0
O960 O 0.8715 0.20023 0.66982 0.0
O961 O 0.82238 0.16064 0.64695 0.0
C962 C 0.79433 0.15075 0.69998 0.0
C963 C 0.83051 0.16067 0.76143 0.0
C964 C 0.8245 0.16104 0.79174 0.0
C965 C 0.82001 0.16557 0.77473 0.0
C966 C 0.83997 0.15188 0.79501 0.0
C967 C 0.84567 0.15143 0.76516 0.0
C968 C 0.85036 0.14709 0.78184 0.0
C969 C 0.84476 0.2111 0.6988 0.0
C970 C 0.82594 0.16542 0.74367 0.0
C971 C 0.88894 0.11605 0.73712 0.0
C972 C 0.90833 0.13789 0.73449 0.0
C973 C 0.87398 0.18759 0.68212 0.0
C974 C 0.83931 0.18197 0.62021 0.0
C975 C 0.84895 0.17651 0.60668 0.0
C976 C 0.84635 0.18337 0.5897 0.0
C977 C 0.83437 0.19611 0.58667 0.0
C978 C 0.82722 0.19438 0.61668 0.0
C979 C 0.82488 0.20147 0.60002 0.0
C980 C 0.82376 0.12808 0.6832 0.0
C981 C 0.84197 0.17493 0.63798 0.0
H982 H 0.80827 0.17269 0.77184 0.0
H983 H 0.84442 0.14871 0.80779 0.0
H984 H 0.85404 0.14773 0.75518 0.0
H985 H 0.86225 0.14011 0.78457 0.0
H986 H 0.85806 0.16669 0.60937 0.0
H987 H 0.83248 0.20217 0.57389 0.0
H988 H 0.81961 0.19864 0.62679 0.0
H989 H 0.81567 0.21121 0.59744 0.0
H990 H 0.26274 0.82895 0.06465 0.0
H991 H 0.30142 0.86192 0.05541 0.0
H992 H 0.33409 0.84184 0.09648 0.0
H993 H 0.29513 0.80892 0.10576 0.0
H994 H 0.35359 0.88635 0.09187 0.0
H995 H 0.33798 0.83038 0.05614 0.0
H996 H 0.31469 0.80263 0.03712 0.0
H997 H 0.316 0.85514 1.00107 0.0
H998 H 0.33894 0.88318 0.02003 0.0
H999 H 0.4686 0.94972 0.03325 0.0
H1000 H 0.43172 0.91471 0.04291 0.0
H1001 H 0.39636 0.95318 0.05146 0.0
H1002 H 0.43276 0.98802 0.04122 0.0
H1003 H 0.38158 0.89677 0.03188 0.0
H1004 H 0.36944 0.93042 0.09242 0.0
H1005 H 0.39472 0.95656 0.1119 0.0
H1006 H 0.45276 0.94488 0.09919 0.0
H1007 H 0.42772 0.9184 0.07986 0.0
C1008 C 0.27815 0.83184 0.07182 0.0
C1009 C 0.27601 0.81641 0.08588 0.0
C1010 C 0.3003 0.85058 0.06648 0.0
C1011 C 0.32096 0.85423 0.07497 0.0
C1012 C 0.31855 0.83944 0.08962 0.0
C1013 C 0.29629 0.8207 0.095 0.0
C1014 C 0.34505 0.8729 0.06817 0.0
C1015 C 0.35961 0.88854 0.07876 0.0
C1016 C 0.3535 0.87563 0.05114 0.0
C1017 C 0.34001 0.85887 0.03959 0.0
C1018 C 0.33317 0.836 0.04421 0.0
C1019 C 0.32004 0.82022 0.03344 0.0
C1020 C 0.31383 0.82711 0.01791 0.0
C1021 C 0.3208 0.84982 0.01311 0.0
C1022 C 0.33388 0.86567 0.02387 0.0
C1023 C 0.45277 0.95066 0.03672 0.0
C1024 C 0.45346 0.97165 0.03613 0.0
C1025 C 0.43173 0.93064 0.04235 0.0
C1026 C 0.41126 0.93131 0.04798 0.0
C1027 C 0.41191 0.95223 0.04721 0.0
C1028 C 0.43271 0.97213 0.04133 0.0
C1029 C 0.38947 0.91045 0.05544 0.0
C1030 C 0.37544 0.89445 0.04498 0.0
C1031 C 0.38176 0.90709 0.07266 0.0
C1032 C 0.39676 0.92262 0.08455 0.0
C1033 C 0.38756 0.93335 0.09384 0.0
C1034 C 0.40185 0.94824 0.10485 0.0
C1035 C 0.42536 0.95244 0.10673 0.0
C1036 C 0.43459 0.94169 0.09767 0.0
C1037 C 0.42036 0.92677 0.08667 0.0
H1038 H 0.4364 0.964 0.11524 0.0
H1039 H 0.30365 0.81486 0.00959 0.0
H1040 H 0.2144 0.49797 0.07772 0.0
H1041 H 0.18279 0.49942 0.06105 0.0
H1042 H 0.20818 0.56812 0.06993 0.0
H1043 H 0.23986 0.56636 0.08686 0.0
H1044 H 0.16003 0.54263 0.07542 0.0
H1045 H 0.21731 0.55772 0.03133 0.0
H1046 H 0.24703 0.55248 0.0156 0.0
H1047 H 0.19262 0.48722 0.00634 0.0
H1048 H 0.16262 0.49188 0.02228 0.0
H1049 H 0.07342 0.54556 0.02298 0.0
H1050 H 0.11447 0.55559 0.02866 0.0
H1051 H 0.09622 0.48561 0.03388 0.0
H1052 H 0.05456 0.47535 0.02844 0.0
H1053 H 0.14494 0.51894 0.01812 0.0
H1054 H 0.08937 0.50231 0.06541 0.0
H1055 H 0.05927 0.5076 0.08025 0.0
H1056 H 0.11143 0.57576 0.08476 0.0
H1057 H 0.14171 0.57094 0.06938 0.0
C1058 C 0.21309 0.51331 0.07601 0.0
C1059 C 0.2292 0.53204 0.08341 0.0
C1060 C 0.1953 0.51424 0.06643 0.0
C1061 C 0.19346 0.53402 0.064 0.0
C1062 C 0.20949 0.55279 0.07155 0.0
C1063 C 0.22742 0.55182 0.08119 0.0
C1064 C 0.17381 0.53431 0.05434 0.0
C1065 C 0.15704 0.53803 0.06273 0.0
C1066 C 0.1698 0.52792 0.03788 0.0
C1067 C 0.18772 0.52512 0.02809 0.0
C1068 C 0.2117 0.54218 0.02604 0.0
C1069 C 0.2286 0.53932 0.01707 0.0
C1070 C 0.22172 0.51952 0.00999 0.0
C1071 C 0.19792 0.50256 0.01183 0.0
C1072 C 0.18095 0.50531 0.02081 0.0
C1073 C 0.07814 0.53232 0.02488 0.0
C1074 C 0.06076 0.50964 0.0253 0.0
C1075 C 0.10171 0.53813 0.02804 0.0
C1076 C 0.10824 0.52133 0.03177 0.0
C1077 C 0.09142 0.49879 0.03091 0.0
C1078 C 0.06769 0.49294 0.02796 0.0
C1079 C 0.13111 0.52676 0.03939 0.0
C1080 C 0.14832 0.52407 0.03065 0.0
C1081 C 0.13556 0.53406 0.05556 0.0
C1082 C 0.11762 0.53658 0.06558 0.0
C1083 C 0.09434 0.51858 0.06923 0.0
C1084 C 0.07722 0.52146 0.07785 0.0
C1085 C 0.0833 0.54212 0.08333 0.0
C1086 C 0.10662 0.55985 0.08033 0.0
C1087 C 0.12375 0.55708 0.07156 0.0
H1088 H 0.07003 0.54439 0.08996 0.0
H1089 H 0.23484 0.51734 1.00306 0.0
H1090 H 0.5127 0.70072 0.10657 0.0
H1091 H 0.50799 0.66658 0.09601 0.0
H1092 H 0.54535 0.70589 0.0489 0.0
H1093 H 0.55073 0.74015 0.0597 0.0
H1094 H 0.50303 0.66369 0.04542 0.0
H1095 H 0.5751 0.6925 0.07642 0.0
H1096 H 0.59762 0.70548 0.10162 0.0
H1097 H 0.55212 0.64147 0.13064 0.0
H1098 H 0.52908 0.62821 0.10567 0.0
H1099 H 0.52176 0.58057 0.01351 0.0
H1100 H 0.5277 0.61581 0.02237 0.0
H1101 H 0.51094 0.58449 0.07425 0.0
H1102 H 0.50536 0.54938 0.06539 0.0
H1103 H 0.54283 0.62353 0.07485 0.0
H1104 H 0.47027 0.59335 0.0465 0.0
H1105 H 0.44484 0.57813 0.02295 0.0
H1106 H 0.4857 0.64104 0.99126 0.0
H1107 H 0.51164 0.65652 0.01458 0.0
C1108 C 0.51993 0.70202 0.09399 0.0
C1109 C 0.53219 0.72306 0.08398 0.0
C1110 C 0.51714 0.68254 0.08793 0.0
C1111 C 0.52643 0.6837 0.07169 0.0
C1112 C 0.53796 0.70459 0.06144 0.0
C1113 C 0.54096 0.72412 0.06758 0.0
C1114 C 0.52511 0.6633 0.06574 0.0
C1115 C 0.51193 0.65501 0.0517 0.0
C1116 C 0.53611 0.65159 0.07427 0.0
C1117 C 0.55023 0.65945 0.0892 0.0
C1118 C 0.5698 0.68125 0.0882 0.0
C1119 C 0.58267 0.68865 0.10244 0.0
C1120 C 0.57628 0.67432 0.11773 0.0
C1121 C 0.55705 0.65254 0.11879 0.0
C1122 C 0.54408 0.64508 0.10459 0.0
C1123 C 0.51904 0.58113 0.02675 0.0
C1124 C 0.51262 0.56206 0.03867 0.0
C1125 C 0.52247 0.60133 0.03186 0.0
C1126 C 0.5189 0.60272 0.04898 0.0
C1127 C 0.51336 0.58385 0.06094 0.0
C1128 C 0.51026 0.56377 0.05586 0.0
C1129 C 0.52056 0.62359 0.05449 0.0
C1130 C 0.53383 0.63206 0.06848 0.0
C1131 C 0.50904 0.63506 0.04618 0.0
C1132 C 0.49299 0.62606 0.03229 0.0
C1133 C 0.47383 0.60394 0.03452 0.0
C1134 C 0.45936 0.59525 0.0212 0.0
C1135 C 0.46366 0.60861 1.00562 0.0
C1136 C 0.4824 0.63071 1.00334 0.0
C1137 C 0.49699 0.63946 0.01662 0.0
H1138 H 0.45246 0.60185 0.9953 0.0
H1139 H 0.58627 0.68008 0.12874 0.0
H1140 H 0.82038 0.31015 0.93972 0.0
H1141 H 0.8512 0.345 0.94906 0.0
H1142 H 0.85784 0.30673 0.99376 0.0
H1143 H 0.82722 0.27181 0.98422 0.0
H1144 H 0.85739 0.34478 1.00108 0.0
H1145 H 0.89866 0.32637 0.96077 0.0
H1146 H 0.90583 0.31707 0.93317 0.0
H1147 H 0.91486 0.38036 0.90885 0.0
H1148 H 0.90726 0.38985 0.93627 0.0
H1149 H 0.96323 0.43315 0.02732 0.0
H1150 H 0.93396 0.39751 0.01836 0.0
H1151 H 0.93371 0.43249 0.96972 0.0
H1152 H 0.96383 0.46798 0.97845 0.0
H1153 H 0.93072 0.39536 0.9646 0.0
H1154 H 0.88993 0.41439 1.00482 0.0
H1155 H 0.88185 0.42343 0.03227 0.0
H1156 H 0.87001 0.35916 0.05647 0.0
H1157 H 0.87911 0.3501 0.02934 0.0
C1158 C 0.82852 0.30923 0.9515 0.0
C1159 C 0.82149 0.28828 0.96121 0.0
C1160 C 0.84612 0.32913 0.95685 0.0
C1161 C 0.85713 0.32857 0.97205 0.0
C1162 C 0.84968 0.30767 0.98199 0.0
C1163 C 0.83213 0.28773 0.97658 0.0
C1164 C 0.87652 0.34973 0.97749 0.0
C1165 C 0.87359 0.35572 0.99321 0.0
C1166 C 0.89742 0.36434 0.96706 0.0
C1167 C 0.90214 0.35872 0.95057 0.0
C1168 C 0.90196 0.33822 0.94952 0.0
C1169 C 0.90612 0.33292 0.93391 0.0
C1170 C 0.91073 0.34809 0.91926 0.0
C1171 C 0.91123 0.36861 0.9202 0.0
C1172 C 0.907 0.37395 0.93578 0.0
C1173 C 0.95698 0.43322 0.0147 0.0
C1174 C 0.96576 0.45344 1.00365 0.0
C1175 C 0.94009 0.4128 0.00959 0.0
C1176 C 0.93095 0.41216 0.99345 0.0
C1177 C 0.94026 0.43234 0.98225 0.0
C1178 C 0.95755 0.45269 0.98724 0.0
C1179 C 0.91167 0.39064 0.98826 0.0
C1180 C 0.91457 0.38453 0.97254 0.0
C1181 C 0.89063 0.376 0.99866 0.0
C1182 C 0.88539 0.38162 0.01502 0.0
C1183 C 0.88585 0.40226 0.01601 0.0
C1184 C 0.88106 0.40738 0.03152 0.0
C1185 C 0.8752 0.39179 0.04606 0.0
C1186 C 0.87448 0.37119 0.04518 0.0
C1187 C 0.87956 0.36609 0.02976 0.0
H1188 H 0.87116 0.39562 0.05801 0.0
H1189 H 0.91396 0.34396 0.90718 0.0
H1190 H 0.73566 0.52957 0.97408 0.0
H1191 H 0.70217 0.53032 0.98835 0.0
H1192 H 0.6531 0.48163 0.95794 0.0
H1193 H 0.68695 0.48126 0.94351 0.0
H1194 H 0.64238 0.51429 0.95948 0.0
H1195 H 0.65858 0.46629 0.9992 0.0
H1196 H 0.68315 0.45475 0.01732 0.0
H1197 H 0.7003 0.5096 0.04574 0.0
H1198 H 0.67615 0.52172 0.0276 0.0
H1199 H 0.5426 0.48058 0.02259 0.0
H1200 H 0.57826 0.47815 0.01583 0.0
H1201 H 0.61572 0.54937 0.99869 0.0
H1202 H 0.5801 0.5521 0.00629 0.0
H1203 H 0.63022 0.5022 0.02209 0.0
H1204 H 0.63212 0.55006 0.95725 0.0
H1205 H 0.60408 0.55767 0.93987 0.0
H1206 H 0.54561 0.49495 0.96234 0.0
H1207 H 0.57329 0.48675 0.97937 0.0
C1208 C 0.71765 0.51898 0.97061 0.0
C1209 C 0.71355 0.50518 0.95795 0.0
C1210 C 0.69859 0.51934 0.97874 0.0
C1211 C 0.67513 0.50574 0.97439 0.0
C1212 C 0.67108 0.49215 0.96152 0.0
C1213 C 0.69023 0.49189 0.95333 0.0
C1214 C 0.65496 0.50622 0.98304 0.0
C1215 C 0.63978 0.51162 0.97316 0.0
C1216 C 0.65129 0.50235 1.0009 0.0
C1217 C 0.66572 0.49504 0.01192 0.0
C1218 C 0.66774 0.47601 0.00922 0.0
C1219 C 0.68158 0.46934 0.01951 0.0
C1220 C 0.69332 0.48146 0.03265 0.0
C1221 C 0.69121 0.50024 0.03555 0.0
C1222 C 0.67744 0.50701 0.02527 0.0
C1223 C 0.55864 0.49592 0.01818 0.0
C1224 C 0.55865 0.51661 0.01524 0.0
C1225 C 0.57906 0.49448 0.01428 0.0
C1226 C 0.59948 0.51356 0.00675 0.0
C1227 C 0.60005 0.53449 1.00461 0.0
C1228 C 0.57975 0.53601 0.00886 0.0
C1229 C 0.61838 0.51088 0.9985 0.0
C1230 C 0.63311 0.50498 0.00843 0.0
C1231 C 0.62128 0.51363 0.98069 0.0
C1232 C 0.60474 0.51797 0.96975 0.0
C1233 C 0.6133 0.53785 0.95835 0.0
C1234 C 0.59745 0.54225 0.94854 0.0
C1235 C 0.57303 0.52686 0.95002 0.0
C1236 C 0.56446 0.50692 0.96117 0.0
C1237 C 0.58022 0.50238 0.9709 0.0
H1238 H 0.56077 0.53037 0.94251 0.0
H1239 H 0.70402 0.47627 0.04061 0.0
H1240 H 0.43904 0.19532 0.97417 0.0
H1241 H 0.44344 0.16188 0.98286 0.0
H1242 H 0.49367 0.1804 0.94034 0.0
H1243 H 0.49003 0.21447 0.93207 0.0
H1244 H 0.45723 0.13105 0.94866 0.0
H1245 H 0.5175 0.19458 0.97343 0.0
H1246 H 0.53034 0.22682 0.98943 0.0
H1247 H 0.48623 0.1827 0.0327 0.0
H1248 H 0.47277 0.15023 0.01682 0.0
H1249 H 0.50844 0.06169 0.97689 0.0
H1250 H 0.50076 0.09223 0.96521 0.0
H1251 H 0.47367 0.09302 0.0145 0.0
H1252 H 0.48271 0.06339 0.02632 0.0
H1253 H 0.49812 0.13304 1.00192 0.0
H1254 H 0.43715 0.06965 0.97905 0.0
H1255 H 0.42065 0.03648 0.96379 0.0
H1256 H 0.46105 0.07793 0.91844 0.0
H1257 H 0.47808 0.11128 0.93348 0.0
C1258 C 0.45097 0.1922 0.96669 0.0
C1259 C 0.4646 0.20768 0.95268 0.0
C1260 C 0.45334 0.17304 0.97157 0.0
C1261 C 0.46907 0.16878 0.96234 0.0
C1262 C 0.48144 0.18338 0.94763 0.0
C1263 C 0.47932 0.20276 0.94289 0.0
C1264 C 0.47403 0.15021 0.9689 0.0
C1265 C 0.46641 0.13151 0.96019 0.0
C1266 C 0.4854 0.1506 0.9842 0.0
C1267 C 0.49396 0.17002 0.99389 0.0
C1268 C 0.5104 0.19178 0.98631 0.0
C1269 C 0.51781 0.21009 0.99536 0.0
C1270 C 0.50906 0.20682 0.01206 0.0
C1271 C 0.49297 0.18521 0.01976 0.0
C1272 C 0.48545 0.16685 0.01074 0.0
C1273 C 0.50069 0.06832 0.98518 0.0
C1274 C 0.49612 0.06015 1.00251 0.0
C1275 C 0.49616 0.08572 0.97848 0.0
C1276 C 0.48613 0.09482 0.98884 0.0
C1277 C 0.48142 0.08645 0.00617 0.0
C1278 C 0.48656 0.06946 0.01294 0.0
C1279 C 0.48116 0.1134 0.98178 0.0
C1280 C 0.48886 0.1323 0.9904 0.0
C1281 C 0.46941 0.11293 0.96656 0.0
C1282 C 0.45905 0.09293 0.95744 0.0
C1283 C 0.44263 0.07166 0.96585 0.0
C1284 C 0.43318 0.05283 0.95723 0.0
C1285 C 0.43985 0.05508 0.94016 0.0
C1286 C 0.45594 0.07619 0.93166 0.0
C1287 C 0.46548 0.09507 0.94022 0.0
H1288 H 0.43252 0.04048 0.93351 0.0
H1289 H 0.5148 0.22102 0.01904 0.0
H1290 H 0.76456 0.20055 0.97812 0.0
H1291 H 0.72646 0.16633 0.98678 0.0
H1292 H 0.6921 0.18742 0.94757 0.0
H1293 H 0.73049 0.22148 0.93874 0.0
H1294 H 0.66674 0.17277 0.98047 0.0
H1295 H 0.70163 0.14783 0.94101 0.0
H1296 H 0.7339 0.14287 0.92877 0.0
H1297 H 0.73284 0.10265 0.97469 0.0
H1298 H 0.70089 0.10778 0.98736 0.0
H1299 H 0.55656 0.06953 0.99726 0.0
H1300 H 0.59163 0.10424 0.98575 0.0
H1301 H 0.63678 0.07626 1.0042 0.0
H1302 H 0.60127 0.04022 0.01249 0.0
H1303 H 0.65647 0.09645 0.97873 0.0
H1304 H 0.62607 0.12857 0.02004 0.0
H1305 H 0.59642 0.13782 0.03166 0.0
H1306 H 0.58909 0.16489 0.98215 0.0
H1307 H 0.61916 0.15657 0.97027 0.0
C1308 C 0.74885 0.19769 0.97132 0.0
C1309 C 0.75032 0.21348 0.95777 0.0
C1310 C 0.72714 0.17822 0.97625 0.0
C1311 C 0.70637 0.17429 0.96785 0.0
C1312 C 0.70785 0.1901 0.95426 0.0
C1313 C 0.72972 0.20942 0.94916 0.0
C1314 C 0.68319 0.1537 0.97337 0.0
C1315 C 0.66436 0.156 0.9801 0.0
C1316 C 0.68011 0.13188 0.97291 0.0
C1317 C 0.699 0.12836 0.9652 0.0
C1318 C 0.7084 0.13807 0.94856 0.0
C1319 C 0.72663 0.13522 0.94154 0.0
C1320 C 0.73545 0.12248 0.95096 0.0
C1321 C 0.72601 0.11253 0.96741 0.0
C1322 C 0.70783 0.1154 0.97452 0.0
C1323 C 0.57406 0.07102 0.99908 0.0
C1324 C 0.5762 0.05238 0.00642 0.0
C1325 C 0.5944 0.0912 0.99268 0.0
C1326 C 0.61761 0.09386 0.99446 0.0
C1327 C 0.61948 0.0752 1.0024 0.0
C1328 C 0.5991 0.05457 0.00762 0.0
C1329 C 0.63984 0.11507 0.98712 0.0
C1330 C 0.65863 0.11301 0.97966 0.0
C1331 C 0.64292 0.13718 0.98704 0.0
C1332 C 0.62461 0.14172 0.99427 0.0
C1333 C 0.61803 0.13638 0.01165 0.0
C1334 C 0.6012 0.14147 0.01828 0.0
C1335 C 0.59067 0.15159 0.00765 0.0
C1336 C 0.59717 0.15696 0.99037 0.0
C1337 C 0.61421 0.15223 0.98369 0.0
H1338 H 0.5776 0.1554 0.01284 0.0
H1339 H 0.74957 0.12029 0.9455 0.0
H1340 H 0.79884 0.53538 0.96711 0.0
H1341 H 0.8357 0.53675 0.97747 0.0
H1342 H 0.8253 0.48321 0.94894 0.0
H1343 H 0.78861 0.48246 0.93812 0.0
H1344 H 0.83343 0.48011 0.98804 0.0
H1345 H 0.86585 0.52351 0.93381 0.0
H1346 H 0.87073 0.5529 0.91067 0.0
H1347 H 0.90313 0.60328 0.94386 0.0
H1348 H 0.89793 0.57409 0.96733 0.0
H1349 H 0.94709 0.49101 0.00972 0.0
H1350 H 0.90831 0.48357 0.99973 0.0
H1351 H 0.92707 0.55305 1.00122 0.0
H1352 H 0.96676 0.56082 0.00986 0.0
H1353 H 0.91418 0.54465 0.97249 0.0
H1354 H 0.87097 0.50262 0.02713 0.0
H1355 H 0.85704 0.47358 0.05211 0.0
H1356 H 0.84316 0.42276 0.02022 0.0
H1357 H 0.85595 0.45137 0.995 0.0
C1358 C 0.80476 0.52419 0.96295 0.0
C1359 C 0.79138 0.50895 0.95184 0.0
C1360 C 0.82561 0.52493 0.96881 0.0
C1361 C 0.83305 0.5101 0.9639 0.0
C1362 C 0.81971 0.49479 0.95277 0.0
C1363 C 0.79902 0.49442 0.94658 0.0
C1364 C 0.85444 0.51041 0.97107 0.0
C1365 C 0.85126 0.4939 0.98446 0.0
C1366 C 0.87733 0.52883 0.96663 0.0
C1367 C 0.88133 0.54656 0.95238 0.0
C1368 C 0.87386 0.54083 0.93622 0.0
C1369 C 0.87669 0.55746 0.92303 0.0
C1370 C 0.88719 0.57994 0.9258 0.0
C1371 C 0.89498 0.58585 0.94174 0.0
C1372 C 0.89212 0.56926 0.95499 0.0
C1373 C 0.94266 0.50452 0.00843 0.0
C1374 C 0.9599 0.52653 0.01048 0.0
C1375 C 0.9203 0.50022 1.0028 0.0
C1376 C 0.91459 0.51774 0.9996 0.0
C1377 C 0.93109 0.53928 1.00333 0.0
C1378 C 0.95369 0.54371 0.00842 0.0
C1379 C 0.89331 0.51464 0.99015 0.0
C1380 C 0.89652 0.53064 0.97613 0.0
C1381 C 0.87033 0.4959 0.99419 0.0
C1382 C 0.86482 0.47913 0.00929 0.0
C1383 C 0.86525 0.48529 0.0255 0.0
C1384 C 0.85737 0.46889 0.03967 0.0
C1385 C 0.84968 0.44641 0.03779 0.0
C1386 C 0.84937 0.44021 0.02169 0.0
C1387 C 0.85672 0.45646 0.00745 0.0
H1388 H 0.84378 0.43378 0.04881 0.0
H1389 H 0.88931 0.59278 0.91558 0.0
H1390 H 0.50692 0.29291 0.96754 0.0
H1391 H 0.51002 0.3256 0.97977 0.0
H1392 H 0.43887 0.30899 0.96541 0.0
H1393 H 0.43538 0.27572 0.95396 0.0
H1394 H 0.47868 0.35744 0.95624 0.0
H1395 H 0.44087 0.29691 1.00286 0.0
H1396 H 0.43853 0.26536 0.02277 0.0
H1397 H 0.50598 0.30943 0.04143 0.0
H1398 H 0.5089 0.34118 0.02141 0.0
H1399 H 0.45628 0.43153 0.99794 0.0
H1400 H 0.45305 0.39827 0.98711 0.0
H1401 H 0.51057 0.4015 0.01727 0.0
H1402 H 0.51336 0.43432 0.02858 0.0
H1403 H 0.47903 0.35996 0.01814 0.0
H1404 H 0.51851 0.42031 0.97376 0.0
H1405 H 0.525 0.45307 0.95339 0.0
H1406 H 0.46074 0.41203 0.92979 0.0
H1407 H 0.45366 0.37907 0.95017 0.0
C1408 C 0.49185 0.29609 0.96731 0.0
C1409 C 0.47079 0.28171 0.96008 0.0
C1410 C 0.49369 0.3148 0.97413 0.0
C1411 C 0.47466 0.31969 0.97348 0.0
C1412 C 0.45375 0.30554 0.966 0.0
C1413 C 0.45175 0.28658 0.95951 0.0
C1414 C 0.47648 0.33945 0.98074 0.0
C1415 C 0.47845 0.35795 0.96977 0.0
C1416 C 0.4771 0.34037 0.99835 0.0
C1417 C 0.47523 0.32135 0.0105 0.0
C1418 C 0.45531 0.29982 0.01109 0.0
C1419 C 0.45386 0.28192 0.02242 0.0
C1420 C 0.47213 0.28537 0.03332 0.0
C1421 C 0.49186 0.30677 0.03295 0.0
C1422 C 0.49341 0.32472 0.02163 0.0
C1423 C 0.46815 0.42509 1.00236 0.0
C1424 C 0.4851 0.43565 0.01411 0.0
C1425 C 0.4664 0.40612 0.99606 0.0
C1426 C 0.4819 0.39756 1.00108 0.0
C1427 C 0.49843 0.40775 0.01314 0.0
C1428 C 0.49999 0.42655 0.01962 0.0
C1429 C 0.48096 0.3781 0.99367 0.0
C1430 C 0.47926 0.35961 1.00459 0.0
C1431 C 0.48119 0.37746 0.97596 0.0
C1432 C 0.48543 0.39724 0.96361 0.0
C1433 C 0.50566 0.41829 0.96431 0.0
C1434 C 0.50946 0.4369 0.95275 0.0
C1435 C 0.49326 0.43464 0.94034 0.0
C1436 C 0.47325 0.41376 0.93943 0.0
C1437 C 0.46935 0.3951 0.95098 0.0
H1438 H 0.49622 0.44904 0.93138 0.0
H1439 H 0.47098 0.27149 0.04208 0.0
H1440 H 0.19907 0.75982 0.05863 0.0
H1441 H 0.16886 0.72612 0.04738 0.0
H1442 H 0.18095 0.68413 0.08658 0.0
H1443 H 0.21121 0.71791 0.09773 0.0
H1444 H 0.17632 0.6686 0.05514 0.0
H1445 H 0.13401 0.69221 0.09069 0.0
H1446 H 0.12283 0.71923 0.10018 0.0
H1447 H 0.09671 0.72682 0.05152 0.0
H1448 H 0.1081 0.7001 0.04165 0.0
H1449 H 0.06658 0.56496 0.05617 0.0
H1450 H 0.0987 0.59982 0.06469 0.0
H1451 H 0.08941 0.63802 0.02115 0.0
H1452 H 0.05767 0.60316 0.01238 0.0
H1453 H 0.09318 0.65609 0.05325 0.0
H1454 H 0.13109 0.62934 0.01849 0.0
H1455 H 0.14214 0.60257 0.00855 0.0
H1456 H 0.17859 0.6024 0.05379 0.0
H1457 H 0.16635 0.62799 0.06461 0.0
C1458 C 0.1954 0.74337 0.06467 0.0
C1459 C 0.20737 0.7414 0.07905 0.0
C1460 C 0.17809 0.72412 0.05832 0.0
C1461 C 0.17243 0.70249 0.06619 0.0
C1462 C 0.18495 0.70057 0.08027 0.0
C1463 C 0.20212 0.71982 0.08669 0.0
C1464 C 0.15285 0.68191 0.06019 0.0
C1465 C 0.15808 0.66569 0.05493 0.0
C1466 C 0.12914 0.6784 0.05943 0.0
C1467 C 0.12214 0.69434 0.06538 0.0
C1468 C 0.12606 0.69978 0.08197 0.0
C1469 C 0.11966 0.71502 0.08742 0.0
C1470 C 0.10912 0.72478 0.07645 0.0
C1471 C 0.10491 0.71927 0.06 0.0
C1472 C 0.11133 0.70408 0.05447 0.0
C1473 C 0.07125 0.58083 0.04851 0.0
C1474 C 0.05963 0.58135 0.0336 0.0
C1475 C 0.0897 0.60069 0.05333 0.0
C1476 C 0.09657 0.62153 0.04352 0.0
C1477 C 0.08446 0.62215 0.0289 0.0
C1478 C 0.06641 0.60223 0.02386 0.0
C1479 C 0.11656 0.6426 0.04843 0.0
C1480 C 0.11141 0.65893 0.05346 0.0
C1481 C 0.14034 0.6462 0.04887 0.0
C1482 C 0.14732 0.63033 0.04256 0.0
C1483 C 0.14091 0.62318 0.02657 0.0
C1484 C 0.1474 0.60819 0.02076 0.0
C1485 C 0.16088 0.60063 0.0306 0.0
C1486 C 0.16796 0.60813 0.04624 0.0
C1487 C 0.16106 0.62272 0.0523 0.0
H1488 H 0.16595 0.58906 0.02607 0.0
H1489 H 0.10417 0.73657 0.08069 0.0
H1490 H 0.27314 0.49754 0.06958 0.0
H1491 H 0.30292 0.48777 0.06067 0.0
H1492 H 0.33847 0.5065 0.10691 0.0
H1493 H 0.30997 0.51889 0.11479 0.0
H1494 H 0.37007 0.52188 0.08443 0.0
H1495 H 0.30546 0.45014 0.09733 0.0
H1496 H 0.2644 0.41866 0.09843 0.0
H1497 H 0.27056 0.4185 0.04489 0.0
H1498 H 0.31157 0.45021 0.04343 0.0
H1499 H 0.41621 0.44462 0.05207 0.0
H1500 H 0.38299 0.44827 0.06331 0.0
H1501 H 0.41734 0.51813 0.04153 0.0
H1502 H 0.45172 0.51504 0.03198 0.0
H1503 H 0.35056 0.45546 0.05534 0.0
H1504 H 0.40667 0.55066 0.06553 0.0
H1505 H 0.44676 0.57713 0.07363 0.0
H1506 H 0.45812 0.52191 0.09311 0.0
H1507 H 0.41778 0.49504 0.08579 0.0
C1508 C 0.2876 0.49999 0.07765 0.0
C1509 C 0.28987 0.50973 0.09254 0.0
C1510 C 0.30432 0.49386 0.07277 0.0
C1511 C 0.32297 0.49619 0.08314 0.0
C1512 C 0.32441 0.50472 0.09857 0.0
C1513 C 0.30808 0.51161 0.10317 0.0
C1514 C 0.34179 0.49126 0.07719 0.0
C1515 C 0.36578 0.50727 0.07816 0.0
C1516 C 0.33631 0.47178 0.06955 0.0
C1517 C 0.31161 0.45266 0.07027 0.0
C1518 C 0.29803 0.44347 0.08578 0.0
C1519 C 0.27476 0.42558 0.08647 0.0
C1520 C 0.26487 0.41659 0.07174 0.0
C1521 C 0.27825 0.42548 0.05629 0.0
C1522 C 0.30154 0.4434 0.05553 0.0
C1523 C 0.4165 0.46068 0.04953 0.0
C1524 C 0.43648 0.47949 0.04106 0.0
C1525 C 0.39745 0.46276 0.05591 0.0
C1526 C 0.3978 0.48363 0.05367 0.0
C1527 C 0.41691 0.50201 0.04395 0.0
C1528 C 0.43638 0.50013 0.03812 0.0
C1529 C 0.37888 0.48638 0.06225 0.0
C1530 C 0.35487 0.46999 0.06171 0.0
C1531 C 0.38441 0.50475 0.07132 0.0
C1532 C 0.40923 0.52082 0.07492 0.0
C1533 C 0.41773 0.54414 0.07152 0.0
C1534 C 0.44048 0.55922 0.07602 0.0
C1535 C 0.45499 0.55118 0.08383 0.0
C1536 C 0.44686 0.52808 0.08704 0.0
C1537 C 0.42403 0.51291 0.08275 0.0
H1538 H 0.4724 0.56284 0.08759 0.0
H1539 H 0.24684 0.40274 0.07229 0.0
H1540 H 0.56017 0.80696 0.06533 0.0
H1541 H 0.55849 0.84191 0.05767 0.0
H1542 H 0.52027 0.83089 0.10534 0.0
H1543 H 0.52111 0.79526 0.11263 0.0
H1544 H 0.50009 0.84428 0.08062 0.0
H1545 H 0.57871 0.87096 0.09821 0.0
H1546 H 0.61886 0.87445 0.10003 0.0
H1547 H 0.63465 0.90045 0.04729 0.0
H1548 H 0.5944 0.89675 0.04509 0.0
H1549 H 0.51533 0.95619 0.06652 0.0
H1550 H 0.51998 0.92409 0.07912 0.0
H1551 H 0.54569 0.91947 0.03063 0.0
H1552 H 0.5412 0.9516 0.01801 0.0
H1553 H 0.57267 0.91547 0.05894 0.0
H1554 H 0.49074 0.8851 0.04231 0.0
H1555 H 0.45174 0.88436 0.04248 0.0
H1556 H 0.44358 0.86763 0.09649 0.0
H1557 H 0.48277 0.86867 0.09666 0.0
C1558 C 0.55139 0.81203 0.07412 0.0
C1559 C 0.54077 0.79848 0.08954 0.0
C1560 C 0.55059 0.83208 0.06983 0.0
C1561 C 0.53943 0.83924 0.08098 0.0
C1562 C 0.52898 0.82578 0.09652 0.0
C1563 C 0.52969 0.80559 0.10077 0.0
C1564 C 0.53838 0.86052 0.07612 0.0
C1565 C 0.51604 0.8599 0.07616 0.0
C1566 C 0.55913 0.88101 0.07023 0.0
C1567 C 0.58344 0.88341 0.07147 0.0
C1568 C 0.59067 0.87727 0.08697 0.0
C1569 C 0.61346 0.87931 0.08808 0.0
C1570 C 0.62929 0.88763 0.07378 0.0
C1571 C 0.62236 0.89398 0.05835 0.0
C1572 C 0.59956 0.89194 0.05718 0.0
C1573 C 0.52216 0.94845 0.05857 0.0
C1574 C 0.52761 0.95624 0.04119 0.0
C1575 C 0.52473 0.93008 0.06578 0.0
C1576 C 0.53305 0.91932 0.05579 0.0
C1577 C 0.5392 0.9275 0.03856 0.0
C1578 C 0.53635 0.94569 0.03131 0.0
C1579 C 0.53445 0.89897 0.0631 0.0
C1580 C 0.55683 0.89982 0.06353 0.0
C1581 C 0.51383 0.87885 0.06969 0.0
C1582 C 0.48976 0.87712 0.06951 0.0
C1583 C 0.48066 0.88132 0.05423 0.0
C1584 C 0.45853 0.88087 0.05426 0.0
C1585 C 0.44521 0.876 0.06949 0.0
C1586 C 0.45393 0.87142 0.0847 0.0
C1587 C 0.47608 0.87191 0.08474 0.0
H1588 H 0.42813 0.87575 0.0695 0.0
H1589 H 0.64693 0.8892 0.07465 0.0
H1590 H 0.93027 0.17295 0.42126 0.0
H1591 H 0.9687 0.20644 0.41191 0.0
H1592 H 1.00242 0.16472 0.41231 0.0
H1593 H 0.96409 0.13143 0.42196 0.0
H1594 H 0.03249 0.20412 0.42323 0.0
H1595 H 0.98437 0.18154 0.37574 0.0
H1596 H 0.94834 0.17148 0.35971 0.0
H1597 H 0.95584 0.23712 0.3614 0.0
H1598 H 0.99172 0.24745 0.3777 0.0
H1599 H 0.13541 0.28383 0.36984 0.0
H1600 H 0.09795 0.2495 0.37964 0.0
H1601 H 0.06273 0.28934 0.38336 0.0
H1602 H 0.10009 0.32356 0.37367 0.0
H1603 H 0.03405 0.25017 0.36981 0.0
H1604 H 0.08183 0.27262 0.41755 0.0
H1605 H 0.11827 0.28305 0.43317 0.0
H1606 H 0.11167 0.21789 0.43092 0.0
H1607 H 0.07548 0.20724 0.41483 0.0
C1608 C 0.94604 0.17108 0.41972 0.0
C1609 C 0.9442 0.1496 0.42227 0.0
C1610 C 0.96797 0.19017 0.4142 0.0
C1611 C 0.98857 0.1882 0.41105 0.0
C1612 C 0.98693 0.16683 0.41452 0.0
C1613 C 0.96501 0.14778 0.42 0.0
C1614 C 0.01138 0.20807 0.40333 0.0
C1615 C 0.03282 0.21399 0.41145 0.0
C1616 C 0.01204 0.22127 0.38801 0.0
C1617 C 0.99059 0.21519 0.37809 0.0
C1618 C 0.97824 0.19377 0.3728 0.0
C1619 C 0.95785 0.18803 0.36365 0.0
C1620 C 0.94977 0.20364 0.35957 0.0
C1621 C 0.9621 0.22504 0.36459 0.0
C1622 C 0.98247 0.23085 0.37378 0.0
C1623 C 0.11955 0.28519 0.37244 0.0
C1624 C 0.12059 0.30638 0.37072 0.0
C1625 C 0.09817 0.26557 0.37818 0.0
C1626 C 0.07742 0.26676 0.38237 0.0
C1627 C 0.07837 0.28788 0.38019 0.0
C1628 C 0.09975 0.30745 0.37467 0.0
C1629 C 0.05502 0.2463 0.38978 0.0
C1630 C 0.03369 0.24025 0.38158 0.0
C1631 C 0.05449 0.23301 0.405 0.0
C1632 C 0.07608 0.23922 0.41481 0.0
C1633 C 0.08826 0.26058 0.42022 0.0
C1634 C 0.10888 0.26654 0.42915 0.0
C1635 C 0.11733 0.25117 0.43294 0.0
C1636 C 0.10514 0.2298 0.42786 0.0
C1637 C 0.08459 0.22379 0.41883 0.0
H1638 H 0.13327 0.2558 0.43988 0.0
H1639 H 0.93399 0.19916 0.35248 0.0
H1640 H 0.896 0.83836 0.39943 0.0
H1641 H 0.86215 0.83705 0.38401 0.0
H1642 H 0.86274 0.88795 0.41166 0.0
H1643 H 0.89674 0.88917 0.42704 0.0
H1644 H 0.81912 0.85193 0.41307 0.0
H1645 H 0.8796 0.90011 0.37007 0.0
H1646 H 0.91452 0.91215 0.3504 0.0
H1647 H 0.87531 0.85389 0.32529 0.0
H1648 H 0.84024 0.8413 0.34498 0.0
H1649 H 0.7432 0.87545 0.35309 0.0
H1650 H 0.78301 0.88113 0.35857 0.0
H1651 H 0.75364 0.81051 0.37651 0.0
H1652 H 0.71352 0.80444 0.37004 0.0
H1653 H 0.81271 0.85915 0.35085 0.0
H1654 H 0.77482 0.81378 0.4179 0.0
H1655 H 0.74036 0.80437 0.43736 0.0
H1656 H 0.73661 0.86248 0.41402 0.0
H1657 H 0.77123 0.87242 0.3948 0.0
C1658 C 0.88916 0.8496 0.40183 0.0
C1659 C 0.89881 0.86397 0.41422 0.0
C1660 C 0.86992 0.84887 0.39307 0.0
C1661 C 0.86006 0.86251 0.39662 0.0
C1662 C 0.87015 0.87734 0.40872 0.0
C1663 C 0.88948 0.8781 0.41744 0.0
C1664 C 0.838 0.85986 0.38876 0.0
C1665 C 0.81782 0.85358 0.39946 0.0
C1666 C 0.83631 0.8621 0.37101 0.0
C1667 C 0.85735 0.86965 0.35911 0.0
C1668 C 0.87848 0.88976 0.36045 0.0
C1669 C 0.89829 0.8967 0.34928 0.0
C1670 C 0.89715 0.88377 0.33663 0.0
C1671 C 0.87617 0.86388 0.3351 0.0
C1672 C 0.85631 0.85684 0.34626 0.0
C1673 C 0.74519 0.86093 0.35742 0.0
C1674 C 0.72523 0.83941 0.36082 0.0
C1675 C 0.76804 0.86423 0.36058 0.0
C1676 C 0.77116 0.84624 0.36791 0.0
C1677 C 0.75148 0.82455 0.3707 0.0
C1678 C 0.72865 0.82114 0.36711 0.0
C1679 C 0.79404 0.85085 0.3752 0.0
C1680 C 0.81421 0.85745 0.36443 0.0
C1681 C 0.79592 0.84928 0.39289 0.0
C1682 C 0.77539 0.84365 0.40475 0.0
C1683 C 0.76666 0.82457 0.41699 0.0
C1684 C 0.7471 0.81915 0.428 0.0
C1685 C 0.7362 0.83275 0.42691 0.0
C1686 C 0.74492 0.85186 0.41487 0.0
C1687 C 0.76451 0.85739 0.4039 0.0
H1688 H 0.72106 0.8285 0.43544 0.0
H1689 H 0.91251 0.88918 0.32799 0.0
H1690 H 0.17248 0.05236 0.40551 0.0
H1691 H 0.16706 0.01826 0.39463 0.0
H1692 H 0.2378 0.03252 0.40878 0.0
H1693 H 0.24369 0.06741 0.41854 0.0
H1694 H 0.23142 0.0174 0.38033 0.0
H1695 H 0.18442 0.99207 0.43265 0.0
H1696 H 0.15397 0.9884 0.45354 0.0
H1697 H 0.09936 0.95874 0.41882 0.0
H1698 H 0.12956 0.96253 0.39762 0.0
H1699 H 0.21073 0.90315 0.38436 0.0
H1700 H 0.21691 0.93891 0.39268 0.0
H1701 H 0.15955 0.93564 0.36245 0.0
H1702 H 0.15363 0.90028 0.35369 0.0
H1703 H 0.15888 0.94461 0.39861 0.0
H1704 H 0.20821 0.96991 0.3466 0.0
H1705 H 0.23966 0.97187 0.32756 0.0
H1706 H 0.29134 1.00007 0.36442 0.0
H1707 H 0.26006 0.99788 0.38383 0.0
C1708 C 0.18695 0.04834 0.40602 0.0
C1709 C 0.20847 0.06245 0.4129 0.0
C1710 C 0.18376 0.02869 0.40003 0.0
C1711 C 0.20183 0.02245 0.40116 0.0
C1712 C 0.22351 0.0368 0.4078 0.0
C1713 C 0.22681 0.05662 0.41353 0.0
C1714 C 0.19817 1.00098 0.39553 0.0
C1715 C 0.21566 1.0015 0.38452 0.0
C1716 C 0.1775 0.9801 0.40077 0.0
C1717 C 0.15929 0.97781 0.41348 0.0
C1718 C 0.16595 0.98493 0.42942 0.0
C1719 C 0.14873 0.9828 0.44132 0.0
C1720 C 0.12475 0.9734 0.43749 0.0
C1721 C 0.11794 0.96606 0.42176 0.0
C1722 C 0.1351 0.96818 0.4098 0.0
C1723 C 0.19952 0.9101 0.37941 0.0
C1724 C 0.18174 0.89889 0.36833 0.0
C1725 C 0.20308 0.93052 0.38417 0.0
C1726 C 0.18865 0.93986 0.37819 0.0
C1727 C 0.17083 0.92867 0.36721 0.0
C1728 C 0.16758 0.90852 0.36216 0.0
C1729 C 0.19205 0.96124 0.38352 0.0
C1730 C 0.17456 0.96062 0.39446 0.0
C1731 C 0.21285 0.98191 0.37848 0.0
C1732 C 0.23174 0.98351 0.36674 0.0
C1733 C 0.22623 0.97633 0.35072 0.0
C1734 C 0.24403 0.97752 0.33984 0.0
C1735 C 0.26748 0.98604 0.34479 0.0
C1736 C 0.27317 0.99345 0.36061 0.0
C1737 C 0.25541 0.99225 0.37155 0.0
H1738 H 0.28124 0.98695 0.33636 0.0
H1739 H 0.11144 0.97176 0.44672 0.0
H1740 H 0.5186 0.61917 0.28959 0.0
H1741 H 0.548 0.6548 0.29809 0.0
H1742 H 0.49121 0.66519 0.31684 0.0
H1743 H 0.46172 0.6305 0.30646 0.0
H1744 H 0.52283 0.70307 0.30453 0.0
H1745 H 0.52873 0.64782 0.34313 0.0
H1746 H 0.533 0.61436 0.35291 0.0
H1747 H 0.60238 0.64539 0.32702 0.0
H1748 H 0.5984 0.67893 0.3169 0.0
H1749 H 0.60101 0.78607 0.35466 0.0
H1750 H 0.57103 0.75046 0.3463 0.0
H1751 H 0.62348 0.75074 0.31228 0.0
H1752 H 0.65385 0.78667 0.3206 0.0
H1753 H 0.5938 0.70806 0.33343 0.0
H1754 H 0.58504 0.76517 0.29635 0.0
H1755 H 0.57977 0.79887 0.29192 0.0
H1756 H 0.5128 0.76323 0.32116 0.0
H1757 H 0.51787 0.72942 0.32602 0.0
C1758 C 0.51235 0.6292 0.29527 0.0
C1759 C 0.48774 0.62199 0.29719 0.0
C1760 C 0.52925 0.6495 0.30048 0.0
C1761 C 0.52212 0.66278 0.30858 0.0
C1762 C 0.49744 0.65544 0.31071 0.0
C1763 C 0.48049 0.63539 0.30498 0.0
C1764 C 0.54043 0.68434 0.31452 0.0
C1765 C 0.53811 0.70393 0.31103 0.0
C1766 C 0.56067 0.68594 0.32307 0.0
C1767 C 0.56316 0.66581 0.32913 0.0
C1768 C 0.54483 0.64745 0.33943 0.0
C1769 C 0.54721 0.62848 0.34504 0.0
C1770 C 0.56792 0.62773 0.34055 0.0
C1771 C 0.58633 0.64598 0.33047 0.0
C1772 C 0.58404 0.66499 0.32481 0.0
C1773 C 0.60637 0.77854 0.34552 0.0
C1774 C 0.63001 0.78927 0.3384 0.0
C1775 C 0.58907 0.75818 0.34066 0.0
C1776 C 0.5949 0.74792 0.32859 0.0
C1777 C 0.61854 0.75834 0.32162 0.0
C1778 C 0.63587 0.77892 0.32635 0.0
C1779 C 0.57621 0.72645 0.32317 0.0
C1780 C 0.57846 0.70698 0.32685 0.0
C1781 C 0.55558 0.72483 0.31536 0.0
C1782 C 0.55192 0.74478 0.31164 0.0
C1783 C 0.56921 0.76452 0.30187 0.0
C1784 C 0.56628 0.78366 0.29929 0.0
C1785 C 0.546 0.78321 0.30629 0.0
C1786 C 0.52852 0.76356 0.31576 0.0
C1787 C 0.5314 0.74439 0.31841 0.0
H1788 H 0.54381 0.79808 0.30436 0.0
H1789 H 0.56973 0.61303 0.34491 0.0
H1790 H 0.3591 0.7934 0.30579 0.0
H1791 H 0.32799 0.79617 0.32188 0.0
H1792 H 0.36323 0.86783 0.30594 0.0
H1793 H 0.39463 0.86501 0.29066 0.0
H1794 H 0.34809 0.86006 0.33733 0.0
H1795 H 0.31433 0.82987 0.28642 0.0
H1796 H 0.30168 0.80314 0.26547 0.0
H1797 H 0.2546 0.7498 0.30334 0.0
H1798 H 0.26727 0.77616 0.32459 0.0
H1799 H 0.25203 0.88524 0.34069 0.0
H1800 H 0.28677 0.8801 0.33587 0.0
H1801 H 0.24466 0.80934 0.354 0.0
H1802 H 0.20977 0.81417 0.35745 0.0
H1803 H 0.26344 0.81419 0.32468 0.0
H1804 H 0.29664 0.84847 0.37516 0.0
H1805 H 0.30983 0.87803 0.394 0.0
H1806 H 0.35748 0.92689 0.35409 0.0
H1807 H 0.34471 0.89774 0.33507 0.0
C1808 C 0.36007 0.80964 0.30592 0.0
C1809 C 0.37882 0.82895 0.29692 0.0
C1810 C 0.34238 0.81126 0.315 0.0
C1811 C 0.34312 0.83219 0.31492 0.0
C1812 C 0.36226 0.85152 0.3062 0.0
C1813 C 0.38001 0.84991 0.29734 0.0
C1814 C 0.32362 0.83406 0.32334 0.0
C1815 C 0.32955 0.85006 0.33456 0.0
C1816 C 0.29943 0.82084 0.31988 0.0
C1817 C 0.29201 0.80492 0.30715 0.0
C1818 C 0.30147 0.81239 0.29032 0.0
C1819 C 0.29426 0.79731 0.27839 0.0
C1820 C 0.27742 0.77476 0.28308 0.0
C1821 C 0.26771 0.76725 0.29973 0.0
C1822 C 0.2749 0.78225 0.31173 0.0
C1823 C 0.25043 0.86871 0.34403 0.0
C1824 C 0.22824 0.85018 0.34971 0.0
C1825 C 0.27034 0.86581 0.34144 0.0
C1826 C 0.26846 0.84434 0.34474 0.0
C1827 C 0.24662 0.82608 0.3514 0.0
C1828 C 0.22663 0.8289 0.35356 0.0
C1829 C 0.28781 0.84021 0.33876 0.0
C1830 C 0.28187 0.82384 0.32784 0.0
C1831 C 0.312 0.85344 0.34224 0.0
C1832 C 0.31957 0.87095 0.35368 0.0
C1833 C 0.30979 0.86555 0.37039 0.0
C1834 C 0.31722 0.88221 0.3811 0.0
C1835 C 0.33433 0.90429 0.37521 0.0
C1836 C 0.3442 0.90978 0.35863 0.0
C1837 C 0.33695 0.89319 0.34791 0.0
H1838 H 0.34001 0.91714 0.38351 0.0
H1839 H 0.27183 0.76313 0.27382 0.0
H1840 H 0.10398 0.52871 0.3096 0.0
H1841 H 0.10901 0.49552 0.31778 0.0
H1842 H 0.15739 0.51416 0.27408 0.0
H1843 H 0.15313 0.54797 0.2663 0.0
H1844 H 0.12204 0.46499 0.28271 0.0
H1845 H 0.18246 0.5289 0.30698 0.0
H1846 H 0.19535 0.56108 0.32306 0.0
H1847 H 0.15285 0.51659 0.36674 0.0
H1848 H 0.13934 0.48418 0.3508 0.0
H1849 H 0.17491 0.39644 0.30996 0.0
H1850 H 0.16654 0.42661 0.29834 0.0
H1851 H 0.14061 0.42773 0.34797 0.0
H1852 H 0.15032 0.39851 0.35963 0.0
H1853 H 0.16459 0.46752 0.33523 0.0
H1854 H 0.104 0.40353 0.31289 0.0
H1855 H 0.08723 0.3705 0.2975 0.0
H1856 H 0.12466 0.41261 0.25155 0.0
H1857 H 0.14206 0.44587 0.26674 0.0
C1858 C 0.11567 0.52568 0.30177 0.0
C1859 C 0.12859 0.5411 0.28755 0.0
C1860 C 0.11837 0.50666 0.30635 0.0
C1861 C 0.13376 0.50252 0.29663 0.0
C1862 C 0.14544 0.51707 0.28175 0.0
C1863 C 0.14298 0.53631 0.27731 0.0
C1864 C 0.13922 0.48419 0.30286 0.0
C1865 C 0.13158 0.46555 0.29408 0.0
C1866 C 0.15109 0.48475 0.31792 0.0
C1867 C 0.15972 0.50415 0.32765 0.0
C1868 C 0.17573 0.526 0.31998 0.0
C1869 C 0.18316 0.54428 0.32907 0.0
C1870 C 0.17488 0.54089 0.3459 0.0
C1871 C 0.15923 0.51919 0.3537 0.0
C1872 C 0.15169 0.50086 0.34464 0.0
C1873 C 0.16735 0.40315 0.31832 0.0
C1874 C 0.16336 0.39527 0.3357 0.0
C1875 C 0.16239 0.4203 0.31167 0.0
C1876 C 0.15249 0.42936 0.32216 0.0
C1877 C 0.14831 0.42122 0.33954 0.0
C1878 C 0.15388 0.40451 0.34625 0.0
C1879 C 0.14718 0.44776 0.31524 0.0
C1880 C 0.15497 0.46665 0.32387 0.0
C1881 C 0.13501 0.44714 0.30019 0.0
C1882 C 0.12459 0.42716 0.29102 0.0
C1883 C 0.10885 0.40573 0.29954 0.0
C1884 C 0.09922 0.38697 0.29085 0.0
C1885 C 0.10497 0.38945 0.27358 0.0
C1886 C 0.12031 0.41071 0.26495 0.0
C1887 C 0.13007 0.42952 0.2736 0.0
H1888 H 0.09748 0.37491 0.26686 0.0
H1889 H 0.18063 0.55506 0.35291 0.0
H1890 H 0.39709 0.56349 0.29824 0.0
H1891 H 0.35971 0.52873 0.30676 0.0
H1892 H 0.39342 0.48981 0.29531 0.0
H1893 H 0.43106 0.52474 0.28711 0.0
H1894 H 0.3476 0.47234 0.28439 0.0
H1895 H 0.38578 0.49673 0.3355 0.0
H1896 H 0.40486 0.52354 0.35602 0.0
H1897 H 0.34046 0.52757 0.36313 0.0
H1898 H 0.32113 0.50111 0.34239 0.0
H1899 H 0.26249 0.36739 0.32955 0.0
H1900 H 0.29936 0.40229 0.32023 0.0
H1901 H 0.26499 0.44087 0.33108 0.0
H1902 H 0.22785 0.4059 0.34005 0.0
H1903 H 0.31093 0.45853 0.34227 0.0
H1904 H 0.27239 0.43465 0.29174 0.0
H1905 H 0.25284 0.40897 0.27058 0.0
H1906 H 0.31685 0.40489 0.26177 0.0
H1907 H 0.33667 0.43019 0.28314 0.0
C1908 C 0.3965 0.5475 0.29759 0.0
C1909 C 0.41707 0.54686 0.29214 0.0
C1910 C 0.37513 0.52762 0.30245 0.0
C1911 C 0.37371 0.50651 0.30196 0.0
C1912 C 0.394 0.50582 0.29588 0.0
C1913 C 0.4155 0.52579 0.29111 0.0
C1914 C 0.35125 0.4853 0.30816 0.0
C1915 C 0.33979 0.46919 0.29713 0.0
C1916 C 0.34055 0.48135 0.32465 0.0
C1917 C 0.35209 0.49713 0.33723 0.0
C1918 C 0.37575 0.50349 0.34132 0.0
C1919 C 0.3866 0.5186 0.35301 0.0
C1920 C 0.37391 0.5273 0.36084 0.0
C1921 C 0.3503 0.52085 0.35702 0.0
C1922 C 0.33938 0.5058 0.3453 0.0
C1923 C 0.26284 0.38333 0.33004 0.0
C1924 C 0.24237 0.38386 0.33585 0.0
C1925 C 0.28391 0.40328 0.32465 0.0
C1926 C 0.28502 0.42431 0.32482 0.0
C1927 C 0.26467 0.42491 0.33084 0.0
C1928 C 0.24346 0.40489 0.33606 0.0
C1929 C 0.30733 0.44555 0.31852 0.0
C1930 C 0.31875 0.46167 0.32954 0.0
C1931 C 0.31788 0.44956 0.30199 0.0
C1932 C 0.30592 0.43409 0.28925 0.0
C1933 C 0.28222 0.42806 0.28546 0.0
C1934 C 0.2711 0.41361 0.27339 0.0
C1935 C 0.28356 0.40524 0.26488 0.0
C1936 C 0.30719 0.41133 0.26841 0.0
C1937 C 0.31838 0.42572 0.28052 0.0
H1938 H 0.27494 0.3941 0.25551 0.0
H1939 H 0.38234 0.53899 0.36989 0.0
H1940 H 0.4463 0.79996 0.28711 0.0
H1941 H 0.48508 0.80558 0.2971 0.0
H1942 H 0.51059 0.87708 0.29243 0.0
H1943 H 0.47172 0.87126 0.28302 0.0
H1944 H 0.54482 0.86381 0.28112 0.0
H1945 H 0.48893 0.84888 0.32877 0.0
H1946 H 0.45069 0.8257 0.34552 0.0
H1947 H 0.46585 0.77056 0.35322 0.0
H1948 H 0.50406 0.79334 0.3363 0.0
H1949 H 0.64307 0.90191 0.33093 0.0
H1950 H 0.60365 0.89449 0.32154 0.0
H1951 H 0.5772 0.82326 0.33509 0.0
H1952 H 0.61616 0.83057 0.34445 0.0
H1953 H 0.54306 0.83422 0.34131 0.0
H1954 H 0.59653 0.84518 0.29583 0.0
H1955 H 0.63415 0.86425 0.27813 0.0
H1956 H 0.6231 0.92119 0.26456 0.0
H1957 H 0.58555 0.90262 0.2825 0.0
C1958 C 0.46052 0.81684 0.28784 0.0
C1959 C 0.45647 0.83526 0.28397 0.0
C1960 C 0.48249 0.82005 0.29357 0.0
C1961 C 0.50058 0.84175 0.29549 0.0
C1962 C 0.49689 0.86026 0.29085 0.0
C1963 C 0.47485 0.85699 0.28531 0.0
C1964 C 0.52259 0.84511 0.30369 0.0
C1965 C 0.54452 0.85759 0.29432 0.0
C1966 C 0.52197 0.83624 0.32073 0.0
C1967 C 0.49922 0.82273 0.33115 0.0
C1968 C 0.48403 0.83177 0.33394 0.0
C1969 C 0.46238 0.81871 0.34348 0.0
C1970 C 0.45581 0.79665 0.35039 0.0
C1971 C 0.47094 0.78764 0.34784 0.0
C1972 C 0.4926 0.80062 0.33829 0.0
C1973 C 0.62862 0.88475 0.33232 0.0
C1974 C 0.63271 0.86686 0.33849 0.0
C1975 C 0.6062 0.88051 0.32689 0.0
C1976 C 0.58768 0.85829 0.32736 0.0
C1977 C 0.59125 0.84052 0.33461 0.0
C1978 C 0.61362 0.84476 0.34002 0.0
C1979 C 0.56542 0.85345 0.31887 0.0
C1980 C 0.54343 0.84055 0.32813 0.0
C1981 C 0.56593 0.8614 0.30159 0.0
C1982 C 0.58837 0.87262 0.29066 0.0
C1983 C 0.60222 0.86186 0.28919 0.0
C1984 C 0.62352 0.87256 0.27909 0.0
C1985 C 0.63106 0.89393 0.27023 0.0
C1986 C 0.61726 0.90464 0.27144 0.0
C1987 C 0.59596 0.89404 0.28158 0.0
H1988 H 0.64757 0.90217 0.26241 0.0
H1989 H 0.43903 0.78656 0.35775 0.0
H1990 H 0.1714 0.62739 0.29979 0.0
H1991 H 0.17537 0.66062 0.31172 0.0
H1992 H 0.1019 0.64111 0.3023 0.0
H1993 H 0.09767 0.60737 0.29115 0.0
H1994 H 0.14537 0.69147 0.28988 0.0
H1995 H 0.10347 0.63197 0.33751 0.0
H1996 H 0.09974 0.60027 0.35793 0.0
H1997 H 0.16852 0.6426 0.37571 0.0
H1998 H 0.17281 0.67447 0.35517 0.0
H1999 H 0.12472 0.76853 0.32854 0.0
H2000 H 0.12067 0.73452 0.31854 0.0
H2001 H 0.17509 0.73554 0.35122 0.0
H2002 H 0.17852 0.76903 0.36178 0.0
H2003 H 0.14311 0.69464 0.35162 0.0
H2004 H 0.18624 0.75413 0.30738 0.0
H2005 H 0.19499 0.78716 0.28655 0.0
H2006 H 0.13147 0.74781 0.26156 0.0
H2007 H 0.12214 0.7146 0.28239 0.0
C2008 C 0.15609 0.63014 0.30054 0.0
C2009 C 0.13421 0.61491 0.2947 0.0
C2010 C 0.15838 0.64909 0.30721 0.0
C2011 C 0.13893 0.65328 0.30782 0.0
C2012 C 0.11711 0.63816 0.30188 0.0
C2013 C 0.11469 0.61897 0.29557 0.0
C2014 C 0.14134 0.67346 0.31467 0.0
C2015 C 0.14458 0.69215 0.30336 0.0
C2016 C 0.14129 0.67457 0.33223 0.0
C2017 C 0.13858 0.6555 0.34467 0.0
C2018 C 0.1179 0.63445 0.34565 0.0
C2019 C 0.11566 0.61647 0.35727 0.0
C2020 C 0.13392 0.6194 0.36807 0.0
C2021 C 0.15442 0.64034 0.36731 0.0
C2022 C 0.15675 0.65837 0.35569 0.0
C2023 C 0.13571 0.76143 0.33369 0.0
C2024 C 0.152 0.77157 0.34591 0.0
C2025 C 0.13351 0.74204 0.32787 0.0
C2026 C 0.14796 0.73266 0.33381 0.0
C2027 C 0.16377 0.74243 0.34637 0.0
C2028 C 0.16571 0.76162 0.3524 0.0
C2029 C 0.1467 0.71281 0.32684 0.0
C2030 C 0.14385 0.69415 0.33811 0.0
C2031 C 0.14777 0.712 0.30918 0.0
C2032 C 0.15336 0.73191 0.29656 0.0
C2033 C 0.17404 0.75255 0.29752 0.0
C2034 C 0.17912 0.7713 0.2857 0.0
C2035 C 0.16377 0.76959 0.27277 0.0
C2036 C 0.14333 0.74911 0.2716 0.0
C2037 C 0.13815 0.73031 0.2834 0.0
H2038 H 0.16773 0.78412 0.26362 0.0
H2039 H 0.13215 0.60546 0.37706 0.0
H2040 H 0.89361 0.06122 0.41599 0.0
H2041 H 0.864 0.02686 0.40498 0.0
H2042 H 0.81639 0.05506 0.39809 0.0
H2043 H 0.84588 0.08916 0.40927 0.0
H2044 H 0.816 0.99601 0.41696 0.0
H2045 H 0.78815 0.03814 0.36091 0.0
H2046 H 0.80531 0.07357 0.34132 0.0
H2047 H 0.87568 0.08146 0.34732 0.0
H2048 H 0.85891 0.04593 0.36673 0.0
H2049 H 0.7078 0.91534 0.38546 0.0
H2050 H 0.73837 0.94946 0.39565 0.0
H2051 H 0.78677 0.95968 0.35394 0.0
H2052 H 0.7565 0.9255 0.34379 0.0
H2053 H 0.78832 0.99914 0.35901 0.0
H2054 H 0.79401 0.93892 0.39327 0.0
H2055 H 0.77779 0.9031 0.41227 0.0
H2056 H 0.7537 0.93052 0.44877 0.0
H2057 H 0.76991 0.96662 0.42998 0.0
C2058 C 0.87686 0.06002 0.41201 0.0
C2059 C 0.872 0.0778 0.4134 0.0
C2060 C 0.85988 0.04037 0.40585 0.0
C2061 C 0.8379 0.03829 0.40066 0.0
C2062 C 0.8332 0.05622 0.40191 0.0
C2063 C 0.85001 0.07568 0.40829 0.0
C2064 C 0.81991 0.01753 0.39385 0.0
C2065 C 0.80995 0.99674 0.40429 0.0
C2066 C 0.81202 0.01827 0.37727 0.0
C2067 C 0.82227 0.03949 0.36541 0.0
C2068 C 0.80727 0.0474 0.358 0.0
C2069 C 0.81693 0.0675 0.34693 0.0
C2070 C 0.84157 0.0798 0.34312 0.0
C2071 C 0.8566 0.07197 0.35033 0.0
C2072 C 0.84703 0.05186 0.36138 0.0
C2073 C 0.72488 0.92486 0.37836 0.0
C2074 C 0.72944 0.91761 0.36364 0.0
C2075 C 0.74244 0.94439 0.38427 0.0
C2076 C 0.76505 0.9572 0.37566 0.0
C2077 C 0.7695 0.95023 0.36082 0.0
C2078 C 0.75203 0.93064 0.35496 0.0
C2079 C 0.78413 0.97767 0.38219 0.0
C2080 C 0.79429 0.99842 0.3717 0.0
C2081 C 0.79228 0.97687 0.39868 0.0
C2082 C 0.783 0.95539 0.41017 0.0
C2083 C 0.78518 0.93728 0.40532 0.0
C2084 C 0.776 0.91693 0.41606 0.0
C2085 C 0.76457 0.91446 0.43167 0.0
C2086 C 0.76252 0.93244 0.43666 0.0
C2087 C 0.77178 0.95289 0.426 0.0
H2088 H 0.75738 0.89864 0.43992 0.0
H2089 H 0.84901 0.09537 0.33457 0.0
H2090 H 0.94044 0.8138 0.42739 0.0
H2091 H 0.97114 0.80599 0.4164 0.0
H2092 H 0.02347 0.8759 0.41531 0.0
H2093 H 0.9927 0.88346 0.42671 0.0
H2094 H 0.01894 0.8597 0.38422 0.0
H2095 H 0.02915 0.83866 0.44188 0.0
H2096 H 0.01575 0.81809 0.47064 0.0
H2097 H 0.98943 0.75527 0.45077 0.0
H2098 H 1.00235 0.77546 0.42184 0.0
H2099 H 0.12404 0.85625 0.36183 0.0
H2100 H 0.09086 0.8611 0.37096 0.0
H2101 H 0.04658 0.78902 0.38077 0.0
H2102 H 0.08045 0.78422 0.37221 0.0
H2103 H 0.04566 0.80534 0.40751 0.0
H2104 H 0.03129 0.8248 0.35019 0.0
H2105 H 0.03879 0.84416 0.32098 0.0
H2106 H 0.07051 0.90815 0.33953 0.0
H2107 H 0.06263 0.88913 0.36887 0.0
C2108 C 0.95872 0.8272 0.42548 0.0
C2109 C 0.96449 0.84913 0.42805 0.0
C2110 C 0.97617 0.82282 0.41909 0.0
C2111 C 0.99953 0.84039 0.41505 0.0
C2112 C 0.00553 0.86213 0.41837 0.0
C2113 C 0.98811 0.86643 0.42492 0.0
C2114 C 0.01695 0.83658 0.40573 0.0
C2115 C 0.02512 0.84806 0.38937 0.0
C2116 C 0.02414 0.82075 0.41226 0.0
C2117 C 0.01651 0.80857 0.42966 0.0
C2118 C 0.02032 0.82045 0.44362 0.0
C2119 C 0.01284 0.80886 0.45996 0.0
C2120 C 1.00168 0.78539 0.46252 0.0
C2121 C 0.99804 0.77346 0.44876 0.0
C2122 C 0.00546 0.78496 0.43239 0.0
C2123 C 0.10706 0.84141 0.36527 0.0
C2124 C 0.10486 0.81984 0.36634 0.0
C2125 C 0.08792 0.8442 0.3705 0.0
C2126 C 0.06609 0.82543 0.37665 0.0
C2127 C 0.06327 0.80379 0.37623 0.0
C2128 C 0.08255 0.80103 0.37122 0.0
C2129 C 0.04777 0.82844 0.38578 0.0
C2130 C 0.03945 0.81688 0.40221 0.0
C2131 C 0.04021 0.84406 0.37926 0.0
C2132 C 0.04653 0.85556 0.36167 0.0
C2133 C 0.04007 0.843 0.34802 0.0
C2134 C 0.04421 0.85391 0.33146 0.0
C2135 C 0.05514 0.87737 0.32841 0.0
C2136 C 0.062 0.88998 0.34191 0.0
C2137 C 0.05756 0.87915 0.3585 0.0
H2138 H 0.05831 0.88577 0.31558 0.0
H2139 H 0.9959 0.77645 0.47518 0.0
H2140 H 0.2422 0.15004 0.39751 0.0
H2141 H 0.23992 0.18468 0.38921 0.0
H2142 H 0.18526 0.16451 0.42908 0.0
H2143 H 0.18694 0.12936 0.43676 0.0
H2144 H 0.17268 0.18004 0.40173 0.0
H2145 H 0.24384 0.20699 0.43146 0.0
H2146 H 0.28353 0.21223 0.43891 0.0
H2147 H 0.31255 0.24618 0.389 0.0
H2148 H 0.27292 0.24081 0.38115 0.0
H2149 H 0.1836 0.29088 0.39649 0.0
H2150 H 0.18869 0.25841 0.40779 0.0
H2151 H 0.22096 0.26093 0.35964 0.0
H2152 H 0.21521 0.29291 0.3482 0.0
H2153 H 0.24473 0.25526 0.39265 0.0
H2154 H 0.171 0.22682 0.36374 0.0
H2155 H 0.13132 0.22305 0.35838 0.0
H2156 H 0.10656 0.19193 0.40945 0.0
H2157 H 0.14648 0.19653 0.4154 0.0
C2158 C 0.22977 0.15315 0.40444 0.0
C2159 C 0.21463 0.13715 0.41765 0.0
C2160 C 0.22856 0.17296 0.39982 0.0
C2161 C 0.21255 0.17741 0.4086 0.0
C2162 C 0.19773 0.16152 0.42207 0.0
C2163 C 0.19881 0.14158 0.42657 0.0
C2164 C 0.21089 0.19833 0.40341 0.0
C2165 C 0.18843 0.19648 0.40001 0.0
C2166 C 0.23141 0.21988 0.40097 0.0
C2167 C 0.25534 0.22332 0.40567 0.0
C2168 C 0.25864 0.21544 0.42203 0.0
C2169 C 0.28114 0.21844 0.42633 0.0
C2170 C 0.30054 0.22949 0.41442 0.0
C2171 C 0.2975 0.23761 0.39821 0.0
C2172 C 0.27502 0.2346 0.39383 0.0
C2173 C 0.19201 0.2846 0.38843 0.0
C2174 C 0.19894 0.2942 0.37149 0.0
C2175 C 0.19486 0.2661 0.39485 0.0
C2176 C 0.20517 0.25731 0.38452 0.0
C2177 C 0.213 0.26751 0.36779 0.0
C2178 C 0.20958 0.28563 0.36125 0.0
C2179 C 0.20668 0.23677 0.39088 0.0
C2180 C 0.22906 0.23875 0.39449 0.0
C2181 C 0.18606 0.21541 0.39375 0.0
C2182 C 0.16193 0.21241 0.39011 0.0
C2183 C 0.15727 0.21957 0.37394 0.0
C2184 C 0.13471 0.21731 0.37079 0.0
C2185 C 0.1165 0.2075 0.38362 0.0
C2186 C 0.12077 0.1998 0.39959 0.0
C2187 C 0.14339 0.2023 0.40287 0.0
H2188 H 0.09903 0.20572 0.38116 0.0
H2189 H 0.31794 0.23181 0.41778 0.0
H2190 H 0.59103 0.49193 0.7334 0.0
H2191 H 0.62887 0.52547 0.72391 0.0
H2192 H 0.6614 0.51088 0.76775 0.0
H2193 H 0.62385 0.47613 0.77627 0.0
H2194 H 0.6556 0.56173 0.73168 0.0
H2195 H 0.72191 0.5334 0.76126 0.0
H2196 H 0.72482 0.49873 0.76868 0.0
H2197 H 0.67286 0.46616 0.73298 0.0
H2198 H 0.66997 0.50075 0.72513 0.0
H2199 H 0.76876 0.65776 0.72045 0.0
H2200 H 0.7313 0.62459 0.73036 0.0
H2201 H 0.7547 0.58323 0.7079 0.0
H2202 H 0.79372 0.61629 0.70031 0.0
H2203 H 0.73213 0.55974 0.73234 0.0
H2204 H 0.7044 0.5989 0.69189 0.0
H2205 H 0.69922 0.63044 0.67785 0.0
H2206 H 0.67121 0.63623 0.72473 0.0
H2207 H 0.67601 0.60465 0.73897 0.0
C2208 C 0.60633 0.49597 0.74097 0.0
C2209 C 0.6046 0.48125 0.75541 0.0
C2210 C 0.62804 0.51524 0.7356 0.0
C2211 C 0.64859 0.52078 0.74479 0.0
C2212 C 0.64631 0.50684 0.75997 0.0
C2213 C 0.62467 0.48715 0.76508 0.0
C2214 C 0.67208 0.54101 0.73833 0.0
C2215 C 0.67226 0.56113 0.73179 0.0
C2216 C 0.69411 0.54057 0.73799 0.0
C2217 C 0.69546 0.51958 0.74281 0.0
C2218 C 0.71109 0.51883 0.75501 0.0
C2219 C 0.71277 0.4992 0.75927 0.0
C2220 C 0.69895 0.48022 0.75137 0.0
C2221 C 0.68348 0.48085 0.73915 0.0
C2222 C 0.6818 0.50046 0.7348 0.0
C2223 C 0.76584 0.6416 0.71747 0.0
C2224 C 0.78399 0.63992 0.70889 0.0
C2225 C 0.74406 0.62248 0.72294 0.0
C2226 C 0.73914 0.60103 0.71937 0.0
C2227 C 0.75746 0.59935 0.71082 0.0
C2228 C 0.77976 0.61843 0.70606 0.0
C2229 C 0.7156 0.58041 0.72533 0.0
C2230 C 0.71544 0.56028 0.732 0.0
C2231 C 0.69333 0.58041 0.72491 0.0
C2232 C 0.6909 0.59968 0.7165 0.0
C2233 C 0.69737 0.60708 0.6992 0.0
C2234 C 0.69442 0.62489 0.69121 0.0
C2235 C 0.6851 0.63544 0.70042 0.0
C2236 C 0.67851 0.6281 0.71762 0.0
C2237 C 0.68124 0.6102 0.72564 0.0
H2238 H 0.68288 0.64924 0.69422 0.0
H2239 H 0.70027 0.46504 0.75468 0.0
H2240 H 0.55875 0.2194 0.75732 0.0
H2241 H 0.5239 0.21549 0.7417 0.0
H2242 H 0.52858 0.16664 0.7144 0.0
H2243 H 0.56312 0.17053 0.73007 0.0
H2244 H 0.51695 0.19432 0.69401 0.0
H2245 H 0.49232 0.14946 0.74863 0.0
H2246 H 0.49119 0.14292 0.77974 0.0
H2247 H 0.46213 0.18757 0.7832 0.0
H2248 H 0.46348 0.19469 0.75207 0.0
H2249 H 0.37676 0.13179 0.69861 0.0
H2250 H 0.41633 0.13592 0.70434 0.0
H2251 H 0.44844 0.20705 0.68747 0.0
H2252 H 0.40915 0.20323 0.6826 0.0
H2253 H 0.4416 0.16634 0.72895 0.0
H2254 H 0.505 0.2204 0.67088 0.0
H2255 H 0.50885 0.22205 0.6399 0.0
H2256 H 0.45986 0.15128 0.64377 0.0
H2257 H 0.45542 0.14934 0.67471 0.0
C2258 C 0.55248 0.20825 0.74771 0.0
C2259 C 0.56342 0.19533 0.74473 0.0
C2260 C 0.53267 0.20595 0.73887 0.0
C2261 C 0.5236 0.19061 0.72702 0.0
C2262 C 0.53537 0.17861 0.72343 0.0
C2263 C 0.55505 0.18086 0.7323 0.0
C2264 C 0.50081 0.18563 0.71931 0.0
C2265 C 0.50049 0.18839 0.70164 0.0
C2266 C 0.47927 0.17722 0.7293 0.0
C2267 C 0.47825 0.1728 0.74802 0.0
C2268 C 0.48587 0.15803 0.75602 0.0
C2269 C 0.48518 0.15421 0.77366 0.0
C2270 C 0.47667 0.16488 0.78344 0.0
C2271 C 0.46877 0.17936 0.7756 0.0
C2272 C 0.46949 0.18329 0.75796 0.0
C2273 C 0.39235 0.14818 0.69566 0.0
C2274 C 0.3898 0.16715 0.69001 0.0
C2275 C 0.41489 0.1505 0.69888 0.0
C2276 C 0.43524 0.17177 0.69624 0.0
C2277 C 0.43297 0.19044 0.68936 0.0
C2278 C 0.4104 0.18821 0.68651 0.0
C2279 C 0.4578 0.17528 0.70363 0.0
C2280 C 0.45808 0.17241 0.72131 0.0
C2281 C 0.47919 0.18318 0.69367 0.0
C2282 C 0.47971 0.18479 0.67503 0.0
C2283 C 0.49485 0.20527 0.66506 0.0
C2284 C 0.49719 0.20624 0.64754 0.0
C2285 C 0.48468 0.18677 0.63988 0.0
C2286 C 0.46956 0.16635 0.64972 0.0
C2287 C 0.4669 0.16536 0.66722 0.0
H2288 H 0.4866 0.18752 0.62631 0.0
H2289 H 0.47613 0.16189 0.79709 0.0
H2290 H 0.83432 0.37586 0.75507 0.0
H2291 H 0.83 0.3416 0.74472 0.0
H2292 H 0.90572 0.37513 0.73142 0.0
H2293 H 0.90986 0.40923 0.74194 0.0
H2294 H 0.87816 0.35008 0.7064 0.0
H2295 H 0.88581 0.34057 0.76636 0.0
H2296 H 0.8753 0.3394 0.79629 0.0
H2297 H 0.80481 0.28545 0.79152 0.0
H2298 H 0.81476 0.28659 0.76145 0.0
H2299 H 0.87229 0.2325 0.72421 0.0
H2300 H 0.87847 0.26768 0.73353 0.0
H2301 H 0.8325 0.27331 0.69575 0.0
H2302 H 0.82624 0.2383 0.68639 0.0
H2303 H 0.84776 0.27963 0.74647 0.0
H2304 H 0.85237 0.32815 0.68123 0.0
H2305 H 0.86321 0.32864 0.65148 0.0
H2306 H 0.91216 0.30472 0.66744 0.0
H2307 H 0.90187 0.30439 0.69728 0.0
C2308 C 0.84988 0.37581 0.74978 0.0
C2309 C 0.87237 0.39496 0.74917 0.0
C2310 C 0.84748 0.35633 0.74393 0.0
C2311 C 0.86757 0.35577 0.73735 0.0
C2312 C 0.88998 0.37519 0.73638 0.0
C2313 C 0.89238 0.39457 0.74239 0.0
C2314 C 0.86534 0.33471 0.73203 0.0
C2315 C 0.87149 0.33468 0.71515 0.0
C2316 C 0.85693 0.31466 0.74348 0.0
C2317 C 0.85097 0.31382 0.7616 0.0
C2318 C 0.868 0.32859 0.77165 0.0
C2319 C 0.86215 0.32791 0.78865 0.0
C2320 C 0.83938 0.31239 0.7958 0.0
C2321 C 0.82243 0.29748 0.78596 0.0
C2322 C 0.82817 0.29814 0.76894 0.0
C2323 C 0.86357 0.24126 0.71783 0.0
C2324 C 0.84907 0.23268 0.70434 0.0
C2325 C 0.86706 0.26135 0.72322 0.0
C2326 C 0.8562 0.27332 0.71522 0.0
C2327 C 0.84146 0.26463 0.70193 0.0
C2328 C 0.83797 0.2446 0.69653 0.0
C2329 C 0.86022 0.29487 0.72078 0.0
C2330 C 0.85441 0.29502 0.7377 0.0
C2331 C 0.86911 0.31505 0.7094 0.0
C2332 C 0.87621 0.31611 0.69149 0.0
C2333 C 0.86559 0.32317 0.67839 0.0
C2334 C 0.8716 0.32338 0.66151 0.0
C2335 C 0.88832 0.31667 0.65758 0.0
C2336 C 0.89917 0.30986 0.67051 0.0
C2337 C 0.89325 0.30966 0.6874 0.0
H2338 H 0.89289 0.31676 0.64451 0.0
H2339 H 0.83489 0.31188 0.80896 0.0
H2340 H 0.12675 0.96086 0.63897 0.0
H2341 H 0.15622 0.99624 0.64834 0.0
H2342 H 0.21301 0.98401 0.63246 0.0
H2343 H 0.18339 0.94786 0.62441 0.0
H2344 H 0.22526 1.00157 0.6592 0.0
H2345 H 0.19517 0.02249 0.60901 0.0
H2346 H 0.16485 0.02382 0.59039 0.0
H2347 H 0.14367 0.05321 0.62709 0.0
H2348 H 0.17362 0.05175 0.64605 0.0
H2349 H 0.31881 0.11681 0.65355 0.0
H2350 H 0.28862 0.08059 0.64554 0.0
H2351 H 0.23434 0.08399 0.67504 0.0
H2352 H 0.26426 0.11986 0.68328 0.0
H2353 H 0.2212 0.07172 0.64159 0.0
H2354 H 0.25288 0.05111 0.69124 0.0
H2355 H 0.28517 0.05153 0.70846 0.0
H2356 H 0.30544 0.02298 0.67058 0.0
H2357 H 0.2735 0.02276 0.65298 0.0
C2358 C 0.14551 0.9656 0.63774 0.0
C2359 C 0.15272 0.95163 0.63078 0.0
C2360 C 0.16246 0.98605 0.64286 0.0
C2361 C 0.18713 0.99337 0.64075 0.0
C2362 C 0.19424 0.97907 0.63416 0.0
C2363 C 0.17728 0.95845 0.62937 0.0
C2364 C 0.20552 0.01576 0.64536 0.0
C2365 C 0.22443 0.01688 0.65508 0.0
C2366 C 0.20456 0.03598 0.64037 0.0
C2367 C 0.18646 0.03678 0.62902 0.0
C2368 C 0.18391 0.02907 0.61317 0.0
C2369 C 0.16681 0.02987 0.60254 0.0
C2370 C 0.1523 0.03853 0.60757 0.0
C2371 C 0.15489 0.04646 0.62322 0.0
C2372 C 0.17193 0.04566 0.63391 0.0
C2373 C 0.30044 0.10986 0.6583 0.0
C2374 C 0.29406 0.12121 0.66916 0.0
C2375 C 0.2832 0.08914 0.65374 0.0
C2376 C 0.25917 0.07953 0.65971 0.0
C2377 C 0.25271 0.09107 0.67025 0.0
C2378 C 0.26993 0.11153 0.67504 0.0
C2379 C 0.24076 0.05732 0.65518 0.0
C2380 C 0.22191 0.05631 0.64557 0.0
C2381 C 0.24194 0.03729 0.66005 0.0
C2382 C 0.26095 0.03714 0.67071 0.0
C2383 C 0.26435 0.0451 0.68651 0.0
C2384 C 0.28257 0.04527 0.69635 0.0
C2385 C 0.29739 0.03734 0.6906 0.0
C2386 C 0.29397 0.02915 0.67501 0.0
C2387 C 0.2758 0.02899 0.6651 0.0
H2388 H 0.31149 0.03748 0.69824 0.0
H2389 H 0.13908 0.03915 0.59932 0.0
H2390 H 0.06041 0.20319 0.61919 0.0
H2391 H 0.02825 0.20412 0.63512 0.0
H2392 H 0.99308 0.13178 0.64686 0.0
H2393 H 0.02509 0.13098 0.63031 0.0
H2394 H 0.96176 0.14557 0.63834 0.0
H2395 H 0.02351 0.16535 0.67652 0.0
H2396 H 0.06436 0.18573 0.68598 0.0
H2397 H 0.06182 0.24778 0.67746 0.0
H2398 H 0.02108 0.22784 0.66766 0.0
H2399 H 0.87657 0.14868 0.68964 0.0
H2400 H 0.91068 0.14314 0.68464 0.0
H2401 H 0.95353 0.21392 0.66701 0.0
H2402 H 0.91962 0.21985 0.67339 0.0
H2403 H 0.98043 0.19658 0.68216 0.0
H2404 H 0.91984 0.17531 0.63984 0.0
H2405 H 0.87829 0.15342 0.63191 0.0
H2406 H 0.87868 0.09195 0.65037 0.0
H2407 H 0.92005 0.11346 0.65851 0.0
C2408 C 0.04559 0.18755 0.62502 0.0
C2409 C 0.04489 0.16701 0.62356 0.0
C2410 C 0.02744 0.18807 0.63427 0.0
C2411 C 0.00853 0.16805 0.64245 0.0
C2412 C 0.00761 0.14742 0.64073 0.0
C2413 C 0.02575 0.14693 0.63134 0.0
C2414 C 0.9895 0.1688 0.65245 0.0
C2415 C 0.96582 0.15641 0.64813 0.0
C2416 C 0.99482 0.18302 0.6652 0.0
C2417 C 0.01927 0.1951 0.67124 0.0
C2418 C 0.03171 0.18337 0.67655 0.0
C2419 C 0.05485 0.19484 0.68199 0.0
C2420 C 0.06569 0.21804 0.6823 0.0
C2421 C 0.05339 0.22981 0.67721 0.0
C2422 C 0.03026 0.21842 0.67172 0.0
C2423 C 0.89342 0.16325 0.68543 0.0
C2424 C 0.89545 0.18476 0.68209 0.0
C2425 C 0.91292 0.16 0.68239 0.0
C2426 C 0.93443 0.17801 0.67503 0.0
C2427 C 0.93702 0.19977 0.67264 0.0
C2428 C 0.91765 0.20312 0.67618 0.0
C2429 C 0.95292 0.1738 0.66772 0.0
C2430 C 0.97645 0.18554 0.67252 0.0
C2431 C 0.94748 0.15882 0.65552 0.0
C2432 C 0.92297 0.14597 0.64985 0.0
C2433 C 0.91103 0.15712 0.64216 0.0
C2434 C 0.88749 0.14477 0.63764 0.0
C2435 C 0.87581 0.12129 0.64059 0.0
C2436 C 0.88768 0.11011 0.64802 0.0
C2437 C 0.91119 0.12236 0.65257 0.0
H2438 H 0.85759 0.11176 0.6371 0.0
H2439 H 0.08361 0.2269 0.68652 0.0
H2440 H 0.76201 0.85286 0.62333 0.0
H2441 H 0.76699 0.81965 0.63153 0.0
H2442 H 0.8436 0.8616 0.62646 0.0
H2443 H 0.83837 0.89444 0.61705 0.0
H2444 H 0.83414 0.82336 0.61787 0.0
H2445 H 0.8097 0.8453 0.6656 0.0
H2446 H 0.78436 0.85501 0.6823 0.0
H2447 H 0.72505 0.78894 0.68142 0.0
H2448 H 0.74995 0.77895 0.66448 0.0
H2449 H 0.86161 0.75522 0.68077 0.0
H2450 H 0.85421 0.78561 0.66805 0.0
H2451 H 0.78564 0.73686 0.65336 0.0
H2452 H 0.79315 0.70628 0.66561 0.0
H2453 H 0.79048 0.77722 0.67169 0.0
H2454 H 0.81891 0.75653 0.62375 0.0
H2455 H 0.84782 0.74845 0.60979 0.0
H2456 H 0.90403 0.81498 0.61427 0.0
H2457 H 0.8755 0.82332 0.62852 0.0
C2458 C 0.77985 0.85479 0.62366 0.0
C2459 C 0.79983 0.8762 0.62008 0.0
C2460 C 0.78274 0.8359 0.62851 0.0
C2461 C 0.80571 0.83813 0.63025 0.0
C2462 C 0.82568 0.85936 0.6255 0.0
C2463 C 0.82274 0.87817 0.62031 0.0
C2464 C 0.80888 0.81872 0.63787 0.0
C2465 C 0.82465 0.81342 0.62968 0.0
C2466 C 0.7966 0.80557 0.65334 0.0
C2467 C 0.78162 0.81146 0.66362 0.0
C2468 C 0.79121 0.83289 0.66887 0.0
C2469 C 0.77693 0.83844 0.67839 0.0
C2470 C 0.7531 0.82262 0.68288 0.0
C2471 C 0.74351 0.80119 0.67791 0.0
C2472 C 0.75769 0.79557 0.66835 0.0
C2473 C 0.84488 0.75092 0.67493 0.0
C2474 C 0.82797 0.72832 0.67417 0.0
C2475 C 0.84073 0.76832 0.66763 0.0
C2476 C 0.81944 0.76344 0.65972 0.0
C2477 C 0.8022 0.74092 0.65939 0.0
C2478 C 0.80655 0.7235 0.66636 0.0
C2479 C 0.8154 0.78192 0.65158 0.0
C2480 C 0.79967 0.7871 0.65978 0.0
C2481 C 0.82809 0.79523 0.63637 0.0
C2482 C 0.84511 0.79048 0.62735 0.0
C2483 C 0.83747 0.76938 0.62187 0.0
C2484 C 0.85378 0.76476 0.61389 0.0
C2485 C 0.87776 0.78117 0.61118 0.0
C2486 C 0.88545 0.80228 0.61639 0.0
C2487 C 0.86922 0.80697 0.6244 0.0
H2488 H 0.89037 0.77755 0.60503 0.0
H2489 H 0.74207 0.82695 0.69026 0.0
H2490 H 0.06181 0.89448 0.63355 0.0
H2491 H 0.02406 0.86019 0.6425 0.0
H2492 H 0.05562 0.81992 0.62999 0.0
H2493 H 0.09368 0.85421 0.62176 0.0
H2494 H 0.00872 0.80555 0.61846 0.0
H2495 H 0.0501 0.8253 0.66949 0.0
H2496 H 0.07086 0.85048 0.69072 0.0
H2497 H 0.00794 0.85569 0.7013 0.0
H2498 H 0.98694 0.83089 0.67988 0.0
H2499 H 0.92372 0.699 0.66175 0.0
H2500 H 0.96071 0.73385 0.6524 0.0
H2501 H 0.92865 0.77264 0.66738 0.0
H2502 H 0.89142 0.73788 0.67616 0.0
H2503 H 0.97537 0.78821 0.67773 0.0
H2504 H 0.93451 0.77229 0.62738 0.0
H2505 H 0.91259 0.7509 0.60461 0.0
H2506 H 0.97193 0.74109 0.59185 0.0
H2507 H 0.99424 0.76247 0.61465 0.0
C2508 C 0.06068 0.87829 0.63278 0.0
C2509 C 0.08073 0.87708 0.62693 0.0
C2510 C 0.0391 0.85871 0.63786 0.0
C2511 C 0.03698 0.83739 0.63706 0.0
C2512 C 0.05676 0.83614 0.63071 0.0
C2513 C 0.07848 0.85576 0.62585 0.0
C2514 C 0.01426 0.81648 0.64308 0.0
C2515 C 1.00165 0.80158 0.63149 0.0
C2516 C 0.00447 0.81166 0.65993 0.0
C2517 C 0.01704 0.82646 0.67291 0.0
C2518 C 0.04076 0.832 0.67621 0.0
C2519 C 0.05256 0.84618 0.6883 0.0
C2520 C 0.04075 0.85474 0.69731 0.0
C2521 C 0.01709 0.84909 0.69428 0.0
C2522 C 0.00523 0.83497 0.68216 0.0
C2523 C 0.92462 0.71497 0.66313 0.0
C2524 C 0.90479 0.71559 0.67011 0.0
C2525 C 0.94574 0.73489 0.65773 0.0
C2526 C 0.94755 0.75595 0.65916 0.0
C2527 C 0.9278 0.75664 0.66621 0.0
C2528 C 0.90654 0.7367 0.67137 0.0
C2529 C 0.96998 0.77716 0.65314 0.0
C2530 C 0.98251 0.79212 0.66472 0.0
C2531 C 0.97949 0.78227 0.63621 0.0
C2532 C 0.9659 0.76868 0.62289 0.0
C2533 C 0.94277 0.76531 0.61988 0.0
C2534 C 0.93031 0.75326 0.6069 0.0
C2535 C 0.94079 0.74451 0.59681 0.0
C2536 C 0.9638 0.74784 0.59968 0.0
C2537 C 0.97638 0.75995 0.61262 0.0
H2538 H 0.93115 0.73524 0.58672 0.0
H2539 H 0.04992 0.86571 0.70668 0.0
H2540 H 0.12923 0.19981 0.63365 0.0
H2541 H 0.16782 0.20439 0.64291 0.0
H2542 H 0.16458 0.15747 0.60983 0.0
H2543 H 0.12589 0.15318 0.60045 0.0
H2544 H 0.1745 0.14828 0.64389 0.0
H2545 H 0.20249 0.20801 0.5988 0.0
H2546 H 0.20399 0.24117 0.58169 0.0
H2547 H 0.22878 0.27879 0.62369 0.0
H2548 H 0.22691 0.24567 0.6412 0.0
H2549 H 0.29069 0.16644 0.66046 0.0
H2550 H 0.25339 0.16068 0.64911 0.0
H2551 H 0.26142 0.22015 0.66859 0.0
H2552 H 0.30048 0.22707 0.67859 0.0
H2553 H 0.24885 0.22165 0.63916 0.0
H2554 H 0.21322 0.15828 0.68535 0.0
H2555 H 0.20778 0.12324 0.70207 0.0
H2556 H 0.19816 0.09227 0.65689 0.0
H2557 H 0.20245 0.12677 0.63992 0.0
C2558 C 0.13698 0.19067 0.62835 0.0
C2559 C 0.12488 0.17606 0.61653 0.0
C2560 C 0.15891 0.19331 0.63354 0.0
C2561 C 0.16895 0.18126 0.62702 0.0
C2562 C 0.15701 0.16686 0.61498 0.0
C2563 C 0.13514 0.16446 0.60961 0.0
C2564 C 0.19146 0.18319 0.63343 0.0
C2565 C 0.19091 0.16422 0.64269 0.0
C2566 C 0.21262 0.20407 0.63197 0.0
C2567 C 0.21437 0.22426 0.62137 0.0
C2568 C 0.2081 0.2233 0.60444 0.0
C2569 C 0.20902 0.24209 0.59466 0.0
C2570 C 0.21644 0.26207 0.60161 0.0
C2571 C 0.22302 0.2633 0.61833 0.0
C2572 C 0.22204 0.24451 0.62819 0.0
C2573 C 0.28408 0.17776 0.66299 0.0
C2574 C 0.29791 0.19659 0.67119 0.0
C2575 C 0.26259 0.17445 0.65644 0.0
C2576 C 0.2539 0.18947 0.65845 0.0
C2577 C 0.26752 0.20812 0.66701 0.0
C2578 C 0.28963 0.21193 0.67296 0.0
C2579 C 0.23185 0.18682 0.65031 0.0
C2580 C 0.2325 0.20567 0.64052 0.0
C2581 C 0.21075 0.16574 0.65121 0.0
C2582 C 0.20834 0.14512 0.66139 0.0
C2583 C 0.21001 0.14402 0.67899 0.0
C2584 C 0.20711 0.12426 0.68851 0.0
C2585 C 0.20298 0.10567 0.68056 0.0
C2586 C 0.2014 0.10668 0.66304 0.0
C2587 C 0.20382 0.12624 0.65349 0.0
H2588 H 0.20085 0.09045 0.68798 0.0
H2589 H 0.21713 0.2766 0.59402 0.0
H2590 H 0.80817 0.96746 0.60379 0.0
H2591 H 0.81149 1.00083 0.6142 0.0
H2592 H 0.79731 0.9668 0.66535 0.0
H2593 H 0.79035 0.93228 0.6545 0.0
H2594 H 0.7778 0.9896 0.66488 0.0
H2595 H 0.85767 0.01214 0.64555 0.0
H2596 H 0.88993 0.01718 0.62569 0.0
H2597 H 0.87351 0.05925 0.58995 0.0
H2598 H 0.84132 0.05469 0.60967 0.0
H2599 H 0.83342 0.09564 0.6992 0.0
H2600 H 0.8279 0.06124 0.68897 0.0
H2601 H 0.80215 0.07875 0.64273 0.0
H2602 H 0.80661 0.11277 0.6531 0.0
H2603 H 0.84195 0.06524 0.64111 0.0
H2604 H 0.76219 0.04171 0.66486 0.0
H2605 H 0.7339 0.03727 0.68783 0.0
H2606 H 0.75683 0.99705 0.71997 0.0
H2607 H 0.78554 1.00155 0.69725 0.0
C2608 C 0.80535 0.967 0.61722 0.0
C2609 C 0.79896 0.94719 0.6283 0.0
C2610 C 0.80783 0.98634 0.62327 0.0
C2611 C 0.80548 0.98689 0.64072 0.0
C2612 C 0.79939 0.9671 0.65185 0.0
C2613 C 0.7958 0.9474 0.64568 0.0
C2614 C 0.80866 0.00781 0.64725 0.0
C2615 C 0.79223 1.00602 0.65987 0.0
C2616 C 0.82723 0.02957 0.64076 0.0
C2617 C 0.84698 0.03291 0.62903 0.0
C2618 C 0.86097 0.02248 0.63345 0.0
C2619 C 0.87928 0.02532 0.62225 0.0
C2620 C 0.88381 0.03859 0.60659 0.0
C2621 C 0.87011 0.04915 0.60214 0.0
C2622 C 0.85188 0.04651 0.61335 0.0
C2623 C 0.8261 0.09204 0.68702 0.0
C2624 C 0.81998 0.10687 0.67719 0.0
C2625 C 0.82316 0.07242 0.68113 0.0
C2626 C 0.81451 0.06743 0.66514 0.0
C2627 C 0.80876 0.08229 0.65514 0.0
C2628 C 0.81126 0.1017 0.66115 0.0
C2629 C 0.8116 0.04673 0.65885 0.0
C2630 C 0.82795 0.04868 0.64625 0.0
C2631 C 0.79367 0.02515 0.66587 0.0
C2632 C 0.77617 0.02216 0.67942 0.0
C2633 C 0.76135 0.03209 0.67687 0.0
C2634 C 0.74521 0.02952 0.68984 0.0
C2635 C 0.74361 0.01693 0.70537 0.0
C2636 C 0.75811 1.00682 0.70794 0.0
C2637 C 0.77429 0.00935 0.69502 0.0
H2638 H 0.73112 0.01498 0.71539 0.0
H2639 H 0.89791 0.04067 0.59789 0.0
H2640 H 0.50532 0.41138 0.75357 0.0
H2641 H 0.47585 0.37739 0.74237 0.0
H2642 H 0.53165 0.36219 0.7299 0.0
H2643 H 0.56093 0.39551 0.742 0.0
H2644 H 0.49737 0.35864 0.70307 0.0
H2645 H 0.49965 0.33337 0.76188 0.0
H2646 H 0.49758 0.33491 0.79251 0.0
H2647 H 0.42605 0.32503 0.78993 0.0
H2648 H 0.42786 0.32384 0.7592 0.0
H2649 H 0.42507 0.24815 0.68343 0.0
H2650 H 0.45497 0.28196 0.69412 0.0
H2651 H 0.3996 0.28453 0.72313 0.0
H2652 H 0.36974 0.24981 0.7132 0.0
H2653 H 0.43437 0.29531 0.74149 0.0
H2654 H 0.43054 0.32192 0.68401 0.0
H2655 H 0.43083 0.32193 0.65311 0.0
H2656 H 0.50224 0.33115 0.65247 0.0
H2657 H 0.50235 0.33114 0.68341 0.0
C2658 C 0.51125 0.40068 0.74857 0.0
C2659 C 0.53549 0.40619 0.74866 0.0
C2660 C 0.49443 0.38134 0.74207 0.0
C2661 C 0.5015 0.36721 0.73526 0.0
C2662 C 0.52578 0.37291 0.73497 0.0
C2663 C 0.54255 0.39205 0.74178 0.0
C2664 C 0.48342 0.34622 0.72885 0.0
C2665 C 0.48376 0.34465 0.71148 0.0
C2666 C 0.46517 0.32824 0.73971 0.0
C2667 C 0.46399 0.32876 0.75821 0.0
C2668 C 0.48356 0.33174 0.76781 0.0
C2669 C 0.48243 0.33251 0.7852 0.0
C2670 C 0.46173 0.33013 0.79316 0.0
C2671 C 0.44209 0.32691 0.78374 0.0
C2672 C 0.44316 0.32618 0.76634 0.0
C2673 C 0.4192 0.25596 0.69202 0.0
C2674 C 0.39491 0.24627 0.69736 0.0
C2675 C 0.43639 0.27549 0.69808 0.0
C2676 C 0.42973 0.28638 0.70923 0.0
C2677 C 0.40541 0.27667 0.71456 0.0
C2678 C 0.38826 0.2568 0.7088 0.0
C2679 C 0.4481 0.30754 0.71556 0.0
C2680 C 0.44786 0.30921 0.73297 0.0
C2681 C 0.46616 0.32584 0.70466 0.0
C2682 C 0.46638 0.32634 0.68603 0.0
C2683 C 0.44628 0.32388 0.67728 0.0
C2684 C 0.44638 0.3239 0.65976 0.0
C2685 C 0.4665 0.32645 0.65084 0.0
C2686 C 0.48665 0.32915 0.65941 0.0
C2687 C 0.48668 0.32921 0.67692 0.0
H2688 H 0.4665 0.32635 0.63729 0.0
H2689 H 0.46087 0.33071 0.80662 0.0
H2690 H 0.65704 0.21521 0.75769 0.0
H2691 H 0.68755 0.20723 0.74645 0.0
H2692 H 0.63525 0.13712 0.74902 0.0
H2693 H 0.60463 0.14533 0.7597 0.0
H2694 H 0.68359 0.14698 0.7591 0.0
H2695 H 0.64278 0.16481 0.71327 0.0
H2696 H 0.62765 0.18827 0.69749 0.0
H2697 H 0.69879 0.24408 0.69047 0.0
H2698 H 0.71433 0.22094 0.70626 0.0
H2699 H 0.74882 0.11741 0.70677 0.0
H2700 H 0.71473 0.12148 0.71609 0.0
H2701 H 0.75752 0.19366 0.70611 0.0
H2702 H 0.79128 0.18965 0.69668 0.0
H2703 H 0.71232 0.18129 0.69968 0.0
H2704 H 0.75413 0.1654 0.74452 0.0
H2705 H 0.771 0.14394 0.76091 0.0
H2706 H 0.70078 0.08753 0.77174 0.0
H2707 H 0.68349 0.10841 0.75499 0.0
C2708 C 0.65234 0.19807 0.75617 0.0
C2709 C 0.6287 0.18086 0.75951 0.0
C2710 C 0.66963 0.19353 0.74975 0.0
C2711 C 0.66349 0.17164 0.74675 0.0
C2712 C 0.64027 0.15411 0.75127 0.0
C2713 C 0.62289 0.15874 0.75747 0.0
C2714 C 0.68072 0.16748 0.73758 0.0
C2715 C 0.68965 0.15415 0.74604 0.0
C2716 C 0.68894 0.17736 0.72068 0.0
C2717 C 0.67967 0.19122 0.71106 0.0
C2718 C 0.65517 0.18213 0.70845 0.0
C2719 C 0.64653 0.19535 0.69947 0.0
C2720 C 0.66223 0.21768 0.69305 0.0
C2721 C 0.68664 0.22679 0.69548 0.0
C2722 C 0.69538 0.21362 0.7044 0.0
C2723 C 0.75063 0.13409 0.70608 0.0
C2724 C 0.77267 0.15319 0.70101 0.0
C2725 C 0.73125 0.13641 0.7115 0.0
C2726 C 0.73381 0.15789 0.71221 0.0
C2727 C 0.75519 0.17693 0.70578 0.0
C2728 C 0.77451 0.17461 0.7003 0.0
C2729 C 0.71528 0.16066 0.72115 0.0
C2730 C 0.70615 0.17386 0.71269 0.0
C2731 C 0.70718 0.15093 0.73816 0.0
C2732 C 0.71754 0.13837 0.7483 0.0
C2733 C 0.74229 0.14834 0.75025 0.0
C2734 C 0.75194 0.1363 0.75963 0.0
C2735 C 0.737 0.11439 0.76735 0.0
C2736 C 0.71235 0.10448 0.76572 0.0
C2737 C 0.70261 0.1164 0.75626 0.0
H2738 H 0.74451 0.10512 0.77463 0.0
H2739 H 0.65549 0.2279 0.68615 0.0
H2740 H 0.89922 0.47846 0.73222 0.0
H2741 H 0.89631 0.51274 0.72394 0.0
H2742 H 0.85136 0.49799 0.769 0.0
H2743 H 0.85347 0.46311 0.77677 0.0
H2744 H 0.8333 0.51087 0.74347 0.0
H2745 H 0.90974 0.53944 0.76484 0.0
H2746 H 0.9505 0.54505 0.76861 0.0
H2747 H 0.97071 0.57495 0.71683 0.0
H2748 H 0.92995 0.56921 0.71272 0.0
H2749 H 0.88405 0.64168 0.72356 0.0
H2750 H 0.88843 0.60954 0.7361 0.0
H2751 H 0.83959 0.56851 0.7015 0.0
H2752 H 0.83418 0.60011 0.68951 0.0
H2753 H 0.90466 0.58477 0.72572 0.0
H2754 H 0.80726 0.51471 0.71908 0.0
H2755 H 0.76666 0.51047 0.71883 0.0
H2756 H 0.7884 0.56567 0.74761 0.0
H2757 H 0.82902 0.57 0.7483 0.0
C2758 C 0.88883 0.48268 0.74033 0.0
C2759 C 0.87675 0.46836 0.75519 0.0
C2760 C 0.88726 0.5023 0.73568 0.0
C2761 C 0.8738 0.50817 0.74592 0.0
C2762 C 0.86189 0.49391 0.76089 0.0
C2763 C 0.86335 0.47417 0.76547 0.0
C2764 C 0.87175 0.52888 0.74071 0.0
C2765 C 0.84891 0.52703 0.73963 0.0
C2766 C 0.8921 0.55017 0.73611 0.0
C2767 C 0.91672 0.55376 0.73847 0.0
C2768 C 0.92285 0.54711 0.75425 0.0
C2769 C 0.94596 0.55031 0.75644 0.0
C2770 C 0.96319 0.56033 0.74295 0.0
C2771 C 0.95734 0.56718 0.72726 0.0
C2772 C 0.93423 0.56398 0.725 0.0
C2773 C 0.87423 0.62584 0.71859 0.0
C2774 C 0.85877 0.6236 0.70545 0.0
C2775 C 0.87682 0.60744 0.72577 0.0
C2776 C 0.86407 0.58641 0.71997 0.0
C2777 C 0.84923 0.58436 0.7065 0.0
C2778 C 0.84639 0.60262 0.69948 0.0
C2779 C 0.8662 0.56661 0.72797 0.0
C2780 C 0.88904 0.56863 0.7296 0.0
C2781 C 0.84586 0.54564 0.73358 0.0
C2782 C 0.82128 0.5428 0.7336 0.0
C2783 C 0.80335 0.52585 0.72545 0.0
C2784 C 0.78034 0.52345 0.72522 0.0
C2785 C 0.77498 0.53784 0.73314 0.0
C2786 C 0.7926 0.55458 0.74142 0.0
C2787 C 0.81562 0.55702 0.74173 0.0
H2788 H 0.75719 0.53602 0.73287 0.0
H2789 H 0.98107 0.5628 0.74467 0.0
H2790 H 0.45074 0.88345 0.26315 0.0
H2791 H 0.47028 0.90807 0.2368 0.0
H2792 H 0.45153 0.8499 0.21147 0.0
H2793 H 0.43298 0.8253 0.23833 0.0
H2794 H 0.49444 0.88516 0.19846 0.0
H2795 H 0.41516 0.87235 0.20941 0.0
H2796 H 0.38153 0.87001 0.22625 0.0
H2797 H 0.42226 0.94019 0.23133 0.0
H2798 H 0.45617 0.94294 0.21453 0.0
H2799 H 0.47485 0.96459 0.12761 0.0
H2800 H 0.46044 0.93359 0.15062 0.0
H2801 H 0.53196 0.95873 0.16749 0.0
H2802 H 0.54673 0.98937 0.14399 0.0
H2803 H 0.45983 0.93569 0.18266 0.0
H2804 H 0.53816 0.91408 0.18784 0.0
H2805 H 0.5677 0.91263 0.16889 0.0
H2806 H 0.52247 0.9051 0.1275 0.0
H2807 H 0.49246 0.90606 0.14624 0.0
C2808 C 0.45182 0.87609 0.2521 0.0
C2809 C 0.44096 0.8527 0.25266 0.0
C2810 C 0.46264 0.89005 0.23704 0.0
C2811 C 0.46199 0.88079 0.22212 0.0
C2812 C 0.45226 0.85737 0.22285 0.0
C2813 C 0.44173 0.84338 0.23809 0.0
C2814 C 0.46912 0.89549 0.20567 0.0
C2815 C 0.48695 0.89625 0.19495 0.0
C2816 C 0.45866 0.90932 0.20083 0.0
C2817 C 0.43825 0.90781 0.21081 0.0
C2818 C 0.41698 0.88726 0.21418 0.0
C2819 C 0.39785 0.88587 0.22369 0.0
C2820 C 0.39979 0.90491 0.22991 0.0
C2821 C 0.4208 0.92544 0.22653 0.0
C2822 C 0.43994 0.92695 0.21696 0.0
C2823 C 0.48762 0.96333 0.13601 0.0
C2824 C 0.51196 0.97948 0.13394 0.0
C2825 C 0.47932 0.94565 0.14923 0.0
C2826 C 0.49513 0.94372 0.16072 0.0
C2827 C 0.51948 0.95969 0.15864 0.0
C2828 C 0.52784 0.97737 0.14534 0.0
C2829 C 0.48578 0.92601 0.17556 0.0
C2830 C 0.46741 0.92464 0.18603 0.0
C2831 C 0.49524 0.91118 0.17979 0.0
C2832 C 0.51318 0.91046 0.16843 0.0
C2833 C 0.53448 0.91206 0.17471 0.0
C2834 C 0.55131 0.91133 0.164 0.0
C2835 C 0.54705 0.90897 0.14698 0.0
C2836 C 0.52584 0.90712 0.14066 0.0
C2837 C 0.50892 0.90778 0.15132 0.0
H2838 H 0.56011 0.90841 0.13871 0.0
H2839 H 0.38499 0.90378 0.23733 0.0
H2840 H 0.08555 0.53144 0.26703 0.0
H2841 H 0.06899 0.51588 0.24083 0.0
H2842 H 0.1302 0.57057 0.21194 0.0
H2843 H 0.14683 0.58573 0.23817 0.0
H2844 H 0.08747 0.56639 0.20108 0.0
H2845 H 0.12268 0.51887 0.21457 0.0
H2846 H 0.13074 0.49195 0.23301 0.0
H2847 H 0.05626 0.44324 0.23601 0.0
H2848 H 0.04765 0.47004 0.21784 0.0
H2849 H 0.05095 0.53285 0.12159 0.0
H2850 H 0.07508 0.54217 0.1461 0.0
H2851 H 0.01934 0.48411 0.17658 0.0
H2852 H 0.99568 0.47383 0.15186 0.0
H2853 H 0.06133 0.48987 0.18621 0.0
H2854 H 0.02513 0.53739 0.17592 0.0
H2855 H 0.0153 0.56427 0.1591 0.0
H2856 H 0.08985 0.61261 0.15169 0.0
H2857 H 0.10014 0.58589 0.16829 0.0
C2858 C 0.09566 0.53968 0.25508 0.0
C2859 C 0.11725 0.55984 0.25446 0.0
C2860 C 0.08623 0.53088 0.24015 0.0
C2861 C 0.09832 0.54214 0.22441 0.0
C2862 C 0.12051 0.56169 0.22392 0.0
C2863 C 0.12996 0.57036 0.23884 0.0
C2864 C 0.08689 0.53478 0.20842 0.0
C2865 C 0.08217 0.5498 0.19767 0.0
C2866 C 0.07931 0.51289 0.20426 0.0
C2867 C 0.08448 0.49656 0.21494 0.0
C2868 C 0.10797 0.50249 0.21926 0.0
C2869 C 0.11265 0.48724 0.22965 0.0
C2870 C 0.09402 0.46592 0.23571 0.0
C2871 C 0.07068 0.45978 0.23133 0.0
C2872 C 0.06589 0.47499 0.22096 0.0
C2873 C 0.04398 0.52171 0.13337 0.0
C2874 C 0.02113 0.50269 0.1347 0.0
C2875 C 0.05774 0.52723 0.14747 0.0
C2876 C 0.04884 0.51414 0.16333 0.0
C2877 C 0.02656 0.49459 0.16454 0.0
C2878 C 0.01289 0.4889 0.1504 0.0
C2879 C 0.062 0.52157 0.17881 0.0
C2880 C 0.06689 0.50654 0.18953 0.0
C2881 C 0.06955 0.54342 0.18311 0.0
C2882 C 0.06341 0.55956 0.17319 0.0
C2883 C 0.03943 0.5537 0.17061 0.0
C2884 C 0.03378 0.56891 0.16112 0.0
C2885 C 0.05195 0.59011 0.15429 0.0
C2886 C 0.0758 0.59617 0.15696 0.0
C2887 C 0.08155 0.581 0.16642 0.0
H2888 H 0.04754 0.60186 0.14695 0.0
H2889 H 0.09768 0.45415 0.24377 0.0
H2890 H 0.41834 0.55855 0.25245 0.0
H2891 H 0.41973 0.5429 0.22632 0.0
H2892 H 0.48676 0.54612 0.23957 0.0
H2893 H 0.48507 0.5613 0.26553 0.0
H2894 H 0.4884 0.56831 0.2072 0.0
H2895 H 0.4382 0.49727 0.24202 0.0
H2896 H 0.40201 0.47077 0.25996 0.0
H2897 H 0.35825 0.46985 0.21877 0.0
H2898 H 0.39419 0.49674 0.20067 0.0
H2899 H 0.5196 0.51079 0.15461 0.0
H2900 H 0.50738 0.52323 0.1783 0.0
H2901 H 0.44039 0.5077 0.15617 0.0
H2902 H 0.45236 0.49456 0.13241 0.0
H2903 H 0.4337 0.4935 0.19043 0.0
H2904 H 0.48205 0.56168 0.15491 0.0
H2905 H 0.51693 0.58999 0.13655 0.0
H2906 H 0.56225 0.59814 0.17796 0.0
H2907 H 0.5277 0.5697 0.19654 0.0
C2908 C 0.43293 0.55527 0.2499 0.0
C2909 C 0.45163 0.5611 0.26088 0.0
C2910 C 0.43383 0.54649 0.23498 0.0
C2911 C 0.45351 0.54356 0.2309 0.0
C2912 C 0.47153 0.54841 0.24235 0.0
C2913 C 0.47051 0.55694 0.2572 0.0
C2914 C 0.45648 0.53682 0.21434 0.0
C2915 C 0.47651 0.55189 0.20359 0.0
C2916 C 0.44043 0.51578 0.20927 0.0
C2917 C 0.41888 0.49924 0.22005 0.0
C2918 C 0.42086 0.49157 0.23682 0.0
C2919 C 0.40038 0.47646 0.24702 0.0
C2920 C 0.37783 0.46868 0.24053 0.0
C2921 C 0.37573 0.47593 0.2238 0.0
C2922 C 0.39614 0.49111 0.21356 0.0
C2923 C 0.50218 0.50985 0.15476 0.0
C2924 C 0.48694 0.50153 0.14158 0.0
C2925 C 0.49527 0.51717 0.1683 0.0
C2926 C 0.473 0.5166 0.16903 0.0
C2927 C 0.45766 0.50833 0.15591 0.0
C2928 C 0.46463 0.50102 0.14226 0.0
C2929 C 0.46617 0.52473 0.18358 0.0
C2930 C 0.44543 0.51002 0.19392 0.0
C2931 C 0.48138 0.54629 0.18822 0.0
C2932 C 0.50228 0.56342 0.1771 0.0
C2933 C 0.49948 0.56939 0.16008 0.0
C2934 C 0.51919 0.58548 0.14963 0.0
C2935 C 0.54179 0.59581 0.15607 0.0
C2936 C 0.54473 0.59011 0.17299 0.0
C2937 C 0.52508 0.57403 0.18349 0.0
H2938 H 0.55703 0.60825 0.14797 0.0
H2939 H 0.362 0.45699 0.24845 0.0
H2940 H 0.86457 0.44478 0.80038 0.0
H2941 H 0.88436 0.46244 0.82518 0.0
H2942 H 0.95303 0.48376 0.80013 0.0
H2943 H 0.93308 0.46647 0.77526 0.0
H2944 H 0.94575 0.45899 0.83219 0.0
H2945 H 0.9376 0.52252 0.80634 0.0
H2946 H 0.91588 0.54198 0.79425 0.0
H2947 H 0.87248 0.52204 0.84045 0.0
H2948 H 0.89387 0.50236 0.85286 0.0
H2949 H 0.02613 0.5254 0.88781 0.0
H2950 H 1.00279 0.51061 0.86381 0.0
H2951 H 0.93986 0.50296 0.89009 0.0
H2952 H 0.96356 0.51912 0.91392 0.0
H2953 H 0.94117 0.51919 0.85855 0.0
H2954 H 0.94809 0.45682 0.88519 0.0
H2955 H 0.96793 0.4361 0.89845 0.0
H2956 H 0.00998 0.45064 0.85226 0.0
H2957 H 0.99057 0.47166 0.83877 0.0
C2958 C 0.88388 0.45402 0.80002 0.0
C2959 C 0.89744 0.45488 0.78589 0.0
C2960 C 0.89517 0.46393 0.81418 0.0
C2961 C 0.92019 0.47451 0.81448 0.0
C2962 C 0.93373 0.47578 0.80015 0.0
C2963 C 0.92243 0.46609 0.78595 0.0
C2964 C 0.93218 0.48253 0.83019 0.0
C2965 C 0.94504 0.47237 0.83784 0.0
C2966 C 0.93028 0.49922 0.83798 0.0
C2967 C 0.91714 0.51073 0.83045 0.0
C2968 C 0.92323 0.52204 0.81386 0.0
C2969 C 0.91099 0.53314 0.80695 0.0
C2970 C 0.89263 0.53304 0.8165 0.0
C2971 C 0.88657 0.52196 0.83303 0.0
C2972 C 0.8988 0.51089 0.84003 0.0
C2973 C 0.00739 0.52082 0.8885 0.0
C2974 C 0.99684 0.52362 0.90286 0.0
C2975 C 0.99393 0.51203 0.87479 0.0
C2976 C 0.96941 0.5053 0.87517 0.0
C2977 C 0.95872 0.50793 0.88949 0.0
C2978 C 0.97226 0.51696 0.9032 0.0
C2979 C 0.95526 0.49599 0.86041 0.0
C2980 C 0.94186 0.50575 0.85298 0.0
C2981 C 0.95624 0.47858 0.85296 0.0
C2982 C 0.96801 0.46598 0.86101 0.0
C2983 C 0.96169 0.45574 0.8779 0.0
C2984 C 0.97284 0.44391 0.88544 0.0
C2985 C 0.99025 0.4421 0.87621 0.0
C2986 C 0.99651 0.45207 0.8594 0.0
C2987 C 0.98541 0.46391 0.85178 0.0
H2988 H 0.99886 0.43294 0.88208 0.0
H2989 H 0.88319 0.54165 0.81113 0.0
H2990 H 0.59412 0.45429 0.80084 0.0
H2991 H 0.58835 0.46589 0.82771 0.0
H2992 H 0.53878 0.48565 0.80489 0.0
H2993 H 0.54541 0.47477 0.77799 0.0
H2994 H 0.56183 0.51316 0.82628 0.0
H2995 H 0.52084 0.43277 0.82887 0.0
H2996 H 0.51694 0.39536 0.82721 0.0
H2997 H 0.56524 0.40482 0.86684 0.0
H2998 H 0.56959 0.44241 0.86862 0.0
H2999 H 0.48333 0.49562 0.89524 0.0
H3000 H 0.49996 0.48924 0.87034 0.0
H3001 H 0.55792 0.4901 0.89858 0.0
H3002 H 0.54194 0.49751 0.92361 0.0
H3003 H 0.5352 0.45409 0.876 0.0
H3004 H 0.57162 0.53441 0.87446 0.0
H3005 H 0.57128 0.5701 0.87601 0.0
H3006 H 0.52699 0.55869 0.83372 0.0
H3007 H 0.52674 0.52274 0.83209 0.0
C3008 C 0.58287 0.46207 0.80146 0.0
C3009 C 0.57069 0.46424 0.78729 0.0
C3010 C 0.57917 0.46828 0.81689 0.0
C3011 C 0.56271 0.47626 0.81855 0.0
C3012 C 0.55158 0.47958 0.80406 0.0
C3013 C 0.55548 0.47356 0.78864 0.0
C3014 C 0.55585 0.47984 0.83545 0.0
C3015 C 0.55595 0.50016 0.83709 0.0
C3016 C 0.54835 0.46307 0.84978 0.0
C3017 C 0.54576 0.4405 0.84874 0.0
C3018 C 0.53075 0.42694 0.83715 0.0
C3019 C 0.52844 0.40569 0.8362 0.0
C3020 C 0.54091 0.39775 0.84687 0.0
C3021 C 0.55564 0.41101 0.85856 0.0
C3022 C 0.55802 0.43228 0.85955 0.0
C3023 C 0.49977 0.49471 0.89625 0.0
C3024 C 0.51155 0.49773 0.91149 0.0
C3025 C 0.50915 0.49086 0.88195 0.0
C3026 C 0.53039 0.48953 0.88246 0.0
C3027 C 0.54156 0.49119 0.89785 0.0
C3028 C 0.53232 0.49537 0.91219 0.0
C3029 C 0.54109 0.48726 0.86666 0.0
C3030 C 0.54153 0.46718 0.86523 0.0
C3031 C 0.54866 0.50405 0.85242 0.0
C3032 C 0.54902 0.52579 0.85324 0.0
C3033 C 0.56166 0.53943 0.86557 0.0
C3034 C 0.56159 0.55972 0.86645 0.0
C3035 C 0.54908 0.56664 0.85499 0.0
C3036 C 0.53666 0.5533 0.8426 0.0
C3037 C 0.53664 0.53298 0.84168 0.0
H3038 H 0.54905 0.58235 0.8557 0.0
H3039 H 0.53909 0.3813 0.84611 0.0
H3040 H 0.62307 0.18281 0.8004 0.0
H3041 H 0.61649 0.15528 0.82552 0.0
H3042 H 0.5531 0.1063 0.80477 0.0
H3043 H 0.55988 0.13365 0.77983 0.0
H3044 H 0.54511 0.11365 0.83704 0.0
H3045 H 0.6006 0.09964 0.80645 0.0
H3046 H 0.63917 0.11127 0.79133 0.0
H3047 H 0.67576 0.13381 0.83617 0.0
H3048 H 0.6374 0.12268 0.8515 0.0
H3049 H 0.50592 0.01338 0.89033 0.0
H3050 H 0.52272 0.04148 0.86542 0.0
H3051 H 0.58496 0.08089 0.892 0.0
H3052 H 0.5687 0.05226 0.91688 0.0
H3053 H 0.5968 0.08161 0.85859 0.0
H3054 H 0.54155 0.09466 0.8895 0.0
H3055 H 0.50331 0.08469 0.90443 0.0
H3056 H 0.4669 0.06579 0.85892 0.0
H3057 H 0.50486 0.07531 0.84378 0.0
C3058 C 0.60805 0.166 0.80122 0.0
C3059 C 0.59167 0.16028 0.78855 0.0
C3060 C 0.60429 0.15035 0.81547 0.0
C3061 C 0.58416 0.12886 0.81704 0.0
C3062 C 0.56858 0.12287 0.80387 0.0
C3063 C 0.5724 0.13841 0.7897 0.0
C3064 C 0.57805 0.11302 0.83283 0.0
C3065 C 0.5563 0.10647 0.84166 0.0
C3066 C 0.59312 0.10436 0.83913 0.0
C3067 C 0.61614 0.11054 0.83008 0.0
C3068 C 0.61688 0.10722 0.81306 0.0
C3069 C 0.6387 0.1137 0.80445 0.0
C3070 C 0.6599 0.12331 0.81277 0.0
C3071 C 0.65932 0.12639 0.82974 0.0
C3072 C 0.63753 0.11998 0.8384 0.0
C3073 C 0.52341 0.02775 0.89082 0.0
C3074 C 0.53586 0.03061 0.90569 0.0
C3075 C 0.53291 0.04392 0.87659 0.0
C3076 C 0.55491 0.06346 0.87695 0.0
C3077 C 0.5679 0.06599 0.89149 0.0
C3078 C 0.55844 0.04973 0.90575 0.0
C3079 C 0.56343 0.0817 0.86248 0.0
C3080 C 0.58567 0.08886 0.854 0.0
C3081 C 0.54889 0.09114 0.85648 0.0
C3082 C 0.52604 0.08553 0.86554 0.0
C3083 C 0.52536 0.08822 0.88271 0.0
C3084 C 0.50374 0.08267 0.8912 0.0
C3085 C 0.48268 0.07456 0.88263 0.0
C3086 C 0.48322 0.07205 0.86554 0.0
C3087 C 0.50479 0.07754 0.85699 0.0
H3088 H 0.46595 0.07025 0.88921 0.0
H3089 H 0.67675 0.12832 0.80606 0.0
H3090 H 0.09558 0.17243 0.56495 0.0
H3091 H 0.12048 0.19961 0.54094 0.0
H3092 H 0.16137 0.24666 0.57529 0.0
H3093 H 0.13549 0.21984 0.5991 0.0
H3094 H 0.14792 0.26657 0.55199 0.0
H3095 H 0.18579 0.22225 0.55166 0.0
H3096 H 0.18994 0.18813 0.55239 0.0
H3097 H 0.1573 0.17548 0.50493 0.0
H3098 H 0.15229 0.2092 0.50412 0.0
H3099 H 0.22126 0.34345 0.48066 0.0
H3100 H 0.21136 0.31603 0.50597 0.0
H3101 H 0.14938 0.26849 0.4832 0.0
H3102 H 0.1581 0.29608 0.45828 0.0
H3103 H 0.18076 0.25131 0.50184 0.0
H3104 H 0.13736 0.29355 0.50699 0.0
H3105 H 0.13569 0.32888 0.50706 0.0
H3106 H 0.18416 0.34687 0.54696 0.0
H3107 H 0.18639 0.31177 0.54693 0.0
C3108 C 0.11016 0.18847 0.56727 0.0
C3109 C 0.11375 0.19415 0.58373 0.0
C3110 C 0.12452 0.20392 0.55363 0.0
C3111 C 0.14295 0.22519 0.55629 0.0
C3112 C 0.14729 0.23038 0.5729 0.0
C3113 C 0.13272 0.21501 0.58651 0.0
C3114 C 0.1557 0.24277 0.54166 0.0
C3115 C 0.15559 0.26334 0.54123 0.0
C3116 C 0.16561 0.23862 0.5275 0.0
C3117 C 0.16851 0.21823 0.52789 0.0
C3118 C 0.17926 0.21209 0.54145 0.0
C3119 C 0.18178 0.19281 0.54188 0.0
C3120 C 0.17391 0.17965 0.52871 0.0
C3121 C 0.16341 0.18571 0.51511 0.0
C3122 C 0.1607 0.2049 0.51467 0.0
C3123 C 0.2054 0.32726 0.48101 0.0
C3124 C 0.19041 0.32218 0.46737 0.0
C3125 C 0.19999 0.31152 0.49542 0.0
C3126 C 0.17973 0.29028 0.49636 0.0
C3127 C 0.16526 0.28475 0.48258 0.0
C3128 C 0.17038 0.30059 0.46831 0.0
C3129 C 0.17233 0.27454 0.51225 0.0
C3130 C 0.17345 0.25446 0.51283 0.0
C3131 C 0.16377 0.27923 0.52671 0.0
C3132 C 0.16228 0.30021 0.5268 0.0
C3133 C 0.14784 0.30515 0.51566 0.0
C3134 C 0.14676 0.3251 0.51572 0.0
C3135 C 0.15988 0.34015 0.52697 0.0
C3136 C 0.17405 0.33523 0.53822 0.0
C3137 C 0.17523 0.31531 0.53819 0.0
H3138 H 0.15901 0.35559 0.527 0.0
H3139 H 0.17597 0.16479 0.52903 0.0
H3140 H 0.73715 0.87077 0.60116 0.0
H3141 H 0.72085 0.85678 0.57447 0.0
H3142 H 0.79245 0.88714 0.55161 0.0
H3143 H 0.80854 0.90107 0.5784 0.0
H3144 H 0.72663 0.88448 0.54551 0.0
H3145 H 0.7907 0.85667 0.5186 0.0
H3146 H 0.8159 0.84002 0.52895 0.0
H3147 H 0.76996 0.80858 0.57412 0.0
H3148 H 0.74425 0.8247 0.56391 0.0
H3149 H 0.71168 0.87884 0.45787 0.0
H3150 H 0.7336 0.88679 0.48373 0.0
H3151 H 0.69544 0.81636 0.50343 0.0
H3152 H 0.67346 0.80834 0.4777 0.0
H3153 H 0.74486 0.83807 0.51093 0.0
H3154 H 0.67419 0.84696 0.51479 0.0
H3155 H 0.64795 0.86262 0.50489 0.0
H3156 H 0.70481 0.92948 0.50747 0.0
H3157 H 0.73151 0.9142 0.51714 0.0
C3158 C 0.74927 0.87383 0.59051 0.0
C3159 C 0.77397 0.88691 0.59164 0.0
C3160 C 0.74004 0.86603 0.57528 0.0
C3161 C 0.75541 0.87101 0.561 0.0
C3162 C 0.78024 0.88295 0.56247 0.0
C3163 C 0.78944 0.89082 0.57772 0.0
C3164 C 0.74538 0.86547 0.54429 0.0
C3165 C 0.73067 0.87434 0.53798 0.0
C3166 C 0.75066 0.85229 0.53441 0.0
C3167 C 0.7657 0.84211 0.54055 0.0
C3168 C 0.78591 0.84611 0.5307 0.0
C3169 C 0.80029 0.83677 0.53655 0.0
C3170 C 0.79458 0.82331 0.55221 0.0
C3171 C 0.77441 0.81908 0.56202 0.0
C3172 C 0.75995 0.82833 0.55622 0.0
C3173 C 0.70832 0.86502 0.46759 0.0
C3174 C 0.69064 0.84301 0.46588 0.0
C3175 C 0.7208 0.86957 0.48235 0.0
C3176 C 0.716 0.85217 0.49555 0.0
C3177 C 0.69943 0.83002 0.49341 0.0
C3178 C 0.68675 0.8255 0.47877 0.0
C3179 C 0.72632 0.85722 0.51221 0.0
C3180 C 0.74104 0.84833 0.51847 0.0
C3181 C 0.72099 0.87028 0.52216 0.0
C3182 C 0.7049 0.87946 0.51652 0.0
C3183 C 0.68115 0.86501 0.51312 0.0
C3184 C 0.66618 0.87381 0.50757 0.0
C3185 C 0.67473 0.89703 0.50551 0.0
C3186 C 0.69823 0.9115 0.50904 0.0
C3187 C 0.71328 0.90278 0.51457 0.0
H3188 H 0.66311 0.90381 0.50121 0.0
H3189 H 0.80576 0.81613 0.55672 0.0
H3190 H 0.09147 0.90305 0.58159 0.0
H3191 H 0.09249 0.88797 0.55525 0.0
H3192 H 0.13618 0.86085 0.57808 0.0
H3193 H 0.13587 0.87689 0.60394 0.0
H3194 H 0.15596 0.88189 0.54968 0.0
H3195 H 0.07561 0.82767 0.56763 0.0
H3196 H 0.03349 0.8131 0.57718 0.0
H3197 H 0.02201 0.8451 0.53116 0.0
H3198 H 0.06418 0.86018 0.52144 0.0
H3199 H 0.14415 0.80769 0.48996 0.0
H3200 H 0.13167 0.81838 0.51463 0.0
H3201 H 0.13198 0.87458 0.48368 0.0
H3202 H 0.1457 0.8647 0.45886 0.0
H3203 H 0.08864 0.83928 0.51469 0.0
H3204 H 0.1732 0.89595 0.49933 0.0
H3205 H 0.21443 0.90557 0.49068 0.0
H3206 H 0.21581 0.86274 0.53411 0.0
H3207 H 0.17442 0.8526 0.54284 0.0
C3208 C 0.10063 0.89327 0.581 0.0
C3209 C 0.11318 0.89064 0.59477 0.0
C3210 C 0.10127 0.88466 0.56598 0.0
C3211 C 0.11433 0.87308 0.56457 0.0
C3212 C 0.12603 0.86972 0.57871 0.0
C3213 C 0.12566 0.87862 0.59356 0.0
C3214 C 0.11768 0.86619 0.54807 0.0
C3215 C 0.14107 0.87245 0.54219 0.0
C3216 C 0.09847 0.85406 0.53797 0.0
C3217 C 0.07317 0.84529 0.54389 0.0
C3218 C 0.06419 0.83181 0.55962 0.0
C3219 C 0.04028 0.82342 0.56505 0.0
C3220 C 0.02511 0.82823 0.55481 0.0
C3221 C 0.0338 0.84143 0.5391 0.0
C3222 C 0.05771 0.8499 0.53362 0.0
C3223 C 0.14162 0.82237 0.48829 0.0
C3224 C 0.14648 0.83558 0.47237 0.0
C3225 C 0.13418 0.82827 0.50243 0.0
C3226 C 0.13096 0.84728 0.501 0.0
C3227 C 0.13427 0.85976 0.48502 0.0
C3228 C 0.14207 0.85404 0.47083 0.0
C3229 C 0.1267 0.8552 0.51658 0.0
C3230 C 0.1033 0.84899 0.52225 0.0
C3231 C 0.14574 0.86701 0.52672 0.0
C3232 C 0.17069 0.87335 0.52162 0.0
C3233 C 0.18223 0.88843 0.50693 0.0
C3234 C 0.20563 0.89401 0.50204 0.0
C3235 C 0.21771 0.88472 0.51181 0.0
C3236 C 0.20643 0.86989 0.52653 0.0
C3237 C 0.18301 0.86424 0.53146 0.0
H3238 H 0.23582 0.88906 0.508 0.0
H3239 H 0.0066 0.82169 0.55902 0.0
H3240 H 0.52814 0.76828 0.13721 0.0
H3241 H 0.54894 0.78636 0.16166 0.0
H3242 H 0.61578 0.81888 0.13175 0.0
H3243 H 0.59471 0.80125 0.10723 0.0
H3244 H 0.61256 0.7908 0.16425 0.0
H3245 H 0.59674 0.8506 0.14055 0.0
H3246 H 0.57013 0.86545 0.12988 0.0
H3247 H 0.53152 0.84417 0.17828 0.0
H3248 H 0.5576 0.82876 0.18918 0.0
H3249 H 0.69362 0.85733 0.21903 0.0
H3250 H 0.66953 0.84329 0.19524 0.0
H3251 H 0.60678 0.83218 0.22391 0.0
H3252 H 0.63127 0.84785 0.24756 0.0
H3253 H 0.60527 0.84818 0.19281 0.0
H3254 H 0.61788 0.78811 0.21709 0.0
H3255 H 0.64038 0.76926 0.22885 0.0
H3256 H 0.68022 0.78643 0.18125 0.0
H3257 H 0.65818 0.80566 0.16927 0.0
C3258 C 0.54715 0.77983 0.13585 0.0
C3259 C 0.55993 0.78379 0.12046 0.0
C3260 C 0.559 0.79004 0.14975 0.0
C3261 C 0.58388 0.80396 0.14848 0.0
C3262 C 0.59657 0.80826 0.13294 0.0
C3263 C 0.58462 0.79838 0.11898 0.0
C3264 C 0.5969 0.81258 0.16369 0.0
C3265 C 0.61128 0.80359 0.17037 0.0
C3266 C 0.59426 0.82848 0.17206 0.0
C3267 C 0.57896 0.83825 0.16563 0.0
C3268 C 0.58245 0.84888 0.14889 0.0
C3269 C 0.56747 0.85743 0.1428 0.0
C3270 C 0.54907 0.85562 0.15337 0.0
C3271 C 0.54573 0.84547 0.1701 0.0
C3272 C 0.56061 0.83683 0.17624 0.0
C3273 C 0.67476 0.85223 0.2203 0.0
C3274 C 0.66451 0.85388 0.23531 0.0
C3275 C 0.66088 0.84385 0.20669 0.0
C3276 C 0.63618 0.83625 0.20779 0.0
C3277 C 0.62577 0.83783 0.22273 0.0
C3278 C 0.63978 0.84655 0.23635 0.0
C3279 C 0.62149 0.82674 0.19326 0.0
C3280 C 0.60664 0.8354 0.18673 0.0
C3281 C 0.62321 0.8101 0.18519 0.0
C3282 C 0.63651 0.7985 0.19233 0.0
C3283 C 0.63156 0.78801 0.20916 0.0
C3284 C 0.64421 0.77723 0.21586 0.0
C3285 C 0.66176 0.77669 0.20581 0.0
C3286 C 0.66664 0.78688 0.18902 0.0
C3287 C 0.65405 0.7977 0.18227 0.0
H3288 H 0.67153 0.76834 0.21102 0.0
H3289 H 0.53738 0.86209 0.1486 0.0
H3290 H 0.26254 0.78277 0.13268 0.0
H3291 H 0.25759 0.79422 0.15982 0.0
H3292 H 0.21749 0.82467 0.13595 0.0
H3293 H 0.22366 0.8141 0.10877 0.0
H3294 H 0.24013 0.84818 0.15892 0.0
H3295 H 0.19113 0.76907 0.15822 0.0
H3296 H 0.18249 0.73045 0.15515 0.0
H3297 H 0.22577 0.73095 0.19657 0.0
H3298 H 0.23494 0.76973 0.19973 0.0
H3299 H 0.15825 0.83068 0.22631 0.0
H3300 H 0.17453 0.82331 0.20172 0.0
H3301 H 0.23251 0.82465 0.23018 0.0
H3302 H 0.21702 0.83329 0.25484 0.0
H3303 H 0.20484 0.78631 0.2067 0.0
H3304 H 0.24999 0.86704 0.20747 0.0
H3305 H 0.25329 0.90407 0.20987 0.0
H3306 H 0.21059 0.89806 0.16712 0.0
H3307 H 0.20671 0.86082 0.16465 0.0
C3308 C 0.25353 0.7927 0.13322 0.0
C3309 C 0.24384 0.79797 0.11869 0.0
C3310 C 0.2503 0.79891 0.14876 0.0
C3311 C 0.23658 0.80985 0.15017 0.0
C3312 C 0.22811 0.81624 0.13535 0.0
C3313 C 0.23174 0.81037 0.11977 0.0
C3314 C 0.22968 0.81336 0.16709 0.0
C3315 C 0.23241 0.83457 0.16929 0.0
C3316 C 0.21959 0.79575 0.18085 0.0
C3317 C 0.21395 0.77238 0.17909 0.0
C3318 C 0.19892 0.76099 0.1666 0.0
C3319 C 0.19392 0.73908 0.16485 0.0
C3320 C 0.20363 0.72828 0.17563 0.0
C3321 C 0.2183 0.73936 0.18821 0.0
C3322 C 0.22341 0.7613 0.18999 0.0
C3323 C 0.1746 0.82964 0.22744 0.0
C3324 C 0.18658 0.83321 0.24259 0.0
C3325 C 0.18376 0.8252 0.21333 0.0
C3326 C 0.20488 0.8237 0.21402 0.0
C3327 C 0.2162 0.82582 0.22935 0.0
C3328 C 0.20723 0.83066 0.24348 0.0
C3329 C 0.21542 0.82101 0.19836 0.0
C3330 C 0.21308 0.79994 0.19637 0.0
C3331 C 0.22529 0.83854 0.18465 0.0
C3332 C 0.2279 0.86107 0.18597 0.0
C3333 C 0.24114 0.87354 0.19867 0.0
C3334 C 0.24314 0.89458 0.20003 0.0
C3335 C 0.23211 0.90339 0.18868 0.0
C3336 C 0.21911 0.89121 0.17592 0.0
C3337 C 0.21702 0.87014 0.17452 0.0
H3338 H 0.23368 0.91968 0.18976 0.0
H3339 H 0.19974 0.71132 0.17425 0.0
H3340 H 0.27369 0.5204 0.1423 0.0
H3341 H 0.2666 0.49247 0.16704 0.0
H3342 H 0.23588 0.43952 0.13535 0.0
H3343 H 0.24372 0.46772 0.11065 0.0
H3344 H 0.22551 0.46177 0.1804 0.0
H3345 H 0.23982 0.39343 0.15292 0.0
H3346 H 0.26604 0.39121 0.13146 0.0
H3347 H 0.31975 0.45875 0.13598 0.0
H3348 H 0.29409 0.46125 0.15771 0.0
H3349 H 0.15814 0.35462 0.22654 0.0
H3350 H 0.17787 0.38349 0.20215 0.0
H3351 H 0.24656 0.40065 0.222 0.0
H3352 H 0.22688 0.37191 0.24658 0.0
H3353 H 0.24341 0.39825 0.18491 0.0
H3354 H 0.22961 0.43329 0.22893 0.0
H3355 H 0.20607 0.43714 0.25149 0.0
H3356 H 0.15716 0.43994 0.21548 0.0
H3357 H 0.18021 0.43572 0.19272 0.0
C3358 C 0.26598 0.5028 0.14071 0.0
C3359 C 0.25933 0.49598 0.12479 0.0
C3360 C 0.26182 0.48688 0.15476 0.0
C3361 C 0.25078 0.46387 0.15308 0.0
C3362 C 0.24481 0.45717 0.13695 0.0
C3363 C 0.24919 0.47316 0.12288 0.0
C3364 C 0.24358 0.44686 0.16835 0.0
C3365 C 0.22962 0.448 0.18137 0.0
C3366 C 0.24913 0.42899 0.16978 0.0
C3367 C 0.26491 0.42755 0.15689 0.0
C3368 C 0.25729 0.40776 0.14943 0.0
C3369 C 0.27206 0.40645 0.13722 0.0
C3370 C 0.29456 0.4248 0.13239 0.0
C3371 C 0.30232 0.44453 0.13975 0.0
C3372 C 0.28766 0.44591 0.15201 0.0
C3373 C 0.17746 0.36427 0.22555 0.0
C3374 C 0.19099 0.36108 0.23843 0.0
C3375 C 0.18868 0.38077 0.21167 0.0
C3376 C 0.21362 0.39415 0.21034 0.0
C3377 C 0.2273 0.3904 0.22281 0.0
C3378 C 0.21604 0.37411 0.23684 0.0
C3379 C 0.22506 0.4131 0.19654 0.0
C3380 C 0.23963 0.41222 0.18386 0.0
C3381 C 0.22052 0.4315 0.19552 0.0
C3382 C 0.20651 0.43396 0.20915 0.0
C3383 C 0.21369 0.43448 0.22585 0.0
C3384 C 0.20047 0.43678 0.23867 0.0
C3385 C 0.18012 0.43875 0.23492 0.0
C3386 C 0.17293 0.4384 0.21835 0.0
C3387 C 0.18607 0.43607 0.20548 0.0
H3388 H 0.17 0.44066 0.24485 0.0
H3389 H 0.30597 0.42373 0.12295 0.0
H3390 H 0.76008 0.50903 0.89979 0.0
H3391 H 0.78624 0.53409 0.87548 0.0
H3392 H 0.83595 0.57614 0.9093 0.0
H3393 H 0.80883 0.55197 0.93341 0.0
H3394 H 0.82727 0.60088 0.88757 0.0
H3395 H 0.85017 0.5456 0.88261 0.0
H3396 H 0.84565 0.50785 0.8816 0.0
H3397 H 0.80728 0.50193 0.83653 0.0
H3398 H 0.81122 0.5395 0.83742 0.0
H3399 H 0.89785 0.67248 0.81335 0.0
H3400 H 0.8876 0.64489 0.83865 0.0
H3401 H 0.81995 0.60233 0.81908 0.0
H3402 H 0.82925 0.63015 0.79428 0.0
H3403 H 0.84629 0.57945 0.83468 0.0
H3404 H 0.81829 0.63281 0.84457 0.0
H3405 H 0.82453 0.67107 0.84614 0.0
H3406 H 0.87659 0.68076 0.88302 0.0
H3407 H 0.87088 0.64263 0.88147 0.0
C3408 C 0.77683 0.52343 0.90193 0.0
C3409 C 0.7826 0.52847 0.9184 0.0
C3410 C 0.79191 0.53763 0.88809 0.0
C3411 C 0.8133 0.55695 0.89051 0.0
C3412 C 0.81964 0.56132 0.90708 0.0
C3413 C 0.80431 0.54732 0.92089 0.0
C3414 C 0.82721 0.57394 0.87582 0.0
C3415 C 0.83199 0.59621 0.8762 0.0
C3416 C 0.83324 0.56797 0.86084 0.0
C3417 C 0.83085 0.54535 0.86017 0.0
C3418 C 0.84059 0.53618 0.87256 0.0
C3419 C 0.83814 0.51481 0.87201 0.0
C3420 C 0.82607 0.50245 0.85906 0.0
C3421 C 0.81656 0.5115 0.84659 0.0
C3422 C 0.81894 0.53285 0.84709 0.0
C3423 C 0.88072 0.65733 0.81443 0.0
C3424 C 0.86437 0.6537 0.80171 0.0
C3425 C 0.87505 0.64148 0.82881 0.0
C3426 C 0.8531 0.62158 0.83063 0.0
C3427 C 0.83712 0.61748 0.81777 0.0
C3428 C 0.84256 0.63345 0.80355 0.0
C3429 C 0.84568 0.60587 0.84654 0.0
C3430 C 0.84207 0.58398 0.8463 0.0
C3431 C 0.84109 0.6122 0.86176 0.0
C3432 C 0.8444 0.63503 0.86274 0.0
C3433 C 0.83123 0.64319 0.85289 0.0
C3434 C 0.83464 0.66482 0.8538 0.0
C3435 C 0.85101 0.67837 0.86463 0.0
C3436 C 0.86396 0.67027 0.87461 0.0
C3437 C 0.86065 0.64866 0.87372 0.0
H3438 H 0.85362 0.69511 0.86532 0.0
H3439 H 0.82423 0.48592 0.85863 0.0
H3440 H 0.48643 0.24996 0.9042 0.0
H3441 H 0.46961 0.23695 0.87738 0.0
H3442 H 0.4027 0.18908 0.90431 0.0
H3443 H 0.41965 0.20238 0.93109 0.0
H3444 H 0.41421 0.17247 0.87676 0.0
H3445 H 0.40811 0.23775 0.88839 0.0
H3446 H 0.42382 0.27652 0.89502 0.0
H3447 H 0.47109 0.30171 0.85036 0.0
H3448 H 0.45564 0.26305 0.84347 0.0
H3449 H 0.33809 0.19394 0.80956 0.0
H3450 H 0.3618 0.20335 0.83434 0.0
H3451 H 0.40731 0.17977 0.81466 0.0
H3452 H 0.38337 0.17008 0.78977 0.0
H3453 H 0.40859 0.2319 0.83792 0.0
H3454 H 0.42316 0.1548 0.8499 0.0
H3455 H 0.40451 0.11548 0.84397 0.0
H3456 H 0.33596 0.11282 0.84282 0.0
H3457 H 0.35415 0.152 0.84896 0.0
C3458 C 0.46835 0.23629 0.90432 0.0
C3459 C 0.45417 0.22724 0.91952 0.0
C3460 C 0.45873 0.22892 0.88907 0.0
C3461 C 0.43478 0.21228 0.88882 0.0
C3462 C 0.4212 0.20195 0.90421 0.0
C3463 C 0.43083 0.20946 0.91946 0.0
C3464 C 0.42323 0.20739 0.8725 0.0
C3465 C 0.41316 0.18549 0.86819 0.0
C3466 C 0.42159 0.2243 0.86139 0.0
C3467 C 0.43092 0.24752 0.86552 0.0
C3468 C 0.42197 0.25155 0.88006 0.0
C3469 C 0.43079 0.2735 0.88384 0.0
C3470 C 0.44855 0.29155 0.87318 0.0
C3471 C 0.4574 0.2877 0.85864 0.0
C3472 C 0.44857 0.26579 0.85476 0.0
C3473 C 0.35315 0.19076 0.81049 0.0
C3474 C 0.35874 0.1811 0.79777 0.0
C3475 C 0.36678 0.19627 0.82462 0.0
C3476 C 0.38621 0.19209 0.82646 0.0
C3477 C 0.39225 0.18295 0.81359 0.0
C3478 C 0.37868 0.17758 0.79932 0.0
C3479 C 0.39963 0.19698 0.84207 0.0
C3480 C 0.41001 0.21893 0.8463 0.0
C3481 C 0.4013 0.18004 0.85315 0.0
C3482 C 0.39008 0.1564 0.84969 0.0
C3483 C 0.4041 0.14579 0.84843 0.0
C3484 C 0.39361 0.12353 0.84503 0.0
C3485 C 0.36908 0.11169 0.84296 0.0
C3486 C 0.35497 0.12204 0.84436 0.0
C3487 C 0.36537 0.14428 0.84777 0.0
H3488 H 0.36099 0.09447 0.84032 0.0
H3489 H 0.45539 0.30853 0.87616 0.0
H3490 H 0.77802 0.19881 0.9384 0.0
H3491 H 0.7771 0.18079 0.91331 0.0
H3492 H 0.78068 0.23793 0.8813 0.0
H3493 H 0.78079 0.25548 0.90643 0.0
H3494 H 0.75376 0.19971 0.86761 0.0
H3495 H 0.83103 0.23526 0.89059 0.0
H3496 H 0.85946 0.24231 0.91303 0.0
H3497 H 0.84401 0.17333 0.91834 0.0
H3498 H 0.81516 0.16578 0.89611 0.0
H3499 H 0.81672 0.19725 0.79338 0.0
H3500 H 0.80292 0.20701 0.81816 0.0
H3501 H 0.79487 0.14654 0.84771 0.0
H3502 H 0.80779 0.13627 0.823 0.0
H3503 H 0.82199 0.18455 0.86286 0.0
H3504 H 0.7471 0.15024 0.8375 0.0
H3505 H 0.71943 0.14413 0.81469 0.0
H3506 H 0.73097 0.21163 0.81318 0.0
H3507 H 0.75924 0.21835 0.83573 0.0
C3508 C 0.77785 0.20712 0.92602 0.0
C3509 C 0.77973 0.2286 0.92427 0.0
C3510 C 0.77754 0.19695 0.91168 0.0
C3511 C 0.77936 0.20821 0.89534 0.0
C3512 C 0.77939 0.22892 0.8937 0.0
C3513 C 0.77958 0.239 0.90803 0.0
C3514 C 0.78374 0.1997 0.88005 0.0
C3515 C 0.76876 0.19653 0.86652 0.0
C3516 C 0.8032 0.19533 0.87861 0.0
C3517 C 0.82077 0.1999 0.89181 0.0
C3518 C 0.83359 0.22156 0.89662 0.0
C3519 C 0.84978 0.22565 0.90929 0.0
C3520 C 0.8535 0.20826 0.91713 0.0
C3521 C 0.84108 0.18677 0.91228 0.0
C3522 C 0.82481 0.18257 0.89964 0.0
C3523 C 0.81151 0.18576 0.80503 0.0
C3524 C 0.81373 0.16609 0.80617 0.0
C3525 C 0.80371 0.19142 0.81923 0.0
C3526 C 0.79799 0.17756 0.83485 0.0
C3527 C 0.79939 0.1576 0.83586 0.0
C3528 C 0.80694 0.15183 0.82169 0.0
C3529 C 0.79197 0.18445 0.85041 0.0
C3530 C 0.80682 0.18749 0.86398 0.0
C3531 C 0.77253 0.18883 0.85176 0.0
C3532 C 0.75552 0.18488 0.8382 0.0
C3533 C 0.74396 0.16388 0.83219 0.0
C3534 C 0.72812 0.16029 0.81932 0.0
C3535 C 0.72344 0.17748 0.81247 0.0
C3536 C 0.73462 0.19832 0.81849 0.0
C3537 C 0.75058 0.20204 0.83131 0.0
H3538 H 0.71111 0.17464 0.80254 0.0
H3539 H 0.86605 0.21146 0.92695 0.0
H3540 H 0.26759 0.13518 0.43948 0.0
H3541 H 0.28615 0.15126 0.46505 0.0
H3542 H 0.21628 0.12733 0.48913 0.0
H3543 H 0.19786 0.11115 0.46345 0.0
H3544 H 0.25184 0.17117 0.49665 0.0
H3545 H 0.24032 0.09611 0.49747 0.0
H3546 H 0.24333 0.06582 0.48549 0.0
H3547 H 0.31983 0.10509 0.48168 0.0
H3548 H 0.31726 0.13574 0.49348 0.0
H3549 H 0.296 0.18185 0.57953 0.0
H3550 H 0.27211 0.16679 0.55553 0.0
H3551 H 0.3346 0.17454 0.52852 0.0
H3552 H 0.35813 0.18829 0.55269 0.0
H3553 H 0.29894 0.13694 0.52357 0.0
H3554 H 0.31129 0.21258 0.52133 0.0
H3555 H 0.30922 0.24408 0.53202 0.0
H3556 H 0.23273 0.2055 0.53739 0.0
H3557 H 0.23433 0.1736 0.52698 0.0
C3558 C 0.25637 0.13402 0.4501 0.0
C3559 C 0.23146 0.12229 0.4496 0.0
C3560 C 0.26687 0.14303 0.46469 0.0
C3561 C 0.25257 0.1403 0.47905 0.0
C3562 C 0.22762 0.12968 0.47819 0.0
C3563 C 0.21713 0.12055 0.46358 0.0
C3564 C 0.26366 0.14669 0.4953 0.0
C3565 C 0.26188 0.16351 0.50271 0.0
C3566 C 0.27697 0.13686 0.50306 0.0
C3567 C 0.27858 0.11829 0.49623 0.0
C3568 C 0.25778 0.09834 0.49399 0.0
C3569 C 0.25941 0.0811 0.48724 0.0
C3570 C 0.28175 0.08356 0.48278 0.0
C3571 C 0.30253 0.10322 0.48513 0.0
C3572 C 0.301 0.12052 0.49187 0.0
C3573 C 0.30457 0.18001 0.56859 0.0
C3574 C 0.32911 0.18654 0.56804 0.0
C3575 C 0.29093 0.17166 0.55476 0.0
C3576 C 0.3016 0.16991 0.54001 0.0
C3577 C 0.32591 0.17583 0.53966 0.0
C3578 C 0.33945 0.18394 0.55348 0.0
C3579 C 0.28773 0.16194 0.52487 0.0
C3580 C 0.28885 0.14463 0.51766 0.0
C3581 C 0.27398 0.17148 0.51726 0.0
C3582 C 0.27296 0.1906 0.52358 0.0
C3583 C 0.29404 0.21073 0.52494 0.0
C3584 C 0.29294 0.22867 0.53093 0.0
C3585 C 0.27085 0.22675 0.53544 0.0
C3586 C 0.24981 0.20692 0.53394 0.0
C3587 C 0.2508 0.1889 0.52799 0.0
H3588 H 0.27003 0.24066 0.54006 0.0
H3589 H 0.28298 0.07021 0.47753 0.0
H3590 H 0.87495 0.14111 0.44446 0.0
H3591 H 0.87145 0.15439 0.47081 0.0
H3592 H 0.93406 0.15089 0.48759 0.0
H3593 H 0.93654 0.13618 0.46131 0.0
H3594 H 0.90296 0.13391 0.51259 0.0
H3595 H 0.9326 0.20271 0.47675 0.0
H3596 H 0.93643 0.22901 0.45151 0.0
H3597 H 0.86513 0.21709 0.46217 0.0
H3598 H 0.8607 0.19044 0.48733 0.0
H3599 H 0.88929 0.1832 0.58552 0.0
H3600 H 0.90561 0.17686 0.56008 0.0
H3601 H 0.84127 0.16436 0.53507 0.0
H3602 H 0.82483 0.17029 0.56031 0.0
H3603 H 0.88159 0.19442 0.51526 0.0
H3604 H 0.85324 0.12154 0.55046 0.0
H3605 H 0.85352 0.09889 0.57687 0.0
H3606 H 0.92882 0.12362 0.5681 0.0
H3607 H 0.92903 0.1466 0.54174 0.0
C3608 C 0.88821 0.1436 0.45366 0.0
C3609 C 0.90599 0.13764 0.45087 0.0
C3610 C 0.88632 0.15133 0.46875 0.0
C3611 C 0.90263 0.15399 0.48133 0.0
C3612 C 0.9212 0.14903 0.47819 0.0
C3613 C 0.92286 0.14094 0.46308 0.0
C3614 C 0.8991 0.16056 0.49799 0.0
C3615 C 0.89877 0.14746 0.51312 0.0
C3616 C 0.89369 0.17829 0.49898 0.0
C3617 C 0.89628 0.19446 0.48391 0.0
C3618 C 0.91768 0.20559 0.47367 0.0
C3619 C 0.91996 0.22057 0.45937 0.0
C3620 C 0.90103 0.2247 0.45523 0.0
C3621 C 0.87978 0.21388 0.4654 0.0
C3622 C 0.87739 0.19885 0.4797 0.0
C3623 C 0.87848 0.17876 0.57469 0.0
C3624 C 0.85581 0.17753 0.57497 0.0
C3625 C 0.88789 0.17524 0.5601 0.0
C3626 C 0.87475 0.17025 0.54554 0.0
C3627 C 0.85192 0.16845 0.54601 0.0
C3628 C 0.84254 0.1719 0.5605 0.0
C3629 C 0.88455 0.16724 0.5296 0.0
C3630 C 0.8861 0.18108 0.51465 0.0
C3631 C 0.89165 0.15062 0.52886 0.0
C3632 C 0.89119 0.13595 0.54424 0.0
C3633 C 0.86986 0.12216 0.55419 0.0
C3634 C 0.86993 0.10928 0.56915 0.0
C3635 C 0.8912 0.10993 0.5742 0.0
C3636 C 0.91237 0.1232 0.56419 0.0
C3637 C 0.9124 0.13613 0.54924 0.0
H3638 H 0.89131 0.1002 0.58589 0.0
H3639 H 0.90283 0.2363 0.44416 0.0
H3640 H 0.90183 0.80137 0.44674 0.0
H3641 H 0.8924 0.7745 0.47243 0.0
H3642 H 0.94405 0.82742 0.49857 0.0
H3643 H 0.9537 0.85426 0.47253 0.0
H3644 H 0.94159 0.78474 0.50848 0.0
H3645 H 0.88885 0.8168 0.50425 0.0
H3646 H 0.86143 0.8286 0.49026 0.0
H3647 H 0.81481 0.76069 0.48138 0.0
H3648 H 0.8419 0.74847 0.49543 0.0
H3649 H 0.88526 0.72236 0.58895 0.0
H3650 H 0.90452 0.75136 0.56486 0.0
H3651 H 0.84867 0.71117 0.53367 0.0
H3652 H 0.82808 0.68328 0.55809 0.0
H3653 H 0.85622 0.75121 0.52782 0.0
H3654 H 0.91003 0.71922 0.53289 0.0
H3655 H 0.93752 0.70839 0.54792 0.0
H3656 H 0.98276 0.77691 0.55599 0.0
H3657 H 0.95542 0.78813 0.54114 0.0
C3658 C 0.91165 0.80696 0.45785 0.0
C3659 C 0.92848 0.82964 0.45784 0.0
C3660 C 0.9062 0.79175 0.47251 0.0
C3661 C 0.91725 0.79909 0.48746 0.0
C3662 C 0.93533 0.82147 0.48715 0.0
C3663 C 0.94087 0.83672 0.47237 0.0
C3664 C 0.908 0.78384 0.5036 0.0
C3665 C 0.92301 0.77754 0.51287 0.0
C3666 C 0.88376 0.77449 0.50928 0.0
C3667 C 0.86747 0.78177 0.50077 0.0
C3668 C 0.8728 0.80442 0.49925 0.0
C3669 C 0.85728 0.81116 0.49137 0.0
C3670 C 0.83645 0.79543 0.48487 0.0
C3671 C 0.83098 0.77287 0.48639 0.0
C3672 C 0.84635 0.76601 0.49438 0.0
C3673 C 0.87683 0.71984 0.57705 0.0
C3674 C 0.85491 0.70048 0.57563 0.0
C3675 C 0.88818 0.73628 0.56314 0.0
C3676 C 0.8783 0.73339 0.5473 0.0
C3677 C 0.85673 0.71383 0.54573 0.0
C3678 C 0.84507 0.69769 0.55973 0.0
C3679 C 0.88946 0.75111 0.53249 0.0
C3680 C 0.87481 0.7582 0.52352 0.0
C3681 C 0.91404 0.76119 0.52724 0.0
C3682 C 0.93058 0.75447 0.53602 0.0
C3683 C 0.92578 0.73196 0.53794 0.0
C3684 C 0.94135 0.72576 0.54641 0.0
C3685 C 0.96187 0.74196 0.5529 0.0
C3686 C 0.96688 0.7644 0.55093 0.0
C3687 C 0.95137 0.77069 0.54247 0.0
H3688 H 0.97389 0.73712 0.55944 0.0
H3689 H 0.82452 0.80071 0.4787 0.0
loop_
_geom_bond_atom_site_label_1
_geom_bond_atom_site_label_2
_geom_bond_distance
_geom_bond_site_symmetry_2
_ccdc_geom_bond_type
C0 N1 1.317 . S
C0 N2 1.348 . S
C0 C3 1.485 . S
N1 C0 1.317 . S
N1 N5 1.370 . S
N2 C0 1.348 . S
N2 C4 1.346 . S
C3 C0 1.485 . S
C3 H7 0.960 . S
C3 H8 0.961 . S
C3 H9 0.960 . S
C4 N2 1.346 . S
C4 N5 1.307 . S
C4 C6 1.486 . S
N5 N1 1.370 . S
N5 C4 1.307 . S
C6 C4 1.486 . S
C6 H10 0.960 . S
C6 H11 0.960 . S
C6 H12 0.959 . S
H7 C3 0.960 . S
H8 C3 0.961 . S
H9 C3 0.960 . S
H10 C6 0.960 . S
H11 C6 0.960 . S
H12 C6 0.959 . S
C13 N14 1.317 . S
C13 N15 1.348 . S
C13 C16 1.485 . S
N14 C13 1.317 . S
N14 N18 1.370 . S
N15 C13 1.348 . S
N15 C17 1.346 . S
C16 C13 1.485 . S
C16 H20 0.960 . S
C16 H21 0.961 . S
C16 H22 0.960 . S
C17 N15 1.346 . S
C17 N18 1.307 . S
C17 C19 1.486 . S
N18 N14 1.370 . S
N18 C17 1.307 . S
C19 C17 1.486 . S
C19 H23 0.960 . S
C19 H24 0.960 . S
C19 H25 0.959 . S
H20 C16 0.960 . S
H21 C16 0.961 . S
H22 C16 0.960 . S
H23 C19 0.960 . S
H24 C19 0.960 . S
H25 C19 0.959 . S
C26 N27 1.317 . S
C26 N28 1.348 . S
C26 C29 1.485 . S
N27 C26 1.317 . S
N27 N31 1.370 . S
N28 C26 1.348 . S
N28 C30 1.346 . S
C29 C26 1.485 . S
C29 H33 0.960 . S
C29 H34 0.961 . S
C29 H35 0.960 . S
C30 N28 1.346 . S
C30 N31 1.307 . S
C30 C32 1.486 . S
N31 N27 1.370 . S
N31 C30 1.307 . S
C32 C30 1.486 . S
C32 H36 0.960 . S
C32 H37 0.960 . S
C32 H38 0.959 . S
H33 C29 0.960 . S
H34 C29 0.961 . S
H35 C29 0.960 . S
H36 C32 0.960 . S
H37 C32 0.960 . S
H38 C32 0.959 . S
C39 N40 1.317 . S
C39 N41 1.348 . S
C39 C42 1.485 . S
N40 C39 1.317 . S
N40 N44 1.370 . S
N41 C39 1.348 . S
N41 C43 1.346 . S
C42 C39 1.485 . S
C42 H46 0.960 . S
C42 H47 0.961 . S
C42 H48 0.960 . S
C43 N41 1.346 . S
C43 N44 1.307 . S
C43 C45 1.486 . S
N44 N40 1.370 . S
N44 C43 1.307 . S
C45 C43 1.486 . S
C45 H49 0.960 . S
C45 H50 0.960 . S
C45 H51 0.959 . S
H46 C42 0.960 . S
H47 C42 0.961 . S
H48 C42 0.960 . S
H49 C45 0.960 . S
H50 C45 0.960 . S
H51 C45 0.959 . S
C52 N53 1.317 . S
C52 N54 1.348 . S
C52 C55 1.485 . S
N53 C52 1.317 . S
N53 N57 1.370 . S
N54 C52 1.348 . S
N54 C56 1.346 . S
C55 C52 1.485 . S
C55 H59 0.960 . S
C55 H60 0.961 . S
C55 H61 0.960 . S
C56 N54 1.346 . S
C56 N57 1.307 . S
C56 C58 1.486 . S
N57 N53 1.370 . S
N57 C56 1.307 . S
C58 C56 1.486 . S
C58 H62 0.960 . S
C58 H63 0.960 . S
C58 H64 0.959 . S
H59 C55 0.960 . S
H60 C55 0.961 . S
H61 C55 0.960 . S
H62 C58 0.960 . S
H63 C58 0.960 . S
H64 C58 0.959 . S
C65 N66 1.317 . S
C65 N67 1.348 . S
C65 C68 1.485 . S
N66 C65 1.317 . S
N66 N70 1.370 . S
N67 C65 1.348 . S
N67 C69 1.346 . S
C68 C65 1.485 . S
C68 H72 0.960 . S
C68 H73 0.961 . S
C68 H74 0.960 . S
C69 N67 1.346 . S
C69 N70 1.307 . S
C69 C71 1.486 . S
N70 N66 1.370 . S
N70 C69 1.307 . S
C71 C69 1.486 . S
C71 H75 0.960 . S
C71 H76 0.960 . S
C71 H77 0.959 . S
H72 C68 0.960 . S
H73 C68 0.961 . S
H74 C68 0.960 . S
H75 C71 0.960 . S
H76 C71 0.960 . S
H77 C71 0.959 . S
C78 N79 1.317 . S
C78 N80 1.348 . S
C78 C81 1.485 . S
N79 C78 1.317 . S
N79 N83 1.370 . S
N80 C78 1.348 . S
N80 C82 1.346 . S
C81 C78 1.485 . S
C81 H85 0.960 . S
C81 H86 0.961 . S
C81 H87 0.960 . S
C82 N80 1.346 . S
C82 N83 1.307 . S
C82 C84 1.486 . S
N83 N79 1.370 . S
N83 C82 1.307 . S
C84 C82 1.486 . S
C84 H88 0.960 . S
C84 H89 0.960 . S
C84 H90 0.959 . S
H85 C81 0.960 . S
H86 C81 0.961 . S
H87 C81 0.960 . S
H88 C84 0.960 . S
H89 C84 0.960 . S
H90 C84 0.959 . S
C91 N92 1.317 . S
C91 N93 1.348 . S
C91 C94 1.485 . S
N92 C91 1.317 . S
N92 N96 1.370 . S
N93 C91 1.348 . S
N93 C95 1.346 . S
C94 C91 1.485 . S
C94 H98 0.960 . S
C94 H99 0.961 . S
C94 H100 0.960 . S
C95 N93 1.346 . S
C95 N96 1.307 . S
C95 C97 1.486 . S
N96 N92 1.370 . S
N96 C95 1.307 . S
C97 C95 1.486 . S
C97 H101 0.960 . S
C97 H102 0.960 . S
C97 H103 0.959 . S
H98 C94 0.960 . S
H99 C94 0.961 . S
H100 C94 0.960 . S
H101 C97 0.960 . S
H102 C97 0.960 . S
H103 C97 0.959 . S
C104 N105 1.317 . S
C104 N106 1.348 . S
C104 C107 1.485 . S
N105 C104 1.317 . S
N105 N109 1.370 . S
N106 C104 1.348 . S
N106 C108 1.346 . S
C107 C104 1.485 . S
C107 H111 0.960 . S
C107 H112 0.961 . S
C107 H113 0.960 . S
C108 N106 1.346 . S
C108 N109 1.307 . S
C108 C110 1.486 . S
N109 N105 1.370 . S
N109 C108 1.307 . S
C110 C108 1.486 . S
C110 H114 0.960 . S
C110 H115 0.960 . S
C110 H116 0.959 . S
H111 C107 0.960 . S
H112 C107 0.961 . S
H113 C107 0.960 . S
H114 C110 0.960 . S
H115 C110 0.960 . S
H116 C110 0.959 . S
C117 N118 1.317 . S
C117 N119 1.348 . S
C117 C120 1.485 . S
N118 C117 1.317 . S
N118 N122 1.370 . S
N119 C117 1.348 . S
N119 C121 1.346 . S
C120 C117 1.485 . S
C120 H124 0.960 . S
C120 H125 0.961 . S
C120 H126 0.960 . S
C121 N119 1.346 . S
C121 N122 1.307 . S
C121 C123 1.486 . S
N122 N118 1.370 . S
N122 C121 1.307 . S
C123 C121 1.486 . S
C123 H127 0.960 . S
C123 H128 0.960 . S
C123 H129 0.959 . S
H124 C120 0.960 . S
H125 C120 0.961 . S
H126 C120 0.960 . S
H127 C123 0.960 . S
H128 C123 0.960 . S
H129 C123 0.959 . S
C130 N131 1.317 . S
C130 N132 1.348 . S
C130 C133 1.485 . S
N131 C130 1.317 . S
N131 N135 1.370 . S
N132 C130 1.348 . S
N132 C134 1.346 . S
C133 C130 1.485 . S
C133 H137 0.960 . S
C133 H138 0.961 . S
C133 H139 0.960 . S
C134 N132 1.346 . S
C134 N135 1.307 . S
C134 C136 1.486 . S
N135 N131 1.370 . S
N135 C134 1.307 . S
C136 C134 1.486 . S
C136 H140 0.960 . S
C136 H141 0.960 . S
C136 H142 0.959 . S
H137 C133 0.960 . S
H138 C133 0.961 . S
H139 C133 0.960 . S
H140 C136 0.960 . S
H141 C136 0.960 . S
H142 C136 0.959 . S
C143 N144 1.317 . S
C143 N145 1.348 . S
C143 C146 1.485 . S
N144 C143 1.317 . S
N144 N148 1.370 . S
N145 C143 1.348 . S
N145 C147 1.346 . S
C146 C143 1.485 . S
C146 H150 0.960 . S
C146 H151 0.961 . S
C146 H152 0.960 . S
C147 N145 1.346 . S
C147 N148 1.307 . S
C147 C149 1.486 . S
N148 N144 1.370 . S
N148 C147 1.307 . S
C149 C147 1.486 . S
C149 H153 0.960 . S
C149 H154 0.960 . S
C149 H155 0.959 . S
H150 C146 0.960 . S
H151 C146 0.961 . S
H152 C146 0.960 . S
H153 C149 0.960 . S
H154 C149 0.960 . S
H155 C149 0.959 . S
C156 N157 1.317 . S
C156 N158 1.348 . S
C156 C159 1.485 . S
N157 C156 1.317 . S
N157 N161 1.370 . S
N158 C156 1.348 . S
N158 C160 1.346 . S
C159 C156 1.485 . S
C159 H163 0.960 . S
C159 H164 0.961 . S
C159 H165 0.960 . S
C160 N158 1.346 . S
C160 N161 1.307 . S
C160 C162 1.486 . S
N161 N157 1.370 . S
N161 C160 1.307 . S
C162 C160 1.486 . S
C162 H166 0.960 . S
C162 H167 0.960 . S
C162 H168 0.959 . S
H163 C159 0.960 . S
H164 C159 0.961 . S
H165 C159 0.960 . S
H166 C162 0.960 . S
H167 C162 0.960 . S
H168 C162 0.959 . S
C169 N170 1.317 . S
C169 N171 1.348 . S
C169 C172 1.485 . S
N170 C169 1.317 . S
N170 N174 1.370 . S
N171 C169 1.348 . S
N171 C173 1.346 . S
C172 C169 1.485 . S
C172 H176 0.960 . S
C172 H177 0.961 . S
C172 H178 0.960 . S
C173 N171 1.346 . S
C173 N174 1.307 . S
C173 C175 1.486 . S
N174 N170 1.370 . S
N174 C173 1.307 . S
C175 C173 1.486 . S
C175 H179 0.960 . S
C175 H180 0.960 . S
C175 H181 0.959 . S
H176 C172 0.960 . S
H177 C172 0.961 . S
H178 C172 0.960 . S
H179 C175 0.960 . S
H180 C175 0.960 . S
H181 C175 0.959 . S
C182 N183 1.317 . S
C182 N184 1.348 . S
C182 C185 1.485 . S
N183 C182 1.317 . S
N183 N187 1.370 . S
N184 C182 1.348 . S
N184 C186 1.346 . S
C185 C182 1.485 . S
C185 H189 0.960 . S
C185 H190 0.961 . S
C185 H191 0.960 . S
C186 N184 1.346 . S
C186 N187 1.307 . S
C186 C188 1.486 . S
N187 N183 1.370 . S
N187 C186 1.307 . S
C188 C186 1.486 . S
C188 H192 0.960 . S
C188 H193 0.960 . S
C188 H194 0.959 . S
H189 C185 0.960 . S
H190 C185 0.961 . S
H191 C185 0.960 . S
H192 C188 0.960 . S
H193 C188 0.960 . S
H194 C188 0.959 . S
C195 N196 1.317 . S
C195 N197 1.348 . S
C195 C198 1.485 . S
N196 C195 1.317 . S
N196 N200 1.370 . S
N197 C195 1.348 . S
N197 C199 1.346 . S
C198 C195 1.485 . S
C198 H202 0.960 . S
C198 H203 0.961 . S
C198 H204 0.960 . S
C199 N197 1.346 . S
C199 N200 1.307 . S
C199 C201 1.486 . S
N200 N196 1.370 . S
N200 C199 1.307 . S
C201 C199 1.486 . S
C201 H205 0.960 . S
C201 H206 0.960 . S
C201 H207 0.959 . S
H202 C198 0.960 . S
H203 C198 0.961 . S
H204 C198 0.960 . S
H205 C201 0.960 . S
H206 C201 0.960 . S
H207 C201 0.959 . S
C208 N209 1.317 . S
C208 N210 1.348 . S
C208 C211 1.485 . S
N209 C208 1.317 . S
N209 N213 1.370 . S
N210 C208 1.348 . S
N210 C212 1.346 . S
C211 C208 1.485 . S
C211 H215 0.960 . S
C211 H216 0.961 . S
C211 H217 0.960 . S
C212 N210 1.346 . S
C212 N213 1.307 . S
C212 C214 1.486 . S
N213 N209 1.370 . S
N213 C212 1.307 . S
C214 C212 1.486 . S
C214 H218 0.960 . S
C214 H219 0.960 . S
C214 H220 0.959 . S
H215 C211 0.960 . S
H216 C211 0.961 . S
H217 C211 0.960 . S
H218 C214 0.960 . S
H219 C214 0.960 . S
H220 C214 0.959 . S
C221 N222 1.317 . S
C221 N223 1.348 . S
C221 C224 1.485 . S
N222 C221 1.317 . S
N222 N226 1.370 . S
N223 C221 1.348 . S
N223 C225 1.346 . S
C224 C221 1.485 . S
C224 H228 0.960 . S
C224 H229 0.961 . S
C224 H230 0.960 . S
C225 N223 1.346 . S
C225 N226 1.307 . S
C225 C227 1.486 . S
N226 N222 1.370 . S
N226 C225 1.307 . S
C227 C225 1.486 . S
C227 H231 0.960 . S
C227 H232 0.960 . S
C227 H233 0.959 . S
H228 C224 0.960 . S
H229 C224 0.961 . S
H230 C224 0.960 . S
H231 C227 0.960 . S
H232 C227 0.960 . S
H233 C227 0.959 . S
Eu234 N265 2.657 . S
Eu234 N272 2.609 . S
Eu234 O278 2.558 . S
Eu234 O279 2.612 1_566 S
Eu234 O281 2.339 1_565 S
Eu234 O282 2.563 1_565 S
Eu234 O283 2.419 1_565 S
Eu234 O285 2.380 1_556 S
Eu234 O286 2.432 1_556 S
Eu234 C298 2.848 1_565 S
C235 C238 1.429 . S
C235 C239 1.411 . S
C235 N242 1.377 . S
C236 C238 1.420 . S
C236 C240 1.423 . S
C236 C248 1.392 . S
C237 C239 1.420 . S
C237 C240 1.351 . S
C237 H260 0.931 . S
C238 C235 1.429 . S
C238 C236 1.420 . S
C238 N246 1.362 . S
C239 C235 1.411 . S
C239 C237 1.420 . S
C239 C244 1.395 . S
C240 C236 1.423 . S
C240 C237 1.351 . S
C240 H252 0.930 . S
C241 C243 1.400 . S
C241 C244 1.386 . S
C241 H253 0.930 . S
N242 C235 1.377 . S
N242 C243 1.321 . S
N242 Eu245 2.609 . S
C243 C241 1.400 . S
C243 N242 1.321 . S
C243 H250 0.930 . S
C244 C239 1.395 . S
C244 C241 1.386 . S
C244 H263 0.930 . S
Eu245 N242 2.609 . S
Eu245 N246 2.657 . S
Eu245 O279 2.380 . S
Eu245 O280 2.432 . S
Eu245 O284 2.558 . S
Eu245 O285 2.612 1_545 S
Eu245 O287 2.339 1_545 S
Eu245 O288 2.563 1_545 S
Eu245 O289 2.419 1_545 S
Eu245 C309 2.848 1_545 S
N246 C238 1.362 . S
N246 Eu245 2.657 . S
N246 C247 1.334 . S
C247 N246 1.334 . S
C247 C249 1.413 . S
C247 H254 0.929 . S
C248 C236 1.392 . S
C248 C249 1.367 . S
C248 H256 0.930 . S
C249 C247 1.413 . S
C249 C248 1.367 . S
C249 H251 0.930 . S
H250 C243 0.930 . S
H251 C249 0.930 . S
H252 C240 0.930 . S
H253 C241 0.930 . S
H254 C247 0.929 . S
H255 C269 0.930 . S
H256 C248 0.930 . S
H257 C275 0.930 . S
H258 C266 0.929 1_545 S
H259 C273 0.930 . S
H260 C237 0.931 . S
H261 C267 0.930 . S
H262 C300 0.930 . S
H263 C244 0.930 . S
H264 C299 0.931 . S
N265 Eu234 2.657 . S
N265 C266 1.334 . S
N265 C270 1.362 . S
C266 H258 0.929 1_565 S
C266 N265 1.334 . S
C266 C269 1.413 . S
C267 H261 0.930 . S
C267 C268 1.392 . S
C267 C269 1.367 . S
C268 C267 1.392 . S
C268 C270 1.420 . S
C268 C300 1.423 . S
C269 H255 0.930 . S
C269 C266 1.413 . S
C269 C267 1.367 . S
C270 N265 1.362 . S
C270 C268 1.420 . S
C270 C274 1.429 . S
H271 C276 0.930 . S
N272 Eu234 2.609 . S
N272 C274 1.377 . S
N272 C275 1.321 . S
C273 H259 0.930 . S
C273 C275 1.400 . S
C273 C276 1.386 . S
C274 C270 1.429 . S
C274 N272 1.377 . S
C274 C277 1.411 . S
C275 H257 0.930 . S
C275 N272 1.321 . S
C275 C273 1.400 . S
C276 H271 0.930 . S
C276 C273 1.386 . S
C276 C277 1.395 . S
C277 C274 1.411 . S
C277 C276 1.395 . S
C277 C299 1.420 . S
O278 Eu234 2.558 . S
O278 C298 1.257 1_565 S
O279 Eu234 2.612 1_544 S
O279 Eu245 2.380 . S
O279 C290 1.276 . S
O280 Eu245 2.432 . S
O280 C297 1.264 . S
O281 Eu234 2.339 1_545 S
O281 C297 1.254 1_556 S
O282 Eu234 2.563 1_545 S
O282 C290 1.235 1_556 S
O283 Eu234 2.419 1_545 S
O283 C298 1.249 . S
O284 Eu245 2.558 . S
O284 C309 1.257 1_545 S
O285 Eu234 2.380 1_554 S
O285 Eu245 2.612 1_565 S
O285 C301 1.276 . S
O286 Eu234 2.432 1_554 S
O286 C308 1.264 . S
O287 Eu245 2.339 1_565 S
O287 C308 1.254 . S
O288 Eu245 2.563 1_565 S
O288 C301 1.235 . S
O289 Eu245 2.419 1_565 S
O289 C309 1.249 . S
C290 O279 1.276 . S
C290 O282 1.235 1_554 S
C291 C293 1.393 . S
C291 C295 1.395 . S
C291 C298 1.492 . S
C292 C293 1.392 . S
C292 C294 1.386 . S
C293 C291 1.393 . S
C293 C292 1.392 . S
C293 H310 0.930 . S
C294 C292 1.386 . S
C294 C296 1.395 . S
C294 H311 0.930 . S
C295 C291 1.395 . S
C295 C296 1.379 . S
C295 H312 0.930 1_545 S
C296 C294 1.395 . S
C296 C295 1.379 . S
C296 H313 0.930 . S
C297 O280 1.264 . S
C297 O281 1.254 1_554 S
C298 Eu234 2.848 1_545 S
C298 O278 1.257 1_545 S
C298 O283 1.249 . S
C298 C291 1.492 . S
C299 H264 0.931 . S
C299 C277 1.420 . S
C299 C300 1.351 . S
C300 H262 0.930 . S
C300 C268 1.423 . S
C300 C299 1.351 . S
C301 O285 1.276 . S
C301 O288 1.235 . S
C302 C303 1.393 . S
C302 C306 1.395 . S
C302 C309 1.492 . S
C303 C302 1.393 . S
C303 C304 1.392 . S
C303 H314 0.930 . S
C304 C303 1.392 . S
C304 C305 1.386 . S
C305 C304 1.386 . S
C305 C307 1.395 . S
C305 H315 0.930 . S
C306 C302 1.395 . S
C306 C307 1.379 . S
C306 H316 0.930 1_565 S
C307 C305 1.395 . S
C307 C306 1.379 . S
C307 H317 0.930 . S
C308 O286 1.264 . S
C308 O287 1.254 . S
C309 Eu245 2.848 1_565 S
C309 O284 1.257 1_565 S
C309 O289 1.249 . S
C309 C302 1.492 . S
H310 C293 0.930 . S
H311 C294 0.930 . S
H312 C295 0.930 1_565 S
H313 C296 0.930 . S
H314 C303 0.930 . S
H315 C305 0.930 . S
H316 C306 0.930 1_545 S
H317 C307 0.930 . S
Eu318 N349 2.657 . S
Eu318 N356 2.609 . S
Eu318 O362 2.558 . S
Eu318 O363 2.612 1_456 S
Eu318 O365 2.339 1_455 S
Eu318 O366 2.563 1_455 S
Eu318 O367 2.419 . S
Eu318 O369 2.380 1_556 S
Eu318 O370 2.432 . S
Eu318 C382 2.848 . S
C319 C322 1.429 . S
C319 C323 1.411 . S
C319 N326 1.377 . S
C320 C322 1.420 . S
C320 C324 1.423 . S
C320 C332 1.392 . S
C321 C323 1.420 . S
C321 C324 1.351 . S
C321 H344 0.931 . S
C322 C319 1.429 . S
C322 C320 1.420 . S
C322 N330 1.362 . S
C323 C319 1.411 . S
C323 C321 1.420 . S
C323 C328 1.395 . S
C324 C320 1.423 . S
C324 C321 1.351 . S
C324 H336 0.930 . S
C325 C327 1.400 . S
C325 C328 1.386 . S
C325 H337 0.930 . S
N326 C319 1.377 . S
N326 C327 1.321 . S
N326 Eu329 2.609 . S
C327 C325 1.400 . S
C327 N326 1.321 . S
C327 H334 0.930 . S
C328 C323 1.395 . S
C328 C325 1.386 . S
C328 H347 0.930 . S
Eu329 N326 2.609 . S
Eu329 N330 2.657 . S
Eu329 O363 2.380 . S
Eu329 O364 2.432 . S
Eu329 O368 2.558 . S
Eu329 O369 2.612 1_655 S
Eu329 O371 2.339 1_655 S
Eu329 O372 2.563 1_655 S
Eu329 O373 2.419 1_655 S
Eu329 C393 2.848 . S
N330 C322 1.362 . S
N330 Eu329 2.657 . S
N330 C331 1.334 . S
C331 N330 1.334 . S
C331 C333 1.413 . S
C331 H338 0.929 . S
C332 C320 1.392 . S
C332 C333 1.367 . S
C332 H340 0.930 . S
C333 C331 1.413 . S
C333 C332 1.367 . S
C333 H335 0.930 . S
H334 C327 0.930 . S
H335 C333 0.930 . S
H336 C324 0.930 . S
H337 C325 0.930 . S
H338 C331 0.929 . S
H339 C353 0.930 . S
H340 C332 0.930 . S
H341 C359 0.930 . S
H342 C350 0.929 . S
H343 C357 0.930 . S
H344 C321 0.931 . S
H345 C351 0.930 . S
H346 C384 0.930 . S
H347 C328 0.930 . S
H348 C383 0.931 . S
N349 Eu318 2.657 . S
N349 C350 1.334 . S
N349 C354 1.362 . S
C350 H342 0.929 . S
C350 N349 1.334 . S
C350 C353 1.413 . S
C351 H345 0.930 . S
C351 C352 1.392 . S
C351 C353 1.367 . S
C352 C351 1.392 . S
C352 C354 1.420 . S
C352 C384 1.423 . S
C353 H339 0.930 . S
C353 C350 1.413 . S
C353 C351 1.367 . S
C354 N349 1.362 . S
C354 C352 1.420 . S
C354 C358 1.429 . S
H355 C360 0.930 . S
N356 Eu318 2.609 . S
N356 C358 1.377 . S
N356 C359 1.321 . S
C357 H343 0.930 . S
C357 C359 1.400 . S
C357 C360 1.386 . S
C358 C354 1.429 . S
C358 N356 1.377 . S
C358 C361 1.411 . S
C359 H341 0.930 . S
C359 N356 1.321 . S
C359 C357 1.400 . S
C360 H355 0.930 . S
C360 C357 1.386 . S
C360 C361 1.395 . S
C361 C358 1.411 . S
C361 C360 1.395 . S
C361 C383 1.420 . S
O362 Eu318 2.558 . S
O362 C382 1.257 . S
O363 Eu318 2.612 1_654 S
O363 Eu329 2.380 . S
O363 C374 1.276 1_554 S
O364 Eu329 2.432 . S
O364 C381 1.297 . S
O365 Eu318 2.339 1_655 S
O365 C381 1.234 1_556 S
O366 Eu318 2.563 1_655 S
O366 C374 1.235 . S
O367 Eu318 2.419 . S
O367 C382 1.249 . S
O368 Eu329 2.558 . S
O368 C393 1.257 . S
O369 Eu318 2.380 1_554 S
O369 Eu329 2.612 1_455 S
O369 C385 1.276 . S
O370 Eu318 2.432 . S
O370 C392 1.264 1_556 S
O371 Eu329 2.339 1_455 S
O371 C392 1.254 . S
O372 Eu329 2.563 1_455 S
O372 C385 1.235 . S
O373 Eu329 2.419 1_455 S
O373 C393 1.249 1_455 S
C374 O363 1.276 1_556 S
C374 O366 1.235 . S
C375 C377 1.393 1_455 S
C375 C379 1.395 . S
C375 C382 1.492 . S
C376 C377 1.392 . S
C376 C378 1.386 1_655 S
C377 C375 1.393 1_655 S
C377 C376 1.392 . S
C377 H394 0.930 . S
C378 C376 1.386 1_455 S
C378 C380 1.395 . S
C378 H395 0.930 . S
C379 C375 1.395 . S
C379 C380 1.379 . S
C379 H396 0.930 . S
C380 C378 1.395 . S
C380 C379 1.379 . S
C380 H397 0.930 . S
C381 O364 1.297 . S
C381 O365 1.234 1_554 S
C382 Eu318 2.848 . S
C382 O362 1.257 . S
C382 O367 1.249 . S
C382 C375 1.492 . S
C383 H348 0.931 . S
C383 C361 1.420 . S
C383 C384 1.351 . S
C384 H346 0.930 . S
C384 C352 1.423 . S
C384 C383 1.351 . S
C385 O369 1.276 . S
C385 O372 1.235 . S
C386 C387 1.393 . S
C386 C390 1.395 1_455 S
C386 C393 1.492 1_455 S
C387 C386 1.393 . S
C387 C388 1.392 . S
C387 H398 0.930 . S
C388 C387 1.392 . S
C388 C389 1.386 . S
C389 C388 1.386 . S
C389 C391 1.395 1_455 S
C389 H399 0.930 . S
C390 C386 1.395 1_655 S
C390 C391 1.379 . S
C390 H400 0.930 . S
C391 C389 1.395 1_655 S
C391 C390 1.379 . S
C391 H401 0.930 . S
C392 O370 1.264 1_554 S
C392 O371 1.254 . S
C393 Eu329 2.848 . S
C393 O368 1.257 . S
C393 O373 1.249 1_655 S
C393 C386 1.492 1_655 S
H394 C377 0.930 . S
H395 C378 0.930 . S
H396 C379 0.930 . S
H397 C380 0.930 . S
H398 C387 0.930 . S
H399 C389 0.930 . S
H400 C390 0.930 . S
H401 C391 0.930 . S
Eu402 N433 2.657 . S
Eu402 N440 2.609 . S
Eu402 O446 2.558 . S
Eu402 O447 2.612 . S
Eu402 O449 2.339 . S
Eu402 O450 2.563 . S
Eu402 O451 2.419 . S
Eu402 O453 2.380 . S
Eu402 O454 2.432 . S
Eu402 C466 2.848 . S
C403 C406 1.429 . S
C403 C407 1.411 . S
C403 N410 1.377 . S
C404 C406 1.420 . S
C404 C408 1.423 . S
C404 C416 1.392 . S
C405 C407 1.420 . S
C405 C408 1.351 . S
C405 H428 0.931 . S
C406 C403 1.429 . S
C406 C404 1.420 . S
C406 N414 1.384 . S
C407 C403 1.411 . S
C407 C405 1.420 . S
C407 C412 1.395 . S
C408 C404 1.423 . S
C408 C405 1.351 . S
C408 H420 0.930 . S
C409 C411 1.400 . S
C409 C412 1.386 . S
C409 H421 0.930 . S
N410 C403 1.377 . S
N410 C411 1.321 . S
N410 Eu413 2.609 1_556 S
C411 C409 1.400 . S
C411 N410 1.321 . S
C411 H418 0.930 . S
C412 C407 1.395 . S
C412 C409 1.386 . S
C412 H431 0.930 . S
Eu413 N410 2.609 1_554 S
Eu413 N414 2.648 1_554 S
Eu413 O447 2.380 . S
Eu413 O448 2.432 . S
Eu413 O452 2.558 1_554 S
Eu413 O453 2.612 . S
Eu413 O455 2.339 . S
Eu413 O456 2.563 1_554 S
Eu413 O457 2.419 1_554 S
Eu413 C477 2.848 1_554 S
N414 C406 1.384 . S
N414 Eu413 2.648 1_556 S
N414 C415 1.326 1_556 S
C415 N414 1.326 1_554 S
C415 C417 1.413 . S
C415 H422 0.929 . S
C416 C404 1.392 . S
C416 C417 1.367 1_556 S
C416 H424 0.930 . S
C417 C415 1.413 . S
C417 C416 1.367 1_554 S
C417 H419 0.930 . S
H418 C411 0.930 . S
H419 C417 0.930 . S
H420 C408 0.930 . S
H421 C409 0.930 . S
H422 C415 0.929 . S
H423 C437 0.930 . S
H424 C416 0.930 . S
H425 C443 0.930 . S
H426 C434 0.929 . S
H427 C441 0.930 . S
H428 C405 0.931 . S
H429 C435 0.930 . S
H430 C468 0.930 . S
H431 C412 0.930 . S
H432 C467 0.931 . S
N433 Eu402 2.657 . S
N433 C434 1.334 . S
N433 C438 1.362 . S
C434 H426 0.929 . S
C434 N433 1.334 . S
C434 C437 1.413 . S
C435 H429 0.930 . S
C435 C436 1.392 . S
C435 C437 1.367 . S
C436 C435 1.392 . S
C436 C438 1.420 . S
C436 C468 1.423 . S
C437 H423 0.930 . S
C437 C434 1.413 . S
C437 C435 1.367 . S
C438 N433 1.362 . S
C438 C436 1.420 . S
C438 C442 1.429 . S
H439 C444 0.930 . S
N440 Eu402 2.609 . S
N440 C442 1.377 . S
N440 C443 1.321 . S
C441 H427 0.930 . S
C441 C443 1.400 . S
C441 C444 1.386 . S
C442 C438 1.429 . S
C442 N440 1.377 . S
C442 C445 1.411 . S
C443 H425 0.930 . S
C443 N440 1.321 . S
C443 C441 1.400 . S
C444 H439 0.930 . S
C444 C441 1.386 . S
C444 C445 1.395 . S
C445 C442 1.411 . S
C445 C444 1.395 . S
C445 C467 1.420 . S
O446 Eu402 2.558 . S
O446 C466 1.257 . S
O447 Eu402 2.612 . S
O447 Eu413 2.380 . S
O447 C458 1.276 . S
O448 Eu413 2.432 . S
O448 C465 1.264 . S
O449 Eu402 2.339 . S
O449 C465 1.254 . S
O450 Eu402 2.563 . S
O450 C458 1.235 . S
O451 Eu402 2.419 . S
O451 C466 1.249 . S
O452 Eu413 2.558 1_556 S
O452 C477 1.257 . S
O453 Eu402 2.380 . S
O453 Eu413 2.612 . S
O453 C469 1.276 . S
O454 Eu402 2.432 . S
O454 C476 1.264 . S
O455 Eu413 2.339 . S
O455 C476 1.254 . S
O456 Eu413 2.563 1_556 S
O456 C469 1.235 1_556 S
O457 Eu413 2.419 1_556 S
O457 C477 1.249 . S
C458 O447 1.276 . S
C458 O450 1.235 . S
C459 C461 1.393 . S
C459 C463 1.395 . S
C459 C466 1.492 . S
C460 C461 1.392 . S
C460 C462 1.386 . S
C461 C459 1.393 . S
C461 C460 1.392 . S
C461 H478 0.930 . S
C462 C460 1.386 . S
C462 C464 1.395 . S
C462 H479 0.930 . S
C463 C459 1.395 . S
C463 C464 1.379 . S
C463 H480 0.930 . S
C464 C462 1.395 . S
C464 C463 1.379 . S
C464 H481 0.930 . S
C465 O448 1.264 . S
C465 O449 1.254 . S
C466 Eu402 2.848 . S
C466 O446 1.257 . S
C466 O451 1.249 . S
C466 C459 1.492 . S
C467 H432 0.931 . S
C467 C445 1.420 . S
C467 C468 1.351 . S
C468 H430 0.930 . S
C468 C436 1.423 . S
C468 C467 1.351 . S
C469 O453 1.276 . S
C469 O456 1.235 1_554 S
C470 C471 1.393 . S
C470 C474 1.395 . S
C470 C477 1.492 . S
C471 C470 1.393 . S
C471 C472 1.392 . S
C471 H482 0.930 . S
C472 C471 1.392 . S
C472 C473 1.386 . S
C473 C472 1.386 . S
C473 C475 1.395 . S
C473 H483 0.930 . S
C474 C470 1.395 . S
C474 C475 1.379 . S
C474 H484 0.930 . S
C475 C473 1.395 . S
C475 C474 1.379 . S
C475 H485 0.930 . S
C476 O454 1.264 . S
C476 O455 1.254 . S
C477 Eu413 2.848 1_556 S
C477 O452 1.257 . S
C477 O457 1.249 . S
C477 C470 1.492 . S
H478 C461 0.930 . S
H479 C462 0.930 . S
H480 C463 0.930 . S
H481 C464 0.930 . S
H482 C471 0.930 . S
H483 C473 0.930 . S
H484 C474 0.930 . S
H485 C475 0.930 . S
Eu486 N517 2.657 . S
Eu486 N524 2.609 . S
Eu486 O530 2.558 . S
Eu486 O531 2.612 . S
Eu486 O533 2.339 . S
Eu486 O534 2.563 . S
Eu486 O535 2.419 . S
Eu486 O537 2.380 . S
Eu486 O538 2.432 . S
Eu486 C550 2.848 . S
C487 C490 1.429 . S
C487 C491 1.411 . S
C487 N494 1.377 . S
C488 C490 1.420 . S
C488 C492 1.423 . S
C488 C500 1.392 . S
C489 C491 1.420 . S
C489 C492 1.351 . S
C489 H512 0.931 . S
C490 C487 1.429 . S
C490 C488 1.420 . S
C490 N498 1.362 . S
C491 C487 1.411 . S
C491 C489 1.420 . S
C491 C496 1.395 . S
C492 C488 1.423 . S
C492 C489 1.351 . S
C492 H504 0.930 . S
C493 C495 1.400 . S
C493 C496 1.386 . S
C493 H505 0.930 . S
N494 C487 1.377 . S
N494 C495 1.321 . S
N494 Eu497 2.609 . S
C495 C493 1.400 . S
C495 N494 1.321 . S
C495 H502 0.930 . S
C496 C491 1.395 . S
C496 C493 1.386 . S
C496 H515 0.930 . S
Eu497 N494 2.609 . S
Eu497 N498 2.657 . S
Eu497 O531 2.380 . S
Eu497 O532 2.432 . S
Eu497 O536 2.558 . S
Eu497 O537 2.612 . S
Eu497 O539 2.339 . S
Eu497 O540 2.563 . S
Eu497 O541 2.419 . S
Eu497 C561 2.848 . S
N498 C490 1.362 . S
N498 Eu497 2.657 . S
N498 C499 1.334 . S
C499 N498 1.334 . S
C499 C501 1.413 . S
C499 H506 0.929 . S
C500 C488 1.392 . S
C500 C501 1.367 . S
C500 H508 0.930 . S
C501 C499 1.413 . S
C501 C500 1.367 . S
C501 H503 0.930 . S
H502 C495 0.930 . S
H503 C501 0.930 . S
H504 C492 0.930 . S
H505 C493 0.930 . S
H506 C499 0.929 . S
H507 C521 0.930 . S
H508 C500 0.930 . S
H509 C527 0.930 . S
H510 C518 0.929 . S
H511 C525 0.930 . S
H512 C489 0.931 . S
H513 C519 0.930 . S
H514 C552 0.930 . S
H515 C496 0.930 . S
H516 C551 0.931 . S
N517 Eu486 2.657 . S
N517 C518 1.334 . S
N517 C522 1.362 . S
C518 H510 0.929 . S
C518 N517 1.334 . S
C518 C521 1.413 . S
C519 H513 0.930 . S
C519 C520 1.392 . S
C519 C521 1.367 . S
C520 C519 1.392 . S
C520 C522 1.420 . S
C520 C552 1.423 . S
C521 H507 0.930 . S
C521 C518 1.413 . S
C521 C519 1.367 . S
C522 N517 1.362 . S
C522 C520 1.420 . S
C522 C526 1.429 . S
H523 C528 0.930 . S
N524 Eu486 2.609 . S
N524 C526 1.377 . S
N524 C527 1.321 . S
C525 H511 0.930 . S
C525 C527 1.400 . S
C525 C528 1.386 . S
C526 C522 1.429 . S
C526 N524 1.377 . S
C526 C529 1.411 . S
C527 H509 0.930 . S
C527 N524 1.321 . S
C527 C525 1.400 . S
C528 H523 0.930 . S
C528 C525 1.386 . S
C528 C529 1.395 . S
C529 C526 1.411 . S
C529 C528 1.395 . S
C529 C551 1.420 . S
O530 Eu486 2.558 . S
O530 C550 1.257 . S
O531 Eu486 2.612 . S
O531 Eu497 2.380 . S
O531 C542 1.276 . S
O532 Eu497 2.432 . S
O532 C549 1.264 . S
O533 Eu486 2.339 . S
O533 C549 1.254 . S
O534 Eu486 2.563 . S
O534 C542 1.235 . S
O535 Eu486 2.419 . S
O535 C550 1.249 . S
O536 Eu497 2.558 . S
O536 C561 1.257 . S
O537 Eu486 2.380 . S
O537 Eu497 2.612 . S
O537 C553 1.276 . S
O538 Eu486 2.432 . S
O538 C560 1.264 . S
O539 Eu497 2.339 . S
O539 C560 1.254 . S
O540 Eu497 2.563 . S
O540 C553 1.235 . S
O541 Eu497 2.419 . S
O541 C561 1.249 . S
C542 O531 1.276 . S
C542 O534 1.235 . S
C543 C545 1.393 . S
C543 C547 1.395 . S
C543 C550 1.492 . S
C544 C545 1.392 . S
C544 C546 1.386 . S
C545 C543 1.393 . S
C545 C544 1.392 . S
C545 H562 0.930 . S
C546 C544 1.386 . S
C546 C548 1.395 . S
C546 H563 0.930 . S
C547 C543 1.395 . S
C547 C548 1.379 . S
C547 H564 0.930 . S
C548 C546 1.395 . S
C548 C547 1.379 . S
C548 H565 0.930 . S
C549 O532 1.264 . S
C549 O533 1.254 . S
C550 Eu486 2.848 . S
C550 O530 1.257 . S
C550 O535 1.249 . S
C550 C543 1.492 . S
C551 H516 0.931 . S
C551 C529 1.420 . S
C551 C552 1.351 . S
C552 H514 0.930 . S
C552 C520 1.423 . S
C552 C551 1.351 . S
C553 O537 1.276 . S
C553 O540 1.235 . S
C554 C555 1.393 . S
C554 C558 1.395 . S
C554 C561 1.492 . S
C555 C554 1.393 . S
C555 C556 1.392 . S
C555 H566 0.930 . S
C556 C555 1.392 . S
C556 C557 1.386 . S
C557 C556 1.386 . S
C557 C559 1.395 . S
C557 H567 0.930 . S
C558 C554 1.395 . S
C558 C559 1.379 . S
C558 H568 0.930 . S
C559 C557 1.395 . S
C559 C558 1.379 . S
C559 H569 0.930 . S
C560 O538 1.264 . S
C560 O539 1.254 . S
C561 Eu497 2.848 . S
C561 O536 1.257 . S
C561 O541 1.249 . S
C561 C554 1.492 . S
H562 C545 0.930 . S
H563 C546 0.930 . S
H564 C547 0.930 . S
H565 C548 0.930 . S
H566 C555 0.930 . S
H567 C557 0.930 . S
H568 C558 0.930 . S
H569 C559 0.930 . S
Eu570 N601 2.657 . S
Eu570 N608 2.609 . S
Eu570 O614 2.558 . S
Eu570 O615 2.612 . S
Eu570 O617 2.339 . S
Eu570 O618 2.563 . S
Eu570 O619 2.419 . S
Eu570 O621 2.380 . S
Eu570 O622 2.432 . S
Eu570 C634 2.848 . S
C571 C574 1.429 . S
C571 C575 1.411 . S
C571 N578 1.377 . S
C572 C574 1.420 . S
C572 C576 1.423 . S
C572 C584 1.392 . S
C573 C575 1.420 . S
C573 C576 1.351 . S
C573 H596 0.931 . S
C574 C571 1.429 . S
C574 C572 1.420 . S
C574 N582 1.362 . S
C575 C571 1.411 . S
C575 C573 1.420 . S
C575 C580 1.395 . S
C576 C572 1.423 . S
C576 C573 1.351 . S
C576 H588 0.930 . S
C577 C579 1.400 . S
C577 C580 1.386 . S
C577 H589 0.930 . S
N578 C571 1.377 . S
N578 C579 1.321 . S
N578 Eu581 2.609 . S
C579 C577 1.400 . S
C579 N578 1.321 . S
C579 H586 0.930 . S
C580 C575 1.395 . S
C580 C577 1.386 . S
C580 H599 0.930 . S
Eu581 N578 2.609 . S
Eu581 N582 2.657 . S
Eu581 O615 2.380 . S
Eu581 O616 2.432 . S
Eu581 O620 2.558 . S
Eu581 O621 2.612 . S
Eu581 O623 2.339 . S
Eu581 O624 2.563 . S
Eu581 O625 2.419 . S
Eu581 C645 2.848 . S
N582 C574 1.362 . S
N582 Eu581 2.657 . S
N582 C583 1.334 . S
C583 N582 1.334 . S
C583 C585 1.413 . S
C583 H590 0.929 . S
C584 C572 1.392 . S
C584 C585 1.367 . S
C584 H592 0.930 . S
C585 C583 1.413 . S
C585 C584 1.367 . S
C585 H587 0.930 . S
H586 C579 0.930 . S
H587 C585 0.930 . S
H588 C576 0.930 . S
H589 C577 0.930 . S
H590 C583 0.929 . S
H591 C605 0.930 . S
H592 C584 0.930 . S
H593 C611 0.930 . S
H594 C602 0.929 . S
H595 C609 0.930 . S
H596 C573 0.931 . S
H597 C603 0.930 . S
H598 C636 0.930 . S
H599 C580 0.930 . S
H600 C635 0.931 . S
N601 Eu570 2.657 . S
N601 C602 1.334 . S
N601 C606 1.362 . S
C602 H594 0.929 . S
C602 N601 1.334 . S
C602 C605 1.413 . S
C603 H597 0.930 . S
C603 C604 1.392 . S
C603 C605 1.367 . S
C604 C603 1.392 . S
C604 C606 1.420 . S
C604 C636 1.423 . S
C605 H591 0.930 . S
C605 C602 1.413 . S
C605 C603 1.367 . S
C606 N601 1.362 . S
C606 C604 1.420 . S
C606 C610 1.429 . S
H607 C612 0.930 . S
N608 Eu570 2.609 . S
N608 C610 1.377 . S
N608 C611 1.321 . S
C609 H595 0.930 . S
C609 C611 1.400 . S
C609 C612 1.386 . S
C610 C606 1.429 . S
C610 N608 1.377 . S
C610 C613 1.411 . S
C611 H593 0.930 . S
C611 N608 1.321 . S
C611 C609 1.400 . S
C612 H607 0.930 . S
C612 C609 1.386 . S
C612 C613 1.395 . S
C613 C610 1.411 . S
C613 C612 1.395 . S
C613 C635 1.420 . S
O614 Eu570 2.558 . S
O614 C634 1.257 . S
O615 Eu570 2.612 . S
O615 Eu581 2.380 . S
O615 C626 1.276 . S
O616 Eu581 2.432 . S
O616 C633 1.264 . S
O617 Eu570 2.339 . S
O617 C633 1.254 . S
O618 Eu570 2.563 . S
O618 C626 1.235 . S
O619 Eu570 2.419 . S
O619 C634 1.249 . S
O620 Eu581 2.558 . S
O620 C645 1.257 . S
O621 Eu570 2.380 . S
O621 Eu581 2.612 . S
O621 C637 1.276 . S
O622 Eu570 2.432 . S
O622 C644 1.264 . S
O623 Eu581 2.339 . S
O623 C644 1.254 . S
O624 Eu581 2.563 . S
O624 C637 1.235 . S
O625 Eu581 2.419 . S
O625 C645 1.249 . S
C626 O615 1.276 . S
C626 O618 1.235 . S
C627 C629 1.393 . S
C627 C631 1.395 . S
C627 C634 1.492 . S
C628 C629 1.392 . S
C628 C630 1.386 . S
C629 C627 1.393 . S
C629 C628 1.392 . S
C629 H646 0.930 . S
C630 C628 1.386 . S
C630 C632 1.395 . S
C630 H647 0.930 . S
C631 C627 1.395 . S
C631 C632 1.379 . S
C631 H648 0.930 . S
C632 C630 1.395 . S
C632 C631 1.379 . S
C632 H649 0.930 . S
C633 O616 1.264 . S
C633 O617 1.254 . S
C634 Eu570 2.848 . S
C634 O614 1.257 . S
C634 O619 1.249 . S
C634 C627 1.492 . S
C635 H600 0.931 . S
C635 C613 1.420 . S
C635 C636 1.351 . S
C636 H598 0.930 . S
C636 C604 1.423 . S
C636 C635 1.351 . S
C637 O621 1.276 . S
C637 O624 1.235 . S
C638 C639 1.393 . S
C638 C642 1.395 . S
C638 C645 1.492 . S
C639 C638 1.393 . S
C639 C640 1.392 . S
C639 H650 0.930 . S
C640 C639 1.392 . S
C640 C641 1.386 . S
C641 C640 1.386 . S
C641 C643 1.395 . S
C641 H651 0.930 . S
C642 C638 1.395 . S
C642 C643 1.379 . S
C642 H652 0.930 . S
C643 C641 1.395 . S
C643 C642 1.379 . S
C643 H653 0.930 . S
C644 O622 1.264 . S
C644 O623 1.254 . S
C645 Eu581 2.848 . S
C645 O620 1.257 . S
C645 O625 1.249 . S
C645 C638 1.492 . S
H646 C629 0.930 . S
H647 C630 0.930 . S
H648 C631 0.930 . S
H649 C632 0.930 . S
H650 C639 0.930 . S
H651 C641 0.930 . S
H652 C642 0.930 . S
H653 C643 0.930 . S
Eu654 N685 2.657 . S
Eu654 N692 2.609 . S
Eu654 O698 2.558 . S
Eu654 O699 2.612 . S
Eu654 O701 2.339 . S
Eu654 O702 2.563 . S
Eu654 O703 2.419 . S
Eu654 O705 2.380 . S
Eu654 O706 2.432 . S
Eu654 C718 2.848 . S
C655 C658 1.429 . S
C655 C659 1.411 . S
C655 N662 1.377 . S
C656 C658 1.420 . S
C656 C660 1.423 . S
C656 C668 1.392 . S
C657 C659 1.420 . S
C657 C660 1.351 . S
C657 H680 0.931 . S
C658 C655 1.429 . S
C658 C656 1.420 . S
C658 N666 1.362 . S
C659 C655 1.411 . S
C659 C657 1.420 . S
C659 C664 1.395 . S
C660 C656 1.423 . S
C660 C657 1.351 . S
C660 H672 0.930 . S
C661 C663 1.400 . S
C661 C664 1.386 . S
C661 H673 0.930 . S
N662 C655 1.377 . S
N662 C663 1.321 . S
N662 Eu665 2.609 . S
C663 C661 1.400 . S
C663 N662 1.321 . S
C663 H670 0.930 . S
C664 C659 1.395 . S
C664 C661 1.386 . S
C664 H683 0.930 . S
Eu665 N662 2.609 . S
Eu665 N666 2.657 . S
Eu665 O699 2.380 . S
Eu665 O700 2.432 . S
Eu665 O704 2.558 . S
Eu665 O705 2.612 . S
Eu665 O707 2.339 . S
Eu665 O708 2.563 . S
Eu665 O709 2.419 . S
Eu665 C729 2.848 . S
N666 C658 1.362 . S
N666 Eu665 2.657 . S
N666 C667 1.334 . S
C667 N666 1.334 . S
C667 C669 1.413 . S
C667 H674 0.929 . S
C668 C656 1.392 . S
C668 C669 1.367 . S
C668 H676 0.930 . S
C669 C667 1.413 . S
C669 C668 1.367 . S
C669 H671 0.930 . S
H670 C663 0.930 . S
H671 C669 0.930 . S
H672 C660 0.930 . S
H673 C661 0.930 . S
H674 C667 0.929 . S
H675 C689 0.930 . S
H676 C668 0.930 . S
H677 C695 0.930 . S
H678 C686 0.929 . S
H679 C693 0.930 . S
H680 C657 0.931 . S
H681 C687 0.930 . S
H682 C720 0.930 . S
H683 C664 0.930 . S
H684 C719 0.931 . S
N685 Eu654 2.657 . S
N685 C686 1.334 . S
N685 C690 1.362 . S
C686 H678 0.929 . S
C686 N685 1.334 . S
C686 C689 1.413 . S
C687 H681 0.930 . S
C687 C688 1.392 . S
C687 C689 1.367 . S
C688 C687 1.392 . S
C688 C690 1.420 . S
C688 C720 1.423 . S
C689 H675 0.930 . S
C689 C686 1.413 . S
C689 C687 1.367 . S
C690 N685 1.362 . S
C690 C688 1.420 . S
C690 C694 1.429 . S
H691 C696 0.930 . S
N692 Eu654 2.609 . S
N692 C694 1.377 . S
N692 C695 1.321 . S
C693 H679 0.930 . S
C693 C695 1.400 . S
C693 C696 1.386 . S
C694 C690 1.429 . S
C694 N692 1.377 . S
C694 C697 1.411 . S
C695 H677 0.930 . S
C695 N692 1.321 . S
C695 C693 1.400 . S
C696 H691 0.930 . S
C696 C693 1.386 . S
C696 C697 1.395 . S
C697 C694 1.411 . S
C697 C696 1.395 . S
C697 C719 1.420 . S
O698 Eu654 2.558 . S
O698 C718 1.257 . S
O699 Eu654 2.612 . S
O699 Eu665 2.380 . S
O699 C710 1.276 . S
O700 Eu665 2.432 . S
O700 C717 1.264 . S
O701 Eu654 2.339 . S
O701 C717 1.254 . S
O702 Eu654 2.563 . S
O702 C710 1.235 . S
O703 Eu654 2.419 . S
O703 C718 1.249 . S
O704 Eu665 2.558 . S
O704 C729 1.257 . S
O705 Eu654 2.380 . S
O705 Eu665 2.612 . S
O705 C721 1.276 . S
O706 Eu654 2.432 . S
O706 C728 1.264 . S
O707 Eu665 2.339 . S
O707 C728 1.254 . S
O708 Eu665 2.563 . S
O708 C721 1.235 . S
O709 Eu665 2.419 . S
O709 C729 1.249 . S
C710 O699 1.276 . S
C710 O702 1.235 . S
C711 C713 1.393 . S
C711 C715 1.395 . S
C711 C718 1.492 . S
C712 C713 1.392 . S
C712 C714 1.386 . S
C713 C711 1.393 . S
C713 C712 1.392 . S
C713 H730 0.930 . S
C714 C712 1.386 . S
C714 C716 1.395 . S
C714 H731 0.930 . S
C715 C711 1.395 . S
C715 C716 1.379 . S
C715 H732 0.930 . S
C716 C714 1.395 . S
C716 C715 1.379 . S
C716 H733 0.930 . S
C717 O700 1.264 . S
C717 O701 1.254 . S
C718 Eu654 2.848 . S
C718 O698 1.257 . S
C718 O703 1.249 . S
C718 C711 1.492 . S
C719 H684 0.931 . S
C719 C697 1.420 . S
C719 C720 1.351 . S
C720 H682 0.930 . S
C720 C688 1.423 . S
C720 C719 1.351 . S
C721 O705 1.276 . S
C721 O708 1.235 . S
C722 C723 1.393 . S
C722 C726 1.395 . S
C722 C729 1.492 . S
C723 C722 1.393 . S
C723 C724 1.392 . S
C723 H734 0.930 . S
C724 C723 1.392 . S
C724 C725 1.386 . S
C725 C724 1.386 . S
C725 C727 1.395 . S
C725 H735 0.930 . S
C726 C722 1.395 . S
C726 C727 1.379 . S
C726 H736 0.930 . S
C727 C725 1.395 . S
C727 C726 1.379 . S
C727 H737 0.930 . S
C728 O706 1.264 . S
C728 O707 1.254 . S
C729 Eu665 2.848 . S
C729 O704 1.257 . S
C729 O709 1.249 . S
C729 C722 1.492 . S
H730 C713 0.930 . S
H731 C714 0.930 . S
H732 C715 0.930 . S
H733 C716 0.930 . S
H734 C723 0.930 . S
H735 C725 0.930 . S
H736 C726 0.930 . S
H737 C727 0.930 . S
Eu738 N769 2.657 . S
Eu738 N776 2.609 . S
Eu738 O782 2.558 . S
Eu738 O783 2.612 . S
Eu738 O785 2.339 . S
Eu738 O786 2.563 . S
Eu738 O787 2.419 . S
Eu738 O789 2.380 . S
Eu738 O790 2.432 . S
Eu738 C802 2.848 . S
C739 C742 1.429 . S
C739 C743 1.411 . S
C739 N746 1.377 . S
C740 C742 1.420 . S
C740 C744 1.423 . S
C740 C752 1.392 . S
C741 C743 1.420 . S
C741 C744 1.351 . S
C741 H764 0.931 . S
C742 C739 1.429 . S
C742 C740 1.420 . S
C742 N750 1.362 . S
C743 C739 1.411 . S
C743 C741 1.420 . S
C743 C748 1.395 . S
C744 C740 1.423 . S
C744 C741 1.351 . S
C744 H756 0.930 . S
C745 C747 1.400 . S
C745 C748 1.386 . S
C745 H757 0.930 . S
N746 C739 1.377 . S
N746 C747 1.321 . S
N746 Eu749 2.609 . S
C747 C745 1.400 . S
C747 N746 1.321 . S
C747 H754 0.930 . S
C748 C743 1.395 . S
C748 C745 1.386 . S
C748 H767 0.930 . S
Eu749 N746 2.609 . S
Eu749 N750 2.657 . S
Eu749 O783 2.380 . S
Eu749 O784 2.432 . S
Eu749 O788 2.558 . S
Eu749 O789 2.612 . S
Eu749 O791 2.339 . S
Eu749 O792 2.563 . S
Eu749 O793 2.419 . S
Eu749 C813 2.848 . S
N750 C742 1.362 . S
N750 Eu749 2.657 . S
N750 C751 1.334 . S
C751 N750 1.334 . S
C751 C753 1.413 . S
C751 H758 0.929 . S
C752 C740 1.392 . S
C752 C753 1.367 . S
C752 H760 0.930 . S
C753 C751 1.413 . S
C753 C752 1.367 . S
C753 H755 0.930 . S
H754 C747 0.930 . S
H755 C753 0.930 . S
H756 C744 0.930 . S
H757 C745 0.930 . S
H758 C751 0.929 . S
H759 C773 0.930 . S
H760 C752 0.930 . S
H761 C779 0.930 . S
H762 C770 0.929 . S
H763 C777 0.930 . S
H764 C741 0.931 . S
H765 C771 0.930 . S
H766 C804 0.930 . S
H767 C748 0.930 . S
H768 C803 0.931 . S
N769 Eu738 2.657 . S
N769 C770 1.334 . S
N769 C774 1.362 . S
C770 H762 0.929 . S
C770 N769 1.334 . S
C770 C773 1.413 . S
C771 H765 0.930 . S
C771 C772 1.392 . S
C771 C773 1.367 . S
C772 C771 1.392 . S
C772 C774 1.420 . S
C772 C804 1.423 . S
C773 H759 0.930 . S
C773 C770 1.413 . S
C773 C771 1.367 . S
C774 N769 1.362 . S
C774 C772 1.420 . S
C774 C778 1.429 . S
H775 C780 0.930 . S
N776 Eu738 2.609 . S
N776 C778 1.377 . S
N776 C779 1.321 . S
C777 H763 0.930 . S
C777 C779 1.400 . S
C777 C780 1.386 . S
C778 C774 1.429 . S
C778 N776 1.377 . S
C778 C781 1.411 . S
C779 H761 0.930 . S
C779 N776 1.321 . S
C779 C777 1.400 . S
C780 H775 0.930 . S
C780 C777 1.386 . S
C780 C781 1.395 . S
C781 C778 1.411 . S
C781 C780 1.395 . S
C781 C803 1.420 . S
O782 Eu738 2.558 . S
O782 C802 1.257 . S
O783 Eu738 2.612 . S
O783 Eu749 2.380 . S
O783 C794 1.276 . S
O784 Eu749 2.432 . S
O784 C801 1.264 . S
O785 Eu738 2.339 . S
O785 C801 1.254 . S
O786 Eu738 2.563 . S
O786 C794 1.235 . S
O787 Eu738 2.419 . S
O787 C802 1.249 . S
O788 Eu749 2.558 . S
O788 C813 1.257 . S
O789 Eu738 2.380 . S
O789 Eu749 2.612 . S
O789 C805 1.276 . S
O790 Eu738 2.432 . S
O790 C812 1.264 . S
O791 Eu749 2.339 . S
O791 C812 1.254 . S
O792 Eu749 2.563 . S
O792 C805 1.235 . S
O793 Eu749 2.419 . S
O793 C813 1.249 . S
C794 O783 1.276 . S
C794 O786 1.235 . S
C795 C797 1.393 . S
C795 C799 1.395 . S
C795 C802 1.492 . S
C796 C797 1.392 . S
C796 C798 1.386 . S
C797 C795 1.393 . S
C797 C796 1.392 . S
C797 H814 0.930 . S
C798 C796 1.386 . S
C798 C800 1.395 . S
C798 H815 0.930 . S
C799 C795 1.395 . S
C799 C800 1.379 . S
C799 H816 0.930 . S
C800 C798 1.395 . S
C800 C799 1.379 . S
C800 H817 0.930 . S
C801 O784 1.264 . S
C801 O785 1.254 . S
C802 Eu738 2.848 . S
C802 O782 1.257 . S
C802 O787 1.249 . S
C802 C795 1.492 . S
C803 H768 0.931 . S
C803 C781 1.420 . S
C803 C804 1.351 . S
C804 H766 0.930 . S
C804 C772 1.423 . S
C804 C803 1.351 . S
C805 O789 1.276 . S
C805 O792 1.235 . S
C806 C807 1.393 . S
C806 C810 1.395 . S
C806 C813 1.492 . S
C807 C806 1.393 . S
C807 C808 1.392 . S
C807 H818 0.930 . S
C808 C807 1.392 . S
C808 C809 1.386 . S
C809 C808 1.386 . S
C809 C811 1.395 . S
C809 H819 0.930 . S
C810 C806 1.395 . S
C810 C811 1.379 . S
C810 H820 0.930 . S
C811 C809 1.395 . S
C811 C810 1.379 . S
C811 H821 0.930 . S
C812 O790 1.264 . S
C812 O791 1.254 . S
C813 Eu749 2.848 . S
C813 O788 1.257 . S
C813 O793 1.249 . S
C813 C806 1.492 . S
H814 C797 0.930 . S
H815 C798 0.930 . S
H816 C799 0.930 . S
H817 C800 0.930 . S
H818 C807 0.930 . S
H819 C809 0.930 . S
H820 C810 0.930 . S
H821 C811 0.930 . S
Eu822 N853 2.657 . S
Eu822 N860 2.609 . S
Eu822 O866 2.558 . S
Eu822 O867 2.612 . S
Eu822 O869 2.339 . S
Eu822 O870 2.563 . S
Eu822 O871 2.419 . S
Eu822 O873 2.380 . S
Eu822 O874 2.432 . S
Eu822 C886 2.848 . S
C823 C826 1.429 . S
C823 C827 1.411 . S
C823 N830 1.377 . S
C824 C826 1.420 . S
C824 C828 1.423 . S
C824 C836 1.392 . S
C825 C827 1.420 . S
C825 C828 1.351 . S
C825 H848 0.931 . S
C826 C823 1.429 . S
C826 C824 1.420 . S
C826 N834 1.362 . S
C827 C823 1.411 . S
C827 C825 1.420 . S
C827 C832 1.395 . S
C828 C824 1.423 . S
C828 C825 1.351 . S
C828 H840 0.930 . S
C829 C831 1.400 . S
C829 C832 1.386 . S
C829 H841 0.930 . S
N830 C823 1.377 . S
N830 C831 1.321 . S
N830 Eu833 2.609 . S
C831 C829 1.400 . S
C831 N830 1.321 . S
C831 H838 0.930 . S
C832 C827 1.395 . S
C832 C829 1.386 . S
C832 H851 0.930 . S
Eu833 N830 2.609 . S
Eu833 N834 2.657 . S
Eu833 O867 2.380 . S
Eu833 O868 2.432 . S
Eu833 O872 2.558 . S
Eu833 O873 2.612 . S
Eu833 O875 2.339 . S
Eu833 O876 2.563 . S
Eu833 O877 2.419 . S
Eu833 C897 2.848 . S
N834 C826 1.362 . S
N834 Eu833 2.657 . S
N834 C835 1.334 . S
C835 N834 1.334 . S
C835 C837 1.413 . S
C835 H842 0.929 . S
C836 C824 1.392 . S
C836 C837 1.367 . S
C836 H844 0.930 . S
C837 C835 1.413 . S
C837 C836 1.367 . S
C837 H839 0.930 . S
H838 C831 0.930 . S
H839 C837 0.930 . S
H840 C828 0.930 . S
H841 C829 0.930 . S
H842 C835 0.929 . S
H843 C857 0.930 . S
H844 C836 0.930 . S
H845 C863 0.930 . S
H846 C854 0.929 . S
H847 C861 0.930 . S
H848 C825 0.931 . S
H849 C855 0.930 . S
H850 C888 0.930 . S
H851 C832 0.930 . S
H852 C887 0.931 . S
N853 Eu822 2.657 . S
N853 C854 1.334 . S
N853 C858 1.362 . S
C854 H846 0.929 . S
C854 N853 1.334 . S
C854 C857 1.413 . S
C855 H849 0.930 . S
C855 C856 1.392 . S
C855 C857 1.367 . S
C856 C855 1.392 . S
C856 C858 1.420 . S
C856 C888 1.423 . S
C857 H843 0.930 . S
C857 C854 1.413 . S
C857 C855 1.367 . S
C858 N853 1.362 . S
C858 C856 1.420 . S
C858 C862 1.429 . S
H859 C864 0.930 . S
N860 Eu822 2.609 . S
N860 C862 1.377 . S
N860 C863 1.321 . S
C861 H847 0.930 . S
C861 C863 1.400 . S
C861 C864 1.386 . S
C862 C858 1.429 . S
C862 N860 1.377 . S
C862 C865 1.411 . S
C863 H845 0.930 . S
C863 N860 1.321 . S
C863 C861 1.400 . S
C864 H859 0.930 . S
C864 C861 1.386 . S
C864 C865 1.395 . S
C865 C862 1.411 . S
C865 C864 1.395 . S
C865 C887 1.420 . S
O866 Eu822 2.558 . S
O866 C886 1.257 . S
O867 Eu822 2.612 . S
O867 Eu833 2.380 . S
O867 C878 1.276 . S
O868 Eu833 2.432 . S
O868 C885 1.264 . S
O869 Eu822 2.339 . S
O869 C885 1.254 . S
O870 Eu822 2.563 . S
O870 C878 1.235 . S
O871 Eu822 2.419 . S
O871 C886 1.249 . S
O872 Eu833 2.558 . S
O872 C897 1.257 . S
O873 Eu822 2.380 . S
O873 Eu833 2.612 . S
O873 C889 1.276 . S
O874 Eu822 2.432 . S
O874 C896 1.264 . S
O875 Eu833 2.339 . S
O875 C896 1.254 . S
O876 Eu833 2.563 . S
O876 C889 1.235 . S
O877 Eu833 2.419 . S
O877 C897 1.249 . S
C878 O867 1.276 . S
C878 O870 1.235 . S
C879 C881 1.393 . S
C879 C883 1.395 . S
C879 C886 1.492 . S
C880 C881 1.392 . S
C880 C882 1.386 . S
C881 C879 1.393 . S
C881 C880 1.392 . S
C881 H898 0.930 . S
C882 C880 1.386 . S
C882 C884 1.395 . S
C882 H899 0.930 . S
C883 C879 1.395 . S
C883 C884 1.379 . S
C883 H900 0.930 . S
C884 C882 1.395 . S
C884 C883 1.379 . S
C884 H901 0.930 . S
C885 O868 1.264 . S
C885 O869 1.254 . S
C886 Eu822 2.848 . S
C886 O866 1.257 . S
C886 O871 1.249 . S
C886 C879 1.492 . S
C887 H852 0.931 . S
C887 C865 1.420 . S
C887 C888 1.351 . S
C888 H850 0.930 . S
C888 C856 1.423 . S
C888 C887 1.351 . S
C889 O873 1.276 . S
C889 O876 1.235 . S
C890 C891 1.393 . S
C890 C894 1.395 . S
C890 C897 1.492 . S
C891 C890 1.393 . S
C891 C892 1.392 . S
C891 H902 0.930 . S
C892 C891 1.392 . S
C892 C893 1.386 . S
C893 C892 1.386 . S
C893 C895 1.395 . S
C893 H903 0.930 . S
C894 C890 1.395 . S
C894 C895 1.379 . S
C894 H904 0.930 . S
C895 C893 1.395 . S
C895 C894 1.379 . S
C895 H905 0.930 . S
C896 O874 1.264 . S
C896 O875 1.254 . S
C897 Eu833 2.848 . S
C897 O872 1.257 . S
C897 O877 1.249 . S
C897 C890 1.492 . S
H898 C881 0.930 . S
H899 C882 0.930 . S
H900 C883 0.930 . S
H901 C884 0.930 . S
H902 C891 0.930 . S
H903 C893 0.930 . S
H904 C894 0.930 . S
H905 C895 0.930 . S
Eu906 N937 2.657 . S
Eu906 N944 2.609 . S
Eu906 O950 2.558 . S
Eu906 O951 2.612 . S
Eu906 O953 2.339 . S
Eu906 O954 2.563 . S
Eu906 O955 2.419 . S
Eu906 O957 2.380 . S
Eu906 O958 2.432 . S
Eu906 C970 2.848 . S
C907 C910 1.429 . S
C907 C911 1.411 . S
C907 N914 1.377 . S
C908 C910 1.420 . S
C908 C912 1.423 . S
C908 C920 1.392 . S
C909 C911 1.420 . S
C909 C912 1.351 . S
C909 H932 0.931 . S
C910 C907 1.429 . S
C910 C908 1.420 . S
C910 N918 1.362 . S
C911 C907 1.411 . S
C911 C909 1.420 . S
C911 C916 1.395 . S
C912 C908 1.423 . S
C912 C909 1.351 . S
C912 H924 0.930 . S
C913 C915 1.400 . S
C913 C916 1.386 . S
C913 H925 0.930 . S
N914 C907 1.377 . S
N914 C915 1.321 . S
N914 Eu917 2.609 . S
C915 C913 1.400 . S
C915 N914 1.321 . S
C915 H922 0.930 . S
C916 C911 1.395 . S
C916 C913 1.386 . S
C916 H935 0.930 . S
Eu917 N914 2.609 . S
Eu917 N918 2.657 . S
Eu917 O951 2.380 . S
Eu917 O952 2.432 . S
Eu917 O956 2.558 . S
Eu917 O957 2.612 . S
Eu917 O959 2.339 . S
Eu917 O960 2.563 . S
Eu917 O961 2.419 . S
Eu917 C981 2.848 . S
N918 C910 1.362 . S
N918 Eu917 2.657 . S
N918 C919 1.334 . S
C919 N918 1.334 . S
C919 C921 1.413 . S
C919 H926 0.929 . S
C920 C908 1.392 . S
C920 C921 1.367 . S
C920 H928 0.930 . S
C921 C919 1.413 . S
C921 C920 1.367 . S
C921 H923 0.930 . S
H922 C915 0.930 . S
H923 C921 0.930 . S
H924 C912 0.930 . S
H925 C913 0.930 . S
H926 C919 0.929 . S
H927 C941 0.930 . S
H928 C920 0.930 . S
H929 C947 0.930 . S
H930 C938 0.929 . S
H931 C945 0.930 . S
H932 C909 0.931 . S
H933 C939 0.930 . S
H934 C972 0.930 . S
H935 C916 0.930 . S
H936 C971 0.931 . S
N937 Eu906 2.657 . S
N937 C938 1.334 . S
N937 C942 1.362 . S
C938 H930 0.929 . S
C938 N937 1.334 . S
C938 C941 1.413 . S
C939 H933 0.930 . S
C939 C940 1.392 . S
C939 C941 1.367 . S
C940 C939 1.392 . S
C940 C942 1.420 . S
C940 C972 1.423 . S
C941 H927 0.930 . S
C941 C938 1.413 . S
C941 C939 1.367 . S
C942 N937 1.362 . S
C942 C940 1.420 . S
C942 C946 1.429 . S
H943 C948 0.930 . S
N944 Eu906 2.609 . S
N944 C946 1.377 . S
N944 C947 1.321 . S
C945 H931 0.930 . S
C945 C947 1.400 . S
C945 C948 1.386 . S
C946 C942 1.429 . S
C946 N944 1.377 . S
C946 C949 1.411 . S
C947 H929 0.930 . S
C947 N944 1.321 . S
C947 C945 1.400 . S
C948 H943 0.930 . S
C948 C945 1.386 . S
C948 C949 1.395 . S
C949 C946 1.411 . S
C949 C948 1.395 . S
C949 C971 1.420 . S
O950 Eu906 2.558 . S
O950 C970 1.257 . S
O951 Eu906 2.612 . S
O951 Eu917 2.380 . S
O951 C962 1.276 . S
O952 Eu917 2.432 . S
O952 C969 1.264 . S
O953 Eu906 2.339 . S
O953 C969 1.254 . S
O954 Eu906 2.563 . S
O954 C962 1.235 . S
O955 Eu906 2.419 . S
O955 C970 1.249 . S
O956 Eu917 2.558 . S
O956 C981 1.257 . S
O957 Eu906 2.380 . S
O957 Eu917 2.612 . S
O957 C973 1.276 . S
O958 Eu906 2.432 . S
O958 C980 1.264 . S
O959 Eu917 2.339 . S
O959 C980 1.254 . S
O960 Eu917 2.563 . S
O960 C973 1.235 . S
O961 Eu917 2.419 . S
O961 C981 1.249 . S
C962 O951 1.276 . S
C962 O954 1.235 . S
C963 C965 1.393 . S
C963 C967 1.395 . S
C963 C970 1.492 . S
C964 C965 1.392 . S
C964 C966 1.386 . S
C965 C963 1.393 . S
C965 C964 1.392 . S
C965 H982 0.930 . S
C966 C964 1.386 . S
C966 C968 1.395 . S
C966 H983 0.930 . S
C967 C963 1.395 . S
C967 C968 1.379 . S
C967 H984 0.930 . S
C968 C966 1.395 . S
C968 C967 1.379 . S
C968 H985 0.930 . S
C969 O952 1.264 . S
C969 O953 1.254 . S
C970 Eu906 2.848 . S
C970 O950 1.257 . S
C970 O955 1.249 . S
C970 C963 1.492 . S
C971 H936 0.931 . S
C971 C949 1.420 . S
C971 C972 1.351 . S
C972 H934 0.930 . S
C972 C940 1.423 . S
C972 C971 1.351 . S
C973 O957 1.276 . S
C973 O960 1.235 . S
C974 C975 1.393 . S
C974 C978 1.395 . S
C974 C981 1.492 . S
C975 C974 1.393 . S
C975 C976 1.392 . S
C975 H986 0.930 . S
C976 C975 1.392 . S
C976 C977 1.386 . S
C977 C976 1.386 . S
C977 C979 1.395 . S
C977 H987 0.930 . S
C978 C974 1.395 . S
C978 C979 1.379 . S
C978 H988 0.930 . S
C979 C977 1.395 . S
C979 C978 1.379 . S
C979 H989 0.930 . S
C980 O958 1.264 . S
C980 O959 1.254 . S
C981 Eu917 2.848 . S
C981 O956 1.257 . S
C981 O961 1.249 . S
C981 C974 1.492 . S
H982 C965 0.930 . S
H983 C966 0.930 . S
H984 C967 0.930 . S
H985 C968 0.930 . S
H986 C975 0.930 . S
H987 C977 0.930 . S
H988 C978 0.930 . S
H989 C979 0.930 . S
H990 C1008 0.951 . S
H991 C1010 0.951 . S
H992 C1012 0.950 . S
H993 C1013 0.950 . S
H994 C1015 0.950 . S
H995 C1018 0.950 . S
H996 C1019 0.950 . S
H997 C1021 0.950 1_556 S
H998 C1022 0.950 . S
H999 C1023 0.951 . S
H1000 C1025 0.951 . S
H1001 C1027 0.950 . S
H1002 C1028 0.950 . S
H1003 C1030 0.950 . S
H1004 C1033 0.950 . S
H1005 C1034 0.950 . S
H1006 C1036 0.950 . S
H1007 C1037 0.950 . S
C1008 H990 0.951 . S
C1008 C1009 1.366 . S
C1008 C1010 1.388 . S
C1009 C1008 1.366 . S
C1009 C1013 1.385 . S
C1010 H991 0.951 . S
C1010 C1008 1.388 . S
C1010 C1011 1.366 . S
C1011 C1010 1.366 . S
C1011 C1012 1.414 . S
C1011 C1014 1.499 . S
C1012 H992 0.950 . S
C1012 C1011 1.414 . S
C1012 C1013 1.374 . S
C1013 H993 0.950 . S
C1013 C1009 1.385 . S
C1013 C1012 1.374 . S
C1014 C1011 1.499 . S
C1014 C1015 1.373 . S
C1014 C1016 1.389 . S
C1015 H994 0.950 . S
C1015 C1014 1.373 . S
C1015 C1031 1.377 . S
C1016 C1014 1.389 . S
C1016 C1017 1.524 . S
C1016 C1030 1.377 . S
C1017 C1016 1.524 . S
C1017 C1018 1.397 . S
C1017 C1022 1.363 . S
C1018 H995 0.950 . S
C1018 C1017 1.397 . S
C1018 C1019 1.334 . S
C1019 H996 0.950 . S
C1019 C1018 1.334 . S
C1019 C1020 1.287 . S
C1020 C1019 1.287 . S
C1020 C1021 1.524 . S
C1020 H1039 0.913 . S
C1021 H997 0.950 1_554 S
C1021 C1020 1.524 . S
C1021 C1022 1.415 . S
C1022 H998 0.950 . S
C1022 C1017 1.363 . S
C1022 C1021 1.415 . S
C1023 H999 0.951 . S
C1023 C1024 1.366 . S
C1023 C1025 1.388 . S
C1024 C1023 1.366 . S
C1024 C1028 1.385 . S
C1025 H1000 0.951 . S
C1025 C1023 1.388 . S
C1025 C1026 1.366 . S
C1026 C1025 1.366 . S
C1026 C1027 1.414 . S
C1026 C1029 1.499 . S
C1027 H1001 0.950 . S
C1027 C1026 1.414 . S
C1027 C1028 1.374 . S
C1028 H1002 0.950 . S
C1028 C1024 1.385 . S
C1028 C1027 1.374 . S
C1029 C1026 1.499 . S
C1029 C1030 1.373 . S
C1029 C1031 1.389 . S
C1030 H1003 0.950 . S
C1030 C1016 1.377 . S
C1030 C1029 1.373 . S
C1031 C1015 1.377 . S
C1031 C1029 1.389 . S
C1031 C1032 1.524 . S
C1032 C1031 1.524 . S
C1032 C1033 1.397 . S
C1032 C1037 1.363 . S
C1033 H1004 0.950 . S
C1033 C1032 1.397 . S
C1033 C1034 1.334 . S
C1034 H1005 0.950 . S
C1034 C1033 1.334 . S
C1034 C1035 1.287 . S
C1035 C1034 1.287 . S
C1035 C1036 1.524 . S
C1035 H1038 0.999 . S
C1036 H1006 0.950 . S
C1036 C1035 1.524 . S
C1036 C1037 1.415 . S
C1037 H1007 0.950 . S
C1037 C1032 1.363 . S
C1037 C1036 1.415 . S
H1038 C1035 0.999 . S
H1039 C1020 0.913 . S
H1040 C1058 0.951 . S
H1041 C1060 0.951 . S
H1042 C1062 0.950 . S
H1043 C1063 0.950 . S
H1044 C1065 0.950 . S
H1045 C1068 0.950 . S
H1046 C1069 0.950 . S
H1047 C1071 0.950 . S
H1048 C1072 0.950 . S
H1049 C1073 0.951 . S
H1050 C1075 0.951 . S
H1051 C1077 0.950 . S
H1052 C1078 0.950 . S
H1053 C1080 0.950 . S
H1054 C1083 0.950 . S
H1055 C1084 0.950 . S
H1056 C1086 0.950 . S
H1057 C1087 0.950 . S
C1058 H1040 0.951 . S
C1058 C1059 1.366 . S
C1058 C1060 1.388 . S
C1059 C1058 1.366 . S
C1059 C1063 1.385 . S
C1060 H1041 0.951 . S
C1060 C1058 1.388 . S
C1060 C1061 1.366 . S
C1061 C1060 1.366 . S
C1061 C1062 1.414 . S
C1061 C1064 1.499 . S
C1062 H1042 0.950 . S
C1062 C1061 1.414 . S
C1062 C1063 1.374 . S
C1063 H1043 0.950 . S
C1063 C1059 1.385 . S
C1063 C1062 1.374 . S
C1064 C1061 1.499 . S
C1064 C1065 1.373 . S
C1064 C1066 1.389 . S
C1065 H1044 0.950 . S
C1065 C1064 1.373 . S
C1065 C1081 1.377 . S
C1066 C1064 1.389 . S
C1066 C1067 1.524 . S
C1066 C1080 1.377 . S
C1067 C1066 1.524 . S
C1067 C1068 1.397 . S
C1067 C1072 1.363 . S
C1068 H1045 0.950 . S
C1068 C1067 1.397 . S
C1068 C1069 1.334 . S
C1069 H1046 0.950 . S
C1069 C1068 1.334 . S
C1069 C1070 1.287 . S
C1070 C1069 1.287 . S
C1070 C1071 1.524 . S
C1070 H1089 0.913 . S
C1071 H1047 0.950 . S
C1071 C1070 1.524 . S
C1071 C1072 1.415 . S
C1072 H1048 0.950 . S
C1072 C1067 1.363 . S
C1072 C1071 1.415 . S
C1073 H1049 0.951 . S
C1073 C1074 1.366 . S
C1073 C1075 1.388 . S
C1074 C1073 1.366 . S
C1074 C1078 1.385 . S
C1075 H1050 0.951 . S
C1075 C1073 1.388 . S
C1075 C1076 1.366 . S
C1076 C1075 1.366 . S
C1076 C1077 1.414 . S
C1076 C1079 1.499 . S
C1077 H1051 0.950 . S
C1077 C1076 1.414 . S
C1077 C1078 1.374 . S
C1078 H1052 0.950 . S
C1078 C1074 1.385 . S
C1078 C1077 1.374 . S
C1079 C1076 1.499 . S
C1079 C1080 1.373 . S
C1079 C1081 1.389 . S
C1080 H1053 0.950 . S
C1080 C1066 1.377 . S
C1080 C1079 1.373 . S
C1081 C1065 1.377 . S
C1081 C1079 1.389 . S
C1081 C1082 1.524 . S
C1082 C1081 1.524 . S
C1082 C1083 1.397 . S
C1082 C1087 1.363 . S
C1083 H1054 0.950 . S
C1083 C1082 1.397 . S
C1083 C1084 1.334 . S
C1084 H1055 0.950 . S
C1084 C1083 1.334 . S
C1084 C1085 1.287 . S
C1085 C1084 1.287 . S
C1085 C1086 1.524 . S
C1085 H1088 0.999 . S
C1086 H1056 0.950 . S
C1086 C1085 1.524 . S
C1086 C1087 1.415 . S
C1087 H1057 0.950 . S
C1087 C1082 1.363 . S
C1087 C1086 1.415 . S
H1088 C1085 0.999 . S
H1089 C1070 0.913 . S
H1090 C1108 0.951 . S
H1091 C1110 0.951 . S
H1092 C1112 0.950 . S
H1093 C1113 0.950 . S
H1094 C1115 0.950 . S
H1095 C1118 0.950 . S
H1096 C1119 0.950 . S
H1097 C1121 0.950 . S
H1098 C1122 0.950 . S
H1099 C1123 0.951 . S
H1100 C1125 0.951 . S
H1101 C1127 0.950 . S
H1102 C1128 0.950 . S
H1103 C1130 0.950 . S
H1104 C1133 0.950 . S
H1105 C1134 0.950 . S
H1106 C1136 0.950 . S
H1107 C1137 0.950 . S
C1108 H1090 0.951 . S
C1108 C1109 1.366 . S
C1108 C1110 1.388 . S
C1109 C1108 1.366 . S
C1109 C1113 1.385 . S
C1110 H1091 0.951 . S
C1110 C1108 1.388 . S
C1110 C1111 1.366 . S
C1111 C1110 1.366 . S
C1111 C1112 1.414 . S
C1111 C1114 1.499 . S
C1112 H1092 0.950 . S
C1112 C1111 1.414 . S
C1112 C1113 1.374 . S
C1113 H1093 0.950 . S
C1113 C1109 1.385 . S
C1113 C1112 1.374 . S
C1114 C1111 1.499 . S
C1114 C1115 1.373 . S
C1114 C1116 1.389 . S
C1115 H1094 0.950 . S
C1115 C1114 1.373 . S
C1115 C1131 1.377 . S
C1116 C1114 1.389 . S
C1116 C1117 1.524 . S
C1116 C1130 1.377 . S
C1117 C1116 1.524 . S
C1117 C1118 1.397 . S
C1117 C1122 1.363 . S
C1118 H1095 0.950 . S
C1118 C1117 1.397 . S
C1118 C1119 1.334 . S
C1119 H1096 0.950 . S
C1119 C1118 1.334 . S
C1119 C1120 1.287 . S
C1120 C1119 1.287 . S
C1120 C1121 1.524 . S
C1120 H1139 0.913 . S
C1121 H1097 0.950 . S
C1121 C1120 1.524 . S
C1121 C1122 1.415 . S
C1122 H1098 0.950 . S
C1122 C1117 1.363 . S
C1122 C1121 1.415 . S
C1123 H1099 0.951 . S
C1123 C1124 1.366 . S
C1123 C1125 1.388 . S
C1124 C1123 1.366 . S
C1124 C1128 1.385 . S
C1125 H1100 0.951 . S
C1125 C1123 1.388 . S
C1125 C1126 1.366 . S
C1126 C1125 1.366 . S
C1126 C1127 1.414 . S
C1126 C1129 1.499 . S
C1127 H1101 0.950 . S
C1127 C1126 1.414 . S
C1127 C1128 1.374 . S
C1128 H1102 0.950 . S
C1128 C1124 1.385 . S
C1128 C1127 1.374 . S
C1129 C1126 1.499 . S
C1129 C1130 1.373 . S
C1129 C1131 1.389 . S
C1130 H1103 0.950 . S
C1130 C1116 1.377 . S
C1130 C1129 1.373 . S
C1131 C1115 1.377 . S
C1131 C1129 1.389 . S
C1131 C1132 1.524 . S
C1132 C1131 1.524 . S
C1132 C1133 1.397 . S
C1132 C1137 1.363 . S
C1133 H1104 0.950 . S
C1133 C1132 1.397 . S
C1133 C1134 1.334 . S
C1134 H1105 0.950 . S
C1134 C1133 1.334 . S
C1134 C1135 1.287 1_554 S
C1135 C1134 1.287 1_556 S
C1135 C1136 1.524 . S
C1135 H1138 0.999 . S
C1136 H1106 0.950 . S
C1136 C1135 1.524 . S
C1136 C1137 1.415 1_556 S
C1137 H1107 0.950 . S
C1137 C1132 1.363 . S
C1137 C1136 1.415 1_554 S
H1138 C1135 0.999 . S
H1139 C1120 0.913 . S
H1140 C1158 0.951 . S
H1141 C1160 0.951 . S
H1142 C1162 0.950 . S
H1143 C1163 0.950 . S
H1144 C1165 0.950 1_554 S
H1145 C1168 0.950 . S
H1146 C1169 0.950 . S
H1147 C1171 0.950 . S
H1148 C1172 0.950 . S
H1149 C1173 0.951 . S
H1150 C1175 0.952 1_554 S
H1151 C1177 0.950 . S
H1152 C1178 0.950 . S
H1153 C1180 0.950 . S
H1154 C1183 0.950 . S
H1155 C1184 0.950 . S
H1156 C1186 0.950 . S
H1157 C1187 0.950 . S
C1158 H1140 0.951 . S
C1158 C1159 1.366 . S
C1158 C1160 1.388 . S
C1159 C1158 1.366 . S
C1159 C1163 1.385 . S
C1160 H1141 0.951 . S
C1160 C1158 1.388 . S
C1160 C1161 1.366 . S
C1161 C1160 1.366 . S
C1161 C1162 1.414 . S
C1161 C1164 1.499 . S
C1162 H1142 0.950 . S
C1162 C1161 1.414 . S
C1162 C1163 1.374 . S
C1163 H1143 0.950 . S
C1163 C1159 1.385 . S
C1163 C1162 1.374 . S
C1164 C1161 1.499 . S
C1164 C1165 1.373 . S
C1164 C1166 1.389 . S
C1165 H1144 0.950 1_556 S
C1165 C1164 1.373 . S
C1165 C1181 1.377 . S
C1166 C1164 1.389 . S
C1166 C1167 1.524 . S
C1166 C1180 1.377 . S
C1167 C1166 1.524 . S
C1167 C1168 1.397 . S
C1167 C1172 1.363 . S
C1168 H1145 0.950 . S
C1168 C1167 1.397 . S
C1168 C1169 1.334 . S
C1169 H1146 0.950 . S
C1169 C1168 1.334 . S
C1169 C1170 1.287 . S
C1170 C1169 1.287 . S
C1170 C1171 1.524 . S
C1170 H1189 0.913 . S
C1171 H1147 0.950 . S
C1171 C1170 1.524 . S
C1171 C1172 1.415 . S
C1172 H1148 0.950 . S
C1172 C1167 1.363 . S
C1172 C1171 1.415 . S
C1173 H1149 0.951 . S
C1173 C1174 1.366 1_554 S
C1173 C1175 1.389 1_554 S
C1174 C1173 1.366 1_556 S
C1174 C1178 1.385 . S
C1175 H1150 0.952 1_556 S
C1175 C1173 1.389 1_556 S
C1175 C1176 1.363 . S
C1176 C1175 1.363 . S
C1176 C1177 1.414 . S
C1176 C1179 1.499 . S
C1177 H1151 0.950 . S
C1177 C1176 1.414 . S
C1177 C1178 1.374 . S
C1178 H1152 0.950 . S
C1178 C1174 1.385 . S
C1178 C1177 1.374 . S
C1179 C1176 1.499 . S
C1179 C1180 1.373 . S
C1179 C1181 1.389 . S
C1180 H1153 0.950 . S
C1180 C1166 1.377 . S
C1180 C1179 1.373 . S
C1181 C1165 1.377 . S
C1181 C1179 1.389 . S
C1181 C1182 1.524 1_556 S
C1182 C1181 1.524 1_554 S
C1182 C1183 1.397 . S
C1182 C1187 1.363 . S
C1183 H1154 0.950 . S
C1183 C1182 1.397 . S
C1183 C1184 1.334 . S
C1184 H1155 0.950 . S
C1184 C1183 1.334 . S
C1184 C1185 1.287 . S
C1185 C1184 1.287 . S
C1185 C1186 1.524 . S
C1185 H1188 0.999 . S
C1186 H1156 0.950 . S
C1186 C1185 1.524 . S
C1186 C1187 1.415 . S
C1187 H1157 0.950 . S
C1187 C1182 1.363 . S
C1187 C1186 1.415 . S
H1188 C1185 0.999 . S
H1189 C1170 0.913 . S
H1190 C1208 0.951 . S
H1191 C1210 0.951 . S
H1192 C1212 0.950 . S
H1193 C1213 0.950 . S
H1194 C1215 0.950 . S
H1195 C1218 0.950 . S
H1196 C1219 0.950 1_556 S
H1197 C1221 0.950 . S
H1198 C1222 0.950 . S
H1199 C1223 0.951 . S
H1200 C1225 0.951 . S
H1201 C1227 0.950 . S
H1202 C1228 0.950 . S
H1203 C1230 0.957 1_554 S
H1204 C1233 0.950 . S
H1205 C1234 0.950 . S
H1206 C1236 0.950 . S
H1207 C1237 0.950 . S
C1208 H1190 0.951 . S
C1208 C1209 1.366 . S
C1208 C1210 1.388 . S
C1209 C1208 1.366 . S
C1209 C1213 1.385 . S
C1210 H1191 0.951 . S
C1210 C1208 1.388 . S
C1210 C1211 1.366 . S
C1211 C1210 1.366 . S
C1211 C1212 1.414 . S
C1211 C1214 1.499 . S
C1212 H1192 0.950 . S
C1212 C1211 1.414 . S
C1212 C1213 1.374 . S
C1213 H1193 0.950 . S
C1213 C1209 1.385 . S
C1213 C1212 1.374 . S
C1214 C1211 1.499 . S
C1214 C1215 1.373 . S
C1214 C1216 1.389 . S
C1215 H1194 0.950 . S
C1215 C1214 1.373 . S
C1215 C1231 1.377 . S
C1216 C1214 1.389 . S
C1216 C1217 1.524 1_556 S
C1216 C1230 1.373 . S
C1217 C1216 1.524 1_554 S
C1217 C1218 1.397 1_554 S
C1217 C1222 1.363 . S
C1218 H1195 0.950 . S
C1218 C1217 1.397 1_556 S
C1218 C1219 1.334 1_556 S
C1219 H1196 0.950 1_554 S
C1219 C1218 1.334 1_554 S
C1219 C1220 1.287 . S
C1220 C1219 1.287 . S
C1220 C1221 1.524 . S
C1220 H1239 0.913 . S
C1221 H1197 0.950 . S
C1221 C1220 1.524 . S
C1221 C1222 1.415 . S
C1222 H1198 0.950 . S
C1222 C1217 1.363 . S
C1222 C1221 1.415 . S
C1223 H1199 0.951 . S
C1223 C1224 1.366 1_556 S
C1223 C1225 1.388 . S
C1224 C1223 1.366 1_554 S
C1224 C1228 1.385 . S
C1225 H1200 0.951 . S
C1225 C1223 1.388 . S
C1225 C1226 1.366 . S
C1226 C1225 1.366 . S
C1226 C1227 1.414 1_556 S
C1226 C1229 1.499 . S
C1227 H1201 0.950 . S
C1227 C1226 1.414 1_554 S
C1227 C1228 1.374 . S
C1228 H1202 0.950 . S
C1228 C1224 1.385 . S
C1228 C1227 1.374 . S
C1229 C1226 1.499 . S
C1229 C1230 1.370 . S
C1229 C1231 1.389 . S
C1230 H1203 0.957 1_556 S
C1230 C1216 1.373 . S
C1230 C1229 1.370 . S
C1231 C1215 1.377 . S
C1231 C1229 1.389 . S
C1231 C1232 1.524 . S
C1232 C1231 1.524 . S
C1232 C1233 1.397 . S
C1232 C1237 1.363 . S
C1233 H1204 0.950 . S
C1233 C1232 1.397 . S
C1233 C1234 1.334 . S
C1234 H1205 0.950 . S
C1234 C1233 1.334 . S
C1234 C1235 1.287 . S
C1235 C1234 1.287 . S
C1235 C1236 1.524 . S
C1235 H1238 0.999 . S
C1236 H1206 0.950 . S
C1236 C1235 1.524 . S
C1236 C1237 1.415 . S
C1237 H1207 0.950 . S
C1237 C1232 1.363 . S
C1237 C1236 1.415 . S
H1238 C1235 0.999 . S
H1239 C1220 0.913 . S
H1240 C1258 0.951 . S
H1241 C1260 0.951 . S
H1242 C1262 0.950 . S
H1243 C1263 0.950 . S
H1244 C1265 0.950 . S
H1245 C1268 0.950 1_556 S
H1246 C1269 0.950 . S
H1247 C1271 0.950 . S
H1248 C1272 0.950 . S
H1249 C1273 0.951 . S
H1250 C1275 0.951 . S
H1251 C1277 0.950 . S
H1252 C1278 0.950 . S
H1253 C1280 0.959 . S
H1254 C1283 0.950 . S
H1255 C1284 0.950 . S
H1256 C1286 0.950 . S
H1257 C1287 0.950 . S
C1258 H1240 0.951 . S
C1258 C1259 1.366 . S
C1258 C1260 1.388 . S
C1259 C1258 1.366 . S
C1259 C1263 1.385 . S
C1260 H1241 0.951 . S
C1260 C1258 1.388 . S
C1260 C1261 1.366 . S
C1261 C1260 1.366 . S
C1261 C1262 1.414 . S
C1261 C1264 1.499 . S
C1262 H1242 0.950 . S
C1262 C1261 1.414 . S
C1262 C1263 1.374 . S
C1263 H1243 0.950 . S
C1263 C1259 1.385 . S
C1263 C1262 1.374 . S
C1264 C1261 1.499 . S
C1264 C1265 1.373 . S
C1264 C1266 1.389 . S
C1265 H1244 0.950 . S
C1265 C1264 1.373 . S
C1265 C1281 1.377 . S
C1266 C1264 1.389 . S
C1266 C1267 1.524 1_556 S
C1266 C1280 1.375 1_556 S
C1267 C1266 1.524 1_554 S
C1267 C1268 1.397 . S
C1267 C1272 1.363 . S
C1268 H1245 0.950 1_554 S
C1268 C1267 1.397 . S
C1268 C1269 1.334 . S
C1269 H1246 0.950 . S
C1269 C1268 1.334 . S
C1269 C1270 1.287 . S
C1270 C1269 1.287 . S
C1270 C1271 1.524 . S
C1270 H1289 0.913 . S
C1271 H1247 0.950 . S
C1271 C1270 1.524 . S
C1271 C1272 1.415 . S
C1272 H1248 0.950 . S
C1272 C1267 1.363 . S
C1272 C1271 1.415 . S
C1273 H1249 0.951 . S
C1273 C1274 1.366 1_556 S
C1273 C1275 1.388 . S
C1274 C1273 1.366 1_554 S
C1274 C1278 1.385 . S
C1275 H1250 0.951 . S
C1275 C1273 1.388 . S
C1275 C1276 1.366 . S
C1276 C1275 1.366 . S
C1276 C1277 1.414 1_556 S
C1276 C1279 1.499 . S
C1277 H1251 0.950 . S
C1277 C1276 1.414 1_554 S
C1277 C1278 1.374 . S
C1278 H1252 0.950 . S
C1278 C1274 1.385 . S
C1278 C1277 1.374 . S
C1279 C1276 1.499 . S
C1279 C1280 1.366 1_556 S
C1279 C1281 1.389 . S
C1280 H1253 0.959 . S
C1280 C1266 1.375 1_554 S
C1280 C1279 1.366 1_554 S
C1281 C1265 1.377 . S
C1281 C1279 1.389 . S
C1281 C1282 1.524 . S
C1282 C1281 1.524 . S
C1282 C1283 1.397 . S
C1282 C1287 1.363 . S
C1283 H1254 0.950 . S
C1283 C1282 1.397 . S
C1283 C1284 1.334 . S
C1284 H1255 0.950 . S
C1284 C1283 1.334 . S
C1284 C1285 1.287 . S
C1285 C1284 1.287 . S
C1285 C1286 1.524 . S
C1285 H1288 0.999 . S
C1286 H1256 0.950 . S
C1286 C1285 1.524 . S
C1286 C1287 1.415 . S
C1287 H1257 0.950 . S
C1287 C1282 1.363 . S
C1287 C1286 1.415 . S
H1288 C1285 0.999 . S
H1289 C1270 0.913 . S
H1290 C1308 0.951 . S
H1291 C1310 0.951 . S
H1292 C1312 0.950 . S
H1293 C1313 0.950 . S
H1294 C1315 0.950 . S
H1295 C1318 0.950 . S
H1296 C1319 0.950 . S
H1297 C1321 0.950 . S
H1298 C1322 0.950 . S
H1299 C1323 0.951 . S
H1300 C1325 0.951 . S
H1301 C1327 0.950 . S
H1302 C1328 0.950 . S
H1303 C1330 0.950 . S
H1304 C1333 0.950 . S
H1305 C1334 0.950 . S
H1306 C1336 0.950 . S
H1307 C1337 0.950 . S
C1308 H1290 0.951 . S
C1308 C1309 1.366 . S
C1308 C1310 1.388 . S
C1309 C1308 1.366 . S
C1309 C1313 1.385 . S
C1310 H1291 0.951 . S
C1310 C1308 1.388 . S
C1310 C1311 1.366 . S
C1311 C1310 1.366 . S
C1311 C1312 1.414 . S
C1311 C1314 1.499 . S
C1312 H1292 0.950 . S
C1312 C1311 1.414 . S
C1312 C1313 1.374 . S
C1313 H1293 0.950 . S
C1313 C1309 1.385 . S
C1313 C1312 1.374 . S
C1314 C1311 1.499 . S
C1314 C1315 1.373 . S
C1314 C1316 1.389 . S
C1315 H1294 0.950 . S
C1315 C1314 1.373 . S
C1315 C1331 1.377 . S
C1316 C1314 1.389 . S
C1316 C1317 1.524 . S
C1316 C1330 1.377 . S
C1317 C1316 1.524 . S
C1317 C1318 1.397 . S
C1317 C1322 1.363 . S
C1318 H1295 0.950 . S
C1318 C1317 1.397 . S
C1318 C1319 1.334 . S
C1319 H1296 0.950 . S
C1319 C1318 1.334 . S
C1319 C1320 1.287 . S
C1320 C1319 1.287 . S
C1320 C1321 1.524 . S
C1320 H1339 0.913 . S
C1321 H1297 0.950 . S
C1321 C1320 1.524 . S
C1321 C1322 1.415 . S
C1322 H1298 0.950 . S
C1322 C1317 1.363 . S
C1322 C1321 1.415 . S
C1323 H1299 0.951 . S
C1323 C1324 1.366 1_556 S
C1323 C1325 1.388 . S
C1324 C1323 1.366 1_554 S
C1324 C1328 1.385 . S
C1325 H1300 0.951 . S
C1325 C1323 1.388 . S
C1325 C1326 1.366 . S
C1326 C1325 1.366 . S
C1326 C1327 1.414 1_556 S
C1326 C1329 1.499 . S
C1327 H1301 0.950 . S
C1327 C1326 1.414 1_554 S
C1327 C1328 1.374 . S
C1328 H1302 0.950 . S
C1328 C1324 1.385 . S
C1328 C1327 1.374 . S
C1329 C1326 1.499 . S
C1329 C1330 1.373 . S
C1329 C1331 1.389 . S
C1330 H1303 0.950 . S
C1330 C1316 1.377 . S
C1330 C1329 1.373 . S
C1331 C1315 1.377 . S
C1331 C1329 1.389 . S
C1331 C1332 1.524 . S
C1332 C1331 1.524 . S
C1332 C1333 1.397 1_556 S
C1332 C1337 1.363 . S
C1333 H1304 0.950 . S
C1333 C1332 1.397 1_554 S
C1333 C1334 1.334 . S
C1334 H1305 0.950 . S
C1334 C1333 1.334 . S
C1334 C1335 1.287 . S
C1335 C1334 1.287 . S
C1335 C1336 1.524 1_554 S
C1335 H1338 0.999 . S
C1336 H1306 0.950 . S
C1336 C1335 1.524 1_556 S
C1336 C1337 1.415 . S
C1337 H1307 0.950 . S
C1337 C1332 1.363 . S
C1337 C1336 1.415 . S
H1338 C1335 0.999 . S
H1339 C1320 0.913 . S
H1340 C1358 0.951 . S
H1341 C1360 0.951 . S
H1342 C1362 0.950 . S
H1343 C1363 0.950 . S
H1344 C1365 0.950 . S
H1345 C1368 0.950 . S
H1346 C1369 0.950 . S
H1347 C1371 0.950 . S
H1348 C1372 0.950 . S
H1349 C1373 0.951 . S
H1350 C1375 0.951 . S
H1351 C1377 0.950 . S
H1352 C1378 0.950 . S
H1353 C1380 0.950 . S
H1354 C1383 0.950 . S
H1355 C1384 0.950 . S
H1356 C1386 0.950 . S
H1357 C1387 0.950 . S
C1358 H1340 0.951 . S
C1358 C1359 1.366 . S
C1358 C1360 1.388 . S
C1359 C1358 1.366 . S
C1359 C1363 1.385 . S
C1360 H1341 0.951 . S
C1360 C1358 1.388 . S
C1360 C1361 1.366 . S
C1361 C1360 1.366 . S
C1361 C1362 1.414 . S
C1361 C1364 1.499 . S
C1362 H1342 0.950 . S
C1362 C1361 1.414 . S
C1362 C1363 1.374 . S
C1363 H1343 0.950 . S
C1363 C1359 1.385 . S
C1363 C1362 1.374 . S
C1364 C1361 1.499 . S
C1364 C1365 1.373 . S
C1364 C1366 1.389 . S
C1365 H1344 0.950 . S
C1365 C1364 1.373 . S
C1365 C1381 1.377 . S
C1366 C1364 1.389 . S
C1366 C1367 1.524 . S
C1366 C1380 1.377 . S
C1367 C1366 1.524 . S
C1367 C1368 1.397 . S
C1367 C1372 1.363 . S
C1368 H1345 0.950 . S
C1368 C1367 1.397 . S
C1368 C1369 1.334 . S
C1369 H1346 0.950 . S
C1369 C1368 1.334 . S
C1369 C1370 1.287 . S
C1370 C1369 1.287 . S
C1370 C1371 1.524 . S
C1370 H1389 0.913 . S
C1371 H1347 0.950 . S
C1371 C1370 1.524 . S
C1371 C1372 1.415 . S
C1372 H1348 0.950 . S
C1372 C1367 1.363 . S
C1372 C1371 1.415 . S
C1373 H1349 0.951 . S
C1373 C1374 1.366 . S
C1373 C1375 1.388 . S
C1374 C1373 1.366 . S
C1374 C1378 1.385 . S
C1375 H1350 0.951 . S
C1375 C1373 1.388 . S
C1375 C1376 1.366 . S
C1376 C1375 1.366 . S
C1376 C1377 1.414 . S
C1376 C1379 1.499 . S
C1377 H1351 0.950 . S
C1377 C1376 1.414 . S
C1377 C1378 1.374 . S
C1378 H1352 0.950 . S
C1378 C1374 1.385 . S
C1378 C1377 1.374 . S
C1379 C1376 1.499 . S
C1379 C1380 1.373 . S
C1379 C1381 1.389 . S
C1380 H1353 0.950 . S
C1380 C1366 1.377 . S
C1380 C1379 1.373 . S
C1381 C1365 1.377 . S
C1381 C1379 1.389 . S
C1381 C1382 1.524 . S
C1382 C1381 1.524 . S
C1382 C1383 1.397 1_556 S
C1382 C1387 1.363 . S
C1383 H1354 0.950 . S
C1383 C1382 1.397 1_554 S
C1383 C1384 1.334 . S
C1384 H1355 0.950 . S
C1384 C1383 1.334 . S
C1384 C1385 1.287 . S
C1385 C1384 1.287 . S
C1385 C1386 1.524 . S
C1385 H1388 0.999 . S
C1386 H1356 0.950 . S
C1386 C1385 1.524 . S
C1386 C1387 1.415 1_554 S
C1387 H1357 0.950 . S
C1387 C1382 1.363 . S
C1387 C1386 1.415 1_556 S
H1388 C1385 0.999 . S
H1389 C1370 0.913 . S
H1390 C1408 0.951 . S
H1391 C1410 0.951 . S
H1392 C1412 0.950 . S
H1393 C1413 0.950 . S
H1394 C1415 0.950 . S
H1395 C1418 0.950 . S
H1396 C1419 0.950 . S
H1397 C1421 0.950 . S
H1398 C1422 0.950 1_556 S
H1399 C1423 0.951 . S
H1400 C1425 0.951 . S
H1401 C1427 0.950 1_556 S
H1402 C1428 0.950 . S
H1403 C1430 0.950 . S
H1404 C1433 0.950 . S
H1405 C1434 0.950 . S
H1406 C1436 0.950 . S
H1407 C1437 0.950 . S
C1408 H1390 0.951 . S
C1408 C1409 1.366 . S
C1408 C1410 1.388 . S
C1409 C1408 1.366 . S
C1409 C1413 1.385 . S
C1410 H1391 0.951 . S
C1410 C1408 1.388 . S
C1410 C1411 1.366 . S
C1411 C1410 1.366 . S
C1411 C1412 1.414 . S
C1411 C1414 1.499 . S
C1412 H1392 0.950 . S
C1412 C1411 1.414 . S
C1412 C1413 1.374 . S
C1413 H1393 0.950 . S
C1413 C1409 1.385 . S
C1413 C1412 1.374 . S
C1414 C1411 1.499 . S
C1414 C1415 1.373 . S
C1414 C1416 1.389 . S
C1415 H1394 0.950 . S
C1415 C1414 1.373 . S
C1415 C1431 1.377 . S
C1416 C1414 1.389 . S
C1416 C1417 1.524 1_556 S
C1416 C1430 1.377 1_556 S
C1417 C1416 1.524 1_554 S
C1417 C1418 1.397 . S
C1417 C1422 1.363 . S
C1418 H1395 0.950 . S
C1418 C1417 1.397 . S
C1418 C1419 1.334 . S
C1419 H1396 0.950 . S
C1419 C1418 1.334 . S
C1419 C1420 1.287 . S
C1420 C1419 1.287 . S
C1420 C1421 1.524 . S
C1420 H1439 0.913 . S
C1421 H1397 0.950 . S
C1421 C1420 1.524 . S
C1421 C1422 1.415 . S
C1422 H1398 0.950 1_554 S
C1422 C1417 1.363 . S
C1422 C1421 1.415 . S
C1423 H1399 0.951 . S
C1423 C1424 1.366 . S
C1423 C1425 1.388 . S
C1424 C1423 1.366 . S
C1424 C1428 1.385 . S
C1425 H1400 0.951 . S
C1425 C1423 1.388 . S
C1425 C1426 1.366 . S
C1426 C1425 1.366 . S
C1426 C1427 1.414 . S
C1426 C1429 1.499 1_554 S
C1427 H1401 0.950 1_554 S
C1427 C1426 1.414 . S
C1427 C1428 1.374 . S
C1428 H1402 0.950 . S
C1428 C1424 1.385 . S
C1428 C1427 1.374 . S
C1429 C1426 1.499 1_556 S
C1429 C1430 1.373 1_556 S
C1429 C1431 1.389 . S
C1430 H1403 0.950 . S
C1430 C1416 1.377 1_554 S
C1430 C1429 1.373 1_554 S
C1431 C1415 1.377 . S
C1431 C1429 1.389 . S
C1431 C1432 1.524 . S
C1432 C1431 1.524 . S
C1432 C1433 1.397 . S
C1432 C1437 1.363 . S
C1433 H1404 0.950 . S
C1433 C1432 1.397 . S
C1433 C1434 1.334 . S
C1434 H1405 0.950 . S
C1434 C1433 1.334 . S
C1434 C1435 1.287 . S
C1435 C1434 1.287 . S
C1435 C1436 1.524 . S
C1435 H1438 0.999 . S
C1436 H1406 0.950 . S
C1436 C1435 1.524 . S
C1436 C1437 1.415 . S
C1437 H1407 0.950 . S
C1437 C1432 1.363 . S
C1437 C1436 1.415 . S
H1438 C1435 0.999 . S
H1439 C1420 0.913 . S
H1440 C1458 0.951 . S
H1441 C1460 0.951 . S
H1442 C1462 0.950 . S
H1443 C1463 0.950 . S
H1444 C1465 0.950 . S
H1445 C1468 0.950 . S
H1446 C1469 0.950 . S
H1447 C1471 0.945 . S
H1448 C1472 0.950 . S
H1449 C1473 0.951 . S
H1450 C1475 0.951 . S
H1451 C1477 0.950 . S
H1452 C1478 0.950 1_556 S
H1453 C1480 0.950 . S
H1454 C1483 0.950 . S
H1455 C1484 0.950 . S
H1456 C1486 0.950 . S
H1457 C1487 0.950 . S
C1458 H1440 0.951 . S
C1458 C1459 1.366 . S
C1458 C1460 1.388 . S
C1459 C1458 1.366 . S
C1459 C1463 1.385 . S
C1460 H1441 0.951 . S
C1460 C1458 1.388 . S
C1460 C1461 1.366 . S
C1461 C1460 1.366 . S
C1461 C1462 1.414 . S
C1461 C1464 1.499 . S
C1462 H1442 0.950 . S
C1462 C1461 1.414 . S
C1462 C1463 1.374 . S
C1463 H1443 0.950 . S
C1463 C1459 1.385 . S
C1463 C1462 1.374 . S
C1464 C1461 1.499 . S
C1464 C1465 1.373 . S
C1464 C1466 1.389 . S
C1465 H1444 0.950 . S
C1465 C1464 1.373 . S
C1465 C1481 1.377 . S
C1466 C1464 1.389 . S
C1466 C1467 1.524 . S
C1466 C1480 1.377 . S
C1467 C1466 1.524 . S
C1467 C1468 1.397 . S
C1467 C1472 1.363 . S
C1468 H1445 0.950 . S
C1468 C1467 1.397 . S
C1468 C1469 1.334 . S
C1469 H1446 0.950 . S
C1469 C1468 1.334 . S
C1469 C1470 1.287 . S
C1470 C1469 1.287 . S
C1470 C1471 1.524 . S
C1470 H1489 0.913 . S
C1471 H1447 0.945 . S
C1471 C1470 1.524 . S
C1471 C1472 1.415 . S
C1472 H1448 0.950 . S
C1472 C1467 1.363 . S
C1472 C1471 1.415 . S
C1473 H1449 0.951 . S
C1473 C1474 1.366 . S
C1473 C1475 1.388 . S
C1474 C1473 1.366 . S
C1474 C1478 1.385 . S
C1475 H1450 0.951 . S
C1475 C1473 1.388 . S
C1475 C1476 1.366 . S
C1476 C1475 1.366 . S
C1476 C1477 1.414 . S
C1476 C1479 1.499 . S
C1477 H1451 0.950 . S
C1477 C1476 1.414 . S
C1477 C1478 1.374 . S
C1478 H1452 0.950 1_554 S
C1478 C1474 1.385 . S
C1478 C1477 1.374 . S
C1479 C1476 1.499 . S
C1479 C1480 1.373 . S
C1479 C1481 1.389 . S
C1480 H1453 0.950 . S
C1480 C1466 1.377 . S
C1480 C1479 1.373 . S
C1481 C1465 1.377 . S
C1481 C1479 1.389 . S
C1481 C1482 1.524 . S
C1482 C1481 1.524 . S
C1482 C1483 1.397 . S
C1482 C1487 1.363 . S
C1483 H1454 0.950 . S
C1483 C1482 1.397 . S
C1483 C1484 1.334 . S
C1484 H1455 0.950 . S
C1484 C1483 1.334 . S
C1484 C1485 1.287 . S
C1485 C1484 1.287 . S
C1485 C1486 1.524 . S
C1485 H1488 0.999 . S
C1486 H1456 0.950 . S
C1486 C1485 1.524 . S
C1486 C1487 1.415 . S
C1487 H1457 0.950 . S
C1487 C1482 1.363 . S
C1487 C1486 1.415 . S
H1488 C1485 0.999 . S
H1489 C1470 0.913 . S
H1490 C1508 0.951 . S
H1491 C1510 0.951 . S
H1492 C1512 0.950 . S
H1493 C1513 0.950 . S
H1494 C1515 0.950 . S
H1495 C1518 0.950 . S
H1496 C1519 0.950 . S
H1497 C1521 0.950 . S
H1498 C1522 0.950 . S
H1499 C1523 0.951 . S
H1500 C1525 0.951 . S
H1501 C1527 0.950 . S
H1502 C1528 0.950 . S
H1503 C1530 0.950 . S
H1504 C1533 0.950 . S
H1505 C1534 0.950 . S
H1506 C1536 0.950 . S
H1507 C1537 0.950 . S
C1508 H1490 0.951 . S
C1508 C1509 1.366 . S
C1508 C1510 1.388 . S
C1509 C1508 1.366 . S
C1509 C1513 1.385 . S
C1510 H1491 0.951 . S
C1510 C1508 1.388 . S
C1510 C1511 1.366 . S
C1511 C1510 1.366 . S
C1511 C1512 1.414 . S
C1511 C1514 1.499 . S
C1512 H1492 0.950 . S
C1512 C1511 1.414 . S
C1512 C1513 1.374 . S
C1513 H1493 0.950 . S
C1513 C1509 1.385 . S
C1513 C1512 1.374 . S
C1514 C1511 1.499 . S
C1514 C1515 1.373 . S
C1514 C1516 1.389 . S
C1515 H1494 0.950 . S
C1515 C1514 1.373 . S
C1515 C1531 1.377 . S
C1516 C1514 1.389 . S
C1516 C1517 1.524 . S
C1516 C1530 1.377 . S
C1517 C1516 1.524 . S
C1517 C1518 1.397 . S
C1517 C1522 1.363 . S
C1518 H1495 0.950 . S
C1518 C1517 1.397 . S
C1518 C1519 1.334 . S
C1519 H1496 0.950 . S
C1519 C1518 1.334 . S
C1519 C1520 1.287 . S
C1520 C1519 1.287 . S
C1520 C1521 1.524 . S
C1520 H1539 0.913 . S
C1521 H1497 0.950 . S
C1521 C1520 1.524 . S
C1521 C1522 1.415 . S
C1522 H1498 0.950 . S
C1522 C1517 1.363 . S
C1522 C1521 1.415 . S
C1523 H1499 0.951 . S
C1523 C1524 1.366 . S
C1523 C1525 1.388 . S
C1524 C1523 1.366 . S
C1524 C1528 1.385 . S
C1525 H1500 0.951 . S
C1525 C1523 1.388 . S
C1525 C1526 1.366 . S
C1526 C1525 1.366 . S
C1526 C1527 1.414 . S
C1526 C1529 1.499 . S
C1527 H1501 0.950 . S
C1527 C1526 1.414 . S
C1527 C1528 1.374 . S
C1528 H1502 0.950 . S
C1528 C1524 1.385 . S
C1528 C1527 1.374 . S
C1529 C1526 1.499 . S
C1529 C1530 1.373 . S
C1529 C1531 1.389 . S
C1530 H1503 0.950 . S
C1530 C1516 1.377 . S
C1530 C1529 1.373 . S
C1531 C1515 1.377 . S
C1531 C1529 1.389 . S
C1531 C1532 1.524 . S
C1532 C1531 1.524 . S
C1532 C1533 1.397 . S
C1532 C1537 1.363 . S
C1533 H1504 0.950 . S
C1533 C1532 1.397 . S
C1533 C1534 1.334 . S
C1534 H1505 0.950 . S
C1534 C1533 1.334 . S
C1534 C1535 1.287 . S
C1535 C1534 1.287 . S
C1535 C1536 1.524 . S
C1535 H1538 0.999 . S
C1536 H1506 0.950 . S
C1536 C1535 1.524 . S
C1536 C1537 1.415 . S
C1537 H1507 0.950 . S
C1537 C1532 1.363 . S
C1537 C1536 1.415 . S
H1538 C1535 0.999 . S
H1539 C1520 0.913 . S
H1540 C1558 0.951 . S
H1541 C1560 0.951 . S
H1542 C1562 0.950 . S
H1543 C1563 0.950 . S
H1544 C1565 0.950 . S
H1545 C1568 0.950 . S
H1546 C1569 0.950 . S
H1547 C1571 0.950 . S
H1548 C1572 0.950 . S
H1549 C1573 0.951 . S
H1550 C1575 0.951 . S
H1551 C1577 0.950 . S
H1552 C1578 0.950 . S
H1553 C1580 0.950 . S
H1554 C1583 0.950 . S
H1555 C1584 0.950 . S
H1556 C1586 0.950 . S
H1557 C1587 0.950 . S
C1558 H1540 0.951 . S
C1558 C1559 1.366 . S
C1558 C1560 1.388 . S
C1559 C1558 1.366 . S
C1559 C1563 1.385 . S
C1560 H1541 0.951 . S
C1560 C1558 1.388 . S
C1560 C1561 1.366 . S
C1561 C1560 1.366 . S
C1561 C1562 1.414 . S
C1561 C1564 1.499 . S
C1562 H1542 0.950 . S
C1562 C1561 1.414 . S
C1562 C1563 1.374 . S
C1563 H1543 0.950 . S
C1563 C1559 1.385 . S
C1563 C1562 1.374 . S
C1564 C1561 1.499 . S
C1564 C1565 1.373 . S
C1564 C1566 1.389 . S
C1565 H1544 0.950 . S
C1565 C1564 1.373 . S
C1565 C1581 1.377 . S
C1566 C1564 1.389 . S
C1566 C1567 1.524 . S
C1566 C1580 1.377 . S
C1567 C1566 1.524 . S
C1567 C1568 1.397 . S
C1567 C1572 1.363 . S
C1568 H1545 0.950 . S
C1568 C1567 1.397 . S
C1568 C1569 1.334 . S
C1569 H1546 0.950 . S
C1569 C1568 1.334 . S
C1569 C1570 1.287 . S
C1570 C1569 1.287 . S
C1570 C1571 1.524 . S
C1570 H1589 0.913 . S
C1571 H1547 0.950 . S
C1571 C1570 1.524 . S
C1571 C1572 1.415 . S
C1572 H1548 0.950 . S
C1572 C1567 1.363 . S
C1572 C1571 1.415 . S
C1573 H1549 0.951 . S
C1573 C1574 1.366 . S
C1573 C1575 1.388 . S
C1574 C1573 1.366 . S
C1574 C1578 1.385 . S
C1575 H1550 0.951 . S
C1575 C1573 1.388 . S
C1575 C1576 1.366 . S
C1576 C1575 1.366 . S
C1576 C1577 1.414 . S
C1576 C1579 1.499 . S
C1577 H1551 0.950 . S
C1577 C1576 1.414 . S
C1577 C1578 1.374 . S
C1578 H1552 0.950 . S
C1578 C1574 1.385 . S
C1578 C1577 1.374 . S
C1579 C1576 1.499 . S
C1579 C1580 1.373 . S
C1579 C1581 1.389 . S
C1580 H1553 0.950 . S
C1580 C1566 1.377 . S
C1580 C1579 1.373 . S
C1581 C1565 1.377 . S
C1581 C1579 1.389 . S
C1581 C1582 1.524 . S
C1582 C1581 1.524 . S
C1582 C1583 1.397 . S
C1582 C1587 1.363 . S
C1583 H1554 0.950 . S
C1583 C1582 1.397 . S
C1583 C1584 1.334 . S
C1584 H1555 0.950 . S
C1584 C1583 1.334 . S
C1584 C1585 1.287 . S
C1585 C1584 1.287 . S
C1585 C1586 1.524 . S
C1585 H1588 0.999 . S
C1586 H1556 0.950 . S
C1586 C1585 1.524 . S
C1586 C1587 1.415 . S
C1587 H1557 0.950 . S
C1587 C1582 1.363 . S
C1587 C1586 1.415 . S
H1588 C1585 0.999 . S
H1589 C1570 0.913 . S
H1590 C1608 0.951 . S
H1591 C1610 0.951 . S
H1592 C1612 0.950 . S
H1593 C1613 0.950 . S
H1594 C1615 0.950 . S
H1595 C1618 0.950 . S
H1596 C1619 0.950 . S
H1597 C1621 0.950 . S
H1598 C1622 0.950 . S
H1599 C1623 0.951 . S
H1600 C1625 0.951 . S
H1601 C1627 0.950 . S
H1602 C1628 0.950 . S
H1603 C1630 0.950 . S
H1604 C1633 0.950 . S
H1605 C1634 0.950 . S
H1606 C1636 0.950 . S
H1607 C1637 0.950 . S
C1608 H1590 0.951 . S
C1608 C1609 1.366 . S
C1608 C1610 1.388 . S
C1609 C1608 1.366 . S
C1609 C1613 1.385 . S
C1610 H1591 0.951 . S
C1610 C1608 1.388 . S
C1610 C1611 1.366 . S
C1611 C1610 1.366 . S
C1611 C1612 1.414 . S
C1611 C1614 1.499 . S
C1612 H1592 0.950 . S
C1612 C1611 1.414 . S
C1612 C1613 1.374 . S
C1613 H1593 0.950 . S
C1613 C1609 1.385 . S
C1613 C1612 1.374 . S
C1614 C1611 1.499 . S
C1614 C1615 1.373 1_655 S
C1614 C1616 1.389 1_655 S
C1615 H1594 0.950 . S
C1615 C1614 1.373 1_455 S
C1615 C1631 1.377 . S
C1616 C1614 1.389 1_455 S
C1616 C1617 1.524 1_455 S
C1616 C1630 1.377 . S
C1617 C1616 1.524 1_655 S
C1617 C1618 1.397 . S
C1617 C1622 1.363 . S
C1618 H1595 0.950 . S
C1618 C1617 1.397 . S
C1618 C1619 1.334 . S
C1619 H1596 0.950 . S
C1619 C1618 1.334 . S
C1619 C1620 1.287 . S
C1620 C1619 1.287 . S
C1620 C1621 1.524 . S
C1620 H1639 0.913 . S
C1621 H1597 0.950 . S
C1621 C1620 1.524 . S
C1621 C1622 1.415 . S
C1622 H1598 0.950 . S
C1622 C1617 1.363 . S
C1622 C1621 1.415 . S
C1623 H1599 0.951 . S
C1623 C1624 1.366 . S
C1623 C1625 1.388 . S
C1624 C1623 1.366 . S
C1624 C1628 1.385 . S
C1625 H1600 0.951 . S
C1625 C1623 1.388 . S
C1625 C1626 1.366 . S
C1626 C1625 1.366 . S
C1626 C1627 1.414 . S
C1626 C1629 1.499 . S
C1627 H1601 0.950 . S
C1627 C1626 1.414 . S
C1627 C1628 1.374 . S
C1628 H1602 0.950 . S
C1628 C1624 1.385 . S
C1628 C1627 1.374 . S
C1629 C1626 1.499 . S
C1629 C1630 1.373 . S
C1629 C1631 1.389 . S
C1630 H1603 0.950 . S
C1630 C1616 1.377 . S
C1630 C1629 1.373 . S
C1631 C1615 1.377 . S
C1631 C1629 1.389 . S
C1631 C1632 1.524 . S
C1632 C1631 1.524 . S
C1632 C1633 1.397 . S
C1632 C1637 1.363 . S
C1633 H1604 0.950 . S
C1633 C1632 1.397 . S
C1633 C1634 1.334 . S
C1634 H1605 0.950 . S
C1634 C1633 1.334 . S
C1634 C1635 1.287 . S
C1635 C1634 1.287 . S
C1635 C1636 1.524 . S
C1635 H1638 0.999 . S
C1636 H1606 0.950 . S
C1636 C1635 1.524 . S
C1636 C1637 1.415 . S
C1637 H1607 0.950 . S
C1637 C1632 1.363 . S
C1637 C1636 1.415 . S
H1638 C1635 0.999 . S
H1639 C1620 0.913 . S
H1640 C1658 0.951 . S
H1641 C1660 0.951 . S
H1642 C1662 0.950 . S
H1643 C1663 0.950 . S
H1644 C1665 0.950 . S
H1645 C1668 0.950 . S
H1646 C1669 0.950 . S
H1647 C1671 0.950 . S
H1648 C1672 0.950 . S
H1649 C1673 0.951 . S
H1650 C1675 0.951 . S
H1651 C1677 0.950 . S
H1652 C1678 0.950 . S
H1653 C1680 0.950 . S
H1654 C1683 0.950 . S
H1655 C1684 0.950 . S
H1656 C1686 0.950 . S
H1657 C1687 0.950 . S
C1658 H1640 0.951 . S
C1658 C1659 1.366 . S
C1658 C1660 1.388 . S
C1659 C1658 1.366 . S
C1659 C1663 1.385 . S
C1660 H1641 0.951 . S
C1660 C1658 1.388 . S
C1660 C1661 1.366 . S
C1661 C1660 1.366 . S
C1661 C1662 1.414 . S
C1661 C1664 1.499 . S
C1662 H1642 0.950 . S
C1662 C1661 1.414 . S
C1662 C1663 1.374 . S
C1663 H1643 0.950 . S
C1663 C1659 1.385 . S
C1663 C1662 1.374 . S
C1664 C1661 1.499 . S
C1664 C1665 1.373 . S
C1664 C1666 1.389 . S
C1665 H1644 0.950 . S
C1665 C1664 1.373 . S
C1665 C1681 1.377 . S
C1666 C1664 1.389 . S
C1666 C1667 1.524 . S
C1666 C1680 1.377 . S
C1667 C1666 1.524 . S
C1667 C1668 1.397 . S
C1667 C1672 1.363 . S
C1668 H1645 0.950 . S
C1668 C1667 1.397 . S
C1668 C1669 1.334 . S
C1669 H1646 0.950 . S
C1669 C1668 1.334 . S
C1669 C1670 1.287 . S
C1670 C1669 1.287 . S
C1670 C1671 1.524 . S
C1670 H1689 0.913 . S
C1671 H1647 0.950 . S
C1671 C1670 1.524 . S
C1671 C1672 1.415 . S
C1672 H1648 0.950 . S
C1672 C1667 1.363 . S
C1672 C1671 1.415 . S
C1673 H1649 0.951 . S
C1673 C1674 1.366 . S
C1673 C1675 1.388 . S
C1674 C1673 1.366 . S
C1674 C1678 1.385 . S
C1675 H1650 0.951 . S
C1675 C1673 1.388 . S
C1675 C1676 1.366 . S
C1676 C1675 1.366 . S
C1676 C1677 1.414 . S
C1676 C1679 1.499 . S
C1677 H1651 0.950 . S
C1677 C1676 1.414 . S
C1677 C1678 1.374 . S
C1678 H1652 0.950 . S
C1678 C1674 1.385 . S
C1678 C1677 1.374 . S
C1679 C1676 1.499 . S
C1679 C1680 1.373 . S
C1679 C1681 1.389 . S
C1680 H1653 0.950 . S
C1680 C1666 1.377 . S
C1680 C1679 1.373 . S
C1681 C1665 1.377 . S
C1681 C1679 1.389 . S
C1681 C1682 1.524 . S
C1682 C1681 1.524 . S
C1682 C1683 1.397 . S
C1682 C1687 1.363 . S
C1683 H1654 0.950 . S
C1683 C1682 1.397 . S
C1683 C1684 1.334 . S
C1684 H1655 0.950 . S
C1684 C1683 1.334 . S
C1684 C1685 1.287 . S
C1685 C1684 1.287 . S
C1685 C1686 1.524 . S
C1685 H1688 0.999 . S
C1686 H1656 0.950 . S
C1686 C1685 1.524 . S
C1686 C1687 1.415 . S
C1687 H1657 0.950 . S
C1687 C1682 1.363 . S
C1687 C1686 1.415 . S
H1688 C1685 0.999 . S
H1689 C1670 0.913 . S
H1690 C1708 0.951 . S
H1691 C1710 0.951 . S
H1692 C1712 0.950 . S
H1693 C1713 0.950 . S
H1694 C1715 0.950 1_545 S
H1695 C1718 0.950 . S
H1696 C1719 0.950 . S
H1697 C1721 0.950 . S
H1698 C1722 0.950 . S
H1699 C1723 0.951 . S
H1700 C1725 0.951 . S
H1701 C1727 0.950 . S
H1702 C1728 0.950 . S
H1703 C1730 0.950 . S
H1704 C1733 0.950 . S
H1705 C1734 0.950 . S
H1706 C1736 0.950 . S
H1707 C1737 0.950 . S
C1708 H1690 0.951 . S
C1708 C1709 1.366 . S
C1708 C1710 1.388 . S
C1709 C1708 1.366 . S
C1709 C1713 1.385 . S
C1710 H1691 0.951 . S
C1710 C1708 1.388 . S
C1710 C1711 1.366 . S
C1711 C1710 1.366 . S
C1711 C1712 1.414 . S
C1711 C1714 1.499 1_545 S
C1712 H1692 0.950 . S
C1712 C1711 1.414 . S
C1712 C1713 1.374 . S
C1713 H1693 0.950 . S
C1713 C1709 1.385 . S
C1713 C1712 1.374 . S
C1714 C1711 1.499 1_565 S
C1714 C1715 1.373 . S
C1714 C1716 1.389 . S
C1715 H1694 0.950 1_565 S
C1715 C1714 1.373 . S
C1715 C1731 1.377 . S
C1716 C1714 1.389 . S
C1716 C1717 1.524 . S
C1716 C1730 1.377 . S
C1717 C1716 1.524 . S
C1717 C1718 1.397 . S
C1717 C1722 1.363 . S
C1718 H1695 0.950 . S
C1718 C1717 1.397 . S
C1718 C1719 1.334 . S
C1719 H1696 0.950 . S
C1719 C1718 1.334 . S
C1719 C1720 1.287 . S
C1720 C1719 1.287 . S
C1720 C1721 1.524 . S
C1720 H1739 0.913 . S
C1721 H1697 0.950 . S
C1721 C1720 1.524 . S
C1721 C1722 1.415 . S
C1722 H1698 0.950 . S
C1722 C1717 1.363 . S
C1722 C1721 1.415 . S
C1723 H1699 0.951 . S
C1723 C1724 1.366 . S
C1723 C1725 1.388 . S
C1724 C1723 1.366 . S
C1724 C1728 1.385 . S
C1725 H1700 0.951 . S
C1725 C1723 1.388 . S
C1725 C1726 1.366 . S
C1726 C1725 1.366 . S
C1726 C1727 1.414 . S
C1726 C1729 1.499 . S
C1727 H1701 0.950 . S
C1727 C1726 1.414 . S
C1727 C1728 1.374 . S
C1728 H1702 0.950 . S
C1728 C1724 1.385 . S
C1728 C1727 1.374 . S
C1729 C1726 1.499 . S
C1729 C1730 1.373 . S
C1729 C1731 1.389 . S
C1730 H1703 0.950 . S
C1730 C1716 1.377 . S
C1730 C1729 1.373 . S
C1731 C1715 1.377 . S
C1731 C1729 1.389 . S
C1731 C1732 1.524 . S
C1732 C1731 1.524 . S
C1732 C1733 1.397 . S
C1732 C1737 1.363 . S
C1733 H1704 0.950 . S
C1733 C1732 1.397 . S
C1733 C1734 1.334 . S
C1734 H1705 0.950 . S
C1734 C1733 1.334 . S
C1734 C1735 1.287 . S
C1735 C1734 1.287 . S
C1735 C1736 1.524 . S
C1735 H1738 0.999 . S
C1736 H1706 0.950 . S
C1736 C1735 1.524 . S
C1736 C1737 1.415 . S
C1737 H1707 0.950 . S
C1737 C1732 1.363 . S
C1737 C1736 1.415 . S
H1738 C1735 0.999 . S
H1739 C1720 0.913 . S
H1740 C1758 0.951 . S
H1741 C1760 0.951 . S
H1742 C1762 0.950 . S
H1743 C1763 0.950 . S
H1744 C1765 0.950 . S
H1745 C1768 0.950 . S
H1746 C1769 0.950 . S
H1747 C1771 0.950 . S
H1748 C1772 0.950 . S
H1749 C1773 0.951 . S
H1750 C1775 0.951 . S
H1751 C1777 0.950 . S
H1752 C1778 0.950 . S
H1753 C1780 0.950 . S
H1754 C1783 0.950 . S
H1755 C1784 0.950 . S
H1756 C1786 0.950 . S
H1757 C1787 0.950 . S
C1758 H1740 0.951 . S
C1758 C1759 1.366 . S
C1758 C1760 1.388 . S
C1759 C1758 1.366 . S
C1759 C1763 1.385 . S
C1760 H1741 0.951 . S
C1760 C1758 1.388 . S
C1760 C1761 1.366 . S
C1761 C1760 1.366 . S
C1761 C1762 1.414 . S
C1761 C1764 1.499 . S
C1762 H1742 0.950 . S
C1762 C1761 1.414 . S
C1762 C1763 1.374 . S
C1763 H1743 0.950 . S
C1763 C1759 1.385 . S
C1763 C1762 1.374 . S
C1764 C1761 1.499 . S
C1764 C1765 1.373 . S
C1764 C1766 1.389 . S
C1765 H1744 0.950 . S
C1765 C1764 1.373 . S
C1765 C1781 1.377 . S
C1766 C1764 1.389 . S
C1766 C1767 1.524 . S
C1766 C1780 1.377 . S
C1767 C1766 1.524 . S
C1767 C1768 1.397 . S
C1767 C1772 1.363 . S
C1768 H1745 0.950 . S
C1768 C1767 1.397 . S
C1768 C1769 1.334 . S
C1769 H1746 0.950 . S
C1769 C1768 1.334 . S
C1769 C1770 1.287 . S
C1770 C1769 1.287 . S
C1770 C1771 1.524 . S
C1770 H1789 0.913 . S
C1771 H1747 0.950 . S
C1771 C1770 1.524 . S
C1771 C1772 1.415 . S
C1772 H1748 0.950 . S
C1772 C1767 1.363 . S
C1772 C1771 1.415 . S
C1773 H1749 0.951 . S
C1773 C1774 1.366 . S
C1773 C1775 1.388 . S
C1774 C1773 1.366 . S
C1774 C1778 1.385 . S
C1775 H1750 0.951 . S
C1775 C1773 1.388 . S
C1775 C1776 1.366 . S
C1776 C1775 1.366 . S
C1776 C1777 1.414 . S
C1776 C1779 1.499 . S
C1777 H1751 0.950 . S
C1777 C1776 1.414 . S
C1777 C1778 1.374 . S
C1778 H1752 0.950 . S
C1778 C1774 1.385 . S
C1778 C1777 1.374 . S
C1779 C1776 1.499 . S
C1779 C1780 1.373 . S
C1779 C1781 1.389 . S
C1780 H1753 0.950 . S
C1780 C1766 1.377 . S
C1780 C1779 1.373 . S
C1781 C1765 1.377 . S
C1781 C1779 1.389 . S
C1781 C1782 1.524 . S
C1782 C1781 1.524 . S
C1782 C1783 1.397 . S
C1782 C1787 1.363 . S
C1783 H1754 0.950 . S
C1783 C1782 1.397 . S
C1783 C1784 1.334 . S
C1784 H1755 0.950 . S
C1784 C1783 1.334 . S
C1784 C1785 1.287 . S
C1785 C1784 1.287 . S
C1785 C1786 1.524 . S
C1785 H1788 0.999 . S
C1786 H1756 0.950 . S
C1786 C1785 1.524 . S
C1786 C1787 1.415 . S
C1787 H1757 0.950 . S
C1787 C1782 1.363 . S
C1787 C1786 1.415 . S
H1788 C1785 0.999 . S
H1789 C1770 0.913 . S
H1790 C1808 0.951 . S
H1791 C1810 0.951 . S
H1792 C1812 0.950 . S
H1793 C1813 0.950 . S
H1794 C1815 0.950 . S
H1795 C1818 0.950 . S
H1796 C1819 0.950 . S
H1797 C1821 0.950 . S
H1798 C1822 0.950 . S
H1799 C1823 0.951 . S
H1800 C1825 0.951 . S
H1801 C1827 0.950 . S
H1802 C1828 0.950 . S
H1803 C1830 0.950 . S
H1804 C1833 0.950 . S
H1805 C1834 0.950 . S
H1806 C1836 0.950 . S
H1807 C1837 0.950 . S
C1808 H1790 0.951 . S
C1808 C1809 1.366 . S
C1808 C1810 1.388 . S
C1809 C1808 1.366 . S
C1809 C1813 1.385 . S
C1810 H1791 0.951 . S
C1810 C1808 1.388 . S
C1810 C1811 1.366 . S
C1811 C1810 1.366 . S
C1811 C1812 1.414 . S
C1811 C1814 1.499 . S
C1812 H1792 0.950 . S
C1812 C1811 1.414 . S
C1812 C1813 1.374 . S
C1813 H1793 0.950 . S
C1813 C1809 1.385 . S
C1813 C1812 1.374 . S
C1814 C1811 1.499 . S
C1814 C1815 1.373 . S
C1814 C1816 1.389 . S
C1815 H1794 0.950 . S
C1815 C1814 1.373 . S
C1815 C1831 1.377 . S
C1816 C1814 1.389 . S
C1816 C1817 1.524 . S
C1816 C1830 1.377 . S
C1817 C1816 1.524 . S
C1817 C1818 1.397 . S
C1817 C1822 1.363 . S
C1818 H1795 0.950 . S
C1818 C1817 1.397 . S
C1818 C1819 1.334 . S
C1819 H1796 0.950 . S
C1819 C1818 1.334 . S
C1819 C1820 1.287 . S
C1820 C1819 1.287 . S
C1820 C1821 1.524 . S
C1820 H1839 0.913 . S
C1821 H1797 0.950 . S
C1821 C1820 1.524 . S
C1821 C1822 1.415 . S
C1822 H1798 0.950 . S
C1822 C1817 1.363 . S
C1822 C1821 1.415 . S
C1823 H1799 0.951 . S
C1823 C1824 1.366 . S
C1823 C1825 1.388 . S
C1824 C1823 1.366 . S
C1824 C1828 1.385 . S
C1825 H1800 0.951 . S
C1825 C1823 1.388 . S
C1825 C1826 1.366 . S
C1826 C1825 1.366 . S
C1826 C1827 1.414 . S
C1826 C1829 1.499 . S
C1827 H1801 0.950 . S
C1827 C1826 1.414 . S
C1827 C1828 1.374 . S
C1828 H1802 0.950 . S
C1828 C1824 1.385 . S
C1828 C1827 1.374 . S
C1829 C1826 1.499 . S
C1829 C1830 1.373 . S
C1829 C1831 1.389 . S
C1830 H1803 0.950 . S
C1830 C1816 1.377 . S
C1830 C1829 1.373 . S
C1831 C1815 1.377 . S
C1831 C1829 1.389 . S
C1831 C1832 1.524 . S
C1832 C1831 1.524 . S
C1832 C1833 1.397 . S
C1832 C1837 1.363 . S
C1833 H1804 0.950 . S
C1833 C1832 1.397 . S
C1833 C1834 1.334 . S
C1834 H1805 0.950 . S
C1834 C1833 1.334 . S
C1834 C1835 1.287 . S
C1835 C1834 1.287 . S
C1835 C1836 1.524 . S
C1835 H1838 0.999 . S
C1836 H1806 0.950 . S
C1836 C1835 1.524 . S
C1836 C1837 1.415 . S
C1837 H1807 0.950 . S
C1837 C1832 1.363 . S
C1837 C1836 1.415 . S
H1838 C1835 0.999 . S
H1839 C1820 0.913 . S
H1840 C1858 0.951 . S
H1841 C1860 0.951 . S
H1842 C1862 0.950 . S
H1843 C1863 0.950 . S
H1844 C1865 0.950 . S
H1845 C1868 0.950 . S
H1846 C1869 0.950 . S
H1847 C1871 0.950 . S
H1848 C1872 0.950 . S
H1849 C1873 0.951 . S
H1850 C1875 0.951 . S
H1851 C1877 0.950 . S
H1852 C1878 0.950 . S
H1853 C1880 0.950 . S
H1854 C1883 0.950 . S
H1855 C1884 0.950 . S
H1856 C1886 0.950 . S
H1857 C1887 0.950 . S
C1858 H1840 0.951 . S
C1858 C1859 1.366 . S
C1858 C1860 1.388 . S
C1859 C1858 1.366 . S
C1859 C1863 1.385 . S
C1860 H1841 0.951 . S
C1860 C1858 1.388 . S
C1860 C1861 1.366 . S
C1861 C1860 1.366 . S
C1861 C1862 1.414 . S
C1861 C1864 1.499 . S
C1862 H1842 0.950 . S
C1862 C1861 1.414 . S
C1862 C1863 1.374 . S
C1863 H1843 0.950 . S
C1863 C1859 1.385 . S
C1863 C1862 1.374 . S
C1864 C1861 1.499 . S
C1864 C1865 1.373 . S
C1864 C1866 1.389 . S
C1865 H1844 0.950 . S
C1865 C1864 1.373 . S
C1865 C1881 1.377 . S
C1866 C1864 1.389 . S
C1866 C1867 1.524 . S
C1866 C1880 1.377 . S
C1867 C1866 1.524 . S
C1867 C1868 1.397 . S
C1867 C1872 1.363 . S
C1868 H1845 0.950 . S
C1868 C1867 1.397 . S
C1868 C1869 1.334 . S
C1869 H1846 0.950 . S
C1869 C1868 1.334 . S
C1869 C1870 1.287 . S
C1870 C1869 1.287 . S
C1870 C1871 1.524 . S
C1870 H1889 0.913 . S
C1871 H1847 0.950 . S
C1871 C1870 1.524 . S
C1871 C1872 1.415 . S
C1872 H1848 0.950 . S
C1872 C1867 1.363 . S
C1872 C1871 1.415 . S
C1873 H1849 0.951 . S
C1873 C1874 1.366 . S
C1873 C1875 1.388 . S
C1874 C1873 1.366 . S
C1874 C1878 1.385 . S
C1875 H1850 0.951 . S
C1875 C1873 1.388 . S
C1875 C1876 1.366 . S
C1876 C1875 1.366 . S
C1876 C1877 1.414 . S
C1876 C1879 1.499 . S
C1877 H1851 0.950 . S
C1877 C1876 1.414 . S
C1877 C1878 1.374 . S
C1878 H1852 0.950 . S
C1878 C1874 1.385 . S
C1878 C1877 1.374 . S
C1879 C1876 1.499 . S
C1879 C1880 1.373 . S
C1879 C1881 1.389 . S
C1880 H1853 0.950 . S
C1880 C1866 1.377 . S
C1880 C1879 1.373 . S
C1881 C1865 1.377 . S
C1881 C1879 1.389 . S
C1881 C1882 1.524 . S
C1882 C1881 1.524 . S
C1882 C1883 1.397 . S
C1882 C1887 1.363 . S
C1883 H1854 0.950 . S
C1883 C1882 1.397 . S
C1883 C1884 1.334 . S
C1884 H1855 0.950 . S
C1884 C1883 1.334 . S
C1884 C1885 1.287 . S
C1885 C1884 1.287 . S
C1885 C1886 1.524 . S
C1885 H1888 0.999 . S
C1886 H1856 0.950 . S
C1886 C1885 1.524 . S
C1886 C1887 1.415 . S
C1887 H1857 0.950 . S
C1887 C1882 1.363 . S
C1887 C1886 1.415 . S
H1888 C1885 0.999 . S
H1889 C1870 0.913 . S
H1890 C1908 0.951 . S
H1891 C1910 0.951 . S
H1892 C1912 0.950 . S
H1893 C1913 0.950 . S
H1894 C1915 0.950 . S
H1895 C1918 0.950 . S
H1896 C1919 0.950 . S
H1897 C1921 0.950 . S
H1898 C1922 0.950 . S
H1899 C1923 0.951 . S
H1900 C1925 0.951 . S
H1901 C1927 0.950 . S
H1902 C1928 0.950 . S
H1903 C1930 0.950 . S
H1904 C1933 0.950 . S
H1905 C1934 0.950 . S
H1906 C1936 0.950 . S
H1907 C1937 0.950 . S
C1908 H1890 0.951 . S
C1908 C1909 1.366 . S
C1908 C1910 1.388 . S
C1909 C1908 1.366 . S
C1909 C1913 1.385 . S
C1910 H1891 0.951 . S
C1910 C1908 1.388 . S
C1910 C1911 1.366 . S
C1911 C1910 1.366 . S
C1911 C1912 1.414 . S
C1911 C1914 1.499 . S
C1912 H1892 0.950 . S
C1912 C1911 1.414 . S
C1912 C1913 1.374 . S
C1913 H1893 0.950 . S
C1913 C1909 1.385 . S
C1913 C1912 1.374 . S
C1914 C1911 1.499 . S
C1914 C1915 1.373 . S
C1914 C1916 1.389 . S
C1915 H1894 0.950 . S
C1915 C1914 1.373 . S
C1915 C1931 1.377 . S
C1916 C1914 1.389 . S
C1916 C1917 1.524 . S
C1916 C1930 1.377 . S
C1917 C1916 1.524 . S
C1917 C1918 1.397 . S
C1917 C1922 1.363 . S
C1918 H1895 0.950 . S
C1918 C1917 1.397 . S
C1918 C1919 1.334 . S
C1919 H1896 0.950 . S
C1919 C1918 1.334 . S
C1919 C1920 1.287 . S
C1920 C1919 1.287 . S
C1920 C1921 1.524 . S
C1920 H1939 0.913 . S
C1921 H1897 0.950 . S
C1921 C1920 1.524 . S
C1921 C1922 1.415 . S
C1922 H1898 0.950 . S
C1922 C1917 1.363 . S
C1922 C1921 1.415 . S
C1923 H1899 0.951 . S
C1923 C1924 1.366 . S
C1923 C1925 1.388 . S
C1924 C1923 1.366 . S
C1924 C1928 1.385 . S
C1925 H1900 0.951 . S
C1925 C1923 1.388 . S
C1925 C1926 1.366 . S
C1926 C1925 1.366 . S
C1926 C1927 1.414 . S
C1926 C1929 1.499 . S
C1927 H1901 0.950 . S
C1927 C1926 1.414 . S
C1927 C1928 1.374 . S
C1928 H1902 0.950 . S
C1928 C1924 1.385 . S
C1928 C1927 1.374 . S
C1929 C1926 1.499 . S
C1929 C1930 1.373 . S
C1929 C1931 1.389 . S
C1930 H1903 0.950 . S
C1930 C1916 1.377 . S
C1930 C1929 1.373 . S
C1931 C1915 1.377 . S
C1931 C1929 1.389 . S
C1931 C1932 1.524 . S
C1932 C1931 1.524 . S
C1932 C1933 1.397 . S
C1932 C1937 1.363 . S
C1933 H1904 0.950 . S
C1933 C1932 1.397 . S
C1933 C1934 1.334 . S
C1934 H1905 0.950 . S
C1934 C1933 1.334 . S
C1934 C1935 1.287 . S
C1935 C1934 1.287 . S
C1935 C1936 1.524 . S
C1935 H1938 0.999 . S
C1936 H1906 0.950 . S
C1936 C1935 1.524 . S
C1936 C1937 1.415 . S
C1937 H1907 0.950 . S
C1937 C1932 1.363 . S
C1937 C1936 1.415 . S
H1938 C1935 0.999 . S
H1939 C1920 0.913 . S
H1940 C1958 0.951 . S
H1941 C1960 0.951 . S
H1942 C1962 0.950 . S
H1943 C1963 0.950 . S
H1944 C1965 0.950 . S
H1945 C1968 0.950 . S
H1946 C1969 0.950 . S
H1947 C1971 0.950 . S
H1948 C1972 0.950 . S
H1949 C1973 0.951 . S
H1950 C1975 0.951 . S
H1951 C1977 0.950 . S
H1952 C1978 0.950 . S
H1953 C1980 0.950 . S
H1954 C1983 0.950 . S
H1955 C1984 0.950 . S
H1956 C1986 0.950 . S
H1957 C1987 0.950 . S
C1958 H1940 0.951 . S
C1958 C1959 1.366 . S
C1958 C1960 1.388 . S
C1959 C1958 1.366 . S
C1959 C1963 1.385 . S
C1960 H1941 0.951 . S
C1960 C1958 1.388 . S
C1960 C1961 1.366 . S
C1961 C1960 1.366 . S
C1961 C1962 1.414 . S
C1961 C1964 1.499 . S
C1962 H1942 0.950 . S
C1962 C1961 1.414 . S
C1962 C1963 1.374 . S
C1963 H1943 0.950 . S
C1963 C1959 1.385 . S
C1963 C1962 1.374 . S
C1964 C1961 1.499 . S
C1964 C1965 1.373 . S
C1964 C1966 1.389 . S
C1965 H1944 0.950 . S
C1965 C1964 1.373 . S
C1965 C1981 1.377 . S
C1966 C1964 1.389 . S
C1966 C1967 1.524 . S
C1966 C1980 1.377 . S
C1967 C1966 1.524 . S
C1967 C1968 1.397 . S
C1967 C1972 1.363 . S
C1968 H1945 0.950 . S
C1968 C1967 1.397 . S
C1968 C1969 1.334 . S
C1969 H1946 0.950 . S
C1969 C1968 1.334 . S
C1969 C1970 1.287 . S
C1970 C1969 1.287 . S
C1970 C1971 1.524 . S
C1970 H1989 0.913 . S
C1971 H1947 0.950 . S
C1971 C1970 1.524 . S
C1971 C1972 1.415 . S
C1972 H1948 0.950 . S
C1972 C1967 1.363 . S
C1972 C1971 1.415 . S
C1973 H1949 0.951 . S
C1973 C1974 1.366 . S
C1973 C1975 1.388 . S
C1974 C1973 1.366 . S
C1974 C1978 1.385 . S
C1975 H1950 0.951 . S
C1975 C1973 1.388 . S
C1975 C1976 1.366 . S
C1976 C1975 1.366 . S
C1976 C1977 1.414 . S
C1976 C1979 1.499 . S
C1977 H1951 0.950 . S
C1977 C1976 1.414 . S
C1977 C1978 1.374 . S
C1978 H1952 0.950 . S
C1978 C1974 1.385 . S
C1978 C1977 1.374 . S
C1979 C1976 1.499 . S
C1979 C1980 1.373 . S
C1979 C1981 1.389 . S
C1980 H1953 0.950 . S
C1980 C1966 1.377 . S
C1980 C1979 1.373 . S
C1981 C1965 1.377 . S
C1981 C1979 1.389 . S
C1981 C1982 1.524 . S
C1982 C1981 1.524 . S
C1982 C1983 1.397 . S
C1982 C1987 1.363 . S
C1983 H1954 0.950 . S
C1983 C1982 1.397 . S
C1983 C1984 1.334 . S
C1984 H1955 0.950 . S
C1984 C1983 1.334 . S
C1984 C1985 1.287 . S
C1985 C1984 1.287 . S
C1985 C1986 1.524 . S
C1985 H1988 0.999 . S
C1986 H1956 0.950 . S
C1986 C1985 1.524 . S
C1986 C1987 1.415 . S
C1987 H1957 0.950 . S
C1987 C1982 1.363 . S
C1987 C1986 1.415 . S
H1988 C1985 0.999 . S
H1989 C1970 0.913 . S
H1990 C2008 0.951 . S
H1991 C2010 0.951 . S
H1992 C2012 0.950 . S
H1993 C2013 0.950 . S
H1994 C2015 0.950 . S
H1995 C2018 0.950 . S
H1996 C2019 0.950 . S
H1997 C2021 0.950 . S
H1998 C2022 0.950 . S
H1999 C2023 0.951 . S
H2000 C2025 0.951 . S
H2001 C2027 0.950 . S
H2002 C2028 0.950 . S
H2003 C2030 0.950 . S
H2004 C2033 0.950 . S
H2005 C2034 0.950 . S
H2006 C2036 0.950 . S
H2007 C2037 0.950 . S
C2008 H1990 0.951 . S
C2008 C2009 1.366 . S
C2008 C2010 1.388 . S
C2009 C2008 1.366 . S
C2009 C2013 1.385 . S
C2010 H1991 0.951 . S
C2010 C2008 1.388 . S
C2010 C2011 1.366 . S
C2011 C2010 1.366 . S
C2011 C2012 1.414 . S
C2011 C2014 1.499 . S
C2012 H1992 0.950 . S
C2012 C2011 1.414 . S
C2012 C2013 1.374 . S
C2013 H1993 0.950 . S
C2013 C2009 1.385 . S
C2013 C2012 1.374 . S
C2014 C2011 1.499 . S
C2014 C2015 1.373 . S
C2014 C2016 1.389 . S
C2015 H1994 0.950 . S
C2015 C2014 1.373 . S
C2015 C2031 1.377 . S
C2016 C2014 1.389 . S
C2016 C2017 1.524 . S
C2016 C2030 1.377 . S
C2017 C2016 1.524 . S
C2017 C2018 1.397 . S
C2017 C2022 1.363 . S
C2018 H1995 0.950 . S
C2018 C2017 1.397 . S
C2018 C2019 1.334 . S
C2019 H1996 0.950 . S
C2019 C2018 1.334 . S
C2019 C2020 1.287 . S
C2020 C2019 1.287 . S
C2020 C2021 1.524 . S
C2020 H2039 0.913 . S
C2021 H1997 0.950 . S
C2021 C2020 1.524 . S
C2021 C2022 1.415 . S
C2022 H1998 0.950 . S
C2022 C2017 1.363 . S
C2022 C2021 1.415 . S
C2023 H1999 0.951 . S
C2023 C2024 1.366 . S
C2023 C2025 1.388 . S
C2024 C2023 1.366 . S
C2024 C2028 1.385 . S
C2025 H2000 0.951 . S
C2025 C2023 1.388 . S
C2025 C2026 1.366 . S
C2026 C2025 1.366 . S
C2026 C2027 1.414 . S
C2026 C2029 1.499 . S
C2027 H2001 0.950 . S
C2027 C2026 1.414 . S
C2027 C2028 1.374 . S
C2028 H2002 0.950 . S
C2028 C2024 1.385 . S
C2028 C2027 1.374 . S
C2029 C2026 1.499 . S
C2029 C2030 1.373 . S
C2029 C2031 1.389 . S
C2030 H2003 0.950 . S
C2030 C2016 1.377 . S
C2030 C2029 1.373 . S
C2031 C2015 1.377 . S
C2031 C2029 1.389 . S
C2031 C2032 1.524 . S
C2032 C2031 1.524 . S
C2032 C2033 1.397 . S
C2032 C2037 1.363 . S
C2033 H2004 0.950 . S
C2033 C2032 1.397 . S
C2033 C2034 1.334 . S
C2034 H2005 0.950 . S
C2034 C2033 1.334 . S
C2034 C2035 1.287 . S
C2035 C2034 1.287 . S
C2035 C2036 1.524 . S
C2035 H2038 0.999 . S
C2036 H2006 0.950 . S
C2036 C2035 1.524 . S
C2036 C2037 1.415 . S
C2037 H2007 0.950 . S
C2037 C2032 1.363 . S
C2037 C2036 1.415 . S
H2038 C2035 0.999 . S
H2039 C2020 0.913 . S
H2040 C2058 0.951 . S
H2041 C2060 0.951 . S
H2042 C2062 0.950 . S
H2043 C2063 0.950 . S
H2044 C2065 0.950 . S
H2045 C2068 0.950 . S
H2046 C2069 0.950 . S
H2047 C2071 0.950 . S
H2048 C2072 0.950 . S
H2049 C2073 0.951 . S
H2050 C2075 0.951 . S
H2051 C2077 0.950 . S
H2052 C2078 0.950 . S
H2053 C2080 0.950 . S
H2054 C2083 0.950 . S
H2055 C2084 0.950 . S
H2056 C2086 0.950 . S
H2057 C2087 0.950 . S
C2058 H2040 0.951 . S
C2058 C2059 1.366 . S
C2058 C2060 1.388 . S
C2059 C2058 1.366 . S
C2059 C2063 1.385 . S
C2060 H2041 0.951 . S
C2060 C2058 1.388 . S
C2060 C2061 1.366 . S
C2061 C2060 1.366 . S
C2061 C2062 1.414 . S
C2061 C2064 1.499 . S
C2062 H2042 0.950 . S
C2062 C2061 1.414 . S
C2062 C2063 1.374 . S
C2063 H2043 0.950 . S
C2063 C2059 1.385 . S
C2063 C2062 1.374 . S
C2064 C2061 1.499 . S
C2064 C2065 1.373 1_545 S
C2064 C2066 1.389 . S
C2065 H2044 0.950 . S
C2065 C2064 1.373 1_565 S
C2065 C2081 1.377 . S
C2066 C2064 1.389 . S
C2066 C2067 1.524 . S
C2066 C2080 1.377 1_545 S
C2067 C2066 1.524 . S
C2067 C2068 1.397 . S
C2067 C2072 1.363 . S
C2068 H2045 0.950 . S
C2068 C2067 1.397 . S
C2068 C2069 1.334 . S
C2069 H2046 0.950 . S
C2069 C2068 1.334 . S
C2069 C2070 1.287 . S
C2070 C2069 1.287 . S
C2070 C2071 1.524 . S
C2070 H2089 0.913 . S
C2071 H2047 0.950 . S
C2071 C2070 1.524 . S
C2071 C2072 1.415 . S
C2072 H2048 0.950 . S
C2072 C2067 1.363 . S
C2072 C2071 1.415 . S
C2073 H2049 0.951 . S
C2073 C2074 1.366 . S
C2073 C2075 1.388 . S
C2074 C2073 1.366 . S
C2074 C2078 1.385 . S
C2075 H2050 0.951 . S
C2075 C2073 1.388 . S
C2075 C2076 1.366 . S
C2076 C2075 1.366 . S
C2076 C2077 1.414 . S
C2076 C2079 1.499 . S
C2077 H2051 0.950 . S
C2077 C2076 1.414 . S
C2077 C2078 1.374 . S
C2078 H2052 0.950 . S
C2078 C2074 1.385 . S
C2078 C2077 1.374 . S
C2079 C2076 1.499 . S
C2079 C2080 1.373 . S
C2079 C2081 1.389 . S
C2080 H2053 0.950 . S
C2080 C2066 1.377 1_565 S
C2080 C2079 1.373 . S
C2081 C2065 1.377 . S
C2081 C2079 1.389 . S
C2081 C2082 1.524 . S
C2082 C2081 1.524 . S
C2082 C2083 1.397 . S
C2082 C2087 1.363 . S
C2083 H2054 0.950 . S
C2083 C2082 1.397 . S
C2083 C2084 1.334 . S
C2084 H2055 0.950 . S
C2084 C2083 1.334 . S
C2084 C2085 1.287 . S
C2085 C2084 1.287 . S
C2085 C2086 1.524 . S
C2085 H2088 0.999 . S
C2086 H2056 0.950 . S
C2086 C2085 1.524 . S
C2086 C2087 1.415 . S
C2087 H2057 0.950 . S
C2087 C2082 1.363 . S
C2087 C2086 1.415 . S
H2088 C2085 0.999 . S
H2089 C2070 0.913 . S
H2090 C2108 0.951 . S
H2091 C2110 0.951 . S
H2092 C2112 0.950 1_455 S
H2093 C2113 0.950 . S
H2094 C2115 0.950 . S
H2095 C2118 0.950 . S
H2096 C2119 0.950 . S
H2097 C2121 0.950 . S
H2098 C2122 0.950 . S
H2099 C2123 0.951 . S
H2100 C2125 0.951 . S
H2101 C2127 0.950 . S
H2102 C2128 0.950 . S
H2103 C2130 0.950 . S
H2104 C2133 0.950 . S
H2105 C2134 0.950 . S
H2106 C2136 0.950 . S
H2107 C2137 0.950 . S
C2108 H2090 0.951 . S
C2108 C2109 1.366 . S
C2108 C2110 1.388 . S
C2109 C2108 1.366 . S
C2109 C2113 1.385 . S
C2110 H2091 0.951 . S
C2110 C2108 1.388 . S
C2110 C2111 1.366 . S
C2111 C2110 1.366 . S
C2111 C2112 1.414 . S
C2111 C2114 1.499 1_655 S
C2112 H2092 0.950 1_655 S
C2112 C2111 1.414 . S
C2112 C2113 1.374 . S
C2113 H2093 0.950 . S
C2113 C2109 1.385 . S
C2113 C2112 1.374 . S
C2114 C2111 1.499 1_455 S
C2114 C2115 1.373 . S
C2114 C2116 1.389 . S
C2115 H2094 0.950 . S
C2115 C2114 1.373 . S
C2115 C2131 1.377 . S
C2116 C2114 1.389 . S
C2116 C2117 1.524 . S
C2116 C2130 1.377 . S
C2117 C2116 1.524 . S
C2117 C2118 1.397 . S
C2117 C2122 1.363 1_455 S
C2118 H2095 0.950 . S
C2118 C2117 1.397 . S
C2118 C2119 1.334 1_455 S
C2119 H2096 0.950 . S
C2119 C2118 1.334 1_655 S
C2119 C2120 1.287 . S
C2120 C2119 1.287 . S
C2120 C2121 1.524 . S
C2120 H2139 0.913 . S
C2121 H2097 0.950 . S
C2121 C2120 1.524 . S
C2121 C2122 1.415 . S
C2122 H2098 0.950 . S
C2122 C2117 1.363 1_655 S
C2122 C2121 1.415 . S
C2123 H2099 0.951 . S
C2123 C2124 1.366 . S
C2123 C2125 1.388 . S
C2124 C2123 1.366 . S
C2124 C2128 1.385 . S
C2125 H2100 0.951 . S
C2125 C2123 1.388 . S
C2125 C2126 1.366 . S
C2126 C2125 1.366 . S
C2126 C2127 1.414 . S
C2126 C2129 1.499 . S
C2127 H2101 0.950 . S
C2127 C2126 1.414 . S
C2127 C2128 1.374 . S
C2128 H2102 0.950 . S
C2128 C2124 1.385 . S
C2128 C2127 1.374 . S
C2129 C2126 1.499 . S
C2129 C2130 1.373 . S
C2129 C2131 1.389 . S
C2130 H2103 0.950 . S
C2130 C2116 1.377 . S
C2130 C2129 1.373 . S
C2131 C2115 1.377 . S
C2131 C2129 1.389 . S
C2131 C2132 1.524 . S
C2132 C2131 1.524 . S
C2132 C2133 1.397 . S
C2132 C2137 1.363 . S
C2133 H2104 0.950 . S
C2133 C2132 1.397 . S
C2133 C2134 1.334 . S
C2134 H2105 0.950 . S
C2134 C2133 1.334 . S
C2134 C2135 1.287 . S
C2135 C2134 1.287 . S
C2135 C2136 1.524 . S
C2135 H2138 0.999 . S
C2136 H2106 0.950 . S
C2136 C2135 1.524 . S
C2136 C2137 1.415 . S
C2137 H2107 0.950 . S
C2137 C2132 1.363 . S
C2137 C2136 1.415 . S
H2138 C2135 0.999 . S
H2139 C2120 0.913 . S
H2140 C2158 0.951 . S
H2141 C2160 0.951 . S
H2142 C2162 0.950 . S
H2143 C2163 0.950 . S
H2144 C2165 0.950 . S
H2145 C2168 0.950 . S
H2146 C2169 0.950 . S
H2147 C2171 0.950 . S
H2148 C2172 0.950 . S
H2149 C2173 0.951 . S
H2150 C2175 0.951 . S
H2151 C2177 0.950 . S
H2152 C2178 0.950 . S
H2153 C2180 0.950 . S
H2154 C2183 0.950 . S
H2155 C2184 0.950 . S
H2156 C2186 0.950 . S
H2157 C2187 0.950 . S
C2158 H2140 0.951 . S
C2158 C2159 1.366 . S
C2158 C2160 1.388 . S
C2159 C2158 1.366 . S
C2159 C2163 1.385 . S
C2160 H2141 0.951 . S
C2160 C2158 1.388 . S
C2160 C2161 1.366 . S
C2161 C2160 1.366 . S
C2161 C2162 1.414 . S
C2161 C2164 1.499 . S
C2162 H2142 0.950 . S
C2162 C2161 1.414 . S
C2162 C2163 1.374 . S
C2163 H2143 0.950 . S
C2163 C2159 1.385 . S
C2163 C2162 1.374 . S
C2164 C2161 1.499 . S
C2164 C2165 1.373 . S
C2164 C2166 1.389 . S
C2165 H2144 0.950 . S
C2165 C2164 1.373 . S
C2165 C2181 1.377 . S
C2166 C2164 1.389 . S
C2166 C2167 1.524 . S
C2166 C2180 1.377 . S
C2167 C2166 1.524 . S
C2167 C2168 1.397 . S
C2167 C2172 1.363 . S
C2168 H2145 0.950 . S
C2168 C2167 1.397 . S
C2168 C2169 1.334 . S
C2169 H2146 0.950 . S
C2169 C2168 1.334 . S
C2169 C2170 1.287 . S
C2170 C2169 1.287 . S
C2170 C2171 1.524 . S
C2170 H2189 0.913 . S
C2171 H2147 0.950 . S
C2171 C2170 1.524 . S
C2171 C2172 1.415 . S
C2172 H2148 0.950 . S
C2172 C2167 1.363 . S
C2172 C2171 1.415 . S
C2173 H2149 0.951 . S
C2173 C2174 1.366 . S
C2173 C2175 1.388 . S
C2174 C2173 1.366 . S
C2174 C2178 1.385 . S
C2175 H2150 0.951 . S
C2175 C2173 1.388 . S
C2175 C2176 1.366 . S
C2176 C2175 1.366 . S
C2176 C2177 1.414 . S
C2176 C2179 1.499 . S
C2177 H2151 0.950 . S
C2177 C2176 1.414 . S
C2177 C2178 1.374 . S
C2178 H2152 0.950 . S
C2178 C2174 1.385 . S
C2178 C2177 1.374 . S
C2179 C2176 1.499 . S
C2179 C2180 1.373 . S
C2179 C2181 1.389 . S
C2180 H2153 0.950 . S
C2180 C2166 1.377 . S
C2180 C2179 1.373 . S
C2181 C2165 1.377 . S
C2181 C2179 1.389 . S
C2181 C2182 1.524 . S
C2182 C2181 1.524 . S
C2182 C2183 1.397 . S
C2182 C2187 1.363 . S
C2183 H2154 0.950 . S
C2183 C2182 1.397 . S
C2183 C2184 1.334 . S
C2184 H2155 0.950 . S
C2184 C2183 1.334 . S
C2184 C2185 1.287 . S
C2185 C2184 1.287 . S
C2185 C2186 1.524 . S
C2185 H2188 0.999 . S
C2186 H2156 0.950 . S
C2186 C2185 1.524 . S
C2186 C2187 1.415 . S
C2187 H2157 0.950 . S
C2187 C2182 1.363 . S
C2187 C2186 1.415 . S
H2188 C2185 0.999 . S
H2189 C2170 0.913 . S
H2190 C2208 0.951 . S
H2191 C2210 0.951 . S
H2192 C2212 0.950 . S
H2193 C2213 0.950 . S
H2194 C2215 0.950 . S
H2195 C2218 0.950 . S
H2196 C2219 0.950 . S
H2197 C2221 0.950 . S
H2198 C2222 0.950 . S
H2199 C2223 0.951 . S
H2200 C2225 0.951 . S
H2201 C2227 0.950 . S
H2202 C2228 0.950 . S
H2203 C2230 0.950 . S
H2204 C2233 0.950 . S
H2205 C2234 0.950 . S
H2206 C2236 0.950 . S
H2207 C2237 0.950 . S
C2208 H2190 0.951 . S
C2208 C2209 1.366 . S
C2208 C2210 1.388 . S
C2209 C2208 1.366 . S
C2209 C2213 1.385 . S
C2210 H2191 0.951 . S
C2210 C2208 1.388 . S
C2210 C2211 1.366 . S
C2211 C2210 1.366 . S
C2211 C2212 1.414 . S
C2211 C2214 1.499 . S
C2212 H2192 0.950 . S
C2212 C2211 1.414 . S
C2212 C2213 1.374 . S
C2213 H2193 0.950 . S
C2213 C2209 1.385 . S
C2213 C2212 1.374 . S
C2214 C2211 1.499 . S
C2214 C2215 1.373 . S
C2214 C2216 1.389 . S
C2215 H2194 0.950 . S
C2215 C2214 1.373 . S
C2215 C2231 1.377 . S
C2216 C2214 1.389 . S
C2216 C2217 1.524 . S
C2216 C2230 1.377 . S
C2217 C2216 1.524 . S
C2217 C2218 1.397 . S
C2217 C2222 1.363 . S
C2218 H2195 0.950 . S
C2218 C2217 1.397 . S
C2218 C2219 1.334 . S
C2219 H2196 0.950 . S
C2219 C2218 1.334 . S
C2219 C2220 1.287 . S
C2220 C2219 1.287 . S
C2220 C2221 1.524 . S
C2220 H2239 0.913 . S
C2221 H2197 0.950 . S
C2221 C2220 1.524 . S
C2221 C2222 1.415 . S
C2222 H2198 0.950 . S
C2222 C2217 1.363 . S
C2222 C2221 1.415 . S
C2223 H2199 0.951 . S
C2223 C2224 1.366 . S
C2223 C2225 1.388 . S
C2224 C2223 1.366 . S
C2224 C2228 1.385 . S
C2225 H2200 0.951 . S
C2225 C2223 1.388 . S
C2225 C2226 1.366 . S
C2226 C2225 1.366 . S
C2226 C2227 1.414 . S
C2226 C2229 1.499 . S
C2227 H2201 0.950 . S
C2227 C2226 1.414 . S
C2227 C2228 1.374 . S
C2228 H2202 0.950 . S
C2228 C2224 1.385 . S
C2228 C2227 1.374 . S
C2229 C2226 1.499 . S
C2229 C2230 1.373 . S
C2229 C2231 1.389 . S
C2230 H2203 0.950 . S
C2230 C2216 1.377 . S
C2230 C2229 1.373 . S
C2231 C2215 1.377 . S
C2231 C2229 1.389 . S
C2231 C2232 1.524 . S
C2232 C2231 1.524 . S
C2232 C2233 1.397 . S
C2232 C2237 1.363 . S
C2233 H2204 0.950 . S
C2233 C2232 1.397 . S
C2233 C2234 1.334 . S
C2234 H2205 0.950 . S
C2234 C2233 1.334 . S
C2234 C2235 1.287 . S
C2235 C2234 1.287 . S
C2235 C2236 1.524 . S
C2235 H2238 0.999 . S
C2236 H2206 0.950 . S
C2236 C2235 1.524 . S
C2236 C2237 1.415 . S
C2237 H2207 0.950 . S
C2237 C2232 1.363 . S
C2237 C2236 1.415 . S
H2238 C2235 0.999 . S
H2239 C2220 0.913 . S
H2240 C2258 0.951 . S
H2241 C2260 0.951 . S
H2242 C2262 0.950 . S
H2243 C2263 0.950 . S
H2244 C2265 0.950 . S
H2245 C2268 0.950 . S
H2246 C2269 0.950 . S
H2247 C2271 0.950 . S
H2248 C2272 0.950 . S
H2249 C2273 0.951 . S
H2250 C2275 0.951 . S
H2251 C2277 0.950 . S
H2252 C2278 0.950 . S
H2253 C2280 0.950 . S
H2254 C2283 0.950 . S
H2255 C2284 0.950 . S
H2256 C2286 0.950 . S
H2257 C2287 0.950 . S
C2258 H2240 0.951 . S
C2258 C2259 1.366 . S
C2258 C2260 1.388 . S
C2259 C2258 1.366 . S
C2259 C2263 1.385 . S
C2260 H2241 0.951 . S
C2260 C2258 1.388 . S
C2260 C2261 1.366 . S
C2261 C2260 1.366 . S
C2261 C2262 1.414 . S
C2261 C2264 1.499 . S
C2262 H2242 0.950 . S
C2262 C2261 1.414 . S
C2262 C2263 1.374 . S
C2263 H2243 0.950 . S
C2263 C2259 1.385 . S
C2263 C2262 1.374 . S
C2264 C2261 1.499 . S
C2264 C2265 1.373 . S
C2264 C2266 1.389 . S
C2265 H2244 0.950 . S
C2265 C2264 1.373 . S
C2265 C2281 1.377 . S
C2266 C2264 1.389 . S
C2266 C2267 1.524 . S
C2266 C2280 1.377 . S
C2267 C2266 1.524 . S
C2267 C2268 1.397 . S
C2267 C2272 1.363 . S
C2268 H2245 0.950 . S
C2268 C2267 1.397 . S
C2268 C2269 1.334 . S
C2269 H2246 0.950 . S
C2269 C2268 1.334 . S
C2269 C2270 1.287 . S
C2270 C2269 1.287 . S
C2270 C2271 1.524 . S
C2270 H2289 0.913 . S
C2271 H2247 0.950 . S
C2271 C2270 1.524 . S
C2271 C2272 1.415 . S
C2272 H2248 0.950 . S
C2272 C2267 1.363 . S
C2272 C2271 1.415 . S
C2273 H2249 0.951 . S
C2273 C2274 1.366 . S
C2273 C2275 1.388 . S
C2274 C2273 1.366 . S
C2274 C2278 1.385 . S
C2275 H2250 0.951 . S
C2275 C2273 1.388 . S
C2275 C2276 1.366 . S
C2276 C2275 1.366 . S
C2276 C2277 1.414 . S
C2276 C2279 1.499 . S
C2277 H2251 0.950 . S
C2277 C2276 1.414 . S
C2277 C2278 1.374 . S
C2278 H2252 0.950 . S
C2278 C2274 1.385 . S
C2278 C2277 1.374 . S
C2279 C2276 1.499 . S
C2279 C2280 1.373 . S
C2279 C2281 1.389 . S
C2280 H2253 0.950 . S
C2280 C2266 1.377 . S
C2280 C2279 1.373 . S
C2281 C2265 1.377 . S
C2281 C2279 1.389 . S
C2281 C2282 1.524 . S
C2282 C2281 1.524 . S
C2282 C2283 1.397 . S
C2282 C2287 1.363 . S
C2283 H2254 0.950 . S
C2283 C2282 1.397 . S
C2283 C2284 1.334 . S
C2284 H2255 0.950 . S
C2284 C2283 1.334 . S
C2284 C2285 1.287 . S
C2285 C2284 1.287 . S
C2285 C2286 1.524 . S
C2285 H2288 0.999 . S
C2286 H2256 0.950 . S
C2286 C2285 1.524 . S
C2286 C2287 1.415 . S
C2287 H2257 0.950 . S
C2287 C2282 1.363 . S
C2287 C2286 1.415 . S
H2288 C2285 0.999 . S
H2289 C2270 0.913 . S
H2290 C2308 0.951 . S
H2291 C2310 0.951 . S
H2292 C2312 0.950 . S
H2293 C2313 0.950 . S
H2294 C2315 0.950 . S
H2295 C2318 0.950 . S
H2296 C2319 0.950 . S
H2297 C2321 0.950 . S
H2298 C2322 0.950 . S
H2299 C2323 0.951 . S
H2300 C2325 0.951 . S
H2301 C2327 0.950 . S
H2302 C2328 0.950 . S
H2303 C2330 0.950 . S
H2304 C2333 0.950 . S
H2305 C2334 0.950 . S
H2306 C2336 0.950 . S
H2307 C2337 0.950 . S
C2308 H2290 0.951 . S
C2308 C2309 1.366 . S
C2308 C2310 1.388 . S
C2309 C2308 1.366 . S
C2309 C2313 1.385 . S
C2310 H2291 0.951 . S
C2310 C2308 1.388 . S
C2310 C2311 1.366 . S
C2311 C2310 1.366 . S
C2311 C2312 1.414 . S
C2311 C2314 1.499 . S
C2312 H2292 0.950 . S
C2312 C2311 1.414 . S
C2312 C2313 1.374 . S
C2313 H2293 0.950 . S
C2313 C2309 1.385 . S
C2313 C2312 1.374 . S
C2314 C2311 1.499 . S
C2314 C2315 1.373 . S
C2314 C2316 1.389 . S
C2315 H2294 0.950 . S
C2315 C2314 1.373 . S
C2315 C2331 1.377 . S
C2316 C2314 1.389 . S
C2316 C2317 1.524 . S
C2316 C2330 1.377 . S
C2317 C2316 1.524 . S
C2317 C2318 1.397 . S
C2317 C2322 1.363 . S
C2318 H2295 0.950 . S
C2318 C2317 1.397 . S
C2318 C2319 1.334 . S
C2319 H2296 0.950 . S
C2319 C2318 1.334 . S
C2319 C2320 1.287 . S
C2320 C2319 1.287 . S
C2320 C2321 1.524 . S
C2320 H2339 0.913 . S
C2321 H2297 0.950 . S
C2321 C2320 1.524 . S
C2321 C2322 1.415 . S
C2322 H2298 0.950 . S
C2322 C2317 1.363 . S
C2322 C2321 1.415 . S
C2323 H2299 0.951 . S
C2323 C2324 1.366 . S
C2323 C2325 1.388 . S
C2324 C2323 1.366 . S
C2324 C2328 1.385 . S
C2325 H2300 0.951 . S
C2325 C2323 1.388 . S
C2325 C2326 1.366 . S
C2326 C2325 1.366 . S
C2326 C2327 1.414 . S
C2326 C2329 1.499 . S
C2327 H2301 0.950 . S
C2327 C2326 1.414 . S
C2327 C2328 1.374 . S
C2328 H2302 0.950 . S
C2328 C2324 1.385 . S
C2328 C2327 1.374 . S
C2329 C2326 1.499 . S
C2329 C2330 1.373 . S
C2329 C2331 1.389 . S
C2330 H2303 0.950 . S
C2330 C2316 1.377 . S
C2330 C2329 1.373 . S
C2331 C2315 1.377 . S
C2331 C2329 1.389 . S
C2331 C2332 1.524 . S
C2332 C2331 1.524 . S
C2332 C2333 1.397 . S
C2332 C2337 1.363 . S
C2333 H2304 0.950 . S
C2333 C2332 1.397 . S
C2333 C2334 1.334 . S
C2334 H2305 0.950 . S
C2334 C2333 1.334 . S
C2334 C2335 1.287 . S
C2335 C2334 1.287 . S
C2335 C2336 1.524 . S
C2335 H2338 0.999 . S
C2336 H2306 0.950 . S
C2336 C2335 1.524 . S
C2336 C2337 1.415 . S
C2337 H2307 0.950 . S
C2337 C2332 1.363 . S
C2337 C2336 1.415 . S
H2338 C2335 0.999 . S
H2339 C2320 0.913 . S
H2340 C2358 0.951 . S
H2341 C2360 0.951 . S
H2342 C2362 0.950 . S
H2343 C2363 0.950 . S
H2344 C2365 0.950 . S
H2345 C2368 0.950 . S
H2346 C2369 0.950 . S
H2347 C2371 0.950 . S
H2348 C2372 0.950 . S
H2349 C2373 0.951 . S
H2350 C2375 0.951 . S
H2351 C2377 0.950 . S
H2352 C2378 0.950 . S
H2353 C2380 0.950 . S
H2354 C2383 0.950 . S
H2355 C2384 0.950 . S
H2356 C2386 0.950 . S
H2357 C2387 0.950 . S
C2358 H2340 0.951 . S
C2358 C2359 1.366 . S
C2358 C2360 1.388 . S
C2359 C2358 1.366 . S
C2359 C2363 1.385 . S
C2360 H2341 0.951 . S
C2360 C2358 1.388 . S
C2360 C2361 1.366 . S
C2361 C2360 1.366 . S
C2361 C2362 1.414 . S
C2361 C2364 1.499 1_565 S
C2362 H2342 0.950 . S
C2362 C2361 1.414 . S
C2362 C2363 1.374 . S
C2363 H2343 0.950 . S
C2363 C2359 1.385 . S
C2363 C2362 1.374 . S
C2364 C2361 1.499 1_545 S
C2364 C2365 1.373 . S
C2364 C2366 1.389 . S
C2365 H2344 0.950 . S
C2365 C2364 1.373 . S
C2365 C2381 1.377 . S
C2366 C2364 1.389 . S
C2366 C2367 1.524 . S
C2366 C2380 1.377 . S
C2367 C2366 1.524 . S
C2367 C2368 1.397 . S
C2367 C2372 1.363 . S
C2368 H2345 0.950 . S
C2368 C2367 1.397 . S
C2368 C2369 1.334 . S
C2369 H2346 0.950 . S
C2369 C2368 1.334 . S
C2369 C2370 1.287 . S
C2370 C2369 1.287 . S
C2370 C2371 1.524 . S
C2370 H2389 0.913 . S
C2371 H2347 0.950 . S
C2371 C2370 1.524 . S
C2371 C2372 1.415 . S
C2372 H2348 0.950 . S
C2372 C2367 1.363 . S
C2372 C2371 1.415 . S
C2373 H2349 0.951 . S
C2373 C2374 1.366 . S
C2373 C2375 1.388 . S
C2374 C2373 1.366 . S
C2374 C2378 1.385 . S
C2375 H2350 0.951 . S
C2375 C2373 1.388 . S
C2375 C2376 1.366 . S
C2376 C2375 1.366 . S
C2376 C2377 1.414 . S
C2376 C2379 1.499 . S
C2377 H2351 0.950 . S
C2377 C2376 1.414 . S
C2377 C2378 1.374 . S
C2378 H2352 0.950 . S
C2378 C2374 1.385 . S
C2378 C2377 1.374 . S
C2379 C2376 1.499 . S
C2379 C2380 1.373 . S
C2379 C2381 1.389 . S
C2380 H2353 0.950 . S
C2380 C2366 1.377 . S
C2380 C2379 1.373 . S
C2381 C2365 1.377 . S
C2381 C2379 1.389 . S
C2381 C2382 1.524 . S
C2382 C2381 1.524 . S
C2382 C2383 1.397 . S
C2382 C2387 1.363 . S
C2383 H2354 0.950 . S
C2383 C2382 1.397 . S
C2383 C2384 1.334 . S
C2384 H2355 0.950 . S
C2384 C2383 1.334 . S
C2384 C2385 1.287 . S
C2385 C2384 1.287 . S
C2385 C2386 1.524 . S
C2385 H2388 0.999 . S
C2386 H2356 0.950 . S
C2386 C2385 1.524 . S
C2386 C2387 1.415 . S
C2387 H2357 0.950 . S
C2387 C2382 1.363 . S
C2387 C2386 1.415 . S
H2388 C2385 0.999 . S
H2389 C2370 0.913 . S
H2390 C2408 0.951 . S
H2391 C2410 0.951 1_655 S
H2392 C2412 0.950 . S
H2393 C2413 0.950 . S
H2394 C2415 0.950 . S
H2395 C2418 0.950 . S
H2396 C2419 0.950 . S
H2397 C2421 0.956 . S
H2398 C2422 0.950 . S
H2399 C2423 0.951 . S
H2400 C2425 0.951 . S
H2401 C2427 0.950 . S
H2402 C2428 0.950 . S
H2403 C2430 0.950 . S
H2404 C2433 0.950 . S
H2405 C2434 0.950 . S
H2406 C2436 0.950 . S
H2407 C2437 0.950 . S
C2408 H2390 0.951 . S
C2408 C2409 1.366 . S
C2408 C2410 1.388 . S
C2409 C2408 1.366 . S
C2409 C2413 1.385 . S
C2410 H2391 0.951 1_455 S
C2410 C2408 1.388 . S
C2410 C2411 1.366 1_455 S
C2411 C2410 1.366 1_655 S
C2411 C2412 1.414 1_655 S
C2411 C2414 1.499 . S
C2412 H2392 0.950 . S
C2412 C2411 1.414 1_455 S
C2412 C2413 1.374 . S
C2413 H2393 0.950 . S
C2413 C2409 1.385 . S
C2413 C2412 1.374 . S
C2414 C2411 1.499 . S
C2414 C2415 1.373 . S
C2414 C2416 1.389 . S
C2415 H2394 0.950 . S
C2415 C2414 1.373 . S
C2415 C2431 1.377 . S
C2416 C2414 1.389 . S
C2416 C2417 1.524 . S
C2416 C2430 1.377 . S
C2417 C2416 1.524 . S
C2417 C2418 1.397 1_655 S
C2417 C2422 1.363 . S
C2418 H2395 0.950 . S
C2418 C2417 1.397 1_455 S
C2418 C2419 1.334 . S
C2419 H2396 0.950 . S
C2419 C2418 1.334 . S
C2419 C2420 1.287 . S
C2420 C2419 1.287 . S
C2420 C2421 1.524 . S
C2420 H2439 0.913 . S
C2421 H2397 0.956 . S
C2421 C2420 1.524 . S
C2421 C2422 1.415 1_455 S
C2422 H2398 0.950 . S
C2422 C2417 1.363 . S
C2422 C2421 1.415 1_655 S
C2423 H2399 0.951 . S
C2423 C2424 1.366 . S
C2423 C2425 1.388 . S
C2424 C2423 1.366 . S
C2424 C2428 1.385 . S
C2425 H2400 0.951 . S
C2425 C2423 1.388 . S
C2425 C2426 1.366 . S
C2426 C2425 1.366 . S
C2426 C2427 1.414 . S
C2426 C2429 1.499 . S
C2427 H2401 0.950 . S
C2427 C2426 1.414 . S
C2427 C2428 1.374 . S
C2428 H2402 0.950 . S
C2428 C2424 1.385 . S
C2428 C2427 1.374 . S
C2429 C2426 1.499 . S
C2429 C2430 1.373 . S
C2429 C2431 1.389 . S
C2430 H2403 0.950 . S
C2430 C2416 1.377 . S
C2430 C2429 1.373 . S
C2431 C2415 1.377 . S
C2431 C2429 1.389 . S
C2431 C2432 1.524 . S
C2432 C2431 1.524 . S
C2432 C2433 1.397 . S
C2432 C2437 1.363 . S
C2433 H2404 0.950 . S
C2433 C2432 1.397 . S
C2433 C2434 1.334 . S
C2434 H2405 0.950 . S
C2434 C2433 1.334 . S
C2434 C2435 1.287 . S
C2435 C2434 1.287 . S
C2435 C2436 1.524 . S
C2435 H2438 0.999 . S
C2436 H2406 0.950 . S
C2436 C2435 1.524 . S
C2436 C2437 1.415 . S
C2437 H2407 0.950 . S
C2437 C2432 1.363 . S
C2437 C2436 1.415 . S
H2438 C2435 0.999 . S
H2439 C2420 0.913 . S
H2440 C2458 0.951 . S
H2441 C2460 0.951 . S
H2442 C2462 0.950 . S
H2443 C2463 0.950 . S
H2444 C2465 0.950 . S
H2445 C2468 0.950 . S
H2446 C2469 0.950 . S
H2447 C2471 0.950 . S
H2448 C2472 0.950 . S
H2449 C2473 0.951 . S
H2450 C2475 0.951 . S
H2451 C2477 0.950 . S
H2452 C2478 0.950 . S
H2453 C2480 0.950 . S
H2454 C2483 0.950 . S
H2455 C2484 0.950 . S
H2456 C2486 0.950 . S
H2457 C2487 0.950 . S
C2458 H2440 0.951 . S
C2458 C2459 1.366 . S
C2458 C2460 1.388 . S
C2459 C2458 1.366 . S
C2459 C2463 1.385 . S
C2460 H2441 0.951 . S
C2460 C2458 1.388 . S
C2460 C2461 1.366 . S
C2461 C2460 1.366 . S
C2461 C2462 1.414 . S
C2461 C2464 1.499 . S
C2462 H2442 0.950 . S
C2462 C2461 1.414 . S
C2462 C2463 1.374 . S
C2463 H2443 0.950 . S
C2463 C2459 1.385 . S
C2463 C2462 1.374 . S
C2464 C2461 1.499 . S
C2464 C2465 1.373 . S
C2464 C2466 1.389 . S
C2465 H2444 0.950 . S
C2465 C2464 1.373 . S
C2465 C2481 1.377 . S
C2466 C2464 1.389 . S
C2466 C2467 1.524 . S
C2466 C2480 1.377 . S
C2467 C2466 1.524 . S
C2467 C2468 1.397 . S
C2467 C2472 1.363 . S
C2468 H2445 0.950 . S
C2468 C2467 1.397 . S
C2468 C2469 1.334 . S
C2469 H2446 0.950 . S
C2469 C2468 1.334 . S
C2469 C2470 1.287 . S
C2470 C2469 1.287 . S
C2470 C2471 1.524 . S
C2470 H2489 0.913 . S
C2471 H2447 0.950 . S
C2471 C2470 1.524 . S
C2471 C2472 1.415 . S
C2472 H2448 0.950 . S
C2472 C2467 1.363 . S
C2472 C2471 1.415 . S
C2473 H2449 0.951 . S
C2473 C2474 1.366 . S
C2473 C2475 1.388 . S
C2474 C2473 1.366 . S
C2474 C2478 1.385 . S
C2475 H2450 0.951 . S
C2475 C2473 1.388 . S
C2475 C2476 1.366 . S
C2476 C2475 1.366 . S
C2476 C2477 1.414 . S
C2476 C2479 1.499 . S
C2477 H2451 0.950 . S
C2477 C2476 1.414 . S
C2477 C2478 1.374 . S
C2478 H2452 0.950 . S
C2478 C2474 1.385 . S
C2478 C2477 1.374 . S
C2479 C2476 1.499 . S
C2479 C2480 1.373 . S
C2479 C2481 1.389 . S
C2480 H2453 0.950 . S
C2480 C2466 1.377 . S
C2480 C2479 1.373 . S
C2481 C2465 1.377 . S
C2481 C2479 1.389 . S
C2481 C2482 1.524 . S
C2482 C2481 1.524 . S
C2482 C2483 1.397 . S
C2482 C2487 1.363 . S
C2483 H2454 0.950 . S
C2483 C2482 1.397 . S
C2483 C2484 1.334 . S
C2484 H2455 0.950 . S
C2484 C2483 1.334 . S
C2484 C2485 1.287 . S
C2485 C2484 1.287 . S
C2485 C2486 1.524 . S
C2485 H2488 0.999 . S
C2486 H2456 0.950 . S
C2486 C2485 1.524 . S
C2486 C2487 1.415 . S
C2487 H2457 0.950 . S
C2487 C2482 1.363 . S
C2487 C2486 1.415 . S
H2488 C2485 0.999 . S
H2489 C2470 0.913 . S
H2490 C2508 0.951 . S
H2491 C2510 0.951 . S
H2492 C2512 0.950 . S
H2493 C2513 0.950 . S
H2494 C2515 0.950 . S
H2495 C2518 0.950 . S
H2496 C2519 0.950 . S
H2497 C2521 0.950 . S
H2498 C2522 0.950 . S
H2499 C2523 0.951 . S
H2500 C2525 0.951 . S
H2501 C2527 0.950 . S
H2502 C2528 0.950 . S
H2503 C2530 0.945 1_655 S
H2504 C2533 0.950 . S
H2505 C2534 0.950 . S
H2506 C2536 0.950 . S
H2507 C2537 0.924 1_455 S
C2508 H2490 0.951 . S
C2508 C2509 1.366 . S
C2508 C2510 1.388 . S
C2509 C2508 1.366 . S
C2509 C2513 1.385 . S
C2510 H2491 0.951 . S
C2510 C2508 1.388 . S
C2510 C2511 1.366 . S
C2511 C2510 1.366 . S
C2511 C2512 1.414 . S
C2511 C2514 1.499 . S
C2512 H2492 0.950 . S
C2512 C2511 1.414 . S
C2512 C2513 1.374 . S
C2513 H2493 0.950 . S
C2513 C2509 1.385 . S
C2513 C2512 1.374 . S
C2514 C2511 1.499 . S
C2514 C2515 1.373 . S
C2514 C2516 1.389 . S
C2515 H2494 0.950 . S
C2515 C2514 1.373 . S
C2515 C2531 1.391 . S
C2516 C2514 1.389 . S
C2516 C2517 1.524 . S
C2516 C2530 1.384 . S
C2517 C2516 1.524 . S
C2517 C2518 1.397 . S
C2517 C2522 1.363 . S
C2518 H2495 0.950 . S
C2518 C2517 1.397 . S
C2518 C2519 1.334 . S
C2519 H2496 0.950 . S
C2519 C2518 1.334 . S
C2519 C2520 1.287 . S
C2520 C2519 1.287 . S
C2520 C2521 1.524 . S
C2520 H2539 0.913 . S
C2521 H2497 0.950 . S
C2521 C2520 1.524 . S
C2521 C2522 1.415 . S
C2522 H2498 0.950 . S
C2522 C2517 1.363 . S
C2522 C2521 1.415 . S
C2523 H2499 0.951 . S
C2523 C2524 1.366 . S
C2523 C2525 1.388 . S
C2524 C2523 1.366 . S
C2524 C2528 1.385 . S
C2525 H2500 0.951 . S
C2525 C2523 1.388 . S
C2525 C2526 1.366 . S
C2526 C2525 1.366 . S
C2526 C2527 1.414 . S
C2526 C2529 1.499 . S
C2527 H2501 0.950 . S
C2527 C2526 1.414 . S
C2527 C2528 1.374 . S
C2528 H2502 0.950 . S
C2528 C2524 1.385 . S
C2528 C2527 1.374 . S
C2529 C2526 1.499 . S
C2529 C2530 1.371 1_655 S
C2529 C2531 1.380 1_655 S
C2530 H2503 0.945 1_455 S
C2530 C2516 1.384 . S
C2530 C2529 1.371 1_455 S
C2531 C2515 1.391 . S
C2531 C2529 1.380 1_455 S
C2531 C2532 1.520 1_455 S
C2532 C2531 1.520 1_655 S
C2532 C2533 1.397 . S
C2532 C2537 1.383 . S
C2533 H2504 0.950 . S
C2533 C2532 1.397 . S
C2533 C2534 1.334 . S
C2534 H2505 0.950 . S
C2534 C2533 1.334 . S
C2534 C2535 1.287 . S
C2535 C2534 1.287 . S
C2535 C2536 1.524 . S
C2535 H2538 0.999 . S
C2536 H2506 0.950 . S
C2536 C2535 1.524 . S
C2536 C2537 1.421 . S
C2537 H2507 0.924 1_655 S
C2537 C2532 1.383 . S
C2537 C2536 1.421 . S
H2538 C2535 0.999 . S
H2539 C2520 0.913 . S
H2540 C2558 0.951 . S
H2541 C2560 0.951 . S
H2542 C2562 0.950 . S
H2543 C2563 0.950 . S
H2544 C2565 0.950 . S
H2545 C2568 0.950 . S
H2546 C2569 0.950 . S
H2547 C2571 0.950 . S
H2548 C2572 0.950 . S
H2549 C2573 0.951 . S
H2550 C2575 0.951 . S
H2551 C2577 0.950 . S
H2552 C2578 0.950 . S
H2553 C2580 0.950 . S
H2554 C2583 0.950 . S
H2555 C2584 0.950 . S
H2556 C2586 0.950 . S
H2557 C2587 0.950 . S
C2558 H2540 0.951 . S
C2558 C2559 1.366 . S
C2558 C2560 1.388 . S
C2559 C2558 1.366 . S
C2559 C2563 1.385 . S
C2560 H2541 0.951 . S
C2560 C2558 1.388 . S
C2560 C2561 1.366 . S
C2561 C2560 1.366 . S
C2561 C2562 1.414 . S
C2561 C2564 1.499 . S
C2562 H2542 0.950 . S
C2562 C2561 1.414 . S
C2562 C2563 1.374 . S
C2563 H2543 0.950 . S
C2563 C2559 1.385 . S
C2563 C2562 1.374 . S
C2564 C2561 1.499 . S
C2564 C2565 1.373 . S
C2564 C2566 1.389 . S
C2565 H2544 0.950 . S
C2565 C2564 1.373 . S
C2565 C2581 1.377 . S
C2566 C2564 1.389 . S
C2566 C2567 1.524 . S
C2566 C2580 1.377 . S
C2567 C2566 1.524 . S
C2567 C2568 1.397 . S
C2567 C2572 1.363 . S
C2568 H2545 0.950 . S
C2568 C2567 1.397 . S
C2568 C2569 1.334 . S
C2569 H2546 0.950 . S
C2569 C2568 1.334 . S
C2569 C2570 1.287 . S
C2570 C2569 1.287 . S
C2570 C2571 1.524 . S
C2570 H2589 0.913 . S
C2571 H2547 0.950 . S
C2571 C2570 1.524 . S
C2571 C2572 1.415 . S
C2572 H2548 0.950 . S
C2572 C2567 1.363 . S
C2572 C2571 1.415 . S
C2573 H2549 0.951 . S
C2573 C2574 1.366 . S
C2573 C2575 1.388 . S
C2574 C2573 1.366 . S
C2574 C2578 1.385 . S
C2575 H2550 0.951 . S
C2575 C2573 1.388 . S
C2575 C2576 1.366 . S
C2576 C2575 1.366 . S
C2576 C2577 1.414 . S
C2576 C2579 1.499 . S
C2577 H2551 0.950 . S
C2577 C2576 1.414 . S
C2577 C2578 1.374 . S
C2578 H2552 0.950 . S
C2578 C2574 1.385 . S
C2578 C2577 1.374 . S
C2579 C2576 1.499 . S
C2579 C2580 1.373 . S
C2579 C2581 1.389 . S
C2580 H2553 0.950 . S
C2580 C2566 1.377 . S
C2580 C2579 1.373 . S
C2581 C2565 1.377 . S
C2581 C2579 1.389 . S
C2581 C2582 1.524 . S
C2582 C2581 1.524 . S
C2582 C2583 1.397 . S
C2582 C2587 1.363 . S
C2583 H2554 0.950 . S
C2583 C2582 1.397 . S
C2583 C2584 1.334 . S
C2584 H2555 0.950 . S
C2584 C2583 1.334 . S
C2584 C2585 1.287 . S
C2585 C2584 1.287 . S
C2585 C2586 1.524 . S
C2585 H2588 0.999 . S
C2586 H2556 0.950 . S
C2586 C2585 1.524 . S
C2586 C2587 1.415 . S
C2587 H2557 0.950 . S
C2587 C2582 1.363 . S
C2587 C2586 1.415 . S
H2588 C2585 0.999 . S
H2589 C2570 0.913 . S
H2590 C2608 0.951 . S
H2591 C2610 0.951 . S
H2592 C2612 0.950 . S
H2593 C2613 0.950 . S
H2594 C2615 0.950 . S
H2595 C2618 0.950 1_565 S
H2596 C2619 0.950 1_565 S
H2597 C2621 0.950 . S
H2598 C2622 0.950 . S
H2599 C2623 0.951 . S
H2600 C2625 0.951 . S
H2601 C2627 0.950 . S
H2602 C2628 0.950 . S
H2603 C2630 0.950 . S
H2604 C2633 0.950 . S
H2605 C2634 0.950 . S
H2606 C2636 0.950 . S
H2607 C2637 0.950 . S
C2608 H2590 0.951 . S
C2608 C2609 1.366 . S
C2608 C2610 1.388 . S
C2609 C2608 1.366 . S
C2609 C2613 1.385 . S
C2610 H2591 0.951 . S
C2610 C2608 1.388 . S
C2610 C2611 1.366 . S
C2611 C2610 1.366 . S
C2611 C2612 1.414 . S
C2611 C2614 1.499 . S
C2612 H2592 0.950 . S
C2612 C2611 1.414 . S
C2612 C2613 1.374 . S
C2613 H2593 0.950 . S
C2613 C2609 1.385 . S
C2613 C2612 1.374 . S
C2614 C2611 1.499 . S
C2614 C2615 1.373 . S
C2614 C2616 1.389 1_565 S
C2615 H2594 0.950 . S
C2615 C2614 1.373 . S
C2615 C2631 1.377 1_565 S
C2616 C2614 1.389 1_545 S
C2616 C2617 1.524 . S
C2616 C2630 1.377 . S
C2617 C2616 1.524 . S
C2617 C2618 1.397 . S
C2617 C2622 1.363 . S
C2618 H2595 0.950 1_545 S
C2618 C2617 1.397 . S
C2618 C2619 1.334 . S
C2619 H2596 0.950 1_545 S
C2619 C2618 1.334 . S
C2619 C2620 1.287 . S
C2620 C2619 1.287 . S
C2620 C2621 1.524 . S
C2620 H2639 0.913 . S
C2621 H2597 0.950 . S
C2621 C2620 1.524 . S
C2621 C2622 1.415 . S
C2622 H2598 0.950 . S
C2622 C2617 1.363 . S
C2622 C2621 1.415 . S
C2623 H2599 0.951 . S
C2623 C2624 1.366 . S
C2623 C2625 1.388 . S
C2624 C2623 1.366 . S
C2624 C2628 1.385 . S
C2625 H2600 0.951 . S
C2625 C2623 1.388 . S
C2625 C2626 1.366 . S
C2626 C2625 1.366 . S
C2626 C2627 1.414 . S
C2626 C2629 1.499 . S
C2627 H2601 0.950 . S
C2627 C2626 1.414 . S
C2627 C2628 1.374 . S
C2628 H2602 0.950 . S
C2628 C2624 1.385 . S
C2628 C2627 1.374 . S
C2629 C2626 1.499 . S
C2629 C2630 1.373 . S
C2629 C2631 1.389 . S
C2630 H2603 0.950 . S
C2630 C2616 1.377 . S
C2630 C2629 1.373 . S
C2631 C2615 1.377 1_545 S
C2631 C2629 1.389 . S
C2631 C2632 1.524 . S
C2632 C2631 1.524 . S
C2632 C2633 1.397 . S
C2632 C2637 1.363 1_545 S
C2633 H2604 0.950 . S
C2633 C2632 1.397 . S
C2633 C2634 1.334 . S
C2634 H2605 0.950 . S
C2634 C2633 1.334 . S
C2634 C2635 1.287 . S
C2635 C2634 1.287 . S
C2635 C2636 1.524 1_545 S
C2635 H2638 0.999 . S
C2636 H2606 0.950 . S
C2636 C2635 1.524 1_565 S
C2636 C2637 1.415 . S
C2637 H2607 0.950 . S
C2637 C2632 1.363 1_565 S
C2637 C2636 1.415 . S
H2638 C2635 0.999 . S
H2639 C2620 0.913 . S
H2640 C2658 0.951 . S
H2641 C2660 0.951 . S
H2642 C2662 0.950 . S
H2643 C2663 0.950 . S
H2644 C2665 0.950 . S
H2645 C2668 0.950 . S
H2646 C2669 0.950 . S
H2647 C2671 0.950 . S
H2648 C2672 0.950 . S
H2649 C2673 0.951 . S
H2650 C2675 0.951 . S
H2651 C2677 0.950 . S
H2652 C2678 0.950 . S
H2653 C2680 0.950 . S
H2654 C2683 0.950 . S
H2655 C2684 0.950 . S
H2656 C2686 0.950 . S
H2657 C2687 0.950 . S
C2658 H2640 0.951 . S
C2658 C2659 1.366 . S
C2658 C2660 1.388 . S
C2659 C2658 1.366 . S
C2659 C2663 1.385 . S
C2660 H2641 0.951 . S
C2660 C2658 1.388 . S
C2660 C2661 1.366 . S
C2661 C2660 1.366 . S
C2661 C2662 1.414 . S
C2661 C2664 1.499 . S
C2662 H2642 0.950 . S
C2662 C2661 1.414 . S
C2662 C2663 1.374 . S
C2663 H2643 0.950 . S
C2663 C2659 1.385 . S
C2663 C2662 1.374 . S
C2664 C2661 1.499 . S
C2664 C2665 1.373 . S
C2664 C2666 1.389 . S
C2665 H2644 0.950 . S
C2665 C2664 1.373 . S
C2665 C2681 1.377 . S
C2666 C2664 1.389 . S
C2666 C2667 1.524 . S
C2666 C2680 1.377 . S
C2667 C2666 1.524 . S
C2667 C2668 1.397 . S
C2667 C2672 1.363 . S
C2668 H2645 0.950 . S
C2668 C2667 1.397 . S
C2668 C2669 1.334 . S
C2669 H2646 0.950 . S
C2669 C2668 1.334 . S
C2669 C2670 1.287 . S
C2670 C2669 1.287 . S
C2670 C2671 1.524 . S
C2670 H2689 0.913 . S
C2671 H2647 0.950 . S
C2671 C2670 1.524 . S
C2671 C2672 1.415 . S
C2672 H2648 0.950 . S
C2672 C2667 1.363 . S
C2672 C2671 1.415 . S
C2673 H2649 0.951 . S
C2673 C2674 1.366 . S
C2673 C2675 1.388 . S
C2674 C2673 1.366 . S
C2674 C2678 1.385 . S
C2675 H2650 0.951 . S
C2675 C2673 1.388 . S
C2675 C2676 1.366 . S
C2676 C2675 1.366 . S
C2676 C2677 1.414 . S
C2676 C2679 1.499 . S
C2677 H2651 0.950 . S
C2677 C2676 1.414 . S
C2677 C2678 1.374 . S
C2678 H2652 0.950 . S
C2678 C2674 1.385 . S
C2678 C2677 1.374 . S
C2679 C2676 1.499 . S
C2679 C2680 1.373 . S
C2679 C2681 1.389 . S
C2680 H2653 0.950 . S
C2680 C2666 1.377 . S
C2680 C2679 1.373 . S
C2681 C2665 1.377 . S
C2681 C2679 1.389 . S
C2681 C2682 1.524 . S
C2682 C2681 1.524 . S
C2682 C2683 1.397 . S
C2682 C2687 1.363 . S
C2683 H2654 0.950 . S
C2683 C2682 1.397 . S
C2683 C2684 1.334 . S
C2684 H2655 0.950 . S
C2684 C2683 1.334 . S
C2684 C2685 1.287 . S
C2685 C2684 1.287 . S
C2685 C2686 1.524 . S
C2685 H2688 0.999 . S
C2686 H2656 0.950 . S
C2686 C2685 1.524 . S
C2686 C2687 1.415 . S
C2687 H2657 0.950 . S
C2687 C2682 1.363 . S
C2687 C2686 1.415 . S
H2688 C2685 0.999 . S
H2689 C2670 0.913 . S
H2690 C2708 0.951 . S
H2691 C2710 0.951 . S
H2692 C2712 0.950 . S
H2693 C2713 0.950 . S
H2694 C2715 0.950 . S
H2695 C2718 0.950 . S
H2696 C2719 0.950 . S
H2697 C2721 0.950 . S
H2698 C2722 0.950 . S
H2699 C2723 0.951 . S
H2700 C2725 0.951 . S
H2701 C2727 0.950 . S
H2702 C2728 0.950 . S
H2703 C2730 0.950 . S
H2704 C2733 0.950 . S
H2705 C2734 0.950 . S
H2706 C2736 0.950 . S
H2707 C2737 0.950 . S
C2708 H2690 0.951 . S
C2708 C2709 1.366 . S
C2708 C2710 1.388 . S
C2709 C2708 1.366 . S
C2709 C2713 1.385 . S
C2710 H2691 0.951 . S
C2710 C2708 1.388 . S
C2710 C2711 1.366 . S
C2711 C2710 1.366 . S
C2711 C2712 1.414 . S
C2711 C2714 1.499 . S
C2712 H2692 0.950 . S
C2712 C2711 1.414 . S
C2712 C2713 1.374 . S
C2713 H2693 0.950 . S
C2713 C2709 1.385 . S
C2713 C2712 1.374 . S
C2714 C2711 1.499 . S
C2714 C2715 1.373 . S
C2714 C2716 1.389 . S
C2715 H2694 0.950 . S
C2715 C2714 1.373 . S
C2715 C2731 1.377 . S
C2716 C2714 1.389 . S
C2716 C2717 1.524 . S
C2716 C2730 1.377 . S
C2717 C2716 1.524 . S
C2717 C2718 1.397 . S
C2717 C2722 1.363 . S
C2718 H2695 0.950 . S
C2718 C2717 1.397 . S
C2718 C2719 1.334 . S
C2719 H2696 0.950 . S
C2719 C2718 1.334 . S
C2719 C2720 1.287 . S
C2720 C2719 1.287 . S
C2720 C2721 1.524 . S
C2720 H2739 0.913 . S
C2721 H2697 0.950 . S
C2721 C2720 1.524 . S
C2721 C2722 1.415 . S
C2722 H2698 0.950 . S
C2722 C2717 1.363 . S
C2722 C2721 1.415 . S
C2723 H2699 0.951 . S
C2723 C2724 1.366 . S
C2723 C2725 1.388 . S
C2724 C2723 1.366 . S
C2724 C2728 1.385 . S
C2725 H2700 0.951 . S
C2725 C2723 1.388 . S
C2725 C2726 1.366 . S
C2726 C2725 1.366 . S
C2726 C2727 1.414 . S
C2726 C2729 1.499 . S
C2727 H2701 0.950 . S
C2727 C2726 1.414 . S
C2727 C2728 1.374 . S
C2728 H2702 0.950 . S
C2728 C2724 1.385 . S
C2728 C2727 1.374 . S
C2729 C2726 1.499 . S
C2729 C2730 1.373 . S
C2729 C2731 1.389 . S
C2730 H2703 0.950 . S
C2730 C2716 1.377 . S
C2730 C2729 1.373 . S
C2731 C2715 1.377 . S
C2731 C2729 1.389 . S
C2731 C2732 1.524 . S
C2732 C2731 1.524 . S
C2732 C2733 1.397 . S
C2732 C2737 1.363 . S
C2733 H2704 0.950 . S
C2733 C2732 1.397 . S
C2733 C2734 1.334 . S
C2734 H2705 0.950 . S
C2734 C2733 1.334 . S
C2734 C2735 1.287 . S
C2735 C2734 1.287 . S
C2735 C2736 1.524 . S
C2735 H2738 0.999 . S
C2736 H2706 0.950 . S
C2736 C2735 1.524 . S
C2736 C2737 1.415 . S
C2737 H2707 0.950 . S
C2737 C2732 1.363 . S
C2737 C2736 1.415 . S
H2738 C2735 0.999 . S
H2739 C2720 0.913 . S
H2740 C2758 0.951 . S
H2741 C2760 0.951 . S
H2742 C2762 0.950 . S
H2743 C2763 0.950 . S
H2744 C2765 0.950 . S
H2745 C2768 0.950 . S
H2746 C2769 0.950 . S
H2747 C2771 0.950 . S
H2748 C2772 0.950 . S
H2749 C2773 0.951 . S
H2750 C2775 0.951 . S
H2751 C2777 0.950 . S
H2752 C2778 0.950 . S
H2753 C2780 0.950 . S
H2754 C2783 0.950 . S
H2755 C2784 0.950 . S
H2756 C2786 0.950 . S
H2757 C2787 0.950 . S
C2758 H2740 0.951 . S
C2758 C2759 1.366 . S
C2758 C2760 1.388 . S
C2759 C2758 1.366 . S
C2759 C2763 1.385 . S
C2760 H2741 0.951 . S
C2760 C2758 1.388 . S
C2760 C2761 1.366 . S
C2761 C2760 1.366 . S
C2761 C2762 1.414 . S
C2761 C2764 1.499 . S
C2762 H2742 0.950 . S
C2762 C2761 1.414 . S
C2762 C2763 1.374 . S
C2763 H2743 0.950 . S
C2763 C2759 1.385 . S
C2763 C2762 1.374 . S
C2764 C2761 1.499 . S
C2764 C2765 1.373 . S
C2764 C2766 1.389 . S
C2765 H2744 0.950 . S
C2765 C2764 1.373 . S
C2765 C2781 1.377 . S
C2766 C2764 1.389 . S
C2766 C2767 1.524 . S
C2766 C2780 1.377 . S
C2767 C2766 1.524 . S
C2767 C2768 1.397 . S
C2767 C2772 1.363 . S
C2768 H2745 0.950 . S
C2768 C2767 1.397 . S
C2768 C2769 1.334 . S
C2769 H2746 0.950 . S
C2769 C2768 1.334 . S
C2769 C2770 1.287 . S
C2770 C2769 1.287 . S
C2770 C2771 1.524 . S
C2770 H2789 0.913 . S
C2771 H2747 0.950 . S
C2771 C2770 1.524 . S
C2771 C2772 1.415 . S
C2772 H2748 0.950 . S
C2772 C2767 1.363 . S
C2772 C2771 1.415 . S
C2773 H2749 0.951 . S
C2773 C2774 1.366 . S
C2773 C2775 1.388 . S
C2774 C2773 1.366 . S
C2774 C2778 1.385 . S
C2775 H2750 0.951 . S
C2775 C2773 1.388 . S
C2775 C2776 1.366 . S
C2776 C2775 1.366 . S
C2776 C2777 1.414 . S
C2776 C2779 1.499 . S
C2777 H2751 0.950 . S
C2777 C2776 1.414 . S
C2777 C2778 1.374 . S
C2778 H2752 0.950 . S
C2778 C2774 1.385 . S
C2778 C2777 1.374 . S
C2779 C2776 1.499 . S
C2779 C2780 1.373 . S
C2779 C2781 1.389 . S
C2780 H2753 0.950 . S
C2780 C2766 1.377 . S
C2780 C2779 1.373 . S
C2781 C2765 1.377 . S
C2781 C2779 1.389 . S
C2781 C2782 1.524 . S
C2782 C2781 1.524 . S
C2782 C2783 1.397 . S
C2782 C2787 1.363 . S
C2783 H2754 0.950 . S
C2783 C2782 1.397 . S
C2783 C2784 1.334 . S
C2784 H2755 0.950 . S
C2784 C2783 1.334 . S
C2784 C2785 1.287 . S
C2785 C2784 1.287 . S
C2785 C2786 1.524 . S
C2785 H2788 0.999 . S
C2786 H2756 0.950 . S
C2786 C2785 1.524 . S
C2786 C2787 1.415 . S
C2787 H2757 0.950 . S
C2787 C2782 1.363 . S
C2787 C2786 1.415 . S
H2788 C2785 0.999 . S
H2789 C2770 0.913 . S
H2790 C2808 0.951 . S
H2791 C2810 0.951 . S
H2792 C2812 0.950 . S
H2793 C2813 0.950 . S
H2794 C2815 0.950 . S
H2795 C2818 0.950 . S
H2796 C2819 0.950 . S
H2797 C2821 0.950 . S
H2798 C2822 0.950 . S
H2799 C2823 0.951 . S
H2800 C2825 0.951 . S
H2801 C2827 0.950 . S
H2802 C2828 0.950 . S
H2803 C2830 0.950 . S
H2804 C2833 0.950 . S
H2805 C2834 0.950 . S
H2806 C2836 0.950 . S
H2807 C2837 0.950 . S
C2808 H2790 0.951 . S
C2808 C2809 1.366 . S
C2808 C2810 1.388 . S
C2809 C2808 1.366 . S
C2809 C2813 1.385 . S
C2810 H2791 0.951 . S
C2810 C2808 1.388 . S
C2810 C2811 1.366 . S
C2811 C2810 1.366 . S
C2811 C2812 1.414 . S
C2811 C2814 1.499 . S
C2812 H2792 0.950 . S
C2812 C2811 1.414 . S
C2812 C2813 1.374 . S
C2813 H2793 0.950 . S
C2813 C2809 1.385 . S
C2813 C2812 1.374 . S
C2814 C2811 1.499 . S
C2814 C2815 1.373 . S
C2814 C2816 1.389 . S
C2815 H2794 0.950 . S
C2815 C2814 1.373 . S
C2815 C2831 1.377 . S
C2816 C2814 1.389 . S
C2816 C2817 1.524 . S
C2816 C2830 1.377 . S
C2817 C2816 1.524 . S
C2817 C2818 1.397 . S
C2817 C2822 1.363 . S
C2818 H2795 0.950 . S
C2818 C2817 1.397 . S
C2818 C2819 1.334 . S
C2819 H2796 0.950 . S
C2819 C2818 1.334 . S
C2819 C2820 1.287 . S
C2820 C2819 1.287 . S
C2820 C2821 1.524 . S
C2820 H2839 0.913 . S
C2821 H2797 0.950 . S
C2821 C2820 1.524 . S
C2821 C2822 1.415 . S
C2822 H2798 0.950 . S
C2822 C2817 1.363 . S
C2822 C2821 1.415 . S
C2823 H2799 0.951 . S
C2823 C2824 1.366 . S
C2823 C2825 1.388 . S
C2824 C2823 1.366 . S
C2824 C2828 1.385 . S
C2825 H2800 0.951 . S
C2825 C2823 1.388 . S
C2825 C2826 1.366 . S
C2826 C2825 1.366 . S
C2826 C2827 1.414 . S
C2826 C2829 1.499 . S
C2827 H2801 0.950 . S
C2827 C2826 1.414 . S
C2827 C2828 1.374 . S
C2828 H2802 0.950 . S
C2828 C2824 1.385 . S
C2828 C2827 1.374 . S
C2829 C2826 1.499 . S
C2829 C2830 1.373 . S
C2829 C2831 1.389 . S
C2830 H2803 0.950 . S
C2830 C2816 1.377 . S
C2830 C2829 1.373 . S
C2831 C2815 1.377 . S
C2831 C2829 1.389 . S
C2831 C2832 1.524 . S
C2832 C2831 1.524 . S
C2832 C2833 1.397 . S
C2832 C2837 1.363 . S
C2833 H2804 0.950 . S
C2833 C2832 1.397 . S
C2833 C2834 1.334 . S
C2834 H2805 0.950 . S
C2834 C2833 1.334 . S
C2834 C2835 1.287 . S
C2835 C2834 1.287 . S
C2835 C2836 1.524 . S
C2835 H2838 0.999 . S
C2836 H2806 0.950 . S
C2836 C2835 1.524 . S
C2836 C2837 1.415 . S
C2837 H2807 0.950 . S
C2837 C2832 1.363 . S
C2837 C2836 1.415 . S
H2838 C2835 0.999 . S
H2839 C2820 0.913 . S
H2840 C2858 0.951 . S
H2841 C2860 0.951 . S
H2842 C2862 0.950 . S
H2843 C2863 0.950 . S
H2844 C2865 0.950 . S
H2845 C2868 0.950 . S
H2846 C2869 0.950 . S
H2847 C2871 0.950 . S
H2848 C2872 0.950 . S
H2849 C2873 0.951 . S
H2850 C2875 0.951 . S
H2851 C2877 0.950 . S
H2852 C2878 0.950 . S
H2853 C2880 0.950 . S
H2854 C2883 0.950 . S
H2855 C2884 0.950 . S
H2856 C2886 0.950 . S
H2857 C2887 0.950 . S
C2858 H2840 0.951 . S
C2858 C2859 1.366 . S
C2858 C2860 1.388 . S
C2859 C2858 1.366 . S
C2859 C2863 1.385 . S
C2860 H2841 0.951 . S
C2860 C2858 1.388 . S
C2860 C2861 1.366 . S
C2861 C2860 1.366 . S
C2861 C2862 1.414 . S
C2861 C2864 1.499 . S
C2862 H2842 0.950 . S
C2862 C2861 1.414 . S
C2862 C2863 1.374 . S
C2863 H2843 0.950 . S
C2863 C2859 1.385 . S
C2863 C2862 1.374 . S
C2864 C2861 1.499 . S
C2864 C2865 1.373 . S
C2864 C2866 1.389 . S
C2865 H2844 0.950 . S
C2865 C2864 1.373 . S
C2865 C2881 1.377 . S
C2866 C2864 1.389 . S
C2866 C2867 1.524 . S
C2866 C2880 1.377 . S
C2867 C2866 1.524 . S
C2867 C2868 1.397 . S
C2867 C2872 1.363 . S
C2868 H2845 0.950 . S
C2868 C2867 1.397 . S
C2868 C2869 1.334 . S
C2869 H2846 0.950 . S
C2869 C2868 1.334 . S
C2869 C2870 1.287 . S
C2870 C2869 1.287 . S
C2870 C2871 1.524 . S
C2870 H2889 0.913 . S
C2871 H2847 0.950 . S
C2871 C2870 1.524 . S
C2871 C2872 1.415 . S
C2872 H2848 0.950 . S
C2872 C2867 1.363 . S
C2872 C2871 1.415 . S
C2873 H2849 0.951 . S
C2873 C2874 1.366 . S
C2873 C2875 1.388 . S
C2874 C2873 1.366 . S
C2874 C2878 1.385 . S
C2875 H2850 0.951 . S
C2875 C2873 1.388 . S
C2875 C2876 1.366 . S
C2876 C2875 1.366 . S
C2876 C2877 1.414 . S
C2876 C2879 1.499 . S
C2877 H2851 0.950 . S
C2877 C2876 1.414 . S
C2877 C2878 1.374 . S
C2878 H2852 0.950 . S
C2878 C2874 1.385 . S
C2878 C2877 1.374 . S
C2879 C2876 1.499 . S
C2879 C2880 1.373 . S
C2879 C2881 1.389 . S
C2880 H2853 0.950 . S
C2880 C2866 1.377 . S
C2880 C2879 1.373 . S
C2881 C2865 1.377 . S
C2881 C2879 1.389 . S
C2881 C2882 1.524 . S
C2882 C2881 1.524 . S
C2882 C2883 1.397 . S
C2882 C2887 1.363 . S
C2883 H2854 0.950 . S
C2883 C2882 1.397 . S
C2883 C2884 1.334 1_455 S
C2884 H2855 0.950 . S
C2884 C2883 1.334 1_655 S
C2884 C2885 1.287 . S
C2885 C2884 1.287 . S
C2885 C2886 1.524 1_655 S
C2885 H2888 0.999 . S
C2886 H2856 0.950 . S
C2886 C2885 1.524 1_455 S
C2886 C2887 1.415 . S
C2887 H2857 0.950 . S
C2887 C2882 1.363 . S
C2887 C2886 1.415 . S
H2888 C2885 0.999 . S
H2889 C2870 0.913 . S
H2890 C2908 0.951 . S
H2891 C2910 0.951 . S
H2892 C2912 0.950 . S
H2893 C2913 0.950 . S
H2894 C2915 0.950 . S
H2895 C2918 0.950 . S
H2896 C2919 0.950 . S
H2897 C2921 0.950 . S
H2898 C2922 0.950 . S
H2899 C2923 0.951 . S
H2900 C2925 0.951 . S
H2901 C2927 0.950 . S
H2902 C2928 0.950 . S
H2903 C2930 0.950 . S
H2904 C2933 0.950 . S
H2905 C2934 0.950 . S
H2906 C2936 0.950 . S
H2907 C2937 0.950 . S
C2908 H2890 0.951 . S
C2908 C2909 1.366 . S
C2908 C2910 1.388 . S
C2909 C2908 1.366 . S
C2909 C2913 1.385 . S
C2910 H2891 0.951 . S
C2910 C2908 1.388 . S
C2910 C2911 1.366 . S
C2911 C2910 1.366 . S
C2911 C2912 1.414 . S
C2911 C2914 1.499 . S
C2912 H2892 0.950 . S
C2912 C2911 1.414 . S
C2912 C2913 1.374 . S
C2913 H2893 0.950 . S
C2913 C2909 1.385 . S
C2913 C2912 1.374 . S
C2914 C2911 1.499 . S
C2914 C2915 1.373 . S
C2914 C2916 1.389 . S
C2915 H2894 0.950 . S
C2915 C2914 1.373 . S
C2915 C2931 1.377 . S
C2916 C2914 1.389 . S
C2916 C2917 1.524 . S
C2916 C2930 1.377 . S
C2917 C2916 1.524 . S
C2917 C2918 1.397 . S
C2917 C2922 1.363 . S
C2918 H2895 0.950 . S
C2918 C2917 1.397 . S
C2918 C2919 1.334 . S
C2919 H2896 0.950 . S
C2919 C2918 1.334 . S
C2919 C2920 1.287 . S
C2920 C2919 1.287 . S
C2920 C2921 1.524 . S
C2920 H2939 0.913 . S
C2921 H2897 0.950 . S
C2921 C2920 1.524 . S
C2921 C2922 1.415 . S
C2922 H2898 0.950 . S
C2922 C2917 1.363 . S
C2922 C2921 1.415 . S
C2923 H2899 0.951 . S
C2923 C2924 1.366 . S
C2923 C2925 1.388 . S
C2924 C2923 1.366 . S
C2924 C2928 1.385 . S
C2925 H2900 0.951 . S
C2925 C2923 1.388 . S
C2925 C2926 1.366 . S
C2926 C2925 1.366 . S
C2926 C2927 1.414 . S
C2926 C2929 1.499 . S
C2927 H2901 0.950 . S
C2927 C2926 1.414 . S
C2927 C2928 1.374 . S
C2928 H2902 0.950 . S
C2928 C2924 1.385 . S
C2928 C2927 1.374 . S
C2929 C2926 1.499 . S
C2929 C2930 1.373 . S
C2929 C2931 1.389 . S
C2930 H2903 0.950 . S
C2930 C2916 1.377 . S
C2930 C2929 1.373 . S
C2931 C2915 1.377 . S
C2931 C2929 1.389 . S
C2931 C2932 1.524 . S
C2932 C2931 1.524 . S
C2932 C2933 1.397 . S
C2932 C2937 1.363 . S
C2933 H2904 0.950 . S
C2933 C2932 1.397 . S
C2933 C2934 1.334 . S
C2934 H2905 0.950 . S
C2934 C2933 1.334 . S
C2934 C2935 1.287 . S
C2935 C2934 1.287 . S
C2935 C2936 1.524 . S
C2935 H2938 0.999 . S
C2936 H2906 0.950 . S
C2936 C2935 1.524 . S
C2936 C2937 1.415 . S
C2937 H2907 0.950 . S
C2937 C2932 1.363 . S
C2937 C2936 1.415 . S
H2938 C2935 0.999 . S
H2939 C2920 0.913 . S
H2940 C2958 0.951 . S
H2941 C2960 0.951 . S
H2942 C2962 0.950 . S
H2943 C2963 0.950 . S
H2944 C2965 0.950 . S
H2945 C2968 0.950 . S
H2946 C2969 0.950 . S
H2947 C2971 0.950 . S
H2948 C2972 0.950 . S
H2949 C2973 0.951 1_455 S
H2950 C2975 0.951 . S
H2951 C2977 0.950 . S
H2952 C2978 0.950 . S
H2953 C2980 0.950 . S
H2954 C2983 0.941 1_655 S
H2955 C2984 0.950 . S
H2956 C2986 0.950 . S
H2957 C2987 0.950 . S
C2958 H2940 0.951 . S
C2958 C2959 1.366 . S
C2958 C2960 1.388 . S
C2959 C2958 1.366 . S
C2959 C2963 1.385 . S
C2960 H2941 0.951 . S
C2960 C2958 1.388 . S
C2960 C2961 1.366 . S
C2961 C2960 1.366 . S
C2961 C2962 1.414 . S
C2961 C2964 1.499 . S
C2962 H2942 0.950 . S
C2962 C2961 1.414 . S
C2962 C2963 1.374 . S
C2963 H2943 0.950 . S
C2963 C2959 1.385 . S
C2963 C2962 1.374 . S
C2964 C2961 1.499 . S
C2964 C2965 1.373 . S
C2964 C2966 1.389 . S
C2965 H2944 0.950 . S
C2965 C2964 1.373 . S
C2965 C2981 1.377 . S
C2966 C2964 1.389 . S
C2966 C2967 1.524 . S
C2966 C2980 1.377 . S
C2967 C2966 1.524 . S
C2967 C2968 1.397 . S
C2967 C2972 1.363 . S
C2968 H2945 0.950 . S
C2968 C2967 1.397 . S
C2968 C2969 1.334 . S
C2969 H2946 0.950 . S
C2969 C2968 1.334 . S
C2969 C2970 1.287 . S
C2970 C2969 1.287 . S
C2970 C2971 1.524 . S
C2970 H2989 0.913 . S
C2971 H2947 0.950 . S
C2971 C2970 1.524 . S
C2971 C2972 1.415 . S
C2972 H2948 0.950 . S
C2972 C2967 1.363 . S
C2972 C2971 1.415 . S
C2973 H2949 0.951 1_655 S
C2973 C2974 1.366 . S
C2973 C2975 1.388 . S
C2974 C2973 1.366 . S
C2974 C2978 1.385 . S
C2975 H2950 0.951 . S
C2975 C2973 1.388 . S
C2975 C2976 1.366 . S
C2976 C2975 1.366 . S
C2976 C2977 1.414 . S
C2976 C2979 1.499 . S
C2977 H2951 0.950 . S
C2977 C2976 1.414 . S
C2977 C2978 1.374 . S
C2978 H2952 0.950 . S
C2978 C2974 1.385 . S
C2978 C2977 1.374 . S
C2979 C2976 1.499 . S
C2979 C2980 1.373 . S
C2979 C2981 1.389 . S
C2980 H2953 0.950 . S
C2980 C2966 1.377 . S
C2980 C2979 1.373 . S
C2981 C2965 1.377 . S
C2981 C2979 1.389 . S
C2981 C2982 1.540 . S
C2982 C2981 1.540 . S
C2982 C2983 1.387 1_655 S
C2982 C2987 1.353 1_655 S
C2983 H2954 0.941 1_455 S
C2983 C2982 1.387 1_455 S
C2983 C2984 1.347 . S
C2984 H2955 0.950 . S
C2984 C2983 1.347 . S
C2984 C2985 1.287 . S
C2985 C2984 1.287 . S
C2985 C2986 1.524 . S
C2985 H2988 0.999 . S
C2986 H2956 0.950 . S
C2986 C2985 1.524 . S
C2986 C2987 1.415 . S
C2987 H2957 0.950 . S
C2987 C2982 1.353 1_455 S
C2987 C2986 1.415 . S
H2988 C2985 0.999 . S
H2989 C2970 0.913 . S
H2990 C3008 0.951 . S
H2991 C3010 0.951 . S
H2992 C3012 0.950 . S
H2993 C3013 0.950 . S
H2994 C3015 0.950 . S
H2995 C3018 0.950 . S
H2996 C3019 0.950 . S
H2997 C3021 0.950 . S
H2998 C3022 0.950 . S
H2999 C3023 0.951 . S
H3000 C3025 0.951 . S
H3001 C3027 0.950 . S
H3002 C3028 0.950 . S
H3003 C3030 0.950 . S
H3004 C3033 0.950 . S
H3005 C3034 0.950 . S
H3006 C3036 0.950 . S
H3007 C3037 0.950 . S
C3008 H2990 0.951 . S
C3008 C3009 1.366 . S
C3008 C3010 1.388 . S
C3009 C3008 1.366 . S
C3009 C3013 1.385 . S
C3010 H2991 0.951 . S
C3010 C3008 1.388 . S
C3010 C3011 1.366 . S
C3011 C3010 1.366 . S
C3011 C3012 1.414 . S
C3011 C3014 1.499 . S
C3012 H2992 0.950 . S
C3012 C3011 1.414 . S
C3012 C3013 1.374 . S
C3013 H2993 0.950 . S
C3013 C3009 1.385 . S
C3013 C3012 1.374 . S
C3014 C3011 1.499 . S
C3014 C3015 1.373 . S
C3014 C3016 1.389 . S
C3015 H2994 0.950 . S
C3015 C3014 1.373 . S
C3015 C3031 1.377 . S
C3016 C3014 1.389 . S
C3016 C3017 1.524 . S
C3016 C3030 1.377 . S
C3017 C3016 1.524 . S
C3017 C3018 1.397 . S
C3017 C3022 1.363 . S
C3018 H2995 0.950 . S
C3018 C3017 1.397 . S
C3018 C3019 1.334 . S
C3019 H2996 0.950 . S
C3019 C3018 1.334 . S
C3019 C3020 1.287 . S
C3020 C3019 1.287 . S
C3020 C3021 1.524 . S
C3020 H3039 0.913 . S
C3021 H2997 0.950 . S
C3021 C3020 1.524 . S
C3021 C3022 1.415 . S
C3022 H2998 0.950 . S
C3022 C3017 1.363 . S
C3022 C3021 1.415 . S
C3023 H2999 0.951 . S
C3023 C3024 1.366 . S
C3023 C3025 1.388 . S
C3024 C3023 1.366 . S
C3024 C3028 1.385 . S
C3025 H3000 0.951 . S
C3025 C3023 1.388 . S
C3025 C3026 1.366 . S
C3026 C3025 1.366 . S
C3026 C3027 1.414 . S
C3026 C3029 1.499 . S
C3027 H3001 0.950 . S
C3027 C3026 1.414 . S
C3027 C3028 1.374 . S
C3028 H3002 0.950 . S
C3028 C3024 1.385 . S
C3028 C3027 1.374 . S
C3029 C3026 1.499 . S
C3029 C3030 1.373 . S
C3029 C3031 1.389 . S
C3030 H3003 0.950 . S
C3030 C3016 1.377 . S
C3030 C3029 1.373 . S
C3031 C3015 1.377 . S
C3031 C3029 1.389 . S
C3031 C3032 1.524 . S
C3032 C3031 1.524 . S
C3032 C3033 1.397 . S
C3032 C3037 1.363 . S
C3033 H3004 0.950 . S
C3033 C3032 1.397 . S
C3033 C3034 1.334 . S
C3034 H3005 0.950 . S
C3034 C3033 1.334 . S
C3034 C3035 1.287 . S
C3035 C3034 1.287 . S
C3035 C3036 1.524 . S
C3035 H3038 0.999 . S
C3036 H3006 0.950 . S
C3036 C3035 1.524 . S
C3036 C3037 1.415 . S
C3037 H3007 0.950 . S
C3037 C3032 1.363 . S
C3037 C3036 1.415 . S
H3038 C3035 0.999 . S
H3039 C3020 0.913 . S
H3040 C3058 0.951 . S
H3041 C3060 0.951 . S
H3042 C3062 0.950 . S
H3043 C3063 0.950 . S
H3044 C3065 0.950 . S
H3045 C3068 0.950 . S
H3046 C3069 0.950 . S
H3047 C3071 0.950 . S
H3048 C3072 0.950 . S
H3049 C3073 0.951 . S
H3050 C3075 0.951 . S
H3051 C3077 0.950 . S
H3052 C3078 0.950 . S
H3053 C3080 0.950 . S
H3054 C3083 0.950 . S
H3055 C3084 0.950 . S
H3056 C3086 0.950 . S
H3057 C3087 0.950 . S
C3058 H3040 0.951 . S
C3058 C3059 1.366 . S
C3058 C3060 1.388 . S
C3059 C3058 1.366 . S
C3059 C3063 1.385 . S
C3060 H3041 0.951 . S
C3060 C3058 1.388 . S
C3060 C3061 1.366 . S
C3061 C3060 1.366 . S
C3061 C3062 1.414 . S
C3061 C3064 1.499 . S
C3062 H3042 0.950 . S
C3062 C3061 1.414 . S
C3062 C3063 1.374 . S
C3063 H3043 0.950 . S
C3063 C3059 1.385 . S
C3063 C3062 1.374 . S
C3064 C3061 1.499 . S
C3064 C3065 1.373 . S
C3064 C3066 1.389 . S
C3065 H3044 0.950 . S
C3065 C3064 1.373 . S
C3065 C3081 1.377 . S
C3066 C3064 1.389 . S
C3066 C3067 1.524 . S
C3066 C3080 1.377 . S
C3067 C3066 1.524 . S
C3067 C3068 1.397 . S
C3067 C3072 1.363 . S
C3068 H3045 0.950 . S
C3068 C3067 1.397 . S
C3068 C3069 1.334 . S
C3069 H3046 0.950 . S
C3069 C3068 1.334 . S
C3069 C3070 1.287 . S
C3070 C3069 1.287 . S
C3070 C3071 1.524 . S
C3070 H3089 0.913 . S
C3071 H3047 0.950 . S
C3071 C3070 1.524 . S
C3071 C3072 1.415 . S
C3072 H3048 0.950 . S
C3072 C3067 1.363 . S
C3072 C3071 1.415 . S
C3073 H3049 0.951 . S
C3073 C3074 1.366 . S
C3073 C3075 1.388 . S
C3074 C3073 1.366 . S
C3074 C3078 1.385 . S
C3075 H3050 0.951 . S
C3075 C3073 1.388 . S
C3075 C3076 1.366 . S
C3076 C3075 1.366 . S
C3076 C3077 1.414 . S
C3076 C3079 1.499 . S
C3077 H3051 0.950 . S
C3077 C3076 1.414 . S
C3077 C3078 1.374 . S
C3078 H3052 0.950 . S
C3078 C3074 1.385 . S
C3078 C3077 1.374 . S
C3079 C3076 1.499 . S
C3079 C3080 1.373 . S
C3079 C3081 1.389 . S
C3080 H3053 0.950 . S
C3080 C3066 1.377 . S
C3080 C3079 1.373 . S
C3081 C3065 1.377 . S
C3081 C3079 1.389 . S
C3081 C3082 1.524 . S
C3082 C3081 1.524 . S
C3082 C3083 1.397 . S
C3082 C3087 1.363 . S
C3083 H3054 0.950 . S
C3083 C3082 1.397 . S
C3083 C3084 1.334 . S
C3084 H3055 0.950 . S
C3084 C3083 1.334 . S
C3084 C3085 1.287 . S
C3085 C3084 1.287 . S
C3085 C3086 1.524 . S
C3085 H3088 0.999 . S
C3086 H3056 0.950 . S
C3086 C3085 1.524 . S
C3086 C3087 1.415 . S
C3087 H3057 0.950 . S
C3087 C3082 1.363 . S
C3087 C3086 1.415 . S
H3088 C3085 0.999 . S
H3089 C3070 0.913 . S
H3090 C3108 0.951 . S
H3091 C3110 0.951 . S
H3092 C3112 0.950 . S
H3093 C3113 0.950 . S
H3094 C3115 0.950 . S
H3095 C3118 0.950 . S
H3096 C3119 0.950 . S
H3097 C3121 0.950 . S
H3098 C3122 0.950 . S
H3099 C3123 0.951 . S
H3100 C3125 0.951 . S
H3101 C3127 0.950 . S
H3102 C3128 0.950 . S
H3103 C3130 0.950 . S
H3104 C3133 0.950 . S
H3105 C3134 0.950 . S
H3106 C3136 0.950 . S
H3107 C3137 0.950 . S
C3108 H3090 0.951 . S
C3108 C3109 1.366 . S
C3108 C3110 1.388 . S
C3109 C3108 1.366 . S
C3109 C3113 1.385 . S
C3110 H3091 0.951 . S
C3110 C3108 1.388 . S
C3110 C3111 1.366 . S
C3111 C3110 1.366 . S
C3111 C3112 1.414 . S
C3111 C3114 1.499 . S
C3112 H3092 0.950 . S
C3112 C3111 1.414 . S
C3112 C3113 1.374 . S
C3113 H3093 0.950 . S
C3113 C3109 1.385 . S
C3113 C3112 1.374 . S
C3114 C3111 1.499 . S
C3114 C3115 1.373 . S
C3114 C3116 1.389 . S
C3115 H3094 0.950 . S
C3115 C3114 1.373 . S
C3115 C3131 1.377 . S
C3116 C3114 1.389 . S
C3116 C3117 1.524 . S
C3116 C3130 1.377 . S
C3117 C3116 1.524 . S
C3117 C3118 1.397 . S
C3117 C3122 1.363 . S
C3118 H3095 0.950 . S
C3118 C3117 1.397 . S
C3118 C3119 1.334 . S
C3119 H3096 0.950 . S
C3119 C3118 1.334 . S
C3119 C3120 1.287 . S
C3120 C3119 1.287 . S
C3120 C3121 1.524 . S
C3120 H3139 0.913 . S
C3121 H3097 0.950 . S
C3121 C3120 1.524 . S
C3121 C3122 1.415 . S
C3122 H3098 0.950 . S
C3122 C3117 1.363 . S
C3122 C3121 1.415 . S
C3123 H3099 0.951 . S
C3123 C3124 1.366 . S
C3123 C3125 1.388 . S
C3124 C3123 1.366 . S
C3124 C3128 1.385 . S
C3125 H3100 0.951 . S
C3125 C3123 1.388 . S
C3125 C3126 1.366 . S
C3126 C3125 1.366 . S
C3126 C3127 1.414 . S
C3126 C3129 1.499 . S
C3127 H3101 0.950 . S
C3127 C3126 1.414 . S
C3127 C3128 1.374 . S
C3128 H3102 0.950 . S
C3128 C3124 1.385 . S
C3128 C3127 1.374 . S
C3129 C3126 1.499 . S
C3129 C3130 1.373 . S
C3129 C3131 1.389 . S
C3130 H3103 0.950 . S
C3130 C3116 1.377 . S
C3130 C3129 1.373 . S
C3131 C3115 1.377 . S
C3131 C3129 1.389 . S
C3131 C3132 1.524 . S
C3132 C3131 1.524 . S
C3132 C3133 1.397 . S
C3132 C3137 1.363 . S
C3133 H3104 0.950 . S
C3133 C3132 1.397 . S
C3133 C3134 1.334 . S
C3134 H3105 0.950 . S
C3134 C3133 1.334 . S
C3134 C3135 1.287 . S
C3135 C3134 1.287 . S
C3135 C3136 1.524 . S
C3135 H3138 0.999 . S
C3136 H3106 0.950 . S
C3136 C3135 1.524 . S
C3136 C3137 1.415 . S
C3137 H3107 0.950 . S
C3137 C3132 1.363 . S
C3137 C3136 1.415 . S
H3138 C3135 0.999 . S
H3139 C3120 0.913 . S
H3140 C3158 0.951 . S
H3141 C3160 0.951 . S
H3142 C3162 0.950 . S
H3143 C3163 0.950 . S
H3144 C3165 0.950 . S
H3145 C3168 0.950 . S
H3146 C3169 0.950 . S
H3147 C3171 0.950 . S
H3148 C3172 0.950 . S
H3149 C3173 0.951 . S
H3150 C3175 0.951 . S
H3151 C3177 0.950 . S
H3152 C3178 0.950 . S
H3153 C3180 0.950 . S
H3154 C3183 0.950 . S
H3155 C3184 0.950 . S
H3156 C3186 0.950 . S
H3157 C3187 0.950 . S
C3158 H3140 0.951 . S
C3158 C3159 1.366 . S
C3158 C3160 1.388 . S
C3159 C3158 1.366 . S
C3159 C3163 1.385 . S
C3160 H3141 0.951 . S
C3160 C3158 1.388 . S
C3160 C3161 1.366 . S
C3161 C3160 1.366 . S
C3161 C3162 1.414 . S
C3161 C3164 1.499 . S
C3162 H3142 0.950 . S
C3162 C3161 1.414 . S
C3162 C3163 1.374 . S
C3163 H3143 0.950 . S
C3163 C3159 1.385 . S
C3163 C3162 1.374 . S
C3164 C3161 1.499 . S
C3164 C3165 1.373 . S
C3164 C3166 1.389 . S
C3165 H3144 0.950 . S
C3165 C3164 1.373 . S
C3165 C3181 1.377 . S
C3166 C3164 1.389 . S
C3166 C3167 1.524 . S
C3166 C3180 1.377 . S
C3167 C3166 1.524 . S
C3167 C3168 1.397 . S
C3167 C3172 1.363 . S
C3168 H3145 0.950 . S
C3168 C3167 1.397 . S
C3168 C3169 1.334 . S
C3169 H3146 0.950 . S
C3169 C3168 1.334 . S
C3169 C3170 1.287 . S
C3170 C3169 1.287 . S
C3170 C3171 1.524 . S
C3170 H3189 0.913 . S
C3171 H3147 0.950 . S
C3171 C3170 1.524 . S
C3171 C3172 1.415 . S
C3172 H3148 0.950 . S
C3172 C3167 1.363 . S
C3172 C3171 1.415 . S
C3173 H3149 0.951 . S
C3173 C3174 1.366 . S
C3173 C3175 1.388 . S
C3174 C3173 1.366 . S
C3174 C3178 1.385 . S
C3175 H3150 0.951 . S
C3175 C3173 1.388 . S
C3175 C3176 1.366 . S
C3176 C3175 1.366 . S
C3176 C3177 1.414 . S
C3176 C3179 1.499 . S
C3177 H3151 0.950 . S
C3177 C3176 1.414 . S
C3177 C3178 1.374 . S
C3178 H3152 0.950 . S
C3178 C3174 1.385 . S
C3178 C3177 1.374 . S
C3179 C3176 1.499 . S
C3179 C3180 1.373 . S
C3179 C3181 1.389 . S
C3180 H3153 0.950 . S
C3180 C3166 1.377 . S
C3180 C3179 1.373 . S
C3181 C3165 1.377 . S
C3181 C3179 1.389 . S
C3181 C3182 1.524 . S
C3182 C3181 1.524 . S
C3182 C3183 1.397 . S
C3182 C3187 1.363 . S
C3183 H3154 0.950 . S
C3183 C3182 1.397 . S
C3183 C3184 1.334 . S
C3184 H3155 0.950 . S
C3184 C3183 1.334 . S
C3184 C3185 1.287 . S
C3185 C3184 1.287 . S
C3185 C3186 1.524 . S
C3185 H3188 0.999 . S
C3186 H3156 0.950 . S
C3186 C3185 1.524 . S
C3186 C3187 1.415 . S
C3187 H3157 0.950 . S
C3187 C3182 1.363 . S
C3187 C3186 1.415 . S
H3188 C3185 0.999 . S
H3189 C3170 0.913 . S
H3190 C3208 0.951 . S
H3191 C3210 0.951 . S
H3192 C3212 0.950 . S
H3193 C3213 0.950 . S
H3194 C3215 0.950 . S
H3195 C3218 0.950 . S
H3196 C3219 0.950 . S
H3197 C3221 0.950 . S
H3198 C3222 0.950 . S
H3199 C3223 0.951 . S
H3200 C3225 0.951 . S
H3201 C3227 0.950 . S
H3202 C3228 0.950 . S
H3203 C3230 0.950 . S
H3204 C3233 0.950 . S
H3205 C3234 0.950 . S
H3206 C3236 0.950 . S
H3207 C3237 0.950 . S
C3208 H3190 0.951 . S
C3208 C3209 1.366 . S
C3208 C3210 1.388 . S
C3209 C3208 1.366 . S
C3209 C3213 1.385 . S
C3210 H3191 0.951 . S
C3210 C3208 1.388 . S
C3210 C3211 1.366 . S
C3211 C3210 1.366 . S
C3211 C3212 1.414 . S
C3211 C3214 1.499 . S
C3212 H3192 0.950 . S
C3212 C3211 1.414 . S
C3212 C3213 1.374 . S
C3213 H3193 0.950 . S
C3213 C3209 1.385 . S
C3213 C3212 1.374 . S
C3214 C3211 1.499 . S
C3214 C3215 1.373 . S
C3214 C3216 1.389 . S
C3215 H3194 0.950 . S
C3215 C3214 1.373 . S
C3215 C3231 1.377 . S
C3216 C3214 1.389 . S
C3216 C3217 1.524 . S
C3216 C3230 1.377 . S
C3217 C3216 1.524 . S
C3217 C3218 1.397 . S
C3217 C3222 1.363 . S
C3218 H3195 0.950 . S
C3218 C3217 1.397 . S
C3218 C3219 1.334 . S
C3219 H3196 0.950 . S
C3219 C3218 1.334 . S
C3219 C3220 1.287 . S
C3220 C3219 1.287 . S
C3220 C3221 1.524 . S
C3220 H3239 0.913 . S
C3221 H3197 0.950 . S
C3221 C3220 1.524 . S
C3221 C3222 1.415 . S
C3222 H3198 0.950 . S
C3222 C3217 1.363 . S
C3222 C3221 1.415 . S
C3223 H3199 0.951 . S
C3223 C3224 1.366 . S
C3223 C3225 1.388 . S
C3224 C3223 1.366 . S
C3224 C3228 1.385 . S
C3225 H3200 0.951 . S
C3225 C3223 1.388 . S
C3225 C3226 1.366 . S
C3226 C3225 1.366 . S
C3226 C3227 1.414 . S
C3226 C3229 1.499 . S
C3227 H3201 0.950 . S
C3227 C3226 1.414 . S
C3227 C3228 1.374 . S
C3228 H3202 0.950 . S
C3228 C3224 1.385 . S
C3228 C3227 1.374 . S
C3229 C3226 1.499 . S
C3229 C3230 1.373 . S
C3229 C3231 1.389 . S
C3230 H3203 0.950 . S
C3230 C3216 1.377 . S
C3230 C3229 1.373 . S
C3231 C3215 1.377 . S
C3231 C3229 1.389 . S
C3231 C3232 1.524 . S
C3232 C3231 1.524 . S
C3232 C3233 1.397 . S
C3232 C3237 1.363 . S
C3233 H3204 0.950 . S
C3233 C3232 1.397 . S
C3233 C3234 1.334 . S
C3234 H3205 0.950 . S
C3234 C3233 1.334 . S
C3234 C3235 1.287 . S
C3235 C3234 1.287 . S
C3235 C3236 1.524 . S
C3235 H3238 0.999 . S
C3236 H3206 0.950 . S
C3236 C3235 1.524 . S
C3236 C3237 1.415 . S
C3237 H3207 0.950 . S
C3237 C3232 1.363 . S
C3237 C3236 1.415 . S
H3238 C3235 0.999 . S
H3239 C3220 0.913 . S
H3240 C3258 0.951 . S
H3241 C3260 0.951 . S
H3242 C3262 0.950 . S
H3243 C3263 0.950 . S
H3244 C3265 0.950 . S
H3245 C3268 0.950 . S
H3246 C3269 0.950 . S
H3247 C3271 0.950 . S
H3248 C3272 0.950 . S
H3249 C3273 0.951 . S
H3250 C3275 0.951 . S
H3251 C3277 0.950 . S
H3252 C3278 0.950 . S
H3253 C3280 0.950 . S
H3254 C3283 0.950 . S
H3255 C3284 0.950 . S
H3256 C3286 0.950 . S
H3257 C3287 0.950 . S
C3258 H3240 0.951 . S
C3258 C3259 1.366 . S
C3258 C3260 1.388 . S
C3259 C3258 1.366 . S
C3259 C3263 1.385 . S
C3260 H3241 0.951 . S
C3260 C3258 1.388 . S
C3260 C3261 1.366 . S
C3261 C3260 1.366 . S
C3261 C3262 1.414 . S
C3261 C3264 1.499 . S
C3262 H3242 0.950 . S
C3262 C3261 1.414 . S
C3262 C3263 1.374 . S
C3263 H3243 0.950 . S
C3263 C3259 1.385 . S
C3263 C3262 1.374 . S
C3264 C3261 1.499 . S
C3264 C3265 1.373 . S
C3264 C3266 1.389 . S
C3265 H3244 0.950 . S
C3265 C3264 1.373 . S
C3265 C3281 1.377 . S
C3266 C3264 1.389 . S
C3266 C3267 1.524 . S
C3266 C3280 1.377 . S
C3267 C3266 1.524 . S
C3267 C3268 1.397 . S
C3267 C3272 1.363 . S
C3268 H3245 0.950 . S
C3268 C3267 1.397 . S
C3268 C3269 1.334 . S
C3269 H3246 0.950 . S
C3269 C3268 1.334 . S
C3269 C3270 1.287 . S
C3270 C3269 1.287 . S
C3270 C3271 1.524 . S
C3270 H3289 0.913 . S
C3271 H3247 0.950 . S
C3271 C3270 1.524 . S
C3271 C3272 1.415 . S
C3272 H3248 0.950 . S
C3272 C3267 1.363 . S
C3272 C3271 1.415 . S
C3273 H3249 0.951 . S
C3273 C3274 1.366 . S
C3273 C3275 1.388 . S
C3274 C3273 1.366 . S
C3274 C3278 1.385 . S
C3275 H3250 0.951 . S
C3275 C3273 1.388 . S
C3275 C3276 1.366 . S
C3276 C3275 1.366 . S
C3276 C3277 1.414 . S
C3276 C3279 1.499 . S
C3277 H3251 0.950 . S
C3277 C3276 1.414 . S
C3277 C3278 1.374 . S
C3278 H3252 0.950 . S
C3278 C3274 1.385 . S
C3278 C3277 1.374 . S
C3279 C3276 1.499 . S
C3279 C3280 1.373 . S
C3279 C3281 1.389 . S
C3280 H3253 0.950 . S
C3280 C3266 1.377 . S
C3280 C3279 1.373 . S
C3281 C3265 1.377 . S
C3281 C3279 1.389 . S
C3281 C3282 1.524 . S
C3282 C3281 1.524 . S
C3282 C3283 1.397 . S
C3282 C3287 1.363 . S
C3283 H3254 0.950 . S
C3283 C3282 1.397 . S
C3283 C3284 1.334 . S
C3284 H3255 0.950 . S
C3284 C3283 1.334 . S
C3284 C3285 1.287 . S
C3285 C3284 1.287 . S
C3285 C3286 1.524 . S
C3285 H3288 0.999 . S
C3286 H3256 0.950 . S
C3286 C3285 1.524 . S
C3286 C3287 1.415 . S
C3287 H3257 0.950 . S
C3287 C3282 1.363 . S
C3287 C3286 1.415 . S
H3288 C3285 0.999 . S
H3289 C3270 0.913 . S
H3290 C3308 0.951 . S
H3291 C3310 0.951 . S
H3292 C3312 0.950 . S
H3293 C3313 0.950 . S
H3294 C3315 0.950 . S
H3295 C3318 0.950 . S
H3296 C3319 0.950 . S
H3297 C3321 0.950 . S
H3298 C3322 0.950 . S
H3299 C3323 0.951 . S
H3300 C3325 0.951 . S
H3301 C3327 0.950 . S
H3302 C3328 0.950 . S
H3303 C3330 0.950 . S
H3304 C3333 0.950 . S
H3305 C3334 0.950 . S
H3306 C3336 0.950 . S
H3307 C3337 0.950 . S
C3308 H3290 0.951 . S
C3308 C3309 1.366 . S
C3308 C3310 1.388 . S
C3309 C3308 1.366 . S
C3309 C3313 1.385 . S
C3310 H3291 0.951 . S
C3310 C3308 1.388 . S
C3310 C3311 1.366 . S
C3311 C3310 1.366 . S
C3311 C3312 1.414 . S
C3311 C3314 1.499 . S
C3312 H3292 0.950 . S
C3312 C3311 1.414 . S
C3312 C3313 1.374 . S
C3313 H3293 0.950 . S
C3313 C3309 1.385 . S
C3313 C3312 1.374 . S
C3314 C3311 1.499 . S
C3314 C3315 1.373 . S
C3314 C3316 1.389 . S
C3315 H3294 0.950 . S
C3315 C3314 1.373 . S
C3315 C3331 1.377 . S
C3316 C3314 1.389 . S
C3316 C3317 1.524 . S
C3316 C3330 1.377 . S
C3317 C3316 1.524 . S
C3317 C3318 1.397 . S
C3317 C3322 1.363 . S
C3318 H3295 0.950 . S
C3318 C3317 1.397 . S
C3318 C3319 1.334 . S
C3319 H3296 0.950 . S
C3319 C3318 1.334 . S
C3319 C3320 1.287 . S
C3320 C3319 1.287 . S
C3320 C3321 1.524 . S
C3320 H3339 0.913 . S
C3321 H3297 0.950 . S
C3321 C3320 1.524 . S
C3321 C3322 1.415 . S
C3322 H3298 0.950 . S
C3322 C3317 1.363 . S
C3322 C3321 1.415 . S
C3323 H3299 0.951 . S
C3323 C3324 1.366 . S
C3323 C3325 1.388 . S
C3324 C3323 1.366 . S
C3324 C3328 1.385 . S
C3325 H3300 0.951 . S
C3325 C3323 1.388 . S
C3325 C3326 1.366 . S
C3326 C3325 1.366 . S
C3326 C3327 1.414 . S
C3326 C3329 1.499 . S
C3327 H3301 0.950 . S
C3327 C3326 1.414 . S
C3327 C3328 1.374 . S
C3328 H3302 0.950 . S
C3328 C3324 1.385 . S
C3328 C3327 1.374 . S
C3329 C3326 1.499 . S
C3329 C3330 1.373 . S
C3329 C3331 1.389 . S
C3330 H3303 0.950 . S
C3330 C3316 1.377 . S
C3330 C3329 1.373 . S
C3331 C3315 1.377 . S
C3331 C3329 1.389 . S
C3331 C3332 1.524 . S
C3332 C3331 1.524 . S
C3332 C3333 1.397 . S
C3332 C3337 1.363 . S
C3333 H3304 0.950 . S
C3333 C3332 1.397 . S
C3333 C3334 1.334 . S
C3334 H3305 0.950 . S
C3334 C3333 1.334 . S
C3334 C3335 1.287 . S
C3335 C3334 1.287 . S
C3335 C3336 1.524 . S
C3335 H3338 0.999 . S
C3336 H3306 0.950 . S
C3336 C3335 1.524 . S
C3336 C3337 1.415 . S
C3337 H3307 0.950 . S
C3337 C3332 1.363 . S
C3337 C3336 1.415 . S
H3338 C3335 0.999 . S
H3339 C3320 0.913 . S
H3340 C3358 0.951 . S
H3341 C3360 0.951 . S
H3342 C3362 0.950 . S
H3343 C3363 0.950 . S
H3344 C3365 0.950 . S
H3345 C3368 0.950 . S
H3346 C3369 0.950 . S
H3347 C3371 0.950 . S
H3348 C3372 0.950 . S
H3349 C3373 0.951 . S
H3350 C3375 0.951 . S
H3351 C3377 0.950 . S
H3352 C3378 0.950 . S
H3353 C3380 0.950 . S
H3354 C3383 0.950 . S
H3355 C3384 0.950 . S
H3356 C3386 0.950 . S
H3357 C3387 0.950 . S
C3358 H3340 0.951 . S
C3358 C3359 1.366 . S
C3358 C3360 1.388 . S
C3359 C3358 1.366 . S
C3359 C3363 1.385 . S
C3360 H3341 0.951 . S
C3360 C3358 1.388 . S
C3360 C3361 1.366 . S
C3361 C3360 1.366 . S
C3361 C3362 1.414 . S
C3361 C3364 1.499 . S
C3362 H3342 0.950 . S
C3362 C3361 1.414 . S
C3362 C3363 1.374 . S
C3363 H3343 0.950 . S
C3363 C3359 1.385 . S
C3363 C3362 1.374 . S
C3364 C3361 1.499 . S
C3364 C3365 1.373 . S
C3364 C3366 1.389 . S
C3365 H3344 0.950 . S
C3365 C3364 1.373 . S
C3365 C3381 1.377 . S
C3366 C3364 1.389 . S
C3366 C3367 1.524 . S
C3366 C3380 1.377 . S
C3367 C3366 1.524 . S
C3367 C3368 1.397 . S
C3367 C3372 1.363 . S
C3368 H3345 0.950 . S
C3368 C3367 1.397 . S
C3368 C3369 1.334 . S
C3369 H3346 0.950 . S
C3369 C3368 1.334 . S
C3369 C3370 1.287 . S
C3370 C3369 1.287 . S
C3370 C3371 1.524 . S
C3370 H3389 0.913 . S
C3371 H3347 0.950 . S
C3371 C3370 1.524 . S
C3371 C3372 1.415 . S
C3372 H3348 0.950 . S
C3372 C3367 1.363 . S
C3372 C3371 1.415 . S
C3373 H3349 0.951 . S
C3373 C3374 1.366 . S
C3373 C3375 1.388 . S
C3374 C3373 1.366 . S
C3374 C3378 1.385 . S
C3375 H3350 0.951 . S
C3375 C3373 1.388 . S
C3375 C3376 1.366 . S
C3376 C3375 1.366 . S
C3376 C3377 1.414 . S
C3376 C3379 1.499 . S
C3377 H3351 0.950 . S
C3377 C3376 1.414 . S
C3377 C3378 1.374 . S
C3378 H3352 0.950 . S
C3378 C3374 1.385 . S
C3378 C3377 1.374 . S
C3379 C3376 1.499 . S
C3379 C3380 1.373 . S
C3379 C3381 1.389 . S
C3380 H3353 0.950 . S
C3380 C3366 1.377 . S
C3380 C3379 1.373 . S
C3381 C3365 1.377 . S
C3381 C3379 1.389 . S
C3381 C3382 1.524 . S
C3382 C3381 1.524 . S
C3382 C3383 1.397 . S
C3382 C3387 1.363 . S
C3383 H3354 0.950 . S
C3383 C3382 1.397 . S
C3383 C3384 1.334 . S
C3384 H3355 0.950 . S
C3384 C3383 1.334 . S
C3384 C3385 1.287 . S
C3385 C3384 1.287 . S
C3385 C3386 1.524 . S
C3385 H3388 0.999 . S
C3386 H3356 0.950 . S
C3386 C3385 1.524 . S
C3386 C3387 1.415 . S
C3387 H3357 0.950 . S
C3387 C3382 1.363 . S
C3387 C3386 1.415 . S
H3388 C3385 0.999 . S
H3389 C3370 0.913 . S
H3390 C3408 0.951 . S
H3391 C3410 0.951 . S
H3392 C3412 0.950 . S
H3393 C3413 0.950 . S
H3394 C3415 0.950 . S
H3395 C3418 0.950 . S
H3396 C3419 0.950 . S
H3397 C3421 0.950 . S
H3398 C3422 0.950 . S
H3399 C3423 0.951 . S
H3400 C3425 0.951 . S
H3401 C3427 0.950 . S
H3402 C3428 0.950 . S
H3403 C3430 0.950 . S
H3404 C3433 0.950 . S
H3405 C3434 0.950 . S
H3406 C3436 0.950 . S
H3407 C3437 0.950 . S
C3408 H3390 0.951 . S
C3408 C3409 1.366 . S
C3408 C3410 1.388 . S
C3409 C3408 1.366 . S
C3409 C3413 1.385 . S
C3410 H3391 0.951 . S
C3410 C3408 1.388 . S
C3410 C3411 1.366 . S
C3411 C3410 1.366 . S
C3411 C3412 1.414 . S
C3411 C3414 1.499 . S
C3412 H3392 0.950 . S
C3412 C3411 1.414 . S
C3412 C3413 1.374 . S
C3413 H3393 0.950 . S
C3413 C3409 1.385 . S
C3413 C3412 1.374 . S
C3414 C3411 1.499 . S
C3414 C3415 1.373 . S
C3414 C3416 1.389 . S
C3415 H3394 0.950 . S
C3415 C3414 1.373 . S
C3415 C3431 1.377 . S
C3416 C3414 1.389 . S
C3416 C3417 1.524 . S
C3416 C3430 1.377 . S
C3417 C3416 1.524 . S
C3417 C3418 1.397 . S
C3417 C3422 1.363 . S
C3418 H3395 0.950 . S
C3418 C3417 1.397 . S
C3418 C3419 1.334 . S
C3419 H3396 0.950 . S
C3419 C3418 1.334 . S
C3419 C3420 1.287 . S
C3420 C3419 1.287 . S
C3420 C3421 1.524 . S
C3420 H3439 0.913 . S
C3421 H3397 0.950 . S
C3421 C3420 1.524 . S
C3421 C3422 1.415 . S
C3422 H3398 0.950 . S
C3422 C3417 1.363 . S
C3422 C3421 1.415 . S
C3423 H3399 0.951 . S
C3423 C3424 1.366 . S
C3423 C3425 1.388 . S
C3424 C3423 1.366 . S
C3424 C3428 1.385 . S
C3425 H3400 0.951 . S
C3425 C3423 1.388 . S
C3425 C3426 1.366 . S
C3426 C3425 1.366 . S
C3426 C3427 1.414 . S
C3426 C3429 1.499 . S
C3427 H3401 0.950 . S
C3427 C3426 1.414 . S
C3427 C3428 1.374 . S
C3428 H3402 0.950 . S
C3428 C3424 1.385 . S
C3428 C3427 1.374 . S
C3429 C3426 1.499 . S
C3429 C3430 1.373 . S
C3429 C3431 1.389 . S
C3430 H3403 0.950 . S
C3430 C3416 1.377 . S
C3430 C3429 1.373 . S
C3431 C3415 1.377 . S
C3431 C3429 1.389 . S
C3431 C3432 1.524 . S
C3432 C3431 1.524 . S
C3432 C3433 1.397 . S
C3432 C3437 1.363 . S
C3433 H3404 0.950 . S
C3433 C3432 1.397 . S
C3433 C3434 1.334 . S
C3434 H3405 0.950 . S
C3434 C3433 1.334 . S
C3434 C3435 1.287 . S
C3435 C3434 1.287 . S
C3435 C3436 1.524 . S
C3435 H3438 0.999 . S
C3436 H3406 0.950 . S
C3436 C3435 1.524 . S
C3436 C3437 1.415 . S
C3437 H3407 0.950 . S
C3437 C3432 1.363 . S
C3437 C3436 1.415 . S
H3438 C3435 0.999 . S
H3439 C3420 0.913 . S
H3440 C3458 0.951 . S
H3441 C3460 0.951 . S
H3442 C3462 0.950 . S
H3443 C3463 0.950 . S
H3444 C3465 0.950 . S
H3445 C3468 0.950 . S
H3446 C3469 0.950 . S
H3447 C3471 0.950 . S
H3448 C3472 0.950 . S
H3449 C3473 0.951 . S
H3450 C3475 0.951 . S
H3451 C3477 0.950 . S
H3452 C3478 0.950 . S
H3453 C3480 0.950 . S
H3454 C3483 0.950 . S
H3455 C3484 0.950 . S
H3456 C3486 0.950 . S
H3457 C3487 0.950 . S
C3458 H3440 0.951 . S
C3458 C3459 1.366 . S
C3458 C3460 1.388 . S
C3459 C3458 1.366 . S
C3459 C3463 1.385 . S
C3460 H3441 0.951 . S
C3460 C3458 1.388 . S
C3460 C3461 1.366 . S
C3461 C3460 1.366 . S
C3461 C3462 1.414 . S
C3461 C3464 1.499 . S
C3462 H3442 0.950 . S
C3462 C3461 1.414 . S
C3462 C3463 1.374 . S
C3463 H3443 0.950 . S
C3463 C3459 1.385 . S
C3463 C3462 1.374 . S
C3464 C3461 1.499 . S
C3464 C3465 1.373 . S
C3464 C3466 1.389 . S
C3465 H3444 0.950 . S
C3465 C3464 1.373 . S
C3465 C3481 1.377 . S
C3466 C3464 1.389 . S
C3466 C3467 1.524 . S
C3466 C3480 1.377 . S
C3467 C3466 1.524 . S
C3467 C3468 1.397 . S
C3467 C3472 1.363 . S
C3468 H3445 0.950 . S
C3468 C3467 1.397 . S
C3468 C3469 1.334 . S
C3469 H3446 0.950 . S
C3469 C3468 1.334 . S
C3469 C3470 1.287 . S
C3470 C3469 1.287 . S
C3470 C3471 1.524 . S
C3470 H3489 0.913 . S
C3471 H3447 0.950 . S
C3471 C3470 1.524 . S
C3471 C3472 1.415 . S
C3472 H3448 0.950 . S
C3472 C3467 1.363 . S
C3472 C3471 1.415 . S
C3473 H3449 0.951 . S
C3473 C3474 1.366 . S
C3473 C3475 1.388 . S
C3474 C3473 1.366 . S
C3474 C3478 1.385 . S
C3475 H3450 0.951 . S
C3475 C3473 1.388 . S
C3475 C3476 1.366 . S
C3476 C3475 1.366 . S
C3476 C3477 1.414 . S
C3476 C3479 1.499 . S
C3477 H3451 0.950 . S
C3477 C3476 1.414 . S
C3477 C3478 1.374 . S
C3478 H3452 0.950 . S
C3478 C3474 1.385 . S
C3478 C3477 1.374 . S
C3479 C3476 1.499 . S
C3479 C3480 1.373 . S
C3479 C3481 1.389 . S
C3480 H3453 0.950 . S
C3480 C3466 1.377 . S
C3480 C3479 1.373 . S
C3481 C3465 1.377 . S
C3481 C3479 1.389 . S
C3481 C3482 1.524 . S
C3482 C3481 1.524 . S
C3482 C3483 1.397 . S
C3482 C3487 1.363 . S
C3483 H3454 0.950 . S
C3483 C3482 1.397 . S
C3483 C3484 1.334 . S
C3484 H3455 0.950 . S
C3484 C3483 1.334 . S
C3484 C3485 1.287 . S
C3485 C3484 1.287 . S
C3485 C3486 1.524 . S
C3485 H3488 0.999 . S
C3486 H3456 0.950 . S
C3486 C3485 1.524 . S
C3486 C3487 1.415 . S
C3487 H3457 0.950 . S
C3487 C3482 1.363 . S
C3487 C3486 1.415 . S
H3488 C3485 0.999 . S
H3489 C3470 0.913 . S
H3490 C3508 0.951 . S
H3491 C3510 0.951 . S
H3492 C3512 0.950 . S
H3493 C3513 0.950 . S
H3494 C3515 0.950 . S
H3495 C3518 0.950 . S
H3496 C3519 0.950 . S
H3497 C3521 0.950 . S
H3498 C3522 0.950 . S
H3499 C3523 0.951 . S
H3500 C3525 0.951 . S
H3501 C3527 0.950 . S
H3502 C3528 0.950 . S
H3503 C3530 0.950 . S
H3504 C3533 0.950 . S
H3505 C3534 0.950 . S
H3506 C3536 0.950 . S
H3507 C3537 0.950 . S
C3508 H3490 0.951 . S
C3508 C3509 1.366 . S
C3508 C3510 1.388 . S
C3509 C3508 1.366 . S
C3509 C3513 1.385 . S
C3510 H3491 0.951 . S
C3510 C3508 1.388 . S
C3510 C3511 1.366 . S
C3511 C3510 1.366 . S
C3511 C3512 1.414 . S
C3511 C3514 1.499 . S
C3512 H3492 0.950 . S
C3512 C3511 1.414 . S
C3512 C3513 1.374 . S
C3513 H3493 0.950 . S
C3513 C3509 1.385 . S
C3513 C3512 1.374 . S
C3514 C3511 1.499 . S
C3514 C3515 1.373 . S
C3514 C3516 1.389 . S
C3515 H3494 0.950 . S
C3515 C3514 1.373 . S
C3515 C3531 1.377 . S
C3516 C3514 1.389 . S
C3516 C3517 1.524 . S
C3516 C3530 1.377 . S
C3517 C3516 1.524 . S
C3517 C3518 1.397 . S
C3517 C3522 1.363 . S
C3518 H3495 0.950 . S
C3518 C3517 1.397 . S
C3518 C3519 1.334 . S
C3519 H3496 0.950 . S
C3519 C3518 1.334 . S
C3519 C3520 1.287 . S
C3520 C3519 1.287 . S
C3520 C3521 1.524 . S
C3520 H3539 0.913 . S
C3521 H3497 0.950 . S
C3521 C3520 1.524 . S
C3521 C3522 1.415 . S
C3522 H3498 0.950 . S
C3522 C3517 1.363 . S
C3522 C3521 1.415 . S
C3523 H3499 0.951 . S
C3523 C3524 1.366 . S
C3523 C3525 1.388 . S
C3524 C3523 1.366 . S
C3524 C3528 1.385 . S
C3525 H3500 0.951 . S
C3525 C3523 1.388 . S
C3525 C3526 1.366 . S
C3526 C3525 1.366 . S
C3526 C3527 1.414 . S
C3526 C3529 1.499 . S
C3527 H3501 0.950 . S
C3527 C3526 1.414 . S
C3527 C3528 1.374 . S
C3528 H3502 0.950 . S
C3528 C3524 1.385 . S
C3528 C3527 1.374 . S
C3529 C3526 1.499 . S
C3529 C3530 1.373 . S
C3529 C3531 1.389 . S
C3530 H3503 0.950 . S
C3530 C3516 1.377 . S
C3530 C3529 1.373 . S
C3531 C3515 1.377 . S
C3531 C3529 1.389 . S
C3531 C3532 1.524 . S
C3532 C3531 1.524 . S
C3532 C3533 1.397 . S
C3532 C3537 1.363 . S
C3533 H3504 0.950 . S
C3533 C3532 1.397 . S
C3533 C3534 1.334 . S
C3534 H3505 0.950 . S
C3534 C3533 1.334 . S
C3534 C3535 1.287 . S
C3535 C3534 1.287 . S
C3535 C3536 1.524 . S
C3535 H3538 0.999 . S
C3536 H3506 0.950 . S
C3536 C3535 1.524 . S
C3536 C3537 1.415 . S
C3537 H3507 0.950 . S
C3537 C3532 1.363 . S
C3537 C3536 1.415 . S
H3538 C3535 0.999 . S
H3539 C3520 0.913 . S
H3540 C3558 0.951 . S
H3541 C3560 0.951 . S
H3542 C3562 0.950 . S
H3543 C3563 0.950 . S
H3544 C3565 0.950 . S
H3545 C3568 0.950 . S
H3546 C3569 0.950 . S
H3547 C3571 0.950 . S
H3548 C3572 0.950 . S
H3549 C3573 0.951 . S
H3550 C3575 0.951 . S
H3551 C3577 0.950 . S
H3552 C3578 0.950 . S
H3553 C3580 0.950 . S
H3554 C3583 0.950 . S
H3555 C3584 0.950 . S
H3556 C3586 0.950 . S
H3557 C3587 0.950 . S
C3558 H3540 0.951 . S
C3558 C3559 1.366 . S
C3558 C3560 1.388 . S
C3559 C3558 1.366 . S
C3559 C3563 1.385 . S
C3560 H3541 0.951 . S
C3560 C3558 1.388 . S
C3560 C3561 1.366 . S
C3561 C3560 1.366 . S
C3561 C3562 1.414 . S
C3561 C3564 1.499 . S
C3562 H3542 0.950 . S
C3562 C3561 1.414 . S
C3562 C3563 1.374 . S
C3563 H3543 0.950 . S
C3563 C3559 1.385 . S
C3563 C3562 1.374 . S
C3564 C3561 1.499 . S
C3564 C3565 1.373 . S
C3564 C3566 1.389 . S
C3565 H3544 0.950 . S
C3565 C3564 1.373 . S
C3565 C3581 1.377 . S
C3566 C3564 1.389 . S
C3566 C3567 1.524 . S
C3566 C3580 1.377 . S
C3567 C3566 1.524 . S
C3567 C3568 1.397 . S
C3567 C3572 1.363 . S
C3568 H3545 0.950 . S
C3568 C3567 1.397 . S
C3568 C3569 1.334 . S
C3569 H3546 0.950 . S
C3569 C3568 1.334 . S
C3569 C3570 1.287 . S
C3570 C3569 1.287 . S
C3570 C3571 1.524 . S
C3570 H3589 0.913 . S
C3571 H3547 0.950 . S
C3571 C3570 1.524 . S
C3571 C3572 1.415 . S
C3572 H3548 0.950 . S
C3572 C3567 1.363 . S
C3572 C3571 1.415 . S
C3573 H3549 0.951 . S
C3573 C3574 1.366 . S
C3573 C3575 1.388 . S
C3574 C3573 1.366 . S
C3574 C3578 1.385 . S
C3575 H3550 0.951 . S
C3575 C3573 1.388 . S
C3575 C3576 1.366 . S
C3576 C3575 1.366 . S
C3576 C3577 1.414 . S
C3576 C3579 1.499 . S
C3577 H3551 0.950 . S
C3577 C3576 1.414 . S
C3577 C3578 1.374 . S
C3578 H3552 0.950 . S
C3578 C3574 1.385 . S
C3578 C3577 1.374 . S
C3579 C3576 1.499 . S
C3579 C3580 1.373 . S
C3579 C3581 1.389 . S
C3580 H3553 0.950 . S
C3580 C3566 1.377 . S
C3580 C3579 1.373 . S
C3581 C3565 1.377 . S
C3581 C3579 1.389 . S
C3581 C3582 1.524 . S
C3582 C3581 1.524 . S
C3582 C3583 1.397 . S
C3582 C3587 1.363 . S
C3583 H3554 0.950 . S
C3583 C3582 1.397 . S
C3583 C3584 1.334 . S
C3584 H3555 0.950 . S
C3584 C3583 1.334 . S
C3584 C3585 1.287 . S
C3585 C3584 1.287 . S
C3585 C3586 1.524 . S
C3585 H3588 0.999 . S
C3586 H3556 0.950 . S
C3586 C3585 1.524 . S
C3586 C3587 1.415 . S
C3587 H3557 0.950 . S
C3587 C3582 1.363 . S
C3587 C3586 1.415 . S
H3588 C3585 0.999 . S
H3589 C3570 0.913 . S
H3590 C3608 0.951 . S
H3591 C3610 0.951 . S
H3592 C3612 0.950 . S
H3593 C3613 0.950 . S
H3594 C3615 0.950 . S
H3595 C3618 0.950 . S
H3596 C3619 0.950 . S
H3597 C3621 0.950 . S
H3598 C3622 0.950 . S
H3599 C3623 0.951 . S
H3600 C3625 0.951 . S
H3601 C3627 0.950 . S
H3602 C3628 0.950 . S
H3603 C3630 0.950 . S
H3604 C3633 0.950 . S
H3605 C3634 0.950 . S
H3606 C3636 0.950 . S
H3607 C3637 0.950 . S
C3608 H3590 0.951 . S
C3608 C3609 1.366 . S
C3608 C3610 1.388 . S
C3609 C3608 1.366 . S
C3609 C3613 1.385 . S
C3610 H3591 0.951 . S
C3610 C3608 1.388 . S
C3610 C3611 1.366 . S
C3611 C3610 1.366 . S
C3611 C3612 1.414 . S
C3611 C3614 1.499 . S
C3612 H3592 0.950 . S
C3612 C3611 1.414 . S
C3612 C3613 1.374 . S
C3613 H3593 0.950 . S
C3613 C3609 1.385 . S
C3613 C3612 1.374 . S
C3614 C3611 1.499 . S
C3614 C3615 1.373 . S
C3614 C3616 1.389 . S
C3615 H3594 0.950 . S
C3615 C3614 1.373 . S
C3615 C3631 1.377 . S
C3616 C3614 1.389 . S
C3616 C3617 1.524 . S
C3616 C3630 1.377 . S
C3617 C3616 1.524 . S
C3617 C3618 1.397 . S
C3617 C3622 1.363 . S
C3618 H3595 0.950 . S
C3618 C3617 1.397 . S
C3618 C3619 1.334 . S
C3619 H3596 0.950 . S
C3619 C3618 1.334 . S
C3619 C3620 1.287 . S
C3620 C3619 1.287 . S
C3620 C3621 1.524 . S
C3620 H3639 0.913 . S
C3621 H3597 0.950 . S
C3621 C3620 1.524 . S
C3621 C3622 1.415 . S
C3622 H3598 0.950 . S
C3622 C3617 1.363 . S
C3622 C3621 1.415 . S
C3623 H3599 0.951 . S
C3623 C3624 1.366 . S
C3623 C3625 1.388 . S
C3624 C3623 1.366 . S
C3624 C3628 1.385 . S
C3625 H3600 0.951 . S
C3625 C3623 1.388 . S
C3625 C3626 1.366 . S
C3626 C3625 1.366 . S
C3626 C3627 1.414 . S
C3626 C3629 1.499 . S
C3627 H3601 0.950 . S
C3627 C3626 1.414 . S
C3627 C3628 1.374 . S
C3628 H3602 0.950 . S
C3628 C3624 1.385 . S
C3628 C3627 1.374 . S
C3629 C3626 1.499 . S
C3629 C3630 1.373 . S
C3629 C3631 1.389 . S
C3630 H3603 0.950 . S
C3630 C3616 1.377 . S
C3630 C3629 1.373 . S
C3631 C3615 1.377 . S
C3631 C3629 1.389 . S
C3631 C3632 1.524 . S
C3632 C3631 1.524 . S
C3632 C3633 1.397 . S
C3632 C3637 1.363 . S
C3633 H3604 0.950 . S
C3633 C3632 1.397 . S
C3633 C3634 1.334 . S
C3634 H3605 0.950 . S
C3634 C3633 1.334 . S
C3634 C3635 1.287 . S
C3635 C3634 1.287 . S
C3635 C3636 1.524 . S
C3635 H3638 0.999 . S
C3636 H3606 0.950 . S
C3636 C3635 1.524 . S
C3636 C3637 1.415 . S
C3637 H3607 0.950 . S
C3637 C3632 1.363 . S
C3637 C3636 1.415 . S
H3638 C3635 0.999 . S
H3639 C3620 0.913 . S
H3640 C3658 0.951 . S
H3641 C3660 0.951 . S
H3642 C3662 0.950 . S
H3643 C3663 0.950 . S
H3644 C3665 0.950 . S
H3645 C3668 0.950 . S
H3646 C3669 0.950 . S
H3647 C3671 0.950 . S
H3648 C3672 0.950 . S
H3649 C3673 0.951 . S
H3650 C3675 0.951 . S
H3651 C3677 0.950 . S
H3652 C3678 0.950 . S
H3653 C3680 0.950 . S
H3654 C3683 0.950 . S
H3655 C3684 0.950 . S
H3656 C3686 0.950 . S
H3657 C3687 0.950 . S
C3658 H3640 0.951 . S
C3658 C3659 1.366 . S
C3658 C3660 1.388 . S
C3659 C3658 1.366 . S
C3659 C3663 1.385 . S
C3660 H3641 0.951 . S
C3660 C3658 1.388 . S
C3660 C3661 1.366 . S
C3661 C3660 1.366 . S
C3661 C3662 1.414 . S
C3661 C3664 1.499 . S
C3662 H3642 0.950 . S
C3662 C3661 1.414 . S
C3662 C3663 1.374 . S
C3663 H3643 0.950 . S
C3663 C3659 1.385 . S
C3663 C3662 1.374 . S
C3664 C3661 1.499 . S
C3664 C3665 1.373 . S
C3664 C3666 1.389 . S
C3665 H3644 0.950 . S
C3665 C3664 1.373 . S
C3665 C3681 1.377 . S
C3666 C3664 1.389 . S
C3666 C3667 1.524 . S
C3666 C3680 1.377 . S
C3667 C3666 1.524 . S
C3667 C3668 1.397 . S
C3667 C3672 1.363 . S
C3668 H3645 0.950 . S
C3668 C3667 1.397 . S
C3668 C3669 1.334 . S
C3669 H3646 0.950 . S
C3669 C3668 1.334 . S
C3669 C3670 1.287 . S
C3670 C3669 1.287 . S
C3670 C3671 1.524 . S
C3670 H3689 0.913 . S
C3671 H3647 0.950 . S
C3671 C3670 1.524 . S
C3671 C3672 1.415 . S
C3672 H3648 0.950 . S
C3672 C3667 1.363 . S
C3672 C3671 1.415 . S
C3673 H3649 0.951 . S
C3673 C3674 1.366 . S
C3673 C3675 1.388 . S
C3674 C3673 1.366 . S
C3674 C3678 1.385 . S
C3675 H3650 0.951 . S
C3675 C3673 1.388 . S
C3675 C3676 1.366 . S
C3676 C3675 1.366 . S
C3676 C3677 1.414 . S
C3676 C3679 1.499 . S
C3677 H3651 0.950 . S
C3677 C3676 1.414 . S
C3677 C3678 1.374 . S
C3678 H3652 0.950 . S
C3678 C3674 1.385 . S
C3678 C3677 1.374 . S
C3679 C3676 1.499 . S
C3679 C3680 1.373 . S
C3679 C3681 1.389 . S
C3680 H3653 0.950 . S
C3680 C3666 1.377 . S
C3680 C3679 1.373 . S
C3681 C3665 1.377 . S
C3681 C3679 1.389 . S
C3681 C3682 1.524 . S
C3682 C3681 1.524 . S
C3682 C3683 1.397 . S
C3682 C3687 1.363 . S
C3683 H3654 0.950 . S
C3683 C3682 1.397 . S
C3683 C3684 1.334 . S
C3684 H3655 0.950 . S
C3684 C3683 1.334 . S
C3684 C3685 1.287 . S
C3685 C3684 1.287 . S
C3685 C3686 1.524 . S
C3685 H3688 1.014 . S
C3686 H3656 0.950 . S
C3686 C3685 1.524 . S
C3686 C3687 1.415 . S
C3687 H3657 0.950 . S
C3687 C3682 1.363 . S
C3687 C3686 1.415 . S
H3688 C3685 1.014 . S
H3689 C3670 0.913 . S
C1009 N170 2.074 . S
C1024 C301 1.999 . S
C1059 N184 0.817 . S
C1074 C385 0.809 . S
C1109 N158 1.562 . S
C1124 C465 1.536 . S
C1159 N145 1.530 . S
C1174 C381 1.492 1_556 S
C1224 C469 0.756 . S
C1209 N119 0.755 . S
C1259 N131 2.022 . S
C1274 C297 1.984 . S
C1324 C290 1.596 . S
C1309 N144 1.665 . S
C1374 C374 1.292 . S
C1359 N118 1.315 . S
C1409 N132 1.412 . S
C1424 C476 1.404 . S
C1459 N171 1.389 . S
C1474 C392 1.380 . S
C1509 N183 1.256 . S
C1524 C458 1.232 . S
C1574 C308 1.579 . S
C1559 N157 1.613 . S
C1624 C553 1.999 . S
C1609 N14 2.074 . S
C1659 N28 0.816 . S
C1674 C637 0.809 . S
C1709 N2 1.563 . S
C1724 C717 1.537 . S
C1759 N223 1.529 . S
C1774 C633 1.504 . S
C1809 N197 0.755 . S
C1824 C721 0.754 . S
C1859 N209 2.022 . S
C1874 C549 1.984 . S
C1909 N222 1.665 . S
C1924 C542 1.597 . S
C1959 N196 1.315 . S
C1974 C626 1.293 . S
C2024 C728 1.404 . S
C2009 N210 1.412 . S
C2059 N15 1.389 . S
C2074 C644 1.381 . S
C2124 C710 1.232 . S
C2109 N27 1.255 . S
C2159 N1 1.613 . S
C2174 C560 1.579 . S
C2224 C805 1.999 . S
C2209 N92 2.074 . S
C2259 N106 0.818 . S
C2274 C889 0.807 . S
C2324 C969 1.536 . S
C2309 N80 1.562 . S
C2374 C885 1.505 . S
C2359 N67 1.530 . S
C2424 C973 0.754 . S
C2409 N41 0.756 . S
C2459 N53 2.021 . S
C2474 C801 1.983 . S
C2509 N66 1.665 . S
C2524 C794 1.597 . S
C2559 N40 1.315 . S
C2574 C878 1.292 . S
C2624 C980 1.404 . S
C2609 N54 1.412 . S
C2659 N93 1.389 . S
C2674 C896 1.381 . S
C2709 N105 1.255 . S
C2724 C962 1.233 . S
C2759 N79 1.613 . S
C2774 C812 1.579 . S
C2809 N200 1.159 . S
C2824 C304 1.061 . S
C2874 C388 1.690 . S
C2859 N213 1.871 . S
C2909 N226 1.483 . S
C2924 C460 1.364 . S
C2959 N83 1.523 . S
C2974 C376 1.396 . S
C3009 N96 1.841 . S
C3024 C472 1.666 . S
C3074 C292 1.092 . S
C3059 N109 1.179 . S
C3109 N44 1.158 . S
C3124 C556 1.062 . S
C3159 N57 1.871 . S
C3174 C640 1.690 . S
C3209 N70 1.484 . S
C3224 C712 1.365 . S
C3259 N161 1.523 . S
C3274 C628 1.395 . S
C3324 C724 1.666 . S
C3309 N174 1.841 . S
C3359 N187 1.179 . S
C3374 C544 1.092 . S
C3409 N122 1.158 . S
C3424 C808 1.062 . S
C3459 N135 1.871 . S
C3474 C892 1.690 . S
C3524 C964 1.364 . S
C3509 N148 1.484 . S
C3559 N5 1.523 . S
C3574 C880 1.396 . S
C3609 N18 1.840 . S
C3624 C976 1.665 . S
C3659 N31 1.179 . S
C3674 C796 1.093 . S
