# Generated by pormake.
# Topology ptr, (4,4)-cn, num edge types: 1
# Building blocks:
#     Node 0, Type 0, BuildingBlock: QUQFOY_clean_sbu_3, # of connection points: 4
#     Node 1, Type 0, BuildingBlock: QUQFOY_clean_sbu_3, # of connection points: 4
#     Node 2, Type 0, BuildingBlock: QUQFOY_clean_sbu_3, # of connection points: 4
#     Node 3, Type 0, BuildingBlock: QUQFOY_clean_sbu_3, # of connection points: 4
#     Node 4, Type 0, BuildingBlock: QUQFOY_clean_sbu_3, # of connection points: 4
#     Node 5, Type 0, BuildingBlock: QUQFOY_clean_sbu_3, # of connection points: 4
#     Node 6, Type 0, BuildingBlock: QUQFOY_clean_sbu_3, # of connection points: 4
#     Node 7, Type 0, BuildingBlock: QUQFOY_clean_sbu_3, # of connection points: 4
#     Node 8, Type 0, BuildingBlock: QUQFOY_clean_sbu_3, # of connection points: 4
#     Node 9, Type 0, BuildingBlock: QUQFOY_clean_sbu_3, # of connection points: 4
#     Node 10, Type 0, BuildingBlock: QUQFOY_clean_sbu_3, # of connection points: 4
#     Node 11, Type 0, BuildingBlock: QUQFOY_clean_sbu_3, # of connection points: 4
#     Node 12, Type 0, BuildingBlock: QUQFOY_clean_sbu_3, # of connection points: 4
#     Node 13, Type 0, BuildingBlock: QUQFOY_clean_sbu_3, # of connection points: 4
#     Node 14, Type 0, BuildingBlock: QUQFOY_clean_sbu_3, # of connection points: 4
#     Node 15, Type 0, BuildingBlock: QUQFOY_clean_sbu_3, # of connection points: 4
#     Node 16, Type 0, BuildingBlock: QUQFOY_clean_sbu_3, # of connection points: 4
#     Node 17, Type 0, BuildingBlock: QUQFOY_clean_sbu_3, # of connection points: 4
#     Node 18, Type 1, BuildingBlock: KUFVIS_clean_linker_0, # of connection points: 4
#     Node 19, Type 1, BuildingBlock: KUFVIS_clean_linker_0, # of connection points: 4
#     Node 20, Type 1, BuildingBlock: KUFVIS_clean_linker_0, # of connection points: 4
#     Node 21, Type 1, BuildingBlock: KUFVIS_clean_linker_0, # of connection points: 4
#     Node 22, Type 1, BuildingBlock: KUFVIS_clean_linker_0, # of connection points: 4
#     Node 23, Type 1, BuildingBlock: KUFVIS_clean_linker_0, # of connection points: 4
#     Node 24, Type 1, BuildingBlock: KUFVIS_clean_linker_0, # of connection points: 4
#     Node 25, Type 1, BuildingBlock: KUFVIS_clean_linker_0, # of connection points: 4
#     Node 26, Type 1, BuildingBlock: KUFVIS_clean_linker_0, # of connection points: 4
#     Node 27, Type 1, BuildingBlock: KUFVIS_clean_linker_0, # of connection points: 4
#     Node 28, Type 1, BuildingBlock: KUFVIS_clean_linker_0, # of connection points: 4
#     Node 29, Type 1, BuildingBlock: KUFVIS_clean_linker_0, # of connection points: 4
#     Node 30, Type 1, BuildingBlock: KUFVIS_clean_linker_0, # of connection points: 4
#     Node 31, Type 1, BuildingBlock: KUFVIS_clean_linker_0, # of connection points: 4
#     Node 32, Type 1, BuildingBlock: KUFVIS_clean_linker_0, # of connection points: 4
#     Node 33, Type 1, BuildingBlock: KUFVIS_clean_linker_0, # of connection points: 4
#     Node 34, Type 1, BuildingBlock: KUFVIS_clean_linker_0, # of connection points: 4
#     Node 35, Type 1, BuildingBlock: KUFVIS_clean_linker_0, # of connection points: 4
#     Edge 36, Type (0, 1), BuildingBlock: MIFKUJ_clean_linker_0, # of connection points: 2
#     Edge 37, Type (0, 1), BuildingBlock: MIFKUJ_clean_linker_0, # of connection points: 2
#     Edge 38, Type (0, 1), BuildingBlock: MIFKUJ_clean_linker_0, # of connection points: 2
#     Edge 39, Type (0, 1), BuildingBlock: MIFKUJ_clean_linker_0, # of connection points: 2
#     Edge 40, Type (0, 1), BuildingBlock: MIFKUJ_clean_linker_0, # of connection points: 2
#     Edge 41, Type (0, 1), BuildingBlock: MIFKUJ_clean_linker_0, # of connection points: 2
#     Edge 42, Type (0, 1), BuildingBlock: MIFKUJ_clean_linker_0, # of connection points: 2
#     Edge 43, Type (0, 1), BuildingBlock: MIFKUJ_clean_linker_0, # of connection points: 2
#     Edge 44, Type (0, 1), BuildingBlock: MIFKUJ_clean_linker_0, # of connection points: 2
#     Edge 45, Type (0, 1), BuildingBlock: MIFKUJ_clean_linker_0, # of connection points: 2
#     Edge 46, Type (0, 1), BuildingBlock: MIFKUJ_clean_linker_0, # of connection points: 2
#     Edge 47, Type (0, 1), BuildingBlock: MIFKUJ_clean_linker_0, # of connection points: 2
#     Edge 48, Type (0, 1), BuildingBlock: MIFKUJ_clean_linker_0, # of connection points: 2
#     Edge 49, Type (0, 1), BuildingBlock: MIFKUJ_clean_linker_0, # of connection points: 2
#     Edge 50, Type (0, 1), BuildingBlock: MIFKUJ_clean_linker_0, # of connection points: 2
#     Edge 51, Type (0, 1), BuildingBlock: MIFKUJ_clean_linker_0, # of connection points: 2
#     Edge 52, Type (0, 1), BuildingBlock: MIFKUJ_clean_linker_0, # of connection points: 2
#     Edge 53, Type (0, 1), BuildingBlock: MIFKUJ_clean_linker_0, # of connection points: 2
#     Edge 54, Type (0, 1), BuildingBlock: MIFKUJ_clean_linker_0, # of connection points: 2
#     Edge 55, Type (0, 1), BuildingBlock: MIFKUJ_clean_linker_0, # of connection points: 2
#     Edge 56, Type (0, 1), BuildingBlock: MIFKUJ_clean_linker_0, # of connection points: 2
#     Edge 57, Type (0, 1), BuildingBlock: MIFKUJ_clean_linker_0, # of connection points: 2
#     Edge 58, Type (0, 1), BuildingBlock: MIFKUJ_clean_linker_0, # of connection points: 2
#     Edge 59, Type (0, 1), BuildingBlock: MIFKUJ_clean_linker_0, # of connection points: 2
#     Edge 60, Type (0, 1), BuildingBlock: MIFKUJ_clean_linker_0, # of connection points: 2
#     Edge 61, Type (0, 1), BuildingBlock: MIFKUJ_clean_linker_0, # of connection points: 2
#     Edge 62, Type (0, 1), BuildingBlock: MIFKUJ_clean_linker_0, # of connection points: 2
#     Edge 63, Type (0, 1), BuildingBlock: MIFKUJ_clean_linker_0, # of connection points: 2
#     Edge 64, Type (0, 1), BuildingBlock: MIFKUJ_clean_linker_0, # of connection points: 2
#     Edge 65, Type (0, 1), BuildingBlock: MIFKUJ_clean_linker_0, # of connection points: 2
#     Edge 66, Type (0, 1), BuildingBlock: MIFKUJ_clean_linker_0, # of connection points: 2
#     Edge 67, Type (0, 1), BuildingBlock: MIFKUJ_clean_linker_0, # of connection points: 2
#     Edge 68, Type (0, 1), BuildingBlock: MIFKUJ_clean_linker_0, # of connection points: 2
#     Edge 69, Type (0, 1), BuildingBlock: MIFKUJ_clean_linker_0, # of connection points: 2
#     Edge 70, Type (0, 1), BuildingBlock: MIFKUJ_clean_linker_0, # of connection points: 2
#     Edge 71, Type (0, 1), BuildingBlock: MIFKUJ_clean_linker_0, # of connection points: 2
#     Edge 72, Type (0, 1), BuildingBlock: MIFKUJ_clean_linker_0, # of connection points: 2
#     Edge 73, Type (0, 1), BuildingBlock: MIFKUJ_clean_linker_0, # of connection points: 2
#     Edge 74, Type (0, 1), BuildingBlock: MIFKUJ_clean_linker_0, # of connection points: 2
#     Edge 75, Type (0, 1), BuildingBlock: MIFKUJ_clean_linker_0, # of connection points: 2
#     Edge 76, Type (0, 1), BuildingBlock: MIFKUJ_clean_linker_0, # of connection points: 2
#     Edge 77, Type (0, 1), BuildingBlock: MIFKUJ_clean_linker_0, # of connection points: 2
#     Edge 78, Type (0, 1), BuildingBlock: MIFKUJ_clean_linker_0, # of connection points: 2
#     Edge 79, Type (0, 1), BuildingBlock: MIFKUJ_clean_linker_0, # of connection points: 2
#     Edge 80, Type (0, 1), BuildingBlock: MIFKUJ_clean_linker_0, # of connection points: 2
#     Edge 81, Type (0, 1), BuildingBlock: MIFKUJ_clean_linker_0, # of connection points: 2
#     Edge 82, Type (0, 1), BuildingBlock: MIFKUJ_clean_linker_0, # of connection points: 2
#     Edge 83, Type (0, 1), BuildingBlock: MIFKUJ_clean_linker_0, # of connection points: 2
#     Edge 84, Type (0, 1), BuildingBlock: MIFKUJ_clean_linker_0, # of connection points: 2
#     Edge 85, Type (0, 1), BuildingBlock: MIFKUJ_clean_linker_0, # of connection points: 2
#     Edge 86, Type (0, 1), BuildingBlock: MIFKUJ_clean_linker_0, # of connection points: 2
#     Edge 87, Type (0, 1), BuildingBlock: MIFKUJ_clean_linker_0, # of connection points: 2
#     Edge 88, Type (0, 1), BuildingBlock: MIFKUJ_clean_linker_0, # of connection points: 2
#     Edge 89, Type (0, 1), BuildingBlock: MIFKUJ_clean_linker_0, # of connection points: 2
#     Edge 90, Type (0, 1), BuildingBlock: MIFKUJ_clean_linker_0, # of connection points: 2
#     Edge 91, Type (0, 1), BuildingBlock: MIFKUJ_clean_linker_0, # of connection points: 2
#     Edge 92, Type (0, 1), BuildingBlock: MIFKUJ_clean_linker_0, # of connection points: 2
#     Edge 93, Type (0, 1), BuildingBlock: MIFKUJ_clean_linker_0, # of connection points: 2
#     Edge 94, Type (0, 1), BuildingBlock: MIFKUJ_clean_linker_0, # of connection points: 2
#     Edge 95, Type (0, 1), BuildingBlock: MIFKUJ_clean_linker_0, # of connection points: 2
#     Edge 96, Type (0, 1), BuildingBlock: MIFKUJ_clean_linker_0, # of connection points: 2
#     Edge 97, Type (0, 1), BuildingBlock: MIFKUJ_clean_linker_0, # of connection points: 2
#     Edge 98, Type (0, 1), BuildingBlock: MIFKUJ_clean_linker_0, # of connection points: 2
#     Edge 99, Type (0, 1), BuildingBlock: MIFKUJ_clean_linker_0, # of connection points: 2
#     Edge 100, Type (0, 1), BuildingBlock: MIFKUJ_clean_linker_0, # of connection points: 2
#     Edge 101, Type (0, 1), BuildingBlock: MIFKUJ_clean_linker_0, # of connection points: 2
#     Edge 102, Type (0, 1), BuildingBlock: MIFKUJ_clean_linker_0, # of connection points: 2
#     Edge 103, Type (0, 1), BuildingBlock: MIFKUJ_clean_linker_0, # of connection points: 2
#     Edge 104, Type (0, 1), BuildingBlock: MIFKUJ_clean_linker_0, # of connection points: 2
#     Edge 105, Type (0, 1), BuildingBlock: MIFKUJ_clean_linker_0, # of connection points: 2
#     Edge 106, Type (0, 1), BuildingBlock: MIFKUJ_clean_linker_0, # of connection points: 2
#     Edge 107, Type (0, 1), BuildingBlock: MIFKUJ_clean_linker_0, # of connection points: 2
# Relax obj value: 0.043
# Max RMSD: 0.105
# Mean RMSD: 0.078
data_MOF--net-ptr--node1-QUQFOY_clean_sbu_3--node2-KUFVIS_clean_linker_0--edge1-MIFKUJ_clean_linker_0
_symmetry_space_group_name_H-M    P1
_symmetry_Int_Tables_number       1
_symmetry_cell_setting            triclinic
loop_
_symmetry_equiv_pos_as_xyz
'x, y, z'
_cell_length_a     102.85407
_cell_length_b     103.41628
_cell_length_c     64.324811
_cell_angle_alpha  90.263434
_cell_angle_beta   89.648381
_cell_angle_gamma 120.4936
loop_
_atom_site_label
_atom_site_type_symbol
_atom_site_fract_x
_atom_site_fract_y
_atom_site_fract_z
_atom_type_partial_charge
C0 C 0.96963 0.32935 0.00578 0.0
O1 O 0.9644 0.33685 0.01434 0.0
Cd2 Cd 0.97926 0.3628 0.02357 0.0
O3 O 0.98383 0.33526 0.00292 0.0
Cd4 Cd 0.00752 0.35957 0.01196 0.0
C5 C 0.999 0.37885 0.97792 0.0
O6 O 0.99981 0.36642 0.04465 0.0
O7 O 0.01931 0.38405 0.029 0.0
O8 O 0.01768 0.34475 0.02648 0.0
C9 C 0.01062 0.37992 0.04468 0.0
O10 O 0.98905 0.37702 0.99137 0.0
C11 C 0.03033 0.35153 0.01719 0.0
O12 O 0.0071 0.37287 0.98042 0.0
O13 O 0.03239 0.36195 0.00479 0.0
C14 C 0.64105 0.6758 0.01126 0.0
O15 O 0.62759 0.66813 0.00471 0.0
Cd16 Cd 0.6158 0.64243 0.99357 0.0
O17 O 0.64948 0.67006 0.01191 0.0
Cd18 Cd 0.64837 0.646 0.00246 0.0
C19 C 0.62009 0.62503 0.03658 0.0
O20 O 0.63317 0.64054 0.97091 0.0
O21 O 0.63706 0.62303 0.98129 0.0
O22 O 0.67389 0.66169 0.98896 0.0
C23 C 0.63116 0.62751 0.96805 0.0
O24 O 0.61162 0.62692 0.02413 0.0
C25 C 0.67966 0.655 -0.00177 0.0
O26 O 0.63431 0.63157 0.03345 0.0
O27 O 0.67091 0.64409 0.0099 0.0
C28 C 0.32835 0.96821 0.01191 0.0
O29 O 0.33599 0.96245 0.00547 0.0
Cd30 Cd 0.36169 0.97585 0.99444 0.0
O31 O 0.33426 0.98245 0.01275 0.0
Cd32 Cd 0.35915 0.00549 0.00393 0.0
C33 C 0.37876 0.99716 0.03837 0.0
O34 O 0.36411 0.99537 0.97257 0.0
O35 O 0.38278 0.01604 0.9837 0.0
O36 O 0.34474 0.0164 0.99016 0.0
C37 C 0.37766 0.00576 0.97009 0.0
O38 O 0.37663 0.98679 0.02564 0.0
C39 C 0.35246 0.02913 -0.00119 0.0
O40 O 0.37286 0.00526 0.03527 0.0
O41 O 0.36317 0.03085 0.01046 0.0
C42 C 0.95931 0.6358 0.01113 0.0
O43 O 0.95423 0.62365 0.02124 0.0
Cd44 Cd 0.96892 0.61312 0.03313 0.0
O45 O 0.97342 0.64398 0.00747 0.0
Cd46 Cd 0.99723 0.64408 0.01647 0.0
C47 C 0.98696 0.61288 0.98759 0.0
O48 O 0.99019 0.63222 0.05085 0.0
O49 O 0.00971 0.63338 0.03659 0.0
O50 O 0.00856 0.67051 0.02639 0.0
C51 C 0.00089 0.62953 0.05212 0.0
O52 O 0.97791 0.60589 0.00252 0.0
C53 C 0.02067 0.67518 0.01603 0.0
O54 O 0.9947 0.6272 0.98738 0.0
O55 O 0.02179 0.66547 0.00521 0.0
C56 C 0.32542 0.36182 0.01247 0.0
O57 O 0.33263 0.37506 0.00522 0.0
Cd58 Cd 0.35814 0.38755 0.99302 0.0
O59 O 0.33165 0.35386 0.01349 0.0
Cd60 Cd 0.35634 0.35599 0.00387 0.0
C61 C 0.37679 0.38558 0.03634 0.0
O62 O 0.36048 0.37 0.97171 0.0
O63 O 0.37933 0.36827 0.98223 0.0
O64 O 0.3419 0.33016 0.9912 0.0
C65 C 0.37393 0.37307 0.96868 0.0
O66 O 0.3742 0.39328 0.02338 0.0
C67 C 0.34921 0.32531 0.00108 0.0
O68 O 0.37086 0.37142 0.03401 0.0
O69 O 0.35981 0.33469 0.01267 0.0
C70 C 0.67897 0.03581 0.00949 0.0
O71 O 0.67174 0.04168 0.01708 0.0
Cd72 Cd 0.64537 0.02846 0.02523 0.0
O73 O 0.67239 0.02163 0.00674 0.0
Cd74 Cd 0.64669 0.99913 0.01379 0.0
C75 C 0.62947 0.00994 0.97898 0.0
O76 O 0.63893 0.00684 0.04548 0.0
O77 O 0.62126 0.9886 0.02791 0.0
O78 O 0.65571 0.98554 0.0341 0.0
C79 C 0.62509 0.99678 0.04406 0.0
O80 O 0.63182 0.01992 0.99253 0.0
C81 C 0.65191 0.97472 0.02155 0.0
O82 O 0.63443 0.00097 0.98168 0.0
O83 O 0.64594 0.97527 0.00455 0.0
C84 C 0.63446 0.66153 0.33867 0.0
O85 O 0.62885 0.66922 0.3454 0.0
Cd86 Cd 0.64229 0.69415 0.35948 0.0
O87 O 0.64873 0.66697 0.33888 0.0
Cd88 Cd 0.67158 0.69132 0.34984 0.0
C89 C 0.66494 0.71339 0.31781 0.0
O90 O 0.66142 0.69607 0.38176 0.0
O91 O 0.68208 0.71466 0.37013 0.0
O92 O 0.68334 0.67832 0.36584 0.0
C93 C 0.67195 0.70955 0.38409 0.0
O94 O 0.65484 0.71147 0.33101 0.0
C95 C 0.6956 0.68494 0.35559 0.0
O96 O 0.67195 0.70616 0.31917 0.0
O97 O 0.6966 0.69424 0.3419 0.0
C98 C 0.30277 0.00806 0.3408 0.0
O99 O 0.28908 0.00054 0.33512 0.0
Cd100 Cd 0.27622 0.97531 0.32228 0.0
O101 O 0.31119 0.0023 0.3399 0.0
Cd102 Cd 0.30849 0.97763 0.32879 0.0
C103 C 0.28046 0.95659 0.36345 0.0
O104 O 0.29263 0.97315 0.29815 0.0
O105 O 0.29477 0.9545 0.30817 0.0
O106 O 0.33366 0.98969 0.31267 0.0
C107 C 0.28945 0.95973 0.29515 0.0
O108 O 0.27186 0.95887 0.35179 0.0
C109 C 0.33864 0.98295 0.32359 0.0
O110 O 0.29458 0.96296 0.35969 0.0
O111 O 0.32972 0.97396 0.33729 0.0
C112 C 0.99499 0.30172 0.34957 0.0
O113 O 0.00219 0.29557 0.34284 0.0
Cd114 Cd 0.02777 0.30847 0.33088 0.0
O115 O 0.0012 0.31599 0.34996 0.0
Cd116 Cd 0.02573 0.33849 0.33915 0.0
C117 C 0.04678 0.33147 0.37274 0.0
O118 O 0.0299 0.32743 0.30815 0.0
O119 O 0.04866 0.3487 0.31749 0.0
O120 O 0.01133 0.34891 0.32407 0.0
C121 C 0.04331 0.33786 0.30471 0.0
O122 O 0.04401 0.32053 0.36075 0.0
C123 C 0.0182 0.36146 0.3334 0.0
O124 O 0.04079 0.33948 0.36956 0.0
O125 O 0.02855 0.36337 0.34592 0.0
C126 C 0.63236 0.9722 0.33361 0.0
O127 O 0.62674 0.95883 0.34013 0.0
Cd128 Cd 0.64071 0.94742 0.35178 0.0
O129 O 0.64666 0.98091 0.33286 0.0
Cd130 Cd 0.66975 0.97958 0.34187 0.0
C131 C 0.66232 0.95103 0.30863 0.0
O132 O 0.66014 0.96493 0.37413 0.0
O133 O 0.68127 0.9682 0.36256 0.0
O134 O 0.68137 0.00556 0.35428 0.0
C135 C 0.67118 0.96287 0.37655 0.0
O136 O 0.65208 0.94265 0.32157 0.0
C137 C 0.69374 0.01031 0.34452 0.0
O138 O 0.66976 0.96524 0.3111 0.0
O139 O 0.69486 0.00087 0.33308 0.0
C140 C 0.995 0.69685 0.33979 0.0
O141 O 0.00213 0.70973 0.33137 0.0
Cd142 Cd 0.02775 0.72231 0.31919 0.0
O143 O 0.00132 0.68905 0.34216 0.0
Cd144 Cd 0.02613 0.69112 0.33348 0.0
C145 C 0.04651 0.72225 0.36361 0.0
O146 O 0.03028 0.70403 0.3003 0.0
O147 O 0.04867 0.70155 0.31106 0.0
O148 O 0.01214 0.66499 0.32226 0.0
C149 C 0.04346 0.70631 0.2972 0.0
O150 O 0.04385 0.72928 0.34963 0.0
C151 C 0.01983 0.66074 0.33246 0.0
O152 O 0.04064 0.70802 0.36267 0.0
O153 O 0.03012 0.67049 0.34409 0.0
C154 C 0.34664 0.36828 0.33978 0.0
O155 O 0.33927 0.37415 0.34688 0.0
Cd156 Cd 0.31316 0.36081 0.35634 0.0
O157 O 0.34035 0.35403 0.33807 0.0
Cd158 Cd 0.31515 0.33118 0.34642 0.0
C159 C 0.29654 0.3407 0.31155 0.0
O160 O 0.3087 0.34026 0.37782 0.0
O161 O 0.29073 0.31987 0.36456 0.0
O162 O 0.3266 0.31867 0.36429 0.0
C163 C 0.29511 0.32962 0.37892 0.0
O164 O 0.29921 0.35133 0.32409 0.0
C165 C 0.322 0.30762 0.35194 0.0
O166 O 0.30141 0.33176 0.31515 0.0
O167 O 0.3143 0.30749 0.33646 0.0
C168 C 0.30037 0.99719 0.67029 0.0
O169 O 0.29444 0.00472 0.67648 0.0
Cd170 Cd 0.30737 0.02955 0.69087 0.0
O171 O 0.31465 0.00274 0.67129 0.0
Cd172 Cd 0.33737 0.02682 0.68339 0.0
C173 C 0.33173 0.04947 0.65066 0.0
O174 O 0.32554 0.03045 0.71423 0.0
O175 O 0.34758 0.04883 0.70664 0.0
O176 O 0.3481 0.01255 0.69828 0.0
C177 C 0.33626 0.04345 0.71872 0.0
O178 O 0.32065 0.04677 0.66248 0.0
C179 C 0.36076 0.01961 0.68905 0.0
O180 O 0.33924 0.04288 0.65349 0.0
O181 O 0.3625 0.02985 0.67653 0.0
C182 C 0.96909 0.33779 0.67722 0.0
O183 O 0.95603 0.32958 0.66955 0.0
Cd184 Cd 0.94543 0.30429 0.65739 0.0
O185 O 0.97841 0.33309 0.67826 0.0
Cd186 Cd 0.97921 0.31009 0.66685 0.0
C187 C 0.95069 0.28695 0.69972 0.0
O188 O 0.96403 0.30445 0.63535 0.0
O189 O 0.96939 0.28771 0.6444 0.0
O190 O 0.00479 0.32541 0.6528 0.0
C191 C 0.96294 0.2919 0.63164 0.0
O192 O 0.94191 0.2886 0.68754 0.0
C193 C 0.01054 0.31908 0.66302 0.0
O194 O 0.96493 0.29409 0.69664 0.0
O195 O 0.00187 0.30894 0.67575 0.0
C196 C 0.65948 0.63336 0.67593 0.0
O197 O 0.66674 0.62746 0.66849 0.0
Cd198 Cd 0.69174 0.6403 0.65393 0.0
O199 O 0.66541 0.6476 0.6764 0.0
Cd200 Cd 0.6897 0.67031 0.66558 0.0
C201 C 0.71192 0.66254 0.69549 0.0
O202 O 0.69291 0.6597 0.63343 0.0
O203 O 0.71193 0.68079 0.64251 0.0
O204 O 0.67469 0.68145 0.65512 0.0
C205 C 0.70628 0.67003 0.62962 0.0
O206 O 0.70978 0.65263 0.68195 0.0
C207 C 0.68324 0.69424 0.66321 0.0
O208 O 0.70473 0.6696 0.69496 0.0
O209 O 0.69466 0.69586 0.67303 0.0
C210 C 0.29999 0.30873 0.67396 0.0
O211 O 0.29389 0.29575 0.68201 0.0
Cd212 Cd 0.30703 0.28306 0.6913 0.0
O213 O 0.31428 0.31637 0.67137 0.0
Cd214 Cd 0.33668 0.31358 0.67936 0.0
C215 C 0.32538 0.2847 0.64545 0.0
O216 O 0.32853 0.29916 0.712 0.0
O217 O 0.34744 0.30002 0.69599 0.0
O218 O 0.35036 0.33843 0.69525 0.0
C219 C 0.33886 0.29586 0.71179 0.0
O220 O 0.31506 0.27709 0.65872 0.0
C221 C 0.36162 0.3438 0.68301 0.0
O222 O 0.33468 0.29865 0.64829 0.0
O223 O 0.36124 0.33522 0.66851 0.0
C224 C 0.66005 0.02848 0.67749 0.0
O225 O 0.66729 0.04174 0.67033 0.0
Cd226 Cd 0.6928 0.05457 0.65863 0.0
O227 O 0.66626 0.02048 0.67854 0.0
Cd228 Cd 0.69107 0.02264 0.66885 0.0
C229 C 0.71067 0.05184 0.70239 0.0
O230 O 0.69488 0.03691 0.63728 0.0
O231 O 0.71383 0.03494 0.64649 0.0
O232 O 0.67641 0.99673 0.65645 0.0
C233 C 0.70823 0.03995 0.63356 0.0
O234 O 0.70782 0.05964 0.68999 0.0
C235 C 0.68403 0.992 0.66577 0.0
O236 O 0.70554 0.03789 0.6991 0.0
O237 O 0.69489 0.00147 0.67693 0.0
C238 C 0.01511 0.70396 0.67592 0.0
O239 O 0.00837 0.71038 0.68341 0.0
Cd240 Cd 0.98284 0.69832 0.69586 0.0
O241 O 0.00831 0.68967 0.67455 0.0
Cd242 Cd 0.98288 0.66765 0.68357 0.0
C243 C 0.96264 0.67786 0.65283 0.0
O244 O 0.97847 0.67734 0.71579 0.0
O245 O 0.95913 0.65785 0.703 0.0
O246 O 0.99267 0.65379 0.70158 0.0
C247 C 0.9646 0.66753 0.71745 0.0
O248 O 0.96603 0.68818 0.66624 0.0
C249 C 0.98791 0.6429 0.68894 0.0
O250 O 0.96818 0.66925 0.65392 0.0
O251 O 0.98098 0.6435 0.67299 0.0
H252 H 0.20715 0.31964 0.13345 0.0
H253 H 0.17014 0.31751 0.1003 0.0
H254 H 0.1755 0.327 0.1666 0.0
H255 H 0.15141 0.31667 0.1673 0.0
H256 H 0.11662 0.31977 0.13625 0.0
H257 H 0.15504 0.32654 0.10119 0.0
C258 C 0.19682 0.32007 0.13345 0.0
C259 C 0.19167 0.32287 0.15201 0.0
C260 C 0.18931 0.3186 0.11477 0.0
C261 C 0.17599 0.31925 0.11487 0.0
C262 C 0.1703 0.32182 0.1336 0.0
C263 C 0.17875 0.32417 0.15205 0.0
C264 C 0.15551 0.32163 0.13413 0.0
C265 C 0.14735 0.3188 0.15303 0.0
C266 C 0.13351 0.31836 0.15385 0.0
C267 C 0.12728 0.31999 0.13558 0.0
C268 C 0.13485 0.32263 0.11657 0.0
C269 C 0.14914 0.32389 0.11591 0.0
H270 H 0.67868 0.88354 0.13474 0.0
H271 H 0.66785 0.84346 0.10106 0.0
H272 H 0.68774 0.85148 0.16251 0.0
H273 H 0.67366 0.82662 0.16441 0.0
H274 H 0.67696 0.79273 0.13036 0.0
H275 H 0.67955 0.82985 0.09745 0.0
C276 C 0.67866 0.87304 0.13372 0.0
C277 C 0.68375 0.86839 0.15056 0.0
C278 C 0.673 0.86418 0.11589 0.0
C279 C 0.67264 0.8504 0.11473 0.0
C280 C 0.6778 0.84541 0.13161 0.0
C281 C 0.68344 0.8547 0.14943 0.0
C282 C 0.67708 0.83051 0.13105 0.0
C283 C 0.67535 0.82252 0.14973 0.0
C284 C 0.6753 0.80891 0.14961 0.0
C285 C 0.67684 0.80315 0.13065 0.0
C286 C 0.67806 0.81049 0.11193 0.0
C287 C 0.67821 0.82415 0.11206 0.0
H288 H 0.20086 0.88703 0.12334 0.0
H289 H 0.17364 0.84726 0.08772 0.0
H290 H 0.16459 0.84897 0.15337 0.0
H291 H 0.15573 0.82506 0.15218 0.0
H292 H 0.12043 0.7885 0.11869 0.0
H293 H 0.14909 0.82969 0.08662 0.0
C294 C 0.19116 0.87576 0.12243 0.0
C295 C 0.18325 0.86866 0.14054 0.0
C296 C 0.18754 0.86819 0.10338 0.0
C297 C 0.17577 0.85315 0.10239 0.0
C298 C 0.16709 0.84583 0.1203 0.0
C299 C 0.17097 0.85393 0.13931 0.0
C300 C 0.15432 0.82976 0.11948 0.0
C301 C 0.14979 0.82082 0.13767 0.0
C302 C 0.13753 0.80608 0.13744 0.0
C303 C 0.12999 0.79989 0.11884 0.0
C304 C 0.13426 0.80831 0.10056 0.0
C305 C 0.14633 0.82323 0.10081 0.0
H306 H 0.32346 0.12012 0.88528 0.0
H307 H 0.33521 0.15949 0.92136 0.0
H308 H 0.32509 0.15772 0.85561 0.0
H309 H 0.34 0.18207 0.85762 0.0
H310 H 0.33587 0.21566 0.89111 0.0
H311 H 0.32626 0.17534 0.92244 0.0
C312 C 0.32502 0.1313 0.88639 0.0
C313 C 0.32411 0.13828 0.86844 0.0
C314 C 0.32882 0.1388 0.9055 0.0
C315 C 0.33178 0.15365 0.90662 0.0
C316 C 0.33032 0.16081 0.88875 0.0
C317 C 0.32647 0.15284 0.86966 0.0
C318 C 0.33265 0.17641 0.88982 0.0
C319 C 0.33715 0.18564 0.8719 0.0
C320 C 0.33821 0.19973 0.87219 0.0
C321 C 0.33522 0.20486 0.89073 0.0
C322 C 0.33122 0.19625 0.90884 0.0
C323 C 0.32989 0.18204 0.90843 0.0
H324 H 0.79682 0.11707 0.8826 0.0
H325 H 0.83233 0.15108 0.91968 0.0
H326 H 0.83018 0.15735 0.85333 0.0
H327 H 0.85453 0.17144 0.85531 0.0
H328 H 0.88481 0.21062 0.88983 0.0
H329 H 0.84576 0.17586 0.92037 0.0
C330 C 0.80718 0.12785 0.88381 0.0
C331 C 0.81325 0.13646 0.86596 0.0
C332 C 0.8138 0.13323 0.90325 0.0
C333 C 0.82712 0.14734 0.90461 0.0
C334 C 0.83366 0.15629 0.88661 0.0
C335 C 0.82619 0.15071 0.86736 0.0
C336 C 0.84807 0.17133 0.88773 0.0
C337 C 0.85734 0.17755 0.86983 0.0
C338 C 0.87025 0.19195 0.87029 0.0
C339 C 0.8746 0.19972 0.88912 0.0
C340 C 0.86596 0.19386 0.90709 0.0
C341 C 0.8526 0.17983 0.90643 0.0
H342 H 0.79267 0.6761 0.88179 0.0
H343 H 0.82945 0.67755 0.9146 0.0
H344 H 0.82546 0.6704 0.84799 0.0
H345 H 0.85057 0.68433 0.84938 0.0
H346 H 0.88247 0.67503 0.8775 0.0
H347 H 0.84233 0.66501 0.91118 0.0
C348 C 0.80282 0.67538 0.88148 0.0
C349 C 0.80826 0.67322 0.86256 0.0
C350 C 0.8102 0.67654 0.90019 0.0
C351 C 0.82363 0.67614 0.90005 0.0
C352 C 0.82968 0.67442 0.88112 0.0
C353 C 0.8216 0.6726 0.86254 0.0
C354 C 0.84445 0.67474 0.88049 0.0
C355 C 0.85374 0.68007 0.86257 0.0
C356 C 0.86737 0.68014 0.86152 0.0
C357 C 0.87197 0.6751 0.87847 0.0
C358 C 0.86304 0.66967 0.89636 0.0
C359 C 0.84933 0.66959 0.89746 0.0
H360 H 0.88016 0.66263 0.46873 0.0
H361 H 0.84332 0.6591 0.43365 0.0
H362 H 0.84745 0.66987 0.4995 0.0
H363 H 0.823 0.66002 0.49845 0.0
H364 H 0.79242 0.66788 0.46368 0.0
H365 H 0.83052 0.67074 0.43256 0.0
C366 C 0.86977 0.66294 0.46818 0.0
C367 C 0.86437 0.6661 0.48631 0.0
C368 C 0.86241 0.66074 0.44919 0.0
C369 C 0.84901 0.66122 0.44843 0.0
C370 C 0.84306 0.66425 0.46654 0.0
C371 C 0.85107 0.66679 0.48547 0.0
C372 C 0.82884 0.6651 0.46562 0.0
C373 C 0.82 0.66284 0.48378 0.0
C374 C 0.80724 0.66444 0.48327 0.0
C375 C 0.80259 0.66721 0.46432 0.0
C376 C 0.81077 0.6692 0.44612 0.0
C377 C 0.82403 0.66846 0.44674 0.0
H378 H 0.33224 0.2095 0.4663 0.0
H379 H 0.34401 0.18141 0.43162 0.0
H380 H 0.33997 0.17839 0.499 0.0
H381 H 0.35381 0.16864 0.49749 0.0
H382 H 0.35323 0.13172 0.46676 0.0
H383 H 0.3394 0.15824 0.43322 0.0
C384 C 0.33488 0.20058 0.4659 0.0
C385 C 0.33634 0.19467 0.48455 0.0
C386 C 0.33734 0.19564 0.44681 0.0
C387 C 0.34159 0.18465 0.44649 0.0
C388 C 0.34257 0.17795 0.46525 0.0
C389 C 0.3398 0.18321 0.48423 0.0
C390 C 0.34622 0.16548 0.46524 0.0
C391 C 0.35148 0.16199 0.48354 0.0
C392 C 0.35368 0.14967 0.48433 0.0
C393 C 0.35186 0.14144 0.46621 0.0
C394 C 0.34712 0.14476 0.4477 0.0
C395 C 0.34389 0.15647 0.44736 0.0
H396 H 0.87648 0.21344 0.4622 0.0
H397 H 0.83751 0.18354 0.42659 0.0
H398 H 0.841 0.17455 0.49164 0.0
H399 H 0.8166 0.16398 0.49129 0.0
H400 H 0.78103 0.12787 0.45754 0.0
H401 H 0.82157 0.15878 0.42524 0.0
C402 C 0.86552 0.20327 0.46123 0.0
C403 C 0.85935 0.1945 0.4789 0.0
C404 C 0.85779 0.19922 0.44239 0.0
C405 C 0.84349 0.18618 0.4412 0.0
C406 C 0.8369 0.17705 0.459 0.0
C407 C 0.84524 0.18134 0.47778 0.0
C408 C 0.82133 0.16341 0.4583 0.0
C409 C 0.81251 0.15814 0.47665 0.0
C410 C 0.79813 0.14528 0.47646 0.0
C411 C 0.79206 0.138 0.45763 0.0
C412 C 0.80032 0.143 0.43911 0.0
C413 C 0.81509 0.15546 0.43953 0.0
H414 H 0.00841 0.46017 0.21991 0.0
H415 H 0.00107 0.49185 0.25322 0.0
H416 H 0.01267 0.49828 0.18764 0.0
H417 H 0.99768 0.50834 0.18851 0.0
H418 H 0.00324 0.54738 0.22009 0.0
H419 H 0.0135 0.51751 0.25222 0.0
C420 C 0.00812 0.47052 0.22003 0.0
C421 C 0.01089 0.47868 0.20166 0.0
C422 C 0.00476 0.47531 0.23856 0.0
C423 C 0.00405 0.4885 0.23883 0.0
C424 C 0.00668 0.49697 0.22042 0.0
C425 C 0.01018 0.49189 0.20188 0.0
C426 C 0.00561 0.51091 0.22043 0.0
C427 C 0.00089 0.5152 0.20241 0.0
C428 C -2e-05 0.52829 0.20226 0.0
C429 C 0.00365 0.53709 0.22022 0.0
C430 C 0.00837 0.53316 0.23817 0.0
C431 C 0.00941 0.52014 0.23834 0.0
H432 H 0.46626 0.44806 0.21566 0.0
H433 H 0.50154 0.48299 0.25157 0.0
H434 H 0.50042 0.48693 0.18445 0.0
H435 H 0.52442 0.50106 0.18625 0.0
H436 H 0.55689 0.5396 0.21985 0.0
H437 H 0.5168 0.5072 0.25117 0.0
C438 C 0.47675 0.45876 0.21631 0.0
C439 C 0.48314 0.46658 0.19792 0.0
C440 C 0.48311 0.46485 0.2356 0.0
C441 C 0.49657 0.47884 0.23648 0.0
C442 C 0.5035 0.48705 0.21806 0.0
C443 C 0.49617 0.48086 0.19886 0.0
C444 C 0.51834 0.50179 0.21867 0.0
C445 C 0.5276 0.50731 0.20065 0.0
C446 C 0.54133 0.52102 0.20089 0.0
C447 C 0.54637 0.52894 0.21953 0.0
C448 C 0.53769 0.52379 0.23763 0.0
C449 C 0.52355 0.51051 0.23714 0.0
H450 H 0.45852 0.00772 0.21456 0.0
H451 H 0.4855 0.99448 0.24892 0.0
H452 H 0.49898 0.01327 0.18707 0.0
H453 H 0.50661 0.9963 0.18596 0.0
H454 H 0.54314 0.99743 0.21921 0.0
H455 H 0.51183 0.0059 0.25203 0.0
C456 C 0.46861 0.00692 0.21578 0.0
C457 C 0.47854 0.01121 0.19894 0.0
C458 C 0.47101 0.00089 0.23377 0.0
C459 C 0.48392 0.99951 0.23516 0.0
C460 C 0.49421 0.00383 0.21828 0.0
C461 C 0.49134 0.00976 0.20025 0.0
C462 C 0.50754 0.00162 0.21888 0.0
C463 C 0.51267 0.9981 0.20039 0.0
C464 C 0.52545 0.99654 0.20038 0.0
C465 C 0.53307 0.99833 0.21906 0.0
C466 C 0.5281 0.00146 0.23762 0.0
C467 C 0.51536 0.00313 0.23762 0.0
H468 H 0.54397 0.9942 0.79842 0.0
H469 H 0.50584 0.98988 0.76554 0.0
H470 H 0.51074 0.9992 0.83179 0.0
H471 H 0.48576 0.9858 0.83098 0.0
H472 H 0.4538 0.99477 0.80208 0.0
H473 H 0.49265 0.00204 0.76752 0.0
C474 C 0.53339 0.99415 0.79853 0.0
C475 C 0.52803 0.99668 0.81715 0.0
C476 C 0.52551 0.99184 0.77998 0.0
C477 C 0.51188 0.99189 0.78002 0.0
C478 C 0.50604 0.99422 0.79876 0.0
C479 C 0.51443 0.99676 0.81728 0.0
C480 C 0.4913 0.99398 0.79919 0.0
C481 C 0.4824 0.9896 0.8175 0.0
C482 C 0.46898 0.98996 0.81867 0.0
C483 C 0.46405 0.99422 0.8012 0.0
C484 C 0.47239 0.99831 0.78274 0.0
C485 C 0.48606 0.99832 0.78171 0.0
H486 H 0.99193 0.54023 0.79917 0.0
H487 H 0.00103 0.50932 0.76692 0.0
H488 H 0.99656 0.50768 0.83409 0.0
H489 H 0.01283 0.49955 0.83186 0.0
H490 H 0.00689 0.45885 0.80564 0.0
H491 H 0.99136 0.48401 0.7718 0.0
C492 C 0.99371 0.53075 0.79964 0.0
C493 C 0.99422 0.52473 0.81881 0.0
C494 C 0.99581 0.52506 0.78099 0.0
C495 C 0.99897 0.51332 0.78145 0.0
C496 C 0.99937 0.50682 0.80062 0.0
C497 C 0.99686 0.51267 0.81921 0.0
C498 C 0.0021 0.49384 0.80141 0.0
C499 C 0.00891 0.49163 0.81908 0.0
C500 C 0.01064 0.47906 0.82058 0.0
C501 C 0.00587 0.46876 0.80424 0.0
C502 C 0.99894 0.47048 0.78671 0.0
C503 C 0.99719 0.48308 0.78516 0.0
H504 H 0.54085 0.5513 0.79526 0.0
H505 H 0.50611 0.51427 0.76143 0.0
H506 H 0.51008 0.51146 0.82819 0.0
H507 H 0.4854 0.49726 0.82696 0.0
H508 H 0.45511 0.4561 0.79645 0.0
H509 H 0.49401 0.48936 0.76336 0.0
C510 C 0.53098 0.54012 0.79522 0.0
C511 C 0.52585 0.53229 0.81389 0.0
C512 C 0.52416 0.53351 0.77634 0.0
C513 C 0.51152 0.51895 0.77616 0.0
C514 C 0.50582 0.51079 0.79491 0.0
C515 C 0.51355 0.51753 0.81365 0.0
C516 C 0.49179 0.4955 0.79513 0.0
C517 C 0.48267 0.49029 0.81323 0.0
C518 C 0.46957 0.47611 0.81371 0.0
C519 C 0.46531 0.46706 0.79601 0.0
C520 C 0.474 0.47182 0.77784 0.0
C521 C 0.48723 0.48602 0.77738 0.0
H522 H 0.66031 0.78755 0.5525 0.0
H523 H 0.66793 0.82625 0.58671 0.0
H524 H 0.6583 0.82246 0.52045 0.0
H525 H 0.66731 0.84602 0.52075 0.0
H526 H 0.66125 0.87819 0.55438 0.0
H527 H 0.66008 0.84199 0.5877 0.0
C528 C 0.66093 0.79835 0.55281 0.0
C529 C 0.65949 0.80452 0.53436 0.0
C530 C 0.66368 0.80606 0.57162 0.0
C531 C 0.66523 0.82037 0.57202 0.0
C532 C 0.66317 0.82673 0.55368 0.0
C533 C 0.6603 0.81847 0.53486 0.0
C534 C 0.66347 0.84154 0.55413 0.0
C535 C 0.66513 0.8496 0.5355 0.0
C536 C 0.66368 0.86238 0.5355 0.0
C537 C 0.66172 0.86793 0.55432 0.0
C538 C 0.66084 0.86082 0.57309 0.0
C539 C 0.6615 0.84757 0.57301 0.0
H540 H 0.12915 0.78604 0.55165 0.0
H541 H 0.16876 0.81831 0.58402 0.0
H542 H 0.16293 0.82448 0.5188 0.0
H543 H 0.18757 0.8347 0.51774 0.0
H544 H 0.22347 0.87319 0.54762 0.0
H545 H 0.18403 0.84353 0.58289 0.0
C546 C 0.13992 0.79647 0.55146 0.0
C547 C 0.14522 0.80461 0.533 0.0
C548 C 0.14819 0.80154 0.56984 0.0
C549 C 0.16234 0.81483 0.56976 0.0
C550 C 0.16821 0.82319 0.5512 0.0
C551 C 0.15925 0.81802 0.53301 0.0
C552 C 0.18365 0.83705 0.55051 0.0
C553 C 0.19199 0.8414 0.53168 0.0
C554 C 0.20622 0.85449 0.53048 0.0
C555 C 0.2126 0.8629 0.5485 0.0
C556 C 0.20478 0.85885 0.56741 0.0
C557 C 0.19019 0.84614 0.56835 0.0
H558 H 0.12705 0.3407 0.55553 0.0
H559 H 0.16071 0.33515 0.58582 0.0
H560 H 0.16518 0.34682 0.52032 0.0
H561 H 0.17765 0.33467 0.5191 0.0
H562 H 0.21694 0.3396 0.54892 0.0
H563 H 0.18579 0.34675 0.58444 0.0
C564 C 0.13764 0.34082 0.5547 0.0
C565 C 0.14517 0.34346 0.53569 0.0
C566 C 0.1433 0.33806 0.57268 0.0
C567 C 0.15691 0.33801 0.57186 0.0
C568 C 0.1652 0.34123 0.55298 0.0
C569 C 0.1592 0.3442 0.535 0.0
C570 C 0.17973 0.34101 0.55186 0.0
C571 C 0.18448 0.33754 0.53295 0.0
C572 C 0.19789 0.33711 0.53191 0.0
C573 C 0.20666 0.34012 0.54971 0.0
C574 C 0.20226 0.34344 0.56861 0.0
C575 C 0.18886 0.34393 0.56971 0.0
H576 H 0.02516 0.41032 0.04064 0.0
H577 H 0.02601 0.4286 0.06549 0.0
H578 H 0.99952 0.39293 0.10893 0.0
H579 H 0.99798 0.37447 0.08353 0.0
H580 H 0.98992 0.41118 0.11022 0.0
H581 H 0.03933 0.41778 0.11351 0.0
H582 H 0.06369 0.42209 0.09993 0.0
H583 H 0.07387 0.46498 0.07613 0.0
H584 H 0.04948 0.46084 0.08935 0.0
H585 H 0.03124 0.46956 0.19628 0.0
H586 H 0.0323 0.4545 0.16771 0.0
H587 H 0.99858 0.45932 0.13475 0.0
H588 H 0.99711 0.47399 0.16384 0.0
H589 H 0.03847 0.45675 0.12823 0.0
H590 H 0.97437 0.42621 0.1114 0.0
H591 H 0.95064 0.41981 0.1296 0.0
H592 H 0.97103 0.42112 0.18824 0.0
H593 H 0.99475 0.42731 0.17035 0.0
C594 C 0.01957 0.40636 0.05553 0.0
C595 C 0.01158 0.39096 0.06022 0.0
C596 C 0.02011 0.41685 0.06978 0.0
C597 C 0.01307 0.41223 0.08931 0.0
C598 C 0.00506 0.39681 0.09399 0.0
C599 C 0.00424 0.38627 0.07953 0.0
C600 C 0.01394 0.42344 0.10472 0.0
C601 C 0.00056 0.42114 0.11408 0.0
C602 C 0.02781 0.43637 0.11014 0.0
C603 C 0.04252 0.43893 0.10225 0.0
C604 C 0.04672 0.42808 0.10526 0.0
C605 C 0.06054 0.4305 0.09764 0.0
C606 C 0.0703 0.44378 0.08713 0.0
C607 C 0.06629 0.45469 0.08426 0.0
C608 C 0.05247 0.45232 0.09182 0.0
C609 C 0.02421 0.46756 0.1828 0.0
C610 C 0.01393 0.47272 0.18238 0.0
C611 C 0.02487 0.45902 0.16642 0.0
C612 C 0.0153 0.4555 0.14925 0.0
C613 C 0.00587 0.46165 0.14804 0.0
C614 C 0.00515 0.47017 0.16453 0.0
C615 C 0.01447 0.4445 0.13355 0.0
C616 C 0.02784 0.44684 0.12416 0.0
C617 C 0.00068 0.43131 0.12872 0.0
C618 C 0.98638 0.42741 0.13955 0.0
C619 C 0.97376 0.42509 0.12816 0.0
C620 C 0.96031 0.4215 0.13843 0.0
C621 C 0.95934 0.42012 0.16007 0.0
C622 C 0.9718 0.42226 0.17149 0.0
C623 C 0.98525 0.42582 0.1613 0.0
H624 H 0.94893 0.41736 0.16798 0.0
H625 H 0.081 0.44563 0.08124 0.0
H626 H 0.63383 0.61678 0.06606 0.0
H627 H 0.62156 0.59812 0.0937 0.0
H628 H 0.57813 0.5903 0.07399 0.0
H629 H 0.59021 0.60901 0.0468 0.0
H630 H 0.57981 0.59195 0.11463 0.0
H631 H 0.59095 0.56598 0.06153 0.0
H632 H 0.60728 0.56202 0.0373 0.0
H633 H 0.63317 0.56081 0.08859 0.0
H634 H 0.6171 0.56497 0.11312 0.0
H635 H 0.53037 0.52419 0.16401 0.0
H636 H 0.54494 0.54059 0.13511 0.0
H637 H 0.58634 0.55081 0.16553 0.0
H638 H 0.57183 0.53434 0.19445 0.0
H639 H 0.58689 0.54808 0.12071 0.0
H640 H 0.57562 0.57419 0.17349 0.0
H641 H 0.55879 0.57756 0.19759 0.0
H642 H 0.53277 0.57809 0.146 0.0
H643 H 0.54932 0.5745 0.12165 0.0
C644 C 0.62168 0.61115 0.06771 0.0
C645 C 0.61303 0.6144 0.05416 0.0
C646 C 0.61467 0.60041 0.08343 0.0
C647 C 0.59889 0.59265 0.08576 0.0
C648 C 0.59031 0.59611 0.07251 0.0
C649 C 0.59727 0.60683 0.05691 0.0
C650 C 0.59116 0.58095 0.102 0.0
C651 C 0.58127 0.5823 0.11576 0.0
C652 C 0.59328 0.56848 0.10385 0.0
C653 C 0.60293 0.56596 0.08914 0.0
C654 C 0.6002 0.56499 0.06763 0.0
C655 C 0.6094 0.56269 0.05384 0.0
C656 C 0.62128 0.56121 0.06139 0.0
C657 C 0.62397 0.56198 0.08276 0.0
C658 C 0.61482 0.56431 0.09661 0.0
C659 C 0.54255 0.52953 0.16421 0.0
C660 C 0.54996 0.52805 0.18153 0.0
C661 C 0.55086 0.53898 0.14778 0.0
C662 C 0.56671 0.54704 0.14834 0.0
C663 C 0.57413 0.5447 0.16482 0.0
C664 C 0.56582 0.53533 0.18134 0.0
C665 C 0.57541 0.55903 0.13292 0.0
C666 C 0.5855 0.55777 0.11948 0.0
C667 C 0.57346 0.57157 0.13125 0.0
C668 C 0.5636 0.57392 0.1458 0.0
C669 C 0.56623 0.5749 0.16733 0.0
C670 C 0.55676 0.57687 0.18102 0.0
C671 C 0.54469 0.57799 0.17333 0.0
C672 C 0.54211 0.57719 0.15193 0.0
C673 C 0.55153 0.5752 0.13818 0.0
H674 H 0.53737 0.57951 0.18395 0.0
H675 H 0.62839 0.55942 0.0507 0.0
H676 H 0.39159 0.02171 0.06443 0.0
H677 H 0.41024 0.02722 0.0918 0.0
H678 H 0.40781 0.985 0.07966 0.0
H679 H 0.38922 0.97937 0.05263 0.0
H680 H 0.40816 0.99 0.12067 0.0
H681 H 0.43634 0.01755 0.06001 0.0
H682 H 0.44323 0.03576 0.03147 0.0
H683 H 0.45472 0.0711 0.07578 0.0
H684 H 0.44769 0.05303 0.10459 0.0
H685 H 0.47363 0.99711 0.16175 0.0
H686 H 0.45881 0.99848 0.13308 0.0
H687 H 0.45781 0.03516 0.1636 0.0
H688 H 0.47239 0.03362 0.19256 0.0
H689 H 0.45937 0.03507 0.11512 0.0
H690 H 0.43111 0.0072 0.17584 0.0
H691 H 0.4256 0.98903 0.20404 0.0
H692 H 0.41465 0.95422 0.15903 0.0
H693 H 0.42045 0.9723 0.13054 0.0
C694 C 0.3949 0.01354 0.06778 0.0
C695 C 0.38895 0.00013 0.05626 0.0
C696 C 0.40563 0.01674 0.08332 0.0
C697 C 0.41055 0.00659 0.0876 0.0
C698 C 0.40422 0.99301 0.07661 0.0
C699 C 0.39359 0.98983 0.06109 0.0
C700 C 0.4225 0.01008 0.10316 0.0
C701 C 0.41935 -0.00016 0.11936 0.0
C702 C 0.43707 0.02304 0.10172 0.0
C703 C 0.44132 0.03391 0.08443 0.0
C704 C 0.44021 0.02918 0.06366 0.0
C705 C 0.44416 0.03948 0.04744 0.0
C706 C 0.44936 0.05457 0.05181 0.0
C707 C 0.45066 0.0594 0.07242 0.0
C708 C 0.4467 0.04914 0.0887 0.0
C709 C 0.4708 0.00587 0.16189 0.0
C710 C 0.4741 0.01525 0.17929 0.0
C711 C 0.4623 0.00661 0.14558 0.0
C712 C 0.45715 0.01685 0.14636 0.0
C713 C 0.46175 0.02725 0.16271 0.0
C714 C 0.47005 0.02635 0.1792 0.0
C715 C 0.44498 0.01489 0.13225 0.0
C716 C 0.4481 0.02536 0.11645 0.0
C717 C 0.43036 0.00215 0.13401 0.0
C718 C 0.42637 0.99113 0.15107 0.0
C719 C 0.42765 0.9957 0.17196 0.0
C720 C 0.42447 0.98542 0.18799 0.0
C721 C 0.41982 0.97048 0.18333 0.0
C722 C 0.41828 0.96579 0.16262 0.0
C723 C 0.42151 0.97605 0.14652 0.0
H724 H 0.41737 0.96254 0.19577 0.0
H725 H 0.45242 0.06253 0.03923 0.0
H726 H 0.36978 0.98575 0.93814 0.0
H727 H 0.38659 0.98165 0.91564 0.0
H728 H 0.42522 0.01733 0.947 0.0
H729 H 0.40848 0.02183 0.96905 0.0
H730 H 0.43062 0.01912 0.90749 0.0
H731 H 0.41224 0.9795 0.95697 0.0
H732 H 0.39314 0.95814 0.97753 0.0
H733 H 0.37412 0.93291 0.92152 0.0
H734 H 0.39296 0.95421 0.90058 0.0
H735 H 0.48039 0.00168 0.85683 0.0
H736 H 0.4661 0.00205 0.88722 0.0
H737 H 0.42441 0.97303 0.85527 0.0
H738 H 0.43862 0.97247 0.825 0.0
H739 H 0.42259 0.96787 0.89849 0.0
H740 H 0.44122 0.00885 0.84959 0.0
H741 H 0.46086 0.03043 0.82998 0.0
H742 H 0.48054 0.05352 0.88718 0.0
H743 H 0.46113 0.03193 0.90713 0.0
C744 C 0.38186 0.99279 0.94012 0.0
C745 C 0.38781 0.00407 0.9554 0.0
C746 C 0.39146 0.99035 0.92738 0.0
C747 C 0.40718 0.99894 0.92995 0.0
C748 C 0.41314 0.0105 0.94482 0.0
C749 C 0.40355 0.01307 0.95739 0.0
C750 C 0.41738 0.99599 0.91695 0.0
C751 C 0.42904 0.00796 0.90588 0.0
C752 C 0.41525 0.9814 0.91466 0.0
C753 C 0.40395 0.96851 0.9272 0.0
C754 C 0.40392 0.96944 0.94902 0.0
C755 C 0.39315 0.95733 0.96074 0.0
C756 C 0.3824 0.94419 0.95083 0.0
C757 C 0.38244 0.9431 0.92917 0.0
C758 C 0.39317 0.95519 0.91737 0.0
C759 C 0.46819 0.99494 0.85661 0.0
C760 C 0.46058 0.98721 0.8385 0.0
C761 C 0.46005 0.99521 0.87392 0.0
C762 C 0.44423 0.98777 0.87331 0.0
C763 C 0.43662 0.97888 0.85601 0.0
C764 C 0.44474 0.97865 0.8387 0.0
C765 C 0.43566 0.99097 0.88903 0.0
C766 C 0.42429 0.97905 0.90049 0.0
C767 C 0.43817 0.00565 0.89188 0.0
C768 C 0.44978 0.0187 0.87986 0.0
C769 C 0.44978 0.01849 0.85799 0.0
C770 C 0.46087 0.03072 0.84681 0.0
C771 C 0.47196 0.04334 0.85733 0.0
C772 C 0.47195 0.04374 0.87905 0.0
C773 C 0.46091 0.03149 0.8903 0.0
H774 H 0.48054 0.05281 0.84865 0.0
H775 H 0.37407 0.93483 0.95993 0.0
H776 H 0.0236 0.39226 0.95173 0.0
H777 H 0.02879 0.41109 0.92486 0.0
H778 H 0.98571 0.40725 0.93729 0.0
H779 H 0.98044 0.38851 0.96392 0.0
H780 H 0.99135 0.40855 0.89592 0.0
H781 H 0.0175 0.43559 0.95791 0.0
H782 H 0.03544 0.44221 0.98683 0.0
H783 H 0.07188 0.45576 0.94327 0.0
H784 H 0.0541 0.44901 0.91406 0.0
H785 H 0.99676 0.47376 0.85804 0.0
H786 H 0.9986 0.45884 0.8861 0.0
H787 H 0.036 0.45936 0.85469 0.0
H788 H 0.03396 0.47401 0.8263 0.0
H789 H 0.03544 0.46004 0.90386 0.0
H790 H 0.00914 0.43256 0.84186 0.0
H791 H 0.99129 0.4269 0.8131 0.0
H792 H 0.95524 0.41447 0.857 0.0
H793 H 0.97298 0.42035 0.88605 0.0
C794 C 0.01516 0.39528 0.94852 0.0
C795 C 0.00164 0.38893 0.96005 0.0
C796 C 0.01818 0.40611 0.93327 0.0
C797 C 0.00771 0.41071 0.92925 0.0
C798 C 0.99397 0.40391 0.94015 0.0
C799 C 0.991 0.39321 0.95543 0.0
C800 C 0.01106 0.42286 0.91417 0.0
C801 C 0.00097 0.41979 0.89774 0.0
C802 C 0.02376 0.43751 0.91629 0.0
C803 C 0.03445 0.44163 0.93381 0.0
C804 C 0.02932 0.43986 0.9545 0.0
C805 C 0.03946 0.44366 0.97094 0.0
C806 C 0.05478 0.44936 0.96689 0.0
C807 C 0.06 0.45132 0.94638 0.0
C808 C 0.0499 0.44751 0.92988 0.0
C809 C 0.00582 0.4713 0.85762 0.0
C810 C 0.01525 0.47503 0.8401 0.0
C811 C 0.00681 0.46271 0.87357 0.0
C812 C 0.01737 0.45795 0.87234 0.0
C813 C 0.02785 0.46301 0.85594 0.0
C814 C 0.02669 0.47139 0.83979 0.0
C815 C 0.01563 0.44566 0.88595 0.0
C816 C 0.02596 0.44872 0.902 0.0
C817 C 0.0032 0.43096 0.88351 0.0
C818 C 0.99241 0.42704 0.86611 0.0
C819 C 0.99743 0.42874 0.84538 0.0
C820 C 0.98734 0.42548 0.82902 0.0
C821 C 0.97214 0.42037 0.83322 0.0
C822 C 0.96701 0.41845 0.85378 0.0
C823 C 0.97709 0.42174 0.87019 0.0
H824 H 0.96434 0.41785 0.82053 0.0
H825 H 0.06261 0.45229 0.97964 0.0
H826 H 0.62387 0.59865 0.95989 0.0
H827 H 0.60501 0.581 0.93551 0.0
H828 H 0.59539 0.61517 0.91619 0.0
H829 H 0.61413 0.63286 0.94074 0.0
H830 H 0.56977 0.5889 0.9236 0.0
H831 H 0.61573 0.60507 0.88528 0.0
H832 H 0.64151 0.60981 0.87948 0.0
H833 H 0.62578 0.56296 0.8879 0.0
H834 H 0.59992 0.55797 0.89403 0.0
H835 H 0.53292 0.55994 0.82769 0.0
H836 H 0.54949 0.57411 0.85647 0.0
H837 H 0.55396 0.53608 0.87243 0.0
H838 H 0.53738 0.52182 0.84332 0.0
H839 H 0.58139 0.56232 0.86878 0.0
H840 H 0.5348 0.54601 0.90433 0.0
H841 H 0.50907 0.54157 0.90934 0.0
H842 H 0.52595 0.58892 0.90549 0.0
H843 H 0.55177 0.59364 0.90015 0.0
C844 C 0.61782 0.60245 0.95034 0.0
C845 C 0.62051 0.61717 0.95223 0.0
C846 C 0.60706 0.59235 0.93638 0.0
C847 C 0.59883 0.59678 0.92395 0.0
C848 C 0.60159 0.6115 0.92566 0.0
C849 C 0.61236 0.62162 0.93962 0.0
C850 C 0.58714 0.58598 0.90943 0.0
C851 C 0.57234 0.58321 0.91147 0.0
C852 C 0.59039 0.5782 0.89402 0.0
C853 C 0.60593 0.58118 0.89035 0.0
C854 C 0.61779 0.5958 0.88608 0.0
C855 C 0.63241 0.59853 0.8827 0.0
C856 C 0.63529 0.5867 0.88339 0.0
C857 C 0.62354 0.57212 0.88741 0.0
C858 C 0.6089 0.56933 0.89083 0.0
C859 C 0.53723 0.55451 0.83756 0.0
C860 C 0.53387 0.53978 0.83332 0.0
C861 C 0.54665 0.5626 0.85404 0.0
C862 C 0.5529 0.55613 0.86666 0.0
C863 C 0.54921 0.54125 0.86289 0.0
C864 C 0.53966 0.53308 0.84641 0.0
C865 C 0.56406 0.56537 0.88281 0.0
C866 C 0.57878 0.56788 0.88106 0.0
C867 C 0.56074 0.57295 0.89844 0.0
C868 C 0.54522 0.57017 0.90168 0.0
C869 C 0.53302 0.55547 0.90439 0.0
C870 C 0.51841 0.5529 0.90732 0.0
C871 C 0.51587 0.56495 0.90769 0.0
C872 C 0.52793 0.5796 0.90518 0.0
C873 C 0.54256 0.58223 0.90223 0.0
H874 H 0.50456 0.56294 0.90997 0.0
H875 H 0.64662 0.58884 0.88076 0.0
H876 H 0.99879 0.62217 0.94834 0.0
H877 H 7e-05 0.60675 0.9202 0.0
H878 H 0.98064 0.5683 0.96088 0.0
H879 H 0.97886 0.58341 0.98864 0.0
H880 H 0.01378 0.59143 0.9142 0.0
H881 H 0.95806 0.53675 0.93503 0.0
H882 H 0.93336 0.52915 0.95111 0.0
H883 H 0.93766 0.57114 0.93341 0.0
H884 H 0.96228 0.57891 0.917 0.0
H885 H 0.01098 0.53215 0.85455 0.0
H886 H 0.00976 0.5464 0.88434 0.0
H887 H 0.97241 0.54748 0.85598 0.0
H888 H 0.97323 0.53284 0.82671 0.0
H889 H 0.96762 0.54357 0.89566 0.0
H890 H 0.0089 0.57747 0.85237 0.0
H891 H 0.03276 0.58679 0.83297 0.0
H892 H 0.05579 0.58924 0.8896 0.0
H893 H 0.03201 0.57978 0.90934 0.0
C894 C 0.99479 0.61043 0.95124 0.0
C895 C 0.98851 0.60398 0.97062 0.0
C896 C 0.99558 0.60163 0.93518 0.0
C897 C 0.99019 0.58627 0.93827 0.0
C898 C 0.9845 0.58001 0.9579 0.0
C899 C 0.98352 0.5887 0.9738 0.0
C900 C 0.99019 0.57666 0.92097 0.0
C901 C 0.00369 0.58096 0.91018 0.0
C902 C 0.97697 0.56311 0.91538 0.0
C903 C 0.96208 0.55846 0.92497 0.0
C904 C 0.9537 0.54433 0.9345 0.0
C905 C 0.93972 0.54 0.94368 0.0
C906 C 0.93397 0.54968 0.94334 0.0
C907 C 0.94215 0.56368 0.93373 0.0
C908 C 0.95613 0.56806 0.92451 0.0
C909 C 0.00231 0.53515 0.85492 0.0
C910 C 0.9923 0.5315 0.83819 0.0
C911 C 0.00173 0.54345 0.87182 0.0
C912 C 0.99118 0.54829 0.87222 0.0
C913 C 0.98071 0.54398 0.85601 0.0
C914 C 0.98124 0.53567 0.83921 0.0
C915 C 0.99125 0.55823 0.88907 0.0
C916 C 0.97774 0.55399 0.89978 0.0
C917 C 0.00434 0.57205 0.8941 0.0
C918 C 0.01865 0.57777 0.8823 0.0
C919 C 0.01903 0.57989 0.86067 0.0
C920 C 0.03253 0.58522 0.84961 0.0
C921 C 0.04576 0.58855 0.86003 0.0
C922 C 0.04552 0.58662 0.88155 0.0
C923 C 0.03204 0.5813 0.89268 0.0
H924 H 0.05621 0.59268 0.85144 0.0
H925 H 0.92315 0.54631 0.95047 0.0
H926 H 0.36552 0.3857 0.9383 0.0
H927 H 0.38189 0.40511 0.91343 0.0
H928 H 0.42064 0.40499 0.93843 0.0
H929 H 0.40437 0.38559 0.96338 0.0
H930 H 0.42551 0.43377 0.93318 0.0
H931 H 0.40657 0.38817 0.89333 0.0
H932 H 0.38683 0.36413 0.87857 0.0
H933 H 0.36801 0.38699 0.84607 0.0
H934 H 0.38753 0.41115 0.86087 0.0
H935 H 0.47853 0.47103 0.85094 0.0
H936 H 0.46213 0.45565 0.87942 0.0
H937 H 0.42353 0.45198 0.84763 0.0
H938 H 0.43989 0.46686 0.81883 0.0
H939 H 0.41805 0.42563 0.85711 0.0
H940 H 0.43744 0.47149 0.89518 0.0
H941 H 0.45688 0.49567 0.90995 0.0
H942 H 0.4744 0.47305 0.94586 0.0
H943 H 0.45521 0.44875 0.93107 0.0
C944 C 0.37751 0.38973 0.93841 0.0
C945 C 0.38365 0.38408 0.95275 0.0
C946 C 0.38685 0.40082 0.92421 0.0
C947 C 0.40247 0.40645 0.92408 0.0
C948 C 0.40862 0.40082 0.93834 0.0
C949 C 0.39929 0.38967 0.95247 0.0
C950 C 0.41238 0.41819 0.90899 0.0
C951 C 0.42402 0.43199 0.91652 0.0
C952 C 0.41013 0.41595 0.88732 0.0
C953 C 0.39841 0.40144 0.87838 0.0
C954 C 0.39814 0.38805 0.88317 0.0
C955 C 0.38701 0.37441 0.87477 0.0
C956 C 0.37615 0.37403 0.86144 0.0
C957 C 0.37642 0.38729 0.85643 0.0
C958 C 0.38752 0.40097 0.8648 0.0
C959 C 0.46661 0.4673 0.85041 0.0
C960 C 0.46042 0.47009 0.83282 0.0
C961 C 0.45723 0.45852 0.86667 0.0
C962 C 0.44155 0.45264 0.86573 0.0
C963 C 0.43555 0.4563 0.84869 0.0
C964 C 0.44489 0.46487 0.83232 0.0
C965 C 0.43125 0.4414 0.88119 0.0
C966 C 0.41954 0.42758 0.87375 0.0
C967 C 0.4334 0.4437 0.90292 0.0
C968 C 0.44496 0.4583 0.91186 0.0
C969 C 0.44552 0.47168 0.90609 0.0
C970 C 0.45648 0.48541 0.91449 0.0
C971 C 0.46689 0.4859 0.92879 0.0
C972 C 0.46634 0.47266 0.93476 0.0
C973 C 0.45541 0.4589 0.92639 0.0
H974 H 0.47537 0.49654 0.93528 0.0
H975 H 0.36754 0.36345 0.85495 0.0
H976 H 0.61982 0.02896 0.9673 0.0
H977 H 0.60197 0.02538 0.9401 0.0
H978 H 0.59926 0.98386 0.92216 0.0
H979 H 0.61734 0.98738 0.94954 0.0
H980 H 0.59996 0.0005 0.88822 0.0
H981 H 0.57177 0.98225 0.95104 0.0
H982 H 0.56588 0.98306 0.98807 0.0
H983 H 0.56091 0.02119 0.97648 0.0
H984 H 0.567 0.02074 0.93943 0.0
H985 H 0.51949 0.97977 0.85248 0.0
H986 H 0.53613 0.9809 0.8806 0.0
H987 H 0.5734 0.02004 0.85229 0.0
H988 H 0.55681 0.01883 0.82426 0.0
H989 H 0.55358 0.00064 0.90971 0.0
H990 H 0.60506 0.01769 0.85529 0.0
H991 H 0.61022 0.01478 0.81857 0.0
H992 H 0.56659 0.97501 0.81357 0.0
H993 H 0.56127 0.97752 0.85033 0.0
C994 C 0.61557 0.01909 0.95753 0.0
C995 C 0.61994 0.00837 0.96078 0.0
C996 C 0.6053 0.01705 0.94199 0.0
C997 C 0.59905 0.00422 0.92937 0.0
C998 C 0.60388 0.99381 0.93184 0.0
C999 C 0.61422 0.99584 0.94747 0.0
C1000 C 0.58721 0.00165 0.91406 0.0
C1001 C 0.58981 0.00049 0.8929 0.0
C1002 C 0.57378 0.0013 0.92023 0.0
C1003 C 0.56995 0.00152 0.94247 0.0
C1004 C 0.56952 0.99087 0.95641 0.0
C1005 C 0.56613 0.99126 0.9774 0.0
C1006 C 0.56305 0.00219 0.98463 0.0
C1007 C 0.56331 0.01273 0.97086 0.0
C1008 C 0.56671 0.01241 0.94986 0.0
C1009 C 0.53115 0.9888 0.85263 0.0
C1010 C 0.53696 0.99915 0.83623 0.0
C1011 C 0.54066 0.9894 0.86858 0.0
C1012 C 0.5561 0.00033 0.86827 0.0
C1013 C 0.56162 0.01128 0.8526 0.0
C1014 C 0.55215 0.01065 0.83668 0.0
C1015 C 0.56658 1e-05 0.88378 0.0
C1016 C 0.56371 0.00059 0.905 0.0
C1017 C 0.57961 0.99954 0.87767 0.0
C1018 C 0.58275 0.99786 0.85556 0.0
C1019 C 0.59661 0.00827 0.84639 0.0
C1020 C 0.59956 0.00669 0.82557 0.0
C1021 C 0.58876 0.99469 0.81378 0.0
C1022 C 0.57496 0.98428 0.82274 0.0
C1023 C 0.57196 0.98579 0.84357 0.0
H1024 H 0.59108 0.99348 0.79768 0.0
H1025 H 0.56043 0.00247 0.00089 0.0
H1026 H 0.62979 0.00951 0.08265 0.0
H1027 H 0.61079 0.00809 0.10711 0.0
H1028 H 0.5757 0.98141 0.06301 0.0
H1029 H 0.59457 0.98228 0.03892 0.0
H1030 H 0.59209 0.01762 0.10642 0.0
H1031 H 0.54311 0.95772 0.08752 0.0
H1032 H 0.5394 0.93343 0.07521 0.0
H1033 H 0.58271 0.94464 0.0994 0.0
H1034 H 0.5866 0.96889 0.11207 0.0
H1035 H 0.52934 0.00984 0.16224 0.0
H1036 H 0.54351 0.00826 0.13253 0.0
H1037 H 0.55018 0.97587 0.1656 0.0
H1038 H 0.5355 0.97689 0.19477 0.0
H1039 H 0.54721 0.96913 0.12648 0.0
H1040 H 0.57658 0.01409 0.1666 0.0
H1041 H 0.58226 0.03799 0.183 0.0
H1042 H 0.58175 0.05601 0.12319 0.0
H1043 H 0.57586 0.03212 0.10647 0.0
C1044 C 0.61801 0.00327 0.07825 0.0
C1045 C 0.61366 0.99591 0.05896 0.0
C1046 C 0.60716 0.00252 0.09219 0.0
C1047 C 0.59176 0.9945 0.08704 0.0
C1048 C 0.58745 0.98738 0.06758 0.0
C1049 C 0.59827 0.98793 0.05378 0.0
C1050 C 0.58027 0.99364 0.10203 0.0
C1051 C 0.58226 0.007 0.11072 0.0
C1052 C 0.56748 0.9798 0.1079 0.0
C1053 C 0.5652 0.96518 0.10052 0.0
C1054 C 0.55182 0.95497 0.09026 0.0
C1055 C 0.54969 0.94122 0.08321 0.0
C1056 C 0.56084 0.93752 0.08645 0.0
C1057 C 0.57411 0.94754 0.09682 0.0
C1058 C 0.57629 0.9613 0.10392 0.0
C1059 C 0.53346 0.00207 0.1629 0.0
C1060 C 0.53153 0.99368 0.18098 0.0
C1061 C 0.54169 0.00128 0.146 0.0
C1062 C 0.54825 0.99222 0.14703 0.0
C1063 C 0.54536 0.98304 0.16446 0.0
C1064 C 0.53705 0.98372 0.18122 0.0
C1065 C 0.55907 0.99309 0.13088 0.0
C1066 C 0.55695 0.97974 0.12195 0.0
C1067 C 0.57201 0.00689 0.12533 0.0
C1068 C 0.57561 0.02128 0.13532 0.0
C1069 C 0.57758 0.02312 0.15697 0.0
C1070 C 0.58085 0.03666 0.16632 0.0
C1071 C 0.58232 0.0485 0.15415 0.0
C1072 C 0.58057 0.04683 0.1326 0.0
C1073 C 0.57727 0.03329 0.12318 0.0
H1074 H 0.58486 0.05898 0.16141 0.0
H1075 H 0.55917 0.92688 0.08097 0.0
H1076 H 0.01913 0.61749 0.05391 0.0
H1077 H 0.01754 0.59869 0.07831 0.0
H1078 H 0.98123 0.59956 0.1109 0.0
H1079 H 0.98268 0.61837 0.08646 0.0
H1080 H 0.00283 0.59936 0.13736 0.0
H1081 H 0.97282 0.57213 0.07815 0.0
H1082 H 0.96831 0.5664 0.04074 0.0
H1083 H 0.00351 0.55565 0.03873 0.0
H1084 H 0.00841 0.56157 0.07608 0.0
H1085 H 0.97843 0.5359 0.19805 0.0
H1086 H 0.97676 0.55105 0.17026 0.0
H1087 H 0.01195 0.54892 0.13637 0.0
H1088 H 0.01352 0.53356 0.16415 0.0
H1089 H 0.99074 0.54948 0.11009 0.0
H1090 H 0.0215 0.57698 0.16787 0.0
H1091 H 0.02709 0.583 0.20504 0.0
H1092 H 0.99225 0.59415 0.20939 0.0
H1093 H 0.98618 0.58783 0.1723 0.0
C1094 C 0.01089 0.6138 0.06638 0.0
C1095 C 0.00097 0.61936 0.06819 0.0
C1096 C 0.00996 0.60301 0.08025 0.0
C1097 C 0.99913 0.59759 0.09622 0.0
C1098 C 0.98962 0.60355 0.09861 0.0
C1099 C 0.99047 0.61429 0.08464 0.0
C1100 C 0.99752 0.58545 0.1101 0.0
C1101 C -4e-05 0.58839 0.13146 0.0
C1102 C 0.99419 0.57128 0.10226 0.0
C1103 C 0.99107 0.56743 0.07988 0.0
C1104 C 0.97967 0.56864 0.06971 0.0
C1105 C 0.97704 0.56535 0.04851 0.0
C1106 C 0.98565 0.5607 0.03735 0.0
C1107 C 0.99687 0.55927 0.04739 0.0
C1108 C 0.99957 0.56259 0.06858 0.0
C1109 C 0.98547 0.53828 0.18435 0.0
C1110 C 0.9962 0.53371 0.18327 0.0
C1111 C 0.98455 0.54697 0.16854 0.0
C1112 C 0.99448 0.55139 0.1515 0.0
C1113 C 0.00424 0.54568 0.14944 0.0
C1114 C 0.0051 0.53687 0.16526 0.0
C1115 C 0.9959 0.56335 0.13737 0.0
C1116 C 0.99351 0.56042 0.116 0.0
C1117 C 0.99944 0.57762 0.14515 0.0
C1118 C 0.00327 0.58177 0.16735 0.0
C1119 C 0.01495 0.58061 0.17678 0.0
C1120 C 0.0182 0.58407 0.19783 0.0
C1121 C 0.01 0.58892 0.20957 0.0
C1122 C 0.99856 0.59036 0.20027 0.0
C1123 C 0.9952 0.58683 0.17923 0.0
H1124 H 0.01254 0.59157 0.22585 0.0
H1125 H 0.9836 0.55817 0.02094 0.0
H1126 H 0.39008 0.41525 0.04657 0.0
H1127 H 0.4092 0.42893 0.07287 0.0
H1128 H 0.40736 0.38799 0.0913 0.0
H1129 H 0.38798 0.37406 0.06499 0.0
H1130 H 0.40868 0.40482 0.12476 0.0
H1131 H 0.43594 0.41306 0.06093 0.0
H1132 H 0.44203 0.42014 0.02408 0.0
H1133 H 0.45164 0.46477 0.03813 0.0
H1134 H 0.44539 0.45789 0.07503 0.0
H1135 H 0.47459 0.43854 0.18412 0.0
H1136 H 0.45792 0.42517 0.155 0.0
H1137 H 0.45749 0.46523 0.13793 0.0
H1138 H 0.47431 0.47874 0.16717 0.0
H1139 H 0.45776 0.44867 0.10347 0.0
H1140 H 0.4299 0.44016 0.16715 0.0
H1141 H 0.42421 0.43316 0.20409 0.0
H1142 H 0.41581 0.38892 0.1902 0.0
H1143 H 0.42172 0.39574 0.15321 0.0
C1144 C 0.39364 0.40907 0.05624 0.0
C1145 C 0.38753 0.39353 0.05354 0.0
C1146 C 0.40466 0.41697 0.07123 0.0
C1147 C 0.40993 0.40955 0.08378 0.0
C1148 C 0.40352 0.39395 0.08167 0.0
C1149 C 0.39244 0.38601 0.06664 0.0
C1150 C 0.4222 0.41818 0.09897 0.0
C1151 C 0.41949 0.41426 0.12005 0.0
C1152 C 0.4362 0.43072 0.09289 0.0
C1153 C 0.44006 0.43492 0.07072 0.0
C1154 C 0.43924 0.42435 0.05614 0.0
C1155 C 0.44274 0.42833 0.03524 0.0
C1156 C 0.44719 0.44288 0.02876 0.0
C1157 C 0.44818 0.45349 0.04317 0.0
C1158 C 0.44467 0.44957 0.06408 0.0
C1159 C 0.47115 0.44457 0.17393 0.0
C1160 C 0.47558 0.45962 0.178 0.0
C1161 C 0.46161 0.43692 0.15734 0.0
C1162 C 0.45621 0.44412 0.14459 0.0
C1163 C 0.46148 0.45946 0.14768 0.0
C1164 C 0.4711 0.46717 0.16431 0.0
C1165 C 0.44421 0.43529 0.12919 0.0
C1166 C 0.44696 0.4392 0.10812 0.0
C1167 C 0.43024 0.42273 0.13526 0.0
C1168 C 0.4264 0.41851 0.15744 0.0
C1169 C 0.42694 0.42897 0.17199 0.0
C1170 C 0.42367 0.42503 0.19294 0.0
C1171 C 0.41969 0.41062 0.1995 0.0
C1172 C 0.41892 0.40009 0.1851 0.0
C1173 C 0.42222 0.40398 0.16414 0.0
H1174 H 0.41717 0.4076 0.21572 0.0
H1175 H 0.44989 0.44594 0.01257 0.0
H1176 H 0.69085 0.73977 0.3885 0.0
H1177 H 0.68785 0.75683 0.41169 0.0
H1178 H 0.64738 0.71949 0.43732 0.0
H1179 H 0.65014 0.70235 0.41378 0.0
H1180 H 0.64308 0.74234 0.42954 0.0
H1181 H 0.68078 0.73637 0.46432 0.0
H1182 H 0.70463 0.73633 0.46766 0.0
H1183 H 0.72971 0.78318 0.45223 0.0
H1184 H 0.70598 0.78344 0.44852 0.0
H1185 H 0.639 0.77539 0.52516 0.0
H1186 H 0.64014 0.76059 0.49619 0.0
H1187 H 0.67823 0.80037 0.47058 0.0
H1188 H 0.67711 0.81524 0.49968 0.0
H1189 H 0.68399 0.77749 0.47658 0.0
H1190 H 0.64554 0.78343 0.44462 0.0
H1191 H 0.62135 0.78291 0.44256 0.0
H1192 H 0.59726 0.73548 0.45424 0.0
H1193 H 0.62131 0.73575 0.45668 0.0
C1194 C 0.68137 0.73515 0.39918 0.0
C1195 C 0.67075 0.71968 0.39934 0.0
C1196 C 0.67968 0.74493 0.41246 0.0
C1197 C 0.66745 0.73944 0.42638 0.0
C1198 C 0.65689 0.72398 0.42669 0.0
C1199 C 0.65854 0.71419 0.41333 0.0
C1200 C 0.66559 0.74986 0.44042 0.0
C1201 C 0.65196 0.74991 0.44 0.0
C1202 C 0.67731 0.76001 0.4537 0.0
C1203 C 0.6916 0.75988 0.45592 0.0
C1204 C 0.69137 0.74663 0.46147 0.0
C1205 C 0.70487 0.74657 0.46346 0.0
C1206 C 0.71867 0.75973 0.4601 0.0
C1207 C 0.71901 0.77299 0.4548 0.0
C1208 C 0.70554 0.7731 0.45276 0.0
C1209 C 0.64734 0.78103 0.51303 0.0
C1210 C 0.65798 0.79644 0.51462 0.0
C1211 C 0.64798 0.77258 0.49647 0.0
C1212 C 0.65928 0.77937 0.48124 0.0
C1213 C 0.66941 0.79492 0.48218 0.0
C1214 C 0.66869 0.80342 0.49867 0.0
C1215 C 0.66147 0.76994 0.46576 0.0
C1216 C 0.67516 0.77003 0.46597 0.0
C1217 C 0.64975 0.75984 0.45246 0.0
C1218 C 0.63525 0.75963 0.451 0.0
C1219 C 0.63509 0.77291 0.44693 0.0
C1220 C 0.6214 0.77265 0.44565 0.0
C1221 C 0.60778 0.75918 0.44831 0.0
C1222 C 0.60782 0.74592 0.4522 0.0
C1223 C 0.62148 0.74611 0.45351 0.0
H1224 H 0.59719 0.75901 0.44732 0.0
H1225 H 0.72911 0.75967 0.46166 0.0
H1226 H 0.29458 0.94753 0.39109 0.0
H1227 H 0.28279 0.92871 0.41864 0.0
H1228 H 0.23922 0.92217 0.40235 0.0
H1229 H 0.25085 0.94103 0.37521 0.0
H1230 H 0.24252 0.92379 0.4431 0.0
H1231 H 0.2505 0.8972 0.38741 0.0
H1232 H 0.26555 0.89276 0.36142 0.0
H1233 H 0.29265 0.89032 0.41003 0.0
H1234 H 0.27788 0.89494 0.4363 0.0
H1235 H 0.19374 0.85755 0.495 0.0
H1236 H 0.2072 0.87297 0.46482 0.0
H1237 H 0.24943 0.88129 0.49038 0.0
H1238 H 0.236 0.86574 0.52058 0.0
H1239 H 0.24794 0.87879 0.44585 0.0
H1240 H 0.2399 0.90531 0.50137 0.0
H1241 H 0.22452 0.9092 0.5274 0.0
H1242 H 0.19748 0.91174 0.47877 0.0
H1243 H 0.21255 0.90757 0.45245 0.0
C1244 C 0.2825 0.94214 0.39346 0.0
C1245 C 0.27368 0.9458 0.38089 0.0
C1246 C 0.27577 0.93132 0.40912 0.0
C1247 C 0.26009 0.92388 0.41239 0.0
C1248 C 0.25133 0.92773 0.40011 0.0
C1249 C 0.25803 0.93853 0.38455 0.0
C1250 C 0.25266 0.91217 0.42865 0.0
C1251 C 0.24359 0.91388 0.44351 0.0
C1252 C 0.25433 0.8994 0.42956 0.0
C1253 C 0.26319 0.89658 0.41379 0.0
C1254 C 0.25975 0.89584 0.39254 0.0
C1255 C 0.26821 0.89327 0.37776 0.0
C1256 C 0.28007 0.89131 0.38406 0.0
C1257 C 0.28347 0.89187 0.40516 0.0
C1258 C 0.27505 0.89445 0.42001 0.0
C1259 C 0.20582 0.86221 0.49384 0.0
C1260 C 0.21384 0.86057 0.51022 0.0
C1261 C 0.21351 0.8711 0.47667 0.0
C1262 C 0.22932 0.87845 0.47558 0.0
C1263 C 0.23723 0.87575 0.49099 0.0
C1264 C 0.22956 0.86693 0.50824 0.0
C1265 C 0.23763 0.89034 0.45988 0.0
C1266 C 0.2469 0.88871 0.44532 0.0
C1267 C 0.23618 0.90322 0.45919 0.0
C1268 C 0.22726 0.90598 0.47495 0.0
C1269 C 0.2306 0.90658 0.49623 0.0
C1270 C 0.22195 0.90885 0.51104 0.0
C1271 C 0.21001 0.91068 0.50474 0.0
C1272 C 0.20672 0.91029 0.48362 0.0
C1273 C 0.21532 0.90798 0.46875 0.0
H1274 H 0.20332 0.91244 0.51623 0.0
H1275 H 0.28661 0.88931 0.3726 0.0
H1276 H 0.05914 0.35616 0.3986 0.0
H1277 H 0.07886 0.36293 0.42476 0.0
H1278 H 0.07904 0.32211 0.41145 0.0
H1279 H 0.05965 0.31538 0.38531 0.0
H1280 H 0.07988 0.3499 0.45976 0.0
H1281 H 0.11375 0.32736 0.41462 0.0
H1282 H 0.12024 0.3252 0.3783 0.0
H1283 H 0.11416 0.3618 0.3608 0.0
H1284 H 0.10786 0.36434 0.39706 0.0
H1285 H 0.11613 0.32485 0.52437 0.0
H1286 H 0.10234 0.32788 0.496 0.0
H1287 H 0.14306 0.36728 0.47525 0.0
H1288 H 0.15703 0.36447 0.50422 0.0
H1289 H 0.12597 0.34788 0.44278 0.0
H1290 H 0.11866 0.37316 0.4988 0.0
H1291 H 0.11281 0.37785 0.53429 0.0
H1292 H 0.06784 0.34008 0.52917 0.0
H1293 H 0.07348 0.335 0.49377 0.0
C1294 C 0.06334 0.3486 0.40132 0.0
C1295 C 0.05785 0.33526 0.38975 0.0
C1296 C 0.07464 0.35251 0.41623 0.0
C1297 C 0.08067 0.34319 0.41975 0.0
C1298 C 0.07486 0.32968 0.40865 0.0
C1299 C 0.06366 0.32579 0.39378 0.0
C1300 C 0.09272 0.34718 0.43538 0.0
C1301 C 0.09 0.34958 0.45602 0.0
C1302 C 0.1062 0.34726 0.43038 0.0
C1303 C 0.11025 0.34597 0.40858 0.0
C1304 C 0.1139 0.33501 0.40306 0.0
C1305 C 0.11752 0.33371 0.38247 0.0
C1306 C 0.11758 0.34333 0.36725 0.0
C1307 C 0.11407 0.35432 0.3726 0.0
C1308 C 0.11045 0.35569 0.39317 0.0
C1309 C 0.12218 0.33421 0.51383 0.0
C1310 C 0.13761 0.34459 0.51674 0.0
C1311 C 0.11427 0.33593 0.49765 0.0
C1312 C 0.12159 0.348 0.48384 0.0
C1313 C 0.13718 0.35799 0.48593 0.0
C1314 C 0.14515 0.35632 0.50235 0.0
C1315 C 0.11269 0.3498 0.46725 0.0
C1316 C 0.11597 0.34847 0.44644 0.0
C1317 C 0.09987 0.35099 0.47203 0.0
C1318 C 0.09652 0.35368 0.49361 0.0
C1319 C 0.10756 0.36577 0.5053 0.0
C1320 C 0.10427 0.36853 0.52538 0.0
C1321 C 0.08993 0.35933 0.53392 0.0
C1322 C 0.0789 0.34727 0.52246 0.0
C1323 C 0.08215 0.34444 0.50239 0.0
H1324 H 0.08741 0.36147 0.54948 0.0
H1325 H 0.12037 0.34229 0.35131 0.0
H1326 H 0.07371 0.35598 0.29918 0.0
H1327 H 0.09017 0.35174 0.27616 0.0
H1328 H 0.0516 0.31129 0.25304 0.0
H1329 H 0.0351 0.31527 0.27642 0.0
H1330 H 0.07403 0.30642 0.26095 0.0
H1331 H 0.06886 0.34375 0.22416 0.0
H1332 H 0.06961 0.36777 0.21943 0.0
H1333 H 0.11698 0.39191 0.2331 0.0
H1334 H 0.11648 0.36802 0.23818 0.0
H1335 H 0.10412 0.29901 0.16414 0.0
H1336 H 0.09026 0.30122 0.19369 0.0
H1337 H 0.13162 0.3382 0.21762 0.0
H1338 H 0.14555 0.33599 0.18803 0.0
H1339 H 0.10924 0.34514 0.21131 0.0
H1340 H 0.11419 0.30672 0.24482 0.0
H1341 H 0.11269 0.28224 0.2479 0.0
H1342 H 0.06479 0.25955 0.23842 0.0
H1343 H 0.06603 0.2839 0.23497 0.0
C1344 C 0.06871 0.34624 0.28907 0.0
C1345 C 0.0531 0.33598 0.28957 0.0
C1346 C 0.07813 0.34384 0.2759 0.0
C1347 C 0.07211 0.33125 0.26276 0.0
C1348 C 0.0565 0.32106 0.26309 0.0
C1349 C 0.04707 0.3234 0.27635 0.0
C1350 C 0.08209 0.32862 0.24881 0.0
C1351 C 0.08162 0.31482 0.24994 0.0
C1352 C 0.09225 0.33972 0.23479 0.0
C1353 C 0.09259 0.3541 0.23178 0.0
C1354 C 0.07941 0.35418 0.22633 0.0
C1355 C 0.07979 0.36777 0.22355 0.0
C1356 C 0.09332 0.38136 0.22603 0.0
C1357 C 0.10651 0.38138 0.23123 0.0
C1358 C 0.10618 0.36782 0.23404 0.0
C1359 C 0.11029 0.30732 0.17604 0.0
C1360 C 0.12587 0.31735 0.17385 0.0
C1361 C 0.10239 0.30856 0.19291 0.0
C1362 C 0.10992 0.3199 0.2078 0.0
C1363 C 0.12563 0.32937 0.20628 0.0
C1364 C 0.13357 0.32803 0.1895 0.0
C1365 C 0.10113 0.32293 0.22339 0.0
C1366 C 0.10178 0.3368 0.2225 0.0
C1367 C 0.09102 0.31183 0.2374 0.0
C1368 C 0.09023 0.29715 0.23946 0.0
C1369 C 0.10335 0.29651 0.2432 0.0
C1370 C 0.10254 0.28266 0.24506 0.0
C1371 C 0.08866 0.26935 0.24331 0.0
C1372 C 0.07555 0.26987 0.23975 0.0
C1373 C 0.07629 0.2837 0.23787 0.0
H1374 H 0.08806 0.25864 0.24476 0.0
H1375 H 0.0936 0.39187 0.22387 0.0
H1376 H 0.66637 0.74009 0.32154 0.0
H1377 H 0.66996 0.75782 0.29414 0.0
H1378 H 0.6744 0.72931 0.2489 0.0
H1379 H 0.67167 0.71188 0.27676 0.0
H1380 H 0.69223 0.75671 0.2381 0.0
H1381 H 0.64026 0.72941 0.25723 0.0
H1382 H 0.61818 0.71891 0.28069 0.0
H1383 H 0.62951 0.76338 0.29909 0.0
H1384 H 0.65178 0.77415 0.27593 0.0
H1385 H 0.65762 0.77881 0.156 0.0
H1386 H 0.65795 0.76426 0.18562 0.0
H1387 H 0.68887 0.80518 0.21749 0.0
H1388 H 0.68937 0.81986 0.18719 0.0
H1389 H 0.65387 0.77224 0.23448 0.0
H1390 H 0.70862 0.79804 0.21429 0.0
H1391 H 0.72812 0.8056 0.18703 0.0
H1392 H 0.70791 0.75982 0.16663 0.0
H1393 H 0.68805 0.75209 0.19344 0.0
C1394 C 0.66827 0.73768 0.30576 0.0
C1395 C 0.66857 0.72454 0.30119 0.0
C1396 C 0.67022 0.74778 0.29008 0.0
C1397 C 0.67196 0.74472 0.26929 0.0
C1398 C 0.67294 0.73189 0.26478 0.0
C1399 C 0.67138 0.72193 0.28066 0.0
C1400 C 0.67222 0.75465 0.25236 0.0
C1401 C 0.68381 0.76006 0.23741 0.0
C1402 C 0.66119 0.75901 0.25113 0.0
C1403 C 0.64776 0.75258 0.265 0.0
C1404 C 0.6381 0.73695 0.26639 0.0
C1405 C 0.62554 0.73095 0.27961 0.0
C1406 C 0.62247 0.74047 0.29141 0.0
C1407 C 0.63192 0.75602 0.28996 0.0
C1408 C 0.6445 0.76208 0.27678 0.0
C1409 C 0.66465 0.78471 0.16919 0.0
C1410 C 0.67376 0.80046 0.16903 0.0
C1411 C 0.66474 0.77639 0.18614 0.0
C1412 C 0.67371 0.78365 0.20347 0.0
C1413 C 0.68212 0.7994 0.20401 0.0
C1414 C 0.68224 0.80776 0.18683 0.0
C1415 C 0.67409 0.77458 0.22091 0.0
C1416 C 0.66243 0.7691 0.23563 0.0
C1417 C 0.68481 0.76988 0.22163 0.0
C1418 C 0.69674 0.77455 0.20561 0.0
C1419 C 0.70821 0.78964 0.20378 0.0
C1420 C 0.71934 0.79394 0.18844 0.0
C1421 C 0.7192 0.78321 0.17502 0.0
C1422 C 0.70797 0.76814 0.17697 0.0
C1423 C 0.69676 0.76379 0.19221 0.0
H1424 H 0.72783 0.78656 0.16317 0.0
H1425 H 0.61274 0.7358 0.30164 0.0
H1426 H 0.27694 0.92946 0.29015 0.0
H1427 H 0.25671 0.91295 0.26653 0.0
H1428 H 0.25549 0.95107 0.24195 0.0
H1429 H 0.27551 0.96764 0.26596 0.0
H1430 H 0.22763 0.92845 0.24845 0.0
H1431 H 0.27203 0.93415 0.21484 0.0
H1432 H 0.29571 0.93365 0.21219 0.0
H1433 H 0.2717 0.88654 0.22611 0.0
H1434 H 0.24791 0.8868 0.2291 0.0
H1435 H 0.19175 0.89749 0.15133 0.0
H1436 H 0.20719 0.91158 0.18112 0.0
H1437 H 0.20426 0.87126 0.20499 0.0
H1438 H 0.18896 0.85716 0.17503 0.0
H1439 H 0.23319 0.89379 0.20061 0.0
H1440 H 0.18816 0.88811 0.23132 0.0
H1441 H 0.16473 0.8891 0.23286 0.0
H1442 H 0.19009 0.93674 0.22305 0.0
H1443 H 0.21366 0.936 0.22115 0.0
C1444 C 0.27244 0.93436 0.27963 0.0
C1445 C 0.27788 0.94988 0.27987 0.0
C1446 C 0.26088 0.9249 0.2661 0.0
C1447 C 0.25465 0.93077 0.2523 0.0
C1448 C 0.2601 0.94628 0.25246 0.0
C1449 C 0.2716 0.95574 0.2661 0.0
C1450 C 0.24244 0.92074 0.23776 0.0
C1451 C 0.2289 0.92099 0.23782 0.0
C1452 C 0.24393 0.91072 0.22424 0.0
C1453 C 0.25822 0.91053 0.22241 0.0
C1454 C 0.27183 0.92371 0.2175 0.0
C1455 C 0.28526 0.92346 0.2159 0.0
C1456 C 0.28522 0.91008 0.21904 0.0
C1457 C 0.27173 0.8969 0.22372 0.0
C1458 C 0.25826 0.89709 0.22535 0.0
C1459 C 0.19407 0.89156 0.16323 0.0
C1460 C 0.18921 0.87624 0.16083 0.0
C1461 C 0.20286 0.89961 0.18028 0.0
C1462 C 0.20692 0.89248 0.19527 0.0
C1463 C 0.20127 0.87698 0.19359 0.0
C1464 C 0.19241 0.8689 0.17658 0.0
C1465 C 0.21839 0.90152 0.21124 0.0
C1466 C 0.23184 0.90114 0.21138 0.0
C1467 C 0.21684 0.91148 0.22478 0.0
C1468 C 0.20268 0.91197 0.22592 0.0
C1469 C 0.18874 0.89878 0.22931 0.0
C1470 C 0.17543 0.8993 0.23029 0.0
C1471 C 0.17592 0.91297 0.22801 0.0
C1472 C 0.18972 0.92615 0.22479 0.0
C1473 C 0.20307 0.92569 0.22379 0.0
H1474 H 0.1656 0.91335 0.22877 0.0
H1475 H 0.29563 0.90992 0.2178 0.0
H1476 H 0.65034 0.9211 0.30131 0.0
H1477 H 0.65809 0.90918 0.27527 0.0
H1478 H 0.69095 0.95256 0.25107 0.0
H1479 H 0.68328 0.96474 0.2773 0.0
H1480 H 0.67423 0.93084 0.21997 0.0
H1481 H 0.70337 0.93568 0.28032 0.0
H1482 H 0.70745 0.93345 0.31754 0.0
H1483 H 0.67878 0.88559 0.31387 0.0
H1484 H 0.67434 0.88755 0.27667 0.0
H1485 H 0.70413 0.8982 0.15503 0.0
H1486 H 0.70516 0.91424 0.18383 0.0
H1487 H 0.67267 0.87509 0.21786 0.0
H1488 H 0.67184 0.859 0.18921 0.0
H1489 H 0.69253 0.8973 0.244 0.0
H1490 H 0.66094 0.89231 0.18581 0.0
H1491 H 0.65624 0.89352 0.14851 0.0
H1492 H 0.68836 0.94081 0.14824 0.0
H1493 H 0.69349 0.93981 0.18549 0.0
C1494 C 0.65915 0.92818 0.2904 0.0
C1495 C 0.66624 0.94392 0.29151 0.0
C1496 C 0.66361 0.92131 0.27557 0.0
C1497 C 0.67524 0.92999 0.26146 0.0
C1498 C 0.682 0.94567 0.26192 0.0
C1499 C 0.6776 0.9526 0.27691 0.0
C1500 C 0.68036 0.92251 0.24652 0.0
C1501 C 0.67854 0.92376 0.22518 0.0
C1502 C 0.68568 0.91302 0.25339 0.0
C1503 C 0.68844 0.91178 0.27573 0.0
C1504 C 0.69785 0.92469 0.28748 0.0
C1505 C 0.70024 0.92347 0.30857 0.0
C1506 C 0.69336 0.90939 0.31807 0.0
C1507 C 0.6841 0.89649 0.30648 0.0
C1508 C 0.68165 0.89765 0.28539 0.0
C1509 C 0.69764 0.89302 0.169 0.0
C1510 C 0.6878 0.87741 0.16989 0.0
C1511 C 0.69817 0.90217 0.18537 0.0
C1512 C 0.68869 0.89587 0.20273 0.0
C1513 C 0.68002 0.88018 0.20455 0.0
C1514 C 0.67959 0.87099 0.18822 0.0
C1515 C 0.68626 0.90552 0.21748 0.0
C1516 C 0.68849 0.9046 0.23878 0.0
C1517 C 0.68118 0.91521 0.21058 0.0
C1518 C 0.67772 0.91596 0.18838 0.0
C1519 C 0.66705 0.90296 0.17778 0.0
C1520 C 0.66432 0.9036 0.15665 0.0
C1521 C 0.67203 0.91722 0.14601 0.0
C1522 C 0.68243 0.93026 0.1565 0.0
C1523 C 0.68526 0.92966 0.17763 0.0
H1524 H 0.66991 0.91768 0.12964 0.0
H1525 H 0.69522 0.90847 0.33441 0.0
H1526 H 0.04208 0.72913 0.27851 0.0
H1527 H 0.05949 0.74672 0.25269 0.0
H1528 H 0.08385 0.72283 0.25152 0.0
H1529 H 0.067 0.70585 0.27846 0.0
H1530 H 0.10314 0.75022 0.25084 0.0
H1531 H 0.05846 0.72076 0.21108 0.0
H1532 H 0.03147 0.70864 0.20224 0.0
H1533 H 0.0349 0.75174 0.1993 0.0
H1534 H 0.06187 0.76411 0.20838 0.0
H1535 H 0.13328 0.77843 0.14609 0.0
H1536 H 0.11898 0.76217 0.17545 0.0
H1537 H 0.11283 0.79742 0.20065 0.0
H1538 H 0.12747 0.81385 0.17164 0.0
H1539 H 0.08507 0.76471 0.18879 0.0
H1540 H 0.13121 0.7933 0.22888 0.0
H1541 H 0.15837 0.80368 0.235 0.0
H1542 H 0.1519 0.75927 0.23352 0.0
H1543 H 0.12471 0.74865 0.22705 0.0
C1544 C 0.05108 0.72758 0.27258 0.0
C1545 C 0.05317 0.7161 0.28033 0.0
C1546 C 0.061 0.7376 0.25774 0.0
C1547 C 0.07288 0.73599 0.24977 0.0
C1548 C 0.07482 0.72436 0.25738 0.0
C1549 C 0.06515 0.71461 0.27267 0.0
C1550 C 0.08349 0.74666 0.23396 0.0
C1551 C 0.09911 0.7532 0.23717 0.0
C1552 C 0.07837 0.75075 0.21611 0.0
C1553 C 0.06215 0.74335 0.2106 0.0
C1554 C 0.05343 0.72765 0.20869 0.0
C1555 C 0.03814 0.72073 0.20361 0.0
C1556 C 0.03146 0.72941 0.20026 0.0
C1557 C 0.04008 0.74503 0.20192 0.0
C1558 C 0.05537 0.752 0.20701 0.0
C1559 C 0.12922 0.7828 0.15824 0.0
C1560 C 0.13151 0.79737 0.1568 0.0
C1561 C 0.12107 0.77354 0.17491 0.0
C1562 C 0.11491 0.77866 0.19011 0.0
C1563 C 0.1176 0.79336 0.18907 0.0
C1564 C 0.12602 0.80273 0.17263 0.0
C1565 C 0.10447 0.76818 0.20592 0.0
C1566 C 0.08895 0.76166 0.20256 0.0
C1567 C 0.10965 0.76383 0.22328 0.0
C1568 C 0.12597 0.77021 0.22723 0.0
C1569 C 0.13561 0.78577 0.22962 0.0
C1570 C 0.151 0.79169 0.23321 0.0
C1571 C 0.15687 0.78214 0.23458 0.0
C1572 C 0.14734 0.76665 0.23242 0.0
C1573 C 0.13194 0.76068 0.22881 0.0
H1574 H 0.16879 0.78675 0.23737 0.0
H1575 H 0.01962 0.72403 0.19634 0.0
H1576 H 0.27686 0.31431 0.29201 0.0
H1577 H 0.25834 0.31057 0.26535 0.0
H1578 H 0.2761 0.35838 0.26325 0.0
H1579 H 0.29404 0.36203 0.29052 0.0
H1580 H 0.24752 0.34547 0.26498 0.0
H1581 H 0.28162 0.33711 0.22314 0.0
H1582 H 0.29641 0.3252 0.21368 0.0
H1583 H 0.25574 0.28218 0.21068 0.0
H1584 H 0.24073 0.29382 0.22037 0.0
H1585 H 0.21226 0.34867 0.17122 0.0
H1586 H 0.22958 0.35117 0.19914 0.0
H1587 H 0.20794 0.30293 0.20284 0.0
H1588 H 0.1909 0.30052 0.17461 0.0
H1589 H 0.23756 0.31512 0.20088 0.0
H1590 H 0.20351 0.32411 0.24144 0.0
H1591 H 0.18903 0.33647 0.25015 0.0
H1592 H 0.23017 0.37897 0.25475 0.0
H1593 H 0.24489 0.3669 0.24579 0.0
C1594 C 0.27695 0.32402 0.28558 0.0
C1595 C 0.28689 0.33846 0.29333 0.0
C1596 C 0.26637 0.32189 0.2703 0.0
C1597 C 0.26582 0.33421 0.26211 0.0
C1598 C 0.27617 0.34867 0.26936 0.0
C1599 C 0.28649 0.35076 0.28488 0.0
C1600 C 0.25407 0.33211 0.24679 0.0
C1601 C 0.24552 0.339 0.25082 0.0
C1602 C 0.25106 0.32331 0.22856 0.0
C1603 C 0.26007 0.31632 0.22269 0.0
C1604 C 0.27585 0.3251 0.22061 0.0
C1605 C 0.28426 0.3184 0.21518 0.0
C1606 C 0.27702 0.30294 0.21163 0.0
C1607 C 0.26134 0.29415 0.21346 0.0
C1608 C 0.25287 0.30079 0.2189 0.0
C1609 C 0.21101 0.33865 0.17845 0.0
C1610 C 0.20015 0.32441 0.17118 0.0
C1611 C 0.2209 0.34006 0.19433 0.0
C1612 C 0.22 0.32722 0.20325 0.0
C1613 C 0.20885 0.31298 0.19625 0.0
C1614 C 0.19904 0.31159 0.18031 0.0
C1615 C 0.23119 0.32863 0.21899 0.0
C1616 C 0.23959 0.32158 0.21506 0.0
C1617 C 0.23413 0.33736 0.23723 0.0
C1618 C 0.22529 0.34461 0.24277 0.0
C1619 C 0.20946 0.33611 0.24417 0.0
C1620 C 0.20121 0.34306 0.24917 0.0
C1621 C 0.20867 0.3585 0.25296 0.0
C1622 C 0.2244 0.36701 0.2518 0.0
C1623 C 0.23271 0.36012 0.24678 0.0
H1624 H 0.20226 0.36386 0.25683 0.0
H1625 H 0.28356 0.29777 0.20743 0.0
H1626 H 0.26509 0.309 0.38328 0.0
H1627 H 0.24708 0.30976 0.40751 0.0
H1628 H 0.28262 0.35133 0.4331 0.0
H1629 H 0.30074 0.35054 0.40909 0.0
H1630 H 0.26568 0.33325 0.46326 0.0
H1631 H 0.25686 0.35098 0.39959 0.0
H1632 H 0.25147 0.35031 0.36217 0.0
H1633 H 0.20877 0.30988 0.37092 0.0
H1634 H 0.21401 0.31019 0.40836 0.0
H1635 H 0.20549 0.35259 0.49537 0.0
H1636 H 0.22034 0.3504 0.46693 0.0
H1637 H 0.21749 0.31176 0.49683 0.0
H1638 H 0.2029 0.3141 0.52528 0.0
H1639 H 0.21853 0.33002 0.43833 0.0
H1640 H 0.25231 0.3155 0.49611 0.0
H1641 H 0.25961 0.31917 0.53309 0.0
H1642 H 0.2549 0.3581 0.53559 0.0
H1643 H 0.24786 0.35483 0.49855 0.0
C1644 C 0.26909 0.31828 0.39412 0.0
C1645 C 0.28435 0.32973 0.39423 0.0
C1646 C 0.25876 0.31874 0.40788 0.0
C1647 C 0.26345 0.33071 0.42194 0.0
C1648 C 0.27873 0.342 0.42236 0.0
C1649 C 0.28908 0.34154 0.40861 0.0
C1650 C 0.25245 0.33138 0.43638 0.0
C1651 C 0.25536 0.3325 0.45778 0.0
C1652 C 0.23912 0.33071 0.42924 0.0
C1653 C 0.23589 0.33053 0.40675 0.0
C1654 C 0.24637 0.34188 0.39351 0.0
C1655 C 0.24333 0.34158 0.3723 0.0
C1656 C 0.2298 0.33004 0.36417 0.0
C1657 C 0.21926 0.3188 0.37724 0.0
C1658 C 0.22225 0.31904 0.39846 0.0
C1659 C 0.20766 0.34337 0.49545 0.0
C1660 C 0.20319 0.33357 0.51247 0.0
C1661 C 0.21617 0.34215 0.47928 0.0
C1662 C 0.2203 0.33112 0.48001 0.0
C1663 C 0.21467 0.32053 0.49614 0.0
C1664 C 0.20629 0.32181 0.51231 0.0
C1665 C 0.23163 0.33152 0.46518 0.0
C1666 C 0.22881 0.33066 0.44375 0.0
C1667 C 0.24524 0.33277 0.47225 0.0
C1668 C 0.24944 0.33484 0.49457 0.0
C1669 C 0.25288 0.32487 0.50453 0.0
C1670 C 0.25699 0.32689 0.52549 0.0
C1671 C 0.25777 0.33889 0.53664 0.0
C1672 C 0.25433 0.34883 0.52691 0.0
C1673 C 0.25026 0.34689 0.50593 0.0
H1674 H 0.26109 0.34051 0.5528 0.0
H1675 H 0.22747 0.32983 0.34774 0.0
H1676 H 0.64966 0.94758 0.40629 0.0
H1677 H 0.64914 0.92999 0.43203 0.0
H1678 H 0.69212 0.93778 0.4095 0.0
H1679 H 0.69262 0.95524 0.38353 0.0
H1680 H 0.67274 0.90825 0.41524 0.0
H1681 H 0.68977 0.95319 0.45506 0.0
H1682 H 0.6891 0.97515 0.46878 0.0
H1683 H 0.64623 0.94606 0.49767 0.0
H1684 H 0.64654 0.92392 0.48388 0.0
H1685 H 0.68522 0.87351 0.50464 0.0
H1686 H 0.68705 0.88987 0.47575 0.0
H1687 H 0.64444 0.88514 0.49418 0.0
H1688 H 0.64269 0.86903 0.52298 0.0
H1689 H 0.66546 0.9139 0.49031 0.0
H1690 H 0.64821 0.86891 0.44968 0.0
H1691 H 0.64902 0.84702 0.43598 0.0
H1692 H 0.69254 0.87624 0.40884 0.0
H1693 H 0.69208 0.8983 0.42265 0.0
C1694 C 0.65905 0.94563 0.4069 0.0
C1695 C 0.6712 0.95285 0.39292 0.0
C1696 C 0.65875 0.93558 0.42164 0.0
C1697 C 0.67065 0.93265 0.42281 0.0
C1698 C 0.68281 0.93985 0.40887 0.0
C1699 C 0.68311 0.94989 0.39411 0.0
C1700 C 0.67034 0.92198 0.43848 0.0
C1701 C 0.67136 0.90959 0.4317 0.0
C1702 C 0.66832 0.9236 0.45992 0.0
C1703 C 0.66812 0.9369 0.46827 0.0
C1704 C 0.68014 0.95148 0.4642 0.0
C1705 C 0.67984 0.96396 0.47202 0.0
C1706 C 0.66761 0.962 0.48405 0.0
C1707 C 0.65568 0.94756 0.48833 0.0
C1708 C 0.65592 0.93504 0.48053 0.0
C1709 C 0.67612 0.87573 0.50216 0.0
C1710 C 0.66387 0.87012 0.51606 0.0
C1711 C 0.67718 0.88508 0.48571 0.0
C1712 C 0.6659 0.8888 0.48286 0.0
C1713 C 0.65333 0.88255 0.49617 0.0
C1714 C 0.65232 0.87332 0.51256 0.0
C1715 C 0.66755 0.89998 0.46706 0.0
C1716 C 0.66686 0.91255 0.47386 0.0
C1717 C 0.66989 0.8985 0.44569 0.0
C1718 C 0.67018 0.88525 0.43741 0.0
C1719 C 0.65801 0.87066 0.44096 0.0
C1720 C 0.6584 0.85822 0.43314 0.0
C1721 C 0.67084 0.86023 0.4216 0.0
C1722 C 0.68292 0.87469 0.41782 0.0
C1723 C 0.6826 0.88717 0.42562 0.0
H1724 H 0.67111 0.85059 0.41556 0.0
H1725 H 0.6674 0.97168 0.49009 0.0
H1726 H 0.06414 0.75266 0.36634 0.0
H1727 H 0.08186 0.76746 0.39352 0.0
H1728 H 0.07037 0.72697 0.42708 0.0
H1729 H 0.05279 0.71193 0.39942 0.0
H1730 H 0.0785 0.77165 0.43196 0.0
H1731 H 0.10065 0.73225 0.45536 0.0
H1732 H 0.10499 0.71299 0.43946 0.0
H1733 H 0.10966 0.73287 0.37938 0.0
H1734 H 0.10555 0.75236 0.39496 0.0
H1735 H 0.11479 0.79255 0.52908 0.0
H1736 H 0.09917 0.77975 0.49899 0.0
H1737 H 0.13902 0.7906 0.46315 0.0
H1738 H 0.15476 0.80296 0.49366 0.0
H1739 H 0.11828 0.76211 0.45749 0.0
H1740 H 0.11889 0.80842 0.45447 0.0
H1741 H 0.11643 0.8295 0.46769 0.0
H1742 H 0.06968 0.79922 0.4818 0.0
H1743 H 0.07191 0.77792 0.46891 0.0
C1744 C 0.06533 0.74683 0.37948 0.0
C1745 C 0.05701 0.73106 0.38066 0.0
C1746 C 0.07549 0.75536 0.39506 0.0
C1747 C 0.07758 0.74838 0.41232 0.0
C1748 C 0.06916 0.73263 0.41374 0.0
C1749 C 0.05905 0.72403 0.39798 0.0
C1750 C 0.08842 0.75772 0.42882 0.0
C1751 C 0.08718 0.76954 0.43752 0.0
C1752 C 0.10001 0.75524 0.43582 0.0
C1753 C 0.10264 0.74366 0.42632 0.0
C1754 C 0.10266 0.73254 0.43877 0.0
C1755 C 0.10506 0.72158 0.42981 0.0
C1756 C 0.10755 0.72168 0.40841 0.0
C1757 C 0.10768 0.73277 0.39594 0.0
C1758 C 0.10529 0.74376 0.40483 0.0
C1759 C 0.12026 0.79226 0.51478 0.0
C1760 C 0.13602 0.79869 0.5138 0.0
C1761 C 0.11131 0.78503 0.49752 0.0
C1762 C 0.1179 0.78426 0.47874 0.0
C1763 C 0.13368 0.79103 0.47749 0.0
C1764 C 0.14267 0.79824 0.49485 0.0
C1765 C 0.1082 0.77589 0.46075 0.0
C1766 C 0.10961 0.76424 0.45184 0.0
C1767 C 0.09702 0.77877 0.45316 0.0
C1768 C 0.09561 0.79155 0.46087 0.0
C1769 C 0.10811 0.80624 0.46053 0.0
C1770 C 0.10675 0.81823 0.46794 0.0
C1771 C 0.09291 0.81569 0.47562 0.0
C1772 C 0.0804 0.80116 0.47586 0.0
C1773 C 0.0817 0.78913 0.46848 0.0
H1774 H 0.09189 0.82499 0.48136 0.0
H1775 H 0.1094 0.71318 0.40151 0.0
H1776 H 0.31078 0.03724 0.74042 0.0
H1777 H 0.30742 0.0539 0.76418 0.0
H1778 H 0.35422 0.08784 0.75604 0.0
H1779 H 0.35768 0.07126 0.7323 0.0
H1780 H 0.34517 0.08472 0.79695 0.0
H1781 H 0.32792 0.09081 0.7305 0.0
H1782 H 0.31274 0.0822 0.6985 0.0
H1783 H 0.27202 0.06379 0.73475 0.0
H1784 H 0.28696 0.07209 0.76702 0.0
H1785 H 0.34412 0.14738 0.83655 0.0
H1786 H 0.34449 0.13154 0.80833 0.0
H1787 H 0.30066 0.0957 0.82746 0.0
H1788 H 0.30044 0.1114 0.85605 0.0
H1789 H 0.30757 0.09981 0.78073 0.0
H1790 H 0.32458 0.09225 0.84697 0.0
H1791 H 0.33954 0.10106 0.87915 0.0
H1792 H 0.38047 0.12203 0.84317 0.0
H1793 H 0.3657 0.1136 0.81074 0.0
C1794 C 0.32039 0.0482 0.74384 0.0
C1795 C 0.33449 0.05296 0.73443 0.0
C1796 C 0.31843 0.05773 0.75731 0.0
C1797 C 0.33053 0.07217 0.76166 0.0
C1798 C 0.34473 0.07676 0.75284 0.0
C1799 C 0.34667 0.06728 0.73926 0.0
C1800 C 0.32835 0.0826 0.77518 0.0
C1801 C 0.33707 0.08813 0.79325 0.0
C1802 C 0.31757 0.08684 0.77057 0.0
C1803 C 0.30856 0.08193 0.75119 0.0
C1804 C 0.31572 0.08482 0.73166 0.0
C1805 C 0.30717 0.08001 0.71347 0.0
C1806 C 0.29142 0.07242 0.71459 0.0
C1807 C 0.28421 0.06965 0.73391 0.0
C1808 C 0.29272 0.07441 0.75216 0.0
C1809 C 0.33433 0.13634 0.83419 0.0
C1810 C 0.32223 0.13058 0.84833 0.0
C1811 C 0.33458 0.12729 0.81818 0.0
C1812 C 0.32264 0.11245 0.81596 0.0
C1813 C 0.30993 0.10715 0.8289 0.0
C1814 C 0.3098 0.1161 0.84516 0.0
C1815 C 0.32444 0.10191 0.80229 0.0
C1816 C 0.31565 0.09636 0.78432 0.0
C1817 C 0.33511 0.09758 0.80698 0.0
C1818 C 0.34404 0.10246 0.82643 0.0
C1819 C 0.33676 0.09887 0.84592 0.0
C1820 C 0.3452 0.10377 0.8642 0.0
C1821 C 0.36094 0.11214 0.8632 0.0
C1822 C 0.36827 0.11558 0.84391 0.0
C1823 C 0.35987 0.11074 0.82558 0.0
H1824 H 0.36747 0.11592 0.87737 0.0
H1825 H 0.28482 0.0687 0.70049 0.0
H1826 H 0.96482 0.27718 0.72621 0.0
H1827 H 0.95316 0.25831 0.75373 0.0
H1828 H 0.90992 0.25356 0.74023 0.0
H1829 H 0.92132 0.27207 0.71263 0.0
H1830 H 0.93937 0.25754 0.78846 0.0
H1831 H 0.88175 0.21851 0.74766 0.0
H1832 H 0.87227 0.20978 0.71221 0.0
H1833 H 0.91602 0.21831 0.69317 0.0
H1834 H 0.9257 0.22689 0.72857 0.0
H1835 H 0.88027 0.22068 0.85848 0.0
H1836 H 0.89634 0.23424 0.82905 0.0
H1837 H 0.89598 0.19423 0.80892 0.0
H1838 H 0.87992 0.18048 0.83887 0.0
H1839 H 0.89211 0.20904 0.77654 0.0
H1840 H 0.9272 0.2212 0.83062 0.0
H1841 H 0.93878 0.22917 0.86524 0.0
H1842 H 0.94284 0.27223 0.85686 0.0
H1843 H 0.93107 0.26446 0.82231 0.0
C1844 C 0.95283 0.27212 0.72912 0.0
C1845 C 0.94401 0.27611 0.71713 0.0
C1846 C 0.94618 0.26131 0.74483 0.0
C1847 C 0.9306 0.25428 0.74879 0.0
C1848 C 0.92188 0.25852 0.73713 0.0
C1849 C 0.92847 0.26922 0.72143 0.0
C1850 C 0.92342 0.24294 0.76558 0.0
C1851 C 0.9291 0.2469 0.78583 0.0
C1852 C 0.91029 0.2288 0.76206 0.0
C1853 C 0.90447 0.22344 0.74078 0.0
C1854 C 0.88932 0.21844 0.73595 0.0
C1855 C 0.88392 0.21354 0.71585 0.0
C1856 C 0.89354 0.21352 0.70044 0.0
C1857 C 0.90858 0.21837 0.70511 0.0
C1858 C 0.91404 0.22327 0.72519 0.0
C1859 C 0.88369 0.21474 0.84792 0.0
C1860 C 0.87902 0.19955 0.85121 0.0
C1861 C 0.8929 0.22254 0.8311 0.0
C1862 C 0.89765 0.21535 0.81706 0.0
C1863 C 0.89255 0.20002 0.81972 0.0
C1864 C 0.88333 0.19216 0.83674 0.0
C1865 C 0.90766 0.22403 0.79948 0.0
C1866 C 0.90251 0.21958 0.7791 0.0
C1867 C 0.92147 0.23758 0.80282 0.0
C1868 C 0.92819 0.24221 0.82386 0.0
C1869 C 0.93044 0.23233 0.83622 0.0
C1870 C 0.9371 0.23683 0.8558 0.0
C1871 C 0.94162 0.25123 0.86319 0.0
C1872 C 0.93942 0.26112 0.85106 0.0
C1873 C 0.93275 0.25667 0.83147 0.0
H1874 H 0.94674 0.25469 0.87838 0.0
H1875 H 0.88934 0.20974 0.68488 0.0
H1876 H 0.7404 0.66837 0.68938 0.0
H1877 H 0.75924 0.67269 0.71567 0.0
H1878 H 0.72768 0.66776 0.764 0.0
H1879 H 0.70928 0.66467 0.73745 0.0
H1880 H 0.75353 0.6876 0.77578 0.0
H1881 H 0.73519 0.63806 0.74669 0.0
H1882 H 0.7297 0.62018 0.7179 0.0
H1883 H 0.77665 0.64311 0.70116 0.0
H1884 H 0.7824 0.66119 0.72977 0.0
H1885 H 0.77776 0.65808 0.85676 0.0
H1886 H 0.7639 0.65873 0.82651 0.0
H1887 H 0.80573 0.68475 0.79307 0.0
H1888 H 0.81984 0.68507 0.82394 0.0
H1889 H 0.77757 0.65642 0.77232 0.0
H1890 H 0.79536 0.7042 0.80587 0.0
H1891 H 0.79945 0.72115 0.83532 0.0
H1892 H 0.75158 0.70019 0.84453 0.0
H1893 H 0.74722 0.68272 0.81565 0.0
C1894 C 0.7376 0.66839 0.70564 0.0
C1895 C 0.72342 0.6661 0.71151 0.0
C1896 C 0.74831 0.67071 0.72068 0.0
C1897 C 0.74477 0.67006 0.74193 0.0
C1898 C 0.7307 0.66823 0.74774 0.0
C1899 C 0.72017 0.66644 0.73263 0.0
C1900 C 0.75552 0.67093 0.75809 0.0
C1901 C 0.75865 0.68066 0.77505 0.0
C1902 C 0.76257 0.66217 0.75703 0.0
C1903 C 0.7592 0.65103 0.74025 0.0
C1904 C 0.74433 0.63929 0.73684 0.0
C1905 C 0.74118 0.62913 0.72056 0.0
C1906 C 0.75282 0.63053 0.70768 0.0
C1907 C 0.76765 0.64205 0.71114 0.0
C1908 C 0.77087 0.65223 0.72741 0.0
C1909 C 0.78406 0.66414 0.84312 0.0
C1910 C 0.79993 0.67185 0.84302 0.0
C1911 C 0.7761 0.66436 0.82578 0.0
C1912 C 0.78383 0.67195 0.80773 0.0
C1913 C 0.79961 0.6789 0.80697 0.0
C1914 C 0.80763 0.67898 0.82456 0.0
C1915 C 0.77523 0.67284 0.78999 0.0
C1916 C 0.77251 0.66342 0.77284 0.0
C1917 C 0.76835 0.68168 0.79105 0.0
C1918 C 0.77097 0.69198 0.80875 0.0
C1919 C 0.78571 0.703 0.81442 0.0
C1920 C 0.78808 0.71273 0.83099 0.0
C1921 C 0.77579 0.71171 0.84184 0.0
C1922 C 0.7611 0.70095 0.83615 0.0
C1923 C 0.75868 0.69109 0.81973 0.0
H1924 H 0.77764 0.71929 0.85463 0.0
H1925 H 0.75034 0.62269 0.69504 0.0
H1926 H 0.69818 0.64611 0.60371 0.0
H1927 H 0.71478 0.64139 0.58156 0.0
H1928 H 0.75285 0.68388 0.6001 0.0
H1929 H 0.73639 0.68863 0.62236 0.0
H1930 H 0.73158 0.65596 0.549 0.0
H1931 H 0.78416 0.6808 0.60349 0.0
H1932 H 0.78936 0.68284 0.64111 0.0
H1933 H 0.74552 0.64451 0.65253 0.0
H1934 H 0.74013 0.64207 0.61496 0.0
H1935 H 0.79905 0.68444 0.49517 0.0
H1936 H 0.78099 0.68142 0.52218 0.0
H1937 H 0.778 0.64016 0.54173 0.0
H1938 H 0.79589 0.6429 0.51399 0.0
H1939 H 0.77913 0.6608 0.57532 0.0
H1940 H 0.75176 0.63477 0.51537 0.0
H1941 H 0.74416 0.62985 0.47861 0.0
H1942 H 0.73449 0.66565 0.47926 0.0
H1943 H 0.74251 0.67113 0.51585 0.0
C1944 C 0.71008 0.65449 0.60297 0.0
C1945 C 0.71598 0.66774 0.6148 0.0
C1946 C 0.71955 0.65175 0.59037 0.0
C1947 C 0.73509 0.66215 0.58949 0.0
C1948 C 0.74094 0.67555 0.6009 0.0
C1949 C 0.73149 0.67831 0.61346 0.0
C1950 C 0.74517 0.65935 0.57603 0.0
C1951 C 0.74193 0.65693 0.55477 0.0
C1952 C 0.75842 0.66011 0.58374 0.0
C1953 C 0.7617 0.66133 0.60637 0.0
C1954 C 0.77566 0.67274 0.614 0.0
C1955 C 0.77863 0.67398 0.63533 0.0
C1956 C 0.76776 0.66384 0.64921 0.0
C1957 C 0.75391 0.65239 0.64177 0.0
C1958 C 0.75089 0.65109 0.62046 0.0
C1959 C 0.79466 0.67477 0.50533 0.0
C1960 C 0.79865 0.66375 0.50226 0.0
C1961 C 0.78437 0.67308 0.52074 0.0
C1962 C 0.77801 0.66045 0.53366 0.0
C1963 C 0.78277 0.64994 0.53176 0.0
C1964 C 0.79301 0.65154 0.51604 0.0
C1965 C 0.76582 0.65813 0.54822 0.0
C1966 C 0.76868 0.65963 0.56965 0.0
C1967 C 0.75202 0.6562 0.54074 0.0
C1968 C 0.74787 0.65344 0.51838 0.0
C1969 C 0.74826 0.64177 0.50761 0.0
C1970 C 0.74381 0.63884 0.4868 0.0
C1971 C 0.73877 0.64738 0.47664 0.0
C1972 C 0.7383 0.65897 0.4872 0.0
C1973 C 0.74286 0.66204 0.50795 0.0
H1974 H 0.73531 0.64508 0.46054 0.0
H1975 H 0.77008 0.66483 0.66572 0.0
H1976 H 0.31981 0.06731 0.64369 0.0
H1977 H 0.32635 0.08593 0.61662 0.0
H1978 H 0.35965 0.07623 0.59229 0.0
H1979 H 0.35333 0.05755 0.61987 0.0
H1980 H 0.37011 0.1065 0.5926 0.0
H1981 H 0.32622 0.0624 0.56804 0.0
H1982 H 0.3004 0.04056 0.57 0.0
H1983 H 0.28271 0.06984 0.57975 0.0
H1984 H 0.30845 0.09187 0.57814 0.0
H1985 H 0.37311 0.1395 0.49277 0.0
H1986 H 0.37217 0.12461 0.5228 0.0
H1987 H 0.33815 0.13167 0.55116 0.0
H1988 H 0.33879 0.14626 0.52098 0.0
H1989 H 0.32898 0.10233 0.54795 0.0
H1990 H 0.37339 0.14661 0.57219 0.0
H1991 H 0.39933 0.16819 0.56975 0.0
H1992 H 0.41624 0.13831 0.55945 0.0
H1993 H 0.39037 0.11655 0.56154 0.0
C1994 C 0.32852 0.06903 0.63262 0.0
C1995 C 0.33593 0.06076 0.63388 0.0
C1996 C 0.33224 0.07973 0.61709 0.0
C1997 C 0.34332 0.08233 0.60221 0.0
C1998 C 0.35101 0.07436 0.60358 0.0
C1999 C 0.34734 0.06364 0.61928 0.0
C2000 C 0.3465 0.09318 0.5851 0.0
C2001 C 0.36118 0.10549 0.5826 0.0
C2002 C 0.3348 0.092 0.57229 0.0
C2003 C 0.31928 0.07878 0.57314 0.0
C2004 C 0.31683 0.06418 0.57075 0.0
C2005 C 0.30221 0.05177 0.57177 0.0
C2006 C 0.28993 0.05381 0.57504 0.0
C2007 C 0.29224 0.06828 0.57724 0.0
C2008 C 0.30684 0.08073 0.57625 0.0
C2009 C 0.36567 0.13815 0.50562 0.0
C2010 C 0.35593 0.14397 0.50441 0.0
C2011 C 0.3652 0.12969 0.52283 0.0
C2012 C 0.35504 0.12696 0.53921 0.0
C2013 C 0.34605 0.1336 0.53867 0.0
C2014 C 0.34653 0.14208 0.52149 0.0
C2015 C 0.35253 0.11585 0.55566 0.0
C2016 C 0.33794 0.1034 0.55794 0.0
C2017 C 0.36434 0.11688 0.56809 0.0
C2018 C 0.37991 0.12995 0.56681 0.0
C2019 C 0.38262 0.14465 0.56922 0.0
C2020 C 0.39732 0.15691 0.56794 0.0
C2021 C 0.40942 0.15463 0.56439 0.0
C2022 C 0.40685 0.14007 0.56217 0.0
C2023 C 0.39217 0.12776 0.56342 0.0
H2024 H 0.42079 0.16414 0.56341 0.0
H2025 H 0.27862 0.04419 0.57583 0.0
H2026 H 0.96308 0.26794 0.61407 0.0
H2027 H 0.9449 0.24982 0.5892 0.0
H2028 H 0.92076 0.27383 0.5893 0.0
H2029 H 0.93913 0.29224 0.61371 0.0
H2030 H 0.90294 0.24003 0.59636 0.0
H2031 H 0.93863 0.2788 0.54996 0.0
H2032 H 0.96401 0.29592 0.53574 0.0
H2033 H 0.96914 0.25832 0.52022 0.0
H2034 H 0.94387 0.24098 0.53465 0.0
H2035 H 0.85343 0.20812 0.51044 0.0
H2036 H 0.87058 0.22286 0.53853 0.0
H2037 H 0.90153 0.20848 0.51898 0.0
H2038 H 0.88462 0.19436 0.49024 0.0
H2039 H 0.91628 0.23666 0.5231 0.0
H2040 H 0.88074 0.19745 0.56696 0.0
H2041 H 0.85573 0.17952 0.58154 0.0
H2042 H 0.85056 0.21605 0.60295 0.0
H2043 H 0.87545 0.23421 0.58823 0.0
C2044 C 0.95397 0.26942 0.60864 0.0
C2045 C 0.95253 0.28151 0.61574 0.0
C2046 C 0.9436 0.25907 0.5945 0.0
C2047 C 0.9315 0.2605 0.58754 0.0
C2048 C 0.93003 0.27255 0.59458 0.0
C2049 C 0.94057 0.28309 0.60838 0.0
C2050 C 0.92034 0.24935 0.57296 0.0
C2051 C 0.90573 0.23933 0.58026 0.0
C2052 C 0.92424 0.24819 0.55224 0.0
C2053 C 0.93945 0.25861 0.54365 0.0
C2054 C 0.94524 0.27419 0.54374 0.0
C2055 C 0.95959 0.28394 0.53559 0.0
C2056 C 0.96821 0.27822 0.52715 0.0
C2057 C 0.96247 0.26274 0.5268 0.0
C2058 C 0.94814 0.25295 0.53496 0.0
C2059 C 0.86367 0.20775 0.51266 0.0
C2060 C 0.86766 0.19995 0.49857 0.0
C2061 C 0.87349 0.21617 0.52869 0.0
C2062 C 0.88734 0.2167 0.53109 0.0
C2063 C 0.89093 0.20826 0.51751 0.0
C2064 C 0.88123 0.20006 0.50127 0.0
C2065 C 0.89866 0.22715 0.54635 0.0
C2066 C 0.91337 0.23714 0.53921 0.0
C2067 C 0.89488 0.22809 0.56732 0.0
C2068 C 0.87993 0.2172 0.57632 0.0
C2069 C 0.87423 0.20166 0.57464 0.0
C2070 C 0.86008 0.19146 0.58295 0.0
C2071 C 0.85155 0.19664 0.59312 0.0
C2072 C 0.85718 0.21205 0.59505 0.0
C2073 C 0.87131 0.2223 0.58675 0.0
H2074 H 0.84059 0.18872 0.59953 0.0
H2075 H 0.97931 0.28578 0.52083 0.0
H2076 H 0.3514 0.2902 0.62604 0.0
H2077 H 0.35415 0.27459 0.59969 0.0
H2078 H 0.3057 0.24587 0.59753 0.0
H2079 H 0.30304 0.26092 0.62473 0.0
H2080 H 0.31672 0.22914 0.59891 0.0
H2081 H 0.32859 0.27216 0.55722 0.0
H2082 H 0.34195 0.29893 0.54756 0.0
H2083 H 0.38397 0.29949 0.5455 0.0
H2084 H 0.37088 0.27276 0.5554 0.0
H2085 H 0.31164 0.19487 0.4994 0.0
H2086 H 0.31069 0.20967 0.52871 0.0
H2087 H 0.3574 0.22527 0.5421 0.0
H2088 H 0.35825 0.21014 0.51308 0.0
H2089 H 0.34885 0.24841 0.53582 0.0
H2090 H 0.33502 0.20383 0.57539 0.0
H2091 H 0.32014 0.17673 0.58286 0.0
H2092 H 0.27966 0.17903 0.5862 0.0
H2093 H 0.29427 0.20612 0.57843 0.0
C2094 C 0.34135 0.28069 0.61966 0.0
C2095 C 0.32701 0.27677 0.62737 0.0
C2096 C 0.34291 0.27177 0.60455 0.0
C2097 C 0.33012 0.25905 0.5964 0.0
C2098 C 0.31577 0.25552 0.60361 0.0
C2099 C 0.31424 0.26419 0.61906 0.0
C2100 C 0.3316 0.24895 0.58117 0.0
C2101 C 0.32361 0.23341 0.585 0.0
C2102 C 0.34088 0.25442 0.5632 0.0
C2103 C 0.34878 0.2705 0.55727 0.0
C2104 C 0.3407 0.27802 0.55486 0.0
C2105 C 0.34822 0.29318 0.54931 0.0
C2106 C 0.36381 0.30091 0.54598 0.0
C2107 C 0.3719 0.29349 0.54812 0.0
C2108 C 0.36443 0.27833 0.55369 0.0
C2109 C 0.32155 0.20115 0.509 0.0
C2110 C 0.33497 0.2013 0.50424 0.0
C2111 C 0.32103 0.20962 0.52562 0.0
C2112 C 0.33399 0.21856 0.53748 0.0
C2113 C 0.34729 0.21841 0.53311 0.0
C2114 C 0.34774 0.2097 0.51671 0.0
C2115 C 0.33381 0.22877 0.55354 0.0
C2116 C 0.34204 0.24427 0.54984 0.0
C2117 C 0.32452 0.22326 0.57137 0.0
C2118 C 0.31572 0.20698 0.57613 0.0
C2119 C 0.32293 0.19853 0.57753 0.0
C2120 C 0.31455 0.18318 0.58186 0.0
C2121 C 0.29896 0.17616 0.58495 0.0
C2122 C 0.29173 0.18448 0.58378 0.0
C2123 C 0.30006 0.19984 0.57943 0.0
H2124 H 0.2925 0.16427 0.58831 0.0
H2125 H 0.36961 0.31265 0.54168 0.0
H2126 H 0.69926 0.05318 0.60492 0.0
H2127 H 0.71501 0.07266 0.57983 0.0
H2128 H 0.75414 0.07154 0.60101 0.0
H2129 H 0.73846 0.05208 0.62627 0.0
H2130 H 0.75963 0.10046 0.59696 0.0
H2131 H 0.73839 0.05538 0.556 0.0
H2132 H 0.71796 0.03156 0.54169 0.0
H2133 H 0.69823 0.05499 0.51314 0.0
H2134 H 0.71844 0.07894 0.52753 0.0
H2135 H 0.80857 0.13844 0.51099 0.0
H2136 H 0.79353 0.12243 0.53989 0.0
H2137 H 0.75376 0.12039 0.51455 0.0
H2138 H 0.76873 0.13608 0.48536 0.0
H2139 H 0.74855 0.09341 0.52147 0.0
H2140 H 0.77036 0.13882 0.56139 0.0
H2141 H 0.791 0.16266 0.57534 0.0
H2142 H 0.8098 0.13897 0.60563 0.0
H2143 H 0.78938 0.115 0.59163 0.0
C2144 C 0.7112 0.057 0.60415 0.0
C2145 C 0.71761 0.05105 0.61752 0.0
C2146 C 0.72018 0.06813 0.58981 0.0
C2147 C 0.73573 0.0735 0.58851 0.0
C2148 C 0.74217 0.06757 0.60181 0.0
C2149 C 0.73318 0.05639 0.61613 0.0
C2150 C 0.74523 0.08527 0.57321 0.0
C2151 C 0.75735 0.0989 0.58041 0.0
C2152 C 0.742 0.08332 0.55172 0.0
C2153 C 0.72984 0.06893 0.54303 0.0
C2154 C 0.72962 0.05544 0.54682 0.0
C2155 C 0.7181 0.04191 0.53866 0.0
C2156 C 0.70678 0.04175 0.52656 0.0
C2157 C 0.70699 0.05513 0.52254 0.0
C2158 C 0.71848 0.06868 0.53068 0.0
C2159 C 0.79671 0.13492 0.51196 0.0
C2160 C 0.78978 0.13844 0.49597 0.0
C2161 C 0.78811 0.12577 0.52847 0.0
C2162 C 0.77249 0.1202 0.52943 0.0
C2163 C 0.76576 0.12448 0.51409 0.0
C2164 C 0.77431 0.13348 0.49748 0.0
C2165 C 0.76294 0.10875 0.54515 0.0
C2166 C 0.75082 0.0951 0.53801 0.0
C2167 C 0.76619 0.11073 0.56668 0.0
C2168 C 0.7784 0.12512 0.5753 0.0
C2169 C 0.77895 0.1387 0.5709 0.0
C2170 C 0.7906 0.15224 0.57884 0.0
C2171 C 0.80173 0.15234 0.59132 0.0
C2172 C 0.80118 0.13888 0.59595 0.0
C2173 C 0.78956 0.12531 0.58804 0.0
H2174 H 0.81075 0.16283 0.59743 0.0
H2175 H 0.69787 0.03127 0.52025 0.0
H2176 H 0.95682 0.66233 0.61577 0.0
H2177 H 0.93922 0.66021 0.58845 0.0
H2178 H 0.92561 0.68598 0.6261 0.0
H2179 H 0.94329 0.68849 0.65292 0.0
H2180 H 0.90945 0.64867 0.58577 0.0
H2181 H 0.91894 0.70852 0.59682 0.0
H2182 H 0.93902 0.73357 0.60824 0.0
H2183 H 0.97271 0.72276 0.59045 0.0
H2184 H 0.95285 0.69772 0.57868 0.0
H2185 H 0.85434 0.65347 0.52487 0.0
H2186 H 0.86996 0.65551 0.55492 0.0
H2187 H 0.90995 0.68682 0.52093 0.0
H2188 H 0.89445 0.68515 0.49139 0.0
H2189 H 0.91298 0.69535 0.55928 0.0
H2190 H 0.89796 0.64884 0.52397 0.0
H2191 H 0.87987 0.62399 0.50946 0.0
H2192 H 0.86082 0.60851 0.57019 0.0
H2193 H 0.87868 0.63335 0.58501 0.0
C2194 C 0.95007 0.66753 0.61817 0.0
C2195 C 0.95168 0.6758 0.63637 0.0
C2196 C 0.93997 0.66627 0.6026 0.0
C2197 C 0.93127 0.67318 0.60504 0.0
C2198 C 0.93244 0.68087 0.62359 0.0
C2199 C 0.9426 0.68229 0.63895 0.0
C2200 C 0.92126 0.67278 0.58809 0.0
C2201 C 0.91021 0.65888 0.58 0.0
C2202 C 0.92234 0.68609 0.5803 0.0
C2203 C 0.93439 0.7012 0.58707 0.0
C2204 C 0.93064 0.71151 0.59527 0.0
C2205 C 0.94198 0.7257 0.60182 0.0
C2206 C 0.95713 0.72973 0.60013 0.0
C2207 C 0.96097 0.7196 0.59182 0.0
C2208 C 0.94967 0.70541 0.58523 0.0
C2209 C 0.86643 0.66104 0.52408 0.0
C2210 C 0.8732 0.66904 0.50575 0.0
C2211 C 0.87536 0.66207 0.54113 0.0
C2212 C 0.89119 0.67109 0.54006 0.0
C2213 C 0.89781 0.67972 0.52216 0.0
C2214 C 0.88893 0.67872 0.50524 0.0
C2215 C 0.90106 0.67123 0.55704 0.0
C2216 C 0.91211 0.68512 0.56515 0.0
C2217 C 0.90024 0.65794 0.56441 0.0
C2218 C 0.88953 0.64299 0.55555 0.0
C2219 C 0.88984 0.64017 0.5342 0.0
C2220 C 0.87964 0.62608 0.52593 0.0
C2221 C 0.86917 0.61469 0.53889 0.0
C2222 C 0.86891 0.61735 0.56016 0.0
C2223 C 0.87907 0.63143 0.56851 0.0
H2224 H 0.86129 0.60379 0.53246 0.0
H2225 H 0.96589 0.74072 0.60523 0.0
H2226 H 0.9338 0.65171 0.7191 0.0
H2227 H 0.91741 0.65628 0.74184 0.0
H2228 H 0.95646 0.69206 0.77225 0.0
H2229 H 0.97298 0.68759 0.74952 0.0
H2230 H 0.93362 0.67314 0.79983 0.0
H2231 H 0.93905 0.70074 0.73721 0.0
H2232 H 0.93832 0.70354 0.69925 0.0
H2233 H 0.89091 0.67108 0.69902 0.0
H2234 H 0.89141 0.66789 0.73695 0.0
H2235 H 0.89682 0.70163 0.85666 0.0
H2236 H 0.91363 0.70262 0.82883 0.0
H2237 H 0.87547 0.66752 0.79601 0.0
H2238 H 0.85858 0.66677 0.82367 0.0
H2239 H 0.89826 0.68708 0.76901 0.0
H2240 H 0.89263 0.65769 0.82967 0.0
H2241 H 0.8924 0.65353 0.86742 0.0
H2242 H 0.93917 0.68772 0.871 0.0
H2243 H 0.93961 0.69223 0.83327 0.0
C2244 C 0.93891 0.66047 0.73074 0.0
C2245 C 0.95469 0.66934 0.73246 0.0
C2246 C 0.92953 0.66312 0.74364 0.0
C2247 C 0.93574 0.67465 0.7585 0.0
C2248 C 0.95146 0.68316 0.76079 0.0
C2249 C 0.96087 0.68059 0.7478 0.0
C2250 C 0.92582 0.67792 0.77151 0.0
C2251 C 0.92608 0.67643 0.79312 0.0
C2252 C 0.9157 0.68182 0.76265 0.0
C2253 C 0.9153 0.68397 0.73991 0.0
C2254 C 0.92849 0.69412 0.72905 0.0
C2255 C 0.92812 0.69579 0.70754 0.0
C2256 C 0.91459 0.68747 0.69672 0.0
C2257 C 0.90139 0.67751 0.70742 0.0
C2258 C 0.9017 0.67577 0.72892 0.0
C2259 C 0.89199 0.69459 0.84307 0.0
C2260 C 0.87648 0.68407 0.84227 0.0
C2261 C 0.90158 0.6951 0.82725 0.0
C2262 C 0.89581 0.68488 0.81065 0.0
C2263 C 0.88013 0.67545 0.80874 0.0
C2264 C 0.8705 0.67506 0.82449 0.0
C2265 C 0.90617 0.68242 0.79732 0.0
C2266 C 0.90593 0.68395 0.77569 0.0
C2267 C 0.91621 0.67836 0.8061 0.0
C2268 C 0.91611 0.6754 0.82869 0.0
C2269 C 0.90284 0.66437 0.83852 0.0
C2270 C 0.90267 0.66195 0.85991 0.0
C2271 C 0.91575 0.67039 0.87162 0.0
C2272 C 0.92904 0.68121 0.86192 0.0
C2273 C 0.92926 0.68369 0.84052 0.0
H2274 H 0.91558 0.66852 0.88818 0.0
H2275 H 0.91433 0.68875 0.68007 0.0
H2276 H 0.32441 0.28767 0.74947 0.0
H2277 H 0.32587 0.27128 0.77557 0.0
H2278 H 0.35611 0.26496 0.7357 0.0
H2279 H 0.35515 0.28173 0.71001 0.0
H2280 H 0.31786 0.2433 0.77594 0.0
H2281 H 0.38015 0.25906 0.76357 0.0
H2282 H 0.40449 0.28096 0.7531 0.0
H2283 H 0.38927 0.31061 0.77382 0.0
H2284 H 0.36493 0.2889 0.78465 0.0
H2285 H 0.32671 0.1904 0.83305 0.0
H2286 H 0.32866 0.20626 0.80363 0.0
H2287 H 0.35834 0.24578 0.83931 0.0
H2288 H 0.35706 0.23 0.86821 0.0
H2289 H 0.36675 0.25078 0.80098 0.0
H2290 H 0.31946 0.23141 0.83691 0.0
H2291 H 0.29514 0.21174 0.85135 0.0
H2292 H 0.2804 0.19336 0.79024 0.0
H2293 H 0.30473 0.21282 0.77548 0.0
C2294 C 0.33145 0.28286 0.74636 0.0
C2295 C 0.33975 0.28609 0.72777 0.0
C2296 C 0.33222 0.27344 0.76124 0.0
C2297 C 0.34124 0.267 0.75776 0.0
C2298 C 0.34934 0.27004 0.73901 0.0
C2299 C 0.34873 0.2796 0.72428 0.0
C2300 C 0.34206 0.257 0.77361 0.0
C2301 C 0.32857 0.24494 0.78136 0.0
C2302 C 0.356 0.2592 0.78098 0.0
C2303 C 0.37066 0.27234 0.7747 0.0
C2304 C 0.38202 0.27026 0.76595 0.0
C2305 C 0.39581 0.28263 0.75994 0.0
C2306 C 0.3984 0.29716 0.76272 0.0
C2307 C 0.38723 0.29935 0.77159 0.0
C2308 C 0.37343 0.28701 0.77764 0.0
C2309 C 0.334 0.20245 0.83437 0.0
C2310 C 0.34153 0.20896 0.85308 0.0
C2311 C 0.33496 0.21152 0.81764 0.0
C2312 C 0.34332 0.22725 0.81944 0.0
C2313 C 0.35171 0.23369 0.83756 0.0
C2314 C 0.35087 0.22466 0.85416 0.0
C2315 C 0.34256 0.23706 0.80323 0.0
C2316 C 0.35606 0.24907 0.7954 0.0
C2317 C 0.32862 0.23513 0.79632 0.0
C2318 C 0.31397 0.22346 0.80513 0.0
C2319 C 0.31106 0.22311 0.82658 0.0
C2320 C 0.29728 0.21201 0.83482 0.0
C2321 C 0.28624 0.20128 0.82173 0.0
C2322 C 0.28896 0.20166 0.80037 0.0
C2323 C 0.30275 0.21272 0.79205 0.0
H2324 H 0.27557 0.19269 0.82814 0.0
H2325 H 0.40908 0.30673 0.75805 0.0
H2326 H 0.73075 0.04549 0.72067 0.0
H2327 H 0.74941 0.06026 0.74732 0.0
H2328 H 0.73152 0.09001 0.75131 0.0
H2329 H 0.7135 0.07578 0.7239 0.0
H2330 H 0.75994 0.10606 0.75039 0.0
H2331 H 0.72582 0.06217 0.79004 0.0
H2332 H 0.71116 0.03511 0.79796 0.0
H2333 H 0.75199 0.03342 0.79973 0.0
H2334 H 0.76689 0.06043 0.79157 0.0
H2335 H 0.79309 0.14194 0.84681 0.0
H2336 H 0.77671 0.12795 0.81752 0.0
H2337 H 0.79924 0.10246 0.81188 0.0
H2338 H 0.81534 0.11624 0.8415 0.0
H2339 H 0.76967 0.08435 0.8128 0.0
H2340 H 0.80371 0.12909 0.77504 0.0
H2341 H 0.81786 0.15631 0.76818 0.0
H2342 H 0.77632 0.15652 0.76406 0.0
H2343 H 0.76192 0.12934 0.77117 0.0
C2344 C 0.7307 0.05507 0.72747 0.0
C2345 C 0.72068 0.05949 0.72026 0.0
C2346 C 0.74135 0.0635 0.74275 0.0
C2347 C 0.74184 0.07623 0.75156 0.0
C2348 C 0.73149 0.08033 0.74473 0.0
C2349 C 0.72112 0.07214 0.72914 0.0
C2350 C 0.75346 0.08568 0.76728 0.0
C2351 C 0.7619 0.10129 0.76417 0.0
C2352 C 0.75639 0.07952 0.78502 0.0
C2353 C 0.74745 0.06329 0.78999 0.0
C2354 C 0.73166 0.056 0.79198 0.0
C2355 C 0.72331 0.04068 0.79653 0.0
C2356 C 0.73063 0.03254 0.79929 0.0
C2357 C 0.74633 0.03973 0.79756 0.0
C2358 C 0.75473 0.05504 0.79299 0.0
C2359 C 0.79477 0.13364 0.83887 0.0
C2360 C 0.80557 0.13028 0.84601 0.0
C2361 C 0.78541 0.12563 0.82219 0.0
C2362 C 0.78681 0.11421 0.81235 0.0
C2363 C 0.79797 0.11121 0.81917 0.0
C2364 C 0.80724 0.11915 0.83592 0.0
C2365 C 0.77597 0.10468 0.79599 0.0
C2366 C 0.7677 0.08907 0.79897 0.0
C2367 C 0.77309 0.11086 0.77825 0.0
C2368 C 0.78174 0.12719 0.7738 0.0
C2369 C 0.79759 0.13496 0.77281 0.0
C2370 C 0.80566 0.15038 0.76885 0.0
C2371 C 0.798 0.15814 0.76573 0.0
C2372 C 0.78224 0.1505 0.7665 0.0
C2373 C 0.77412 0.13508 0.77047 0.0
H2374 H 0.80427 0.17008 0.76267 0.0
H2375 H 0.72415 0.02068 0.80281 0.0
H2376 H 0.02702 0.32659 0.0363 0.0
H2377 H 0.0468 0.32178 0.04744 0.0
H2378 H 0.08057 0.36376 0.02047 0.0
H2379 H 0.06066 0.36841 0.00862 0.0
H2380 H 0.08874 0.34304 0.01554 0.0
H2381 H 0.07275 0.36127 0.07244 0.0
H2382 H 0.0548 0.36261 0.09666 0.0
H2383 H 0.03997 0.31787 0.11769 0.0
H2384 H 0.05769 0.31618 0.09337 0.0
H2385 H 0.14495 0.34701 0.09083 0.0
H2386 H 0.12916 0.35199 0.06733 0.0
H2387 H 0.09178 0.30734 0.07838 0.0
H2388 H 0.10747 0.30232 0.10149 0.0
H2389 H 0.08748 0.33184 0.09068 0.0
H2390 H 0.10453 0.3145 0.03245 0.0
H2391 H 0.12373 0.3148 0.009 0.0
H2392 H 0.13845 0.36031 0.99195 0.0
H2393 H 0.11947 0.36035 0.01556 0.0
C2394 C 0.03864 0.33473 0.03249 0.0
C2395 C 0.04228 0.34796 0.02177 0.0
C2396 C 0.04996 0.33199 0.03894 0.0
C2397 C 0.06523 0.34257 0.03526 0.0
C2398 C 0.06889 0.35546 0.02361 0.0
C2399 C 0.0575 0.35812 0.01688 0.0
C2400 C 0.07725 0.3405 0.04471 0.0
C2401 C 0.08858 0.34078 0.03202 0.0
C2402 C 0.07712 0.33758 0.06624 0.0
C2403 C 0.06646 0.33855 0.08094 0.0
C2404 C 0.06559 0.35168 0.08212 0.0
C2405 C 0.05546 0.35251 0.09588 0.0
C2406 C 0.04623 0.34032 0.10867 0.0
C2407 C 0.04712 0.32729 0.10776 0.0
C2408 C 0.05721 0.3264 0.094 0.0
C2409 C 0.13357 0.33809 0.08748 0.0
C2410 C 0.12739 0.3243 0.09795 0.0
C2411 C 0.12454 0.34096 0.07418 0.0
C2412 C 0.10926 0.33006 0.07129 0.0
C2413 C 0.10351 0.3159 0.08044 0.0
C2414 C 0.1125 0.31303 0.09355 0.0
C2415 C 0.09864 0.33391 0.06144 0.0
C2416 C 0.08764 0.33411 0.07419 0.0
C2417 C 0.0993 0.33751 0.04014 0.0
C2418 C 0.1107 0.33749 0.02597 0.0
C2419 C 0.11197 0.32463 0.02388 0.0
C2420 C 0.12278 0.32472 0.01051 0.0
C2421 C 0.13234 0.33758 -0.00095 0.0
C2422 C 0.13106 0.35036 0.00088 0.0
C2423 C 0.12027 0.35033 0.01423 0.0
H2424 H 0.1407 0.33763 0.9887 0.0
H2425 H 0.0384 0.34099 0.11932 0.0
H2426 H 0.62671 0.69197 0.00993 0.0
H2427 H 0.6362 0.71773 0.02146 0.0
H2428 H 0.67829 0.72131 0.03913 0.0
H2429 H 0.66882 0.69543 0.02778 0.0
H2430 H 0.66747 0.73133 0.0694 0.0
H2431 H 0.67631 0.73968 -0.00367 0.0
H2432 H 0.66986 0.73564 0.9591 0.0
H2433 H 0.63621 0.74798 0.96861 0.0
H2434 H 0.6423 0.75189 0.00597 0.0
H2435 H 0.70035 0.80571 0.09886 0.0
H2436 H 0.69718 0.78571 0.07521 0.0
H2437 H 0.65267 0.77684 0.05952 0.0
H2438 H 0.65596 0.79705 0.08302 0.0
H2439 H 0.66703 0.77078 0.0262 0.0
H2440 H 0.65392 0.75679 0.09844 0.0
H2441 H 0.65844 0.75978 0.1362 0.0
H2442 H 0.69897 0.75803 0.12806 0.0
H2443 H 0.69449 0.75469 0.0902 0.0
C2444 C 0.63802 0.69823 0.01618 0.0
C2445 C 0.64698 0.69158 0.01795 0.0
C2446 C 0.64347 0.71302 0.02263 0.0
C2447 C 0.65804 0.72155 0.03091 0.0
C2448 C 0.66704 0.71497 0.03269 0.0
C2449 C 0.6616 0.70017 0.02619 0.0
C2450 C 0.66348 0.73699 0.03882 0.0
C2451 C 0.6677 0.74003 0.05977 0.0
C2452 C 0.66336 0.74826 0.02648 0.0
C2453 C 0.65969 0.74596 0.004 0.0
C2454 C 0.66745 0.74142 0.99052 0.0
C2455 C 0.66388 0.73917 0.96938 0.0
C2456 C 0.65261 0.74152 0.9615 0.0
C2457 C 0.64492 0.74615 0.97474 0.0
C2458 C 0.64845 0.7484 -0.00411 0.0
C2459 C 0.69022 0.79998 0.08955 0.0
C2460 C 0.67843 0.80292 0.0926 0.0
C2461 C 0.68834 0.78847 0.07622 0.0
C2462 C 0.67457 0.7796 0.06595 0.0
C2463 C 0.66338 0.78354 0.06731 0.0
C2464 C 0.66529 0.79514 0.08061 0.0
C2465 C 0.67102 0.765 0.05663 0.0
C2466 C 0.66706 0.76211 0.03559 0.0
C2467 C 0.67123 0.75376 0.06886 0.0
C2468 C 0.67395 0.75563 0.09155 0.0
C2469 C 0.66382 0.75709 0.10472 0.0
C2470 C 0.66636 0.75884 0.12613 0.0
C2471 C 0.67906 0.75926 0.13453 0.0
C2472 C 0.68916 0.75774 0.12153 0.0
C2473 C 0.68658 0.75583 0.10011 0.0
H2474 H 0.68101 0.76068 0.1511 0.0
H2475 H 0.64986 0.73978 0.94513 0.0
H2476 H 0.30688 0.97561 0.02192 0.0
H2477 H 0.28059 0.95854 0.03212 0.0
H2478 H 0.28762 0.92092 0.02675 0.0
H2479 H 0.31365 0.93776 0.01611 0.0
H2480 H 0.2612 0.91361 0.01089 0.0
H2481 H 0.28768 0.93686 0.07435 0.0
H2482 H 0.30351 0.958 0.09776 0.0
H2483 H 0.27141 0.97283 0.09491 0.0
H2484 H 0.25547 0.95188 0.07126 0.0
H2485 H 0.20512 0.86046 0.08085 0.0
H2486 H 0.22673 0.87743 0.05904 0.0
H2487 H 0.21415 0.91126 0.06465 0.0
H2488 H 0.19272 0.89439 0.08662 0.0
H2489 H 0.24212 0.92151 0.07788 0.0
H2490 H 0.21407 0.89577 0.01734 0.0
H2491 H 0.1983 0.87386 0.99511 0.0
H2492 H 0.23329 0.86282 0.99352 0.0
H2493 H 0.2492 0.88454 0.016 0.0
C2494 C 0.30282 0.9637 0.02291 0.0
C2495 C 0.31242 0.95809 0.01829 0.0
C2496 C 0.28779 0.95395 0.02876 0.0
C2497 C 0.28214 0.93843 0.03038 0.0
C2498 C 0.29167 0.93282 0.02554 0.0
C2499 C 0.30661 0.94251 0.01956 0.0
C2500 C 0.26647 0.928 0.03768 0.0
C2501 C 0.25705 0.91528 0.0256 0.0
C2502 C 0.26091 0.93031 0.05666 0.0
C2503 C 0.27048 0.94292 0.07085 0.0
C2504 C 0.28406 0.94471 0.07858 0.0
C2505 C 0.29304 0.95664 0.09192 0.0
C2506 C 0.28849 0.96678 0.09776 0.0
C2507 C 0.27493 0.96499 0.09033 0.0
C2508 C 0.26592 0.95308 0.07697 0.0
C2509 C 0.20663 0.87127 0.07665 0.0
C2510 C 0.1973 0.87615 0.08533 0.0
C2511 C 0.21901 0.881 0.06427 0.0
C2512 C 0.22212 0.89567 0.0603 0.0
C2513 C 0.21203 0.90004 0.06758 0.0
C2514 C 0.19973 0.89037 0.07998 0.0
C2515 C 0.23684 0.90705 0.05117 0.0
C2516 C 0.24614 0.91993 0.06299 0.0
C2517 C 0.2423 0.90479 0.03208 0.0
C2518 C 0.23278 0.89173 0.0185 0.0
C2519 C 0.21836 0.88861 0.01239 0.0
C2520 C 0.2094 0.87623 -0.00029 0.0
C2521 C 0.21478 0.86694 0.99294 0.0
C2522 C 0.22914 0.87002 -0.00121 0.0
C2523 C 0.23814 0.88238 0.01148 0.0
H2524 H 0.20783 0.85736 0.98312 0.0
H2525 H 0.29546 0.97601 0.10809 0.0
H2526 H 0.32745 0.02708 0.98122 0.0
H2527 H 0.32361 0.04756 0.97079 0.0
H2528 H 0.36735 0.07976 0.99514 0.0
H2529 H 0.37102 0.0592 0.00633 0.0
H2530 H 0.34834 0.08944 0.00218 0.0
H2531 H 0.36214 0.07136 0.94283 0.0
H2532 H 0.36109 0.05282 0.91763 0.0
H2533 H 0.316 0.04091 0.90087 0.0
H2534 H 0.31669 0.05923 0.9262 0.0
H2535 H 0.35369 0.1471 0.92969 0.0
H2536 H 0.35788 0.13024 0.95191 0.0
H2537 H 0.31169 0.09522 0.94274 0.0
H2538 H 0.30746 0.11198 0.92086 0.0
H2539 H 0.33412 0.08869 0.92845 0.0
H2540 H 0.32151 0.10806 0.98904 0.0
H2541 H 0.3245 0.12805 0.01302 0.0
H2542 H 0.37008 0.13949 0.02553 0.0
H2543 H 0.36743 0.1197 0.00137 0.0
C2544 C 0.33619 0.03851 0.98458 0.0
C2545 C 0.3496 0.04152 0.99442 0.0
C2546 C 0.33402 0.05023 0.97852 0.0
C2547 C 0.34535 0.06525 0.9817 0.0
C2548 C 0.35847 0.06829 0.9924 0.0
C2549 C 0.36057 0.05652 -0.00125 0.0
C2550 C 0.3437 0.07766 0.97294 0.0
C2551 C 0.3454 0.08936 0.986 0.0
C2552 C 0.33991 0.07765 0.95179 0.0
C2553 C 0.33942 0.06657 0.93657 0.0
C2554 C 0.35195 0.0647 0.93389 0.0
C2555 C 0.35143 0.05425 0.91957 0.0
C2556 C 0.33847 0.04567 0.90769 0.0
C2557 C 0.32602 0.04755 0.9101 0.0
C2558 C 0.32648 0.05798 0.92443 0.0
C2559 C 0.3443 0.13602 0.93321 0.0
C2560 C 0.33027 0.13079 0.92358 0.0
C2561 C 0.34671 0.12638 0.94577 0.0
C2562 C 0.33511 0.11144 0.94879 0.0
C2563 C 0.32079 0.10667 0.94055 0.0
C2564 C 0.31837 0.11627 0.92815 0.0
C2565 C 0.33828 0.10015 0.95781 0.0
C2566 C 0.33702 0.08873 0.94465 0.0
C2567 C 0.34274 0.10064 0.97867 0.0
C2568 C 0.34433 0.11251 0.99322 0.0
C2569 C 0.33222 0.11494 -0.00326 0.0
C2570 C 0.33384 0.12621 0.0104 0.0
C2571 C 0.34749 0.13507 0.02074 0.0
C2572 C 0.35953 0.13264 0.01748 0.0
C2573 C 0.35797 0.12138 0.00382 0.0
H2574 H 0.34872 0.14378 0.03132 0.0
H2575 H 0.3381 0.03758 0.8966 0.0
H2576 H 0.93987 0.31179 0.0162 0.0
H2577 H 0.92189 0.28663 0.0037 0.0
H2578 H 0.95696 0.28625 0.96712 0.0
H2579 H 0.97515 0.31153 0.97967 0.0
H2580 H 0.93116 0.2775 0.94459 0.0
H2581 H 0.94436 0.26487 0.00918 0.0
H2582 H 0.94865 0.26619 0.04699 0.0
H2583 H 0.90205 0.25177 0.05827 0.0
H2584 H 0.89752 0.25057 0.02051 0.0
H2585 H 0.88366 0.19306 0.93758 0.0
H2586 H 0.90059 0.21449 0.95956 0.0
H2587 H 0.87872 0.23833 0.93893 0.0
H2588 H 0.86184 0.21694 0.91702 0.0
H2589 H 0.89958 0.23408 0.99057 0.0
H2590 H 0.90741 0.27247 0.92108 0.0
H2591 H 0.90374 0.27058 0.88307 0.0
H2592 H 0.91025 0.23275 0.8813 0.0
H2593 H 0.9143 0.23461 0.91919 0.0
C2594 C 0.94383 0.30636 0.00559 0.0
C2595 C 0.95898 0.31373 -0.0011 0.0
C2596 C 0.93353 0.29191 -0.00145 0.0
C2597 C 0.93808 0.2845 0.98457 0.0
C2598 C 0.95321 0.29175 0.97794 0.0
C2599 C 0.9636 0.30618 0.98517 0.0
C2600 C 0.92683 0.26952 0.97618 0.0
C2601 C 0.9243 0.26801 0.95466 0.0
C2602 C 0.91796 0.25706 0.98927 0.0
C2603 C 0.92063 0.25776 0.012 0.0
C2604 C 0.93505 0.2621 0.01972 0.0
C2605 C 0.93752 0.2628 0.04115 0.0
C2606 C 0.92564 0.2591 0.05502 0.0
C2607 C 0.91125 0.25465 0.0475 0.0
C2608 C 0.90872 0.25394 0.02608 0.0
C2609 C 0.88195 0.20255 0.93868 0.0
C2610 C 0.87133 0.20331 0.92593 0.0
C2611 C 0.89171 0.21484 0.95108 0.0
C2612 C 0.89106 0.22808 0.95059 0.0
C2613 C 0.87946 0.22825 0.93941 0.0
C2614 C 0.86971 0.21598 0.92711 0.0
C2615 C 0.90367 0.24227 0.95913 0.0
C2616 C 0.90646 0.2436 0.98057 0.0
C2617 C 0.91292 0.25454 0.94595 0.0
C2618 C 0.91098 0.25358 0.92303 0.0
C2619 C 0.90815 0.2638 0.91256 0.0
C2620 C 0.906 0.26273 0.89104 0.0
C2621 C 0.9067 0.2515 0.8798 0.0
C2622 C 0.90966 0.2414 0.89004 0.0
C2623 C 0.91188 0.24246 0.91154 0.0
H2624 H 0.90501 0.25067 0.86315 0.0
H2625 H 0.92757 0.25964 0.07161 0.0
H2626 H 0.69395 0.6398 0.00959 0.0
H2627 H 0.71945 0.64571 -0.0002 0.0
H2628 H 0.7269 0.68598 0.96921 0.0
H2629 H 0.7014 0.67996 0.97849 0.0
H2630 H 0.73328 0.67015 0.94402 0.0
H2631 H 0.74562 0.68667 0.0147 0.0
H2632 H 0.74308 0.68448 0.05285 0.0
H2633 H 0.75157 0.6479 0.05142 0.0
H2634 H 0.75397 0.64973 0.01322 0.0
H2635 H 0.8066 0.69965 0.91223 0.0
H2636 H 0.78766 0.69811 0.93689 0.0
H2637 H 0.77751 0.65385 0.95503 0.0
H2638 H 0.79669 0.65548 0.93046 0.0
H2639 H 0.77344 0.67179 0.98834 0.0
H2640 H 0.75621 0.6524 0.91836 0.0
H2641 H 0.75819 0.65375 0.88014 0.0
H2642 H 0.7592 0.69579 0.88128 0.0
H2643 H 0.75689 0.69447 0.91948 0.0
C2644 C 0.70112 0.65003 0.00105 0.0
C2645 C 0.69561 0.65934 0.99464 0.0
C2646 C 0.71573 0.65344 0.99556 0.0
C2647 C 0.72515 0.66633 0.98381 0.0
C2648 C 0.71985 0.67595 0.97822 0.0
C2649 C 0.70525 0.67249 0.98353 0.0
C2650 C 0.73986 0.66907 0.97545 0.0
C2651 C 0.7421 0.67076 0.95387 0.0
C2652 C 0.75126 0.66938 0.9881 0.0
C2653 C 0.74983 0.66825 0.01107 0.0
C2654 C 0.74682 0.67807 0.0225 0.0
C2655 C 0.74543 0.67691 0.04414 0.0
C2656 C 0.74712 0.66603 0.05455 0.0
C2657 C 0.75025 0.65631 0.04334 0.0
C2658 C 0.75163 0.65741 0.02169 0.0
C2659 C 0.80084 0.68992 0.92223 0.0
C2660 C 0.80308 0.67771 0.91958 0.0
C2661 C 0.78999 0.68901 0.93623 0.0
C2662 C 0.78107 0.67579 0.94758 0.0
C2663 C 0.78433 0.66416 0.94649 0.0
C2664 C 0.7953 0.66512 0.93252 0.0
C2665 C 0.76676 0.67313 0.95716 0.0
C2666 C 0.76457 0.6713 0.97874 0.0
C2667 C 0.75528 0.67262 0.94463 0.0
C2668 C 0.7565 0.6734 0.92168 0.0
C2669 C 0.75691 0.66194 0.9104 0.0
C2670 C 0.75808 0.6627 0.88874 0.0
C2671 C 0.75901 0.67494 0.87821 0.0
C2672 C 0.75855 0.68634 0.88936 0.0
C2673 C 0.75721 0.68555 0.91102 0.0
H2674 H 0.76001 0.67553 0.86144 0.0
H2675 H 0.74605 0.66515 0.07131 0.0
H2676 H 0.96381 0.6559 0.98024 0.0
H2677 H 0.94533 0.66161 0.96585 0.0
H2678 H 0.91218 0.63171 0.01031 0.0
H2679 H 0.93039 0.62552 0.02414 0.0
H2680 H 0.89952 0.62643 0.97526 0.0
H2681 H 0.92989 0.67151 0.01324 0.0
H2682 H 0.95331 0.69401 0.02472 0.0
H2683 H 0.96189 0.71112 0.96236 0.0
H2684 H 0.93862 0.68862 0.95044 0.0
H2685 H 0.86824 0.67849 0.9372 0.0
H2686 H 0.88196 0.67219 0.96266 0.0
H2687 H 0.88448 0.64225 0.91801 0.0
H2688 H 0.87055 0.64818 0.89305 0.0
H2689 H 0.91013 0.67779 0.95937 0.0
H2690 H 0.8862 0.6145 0.94057 0.0
H2691 H 0.86178 0.59216 0.9318 0.0
H2692 H 0.83835 0.6117 0.96168 0.0
H2693 H 0.86262 0.63406 0.97089 0.0
C2694 C 0.95263 0.65065 0.98706 0.0
C2695 C 0.94857 0.64021 0.00329 0.0
C2696 C 0.94207 0.65399 0.9789 0.0
C2697 C 0.92734 0.64723 0.98711 0.0
C2698 C 0.92342 0.63705 0.00362 0.0
C2699 C 0.93387 0.63354 0.01155 0.0
C2700 C 0.91579 0.65007 0.97777 0.0
C2701 C 0.90184 0.63769 0.97194 0.0
C2702 C 0.91857 0.66473 0.97382 0.0
C2703 C 0.93255 0.67832 0.98093 0.0
C2704 C 0.93682 0.68002 0.00195 0.0
C2705 C 0.95006 0.69278 0.00854 0.0
C2706 C 0.9591 0.70397 0.99427 0.0
C2707 C 0.95489 0.70244 0.97339 0.0
C2708 C 0.94166 0.68969 0.96671 0.0
C2709 C 0.87132 0.6702 0.93319 0.0
C2710 C 0.86833 0.66378 0.91324 0.0
C2711 C 0.87929 0.66674 0.9476 0.0
C2712 C 0.88422 0.6567 0.9423 0.0
C2713 C 0.88061 0.64982 0.92266 0.0
C2714 C 0.87268 0.65325 0.90836 0.0
C2715 C 0.89411 0.65415 0.95643 0.0
C2716 C 0.90776 0.66657 0.96304 0.0
C2717 C 0.89092 0.63953 0.96155 0.0
C2718 C 0.87626 0.62601 0.95631 0.0
C2719 C 0.87585 0.614 0.94538 0.0
C2720 C 0.86202 0.60134 0.9403 0.0
C2721 C 0.84852 0.60053 0.94614 0.0
C2722 C 0.84881 0.61236 0.95711 0.0
C2723 C 0.8626 0.62504 0.96224 0.0
H2724 H 0.83783 0.59072 0.94218 0.0
H2725 H 0.96935 0.71384 -0.00059 0.0
H2726 H 0.32553 0.30246 0.98043 0.0
H2727 H 0.32102 0.27728 0.97356 0.0
H2728 H 0.36078 0.28746 0.00849 0.0
H2729 H 0.36541 0.31279 0.01542 0.0
H2730 H 0.36035 0.27563 0.97044 0.0
H2731 H 0.32622 0.26265 0.02766 0.0
H2732 H 0.30564 0.26214 0.04819 0.0
H2733 H 0.27468 0.2396 -0.00179 0.0
H2734 H 0.29511 0.24015 0.97725 0.0
H2735 H 0.34807 0.20479 0.94413 0.0
H2736 H 0.34941 0.22326 0.96945 0.0
H2737 H 0.31109 0.22206 0.94046 0.0
H2738 H 0.30968 0.20354 0.91543 0.0
H2739 H 0.3119 0.22817 0.98188 0.0
H2740 H 0.3458 0.24583 0.92279 0.0
H2741 H 0.36567 0.24688 0.89999 0.0
H2742 H 0.39633 0.26131 0.95147 0.0
H2743 H 0.37654 0.26017 0.97464 0.0
C2744 C 0.33323 0.29931 0.98688 0.0
C2745 C 0.34586 0.30966 -0.00157 0.0
C2746 C 0.33058 0.28485 0.98304 0.0
C2747 C 0.34047 0.2804 0.99067 0.0
C2748 C 0.35295 0.29062 0.00253 0.0
C2749 C 0.35557 0.30508 0.0065 0.0
C2750 C 0.33838 0.26554 0.9848 0.0
C2751 C 0.3499 0.26521 0.97345 0.0
C2752 C 0.32459 0.25197 0.98823 0.0
C2753 C 0.31223 0.25152 0.00083 0.0
C2754 C 0.31505 0.25767 0.02098 0.0
C2755 C 0.3034 0.25736 0.03271 0.0
C2756 C 0.28887 0.25086 0.0245 0.0
C2757 C 0.28594 0.24463 0.00455 0.0
C2758 C 0.29755 0.24492 0.99275 0.0
C2759 C 0.33952 0.20795 0.94387 0.0
C2760 C 0.32879 0.2028 0.92791 0.0
C2761 C 0.34036 0.2186 0.95818 0.0
C2762 C 0.33054 0.22428 0.95656 0.0
C2763 C 0.31881 0.21789 0.94201 0.0
C2764 C 0.31798 0.20728 0.92773 0.0
C2765 C 0.33382 0.23834 0.96742 0.0
C2766 C 0.3225 0.23855 0.97947 0.0
C2767 C 0.3477 0.25189 0.96441 0.0
C2768 C 0.35965 0.25274 0.95049 0.0
C2769 C 0.35675 0.24913 0.92927 0.0
C2770 C 0.36799 0.24975 0.91628 0.0
C2771 C 0.38223 0.2541 0.92429 0.0
C2772 C 0.38528 0.2579 0.9453 0.0
C2773 C 0.37405 0.25728 0.95837 0.0
H2774 H 0.39093 0.25457 0.91421 0.0
H2775 H 0.27987 0.25064 0.0336 0.0
H2776 H 0.69779 0.02812 0.98929 0.0
H2777 H 0.72351 0.04506 0.97668 0.0
H2778 H 0.72208 0.08283 0.0027 0.0
H2779 H 0.69645 0.06611 0.01507 0.0
H2780 H 0.73155 0.08817 0.96355 0.0
H2781 H 0.74381 0.06966 0.0243 0.0
H2782 H 0.74256 0.05024 0.04771 0.0
H2783 H 0.75936 0.0341 -0.00109 0.0
H2784 H 0.76051 0.05329 0.9751 0.0
H2785 H 0.80494 0.14258 0.9374 0.0
H2786 H 0.78502 0.12638 0.96201 0.0
H2787 H 0.78347 0.08744 0.93475 0.0
H2788 H 0.80351 0.10361 0.91042 0.0
H2789 H 0.77635 0.08324 0.97655 0.0
H2790 H 0.76189 0.09932 0.91531 0.0
H2791 H 0.76307 0.11808 0.89067 0.0
H2792 H 0.74971 0.13768 0.93917 0.0
H2793 H 0.74874 0.11919 0.96421 0.0
C2794 C 0.70301 0.04001 0.99252 0.0
C2795 C 0.69498 0.04573 0.00312 0.0
C2796 C 0.71775 0.04969 0.98537 0.0
C2797 C 0.72479 0.06524 0.98883 0.0
C2798 C 0.71691 0.0709 -0.0002 0.0
C2799 C 0.70222 0.06128 0.0069 0.0
C2800 C 0.73996 0.07579 0.97993 0.0
C2801 C 0.74139 0.08724 0.96676 0.0
C2802 C 0.75274 0.07434 0.98356 0.0
C2803 C 0.75211 0.06283 -0.00214 0.0
C2804 C 0.74712 0.06189 0.01851 0.0
C2805 C 0.74646 0.05094 0.03186 0.0
C2806 C 0.75084 0.04092 0.02479 0.0
C2807 C 0.75595 0.04186 0.00436 0.0
C2808 C 0.75663 0.05278 0.99094 0.0
C2809 C 0.80081 0.13064 0.93729 0.0
C2810 C 0.80564 0.12432 0.92189 0.0
C2811 C 0.78934 0.12137 0.95123 0.0
C2812 C 0.78252 0.10566 0.94989 0.0
C2813 C 0.78849 0.0995 0.93601 0.0
C2814 C 0.79993 0.10874 0.92209 0.0
C2815 C 0.76789 0.09567 0.9605 0.0
C2816 C 0.76653 0.08427 0.97371 0.0
C2817 C 0.75507 0.09701 0.95678 0.0
C2818 C 0.75541 0.10799 0.94168 0.0
C2819 C 0.75931 0.1077 0.92075 0.0
C2820 C 0.75993 0.11827 0.90671 0.0
C2821 C 0.7565 0.12909 0.91336 0.0
C2822 C 0.75239 0.12931 0.93405 0.0
C2823 C 0.75181 0.11879 0.94818 0.0
H2824 H 0.75698 0.13727 0.90246 0.0
H2825 H 0.75032 0.03245 0.03515 0.0
H2826 H 0.65433 0.96608 0.06034 0.0
H2827 H 0.65734 0.94514 0.07049 0.0
H2828 H 0.65746 0.93359 0.00595 0.0
H2829 H 0.65353 0.95425 -0.00428 0.0
H2830 H 0.64266 0.90903 0.02642 0.0
H2831 H 0.69098 0.95223 0.03703 0.0
H2832 H 0.70971 0.97753 0.04947 0.0
H2833 H 0.69732 0.96318 0.1127 0.0
H2834 H 0.67835 0.93787 0.10064 0.0
H2835 H 0.68339 0.87171 0.0759 0.0
H2836 H 0.67888 0.88795 0.05274 0.0
H2837 H 0.64627 0.8867 0.09633 0.0
H2838 H 0.65051 0.87038 0.11914 0.0
H2839 H 0.68033 0.91728 0.0805 0.0
H2840 H 0.62781 0.87518 0.06582 0.0
H2841 H 0.61084 0.84987 0.05167 0.0
H2842 H 0.63468 0.86286 0.99342 0.0
H2843 H 0.65192 0.8882 0.00739 0.0
C2844 C 0.65504 0.95913 0.04826 0.0
C2845 C 0.65387 0.96193 0.0272 0.0
C2846 C 0.65687 0.94717 0.05409 0.0
C2847 C 0.65811 0.93797 0.03901 0.0
C2848 C 0.65668 0.94057 0.01791 0.0
C2849 C 0.65448 0.9524 0.01206 0.0
C2850 C 0.66066 0.92559 0.04557 0.0
C2851 C 0.65108 0.91096 0.038 0.0
C2852 C 0.67173 0.92793 0.06056 0.0
C2853 C 0.68317 0.94316 0.0679 0.0
C2854 C 0.69218 0.9545 0.05358 0.0
C2855 C 0.70285 0.96884 0.06057 0.0
C2856 C 0.70469 0.97197 0.08186 0.0
C2857 C 0.69588 0.96075 0.09621 0.0
C2858 C 0.68518 0.94639 0.08931 0.0
C2859 C 0.67475 0.87433 0.07998 0.0
C2860 C 0.66722 0.86974 0.0992 0.0
C2861 C 0.67225 0.88367 0.06685 0.0
C2862 C 0.66215 0.8884 0.07279 0.0
C2863 C 0.65391 0.88297 0.0913 0.0
C2864 C 0.65633 0.87363 0.10429 0.0
C2865 C 0.66201 0.90092 0.06192 0.0
C2866 C 0.67211 0.91554 0.06867 0.0
C2867 C 0.65163 0.89862 0.04606 0.0
C2868 C 0.64125 0.88347 0.03772 0.0
C2869 C 0.62953 0.87257 0.05009 0.0
C2870 C 0.61984 0.85824 0.04208 0.0
C2871 C 0.62172 0.85474 0.02168 0.0
C2872 C 0.63326 0.86558 0.00923 0.0
C2873 C 0.64299 0.87992 0.01718 0.0
H2874 H 0.6142 0.84364 0.0155 0.0
H2875 H 0.71296 0.98308 0.08723 0.0
H2876 H 0.01967 0.69901 0.03266 0.0
H2877 H 0.04078 0.72442 0.03869 0.0
H2878 H 0.07121 0.71247 0.00986 0.0
H2879 H 0.05007 0.687 0.00359 0.0
H2880 H 0.08053 0.72552 0.04907 0.0
H2881 H 0.06399 0.73623 0.98538 0.0
H2882 H 0.04551 0.73625 0.96118 0.0
H2883 H 0.03604 0.76201 0.00476 0.0
H2884 H 0.05432 0.76197 0.02937 0.0
H2885 H 0.14217 0.79635 0.0687 0.0
H2886 H 0.12445 0.77645 0.04529 0.0
H2887 H 0.08837 0.78244 0.06828 0.0
H2888 H 0.1061 0.80237 0.09149 0.0
H2889 H 0.08366 0.77303 0.02739 0.0
H2890 H 0.09545 0.75893 0.09258 0.0
H2891 H 0.11249 0.75876 0.11922 0.0
H2892 H 0.129 0.73885 0.07555 0.0
H2893 H 0.11217 0.7391 0.04854 0.0
C2894 C 0.03082 0.70184 0.02732 0.0
C2895 C 0.0332 0.69097 0.01767 0.0
C2896 C 0.04287 0.71639 0.0307 0.0
C2897 C 0.05757 0.72038 0.02463 0.0
C2898 C 0.05995 0.70965 0.0146 0.0
C2899 C 0.04785 0.69512 0.01098 0.0
C2900 C 0.07054 0.73535 0.03027 0.0
C2901 C 0.08142 0.73591 0.04389 0.0
C2902 C 0.07142 0.7489 0.02409 0.0
C2903 C 0.06046 0.749 0.00929 0.0
C2904 C 0.05789 0.7418 0.98988 0.0
C2905 C 0.04746 0.74184 0.97607 0.0
C2906 C 0.03959 0.7491 0.98144 0.0
C2907 C 0.04215 0.75638 0.00062 0.0
C2908 C 0.05256 0.75638 0.0145 0.0
C2909 C 0.13063 0.79392 0.06791 0.0
C2910 C 0.12547 0.80092 0.08168 0.0
C2911 C 0.12047 0.78246 0.05472 0.0
C2912 C 0.10503 0.77777 0.05532 0.0
C2913 C 0.10021 0.78586 0.06753 0.0
C2914 C 0.11035 0.79729 0.08071 0.0
C2915 C 0.09363 0.76316 0.0461 0.0
C2916 C 0.08296 0.76264 0.03209 0.0
C2917 C 0.09273 0.74958 0.05222 0.0
C2918 C 0.10269 0.7492 0.06848 0.0
C2919 C 0.10279 0.75461 0.08862 0.0
C2920 C 0.1124 0.7545 0.10379 0.0
C2921 C 0.12187 0.74885 0.09906 0.0
C2922 C 0.12169 0.74326 0.07917 0.0
C2923 C 0.11211 0.74338 0.06393 0.0
H2924 H 0.12931 0.74878 0.11082 0.0
H2925 H 0.03152 0.74911 0.97073 0.0
H2926 H 0.30573 0.33364 0.02768 0.0
H2927 H 0.27975 0.32394 0.0397 0.0
H2928 H 0.28335 0.36631 0.02516 0.0
H2929 H 0.30924 0.37613 0.01336 0.0
H2930 H 0.27177 0.3569 0.06326 0.0
H2931 H 0.26288 0.33547 0.99457 0.0
H2932 H 0.26522 0.32078 0.966 0.0
H2933 H 0.24478 0.28134 0.00425 0.0
H2934 H 0.2425 0.29584 0.03316 0.0
H2935 H 0.19848 0.33817 0.08258 0.0
H2936 H 0.21868 0.34281 0.05804 0.0
H2937 H 0.21791 0.303 0.07955 0.0
H2938 H 0.19772 0.29835 0.10412 0.0
H2939 H 0.22727 0.31056 0.03641 0.0
H2940 H 0.23832 0.33175 0.10549 0.0
H2941 H 0.23546 0.3456 0.13477 0.0
H2942 H 0.25222 0.38489 0.09659 0.0
H2943 H 0.25486 0.37114 0.06693 0.0
C2944 C 0.30098 0.34088 0.027 0.0
C2945 C 0.30961 0.35569 0.01959 0.0
C2946 C 0.2861 0.33528 0.03375 0.0
C2947 C 0.27956 0.34436 0.03315 0.0
C2948 C 0.28815 0.3591 0.02574 0.0
C2949 C 0.30297 0.36469 0.01898 0.0
C2950 C 0.26403 0.33881 0.04107 0.0
C2951 C 0.26204 0.3469 0.05711 0.0
C2952 C 0.25135 0.32553 0.03348 0.0
C2953 C 0.25266 0.31678 0.0161 0.0
C2954 C 0.259 0.32369 -0.00305 0.0
C2955 C 0.26029 0.31539 0.98068 0.0
C2956 C 0.25518 0.30015 0.98333 0.0
C2957 C 0.24874 0.29315 0.00223 0.0
C2958 C 0.24743 0.3014 0.01855 0.0
C2959 C 0.20208 0.33 0.08128 0.0
C2960 C 0.19669 0.31799 0.0953 0.0
C2961 C 0.21367 0.3327 0.06736 0.0
C2962 C 0.21995 0.32339 0.0673 0.0
C2963 C 0.21323 0.31031 0.07938 0.0
C2964 C 0.20171 0.30767 0.09341 0.0
C2965 C 0.23511 0.32882 0.05822 0.0
C2966 C 0.23704 0.32065 0.04226 0.0
C2967 C 0.24782 0.34196 0.06598 0.0
C2968 C 0.24663 0.35038 0.08393 0.0
C2969 C 0.24129 0.34331 0.1033 0.0
C2970 C 0.23971 0.35114 0.11996 0.0
C2971 C 0.24362 0.3661 0.11753 0.0
C2972 C 0.24917 0.37328 0.09844 0.0
C2973 C 0.2507 0.36548 0.08169 0.0
H2974 H 0.24239 0.37215 0.13044 0.0
H2975 H 0.25619 0.29374 0.97071 0.0
H2976 H 0.72327 0.69727 0.33624 0.0
H2977 H 0.74486 0.69477 0.34634 0.0
H2978 H 0.71844 0.66495 0.39604 0.0
H2979 H 0.69691 0.66739 0.3861 0.0
H2980 H 0.74546 0.68664 0.40979 0.0
H2981 H 0.7267 0.65154 0.35315 0.0
H2982 H 0.71859 0.64321 0.31714 0.0
H2983 H 0.76267 0.67568 0.29464 0.0
H2984 H 0.77098 0.68435 0.33053 0.0
H2985 H 0.79123 0.64883 0.41854 0.0
H2986 H 0.77378 0.65236 0.3968 0.0
H2987 H 0.79829 0.69969 0.41084 0.0
H2988 H 0.81562 0.69609 0.43273 0.0
H2989 H 0.77277 0.66948 0.36397 0.0
H2990 H 0.77179 0.70873 0.42697 0.0
H2991 H 0.77859 0.71518 0.46384 0.0
H2992 H 0.7715 0.67118 0.47497 0.0
H2993 H 0.7644 0.66436 0.43831 0.0
C2994 C 0.72202 0.69006 0.34918 0.0
C2995 C 0.70835 0.68255 0.36037 0.0
C2996 C 0.73436 0.68861 0.35491 0.0
C2997 C 0.73329 0.67966 0.37196 0.0
C2998 C 0.71957 0.67196 0.38288 0.0
C2999 C 0.70724 0.67333 0.37711 0.0
C3000 C 0.74658 0.6788 0.37913 0.0
C3001 C 0.75146 0.68297 0.39969 0.0
C3002 C 0.75438 0.67388 0.36607 0.0
C3003 C 0.74941 0.6687 0.3445 0.0
C3004 C 0.73462 0.657 0.34051 0.0
C3005 C 0.72999 0.6522 0.32012 0.0
C3006 C 0.74009 0.65894 0.30361 0.0
C3007 C 0.75485 0.67048 0.30745 0.0
C3008 C 0.75953 0.67534 0.32781 0.0
C3009 C 0.79336 0.66009 0.41602 0.0
C3010 C 0.80488 0.67223 0.427 0.0
C3011 C 0.78331 0.6621 0.40373 0.0
C3012 C 0.78457 0.67625 0.40248 0.0
C3013 C 0.79703 0.68866 0.41172 0.0
C3014 C 0.80705 0.68664 0.42401 0.0
C3015 C 0.77171 0.67753 0.39449 0.0
C3016 C 0.76688 0.67338 0.3739 0.0
C3017 C 0.76378 0.68227 0.40759 0.0
C3018 C 0.76777 0.68612 0.4298 0.0
C3019 C 0.77164 0.70042 0.4373 0.0
C3020 C 0.77555 0.70413 0.45817 0.0
C3021 C 0.77557 0.69362 0.47171 0.0
C3022 C 0.77162 0.67935 0.46442 0.0
C3023 C 0.76763 0.67554 0.44361 0.0
H3024 H 0.77858 0.69649 0.48786 0.0
H3025 H 0.73649 0.65521 0.28783 0.0
H3026 H 0.33187 0.02878 0.35211 0.0
H3027 H 0.34121 0.05414 0.36574 0.0
H3028 H 0.29647 0.04772 0.36136 0.0
H3029 H 0.28715 0.02262 0.34735 0.0
H3030 H 0.31644 0.07509 0.34901 0.0
H3031 H 0.31108 0.0442 0.40798 0.0
H3032 H 0.31542 0.02665 0.4285 0.0
H3033 H 0.36305 0.05827 0.42865 0.0
H3034 H 0.35902 0.07593 0.40789 0.0
H3035 H 0.32107 0.12822 0.42563 0.0
H3036 H 0.31532 0.10714 0.4023 0.0
H3037 H 0.36146 0.11742 0.40652 0.0
H3038 H 0.36715 0.13834 0.4299 0.0
H3039 H 0.34235 0.08907 0.41716 0.0
H3040 H 0.34698 0.12104 0.36059 0.0
H3041 H 0.34194 0.13849 0.34107 0.0
H3042 H 0.29498 0.10487 0.33739 0.0
H3043 H 0.2997 0.08728 0.35715 0.0
C3044 C 0.32403 0.03278 0.35399 0.0
C3045 C 0.30873 0.02359 0.34873 0.0
C3046 C 0.32938 0.04728 0.36183 0.0
C3047 C 0.31951 0.05281 0.3648 0.0
C3048 C 0.30433 0.04376 0.35918 0.0
C3049 C 0.299 0.02934 0.35125 0.0
C3050 C 0.3248 0.06781 0.37435 0.0
C3051 C 0.32201 0.07811 0.36399 0.0
C3052 C 0.33232 0.07191 0.39371 0.0
C3053 C 0.33477 0.0613 0.40618 0.0
C3054 C 0.32249 0.04735 0.41225 0.0
C3055 C 0.32489 0.0374 0.42395 0.0
C3056 C 0.33951 0.04132 0.42982 0.0
C3057 C 0.35175 0.05523 0.42405 0.0
C3058 C 0.34941 0.06522 0.41233 0.0
C3059 C 0.33008 0.12629 0.42093 0.0
C3060 C 0.34454 0.13486 0.42954 0.0
C3061 C 0.32679 0.11421 0.40767 0.0
C3062 C 0.33795 0.11063 0.40273 0.0
C3063 C 0.35265 0.1199 0.41019 0.0
C3064 C 0.35592 0.13189 0.42343 0.0
C3065 C 0.33399 0.09637 0.39186 0.0
C3066 C 0.33695 0.08616 0.40205 0.0
C3067 C 0.32655 0.09235 0.37245 0.0
C3068 C 0.32368 0.10289 0.36052 0.0
C3069 C 0.33556 0.11741 0.35577 0.0
C3070 C 0.33276 0.12732 0.34463 0.0
C3071 C 0.31815 0.12281 0.33804 0.0
C3072 C 0.3063 0.10836 0.34252 0.0
C3073 C 0.30903 0.09841 0.35367 0.0
H3074 H 0.31601 0.13049 0.32941 0.0
H3075 H 0.34134 0.0336 0.43888 0.0
H3076 H 0.97707 0.27143 0.34456 0.0
H3077 H 0.95099 0.25539 0.35579 0.0
H3078 H 0.95065 0.29382 0.38139 0.0
H3079 H 0.97689 0.3101 0.37011 0.0
H3080 H 0.93926 0.26954 0.40852 0.0
H3081 H 0.93171 0.27868 0.33806 0.0
H3082 H 0.93572 0.28015 0.30012 0.0
H3083 H 0.91996 0.23296 0.29787 0.0
H3084 H 0.91606 0.23124 0.33586 0.0
H3085 H 0.86397 0.22767 0.43658 0.0
H3086 H 0.88465 0.2465 0.41521 0.0
H3087 H 0.89079 0.21182 0.38777 0.0
H3088 H 0.86997 0.19293 0.40909 0.0
H3089 H 0.89822 0.23598 0.36033 0.0
H3090 H 0.90943 0.22731 0.42985 0.0
H3091 H 0.90609 0.22495 0.46793 0.0
H3092 H 0.91557 0.27038 0.47191 0.0
H3093 H 0.91886 0.27297 0.4338 0.0
C3094 C 0.97149 0.27654 0.35254 0.0
C3095 C 0.9791 0.29208 0.35645 0.0
C3096 C 0.95652 0.26733 0.35883 0.0
C3097 C 0.94883 0.27343 0.3692 0.0
C3098 C 0.95638 0.28891 0.37329 0.0
C3099 C 0.97136 0.29819 0.36683 0.0
C3100 C 0.93311 0.26344 0.3765 0.0
C3101 C 0.93021 0.26246 0.39793 0.0
C3102 C 0.92142 0.25388 0.36272 0.0
C3103 C 0.9237 0.25486 0.33985 0.0
C3104 C 0.92921 0.26863 0.3295 0.0
C3105 C 0.93144 0.26951 0.30798 0.0
C3106 C 0.92813 0.25666 0.29659 0.0
C3107 C 0.92253 0.2429 0.30671 0.0
C3108 C 0.92029 0.24197 0.32824 0.0
C3109 C 0.86924 0.22401 0.42519 0.0
C3110 C 0.86542 0.20891 0.42433 0.0
C3111 C 0.88113 0.23476 0.41316 0.0
C3112 C 0.88943 0.23057 0.40028 0.0
C3113 C 0.88453 0.21527 0.39766 0.0
C3114 C 0.87258 0.20448 0.4097 0.0
C3115 C 0.90443 0.24212 0.39228 0.0
C3116 C 0.90722 0.24329 0.37082 0.0
C3117 C 0.91611 0.25176 0.40603 0.0
C3118 C 0.91422 0.25028 0.42896 0.0
C3119 C 0.9107 0.23676 0.43883 0.0
C3120 C 0.90885 0.2354 0.46042 0.0
C3121 C 0.91055 0.24749 0.47232 0.0
C3122 C 0.91421 0.26101 0.46267 0.0
C3123 C 0.9161 0.26244 0.44108 0.0
H3124 H 0.90906 0.24639 0.48903 0.0
H3125 H 0.92986 0.25736 0.27993 0.0
H3126 H 0.03264 0.39044 0.34797 0.0
H3127 H 0.02816 0.41066 0.33775 0.0
H3128 H 0.99144 0.37973 0.29862 0.0
H3129 H 0.99597 0.3596 0.30851 0.0
H3130 H 0.01034 0.40431 0.27778 0.0
H3131 H 0.9853 0.39355 0.34411 0.0
H3132 H 0.983 0.38997 0.38211 0.0
H3133 H 0.01894 0.43539 0.39106 0.0
H3134 H 0.0216 0.43918 0.35309 0.0
H3135 H 0.98118 0.44751 0.24583 0.0
H3136 H 0.98131 0.42896 0.26915 0.0
H3137 H 0.0234 0.46319 0.29532 0.0
H3138 H 0.02324 0.48184 0.27193 0.0
H3139 H 0.00212 0.43796 0.32434 0.0
H3140 H 0.02931 0.44759 0.25905 0.0
H3141 H 0.03225 0.45173 0.22119 0.0
H3142 H 0.99246 0.40886 0.2109 0.0
H3143 H 0.98934 0.40444 0.24882 0.0
C3144 C 0.0235 0.38792 0.33739 0.0
C3145 C 0.01472 0.37343 0.32896 0.0
C3146 C 0.0209 0.39947 0.33163 0.0
C3147 C 0.00942 0.39671 0.31746 0.0
C3148 C 0.00038 0.38214 0.30954 0.0
C3149 C 0.00298 0.37064 0.31523 0.0
C3150 C 0.00748 0.40913 0.30959 0.0
C3151 C 0.00832 0.41149 0.28803 0.0
C3152 C 0.00532 0.41885 0.32291 0.0
C3153 C 0.00375 0.4166 0.34574 0.0
C3154 C 0.9928 0.40273 0.35417 0.0
C3155 C 0.99142 0.40068 0.37571 0.0
C3156 C 0.00085 0.41243 0.38899 0.0
C3157 C 0.01166 0.42629 0.38076 0.0
C3158 C 0.0131 0.4284 0.35923 0.0
C3159 C 0.99005 0.4512 0.25731 0.0
C3160 C 0.00216 0.46606 0.25725 0.0
C3161 C 0.99016 0.44061 0.27053 0.0
C3162 C 0.00245 0.44469 0.28378 0.0
C3163 C 0.01379 0.45985 0.28529 0.0
C3164 C 0.01367 0.4705 0.27201 0.0
C3165 C 0.00475 0.43283 0.2927 0.0
C3166 C 0.00407 0.43067 0.31428 0.0
C3167 C 0.00716 0.42327 0.27949 0.0
C3168 C 0.00904 0.42574 0.25672 0.0
C3169 C 0.02116 0.43908 0.24871 0.0
C3170 C 0.02287 0.44146 0.22725 0.0
C3171 C 0.01252 0.43059 0.21365 0.0
C3172 C 0.00047 0.41727 0.22148 0.0
C3173 C 0.99875 0.41479 0.24294 0.0
H3174 H 0.01389 0.43246 0.19705 0.0
H3175 H 0.99975 0.41082 0.40566 0.0
H3176 H 0.60421 0.64827 0.33151 0.0
H3177 H 0.58707 0.6231 0.31851 0.0
H3178 H 0.62386 0.61444 0.3148 0.0
H3179 H 0.64128 0.63992 0.32739 0.0
H3180 H 0.60705 0.60418 0.28117 0.0
H3181 H 0.59663 0.59932 0.35417 0.0
H3182 H 0.59038 0.60586 0.38823 0.0
H3183 H 0.54819 0.59822 0.36417 0.0
H3184 H 0.55429 0.59183 0.32987 0.0
H3185 H 0.56164 0.5281 0.26016 0.0
H3186 H 0.57702 0.54961 0.28276 0.0
H3187 H 0.54382 0.5632 0.2784 0.0
H3188 H 0.52833 0.54153 0.25584 0.0
H3189 H 0.55901 0.56999 0.31776 0.0
H3190 H 0.57029 0.57603 0.2443 0.0
H3191 H 0.57609 0.56826 0.21089 0.0
H3192 H 0.61694 0.57345 0.23638 0.0
H3193 H 0.61117 0.58082 0.2702 0.0
C3194 C 0.60871 0.64104 0.328 0.0
C3195 C 0.62416 0.64614 0.33061 0.0
C3196 C 0.59883 0.62657 0.32066 0.0
C3197 C 0.60407 0.61671 0.31604 0.0
C3198 C 0.61952 0.6218 0.31837 0.0
C3199 C 0.62947 0.63637 0.32558 0.0
C3200 C 0.59343 0.60126 0.30831 0.0
C3201 C 0.59669 0.59664 0.2894 0.0
C3202 C 0.57971 0.59145 0.31876 0.0
C3203 C 0.57598 0.59522 0.3394 0.0
C3204 C 0.58607 0.59914 0.3561 0.0
C3205 C 0.58254 0.6028 0.37546 0.0
C3206 C 0.56891 0.60249 0.37835 0.0
C3207 C 0.55876 0.59847 0.3619 0.0
C3208 C 0.56223 0.59481 0.3425 0.0
C3209 C 0.55732 0.5353 0.26485 0.0
C3210 C 0.54379 0.53316 0.25647 0.0
C3211 C 0.56616 0.54764 0.27759 0.0
C3212 C 0.56169 0.55814 0.28193 0.0
C3213 C 0.54747 0.55523 0.27522 0.0
C3214 C 0.53858 0.54281 0.26247 0.0
C3215 C 0.5727 0.57303 0.29077 0.0
C3216 C 0.56946 0.57754 0.30973 0.0
C3217 C 0.58646 0.58274 0.28041 0.0
C3218 C 0.59022 0.57884 0.25986 0.0
C3219 C 0.58047 0.57544 0.24284 0.0
C3220 C 0.58376 0.57111 0.22381 0.0
C3221 C 0.59687 0.57037 0.2215 0.0
C3222 C 0.60677 0.574 0.2382 0.0
C3223 C 0.60349 0.57824 0.25732 0.0
H3224 H 0.59936 0.56699 0.20676 0.0
H3225 H 0.56621 0.60532 0.39335 0.0
H3226 H 0.3524 0.97028 0.34487 0.0
H3227 H 0.37694 0.97272 0.3375 0.0
H3228 H 0.38347 0.00219 0.28622 0.0
H3229 H 0.35918 7e-05 0.29376 0.0
H3230 H 0.3865 0.96457 0.30519 0.0
H3231 H 0.41981 0.02701 0.27815 0.0
H3232 H 0.42151 0.05104 0.28711 0.0
H3233 H 0.4049 0.03476 0.34856 0.0
H3234 H 0.4033 0.01072 0.34008 0.0
H3235 H 0.44149 0.98009 0.22953 0.0
H3236 H 0.42092 0.97572 0.25284 0.0
H3237 H 0.45313 0.00546 0.29819 0.0
H3238 H 0.47389 0.01018 0.27432 0.0
H3239 H 0.43312 0.01329 0.29171 0.0
H3240 H 0.42943 0.96713 0.30824 0.0
H3241 H 0.4285 0.94314 0.30201 0.0
H3242 H 0.38753 0.92689 0.26739 0.0
H3243 H 0.38831 0.95085 0.27315 0.0
C3244 C 0.35915 0.97742 0.33217 0.0
C3245 C 0.35384 0.98501 0.31994 0.0
C3246 C 0.37316 0.97876 0.32794 0.0
C3247 C 0.38218 0.98777 0.31145 0.0
C3248 C 0.37691 0.99543 0.29931 0.0
C3249 C 0.36295 0.99414 0.30358 0.0
C3250 C 0.39672 0.98862 0.30613 0.0
C3251 C 0.39673 0.97523 0.30242 0.0
C3252 C 0.41024 0.0025 0.30312 0.0
C3253 C 0.41134 0.01702 0.30842 0.0
C3254 C 0.4166 0.02859 0.29362 0.0
C3255 C 0.41752 0.0422 0.2986 0.0
C3256 C 0.41328 0.04441 0.31838 0.0
C3257 C 0.40814 0.03302 0.33323 0.0
C3258 C 0.4072 0.01939 0.32833 0.0
C3259 C 0.44419 0.98534 0.24474 0.0
C3260 C 0.45925 0.99545 0.25019 0.0
C3261 C 0.43241 0.9828 0.25812 0.0
C3262 C 0.43541 0.99017 0.27741 0.0
C3263 C 0.45052 0.99962 0.28342 0.0
C3264 C 0.46238 0.0022 0.26992 0.0
C3265 C 0.4227 0.98924 0.28989 0.0
C3266 C 0.423 0.00263 0.29489 0.0
C3267 C 0.40957 0.97535 0.29451 0.0
C3268 C 0.40896 0.96084 0.29109 0.0
C3269 C 0.42026 0.95847 0.2992 0.0
C3270 C 0.41976 0.94487 0.29576 0.0
C3271 C 0.40797 0.9335 0.2843 0.0
C3272 C 0.39665 0.9357 0.27629 0.0
C3273 C 0.3971 0.94929 0.27967 0.0
H3274 H 0.40761 0.92298 0.28165 0.0
H3275 H 0.41399 0.05495 0.3222 0.0
H3276 H 0.60154 0.95619 0.33221 0.0
H3277 H 0.5845 0.96464 0.32096 0.0
H3278 H 0.6225 0.00886 0.30933 0.0
H3279 H 0.63974 0.00039 0.32027 0.0
H3280 H 0.57845 0.98541 0.33465 0.0
H3281 H 0.61432 0.02403 0.26765 0.0
H3282 H 0.63424 0.02713 0.2431 0.0
H3283 H 0.61868 0.98004 0.24717 0.0
H3284 H 0.59856 0.97664 0.27152 0.0
H3285 H 0.55478 0.02525 0.24955 0.0
H3286 H 0.57316 0.02416 0.27242 0.0
H3287 H 0.54 0.97863 0.28886 0.0
H3288 H 0.52159 0.97991 0.26632 0.0
H3289 H 0.58336 0.00615 0.26381 0.0
H3290 H 0.54925 0.96806 0.33343 0.0
H3291 H 0.52871 0.96439 0.35713 0.0
H3292 H 0.53981 0.00989 0.34702 0.0
H3293 H 0.56055 0.01391 0.3235 0.0
C3294 C 0.60633 0.96773 0.32728 0.0
C3295 C 0.62207 0.97757 0.32702 0.0
C3296 C 0.59653 0.97257 0.32095 0.0
C3297 C 0.60217 0.98736 0.31416 0.0
C3298 C 0.61786 0.99733 0.31425 0.0
C3299 C 0.62772 0.99248 0.32053 0.0
C3300 C 0.59158 0.99206 0.30639 0.0
C3301 C 0.57947 0.98988 0.31912 0.0
C3302 C 0.59309 0.99826 0.28633 0.0
C3303 C 0.60508 0.00013 0.27161 0.0
C3304 C 0.61515 0.01434 0.26327 0.0
C3305 C 0.62647 0.01615 0.24939 0.0
C3306 C 0.62776 0.0038 0.24365 0.0
C3307 C 0.61771 0.98961 0.25171 0.0
C3308 C 0.60636 0.98774 0.26556 0.0
C3309 C 0.55123 0.01533 0.25895 0.0
C3310 C 0.53673 0.00276 0.25656 0.0
C3311 C 0.56178 0.01462 0.27179 0.0
C3312 C 0.55803 0.00131 0.28237 0.0
C3313 C 0.54314 0.98913 0.28119 0.0
C3314 C 0.53257 0.98987 0.2684 0.0
C3315 C 0.57008 0.99936 0.29197 0.0
C3316 C 0.58245 0.00197 0.27951 0.0
C3317 C 0.56874 0.9935 0.31223 0.0
C3318 C 0.55639 0.99124 0.32656 0.0
C3319 C 0.54736 0.97731 0.33634 0.0
C3320 C 0.53567 0.97516 0.34973 0.0
C3321 C 0.53293 0.98688 0.35354 0.0
C3322 C 0.54191 0.0008 0.344 0.0
C3323 C 0.55362 0.00301 0.33061 0.0
H3324 H 0.52387 0.9852 0.3639 0.0
H3325 H 0.63654 0.00523 0.23292 0.0
H3326 H 0.03697 0.64957 0.34792 0.0
H3327 H 0.03594 0.62619 0.33771 0.0
H3328 H 0.99724 0.61447 0.29938 0.0
H3329 H 0.99825 0.63778 0.30929 0.0
H3330 H 0.01457 0.59521 0.33842 0.0
H3331 H 0.00254 0.60236 0.25348 0.0
H3332 H 0.00636 0.62234 0.22906 0.0
H3333 H 0.04528 0.65432 0.26339 0.0
H3334 H 0.04186 0.63445 0.28775 0.0
H3335 H 0.99089 0.53084 0.2714 0.0
H3336 H 0.99476 0.55157 0.29425 0.0
H3337 H 0.03864 0.57979 0.26665 0.0
H3338 H 0.03466 0.55912 0.24375 0.0
H3339 H 0.02111 0.59158 0.26255 0.0
H3340 H 0.03509 0.57063 0.31811 0.0
H3341 H 0.03224 0.55084 0.34214 0.0
H3342 H 0.99146 0.54691 0.36664 0.0
H3343 H 0.99395 0.56653 0.34254 0.0
C3344 C 0.02806 0.64187 0.33763 0.0
C3345 C 0.0178 0.64562 0.32922 0.0
C3346 C 0.02748 0.62851 0.33185 0.0
C3347 C 0.01666 0.61871 0.31755 0.0
C3348 C 0.00581 0.62197 0.31023 0.0
C3349 C 0.0064 0.6353 0.31594 0.0
C3350 C 0.01753 0.60588 0.3087 0.0
C3351 C 0.01599 0.59437 0.32184 0.0
C3352 C 0.01963 0.60492 0.28711 0.0
C3353 C 0.02188 0.61694 0.27248 0.0
C3354 C 0.01196 0.61364 0.25573 0.0
C3355 C 0.01405 0.62494 0.24191 0.0
C3356 C 0.02603 0.6396 0.2447 0.0
C3357 C 0.03598 0.64297 0.26127 0.0
C3358 C 0.03397 0.63169 0.27509 0.0
C3359 C 0.00162 0.54126 0.27098 0.0
C3360 C 0.01259 0.54339 0.25615 0.0
C3361 C 0.00381 0.55312 0.28394 0.0
C3362 C 0.017 0.56726 0.28215 0.0
C3363 C 0.02841 0.56899 0.26833 0.0
C3364 C 0.02621 0.55717 0.25541 0.0
C3365 C 0.01793 0.58069 0.29216 0.0
C3366 C 0.01974 0.59235 0.27916 0.0
C3367 C 0.01615 0.58174 0.31383 0.0
C3368 C 0.01465 0.56997 0.32839 0.0
C3369 C 0.02545 0.56546 0.3285 0.0
C3370 C 0.02391 0.55429 0.34216 0.0
C3371 C 0.01166 0.5476 0.35588 0.0
C3372 C 0.00094 0.55209 0.356 0.0
C3373 C 0.00242 0.56325 0.34236 0.0
H3374 H 0.01049 0.53895 0.36644 0.0
H3375 H 0.02762 0.64834 0.23401 0.0
H3376 H 0.36331 0.39883 0.34244 0.0
H3377 H 0.3888 0.41552 0.32962 0.0
H3378 H 0.39171 0.3774 0.3087 0.0
H3379 H 0.36607 0.36045 0.32175 0.0
H3380 H 0.41839 0.39924 0.3265 0.0
H3381 H 0.38423 0.39654 0.27426 0.0
H3382 H 0.36256 0.39759 0.26012 0.0
H3383 H 0.38282 0.44373 0.2788 0.0
H3384 H 0.40453 0.44289 0.29333 0.0
H3385 H 0.47395 0.43605 0.24641 0.0
H3386 H 0.45334 0.42039 0.27031 0.0
H3387 H 0.45136 0.45927 0.29009 0.0
H3388 H 0.47199 0.47496 0.26602 0.0
H3389 H 0.42475 0.43736 0.27456 0.0
H3390 H 0.46035 0.44008 0.32442 0.0
H3391 H 0.48204 0.43838 0.33695 0.0
H3392 H 0.45932 0.39162 0.32085 0.0
H3393 H 0.43757 0.39307 0.30795 0.0
C3394 C 0.36934 0.39392 0.33523 0.0
C3395 C 0.36253 0.37826 0.33297 0.0
C3396 C 0.38395 0.40352 0.32788 0.0
C3397 C 0.39211 0.39774 0.31795 0.0
C3398 C 0.38561 0.3821 0.31629 0.0
C3399 C 0.37093 0.37244 0.32368 0.0
C3400 C 0.4071 0.40812 0.30854 0.0
C3401 C 0.41979 0.40749 0.31499 0.0
C3402 C 0.40897 0.41905 0.29377 0.0
C3403 C 0.39592 0.4196 0.28509 0.0
C3404 C 0.384 0.40687 0.27552 0.0
C3405 C 0.37172 0.40744 0.2674 0.0
C3406 C 0.37129 0.42071 0.26862 0.0
C3407 C 0.38316 0.43345 0.27791 0.0
C3408 C 0.39545 0.43294 0.28607 0.0
C3409 C 0.46951 0.44133 0.2565 0.0
C3410 C 0.47455 0.4567 0.25444 0.0
C3411 C 0.45772 0.43238 0.27014 0.0
C3412 C 0.45075 0.43863 0.28196 0.0
C3413 C 0.45658 0.45421 0.28112 0.0
C3414 C 0.46846 0.4632 0.26754 0.0
C3415 C 0.43615 0.42866 0.29267 0.0
C3416 C 0.42345 0.42927 0.28628 0.0
C3417 C 0.43431 0.41764 0.30727 0.0
C3418 C 0.44737 0.41672 0.31505 0.0
C3419 C 0.46003 0.42946 0.32338 0.0
C3420 C 0.47233 0.42854 0.33059 0.0
C3421 C 0.47208 0.41491 0.32965 0.0
C3422 C 0.45951 0.40217 0.32155 0.0
C3423 C 0.44718 0.40303 0.31432 0.0
H3424 H 0.48161 0.41422 0.33524 0.0
H3425 H 0.36178 0.42113 0.26231 0.0
H3426 H 0.33229 0.30214 0.38777 0.0
H3427 H 0.33659 0.28158 0.39533 0.0
H3428 H 0.32362 0.26484 0.33277 0.0
H3429 H 0.3186 0.28517 0.32541 0.0
H3430 H 0.31189 0.24243 0.35684 0.0
H3431 H 0.36175 0.28265 0.35022 0.0
H3432 H 0.38369 0.30805 0.35519 0.0
H3433 H 0.38326 0.29987 0.42063 0.0
H3434 H 0.36119 0.27449 0.41613 0.0
H3435 H 0.35809 0.21036 0.41572 0.0
H3436 H 0.3571 0.22711 0.38956 0.0
H3437 H 0.3122 0.21442 0.41041 0.0
H3438 H 0.31299 0.19743 0.43566 0.0
H3439 H 0.35662 0.25095 0.39691 0.0
H3440 H 0.29201 0.22027 0.37709 0.0
H3441 H 0.27169 0.19471 0.36823 0.0
H3442 H 0.30451 0.18334 0.34801 0.0
H3443 H 0.32504 0.20889 0.35645 0.0
C3444 C 0.33044 0.29415 0.37554 0.0
C3445 C 0.32516 0.29534 0.35594 0.0
C3446 C 0.33302 0.28242 0.37984 0.0
C3447 C 0.33079 0.27176 0.36451 0.0
C3448 C 0.32552 0.27293 0.34487 0.0
C3449 C 0.32268 0.28457 0.34065 0.0
C3450 C 0.33328 0.25909 0.36955 0.0
C3451 C 0.32173 0.24431 0.36543 0.0
C3452 C 0.34641 0.26142 0.37999 0.0
C3453 C 0.35975 0.27667 0.38283 0.0
C3454 C 0.36628 0.28629 0.36569 0.0
C3455 C 0.37874 0.30069 0.36843 0.0
C3456 C 0.38485 0.30557 0.38821 0.0
C3457 C 0.37852 0.29606 0.40531 0.0
C3458 C 0.36605 0.28166 0.40267 0.0
C3459 C 0.34781 0.21072 0.41403 0.0
C3460 C 0.33562 0.20262 0.42768 0.0
C3461 C 0.34729 0.22041 0.39925 0.0
C3462 C 0.33455 0.22208 0.39786 0.0
C3463 C 0.32205 0.2132 0.41069 0.0
C3464 C 0.32253 0.20352 0.42527 0.0
C3465 C 0.33483 0.2343 0.38522 0.0
C3466 C 0.34691 0.24903 0.38792 0.0
C3467 C 0.32243 0.23189 0.37285 0.0
C3468 C 0.31009 0.21652 0.3675 0.0
C3469 C 0.29491 0.21237 0.37061 0.0
C3470 C 0.28334 0.19786 0.3657 0.0
C3471 C 0.28681 0.1874 0.3576 0.0
C3472 C 0.30184 0.19144 0.35434 0.0
C3473 C 0.31345 0.20593 0.35922 0.0
H3474 H 0.27784 0.17617 0.35382 0.0
H3475 H 0.3945 0.31673 0.3903 0.0
H3476 H 0.69291 0.03412 0.36153 0.0
H3477 H 0.71425 0.05919 0.36881 0.0
H3478 H 0.74474 0.04666 0.34173 0.0
H3479 H 0.72339 0.02156 0.3341 0.0
H3480 H 0.75271 0.05915 0.38219 0.0
H3481 H 0.73994 0.07101 0.31646 0.0
H3482 H 0.72297 0.07162 0.2901 0.0
H3483 H 0.71187 0.09738 0.3314 0.0
H3484 H 0.72861 0.09673 0.35814 0.0
H3485 H 0.8115 0.13025 0.41235 0.0
H3486 H 0.79683 0.1104 0.38687 0.0
H3487 H 0.75832 0.11554 0.39848 0.0
H3488 H 0.77303 0.13556 0.42329 0.0
H3489 H 0.75766 0.10728 0.35963 0.0
H3490 H 0.76463 0.09099 0.42684 0.0
H3491 H 0.77963 0.08975 0.45572 0.0
H3492 H 0.7993 0.07154 0.41443 0.0
H3493 H 0.78456 0.07289 0.38523 0.0
C3494 C 0.70413 0.03675 0.35687 0.0
C3495 C 0.70647 0.02585 0.34727 0.0
C3496 C 0.71631 0.05111 0.36096 0.0
C3497 C 0.73107 0.0548 0.3557 0.0
C3498 C 0.73343 0.04404 0.34582 0.0
C3499 C 0.72122 0.02973 0.34144 0.0
C3500 C 0.74403 0.06953 0.36202 0.0
C3501 C 0.75405 0.0697 0.37685 0.0
C3502 C 0.7455 0.08325 0.35545 0.0
C3503 C 0.73547 0.08374 0.33937 0.0
C3504 C 0.7338 0.07671 0.31999 0.0
C3505 C 0.72423 0.07708 0.30497 0.0
C3506 C 0.71633 0.08451 0.30909 0.0
C3507 C 0.718 0.09162 0.32823 0.0
C3508 C 0.72754 0.09127 0.34332 0.0
C3509 C 0.8001 0.12752 0.40879 0.0
C3510 C 0.79332 0.13428 0.41991 0.0
C3511 C 0.79167 0.11609 0.3944 0.0
C3512 C 0.77633 0.1112 0.39115 0.0
C3513 C 0.77007 0.11901 0.40077 0.0
C3514 C 0.77848 0.13043 0.415 0.0
C3515 C 0.76619 0.09689 0.3801 0.0
C3516 C 0.75661 0.09676 0.36451 0.0
C3517 C 0.76487 0.08314 0.38629 0.0
C3518 C 0.77366 0.08222 0.40382 0.0
C3519 C 0.77223 0.08682 0.42391 0.0
C3520 C 0.78068 0.08609 0.44033 0.0
C3521 C 0.79045 0.08061 0.4369 0.0
C3522 C 0.79176 0.07582 0.41705 0.0
C3523 C 0.78337 0.07657 0.40056 0.0
H3524 H 0.79697 0.08005 0.44963 0.0
H3525 H 0.70892 0.08479 0.29743 0.0
H3526 H 0.97717 0.7089 0.33266 0.0
H3527 H 0.95173 0.70018 0.34557 0.0
H3528 H 0.95155 0.66309 0.37624 0.0
H3529 H 0.97703 0.67159 0.36296 0.0
H3530 H 0.92425 0.65437 0.359 0.0
H3531 H 0.95909 0.6943 0.40337 0.0
H3532 H 0.98011 0.71964 0.41172 0.0
H3533 H 0.95587 0.73914 0.38492 0.0
H3534 H 0.93478 0.7139 0.37614 0.0
H3535 H 0.87283 0.64158 0.44199 0.0
H3536 H 0.89209 0.64511 0.41658 0.0
H3537 H 0.8891 0.68136 0.38861 0.0
H3538 H 0.86996 0.67799 0.41435 0.0
H3539 H 0.917 0.69039 0.40149 0.0
H3540 H 0.88054 0.64934 0.3609 0.0
H3541 H 0.85959 0.62363 0.3543 0.0
H3542 H 0.88666 0.6057 0.37589 0.0
H3543 H 0.90771 0.63129 0.38291 0.0
C3544 C 0.97174 0.69884 0.34207 0.0
C3545 C 0.97924 0.69104 0.34696 0.0
C3546 C 0.95717 0.69387 0.34946 0.0
C3547 C 0.9498 0.68111 0.36214 0.0
C3548 C 0.95702 0.67298 0.3665 0.0
C3549 C 0.97161 0.6779 0.35898 0.0
C3550 C 0.93492 0.67674 0.37166 0.0
C3551 C 0.92266 0.66219 0.36843 0.0
C3552 C 0.93277 0.68704 0.38362 0.0
C3553 C 0.94543 0.70222 0.38889 0.0
C3554 C 0.95829 0.704 0.3991 0.0
C3555 C 0.97021 0.71834 0.40394 0.0
C3556 C 0.96934 0.73099 0.3988 0.0
C3557 C 0.95654 0.72933 0.38885 0.0
C3558 C 0.94459 0.71501 0.38395 0.0
C3559 C 0.87589 0.64993 0.42992 0.0
C3560 C 0.86999 0.65958 0.43019 0.0
C3561 C 0.88688 0.65193 0.41536 0.0
C3562 C 0.89212 0.66355 0.40071 0.0
C3563 C 0.88525 0.67233 0.3998 0.0
C3564 C 0.87421 0.67031 0.41437 0.0
C3565 C 0.90621 0.668 0.38882 0.0
C3566 C 0.91844 0.6826 0.39177 0.0
C3567 C 0.90831 0.65768 0.37683 0.0
C3568 C 0.89568 0.64225 0.37257 0.0
C3569 C 0.88199 0.63991 0.3644 0.0
C3570 C 0.87011 0.62536 0.36055 0.0
C3571 C 0.87179 0.61304 0.36471 0.0
C3572 C 0.88538 0.61525 0.37268 0.0
C3573 C 0.8973 0.62978 0.37657 0.0
H3574 H 0.86257 0.60178 0.36172 0.0
H3575 H 0.97858 0.74208 0.40256 0.0
H3576 H 0.38963 0.03377 0.67325 0.0
H3577 H 0.41056 0.03039 0.68402 0.0
H3578 H 0.3808 0.99549 0.72639 0.0
H3579 H 0.35995 0.99885 0.71585 0.0
H3580 H 0.40579 0.0159 0.7455 0.0
H3581 H 0.39366 0.98727 0.68245 0.0
H3582 H 0.3892 0.98276 0.6448 0.0
H3583 H 0.43454 0.01804 0.63214 0.0
H3584 H 0.43921 0.0229 0.66973 0.0
H3585 H 0.45511 0.98082 0.75095 0.0
H3586 H 0.43826 0.98554 0.7296 0.0
H3587 H 0.45824 0.03023 0.7551 0.0
H3588 H 0.47488 0.02538 0.77666 0.0
H3589 H 0.43864 0.00513 0.70075 0.0
H3590 H 0.42898 0.03627 0.76834 0.0
H3591 H 0.43038 0.03838 0.80656 0.0
H3592 H 0.42575 0.99481 0.8109 0.0
H3593 H 0.424 0.99229 0.7727 0.0
C3594 C 0.38751 0.02524 0.68466 0.0
C3595 C 0.37313 0.01664 0.69377 0.0
C3596 C 0.39948 0.02329 0.69075 0.0
C3597 C 0.39727 0.01268 0.70603 0.0
C3598 C 0.3828 0.00378 0.71464 0.0
C3599 C 0.37087 0.0057 0.70855 0.0
C3600 C 0.41014 0.01152 0.71427 0.0
C3601 C 0.41301 0.01362 0.73566 0.0
C3602 C 0.41952 0.00845 0.70149 0.0
C3603 C 0.41673 0.00555 0.6789 0.0
C3604 C 0.40264 0.99416 0.67164 0.0
C3605 C 0.40008 0.99152 0.65031 0.0
C3606 C 0.41156 0.00013 0.63608 0.0
C3607 C 0.42565 0.01139 0.64317 0.0
C3608 C 0.42826 0.01408 0.66449 0.0
C3609 C 0.45633 0.99186 0.75124 0.0
C3610 C 0.46639 0.00282 0.76516 0.0
C3611 C 0.44665 0.99453 0.73915 0.0
C3612 C 0.4468 0.00815 0.741 0.0
C3613 C 0.4578 0.01958 0.75358 0.0
C3614 C 0.46742 0.01688 0.7657 0.0
C3615 C 0.43433 0.00965 0.73198 0.0
C3616 C 0.43153 0.00761 0.7105 0.0
C3617 C 0.42484 0.01261 0.74471 0.0
C3618 C 0.42651 0.01417 0.76764 0.0
C3619 C 0.42829 0.02715 0.77744 0.0
C3620 C 0.4291 0.0284 0.79909 0.0
C3621 C 0.4281 0.01672 0.81112 0.0
C3622 C 0.42649 0.00384 0.80153 0.0
C3623 C 0.42561 0.0025 0.77987 0.0
H3624 H 0.42843 0.01764 0.82787 0.0
H3625 H 0.40956 0.99807 0.61958 0.0
H3626 H 0.98989 0.35448 0.70718 0.0
H3627 H 0.99444 0.37811 0.72276 0.0
H3628 H 0.96254 0.37898 0.68036 0.0
H3629 H 0.95746 0.35512 0.66551 0.0
H3630 H 0.00467 0.4055 0.71184 0.0
H3631 H 0.9435 0.39375 0.70232 0.0
H3632 H 0.91752 0.37213 0.70048 0.0
H3633 H 0.93088 0.34529 0.73486 0.0
H3634 H 0.95687 0.3668 0.73712 0.0
H3635 H 0.00666 0.47178 0.74558 0.0
H3636 H 0.00073 0.45023 0.72294 0.0
H3637 H 0.97239 0.42003 0.77124 0.0
H3638 H 0.97796 0.44143 0.79338 0.0
H3639 H 0.96039 0.40867 0.73569 0.0
H3640 H 0.00959 0.42986 0.76544 0.0
H3641 H 0.03561 0.4499 0.77315 0.0
H3642 H 0.0463 0.45493 0.70796 0.0
H3643 H 0.02025 0.43505 0.69985 0.0
C3644 C 0.98392 0.35978 0.70114 0.0
C3645 C 0.97316 0.35283 0.68533 0.0
C3646 C 0.98655 0.3733 0.71001 0.0
C3647 C 0.9786 0.38022 0.70308 0.0
C3648 C 0.9685 0.3737 0.68645 0.0
C3649 C 0.96565 0.36007 0.6779 0.0
C3650 C 0.9804 0.3939 0.71368 0.0
C3651 C 0.99497 0.40619 0.71693 0.0
C3652 C 0.96779 0.3948 0.72079 0.0
C3653 C 0.95216 0.38184 0.71967 0.0
C3654 C 0.94088 0.38325 0.70953 0.0
C3655 C 0.92615 0.37101 0.70841 0.0
C3656 C 0.92257 0.35733 0.71748 0.0
C3657 C 0.93368 0.35588 0.72777 0.0
C3658 C 0.94841 0.36808 0.72895 0.0
C3659 C 0.99877 0.46054 0.75096 0.0
C3660 C 0.99277 0.45821 0.77116 0.0
C3661 C 0.99553 0.44823 0.73818 0.0
C3662 C 0.98634 0.43347 0.74553 0.0
C3663 C 0.97952 0.43126 0.76517 0.0
C3664 C 0.9827 0.44349 0.77783 0.0
C3665 C 0.98464 0.42028 0.7337 0.0
C3666 C 0.97008 0.40805 0.73027 0.0
C3667 C 0.99726 0.41921 0.72721 0.0
C3668 C 0.01294 0.4311 0.73202 0.0
C3669 C 0.01746 0.43532 0.75274 0.0
C3670 C 0.03221 0.44664 0.75718 0.0
C3671 C 0.04259 0.45371 0.74105 0.0
C3672 C 0.03824 0.44946 0.72044 0.0
C3673 C 0.02348 0.43816 0.71591 0.0
H3674 H 0.05401 0.46247 0.74451 0.0
H3675 H 0.91117 0.34787 0.71658 0.0
H3676 H 0.64288 0.60272 0.67452 0.0
H3677 H 0.61714 0.58631 0.6868 0.0
H3678 H 0.61466 0.62484 0.70691 0.0
H3679 H 0.64057 0.64146 0.69474 0.0
H3680 H 0.60403 0.60289 0.73638 0.0
H3681 H 0.59607 0.60588 0.66381 0.0
H3682 H 0.60025 0.60469 0.62624 0.0
H3683 H 0.58681 0.55818 0.63187 0.0
H3684 H 0.58276 0.55915 0.66954 0.0
H3685 H 0.52903 0.56084 0.76483 0.0
H3686 H 0.5492 0.57828 0.74157 0.0
H3687 H 0.55735 0.54293 0.72272 0.0
H3688 H 0.53703 0.5254 0.74587 0.0
H3689 H 0.564 0.56452 0.69103 0.0
H3690 H 0.57532 0.56225 0.76326 0.0
H3691 H 0.57106 0.56265 0.80098 0.0
H3692 H 0.57845 0.60728 0.79596 0.0
H3693 H 0.58259 0.60707 0.75813 0.0
C3694 C 0.6369 0.60777 0.68152 0.0
C3695 C 0.64383 0.62345 0.68361 0.0
C3696 C 0.62212 0.59834 0.68842 0.0
C3697 C 0.61389 0.60435 0.6975 0.0
C3698 C 0.62078 0.61997 0.69984 0.0
C3699 C 0.63559 0.62945 0.69286 0.0
C3700 C 0.59829 0.5942 0.70519 0.0
C3701 C 0.59521 0.59473 0.72635 0.0
C3702 C 0.58686 0.58327 0.69222 0.0
C3703 C 0.58922 0.58263 0.66954 0.0
C3704 C 0.59412 0.59543 0.65707 0.0
C3705 C 0.59644 0.59479 0.63575 0.0
C3706 C 0.59383 0.58138 0.62668 0.0
C3707 C 0.58884 0.56857 0.63892 0.0
C3708 C 0.58651 0.56915 0.66025 0.0
C3709 C 0.53464 0.55664 0.75493 0.0
C3710 C 0.53157 0.54184 0.75713 0.0
C3711 C 0.54622 0.56662 0.74178 0.0
C3712 C 0.55498 0.56196 0.73083 0.0
C3713 C 0.55075 0.54674 0.73111 0.0
C3714 C 0.53908 0.53671 0.74423 0.0
C3715 C 0.56984 0.57327 0.72212 0.0
C3716 C 0.57279 0.57288 0.7009 0.0
C3717 C 0.58123 0.58427 0.73504 0.0
C3718 C 0.57912 0.58459 0.75785 0.0
C3719 C 0.57597 0.57212 0.77019 0.0
C3720 C 0.5736 0.57232 0.79159 0.0
C3721 C 0.57444 0.58497 0.80085 0.0
C3722 C 0.57777 0.59748 0.78875 0.0
C3723 C 0.58015 0.59734 0.76734 0.0
H3724 H 0.57253 0.58507 0.81741 0.0
H3725 H 0.59564 0.5809 0.61017 0.0
H3726 H 0.65699 0.69264 0.65175 0.0
H3727 H 0.65312 0.71336 0.64278 0.0
H3728 H 0.69961 0.74507 0.65747 0.0
H3729 H 0.70334 0.72432 0.66738 0.0
H3730 H 0.683 0.75674 0.66808 0.0
H3731 H 0.68789 0.7333 0.60673 0.0
H3732 H 0.68233 0.71248 0.5827 0.0
H3733 H 0.63675 0.70293 0.57645 0.0
H3734 H 0.64199 0.72358 0.60068 0.0
H3735 H 0.68892 0.8129 0.59387 0.0
H3736 H 0.69175 0.79551 0.61679 0.0
H3737 H 0.64391 0.76418 0.61286 0.0
H3738 H 0.64112 0.78149 0.59009 0.0
H3739 H 0.66178 0.75313 0.59783 0.0
H3740 H 0.65862 0.77882 0.6585 0.0
H3741 H 0.66598 0.80083 0.68097 0.0
H3742 H 0.71068 0.80778 0.68627 0.0
H3743 H 0.70365 0.78592 0.66357 0.0
C3744 C 0.66633 0.70403 0.65335 0.0
C3745 C 0.68051 0.70684 0.66005 0.0
C3746 C 0.66414 0.71589 0.64813 0.0
C3747 C 0.67618 0.7308 0.64891 0.0
C3748 C 0.69016 0.73368 0.65662 0.0
C3749 C 0.69229 0.72181 0.66223 0.0
C3750 C 0.6744 0.7432 0.64042 0.0
C3751 C 0.67849 0.75601 0.65265 0.0
C3752 C 0.66848 0.7423 0.62028 0.0
C3753 C 0.66529 0.72989 0.60568 0.0
C3754 C 0.67665 0.72669 0.60035 0.0
C3755 C 0.67356 0.71493 0.58668 0.0
C3756 C 0.65919 0.70636 0.5781 0.0
C3757 C 0.64788 0.70956 0.58314 0.0
C3758 C 0.6509 0.7213 0.59682 0.0
C3759 C 0.67896 0.80261 0.59876 0.0
C3760 C 0.6648 0.79853 0.59043 0.0
C3761 C 0.68058 0.79265 0.61173 0.0
C3762 C 0.66804 0.77851 0.61642 0.0
C3763 C 0.65372 0.77502 0.60944 0.0
C3764 C 0.65211 0.78494 0.59658 0.0
C3765 C 0.67006 0.7665 0.62562 0.0
C3766 C 0.66617 0.7538 0.61335 0.0
C3767 C 0.67641 0.7677 0.64548 0.0
C3768 C 0.68065 0.78082 0.65916 0.0
C3769 C 0.67006 0.78512 0.66429 0.0
C3770 C 0.67416 0.79755 0.67711 0.0
C3771 C 0.6888 0.80572 0.685 0.0
C3772 C 0.69935 0.80145 0.68013 0.0
C3773 C 0.69531 0.78903 0.66731 0.0
H3774 H 0.69195 0.81534 0.69492 0.0
H3775 H 0.65682 0.69727 0.56751 0.0
H3776 H 0.30784 0.97586 0.66019 0.0
H3777 H 0.29109 0.95045 0.647 0.0
H3778 H 0.25374 0.95834 0.64824 0.0
H3779 H 0.27024 0.98351 0.66186 0.0
H3780 H 0.24464 0.93122 0.66223 0.0
H3781 H 0.27283 0.95987 0.60249 0.0
H3782 H 0.29577 0.97627 0.5821 0.0
H3783 H 0.30959 0.94355 0.58634 0.0
H3784 H 0.28682 0.92703 0.60699 0.0
H3785 H 0.19558 0.87598 0.58798 0.0
H3786 H 0.21131 0.89764 0.61033 0.0
H3787 H 0.2465 0.88657 0.60858 0.0
H3788 H 0.23091 0.86517 0.58595 0.0
H3789 H 0.25713 0.91443 0.59666 0.0
H3790 H 0.22729 0.88475 0.65418 0.0
H3791 H 0.20383 0.86844 0.67361 0.0
H3792 H 0.19247 0.90306 0.67264 0.0
H3793 H 0.21577 0.91951 0.65295 0.0
C3794 C 0.29606 0.97219 0.65764 0.0
C3795 C 0.29043 0.98179 0.66202 0.0
C3796 C 0.28649 0.95765 0.65006 0.0
C3797 C 0.27114 0.95248 0.64641 0.0
C3798 C 0.2655 0.96201 0.65096 0.0
C3799 C 0.275 0.97646 0.65868 0.0
C3800 C 0.26095 0.93729 0.63751 0.0
C3801 C 0.24732 0.92759 0.6478 0.0
C3802 C 0.26453 0.93238 0.6189 0.0
C3803 C 0.27822 0.9423 0.60648 0.0
C3804 C 0.28083 0.95623 0.59921 0.0
C3805 C 0.29378 0.96553 0.58758 0.0
C3806 C 0.30415 0.96097 0.58298 0.0
C3807 C 0.30157 0.94708 0.58995 0.0
C3808 C 0.28863 0.93774 0.60161 0.0
C3809 C 0.20643 0.87787 0.59309 0.0
C3810 C 0.21202 0.86889 0.58543 0.0
C3811 C 0.21546 0.89028 0.60578 0.0
C3812 C 0.23015 0.89379 0.61113 0.0
C3813 C 0.23526 0.88415 0.60462 0.0
C3814 C 0.22631 0.87185 0.59186 0.0
C3815 C 0.24079 0.90832 0.62136 0.0
C3816 C 0.2545 0.91795 0.61124 0.0
C3817 C 0.23722 0.91317 0.64002 0.0
C3818 C 0.22322 0.90332 0.65193 0.0
C3819 C 0.21974 0.88884 0.65797 0.0
C3820 C 0.20648 0.87958 0.66905 0.0
C3821 C 0.19665 0.88469 0.67431 0.0
C3822 C 0.20009 0.8991 0.66854 0.0
C3823 C 0.21333 0.90841 0.65744 0.0
H3824 H 0.18639 0.8775 0.6829 0.0
H3825 H 0.31418 0.96819 0.57397 0.0
H3826 H 0.02546 0.3063 0.68098 0.0
H3827 H 0.05021 0.31006 0.67128 0.0
H3828 H 0.05574 0.34328 0.62626 0.0
H3829 H 0.03101 0.33951 0.63571 0.0
H3830 H 0.06104 0.32293 0.60913 0.0
H3831 H 0.07652 0.35326 0.67079 0.0
H3832 H 0.0758 0.35876 0.70798 0.0
H3833 H 0.08538 0.32425 0.7244 0.0
H3834 H 0.08597 0.31841 0.68729 0.0
H3835 H 0.14498 0.35779 0.60195 0.0
H3836 H 0.12388 0.35425 0.62402 0.0
H3837 H 0.09874 0.30758 0.60629 0.0
H3838 H 0.11981 0.31116 0.58423 0.0
H3839 H 0.10397 0.33522 0.65599 0.0
H3840 H 0.06456 0.30164 0.58861 0.0
H3841 H 0.06563 0.29781 0.55088 0.0
H3842 H 0.1046 0.34186 0.54528 0.0
H3843 H 0.10362 0.34607 0.58287 0.0
C3844 C 0.03204 0.31457 0.66923 0.0
C3845 C 0.02622 0.32256 0.65906 0.0
C3846 C 0.04622 0.31674 0.66374 0.0
C3847 C 0.05486 0.32697 0.64804 0.0
C3848 C 0.04927 0.33529 0.63837 0.0
C3849 C 0.03513 0.33315 0.64384 0.0
C3850 C 0.0692 0.32826 0.64058 0.0
C3851 C 0.07039 0.32559 0.61944 0.0
C3852 C 0.08147 0.3318 0.65395 0.0
C3853 C 0.08114 0.3353 0.67626 0.0
C3854 C 0.07835 0.34676 0.68233 0.0
C3855 C 0.07799 0.34995 0.7034 0.0
C3856 C 0.0805 0.34183 0.71854 0.0
C3857 C 0.08342 0.33052 0.71265 0.0
C3858 C 0.08378 0.32727 0.6916 0.0
C3859 C 0.13528 0.34661 0.60374 0.0
C3860 C 0.13405 0.33469 0.5917 0.0
C3861 C 0.12318 0.34461 0.6162 0.0
C3862 C 0.10967 0.33071 0.61654 0.0
C3863 C 0.10904 0.31842 0.60617 0.0
C3864 C 0.12113 0.32042 0.59376 0.0
C3865 C 0.09563 0.32969 0.62468 0.0
C3866 C 0.09453 0.33243 0.64583 0.0
C3867 C 0.08344 0.32639 0.61129 0.0
C3868 C 0.08412 0.32407 0.58861 0.0
C3869 C 0.07334 0.31051 0.57931 0.0
C3870 C 0.07393 0.30829 0.55795 0.0
C3871 C 0.08523 0.31956 0.54571 0.0
C3872 C 0.09592 0.33311 0.5548 0.0
C3873 C 0.09535 0.33542 0.57614 0.0
H3874 H 0.08565 0.31784 0.52918 0.0
H3875 H 0.08022 0.34432 0.73485 0.0
H3876 H 0.3085 0.33596 0.65572 0.0
H3877 H 0.29197 0.34469 0.64246 0.0
H3878 H 0.25295 0.30357 0.66298 0.0
H3879 H 0.26926 0.29475 0.6761 0.0
H3880 H 0.25025 0.30992 0.62307 0.0
H3881 H 0.26435 0.33653 0.68851 0.0
H3882 H 0.28228 0.35364 0.71477 0.0
H3883 H 0.30034 0.38973 0.67063 0.0
H3884 H 0.28265 0.37278 0.64402 0.0
H3885 H 0.19358 0.32538 0.6025 0.0
H3886 H 0.21056 0.32256 0.6262 0.0
H3887 H 0.24869 0.36152 0.59912 0.0
H3888 H 0.23174 0.36423 0.57527 0.0
H3889 H 0.25218 0.3573 0.64299 0.0
H3890 H 0.24024 0.33192 0.57767 0.0
H3891 H 0.22363 0.31583 0.54964 0.0
H3892 H 0.20303 0.27839 0.59154 0.0
H3893 H 0.2195 0.29436 0.61991 0.0
C3894 C 0.29641 0.32883 0.65756 0.0
C3895 C 0.29024 0.31462 0.66693 0.0
C3896 C 0.28697 0.33386 0.65005 0.0
C3897 C 0.27121 0.32481 0.65181 0.0
C3898 C 0.26507 0.31075 0.66142 0.0
C3899 C 0.27445 0.30574 0.66896 0.0
C3900 C 0.26099 0.32951 0.64272 0.0
C3901 C 0.25052 0.32015 0.62773 0.0
C3902 C 0.26168 0.34314 0.64821 0.0
C3903 C 0.27228 0.35335 0.66422 0.0
C3904 C 0.27223 0.34809 0.68435 0.0
C3905 C 0.28233 0.35776 0.69931 0.0
C3906 C 0.29247 0.37275 0.69435 0.0
C3907 C 0.29249 0.37811 0.67444 0.0
C3908 C 0.28242 0.36848 0.65942 0.0
C3909 C 0.20549 0.33374 0.60233 0.0
C3910 C 0.21139 0.34502 0.58714 0.0
C3911 C 0.21519 0.33208 0.61576 0.0
C3912 C 0.23089 0.34173 0.61421 0.0
C3913 C 0.23663 0.35399 0.60061 0.0
C3914 C 0.22695 0.35555 0.58702 0.0
C3915 C 0.24128 0.3375 0.62384 0.0
C3916 C 0.25184 0.34698 0.63862 0.0
C3917 C 0.24087 0.32409 0.61798 0.0
C3918 C 0.23101 0.31438 0.60096 0.0
C3919 C 0.23211 0.32028 0.58094 0.0
C3920 C 0.22273 0.31118 0.56498 0.0
C3921 C 0.21223 0.2961 0.56882 0.0
C3922 C 0.21115 0.29008 0.5886 0.0
C3923 C 0.22053 0.29916 0.60462 0.0
H3924 H 0.20496 0.28906 0.55645 0.0
H3925 H 0.30028 0.38023 0.70596 0.0
H3926 H 0.65948 0.96875 0.64709 0.0
H3927 H 0.65482 0.94352 0.64008 0.0
H3928 H 0.69641 0.95458 0.67068 0.0
H3929 H 0.70115 0.97993 0.67783 0.0
H3930 H 0.69379 0.94208 0.6319 0.0
H3931 H 0.66358 0.93027 0.6934 0.0
H3932 H 0.64433 0.93011 0.71659 0.0
H3933 H 0.61028 0.90616 0.67051 0.0
H3934 H 0.62937 0.90636 0.64692 0.0
H3935 H 0.68053 0.87086 0.60555 0.0
H3936 H 0.68356 0.88999 0.63093 0.0
H3937 H 0.64281 0.88726 0.60842 0.0
H3938 H 0.63966 0.86803 0.58343 0.0
H3939 H 0.64665 0.89467 0.64915 0.0
H3940 H 0.67617 0.91077 0.58594 0.0
H3941 H 0.69444 0.91131 0.56044 0.0
H3942 H 0.72877 0.92796 0.60734 0.0
H3943 H 0.71059 0.92727 0.63323 0.0
C3944 C 0.66756 0.96578 0.65256 0.0
C3945 C 0.6807 0.97636 0.66299 0.0
C3946 C 0.66484 0.95131 0.64863 0.0
C3947 C 0.6752 0.94711 0.65501 0.0
C3948 C 0.68823 0.95757 0.66571 0.0
C3949 C 0.6909 0.97203 0.66981 0.0
C3950 C 0.67289 0.93217 0.64909 0.0
C3951 C 0.68366 0.93168 0.63615 0.0
C3952 C 0.65949 0.91863 0.65414 0.0
C3953 C 0.64794 0.91841 0.66834 0.0
C3954 C 0.65201 0.92506 0.68815 0.0
C3955 C 0.64112 0.92495 0.70138 0.0
C3956 C 0.6261 0.91815 0.69501 0.0
C3957 C 0.62193 0.91142 0.67542 0.0
C3958 C 0.63278 0.91151 0.66213 0.0
C3959 C 0.67188 0.87386 0.60674 0.0
C3960 C 0.65993 0.8681 0.59249 0.0
C3961 C 0.67368 0.88489 0.62108 0.0
C3962 C 0.6636 0.89032 0.62122 0.0
C3963 C 0.65076 0.88332 0.60856 0.0
C3964 C 0.64896 0.87233 0.59428 0.0
C3965 C 0.66748 0.90464 0.63185 0.0
C3966 C 0.65697 0.90504 0.64546 0.0
C3967 C 0.68101 0.91817 0.62714 0.0
C3968 C 0.69199 0.91879 0.61157 0.0
C3969 C 0.68759 0.91445 0.59084 0.0
C3970 C 0.69792 0.91479 0.57632 0.0
C3971 C 0.71274 0.91963 0.58228 0.0
C3972 C 0.71727 0.92418 0.60276 0.0
C3973 C 0.70696 0.92381 0.61737 0.0
H3974 H 0.72073 0.91988 0.57101 0.0
H3975 H 0.61768 0.91808 0.70528 0.0
H3976 H 0.03255 0.73456 0.67621 0.0
H3977 H 0.05824 0.75011 0.66322 0.0
H3978 H 0.05965 0.71037 0.64668 0.0
H3979 H 0.03374 0.69464 0.65938 0.0
H3980 H 0.08513 0.75352 0.67303 0.0
H3981 H 0.08023 0.71747 0.60182 0.0
H3982 H 0.0608 0.69891 0.57825 0.0
H3983 H 0.03296 0.71814 0.58976 0.0
H3984 H 0.0523 0.73691 0.61318 0.0
H3985 H 0.14293 0.77372 0.57893 0.0
H3986 H 0.12393 0.75612 0.60343 0.0
H3987 H 0.11705 0.79151 0.6263 0.0
H3988 H 0.13635 0.80915 0.60215 0.0
H3989 H 0.09581 0.74853 0.59909 0.0
H3990 H 0.09948 0.78272 0.67314 0.0
H3991 H 0.11895 0.80189 0.69599 0.0
H3992 H 0.14983 0.7874 0.67806 0.0
H3993 H 0.13049 0.768 0.65534 0.0
C3994 C 0.03829 0.72907 0.66987 0.0
C3995 C 0.03098 0.71331 0.66868 0.0
C3996 C 0.05305 0.73801 0.66256 0.0
C3997 C 0.06086 0.73145 0.65382 0.0
C3998 C 0.05378 0.71571 0.65312 0.0
C3999 C 0.03896 0.70673 0.6604 0.0
C4000 C 0.0761 0.74116 0.64459 0.0
C4001 C 0.08748 0.75249 0.65684 0.0
C4002 C 0.07929 0.73959 0.62361 0.0
C4003 C 0.06762 0.72845 0.60945 0.0
C4004 C 0.06997 0.71774 0.59928 0.0
C4005 C 0.05897 0.70719 0.58595 0.0
C4006 C 0.04562 0.70731 0.58258 0.0
C4007 C 0.04327 0.71802 0.59246 0.0
C4008 C 0.05424 0.7286 0.60578 0.0
C4009 C 0.13787 0.77786 0.58996 0.0
C4010 C 0.14117 0.79278 0.58891 0.0
C4011 C 0.12691 0.76778 0.60378 0.0
C4012 C 0.11896 0.77242 0.61669 0.0
C4013 C 0.12315 0.78766 0.61679 0.0
C4014 C 0.13423 0.79778 0.60305 0.0
C4015 C 0.10492 0.76106 0.62745 0.0
C4016 C 0.09366 0.74943 0.61542 0.0
C4017 C 0.10188 0.76243 0.64858 0.0
C4018 C 0.11355 0.77397 0.6624 0.0
C4019 C 0.11039 0.78356 0.67415 0.0
C4020 C 0.12142 0.79449 0.68706 0.0
C4021 C 0.13563 0.79589 0.68843 0.0
C4022 C 0.13884 0.78634 0.67693 0.0
C4023 C 0.12785 0.77539 0.664 0.0
H4024 H 0.14415 0.80436 0.69843 0.0
H4025 H 0.03712 0.69913 0.57227 0.0
H4026 H 0.98768 0.62219 0.66161 0.0
H4027 H 0.99086 0.60081 0.66995 0.0
H4028 H 0.99453 0.61251 0.73506 0.0
H4029 H 0.99235 0.63421 0.72662 0.0
H4030 H 0.01315 0.60462 0.72881 0.0
H4031 H 0.96086 0.58252 0.70966 0.0
H4032 H 0.93954 0.57711 0.68671 0.0
H4033 H 0.95563 0.55787 0.64134 0.0
H4034 H 0.97715 0.56332 0.66395 0.0
H4035 H 0.97119 0.52484 0.76626 0.0
H4036 H 0.97116 0.54302 0.74225 0.0
H4037 H 0.01818 0.55987 0.72843 0.0
H4038 H 0.01826 0.5418 0.75304 0.0
H4039 H 0.97657 0.55327 0.70412 0.0
H4040 H 0.03648 0.59802 0.73051 0.0
H4041 H 0.054 0.60241 0.75937 0.0
H4042 H 0.01649 0.5752 0.79968 0.0
H4043 H 0.9988 0.57091 0.7712 0.0
C4044 C 0.98925 0.62019 0.67766 0.0
C4045 C 0.98978 0.62989 0.69345 0.0
C4046 C 0.99098 0.60791 0.68246 0.0
C4047 C 0.99278 0.60483 0.70322 0.0
C4048 C 0.99331 0.61459 0.7189 0.0
C4049 C 0.99198 0.62702 0.71407 0.0
C4050 C 0.99397 0.59146 0.70901 0.0
C4051 C 0.0052 0.59344 0.72318 0.0
C4052 C 0.98357 0.57674 0.70198 0.0
C4053 C 0.9707 0.5735 0.68836 0.0
C4054 C 0.95991 0.57724 0.69472 0.0
C4055 C 0.94778 0.57415 0.68179 0.0
C4056 C 0.94626 0.5672 0.66255 0.0
C4057 C 0.95684 0.56329 0.65623 0.0
C4058 C 0.969 0.56637 0.66909 0.0
C4059 C 0.98135 0.53202 0.75743 0.0
C4060 C 0.99473 0.53198 0.76149 0.0
C4061 C 0.98134 0.54243 0.74371 0.0
C4062 C 0.99475 0.55306 0.73384 0.0
C4063 C 0.00775 0.55193 0.73611 0.0
C4064 C 0.00777 0.54151 0.74999 0.0
C4065 C 0.99551 0.5665 0.72414 0.0
C4066 C 0.98471 0.56453 0.70927 0.0
C4067 C 0.00579 0.58118 0.73131 0.0
C4068 C 0.01636 0.58398 0.74864 0.0
C4069 C 0.032 0.59303 0.74555 0.0
C4070 C 0.04195 0.59551 0.76185 0.0
C4071 C 0.03637 0.58905 0.78132 0.0
C4072 C 0.02082 0.58018 0.78459 0.0
C4073 C 0.01083 0.57772 0.76838 0.0
H4074 H 0.04409 0.59095 0.79389 0.0
H4075 H 0.93687 0.56481 0.65257 0.0
H4076 H 0.36594 0.36318 0.71463 0.0
H4077 H 0.38811 0.38756 0.72154 0.0
H4078 H 0.40935 0.38369 0.66569 0.0
H4079 H 0.3872 0.35891 0.65895 0.0
H4080 H 0.42884 0.39329 0.69573 0.0
H4081 H 0.39653 0.40904 0.66896 0.0
H4082 H 0.37302 0.40955 0.66439 0.0
H4083 H 0.37488 0.42306 0.72803 0.0
H4084 H 0.39828 0.42242 0.73309 0.0
H4085 H 0.46745 0.47741 0.73891 0.0
H4086 H 0.45238 0.4585 0.71246 0.0
H4087 H 0.45232 0.42418 0.75047 0.0
H4088 H 0.46759 0.44299 0.77635 0.0
H4089 H 0.42493 0.43717 0.71807 0.0
H4090 H 0.44578 0.39408 0.72465 0.0
H4091 H 0.46996 0.39456 0.72638 0.0
H4092 H 0.49255 0.43781 0.69706 0.0
H4093 H 0.46849 0.43751 0.69486 0.0
C4094 C 0.37525 0.36754 0.70367 0.0
C4095 C 0.37477 0.35909 0.68621 0.0
C4096 C 0.38792 0.38157 0.70758 0.0
C4097 C 0.40036 0.38764 0.69397 0.0
C4098 C 0.39988 0.3793 0.67638 0.0
C4099 C 0.3872 0.36515 0.67252 0.0
C4100 C 0.41408 0.40229 0.69897 0.0
C4101 C 0.42803 0.40295 0.7004 0.0
C4102 C 0.41321 0.41512 0.70436 0.0
C4103 C 0.39916 0.41562 0.70141 0.0
C4104 C 0.39188 0.41204 0.68202 0.0
C4105 C 0.37857 0.41236 0.67934 0.0
C4106 C 0.37245 0.41632 0.69591 0.0
C4107 C 0.37964 0.42 0.7152 0.0
C4108 C 0.39295 0.41969 0.71797 0.0
C4109 C 0.46472 0.46592 0.7411 0.0
C4110 C 0.46865 0.46162 0.75962 0.0
C4111 C 0.45599 0.4551 0.72612 0.0
C4112 C 0.45119 0.43987 0.72938 0.0
C4113 C 0.45606 0.43583 0.74727 0.0
C4114 C 0.46475 0.44659 0.76215 0.0
C4115 C 0.4395 0.42789 0.71592 0.0
C4116 C 0.42588 0.42768 0.71292 0.0
C4117 C 0.4408 0.41564 0.70863 0.0
C4118 C 0.4553 0.41579 0.70966 0.0
C4119 C 0.45588 0.40365 0.71842 0.0
C4120 C 0.46958 0.4039 0.71953 0.0
C4121 C 0.48279 0.41622 0.71187 0.0
C4122 C 0.48232 0.42829 0.70304 0.0
C4123 C 0.46865 0.4281 0.70189 0.0
H4124 H 0.49338 0.41639 0.71275 0.0
H4125 H 0.36214 0.41656 0.69381 0.0
H4126 H 0.63977 4e-05 0.69158 0.0
H4127 H 0.61394 0.99079 0.70414 0.0
H4128 H 0.61893 0.03407 0.6921 0.0
H4129 H 0.64456 0.04339 0.6797 0.0
H4130 H 0.60824 0.0239 0.73107 0.0
H4131 H 0.59765 0.00465 0.66072 0.0
H4132 H 0.59864 0.99002 0.63101 0.0
H4133 H 0.57619 0.9497 0.66737 0.0
H4134 H 0.57525 0.96414 0.69741 0.0
H4135 H 0.53703 0.01192 0.74852 0.0
H4136 H 0.55717 0.01498 0.72489 0.0
H4137 H 0.55141 0.97281 0.74575 0.0
H4138 H 0.53137 0.96982 0.76955 0.0
H4139 H 0.56172 0.98078 0.70202 0.0
H4140 H 0.5741 0.9988 0.77224 0.0
H4141 H 0.57354 0.01225 0.80362 0.0
H4142 H 0.59297 0.05345 0.7692 0.0
H4143 H 0.59362 0.04018 0.73753 0.0
C4144 C 0.63534 0.00756 0.69154 0.0
C4145 C 0.64429 0.02248 0.6847 0.0
C4146 C 0.62055 0.00223 0.6986 0.0
C4147 C 0.6145 0.01173 0.69894 0.0
C4148 C 0.62337 0.02655 0.69197 0.0
C4149 C 0.63805 0.03185 0.68487 0.0
C4150 C 0.59925 0.00666 0.70753 0.0
C4151 C 0.59809 0.0146 0.72448 0.0
C4152 C 0.58601 0.99419 0.69944 0.0
C4153 C 0.58652 0.98551 0.68137 0.0
C4154 C 0.59304 0.99269 0.66244 0.0
C4155 C 0.59357 0.98442 0.64553 0.0
C4156 C 0.58752 0.96895 0.64732 0.0
C4157 C 0.58089 0.96169 0.66601 0.0
C4158 C 0.58034 0.96991 0.68298 0.0
C4159 C 0.53952 0.00294 0.74721 0.0
C4160 C 0.53269 0.99063 0.76073 0.0
C4161 C 0.55108 0.00474 0.73384 0.0
C4162 C 0.55587 0.9942 0.73381 0.0
C4163 C 0.54783 0.98102 0.7455 0.0
C4164 C 0.53637 0.9793 0.75903 0.0
C4165 C 0.57082 0.99832 0.72506 0.0
C4166 C 0.57192 0.99014 0.70838 0.0
C4167 C 0.5841 0.01043 0.73354 0.0
C4168 C 0.58375 0.01848 0.75248 0.0
C4169 C 0.57814 0.01071 0.77132 0.0
C4170 C 0.57783 0.0183 0.78917 0.0
C4171 C 0.58313 0.03368 0.78839 0.0
C4172 C 0.58883 0.04152 0.76977 0.0
C4173 C 0.5892 0.03398 0.75187 0.0
H4174 H 0.58287 0.03953 0.80224 0.0
H4175 H 0.58794 0.96257 0.63421 0.0
loop_
_geom_bond_atom_site_label_1
_geom_bond_atom_site_label_2
_geom_bond_distance
_geom_bond_site_symmetry_2
_ccdc_geom_bond_type
C0 O1 1.306 1_556 S
C0 O3 1.160 . S
O1 C0 1.306 1_554 S
O1 Cd2 2.228 . S
Cd2 O1 2.228 . S
Cd2 O6 2.273 . S
Cd2 O10 2.277 1_554 S
O3 C0 1.160 . S
O3 Cd4 2.203 1_656 S
Cd4 O3 2.203 1_454 S
Cd4 O6 2.411 1_455 S
Cd4 O7 2.333 . S
Cd4 O8 2.352 . S
Cd4 O12 2.277 1_554 S
Cd4 O13 2.356 . S
C5 O10 1.209 1_455 S
C5 O12 1.226 . S
O6 Cd2 2.273 . S
O6 Cd4 2.411 1_655 S
O6 C9 1.320 1_655 S
O7 Cd4 2.333 . S
O7 C9 1.214 . S
O8 Cd4 2.352 . S
O8 C11 1.258 . S
C9 O6 1.320 1_455 S
C9 O7 1.214 . S
O10 Cd2 2.277 1_556 S
O10 C5 1.209 1_655 S
C11 O8 1.258 . S
C11 O13 1.282 . S
O12 Cd4 2.277 1_556 S
O12 C5 1.226 . S
O13 Cd4 2.356 . S
O13 C11 1.282 . S
C14 O15 1.306 . S
C14 O17 1.160 . S
O15 C14 1.306 . S
O15 Cd16 2.228 . S
Cd16 O15 2.228 . S
Cd16 O20 2.273 1_554 S
Cd16 O24 2.277 . S
O17 C14 1.160 . S
O17 Cd18 2.203 . S
Cd18 O17 2.203 . S
Cd18 O20 2.411 1_554 S
Cd18 O21 2.333 1_554 S
Cd18 O22 2.352 1_554 S
Cd18 O26 2.277 . S
Cd18 O27 2.356 . S
C19 O24 1.209 . S
C19 O26 1.226 . S
O20 Cd16 2.273 1_556 S
O20 Cd18 2.411 1_556 S
O20 C23 1.320 . S
O21 Cd18 2.333 1_556 S
O21 C23 1.214 . S
O22 Cd18 2.352 1_556 S
O22 C25 1.258 . S
C23 O20 1.320 . S
C23 O21 1.214 . S
O24 Cd16 2.277 . S
O24 C19 1.209 . S
C25 O22 1.258 . S
C25 O27 1.282 1_556 S
O26 Cd18 2.277 . S
O26 C19 1.226 . S
O27 Cd18 2.356 . S
O27 C25 1.282 1_554 S
C28 O29 1.306 . S
C28 O31 1.160 . S
O29 C28 1.306 . S
O29 Cd30 2.228 . S
Cd30 O29 2.228 . S
Cd30 O34 2.273 1_554 S
Cd30 O38 2.277 . S
O31 C28 1.160 . S
O31 Cd32 2.203 1_565 S
Cd32 O31 2.203 1_545 S
Cd32 O34 2.411 1_544 S
Cd32 O35 2.333 1_554 S
Cd32 O36 2.352 1_554 S
Cd32 O40 2.277 . S
Cd32 O41 2.356 . S
C33 O38 1.209 1_545 S
C33 O40 1.226 . S
O34 Cd30 2.273 1_556 S
O34 Cd32 2.411 1_566 S
O34 C37 1.320 1_565 S
O35 Cd32 2.333 1_556 S
O35 C37 1.214 . S
O36 Cd32 2.352 1_556 S
O36 C39 1.258 . S
C37 O34 1.320 1_545 S
C37 O35 1.214 . S
O38 Cd30 2.277 . S
O38 C33 1.209 1_565 S
C39 O36 1.258 . S
C39 O41 1.282 1_556 S
O40 Cd32 2.277 . S
O40 C33 1.226 . S
O41 Cd32 2.356 . S
O41 C39 1.282 1_554 S
C42 O43 1.306 1_556 S
C42 O45 1.160 . S
O43 C42 1.306 1_554 S
O43 Cd44 2.228 . S
Cd44 O43 2.228 . S
Cd44 O48 2.273 . S
Cd44 O52 2.277 1_554 S
O45 C42 1.160 . S
O45 Cd46 2.203 1_656 S
Cd46 O45 2.203 1_454 S
Cd46 O48 2.411 1_455 S
Cd46 O49 2.333 . S
Cd46 O50 2.352 . S
Cd46 O54 2.277 1_554 S
Cd46 O55 2.356 . S
C47 O52 1.209 1_455 S
C47 O54 1.226 . S
O48 Cd44 2.273 . S
O48 Cd46 2.411 1_655 S
O48 C51 1.320 1_655 S
O49 Cd46 2.333 . S
O49 C51 1.214 . S
O50 Cd46 2.352 . S
O50 C53 1.258 . S
C51 O48 1.320 1_455 S
C51 O49 1.214 . S
O52 Cd44 2.277 1_556 S
O52 C47 1.209 1_655 S
C53 O50 1.258 . S
C53 O55 1.282 . S
O54 Cd46 2.277 1_556 S
O54 C47 1.226 . S
O55 Cd46 2.356 . S
O55 C53 1.282 . S
C56 O57 1.306 . S
C56 O59 1.160 . S
O57 C56 1.306 . S
O57 Cd58 2.228 . S
Cd58 O57 2.228 . S
Cd58 O62 2.273 1_554 S
Cd58 O66 2.277 . S
O59 C56 1.160 . S
O59 Cd60 2.203 . S
Cd60 O59 2.203 . S
Cd60 O62 2.411 1_554 S
Cd60 O63 2.333 1_554 S
Cd60 O64 2.352 1_554 S
Cd60 O68 2.277 . S
Cd60 O69 2.356 . S
C61 O66 1.209 . S
C61 O68 1.226 . S
O62 Cd58 2.273 1_556 S
O62 Cd60 2.411 1_556 S
O62 C65 1.320 . S
O63 Cd60 2.333 1_556 S
O63 C65 1.214 . S
O64 Cd60 2.352 1_556 S
O64 C67 1.258 . S
C65 O62 1.320 . S
C65 O63 1.214 . S
O66 Cd58 2.277 . S
O66 C61 1.209 . S
C67 O64 1.258 . S
C67 O69 1.282 1_556 S
O68 Cd60 2.277 . S
O68 C61 1.226 . S
O69 Cd60 2.356 . S
O69 C67 1.282 1_554 S
C70 O71 1.306 1_556 S
C70 O73 1.160 . S
O71 C70 1.306 1_554 S
O71 Cd72 2.228 . S
Cd72 O71 2.228 . S
Cd72 O76 2.273 . S
Cd72 O80 2.277 1_554 S
O73 C70 1.160 . S
O73 Cd74 2.203 1_546 S
Cd74 O73 2.203 1_564 S
Cd74 O76 2.411 1_565 S
Cd74 O77 2.333 . S
Cd74 O78 2.352 . S
Cd74 O82 2.277 1_554 S
Cd74 O83 2.356 . S
C75 O80 1.177 1_565 S
C75 O82 1.271 . S
O76 Cd72 2.273 . S
O76 Cd74 2.411 1_545 S
O76 C79 1.343 . S
O77 Cd74 2.333 . S
O77 C79 1.165 1_565 S
O78 Cd74 2.352 . S
O78 C81 1.258 . S
C79 O76 1.343 . S
C79 O77 1.165 1_545 S
O80 Cd72 2.277 1_556 S
O80 C75 1.177 1_545 S
C81 O78 1.258 . S
C81 O83 1.282 . S
O82 Cd74 2.277 1_556 S
O82 C75 1.271 . S
O83 Cd74 2.356 . S
O83 C81 1.282 . S
C84 O85 1.306 . S
C84 O87 1.160 . S
O85 C84 1.306 . S
O85 Cd86 2.228 . S
Cd86 O85 2.228 . S
Cd86 O90 2.273 . S
Cd86 O94 2.277 . S
O87 C84 1.160 . S
O87 Cd88 2.203 . S
Cd88 O87 2.203 . S
Cd88 O90 2.411 . S
Cd88 O91 2.333 . S
Cd88 O92 2.352 . S
Cd88 O96 2.277 . S
Cd88 O97 2.356 . S
C89 O94 1.209 . S
C89 O96 1.226 . S
O90 Cd86 2.273 . S
O90 Cd88 2.411 . S
O90 C93 1.320 . S
O91 Cd88 2.333 . S
O91 C93 1.214 . S
O92 Cd88 2.352 . S
O92 C95 1.258 . S
C93 O90 1.320 . S
C93 O91 1.214 . S
O94 Cd86 2.277 . S
O94 C89 1.209 . S
C95 O92 1.258 . S
C95 O97 1.282 . S
O96 Cd88 2.277 . S
O96 C89 1.226 . S
O97 Cd88 2.356 . S
O97 C95 1.282 . S
C98 O99 1.306 . S
C98 O101 1.160 . S
O99 C98 1.306 . S
O99 Cd100 2.228 1_545 S
Cd100 O99 2.228 1_565 S
Cd100 O104 2.273 . S
Cd100 O108 2.277 . S
O101 C98 1.160 . S
O101 Cd102 2.203 1_545 S
Cd102 O101 2.203 1_565 S
Cd102 O104 2.411 . S
Cd102 O105 2.333 . S
Cd102 O106 2.352 . S
Cd102 O110 2.277 . S
Cd102 O111 2.356 . S
C103 O108 1.209 . S
C103 O110 1.226 . S
O104 Cd100 2.273 . S
O104 Cd102 2.411 . S
O104 C107 1.320 . S
O105 Cd102 2.333 . S
O105 C107 1.214 . S
O106 Cd102 2.352 . S
O106 C109 1.258 . S
C107 O104 1.320 . S
C107 O105 1.214 . S
O108 Cd100 2.277 . S
O108 C103 1.209 . S
C109 O106 1.258 . S
C109 O111 1.282 . S
O110 Cd102 2.277 . S
O110 C103 1.226 . S
O111 Cd102 2.356 . S
O111 C109 1.282 . S
C112 O113 1.267 1_655 S
C112 O115 1.160 1_655 S
O113 C112 1.267 1_455 S
O113 Cd114 2.283 . S
Cd114 O113 2.283 . S
Cd114 O118 2.273 . S
Cd114 O122 2.277 . S
O115 C112 1.160 1_455 S
O115 Cd116 2.203 . S
Cd116 O115 2.203 . S
Cd116 O118 2.411 . S
Cd116 O119 2.333 . S
Cd116 O120 2.352 . S
Cd116 O124 2.277 . S
Cd116 O125 2.356 . S
C117 O122 1.209 . S
C117 O124 1.226 . S
O118 Cd114 2.273 . S
O118 Cd116 2.411 . S
O118 C121 1.320 . S
O119 Cd116 2.333 . S
O119 C121 1.214 . S
O120 Cd116 2.352 . S
O120 C123 1.258 . S
C121 O118 1.320 . S
C121 O119 1.214 . S
O122 Cd114 2.277 . S
O122 C117 1.209 . S
C123 O120 1.258 . S
C123 O125 1.282 . S
O124 Cd116 2.277 . S
O124 C117 1.226 . S
O125 Cd116 2.356 . S
O125 C123 1.282 . S
C126 O127 1.306 . S
C126 O129 1.160 . S
O127 C126 1.306 . S
O127 Cd128 2.228 . S
Cd128 O127 2.228 . S
Cd128 O132 2.273 . S
Cd128 O136 2.277 . S
O129 C126 1.160 . S
O129 Cd130 2.203 . S
Cd130 O129 2.203 . S
Cd130 O132 2.411 . S
Cd130 O133 2.333 . S
Cd130 O134 2.352 1_565 S
Cd130 O138 2.277 . S
Cd130 O139 2.356 1_565 S
C131 O136 1.209 . S
C131 O138 1.226 . S
O132 Cd128 2.273 . S
O132 Cd130 2.411 . S
O132 C135 1.320 . S
O133 Cd130 2.333 . S
O133 C135 1.214 . S
O134 Cd130 2.352 1_545 S
O134 C137 1.258 . S
C135 O132 1.320 . S
C135 O133 1.214 . S
O136 Cd128 2.277 . S
O136 C131 1.209 . S
C137 O134 1.258 . S
C137 O139 1.282 . S
O138 Cd130 2.277 . S
O138 C131 1.226 . S
O139 Cd130 2.356 1_545 S
O139 C137 1.282 . S
C140 O141 1.306 . S
C140 O143 1.160 . S
O141 C140 1.306 . S
O141 Cd142 2.228 1_655 S
Cd142 O141 2.228 1_455 S
Cd142 O146 2.273 . S
Cd142 O150 2.277 . S
O143 C140 1.160 . S
O143 Cd144 2.203 1_655 S
Cd144 O143 2.203 1_455 S
Cd144 O146 2.411 . S
Cd144 O147 2.333 . S
Cd144 O148 2.352 . S
Cd144 O152 2.277 . S
Cd144 O153 2.356 . S
C145 O150 1.209 . S
C145 O152 1.226 . S
O146 Cd142 2.273 . S
O146 Cd144 2.411 . S
O146 C149 1.320 . S
O147 Cd144 2.333 . S
O147 C149 1.214 . S
O148 Cd144 2.352 . S
O148 C151 1.258 . S
C149 O146 1.320 . S
C149 O147 1.214 . S
O150 Cd142 2.277 . S
O150 C145 1.209 . S
C151 O148 1.258 . S
C151 O153 1.282 . S
O152 Cd144 2.277 . S
O152 C145 1.226 . S
O153 Cd144 2.356 . S
O153 C151 1.282 . S
C154 O155 1.306 . S
C154 O157 1.160 . S
O155 C154 1.306 . S
O155 Cd156 2.228 . S
Cd156 O155 2.228 . S
Cd156 O160 2.273 . S
Cd156 O164 2.277 . S
O157 C154 1.160 . S
O157 Cd158 2.203 . S
Cd158 O157 2.203 . S
Cd158 O160 2.411 . S
Cd158 O161 2.333 . S
Cd158 O162 2.352 . S
Cd158 O166 2.277 . S
Cd158 O167 2.356 . S
C159 O164 1.209 . S
C159 O166 1.226 . S
O160 Cd156 2.273 . S
O160 Cd158 2.411 . S
O160 C163 1.320 . S
O161 Cd158 2.333 . S
O161 C163 1.214 . S
O162 Cd158 2.352 . S
O162 C165 1.258 . S
C163 O160 1.320 . S
C163 O161 1.214 . S
O164 Cd156 2.277 . S
O164 C159 1.209 . S
C165 O162 1.258 . S
C165 O167 1.282 . S
O166 Cd158 2.277 . S
O166 C159 1.226 . S
O167 Cd158 2.356 . S
O167 C165 1.282 . S
C168 O169 1.306 . S
C168 O171 1.160 . S
O169 C168 1.306 . S
O169 Cd170 2.228 1_565 S
Cd170 O169 2.228 1_545 S
Cd170 O174 2.273 . S
Cd170 O178 2.277 . S
O171 C168 1.160 . S
O171 Cd172 2.186 1_565 S
Cd172 O171 2.186 1_545 S
Cd172 O174 2.411 . S
Cd172 O175 2.333 . S
Cd172 O176 2.352 . S
Cd172 O180 2.277 . S
Cd172 O181 2.356 . S
C173 O178 1.209 . S
C173 O180 1.226 . S
O174 Cd170 2.273 . S
O174 Cd172 2.411 . S
O174 C177 1.320 . S
O175 Cd172 2.333 . S
O175 C177 1.214 . S
O176 Cd172 2.352 . S
O176 C179 1.258 . S
C177 O174 1.320 . S
C177 O175 1.214 . S
O178 Cd170 2.277 . S
O178 C173 1.209 . S
C179 O176 1.258 . S
C179 O181 1.282 . S
O180 Cd172 2.277 . S
O180 C173 1.226 . S
O181 Cd172 2.356 . S
O181 C179 1.282 . S
C182 O183 1.306 . S
C182 O185 1.160 . S
O183 C182 1.306 . S
O183 Cd184 2.228 . S
Cd184 O183 2.228 . S
Cd184 O188 2.273 . S
Cd184 O192 2.277 . S
O185 C182 1.160 . S
O185 Cd186 2.203 . S
Cd186 O185 2.203 . S
Cd186 O188 2.411 . S
Cd186 O189 2.333 . S
Cd186 O190 2.352 1_655 S
Cd186 O194 2.277 . S
Cd186 O195 2.356 1_655 S
C187 O192 1.209 . S
C187 O194 1.226 . S
O188 Cd184 2.273 . S
O188 Cd186 2.411 . S
O188 C191 1.320 . S
O189 Cd186 2.333 . S
O189 C191 1.214 . S
O190 Cd186 2.352 1_455 S
O190 C193 1.258 . S
C191 O188 1.320 . S
C191 O189 1.214 . S
O192 Cd184 2.277 . S
O192 C187 1.209 . S
C193 O190 1.258 . S
C193 O195 1.282 . S
O194 Cd186 2.277 . S
O194 C187 1.226 . S
O195 Cd186 2.356 1_455 S
O195 C193 1.282 . S
C196 O197 1.306 . S
C196 O199 1.160 . S
O197 C196 1.306 . S
O197 Cd198 2.228 . S
Cd198 O197 2.228 . S
Cd198 O202 2.273 . S
Cd198 O206 2.277 . S
O199 C196 1.160 . S
O199 Cd200 2.203 . S
Cd200 O199 2.203 . S
Cd200 O202 2.411 . S
Cd200 O203 2.333 . S
Cd200 O204 2.352 . S
Cd200 O208 2.277 . S
Cd200 O209 2.356 . S
C201 O206 1.209 . S
C201 O208 1.226 . S
O202 Cd198 2.273 . S
O202 Cd200 2.411 . S
O202 C205 1.320 . S
O203 Cd200 2.333 . S
O203 C205 1.214 . S
O204 Cd200 2.352 . S
O204 C207 1.258 . S
C205 O202 1.320 . S
C205 O203 1.214 . S
O206 Cd198 2.277 . S
O206 C201 1.209 . S
C207 O204 1.258 . S
C207 O209 1.282 . S
O208 Cd200 2.277 . S
O208 C201 1.226 . S
O209 Cd200 2.356 . S
O209 C207 1.282 . S
C210 O211 1.306 . S
C210 O213 1.160 . S
O211 C210 1.306 . S
O211 Cd212 2.228 . S
Cd212 O211 2.228 . S
Cd212 O216 2.273 . S
Cd212 O220 2.277 . S
O213 C210 1.160 . S
O213 Cd214 2.203 . S
Cd214 O213 2.203 . S
Cd214 O216 2.411 . S
Cd214 O217 2.333 . S
Cd214 O218 2.352 . S
Cd214 O222 2.277 . S
Cd214 O223 2.356 . S
C215 O220 1.209 . S
C215 O222 1.226 . S
O216 Cd212 2.273 . S
O216 Cd214 2.411 . S
O216 C219 1.320 . S
O217 Cd214 2.333 . S
O217 C219 1.214 . S
O218 Cd214 2.352 . S
O218 C221 1.258 . S
C219 O216 1.320 . S
C219 O217 1.214 . S
O220 Cd212 2.277 . S
O220 C215 1.209 . S
C221 O218 1.258 . S
C221 O223 1.282 . S
O222 Cd214 2.277 . S
O222 C215 1.226 . S
O223 Cd214 2.356 . S
O223 C221 1.282 . S
C224 O225 1.306 . S
C224 O227 1.160 . S
O225 C224 1.306 . S
O225 Cd226 2.228 . S
Cd226 O225 2.228 . S
Cd226 O230 2.273 . S
Cd226 O234 2.277 . S
O227 C224 1.160 . S
O227 Cd228 2.203 . S
Cd228 O227 2.203 . S
Cd228 O230 2.411 . S
Cd228 O231 2.333 . S
Cd228 O232 2.352 1_545 S
Cd228 O236 2.277 . S
Cd228 O237 2.356 1_545 S
C229 O234 1.209 . S
C229 O236 1.226 . S
O230 Cd226 2.273 . S
O230 Cd228 2.411 . S
O230 C233 1.320 . S
O231 Cd228 2.333 . S
O231 C233 1.214 . S
O232 Cd228 2.352 1_565 S
O232 C235 1.258 . S
C233 O230 1.320 . S
C233 O231 1.214 . S
O234 Cd226 2.277 . S
O234 C229 1.209 . S
C235 O232 1.258 . S
C235 O237 1.282 . S
O236 Cd228 2.277 . S
O236 C229 1.226 . S
O237 Cd228 2.356 1_565 S
O237 C235 1.282 . S
C238 O239 1.306 . S
C238 O241 1.160 . S
O239 C238 1.306 . S
O239 Cd240 2.228 1_455 S
Cd240 O239 2.228 1_655 S
Cd240 O244 2.273 . S
Cd240 O248 2.277 . S
O241 C238 1.160 . S
O241 Cd242 2.203 1_455 S
Cd242 O241 2.203 1_655 S
Cd242 O244 2.411 . S
Cd242 O245 2.333 . S
Cd242 O246 2.352 . S
Cd242 O250 2.277 . S
Cd242 O251 2.356 . S
C243 O248 1.209 . S
C243 O250 1.226 . S
O244 Cd240 2.273 . S
O244 Cd242 2.411 . S
O244 C247 1.320 . S
O245 Cd242 2.333 . S
O245 C247 1.214 . S
O246 Cd242 2.352 . S
O246 C249 1.258 . S
C247 O244 1.320 . S
C247 O245 1.214 . S
O248 Cd240 2.277 . S
O248 C243 1.209 . S
C249 O246 1.258 . S
C249 O251 1.282 . S
O250 Cd242 2.277 . S
O250 C243 1.226 . S
O251 Cd242 2.356 . S
O251 C249 1.282 . S
H252 C258 0.930 . S
H253 C261 0.931 . S
H254 C263 0.931 . S
H255 C265 0.930 . S
H256 C267 0.930 . S
H257 C269 0.931 . S
C258 H252 0.930 . S
C258 C259 1.380 . S
C258 C260 1.394 . S
C259 C258 1.380 . S
C259 C263 1.382 . S
C260 C258 1.394 . S
C260 C261 1.400 . S
C261 H253 0.931 . S
C261 C260 1.400 . S
C261 C262 1.375 . S
C262 C261 1.375 . S
C262 C263 1.415 . S
C262 C264 1.501 . S
C263 H254 0.931 . S
C263 C259 1.382 . S
C263 C262 1.415 . S
C264 C262 1.501 . S
C264 C265 1.384 . S
C264 C269 1.408 . S
C265 H255 0.930 . S
C265 C264 1.384 . S
C265 C266 1.389 . S
C266 C265 1.389 . S
C266 C267 1.405 . S
C267 H256 0.930 . S
C267 C266 1.405 . S
C267 C268 1.364 . S
C268 C267 1.364 . S
C268 C269 1.400 . S
C269 H257 0.931 . S
C269 C264 1.408 . S
C269 C268 1.400 . S
H270 C276 0.930 . S
H271 C279 0.931 . S
H272 C281 0.931 . S
H273 C283 0.930 . S
H274 C285 0.930 . S
H275 C287 0.931 . S
C276 H270 0.930 . S
C276 C277 1.380 . S
C276 C278 1.394 . S
C277 C276 1.380 . S
C277 C281 1.382 . S
C278 C276 1.394 . S
C278 C279 1.400 . S
C279 H271 0.931 . S
C279 C278 1.400 . S
C279 C280 1.375 . S
C280 C279 1.375 . S
C280 C281 1.415 . S
C280 C282 1.501 . S
C281 H272 0.931 . S
C281 C277 1.382 . S
C281 C280 1.415 . S
C282 C280 1.501 . S
C282 C283 1.384 . S
C282 C287 1.408 . S
C283 H273 0.930 . S
C283 C282 1.384 . S
C283 C284 1.389 . S
C284 C283 1.389 . S
C284 C285 1.405 . S
C285 H274 0.930 . S
C285 C284 1.405 . S
C285 C286 1.364 . S
C286 C285 1.364 . S
C286 C287 1.400 . S
C287 H275 0.931 . S
C287 C282 1.408 . S
C287 C286 1.400 . S
H288 C294 0.930 . S
H289 C297 0.931 . S
H290 C299 0.931 . S
H291 C301 0.930 . S
H292 C303 0.930 . S
H293 C305 0.931 . S
C294 H288 0.930 . S
C294 C295 1.380 . S
C294 C296 1.394 . S
C295 C294 1.380 . S
C295 C299 1.382 . S
C296 C294 1.394 . S
C296 C297 1.400 . S
C297 H289 0.931 . S
C297 C296 1.400 . S
C297 C298 1.375 . S
C298 C297 1.375 . S
C298 C299 1.415 . S
C298 C300 1.501 . S
C299 H290 0.931 . S
C299 C295 1.382 . S
C299 C298 1.415 . S
C300 C298 1.501 . S
C300 C301 1.384 . S
C300 C305 1.408 . S
C301 H291 0.930 . S
C301 C300 1.384 . S
C301 C302 1.389 . S
C302 C301 1.389 . S
C302 C303 1.405 . S
C303 H292 0.930 . S
C303 C302 1.405 . S
C303 C304 1.364 . S
C304 C303 1.364 . S
C304 C305 1.400 . S
C305 H293 0.931 . S
C305 C300 1.408 . S
C305 C304 1.400 . S
H306 C312 0.930 . S
H307 C315 0.931 . S
H308 C317 0.931 . S
H309 C319 0.930 . S
H310 C321 0.930 . S
H311 C323 0.931 . S
C312 H306 0.930 . S
C312 C313 1.380 . S
C312 C314 1.394 . S
C313 C312 1.380 . S
C313 C317 1.382 . S
C314 C312 1.394 . S
C314 C315 1.400 . S
C315 H307 0.931 . S
C315 C314 1.400 . S
C315 C316 1.375 . S
C316 C315 1.375 . S
C316 C317 1.415 . S
C316 C318 1.501 . S
C317 H308 0.931 . S
C317 C313 1.382 . S
C317 C316 1.415 . S
C318 C316 1.501 . S
C318 C319 1.384 . S
C318 C323 1.408 . S
C319 H309 0.930 . S
C319 C318 1.384 . S
C319 C320 1.389 . S
C320 C319 1.389 . S
C320 C321 1.405 . S
C321 H310 0.930 . S
C321 C320 1.405 . S
C321 C322 1.364 . S
C322 C321 1.364 . S
C322 C323 1.400 . S
C323 H311 0.931 . S
C323 C318 1.408 . S
C323 C322 1.400 . S
H324 C330 0.930 . S
H325 C333 0.931 . S
H326 C335 0.931 . S
H327 C337 0.930 . S
H328 C339 0.930 . S
H329 C341 0.931 . S
C330 H324 0.930 . S
C330 C331 1.380 . S
C330 C332 1.394 . S
C331 C330 1.380 . S
C331 C335 1.382 . S
C332 C330 1.394 . S
C332 C333 1.400 . S
C333 H325 0.931 . S
C333 C332 1.400 . S
C333 C334 1.375 . S
C334 C333 1.375 . S
C334 C335 1.415 . S
C334 C336 1.501 . S
C335 H326 0.931 . S
C335 C331 1.382 . S
C335 C334 1.415 . S
C336 C334 1.501 . S
C336 C337 1.384 . S
C336 C341 1.408 . S
C337 H327 0.930 . S
C337 C336 1.384 . S
C337 C338 1.389 . S
C338 C337 1.389 . S
C338 C339 1.405 . S
C339 H328 0.930 . S
C339 C338 1.405 . S
C339 C340 1.364 . S
C340 C339 1.364 . S
C340 C341 1.400 . S
C341 H329 0.931 . S
C341 C336 1.408 . S
C341 C340 1.400 . S
H342 C348 0.930 . S
H343 C351 0.931 . S
H344 C353 0.931 . S
H345 C355 0.930 . S
H346 C357 0.930 . S
H347 C359 0.931 . S
C348 H342 0.930 . S
C348 C349 1.380 . S
C348 C350 1.394 . S
C349 C348 1.380 . S
C349 C353 1.382 . S
C350 C348 1.394 . S
C350 C351 1.400 . S
C351 H343 0.931 . S
C351 C350 1.400 . S
C351 C352 1.375 . S
C352 C351 1.375 . S
C352 C353 1.415 . S
C352 C354 1.501 . S
C353 H344 0.931 . S
C353 C349 1.382 . S
C353 C352 1.415 . S
C354 C352 1.501 . S
C354 C355 1.384 . S
C354 C359 1.408 . S
C355 H345 0.930 . S
C355 C354 1.384 . S
C355 C356 1.389 . S
C356 C355 1.389 . S
C356 C357 1.405 . S
C357 H346 0.930 . S
C357 C356 1.405 . S
C357 C358 1.364 . S
C358 C357 1.364 . S
C358 C359 1.400 . S
C359 H347 0.931 . S
C359 C354 1.408 . S
C359 C358 1.400 . S
H360 C366 0.930 . S
H361 C369 0.931 . S
H362 C371 0.931 . S
H363 C373 0.930 . S
H364 C375 0.930 . S
H365 C377 0.931 . S
C366 H360 0.930 . S
C366 C367 1.380 . S
C366 C368 1.394 . S
C367 C366 1.380 . S
C367 C371 1.382 . S
C368 C366 1.394 . S
C368 C369 1.400 . S
C369 H361 0.931 . S
C369 C368 1.400 . S
C369 C370 1.375 . S
C370 C369 1.375 . S
C370 C371 1.415 . S
C370 C372 1.501 . S
C371 H362 0.931 . S
C371 C367 1.382 . S
C371 C370 1.415 . S
C372 C370 1.501 . S
C372 C373 1.384 . S
C372 C377 1.408 . S
C373 H363 0.930 . S
C373 C372 1.384 . S
C373 C374 1.389 . S
C374 C373 1.389 . S
C374 C375 1.405 . S
C375 H364 0.930 . S
C375 C374 1.405 . S
C375 C376 1.364 . S
C376 C375 1.364 . S
C376 C377 1.400 . S
C377 H365 0.931 . S
C377 C372 1.408 . S
C377 C376 1.400 . S
H378 C384 0.930 . S
H379 C387 0.931 . S
H380 C389 0.931 . S
H381 C391 0.930 . S
H382 C393 0.930 . S
H383 C395 0.931 . S
C384 H378 0.930 . S
C384 C385 1.380 . S
C384 C386 1.394 . S
C385 C384 1.380 . S
C385 C389 1.382 . S
C386 C384 1.394 . S
C386 C387 1.400 . S
C387 H379 0.931 . S
C387 C386 1.400 . S
C387 C388 1.375 . S
C388 C387 1.375 . S
C388 C389 1.415 . S
C388 C390 1.501 . S
C389 H380 0.931 . S
C389 C385 1.382 . S
C389 C388 1.415 . S
C390 C388 1.501 . S
C390 C391 1.384 . S
C390 C395 1.408 . S
C391 H381 0.930 . S
C391 C390 1.384 . S
C391 C392 1.389 . S
C392 C391 1.389 . S
C392 C393 1.405 . S
C393 H382 0.930 . S
C393 C392 1.405 . S
C393 C394 1.364 . S
C394 C393 1.364 . S
C394 C395 1.400 . S
C395 H383 0.931 . S
C395 C390 1.408 . S
C395 C394 1.400 . S
H396 C402 0.930 . S
H397 C405 0.931 . S
H398 C407 0.931 . S
H399 C409 0.930 . S
H400 C411 0.930 . S
H401 C413 0.931 . S
C402 H396 0.930 . S
C402 C403 1.380 . S
C402 C404 1.394 . S
C403 C402 1.380 . S
C403 C407 1.382 . S
C404 C402 1.394 . S
C404 C405 1.400 . S
C405 H397 0.931 . S
C405 C404 1.400 . S
C405 C406 1.375 . S
C406 C405 1.375 . S
C406 C407 1.415 . S
C406 C408 1.501 . S
C407 H398 0.931 . S
C407 C403 1.382 . S
C407 C406 1.415 . S
C408 C406 1.501 . S
C408 C409 1.384 . S
C408 C413 1.408 . S
C409 H399 0.930 . S
C409 C408 1.384 . S
C409 C410 1.389 . S
C410 C409 1.389 . S
C410 C411 1.405 . S
C411 H400 0.930 . S
C411 C410 1.405 . S
C411 C412 1.364 . S
C412 C411 1.364 . S
C412 C413 1.400 . S
C413 H401 0.931 . S
C413 C408 1.408 . S
C413 C412 1.400 . S
H414 C420 0.967 . S
H415 C423 0.931 . S
H416 C425 0.931 . S
H417 C427 0.930 . S
H418 C429 0.892 . S
H419 C431 0.938 1_655 S
C420 H414 0.967 . S
C420 C421 1.382 . S
C420 C422 1.395 1_655 S
C421 C420 1.382 . S
C421 C425 1.382 . S
C422 C420 1.395 1_455 S
C422 C423 1.400 . S
C423 H415 0.931 . S
C423 C422 1.400 . S
C423 C424 1.375 . S
C424 C423 1.375 . S
C424 C425 1.415 1_455 S
C424 C426 1.501 . S
C425 H416 0.931 . S
C425 C421 1.382 . S
C425 C424 1.415 1_655 S
C426 C424 1.501 . S
C426 C427 1.384 . S
C426 C431 1.419 . S
C427 H417 0.930 . S
C427 C426 1.384 . S
C427 C428 1.389 . S
C428 C427 1.389 . S
C428 C429 1.429 . S
C429 H418 0.892 . S
C429 C428 1.429 . S
C429 C430 1.381 . S
C430 C429 1.381 . S
C430 C431 1.391 . S
C431 H419 0.938 1_455 S
C431 C426 1.419 . S
C431 C430 1.391 . S
H432 C438 0.930 . S
H433 C441 0.931 . S
H434 C443 0.931 . S
H435 C445 0.930 . S
H436 C447 0.930 . S
H437 C449 0.931 . S
C438 H432 0.930 . S
C438 C439 1.380 . S
C438 C440 1.394 . S
C439 C438 1.380 . S
C439 C443 1.382 . S
C440 C438 1.394 . S
C440 C441 1.400 . S
C441 H433 0.931 . S
C441 C440 1.400 . S
C441 C442 1.375 . S
C442 C441 1.375 . S
C442 C443 1.415 . S
C442 C444 1.501 . S
C443 H434 0.931 . S
C443 C439 1.382 . S
C443 C442 1.415 . S
C444 C442 1.501 . S
C444 C445 1.384 . S
C444 C449 1.408 . S
C445 H435 0.930 . S
C445 C444 1.384 . S
C445 C446 1.389 . S
C446 C445 1.389 . S
C446 C447 1.405 . S
C447 H436 0.930 . S
C447 C446 1.405 . S
C447 C448 1.364 . S
C448 C447 1.364 . S
C448 C449 1.400 . S
C449 H437 0.931 . S
C449 C444 1.408 . S
C449 C448 1.400 . S
H450 C456 0.956 . S
H451 C459 0.931 . S
H452 C461 0.931 . S
H453 C463 0.930 . S
H454 C465 0.930 . S
H455 C467 0.915 . S
C456 H450 0.956 . S
C456 C457 1.374 . S
C456 C458 1.376 1_545 S
C457 C456 1.374 . S
C457 C461 1.382 . S
C458 C456 1.376 1_565 S
C458 C459 1.400 . S
C459 H451 0.931 . S
C459 C458 1.400 . S
C459 C460 1.375 . S
C460 C459 1.375 . S
C460 C461 1.415 1_565 S
C460 C462 1.501 . S
C461 H452 0.931 . S
C461 C457 1.382 . S
C461 C460 1.415 1_545 S
C462 C460 1.501 . S
C462 C463 1.384 . S
C462 C467 1.398 . S
C463 H453 0.930 . S
C463 C462 1.384 . S
C463 C464 1.389 . S
C464 C463 1.389 . S
C464 C465 1.405 . S
C465 H454 0.930 . S
C465 C464 1.405 . S
C465 C466 1.379 . S
C466 C465 1.379 . S
C466 C467 1.402 . S
C467 H455 0.915 . S
C467 C462 1.398 . S
C467 C466 1.402 . S
H468 C474 0.920 . S
H469 C477 0.931 . S
H470 C479 0.928 1_545 S
H471 C481 0.930 . S
H472 C483 0.904 . S
H473 C485 0.931 . S
C474 H468 0.920 . S
C474 C475 1.381 . S
C474 C476 1.415 1_545 S
C475 C474 1.381 . S
C475 C479 1.396 1_545 S
C476 C474 1.415 1_565 S
C476 C477 1.370 . S
C477 H469 0.931 . S
C477 C476 1.370 . S
C477 C478 1.375 . S
C478 C477 1.375 . S
C478 C479 1.413 . S
C478 C480 1.501 . S
C479 H470 0.928 1_565 S
C479 C475 1.396 1_565 S
C479 C478 1.413 . S
C480 C478 1.501 . S
C480 C481 1.384 . S
C480 C485 1.408 1_565 S
C481 H471 0.930 . S
C481 C480 1.384 . S
C481 C482 1.389 . S
C482 C481 1.389 . S
C482 C483 1.427 . S
C483 H472 0.904 . S
C483 C482 1.427 . S
C483 C484 1.372 1_565 S
C484 C483 1.372 1_545 S
C484 C485 1.400 . S
C485 H473 0.931 . S
C485 C480 1.408 1_545 S
C485 C484 1.400 . S
H486 C492 0.960 . S
H487 C495 0.931 . S
H488 C497 0.933 1_655 S
H489 C499 0.930 . S
H490 C501 0.978 . S
H491 C503 0.931 . S
C492 H486 0.960 . S
C492 C493 1.378 . S
C492 C494 1.367 1_655 S
C493 C492 1.378 . S
C493 C497 1.361 1_655 S
C494 C492 1.367 1_455 S
C494 C495 1.428 . S
C495 H487 0.931 . S
C495 C494 1.428 . S
C495 C496 1.375 . S
C496 C495 1.375 . S
C496 C497 1.414 . S
C496 C498 1.501 . S
C497 H488 0.933 1_455 S
C497 C493 1.361 1_455 S
C497 C496 1.414 . S
C498 C496 1.501 . S
C498 C499 1.384 . S
C498 C503 1.408 1_455 S
C499 H489 0.930 . S
C499 C498 1.384 . S
C499 C500 1.389 . S
C500 C499 1.389 . S
C500 C501 1.396 . S
C501 H490 0.978 . S
C501 C500 1.396 . S
C501 C502 1.332 1_455 S
C502 C501 1.332 1_655 S
C502 C503 1.400 . S
C503 H491 0.931 . S
C503 C498 1.408 1_655 S
C503 C502 1.400 . S
H504 C510 0.930 . S
H505 C513 0.931 . S
H506 C515 0.931 . S
H507 C517 0.930 . S
H508 C519 0.930 . S
H509 C521 0.931 . S
C510 H504 0.930 . S
C510 C511 1.380 . S
C510 C512 1.394 . S
C511 C510 1.380 . S
C511 C515 1.382 . S
C512 C510 1.394 . S
C512 C513 1.400 . S
C513 H505 0.931 . S
C513 C512 1.400 . S
C513 C514 1.375 . S
C514 C513 1.375 . S
C514 C515 1.415 . S
C514 C516 1.501 . S
C515 H506 0.931 . S
C515 C511 1.382 . S
C515 C514 1.415 . S
C516 C514 1.501 . S
C516 C517 1.384 . S
C516 C521 1.408 . S
C517 H507 0.930 . S
C517 C516 1.384 . S
C517 C518 1.389 . S
C518 C517 1.389 . S
C518 C519 1.405 . S
C519 H508 0.930 . S
C519 C518 1.405 . S
C519 C520 1.364 . S
C520 C519 1.364 . S
C520 C521 1.400 . S
C521 H509 0.931 . S
C521 C516 1.408 . S
C521 C520 1.400 . S
H522 C528 0.930 . S
H523 C531 0.931 . S
H524 C533 0.931 . S
H525 C535 0.930 . S
H526 C537 0.930 . S
H527 C539 0.931 . S
C528 H522 0.930 . S
C528 C529 1.380 . S
C528 C530 1.394 . S
C529 C528 1.380 . S
C529 C533 1.382 . S
C530 C528 1.394 . S
C530 C531 1.400 . S
C531 H523 0.931 . S
C531 C530 1.400 . S
C531 C532 1.375 . S
C532 C531 1.375 . S
C532 C533 1.415 . S
C532 C534 1.501 . S
C533 H524 0.931 . S
C533 C529 1.382 . S
C533 C532 1.415 . S
C534 C532 1.501 . S
C534 C535 1.384 . S
C534 C539 1.408 . S
C535 H525 0.930 . S
C535 C534 1.384 . S
C535 C536 1.389 . S
C536 C535 1.389 . S
C536 C537 1.405 . S
C537 H526 0.930 . S
C537 C536 1.405 . S
C537 C538 1.364 . S
C538 C537 1.364 . S
C538 C539 1.400 . S
C539 H527 0.931 . S
C539 C534 1.408 . S
C539 C538 1.400 . S
H540 C546 0.930 . S
H541 C549 0.931 . S
H542 C551 0.931 . S
H543 C553 0.930 . S
H544 C555 0.930 . S
H545 C557 0.931 . S
C546 H540 0.930 . S
C546 C547 1.380 . S
C546 C548 1.394 . S
C547 C546 1.380 . S
C547 C551 1.382 . S
C548 C546 1.394 . S
C548 C549 1.400 . S
C549 H541 0.931 . S
C549 C548 1.400 . S
C549 C550 1.375 . S
C550 C549 1.375 . S
C550 C551 1.415 . S
C550 C552 1.501 . S
C551 H542 0.931 . S
C551 C547 1.382 . S
C551 C550 1.415 . S
C552 C550 1.501 . S
C552 C553 1.384 . S
C552 C557 1.408 . S
C553 H543 0.930 . S
C553 C552 1.384 . S
C553 C554 1.389 . S
C554 C553 1.389 . S
C554 C555 1.405 . S
C555 H544 0.930 . S
C555 C554 1.405 . S
C555 C556 1.364 . S
C556 C555 1.364 . S
C556 C557 1.400 . S
C557 H545 0.931 . S
C557 C552 1.408 . S
C557 C556 1.400 . S
H558 C564 0.930 . S
H559 C567 0.931 . S
H560 C569 0.931 . S
H561 C571 0.930 . S
H562 C573 0.930 . S
H563 C575 0.931 . S
C564 H558 0.930 . S
C564 C565 1.380 . S
C564 C566 1.394 . S
C565 C564 1.380 . S
C565 C569 1.382 . S
C566 C564 1.394 . S
C566 C567 1.400 . S
C567 H559 0.931 . S
C567 C566 1.400 . S
C567 C568 1.375 . S
C568 C567 1.375 . S
C568 C569 1.415 . S
C568 C570 1.501 . S
C569 H560 0.931 . S
C569 C565 1.382 . S
C569 C568 1.415 . S
C570 C568 1.501 . S
C570 C571 1.384 . S
C570 C575 1.408 . S
C571 H561 0.930 . S
C571 C570 1.384 . S
C571 C572 1.389 . S
C572 C571 1.389 . S
C572 C573 1.405 . S
C573 H562 0.930 . S
C573 C572 1.405 . S
C573 C574 1.364 . S
C574 C573 1.364 . S
C574 C575 1.400 . S
C575 H563 0.931 . S
C575 C570 1.408 . S
C575 C574 1.400 . S
H576 C594 0.951 . S
H577 C596 0.951 . S
H578 C598 0.950 . S
H579 C599 0.950 . S
H580 C601 0.950 . S
H581 C604 0.950 . S
H582 C605 0.950 . S
H583 C607 0.950 . S
H584 C608 0.950 1_655 S
H585 C609 0.951 . S
H586 C611 0.951 . S
H587 C613 0.950 . S
H588 C614 0.950 . S
H589 C616 0.933 . S
H590 C619 0.950 . S
H591 C620 0.950 . S
H592 C622 0.950 . S
H593 C623 0.950 1_455 S
C594 H576 0.951 . S
C594 C595 1.405 . S
C594 C596 1.388 . S
C595 C594 1.405 . S
C595 C599 1.365 1_655 S
C596 H577 0.951 . S
C596 C594 1.388 . S
C596 C597 1.386 . S
C597 C596 1.386 . S
C597 C598 1.376 1_655 S
C597 C600 1.496 . S
C598 H578 0.950 . S
C598 C597 1.376 1_455 S
C598 C599 1.374 . S
C599 H579 0.950 . S
C599 C595 1.365 1_455 S
C599 C598 1.374 . S
C600 C597 1.496 . S
C600 C601 1.382 . S
C600 C602 1.407 1_655 S
C601 H580 0.950 . S
C601 C600 1.382 . S
C601 C617 1.377 . S
C602 C600 1.407 1_455 S
C602 C603 1.524 . S
C602 C616 1.404 . S
C603 C602 1.524 . S
C603 C604 1.397 . S
C603 C608 1.363 . S
C604 H581 0.950 . S
C604 C603 1.397 . S
C604 C605 1.334 . S
C605 H582 0.950 . S
C605 C604 1.334 . S
C605 C606 1.287 . S
C606 C605 1.287 . S
C606 C607 1.524 . S
C606 H625 0.913 . S
C607 H583 0.950 . S
C607 C606 1.524 . S
C607 C608 1.415 . S
C608 H584 0.950 1_455 S
C608 C603 1.363 . S
C608 C607 1.415 . S
C609 H585 0.951 . S
C609 C610 1.366 1_455 S
C609 C611 1.388 . S
C610 C609 1.366 1_655 S
C610 C614 1.385 . S
C611 H586 0.951 . S
C611 C609 1.388 . S
C611 C612 1.366 1_455 S
C612 C611 1.366 1_655 S
C612 C613 1.414 . S
C612 C615 1.499 . S
C613 H587 0.950 . S
C613 C612 1.414 . S
C613 C614 1.374 . S
C614 H588 0.950 . S
C614 C610 1.385 . S
C614 C613 1.374 . S
C615 C612 1.499 . S
C615 C616 1.366 1_655 S
C615 C617 1.389 . S
C616 H589 0.933 . S
C616 C602 1.404 . S
C616 C615 1.366 1_455 S
C617 C601 1.377 . S
C617 C615 1.389 . S
C617 C618 1.524 . S
C618 C617 1.524 . S
C618 C619 1.397 . S
C618 C623 1.363 . S
C619 H590 0.950 . S
C619 C618 1.397 . S
C619 C620 1.334 . S
C620 H591 0.950 . S
C620 C619 1.334 . S
C620 C621 1.287 . S
C621 C620 1.287 . S
C621 C622 1.524 . S
C621 H624 0.999 . S
C622 H592 0.950 . S
C622 C621 1.524 . S
C622 C623 1.415 . S
C623 H593 0.950 1_655 S
C623 C618 1.363 . S
C623 C622 1.415 . S
H624 C621 0.999 . S
H625 C606 0.913 . S
H626 C644 0.951 . S
H627 C646 0.951 . S
H628 C648 0.950 . S
H629 C649 0.950 . S
H630 C651 0.950 . S
H631 C654 0.950 . S
H632 C655 0.950 . S
H633 C657 0.950 . S
H634 C658 0.950 . S
H635 C659 0.951 . S
H636 C661 0.951 . S
H637 C663 0.950 . S
H638 C664 0.950 . S
H639 C666 0.950 . S
H640 C669 0.950 . S
H641 C670 0.950 . S
H642 C672 0.950 . S
H643 C673 0.950 . S
C644 H626 0.951 . S
C644 C645 1.366 . S
C644 C646 1.388 . S
C645 C644 1.366 . S
C645 C649 1.385 . S
C646 H627 0.951 . S
C646 C644 1.388 . S
C646 C647 1.366 . S
C647 C646 1.366 . S
C647 C648 1.414 . S
C647 C650 1.499 . S
C648 H628 0.950 . S
C648 C647 1.414 . S
C648 C649 1.374 . S
C649 H629 0.950 . S
C649 C645 1.385 . S
C649 C648 1.374 . S
C650 C647 1.499 . S
C650 C651 1.373 . S
C650 C652 1.389 . S
C651 H630 0.950 . S
C651 C650 1.373 . S
C651 C667 1.377 . S
C652 C650 1.389 . S
C652 C653 1.524 . S
C652 C666 1.377 . S
C653 C652 1.524 . S
C653 C654 1.397 . S
C653 C658 1.363 . S
C654 H631 0.950 . S
C654 C653 1.397 . S
C654 C655 1.334 . S
C655 H632 0.950 . S
C655 C654 1.334 . S
C655 C656 1.287 . S
C656 C655 1.287 . S
C656 C657 1.524 . S
C656 H675 0.913 . S
C657 H633 0.950 . S
C657 C656 1.524 . S
C657 C658 1.415 . S
C658 H634 0.950 . S
C658 C653 1.363 . S
C658 C657 1.415 . S
C659 H635 0.951 . S
C659 C660 1.366 . S
C659 C661 1.388 . S
C660 C659 1.366 . S
C660 C664 1.385 . S
C661 H636 0.951 . S
C661 C659 1.388 . S
C661 C662 1.366 . S
C662 C661 1.366 . S
C662 C663 1.414 . S
C662 C665 1.499 . S
C663 H637 0.950 . S
C663 C662 1.414 . S
C663 C664 1.374 . S
C664 H638 0.950 . S
C664 C660 1.385 . S
C664 C663 1.374 . S
C665 C662 1.499 . S
C665 C666 1.373 . S
C665 C667 1.389 . S
C666 H639 0.950 . S
C666 C652 1.377 . S
C666 C665 1.373 . S
C667 C651 1.377 . S
C667 C665 1.389 . S
C667 C668 1.524 . S
C668 C667 1.524 . S
C668 C669 1.397 . S
C668 C673 1.363 . S
C669 H640 0.950 . S
C669 C668 1.397 . S
C669 C670 1.334 . S
C670 H641 0.950 . S
C670 C669 1.334 . S
C670 C671 1.287 . S
C671 C670 1.287 . S
C671 C672 1.524 . S
C671 H674 0.999 . S
C672 H642 0.950 . S
C672 C671 1.524 . S
C672 C673 1.415 . S
C673 H643 0.950 . S
C673 C668 1.363 . S
C673 C672 1.415 . S
H674 C671 0.999 . S
H675 C656 0.913 . S
H676 C694 0.951 . S
H677 C696 0.951 . S
H678 C698 0.950 . S
H679 C699 0.950 . S
H680 C701 0.950 . S
H681 C704 0.950 . S
H682 C705 0.950 . S
H683 C707 0.950 . S
H684 C708 0.950 . S
H685 C709 0.951 . S
H686 C711 0.951 . S
H687 C713 0.950 . S
H688 C714 0.950 . S
H689 C716 0.950 . S
H690 C719 0.950 . S
H691 C720 0.950 . S
H692 C722 0.950 . S
H693 C723 0.950 . S
C694 H676 0.951 . S
C694 C695 1.366 . S
C694 C696 1.388 . S
C695 C694 1.366 . S
C695 C699 1.385 1_545 S
C696 H677 0.951 . S
C696 C694 1.388 . S
C696 C697 1.366 . S
C697 C696 1.366 . S
C697 C698 1.414 1_545 S
C697 C700 1.499 . S
C698 H678 0.950 . S
C698 C697 1.414 1_565 S
C698 C699 1.374 . S
C699 H679 0.950 . S
C699 C695 1.385 1_565 S
C699 C698 1.374 . S
C700 C697 1.499 . S
C700 C701 1.373 . S
C700 C702 1.389 . S
C701 H680 0.950 . S
C701 C700 1.373 . S
C701 C717 1.377 . S
C702 C700 1.389 . S
C702 C703 1.524 . S
C702 C716 1.377 . S
C703 C702 1.524 . S
C703 C704 1.397 1_545 S
C703 C708 1.363 . S
C704 H681 0.950 . S
C704 C703 1.397 1_565 S
C704 C705 1.334 . S
C705 H682 0.950 . S
C705 C704 1.334 . S
C705 C706 1.287 . S
C706 C705 1.287 . S
C706 C707 1.524 1_565 S
C706 H725 0.913 . S
C707 H683 0.950 . S
C707 C706 1.524 1_545 S
C707 C708 1.415 . S
C708 H684 0.950 . S
C708 C703 1.363 . S
C708 C707 1.415 . S
C709 H685 0.951 . S
C709 C710 1.366 1_565 S
C709 C711 1.388 . S
C710 C709 1.366 1_545 S
C710 C714 1.385 . S
C711 H686 0.951 . S
C711 C709 1.388 . S
C711 C712 1.366 1_565 S
C712 C711 1.366 1_545 S
C712 C713 1.414 . S
C712 C715 1.499 . S
C713 H687 0.950 . S
C713 C712 1.414 . S
C713 C714 1.374 . S
C714 H688 0.950 . S
C714 C710 1.385 . S
C714 C713 1.374 . S
C715 C712 1.499 . S
C715 C716 1.373 . S
C715 C717 1.389 . S
C716 H689 0.950 . S
C716 C702 1.377 . S
C716 C715 1.373 . S
C717 C701 1.377 . S
C717 C715 1.389 . S
C717 C718 1.524 . S
C718 C717 1.524 . S
C718 C719 1.397 . S
C718 C723 1.363 1_545 S
C719 H690 0.950 . S
C719 C718 1.397 . S
C719 C720 1.334 . S
C720 H691 0.950 . S
C720 C719 1.334 . S
C720 C721 1.287 . S
C721 C720 1.287 . S
C721 C722 1.524 1_545 S
C721 H724 0.999 . S
C722 H692 0.950 . S
C722 C721 1.524 1_565 S
C722 C723 1.415 . S
C723 H693 0.950 . S
C723 C718 1.363 1_565 S
C723 C722 1.415 . S
H724 C721 0.999 . S
H725 C706 0.913 . S
H726 C744 0.952 . S
H727 C746 0.951 . S
H728 C748 0.957 1_545 S
H729 C749 0.949 . S
H730 C751 0.950 . S
H731 C754 0.950 . S
H732 C755 0.950 . S
H733 C757 0.950 . S
H734 C758 0.950 . S
H735 C759 0.951 . S
H736 C761 0.951 . S
H737 C763 0.950 . S
H738 C764 0.950 . S
H739 C766 0.950 . S
H740 C769 0.950 . S
H741 C770 0.950 . S
H742 C772 0.950 . S
H743 C773 0.950 . S
C744 H726 0.952 . S
C744 C745 1.369 1_565 S
C744 C746 1.396 . S
C745 C744 1.369 1_545 S
C745 C749 1.388 . S
C746 H727 0.951 . S
C746 C744 1.396 . S
C746 C747 1.366 . S
C747 C746 1.366 . S
C747 C748 1.414 . S
C747 C750 1.499 . S
C748 H728 0.957 1_565 S
C748 C747 1.414 . S
C748 C749 1.354 1_565 S
C749 H729 0.949 . S
C749 C745 1.388 . S
C749 C748 1.354 1_545 S
C750 C747 1.499 . S
C750 C751 1.373 1_565 S
C750 C752 1.389 . S
C751 H730 0.950 . S
C751 C750 1.373 1_545 S
C751 C767 1.377 . S
C752 C750 1.389 . S
C752 C753 1.524 . S
C752 C766 1.377 . S
C753 C752 1.524 . S
C753 C754 1.397 . S
C753 C758 1.363 . S
C754 H731 0.950 . S
C754 C753 1.397 . S
C754 C755 1.334 . S
C755 H732 0.950 . S
C755 C754 1.334 . S
C755 C756 1.287 . S
C756 C755 1.287 . S
C756 C757 1.524 . S
C756 H775 0.913 . S
C757 H733 0.950 . S
C757 C756 1.524 . S
C757 C758 1.415 . S
C758 H734 0.950 . S
C758 C753 1.363 . S
C758 C757 1.415 . S
C759 H735 0.951 . S
C759 C760 1.366 . S
C759 C761 1.388 . S
C760 C759 1.366 . S
C760 C764 1.385 . S
C761 H736 0.951 . S
C761 C759 1.388 . S
C761 C762 1.366 . S
C762 C761 1.366 . S
C762 C763 1.414 . S
C762 C765 1.538 . S
C763 H737 0.950 . S
C763 C762 1.414 . S
C763 C764 1.374 . S
C764 H738 0.950 . S
C764 C760 1.385 . S
C764 C763 1.374 . S
C765 C762 1.538 . S
C765 C766 1.395 . S
C765 C767 1.340 1_565 S
C766 H739 0.950 . S
C766 C752 1.377 . S
C766 C765 1.395 . S
C767 C751 1.377 . S
C767 C765 1.340 1_545 S
C767 C768 1.524 . S
C768 C767 1.524 . S
C768 C769 1.397 . S
C768 C773 1.363 . S
C769 H740 0.950 . S
C769 C768 1.397 . S
C769 C770 1.334 . S
C770 H741 0.950 . S
C770 C769 1.334 . S
C770 C771 1.287 . S
C771 C770 1.287 . S
C771 C772 1.524 . S
C771 H774 0.999 . S
C772 H742 0.950 . S
C772 C771 1.524 . S
C772 C773 1.415 . S
C773 H743 0.950 . S
C773 C768 1.363 . S
C773 C772 1.415 . S
H774 C771 0.999 . S
H775 C756 0.913 . S
H776 C794 0.951 . S
H777 C796 0.951 . S
H778 C798 0.950 . S
H779 C799 0.950 . S
H780 C801 0.950 . S
H781 C804 0.950 . S
H782 C805 0.950 . S
H783 C807 0.950 . S
H784 C808 0.950 . S
H785 C809 0.951 . S
H786 C811 0.951 . S
H787 C813 0.950 . S
H788 C814 0.950 . S
H789 C816 0.950 . S
H790 C819 0.950 . S
H791 C820 0.950 . S
H792 C822 0.950 . S
H793 C823 0.950 . S
C794 H776 0.951 . S
C794 C795 1.366 . S
C794 C796 1.388 . S
C795 C794 1.366 . S
C795 C799 1.385 1_455 S
C796 H777 0.951 . S
C796 C794 1.388 . S
C796 C797 1.366 . S
C797 C796 1.366 . S
C797 C798 1.414 1_455 S
C797 C800 1.499 . S
C798 H778 0.950 . S
C798 C797 1.414 1_655 S
C798 C799 1.374 . S
C799 H779 0.950 . S
C799 C795 1.385 1_655 S
C799 C798 1.374 . S
C800 C797 1.499 . S
C800 C801 1.373 1_455 S
C800 C802 1.389 . S
C801 H780 0.950 . S
C801 C800 1.373 1_655 S
C801 C817 1.377 . S
C802 C800 1.389 . S
C802 C803 1.524 . S
C802 C816 1.377 . S
C803 C802 1.524 . S
C803 C804 1.397 . S
C803 C808 1.363 . S
C804 H781 0.950 . S
C804 C803 1.397 . S
C804 C805 1.334 . S
C805 H782 0.950 . S
C805 C804 1.334 . S
C805 C806 1.287 . S
C806 C805 1.287 . S
C806 C807 1.524 . S
C806 H825 0.913 . S
C807 H783 0.950 . S
C807 C806 1.524 . S
C807 C808 1.415 . S
C808 H784 0.950 . S
C808 C803 1.363 . S
C808 C807 1.415 . S
C809 H785 0.951 . S
C809 C810 1.366 1_655 S
C809 C811 1.388 . S
C810 C809 1.366 1_455 S
C810 C814 1.385 . S
C811 H786 0.951 . S
C811 C809 1.388 . S
C811 C812 1.366 1_655 S
C812 C811 1.366 1_455 S
C812 C813 1.414 . S
C812 C815 1.499 . S
C813 H787 0.950 . S
C813 C812 1.414 . S
C813 C814 1.374 . S
C814 H788 0.950 . S
C814 C810 1.385 . S
C814 C813 1.374 . S
C815 C812 1.499 . S
C815 C816 1.373 . S
C815 C817 1.389 1_455 S
C816 H789 0.950 . S
C816 C802 1.377 . S
C816 C815 1.373 . S
C817 C801 1.377 . S
C817 C815 1.389 1_655 S
C817 C818 1.524 . S
C818 C817 1.524 . S
C818 C819 1.397 . S
C818 C823 1.363 . S
C819 H790 0.950 . S
C819 C818 1.397 . S
C819 C820 1.334 . S
C820 H791 0.950 . S
C820 C819 1.334 . S
C820 C821 1.287 . S
C821 C820 1.287 . S
C821 C822 1.524 . S
C821 H824 0.999 . S
C822 H792 0.950 . S
C822 C821 1.524 . S
C822 C823 1.415 . S
C823 H793 0.950 . S
C823 C818 1.363 . S
C823 C822 1.415 . S
H824 C821 0.999 . S
H825 C806 0.913 . S
H826 C844 0.951 . S
H827 C846 0.951 . S
H828 C848 0.950 . S
H829 C849 0.950 . S
H830 C851 0.950 . S
H831 C854 0.950 . S
H832 C855 0.950 . S
H833 C857 0.950 . S
H834 C858 0.950 . S
H835 C859 0.951 . S
H836 C861 0.951 . S
H837 C863 0.950 . S
H838 C864 0.950 . S
H839 C866 0.950 . S
H840 C869 0.950 . S
H841 C870 0.950 . S
H842 C872 0.950 . S
H843 C873 0.950 . S
C844 H826 0.951 . S
C844 C845 1.366 . S
C844 C846 1.388 . S
C845 C844 1.366 . S
C845 C849 1.385 . S
C846 H827 0.951 . S
C846 C844 1.388 . S
C846 C847 1.366 . S
C847 C846 1.366 . S
C847 C848 1.414 . S
C847 C850 1.499 . S
C848 H828 0.950 . S
C848 C847 1.414 . S
C848 C849 1.374 . S
C849 H829 0.950 . S
C849 C845 1.385 . S
C849 C848 1.374 . S
C850 C847 1.499 . S
C850 C851 1.373 . S
C850 C852 1.389 . S
C851 H830 0.950 . S
C851 C850 1.373 . S
C851 C867 1.377 . S
C852 C850 1.389 . S
C852 C853 1.524 . S
C852 C866 1.377 . S
C853 C852 1.524 . S
C853 C854 1.397 . S
C853 C858 1.363 . S
C854 H831 0.950 . S
C854 C853 1.397 . S
C854 C855 1.334 . S
C855 H832 0.950 . S
C855 C854 1.334 . S
C855 C856 1.287 . S
C856 C855 1.287 . S
C856 C857 1.524 . S
C856 H875 0.913 . S
C857 H833 0.950 . S
C857 C856 1.524 . S
C857 C858 1.415 . S
C858 H834 0.950 . S
C858 C853 1.363 . S
C858 C857 1.415 . S
C859 H835 0.951 . S
C859 C860 1.366 . S
C859 C861 1.388 . S
C860 C859 1.366 . S
C860 C864 1.385 . S
C861 H836 0.951 . S
C861 C859 1.388 . S
C861 C862 1.366 . S
C862 C861 1.366 . S
C862 C863 1.414 . S
C862 C865 1.499 . S
C863 H837 0.950 . S
C863 C862 1.414 . S
C863 C864 1.374 . S
C864 H838 0.950 . S
C864 C860 1.385 . S
C864 C863 1.374 . S
C865 C862 1.499 . S
C865 C866 1.373 . S
C865 C867 1.389 . S
C866 H839 0.950 . S
C866 C852 1.377 . S
C866 C865 1.373 . S
C867 C851 1.377 . S
C867 C865 1.389 . S
C867 C868 1.524 . S
C868 C867 1.524 . S
C868 C869 1.397 . S
C868 C873 1.363 . S
C869 H840 0.950 . S
C869 C868 1.397 . S
C869 C870 1.334 . S
C870 H841 0.950 . S
C870 C869 1.334 . S
C870 C871 1.287 . S
C871 C870 1.287 . S
C871 C872 1.524 . S
C871 H874 0.999 . S
C872 H842 0.950 . S
C872 C871 1.524 . S
C872 C873 1.415 . S
C873 H843 0.950 . S
C873 C868 1.363 . S
C873 C872 1.415 . S
H874 C871 0.999 . S
H875 C856 0.913 . S
H876 C894 0.951 . S
H877 C896 0.951 . S
H878 C898 0.950 . S
H879 C899 0.950 . S
H880 C901 0.950 . S
H881 C904 0.950 . S
H882 C905 0.950 . S
H883 C907 0.950 . S
H884 C908 0.950 . S
H885 C909 0.951 . S
H886 C911 0.951 . S
H887 C913 0.950 . S
H888 C914 0.950 . S
H889 C916 0.950 . S
H890 C919 0.950 . S
H891 C920 0.950 . S
H892 C922 0.950 . S
H893 C923 0.950 . S
C894 H876 0.951 . S
C894 C895 1.366 1_655 S
C894 C896 1.388 . S
C895 C894 1.366 1_455 S
C895 C899 1.385 . S
C896 H877 0.951 . S
C896 C894 1.388 . S
C896 C897 1.366 1_655 S
C897 C896 1.366 1_455 S
C897 C898 1.414 . S
C897 C900 1.499 . S
C898 H878 0.950 . S
C898 C897 1.414 . S
C898 C899 1.374 . S
C899 H879 0.950 . S
C899 C895 1.385 . S
C899 C898 1.374 . S
C900 C897 1.499 . S
C900 C901 1.373 . S
C900 C902 1.389 1_455 S
C901 H880 0.950 . S
C901 C900 1.373 . S
C901 C917 1.377 . S
C902 C900 1.389 1_655 S
C902 C903 1.524 . S
C902 C916 1.377 . S
C903 C902 1.524 . S
C903 C904 1.397 . S
C903 C908 1.363 . S
C904 H881 0.950 . S
C904 C903 1.397 . S
C904 C905 1.334 . S
C905 H882 0.950 . S
C905 C904 1.334 . S
C905 C906 1.287 . S
C906 C905 1.287 . S
C906 C907 1.524 . S
C906 H925 0.913 . S
C907 H883 0.950 . S
C907 C906 1.524 . S
C907 C908 1.415 . S
C908 H884 0.950 . S
C908 C903 1.363 . S
C908 C907 1.415 . S
C909 H885 0.951 . S
C909 C910 1.352 1_455 S
C909 C911 1.388 . S
C910 C909 1.352 1_655 S
C910 C914 1.411 . S
C911 H886 0.951 . S
C911 C909 1.388 . S
C911 C912 1.366 . S
C912 C911 1.366 . S
C912 C913 1.414 1_455 S
C912 C915 1.499 . S
C913 H887 0.950 . S
C913 C912 1.414 1_655 S
C913 C914 1.374 . S
C914 H888 0.950 . S
C914 C910 1.411 . S
C914 C913 1.374 . S
C915 C912 1.499 . S
C915 C916 1.373 1_455 S
C915 C917 1.389 . S
C916 H889 0.950 . S
C916 C902 1.377 . S
C916 C915 1.373 1_655 S
C917 C901 1.377 . S
C917 C915 1.389 . S
C917 C918 1.524 . S
C918 C917 1.524 . S
C918 C919 1.397 . S
C918 C923 1.363 . S
C919 H890 0.950 . S
C919 C918 1.397 . S
C919 C920 1.334 . S
C920 H891 0.950 . S
C920 C919 1.334 . S
C920 C921 1.287 . S
C921 C920 1.287 . S
C921 C922 1.524 . S
C921 H924 0.999 . S
C922 H892 0.950 . S
C922 C921 1.524 . S
C922 C923 1.415 . S
C923 H893 0.950 . S
C923 C918 1.363 . S
C923 C922 1.415 . S
H924 C921 0.999 . S
H925 C906 0.913 . S
H926 C944 0.951 . S
H927 C946 0.951 . S
H928 C948 0.950 . S
H929 C949 0.950 . S
H930 C951 0.950 . S
H931 C954 0.950 . S
H932 C955 0.950 . S
H933 C957 0.950 . S
H934 C958 0.950 . S
H935 C959 0.951 . S
H936 C961 0.951 . S
H937 C963 0.950 . S
H938 C964 0.950 . S
H939 C966 0.950 . S
H940 C969 0.950 . S
H941 C970 0.950 . S
H942 C972 0.950 . S
H943 C973 0.950 . S
C944 H926 0.951 . S
C944 C945 1.366 . S
C944 C946 1.388 . S
C945 C944 1.366 . S
C945 C949 1.385 . S
C946 H927 0.951 . S
C946 C944 1.388 . S
C946 C947 1.366 . S
C947 C946 1.366 . S
C947 C948 1.414 . S
C947 C950 1.499 . S
C948 H928 0.950 . S
C948 C947 1.414 . S
C948 C949 1.374 . S
C949 H929 0.950 . S
C949 C945 1.385 . S
C949 C948 1.374 . S
C950 C947 1.499 . S
C950 C951 1.373 . S
C950 C952 1.389 . S
C951 H930 0.950 . S
C951 C950 1.373 . S
C951 C967 1.377 . S
C952 C950 1.389 . S
C952 C953 1.524 . S
C952 C966 1.377 . S
C953 C952 1.524 . S
C953 C954 1.397 . S
C953 C958 1.363 . S
C954 H931 0.950 . S
C954 C953 1.397 . S
C954 C955 1.334 . S
C955 H932 0.950 . S
C955 C954 1.334 . S
C955 C956 1.287 . S
C956 C955 1.287 . S
C956 C957 1.524 . S
C956 H975 0.913 . S
C957 H933 0.950 . S
C957 C956 1.524 . S
C957 C958 1.415 . S
C958 H934 0.950 . S
C958 C953 1.363 . S
C958 C957 1.415 . S
C959 H935 0.951 . S
C959 C960 1.366 . S
C959 C961 1.388 . S
C960 C959 1.366 . S
C960 C964 1.385 . S
C961 H936 0.951 . S
C961 C959 1.388 . S
C961 C962 1.366 . S
C962 C961 1.366 . S
C962 C963 1.414 . S
C962 C965 1.499 . S
C963 H937 0.950 . S
C963 C962 1.414 . S
C963 C964 1.374 . S
C964 H938 0.950 . S
C964 C960 1.385 . S
C964 C963 1.374 . S
C965 C962 1.499 . S
C965 C966 1.373 . S
C965 C967 1.389 . S
C966 H939 0.950 . S
C966 C952 1.377 . S
C966 C965 1.373 . S
C967 C951 1.377 . S
C967 C965 1.389 . S
C967 C968 1.524 . S
C968 C967 1.524 . S
C968 C969 1.397 . S
C968 C973 1.363 . S
C969 H940 0.950 . S
C969 C968 1.397 . S
C969 C970 1.334 . S
C970 H941 0.950 . S
C970 C969 1.334 . S
C970 C971 1.287 . S
C971 C970 1.287 . S
C971 C972 1.524 . S
C971 H974 0.999 . S
C972 H942 0.950 . S
C972 C971 1.524 . S
C972 C973 1.415 . S
C973 H943 0.950 . S
C973 C968 1.363 . S
C973 C972 1.415 . S
H974 C971 0.999 . S
H975 C956 0.913 . S
H976 C994 0.951 . S
H977 C996 0.951 . S
H978 C998 0.950 . S
H979 C999 0.950 . S
H980 C1001 0.950 . S
H981 C1004 0.950 . S
H982 C1005 0.950 . S
H983 C1007 0.950 . S
H984 C1008 0.950 1_545 S
H985 C1009 0.951 . S
H986 C1011 0.951 . S
H987 C1013 0.950 . S
H988 C1014 0.950 . S
H989 C1016 0.950 . S
H990 C1019 0.950 . S
H991 C1020 0.950 . S
H992 C1022 0.950 . S
H993 C1023 0.950 1_565 S
C994 H976 0.951 . S
C994 C995 1.366 1_545 S
C994 C996 1.388 . S
C995 C994 1.366 1_565 S
C995 C999 1.385 . S
C996 H977 0.951 . S
C996 C994 1.388 . S
C996 C997 1.366 1_545 S
C997 C996 1.366 1_565 S
C997 C998 1.414 . S
C997 C1000 1.499 . S
C998 H978 0.950 . S
C998 C997 1.414 . S
C998 C999 1.374 . S
C999 H979 0.950 . S
C999 C995 1.385 . S
C999 C998 1.374 . S
C1000 C997 1.499 . S
C1000 C1001 1.373 1_565 S
C1000 C1002 1.389 . S
C1001 H980 0.950 . S
C1001 C1000 1.373 1_545 S
C1001 C1017 1.377 . S
C1002 C1000 1.389 . S
C1002 C1003 1.524 . S
C1002 C1016 1.377 . S
C1003 C1002 1.524 . S
C1003 C1004 1.397 . S
C1003 C1008 1.363 . S
C1004 H981 0.950 . S
C1004 C1003 1.397 . S
C1004 C1005 1.334 . S
C1005 H982 0.950 . S
C1005 C1004 1.334 . S
C1005 C1006 1.287 . S
C1006 C1005 1.287 . S
C1006 C1007 1.524 . S
C1006 H1025 0.905 1_556 S
C1007 H983 0.950 . S
C1007 C1006 1.524 . S
C1007 C1008 1.415 . S
C1008 H984 0.950 1_565 S
C1008 C1003 1.363 . S
C1008 C1007 1.415 . S
C1009 H985 0.951 . S
C1009 C1010 1.338 1_565 S
C1009 C1011 1.388 . S
C1010 C1009 1.338 1_545 S
C1010 C1014 1.400 . S
C1011 H986 0.951 . S
C1011 C1009 1.388 . S
C1011 C1012 1.337 1_565 S
C1012 C1011 1.337 1_545 S
C1012 C1013 1.471 . S
C1012 C1015 1.504 . S
C1013 H987 0.950 . S
C1013 C1012 1.471 . S
C1013 C1014 1.374 . S
C1014 H988 0.950 . S
C1014 C1010 1.400 . S
C1014 C1013 1.374 . S
C1015 C1012 1.504 . S
C1015 C1016 1.366 1_545 S
C1015 C1017 1.364 . S
C1016 H989 0.950 . S
C1016 C1002 1.377 . S
C1016 C1015 1.366 1_565 S
C1017 C1001 1.377 . S
C1017 C1015 1.364 . S
C1017 C1018 1.524 . S
C1018 C1017 1.524 . S
C1018 C1019 1.397 . S
C1018 C1023 1.363 . S
C1019 H990 0.950 . S
C1019 C1018 1.397 . S
C1019 C1020 1.334 . S
C1020 H991 0.950 . S
C1020 C1019 1.334 . S
C1020 C1021 1.287 . S
C1021 C1020 1.287 . S
C1021 C1022 1.524 . S
C1021 H1024 0.999 . S
C1022 H992 0.950 . S
C1022 C1021 1.524 . S
C1022 C1023 1.415 . S
C1023 H993 0.950 1_545 S
C1023 C1018 1.363 . S
C1023 C1022 1.415 . S
H1024 C1021 0.999 . S
H1025 C1006 0.905 1_554 S
H1026 C1044 0.951 . S
H1027 C1046 0.951 . S
H1028 C1048 0.950 . S
H1029 C1049 0.950 . S
H1030 C1051 0.950 . S
H1031 C1054 0.950 . S
H1032 C1055 0.950 . S
H1033 C1057 0.950 . S
H1034 C1058 0.950 . S
H1035 C1059 0.951 . S
H1036 C1061 0.951 . S
H1037 C1063 0.950 . S
H1038 C1064 0.950 . S
H1039 C1066 0.950 . S
H1040 C1069 0.950 . S
H1041 C1070 0.950 . S
H1042 C1072 0.950 . S
H1043 C1073 0.950 . S
C1044 H1026 0.951 . S
C1044 C1045 1.366 1_565 S
C1044 C1046 1.388 . S
C1045 C1044 1.366 1_545 S
C1045 C1049 1.385 . S
C1046 H1027 0.951 . S
C1046 C1044 1.388 . S
C1046 C1047 1.313 1_565 S
C1047 C1046 1.313 1_545 S
C1047 C1048 1.443 . S
C1047 C1050 1.509 . S
C1048 H1028 0.950 . S
C1048 C1047 1.443 . S
C1048 C1049 1.374 . S
C1049 H1029 0.950 . S
C1049 C1045 1.385 . S
C1049 C1048 1.374 . S
C1050 C1047 1.509 . S
C1050 C1051 1.424 . S
C1050 C1052 1.361 1_545 S
C1051 H1030 0.950 . S
C1051 C1050 1.424 . S
C1051 C1067 1.377 . S
C1052 C1050 1.361 1_565 S
C1052 C1053 1.524 . S
C1052 C1066 1.377 . S
C1053 C1052 1.524 . S
C1053 C1054 1.397 . S
C1053 C1058 1.363 . S
C1054 H1031 0.950 . S
C1054 C1053 1.397 . S
C1054 C1055 1.334 . S
C1055 H1032 0.950 . S
C1055 C1054 1.334 . S
C1055 C1056 1.287 . S
C1056 C1055 1.287 . S
C1056 C1057 1.524 . S
C1056 H1075 0.913 . S
C1057 H1033 0.950 . S
C1057 C1056 1.524 . S
C1057 C1058 1.415 . S
C1058 H1034 0.950 . S
C1058 C1053 1.363 . S
C1058 C1057 1.415 . S
C1059 H1035 0.951 . S
C1059 C1060 1.353 1_545 S
C1059 C1061 1.388 . S
C1060 C1059 1.353 1_565 S
C1060 C1064 1.413 . S
C1061 H1036 0.951 . S
C1061 C1059 1.388 . S
C1061 C1062 1.428 . S
C1062 C1061 1.428 . S
C1062 C1063 1.386 1_545 S
C1062 C1065 1.467 . S
C1063 H1037 0.950 . S
C1063 C1062 1.386 1_565 S
C1063 C1064 1.374 . S
C1064 H1038 0.950 . S
C1064 C1060 1.413 . S
C1064 C1063 1.374 . S
C1065 C1062 1.467 . S
C1065 C1066 1.373 1_545 S
C1065 C1067 1.389 . S
C1066 H1039 0.950 . S
C1066 C1052 1.377 . S
C1066 C1065 1.373 1_565 S
C1067 C1051 1.377 . S
C1067 C1065 1.389 . S
C1067 C1068 1.524 . S
C1068 C1067 1.524 . S
C1068 C1069 1.397 . S
C1068 C1073 1.363 . S
C1069 H1040 0.950 . S
C1069 C1068 1.397 . S
C1069 C1070 1.334 . S
C1070 H1041 0.950 . S
C1070 C1069 1.334 . S
C1070 C1071 1.287 . S
C1071 C1070 1.287 . S
C1071 C1072 1.524 . S
C1071 H1074 0.999 . S
C1072 H1042 0.950 . S
C1072 C1071 1.524 . S
C1072 C1073 1.415 . S
C1073 H1043 0.950 . S
C1073 C1068 1.363 . S
C1073 C1072 1.415 . S
H1074 C1071 0.999 . S
H1075 C1056 0.913 . S
H1076 C1094 0.951 . S
H1077 C1096 0.951 . S
H1078 C1098 0.950 . S
H1079 C1099 0.950 . S
H1080 C1101 0.950 . S
H1081 C1104 0.950 . S
H1082 C1105 0.950 . S
H1083 C1107 0.950 . S
H1084 C1108 0.950 . S
H1085 C1109 0.951 . S
H1086 C1111 0.951 . S
H1087 C1113 0.950 . S
H1088 C1114 0.950 . S
H1089 C1116 0.950 . S
H1090 C1119 0.950 . S
H1091 C1120 0.950 . S
H1092 C1122 0.950 . S
H1093 C1123 0.950 . S
C1094 H1076 0.951 . S
C1094 C1095 1.312 1_455 S
C1094 C1096 1.388 . S
C1095 C1094 1.312 1_655 S
C1095 C1099 1.417 . S
C1096 H1077 0.951 . S
C1096 C1094 1.388 . S
C1096 C1097 1.327 1_455 S
C1097 C1096 1.327 1_655 S
C1097 C1098 1.483 . S
C1097 C1100 1.473 . S
C1098 H1078 0.950 . S
C1098 C1097 1.483 . S
C1098 C1099 1.374 . S
C1099 H1079 0.950 . S
C1099 C1095 1.417 . S
C1099 C1098 1.374 . S
C1100 C1097 1.473 . S
C1100 C1101 1.373 . S
C1100 C1102 1.389 1_655 S
C1101 H1080 0.950 . S
C1101 C1100 1.373 . S
C1101 C1117 1.377 . S
C1102 C1100 1.389 1_455 S
C1102 C1103 1.524 . S
C1102 C1116 1.377 . S
C1103 C1102 1.524 . S
C1103 C1104 1.397 1_455 S
C1103 C1108 1.363 . S
C1104 H1081 0.950 . S
C1104 C1103 1.397 1_655 S
C1104 C1105 1.334 . S
C1105 H1082 0.950 . S
C1105 C1104 1.334 . S
C1105 C1106 1.287 1_655 S
C1106 C1105 1.287 1_455 S
C1106 C1107 1.524 . S
C1106 H1125 0.913 . S
C1107 H1083 0.950 . S
C1107 C1106 1.524 . S
C1107 C1108 1.415 . S
C1108 H1084 0.950 . S
C1108 C1103 1.363 . S
C1108 C1107 1.415 . S
C1109 H1085 0.951 . S
C1109 C1110 1.335 1_655 S
C1109 C1111 1.388 . S
C1110 C1109 1.335 1_455 S
C1110 C1114 1.403 . S
C1111 H1086 0.951 . S
C1111 C1109 1.388 . S
C1111 C1112 1.339 1_655 S
C1112 C1111 1.339 1_455 S
C1112 C1113 1.460 . S
C1112 C1115 1.511 . S
C1113 H1087 0.950 . S
C1113 C1112 1.460 . S
C1113 C1114 1.374 . S
C1114 H1088 0.950 . S
C1114 C1110 1.403 . S
C1114 C1113 1.374 . S
C1115 C1112 1.511 . S
C1115 C1116 1.393 . S
C1115 C1117 1.338 1_455 S
C1116 H1089 0.950 . S
C1116 C1102 1.377 . S
C1116 C1115 1.393 . S
C1117 C1101 1.377 . S
C1117 C1115 1.338 1_655 S
C1117 C1118 1.524 . S
C1118 C1117 1.524 . S
C1118 C1119 1.397 1_655 S
C1118 C1123 1.363 . S
C1119 H1090 0.950 . S
C1119 C1118 1.397 1_455 S
C1119 C1120 1.334 . S
C1120 H1091 0.950 . S
C1120 C1119 1.334 . S
C1120 C1121 1.287 1_455 S
C1121 C1120 1.287 1_655 S
C1121 C1122 1.524 . S
C1121 H1124 0.999 . S
C1122 H1092 0.950 . S
C1122 C1121 1.524 . S
C1122 C1123 1.415 . S
C1123 H1093 0.950 . S
C1123 C1118 1.363 . S
C1123 C1122 1.415 . S
H1124 C1121 0.999 . S
H1125 C1106 0.913 . S
H1126 C1144 0.951 . S
H1127 C1146 0.951 . S
H1128 C1148 0.950 . S
H1129 C1149 0.950 . S
H1130 C1151 0.950 . S
H1131 C1154 0.950 . S
H1132 C1155 0.950 . S
H1133 C1157 0.950 . S
H1134 C1158 0.950 . S
H1135 C1159 0.951 . S
H1136 C1161 0.951 . S
H1137 C1163 0.950 . S
H1138 C1164 0.950 . S
H1139 C1166 0.950 . S
H1140 C1169 0.950 . S
H1141 C1170 0.950 . S
H1142 C1172 0.950 . S
H1143 C1173 0.950 . S
C1144 H1126 0.951 . S
C1144 C1145 1.366 . S
C1144 C1146 1.388 . S
C1145 C1144 1.366 . S
C1145 C1149 1.385 . S
C1146 H1127 0.951 . S
C1146 C1144 1.388 . S
C1146 C1147 1.366 . S
C1147 C1146 1.366 . S
C1147 C1148 1.414 . S
C1147 C1150 1.499 . S
C1148 H1128 0.950 . S
C1148 C1147 1.414 . S
C1148 C1149 1.374 . S
C1149 H1129 0.950 . S
C1149 C1145 1.385 . S
C1149 C1148 1.374 . S
C1150 C1147 1.499 . S
C1150 C1151 1.373 . S
C1150 C1152 1.389 . S
C1151 H1130 0.950 . S
C1151 C1150 1.373 . S
C1151 C1167 1.377 . S
C1152 C1150 1.389 . S
C1152 C1153 1.524 . S
C1152 C1166 1.377 . S
C1153 C1152 1.524 . S
C1153 C1154 1.397 . S
C1153 C1158 1.363 . S
C1154 H1131 0.950 . S
C1154 C1153 1.397 . S
C1154 C1155 1.334 . S
C1155 H1132 0.950 . S
C1155 C1154 1.334 . S
C1155 C1156 1.287 . S
C1156 C1155 1.287 . S
C1156 C1157 1.524 . S
C1156 H1175 0.913 . S
C1157 H1133 0.950 . S
C1157 C1156 1.524 . S
C1157 C1158 1.415 . S
C1158 H1134 0.950 . S
C1158 C1153 1.363 . S
C1158 C1157 1.415 . S
C1159 H1135 0.951 . S
C1159 C1160 1.366 . S
C1159 C1161 1.388 . S
C1160 C1159 1.366 . S
C1160 C1164 1.385 . S
C1161 H1136 0.951 . S
C1161 C1159 1.388 . S
C1161 C1162 1.366 . S
C1162 C1161 1.366 . S
C1162 C1163 1.414 . S
C1162 C1165 1.499 . S
C1163 H1137 0.950 . S
C1163 C1162 1.414 . S
C1163 C1164 1.374 . S
C1164 H1138 0.950 . S
C1164 C1160 1.385 . S
C1164 C1163 1.374 . S
C1165 C1162 1.499 . S
C1165 C1166 1.373 . S
C1165 C1167 1.389 . S
C1166 H1139 0.950 . S
C1166 C1152 1.377 . S
C1166 C1165 1.373 . S
C1167 C1151 1.377 . S
C1167 C1165 1.389 . S
C1167 C1168 1.524 . S
C1168 C1167 1.524 . S
C1168 C1169 1.397 . S
C1168 C1173 1.363 . S
C1169 H1140 0.950 . S
C1169 C1168 1.397 . S
C1169 C1170 1.334 . S
C1170 H1141 0.950 . S
C1170 C1169 1.334 . S
C1170 C1171 1.287 . S
C1171 C1170 1.287 . S
C1171 C1172 1.524 . S
C1171 H1174 0.999 . S
C1172 H1142 0.950 . S
C1172 C1171 1.524 . S
C1172 C1173 1.415 . S
C1173 H1143 0.950 . S
C1173 C1168 1.363 . S
C1173 C1172 1.415 . S
H1174 C1171 0.999 . S
H1175 C1156 0.913 . S
H1176 C1194 0.951 . S
H1177 C1196 0.951 . S
H1178 C1198 0.950 . S
H1179 C1199 0.950 . S
H1180 C1201 0.950 . S
H1181 C1204 0.950 . S
H1182 C1205 0.950 . S
H1183 C1207 0.950 . S
H1184 C1208 0.950 . S
H1185 C1209 0.951 . S
H1186 C1211 0.951 . S
H1187 C1213 0.950 . S
H1188 C1214 0.950 . S
H1189 C1216 0.950 . S
H1190 C1219 0.950 . S
H1191 C1220 0.950 . S
H1192 C1222 0.950 . S
H1193 C1223 0.950 . S
C1194 H1176 0.951 . S
C1194 C1195 1.366 . S
C1194 C1196 1.388 . S
C1195 C1194 1.366 . S
C1195 C1199 1.385 . S
C1196 H1177 0.951 . S
C1196 C1194 1.388 . S
C1196 C1197 1.366 . S
C1197 C1196 1.366 . S
C1197 C1198 1.414 . S
C1197 C1200 1.499 . S
C1198 H1178 0.950 . S
C1198 C1197 1.414 . S
C1198 C1199 1.374 . S
C1199 H1179 0.950 . S
C1199 C1195 1.385 . S
C1199 C1198 1.374 . S
C1200 C1197 1.499 . S
C1200 C1201 1.373 . S
C1200 C1202 1.389 . S
C1201 H1180 0.950 . S
C1201 C1200 1.373 . S
C1201 C1217 1.377 . S
C1202 C1200 1.389 . S
C1202 C1203 1.524 . S
C1202 C1216 1.377 . S
C1203 C1202 1.524 . S
C1203 C1204 1.397 . S
C1203 C1208 1.363 . S
C1204 H1181 0.950 . S
C1204 C1203 1.397 . S
C1204 C1205 1.334 . S
C1205 H1182 0.950 . S
C1205 C1204 1.334 . S
C1205 C1206 1.287 . S
C1206 C1205 1.287 . S
C1206 C1207 1.524 . S
C1206 H1225 0.913 . S
C1207 H1183 0.950 . S
C1207 C1206 1.524 . S
C1207 C1208 1.415 . S
C1208 H1184 0.950 . S
C1208 C1203 1.363 . S
C1208 C1207 1.415 . S
C1209 H1185 0.951 . S
C1209 C1210 1.366 . S
C1209 C1211 1.388 . S
C1210 C1209 1.366 . S
C1210 C1214 1.385 . S
C1211 H1186 0.951 . S
C1211 C1209 1.388 . S
C1211 C1212 1.366 . S
C1212 C1211 1.366 . S
C1212 C1213 1.414 . S
C1212 C1215 1.499 . S
C1213 H1187 0.950 . S
C1213 C1212 1.414 . S
C1213 C1214 1.374 . S
C1214 H1188 0.950 . S
C1214 C1210 1.385 . S
C1214 C1213 1.374 . S
C1215 C1212 1.499 . S
C1215 C1216 1.373 . S
C1215 C1217 1.389 . S
C1216 H1189 0.950 . S
C1216 C1202 1.377 . S
C1216 C1215 1.373 . S
C1217 C1201 1.377 . S
C1217 C1215 1.389 . S
C1217 C1218 1.524 . S
C1218 C1217 1.524 . S
C1218 C1219 1.397 . S
C1218 C1223 1.363 . S
C1219 H1190 0.950 . S
C1219 C1218 1.397 . S
C1219 C1220 1.334 . S
C1220 H1191 0.950 . S
C1220 C1219 1.334 . S
C1220 C1221 1.287 . S
C1221 C1220 1.287 . S
C1221 C1222 1.524 . S
C1221 H1224 0.999 . S
C1222 H1192 0.950 . S
C1222 C1221 1.524 . S
C1222 C1223 1.415 . S
C1223 H1193 0.950 . S
C1223 C1218 1.363 . S
C1223 C1222 1.415 . S
H1224 C1221 0.999 . S
H1225 C1206 0.913 . S
H1226 C1244 0.951 . S
H1227 C1246 0.951 . S
H1228 C1248 0.950 . S
H1229 C1249 0.950 . S
H1230 C1251 0.950 . S
H1231 C1254 0.950 . S
H1232 C1255 0.950 . S
H1233 C1257 0.950 . S
H1234 C1258 0.950 . S
H1235 C1259 0.951 . S
H1236 C1261 0.951 . S
H1237 C1263 0.950 . S
H1238 C1264 0.950 . S
H1239 C1266 0.950 . S
H1240 C1269 0.950 . S
H1241 C1270 0.950 . S
H1242 C1272 0.950 . S
H1243 C1273 0.950 . S
C1244 H1226 0.951 . S
C1244 C1245 1.366 . S
C1244 C1246 1.388 . S
C1245 C1244 1.366 . S
C1245 C1249 1.385 . S
C1246 H1227 0.951 . S
C1246 C1244 1.388 . S
C1246 C1247 1.366 . S
C1247 C1246 1.366 . S
C1247 C1248 1.414 . S
C1247 C1250 1.499 . S
C1248 H1228 0.950 . S
C1248 C1247 1.414 . S
C1248 C1249 1.374 . S
C1249 H1229 0.950 . S
C1249 C1245 1.385 . S
C1249 C1248 1.374 . S
C1250 C1247 1.499 . S
C1250 C1251 1.373 . S
C1250 C1252 1.389 . S
C1251 H1230 0.950 . S
C1251 C1250 1.373 . S
C1251 C1267 1.377 . S
C1252 C1250 1.389 . S
C1252 C1253 1.524 . S
C1252 C1266 1.377 . S
C1253 C1252 1.524 . S
C1253 C1254 1.397 . S
C1253 C1258 1.363 . S
C1254 H1231 0.950 . S
C1254 C1253 1.397 . S
C1254 C1255 1.334 . S
C1255 H1232 0.950 . S
C1255 C1254 1.334 . S
C1255 C1256 1.287 . S
C1256 C1255 1.287 . S
C1256 C1257 1.524 . S
C1256 H1275 0.913 . S
C1257 H1233 0.950 . S
C1257 C1256 1.524 . S
C1257 C1258 1.415 . S
C1258 H1234 0.950 . S
C1258 C1253 1.363 . S
C1258 C1257 1.415 . S
C1259 H1235 0.951 . S
C1259 C1260 1.366 . S
C1259 C1261 1.388 . S
C1260 C1259 1.366 . S
C1260 C1264 1.385 . S
C1261 H1236 0.951 . S
C1261 C1259 1.388 . S
C1261 C1262 1.366 . S
C1262 C1261 1.366 . S
C1262 C1263 1.414 . S
C1262 C1265 1.499 . S
C1263 H1237 0.950 . S
C1263 C1262 1.414 . S
C1263 C1264 1.374 . S
C1264 H1238 0.950 . S
C1264 C1260 1.385 . S
C1264 C1263 1.374 . S
C1265 C1262 1.499 . S
C1265 C1266 1.373 . S
C1265 C1267 1.389 . S
C1266 H1239 0.950 . S
C1266 C1252 1.377 . S
C1266 C1265 1.373 . S
C1267 C1251 1.377 . S
C1267 C1265 1.389 . S
C1267 C1268 1.524 . S
C1268 C1267 1.524 . S
C1268 C1269 1.397 . S
C1268 C1273 1.363 . S
C1269 H1240 0.950 . S
C1269 C1268 1.397 . S
C1269 C1270 1.334 . S
C1270 H1241 0.950 . S
C1270 C1269 1.334 . S
C1270 C1271 1.287 . S
C1271 C1270 1.287 . S
C1271 C1272 1.524 . S
C1271 H1274 0.999 . S
C1272 H1242 0.950 . S
C1272 C1271 1.524 . S
C1272 C1273 1.415 . S
C1273 H1243 0.950 . S
C1273 C1268 1.363 . S
C1273 C1272 1.415 . S
H1274 C1271 0.999 . S
H1275 C1256 0.913 . S
H1276 C1294 0.951 . S
H1277 C1296 0.951 . S
H1278 C1298 0.950 . S
H1279 C1299 0.950 . S
H1280 C1301 0.950 . S
H1281 C1304 0.950 . S
H1282 C1305 0.950 . S
H1283 C1307 0.950 . S
H1284 C1308 0.950 . S
H1285 C1309 0.951 . S
H1286 C1311 0.951 . S
H1287 C1313 0.950 . S
H1288 C1314 0.950 . S
H1289 C1316 0.950 . S
H1290 C1319 0.950 . S
H1291 C1320 0.950 . S
H1292 C1322 0.950 . S
H1293 C1323 0.950 . S
C1294 H1276 0.951 . S
C1294 C1295 1.366 . S
C1294 C1296 1.388 . S
C1295 C1294 1.366 . S
C1295 C1299 1.385 . S
C1296 H1277 0.951 . S
C1296 C1294 1.388 . S
C1296 C1297 1.366 . S
C1297 C1296 1.366 . S
C1297 C1298 1.414 . S
C1297 C1300 1.499 . S
C1298 H1278 0.950 . S
C1298 C1297 1.414 . S
C1298 C1299 1.374 . S
C1299 H1279 0.950 . S
C1299 C1295 1.385 . S
C1299 C1298 1.374 . S
C1300 C1297 1.499 . S
C1300 C1301 1.373 . S
C1300 C1302 1.389 . S
C1301 H1280 0.950 . S
C1301 C1300 1.373 . S
C1301 C1317 1.377 . S
C1302 C1300 1.389 . S
C1302 C1303 1.524 . S
C1302 C1316 1.377 . S
C1303 C1302 1.524 . S
C1303 C1304 1.397 . S
C1303 C1308 1.363 . S
C1304 H1281 0.950 . S
C1304 C1303 1.397 . S
C1304 C1305 1.334 . S
C1305 H1282 0.950 . S
C1305 C1304 1.334 . S
C1305 C1306 1.287 . S
C1306 C1305 1.287 . S
C1306 C1307 1.524 . S
C1306 H1325 0.913 . S
C1307 H1283 0.950 . S
C1307 C1306 1.524 . S
C1307 C1308 1.415 . S
C1308 H1284 0.950 . S
C1308 C1303 1.363 . S
C1308 C1307 1.415 . S
C1309 H1285 0.951 . S
C1309 C1310 1.366 . S
C1309 C1311 1.388 . S
C1310 C1309 1.366 . S
C1310 C1314 1.385 . S
C1311 H1286 0.951 . S
C1311 C1309 1.388 . S
C1311 C1312 1.366 . S
C1312 C1311 1.366 . S
C1312 C1313 1.414 . S
C1312 C1315 1.499 . S
C1313 H1287 0.950 . S
C1313 C1312 1.414 . S
C1313 C1314 1.374 . S
C1314 H1288 0.950 . S
C1314 C1310 1.385 . S
C1314 C1313 1.374 . S
C1315 C1312 1.499 . S
C1315 C1316 1.373 . S
C1315 C1317 1.389 . S
C1316 H1289 0.950 . S
C1316 C1302 1.377 . S
C1316 C1315 1.373 . S
C1317 C1301 1.377 . S
C1317 C1315 1.389 . S
C1317 C1318 1.524 . S
C1318 C1317 1.524 . S
C1318 C1319 1.397 . S
C1318 C1323 1.363 . S
C1319 H1290 0.950 . S
C1319 C1318 1.397 . S
C1319 C1320 1.334 . S
C1320 H1291 0.950 . S
C1320 C1319 1.334 . S
C1320 C1321 1.287 . S
C1321 C1320 1.287 . S
C1321 C1322 1.524 . S
C1321 H1324 0.999 . S
C1322 H1292 0.950 . S
C1322 C1321 1.524 . S
C1322 C1323 1.415 . S
C1323 H1293 0.950 . S
C1323 C1318 1.363 . S
C1323 C1322 1.415 . S
H1324 C1321 0.999 . S
H1325 C1306 0.913 . S
H1326 C1344 0.951 . S
H1327 C1346 0.951 . S
H1328 C1348 0.950 . S
H1329 C1349 0.950 . S
H1330 C1351 0.950 . S
H1331 C1354 0.950 . S
H1332 C1355 0.950 . S
H1333 C1357 0.950 . S
H1334 C1358 0.950 . S
H1335 C1359 0.951 . S
H1336 C1361 0.951 . S
H1337 C1363 0.950 . S
H1338 C1364 0.950 . S
H1339 C1366 0.950 . S
H1340 C1369 0.950 . S
H1341 C1370 0.950 . S
H1342 C1372 0.950 . S
H1343 C1373 0.950 . S
C1344 H1326 0.951 . S
C1344 C1345 1.366 . S
C1344 C1346 1.388 . S
C1345 C1344 1.366 . S
C1345 C1349 1.385 . S
C1346 H1327 0.951 . S
C1346 C1344 1.388 . S
C1346 C1347 1.366 . S
C1347 C1346 1.366 . S
C1347 C1348 1.414 . S
C1347 C1350 1.499 . S
C1348 H1328 0.950 . S
C1348 C1347 1.414 . S
C1348 C1349 1.374 . S
C1349 H1329 0.950 . S
C1349 C1345 1.385 . S
C1349 C1348 1.374 . S
C1350 C1347 1.499 . S
C1350 C1351 1.373 . S
C1350 C1352 1.389 . S
C1351 H1330 0.950 . S
C1351 C1350 1.373 . S
C1351 C1367 1.377 . S
C1352 C1350 1.389 . S
C1352 C1353 1.524 . S
C1352 C1366 1.377 . S
C1353 C1352 1.524 . S
C1353 C1354 1.397 . S
C1353 C1358 1.363 . S
C1354 H1331 0.950 . S
C1354 C1353 1.397 . S
C1354 C1355 1.334 . S
C1355 H1332 0.950 . S
C1355 C1354 1.334 . S
C1355 C1356 1.287 . S
C1356 C1355 1.287 . S
C1356 C1357 1.524 . S
C1356 H1375 0.913 . S
C1357 H1333 0.950 . S
C1357 C1356 1.524 . S
C1357 C1358 1.415 . S
C1358 H1334 0.950 . S
C1358 C1353 1.363 . S
C1358 C1357 1.415 . S
C1359 H1335 0.951 . S
C1359 C1360 1.366 . S
C1359 C1361 1.388 . S
C1360 C1359 1.366 . S
C1360 C1364 1.385 . S
C1361 H1336 0.951 . S
C1361 C1359 1.388 . S
C1361 C1362 1.366 . S
C1362 C1361 1.366 . S
C1362 C1363 1.414 . S
C1362 C1365 1.499 . S
C1363 H1337 0.950 . S
C1363 C1362 1.414 . S
C1363 C1364 1.374 . S
C1364 H1338 0.950 . S
C1364 C1360 1.385 . S
C1364 C1363 1.374 . S
C1365 C1362 1.499 . S
C1365 C1366 1.373 . S
C1365 C1367 1.389 . S
C1366 H1339 0.950 . S
C1366 C1352 1.377 . S
C1366 C1365 1.373 . S
C1367 C1351 1.377 . S
C1367 C1365 1.389 . S
C1367 C1368 1.524 . S
C1368 C1367 1.524 . S
C1368 C1369 1.397 . S
C1368 C1373 1.363 . S
C1369 H1340 0.950 . S
C1369 C1368 1.397 . S
C1369 C1370 1.334 . S
C1370 H1341 0.950 . S
C1370 C1369 1.334 . S
C1370 C1371 1.287 . S
C1371 C1370 1.287 . S
C1371 C1372 1.524 . S
C1371 H1374 0.999 . S
C1372 H1342 0.950 . S
C1372 C1371 1.524 . S
C1372 C1373 1.415 . S
C1373 H1343 0.950 . S
C1373 C1368 1.363 . S
C1373 C1372 1.415 . S
H1374 C1371 0.999 . S
H1375 C1356 0.913 . S
H1376 C1394 0.951 . S
H1377 C1396 0.951 . S
H1378 C1398 0.950 . S
H1379 C1399 0.950 . S
H1380 C1401 0.950 . S
H1381 C1404 0.950 . S
H1382 C1405 0.950 . S
H1383 C1407 0.950 . S
H1384 C1408 0.950 . S
H1385 C1409 0.951 . S
H1386 C1411 0.951 . S
H1387 C1413 0.950 . S
H1388 C1414 0.950 . S
H1389 C1416 0.950 . S
H1390 C1419 0.950 . S
H1391 C1420 0.950 . S
H1392 C1422 0.950 . S
H1393 C1423 0.950 . S
C1394 H1376 0.951 . S
C1394 C1395 1.366 . S
C1394 C1396 1.388 . S
C1395 C1394 1.366 . S
C1395 C1399 1.385 . S
C1396 H1377 0.951 . S
C1396 C1394 1.388 . S
C1396 C1397 1.366 . S
C1397 C1396 1.366 . S
C1397 C1398 1.414 . S
C1397 C1400 1.499 . S
C1398 H1378 0.950 . S
C1398 C1397 1.414 . S
C1398 C1399 1.374 . S
C1399 H1379 0.950 . S
C1399 C1395 1.385 . S
C1399 C1398 1.374 . S
C1400 C1397 1.499 . S
C1400 C1401 1.373 . S
C1400 C1402 1.389 . S
C1401 H1380 0.950 . S
C1401 C1400 1.373 . S
C1401 C1417 1.377 . S
C1402 C1400 1.389 . S
C1402 C1403 1.524 . S
C1402 C1416 1.377 . S
C1403 C1402 1.524 . S
C1403 C1404 1.397 . S
C1403 C1408 1.363 . S
C1404 H1381 0.950 . S
C1404 C1403 1.397 . S
C1404 C1405 1.334 . S
C1405 H1382 0.950 . S
C1405 C1404 1.334 . S
C1405 C1406 1.287 . S
C1406 C1405 1.287 . S
C1406 C1407 1.524 . S
C1406 H1425 0.913 . S
C1407 H1383 0.950 . S
C1407 C1406 1.524 . S
C1407 C1408 1.415 . S
C1408 H1384 0.950 . S
C1408 C1403 1.363 . S
C1408 C1407 1.415 . S
C1409 H1385 0.951 . S
C1409 C1410 1.366 . S
C1409 C1411 1.388 . S
C1410 C1409 1.366 . S
C1410 C1414 1.385 . S
C1411 H1386 0.951 . S
C1411 C1409 1.388 . S
C1411 C1412 1.366 . S
C1412 C1411 1.366 . S
C1412 C1413 1.414 . S
C1412 C1415 1.499 . S
C1413 H1387 0.950 . S
C1413 C1412 1.414 . S
C1413 C1414 1.374 . S
C1414 H1388 0.950 . S
C1414 C1410 1.385 . S
C1414 C1413 1.374 . S
C1415 C1412 1.499 . S
C1415 C1416 1.373 . S
C1415 C1417 1.389 . S
C1416 H1389 0.950 . S
C1416 C1402 1.377 . S
C1416 C1415 1.373 . S
C1417 C1401 1.377 . S
C1417 C1415 1.389 . S
C1417 C1418 1.524 . S
C1418 C1417 1.524 . S
C1418 C1419 1.397 . S
C1418 C1423 1.363 . S
C1419 H1390 0.950 . S
C1419 C1418 1.397 . S
C1419 C1420 1.334 . S
C1420 H1391 0.950 . S
C1420 C1419 1.334 . S
C1420 C1421 1.287 . S
C1421 C1420 1.287 . S
C1421 C1422 1.524 . S
C1421 H1424 0.999 . S
C1422 H1392 0.950 . S
C1422 C1421 1.524 . S
C1422 C1423 1.415 . S
C1423 H1393 0.950 . S
C1423 C1418 1.363 . S
C1423 C1422 1.415 . S
H1424 C1421 0.999 . S
H1425 C1406 0.913 . S
H1426 C1444 0.951 . S
H1427 C1446 0.951 . S
H1428 C1448 0.950 . S
H1429 C1449 0.950 . S
H1430 C1451 0.950 . S
H1431 C1454 0.950 . S
H1432 C1455 0.950 . S
H1433 C1457 0.950 . S
H1434 C1458 0.950 . S
H1435 C1459 0.951 . S
H1436 C1461 0.951 . S
H1437 C1463 0.950 . S
H1438 C1464 0.950 . S
H1439 C1466 0.950 . S
H1440 C1469 0.950 . S
H1441 C1470 0.950 . S
H1442 C1472 0.950 . S
H1443 C1473 0.950 . S
C1444 H1426 0.951 . S
C1444 C1445 1.366 . S
C1444 C1446 1.388 . S
C1445 C1444 1.366 . S
C1445 C1449 1.385 . S
C1446 H1427 0.951 . S
C1446 C1444 1.388 . S
C1446 C1447 1.366 . S
C1447 C1446 1.366 . S
C1447 C1448 1.414 . S
C1447 C1450 1.499 . S
C1448 H1428 0.950 . S
C1448 C1447 1.414 . S
C1448 C1449 1.374 . S
C1449 H1429 0.950 . S
C1449 C1445 1.385 . S
C1449 C1448 1.374 . S
C1450 C1447 1.499 . S
C1450 C1451 1.373 . S
C1450 C1452 1.389 . S
C1451 H1430 0.950 . S
C1451 C1450 1.373 . S
C1451 C1467 1.377 . S
C1452 C1450 1.389 . S
C1452 C1453 1.524 . S
C1452 C1466 1.377 . S
C1453 C1452 1.524 . S
C1453 C1454 1.397 . S
C1453 C1458 1.363 . S
C1454 H1431 0.950 . S
C1454 C1453 1.397 . S
C1454 C1455 1.334 . S
C1455 H1432 0.950 . S
C1455 C1454 1.334 . S
C1455 C1456 1.287 . S
C1456 C1455 1.287 . S
C1456 C1457 1.524 . S
C1456 H1475 0.913 . S
C1457 H1433 0.950 . S
C1457 C1456 1.524 . S
C1457 C1458 1.415 . S
C1458 H1434 0.950 . S
C1458 C1453 1.363 . S
C1458 C1457 1.415 . S
C1459 H1435 0.951 . S
C1459 C1460 1.366 . S
C1459 C1461 1.388 . S
C1460 C1459 1.366 . S
C1460 C1464 1.385 . S
C1461 H1436 0.951 . S
C1461 C1459 1.388 . S
C1461 C1462 1.366 . S
C1462 C1461 1.366 . S
C1462 C1463 1.414 . S
C1462 C1465 1.499 . S
C1463 H1437 0.950 . S
C1463 C1462 1.414 . S
C1463 C1464 1.374 . S
C1464 H1438 0.950 . S
C1464 C1460 1.385 . S
C1464 C1463 1.374 . S
C1465 C1462 1.499 . S
C1465 C1466 1.373 . S
C1465 C1467 1.389 . S
C1466 H1439 0.950 . S
C1466 C1452 1.377 . S
C1466 C1465 1.373 . S
C1467 C1451 1.377 . S
C1467 C1465 1.389 . S
C1467 C1468 1.524 . S
C1468 C1467 1.524 . S
C1468 C1469 1.397 . S
C1468 C1473 1.363 . S
C1469 H1440 0.950 . S
C1469 C1468 1.397 . S
C1469 C1470 1.334 . S
C1470 H1441 0.950 . S
C1470 C1469 1.334 . S
C1470 C1471 1.287 . S
C1471 C1470 1.287 . S
C1471 C1472 1.524 . S
C1471 H1474 0.999 . S
C1472 H1442 0.950 . S
C1472 C1471 1.524 . S
C1472 C1473 1.415 . S
C1473 H1443 0.950 . S
C1473 C1468 1.363 . S
C1473 C1472 1.415 . S
H1474 C1471 0.999 . S
H1475 C1456 0.913 . S
H1476 C1494 0.951 . S
H1477 C1496 0.951 . S
H1478 C1498 0.950 . S
H1479 C1499 0.950 . S
H1480 C1501 0.950 . S
H1481 C1504 0.950 . S
H1482 C1505 0.950 . S
H1483 C1507 0.950 . S
H1484 C1508 0.950 . S
H1485 C1509 0.951 . S
H1486 C1511 0.951 . S
H1487 C1513 0.950 . S
H1488 C1514 0.950 . S
H1489 C1516 0.950 . S
H1490 C1519 0.950 . S
H1491 C1520 0.950 . S
H1492 C1522 0.950 . S
H1493 C1523 0.950 . S
C1494 H1476 0.951 . S
C1494 C1495 1.366 . S
C1494 C1496 1.388 . S
C1495 C1494 1.366 . S
C1495 C1499 1.385 . S
C1496 H1477 0.951 . S
C1496 C1494 1.388 . S
C1496 C1497 1.366 . S
C1497 C1496 1.366 . S
C1497 C1498 1.414 . S
C1497 C1500 1.499 . S
C1498 H1478 0.950 . S
C1498 C1497 1.414 . S
C1498 C1499 1.374 . S
C1499 H1479 0.950 . S
C1499 C1495 1.385 . S
C1499 C1498 1.374 . S
C1500 C1497 1.499 . S
C1500 C1501 1.373 . S
C1500 C1502 1.389 . S
C1501 H1480 0.950 . S
C1501 C1500 1.373 . S
C1501 C1517 1.377 . S
C1502 C1500 1.389 . S
C1502 C1503 1.524 . S
C1502 C1516 1.377 . S
C1503 C1502 1.524 . S
C1503 C1504 1.397 . S
C1503 C1508 1.363 . S
C1504 H1481 0.950 . S
C1504 C1503 1.397 . S
C1504 C1505 1.334 . S
C1505 H1482 0.950 . S
C1505 C1504 1.334 . S
C1505 C1506 1.287 . S
C1506 C1505 1.287 . S
C1506 C1507 1.524 . S
C1506 H1525 0.913 . S
C1507 H1483 0.950 . S
C1507 C1506 1.524 . S
C1507 C1508 1.415 . S
C1508 H1484 0.950 . S
C1508 C1503 1.363 . S
C1508 C1507 1.415 . S
C1509 H1485 0.951 . S
C1509 C1510 1.366 . S
C1509 C1511 1.388 . S
C1510 C1509 1.366 . S
C1510 C1514 1.385 . S
C1511 H1486 0.951 . S
C1511 C1509 1.388 . S
C1511 C1512 1.366 . S
C1512 C1511 1.366 . S
C1512 C1513 1.414 . S
C1512 C1515 1.499 . S
C1513 H1487 0.950 . S
C1513 C1512 1.414 . S
C1513 C1514 1.374 . S
C1514 H1488 0.950 . S
C1514 C1510 1.385 . S
C1514 C1513 1.374 . S
C1515 C1512 1.499 . S
C1515 C1516 1.373 . S
C1515 C1517 1.389 . S
C1516 H1489 0.950 . S
C1516 C1502 1.377 . S
C1516 C1515 1.373 . S
C1517 C1501 1.377 . S
C1517 C1515 1.389 . S
C1517 C1518 1.524 . S
C1518 C1517 1.524 . S
C1518 C1519 1.397 . S
C1518 C1523 1.363 . S
C1519 H1490 0.950 . S
C1519 C1518 1.397 . S
C1519 C1520 1.334 . S
C1520 H1491 0.950 . S
C1520 C1519 1.334 . S
C1520 C1521 1.287 . S
C1521 C1520 1.287 . S
C1521 C1522 1.524 . S
C1521 H1524 0.999 . S
C1522 H1492 0.950 . S
C1522 C1521 1.524 . S
C1522 C1523 1.415 . S
C1523 H1493 0.950 . S
C1523 C1518 1.363 . S
C1523 C1522 1.415 . S
H1524 C1521 0.999 . S
H1525 C1506 0.913 . S
H1526 C1544 0.951 . S
H1527 C1546 0.951 . S
H1528 C1548 0.950 . S
H1529 C1549 0.950 . S
H1530 C1551 0.950 . S
H1531 C1554 0.950 . S
H1532 C1555 0.950 . S
H1533 C1557 0.950 . S
H1534 C1558 0.950 . S
H1535 C1559 0.951 . S
H1536 C1561 0.951 . S
H1537 C1563 0.950 . S
H1538 C1564 0.950 . S
H1539 C1566 0.950 . S
H1540 C1569 0.950 . S
H1541 C1570 0.950 . S
H1542 C1572 0.950 . S
H1543 C1573 0.950 . S
C1544 H1526 0.951 . S
C1544 C1545 1.366 . S
C1544 C1546 1.388 . S
C1545 C1544 1.366 . S
C1545 C1549 1.385 . S
C1546 H1527 0.951 . S
C1546 C1544 1.388 . S
C1546 C1547 1.366 . S
C1547 C1546 1.366 . S
C1547 C1548 1.414 . S
C1547 C1550 1.499 . S
C1548 H1528 0.950 . S
C1548 C1547 1.414 . S
C1548 C1549 1.374 . S
C1549 H1529 0.950 . S
C1549 C1545 1.385 . S
C1549 C1548 1.374 . S
C1550 C1547 1.499 . S
C1550 C1551 1.373 . S
C1550 C1552 1.389 . S
C1551 H1530 0.950 . S
C1551 C1550 1.373 . S
C1551 C1567 1.377 . S
C1552 C1550 1.389 . S
C1552 C1553 1.524 . S
C1552 C1566 1.377 . S
C1553 C1552 1.524 . S
C1553 C1554 1.397 . S
C1553 C1558 1.363 . S
C1554 H1531 0.950 . S
C1554 C1553 1.397 . S
C1554 C1555 1.334 . S
C1555 H1532 0.950 . S
C1555 C1554 1.334 . S
C1555 C1556 1.287 . S
C1556 C1555 1.287 . S
C1556 C1557 1.524 . S
C1556 H1575 0.913 . S
C1557 H1533 0.950 . S
C1557 C1556 1.524 . S
C1557 C1558 1.415 . S
C1558 H1534 0.950 . S
C1558 C1553 1.363 . S
C1558 C1557 1.415 . S
C1559 H1535 0.951 . S
C1559 C1560 1.366 . S
C1559 C1561 1.388 . S
C1560 C1559 1.366 . S
C1560 C1564 1.385 . S
C1561 H1536 0.951 . S
C1561 C1559 1.388 . S
C1561 C1562 1.366 . S
C1562 C1561 1.366 . S
C1562 C1563 1.414 . S
C1562 C1565 1.499 . S
C1563 H1537 0.950 . S
C1563 C1562 1.414 . S
C1563 C1564 1.374 . S
C1564 H1538 0.950 . S
C1564 C1560 1.385 . S
C1564 C1563 1.374 . S
C1565 C1562 1.499 . S
C1565 C1566 1.373 . S
C1565 C1567 1.389 . S
C1566 H1539 0.950 . S
C1566 C1552 1.377 . S
C1566 C1565 1.373 . S
C1567 C1551 1.377 . S
C1567 C1565 1.389 . S
C1567 C1568 1.524 . S
C1568 C1567 1.524 . S
C1568 C1569 1.397 . S
C1568 C1573 1.363 . S
C1569 H1540 0.950 . S
C1569 C1568 1.397 . S
C1569 C1570 1.334 . S
C1570 H1541 0.950 . S
C1570 C1569 1.334 . S
C1570 C1571 1.287 . S
C1571 C1570 1.287 . S
C1571 C1572 1.524 . S
C1571 H1574 0.999 . S
C1572 H1542 0.950 . S
C1572 C1571 1.524 . S
C1572 C1573 1.415 . S
C1573 H1543 0.950 . S
C1573 C1568 1.363 . S
C1573 C1572 1.415 . S
H1574 C1571 0.999 . S
H1575 C1556 0.913 . S
H1576 C1594 0.951 . S
H1577 C1596 0.951 . S
H1578 C1598 0.950 . S
H1579 C1599 0.950 . S
H1580 C1601 0.950 . S
H1581 C1604 0.950 . S
H1582 C1605 0.950 . S
H1583 C1607 0.950 . S
H1584 C1608 0.950 . S
H1585 C1609 0.951 . S
H1586 C1611 0.951 . S
H1587 C1613 0.950 . S
H1588 C1614 0.950 . S
H1589 C1616 0.950 . S
H1590 C1619 0.950 . S
H1591 C1620 0.950 . S
H1592 C1622 0.950 . S
H1593 C1623 0.950 . S
C1594 H1576 0.951 . S
C1594 C1595 1.366 . S
C1594 C1596 1.388 . S
C1595 C1594 1.366 . S
C1595 C1599 1.385 . S
C1596 H1577 0.951 . S
C1596 C1594 1.388 . S
C1596 C1597 1.366 . S
C1597 C1596 1.366 . S
C1597 C1598 1.414 . S
C1597 C1600 1.499 . S
C1598 H1578 0.950 . S
C1598 C1597 1.414 . S
C1598 C1599 1.374 . S
C1599 H1579 0.950 . S
C1599 C1595 1.385 . S
C1599 C1598 1.374 . S
C1600 C1597 1.499 . S
C1600 C1601 1.373 . S
C1600 C1602 1.389 . S
C1601 H1580 0.950 . S
C1601 C1600 1.373 . S
C1601 C1617 1.377 . S
C1602 C1600 1.389 . S
C1602 C1603 1.524 . S
C1602 C1616 1.377 . S
C1603 C1602 1.524 . S
C1603 C1604 1.397 . S
C1603 C1608 1.363 . S
C1604 H1581 0.950 . S
C1604 C1603 1.397 . S
C1604 C1605 1.334 . S
C1605 H1582 0.950 . S
C1605 C1604 1.334 . S
C1605 C1606 1.287 . S
C1606 C1605 1.287 . S
C1606 C1607 1.524 . S
C1606 H1625 0.913 . S
C1607 H1583 0.950 . S
C1607 C1606 1.524 . S
C1607 C1608 1.415 . S
C1608 H1584 0.950 . S
C1608 C1603 1.363 . S
C1608 C1607 1.415 . S
C1609 H1585 0.951 . S
C1609 C1610 1.366 . S
C1609 C1611 1.388 . S
C1610 C1609 1.366 . S
C1610 C1614 1.385 . S
C1611 H1586 0.951 . S
C1611 C1609 1.388 . S
C1611 C1612 1.366 . S
C1612 C1611 1.366 . S
C1612 C1613 1.414 . S
C1612 C1615 1.499 . S
C1613 H1587 0.950 . S
C1613 C1612 1.414 . S
C1613 C1614 1.374 . S
C1614 H1588 0.950 . S
C1614 C1610 1.385 . S
C1614 C1613 1.374 . S
C1615 C1612 1.499 . S
C1615 C1616 1.373 . S
C1615 C1617 1.389 . S
C1616 H1589 0.950 . S
C1616 C1602 1.377 . S
C1616 C1615 1.373 . S
C1617 C1601 1.377 . S
C1617 C1615 1.389 . S
C1617 C1618 1.524 . S
C1618 C1617 1.524 . S
C1618 C1619 1.397 . S
C1618 C1623 1.363 . S
C1619 H1590 0.950 . S
C1619 C1618 1.397 . S
C1619 C1620 1.334 . S
C1620 H1591 0.950 . S
C1620 C1619 1.334 . S
C1620 C1621 1.287 . S
C1621 C1620 1.287 . S
C1621 C1622 1.524 . S
C1621 H1624 0.999 . S
C1622 H1592 0.950 . S
C1622 C1621 1.524 . S
C1622 C1623 1.415 . S
C1623 H1593 0.950 . S
C1623 C1618 1.363 . S
C1623 C1622 1.415 . S
H1624 C1621 0.999 . S
H1625 C1606 0.913 . S
H1626 C1644 0.951 . S
H1627 C1646 0.951 . S
H1628 C1648 0.950 . S
H1629 C1649 0.950 . S
H1630 C1651 0.950 . S
H1631 C1654 0.950 . S
H1632 C1655 0.950 . S
H1633 C1657 0.950 . S
H1634 C1658 0.950 . S
H1635 C1659 0.951 . S
H1636 C1661 0.951 . S
H1637 C1663 0.950 . S
H1638 C1664 0.950 . S
H1639 C1666 0.950 . S
H1640 C1669 0.950 . S
H1641 C1670 0.950 . S
H1642 C1672 0.950 . S
H1643 C1673 0.950 . S
C1644 H1626 0.951 . S
C1644 C1645 1.366 . S
C1644 C1646 1.388 . S
C1645 C1644 1.366 . S
C1645 C1649 1.385 . S
C1646 H1627 0.951 . S
C1646 C1644 1.388 . S
C1646 C1647 1.366 . S
C1647 C1646 1.366 . S
C1647 C1648 1.414 . S
C1647 C1650 1.499 . S
C1648 H1628 0.950 . S
C1648 C1647 1.414 . S
C1648 C1649 1.374 . S
C1649 H1629 0.950 . S
C1649 C1645 1.385 . S
C1649 C1648 1.374 . S
C1650 C1647 1.499 . S
C1650 C1651 1.373 . S
C1650 C1652 1.389 . S
C1651 H1630 0.950 . S
C1651 C1650 1.373 . S
C1651 C1667 1.377 . S
C1652 C1650 1.389 . S
C1652 C1653 1.524 . S
C1652 C1666 1.377 . S
C1653 C1652 1.524 . S
C1653 C1654 1.397 . S
C1653 C1658 1.363 . S
C1654 H1631 0.950 . S
C1654 C1653 1.397 . S
C1654 C1655 1.334 . S
C1655 H1632 0.950 . S
C1655 C1654 1.334 . S
C1655 C1656 1.287 . S
C1656 C1655 1.287 . S
C1656 C1657 1.524 . S
C1656 H1675 0.913 . S
C1657 H1633 0.950 . S
C1657 C1656 1.524 . S
C1657 C1658 1.415 . S
C1658 H1634 0.950 . S
C1658 C1653 1.363 . S
C1658 C1657 1.415 . S
C1659 H1635 0.951 . S
C1659 C1660 1.366 . S
C1659 C1661 1.388 . S
C1660 C1659 1.366 . S
C1660 C1664 1.385 . S
C1661 H1636 0.951 . S
C1661 C1659 1.388 . S
C1661 C1662 1.366 . S
C1662 C1661 1.366 . S
C1662 C1663 1.414 . S
C1662 C1665 1.499 . S
C1663 H1637 0.950 . S
C1663 C1662 1.414 . S
C1663 C1664 1.374 . S
C1664 H1638 0.950 . S
C1664 C1660 1.385 . S
C1664 C1663 1.374 . S
C1665 C1662 1.499 . S
C1665 C1666 1.373 . S
C1665 C1667 1.389 . S
C1666 H1639 0.950 . S
C1666 C1652 1.377 . S
C1666 C1665 1.373 . S
C1667 C1651 1.377 . S
C1667 C1665 1.389 . S
C1667 C1668 1.524 . S
C1668 C1667 1.524 . S
C1668 C1669 1.397 . S
C1668 C1673 1.363 . S
C1669 H1640 0.950 . S
C1669 C1668 1.397 . S
C1669 C1670 1.334 . S
C1670 H1641 0.950 . S
C1670 C1669 1.334 . S
C1670 C1671 1.287 . S
C1671 C1670 1.287 . S
C1671 C1672 1.524 . S
C1671 H1674 0.999 . S
C1672 H1642 0.950 . S
C1672 C1671 1.524 . S
C1672 C1673 1.415 . S
C1673 H1643 0.950 . S
C1673 C1668 1.363 . S
C1673 C1672 1.415 . S
H1674 C1671 0.999 . S
H1675 C1656 0.913 . S
H1676 C1694 0.951 . S
H1677 C1696 0.951 . S
H1678 C1698 0.950 . S
H1679 C1699 0.950 . S
H1680 C1701 0.950 . S
H1681 C1704 0.950 . S
H1682 C1705 0.950 . S
H1683 C1707 0.950 . S
H1684 C1708 0.950 . S
H1685 C1709 0.951 . S
H1686 C1711 0.951 . S
H1687 C1713 0.950 . S
H1688 C1714 0.950 . S
H1689 C1716 0.950 . S
H1690 C1719 0.950 . S
H1691 C1720 0.950 . S
H1692 C1722 0.950 . S
H1693 C1723 0.950 . S
C1694 H1676 0.951 . S
C1694 C1695 1.366 . S
C1694 C1696 1.388 . S
C1695 C1694 1.366 . S
C1695 C1699 1.385 . S
C1696 H1677 0.951 . S
C1696 C1694 1.388 . S
C1696 C1697 1.366 . S
C1697 C1696 1.366 . S
C1697 C1698 1.414 . S
C1697 C1700 1.499 . S
C1698 H1678 0.950 . S
C1698 C1697 1.414 . S
C1698 C1699 1.374 . S
C1699 H1679 0.950 . S
C1699 C1695 1.385 . S
C1699 C1698 1.374 . S
C1700 C1697 1.499 . S
C1700 C1701 1.373 . S
C1700 C1702 1.389 . S
C1701 H1680 0.950 . S
C1701 C1700 1.373 . S
C1701 C1717 1.377 . S
C1702 C1700 1.389 . S
C1702 C1703 1.524 . S
C1702 C1716 1.377 . S
C1703 C1702 1.524 . S
C1703 C1704 1.397 . S
C1703 C1708 1.363 . S
C1704 H1681 0.950 . S
C1704 C1703 1.397 . S
C1704 C1705 1.334 . S
C1705 H1682 0.950 . S
C1705 C1704 1.334 . S
C1705 C1706 1.287 . S
C1706 C1705 1.287 . S
C1706 C1707 1.524 . S
C1706 H1725 0.913 . S
C1707 H1683 0.950 . S
C1707 C1706 1.524 . S
C1707 C1708 1.415 . S
C1708 H1684 0.950 . S
C1708 C1703 1.363 . S
C1708 C1707 1.415 . S
C1709 H1685 0.951 . S
C1709 C1710 1.366 . S
C1709 C1711 1.388 . S
C1710 C1709 1.366 . S
C1710 C1714 1.385 . S
C1711 H1686 0.951 . S
C1711 C1709 1.388 . S
C1711 C1712 1.366 . S
C1712 C1711 1.366 . S
C1712 C1713 1.414 . S
C1712 C1715 1.499 . S
C1713 H1687 0.950 . S
C1713 C1712 1.414 . S
C1713 C1714 1.374 . S
C1714 H1688 0.950 . S
C1714 C1710 1.385 . S
C1714 C1713 1.374 . S
C1715 C1712 1.499 . S
C1715 C1716 1.373 . S
C1715 C1717 1.389 . S
C1716 H1689 0.950 . S
C1716 C1702 1.377 . S
C1716 C1715 1.373 . S
C1717 C1701 1.377 . S
C1717 C1715 1.389 . S
C1717 C1718 1.524 . S
C1718 C1717 1.524 . S
C1718 C1719 1.397 . S
C1718 C1723 1.363 . S
C1719 H1690 0.950 . S
C1719 C1718 1.397 . S
C1719 C1720 1.334 . S
C1720 H1691 0.950 . S
C1720 C1719 1.334 . S
C1720 C1721 1.287 . S
C1721 C1720 1.287 . S
C1721 C1722 1.524 . S
C1721 H1724 0.999 . S
C1722 H1692 0.950 . S
C1722 C1721 1.524 . S
C1722 C1723 1.415 . S
C1723 H1693 0.950 . S
C1723 C1718 1.363 . S
C1723 C1722 1.415 . S
H1724 C1721 0.999 . S
H1725 C1706 0.913 . S
H1726 C1744 0.951 . S
H1727 C1746 0.951 . S
H1728 C1748 0.950 . S
H1729 C1749 0.950 . S
H1730 C1751 0.950 . S
H1731 C1754 0.950 . S
H1732 C1755 0.950 . S
H1733 C1757 0.950 . S
H1734 C1758 0.950 . S
H1735 C1759 0.951 . S
H1736 C1761 0.951 . S
H1737 C1763 0.950 . S
H1738 C1764 0.950 . S
H1739 C1766 0.950 . S
H1740 C1769 0.950 . S
H1741 C1770 0.950 . S
H1742 C1772 0.950 . S
H1743 C1773 0.950 . S
C1744 H1726 0.951 . S
C1744 C1745 1.366 . S
C1744 C1746 1.388 . S
C1745 C1744 1.366 . S
C1745 C1749 1.385 . S
C1746 H1727 0.951 . S
C1746 C1744 1.388 . S
C1746 C1747 1.366 . S
C1747 C1746 1.366 . S
C1747 C1748 1.414 . S
C1747 C1750 1.499 . S
C1748 H1728 0.950 . S
C1748 C1747 1.414 . S
C1748 C1749 1.374 . S
C1749 H1729 0.950 . S
C1749 C1745 1.385 . S
C1749 C1748 1.374 . S
C1750 C1747 1.499 . S
C1750 C1751 1.373 . S
C1750 C1752 1.389 . S
C1751 H1730 0.950 . S
C1751 C1750 1.373 . S
C1751 C1767 1.377 . S
C1752 C1750 1.389 . S
C1752 C1753 1.524 . S
C1752 C1766 1.377 . S
C1753 C1752 1.524 . S
C1753 C1754 1.397 . S
C1753 C1758 1.363 . S
C1754 H1731 0.950 . S
C1754 C1753 1.397 . S
C1754 C1755 1.334 . S
C1755 H1732 0.950 . S
C1755 C1754 1.334 . S
C1755 C1756 1.287 . S
C1756 C1755 1.287 . S
C1756 C1757 1.524 . S
C1756 H1775 0.913 . S
C1757 H1733 0.950 . S
C1757 C1756 1.524 . S
C1757 C1758 1.415 . S
C1758 H1734 0.950 . S
C1758 C1753 1.363 . S
C1758 C1757 1.415 . S
C1759 H1735 0.951 . S
C1759 C1760 1.366 . S
C1759 C1761 1.388 . S
C1760 C1759 1.366 . S
C1760 C1764 1.385 . S
C1761 H1736 0.951 . S
C1761 C1759 1.388 . S
C1761 C1762 1.366 . S
C1762 C1761 1.366 . S
C1762 C1763 1.414 . S
C1762 C1765 1.499 . S
C1763 H1737 0.950 . S
C1763 C1762 1.414 . S
C1763 C1764 1.374 . S
C1764 H1738 0.950 . S
C1764 C1760 1.385 . S
C1764 C1763 1.374 . S
C1765 C1762 1.499 . S
C1765 C1766 1.373 . S
C1765 C1767 1.389 . S
C1766 H1739 0.950 . S
C1766 C1752 1.377 . S
C1766 C1765 1.373 . S
C1767 C1751 1.377 . S
C1767 C1765 1.389 . S
C1767 C1768 1.524 . S
C1768 C1767 1.524 . S
C1768 C1769 1.397 . S
C1768 C1773 1.363 . S
C1769 H1740 0.950 . S
C1769 C1768 1.397 . S
C1769 C1770 1.334 . S
C1770 H1741 0.950 . S
C1770 C1769 1.334 . S
C1770 C1771 1.287 . S
C1771 C1770 1.287 . S
C1771 C1772 1.524 . S
C1771 H1774 0.999 . S
C1772 H1742 0.950 . S
C1772 C1771 1.524 . S
C1772 C1773 1.415 . S
C1773 H1743 0.950 . S
C1773 C1768 1.363 . S
C1773 C1772 1.415 . S
H1774 C1771 0.999 . S
H1775 C1756 0.913 . S
H1776 C1794 0.951 . S
H1777 C1796 0.951 . S
H1778 C1798 0.950 . S
H1779 C1799 0.950 . S
H1780 C1801 0.950 . S
H1781 C1804 0.950 . S
H1782 C1805 0.950 . S
H1783 C1807 0.950 . S
H1784 C1808 0.950 . S
H1785 C1809 0.951 . S
H1786 C1811 0.951 . S
H1787 C1813 0.950 . S
H1788 C1814 0.950 . S
H1789 C1816 0.950 . S
H1790 C1819 0.950 . S
H1791 C1820 0.950 . S
H1792 C1822 0.950 . S
H1793 C1823 0.950 . S
C1794 H1776 0.951 . S
C1794 C1795 1.366 . S
C1794 C1796 1.388 . S
C1795 C1794 1.366 . S
C1795 C1799 1.385 . S
C1796 H1777 0.951 . S
C1796 C1794 1.388 . S
C1796 C1797 1.366 . S
C1797 C1796 1.366 . S
C1797 C1798 1.414 . S
C1797 C1800 1.499 . S
C1798 H1778 0.950 . S
C1798 C1797 1.414 . S
C1798 C1799 1.374 . S
C1799 H1779 0.950 . S
C1799 C1795 1.385 . S
C1799 C1798 1.374 . S
C1800 C1797 1.499 . S
C1800 C1801 1.373 . S
C1800 C1802 1.389 . S
C1801 H1780 0.950 . S
C1801 C1800 1.373 . S
C1801 C1817 1.377 . S
C1802 C1800 1.389 . S
C1802 C1803 1.524 . S
C1802 C1816 1.377 . S
C1803 C1802 1.524 . S
C1803 C1804 1.397 . S
C1803 C1808 1.363 . S
C1804 H1781 0.950 . S
C1804 C1803 1.397 . S
C1804 C1805 1.334 . S
C1805 H1782 0.950 . S
C1805 C1804 1.334 . S
C1805 C1806 1.287 . S
C1806 C1805 1.287 . S
C1806 C1807 1.524 . S
C1806 H1825 0.913 . S
C1807 H1783 0.950 . S
C1807 C1806 1.524 . S
C1807 C1808 1.415 . S
C1808 H1784 0.950 . S
C1808 C1803 1.363 . S
C1808 C1807 1.415 . S
C1809 H1785 0.951 . S
C1809 C1810 1.366 . S
C1809 C1811 1.388 . S
C1810 C1809 1.366 . S
C1810 C1814 1.385 . S
C1811 H1786 0.951 . S
C1811 C1809 1.388 . S
C1811 C1812 1.366 . S
C1812 C1811 1.366 . S
C1812 C1813 1.414 . S
C1812 C1815 1.499 . S
C1813 H1787 0.950 . S
C1813 C1812 1.414 . S
C1813 C1814 1.374 . S
C1814 H1788 0.950 . S
C1814 C1810 1.385 . S
C1814 C1813 1.374 . S
C1815 C1812 1.499 . S
C1815 C1816 1.373 . S
C1815 C1817 1.389 . S
C1816 H1789 0.950 . S
C1816 C1802 1.377 . S
C1816 C1815 1.373 . S
C1817 C1801 1.377 . S
C1817 C1815 1.389 . S
C1817 C1818 1.524 . S
C1818 C1817 1.524 . S
C1818 C1819 1.397 . S
C1818 C1823 1.363 . S
C1819 H1790 0.950 . S
C1819 C1818 1.397 . S
C1819 C1820 1.334 . S
C1820 H1791 0.950 . S
C1820 C1819 1.334 . S
C1820 C1821 1.287 . S
C1821 C1820 1.287 . S
C1821 C1822 1.524 . S
C1821 H1824 0.999 . S
C1822 H1792 0.950 . S
C1822 C1821 1.524 . S
C1822 C1823 1.415 . S
C1823 H1793 0.950 . S
C1823 C1818 1.363 . S
C1823 C1822 1.415 . S
H1824 C1821 0.999 . S
H1825 C1806 0.913 . S
H1826 C1844 0.951 . S
H1827 C1846 0.951 . S
H1828 C1848 0.950 . S
H1829 C1849 0.950 . S
H1830 C1851 0.950 . S
H1831 C1854 0.950 . S
H1832 C1855 0.950 . S
H1833 C1857 0.950 . S
H1834 C1858 0.950 . S
H1835 C1859 0.951 . S
H1836 C1861 0.951 . S
H1837 C1863 0.950 . S
H1838 C1864 0.950 . S
H1839 C1866 0.950 . S
H1840 C1869 0.950 . S
H1841 C1870 0.950 . S
H1842 C1872 0.950 . S
H1843 C1873 0.950 . S
C1844 H1826 0.951 . S
C1844 C1845 1.366 . S
C1844 C1846 1.388 . S
C1845 C1844 1.366 . S
C1845 C1849 1.385 . S
C1846 H1827 0.951 . S
C1846 C1844 1.388 . S
C1846 C1847 1.366 . S
C1847 C1846 1.366 . S
C1847 C1848 1.414 . S
C1847 C1850 1.499 . S
C1848 H1828 0.950 . S
C1848 C1847 1.414 . S
C1848 C1849 1.374 . S
C1849 H1829 0.950 . S
C1849 C1845 1.385 . S
C1849 C1848 1.374 . S
C1850 C1847 1.499 . S
C1850 C1851 1.373 . S
C1850 C1852 1.389 . S
C1851 H1830 0.950 . S
C1851 C1850 1.373 . S
C1851 C1867 1.377 . S
C1852 C1850 1.389 . S
C1852 C1853 1.524 . S
C1852 C1866 1.377 . S
C1853 C1852 1.524 . S
C1853 C1854 1.397 . S
C1853 C1858 1.363 . S
C1854 H1831 0.950 . S
C1854 C1853 1.397 . S
C1854 C1855 1.334 . S
C1855 H1832 0.950 . S
C1855 C1854 1.334 . S
C1855 C1856 1.287 . S
C1856 C1855 1.287 . S
C1856 C1857 1.524 . S
C1856 H1875 0.913 . S
C1857 H1833 0.950 . S
C1857 C1856 1.524 . S
C1857 C1858 1.415 . S
C1858 H1834 0.950 . S
C1858 C1853 1.363 . S
C1858 C1857 1.415 . S
C1859 H1835 0.951 . S
C1859 C1860 1.366 . S
C1859 C1861 1.388 . S
C1860 C1859 1.366 . S
C1860 C1864 1.385 . S
C1861 H1836 0.951 . S
C1861 C1859 1.388 . S
C1861 C1862 1.366 . S
C1862 C1861 1.366 . S
C1862 C1863 1.414 . S
C1862 C1865 1.499 . S
C1863 H1837 0.950 . S
C1863 C1862 1.414 . S
C1863 C1864 1.374 . S
C1864 H1838 0.950 . S
C1864 C1860 1.385 . S
C1864 C1863 1.374 . S
C1865 C1862 1.499 . S
C1865 C1866 1.373 . S
C1865 C1867 1.389 . S
C1866 H1839 0.950 . S
C1866 C1852 1.377 . S
C1866 C1865 1.373 . S
C1867 C1851 1.377 . S
C1867 C1865 1.389 . S
C1867 C1868 1.524 . S
C1868 C1867 1.524 . S
C1868 C1869 1.397 . S
C1868 C1873 1.363 . S
C1869 H1840 0.950 . S
C1869 C1868 1.397 . S
C1869 C1870 1.334 . S
C1870 H1841 0.950 . S
C1870 C1869 1.334 . S
C1870 C1871 1.287 . S
C1871 C1870 1.287 . S
C1871 C1872 1.524 . S
C1871 H1874 0.999 . S
C1872 H1842 0.950 . S
C1872 C1871 1.524 . S
C1872 C1873 1.415 . S
C1873 H1843 0.950 . S
C1873 C1868 1.363 . S
C1873 C1872 1.415 . S
H1874 C1871 0.999 . S
H1875 C1856 0.913 . S
H1876 C1894 0.951 . S
H1877 C1896 0.951 . S
H1878 C1898 0.950 . S
H1879 C1899 0.950 . S
H1880 C1901 0.950 . S
H1881 C1904 0.950 . S
H1882 C1905 0.950 . S
H1883 C1907 0.950 . S
H1884 C1908 0.950 . S
H1885 C1909 0.951 . S
H1886 C1911 0.951 . S
H1887 C1913 0.950 . S
H1888 C1914 0.950 . S
H1889 C1916 0.950 . S
H1890 C1919 0.950 . S
H1891 C1920 0.950 . S
H1892 C1922 0.950 . S
H1893 C1923 0.950 . S
C1894 H1876 0.951 . S
C1894 C1895 1.366 . S
C1894 C1896 1.388 . S
C1895 C1894 1.366 . S
C1895 C1899 1.385 . S
C1896 H1877 0.951 . S
C1896 C1894 1.388 . S
C1896 C1897 1.366 . S
C1897 C1896 1.366 . S
C1897 C1898 1.414 . S
C1897 C1900 1.499 . S
C1898 H1878 0.950 . S
C1898 C1897 1.414 . S
C1898 C1899 1.374 . S
C1899 H1879 0.950 . S
C1899 C1895 1.385 . S
C1899 C1898 1.374 . S
C1900 C1897 1.499 . S
C1900 C1901 1.373 . S
C1900 C1902 1.389 . S
C1901 H1880 0.950 . S
C1901 C1900 1.373 . S
C1901 C1917 1.377 . S
C1902 C1900 1.389 . S
C1902 C1903 1.524 . S
C1902 C1916 1.377 . S
C1903 C1902 1.524 . S
C1903 C1904 1.397 . S
C1903 C1908 1.363 . S
C1904 H1881 0.950 . S
C1904 C1903 1.397 . S
C1904 C1905 1.334 . S
C1905 H1882 0.950 . S
C1905 C1904 1.334 . S
C1905 C1906 1.287 . S
C1906 C1905 1.287 . S
C1906 C1907 1.524 . S
C1906 H1925 0.913 . S
C1907 H1883 0.950 . S
C1907 C1906 1.524 . S
C1907 C1908 1.415 . S
C1908 H1884 0.950 . S
C1908 C1903 1.363 . S
C1908 C1907 1.415 . S
C1909 H1885 0.951 . S
C1909 C1910 1.366 . S
C1909 C1911 1.388 . S
C1910 C1909 1.366 . S
C1910 C1914 1.385 . S
C1911 H1886 0.951 . S
C1911 C1909 1.388 . S
C1911 C1912 1.366 . S
C1912 C1911 1.366 . S
C1912 C1913 1.414 . S
C1912 C1915 1.499 . S
C1913 H1887 0.950 . S
C1913 C1912 1.414 . S
C1913 C1914 1.374 . S
C1914 H1888 0.950 . S
C1914 C1910 1.385 . S
C1914 C1913 1.374 . S
C1915 C1912 1.499 . S
C1915 C1916 1.373 . S
C1915 C1917 1.389 . S
C1916 H1889 0.950 . S
C1916 C1902 1.377 . S
C1916 C1915 1.373 . S
C1917 C1901 1.377 . S
C1917 C1915 1.389 . S
C1917 C1918 1.524 . S
C1918 C1917 1.524 . S
C1918 C1919 1.397 . S
C1918 C1923 1.363 . S
C1919 H1890 0.950 . S
C1919 C1918 1.397 . S
C1919 C1920 1.334 . S
C1920 H1891 0.950 . S
C1920 C1919 1.334 . S
C1920 C1921 1.287 . S
C1921 C1920 1.287 . S
C1921 C1922 1.524 . S
C1921 H1924 0.999 . S
C1922 H1892 0.950 . S
C1922 C1921 1.524 . S
C1922 C1923 1.415 . S
C1923 H1893 0.950 . S
C1923 C1918 1.363 . S
C1923 C1922 1.415 . S
H1924 C1921 0.999 . S
H1925 C1906 0.913 . S
H1926 C1944 0.951 . S
H1927 C1946 0.951 . S
H1928 C1948 0.950 . S
H1929 C1949 0.950 . S
H1930 C1951 0.950 . S
H1931 C1954 0.950 . S
H1932 C1955 0.950 . S
H1933 C1957 0.950 . S
H1934 C1958 0.950 . S
H1935 C1959 0.951 . S
H1936 C1961 0.951 . S
H1937 C1963 0.950 . S
H1938 C1964 0.950 . S
H1939 C1966 0.950 . S
H1940 C1969 0.950 . S
H1941 C1970 0.950 . S
H1942 C1972 0.950 . S
H1943 C1973 0.950 . S
C1944 H1926 0.951 . S
C1944 C1945 1.366 . S
C1944 C1946 1.388 . S
C1945 C1944 1.366 . S
C1945 C1949 1.385 . S
C1946 H1927 0.951 . S
C1946 C1944 1.388 . S
C1946 C1947 1.366 . S
C1947 C1946 1.366 . S
C1947 C1948 1.414 . S
C1947 C1950 1.499 . S
C1948 H1928 0.950 . S
C1948 C1947 1.414 . S
C1948 C1949 1.374 . S
C1949 H1929 0.950 . S
C1949 C1945 1.385 . S
C1949 C1948 1.374 . S
C1950 C1947 1.499 . S
C1950 C1951 1.373 . S
C1950 C1952 1.389 . S
C1951 H1930 0.950 . S
C1951 C1950 1.373 . S
C1951 C1967 1.377 . S
C1952 C1950 1.389 . S
C1952 C1953 1.524 . S
C1952 C1966 1.377 . S
C1953 C1952 1.524 . S
C1953 C1954 1.397 . S
C1953 C1958 1.363 . S
C1954 H1931 0.950 . S
C1954 C1953 1.397 . S
C1954 C1955 1.334 . S
C1955 H1932 0.950 . S
C1955 C1954 1.334 . S
C1955 C1956 1.287 . S
C1956 C1955 1.287 . S
C1956 C1957 1.524 . S
C1956 H1975 0.913 . S
C1957 H1933 0.950 . S
C1957 C1956 1.524 . S
C1957 C1958 1.415 . S
C1958 H1934 0.950 . S
C1958 C1953 1.363 . S
C1958 C1957 1.415 . S
C1959 H1935 0.951 . S
C1959 C1960 1.366 . S
C1959 C1961 1.388 . S
C1960 C1959 1.366 . S
C1960 C1964 1.385 . S
C1961 H1936 0.951 . S
C1961 C1959 1.388 . S
C1961 C1962 1.366 . S
C1962 C1961 1.366 . S
C1962 C1963 1.414 . S
C1962 C1965 1.499 . S
C1963 H1937 0.950 . S
C1963 C1962 1.414 . S
C1963 C1964 1.374 . S
C1964 H1938 0.950 . S
C1964 C1960 1.385 . S
C1964 C1963 1.374 . S
C1965 C1962 1.499 . S
C1965 C1966 1.373 . S
C1965 C1967 1.389 . S
C1966 H1939 0.950 . S
C1966 C1952 1.377 . S
C1966 C1965 1.373 . S
C1967 C1951 1.377 . S
C1967 C1965 1.389 . S
C1967 C1968 1.524 . S
C1968 C1967 1.524 . S
C1968 C1969 1.397 . S
C1968 C1973 1.363 . S
C1969 H1940 0.950 . S
C1969 C1968 1.397 . S
C1969 C1970 1.334 . S
C1970 H1941 0.950 . S
C1970 C1969 1.334 . S
C1970 C1971 1.287 . S
C1971 C1970 1.287 . S
C1971 C1972 1.524 . S
C1971 H1974 0.999 . S
C1972 H1942 0.950 . S
C1972 C1971 1.524 . S
C1972 C1973 1.415 . S
C1973 H1943 0.950 . S
C1973 C1968 1.363 . S
C1973 C1972 1.415 . S
H1974 C1971 0.999 . S
H1975 C1956 0.913 . S
H1976 C1994 0.951 . S
H1977 C1996 0.951 . S
H1978 C1998 0.950 . S
H1979 C1999 0.950 . S
H1980 C2001 0.950 . S
H1981 C2004 0.950 . S
H1982 C2005 0.950 . S
H1983 C2007 0.950 . S
H1984 C2008 0.950 . S
H1985 C2009 0.951 . S
H1986 C2011 0.951 . S
H1987 C2013 0.950 . S
H1988 C2014 0.950 . S
H1989 C2016 0.950 . S
H1990 C2019 0.950 . S
H1991 C2020 0.950 . S
H1992 C2022 0.950 . S
H1993 C2023 0.950 . S
C1994 H1976 0.951 . S
C1994 C1995 1.366 . S
C1994 C1996 1.388 . S
C1995 C1994 1.366 . S
C1995 C1999 1.385 . S
C1996 H1977 0.951 . S
C1996 C1994 1.388 . S
C1996 C1997 1.366 . S
C1997 C1996 1.366 . S
C1997 C1998 1.414 . S
C1997 C2000 1.499 . S
C1998 H1978 0.950 . S
C1998 C1997 1.414 . S
C1998 C1999 1.374 . S
C1999 H1979 0.950 . S
C1999 C1995 1.385 . S
C1999 C1998 1.374 . S
C2000 C1997 1.499 . S
C2000 C2001 1.373 . S
C2000 C2002 1.389 . S
C2001 H1980 0.950 . S
C2001 C2000 1.373 . S
C2001 C2017 1.377 . S
C2002 C2000 1.389 . S
C2002 C2003 1.524 . S
C2002 C2016 1.377 . S
C2003 C2002 1.524 . S
C2003 C2004 1.397 . S
C2003 C2008 1.363 . S
C2004 H1981 0.950 . S
C2004 C2003 1.397 . S
C2004 C2005 1.334 . S
C2005 H1982 0.950 . S
C2005 C2004 1.334 . S
C2005 C2006 1.287 . S
C2006 C2005 1.287 . S
C2006 C2007 1.524 . S
C2006 H2025 0.913 . S
C2007 H1983 0.950 . S
C2007 C2006 1.524 . S
C2007 C2008 1.415 . S
C2008 H1984 0.950 . S
C2008 C2003 1.363 . S
C2008 C2007 1.415 . S
C2009 H1985 0.951 . S
C2009 C2010 1.366 . S
C2009 C2011 1.388 . S
C2010 C2009 1.366 . S
C2010 C2014 1.385 . S
C2011 H1986 0.951 . S
C2011 C2009 1.388 . S
C2011 C2012 1.366 . S
C2012 C2011 1.366 . S
C2012 C2013 1.414 . S
C2012 C2015 1.499 . S
C2013 H1987 0.950 . S
C2013 C2012 1.414 . S
C2013 C2014 1.374 . S
C2014 H1988 0.950 . S
C2014 C2010 1.385 . S
C2014 C2013 1.374 . S
C2015 C2012 1.499 . S
C2015 C2016 1.373 . S
C2015 C2017 1.389 . S
C2016 H1989 0.950 . S
C2016 C2002 1.377 . S
C2016 C2015 1.373 . S
C2017 C2001 1.377 . S
C2017 C2015 1.389 . S
C2017 C2018 1.524 . S
C2018 C2017 1.524 . S
C2018 C2019 1.397 . S
C2018 C2023 1.363 . S
C2019 H1990 0.950 . S
C2019 C2018 1.397 . S
C2019 C2020 1.334 . S
C2020 H1991 0.950 . S
C2020 C2019 1.334 . S
C2020 C2021 1.287 . S
C2021 C2020 1.287 . S
C2021 C2022 1.524 . S
C2021 H2024 0.999 . S
C2022 H1992 0.950 . S
C2022 C2021 1.524 . S
C2022 C2023 1.415 . S
C2023 H1993 0.950 . S
C2023 C2018 1.363 . S
C2023 C2022 1.415 . S
H2024 C2021 0.999 . S
H2025 C2006 0.913 . S
H2026 C2044 0.951 . S
H2027 C2046 0.951 . S
H2028 C2048 0.950 . S
H2029 C2049 0.950 . S
H2030 C2051 0.950 . S
H2031 C2054 0.950 . S
H2032 C2055 0.950 . S
H2033 C2057 0.950 . S
H2034 C2058 0.950 . S
H2035 C2059 0.951 . S
H2036 C2061 0.951 . S
H2037 C2063 0.950 . S
H2038 C2064 0.950 . S
H2039 C2066 0.950 . S
H2040 C2069 0.950 . S
H2041 C2070 0.950 . S
H2042 C2072 0.950 . S
H2043 C2073 0.950 . S
C2044 H2026 0.951 . S
C2044 C2045 1.366 . S
C2044 C2046 1.388 . S
C2045 C2044 1.366 . S
C2045 C2049 1.385 . S
C2046 H2027 0.951 . S
C2046 C2044 1.388 . S
C2046 C2047 1.366 . S
C2047 C2046 1.366 . S
C2047 C2048 1.414 . S
C2047 C2050 1.499 . S
C2048 H2028 0.950 . S
C2048 C2047 1.414 . S
C2048 C2049 1.374 . S
C2049 H2029 0.950 . S
C2049 C2045 1.385 . S
C2049 C2048 1.374 . S
C2050 C2047 1.499 . S
C2050 C2051 1.373 . S
C2050 C2052 1.389 . S
C2051 H2030 0.950 . S
C2051 C2050 1.373 . S
C2051 C2067 1.377 . S
C2052 C2050 1.389 . S
C2052 C2053 1.524 . S
C2052 C2066 1.377 . S
C2053 C2052 1.524 . S
C2053 C2054 1.397 . S
C2053 C2058 1.363 . S
C2054 H2031 0.950 . S
C2054 C2053 1.397 . S
C2054 C2055 1.334 . S
C2055 H2032 0.950 . S
C2055 C2054 1.334 . S
C2055 C2056 1.287 . S
C2056 C2055 1.287 . S
C2056 C2057 1.524 . S
C2056 H2075 0.913 . S
C2057 H2033 0.950 . S
C2057 C2056 1.524 . S
C2057 C2058 1.415 . S
C2058 H2034 0.950 . S
C2058 C2053 1.363 . S
C2058 C2057 1.415 . S
C2059 H2035 0.951 . S
C2059 C2060 1.366 . S
C2059 C2061 1.388 . S
C2060 C2059 1.366 . S
C2060 C2064 1.385 . S
C2061 H2036 0.951 . S
C2061 C2059 1.388 . S
C2061 C2062 1.366 . S
C2062 C2061 1.366 . S
C2062 C2063 1.414 . S
C2062 C2065 1.499 . S
C2063 H2037 0.950 . S
C2063 C2062 1.414 . S
C2063 C2064 1.374 . S
C2064 H2038 0.950 . S
C2064 C2060 1.385 . S
C2064 C2063 1.374 . S
C2065 C2062 1.499 . S
C2065 C2066 1.373 . S
C2065 C2067 1.389 . S
C2066 H2039 0.950 . S
C2066 C2052 1.377 . S
C2066 C2065 1.373 . S
C2067 C2051 1.377 . S
C2067 C2065 1.389 . S
C2067 C2068 1.524 . S
C2068 C2067 1.524 . S
C2068 C2069 1.397 . S
C2068 C2073 1.363 . S
C2069 H2040 0.950 . S
C2069 C2068 1.397 . S
C2069 C2070 1.334 . S
C2070 H2041 0.950 . S
C2070 C2069 1.334 . S
C2070 C2071 1.287 . S
C2071 C2070 1.287 . S
C2071 C2072 1.524 . S
C2071 H2074 0.999 . S
C2072 H2042 0.950 . S
C2072 C2071 1.524 . S
C2072 C2073 1.415 . S
C2073 H2043 0.950 . S
C2073 C2068 1.363 . S
C2073 C2072 1.415 . S
H2074 C2071 0.999 . S
H2075 C2056 0.913 . S
H2076 C2094 0.951 . S
H2077 C2096 0.951 . S
H2078 C2098 0.950 . S
H2079 C2099 0.950 . S
H2080 C2101 0.950 . S
H2081 C2104 0.950 . S
H2082 C2105 0.950 . S
H2083 C2107 0.950 . S
H2084 C2108 0.950 . S
H2085 C2109 0.951 . S
H2086 C2111 0.951 . S
H2087 C2113 0.950 . S
H2088 C2114 0.950 . S
H2089 C2116 0.950 . S
H2090 C2119 0.950 . S
H2091 C2120 0.950 . S
H2092 C2122 0.950 . S
H2093 C2123 0.950 . S
C2094 H2076 0.951 . S
C2094 C2095 1.366 . S
C2094 C2096 1.388 . S
C2095 C2094 1.366 . S
C2095 C2099 1.385 . S
C2096 H2077 0.951 . S
C2096 C2094 1.388 . S
C2096 C2097 1.366 . S
C2097 C2096 1.366 . S
C2097 C2098 1.414 . S
C2097 C2100 1.499 . S
C2098 H2078 0.950 . S
C2098 C2097 1.414 . S
C2098 C2099 1.374 . S
C2099 H2079 0.950 . S
C2099 C2095 1.385 . S
C2099 C2098 1.374 . S
C2100 C2097 1.499 . S
C2100 C2101 1.373 . S
C2100 C2102 1.389 . S
C2101 H2080 0.950 . S
C2101 C2100 1.373 . S
C2101 C2117 1.377 . S
C2102 C2100 1.389 . S
C2102 C2103 1.524 . S
C2102 C2116 1.377 . S
C2103 C2102 1.524 . S
C2103 C2104 1.397 . S
C2103 C2108 1.363 . S
C2104 H2081 0.950 . S
C2104 C2103 1.397 . S
C2104 C2105 1.334 . S
C2105 H2082 0.950 . S
C2105 C2104 1.334 . S
C2105 C2106 1.287 . S
C2106 C2105 1.287 . S
C2106 C2107 1.524 . S
C2106 H2125 0.913 . S
C2107 H2083 0.950 . S
C2107 C2106 1.524 . S
C2107 C2108 1.415 . S
C2108 H2084 0.950 . S
C2108 C2103 1.363 . S
C2108 C2107 1.415 . S
C2109 H2085 0.951 . S
C2109 C2110 1.366 . S
C2109 C2111 1.388 . S
C2110 C2109 1.366 . S
C2110 C2114 1.385 . S
C2111 H2086 0.951 . S
C2111 C2109 1.388 . S
C2111 C2112 1.366 . S
C2112 C2111 1.366 . S
C2112 C2113 1.414 . S
C2112 C2115 1.499 . S
C2113 H2087 0.950 . S
C2113 C2112 1.414 . S
C2113 C2114 1.374 . S
C2114 H2088 0.950 . S
C2114 C2110 1.385 . S
C2114 C2113 1.374 . S
C2115 C2112 1.499 . S
C2115 C2116 1.373 . S
C2115 C2117 1.389 . S
C2116 H2089 0.950 . S
C2116 C2102 1.377 . S
C2116 C2115 1.373 . S
C2117 C2101 1.377 . S
C2117 C2115 1.389 . S
C2117 C2118 1.524 . S
C2118 C2117 1.524 . S
C2118 C2119 1.397 . S
C2118 C2123 1.363 . S
C2119 H2090 0.950 . S
C2119 C2118 1.397 . S
C2119 C2120 1.334 . S
C2120 H2091 0.950 . S
C2120 C2119 1.334 . S
C2120 C2121 1.287 . S
C2121 C2120 1.287 . S
C2121 C2122 1.524 . S
C2121 H2124 0.999 . S
C2122 H2092 0.950 . S
C2122 C2121 1.524 . S
C2122 C2123 1.415 . S
C2123 H2093 0.950 . S
C2123 C2118 1.363 . S
C2123 C2122 1.415 . S
H2124 C2121 0.999 . S
H2125 C2106 0.913 . S
H2126 C2144 0.951 . S
H2127 C2146 0.951 . S
H2128 C2148 0.950 . S
H2129 C2149 0.950 . S
H2130 C2151 0.950 . S
H2131 C2154 0.950 . S
H2132 C2155 0.950 . S
H2133 C2157 0.950 . S
H2134 C2158 0.950 . S
H2135 C2159 0.951 . S
H2136 C2161 0.951 . S
H2137 C2163 0.950 . S
H2138 C2164 0.950 . S
H2139 C2166 0.950 . S
H2140 C2169 0.950 . S
H2141 C2170 0.950 . S
H2142 C2172 0.950 . S
H2143 C2173 0.950 . S
C2144 H2126 0.951 . S
C2144 C2145 1.366 . S
C2144 C2146 1.388 . S
C2145 C2144 1.366 . S
C2145 C2149 1.385 . S
C2146 H2127 0.951 . S
C2146 C2144 1.388 . S
C2146 C2147 1.366 . S
C2147 C2146 1.366 . S
C2147 C2148 1.414 . S
C2147 C2150 1.499 . S
C2148 H2128 0.950 . S
C2148 C2147 1.414 . S
C2148 C2149 1.374 . S
C2149 H2129 0.950 . S
C2149 C2145 1.385 . S
C2149 C2148 1.374 . S
C2150 C2147 1.499 . S
C2150 C2151 1.373 . S
C2150 C2152 1.389 . S
C2151 H2130 0.950 . S
C2151 C2150 1.373 . S
C2151 C2167 1.377 . S
C2152 C2150 1.389 . S
C2152 C2153 1.524 . S
C2152 C2166 1.377 . S
C2153 C2152 1.524 . S
C2153 C2154 1.397 . S
C2153 C2158 1.363 . S
C2154 H2131 0.950 . S
C2154 C2153 1.397 . S
C2154 C2155 1.334 . S
C2155 H2132 0.950 . S
C2155 C2154 1.334 . S
C2155 C2156 1.287 . S
C2156 C2155 1.287 . S
C2156 C2157 1.524 . S
C2156 H2175 0.913 . S
C2157 H2133 0.950 . S
C2157 C2156 1.524 . S
C2157 C2158 1.415 . S
C2158 H2134 0.950 . S
C2158 C2153 1.363 . S
C2158 C2157 1.415 . S
C2159 H2135 0.951 . S
C2159 C2160 1.366 . S
C2159 C2161 1.388 . S
C2160 C2159 1.366 . S
C2160 C2164 1.385 . S
C2161 H2136 0.951 . S
C2161 C2159 1.388 . S
C2161 C2162 1.366 . S
C2162 C2161 1.366 . S
C2162 C2163 1.414 . S
C2162 C2165 1.499 . S
C2163 H2137 0.950 . S
C2163 C2162 1.414 . S
C2163 C2164 1.374 . S
C2164 H2138 0.950 . S
C2164 C2160 1.385 . S
C2164 C2163 1.374 . S
C2165 C2162 1.499 . S
C2165 C2166 1.373 . S
C2165 C2167 1.389 . S
C2166 H2139 0.950 . S
C2166 C2152 1.377 . S
C2166 C2165 1.373 . S
C2167 C2151 1.377 . S
C2167 C2165 1.389 . S
C2167 C2168 1.524 . S
C2168 C2167 1.524 . S
C2168 C2169 1.397 . S
C2168 C2173 1.363 . S
C2169 H2140 0.950 . S
C2169 C2168 1.397 . S
C2169 C2170 1.334 . S
C2170 H2141 0.950 . S
C2170 C2169 1.334 . S
C2170 C2171 1.287 . S
C2171 C2170 1.287 . S
C2171 C2172 1.524 . S
C2171 H2174 0.999 . S
C2172 H2142 0.950 . S
C2172 C2171 1.524 . S
C2172 C2173 1.415 . S
C2173 H2143 0.950 . S
C2173 C2168 1.363 . S
C2173 C2172 1.415 . S
H2174 C2171 0.999 . S
H2175 C2156 0.913 . S
H2176 C2194 0.951 . S
H2177 C2196 0.951 . S
H2178 C2198 0.950 . S
H2179 C2199 0.950 . S
H2180 C2201 0.950 . S
H2181 C2204 0.950 . S
H2182 C2205 0.950 . S
H2183 C2207 0.950 . S
H2184 C2208 0.950 . S
H2185 C2209 0.951 . S
H2186 C2211 0.951 . S
H2187 C2213 0.950 . S
H2188 C2214 0.950 . S
H2189 C2216 0.950 . S
H2190 C2219 0.950 . S
H2191 C2220 0.950 . S
H2192 C2222 0.950 . S
H2193 C2223 0.950 . S
C2194 H2176 0.951 . S
C2194 C2195 1.366 . S
C2194 C2196 1.388 . S
C2195 C2194 1.366 . S
C2195 C2199 1.385 . S
C2196 H2177 0.951 . S
C2196 C2194 1.388 . S
C2196 C2197 1.366 . S
C2197 C2196 1.366 . S
C2197 C2198 1.414 . S
C2197 C2200 1.499 . S
C2198 H2178 0.950 . S
C2198 C2197 1.414 . S
C2198 C2199 1.374 . S
C2199 H2179 0.950 . S
C2199 C2195 1.385 . S
C2199 C2198 1.374 . S
C2200 C2197 1.499 . S
C2200 C2201 1.373 . S
C2200 C2202 1.389 . S
C2201 H2180 0.950 . S
C2201 C2200 1.373 . S
C2201 C2217 1.377 . S
C2202 C2200 1.389 . S
C2202 C2203 1.524 . S
C2202 C2216 1.377 . S
C2203 C2202 1.524 . S
C2203 C2204 1.397 . S
C2203 C2208 1.363 . S
C2204 H2181 0.950 . S
C2204 C2203 1.397 . S
C2204 C2205 1.334 . S
C2205 H2182 0.950 . S
C2205 C2204 1.334 . S
C2205 C2206 1.287 . S
C2206 C2205 1.287 . S
C2206 C2207 1.524 . S
C2206 H2225 0.913 . S
C2207 H2183 0.950 . S
C2207 C2206 1.524 . S
C2207 C2208 1.415 . S
C2208 H2184 0.950 . S
C2208 C2203 1.363 . S
C2208 C2207 1.415 . S
C2209 H2185 0.951 . S
C2209 C2210 1.366 . S
C2209 C2211 1.388 . S
C2210 C2209 1.366 . S
C2210 C2214 1.385 . S
C2211 H2186 0.951 . S
C2211 C2209 1.388 . S
C2211 C2212 1.366 . S
C2212 C2211 1.366 . S
C2212 C2213 1.414 . S
C2212 C2215 1.499 . S
C2213 H2187 0.950 . S
C2213 C2212 1.414 . S
C2213 C2214 1.374 . S
C2214 H2188 0.950 . S
C2214 C2210 1.385 . S
C2214 C2213 1.374 . S
C2215 C2212 1.499 . S
C2215 C2216 1.373 . S
C2215 C2217 1.389 . S
C2216 H2189 0.950 . S
C2216 C2202 1.377 . S
C2216 C2215 1.373 . S
C2217 C2201 1.377 . S
C2217 C2215 1.389 . S
C2217 C2218 1.524 . S
C2218 C2217 1.524 . S
C2218 C2219 1.397 . S
C2218 C2223 1.363 . S
C2219 H2190 0.950 . S
C2219 C2218 1.397 . S
C2219 C2220 1.334 . S
C2220 H2191 0.950 . S
C2220 C2219 1.334 . S
C2220 C2221 1.287 . S
C2221 C2220 1.287 . S
C2221 C2222 1.524 . S
C2221 H2224 0.999 . S
C2222 H2192 0.950 . S
C2222 C2221 1.524 . S
C2222 C2223 1.415 . S
C2223 H2193 0.950 . S
C2223 C2218 1.363 . S
C2223 C2222 1.415 . S
H2224 C2221 0.999 . S
H2225 C2206 0.913 . S
H2226 C2244 0.951 . S
H2227 C2246 0.951 . S
H2228 C2248 0.950 . S
H2229 C2249 0.950 . S
H2230 C2251 0.950 . S
H2231 C2254 0.950 . S
H2232 C2255 0.950 . S
H2233 C2257 0.950 . S
H2234 C2258 0.950 . S
H2235 C2259 0.951 . S
H2236 C2261 0.951 . S
H2237 C2263 0.950 . S
H2238 C2264 0.950 . S
H2239 C2266 0.950 . S
H2240 C2269 0.950 . S
H2241 C2270 0.950 . S
H2242 C2272 0.950 . S
H2243 C2273 0.950 . S
C2244 H2226 0.951 . S
C2244 C2245 1.366 . S
C2244 C2246 1.388 . S
C2245 C2244 1.366 . S
C2245 C2249 1.385 . S
C2246 H2227 0.951 . S
C2246 C2244 1.388 . S
C2246 C2247 1.366 . S
C2247 C2246 1.366 . S
C2247 C2248 1.414 . S
C2247 C2250 1.499 . S
C2248 H2228 0.950 . S
C2248 C2247 1.414 . S
C2248 C2249 1.374 . S
C2249 H2229 0.950 . S
C2249 C2245 1.385 . S
C2249 C2248 1.374 . S
C2250 C2247 1.499 . S
C2250 C2251 1.373 . S
C2250 C2252 1.389 . S
C2251 H2230 0.950 . S
C2251 C2250 1.373 . S
C2251 C2267 1.377 . S
C2252 C2250 1.389 . S
C2252 C2253 1.524 . S
C2252 C2266 1.377 . S
C2253 C2252 1.524 . S
C2253 C2254 1.397 . S
C2253 C2258 1.363 . S
C2254 H2231 0.950 . S
C2254 C2253 1.397 . S
C2254 C2255 1.334 . S
C2255 H2232 0.950 . S
C2255 C2254 1.334 . S
C2255 C2256 1.287 . S
C2256 C2255 1.287 . S
C2256 C2257 1.524 . S
C2256 H2275 0.913 . S
C2257 H2233 0.950 . S
C2257 C2256 1.524 . S
C2257 C2258 1.415 . S
C2258 H2234 0.950 . S
C2258 C2253 1.363 . S
C2258 C2257 1.415 . S
C2259 H2235 0.951 . S
C2259 C2260 1.366 . S
C2259 C2261 1.388 . S
C2260 C2259 1.366 . S
C2260 C2264 1.385 . S
C2261 H2236 0.951 . S
C2261 C2259 1.388 . S
C2261 C2262 1.366 . S
C2262 C2261 1.366 . S
C2262 C2263 1.414 . S
C2262 C2265 1.499 . S
C2263 H2237 0.950 . S
C2263 C2262 1.414 . S
C2263 C2264 1.374 . S
C2264 H2238 0.950 . S
C2264 C2260 1.385 . S
C2264 C2263 1.374 . S
C2265 C2262 1.499 . S
C2265 C2266 1.373 . S
C2265 C2267 1.389 . S
C2266 H2239 0.950 . S
C2266 C2252 1.377 . S
C2266 C2265 1.373 . S
C2267 C2251 1.377 . S
C2267 C2265 1.389 . S
C2267 C2268 1.524 . S
C2268 C2267 1.524 . S
C2268 C2269 1.397 . S
C2268 C2273 1.363 . S
C2269 H2240 0.950 . S
C2269 C2268 1.397 . S
C2269 C2270 1.334 . S
C2270 H2241 0.950 . S
C2270 C2269 1.334 . S
C2270 C2271 1.287 . S
C2271 C2270 1.287 . S
C2271 C2272 1.524 . S
C2271 H2274 0.999 . S
C2272 H2242 0.950 . S
C2272 C2271 1.524 . S
C2272 C2273 1.415 . S
C2273 H2243 0.950 . S
C2273 C2268 1.363 . S
C2273 C2272 1.415 . S
H2274 C2271 0.999 . S
H2275 C2256 0.913 . S
H2276 C2294 0.951 . S
H2277 C2296 0.951 . S
H2278 C2298 0.950 . S
H2279 C2299 0.950 . S
H2280 C2301 0.950 . S
H2281 C2304 0.950 . S
H2282 C2305 0.950 . S
H2283 C2307 0.950 . S
H2284 C2308 0.950 . S
H2285 C2309 0.951 . S
H2286 C2311 0.951 . S
H2287 C2313 0.950 . S
H2288 C2314 0.950 . S
H2289 C2316 0.950 . S
H2290 C2319 0.950 . S
H2291 C2320 0.950 . S
H2292 C2322 0.950 . S
H2293 C2323 0.950 . S
C2294 H2276 0.951 . S
C2294 C2295 1.366 . S
C2294 C2296 1.388 . S
C2295 C2294 1.366 . S
C2295 C2299 1.385 . S
C2296 H2277 0.951 . S
C2296 C2294 1.388 . S
C2296 C2297 1.366 . S
C2297 C2296 1.366 . S
C2297 C2298 1.414 . S
C2297 C2300 1.499 . S
C2298 H2278 0.950 . S
C2298 C2297 1.414 . S
C2298 C2299 1.374 . S
C2299 H2279 0.950 . S
C2299 C2295 1.385 . S
C2299 C2298 1.374 . S
C2300 C2297 1.499 . S
C2300 C2301 1.373 . S
C2300 C2302 1.389 . S
C2301 H2280 0.950 . S
C2301 C2300 1.373 . S
C2301 C2317 1.377 . S
C2302 C2300 1.389 . S
C2302 C2303 1.524 . S
C2302 C2316 1.377 . S
C2303 C2302 1.524 . S
C2303 C2304 1.397 . S
C2303 C2308 1.363 . S
C2304 H2281 0.950 . S
C2304 C2303 1.397 . S
C2304 C2305 1.334 . S
C2305 H2282 0.950 . S
C2305 C2304 1.334 . S
C2305 C2306 1.287 . S
C2306 C2305 1.287 . S
C2306 C2307 1.524 . S
C2306 H2325 0.913 . S
C2307 H2283 0.950 . S
C2307 C2306 1.524 . S
C2307 C2308 1.415 . S
C2308 H2284 0.950 . S
C2308 C2303 1.363 . S
C2308 C2307 1.415 . S
C2309 H2285 0.951 . S
C2309 C2310 1.366 . S
C2309 C2311 1.388 . S
C2310 C2309 1.366 . S
C2310 C2314 1.385 . S
C2311 H2286 0.951 . S
C2311 C2309 1.388 . S
C2311 C2312 1.366 . S
C2312 C2311 1.366 . S
C2312 C2313 1.414 . S
C2312 C2315 1.499 . S
C2313 H2287 0.950 . S
C2313 C2312 1.414 . S
C2313 C2314 1.374 . S
C2314 H2288 0.950 . S
C2314 C2310 1.385 . S
C2314 C2313 1.374 . S
C2315 C2312 1.499 . S
C2315 C2316 1.373 . S
C2315 C2317 1.389 . S
C2316 H2289 0.950 . S
C2316 C2302 1.377 . S
C2316 C2315 1.373 . S
C2317 C2301 1.377 . S
C2317 C2315 1.389 . S
C2317 C2318 1.524 . S
C2318 C2317 1.524 . S
C2318 C2319 1.397 . S
C2318 C2323 1.363 . S
C2319 H2290 0.950 . S
C2319 C2318 1.397 . S
C2319 C2320 1.334 . S
C2320 H2291 0.950 . S
C2320 C2319 1.334 . S
C2320 C2321 1.287 . S
C2321 C2320 1.287 . S
C2321 C2322 1.524 . S
C2321 H2324 0.999 . S
C2322 H2292 0.950 . S
C2322 C2321 1.524 . S
C2322 C2323 1.415 . S
C2323 H2293 0.950 . S
C2323 C2318 1.363 . S
C2323 C2322 1.415 . S
H2324 C2321 0.999 . S
H2325 C2306 0.913 . S
H2326 C2344 0.951 . S
H2327 C2346 0.951 . S
H2328 C2348 0.950 . S
H2329 C2349 0.950 . S
H2330 C2351 0.950 . S
H2331 C2354 0.950 . S
H2332 C2355 0.950 . S
H2333 C2357 0.950 . S
H2334 C2358 0.950 . S
H2335 C2359 0.951 . S
H2336 C2361 0.951 . S
H2337 C2363 0.950 . S
H2338 C2364 0.950 . S
H2339 C2366 0.950 . S
H2340 C2369 0.950 . S
H2341 C2370 0.950 . S
H2342 C2372 0.950 . S
H2343 C2373 0.950 . S
C2344 H2326 0.951 . S
C2344 C2345 1.366 . S
C2344 C2346 1.388 . S
C2345 C2344 1.366 . S
C2345 C2349 1.385 . S
C2346 H2327 0.951 . S
C2346 C2344 1.388 . S
C2346 C2347 1.366 . S
C2347 C2346 1.366 . S
C2347 C2348 1.414 . S
C2347 C2350 1.499 . S
C2348 H2328 0.950 . S
C2348 C2347 1.414 . S
C2348 C2349 1.374 . S
C2349 H2329 0.950 . S
C2349 C2345 1.385 . S
C2349 C2348 1.374 . S
C2350 C2347 1.499 . S
C2350 C2351 1.373 . S
C2350 C2352 1.389 . S
C2351 H2330 0.950 . S
C2351 C2350 1.373 . S
C2351 C2367 1.377 . S
C2352 C2350 1.389 . S
C2352 C2353 1.524 . S
C2352 C2366 1.377 . S
C2353 C2352 1.524 . S
C2353 C2354 1.397 . S
C2353 C2358 1.363 . S
C2354 H2331 0.950 . S
C2354 C2353 1.397 . S
C2354 C2355 1.334 . S
C2355 H2332 0.950 . S
C2355 C2354 1.334 . S
C2355 C2356 1.287 . S
C2356 C2355 1.287 . S
C2356 C2357 1.524 . S
C2356 H2375 0.913 . S
C2357 H2333 0.950 . S
C2357 C2356 1.524 . S
C2357 C2358 1.415 . S
C2358 H2334 0.950 . S
C2358 C2353 1.363 . S
C2358 C2357 1.415 . S
C2359 H2335 0.951 . S
C2359 C2360 1.366 . S
C2359 C2361 1.388 . S
C2360 C2359 1.366 . S
C2360 C2364 1.385 . S
C2361 H2336 0.951 . S
C2361 C2359 1.388 . S
C2361 C2362 1.366 . S
C2362 C2361 1.366 . S
C2362 C2363 1.414 . S
C2362 C2365 1.499 . S
C2363 H2337 0.950 . S
C2363 C2362 1.414 . S
C2363 C2364 1.374 . S
C2364 H2338 0.950 . S
C2364 C2360 1.385 . S
C2364 C2363 1.374 . S
C2365 C2362 1.499 . S
C2365 C2366 1.373 . S
C2365 C2367 1.389 . S
C2366 H2339 0.950 . S
C2366 C2352 1.377 . S
C2366 C2365 1.373 . S
C2367 C2351 1.377 . S
C2367 C2365 1.389 . S
C2367 C2368 1.524 . S
C2368 C2367 1.524 . S
C2368 C2369 1.397 . S
C2368 C2373 1.363 . S
C2369 H2340 0.950 . S
C2369 C2368 1.397 . S
C2369 C2370 1.334 . S
C2370 H2341 0.950 . S
C2370 C2369 1.334 . S
C2370 C2371 1.287 . S
C2371 C2370 1.287 . S
C2371 C2372 1.524 . S
C2371 H2374 0.999 . S
C2372 H2342 0.950 . S
C2372 C2371 1.524 . S
C2372 C2373 1.415 . S
C2373 H2343 0.950 . S
C2373 C2368 1.363 . S
C2373 C2372 1.415 . S
H2374 C2371 0.999 . S
H2375 C2356 0.913 . S
H2376 C2394 0.951 . S
H2377 C2396 0.951 . S
H2378 C2398 0.950 . S
H2379 C2399 0.950 . S
H2380 C2401 0.950 . S
H2381 C2404 0.950 . S
H2382 C2405 0.950 . S
H2383 C2407 0.950 . S
H2384 C2408 0.950 . S
H2385 C2409 0.951 . S
H2386 C2411 0.951 . S
H2387 C2413 0.950 . S
H2388 C2414 0.950 . S
H2389 C2416 0.950 . S
H2390 C2419 0.950 . S
H2391 C2420 0.950 . S
H2392 C2422 0.950 . S
H2393 C2423 0.950 . S
C2394 H2376 0.951 . S
C2394 C2395 1.366 . S
C2394 C2396 1.388 . S
C2395 C2394 1.366 . S
C2395 C2399 1.385 . S
C2396 H2377 0.951 . S
C2396 C2394 1.388 . S
C2396 C2397 1.366 . S
C2397 C2396 1.366 . S
C2397 C2398 1.414 . S
C2397 C2400 1.499 . S
C2398 H2378 0.950 . S
C2398 C2397 1.414 . S
C2398 C2399 1.374 . S
C2399 H2379 0.950 . S
C2399 C2395 1.385 . S
C2399 C2398 1.374 . S
C2400 C2397 1.499 . S
C2400 C2401 1.373 . S
C2400 C2402 1.389 . S
C2401 H2380 0.950 . S
C2401 C2400 1.373 . S
C2401 C2417 1.377 . S
C2402 C2400 1.389 . S
C2402 C2403 1.524 . S
C2402 C2416 1.377 . S
C2403 C2402 1.524 . S
C2403 C2404 1.397 . S
C2403 C2408 1.363 . S
C2404 H2381 0.950 . S
C2404 C2403 1.397 . S
C2404 C2405 1.334 . S
C2405 H2382 0.950 . S
C2405 C2404 1.334 . S
C2405 C2406 1.287 . S
C2406 C2405 1.287 . S
C2406 C2407 1.524 . S
C2406 H2425 0.913 . S
C2407 H2383 0.950 . S
C2407 C2406 1.524 . S
C2407 C2408 1.415 . S
C2408 H2384 0.950 . S
C2408 C2403 1.363 . S
C2408 C2407 1.415 . S
C2409 H2385 0.951 . S
C2409 C2410 1.366 . S
C2409 C2411 1.388 . S
C2410 C2409 1.366 . S
C2410 C2414 1.385 . S
C2411 H2386 0.951 . S
C2411 C2409 1.388 . S
C2411 C2412 1.366 . S
C2412 C2411 1.366 . S
C2412 C2413 1.414 . S
C2412 C2415 1.499 . S
C2413 H2387 0.950 . S
C2413 C2412 1.414 . S
C2413 C2414 1.374 . S
C2414 H2388 0.950 . S
C2414 C2410 1.385 . S
C2414 C2413 1.374 . S
C2415 C2412 1.499 . S
C2415 C2416 1.373 . S
C2415 C2417 1.389 . S
C2416 H2389 0.950 . S
C2416 C2402 1.377 . S
C2416 C2415 1.373 . S
C2417 C2401 1.377 . S
C2417 C2415 1.389 . S
C2417 C2418 1.524 . S
C2418 C2417 1.524 . S
C2418 C2419 1.397 . S
C2418 C2423 1.363 . S
C2419 H2390 0.950 . S
C2419 C2418 1.397 . S
C2419 C2420 1.334 . S
C2420 H2391 0.950 . S
C2420 C2419 1.334 . S
C2420 C2421 1.287 . S
C2421 C2420 1.287 . S
C2421 C2422 1.524 . S
C2421 H2424 0.999 . S
C2422 H2392 0.950 . S
C2422 C2421 1.524 . S
C2422 C2423 1.415 . S
C2423 H2393 0.950 . S
C2423 C2418 1.363 . S
C2423 C2422 1.415 . S
H2424 C2421 0.999 . S
H2425 C2406 0.913 . S
H2426 C2444 0.951 . S
H2427 C2446 0.951 . S
H2428 C2448 0.950 . S
H2429 C2449 0.950 . S
H2430 C2451 0.950 . S
H2431 C2454 0.950 . S
H2432 C2455 0.950 . S
H2433 C2457 0.950 . S
H2434 C2458 0.950 . S
H2435 C2459 0.951 . S
H2436 C2461 0.951 . S
H2437 C2463 0.950 . S
H2438 C2464 0.950 . S
H2439 C2466 0.950 . S
H2440 C2469 0.950 . S
H2441 C2470 0.950 . S
H2442 C2472 0.950 . S
H2443 C2473 0.950 . S
C2444 H2426 0.951 . S
C2444 C2445 1.366 . S
C2444 C2446 1.388 . S
C2445 C2444 1.366 . S
C2445 C2449 1.385 . S
C2446 H2427 0.951 . S
C2446 C2444 1.388 . S
C2446 C2447 1.366 . S
C2447 C2446 1.366 . S
C2447 C2448 1.414 . S
C2447 C2450 1.499 . S
C2448 H2428 0.950 . S
C2448 C2447 1.414 . S
C2448 C2449 1.374 . S
C2449 H2429 0.950 . S
C2449 C2445 1.385 . S
C2449 C2448 1.374 . S
C2450 C2447 1.499 . S
C2450 C2451 1.373 . S
C2450 C2452 1.389 . S
C2451 H2430 0.950 . S
C2451 C2450 1.373 . S
C2451 C2467 1.377 . S
C2452 C2450 1.389 . S
C2452 C2453 1.524 . S
C2452 C2466 1.377 . S
C2453 C2452 1.524 . S
C2453 C2454 1.397 . S
C2453 C2458 1.363 . S
C2454 H2431 0.950 . S
C2454 C2453 1.397 . S
C2454 C2455 1.334 . S
C2455 H2432 0.950 . S
C2455 C2454 1.334 . S
C2455 C2456 1.287 . S
C2456 C2455 1.287 . S
C2456 C2457 1.524 . S
C2456 H2475 0.913 . S
C2457 H2433 0.950 . S
C2457 C2456 1.524 . S
C2457 C2458 1.415 . S
C2458 H2434 0.950 . S
C2458 C2453 1.363 . S
C2458 C2457 1.415 . S
C2459 H2435 0.951 . S
C2459 C2460 1.366 . S
C2459 C2461 1.388 . S
C2460 C2459 1.366 . S
C2460 C2464 1.385 . S
C2461 H2436 0.951 . S
C2461 C2459 1.388 . S
C2461 C2462 1.366 . S
C2462 C2461 1.366 . S
C2462 C2463 1.414 . S
C2462 C2465 1.499 . S
C2463 H2437 0.950 . S
C2463 C2462 1.414 . S
C2463 C2464 1.374 . S
C2464 H2438 0.950 . S
C2464 C2460 1.385 . S
C2464 C2463 1.374 . S
C2465 C2462 1.499 . S
C2465 C2466 1.373 . S
C2465 C2467 1.389 . S
C2466 H2439 0.950 . S
C2466 C2452 1.377 . S
C2466 C2465 1.373 . S
C2467 C2451 1.377 . S
C2467 C2465 1.389 . S
C2467 C2468 1.524 . S
C2468 C2467 1.524 . S
C2468 C2469 1.397 . S
C2468 C2473 1.363 . S
C2469 H2440 0.950 . S
C2469 C2468 1.397 . S
C2469 C2470 1.334 . S
C2470 H2441 0.950 . S
C2470 C2469 1.334 . S
C2470 C2471 1.287 . S
C2471 C2470 1.287 . S
C2471 C2472 1.524 . S
C2471 H2474 0.999 . S
C2472 H2442 0.950 . S
C2472 C2471 1.524 . S
C2472 C2473 1.415 . S
C2473 H2443 0.950 . S
C2473 C2468 1.363 . S
C2473 C2472 1.415 . S
H2474 C2471 0.999 . S
H2475 C2456 0.913 . S
H2476 C2494 0.951 . S
H2477 C2496 0.951 . S
H2478 C2498 0.950 . S
H2479 C2499 0.950 . S
H2480 C2501 0.950 . S
H2481 C2504 0.950 . S
H2482 C2505 0.950 . S
H2483 C2507 0.950 . S
H2484 C2508 0.950 . S
H2485 C2509 0.951 . S
H2486 C2511 0.951 . S
H2487 C2513 0.950 . S
H2488 C2514 0.950 . S
H2489 C2516 0.950 . S
H2490 C2519 0.950 . S
H2491 C2520 0.950 . S
H2492 C2522 0.950 . S
H2493 C2523 0.950 . S
C2494 H2476 0.951 . S
C2494 C2495 1.366 . S
C2494 C2496 1.388 . S
C2495 C2494 1.366 . S
C2495 C2499 1.385 . S
C2496 H2477 0.951 . S
C2496 C2494 1.388 . S
C2496 C2497 1.366 . S
C2497 C2496 1.366 . S
C2497 C2498 1.414 . S
C2497 C2500 1.499 . S
C2498 H2478 0.950 . S
C2498 C2497 1.414 . S
C2498 C2499 1.374 . S
C2499 H2479 0.950 . S
C2499 C2495 1.385 . S
C2499 C2498 1.374 . S
C2500 C2497 1.499 . S
C2500 C2501 1.373 . S
C2500 C2502 1.389 . S
C2501 H2480 0.950 . S
C2501 C2500 1.373 . S
C2501 C2517 1.377 . S
C2502 C2500 1.389 . S
C2502 C2503 1.524 . S
C2502 C2516 1.377 . S
C2503 C2502 1.524 . S
C2503 C2504 1.397 . S
C2503 C2508 1.363 . S
C2504 H2481 0.950 . S
C2504 C2503 1.397 . S
C2504 C2505 1.334 . S
C2505 H2482 0.950 . S
C2505 C2504 1.334 . S
C2505 C2506 1.287 . S
C2506 C2505 1.287 . S
C2506 C2507 1.524 . S
C2506 H2525 0.913 . S
C2507 H2483 0.950 . S
C2507 C2506 1.524 . S
C2507 C2508 1.415 . S
C2508 H2484 0.950 . S
C2508 C2503 1.363 . S
C2508 C2507 1.415 . S
C2509 H2485 0.951 . S
C2509 C2510 1.366 . S
C2509 C2511 1.388 . S
C2510 C2509 1.366 . S
C2510 C2514 1.385 . S
C2511 H2486 0.951 . S
C2511 C2509 1.388 . S
C2511 C2512 1.366 . S
C2512 C2511 1.366 . S
C2512 C2513 1.414 . S
C2512 C2515 1.499 . S
C2513 H2487 0.950 . S
C2513 C2512 1.414 . S
C2513 C2514 1.374 . S
C2514 H2488 0.950 . S
C2514 C2510 1.385 . S
C2514 C2513 1.374 . S
C2515 C2512 1.499 . S
C2515 C2516 1.373 . S
C2515 C2517 1.389 . S
C2516 H2489 0.950 . S
C2516 C2502 1.377 . S
C2516 C2515 1.373 . S
C2517 C2501 1.377 . S
C2517 C2515 1.389 . S
C2517 C2518 1.524 . S
C2518 C2517 1.524 . S
C2518 C2519 1.397 . S
C2518 C2523 1.363 . S
C2519 H2490 0.950 . S
C2519 C2518 1.397 . S
C2519 C2520 1.334 . S
C2520 H2491 0.950 . S
C2520 C2519 1.334 . S
C2520 C2521 1.287 . S
C2521 C2520 1.287 . S
C2521 C2522 1.524 . S
C2521 H2524 0.999 . S
C2522 H2492 0.950 . S
C2522 C2521 1.524 . S
C2522 C2523 1.415 . S
C2523 H2493 0.950 . S
C2523 C2518 1.363 . S
C2523 C2522 1.415 . S
H2524 C2521 0.999 . S
H2525 C2506 0.913 . S
H2526 C2544 0.951 . S
H2527 C2546 0.951 . S
H2528 C2548 0.950 . S
H2529 C2549 0.950 . S
H2530 C2551 0.950 . S
H2531 C2554 0.950 . S
H2532 C2555 0.950 . S
H2533 C2557 0.950 . S
H2534 C2558 0.950 . S
H2535 C2559 0.951 . S
H2536 C2561 0.951 . S
H2537 C2563 0.950 . S
H2538 C2564 0.950 . S
H2539 C2566 0.950 . S
H2540 C2569 0.950 . S
H2541 C2570 0.950 . S
H2542 C2572 0.950 . S
H2543 C2573 0.950 . S
C2544 H2526 0.951 . S
C2544 C2545 1.366 . S
C2544 C2546 1.388 . S
C2545 C2544 1.366 . S
C2545 C2549 1.385 . S
C2546 H2527 0.951 . S
C2546 C2544 1.388 . S
C2546 C2547 1.366 . S
C2547 C2546 1.366 . S
C2547 C2548 1.414 . S
C2547 C2550 1.499 . S
C2548 H2528 0.950 . S
C2548 C2547 1.414 . S
C2548 C2549 1.374 . S
C2549 H2529 0.950 . S
C2549 C2545 1.385 . S
C2549 C2548 1.374 . S
C2550 C2547 1.499 . S
C2550 C2551 1.373 . S
C2550 C2552 1.389 . S
C2551 H2530 0.950 . S
C2551 C2550 1.373 . S
C2551 C2567 1.377 . S
C2552 C2550 1.389 . S
C2552 C2553 1.524 . S
C2552 C2566 1.377 . S
C2553 C2552 1.524 . S
C2553 C2554 1.397 . S
C2553 C2558 1.363 . S
C2554 H2531 0.950 . S
C2554 C2553 1.397 . S
C2554 C2555 1.334 . S
C2555 H2532 0.950 . S
C2555 C2554 1.334 . S
C2555 C2556 1.287 . S
C2556 C2555 1.287 . S
C2556 C2557 1.524 . S
C2556 H2575 0.913 . S
C2557 H2533 0.950 . S
C2557 C2556 1.524 . S
C2557 C2558 1.415 . S
C2558 H2534 0.950 . S
C2558 C2553 1.363 . S
C2558 C2557 1.415 . S
C2559 H2535 0.951 . S
C2559 C2560 1.366 . S
C2559 C2561 1.388 . S
C2560 C2559 1.366 . S
C2560 C2564 1.385 . S
C2561 H2536 0.951 . S
C2561 C2559 1.388 . S
C2561 C2562 1.366 . S
C2562 C2561 1.366 . S
C2562 C2563 1.414 . S
C2562 C2565 1.499 . S
C2563 H2537 0.950 . S
C2563 C2562 1.414 . S
C2563 C2564 1.374 . S
C2564 H2538 0.950 . S
C2564 C2560 1.385 . S
C2564 C2563 1.374 . S
C2565 C2562 1.499 . S
C2565 C2566 1.373 . S
C2565 C2567 1.389 . S
C2566 H2539 0.950 . S
C2566 C2552 1.377 . S
C2566 C2565 1.373 . S
C2567 C2551 1.377 . S
C2567 C2565 1.389 . S
C2567 C2568 1.524 . S
C2568 C2567 1.524 . S
C2568 C2569 1.397 . S
C2568 C2573 1.363 . S
C2569 H2540 0.950 . S
C2569 C2568 1.397 . S
C2569 C2570 1.334 . S
C2570 H2541 0.950 . S
C2570 C2569 1.334 . S
C2570 C2571 1.287 . S
C2571 C2570 1.287 . S
C2571 C2572 1.524 . S
C2571 H2574 0.999 . S
C2572 H2542 0.950 . S
C2572 C2571 1.524 . S
C2572 C2573 1.415 . S
C2573 H2543 0.950 . S
C2573 C2568 1.363 . S
C2573 C2572 1.415 . S
H2574 C2571 0.999 . S
H2575 C2556 0.913 . S
H2576 C2594 0.951 1_554 S
H2577 C2596 0.951 . S
H2578 C2598 0.950 . S
H2579 C2599 0.950 . S
H2580 C2601 0.950 . S
H2581 C2604 0.990 . S
H2582 C2605 0.950 . S
H2583 C2607 0.950 . S
H2584 C2608 0.950 . S
H2585 C2609 0.951 . S
H2586 C2611 0.951 . S
H2587 C2613 0.950 . S
H2588 C2614 0.950 . S
H2589 C2616 0.950 . S
H2590 C2619 0.950 . S
H2591 C2620 0.950 . S
H2592 C2622 0.950 . S
H2593 C2623 0.950 . S
C2594 H2576 0.951 1_556 S
C2594 C2595 1.366 . S
C2594 C2596 1.388 . S
C2595 C2594 1.366 . S
C2595 C2599 1.385 . S
C2596 H2577 0.951 . S
C2596 C2594 1.388 . S
C2596 C2597 1.366 . S
C2597 C2596 1.366 . S
C2597 C2598 1.414 . S
C2597 C2600 1.499 . S
C2598 H2578 0.950 . S
C2598 C2597 1.414 . S
C2598 C2599 1.374 . S
C2599 H2579 0.950 . S
C2599 C2595 1.385 . S
C2599 C2598 1.374 . S
C2600 C2597 1.499 . S
C2600 C2601 1.373 . S
C2600 C2602 1.389 . S
C2601 H2580 0.950 . S
C2601 C2600 1.373 . S
C2601 C2617 1.377 . S
C2602 C2600 1.389 . S
C2602 C2603 1.524 . S
C2602 C2616 1.377 . S
C2603 C2602 1.524 . S
C2603 C2604 1.407 . S
C2603 C2608 1.363 1_556 S
C2604 H2581 0.990 . S
C2604 C2603 1.407 . S
C2604 C2605 1.285 1_556 S
C2605 H2582 0.950 . S
C2605 C2604 1.285 1_554 S
C2605 C2606 1.287 . S
C2606 C2605 1.287 . S
C2606 C2607 1.524 . S
C2606 H2625 0.913 . S
C2607 H2583 0.950 . S
C2607 C2606 1.524 . S
C2607 C2608 1.415 . S
C2608 H2584 0.950 . S
C2608 C2603 1.363 1_554 S
C2608 C2607 1.415 . S
C2609 H2585 0.951 . S
C2609 C2610 1.366 . S
C2609 C2611 1.388 . S
C2610 C2609 1.366 . S
C2610 C2614 1.385 . S
C2611 H2586 0.951 . S
C2611 C2609 1.388 . S
C2611 C2612 1.366 . S
C2612 C2611 1.366 . S
C2612 C2613 1.414 . S
C2612 C2615 1.499 . S
C2613 H2587 0.950 . S
C2613 C2612 1.414 . S
C2613 C2614 1.374 . S
C2614 H2588 0.950 . S
C2614 C2610 1.385 . S
C2614 C2613 1.374 . S
C2615 C2612 1.499 . S
C2615 C2616 1.373 . S
C2615 C2617 1.389 . S
C2616 H2589 0.950 . S
C2616 C2602 1.377 . S
C2616 C2615 1.373 . S
C2617 C2601 1.377 . S
C2617 C2615 1.389 . S
C2617 C2618 1.524 . S
C2618 C2617 1.524 . S
C2618 C2619 1.397 . S
C2618 C2623 1.363 . S
C2619 H2590 0.950 . S
C2619 C2618 1.397 . S
C2619 C2620 1.334 . S
C2620 H2591 0.950 . S
C2620 C2619 1.334 . S
C2620 C2621 1.287 . S
C2621 C2620 1.287 . S
C2621 C2622 1.524 . S
C2621 H2624 0.999 . S
C2622 H2592 0.950 . S
C2622 C2621 1.524 . S
C2622 C2623 1.415 . S
C2623 H2593 0.950 . S
C2623 C2618 1.363 . S
C2623 C2622 1.415 . S
H2624 C2621 0.999 . S
H2625 C2606 0.913 . S
H2626 C2644 0.932 1_554 S
H2627 C2646 0.951 . S
H2628 C2648 0.950 . S
H2629 C2649 0.950 . S
H2630 C2651 0.950 . S
H2631 C2654 0.950 1_556 S
H2632 C2655 0.950 . S
H2633 C2657 0.950 . S
H2634 C2658 0.950 1_556 S
H2635 C2659 0.951 . S
H2636 C2661 0.951 . S
H2637 C2663 0.950 . S
H2638 C2664 0.950 . S
H2639 C2666 0.950 . S
H2640 C2669 0.950 . S
H2641 C2670 0.950 . S
H2642 C2672 0.950 . S
H2643 C2673 0.950 . S
C2644 H2626 0.932 1_556 S
C2644 C2645 1.366 . S
C2644 C2646 1.388 . S
C2645 C2644 1.366 . S
C2645 C2649 1.385 . S
C2646 H2627 0.951 . S
C2646 C2644 1.388 . S
C2646 C2647 1.366 . S
C2647 C2646 1.366 . S
C2647 C2648 1.414 . S
C2647 C2650 1.499 . S
C2648 H2628 0.950 . S
C2648 C2647 1.414 . S
C2648 C2649 1.374 . S
C2649 H2629 0.950 . S
C2649 C2645 1.385 . S
C2649 C2648 1.374 . S
C2650 C2647 1.499 . S
C2650 C2651 1.373 . S
C2650 C2652 1.389 . S
C2651 H2630 0.950 . S
C2651 C2650 1.373 . S
C2651 C2667 1.377 . S
C2652 C2650 1.389 . S
C2652 C2653 1.524 . S
C2652 C2666 1.377 . S
C2653 C2652 1.524 . S
C2653 C2654 1.397 1_556 S
C2653 C2658 1.363 1_556 S
C2654 H2631 0.950 1_554 S
C2654 C2653 1.397 1_554 S
C2654 C2655 1.334 . S
C2655 H2632 0.950 . S
C2655 C2654 1.334 . S
C2655 C2656 1.287 . S
C2656 C2655 1.287 . S
C2656 C2657 1.524 . S
C2656 H2675 0.913 . S
C2657 H2633 0.950 . S
C2657 C2656 1.524 . S
C2657 C2658 1.415 . S
C2658 H2634 0.950 1_554 S
C2658 C2653 1.363 1_554 S
C2658 C2657 1.415 . S
C2659 H2635 0.951 . S
C2659 C2660 1.366 . S
C2659 C2661 1.388 . S
C2660 C2659 1.366 . S
C2660 C2664 1.385 . S
C2661 H2636 0.951 . S
C2661 C2659 1.388 . S
C2661 C2662 1.366 . S
C2662 C2661 1.366 . S
C2662 C2663 1.414 . S
C2662 C2665 1.499 . S
C2663 H2637 0.950 . S
C2663 C2662 1.414 . S
C2663 C2664 1.374 . S
C2664 H2638 0.950 . S
C2664 C2660 1.385 . S
C2664 C2663 1.374 . S
C2665 C2662 1.499 . S
C2665 C2666 1.373 . S
C2665 C2667 1.389 . S
C2666 H2639 0.950 . S
C2666 C2652 1.377 . S
C2666 C2665 1.373 . S
C2667 C2651 1.377 . S
C2667 C2665 1.389 . S
C2667 C2668 1.524 . S
C2668 C2667 1.524 . S
C2668 C2669 1.397 . S
C2668 C2673 1.363 . S
C2669 H2640 0.950 . S
C2669 C2668 1.397 . S
C2669 C2670 1.334 . S
C2670 H2641 0.950 . S
C2670 C2669 1.334 . S
C2670 C2671 1.287 . S
C2671 C2670 1.287 . S
C2671 C2672 1.524 . S
C2671 H2674 0.999 . S
C2672 H2642 0.950 . S
C2672 C2671 1.524 . S
C2672 C2673 1.415 . S
C2673 H2643 0.950 . S
C2673 C2668 1.363 . S
C2673 C2672 1.415 . S
H2674 C2671 0.999 . S
H2675 C2656 0.913 . S
H2676 C2694 0.951 . S
H2677 C2696 0.951 . S
H2678 C2698 0.950 . S
H2679 C2699 0.950 1_554 S
H2680 C2701 0.950 . S
H2681 C2704 0.950 . S
H2682 C2705 0.950 . S
H2683 C2707 0.950 . S
H2684 C2708 0.950 . S
H2685 C2709 0.951 . S
H2686 C2711 0.951 . S
H2687 C2713 0.950 . S
H2688 C2714 0.950 . S
H2689 C2716 0.950 . S
H2690 C2719 0.950 . S
H2691 C2720 0.950 . S
H2692 C2722 0.950 1_554 S
H2693 C2723 0.950 . S
C2694 H2676 0.951 . S
C2694 C2695 1.366 . S
C2694 C2696 1.388 . S
C2695 C2694 1.366 . S
C2695 C2699 1.385 . S
C2696 H2677 0.951 . S
C2696 C2694 1.388 . S
C2696 C2697 1.366 . S
C2697 C2696 1.366 . S
C2697 C2698 1.414 . S
C2697 C2700 1.499 . S
C2698 H2678 0.950 . S
C2698 C2697 1.414 . S
C2698 C2699 1.374 . S
C2699 H2679 0.950 1_556 S
C2699 C2695 1.385 . S
C2699 C2698 1.374 . S
C2700 C2697 1.499 . S
C2700 C2701 1.373 . S
C2700 C2702 1.389 . S
C2701 H2680 0.950 . S
C2701 C2700 1.373 . S
C2701 C2717 1.377 . S
C2702 C2700 1.389 . S
C2702 C2703 1.524 . S
C2702 C2716 1.377 . S
C2703 C2702 1.524 . S
C2703 C2704 1.397 . S
C2703 C2708 1.363 . S
C2704 H2681 0.950 . S
C2704 C2703 1.397 . S
C2704 C2705 1.334 . S
C2705 H2682 0.950 . S
C2705 C2704 1.334 . S
C2705 C2706 1.287 . S
C2706 C2705 1.287 . S
C2706 C2707 1.524 . S
C2706 H2725 0.913 . S
C2707 H2683 0.950 . S
C2707 C2706 1.524 . S
C2707 C2708 1.415 . S
C2708 H2684 0.950 . S
C2708 C2703 1.363 . S
C2708 C2707 1.415 . S
C2709 H2685 0.951 . S
C2709 C2710 1.366 . S
C2709 C2711 1.388 . S
C2710 C2709 1.366 . S
C2710 C2714 1.385 . S
C2711 H2686 0.951 . S
C2711 C2709 1.388 . S
C2711 C2712 1.366 . S
C2712 C2711 1.366 . S
C2712 C2713 1.414 . S
C2712 C2715 1.499 . S
C2713 H2687 0.950 . S
C2713 C2712 1.414 . S
C2713 C2714 1.374 . S
C2714 H2688 0.950 . S
C2714 C2710 1.385 . S
C2714 C2713 1.374 . S
C2715 C2712 1.499 . S
C2715 C2716 1.373 . S
C2715 C2717 1.389 . S
C2716 H2689 0.950 . S
C2716 C2702 1.377 . S
C2716 C2715 1.373 . S
C2717 C2701 1.377 . S
C2717 C2715 1.389 . S
C2717 C2718 1.524 . S
C2718 C2717 1.524 . S
C2718 C2719 1.397 . S
C2718 C2723 1.363 . S
C2719 H2690 0.950 . S
C2719 C2718 1.397 . S
C2719 C2720 1.334 . S
C2720 H2691 0.950 . S
C2720 C2719 1.334 . S
C2720 C2721 1.287 . S
C2721 C2720 1.287 . S
C2721 C2722 1.524 . S
C2721 H2724 0.999 . S
C2722 H2692 0.950 1_556 S
C2722 C2721 1.524 . S
C2722 C2723 1.415 . S
C2723 H2693 0.950 . S
C2723 C2718 1.363 . S
C2723 C2722 1.415 . S
H2724 C2721 0.999 . S
H2725 C2706 0.913 . S
H2726 C2744 0.951 . S
H2727 C2746 0.951 . S
H2728 C2748 0.950 . S
H2729 C2749 0.950 . S
H2730 C2751 0.950 . S
H2731 C2754 0.950 . S
H2732 C2755 0.950 . S
H2733 C2757 0.950 . S
H2734 C2758 0.950 . S
H2735 C2759 0.951 . S
H2736 C2761 0.951 . S
H2737 C2763 0.950 . S
H2738 C2764 0.950 . S
H2739 C2766 0.950 . S
H2740 C2769 0.950 . S
H2741 C2770 0.950 . S
H2742 C2772 0.950 . S
H2743 C2773 0.950 . S
C2744 H2726 0.951 . S
C2744 C2745 1.366 . S
C2744 C2746 1.388 . S
C2745 C2744 1.366 . S
C2745 C2749 1.385 . S
C2746 H2727 0.951 . S
C2746 C2744 1.388 . S
C2746 C2747 1.366 . S
C2747 C2746 1.366 . S
C2747 C2748 1.414 . S
C2747 C2750 1.499 . S
C2748 H2728 0.950 . S
C2748 C2747 1.414 . S
C2748 C2749 1.374 . S
C2749 H2729 0.950 . S
C2749 C2745 1.385 . S
C2749 C2748 1.374 . S
C2750 C2747 1.499 . S
C2750 C2751 1.373 . S
C2750 C2752 1.389 . S
C2751 H2730 0.950 . S
C2751 C2750 1.373 . S
C2751 C2767 1.377 . S
C2752 C2750 1.389 . S
C2752 C2753 1.524 . S
C2752 C2766 1.377 . S
C2753 C2752 1.524 . S
C2753 C2754 1.397 . S
C2753 C2758 1.363 . S
C2754 H2731 0.950 . S
C2754 C2753 1.397 . S
C2754 C2755 1.334 1_556 S
C2755 H2732 0.950 . S
C2755 C2754 1.334 1_554 S
C2755 C2756 1.287 1_554 S
C2756 C2755 1.287 1_556 S
C2756 C2757 1.524 . S
C2756 H2775 0.913 1_556 S
C2757 H2733 0.950 . S
C2757 C2756 1.524 . S
C2757 C2758 1.415 . S
C2758 H2734 0.950 . S
C2758 C2753 1.363 . S
C2758 C2757 1.415 . S
C2759 H2735 0.951 . S
C2759 C2760 1.366 . S
C2759 C2761 1.388 . S
C2760 C2759 1.366 . S
C2760 C2764 1.385 . S
C2761 H2736 0.951 . S
C2761 C2759 1.388 . S
C2761 C2762 1.366 . S
C2762 C2761 1.366 . S
C2762 C2763 1.414 . S
C2762 C2765 1.499 . S
C2763 H2737 0.950 . S
C2763 C2762 1.414 . S
C2763 C2764 1.374 . S
C2764 H2738 0.950 . S
C2764 C2760 1.385 . S
C2764 C2763 1.374 . S
C2765 C2762 1.499 . S
C2765 C2766 1.373 . S
C2765 C2767 1.389 . S
C2766 H2739 0.950 . S
C2766 C2752 1.377 . S
C2766 C2765 1.373 . S
C2767 C2751 1.377 . S
C2767 C2765 1.389 . S
C2767 C2768 1.524 . S
C2768 C2767 1.524 . S
C2768 C2769 1.397 . S
C2768 C2773 1.363 . S
C2769 H2740 0.950 . S
C2769 C2768 1.397 . S
C2769 C2770 1.334 . S
C2770 H2741 0.950 . S
C2770 C2769 1.334 . S
C2770 C2771 1.287 . S
C2771 C2770 1.287 . S
C2771 C2772 1.524 . S
C2771 H2774 0.999 . S
C2772 H2742 0.950 . S
C2772 C2771 1.524 . S
C2772 C2773 1.415 . S
C2773 H2743 0.950 . S
C2773 C2768 1.363 . S
C2773 C2772 1.415 . S
H2774 C2771 0.999 . S
H2775 C2756 0.913 1_554 S
H2776 C2794 0.951 . S
H2777 C2796 0.951 . S
H2778 C2798 0.960 . S
H2779 C2799 0.944 1_554 S
H2780 C2801 0.950 . S
H2781 C2804 0.950 . S
H2782 C2805 0.950 . S
H2783 C2807 0.950 . S
H2784 C2808 0.950 . S
H2785 C2809 0.951 . S
H2786 C2811 0.951 . S
H2787 C2813 0.950 . S
H2788 C2814 0.950 . S
H2789 C2816 0.950 . S
H2790 C2819 0.950 . S
H2791 C2820 0.950 . S
H2792 C2822 0.950 . S
H2793 C2823 0.950 . S
C2794 H2776 0.951 . S
C2794 C2795 1.366 . S
C2794 C2796 1.388 . S
C2795 C2794 1.366 . S
C2795 C2799 1.388 . S
C2796 H2777 0.951 . S
C2796 C2794 1.388 . S
C2796 C2797 1.366 . S
C2797 C2796 1.366 . S
C2797 C2798 1.414 . S
C2797 C2800 1.499 . S
C2798 H2778 0.960 . S
C2798 C2797 1.414 . S
C2798 C2799 1.376 . S
C2799 H2779 0.944 1_556 S
C2799 C2795 1.388 . S
C2799 C2798 1.376 . S
C2800 C2797 1.499 . S
C2800 C2801 1.373 . S
C2800 C2802 1.389 . S
C2801 H2780 0.950 . S
C2801 C2800 1.373 . S
C2801 C2817 1.377 . S
C2802 C2800 1.389 . S
C2802 C2803 1.524 . S
C2802 C2816 1.377 . S
C2803 C2802 1.524 . S
C2803 C2804 1.397 . S
C2803 C2808 1.363 . S
C2804 H2781 0.950 . S
C2804 C2803 1.397 . S
C2804 C2805 1.334 . S
C2805 H2782 0.950 . S
C2805 C2804 1.334 . S
C2805 C2806 1.287 . S
C2806 C2805 1.287 . S
C2806 C2807 1.524 . S
C2806 H2825 0.913 . S
C2807 H2783 0.950 . S
C2807 C2806 1.524 . S
C2807 C2808 1.415 . S
C2808 H2784 0.950 . S
C2808 C2803 1.363 . S
C2808 C2807 1.415 . S
C2809 H2785 0.951 . S
C2809 C2810 1.366 . S
C2809 C2811 1.388 . S
C2810 C2809 1.366 . S
C2810 C2814 1.385 . S
C2811 H2786 0.951 . S
C2811 C2809 1.388 . S
C2811 C2812 1.366 . S
C2812 C2811 1.366 . S
C2812 C2813 1.414 . S
C2812 C2815 1.499 . S
C2813 H2787 0.950 . S
C2813 C2812 1.414 . S
C2813 C2814 1.374 . S
C2814 H2788 0.950 . S
C2814 C2810 1.385 . S
C2814 C2813 1.374 . S
C2815 C2812 1.499 . S
C2815 C2816 1.373 . S
C2815 C2817 1.389 . S
C2816 H2789 0.950 . S
C2816 C2802 1.377 . S
C2816 C2815 1.373 . S
C2817 C2801 1.377 . S
C2817 C2815 1.389 . S
C2817 C2818 1.524 . S
C2818 C2817 1.524 . S
C2818 C2819 1.397 . S
C2818 C2823 1.363 . S
C2819 H2790 0.950 . S
C2819 C2818 1.397 . S
C2819 C2820 1.334 . S
C2820 H2791 0.950 . S
C2820 C2819 1.334 . S
C2820 C2821 1.287 . S
C2821 C2820 1.287 . S
C2821 C2822 1.524 . S
C2821 H2824 0.999 . S
C2822 H2792 0.950 . S
C2822 C2821 1.524 . S
C2822 C2823 1.415 . S
C2823 H2793 0.950 . S
C2823 C2818 1.363 . S
C2823 C2822 1.415 . S
H2824 C2821 0.999 . S
H2825 C2806 0.913 . S
H2826 C2844 0.951 . S
H2827 C2846 0.951 . S
H2828 C2848 0.950 . S
H2829 C2849 0.950 . S
H2830 C2851 0.950 . S
H2831 C2854 0.950 . S
H2832 C2855 0.950 . S
H2833 C2857 0.950 . S
H2834 C2858 0.950 . S
H2835 C2859 0.951 . S
H2836 C2861 0.951 . S
H2837 C2863 0.950 . S
H2838 C2864 0.950 . S
H2839 C2866 0.950 . S
H2840 C2869 0.950 . S
H2841 C2870 0.950 . S
H2842 C2872 0.961 . S
H2843 C2873 0.950 . S
C2844 H2826 0.951 . S
C2844 C2845 1.366 . S
C2844 C2846 1.388 . S
C2845 C2844 1.366 . S
C2845 C2849 1.385 . S
C2846 H2827 0.951 . S
C2846 C2844 1.388 . S
C2846 C2847 1.366 . S
C2847 C2846 1.366 . S
C2847 C2848 1.414 . S
C2847 C2850 1.499 . S
C2848 H2828 0.950 . S
C2848 C2847 1.414 . S
C2848 C2849 1.374 . S
C2849 H2829 0.950 . S
C2849 C2845 1.385 . S
C2849 C2848 1.374 . S
C2850 C2847 1.499 . S
C2850 C2851 1.373 . S
C2850 C2852 1.389 . S
C2851 H2830 0.950 . S
C2851 C2850 1.373 . S
C2851 C2867 1.377 . S
C2852 C2850 1.389 . S
C2852 C2853 1.524 . S
C2852 C2866 1.377 . S
C2853 C2852 1.524 . S
C2853 C2854 1.397 . S
C2853 C2858 1.363 . S
C2854 H2831 0.950 . S
C2854 C2853 1.397 . S
C2854 C2855 1.334 . S
C2855 H2832 0.950 . S
C2855 C2854 1.334 . S
C2855 C2856 1.287 . S
C2856 C2855 1.287 . S
C2856 C2857 1.524 . S
C2856 H2875 0.913 . S
C2857 H2833 0.950 . S
C2857 C2856 1.524 . S
C2857 C2858 1.415 . S
C2858 H2834 0.950 . S
C2858 C2853 1.363 . S
C2858 C2857 1.415 . S
C2859 H2835 0.951 . S
C2859 C2860 1.366 . S
C2859 C2861 1.388 . S
C2860 C2859 1.366 . S
C2860 C2864 1.385 . S
C2861 H2836 0.951 . S
C2861 C2859 1.388 . S
C2861 C2862 1.366 . S
C2862 C2861 1.366 . S
C2862 C2863 1.414 . S
C2862 C2865 1.499 . S
C2863 H2837 0.950 . S
C2863 C2862 1.414 . S
C2863 C2864 1.374 . S
C2864 H2838 0.950 . S
C2864 C2860 1.385 . S
C2864 C2863 1.374 . S
C2865 C2862 1.499 . S
C2865 C2866 1.373 . S
C2865 C2867 1.389 . S
C2866 H2839 0.950 . S
C2866 C2852 1.377 . S
C2866 C2865 1.373 . S
C2867 C2851 1.377 . S
C2867 C2865 1.389 . S
C2867 C2868 1.524 . S
C2868 C2867 1.524 . S
C2868 C2869 1.397 . S
C2868 C2873 1.363 . S
C2869 H2840 0.950 . S
C2869 C2868 1.397 . S
C2869 C2870 1.334 . S
C2870 H2841 0.950 . S
C2870 C2869 1.334 . S
C2870 C2871 1.287 . S
C2871 C2870 1.287 . S
C2871 C2872 1.524 . S
C2871 H2874 0.999 . S
C2872 H2842 0.961 . S
C2872 C2871 1.524 . S
C2872 C2873 1.415 . S
C2873 H2843 0.950 . S
C2873 C2868 1.363 . S
C2873 C2872 1.415 . S
H2874 C2871 0.999 . S
H2875 C2856 0.913 . S
H2876 C2894 0.951 . S
H2877 C2896 0.951 . S
H2878 C2898 0.950 . S
H2879 C2899 0.950 . S
H2880 C2901 0.950 . S
H2881 C2904 0.950 . S
H2882 C2905 0.950 . S
H2883 C2907 0.950 1_556 S
H2884 C2908 0.950 . S
H2885 C2909 0.951 . S
H2886 C2911 0.951 . S
H2887 C2913 0.950 . S
H2888 C2914 0.950 . S
H2889 C2916 0.950 . S
H2890 C2919 0.950 . S
H2891 C2920 0.950 . S
H2892 C2922 0.950 . S
H2893 C2923 0.950 . S
C2894 H2876 0.951 . S
C2894 C2895 1.366 . S
C2894 C2896 1.388 . S
C2895 C2894 1.366 . S
C2895 C2899 1.385 . S
C2896 H2877 0.951 . S
C2896 C2894 1.388 . S
C2896 C2897 1.366 . S
C2897 C2896 1.366 . S
C2897 C2898 1.414 . S
C2897 C2900 1.499 . S
C2898 H2878 0.950 . S
C2898 C2897 1.414 . S
C2898 C2899 1.374 . S
C2899 H2879 0.950 . S
C2899 C2895 1.385 . S
C2899 C2898 1.374 . S
C2900 C2897 1.499 . S
C2900 C2901 1.373 . S
C2900 C2902 1.389 . S
C2901 H2880 0.950 . S
C2901 C2900 1.373 . S
C2901 C2917 1.377 . S
C2902 C2900 1.389 . S
C2902 C2903 1.524 . S
C2902 C2916 1.377 . S
C2903 C2902 1.524 . S
C2903 C2904 1.397 . S
C2903 C2908 1.363 . S
C2904 H2881 0.950 . S
C2904 C2903 1.397 . S
C2904 C2905 1.334 1_554 S
C2905 H2882 0.950 . S
C2905 C2904 1.334 1_556 S
C2905 C2906 1.287 . S
C2906 C2905 1.287 . S
C2906 C2907 1.524 1_556 S
C2906 H2925 0.913 . S
C2907 H2883 0.950 1_554 S
C2907 C2906 1.524 1_554 S
C2907 C2908 1.415 . S
C2908 H2884 0.950 . S
C2908 C2903 1.363 . S
C2908 C2907 1.415 . S
C2909 H2885 0.951 . S
C2909 C2910 1.366 . S
C2909 C2911 1.388 . S
C2910 C2909 1.366 . S
C2910 C2914 1.385 . S
C2911 H2886 0.951 . S
C2911 C2909 1.388 . S
C2911 C2912 1.366 . S
C2912 C2911 1.366 . S
C2912 C2913 1.414 . S
C2912 C2915 1.499 . S
C2913 H2887 0.950 . S
C2913 C2912 1.414 . S
C2913 C2914 1.374 . S
C2914 H2888 0.950 . S
C2914 C2910 1.385 . S
C2914 C2913 1.374 . S
C2915 C2912 1.499 . S
C2915 C2916 1.373 . S
C2915 C2917 1.389 . S
C2916 H2889 0.950 . S
C2916 C2902 1.377 . S
C2916 C2915 1.373 . S
C2917 C2901 1.377 . S
C2917 C2915 1.389 . S
C2917 C2918 1.524 . S
C2918 C2917 1.524 . S
C2918 C2919 1.397 . S
C2918 C2923 1.363 . S
C2919 H2890 0.950 . S
C2919 C2918 1.397 . S
C2919 C2920 1.334 . S
C2920 H2891 0.950 . S
C2920 C2919 1.334 . S
C2920 C2921 1.287 . S
C2921 C2920 1.287 . S
C2921 C2922 1.524 . S
C2921 H2924 0.999 . S
C2922 H2892 0.950 . S
C2922 C2921 1.524 . S
C2922 C2923 1.415 . S
C2923 H2893 0.950 . S
C2923 C2918 1.363 . S
C2923 C2922 1.415 . S
H2924 C2921 0.999 . S
H2925 C2906 0.913 . S
H2926 C2944 0.951 . S
H2927 C2946 0.951 . S
H2928 C2948 0.950 . S
H2929 C2949 0.950 . S
H2930 C2951 0.950 . S
H2931 C2954 0.950 . S
H2932 C2955 0.950 1_556 S
H2933 C2957 0.950 . S
H2934 C2958 0.950 . S
H2935 C2959 0.951 . S
H2936 C2961 0.951 . S
H2937 C2963 0.950 . S
H2938 C2964 0.950 . S
H2939 C2966 0.950 . S
H2940 C2969 0.950 . S
H2941 C2970 0.950 . S
H2942 C2972 0.950 . S
H2943 C2973 0.950 . S
C2944 H2926 0.951 . S
C2944 C2945 1.366 . S
C2944 C2946 1.388 . S
C2945 C2944 1.366 . S
C2945 C2949 1.385 . S
C2946 H2927 0.951 . S
C2946 C2944 1.388 . S
C2946 C2947 1.366 . S
C2947 C2946 1.366 . S
C2947 C2948 1.414 . S
C2947 C2950 1.499 . S
C2948 H2928 0.950 . S
C2948 C2947 1.414 . S
C2948 C2949 1.374 . S
C2949 H2929 0.950 . S
C2949 C2945 1.385 . S
C2949 C2948 1.374 . S
C2950 C2947 1.499 . S
C2950 C2951 1.373 . S
C2950 C2952 1.389 . S
C2951 H2930 0.950 . S
C2951 C2950 1.373 . S
C2951 C2967 1.377 . S
C2952 C2950 1.389 . S
C2952 C2953 1.524 . S
C2952 C2966 1.377 . S
C2953 C2952 1.524 . S
C2953 C2954 1.397 . S
C2953 C2958 1.363 . S
C2954 H2931 0.950 . S
C2954 C2953 1.397 . S
C2954 C2955 1.334 . S
C2955 H2932 0.950 1_554 S
C2955 C2954 1.334 . S
C2955 C2956 1.287 . S
C2956 C2955 1.287 . S
C2956 C2957 1.524 . S
C2956 H2975 0.913 . S
C2957 H2933 0.950 . S
C2957 C2956 1.524 . S
C2957 C2958 1.415 . S
C2958 H2934 0.950 . S
C2958 C2953 1.363 . S
C2958 C2957 1.415 . S
C2959 H2935 0.951 . S
C2959 C2960 1.366 . S
C2959 C2961 1.388 . S
C2960 C2959 1.366 . S
C2960 C2964 1.385 . S
C2961 H2936 0.951 . S
C2961 C2959 1.388 . S
C2961 C2962 1.366 . S
C2962 C2961 1.366 . S
C2962 C2963 1.414 . S
C2962 C2965 1.499 . S
C2963 H2937 0.950 . S
C2963 C2962 1.414 . S
C2963 C2964 1.374 . S
C2964 H2938 0.950 . S
C2964 C2960 1.385 . S
C2964 C2963 1.374 . S
C2965 C2962 1.499 . S
C2965 C2966 1.373 . S
C2965 C2967 1.389 . S
C2966 H2939 0.950 . S
C2966 C2952 1.377 . S
C2966 C2965 1.373 . S
C2967 C2951 1.377 . S
C2967 C2965 1.389 . S
C2967 C2968 1.524 . S
C2968 C2967 1.524 . S
C2968 C2969 1.397 . S
C2968 C2973 1.363 . S
C2969 H2940 0.950 . S
C2969 C2968 1.397 . S
C2969 C2970 1.334 . S
C2970 H2941 0.950 . S
C2970 C2969 1.334 . S
C2970 C2971 1.287 . S
C2971 C2970 1.287 . S
C2971 C2972 1.524 . S
C2971 H2974 0.999 . S
C2972 H2942 0.950 . S
C2972 C2971 1.524 . S
C2972 C2973 1.415 . S
C2973 H2943 0.950 . S
C2973 C2968 1.363 . S
C2973 C2972 1.415 . S
H2974 C2971 0.999 . S
H2975 C2956 0.913 . S
H2976 C2994 0.951 . S
H2977 C2996 0.951 . S
H2978 C2998 0.950 . S
H2979 C2999 0.950 . S
H2980 C3001 0.950 . S
H2981 C3004 0.950 . S
H2982 C3005 0.950 . S
H2983 C3007 0.950 . S
H2984 C3008 0.950 . S
H2985 C3009 0.951 . S
H2986 C3011 0.951 . S
H2987 C3013 0.950 . S
H2988 C3014 0.950 . S
H2989 C3016 0.950 . S
H2990 C3019 0.950 . S
H2991 C3020 0.950 . S
H2992 C3022 0.950 . S
H2993 C3023 0.950 . S
C2994 H2976 0.951 . S
C2994 C2995 1.366 . S
C2994 C2996 1.388 . S
C2995 C2994 1.366 . S
C2995 C2999 1.385 . S
C2996 H2977 0.951 . S
C2996 C2994 1.388 . S
C2996 C2997 1.366 . S
C2997 C2996 1.366 . S
C2997 C2998 1.414 . S
C2997 C3000 1.499 . S
C2998 H2978 0.950 . S
C2998 C2997 1.414 . S
C2998 C2999 1.374 . S
C2999 H2979 0.950 . S
C2999 C2995 1.385 . S
C2999 C2998 1.374 . S
C3000 C2997 1.499 . S
C3000 C3001 1.373 . S
C3000 C3002 1.389 . S
C3001 H2980 0.950 . S
C3001 C3000 1.373 . S
C3001 C3017 1.377 . S
C3002 C3000 1.389 . S
C3002 C3003 1.524 . S
C3002 C3016 1.377 . S
C3003 C3002 1.524 . S
C3003 C3004 1.397 . S
C3003 C3008 1.363 . S
C3004 H2981 0.950 . S
C3004 C3003 1.397 . S
C3004 C3005 1.334 . S
C3005 H2982 0.950 . S
C3005 C3004 1.334 . S
C3005 C3006 1.287 . S
C3006 C3005 1.287 . S
C3006 C3007 1.524 . S
C3006 H3025 0.913 . S
C3007 H2983 0.950 . S
C3007 C3006 1.524 . S
C3007 C3008 1.415 . S
C3008 H2984 0.950 . S
C3008 C3003 1.363 . S
C3008 C3007 1.415 . S
C3009 H2985 0.951 . S
C3009 C3010 1.366 . S
C3009 C3011 1.388 . S
C3010 C3009 1.366 . S
C3010 C3014 1.385 . S
C3011 H2986 0.951 . S
C3011 C3009 1.388 . S
C3011 C3012 1.366 . S
C3012 C3011 1.366 . S
C3012 C3013 1.414 . S
C3012 C3015 1.499 . S
C3013 H2987 0.950 . S
C3013 C3012 1.414 . S
C3013 C3014 1.374 . S
C3014 H2988 0.950 . S
C3014 C3010 1.385 . S
C3014 C3013 1.374 . S
C3015 C3012 1.499 . S
C3015 C3016 1.373 . S
C3015 C3017 1.389 . S
C3016 H2989 0.950 . S
C3016 C3002 1.377 . S
C3016 C3015 1.373 . S
C3017 C3001 1.377 . S
C3017 C3015 1.389 . S
C3017 C3018 1.524 . S
C3018 C3017 1.524 . S
C3018 C3019 1.397 . S
C3018 C3023 1.363 . S
C3019 H2990 0.950 . S
C3019 C3018 1.397 . S
C3019 C3020 1.334 . S
C3020 H2991 0.950 . S
C3020 C3019 1.334 . S
C3020 C3021 1.287 . S
C3021 C3020 1.287 . S
C3021 C3022 1.524 . S
C3021 H3024 0.999 . S
C3022 H2992 0.950 . S
C3022 C3021 1.524 . S
C3022 C3023 1.415 . S
C3023 H2993 0.950 . S
C3023 C3018 1.363 . S
C3023 C3022 1.415 . S
H3024 C3021 0.999 . S
H3025 C3006 0.913 . S
H3026 C3044 0.951 . S
H3027 C3046 0.951 . S
H3028 C3048 0.950 . S
H3029 C3049 0.950 . S
H3030 C3051 0.950 . S
H3031 C3054 0.950 . S
H3032 C3055 0.950 . S
H3033 C3057 0.950 . S
H3034 C3058 0.950 . S
H3035 C3059 0.951 . S
H3036 C3061 0.951 . S
H3037 C3063 0.950 . S
H3038 C3064 0.950 . S
H3039 C3066 0.950 . S
H3040 C3069 0.950 . S
H3041 C3070 0.950 . S
H3042 C3072 0.950 . S
H3043 C3073 0.950 . S
C3044 H3026 0.951 . S
C3044 C3045 1.366 . S
C3044 C3046 1.388 . S
C3045 C3044 1.366 . S
C3045 C3049 1.385 . S
C3046 H3027 0.951 . S
C3046 C3044 1.388 . S
C3046 C3047 1.366 . S
C3047 C3046 1.366 . S
C3047 C3048 1.414 . S
C3047 C3050 1.499 . S
C3048 H3028 0.950 . S
C3048 C3047 1.414 . S
C3048 C3049 1.374 . S
C3049 H3029 0.950 . S
C3049 C3045 1.385 . S
C3049 C3048 1.374 . S
C3050 C3047 1.499 . S
C3050 C3051 1.373 . S
C3050 C3052 1.389 . S
C3051 H3030 0.950 . S
C3051 C3050 1.373 . S
C3051 C3067 1.377 . S
C3052 C3050 1.389 . S
C3052 C3053 1.524 . S
C3052 C3066 1.377 . S
C3053 C3052 1.524 . S
C3053 C3054 1.397 . S
C3053 C3058 1.363 . S
C3054 H3031 0.950 . S
C3054 C3053 1.397 . S
C3054 C3055 1.334 . S
C3055 H3032 0.950 . S
C3055 C3054 1.334 . S
C3055 C3056 1.287 . S
C3056 C3055 1.287 . S
C3056 C3057 1.524 . S
C3056 H3075 0.913 . S
C3057 H3033 0.950 . S
C3057 C3056 1.524 . S
C3057 C3058 1.415 . S
C3058 H3034 0.950 . S
C3058 C3053 1.363 . S
C3058 C3057 1.415 . S
C3059 H3035 0.951 . S
C3059 C3060 1.366 . S
C3059 C3061 1.388 . S
C3060 C3059 1.366 . S
C3060 C3064 1.385 . S
C3061 H3036 0.951 . S
C3061 C3059 1.388 . S
C3061 C3062 1.366 . S
C3062 C3061 1.366 . S
C3062 C3063 1.414 . S
C3062 C3065 1.499 . S
C3063 H3037 0.950 . S
C3063 C3062 1.414 . S
C3063 C3064 1.374 . S
C3064 H3038 0.950 . S
C3064 C3060 1.385 . S
C3064 C3063 1.374 . S
C3065 C3062 1.499 . S
C3065 C3066 1.373 . S
C3065 C3067 1.389 . S
C3066 H3039 0.950 . S
C3066 C3052 1.377 . S
C3066 C3065 1.373 . S
C3067 C3051 1.377 . S
C3067 C3065 1.389 . S
C3067 C3068 1.524 . S
C3068 C3067 1.524 . S
C3068 C3069 1.397 . S
C3068 C3073 1.363 . S
C3069 H3040 0.950 . S
C3069 C3068 1.397 . S
C3069 C3070 1.334 . S
C3070 H3041 0.950 . S
C3070 C3069 1.334 . S
C3070 C3071 1.287 . S
C3071 C3070 1.287 . S
C3071 C3072 1.524 . S
C3071 H3074 0.999 . S
C3072 H3042 0.950 . S
C3072 C3071 1.524 . S
C3072 C3073 1.415 . S
C3073 H3043 0.950 . S
C3073 C3068 1.363 . S
C3073 C3072 1.415 . S
H3074 C3071 0.999 . S
H3075 C3056 0.913 . S
H3076 C3094 0.951 . S
H3077 C3096 0.951 . S
H3078 C3098 0.950 . S
H3079 C3099 0.950 . S
H3080 C3101 0.950 . S
H3081 C3104 0.950 . S
H3082 C3105 0.950 . S
H3083 C3107 0.950 . S
H3084 C3108 0.950 . S
H3085 C3109 0.951 . S
H3086 C3111 0.951 . S
H3087 C3113 0.950 . S
H3088 C3114 0.950 . S
H3089 C3116 0.950 . S
H3090 C3119 0.950 . S
H3091 C3120 0.950 . S
H3092 C3122 0.950 . S
H3093 C3123 0.950 . S
C3094 H3076 0.951 . S
C3094 C3095 1.366 . S
C3094 C3096 1.388 . S
C3095 C3094 1.366 . S
C3095 C3099 1.385 . S
C3096 H3077 0.951 . S
C3096 C3094 1.388 . S
C3096 C3097 1.366 . S
C3097 C3096 1.366 . S
C3097 C3098 1.414 . S
C3097 C3100 1.499 . S
C3098 H3078 0.950 . S
C3098 C3097 1.414 . S
C3098 C3099 1.374 . S
C3099 H3079 0.950 . S
C3099 C3095 1.385 . S
C3099 C3098 1.374 . S
C3100 C3097 1.499 . S
C3100 C3101 1.373 . S
C3100 C3102 1.389 . S
C3101 H3080 0.950 . S
C3101 C3100 1.373 . S
C3101 C3117 1.377 . S
C3102 C3100 1.389 . S
C3102 C3103 1.524 . S
C3102 C3116 1.377 . S
C3103 C3102 1.524 . S
C3103 C3104 1.397 . S
C3103 C3108 1.363 . S
C3104 H3081 0.950 . S
C3104 C3103 1.397 . S
C3104 C3105 1.334 . S
C3105 H3082 0.950 . S
C3105 C3104 1.334 . S
C3105 C3106 1.287 . S
C3106 C3105 1.287 . S
C3106 C3107 1.524 . S
C3106 H3125 0.913 . S
C3107 H3083 0.950 . S
C3107 C3106 1.524 . S
C3107 C3108 1.415 . S
C3108 H3084 0.950 . S
C3108 C3103 1.363 . S
C3108 C3107 1.415 . S
C3109 H3085 0.951 . S
C3109 C3110 1.366 . S
C3109 C3111 1.388 . S
C3110 C3109 1.366 . S
C3110 C3114 1.385 . S
C3111 H3086 0.951 . S
C3111 C3109 1.388 . S
C3111 C3112 1.366 . S
C3112 C3111 1.366 . S
C3112 C3113 1.414 . S
C3112 C3115 1.499 . S
C3113 H3087 0.950 . S
C3113 C3112 1.414 . S
C3113 C3114 1.374 . S
C3114 H3088 0.950 . S
C3114 C3110 1.385 . S
C3114 C3113 1.374 . S
C3115 C3112 1.499 . S
C3115 C3116 1.373 . S
C3115 C3117 1.389 . S
C3116 H3089 0.950 . S
C3116 C3102 1.377 . S
C3116 C3115 1.373 . S
C3117 C3101 1.377 . S
C3117 C3115 1.389 . S
C3117 C3118 1.524 . S
C3118 C3117 1.524 . S
C3118 C3119 1.397 . S
C3118 C3123 1.363 . S
C3119 H3090 0.950 . S
C3119 C3118 1.397 . S
C3119 C3120 1.334 . S
C3120 H3091 0.950 . S
C3120 C3119 1.334 . S
C3120 C3121 1.287 . S
C3121 C3120 1.287 . S
C3121 C3122 1.524 . S
C3121 H3124 0.999 . S
C3122 H3092 0.950 . S
C3122 C3121 1.524 . S
C3122 C3123 1.415 . S
C3123 H3093 0.950 . S
C3123 C3118 1.363 . S
C3123 C3122 1.415 . S
H3124 C3121 0.999 . S
H3125 C3106 0.913 . S
H3126 C3144 0.951 . S
H3127 C3146 0.951 . S
H3128 C3148 0.971 . S
H3129 C3149 0.950 1_655 S
H3130 C3151 0.950 . S
H3131 C3154 0.950 1_655 S
H3132 C3155 0.950 1_655 S
H3133 C3157 0.950 . S
H3134 C3158 0.950 . S
H3135 C3159 0.951 . S
H3136 C3161 0.951 . S
H3137 C3163 0.950 . S
H3138 C3164 0.950 . S
H3139 C3166 0.950 . S
H3140 C3169 0.950 . S
H3141 C3170 0.950 . S
H3142 C3172 0.950 . S
H3143 C3173 0.950 . S
C3144 H3126 0.951 . S
C3144 C3145 1.366 . S
C3144 C3146 1.388 . S
C3145 C3144 1.366 . S
C3145 C3149 1.385 . S
C3146 H3127 0.951 . S
C3146 C3144 1.388 . S
C3146 C3147 1.366 . S
C3147 C3146 1.366 . S
C3147 C3148 1.407 1_455 S
C3147 C3150 1.499 . S
C3148 H3128 0.971 . S
C3148 C3147 1.407 1_655 S
C3148 C3149 1.361 1_655 S
C3149 H3129 0.950 1_455 S
C3149 C3145 1.385 . S
C3149 C3148 1.361 1_455 S
C3150 C3147 1.499 . S
C3150 C3151 1.373 . S
C3150 C3152 1.389 . S
C3151 H3130 0.950 . S
C3151 C3150 1.373 . S
C3151 C3167 1.377 . S
C3152 C3150 1.389 . S
C3152 C3153 1.524 . S
C3152 C3166 1.377 . S
C3153 C3152 1.524 . S
C3153 C3154 1.397 . S
C3153 C3158 1.363 . S
C3154 H3131 0.950 1_455 S
C3154 C3153 1.397 . S
C3154 C3155 1.334 . S
C3155 H3132 0.950 1_455 S
C3155 C3154 1.334 . S
C3155 C3156 1.287 . S
C3156 C3155 1.287 . S
C3156 C3157 1.524 . S
C3156 H3175 0.913 . S
C3157 H3133 0.950 . S
C3157 C3156 1.524 . S
C3157 C3158 1.415 . S
C3158 H3134 0.950 . S
C3158 C3153 1.363 . S
C3158 C3157 1.415 . S
C3159 H3135 0.951 . S
C3159 C3160 1.366 1_655 S
C3159 C3161 1.388 . S
C3160 C3159 1.366 1_455 S
C3160 C3164 1.385 . S
C3161 H3136 0.951 . S
C3161 C3159 1.388 . S
C3161 C3162 1.366 1_655 S
C3162 C3161 1.366 1_455 S
C3162 C3163 1.414 . S
C3162 C3165 1.499 . S
C3163 H3137 0.950 . S
C3163 C3162 1.414 . S
C3163 C3164 1.374 . S
C3164 H3138 0.950 . S
C3164 C3160 1.385 . S
C3164 C3163 1.374 . S
C3165 C3162 1.499 . S
C3165 C3166 1.373 . S
C3165 C3167 1.389 . S
C3166 H3139 0.950 . S
C3166 C3152 1.377 . S
C3166 C3165 1.373 . S
C3167 C3151 1.377 . S
C3167 C3165 1.389 . S
C3167 C3168 1.524 . S
C3168 C3167 1.524 . S
C3168 C3169 1.397 . S
C3168 C3173 1.363 1_455 S
C3169 H3140 0.950 . S
C3169 C3168 1.397 . S
C3169 C3170 1.334 . S
C3170 H3141 0.950 . S
C3170 C3169 1.334 . S
C3170 C3171 1.287 . S
C3171 C3170 1.287 . S
C3171 C3172 1.524 1_455 S
C3171 H3174 0.998 1_455 S
C3172 H3142 0.950 . S
C3172 C3171 1.524 1_655 S
C3172 C3173 1.415 . S
C3173 H3143 0.950 . S
C3173 C3168 1.363 1_655 S
C3173 C3172 1.415 . S
H3174 C3171 0.998 1_655 S
H3175 C3156 0.913 . S
H3176 C3194 0.951 . S
H3177 C3196 0.951 . S
H3178 C3198 0.950 . S
H3179 C3199 0.950 . S
H3180 C3201 0.950 . S
H3181 C3204 0.950 . S
H3182 C3205 0.950 . S
H3183 C3207 0.950 . S
H3184 C3208 0.950 . S
H3185 C3209 0.951 . S
H3186 C3211 0.951 . S
H3187 C3213 0.950 . S
H3188 C3214 0.950 . S
H3189 C3216 0.950 . S
H3190 C3219 0.950 . S
H3191 C3220 0.950 . S
H3192 C3222 0.950 . S
H3193 C3223 0.950 . S
C3194 H3176 0.951 . S
C3194 C3195 1.366 . S
C3194 C3196 1.388 . S
C3195 C3194 1.366 . S
C3195 C3199 1.385 . S
C3196 H3177 0.951 . S
C3196 C3194 1.388 . S
C3196 C3197 1.366 . S
C3197 C3196 1.366 . S
C3197 C3198 1.414 . S
C3197 C3200 1.499 . S
C3198 H3178 0.950 . S
C3198 C3197 1.414 . S
C3198 C3199 1.374 . S
C3199 H3179 0.950 . S
C3199 C3195 1.385 . S
C3199 C3198 1.374 . S
C3200 C3197 1.499 . S
C3200 C3201 1.373 . S
C3200 C3202 1.389 . S
C3201 H3180 0.950 . S
C3201 C3200 1.373 . S
C3201 C3217 1.377 . S
C3202 C3200 1.389 . S
C3202 C3203 1.524 . S
C3202 C3216 1.377 . S
C3203 C3202 1.524 . S
C3203 C3204 1.397 . S
C3203 C3208 1.363 . S
C3204 H3181 0.950 . S
C3204 C3203 1.397 . S
C3204 C3205 1.334 . S
C3205 H3182 0.950 . S
C3205 C3204 1.334 . S
C3205 C3206 1.287 . S
C3206 C3205 1.287 . S
C3206 C3207 1.524 . S
C3206 H3225 0.913 . S
C3207 H3183 0.950 . S
C3207 C3206 1.524 . S
C3207 C3208 1.415 . S
C3208 H3184 0.950 . S
C3208 C3203 1.363 . S
C3208 C3207 1.415 . S
C3209 H3185 0.951 . S
C3209 C3210 1.366 . S
C3209 C3211 1.388 . S
C3210 C3209 1.366 . S
C3210 C3214 1.385 . S
C3211 H3186 0.951 . S
C3211 C3209 1.388 . S
C3211 C3212 1.366 . S
C3212 C3211 1.366 . S
C3212 C3213 1.414 . S
C3212 C3215 1.499 . S
C3213 H3187 0.950 . S
C3213 C3212 1.414 . S
C3213 C3214 1.374 . S
C3214 H3188 0.950 . S
C3214 C3210 1.385 . S
C3214 C3213 1.374 . S
C3215 C3212 1.499 . S
C3215 C3216 1.373 . S
C3215 C3217 1.389 . S
C3216 H3189 0.950 . S
C3216 C3202 1.377 . S
C3216 C3215 1.373 . S
C3217 C3201 1.377 . S
C3217 C3215 1.389 . S
C3217 C3218 1.524 . S
C3218 C3217 1.524 . S
C3218 C3219 1.397 . S
C3218 C3223 1.363 . S
C3219 H3190 0.950 . S
C3219 C3218 1.397 . S
C3219 C3220 1.334 . S
C3220 H3191 0.950 . S
C3220 C3219 1.334 . S
C3220 C3221 1.287 . S
C3221 C3220 1.287 . S
C3221 C3222 1.524 . S
C3221 H3224 0.999 . S
C3222 H3192 0.950 . S
C3222 C3221 1.524 . S
C3222 C3223 1.415 . S
C3223 H3193 0.950 . S
C3223 C3218 1.363 . S
C3223 C3222 1.415 . S
H3224 C3221 0.999 . S
H3225 C3206 0.913 . S
H3226 C3244 0.951 1_545 S
H3227 C3246 0.956 1_545 S
H3228 C3248 0.950 . S
H3229 C3249 0.950 . S
H3230 C3251 0.950 . S
H3231 C3254 0.950 . S
H3232 C3255 0.950 . S
H3233 C3257 0.950 . S
H3234 C3258 0.950 . S
H3235 C3259 0.951 . S
H3236 C3261 0.951 . S
H3237 C3263 0.950 . S
H3238 C3264 0.950 . S
H3239 C3266 0.950 . S
H3240 C3269 0.950 . S
H3241 C3270 0.950 . S
H3242 C3272 0.950 . S
H3243 C3273 0.950 . S
C3244 H3226 0.951 1_565 S
C3244 C3245 1.366 . S
C3244 C3246 1.358 . S
C3245 C3244 1.366 . S
C3245 C3249 1.385 . S
C3246 H3227 0.956 1_565 S
C3246 C3244 1.358 . S
C3246 C3247 1.398 . S
C3247 C3246 1.398 . S
C3247 C3248 1.414 . S
C3247 C3250 1.499 . S
C3248 H3228 0.950 . S
C3248 C3247 1.414 . S
C3248 C3249 1.374 . S
C3249 H3229 0.950 . S
C3249 C3245 1.385 . S
C3249 C3248 1.374 . S
C3250 C3247 1.499 . S
C3250 C3251 1.373 . S
C3250 C3252 1.389 1_565 S
C3251 H3230 0.950 . S
C3251 C3250 1.373 . S
C3251 C3267 1.377 . S
C3252 C3250 1.389 1_545 S
C3252 C3253 1.524 . S
C3252 C3266 1.377 . S
C3253 C3252 1.524 . S
C3253 C3254 1.397 . S
C3253 C3258 1.363 . S
C3254 H3231 0.950 . S
C3254 C3253 1.397 . S
C3254 C3255 1.334 . S
C3255 H3232 0.950 . S
C3255 C3254 1.334 . S
C3255 C3256 1.287 . S
C3256 C3255 1.287 . S
C3256 C3257 1.524 . S
C3256 H3275 0.913 . S
C3257 H3233 0.950 . S
C3257 C3256 1.524 . S
C3257 C3258 1.415 . S
C3258 H3234 0.950 . S
C3258 C3253 1.363 . S
C3258 C3257 1.415 . S
C3259 H3235 0.951 . S
C3259 C3260 1.366 . S
C3259 C3261 1.388 . S
C3260 C3259 1.366 . S
C3260 C3264 1.385 1_565 S
C3261 H3236 0.951 . S
C3261 C3259 1.388 . S
C3261 C3262 1.366 . S
C3262 C3261 1.366 . S
C3262 C3263 1.414 1_565 S
C3262 C3265 1.499 . S
C3263 H3237 0.950 . S
C3263 C3262 1.414 1_545 S
C3263 C3264 1.374 . S
C3264 H3238 0.950 . S
C3264 C3260 1.385 1_545 S
C3264 C3263 1.374 . S
C3265 C3262 1.499 . S
C3265 C3266 1.373 1_565 S
C3265 C3267 1.389 . S
C3266 H3239 0.950 . S
C3266 C3252 1.377 . S
C3266 C3265 1.373 1_545 S
C3267 C3251 1.377 . S
C3267 C3265 1.389 . S
C3267 C3268 1.524 . S
C3268 C3267 1.524 . S
C3268 C3269 1.397 . S
C3268 C3273 1.363 . S
C3269 H3240 0.950 . S
C3269 C3268 1.397 . S
C3269 C3270 1.334 . S
C3270 H3241 0.950 . S
C3270 C3269 1.334 . S
C3270 C3271 1.287 . S
C3271 C3270 1.287 . S
C3271 C3272 1.524 . S
C3271 H3274 0.999 . S
C3272 H3242 0.950 . S
C3272 C3271 1.524 . S
C3272 C3273 1.415 . S
C3273 H3243 0.950 . S
C3273 C3268 1.363 . S
C3273 C3272 1.415 . S
H3274 C3271 0.999 . S
H3275 C3256 0.913 . S
H3276 C3294 0.951 . S
H3277 C3296 0.951 . S
H3278 C3298 0.964 . S
H3279 C3299 0.950 . S
H3280 C3301 0.950 . S
H3281 C3304 0.950 . S
H3282 C3305 0.950 . S
H3283 C3307 0.950 . S
H3284 C3308 0.947 1_565 S
H3285 C3309 0.951 . S
H3286 C3311 0.951 . S
H3287 C3313 0.950 . S
H3288 C3314 0.950 . S
H3289 C3316 0.950 . S
H3290 C3319 0.950 . S
H3291 C3320 0.950 . S
H3292 C3322 0.950 . S
H3293 C3323 0.950 . S
C3294 H3276 0.951 . S
C3294 C3295 1.366 . S
C3294 C3296 1.388 . S
C3295 C3294 1.366 . S
C3295 C3299 1.385 . S
C3296 H3277 0.951 . S
C3296 C3294 1.388 . S
C3296 C3297 1.366 . S
C3297 C3296 1.366 . S
C3297 C3298 1.414 . S
C3297 C3300 1.499 . S
C3298 H3278 0.964 . S
C3298 C3297 1.414 . S
C3298 C3299 1.374 . S
C3299 H3279 0.950 . S
C3299 C3295 1.385 . S
C3299 C3298 1.374 . S
C3300 C3297 1.499 . S
C3300 C3301 1.373 . S
C3300 C3302 1.389 1_565 S
C3301 H3280 0.950 . S
C3301 C3300 1.373 . S
C3301 C3317 1.377 . S
C3302 C3300 1.389 1_545 S
C3302 C3303 1.524 . S
C3302 C3316 1.377 . S
C3303 C3302 1.524 . S
C3303 C3304 1.397 . S
C3303 C3308 1.363 . S
C3304 H3281 0.950 . S
C3304 C3303 1.397 . S
C3304 C3305 1.334 . S
C3305 H3282 0.950 . S
C3305 C3304 1.334 . S
C3305 C3306 1.287 . S
C3306 C3305 1.287 . S
C3306 C3307 1.524 . S
C3306 H3325 0.913 . S
C3307 H3283 0.950 . S
C3307 C3306 1.524 . S
C3307 C3308 1.415 . S
C3308 H3284 0.947 1_545 S
C3308 C3303 1.363 . S
C3308 C3307 1.415 . S
C3309 H3285 0.951 . S
C3309 C3310 1.362 1_545 S
C3309 C3311 1.388 . S
C3310 C3309 1.362 1_565 S
C3310 C3314 1.407 . S
C3311 H3286 0.951 . S
C3311 C3309 1.388 . S
C3311 C3312 1.366 1_545 S
C3312 C3311 1.366 1_565 S
C3312 C3313 1.414 . S
C3312 C3315 1.499 . S
C3313 H3287 0.950 . S
C3313 C3312 1.414 . S
C3313 C3314 1.374 . S
C3314 H3288 0.950 . S
C3314 C3310 1.407 . S
C3314 C3313 1.374 . S
C3315 C3312 1.499 . S
C3315 C3316 1.373 1_565 S
C3315 C3317 1.389 . S
C3316 H3289 0.950 . S
C3316 C3302 1.377 . S
C3316 C3315 1.373 1_545 S
C3317 C3301 1.377 . S
C3317 C3315 1.389 . S
C3317 C3318 1.524 . S
C3318 C3317 1.524 . S
C3318 C3319 1.397 . S
C3318 C3323 1.363 . S
C3319 H3290 0.950 . S
C3319 C3318 1.397 . S
C3319 C3320 1.334 . S
C3320 H3291 0.950 . S
C3320 C3319 1.334 . S
C3320 C3321 1.287 . S
C3321 C3320 1.287 . S
C3321 C3322 1.524 . S
C3321 H3324 0.999 . S
C3322 H3292 0.950 . S
C3322 C3321 1.524 . S
C3322 C3323 1.415 . S
C3323 H3293 0.950 . S
C3323 C3318 1.363 . S
C3323 C3322 1.415 . S
H3324 C3321 0.999 . S
H3325 C3306 0.913 . S
H3326 C3344 0.951 . S
H3327 C3346 0.951 . S
H3328 C3348 0.950 . S
H3329 C3349 0.974 . S
H3330 C3351 0.950 . S
H3331 C3354 0.950 . S
H3332 C3355 0.950 . S
H3333 C3357 0.950 . S
H3334 C3358 0.950 . S
H3335 C3359 0.951 . S
H3336 C3361 0.951 . S
H3337 C3363 0.950 . S
H3338 C3364 0.950 . S
H3339 C3366 0.950 . S
H3340 C3369 0.950 . S
H3341 C3370 0.950 . S
H3342 C3372 0.950 . S
H3343 C3373 0.950 . S
C3344 H3326 0.951 . S
C3344 C3345 1.366 . S
C3344 C3346 1.388 . S
C3345 C3344 1.366 . S
C3345 C3349 1.374 1_455 S
C3346 H3327 0.951 . S
C3346 C3344 1.388 . S
C3346 C3347 1.366 . S
C3347 C3346 1.366 . S
C3347 C3348 1.414 1_455 S
C3347 C3350 1.499 . S
C3348 H3328 0.950 . S
C3348 C3347 1.414 1_655 S
C3348 C3349 1.361 . S
C3349 H3329 0.974 . S
C3349 C3345 1.374 1_655 S
C3349 C3348 1.361 . S
C3350 C3347 1.499 . S
C3350 C3351 1.373 . S
C3350 C3352 1.389 . S
C3351 H3330 0.950 . S
C3351 C3350 1.373 . S
C3351 C3367 1.377 . S
C3352 C3350 1.389 . S
C3352 C3353 1.524 . S
C3352 C3366 1.377 . S
C3353 C3352 1.524 . S
C3353 C3354 1.397 1_455 S
C3353 C3358 1.363 . S
C3354 H3331 0.950 . S
C3354 C3353 1.397 1_655 S
C3354 C3355 1.334 . S
C3355 H3332 0.950 . S
C3355 C3354 1.334 . S
C3355 C3356 1.287 1_655 S
C3356 C3355 1.287 1_455 S
C3356 C3357 1.524 . S
C3356 H3375 0.948 . S
C3357 H3333 0.950 . S
C3357 C3356 1.524 . S
C3357 C3358 1.415 . S
C3358 H3334 0.950 . S
C3358 C3353 1.363 . S
C3358 C3357 1.415 . S
C3359 H3335 0.951 . S
C3359 C3360 1.366 1_655 S
C3359 C3361 1.388 . S
C3360 C3359 1.366 1_455 S
C3360 C3364 1.384 . S
C3361 H3336 0.951 . S
C3361 C3359 1.388 . S
C3361 C3362 1.366 1_655 S
C3362 C3361 1.366 1_455 S
C3362 C3363 1.414 . S
C3362 C3365 1.499 . S
C3363 H3337 0.950 . S
C3363 C3362 1.414 . S
C3363 C3364 1.374 . S
C3364 H3338 0.950 . S
C3364 C3360 1.384 . S
C3364 C3363 1.374 . S
C3365 C3362 1.499 . S
C3365 C3366 1.373 . S
C3365 C3367 1.389 . S
C3366 H3339 0.950 . S
C3366 C3352 1.377 . S
C3366 C3365 1.373 . S
C3367 C3351 1.377 . S
C3367 C3365 1.389 . S
C3367 C3368 1.524 . S
C3368 C3367 1.524 . S
C3368 C3369 1.397 . S
C3368 C3373 1.363 1_455 S
C3369 H3340 0.950 . S
C3369 C3368 1.397 . S
C3369 C3370 1.334 . S
C3370 H3341 0.950 . S
C3370 C3369 1.334 . S
C3370 C3371 1.287 . S
C3371 C3370 1.287 . S
C3371 C3372 1.524 1_455 S
C3371 H3374 0.999 . S
C3372 H3342 0.950 . S
C3372 C3371 1.524 1_655 S
C3372 C3373 1.415 . S
C3373 H3343 0.950 . S
C3373 C3368 1.363 1_655 S
C3373 C3372 1.415 . S
H3374 C3371 0.999 . S
H3375 C3356 0.948 . S
H3376 C3394 0.951 . S
H3377 C3396 0.951 . S
H3378 C3398 0.950 . S
H3379 C3399 0.950 . S
H3380 C3401 0.950 . S
H3381 C3404 0.950 . S
H3382 C3405 0.950 . S
H3383 C3407 0.950 . S
H3384 C3408 0.950 . S
H3385 C3409 0.951 . S
H3386 C3411 0.951 . S
H3387 C3413 0.950 . S
H3388 C3414 0.950 . S
H3389 C3416 0.950 . S
H3390 C3419 0.950 . S
H3391 C3420 0.950 . S
H3392 C3422 0.950 . S
H3393 C3423 0.950 . S
C3394 H3376 0.951 . S
C3394 C3395 1.366 . S
C3394 C3396 1.388 . S
C3395 C3394 1.366 . S
C3395 C3399 1.385 . S
C3396 H3377 0.951 . S
C3396 C3394 1.388 . S
C3396 C3397 1.366 . S
C3397 C3396 1.366 . S
C3397 C3398 1.414 . S
C3397 C3400 1.499 . S
C3398 H3378 0.950 . S
C3398 C3397 1.414 . S
C3398 C3399 1.374 . S
C3399 H3379 0.950 . S
C3399 C3395 1.385 . S
C3399 C3398 1.374 . S
C3400 C3397 1.499 . S
C3400 C3401 1.373 . S
C3400 C3402 1.389 . S
C3401 H3380 0.950 . S
C3401 C3400 1.373 . S
C3401 C3417 1.377 . S
C3402 C3400 1.389 . S
C3402 C3403 1.524 . S
C3402 C3416 1.377 . S
C3403 C3402 1.524 . S
C3403 C3404 1.397 . S
C3403 C3408 1.363 . S
C3404 H3381 0.950 . S
C3404 C3403 1.397 . S
C3404 C3405 1.334 . S
C3405 H3382 0.950 . S
C3405 C3404 1.334 . S
C3405 C3406 1.287 . S
C3406 C3405 1.287 . S
C3406 C3407 1.524 . S
C3406 H3425 0.913 . S
C3407 H3383 0.950 . S
C3407 C3406 1.524 . S
C3407 C3408 1.415 . S
C3408 H3384 0.950 . S
C3408 C3403 1.363 . S
C3408 C3407 1.415 . S
C3409 H3385 0.951 . S
C3409 C3410 1.366 . S
C3409 C3411 1.388 . S
C3410 C3409 1.366 . S
C3410 C3414 1.385 . S
C3411 H3386 0.951 . S
C3411 C3409 1.388 . S
C3411 C3412 1.366 . S
C3412 C3411 1.366 . S
C3412 C3413 1.414 . S
C3412 C3415 1.499 . S
C3413 H3387 0.950 . S
C3413 C3412 1.414 . S
C3413 C3414 1.374 . S
C3414 H3388 0.950 . S
C3414 C3410 1.385 . S
C3414 C3413 1.374 . S
C3415 C3412 1.499 . S
C3415 C3416 1.373 . S
C3415 C3417 1.389 . S
C3416 H3389 0.950 . S
C3416 C3402 1.377 . S
C3416 C3415 1.373 . S
C3417 C3401 1.377 . S
C3417 C3415 1.389 . S
C3417 C3418 1.524 . S
C3418 C3417 1.524 . S
C3418 C3419 1.397 . S
C3418 C3423 1.363 . S
C3419 H3390 0.950 . S
C3419 C3418 1.397 . S
C3419 C3420 1.334 . S
C3420 H3391 0.950 . S
C3420 C3419 1.334 . S
C3420 C3421 1.287 . S
C3421 C3420 1.287 . S
C3421 C3422 1.524 . S
C3421 H3424 0.999 . S
C3422 H3392 0.950 . S
C3422 C3421 1.524 . S
C3422 C3423 1.415 . S
C3423 H3393 0.950 . S
C3423 C3418 1.363 . S
C3423 C3422 1.415 . S
H3424 C3421 0.999 . S
H3425 C3406 0.913 . S
H3426 C3444 0.951 . S
H3427 C3446 0.951 . S
H3428 C3448 0.950 . S
H3429 C3449 0.950 . S
H3430 C3451 0.950 . S
H3431 C3454 0.950 . S
H3432 C3455 0.950 . S
H3433 C3457 0.950 . S
H3434 C3458 0.950 . S
H3435 C3459 0.951 . S
H3436 C3461 0.951 . S
H3437 C3463 0.950 . S
H3438 C3464 0.950 . S
H3439 C3466 0.950 . S
H3440 C3469 0.950 . S
H3441 C3470 0.950 . S
H3442 C3472 0.950 . S
H3443 C3473 0.950 . S
C3444 H3426 0.951 . S
C3444 C3445 1.366 . S
C3444 C3446 1.388 . S
C3445 C3444 1.366 . S
C3445 C3449 1.385 . S
C3446 H3427 0.951 . S
C3446 C3444 1.388 . S
C3446 C3447 1.366 . S
C3447 C3446 1.366 . S
C3447 C3448 1.414 . S
C3447 C3450 1.499 . S
C3448 H3428 0.950 . S
C3448 C3447 1.414 . S
C3448 C3449 1.374 . S
C3449 H3429 0.950 . S
C3449 C3445 1.385 . S
C3449 C3448 1.374 . S
C3450 C3447 1.499 . S
C3450 C3451 1.373 . S
C3450 C3452 1.389 . S
C3451 H3430 0.950 . S
C3451 C3450 1.373 . S
C3451 C3467 1.377 . S
C3452 C3450 1.389 . S
C3452 C3453 1.524 . S
C3452 C3466 1.377 . S
C3453 C3452 1.524 . S
C3453 C3454 1.397 . S
C3453 C3458 1.363 . S
C3454 H3431 0.950 . S
C3454 C3453 1.397 . S
C3454 C3455 1.334 . S
C3455 H3432 0.950 . S
C3455 C3454 1.334 . S
C3455 C3456 1.287 . S
C3456 C3455 1.287 . S
C3456 C3457 1.524 . S
C3456 H3475 0.913 . S
C3457 H3433 0.950 . S
C3457 C3456 1.524 . S
C3457 C3458 1.415 . S
C3458 H3434 0.950 . S
C3458 C3453 1.363 . S
C3458 C3457 1.415 . S
C3459 H3435 0.951 . S
C3459 C3460 1.366 . S
C3459 C3461 1.388 . S
C3460 C3459 1.366 . S
C3460 C3464 1.385 . S
C3461 H3436 0.951 . S
C3461 C3459 1.388 . S
C3461 C3462 1.366 . S
C3462 C3461 1.366 . S
C3462 C3463 1.414 . S
C3462 C3465 1.499 . S
C3463 H3437 0.950 . S
C3463 C3462 1.414 . S
C3463 C3464 1.374 . S
C3464 H3438 0.950 . S
C3464 C3460 1.385 . S
C3464 C3463 1.374 . S
C3465 C3462 1.499 . S
C3465 C3466 1.373 . S
C3465 C3467 1.389 . S
C3466 H3439 0.950 . S
C3466 C3452 1.377 . S
C3466 C3465 1.373 . S
C3467 C3451 1.377 . S
C3467 C3465 1.389 . S
C3467 C3468 1.524 . S
C3468 C3467 1.524 . S
C3468 C3469 1.397 . S
C3468 C3473 1.363 . S
C3469 H3440 0.950 . S
C3469 C3468 1.397 . S
C3469 C3470 1.334 . S
C3470 H3441 0.950 . S
C3470 C3469 1.334 . S
C3470 C3471 1.287 . S
C3471 C3470 1.287 . S
C3471 C3472 1.524 . S
C3471 H3474 0.999 . S
C3472 H3442 0.950 . S
C3472 C3471 1.524 . S
C3472 C3473 1.415 . S
C3473 H3443 0.950 . S
C3473 C3468 1.363 . S
C3473 C3472 1.415 . S
H3474 C3471 0.999 . S
H3475 C3456 0.913 . S
H3476 C3494 0.951 . S
H3477 C3496 0.951 . S
H3478 C3498 0.950 . S
H3479 C3499 0.950 . S
H3480 C3501 0.950 . S
H3481 C3504 0.950 . S
H3482 C3505 0.950 . S
H3483 C3507 0.950 . S
H3484 C3508 0.950 . S
H3485 C3509 0.951 . S
H3486 C3511 0.951 . S
H3487 C3513 0.950 . S
H3488 C3514 0.950 . S
H3489 C3516 0.950 . S
H3490 C3519 0.950 . S
H3491 C3520 0.950 . S
H3492 C3522 0.950 . S
H3493 C3523 0.950 . S
C3494 H3476 0.951 . S
C3494 C3495 1.366 . S
C3494 C3496 1.388 . S
C3495 C3494 1.366 . S
C3495 C3499 1.385 . S
C3496 H3477 0.951 . S
C3496 C3494 1.388 . S
C3496 C3497 1.366 . S
C3497 C3496 1.366 . S
C3497 C3498 1.414 . S
C3497 C3500 1.499 . S
C3498 H3478 0.950 . S
C3498 C3497 1.414 . S
C3498 C3499 1.374 . S
C3499 H3479 0.950 . S
C3499 C3495 1.385 . S
C3499 C3498 1.374 . S
C3500 C3497 1.499 . S
C3500 C3501 1.373 . S
C3500 C3502 1.389 . S
C3501 H3480 0.950 . S
C3501 C3500 1.373 . S
C3501 C3517 1.377 . S
C3502 C3500 1.389 . S
C3502 C3503 1.524 . S
C3502 C3516 1.377 . S
C3503 C3502 1.524 . S
C3503 C3504 1.397 . S
C3503 C3508 1.363 . S
C3504 H3481 0.950 . S
C3504 C3503 1.397 . S
C3504 C3505 1.334 . S
C3505 H3482 0.950 . S
C3505 C3504 1.334 . S
C3505 C3506 1.287 . S
C3506 C3505 1.287 . S
C3506 C3507 1.524 . S
C3506 H3525 0.913 . S
C3507 H3483 0.950 . S
C3507 C3506 1.524 . S
C3507 C3508 1.415 . S
C3508 H3484 0.950 . S
C3508 C3503 1.363 . S
C3508 C3507 1.415 . S
C3509 H3485 0.951 . S
C3509 C3510 1.366 . S
C3509 C3511 1.388 . S
C3510 C3509 1.366 . S
C3510 C3514 1.385 . S
C3511 H3486 0.951 . S
C3511 C3509 1.388 . S
C3511 C3512 1.366 . S
C3512 C3511 1.366 . S
C3512 C3513 1.414 . S
C3512 C3515 1.499 . S
C3513 H3487 0.950 . S
C3513 C3512 1.414 . S
C3513 C3514 1.374 . S
C3514 H3488 0.950 . S
C3514 C3510 1.385 . S
C3514 C3513 1.374 . S
C3515 C3512 1.499 . S
C3515 C3516 1.373 . S
C3515 C3517 1.389 . S
C3516 H3489 0.950 . S
C3516 C3502 1.377 . S
C3516 C3515 1.373 . S
C3517 C3501 1.377 . S
C3517 C3515 1.389 . S
C3517 C3518 1.524 . S
C3518 C3517 1.524 . S
C3518 C3519 1.397 . S
C3518 C3523 1.363 . S
C3519 H3490 0.950 . S
C3519 C3518 1.397 . S
C3519 C3520 1.334 . S
C3520 H3491 0.950 . S
C3520 C3519 1.334 . S
C3520 C3521 1.287 . S
C3521 C3520 1.287 . S
C3521 C3522 1.524 . S
C3521 H3524 0.999 . S
C3522 H3492 0.950 . S
C3522 C3521 1.524 . S
C3522 C3523 1.415 . S
C3523 H3493 0.950 . S
C3523 C3518 1.363 . S
C3523 C3522 1.415 . S
H3524 C3521 0.999 . S
H3525 C3506 0.913 . S
H3526 C3544 0.951 . S
H3527 C3546 0.951 . S
H3528 C3548 0.950 . S
H3529 C3549 0.950 . S
H3530 C3551 0.950 . S
H3531 C3554 0.950 . S
H3532 C3555 0.950 . S
H3533 C3557 0.950 . S
H3534 C3558 0.950 . S
H3535 C3559 0.951 . S
H3536 C3561 0.951 . S
H3537 C3563 0.950 . S
H3538 C3564 0.950 . S
H3539 C3566 0.950 . S
H3540 C3569 0.950 . S
H3541 C3570 0.950 . S
H3542 C3572 0.950 . S
H3543 C3573 0.950 . S
C3544 H3526 0.951 . S
C3544 C3545 1.366 . S
C3544 C3546 1.388 . S
C3545 C3544 1.366 . S
C3545 C3549 1.385 . S
C3546 H3527 0.951 . S
C3546 C3544 1.388 . S
C3546 C3547 1.366 . S
C3547 C3546 1.366 . S
C3547 C3548 1.414 . S
C3547 C3550 1.499 . S
C3548 H3528 0.950 . S
C3548 C3547 1.414 . S
C3548 C3549 1.374 . S
C3549 H3529 0.950 . S
C3549 C3545 1.385 . S
C3549 C3548 1.374 . S
C3550 C3547 1.499 . S
C3550 C3551 1.373 . S
C3550 C3552 1.389 . S
C3551 H3530 0.950 . S
C3551 C3550 1.373 . S
C3551 C3567 1.377 . S
C3552 C3550 1.389 . S
C3552 C3553 1.524 . S
C3552 C3566 1.377 . S
C3553 C3552 1.524 . S
C3553 C3554 1.397 . S
C3553 C3558 1.363 . S
C3554 H3531 0.950 . S
C3554 C3553 1.397 . S
C3554 C3555 1.334 . S
C3555 H3532 0.950 . S
C3555 C3554 1.334 . S
C3555 C3556 1.287 . S
C3556 C3555 1.287 . S
C3556 C3557 1.524 . S
C3556 H3575 0.913 . S
C3557 H3533 0.950 . S
C3557 C3556 1.524 . S
C3557 C3558 1.415 . S
C3558 H3534 0.950 . S
C3558 C3553 1.363 . S
C3558 C3557 1.415 . S
C3559 H3535 0.951 . S
C3559 C3560 1.366 . S
C3559 C3561 1.388 . S
C3560 C3559 1.366 . S
C3560 C3564 1.385 . S
C3561 H3536 0.951 . S
C3561 C3559 1.388 . S
C3561 C3562 1.366 . S
C3562 C3561 1.366 . S
C3562 C3563 1.414 . S
C3562 C3565 1.499 . S
C3563 H3537 0.950 . S
C3563 C3562 1.414 . S
C3563 C3564 1.374 . S
C3564 H3538 0.950 . S
C3564 C3560 1.385 . S
C3564 C3563 1.374 . S
C3565 C3562 1.499 . S
C3565 C3566 1.373 . S
C3565 C3567 1.389 . S
C3566 H3539 0.950 . S
C3566 C3552 1.377 . S
C3566 C3565 1.373 . S
C3567 C3551 1.377 . S
C3567 C3565 1.389 . S
C3567 C3568 1.524 . S
C3568 C3567 1.524 . S
C3568 C3569 1.397 . S
C3568 C3573 1.363 . S
C3569 H3540 0.950 . S
C3569 C3568 1.397 . S
C3569 C3570 1.334 . S
C3570 H3541 0.950 . S
C3570 C3569 1.334 . S
C3570 C3571 1.287 . S
C3571 C3570 1.287 . S
C3571 C3572 1.524 . S
C3571 H3574 0.999 . S
C3572 H3542 0.950 . S
C3572 C3571 1.524 . S
C3572 C3573 1.415 . S
C3573 H3543 0.950 . S
C3573 C3568 1.363 . S
C3573 C3572 1.415 . S
H3574 C3571 0.999 . S
H3575 C3556 0.913 . S
H3576 C3594 0.951 . S
H3577 C3596 0.951 . S
H3578 C3598 0.953 1_565 S
H3579 C3599 0.950 . S
H3580 C3601 0.950 . S
H3581 C3604 0.950 . S
H3582 C3605 0.950 . S
H3583 C3607 0.950 . S
H3584 C3608 0.950 1_545 S
H3585 C3609 0.972 . S
H3586 C3611 0.958 1_565 S
H3587 C3613 0.950 . S
H3588 C3614 0.950 . S
H3589 C3616 0.950 1_565 S
H3590 C3619 0.950 . S
H3591 C3620 0.950 . S
H3592 C3622 0.950 . S
H3593 C3623 0.950 . S
C3594 H3576 0.951 . S
C3594 C3595 1.366 . S
C3594 C3596 1.388 . S
C3595 C3594 1.366 . S
C3595 C3599 1.385 . S
C3596 H3577 0.951 . S
C3596 C3594 1.388 . S
C3596 C3597 1.366 . S
C3597 C3596 1.366 . S
C3597 C3598 1.414 . S
C3597 C3600 1.499 . S
C3598 H3578 0.953 1_545 S
C3598 C3597 1.414 . S
C3598 C3599 1.374 . S
C3599 H3579 0.950 . S
C3599 C3595 1.385 . S
C3599 C3598 1.374 . S
C3600 C3597 1.499 . S
C3600 C3601 1.373 . S
C3600 C3602 1.389 . S
C3601 H3580 0.950 . S
C3601 C3600 1.373 . S
C3601 C3617 1.377 . S
C3602 C3600 1.389 . S
C3602 C3603 1.524 1_545 S
C3602 C3616 1.377 . S
C3603 C3602 1.524 1_565 S
C3603 C3604 1.397 . S
C3603 C3608 1.363 . S
C3604 H3581 0.950 . S
C3604 C3603 1.397 . S
C3604 C3605 1.334 . S
C3605 H3582 0.950 . S
C3605 C3604 1.334 . S
C3605 C3606 1.287 . S
C3606 C3605 1.287 . S
C3606 C3607 1.524 . S
C3606 H3625 0.913 . S
C3607 H3583 0.950 . S
C3607 C3606 1.524 . S
C3607 C3608 1.415 . S
C3608 H3584 0.950 1_565 S
C3608 C3603 1.363 . S
C3608 C3607 1.415 . S
C3609 H3585 0.972 . S
C3609 C3610 1.374 1_565 S
C3609 C3611 1.337 1_565 S
C3610 C3609 1.374 1_545 S
C3610 C3614 1.385 . S
C3611 H3586 0.958 1_545 S
C3611 C3609 1.337 1_545 S
C3611 C3612 1.386 . S
C3612 C3611 1.386 . S
C3612 C3613 1.414 . S
C3612 C3615 1.499 . S
C3613 H3587 0.950 . S
C3613 C3612 1.414 . S
C3613 C3614 1.374 . S
C3614 H3588 0.950 . S
C3614 C3610 1.385 . S
C3614 C3613 1.374 . S
C3615 C3612 1.499 . S
C3615 C3616 1.373 . S
C3615 C3617 1.389 . S
C3616 H3589 0.950 1_545 S
C3616 C3602 1.377 . S
C3616 C3615 1.373 . S
C3617 C3601 1.377 . S
C3617 C3615 1.389 . S
C3617 C3618 1.524 . S
C3618 C3617 1.524 . S
C3618 C3619 1.397 . S
C3618 C3623 1.363 . S
C3619 H3590 0.950 . S
C3619 C3618 1.397 . S
C3619 C3620 1.334 . S
C3620 H3591 0.950 . S
C3620 C3619 1.334 . S
C3620 C3621 1.287 . S
C3621 C3620 1.287 . S
C3621 C3622 1.524 . S
C3621 H3624 0.999 . S
C3622 H3592 0.950 . S
C3622 C3621 1.524 . S
C3622 C3623 1.415 . S
C3623 H3593 0.950 . S
C3623 C3618 1.363 . S
C3623 C3622 1.415 . S
H3624 C3621 0.999 . S
H3625 C3606 0.913 . S
H3626 C3644 0.951 . S
H3627 C3646 0.951 . S
H3628 C3648 0.950 . S
H3629 C3649 0.950 . S
H3630 C3651 0.950 . S
H3631 C3654 0.950 . S
H3632 C3655 0.950 . S
H3633 C3657 0.950 . S
H3634 C3658 0.950 . S
H3635 C3659 0.972 1_455 S
H3636 C3661 0.945 1_455 S
H3637 C3663 0.950 . S
H3638 C3664 0.950 . S
H3639 C3666 0.950 . S
H3640 C3669 0.950 . S
H3641 C3670 0.950 . S
H3642 C3672 0.950 . S
H3643 C3673 0.950 . S
C3644 H3626 0.951 . S
C3644 C3645 1.366 . S
C3644 C3646 1.388 . S
C3645 C3644 1.366 . S
C3645 C3649 1.385 . S
C3646 H3627 0.951 . S
C3646 C3644 1.388 . S
C3646 C3647 1.366 . S
C3647 C3646 1.366 . S
C3647 C3648 1.414 . S
C3647 C3650 1.499 . S
C3648 H3628 0.950 . S
C3648 C3647 1.414 . S
C3648 C3649 1.374 . S
C3649 H3629 0.950 . S
C3649 C3645 1.385 . S
C3649 C3648 1.374 . S
C3650 C3647 1.499 . S
C3650 C3651 1.373 1_655 S
C3650 C3652 1.389 . S
C3651 H3630 0.950 . S
C3651 C3650 1.373 1_455 S
C3651 C3667 1.377 . S
C3652 C3650 1.389 . S
C3652 C3653 1.524 . S
C3652 C3666 1.377 . S
C3653 C3652 1.524 . S
C3653 C3654 1.397 . S
C3653 C3658 1.363 . S
C3654 H3631 0.950 . S
C3654 C3653 1.397 . S
C3654 C3655 1.334 . S
C3655 H3632 0.950 . S
C3655 C3654 1.334 . S
C3655 C3656 1.287 . S
C3656 C3655 1.287 . S
C3656 C3657 1.524 . S
C3656 H3675 0.913 . S
C3657 H3633 0.950 . S
C3657 C3656 1.524 . S
C3657 C3658 1.415 . S
C3658 H3634 0.950 . S
C3658 C3653 1.363 . S
C3658 C3657 1.415 . S
C3659 H3635 0.972 1_655 S
C3659 C3660 1.366 . S
C3659 C3661 1.388 . S
C3660 C3659 1.366 . S
C3660 C3664 1.385 . S
C3661 H3636 0.945 1_655 S
C3661 C3659 1.388 . S
C3661 C3662 1.366 . S
C3662 C3661 1.366 . S
C3662 C3663 1.414 . S
C3662 C3665 1.499 . S
C3663 H3637 0.950 . S
C3663 C3662 1.414 . S
C3663 C3664 1.374 . S
C3664 H3638 0.950 . S
C3664 C3660 1.385 . S
C3664 C3663 1.374 . S
C3665 C3662 1.499 . S
C3665 C3666 1.373 . S
C3665 C3667 1.389 1_655 S
C3666 H3639 0.950 . S
C3666 C3652 1.377 . S
C3666 C3665 1.373 . S
C3667 C3651 1.377 . S
C3667 C3665 1.389 1_455 S
C3667 C3668 1.524 . S
C3668 C3667 1.524 . S
C3668 C3669 1.397 . S
C3668 C3673 1.363 . S
C3669 H3640 0.950 . S
C3669 C3668 1.397 . S
C3669 C3670 1.334 . S
C3670 H3641 0.950 . S
C3670 C3669 1.334 . S
C3670 C3671 1.287 . S
C3671 C3670 1.287 . S
C3671 C3672 1.524 . S
C3671 H3674 0.999 . S
C3672 H3642 0.950 . S
C3672 C3671 1.524 . S
C3672 C3673 1.415 . S
C3673 H3643 0.950 . S
C3673 C3668 1.363 . S
C3673 C3672 1.415 . S
H3674 C3671 0.999 . S
H3675 C3656 0.913 . S
H3676 C3694 0.951 . S
H3677 C3696 0.951 . S
H3678 C3698 0.950 . S
H3679 C3699 0.950 . S
H3680 C3701 0.950 . S
H3681 C3704 0.950 . S
H3682 C3705 0.950 . S
H3683 C3707 0.950 . S
H3684 C3708 0.950 . S
H3685 C3709 0.951 . S
H3686 C3711 0.951 . S
H3687 C3713 0.950 . S
H3688 C3714 0.950 . S
H3689 C3716 0.950 . S
H3690 C3719 0.950 . S
H3691 C3720 0.950 . S
H3692 C3722 0.950 . S
H3693 C3723 0.950 . S
C3694 H3676 0.951 . S
C3694 C3695 1.366 . S
C3694 C3696 1.388 . S
C3695 C3694 1.366 . S
C3695 C3699 1.385 . S
C3696 H3677 0.951 . S
C3696 C3694 1.388 . S
C3696 C3697 1.366 . S
C3697 C3696 1.366 . S
C3697 C3698 1.414 . S
C3697 C3700 1.499 . S
C3698 H3678 0.950 . S
C3698 C3697 1.414 . S
C3698 C3699 1.374 . S
C3699 H3679 0.950 . S
C3699 C3695 1.385 . S
C3699 C3698 1.374 . S
C3700 C3697 1.499 . S
C3700 C3701 1.373 . S
C3700 C3702 1.389 . S
C3701 H3680 0.950 . S
C3701 C3700 1.373 . S
C3701 C3717 1.377 . S
C3702 C3700 1.389 . S
C3702 C3703 1.524 . S
C3702 C3716 1.377 . S
C3703 C3702 1.524 . S
C3703 C3704 1.397 . S
C3703 C3708 1.363 . S
C3704 H3681 0.950 . S
C3704 C3703 1.397 . S
C3704 C3705 1.334 . S
C3705 H3682 0.950 . S
C3705 C3704 1.334 . S
C3705 C3706 1.287 . S
C3706 C3705 1.287 . S
C3706 C3707 1.524 . S
C3706 H3725 0.913 . S
C3707 H3683 0.950 . S
C3707 C3706 1.524 . S
C3707 C3708 1.415 . S
C3708 H3684 0.950 . S
C3708 C3703 1.363 . S
C3708 C3707 1.415 . S
C3709 H3685 0.951 . S
C3709 C3710 1.366 . S
C3709 C3711 1.388 . S
C3710 C3709 1.366 . S
C3710 C3714 1.385 . S
C3711 H3686 0.951 . S
C3711 C3709 1.388 . S
C3711 C3712 1.366 . S
C3712 C3711 1.366 . S
C3712 C3713 1.414 . S
C3712 C3715 1.499 . S
C3713 H3687 0.950 . S
C3713 C3712 1.414 . S
C3713 C3714 1.374 . S
C3714 H3688 0.950 . S
C3714 C3710 1.385 . S
C3714 C3713 1.374 . S
C3715 C3712 1.499 . S
C3715 C3716 1.373 . S
C3715 C3717 1.389 . S
C3716 H3689 0.950 . S
C3716 C3702 1.377 . S
C3716 C3715 1.373 . S
C3717 C3701 1.377 . S
C3717 C3715 1.389 . S
C3717 C3718 1.524 . S
C3718 C3717 1.524 . S
C3718 C3719 1.397 . S
C3718 C3723 1.363 . S
C3719 H3690 0.950 . S
C3719 C3718 1.397 . S
C3719 C3720 1.334 . S
C3720 H3691 0.950 . S
C3720 C3719 1.334 . S
C3720 C3721 1.287 . S
C3721 C3720 1.287 . S
C3721 C3722 1.524 . S
C3721 H3724 0.999 . S
C3722 H3692 0.950 . S
C3722 C3721 1.524 . S
C3722 C3723 1.415 . S
C3723 H3693 0.950 . S
C3723 C3718 1.363 . S
C3723 C3722 1.415 . S
H3724 C3721 0.999 . S
H3725 C3706 0.913 . S
H3726 C3744 0.951 . S
H3727 C3746 0.951 . S
H3728 C3748 0.950 . S
H3729 C3749 0.950 . S
H3730 C3751 0.950 . S
H3731 C3754 0.950 . S
H3732 C3755 0.950 . S
H3733 C3757 0.950 . S
H3734 C3758 0.950 . S
H3735 C3759 0.951 . S
H3736 C3761 0.951 . S
H3737 C3763 0.950 . S
H3738 C3764 0.950 . S
H3739 C3766 0.950 . S
H3740 C3769 0.950 . S
H3741 C3770 0.950 . S
H3742 C3772 0.950 . S
H3743 C3773 0.950 . S
C3744 H3726 0.951 . S
C3744 C3745 1.366 . S
C3744 C3746 1.388 . S
C3745 C3744 1.366 . S
C3745 C3749 1.385 . S
C3746 H3727 0.951 . S
C3746 C3744 1.388 . S
C3746 C3747 1.366 . S
C3747 C3746 1.366 . S
C3747 C3748 1.414 . S
C3747 C3750 1.499 . S
C3748 H3728 0.950 . S
C3748 C3747 1.414 . S
C3748 C3749 1.374 . S
C3749 H3729 0.950 . S
C3749 C3745 1.385 . S
C3749 C3748 1.374 . S
C3750 C3747 1.499 . S
C3750 C3751 1.373 . S
C3750 C3752 1.389 . S
C3751 H3730 0.950 . S
C3751 C3750 1.373 . S
C3751 C3767 1.377 . S
C3752 C3750 1.389 . S
C3752 C3753 1.524 . S
C3752 C3766 1.377 . S
C3753 C3752 1.524 . S
C3753 C3754 1.397 . S
C3753 C3758 1.363 . S
C3754 H3731 0.950 . S
C3754 C3753 1.397 . S
C3754 C3755 1.334 . S
C3755 H3732 0.950 . S
C3755 C3754 1.334 . S
C3755 C3756 1.287 . S
C3756 C3755 1.287 . S
C3756 C3757 1.524 . S
C3756 H3775 0.913 . S
C3757 H3733 0.950 . S
C3757 C3756 1.524 . S
C3757 C3758 1.415 . S
C3758 H3734 0.950 . S
C3758 C3753 1.363 . S
C3758 C3757 1.415 . S
C3759 H3735 0.951 . S
C3759 C3760 1.366 . S
C3759 C3761 1.388 . S
C3760 C3759 1.366 . S
C3760 C3764 1.385 . S
C3761 H3736 0.951 . S
C3761 C3759 1.388 . S
C3761 C3762 1.366 . S
C3762 C3761 1.366 . S
C3762 C3763 1.414 . S
C3762 C3765 1.499 . S
C3763 H3737 0.950 . S
C3763 C3762 1.414 . S
C3763 C3764 1.374 . S
C3764 H3738 0.950 . S
C3764 C3760 1.385 . S
C3764 C3763 1.374 . S
C3765 C3762 1.499 . S
C3765 C3766 1.373 . S
C3765 C3767 1.389 . S
C3766 H3739 0.950 . S
C3766 C3752 1.377 . S
C3766 C3765 1.373 . S
C3767 C3751 1.377 . S
C3767 C3765 1.389 . S
C3767 C3768 1.524 . S
C3768 C3767 1.524 . S
C3768 C3769 1.397 . S
C3768 C3773 1.363 . S
C3769 H3740 0.950 . S
C3769 C3768 1.397 . S
C3769 C3770 1.334 . S
C3770 H3741 0.950 . S
C3770 C3769 1.334 . S
C3770 C3771 1.287 . S
C3771 C3770 1.287 . S
C3771 C3772 1.524 . S
C3771 H3774 0.999 . S
C3772 H3742 0.950 . S
C3772 C3771 1.524 . S
C3772 C3773 1.415 . S
C3773 H3743 0.950 . S
C3773 C3768 1.363 . S
C3773 C3772 1.415 . S
H3774 C3771 0.999 . S
H3775 C3756 0.913 . S
H3776 C3794 0.951 . S
H3777 C3796 0.951 . S
H3778 C3798 0.950 . S
H3779 C3799 0.950 . S
H3780 C3801 0.950 . S
H3781 C3804 0.950 . S
H3782 C3805 0.950 . S
H3783 C3807 0.950 . S
H3784 C3808 0.950 . S
H3785 C3809 0.951 . S
H3786 C3811 0.951 . S
H3787 C3813 0.950 . S
H3788 C3814 0.950 . S
H3789 C3816 0.950 . S
H3790 C3819 0.950 . S
H3791 C3820 0.950 . S
H3792 C3822 0.950 . S
H3793 C3823 0.950 . S
C3794 H3776 0.951 . S
C3794 C3795 1.366 . S
C3794 C3796 1.388 . S
C3795 C3794 1.366 . S
C3795 C3799 1.385 . S
C3796 H3777 0.951 . S
C3796 C3794 1.388 . S
C3796 C3797 1.366 . S
C3797 C3796 1.366 . S
C3797 C3798 1.414 . S
C3797 C3800 1.499 . S
C3798 H3778 0.950 . S
C3798 C3797 1.414 . S
C3798 C3799 1.374 . S
C3799 H3779 0.950 . S
C3799 C3795 1.385 . S
C3799 C3798 1.374 . S
C3800 C3797 1.499 . S
C3800 C3801 1.373 . S
C3800 C3802 1.389 . S
C3801 H3780 0.950 . S
C3801 C3800 1.373 . S
C3801 C3817 1.377 . S
C3802 C3800 1.389 . S
C3802 C3803 1.524 . S
C3802 C3816 1.377 . S
C3803 C3802 1.524 . S
C3803 C3804 1.397 . S
C3803 C3808 1.363 . S
C3804 H3781 0.950 . S
C3804 C3803 1.397 . S
C3804 C3805 1.334 . S
C3805 H3782 0.950 . S
C3805 C3804 1.334 . S
C3805 C3806 1.287 . S
C3806 C3805 1.287 . S
C3806 C3807 1.524 . S
C3806 H3825 0.913 . S
C3807 H3783 0.950 . S
C3807 C3806 1.524 . S
C3807 C3808 1.415 . S
C3808 H3784 0.950 . S
C3808 C3803 1.363 . S
C3808 C3807 1.415 . S
C3809 H3785 0.951 . S
C3809 C3810 1.366 . S
C3809 C3811 1.388 . S
C3810 C3809 1.366 . S
C3810 C3814 1.385 . S
C3811 H3786 0.951 . S
C3811 C3809 1.388 . S
C3811 C3812 1.366 . S
C3812 C3811 1.366 . S
C3812 C3813 1.414 . S
C3812 C3815 1.499 . S
C3813 H3787 0.950 . S
C3813 C3812 1.414 . S
C3813 C3814 1.374 . S
C3814 H3788 0.950 . S
C3814 C3810 1.385 . S
C3814 C3813 1.374 . S
C3815 C3812 1.499 . S
C3815 C3816 1.373 . S
C3815 C3817 1.389 . S
C3816 H3789 0.950 . S
C3816 C3802 1.377 . S
C3816 C3815 1.373 . S
C3817 C3801 1.377 . S
C3817 C3815 1.389 . S
C3817 C3818 1.524 . S
C3818 C3817 1.524 . S
C3818 C3819 1.397 . S
C3818 C3823 1.363 . S
C3819 H3790 0.950 . S
C3819 C3818 1.397 . S
C3819 C3820 1.334 . S
C3820 H3791 0.950 . S
C3820 C3819 1.334 . S
C3820 C3821 1.287 . S
C3821 C3820 1.287 . S
C3821 C3822 1.524 . S
C3821 H3824 0.999 . S
C3822 H3792 0.950 . S
C3822 C3821 1.524 . S
C3822 C3823 1.415 . S
C3823 H3793 0.950 . S
C3823 C3818 1.363 . S
C3823 C3822 1.415 . S
H3824 C3821 0.999 . S
H3825 C3806 0.913 . S
H3826 C3844 0.951 . S
H3827 C3846 0.951 . S
H3828 C3848 0.950 . S
H3829 C3849 0.950 . S
H3830 C3851 0.950 . S
H3831 C3854 0.950 . S
H3832 C3855 0.950 . S
H3833 C3857 0.950 . S
H3834 C3858 0.950 . S
H3835 C3859 0.951 . S
H3836 C3861 0.951 . S
H3837 C3863 0.950 . S
H3838 C3864 0.950 . S
H3839 C3866 0.950 . S
H3840 C3869 0.950 . S
H3841 C3870 0.950 . S
H3842 C3872 0.950 . S
H3843 C3873 0.950 . S
C3844 H3826 0.951 . S
C3844 C3845 1.366 . S
C3844 C3846 1.388 . S
C3845 C3844 1.366 . S
C3845 C3849 1.385 . S
C3846 H3827 0.951 . S
C3846 C3844 1.388 . S
C3846 C3847 1.366 . S
C3847 C3846 1.366 . S
C3847 C3848 1.414 . S
C3847 C3850 1.499 . S
C3848 H3828 0.950 . S
C3848 C3847 1.414 . S
C3848 C3849 1.374 . S
C3849 H3829 0.950 . S
C3849 C3845 1.385 . S
C3849 C3848 1.374 . S
C3850 C3847 1.499 . S
C3850 C3851 1.373 . S
C3850 C3852 1.389 . S
C3851 H3830 0.950 . S
C3851 C3850 1.373 . S
C3851 C3867 1.377 . S
C3852 C3850 1.389 . S
C3852 C3853 1.524 . S
C3852 C3866 1.377 . S
C3853 C3852 1.524 . S
C3853 C3854 1.397 . S
C3853 C3858 1.363 . S
C3854 H3831 0.950 . S
C3854 C3853 1.397 . S
C3854 C3855 1.334 . S
C3855 H3832 0.950 . S
C3855 C3854 1.334 . S
C3855 C3856 1.287 . S
C3856 C3855 1.287 . S
C3856 C3857 1.524 . S
C3856 H3875 0.913 . S
C3857 H3833 0.950 . S
C3857 C3856 1.524 . S
C3857 C3858 1.415 . S
C3858 H3834 0.950 . S
C3858 C3853 1.363 . S
C3858 C3857 1.415 . S
C3859 H3835 0.951 . S
C3859 C3860 1.366 . S
C3859 C3861 1.388 . S
C3860 C3859 1.366 . S
C3860 C3864 1.385 . S
C3861 H3836 0.951 . S
C3861 C3859 1.388 . S
C3861 C3862 1.366 . S
C3862 C3861 1.366 . S
C3862 C3863 1.414 . S
C3862 C3865 1.499 . S
C3863 H3837 0.950 . S
C3863 C3862 1.414 . S
C3863 C3864 1.374 . S
C3864 H3838 0.950 . S
C3864 C3860 1.385 . S
C3864 C3863 1.374 . S
C3865 C3862 1.499 . S
C3865 C3866 1.373 . S
C3865 C3867 1.389 . S
C3866 H3839 0.950 . S
C3866 C3852 1.377 . S
C3866 C3865 1.373 . S
C3867 C3851 1.377 . S
C3867 C3865 1.389 . S
C3867 C3868 1.524 . S
C3868 C3867 1.524 . S
C3868 C3869 1.397 . S
C3868 C3873 1.363 . S
C3869 H3840 0.950 . S
C3869 C3868 1.397 . S
C3869 C3870 1.334 . S
C3870 H3841 0.950 . S
C3870 C3869 1.334 . S
C3870 C3871 1.287 . S
C3871 C3870 1.287 . S
C3871 C3872 1.524 . S
C3871 H3874 0.999 . S
C3872 H3842 0.950 . S
C3872 C3871 1.524 . S
C3872 C3873 1.415 . S
C3873 H3843 0.950 . S
C3873 C3868 1.363 . S
C3873 C3872 1.415 . S
H3874 C3871 0.999 . S
H3875 C3856 0.913 . S
H3876 C3894 0.951 . S
H3877 C3896 0.951 . S
H3878 C3898 0.950 . S
H3879 C3899 0.950 . S
H3880 C3901 0.950 . S
H3881 C3904 0.950 . S
H3882 C3905 0.950 . S
H3883 C3907 0.950 . S
H3884 C3908 0.950 . S
H3885 C3909 0.951 . S
H3886 C3911 0.951 . S
H3887 C3913 0.950 . S
H3888 C3914 0.950 . S
H3889 C3916 0.950 . S
H3890 C3919 0.950 . S
H3891 C3920 0.950 . S
H3892 C3922 0.950 . S
H3893 C3923 0.950 . S
C3894 H3876 0.951 . S
C3894 C3895 1.366 . S
C3894 C3896 1.388 . S
C3895 C3894 1.366 . S
C3895 C3899 1.385 . S
C3896 H3877 0.951 . S
C3896 C3894 1.388 . S
C3896 C3897 1.366 . S
C3897 C3896 1.366 . S
C3897 C3898 1.414 . S
C3897 C3900 1.499 . S
C3898 H3878 0.950 . S
C3898 C3897 1.414 . S
C3898 C3899 1.374 . S
C3899 H3879 0.950 . S
C3899 C3895 1.385 . S
C3899 C3898 1.374 . S
C3900 C3897 1.499 . S
C3900 C3901 1.373 . S
C3900 C3902 1.389 . S
C3901 H3880 0.950 . S
C3901 C3900 1.373 . S
C3901 C3917 1.377 . S
C3902 C3900 1.389 . S
C3902 C3903 1.524 . S
C3902 C3916 1.377 . S
C3903 C3902 1.524 . S
C3903 C3904 1.397 . S
C3903 C3908 1.363 . S
C3904 H3881 0.950 . S
C3904 C3903 1.397 . S
C3904 C3905 1.334 . S
C3905 H3882 0.950 . S
C3905 C3904 1.334 . S
C3905 C3906 1.287 . S
C3906 C3905 1.287 . S
C3906 C3907 1.524 . S
C3906 H3925 0.913 . S
C3907 H3883 0.950 . S
C3907 C3906 1.524 . S
C3907 C3908 1.415 . S
C3908 H3884 0.950 . S
C3908 C3903 1.363 . S
C3908 C3907 1.415 . S
C3909 H3885 0.951 . S
C3909 C3910 1.366 . S
C3909 C3911 1.388 . S
C3910 C3909 1.366 . S
C3910 C3914 1.385 . S
C3911 H3886 0.951 . S
C3911 C3909 1.388 . S
C3911 C3912 1.366 . S
C3912 C3911 1.366 . S
C3912 C3913 1.414 . S
C3912 C3915 1.499 . S
C3913 H3887 0.950 . S
C3913 C3912 1.414 . S
C3913 C3914 1.374 . S
C3914 H3888 0.950 . S
C3914 C3910 1.385 . S
C3914 C3913 1.374 . S
C3915 C3912 1.499 . S
C3915 C3916 1.373 . S
C3915 C3917 1.389 . S
C3916 H3889 0.950 . S
C3916 C3902 1.377 . S
C3916 C3915 1.373 . S
C3917 C3901 1.377 . S
C3917 C3915 1.389 . S
C3917 C3918 1.524 . S
C3918 C3917 1.524 . S
C3918 C3919 1.397 . S
C3918 C3923 1.363 . S
C3919 H3890 0.950 . S
C3919 C3918 1.397 . S
C3919 C3920 1.334 . S
C3920 H3891 0.950 . S
C3920 C3919 1.334 . S
C3920 C3921 1.287 . S
C3921 C3920 1.287 . S
C3921 C3922 1.524 . S
C3921 H3924 0.999 . S
C3922 H3892 0.950 . S
C3922 C3921 1.524 . S
C3922 C3923 1.415 . S
C3923 H3893 0.950 . S
C3923 C3918 1.363 . S
C3923 C3922 1.415 . S
H3924 C3921 0.999 . S
H3925 C3906 0.913 . S
H3926 C3944 0.951 . S
H3927 C3946 0.951 . S
H3928 C3948 0.950 . S
H3929 C3949 0.950 . S
H3930 C3951 0.950 . S
H3931 C3954 0.950 . S
H3932 C3955 0.950 . S
H3933 C3957 0.950 . S
H3934 C3958 0.950 . S
H3935 C3959 0.951 . S
H3936 C3961 0.951 . S
H3937 C3963 0.950 . S
H3938 C3964 0.950 . S
H3939 C3966 0.950 . S
H3940 C3969 0.950 . S
H3941 C3970 0.950 . S
H3942 C3972 0.950 . S
H3943 C3973 0.950 . S
C3944 H3926 0.951 . S
C3944 C3945 1.366 . S
C3944 C3946 1.388 . S
C3945 C3944 1.366 . S
C3945 C3949 1.385 . S
C3946 H3927 0.951 . S
C3946 C3944 1.388 . S
C3946 C3947 1.366 . S
C3947 C3946 1.366 . S
C3947 C3948 1.414 . S
C3947 C3950 1.499 . S
C3948 H3928 0.950 . S
C3948 C3947 1.414 . S
C3948 C3949 1.374 . S
C3949 H3929 0.950 . S
C3949 C3945 1.385 . S
C3949 C3948 1.374 . S
C3950 C3947 1.499 . S
C3950 C3951 1.373 . S
C3950 C3952 1.389 . S
C3951 H3930 0.950 . S
C3951 C3950 1.373 . S
C3951 C3967 1.377 . S
C3952 C3950 1.389 . S
C3952 C3953 1.524 . S
C3952 C3966 1.377 . S
C3953 C3952 1.524 . S
C3953 C3954 1.397 . S
C3953 C3958 1.363 . S
C3954 H3931 0.950 . S
C3954 C3953 1.397 . S
C3954 C3955 1.334 . S
C3955 H3932 0.950 . S
C3955 C3954 1.334 . S
C3955 C3956 1.287 . S
C3956 C3955 1.287 . S
C3956 C3957 1.524 . S
C3956 H3975 0.913 . S
C3957 H3933 0.950 . S
C3957 C3956 1.524 . S
C3957 C3958 1.415 . S
C3958 H3934 0.950 . S
C3958 C3953 1.363 . S
C3958 C3957 1.415 . S
C3959 H3935 0.951 . S
C3959 C3960 1.366 . S
C3959 C3961 1.388 . S
C3960 C3959 1.366 . S
C3960 C3964 1.385 . S
C3961 H3936 0.951 . S
C3961 C3959 1.388 . S
C3961 C3962 1.366 . S
C3962 C3961 1.366 . S
C3962 C3963 1.414 . S
C3962 C3965 1.499 . S
C3963 H3937 0.950 . S
C3963 C3962 1.414 . S
C3963 C3964 1.374 . S
C3964 H3938 0.950 . S
C3964 C3960 1.385 . S
C3964 C3963 1.374 . S
C3965 C3962 1.499 . S
C3965 C3966 1.373 . S
C3965 C3967 1.389 . S
C3966 H3939 0.950 . S
C3966 C3952 1.377 . S
C3966 C3965 1.373 . S
C3967 C3951 1.377 . S
C3967 C3965 1.389 . S
C3967 C3968 1.524 . S
C3968 C3967 1.524 . S
C3968 C3969 1.397 . S
C3968 C3973 1.363 . S
C3969 H3940 0.950 . S
C3969 C3968 1.397 . S
C3969 C3970 1.334 . S
C3970 H3941 0.950 . S
C3970 C3969 1.334 . S
C3970 C3971 1.287 . S
C3971 C3970 1.287 . S
C3971 C3972 1.524 . S
C3971 H3974 0.999 . S
C3972 H3942 0.950 . S
C3972 C3971 1.524 . S
C3972 C3973 1.415 . S
C3973 H3943 0.950 . S
C3973 C3968 1.363 . S
C3973 C3972 1.415 . S
H3974 C3971 0.999 . S
H3975 C3956 0.913 . S
H3976 C3994 0.951 . S
H3977 C3996 0.951 . S
H3978 C3998 0.950 . S
H3979 C3999 0.950 . S
H3980 C4001 0.950 . S
H3981 C4004 0.950 . S
H3982 C4005 0.950 . S
H3983 C4007 0.950 . S
H3984 C4008 0.950 . S
H3985 C4009 0.951 . S
H3986 C4011 0.951 . S
H3987 C4013 0.950 . S
H3988 C4014 0.950 . S
H3989 C4016 0.950 . S
H3990 C4019 0.950 . S
H3991 C4020 0.950 . S
H3992 C4022 0.950 . S
H3993 C4023 0.950 . S
C3994 H3976 0.951 . S
C3994 C3995 1.366 . S
C3994 C3996 1.388 . S
C3995 C3994 1.366 . S
C3995 C3999 1.385 . S
C3996 H3977 0.951 . S
C3996 C3994 1.388 . S
C3996 C3997 1.366 . S
C3997 C3996 1.366 . S
C3997 C3998 1.414 . S
C3997 C4000 1.499 . S
C3998 H3978 0.950 . S
C3998 C3997 1.414 . S
C3998 C3999 1.374 . S
C3999 H3979 0.950 . S
C3999 C3995 1.385 . S
C3999 C3998 1.374 . S
C4000 C3997 1.499 . S
C4000 C4001 1.373 . S
C4000 C4002 1.389 . S
C4001 H3980 0.950 . S
C4001 C4000 1.373 . S
C4001 C4017 1.377 . S
C4002 C4000 1.389 . S
C4002 C4003 1.524 . S
C4002 C4016 1.377 . S
C4003 C4002 1.524 . S
C4003 C4004 1.397 . S
C4003 C4008 1.363 . S
C4004 H3981 0.950 . S
C4004 C4003 1.397 . S
C4004 C4005 1.334 . S
C4005 H3982 0.950 . S
C4005 C4004 1.334 . S
C4005 C4006 1.287 . S
C4006 C4005 1.287 . S
C4006 C4007 1.524 . S
C4006 H4025 0.913 . S
C4007 H3983 0.950 . S
C4007 C4006 1.524 . S
C4007 C4008 1.415 . S
C4008 H3984 0.950 . S
C4008 C4003 1.363 . S
C4008 C4007 1.415 . S
C4009 H3985 0.951 . S
C4009 C4010 1.366 . S
C4009 C4011 1.388 . S
C4010 C4009 1.366 . S
C4010 C4014 1.385 . S
C4011 H3986 0.951 . S
C4011 C4009 1.388 . S
C4011 C4012 1.366 . S
C4012 C4011 1.366 . S
C4012 C4013 1.414 . S
C4012 C4015 1.499 . S
C4013 H3987 0.950 . S
C4013 C4012 1.414 . S
C4013 C4014 1.374 . S
C4014 H3988 0.950 . S
C4014 C4010 1.385 . S
C4014 C4013 1.374 . S
C4015 C4012 1.499 . S
C4015 C4016 1.373 . S
C4015 C4017 1.389 . S
C4016 H3989 0.950 . S
C4016 C4002 1.377 . S
C4016 C4015 1.373 . S
C4017 C4001 1.377 . S
C4017 C4015 1.389 . S
C4017 C4018 1.524 . S
C4018 C4017 1.524 . S
C4018 C4019 1.397 . S
C4018 C4023 1.363 . S
C4019 H3990 0.950 . S
C4019 C4018 1.397 . S
C4019 C4020 1.334 . S
C4020 H3991 0.950 . S
C4020 C4019 1.334 . S
C4020 C4021 1.287 . S
C4021 C4020 1.287 . S
C4021 C4022 1.524 . S
C4021 H4024 0.999 . S
C4022 H3992 0.950 . S
C4022 C4021 1.524 . S
C4022 C4023 1.415 . S
C4023 H3993 0.950 . S
C4023 C4018 1.363 . S
C4023 C4022 1.415 . S
H4024 C4021 0.999 . S
H4025 C4006 0.913 . S
H4026 C4044 0.969 . S
H4027 C4046 0.947 1_455 S
H4028 C4048 0.950 . S
H4029 C4049 0.950 . S
H4030 C4051 0.950 . S
H4031 C4054 0.950 . S
H4032 C4055 0.950 . S
H4033 C4057 0.950 . S
H4034 C4058 0.950 . S
H4035 C4059 0.951 . S
H4036 C4061 0.951 . S
H4037 C4063 0.950 . S
H4038 C4064 0.950 . S
H4039 C4066 0.950 . S
H4040 C4069 0.950 . S
H4041 C4070 0.950 . S
H4042 C4072 0.950 . S
H4043 C4073 0.950 . S
C4044 H4026 0.969 . S
C4044 C4045 1.366 . S
C4044 C4046 1.388 . S
C4045 C4044 1.366 . S
C4045 C4049 1.385 . S
C4046 H4027 0.947 1_655 S
C4046 C4044 1.388 . S
C4046 C4047 1.366 . S
C4047 C4046 1.366 . S
C4047 C4048 1.414 . S
C4047 C4050 1.499 . S
C4048 H4028 0.950 . S
C4048 C4047 1.414 . S
C4048 C4049 1.374 . S
C4049 H4029 0.950 . S
C4049 C4045 1.385 . S
C4049 C4048 1.374 . S
C4050 C4047 1.499 . S
C4050 C4051 1.373 1_655 S
C4050 C4052 1.389 . S
C4051 H4030 0.950 . S
C4051 C4050 1.373 1_455 S
C4051 C4067 1.377 . S
C4052 C4050 1.389 . S
C4052 C4053 1.524 . S
C4052 C4066 1.377 . S
C4053 C4052 1.524 . S
C4053 C4054 1.397 . S
C4053 C4058 1.363 . S
C4054 H4031 0.950 . S
C4054 C4053 1.397 . S
C4054 C4055 1.334 . S
C4055 H4032 0.950 . S
C4055 C4054 1.334 . S
C4055 C4056 1.287 . S
C4056 C4055 1.287 . S
C4056 C4057 1.524 . S
C4056 H4075 0.913 . S
C4057 H4033 0.950 . S
C4057 C4056 1.524 . S
C4057 C4058 1.415 . S
C4058 H4034 0.950 . S
C4058 C4053 1.363 . S
C4058 C4057 1.415 . S
C4059 H4035 0.951 . S
C4059 C4060 1.372 . S
C4059 C4061 1.388 . S
C4060 C4059 1.372 . S
C4060 C4064 1.383 1_655 S
C4061 H4036 0.951 . S
C4061 C4059 1.388 . S
C4061 C4062 1.366 . S
C4062 C4061 1.366 . S
C4062 C4063 1.414 1_655 S
C4062 C4065 1.499 . S
C4063 H4037 0.950 . S
C4063 C4062 1.414 1_455 S
C4063 C4064 1.374 . S
C4064 H4038 0.950 . S
C4064 C4060 1.383 1_455 S
C4064 C4063 1.374 . S
C4065 C4062 1.499 . S
C4065 C4066 1.373 . S
C4065 C4067 1.389 1_655 S
C4066 H4039 0.950 . S
C4066 C4052 1.377 . S
C4066 C4065 1.373 . S
C4067 C4051 1.377 . S
C4067 C4065 1.389 1_455 S
C4067 C4068 1.524 . S
C4068 C4067 1.524 . S
C4068 C4069 1.397 . S
C4068 C4073 1.363 . S
C4069 H4040 0.950 . S
C4069 C4068 1.397 . S
C4069 C4070 1.334 . S
C4070 H4041 0.950 . S
C4070 C4069 1.334 . S
C4070 C4071 1.287 . S
C4071 C4070 1.287 . S
C4071 C4072 1.524 . S
C4071 H4074 0.999 . S
C4072 H4042 0.950 . S
C4072 C4071 1.524 . S
C4072 C4073 1.415 . S
C4073 H4043 0.950 . S
C4073 C4068 1.363 . S
C4073 C4072 1.415 . S
H4074 C4071 0.999 . S
H4075 C4056 0.913 . S
H4076 C4094 0.951 . S
H4077 C4096 0.951 . S
H4078 C4098 0.950 . S
H4079 C4099 0.950 . S
H4080 C4101 0.950 . S
H4081 C4104 0.950 . S
H4082 C4105 0.950 . S
H4083 C4107 0.950 . S
H4084 C4108 0.950 . S
H4085 C4109 0.951 . S
H4086 C4111 0.951 . S
H4087 C4113 0.950 . S
H4088 C4114 0.950 . S
H4089 C4116 0.950 . S
H4090 C4119 0.950 . S
H4091 C4120 0.950 . S
H4092 C4122 0.950 . S
H4093 C4123 0.950 . S
C4094 H4076 0.951 . S
C4094 C4095 1.366 . S
C4094 C4096 1.388 . S
C4095 C4094 1.366 . S
C4095 C4099 1.385 . S
C4096 H4077 0.951 . S
C4096 C4094 1.388 . S
C4096 C4097 1.366 . S
C4097 C4096 1.366 . S
C4097 C4098 1.414 . S
C4097 C4100 1.499 . S
C4098 H4078 0.950 . S
C4098 C4097 1.414 . S
C4098 C4099 1.374 . S
C4099 H4079 0.950 . S
C4099 C4095 1.385 . S
C4099 C4098 1.374 . S
C4100 C4097 1.499 . S
C4100 C4101 1.373 . S
C4100 C4102 1.389 . S
C4101 H4080 0.950 . S
C4101 C4100 1.373 . S
C4101 C4117 1.377 . S
C4102 C4100 1.389 . S
C4102 C4103 1.524 . S
C4102 C4116 1.377 . S
C4103 C4102 1.524 . S
C4103 C4104 1.397 . S
C4103 C4108 1.363 . S
C4104 H4081 0.950 . S
C4104 C4103 1.397 . S
C4104 C4105 1.334 . S
C4105 H4082 0.950 . S
C4105 C4104 1.334 . S
C4105 C4106 1.287 . S
C4106 C4105 1.287 . S
C4106 C4107 1.524 . S
C4106 H4125 0.913 . S
C4107 H4083 0.950 . S
C4107 C4106 1.524 . S
C4107 C4108 1.415 . S
C4108 H4084 0.950 . S
C4108 C4103 1.363 . S
C4108 C4107 1.415 . S
C4109 H4085 0.951 . S
C4109 C4110 1.366 . S
C4109 C4111 1.388 . S
C4110 C4109 1.366 . S
C4110 C4114 1.385 . S
C4111 H4086 0.951 . S
C4111 C4109 1.388 . S
C4111 C4112 1.366 . S
C4112 C4111 1.366 . S
C4112 C4113 1.414 . S
C4112 C4115 1.499 . S
C4113 H4087 0.950 . S
C4113 C4112 1.414 . S
C4113 C4114 1.374 . S
C4114 H4088 0.950 . S
C4114 C4110 1.385 . S
C4114 C4113 1.374 . S
C4115 C4112 1.499 . S
C4115 C4116 1.373 . S
C4115 C4117 1.389 . S
C4116 H4089 0.950 . S
C4116 C4102 1.377 . S
C4116 C4115 1.373 . S
C4117 C4101 1.377 . S
C4117 C4115 1.389 . S
C4117 C4118 1.524 . S
C4118 C4117 1.524 . S
C4118 C4119 1.397 . S
C4118 C4123 1.363 . S
C4119 H4090 0.950 . S
C4119 C4118 1.397 . S
C4119 C4120 1.334 . S
C4120 H4091 0.950 . S
C4120 C4119 1.334 . S
C4120 C4121 1.287 . S
C4121 C4120 1.287 . S
C4121 C4122 1.524 . S
C4121 H4124 0.999 . S
C4122 H4092 0.950 . S
C4122 C4121 1.524 . S
C4122 C4123 1.415 . S
C4123 H4093 0.950 . S
C4123 C4118 1.363 . S
C4123 C4122 1.415 . S
H4124 C4121 0.999 . S
H4125 C4106 0.913 . S
H4126 C4144 0.951 . S
H4127 C4146 0.951 . S
H4128 C4148 0.950 . S
H4129 C4149 0.950 . S
H4130 C4151 0.950 . S
H4131 C4154 0.950 . S
H4132 C4155 0.950 . S
H4133 C4157 0.950 . S
H4134 C4158 0.950 . S
H4135 C4159 0.981 1_565 S
H4136 C4161 0.951 . S
H4137 C4163 0.950 . S
H4138 C4164 0.950 . S
H4139 C4166 0.950 . S
H4140 C4169 0.950 . S
H4141 C4170 0.950 . S
H4142 C4172 0.950 . S
H4143 C4173 0.950 . S
C4144 H4126 0.951 . S
C4144 C4145 1.366 . S
C4144 C4146 1.388 . S
C4145 C4144 1.366 . S
C4145 C4149 1.385 . S
C4146 H4127 0.951 . S
C4146 C4144 1.388 . S
C4146 C4147 1.366 . S
C4147 C4146 1.366 . S
C4147 C4148 1.414 . S
C4147 C4150 1.499 . S
C4148 H4128 0.950 . S
C4148 C4147 1.414 . S
C4148 C4149 1.374 . S
C4149 H4129 0.950 . S
C4149 C4145 1.385 . S
C4149 C4148 1.374 . S
C4150 C4147 1.499 . S
C4150 C4151 1.373 . S
C4150 C4152 1.389 1_545 S
C4151 H4130 0.950 . S
C4151 C4150 1.373 . S
C4151 C4167 1.377 . S
C4152 C4150 1.389 1_565 S
C4152 C4153 1.524 . S
C4152 C4166 1.377 . S
C4153 C4152 1.524 . S
C4153 C4154 1.397 . S
C4153 C4158 1.363 . S
C4154 H4131 0.950 . S
C4154 C4153 1.397 . S
C4154 C4155 1.334 . S
C4155 H4132 0.950 . S
C4155 C4154 1.334 . S
C4155 C4156 1.287 . S
C4156 C4155 1.287 . S
C4156 C4157 1.524 . S
C4156 H4175 0.913 . S
C4157 H4133 0.950 . S
C4157 C4156 1.524 . S
C4157 C4158 1.415 . S
C4158 H4134 0.950 . S
C4158 C4153 1.363 . S
C4158 C4157 1.415 . S
C4159 H4135 0.981 1_545 S
C4159 C4160 1.368 . S
C4159 C4161 1.372 . S
C4160 C4159 1.368 . S
C4160 C4164 1.384 . S
C4161 H4136 0.951 . S
C4161 C4159 1.372 . S
C4161 C4162 1.366 . S
C4162 C4161 1.366 . S
C4162 C4163 1.414 . S
C4162 C4165 1.499 . S
C4163 H4137 0.950 . S
C4163 C4162 1.414 . S
C4163 C4164 1.374 . S
C4164 H4138 0.950 . S
C4164 C4160 1.384 . S
C4164 C4163 1.374 . S
C4165 C4162 1.499 . S
C4165 C4166 1.373 1_545 S
C4165 C4167 1.389 . S
C4166 H4139 0.950 . S
C4166 C4152 1.377 . S
C4166 C4165 1.373 1_565 S
C4167 C4151 1.377 . S
C4167 C4165 1.389 . S
C4167 C4168 1.524 . S
C4168 C4167 1.524 . S
C4168 C4169 1.397 . S
C4168 C4173 1.363 . S
C4169 H4140 0.950 . S
C4169 C4168 1.397 . S
C4169 C4170 1.334 . S
C4170 H4141 0.950 . S
C4170 C4169 1.334 . S
C4170 C4171 1.287 . S
C4171 C4170 1.287 . S
C4171 C4172 1.524 . S
C4171 H4174 0.999 . S
C4172 H4142 0.950 . S
C4172 C4171 1.524 . S
C4172 C4173 1.415 . S
C4173 H4143 0.950 . S
C4173 C4168 1.363 . S
C4173 C4172 1.415 . S
H4174 C4171 0.999 . S
H4175 C4156 0.913 . S
C595 C9 1.518 1_655 S
C610 C421 1.512 . S
C645 C19 1.565 . S
C660 C446 1.542 . S
C710 C457 1.547 . S
C695 C33 1.575 . S
C745 C37 1.572 . S
C760 C482 1.528 . S
C795 C5 1.528 . S
C810 C500 1.513 . S
C845 C23 1.590 . S
C860 C511 1.553 . S
C895 C47 1.541 . S
C910 C493 1.520 . S
C960 C518 1.556 . S
C945 C65 1.579 . S
C1010 C475 1.517 . S
C995 C75 1.518 . S
C1045 C79 1.511 . S
C1060 C464 1.455 . S
C1110 C428 1.548 . S
C1095 C51 1.569 1_655 S
C1145 C61 1.558 . S
C1160 C439 1.538 . S
C1195 C93 1.657 . S
C1210 C529 1.616 . S
C1245 C103 1.608 . S
C1260 C554 1.586 . S
C1310 C565 1.604 . S
C1295 C117 1.640 . S
C1345 C121 1.610 . S
C1360 C266 1.583 . S
C1395 C89 1.614 . S
C1410 C284 1.588 . S
C1445 C107 1.619 . S
C1460 C295 1.581 . S
C1495 C131 1.572 . S
C1510 C277 1.550 . S
C1545 C149 1.600 . S
C1560 C302 1.578 . S
C1610 C259 1.556 . S
C1595 C159 1.577 . S
C1660 C572 1.568 . S
C1645 C163 1.591 . S
C1710 C536 1.591 . S
C1695 C135 1.618 . S
C1760 C547 1.579 . S
C1745 C145 1.598 . S
C1795 C177 1.609 . S
C1810 C313 1.570 . S
C1845 C187 1.586 . S
C1860 C338 1.562 . S
C1895 C201 1.643 . S
C1910 C349 1.607 . S
C1945 C205 1.661 . S
C1960 C374 1.632 . S
C2010 C392 1.586 . S
C1995 C173 1.611 . S
C2060 C403 1.603 . S
C2045 C191 1.643 . S
C2110 C385 1.604 . S
C2095 C215 1.626 . S
C2160 C410 1.603 . S
C2145 C233 1.628 . S
C2195 C243 1.571 . S
C2210 C367 1.549 . S
C2260 C356 1.513 . S
C2245 C247 1.535 . S
C2295 C219 1.623 . S
C2310 C320 1.597 . S
C2360 C331 1.567 . S
C2345 C229 1.587 . S
C2410 C268 1.427 . S
C2395 C11 1.492 . S
C2445 C14 1.446 . S
C2460 C286 1.386 . S
C2510 C296 1.472 . S
C2495 C28 1.535 . S
C2560 C314 1.465 . S
C2545 C39 1.532 . S
C2610 C340 1.432 . S
C2595 C0 1.494 . S
C2660 C350 1.351 . S
C2645 C25 1.412 . S
C2695 C42 1.574 . S
C2710 C358 1.489 . S
C2745 C67 1.490 . S
C2760 C322 1.405 . S
C2795 C70 1.474 . S
C2810 C332 1.403 . S
C2845 C81 1.507 . S
C2860 C278 1.440 . S
C2910 C304 1.457 . S
C2895 C53 1.545 . S
C2945 C56 1.503 . S
C2960 C260 1.432 . S
C3010 C376 1.414 . S
C2995 C95 1.479 . S
C3045 C98 1.531 . S
C3060 C394 1.468 . S
C3095 C112 1.594 . S
C3110 C404 1.529 . S
C3160 C422 1.394 . S
C3145 C123 1.443 . S
C3195 C84 1.494 . S
C3210 C448 1.432 . S
C3245 C109 1.396 . S
C3260 C458 1.346 . S
C3295 C126 1.485 . S
C3310 C466 1.422 . S
C3345 C151 1.441 . S
C3360 C430 1.373 . S
C3410 C440 1.426 . S
C3395 C154 1.495 . S
C3445 C165 1.483 . S
C3460 C386 1.409 . S
C3495 C137 1.587 . S
C3510 C412 1.497 . S
C3560 C368 1.515 . S
C3545 C140 1.588 . S
C3610 C484 1.373 . S
C3595 C179 1.426 . S
C3645 C182 1.427 . S
C3660 C502 1.374 . S
C3695 C196 1.537 . S
C3710 C512 1.475 . S
C3760 C530 1.448 . S
C3745 C207 1.516 . S
C3810 C556 1.474 . S
C3795 C168 1.540 . S
C3845 C193 1.508 . S
C3860 C566 1.444 . S
C3895 C210 1.569 . S
C3910 C574 1.481 . S
C3945 C235 1.575 . S
C3960 C538 1.488 . S
C4010 C548 1.469 . S
C3995 C238 1.540 . S
C4060 C494 1.318 1_655 S
C4045 C249 1.393 . S
C4110 C520 1.451 . S
C4095 C221 1.537 . S
C4145 C224 1.461 . S
C4160 C476 1.432 1_545 S
