# Generated by pormake.
# Topology csq, (4,8)-cn, num edge types: 1
# Building blocks:
#     Node 0, Type 0, BuildingBlock: MUDLON_clean_linker_0, # of connection points: 4
#     Node 1, Type 0, BuildingBlock: MUDLON_clean_linker_0, # of connection points: 4
#     Node 2, Type 0, BuildingBlock: MUDLON_clean_linker_0, # of connection points: 4
#     Node 3, Type 0, BuildingBlock: MUDLON_clean_linker_0, # of connection points: 4
#     Node 4, Type 0, BuildingBlock: MUDLON_clean_linker_0, # of connection points: 4
#     Node 5, Type 0, BuildingBlock: MUDLON_clean_linker_0, # of connection points: 4
#     Node 6, Type 1, BuildingBlock: TAGTUT_clean_sbu_3, # of connection points: 8
#     Node 7, Type 1, BuildingBlock: TAGTUT_clean_sbu_3, # of connection points: 8
#     Node 8, Type 1, BuildingBlock: TAGTUT_clean_sbu_3, # of connection points: 8
#     Edge 9, Type (0, 1), BuildingBlock: UVAHIK_clean_linker_0, # of connection points: 2
#     Edge 10, Type (0, 1), BuildingBlock: UVAHIK_clean_linker_0, # of connection points: 2
#     Edge 11, Type (0, 1), BuildingBlock: UVAHIK_clean_linker_0, # of connection points: 2
#     Edge 12, Type (0, 1), BuildingBlock: UVAHIK_clean_linker_0, # of connection points: 2
#     Edge 13, Type (0, 1), BuildingBlock: UVAHIK_clean_linker_0, # of connection points: 2
#     Edge 14, Type (0, 1), BuildingBlock: UVAHIK_clean_linker_0, # of connection points: 2
#     Edge 15, Type (0, 1), BuildingBlock: UVAHIK_clean_linker_0, # of connection points: 2
#     Edge 16, Type (0, 1), BuildingBlock: UVAHIK_clean_linker_0, # of connection points: 2
#     Edge 17, Type (0, 1), BuildingBlock: UVAHIK_clean_linker_0, # of connection points: 2
#     Edge 18, Type (0, 1), BuildingBlock: UVAHIK_clean_linker_0, # of connection points: 2
#     Edge 19, Type (0, 1), BuildingBlock: UVAHIK_clean_linker_0, # of connection points: 2
#     Edge 20, Type (0, 1), BuildingBlock: UVAHIK_clean_linker_0, # of connection points: 2
#     Edge 21, Type (0, 1), BuildingBlock: UVAHIK_clean_linker_0, # of connection points: 2
#     Edge 22, Type (0, 1), BuildingBlock: UVAHIK_clean_linker_0, # of connection points: 2
#     Edge 23, Type (0, 1), BuildingBlock: UVAHIK_clean_linker_0, # of connection points: 2
#     Edge 24, Type (0, 1), BuildingBlock: UVAHIK_clean_linker_0, # of connection points: 2
#     Edge 25, Type (0, 1), BuildingBlock: UVAHIK_clean_linker_0, # of connection points: 2
#     Edge 26, Type (0, 1), BuildingBlock: UVAHIK_clean_linker_0, # of connection points: 2
#     Edge 27, Type (0, 1), BuildingBlock: UVAHIK_clean_linker_0, # of connection points: 2
#     Edge 28, Type (0, 1), BuildingBlock: UVAHIK_clean_linker_0, # of connection points: 2
#     Edge 29, Type (0, 1), BuildingBlock: UVAHIK_clean_linker_0, # of connection points: 2
#     Edge 30, Type (0, 1), BuildingBlock: UVAHIK_clean_linker_0, # of connection points: 2
#     Edge 31, Type (0, 1), BuildingBlock: UVAHIK_clean_linker_0, # of connection points: 2
#     Edge 32, Type (0, 1), BuildingBlock: UVAHIK_clean_linker_0, # of connection points: 2
# Relax obj value: 0.038
# Max RMSD: 0.119
# Mean RMSD: 0.079
data_MOF--net-csq--node1-TAGTUT_clean_sbu_3--node2-MUDLON_clean_linker_0--edge1-UVAHIK_clean_linker_0
_symmetry_space_group_name_H-M    P1
_symmetry_Int_Tables_number       1
_symmetry_cell_setting            triclinic
loop_
_symmetry_equiv_pos_as_xyz
'x, y, z'
_cell_length_a     85.246938
_cell_length_b     84.420942
_cell_length_c     27.7815
_cell_angle_alpha  92.370143
_cell_angle_beta   92.36456
_cell_angle_gamma 119.94507
loop_
_atom_site_label
_atom_site_type_symbol
_atom_site_fract_x
_atom_site_fract_y
_atom_site_fract_z
_atom_type_partial_charge
H0 H 0.30403 0.47358 0.13772 0.0
N1 N 0.28112 0.43638 0.12801 0.0
H2 H 0.33195 0.48956 0.19029 0.0
H3 H 0.29 0.42307 0.20252 0.0
H4 H 0.31781 0.43906 0.25599 0.0
H5 H 0.29046 0.41199 0.10045 0.0
H6 H 0.31251 0.41601 0.04171 0.0
H7 H 0.29097 0.46066 0.05739 0.0
H8 H 0.31344 0.46511 0.99929 0.0
H9 H 0.27412 0.46137 0.17738 0.0
H10 H 0.2509 0.41472 0.07253 0.0
H11 H 0.24531 0.4603 0.17766 0.0
H12 H 0.22193 0.41399 0.0721 0.0
H13 H 0.16672 0.46444 0.12534 0.0
H14 H 0.15519 0.47964 0.17801 0.0
H15 H 0.13373 0.43348 0.2667 0.0
H16 H 0.14522 0.41829 0.21353 0.0
H17 H 0.12694 0.40407 0.09985 0.0
H18 H 0.11112 0.4013 0.02169 0.0
H19 H 0.16013 0.44696 0.97588 0.0
H20 H 0.17539 0.45018 0.05446 0.0
H21 H 0.19328 0.46169 0.13588 0.0
H22 H 0.22313 0.46463 0.13158 0.0
H23 H 0.19841 0.40568 0.12743 0.0
N24 N 0.16053 0.4294 0.13114 0.0
H25 H 0.16851 0.40288 0.13051 0.0
C26 C 0.29495 0.44704 0.16617 0.0
C27 C 0.30671 0.46604 0.16419 0.0
C28 C 0.32265 0.47518 0.19435 0.0
C29 C 0.32716 0.46547 0.22659 0.0
C30 C 0.31478 0.4468 0.23085 0.0
C31 C 0.29882 0.4377 0.20086 0.0
C32 C 0.28927 0.43609 0.08372 0.0
C33 C 0.29488 0.42319 0.07708 0.0
C34 C 0.30767 0.42567 0.04404 0.0
C35 C 0.31507 0.44115 0.01687 0.0
C36 C 0.30805 0.45309 0.01989 0.0
C37 C 0.29519 0.45057 0.05305 0.0
C38 C 0.26508 0.43822 0.12403 0.0
C39 C 0.26314 0.45116 0.15321 0.0
C40 C 0.24646 0.45057 0.15355 0.0
C41 C 0.23126 0.437 0.1252 0.0
C42 C 0.2333 0.42447 0.095 0.0
C43 C 0.24994 0.42502 0.0947 0.0
C44 C 0.15677 0.44013 0.16555 0.0
C45 C 0.15994 0.45777 0.15675 0.0
C46 C 0.15335 0.46648 0.18694 0.0
C47 C 0.14338 0.45767 0.22618 0.0
C48 C 0.14114 0.4405 0.23633 0.0
C49 C 0.14779 0.43186 0.2063 0.0
C50 C 0.15229 0.42723 0.08313 0.0
C51 C 0.13424 0.41333 0.07263 0.0
C52 C 0.1253 0.4117 0.02783 0.0
C53 C 0.13433 0.42395 0.99246 0.0
C54 C 0.15266 0.43748 0.00251 0.0
C55 C 0.1615 0.43924 0.04749 0.0
C56 C 0.17859 0.43197 0.13372 0.0
C57 C 0.19424 0.4494 0.13456 0.0
C58 C 0.21136 0.45108 0.13205 0.0
C59 C 0.21316 0.43539 0.12866 0.0
C60 C 0.1975 0.41804 0.12896 0.0
C61 C 0.18043 0.4164 0.13135 0.0
H62 H 0.72887 0.1231 0.08403 0.0
N63 N 0.73966 0.1577 0.06747 0.0
H64 H 0.70808 0.10511 0.14406 0.0
H65 H 0.73187 0.17211 0.14742 0.0
H66 H 0.71109 0.15421 0.20737 0.0
H67 H 0.71783 0.17291 0.07127 0.0
H68 H 0.6898 0.16286 0.02095 0.0
H69 H 0.72841 0.13563 0.98708 0.0
H70 H 0.70061 0.12589 0.93567 0.0
H71 H 0.7673 0.17112 0.13695 0.0
H72 H 0.74866 0.18641 0.0092 0.0
H73 H 0.79457 0.20124 0.14459 0.0
H74 H 0.77583 0.21604 0.0167 0.0
H75 H 0.88558 0.29239 0.13915 0.0
H76 H 0.89737 0.31303 0.21264 0.0
H77 H 0.84615 0.31162 0.21886 0.0
H78 H 0.83448 0.29101 0.14579 0.0
H79 H 0.8424 0.30466 0.06968 0.0
H80 H 0.85285 0.32618 0.00689 0.0
H81 H 0.88525 0.30348 0.95626 0.0
H82 H 0.87475 0.28191 0.01991 0.0
H83 H 0.85008 0.24785 0.10544 0.0
H84 H 0.82194 0.21821 0.10247 0.0
H85 H 0.7913 0.24477 0.06627 0.0
N86 N 0.85387 0.28028 0.09006 0.0
H87 H 0.81937 0.27409 0.06826 0.0
C88 C 0.73188 0.14889 0.11089 0.0
C89 C 0.72554 0.13006 0.11192 0.0
C90 C 0.71353 0.1198 0.14584 0.0
C91 C 0.70775 0.12823 0.1798 0.0
C92 C 0.71533 0.14736 0.18162 0.0
C93 C 0.72724 0.15761 0.14734 0.0
C94 C 0.72507 0.15476 0.03319 0.0
C95 C 0.71427 0.16278 0.0415 0.0
C96 C 0.6983 0.15708 0.01273 0.0
C97 C 0.69304 0.14355 0.97475 0.0
C98 C 0.70445 0.13646 0.96455 0.0
C99 C 0.72028 0.14196 0.99376 0.0
C100 C 0.75497 0.17638 0.07428 0.0
C101 C 0.76867 0.18097 0.11129 0.0
C102 C 0.78447 0.19816 0.11527 0.0
C103 C 0.78726 0.21114 0.0816 0.0
C104 C 0.77387 0.20657 0.04409 0.0
C105 C 0.7581 0.18942 0.04006 0.0
C106 C 0.85929 0.29029 0.13669 0.0
C107 C 0.87681 0.29625 0.15705 0.0
C108 C 0.88346 0.30794 0.19908 0.0
C109 C 0.87268 0.31399 0.22129 0.0
C110 C 0.85479 0.30729 0.2022 0.0
C111 C 0.84811 0.29549 0.16038 0.0
C112 C 0.8578 0.29156 0.04958 0.0
C113 C 0.85143 0.30396 0.04464 0.0
C114 C 0.85741 0.31631 0.00848 0.0
C115 C 0.86996 0.31663 0.97673 0.0
C116 C 0.87574 0.30373 0.98054 0.0
C117 C 0.86968 0.29132 0.01658 0.0
C118 C 0.83694 0.26316 0.08673 0.0
C119 C 0.83726 0.24719 0.09667 0.0
C120 C 0.82117 0.23033 0.09542 0.0
C121 C 0.80436 0.22913 0.08425 0.0
C122 C 0.80404 0.24519 0.07444 0.0
C123 C 0.82016 0.26204 0.07567 0.0
H124 H 0.60318 0.87737 0.01324 0.0
N125 N 0.57994 0.84702 0.05211 0.0
H126 H 0.59731 0.89135 0.94459 0.0
H127 H 0.54872 0.83145 0.9927 0.0
H128 H 0.54247 0.84555 0.9244 0.0
H129 H 0.54694 0.84217 0.07469 0.0
H130 H 0.54033 0.85353 0.14895 0.0
H131 H 0.60301 0.8664 0.12725 0.0
H132 H 0.59652 0.87812 0.20175 0.0
H133 H 0.60187 0.83637 0.01659 0.0
H134 H 0.55089 0.81576 0.08205 0.0
H135 H 0.59948 0.80643 0.01956 0.0
H136 H 0.54919 0.78651 0.08951 0.0
H137 H 0.59759 0.71656 0.04734 0.0
H138 H 0.5947 0.69839 0.9731 0.0
H139 H 0.54463 0.69693 0.93019 0.0
H140 H 0.54722 0.71423 0.005 0.0
H141 H 0.53926 0.69907 0.08304 0.0
H142 H 0.52804 0.67747 0.14614 0.0
H143 H 0.58051 0.7077 0.22541 0.0
H144 H 0.59176 0.72872 0.161 0.0
H145 H 0.60298 0.75994 0.0815 0.0
H146 H 0.60339 0.78877 0.07348 0.0
H147 H 0.54464 0.75911 0.05704 0.0
N148 N 0.57444 0.72653 0.07743 0.0
H149 H 0.54456 0.73069 0.06984 0.0
C150 C 0.57641 0.85352 0.00816 0.0
C151 C 0.59001 0.87024 0.99343 0.0
C152 C 0.58657 0.87824 0.95448 0.0
C153 C 0.56934 0.86969 0.92945 0.0
C154 C 0.5559 0.85245 0.94282 0.0
C155 C 0.5594 0.84442 0.98197 0.0
C156 C 0.57553 0.85341 0.09559 0.0
C157 C 0.55783 0.84988 0.10226 0.0
C158 C 0.55403 0.85627 0.14486 0.0
C159 C 0.5679 0.86658 0.18113 0.0
C160 C 0.58559 0.87019 0.1743 0.0
C161 C 0.58932 0.86354 0.13197 0.0
C162 C 0.57687 0.82857 0.04991 0.0
C163 C 0.59019 0.82539 0.03171 0.0
C164 C 0.58889 0.80829 0.03421 0.0
C165 C 0.57438 0.79402 0.05611 0.0
C166 C 0.56057 0.79701 0.07227 0.0
C167 C 0.56164 0.81398 0.06852 0.0
C168 C 0.57275 0.71684 0.03184 0.0
C169 C 0.58609 0.71239 0.02163 0.0
C170 C 0.58446 0.70215 0.979 0.0
C171 C 0.56942 0.6962 0.94555 0.0
C172 C 0.55626 0.70107 0.95539 0.0
C173 C 0.55783 0.71116 0.99822 0.0
C174 C 0.56649 0.71537 0.11712 0.0
C175 C 0.54828 0.70116 0.11423 0.0
C176 C 0.54184 0.68885 0.15056 0.0
C177 C 0.55345 0.69063 0.19056 0.0
C178 C 0.57131 0.7056 0.19458 0.0
C179 C 0.57774 0.71776 0.15813 0.0
C180 C 0.57384 0.74322 0.07555 0.0
C181 C 0.59024 0.7598 0.07674 0.0
C182 C 0.59039 0.77623 0.07132 0.0
C183 C 0.57405 0.77641 0.06342 0.0
C184 C 0.55753 0.75969 0.06328 0.0
C185 C 0.55743 0.7433 0.07001 0.0
H186 H 0.89057 0.60161 0.02946 0.0
N187 N 0.85483 0.57977 0.0209 0.0
H188 H 0.91195 0.60159 0.09076 0.0
H189 H 0.84586 0.56278 0.10635 0.0
H190 H 0.86697 0.56334 0.16842 0.0
H191 H 0.84948 0.54507 0.02668 0.0
H192 H 0.85854 0.52955 0.9678 0.0
H193 H 0.86009 0.58711 0.92907 0.0
H194 H 0.86793 0.57098 0.86826 0.0
H195 H 0.84856 0.60739 0.01852 0.0
H196 H 0.82274 0.54982 0.04082 0.0
H197 H 0.82063 0.60733 0.03437 0.0
H198 H 0.7951 0.54978 0.06071 0.0
H199 H 0.73365 0.6058 0.1305 0.0
H200 H 0.71994 0.60314 0.2075 0.0
H201 H 0.72397 0.555 0.23145 0.0
H202 H 0.7376 0.55776 0.15407 0.0
H203 H 0.71316 0.54674 0.08751 0.0
H204 H 0.68649 0.53171 0.03046 0.0
H205 H 0.70833 0.5802 0.95042 0.0
H206 H 0.73501 0.59533 0.00828 0.0
H207 H 0.77559 0.60801 0.10911 0.0
H208 H 0.80297 0.60671 0.09529 0.0
H209 H 0.76988 0.55103 0.03303 0.0
N210 N 0.74138 0.58219 0.0874 0.0
H211 H 0.74275 0.552 0.05073 0.0
C212 C 0.86661 0.58226 0.06289 0.0
C213 C 0.88537 0.59357 0.06037 0.0
C214 C 0.89756 0.59355 0.0955 0.0
C215 C 0.89117 0.58225 0.1342 0.0
C216 C 0.87235 0.57188 0.13847 0.0
C217 C 0.86018 0.57174 0.10305 0.0
C218 C 0.85467 0.5676 0.98266 0.0
C219 C 0.85314 0.55063 0.99185 0.0
C220 C 0.85825 0.54167 0.95786 0.0
C221 C 0.86456 0.54931 0.91373 0.0
C222 C 0.86381 0.56506 0.90256 0.0
C223 C 0.85909 0.57419 0.93693 0.0
C224 C 0.8378 0.57876 0.02909 0.0
C225 C 0.83684 0.59477 0.02736 0.0
C226 C 0.82089 0.59471 0.03708 0.0
C227 C 0.80556 0.57862 0.04983 0.0
C228 C 0.80649 0.56242 0.0507 0.0
C229 C 0.82238 0.56243 0.03979 0.0
C230 C 0.73648 0.58196 0.13648 0.0
C231 C 0.73199 0.59498 0.15304 0.0
C232 C 0.72424 0.59346 0.1971 0.0
C233 C 0.72076 0.57877 0.22539 0.0
C234 C 0.72631 0.56634 0.21015 0.0
C235 C 0.73417 0.56794 0.16609 0.0
C236 C 0.72605 0.57235 0.05244 0.0
C237 C 0.71226 0.55421 0.05789 0.0
C238 C 0.69698 0.5456 0.02523 0.0
C239 C 0.6953 0.55481 0.98619 0.0
C240 C 0.70933 0.57271 0.98001 0.0
C241 C 0.72453 0.58139 0.01297 0.0
C242 C 0.75709 0.58033 0.08036 0.0
C243 C 0.77431 0.59548 0.09294 0.0
C244 C 0.78995 0.59474 0.0844 0.0
C245 C 0.78878 0.57887 0.06199 0.0
C246 C 0.77145 0.56347 0.0506 0.0
C247 C 0.75578 0.56409 0.06026 0.0
H248 H 0.16774 0.70637 0.14381 0.0
N249 N 0.1612 0.73475 0.13092 0.0
H250 H 0.16251 0.68926 0.21506 0.0
H251 H 0.153 0.74261 0.21671 0.0
H252 H 0.14912 0.72643 0.29016 0.0
H253 H 0.12638 0.7174 0.09952 0.0
H254 H 0.11178 0.69526 0.02939 0.0
H255 H 0.17835 0.72478 0.06489 0.0
H256 H 0.16391 0.70283 0.99473 0.0
H257 H 0.19607 0.74256 0.15542 0.0
H258 H 0.16434 0.76429 0.09236 0.0
H259 H 0.22385 0.77115 0.14492 0.0
H260 H 0.19208 0.79249 0.07838 0.0
H261 H 0.30312 0.84498 0.08289 0.0
H262 H 0.32992 0.85724 0.13949 0.0
H263 H 0.30721 0.88248 0.23009 0.0
H264 H 0.28089 0.87084 0.17205 0.0
H265 H 0.28379 0.88504 0.05754 0.0
H266 H 0.29813 0.8982 0.98371 0.0
H267 H 0.29352 0.84652 0.93659 0.0
H268 H 0.27967 0.8337 0.01077 0.0
H269 H 0.27161 0.8183 0.08136 0.0
H270 H 0.2438 0.7894 0.08974 0.0
H271 H 0.21552 0.81916 0.11694 0.0
N272 N 0.27541 0.85255 0.08752 0.0
H273 H 0.24314 0.84779 0.10482 0.0
C274 C 0.16024 0.72554 0.17441 0.0
C275 C 0.16356 0.71081 0.17539 0.0
C276 C 0.16082 0.70114 0.21678 0.0
C277 C 0.15517 0.70624 0.25872 0.0
C278 C 0.15294 0.72169 0.25836 0.0
C279 C 0.15532 0.73111 0.21656 0.0
C280 C 0.15338 0.72279 0.0874 0.0
C281 C 0.13463 0.7144 0.07642 0.0
C282 C 0.12635 0.70177 0.03653 0.0
C283 C 0.13674 0.69737 0.00663 0.0
C284 C 0.15562 0.70616 0.01677 0.0
C285 C 0.16387 0.71868 0.05697 0.0
C286 C 0.17803 0.75145 0.1256 0.0
C287 C 0.19506 0.7535 0.13934 0.0
C288 C 0.21101 0.76983 0.1326 0.0
C289 C 0.21033 0.78429 0.11093 0.0
C290 C 0.19324 0.78194 0.09631 0.0
C291 C 0.17733 0.76578 0.10394 0.0
C292 C 0.29017 0.85736 0.12297 0.0
C293 C 0.30386 0.85305 0.11505 0.0
C294 C 0.31915 0.85998 0.14767 0.0
C295 C 0.32089 0.87114 0.1889 0.0
C296 C 0.30656 0.87437 0.19804 0.0
C297 C 0.29144 0.86762 0.16524 0.0
C298 C 0.28068 0.85846 0.03995 0.0
C299 C 0.28551 0.87647 0.03067 0.0
C300 C 0.29364 0.88392 0.98838 0.0
C301 C 0.29712 0.87345 0.9544 0.0
C302 C 0.29128 0.85503 0.9624 0.0
C303 C 0.2832 0.84761 0.00483 0.0
C304 C 0.25927 0.83516 0.09139 0.0
C305 C 0.25932 0.81853 0.08801 0.0
C306 C 0.24341 0.802 0.09366 0.0
C307 C 0.22727 0.80181 0.10394 0.0
C308 C 0.22747 0.8186 0.10788 0.0
C309 C 0.24326 0.83502 0.1013 0.0
H310 H 0.47694 0.31141 0.08523 0.0
N311 N 0.44757 0.27726 0.09623 0.0
H312 H 0.48297 0.32865 0.01414 0.0
H313 H 0.4288 0.26653 0.01084 0.0
H314 H 0.43513 0.28365 0.93812 0.0
H315 H 0.41769 0.27495 0.12924 0.0
H316 H 0.41529 0.29135 0.20079 0.0
H317 H 0.47548 0.30091 0.16178 0.0
H318 H 0.47349 0.3181 0.23052 0.0
H319 H 0.4837 0.28742 0.09882 0.0
H320 H 0.42987 0.24177 0.11017 0.0
H321 H 0.49665 0.26843 0.11906 0.0
H322 H 0.44266 0.2222 0.12781 0.0
H323 H 0.5311 0.1967 0.15648 0.0
H324 H 0.53391 0.17835 0.09042 0.0
H325 H 0.479 0.16081 0.03603 0.0
H326 H 0.47621 0.17874 0.10284 0.0
H327 H 0.46954 0.16767 0.1837 0.0
H328 H 0.46197 0.14696 0.24848 0.0
H329 H 0.51396 0.184 0.32412 0.0
H330 H 0.52118 0.20491 0.25943 0.0
H331 H 0.51422 0.22586 0.11584 0.0
H332 H 0.50096 0.24435 0.09222 0.0
H333 H 0.45879 0.21703 0.19007 0.0
N334 N 0.50202 0.19909 0.17601 0.0
H335 H 0.47142 0.19811 0.21181 0.0
C336 C 0.45223 0.28758 0.05374 0.0
C337 C 0.46769 0.30511 0.05356 0.0
C338 C 0.47126 0.31498 0.01238 0.0
C339 C 0.45957 0.30758 0.97018 0.0
C340 C 0.44431 0.28989 0.97012 0.0
C341 C 0.44072 0.28004 0.01149 0.0
C342 C 0.4467 0.28678 0.13953 0.0
C343 C 0.42984 0.28423 0.15169 0.0
C344 C 0.42855 0.29372 0.19245 0.0
C345 C 0.4442 0.30618 0.22167 0.0
C346 C 0.46105 0.30841 0.20975 0.0
C347 C 0.46226 0.29871 0.16959 0.0
C348 C 0.45572 0.26603 0.10334 0.0
C349 C 0.47461 0.27323 0.10508 0.0
C350 C 0.48203 0.26224 0.11632 0.0
C351 C 0.47075 0.24373 0.1254 0.0
C352 C 0.45183 0.23646 0.12212 0.0
C353 C 0.44445 0.24755 0.1115 0.0
C354 C 0.50354 0.18914 0.13458 0.0
C355 C 0.51976 0.18898 0.13 0.0
C356 C 0.52135 0.17856 0.09212 0.0
C357 C 0.50666 0.16806 0.05793 0.0
C358 C 0.49048 0.1685 0.06212 0.0
C359 C 0.48889 0.17885 0.10014 0.0
C360 C 0.496 0.18791 0.21677 0.0
C361 C 0.47919 0.17149 0.21456 0.0
C362 C 0.47492 0.15961 0.2516 0.0
C363 C 0.48744 0.16369 0.29133 0.0
C364 C 0.5039 0.18049 0.2944 0.0
C365 C 0.5081 0.19245 0.25744 0.0
C366 C 0.49381 0.21013 0.16474 0.0
C367 C 0.50201 0.22373 0.13193 0.0
C368 C 0.49448 0.23443 0.11875 0.0
C369 C 0.47869 0.23215 0.13893 0.0
C370 C 0.47068 0.21887 0.17273 0.0
C371 C 0.47807 0.20797 0.18544 0.0
C372 C 0.035 0.4941 0.52919 0.0
C373 C 0.02706 0.46237 0.69094 0.0
C374 C 0.97629 0.46254 0.69067 0.0
Mg375 Mg 0.02115 0.52137 0.49456 0.0
Mg376 Mg 0.01379 0.54678 0.57278 0.0
O377 O 0.00828 0.52313 0.55169 0.0
Mg378 Mg 0.01359 0.50833 0.59672 0.0
O379 O 0.01886 0.49227 0.6369 0.0
Mg380 Mg 0.00359 0.46788 0.59923 0.0
Mg381 Mg 0.01609 0.49233 0.70306 0.0
C382 C 0.99159 0.52412 0.65928 0.0
O383 O 0.03555 0.53354 0.64519 0.0
O384 O 0.00757 0.53549 0.4532 0.0
O385 O 0.03119 0.52176 0.71821 0.0
O386 O 0.0467 0.54986 0.51294 0.0
O387 O 0.00177 0.55146 0.5096 0.0
O388 O 0.0425 0.56519 0.57352 0.0
O389 O 0.99176 0.48241 0.55381 0.0
O390 O 0.99586 0.49276 0.47985 0.0
C391 C 0.98752 0.47993 0.50824 0.0
C392 C 0.00113 0.54588 0.46555 0.0
O393 O 0.99351 0.51029 0.64747 0.0
O394 O 0.01836 0.45699 0.64908 0.0
O395 O 0.99949 0.53923 0.63834 0.0
O396 O 0.98021 0.45761 0.65089 0.0
O397 O 0.02809 0.47578 0.7171 0.0
O398 O 0.98785 0.47707 0.71565 0.0
O399 O 0.03302 0.50765 0.54299 0.0
O400 O 0.02623 0.47854 0.54733 0.0
C401 C 0.05258 0.56392 0.54272 0.0
C402 C 0.03837 0.53538 0.69155 0.0
C403 C 0.50171 0.02824 0.52559 0.0
C404 C 0.5577 0.0233 0.46772 0.0
C405 C 0.52737 0.96832 0.51423 0.0
Mg406 Mg 0.47635 0.00838 0.61233 0.0
Mg407 Mg 0.49107 0.99442 0.7033 0.0
O408 O 0.48658 0.99291 0.63612 0.0
Mg409 Mg 0.50761 0.00148 0.59527 0.0
O410 O 0.52768 0.01037 0.55142 0.0
Mg411 Mg 0.5132 0.99842 0.48849 0.0
Mg412 Mg 0.54691 0.00621 0.56693 0.0
C413 C 0.5133 0.97523 0.67031 0.0
O414 O 0.5286 0.02083 0.65542 0.0
O415 O 0.45197 0.99098 0.65913 0.0
O416 O 0.55305 0.01807 0.6412 0.0
O417 O 0.49021 0.03069 0.67531 0.0
O418 O 0.46293 0.98075 0.71793 0.0
O419 O 0.50374 0.0225 0.73112 0.0
O420 O 0.48786 0.98276 0.5325 0.0
O421 O 0.46462 0.98713 0.54811 0.0
C422 C 0.47183 0.97998 0.5218 0.0
C423 C 0.44979 0.98149 0.696 0.0
O424 O 0.51317 0.97946 0.62634 0.0
O425 O 0.54081 0.01581 0.45286 0.0
O426 O 0.50691 0.9807 0.7042 0.0
O427 O 0.5187 0.97439 0.48983 0.0
O428 O 0.5629 0.02156 0.51017 0.0
O429 O 0.53834 0.97779 0.55027 0.0
O430 O 0.50152 0.02315 0.56852 0.0
O431 O 0.50673 0.02176 0.49066 0.0
C432 C 0.50012 0.03424 0.71451 0.0
C433 C 0.54465 0.02392 0.66742 0.0
C434 C 0.52176 0.53487 0.67243 0.0
C435 C 0.46436 0.47867 0.7318 0.0
C436 C 0.48584 0.44689 0.66456 0.0
Mg437 Mg 0.54387 0.53858 0.579 0.0
Mg438 Mg 0.52577 0.5117 0.47982 0.0
O439 O 0.52997 0.51309 0.54673 0.0
Mg440 Mg 0.50984 0.50132 0.59111 0.0
O441 O 0.49141 0.49122 0.64005 0.0
Mg442 Mg 0.50682 0.49249 0.69838 0.0
Mg443 Mg 0.46952 0.46931 0.62634 0.0
C444 C 0.49997 0.46974 0.50206 0.0
O445 O 0.488 0.50216 0.54073 0.0
O446 O 0.56668 0.54413 0.52729 0.0
O447 O 0.46229 0.47689 0.55882 0.0
O448 O 0.53159 0.55055 0.52561 0.0
O449 O 0.55369 0.52348 0.4635 0.0
O450 O 0.51682 0.53064 0.46234 0.0
O451 O 0.52972 0.49934 0.64572 0.0
O452 O 0.55465 0.52561 0.63141 0.0
C453 C 0.54674 0.51088 0.65365 0.0
C454 C 0.56771 0.53661 0.48723 0.0
O455 O 0.50045 0.47339 0.54787 0.0
O456 O 0.48149 0.48579 0.74318 0.0
O457 O 0.50747 0.48228 0.47225 0.0
O458 O 0.49741 0.46165 0.689 0.0
O459 O 0.45725 0.472 0.68907 0.0
O460 O 0.47394 0.44652 0.63439 0.0
O461 O 0.52003 0.5297 0.62765 0.0
O462 O 0.51679 0.5233 0.70497 0.0
C463 C 0.52189 0.54596 0.48562 0.0
C464 C 0.47084 0.49078 0.53362 0.0
C465 C 0.14253 0.4842 0.26889 0.0
C466 C 0.13389 0.46546 0.25364 0.0
C467 C 0.13311 0.49134 0.29347 0.0
C468 C 0.08652 0.48144 0.31184 0.0
H469 H 0.10636 0.50979 0.43466 0.0
C470 C 0.04213 0.47959 0.46049 0.0
C471 C 0.0465 0.4955 0.48935 0.0
C472 C 0.05353 0.47991 0.42567 0.0
C473 C 0.10079 0.50227 0.39987 0.0
H474 H 0.10853 0.43963 0.2514 0.0
H475 H 0.09224 0.45197 0.29423 0.0
H476 H 0.12552 0.50267 0.38531 0.0
H477 H 0.06601 0.52442 0.50339 0.0
H478 H 0.08641 0.5249 0.44242 0.0
H479 H 0.06162 0.48035 0.32707 0.0
C480 C 0.10625 0.4612 0.28722 0.0
C481 C 0.11173 0.49815 0.3717 0.0
C482 C 0.11566 0.45407 0.26324 0.0
C483 C 0.06233 0.51197 0.48155 0.0
C484 C 0.074 0.51222 0.44695 0.0
C485 C 0.07563 0.48556 0.33982 0.0
C486 C 0.1148 0.47991 0.30244 0.0
C487 C 0.10446 0.48707 0.3283 0.0
C488 C 0.06974 0.4961 0.41897 0.0
C489 C 0.08242 0.4954 0.38501 0.0
H490 H 0.15658 0.49329 0.26206 0.0
H491 H 0.14004 0.50581 0.30482 0.0
H492 H 0.08066 0.47324 0.27802 0.0
H493 H 0.02996 0.46671 0.46537 0.0
H494 H 0.04995 0.46721 0.40521 0.0
C495 C 0.69305 0.12169 0.25873 0.0
C496 C 0.69245 0.11693 0.20941 0.0
C497 C 0.67805 0.11153 0.28548 0.0
C498 C 0.6345 0.067 0.28192 0.0
H499 H 0.62343 0.09251 0.38214 0.0
C500 C 0.56874 0.03218 0.38502 0.0
C501 C 0.57195 0.03467 0.43555 0.0
C502 C 0.58277 0.04245 0.35538 0.0
C503 C 0.62638 0.08522 0.35424 0.0
H504 H 0.67562 0.09804 0.14918 0.0
H505 H 0.6494 0.08061 0.19529 0.0
H506 H 0.64949 0.10978 0.33497 0.0
H507 H 0.59217 0.05028 0.49455 0.0
H508 H 0.61638 0.06829 0.44297 0.0
H509 H 0.61112 0.04247 0.30105 0.0
C510 C 0.66156 0.0918 0.21393 0.0
C511 C 0.6414 0.09508 0.32744 0.0
C512 C 0.6766 0.10181 0.18741 0.0
C513 C 0.58927 0.04793 0.45575 0.0
C514 C 0.60313 0.05836 0.42626 0.0
C515 C 0.61934 0.05719 0.30835 0.0
C516 C 0.66203 0.09655 0.2633 0.0
C517 C 0.6458 0.08608 0.29126 0.0
C518 C 0.6001 0.05561 0.37582 0.0
C519 C 0.61526 0.06618 0.34512 0.0
H520 H 0.70512 0.13325 0.27661 0.0
H521 H 0.67907 0.11541 0.32361 0.0
H522 H 0.63757 0.05952 0.25489 0.0
H523 H 0.55555 0.02204 0.36845 0.0
H524 H 0.58009 0.04014 0.31652 0.0
C525 C 0.55958 0.67085 0.24421 0.0
C526 C 0.54749 0.67633 0.22623 0.0
C527 C 0.55415 0.65722 0.27677 0.0
C528 C 0.51411 0.61744 0.31869 0.0
H529 H 0.54849 0.62299 0.42306 0.0
C530 C 0.51144 0.55674 0.41475 0.0
C531 C 0.51852 0.55972 0.46302 0.0
C532 C 0.51164 0.57103 0.39046 0.0
C533 C 0.53855 0.62127 0.3947 0.0
H534 H 0.52009 0.67162 0.22868 0.0
H535 H 0.51053 0.64757 0.2855 0.0
H536 H 0.55573 0.64825 0.37262 0.0
H537 H 0.52965 0.57959 0.52496 0.0
H538 H 0.52965 0.60432 0.48291 0.0
H539 H 0.49699 0.59031 0.3407 0.0
C540 C 0.52424 0.6539 0.27408 0.0
C541 C 0.54283 0.63571 0.36533 0.0
C542 C 0.52972 0.66767 0.24152 0.0
C543 C 0.52437 0.57687 0.48756 0.0
C544 C 0.52447 0.59111 0.46335 0.0
C545 C 0.50982 0.60293 0.34814 0.0
C546 C 0.53644 0.64858 0.29219 0.0
C547 C 0.53086 0.63385 0.32632 0.0
C548 C 0.5188 0.58859 0.41397 0.0
C549 C 0.52214 0.60455 0.386 0.0
H550 H 0.5732 0.67682 0.23234 0.0
H551 H 0.56377 0.65316 0.28909 0.0
H552 H 0.50462 0.61555 0.28884 0.0
H553 H 0.50671 0.54368 0.39478 0.0
H554 H 0.5072 0.56857 0.35244 0.0
C555 C 0.92112 0.59507 0.18283 0.0
C556 C 0.90396 0.58008 0.16752 0.0
C557 C 0.9334 0.59262 0.21204 0.0
C558 C 0.9429 0.55645 0.25077 0.0
H559 H 0.97127 0.59208 0.35698 0.0
C560 C 0.99257 0.54732 0.37874 0.0
C561 C 0.99227 0.5514 0.42816 0.0
C562 C 0.98374 0.55226 0.34399 0.0
C563 C 0.96339 0.58196 0.32757 0.0
H564 H 0.88638 0.55072 0.17068 0.0
H565 H 0.90737 0.54664 0.22304 0.0
H566 H 0.9516 0.59761 0.30286 0.0
H567 H 0.98249 0.56397 0.47965 0.0
H568 H 0.96686 0.57209 0.41951 0.0
H569 H 0.95398 0.54037 0.27689 0.0
C570 C 0.91153 0.56024 0.2118 0.0
C571 C 0.95228 0.58524 0.29616 0.0
C572 C 0.89933 0.56265 0.18244 0.0
C573 C 0.98311 0.56067 0.44194 0.0
C574 C 0.97423 0.56548 0.40734 0.0
C575 C 0.95391 0.55311 0.28238 0.0
C576 C 0.92876 0.57514 0.22667 0.0
C577 C 0.94165 0.57238 0.25788 0.0
C578 C 0.97436 0.56129 0.35795 0.0
C579 C 0.96405 0.56567 0.32166 0.0
H580 H 0.92507 0.6087 0.17226 0.0
H581 H 0.94661 0.60439 0.22259 0.0
H582 H 0.93517 0.54642 0.22107 0.0
H583 H 0.99958 0.54029 0.36687 0.0
H584 H 0.98428 0.54901 0.30619 0.0
C585 C 0.34479 0.89862 0.23891 0.0
C586 C 0.33795 0.88041 0.22075 0.0
C587 C 0.36052 0.90749 0.26961 0.0
C588 C 0.40266 0.9091 0.30805 0.0
H589 H 0.39953 0.93563 0.42112 0.0
C590 C 0.45995 0.952 0.46428 0.0
C591 C 0.46107 0.96877 0.47795 0.0
C592 C 0.4464 0.9397 0.42947 0.0
C593 C 0.40064 0.92832 0.38967 0.0
H594 H 0.34272 0.85744 0.21953 0.0
H595 H 0.3706 0.87322 0.27325 0.0
H596 H 0.37244 0.91629 0.36835 0.0
H597 H 0.45048 0.98678 0.46273 0.0
H598 H 0.42727 0.96565 0.40194 0.0
H599 H 0.43116 0.92165 0.32948 0.0
C600 C 0.36356 0.88047 0.26357 0.0
C601 C 0.38513 0.91724 0.35952 0.0
C602 C 0.34764 0.87147 0.23289 0.0
C603 C 0.44967 0.97378 0.45343 0.0
C604 C 0.43635 0.96167 0.41879 0.0
C605 C 0.41832 0.92029 0.3385 0.0
C606 C 0.36995 0.89846 0.28279 0.0
C607 C 0.38606 0.90798 0.31762 0.0
C608 C 0.434 0.94419 0.40813 0.0
C609 C 0.41749 0.93045 0.37868 0.0
H610 H 0.33805 0.90615 0.22916 0.0
H611 H 0.36536 0.92151 0.28305 0.0
H612 H 0.40369 0.90204 0.27595 0.0
H613 H 0.46864 0.94789 0.48278 0.0
H614 H 0.4449 0.92633 0.42156 0.0
C615 C 0.43121 0.32445 0.25906 0.0
C616 C 0.44333 0.31774 0.26245 0.0
C617 C 0.43224 0.33743 0.29387 0.0
C618 C 0.45657 0.36377 0.41176 0.0
H619 H 0.45255 0.40235 0.35185 0.0
C620 C 0.48073 0.4356 0.51011 0.0
C621 C 0.49041 0.45042 0.48158 0.0
C622 C 0.47149 0.41755 0.48921 0.0
C623 C 0.45376 0.39172 0.36924 0.0
H624 H 0.46486 0.3182 0.30819 0.0
H625 H 0.46753 0.34164 0.36662 0.0
H626 H 0.44233 0.37351 0.3062 0.0
H627 H 0.49828 0.45768 0.40869 0.0
H628 H 0.48274 0.42667 0.3731 0.0
H629 H 0.46939 0.38283 0.47366 0.0
C630 C 0.45696 0.33672 0.33764 0.0
C631 C 0.44758 0.37496 0.34324 0.0
C632 C 0.45567 0.32345 0.30338 0.0
C633 C 0.49085 0.44674 0.43196 0.0
C634 C 0.48174 0.42885 0.41129 0.0
C635 C 0.463 0.38072 0.43765 0.0
C636 C 0.44568 0.34437 0.33248 0.0
C637 C 0.4494 0.36091 0.36351 0.0
C638 C 0.47177 0.41403 0.43937 0.0
C639 C 0.46225 0.39509 0.41594 0.0
H640 H 0.42149 0.32045 0.22824 0.0
H641 H 0.42294 0.34257 0.28932 0.0
H642 H 0.45782 0.35316 0.42906 0.0
H643 H 0.4802 0.43793 0.54844 0.0
H644 H 0.46396 0.40641 0.51186 0.0
C645 C 0.55503 0.87028 0.84852 0.0
C646 C 0.5652 0.87945 0.89204 0.0
C647 C 0.55114 0.87976 0.81407 0.0
C648 C 0.56528 0.92728 0.781 0.0
H649 H 0.51643 0.90529 0.72081 0.0
C650 C 0.53075 0.96774 0.72974 0.0
C651 C 0.52173 0.96428 0.68378 0.0
C652 C 0.53795 0.957 0.74476 0.0
C653 C 0.53023 0.91146 0.73655 0.0
H654 H 0.57874 0.90561 0.93405 0.0
H655 H 0.57183 0.92195 0.8749 0.0
H656 H 0.52523 0.88672 0.76782 0.0
H657 H 0.51348 0.94711 0.61692 0.0
H658 H 0.52563 0.92766 0.64426 0.0
H659 H 0.56984 0.9523 0.7524 0.0
C660 C 0.56733 0.90762 0.86631 0.0
C661 C 0.5353 0.90085 0.7635 0.0
C662 C 0.57126 0.89822 0.90044 0.0
C663 C 0.52036 0.95003 0.65257 0.0
C664 C 0.52724 0.93892 0.66817 0.0
C665 C 0.56015 0.93788 0.75466 0.0
C666 C 0.55728 0.89858 0.82257 0.0
C667 C 0.55271 0.90882 0.78747 0.0
C668 C 0.53602 0.94231 0.71454 0.0
C669 C 0.54242 0.93022 0.73346 0.0
H670 H 0.55025 0.85583 0.84092 0.0
H671 H 0.54344 0.87238 0.7807 0.0
H672 H 0.57896 0.93375 0.79778 0.0
H673 H 0.53217 0.97876 0.75434 0.0
H674 H 0.54455 0.95982 0.78078 0.0
C675 C 0.66143 0.53718 0.97042 0.0
C676 C 0.67878 0.54602 0.95262 0.0
C677 C 0.64586 0.53012 0.93885 0.0
C678 C 0.63198 0.53681 0.81766 0.0
H679 H 0.58691 0.49182 0.83296 0.0
C680 C 0.57508 0.5106 0.672 0.0
C681 C 0.55828 0.50734 0.68698 0.0
C682 C 0.58829 0.51172 0.70524 0.0
C683 C 0.5994 0.50444 0.82854 0.0
H684 H 0.69344 0.55349 0.88786 0.0
H685 H 0.66636 0.54093 0.83267 0.0
H686 H 0.61341 0.50095 0.88953 0.0
H687 H 0.54145 0.50134 0.74747 0.0
H688 H 0.56494 0.50358 0.80666 0.0
H689 H 0.61819 0.5404 0.75702 0.0
C690 C 0.66473 0.53987 0.87107 0.0
C691 C 0.61454 0.50969 0.86085 0.0
C692 C 0.68025 0.54704 0.9026 0.0
C693 C 0.55432 0.50376 0.73522 0.0
C694 C 0.56774 0.50508 0.76893 0.0
C695 C 0.61699 0.53154 0.78549 0.0
C696 C 0.64736 0.5317 0.88885 0.0
C697 C 0.63106 0.52587 0.85539 0.0
C698 C 0.58511 0.50989 0.7544 0.0
C699 C 0.60061 0.51522 0.79014 0.0
H700 H 0.65992 0.53631 0.00891 0.0
H701 H 0.63272 0.52406 0.95377 0.0
H702 H 0.64426 0.54962 0.81321 0.0
H703 H 0.57834 0.51324 0.63481 0.0
H704 H 0.60141 0.51501 0.69285 0.0
C705 C 0.13456 0.68473 0.92138 0.0
C706 C 0.12773 0.68259 0.96738 0.0
C707 C 0.12651 0.67022 0.8856 0.0
C708 C 0.10151 0.62052 0.87409 0.0
H709 H 0.08283 0.6232 0.74678 0.0
C710 C 0.0485 0.55621 0.76619 0.0
C711 C 0.04991 0.55379 0.71654 0.0
C712 C 0.05965 0.57301 0.79158 0.0
C713 C 0.08829 0.62235 0.78186 0.0
H714 H 0.10717 0.66371 0.01193 0.0
H715 H 0.0933 0.63842 0.94984 0.0
H716 H 0.09953 0.65109 0.80132 0.0
H717 H 0.0639 0.5674 0.65427 0.0
H718 H 0.08367 0.59715 0.69927 0.0
H719 H 0.09031 0.59196 0.85552 0.0
C720 C 0.10477 0.65131 0.94134 0.0
C721 C 0.09777 0.63826 0.813 0.0
C722 C 0.11261 0.66582 0.97671 0.0
C723 C 0.06248 0.56885 0.69249 0.0
C724 C 0.07378 0.58584 0.7182 0.0
C725 C 0.09224 0.60476 0.84306 0.0
C726 C 0.11176 0.65328 0.89569 0.0
C727 C 0.10392 0.6373 0.85994 0.0
C728 C 0.07267 0.58793 0.76826 0.0
C729 C 0.08496 0.60535 0.79728 0.0
H730 H 0.14616 0.69758 0.91323 0.0
H731 H 0.13213 0.67203 0.85065 0.0
H732 H 0.10645 0.61951 0.90975 0.0
H733 H 0.03873 0.54506 0.78581 0.0
H734 H 0.05807 0.57431 0.82979 0.0
C735 C 0.49322 0.13871 0.00557 0.0
C736 C 0.50802 0.15628 0.01892 0.0
C737 C 0.49444 0.1275 0.96937 0.0
C738 C 0.52699 0.11931 0.90597 0.0
H739 H 0.48575 0.09118 0.81332 0.0
C740 C 0.5016 0.06454 0.72617 0.0
C741 C 0.50609 0.05175 0.74321 0.0
C742 C 0.50461 0.07965 0.75604 0.0
C743 C 0.49751 0.09911 0.83843 0.0
H744 H 0.53571 0.17584 0.00425 0.0
H745 H 0.53788 0.15609 0.9412 0.0
H746 H 0.48513 0.11285 0.87257 0.0
H747 H 0.51865 0.04566 0.80374 0.0
H748 H 0.52371 0.07192 0.85603 0.0
H749 H 0.53929 0.10539 0.87182 0.0
C750 C 0.52537 0.15102 0.95912 0.0
C751 C 0.49704 0.11137 0.8728 0.0
C752 C 0.52412 0.16231 0.99526 0.0
C753 C 0.51485 0.05513 0.78962 0.0
C754 C 0.51785 0.07026 0.81954 0.0
C755 C 0.52743 0.10695 0.87161 0.0
C756 C 0.51051 0.13351 0.9457 0.0
C757 C 0.51165 0.12142 0.90736 0.0
C758 C 0.51219 0.08233 0.80362 0.0
C759 C 0.5126 0.09658 0.83775 0.0
H760 H 0.48074 0.13346 0.0237 0.0
H761 H 0.48286 0.11394 0.96048 0.0
H762 H 0.53842 0.1268 0.93231 0.0
H763 H 0.49509 0.06254 0.69035 0.0
H764 H 0.50048 0.08894 0.74234 0.0
C765 C 0.33314 0.45261 0.94396 0.0
C766 C 0.33137 0.44585 0.98996 0.0
C767 C 0.34896 0.45774 0.92012 0.0
C768 C 0.38928 0.45177 0.91962 0.0
H769 H 0.40782 0.49374 0.842 0.0
C770 C 0.45483 0.47674 0.81713 0.0
C771 C 0.45202 0.47849 0.76792 0.0
C772 C 0.44181 0.47478 0.84937 0.0
C773 C 0.40282 0.48202 0.86367 0.0
H774 H 0.34501 0.43966 0.04756 0.0
H775 H 0.37254 0.4487 0.0063 0.0
H776 H 0.38124 0.48576 0.8872 0.0
H777 H 0.43397 0.48056 0.71436 0.0
H778 H 0.41163 0.47741 0.77024 0.0
H779 H 0.41085 0.44801 0.89558 0.0
C780 C 0.36159 0.44963 0.98799 0.0
C781 C 0.38751 0.47734 0.88927 0.0
C782 C 0.34577 0.4444 0.01163 0.0
C783 C 0.43646 0.47907 0.75202 0.0
C784 C 0.4237 0.47742 0.78411 0.0
C785 C 0.40468 0.45652 0.89423 0.0
C786 C 0.36342 0.45639 0.94196 0.0
C787 C 0.38032 0.46195 0.91684 0.0
C788 C 0.42605 0.47495 0.83295 0.0
C789 C 0.41139 0.47148 0.86524 0.0
H790 H 0.32225 0.45381 0.92629 0.0
H791 H 0.34978 0.4626 0.88433 0.0
H792 H 0.38404 0.43972 0.94009 0.0
H793 H 0.4667 0.47623 0.83028 0.0
H794 H 0.44396 0.47295 0.88695 0.0
C795 C 0.89687 0.34054 0.93771 0.0
C796 C 0.87805 0.33127 0.94242 0.0
C797 C 0.90483 0.35523 0.90843 0.0
C798 C 0.89587 0.37679 0.80677 0.0
H799 H 0.94071 0.41944 0.85878 0.0
C800 C 0.94848 0.43153 0.69159 0.0
C801 C 0.95929 0.44956 0.7123 0.0
C802 C 0.93522 0.41797 0.71765 0.0
C803 C 0.92805 0.40779 0.84389 0.0
H804 H 0.85277 0.32981 0.91887 0.0
H805 H 0.86676 0.35558 0.86745 0.0
H806 H 0.92465 0.39377 0.90839 0.0
H807 H 0.96313 0.4679 0.77444 0.0
H808 H 0.93985 0.4443 0.81953 0.0
H809 H 0.89949 0.39081 0.74186 0.0
C810 C 0.8753 0.35143 0.88657 0.0
C811 C 0.91898 0.39296 0.87214 0.0
C812 C 0.86732 0.33677 0.91622 0.0
C813 C 0.95528 0.45409 0.75767 0.0
C814 C 0.942 0.44054 0.78368 0.0
C815 C 0.90503 0.39164 0.77827 0.0
C816 C 0.89418 0.36099 0.88297 0.0
C817 C 0.90297 0.37716 0.85367 0.0
C818 C 0.93242 0.42217 0.76488 0.0
C819 C 0.92137 0.40722 0.79632 0.0
H820 H 0.90555 0.3368 0.95779 0.0
H821 H 0.91939 0.36215 0.90588 0.0
H822 H 0.88357 0.36478 0.79153 0.0
H823 H 0.95109 0.42754 0.6566 0.0
H824 H 0.9281 0.40397 0.70205 0.0
C825 C 0.86885 0.52379 0.87748 0.0
C826 C 0.87413 0.54251 0.88271 0.0
C827 C 0.87916 0.51801 0.85184 0.0
C828 C 0.91359 0.53327 0.76167 0.0
H829 H 0.93021 0.50304 0.8217 0.0
C830 C 0.97943 0.53846 0.7151 0.0
C831 C 0.97846 0.52244 0.69482 0.0
C832 C 0.96516 0.53753 0.73978 0.0
C833 C 0.92543 0.51124 0.80429 0.0
H834 H 0.89469 0.56976 0.86556 0.0
H835 H 0.91213 0.55969 0.82041 0.0
H836 H 0.90672 0.50744 0.85823 0.0
H837 H 0.96249 0.49273 0.68861 0.0
H838 H 0.93737 0.49116 0.73279 0.0
H839 H 0.93277 0.53781 0.70917 0.0
C840 C 0.8999 0.54942 0.83536 0.0
C841 C 0.91199 0.51372 0.82498 0.0
C842 C 0.88978 0.55519 0.86113 0.0
C843 C 0.96359 0.50531 0.70367 0.0
C844 C 0.94921 0.50439 0.72877 0.0
C845 C 0.92699 0.53089 0.74134 0.0
C846 C 0.89481 0.53081 0.83058 0.0
C847 C 0.90642 0.5253 0.8047 0.0
C848 C 0.94961 0.52058 0.74508 0.0
C849 C 0.93347 0.52039 0.7633 0.0
H850 H 0.85685 0.51363 0.89342 0.0
H851 H 0.8749 0.50356 0.84856 0.0
H852 H 0.9093 0.54193 0.74465 0.0
H853 H 0.99083 0.55185 0.70979 0.0
H854 H 0.96592 0.55018 0.75295 0.0
C855 C 0.32233 0.87859 0.90259 0.0
C856 C 0.30849 0.88228 0.91375 0.0
C857 C 0.33448 0.88828 0.8684 0.0
C858 C 0.35467 0.93257 0.81418 0.0
H859 H 0.37651 0.91041 0.73701 0.0
C860 C 0.41723 0.97359 0.7008 0.0
C861 C 0.43139 0.97012 0.71269 0.0
C862 C 0.39992 0.96254 0.71704 0.0
C863 C 0.37044 0.91676 0.7581 0.0
H864 H 0.29609 0.89853 0.89605 0.0
H865 H 0.31738 0.9155 0.83596 0.0
H866 H 0.3495 0.89095 0.77874 0.0
H867 H 0.43836 0.95215 0.75015 0.0
H868 H 0.40831 0.93291 0.77761 0.0
H869 H 0.37599 0.95844 0.79408 0.0
C870 C 0.31892 0.90523 0.85426 0.0
C871 C 0.35504 0.90564 0.78216 0.0
C872 C 0.30673 0.8955 0.88862 0.0
C873 C 0.42783 0.9553 0.74054 0.0
C874 C 0.41056 0.94415 0.75594 0.0
C875 C 0.37003 0.9437 0.78967 0.0
C876 C 0.33313 0.90193 0.84434 0.0
C877 C 0.34737 0.91345 0.81197 0.0
C878 C 0.39644 0.94764 0.74445 0.0
C879 C 0.37841 0.93591 0.76285 0.0
H880 H 0.32435 0.8688 0.92191 0.0
H881 H 0.34546 0.88563 0.86251 0.0
H882 H 0.3492 0.93906 0.83707 0.0
H883 H 0.41957 0.98492 0.67944 0.0
H884 H 0.38922 0.96551 0.70786 0.0
C885 C 0.48085 0.33023 0.9147 0.0
C886 C 0.46301 0.31864 0.92732 0.0
C887 C 0.48426 0.34198 0.8776 0.0
C888 C 0.46349 0.35172 0.77181 0.0
H889 H 0.49977 0.40225 0.80862 0.0
C890 C 0.46815 0.41317 0.67463 0.0
C891 C 0.48492 0.42958 0.67697 0.0
C892 C 0.46654 0.39791 0.69695 0.0
C893 C 0.4899 0.38819 0.79695 0.0
H894 H 0.43471 0.30991 0.90925 0.0
H895 H 0.44068 0.33027 0.84404 0.0
H896 H 0.49492 0.37867 0.86275 0.0
H897 H 0.51347 0.4423 0.69998 0.0
H898 H 0.51091 0.41548 0.73661 0.0
H899 H 0.4584 0.36129 0.70597 0.0
C900 C 0.45201 0.33017 0.86289 0.0
C901 C 0.48706 0.37464 0.82828 0.0
C902 C 0.4486 0.31849 0.90028 0.0
C903 C 0.50032 0.42991 0.69819 0.0
C904 C 0.49879 0.41457 0.71965 0.0
C905 C 0.46647 0.36529 0.74007 0.0
C906 C 0.46991 0.34234 0.85189 0.0
C907 C 0.47368 0.3563 0.81642 0.0
C908 C 0.48174 0.39865 0.72139 0.0
C909 C 0.47957 0.38376 0.7525 0.0
H910 H 0.49226 0.33041 0.93395 0.0
H911 H 0.49818 0.351 0.86944 0.0
H912 H 0.45317 0.33766 0.76155 0.0
H913 H 0.45602 0.41254 0.65872 0.0
H914 H 0.45317 0.38598 0.6976 0.0
C915 C 0.11079 0.40693 0.92313 0.0
C916 C 0.12433 0.42357 0.94688 0.0
C917 C 0.1005 0.40689 0.88246 0.0
C918 C 0.09927 0.43698 0.7903 0.0
H919 H 0.0471 0.4098 0.7989 0.0
C920 C 0.05319 0.46453 0.73962 0.0
C921 C 0.03754 0.45393 0.70864 0.0
C922 C 0.06358 0.45715 0.75643 0.0
C923 C 0.0616 0.41708 0.79521 0.0
H924 H 0.13763 0.45319 0.94614 0.0
H925 H 0.12001 0.45311 0.87554 0.0
H926 H 0.0666 0.40333 0.8518 0.0
H927 H 0.02041 0.42722 0.67103 0.0
H928 H 0.03846 0.41393 0.70255 0.0
H929 H 0.09435 0.45173 0.73655 0.0
C930 C 0.11751 0.44006 0.88762 0.0
C931 C 0.07277 0.4134 0.82543 0.0
C932 C 0.12765 0.4401 0.92825 0.0
C933 C 0.03244 0.43567 0.69486 0.0
C934 C 0.0427 0.4281 0.71275 0.0
C935 C 0.08815 0.44072 0.76047 0.0
C936 C 0.10367 0.42349 0.86458 0.0
C937 C 0.09177 0.42397 0.82488 0.0
C938 C 0.05843 0.43889 0.74335 0.0
C939 C 0.06931 0.43138 0.76429 0.0
H940 H 0.10802 0.39393 0.9362 0.0
H941 H 0.08995 0.39392 0.86533 0.0
H942 H 0.11385 0.44506 0.78837 0.0
H943 H 0.05758 0.47868 0.75057 0.0
H944 H 0.07552 0.46565 0.78053 0.0
C945 C 0.65937 0.1289 0.975 0.0
C946 C 0.67494 0.13548 0.94882 0.0
C947 C 0.64211 0.11887 0.9512 0.0
C948 C 0.61157 0.08517 0.89263 0.0
H949 H 0.59718 0.09728 0.77164 0.0
C950 C 0.56773 0.03334 0.73656 0.0
C951 C 0.55445 0.03563 0.71152 0.0
C952 C 0.57882 0.04591 0.77427 0.0
C953 C 0.60084 0.09385 0.80587 0.0
H954 H 0.68476 0.13769 0.87737 0.0
H955 H 0.65451 0.12035 0.83554 0.0
H956 H 0.62435 0.12054 0.81976 0.0
H957 H 0.54175 0.05234 0.70741 0.0
H958 H 0.56158 0.07469 0.77295 0.0
H959 H 0.58875 0.05814 0.87715 0.0
C960 C 0.65567 0.12293 0.87442 0.0
C961 C 0.61642 0.10709 0.83312 0.0
C962 C 0.67295 0.13271 0.89827 0.0
C963 C 0.55185 0.05023 0.72634 0.0
C964 C 0.56321 0.06304 0.76356 0.0
C965 C 0.59617 0.07186 0.86501 0.0
C966 C 0.64013 0.11551 0.9008 0.0
C967 C 0.62217 0.1027 0.87608 0.0
C968 C 0.57703 0.06116 0.78708 0.0
C969 C 0.59096 0.07596 0.8208 0.0
H970 H 0.66057 0.13072 0.01407 0.0
H971 H 0.63031 0.11329 0.97226 0.0
H972 H 0.6158 0.08141 0.92546 0.0
H973 H 0.56991 0.02212 0.72601 0.0
H974 H 0.58948 0.04425 0.79162 0.0
C975 C 0.54955 0.66917 0.88755 0.0
C976 C 0.56688 0.68398 0.90225 0.0
C977 C 0.54727 0.65661 0.84986 0.0
C978 C 0.5449 0.63476 0.75774 0.0
H979 H 0.57665 0.6146 0.77603 0.0
C980 C 0.53135 0.56736 0.6556 0.0
C981 C 0.53061 0.55458 0.68768 0.0
C982 C 0.53872 0.5858 0.67168 0.0
C983 C 0.56782 0.62024 0.77004 0.0
H984 H 0.59527 0.69774 0.88686 0.0
H985 H 0.59129 0.67547 0.8215 0.0
H986 H 0.58353 0.64288 0.82176 0.0
H987 H 0.53774 0.55121 0.76093 0.0
H988 H 0.55063 0.58323 0.78865 0.0
H989 H 0.52863 0.61148 0.70802 0.0
C990 C 0.57951 0.67362 0.83947 0.0
C991 C 0.57183 0.6365 0.79592 0.0
C992 C 0.58179 0.6863 0.87704 0.0
C993 C 0.53798 0.56069 0.73543 0.0
C994 C 0.54554 0.57908 0.75121 0.0
C995 C 0.54095 0.61854 0.7316 0.0
C996 C 0.56227 0.65847 0.8261 0.0
C997 C 0.56003 0.64353 0.79143 0.0
C998 C 0.54576 0.59178 0.71978 0.0
C999 C 0.552 0.61076 0.739 0.0
H1000 H 0.5378 0.66674 0.90658 0.0
H1001 H 0.53386 0.64489 0.84103 0.0
H1002 H 0.53568 0.64 0.75317 0.0
H1003 H 0.52576 0.56302 0.61859 0.0
H1004 H 0.53873 0.59534 0.64675 0.0
C1005 C 0.47638 0.13125 0.31094 0.0
C1006 C 0.48407 0.14981 0.32692 0.0
C1007 C 0.47461 0.11828 0.34305 0.0
C1008 C 0.49536 0.11431 0.45667 0.0
H1009 H 0.45619 0.06386 0.43741 0.0
C1010 C 0.49721 0.05471 0.54922 0.0
C1011 C 0.49526 0.04108 0.51465 0.0
C1012 C 0.49274 0.06794 0.53629 0.0
C1013 C 0.46713 0.07793 0.44357 0.0
H1014 H 0.4953 0.16914 0.38989 0.0
H1015 H 0.49227 0.14639 0.44617 0.0
H1016 H 0.45386 0.08768 0.39638 0.0
H1017 H 0.48608 0.02989 0.44063 0.0
H1018 H 0.47803 0.05262 0.4185 0.0
H1019 H 0.50886 0.10434 0.50266 0.0
C1020 C 0.48776 0.14196 0.40852 0.0
C1021 C 0.46585 0.09156 0.41991 0.0
C1022 C 0.48951 0.15499 0.37627 0.0
C1023 C 0.4879 0.04034 0.4679 0.0
C1024 C 0.48313 0.05326 0.45533 0.0
C1025 C 0.49657 0.10066 0.48064 0.0
C1026 C 0.48049 0.12348 0.39212 0.0
C1027 C 0.48027 0.10979 0.42458 0.0
C1028 C 0.48583 0.06741 0.48901 0.0
C1029 C 0.48278 0.08224 0.47275 0.0
H1030 H 0.4724 0.12679 0.27309 0.0
H1031 H 0.46933 0.10426 0.32885 0.0
H1032 H 0.50676 0.12818 0.46091 0.0
H1033 H 0.50285 0.05556 0.58554 0.0
H1034 H 0.49492 0.07871 0.56292 0.0
C1035 C 0.35321 0.49184 0.27583 0.0
C1036 C 0.34539 0.47424 0.25228 0.0
C1037 C 0.3704 0.4998 0.30029 0.0
C1038 C 0.41158 0.49535 0.31477 0.0
H1039 H 0.41294 0.51096 0.4488 0.0
C1040 C 0.46765 0.50513 0.45884 0.0
C1041 C 0.45991 0.4944 0.49788 0.0
C1042 C 0.45686 0.50835 0.42573 0.0
C1043 C 0.41289 0.50694 0.41123 0.0
H1044 H 0.34974 0.4516 0.23357 0.0
H1045 H 0.37943 0.46525 0.27681 0.0
H1046 H 0.38783 0.506 0.393 0.0
H1047 H 0.43495 0.47907 0.5336 0.0
H1048 H 0.41634 0.48461 0.47634 0.0
H1049 H 0.43601 0.49504 0.33405 0.0
C1050 C 0.37244 0.473 0.27627 0.0
C1051 C 0.39859 0.50422 0.3792 0.0
C1052 C 0.35528 0.46503 0.25223 0.0
C1053 C 0.44134 0.48726 0.50369 0.0
C1054 C 0.43069 0.49065 0.47125 0.0
C1055 C 0.42592 0.49813 0.34683 0.0
C1056 C 0.38012 0.49037 0.30102 0.0
C1057 C 0.39733 0.49754 0.33123 0.0
C1058 C 0.43829 0.50115 0.43186 0.0
C1059 C 0.42619 0.50306 0.39584 0.0
H1060 H 0.34588 0.49925 0.2762 0.0
H1061 H 0.37601 0.51321 0.31906 0.0
H1062 H 0.41108 0.4905 0.27772 0.0
H1063 H 0.48188 0.51072 0.45339 0.0
H1064 H 0.463 0.5164 0.39541 0.0
C1065 C 0.89207 0.32856 0.29867 0.0
C1066 C 0.8808 0.32879 0.26059 0.0
C1067 C 0.9016 0.34378 0.33187 0.0
C1068 C 0.92315 0.39269 0.33359 0.0
H1069 H 0.925 0.39393 0.47347 0.0
C1070 C 0.96313 0.46103 0.44442 0.0
C1071 C 0.97312 0.46192 0.48685 0.0
C1072 C 0.95042 0.44417 0.42136 0.0
C1073 C 0.92481 0.39377 0.43447 0.0
H1074 H 0.87025 0.34484 0.22827 0.0
H1075 H 0.88703 0.37142 0.28583 0.0
H1076 H 0.90517 0.36497 0.42568 0.0
H1077 H 0.97724 0.44586 0.53946 0.0
H1078 H 0.95556 0.41624 0.49789 0.0
H1079 H 0.94318 0.42101 0.34135 0.0
C1080 C 0.88835 0.35943 0.29018 0.0
C1081 C 0.9134 0.37722 0.40725 0.0
C1082 C 0.87867 0.34419 0.25749 0.0
C1083 C 0.96973 0.44556 0.50674 0.0
C1084 C 0.95722 0.4286 0.48299 0.0
C1085 C 0.93472 0.40906 0.36056 0.0
C1086 C 0.9002 0.35952 0.32693 0.0
C1087 C 0.91234 0.37666 0.3566 0.0
C1088 C 0.94768 0.42772 0.43942 0.0
C1089 C 0.93554 0.40993 0.41137 0.0
H1090 H 0.89387 0.31681 0.30195 0.0
H1091 H 0.91073 0.3436 0.35985 0.0
H1092 H 0.92283 0.39249 0.29452 0.0
H1093 H 0.96522 0.47344 0.42879 0.0
H1094 H 0.9429 0.44409 0.38889 0.0
C1095 C 0.57478 0.89307 0.23893 0.0
C1096 C 0.56401 0.87432 0.22477 0.0
C1097 C 0.57012 0.90084 0.27705 0.0
C1098 C 0.54531 0.89261 0.38532 0.0
H1099 H 0.53841 0.93263 0.34814 0.0
C1100 C 0.53975 0.94684 0.51116 0.0
C1101 C 0.5267 0.95135 0.49497 0.0
C1102 C 0.54216 0.93389 0.48429 0.0
C1103 C 0.54018 0.9214 0.35896 0.0
H1104 H 0.54051 0.84879 0.24073 0.0
H1105 H 0.5325 0.86243 0.30829 0.0
H1106 H 0.54847 0.91787 0.28963 0.0
H1107 H 0.50442 0.9441 0.4415 0.0
H1108 H 0.5088 0.92178 0.39478 0.0
H1109 H 0.53739 0.89659 0.45534 0.0
C1110 C 0.54446 0.87105 0.28956 0.0
C1111 C 0.54608 0.91309 0.32566 0.0
C1112 C 0.54895 0.86331 0.25083 0.0
C1113 C 0.51484 0.94124 0.45453 0.0
C1114 C 0.51732 0.92845 0.42768 0.0
C1115 C 0.53971 0.90122 0.41917 0.0
C1116 C 0.55477 0.88995 0.30219 0.0
C1117 C 0.5487 0.89864 0.33846 0.0
C1118 C 0.53155 0.92534 0.44099 0.0
C1119 C 0.53699 0.9156 0.40602 0.0
H1120 H 0.58639 0.90186 0.21925 0.0
H1121 H 0.57828 0.91545 0.28629 0.0
H1122 H 0.54726 0.88147 0.39588 0.0
H1123 H 0.549 0.95425 0.54242 0.0
H1124 H 0.5532 0.93165 0.4953 0.0
C1125 C 0.69483 0.55758 0.27195 0.0
C1126 C 0.70942 0.57528 0.26713 0.0
C1127 C 0.68232 0.55457 0.30627 0.0
C1128 C 0.66366 0.5792 0.37317 0.0
H1129 H 0.63675 0.53255 0.4298 0.0
C1130 C 0.60103 0.55935 0.48582 0.0
C1131 C 0.58574 0.54255 0.4689 0.0
C1132 C 0.61807 0.56457 0.46883 0.0
C1133 C 0.64422 0.54568 0.41437 0.0
H1134 H 0.72299 0.60352 0.29656 0.0
H1135 H 0.70124 0.59822 0.3573 0.0
H1136 H 0.66409 0.53955 0.38919 0.0
H1137 H 0.57642 0.51801 0.42131 0.0
H1138 H 0.60608 0.52704 0.39235 0.0
H1139 H 0.64355 0.58514 0.39812 0.0
C1140 C 0.69927 0.58673 0.33375 0.0
C1141 C 0.65982 0.54967 0.39097 0.0
C1142 C 0.71176 0.58976 0.29912 0.0
C1143 C 0.58787 0.53108 0.43494 0.0
C1144 C 0.60489 0.53615 0.41865 0.0
C1145 C 0.64814 0.57527 0.39712 0.0
C1146 C 0.68413 0.56918 0.33688 0.0
C1147 C 0.66941 0.56623 0.36867 0.0
C1148 C 0.62015 0.55292 0.4354 0.0
C1149 C 0.63798 0.55824 0.41658 0.0
H1150 H 0.69246 0.54619 0.24733 0.0
H1151 H 0.67069 0.54094 0.30693 0.0
H1152 H 0.67056 0.592 0.35601 0.0
H1153 H 0.59982 0.56849 0.51197 0.0
H1154 H 0.62965 0.57759 0.48222 0.0
C1155 C 0.15954 0.68509 0.3125 0.0
C1156 C 0.15056 0.69482 0.30128 0.0
C1157 C 0.15375 0.67276 0.34878 0.0
C1158 C 0.12833 0.6594 0.45684 0.0
H1159 H 0.11072 0.6093 0.40788 0.0
C1160 C 0.07275 0.59786 0.54539 0.0
C1161 C 0.0702 0.58027 0.53504 0.0
C1162 C 0.087 0.61313 0.52664 0.0
C1163 C 0.11599 0.62318 0.42307 0.0
H1164 H 0.12872 0.69947 0.32151 0.0
H1165 H 0.11931 0.67865 0.38596 0.0
H1166 H 0.12782 0.6342 0.3572 0.0
H1167 H 0.08178 0.56514 0.50189 0.0
H1168 H 0.10733 0.59188 0.47187 0.0
H1169 H 0.11668 0.64855 0.52286 0.0
C1170 C 0.13076 0.68056 0.36624 0.0
C1171 C 0.12572 0.63747 0.39364 0.0
C1172 C 0.13627 0.69258 0.32931 0.0
C1173 C 0.08326 0.57851 0.50987 0.0
C1174 C 0.09779 0.59386 0.49213 0.0
C1175 C 0.11895 0.64513 0.48682 0.0
C1176 C 0.13916 0.67023 0.37552 0.0
C1177 C 0.13149 0.65563 0.40971 0.0
C1178 C 0.09931 0.61125 0.49797 0.0
C1179 C 0.11209 0.62672 0.4698 0.0
H1180 H 0.17088 0.68672 0.29276 0.0
H1181 H 0.16049 0.66499 0.35552 0.0
H1182 H 0.13279 0.67335 0.47012 0.0
H1183 H 0.06288 0.59968 0.56455 0.0
H1184 H 0.08747 0.62613 0.53191 0.0
loop_
_geom_bond_atom_site_label_1
_geom_bond_atom_site_label_2
_geom_bond_distance
_geom_bond_site_symmetry_2
_ccdc_geom_bond_type
H0 C27 0.929 . S
N1 C26 1.433 . S
N1 C32 1.435 . S
N1 C38 1.423 . S
H2 C28 0.930 . S
H3 C31 0.931 . S
H4 C30 0.929 . S
H5 C33 0.930 . S
H6 C34 0.932 . S
H7 C37 0.929 . S
H8 C36 0.931 . S
H9 C39 0.929 . S
H10 C43 0.932 . S
H11 C40 0.931 . S
H12 C42 0.929 . S
H13 C45 0.929 . S
H14 C46 0.930 . S
H15 C48 0.929 . S
H16 C49 0.931 . S
H17 C51 0.930 . S
H18 C52 0.932 . S
H19 C54 0.931 . S
H20 C55 0.929 . S
H21 C57 0.929 . S
H22 C58 0.931 . S
H23 C60 0.929 . S
N24 C44 1.433 . S
N24 C50 1.435 . S
N24 C56 1.423 . S
H25 C61 0.932 . S
C26 N1 1.433 . S
C26 C27 1.363 . S
C26 C31 1.370 . S
C27 H0 0.929 . S
C27 C26 1.363 . S
C27 C28 1.385 . S
C28 H2 0.930 . S
C28 C27 1.385 . S
C28 C29 1.357 . S
C29 C28 1.357 . S
C29 C30 1.406 . S
C30 H4 0.929 . S
C30 C29 1.406 . S
C30 C31 1.391 . S
C31 H3 0.931 . S
C31 C26 1.370 . S
C31 C30 1.391 . S
C32 N1 1.435 . S
C32 C33 1.358 . S
C32 C37 1.371 . S
C33 H5 0.930 . S
C33 C32 1.358 . S
C33 C34 1.405 . S
C34 H6 0.932 . S
C34 C33 1.405 . S
C34 C35 1.383 . S
C35 C34 1.383 . S
C35 C36 1.393 . S
C36 H8 0.931 . S
C36 C35 1.393 . S
C36 C37 1.382 . S
C37 H7 0.929 . S
C37 C32 1.371 . S
C37 C36 1.382 . S
C38 N1 1.423 . S
C38 C39 1.362 . S
C38 C43 1.388 . S
C39 H9 0.929 . S
C39 C38 1.362 . S
C39 C40 1.376 . S
C40 H11 0.931 . S
C40 C39 1.376 . S
C40 C41 1.396 . S
C41 C40 1.396 . S
C41 C42 1.348 . S
C41 C59 1.472 . S
C42 H12 0.929 . S
C42 C41 1.348 . S
C42 C43 1.443 . S
C43 H10 0.932 . S
C43 C38 1.388 . S
C43 C42 1.443 . S
C44 N24 1.433 . S
C44 C45 1.363 . S
C44 C49 1.370 . S
C45 H13 0.929 . S
C45 C44 1.363 . S
C45 C46 1.385 . S
C46 H14 0.930 . S
C46 C45 1.385 . S
C46 C47 1.357 . S
C47 C46 1.357 . S
C47 C48 1.406 . S
C48 H15 0.929 . S
C48 C47 1.406 . S
C48 C49 1.391 . S
C49 H16 0.931 . S
C49 C44 1.370 . S
C49 C48 1.391 . S
C50 N24 1.435 . S
C50 C51 1.358 . S
C50 C55 1.371 . S
C51 H17 0.930 . S
C51 C50 1.358 . S
C51 C52 1.405 . S
C52 H18 0.932 . S
C52 C51 1.405 . S
C52 C53 1.383 . S
C53 C52 1.383 . S
C53 C54 1.393 . S
C54 H19 0.931 . S
C54 C53 1.393 . S
C54 C55 1.382 . S
C55 H20 0.929 . S
C55 C50 1.371 . S
C55 C54 1.382 . S
C56 N24 1.423 . S
C56 C57 1.362 . S
C56 C61 1.388 . S
C57 H21 0.929 . S
C57 C56 1.362 . S
C57 C58 1.376 . S
C58 H22 0.931 . S
C58 C57 1.376 . S
C58 C59 1.396 . S
C59 C41 1.472 . S
C59 C58 1.396 . S
C59 C60 1.348 . S
C60 H23 0.929 . S
C60 C59 1.348 . S
C60 C61 1.443 . S
C61 H25 0.932 . S
C61 C56 1.388 . S
C61 C60 1.443 . S
H62 C89 0.929 . S
N63 C88 1.433 . S
N63 C94 1.435 . S
N63 C100 1.423 . S
H64 C90 0.930 . S
H65 C93 0.931 . S
H66 C92 0.929 . S
H67 C95 0.930 . S
H68 C96 0.932 . S
H69 C99 0.929 . S
H70 C98 0.931 . S
H71 C101 0.929 . S
H72 C105 0.932 . S
H73 C102 0.931 . S
H74 C104 0.929 . S
H75 C107 0.929 . S
H76 C108 0.930 . S
H77 C110 0.929 . S
H78 C111 0.931 . S
H79 C113 0.930 . S
H80 C114 0.932 . S
H81 C116 0.931 . S
H82 C117 0.929 . S
H83 C119 0.929 . S
H84 C120 0.931 . S
H85 C122 0.929 . S
N86 C106 1.433 . S
N86 C112 1.435 . S
N86 C118 1.423 . S
H87 C123 0.932 . S
C88 N63 1.433 . S
C88 C89 1.363 . S
C88 C93 1.370 . S
C89 H62 0.929 . S
C89 C88 1.363 . S
C89 C90 1.385 . S
C90 H64 0.930 . S
C90 C89 1.385 . S
C90 C91 1.357 . S
C91 C90 1.357 . S
C91 C92 1.406 . S
C92 H66 0.929 . S
C92 C91 1.406 . S
C92 C93 1.391 . S
C93 H65 0.931 . S
C93 C88 1.370 . S
C93 C92 1.391 . S
C94 N63 1.435 . S
C94 C95 1.358 . S
C94 C99 1.371 1_554 S
C95 H67 0.930 . S
C95 C94 1.358 . S
C95 C96 1.405 . S
C96 H68 0.932 . S
C96 C95 1.405 . S
C96 C97 1.383 1_554 S
C97 C96 1.383 1_556 S
C97 C98 1.393 . S
C98 H70 0.931 . S
C98 C97 1.393 . S
C98 C99 1.382 . S
C99 H69 0.929 . S
C99 C94 1.371 1_556 S
C99 C98 1.382 . S
C100 N63 1.423 . S
C100 C101 1.362 . S
C100 C105 1.388 . S
C101 H71 0.929 . S
C101 C100 1.362 . S
C101 C102 1.376 . S
C102 H73 0.931 . S
C102 C101 1.376 . S
C102 C103 1.396 . S
C103 C102 1.396 . S
C103 C104 1.348 . S
C103 C121 1.472 . S
C104 H74 0.929 . S
C104 C103 1.348 . S
C104 C105 1.443 . S
C105 H72 0.932 . S
C105 C100 1.388 . S
C105 C104 1.443 . S
C106 N86 1.433 . S
C106 C107 1.363 . S
C106 C111 1.370 . S
C107 H75 0.929 . S
C107 C106 1.363 . S
C107 C108 1.385 . S
C108 H76 0.930 . S
C108 C107 1.385 . S
C108 C109 1.357 . S
C109 C108 1.357 . S
C109 C110 1.406 . S
C110 H77 0.929 . S
C110 C109 1.406 . S
C110 C111 1.391 . S
C111 H78 0.931 . S
C111 C106 1.370 . S
C111 C110 1.391 . S
C112 N86 1.435 . S
C112 C113 1.358 . S
C112 C117 1.371 . S
C113 H79 0.930 . S
C113 C112 1.358 . S
C113 C114 1.405 . S
C114 H80 0.932 . S
C114 C113 1.405 . S
C114 C115 1.383 1_554 S
C115 C114 1.383 1_556 S
C115 C116 1.393 . S
C116 H81 0.931 . S
C116 C115 1.393 . S
C116 C117 1.382 1_556 S
C117 H82 0.929 . S
C117 C112 1.371 . S
C117 C116 1.382 1_554 S
C118 N86 1.423 . S
C118 C119 1.362 . S
C118 C123 1.388 . S
C119 H83 0.929 . S
C119 C118 1.362 . S
C119 C120 1.376 . S
C120 H84 0.931 . S
C120 C119 1.376 . S
C120 C121 1.396 . S
C121 C103 1.472 . S
C121 C120 1.396 . S
C121 C122 1.348 . S
C122 H85 0.929 . S
C122 C121 1.348 . S
C122 C123 1.443 . S
C123 H87 0.932 . S
C123 C118 1.388 . S
C123 C122 1.443 . S
H124 C151 0.918 1_554 S
N125 C150 1.433 1_554 S
N125 C156 1.435 . S
N125 C162 1.423 . S
H126 C152 0.930 . S
H127 C155 0.931 . S
H128 C154 0.929 . S
H129 C157 0.930 . S
H130 C158 0.932 . S
H131 C161 0.929 . S
H132 C160 0.931 . S
H133 C163 0.929 1_556 S
H134 C167 0.932 . S
H135 C164 0.931 1_556 S
H136 C166 0.929 . S
H137 C169 0.929 . S
H138 C170 0.930 . S
H139 C172 0.929 . S
H140 C173 0.931 . S
H141 C175 0.930 . S
H142 C176 0.932 . S
H143 C178 0.931 . S
H144 C179 0.929 . S
H145 C181 0.929 1_556 S
H146 C182 0.931 1_556 S
H147 C184 0.929 . S
N148 C168 1.433 1_554 S
N148 C174 1.435 . S
N148 C180 1.423 . S
H149 C185 0.932 . S
C150 N125 1.433 1_556 S
C150 C151 1.363 . S
C150 C155 1.370 . S
C151 H124 0.918 1_556 S
C151 C150 1.363 . S
C151 C152 1.385 . S
C152 H126 0.930 . S
C152 C151 1.385 . S
C152 C153 1.357 . S
C153 C152 1.357 . S
C153 C154 1.406 . S
C154 H128 0.929 . S
C154 C153 1.406 . S
C154 C155 1.391 . S
C155 H127 0.931 . S
C155 C150 1.370 . S
C155 C154 1.391 . S
C156 N125 1.435 . S
C156 C157 1.358 . S
C156 C161 1.371 . S
C157 H129 0.930 . S
C157 C156 1.358 . S
C157 C158 1.405 . S
C158 H130 0.932 . S
C158 C157 1.405 . S
C158 C159 1.383 . S
C159 C158 1.383 . S
C159 C160 1.393 . S
C160 H132 0.931 . S
C160 C159 1.393 . S
C160 C161 1.382 . S
C161 H131 0.929 . S
C161 C156 1.371 . S
C161 C160 1.382 . S
C162 N125 1.423 . S
C162 C163 1.362 . S
C162 C167 1.388 . S
C163 H133 0.929 1_554 S
C163 C162 1.362 . S
C163 C164 1.376 . S
C164 H135 0.931 1_554 S
C164 C163 1.376 . S
C164 C165 1.396 . S
C165 C164 1.396 . S
C165 C166 1.348 . S
C165 C183 1.472 . S
C166 H136 0.929 . S
C166 C165 1.348 . S
C166 C167 1.443 . S
C167 H134 0.932 . S
C167 C162 1.388 . S
C167 C166 1.443 . S
C168 N148 1.433 1_556 S
C168 C169 1.363 . S
C168 C173 1.370 . S
C169 H137 0.929 . S
C169 C168 1.363 . S
C169 C170 1.385 . S
C170 H138 0.930 . S
C170 C169 1.385 . S
C170 C171 1.357 . S
C171 C170 1.357 . S
C171 C172 1.406 . S
C172 H139 0.929 . S
C172 C171 1.406 . S
C172 C173 1.391 . S
C173 H140 0.931 . S
C173 C168 1.370 . S
C173 C172 1.391 . S
C174 N148 1.435 . S
C174 C175 1.358 . S
C174 C179 1.371 . S
C175 H141 0.930 . S
C175 C174 1.358 . S
C175 C176 1.405 . S
C176 H142 0.932 . S
C176 C175 1.405 . S
C176 C177 1.383 . S
C177 C176 1.383 . S
C177 C178 1.393 . S
C178 H143 0.931 . S
C178 C177 1.393 . S
C178 C179 1.382 . S
C179 H144 0.929 . S
C179 C174 1.371 . S
C179 C178 1.382 . S
C180 N148 1.423 . S
C180 C181 1.362 . S
C180 C185 1.388 . S
C181 H145 0.929 1_554 S
C181 C180 1.362 . S
C181 C182 1.376 . S
C182 H146 0.931 1_554 S
C182 C181 1.376 . S
C182 C183 1.396 . S
C183 C165 1.472 . S
C183 C182 1.396 . S
C183 C184 1.348 . S
C184 H147 0.929 . S
C184 C183 1.348 . S
C184 C185 1.443 . S
C185 H149 0.932 . S
C185 C180 1.388 . S
C185 C184 1.443 . S
H186 C213 0.929 . S
N187 C212 1.433 . S
N187 C218 1.435 1_554 S
N187 C224 1.423 . S
H188 C214 0.930 . S
H189 C217 0.931 . S
H190 C216 0.929 . S
H191 C219 0.930 1_554 S
H192 C220 0.932 . S
H193 C223 0.929 . S
H194 C222 0.931 . S
H195 C225 0.929 . S
H196 C229 0.932 . S
H197 C226 0.931 . S
H198 C228 0.929 . S
H199 C231 0.929 . S
H200 C232 0.930 . S
H201 C234 0.929 . S
H202 C235 0.931 . S
H203 C237 0.930 . S
H204 C238 0.932 . S
H205 C240 0.931 . S
H206 C241 0.929 . S
H207 C243 0.929 . S
H208 C244 0.931 . S
H209 C246 0.929 . S
N210 C230 1.433 . S
N210 C236 1.435 1_554 S
N210 C242 1.423 . S
H211 C247 0.932 . S
C212 N187 1.433 . S
C212 C213 1.363 . S
C212 C217 1.370 . S
C213 H186 0.929 . S
C213 C212 1.363 . S
C213 C214 1.385 . S
C214 H188 0.930 . S
C214 C213 1.385 . S
C214 C215 1.357 . S
C215 C214 1.357 . S
C215 C216 1.406 . S
C216 H190 0.929 . S
C216 C215 1.406 . S
C216 C217 1.391 . S
C217 H189 0.931 . S
C217 C212 1.370 . S
C217 C216 1.391 . S
C218 N187 1.435 1_556 S
C218 C219 1.358 . S
C218 C223 1.371 . S
C219 H191 0.930 1_556 S
C219 C218 1.358 . S
C219 C220 1.405 . S
C220 H192 0.932 . S
C220 C219 1.405 . S
C220 C221 1.383 . S
C221 C220 1.383 . S
C221 C222 1.393 . S
C222 H194 0.931 . S
C222 C221 1.393 . S
C222 C223 1.382 . S
C223 H193 0.929 . S
C223 C218 1.371 . S
C223 C222 1.382 . S
C224 N187 1.423 . S
C224 C225 1.362 . S
C224 C229 1.388 1_554 S
C225 H195 0.929 . S
C225 C224 1.362 . S
C225 C226 1.376 . S
C226 H197 0.931 . S
C226 C225 1.376 . S
C226 C227 1.396 . S
C227 C226 1.396 . S
C227 C228 1.348 1_554 S
C227 C245 1.472 . S
C228 H198 0.929 . S
C228 C227 1.348 1_556 S
C228 C229 1.443 . S
C229 H196 0.932 . S
C229 C224 1.388 1_556 S
C229 C228 1.443 . S
C230 N210 1.433 . S
C230 C231 1.363 . S
C230 C235 1.370 . S
C231 H199 0.929 . S
C231 C230 1.363 . S
C231 C232 1.385 . S
C232 H200 0.930 . S
C232 C231 1.385 . S
C232 C233 1.357 . S
C233 C232 1.357 . S
C233 C234 1.406 . S
C234 H201 0.929 . S
C234 C233 1.406 . S
C234 C235 1.391 . S
C235 H202 0.931 . S
C235 C230 1.370 . S
C235 C234 1.391 . S
C236 N210 1.435 1_556 S
C236 C237 1.358 . S
C236 C241 1.371 . S
C237 H203 0.930 . S
C237 C236 1.358 . S
C237 C238 1.405 . S
C238 H204 0.932 . S
C238 C237 1.405 . S
C238 C239 1.383 . S
C239 C238 1.383 . S
C239 C240 1.393 . S
C240 H205 0.931 . S
C240 C239 1.393 . S
C240 C241 1.382 . S
C241 H206 0.929 . S
C241 C236 1.371 . S
C241 C240 1.382 . S
C242 N210 1.423 . S
C242 C243 1.362 . S
C242 C247 1.388 1_554 S
C243 H207 0.929 . S
C243 C242 1.362 . S
C243 C244 1.376 . S
C244 H208 0.931 . S
C244 C243 1.376 . S
C244 C245 1.396 . S
C245 C227 1.472 . S
C245 C244 1.396 . S
C245 C246 1.348 1_554 S
C246 H209 0.929 . S
C246 C245 1.348 1_556 S
C246 C247 1.443 . S
C247 H211 0.932 . S
C247 C242 1.388 1_556 S
C247 C246 1.443 . S
H248 C275 0.929 . S
N249 C274 1.433 . S
N249 C280 1.435 . S
N249 C286 1.423 . S
H250 C276 0.930 . S
H251 C279 0.931 . S
H252 C278 0.929 . S
H253 C281 0.930 . S
H254 C282 0.932 . S
H255 C285 0.929 . S
H256 C284 0.931 . S
H257 C287 0.929 . S
H258 C291 0.932 . S
H259 C288 0.931 . S
H260 C290 0.929 . S
H261 C293 0.929 . S
H262 C294 0.930 . S
H263 C296 0.929 . S
H264 C297 0.931 . S
H265 C299 0.930 . S
H266 C300 0.932 . S
H267 C302 0.931 . S
H268 C303 0.929 . S
H269 C305 0.929 . S
H270 C306 0.931 . S
H271 C308 0.929 . S
N272 C292 1.433 . S
N272 C298 1.435 . S
N272 C304 1.423 . S
H273 C309 0.932 . S
C274 N249 1.433 . S
C274 C275 1.363 . S
C274 C279 1.370 . S
C275 H248 0.929 . S
C275 C274 1.363 . S
C275 C276 1.385 . S
C276 H250 0.930 . S
C276 C275 1.385 . S
C276 C277 1.357 . S
C277 C276 1.357 . S
C277 C278 1.406 . S
C278 H252 0.929 . S
C278 C277 1.406 . S
C278 C279 1.391 . S
C279 H251 0.931 . S
C279 C274 1.370 . S
C279 C278 1.391 . S
C280 N249 1.435 . S
C280 C281 1.358 . S
C280 C285 1.371 . S
C281 H253 0.930 . S
C281 C280 1.358 . S
C281 C282 1.405 . S
C282 H254 0.932 . S
C282 C281 1.405 . S
C282 C283 1.383 1_554 S
C283 C282 1.383 1_556 S
C283 C284 1.393 . S
C284 H256 0.931 . S
C284 C283 1.393 . S
C284 C285 1.382 1_556 S
C285 H255 0.929 . S
C285 C280 1.371 . S
C285 C284 1.382 1_554 S
C286 N249 1.423 . S
C286 C287 1.362 . S
C286 C291 1.388 . S
C287 H257 0.929 . S
C287 C286 1.362 . S
C287 C288 1.376 . S
C288 H259 0.931 . S
C288 C287 1.376 . S
C288 C289 1.396 . S
C289 C288 1.396 . S
C289 C290 1.348 . S
C289 C307 1.472 . S
C290 H260 0.929 . S
C290 C289 1.348 . S
C290 C291 1.443 . S
C291 H258 0.932 . S
C291 C286 1.388 . S
C291 C290 1.443 . S
C292 N272 1.433 . S
C292 C293 1.363 . S
C292 C297 1.370 . S
C293 H261 0.929 . S
C293 C292 1.363 . S
C293 C294 1.385 . S
C294 H262 0.930 . S
C294 C293 1.385 . S
C294 C295 1.357 . S
C295 C294 1.357 . S
C295 C296 1.406 . S
C296 H263 0.929 . S
C296 C295 1.406 . S
C296 C297 1.391 . S
C297 H264 0.931 . S
C297 C292 1.370 . S
C297 C296 1.391 . S
C298 N272 1.435 . S
C298 C299 1.358 . S
C298 C303 1.371 . S
C299 H265 0.930 . S
C299 C298 1.358 . S
C299 C300 1.405 . S
C300 H266 0.932 . S
C300 C299 1.405 . S
C300 C301 1.383 1_554 S
C301 C300 1.383 1_556 S
C301 C302 1.393 . S
C302 H267 0.931 . S
C302 C301 1.393 . S
C302 C303 1.382 1_556 S
C303 H268 0.929 . S
C303 C298 1.371 . S
C303 C302 1.382 1_554 S
C304 N272 1.423 . S
C304 C305 1.362 . S
C304 C309 1.388 . S
C305 H269 0.929 . S
C305 C304 1.362 . S
C305 C306 1.376 . S
C306 H270 0.931 . S
C306 C305 1.376 . S
C306 C307 1.396 . S
C307 C289 1.472 . S
C307 C306 1.396 . S
C307 C308 1.348 . S
C308 H271 0.929 . S
C308 C307 1.348 . S
C308 C309 1.443 . S
C309 H273 0.932 . S
C309 C304 1.388 . S
C309 C308 1.443 . S
H310 C337 0.929 . S
N311 C336 1.433 . S
N311 C342 1.435 . S
N311 C348 1.423 . S
H312 C338 0.930 . S
H313 C341 0.931 . S
H314 C340 0.929 . S
H315 C343 0.930 . S
H316 C344 0.932 . S
H317 C347 0.929 . S
H318 C346 0.931 . S
H319 C349 0.929 . S
H320 C353 0.932 . S
H321 C350 0.931 . S
H322 C352 0.929 . S
H323 C355 0.929 . S
H324 C356 0.930 . S
H325 C358 0.929 . S
H326 C359 0.931 . S
H327 C361 0.930 . S
H328 C362 0.932 . S
H329 C364 0.931 . S
H330 C365 0.929 . S
H331 C367 0.929 . S
H332 C368 0.931 . S
H333 C370 0.929 . S
N334 C354 1.433 . S
N334 C360 1.435 . S
N334 C366 1.423 . S
H335 C371 0.932 . S
C336 N311 1.433 . S
C336 C337 1.363 . S
C336 C341 1.370 . S
C337 H310 0.929 . S
C337 C336 1.363 . S
C337 C338 1.385 . S
C338 H312 0.930 . S
C338 C337 1.385 . S
C338 C339 1.357 . S
C339 C338 1.357 . S
C339 C340 1.406 . S
C340 H314 0.929 . S
C340 C339 1.406 . S
C340 C341 1.391 . S
C341 H313 0.931 . S
C341 C336 1.370 . S
C341 C340 1.391 . S
C342 N311 1.435 . S
C342 C343 1.358 . S
C342 C347 1.371 . S
C343 H315 0.930 . S
C343 C342 1.358 . S
C343 C344 1.405 . S
C344 H316 0.932 . S
C344 C343 1.405 . S
C344 C345 1.383 . S
C345 C344 1.383 . S
C345 C346 1.393 . S
C346 H318 0.931 . S
C346 C345 1.393 . S
C346 C347 1.382 . S
C347 H317 0.929 . S
C347 C342 1.371 . S
C347 C346 1.382 . S
C348 N311 1.423 . S
C348 C349 1.362 . S
C348 C353 1.388 . S
C349 H319 0.929 . S
C349 C348 1.362 . S
C349 C350 1.376 . S
C350 H321 0.931 . S
C350 C349 1.376 . S
C350 C351 1.396 . S
C351 C350 1.396 . S
C351 C352 1.348 . S
C351 C369 1.472 . S
C352 H322 0.929 . S
C352 C351 1.348 . S
C352 C353 1.443 . S
C353 H320 0.932 . S
C353 C348 1.388 . S
C353 C352 1.443 . S
C354 N334 1.433 . S
C354 C355 1.363 . S
C354 C359 1.370 . S
C355 H323 0.929 . S
C355 C354 1.363 . S
C355 C356 1.385 . S
C356 H324 0.930 . S
C356 C355 1.385 . S
C356 C357 1.357 . S
C357 C356 1.357 . S
C357 C358 1.406 . S
C358 H325 0.929 . S
C358 C357 1.406 . S
C358 C359 1.391 . S
C359 H326 0.931 . S
C359 C354 1.370 . S
C359 C358 1.391 . S
C360 N334 1.435 . S
C360 C361 1.358 . S
C360 C365 1.371 . S
C361 H327 0.930 . S
C361 C360 1.358 . S
C361 C362 1.405 . S
C362 H328 0.932 . S
C362 C361 1.405 . S
C362 C363 1.383 . S
C363 C362 1.383 . S
C363 C364 1.393 . S
C364 H329 0.931 . S
C364 C363 1.393 . S
C364 C365 1.382 . S
C365 H330 0.929 . S
C365 C360 1.371 . S
C365 C364 1.382 . S
C366 N334 1.423 . S
C366 C367 1.362 . S
C366 C371 1.388 . S
C367 H331 0.929 . S
C367 C366 1.362 . S
C367 C368 1.376 . S
C368 H332 0.931 . S
C368 C367 1.376 . S
C368 C369 1.396 . S
C369 C351 1.472 . S
C369 C368 1.396 . S
C369 C370 1.348 . S
C370 H333 0.929 . S
C370 C369 1.348 . S
C370 C371 1.443 . S
C371 H335 0.932 . S
C371 C366 1.388 . S
C371 C370 1.443 . S
C372 O399 1.312 . S
C372 O400 1.208 . S
C373 O394 1.331 . S
C373 O397 1.244 . S
C374 O396 1.264 . S
C374 O398 1.273 . S
Mg375 O377 1.936 . S
Mg375 O384 2.081 1_455 S
Mg375 O386 2.023 . S
Mg375 O390 2.031 1_455 S
Mg375 O399 2.291 . S
Mg376 O377 1.963 . S
Mg376 O387 1.942 1_455 S
Mg376 O388 1.955 . S
Mg376 O395 1.986 1_455 S
O377 Mg375 1.936 . S
O377 Mg376 1.963 . S
O377 Mg378 1.915 . S
Mg378 O377 1.915 . S
Mg378 O379 1.915 . S
Mg378 O383 2.013 . S
Mg378 O389 2.114 1_455 S
Mg378 O393 2.013 1_455 S
Mg378 O399 2.114 . S
O379 Mg378 1.915 . S
O379 Mg380 1.936 . S
O379 Mg381 1.963 . S
Mg380 O379 1.936 . S
Mg380 O389 2.291 1_455 S
Mg380 O394 2.081 . S
Mg380 O396 2.023 1_455 S
Mg380 O400 2.031 . S
Mg381 O379 1.963 . S
Mg381 O385 1.986 . S
Mg381 O397 1.942 . S
Mg381 O398 1.955 1_455 S
C382 O393 1.191 . S
C382 O395 1.307 . S
O383 Mg378 2.013 . S
O383 C402 1.191 . S
O384 Mg375 2.081 1_655 S
O384 C392 1.331 . S
O385 Mg381 1.986 . S
O385 C402 1.307 . S
O386 Mg375 2.023 . S
O386 C401 1.264 . S
O387 Mg376 1.942 1_655 S
O387 C392 1.244 . S
O388 Mg376 1.955 . S
O388 C401 1.273 . S
O389 Mg378 2.114 1_655 S
O389 Mg380 2.291 1_655 S
O389 C391 1.312 . S
O390 Mg375 2.031 1_655 S
O390 C391 1.208 . S
C391 O389 1.312 . S
C391 O390 1.208 . S
C392 O384 1.331 . S
C392 O387 1.244 . S
O393 Mg378 2.013 1_655 S
O393 C382 1.191 . S
O394 C373 1.331 . S
O394 Mg380 2.081 . S
O395 Mg376 1.986 1_655 S
O395 C382 1.307 . S
O396 C374 1.264 . S
O396 Mg380 2.023 1_655 S
O397 C373 1.244 . S
O397 Mg381 1.942 . S
O398 C374 1.273 . S
O398 Mg381 1.955 1_655 S
O399 C372 1.312 . S
O399 Mg375 2.291 . S
O399 Mg378 2.114 . S
O400 C372 1.208 . S
O400 Mg380 2.031 . S
C401 O386 1.264 . S
C401 O388 1.273 . S
C402 O383 1.191 . S
C402 O385 1.307 . S
C403 O430 1.312 . S
C403 O431 1.208 . S
C404 O425 1.331 . S
C404 O428 1.244 . S
C405 O427 1.264 . S
C405 O429 1.273 . S
Mg406 O408 1.936 1_545 S
Mg406 O415 2.081 1_545 S
Mg406 O417 2.023 . S
Mg406 O421 2.031 1_545 S
Mg406 O430 2.291 . S
Mg407 O408 1.963 . S
Mg407 O418 1.942 . S
Mg407 O419 1.955 1_565 S
Mg407 O426 1.986 . S
O408 Mg406 1.936 1_565 S
O408 Mg407 1.963 . S
O408 Mg409 1.915 1_565 S
Mg409 O408 1.915 1_545 S
Mg409 O410 1.915 . S
Mg409 O414 2.013 . S
Mg409 O420 2.114 1_545 S
Mg409 O424 2.013 1_545 S
Mg409 O430 2.114 . S
O410 Mg409 1.915 . S
O410 Mg411 1.936 . S
O410 Mg412 1.963 . S
Mg411 O410 1.936 . S
Mg411 O420 2.291 1_545 S
Mg411 O425 2.081 . S
Mg411 O427 2.023 1_545 S
Mg411 O431 2.031 . S
Mg412 O410 1.963 . S
Mg412 O416 1.986 . S
Mg412 O428 1.942 . S
Mg412 O429 1.955 1_545 S
C413 O424 1.191 . S
C413 O426 1.307 . S
O414 Mg409 2.013 . S
O414 C433 1.191 . S
O415 Mg406 2.081 1_565 S
O415 C423 1.331 . S
O416 Mg412 1.986 . S
O416 C433 1.307 . S
O417 Mg406 2.023 . S
O417 C432 1.264 . S
O418 Mg407 1.942 . S
O418 C423 1.244 . S
O419 Mg407 1.955 1_545 S
O419 C432 1.273 . S
O420 Mg409 2.114 1_565 S
O420 Mg411 2.291 1_565 S
O420 C422 1.312 . S
O421 Mg406 2.031 1_565 S
O421 C422 1.208 . S
C422 O420 1.312 . S
C422 O421 1.208 . S
C423 O415 1.331 . S
C423 O418 1.244 . S
O424 Mg409 2.013 1_565 S
O424 C413 1.191 . S
O425 C404 1.331 . S
O425 Mg411 2.081 . S
O426 Mg407 1.986 . S
O426 C413 1.307 . S
O427 C405 1.264 . S
O427 Mg411 2.023 1_565 S
O428 C404 1.244 . S
O428 Mg412 1.942 . S
O429 C405 1.273 . S
O429 Mg412 1.955 1_565 S
O430 C403 1.312 . S
O430 Mg406 2.291 . S
O430 Mg409 2.114 . S
O431 C403 1.208 . S
O431 Mg411 2.031 . S
C432 O417 1.264 . S
C432 O419 1.273 . S
C433 O414 1.191 . S
C433 O416 1.307 . S
C434 O461 1.312 . S
C434 O462 1.208 . S
C435 O456 1.331 . S
C435 O459 1.244 . S
C436 O458 1.264 . S
C436 O460 1.273 . S
Mg437 O439 1.936 . S
Mg437 O446 2.081 . S
Mg437 O448 2.023 . S
Mg437 O452 2.031 . S
Mg437 O461 2.291 . S
Mg438 O439 1.963 . S
Mg438 O449 1.942 . S
Mg438 O450 1.955 . S
Mg438 O457 1.986 . S
O439 Mg437 1.936 . S
O439 Mg438 1.963 . S
O439 Mg440 1.915 . S
Mg440 O439 1.915 . S
Mg440 O441 1.915 . S
Mg440 O445 2.013 . S
Mg440 O451 2.114 . S
Mg440 O455 2.013 . S
Mg440 O461 2.114 . S
O441 Mg440 1.915 . S
O441 Mg442 1.936 . S
O441 Mg443 1.963 . S
Mg442 O441 1.936 . S
Mg442 O451 2.291 . S
Mg442 O456 2.081 . S
Mg442 O458 2.023 . S
Mg442 O462 2.031 . S
Mg443 O441 1.963 . S
Mg443 O447 1.986 . S
Mg443 O459 1.942 . S
Mg443 O460 1.955 . S
C444 O455 1.191 . S
C444 O457 1.307 . S
O445 Mg440 2.013 . S
O445 C464 1.191 . S
O446 Mg437 2.081 . S
O446 C454 1.331 . S
O447 Mg443 1.986 . S
O447 C464 1.307 . S
O448 Mg437 2.023 . S
O448 C463 1.264 . S
O449 Mg438 1.942 . S
O449 C454 1.244 . S
O450 Mg438 1.955 . S
O450 C463 1.273 . S
O451 Mg440 2.114 . S
O451 Mg442 2.291 . S
O451 C453 1.312 . S
O452 Mg437 2.031 . S
O452 C453 1.208 . S
C453 O451 1.312 . S
C453 O452 1.208 . S
C454 O446 1.331 . S
C454 O449 1.244 . S
O455 Mg440 2.013 . S
O455 C444 1.191 . S
O456 C435 1.331 . S
O456 Mg442 2.081 . S
O457 Mg438 1.986 . S
O457 C444 1.307 . S
O458 C436 1.264 . S
O458 Mg442 2.023 . S
O459 C435 1.244 . S
O459 Mg443 1.942 . S
O460 C436 1.273 . S
O460 Mg443 1.955 . S
O461 C434 1.312 . S
O461 Mg437 2.291 . S
O461 Mg440 2.114 . S
O462 C434 1.208 . S
O462 Mg442 2.031 . S
C463 O448 1.264 . S
C463 O450 1.273 . S
C464 O445 1.191 . S
C464 O447 1.307 . S
C465 C466 1.349 . S
C465 C467 1.327 . S
C465 H490 0.950 . S
C466 C465 1.349 . S
C466 C482 1.349 . S
C467 C465 1.327 . S
C467 C486 1.429 . S
C467 H491 0.950 . S
C468 C485 1.574 . S
C468 C487 1.368 . S
C468 H492 0.949 . S
H469 C473 0.949 . S
C470 C471 1.349 . S
C470 C472 1.327 . S
C470 H493 0.950 . S
C471 C470 1.349 . S
C471 C483 1.349 . S
C472 C470 1.327 . S
C472 C488 1.429 . S
C472 H494 0.950 . S
C473 H469 0.949 . S
C473 C481 1.574 . S
C473 C489 1.368 . S
H474 C482 0.950 . S
H475 C480 0.950 . S
H476 C481 0.949 . S
H477 C483 0.950 . S
H478 C484 0.950 . S
H479 C485 0.949 . S
C480 H475 0.950 . S
C480 C482 1.327 . S
C480 C486 1.429 . S
C481 C473 1.574 . S
C481 H476 0.949 . S
C481 C487 1.368 . S
C482 C466 1.349 . S
C482 H474 0.950 . S
C482 C480 1.327 . S
C483 C471 1.349 . S
C483 H477 0.950 . S
C483 C484 1.327 . S
C484 H478 0.950 . S
C484 C483 1.327 . S
C484 C488 1.429 . S
C485 C468 1.574 . S
C485 H479 0.949 . S
C485 C489 1.368 . S
C486 C467 1.429 . S
C486 C480 1.429 . S
C486 C487 1.523 . S
C487 C468 1.368 . S
C487 C481 1.368 . S
C487 C486 1.523 . S
C488 C472 1.429 . S
C488 C484 1.429 . S
C488 C489 1.523 . S
C489 C473 1.368 . S
C489 C485 1.368 . S
C489 C488 1.523 . S
H490 C465 0.950 . S
H491 C467 0.950 . S
H492 C468 0.949 . S
H493 C470 0.950 . S
H494 C472 0.950 . S
C495 C496 1.349 . S
C495 C497 1.327 . S
C495 H520 0.950 . S
C496 C495 1.349 . S
C496 C512 1.349 . S
C497 C495 1.327 . S
C497 C516 1.429 . S
C497 H521 0.950 . S
C498 C515 1.574 . S
C498 C517 1.368 . S
C498 H522 0.949 . S
H499 C503 0.949 . S
C500 C501 1.349 . S
C500 C502 1.327 . S
C500 H523 0.950 . S
C501 C500 1.349 . S
C501 C513 1.349 . S
C502 C500 1.327 . S
C502 C518 1.429 . S
C502 H524 0.950 . S
C503 H499 0.949 . S
C503 C511 1.574 . S
C503 C519 1.368 . S
H504 C512 0.950 . S
H505 C510 0.950 . S
H506 C511 0.949 . S
H507 C513 0.950 . S
H508 C514 0.950 . S
H509 C515 0.949 . S
C510 H505 0.950 . S
C510 C512 1.327 . S
C510 C516 1.429 . S
C511 C503 1.574 . S
C511 H506 0.949 . S
C511 C517 1.368 . S
C512 C496 1.349 . S
C512 H504 0.950 . S
C512 C510 1.327 . S
C513 C501 1.349 . S
C513 H507 0.950 . S
C513 C514 1.327 . S
C514 H508 0.950 . S
C514 C513 1.327 . S
C514 C518 1.429 . S
C515 C498 1.574 . S
C515 H509 0.949 . S
C515 C519 1.368 . S
C516 C497 1.429 . S
C516 C510 1.429 . S
C516 C517 1.523 . S
C517 C498 1.368 . S
C517 C511 1.368 . S
C517 C516 1.523 . S
C518 C502 1.429 . S
C518 C514 1.429 . S
C518 C519 1.523 . S
C519 C503 1.368 . S
C519 C515 1.368 . S
C519 C518 1.523 . S
H520 C495 0.950 . S
H521 C497 0.950 . S
H522 C498 0.949 . S
H523 C500 0.950 . S
H524 C502 0.950 . S
C525 C526 1.349 . S
C525 C527 1.327 . S
C525 H550 0.950 . S
C526 C525 1.349 . S
C526 C542 1.349 . S
C527 C525 1.327 . S
C527 C546 1.429 . S
C527 H551 0.950 . S
C528 C545 1.574 . S
C528 C547 1.368 . S
C528 H552 0.949 . S
H529 C533 0.949 . S
C530 C531 1.349 . S
C530 C532 1.327 . S
C530 H553 0.950 . S
C531 C530 1.349 . S
C531 C543 1.349 . S
C532 C530 1.327 . S
C532 C548 1.429 . S
C532 H554 0.950 . S
C533 H529 0.949 . S
C533 C541 1.574 . S
C533 C549 1.368 . S
H534 C542 0.950 . S
H535 C540 0.950 . S
H536 C541 0.949 . S
H537 C543 0.950 . S
H538 C544 0.950 . S
H539 C545 0.949 . S
C540 H535 0.950 . S
C540 C542 1.327 . S
C540 C546 1.429 . S
C541 C533 1.574 . S
C541 H536 0.949 . S
C541 C547 1.368 . S
C542 C526 1.349 . S
C542 H534 0.950 . S
C542 C540 1.327 . S
C543 C531 1.349 . S
C543 H537 0.950 . S
C543 C544 1.327 . S
C544 H538 0.950 . S
C544 C543 1.327 . S
C544 C548 1.429 . S
C545 C528 1.574 . S
C545 H539 0.949 . S
C545 C549 1.368 . S
C546 C527 1.429 . S
C546 C540 1.429 . S
C546 C547 1.523 . S
C547 C528 1.368 . S
C547 C541 1.368 . S
C547 C546 1.523 . S
C548 C532 1.429 . S
C548 C544 1.429 . S
C548 C549 1.523 . S
C549 C533 1.368 . S
C549 C545 1.368 . S
C549 C548 1.523 . S
H550 C525 0.950 . S
H551 C527 0.950 . S
H552 C528 0.949 . S
H553 C530 0.950 . S
H554 C532 0.950 . S
C555 C556 1.349 . S
C555 C557 1.327 . S
C555 H580 0.950 . S
C556 C555 1.349 . S
C556 C572 1.349 . S
C557 C555 1.327 . S
C557 C576 1.429 . S
C557 H581 0.950 . S
C558 C575 1.574 . S
C558 C577 1.368 . S
C558 H582 0.949 . S
H559 C563 0.949 . S
C560 C561 1.349 . S
C560 C562 1.327 . S
C560 H583 0.950 . S
C561 C560 1.349 . S
C561 C573 1.349 . S
C562 C560 1.327 . S
C562 C578 1.429 . S
C562 H584 0.950 . S
C563 H559 0.949 . S
C563 C571 1.574 . S
C563 C579 1.368 . S
H564 C572 0.950 . S
H565 C570 0.950 . S
H566 C571 0.949 . S
H567 C573 0.950 . S
H568 C574 0.950 . S
H569 C575 0.949 . S
C570 H565 0.950 . S
C570 C572 1.327 . S
C570 C576 1.429 . S
C571 C563 1.574 . S
C571 H566 0.949 . S
C571 C577 1.368 . S
C572 C556 1.349 . S
C572 H564 0.950 . S
C572 C570 1.327 . S
C573 C561 1.349 . S
C573 H567 0.950 . S
C573 C574 1.327 . S
C574 H568 0.950 . S
C574 C573 1.327 . S
C574 C578 1.429 . S
C575 C558 1.574 . S
C575 H569 0.949 . S
C575 C579 1.368 . S
C576 C557 1.429 . S
C576 C570 1.429 . S
C576 C577 1.523 . S
C577 C558 1.368 . S
C577 C571 1.368 . S
C577 C576 1.523 . S
C578 C562 1.429 . S
C578 C574 1.429 . S
C578 C579 1.523 . S
C579 C563 1.368 . S
C579 C575 1.368 . S
C579 C578 1.523 . S
H580 C555 0.950 . S
H581 C557 0.950 . S
H582 C558 0.949 . S
H583 C560 0.950 . S
H584 C562 0.950 . S
C585 C586 1.349 . S
C585 C587 1.327 . S
C585 H610 0.950 . S
C586 C585 1.349 . S
C586 C602 1.349 . S
C587 C585 1.327 . S
C587 C606 1.429 . S
C587 H611 0.950 . S
C588 C605 1.574 . S
C588 C607 1.368 . S
C588 H612 0.949 . S
H589 C593 0.949 . S
C590 C591 1.349 . S
C590 C592 1.327 . S
C590 H613 0.950 . S
C591 C590 1.349 . S
C591 C603 1.349 . S
C592 C590 1.327 . S
C592 C608 1.429 . S
C592 H614 0.950 . S
C593 H589 0.949 . S
C593 C601 1.574 . S
C593 C609 1.368 . S
H594 C602 0.950 . S
H595 C600 0.950 . S
H596 C601 0.949 . S
H597 C603 0.950 . S
H598 C604 0.950 . S
H599 C605 0.949 . S
C600 H595 0.950 . S
C600 C602 1.327 . S
C600 C606 1.429 . S
C601 C593 1.574 . S
C601 H596 0.949 . S
C601 C607 1.368 . S
C602 C586 1.349 . S
C602 H594 0.950 . S
C602 C600 1.327 . S
C603 C591 1.349 . S
C603 H597 0.950 . S
C603 C604 1.327 . S
C604 H598 0.950 . S
C604 C603 1.327 . S
C604 C608 1.429 . S
C605 C588 1.574 . S
C605 H599 0.949 . S
C605 C609 1.368 . S
C606 C587 1.429 . S
C606 C600 1.429 . S
C606 C607 1.523 . S
C607 C588 1.368 . S
C607 C601 1.368 . S
C607 C606 1.523 . S
C608 C592 1.429 . S
C608 C604 1.429 . S
C608 C609 1.523 . S
C609 C593 1.368 . S
C609 C605 1.368 . S
C609 C608 1.523 . S
H610 C585 0.950 . S
H611 C587 0.950 . S
H612 C588 0.949 . S
H613 C590 0.950 . S
H614 C592 0.950 . S
C615 C616 1.349 . S
C615 C617 1.327 . S
C615 H640 0.950 . S
C616 C615 1.349 . S
C616 C632 1.349 . S
C617 C615 1.327 . S
C617 C636 1.429 . S
C617 H641 0.950 . S
C618 C635 1.574 . S
C618 C637 1.368 . S
C618 H642 0.949 . S
H619 C623 0.949 . S
C620 C621 1.349 . S
C620 C622 1.327 . S
C620 H643 0.950 . S
C621 C620 1.349 . S
C621 C633 1.349 . S
C622 C620 1.327 . S
C622 C638 1.429 . S
C622 H644 0.950 . S
C623 H619 0.949 . S
C623 C631 1.574 . S
C623 C639 1.368 . S
H624 C632 0.950 . S
H625 C630 0.950 . S
H626 C631 0.949 . S
H627 C633 0.950 . S
H628 C634 0.950 . S
H629 C635 0.949 . S
C630 H625 0.950 . S
C630 C632 1.327 . S
C630 C636 1.429 . S
C631 C623 1.574 . S
C631 H626 0.949 . S
C631 C637 1.368 . S
C632 C616 1.349 . S
C632 H624 0.950 . S
C632 C630 1.327 . S
C633 C621 1.349 . S
C633 H627 0.950 . S
C633 C634 1.327 . S
C634 H628 0.950 . S
C634 C633 1.327 . S
C634 C638 1.429 . S
C635 C618 1.574 . S
C635 H629 0.949 . S
C635 C639 1.368 . S
C636 C617 1.429 . S
C636 C630 1.429 . S
C636 C637 1.523 . S
C637 C618 1.368 . S
C637 C631 1.368 . S
C637 C636 1.523 . S
C638 C622 1.429 . S
C638 C634 1.429 . S
C638 C639 1.523 . S
C639 C623 1.368 . S
C639 C635 1.368 . S
C639 C638 1.523 . S
H640 C615 0.950 . S
H641 C617 0.950 . S
H642 C618 0.949 . S
H643 C620 0.950 . S
H644 C622 0.950 . S
C645 C646 1.349 . S
C645 C647 1.327 . S
C645 H670 0.950 . S
C646 C645 1.349 . S
C646 C662 1.349 . S
C647 C645 1.327 . S
C647 C666 1.429 . S
C647 H671 0.950 . S
C648 C665 1.574 . S
C648 C667 1.368 . S
C648 H672 0.949 . S
H649 C653 0.949 . S
C650 C651 1.349 . S
C650 C652 1.327 . S
C650 H673 0.950 . S
C651 C650 1.349 . S
C651 C663 1.349 . S
C652 C650 1.327 . S
C652 C668 1.429 . S
C652 H674 0.950 . S
C653 H649 0.949 . S
C653 C661 1.574 . S
C653 C669 1.368 . S
H654 C662 0.950 . S
H655 C660 0.950 . S
H656 C661 0.949 . S
H657 C663 0.950 . S
H658 C664 0.950 . S
H659 C665 0.949 . S
C660 H655 0.950 . S
C660 C662 1.327 . S
C660 C666 1.429 . S
C661 C653 1.574 . S
C661 H656 0.949 . S
C661 C667 1.368 . S
C662 C646 1.349 . S
C662 H654 0.950 . S
C662 C660 1.327 . S
C663 C651 1.349 . S
C663 H657 0.950 . S
C663 C664 1.327 . S
C664 H658 0.950 . S
C664 C663 1.327 . S
C664 C668 1.429 . S
C665 C648 1.574 . S
C665 H659 0.949 . S
C665 C669 1.368 . S
C666 C647 1.429 . S
C666 C660 1.429 . S
C666 C667 1.523 . S
C667 C648 1.368 . S
C667 C661 1.368 . S
C667 C666 1.523 . S
C668 C652 1.429 . S
C668 C664 1.429 . S
C668 C669 1.523 . S
C669 C653 1.368 . S
C669 C665 1.368 . S
C669 C668 1.523 . S
H670 C645 0.950 . S
H671 C647 0.950 . S
H672 C648 0.949 . S
H673 C650 0.950 . S
H674 C652 0.950 . S
C675 C676 1.349 . S
C675 C677 1.327 . S
C675 H700 0.950 . S
C676 C675 1.349 . S
C676 C692 1.349 . S
C677 C675 1.327 . S
C677 C696 1.429 . S
C677 H701 0.950 . S
C678 C695 1.574 . S
C678 C697 1.368 . S
C678 H702 0.949 . S
H679 C683 0.949 . S
C680 C681 1.349 . S
C680 C682 1.327 . S
C680 H703 0.950 . S
C681 C680 1.349 . S
C681 C693 1.349 . S
C682 C680 1.327 . S
C682 C698 1.429 . S
C682 H704 0.950 . S
C683 H679 0.949 . S
C683 C691 1.574 . S
C683 C699 1.368 . S
H684 C692 0.950 . S
H685 C690 0.950 . S
H686 C691 0.949 . S
H687 C693 0.950 . S
H688 C694 0.950 . S
H689 C695 0.949 . S
C690 H685 0.950 . S
C690 C692 1.327 . S
C690 C696 1.429 . S
C691 C683 1.574 . S
C691 H686 0.949 . S
C691 C697 1.368 . S
C692 C676 1.349 . S
C692 H684 0.950 . S
C692 C690 1.327 . S
C693 C681 1.349 . S
C693 H687 0.950 . S
C693 C694 1.327 . S
C694 H688 0.950 . S
C694 C693 1.327 . S
C694 C698 1.429 . S
C695 C678 1.574 . S
C695 H689 0.949 . S
C695 C699 1.368 . S
C696 C677 1.429 . S
C696 C690 1.429 . S
C696 C697 1.523 . S
C697 C678 1.368 . S
C697 C691 1.368 . S
C697 C696 1.523 . S
C698 C682 1.429 . S
C698 C694 1.429 . S
C698 C699 1.523 . S
C699 C683 1.368 . S
C699 C695 1.368 . S
C699 C698 1.523 . S
H700 C675 0.950 . S
H701 C677 0.950 . S
H702 C678 0.949 . S
H703 C680 0.950 . S
H704 C682 0.950 . S
C705 C706 1.349 . S
C705 C707 1.327 . S
C705 H730 0.950 . S
C706 C705 1.349 . S
C706 C722 1.349 . S
C707 C705 1.327 . S
C707 C726 1.429 . S
C707 H731 0.950 . S
C708 C725 1.574 . S
C708 C727 1.368 . S
C708 H732 0.949 . S
H709 C713 0.949 . S
C710 C711 1.349 . S
C710 C712 1.327 . S
C710 H733 0.950 . S
C711 C710 1.349 . S
C711 C723 1.349 . S
C712 C710 1.327 . S
C712 C728 1.429 . S
C712 H734 0.950 . S
C713 H709 0.949 . S
C713 C721 1.574 . S
C713 C729 1.368 . S
H714 C722 0.950 . S
H715 C720 0.950 . S
H716 C721 0.949 . S
H717 C723 0.950 . S
H718 C724 0.950 . S
H719 C725 0.949 . S
C720 H715 0.950 . S
C720 C722 1.327 . S
C720 C726 1.429 . S
C721 C713 1.574 . S
C721 H716 0.949 . S
C721 C727 1.368 . S
C722 C706 1.349 . S
C722 H714 0.950 . S
C722 C720 1.327 . S
C723 C711 1.349 . S
C723 H717 0.950 . S
C723 C724 1.327 . S
C724 H718 0.950 . S
C724 C723 1.327 . S
C724 C728 1.429 . S
C725 C708 1.574 . S
C725 H719 0.949 . S
C725 C729 1.368 . S
C726 C707 1.429 . S
C726 C720 1.429 . S
C726 C727 1.523 . S
C727 C708 1.368 . S
C727 C721 1.368 . S
C727 C726 1.523 . S
C728 C712 1.429 . S
C728 C724 1.429 . S
C728 C729 1.523 . S
C729 C713 1.368 . S
C729 C725 1.368 . S
C729 C728 1.523 . S
H730 C705 0.950 . S
H731 C707 0.950 . S
H732 C708 0.949 . S
H733 C710 0.950 . S
H734 C712 0.950 . S
C735 C736 1.349 . S
C735 C737 1.327 . S
C735 H760 0.950 . S
C736 C735 1.349 . S
C736 C752 1.349 . S
C737 C735 1.327 . S
C737 C756 1.429 . S
C737 H761 0.950 . S
C738 C755 1.574 . S
C738 C757 1.368 . S
C738 H762 0.949 . S
H739 C743 0.949 . S
C740 C741 1.349 . S
C740 C742 1.327 . S
C740 H763 0.950 . S
C741 C740 1.349 . S
C741 C753 1.349 . S
C742 C740 1.327 . S
C742 C758 1.429 . S
C742 H764 0.950 . S
C743 H739 0.949 . S
C743 C751 1.574 . S
C743 C759 1.368 . S
H744 C752 0.950 . S
H745 C750 0.950 . S
H746 C751 0.949 . S
H747 C753 0.950 . S
H748 C754 0.950 . S
H749 C755 0.949 . S
C750 H745 0.950 . S
C750 C752 1.327 . S
C750 C756 1.429 . S
C751 C743 1.574 . S
C751 H746 0.949 . S
C751 C757 1.368 . S
C752 C736 1.349 . S
C752 H744 0.950 . S
C752 C750 1.327 . S
C753 C741 1.349 . S
C753 H747 0.950 . S
C753 C754 1.327 . S
C754 H748 0.950 . S
C754 C753 1.327 . S
C754 C758 1.429 . S
C755 C738 1.574 . S
C755 H749 0.949 . S
C755 C759 1.368 . S
C756 C737 1.429 . S
C756 C750 1.429 . S
C756 C757 1.523 . S
C757 C738 1.368 . S
C757 C751 1.368 . S
C757 C756 1.523 . S
C758 C742 1.429 . S
C758 C754 1.429 . S
C758 C759 1.523 . S
C759 C743 1.368 . S
C759 C755 1.368 . S
C759 C758 1.523 . S
H760 C735 0.950 . S
H761 C737 0.950 . S
H762 C738 0.949 . S
H763 C740 0.950 . S
H764 C742 0.950 . S
C765 C766 1.349 1_556 S
C765 C767 1.327 . S
C765 H790 0.950 . S
C766 C765 1.349 1_554 S
C766 C782 1.349 . S
C767 C765 1.327 . S
C767 C786 1.429 . S
C767 H791 0.950 . S
C768 C785 1.574 . S
C768 C787 1.368 . S
C768 H792 0.949 . S
H769 C773 0.949 . S
C770 C771 1.349 . S
C770 C772 1.327 . S
C770 H793 0.950 . S
C771 C770 1.349 . S
C771 C783 1.349 . S
C772 C770 1.327 . S
C772 C788 1.429 . S
C772 H794 0.950 . S
C773 H769 0.949 . S
C773 C781 1.574 . S
C773 C789 1.368 . S
H774 C782 0.950 . S
H775 C780 0.950 . S
H776 C781 0.949 . S
H777 C783 0.950 . S
H778 C784 0.950 . S
H779 C785 0.949 . S
C780 H775 0.950 . S
C780 C782 1.327 1_556 S
C780 C786 1.429 . S
C781 C773 1.574 . S
C781 H776 0.949 . S
C781 C787 1.368 . S
C782 C766 1.349 . S
C782 H774 0.950 . S
C782 C780 1.327 1_554 S
C783 C771 1.349 . S
C783 H777 0.950 . S
C783 C784 1.327 . S
C784 H778 0.950 . S
C784 C783 1.327 . S
C784 C788 1.429 . S
C785 C768 1.574 . S
C785 H779 0.949 . S
C785 C789 1.368 . S
C786 C767 1.429 . S
C786 C780 1.429 . S
C786 C787 1.523 . S
C787 C768 1.368 . S
C787 C781 1.368 . S
C787 C786 1.523 . S
C788 C772 1.429 . S
C788 C784 1.429 . S
C788 C789 1.523 . S
C789 C773 1.368 . S
C789 C785 1.368 . S
C789 C788 1.523 . S
H790 C765 0.950 . S
H791 C767 0.950 . S
H792 C768 0.949 . S
H793 C770 0.950 . S
H794 C772 0.950 . S
C795 C796 1.349 . S
C795 C797 1.327 . S
C795 H820 0.950 . S
C796 C795 1.349 . S
C796 C812 1.349 . S
C797 C795 1.327 . S
C797 C816 1.429 . S
C797 H821 0.950 . S
C798 C815 1.574 . S
C798 C817 1.368 . S
C798 H822 0.949 . S
H799 C803 0.949 . S
C800 C801 1.349 . S
C800 C802 1.327 . S
C800 H823 0.950 . S
C801 C800 1.349 . S
C801 C813 1.349 . S
C802 C800 1.327 . S
C802 C818 1.429 . S
C802 H824 0.950 . S
C803 H799 0.949 . S
C803 C811 1.574 . S
C803 C819 1.368 . S
H804 C812 0.950 . S
H805 C810 0.950 . S
H806 C811 0.949 . S
H807 C813 0.950 . S
H808 C814 0.950 . S
H809 C815 0.949 . S
C810 H805 0.950 . S
C810 C812 1.327 . S
C810 C816 1.429 . S
C811 C803 1.574 . S
C811 H806 0.949 . S
C811 C817 1.368 . S
C812 C796 1.349 . S
C812 H804 0.950 . S
C812 C810 1.327 . S
C813 C801 1.349 . S
C813 H807 0.950 . S
C813 C814 1.327 . S
C814 H808 0.950 . S
C814 C813 1.327 . S
C814 C818 1.429 . S
C815 C798 1.574 . S
C815 H809 0.949 . S
C815 C819 1.368 . S
C816 C797 1.429 . S
C816 C810 1.429 . S
C816 C817 1.523 . S
C817 C798 1.368 . S
C817 C811 1.368 . S
C817 C816 1.523 . S
C818 C802 1.429 . S
C818 C814 1.429 . S
C818 C819 1.523 . S
C819 C803 1.368 . S
C819 C815 1.368 . S
C819 C818 1.523 . S
H820 C795 0.950 . S
H821 C797 0.950 . S
H822 C798 0.949 . S
H823 C800 0.950 . S
H824 C802 0.950 . S
C825 C826 1.349 . S
C825 C827 1.327 . S
C825 H850 0.950 . S
C826 C825 1.349 . S
C826 C842 1.349 . S
C827 C825 1.327 . S
C827 C846 1.429 . S
C827 H851 0.950 . S
C828 C845 1.574 . S
C828 C847 1.368 . S
C828 H852 0.949 . S
H829 C833 0.949 . S
C830 C831 1.349 . S
C830 C832 1.327 . S
C830 H853 0.950 . S
C831 C830 1.349 . S
C831 C843 1.349 . S
C832 C830 1.327 . S
C832 C848 1.429 . S
C832 H854 0.950 . S
C833 H829 0.949 . S
C833 C841 1.574 . S
C833 C849 1.368 . S
H834 C842 0.950 . S
H835 C840 0.950 . S
H836 C841 0.949 . S
H837 C843 0.950 . S
H838 C844 0.950 . S
H839 C845 0.949 . S
C840 H835 0.950 . S
C840 C842 1.327 . S
C840 C846 1.429 . S
C841 C833 1.574 . S
C841 H836 0.949 . S
C841 C847 1.368 . S
C842 C826 1.349 . S
C842 H834 0.950 . S
C842 C840 1.327 . S
C843 C831 1.349 . S
C843 H837 0.950 . S
C843 C844 1.327 . S
C844 H838 0.950 . S
C844 C843 1.327 . S
C844 C848 1.429 . S
C845 C828 1.574 . S
C845 H839 0.949 . S
C845 C849 1.368 . S
C846 C827 1.429 . S
C846 C840 1.429 . S
C846 C847 1.523 . S
C847 C828 1.368 . S
C847 C841 1.368 . S
C847 C846 1.523 . S
C848 C832 1.429 . S
C848 C844 1.429 . S
C848 C849 1.523 . S
C849 C833 1.368 . S
C849 C845 1.368 . S
C849 C848 1.523 . S
H850 C825 0.950 . S
H851 C827 0.950 . S
H852 C828 0.949 . S
H853 C830 0.950 . S
H854 C832 0.950 . S
C855 C856 1.349 . S
C855 C857 1.327 . S
C855 H880 0.950 . S
C856 C855 1.349 . S
C856 C872 1.349 . S
C857 C855 1.327 . S
C857 C876 1.429 . S
C857 H881 0.950 . S
C858 C875 1.574 . S
C858 C877 1.368 . S
C858 H882 0.949 . S
H859 C863 0.949 . S
C860 C861 1.349 . S
C860 C862 1.327 . S
C860 H883 0.950 . S
C861 C860 1.349 . S
C861 C873 1.349 . S
C862 C860 1.327 . S
C862 C878 1.429 . S
C862 H884 0.950 . S
C863 H859 0.949 . S
C863 C871 1.574 . S
C863 C879 1.368 . S
H864 C872 0.950 . S
H865 C870 0.950 . S
H866 C871 0.949 . S
H867 C873 0.950 . S
H868 C874 0.950 . S
H869 C875 0.949 . S
C870 H865 0.950 . S
C870 C872 1.327 . S
C870 C876 1.429 . S
C871 C863 1.574 . S
C871 H866 0.949 . S
C871 C877 1.368 . S
C872 C856 1.349 . S
C872 H864 0.950 . S
C872 C870 1.327 . S
C873 C861 1.349 . S
C873 H867 0.950 . S
C873 C874 1.327 . S
C874 H868 0.950 . S
C874 C873 1.327 . S
C874 C878 1.429 . S
C875 C858 1.574 . S
C875 H869 0.949 . S
C875 C879 1.368 . S
C876 C857 1.429 . S
C876 C870 1.429 . S
C876 C877 1.523 . S
C877 C858 1.368 . S
C877 C871 1.368 . S
C877 C876 1.523 . S
C878 C862 1.429 . S
C878 C874 1.429 . S
C878 C879 1.523 . S
C879 C863 1.368 . S
C879 C875 1.368 . S
C879 C878 1.523 . S
H880 C855 0.950 . S
H881 C857 0.950 . S
H882 C858 0.949 . S
H883 C860 0.950 . S
H884 C862 0.950 . S
C885 C886 1.349 . S
C885 C887 1.327 . S
C885 H910 0.950 1_556 S
C886 C885 1.349 . S
C886 C902 1.349 . S
C887 C885 1.327 . S
C887 C906 1.429 . S
C887 H911 0.950 . S
C888 C905 1.574 . S
C888 C907 1.368 . S
C888 H912 0.949 . S
H889 C893 0.949 . S
C890 C891 1.349 . S
C890 C892 1.327 . S
C890 H913 0.950 . S
C891 C890 1.349 . S
C891 C903 1.349 . S
C892 C890 1.327 . S
C892 C908 1.429 . S
C892 H914 0.950 . S
C893 H889 0.949 . S
C893 C901 1.574 . S
C893 C909 1.368 . S
H894 C902 0.950 . S
H895 C900 0.950 . S
H896 C901 0.949 . S
H897 C903 0.950 . S
H898 C904 0.950 . S
H899 C905 0.949 . S
C900 H895 0.950 . S
C900 C902 1.327 . S
C900 C906 1.429 . S
C901 C893 1.574 . S
C901 H896 0.949 . S
C901 C907 1.368 . S
C902 C886 1.349 . S
C902 H894 0.950 . S
C902 C900 1.327 . S
C903 C891 1.349 . S
C903 H897 0.950 . S
C903 C904 1.327 . S
C904 H898 0.950 . S
C904 C903 1.327 . S
C904 C908 1.429 . S
C905 C888 1.574 . S
C905 H899 0.949 . S
C905 C909 1.368 . S
C906 C887 1.429 . S
C906 C900 1.429 . S
C906 C907 1.523 . S
C907 C888 1.368 . S
C907 C901 1.368 . S
C907 C906 1.523 . S
C908 C892 1.429 . S
C908 C904 1.429 . S
C908 C909 1.523 . S
C909 C893 1.368 . S
C909 C905 1.368 . S
C909 C908 1.523 . S
H910 C885 0.950 1_554 S
H911 C887 0.950 . S
H912 C888 0.949 . S
H913 C890 0.950 . S
H914 C892 0.950 . S
C915 C916 1.349 1_556 S
C915 C917 1.327 . S
C915 H940 0.950 . S
C916 C915 1.349 1_554 S
C916 C932 1.349 1_554 S
C917 C915 1.327 . S
C917 C936 1.429 . S
C917 H941 0.950 . S
C918 C935 1.574 . S
C918 C937 1.368 . S
C918 H942 0.949 . S
H919 C923 0.949 . S
C920 C921 1.349 . S
C920 C922 1.327 . S
C920 H943 0.950 . S
C921 C920 1.349 . S
C921 C933 1.349 . S
C922 C920 1.327 . S
C922 C938 1.429 . S
C922 H944 0.950 . S
C923 H919 0.949 . S
C923 C931 1.574 . S
C923 C939 1.368 . S
H924 C932 0.943 1_554 S
H925 C930 0.950 . S
H926 C931 0.949 . S
H927 C933 0.950 . S
H928 C934 0.950 . S
H929 C935 0.949 . S
C930 H925 0.950 . S
C930 C932 1.327 . S
C930 C936 1.429 . S
C931 C923 1.574 . S
C931 H926 0.949 . S
C931 C937 1.368 . S
C932 C916 1.349 1_556 S
C932 H924 0.943 1_556 S
C932 C930 1.327 . S
C933 C921 1.349 . S
C933 H927 0.950 . S
C933 C934 1.327 . S
C934 H928 0.950 . S
C934 C933 1.327 . S
C934 C938 1.429 . S
C935 C918 1.574 . S
C935 H929 0.949 . S
C935 C939 1.368 . S
C936 C917 1.429 . S
C936 C930 1.429 . S
C936 C937 1.523 . S
C937 C918 1.368 . S
C937 C931 1.368 . S
C937 C936 1.523 . S
C938 C922 1.429 . S
C938 C934 1.429 . S
C938 C939 1.523 . S
C939 C923 1.368 . S
C939 C935 1.368 . S
C939 C938 1.523 . S
H940 C915 0.950 . S
H941 C917 0.950 . S
H942 C918 0.949 . S
H943 C920 0.950 . S
H944 C922 0.950 . S
C945 C946 1.349 . S
C945 C947 1.327 . S
C945 H970 0.950 . S
C946 C945 1.349 . S
C946 C962 1.349 . S
C947 C945 1.327 . S
C947 C966 1.429 . S
C947 H971 0.950 . S
C948 C965 1.574 . S
C948 C967 1.368 . S
C948 H972 0.949 . S
H949 C953 0.949 . S
C950 C951 1.349 . S
C950 C952 1.327 . S
C950 H973 0.950 . S
C951 C950 1.349 . S
C951 C963 1.349 . S
C952 C950 1.327 . S
C952 C968 1.429 . S
C952 H974 0.950 . S
C953 H949 0.949 . S
C953 C961 1.574 . S
C953 C969 1.368 . S
H954 C962 0.950 . S
H955 C960 0.950 . S
H956 C961 0.949 . S
H957 C963 0.950 . S
H958 C964 0.950 . S
H959 C965 0.949 . S
C960 H955 0.950 . S
C960 C962 1.327 . S
C960 C966 1.429 . S
C961 C953 1.574 . S
C961 H956 0.949 . S
C961 C967 1.368 . S
C962 C946 1.349 . S
C962 H954 0.950 . S
C962 C960 1.327 . S
C963 C951 1.349 . S
C963 H957 0.950 . S
C963 C964 1.327 . S
C964 H958 0.950 . S
C964 C963 1.327 . S
C964 C968 1.429 . S
C965 C948 1.574 . S
C965 H959 0.949 . S
C965 C969 1.368 . S
C966 C947 1.429 . S
C966 C960 1.429 . S
C966 C967 1.523 . S
C967 C948 1.368 . S
C967 C961 1.368 . S
C967 C966 1.523 . S
C968 C952 1.429 . S
C968 C964 1.429 . S
C968 C969 1.523 . S
C969 C953 1.368 . S
C969 C965 1.368 . S
C969 C968 1.523 . S
H970 C945 0.950 . S
H971 C947 0.950 . S
H972 C948 0.949 . S
H973 C950 0.950 . S
H974 C952 0.950 . S
C975 C976 1.349 . S
C975 C977 1.327 . S
C975 H1000 0.950 . S
C976 C975 1.349 . S
C976 C992 1.349 . S
C977 C975 1.327 . S
C977 C996 1.429 . S
C977 H1001 0.950 . S
C978 C995 1.574 . S
C978 C997 1.368 . S
C978 H1002 0.949 . S
H979 C983 0.949 . S
C980 C981 1.349 . S
C980 C982 1.327 . S
C980 H1003 0.950 . S
C981 C980 1.349 . S
C981 C993 1.349 . S
C982 C980 1.327 . S
C982 C998 1.429 . S
C982 H1004 0.950 . S
C983 H979 0.949 . S
C983 C991 1.574 . S
C983 C999 1.368 . S
H984 C992 0.950 . S
H985 C990 0.950 . S
H986 C991 0.949 . S
H987 C993 0.950 . S
H988 C994 0.950 . S
H989 C995 0.949 . S
C990 H985 0.950 . S
C990 C992 1.327 . S
C990 C996 1.429 . S
C991 C983 1.574 . S
C991 H986 0.949 . S
C991 C997 1.368 . S
C992 C976 1.349 . S
C992 H984 0.950 . S
C992 C990 1.327 . S
C993 C981 1.349 . S
C993 H987 0.950 . S
C993 C994 1.327 . S
C994 H988 0.950 . S
C994 C993 1.327 . S
C994 C998 1.429 . S
C995 C978 1.574 . S
C995 H989 0.949 . S
C995 C999 1.368 . S
C996 C977 1.429 . S
C996 C990 1.429 . S
C996 C997 1.523 . S
C997 C978 1.368 . S
C997 C991 1.368 . S
C997 C996 1.523 . S
C998 C982 1.429 . S
C998 C994 1.429 . S
C998 C999 1.523 . S
C999 C983 1.368 . S
C999 C995 1.368 . S
C999 C998 1.523 . S
H1000 C975 0.950 . S
H1001 C977 0.950 . S
H1002 C978 0.949 . S
H1003 C980 0.950 . S
H1004 C982 0.950 . S
C1005 C1006 1.349 . S
C1005 C1007 1.327 . S
C1005 H1030 0.950 . S
C1006 C1005 1.349 . S
C1006 C1022 1.349 . S
C1007 C1005 1.327 . S
C1007 C1026 1.429 . S
C1007 H1031 0.950 . S
C1008 C1025 1.574 . S
C1008 C1027 1.368 . S
C1008 H1032 0.949 . S
H1009 C1013 0.949 . S
C1010 C1011 1.349 . S
C1010 C1012 1.327 . S
C1010 H1033 0.950 . S
C1011 C1010 1.349 . S
C1011 C1023 1.349 . S
C1012 C1010 1.327 . S
C1012 C1028 1.429 . S
C1012 H1034 0.950 . S
C1013 H1009 0.949 . S
C1013 C1021 1.574 . S
C1013 C1029 1.368 . S
H1014 C1022 0.950 . S
H1015 C1020 0.950 . S
H1016 C1021 0.949 . S
H1017 C1023 0.950 . S
H1018 C1024 0.950 . S
H1019 C1025 0.949 . S
C1020 H1015 0.950 . S
C1020 C1022 1.327 . S
C1020 C1026 1.429 . S
C1021 C1013 1.574 . S
C1021 H1016 0.949 . S
C1021 C1027 1.368 . S
C1022 C1006 1.349 . S
C1022 H1014 0.950 . S
C1022 C1020 1.327 . S
C1023 C1011 1.349 . S
C1023 H1017 0.950 . S
C1023 C1024 1.327 . S
C1024 H1018 0.950 . S
C1024 C1023 1.327 . S
C1024 C1028 1.429 . S
C1025 C1008 1.574 . S
C1025 H1019 0.949 . S
C1025 C1029 1.368 . S
C1026 C1007 1.429 . S
C1026 C1020 1.429 . S
C1026 C1027 1.523 . S
C1027 C1008 1.368 . S
C1027 C1021 1.368 . S
C1027 C1026 1.523 . S
C1028 C1012 1.429 . S
C1028 C1024 1.429 . S
C1028 C1029 1.523 . S
C1029 C1013 1.368 . S
C1029 C1025 1.368 . S
C1029 C1028 1.523 . S
H1030 C1005 0.950 . S
H1031 C1007 0.950 . S
H1032 C1008 0.949 . S
H1033 C1010 0.950 . S
H1034 C1012 0.950 . S
C1035 C1036 1.349 . S
C1035 C1037 1.327 . S
C1035 H1060 0.950 . S
C1036 C1035 1.349 . S
C1036 C1052 1.349 . S
C1037 C1035 1.327 . S
C1037 C1056 1.429 . S
C1037 H1061 0.950 . S
C1038 C1055 1.574 . S
C1038 C1057 1.368 . S
C1038 H1062 0.949 . S
H1039 C1043 0.949 . S
C1040 C1041 1.349 . S
C1040 C1042 1.327 . S
C1040 H1063 0.950 . S
C1041 C1040 1.349 . S
C1041 C1053 1.349 . S
C1042 C1040 1.327 . S
C1042 C1058 1.429 . S
C1042 H1064 0.950 . S
C1043 H1039 0.949 . S
C1043 C1051 1.574 . S
C1043 C1059 1.368 . S
H1044 C1052 0.950 . S
H1045 C1050 0.950 . S
H1046 C1051 0.949 . S
H1047 C1053 0.950 . S
H1048 C1054 0.950 . S
H1049 C1055 0.949 . S
C1050 H1045 0.950 . S
C1050 C1052 1.327 . S
C1050 C1056 1.429 . S
C1051 C1043 1.574 . S
C1051 H1046 0.949 . S
C1051 C1057 1.368 . S
C1052 C1036 1.349 . S
C1052 H1044 0.950 . S
C1052 C1050 1.327 . S
C1053 C1041 1.349 . S
C1053 H1047 0.950 . S
C1053 C1054 1.327 . S
C1054 H1048 0.950 . S
C1054 C1053 1.327 . S
C1054 C1058 1.429 . S
C1055 C1038 1.574 . S
C1055 H1049 0.949 . S
C1055 C1059 1.368 . S
C1056 C1037 1.429 . S
C1056 C1050 1.429 . S
C1056 C1057 1.523 . S
C1057 C1038 1.368 . S
C1057 C1051 1.368 . S
C1057 C1056 1.523 . S
C1058 C1042 1.429 . S
C1058 C1054 1.429 . S
C1058 C1059 1.523 . S
C1059 C1043 1.368 . S
C1059 C1055 1.368 . S
C1059 C1058 1.523 . S
H1060 C1035 0.950 . S
H1061 C1037 0.950 . S
H1062 C1038 0.949 . S
H1063 C1040 0.950 . S
H1064 C1042 0.950 . S
C1065 C1066 1.349 . S
C1065 C1067 1.327 . S
C1065 H1090 0.950 . S
C1066 C1065 1.349 . S
C1066 C1082 1.349 . S
C1067 C1065 1.327 . S
C1067 C1086 1.429 . S
C1067 H1091 0.950 . S
C1068 C1085 1.574 . S
C1068 C1087 1.368 . S
C1068 H1092 0.949 . S
H1069 C1073 0.949 . S
C1070 C1071 1.349 . S
C1070 C1072 1.327 . S
C1070 H1093 0.950 . S
C1071 C1070 1.349 . S
C1071 C1083 1.349 . S
C1072 C1070 1.327 . S
C1072 C1088 1.429 . S
C1072 H1094 0.950 . S
C1073 H1069 0.949 . S
C1073 C1081 1.574 . S
C1073 C1089 1.368 . S
H1074 C1082 0.950 . S
H1075 C1080 0.950 . S
H1076 C1081 0.949 . S
H1077 C1083 0.950 . S
H1078 C1084 0.950 . S
H1079 C1085 0.949 . S
C1080 H1075 0.950 . S
C1080 C1082 1.327 . S
C1080 C1086 1.429 . S
C1081 C1073 1.574 . S
C1081 H1076 0.949 . S
C1081 C1087 1.368 . S
C1082 C1066 1.349 . S
C1082 H1074 0.950 . S
C1082 C1080 1.327 . S
C1083 C1071 1.349 . S
C1083 H1077 0.950 . S
C1083 C1084 1.327 . S
C1084 H1078 0.950 . S
C1084 C1083 1.327 . S
C1084 C1088 1.429 . S
C1085 C1068 1.574 . S
C1085 H1079 0.949 . S
C1085 C1089 1.368 . S
C1086 C1067 1.429 . S
C1086 C1080 1.429 . S
C1086 C1087 1.523 . S
C1087 C1068 1.368 . S
C1087 C1081 1.368 . S
C1087 C1086 1.523 . S
C1088 C1072 1.429 . S
C1088 C1084 1.429 . S
C1088 C1089 1.523 . S
C1089 C1073 1.368 . S
C1089 C1085 1.368 . S
C1089 C1088 1.523 . S
H1090 C1065 0.950 . S
H1091 C1067 0.950 . S
H1092 C1068 0.949 . S
H1093 C1070 0.950 . S
H1094 C1072 0.950 . S
C1095 C1096 1.349 . S
C1095 C1097 1.327 . S
C1095 H1120 0.950 . S
C1096 C1095 1.349 . S
C1096 C1112 1.349 . S
C1097 C1095 1.327 . S
C1097 C1116 1.429 . S
C1097 H1121 0.950 . S
C1098 C1115 1.574 . S
C1098 C1117 1.368 . S
C1098 H1122 0.949 . S
H1099 C1103 0.949 . S
C1100 C1101 1.349 . S
C1100 C1102 1.327 . S
C1100 H1123 0.950 . S
C1101 C1100 1.349 . S
C1101 C1113 1.349 . S
C1102 C1100 1.327 . S
C1102 C1118 1.429 . S
C1102 H1124 0.950 . S
C1103 H1099 0.949 . S
C1103 C1111 1.574 . S
C1103 C1119 1.368 . S
H1104 C1112 0.950 . S
H1105 C1110 0.950 . S
H1106 C1111 0.949 . S
H1107 C1113 0.950 . S
H1108 C1114 0.950 . S
H1109 C1115 0.949 . S
C1110 H1105 0.950 . S
C1110 C1112 1.327 . S
C1110 C1116 1.429 . S
C1111 C1103 1.574 . S
C1111 H1106 0.949 . S
C1111 C1117 1.368 . S
C1112 C1096 1.349 . S
C1112 H1104 0.950 . S
C1112 C1110 1.327 . S
C1113 C1101 1.349 . S
C1113 H1107 0.950 . S
C1113 C1114 1.327 . S
C1114 H1108 0.950 . S
C1114 C1113 1.327 . S
C1114 C1118 1.429 . S
C1115 C1098 1.574 . S
C1115 H1109 0.949 . S
C1115 C1119 1.368 . S
C1116 C1097 1.429 . S
C1116 C1110 1.429 . S
C1116 C1117 1.523 . S
C1117 C1098 1.368 . S
C1117 C1111 1.368 . S
C1117 C1116 1.523 . S
C1118 C1102 1.429 . S
C1118 C1114 1.429 . S
C1118 C1119 1.523 . S
C1119 C1103 1.368 . S
C1119 C1115 1.368 . S
C1119 C1118 1.523 . S
H1120 C1095 0.950 . S
H1121 C1097 0.950 . S
H1122 C1098 0.949 . S
H1123 C1100 0.950 . S
H1124 C1102 0.950 . S
C1125 C1126 1.349 . S
C1125 C1127 1.327 . S
C1125 H1150 0.950 . S
C1126 C1125 1.349 . S
C1126 C1142 1.349 . S
C1127 C1125 1.327 . S
C1127 C1146 1.429 . S
C1127 H1151 0.950 . S
C1128 C1145 1.574 . S
C1128 C1147 1.368 . S
C1128 H1152 0.949 . S
H1129 C1133 0.949 . S
C1130 C1131 1.349 . S
C1130 C1132 1.327 . S
C1130 H1153 0.950 . S
C1131 C1130 1.349 . S
C1131 C1143 1.349 . S
C1132 C1130 1.327 . S
C1132 C1148 1.429 . S
C1132 H1154 0.950 . S
C1133 H1129 0.949 . S
C1133 C1141 1.574 . S
C1133 C1149 1.368 . S
H1134 C1142 0.950 . S
H1135 C1140 0.950 . S
H1136 C1141 0.949 . S
H1137 C1143 0.950 . S
H1138 C1144 0.950 . S
H1139 C1145 0.949 . S
C1140 H1135 0.950 . S
C1140 C1142 1.327 . S
C1140 C1146 1.429 . S
C1141 C1133 1.574 . S
C1141 H1136 0.949 . S
C1141 C1147 1.368 . S
C1142 C1126 1.349 . S
C1142 H1134 0.950 . S
C1142 C1140 1.327 . S
C1143 C1131 1.349 . S
C1143 H1137 0.950 . S
C1143 C1144 1.327 . S
C1144 H1138 0.950 . S
C1144 C1143 1.327 . S
C1144 C1148 1.429 . S
C1145 C1128 1.574 . S
C1145 H1139 0.949 . S
C1145 C1149 1.368 . S
C1146 C1127 1.429 . S
C1146 C1140 1.429 . S
C1146 C1147 1.523 . S
C1147 C1128 1.368 . S
C1147 C1141 1.368 . S
C1147 C1146 1.523 . S
C1148 C1132 1.429 . S
C1148 C1144 1.429 . S
C1148 C1149 1.523 . S
C1149 C1133 1.368 . S
C1149 C1145 1.368 . S
C1149 C1148 1.523 . S
H1150 C1125 0.950 . S
H1151 C1127 0.950 . S
H1152 C1128 0.949 . S
H1153 C1130 0.950 . S
H1154 C1132 0.950 . S
C1155 C1156 1.349 . S
C1155 C1157 1.327 . S
C1155 H1180 0.950 . S
C1156 C1155 1.349 . S
C1156 C1172 1.349 . S
C1157 C1155 1.327 . S
C1157 C1176 1.429 . S
C1157 H1181 0.950 . S
C1158 C1175 1.574 . S
C1158 C1177 1.368 . S
C1158 H1182 0.949 . S
H1159 C1163 0.949 . S
C1160 C1161 1.349 . S
C1160 C1162 1.327 . S
C1160 H1183 0.950 . S
C1161 C1160 1.349 . S
C1161 C1173 1.349 . S
C1162 C1160 1.327 . S
C1162 C1178 1.429 . S
C1162 H1184 0.950 . S
C1163 H1159 0.949 . S
C1163 C1171 1.574 . S
C1163 C1179 1.368 . S
H1164 C1172 0.950 . S
H1165 C1170 0.950 . S
H1166 C1171 0.949 . S
H1167 C1173 0.950 . S
H1168 C1174 0.950 . S
H1169 C1175 0.949 . S
C1170 H1165 0.950 . S
C1170 C1172 1.327 . S
C1170 C1176 1.429 . S
C1171 C1163 1.574 . S
C1171 H1166 0.949 . S
C1171 C1177 1.368 . S
C1172 C1156 1.349 . S
C1172 H1164 0.950 . S
C1172 C1170 1.327 . S
C1173 C1161 1.349 . S
C1173 H1167 0.950 . S
C1173 C1174 1.327 . S
C1174 H1168 0.950 . S
C1174 C1173 1.327 . S
C1174 C1178 1.429 . S
C1175 C1158 1.574 . S
C1175 H1169 0.949 . S
C1175 C1179 1.368 . S
C1176 C1157 1.429 . S
C1176 C1170 1.429 . S
C1176 C1177 1.523 . S
C1177 C1158 1.368 . S
C1177 C1171 1.368 . S
C1177 C1176 1.523 . S
C1178 C1162 1.429 . S
C1178 C1174 1.429 . S
C1178 C1179 1.523 . S
C1179 C1163 1.368 . S
C1179 C1175 1.368 . S
C1179 C1178 1.523 . S
H1180 C1155 0.950 . S
H1181 C1157 0.950 . S
H1182 C1158 0.949 . S
H1183 C1160 0.950 . S
H1184 C1162 0.950 . S
C466 C47 1.878 . S
C471 C372 1.970 . S
C496 C91 1.833 . S
C501 C404 1.913 . S
C531 C463 1.969 . S
C526 C177 2.021 . S
C561 C392 1.756 . S
C556 C215 1.720 . S
C586 C295 1.758 . S
C591 C422 1.802 . S
C621 C444 1.008 . S
C616 C345 0.998 . S
C651 C413 1.953 . S
C646 C153 1.849 . S
C676 C239 1.078 . S
C681 C453 1.045 . S
C711 C402 1.446 . S
C706 C283 1.455 . S
C736 C357 1.756 1_556 S
C741 C432 1.834 . S
C766 C35 1.926 . S
C771 C435 1.899 . S
C801 C374 1.589 . S
C796 C115 1.608 . S
C831 C382 1.458 . S
C826 C221 1.485 . S
C861 C423 1.522 . S
C856 C301 1.527 . S
C891 C436 2.321 . S
C886 C339 2.245 1_556 S
C921 C373 1.485 . S
C916 C53 1.509 . S
C951 C433 1.406 . S
C946 C97 1.447 . S
C976 C171 1.360 . S
C981 C434 1.421 . S
C1011 C403 1.467 . S
C1006 C363 1.492 . S
C1041 C464 1.423 . S
C1036 C29 1.319 . S
C1071 C391 1.759 . S
C1066 C109 1.743 . S
C1101 C405 1.564 . S
C1096 C159 1.607 . S
C1126 C233 2.187 . S
C1131 C454 2.222 . S
C1156 C277 1.876 . S
C1161 C401 1.997 . S
