# Generated by pormake.
# Topology rtl, (3,6)-cn, num edge types: 1
# Building blocks:
#     Node 0, Type 0, BuildingBlock: BELTOD_clean_linker_0, # of connection points: 3
#     Node 1, Type 0, BuildingBlock: BELTOD_clean_linker_0, # of connection points: 3
#     Node 2, Type 0, BuildingBlock: BELTOD_clean_linker_0, # of connection points: 3
#     Node 3, Type 0, BuildingBlock: BELTOD_clean_linker_0, # of connection points: 3
#     Node 4, Type 1, BuildingBlock: FUNLAD_clean_sbu_0, # of connection points: 6
#     Node 5, Type 1, BuildingBlock: FUNLAD_clean_sbu_0, # of connection points: 6
#     Edge 6, Type (0, 1), BuildingBlock: KIFKEQ_clean_linker_1, # of connection points: 2
#     Edge 7, Type (0, 1), BuildingBlock: KIFKEQ_clean_linker_1, # of connection points: 2
#     Edge 8, Type (0, 1), BuildingBlock: KIFKEQ_clean_linker_1, # of connection points: 2
#     Edge 9, Type (0, 1), BuildingBlock: KIFKEQ_clean_linker_1, # of connection points: 2
#     Edge 10, Type (0, 1), BuildingBlock: KIFKEQ_clean_linker_1, # of connection points: 2
#     Edge 11, Type (0, 1), BuildingBlock: KIFKEQ_clean_linker_1, # of connection points: 2
#     Edge 12, Type (0, 1), BuildingBlock: KIFKEQ_clean_linker_1, # of connection points: 2
#     Edge 13, Type (0, 1), BuildingBlock: KIFKEQ_clean_linker_1, # of connection points: 2
#     Edge 14, Type (0, 1), BuildingBlock: KIFKEQ_clean_linker_1, # of connection points: 2
#     Edge 15, Type (0, 1), BuildingBlock: KIFKEQ_clean_linker_1, # of connection points: 2
#     Edge 16, Type (0, 1), BuildingBlock: KIFKEQ_clean_linker_1, # of connection points: 2
#     Edge 17, Type (0, 1), BuildingBlock: KIFKEQ_clean_linker_1, # of connection points: 2
# Relax obj value: 0.023
# Max RMSD: 0.088
# Mean RMSD: 0.074
data_MOF--net-rtl--node1-FUNLAD_clean_sbu_0--node2-BELTOD_clean_linker_0--edge1-KIFKEQ_clean_linker_1
_symmetry_space_group_name_H-M    P1
_symmetry_Int_Tables_number       1
_symmetry_cell_setting            triclinic
loop_
_symmetry_equiv_pos_as_xyz
'x, y, z'
_cell_length_a     46.570939
_cell_length_b     38.290996
_cell_length_c     26.407429
_cell_angle_alpha  89.082534
_cell_angle_beta   90.965493
_cell_angle_gamma 90.430347
loop_
_atom_site_label
_atom_site_type_symbol
_atom_site_fract_x
_atom_site_fract_y
_atom_site_fract_z
_atom_type_partial_charge
P0 P 0.15285 0.80538 0.01882 0.0
H1 H 0.17125 0.83018 0.11778 0.0
H2 H 0.14506 0.84348 0.19412 0.0
H3 H 0.06744 0.80102 0.1264 0.0
H4 H 0.09392 0.78822 0.04954 0.0
H5 H 0.19657 0.78282 0.95023 0.0
H6 H 0.22803 0.7322 0.95013 0.0
H7 H 0.1836 0.68867 0.07923 0.0
H8 H 0.15228 0.73976 0.0793 0.0
H9 H 0.11266 0.86103 -0.00202 0.0
H10 H 0.13928 0.7671 0.92454 0.0
O11 O 0.17712 0.83762 0.01628 0.0
H12 H 0.08308 0.87666 0.92417 0.0
H13 H 0.10962 0.78262 0.85026 0.0
C14 C 0.13433 0.80913 0.07768 0.0
C15 C 0.14868 0.82335 0.11959 0.0
C16 C 0.13368 0.83067 0.16342 0.0
C17 C 0.10404 0.82364 0.16619 0.0
C18 C 0.09013 0.80731 0.1251 0.0
C19 C 0.10523 0.79991 0.08125 0.0
C20 C 0.17228 0.76513 0.01491 0.0
C21 C 0.1933 0.76209 0.97798 0.0
C22 C 0.21116 0.73301 0.97782 0.0
C23 C 0.2084 0.70642 0.01481 0.0
C24 C 0.18647 0.7089 0.0506 0.0
C25 C 0.16848 0.73804 0.05055 0.0
C26 C 0.12816 0.81297 0.96677 0.0
C27 C 0.11169 0.84343 0.96628 0.0
C28 C 0.09465 0.85223 0.92413 0.0
C29 C 0.09399 0.83086 0.88134 0.0
C30 C 0.10987 0.79972 0.88254 0.0
C31 C 0.12681 0.79081 0.92503 0.0
P32 P 0.65043 0.70729 0.52082 0.0
H33 H 0.67482 0.68172 0.42813 0.0
H34 H 0.65307 0.66167 0.34893 0.0
H35 H 0.56985 0.69467 0.39919 0.0
H36 H 0.59201 0.71563 0.47794 0.0
H37 H 0.69316 0.73562 0.58978 0.0
H38 H 0.7229 0.78816 0.58688 0.0
H39 H 0.67592 0.82412 0.45363 0.0
H40 H 0.64635 0.77097 0.45657 0.0
H41 H 0.60855 0.65226 0.5365 0.0
H42 H 0.63618 0.74548 0.61355 0.0
O43 O 0.67585 0.67742 0.53122 0.0
H44 H 0.57845 0.63618 0.60776 0.0
H45 H 0.60612 0.72932 0.6855 0.0
C46 C 0.63484 0.69899 0.45942 0.0
C47 C 0.65196 0.68507 0.42181 0.0
C48 C 0.63949 0.67352 0.37667 0.0
C49 C 0.60964 0.67578 0.36841 0.0
C50 C 0.59287 0.69242 0.40455 0.0
C51 C 0.60547 0.70415 0.44971 0.0
C52 C 0.66788 0.74924 0.52308 0.0
C53 C 0.68891 0.75512 0.5605 0.0
C54 C 0.70577 0.78534 0.55896 0.0
C55 C 0.7019 0.81028 0.51981 0.0
C56 C 0.67965 0.80517 0.48388 0.0
C57 C 0.66268 0.77487 0.48561 0.0
C58 C 0.62435 0.70024 0.56939 0.0
C59 C 0.60751 0.6698 0.56819 0.0
C60 C 0.59023 0.66066 0.60896 0.0
C61 C 0.58986 0.68154 0.6522 0.0
C62 C 0.60607 0.71269 0.6527 0.0
C63 C 0.62321 0.72198 0.61152 0.0
P64 P 0.90933 0.28965 -0.00118 0.0
H65 H 0.91238 0.30511 0.89075 0.0
H66 H 0.92128 0.26885 0.81715 0.0
H67 H 0.9291 0.17817 0.91593 0.0
H68 H 0.9195 0.21417 0.98862 0.0
H69 H 0.8831 0.34907 0.04655 0.0
H70 H 0.83385 0.3706 0.04795 0.0
H71 H 0.80651 0.28603 0.95146 0.0
H72 H 0.85569 0.26421 0.95143 0.0
H73 H 0.96124 0.28052 0.0608 0.0
H74 H 0.87323 0.24478 0.0627 0.0
O75 O 0.93167 0.32387 0.99564 0.0
H76 H 0.97211 0.2442 0.13557 0.0
H77 H 0.88381 0.20875 0.13789 0.0
C78 C 0.91558 0.26248 0.94516 0.0
C79 C 0.91599 0.27739 0.89639 0.0
C80 C 0.92119 0.25667 0.85444 0.0
C81 C 0.926 0.22059 0.86063 0.0
C82 C 0.92514 0.20574 0.90966 0.0
C83 C 0.91988 0.22647 0.95148 0.0
C84 C 0.8731 0.30556 -0.00199 0.0
C85 C 0.86649 0.33534 0.02546 0.0
C86 C 0.83835 0.34766 0.02607 0.0
C87 C 0.81625 0.33022 -0.00057 0.0
C88 C 0.82296 0.29996 0.97262 0.0
C89 C 0.85114 0.28765 0.97213 0.0
C90 C 0.91632 0.26588 0.05693 0.0
C91 C 0.94413 0.26537 0.07793 0.0
C92 C 0.9503 0.24462 0.12069 0.0
C93 C 0.92879 0.2237 0.14277 0.0
C94 C 0.90088 0.22441 0.12159 0.0
C95 C 0.89473 0.24527 0.07892 0.0
P96 P 0.41287 0.2125 0.51997 0.0
H97 H 0.44143 0.19847 0.61796 0.0
H98 H 0.44987 0.23462 0.69261 0.0
H99 H 0.40303 0.31902 0.62004 0.0
H100 H 0.39521 0.28315 0.54512 0.0
H101 H 0.38893 0.14852 0.47728 0.0
H102 H 0.34002 0.1251 0.47092 0.0
H103 H 0.30876 0.21506 0.54944 0.0
H104 H 0.35719 0.23866 0.55404 0.0
H105 H 0.45417 0.26885 0.50269 0.0
H106 H 0.3893 0.21404 0.41573 0.0
O107 O 0.43614 0.17955 0.52158 0.0
H108 H 0.46419 0.30643 0.42942 0.0
H109 H 0.3997 0.2513 0.34192 0.0
C110 C 0.41782 0.23822 0.57599 0.0
C111 C 0.43296 0.22471 0.61813 0.0
C112 C 0.43777 0.24534 0.66068 0.0
C113 C 0.42705 0.27953 0.66194 0.0
C114 C 0.41127 0.29264 0.62016 0.0
C115 C 0.40688 0.27221 0.57739 0.0
C116 C 0.37688 0.19503 0.51695 0.0
C117 C 0.37152 0.16308 0.49331 0.0
C118 C 0.34356 0.14968 0.48982 0.0
C119 C 0.32044 0.16813 0.50985 0.0
C120 C 0.32596 0.20034 0.53304 0.0
C121 C 0.35386 0.21376 0.5362 0.0
C122 C 0.42035 0.23938 0.46519 0.0
C123 C 0.4419 0.26506 0.468 0.0
C124 C 0.44766 0.2865 0.42613 0.0
C125 C 0.43246 0.28199 0.3803 0.0
C126 C 0.41164 0.25534 0.37692 0.0
C127 C 0.4056 0.23419 0.41915 0.0
C128 C 0.0172 0.96597 0.43763 0.0
N129 N 0.06183 0.04631 0.51 0.0
C130 C 0.08447 0.02411 0.51399 0.0
C131 C 0.11254 0.03704 0.51408 0.0
C132 C 0.1174 0.07315 0.50964 0.0
C133 C 0.09368 0.09551 0.50554 0.0
C134 C 0.06591 0.08146 0.506 0.0
Zn135 Zn 0.02129 0.02569 0.50878 0.0
C136 C 0.98385 0.05946 0.43082 0.0
N137 N 0.93738 0.9805 0.50542 0.0
C138 C 0.93407 0.94519 0.50603 0.0
C139 C 0.91427 0.00206 0.50338 0.0
C140 C 0.88645 0.98822 0.50175 0.0
C141 C 0.8824 0.95184 0.50203 0.0
C142 C 0.90667 0.93025 0.50434 0.0
Zn143 Zn 0.97779 0.0014 0.50705 0.0
O144 O 0.03414 0.98908 0.45521 0.0
C145 C 0.01556 0.96762 0.58477 0.0
O146 O 0.99132 0.96491 0.45223 0.0
H147 H 0.91741 0.03008 0.5028 0.0
H148 H 0.08078 0.99623 0.51674 0.0
H149 H 0.95273 0.92855 0.50786 0.0
O150 O 0.03287 0.99052 0.56762 0.0
O151 O 0.99016 0.966 0.5665 0.0
H152 H 0.04761 0.09863 0.50299 0.0
O153 O 0.96505 0.03811 0.56178 0.0
O154 O 0.00803 0.062 0.56286 0.0
O155 O 0.96607 0.03702 0.44786 0.0
O156 O 0.00914 0.06057 0.44955 0.0
C157 C 0.98244 0.06102 0.57883 0.0
H158 H 0.13025 0.01889 0.51669 0.0
H159 H 0.09655 0.12356 0.50253 0.0
H160 H 0.86835 0.00579 0.49956 0.0
H161 H 0.90451 0.90207 0.50543 0.0
C162 C 0.47909 0.44382 0.94384 0.0
N163 N 0.56025 0.45532 0.01165 0.0
C164 C 0.56303 0.41996 0.01323 0.0
C165 C 0.59019 0.4048 0.01106 0.0
C166 C 0.61468 0.42625 0.007 0.0
C167 C 0.61113 0.46264 0.00562 0.0
C168 C 0.58364 0.47667 0.00806 0.0
Zn169 Zn 0.52047 0.47748 0.01418 0.0
C170 C 0.51486 0.53654 0.93948 0.0
N171 N 0.43809 0.52564 0.01862 0.0
C172 C 0.41391 0.50547 0.01942 0.0
C173 C 0.43661 0.56108 0.01973 0.0
C174 C 0.41007 0.57758 0.02204 0.0
C175 C 0.38473 0.55747 0.02309 0.0
C176 C 0.38686 0.52093 0.02151 0.0
Zn177 Zn 0.47764 0.50294 0.01614 0.0
O178 O 0.50476 0.44222 0.9606 0.0
C179 C 0.48336 0.44405 0.09112 0.0
O180 O 0.46248 0.46731 0.95987 0.0
H181 H 0.45607 0.57664 0.0188 0.0
H182 H 0.54415 0.40346 0.01595 0.0
H183 H 0.41559 0.47733 0.01864 0.0
O184 O 0.50834 0.44247 0.07269 0.0
O185 O 0.46593 0.46706 0.07437 0.0
H186 H 0.581 0.50471 0.00709 0.0
O187 O 0.49378 0.53809 0.07221 0.0
O188 O 0.5358 0.51293 0.06789 0.0
O189 O 0.48996 0.53854 0.95811 0.0
O190 O 0.53189 0.51296 0.95567 0.0
C191 C 0.51996 0.53618 0.08636 0.0
H192 H 0.59194 0.37661 0.01177 0.0
H193 H 0.62944 0.48016 0.00327 0.0
H194 H 0.40941 0.60584 0.02238 0.0
H195 H 0.36786 0.50446 0.02263 0.0
H196 H 0.27054 0.20374 0.49063 0.0
H197 H 0.30296 0.10015 0.52295 0.0
H198 H 0.22165 0.18095 0.49098 0.0
H199 H 0.25412 0.07701 0.52043 0.0
H200 H 0.16253 0.05477 0.57146 0.0
H201 H 0.21153 0.07749 0.56999 0.0
H202 H 0.18848 0.14561 0.44387 0.0
H203 H 0.13932 0.12328 0.44615 0.0
C204 C 0.26726 0.17607 0.49768 0.0
C205 C 0.2907 0.15383 0.50712 0.0
C206 C 0.23921 0.16291 0.4972 0.0
C207 C 0.23391 0.12714 0.50583 0.0
C208 C 0.25739 0.10479 0.51437 0.0
C209 C 0.28544 0.11798 0.51511 0.0
C210 C 0.16801 0.07449 0.54331 0.0
C211 C 0.14712 0.08728 0.50895 0.0
C212 C 0.19611 0.08743 0.54231 0.0
C213 C 0.20401 0.11331 0.50669 0.0
C214 C 0.18305 0.12607 0.4723 0.0
C215 C 0.15489 0.11328 0.47354 0.0
H216 H 0.2314 0.66955 0.93737 0.0
H217 H 0.23455 0.6795 0.10009 0.0
H218 H 0.27197 0.62966 0.94224 0.0
H219 H 0.27443 0.63866 0.10511 0.0
H220 H 0.37001 0.6124 0.08169 0.0
H221 H 0.32469 0.64363 0.08162 0.0
H222 H 0.2895 0.57237 0.97116 0.0
H223 H 0.33533 0.54166 0.97011 0.0
C224 C 0.24048 0.6628 0.97424 0.0
C225 C 0.22993 0.67798 0.01828 0.0
C226 C 0.26355 0.63967 0.97708 0.0
C227 C 0.27661 0.63125 0.02404 0.0
C228 C 0.2651 0.64503 0.0683 0.0
C229 C 0.24201 0.66812 0.06546 0.0
C230 C 0.35262 0.6034 0.05735 0.0
C231 C 0.35635 0.57475 0.02558 0.0
C232 C 0.3265 0.62102 0.05778 0.0
C233 C 0.30345 0.61047 0.02641 0.0
C234 C 0.30692 0.58129 0.99547 0.0
C235 C 0.33308 0.56354 0.99519 0.0
H236 H 0.72604 0.85105 0.59379 0.0
H237 H 0.72617 0.83432 0.43237 0.0
H238 H 0.76742 0.88997 0.58579 0.0
H239 H 0.76674 0.87438 0.42409 0.0
H240 H 0.86381 0.89622 0.44676 0.0
H241 H 0.81691 0.86791 0.44816 0.0
H242 H 0.78733 0.94475 0.55302 0.0
H243 H 0.83478 0.97242 0.553 0.0
C244 C 0.73455 0.85624 0.55647 0.0
C245 C 0.72305 0.83921 0.51384 0.0
C246 C 0.75809 0.87882 0.5518 0.0
C247 C 0.77061 0.88489 0.50437 0.0
C248 C 0.75788 0.86974 0.46128 0.0
C249 C 0.73437 0.84712 0.46596 0.0
C250 C 0.84732 0.90706 0.47017 0.0
C251 C 0.85311 0.93634 0.50015 0.0
C252 C 0.82029 0.89114 0.47042 0.0
C253 C 0.79833 0.90412 0.50064 0.0
C254 C 0.80385 0.93399 0.52963 0.0
C255 C 0.83095 0.94998 0.52929 0.0
H256 H 0.76607 0.29273 0.00703 0.0
H257 H 0.79883 0.3982 0.99212 0.0
H258 H 0.71712 0.31499 0.0067 0.0
H259 H 0.75006 0.4205 0.994 0.0
H260 H 0.65852 0.44653 0.94536 0.0
H261 H 0.70679 0.42265 0.94242 0.0
H262 H 0.68511 0.34755 0.05979 0.0
H263 H 0.63671 0.37134 0.06244 0.0
C264 C 0.76283 0.32065 0.00358 0.0
C265 C 0.78638 0.34367 -0.00042 0.0
C266 C 0.73479 0.33343 0.00399 0.0
C267 C 0.72965 0.36954 0.00034 0.0
C268 C 0.75321 0.39252 0.99627 0.0
C269 C 0.78122 0.37975 0.99584 0.0
C270 C 0.6641 0.42503 0.97072 0.0
C271 C 0.64382 0.41093 0.00429 0.0
C272 C 0.69178 0.41136 0.96907 0.0
C273 C 0.69989 0.38329 0.00105 0.0
C274 C 0.67947 0.36888 0.03418 0.0
C275 C 0.65174 0.38252 0.03574 0.0
H276 H 0.05154 0.85524 0.16418 0.0
H277 H 0.1194 0.82143 0.26683 0.0
H278 H 0.02829 0.88474 0.23341 0.0
H279 H 0.09624 0.8513 0.33594 0.0
H280 H 0.98609 0.9194 0.38024 0.0
H281 H 0.00456 0.87876 0.31804 0.0
H282 H 0.09093 0.91478 0.35057 0.0
H283 H 0.07271 0.95499 0.41233 0.0
C284 C 0.06112 0.8533 0.20176 0.0
C285 C 0.08753 0.83632 0.20985 0.0
C286 C 0.04779 0.87027 0.24143 0.0
C287 C 0.06066 0.87072 0.28991 0.0
C288 C 0.08612 0.85193 0.29871 0.0
C289 C 0.09938 0.83487 0.25914 0.0
C290 C 0.00902 0.91844 0.37423 0.0
C291 C 0.02792 0.94054 0.40099 0.0
C292 C 0.01956 0.89525 0.33861 0.0
C293 C 0.04919 0.89346 0.32968 0.0
C294 C 0.06803 0.91513 0.35716 0.0
C295 C 0.05753 0.93844 0.39225 0.0
H296 H 0.61081 0.68088 0.74915 0.0
H297 H 0.53641 0.65175 0.65904 0.0
H298 H 0.59076 0.65022 0.82224 0.0
H299 H 0.51662 0.62041 0.73203 0.0
H300 H 0.48223 0.58455 0.8868 0.0
H301 H 0.49819 0.62555 0.82081 0.0
H302 H 0.58455 0.58617 0.83737 0.0
H303 H 0.56881 0.54546 0.90306 0.0
C304 C 0.58985 0.66866 0.74528 0.0
C305 C 0.57526 0.66849 0.69829 0.0
C306 C 0.57854 0.65079 0.78697 0.0
C307 C 0.55235 0.63254 0.78257 0.0
C308 C 0.53683 0.6343 0.73654 0.0
C309 C 0.54823 0.65203 0.69471 0.0
C310 C 0.50464 0.58477 0.87643 0.0
C311 C 0.52425 0.56167 0.89997 0.0
C312 C 0.51373 0.60819 0.83866 0.0
C313 C 0.54263 0.60919 0.82424 0.0
C314 C 0.56223 0.58639 0.84827 0.0
C315 C 0.55314 0.56283 0.88557 0.0
H316 H 0.91165 0.15597 0.15791 0.0
H317 H 0.96178 0.23853 0.22653 0.0
H318 H 0.92442 0.11685 0.22828 0.0
H319 H 0.97441 0.19948 0.2972 0.0
H320 H 0.01728 0.10831 0.38294 0.0
H321 H 0.00329 0.14826 0.31435 0.0
H322 H 0.91674 0.10691 0.31776 0.0
H323 H 0.93088 0.06634 0.38559 0.0
C324 C 0.92508 0.1659 0.1884 0.0
C325 C 0.93572 0.20035 0.18665 0.0
C326 C 0.9324 0.14348 0.22875 0.0
C327 C 0.95048 0.155 0.26836 0.0
C328 C 0.96083 0.1896 0.26689 0.0
C329 C 0.95356 0.21199 0.22646 0.0
C330 C 0.99525 0.10773 0.36908 0.0
C331 C 0.97522 0.08406 0.38963 0.0
C332 C 0.98719 0.13081 0.32997 0.0
C333 C 0.95888 0.13083 0.31057 0.0
C334 C 0.93881 0.10727 0.33135 0.0
C335 C 0.94689 0.08412 0.37041 0.0
H336 H 0.47905 0.29228 0.70607 0.0
H337 H 0.38928 0.3179 0.71567 0.0
H338 H 0.49023 0.33154 0.77525 0.0
H339 H 0.40007 0.35618 0.78677 0.0
H340 H 0.43477 0.45064 0.87503 0.0
H341 H 0.42127 0.41017 0.808 0.0
H342 H 0.4867 0.33852 0.86228 0.0
H343 H 0.50101 0.37971 0.92707 0.0
C344 C 0.46165 0.30592 0.72375 0.0
C345 C 0.43333 0.30205 0.70577 0.0
C346 C 0.46798 0.32835 0.76359 0.0
C347 C 0.44604 0.34701 0.78702 0.0
C348 C 0.41759 0.34272 0.76924 0.0
C349 C 0.41134 0.32066 0.72876 0.0
C350 C 0.44611 0.42614 0.87257 0.0
C351 C 0.46912 0.41847 0.90581 0.0
C352 C 0.43831 0.40282 0.83436 0.0
C353 C 0.45307 0.37111 0.82924 0.0
C354 C 0.47534 0.36303 0.86401 0.0
C355 C 0.48345 0.38656 0.90146 0.0
H356 H 0.56612 0.69928 0.305 0.0
H357 H 0.62169 0.61117 0.33436 0.0
H358 H 0.5436 0.66815 0.23405 0.0
H359 H 0.59931 0.58028 0.26452 0.0
H360 H 0.57642 0.54669 0.10858 0.0
H361 H 0.59746 0.58339 0.17357 0.0
H362 H 0.51283 0.61679 0.21563 0.0
H363 H 0.4916 0.58048 0.14901 0.0
C364 C 0.57348 0.67332 0.29631 0.0
C365 C 0.59598 0.65789 0.32471 0.0
C366 C 0.56057 0.6555 0.25586 0.0
C367 C 0.56991 0.62192 0.24328 0.0
C368 C 0.59211 0.60646 0.27228 0.0
C369 C 0.60498 0.62421 0.31235 0.0
C370 C 0.56223 0.56194 0.13148 0.0
C371 C 0.53231 0.56033 0.12413 0.0
C372 C 0.57431 0.58291 0.16889 0.0
C373 C 0.5568 0.60258 0.20033 0.0
C374 C 0.52689 0.60203 0.19187 0.0
C375 C 0.51474 0.58112 0.15396 0.0
H376 H 0.90668 0.15432 0.84129 0.0
H377 H 0.96016 0.23691 0.78008 0.0
H378 H 0.91983 0.11683 0.77192 0.0
H379 H 0.97223 0.19998 0.70933 0.0
H380 H 0.01526 0.1095 0.62842 0.0
H381 H 0.00049 0.14885 0.69446 0.0
H382 H 0.91368 0.10882 0.68211 0.0
H383 H 0.92863 0.06876 0.61691 0.0
C384 C 0.92115 0.16454 0.81291 0.0
C385 C 0.9325 0.19856 0.81646 0.0
C386 C 0.92841 0.14318 0.77275 0.0
C387 C 0.94714 0.15535 0.73506 0.0
C388 C 0.95804 0.18962 0.73806 0.0
C389 C 0.95082 0.21096 0.77829 0.0
C390 C 0.993 0.10915 0.63966 0.0
C391 C 0.97316 0.08588 0.61754 0.0
C392 C 0.98448 0.1319 0.67733 0.0
C393 C 0.95589 0.13202 0.69364 0.0
C394 C 0.93596 0.10907 0.67097 0.0
C395 C 0.9445 0.08622 0.6334 0.0
H396 H 0.43542 0.35296 0.37899 0.0
H397 H 0.44284 0.2634 0.28294 0.0
H398 H 0.44662 0.39164 0.30733 0.0
H399 H 0.45414 0.30216 0.2111 0.0
H400 H 0.51004 0.38381 0.12142 0.0
H401 H 0.49624 0.34382 0.18998 0.0
H402 H 0.42357 0.40883 0.2216 0.0
H403 H 0.43715 0.44877 0.15284 0.0
C404 C 0.43945 0.34162 0.34249 0.0
C405 C 0.43835 0.30526 0.33639 0.0
C406 C 0.44564 0.36371 0.3015 0.0
C407 C 0.45124 0.34982 0.2538 0.0
C408 C 0.45005 0.31346 0.24761 0.0
C409 C 0.44343 0.29136 0.28849 0.0
C410 C 0.49108 0.38953 0.14291 0.0
C411 C 0.47473 0.41949 0.13188 0.0
C412 C 0.48311 0.36653 0.18188 0.0
C413 C 0.45888 0.37331 0.21099 0.0
C414 C 0.44246 0.40316 0.19988 0.0
C415 C 0.45018 0.42591 0.16045 0.0
H416 H 0.04086 0.86082 0.87207 0.0
H417 H 0.11344 0.82903 0.78456 0.0
H418 H 0.02013 0.88973 0.797 0.0
H419 H 0.09236 0.85709 0.70937 0.0
H420 H 0.07014 0.95851 0.62054 0.0
H421 H 0.08658 0.91989 0.68869 0.0
H422 H 0.99981 0.8823 0.70919 0.0
H423 H 0.98312 0.92138 0.64062 0.0
C424 C 0.05212 0.85949 0.8366 0.0
C425 C 0.07893 0.84297 0.83435 0.0
C426 C 0.04013 0.87578 0.79354 0.0
C427 C 0.0548 0.876 0.74748 0.0
C428 C 0.08077 0.85774 0.74456 0.0
C429 C 0.09269 0.84134 0.78751 0.0
C430 C 0.05451 0.94195 0.63934 0.0
C431 C 0.02528 0.94315 0.62532 0.0
C432 C 0.064 0.91955 0.67813 0.0
C433 C 0.04451 0.8979 0.70409 0.0
C434 C 0.01528 0.89881 0.68992 0.0
C435 C 0.00577 0.92109 0.65064 0.0
loop_
_geom_bond_atom_site_label_1
_geom_bond_atom_site_label_2
_geom_bond_distance
_geom_bond_site_symmetry_2
_ccdc_geom_bond_type
P0 O11 1.490 . S
P0 C14 1.812 . S
P0 C20 1.803 . S
P0 C26 1.819 1_554 S
H1 C15 0.941 . S
H2 C16 0.939 . S
H3 C18 0.940 . S
H4 C19 0.940 . S
H5 C21 0.939 1_556 S
H6 C22 0.942 1_556 S
H7 C24 0.940 . S
H8 C25 0.939 . S
H9 C27 0.941 . S
H10 C31 0.939 . S
O11 P0 1.490 . S
H12 C28 0.939 . S
H13 C30 0.940 . S
C14 P0 1.812 . S
C14 C15 1.389 . S
C14 C19 1.391 . S
C15 H1 0.941 . S
C15 C14 1.389 . S
C15 C16 1.397 . S
C16 H2 0.939 . S
C16 C15 1.397 . S
C16 C17 1.378 . S
C17 C16 1.378 . S
C17 C18 1.378 . S
C18 H3 0.940 . S
C18 C17 1.378 . S
C18 C19 1.396 . S
C19 H4 0.940 . S
C19 C14 1.391 . S
C19 C18 1.396 . S
C20 P0 1.803 . S
C20 C21 1.378 . S
C20 C25 1.400 . S
C21 H5 0.939 1_554 S
C21 C20 1.378 . S
C21 C22 1.361 . S
C22 H6 0.942 1_554 S
C22 C21 1.361 . S
C22 C23 1.369 . S
C23 C22 1.369 . S
C23 C24 1.404 . S
C24 H7 0.940 . S
C24 C23 1.404 . S
C24 C25 1.389 . S
C25 H8 0.939 . S
C25 C20 1.400 . S
C25 C24 1.389 . S
C26 P0 1.819 1_556 S
C26 C27 1.391 . S
C26 C31 1.391 . S
C27 H9 0.941 . S
C27 C26 1.391 . S
C27 C28 1.396 . S
C28 H12 0.939 . S
C28 C27 1.396 . S
C28 C29 1.397 . S
C29 C28 1.397 . S
C29 C30 1.385 . S
C30 H13 0.940 . S
C30 C29 1.385 . S
C30 C31 1.388 . S
C31 H10 0.939 . S
C31 C26 1.391 . S
C31 C30 1.388 . S
P32 O43 1.490 . S
P32 C46 1.812 . S
P32 C52 1.803 . S
P32 C58 1.819 . S
H33 C47 0.941 . S
H34 C48 0.939 . S
H35 C50 0.940 . S
H36 C51 0.940 . S
H37 C53 0.939 . S
H38 C54 0.942 . S
H39 C56 0.940 . S
H40 C57 0.939 . S
H41 C59 0.941 . S
H42 C63 0.939 . S
O43 P32 1.490 . S
H44 C60 0.939 . S
H45 C62 0.940 . S
C46 P32 1.812 . S
C46 C47 1.389 . S
C46 C51 1.391 . S
C47 H33 0.941 . S
C47 C46 1.389 . S
C47 C48 1.397 . S
C48 H34 0.939 . S
C48 C47 1.397 . S
C48 C49 1.378 . S
C49 C48 1.378 . S
C49 C50 1.378 . S
C50 H35 0.940 . S
C50 C49 1.378 . S
C50 C51 1.396 . S
C51 H36 0.940 . S
C51 C46 1.391 . S
C51 C50 1.396 . S
C52 P32 1.803 . S
C52 C53 1.378 . S
C52 C57 1.400 . S
C53 H37 0.939 . S
C53 C52 1.378 . S
C53 C54 1.361 . S
C54 H38 0.942 . S
C54 C53 1.361 . S
C54 C55 1.369 . S
C55 C54 1.369 . S
C55 C56 1.404 . S
C56 H39 0.940 . S
C56 C55 1.404 . S
C56 C57 1.389 . S
C57 H40 0.939 . S
C57 C52 1.400 . S
C57 C56 1.389 . S
C58 P32 1.819 . S
C58 C59 1.391 . S
C58 C63 1.391 . S
C59 H41 0.941 . S
C59 C58 1.391 . S
C59 C60 1.396 . S
C60 H44 0.939 . S
C60 C59 1.396 . S
C60 C61 1.397 . S
C61 C60 1.397 . S
C61 C62 1.385 . S
C62 H45 0.940 . S
C62 C61 1.385 . S
C62 C63 1.388 . S
C63 H42 0.939 . S
C63 C58 1.391 . S
C63 C62 1.388 . S
P64 O75 1.490 . S
P64 C78 1.812 1_554 S
P64 C84 1.803 . S
P64 C90 1.819 . S
H65 C79 0.941 . S
H66 C80 0.939 . S
H67 C82 0.940 . S
H68 C83 0.940 . S
H69 C85 0.939 . S
H70 C86 0.942 . S
H71 C88 0.940 . S
H72 C89 0.939 . S
H73 C91 0.941 . S
H74 C95 0.939 . S
O75 P64 1.490 . S
H76 C92 0.939 . S
H77 C94 0.940 . S
C78 P64 1.812 1_556 S
C78 C79 1.389 . S
C78 C83 1.391 . S
C79 H65 0.941 . S
C79 C78 1.389 . S
C79 C80 1.397 . S
C80 H66 0.939 . S
C80 C79 1.397 . S
C80 C81 1.378 . S
C81 C80 1.378 . S
C81 C82 1.378 . S
C82 H67 0.940 . S
C82 C81 1.378 . S
C82 C83 1.396 . S
C83 H68 0.940 . S
C83 C78 1.391 . S
C83 C82 1.396 . S
C84 P64 1.803 . S
C84 C85 1.378 . S
C84 C89 1.400 1_554 S
C85 H69 0.939 . S
C85 C84 1.378 . S
C85 C86 1.361 . S
C86 H70 0.942 . S
C86 C85 1.361 . S
C86 C87 1.369 . S
C87 C86 1.369 . S
C87 C88 1.404 1_554 S
C88 H71 0.940 . S
C88 C87 1.404 1_556 S
C88 C89 1.389 . S
C89 H72 0.939 . S
C89 C84 1.400 1_556 S
C89 C88 1.389 . S
C90 P64 1.819 . S
C90 C91 1.391 . S
C90 C95 1.391 . S
C91 H73 0.941 . S
C91 C90 1.391 . S
C91 C92 1.396 . S
C92 H76 0.939 . S
C92 C91 1.396 . S
C92 C93 1.397 . S
C93 C92 1.397 . S
C93 C94 1.385 . S
C94 H77 0.940 . S
C94 C93 1.385 . S
C94 C95 1.388 . S
C95 H74 0.939 . S
C95 C90 1.391 . S
C95 C94 1.388 . S
P96 O107 1.490 . S
P96 C110 1.812 . S
P96 C116 1.803 . S
P96 C122 1.819 . S
H97 C111 0.941 . S
H98 C112 0.939 . S
H99 C114 0.940 . S
H100 C115 0.940 . S
H101 C117 0.939 . S
H102 C118 0.942 . S
H103 C120 0.940 . S
H104 C121 0.939 . S
H105 C123 0.941 . S
H106 C127 0.939 . S
O107 P96 1.490 . S
H108 C124 0.939 . S
H109 C126 0.940 . S
C110 P96 1.812 . S
C110 C111 1.389 . S
C110 C115 1.391 . S
C111 H97 0.941 . S
C111 C110 1.389 . S
C111 C112 1.397 . S
C112 H98 0.939 . S
C112 C111 1.397 . S
C112 C113 1.378 . S
C113 C112 1.378 . S
C113 C114 1.378 . S
C114 H99 0.940 . S
C114 C113 1.378 . S
C114 C115 1.396 . S
C115 H100 0.940 . S
C115 C110 1.391 . S
C115 C114 1.396 . S
C116 P96 1.803 . S
C116 C117 1.378 . S
C116 C121 1.400 . S
C117 H101 0.939 . S
C117 C116 1.378 . S
C117 C118 1.361 . S
C118 H102 0.942 . S
C118 C117 1.361 . S
C118 C119 1.369 . S
C119 C118 1.369 . S
C119 C120 1.404 . S
C120 H103 0.940 . S
C120 C119 1.404 . S
C120 C121 1.389 . S
C121 H104 0.939 . S
C121 C116 1.400 . S
C121 C120 1.389 . S
C122 P96 1.819 . S
C122 C123 1.391 . S
C122 C127 1.391 . S
C123 H105 0.941 . S
C123 C122 1.391 . S
C123 C124 1.396 . S
C124 H108 0.939 . S
C124 C123 1.396 . S
C124 C125 1.397 . S
C125 C124 1.397 . S
C125 C126 1.385 . S
C126 H109 0.940 . S
C126 C125 1.385 . S
C126 C127 1.388 . S
C127 H106 0.939 . S
C127 C122 1.391 . S
C127 C126 1.388 . S
C128 O144 1.251 . S
C128 O146 1.219 1_455 S
N129 C130 1.333 . S
N129 C134 1.307 . S
N129 Zn135 2.020 . S
C130 N129 1.333 . S
C130 C131 1.379 . S
C130 H148 0.952 . S
C131 C130 1.379 . S
C131 C132 1.390 . S
C131 H158 0.949 . S
C132 C131 1.390 . S
C132 C133 1.357 . S
C133 C132 1.357 . S
C133 C134 1.370 . S
C133 H159 0.950 . S
C134 N129 1.307 . S
C134 C133 1.370 . S
C134 H152 0.948 . S
Zn135 N129 2.020 . S
Zn135 O144 2.039 1_545 S
Zn135 O150 2.034 1_545 S
Zn135 O154 2.025 . S
Zn135 O156 2.024 . S
C136 O155 1.246 . S
C136 O156 1.249 1_655 S
N137 C138 1.307 . S
N137 C139 1.333 . S
N137 Zn143 2.020 . S
C138 N137 1.307 . S
C138 C142 1.370 . S
C138 H149 0.948 . S
C139 N137 1.333 . S
C139 C140 1.379 . S
C139 H147 0.952 . S
C140 C139 1.379 . S
C140 C141 1.390 . S
C140 H160 0.949 . S
C141 C140 1.390 . S
C141 C142 1.357 . S
C142 C138 1.370 . S
C142 C141 1.357 . S
C142 H161 0.950 . S
Zn143 N137 2.020 . S
Zn143 O146 2.045 . S
Zn143 O151 2.024 . S
Zn143 O153 2.039 1_565 S
Zn143 O155 2.034 1_565 S
O144 C128 1.251 . S
O144 Zn135 2.039 1_565 S
C145 O150 1.246 . S
C145 O151 1.249 1_455 S
O146 C128 1.219 1_655 S
O146 Zn143 2.045 . S
H147 C139 0.952 . S
H148 C130 0.952 . S
H149 C138 0.948 . S
O150 Zn135 2.034 1_565 S
O150 C145 1.246 . S
O151 Zn143 2.024 . S
O151 C145 1.249 1_655 S
H152 C134 0.948 . S
O153 Zn143 2.039 1_545 S
O153 C157 1.251 . S
O154 Zn135 2.025 . S
O154 C157 1.254 1_455 S
O155 C136 1.246 . S
O155 Zn143 2.034 1_545 S
O156 Zn135 2.024 . S
O156 C136 1.249 1_455 S
C157 O153 1.251 . S
C157 O154 1.254 1_655 S
H158 C131 0.949 . S
H159 C133 0.950 . S
H160 C140 0.949 . S
H161 C142 0.950 . S
C162 O178 1.251 . S
C162 O180 1.254 . S
N163 C164 1.338 . S
N163 C168 1.307 . S
N163 Zn169 2.020 . S
C164 N163 1.338 . S
C164 C165 1.379 1_554 S
C164 H182 0.947 1_554 S
C165 C164 1.379 1_556 S
C165 C166 1.386 1_556 S
C165 H192 0.953 . S
C166 C165 1.386 1_554 S
C166 C167 1.357 . S
C167 C166 1.357 . S
C167 C168 1.370 . S
C167 H193 0.950 . S
C168 N163 1.307 . S
C168 C167 1.370 . S
C168 H186 0.948 . S
Zn169 N163 2.020 . S
Zn169 O178 2.039 1_554 S
Zn169 O184 2.034 . S
Zn169 O188 2.025 . S
Zn169 O190 2.024 1_554 S
C170 O189 1.246 . S
C170 O190 1.249 . S
N171 C172 1.307 . S
N171 C173 1.333 . S
N171 Zn177 2.020 . S
C172 N171 1.307 . S
C172 C176 1.370 . S
C172 H183 0.948 1_554 S
C173 N171 1.333 . S
C173 C174 1.379 . S
C173 H181 0.952 . S
C174 C173 1.379 . S
C174 C175 1.390 . S
C174 H194 0.949 . S
C175 C174 1.390 . S
C175 C176 1.357 . S
C176 C172 1.370 . S
C176 C175 1.357 . S
C176 H195 0.950 1_554 S
Zn177 N171 2.020 . S
Zn177 O180 2.025 1_554 S
Zn177 O185 2.024 . S
Zn177 O187 2.039 . S
Zn177 O189 2.034 1_554 S
O178 C162 1.251 . S
O178 Zn169 2.039 1_556 S
C179 O184 1.246 . S
C179 O185 1.249 . S
O180 C162 1.254 . S
O180 Zn177 2.025 1_556 S
H181 C173 0.952 . S
H182 C164 0.947 1_556 S
H183 C172 0.948 1_556 S
O184 Zn169 2.034 . S
O184 C179 1.246 . S
O185 Zn177 2.024 . S
O185 C179 1.249 . S
H186 C168 0.948 . S
O187 Zn177 2.039 . S
O187 C191 1.251 . S
O188 Zn169 2.025 . S
O188 C191 1.254 . S
O189 C170 1.246 . S
O189 Zn177 2.034 1_556 S
O190 Zn169 2.024 1_556 S
O190 C170 1.249 . S
C191 O187 1.251 . S
C191 O188 1.254 . S
H192 C165 0.953 . S
H193 C167 0.950 . S
H194 C174 0.949 . S
H195 C176 0.950 1_556 S
H196 C204 0.950 . S
H197 C209 0.950 . S
H198 C206 0.950 . S
H199 C208 0.950 . S
H200 C210 0.950 . S
H201 C212 0.950 . S
H202 C214 0.950 . S
H203 C215 0.950 . S
C204 H196 0.950 . S
C204 C205 1.386 . S
C204 C206 1.391 . S
C205 C204 1.386 . S
C205 C209 1.393 . S
C206 H198 0.950 . S
C206 C204 1.391 . S
C206 C207 1.400 . S
C207 C206 1.400 . S
C207 C208 1.398 . S
C207 C213 1.491 . S
C208 H199 0.950 . S
C208 C207 1.398 . S
C208 C209 1.391 . S
C209 H197 0.950 . S
C209 C205 1.393 . S
C209 C208 1.391 . S
C210 H200 0.950 . S
C210 C211 1.386 . S
C210 C212 1.391 . S
C211 C210 1.386 . S
C211 C215 1.393 . S
C212 H201 0.950 . S
C212 C210 1.391 . S
C212 C213 1.400 . S
C213 C207 1.491 . S
C213 C212 1.400 . S
C213 C214 1.398 . S
C214 H202 0.950 . S
C214 C213 1.398 . S
C214 C215 1.391 . S
C215 H203 0.950 . S
C215 C211 1.393 . S
C215 C214 1.391 . S
H216 C224 0.950 . S
H217 C229 0.950 . S
H218 C226 0.950 . S
H219 C228 0.950 . S
H220 C230 0.950 . S
H221 C232 0.950 . S
H222 C234 0.950 . S
H223 C235 0.950 . S
C224 H216 0.950 . S
C224 C225 1.386 1_556 S
C224 C226 1.391 . S
C225 C224 1.386 1_554 S
C225 C229 1.393 . S
C226 H218 0.950 . S
C226 C224 1.391 . S
C226 C227 1.400 1_556 S
C227 C226 1.400 1_554 S
C227 C228 1.398 . S
C227 C233 1.491 . S
C228 H219 0.950 . S
C228 C227 1.398 . S
C228 C229 1.391 . S
C229 H217 0.950 . S
C229 C225 1.393 . S
C229 C228 1.391 . S
C230 H220 0.950 . S
C230 C231 1.386 . S
C230 C232 1.391 . S
C231 C230 1.386 . S
C231 C235 1.393 1_554 S
C232 H221 0.950 . S
C232 C230 1.391 . S
C232 C233 1.400 . S
C233 C227 1.491 . S
C233 C232 1.400 . S
C233 C234 1.398 1_554 S
C234 H222 0.950 . S
C234 C233 1.398 1_556 S
C234 C235 1.391 . S
C235 H223 0.950 . S
C235 C231 1.393 1_556 S
C235 C234 1.391 . S
H236 C244 0.950 . S
H237 C249 0.950 . S
H238 C246 0.950 . S
H239 C248 0.950 . S
H240 C250 0.950 . S
H241 C252 0.950 . S
H242 C254 0.950 . S
H243 C255 0.950 . S
C244 H236 0.950 . S
C244 C245 1.386 . S
C244 C246 1.391 . S
C245 C244 1.386 . S
C245 C249 1.393 . S
C246 H238 0.950 . S
C246 C244 1.391 . S
C246 C247 1.400 . S
C247 C246 1.400 . S
C247 C248 1.398 . S
C247 C253 1.491 . S
C248 H239 0.950 . S
C248 C247 1.398 . S
C248 C249 1.391 . S
C249 H237 0.950 . S
C249 C245 1.393 . S
C249 C248 1.391 . S
C250 H240 0.950 . S
C250 C251 1.386 . S
C250 C252 1.391 . S
C251 C250 1.386 . S
C251 C255 1.393 . S
C252 H241 0.950 . S
C252 C250 1.391 . S
C252 C253 1.400 . S
C253 C247 1.491 . S
C253 C252 1.400 . S
C253 C254 1.398 . S
C254 H242 0.950 . S
C254 C253 1.398 . S
C254 C255 1.391 . S
C255 H243 0.950 . S
C255 C251 1.393 . S
C255 C254 1.391 . S
H256 C264 0.950 . S
H257 C269 0.950 . S
H258 C266 0.950 . S
H259 C268 0.950 . S
H260 C270 0.948 1_556 S
H261 C272 0.950 . S
H262 C274 0.950 . S
H263 C275 0.950 . S
C264 H256 0.950 . S
C264 C265 1.386 . S
C264 C266 1.391 . S
C265 C264 1.386 . S
C265 C269 1.393 . S
C266 H258 0.950 . S
C266 C264 1.391 . S
C266 C267 1.400 . S
C267 C266 1.400 . S
C267 C268 1.398 . S
C267 C273 1.491 . S
C268 H259 0.950 . S
C268 C267 1.398 . S
C268 C269 1.391 . S
C269 H257 0.950 . S
C269 C265 1.393 . S
C269 C268 1.391 . S
C270 H260 0.948 1_554 S
C270 C271 1.386 . S
C270 C272 1.391 . S
C271 C270 1.386 . S
C271 C275 1.393 . S
C272 H261 0.950 . S
C272 C270 1.391 . S
C272 C273 1.400 . S
C273 C267 1.491 . S
C273 C272 1.400 . S
C273 C274 1.398 . S
C274 H262 0.950 . S
C274 C273 1.398 . S
C274 C275 1.391 . S
C275 H263 0.950 . S
C275 C271 1.393 . S
C275 C274 1.391 . S
H276 C284 0.950 . S
H277 C289 0.950 . S
H278 C286 0.950 . S
H279 C288 0.950 . S
H280 C290 0.950 . S
H281 C292 0.950 . S
H282 C294 0.950 . S
H283 C295 0.950 . S
C284 H276 0.950 . S
C284 C285 1.386 . S
C284 C286 1.391 . S
C285 C284 1.386 . S
C285 C289 1.393 . S
C286 H278 0.950 . S
C286 C284 1.391 . S
C286 C287 1.400 . S
C287 C286 1.400 . S
C287 C288 1.398 . S
C287 C293 1.491 . S
C288 H279 0.950 . S
C288 C287 1.398 . S
C288 C289 1.391 . S
C289 H277 0.950 . S
C289 C285 1.393 . S
C289 C288 1.391 . S
C290 H280 0.950 . S
C290 C291 1.386 . S
C290 C292 1.391 . S
C291 C290 1.386 . S
C291 C295 1.393 . S
C292 H281 0.950 . S
C292 C290 1.391 . S
C292 C293 1.400 . S
C293 C287 1.491 . S
C293 C292 1.400 . S
C293 C294 1.398 . S
C294 H282 0.950 . S
C294 C293 1.398 . S
C294 C295 1.391 . S
C295 H283 0.950 . S
C295 C291 1.393 . S
C295 C294 1.391 . S
H296 C304 0.950 . S
H297 C309 0.950 . S
H298 C306 0.950 . S
H299 C308 0.950 . S
H300 C310 0.950 . S
H301 C312 0.950 . S
H302 C314 0.950 . S
H303 C315 0.950 . S
C304 H296 0.950 . S
C304 C305 1.386 . S
C304 C306 1.391 . S
C305 C304 1.386 . S
C305 C309 1.393 . S
C306 H298 0.950 . S
C306 C304 1.391 . S
C306 C307 1.400 . S
C307 C306 1.400 . S
C307 C308 1.398 . S
C307 C313 1.491 . S
C308 H299 0.950 . S
C308 C307 1.398 . S
C308 C309 1.391 . S
C309 H297 0.950 . S
C309 C305 1.393 . S
C309 C308 1.391 . S
C310 H300 0.950 . S
C310 C311 1.386 . S
C310 C312 1.391 . S
C311 C310 1.386 . S
C311 C315 1.393 . S
C312 H301 0.950 . S
C312 C310 1.391 . S
C312 C313 1.400 . S
C313 C307 1.491 . S
C313 C312 1.400 . S
C313 C314 1.398 . S
C314 H302 0.950 . S
C314 C313 1.398 . S
C314 C315 1.391 . S
C315 H303 0.950 . S
C315 C311 1.393 . S
C315 C314 1.391 . S
H316 C324 0.950 . S
H317 C329 0.950 . S
H318 C326 0.950 . S
H319 C328 0.950 . S
H320 C330 0.950 1_455 S
H321 C332 0.961 . S
H322 C334 0.950 . S
H323 C335 0.950 . S
C324 H316 0.950 . S
C324 C325 1.386 . S
C324 C326 1.391 . S
C325 C324 1.386 . S
C325 C329 1.393 . S
C326 H318 0.950 . S
C326 C324 1.391 . S
C326 C327 1.400 . S
C327 C326 1.400 . S
C327 C328 1.398 . S
C327 C333 1.491 . S
C328 H319 0.950 . S
C328 C327 1.398 . S
C328 C329 1.391 . S
C329 H317 0.950 . S
C329 C325 1.393 . S
C329 C328 1.391 . S
C330 H320 0.950 1_655 S
C330 C331 1.386 . S
C330 C332 1.391 . S
C331 C330 1.386 . S
C331 C335 1.393 . S
C332 H321 0.961 . S
C332 C330 1.391 . S
C332 C333 1.400 . S
C333 C327 1.491 . S
C333 C332 1.400 . S
C333 C334 1.398 . S
C334 H322 0.950 . S
C334 C333 1.398 . S
C334 C335 1.391 . S
C335 H323 0.950 . S
C335 C331 1.393 . S
C335 C334 1.391 . S
H336 C344 0.950 . S
H337 C349 0.950 . S
H338 C346 0.950 . S
H339 C348 0.950 . S
H340 C350 0.950 . S
H341 C352 0.950 . S
H342 C354 0.950 . S
H343 C355 0.950 . S
C344 H336 0.950 . S
C344 C345 1.386 . S
C344 C346 1.391 . S
C345 C344 1.386 . S
C345 C349 1.393 . S
C346 H338 0.950 . S
C346 C344 1.391 . S
C346 C347 1.400 . S
C347 C346 1.400 . S
C347 C348 1.398 . S
C347 C353 1.491 . S
C348 H339 0.950 . S
C348 C347 1.398 . S
C348 C349 1.391 . S
C349 H337 0.950 . S
C349 C345 1.393 . S
C349 C348 1.391 . S
C350 H340 0.950 . S
C350 C351 1.386 . S
C350 C352 1.391 . S
C351 C350 1.386 . S
C351 C355 1.393 . S
C352 H341 0.950 . S
C352 C350 1.391 . S
C352 C353 1.400 . S
C353 C347 1.491 . S
C353 C352 1.400 . S
C353 C354 1.398 . S
C354 H342 0.950 . S
C354 C353 1.398 . S
C354 C355 1.391 . S
C355 H343 0.950 . S
C355 C351 1.393 . S
C355 C354 1.391 . S
H356 C364 0.950 . S
H357 C369 0.950 . S
H358 C366 0.950 . S
H359 C368 0.950 . S
H360 C370 0.950 . S
H361 C372 0.950 . S
H362 C374 0.950 . S
H363 C375 0.950 . S
C364 H356 0.950 . S
C364 C365 1.386 . S
C364 C366 1.391 . S
C365 C364 1.386 . S
C365 C369 1.393 . S
C366 H358 0.950 . S
C366 C364 1.391 . S
C366 C367 1.400 . S
C367 C366 1.400 . S
C367 C368 1.398 . S
C367 C373 1.491 . S
C368 H359 0.950 . S
C368 C367 1.398 . S
C368 C369 1.391 . S
C369 H357 0.950 . S
C369 C365 1.393 . S
C369 C368 1.391 . S
C370 H360 0.950 . S
C370 C371 1.386 . S
C370 C372 1.391 . S
C371 C370 1.386 . S
C371 C375 1.393 . S
C372 H361 0.950 . S
C372 C370 1.391 . S
C372 C373 1.400 . S
C373 C367 1.491 . S
C373 C372 1.400 . S
C373 C374 1.398 . S
C374 H362 0.950 . S
C374 C373 1.398 . S
C374 C375 1.391 . S
C375 H363 0.950 . S
C375 C371 1.393 . S
C375 C374 1.391 . S
H376 C384 0.950 . S
H377 C389 0.950 . S
H378 C386 0.950 . S
H379 C388 0.950 . S
H380 C390 0.950 1_455 S
H381 C392 0.941 1_455 S
H382 C394 0.950 . S
H383 C395 0.950 . S
C384 H376 0.950 . S
C384 C385 1.386 . S
C384 C386 1.391 . S
C385 C384 1.386 . S
C385 C389 1.393 . S
C386 H378 0.950 . S
C386 C384 1.391 . S
C386 C387 1.400 . S
C387 C386 1.400 . S
C387 C388 1.398 . S
C387 C393 1.491 . S
C388 H379 0.950 . S
C388 C387 1.398 . S
C388 C389 1.391 . S
C389 H377 0.950 . S
C389 C385 1.393 . S
C389 C388 1.391 . S
C390 H380 0.950 1_655 S
C390 C391 1.386 . S
C390 C392 1.391 . S
C391 C390 1.386 . S
C391 C395 1.393 . S
C392 H381 0.941 1_655 S
C392 C390 1.391 . S
C392 C393 1.400 . S
C393 C387 1.491 . S
C393 C392 1.400 . S
C393 C394 1.398 . S
C394 H382 0.950 . S
C394 C393 1.398 . S
C394 C395 1.391 . S
C395 H383 0.950 . S
C395 C391 1.393 . S
C395 C394 1.391 . S
H396 C404 0.950 . S
H397 C409 0.950 . S
H398 C406 0.950 . S
H399 C408 0.950 . S
H400 C410 0.950 . S
H401 C412 0.950 . S
H402 C414 0.950 . S
H403 C415 0.950 . S
C404 H396 0.950 . S
C404 C405 1.386 . S
C404 C406 1.391 . S
C405 C404 1.386 . S
C405 C409 1.393 . S
C406 H398 0.950 . S
C406 C404 1.391 . S
C406 C407 1.400 . S
C407 C406 1.400 . S
C407 C408 1.398 . S
C407 C413 1.491 . S
C408 H399 0.950 . S
C408 C407 1.398 . S
C408 C409 1.391 . S
C409 H397 0.950 . S
C409 C405 1.393 . S
C409 C408 1.391 . S
C410 H400 0.950 . S
C410 C411 1.386 . S
C410 C412 1.391 . S
C411 C410 1.386 . S
C411 C415 1.393 . S
C412 H401 0.950 . S
C412 C410 1.391 . S
C412 C413 1.400 . S
C413 C407 1.491 . S
C413 C412 1.400 . S
C413 C414 1.398 . S
C414 H402 0.950 . S
C414 C413 1.398 . S
C414 C415 1.391 . S
C415 H403 0.950 . S
C415 C411 1.393 . S
C415 C414 1.391 . S
H416 C424 0.950 . S
H417 C429 0.950 . S
H418 C426 0.950 . S
H419 C428 0.950 . S
H420 C430 0.950 . S
H421 C432 0.950 . S
H422 C434 0.950 . S
H423 C435 0.950 1_655 S
C424 H416 0.950 . S
C424 C425 1.386 . S
C424 C426 1.391 . S
C425 C424 1.386 . S
C425 C429 1.393 . S
C426 H418 0.950 . S
C426 C424 1.391 . S
C426 C427 1.400 . S
C427 C426 1.400 . S
C427 C428 1.398 . S
C427 C433 1.491 . S
C428 H419 0.950 . S
C428 C427 1.398 . S
C428 C429 1.391 . S
C429 H417 0.950 . S
C429 C425 1.393 . S
C429 C428 1.391 . S
C430 H420 0.950 . S
C430 C431 1.386 . S
C430 C432 1.391 . S
C431 C430 1.386 . S
C431 C435 1.393 . S
C432 H421 0.950 . S
C432 C430 1.391 . S
C432 C433 1.400 . S
C433 C427 1.491 . S
C433 C432 1.400 . S
C433 C434 1.398 . S
C434 H422 0.950 . S
C434 C433 1.398 . S
C434 C435 1.391 . S
C435 H423 0.950 1_455 S
C435 C431 1.393 . S
C435 C434 1.391 . S
C211 C132 1.601 . S
C205 C119 1.602 . S
C225 C23 1.458 . S
C231 C175 1.539 . S
C245 C55 1.491 . S
C251 C141 1.599 . S
C265 C87 1.545 . S
C271 C166 1.543 . S
C291 C128 1.581 . S
C285 C17 1.503 . S
C311 C170 1.657 . S
C305 C61 1.534 . S
C325 C93 1.575 . S
C331 C136 1.569 . S
C345 C113 1.654 . S
C351 C162 1.652 . S
C371 C191 1.652 . S
C365 C49 1.542 . S
C391 C157 1.579 . S
C385 C81 1.582 . S
C411 C179 1.656 . S
C405 C125 1.658 . S
C425 C29 1.465 . S
C431 C145 1.568 . S
