# Generated by pormake.
# Topology pyr, (3,6)-cn, num edge types: 1
# Building blocks:
#     Node 0, Type 0, BuildingBlock: BETDAH_clean_linker_0, # of connection points: 3
#     Node 1, Type 0, BuildingBlock: BETDAH_clean_linker_0, # of connection points: 3
#     Node 2, Type 0, BuildingBlock: BETDAH_clean_linker_0, # of connection points: 3
#     Node 3, Type 0, BuildingBlock: BETDAH_clean_linker_0, # of connection points: 3
#     Node 4, Type 0, BuildingBlock: BETDAH_clean_linker_0, # of connection points: 3
#     Node 5, Type 0, BuildingBlock: BETDAH_clean_linker_0, # of connection points: 3
#     Node 6, Type 0, BuildingBlock: BETDAH_clean_linker_0, # of connection points: 3
#     Node 7, Type 0, BuildingBlock: BETDAH_clean_linker_0, # of connection points: 3
#     Node 8, Type 1, BuildingBlock: JUFBIX_clean_sbu_0, # of connection points: 6
#     Node 9, Type 1, BuildingBlock: JUFBIX_clean_sbu_0, # of connection points: 6
#     Node 10, Type 1, BuildingBlock: JUFBIX_clean_sbu_0, # of connection points: 6
#     Node 11, Type 1, BuildingBlock: JUFBIX_clean_sbu_0, # of connection points: 6
#     Edge 12, Type (0, 1), BuildingBlock: XUDNAN_clean_linker_2, # of connection points: 2
#     Edge 13, Type (0, 1), BuildingBlock: XUDNAN_clean_linker_2, # of connection points: 2
#     Edge 14, Type (0, 1), BuildingBlock: XUDNAN_clean_linker_2, # of connection points: 2
#     Edge 15, Type (0, 1), BuildingBlock: XUDNAN_clean_linker_2, # of connection points: 2
#     Edge 16, Type (0, 1), BuildingBlock: XUDNAN_clean_linker_2, # of connection points: 2
#     Edge 17, Type (0, 1), BuildingBlock: XUDNAN_clean_linker_2, # of connection points: 2
#     Edge 18, Type (0, 1), BuildingBlock: XUDNAN_clean_linker_2, # of connection points: 2
#     Edge 19, Type (0, 1), BuildingBlock: XUDNAN_clean_linker_2, # of connection points: 2
#     Edge 20, Type (0, 1), BuildingBlock: XUDNAN_clean_linker_2, # of connection points: 2
#     Edge 21, Type (0, 1), BuildingBlock: XUDNAN_clean_linker_2, # of connection points: 2
#     Edge 22, Type (0, 1), BuildingBlock: XUDNAN_clean_linker_2, # of connection points: 2
#     Edge 23, Type (0, 1), BuildingBlock: XUDNAN_clean_linker_2, # of connection points: 2
#     Edge 24, Type (0, 1), BuildingBlock: XUDNAN_clean_linker_2, # of connection points: 2
#     Edge 25, Type (0, 1), BuildingBlock: XUDNAN_clean_linker_2, # of connection points: 2
#     Edge 26, Type (0, 1), BuildingBlock: XUDNAN_clean_linker_2, # of connection points: 2
#     Edge 27, Type (0, 1), BuildingBlock: XUDNAN_clean_linker_2, # of connection points: 2
#     Edge 28, Type (0, 1), BuildingBlock: XUDNAN_clean_linker_2, # of connection points: 2
#     Edge 29, Type (0, 1), BuildingBlock: XUDNAN_clean_linker_2, # of connection points: 2
#     Edge 30, Type (0, 1), BuildingBlock: XUDNAN_clean_linker_2, # of connection points: 2
#     Edge 31, Type (0, 1), BuildingBlock: XUDNAN_clean_linker_2, # of connection points: 2
#     Edge 32, Type (0, 1), BuildingBlock: XUDNAN_clean_linker_2, # of connection points: 2
#     Edge 33, Type (0, 1), BuildingBlock: XUDNAN_clean_linker_2, # of connection points: 2
#     Edge 34, Type (0, 1), BuildingBlock: XUDNAN_clean_linker_2, # of connection points: 2
#     Edge 35, Type (0, 1), BuildingBlock: XUDNAN_clean_linker_2, # of connection points: 2
# Relax obj value: 0.126
# Max RMSD: 0.203
# Mean RMSD: 0.127
data_MOF--net-pry--node1-JUFBIX_clean_sbu_0--node2-BETDAH_clean_linker_0--edge1-XUDNAN_clean_linker_2
_symmetry_space_group_name_H-M    P1
_symmetry_Int_Tables_number       1
_symmetry_cell_setting            triclinic
loop_
_symmetry_equiv_pos_as_xyz
'x, y, z'
_cell_length_a     36.619166
_cell_length_b     34.775843
_cell_length_c     38.41145
_cell_angle_alpha  84.843706
_cell_angle_beta   89.99116
_cell_angle_gamma 97.196295
loop_
_atom_site_label
_atom_site_type_symbol
_atom_site_fract_x
_atom_site_fract_y
_atom_site_fract_z
_atom_type_partial_charge
H0 H 0.24202 0.13768 0.24862 0.0
H1 H 0.24334 0.23521 0.17057 0.0
H2 H 0.16574 0.22107 0.25656 0.0
C3 C 0.23027 0.16323 0.23793 0.0
C4 C 0.20097 0.17576 0.25648 0.0
C5 C 0.24596 0.18371 0.20658 0.0
C6 C 0.23037 0.21755 0.19293 0.0
C7 C 0.2006 0.23093 0.21048 0.0
C8 C 0.18652 0.20949 0.24193 0.0
N9 N 0.1919 0.2704 0.204 0.0
C10 C 0.17667 0.29017 0.17465 0.0
H11 H 0.45541 0.84634 0.74852 0.0
H12 H 0.44105 0.96239 0.70476 0.0
H13 H 0.46826 0.87786 0.63811 0.0
C14 C 0.45461 0.86786 0.72643 0.0
C15 C 0.46145 0.85728 0.69283 0.0
C16 C 0.44792 0.90605 0.73154 0.0
C17 C 0.44737 0.93321 0.70203 0.0
C18 C 0.45554 0.92311 0.66864 0.0
C19 C 0.46302 0.88551 0.66424 0.0
N20 N 0.45601 0.95043 0.63902 0.0
C21 C 0.42512 0.9682 0.62994 0.0
H22 H 0.71464 0.37593 0.96611 0.0
H23 H 0.7677 0.43557 0.87283 0.0
H24 H 0.66233 0.36845 0.86613 0.0
C25 C 0.71525 0.38313 0.93811 0.0
C26 C 0.68564 0.3675 0.91814 0.0
C27 C 0.74544 0.40766 0.9224 0.0
C28 C 0.74454 0.41791 0.88617 0.0
C29 C 0.714 0.40555 0.86628 0.0
C30 C 0.68467 0.37999 0.88217 0.0
N31 N 0.71514 0.41742 0.82989 0.0
C32 C 0.68468 0.42333 0.80936 0.0
H33 H 0.92601 0.69158 0.52471 0.0
H34 H 0.01604 0.68259 0.45494 0.0
H35 H 0.91373 0.60824 0.44823 0.0
C36 C 0.93787 0.6774 0.50419 0.0
C37 C 0.91643 0.6474 0.48882 0.0
C38 C 0.97378 0.69064 0.4919 0.0
C39 C 0.98866 0.67215 0.4652 0.0
C40 C 0.96697 0.64294 0.44905 0.0
C41 C 0.93074 0.63063 0.46084 0.0
N42 N 0.98147 0.62797 0.4197 0.0
C43 C 0.96056 0.62093 0.39028 0.0
H44 H 0.9265 0.86461 0.85189 0.0
H45 H 0.83992 0.87299 0.92776 0.0
H46 H 0.84539 0.94243 0.82962 0.0
C47 C 0.90259 0.87707 0.85999 0.0
C48 C 0.88812 0.90498 0.83621 0.0
C49 C 0.88592 0.86466 0.89365 0.0
C50 C 0.85415 0.88221 0.90318 0.0
C51 C 0.83957 0.91061 0.88015 0.0
C52 C 0.85694 0.92113 0.84727 0.0
N53 N 0.80626 0.9278 0.88631 0.0
C54 C 0.78465 0.93129 0.91626 0.0
H55 H 0.7072 0.16238 0.38669 0.0
H56 H 0.74207 0.2393 0.46496 0.0
H57 H 0.6647 0.27251 0.38749 0.0
C58 C 0.70549 0.18934 0.39835 0.0
C59 C 0.6831 0.21635 0.38331 0.0
C60 C 0.72625 0.19701 0.42817 0.0
C61 C 0.72535 0.23248 0.44251 0.0
C62 C 0.70332 0.25963 0.42809 0.0
C63 C 0.68185 0.25146 0.39865 0.0
N64 N 0.7043 0.29524 0.44347 0.0
C65 C 0.67674 0.31917 0.44002 0.0
H66 H 0.34249 0.75241 0.14321 0.0
H67 H 0.27973 0.69015 0.23006 0.0
H68 H 0.38898 0.7465 0.24585 0.0
C69 C 0.33976 0.74226 0.17067 0.0
C70 C 0.36903 0.75265 0.193 0.0
C71 C 0.307 0.72001 0.18337 0.0
C72 C 0.30471 0.70683 0.21916 0.0
C73 C 0.33442 0.71505 0.24157 0.0
C74 C 0.36645 0.73868 0.22854 0.0
N75 N 0.33038 0.69991 0.27719 0.0
C76 C 0.35917 0.69538 0.30027 0.0
H77 H 0.12672 0.38982 0.57767 0.0
H78 H 0.12303 0.45047 0.67001 0.0
H79 H 0.03773 0.35798 0.65194 0.0
C80 C 0.11236 0.3951 0.60115 0.0
C81 C 0.08001 0.37102 0.61196 0.0
C82 C 0.12764 0.42413 0.62182 0.0
C83 C 0.11052 0.42882 0.65357 0.0
C84 C 0.07771 0.40517 0.66419 0.0
C85 C 0.06219 0.37715 0.64288 0.0
N86 N 0.06093 0.40703 0.6971 0.0
C87 C 0.07943 0.42364 0.72461 0.0
Co88 Co 0.022 0.03163 0.53037 0.0
C89 C 0.05161 0.9616 0.53388 0.0
Co90 Co 0.07303 0.03147 0.56027 0.0
C91 C 0.94793 0.04453 0.51364 0.0
C92 C 0.97158 0.01379 0.47526 0.0
N93 N 0.97865 0.02925 0.50589 0.0
N94 N 0.92206 0.03967 0.4889 0.0
C95 C 0.93681 0.02027 0.46468 0.0
H96 H 0.94529 0.06048 0.53628 0.0
H97 H 0.99083 0.9996 0.46113 0.0
C98 C 0.04246 0.10131 0.55662 0.0
N99 N 0.11647 0.03389 0.58475 0.0
C100 C 0.14933 0.02499 0.57436 0.0
C101 C 0.12224 0.04594 0.61692 0.0
N102 N 0.17542 0.03097 0.59879 0.0
C103 C 0.15843 0.04406 0.62568 0.0
C104 C 0.08475 0.05774 0.48723 0.0
O105 O 0.0177 0.083 0.53928 0.0
O106 O 0.06917 0.08415 0.56844 0.0
O107 O 0.10049 0.05023 0.51638 0.0
O108 O 0.04966 0.05147 0.48687 0.0
O109 O 0.07673 0.97869 0.55189 0.0
H110 H 0.10154 0.05587 0.63282 0.0
H111 H 0.1539 0.01404 0.54942 0.0
O112 O 0.02616 0.98025 0.52165 0.0
O113 O 0.99452 0.01202 0.57392 0.0
O114 O 0.04508 0.01259 0.60403 0.0
C115 C 1.01003 1.00551 0.60337 0.0
H116 H 0.9237 0.01198 0.44076 0.0
H117 H 0.17139 0.05244 0.64964 0.0
Co118 Co 0.50522 0.05899 0.04046 0.0
C119 C 0.49795 0.99519 0.08887 0.0
Co120 Co 0.53815 0.06908 0.08722 0.0
C121 C 0.47508 0.02133 0.98101 0.0
C122 C 0.45934 0.07842 0.9828 0.0
N123 N 0.47801 0.05197 1.0005 0.0
N124 N 0.45579 0.02796 0.95167 0.0
C125 C 0.44595 0.06385 0.95253 0.0
H126 H 0.48826 0.99544 0.98736 0.0
H127 H 0.45668 0.10698 0.99082 0.0
C128 C 0.54566 0.1327 0.03781 0.0
N129 N 0.5653 0.07602 0.12712 0.0
C130 C 0.56843 0.10643 0.14689 0.0
C131 C 0.58481 0.04978 0.14395 0.0
N132 N 0.58879 0.09994 0.1756 0.0
C133 C 0.59919 0.06435 0.1738 0.0
C134 C 0.57819 0.03672 0.03576 0.0
O135 O 0.52236 0.11042 0.02218 0.0
O136 O 0.55751 0.1205 0.0674 0.0
O137 O 0.5789 0.04816 0.0664 0.0
O138 O 0.54862 0.03943 0.01828 0.0
O139 O 0.51886 0.01775 0.10664 0.0
H140 H 0.58786 0.02157 0.13533 0.0
H141 H 0.55512 0.13228 0.14087 0.0
O142 O 0.48836 0.00747 0.05857 0.0
O143 O 0.46219 0.0785 0.06344 0.0
O144 O 0.49731 0.0897 0.10821 0.0
C145 C 0.46597 0.09086 0.09388 0.0
H146 H 0.43075 0.07864 0.9324 0.0
H147 H 0.61606 0.04992 0.19269 0.0
Co148 Co 0.54729 0.58156 0.5532 0.0
C149 C 0.49431 0.59767 0.5032 0.0
Co150 Co 0.49315 0.54698 0.56315 0.0
C151 C 0.62564 0.59831 0.5464 0.0
C152 C 0.59905 0.64863 0.53147 0.0
N153 N 0.59229 0.61085 0.54382 0.0
N154 N 0.65296 0.62664 0.5359 0.0
C155 C 0.6364 0.65839 0.52641 0.0
H156 H 0.6297 0.56862 0.55486 0.0
H157 H 0.57812 0.66766 0.52609 0.0
C158 C 0.5462 0.53075 0.61311 0.0
N159 N 0.44852 0.51698 0.57272 0.0
C160 C 0.41428 0.52744 0.57043 0.0
C161 C 0.4438 0.47927 0.58558 0.0
N162 N 0.38854 0.49782 0.58186 0.0
C163 C 0.40695 0.46749 0.59143 0.0
C164 C 0.53946 0.5123 0.52227 0.0
O165 O 0.56676 0.55683 0.59445 0.0
O166 O 0.51308 0.52212 0.60394 0.0
O167 O 0.50748 0.50821 0.53595 0.0
O168 O 0.56149 0.54258 0.5268 0.0
O169 O 0.47351 0.5721 0.52224 0.0
H170 H 0.46582 0.4616 0.59079 0.0
H171 H 0.40842 0.55643 0.56147 0.0
O172 O 0.52762 0.60601 0.51209 0.0
O173 O 0.53291 0.62041 0.5796 0.0
O174 O 0.47908 0.58592 0.59041 0.0
C175 C 0.50134 0.61637 0.59413 0.0
H176 H 0.6503 0.68661 0.51661 0.0
H177 H 0.39456 0.43882 0.60176 0.0
Co178 Co 0.04063 0.57785 1.01196 0.0
C179 C 0.97054 0.53613 0.02418 0.0
Co180 Co 0.01914 0.57682 0.06562 0.0
C181 C 0.08331 0.56043 0.95299 0.0
C182 C 0.04021 0.59444 0.93772 0.0
N183 N 0.05631 0.5783 0.96604 0.0
N184 N 0.08446 0.56463 0.91768 0.0
C185 C 0.05745 0.58625 0.90813 0.0
H186 H 0.10082 0.54337 0.96896 0.0
H187 H 0.01607 0.60936 0.93822 0.0
C188 C 0.08934 0.6178 0.05414 0.0
N189 N 1.00455 0.5759 0.11188 0.0
C190 C 0.97323 0.58301 0.12745 0.0
C191 C 0.02624 0.56503 0.13847 0.0
N192 N 0.97462 0.57587 0.16258 0.0
C193 C 1.00793 0.56477 0.16944 0.0
C194 C 0.06081 0.51372 0.05657 0.0
O195 O 0.08547 0.60866 0.02292 0.0
O196 O 0.06343 0.60739 0.07616 0.0
O197 O 0.04232 0.52928 0.07829 0.0
O198 O 0.06335 0.52983 0.02526 0.0
O199 O 0.97512 0.54565 0.05519 0.0
H200 H 0.05391 0.55784 0.13559 0.0
H201 H 0.94994 0.5928 0.11346 0.0
O202 O 0.9956 0.54723 1.00121 0.0
O203 O 0.01795 0.62522 0.99934 0.0
O204 O 0.99568 0.62483 0.05211 0.0
C205 C 0.99881 0.64072 0.02057 0.0
H206 H 0.04874 0.59309 0.88161 0.0
H207 H 0.01864 0.55799 0.19525 0.0
H208 H 0.12985 0.16069 0.28837 0.0
H209 H 0.24426 0.14679 0.30876 0.0
H210 H 0.22696 0.11582 0.36753 0.0
H211 H 0.1067 0.18197 0.37649 0.0
H212 H 0.06128 0.15505 0.3772 0.0
H213 H 0.08209 0.17629 0.33626 0.0
H214 H 0.07274 0.10893 0.31183 0.0
H215 H 0.05191 0.0875 0.35271 0.0
H216 H 0.09095 0.0684 0.3353 0.0
H217 H 0.19791 0.08718 0.42601 0.0
H218 H 0.15944 0.06153 0.47766 0.0
H219 H 0.06227 0.09087 0.42179 0.0
C220 C 0.15135 0.15117 0.30514 0.0
C221 C 0.18875 0.1562 0.29283 0.0
C222 C 0.21547 0.14293 0.31635 0.0
C223 C 0.20588 0.1254 0.35028 0.0
C224 C 0.16911 0.12069 0.36133 0.0
C225 C 0.14212 0.13302 0.33943 0.0
C226 C 0.10452 0.12389 0.35809 0.0
C227 C 0.08765 0.16154 0.36225 0.0
C228 C 0.07848 0.09549 0.3383 0.0
C229 C 0.11464 0.10469 0.39376 0.0
C230 C 0.15219 0.10345 0.39496 0.0
C231 C 0.16847 0.08792 0.4251 0.0
C232 C 0.14619 0.07331 0.45459 0.0
C233 C 0.10742 0.07361 0.45447 0.0
C234 C 0.09164 0.08967 0.42317 0.0
H235 H 0.46846 0.9778 0.75584 0.0
H236 H 0.41588 0.86122 0.78945 0.0
H237 H 0.41268 0.87957 0.84971 0.0
H238 H 0.52132 0.9947 0.83016 0.0
H239 H 0.5139 0.04494 0.83048 0.0
H240 H 0.51238 0.02263 0.78991 0.0
H241 H 0.44685 0.04139 0.77836 0.0
H242 H 0.44829 0.06411 0.81876 0.0
H243 H 0.41116 0.02682 0.81093 0.0
H244 H 0.41971 0.9096 0.90752 0.0
H245 H 0.4297 0.95156 0.9566 0.0
H246 H 0.47045 0.04955 0.88354 0.0
C247 C 0.45546 0.95615 0.77547 0.0
C248 C 0.44288 0.91779 0.76753 0.0
C249 C 0.42675 0.89049 0.79468 0.0
C250 C 0.42448 0.90072 0.82907 0.0
C251 C 0.43766 0.93859 0.83587 0.0
C252 C 0.45213 0.96606 0.80967 0.0
C253 C 0.46371 1.00503 0.8236 0.0
C254 C 0.50529 0.01753 0.81822 0.0
C255 C 0.44115 0.03617 0.80693 0.0
C256 C 0.45398 0.99506 0.86187 0.0
C257 C 0.43939 0.95646 0.86858 0.0
C258 C 0.43049 0.94002 0.90248 0.0
C259 C 0.43635 0.96383 0.93012 0.0
C260 C 0.45023 1.00361 0.92348 0.0
C261 C 0.45907 0.01934 0.88898 0.0
H262 H 0.69653 0.47788 0.75504 0.0
H263 H 0.6126 0.39315 0.80677 0.0
H264 H 0.56729 0.41188 0.76215 0.0
H265 H 0.63763 0.55182 0.73083 0.0
H266 H 0.66049 0.56671 0.68936 0.0
H267 H 0.68568 0.54681 0.7255 0.0
H268 H 0.7044 0.49433 0.68754 0.0
H269 H 0.67923 0.51409 0.65134 0.0
H270 H 0.66914 0.46342 0.667 0.0
H271 H 0.53178 0.43975 0.71113 0.0
H272 H 0.50844 0.47419 0.65837 0.0
H273 H 0.61614 0.54096 0.64004 0.0
C274 C 0.66852 0.46344 0.75692 0.0
C275 C 0.6577 0.43421 0.78409 0.0
C276 C 0.62109 0.41568 0.78599 0.0
C277 C 0.59533 0.42614 0.76081 0.0
C278 C 0.60683 0.45514 0.7341 0.0
C279 C 0.64259 0.47355 0.73205 0.0
C280 C 0.6481 0.50356 0.70071 0.0
C281 C 0.65858 0.54466 0.71231 0.0
C282 C 0.67692 0.49321 0.67514 0.0
C283 C 0.60991 0.49913 0.68527 0.0
C284 C 0.58649 0.47111 0.70491 0.0
C285 C 0.54988 0.46177 0.69564 0.0
C286 C 0.53689 0.48154 0.66557 0.0
C287 C 0.5604 0.51039 0.645 0.0
C288 C 0.5974 0.51917 0.65517 0.0
H289 H 0.94872 0.55519 0.35825 0.0
H290 H 0.93516 0.67733 0.34789 0.0
H291 H 0.91766 0.67288 0.28602 0.0
H292 H 0.9948 0.55464 0.28616 0.0
H293 H 0.97556 0.50766 0.2736 0.0
H294 H 0.97449 0.51727 0.31853 0.0
H295 H 0.90362 0.49888 0.32019 0.0
H296 H 0.90458 0.48938 0.27482 0.0
H297 H 0.8755 0.52326 0.28901 0.0
H298 H 0.91912 0.66001 0.22369 0.0
H299 H 0.94232 0.64081 0.1681 0.0
H300 H 0.95301 0.52654 0.21786 0.0
C301 C 0.94017 0.58032 0.34321 0.0
C302 C 0.94254 0.61635 0.3574 0.0
C303 C 0.93273 0.64932 0.33721 0.0
C304 C 0.9226 0.64695 0.30218 0.0
C305 C 0.92207 0.61125 0.28807 0.0
C306 C 0.93009 0.57828 0.30822 0.0
C307 C 0.93431 0.54546 0.28584 0.0
C308 C 0.97202 0.53047 0.29135 0.0
C309 C 0.9026 0.51229 0.29288 0.0
C310 C 0.9313 0.56625 0.24981 0.0
C311 C 0.92272 0.60368 0.25152 0.0
C312 C 0.92452 0.63036 0.22188 0.0
C313 C 0.93751 0.61927 0.19032 0.0
C314 C 0.94897 0.58215 0.18902 0.0
C315 C 0.94353 0.55474 0.21842 0.0
H316 H 0.26693 0.16698 0.13805 0.0
H317 H 0.30788 0.17396 0.24355 0.0
H318 H 0.36591 0.15226 0.2257 0.0
H319 H 0.30776 0.07964 0.12173 0.0
H320 H 0.31991 0.09471 0.07665 0.0
H321 H 0.28139 0.11242 0.09648 0.0
H322 H 0.31024 0.18326 0.07942 0.0
H323 H 0.3488 0.16574 0.05945 0.0
H324 H 0.35647 0.19904 0.09283 0.0
H325 H 0.42005 0.12929 0.19783 0.0
H326 H 0.46663 0.10579 0.16221 0.0
H327 H 0.39441 0.10984 0.0726 0.0
C328 C 0.28828 0.16433 0.15728 0.0
C329 C 0.28212 0.17248 0.19263 0.0
C330 C 0.31113 0.16795 0.21661 0.0
C331 C 0.34452 0.15559 0.20662 0.0
C332 C 0.3495 0.14729 0.17216 0.0
C333 C 0.3223 0.15137 0.14767 0.0
C334 C 0.33532 0.13934 0.11252 0.0
C335 C 0.30955 0.10446 0.10117 0.0
C336 C 0.33785 0.17391 0.08438 0.0
C337 C 0.3738 0.12787 0.12125 0.0
C338 C 0.38111 0.13309 0.15592 0.0
C339 C 0.41447 0.12513 0.17066 0.0
C340 C 0.44106 0.11165 0.14989 0.0
C341 C 0.43508 0.10552 0.11409 0.0
C342 C 0.40042 0.11384 0.09972 0.0
H343 H 0.3672 0.97569 0.67113 0.0
H344 H 0.40784 0.99256 0.56426 0.0
H345 H 0.34812 0.01282 0.54438 0.0
H346 H 0.2767 0.93529 0.65229 0.0
H347 H 0.25468 0.95858 0.68517 0.0
H348 H 0.30126 0.94801 0.69114 0.0
H349 H 0.32275 0.02059 0.69894 0.0
H350 H 0.27615 0.03136 0.69319 0.0
H351 H 0.31256 0.05751 0.66562 0.0
H352 H 0.28298 0.02726 0.53607 0.0
H353 H 0.21761 0.03752 0.53996 0.0
H354 H 0.2196 0.01116 0.65245 0.0
C355 C 0.36352 0.98435 0.64367 0.0
C356 C 0.39172 0.98317 0.61906 0.0
C357 C 0.3863 0.99385 0.5833 0.0
C358 C 0.35258 1.00526 0.57186 0.0
C359 C 0.3249 1.00577 0.59668 0.0
C360 C 0.33007 0.99586 0.63187 0.0
C361 C 0.29553 0.99766 0.65299 0.0
C362 C 0.28121 0.95749 0.67147 0.0
C363 C 0.30215 0.02863 0.67923 0.0
C364 C 0.27 0.00968 0.62416 0.0
C365 C 0.28745 0.01422 0.59188 0.0
C366 C 0.26908 0.02403 0.56123 0.0
C367 C 0.23191 0.0295 0.56365 0.0
C368 C 0.21355 0.02521 0.59651 0.0
C369 C 0.23303 0.01524 0.62706 0.0
H370 H 0.79412 0.47575 0.91056 0.0
H371 H 0.7726 0.37091 0.98215 0.0
H372 H 0.82557 0.39408 0.01708 0.0
H373 H 0.89243 0.47513 0.9101 0.0
H374 H 0.90233 0.52744 0.90626 0.0
H375 H 0.8605 0.50451 0.88844 0.0
H376 H 0.82239 0.54464 0.92507 0.0
H377 H 0.8641 0.56759 0.94311 0.0
H378 H 0.82811 0.54254 0.97179 0.0
H379 H 0.88018 0.42967 0.04565 0.0
H380 H 0.93659 0.47134 0.06142 0.0
H381 H 0.92791 0.54723 0.96672 0.0
C382 C 0.80048 0.45715 0.93325 0.0
C383 C 0.77815 0.42158 0.94355 0.0
C384 C 0.78794 0.39891 0.97398 0.0
C385 C 0.81841 0.41162 0.99398 0.0
C386 C 0.8396 0.44664 0.98292 0.0
C387 C 0.83146 0.46873 0.95293 0.0
C388 C 0.86005 0.50403 0.94553 0.0
C389 C 0.88001 0.50267 0.91051 0.0
C390 C 0.84261 0.54194 0.94644 0.0
C391 C 0.88549 0.49834 0.97614 0.0
C392 C 0.87279 0.46546 0.99779 0.0
C393 C 0.89065 0.45519 0.02867 0.0
C394 C 0.92251 0.479 0.03747 0.0
C395 C 0.93659 0.51199 0.01502 0.0
C396 C 0.91789 0.52171 0.98397 0.0
H397 H 0.85624 0.67323 0.45855 0.0
H398 H 0.89096 0.59795 0.54489 0.0
H399 H 0.82612 0.58227 0.56568 0.0
H400 H 0.7899 0.71351 0.50628 0.0
H401 H 0.75766 0.71597 0.47094 0.0
H402 H 0.80614 0.71872 0.46158 0.0
H403 H 0.79365 0.66031 0.42393 0.0
H404 H 0.74507 0.65754 0.43299 0.0
H405 H 0.76853 0.61535 0.44276 0.0
H406 H 0.7577 0.57626 0.57729 0.0
H407 H 0.6911 0.58199 0.58027 0.0
H408 H 0.70203 0.66322 0.4873 0.0
C409 C 0.84989 0.65304 0.48153 0.0
C410 C 0.87797 0.63625 0.50007 0.0
C411 C 0.86935 0.61059 0.53038 0.0
C412 C 0.83278 0.60162 0.54227 0.0
C413 C 0.80552 0.61888 0.52355 0.0
C414 C 0.81367 0.64412 0.49386 0.0
C415 C 0.77969 0.66017 0.47942 0.0
C416 C 0.7836 0.70473 0.47959 0.0
C417 C 0.77124 0.64757 0.44259 0.0
C418 C 0.75117 0.64043 0.50582 0.0
C419 C 0.76648 0.61637 0.53084 0.0
C420 C 0.7454 0.59495 0.55781 0.0
C421 C 0.70766 0.59829 0.55925 0.0
C422 C 0.69159 0.62317 0.53411 0.0
C423 C 0.71373 0.64441 0.50711 0.0
H424 H 0.1351 0.34668 0.19179 0.0
H425 H 0.18169 0.30105 0.10289 0.0
H426 H 0.15709 0.35203 0.0633 0.0
H427 H 0.05097 0.3723 0.14933 0.0
H428 H 0.05042 0.4161 0.171 0.0
H429 H 0.07106 0.37578 0.19195 0.0
H430 H 0.13188 0.42102 0.19844 0.0
H431 H 0.11142 0.46142 0.17743 0.0
H432 H 0.15354 0.44842 0.16023 0.0
H433 H 0.12788 0.41092 0.03291 0.0
H434 H 0.09685 0.46881 0.01533 0.0
H435 H 0.06811 0.47655 0.12376 0.0
C436 C 0.13984 0.34718 0.16392 0.0
C437 C 0.16024 0.31925 0.15056 0.0
C438 C 0.16604 0.32156 0.11392 0.0
C439 C 0.15214 0.35068 0.09119 0.0
C440 C 0.13229 0.37783 0.10516 0.0
C441 C 0.12607 0.37617 0.1408 0.0
C442 C 0.1042 0.40898 0.14929 0.0
C443 C 0.06695 0.39229 0.16641 0.0
C444 C 0.1266 0.43659 0.17274 0.0
C445 C 0.09897 0.42943 0.11302 0.0
C446 C 0.1155 0.41108 0.08789 0.0
C447 C 0.11481 0.42515 0.05258 0.0
C448 C 0.09699 0.45834 0.04274 0.0
C449 C 0.07952 0.4778 0.06781 0.0
C450 C 0.08075 0.46266 0.10358 0.0
H451 H 0.69583 0.30927 0.96948 0.0
H452 H 0.61115 0.35458 0.9043 0.0
H453 H 0.56562 0.3012 0.93009 0.0
H454 H 0.66613 0.20988 0.96551 0.0
H455 H 0.67654 0.19576 1.01035 0.0
H456 H 0.70216 0.23814 0.98759 0.0
H457 H 0.68491 0.28024 0.03594 0.0
H458 H 0.65926 0.23793 0.05894 0.0
H459 H 0.63713 0.28063 0.04708 0.0
H460 H 0.53036 0.24028 0.96015 0.0
H461 H 0.50755 0.17778 0.9934 0.0
H462 H 0.61403 0.17502 0.04231 0.0
C463 C 0.66757 0.30875 0.96107 0.0
C464 C 0.65726 0.33654 0.93476 0.0
C465 C 0.62005 0.3336 0.92401 0.0
C466 C 0.59386 0.30351 0.93875 0.0
C467 C 0.60513 0.27674 0.96452 0.0
C468 C 0.64104 0.27929 0.9758 0.0
C469 C 0.64631 0.2464 1.00335 0.0
C470 C 0.67444 0.22105 0.99094 0.0
C471 C 0.65756 0.26226 0.03841 0.0
C472 C 0.60781 0.22446 1.00546 0.0
C473 C 0.5845 0.24244 0.98276 0.0
C474 C 0.54821 0.22632 0.97836 0.0
C475 C 0.53554 0.19078 0.99732 0.0
C476 C 0.55889 0.17185 0.02074 0.0
C477 C 0.59535 0.18929 0.02519 0.0
H478 H 0.94567 0.75865 0.49315 0.0
H479 H 0.04571 0.70606 0.51307 0.0
H480 H 0.07789 0.77006 0.52699 0.0
H481 H 0.9885 0.84652 0.45006 0.0
H482 H 0.95707 0.87607 0.46748 0.0
H483 H 0.94199 0.82583 0.46162 0.0
H484 H 0.92274 0.81301 0.52705 0.0
H485 H 0.9374 0.86334 0.53303 0.0
H486 H 0.95593 0.82556 0.56015 0.0
H487 H 0.09837 0.84151 0.53881 0.0
H488 H 0.10535 0.91262 0.54499 0.0
H489 H 0.99181 0.91562 0.51364 0.0
C490 C 0.97415 0.76038 0.50117 0.0
C491 C 0.99311 0.72746 0.50277 0.0
C492 C 0.03072 0.73107 0.5121 0.0
C493 C 0.04911 0.76719 0.52001 0.0
C494 C 0.02951 0.79926 0.51796 0.0
C495 C 0.99286 0.796 0.50859 0.0
C496 C 0.97808 0.83467 0.50652 0.0
C497 C 0.9657 0.84645 0.4692 0.0
C498 C 0.94669 0.83409 0.53329 0.0
C499 C 1.01205 0.86042 0.51624 0.0
C500 C 0.0415 0.83975 0.52308 0.0
C501 C 0.0755 0.85795 0.53332 0.0
C502 C 0.07925 0.89825 0.53673 0.0
C503 C 0.04928 0.91966 0.52943 0.0
C504 C 1.01548 0.90027 0.51895 0.0
H505 H 0.5134 0.83078 0.65312 0.0
H506 H 0.41692 0.79197 0.71852 0.0
H507 H 0.41826 0.72467 0.70291 0.0
H508 H 0.48829 0.77386 0.58465 0.0
H509 H 0.53408 0.76327 0.57549 0.0
H510 H 0.52775 0.80741 0.59454 0.0
H511 H 0.56949 0.78889 0.64631 0.0
H512 H 0.57625 0.74479 0.62722 0.0
H513 H 0.55895 0.74244 0.6714 0.0
H514 H 0.42625 0.66326 0.67486 0.0
H515 H 0.44341 0.61138 0.64031 0.0
H516 H 0.53544 0.69067 0.5946 0.0
C517 C 0.4929 0.80797 0.66454 0.0
C518 C 0.4651 0.81642 0.68704 0.0
C519 C 0.43873 0.78591 0.70156 0.0
C520 C 0.43916 0.7477 0.6927 0.0
C521 C 0.46641 0.74053 0.66967 0.0
C522 C 0.49312 0.76973 0.6562 0.0
C523 C 0.51858 0.75479 0.63103 0.0
C524 C 0.51706 0.7761 0.59426 0.0
C525 C 0.55816 0.75791 0.64483 0.0
C526 C 0.5015 0.71284 0.63175 0.0
C527 C 0.47144 0.7051 0.65417 0.0
C528 C 0.45008 0.66881 0.65763 0.0
C529 C 0.4599 0.63962 0.6378 0.0
C530 C 0.49088 0.64695 0.615 0.0
C531 C 0.51189 0.68403 0.61215 0.0
H532 H 0.96128 0.92766 0.80923 0.0
H533 H 0.84754 0.9079 0.77667 0.0
H534 H 0.8664 0.93061 0.71612 0.0
H535 H 0.9868 0.01537 0.75156 0.0
H536 H 0.03217 1.00456 0.74101 0.0
H537 H 1.01073 0.98543 0.78227 0.0
H538 H 0.01932 0.91564 0.76876 0.0
H539 H 0.04096 0.9346 0.72754 0.0
H540 H 1.00155 0.8978 0.72868 0.0
H541 H 0.89631 0.95781 0.65842 0.0
H542 H 0.93535 0.98505 0.60776 0.0
H543 H 0.03178 0.98824 0.67365 0.0
C544 C 0.9404 0.92762 0.78929 0.0
C545 C 0.90247 0.91591 0.79858 0.0
C546 C 0.87649 0.91693 0.7711 0.0
C547 C 0.88702 0.92981 0.73626 0.0
C548 C 0.92408 0.94188 0.72816 0.0
C549 C 0.95057 0.94073 0.75376 0.0
C550 C 0.98852 0.95601 0.73732 0.0
C551 C 1.00557 0.99251 0.75405 0.0
C552 C 1.01411 0.92411 0.74079 0.0
C553 C 0.97905 0.96602 0.69882 0.0
C554 C 0.94157 0.9575 0.6944 0.0
C555 C 0.92571 0.96439 0.6617 0.0
C556 C 0.94835 0.98008 0.6328 0.0
C557 C 0.98708 0.98914 0.63589 0.0
C558 C 1.00245 0.98182 0.66982 0.0
H559 H 0.64785 0.14624 0.36638 0.0
H560 H 0.67262 0.2675 0.32627 0.0
H561 H 0.64459 0.25187 0.26998 0.0
H562 H 0.67455 0.10863 0.29117 0.0
H563 H 0.6398 0.06685 0.2945 0.0
H564 H 0.65588 0.08862 0.33332 0.0
H565 H 0.58899 0.09768 0.34967 0.0
H566 H 0.57262 0.07568 0.31093 0.0
H567 H 0.56177 0.12339 0.31858 0.0
H568 H 0.61931 0.22152 0.21597 0.0
H569 H 0.60058 0.17886 0.16907 0.0
H570 H 0.59616 0.07764 0.24422 0.0
C571 C 0.64715 0.16968 0.34594 0.0
C572 C 0.66247 0.20814 0.35088 0.0
C573 C 0.66053 0.23792 0.32343 0.0
C574 C 0.64481 0.22929 0.29126 0.0
C575 C 0.63112 0.19078 0.28697 0.0
C576 C 0.63209 0.16151 0.31365 0.0
C577 C 0.61877 0.12199 0.30163 0.0
C578 C 0.64906 0.09496 0.30537 0.0
C579 C 0.58343 0.10361 0.32138 0.0
C580 C 0.61114 0.13341 0.2637 0.0
C581 C 0.61774 0.17325 0.2558 0.0
C582 C 0.61371 0.19033 0.22197 0.0
C583 C 0.60302 0.16596 0.19555 0.0
C584 C 0.59712 0.12504 0.20307 0.0
C585 C 0.60083 0.1088 0.23769 0.0
H586 H 0.34649 0.64284 0.35618 0.0
H587 H 0.43023 0.72799 0.3047 0.0
H588 H 0.47443 0.71239 0.35142 0.0
H589 H 0.37051 0.6612 0.44463 0.0
H590 H 0.36121 0.61082 0.46144 0.0
H591 H 0.33666 0.62872 0.424 0.0
H592 H 0.35804 0.57562 0.38834 0.0
H593 H 0.38262 0.55758 0.4257 0.0
H594 H 0.40651 0.57177 0.38463 0.0
H595 H 0.50907 0.6871 0.40407 0.0
H596 H 0.53188 0.65446 0.458 0.0
H597 H 0.42498 0.58563 0.47515 0.0
C598 C 0.37419 0.65812 0.35487 0.0
C599 C 0.38528 0.68656 0.32713 0.0
C600 C 0.42151 0.7061 0.32593 0.0
C601 C 0.44665 0.69741 0.3523 0.0
C602 C 0.43492 0.66913 0.37951 0.0
C603 C 0.39952 0.64977 0.38094 0.0
C604 C 0.39376 0.62063 0.41289 0.0
C605 C 0.36376 0.63098 0.43717 0.0
C606 C 0.38471 0.57893 0.40224 0.0
C607 C 0.43142 0.62659 0.42933 0.0
C608 C 0.45477 0.65466 0.40968 0.0
C609 C 0.491 0.66509 0.41962 0.0
C610 C 0.5037 0.64634 0.45035 0.0
C611 C 0.48027 0.61742 0.47092 0.0
C612 C 0.44362 0.60759 0.46011 0.0
H613 H 0.09494 0.49962 0.73297 0.0
H614 H 0.10055 0.38412 0.78305 0.0
H615 H 0.12003 0.41218 0.83809 0.0
H616 H 0.17209 0.55287 0.78684 0.0
H617 H 0.14659 0.59389 0.7876 0.0
H618 H 0.14423 0.56606 0.75005 0.0
H619 H 0.07308 0.55465 0.75592 0.0
H620 H 0.07525 0.58223 0.79323 0.0
H621 H 0.05227 0.53304 0.79679 0.0
H622 H 0.12319 0.45014 0.8895 0.0
H623 H 0.10742 0.4936 0.93272 0.0
H624 H 0.10221 0.58593 0.84993 0.0
C625 C 0.10191 0.48064 0.75524 0.0
C626 C 0.09686 0.44008 0.75424 0.0
C627 C 0.10488 0.41545 0.78367 0.0
C628 C 0.11617 0.43117 0.81484 0.0
C629 C 0.11962 0.4715 0.81571 0.0
C630 C 0.11317 0.496 0.78647 0.0
C631 C 0.11265 0.53735 0.79557 0.0
C632 C 0.14588 0.56412 0.77904 0.0
C633 C 0.07615 0.55265 0.78477 0.0
C634 C 0.11622 0.53158 0.83487 0.0
C635 C 0.12158 0.49376 0.8459 0.0
C636 C 0.12019 0.48014 0.88121 0.0
C637 C 0.11126 0.50514 0.90568 0.0
C638 C 0.1034 0.54316 0.89462 0.0
C639 C 0.10808 0.55702 0.85904 0.0
H640 H 0.71488 0.95014 0.90042 0.0
H641 H 0.7913 0.94179 0.98599 0.0
H642 H 0.74709 0.96679 0.02463 0.0
H643 H 0.68183 0.03912 0.92126 0.0
H644 H 0.63476 0.02494 0.9094 0.0
H645 H 0.67156 1.00527 0.88865 0.0
H646 H 0.64094 0.93545 0.90749 0.0
H647 H 0.60397 0.95494 0.92818 0.0
H648 H 0.62999 0.92147 0.953 0.0
H649 H 0.69483 0.99514 0.05398 0.0
H650 H 0.63973 0.02205 0.07226 0.0
H651 H 0.59412 0.01252 0.96865 0.0
C652 C 0.72211 0.95309 0.92746 0.0
C653 C 0.75682 0.94333 0.94015 0.0
C654 C 0.7651 0.94842 0.97557 0.0
C655 C 0.74 0.96283 0.99773 0.0
C656 C 0.70625 0.97234 0.98444 0.0
C657 C 0.69713 0.96748 0.9501 0.0
C658 C 0.65908 0.98038 0.9424 0.0
C659 C 0.66199 0.01445 0.91372 0.0
C660 C 0.63188 0.94601 0.93215 0.0
C661 C 0.64819 0.99344 0.97764 0.0
C662 C 0.67603 0.98852 1.0014 0.0
C663 C 0.67301 0.99886 0.03546 0.0
C664 C 0.64121 0.01437 0.04564 0.0
C665 C 0.61171 0.01984 0.02229 0.0
C666 C 0.61563 0.00892 0.98754 0.0
H667 H 0.7738 0.15775 0.39448 0.0
H668 H 0.73213 0.1729 0.49743 0.0
H669 H 0.77439 0.12882 0.52414 0.0
H670 H 0.78804 0.05451 0.41244 0.0
H671 H 0.82969 0.06087 0.38643 0.0
H672 H 0.79357 0.09043 0.37532 0.0
H673 H 0.8399 0.15281 0.37834 0.0
H674 H 0.87607 0.12352 0.38946 0.0
H675 H 0.86589 0.15961 0.41766 0.0
H676 H 0.8245 0.08774 0.53975 0.0
H677 H 0.87951 0.05308 0.54316 0.0
H678 H 0.88813 0.06493 0.42999 0.0
C679 C 0.77297 0.15103 0.42257 0.0
C680 C 0.74968 0.16853 0.44393 0.0
C681 C 0.74998 0.15989 0.48067 0.0
C682 C 0.77365 0.13471 0.49602 0.0
C683 C 0.79666 0.11835 0.47424 0.0
C684 C 0.79644 0.12606 0.4383 0.0
C685 C 0.82567 0.10698 0.42095 0.0
C686 C 0.80819 0.07637 0.3974 0.0
C687 C 0.85353 0.13756 0.40041 0.0
C688 C 0.84295 0.0881 0.45279 0.0
C689 C 0.8256 0.09467 0.48326 0.0
C690 C 0.83807 0.08203 0.51606 0.0
C691 C 0.86941 0.06262 0.51776 0.0
C692 C 0.88796 0.0562 0.48685 0.0
C693 C 0.87408 0.06862 0.45402 0.0
H694 H 0.2539 0.65522 0.18687 0.0
H695 H 0.28711 0.7651 0.125 0.0
H696 H 0.23817 0.74878 0.08325 0.0
H697 H 0.22588 0.59688 0.11758 0.0
H698 H 0.18596 0.57116 0.1406 0.0
H699 H 0.22548 0.58985 0.16466 0.0
H700 H 0.18452 0.62836 0.20004 0.0
H701 H 0.14484 0.60947 0.17631 0.0
H702 H 0.15653 0.66129 0.17712 0.0
H703 H 0.18651 0.71914 0.04631 0.0
H704 H 0.13051 0.68289 0.02265 0.0
H705 H 0.12626 0.59782 0.11267 0.0
C706 C 0.25088 0.67626 0.16488 0.0
C707 C 0.27552 0.7111 0.15916 0.0
C708 C 0.27 0.73741 0.12963 0.0
C709 C 0.2419 0.72861 0.10573 0.0
C710 C 0.21867 0.69384 0.11198 0.0
C711 C 0.22231 0.66852 0.14126 0.0
C712 C 0.19217 0.63431 0.14314 0.0
C713 C 0.20835 0.59578 0.14138 0.0
C714 C 0.16809 0.63332 0.1761 0.0
C715 C 0.17115 0.64436 0.11031 0.0
C716 C 0.18726 0.6784 0.09226 0.0
C717 C 0.17341 0.69267 0.06042 0.0
C718 C 0.14182 0.67192 0.04709 0.0
C719 C 0.12418 0.63799 0.06607 0.0
C720 C 0.13917 0.62403 0.09791 0.0
H721 H 0.19027 0.42384 0.65915 0.0
H722 H 0.14642 0.47143 0.56218 0.0
H723 H 0.20896 0.50281 0.544 0.0
H724 H 0.26408 0.50477 0.67115 0.0
H725 H 0.29575 0.47174 0.68716 0.0
H726 H 0.24699 0.45884 0.6947 0.0
H727 H 0.24962 0.39485 0.66549 0.0
H728 H 0.29822 0.4076 0.6577 0.0
H729 H 0.26808 0.39711 0.62174 0.0
H730 H 0.2771 0.52486 0.535 0.0
H731 H 0.34536 0.53083 0.53367 0.0
H732 H 0.3439 0.46477 0.63483 0.0
C733 C 0.19381 0.44186 0.63458 0.0
C734 C 0.16381 0.44609 0.61226 0.0
C735 C 0.1693 0.4685 0.57968 0.0
C736 C 0.20457 0.48644 0.56929 0.0
C737 C 0.23387 0.48122 0.5917 0.0
C738 C 0.22882 0.45925 0.6236 0.0
C739 C 0.26509 0.45418 0.64107 0.0
C740 C 0.26815 0.47355 0.67556 0.0
C741 C 0.27056 0.41088 0.64681 0.0
C742 C 0.29144 0.47586 0.61367 0.0
C743 C 0.27301 0.49207 0.58574 0.0
C744 C 0.2918 0.51253 0.55684 0.0
C745 C 0.33042 0.51587 0.55629 0.0
C746 C 0.3495 0.49808 0.58408 0.0
C747 C 0.32974 0.4784 0.61324 0.0
H748 H 0.92529 0.80227 0.87887 0.0
H749 H 0.88271 0.8546 0.96647 0.0
H750 H 0.90522 0.8042 1.00696 0.0
H751 H 0.90589 0.70193 0.9144 0.0
H752 H 0.94774 0.68751 0.89796 0.0
H753 H 0.92764 0.72725 0.87531 0.0
H754 H 0.98884 0.77232 0.88004 0.0
H755 H 1.00915 0.73267 0.90262 0.0
H756 H 1.00913 0.77778 0.92235 0.0
H757 H 0.9324 0.74572 0.03959 0.0
H758 H 0.96291 0.68812 0.05972 0.0
H759 H 0.99135 0.67473 0.95228 0.0
C760 C 0.92082 0.80371 0.90652 0.0
C761 C 0.90125 0.83329 0.91861 0.0
C762 C 0.89635 0.83254 0.9555 0.0
C763 C 0.9095 0.80385 0.97912 0.0
C764 C 0.92824 0.77534 0.96626 0.0
C765 C 0.93413 0.77523 0.93073 0.0
C766 C 0.95561 0.74154 0.92377 0.0
C767 C 0.93286 0.71286 0.90154 0.0
C768 C 0.9929 0.75701 0.90614 0.0
C769 C 0.96083 0.72275 0.96078 0.0
C770 C 0.94463 0.74261 0.98494 0.0
C771 C 0.94528 0.73028 0.02069 0.0
C772 C 0.96278 0.69724 0.03202 0.0
C773 C 0.98008 0.67632 1.00801 0.0
C774 C 0.97884 0.68976 0.97174 0.0
H775 H 0.39734 0.82194 0.21715 0.0
H776 H 0.40987 0.74691 0.13488 0.0
H777 H 0.4504 0.79984 0.10203 0.0
H778 H 0.38888 0.90394 0.16513 0.0
H779 H 0.41491 0.93839 0.19088 0.0
H780 H 0.39299 0.89296 0.21164 0.0
H781 H 0.45532 0.87656 0.23688 0.0
H782 H 0.47745 0.92243 0.21677 0.0
H783 H 0.49425 0.8777 0.2079 0.0
H784 H 0.47741 0.86337 0.07283 0.0
H785 H 0.49757 0.93216 0.05241 0.0
H786 H 0.47214 0.96652 0.15448 0.0
C787 C 0.41009 0.8162 0.19303 0.0
C788 C 0.40068 0.78034 0.17856 0.0
C789 C 0.41687 0.77417 0.14638 0.0
C790 C 0.43989 0.80406 0.12756 0.0
C791 C 0.44701 0.8398 0.14153 0.0
C792 C 0.43343 0.84581 0.17393 0.0
C793 C 0.44283 0.88803 0.18147 0.0
C794 C 0.40782 0.90692 0.18763 0.0
C795 C 0.46903 0.89137 0.2126 0.0
C796 C 0.46211 0.90507 0.14757 0.0
C797 C 0.46425 0.87663 0.12496 0.0
C798 C 0.47697 0.88572 0.09064 0.0
C799 C 0.48804 0.92482 0.07918 0.0
C800 C 0.48681 0.9543 0.10206 0.0
C801 C 0.47413 0.94427 0.13681 0.0
H802 H 0.12172 0.31427 0.6012 0.0
H803 H 1.01168 0.34626 0.58746 0.0
H804 H 0.9905 0.28105 0.56824 0.0
H805 H 0.1213 0.25073 0.5287 0.0
H806 H 0.14635 0.21664 0.5539 0.0
H807 H 0.15355 0.2675 0.56118 0.0
H808 H 0.13787 0.24943 0.62688 0.0
H809 H 0.12995 0.19865 0.61975 0.0
H810 H 0.09435 0.22128 0.63935 0.0
H811 H 0.98079 0.21099 0.55489 0.0
H812 H 0.98286 0.14121 0.54857 0.0
H813 H 0.0988 0.15469 0.57481 0.0
C814 C 0.0935 0.30795 0.59289 0.0
C815 C 0.0684 0.33528 0.59492 0.0
C816 C 0.03129 0.32568 0.58541 0.0
C817 C 0.01911 0.28882 0.57457 0.0
C818 C 0.04439 0.26206 0.5738 0.0
C819 C 0.08084 0.27123 0.58263 0.0
C820 C 0.10168 0.23632 0.58284 0.0
C821 C 0.13254 0.24321 0.55499 0.0
C822 C 0.11684 0.22582 0.61938 0.0
C823 C 0.07115 0.20585 0.57329 0.0
C824 C 0.03844 0.22134 0.56772 0.0
C825 C 1.00628 0.19859 0.55899 0.0
C826 C 1.00771 0.15902 0.55558 0.0
C827 C 0.04095 0.14262 0.56141 0.0
C828 C 0.07295 0.16639 0.57048 0.0
H829 H 0.68952 0.39526 0.44823 0.0
H830 H 0.603 0.30015 0.43823 0.0
H831 H 0.5562 0.3427 0.45163 0.0
H832 H 0.65407 0.42853 0.52041 0.0
H833 H 0.66757 0.47963 0.50835 0.0
H834 H 0.69326 0.44424 0.49192 0.0
H835 H 0.6828 0.47205 0.4283 0.0
H836 H 0.65732 0.50789 0.44463 0.0
H837 H 0.63661 0.47615 0.41352 0.0
H838 H 0.52047 0.39252 0.47456 0.0
H839 H 0.49821 0.44613 0.50334 0.0
H840 H 0.6087 0.50857 0.49776 0.0
C841 C 0.66058 0.38402 0.44766 0.0
C842 C 0.64935 0.34505 0.44171 0.0
C843 C 0.61164 0.33038 0.44221 0.0
C844 C 0.58504 0.35428 0.44978 0.0
C845 C 0.59695 0.39258 0.45655 0.0
C846 C 0.63384 0.40748 0.45516 0.0
C847 C 0.63987 0.44819 0.46675 0.0
C848 C 0.66517 0.45022 0.49876 0.0
C849 C 0.65504 0.47782 0.43649 0.0
C850 C 0.60083 0.45334 0.47618 0.0
C851 C 0.57637 0.42121 0.46977 0.0
C852 C 0.53924 0.41816 0.47904 0.0
C853 C 0.52689 0.44865 0.49551 0.0
C854 C 0.55168 0.48158 0.50259 0.0
C855 C 0.58895 0.48404 0.49226 0.0
loop_
_geom_bond_atom_site_label_1
_geom_bond_atom_site_label_2
_geom_bond_distance
_geom_bond_site_symmetry_2
_ccdc_geom_bond_type
H0 C3 0.929 . S
H1 C6 0.929 . S
H2 C8 0.930 . S
C3 H0 0.929 . S
C3 C4 1.398 . S
C3 C5 1.396 . S
C4 C3 1.398 . S
C4 C8 1.407 . S
C5 C3 1.396 . S
C5 C6 1.394 . S
C6 H1 0.929 . S
C6 C5 1.394 . S
C6 C7 1.382 . S
C7 C6 1.382 . S
C7 C8 1.392 . S
C7 N9 1.420 . S
C8 H2 0.930 . S
C8 C4 1.407 . S
C8 C7 1.392 . S
N9 C7 1.420 . S
N9 C10 1.244 . S
C10 N9 1.244 . S
H11 C14 0.929 . S
H12 C17 0.929 . S
H13 C19 0.930 . S
C14 H11 0.929 . S
C14 C15 1.398 . S
C14 C16 1.396 . S
C15 C14 1.398 . S
C15 C19 1.407 . S
C16 C14 1.396 . S
C16 C17 1.394 . S
C17 H12 0.929 . S
C17 C16 1.394 . S
C17 C18 1.382 . S
C18 C17 1.382 . S
C18 C19 1.392 . S
C18 N20 1.420 . S
C19 H13 0.930 . S
C19 C15 1.407 . S
C19 C18 1.392 . S
N20 C18 1.420 . S
N20 C21 1.244 . S
C21 N20 1.244 . S
H22 C25 0.929 . S
H23 C28 0.929 . S
H24 C30 0.930 . S
C25 H22 0.929 . S
C25 C26 1.398 . S
C25 C27 1.396 . S
C26 C25 1.398 . S
C26 C30 1.407 . S
C27 C25 1.396 . S
C27 C28 1.394 . S
C28 H23 0.929 . S
C28 C27 1.394 . S
C28 C29 1.382 . S
C29 C28 1.382 . S
C29 C30 1.392 . S
C29 N31 1.420 . S
C30 H24 0.930 . S
C30 C26 1.407 . S
C30 C29 1.392 . S
N31 C29 1.420 . S
N31 C32 1.244 . S
C32 N31 1.244 . S
H33 C36 0.929 . S
H34 C39 0.929 . S
H35 C41 0.930 . S
C36 H33 0.929 . S
C36 C37 1.398 . S
C36 C38 1.396 . S
C37 C36 1.398 . S
C37 C41 1.407 . S
C38 C36 1.396 . S
C38 C39 1.394 . S
C39 H34 0.929 . S
C39 C38 1.394 . S
C39 C40 1.382 . S
C40 C39 1.382 . S
C40 C41 1.392 . S
C40 N42 1.420 . S
C41 H35 0.930 . S
C41 C37 1.407 . S
C41 C40 1.392 . S
N42 C40 1.420 . S
N42 C43 1.244 . S
C43 N42 1.244 . S
H44 C47 0.929 . S
H45 C50 0.929 . S
H46 C52 0.930 . S
C47 H44 0.929 . S
C47 C48 1.398 . S
C47 C49 1.396 . S
C48 C47 1.398 . S
C48 C52 1.407 . S
C49 C47 1.396 . S
C49 C50 1.394 . S
C50 H45 0.929 . S
C50 C49 1.394 . S
C50 C51 1.382 . S
C51 C50 1.382 . S
C51 C52 1.392 . S
C51 N53 1.420 . S
C52 H46 0.930 . S
C52 C48 1.407 . S
C52 C51 1.392 . S
N53 C51 1.420 . S
N53 C54 1.244 . S
C54 N53 1.244 . S
H55 C58 0.929 . S
H56 C61 0.929 . S
H57 C63 0.930 . S
C58 H55 0.929 . S
C58 C59 1.398 . S
C58 C60 1.396 . S
C59 C58 1.398 . S
C59 C63 1.407 . S
C60 C58 1.396 . S
C60 C61 1.394 . S
C61 H56 0.929 . S
C61 C60 1.394 . S
C61 C62 1.382 . S
C62 C61 1.382 . S
C62 C63 1.392 . S
C62 N64 1.420 . S
C63 H57 0.930 . S
C63 C59 1.407 . S
C63 C62 1.392 . S
N64 C62 1.420 . S
N64 C65 1.244 . S
C65 N64 1.244 . S
H66 C69 0.929 . S
H67 C72 0.929 . S
H68 C74 0.930 . S
C69 H66 0.929 . S
C69 C70 1.398 . S
C69 C71 1.396 . S
C70 C69 1.398 . S
C70 C74 1.407 . S
C71 C69 1.396 . S
C71 C72 1.394 . S
C72 H67 0.929 . S
C72 C71 1.394 . S
C72 C73 1.382 . S
C73 C72 1.382 . S
C73 C74 1.392 . S
C73 N75 1.420 . S
C74 H68 0.930 . S
C74 C70 1.407 . S
C74 C73 1.392 . S
N75 C73 1.420 . S
N75 C76 1.244 . S
C76 N75 1.244 . S
H77 C80 0.929 . S
H78 C83 0.929 . S
H79 C85 0.930 . S
C80 H77 0.929 . S
C80 C81 1.398 . S
C80 C82 1.396 . S
C81 C80 1.398 . S
C81 C85 1.407 . S
C82 C80 1.396 . S
C82 C83 1.394 . S
C83 H78 0.929 . S
C83 C82 1.394 . S
C83 C84 1.382 . S
C84 C83 1.382 . S
C84 C85 1.392 . S
C84 N86 1.420 . S
C85 H79 0.930 . S
C85 C81 1.407 . S
C85 C84 1.392 . S
N86 C84 1.420 . S
N86 C87 1.244 . S
C87 N86 1.244 . S
Co88 N93 2.057 . S
Co88 O105 2.021 . S
Co88 O108 2.062 . S
Co88 O112 2.117 1_545 S
Co88 O113 2.020 . S
C89 O109 1.259 1_655 S
C89 O112 1.258 . S
Co90 N99 2.057 . S
Co90 O106 2.117 . S
Co90 O107 2.020 . S
Co90 O109 2.021 1_545 S
Co90 O114 2.062 . S
C91 N93 1.316 . S
C91 N94 1.347 . S
C91 H96 0.931 . S
C92 N93 1.375 . S
C92 C95 1.350 . S
C92 H97 0.930 1_545 S
N93 Co88 2.057 . S
N93 C91 1.316 . S
N93 C92 1.375 . S
N94 C91 1.347 . S
N94 C95 1.373 . S
C95 C92 1.350 . S
C95 N94 1.373 . S
C95 H116 0.931 . S
H96 C91 0.931 . S
H97 C92 0.930 1_565 S
C98 O105 1.259 1_455 S
C98 O106 1.258 . S
N99 Co90 2.057 . S
N99 C100 1.316 1_545 S
N99 C101 1.375 . S
C100 N99 1.316 1_565 S
C100 N102 1.347 1_565 S
C100 H111 0.931 . S
C101 N99 1.375 . S
C101 C103 1.350 . S
C101 H110 0.930 . S
N102 C100 1.347 1_545 S
N102 C103 1.373 . S
C103 C101 1.350 . S
C103 N102 1.373 . S
C103 H117 0.931 . S
C104 O107 1.256 . S
C104 O108 1.255 1_455 S
O105 Co88 2.021 . S
O105 C98 1.259 1_655 S
O106 Co90 2.117 . S
O106 C98 1.258 . S
O107 Co90 2.020 . S
O107 C104 1.256 . S
O108 Co88 2.062 . S
O108 C104 1.255 1_655 S
O109 C89 1.259 1_455 S
O109 Co90 2.021 1_565 S
H110 C101 0.930 . S
H111 C100 0.931 . S
O112 Co88 2.117 1_565 S
O112 C89 1.258 . S
O113 Co88 2.020 . S
O113 C115 1.256 . S
O114 Co90 2.062 . S
O114 C115 1.255 1_455 S
C115 O113 1.256 . S
C115 O114 1.255 1_655 S
H116 C95 0.931 . S
H117 C103 0.931 . S
Co118 N123 2.057 1_554 S
Co118 O135 2.021 1_554 S
Co118 O138 2.062 . S
Co118 O142 2.117 1_545 S
Co118 O143 2.020 . S
C119 O139 1.259 . S
C119 O142 1.258 . S
Co120 N129 2.057 . S
Co120 O136 2.117 . S
Co120 O137 2.020 . S
Co120 O139 2.021 1_545 S
Co120 O144 2.062 . S
C121 N123 1.316 . S
C121 N124 1.347 1_545 S
C121 H126 0.931 . S
C122 N123 1.375 1_565 S
C122 C125 1.350 . S
C122 H127 0.930 . S
N123 Co118 2.057 1_556 S
N123 C121 1.316 . S
N123 C122 1.375 1_545 S
N124 C121 1.347 1_565 S
N124 C125 1.373 . S
C125 C122 1.350 . S
C125 N124 1.373 . S
C125 H146 0.931 . S
H126 C121 0.931 . S
H127 C122 0.930 . S
C128 O135 1.259 1_554 S
C128 O136 1.258 . S
N129 Co120 2.057 . S
N129 C130 1.316 . S
N129 C131 1.375 . S
C130 N129 1.316 . S
C130 N132 1.347 . S
C130 H141 0.931 . S
C131 N129 1.375 . S
C131 C133 1.350 . S
C131 H140 0.930 . S
N132 C130 1.347 . S
N132 C133 1.373 . S
C133 C131 1.350 . S
C133 N132 1.373 . S
C133 H147 0.931 . S
C134 O137 1.256 . S
C134 O138 1.255 . S
O135 Co118 2.021 1_556 S
O135 C128 1.259 1_556 S
O136 Co120 2.117 . S
O136 C128 1.258 . S
O137 Co120 2.020 . S
O137 C134 1.256 . S
O138 Co118 2.062 . S
O138 C134 1.255 . S
O139 C119 1.259 . S
O139 Co120 2.021 1_565 S
H140 C131 0.930 . S
H141 C130 0.931 . S
O142 Co118 2.117 1_565 S
O142 C119 1.258 . S
O143 Co118 2.020 . S
O143 C145 1.256 . S
O144 Co120 2.062 . S
O144 C145 1.255 . S
C145 O143 1.256 . S
C145 O144 1.255 . S
H146 C125 0.931 . S
H147 C133 0.931 . S
Co148 N153 2.057 . S
Co148 O165 2.021 . S
Co148 O168 2.062 . S
Co148 O172 2.117 . S
Co148 O173 2.020 . S
C149 O169 1.259 . S
C149 O172 1.258 . S
Co150 N159 2.057 . S
Co150 O166 2.117 . S
Co150 O167 2.020 . S
Co150 O169 2.021 . S
Co150 O174 2.062 . S
C151 N153 1.316 . S
C151 N154 1.347 . S
C151 H156 0.931 . S
C152 N153 1.375 . S
C152 C155 1.350 . S
C152 H157 0.930 . S
N153 Co148 2.057 . S
N153 C151 1.316 . S
N153 C152 1.375 . S
N154 C151 1.347 . S
N154 C155 1.373 . S
C155 C152 1.350 . S
C155 N154 1.373 . S
C155 H176 0.931 . S
H156 C151 0.931 . S
H157 C152 0.930 . S
C158 O165 1.259 . S
C158 O166 1.258 . S
N159 Co150 2.057 . S
N159 C160 1.316 . S
N159 C161 1.375 . S
C160 N159 1.316 . S
C160 N162 1.347 . S
C160 H171 0.931 . S
C161 N159 1.375 . S
C161 C163 1.350 . S
C161 H170 0.930 . S
N162 C160 1.347 . S
N162 C163 1.373 . S
C163 C161 1.350 . S
C163 N162 1.373 . S
C163 H177 0.931 . S
C164 O167 1.256 . S
C164 O168 1.255 . S
O165 Co148 2.021 . S
O165 C158 1.259 . S
O166 Co150 2.117 . S
O166 C158 1.258 . S
O167 Co150 2.020 . S
O167 C164 1.256 . S
O168 Co148 2.062 . S
O168 C164 1.255 . S
O169 C149 1.259 . S
O169 Co150 2.021 . S
H170 C161 0.930 . S
H171 C160 0.931 . S
O172 Co148 2.117 . S
O172 C149 1.258 . S
O173 Co148 2.020 . S
O173 C175 1.256 . S
O174 Co150 2.062 . S
O174 C175 1.255 . S
C175 O173 1.256 . S
C175 O174 1.255 . S
H176 C155 0.931 . S
H177 C163 0.931 . S
Co178 N183 2.057 . S
Co178 O195 2.021 1_556 S
Co178 O198 2.062 1_556 S
Co178 O202 2.117 1_455 S
Co178 O203 2.020 . S
C179 O199 1.259 . S
C179 O202 1.258 1_554 S
Co180 N189 2.057 . S
Co180 O196 2.117 . S
Co180 O197 2.020 . S
Co180 O199 2.021 1_455 S
Co180 O204 2.062 . S
C181 N183 1.316 . S
C181 N184 1.347 . S
C181 H186 0.931 . S
C182 N183 1.375 . S
C182 C185 1.350 . S
C182 H187 0.930 1_455 S
N183 Co178 2.057 . S
N183 C181 1.316 . S
N183 C182 1.375 . S
N184 C181 1.347 . S
N184 C185 1.373 . S
C185 C182 1.350 . S
C185 N184 1.373 . S
C185 H206 0.931 . S
H186 C181 0.931 . S
H187 C182 0.930 1_655 S
C188 O195 1.259 . S
C188 O196 1.258 . S
N189 Co180 2.057 . S
N189 C190 1.316 1_455 S
N189 C191 1.375 . S
C190 N189 1.316 1_655 S
C190 N192 1.347 . S
C190 H201 0.931 . S
C191 N189 1.375 . S
C191 C193 1.350 . S
C191 H200 0.930 . S
N192 C190 1.347 . S
N192 C193 1.373 1_655 S
C193 C191 1.350 . S
C193 N192 1.373 1_455 S
C193 H207 0.931 . S
C194 O197 1.256 . S
C194 O198 1.255 . S
O195 Co178 2.021 1_554 S
O195 C188 1.259 . S
O196 Co180 2.117 . S
O196 C188 1.258 . S
O197 Co180 2.020 . S
O197 C194 1.256 . S
O198 Co178 2.062 1_554 S
O198 C194 1.255 . S
O199 C179 1.259 . S
O199 Co180 2.021 1_655 S
H200 C191 0.930 . S
H201 C190 0.931 . S
O202 Co178 2.117 1_655 S
O202 C179 1.258 1_556 S
O203 Co178 2.020 . S
O203 C205 1.256 1_556 S
O204 Co180 2.062 . S
O204 C205 1.255 . S
C205 O203 1.256 1_554 S
C205 O204 1.255 . S
H206 C185 0.931 . S
H207 C193 0.931 . S
H208 C220 0.930 . S
H209 C222 0.930 . S
H210 C223 0.930 . S
H211 C227 0.959 . S
H212 C227 0.959 . S
H213 C227 0.961 . S
H214 C228 0.960 . S
H215 C228 0.961 . S
H216 C228 0.959 . S
H217 C231 0.929 . S
H218 C232 0.931 . S
H219 C234 0.930 . S
C220 H208 0.930 . S
C220 C221 1.399 . S
C220 C225 1.399 . S
C221 C220 1.399 . S
C221 C222 1.376 . S
C222 H209 0.930 . S
C222 C221 1.376 . S
C222 C223 1.388 . S
C223 H210 0.930 . S
C223 C222 1.388 . S
C223 C224 1.390 . S
C224 C223 1.390 . S
C224 C225 1.394 . S
C224 C230 1.465 . S
C225 C220 1.399 . S
C225 C224 1.394 . S
C225 C226 1.516 . S
C226 C225 1.516 . S
C226 C227 1.502 . S
C226 C228 1.561 . S
C226 C229 1.526 . S
C227 H211 0.959 . S
C227 H212 0.959 . S
C227 H213 0.961 . S
C227 C226 1.502 . S
C228 H214 0.960 . S
C228 H215 0.961 . S
C228 H216 0.959 . S
C228 C226 1.561 . S
C229 C226 1.526 . S
C229 C230 1.396 . S
C229 C234 1.390 . S
C230 C224 1.465 . S
C230 C229 1.396 . S
C230 C231 1.399 . S
C231 H217 0.929 . S
C231 C230 1.399 . S
C231 C232 1.385 . S
C232 H218 0.931 . S
C232 C231 1.385 . S
C232 C233 1.389 . S
C233 C232 1.389 . S
C233 C234 1.387 . S
C234 H219 0.930 . S
C234 C229 1.390 . S
C234 C233 1.387 . S
H235 C247 0.930 . S
H236 C249 0.930 . S
H237 C250 0.930 . S
H238 C254 0.959 . S
H239 C254 0.959 . S
H240 C254 0.961 . S
H241 C255 0.960 . S
H242 C255 0.961 . S
H243 C255 0.959 1_565 S
H244 C258 0.929 . S
H245 C259 0.931 . S
H246 C261 0.930 . S
C247 H235 0.930 . S
C247 C248 1.399 . S
C247 C252 1.399 . S
C248 C247 1.399 . S
C248 C249 1.376 . S
C249 H236 0.930 . S
C249 C248 1.376 . S
C249 C250 1.388 . S
C250 H237 0.930 . S
C250 C249 1.388 . S
C250 C251 1.390 . S
C251 C250 1.390 . S
C251 C252 1.394 . S
C251 C257 1.465 . S
C252 C247 1.399 . S
C252 C251 1.394 . S
C252 C253 1.522 . S
C253 C252 1.522 . S
C253 C254 1.497 1_565 S
C253 C255 1.559 1_565 S
C253 C256 1.528 . S
C254 H238 0.959 . S
C254 H239 0.959 . S
C254 H240 0.961 . S
C254 C253 1.497 1_545 S
C255 H241 0.960 . S
C255 H242 0.961 . S
C255 H243 0.959 1_545 S
C255 C253 1.559 1_545 S
C256 C253 1.528 . S
C256 C257 1.396 . S
C256 C261 1.390 1_565 S
C257 C251 1.465 . S
C257 C256 1.396 . S
C257 C258 1.399 . S
C258 H244 0.929 . S
C258 C257 1.399 . S
C258 C259 1.385 . S
C259 H245 0.931 . S
C259 C258 1.385 . S
C259 C260 1.389 . S
C260 C259 1.389 . S
C260 C261 1.387 1_565 S
C261 H246 0.930 . S
C261 C256 1.390 1_545 S
C261 C260 1.387 1_545 S
H262 C274 0.930 . S
H263 C276 0.930 . S
H264 C277 0.930 . S
H265 C281 0.959 . S
H266 C281 0.959 . S
H267 C281 0.961 . S
H268 C282 0.960 . S
H269 C282 0.961 . S
H270 C282 0.959 . S
H271 C285 0.929 . S
H272 C286 0.931 . S
H273 C288 0.930 . S
C274 H262 0.930 . S
C274 C275 1.399 . S
C274 C279 1.399 . S
C275 C274 1.399 . S
C275 C276 1.376 . S
C276 H263 0.930 . S
C276 C275 1.376 . S
C276 C277 1.388 . S
C277 H264 0.930 . S
C277 C276 1.388 . S
C277 C278 1.390 . S
C278 C277 1.390 . S
C278 C279 1.394 . S
C278 C284 1.465 . S
C279 C274 1.399 . S
C279 C278 1.394 . S
C279 C280 1.516 . S
C280 C279 1.516 . S
C280 C281 1.502 . S
C280 C282 1.561 . S
C280 C283 1.526 . S
C281 H265 0.959 . S
C281 H266 0.959 . S
C281 H267 0.961 . S
C281 C280 1.502 . S
C282 H268 0.960 . S
C282 H269 0.961 . S
C282 H270 0.959 . S
C282 C280 1.561 . S
C283 C280 1.526 . S
C283 C284 1.396 . S
C283 C288 1.390 . S
C284 C278 1.465 . S
C284 C283 1.396 . S
C284 C285 1.399 . S
C285 H271 0.929 . S
C285 C284 1.399 . S
C285 C286 1.385 . S
C286 H272 0.931 . S
C286 C285 1.385 . S
C286 C287 1.389 . S
C287 C286 1.389 . S
C287 C288 1.387 . S
C288 H273 0.930 . S
C288 C283 1.390 . S
C288 C287 1.387 . S
H289 C301 0.930 . S
H290 C303 0.930 . S
H291 C304 0.930 . S
H292 C308 0.959 . S
H293 C308 0.959 . S
H294 C308 0.961 . S
H295 C309 0.960 . S
H296 C309 0.961 . S
H297 C309 0.959 . S
H298 C312 0.929 . S
H299 C313 0.931 . S
H300 C315 0.930 . S
C301 H289 0.930 . S
C301 C302 1.399 . S
C301 C306 1.399 . S
C302 C301 1.399 . S
C302 C303 1.376 . S
C303 H290 0.930 . S
C303 C302 1.376 . S
C303 C304 1.388 . S
C304 H291 0.930 . S
C304 C303 1.388 . S
C304 C305 1.390 . S
C305 C304 1.390 . S
C305 C306 1.394 . S
C305 C311 1.465 . S
C306 C301 1.399 . S
C306 C305 1.394 . S
C306 C307 1.516 . S
C307 C306 1.516 . S
C307 C308 1.502 1_655 S
C307 C309 1.561 . S
C307 C310 1.526 . S
C308 H292 0.959 . S
C308 H293 0.959 . S
C308 H294 0.961 . S
C308 C307 1.502 1_455 S
C309 H295 0.960 . S
C309 H296 0.961 . S
C309 H297 0.959 . S
C309 C307 1.561 . S
C310 C307 1.526 . S
C310 C311 1.396 . S
C310 C315 1.390 . S
C311 C305 1.465 . S
C311 C310 1.396 . S
C311 C312 1.399 . S
C312 H298 0.929 . S
C312 C311 1.399 . S
C312 C313 1.385 . S
C313 H299 0.931 . S
C313 C312 1.385 . S
C313 C314 1.389 . S
C314 C313 1.389 . S
C314 C315 1.387 . S
C315 H300 0.930 . S
C315 C310 1.390 . S
C315 C314 1.387 . S
H316 C328 0.930 . S
H317 C330 0.930 . S
H318 C331 0.930 . S
H319 C335 0.959 . S
H320 C335 0.959 . S
H321 C335 0.961 . S
H322 C336 0.960 . S
H323 C336 0.961 . S
H324 C336 0.959 . S
H325 C339 0.929 . S
H326 C340 0.931 . S
H327 C342 0.930 . S
C328 H316 0.930 . S
C328 C329 1.399 . S
C328 C333 1.399 . S
C329 C328 1.399 . S
C329 C330 1.376 . S
C330 H317 0.930 . S
C330 C329 1.376 . S
C330 C331 1.388 . S
C331 H318 0.930 . S
C331 C330 1.388 . S
C331 C332 1.390 . S
C332 C331 1.390 . S
C332 C333 1.394 . S
C332 C338 1.465 . S
C333 C328 1.399 . S
C333 C332 1.394 . S
C333 C334 1.516 . S
C334 C333 1.516 . S
C334 C335 1.502 . S
C334 C336 1.561 . S
C334 C337 1.526 . S
C335 H319 0.959 . S
C335 H320 0.959 . S
C335 H321 0.961 . S
C335 C334 1.502 . S
C336 H322 0.960 . S
C336 H323 0.961 . S
C336 H324 0.959 . S
C336 C334 1.561 . S
C337 C334 1.526 . S
C337 C338 1.396 . S
C337 C342 1.390 . S
C338 C332 1.465 . S
C338 C337 1.396 . S
C338 C339 1.399 . S
C339 H325 0.929 . S
C339 C338 1.399 . S
C339 C340 1.385 . S
C340 H326 0.931 . S
C340 C339 1.385 . S
C340 C341 1.389 . S
C341 C340 1.389 . S
C341 C342 1.387 . S
C342 H327 0.930 . S
C342 C337 1.390 . S
C342 C341 1.387 . S
H343 C355 0.930 . S
H344 C357 0.931 . S
H345 C358 0.930 . S
H346 C362 0.959 . S
H347 C362 0.959 . S
H348 C362 0.961 . S
H349 C363 0.960 . S
H350 C363 0.961 . S
H351 C363 0.959 . S
H352 C366 0.929 . S
H353 C367 0.931 . S
H354 C369 0.930 . S
C355 H343 0.930 . S
C355 C356 1.399 . S
C355 C360 1.399 . S
C356 C355 1.399 . S
C356 C357 1.376 . S
C357 H344 0.931 . S
C357 C356 1.376 . S
C357 C358 1.388 1_565 S
C358 H345 0.930 . S
C358 C357 1.388 1_545 S
C358 C359 1.390 1_545 S
C359 C358 1.390 1_565 S
C359 C360 1.394 . S
C359 C365 1.465 . S
C360 C355 1.399 . S
C360 C359 1.394 . S
C360 C361 1.516 . S
C361 C360 1.516 . S
C361 C362 1.502 . S
C361 C363 1.561 . S
C361 C364 1.526 . S
C362 H346 0.959 . S
C362 H347 0.959 . S
C362 H348 0.961 . S
C362 C361 1.502 . S
C363 H349 0.960 . S
C363 H350 0.961 . S
C363 H351 0.959 . S
C363 C361 1.561 . S
C364 C361 1.526 . S
C364 C365 1.396 . S
C364 C369 1.390 . S
C365 C359 1.465 . S
C365 C364 1.396 . S
C365 C366 1.399 1_565 S
C366 H352 0.929 . S
C366 C365 1.399 1_545 S
C366 C367 1.385 . S
C367 H353 0.931 . S
C367 C366 1.385 . S
C367 C368 1.389 1_545 S
C368 C367 1.389 1_565 S
C368 C369 1.387 . S
C369 H354 0.930 . S
C369 C364 1.390 . S
C369 C368 1.387 . S
H370 C382 0.930 . S
H371 C384 0.930 . S
H372 C385 0.930 . S
H373 C389 0.959 . S
H374 C389 0.959 . S
H375 C389 0.961 . S
H376 C390 0.960 . S
H377 C390 0.961 . S
H378 C390 0.959 . S
H379 C393 0.929 . S
H380 C394 0.931 1_554 S
H381 C396 0.930 . S
C382 H370 0.930 . S
C382 C383 1.399 . S
C382 C387 1.399 . S
C383 C382 1.399 . S
C383 C384 1.376 . S
C384 H371 0.930 . S
C384 C383 1.376 . S
C384 C385 1.388 . S
C385 H372 0.930 . S
C385 C384 1.388 . S
C385 C386 1.390 . S
C386 C385 1.390 . S
C386 C387 1.394 . S
C386 C392 1.465 . S
C387 C382 1.399 . S
C387 C386 1.394 . S
C387 C388 1.516 . S
C388 C387 1.516 . S
C388 C389 1.502 . S
C388 C390 1.561 1_556 S
C388 C391 1.526 . S
C389 H373 0.959 . S
C389 H374 0.959 . S
C389 H375 0.961 . S
C389 C388 1.502 . S
C390 H376 0.960 . S
C390 H377 0.961 . S
C390 H378 0.959 . S
C390 C388 1.561 1_554 S
C391 C388 1.526 . S
C391 C392 1.396 . S
C391 C396 1.390 . S
C392 C386 1.465 . S
C392 C391 1.396 . S
C392 C393 1.399 . S
C393 H379 0.929 . S
C393 C392 1.399 . S
C393 C394 1.385 . S
C394 H380 0.931 1_556 S
C394 C393 1.385 . S
C394 C395 1.389 . S
C395 C394 1.389 . S
C395 C396 1.387 . S
C396 H381 0.930 . S
C396 C391 1.390 . S
C396 C395 1.387 . S
H397 C409 0.930 . S
H398 C411 0.930 . S
H399 C412 0.930 . S
H400 C416 0.959 . S
H401 C416 0.959 . S
H402 C416 0.961 . S
H403 C417 0.960 . S
H404 C417 0.961 . S
H405 C417 0.959 . S
H406 C420 0.929 . S
H407 C421 0.931 . S
H408 C423 0.930 . S
C409 H397 0.930 . S
C409 C410 1.399 . S
C409 C414 1.399 . S
C410 C409 1.399 . S
C410 C411 1.376 . S
C411 H398 0.930 . S
C411 C410 1.376 . S
C411 C412 1.388 . S
C412 H399 0.930 . S
C412 C411 1.388 . S
C412 C413 1.390 . S
C413 C412 1.390 . S
C413 C414 1.394 . S
C413 C419 1.465 . S
C414 C409 1.399 . S
C414 C413 1.394 . S
C414 C415 1.516 . S
C415 C414 1.516 . S
C415 C416 1.502 . S
C415 C417 1.561 . S
C415 C418 1.526 . S
C416 H400 0.959 . S
C416 H401 0.959 . S
C416 H402 0.961 . S
C416 C415 1.502 . S
C417 H403 0.960 . S
C417 H404 0.961 . S
C417 H405 0.959 . S
C417 C415 1.561 . S
C418 C415 1.526 . S
C418 C419 1.396 . S
C418 C423 1.390 . S
C419 C413 1.465 . S
C419 C418 1.396 . S
C419 C420 1.399 . S
C420 H406 0.929 . S
C420 C419 1.399 . S
C420 C421 1.385 . S
C421 H407 0.931 . S
C421 C420 1.385 . S
C421 C422 1.389 . S
C422 C421 1.389 . S
C422 C423 1.387 . S
C423 H408 0.930 . S
C423 C418 1.390 . S
C423 C422 1.387 . S
H424 C436 0.930 . S
H425 C438 0.930 . S
H426 C439 0.930 . S
H427 C443 0.959 . S
H428 C443 0.959 . S
H429 C443 0.961 . S
H430 C444 0.960 . S
H431 C444 0.961 . S
H432 C444 0.959 . S
H433 C447 0.929 1_556 S
H434 C448 0.931 1_556 S
H435 C450 0.930 . S
C436 H424 0.930 . S
C436 C437 1.399 . S
C436 C441 1.399 . S
C437 C436 1.399 . S
C437 C438 1.376 . S
C438 H425 0.930 . S
C438 C437 1.376 . S
C438 C439 1.388 . S
C439 H426 0.930 . S
C439 C438 1.388 . S
C439 C440 1.390 . S
C440 C439 1.390 . S
C440 C441 1.394 . S
C440 C446 1.465 . S
C441 C436 1.399 . S
C441 C440 1.394 . S
C441 C442 1.516 . S
C442 C441 1.516 . S
C442 C443 1.502 . S
C442 C444 1.561 . S
C442 C445 1.526 . S
C443 H427 0.959 . S
C443 H428 0.959 . S
C443 H429 0.961 . S
C443 C442 1.502 . S
C444 H430 0.960 . S
C444 H431 0.961 . S
C444 H432 0.959 . S
C444 C442 1.561 . S
C445 C442 1.526 . S
C445 C446 1.396 . S
C445 C450 1.390 . S
C446 C440 1.465 . S
C446 C445 1.396 . S
C446 C447 1.399 . S
C447 H433 0.929 1_554 S
C447 C446 1.399 . S
C447 C448 1.385 . S
C448 H434 0.931 1_554 S
C448 C447 1.385 . S
C448 C449 1.389 . S
C449 C448 1.389 . S
C449 C450 1.387 . S
C450 H435 0.930 . S
C450 C445 1.390 . S
C450 C449 1.387 . S
H451 C463 0.930 . S
H452 C465 0.930 . S
H453 C466 0.930 . S
H454 C470 0.959 1_556 S
H455 C470 0.959 . S
H456 C470 0.961 . S
H457 C471 0.960 . S
H458 C471 0.961 . S
H459 C471 0.959 . S
H460 C474 0.929 . S
H461 C475 0.931 . S
H462 C477 0.930 . S
C463 H451 0.930 . S
C463 C464 1.399 . S
C463 C468 1.399 . S
C464 C463 1.399 . S
C464 C465 1.376 . S
C465 H452 0.930 . S
C465 C464 1.376 . S
C465 C466 1.388 . S
C466 H453 0.930 . S
C466 C465 1.388 . S
C466 C467 1.390 . S
C467 C466 1.390 . S
C467 C468 1.394 . S
C467 C473 1.465 . S
C468 C463 1.399 . S
C468 C467 1.394 . S
C468 C469 1.516 1_556 S
C469 C468 1.516 1_554 S
C469 C470 1.502 . S
C469 C471 1.561 . S
C469 C472 1.526 . S
C470 H454 0.959 1_554 S
C470 H455 0.959 . S
C470 H456 0.961 . S
C470 C469 1.502 . S
C471 H457 0.960 . S
C471 H458 0.961 . S
C471 H459 0.959 . S
C471 C469 1.561 . S
C472 C469 1.526 . S
C472 C473 1.396 1_554 S
C472 C477 1.390 . S
C473 C467 1.465 . S
C473 C472 1.396 1_556 S
C473 C474 1.399 . S
C474 H460 0.929 . S
C474 C473 1.399 . S
C474 C475 1.385 . S
C475 H461 0.931 . S
C475 C474 1.385 . S
C475 C476 1.389 1_556 S
C476 C475 1.389 1_554 S
C476 C477 1.387 . S
C477 H462 0.930 . S
C477 C472 1.390 . S
C477 C476 1.387 . S
H478 C490 0.930 . S
H479 C492 0.930 . S
H480 C493 0.930 . S
H481 C497 0.959 . S
H482 C497 0.959 . S
H483 C497 0.961 . S
H484 C498 0.960 . S
H485 C498 0.961 . S
H486 C498 0.959 . S
H487 C501 0.929 . S
H488 C502 0.931 . S
H489 C504 0.930 . S
C490 H478 0.930 . S
C490 C491 1.399 . S
C490 C495 1.399 . S
C491 C490 1.399 . S
C491 C492 1.376 . S
C492 H479 0.930 . S
C492 C491 1.376 . S
C492 C493 1.388 . S
C493 H480 0.930 . S
C493 C492 1.388 . S
C493 C494 1.390 . S
C494 C493 1.390 . S
C494 C495 1.394 . S
C494 C500 1.465 . S
C495 C490 1.399 . S
C495 C494 1.394 . S
C495 C496 1.516 . S
C496 C495 1.516 . S
C496 C497 1.502 1_655 S
C496 C498 1.561 . S
C496 C499 1.526 . S
C497 H481 0.959 . S
C497 H482 0.959 . S
C497 H483 0.961 . S
C497 C496 1.502 1_455 S
C498 H484 0.960 . S
C498 H485 0.961 . S
C498 H486 0.959 . S
C498 C496 1.561 . S
C499 C496 1.526 . S
C499 C500 1.396 . S
C499 C504 1.390 . S
C500 C494 1.465 . S
C500 C499 1.396 . S
C500 C501 1.399 . S
C501 H487 0.929 . S
C501 C500 1.399 . S
C501 C502 1.385 . S
C502 H488 0.931 . S
C502 C501 1.385 . S
C502 C503 1.389 . S
C503 C502 1.389 . S
C503 C504 1.387 . S
C504 H489 0.930 . S
C504 C499 1.390 . S
C504 C503 1.387 . S
H505 C517 0.930 . S
H506 C519 0.930 . S
H507 C520 0.930 . S
H508 C524 0.959 . S
H509 C524 0.959 . S
H510 C524 0.961 . S
H511 C525 0.960 . S
H512 C525 0.961 . S
H513 C525 0.959 . S
H514 C528 0.929 . S
H515 C529 0.931 . S
H516 C531 0.930 . S
C517 H505 0.930 . S
C517 C518 1.399 . S
C517 C522 1.399 . S
C518 C517 1.399 . S
C518 C519 1.376 . S
C519 H506 0.930 . S
C519 C518 1.376 . S
C519 C520 1.388 . S
C520 H507 0.930 . S
C520 C519 1.388 . S
C520 C521 1.390 . S
C521 C520 1.390 . S
C521 C522 1.394 . S
C521 C527 1.465 . S
C522 C517 1.399 . S
C522 C521 1.394 . S
C522 C523 1.516 . S
C523 C522 1.516 . S
C523 C524 1.502 . S
C523 C525 1.561 . S
C523 C526 1.526 . S
C524 H508 0.959 . S
C524 H509 0.959 . S
C524 H510 0.961 . S
C524 C523 1.502 . S
C525 H511 0.960 . S
C525 H512 0.961 . S
C525 H513 0.959 . S
C525 C523 1.561 . S
C526 C523 1.526 . S
C526 C527 1.396 . S
C526 C531 1.390 . S
C527 C521 1.465 . S
C527 C526 1.396 . S
C527 C528 1.399 . S
C528 H514 0.929 . S
C528 C527 1.399 . S
C528 C529 1.385 . S
C529 H515 0.931 . S
C529 C528 1.385 . S
C529 C530 1.389 . S
C530 C529 1.389 . S
C530 C531 1.387 . S
C531 H516 0.930 . S
C531 C526 1.390 . S
C531 C530 1.387 . S
H532 C544 0.930 . S
H533 C546 0.919 1_545 S
H534 C547 0.930 . S
H535 C551 0.964 . S
H536 C551 0.962 . S
H537 C551 0.961 1_655 S
H538 C552 0.960 . S
H539 C552 0.961 . S
H540 C552 0.959 . S
H541 C555 0.929 . S
H542 C556 0.931 . S
H543 C558 0.930 . S
C544 H532 0.930 . S
C544 C545 1.399 . S
C544 C549 1.399 . S
C545 C544 1.399 . S
C545 C546 1.393 . S
C546 H533 0.919 1_565 S
C546 C545 1.393 . S
C546 C547 1.383 1_565 S
C547 H534 0.930 . S
C547 C546 1.383 1_545 S
C547 C548 1.390 1_545 S
C548 C547 1.390 1_565 S
C548 C549 1.394 . S
C548 C554 1.463 1_565 S
C549 C544 1.399 . S
C549 C548 1.394 . S
C549 C550 1.516 . S
C550 C549 1.516 . S
C550 C551 1.494 1_655 S
C550 C552 1.561 . S
C550 C553 1.526 . S
C551 H535 0.964 . S
C551 H536 0.962 . S
C551 H537 0.961 1_455 S
C551 C550 1.494 1_455 S
C552 H538 0.960 . S
C552 H539 0.961 . S
C552 H540 0.959 . S
C552 C550 1.561 . S
C553 C550 1.526 . S
C553 C554 1.381 1_565 S
C553 C558 1.390 . S
C554 C548 1.463 1_545 S
C554 C553 1.381 1_545 S
C554 C555 1.412 . S
C555 H541 0.929 . S
C555 C554 1.412 . S
C555 C556 1.385 . S
C556 H542 0.931 . S
C556 C555 1.385 . S
C556 C557 1.389 . S
C557 C556 1.389 . S
C557 C558 1.387 1_545 S
C558 H543 0.930 . S
C558 C553 1.390 . S
C558 C557 1.387 1_565 S
H559 C571 0.930 . S
H560 C573 0.930 . S
H561 C574 0.930 . S
H562 C578 0.959 . S
H563 C578 0.959 . S
H564 C578 0.961 . S
H565 C579 0.960 . S
H566 C579 0.961 . S
H567 C579 0.959 . S
H568 C582 0.929 . S
H569 C583 0.931 . S
H570 C585 0.930 . S
C571 H559 0.930 . S
C571 C572 1.399 . S
C571 C576 1.399 . S
C572 C571 1.399 . S
C572 C573 1.376 . S
C573 H560 0.930 . S
C573 C572 1.376 . S
C573 C574 1.388 . S
C574 H561 0.930 . S
C574 C573 1.388 . S
C574 C575 1.390 . S
C575 C574 1.390 . S
C575 C576 1.394 . S
C575 C581 1.465 . S
C576 C571 1.399 . S
C576 C575 1.394 . S
C576 C577 1.516 . S
C577 C576 1.516 . S
C577 C578 1.502 . S
C577 C579 1.561 . S
C577 C580 1.526 . S
C578 H562 0.959 . S
C578 H563 0.959 . S
C578 H564 0.961 . S
C578 C577 1.502 . S
C579 H565 0.960 . S
C579 H566 0.961 . S
C579 H567 0.959 . S
C579 C577 1.561 . S
C580 C577 1.526 . S
C580 C581 1.396 . S
C580 C585 1.390 . S
C581 C575 1.465 . S
C581 C580 1.396 . S
C581 C582 1.399 . S
C582 H568 0.929 . S
C582 C581 1.399 . S
C582 C583 1.385 . S
C583 H569 0.931 . S
C583 C582 1.385 . S
C583 C584 1.389 . S
C584 C583 1.389 . S
C584 C585 1.387 . S
C585 H570 0.930 . S
C585 C580 1.390 . S
C585 C584 1.387 . S
H586 C598 0.930 . S
H587 C600 0.930 . S
H588 C601 0.930 . S
H589 C605 0.959 . S
H590 C605 0.959 . S
H591 C605 0.961 . S
H592 C606 0.960 . S
H593 C606 0.961 . S
H594 C606 0.959 . S
H595 C609 0.929 . S
H596 C610 0.931 . S
H597 C612 0.930 . S
C598 H586 0.930 . S
C598 C599 1.399 . S
C598 C603 1.399 . S
C599 C598 1.399 . S
C599 C600 1.376 . S
C600 H587 0.930 . S
C600 C599 1.376 . S
C600 C601 1.388 . S
C601 H588 0.930 . S
C601 C600 1.388 . S
C601 C602 1.390 . S
C602 C601 1.390 . S
C602 C603 1.394 . S
C602 C608 1.465 . S
C603 C598 1.399 . S
C603 C602 1.394 . S
C603 C604 1.516 . S
C604 C603 1.516 . S
C604 C605 1.502 . S
C604 C606 1.561 . S
C604 C607 1.526 . S
C605 H589 0.959 . S
C605 H590 0.959 . S
C605 H591 0.961 . S
C605 C604 1.502 . S
C606 H592 0.960 . S
C606 H593 0.961 . S
C606 H594 0.959 . S
C606 C604 1.561 . S
C607 C604 1.526 . S
C607 C608 1.396 . S
C607 C612 1.390 . S
C608 C602 1.465 . S
C608 C607 1.396 . S
C608 C609 1.399 . S
C609 H595 0.929 . S
C609 C608 1.399 . S
C609 C610 1.385 . S
C610 H596 0.931 . S
C610 C609 1.385 . S
C610 C611 1.389 . S
C611 C610 1.389 . S
C611 C612 1.387 . S
C612 H597 0.930 . S
C612 C607 1.390 . S
C612 C611 1.387 . S
H613 C625 0.930 . S
H614 C627 0.930 . S
H615 C628 0.930 . S
H616 C632 0.959 . S
H617 C632 0.959 . S
H618 C632 0.961 . S
H619 C633 0.960 . S
H620 C633 0.961 . S
H621 C633 0.959 . S
H622 C636 0.929 . S
H623 C637 0.931 . S
H624 C639 0.930 . S
C625 H613 0.930 . S
C625 C626 1.399 . S
C625 C630 1.399 . S
C626 C625 1.399 . S
C626 C627 1.376 . S
C627 H614 0.930 . S
C627 C626 1.376 . S
C627 C628 1.388 . S
C628 H615 0.930 . S
C628 C627 1.388 . S
C628 C629 1.390 . S
C629 C628 1.390 . S
C629 C630 1.394 . S
C629 C635 1.465 . S
C630 C625 1.399 . S
C630 C629 1.394 . S
C630 C631 1.516 . S
C631 C630 1.516 . S
C631 C632 1.502 . S
C631 C633 1.561 . S
C631 C634 1.526 . S
C632 H616 0.959 . S
C632 H617 0.959 . S
C632 H618 0.961 . S
C632 C631 1.502 . S
C633 H619 0.960 . S
C633 H620 0.961 . S
C633 H621 0.959 . S
C633 C631 1.561 . S
C634 C631 1.526 . S
C634 C635 1.396 . S
C634 C639 1.390 . S
C635 C629 1.465 . S
C635 C634 1.396 . S
C635 C636 1.399 . S
C636 H622 0.929 . S
C636 C635 1.399 . S
C636 C637 1.385 . S
C637 H623 0.931 . S
C637 C636 1.385 . S
C637 C638 1.389 . S
C638 C637 1.389 . S
C638 C639 1.387 . S
C639 H624 0.930 . S
C639 C634 1.390 . S
C639 C638 1.387 . S
H640 C652 0.930 . S
H641 C654 0.930 . S
H642 C655 0.930 . S
H643 C659 0.959 . S
H644 C659 0.959 . S
H645 C659 0.961 . S
H646 C660 0.960 . S
H647 C660 0.961 . S
H648 C660 0.959 . S
H649 C663 0.929 . S
H650 C664 0.931 . S
H651 C666 0.930 . S
C652 H640 0.930 . S
C652 C653 1.399 . S
C652 C657 1.399 . S
C653 C652 1.399 . S
C653 C654 1.376 1_565 S
C654 H641 0.930 . S
C654 C653 1.376 1_545 S
C654 C655 1.388 . S
C655 H642 0.930 . S
C655 C654 1.388 . S
C655 C656 1.390 . S
C656 C655 1.390 . S
C656 C657 1.394 1_545 S
C656 C662 1.465 . S
C657 C652 1.399 . S
C657 C656 1.394 1_565 S
C657 C658 1.516 . S
C658 C657 1.516 . S
C658 C659 1.502 . S
C658 C660 1.561 1_556 S
C658 C661 1.528 . S
C659 H643 0.959 . S
C659 H644 0.959 . S
C659 H645 0.961 . S
C659 C658 1.502 . S
C660 H646 0.960 . S
C660 H647 0.961 . S
C660 H648 0.959 . S
C660 C658 1.561 1_554 S
C661 C658 1.528 . S
C661 C662 1.396 1_565 S
C661 C666 1.388 1_556 S
C662 C656 1.465 . S
C662 C661 1.396 1_545 S
C662 C663 1.399 1_556 S
C663 H649 0.929 . S
C663 C662 1.399 1_554 S
C663 C664 1.385 . S
C664 H650 0.931 . S
C664 C663 1.385 . S
C664 C665 1.389 . S
C665 C664 1.389 . S
C665 C666 1.387 1_545 S
C666 H651 0.930 . S
C666 C661 1.388 1_554 S
C666 C665 1.387 1_565 S
H667 C679 0.930 . S
H668 C681 0.930 . S
H669 C682 0.930 . S
H670 C686 0.959 . S
H671 C686 0.959 . S
H672 C686 0.961 . S
H673 C687 0.960 . S
H674 C687 0.961 . S
H675 C687 0.959 . S
H676 C690 0.929 . S
H677 C691 0.931 . S
H678 C693 0.930 . S
C679 H667 0.930 . S
C679 C680 1.399 . S
C679 C684 1.399 . S
C680 C679 1.399 . S
C680 C681 1.376 . S
C681 H668 0.930 . S
C681 C680 1.376 . S
C681 C682 1.388 . S
C682 H669 0.930 . S
C682 C681 1.388 . S
C682 C683 1.390 . S
C683 C682 1.390 . S
C683 C684 1.394 . S
C683 C689 1.465 . S
C684 C679 1.399 . S
C684 C683 1.394 . S
C684 C685 1.516 . S
C685 C684 1.516 . S
C685 C686 1.502 . S
C685 C687 1.561 . S
C685 C688 1.526 . S
C686 H670 0.959 . S
C686 H671 0.959 . S
C686 H672 0.961 . S
C686 C685 1.502 . S
C687 H673 0.960 . S
C687 H674 0.961 . S
C687 H675 0.959 . S
C687 C685 1.561 . S
C688 C685 1.526 . S
C688 C689 1.396 . S
C688 C693 1.390 . S
C689 C683 1.465 . S
C689 C688 1.396 . S
C689 C690 1.399 . S
C690 H676 0.929 . S
C690 C689 1.399 . S
C690 C691 1.385 . S
C691 H677 0.931 . S
C691 C690 1.385 . S
C691 C692 1.389 . S
C692 C691 1.389 . S
C692 C693 1.387 . S
C693 H678 0.930 . S
C693 C688 1.390 . S
C693 C692 1.387 . S
H694 C706 0.930 . S
H695 C708 0.930 . S
H696 C709 0.930 . S
H697 C713 0.959 . S
H698 C713 0.959 . S
H699 C713 0.961 . S
H700 C714 0.960 . S
H701 C714 0.961 . S
H702 C714 0.959 . S
H703 C717 0.929 . S
H704 C718 0.931 . S
H705 C720 0.930 . S
C706 H694 0.930 . S
C706 C707 1.399 . S
C706 C711 1.399 . S
C707 C706 1.399 . S
C707 C708 1.376 . S
C708 H695 0.930 . S
C708 C707 1.376 . S
C708 C709 1.388 . S
C709 H696 0.930 . S
C709 C708 1.388 . S
C709 C710 1.390 . S
C710 C709 1.390 . S
C710 C711 1.394 . S
C710 C716 1.465 . S
C711 C706 1.399 . S
C711 C710 1.394 . S
C711 C712 1.516 . S
C712 C711 1.516 . S
C712 C713 1.502 . S
C712 C714 1.561 . S
C712 C715 1.526 . S
C713 H697 0.959 . S
C713 H698 0.959 . S
C713 H699 0.961 . S
C713 C712 1.502 . S
C714 H700 0.960 . S
C714 H701 0.961 . S
C714 H702 0.959 . S
C714 C712 1.561 . S
C715 C712 1.526 . S
C715 C716 1.396 . S
C715 C720 1.390 . S
C716 C710 1.465 . S
C716 C715 1.396 . S
C716 C717 1.399 . S
C717 H703 0.929 . S
C717 C716 1.399 . S
C717 C718 1.385 . S
C718 H704 0.931 . S
C718 C717 1.385 . S
C718 C719 1.389 . S
C719 C718 1.389 . S
C719 C720 1.387 . S
C720 H705 0.930 . S
C720 C715 1.390 . S
C720 C719 1.387 . S
H721 C733 0.930 . S
H722 C735 0.930 . S
H723 C736 0.930 . S
H724 C740 0.959 . S
H725 C740 0.959 . S
H726 C740 0.961 . S
H727 C741 0.960 . S
H728 C741 0.961 . S
H729 C741 0.959 . S
H730 C744 0.929 . S
H731 C745 0.931 . S
H732 C747 0.930 . S
C733 H721 0.930 . S
C733 C734 1.399 . S
C733 C738 1.399 . S
C734 C733 1.399 . S
C734 C735 1.376 . S
C735 H722 0.930 . S
C735 C734 1.376 . S
C735 C736 1.388 . S
C736 H723 0.930 . S
C736 C735 1.388 . S
C736 C737 1.390 . S
C737 C736 1.390 . S
C737 C738 1.394 . S
C737 C743 1.465 . S
C738 C733 1.399 . S
C738 C737 1.394 . S
C738 C739 1.516 . S
C739 C738 1.516 . S
C739 C740 1.502 . S
C739 C741 1.561 . S
C739 C742 1.526 . S
C740 H724 0.959 . S
C740 H725 0.959 . S
C740 H726 0.961 . S
C740 C739 1.502 . S
C741 H727 0.960 . S
C741 H728 0.961 . S
C741 H729 0.959 . S
C741 C739 1.561 . S
C742 C739 1.526 . S
C742 C743 1.396 . S
C742 C747 1.390 . S
C743 C737 1.465 . S
C743 C742 1.396 . S
C743 C744 1.399 . S
C744 H730 0.929 . S
C744 C743 1.399 . S
C744 C745 1.385 . S
C745 H731 0.931 . S
C745 C744 1.385 . S
C745 C746 1.389 . S
C746 C745 1.389 . S
C746 C747 1.387 . S
C747 H732 0.930 . S
C747 C742 1.390 . S
C747 C746 1.387 . S
H748 C760 0.930 . S
H749 C762 0.930 . S
H750 C763 0.930 . S
H751 C767 0.959 . S
H752 C767 0.959 . S
H753 C767 0.961 . S
H754 C768 0.960 . S
H755 C768 0.961 1_554 S
H756 C768 0.959 1_554 S
H757 C771 0.929 . S
H758 C772 0.931 . S
H759 C774 0.930 . S
C760 H748 0.930 . S
C760 C761 1.399 . S
C760 C765 1.399 . S
C761 C760 1.399 . S
C761 C762 1.376 . S
C762 H749 0.930 . S
C762 C761 1.376 . S
C762 C763 1.388 . S
C763 H750 0.930 . S
C763 C762 1.388 . S
C763 C764 1.390 . S
C764 C763 1.390 . S
C764 C765 1.394 . S
C764 C770 1.465 . S
C765 C760 1.399 . S
C765 C764 1.394 . S
C765 C766 1.516 1_655 S
C766 C765 1.516 1_455 S
C766 C767 1.502 . S
C766 C768 1.561 . S
C766 C769 1.526 1_455 S
C767 H751 0.959 . S
C767 H752 0.959 . S
C767 H753 0.961 . S
C767 C766 1.502 . S
C768 H754 0.960 . S
C768 H755 0.961 1_556 S
C768 H756 0.959 1_556 S
C768 C766 1.561 . S
C769 C766 1.526 1_655 S
C769 C770 1.396 . S
C769 C774 1.390 1_655 S
C770 C764 1.465 . S
C770 C769 1.396 . S
C770 C771 1.399 . S
C771 H757 0.929 . S
C771 C770 1.399 . S
C771 C772 1.385 . S
C772 H758 0.931 . S
C772 C771 1.385 . S
C772 C773 1.389 . S
C773 C772 1.389 . S
C773 C774 1.387 1_655 S
C774 H759 0.930 . S
C774 C769 1.390 1_455 S
C774 C773 1.387 1_455 S
H775 C787 0.930 . S
H776 C789 0.930 . S
H777 C790 0.930 . S
H778 C794 0.959 . S
H779 C794 0.959 . S
H780 C794 0.961 . S
H781 C795 0.960 . S
H782 C795 0.961 . S
H783 C795 0.959 . S
H784 C798 0.929 . S
H785 C799 0.931 . S
H786 C801 0.930 . S
C787 H775 0.930 . S
C787 C788 1.399 . S
C787 C792 1.399 . S
C788 C787 1.399 . S
C788 C789 1.376 . S
C789 H776 0.930 . S
C789 C788 1.376 . S
C789 C790 1.388 . S
C790 H777 0.930 . S
C790 C789 1.388 . S
C790 C791 1.390 . S
C791 C790 1.390 . S
C791 C792 1.394 . S
C791 C797 1.465 . S
C792 C787 1.399 . S
C792 C791 1.394 . S
C792 C793 1.516 . S
C793 C792 1.516 . S
C793 C794 1.502 . S
C793 C795 1.561 . S
C793 C796 1.526 . S
C794 H778 0.959 . S
C794 H779 0.959 . S
C794 H780 0.961 . S
C794 C793 1.502 . S
C795 H781 0.960 . S
C795 H782 0.961 . S
C795 H783 0.959 . S
C795 C793 1.561 . S
C796 C793 1.526 . S
C796 C797 1.396 . S
C796 C801 1.390 . S
C797 C791 1.465 . S
C797 C796 1.396 . S
C797 C798 1.399 . S
C798 H784 0.929 . S
C798 C797 1.399 . S
C798 C799 1.385 . S
C799 H785 0.931 . S
C799 C798 1.385 . S
C799 C800 1.389 . S
C800 C799 1.389 . S
C800 C801 1.387 . S
C801 H786 0.930 . S
C801 C796 1.390 . S
C801 C800 1.387 . S
H802 C814 0.930 . S
H803 C816 0.930 . S
H804 C817 0.930 . S
H805 C821 0.959 . S
H806 C821 0.959 . S
H807 C821 0.961 . S
H808 C822 0.960 . S
H809 C822 0.961 . S
H810 C822 0.959 . S
H811 C825 0.929 . S
H812 C826 0.931 . S
H813 C828 0.930 . S
C814 H802 0.930 . S
C814 C815 1.399 . S
C814 C819 1.399 . S
C815 C814 1.399 . S
C815 C816 1.376 . S
C816 H803 0.930 . S
C816 C815 1.376 . S
C816 C817 1.388 . S
C817 H804 0.930 . S
C817 C816 1.388 . S
C817 C818 1.390 . S
C818 C817 1.390 . S
C818 C819 1.394 . S
C818 C824 1.465 . S
C819 C814 1.399 . S
C819 C818 1.394 . S
C819 C820 1.516 . S
C820 C819 1.516 . S
C820 C821 1.502 . S
C820 C822 1.561 . S
C820 C823 1.526 . S
C821 H805 0.959 . S
C821 H806 0.959 . S
C821 H807 0.961 . S
C821 C820 1.502 . S
C822 H808 0.960 . S
C822 H809 0.961 . S
C822 H810 0.959 . S
C822 C820 1.561 . S
C823 C820 1.526 . S
C823 C824 1.396 . S
C823 C828 1.390 . S
C824 C818 1.465 . S
C824 C823 1.396 . S
C824 C825 1.399 . S
C825 H811 0.929 . S
C825 C824 1.399 . S
C825 C826 1.385 . S
C826 H812 0.931 . S
C826 C825 1.385 . S
C826 C827 1.389 . S
C827 C826 1.389 . S
C827 C828 1.387 . S
C828 H813 0.930 . S
C828 C823 1.390 . S
C828 C827 1.387 . S
H829 C841 0.930 . S
H830 C843 0.930 . S
H831 C844 0.930 . S
H832 C848 0.959 . S
H833 C848 0.959 . S
H834 C848 0.961 . S
H835 C849 0.960 . S
H836 C849 0.961 . S
H837 C849 0.959 . S
H838 C852 0.929 . S
H839 C853 0.931 . S
H840 C855 0.930 . S
C841 H829 0.930 . S
C841 C842 1.399 . S
C841 C846 1.399 . S
C842 C841 1.399 . S
C842 C843 1.376 . S
C843 H830 0.930 . S
C843 C842 1.376 . S
C843 C844 1.388 . S
C844 H831 0.930 . S
C844 C843 1.388 . S
C844 C845 1.390 . S
C845 C844 1.390 . S
C845 C846 1.394 . S
C845 C851 1.465 . S
C846 C841 1.399 . S
C846 C845 1.394 . S
C846 C847 1.516 . S
C847 C846 1.516 . S
C847 C848 1.502 . S
C847 C849 1.561 . S
C847 C850 1.526 . S
C848 H832 0.959 . S
C848 H833 0.959 . S
C848 H834 0.961 . S
C848 C847 1.502 . S
C849 H835 0.960 . S
C849 H836 0.961 . S
C849 H837 0.959 . S
C849 C847 1.561 . S
C850 C847 1.526 . S
C850 C851 1.396 . S
C850 C855 1.390 . S
C851 C845 1.465 . S
C851 C850 1.396 . S
C851 C852 1.399 . S
C852 H838 0.929 . S
C852 C851 1.399 . S
C852 C853 1.385 . S
C853 H839 0.931 . S
C853 C852 1.385 . S
C853 C854 1.389 . S
C854 C853 1.389 . S
C854 C855 1.387 . S
C855 H840 0.930 . S
C855 C850 1.390 . S
C855 C854 1.387 . S
C221 C4 2.305 . S
C233 C104 2.303 . S
C248 C16 1.369 . S
C260 N124 1.350 . S
C287 C158 1.581 . S
C275 C32 1.556 . S
C302 C43 1.098 . S
C314 N192 1.147 . S
C341 C145 2.745 . S
C329 C5 2.720 . S
C368 N102 0.882 1_565 S
C356 C21 0.979 . S
C395 C179 1.809 1_556 S
C383 C27 1.783 . S
C422 N154 0.938 . S
C410 C37 0.939 . S
C437 C10 1.808 . S
C449 C194 1.814 . S
C476 C128 1.754 . S
C464 C26 1.743 . S
C491 C38 1.105 . S
C503 C89 1.150 . S
C518 C15 1.576 . S
C530 C175 1.595 . S
C557 C115 2.429 . S
C545 C48 2.426 . S
C572 C59 1.193 . S
C584 N132 1.156 . S
C599 C76 1.848 . S
C611 C149 1.874 . S
C626 C87 1.031 . S
C638 N184 0.974 . S
C653 C54 2.123 . S
C665 C134 2.123 . S
C692 N94 1.456 . S
C680 C60 1.521 . S
C719 C188 1.863 . S
C707 C71 1.812 . S
C746 N162 0.941 . S
C734 C82 0.944 . S
C761 C49 2.049 . S
C773 C205 2.047 1_656 S
C800 C119 1.402 . S
C788 C70 1.412 . S
C827 C98 1.473 . S
C815 C81 1.491 . S
C842 C65 1.425 . S
C854 C164 1.412 . S
