# Generated by pormake.
# Topology eea, (3,6)-cn, num edge types: 1
# Building blocks:
#     Node 0, Type 0, BuildingBlock: ESEHIV_clean_linker_0, # of connection points: 3
#     Node 1, Type 0, BuildingBlock: ESEHIV_clean_linker_0, # of connection points: 3
#     Node 2, Type 0, BuildingBlock: ESEHIV_clean_linker_0, # of connection points: 3
#     Node 3, Type 0, BuildingBlock: ESEHIV_clean_linker_0, # of connection points: 3
#     Node 4, Type 0, BuildingBlock: ESEHIV_clean_linker_0, # of connection points: 3
#     Node 5, Type 0, BuildingBlock: ESEHIV_clean_linker_0, # of connection points: 3
#     Node 6, Type 0, BuildingBlock: ESEHIV_clean_linker_0, # of connection points: 3
#     Node 7, Type 0, BuildingBlock: ESEHIV_clean_linker_0, # of connection points: 3
#     Node 8, Type 0, BuildingBlock: ESEHIV_clean_linker_0, # of connection points: 3
#     Node 9, Type 0, BuildingBlock: ESEHIV_clean_linker_0, # of connection points: 3
#     Node 10, Type 0, BuildingBlock: ESEHIV_clean_linker_0, # of connection points: 3
#     Node 11, Type 0, BuildingBlock: ESEHIV_clean_linker_0, # of connection points: 3
#     Node 12, Type 0, BuildingBlock: ESEHIV_clean_linker_0, # of connection points: 3
#     Node 13, Type 0, BuildingBlock: ESEHIV_clean_linker_0, # of connection points: 3
#     Node 14, Type 0, BuildingBlock: ESEHIV_clean_linker_0, # of connection points: 3
#     Node 15, Type 0, BuildingBlock: ESEHIV_clean_linker_0, # of connection points: 3
#     Node 16, Type 0, BuildingBlock: ESEHIV_clean_linker_0, # of connection points: 3
#     Node 17, Type 0, BuildingBlock: ESEHIV_clean_linker_0, # of connection points: 3
#     Node 18, Type 1, BuildingBlock: CUKXOW_clean_sbu_0, # of connection points: 6
#     Node 19, Type 1, BuildingBlock: CUKXOW_clean_sbu_0, # of connection points: 6
#     Node 20, Type 1, BuildingBlock: CUKXOW_clean_sbu_0, # of connection points: 6
#     Node 21, Type 1, BuildingBlock: CUKXOW_clean_sbu_0, # of connection points: 6
#     Node 22, Type 1, BuildingBlock: CUKXOW_clean_sbu_0, # of connection points: 6
#     Node 23, Type 1, BuildingBlock: CUKXOW_clean_sbu_0, # of connection points: 6
#     Node 24, Type 1, BuildingBlock: CUKXOW_clean_sbu_0, # of connection points: 6
#     Node 25, Type 1, BuildingBlock: CUKXOW_clean_sbu_0, # of connection points: 6
#     Node 26, Type 1, BuildingBlock: CUKXOW_clean_sbu_0, # of connection points: 6
#     Edge 27, Type (0, 1), BuildingBlock: XUDNAN_clean_linker_2, # of connection points: 2
#     Edge 28, Type (0, 1), BuildingBlock: XUDNAN_clean_linker_2, # of connection points: 2
#     Edge 29, Type (0, 1), BuildingBlock: XUDNAN_clean_linker_2, # of connection points: 2
#     Edge 30, Type (0, 1), BuildingBlock: XUDNAN_clean_linker_2, # of connection points: 2
#     Edge 31, Type (0, 1), BuildingBlock: XUDNAN_clean_linker_2, # of connection points: 2
#     Edge 32, Type (0, 1), BuildingBlock: XUDNAN_clean_linker_2, # of connection points: 2
#     Edge 33, Type (0, 1), BuildingBlock: XUDNAN_clean_linker_2, # of connection points: 2
#     Edge 34, Type (0, 1), BuildingBlock: XUDNAN_clean_linker_2, # of connection points: 2
#     Edge 35, Type (0, 1), BuildingBlock: XUDNAN_clean_linker_2, # of connection points: 2
#     Edge 36, Type (0, 1), BuildingBlock: XUDNAN_clean_linker_2, # of connection points: 2
#     Edge 37, Type (0, 1), BuildingBlock: XUDNAN_clean_linker_2, # of connection points: 2
#     Edge 38, Type (0, 1), BuildingBlock: XUDNAN_clean_linker_2, # of connection points: 2
#     Edge 39, Type (0, 1), BuildingBlock: XUDNAN_clean_linker_2, # of connection points: 2
#     Edge 40, Type (0, 1), BuildingBlock: XUDNAN_clean_linker_2, # of connection points: 2
#     Edge 41, Type (0, 1), BuildingBlock: XUDNAN_clean_linker_2, # of connection points: 2
#     Edge 42, Type (0, 1), BuildingBlock: XUDNAN_clean_linker_2, # of connection points: 2
#     Edge 43, Type (0, 1), BuildingBlock: XUDNAN_clean_linker_2, # of connection points: 2
#     Edge 44, Type (0, 1), BuildingBlock: XUDNAN_clean_linker_2, # of connection points: 2
#     Edge 45, Type (0, 1), BuildingBlock: XUDNAN_clean_linker_2, # of connection points: 2
#     Edge 46, Type (0, 1), BuildingBlock: XUDNAN_clean_linker_2, # of connection points: 2
#     Edge 47, Type (0, 1), BuildingBlock: XUDNAN_clean_linker_2, # of connection points: 2
#     Edge 48, Type (0, 1), BuildingBlock: XUDNAN_clean_linker_2, # of connection points: 2
#     Edge 49, Type (0, 1), BuildingBlock: XUDNAN_clean_linker_2, # of connection points: 2
#     Edge 50, Type (0, 1), BuildingBlock: XUDNAN_clean_linker_2, # of connection points: 2
#     Edge 51, Type (0, 1), BuildingBlock: XUDNAN_clean_linker_2, # of connection points: 2
#     Edge 52, Type (0, 1), BuildingBlock: XUDNAN_clean_linker_2, # of connection points: 2
#     Edge 53, Type (0, 1), BuildingBlock: XUDNAN_clean_linker_2, # of connection points: 2
#     Edge 54, Type (0, 1), BuildingBlock: XUDNAN_clean_linker_2, # of connection points: 2
#     Edge 55, Type (0, 1), BuildingBlock: XUDNAN_clean_linker_2, # of connection points: 2
#     Edge 56, Type (0, 1), BuildingBlock: XUDNAN_clean_linker_2, # of connection points: 2
#     Edge 57, Type (0, 1), BuildingBlock: XUDNAN_clean_linker_2, # of connection points: 2
#     Edge 58, Type (0, 1), BuildingBlock: XUDNAN_clean_linker_2, # of connection points: 2
#     Edge 59, Type (0, 1), BuildingBlock: XUDNAN_clean_linker_2, # of connection points: 2
#     Edge 60, Type (0, 1), BuildingBlock: XUDNAN_clean_linker_2, # of connection points: 2
#     Edge 61, Type (0, 1), BuildingBlock: XUDNAN_clean_linker_2, # of connection points: 2
#     Edge 62, Type (0, 1), BuildingBlock: XUDNAN_clean_linker_2, # of connection points: 2
#     Edge 63, Type (0, 1), BuildingBlock: XUDNAN_clean_linker_2, # of connection points: 2
#     Edge 64, Type (0, 1), BuildingBlock: XUDNAN_clean_linker_2, # of connection points: 2
#     Edge 65, Type (0, 1), BuildingBlock: XUDNAN_clean_linker_2, # of connection points: 2
#     Edge 66, Type (0, 1), BuildingBlock: XUDNAN_clean_linker_2, # of connection points: 2
#     Edge 67, Type (0, 1), BuildingBlock: XUDNAN_clean_linker_2, # of connection points: 2
#     Edge 68, Type (0, 1), BuildingBlock: XUDNAN_clean_linker_2, # of connection points: 2
#     Edge 69, Type (0, 1), BuildingBlock: XUDNAN_clean_linker_2, # of connection points: 2
#     Edge 70, Type (0, 1), BuildingBlock: XUDNAN_clean_linker_2, # of connection points: 2
#     Edge 71, Type (0, 1), BuildingBlock: XUDNAN_clean_linker_2, # of connection points: 2
#     Edge 72, Type (0, 1), BuildingBlock: XUDNAN_clean_linker_2, # of connection points: 2
#     Edge 73, Type (0, 1), BuildingBlock: XUDNAN_clean_linker_2, # of connection points: 2
#     Edge 74, Type (0, 1), BuildingBlock: XUDNAN_clean_linker_2, # of connection points: 2
#     Edge 75, Type (0, 1), BuildingBlock: XUDNAN_clean_linker_2, # of connection points: 2
#     Edge 76, Type (0, 1), BuildingBlock: XUDNAN_clean_linker_2, # of connection points: 2
#     Edge 77, Type (0, 1), BuildingBlock: XUDNAN_clean_linker_2, # of connection points: 2
#     Edge 78, Type (0, 1), BuildingBlock: XUDNAN_clean_linker_2, # of connection points: 2
#     Edge 79, Type (0, 1), BuildingBlock: XUDNAN_clean_linker_2, # of connection points: 2
#     Edge 80, Type (0, 1), BuildingBlock: XUDNAN_clean_linker_2, # of connection points: 2
# Relax obj value: 0.018
# Max RMSD: 0.125
# Mean RMSD: 0.059
data_MOF--net-eea--node1-CUKXOW_clean_sbu_0--node2-ESEHIV_clean_linker_0--edge1-XUDNAN_clean_linker_2
_symmetry_space_group_name_H-M    P1
_symmetry_Int_Tables_number       1
_symmetry_cell_setting            triclinic
loop_
_symmetry_equiv_pos_as_xyz
'x, y, z'
_cell_length_a     52.439754
_cell_length_b     49.134304
_cell_length_c     55.839391
_cell_angle_alpha  93.373533
_cell_angle_beta   93.123796
_cell_angle_gamma 119.978
loop_
_atom_site_label
_atom_site_type_symbol
_atom_site_fract_x
_atom_site_fract_y
_atom_site_fract_z
_atom_type_partial_charge
H0 H 0.23435 0.17221 0.47229 0.0
H1 H 0.25682 0.099 0.46365 0.0
H2 H 0.21069 0.1145 0.4049 0.0
C3 C 0.23435 0.15321 0.46139 0.0
C4 C 0.22132 0.14542 0.4375 0.0
C5 C 0.24752 0.1368 0.47112 0.0
C6 C 0.24663 0.1118 0.45666 0.0
C7 C 0.23322 0.10364 0.43289 0.0
C8 C 0.22087 0.12068 0.42333 0.0
H9 H 0.83625 0.08122 0.46684 0.0
H10 H 0.9158 0.1718 0.48262 0.0
H11 H 0.89011 0.12501 0.41028 0.0
C12 C 0.85615 0.10068 0.46121 0.0
C13 C 0.86163 0.09993 0.437 0.0
C14 C 0.87524 0.12674 0.47784 0.0
C15 C 0.9005 0.1521 0.4698 0.0
C16 C 0.90646 0.15162 0.44545 0.0
C17 C 0.88647 0.12554 0.42918 0.0
H18 H 0.84136 0.73221 0.46958 0.0
H19 H 0.926 0.73854 0.47464 0.0
H20 H 0.89072 0.75134 0.40748 0.0
C21 C 0.86071 0.73549 0.46112 0.0
C22 C 0.86323 0.74168 0.43688 0.0
C23 C 0.88319 0.73428 0.47478 0.0
C24 C 0.90856 0.7395 0.46406 0.0
C25 C 0.91151 0.74554 0.43978 0.0
C26 C 0.88888 0.74708 0.4263 0.0
H27 H 0.07477 0.26046 0.53189 0.0
H28 H 0.1664 0.28687 0.54054 0.0
H29 H 0.10646 0.22575 0.58835 0.0
C30 C 0.09293 0.25981 0.54151 0.0
C31 C 0.08784 0.24305 0.56201 0.0
C32 C 0.12113 0.27506 0.53318 0.0
C33 C 0.14423 0.27385 0.54603 0.0
C34 C 0.13907 0.25498 0.56514 0.0
C35 C 0.11091 0.2404 0.5736 0.0
H36 H 0.73089 0.89709 0.55463 0.0
H37 H 0.75798 0.82738 0.54608 0.0
H38 H 0.78964 0.89378 0.60923 0.0
C39 C 0.74342 0.88639 0.56091 0.0
C40 C 0.76078 0.89856 0.58311 0.0
C41 C 0.74249 0.86103 0.54683 0.0
C42 C 0.75807 0.84681 0.55636 0.0
C43 C 0.77492 0.85837 0.57893 0.0
C44 C 0.77664 0.88467 0.59187 0.0
H45 H 0.09256 0.83313 0.53107 0.0
H46 H 0.16659 0.92771 0.54566 0.0
H47 H 0.10275 0.8911 0.59632 0.0
C48 C 0.10455 0.85489 0.54276 0.0
C49 C 0.0949 0.85758 0.56564 0.0
C50 C 0.12963 0.88069 0.53472 0.0
C51 C 0.14626 0.90826 0.55067 0.0
C52 C 0.13644 0.91191 0.5727 0.0
C53 C 0.11047 0.88705 0.57967 0.0
H54 H 0.91707 0.51205 0.79782 0.0
H55 H 0.93598 0.43612 0.79292 0.0
H56 H 0.89325 0.45157 0.73169 0.0
C57 C 0.9171 0.49278 0.78733 0.0
C58 C 0.90438 0.48435 0.7633 0.0
C59 C 0.92858 0.47548 0.7982 0.0
C60 C 0.92791 0.45012 0.78458 0.0
C61 C 0.91522 0.44154 0.76062 0.0
C62 C 0.90347 0.45861 0.7501 0.0
H63 H 0.50708 0.42199 0.79283 0.0
H64 H 0.58367 0.51525 0.80526 0.0
H65 H 0.56431 0.45984 0.73693 0.0
C66 C 0.52657 0.44128 0.78657 0.0
C67 C 0.53394 0.43765 0.76335 0.0
C68 C 0.54448 0.469 0.80201 0.0
C69 C 0.56944 0.49395 0.79342 0.0
C70 C 0.57687 0.49086 0.76992 0.0
C71 C 0.55902 0.46249 0.75511 0.0
H72 H 0.50293 0.06283 0.81011 0.0
H73 H 0.59437 0.08851 0.81235 0.0
H74 H 0.55635 0.11927 0.75735 0.0
C75 C 0.52428 0.07534 0.80311 0.0
C76 C 0.52721 0.09269 0.78338 0.0
C77 C 0.54845 0.07447 0.81432 0.0
C78 C 0.57541 0.08866 0.80381 0.0
C79 C 0.57834 0.10429 0.78283 0.0
C80 C 0.55414 0.10648 0.77297 0.0
H81 H 0.76095 0.6106 0.88159 0.0
H82 H 0.85019 0.62763 0.88202 0.0
H83 H 0.8051 0.60224 0.9456 0.0
C84 C 0.78036 0.61218 0.89091 0.0
C85 C 0.77935 0.6041 0.91479 0.0
C86 C 0.80618 0.6216 0.87893 0.0
C87 C 0.83072 0.62221 0.89115 0.0
C88 C 0.83031 0.61551 0.91516 0.0
C89 C 0.80501 0.60731 0.92697 0.0
H90 H 0.41925 0.25395 0.88663 0.0
H91 H 0.42114 0.1669 0.8783 0.0
H92 H 0.46752 0.23299 0.9401 0.0
C93 C 0.42617 0.23812 0.89321 0.0
C94 C 0.44495 0.24741 0.9148 0.0
C95 C 0.41691 0.20876 0.87989 0.0
C96 C 0.42673 0.18883 0.88866 0.0
C97 C 0.44518 0.19778 0.91017 0.0
C98 C 0.45363 0.22661 0.92325 0.0
H99 H 0.75463 0.17507 0.86322 0.0
H100 H 0.83846 0.26031 0.88321 0.0
H101 H 0.77914 0.21734 0.93668 0.0
C102 C 0.77053 0.19336 0.87668 0.0
C103 C 0.76362 0.19291 0.90079 0.0
C104 C 0.79749 0.21762 0.86984 0.0
C105 C 0.81718 0.24187 0.88761 0.0
C106 C 0.81037 0.24215 0.91151 0.0
C107 C 0.78388 0.21741 0.91803 0.0
H108 H 0.58316 0.84908 0.14079 0.0
H109 H 0.59673 0.76997 0.12802 0.0
H110 H 0.55441 0.79426 0.07187 0.0
C111 C 0.58113 0.82962 0.129 0.0
C112 C 0.56759 0.82386 0.10545 0.0
C113 C 0.59232 0.81077 0.13731 0.0
C114 C 0.58837 0.78485 0.12197 0.0
C115 C 0.57482 0.77894 0.09831 0.0
C116 C 0.56498 0.79885 0.09007 0.0
H117 H 0.17245 0.74894 0.12727 0.0
H118 H 0.25123 0.83986 0.14548 0.0
H119 H 0.233 0.7915 0.07439 0.0
C120 C 0.19281 0.7685 0.12247 0.0
C121 C 0.20123 0.76685 0.09926 0.0
C122 C 0.2107 0.79456 0.13959 0.0
C123 C 0.2368 0.81991 0.13253 0.0
C124 C 0.24504 0.81909 0.10899 0.0
C125 C 0.2271 0.79237 0.09261 0.0
H126 H 0.17348 0.397 0.13826 0.0
H127 H 0.25902 0.4044 0.1463 0.0
H128 H 0.22997 0.42784 0.08115 0.0
C129 C 0.19465 0.40344 0.13169 0.0
C130 C 0.2002 0.4144 0.10882 0.0
C131 C 0.21543 0.39886 0.14524 0.0
C132 C 0.24238 0.40667 0.13571 0.0
C133 C 0.24798 0.41701 0.11254 0.0
C134 C 0.22661 0.42081 0.09928 0.0
H135 H 0.43239 0.95472 0.21088 0.0
H136 H 0.49939 0.93206 0.19353 0.0
H137 H 0.45462 0.90119 0.25683 0.0
C138 C 0.44511 0.94334 0.21455 0.0
C139 C 0.44082 0.92747 0.23543 0.0
C140 C 0.46627 0.94534 0.19904 0.0
C141 C 0.48324 0.93127 0.20513 0.0
C142 C 0.47991 0.91635 0.22636 0.0
C143 C 0.45824 0.91401 0.24104 0.0
H144 H 0.08127 0.57562 0.21817 0.0
H145 H 0.0962 0.4972 0.20846 0.0
H146 H 0.14151 0.56807 0.2687 0.0
C147 C 0.09255 0.56328 0.22379 0.0
C148 C 0.11256 0.57532 0.24456 0.0
C149 C 0.08687 0.53535 0.21039 0.0
C150 C 0.1011 0.51923 0.21829 0.0
C151 C 0.12088 0.53093 0.23933 0.0
C152 C 0.1269 0.55932 0.25211 0.0
H153 H 0.42484 0.48654 0.20743 0.0
H154 H 0.50718 0.5732 0.22235 0.0
H155 H 0.44575 0.54086 0.27649 0.0
C156 C 0.43974 0.5068 0.21999 0.0
C157 C 0.43159 0.51058 0.24298 0.0
C158 C 0.46653 0.52954 0.21238 0.0
C159 C 0.48654 0.5555 0.2284 0.0
C160 C 0.47937 0.55944 0.25178 0.0
C161 C 0.45186 0.53691 0.25895 0.0
Tb162 Tb 0.53794 0.02573 1.00184 0.0
C163 C 0.51305 0.96491 0.02846 0.0
Tb164 Tb 0.47097 0.99088 0.00994 0.0
O165 O 0.55124 0.03753 0.04066 0.0
O166 O 0.51067 0.03056 0.02618 0.0
O167 O 0.53405 0.9831 0.01494 0.0
C168 C 0.41946 0.96192 0.02937 0.0
O169 O 0.48897 0.96699 0.03099 0.0
C170 C 0.48372 0.98247 0.96621 0.0
C171 C 0.49668 0.05382 0.98571 0.0
O172 O 0.43048 0.9479 0.0168 0.0
O173 O 0.43703 0.99221 0.03036 0.0
O174 O 0.45862 0.97986 0.97092 0.0
O175 O 0.49839 0.98609 0.98589 0.0
O176 O 0.47482 0.03395 0.9978 0.0
O177 O 0.52113 0.05248 0.98331 0.0
C178 C 0.58777 0.05211 0.98001 0.0
O179 O 0.58082 0.06651 0.99639 0.0
O180 O 0.56704 0.02269 0.97646 0.0
C181 C 0.52608 0.03469 0.04567 0.0
Tb182 Tb 0.98467 0.51639 0.00626 0.0
C183 C 0.05519 0.56054 0.01644 0.0
Tb184 Tb 0.02619 0.4861 0.0092 0.0
O185 O 0.97317 0.51195 0.04375 0.0
O186 O 1.00108 0.49761 0.03127 0.0
O187 O 0.02904 0.55824 0.01129 0.0
C188 C 0.06192 0.46533 0.02505 0.0
O189 O 0.05926 0.53592 0.01654 0.0
C190 C 0.00991 0.49281 0.96527 0.0
C191 C 0.95712 0.44228 1.0023 0.0
O192 O 0.06164 0.4899 0.03452 0.0
O193 O 0.04226 0.45262 0.00655 0.0
O194 O 0.02032 0.47437 0.96971 0.0
O195 O 0.01331 0.50935 0.98465 0.0
O196 O 0.98232 0.44616 0.01271 0.0
O197 O 0.95374 0.46617 0.99621 0.0
C198 C 0.95688 0.54641 0.99151 0.0
O199 O 0.97442 0.55438 0.01114 0.0
O200 O 0.95468 0.52135 0.98036 0.0
C201 C 0.98975 0.5003 0.04986 0.0
Tb202 Tb 0.47504 0.50203 0.00546 0.0
C203 C 0.498 0.45253 0.99952 0.0
Tb204 Tb 0.54298 0.52656 0.00576 0.0
O205 O 0.47076 0.50832 0.96705 0.0
O206 O 0.50436 0.50221 0.98138 0.0
O207 O 0.47556 0.45715 1.00371 0.0
C208 C 0.59727 0.54685 0.99263 0.0
O209 O 0.52506 0.47613 0.99728 0.0
C210 C 0.52152 0.51946 0.04809 0.0
C211 C 0.5212 0.57619 0.01026 0.0
O212 O 0.58679 0.53197 0.01139 0.0
O213 O 0.57733 0.5511 0.98142 0.0
O214 O 0.54636 0.52052 0.04486 0.0
O215 O 0.51337 0.52634 0.02918 0.0
O216 O 0.54244 0.57072 1.00373 0.0
O217 O 0.49462 0.55316 0.01486 0.0
C218 C 0.42351 0.4742 0.0248 0.0
O219 O 0.43037 0.49472 0.00899 0.0
O220 O 0.44536 0.46933 0.02921 0.0
C221 C 0.49552 0.50942 0.96276 0.0
Tb222 Tb 0.1961 0.34691 0.33322 0.0
C223 C 0.16642 0.28291 0.35529 0.0
Tb224 Tb 0.12989 0.31756 0.34183 0.0
O225 O 0.20874 0.35383 0.37202 0.0
O226 O 0.17097 0.35411 0.35845 0.0
O227 O 0.18797 0.30099 0.34218 0.0
C228 C 0.07961 0.29218 0.3631 0.0
O229 O 0.14402 0.28762 0.3592 0.0
C230 C 0.14082 0.31073 0.29737 0.0
C231 C 0.16086 0.38317 0.32105 0.0
O232 O 0.08599 0.27773 0.3463 0.0
O233 O 0.10119 0.32115 0.36739 0.0
O234 O 0.11727 0.31122 0.30298 0.0
O235 O 0.15488 0.31064 0.3164 0.0
O236 O 0.13721 0.36263 0.33118 0.0
O237 O 0.18485 0.38072 0.3194 0.0
C238 C 0.24536 0.3714 0.31074 0.0
O239 O 0.24396 0.3791 0.33308 0.0
O240 O 0.21933 0.34962 0.30146 0.0
C241 C 0.18531 0.35466 0.3775 0.0
Tb242 Tb 0.64847 0.84389 0.33459 0.0
C243 C 0.71344 0.89392 0.35392 0.0
Tb244 Tb 0.69194 0.82062 0.34593 0.0
O245 O 0.64836 0.85602 0.37326 0.0
O246 O 0.65596 0.81982 0.36158 0.0
O247 O 0.68987 0.88857 0.33974 0.0
C248 C 0.72648 0.8018 0.3668 0.0
O249 O 0.71699 0.87052 0.36115 0.0
C250 C 0.68295 0.82806 0.30077 0.0
C251 C 0.62606 0.76979 0.32865 0.0
O252 O 0.7331 0.81897 0.34879 0.0
O253 O 0.70099 0.79594 0.37316 0.0
O254 O 0.68869 0.80653 0.30716 0.0
O255 O 0.6846 0.845 0.31915 0.0
O256 O 0.65153 0.77512 0.33935 0.0
O257 O 0.62058 0.79276 0.32407 0.0
C258 C 0.61263 0.85566 0.307 0.0
O259 O 0.6278 0.84323 0.29951 0.0
O260 O 0.6175 0.86162 0.33035 0.0
C261 C 0.65611 0.836 0.37993 0.0
Tb262 Tb 0.14623 0.82993 0.34535 0.0
C263 C 0.16356 0.77907 0.32995 0.0
Tb264 Tb 0.21049 0.85265 0.33427 0.0
O265 O 0.12895 0.8105 0.30808 0.0
O266 O 0.17195 0.84812 0.31604 0.0
O267 O 0.145 0.78505 0.34122 0.0
C268 C 0.26205 0.86824 0.31712 0.0
O269 O 0.18936 0.80173 0.32397 0.0
C270 C 0.20128 0.85376 0.38031 0.0
C271 C 0.19293 0.90347 0.34817 0.0
O272 O 0.25473 0.85879 0.33818 0.0
O273 O 0.24008 0.86848 0.30538 0.0
O274 O 0.22585 0.87306 0.3718 0.0
O275 O 0.18442 0.83386 0.36321 0.0
O276 O 0.21098 0.89733 0.33611 0.0
O277 O 0.16788 0.88085 0.35535 0.0
C278 C 0.09817 0.81145 0.3686 0.0
O279 O 0.10386 0.82769 0.35004 0.0
O280 O 0.11959 0.80627 0.37405 0.0
C281 C 0.15393 0.82817 0.29933 0.0
Tb282 Tb 0.87771 0.69652 0.67552 0.0
C283 C 0.84812 0.62753 0.69186 0.0
Tb284 Tb 0.80776 0.65688 0.67636 0.0
O285 O 0.88619 0.7014 0.71503 0.0
O286 O 0.84553 0.69173 0.69854 0.0
O287 O 0.87204 0.65133 0.68432 0.0
C288 C 0.75358 0.6289 0.69117 0.0
O289 O 0.82207 0.62609 0.69179 0.0
C290 C 0.82665 0.66044 0.63342 0.0
C291 C 0.8372 0.72656 0.6615 0.0
O292 O 0.76537 0.61443 0.68021 0.0
O293 O 0.77219 0.65908 0.69353 0.0
O294 O 0.79926 0.65127 0.63676 0.0
O295 O 0.83982 0.662 0.65348 0.0
O296 O 0.81326 0.7023 0.66859 0.0
O297 O 0.86361 0.72873 0.66226 0.0
C298 C 0.92954 0.71945 0.65635 0.0
O299 O 0.92252 0.73555 0.67127 0.0
O300 O 0.90762 0.69059 0.65281 0.0
C301 C 0.85885 0.69287 0.71845 0.0
Tb302 Tb 0.31446 0.18999 0.67093 0.0
C303 C 0.38191 0.22964 0.68769 0.0
Tb304 Tb 0.34755 0.15375 0.68063 0.0
O305 O 0.32082 0.2065 0.7092 0.0
O306 O 0.3176 0.16328 0.69793 0.0
O307 O 0.35872 0.23038 0.67776 0.0
C308 C 0.37758 0.13178 0.70478 0.0
O309 O 0.38183 0.20308 0.69136 0.0
C310 C 0.33922 0.16139 0.63562 0.0
C311 C 0.28062 0.11422 0.66234 0.0
O312 O 0.35663 0.13555 0.71263 0.0
O313 O 0.38142 0.13989 0.68293 0.0
O314 O 0.34152 0.13763 0.64218 0.0
O315 O 0.34444 0.1805 0.65381 0.0
O316 O 0.30336 0.11327 0.67305 0.0
O317 O 0.28094 0.14091 0.65875 0.0
C318 C 0.28448 0.21234 0.64723 0.0
O319 O 0.2793 0.20204 0.66837 0.0
O320 O 0.30666 0.21054 0.63993 0.0
C321 C 0.32309 0.18281 0.71593 0.0
Tb322 Tb 0.80239 0.16065 0.67968 0.0
C323 C 0.81126 0.10297 0.66674 0.0
Tb324 Tb 0.86448 0.17464 0.66782 0.0
O325 O 0.78519 0.14258 0.64198 0.0
O326 O 0.82904 0.17738 0.6508 0.0
O327 O 0.79368 0.11235 0.67583 0.0
C328 C 0.90757 0.17783 0.64251 0.0
O329 O 0.83889 0.12296 0.66225 0.0
C330 C 0.85704 0.17671 0.71396 0.0
C331 C 0.85616 0.23145 0.68265 0.0
O332 O 0.88031 0.16676 0.63421 0.0
O333 O 0.91082 0.18736 0.66526 0.0
O334 O 0.88261 0.19186 0.70541 0.0
O335 O 0.83818 0.15876 0.69692 0.0
O336 O 0.87073 0.22197 0.6689 0.0
O337 O 0.8309 0.21118 0.69104 0.0
C338 C 0.75628 0.15644 0.70091 0.0
O339 O 0.76747 0.1724 0.68274 0.0
O340 O 0.77092 0.14264 0.70705 0.0
C341 C 0.81062 0.15929 0.6336 0.0
H342 H 0.28517 0.81602 0.08094 0.0
H343 H 0.26651 0.88272 0.11906 0.0
H344 H 0.30963 0.9268 0.10333 0.0
H345 H 0.36522 0.86425 0.08864 0.0
H346 H 0.36938 0.85129 0.05899 0.0
H347 H 0.33833 0.82546 0.07463 0.0
H348 H 0.3025 0.81991 0.03834 0.0
H349 H 0.33341 0.84591 0.02267 0.0
H350 H 0.30463 0.85489 0.02775 0.0
H351 H 0.35376 0.96348 0.08182 0.0
H352 H 0.39608 0.98971 0.05738 0.0
H353 H 0.38432 0.89855 0.03234 0.0
C354 C 0.29008 0.83988 0.08601 0.0
C355 C 0.27232 0.84586 0.1012 0.0
C356 C 0.27992 0.87753 0.10768 0.0
C357 C 0.30426 0.9027 0.0987 0.0
C358 C 0.32081 0.89583 0.0833 0.0
C359 C 0.31411 0.86518 0.07714 0.0
C360 C 0.33486 0.86395 0.05985 0.0
C361 C 0.35303 0.85044 0.07121 0.0
C362 C 0.31783 0.84505 0.03573 0.0
C363 C 0.35413 0.89871 0.05697 0.0
C364 C 0.34579 0.91676 0.07073 0.0
C365 C 0.36044 0.94955 0.071 0.0
C366 C 0.38435 0.96422 0.057 0.0
C367 C 0.39323 0.9461 0.04286 0.0
C368 C 0.37783 0.91295 0.04283 0.0
H369 H 0.18352 0.45891 0.11407 0.0
H370 H 0.16631 0.37516 0.06957 0.0
H371 H 0.12882 0.37898 0.0433 0.0
H372 H 0.10863 0.44545 0.11041 0.0
H373 H 0.12105 0.48675 0.10869 0.0
H374 H 0.14471 0.4753 0.12412 0.0
H375 H 0.1854 0.50874 0.09653 0.0
H376 H 0.16065 0.51856 0.08073 0.0
H377 H 0.1775 0.50004 0.06426 0.0
H378 H 0.09348 0.39186 0.02203 0.0
H379 H 0.06272 0.41331 0.0066 0.0
H380 H 0.10356 0.48971 0.06422 0.0
C381 C 0.17157 0.44132 0.09888 0.0
C382 C 0.17735 0.41655 0.0938 0.0
C383 C 0.16188 0.39415 0.07366 0.0
C384 C 0.14065 0.39617 0.0587 0.0
C385 C 0.13546 0.42096 0.06405 0.0
C386 C 0.15056 0.44326 0.08356 0.0
C387 C 0.1415 0.46815 0.08473 0.0
C388 C 0.12814 0.46889 0.1084 0.0
C389 C 0.16783 0.5008 0.08136 0.0
C390 C 0.11838 0.45587 0.06323 0.0
C391 C 0.11542 0.42874 0.05148 0.0
C392 C 0.09559 0.4131 0.03105 0.0
C393 C 0.07825 0.42544 0.02242 0.0
C394 C 0.08081 0.45311 0.0342 0.0
C395 C 0.10118 0.46852 0.05485 0.0
H396 H 0.54098 0.71602 0.10349 0.0
H397 H 0.5989 0.78167 0.05597 0.0
H398 H 0.59033 0.73684 0.02723 0.0
H399 H 0.56071 0.65587 0.09284 0.0
H400 H 0.52348 0.62357 0.09344 0.0
H401 H 0.5353 0.66085 0.11051 0.0
H402 H 0.49161 0.66328 0.08883 0.0
H403 H 0.47988 0.62617 0.07151 0.0
H404 H 0.48742 0.66047 0.05636 0.0
H405 H 0.5769 0.68468 1.0046 0.0
H406 H 0.55799 0.62898 0.98898 0.0
H407 H 0.50539 0.59762 0.04952 0.0
C408 C 0.55204 0.72079 0.08713 0.0
C409 C 0.57088 0.75209 0.08194 0.0
C410 C 0.58458 0.75772 0.06021 0.0
C411 C 0.57979 0.73247 0.04383 0.0
C412 C 0.56083 0.70179 0.04931 0.0
C413 C 0.54702 0.69585 0.07036 0.0
C414 C 0.527 0.66073 0.07159 0.0
C415 C 0.53724 0.64961 0.09338 0.0
C416 C 0.49455 0.65217 0.07209 0.0
C417 C 0.5319 0.64785 0.04805 0.0
C418 C 0.55169 0.67188 0.03555 0.0
C419 C 0.56104 0.66567 0.01404 0.0
C420 C 0.55017 0.63406 0.00526 0.0
C421 C 0.52974 0.60917 0.01773 0.0
C422 C 0.52026 0.61624 0.03922 0.0
H423 H 0.83482 0.30545 0.90801 0.0
H424 H 0.83239 0.23803 0.95589 0.0
H425 H 0.86762 0.28208 0.98587 0.0
H426 H 0.91132 0.36247 0.9205 0.0
H427 H 0.90621 0.39603 0.91923 0.0
H428 H 0.88043 0.35916 0.90201 0.0
H429 H 0.83723 0.3592 0.92247 0.0
H430 H 0.86298 0.39601 0.93985 0.0
H431 H 0.83851 0.36233 0.9549 0.0
H432 H 0.90625 0.33374 0.00906 0.0
H433 H 0.9433 0.3889 0.02443 0.0
H434 H 0.91747 0.42215 0.96256 0.0
C435 C 0.84173 0.30003 0.92483 0.0
C436 C 0.83105 0.26843 0.92968 0.0
C437 C 0.84028 0.26214 0.95195 0.0
C438 C 0.86027 0.28697 0.96902 0.0
C439 C 0.87044 0.3179 0.96367 0.0
C440 C 0.86127 0.32449 0.94219 0.0
C441 C 0.87554 0.35974 0.94077 0.0
C442 C 0.8945 0.36994 0.91937 0.0
C443 C 0.85216 0.36991 0.93942 0.0
C444 C 0.89455 0.37198 0.96462 0.0
C445 C 0.89145 0.34753 0.97754 0.0
C446 C 0.90846 0.35309 0.99931 0.0
C447 C 0.92941 0.38443 0.0079 0.0
C448 C 0.93278 0.40975 0.99494 0.0
C449 C 0.91477 0.40334 0.97323 0.0
H450 H 0.73489 0.61964 0.91242 0.0
H451 H 0.75986 0.55664 0.9443 0.0
H452 H 0.71715 0.53705 0.96788 0.0
H453 H 0.70757 0.63888 0.96349 0.0
H454 H 0.6761 0.63729 0.94728 0.0
H455 H 0.70881 0.64704 0.93238 0.0
H456 H 0.67764 0.6012 0.89902 0.0
H457 H 0.64475 0.59151 0.91367 0.0
H458 H 0.65469 0.5618 0.90733 0.0
H459 H 0.67488 0.52706 0.99046 0.0
H460 H 0.6299 0.52112 0.00681 0.0
H461 H 0.62768 0.58567 0.95803 0.0
C462 C 0.73118 0.60146 0.92411 0.0
C463 C 0.75151 0.59055 0.92701 0.0
C464 C 0.74552 0.56649 0.94243 0.0
C465 C 0.72109 0.5549 0.9558 0.0
C466 C 0.70217 0.56687 0.95318 0.0
C467 C 0.70634 0.58899 0.93734 0.0
C468 C 0.6818 0.59693 0.93767 0.0
C469 C 0.69433 0.63213 0.94569 0.0
C470 C 0.66364 0.58728 0.91295 0.0
C471 C 0.66373 0.57628 0.95653 0.0
C472 C 0.67621 0.55943 0.96532 0.0
C473 C 0.6646 0.53976 0.98354 0.0
C474 C 0.63917 0.53671 0.99281 0.0
C475 C 0.62535 0.55285 0.98362 0.0
C476 C 0.63781 0.57297 0.96527 0.0
H477 H 0.41574 0.13651 0.92211 0.0
H478 H 0.50327 0.21653 0.91767 0.0
H479 H 0.52571 0.18752 0.93529 0.0
H480 H 0.43121 0.11724 0.97873 0.0
H481 H 0.40921 0.07501 0.97192 0.0
H482 H 0.39962 0.10032 0.95653 0.0
H483 H 0.40226 0.07526 0.91519 0.0
H484 H 0.41141 0.04954 0.93053 0.0
H485 H 0.43536 0.07436 0.90947 0.0
H486 H 0.53873 0.15142 0.9547 0.0
H487 H 0.54186 0.11005 0.97528 0.0
H488 H 0.44599 0.05362 0.96931 0.0
C489 C 0.4396 0.14751 0.92444 0.0
C490 C 0.45789 0.17861 0.91846 0.0
C491 C 0.48901 0.19267 0.92214 0.0
C492 C 0.50191 0.17639 0.93208 0.0
C493 C 0.48336 0.14608 0.93835 0.0
C494 C 0.4529 0.13163 0.93464 0.0
C495 C 0.43822 0.09947 0.94423 0.0
C496 C 0.4184 0.09794 0.96403 0.0
C497 C 0.42078 0.0731 0.92362 0.0
C498 C 0.46516 0.09857 0.95445 0.0
C499 C 0.49094 0.12553 0.95048 0.0
C500 C 0.51871 0.13018 0.95793 0.0
C501 C 0.52025 0.10654 0.96962 0.0
C502 C 0.49417 0.07874 0.97405 0.0
C503 C 0.46627 0.07482 0.96645 0.0
H504 H 0.72799 0.19703 0.93354 0.0
H505 H 0.73582 0.12947 0.88534 0.0
H506 H 0.69108 0.08606 0.89972 0.0
H507 H 0.70719 0.1504 0.98297 0.0
H508 H 0.682 0.16289 0.99244 0.0
H509 H 0.71325 0.18877 0.97704 0.0
H510 H 0.67825 0.1929 0.94473 0.0
H511 H 0.64689 0.16717 0.96011 0.0
H512 H 0.6481 0.15734 0.92874 0.0
H513 H 0.646 0.04972 0.92047 0.0
H514 H 0.6044 0.02376 0.94569 0.0
H515 H 0.62816 0.11509 0.98167 0.0
C516 C 0.72045 0.17313 0.926 0.0
C517 C 0.73558 0.16679 0.90827 0.0
C518 C 0.72447 0.1351 0.89866 0.0
C519 C 0.69917 0.11023 0.90685 0.0
C520 C 0.68523 0.11736 0.9247 0.0
C521 C 0.69548 0.14807 0.93411 0.0
C522 C 0.67709 0.14947 0.95363 0.0
C523 C 0.69602 0.16372 0.97795 0.0
C524 C 0.66167 0.1678 0.94636 0.0
C525 C 0.65502 0.11469 0.95394 0.0
C526 C 0.65991 0.09652 0.937 0.0
C527 C 0.64206 0.06373 0.93383 0.0
C528 C 0.61858 0.04919 0.94827 0.0
C529 C 0.61335 0.06743 0.96575 0.0
C530 C 0.63188 0.10056 0.96861 0.0
H531 H 0.85221 0.57738 0.90257 0.0
H532 H 0.86284 0.64996 0.95682 0.0
H533 H 0.89972 0.64292 0.98108 0.0
H534 H 0.85289 0.52652 0.94294 0.0
H535 H 0.87258 0.51238 0.92545 0.0
H536 H 0.8506 0.52632 0.91059 0.0
H537 H 0.89617 0.56656 0.89046 0.0
H538 H 0.9182 0.55241 0.90506 0.0
H539 H 0.92981 0.5938 0.90897 0.0
H540 H 0.93191 0.62486 1.00087 0.0
H541 H 0.95716 0.59677 0.01503 0.0
H542 H 0.92389 0.53437 0.9486 0.0
C543 C 0.8631 0.59244 0.91918 0.0
C544 C 0.85531 0.61462 0.92775 0.0
C545 C 0.869 0.63318 0.94995 0.0
C546 C 0.88988 0.62932 0.96378 0.0
C547 C 0.8966 0.60666 0.95516 0.0
C548 C 0.88369 0.58856 0.93334 0.0
C549 C 0.89267 0.56387 0.92926 0.0
C550 C 0.86557 0.5303 0.92694 0.0
C551 C 0.91027 0.56952 0.90713 0.0
C552 C 0.91217 0.57053 0.95237 0.0
C553 C 0.91444 0.59554 0.96693 0.0
C554 C 0.93052 0.60542 0.98954 0.0
C555 C 0.94468 0.58931 0.99746 0.0
C556 C 0.94234 0.56348 0.9829 0.0
C557 C 0.926 0.5541 0.96006 0.0
H558 H 0.41689 0.28184 0.9244 0.0
H559 H 0.50139 0.28572 0.9353 0.0
H560 H 0.5215 0.33539 0.96121 0.0
H561 H 0.44995 0.36692 0.92073 0.0
H562 H 0.42141 0.36939 0.93559 0.0
H563 H 0.41298 0.33328 0.91827 0.0
H564 H 0.39326 0.30287 0.95567 0.0
H565 H 0.40219 0.33903 0.9732 0.0
H566 H 0.41704 0.31518 0.98344 0.0
H567 H 0.53287 0.3835 0.98628 0.0
H568 H 0.53733 0.4325 1.0049 0.0
H569 H 0.44689 0.40077 0.97716 0.0
C570 C 0.43967 0.29328 0.93209 0.0
C571 C 0.45723 0.27921 0.92831 0.0
C572 C 0.48707 0.29526 0.93855 0.0
C573 C 0.49882 0.32363 0.95327 0.0
C574 C 0.48072 0.33623 0.95734 0.0
C575 C 0.45203 0.32211 0.94671 0.0
C576 C 0.43815 0.34199 0.95327 0.0
C577 C 0.43016 0.35358 0.93062 0.0
C578 C 0.41105 0.32366 0.96723 0.0
C579 C 0.46351 0.36918 0.96935 0.0
C580 C 0.48769 0.36504 0.97152 0.0
C581 C 0.51412 0.38709 0.98475 0.0
C582 C 0.51639 0.41479 0.99535 0.0
C583 C 0.49243 0.42036 0.99264 0.0
C584 C 0.46535 0.39685 0.97998 0.0
H585 H 0.14078 0.73159 0.08857 0.0
H586 H 0.22263 0.73579 0.07251 0.0
H587 H 0.19419 0.68525 0.0468 0.0
H588 H 0.09999 0.64978 0.09346 0.0
H589 H 0.0656 0.64412 0.07962 0.0
H590 H 0.09244 0.6818 0.0952 0.0
H591 H 0.09274 0.70908 0.05678 0.0
H592 H 0.06588 0.67141 0.04106 0.0
H593 H 0.10045 0.6957 0.0288 0.0
H594 H 0.1569 0.63177 0.02641 0.0
H595 H 0.11326 0.5803 0.01107 0.0
H596 H 0.05565 0.61174 0.0389 0.0
C597 C 0.15269 0.72199 0.07945 0.0
C598 C 0.18393 0.73767 0.08245 0.0
C599 C 0.19873 0.7244 0.07019 0.0
C600 C 0.18277 0.69565 0.05563 0.0
C601 C 0.15201 0.68061 0.05328 0.0
C602 C 0.1371 0.69344 0.06466 0.0
C603 C 0.10392 0.67194 0.05981 0.0
C604 C 0.08966 0.66128 0.08342 0.0
C605 C 0.08993 0.688 0.04577 0.0
C606 C 0.1025 0.64472 0.04438 0.0
C607 C 0.13049 0.65017 0.04084 0.0
C608 C 0.13486 0.62745 0.02867 0.0
C609 C 0.10998 0.59829 0.02008 0.0
C610 C 0.08111 0.59225 0.02346 0.0
C611 C 0.07742 0.616 0.03549 0.0
H612 H 0.282 0.46215 0.08263 0.0
H613 H 0.27498 0.38176 0.11681 0.0
H614 H 0.31849 0.38778 0.09778 0.0
H615 H 0.3021 0.44316 0.026 0.0
H616 H 0.32748 0.48367 0.02141 0.0
H617 H 0.29638 0.47416 0.03848 0.0
H618 H 0.33173 0.51249 0.07463 0.0
H619 H 0.36291 0.52226 0.05762 0.0
H620 H 0.36178 0.50786 0.08672 0.0
H621 H 0.36249 0.40207 0.07533 0.0
H622 H 0.40474 0.42403 0.05075 0.0
H623 H 0.38249 0.49354 0.02895 0.0
C624 C 0.2895 0.4457 0.08607 0.0
C625 C 0.27504 0.42163 0.10152 0.0
C626 C 0.28591 0.40086 0.10559 0.0
C627 C 0.3105 0.40388 0.09465 0.0
C628 C 0.324 0.42764 0.07947 0.0
C629 C 0.31395 0.44821 0.07512 0.0
C630 C 0.33245 0.47148 0.05779 0.0
C631 C 0.31347 0.46789 0.03454 0.0
C632 C 0.34815 0.50554 0.06992 0.0
C633 C 0.3544 0.46067 0.05305 0.0
C634 C 0.3491 0.43541 0.06587 0.0
C635 C 0.36676 0.42172 0.0651 0.0
C636 C 0.39068 0.43433 0.05105 0.0
C637 C 0.39665 0.46022 0.03777 0.0
C638 C 0.37811 0.4734 0.03863 0.0
H639 H 0.58198 0.85856 0.06663 0.0
H640 H 0.52662 0.8338 0.12574 0.0
H641 H 0.50585 0.86627 0.11179 0.0
H642 H 0.59916 0.93967 0.06941 0.0
H643 H 0.59913 0.94125 0.03724 0.0
H644 H 0.60878 0.91513 0.0513 0.0
H645 H 0.56792 0.86771 0.02305 0.0
H646 H 0.55813 0.8937 0.00894 0.0
H647 H 0.53038 0.85981 0.02189 0.0
H648 H 0.49004 0.89961 0.09075 0.0
H649 H 0.48359 0.93648 0.06666 0.0
H650 H 0.55127 0.94235 0.02215 0.0
C651 C 0.56538 0.85995 0.07649 0.0
C652 C 0.55563 0.84363 0.09712 0.0
C653 C 0.53426 0.84622 0.1099 0.0
C654 C 0.52231 0.86446 0.10206 0.0
C655 C 0.53231 0.88025 0.08162 0.0
C656 C 0.55362 0.87855 0.06917 0.0
C657 C 0.56139 0.89898 0.04838 0.0
C658 C 0.59405 0.92532 0.0518 0.0
C659 C 0.554 0.87884 0.02413 0.0
C660 C 0.54097 0.91226 0.05102 0.0
C661 C 0.52418 0.90081 0.07013 0.0
C662 C 0.50322 0.90896 0.07585 0.0
C663 C 0.49964 0.92983 0.06194 0.0
C664 C 0.51695 0.94238 0.04249 0.0
C665 C 0.53787 0.93337 0.037 0.0
H666 H 0.94135 0.14771 0.41189 0.0
H667 H 0.93272 0.21555 0.45909 0.0
H668 H 0.97625 0.25904 0.4434 0.0
H669 H 0.02068 0.18873 0.41543 0.0
H670 H 0.02156 0.17814 0.38416 0.0
H671 H 0.99071 0.15253 0.40006 0.0
H672 H 0.9547 0.15493 0.36771 0.0
H673 H 0.98544 0.18065 0.35176 0.0
H674 H 0.95994 0.19277 0.36108 0.0
H675 H 0.02097 0.29531 0.42205 0.0
H676 H 0.06255 0.32097 0.39674 0.0
H677 H 0.03933 0.22924 0.36193 0.0
C678 C 0.94833 0.17168 0.41887 0.0
C679 C 0.93339 0.17805 0.43677 0.0
C680 C 0.94391 0.20988 0.44565 0.0
C681 C 0.96852 0.2348 0.43671 0.0
C682 C 0.98234 0.22757 0.41879 0.0
C683 C 0.97256 0.19675 0.40998 0.0
C684 C 0.99081 0.19518 0.39041 0.0
C685 C 0.00689 0.17761 0.39798 0.0
C686 C 0.97157 0.17999 0.36631 0.0
C687 C 0.01236 0.22997 0.38945 0.0
C688 C 0.0073 0.24832 0.40607 0.0
C689 C 0.02497 0.28115 0.40888 0.0
C690 C 0.04845 0.29552 0.3944 0.0
C691 C 0.05383 0.27708 0.37721 0.0
C692 C 0.03544 0.24394 0.37469 0.0
H693 H 0.86645 0.7861 0.40749 0.0
H694 H 0.80458 0.69887 0.43575 0.0
H695 H 0.76294 0.70375 0.41866 0.0
H696 H 0.82994 0.82693 0.41959 0.0
H697 H 0.83672 0.8466 0.39242 0.0
H698 H 0.86198 0.83484 0.40424 0.0
H699 H 0.85517 0.80269 0.36356 0.0
H700 H 0.8302 0.81475 0.35144 0.0
H701 H 0.81846 0.77338 0.35075 0.0
H702 H 0.72913 0.72163 0.4045 0.0
H703 H 0.70341 0.74823 0.38877 0.0
H704 H 0.78583 0.82227 0.3667 0.0
C705 C 0.84409 0.76758 0.40939 0.0
C706 C 0.83866 0.74224 0.42307 0.0
C707 C 0.80916 0.71868 0.42558 0.0
C708 C 0.78539 0.72117 0.41587 0.0
C709 C 0.79147 0.74707 0.40337 0.0
C710 C 0.81997 0.76957 0.39961 0.0
C711 C 0.82018 0.7958 0.38641 0.0
C712 C 0.83828 0.82793 0.40158 0.0
C713 C 0.83168 0.79669 0.36156 0.0
C714 C 0.78746 0.78494 0.38408 0.0
C715 C 0.77143 0.7568 0.39409 0.0
C716 C 0.74125 0.74326 0.39607 0.0
C717 C 0.72692 0.75865 0.38729 0.0
C718 C 0.74269 0.78701 0.37639 0.0
C719 C 0.7733 0.80029 0.37464 0.0
H720 H 0.18851 0.0424 0.42635 0.0
H721 H 0.27568 0.10634 0.40569 0.0
H722 H 0.2738 0.06251 0.37966 0.0
H723 H 0.19866 0.97673 0.4303 0.0
H724 H 0.16164 0.94714 0.41827 0.0
H725 H 0.16831 0.98347 0.43405 0.0
H726 H 0.14463 0.9956 0.39765 0.0
H727 H 0.13673 0.95894 0.38157 0.0
H728 H 0.15753 0.99554 0.36838 0.0
H729 H 0.26237 0.01152 0.35635 0.0
H730 H 0.24388 0.95673 0.33929 0.0
H731 H 0.16421 0.92582 0.37582 0.0
C732 C 0.20709 0.047 0.41624 0.0
C733 C 0.23226 0.07745 0.41782 0.0
C734 C 0.2563 0.08297 0.40457 0.0
C735 C 0.25534 0.05832 0.38974 0.0
C736 C 0.23013 0.02842 0.38845 0.0
C737 C 0.20649 0.02265 0.40143 0.0
C738 C 0.1825 0.98818 0.39757 0.0
C739 C 0.17748 0.97296 0.42145 0.0
C740 C 0.15364 0.98436 0.38558 0.0
C741 C 0.19643 0.97539 0.38054 0.0
C742 C 0.22376 0.99902 0.37533 0.0
C743 C 0.24096 0.99284 0.36025 0.0
C744 C 0.23019 0.9616 0.35056 0.0
C745 C 0.20249 0.93685 0.35606 0.0
C746 C 0.18533 0.94411 0.37103 0.0
H747 H 0.50796 0.62062 0.24061 0.0
H748 H 0.4968 0.56317 0.29961 0.0
H749 H 0.53201 0.61121 0.32633 0.0
H750 H 0.58485 0.67232 0.25477 0.0
H751 H 0.58519 0.70727 0.24657 0.0
H752 H 0.55773 0.66931 0.23185 0.0
H753 H 0.51521 0.6775 0.24389 0.0
H754 H 0.54153 0.71622 0.25824 0.0
H755 H 0.51354 0.68778 0.27506 0.0
H756 H 0.57109 0.66516 0.34562 0.0
H757 H 0.60867 0.72145 0.35682 0.0
H758 H 0.59207 0.74377 0.28585 0.0
C759 C 0.51294 0.61813 0.25915 0.0
C760 C 0.49981 0.58819 0.26806 0.0
C761 C 0.50656 0.58594 0.2925 0.0
C762 C 0.52656 0.61304 0.30775 0.0
C763 C 0.53931 0.64218 0.29831 0.0
C764 C 0.53257 0.64489 0.27463 0.0
C765 C 0.5497 0.67878 0.26873 0.0
C766 C 0.57057 0.68212 0.24933 0.0
C767 C 0.52875 0.69077 0.26103 0.0
C768 C 0.56682 0.69493 0.29292 0.0
C769 C 0.56088 0.67332 0.30965 0.0
C770 C 0.57554 0.68234 0.3328 0.0
C771 C 0.59681 0.71425 0.33899 0.0
C772 C 0.60267 0.73674 0.32228 0.0
C773 C 0.58734 0.727 0.29905 0.0
H774 H 0.38336 0.91269 0.22304 0.0
H775 H 0.44727 0.93544 0.28462 0.0
H776 H 0.40857 0.92396 0.31196 0.0
H777 H 0.34203 0.94631 0.25245 0.0
H778 H 0.30685 0.91566 0.23789 0.0
H779 H 0.34001 0.92768 0.22306 0.0
H780 H 0.32853 0.8698 0.21868 0.0
H781 H 0.29554 0.85761 0.23371 0.0
H782 H 0.32323 0.84896 0.24516 0.0
H783 H 0.36262 0.9049 0.33233 0.0
H784 H 0.31243 0.8846 0.34507 0.0
H785 H 0.27828 0.87731 0.2711 0.0
C786 C 0.38933 0.91599 0.2423 0.0
C787 C 0.41829 0.92465 0.25169 0.0
C788 C 0.42514 0.9283 0.277 0.0
C789 C 0.40335 0.92198 0.29269 0.0
C790 C 0.37486 0.91248 0.28286 0.0
C791 C 0.36782 0.91 0.25831 0.0
C792 C 0.33518 0.89848 0.25255 0.0
C793 C 0.33077 0.92354 0.2408 0.0
C794 C 0.31972 0.86684 0.23658 0.0
C795 C 0.32502 0.89442 0.27767 0.0
C796 C 0.3483 0.90247 0.29483 0.0
C797 C 0.34427 0.899 0.31914 0.0
C798 C 0.3157 0.8873 0.32618 0.0
C799 C 0.29165 0.87958 0.30902 0.0
C800 C 0.2964 0.8833 0.2845 0.0
H801 H 0.0907 0.46919 0.2486 0.0
H802 H 0.17875 0.55139 0.25371 0.0
H803 H 0.19877 0.522 0.2746 0.0
H804 H 0.09639 0.44686 0.30626 0.0
H805 H 0.0757 0.40491 0.29759 0.0
H806 H 0.06866 0.43105 0.28083 0.0
H807 H 0.07857 0.4089 0.24149 0.0
H808 H 0.08587 0.38262 0.25791 0.0
H809 H 0.11315 0.40969 0.23982 0.0
H810 H 0.20881 0.48425 0.29579 0.0
H811 H 0.20828 0.441 0.31659 0.0
H812 H 0.11314 0.38439 0.29981 0.0
C813 C 0.11429 0.48068 0.25363 0.0
C814 C 0.13333 0.51236 0.24935 0.0
C815 C 0.16393 0.52704 0.25676 0.0
C816 C 0.17544 0.51055 0.26859 0.0
C817 C 0.15598 0.47953 0.27302 0.0
C818 C 0.12607 0.4647 0.26575 0.0
C819 C 0.10973 0.4318 0.27384 0.0
C820 C 0.08624 0.42848 0.29063 0.0
C821 C 0.09602 0.40676 0.25197 0.0
C822 C 0.135 0.43073 0.28731 0.0
C823 C 0.16156 0.4583 0.28625 0.0
C824 C 0.18814 0.46261 0.29683 0.0
C825 C 0.1876 0.43797 0.30863 0.0
C826 C 0.16061 0.40964 0.31012 0.0
C827 C 0.13398 0.4061 0.29942 0.0
H828 H 0.41318 0.49067 0.28773 0.0
H829 H 0.38017 0.48058 0.21263 0.0
H830 H 0.33051 0.44164 0.2218 0.0
H831 H 0.36658 0.41077 0.30064 0.0
H832 H 0.35984 0.42122 0.33016 0.0
H833 H 0.39384 0.44715 0.31779 0.0
H834 H 0.38342 0.49327 0.32373 0.0
H835 H 0.34953 0.46757 0.33632 0.0
H836 H 0.34886 0.48827 0.31092 0.0
H837 H 0.28475 0.40274 0.23818 0.0
H838 H 0.24372 0.37119 0.26227 0.0
H839 H 0.30393 0.41018 0.32763 0.0
C840 C 0.39557 0.48048 0.27319 0.0
C841 C 0.40116 0.48815 0.24924 0.0
C842 C 0.37712 0.47425 0.23091 0.0
C843 C 0.34859 0.45223 0.23595 0.0
C844 C 0.34406 0.4448 0.25954 0.0
C845 C 0.36663 0.45893 0.27799 0.0
C846 C 0.3551 0.44803 0.30203 0.0
C847 C 0.36972 0.43077 0.31331 0.0
C848 C 0.35949 0.47595 0.31927 0.0
C849 C 0.32261 0.42548 0.29406 0.0
C850 C 0.31693 0.42369 0.26938 0.0
C851 C 0.28883 0.40404 0.25754 0.0
C852 C 0.26572 0.38609 0.27135 0.0
C853 C 0.27076 0.38832 0.29672 0.0
C854 C 0.29958 0.40815 0.30823 0.0
H855 H 0.50511 0.92084 0.2718 0.0
H856 H 0.49952 0.88421 0.19781 0.0
H857 H 0.53316 0.86501 0.21048 0.0
H858 H 0.58102 0.94648 0.28759 0.0
H859 H 0.57565 0.93489 0.31778 0.0
H860 H 0.55133 0.9459 0.30283 0.0
H861 H 0.506 0.8922 0.30978 0.0
H862 H 0.53016 0.88104 0.32483 0.0
H863 H 0.50476 0.85607 0.29942 0.0
H864 H 0.56787 0.85042 0.23122 0.0
H865 H 0.60026 0.84047 0.2586 0.0
H866 H 0.58149 0.88481 0.31927 0.0
C867 C 0.51061 0.90843 0.25825 0.0
C868 C 0.49962 0.90405 0.23378 0.0
C869 C 0.50792 0.88822 0.2166 0.0
C870 C 0.52687 0.87707 0.22365 0.0
C871 C 0.53722 0.88181 0.24793 0.0
C872 C 0.52928 0.897 0.26498 0.0
C873 C 0.54336 0.89904 0.28993 0.0
C874 C 0.56407 0.93363 0.30012 0.0
C875 C 0.51965 0.881 0.30699 0.0
C876 C 0.56056 0.88265 0.28429 0.0
C877 C 0.55679 0.87298 0.25994 0.0
C878 C 0.57085 0.85775 0.25031 0.0
C879 C 0.58918 0.85221 0.266 0.0
C880 C 0.59316 0.86175 0.29101 0.0
C881 C 0.57866 0.87714 0.30024 0.0
H882 H 0.15892 0.63631 0.24868 0.0
H883 H 0.07401 0.57549 0.27462 0.0
H884 H 0.07951 0.62057 0.30129 0.0
H885 H 0.19603 0.68534 0.30501 0.0
H886 H 0.21551 0.7213 0.29075 0.0
H887 H 0.20565 0.68398 0.27463 0.0
H888 H 0.17877 0.69546 0.24016 0.0
H889 H 0.18737 0.73245 0.25607 0.0
H890 H 0.14945 0.70304 0.24641 0.0
H891 H 0.09395 0.6716 0.32477 0.0
H892 H 0.11427 0.72664 0.3416 0.0
H893 H 0.18941 0.75572 0.29943 0.0
C894 C 0.14165 0.63268 0.2601 0.0
C895 C 0.11608 0.60268 0.25985 0.0
C896 C 0.09368 0.59847 0.27472 0.0
C897 C 0.0967 0.62383 0.28993 0.0
C898 C 0.12219 0.6532 0.28987 0.0
C899 C 0.14418 0.6579 0.27522 0.0
C900 C 0.16858 0.69228 0.2778 0.0
C901 C 0.19819 0.69593 0.28764 0.0
C902 C 0.1712 0.70668 0.25369 0.0
C903 C 0.15682 0.70612 0.29619 0.0
C904 C 0.13019 0.68304 0.30304 0.0
C905 C 0.1148 0.68991 0.31958 0.0
C906 C 0.12661 0.72132 0.32908 0.0
C907 C 0.15354 0.74563 0.32195 0.0
C908 C 0.16898 0.73772 0.3055 0.0
H909 H 0.84448 0.03778 0.43975 0.0
H910 H 0.83186 0.10064 0.39572 0.0
H911 H 0.79454 0.05467 0.36822 0.0
H912 H 0.83609 0.98167 0.38814 0.0
H913 H 0.81786 0.94788 0.40495 0.0
H914 H 0.84477 0.98579 0.4203 0.0
H915 H 0.80617 0.98315 0.44884 0.0
H916 H 0.78023 0.94493 0.4337 0.0
H917 H 0.77065 0.97549 0.43589 0.0
H918 H 0.75591 1.00204 0.34783 0.0
H919 H 0.71991 0.94636 0.33439 0.0
H920 H 0.75861 0.91703 0.39078 0.0
C921 C 0.83397 0.04174 0.42417 0.0
C922 C 0.84082 0.07258 0.41977 0.0
C923 C 0.82691 0.07712 0.39922 0.0
C924 C 0.80573 0.0512 0.38358 0.0
C925 C 0.7992 0.02101 0.38854 0.0
C926 C 0.81321 0.01617 0.40811 0.0
C927 C 0.80196 0.98129 0.40941 0.0
C928 C 0.82664 0.97372 0.40546 0.0
C929 C 0.78895 0.97063 0.4334 0.0
C930 C 0.77823 0.96713 0.38831 0.0
C931 C 0.77734 0.99054 0.37635 0.0
C932 C 0.75662 0.9835 0.35686 0.0
C933 C 0.73614 0.95173 0.34944 0.0
C934 C 0.73642 0.92723 0.36146 0.0
C935 C 0.75801 0.93515 0.38103 0.0
H936 H 0.94562 0.78968 0.40961 0.0
H937 H 0.93712 0.70953 0.44499 0.0
H938 H 0.9836 0.71795 0.43017 0.0
H939 H 0.97638 0.77486 0.35602 0.0
H940 H 1.00102 0.81624 0.35356 0.0
H941 H 0.96641 0.80347 0.36628 0.0
H942 H 0.99451 0.84124 0.40488 0.0
H943 H 0.02922 0.85393 0.39238 0.0
H944 H 0.02345 0.83816 0.42121 0.0
H945 H 0.03187 0.73659 0.41443 0.0
H946 H 0.07833 0.76201 0.39517 0.0
H947 H 0.05566 0.8289 0.36788 0.0
C948 C 0.95333 0.77362 0.41386 0.0
C949 C 0.93796 0.74919 0.42871 0.0
C950 C 0.94884 0.72879 0.43406 0.0
C951 C 0.97513 0.73326 0.42563 0.0
C952 C 0.99012 0.75799 0.41161 0.0
C953 C 0.97956 0.77762 0.40543 0.0
C954 C 1.00042 0.80258 0.39023 0.0
C955 C 0.98514 0.79907 0.36502 0.0
C956 C 0.01262 0.83595 0.40294 0.0
C957 C 0.02443 0.79402 0.38913 0.0
C958 C 0.01797 0.7683 0.40175 0.0
C959 C 0.03709 0.75654 0.40428 0.0
C960 C 0.06348 0.77125 0.39342 0.0
C961 C 0.07044 0.79733 0.38012 0.0
C962 C 0.05065 0.80884 0.37785 0.0
H963 H 0.24202 0.18672 0.40315 0.0
H964 H 0.1709 0.14372 0.4491 0.0
H965 H 0.14755 0.17202 0.43126 0.0
H966 H 0.24758 0.26304 0.40815 0.0
H967 H 0.25619 0.27038 0.37755 0.0
H968 H 0.26631 0.24559 0.39313 0.0
H969 H 0.23748 0.2005 0.35873 0.0
H970 H 0.22708 0.2251 0.34314 0.0
H971 H 0.19898 0.18691 0.35043 0.0
H972 H 0.13171 0.20406 0.40788 0.0
H973 H 0.12704 0.24241 0.38435 0.0
H974 H 0.21003 0.26698 0.3548 0.0
C975 C 0.22148 0.18329 0.40931 0.0
C976 C 0.20797 0.16301 0.42729 0.0
C977 C 0.18137 0.1592 0.43527 0.0
C978 C 0.16797 0.17503 0.42518 0.0
C979 C 0.18171 0.19478 0.40735 0.0
C980 C 0.20809 0.19934 0.39971 0.0
C981 C 0.21905 0.22318 0.38124 0.0
C982 C 0.24906 0.25227 0.39058 0.0
C983 C 0.22074 0.208 0.35694 0.0
C984 C 0.19468 0.23127 0.37962 0.0
C985 C 0.17319 0.21429 0.39459 0.0
C986 C 0.14845 0.21756 0.39615 0.0
C987 C 0.146 0.23945 0.38263 0.0
C988 C 0.1682 0.25789 0.36769 0.0
C989 C 0.19265 0.25332 0.366 0.0
H990 H 0.61726 0.4862 0.74336 0.0
H991 H 0.59625 0.55433 0.77553 0.0
H992 H 0.6389 0.59717 0.75836 0.0
H993 H 0.6966 0.53586 0.75203 0.0
H994 H 0.7022 0.52095 0.72373 0.0
H995 H 0.67065 0.49609 0.73926 0.0
H996 H 0.63587 0.48702 0.70108 0.0
H997 H 0.6673 0.51207 0.6855 0.0
H998 H 0.6378 0.52058 0.68794 0.0
H999 H 0.68339 0.63236 0.73698 0.0
H1000 H 0.72744 0.65747 0.71428 0.0
H1001 H 0.7181 0.56587 0.69519 0.0
C1002 C 0.6215 0.5101 0.74672 0.0
C1003 C 0.60333 0.51691 0.76072 0.0
C1004 C 0.61002 0.5486 0.76505 0.0
C1005 C 0.63406 0.57304 0.75524 0.0
C1006 C 0.65117 0.56537 0.74118 0.0
C1007 C 0.64528 0.53468 0.73704 0.0
C1008 C 0.66698 0.53263 0.72128 0.0
C1009 C 0.68518 0.52069 0.7349 0.0
C1010 C 0.65102 0.51185 0.69754 0.0
C1011 C 0.68592 0.56697 0.71702 0.0
C1012 C 0.6765 0.5855 0.72869 0.0
C1013 C 0.6909 0.61807 0.72772 0.0
C1014 C 0.7158 0.63209 0.71474 0.0
C1015 C 0.7259 0.61352 0.70286 0.0
C1016 C 0.7106 0.58054 0.70387 0.0
H1017 H 0.50835 0.09643 0.73675 0.0
H1018 H 0.49087 0.10228 0.81156 0.0
H1019 H 0.44937 0.10959 0.79894 0.0
H1020 H 0.4942 0.15816 0.72059 0.0
H1021 H 0.47754 0.13956 0.69069 0.0
H1022 H 0.50509 0.1328 0.70526 0.0
H1023 H 0.4685 0.07247 0.69903 0.0
H1024 H 0.44076 0.07906 0.68457 0.0
H1025 H 0.43269 0.05654 0.71028 0.0
H1026 H 0.40982 0.116 0.77898 0.0
H1027 H 0.37662 0.12579 0.75263 0.0
H1028 H 0.42092 0.11985 0.69076 0.0
C1029 C 0.49589 0.09936 0.75049 0.0
C1030 C 0.5026 0.09793 0.77515 0.0
C1031 C 0.48568 0.10207 0.79249 0.0
C1032 C 0.46212 0.10651 0.78555 0.0
C1033 C 0.45589 0.10733 0.7612 0.0
C1034 C 0.47242 0.10431 0.74391 0.0
C1035 C 0.46164 0.10761 0.71906 0.0
C1036 C 0.48607 0.13624 0.70827 0.0
C1037 C 0.45022 0.0771 0.70224 0.0
C1038 C 0.43655 0.11298 0.7252 0.0
C1039 C 0.43352 0.11236 0.74962 0.0
C1040 C 0.41196 0.11659 0.75982 0.0
C1041 C 0.39315 0.12203 0.7447 0.0
C1042 C 0.39624 0.12351 0.71972 0.0
C1043 C 0.4181 0.11874 0.70982 0.0
H1044 H 0.8699 0.38117 0.75983 0.0
H1045 H 0.95333 0.43877 0.73069 0.0
H1046 H 0.94714 0.39129 0.70667 0.0
H1047 H 0.87723 0.3126 0.765 0.0
H1048 H 0.83862 0.28477 0.75637 0.0
H1049 H 0.84972 0.32313 0.77116 0.0
H1050 H 0.82269 0.33366 0.7359 0.0
H1051 H 0.81136 0.2953 0.72094 0.0
H1052 H 0.83153 0.33012 0.70554 0.0
H1053 H 0.93129 0.33728 0.68577 0.0
H1054 H 0.90794 0.281 0.67034 0.0
H1055 H 0.83462 0.25913 0.71329 0.0
C1056 C 0.88685 0.38357 0.74845 0.0
C1057 C 0.91215 0.41327 0.74701 0.0
C1058 C 0.93391 0.41598 0.73193 0.0
C1059 C 0.93051 0.38923 0.71827 0.0
C1060 C 0.90518 0.36014 0.71994 0.0
C1061 C 0.88376 0.35716 0.7347 0.0
C1062 C 0.8586 0.32331 0.73324 0.0
C1063 C 0.8559 0.31018 0.7579 0.0
C1064 C 0.82932 0.32045 0.72331 0.0
C1065 C 0.86921 0.30765 0.71541 0.0
C1066 C 0.89606 0.32925 0.70788 0.0
C1067 C 0.91024 0.32017 0.69151 0.0
C1068 C 0.89675 0.28814 0.68279 0.0
C1069 C 0.86934 0.26557 0.69044 0.0
C1070 C 0.85544 0.27571 0.70686 0.0
H1071 H 0.19561 0.94484 0.58769 0.0
H1072 H 0.11451 0.94734 0.59226 0.0
H1073 H 0.14232 0.99881 0.61708 0.0
H1074 H 0.22747 0.97942 0.64855 0.0
H1075 H 0.26468 1.00157 0.64015 0.0
H1076 H 0.23831 0.96486 0.62296 0.0
H1077 H 0.24779 0.99331 0.58407 0.0
H1078 H 0.27398 0.03028 0.601 0.0
H1079 H 0.24295 0.02703 0.5828 0.0
H1080 H 0.17952 0.05145 0.63911 0.0
H1081 H 0.22315 0.10021 0.6589 0.0
H1082 H 0.27936 0.06182 0.64182 0.0
C1083 C 0.18377 0.95627 0.59396 0.0
C1084 C 0.15297 0.94225 0.58814 0.0
C1085 C 0.13809 0.95767 0.59676 0.0
C1086 C 0.15369 0.9869 0.61075 0.0
C1087 C 0.18408 1.00015 0.61613 0.0
C1088 C 0.19894 0.98524 0.60816 0.0
C1089 C 0.23164 0.00452 0.61646 0.0
C1090 C 0.24107 0.98652 0.63302 0.0
C1091 C 0.25017 0.01438 0.5948 0.0
C1092 C 0.23288 0.03264 0.63029 0.0
C1093 C 0.20527 0.02983 0.62969 0.0
C1094 C 0.20118 0.05372 0.64002 0.0
C1095 C 0.226 0.08126 0.6512 0.0
C1096 C 0.25436 0.08434 0.65228 0.0
C1097 C 0.25775 0.05962 0.64184 0.0
H1098 H 0.07308 0.24766 0.60775 0.0
H1099 H 0.03537 0.20308 0.53537 0.0
H1100 H 0.98519 0.17831 0.54907 0.0
H1101 H 0.02008 0.18336 0.64036 0.0
H1102 H 0.019 0.20992 0.66343 0.0
H1103 H 0.05206 0.22196 0.64843 0.0
H1104 H 0.05086 0.27147 0.63639 0.0
H1105 H 0.01785 0.25961 0.65134 0.0
H1106 H 0.01805 0.2667 0.62002 0.0
H1107 H 0.93927 0.16012 0.57012 0.0
H1108 H 0.90036 0.15202 0.5966 0.0
H1109 H 0.96755 0.20985 0.65513 0.0
C1110 C 0.05423 0.23225 0.59494 0.0
C1111 C 0.05797 0.22707 0.57055 0.0
C1112 C 0.03286 0.20734 0.55412 0.0
C1113 C 0.00435 0.19307 0.56176 0.0
C1114 C 1.00136 0.19889 0.58587 0.0
C1115 C 0.02558 0.21811 0.60222 0.0
C1116 C 0.0161 0.22217 0.62671 0.0
C1117 C 0.02748 0.20853 0.64586 0.0
C1118 C 0.02632 0.25706 0.63403 0.0
C1119 C 0.98277 0.20256 0.62151 0.0
C1120 C 0.97478 0.18903 0.59791 0.0
C1121 C 0.94527 0.1705 0.58865 0.0
C1122 C 0.92335 0.1661 0.60379 0.0
C1123 C 0.93104 0.1805 0.62778 0.0
C1124 C 0.96111 0.19851 0.63686 0.0
H1125 H 0.75137 0.79635 0.58759 0.0
H1126 H 0.83337 0.88623 0.59513 0.0
H1127 H 0.85865 0.86223 0.61653 0.0
H1128 H 0.75987 0.7753 0.64572 0.0
H1129 H 0.74387 0.73376 0.63661 0.0
H1130 H 0.73282 0.75702 0.61989 0.0
H1131 H 0.74731 0.73977 0.58056 0.0
H1132 H 0.75804 0.71613 0.59715 0.0
H1133 H 0.78405 0.74567 0.57971 0.0
H1134 H 0.87473 0.82849 0.63782 0.0
H1135 H 0.88006 0.78797 0.65819 0.0
H1136 H 0.7868 0.72098 0.63897 0.0
C1137 C 0.77478 0.81072 0.59332 0.0
C1138 C 0.79057 0.84303 0.58949 0.0
C1139 C 0.821 0.86138 0.59779 0.0
C1140 C 0.8355 0.84796 0.60994 0.0
C1141 C 0.8192 0.81618 0.61387 0.0
C1142 C 0.7895 0.79778 0.60582 0.0
C1143 C 0.77672 0.7647 0.61351 0.0
C1144 C 0.75185 0.75727 0.62991 0.0
C1145 C 0.7659 0.74012 0.59141 0.0
C1146 C 0.80374 0.76748 0.62736 0.0
C1147 C 0.82812 0.79722 0.62709 0.0
C1148 C 0.85575 0.80516 0.63823 0.0
C1149 C 0.85856 0.78202 0.6498 0.0
C1150 C 0.83379 0.75148 0.65052 0.0
C1151 C 0.80604 0.74431 0.63919 0.0
H1152 H 0.08254 0.84808 0.61338 0.0
H1153 H 0.04643 0.80463 0.54006 0.0
H1154 H 1.00332 0.7619 0.55622 0.0
H1155 H 0.05397 0.7795 0.64511 0.0
H1156 H 0.04454 0.79693 0.66988 0.0
H1157 H 0.07488 0.82159 0.65311 0.0
H1158 H 0.05089 0.85541 0.64411 0.0
H1159 H 0.02064 0.83108 0.66104 0.0
H1160 H 0.0134 0.83636 0.63024 0.0
H1161 H 0.96373 0.72336 0.58081 0.0
H1162 H 0.92766 0.69738 0.6103 0.0
H1163 H 0.98489 0.77247 0.66578 0.0
C1164 C 0.06564 0.83025 0.60029 0.0
C1165 C 0.06863 0.83052 0.57511 0.0
C1166 C 0.04572 0.80526 0.55938 0.0
C1167 C 0.02079 0.78078 0.5684 0.0
C1168 C 0.01853 0.78206 0.59317 0.0
C1169 C 0.04008 0.80658 0.60879 0.0
C1170 C 0.03105 0.80454 0.63427 0.0
C1171 C 0.05239 0.80039 0.65161 0.0
C1172 C 0.02886 0.83356 0.64292 0.0
C1173 C 1.00089 0.77493 0.63061 0.0
C1174 C 0.99449 0.76179 0.6069 0.0
C1175 C 0.96842 0.73367 0.59932 0.0
C1176 C 0.94812 0.71905 0.61624 0.0
C1177 C 0.9534 0.73317 0.64021 0.0
C1178 C 0.98026 0.76133 0.64752 0.0
H1179 H 0.15401 0.2475 0.61198 0.0
H1180 H 0.17659 0.24595 0.53831 0.0
H1181 H 0.21699 0.23753 0.55208 0.0
H1182 H 0.22796 0.28584 0.64151 0.0
H1183 H 0.21834 0.26178 0.66636 0.0
H1184 H 0.19131 0.26892 0.65124 0.0
H1185 H 0.15515 0.20867 0.64277 0.0
H1186 H 0.18199 0.20135 0.65801 0.0
H1187 H 0.16719 0.18434 0.62747 0.0
H1188 H 0.25554 0.2309 0.57295 0.0
H1189 H 0.28786 0.22076 0.59995 0.0
H1190 H 0.23933 0.22206 0.66017 0.0
C1191 C 0.16738 0.24527 0.59876 0.0
C1192 C 0.16255 0.24842 0.57412 0.0
C1193 C 0.18043 0.24496 0.5574 0.0
C1194 C 0.20337 0.23988 0.56498 0.0
C1195 C 0.20795 0.23763 0.58932 0.0
C1196 C 0.1903 0.23967 0.60598 0.0
C1197 C 0.19961 0.23505 0.63095 0.0
C1198 C 0.20992 0.26467 0.64855 0.0
C1199 C 0.17449 0.2056 0.64035 0.0
C1200 C 0.22528 0.23028 0.62556 0.0
C1201 C 0.22974 0.23222 0.60142 0.0
C1202 C 0.25224 0.22916 0.59189 0.0
C1203 C 0.27055 0.22353 0.60739 0.0
C1204 C 0.26603 0.22065 0.63208 0.0
C1205 C 0.24319 0.22419 0.64133 0.0
H1206 H 0.81012 0.9556 0.59737 0.0
H1207 H 0.7152 0.90306 0.60039 0.0
H1208 H 0.71816 0.94854 0.62485 0.0
H1209 H 0.83077 0.99693 0.65698 0.0
H1210 H 0.85943 0.0334 0.64759 0.0
H1211 H 0.84996 0.99631 0.63131 0.0
H1212 H 0.84019 0.0159 0.59162 0.0
H1213 H 0.84972 0.05309 0.60772 0.0
H1214 H 0.8144 0.03002 0.59019 0.0
H1215 H 0.73179 0.99992 0.64897 0.0
H1216 H 0.75396 0.05477 0.66745 0.0
H1217 H 0.83989 0.07425 0.6472 0.0
C1218 C 0.79005 0.95372 0.60335 0.0
C1219 C 0.76245 0.92591 0.59728 0.0
C1220 C 0.7365 0.92428 0.60496 0.0
C1221 C 0.73803 0.94987 0.61891 0.0
C1222 C 0.76563 0.97698 0.62473 0.0
C1223 C 0.79112 0.97922 0.6169 0.0
C1224 C 0.81775 0.01161 0.62438 0.0
C1225 C 0.84084 0.00942 0.64106 0.0
C1226 C 0.8313 0.02866 0.60216 0.0
C1227 C 0.80334 0.02716 0.63786 0.0
C1228 C 0.77332 0.00676 0.63802 0.0
C1229 C 0.75529 0.01609 0.64899 0.0
C1230 C 0.76815 0.0473 0.65956 0.0
C1231 C 0.79874 0.06892 0.65895 0.0
C1232 C 0.81651 0.05836 0.64824 0.0
H1233 H 0.47371 0.40355 0.75402 0.0
H1234 H 0.55376 0.4029 0.73926 0.0
H1235 H 0.5236 0.34981 0.71705 0.0
H1236 H 0.4312 0.32265 0.76412 0.0
H1237 H 0.39702 0.31715 0.74999 0.0
H1238 H 0.42492 0.35552 0.76385 0.0
H1239 H 0.42539 0.37972 0.7237 0.0
H1240 H 0.39737 0.34144 0.70973 0.0
H1241 H 0.43176 0.36322 0.69653 0.0
H1242 H 0.48444 0.29483 0.69981 0.0
H1243 H 0.43914 0.24416 0.68521 0.0
H1244 H 0.38513 0.28238 0.70928 0.0
C1245 C 0.48485 0.39229 0.74593 0.0
C1246 C 0.516 0.40721 0.74827 0.0
C1247 C 0.52989 0.39191 0.7374 0.0
C1248 C 0.51296 0.36174 0.72491 0.0
C1249 C 0.48224 0.34745 0.72327 0.0
C1250 C 0.46833 0.36238 0.73323 0.0
C1251 C 0.43503 0.34185 0.72911 0.0
C1252 C 0.42125 0.33383 0.7532 0.0
C1253 C 0.42161 0.35749 0.71385 0.0
C1254 C 0.43235 0.313 0.71529 0.0
C1255 C 0.4598 0.31647 0.71238 0.0
C1256 C 0.46284 0.29205 0.70159 0.0
C1257 C 0.43709 0.26341 0.69344 0.0
C1258 C 0.40887 0.25981 0.69576 0.0
C1259 C 0.40653 0.28493 0.70675 0.0
H1260 H 0.61615 0.08114 0.77696 0.0
H1261 H 0.60508 0.16083 0.76289 0.0
H1262 H 0.64978 0.18304 0.74118 0.0
H1263 H 0.69768 0.12692 0.7868 0.0
H1264 H 0.701 0.09496 0.77277 0.0
H1265 H 0.66885 0.08658 0.78803 0.0
H1266 H 0.63583 0.05405 0.74883 0.0
H1267 H 0.66817 0.06342 0.73354 0.0
H1268 H 0.64128 0.07276 0.72125 0.0
H1269 H 0.69344 0.19476 0.71848 0.0
H1270 H 0.73549 0.19708 0.69875 0.0
H1271 H 0.72054 0.11198 0.72968 0.0
C1272 C 0.62339 0.10355 0.76972 0.0
C1273 C 0.60674 0.11896 0.77144 0.0
C1274 C 0.61692 0.14809 0.76137 0.0
C1275 C 0.64247 0.16109 0.74916 0.0
C1276 C 0.65796 0.14498 0.74741 0.0
C1277 C 0.64907 0.11707 0.75766 0.0
C1278 C 0.66955 0.10433 0.75286 0.0
C1279 C 0.68521 0.10316 0.77653 0.0
C1280 C 0.65269 0.07171 0.73825 0.0
C1281 C 0.6911 0.12924 0.73803 0.0
C1282 C 0.6839 0.1524 0.73502 0.0
C1283 C 0.69955 0.17702 0.72097 0.0
C1284 C 0.72328 0.17808 0.70976 0.0
C1285 C 0.73128 0.15487 0.71289 0.0
C1286 C 0.71506 0.13025 0.72729 0.0
H1287 H 0.92962 0.54773 0.75837 0.0
H1288 H 0.84764 0.45831 0.74332 0.0
H1289 H 0.8239 0.48535 0.72422 0.0
H1290 H 0.89707 0.59683 0.77078 0.0
H1291 H 0.92398 0.62935 0.75606 0.0
H1292 H 0.93397 0.60325 0.76976 0.0
H1293 H 0.95032 0.59198 0.72916 0.0
H1294 H 0.94029 0.61795 0.71534 0.0
H1295 H 0.92452 0.57766 0.70248 0.0
H1296 H 0.80891 0.52225 0.70739 0.0
H1297 H 0.80467 0.56581 0.6913 0.0
H1298 H 0.89735 0.63072 0.71467 0.0
C1299 C 0.90661 0.534 0.75122 0.0
C1300 C 0.89033 0.50101 0.75237 0.0
C1301 C 0.86041 0.48362 0.74253 0.0
C1302 C 0.84676 0.49877 0.73175 0.0
C1303 C 0.86344 0.5313 0.73071 0.0
C1304 C 0.89277 0.5487 0.74 0.0
C1305 C 0.90606 0.58313 0.73552 0.0
C1306 C 0.91584 0.60439 0.75946 0.0
C1307 C 0.93182 0.59326 0.71968 0.0
C1308 C 0.87968 0.58231 0.72217 0.0
C1309 C 0.85519 0.55228 0.71992 0.0
C1310 C 0.82799 0.54582 0.70889 0.0
C1311 C 0.82578 0.5707 0.69984 0.0
C1312 C 0.85075 0.60151 0.70147 0.0
C1313 C 0.87801 0.60728 0.7128 0.0
H1314 H 0.51752 0.97589 0.17591 0.0
H1315 H 0.42558 0.95275 0.17048 0.0
H1316 H 0.43326 0.97936 0.1334 0.0
H1317 H 0.55013 0.04982 0.14914 0.0
H1318 H 0.57402 0.04086 0.13256 0.0
H1319 H 0.56286 0.02481 0.16086 0.0
H1320 H 0.5432 0.969 0.13997 0.0
H1321 H 0.55264 0.98365 0.11104 0.0
H1322 H 0.51509 0.95432 0.11499 0.0
H1323 H 0.45139 0.00921 0.09656 0.0
H1324 H 0.47566 0.03115 0.05992 0.0
H1325 H 0.55122 0.02395 0.08556 0.0
C1326 C 0.49869 0.97595 0.16708 0.0
C1327 C 0.47091 0.96217 0.1767 0.0
C1328 C 0.4474 0.96379 0.16426 0.0
C1329 C 0.45146 0.97875 0.14297 0.0
C1330 C 0.47899 0.99156 0.13398 0.0
C1331 C 0.50201 0.98976 0.14544 0.0
C1332 C 0.52828 1.00189 0.13068 0.0
C1333 C 0.55542 0.03108 0.14412 0.0
C1334 C 0.53524 0.97568 0.12374 0.0
C1335 C 0.51634 0.01054 0.10895 0.0
C1336 C 0.48821 0.0053 0.11152 0.0
C1337 C 0.47309 0.01261 0.09412 0.0
C1338 C 0.48673 0.02452 0.07321 0.0
C1339 C 0.51441 0.02756 0.0694 0.0
C1340 C 0.52977 0.02138 0.08784 0.0
H1341 H 0.0941 0.51705 0.16499 0.0
H1342 H 0.03095 0.52568 0.20708 0.0
H1343 H 0.99593 0.50903 0.17059 0.0
H1344 H 0.08398 0.5495 0.1153 0.0
H1345 H 0.08667 0.52343 0.0928 0.0
H1346 H 0.10472 0.53036 0.12265 0.0
H1347 H 0.07576 0.46967 0.12762 0.0
H1348 H 0.05997 0.46375 0.09687 0.0
H1349 H 0.03629 0.44794 0.12067 0.0
H1350 H 0.97049 0.49786 0.12977 0.0
H1351 H 0.95709 0.4959 0.08653 0.0
H1352 H 0.03651 0.49532 0.06977 0.0
C1353 C 0.07256 0.51458 0.16653 0.0
C1354 C 0.0651 0.52253 0.1888 0.0
C1355 C 0.03705 0.51978 0.19015 0.0
C1356 C 0.01695 0.51008 0.16958 0.0
C1357 C 0.02516 0.50307 0.14779 0.0
C1358 C 0.05224 0.5051 0.14605 0.0
C1359 C 0.05657 0.49918 0.11997 0.0
C1360 C 0.08464 0.5273 0.11224 0.0
C1361 C 0.0572 0.46831 0.11602 0.0
C1362 C 0.02866 0.49579 0.10727 0.0
C1363 C 0.01046 0.49704 0.12379 0.0
C1364 C 0.9843 0.49635 0.11666 0.0
C1365 C 0.9769 0.49527 0.09205 0.0
C1366 C 0.99568 0.49518 0.07482 0.0
C1367 C 0.02149 0.49461 0.08248 0.0
H1368 H 0.51165 0.52642 0.19136 0.0
H1369 H 0.43141 0.52978 0.17558 0.0
H1370 H 0.43704 0.52703 0.13211 0.0
H1371 H 0.55199 0.57298 0.14413 0.0
H1372 H 0.56869 0.54953 0.13687 0.0
H1373 H 0.55898 0.55246 0.16699 0.0
H1374 H 0.52727 0.49147 0.16469 0.0
H1375 H 0.53679 0.48837 0.13452 0.0
H1376 H 0.49849 0.47032 0.14032 0.0
H1377 H 0.45171 0.52627 0.09145 0.0
H1378 H 0.47341 0.52465 0.05411 0.0
H1379 H 0.54262 0.51726 0.09421 0.0
C1380 C 0.49546 0.52668 0.17864 0.0
C1381 C 0.47108 0.52829 0.1866 0.0
C1382 C 0.4501 0.5284 0.16965 0.0
C1383 C 0.45315 0.52691 0.14501 0.0
C1384 C 0.47718 0.52505 0.13763 0.0
C1385 C 0.49793 0.52471 0.15377 0.0
C1386 C 0.52122 0.52184 0.14061 0.0
C1387 C 0.55205 0.55094 0.14757 0.0
C1388 C 0.52091 0.49117 0.14532 0.0
C1389 C 0.51029 0.52081 0.11463 0.0
C1390 C 0.48497 0.52296 0.11356 0.0
C1391 C 0.47122 0.52399 0.09196 0.0
C1392 C 0.48361 0.52274 0.07077 0.0
C1393 C 0.50911 0.51973 0.07112 0.0
C1394 C 0.52272 0.51883 0.09338 0.0
H1395 H 0.98087 0.48545 0.82143 0.0
H1396 H 0.89671 0.4777 0.8341 0.0
H1397 H 0.90917 0.48247 0.87798 0.0
H1398 H 0.98434 0.44169 0.86867 0.0
H1399 H 0.02344 0.46666 0.87727 0.0
H1400 H 0.00869 0.46375 0.84672 0.0
H1401 H 0.0317 0.52447 0.84963 0.0
H1402 H 0.04667 0.5276 0.88016 0.0
H1403 H 0.02333 0.54398 0.87369 0.0
H1404 H 0.92709 0.4801 0.91923 0.0
H1405 H 0.95304 0.47976 0.95667 0.0
H1406 H 0.02928 0.49716 0.91995 0.0
C1407 C 0.96531 0.48513 0.83354 0.0
C1408 C 0.93784 0.48131 0.82446 0.0
C1409 C 0.91795 0.48096 0.84074 0.0
C1410 C 0.92476 0.48345 0.86565 0.0
C1411 C 0.95178 0.48679 0.87403 0.0
C1412 C 0.97206 0.4883 0.85861 0.0
C1413 C 0.99963 0.49236 0.87267 0.0
C1414 C 0.00429 0.46445 0.86593 0.0
C1415 C 0.02695 0.52399 0.86881 0.0
C1416 C 0.99134 0.49225 0.89834 0.0
C1417 C 0.96347 0.48865 0.89849 0.0
C1418 C 0.94958 0.48476 0.91951 0.0
C1419 C 0.96489 0.48558 0.94106 0.0
C1420 C 0.99423 0.49166 0.94194 0.0
C1421 C 0.00735 0.49409 0.92007 0.0
H1422 H 0.54798 0.5198 0.82964 0.0
H1423 H 0.52559 0.42212 0.83198 0.0
H1424 H 0.50948 0.42228 0.8724 0.0
H1425 H 0.57697 0.54337 0.89369 0.0
H1426 H 0.56327 0.57032 0.89739 0.0
H1427 H 0.57347 0.56294 0.86846 0.0
H1428 H 0.52127 0.5469 0.84897 0.0
H1429 H 0.51078 0.55384 0.87789 0.0
H1430 H 0.4891 0.51592 0.86058 0.0
H1431 H 0.49341 0.4312 0.91103 0.0
H1432 H 0.48273 0.45053 0.94864 0.0
H1433 H 0.51768 0.5435 0.92381 0.0
C1434 C 0.54004 0.4986 0.83879 0.0
C1435 C 0.53743 0.4707 0.82732 0.0
C1436 C 0.52696 0.44348 0.83999 0.0
C1437 C 0.51792 0.44336 0.86306 0.0
C1438 C 0.51995 0.47082 0.87352 0.0
C1439 C 0.5312 0.49816 0.86212 0.0
C1440 C 0.53135 0.52451 0.87792 0.0
C1441 C 0.56316 0.5519 0.88477 0.0
C1442 C 0.51197 0.53596 0.8656 0.0
C1443 C 0.51781 0.50738 0.89968 0.0
C1444 C 0.51144 0.4764 0.89658 0.0
C1445 C 0.49856 0.45547 0.91381 0.0
C1446 C 0.49257 0.46664 0.93508 0.0
C1447 C 0.49955 0.49842 0.93902 0.0
C1448 C 0.51203 0.51905 0.92104 0.0
H1449 H 0.51545 0.07556 0.85039 0.0
H1450 H 0.574 0.04073 0.83137 0.0
H1451 H 0.56532 0.0145 0.86907 0.0
H1452 H 0.53147 0.08675 0.91509 0.0
H1453 H 0.49327 0.0728 0.91963 0.0
H1454 H 0.50804 0.09183 0.89312 0.0
H1455 H 0.46559 0.04237 0.86725 0.0
H1456 H 0.45192 0.02348 0.8941 0.0
H1457 H 0.46134 0.0041 0.87071 0.0
H1458 H 0.54866 0.99093 0.90914 0.0
H1459 H 0.52444 0.97106 0.94637 0.0
H1460 H 0.47306 0.01691 0.9352 0.0
C1461 C 0.52633 0.06218 0.85381 0.0
C1462 C 0.54519 0.06 0.83757 0.0
C1463 C 0.55963 0.04304 0.84349 0.0
C1464 C 0.55468 0.02789 0.86482 0.0
C1465 C 0.53507 0.02971 0.87989 0.0
C1466 C 0.52106 0.04636 0.87448 0.0
C1467 C 0.49958 0.04333 0.89256 0.0
C1468 C 0.5087 0.07562 0.90589 0.0
C1469 C 0.46773 0.02736 0.88042 0.0
C1470 C 0.50351 0.02221 0.90909 0.0
C1471 C 0.52438 0.01492 0.9018 0.0
C1472 C 0.53217 0.99636 0.91486 0.0
C1473 C 0.51836 0.98519 0.9359 0.0
C1474 C 0.49685 0.99233 0.9434 0.0
C1475 C 0.48916 0.01075 0.92965 0.0
H1476 H 0.15761 0.27528 0.4998 0.0
H1477 H 0.09653 0.30849 0.5138 0.0
H1478 H 0.10618 0.3329 0.4753 0.0
H1479 H 0.21145 0.34634 0.47619 0.0
H1480 H 0.22135 0.32518 0.45471 0.0
H1481 H 0.20851 0.30945 0.48277 0.0
H1482 H 0.16707 0.25712 0.45946 0.0
H1483 H 0.18032 0.27289 0.43156 0.0
H1484 H 0.14215 0.2585 0.43666 0.0
H1485 H 0.12283 0.35338 0.43452 0.0
H1486 H 0.14559 0.36869 0.3961 0.0
H1487 H 0.19767 0.32459 0.41152 0.0
C1488 C 0.14657 0.28817 0.49522 0.0
C1489 C 0.12648 0.29015 0.51014 0.0
C1490 C 0.11185 0.30637 0.50269 0.0
C1491 C 0.11735 0.32051 0.48092 0.0
C1492 C 0.13774 0.31847 0.46696 0.0
C1493 C 0.15223 0.30286 0.47399 0.0
C1494 C 0.17361 0.30443 0.45631 0.0
C1495 C 0.20562 0.32243 0.46821 0.0
C1496 C 0.16525 0.27125 0.44534 0.0
C1497 C 0.16863 0.32297 0.43787 0.0
C1498 C 0.14783 0.33087 0.44421 0.0
C1499 C 0.13922 0.34742 0.42949 0.0
C1500 C 0.15211 0.35589 0.40772 0.0
C1501 C 0.17326 0.34776 0.401 0.0
C1502 C 0.1818 0.33143 0.41641 0.0
H1503 H 0.73298 0.89642 0.51434 0.0
H1504 H 0.71411 0.80083 0.52263 0.0
H1505 H 0.6892 0.78399 0.48139 0.0
H1506 H 0.66129 0.872 0.48123 0.0
H1507 H 0.6771 0.90431 0.4627 0.0
H1508 H 0.6936 0.90886 0.49291 0.0
H1509 H 0.74383 0.92492 0.47631 0.0
H1510 H 0.72742 0.91999 0.44604 0.0
H1511 H 0.74599 0.89865 0.45363 0.0
H1512 H 0.66873 0.77824 0.43806 0.0
H1513 H 0.65193 0.78349 0.39723 0.0
H1514 H 0.67998 0.88138 0.41858 0.0
C1515 C 0.7231 0.87172 0.50794 0.0
C1516 C 0.72593 0.85014 0.52213 0.0
C1517 C 0.7131 0.81824 0.51226 0.0
C1518 C 0.69853 0.80827 0.48883 0.0
C1519 C 0.69631 0.83024 0.4755 0.0
C1520 C 0.70786 0.86119 0.48485 0.0
C1521 C 0.70237 0.88013 0.46688 0.0
C1522 C 0.6824 0.89202 0.47651 0.0
C1523 C 0.73166 0.90755 0.46035 0.0
C1524 C 0.68655 0.85521 0.44567 0.0
C1525 C 0.68333 0.82658 0.451 0.0
C1526 C 0.67081 0.80043 0.43384 0.0
C1527 C 0.66146 0.80368 0.41068 0.0
C1528 C 0.66453 0.83276 0.40486 0.0
C1529 C 0.67693 0.85873 0.42269 0.0
H1530 H 0.12457 0.83026 0.50421 0.0
H1531 H 0.15353 0.93037 0.50713 0.0
H1532 H 0.17463 0.93342 0.46878 0.0
H1533 H 0.18359 0.83122 0.47682 0.0
H1534 H 0.16174 0.79609 0.45634 0.0
H1535 H 0.14819 0.80066 0.48437 0.0
H1536 H 0.10022 0.79258 0.46133 0.0
H1537 H 0.11358 0.78733 0.43337 0.0
H1538 H 0.10297 0.81687 0.43751 0.0
H1539 H 0.19974 0.9283 0.43429 0.0
H1540 H 0.21691 0.91262 0.39879 0.0
H1541 H 0.16467 0.81432 0.41219 0.0
C1542 C 0.13489 0.85272 0.49667 0.0
C1543 C 0.1385 0.88039 0.50962 0.0
C1544 C 0.15184 0.9091 0.49858 0.0
C1545 C 0.16366 0.91111 0.47652 0.0
C1546 C 0.16099 0.88394 0.4649 0.0
C1547 C 0.14603 0.85502 0.47398 0.0
C1548 C 0.1455 0.8294 0.45687 0.0
C1549 C 0.16066 0.8134 0.46935 0.0
C1550 C 0.11366 0.80511 0.44666 0.0
C1551 C 0.16341 0.84883 0.43736 0.0
C1552 C 0.17244 0.88033 0.44275 0.0
C1553 C 0.19179 0.9036 0.4292 0.0
C1554 C 0.20157 0.89447 0.40915 0.0
C1555 C 0.19134 0.86224 0.40232 0.0
C1556 C 0.17208 0.83906 0.41667 0.0
H1557 H 0.58967 0.77101 0.17142 0.0
H1558 H 0.6332 0.86979 0.15812 0.0
H1559 H 0.66073 0.88465 0.19837 0.0
H1560 H 0.58286 0.78561 0.23346 0.0
H1561 H 0.59 0.75646 0.24484 0.0
H1562 H 0.5728 0.74997 0.2146 0.0
H1563 H 0.61273 0.74322 0.19538 0.0
H1564 H 0.62989 0.74642 0.22504 0.0
H1565 H 0.65123 0.77217 0.20325 0.0
H1566 H 0.68263 0.88917 0.24039 0.0
H1567 H 0.69935 0.88256 0.28082 0.0
H1568 H 0.64449 0.78095 0.26625 0.0
C1569 C 0.60522 0.79573 0.17686 0.0
C1570 C 0.60911 0.81922 0.16157 0.0
C1571 C 0.62939 0.85136 0.16961 0.0
C1572 C 0.6453 0.86007 0.19241 0.0
C1573 C 0.64086 0.83639 0.20703 0.0
C1574 C 0.62142 0.80488 0.1996 0.0
C1575 C 0.62041 0.78426 0.21912 0.0
C1576 C 0.58968 0.76808 0.22851 0.0
C1577 C 0.62909 0.76009 0.21015 0.0
C1578 C 0.64349 0.80891 0.2381 0.0
C1579 C 0.65439 0.83892 0.23099 0.0
C1580 C 0.6746 0.86577 0.24601 0.0
C1581 C 0.68401 0.86182 0.26886 0.0
C1582 C 0.67376 0.83129 0.27622 0.0
C1583 C 0.6533 0.80449 0.26065 0.0
H1584 H 0.22076 0.84543 0.17168 0.0
H1585 H 0.18245 0.74342 0.16569 0.0
H1586 H 0.16456 0.74181 0.20547 0.0
H1587 H 0.24646 0.85523 0.23527 0.0
H1588 H 0.24007 0.8873 0.24332 0.0
H1589 H 0.24935 0.88194 0.21345 0.0
H1590 H 0.20208 0.87858 0.194 0.0
H1591 H 0.1925 0.88499 0.22345 0.0
H1592 H 0.16665 0.85077 0.20343 0.0
H1593 H 0.14521 0.74997 0.24303 0.0
H1594 H 0.13347 0.76829 0.28052 0.0
H1595 H 0.19089 0.8656 0.26676 0.0
C1596 C 0.20898 0.82274 0.17876 0.0
C1597 C 0.20228 0.79443 0.16484 0.0
C1598 C 0.18683 0.76539 0.17518 0.0
C1599 C 0.17679 0.76418 0.19801 0.0
C1600 C 0.18305 0.79229 0.21081 0.0
C1601 C 0.19939 0.82112 0.20192 0.0
C1602 C 0.20394 0.84784 0.22009 0.0
C1603 C 0.23693 0.8694 0.22855 0.0
C1604 C 0.19048 0.86665 0.20961 0.0
C1605 C 0.18685 0.82931 0.24023 0.0
C1606 C 0.17467 0.79726 0.23418 0.0
C1607 C 0.15549 0.77498 0.24844 0.0
C1608 C 0.14885 0.78564 0.26965 0.0
C1609 C 0.16192 0.8183 0.27682 0.0
C1610 C 0.1813 0.84049 0.26197 0.0
H1611 H 0.18297 0.40533 0.1806 0.0
H1612 H 0.23046 0.35677 0.16204 0.0
H1613 H 0.21718 0.32986 0.19895 0.0
H1614 H 0.20019 0.41469 0.2457 0.0
H1615 H 0.16398 0.40702 0.252 0.0
H1616 H 0.17907 0.42451 0.22501 0.0
H1617 H 0.13252 0.37974 0.19975 0.0
H1618 H 0.11752 0.36143 0.22654 0.0
H1619 H 0.12238 0.33919 0.20222 0.0
H1620 H 0.19777 0.30679 0.23741 0.0
H1621 H 0.17387 0.2901 0.27515 0.0
H1622 H 0.13654 0.35076 0.26759 0.0
C1623 C 0.19061 0.38905 0.18422 0.0
C1624 C 0.20816 0.38365 0.16831 0.0
C1625 C 0.21771 0.36217 0.17405 0.0
C1626 C 0.21003 0.34643 0.19493 0.0
C1627 C 0.19252 0.35206 0.20997 0.0
C1628 C 0.18292 0.37287 0.20494 0.0
C1629 C 0.16353 0.37388 0.22379 0.0
C1630 C 0.17756 0.407 0.23742 0.0
C1631 C 0.13213 0.36291 0.21238 0.0
C1632 C 0.1636 0.35023 0.24003 0.0
C1633 C 0.1806 0.33806 0.23181 0.0
C1634 C 0.18435 0.31611 0.24399 0.0
C1635 C 0.1707 0.30672 0.26533 0.0
C1636 C 0.15344 0.31912 0.27413 0.0
C1637 C 0.1495 0.34077 0.26111 0.0
H1638 H 0.8543 0.66644 0.85825 0.0
H1639 H 0.76146 0.59529 0.84166 0.0
H1640 H 0.76446 0.60815 0.79954 0.0
H1641 H 0.85709 0.72284 0.81863 0.0
H1642 H 0.89307 0.73291 0.80973 0.0
H1643 H 0.88322 0.71986 0.83907 0.0
H1644 H 0.89522 0.67529 0.8301 0.0
H1645 H 0.90522 0.6883 0.80079 0.0
H1646 H 0.8774 0.64795 0.80345 0.0
H1647 H 0.77793 0.62704 0.75889 0.0
H1648 H 0.80146 0.64963 0.72258 0.0
H1649 H 0.88576 0.70668 0.76461 0.0
C1650 C 0.83454 0.65334 0.84583 0.0
C1651 C 0.80754 0.6299 0.85354 0.0
C1652 C 0.78224 0.61381 0.83655 0.0
C1653 C 0.78378 0.62077 0.81247 0.0
C1654 C 0.8108 0.64371 0.80555 0.0
C1655 C 0.83578 0.65961 0.82168 0.0
C1656 C 0.86247 0.68211 0.80936 0.0
C1657 C 0.87467 0.71647 0.81982 0.0
C1658 C 0.88649 0.67285 0.81103 0.0
C1659 C 0.84858 0.6764 0.78373 0.0
C1660 C 0.81871 0.65431 0.78201 0.0
C1661 C 0.8012 0.64469 0.76015 0.0
C1662 C 0.81458 0.65798 0.73956 0.0
C1663 C 0.845 0.68054 0.74074 0.0
C1664 C 0.86228 0.68973 0.76318 0.0
H1665 H 0.41805 0.24641 0.8443 0.0
H1666 H 0.37295 0.1492 0.8619 0.0
H1667 H 0.34477 0.13223 0.82192 0.0
H1668 H 0.35335 0.24166 0.81201 0.0
H1669 H 0.37443 0.26717 0.78998 0.0
H1670 H 0.39145 0.27179 0.81999 0.0
H1671 H 0.43297 0.26548 0.80206 0.0
H1672 H 0.41582 0.26051 0.77205 0.0
H1673 H 0.42327 0.23077 0.78215 0.0
H1674 H 0.3234 0.12508 0.77918 0.0
H1675 H 0.30676 0.12926 0.73788 0.0
H1676 H 0.36219 0.23114 0.74906 0.0
C1677 C 0.40192 0.22161 0.84 0.0
C1678 C 0.39813 0.19916 0.85636 0.0
C1679 C 0.37693 0.16687 0.84963 0.0
C1680 C 0.36061 0.15696 0.82695 0.0
C1681 C 0.36528 0.17958 0.8112 0.0
C1682 C 0.38508 0.2113 0.8175 0.0
C1683 C 0.38551 0.23079 0.79723 0.0
C1684 C 0.37558 0.25423 0.80529 0.0
C1685 C 0.41622 0.24789 0.78783 0.0
C1686 C 0.36287 0.20502 0.77863 0.0
C1687 C 0.35177 0.17561 0.78694 0.0
C1688 C 0.33162 0.14801 0.77259 0.0
C1689 C 0.32236 0.15056 0.74919 0.0
C1690 C 0.33298 0.18047 0.74055 0.0
C1691 C 0.35339 0.20802 0.75548 0.0
H1692 H 0.78209 0.1662 0.83642 0.0
H1693 H 0.83137 0.26894 0.84508 0.0
H1694 H 0.851 0.26913 0.80618 0.0
H1695 H 0.83244 0.15265 0.80847 0.0
H1696 H 0.80613 0.12094 0.78675 0.0
H1697 H 0.79467 0.12827 0.81504 0.0
H1698 H 0.7534 0.13399 0.79263 0.0
H1699 H 0.76434 0.12622 0.76415 0.0
H1700 H 0.76262 0.16167 0.77028 0.0
H1701 H 0.87141 0.25825 0.76988 0.0
H1702 H 0.88355 0.23736 0.73376 0.0
H1703 H 0.81532 0.14238 0.74439 0.0
C1704 C 0.79639 0.18885 0.83002 0.0
C1705 C 0.80578 0.21755 0.84455 0.0
C1706 C 0.8247 0.24649 0.83511 0.0
C1707 C 0.83579 0.24693 0.81278 0.0
C1708 C 0.82699 0.21829 0.79952 0.0
C1709 C 0.80697 0.18981 0.80734 0.0
C1710 C 0.8008 0.16246 0.78918 0.0
C1711 C 0.80901 0.13975 0.80055 0.0
C1712 C 0.76836 0.14506 0.77841 0.0
C1713 C 0.82151 0.18002 0.77051 0.0
C1714 C 0.83659 0.21222 0.77704 0.0
C1715 C 0.85907 0.23322 0.76413 0.0
C1716 C 0.86598 0.2211 0.74377 0.0
C1717 C 0.85001 0.18838 0.73614 0.0
C1718 C 0.82741 0.16758 0.74963 0.0
H1719 H 0.24729 0.09877 0.50583 0.0
H1720 H 0.28343 0.19699 0.4926 0.0
H1721 H 0.31022 0.21367 0.53323 0.0
H1722 H 0.23831 0.10921 0.56911 0.0
H1723 H 0.24884 0.08133 0.57816 0.0
H1724 H 0.23144 0.07632 0.54823 0.0
H1725 H 0.27535 0.07587 0.52961 0.0
H1726 H 0.29275 0.08031 0.55942 0.0
H1727 H 0.31244 0.10809 0.53817 0.0
H1728 H 0.33407 0.22 0.57484 0.0
H1729 H 0.35277 0.21525 0.61512 0.0
H1730 H 0.30237 0.11322 0.60131 0.0
C1731 C 0.26092 0.12379 0.51143 0.0
C1732 C 0.26309 0.14656 0.49596 0.0
C1733 C 0.28095 0.17906 0.50418 0.0
C1734 C 0.29644 0.1888 0.52719 0.0
C1735 C 0.29393 0.1658 0.54188 0.0
C1736 C 0.27656 0.13395 0.53441 0.0
C1737 C 0.27787 0.11412 0.55377 0.0
C1738 C 0.2473 0.09406 0.56284 0.0
C1739 C 0.29036 0.09338 0.54469 0.0
C1740 C 0.29917 0.13982 0.57303 0.0
C1741 C 0.30796 0.16946 0.56586 0.0
C1742 C 0.32732 0.19693 0.58066 0.0
C1743 C 0.33778 0.19403 0.60347 0.0
C1744 C 0.32894 0.16395 0.6112 0.0
C1745 C 0.30962 0.13652 0.5957 0.0
H1746 H 0.88105 0.17704 0.50764 0.0
H1747 H 0.85283 0.07736 0.50582 0.0
H1748 H 0.83413 0.07559 0.5455 0.0
H1749 H 0.90538 0.19652 0.57235 0.0
H1750 H 0.89196 0.22362 0.57649 0.0
H1751 H 0.90419 0.21826 0.54795 0.0
H1752 H 0.85419 0.20407 0.5258 0.0
H1753 H 0.84146 0.20973 0.55395 0.0
H1754 H 0.82045 0.17281 0.53526 0.0
H1755 H 0.81172 0.0823 0.58184 0.0
H1756 H 0.79506 0.09953 0.61707 0.0
H1757 H 0.84354 0.19628 0.5994 0.0
C1758 C 0.87163 0.15504 0.51584 0.0
C1759 C 0.86802 0.1272 0.50331 0.0
C1760 C 0.85522 0.09882 0.51468 0.0
C1761 C 0.84465 0.09759 0.53731 0.0
C1762 C 0.84752 0.12507 0.5487 0.0
C1763 C 0.8613 0.15347 0.5387 0.0
C1764 C 0.86091 0.17933 0.55474 0.0
C1765 C 0.89247 0.20599 0.56341 0.0
C1766 C 0.8432 0.19223 0.54165 0.0
C1767 C 0.84484 0.16094 0.57528 0.0
C1768 C 0.83671 0.12951 0.57104 0.0
C1769 C 0.81876 0.10702 0.58581 0.0
C1770 C 0.80935 0.11698 0.60575 0.0
C1771 C 0.81881 0.14927 0.61129 0.0
C1772 C 0.83668 0.17154 0.59581 0.0
H1773 H 0.83449 0.68855 0.49374 0.0
H1774 H 0.92487 0.76456 0.51318 0.0
H1775 H 0.92001 0.75305 0.55565 0.0
H1776 H 0.80456 0.70159 0.54735 0.0
H1777 H 0.77973 0.66015 0.54938 0.0
H1778 H 0.79019 0.67433 0.52044 0.0
H1779 H 0.80856 0.6347 0.51273 0.0
H1780 H 0.79833 0.62057 0.54172 0.0
H1781 H 0.8357 0.63513 0.53426 0.0
H1782 H 0.90496 0.73548 0.59549 0.0
H1783 H 0.88174 0.71054 0.63085 0.0
H1784 H 0.80144 0.64435 0.58666 0.0
C1785 C 0.85315 0.70291 0.507 0.0
C1786 C 0.8801 0.72745 0.50025 0.0
C1787 C 0.90418 0.74547 0.51798 0.0
C1788 C 0.90156 0.73923 0.54212 0.0
C1789 C 0.87474 0.71492 0.54814 0.0
C1790 C 0.85095 0.69696 0.53119 0.0
C1791 C 0.82472 0.67204 0.54262 0.0
C1792 C 0.79824 0.67736 0.53977 0.0
C1793 C 0.81635 0.63863 0.53221 0.0
C1794 C 0.83762 0.67876 0.56866 0.0
C1795 C 0.86641 0.70372 0.57129 0.0
C1796 C 0.88277 0.71526 0.59356 0.0
C1797 C 0.86957 0.70053 0.61367 0.0
C1798 C 0.84049 0.67452 0.61162 0.0
C1799 C 0.82408 0.66375 0.58875 0.0
loop_
_geom_bond_atom_site_label_1
_geom_bond_atom_site_label_2
_geom_bond_distance
_geom_bond_site_symmetry_2
_ccdc_geom_bond_type
H0 C3 0.931 . S
H1 C6 0.928 . S
H2 C8 0.930 . S
C3 H0 0.931 . S
C3 C4 1.413 . S
C3 C5 1.360 . S
C4 C3 1.413 . S
C4 C8 1.429 . S
C5 C3 1.360 . S
C5 C6 1.372 . S
C6 H1 0.928 . S
C6 C5 1.372 . S
C6 C7 1.404 . S
C7 C6 1.404 . S
C7 C8 1.391 . S
C8 H2 0.930 . S
C8 C4 1.429 . S
C8 C7 1.391 . S
H9 C12 0.931 . S
H10 C15 0.928 . S
H11 C17 0.930 . S
C12 H9 0.931 . S
C12 C13 1.413 . S
C12 C14 1.360 . S
C13 C12 1.413 . S
C13 C17 1.429 . S
C14 C12 1.360 . S
C14 C15 1.372 . S
C15 H10 0.928 . S
C15 C14 1.372 . S
C15 C16 1.404 . S
C16 C15 1.404 . S
C16 C17 1.391 . S
C17 H11 0.930 . S
C17 C13 1.429 . S
C17 C16 1.391 . S
H18 C21 0.931 . S
H19 C24 0.928 . S
H20 C26 0.930 . S
C21 H18 0.931 . S
C21 C22 1.413 . S
C21 C23 1.360 . S
C22 C21 1.413 . S
C22 C26 1.429 . S
C23 C21 1.360 . S
C23 C24 1.372 . S
C24 H19 0.928 . S
C24 C23 1.372 . S
C24 C25 1.404 . S
C25 C24 1.404 . S
C25 C26 1.391 . S
C26 H20 0.930 . S
C26 C22 1.429 . S
C26 C25 1.391 . S
H27 C30 0.931 . S
H28 C33 0.928 . S
H29 C35 0.930 . S
C30 H27 0.931 . S
C30 C31 1.413 . S
C30 C32 1.360 . S
C31 C30 1.413 . S
C31 C35 1.429 . S
C32 C30 1.360 . S
C32 C33 1.372 . S
C33 H28 0.928 . S
C33 C32 1.372 . S
C33 C34 1.404 . S
C34 C33 1.404 . S
C34 C35 1.391 . S
C35 H29 0.930 . S
C35 C31 1.429 . S
C35 C34 1.391 . S
H36 C39 0.931 . S
H37 C42 0.928 . S
H38 C44 0.930 . S
C39 H36 0.931 . S
C39 C40 1.413 . S
C39 C41 1.360 . S
C40 C39 1.413 . S
C40 C44 1.429 . S
C41 C39 1.360 . S
C41 C42 1.372 . S
C42 H37 0.928 . S
C42 C41 1.372 . S
C42 C43 1.404 . S
C43 C42 1.404 . S
C43 C44 1.391 . S
C44 H38 0.930 . S
C44 C40 1.429 . S
C44 C43 1.391 . S
H45 C48 0.931 . S
H46 C51 0.928 . S
H47 C53 0.930 . S
C48 H45 0.931 . S
C48 C49 1.413 . S
C48 C50 1.360 . S
C49 C48 1.413 . S
C49 C53 1.429 . S
C50 C48 1.360 . S
C50 C51 1.372 . S
C51 H46 0.928 . S
C51 C50 1.372 . S
C51 C52 1.404 . S
C52 C51 1.404 . S
C52 C53 1.391 . S
C53 H47 0.930 . S
C53 C49 1.429 . S
C53 C52 1.391 . S
H54 C57 0.931 . S
H55 C60 0.928 . S
H56 C62 0.930 . S
C57 H54 0.931 . S
C57 C58 1.413 . S
C57 C59 1.360 . S
C58 C57 1.413 . S
C58 C62 1.429 . S
C59 C57 1.360 . S
C59 C60 1.372 . S
C60 H55 0.928 . S
C60 C59 1.372 . S
C60 C61 1.404 . S
C61 C60 1.404 . S
C61 C62 1.391 . S
C62 H56 0.930 . S
C62 C58 1.429 . S
C62 C61 1.391 . S
H63 C66 0.931 . S
H64 C69 0.928 . S
H65 C71 0.930 . S
C66 H63 0.931 . S
C66 C67 1.413 . S
C66 C68 1.360 . S
C67 C66 1.413 . S
C67 C71 1.429 . S
C68 C66 1.360 . S
C68 C69 1.372 . S
C69 H64 0.928 . S
C69 C68 1.372 . S
C69 C70 1.404 . S
C70 C69 1.404 . S
C70 C71 1.391 . S
C71 H65 0.930 . S
C71 C67 1.429 . S
C71 C70 1.391 . S
H72 C75 0.931 . S
H73 C78 0.928 . S
H74 C80 0.930 . S
C75 H72 0.931 . S
C75 C76 1.413 . S
C75 C77 1.360 . S
C76 C75 1.413 . S
C76 C80 1.429 . S
C77 C75 1.360 . S
C77 C78 1.372 . S
C78 H73 0.928 . S
C78 C77 1.372 . S
C78 C79 1.404 . S
C79 C78 1.404 . S
C79 C80 1.391 . S
C80 H74 0.930 . S
C80 C76 1.429 . S
C80 C79 1.391 . S
H81 C84 0.931 . S
H82 C87 0.928 . S
H83 C89 0.930 . S
C84 H81 0.931 . S
C84 C85 1.413 . S
C84 C86 1.360 . S
C85 C84 1.413 . S
C85 C89 1.429 . S
C86 C84 1.360 . S
C86 C87 1.372 . S
C87 H82 0.928 . S
C87 C86 1.372 . S
C87 C88 1.404 . S
C88 C87 1.404 . S
C88 C89 1.391 . S
C89 H83 0.930 . S
C89 C85 1.429 . S
C89 C88 1.391 . S
H90 C93 0.931 . S
H91 C96 0.928 . S
H92 C98 0.930 . S
C93 H90 0.931 . S
C93 C94 1.413 . S
C93 C95 1.360 . S
C94 C93 1.413 . S
C94 C98 1.429 . S
C95 C93 1.360 . S
C95 C96 1.372 . S
C96 H91 0.928 . S
C96 C95 1.372 . S
C96 C97 1.404 . S
C97 C96 1.404 . S
C97 C98 1.391 . S
C98 H92 0.930 . S
C98 C94 1.429 . S
C98 C97 1.391 . S
H99 C102 0.931 . S
H100 C105 0.928 . S
H101 C107 0.930 . S
C102 H99 0.931 . S
C102 C103 1.413 . S
C102 C104 1.360 . S
C103 C102 1.413 . S
C103 C107 1.429 . S
C104 C102 1.360 . S
C104 C105 1.372 . S
C105 H100 0.928 . S
C105 C104 1.372 . S
C105 C106 1.404 . S
C106 C105 1.404 . S
C106 C107 1.391 . S
C107 H101 0.930 . S
C107 C103 1.429 . S
C107 C106 1.391 . S
H108 C111 0.931 . S
H109 C114 0.928 . S
H110 C116 0.930 . S
C111 H108 0.931 . S
C111 C112 1.413 . S
C111 C113 1.360 . S
C112 C111 1.413 . S
C112 C116 1.429 . S
C113 C111 1.360 . S
C113 C114 1.372 . S
C114 H109 0.928 . S
C114 C113 1.372 . S
C114 C115 1.404 . S
C115 C114 1.404 . S
C115 C116 1.391 . S
C116 H110 0.930 . S
C116 C112 1.429 . S
C116 C115 1.391 . S
H117 C120 0.931 . S
H118 C123 0.928 . S
H119 C125 0.930 . S
C120 H117 0.931 . S
C120 C121 1.413 . S
C120 C122 1.360 . S
C121 C120 1.413 . S
C121 C125 1.429 . S
C122 C120 1.360 . S
C122 C123 1.372 . S
C123 H118 0.928 . S
C123 C122 1.372 . S
C123 C124 1.404 . S
C124 C123 1.404 . S
C124 C125 1.391 . S
C125 H119 0.930 . S
C125 C121 1.429 . S
C125 C124 1.391 . S
H126 C129 0.931 . S
H127 C132 0.928 . S
H128 C134 0.930 . S
C129 H126 0.931 . S
C129 C130 1.413 . S
C129 C131 1.360 . S
C130 C129 1.413 . S
C130 C134 1.429 . S
C131 C129 1.360 . S
C131 C132 1.372 . S
C132 H127 0.928 . S
C132 C131 1.372 . S
C132 C133 1.404 . S
C133 C132 1.404 . S
C133 C134 1.391 . S
C134 H128 0.930 . S
C134 C130 1.429 . S
C134 C133 1.391 . S
H135 C138 0.931 . S
H136 C141 0.928 . S
H137 C143 0.930 . S
C138 H135 0.931 . S
C138 C139 1.413 . S
C138 C140 1.360 . S
C139 C138 1.413 . S
C139 C143 1.429 . S
C140 C138 1.360 . S
C140 C141 1.372 . S
C141 H136 0.928 . S
C141 C140 1.372 . S
C141 C142 1.404 . S
C142 C141 1.404 . S
C142 C143 1.391 . S
C143 H137 0.930 . S
C143 C139 1.429 . S
C143 C142 1.391 . S
H144 C147 0.931 . S
H145 C150 0.928 . S
H146 C152 0.930 . S
C147 H144 0.931 . S
C147 C148 1.413 . S
C147 C149 1.360 . S
C148 C147 1.413 . S
C148 C152 1.429 . S
C149 C147 1.360 . S
C149 C150 1.372 . S
C150 H145 0.928 . S
C150 C149 1.372 . S
C150 C151 1.404 . S
C151 C150 1.404 . S
C151 C152 1.391 . S
C152 H146 0.930 . S
C152 C148 1.429 . S
C152 C151 1.391 . S
H153 C156 0.931 . S
H154 C159 0.928 . S
H155 C161 0.930 . S
C156 H153 0.931 . S
C156 C157 1.413 . S
C156 C158 1.360 . S
C157 C156 1.413 . S
C157 C161 1.429 . S
C158 C156 1.360 . S
C158 C159 1.372 . S
C159 H154 0.928 . S
C159 C158 1.372 . S
C159 C160 1.404 . S
C160 C159 1.404 . S
C160 C161 1.391 . S
C161 H155 0.930 . S
C161 C157 1.429 . S
C161 C160 1.391 . S
Tb162 O165 2.453 . S
Tb162 O166 2.596 1_545 S
Tb162 O167 2.374 1_545 S
Tb162 O175 2.343 1_554 S
Tb162 O177 2.353 . S
Tb162 O179 2.427 1_554 S
Tb162 O180 2.513 1_554 S
C163 O167 1.251 . S
C163 O169 1.263 1_554 S
Tb164 O166 2.343 1_556 S
Tb164 O169 2.353 . S
Tb164 O172 2.427 1_556 S
Tb164 O173 2.513 1_556 S
Tb164 O174 2.453 . S
Tb164 O175 2.596 1_565 S
Tb164 O176 2.374 1_565 S
O165 Tb162 2.453 . S
O165 C181 1.245 . S
O166 Tb162 2.596 1_565 S
O166 Tb164 2.343 1_554 S
O166 C181 1.259 1_565 S
O167 Tb162 2.374 1_565 S
O167 C163 1.251 . S
C168 O172 1.275 . S
C168 O173 1.246 . S
O169 C163 1.263 1_556 S
O169 Tb164 2.353 . S
C170 O174 1.245 . S
C170 O175 1.259 1_565 S
C171 O176 1.250 . S
C171 O177 1.263 1_556 S
O172 Tb164 2.427 1_554 S
O172 C168 1.275 . S
O173 Tb164 2.513 1_554 S
O173 C168 1.246 . S
O174 Tb164 2.453 . S
O174 C170 1.245 . S
O175 Tb162 2.343 1_556 S
O175 Tb164 2.596 1_545 S
O175 C170 1.259 1_545 S
O176 Tb164 2.374 1_545 S
O176 C171 1.250 . S
O177 Tb162 2.353 . S
O177 C171 1.263 1_554 S
C178 O179 1.275 . S
C178 O180 1.246 . S
O179 Tb162 2.427 1_556 S
O179 C178 1.275 . S
O180 Tb162 2.513 1_556 S
O180 C178 1.246 . S
C181 O165 1.245 . S
C181 O166 1.259 1_545 S
Tb182 O185 2.453 . S
Tb182 O186 2.596 1_655 S
Tb182 O187 2.374 1_655 S
Tb182 O195 2.343 1_554 S
Tb182 O197 2.355 . S
Tb182 O199 2.427 1_554 S
Tb182 O200 2.513 1_554 S
C183 O187 1.251 . S
C183 O189 1.263 . S
Tb184 O186 2.343 1_556 S
Tb184 O189 2.353 1_556 S
Tb184 O192 2.427 1_556 S
Tb184 O193 2.513 1_556 S
Tb184 O194 2.453 . S
Tb184 O195 2.596 1_455 S
Tb184 O196 2.374 1_455 S
O185 Tb182 2.453 . S
O185 C201 1.245 1_655 S
O186 Tb182 2.596 1_455 S
O186 Tb184 2.343 1_554 S
O186 C201 1.259 . S
O187 Tb182 2.374 1_455 S
O187 C183 1.251 . S
C188 O192 1.275 . S
C188 O193 1.246 . S
O189 C183 1.263 . S
O189 Tb184 2.353 1_554 S
C190 O194 1.245 1_655 S
C190 O195 1.259 . S
C191 O196 1.250 . S
C191 O197 1.258 1_556 S
O192 Tb184 2.427 1_554 S
O192 C188 1.275 . S
O193 Tb184 2.513 1_554 S
O193 C188 1.246 . S
O194 Tb184 2.453 . S
O194 C190 1.245 1_455 S
O195 Tb182 2.343 1_556 S
O195 Tb184 2.596 1_655 S
O195 C190 1.259 . S
O196 Tb184 2.374 1_655 S
O196 C191 1.250 . S
O197 Tb182 2.355 . S
O197 C191 1.258 1_554 S
C198 O199 1.275 . S
C198 O200 1.246 . S
O199 Tb182 2.427 1_556 S
O199 C198 1.275 . S
O200 Tb182 2.513 1_556 S
O200 C198 1.246 . S
C201 O185 1.245 1_455 S
C201 O186 1.259 . S
Tb202 O205 2.453 . S
Tb202 O206 2.596 . S
Tb202 O207 2.374 . S
Tb202 O215 2.343 1_556 S
Tb202 O217 2.348 1_556 S
Tb202 O219 2.427 1_556 S
Tb202 O220 2.513 1_556 S
C203 O207 1.251 . S
C203 O209 1.263 1_556 S
Tb204 O206 2.343 1_554 S
Tb204 O209 2.353 . S
Tb204 O212 2.427 1_554 S
Tb204 O213 2.513 1_554 S
Tb204 O214 2.453 . S
Tb204 O215 2.596 . S
Tb204 O216 2.374 . S
O205 Tb202 2.453 . S
O205 C221 1.245 . S
O206 Tb202 2.596 . S
O206 Tb204 2.343 1_556 S
O206 C221 1.259 . S
O207 Tb202 2.374 . S
O207 C203 1.251 . S
C208 O212 1.275 . S
C208 O213 1.246 . S
O209 C203 1.263 1_554 S
O209 Tb204 2.353 . S
C210 O214 1.245 . S
C210 O215 1.259 . S
C211 O216 1.250 . S
C211 O217 1.283 . S
O212 Tb204 2.427 1_556 S
O212 C208 1.275 . S
O213 Tb204 2.513 1_556 S
O213 C208 1.246 . S
O214 Tb204 2.453 . S
O214 C210 1.245 . S
O215 Tb202 2.343 1_554 S
O215 Tb204 2.596 . S
O215 C210 1.259 . S
O216 Tb204 2.374 . S
O216 C211 1.250 . S
O217 Tb202 2.348 1_554 S
O217 C211 1.283 . S
C218 O219 1.275 . S
C218 O220 1.246 . S
O219 Tb202 2.427 1_554 S
O219 C218 1.275 . S
O220 Tb202 2.513 1_554 S
O220 C218 1.246 . S
C221 O205 1.245 . S
C221 O206 1.259 . S
Tb222 O225 2.453 . S
Tb222 O226 2.596 . S
Tb222 O227 2.374 . S
Tb222 O235 2.343 . S
Tb222 O237 2.353 . S
Tb222 O239 2.427 . S
Tb222 O240 2.513 . S
C223 O227 1.251 . S
C223 O229 1.263 . S
Tb224 O226 2.343 . S
Tb224 O229 2.353 . S
Tb224 O232 2.427 . S
Tb224 O233 2.513 . S
Tb224 O234 2.453 . S
Tb224 O235 2.596 . S
Tb224 O236 2.374 . S
O225 Tb222 2.453 . S
O225 C241 1.245 . S
O226 Tb222 2.596 . S
O226 Tb224 2.343 . S
O226 C241 1.259 . S
O227 Tb222 2.374 . S
O227 C223 1.251 . S
C228 O232 1.275 . S
C228 O233 1.246 . S
O229 C223 1.263 . S
O229 Tb224 2.353 . S
C230 O234 1.245 . S
C230 O235 1.259 . S
C231 O236 1.250 . S
C231 O237 1.263 . S
O232 Tb224 2.427 . S
O232 C228 1.275 . S
O233 Tb224 2.513 . S
O233 C228 1.246 . S
O234 Tb224 2.453 . S
O234 C230 1.245 . S
O235 Tb222 2.343 . S
O235 Tb224 2.596 . S
O235 C230 1.259 . S
O236 Tb224 2.374 . S
O236 C231 1.250 . S
O237 Tb222 2.353 . S
O237 C231 1.263 . S
C238 O239 1.275 . S
C238 O240 1.246 . S
O239 Tb222 2.427 . S
O239 C238 1.275 . S
O240 Tb222 2.513 . S
O240 C238 1.246 . S
C241 O225 1.245 . S
C241 O226 1.259 . S
Tb242 O245 2.453 . S
Tb242 O246 2.596 . S
Tb242 O247 2.374 . S
Tb242 O255 2.343 . S
Tb242 O257 2.353 . S
Tb242 O259 2.427 . S
Tb242 O260 2.513 . S
C243 O247 1.251 . S
C243 O249 1.263 . S
Tb244 O246 2.343 . S
Tb244 O249 2.353 . S
Tb244 O252 2.427 . S
Tb244 O253 2.513 . S
Tb244 O254 2.453 . S
Tb244 O255 2.596 . S
Tb244 O256 2.374 . S
O245 Tb242 2.453 . S
O245 C261 1.245 . S
O246 Tb242 2.596 . S
O246 Tb244 2.343 . S
O246 C261 1.259 . S
O247 Tb242 2.374 . S
O247 C243 1.251 . S
C248 O252 1.275 . S
C248 O253 1.246 . S
O249 C243 1.263 . S
O249 Tb244 2.353 . S
C250 O254 1.245 . S
C250 O255 1.259 . S
C251 O256 1.250 . S
C251 O257 1.263 . S
O252 Tb244 2.427 . S
O252 C248 1.275 . S
O253 Tb244 2.513 . S
O253 C248 1.246 . S
O254 Tb244 2.453 . S
O254 C250 1.245 . S
O255 Tb242 2.343 . S
O255 Tb244 2.596 . S
O255 C250 1.259 . S
O256 Tb244 2.374 . S
O256 C251 1.250 . S
O257 Tb242 2.353 . S
O257 C251 1.263 . S
C258 O259 1.275 . S
C258 O260 1.246 . S
O259 Tb242 2.427 . S
O259 C258 1.275 . S
O260 Tb242 2.513 . S
O260 C258 1.246 . S
C261 O245 1.245 . S
C261 O246 1.259 . S
Tb262 O265 2.453 . S
Tb262 O266 2.596 . S
Tb262 O267 2.374 . S
Tb262 O275 2.343 . S
Tb262 O277 2.353 . S
Tb262 O279 2.427 . S
Tb262 O280 2.513 . S
C263 O267 1.251 . S
C263 O269 1.263 . S
Tb264 O266 2.343 . S
Tb264 O269 2.353 . S
Tb264 O272 2.427 . S
Tb264 O273 2.513 . S
Tb264 O274 2.453 . S
Tb264 O275 2.596 . S
Tb264 O276 2.374 . S
O265 Tb262 2.453 . S
O265 C281 1.245 . S
O266 Tb262 2.596 . S
O266 Tb264 2.343 . S
O266 C281 1.259 . S
O267 Tb262 2.374 . S
O267 C263 1.251 . S
C268 O272 1.275 . S
C268 O273 1.246 . S
O269 C263 1.263 . S
O269 Tb264 2.353 . S
C270 O274 1.245 . S
C270 O275 1.259 . S
C271 O276 1.250 . S
C271 O277 1.263 . S
O272 Tb264 2.427 . S
O272 C268 1.275 . S
O273 Tb264 2.513 . S
O273 C268 1.246 . S
O274 Tb264 2.453 . S
O274 C270 1.245 . S
O275 Tb262 2.343 . S
O275 Tb264 2.596 . S
O275 C270 1.259 . S
O276 Tb264 2.374 . S
O276 C271 1.250 . S
O277 Tb262 2.353 . S
O277 C271 1.263 . S
C278 O279 1.275 . S
C278 O280 1.246 . S
O279 Tb262 2.427 . S
O279 C278 1.275 . S
O280 Tb262 2.513 . S
O280 C278 1.246 . S
C281 O265 1.245 . S
C281 O266 1.259 . S
Tb282 O285 2.453 . S
Tb282 O286 2.596 . S
Tb282 O287 2.374 . S
Tb282 O295 2.343 . S
Tb282 O297 2.353 . S
Tb282 O299 2.427 . S
Tb282 O300 2.513 . S
C283 O287 1.251 . S
C283 O289 1.263 . S
Tb284 O286 2.343 . S
Tb284 O289 2.353 . S
Tb284 O292 2.427 . S
Tb284 O293 2.513 . S
Tb284 O294 2.453 . S
Tb284 O295 2.596 . S
Tb284 O296 2.374 . S
O285 Tb282 2.453 . S
O285 C301 1.245 . S
O286 Tb282 2.596 . S
O286 Tb284 2.343 . S
O286 C301 1.259 . S
O287 Tb282 2.374 . S
O287 C283 1.251 . S
C288 O292 1.275 . S
C288 O293 1.246 . S
O289 C283 1.263 . S
O289 Tb284 2.353 . S
C290 O294 1.245 . S
C290 O295 1.259 . S
C291 O296 1.250 . S
C291 O297 1.263 . S
O292 Tb284 2.427 . S
O292 C288 1.275 . S
O293 Tb284 2.513 . S
O293 C288 1.246 . S
O294 Tb284 2.453 . S
O294 C290 1.245 . S
O295 Tb282 2.343 . S
O295 Tb284 2.596 . S
O295 C290 1.259 . S
O296 Tb284 2.374 . S
O296 C291 1.250 . S
O297 Tb282 2.353 . S
O297 C291 1.263 . S
C298 O299 1.275 . S
C298 O300 1.246 . S
O299 Tb282 2.427 . S
O299 C298 1.275 . S
O300 Tb282 2.513 . S
O300 C298 1.246 . S
C301 O285 1.245 . S
C301 O286 1.259 . S
Tb302 O305 2.453 . S
Tb302 O306 2.596 . S
Tb302 O307 2.374 . S
Tb302 O315 2.343 . S
Tb302 O317 2.353 . S
Tb302 O319 2.427 . S
Tb302 O320 2.513 . S
C303 O307 1.251 . S
C303 O309 1.263 . S
Tb304 O306 2.343 . S
Tb304 O309 2.353 . S
Tb304 O312 2.427 . S
Tb304 O313 2.513 . S
Tb304 O314 2.453 . S
Tb304 O315 2.596 . S
Tb304 O316 2.374 . S
O305 Tb302 2.453 . S
O305 C321 1.245 . S
O306 Tb302 2.596 . S
O306 Tb304 2.343 . S
O306 C321 1.259 . S
O307 Tb302 2.374 . S
O307 C303 1.251 . S
C308 O312 1.275 . S
C308 O313 1.246 . S
O309 C303 1.263 . S
O309 Tb304 2.353 . S
C310 O314 1.245 . S
C310 O315 1.259 . S
C311 O316 1.250 . S
C311 O317 1.263 . S
O312 Tb304 2.427 . S
O312 C308 1.275 . S
O313 Tb304 2.513 . S
O313 C308 1.246 . S
O314 Tb304 2.453 . S
O314 C310 1.245 . S
O315 Tb302 2.343 . S
O315 Tb304 2.596 . S
O315 C310 1.259 . S
O316 Tb304 2.374 . S
O316 C311 1.250 . S
O317 Tb302 2.353 . S
O317 C311 1.263 . S
C318 O319 1.275 . S
C318 O320 1.246 . S
O319 Tb302 2.427 . S
O319 C318 1.275 . S
O320 Tb302 2.513 . S
O320 C318 1.246 . S
C321 O305 1.245 . S
C321 O306 1.259 . S
Tb322 O325 2.453 . S
Tb322 O326 2.596 . S
Tb322 O327 2.374 . S
Tb322 O335 2.343 . S
Tb322 O337 2.353 . S
Tb322 O339 2.427 . S
Tb322 O340 2.513 . S
C323 O327 1.251 . S
C323 O329 1.263 . S
Tb324 O326 2.343 . S
Tb324 O329 2.353 . S
Tb324 O332 2.427 . S
Tb324 O333 2.513 . S
Tb324 O334 2.453 . S
Tb324 O335 2.596 . S
Tb324 O336 2.374 . S
O325 Tb322 2.453 . S
O325 C341 1.245 . S
O326 Tb322 2.596 . S
O326 Tb324 2.343 . S
O326 C341 1.259 . S
O327 Tb322 2.374 . S
O327 C323 1.251 . S
C328 O332 1.275 . S
C328 O333 1.246 . S
O329 C323 1.263 . S
O329 Tb324 2.353 . S
C330 O334 1.245 . S
C330 O335 1.259 . S
C331 O336 1.250 . S
C331 O337 1.263 . S
O332 Tb324 2.427 . S
O332 C328 1.275 . S
O333 Tb324 2.513 . S
O333 C328 1.246 . S
O334 Tb324 2.453 . S
O334 C330 1.245 . S
O335 Tb322 2.343 . S
O335 Tb324 2.596 . S
O335 C330 1.259 . S
O336 Tb324 2.374 . S
O336 C331 1.250 . S
O337 Tb322 2.353 . S
O337 C331 1.263 . S
C338 O339 1.275 . S
C338 O340 1.246 . S
O339 Tb322 2.427 . S
O339 C338 1.275 . S
O340 Tb322 2.513 . S
O340 C338 1.246 . S
C341 O325 1.245 . S
C341 O326 1.259 . S
H342 C354 0.930 . S
H343 C356 0.930 . S
H344 C357 0.930 . S
H345 C361 0.959 . S
H346 C361 0.959 . S
H347 C361 0.961 . S
H348 C362 0.960 . S
H349 C362 0.961 . S
H350 C362 0.959 . S
H351 C365 0.929 . S
H352 C366 0.931 . S
H353 C368 0.930 . S
C354 H342 0.930 . S
C354 C355 1.399 . S
C354 C359 1.399 . S
C355 C354 1.399 . S
C355 C356 1.376 . S
C356 H343 0.930 . S
C356 C355 1.376 . S
C356 C357 1.388 . S
C357 H344 0.930 . S
C357 C356 1.388 . S
C357 C358 1.390 . S
C358 C357 1.390 . S
C358 C359 1.394 . S
C358 C364 1.465 . S
C359 C354 1.399 . S
C359 C358 1.394 . S
C359 C360 1.516 . S
C360 C359 1.516 . S
C360 C361 1.502 . S
C360 C362 1.561 . S
C360 C363 1.526 . S
C361 H345 0.959 . S
C361 H346 0.959 . S
C361 H347 0.961 . S
C361 C360 1.502 . S
C362 H348 0.960 . S
C362 H349 0.961 . S
C362 H350 0.959 . S
C362 C360 1.561 . S
C363 C360 1.526 . S
C363 C364 1.396 . S
C363 C368 1.390 . S
C364 C358 1.465 . S
C364 C363 1.396 . S
C364 C365 1.399 . S
C365 H351 0.929 . S
C365 C364 1.399 . S
C365 C366 1.385 . S
C366 H352 0.931 . S
C366 C365 1.385 . S
C366 C367 1.389 . S
C367 C366 1.389 . S
C367 C368 1.387 . S
C368 H353 0.930 . S
C368 C363 1.390 . S
C368 C367 1.387 . S
H369 C381 0.930 . S
H370 C383 0.930 . S
H371 C384 0.930 . S
H372 C388 0.959 . S
H373 C388 0.959 . S
H374 C388 0.961 . S
H375 C389 0.960 . S
H376 C389 0.961 . S
H377 C389 0.959 . S
H378 C392 0.929 . S
H379 C393 0.931 . S
H380 C395 0.930 . S
C381 H369 0.930 . S
C381 C382 1.399 . S
C381 C386 1.399 . S
C382 C381 1.399 . S
C382 C383 1.376 . S
C383 H370 0.930 . S
C383 C382 1.376 . S
C383 C384 1.388 . S
C384 H371 0.930 . S
C384 C383 1.388 . S
C384 C385 1.390 . S
C385 C384 1.390 . S
C385 C386 1.394 . S
C385 C391 1.465 . S
C386 C381 1.399 . S
C386 C385 1.394 . S
C386 C387 1.516 . S
C387 C386 1.516 . S
C387 C388 1.502 . S
C387 C389 1.561 . S
C387 C390 1.526 . S
C388 H372 0.959 . S
C388 H373 0.959 . S
C388 H374 0.961 . S
C388 C387 1.502 . S
C389 H375 0.960 . S
C389 H376 0.961 . S
C389 H377 0.959 . S
C389 C387 1.561 . S
C390 C387 1.526 . S
C390 C391 1.396 . S
C390 C395 1.390 . S
C391 C385 1.465 . S
C391 C390 1.396 . S
C391 C392 1.399 . S
C392 H378 0.929 . S
C392 C391 1.399 . S
C392 C393 1.385 . S
C393 H379 0.931 . S
C393 C392 1.385 . S
C393 C394 1.389 . S
C394 C393 1.389 . S
C394 C395 1.387 . S
C395 H380 0.930 . S
C395 C390 1.390 . S
C395 C394 1.387 . S
H396 C408 0.930 . S
H397 C410 0.930 . S
H398 C411 0.930 . S
H399 C415 0.959 . S
H400 C415 0.959 . S
H401 C415 0.961 . S
H402 C416 0.960 . S
H403 C416 0.961 . S
H404 C416 0.959 . S
H405 C419 0.929 1_556 S
H406 C420 0.931 1_556 S
H407 C422 0.930 . S
C408 H396 0.930 . S
C408 C409 1.399 . S
C408 C413 1.399 . S
C409 C408 1.399 . S
C409 C410 1.376 . S
C410 H397 0.930 . S
C410 C409 1.376 . S
C410 C411 1.388 . S
C411 H398 0.930 . S
C411 C410 1.388 . S
C411 C412 1.390 . S
C412 C411 1.390 . S
C412 C413 1.394 . S
C412 C418 1.465 . S
C413 C408 1.399 . S
C413 C412 1.394 . S
C413 C414 1.516 . S
C414 C413 1.516 . S
C414 C415 1.502 . S
C414 C416 1.561 . S
C414 C417 1.526 . S
C415 H399 0.959 . S
C415 H400 0.959 . S
C415 H401 0.961 . S
C415 C414 1.502 . S
C416 H402 0.960 . S
C416 H403 0.961 . S
C416 H404 0.959 . S
C416 C414 1.561 . S
C417 C414 1.526 . S
C417 C418 1.396 . S
C417 C422 1.390 . S
C418 C412 1.465 . S
C418 C417 1.396 . S
C418 C419 1.399 . S
C419 H405 0.929 1_554 S
C419 C418 1.399 . S
C419 C420 1.385 . S
C420 H406 0.931 1_554 S
C420 C419 1.385 . S
C420 C421 1.389 . S
C421 C420 1.389 . S
C421 C422 1.387 . S
C422 H407 0.930 . S
C422 C417 1.390 . S
C422 C421 1.387 . S
H423 C435 0.930 . S
H424 C437 0.930 . S
H425 C438 0.930 . S
H426 C442 0.959 . S
H427 C442 0.959 . S
H428 C442 0.961 . S
H429 C443 0.960 . S
H430 C443 0.961 . S
H431 C443 0.959 . S
H432 C446 0.929 . S
H433 C447 0.931 1_554 S
H434 C449 0.930 . S
C435 H423 0.930 . S
C435 C436 1.399 . S
C435 C440 1.399 . S
C436 C435 1.399 . S
C436 C437 1.376 . S
C437 H424 0.930 . S
C437 C436 1.376 . S
C437 C438 1.388 . S
C438 H425 0.930 . S
C438 C437 1.388 . S
C438 C439 1.390 . S
C439 C438 1.390 . S
C439 C440 1.394 . S
C439 C445 1.465 . S
C440 C435 1.399 . S
C440 C439 1.394 . S
C440 C441 1.516 . S
C441 C440 1.516 . S
C441 C442 1.502 . S
C441 C443 1.561 . S
C441 C444 1.526 . S
C442 H426 0.959 . S
C442 H427 0.959 . S
C442 H428 0.961 . S
C442 C441 1.502 . S
C443 H429 0.960 . S
C443 H430 0.961 . S
C443 H431 0.959 . S
C443 C441 1.561 . S
C444 C441 1.526 . S
C444 C445 1.396 . S
C444 C449 1.390 . S
C445 C439 1.465 . S
C445 C444 1.396 . S
C445 C446 1.399 . S
C446 H432 0.929 . S
C446 C445 1.399 . S
C446 C447 1.385 . S
C447 H433 0.931 1_556 S
C447 C446 1.385 . S
C447 C448 1.389 . S
C448 C447 1.389 . S
C448 C449 1.387 . S
C449 H434 0.930 . S
C449 C444 1.390 . S
C449 C448 1.387 . S
H450 C462 0.930 . S
H451 C464 0.930 . S
H452 C465 0.930 . S
H453 C469 0.959 . S
H454 C469 0.959 . S
H455 C469 0.961 . S
H456 C470 0.960 . S
H457 C470 0.961 . S
H458 C470 0.959 . S
H459 C473 0.929 . S
H460 C474 0.931 . S
H461 C476 0.930 . S
C462 H450 0.930 . S
C462 C463 1.399 . S
C462 C467 1.399 . S
C463 C462 1.399 . S
C463 C464 1.376 . S
C464 H451 0.930 . S
C464 C463 1.376 . S
C464 C465 1.388 . S
C465 H452 0.930 . S
C465 C464 1.388 . S
C465 C466 1.390 . S
C466 C465 1.390 . S
C466 C467 1.394 . S
C466 C472 1.465 . S
C467 C462 1.399 . S
C467 C466 1.394 . S
C467 C468 1.516 . S
C468 C467 1.516 . S
C468 C469 1.502 . S
C468 C470 1.561 . S
C468 C471 1.526 . S
C469 H453 0.959 . S
C469 H454 0.959 . S
C469 H455 0.961 . S
C469 C468 1.502 . S
C470 H456 0.960 . S
C470 H457 0.961 . S
C470 H458 0.959 . S
C470 C468 1.561 . S
C471 C468 1.526 . S
C471 C472 1.396 . S
C471 C476 1.390 . S
C472 C466 1.465 . S
C472 C471 1.396 . S
C472 C473 1.399 . S
C473 H459 0.929 . S
C473 C472 1.399 . S
C473 C474 1.385 . S
C474 H460 0.931 . S
C474 C473 1.385 . S
C474 C475 1.389 . S
C475 C474 1.389 . S
C475 C476 1.387 . S
C476 H461 0.930 . S
C476 C471 1.390 . S
C476 C475 1.387 . S
H477 C489 0.930 . S
H478 C491 0.930 . S
H479 C492 0.930 . S
H480 C496 0.959 . S
H481 C496 0.959 . S
H482 C496 0.961 . S
H483 C497 0.960 . S
H484 C497 0.961 . S
H485 C497 0.959 . S
H486 C500 0.929 . S
H487 C501 0.931 . S
H488 C503 0.930 1_554 S
C489 H477 0.930 . S
C489 C490 1.399 . S
C489 C494 1.399 . S
C490 C489 1.399 . S
C490 C491 1.376 . S
C491 H478 0.930 . S
C491 C490 1.376 . S
C491 C492 1.388 . S
C492 H479 0.930 . S
C492 C491 1.388 . S
C492 C493 1.390 . S
C493 C492 1.390 . S
C493 C494 1.394 . S
C493 C499 1.465 . S
C494 C489 1.399 . S
C494 C493 1.394 . S
C494 C495 1.516 . S
C495 C494 1.516 . S
C495 C496 1.502 1_556 S
C495 C497 1.561 . S
C495 C498 1.526 . S
C496 H480 0.959 . S
C496 H481 0.959 . S
C496 H482 0.961 . S
C496 C495 1.502 1_554 S
C497 H483 0.960 . S
C497 H484 0.961 . S
C497 H485 0.959 . S
C497 C495 1.561 . S
C498 C495 1.526 . S
C498 C499 1.396 . S
C498 C503 1.390 . S
C499 C493 1.465 . S
C499 C498 1.396 . S
C499 C500 1.399 . S
C500 H486 0.929 . S
C500 C499 1.399 . S
C500 C501 1.385 . S
C501 H487 0.931 . S
C501 C500 1.385 . S
C501 C502 1.389 . S
C502 C501 1.389 . S
C502 C503 1.387 . S
C503 H488 0.930 1_556 S
C503 C498 1.390 . S
C503 C502 1.387 . S
H504 C516 0.930 . S
H505 C518 0.930 . S
H506 C519 0.930 . S
H507 C523 0.959 . S
H508 C523 0.959 1_554 S
H509 C523 0.961 . S
H510 C524 0.960 . S
H511 C524 0.961 . S
H512 C524 0.959 . S
H513 C527 0.929 . S
H514 C528 0.931 . S
H515 C530 0.930 . S
C516 H504 0.930 . S
C516 C517 1.399 . S
C516 C521 1.399 . S
C517 C516 1.399 . S
C517 C518 1.376 . S
C518 H505 0.930 . S
C518 C517 1.376 . S
C518 C519 1.388 . S
C519 H506 0.930 . S
C519 C518 1.388 . S
C519 C520 1.390 . S
C520 C519 1.390 . S
C520 C521 1.394 . S
C520 C526 1.465 . S
C521 C516 1.399 . S
C521 C520 1.394 . S
C521 C522 1.516 . S
C522 C521 1.516 . S
C522 C523 1.502 . S
C522 C524 1.561 . S
C522 C525 1.526 . S
C523 H507 0.959 . S
C523 H508 0.959 1_556 S
C523 H509 0.961 . S
C523 C522 1.502 . S
C524 H510 0.960 . S
C524 H511 0.961 . S
C524 H512 0.959 . S
C524 C522 1.561 . S
C525 C522 1.526 . S
C525 C526 1.396 . S
C525 C530 1.390 . S
C526 C520 1.465 . S
C526 C525 1.396 . S
C526 C527 1.399 . S
C527 H513 0.929 . S
C527 C526 1.399 . S
C527 C528 1.385 . S
C528 H514 0.931 . S
C528 C527 1.385 . S
C528 C529 1.389 . S
C529 C528 1.389 . S
C529 C530 1.387 . S
C530 H515 0.930 . S
C530 C525 1.390 . S
C530 C529 1.387 . S
H531 C543 0.930 . S
H532 C545 0.930 . S
H533 C546 0.930 . S
H534 C550 0.959 . S
H535 C550 0.959 . S
H536 C550 0.961 . S
H537 C551 0.960 . S
H538 C551 0.961 . S
H539 C551 0.959 . S
H540 C554 0.929 . S
H541 C555 0.931 . S
H542 C557 0.930 . S
C543 H531 0.930 . S
C543 C544 1.399 . S
C543 C548 1.399 . S
C544 C543 1.399 . S
C544 C545 1.376 . S
C545 H532 0.930 . S
C545 C544 1.376 . S
C545 C546 1.388 . S
C546 H533 0.930 . S
C546 C545 1.388 . S
C546 C547 1.390 . S
C547 C546 1.390 . S
C547 C548 1.394 . S
C547 C553 1.465 . S
C548 C543 1.399 . S
C548 C547 1.394 . S
C548 C549 1.516 . S
C549 C548 1.516 . S
C549 C550 1.502 . S
C549 C551 1.561 . S
C549 C552 1.526 . S
C550 H534 0.959 . S
C550 H535 0.959 . S
C550 H536 0.961 . S
C550 C549 1.502 . S
C551 H537 0.960 . S
C551 H538 0.961 . S
C551 H539 0.959 . S
C551 C549 1.561 . S
C552 C549 1.526 . S
C552 C553 1.396 . S
C552 C557 1.390 . S
C553 C547 1.465 . S
C553 C552 1.396 . S
C553 C554 1.399 . S
C554 H540 0.929 . S
C554 C553 1.399 . S
C554 C555 1.385 . S
C555 H541 0.931 . S
C555 C554 1.385 . S
C555 C556 1.389 . S
C556 C555 1.389 . S
C556 C557 1.387 . S
C557 H542 0.930 . S
C557 C552 1.390 . S
C557 C556 1.387 . S
H558 C570 0.930 . S
H559 C572 0.930 . S
H560 C573 0.930 . S
H561 C577 0.959 . S
H562 C577 0.959 1_554 S
H563 C577 0.961 1_554 S
H564 C578 0.962 1_554 S
H565 C578 0.965 1_554 S
H566 C578 0.956 . S
H567 C581 0.929 . S
H568 C582 0.931 . S
H569 C584 0.930 1_554 S
C570 H558 0.930 . S
C570 C571 1.399 . S
C570 C575 1.399 . S
C571 C570 1.399 . S
C571 C572 1.376 . S
C572 H559 0.930 . S
C572 C571 1.376 . S
C572 C573 1.388 . S
C573 H560 0.930 . S
C573 C572 1.388 . S
C573 C574 1.390 . S
C574 C573 1.390 . S
C574 C575 1.394 . S
C574 C580 1.465 . S
C575 C570 1.399 . S
C575 C574 1.394 . S
C575 C576 1.516 . S
C576 C575 1.516 . S
C576 C577 1.502 . S
C576 C578 1.559 . S
C576 C579 1.526 . S
C577 H561 0.959 . S
C577 H562 0.959 1_556 S
C577 H563 0.961 1_556 S
C577 C576 1.502 . S
C578 H564 0.962 1_556 S
C578 H565 0.965 1_556 S
C578 H566 0.956 . S
C578 C576 1.559 . S
C579 C576 1.526 . S
C579 C580 1.396 . S
C579 C584 1.390 . S
C580 C574 1.465 . S
C580 C579 1.396 . S
C580 C581 1.399 . S
C581 H567 0.929 . S
C581 C580 1.399 . S
C581 C582 1.385 . S
C582 H568 0.931 . S
C582 C581 1.385 . S
C582 C583 1.389 . S
C583 C582 1.389 . S
C583 C584 1.387 . S
C584 H569 0.930 1_556 S
C584 C579 1.390 . S
C584 C583 1.387 . S
H585 C597 0.930 . S
H586 C599 0.930 . S
H587 C600 0.930 . S
H588 C604 0.959 . S
H589 C604 0.926 1_556 S
H590 C604 0.961 . S
H591 C605 0.960 . S
H592 C605 0.961 1_556 S
H593 C605 0.959 . S
H594 C608 0.929 . S
H595 C609 0.931 . S
H596 C611 0.930 . S
C597 H585 0.930 . S
C597 C598 1.399 . S
C597 C602 1.399 . S
C598 C597 1.399 . S
C598 C599 1.376 . S
C599 H586 0.930 . S
C599 C598 1.376 . S
C599 C600 1.388 . S
C600 H587 0.930 . S
C600 C599 1.388 . S
C600 C601 1.390 . S
C601 C600 1.390 . S
C601 C602 1.394 . S
C601 C607 1.465 . S
C602 C597 1.399 . S
C602 C601 1.394 . S
C602 C603 1.516 . S
C603 C602 1.516 . S
C603 C604 1.502 . S
C603 C605 1.561 . S
C603 C606 1.526 . S
C604 H588 0.959 . S
C604 H589 0.926 1_554 S
C604 H590 0.961 . S
C604 C603 1.502 . S
C605 H591 0.960 . S
C605 H592 0.961 1_554 S
C605 H593 0.959 . S
C605 C603 1.561 . S
C606 C603 1.526 . S
C606 C607 1.396 . S
C606 C611 1.390 . S
C607 C601 1.465 . S
C607 C606 1.396 . S
C607 C608 1.399 . S
C608 H594 0.929 . S
C608 C607 1.399 . S
C608 C609 1.385 . S
C609 H595 0.931 . S
C609 C608 1.385 . S
C609 C610 1.389 . S
C610 C609 1.389 . S
C610 C611 1.387 . S
C611 H596 0.930 . S
C611 C606 1.390 . S
C611 C610 1.387 . S
H612 C624 0.930 . S
H613 C626 0.930 . S
H614 C627 0.930 . S
H615 C631 0.959 . S
H616 C631 0.959 . S
H617 C631 0.961 . S
H618 C632 0.960 . S
H619 C632 0.961 . S
H620 C632 0.959 . S
H621 C635 0.929 . S
H622 C636 0.931 . S
H623 C638 0.930 . S
C624 H612 0.930 . S
C624 C625 1.399 . S
C624 C629 1.399 . S
C625 C624 1.399 . S
C625 C626 1.376 . S
C626 H613 0.930 . S
C626 C625 1.376 . S
C626 C627 1.388 . S
C627 H614 0.930 . S
C627 C626 1.388 . S
C627 C628 1.390 . S
C628 C627 1.390 . S
C628 C629 1.394 . S
C628 C634 1.465 . S
C629 C624 1.399 . S
C629 C628 1.394 . S
C629 C630 1.516 . S
C630 C629 1.516 . S
C630 C631 1.502 . S
C630 C632 1.561 . S
C630 C633 1.526 . S
C631 H615 0.959 . S
C631 H616 0.959 . S
C631 H617 0.961 . S
C631 C630 1.502 . S
C632 H618 0.960 . S
C632 H619 0.961 . S
C632 H620 0.959 . S
C632 C630 1.561 . S
C633 C630 1.526 . S
C633 C634 1.396 . S
C633 C638 1.390 . S
C634 C628 1.465 . S
C634 C633 1.396 . S
C634 C635 1.399 . S
C635 H621 0.929 . S
C635 C634 1.399 . S
C635 C636 1.385 . S
C636 H622 0.931 . S
C636 C635 1.385 . S
C636 C637 1.389 . S
C637 C636 1.389 . S
C637 C638 1.387 . S
C638 H623 0.930 . S
C638 C633 1.390 . S
C638 C637 1.387 . S
H639 C651 0.930 . S
H640 C653 0.930 . S
H641 C654 0.930 . S
H642 C658 0.960 1_554 S
H643 C658 0.956 . S
H644 C658 0.960 . S
H645 C659 0.960 . S
H646 C659 0.961 . S
H647 C659 0.959 . S
H648 C662 0.929 . S
H649 C663 0.931 . S
H650 C665 0.930 1_556 S
C651 H639 0.930 . S
C651 C652 1.399 . S
C651 C656 1.399 . S
C652 C651 1.399 . S
C652 C653 1.376 . S
C653 H640 0.930 . S
C653 C652 1.376 . S
C653 C654 1.388 . S
C654 H641 0.930 . S
C654 C653 1.388 . S
C654 C655 1.390 . S
C655 C654 1.390 . S
C655 C656 1.394 . S
C655 C661 1.465 . S
C656 C651 1.399 . S
C656 C655 1.394 . S
C656 C657 1.516 . S
C657 C656 1.516 . S
C657 C658 1.505 1_554 S
C657 C659 1.561 . S
C657 C660 1.526 . S
C658 H642 0.960 1_556 S
C658 H643 0.956 . S
C658 H644 0.960 . S
C658 C657 1.505 1_556 S
C659 H645 0.960 . S
C659 H646 0.961 . S
C659 H647 0.959 . S
C659 C657 1.561 . S
C660 C657 1.526 . S
C660 C661 1.396 . S
C660 C665 1.390 . S
C661 C655 1.465 . S
C661 C660 1.396 . S
C661 C662 1.399 . S
C662 H648 0.929 . S
C662 C661 1.399 . S
C662 C663 1.385 . S
C663 H649 0.931 . S
C663 C662 1.385 . S
C663 C664 1.389 . S
C664 C663 1.389 . S
C664 C665 1.387 . S
C665 H650 0.930 1_554 S
C665 C660 1.390 . S
C665 C664 1.387 . S
H666 C678 0.930 . S
H667 C680 0.930 . S
H668 C681 0.930 . S
H669 C685 0.959 . S
H670 C685 0.959 . S
H671 C685 0.961 . S
H672 C686 0.960 . S
H673 C686 0.961 . S
H674 C686 0.959 . S
H675 C689 0.929 . S
H676 C690 0.931 . S
H677 C692 0.930 . S
C678 H666 0.930 . S
C678 C679 1.399 . S
C678 C683 1.399 . S
C679 C678 1.399 . S
C679 C680 1.376 . S
C680 H667 0.930 . S
C680 C679 1.376 . S
C680 C681 1.388 . S
C681 H668 0.930 . S
C681 C680 1.388 . S
C681 C682 1.390 . S
C682 C681 1.390 . S
C682 C683 1.394 . S
C682 C688 1.465 1_655 S
C683 C678 1.399 . S
C683 C682 1.394 . S
C683 C684 1.516 . S
C684 C683 1.516 . S
C684 C685 1.502 . S
C684 C686 1.561 . S
C684 C687 1.526 1_655 S
C685 H669 0.959 . S
C685 H670 0.959 . S
C685 H671 0.961 . S
C685 C684 1.502 . S
C686 H672 0.960 . S
C686 H673 0.961 . S
C686 H674 0.959 . S
C686 C684 1.561 . S
C687 C684 1.526 1_455 S
C687 C688 1.396 . S
C687 C692 1.390 . S
C688 C682 1.465 1_455 S
C688 C687 1.396 . S
C688 C689 1.399 . S
C689 H675 0.929 . S
C689 C688 1.399 . S
C689 C690 1.385 . S
C690 H676 0.931 . S
C690 C689 1.385 . S
C690 C691 1.389 . S
C691 C690 1.389 . S
C691 C692 1.387 . S
C692 H677 0.930 . S
C692 C687 1.390 . S
C692 C691 1.387 . S
H693 C705 0.930 . S
H694 C707 0.930 . S
H695 C708 0.930 . S
H696 C712 0.959 . S
H697 C712 0.959 . S
H698 C712 0.961 . S
H699 C713 0.960 . S
H700 C713 0.961 . S
H701 C713 0.959 . S
H702 C716 0.929 . S
H703 C717 0.931 . S
H704 C719 0.930 . S
C705 H693 0.930 . S
C705 C706 1.399 . S
C705 C710 1.399 . S
C706 C705 1.399 . S
C706 C707 1.376 . S
C707 H694 0.930 . S
C707 C706 1.376 . S
C707 C708 1.388 . S
C708 H695 0.930 . S
C708 C707 1.388 . S
C708 C709 1.390 . S
C709 C708 1.390 . S
C709 C710 1.394 . S
C709 C715 1.465 . S
C710 C705 1.399 . S
C710 C709 1.394 . S
C710 C711 1.516 . S
C711 C710 1.516 . S
C711 C712 1.502 . S
C711 C713 1.561 . S
C711 C714 1.526 . S
C712 H696 0.959 . S
C712 H697 0.959 . S
C712 H698 0.961 . S
C712 C711 1.502 . S
C713 H699 0.960 . S
C713 H700 0.961 . S
C713 H701 0.959 . S
C713 C711 1.561 . S
C714 C711 1.526 . S
C714 C715 1.396 . S
C714 C719 1.390 . S
C715 C709 1.465 . S
C715 C714 1.396 . S
C715 C716 1.399 . S
C716 H702 0.929 . S
C716 C715 1.399 . S
C716 C717 1.385 . S
C717 H703 0.931 . S
C717 C716 1.385 . S
C717 C718 1.389 . S
C718 C717 1.389 . S
C718 C719 1.387 . S
C719 H704 0.930 . S
C719 C714 1.390 . S
C719 C718 1.387 . S
H720 C732 0.930 . S
H721 C734 0.930 . S
H722 C735 0.930 . S
H723 C739 0.959 . S
H724 C739 0.959 . S
H725 C739 0.961 . S
H726 C740 0.960 . S
H727 C740 0.961 . S
H728 C740 0.959 . S
H729 C743 0.929 . S
H730 C744 0.931 . S
H731 C746 0.930 . S
C732 H720 0.930 . S
C732 C733 1.399 . S
C732 C737 1.399 . S
C733 C732 1.399 . S
C733 C734 1.376 . S
C734 H721 0.930 . S
C734 C733 1.376 . S
C734 C735 1.388 . S
C735 H722 0.930 . S
C735 C734 1.388 . S
C735 C736 1.390 . S
C736 C735 1.390 . S
C736 C737 1.394 . S
C736 C742 1.465 1_545 S
C737 C732 1.399 . S
C737 C736 1.394 . S
C737 C738 1.516 . S
C738 C737 1.516 . S
C738 C739 1.502 . S
C738 C740 1.561 . S
C738 C741 1.526 1_545 S
C739 H723 0.959 . S
C739 H724 0.959 . S
C739 H725 0.961 . S
C739 C738 1.502 . S
C740 H726 0.960 . S
C740 H727 0.961 . S
C740 H728 0.959 . S
C740 C738 1.561 . S
C741 C738 1.526 1_565 S
C741 C742 1.396 . S
C741 C746 1.390 . S
C742 C736 1.465 1_565 S
C742 C741 1.396 . S
C742 C743 1.399 . S
C743 H729 0.929 . S
C743 C742 1.399 . S
C743 C744 1.385 . S
C744 H730 0.931 . S
C744 C743 1.385 . S
C744 C745 1.389 . S
C745 C744 1.389 . S
C745 C746 1.387 . S
C746 H731 0.930 . S
C746 C741 1.390 . S
C746 C745 1.387 . S
H747 C759 0.930 . S
H748 C761 0.930 . S
H749 C762 0.930 . S
H750 C766 0.959 . S
H751 C766 0.959 . S
H752 C766 0.961 . S
H753 C767 0.960 . S
H754 C767 0.961 . S
H755 C767 0.959 . S
H756 C770 0.929 . S
H757 C771 0.931 . S
H758 C773 0.930 . S
C759 H747 0.930 . S
C759 C760 1.399 . S
C759 C764 1.399 . S
C760 C759 1.399 . S
C760 C761 1.376 . S
C761 H748 0.930 . S
C761 C760 1.376 . S
C761 C762 1.388 . S
C762 H749 0.930 . S
C762 C761 1.388 . S
C762 C763 1.390 . S
C763 C762 1.390 . S
C763 C764 1.394 . S
C763 C769 1.465 . S
C764 C759 1.399 . S
C764 C763 1.394 . S
C764 C765 1.516 . S
C765 C764 1.516 . S
C765 C766 1.502 . S
C765 C767 1.561 . S
C765 C768 1.526 . S
C766 H750 0.959 . S
C766 H751 0.959 . S
C766 H752 0.961 . S
C766 C765 1.502 . S
C767 H753 0.960 . S
C767 H754 0.961 . S
C767 H755 0.959 . S
C767 C765 1.561 . S
C768 C765 1.526 . S
C768 C769 1.396 . S
C768 C773 1.390 . S
C769 C763 1.465 . S
C769 C768 1.396 . S
C769 C770 1.399 . S
C770 H756 0.929 . S
C770 C769 1.399 . S
C770 C771 1.385 . S
C771 H757 0.931 . S
C771 C770 1.385 . S
C771 C772 1.389 . S
C772 C771 1.389 . S
C772 C773 1.387 . S
C773 H758 0.930 . S
C773 C768 1.390 . S
C773 C772 1.387 . S
H774 C786 0.930 . S
H775 C788 0.930 . S
H776 C789 0.930 . S
H777 C793 0.959 . S
H778 C793 0.959 . S
H779 C793 0.961 . S
H780 C794 0.960 . S
H781 C794 0.961 . S
H782 C794 0.959 . S
H783 C797 0.929 . S
H784 C798 0.931 . S
H785 C800 0.930 . S
C786 H774 0.930 . S
C786 C787 1.399 . S
C786 C791 1.399 . S
C787 C786 1.399 . S
C787 C788 1.376 . S
C788 H775 0.930 . S
C788 C787 1.376 . S
C788 C789 1.388 . S
C789 H776 0.930 . S
C789 C788 1.388 . S
C789 C790 1.390 . S
C790 C789 1.390 . S
C790 C791 1.394 . S
C790 C796 1.465 . S
C791 C786 1.399 . S
C791 C790 1.394 . S
C791 C792 1.516 . S
C792 C791 1.516 . S
C792 C793 1.502 . S
C792 C794 1.561 . S
C792 C795 1.526 . S
C793 H777 0.959 . S
C793 H778 0.959 . S
C793 H779 0.961 . S
C793 C792 1.502 . S
C794 H780 0.960 . S
C794 H781 0.961 . S
C794 H782 0.959 . S
C794 C792 1.561 . S
C795 C792 1.526 . S
C795 C796 1.396 . S
C795 C800 1.390 . S
C796 C790 1.465 . S
C796 C795 1.396 . S
C796 C797 1.399 . S
C797 H783 0.929 . S
C797 C796 1.399 . S
C797 C798 1.385 . S
C798 H784 0.931 . S
C798 C797 1.385 . S
C798 C799 1.389 . S
C799 C798 1.389 . S
C799 C800 1.387 . S
C800 H785 0.930 . S
C800 C795 1.390 . S
C800 C799 1.387 . S
H801 C813 0.930 . S
H802 C815 0.930 . S
H803 C816 0.930 . S
H804 C820 0.959 . S
H805 C820 0.959 . S
H806 C820 0.961 . S
H807 C821 0.960 . S
H808 C821 0.961 . S
H809 C821 0.959 . S
H810 C824 0.929 . S
H811 C825 0.931 . S
H812 C827 0.930 . S
C813 H801 0.930 . S
C813 C814 1.399 . S
C813 C818 1.399 . S
C814 C813 1.399 . S
C814 C815 1.376 . S
C815 H802 0.930 . S
C815 C814 1.376 . S
C815 C816 1.388 . S
C816 H803 0.930 . S
C816 C815 1.388 . S
C816 C817 1.390 . S
C817 C816 1.390 . S
C817 C818 1.394 . S
C817 C823 1.465 . S
C818 C813 1.399 . S
C818 C817 1.394 . S
C818 C819 1.516 . S
C819 C818 1.516 . S
C819 C820 1.502 . S
C819 C821 1.561 . S
C819 C822 1.526 . S
C820 H804 0.959 . S
C820 H805 0.959 . S
C820 H806 0.961 . S
C820 C819 1.502 . S
C821 H807 0.960 . S
C821 H808 0.961 . S
C821 H809 0.959 . S
C821 C819 1.561 . S
C822 C819 1.526 . S
C822 C823 1.396 . S
C822 C827 1.390 . S
C823 C817 1.465 . S
C823 C822 1.396 . S
C823 C824 1.399 . S
C824 H810 0.929 . S
C824 C823 1.399 . S
C824 C825 1.385 . S
C825 H811 0.931 . S
C825 C824 1.385 . S
C825 C826 1.389 . S
C826 C825 1.389 . S
C826 C827 1.387 . S
C827 H812 0.930 . S
C827 C822 1.390 . S
C827 C826 1.387 . S
H828 C840 0.930 . S
H829 C842 0.930 . S
H830 C843 0.930 . S
H831 C847 0.959 . S
H832 C847 0.959 . S
H833 C847 0.961 . S
H834 C848 0.960 . S
H835 C848 0.961 . S
H836 C848 0.959 . S
H837 C851 0.929 . S
H838 C852 0.931 . S
H839 C854 0.930 . S
C840 H828 0.930 . S
C840 C841 1.399 . S
C840 C845 1.399 . S
C841 C840 1.399 . S
C841 C842 1.376 . S
C842 H829 0.930 . S
C842 C841 1.376 . S
C842 C843 1.388 . S
C843 H830 0.930 . S
C843 C842 1.388 . S
C843 C844 1.390 . S
C844 C843 1.390 . S
C844 C845 1.394 . S
C844 C850 1.465 . S
C845 C840 1.399 . S
C845 C844 1.394 . S
C845 C846 1.516 . S
C846 C845 1.516 . S
C846 C847 1.502 . S
C846 C848 1.561 . S
C846 C849 1.526 . S
C847 H831 0.959 . S
C847 H832 0.959 . S
C847 H833 0.961 . S
C847 C846 1.502 . S
C848 H834 0.960 . S
C848 H835 0.961 . S
C848 H836 0.959 . S
C848 C846 1.561 . S
C849 C846 1.526 . S
C849 C850 1.396 . S
C849 C854 1.390 . S
C850 C844 1.465 . S
C850 C849 1.396 . S
C850 C851 1.399 . S
C851 H837 0.929 . S
C851 C850 1.399 . S
C851 C852 1.385 . S
C852 H838 0.931 . S
C852 C851 1.385 . S
C852 C853 1.389 . S
C853 C852 1.389 . S
C853 C854 1.387 . S
C854 H839 0.930 . S
C854 C849 1.390 . S
C854 C853 1.387 . S
H855 C867 0.930 . S
H856 C869 0.930 . S
H857 C870 0.930 . S
H858 C874 0.959 . S
H859 C874 0.959 . S
H860 C874 0.961 . S
H861 C875 0.960 . S
H862 C875 0.961 . S
H863 C875 0.959 . S
H864 C878 0.929 . S
H865 C879 0.931 . S
H866 C881 0.930 . S
C867 H855 0.930 . S
C867 C868 1.399 . S
C867 C872 1.399 . S
C868 C867 1.399 . S
C868 C869 1.376 . S
C869 H856 0.930 . S
C869 C868 1.376 . S
C869 C870 1.388 . S
C870 H857 0.930 . S
C870 C869 1.388 . S
C870 C871 1.390 . S
C871 C870 1.390 . S
C871 C872 1.394 . S
C871 C877 1.465 . S
C872 C867 1.399 . S
C872 C871 1.394 . S
C872 C873 1.516 . S
C873 C872 1.516 . S
C873 C874 1.502 . S
C873 C875 1.561 . S
C873 C876 1.526 . S
C874 H858 0.959 . S
C874 H859 0.959 . S
C874 H860 0.961 . S
C874 C873 1.502 . S
C875 H861 0.960 . S
C875 H862 0.961 . S
C875 H863 0.959 . S
C875 C873 1.561 . S
C876 C873 1.526 . S
C876 C877 1.396 . S
C876 C881 1.390 . S
C877 C871 1.465 . S
C877 C876 1.396 . S
C877 C878 1.399 . S
C878 H864 0.929 . S
C878 C877 1.399 . S
C878 C879 1.385 . S
C879 H865 0.931 . S
C879 C878 1.385 . S
C879 C880 1.389 . S
C880 C879 1.389 . S
C880 C881 1.387 . S
C881 H866 0.930 . S
C881 C876 1.390 . S
C881 C880 1.387 . S
H882 C894 0.930 . S
H883 C896 0.930 . S
H884 C897 0.930 . S
H885 C901 0.959 . S
H886 C901 0.959 . S
H887 C901 0.961 . S
H888 C902 0.960 . S
H889 C902 0.961 . S
H890 C902 0.959 . S
H891 C905 0.929 . S
H892 C906 0.931 . S
H893 C908 0.930 . S
C894 H882 0.930 . S
C894 C895 1.399 . S
C894 C899 1.399 . S
C895 C894 1.399 . S
C895 C896 1.376 . S
C896 H883 0.930 . S
C896 C895 1.376 . S
C896 C897 1.388 . S
C897 H884 0.930 . S
C897 C896 1.388 . S
C897 C898 1.390 . S
C898 C897 1.390 . S
C898 C899 1.394 . S
C898 C904 1.465 . S
C899 C894 1.399 . S
C899 C898 1.394 . S
C899 C900 1.516 . S
C900 C899 1.516 . S
C900 C901 1.502 . S
C900 C902 1.561 . S
C900 C903 1.526 . S
C901 H885 0.959 . S
C901 H886 0.959 . S
C901 H887 0.961 . S
C901 C900 1.502 . S
C902 H888 0.960 . S
C902 H889 0.961 . S
C902 H890 0.959 . S
C902 C900 1.561 . S
C903 C900 1.526 . S
C903 C904 1.396 . S
C903 C908 1.390 . S
C904 C898 1.465 . S
C904 C903 1.396 . S
C904 C905 1.399 . S
C905 H891 0.929 . S
C905 C904 1.399 . S
C905 C906 1.385 . S
C906 H892 0.931 . S
C906 C905 1.385 . S
C906 C907 1.389 . S
C907 C906 1.389 . S
C907 C908 1.387 . S
C908 H893 0.930 . S
C908 C903 1.390 . S
C908 C907 1.387 . S
H909 C921 0.930 . S
H910 C923 0.930 . S
H911 C924 0.930 . S
H912 C928 0.959 . S
H913 C928 0.959 . S
H914 C928 0.961 . S
H915 C929 0.972 . S
H916 C929 0.961 . S
H917 C929 0.959 . S
H918 C932 0.929 . S
H919 C933 0.931 . S
H920 C935 0.930 . S
C921 H909 0.930 . S
C921 C922 1.399 . S
C921 C926 1.399 . S
C922 C921 1.399 . S
C922 C923 1.376 . S
C923 H910 0.930 . S
C923 C922 1.376 . S
C923 C924 1.388 . S
C924 H911 0.930 . S
C924 C923 1.388 . S
C924 C925 1.390 . S
C925 C924 1.390 . S
C925 C926 1.394 . S
C925 C931 1.465 1_545 S
C926 C921 1.399 . S
C926 C925 1.394 . S
C926 C927 1.516 1_545 S
C927 C926 1.516 1_565 S
C927 C928 1.502 . S
C927 C929 1.561 . S
C927 C930 1.526 . S
C928 H912 0.959 . S
C928 H913 0.959 . S
C928 H914 0.961 . S
C928 C927 1.502 . S
C929 H915 0.972 . S
C929 H916 0.961 . S
C929 H917 0.959 . S
C929 C927 1.561 . S
C930 C927 1.526 . S
C930 C931 1.396 . S
C930 C935 1.390 . S
C931 C925 1.465 1_565 S
C931 C930 1.396 . S
C931 C932 1.399 . S
C932 H918 0.929 . S
C932 C931 1.399 . S
C932 C933 1.385 . S
C933 H919 0.931 . S
C933 C932 1.385 . S
C933 C934 1.389 . S
C934 C933 1.389 . S
C934 C935 1.387 . S
C935 H920 0.930 . S
C935 C930 1.390 . S
C935 C934 1.387 . S
H936 C948 0.930 . S
H937 C950 0.930 . S
H938 C951 0.930 . S
H939 C955 0.959 . S
H940 C955 0.959 . S
H941 C955 0.961 . S
H942 C956 0.960 . S
H943 C956 0.961 1_455 S
H944 C956 0.959 1_455 S
H945 C959 0.929 . S
H946 C960 0.931 . S
H947 C962 0.930 . S
C948 H936 0.930 . S
C948 C949 1.399 . S
C948 C953 1.399 . S
C949 C948 1.399 . S
C949 C950 1.376 . S
C950 H937 0.930 . S
C950 C949 1.376 . S
C950 C951 1.388 . S
C951 H938 0.930 . S
C951 C950 1.388 . S
C951 C952 1.390 . S
C952 C951 1.390 . S
C952 C953 1.394 . S
C952 C958 1.465 1_655 S
C953 C948 1.399 . S
C953 C952 1.394 . S
C953 C954 1.516 . S
C954 C953 1.516 . S
C954 C955 1.502 . S
C954 C956 1.561 . S
C954 C957 1.526 1_655 S
C955 H939 0.959 . S
C955 H940 0.959 . S
C955 H941 0.961 . S
C955 C954 1.502 . S
C956 H942 0.960 . S
C956 H943 0.961 1_655 S
C956 H944 0.959 1_655 S
C956 C954 1.561 . S
C957 C954 1.526 1_455 S
C957 C958 1.396 . S
C957 C962 1.390 . S
C958 C952 1.465 1_455 S
C958 C957 1.396 . S
C958 C959 1.399 . S
C959 H945 0.929 . S
C959 C958 1.399 . S
C959 C960 1.385 . S
C960 H946 0.931 . S
C960 C959 1.385 . S
C960 C961 1.389 . S
C961 C960 1.389 . S
C961 C962 1.387 . S
C962 H947 0.930 . S
C962 C957 1.390 . S
C962 C961 1.387 . S
H963 C975 0.930 . S
H964 C977 0.930 . S
H965 C978 0.930 . S
H966 C982 0.959 . S
H967 C982 0.959 . S
H968 C982 0.961 . S
H969 C983 0.960 . S
H970 C983 0.961 . S
H971 C983 0.959 . S
H972 C986 0.929 . S
H973 C987 0.931 . S
H974 C989 0.930 . S
C975 H963 0.930 . S
C975 C976 1.399 . S
C975 C980 1.399 . S
C976 C975 1.399 . S
C976 C977 1.376 . S
C977 H964 0.930 . S
C977 C976 1.376 . S
C977 C978 1.388 . S
C978 H965 0.930 . S
C978 C977 1.388 . S
C978 C979 1.390 . S
C979 C978 1.390 . S
C979 C980 1.394 . S
C979 C985 1.465 . S
C980 C975 1.399 . S
C980 C979 1.394 . S
C980 C981 1.516 . S
C981 C980 1.516 . S
C981 C982 1.502 . S
C981 C983 1.561 . S
C981 C984 1.526 . S
C982 H966 0.959 . S
C982 H967 0.959 . S
C982 H968 0.961 . S
C982 C981 1.502 . S
C983 H969 0.960 . S
C983 H970 0.961 . S
C983 H971 0.959 . S
C983 C981 1.561 . S
C984 C981 1.526 . S
C984 C985 1.396 . S
C984 C989 1.390 . S
C985 C979 1.465 . S
C985 C984 1.396 . S
C985 C986 1.399 . S
C986 H972 0.929 . S
C986 C985 1.399 . S
C986 C987 1.385 . S
C987 H973 0.931 . S
C987 C986 1.385 . S
C987 C988 1.389 . S
C988 C987 1.389 . S
C988 C989 1.387 . S
C989 H974 0.930 . S
C989 C984 1.390 . S
C989 C988 1.387 . S
H990 C1002 0.930 . S
H991 C1004 0.930 . S
H992 C1005 0.930 . S
H993 C1009 0.959 . S
H994 C1009 0.959 . S
H995 C1009 0.961 . S
H996 C1010 0.960 . S
H997 C1010 0.961 . S
H998 C1010 0.959 . S
H999 C1013 0.929 . S
H1000 C1014 0.931 . S
H1001 C1016 0.930 . S
C1002 H990 0.930 . S
C1002 C1003 1.399 . S
C1002 C1007 1.399 . S
C1003 C1002 1.399 . S
C1003 C1004 1.376 . S
C1004 H991 0.930 . S
C1004 C1003 1.376 . S
C1004 C1005 1.388 . S
C1005 H992 0.930 . S
C1005 C1004 1.388 . S
C1005 C1006 1.390 . S
C1006 C1005 1.390 . S
C1006 C1007 1.394 . S
C1006 C1012 1.465 . S
C1007 C1002 1.399 . S
C1007 C1006 1.394 . S
C1007 C1008 1.516 . S
C1008 C1007 1.516 . S
C1008 C1009 1.502 . S
C1008 C1010 1.561 . S
C1008 C1011 1.526 . S
C1009 H993 0.959 . S
C1009 H994 0.959 . S
C1009 H995 0.961 . S
C1009 C1008 1.502 . S
C1010 H996 0.960 . S
C1010 H997 0.961 . S
C1010 H998 0.959 . S
C1010 C1008 1.561 . S
C1011 C1008 1.526 . S
C1011 C1012 1.396 . S
C1011 C1016 1.390 . S
C1012 C1006 1.465 . S
C1012 C1011 1.396 . S
C1012 C1013 1.399 . S
C1013 H999 0.929 . S
C1013 C1012 1.399 . S
C1013 C1014 1.385 . S
C1014 H1000 0.931 . S
C1014 C1013 1.385 . S
C1014 C1015 1.389 . S
C1015 C1014 1.389 . S
C1015 C1016 1.387 . S
C1016 H1001 0.930 . S
C1016 C1011 1.390 . S
C1016 C1015 1.387 . S
H1017 C1029 0.930 . S
H1018 C1031 0.930 . S
H1019 C1032 0.930 . S
H1020 C1036 0.959 . S
H1021 C1036 0.959 . S
H1022 C1036 0.961 . S
H1023 C1037 0.960 . S
H1024 C1037 0.961 . S
H1025 C1037 0.959 . S
H1026 C1040 0.929 . S
H1027 C1041 0.931 . S
H1028 C1043 0.930 . S
C1029 H1017 0.930 . S
C1029 C1030 1.399 . S
C1029 C1034 1.399 . S
C1030 C1029 1.399 . S
C1030 C1031 1.376 . S
C1031 H1018 0.930 . S
C1031 C1030 1.376 . S
C1031 C1032 1.388 . S
C1032 H1019 0.930 . S
C1032 C1031 1.388 . S
C1032 C1033 1.390 . S
C1033 C1032 1.390 . S
C1033 C1034 1.394 . S
C1033 C1039 1.465 . S
C1034 C1029 1.399 . S
C1034 C1033 1.394 . S
C1034 C1035 1.516 . S
C1035 C1034 1.516 . S
C1035 C1036 1.502 . S
C1035 C1037 1.561 . S
C1035 C1038 1.526 . S
C1036 H1020 0.959 . S
C1036 H1021 0.959 . S
C1036 H1022 0.961 . S
C1036 C1035 1.502 . S
C1037 H1023 0.960 . S
C1037 H1024 0.961 . S
C1037 H1025 0.959 . S
C1037 C1035 1.561 . S
C1038 C1035 1.526 . S
C1038 C1039 1.396 . S
C1038 C1043 1.390 . S
C1039 C1033 1.465 . S
C1039 C1038 1.396 . S
C1039 C1040 1.399 . S
C1040 H1026 0.929 . S
C1040 C1039 1.399 . S
C1040 C1041 1.385 . S
C1041 H1027 0.931 . S
C1041 C1040 1.385 . S
C1041 C1042 1.389 . S
C1042 C1041 1.389 . S
C1042 C1043 1.387 . S
C1043 H1028 0.930 . S
C1043 C1038 1.390 . S
C1043 C1042 1.387 . S
H1044 C1056 0.930 . S
H1045 C1058 0.930 . S
H1046 C1059 0.930 . S
H1047 C1063 0.959 . S
H1048 C1063 0.959 . S
H1049 C1063 0.961 . S
H1050 C1064 0.960 . S
H1051 C1064 0.961 . S
H1052 C1064 0.959 . S
H1053 C1067 0.929 . S
H1054 C1068 0.931 . S
H1055 C1070 0.930 . S
C1056 H1044 0.930 . S
C1056 C1057 1.399 . S
C1056 C1061 1.399 . S
C1057 C1056 1.399 . S
C1057 C1058 1.376 . S
C1058 H1045 0.930 . S
C1058 C1057 1.376 . S
C1058 C1059 1.388 . S
C1059 H1046 0.930 . S
C1059 C1058 1.388 . S
C1059 C1060 1.390 . S
C1060 C1059 1.390 . S
C1060 C1061 1.394 . S
C1060 C1066 1.465 . S
C1061 C1056 1.399 . S
C1061 C1060 1.394 . S
C1061 C1062 1.516 . S
C1062 C1061 1.516 . S
C1062 C1063 1.502 . S
C1062 C1064 1.561 . S
C1062 C1065 1.526 . S
C1063 H1047 0.959 . S
C1063 H1048 0.959 . S
C1063 H1049 0.961 . S
C1063 C1062 1.502 . S
C1064 H1050 0.960 . S
C1064 H1051 0.961 . S
C1064 H1052 0.959 . S
C1064 C1062 1.561 . S
C1065 C1062 1.526 . S
C1065 C1066 1.396 . S
C1065 C1070 1.390 . S
C1066 C1060 1.465 . S
C1066 C1065 1.396 . S
C1066 C1067 1.399 . S
C1067 H1053 0.929 . S
C1067 C1066 1.399 . S
C1067 C1068 1.385 . S
C1068 H1054 0.931 . S
C1068 C1067 1.385 . S
C1068 C1069 1.389 . S
C1069 C1068 1.389 . S
C1069 C1070 1.387 . S
C1070 H1055 0.930 . S
C1070 C1065 1.390 . S
C1070 C1069 1.387 . S
H1071 C1083 0.930 . S
H1072 C1085 0.930 . S
H1073 C1086 0.930 . S
H1074 C1090 0.959 1_545 S
H1075 C1090 0.959 1_545 S
H1076 C1090 0.961 . S
H1077 C1091 0.960 . S
H1078 C1091 0.961 . S
H1079 C1091 0.959 . S
H1080 C1094 0.929 . S
H1081 C1095 0.931 . S
H1082 C1097 0.930 . S
C1083 H1071 0.930 . S
C1083 C1084 1.399 . S
C1083 C1088 1.399 . S
C1084 C1083 1.399 . S
C1084 C1085 1.376 . S
C1085 H1072 0.930 . S
C1085 C1084 1.376 . S
C1085 C1086 1.388 . S
C1086 H1073 0.930 . S
C1086 C1085 1.388 . S
C1086 C1087 1.390 . S
C1087 C1086 1.390 . S
C1087 C1088 1.394 . S
C1087 C1093 1.465 1_565 S
C1088 C1083 1.399 . S
C1088 C1087 1.394 . S
C1088 C1089 1.516 . S
C1089 C1088 1.516 . S
C1089 C1090 1.502 . S
C1089 C1091 1.561 . S
C1089 C1092 1.526 1_565 S
C1090 H1074 0.959 1_565 S
C1090 H1075 0.959 1_565 S
C1090 H1076 0.961 . S
C1090 C1089 1.502 . S
C1091 H1077 0.960 . S
C1091 H1078 0.961 . S
C1091 H1079 0.959 . S
C1091 C1089 1.561 . S
C1092 C1089 1.526 1_545 S
C1092 C1093 1.396 . S
C1092 C1097 1.390 . S
C1093 C1087 1.465 1_545 S
C1093 C1092 1.396 . S
C1093 C1094 1.399 . S
C1094 H1080 0.929 . S
C1094 C1093 1.399 . S
C1094 C1095 1.385 . S
C1095 H1081 0.931 . S
C1095 C1094 1.385 . S
C1095 C1096 1.389 . S
C1096 C1095 1.389 . S
C1096 C1097 1.387 . S
C1097 H1082 0.930 . S
C1097 C1092 1.390 . S
C1097 C1096 1.387 . S
H1098 C1110 0.930 . S
H1099 C1112 0.930 . S
H1100 C1113 0.928 1_655 S
H1101 C1117 0.959 . S
H1102 C1117 0.959 . S
H1103 C1117 0.961 . S
H1104 C1118 0.960 . S
H1105 C1118 0.961 . S
H1106 C1118 0.959 . S
H1107 C1121 0.929 . S
H1108 C1122 0.931 . S
H1109 C1124 0.930 . S
C1110 H1098 0.930 . S
C1110 C1111 1.399 . S
C1110 C1115 1.399 . S
C1111 C1110 1.399 . S
C1111 C1112 1.376 . S
C1112 H1099 0.930 . S
C1112 C1111 1.376 . S
C1112 C1113 1.388 . S
C1113 H1100 0.928 1_455 S
C1113 C1112 1.388 . S
C1113 C1114 1.390 . S
C1114 C1113 1.390 . S
C1114 C1115 1.394 . S
C1114 C1120 1.465 1_455 S
C1115 C1110 1.399 . S
C1115 C1114 1.394 . S
C1115 C1116 1.516 . S
C1116 C1115 1.516 . S
C1116 C1117 1.502 . S
C1116 C1118 1.561 . S
C1116 C1119 1.526 1_455 S
C1117 H1101 0.959 . S
C1117 H1102 0.959 . S
C1117 H1103 0.961 . S
C1117 C1116 1.502 . S
C1118 H1104 0.960 . S
C1118 H1105 0.961 . S
C1118 H1106 0.959 . S
C1118 C1116 1.561 . S
C1119 C1116 1.526 1_655 S
C1119 C1120 1.396 . S
C1119 C1124 1.390 . S
C1120 C1114 1.465 1_655 S
C1120 C1119 1.396 . S
C1120 C1121 1.399 . S
C1121 H1107 0.929 . S
C1121 C1120 1.399 . S
C1121 C1122 1.385 . S
C1122 H1108 0.931 . S
C1122 C1121 1.385 . S
C1122 C1123 1.389 . S
C1123 C1122 1.389 . S
C1123 C1124 1.387 . S
C1124 H1109 0.930 . S
C1124 C1119 1.390 . S
C1124 C1123 1.387 . S
H1125 C1137 0.930 . S
H1126 C1139 0.930 . S
H1127 C1140 0.930 . S
H1128 C1144 0.959 . S
H1129 C1144 0.959 . S
H1130 C1144 0.961 . S
H1131 C1145 0.960 . S
H1132 C1145 0.961 . S
H1133 C1145 0.959 . S
H1134 C1148 0.929 . S
H1135 C1149 0.931 . S
H1136 C1151 0.930 . S
C1137 H1125 0.930 . S
C1137 C1138 1.399 . S
C1137 C1142 1.399 . S
C1138 C1137 1.399 . S
C1138 C1139 1.376 . S
C1139 H1126 0.930 . S
C1139 C1138 1.376 . S
C1139 C1140 1.388 . S
C1140 H1127 0.930 . S
C1140 C1139 1.388 . S
C1140 C1141 1.390 . S
C1141 C1140 1.390 . S
C1141 C1142 1.394 . S
C1141 C1147 1.465 . S
C1142 C1137 1.399 . S
C1142 C1141 1.394 . S
C1142 C1143 1.516 . S
C1143 C1142 1.516 . S
C1143 C1144 1.502 . S
C1143 C1145 1.561 . S
C1143 C1146 1.526 . S
C1144 H1128 0.959 . S
C1144 H1129 0.959 . S
C1144 H1130 0.961 . S
C1144 C1143 1.502 . S
C1145 H1131 0.960 . S
C1145 H1132 0.961 . S
C1145 H1133 0.959 . S
C1145 C1143 1.561 . S
C1146 C1143 1.526 . S
C1146 C1147 1.396 . S
C1146 C1151 1.390 . S
C1147 C1141 1.465 . S
C1147 C1146 1.396 . S
C1147 C1148 1.399 . S
C1148 H1134 0.929 . S
C1148 C1147 1.399 . S
C1148 C1149 1.385 . S
C1149 H1135 0.931 . S
C1149 C1148 1.385 . S
C1149 C1150 1.389 . S
C1150 C1149 1.389 . S
C1150 C1151 1.387 . S
C1151 H1136 0.930 . S
C1151 C1146 1.390 . S
C1151 C1150 1.387 . S
H1152 C1164 0.930 . S
H1153 C1166 0.930 . S
H1154 C1167 0.930 . S
H1155 C1171 0.959 . S
H1156 C1171 0.959 . S
H1157 C1171 0.961 . S
H1158 C1172 0.960 . S
H1159 C1172 0.961 . S
H1160 C1172 0.959 . S
H1161 C1175 0.929 . S
H1162 C1176 0.931 . S
H1163 C1178 0.930 . S
C1164 H1152 0.930 . S
C1164 C1165 1.399 . S
C1164 C1169 1.399 . S
C1165 C1164 1.399 . S
C1165 C1166 1.376 . S
C1166 H1153 0.930 . S
C1166 C1165 1.376 . S
C1166 C1167 1.388 . S
C1167 H1154 0.930 . S
C1167 C1166 1.388 . S
C1167 C1168 1.390 . S
C1168 C1167 1.390 . S
C1168 C1169 1.394 . S
C1168 C1174 1.465 1_455 S
C1169 C1164 1.399 . S
C1169 C1168 1.394 . S
C1169 C1170 1.516 . S
C1170 C1169 1.516 . S
C1170 C1171 1.502 . S
C1170 C1172 1.561 . S
C1170 C1173 1.526 1_455 S
C1171 H1155 0.959 . S
C1171 H1156 0.959 . S
C1171 H1157 0.961 . S
C1171 C1170 1.502 . S
C1172 H1158 0.960 . S
C1172 H1159 0.961 . S
C1172 H1160 0.959 . S
C1172 C1170 1.561 . S
C1173 C1170 1.526 1_655 S
C1173 C1174 1.396 . S
C1173 C1178 1.390 . S
C1174 C1168 1.465 1_655 S
C1174 C1173 1.396 . S
C1174 C1175 1.399 . S
C1175 H1161 0.929 . S
C1175 C1174 1.399 . S
C1175 C1176 1.385 . S
C1176 H1162 0.931 . S
C1176 C1175 1.385 . S
C1176 C1177 1.389 . S
C1177 C1176 1.389 . S
C1177 C1178 1.387 . S
C1178 H1163 0.930 . S
C1178 C1173 1.390 . S
C1178 C1177 1.387 . S
H1179 C1191 0.930 . S
H1180 C1193 0.930 . S
H1181 C1194 0.930 . S
H1182 C1198 0.959 . S
H1183 C1198 0.959 . S
H1184 C1198 0.961 . S
H1185 C1199 0.960 . S
H1186 C1199 0.961 . S
H1187 C1199 0.959 . S
H1188 C1202 0.929 . S
H1189 C1203 0.931 . S
H1190 C1205 0.930 . S
C1191 H1179 0.930 . S
C1191 C1192 1.399 . S
C1191 C1196 1.399 . S
C1192 C1191 1.399 . S
C1192 C1193 1.376 . S
C1193 H1180 0.930 . S
C1193 C1192 1.376 . S
C1193 C1194 1.388 . S
C1194 H1181 0.930 . S
C1194 C1193 1.388 . S
C1194 C1195 1.390 . S
C1195 C1194 1.390 . S
C1195 C1196 1.394 . S
C1195 C1201 1.465 . S
C1196 C1191 1.399 . S
C1196 C1195 1.394 . S
C1196 C1197 1.516 . S
C1197 C1196 1.516 . S
C1197 C1198 1.502 . S
C1197 C1199 1.561 . S
C1197 C1200 1.526 . S
C1198 H1182 0.959 . S
C1198 H1183 0.959 . S
C1198 H1184 0.961 . S
C1198 C1197 1.502 . S
C1199 H1185 0.960 . S
C1199 H1186 0.961 . S
C1199 H1187 0.959 . S
C1199 C1197 1.561 . S
C1200 C1197 1.526 . S
C1200 C1201 1.396 . S
C1200 C1205 1.390 . S
C1201 C1195 1.465 . S
C1201 C1200 1.396 . S
C1201 C1202 1.399 . S
C1202 H1188 0.929 . S
C1202 C1201 1.399 . S
C1202 C1203 1.385 . S
C1203 H1189 0.931 . S
C1203 C1202 1.385 . S
C1203 C1204 1.389 . S
C1204 C1203 1.389 . S
C1204 C1205 1.387 . S
C1205 H1190 0.930 . S
C1205 C1200 1.390 . S
C1205 C1204 1.387 . S
H1206 C1218 0.930 . S
H1207 C1220 0.930 . S
H1208 C1221 0.930 . S
H1209 C1225 0.959 . S
H1210 C1225 0.959 . S
H1211 C1225 0.961 . S
H1212 C1226 0.960 1_565 S
H1213 C1226 0.961 . S
H1214 C1226 0.959 . S
H1215 C1229 0.929 . S
H1216 C1230 0.931 . S
H1217 C1232 0.930 . S
C1218 H1206 0.930 . S
C1218 C1219 1.399 . S
C1218 C1223 1.399 . S
C1219 C1218 1.399 . S
C1219 C1220 1.376 . S
C1220 H1207 0.930 . S
C1220 C1219 1.376 . S
C1220 C1221 1.388 . S
C1221 H1208 0.930 . S
C1221 C1220 1.388 . S
C1221 C1222 1.390 . S
C1222 C1221 1.390 . S
C1222 C1223 1.394 . S
C1222 C1228 1.465 1_565 S
C1223 C1218 1.399 . S
C1223 C1222 1.394 . S
C1223 C1224 1.516 1_565 S
C1224 C1223 1.516 1_545 S
C1224 C1225 1.502 . S
C1224 C1226 1.561 . S
C1224 C1227 1.526 . S
C1225 H1209 0.959 . S
C1225 H1210 0.959 . S
C1225 H1211 0.961 . S
C1225 C1224 1.502 . S
C1226 H1212 0.960 1_545 S
C1226 H1213 0.961 . S
C1226 H1214 0.959 . S
C1226 C1224 1.561 . S
C1227 C1224 1.526 . S
C1227 C1228 1.396 . S
C1227 C1232 1.390 . S
C1228 C1222 1.465 1_545 S
C1228 C1227 1.396 . S
C1228 C1229 1.399 . S
C1229 H1215 0.929 . S
C1229 C1228 1.399 . S
C1229 C1230 1.385 . S
C1230 H1216 0.931 . S
C1230 C1229 1.385 . S
C1230 C1231 1.389 . S
C1231 C1230 1.389 . S
C1231 C1232 1.387 . S
C1232 H1217 0.930 . S
C1232 C1227 1.390 . S
C1232 C1231 1.387 . S
H1233 C1245 0.930 . S
H1234 C1247 0.930 . S
H1235 C1248 0.930 . S
H1236 C1252 0.959 . S
H1237 C1252 0.959 . S
H1238 C1252 0.961 . S
H1239 C1253 0.960 . S
H1240 C1253 0.961 . S
H1241 C1253 0.959 . S
H1242 C1256 0.929 . S
H1243 C1257 0.931 . S
H1244 C1259 0.930 . S
C1245 H1233 0.930 . S
C1245 C1246 1.399 . S
C1245 C1250 1.399 . S
C1246 C1245 1.399 . S
C1246 C1247 1.376 . S
C1247 H1234 0.930 . S
C1247 C1246 1.376 . S
C1247 C1248 1.388 . S
C1248 H1235 0.930 . S
C1248 C1247 1.388 . S
C1248 C1249 1.390 . S
C1249 C1248 1.390 . S
C1249 C1250 1.394 . S
C1249 C1255 1.465 . S
C1250 C1245 1.399 . S
C1250 C1249 1.394 . S
C1250 C1251 1.516 . S
C1251 C1250 1.516 . S
C1251 C1252 1.502 . S
C1251 C1253 1.561 . S
C1251 C1254 1.526 . S
C1252 H1236 0.959 . S
C1252 H1237 0.959 . S
C1252 H1238 0.961 . S
C1252 C1251 1.502 . S
C1253 H1239 0.960 . S
C1253 H1240 0.961 . S
C1253 H1241 0.959 . S
C1253 C1251 1.561 . S
C1254 C1251 1.526 . S
C1254 C1255 1.396 . S
C1254 C1259 1.390 . S
C1255 C1249 1.465 . S
C1255 C1254 1.396 . S
C1255 C1256 1.399 . S
C1256 H1242 0.929 . S
C1256 C1255 1.399 . S
C1256 C1257 1.385 . S
C1257 H1243 0.931 . S
C1257 C1256 1.385 . S
C1257 C1258 1.389 . S
C1258 C1257 1.389 . S
C1258 C1259 1.387 . S
C1259 H1244 0.930 . S
C1259 C1254 1.390 . S
C1259 C1258 1.387 . S
H1260 C1272 0.930 . S
H1261 C1274 0.930 . S
H1262 C1275 0.930 . S
H1263 C1279 0.959 . S
H1264 C1279 0.959 . S
H1265 C1279 0.961 . S
H1266 C1280 0.960 . S
H1267 C1280 0.961 . S
H1268 C1280 0.959 . S
H1269 C1283 0.929 . S
H1270 C1284 0.931 . S
H1271 C1286 0.930 . S
C1272 H1260 0.930 . S
C1272 C1273 1.399 . S
C1272 C1277 1.399 . S
C1273 C1272 1.399 . S
C1273 C1274 1.376 . S
C1274 H1261 0.930 . S
C1274 C1273 1.376 . S
C1274 C1275 1.388 . S
C1275 H1262 0.930 . S
C1275 C1274 1.388 . S
C1275 C1276 1.390 . S
C1276 C1275 1.390 . S
C1276 C1277 1.394 . S
C1276 C1282 1.465 . S
C1277 C1272 1.399 . S
C1277 C1276 1.394 . S
C1277 C1278 1.516 . S
C1278 C1277 1.516 . S
C1278 C1279 1.502 . S
C1278 C1280 1.561 . S
C1278 C1281 1.526 . S
C1279 H1263 0.959 . S
C1279 H1264 0.959 . S
C1279 H1265 0.961 . S
C1279 C1278 1.502 . S
C1280 H1266 0.960 . S
C1280 H1267 0.961 . S
C1280 H1268 0.959 . S
C1280 C1278 1.561 . S
C1281 C1278 1.526 . S
C1281 C1282 1.396 . S
C1281 C1286 1.390 . S
C1282 C1276 1.465 . S
C1282 C1281 1.396 . S
C1282 C1283 1.399 . S
C1283 H1269 0.929 . S
C1283 C1282 1.399 . S
C1283 C1284 1.385 . S
C1284 H1270 0.931 . S
C1284 C1283 1.385 . S
C1284 C1285 1.389 . S
C1285 C1284 1.389 . S
C1285 C1286 1.387 . S
C1286 H1271 0.930 . S
C1286 C1281 1.390 . S
C1286 C1285 1.387 . S
H1287 C1299 0.930 . S
H1288 C1301 0.930 . S
H1289 C1302 0.930 . S
H1290 C1306 0.959 . S
H1291 C1306 0.959 . S
H1292 C1306 0.961 . S
H1293 C1307 0.960 . S
H1294 C1307 0.961 . S
H1295 C1307 0.959 . S
H1296 C1310 0.929 . S
H1297 C1311 0.931 . S
H1298 C1313 0.930 . S
C1299 H1287 0.930 . S
C1299 C1300 1.399 . S
C1299 C1304 1.399 . S
C1300 C1299 1.399 . S
C1300 C1301 1.376 . S
C1301 H1288 0.930 . S
C1301 C1300 1.376 . S
C1301 C1302 1.388 . S
C1302 H1289 0.930 . S
C1302 C1301 1.388 . S
C1302 C1303 1.390 . S
C1303 C1302 1.390 . S
C1303 C1304 1.394 . S
C1303 C1309 1.465 . S
C1304 C1299 1.399 . S
C1304 C1303 1.394 . S
C1304 C1305 1.516 . S
C1305 C1304 1.516 . S
C1305 C1306 1.502 . S
C1305 C1307 1.561 . S
C1305 C1308 1.526 . S
C1306 H1290 0.959 . S
C1306 H1291 0.959 . S
C1306 H1292 0.961 . S
C1306 C1305 1.502 . S
C1307 H1293 0.960 . S
C1307 H1294 0.961 . S
C1307 H1295 0.959 . S
C1307 C1305 1.561 . S
C1308 C1305 1.526 . S
C1308 C1309 1.396 . S
C1308 C1313 1.390 . S
C1309 C1303 1.465 . S
C1309 C1308 1.396 . S
C1309 C1310 1.399 . S
C1310 H1296 0.929 . S
C1310 C1309 1.399 . S
C1310 C1311 1.385 . S
C1311 H1297 0.931 . S
C1311 C1310 1.385 . S
C1311 C1312 1.389 . S
C1312 C1311 1.389 . S
C1312 C1313 1.387 . S
C1313 H1298 0.930 . S
C1313 C1308 1.390 . S
C1313 C1312 1.387 . S
H1314 C1326 0.930 . S
H1315 C1328 0.930 . S
H1316 C1329 0.930 . S
H1317 C1333 0.959 . S
H1318 C1333 0.959 . S
H1319 C1333 0.961 . S
H1320 C1334 0.960 . S
H1321 C1334 0.961 1_545 S
H1322 C1334 0.959 . S
H1323 C1337 0.929 . S
H1324 C1338 0.931 . S
H1325 C1340 0.930 . S
C1326 H1314 0.930 . S
C1326 C1327 1.399 . S
C1326 C1331 1.399 . S
C1327 C1326 1.399 . S
C1327 C1328 1.376 . S
C1328 H1315 0.930 . S
C1328 C1327 1.376 . S
C1328 C1329 1.388 . S
C1329 H1316 0.930 . S
C1329 C1328 1.388 . S
C1329 C1330 1.390 . S
C1330 C1329 1.390 . S
C1330 C1331 1.394 . S
C1330 C1336 1.465 . S
C1331 C1326 1.399 . S
C1331 C1330 1.394 . S
C1331 C1332 1.516 . S
C1332 C1331 1.516 . S
C1332 C1333 1.502 1_565 S
C1332 C1334 1.561 . S
C1332 C1335 1.526 . S
C1333 H1317 0.959 . S
C1333 H1318 0.959 . S
C1333 H1319 0.961 . S
C1333 C1332 1.502 1_545 S
C1334 H1320 0.960 . S
C1334 H1321 0.961 1_565 S
C1334 H1322 0.959 . S
C1334 C1332 1.561 . S
C1335 C1332 1.526 . S
C1335 C1336 1.396 . S
C1335 C1340 1.390 1_565 S
C1336 C1330 1.465 . S
C1336 C1335 1.396 . S
C1336 C1337 1.399 . S
C1337 H1323 0.929 . S
C1337 C1336 1.399 . S
C1337 C1338 1.385 . S
C1338 H1324 0.931 . S
C1338 C1337 1.385 . S
C1338 C1339 1.389 . S
C1339 C1338 1.389 . S
C1339 C1340 1.387 1_565 S
C1340 H1325 0.930 . S
C1340 C1335 1.390 1_545 S
C1340 C1339 1.387 1_545 S
H1341 C1353 0.930 . S
H1342 C1355 0.930 . S
H1343 C1356 0.930 1_655 S
H1344 C1360 0.959 . S
H1345 C1360 0.959 . S
H1346 C1360 0.961 . S
H1347 C1361 0.960 . S
H1348 C1361 0.961 . S
H1349 C1361 0.959 . S
H1350 C1364 0.929 . S
H1351 C1365 0.931 . S
H1352 C1367 0.930 . S
C1353 H1341 0.930 . S
C1353 C1354 1.399 . S
C1353 C1358 1.399 . S
C1354 C1353 1.399 . S
C1354 C1355 1.376 . S
C1355 H1342 0.930 . S
C1355 C1354 1.376 . S
C1355 C1356 1.388 . S
C1356 H1343 0.930 1_455 S
C1356 C1355 1.388 . S
C1356 C1357 1.390 . S
C1357 C1356 1.390 . S
C1357 C1358 1.394 . S
C1357 C1363 1.465 . S
C1358 C1353 1.399 . S
C1358 C1357 1.394 . S
C1358 C1359 1.516 . S
C1359 C1358 1.516 . S
C1359 C1360 1.502 . S
C1359 C1361 1.561 . S
C1359 C1362 1.526 . S
C1360 H1344 0.959 . S
C1360 H1345 0.959 . S
C1360 H1346 0.961 . S
C1360 C1359 1.502 . S
C1361 H1347 0.960 . S
C1361 H1348 0.961 . S
C1361 H1349 0.959 . S
C1361 C1359 1.561 . S
C1362 C1359 1.526 . S
C1362 C1363 1.396 . S
C1362 C1367 1.390 . S
C1363 C1357 1.465 . S
C1363 C1362 1.396 . S
C1363 C1364 1.399 1_455 S
C1364 H1350 0.929 . S
C1364 C1363 1.399 1_655 S
C1364 C1365 1.385 . S
C1365 H1351 0.931 . S
C1365 C1364 1.385 . S
C1365 C1366 1.389 1_655 S
C1366 C1365 1.389 1_455 S
C1366 C1367 1.387 . S
C1367 H1352 0.930 . S
C1367 C1362 1.390 . S
C1367 C1366 1.387 . S
H1368 C1380 0.930 . S
H1369 C1382 0.930 . S
H1370 C1383 0.930 . S
H1371 C1387 0.959 . S
H1372 C1387 0.959 . S
H1373 C1387 0.961 . S
H1374 C1388 0.960 . S
H1375 C1388 0.961 . S
H1376 C1388 0.959 . S
H1377 C1391 0.929 . S
H1378 C1392 0.931 . S
H1379 C1394 0.930 . S
C1380 H1368 0.930 . S
C1380 C1381 1.399 . S
C1380 C1385 1.399 . S
C1381 C1380 1.399 . S
C1381 C1382 1.376 . S
C1382 H1369 0.930 . S
C1382 C1381 1.376 . S
C1382 C1383 1.388 . S
C1383 H1370 0.930 . S
C1383 C1382 1.388 . S
C1383 C1384 1.390 . S
C1384 C1383 1.390 . S
C1384 C1385 1.394 . S
C1384 C1390 1.465 . S
C1385 C1380 1.399 . S
C1385 C1384 1.394 . S
C1385 C1386 1.516 . S
C1386 C1385 1.516 . S
C1386 C1387 1.502 . S
C1386 C1388 1.561 . S
C1386 C1389 1.526 . S
C1387 H1371 0.959 . S
C1387 H1372 0.959 . S
C1387 H1373 0.961 . S
C1387 C1386 1.502 . S
C1388 H1374 0.960 . S
C1388 H1375 0.961 . S
C1388 H1376 0.959 . S
C1388 C1386 1.561 . S
C1389 C1386 1.526 . S
C1389 C1390 1.396 . S
C1389 C1394 1.390 . S
C1390 C1384 1.465 . S
C1390 C1389 1.396 . S
C1390 C1391 1.399 . S
C1391 H1377 0.929 . S
C1391 C1390 1.399 . S
C1391 C1392 1.385 . S
C1392 H1378 0.931 . S
C1392 C1391 1.385 . S
C1392 C1393 1.389 . S
C1393 C1392 1.389 . S
C1393 C1394 1.387 . S
C1394 H1379 0.930 . S
C1394 C1389 1.390 . S
C1394 C1393 1.387 . S
H1395 C1407 0.930 . S
H1396 C1409 0.930 . S
H1397 C1410 0.930 . S
H1398 C1414 0.959 . S
H1399 C1414 0.959 . S
H1400 C1414 0.961 . S
H1401 C1415 0.960 . S
H1402 C1415 0.961 . S
H1403 C1415 0.959 1_655 S
H1404 C1418 0.929 . S
H1405 C1419 0.931 . S
H1406 C1421 0.911 1_455 S
C1407 H1395 0.930 . S
C1407 C1408 1.399 . S
C1407 C1412 1.399 . S
C1408 C1407 1.399 . S
C1408 C1409 1.376 . S
C1409 H1396 0.930 . S
C1409 C1408 1.376 . S
C1409 C1410 1.388 . S
C1410 H1397 0.930 . S
C1410 C1409 1.388 . S
C1410 C1411 1.390 . S
C1411 C1410 1.390 . S
C1411 C1412 1.394 . S
C1411 C1417 1.465 . S
C1412 C1407 1.399 . S
C1412 C1411 1.394 . S
C1412 C1413 1.516 1_655 S
C1413 C1412 1.516 1_455 S
C1413 C1414 1.502 . S
C1413 C1415 1.561 . S
C1413 C1416 1.526 1_455 S
C1414 H1398 0.959 . S
C1414 H1399 0.959 . S
C1414 H1400 0.961 . S
C1414 C1413 1.502 . S
C1415 H1401 0.960 . S
C1415 H1402 0.961 . S
C1415 H1403 0.959 1_455 S
C1415 C1413 1.561 . S
C1416 C1413 1.526 1_655 S
C1416 C1417 1.396 . S
C1416 C1421 1.397 . S
C1417 C1411 1.465 . S
C1417 C1416 1.396 . S
C1417 C1418 1.399 . S
C1418 H1404 0.929 . S
C1418 C1417 1.399 . S
C1418 C1419 1.385 . S
C1419 H1405 0.931 . S
C1419 C1418 1.385 . S
C1419 C1420 1.389 . S
C1420 C1419 1.389 . S
C1420 C1421 1.398 . S
C1421 H1406 0.911 1_655 S
C1421 C1416 1.397 . S
C1421 C1420 1.398 . S
H1422 C1434 0.930 . S
H1423 C1436 0.930 . S
H1424 C1437 0.930 . S
H1425 C1441 0.959 . S
H1426 C1441 0.959 . S
H1427 C1441 0.961 . S
H1428 C1442 0.960 . S
H1429 C1442 0.961 . S
H1430 C1442 0.959 . S
H1431 C1445 0.929 . S
H1432 C1446 0.931 . S
H1433 C1448 0.930 . S
C1434 H1422 0.930 . S
C1434 C1435 1.399 . S
C1434 C1439 1.399 . S
C1435 C1434 1.399 . S
C1435 C1436 1.376 . S
C1436 H1423 0.930 . S
C1436 C1435 1.376 . S
C1436 C1437 1.388 . S
C1437 H1424 0.930 . S
C1437 C1436 1.388 . S
C1437 C1438 1.390 . S
C1438 C1437 1.390 . S
C1438 C1439 1.394 . S
C1438 C1444 1.465 . S
C1439 C1434 1.399 . S
C1439 C1438 1.394 . S
C1439 C1440 1.516 . S
C1440 C1439 1.516 . S
C1440 C1441 1.502 . S
C1440 C1442 1.561 . S
C1440 C1443 1.526 . S
C1441 H1425 0.959 . S
C1441 H1426 0.959 . S
C1441 H1427 0.961 . S
C1441 C1440 1.502 . S
C1442 H1428 0.960 . S
C1442 H1429 0.961 . S
C1442 H1430 0.959 . S
C1442 C1440 1.561 . S
C1443 C1440 1.526 . S
C1443 C1444 1.396 . S
C1443 C1448 1.390 . S
C1444 C1438 1.465 . S
C1444 C1443 1.396 . S
C1444 C1445 1.399 . S
C1445 H1431 0.929 . S
C1445 C1444 1.399 . S
C1445 C1446 1.385 . S
C1446 H1432 0.931 . S
C1446 C1445 1.385 . S
C1446 C1447 1.389 . S
C1447 C1446 1.389 . S
C1447 C1448 1.387 . S
C1448 H1433 0.930 . S
C1448 C1443 1.390 . S
C1448 C1447 1.387 . S
H1449 C1461 0.930 . S
H1450 C1463 0.930 . S
H1451 C1464 0.930 1_565 S
H1452 C1468 0.959 . S
H1453 C1468 0.959 . S
H1454 C1468 0.961 . S
H1455 C1469 0.960 . S
H1456 C1469 0.961 . S
H1457 C1469 0.959 . S
H1458 C1472 0.929 . S
H1459 C1473 0.931 . S
H1460 C1475 0.930 . S
C1461 H1449 0.930 . S
C1461 C1462 1.399 . S
C1461 C1466 1.399 . S
C1462 C1461 1.399 . S
C1462 C1463 1.376 . S
C1463 H1450 0.930 . S
C1463 C1462 1.376 . S
C1463 C1464 1.388 . S
C1464 H1451 0.930 1_545 S
C1464 C1463 1.388 . S
C1464 C1465 1.390 . S
C1465 C1464 1.390 . S
C1465 C1466 1.394 . S
C1465 C1471 1.465 . S
C1466 C1461 1.399 . S
C1466 C1465 1.394 . S
C1466 C1467 1.516 . S
C1467 C1466 1.516 . S
C1467 C1468 1.502 . S
C1467 C1469 1.561 . S
C1467 C1470 1.526 . S
C1468 H1452 0.959 . S
C1468 H1453 0.959 . S
C1468 H1454 0.961 . S
C1468 C1467 1.502 . S
C1469 H1455 0.960 . S
C1469 H1456 0.961 . S
C1469 H1457 0.959 . S
C1469 C1467 1.561 . S
C1470 C1467 1.526 . S
C1470 C1471 1.396 . S
C1470 C1475 1.390 . S
C1471 C1465 1.465 . S
C1471 C1470 1.396 . S
C1471 C1472 1.399 1_545 S
C1472 H1458 0.929 . S
C1472 C1471 1.399 1_565 S
C1472 C1473 1.385 . S
C1473 H1459 0.931 . S
C1473 C1472 1.385 . S
C1473 C1474 1.389 1_565 S
C1474 C1473 1.389 1_545 S
C1474 C1475 1.387 . S
C1475 H1460 0.930 . S
C1475 C1470 1.390 . S
C1475 C1474 1.387 . S
H1476 C1488 0.930 . S
H1477 C1490 0.930 . S
H1478 C1491 0.930 . S
H1479 C1495 0.959 . S
H1480 C1495 0.959 . S
H1481 C1495 0.961 . S
H1482 C1496 0.960 . S
H1483 C1496 0.961 . S
H1484 C1496 0.959 . S
H1485 C1499 0.929 . S
H1486 C1500 0.931 . S
H1487 C1502 0.930 . S
C1488 H1476 0.930 . S
C1488 C1489 1.399 . S
C1488 C1493 1.399 . S
C1489 C1488 1.399 . S
C1489 C1490 1.376 . S
C1490 H1477 0.930 . S
C1490 C1489 1.376 . S
C1490 C1491 1.388 . S
C1491 H1478 0.930 . S
C1491 C1490 1.388 . S
C1491 C1492 1.390 . S
C1492 C1491 1.390 . S
C1492 C1493 1.394 . S
C1492 C1498 1.465 . S
C1493 C1488 1.399 . S
C1493 C1492 1.394 . S
C1493 C1494 1.516 . S
C1494 C1493 1.516 . S
C1494 C1495 1.502 . S
C1494 C1496 1.561 . S
C1494 C1497 1.526 . S
C1495 H1479 0.959 . S
C1495 H1480 0.959 . S
C1495 H1481 0.961 . S
C1495 C1494 1.502 . S
C1496 H1482 0.960 . S
C1496 H1483 0.961 . S
C1496 H1484 0.959 . S
C1496 C1494 1.561 . S
C1497 C1494 1.526 . S
C1497 C1498 1.396 . S
C1497 C1502 1.390 . S
C1498 C1492 1.465 . S
C1498 C1497 1.396 . S
C1498 C1499 1.399 . S
C1499 H1485 0.929 . S
C1499 C1498 1.399 . S
C1499 C1500 1.385 . S
C1500 H1486 0.931 . S
C1500 C1499 1.385 . S
C1500 C1501 1.389 . S
C1501 C1500 1.389 . S
C1501 C1502 1.387 . S
C1502 H1487 0.930 . S
C1502 C1497 1.390 . S
C1502 C1501 1.387 . S
H1503 C1515 0.930 . S
H1504 C1517 0.930 . S
H1505 C1518 0.930 . S
H1506 C1522 0.959 . S
H1507 C1522 0.959 . S
H1508 C1522 0.961 . S
H1509 C1523 0.960 . S
H1510 C1523 0.961 . S
H1511 C1523 0.959 . S
H1512 C1526 0.929 . S
H1513 C1527 0.931 . S
H1514 C1529 0.930 . S
C1515 H1503 0.930 . S
C1515 C1516 1.399 . S
C1515 C1520 1.399 . S
C1516 C1515 1.399 . S
C1516 C1517 1.376 . S
C1517 H1504 0.930 . S
C1517 C1516 1.376 . S
C1517 C1518 1.388 . S
C1518 H1505 0.930 . S
C1518 C1517 1.388 . S
C1518 C1519 1.390 . S
C1519 C1518 1.390 . S
C1519 C1520 1.394 . S
C1519 C1525 1.465 . S
C1520 C1515 1.399 . S
C1520 C1519 1.394 . S
C1520 C1521 1.516 . S
C1521 C1520 1.516 . S
C1521 C1522 1.502 . S
C1521 C1523 1.561 . S
C1521 C1524 1.526 . S
C1522 H1506 0.959 . S
C1522 H1507 0.959 . S
C1522 H1508 0.961 . S
C1522 C1521 1.502 . S
C1523 H1509 0.960 . S
C1523 H1510 0.961 . S
C1523 H1511 0.959 . S
C1523 C1521 1.561 . S
C1524 C1521 1.526 . S
C1524 C1525 1.396 . S
C1524 C1529 1.390 . S
C1525 C1519 1.465 . S
C1525 C1524 1.396 . S
C1525 C1526 1.399 . S
C1526 H1512 0.929 . S
C1526 C1525 1.399 . S
C1526 C1527 1.385 . S
C1527 H1513 0.931 . S
C1527 C1526 1.385 . S
C1527 C1528 1.389 . S
C1528 C1527 1.389 . S
C1528 C1529 1.387 . S
C1529 H1514 0.930 . S
C1529 C1524 1.390 . S
C1529 C1528 1.387 . S
H1530 C1542 0.930 . S
H1531 C1544 0.930 . S
H1532 C1545 0.930 . S
H1533 C1549 0.959 . S
H1534 C1549 0.959 . S
H1535 C1549 0.961 . S
H1536 C1550 0.960 . S
H1537 C1550 0.961 . S
H1538 C1550 0.959 . S
H1539 C1553 0.929 . S
H1540 C1554 0.931 . S
H1541 C1556 0.930 . S
C1542 H1530 0.930 . S
C1542 C1543 1.399 . S
C1542 C1547 1.399 . S
C1543 C1542 1.399 . S
C1543 C1544 1.376 . S
C1544 H1531 0.930 . S
C1544 C1543 1.376 . S
C1544 C1545 1.388 . S
C1545 H1532 0.930 . S
C1545 C1544 1.388 . S
C1545 C1546 1.390 . S
C1546 C1545 1.390 . S
C1546 C1547 1.394 . S
C1546 C1552 1.465 . S
C1547 C1542 1.399 . S
C1547 C1546 1.394 . S
C1547 C1548 1.516 . S
C1548 C1547 1.516 . S
C1548 C1549 1.502 . S
C1548 C1550 1.561 . S
C1548 C1551 1.526 . S
C1549 H1533 0.959 . S
C1549 H1534 0.959 . S
C1549 H1535 0.961 . S
C1549 C1548 1.502 . S
C1550 H1536 0.960 . S
C1550 H1537 0.961 . S
C1550 H1538 0.959 . S
C1550 C1548 1.561 . S
C1551 C1548 1.526 . S
C1551 C1552 1.396 . S
C1551 C1556 1.390 . S
C1552 C1546 1.465 . S
C1552 C1551 1.396 . S
C1552 C1553 1.399 . S
C1553 H1539 0.929 . S
C1553 C1552 1.399 . S
C1553 C1554 1.385 . S
C1554 H1540 0.931 . S
C1554 C1553 1.385 . S
C1554 C1555 1.389 . S
C1555 C1554 1.389 . S
C1555 C1556 1.387 . S
C1556 H1541 0.930 . S
C1556 C1551 1.390 . S
C1556 C1555 1.387 . S
H1557 C1569 0.930 . S
H1558 C1571 0.930 . S
H1559 C1572 0.930 . S
H1560 C1576 0.959 . S
H1561 C1576 0.959 . S
H1562 C1576 0.961 . S
H1563 C1577 0.960 . S
H1564 C1577 0.961 . S
H1565 C1577 0.959 . S
H1566 C1580 0.929 . S
H1567 C1581 0.931 . S
H1568 C1583 0.930 . S
C1569 H1557 0.930 . S
C1569 C1570 1.399 . S
C1569 C1574 1.399 . S
C1570 C1569 1.399 . S
C1570 C1571 1.376 . S
C1571 H1558 0.930 . S
C1571 C1570 1.376 . S
C1571 C1572 1.388 . S
C1572 H1559 0.930 . S
C1572 C1571 1.388 . S
C1572 C1573 1.390 . S
C1573 C1572 1.390 . S
C1573 C1574 1.394 . S
C1573 C1579 1.465 . S
C1574 C1569 1.399 . S
C1574 C1573 1.394 . S
C1574 C1575 1.516 . S
C1575 C1574 1.516 . S
C1575 C1576 1.502 . S
C1575 C1577 1.561 . S
C1575 C1578 1.526 . S
C1576 H1560 0.959 . S
C1576 H1561 0.959 . S
C1576 H1562 0.961 . S
C1576 C1575 1.502 . S
C1577 H1563 0.960 . S
C1577 H1564 0.961 . S
C1577 H1565 0.959 . S
C1577 C1575 1.561 . S
C1578 C1575 1.526 . S
C1578 C1579 1.396 . S
C1578 C1583 1.390 . S
C1579 C1573 1.465 . S
C1579 C1578 1.396 . S
C1579 C1580 1.399 . S
C1580 H1566 0.929 . S
C1580 C1579 1.399 . S
C1580 C1581 1.385 . S
C1581 H1567 0.931 . S
C1581 C1580 1.385 . S
C1581 C1582 1.389 . S
C1582 C1581 1.389 . S
C1582 C1583 1.387 . S
C1583 H1568 0.930 . S
C1583 C1578 1.390 . S
C1583 C1582 1.387 . S
H1584 C1596 0.930 . S
H1585 C1598 0.930 . S
H1586 C1599 0.930 . S
H1587 C1603 0.959 . S
H1588 C1603 0.959 . S
H1589 C1603 0.961 . S
H1590 C1604 0.960 . S
H1591 C1604 0.961 . S
H1592 C1604 0.959 . S
H1593 C1607 0.929 . S
H1594 C1608 0.931 . S
H1595 C1610 0.930 . S
C1596 H1584 0.930 . S
C1596 C1597 1.399 . S
C1596 C1601 1.399 . S
C1597 C1596 1.399 . S
C1597 C1598 1.376 . S
C1598 H1585 0.930 . S
C1598 C1597 1.376 . S
C1598 C1599 1.388 . S
C1599 H1586 0.930 . S
C1599 C1598 1.388 . S
C1599 C1600 1.390 . S
C1600 C1599 1.390 . S
C1600 C1601 1.394 . S
C1600 C1606 1.465 . S
C1601 C1596 1.399 . S
C1601 C1600 1.394 . S
C1601 C1602 1.516 . S
C1602 C1601 1.516 . S
C1602 C1603 1.502 . S
C1602 C1604 1.561 . S
C1602 C1605 1.526 . S
C1603 H1587 0.959 . S
C1603 H1588 0.959 . S
C1603 H1589 0.961 . S
C1603 C1602 1.502 . S
C1604 H1590 0.960 . S
C1604 H1591 0.961 . S
C1604 H1592 0.959 . S
C1604 C1602 1.561 . S
C1605 C1602 1.526 . S
C1605 C1606 1.396 . S
C1605 C1610 1.390 . S
C1606 C1600 1.465 . S
C1606 C1605 1.396 . S
C1606 C1607 1.399 . S
C1607 H1593 0.929 . S
C1607 C1606 1.399 . S
C1607 C1608 1.385 . S
C1608 H1594 0.931 . S
C1608 C1607 1.385 . S
C1608 C1609 1.389 . S
C1609 C1608 1.389 . S
C1609 C1610 1.387 . S
C1610 H1595 0.930 . S
C1610 C1605 1.390 . S
C1610 C1609 1.387 . S
H1611 C1623 0.930 . S
H1612 C1625 0.930 . S
H1613 C1626 0.930 . S
H1614 C1630 0.959 . S
H1615 C1630 0.959 . S
H1616 C1630 0.961 . S
H1617 C1631 0.960 . S
H1618 C1631 0.961 . S
H1619 C1631 0.959 . S
H1620 C1634 0.929 . S
H1621 C1635 0.931 . S
H1622 C1637 0.930 . S
C1623 H1611 0.930 . S
C1623 C1624 1.399 . S
C1623 C1628 1.399 . S
C1624 C1623 1.399 . S
C1624 C1625 1.376 . S
C1625 H1612 0.930 . S
C1625 C1624 1.376 . S
C1625 C1626 1.388 . S
C1626 H1613 0.930 . S
C1626 C1625 1.388 . S
C1626 C1627 1.390 . S
C1627 C1626 1.390 . S
C1627 C1628 1.394 . S
C1627 C1633 1.465 . S
C1628 C1623 1.399 . S
C1628 C1627 1.394 . S
C1628 C1629 1.516 . S
C1629 C1628 1.516 . S
C1629 C1630 1.502 . S
C1629 C1631 1.561 . S
C1629 C1632 1.526 . S
C1630 H1614 0.959 . S
C1630 H1615 0.959 . S
C1630 H1616 0.961 . S
C1630 C1629 1.502 . S
C1631 H1617 0.960 . S
C1631 H1618 0.961 . S
C1631 H1619 0.959 . S
C1631 C1629 1.561 . S
C1632 C1629 1.526 . S
C1632 C1633 1.396 . S
C1632 C1637 1.390 . S
C1633 C1627 1.465 . S
C1633 C1632 1.396 . S
C1633 C1634 1.399 . S
C1634 H1620 0.929 . S
C1634 C1633 1.399 . S
C1634 C1635 1.385 . S
C1635 H1621 0.931 . S
C1635 C1634 1.385 . S
C1635 C1636 1.389 . S
C1636 C1635 1.389 . S
C1636 C1637 1.387 . S
C1637 H1622 0.930 . S
C1637 C1632 1.390 . S
C1637 C1636 1.387 . S
H1638 C1650 0.930 . S
H1639 C1652 0.930 . S
H1640 C1653 0.930 . S
H1641 C1657 0.959 . S
H1642 C1657 0.959 . S
H1643 C1657 0.961 . S
H1644 C1658 0.960 . S
H1645 C1658 0.961 . S
H1646 C1658 0.959 . S
H1647 C1661 0.929 . S
H1648 C1662 0.931 . S
H1649 C1664 0.930 . S
C1650 H1638 0.930 . S
C1650 C1651 1.399 . S
C1650 C1655 1.399 . S
C1651 C1650 1.399 . S
C1651 C1652 1.376 . S
C1652 H1639 0.930 . S
C1652 C1651 1.376 . S
C1652 C1653 1.388 . S
C1653 H1640 0.930 . S
C1653 C1652 1.388 . S
C1653 C1654 1.390 . S
C1654 C1653 1.390 . S
C1654 C1655 1.394 . S
C1654 C1660 1.465 . S
C1655 C1650 1.399 . S
C1655 C1654 1.394 . S
C1655 C1656 1.516 . S
C1656 C1655 1.516 . S
C1656 C1657 1.502 . S
C1656 C1658 1.561 . S
C1656 C1659 1.526 . S
C1657 H1641 0.959 . S
C1657 H1642 0.959 . S
C1657 H1643 0.961 . S
C1657 C1656 1.502 . S
C1658 H1644 0.960 . S
C1658 H1645 0.961 . S
C1658 H1646 0.959 . S
C1658 C1656 1.561 . S
C1659 C1656 1.526 . S
C1659 C1660 1.396 . S
C1659 C1664 1.390 . S
C1660 C1654 1.465 . S
C1660 C1659 1.396 . S
C1660 C1661 1.399 . S
C1661 H1647 0.929 . S
C1661 C1660 1.399 . S
C1661 C1662 1.385 . S
C1662 H1648 0.931 . S
C1662 C1661 1.385 . S
C1662 C1663 1.389 . S
C1663 C1662 1.389 . S
C1663 C1664 1.387 . S
C1664 H1649 0.930 . S
C1664 C1659 1.390 . S
C1664 C1663 1.387 . S
H1665 C1677 0.930 . S
H1666 C1679 0.930 . S
H1667 C1680 0.930 . S
H1668 C1684 0.959 . S
H1669 C1684 0.959 . S
H1670 C1684 0.961 . S
H1671 C1685 0.960 . S
H1672 C1685 0.961 . S
H1673 C1685 0.959 . S
H1674 C1688 0.929 . S
H1675 C1689 0.931 . S
H1676 C1691 0.930 . S
C1677 H1665 0.930 . S
C1677 C1678 1.399 . S
C1677 C1682 1.399 . S
C1678 C1677 1.399 . S
C1678 C1679 1.376 . S
C1679 H1666 0.930 . S
C1679 C1678 1.376 . S
C1679 C1680 1.388 . S
C1680 H1667 0.930 . S
C1680 C1679 1.388 . S
C1680 C1681 1.390 . S
C1681 C1680 1.390 . S
C1681 C1682 1.394 . S
C1681 C1687 1.465 . S
C1682 C1677 1.399 . S
C1682 C1681 1.394 . S
C1682 C1683 1.516 . S
C1683 C1682 1.516 . S
C1683 C1684 1.502 . S
C1683 C1685 1.561 . S
C1683 C1686 1.526 . S
C1684 H1668 0.959 . S
C1684 H1669 0.959 . S
C1684 H1670 0.961 . S
C1684 C1683 1.502 . S
C1685 H1671 0.960 . S
C1685 H1672 0.961 . S
C1685 H1673 0.959 . S
C1685 C1683 1.561 . S
C1686 C1683 1.526 . S
C1686 C1687 1.396 . S
C1686 C1691 1.390 . S
C1687 C1681 1.465 . S
C1687 C1686 1.396 . S
C1687 C1688 1.399 . S
C1688 H1674 0.929 . S
C1688 C1687 1.399 . S
C1688 C1689 1.385 . S
C1689 H1675 0.931 . S
C1689 C1688 1.385 . S
C1689 C1690 1.389 . S
C1690 C1689 1.389 . S
C1690 C1691 1.387 . S
C1691 H1676 0.930 . S
C1691 C1686 1.390 . S
C1691 C1690 1.387 . S
H1692 C1704 0.930 . S
H1693 C1706 0.930 . S
H1694 C1707 0.930 . S
H1695 C1711 0.959 . S
H1696 C1711 0.959 . S
H1697 C1711 0.961 . S
H1698 C1712 0.960 . S
H1699 C1712 0.961 . S
H1700 C1712 0.959 . S
H1701 C1715 0.929 . S
H1702 C1716 0.931 . S
H1703 C1718 0.930 . S
C1704 H1692 0.930 . S
C1704 C1705 1.399 . S
C1704 C1709 1.399 . S
C1705 C1704 1.399 . S
C1705 C1706 1.376 . S
C1706 H1693 0.930 . S
C1706 C1705 1.376 . S
C1706 C1707 1.388 . S
C1707 H1694 0.930 . S
C1707 C1706 1.388 . S
C1707 C1708 1.390 . S
C1708 C1707 1.390 . S
C1708 C1709 1.394 . S
C1708 C1714 1.465 . S
C1709 C1704 1.399 . S
C1709 C1708 1.394 . S
C1709 C1710 1.516 . S
C1710 C1709 1.516 . S
C1710 C1711 1.502 . S
C1710 C1712 1.561 . S
C1710 C1713 1.526 . S
C1711 H1695 0.959 . S
C1711 H1696 0.959 . S
C1711 H1697 0.961 . S
C1711 C1710 1.502 . S
C1712 H1698 0.960 . S
C1712 H1699 0.961 . S
C1712 H1700 0.959 . S
C1712 C1710 1.561 . S
C1713 C1710 1.526 . S
C1713 C1714 1.396 . S
C1713 C1718 1.390 . S
C1714 C1708 1.465 . S
C1714 C1713 1.396 . S
C1714 C1715 1.399 . S
C1715 H1701 0.929 . S
C1715 C1714 1.399 . S
C1715 C1716 1.385 . S
C1716 H1702 0.931 . S
C1716 C1715 1.385 . S
C1716 C1717 1.389 . S
C1717 C1716 1.389 . S
C1717 C1718 1.387 . S
C1718 H1703 0.930 . S
C1718 C1713 1.390 . S
C1718 C1717 1.387 . S
H1719 C1731 0.930 . S
H1720 C1733 0.930 . S
H1721 C1734 0.930 . S
H1722 C1738 0.959 . S
H1723 C1738 0.959 . S
H1724 C1738 0.961 . S
H1725 C1739 0.960 . S
H1726 C1739 0.961 . S
H1727 C1739 0.959 . S
H1728 C1742 0.929 . S
H1729 C1743 0.931 . S
H1730 C1745 0.930 . S
C1731 H1719 0.930 . S
C1731 C1732 1.399 . S
C1731 C1736 1.399 . S
C1732 C1731 1.399 . S
C1732 C1733 1.376 . S
C1733 H1720 0.930 . S
C1733 C1732 1.376 . S
C1733 C1734 1.388 . S
C1734 H1721 0.930 . S
C1734 C1733 1.388 . S
C1734 C1735 1.390 . S
C1735 C1734 1.390 . S
C1735 C1736 1.394 . S
C1735 C1741 1.465 . S
C1736 C1731 1.399 . S
C1736 C1735 1.394 . S
C1736 C1737 1.516 . S
C1737 C1736 1.516 . S
C1737 C1738 1.502 . S
C1737 C1739 1.561 . S
C1737 C1740 1.526 . S
C1738 H1722 0.959 . S
C1738 H1723 0.959 . S
C1738 H1724 0.961 . S
C1738 C1737 1.502 . S
C1739 H1725 0.960 . S
C1739 H1726 0.961 . S
C1739 H1727 0.959 . S
C1739 C1737 1.561 . S
C1740 C1737 1.526 . S
C1740 C1741 1.396 . S
C1740 C1745 1.390 . S
C1741 C1735 1.465 . S
C1741 C1740 1.396 . S
C1741 C1742 1.399 . S
C1742 H1728 0.929 . S
C1742 C1741 1.399 . S
C1742 C1743 1.385 . S
C1743 H1729 0.931 . S
C1743 C1742 1.385 . S
C1743 C1744 1.389 . S
C1744 C1743 1.389 . S
C1744 C1745 1.387 . S
C1745 H1730 0.930 . S
C1745 C1740 1.390 . S
C1745 C1744 1.387 . S
H1746 C1758 0.930 . S
H1747 C1760 0.930 . S
H1748 C1761 0.930 . S
H1749 C1765 0.959 . S
H1750 C1765 0.959 . S
H1751 C1765 0.961 . S
H1752 C1766 0.960 . S
H1753 C1766 0.961 . S
H1754 C1766 0.959 . S
H1755 C1769 0.929 . S
H1756 C1770 0.931 . S
H1757 C1772 0.930 . S
C1758 H1746 0.930 . S
C1758 C1759 1.399 . S
C1758 C1763 1.399 . S
C1759 C1758 1.399 . S
C1759 C1760 1.376 . S
C1760 H1747 0.930 . S
C1760 C1759 1.376 . S
C1760 C1761 1.388 . S
C1761 H1748 0.930 . S
C1761 C1760 1.388 . S
C1761 C1762 1.390 . S
C1762 C1761 1.390 . S
C1762 C1763 1.394 . S
C1762 C1768 1.465 . S
C1763 C1758 1.399 . S
C1763 C1762 1.394 . S
C1763 C1764 1.516 . S
C1764 C1763 1.516 . S
C1764 C1765 1.502 . S
C1764 C1766 1.561 . S
C1764 C1767 1.526 . S
C1765 H1749 0.959 . S
C1765 H1750 0.959 . S
C1765 H1751 0.961 . S
C1765 C1764 1.502 . S
C1766 H1752 0.960 . S
C1766 H1753 0.961 . S
C1766 H1754 0.959 . S
C1766 C1764 1.561 . S
C1767 C1764 1.526 . S
C1767 C1768 1.396 . S
C1767 C1772 1.390 . S
C1768 C1762 1.465 . S
C1768 C1767 1.396 . S
C1768 C1769 1.399 . S
C1769 H1755 0.929 . S
C1769 C1768 1.399 . S
C1769 C1770 1.385 . S
C1770 H1756 0.931 . S
C1770 C1769 1.385 . S
C1770 C1771 1.389 . S
C1771 C1770 1.389 . S
C1771 C1772 1.387 . S
C1772 H1757 0.930 . S
C1772 C1767 1.390 . S
C1772 C1771 1.387 . S
H1773 C1785 0.930 . S
H1774 C1787 0.930 . S
H1775 C1788 0.930 . S
H1776 C1792 0.959 . S
H1777 C1792 0.959 . S
H1778 C1792 0.961 . S
H1779 C1793 0.960 . S
H1780 C1793 0.961 . S
H1781 C1793 0.959 . S
H1782 C1796 0.929 . S
H1783 C1797 0.931 . S
H1784 C1799 0.930 . S
C1785 H1773 0.930 . S
C1785 C1786 1.399 . S
C1785 C1790 1.399 . S
C1786 C1785 1.399 . S
C1786 C1787 1.376 . S
C1787 H1774 0.930 . S
C1787 C1786 1.376 . S
C1787 C1788 1.388 . S
C1788 H1775 0.930 . S
C1788 C1787 1.388 . S
C1788 C1789 1.390 . S
C1789 C1788 1.390 . S
C1789 C1790 1.394 . S
C1789 C1795 1.465 . S
C1790 C1785 1.399 . S
C1790 C1789 1.394 . S
C1790 C1791 1.516 . S
C1791 C1790 1.516 . S
C1791 C1792 1.502 . S
C1791 C1793 1.561 . S
C1791 C1794 1.526 . S
C1792 H1776 0.959 . S
C1792 H1777 0.959 . S
C1792 H1778 0.961 . S
C1792 C1791 1.502 . S
C1793 H1779 0.960 . S
C1793 H1780 0.961 . S
C1793 H1781 0.959 . S
C1793 C1791 1.561 . S
C1794 C1791 1.526 . S
C1794 C1795 1.396 . S
C1794 C1799 1.390 . S
C1795 C1789 1.465 . S
C1795 C1794 1.396 . S
C1795 C1796 1.399 . S
C1796 H1782 0.929 . S
C1796 C1795 1.399 . S
C1796 C1797 1.385 . S
C1797 H1783 0.931 . S
C1797 C1796 1.385 . S
C1797 C1798 1.389 . S
C1798 C1797 1.389 . S
C1798 C1799 1.387 . S
C1799 H1784 0.930 . S
C1799 C1794 1.390 . S
C1799 C1798 1.387 . S
C355 C124 1.525 . S
C367 C168 1.486 . S
C382 C130 1.494 . S
C394 C188 1.435 . S
C409 C115 1.498 . S
C421 C211 1.485 . S
C436 C106 1.450 . S
C448 C191 1.417 . S
C475 C208 1.438 . S
C463 C85 1.429 . S
C490 C97 1.440 . S
C502 C171 1.458 . S
C529 C178 1.533 . S
C517 C103 1.521 . S
C556 C198 1.420 . S
C544 C88 1.481 . S
C571 C94 1.479 . S
C583 C203 1.507 . S
C598 C121 1.423 . S
C610 C183 1.449 . S
C625 C133 1.430 . S
C637 C218 1.420 . S
C664 C163 1.468 . S
C652 C112 1.459 . S
C691 C228 1.500 . S
C679 C16 1.521 . S
C706 C22 1.496 . S
C718 C248 1.464 . S
C733 C7 1.488 . S
C745 C271 1.501 . S
C760 C160 1.440 . S
C772 C251 1.426 . S
C787 C139 1.445 . S
C799 C268 1.403 . S
C814 C151 1.434 . S
C826 C231 1.460 . S
C841 C157 1.520 . S
C853 C238 1.534 . S
C868 C142 1.456 . S
C880 C258 1.470 . S
C907 C263 1.472 . S
C895 C148 1.509 . S
C922 C13 1.450 . S
C934 C243 1.416 . S
C961 C278 1.426 . S
C949 C25 1.426 . S
C976 C4 1.460 . S
C988 C223 1.468 . S
C1015 C288 1.476 . S
C1003 C70 1.525 . S
C1030 C76 1.477 . S
C1042 C308 1.487 . S
C1069 C331 1.497 . S
C1057 C61 1.493 . S
C1096 C311 1.439 . S
C1084 C52 1.437 . S
C1123 C328 1.452 . S
C1111 C31 1.445 . S
C1138 C43 1.434 . S
C1150 C291 1.459 . S
C1165 C49 1.524 . S
C1177 C298 1.529 . S
C1192 C34 1.457 . S
C1204 C318 1.473 . S
C1231 C323 1.472 . S
C1219 C40 1.509 . S
C1246 C67 1.423 . S
C1258 C303 1.450 . S
C1273 C79 1.415 . S
C1285 C338 1.412 . S
C1300 C58 1.467 . S
C1312 C283 1.464 . S
C1327 C140 1.301 . S
C1339 C181 1.318 1_565 S
C1366 C201 1.500 . S
C1354 C149 1.598 . S
C1381 C158 1.470 . S
C1393 C210 1.469 . S
C1408 C59 1.598 . S
C1420 C190 1.586 . S
C1435 C68 1.455 . S
C1447 C221 1.404 . S
C1474 C170 1.244 1_545 S
C1462 C77 1.313 . S
C1489 C32 1.298 . S
C1501 C241 1.300 . S
C1516 C41 1.586 . S
C1528 C261 1.555 . S
C1543 C50 1.467 . S
C1555 C270 1.458 . S
C1570 C113 1.619 . S
C1582 C250 1.536 . S
C1609 C281 1.403 . S
C1597 C122 1.456 . S
C1624 C131 1.316 . S
C1636 C230 1.250 . S
C1651 C86 1.298 . S
C1663 C301 1.314 . S
C1678 C95 1.589 . S
C1690 C321 1.547 . S
C1717 C330 1.451 . S
C1705 C104 1.466 . S
C1732 C5 1.619 . S
C1744 C310 1.538 . S
C1759 C14 1.454 . S
C1771 C341 1.408 . S
C1786 C23 1.300 . S
C1798 C290 1.312 . S
