# Generated by pormake.
# Topology eea, (3,6)-cn, num edge types: 1
# Building blocks:
#     Node 0, Type 0, BuildingBlock: QEWDON_clean_linker_0, # of connection points: 3
#     Node 1, Type 0, BuildingBlock: QEWDON_clean_linker_0, # of connection points: 3
#     Node 2, Type 0, BuildingBlock: QEWDON_clean_linker_0, # of connection points: 3
#     Node 3, Type 0, BuildingBlock: QEWDON_clean_linker_0, # of connection points: 3
#     Node 4, Type 0, BuildingBlock: QEWDON_clean_linker_0, # of connection points: 3
#     Node 5, Type 0, BuildingBlock: QEWDON_clean_linker_0, # of connection points: 3
#     Node 6, Type 0, BuildingBlock: QEWDON_clean_linker_0, # of connection points: 3
#     Node 7, Type 0, BuildingBlock: QEWDON_clean_linker_0, # of connection points: 3
#     Node 8, Type 0, BuildingBlock: QEWDON_clean_linker_0, # of connection points: 3
#     Node 9, Type 0, BuildingBlock: QEWDON_clean_linker_0, # of connection points: 3
#     Node 10, Type 0, BuildingBlock: QEWDON_clean_linker_0, # of connection points: 3
#     Node 11, Type 0, BuildingBlock: QEWDON_clean_linker_0, # of connection points: 3
#     Node 12, Type 0, BuildingBlock: QEWDON_clean_linker_0, # of connection points: 3
#     Node 13, Type 0, BuildingBlock: QEWDON_clean_linker_0, # of connection points: 3
#     Node 14, Type 0, BuildingBlock: QEWDON_clean_linker_0, # of connection points: 3
#     Node 15, Type 0, BuildingBlock: QEWDON_clean_linker_0, # of connection points: 3
#     Node 16, Type 0, BuildingBlock: QEWDON_clean_linker_0, # of connection points: 3
#     Node 17, Type 0, BuildingBlock: QEWDON_clean_linker_0, # of connection points: 3
#     Node 18, Type 1, BuildingBlock: NUHQIS_clean_sbu_0, # of connection points: 6
#     Node 19, Type 1, BuildingBlock: NUHQIS_clean_sbu_0, # of connection points: 6
#     Node 20, Type 1, BuildingBlock: NUHQIS_clean_sbu_0, # of connection points: 6
#     Node 21, Type 1, BuildingBlock: NUHQIS_clean_sbu_0, # of connection points: 6
#     Node 22, Type 1, BuildingBlock: NUHQIS_clean_sbu_0, # of connection points: 6
#     Node 23, Type 1, BuildingBlock: NUHQIS_clean_sbu_0, # of connection points: 6
#     Node 24, Type 1, BuildingBlock: NUHQIS_clean_sbu_0, # of connection points: 6
#     Node 25, Type 1, BuildingBlock: NUHQIS_clean_sbu_0, # of connection points: 6
#     Node 26, Type 1, BuildingBlock: NUHQIS_clean_sbu_0, # of connection points: 6
#     Edge 27, Type (0, 1), BuildingBlock: EZIPEK_clean_linker_0, # of connection points: 2
#     Edge 28, Type (0, 1), BuildingBlock: EZIPEK_clean_linker_0, # of connection points: 2
#     Edge 29, Type (0, 1), BuildingBlock: EZIPEK_clean_linker_0, # of connection points: 2
#     Edge 30, Type (0, 1), BuildingBlock: EZIPEK_clean_linker_0, # of connection points: 2
#     Edge 31, Type (0, 1), BuildingBlock: EZIPEK_clean_linker_0, # of connection points: 2
#     Edge 32, Type (0, 1), BuildingBlock: EZIPEK_clean_linker_0, # of connection points: 2
#     Edge 33, Type (0, 1), BuildingBlock: EZIPEK_clean_linker_0, # of connection points: 2
#     Edge 34, Type (0, 1), BuildingBlock: EZIPEK_clean_linker_0, # of connection points: 2
#     Edge 35, Type (0, 1), BuildingBlock: EZIPEK_clean_linker_0, # of connection points: 2
#     Edge 36, Type (0, 1), BuildingBlock: EZIPEK_clean_linker_0, # of connection points: 2
#     Edge 37, Type (0, 1), BuildingBlock: EZIPEK_clean_linker_0, # of connection points: 2
#     Edge 38, Type (0, 1), BuildingBlock: EZIPEK_clean_linker_0, # of connection points: 2
#     Edge 39, Type (0, 1), BuildingBlock: EZIPEK_clean_linker_0, # of connection points: 2
#     Edge 40, Type (0, 1), BuildingBlock: EZIPEK_clean_linker_0, # of connection points: 2
#     Edge 41, Type (0, 1), BuildingBlock: EZIPEK_clean_linker_0, # of connection points: 2
#     Edge 42, Type (0, 1), BuildingBlock: EZIPEK_clean_linker_0, # of connection points: 2
#     Edge 43, Type (0, 1), BuildingBlock: EZIPEK_clean_linker_0, # of connection points: 2
#     Edge 44, Type (0, 1), BuildingBlock: EZIPEK_clean_linker_0, # of connection points: 2
#     Edge 45, Type (0, 1), BuildingBlock: EZIPEK_clean_linker_0, # of connection points: 2
#     Edge 46, Type (0, 1), BuildingBlock: EZIPEK_clean_linker_0, # of connection points: 2
#     Edge 47, Type (0, 1), BuildingBlock: EZIPEK_clean_linker_0, # of connection points: 2
#     Edge 48, Type (0, 1), BuildingBlock: EZIPEK_clean_linker_0, # of connection points: 2
#     Edge 49, Type (0, 1), BuildingBlock: EZIPEK_clean_linker_0, # of connection points: 2
#     Edge 50, Type (0, 1), BuildingBlock: EZIPEK_clean_linker_0, # of connection points: 2
#     Edge 51, Type (0, 1), BuildingBlock: EZIPEK_clean_linker_0, # of connection points: 2
#     Edge 52, Type (0, 1), BuildingBlock: EZIPEK_clean_linker_0, # of connection points: 2
#     Edge 53, Type (0, 1), BuildingBlock: EZIPEK_clean_linker_0, # of connection points: 2
#     Edge 54, Type (0, 1), BuildingBlock: EZIPEK_clean_linker_0, # of connection points: 2
#     Edge 55, Type (0, 1), BuildingBlock: EZIPEK_clean_linker_0, # of connection points: 2
#     Edge 56, Type (0, 1), BuildingBlock: EZIPEK_clean_linker_0, # of connection points: 2
#     Edge 57, Type (0, 1), BuildingBlock: EZIPEK_clean_linker_0, # of connection points: 2
#     Edge 58, Type (0, 1), BuildingBlock: EZIPEK_clean_linker_0, # of connection points: 2
#     Edge 59, Type (0, 1), BuildingBlock: EZIPEK_clean_linker_0, # of connection points: 2
#     Edge 60, Type (0, 1), BuildingBlock: EZIPEK_clean_linker_0, # of connection points: 2
#     Edge 61, Type (0, 1), BuildingBlock: EZIPEK_clean_linker_0, # of connection points: 2
#     Edge 62, Type (0, 1), BuildingBlock: EZIPEK_clean_linker_0, # of connection points: 2
#     Edge 63, Type (0, 1), BuildingBlock: EZIPEK_clean_linker_0, # of connection points: 2
#     Edge 64, Type (0, 1), BuildingBlock: EZIPEK_clean_linker_0, # of connection points: 2
#     Edge 65, Type (0, 1), BuildingBlock: EZIPEK_clean_linker_0, # of connection points: 2
#     Edge 66, Type (0, 1), BuildingBlock: EZIPEK_clean_linker_0, # of connection points: 2
#     Edge 67, Type (0, 1), BuildingBlock: EZIPEK_clean_linker_0, # of connection points: 2
#     Edge 68, Type (0, 1), BuildingBlock: EZIPEK_clean_linker_0, # of connection points: 2
#     Edge 69, Type (0, 1), BuildingBlock: EZIPEK_clean_linker_0, # of connection points: 2
#     Edge 70, Type (0, 1), BuildingBlock: EZIPEK_clean_linker_0, # of connection points: 2
#     Edge 71, Type (0, 1), BuildingBlock: EZIPEK_clean_linker_0, # of connection points: 2
#     Edge 72, Type (0, 1), BuildingBlock: EZIPEK_clean_linker_0, # of connection points: 2
#     Edge 73, Type (0, 1), BuildingBlock: EZIPEK_clean_linker_0, # of connection points: 2
#     Edge 74, Type (0, 1), BuildingBlock: EZIPEK_clean_linker_0, # of connection points: 2
#     Edge 75, Type (0, 1), BuildingBlock: EZIPEK_clean_linker_0, # of connection points: 2
#     Edge 76, Type (0, 1), BuildingBlock: EZIPEK_clean_linker_0, # of connection points: 2
#     Edge 77, Type (0, 1), BuildingBlock: EZIPEK_clean_linker_0, # of connection points: 2
#     Edge 78, Type (0, 1), BuildingBlock: EZIPEK_clean_linker_0, # of connection points: 2
#     Edge 79, Type (0, 1), BuildingBlock: EZIPEK_clean_linker_0, # of connection points: 2
#     Edge 80, Type (0, 1), BuildingBlock: EZIPEK_clean_linker_0, # of connection points: 2
# Relax obj value: 0.090
# Max RMSD: 0.276
# Mean RMSD: 0.193
data_MOF--net-eea--node1-NUHQIS_clean_sbu_0--node2-QEWDON_clean_linker_0--edge1-EZIPEK_clean_linker_0
_symmetry_space_group_name_H-M    P1
_symmetry_Int_Tables_number       1
_symmetry_cell_setting            triclinic
loop_
_symmetry_equiv_pos_as_xyz
'x, y, z'
_cell_length_a     42.612529
_cell_length_b     43.278002
_cell_length_c     53.084597
_cell_angle_alpha  92.808404
_cell_angle_beta   92.986523
_cell_angle_gamma 120.01882
loop_
_atom_site_label
_atom_site_type_symbol
_atom_site_fract_x
_atom_site_fract_y
_atom_site_fract_z
_atom_type_partial_charge
H0 H 0.23262 0.1381 0.43756 0.0
C1 C 0.23284 0.11608 0.42709 0.0
C2 C 0.25314 0.10149 0.43742 0.0
C3 C 0.21083 0.10052 0.40419 0.0
H4 H 0.26662 0.05974 0.43286 0.0
C5 C 0.25202 0.07182 0.42451 0.0
C6 C 0.23045 0.05646 0.40158 0.0
C7 C 0.2103 0.07106 0.3914 0.0
C8 C 0.18519 0.112 0.39491 0.0
H9 H 0.19295 0.05844 0.37396 0.0
C10 C 0.19693 0.14825 0.39198 0.0
C11 C 0.17192 0.15817 0.38285 0.0
C12 C 0.1483 0.08609 0.38881 0.0
H13 H 0.13851 0.05808 0.39117 0.0
C14 C 0.12357 0.09607 0.37991 0.0
H15 H 0.22527 0.16852 0.3965 0.0
C16 C 0.13528 0.13192 0.37691 0.0
H17 H 0.11577 0.13928 0.36992 0.0
H18 H 0.09524 0.07593 0.37533 0.0
H19 H 0.90288 0.10892 0.43918 0.0
C20 C 0.92135 0.13064 0.4286 0.0
C21 C 0.9336 0.16602 0.43775 0.0
C22 C 0.93454 0.12341 0.40684 0.0
H23 H 0.96874 0.22105 0.43343 0.0
C24 C 0.95806 0.19443 0.42447 0.0
C25 C 0.96906 0.18813 0.4009 0.0
C26 C 0.95868 0.15211 0.39356 0.0
C27 C 0.92406 0.08598 0.39817 0.0
H28 H 0.96977 0.14575 0.37766 0.0
C29 C 0.88774 0.05769 0.39782 0.0
C30 C 0.87805 0.02277 0.38844 0.0
C31 C 0.95054 0.07847 0.38979 0.0
H32 H 0.97881 0.09936 0.39042 0.0
C33 C 0.94096 0.04384 0.38068 0.0
H34 H 0.8669 0.0628 0.40423 0.0
C35 C 0.90495 0.01618 0.37986 0.0
H36 H 0.89801 0.98946 0.37265 0.0
H37 H 0.96156 0.03843 0.37422 0.0
H38 H 0.9279 0.77603 0.45081 0.0
C39 C 0.90559 0.7767 0.44059 0.0
C40 C 0.87043 0.75823 0.44905 0.0
C41 C 0.91235 0.79813 0.42014 0.0
H42 H 0.81489 0.74642 0.44289 0.0
C43 C 0.84183 0.76017 0.43624 0.0
C44 C 0.84813 0.78123 0.41573 0.0
C45 C 0.88334 0.8 0.40779 0.0
C46 C 0.95013 0.82266 0.41371 0.0
H47 H 0.88839 0.81708 0.39243 0.0
C48 C 0.97397 0.81033 0.40705 0.0
C49 C 1.00901 0.83476 0.40003 0.0
C50 C 0.96216 0.85944 0.41384 0.0
H51 H 0.9446 0.86966 0.41912 0.0
C52 C 0.99688 0.88348 0.40734 0.0
H53 H 0.96516 0.78208 0.40679 0.0
C54 C 0.02012 0.87127 0.4004 0.0
H55 H 0.04692 0.8904 0.39522 0.0
H56 H 1.00577 0.91172 0.40756 0.0
H57 H 0.14322 0.23253 0.58551 0.0
C58 C 0.1222 0.23181 0.59655 0.0
C59 C 0.10522 0.25131 0.58972 0.0
C60 C 0.11026 0.20957 0.61657 0.0
H61 H 0.06259 0.26276 0.59728 0.0
C62 C 0.07655 0.24877 0.60311 0.0
C63 C 0.06472 0.22697 0.62323 0.0
C64 C 0.08214 0.20807 0.63016 0.0
C65 C 0.12307 0.18404 0.62134 0.0
H66 H 0.07236 0.19056 0.64535 0.0
C67 C 0.16025 0.19545 0.62664 0.0
C68 C 0.17087 0.17031 0.63236 0.0
C69 C 0.0971 0.14741 0.62115 0.0
H70 H 0.06841 0.13795 0.61688 0.0
C71 C 0.10775 0.12259 0.62635 0.0
H72 H 0.18058 0.22358 0.62694 0.0
C73 C 0.14438 0.13393 0.63201 0.0
H74 H 0.15215 0.1143 0.63625 0.0
H75 H 0.08751 0.09448 0.62613 0.0
H76 H 0.80545 0.91223 0.59758 0.0
C77 C 0.80615 0.89114 0.60735 0.0
C78 C 0.78655 0.85572 0.5963 0.0
C79 C 0.82779 0.89951 0.63033 0.0
H80 H 0.7741 0.80129 0.59945 0.0
C81 C 0.78855 0.82851 0.60827 0.0
C82 C 0.80989 0.83652 0.63126 0.0
C83 C 0.82891 0.87186 0.64239 0.0
C84 C 0.85126 0.93728 0.64085 0.0
H85 H 0.84541 0.87787 0.66016 0.0
C86 C 0.83792 0.9612 0.64173 0.0
C87 C 0.86088 0.99707 0.65122 0.0
C88 C 0.88772 0.94979 0.64964 0.0
H89 H 0.89889 0.93216 0.64882 0.0
C90 C 0.9104 0.98542 0.65908 0.0
H91 H 0.80987 0.95204 0.63521 0.0
C92 C 0.89711 0.009 0.65985 0.0
H93 H 0.91506 0.03662 0.6672 0.0
H94 H 0.93843 0.9948 0.6657 0.0
H95 H 0.09664 0.86458 0.58836 0.0
C96 C 0.12024 0.88761 0.59833 0.0
C97 C 0.15377 0.90318 0.58756 0.0
C98 C 0.11683 0.90325 0.62115 0.0
H99 H 0.20938 0.94681 0.59103 0.0
C100 C 0.18389 0.93408 0.59976 0.0
C101 C 0.18077 0.94964 0.62251 0.0
C102 C 0.14751 0.93384 0.63333 0.0
C103 C 0.08083 0.89071 0.63106 0.0
H104 H 0.1452 0.94645 0.65075 0.0
C105 C 0.057 0.8543 0.63433 0.0
C106 C 0.02355 0.84377 0.6445 0.0
C107 C 0.07037 0.916 0.63759 0.0
H108 H 0.08789 0.94407 0.6349 0.0
C109 C 0.03714 0.90542 0.64744 0.0
H110 H 0.06452 0.83443 0.62934 0.0
C111 C 0.01385 0.86953 0.65093 0.0
H112 H 0.98806 0.86172 0.65857 0.0
H113 H 0.02939 0.92511 0.65235 0.0
H114 H 0.89841 0.46014 0.77159 0.0
C115 C 0.90378 0.44195 0.76037 0.0
C116 C 0.92672 0.43053 0.7708 0.0
C117 C 0.88567 0.42771 0.73625 0.0
H118 H 0.94855 0.39627 0.76622 0.0
C119 C 0.93302 0.40627 0.75656 0.0
C120 C 0.91801 0.39406 0.73117 0.0
C121 C 0.89247 0.40367 0.72215 0.0
C122 C 0.8577 0.43574 0.72604 0.0
H123 H 0.87631 0.39173 0.70437 0.0
C124 C 0.86525 0.47128 0.72509 0.0
C125 C 0.83899 0.47814 0.71376 0.0
C126 C 0.82335 0.40737 0.71626 0.0
H127 H 0.81669 0.3798 0.71707 0.0
C128 C 0.79722 0.41422 0.70536 0.0
H129 H 0.89157 0.49345 0.73256 0.0
C130 C 0.80501 0.44938 0.70398 0.0
H131 H 0.78444 0.45424 0.69534 0.0
H132 H 0.7709 0.39219 0.69786 0.0
H133 H 0.56055 0.43802 0.77135 0.0
C134 C 0.58126 0.46011 0.76218 0.0
C135 C 0.59421 0.49537 0.77237 0.0
C136 C 0.59636 0.45328 0.7412 0.0
H137 H 0.63261 0.5513 0.76936 0.0
C138 C 0.62199 0.5241 0.76118 0.0
C139 C 0.63728 0.51762 0.74017 0.0
C140 C 0.62418 0.4823 0.73019 0.0
C141 C 0.58522 0.41594 0.73196 0.0
H142 H 0.63638 0.47747 0.71416 0.0
C143 C 0.54828 0.38881 0.72911 0.0
C144 C 0.5384 0.35354 0.72071 0.0
C145 C 0.61188 0.40712 0.7264 0.0
H146 H 0.64053 0.42723 0.72884 0.0
C147 C 0.60197 0.37208 0.71812 0.0
H148 H 0.52729 0.39504 0.73316 0.0
C149 C 0.56542 0.34538 0.71529 0.0
H150 H 0.55813 0.31828 0.70884 0.0
H151 H 0.62272 0.36559 0.71398 0.0
H152 H 0.59924 0.11943 0.78317 0.0
C153 C 0.57629 0.11864 0.77269 0.0
C154 C 0.5414 0.09992 0.78153 0.0
C155 C 0.58191 0.13849 0.75147 0.0
H156 H 0.48556 0.08757 0.77592 0.0
C157 C 0.51215 0.10084 0.76871 0.0
C158 C 0.51739 0.11995 0.7472 0.0
C159 C 0.55213 0.13808 0.73849 0.0
C160 C 0.61907 0.16473 0.74521 0.0
H161 H 0.55642 0.15385 0.7224 0.0
C162 C 0.64379 0.15433 0.73725 0.0
C163 C 0.67808 0.18041 0.73022 0.0
C164 C 0.6293 0.20115 0.74648 0.0
H165 H 0.61081 0.20975 0.75263 0.0
C166 C 0.66332 0.22682 0.73985 0.0
H167 H 0.63627 0.12637 0.7361 0.0
C168 C 0.68755 0.21655 0.73171 0.0
H169 H 0.71385 0.23686 0.72652 0.0
H170 H 0.67087 0.25476 0.74093 0.0
H171 H 0.80957 0.56042 0.92363 0.0
C172 C 0.78857 0.56188 0.93342 0.0
C173 C 0.77353 0.58198 0.92407 0.0
C174 C 0.77505 0.54202 0.95438 0.0
H175 H 0.73259 0.59698 0.92841 0.0
C176 C 0.74508 0.58252 0.93604 0.0
C177 C 0.73169 0.56302 0.95716 0.0
C178 C 0.74717 0.54342 0.96641 0.0
C179 C 0.78683 0.51668 0.96223 0.0
H180 H 0.73622 0.52786 0.98242 0.0
C181 C 0.82393 0.52726 0.96644 0.0
C182 C 0.834 0.50263 0.97446 0.0
C183 C 0.76027 0.48119 0.96564 0.0
H184 H 0.73157 0.47219 0.96216 0.0
C185 C 0.77035 0.4568 0.97329 0.0
H186 H 0.84477 0.55448 0.96394 0.0
C187 C 0.80701 0.46743 0.97773 0.0
H188 H 0.81441 0.44818 0.98377 0.0
H189 H 0.74968 0.42957 0.9758 0.0
H190 H 0.46402 0.24622 0.93232 0.0
C191 C 0.46268 0.22432 0.94221 0.0
C192 C 0.44093 0.18902 0.9312 0.0
C193 C 0.48415 0.23143 0.96512 0.0
H194 H 0.4249 0.13353 0.93428 0.0
C195 C 0.44045 0.16063 0.94324 0.0
C196 C 0.46177 0.16754 0.96608 0.0
C197 C 0.48288 0.2027 0.97714 0.0
C198 C 0.50996 0.26875 0.97568 0.0
H199 H 0.49948 0.20767 0.99471 0.0
C200 C 0.49974 0.29504 0.97607 0.0
C201 C 0.52431 0.33002 0.98661 0.0
C202 C 0.54532 0.27827 0.98547 0.0
H203 H 0.55433 0.25889 0.98489 0.0
C204 C 0.56969 0.31309 0.99582 0.0
H205 H 0.47268 0.28833 0.96867 0.0
C206 C 0.55924 0.33888 0.99648 0.0
H207 H 0.57844 0.36585 1.00455 0.0
H208 H 0.59678 0.32012 1.00328 0.0
H209 H 0.76834 0.20487 0.9147 0.0
C210 C 0.7896 0.22636 0.92744 0.0
C211 C 0.82587 0.24337 0.9212 0.0
C212 C 0.78069 0.23884 0.94939 0.0
H213 H 0.88073 0.28631 0.93176 0.0
C214 C 0.85297 0.27243 0.93703 0.0
C215 C 0.84427 0.28516 0.9587 0.0
C216 C 0.80823 0.26795 0.96507 0.0
C217 C 0.74238 0.22576 0.95413 0.0
H218 H 0.80132 0.2785 0.98149 0.0
C219 C 0.72012 0.19143 0.96215 0.0
C220 C 0.68448 0.18095 0.96806 0.0
C221 C 0.72861 0.24905 0.95173 0.0
H222 H 0.74546 0.27562 0.94569 0.0
C223 C 0.69314 0.23838 0.95719 0.0
H224 H 0.73058 0.17337 0.96425 0.0
C225 C 0.67116 0.20454 0.96535 0.0
H226 H 0.64371 0.19672 0.96967 0.0
H227 H 0.68272 0.25647 0.95524 0.0
H228 H 0.56713 0.80493 0.11006 0.0
C229 C 0.56787 0.7836 0.099 0.0
C230 C 0.58882 0.76928 0.10856 0.0
C231 C 0.54592 0.76863 0.07605 0.0
H232 H 0.60362 0.72868 0.10254 0.0
C233 C 0.58849 0.7406 0.09479 0.0
C234 C 0.56675 0.7257 0.07193 0.0
C235 C 0.54583 0.73993 0.06251 0.0
C236 C 0.52 0.77996 0.06741 0.0
H237 H 0.52825 0.72758 0.04513 0.0
C238 C 0.53191 0.81593 0.06351 0.0
C239 C 0.50676 0.8258 0.05471 0.0
C240 C 0.48284 0.75421 0.06264 0.0
H241 H 0.47308 0.72637 0.06565 0.0
C242 C 0.45791 0.76417 0.05416 0.0
H243 H 0.56051 0.836 0.06694 0.0
C244 C 0.46977 0.79981 0.05019 0.0
H245 H 0.45015 0.80718 0.04348 0.0
H246 H 0.42934 0.74421 0.05061 0.0
H247 H 0.22761 0.77366 0.10457 0.0
C248 C 0.24828 0.79548 0.09518 0.0
C249 C 0.2623 0.83095 0.10545 0.0
C250 C 0.2621 0.78802 0.07372 0.0
H251 H 0.30202 0.88658 0.10224 0.0
C252 C 0.29029 0.85928 0.09395 0.0
C253 C 0.30424 0.85206 0.07244 0.0
C254 C 0.28959 0.81659 0.06224 0.0
C255 C 0.2504 0.75052 0.06457 0.0
H256 H 0.30078 0.81122 0.04582 0.0
C257 C 0.2134 0.72356 0.06218 0.0
C258 C 0.20315 0.68817 0.05378 0.0
C259 C 0.27673 0.74142 0.05856 0.0
H260 H 0.30543 0.76138 0.06066 0.0
C261 C 0.26645 0.7063 0.05025 0.0
H262 H 0.19267 0.72998 0.06664 0.0
C263 C 0.22985 0.67976 0.04787 0.0
H264 H 0.22227 0.65258 0.04143 0.0
H265 H 0.28694 0.69961 0.04576 0.0
H266 H 0.26804 0.45543 0.11654 0.0
C267 C 0.24504 0.45504 0.10646 0.0
C268 C 0.21047 0.43675 0.11571 0.0
C269 C 0.2503 0.47491 0.08532 0.0
H270 H 0.15469 0.42462 0.11082 0.0
C271 C 0.1811 0.43781 0.10334 0.0
C272 C 0.18596 0.45682 0.08186 0.0
C273 C 0.22044 0.47486 0.07279 0.0
C274 C 0.28731 0.49976 0.0782 0.0
H275 H 0.22438 0.49042 0.05662 0.0
C276 C 0.31119 0.48772 0.07147 0.0
C277 C 0.34567 0.51218 0.06394 0.0
C278 C 0.29853 0.5363 0.07773 0.0
H279 H 0.28069 0.54618 0.083 0.0
C280 C 0.33287 0.56049 0.07065 0.0
H281 H 0.30286 0.45962 0.07163 0.0
C282 C 0.35633 0.54853 0.06374 0.0
H283 H 0.38286 0.56763 0.05812 0.0
H284 H 0.34126 0.58857 0.07043 0.0
H285 H 0.48349 0.90688 0.25924 0.0
C286 C 0.46238 0.90801 0.26906 0.0
C287 C 0.44779 0.92879 0.2602 0.0
C288 C 0.44792 0.88693 0.28948 0.0
H289 H 0.40695 0.9438 0.26466 0.0
C290 C 0.41915 0.92895 0.27209 0.0
C291 C 0.4041 0.90766 0.29209 0.0
C292 C 0.41912 0.88754 0.30104 0.0
C293 C 0.45952 0.86116 0.29725 0.0
H294 H 0.40719 0.87116 0.31651 0.0
C295 C 0.49647 0.87021 0.29965 0.0
C296 C 0.50608 0.8454 0.30835 0.0
C297 C 0.4327 0.82663 0.30262 0.0
H298 H 0.40406 0.81823 0.30015 0.0
C299 C 0.44222 0.80227 0.3111 0.0
H300 H 0.51758 0.89638 0.29529 0.0
C301 C 0.47859 0.81162 0.31415 0.0
H302 H 0.48535 0.79221 0.32079 0.0
H303 H 0.42127 0.77595 0.31529 0.0
H304 H 0.13914 0.57709 0.27035 0.0
C305 C 0.13309 0.55433 0.28103 0.0
C306 C 0.1085 0.51978 0.2701 0.0
C307 C 0.15078 0.55932 0.30511 0.0
H308 H 0.08419 0.46401 0.27323 0.0
C309 C 0.10109 0.48992 0.28339 0.0
C310 C 0.11635 0.4939 0.30851 0.0
C311 C 0.14248 0.52916 0.31839 0.0
C312 C 0.17794 0.59585 0.31679 0.0
H313 H 0.15748 0.53376 0.33644 0.0
C314 C 0.17254 0.62518 0.31406 0.0
C315 C 0.19643 0.65864 0.32733 0.0
C316 C 0.20884 0.60127 0.33178 0.0
H317 H 0.21479 0.57985 0.3335 0.0
C318 C 0.23249 0.63438 0.34492 0.0
H319 H 0.14931 0.62191 0.30235 0.0
C320 C 0.22607 0.66273 0.34305 0.0
H321 H 0.24471 0.68823 0.35352 0.0
H322 H 0.25586 0.63804 0.35665 0.0
H323 H 0.42882 0.5375 0.25463 0.0
C324 C 0.4528 0.56 0.26471 0.0
C325 C 0.48686 0.57303 0.2549 0.0
C326 C 0.44943 0.57768 0.28649 0.0
H327 H 0.54383 0.61323 0.25972 0.0
C328 C 0.51771 0.60286 0.26749 0.0
C329 C 0.51465 0.62095 0.28903 0.0
C330 C 0.48055 0.60815 0.29846 0.0
C331 C 0.41316 0.56745 0.29519 0.0
H332 H 0.47811 0.62259 0.31482 0.0
C333 C 0.38867 0.53225 0.30102 0.0
C334 C 0.35494 0.52404 0.30996 0.0
C335 C 0.40322 0.59382 0.29806 0.0
H336 H 0.42138 0.62095 0.2935 0.0
C337 C 0.36973 0.58551 0.30661 0.0
H338 H 0.39593 0.51162 0.29902 0.0
C339 C 0.34573 0.55087 0.31257 0.0
H340 H 0.31987 0.54492 0.3193 0.0
H341 H 0.36238 0.60603 0.30867 0.0
Tb342 Tb 0.4914 0.99157 0.9895 0.0
Eu343 Eu 0.51479 0.02658 0.04983 0.0
C344 C 0.51892 0.95812 0.0297 0.0
C345 C 0.43551 0.9582 0.0316 0.0
C346 C 0.48966 0.99179 0.91932 0.0
C347 C 0.5203 1.00251 0.88039 0.0
C348 C 0.51019 0.98471 0.90251 0.0
C349 C 0.47968 0.01733 0.91355 0.0
C350 C 0.48953 0.03488 0.89134 0.0
C351 C 0.50977 0.02752 0.87449 0.0
C352 C 0.47878 0.97235 0.94257 0.0
O353 O 0.49486 0.04336 0.99 0.0
O354 O 0.48693 0.05359 0.03146 0.0
O355 O 0.558 0.06585 0.02695 0.0
O356 O 0.55063 0.02442 0.99515 0.0
C357 C 0.48673 0.05994 1.00752 0.0
O358 O 0.50483 0.04922 0.08395 0.0
O359 O 0.55053 0.04046 0.08482 0.0
O360 O 0.53688 0.98959 0.04259 0.0
O361 O 0.49514 0.95149 1.01041 0.0
O362 O 0.44012 0.96439 1.00757 0.0
O363 O 0.46195 0.97493 0.04971 0.0
C364 C 0.56902 0.05688 1.00663 0.0
O365 O 0.5045 0.97211 0.95685 0.0
O366 O 0.45687 0.97753 0.95609 0.0
C367 C 0.51894 0.03082 0.12176 0.0
C368 C 0.49162 1.00036 0.16782 0.0
C369 C 0.52491 0.03318 0.16769 0.0
C370 C 0.53767 0.04864 0.14508 0.0
C371 C 0.48907 0.99611 0.1213 0.0
C372 C 0.47645 0.98068 0.14389 0.0
C373 C 0.53033 0.04851 0.09814 0.0
H374 H 0.53602 0.99652 0.8677 0.0
H375 H 0.51832 0.96526 0.90646 0.0
H376 H 0.46413 0.02373 0.92612 0.0
H377 H 0.48124 0.05416 0.88723 0.0
H378 H 0.54193 0.04736 0.18483 0.0
H379 H 0.56216 0.07467 0.14586 0.0
H380 H 0.47524 0.98091 0.10342 0.0
H381 H 0.4549 0.95307 0.14204 0.0
Tb382 Tb 0.03026 0.49136 0.99235 0.0
Eu383 Eu 1.00126 0.48331 0.05006 0.0
C384 C 0.06808 0.55663 0.03442 0.0
C385 C 0.06934 0.47509 0.03796 0.0
C386 C 0.03172 0.48793 0.92215 0.0
C387 C 0.02452 0.46488 0.87827 0.0
C388 C 0.04213 0.47279 0.90267 0.0
C389 C 1.00359 0.49533 0.91685 0.0
C390 C 0.9858 0.4872 0.89248 0.0
C391 C 0.99613 0.47184 0.87308 0.0
C392 C 0.04977 0.49478 0.94793 0.0
O393 O 0.97582 0.44471 0.98866 0.0
O394 O 0.97299 0.4281 0.02915 0.0
O395 O 0.96059 0.4889 0.02507 0.0
O396 O 0.99494 0.51449 0.99178 0.0
C397 C 0.96135 0.42081 1.00505 0.0
O398 O 0.98427 0.45115 0.08232 0.0
O399 O 0.9841 0.50115 0.08311 0.0
O400 O 0.03978 0.54228 0.04778 0.0
O401 O 0.07181 0.53902 0.015 0.0
O402 O 0.05695 0.46743 0.01389 0.0
O403 O 0.05604 0.48789 0.05442 0.0
C404 C 0.96599 0.50533 1.00418 0.0
O405 O 0.05309 0.52207 0.96189 0.0
O406 O 0.03946 0.46678 0.96068 0.0
C407 C 0.99888 0.48417 0.12174 0.0
C408 C 0.03534 0.49778 0.17022 0.0
C409 C 0.9995 0.46919 0.16519 0.0
C410 C 0.9814 0.46241 0.14106 0.0
C411 C 0.03457 0.51307 0.12688 0.0
C412 C 0.0527 0.51987 0.151 0.0
C413 C 0.98057 0.47479 0.09597 0.0
H414 H 0.03275 0.45298 0.86348 0.0
H415 H 0.06371 0.46685 0.90638 0.0
H416 H 0.9953 0.50727 0.93154 0.0
H417 H 0.96394 0.49274 0.88875 0.0
H418 H 0.98577 0.45192 0.17985 0.0
H419 H 0.95398 0.43982 0.13737 0.0
H420 H 0.04853 0.53002 0.11218 0.0
H421 H 0.08035 0.54206 0.15462 0.0
Tb422 Tb 0.54534 0.52158 0.04256 0.0
Eu423 Eu 0.52012 0.52851 0.98345 0.0
C424 C 0.51726 0.45752 1.00104 0.0
C425 C 0.59993 0.54096 0.99952 0.0
C426 C 0.54643 0.52298 0.11285 0.0
C427 C 0.50143 0.50111 0.14395 0.0
C428 C 0.51386 0.49572 0.12114 0.0
C429 C 0.56633 0.55556 0.12806 0.0
C430 C 0.55382 0.56093 0.1508 0.0
C431 C 0.52135 0.53375 0.15892 0.0
C432 C 0.55991 0.51764 0.08865 0.0
O433 O 0.53831 0.56797 0.04429 0.0
O434 O 0.54746 0.58397 1.00362 0.0
O435 O 0.47616 0.52391 1.00735 0.0
O436 O 0.48602 0.49401 0.0385 0.0
C437 C 0.54624 0.5916 0.02763 0.0
O438 O 0.53084 0.56008 0.95087 0.0
O439 O 0.48333 0.507 0.94876 0.0
O440 O 0.49984 0.47011 0.98788 0.0
O441 O 0.54145 0.47645 0.02013 0.0
O442 O 0.59602 0.54564 0.02367 0.0
O443 O 0.57273 0.52864 0.98191 0.0
C444 C 0.46608 0.50552 0.02732 0.0
O445 O 0.53726 0.49008 0.07314 0.0
O446 O 0.57846 0.54602 0.07657 0.0
C447 C 0.5137 0.52669 0.91127 0.0
C448 C 0.53813 0.51631 0.86499 0.0
C449 C 0.53693 0.54765 0.87083 0.0
C450 C 0.52481 0.55279 0.8938 0.0
C451 C 0.51424 0.49499 0.90516 0.0
C452 C 0.52641 0.48987 0.88219 0.0
C453 C 0.5041 0.53424 0.93627 0.0
H454 H 0.47628 0.47986 0.14993 0.0
H455 H 0.49789 0.47022 0.11001 0.0
H456 H 0.5916 0.57699 0.12236 0.0
H457 H 0.56954 0.58631 0.16214 0.0
H458 H 0.54593 0.56833 0.85777 0.0
H459 H 0.52478 0.57749 0.89816 0.0
H460 H 0.50578 0.47444 0.91824 0.0
H461 H 0.52717 0.46552 0.87796 0.0
Tb462 Tb 0.15855 0.32901 0.32348 0.0
Eu463 Eu 0.17961 0.35932 0.38406 0.0
C464 C 0.18359 0.292 0.36214 0.0
C465 C 0.1008 0.29411 0.36408 0.0
C466 C 0.15822 0.32991 0.25331 0.0
C467 C 0.18917 0.33995 0.21463 0.0
C468 C 0.17877 0.32243 0.2368 0.0
C469 C 0.14842 0.35547 0.24725 0.0
C470 C 0.15855 0.37271 0.22498 0.0
C471 C 0.17884 0.36497 0.20845 0.0
C472 C 0.14697 0.31065 0.27647 0.0
O473 O 0.15865 0.37935 0.32637 0.0
O474 O 0.1432 0.37815 0.36709 0.0
O475 O 0.22146 0.40275 0.36251 0.0
O476 O 0.21739 0.36499 0.32915 0.0
C477 C 0.14475 0.38921 0.34439 0.0
O478 O 0.17123 0.38354 0.41813 0.0
O479 O 0.21261 0.36864 0.41967 0.0
O480 O 0.20207 0.32297 0.37558 0.0
O481 O 0.15993 0.2868 0.3432 0.0
O482 O 0.10679 0.30362 0.3408 0.0
O483 O 0.12689 0.3071 0.38257 0.0
C484 C 0.23407 0.39661 0.34194 0.0
O485 O 0.17251 0.31039 0.29093 0.0
O486 O 0.12496 0.31599 0.28974 0.0
C487 C 0.17998 0.36113 0.4557 0.0
C488 C 0.14905 0.32904 0.50047 0.0
C489 C 0.18291 0.36152 0.5015 0.0
C490 C 0.1975 0.37776 0.47951 0.0
C491 C 0.14915 0.32691 0.45409 0.0
C492 C 0.13464 0.31067 0.47607 0.0
C493 C 0.19412 0.37929 0.43267 0.0
H494 H 0.20494 0.33372 0.20215 0.0
H495 H 0.18668 0.30291 0.24102 0.0
H496 H 0.13278 0.36207 0.2596 0.0
H497 H 0.15044 0.39204 0.22057 0.0
H498 H 0.1991 0.37471 0.51911 0.0
H499 H 0.2226 0.40336 0.48116 0.0
H500 H 0.13625 0.31262 0.43579 0.0
H501 H 0.11245 0.28338 0.47337 0.0
Tb502 Tb 0.70378 0.82952 0.32547 0.0
Eu503 Eu 0.66903 0.81641 0.38063 0.0
C504 C 0.74129 0.89069 0.37031 0.0
C505 C 0.7352 0.80456 0.36967 0.0
C506 C 0.70532 0.82724 0.2562 0.0
C507 C 0.70055 0.81059 0.21121 0.0
C508 C 0.71944 0.81915 0.23523 0.0
C509 C 0.67207 0.82664 0.25288 0.0
C510 C 0.6533 0.81825 0.22892 0.0
C511 C 0.66739 0.81012 0.20794 0.0
C512 C 0.72506 0.83595 0.28148 0.0
O513 O 0.66721 0.77207 0.32663 0.0
O514 O 0.6265 0.77275 0.35263 0.0
O515 O 0.64153 0.84145 0.35966 0.0
O516 O 0.65444 0.83308 0.31914 0.0
C517 C 0.6344 0.75703 0.33429 0.0
O518 O 0.6473 0.78138 0.41119 0.0
O519 O 0.65294 0.83407 0.41417 0.0
O520 O 0.7231 0.86817 0.38694 0.0
O521 O 0.73353 0.88226 0.34581 0.0
O522 O 0.74352 0.82647 0.35159 0.0
O523 O 0.70298 0.78997 0.37822 0.0
C524 C 0.63637 0.84123 0.33504 0.0
O525 O 0.72498 0.8615 0.29542 0.0
O526 O 0.71853 0.80884 0.29439 0.0
C527 C 0.66623 0.81353 0.45134 0.0
C528 C 0.70414 0.82589 0.49913 0.0
C529 C 0.66923 0.79581 0.49371 0.0
C530 C 0.65036 0.7897 0.46994 0.0
C531 C 0.70123 0.84358 0.4568 0.0
C532 C 0.71998 0.84976 0.48056 0.0
C533 C 0.64694 0.80613 0.426 0.0
H534 H 0.71166 0.80421 0.19519 0.0
H535 H 0.74496 0.81935 0.23745 0.0
H536 H 0.66053 0.83259 0.26881 0.0
H537 H 0.62766 0.81782 0.22673 0.0
H538 H 0.65672 0.77708 0.50785 0.0
H539 H 0.62354 0.76625 0.46599 0.0
H540 H 0.71425 0.8621 0.44263 0.0
H541 H 0.74696 0.87299 0.48442 0.0
Tb542 Tb 0.21255 0.85365 0.37503 0.0
Eu543 Eu 0.18228 0.85612 0.31569 0.0
C544 C 0.19429 0.79079 0.33426 0.0
C545 C 0.26641 0.87834 0.32979 0.0
C546 C 0.21574 0.85847 0.44525 0.0
C547 C 0.16807 0.83778 0.47432 0.0
C548 C 0.1809 0.83289 0.45161 0.0
C549 C 0.23739 0.88893 0.46216 0.0
C550 C 0.22446 0.89384 0.48483 0.0
C551 C 0.18978 0.86827 0.49104 0.0
C552 C 0.22976 0.8537 0.42124 0.0
O553 O 0.20505 0.89971 0.37589 0.0
O554 O 0.20583 0.91205 0.33417 0.0
O555 O 0.13835 0.84884 0.34066 0.0
O556 O 0.15302 0.82296 0.37241 0.0
C557 C 0.20854 0.92128 0.35842 0.0
O558 O 0.18387 0.88472 0.2826 0.0
O559 O 0.1455 0.82794 0.28163 0.0
O560 O 0.17779 0.80172 0.31837 0.0
O561 O 0.21256 0.80903 0.35552 0.0
O562 O 0.26143 0.87328 0.35403 0.0
O563 O 0.24078 0.87434 0.313 0.0
C564 C 0.13083 0.83207 0.36141 0.0
O565 O 0.2083 0.8248 0.40647 0.0
O566 O 0.24595 0.88177 0.40842 0.0
C567 C 0.17386 0.85083 0.24404 0.0
C568 C 0.20331 0.84618 0.19852 0.0
C569 C 0.19087 0.87049 0.20217 0.0
C570 C 0.17615 0.87268 0.2247 0.0
C571 C 0.18647 0.8266 0.24045 0.0
C572 C 0.20082 0.82413 0.21779 0.0
C573 C 0.16109 0.85572 0.26847 0.0
H574 H 0.14121 0.81783 0.47885 0.0
H575 H 0.16342 0.80912 0.43905 0.0
H576 H 0.26433 0.90896 0.45782 0.0
H577 H 0.24156 0.91752 0.4976 0.0
H578 H 0.19267 0.88781 0.18757 0.0
H579 H 0.16708 0.89188 0.22722 0.0
H580 H 0.18566 0.80993 0.25526 0.0
H581 H 0.2104 0.80531 0.21538 0.0
Tb582 Tb 0.82106 0.64926 0.65557 0.0
Eu583 Eu 0.84683 0.68605 0.716 0.0
C584 C 0.84334 0.61071 0.69623 0.0
C585 C 0.76645 0.62555 0.6979 0.0
C586 C 0.81232 0.647 0.58536 0.0
C587 C 0.84151 0.65642 0.54586 0.0
C588 C 0.83107 0.63845 0.56785 0.0
C589 C 0.80398 0.67385 0.58025 0.0
C590 C 0.81409 0.69155 0.55808 0.0
C591 C 0.83302 0.68305 0.54071 0.0
C592 C 0.80295 0.62847 0.60904 0.0
O593 O 0.81324 0.69557 0.65837 0.0
O594 O 0.84565 0.72929 0.6956 0.0
O595 O 0.89586 0.7192 0.69495 0.0
O596 O 0.87858 0.688 0.65527 0.0
C597 C 0.82816 0.72532 0.67355 0.0
O598 O 0.83489 0.70695 0.75022 0.0
O599 O 0.88161 0.69954 0.75121 0.0
O600 O 0.8465 0.63363 0.71479 0.0
O601 O 0.83581 0.61311 0.67235 0.0
O602 O 0.77768 0.61459 0.67863 0.0
O603 O 0.78604 0.65805 0.70879 0.0
C604 C 0.90193 0.71483 0.67132 0.0
O605 O 0.82962 0.62807 0.62187 0.0
O606 O 0.78301 0.63485 0.62392 0.0
C607 C 0.84917 0.68836 0.78801 0.0
C608 C 0.82435 0.65352 0.83244 0.0
C609 C 0.82837 0.68744 0.82996 0.0
C610 C 0.84069 0.70471 0.80793 0.0
C611 C 0.84518 0.65439 0.79051 0.0
C612 C 0.8329 0.63714 0.81258 0.0
C613 C 0.86046 0.7064 0.76446 0.0
H614 H 0.85616 0.64949 0.53278 0.0
H615 H 0.83796 0.618 0.57132 0.0
H616 H 0.78984 0.68136 0.59339 0.0
H617 H 0.80733 0.71207 0.55452 0.0
H618 H 0.82184 0.70045 0.84507 0.0
H619 H 0.84332 0.73075 0.80633 0.0
H620 H 0.85105 0.64096 0.77529 0.0
H621 H 0.82986 0.61092 0.81413 0.0
Tb622 Tb 0.36697 0.15982 0.65498 0.0
Eu623 Eu 0.33485 0.1488 0.71171 0.0
C624 C 0.40316 0.22295 0.69851 0.0
C625 C 0.40372 0.1412 0.70094 0.0
C626 C 0.36955 0.16005 0.58521 0.0
C627 C 0.35856 0.13517 0.54143 0.0
C628 C 0.37702 0.14251 0.56551 0.0
C629 C 0.34372 0.17069 0.58034 0.0
C630 C 0.32514 0.1632 0.5563 0.0
C631 C 0.33229 0.14517 0.53676 0.0
C632 C 0.38769 0.16556 0.61084 0.0
O633 O 0.31284 0.11289 0.64972 0.0
O634 O 0.3085 0.09437 0.6897 0.0
O635 O 0.29489 0.15451 0.686 0.0
O636 O 0.33171 0.18311 0.65453 0.0
C637 C 0.29811 0.08801 0.66538 0.0
O638 O 0.31723 0.11599 0.74364 0.0
O639 O 0.31472 0.16478 0.74392 0.0
O640 O 0.37402 0.20801 0.71103 0.0
O641 O 0.40777 0.20625 0.67896 0.0
O642 O 0.39301 0.13515 0.67654 0.0
O643 O 0.38942 0.15313 0.71723 0.0
C644 C 0.30164 0.17257 0.66585 0.0
O645 O 0.39133 0.19234 0.62563 0.0
O646 O 0.37708 0.13684 0.62283 0.0
C647 C 0.329 0.14849 0.78306 0.0
C648 C 0.36414 0.16313 0.83213 0.0
C649 C 0.33014 0.13209 0.82608 0.0
C650 C 0.31269 0.12483 0.80168 0.0
C651 C 0.36274 0.17988 0.78925 0.0
C652 C 0.38018 0.18718 0.81366 0.0
C653 C 0.3118 0.13876 0.75693 0.0
H654 H 0.36429 0.12114 0.52655 0.0
H655 H 0.39676 0.13403 0.56886 0.0
H656 H 0.33758 0.18441 0.59517 0.0
H657 H 0.30487 0.17102 0.55301 0.0
H658 H 0.31748 0.11323 0.84012 0.0
H659 H 0.28681 0.10036 0.79719 0.0
H660 H 0.37587 0.1984 0.77513 0.0
H661 H 0.40646 0.21122 0.81803 0.0
Tb662 Tb 0.87734 0.18548 0.70804 0.0
Eu663 Eu 0.85429 0.19292 0.64893 0.0
C664 C 0.84776 0.12063 0.66686 0.0
C665 C 0.93173 0.20121 0.66517 0.0
C666 C 0.88282 0.19054 0.77842 0.0
C667 C 0.87041 0.17921 0.82215 0.0
C668 C 0.87724 0.16919 0.79851 0.0
C669 C 0.8787 0.22054 0.78175 0.0
C670 C 0.8716 0.23034 0.80532 0.0
C671 C 0.87112 0.2121 0.82692 0.0
C672 C 0.89165 0.18059 0.75397 0.0
O673 O 0.87761 0.23587 0.70833 0.0
O674 O 0.89272 0.248 0.6679 0.0
O675 O 0.81309 0.1953 0.67276 0.0
O676 O 0.81851 0.16338 0.70421 0.0
C677 C 0.8912 0.25865 0.6911 0.0
O678 O 0.86475 0.22587 0.61707 0.0
O679 O 0.81953 0.17144 0.61335 0.0
O680 O 0.83137 0.13406 0.65349 0.0
O681 O 0.87158 0.13904 0.68621 0.0
O682 O 0.92785 0.20671 0.68918 0.0
O683 O 0.9048 0.18924 0.64739 0.0
C684 C 0.80102 0.17722 0.69266 0.0
O685 O 0.86452 0.15491 0.73954 0.0
O686 O 0.91294 0.20698 0.74109 0.0
C687 C 0.85197 0.19406 0.57707 0.0
C688 C 0.87926 0.18643 0.53134 0.0
C689 C 0.87741 0.21732 0.53761 0.0
C690 C 0.86387 0.22109 0.5603 0.0
C691 C 0.85355 0.16298 0.57062 0.0
C692 C 0.86712 0.15922 0.54793 0.0
C693 C 0.83991 0.19969 0.60163 0.0
H694 H 0.86409 0.1604 0.83632 0.0
H695 H 0.87802 0.1446 0.79591 0.0
H696 H 0.88075 0.23638 0.76608 0.0
H697 H 0.86596 0.25199 0.80592 0.0
H698 H 0.88663 0.23854 0.52498 0.0
H699 H 0.86306 0.24533 0.56492 0.0
H700 H 0.84457 0.14172 0.58315 0.0
H701 H 0.86828 0.13517 0.54334 0.0
C702 C 0.37045 0.88038 0.06654 0.0
C703 C 0.33747 0.88056 0.06222 0.0
C704 C 0.36793 0.93145 0.03626 0.0
C705 C 0.40008 0.92922 0.03909 0.0
N706 N 0.42761 0.89441 0.05053 0.0
N707 N 0.3028 0.90254 0.0401 0.0
C708 C 0.40007 0.90162 0.05244 0.0
C709 C 0.33559 0.90507 0.04624 0.0
N710 N 0.37381 0.8604 0.08453 0.0
N711 N 0.36855 0.95928 0.0248 0.0
H712 H 0.27888 0.88408 0.04749 0.0
H713 H 0.2988 0.91697 0.02642 0.0
H714 H 0.39116 0.97808 0.01641 0.0
H715 H 0.34747 0.96489 0.02482 0.0
H716 H 0.39849 0.86221 0.09023 0.0
H717 H 0.35284 0.84472 0.09555 0.0
H718 H 0.42754 0.87253 0.05796 0.0
H719 H 0.4482 0.9077 0.03873 0.0
C720 C 0.12446 0.431 0.05736 0.0
C721 C 0.15588 0.46092 0.07016 0.0
C722 C 0.13322 0.50024 0.05722 0.0
C723 C 0.09985 0.46995 0.04721 0.0
N724 N 0.06122 0.40576 0.04187 0.0
N725 N 0.18629 0.52289 0.08702 0.0
C726 C 0.09478 0.43505 0.0483 0.0
C727 C 0.15918 0.49526 0.07145 0.0
N728 N 0.12325 0.39899 0.05334 0.0
N729 N 0.14077 0.53384 0.05236 0.0
H730 H 0.20529 0.52017 0.09845 0.0
H731 H 0.18762 0.54743 0.09058 0.0
H732 H 0.12307 0.53833 0.04099 0.0
H733 H 0.16606 0.55672 0.05719 0.0
H734 H 0.10259 0.37732 0.04191 0.0
H735 H 0.14452 0.39507 0.05961 0.0
H736 H 0.05494 0.37969 0.0447 0.0
H737 H 0.0388 0.40794 0.03598 0.0
C738 C 0.52982 0.65933 0.06319 0.0
C739 C 0.56168 0.6919 0.05962 0.0
C740 C 0.58373 0.65921 0.03398 0.0
C741 C 0.55068 0.62684 0.03627 0.0
N742 N 0.48841 0.59826 0.04678 0.0
N743 N 0.61634 0.72428 0.03855 0.0
C744 C 0.52261 0.62753 0.04911 0.0
C745 C 0.58789 0.6923 0.04404 0.0
N746 N 0.5068 0.65853 0.0805 0.0
N747 N 0.61167 0.65825 0.02319 0.0
H748 H 0.62047 0.74892 0.04602 0.0
H749 H 0.63421 0.72651 0.02516 0.0
H750 H 0.60935 0.63475 0.01508 0.0
H751 H 0.63784 0.68029 0.02371 0.0
H752 H 0.48544 0.63482 0.08591 0.0
H753 H 0.51088 0.68131 0.09119 0.0
H754 H 0.466 0.59819 0.05381 0.0
H755 H 0.48159 0.57544 0.0351 0.0
C756 C 0.90268 0.32024 0.98665 0.0
C757 C 0.87254 0.31904 0.97298 0.0
C758 C 0.89731 0.38268 0.98548 0.0
C759 C 0.92987 0.3851 0.99592 0.0
N760 N 0.96577 0.357 1.00305 0.0
N761 N 0.84447 0.35079 0.95535 0.0
C762 C 0.93311 0.35402 0.99579 0.0
C763 C 0.87064 0.35069 0.97134 0.0
N764 N 0.90206 0.2891 0.99106 0.0
N765 N 0.89129 0.41056 0.98975 0.0
H766 H 0.82474 0.32818 0.94413 0.0
H767 H 0.84448 0.37415 0.95141 0.0
H768 H 0.90952 0.4337 1.00103 0.0
H769 H 0.86662 0.40909 0.98454 0.0
H770 H 0.92172 0.28814 1.00296 0.0
H771 H 0.8801 0.26392 0.98465 0.0
H772 H 0.97084 0.33588 1.00091 0.0
H773 H 0.98881 0.38151 1.009 0.0
C774 C 0.69964 0.5867 0.98406 0.0
C775 C 0.69832 0.55885 0.96792 0.0
C776 C 0.63615 0.51823 0.97797 0.0
C777 C 0.63546 0.54697 0.99144 0.0
N778 N 0.66585 0.60977 1.00576 0.0
N779 N 0.66282 0.50016 0.94551 0.0
C780 C 0.66712 0.58159 0.9942 0.0
C781 C 0.66579 0.52524 0.96367 0.0
N782 N 0.7321 0.61759 0.99023 0.0
N783 N 0.60931 0.48382 0.97997 0.0
H784 H 0.68377 0.50442 0.93427 0.0
H785 H 0.63839 0.47664 0.9399 0.0
H786 H 0.58872 0.47769 0.99187 0.0
H787 H 0.61005 0.46151 0.97248 0.0
H788 H 0.73571 0.63733 1.00401 0.0
H789 H 0.75618 0.62237 0.98281 0.0
H790 H 0.68649 0.63634 1.00569 0.0
H791 H 0.6431 0.60673 0.01423 0.0
C792 C 0.44138 0.11486 0.9924 0.0
C793 C 0.46682 0.13915 0.97672 0.0
C794 C 0.50793 0.11665 0.98663 0.0
C795 C 0.48085 0.08931 0.99973 0.0
N796 N 0.42022 0.06019 0.01345 0.0
N797 N 0.52138 0.15903 0.95516 0.0
C798 C 0.44714 0.0879 1.00235 0.0
C799 C 0.49919 0.13873 0.97268 0.0
N800 N 0.41219 0.11806 0.99816 0.0
N801 N 0.54268 0.12278 0.98863 0.0
H802 H 0.51608 0.1758 0.94452 0.0
H803 H 0.5432 0.15668 0.94948 0.0
H804 H 0.55059 0.10891 1.00036 0.0
H805 H 0.56441 0.14435 0.98136 0.0
H806 H 0.39481 0.10379 1.01165 0.0
H807 H 0.40677 0.13691 0.99063 0.0
H808 H 0.39365 0.05528 0.01322 0.0
H809 H 0.42387 0.04074 0.02168 0.0
C810 C 0.66172 0.13948 1.00289 0.0
C811 C 0.66001 0.14522 0.9769 0.0
C812 C 0.60018 0.091 0.96954 0.0
C813 C 0.60187 0.08471 0.99558 0.0
N814 N 0.63858 0.0973 0.03498 0.0
N815 N 0.63338 0.12154 0.93439 0.0
C816 C 0.63408 0.10722 1.01163 0.0
C817 C 0.6312 0.11913 0.95987 0.0
N818 N 0.68887 0.16546 0.01939 0.0
N819 N 0.56829 0.07236 0.9544 0.0
H820 H 0.65573 0.14214 0.92679 0.0
H821 H 0.61503 0.10125 0.92094 0.0
H822 H 0.54414 0.05243 0.96042 0.0
H823 H 0.56473 0.07908 0.93632 0.0
H824 H 0.6891 0.16474 0.03898 0.0
H825 H 0.71014 0.18892 0.01354 0.0
H826 H 0.66278 0.11096 0.04665 0.0
H827 H 0.61939 0.07323 0.04156 0.0
C828 C 0.89128 0.52844 1.00371 0.0
C829 C 0.87268 0.51264 0.97952 0.0
C830 C 0.91866 0.49694 0.96955 0.0
C831 C 0.9372 0.51232 0.99395 0.0
N832 N 0.94717 0.55153 0.03104 0.0
N833 N 0.87363 0.49156 0.937 0.0
C834 C 0.92541 0.53099 1.00999 0.0
C835 C 0.88827 0.50035 0.96159 0.0
N836 N 0.87552 0.53941 0.02107 0.0
N837 N 0.92805 0.47665 0.95472 0.0
H838 H 0.85117 0.49365 0.93078 0.0
H839 H 0.88578 0.48571 0.92242 0.0
H840 H 0.94959 0.4727 0.95975 0.0
H841 H 0.91263 0.4612 0.93828 0.0
H842 H 0.88552 0.54704 0.04002 0.0
H843 H 0.85113 0.53901 0.01683 0.0
H844 H 0.94168 0.56832 0.04233 0.0
H845 H 0.97266 0.55445 0.03579 0.0
C846 C 0.52545 0.38261 0.96819 0.0
C847 C 0.51421 0.35817 0.98716 0.0
C848 C 0.49694 0.39535 1.01235 0.0
C849 C 0.51044 0.42099 0.99419 0.0
N850 N 0.5302 0.43633 0.95247 0.0
N851 N 0.48235 0.33636 0.02426 0.0
C852 C 0.52189 0.4135 0.97117 0.0
C853 C 0.4975 0.36291 1.00824 0.0
N854 N 0.54133 0.37711 0.94802 0.0
N855 N 0.48449 0.40264 0.03379 0.0
H856 H 0.48295 0.3126 0.02192 0.0
H857 H 0.46705 0.33648 0.03886 0.0
H858 H 0.48109 0.42481 0.03638 0.0
H859 H 0.4783 0.38749 0.04932 0.0
H860 H 0.5546 0.39597 0.9352 0.0
H861 H 0.54266 0.35385 0.94462 0.0
H862 H 0.53485 0.4306 0.93425 0.0
H863 H 0.53067 0.46059 0.95463 0.0
C864 C 0.14357 0.65104 0.02753 0.0
C865 C 0.16449 0.65911 0.05108 0.0
C866 C 0.11901 0.60217 0.06566 0.0
C867 C 0.09827 0.59366 0.04187 0.0
N868 N 0.08542 0.61346 1.00309 0.0
N869 N 0.16828 0.64771 0.0947 0.0
C870 C 0.10888 0.61932 0.02373 0.0
C871 C 0.15072 0.63646 0.07091 0.0
N872 N 0.15757 0.67295 1.00848 0.0
N873 N 0.11007 0.57672 0.08248 0.0
H874 H 0.19188 0.67255 0.09897 0.0
H875 H 0.15776 0.63406 0.11058 0.0
H876 H 0.08751 0.5511 0.07929 0.0
H877 H 0.12661 0.57988 0.09868 0.0
H878 H 0.14578 0.66636 0.9899 0.0
H879 H 0.18223 0.69714 1.01098 0.0
H880 H 0.09004 0.63246 0.99028 0.0
H881 H 0.05956 0.59072 1.00008 0.0
C882 C 0.37041 0.48946 0.03036 0.0
C883 C 0.37154 0.5008 0.05607 0.0
C884 C 0.43299 0.51049 0.06418 0.0
C885 C 0.43217 0.4994 0.03827 0.0
N886 N 0.39657 0.46859 0.99897 0.0
N887 N 0.3986 0.51193 0.0988 0.0
C888 C 0.39966 0.48574 0.02207 0.0
C889 C 0.40105 0.50766 0.07343 0.0
N890 N 0.34215 0.48375 0.01366 0.0
N891 N 0.46479 0.52643 0.07953 0.0
H892 H 0.37555 0.51031 0.10602 0.0
H893 H 0.41766 0.51343 0.11266 0.0
H894 H 0.48931 0.53003 0.07393 0.0
H895 H 0.46774 0.53907 0.09741 0.0
H896 H 0.34194 0.47981 0.99412 0.0
H897 H 0.31963 0.48491 0.01928 0.0
H898 H 0.37246 0.45527 0.98719 0.0
H899 H 0.41717 0.46455 0.99272 0.0
C900 C 0.51752 0.88628 0.0693 0.0
C901 C 0.5185 0.86331 0.04986 0.0
C902 C 0.53135 0.90841 0.01971 0.0
C903 C 0.52377 0.92836 0.03788 0.0
N904 N 0.50706 0.93509 0.07993 0.0
N905 N 0.52612 0.85144 1.00648 0.0
C906 C 0.51696 0.91749 0.06288 0.0
C907 C 0.52578 0.87425 0.02507 0.0
N908 N 0.51668 0.87797 0.09386 0.0
N909 N 0.54463 0.92257 0.99757 0.0
H910 H 0.52382 0.82693 1.01003 0.0
H911 H 0.52675 0.8559 0.98737 0.0
H912 H 0.54986 0.94797 0.99345 0.0
H913 H 0.55378 0.91086 0.98447 0.0
H914 H 0.51982 0.89546 0.10925 0.0
H915 H 0.51625 0.85483 0.09907 0.0
H916 H 0.49721 0.92555 0.09713 0.0
H917 H 0.50551 0.95766 0.07622 0.0
C918 C 1.01082 0.25511 0.39453 0.0
C919 C 0.99484 0.21853 0.38565 0.0
C920 C 0.04218 0.23479 0.35639 0.0
C921 C 0.06302 0.26899 0.37005 0.0
N922 N 0.06516 0.31345 0.40081 0.0
N923 N 0.98112 0.18595 0.34475 0.0
C924 C 0.04675 0.27975 0.38873 0.0
C925 C 1.00613 0.21157 0.36244 0.0
N926 N 0.98956 0.2673 0.40412 0.0
N927 N 0.05704 0.22345 0.33857 0.0
H928 H 0.95343 0.17217 0.34751 0.0
H929 H 0.98721 0.18198 0.32653 0.0
H930 H 0.08373 0.23896 0.33395 0.0
H931 H 0.0436 0.1973 0.33004 0.0
H932 H 0.99876 0.29432 0.40883 0.0
H933 H 0.96136 0.25074 0.4036 0.0
H934 H 0.05607 0.32082 0.41662 0.0
H935 H 0.0901 0.33352 0.39573 0.0
C936 C 0.80464 0.80451 0.41828 0.0
C937 C 0.81849 0.78621 0.4039 0.0
C938 C 0.77877 0.78109 0.36659 0.0
C939 C 0.7631 0.79716 0.38154 0.0
N940 N 0.75614 0.8172 0.42329 0.0
N941 N 0.81446 0.75147 0.36575 0.0
C942 C 0.77428 0.80642 0.40792 0.0
C943 C 0.80444 0.77304 0.37837 0.0
N944 N 0.82181 0.82195 0.44139 0.0
N945 N 0.76881 0.77307 0.34117 0.0
H946 H 0.83274 0.74464 0.37388 0.0
H947 H 0.80245 0.73783 0.34808 0.0
H948 H 0.74783 0.7754 0.33219 0.0
H949 H 0.78247 0.7657 0.3287 0.0
H950 H 0.81559 0.8392 0.45143 0.0
H951 H 0.84477 0.8222 0.44947 0.0
H952 H 0.76006 0.81948 0.44298 0.0
H953 H 0.73567 0.82198 0.41672 0.0
C954 C 0.25109 0.02192 0.37431 0.0
C955 C 0.22501 0.02217 0.38975 0.0
C956 C 0.18545 0.95753 0.37996 0.0
C957 C 0.21316 0.95653 0.36689 0.0
N958 N 0.2741 0.98685 0.35377 0.0
N959 N 0.16997 0.98984 0.41064 0.0
C960 C 0.24643 0.98853 0.36446 0.0
C961 C 0.19289 0.98985 0.39351 0.0
N962 N 0.27991 0.0536 0.36873 0.0
N963 N 0.15154 0.92783 0.37865 0.0
H964 H 0.1743 0.013 0.42093 0.0
H965 H 0.14838 0.96652 0.4163 0.0
H966 H 0.14482 0.90413 0.36807 0.0
H967 H 0.12917 0.92775 0.38575 0.0
H968 H 0.29774 0.05538 0.35544 0.0
H969 H 0.28447 0.07846 0.37607 0.0
H970 H 0.30039 0.00864 0.35408 0.0
H971 H 0.27151 0.96298 0.34603 0.0
C972 C 0.56138 0.65769 0.32557 0.0
C973 C 0.54662 0.65522 0.30045 0.0
C974 C 0.59446 0.717 0.29607 0.0
C975 C 0.60593 0.72124 0.32229 0.0
N976 N 0.59994 0.69578 0.36245 0.0
N977 N 0.54475 0.68494 0.26353 0.0
C978 C 0.58912 0.69163 0.33721 0.0
C979 C 0.56211 0.68546 0.2861 0.0
N980 N 0.54994 0.62731 0.33789 0.0
N981 N 0.61423 0.74292 0.2805 0.0
H982 H 0.52021 0.66295 0.25587 0.0
H983 H 0.55268 0.7076 0.25368 0.0
H984 H 0.63703 0.76741 0.28684 0.0
H985 H 0.60936 0.73905 0.26084 0.0
H986 H 0.56214 0.6266 0.35519 0.0
H987 H 0.5302 0.60199 0.32977 0.0
H988 H 0.58572 0.67676 0.37498 0.0
H989 H 0.62241 0.719 0.37119 0.0
C990 C 0.336 0.87828 0.28678 0.0
C991 C 0.36925 0.90208 0.30131 0.0
C992 C 0.33554 0.91399 0.33296 0.0
C993 C 0.30206 0.8869 0.32004 0.0
N994 N 0.27112 0.83918 0.286 0.0
N995 N 0.4011 0.94013 0.33942 0.0
C996 C 0.30244 0.86821 0.29716 0.0
C997 C 0.36911 0.91911 0.32481 0.0
N998 N 0.33632 0.86491 0.26295 0.0
N999 N 0.33545 0.93635 0.35202 0.0
H1000 H 0.42631 0.94598 0.33349 0.0
H1001 H 0.40242 0.94979 0.35804 0.0
H1002 H 0.3117 0.93481 0.3577 0.0
H1003 H 0.35895 0.95881 0.36043 0.0
H1004 H 0.31345 0.85219 0.24995 0.0
H1005 H 0.35988 0.86866 0.25532 0.0
H1006 H 0.27064 0.82216 0.27123 0.0
H1007 H 0.24579 0.82894 0.29302 0.0
C1008 C 0.0901 0.4263 0.31199 0.0
C1009 C 0.10956 0.46197 0.32317 0.0
C1010 C 0.14121 0.44492 0.35411 0.0
C1011 C 0.12966 0.41266 0.3387 0.0
N1012 N 0.08762 0.36942 0.30518 0.0
N1013 N 0.12552 0.48983 0.36573 0.0
C1014 C 0.10228 0.40223 0.31831 0.0
C1015 C 0.12675 0.46697 0.34775 0.0
N1016 N 0.05686 0.41398 0.29924 0.0
N1017 N 0.16746 0.45592 0.37377 0.0
H1018 H 0.11125 0.50314 0.36188 0.0
H1019 H 0.1348 0.49208 0.38467 0.0
H1020 H 0.18034 0.44168 0.37858 0.0
H1021 H 0.17864 0.48099 0.38382 0.0
H1022 H 0.03962 0.38729 0.29249 0.0
H1023 H 0.04471 0.42979 0.29877 0.0
H1024 H 0.07115 0.3625 0.28826 0.0
H1025 H 0.09275 0.34954 0.31087 0.0
C1026 C 0.29902 0.46429 0.29885 0.0
C1027 C 0.32832 0.48754 0.31677 0.0
C1028 C 0.29956 0.44615 0.34938 0.0
C1029 C 0.26754 0.42621 0.33261 0.0
N1030 N 0.23547 0.41882 0.29166 0.0
N1031 N 0.35657 0.50201 0.35945 0.0
C1032 C 0.26704 0.43555 0.30726 0.0
C1033 C 0.32878 0.4787 0.34212 0.0
N1034 N 0.30174 0.46991 0.27375 0.0
N1035 N 0.30251 0.43338 0.3719 0.0
H1036 H 0.37917 0.52524 0.35454 0.0
H1037 H 0.35629 0.49938 0.37885 0.0
H1038 H 0.28213 0.40911 0.37744 0.0
H1039 H 0.32641 0.44491 0.38389 0.0
H1040 H 0.28304 0.45175 0.25941 0.0
H1041 H 0.32465 0.49106 0.2671 0.0
H1042 H 0.23257 0.42742 0.27416 0.0
H1043 H 0.21099 0.39829 0.29688 0.0
C1044 C 0.55267 0.83029 0.29588 0.0
C1045 C 0.54434 0.85272 0.31088 0.0
C1046 C 0.60258 0.87552 0.33637 0.0
C1047 C 0.60656 0.84736 0.32496 0.0
N1048 N 0.57959 0.79301 0.29674 0.0
N1049 N 0.56069 0.89575 0.34687 0.0
C1050 C 0.58046 0.82376 0.30511 0.0
C1051 C 0.56935 0.87552 0.33137 0.0
N1052 N 0.53302 0.81418 0.2732 0.0
N1053 N 0.63069 0.9026 0.35162 0.0
H1054 H 0.53693 0.89683 0.34366 0.0
H1055 H 0.57595 0.90955 0.3638 0.0
H1056 H 0.65576 0.9041 0.35497 0.0
H1057 H 0.63043 0.92537 0.35865 0.0
H1058 H 0.53984 0.79978 0.26051 0.0
H1059 H 0.51242 0.81859 0.26607 0.0
H1060 H 0.55914 0.7735 0.28384 0.0
H1061 H 0.59623 0.78464 0.30522 0.0
C1062 C 0.16097 0.6912 0.33234 0.0
C1063 C 0.19199 0.69039 0.32449 0.0
C1064 C 0.22416 0.7552 0.32295 0.0
C1065 C 0.19233 0.75597 0.32852 0.0
N1066 N 0.12813 0.72356 0.3342 0.0
N1067 N 0.24781 0.72002 0.30416 0.0
C1068 C 0.15978 0.72347 0.33141 0.0
C1069 C 0.22173 0.72189 0.31696 0.0
N1070 N 0.13397 0.66228 0.34245 0.0
N1071 N 0.25726 0.7859 0.32487 0.0
H1072 H 0.24627 0.69573 0.2988 0.0
H1073 H 0.26853 0.74208 0.29652 0.0
H1074 H 0.26089 0.81082 0.33075 0.0
H1075 H 0.28157 0.78598 0.32322 0.0
H1076 H 0.11277 0.66285 0.35096 0.0
H1077 H 0.13437 0.63866 0.34447 0.0
H1078 H 0.10294 0.70018 0.33384 0.0
H1079 H 0.12658 0.74688 0.33487 0.0
C1080 C 0.83321 0.9635 0.40265 0.0
C1081 C 0.84006 0.99221 0.38785 0.0
C1082 C 0.77751 0.9574 0.36804 0.0
C1083 C 0.77352 0.92642 0.37893 0.0
N1084 N 0.80143 0.89941 0.4035 0.0
N1085 N 0.81944 0.01567 0.35456 0.0
C1086 C 0.80213 0.92934 0.39579 0.0
C1087 C 0.81225 0.98919 0.37022 0.0
N1088 N 0.85678 0.96879 0.42305 0.0
N1089 N 0.748 0.95659 0.35591 0.0
H1090 H 0.8445 0.0393 0.35542 0.0
H1091 H 0.80142 0.01296 0.33942 0.0
H1092 H 0.72203 0.93401 0.35458 0.0
H1093 H 0.74856 0.97926 0.3496 0.0
H1094 H 0.85143 0.94956 0.43583 0.0
H1095 H 0.87974 0.9937 0.42861 0.0
H1096 H 0.82328 0.90001 0.41377 0.0
H1097 H 0.7809 0.87372 0.39712 0.0
C1098 C 0.03334 0.81064 0.3667 0.0
C1099 C 0.03531 0.82362 0.39215 0.0
C1100 C 0.09867 0.83772 0.39878 0.0
C1101 C 0.09691 0.82478 0.37321 0.0
N1102 N 0.05968 0.78967 0.33546 0.0
N1103 N 0.0655 0.83936 0.43416 0.0
C1104 C 0.06322 0.80822 0.35802 0.0
C1105 C 0.06653 0.83349 0.40877 0.0
N1106 N 1.00371 0.80232 0.35049 0.0
N1107 N 0.13136 0.85668 0.41299 0.0
H1108 H 0.04225 0.83655 0.44187 0.0
H1109 H 0.08611 0.84331 0.44765 0.0
H1110 H 0.15596 0.86157 0.40661 0.0
H1111 H 0.13466 0.87046 0.43046 0.0
H1112 H 1.00258 0.79702 0.33101 0.0
H1113 H 0.98092 0.8027 0.35637 0.0
H1114 H 0.03498 0.77434 0.32452 0.0
H1115 H 0.08077 0.78666 0.32895 0.0
C1116 C 0.18049 0.21725 0.39912 0.0
C1117 C 0.18329 0.196 0.37923 0.0
C1118 C 0.19664 0.24303 0.35061 0.0
C1119 C 0.18774 0.26141 0.36919 0.0
N1120 N 0.16853 0.26481 0.41088 0.0
N1121 N 0.19358 0.18753 0.3359 0.0
C1122 C 0.1796 0.24862 0.39358 0.0
C1123 C 0.19165 0.20876 0.35497 0.0
N1124 N 0.17838 0.20722 0.42328 0.0
N1125 N 0.21063 0.25882 0.32907 0.0
H1126 H 0.19183 0.16305 0.33879 0.0
H1127 H 0.19505 0.19321 0.31703 0.0
H1128 H 0.21528 0.28425 0.32561 0.0
H1129 H 0.22078 0.24839 0.3158 0.0
H1130 H 0.18015 0.22343 0.43907 0.0
H1131 H 0.17824 0.18397 0.42783 0.0
H1132 H 0.15778 0.25399 0.42759 0.0
H1133 H 0.16744 0.28784 0.40791 0.0
C1134 C 0.70378 0.56382 0.74437 0.0
C1135 C 0.66959 0.54739 0.72997 0.0
C1136 C 0.69862 0.58226 0.69426 0.0
C1137 C 0.73259 0.59994 0.70919 0.0
N1138 N 0.76571 0.61261 0.75058 0.0
N1139 N 0.6328 0.54495 0.6931 0.0
C1140 C 0.73448 0.59263 0.73496 0.0
C1141 C 0.66654 0.55774 0.7054 0.0
N1142 N 0.70765 0.55027 0.76633 0.0
N1143 N 0.69697 0.58908 0.6695 0.0
H1144 H 0.60888 0.52724 0.70086 0.0
H1145 H 0.62816 0.55396 0.67627 0.0
H1146 H 0.71905 0.60906 0.66131 0.0
H1147 H 0.6742 0.57398 0.65671 0.0
H1148 H 0.73279 0.55818 0.77598 0.0
H1149 H 0.6862 0.5286 0.77373 0.0
H1150 H 0.7665 0.61201 0.77019 0.0
H1151 H 0.79058 0.63091 0.7444 0.0
C1152 C 0.45628 0.09512 0.72202 0.0
C1153 C 0.4877 0.1246 0.73523 0.0
C1154 C 0.46672 0.16501 0.72156 0.0
C1155 C 0.43343 0.13523 0.71087 0.0
N1156 N 0.39368 0.0712 0.7053 0.0
N1157 N 0.51847 0.1864 0.75247 0.0
C1158 C 0.42742 0.1 0.71222 0.0
C1159 C 0.49168 0.15924 0.73641 0.0
N1160 N 0.45434 0.06272 0.7183 0.0
N1161 N 0.47514 0.19891 0.71686 0.0
H1162 H 0.5366 0.18306 0.76437 0.0
H1163 H 0.52024 0.21116 0.75592 0.0
H1164 H 0.45815 0.204 0.70521 0.0
H1165 H 0.50048 0.22147 0.7222 0.0
H1166 H 0.43377 0.04133 0.70662 0.0
H1167 H 0.47494 0.05818 0.72515 0.0
H1168 H 0.38664 0.04495 0.70822 0.0
H1169 H 0.37178 0.07396 0.6989 0.0
C1170 C 0.90623 0.35302 0.69105 0.0
C1171 C 0.92411 0.36727 0.71555 0.0
C1172 C 0.93303 0.31585 0.71823 0.0
C1173 C 0.9053 0.29724 0.69802 0.0
N1174 N 0.8656 0.29932 0.66448 0.0
N1175 N 0.97779 0.3743 0.73825 0.0
C1176 C 0.89241 0.31629 0.68383 0.0
C1177 C 0.94451 0.3523 0.72554 0.0
N1178 N 0.90655 0.37539 0.67373 0.0
N1179 N 0.94859 0.29904 0.73029 0.0
H1180 H 0.98924 0.4021 0.73965 0.0
H1181 H 0.99567 0.36571 0.74411 0.0
H1182 H 0.94368 0.27371 0.72393 0.0
H1183 H 0.9655 0.30998 0.74706 0.0
H1184 H 0.89669 0.3667 0.65481 0.0
H1185 H 0.92084 0.40316 0.67791 0.0
H1186 H 0.85353 0.31208 0.65537 0.0
H1187 H 0.85319 0.272 0.65907 0.0
C1188 C 0.24288 0.98764 0.64582 0.0
C1189 C 0.21109 0.9849 0.63358 0.0
C1190 C 0.2346 0.04864 0.64503 0.0
C1191 C 0.26784 0.0522 0.65518 0.0
N1192 N 0.30648 0.02669 0.66034 0.0
N1193 N 0.17995 0.01412 0.61669 0.0
C1194 C 0.27278 0.02209 0.65432 0.0
C1195 C 0.20788 0.01581 0.63177 0.0
N1196 N 0.24424 0.95735 0.64975 0.0
N1197 N 0.22792 0.07618 0.64881 0.0
H1198 H 0.15999 0.99067 0.60635 0.0
H1199 H 0.17853 0.03667 0.61248 0.0
H1200 H 0.24642 0.10027 0.65901 0.0
H1201 H 0.20277 0.0739 0.64408 0.0
H1202 H 0.26517 0.95748 0.66088 0.0
H1203 H 0.22292 0.9317 0.6436 0.0
H1204 H 0.3126 0.00633 0.65778 0.0
H1205 H 0.32921 0.05182 0.66544 0.0
C1206 C 0.9996 0.18629 0.63148 0.0
C1207 C 0.03141 0.22064 0.63527 0.0
C1208 C 0.99822 0.24289 0.65971 0.0
C1209 C 0.96744 0.20774 0.6575 0.0
N1210 N 0.94287 0.14451 0.64754 0.0
N1211 N 0.06327 0.27998 0.65689 0.0
C1212 C 0.96937 0.17899 0.64524 0.0
C1213 C 0.03143 0.24851 0.65059 0.0
N1214 N 0.99756 0.16101 0.61392 0.0
N1215 N 0.99536 0.27111 0.66946 0.0
H1216 H 0.08802 0.28494 0.65058 0.0
H1217 H 0.06571 0.29988 0.67006 0.0
H1218 H 0.97165 0.26811 0.67643 0.0
H1219 H 0.01558 0.29775 0.66891 0.0
H1220 H 0.9736 0.13689 0.60862 0.0
H1221 H 0.01862 0.16551 0.60274 0.0
H1222 H 0.94447 0.12231 0.64091 0.0
H1223 H 0.9214 0.13829 0.65867 0.0
C1224 C 0.78447 0.77941 0.65304 0.0
C1225 C 0.81437 0.80834 0.64301 0.0
C1226 C 0.85448 0.78686 0.65859 0.0
C1227 C 0.82381 0.7553 0.66535 0.0
N1228 N 0.75896 0.72021 0.66805 0.0
N1229 N 0.87627 0.83561 0.63162 0.0
C1230 C 0.78854 0.75113 0.6622 0.0
C1231 C 0.849 0.81105 0.64457 0.0
N1232 N 0.7527 0.77969 0.65473 0.0
N1233 N 0.88892 0.79413 0.66573 0.0
H1234 H 0.87313 0.85317 0.62042 0.0
H1235 H 0.90072 0.83604 0.62987 0.0
H1236 H 0.89434 0.77732 0.67612 0.0
H1237 H 0.91211 0.81848 0.66342 0.0
H1238 H 0.7312 0.7613 0.66421 0.0
H1239 H 0.74895 0.80022 0.64855 0.0
H1240 H 0.73222 0.71369 0.6632 0.0
H1241 H 0.76106 0.70012 0.67671 0.0
C1242 C 0.9994 0.79107 0.67089 0.0
C1243 C 0.99721 0.80577 0.64804 0.0
C1244 C 0.9338 0.75851 0.63862 0.0
C1245 C 0.93571 0.74336 0.66159 0.0
N1246 N 0.97337 0.73909 0.69515 0.0
N1247 N 0.9671 0.79764 0.60669 0.0
C1248 C 0.96956 0.75772 0.67634 0.0
C1249 C 0.96605 0.78717 0.63065 0.0
N1250 N 0.02932 0.80967 0.68784 0.0
N1251 N 0.90106 0.7482 0.62554 0.0
H1252 H 0.99042 0.81892 0.60054 0.0
H1253 H 0.94638 0.78298 0.59232 0.0
H1254 H 0.876 0.72958 0.63128 0.0
H1255 H 0.89828 0.76133 0.6104 0.0
H1256 H 0.03065 0.80251 0.70615 0.0
H1257 H 0.05214 0.8335 0.684 0.0
H1258 H 0.99821 0.74672 0.70514 0.0
H1259 H 0.95242 0.71395 0.69891 0.0
C1260 C 0.22572 0.1942 0.66398 0.0
C1261 C 0.20951 0.18083 0.63891 0.0
C1262 C 0.25693 0.16665 0.62999 0.0
C1263 C 0.27323 0.17987 0.65516 0.0
N1264 N 0.27931 0.21545 0.69343 0.0
N1265 N 0.21513 0.1645 0.59617 0.0
C1266 C 0.25959 0.19671 0.67129 0.0
C1267 C 0.22721 0.1707 0.62126 0.0
N1268 N 0.20787 0.20273 0.68117 0.0
N1269 N 0.26772 0.1477 0.615 0.0
H1270 H 0.19329 0.16724 0.58938 0.0
H1271 H 0.22892 0.1603 0.58197 0.0
H1272 H 0.28871 0.14319 0.62059 0.0
H1273 H 0.25383 0.13381 0.59774 0.0
H1274 H 0.21607 0.20836 0.70047 0.0
H1275 H 0.18353 0.20214 0.67635 0.0
H1276 H 0.27249 0.231 0.70494 0.0
H1277 H 0.30457 0.21833 0.699 0.0
C1278 C 0.83548 0.02954 0.67537 0.0
C1279 C 0.8476 0.02285 0.65247 0.0
C1280 C 0.85157 0.07653 0.63619 0.0
C1281 C 0.84108 0.08419 0.65962 0.0
N1282 N 0.81311 0.06357 0.69822 0.0
N1283 N 0.85756 0.0335 0.60877 0.0
C1284 C 0.82971 0.0591 0.67814 0.0
C1285 C 0.85215 0.04412 0.63202 0.0
N1286 N 0.83099 0.00848 0.6948 0.0
N1287 N 0.8637 0.10133 0.61875 0.0
H1288 H 0.85883 0.01023 0.60535 0.0
H1289 H 0.85752 0.04583 0.59242 0.0
H1290 H 0.86392 0.12544 0.62099 0.0
H1291 H 0.87608 0.09934 0.60284 0.0
H1292 H 0.82658 0.01444 0.71305 0.0
H1293 H 0.83337 0.98564 0.69294 0.0
H1294 H 0.80137 0.04478 0.71136 0.0
H1295 H 0.80806 0.08477 0.70037 0.0
C1296 C 0.48527 0.30105 0.73669 0.0
C1297 C 0.49974 0.32448 0.71734 0.0
C1298 C 0.44446 0.28614 0.6893 0.0
C1299 C 0.43312 0.25972 0.70688 0.0
N1300 N 0.44325 0.24103 0.74721 0.0
N1301 N 0.494 0.3401 0.67509 0.0
C1302 C 0.45322 0.26713 0.73082 0.0
C1303 C 0.47934 0.31751 0.69369 0.0
N1304 N 0.50242 0.31127 0.76062 0.0
N1305 N 0.42151 0.28131 0.66859 0.0
H1306 H 0.51889 0.36402 0.67799 0.0
H1307 H 0.48255 0.3343 0.65645 0.0
H1308 H 0.39552 0.25881 0.66517 0.0
H1309 H 0.42665 0.30088 0.65617 0.0
H1310 H 0.49145 0.29705 0.77621 0.0
H1311 H 0.5262 0.33583 0.76534 0.0
H1312 H 0.45929 0.24331 0.76346 0.0
H1313 H 0.42013 0.21582 0.74371 0.0
C1314 C 0.70476 0.16153 0.69549 0.0
C1315 C 0.7053 0.17123 0.7215 0.0
C1316 C 0.76791 0.18365 0.72886 0.0
C1317 C 0.7673 0.17307 0.70292 0.0
N1318 N 0.73202 0.1433 0.66326 0.0
N1319 N 0.73315 0.18225 0.764 0.0
C1320 C 0.73472 0.15936 0.68672 0.0
C1321 C 0.73548 0.17899 0.73853 0.0
N1322 N 0.67625 0.15571 0.67901 0.0
N1323 N 0.79994 0.20057 0.74393 0.0
H1324 H 0.70972 0.17915 0.77157 0.0
H1325 H 0.75287 0.18438 0.77755 0.0
H1326 H 0.82473 0.20601 0.73758 0.0
H1327 H 0.80266 0.21242 0.76208 0.0
H1328 H 0.67627 0.15292 0.65941 0.0
H1329 H 0.65329 0.15572 0.68493 0.0
H1330 H 0.70788 0.12981 0.65151 0.0
H1331 H 0.75302 0.14036 0.65651 0.0
C1332 C 0.86811 0.53732 0.69425 0.0
C1333 C 0.84582 0.51521 0.71236 0.0
C1334 C 0.822 0.55548 0.71975 0.0
C1335 C 0.8457 0.57885 0.70276 0.0
N1336 N 0.89723 0.59611 0.6783 0.0
N1337 N 0.80939 0.50825 0.74715 0.0
C1338 C 0.87065 0.57104 0.69137 0.0
C1339 C 0.82553 0.52614 0.72679 0.0
N1340 N 0.88551 0.52549 0.67903 0.0
N1341 N 0.79419 0.55952 0.72762 0.0
H1342 H 0.81165 0.48666 0.75286 0.0
H1343 H 0.79706 0.51712 0.75978 0.0
H1344 H 0.78887 0.57882 0.72111 0.0
H1345 H 0.77398 0.54125 0.73806 0.0
H1346 H 0.89865 0.53857 0.66356 0.0
H1347 H 0.88465 0.50119 0.68074 0.0
H1348 H 0.91832 0.59331 0.67166 0.0
H1349 H 0.9002 0.62127 0.6762 0.0
C1350 C 0.43746 0.93087 0.21352 0.0
C1351 C 0.45908 0.94756 0.23669 0.0
C1352 C 0.49118 0.00391 0.2167 0.0
C1353 C 0.47511 0.98521 0.19249 0.0
N1354 N 0.41414 0.94227 0.17505 0.0
N1355 N 0.5073 1.00056 0.26049 0.0
C1356 C 0.44271 0.95148 0.19251 0.0
C1357 C 0.48626 0.98426 0.23832 0.0
N1358 N 0.41176 0.89531 0.21144 0.0
N1359 N 0.50481 0.03998 0.21989 0.0
H1360 H 0.50401 0.98718 0.27685 0.0
H1361 H 0.52978 0.02642 0.26189 0.0
H1362 H 0.50134 0.05388 0.20549 0.0
H1363 H 0.51394 0.05467 0.23751 0.0
H1364 H 0.39751 0.88147 0.19422 0.0
H1365 H 0.40712 0.87914 0.22636 0.0
H1366 H 0.38867 0.91946 0.17557 0.0
H1367 H 0.41445 0.9604 0.16264 0.0
C1368 C 0.0618 0.52257 0.24097 0.0
C1369 C 0.09029 0.51474 0.24436 0.0
C1370 C 0.0813 0.49378 0.19939 0.0
C1371 C 0.05482 0.50425 0.19565 0.0
N1372 N 0.02406 0.53411 0.21164 0.0
N1373 N 0.1315 0.49861 0.22643 0.0
C1374 C 0.04627 0.52025 0.21611 0.0
C1375 C 0.1013 0.50195 0.22344 0.0
N1376 N 0.04873 0.531 0.2616 0.0
N1377 N 0.0865 0.47501 0.18019 0.0
H1378 H 0.14677 0.50427 0.24379 0.0
H1379 H 0.14322 0.49311 0.2114 0.0
H1380 H 0.07256 0.46874 0.16225 0.0
H1381 H 0.10241 0.46316 0.18256 0.0
H1382 H 0.0254 0.53308 0.26056 0.0
H1383 H 0.05942 0.53304 0.28014 0.0
H1384 H 0.01998 0.54959 0.22527 0.0
H1385 H 1.01203 0.53275 0.19368 0.0
C1386 C 0.48285 0.57063 0.20733 0.0
C1387 C 0.49036 0.5583 0.22992 0.0
C1388 C 0.51661 0.52819 0.2058 0.0
C1389 C 0.50833 0.53985 0.18315 0.0
N1390 N 0.47715 0.56565 0.16136 0.0
N1391 N 0.50782 0.52014 0.25042 0.0
C1392 C 0.48935 0.55899 0.18363 0.0
C1393 C 0.50514 0.53534 0.22903 0.0
N1394 N 0.47113 0.59483 0.20863 0.0
N1395 N 0.53665 0.5115 0.20523 0.0
H1396 H 0.4998 0.52509 0.26768 0.0
H1397 H 0.51505 0.50047 0.25066 0.0
H1398 H 0.54479 0.50511 0.18851 0.0
H1399 H 0.54724 0.506 0.22138 0.0
H1400 H 0.46952 0.60825 0.19332 0.0
H1401 H 0.46524 0.60344 0.2255 0.0
H1402 H 0.45975 0.57599 0.16025 0.0
H1403 H 0.48199 0.55803 0.1437 0.0
C1404 C 0.92654 0.41952 0.8168 0.0
C1405 C 0.94299 0.44247 0.79741 0.0
C1406 C 0.99128 0.48684 0.82848 0.0
C1407 C 0.97686 0.46236 0.84729 0.0
N1408 N 0.93287 0.40436 0.85948 0.0
N1409 N 0.99248 0.49628 0.78375 0.0
C1410 C 0.94494 0.42843 0.84151 0.0
C1411 C 0.97569 0.4758 0.80299 0.0
N1412 N 0.89297 0.38956 0.81161 0.0
N1413 N 0.0195 0.52084 0.83513 0.0
H1414 H 0.98145 0.48944 0.76494 0.0
H1415 H 0.01843 0.51878 0.78604 0.0
H1416 H 0.032 0.52958 0.85353 0.0
H1417 H 0.0288 0.54122 0.82299 0.0
H1418 H 0.87771 0.37359 0.82536 0.0
H1419 H 0.8789 0.38205 0.79366 0.0
H1420 H 0.91227 0.37778 0.85576 0.0
H1421 H 0.94504 0.41029 0.87798 0.0
C1422 C 0.60099 0.50903 0.81958 0.0
C1423 C 0.58026 0.50185 0.79599 0.0
C1424 C 0.53085 0.50182 0.81779 0.0
C1425 C 0.55271 0.51164 0.84113 0.0
N1426 N 0.6108 0.53067 0.86391 0.0
N1427 N 0.5281 0.49663 0.77187 0.0
C1428 C 0.58846 0.51702 0.84193 0.0
C1429 C 0.5459 0.49976 0.79487 0.0
N1430 N 0.63199 0.5069 0.82076 0.0
N1431 N 0.49532 0.49336 0.81764 0.0
H1432 H 0.53819 0.4947 0.75474 0.0
H1433 H 0.50489 0.49882 0.76968 0.0
H1434 H 0.48346 0.49486 0.83402 0.0
H1435 H 0.47679 0.48222 0.80168 0.0
H1436 H 0.64615 0.50798 0.83768 0.0
H1437 H 0.64199 0.50099 0.80484 0.0
H1438 H 0.6384 0.53894 0.86503 0.0
H1439 H 0.60251 0.53658 0.88073 0.0
C1440 C 0.54966 0.1014 0.82918 0.0
C1441 C 0.5355 0.08123 0.80528 0.0
C1442 C 0.50294 0.02604 0.82675 0.0
C1443 C 0.5195 0.04581 0.85053 0.0
N1444 N 0.56421 0.10123 0.87393 0.0
N1445 N 0.5043 0.02375 0.78108 0.0
C1446 C 0.54456 0.08321 0.8516 0.0
C1447 C 0.51383 0.04333 0.80402 0.0
N1448 N 0.56654 0.13795 0.83065 0.0
N1449 N 0.47561 0.99112 0.82588 0.0
H1450 H 0.51191 0.03548 0.76407 0.0
H1451 H 0.49178 0.99593 0.7791 0.0
H1452 H 0.46648 0.97758 0.84205 0.0
H1453 H 0.45978 0.97652 0.80932 0.0
H1454 H 0.57375 0.15383 0.84769 0.0
H1455 H 0.57048 0.15236 0.81479 0.0
H1456 H 0.58566 0.12762 0.87535 0.0
H1457 H 0.56132 0.08881 0.89068 0.0
C1458 C 0.14175 0.30918 0.56994 0.0
C1459 C 0.11491 0.27231 0.56717 0.0
C1460 C 0.09886 0.27894 0.52359 0.0
C1461 C 0.13136 0.31272 0.5245 0.0
N1462 N 0.16034 0.36608 0.55328 0.0
N1463 N 0.06703 0.2216 0.54096 0.0
C1464 C 0.14684 0.33012 0.54908 0.0
C1465 C 0.09314 0.25703 0.54388 0.0
N1466 N 0.16241 0.32434 0.5924 0.0
N1467 N 0.07076 0.27076 0.50598 0.0
H1468 H 0.06153 0.20463 0.55547 0.0
H1469 H 0.05302 0.2087 0.52348 0.0
H1470 H 0.0716 0.28965 0.49411 0.0
H1471 H 0.04517 0.24791 0.50586 0.0
H1472 H 0.1847 0.35032 0.59448 0.0
H1473 H 0.15889 0.31009 0.60832 0.0
H1474 H 0.16897 0.37979 0.57125 0.0
H1475 H 0.15754 0.38084 0.53925 0.0
C1476 C 0.73211 0.84825 0.56999 0.0
C1477 C 0.76498 0.84736 0.5715 0.0
C1478 C 0.75524 0.82784 0.52623 0.0
C1479 C 0.72449 0.83239 0.52423 0.0
N1480 N 0.6868 0.85242 0.54322 0.0
N1481 N 0.81129 0.8422 0.55053 0.0
C1482 C 0.71371 0.84406 0.54586 0.0
C1483 C 0.77752 0.83874 0.54946 0.0
N1484 N 0.71794 0.85206 0.59166 0.0
N1485 N 0.76255 0.81215 0.50614 0.0
H1486 H 0.82858 0.85038 0.56716 0.0
H1487 H 0.82348 0.84004 0.53456 0.0
H1488 H 0.7466 0.80347 0.48889 0.0
H1489 H 0.78236 0.80476 0.50727 0.0
H1490 H 0.69214 0.84906 0.5919 0.0
H1491 H 0.73062 0.85514 0.6097 0.0
H1492 H 0.68053 0.86481 0.55783 0.0
H1493 H 0.6727 0.84981 0.52584 0.0
C1494 C 0.15021 0.90286 0.54017 0.0
C1495 C 0.15737 0.88945 0.56231 0.0
C1496 C 0.18385 0.86031 0.53748 0.0
C1497 C 0.17643 0.87348 0.51531 0.0
N1498 N 0.14664 0.9012 0.49428 0.0
N1499 N 0.17437 0.85031 0.58181 0.0
C1500 C 0.15763 0.89279 0.51627 0.0
C1501 C 0.17206 0.86646 0.56084 0.0
N1502 N 0.13778 0.92645 0.5422 0.0
N1503 N 0.20324 0.84297 0.53629 0.0
H1504 H 0.16622 0.85461 0.5992 0.0
H1505 H 0.18152 0.83058 0.5816 0.0
H1506 H 0.21124 0.83694 0.51938 0.0
H1507 H 0.21329 0.83632 0.55213 0.0
H1508 H 0.13627 0.94069 0.5274 0.0
H1509 H 0.13083 0.93349 0.55922 0.0
H1510 H 0.12942 0.91175 0.49335 0.0
H1511 H 0.15253 0.89511 0.47652 0.0
C1512 C 0.64164 0.81389 0.13875 0.0
C1513 C 0.60799 0.78128 0.13437 0.0
C1514 C 0.61443 0.76667 0.17766 0.0
C1515 C 0.64687 0.80035 0.1826 0.0
N1516 N 0.68802 0.85888 0.16963 0.0
N1517 N 0.55846 0.73017 0.15083 0.0
C1518 C 0.65955 0.82484 0.16364 0.0
C1519 C 0.5932 0.75872 0.15421 0.0
N1520 N 0.65704 0.83379 0.11897 0.0
N1521 N 0.60461 0.74174 0.19499 0.0
H1522 H 0.54193 0.72365 0.13396 0.0
H1523 H 0.54481 0.71495 0.16541 0.0
H1524 H 0.61958 0.74642 0.21234 0.0
H1525 H 0.58344 0.71537 0.19133 0.0
H1526 H 0.6834 0.85567 0.12038 0.0
H1527 H 0.64442 0.82687 0.10057 0.0
H1528 H 0.69606 0.87911 0.15741 0.0
H1529 H 0.70178 0.86784 0.18766 0.0
C1530 C 0.27035 0.84859 0.15244 0.0
C1531 C 0.24837 0.83773 0.12906 0.0
C1532 C 0.19633 0.83028 0.15142 0.0
C1533 C 0.21902 0.84388 0.17449 0.0
N1534 N 0.27937 0.87278 0.1961 0.0
N1535 N 0.19279 0.82532 0.10555 0.0
C1536 C 0.2566 0.85507 0.17474 0.0
C1537 C 0.21204 0.83075 0.12835 0.0
N1538 N 0.30376 0.85125 0.1536 0.0
N1539 N 0.15951 0.81543 0.15165 0.0
H1540 H 0.20355 0.82579 0.08826 0.0
H1541 H 0.16757 0.82377 0.10377 0.0
H1542 H 0.1468 0.81398 0.16818 0.0
H1543 H 0.14125 0.80162 0.13584 0.0
H1544 H 0.31925 0.85515 0.17054 0.0
H1545 H 0.31478 0.84652 0.13779 0.0
H1546 H 0.30757 0.88483 0.19664 0.0
H1547 H 0.2704 0.87832 0.21272 0.0
C1548 C 0.18316 0.38029 0.13809 0.0
C1549 C 0.20501 0.41815 0.13937 0.0
C1550 C 0.21437 0.42023 0.18559 0.0
C1551 C 0.18892 0.38296 0.18452 0.0
N1552 N 0.14471 0.32827 0.16 0.0
N1553 N 0.23681 0.47496 0.16463 0.0
C1554 C 0.17221 0.36311 0.16081 0.0
C1555 C 0.21954 0.43839 0.16321 0.0
N1556 N 0.17347 0.36068 0.11515 0.0
N1557 N 0.23424 0.43811 0.2079 0.0
H1558 H 0.24086 0.48938 0.14877 0.0
H1559 H 0.24431 0.49091 0.18168 0.0
H1560 H 0.23132 0.42562 0.22463 0.0
H1561 H 0.25587 0.4644 0.2093 0.0
H1562 H 0.16075 0.33284 0.11318 0.0
H1563 H 0.18116 0.37238 0.09814 0.0
H1564 H 0.12881 0.31368 0.14346 0.0
H1565 H 0.13555 0.31478 0.17618 0.0
C1566 C 0.8208 0.63224 0.90158 0.0
C1567 C 0.7862 0.60066 0.90065 0.0
C1568 C 0.77526 0.60555 0.8555 0.0
C1569 C 0.81117 0.6352 0.85593 0.0
N1570 N 0.87031 0.67335 0.87827 0.0
N1571 N 0.73274 0.55371 0.87603 0.0
C1572 C 0.83456 0.64764 0.8787 0.0
C1573 C 0.76399 0.58632 0.8774 0.0
N1574 N 0.84004 0.64812 0.92445 0.0
N1575 N 0.75155 0.59645 0.83441 0.0
H1576 H 0.72356 0.53876 0.8916 0.0
H1577 H 0.71747 0.54003 0.85908 0.0
H1578 H 0.75879 0.60991 0.81803 0.0
H1579 H 0.72393 0.57761 0.83381 0.0
H1580 H 0.86354 0.67324 0.92667 0.0
H1581 H 0.83085 0.6376 0.9416 0.0
H1582 H 0.88967 0.68074 0.89358 0.0
H1583 H 0.88144 0.68524 0.86189 0.0
C1584 C 0.38907 0.18472 0.90337 0.0
C1585 C 0.421 0.18218 0.90587 0.0
C1586 C 0.41366 0.16407 0.86047 0.0
C1587 C 0.38366 0.16972 0.85758 0.0
N1588 N 0.3459 0.19056 0.87529 0.0
N1589 N 0.46759 0.17577 0.88638 0.0
C1590 C 0.37218 0.18147 0.87878 0.0
C1591 C 0.4344 0.17359 0.88429 0.0
N1592 N 0.37434 0.18922 0.92454 0.0
N1593 N 0.42166 0.14856 0.84065 0.0
H1594 H 0.48376 0.18285 0.90346 0.0
H1595 H 0.48059 0.17366 0.87086 0.0
H1596 H 0.40716 0.14124 0.82286 0.0
H1597 H 0.44059 0.1401 0.8424 0.0
H1598 H 0.34902 0.18743 0.92412 0.0
H1599 H 0.38607 0.19185 0.94284 0.0
H1600 H 0.33911 0.20297 0.88955 0.0
H1601 H 0.33283 0.18837 0.85756 0.0
C1602 C 0.84434 0.25786 0.87754 0.0
C1603 C 0.83624 0.23419 0.89688 0.0
C1604 C 0.86621 0.2063 0.87498 0.0
C1605 C 0.86741 0.22496 0.85339 0.0
N1606 N 0.88669 0.28634 0.84658 0.0
N1607 N 0.83917 0.18509 0.91412 0.0
C1608 C 0.86449 0.25601 0.85772 0.0
C1609 C 0.84696 0.20804 0.89559 0.0
N1610 N 0.83327 0.28252 0.87817 0.0
N1611 N 0.88898 0.19287 0.87793 0.0
H1612 H 0.82577 0.1861 0.92977 0.0
H1613 H 0.8434 0.16336 0.91274 0.0
H1614 H 0.90895 0.19792 0.86555 0.0
H1615 H 0.89185 0.18188 0.89432 0.0
H1616 H 0.83619 0.29836 0.86328 0.0
H1617 H 0.81842 0.2848 0.89245 0.0
H1618 H 0.88794 0.31073 0.85081 0.0
H1619 H 0.90775 0.28823 0.83631 0.0
C1620 C 0.25565 0.09549 0.4841 0.0
C1621 C 0.27256 0.11459 0.46316 0.0
C1622 C 0.32666 0.15668 0.49122 0.0
C1623 C 0.31122 0.13539 0.51159 0.0
N1624 N 0.26296 0.08246 0.52723 0.0
N1625 N 0.325 0.16121 0.44579 0.0
C1626 C 0.27614 0.10429 0.50801 0.0
C1627 C 0.30828 0.14474 0.46646 0.0
N1628 N 0.21972 0.06939 0.4812 0.0
N1629 N 0.35853 0.18865 0.49572 0.0
H1630 H 0.31201 0.1537 0.42749 0.0
H1631 H 0.3524 0.1807 0.44643 0.0
H1632 H 0.37288 0.19793 0.51356 0.0
H1633 H 0.36936 0.20725 0.48236 0.0
H1634 H 0.20469 0.05712 0.49622 0.0
H1635 H 0.20392 0.06195 0.46392 0.0
H1636 H 0.23957 0.05727 0.52496 0.0
H1637 H 0.27682 0.08831 0.54517 0.0
C1638 C 0.88634 0.17111 0.46096 0.0
C1639 C 0.92068 0.17319 0.46164 0.0
C1640 C 0.92959 0.18795 0.50766 0.0
C1641 C 0.89379 0.18245 0.50726 0.0
N1642 N 0.83609 0.16432 0.48427 0.0
N1643 N 0.97349 0.17942 0.48554 0.0
C1644 C 0.87163 0.17291 0.48408 0.0
C1645 C 0.94197 0.18056 0.48498 0.0
N1646 N 0.86814 0.16812 0.43815 0.0
N1647 N 0.95208 0.20118 0.52958 0.0
H1648 H 0.98393 0.17508 0.46925 0.0
H1649 H 0.98795 0.18019 0.5022 0.0
H1650 H 0.94385 0.20662 0.54659 0.0
H1651 H 0.97968 0.20946 0.53055 0.0
H1652 H 0.84497 0.17042 0.43629 0.0
H1653 H 0.87785 0.16622 0.42084 0.0
H1654 H 0.81735 0.15328 0.46841 0.0
H1655 H 0.8244 0.16558 0.50079 0.0
C1656 C 0.84045 0.70094 0.47066 0.0
C1657 C 0.86345 0.73873 0.47249 0.0
C1658 C 0.87052 0.73914 0.51881 0.0
C1659 C 0.84402 0.70209 0.51713 0.0
N1660 N 0.79923 0.64886 0.49149 0.0
N1661 N 0.89538 0.79473 0.4987 0.0
C1662 C 0.82782 0.68323 0.49303 0.0
C1663 C 0.87726 0.75812 0.49669 0.0
N1664 N 0.83126 0.68188 0.44754 0.0
N1665 N 0.89002 0.75605 0.54143 0.0
H1666 H 0.90056 0.80975 0.48308 0.0
H1667 H 0.90243 0.81015 0.51595 0.0
H1668 H 0.88621 0.743 0.55797 0.0
H1669 H 0.91227 0.78202 0.54326 0.0
H1670 H 0.81767 0.654 0.44523 0.0
H1671 H 0.84024 0.69396 0.43082 0.0
H1672 H 0.78381 0.6351 0.4746 0.0
H1673 H 0.78869 0.63513 0.50737 0.0
loop_
_geom_bond_atom_site_label_1
_geom_bond_atom_site_label_2
_geom_bond_distance
_geom_bond_site_symmetry_2
_ccdc_geom_bond_type
H0 C1 0.949 . S
C1 H0 0.949 . S
C1 C2 1.395 . S
C1 C3 1.391 . S
C2 C1 1.395 . S
C2 C5 1.390 . S
C3 C1 1.391 . S
C3 C7 1.387 . S
C3 C8 1.491 . S
H4 C5 0.950 . S
C5 C2 1.390 . S
C5 H4 0.950 . S
C5 C6 1.378 . S
C6 C5 1.378 . S
C6 C7 1.409 . S
C7 C3 1.387 . S
C7 C6 1.409 . S
C7 H9 0.951 . S
C8 C3 1.491 . S
C8 C10 1.382 . S
C8 C12 1.404 . S
H9 C7 0.951 . S
C10 C8 1.382 . S
C10 C11 1.390 . S
C10 H15 0.949 . S
C11 C10 1.390 . S
C11 C16 1.399 . S
C12 C8 1.404 . S
C12 H13 0.950 . S
C12 C14 1.375 . S
H13 C12 0.950 . S
C14 C12 1.375 . S
C14 C16 1.382 . S
C14 H18 0.950 . S
H15 C10 0.949 . S
C16 C11 1.399 . S
C16 C14 1.382 . S
C16 H17 0.952 . S
H17 C16 0.952 . S
H18 C14 0.950 . S
H19 C20 0.949 . S
C20 H19 0.949 . S
C20 C21 1.395 . S
C20 C22 1.391 . S
C21 C20 1.395 . S
C21 C24 1.390 . S
C22 C20 1.391 . S
C22 C26 1.387 . S
C22 C27 1.491 . S
H23 C24 0.950 . S
C24 C21 1.390 . S
C24 H23 0.950 . S
C24 C25 1.378 . S
C25 C24 1.378 . S
C25 C26 1.409 . S
C26 C22 1.387 . S
C26 C25 1.409 . S
C26 H28 0.951 . S
C27 C22 1.491 . S
C27 C29 1.382 . S
C27 C31 1.404 . S
H28 C26 0.951 . S
C29 C27 1.382 . S
C29 C30 1.390 . S
C29 H34 0.949 . S
C30 C29 1.390 . S
C30 C35 1.399 1_545 S
C31 C27 1.404 . S
C31 H32 0.950 . S
C31 C33 1.375 . S
H32 C31 0.950 . S
C33 C31 1.375 . S
C33 C35 1.382 1_545 S
C33 H37 0.950 . S
H34 C29 0.949 . S
C35 C30 1.399 1_565 S
C35 C33 1.382 1_565 S
C35 H36 0.952 . S
H36 C35 0.952 . S
H37 C33 0.950 . S
H38 C39 0.949 . S
C39 H38 0.949 . S
C39 C40 1.395 . S
C39 C41 1.391 . S
C40 C39 1.395 . S
C40 C43 1.390 . S
C41 C39 1.391 . S
C41 C45 1.387 . S
C41 C46 1.491 . S
H42 C43 0.950 . S
C43 C40 1.390 . S
C43 H42 0.950 . S
C43 C44 1.378 . S
C44 C43 1.378 . S
C44 C45 1.409 . S
C45 C41 1.387 . S
C45 C44 1.409 . S
C45 H47 0.951 . S
C46 C41 1.491 . S
C46 C48 1.382 . S
C46 C50 1.404 . S
H47 C45 0.951 . S
C48 C46 1.382 . S
C48 C49 1.390 1_655 S
C48 H53 0.949 . S
C49 C48 1.390 1_455 S
C49 C54 1.399 . S
C50 C46 1.404 . S
C50 H51 0.950 . S
C50 C52 1.375 1_655 S
H51 C50 0.950 . S
C52 C50 1.375 1_455 S
C52 C54 1.382 . S
C52 H56 0.950 . S
H53 C48 0.949 . S
C54 C49 1.399 . S
C54 C52 1.382 . S
C54 H55 0.952 . S
H55 C54 0.952 . S
H56 C52 0.950 . S
H57 C58 0.949 . S
C58 H57 0.949 . S
C58 C59 1.395 . S
C58 C60 1.391 . S
C59 C58 1.395 . S
C59 C62 1.390 . S
C60 C58 1.391 . S
C60 C64 1.387 . S
C60 C65 1.491 . S
H61 C62 0.950 . S
C62 C59 1.390 . S
C62 H61 0.950 . S
C62 C63 1.378 . S
C63 C62 1.378 . S
C63 C64 1.409 . S
C64 C60 1.387 . S
C64 C63 1.409 . S
C64 H66 0.951 . S
C65 C60 1.491 . S
C65 C67 1.382 . S
C65 C69 1.404 . S
H66 C64 0.951 . S
C67 C65 1.382 . S
C67 C68 1.390 . S
C67 H72 0.949 . S
C68 C67 1.390 . S
C68 C73 1.399 . S
C69 C65 1.404 . S
C69 H70 0.950 . S
C69 C71 1.375 . S
H70 C69 0.950 . S
C71 C69 1.375 . S
C71 C73 1.382 . S
C71 H75 0.950 . S
H72 C67 0.949 . S
C73 C68 1.399 . S
C73 C71 1.382 . S
C73 H74 0.952 . S
H74 C73 0.952 . S
H75 C71 0.950 . S
H76 C77 0.949 . S
C77 H76 0.949 . S
C77 C78 1.395 . S
C77 C79 1.391 . S
C78 C77 1.395 . S
C78 C81 1.390 . S
C79 C77 1.391 . S
C79 C83 1.387 . S
C79 C84 1.491 . S
H80 C81 0.950 . S
C81 C78 1.390 . S
C81 H80 0.950 . S
C81 C82 1.378 . S
C82 C81 1.378 . S
C82 C83 1.409 . S
C83 C79 1.387 . S
C83 C82 1.409 . S
C83 H85 0.951 . S
C84 C79 1.491 . S
C84 C86 1.382 . S
C84 C88 1.404 . S
H85 C83 0.951 . S
C86 C84 1.382 . S
C86 C87 1.390 . S
C86 H91 0.949 . S
C87 C86 1.390 . S
C87 C92 1.399 1_565 S
C88 C84 1.404 . S
C88 H89 0.950 . S
C88 C90 1.375 . S
H89 C88 0.950 . S
C90 C88 1.375 . S
C90 C92 1.382 1_565 S
C90 H94 0.950 . S
H91 C86 0.949 . S
C92 C87 1.399 1_545 S
C92 C90 1.382 1_545 S
C92 H93 0.952 . S
H93 C92 0.952 . S
H94 C90 0.950 . S
H95 C96 0.949 . S
C96 H95 0.949 . S
C96 C97 1.395 . S
C96 C98 1.391 . S
C97 C96 1.395 . S
C97 C100 1.390 . S
C98 C96 1.391 . S
C98 C102 1.387 . S
C98 C103 1.491 . S
H99 C100 0.950 . S
C100 C97 1.390 . S
C100 H99 0.950 . S
C100 C101 1.378 . S
C101 C100 1.378 . S
C101 C102 1.409 . S
C102 C98 1.387 . S
C102 C101 1.409 . S
C102 H104 0.951 . S
C103 C98 1.491 . S
C103 C105 1.382 . S
C103 C107 1.404 . S
H104 C102 0.951 . S
C105 C103 1.382 . S
C105 C106 1.390 . S
C105 H110 0.949 . S
C106 C105 1.390 . S
C106 C111 1.399 . S
C107 C103 1.404 . S
C107 H108 0.950 . S
C107 C109 1.375 . S
H108 C107 0.950 . S
C109 C107 1.375 . S
C109 C111 1.382 . S
C109 H113 0.950 . S
H110 C105 0.949 . S
C111 C106 1.399 . S
C111 C109 1.382 . S
C111 H112 0.952 1_455 S
H112 C111 0.952 1_655 S
H113 C109 0.950 . S
H114 C115 0.949 . S
C115 H114 0.949 . S
C115 C116 1.395 . S
C115 C117 1.391 . S
C116 C115 1.395 . S
C116 C119 1.390 . S
C117 C115 1.391 . S
C117 C121 1.387 . S
C117 C122 1.491 . S
H118 C119 0.950 . S
C119 C116 1.390 . S
C119 H118 0.950 . S
C119 C120 1.378 . S
C120 C119 1.378 . S
C120 C121 1.409 . S
C121 C117 1.387 . S
C121 C120 1.409 . S
C121 H123 0.951 . S
C122 C117 1.491 . S
C122 C124 1.382 . S
C122 C126 1.404 . S
H123 C121 0.951 . S
C124 C122 1.382 . S
C124 C125 1.390 . S
C124 H129 0.949 . S
C125 C124 1.390 . S
C125 C130 1.399 . S
C126 C122 1.404 . S
C126 H127 0.950 . S
C126 C128 1.375 . S
H127 C126 0.950 . S
C128 C126 1.375 . S
C128 C130 1.382 . S
C128 H132 0.950 . S
H129 C124 0.949 . S
C130 C125 1.399 . S
C130 C128 1.382 . S
C130 H131 0.952 . S
H131 C130 0.952 . S
H132 C128 0.950 . S
H133 C134 0.949 . S
C134 H133 0.949 . S
C134 C135 1.395 . S
C134 C136 1.391 . S
C135 C134 1.395 . S
C135 C138 1.390 . S
C136 C134 1.391 . S
C136 C140 1.387 . S
C136 C141 1.491 . S
H137 C138 0.950 . S
C138 C135 1.390 . S
C138 H137 0.950 . S
C138 C139 1.378 . S
C139 C138 1.378 . S
C139 C140 1.409 . S
C140 C136 1.387 . S
C140 C139 1.409 . S
C140 H142 0.951 . S
C141 C136 1.491 . S
C141 C143 1.382 . S
C141 C145 1.404 . S
H142 C140 0.951 . S
C143 C141 1.382 . S
C143 C144 1.390 . S
C143 H148 0.949 . S
C144 C143 1.390 . S
C144 C149 1.399 . S
C145 C141 1.404 . S
C145 H146 0.950 . S
C145 C147 1.375 . S
H146 C145 0.950 . S
C147 C145 1.375 . S
C147 C149 1.382 . S
C147 H151 0.950 . S
H148 C143 0.949 . S
C149 C144 1.399 . S
C149 C147 1.382 . S
C149 H150 0.952 . S
H150 C149 0.952 . S
H151 C147 0.950 . S
H152 C153 0.949 . S
C153 H152 0.949 . S
C153 C154 1.395 . S
C153 C155 1.391 . S
C154 C153 1.395 . S
C154 C157 1.390 . S
C155 C153 1.391 . S
C155 C159 1.387 . S
C155 C160 1.491 . S
H156 C157 0.950 . S
C157 C154 1.390 . S
C157 H156 0.950 . S
C157 C158 1.378 . S
C158 C157 1.378 . S
C158 C159 1.409 . S
C159 C155 1.387 . S
C159 C158 1.409 . S
C159 H161 0.951 . S
C160 C155 1.491 . S
C160 C162 1.382 . S
C160 C164 1.404 . S
H161 C159 0.951 . S
C162 C160 1.382 . S
C162 C163 1.390 . S
C162 H167 0.949 . S
C163 C162 1.390 . S
C163 C168 1.399 . S
C164 C160 1.404 . S
C164 H165 0.950 . S
C164 C166 1.375 . S
H165 C164 0.950 . S
C166 C164 1.375 . S
C166 C168 1.382 . S
C166 H170 0.950 . S
H167 C162 0.949 . S
C168 C163 1.399 . S
C168 C166 1.382 . S
C168 H169 0.952 . S
H169 C168 0.952 . S
H170 C166 0.950 . S
H171 C172 0.949 . S
C172 H171 0.949 . S
C172 C173 1.395 . S
C172 C174 1.391 . S
C173 C172 1.395 . S
C173 C176 1.390 . S
C174 C172 1.391 . S
C174 C178 1.387 . S
C174 C179 1.491 . S
H175 C176 0.950 . S
C176 C173 1.390 . S
C176 H175 0.950 . S
C176 C177 1.378 . S
C177 C176 1.378 . S
C177 C178 1.409 . S
C178 C174 1.387 . S
C178 C177 1.409 . S
C178 H180 0.951 . S
C179 C174 1.491 . S
C179 C181 1.382 . S
C179 C183 1.404 . S
H180 C178 0.951 . S
C181 C179 1.382 . S
C181 C182 1.390 . S
C181 H186 0.949 . S
C182 C181 1.390 . S
C182 C187 1.399 . S
C183 C179 1.404 . S
C183 H184 0.950 . S
C183 C185 1.375 . S
H184 C183 0.950 . S
C185 C183 1.375 . S
C185 C187 1.382 . S
C185 H189 0.950 . S
H186 C181 0.949 . S
C187 C182 1.399 . S
C187 C185 1.382 . S
C187 H188 0.952 . S
H188 C187 0.952 . S
H189 C185 0.950 . S
H190 C191 0.949 . S
C191 H190 0.949 . S
C191 C192 1.395 . S
C191 C193 1.391 . S
C192 C191 1.395 . S
C192 C195 1.390 . S
C193 C191 1.391 . S
C193 C197 1.387 . S
C193 C198 1.491 . S
H194 C195 0.950 . S
C195 C192 1.390 . S
C195 H194 0.950 . S
C195 C196 1.378 . S
C196 C195 1.378 . S
C196 C197 1.409 . S
C197 C193 1.387 . S
C197 C196 1.409 . S
C197 H199 0.951 1_556 S
C198 C193 1.491 . S
C198 C200 1.382 . S
C198 C202 1.404 1_556 S
H199 C197 0.951 1_554 S
C200 C198 1.382 . S
C200 C201 1.390 1_556 S
C200 H205 0.949 . S
C201 C200 1.390 1_554 S
C201 C206 1.399 . S
C202 C198 1.404 1_554 S
C202 H203 0.950 . S
C202 C204 1.375 . S
H203 C202 0.950 . S
C204 C202 1.375 . S
C204 C206 1.382 . S
C204 H208 0.950 . S
H205 C200 0.949 . S
C206 C201 1.399 . S
C206 C204 1.382 . S
C206 H207 0.952 . S
H207 C206 0.952 . S
H208 C204 0.950 . S
H209 C210 0.949 . S
C210 H209 0.949 . S
C210 C211 1.395 . S
C210 C212 1.391 . S
C211 C210 1.395 . S
C211 C214 1.390 . S
C212 C210 1.391 . S
C212 C216 1.387 . S
C212 C217 1.491 . S
H213 C214 0.950 . S
C214 C211 1.390 . S
C214 H213 0.950 . S
C214 C215 1.378 . S
C215 C214 1.378 . S
C215 C216 1.409 . S
C216 C212 1.387 . S
C216 C215 1.409 . S
C216 H218 0.951 . S
C217 C212 1.491 . S
C217 C219 1.382 . S
C217 C221 1.404 . S
H218 C216 0.951 . S
C219 C217 1.382 . S
C219 C220 1.390 . S
C219 H224 0.949 . S
C220 C219 1.390 . S
C220 C225 1.399 . S
C221 C217 1.404 . S
C221 H222 0.950 . S
C221 C223 1.375 1_556 S
H222 C221 0.950 . S
C223 C221 1.375 1_554 S
C223 C225 1.382 1_554 S
C223 H227 0.949 . S
H224 C219 0.949 . S
C225 C220 1.399 . S
C225 C223 1.382 1_556 S
C225 H226 0.952 1_556 S
H226 C225 0.952 1_554 S
H227 C223 0.949 . S
H228 C229 0.949 . S
C229 H228 0.949 . S
C229 C230 1.395 . S
C229 C231 1.391 . S
C230 C229 1.395 . S
C230 C233 1.390 . S
C231 C229 1.391 . S
C231 C235 1.387 . S
C231 C236 1.491 . S
H232 C233 0.950 . S
C233 C230 1.390 . S
C233 H232 0.950 . S
C233 C234 1.378 . S
C234 C233 1.378 . S
C234 C235 1.409 . S
C235 C231 1.387 . S
C235 C234 1.409 . S
C235 H237 0.935 1_554 S
C236 C231 1.491 . S
C236 C238 1.382 . S
C236 C240 1.386 1_554 S
H237 C235 0.935 1_556 S
C238 C236 1.382 . S
C238 C239 1.390 . S
C238 H243 0.949 . S
C239 C238 1.390 . S
C239 C244 1.399 1_554 S
C240 C236 1.386 1_556 S
C240 H241 0.953 . S
C240 C242 1.391 . S
H241 C240 0.953 . S
C242 C240 1.391 . S
C242 C244 1.382 . S
C242 H246 0.950 . S
H243 C238 0.949 . S
C244 C239 1.399 1_556 S
C244 C242 1.382 . S
C244 H245 0.952 . S
H245 C244 0.952 . S
H246 C242 0.950 . S
H247 C248 0.949 . S
C248 H247 0.949 . S
C248 C249 1.395 . S
C248 C250 1.391 . S
C249 C248 1.395 . S
C249 C252 1.390 . S
C250 C248 1.391 . S
C250 C254 1.387 . S
C250 C255 1.491 . S
H251 C252 0.950 . S
C252 C249 1.390 . S
C252 H251 0.950 . S
C252 C253 1.378 . S
C253 C252 1.378 . S
C253 C254 1.409 . S
C254 C250 1.387 . S
C254 C253 1.409 . S
C254 H256 0.951 . S
C255 C250 1.491 . S
C255 C257 1.382 . S
C255 C259 1.404 . S
H256 C254 0.951 . S
C257 C255 1.382 . S
C257 C258 1.390 . S
C257 H262 0.949 . S
C258 C257 1.390 . S
C258 C263 1.402 . S
C259 C255 1.404 . S
C259 H260 0.950 . S
C259 C261 1.367 1_554 S
H260 C259 0.950 . S
C261 C259 1.367 1_556 S
C261 C263 1.379 1_556 S
C261 H265 0.961 . S
H262 C257 0.949 . S
C263 C258 1.402 . S
C263 C261 1.379 1_554 S
C263 H264 0.949 1_554 S
H264 C263 0.949 1_556 S
H265 C261 0.961 . S
H266 C267 0.949 . S
C267 H266 0.949 . S
C267 C268 1.395 . S
C267 C269 1.391 . S
C268 C267 1.395 . S
C268 C271 1.390 . S
C269 C267 1.391 . S
C269 C273 1.387 . S
C269 C274 1.491 . S
H270 C271 0.950 . S
C271 C268 1.390 . S
C271 H270 0.950 . S
C271 C272 1.378 . S
C272 C271 1.378 . S
C272 C273 1.409 . S
C273 C269 1.387 . S
C273 C272 1.409 . S
C273 H275 0.951 . S
C274 C269 1.491 . S
C274 C276 1.382 . S
C274 C278 1.404 . S
H275 C273 0.951 . S
C276 C274 1.382 . S
C276 C277 1.390 . S
C276 H281 0.949 . S
C277 C276 1.390 . S
C277 C282 1.399 . S
C278 C274 1.404 . S
C278 H279 0.950 . S
C278 C280 1.375 . S
H279 C278 0.950 . S
C280 C278 1.375 . S
C280 C282 1.382 . S
C280 H284 0.950 . S
H281 C276 0.949 . S
C282 C277 1.399 . S
C282 C280 1.382 . S
C282 H283 0.952 . S
H283 C282 0.952 . S
H284 C280 0.950 . S
H285 C286 0.949 . S
C286 H285 0.949 . S
C286 C287 1.395 . S
C286 C288 1.391 . S
C287 C286 1.395 . S
C287 C290 1.390 . S
C288 C286 1.391 . S
C288 C292 1.387 . S
C288 C293 1.491 . S
H289 C290 0.950 . S
C290 C287 1.390 . S
C290 H289 0.950 . S
C290 C291 1.378 . S
C291 C290 1.378 . S
C291 C292 1.409 . S
C292 C288 1.387 . S
C292 C291 1.409 . S
C292 H294 0.951 . S
C293 C288 1.491 . S
C293 C295 1.382 . S
C293 C297 1.404 . S
H294 C292 0.951 . S
C295 C293 1.382 . S
C295 C296 1.390 . S
C295 H300 0.949 . S
C296 C295 1.390 . S
C296 C301 1.399 . S
C297 C293 1.404 . S
C297 H298 0.950 . S
C297 C299 1.375 . S
H298 C297 0.950 . S
C299 C297 1.375 . S
C299 C301 1.382 . S
C299 H303 0.950 . S
H300 C295 0.949 . S
C301 C296 1.399 . S
C301 C299 1.382 . S
C301 H302 0.952 . S
H302 C301 0.952 . S
H303 C299 0.950 . S
H304 C305 0.949 . S
C305 H304 0.949 . S
C305 C306 1.395 . S
C305 C307 1.391 . S
C306 C305 1.395 . S
C306 C309 1.390 . S
C307 C305 1.391 . S
C307 C311 1.387 . S
C307 C312 1.491 . S
H308 C309 0.950 . S
C309 C306 1.390 . S
C309 H308 0.950 . S
C309 C310 1.378 . S
C310 C309 1.378 . S
C310 C311 1.409 . S
C311 C307 1.387 . S
C311 C310 1.409 . S
C311 H313 0.951 . S
C312 C307 1.491 . S
C312 C314 1.382 . S
C312 C316 1.404 . S
H313 C311 0.951 . S
C314 C312 1.382 . S
C314 C315 1.390 . S
C314 H319 0.949 . S
C315 C314 1.390 . S
C315 C320 1.399 . S
C316 C312 1.404 . S
C316 H317 0.950 . S
C316 C318 1.375 . S
H317 C316 0.950 . S
C318 C316 1.375 . S
C318 C320 1.382 . S
C318 H322 0.950 . S
H319 C314 0.949 . S
C320 C315 1.399 . S
C320 C318 1.382 . S
C320 H321 0.952 . S
H321 C320 0.952 . S
H322 C318 0.950 . S
H323 C324 0.949 . S
C324 H323 0.949 . S
C324 C325 1.395 . S
C324 C326 1.391 . S
C325 C324 1.395 . S
C325 C328 1.390 . S
C326 C324 1.391 . S
C326 C330 1.387 . S
C326 C331 1.491 . S
H327 C328 0.950 . S
C328 C325 1.390 . S
C328 H327 0.950 . S
C328 C329 1.378 . S
C329 C328 1.378 . S
C329 C330 1.409 . S
C330 C326 1.387 . S
C330 C329 1.409 . S
C330 H332 0.951 . S
C331 C326 1.491 . S
C331 C333 1.382 . S
C331 C335 1.404 . S
H332 C330 0.951 . S
C333 C331 1.382 . S
C333 C334 1.390 . S
C333 H338 0.949 . S
C334 C333 1.390 . S
C334 C339 1.399 . S
C335 C331 1.404 . S
C335 H336 0.950 . S
C335 C337 1.375 . S
H336 C335 0.950 . S
C337 C335 1.375 . S
C337 C339 1.382 . S
C337 H341 0.950 . S
H338 C333 0.949 . S
C339 C334 1.399 . S
C339 C337 1.382 . S
C339 H340 0.952 . S
H340 C339 0.952 . S
H341 C337 0.950 . S
Tb342 C352 2.825 1_565 S
Tb342 O353 2.347 1_565 S
Tb342 O356 2.366 1_565 S
Tb342 O361 2.418 . S
Tb342 O362 2.384 . S
Tb342 O365 2.479 . S
Tb342 O366 2.471 1_565 S
Eu343 O354 2.418 . S
Eu343 O355 2.384 . S
Eu343 O358 2.479 . S
Eu343 O359 2.471 1_545 S
Eu343 O360 2.347 1_545 S
Eu343 O363 2.366 1_545 S
Eu343 C373 2.825 1_545 S
C344 O360 1.253 1_556 S
C344 O361 1.276 . S
C345 O362 1.255 1_554 S
C345 O363 1.265 . S
C346 C348 1.380 . S
C346 C349 1.374 . S
C346 C352 1.507 . S
C347 C348 1.384 . S
C347 C351 1.387 . S
C347 H374 0.930 . S
C348 C346 1.380 . S
C348 C347 1.384 . S
C348 H375 0.931 1_545 S
C349 C346 1.374 . S
C349 C350 1.390 . S
C349 H376 0.930 . S
C350 C349 1.390 . S
C350 C351 1.391 . S
C350 H377 0.930 . S
C351 C347 1.387 . S
C351 C350 1.391 . S
C352 Tb342 2.825 1_545 S
C352 C346 1.507 . S
C352 O365 1.238 1_545 S
C352 O366 1.247 . S
O353 Tb342 2.347 1_545 S
O353 C357 1.259 1_556 S
O354 Eu343 2.418 . S
O354 C357 1.265 . S
O355 Eu343 2.384 . S
O355 C364 1.255 1_554 S
O356 Tb342 2.366 1_545 S
O356 C364 1.265 . S
C357 O353 1.259 1_554 S
C357 O354 1.265 . S
O358 Eu343 2.479 . S
O358 C373 1.238 1_545 S
O359 Eu343 2.471 1_565 S
O359 C373 1.247 . S
O360 Eu343 2.347 1_565 S
O360 C344 1.253 1_554 S
O361 Tb342 2.418 . S
O361 C344 1.276 . S
O362 Tb342 2.384 . S
O362 C345 1.255 1_556 S
O363 Eu343 2.366 1_565 S
O363 C345 1.265 . S
C364 O355 1.255 1_556 S
C364 O356 1.265 . S
O365 Tb342 2.479 . S
O365 C352 1.238 1_565 S
O366 Tb342 2.471 1_545 S
O366 C352 1.247 . S
C367 C370 1.380 1_565 S
C367 C371 1.374 . S
C367 C373 1.507 . S
C368 C369 1.387 . S
C368 C372 1.391 . S
C369 C368 1.387 . S
C369 C370 1.384 1_565 S
C369 H378 0.930 1_565 S
C370 C367 1.380 1_545 S
C370 C369 1.384 1_545 S
C370 H379 0.931 . S
C371 C367 1.374 . S
C371 C372 1.390 . S
C371 H380 0.930 . S
C372 C368 1.391 . S
C372 C371 1.390 . S
C372 H381 0.930 . S
C373 Eu343 2.825 1_565 S
C373 O358 1.238 1_565 S
C373 O359 1.247 . S
C373 C367 1.507 . S
H374 C347 0.930 . S
H375 C348 0.931 1_565 S
H376 C349 0.930 . S
H377 C350 0.930 . S
H378 C369 0.930 1_545 S
H379 C370 0.931 . S
H380 C371 0.930 . S
H381 C372 0.930 . S
Tb382 C392 2.825 1_455 S
Tb382 O393 2.347 1_455 S
Tb382 O396 2.366 1_455 S
Tb382 O401 2.418 . S
Tb382 O402 2.384 . S
Tb382 O405 2.479 . S
Tb382 O406 2.471 1_455 S
Eu383 O394 2.418 . S
Eu383 O395 2.384 . S
Eu383 O398 2.479 . S
Eu383 O399 2.471 1_655 S
Eu383 O400 2.347 1_655 S
Eu383 O403 2.366 1_655 S
Eu383 C413 2.825 1_655 S
C384 O400 1.259 . S
C384 O401 1.265 1_554 S
C385 O402 1.255 1_554 S
C385 O403 1.265 . S
C386 C388 1.380 . S
C386 C389 1.374 . S
C386 C392 1.507 . S
C387 C388 1.384 . S
C387 C391 1.387 . S
C387 H414 0.930 . S
C388 C386 1.380 . S
C388 C387 1.384 . S
C388 H415 0.931 1_655 S
C389 C386 1.374 . S
C389 C390 1.390 . S
C389 H416 0.930 . S
C390 C389 1.390 . S
C390 C391 1.391 . S
C390 H417 0.930 . S
C391 C387 1.387 . S
C391 C390 1.391 . S
C392 Tb382 2.825 1_655 S
C392 C386 1.507 . S
C392 O405 1.238 1_655 S
C392 O406 1.247 . S
O393 Tb382 2.347 1_655 S
O393 C397 1.259 . S
O394 Eu383 2.418 . S
O394 C397 1.265 1_554 S
O395 Eu383 2.384 . S
O395 C404 1.255 1_554 S
O396 Tb382 2.366 1_655 S
O396 C404 1.265 . S
C397 O393 1.259 . S
C397 O394 1.265 1_556 S
O398 Eu383 2.479 . S
O398 C413 1.238 1_655 S
O399 Eu383 2.471 1_455 S
O399 C413 1.247 . S
O400 Eu383 2.347 1_455 S
O400 C384 1.259 . S
O401 Tb382 2.418 . S
O401 C384 1.265 1_556 S
O402 Tb382 2.384 . S
O402 C385 1.255 1_556 S
O403 Eu383 2.366 1_455 S
O403 C385 1.265 . S
C404 O395 1.255 1_556 S
C404 O396 1.265 . S
O405 Tb382 2.479 . S
O405 C392 1.238 1_455 S
O406 Tb382 2.471 1_655 S
O406 C392 1.247 . S
C407 C410 1.380 . S
C407 C411 1.374 . S
C407 C413 1.507 . S
C408 C409 1.387 . S
C408 C412 1.391 . S
C409 C408 1.387 . S
C409 C410 1.384 . S
C409 H418 0.930 . S
C410 C407 1.380 . S
C410 C409 1.384 . S
C410 H419 0.931 1_455 S
C411 C407 1.374 . S
C411 C412 1.390 . S
C411 H420 0.930 . S
C412 C408 1.391 . S
C412 C411 1.390 . S
C412 H421 0.930 . S
C413 Eu383 2.825 1_455 S
C413 O398 1.238 1_455 S
C413 O399 1.247 . S
C413 C407 1.507 . S
H414 C387 0.930 . S
H415 C388 0.931 1_455 S
H416 C389 0.930 . S
H417 C390 0.930 . S
H418 C409 0.930 . S
H419 C410 0.931 1_655 S
H420 C411 0.930 . S
H421 C412 0.930 . S
Tb422 C432 2.825 . S
Tb422 O433 2.347 . S
Tb422 O436 2.366 . S
Tb422 O441 2.418 . S
Tb422 O442 2.384 . S
Tb422 O445 2.479 . S
Tb422 O446 2.471 . S
Eu423 O434 2.418 . S
Eu423 O435 2.384 1_556 S
Eu423 O438 2.479 . S
Eu423 O439 2.471 . S
Eu423 O440 2.347 . S
Eu423 O443 2.366 . S
Eu423 C453 2.825 . S
C424 O440 1.259 1_554 S
C424 O441 1.265 . S
C425 O442 1.255 1_556 S
C425 O443 1.265 . S
C426 C428 1.380 . S
C426 C429 1.374 . S
C426 C432 1.507 . S
C427 C428 1.384 . S
C427 C431 1.387 . S
C427 H454 0.930 . S
C428 C426 1.380 . S
C428 C427 1.384 . S
C428 H455 0.931 . S
C429 C426 1.374 . S
C429 C430 1.390 . S
C429 H456 0.930 . S
C430 C429 1.390 . S
C430 C431 1.391 . S
C430 H457 0.930 . S
C431 C427 1.387 . S
C431 C430 1.391 . S
C432 Tb422 2.825 . S
C432 C426 1.507 . S
C432 O445 1.238 . S
C432 O446 1.247 . S
O433 Tb422 2.347 . S
O433 C437 1.259 . S
O434 Eu423 2.418 . S
O434 C437 1.265 1_556 S
O435 Eu423 2.384 1_554 S
O435 C444 1.255 . S
O436 Tb422 2.366 . S
O436 C444 1.265 . S
C437 O433 1.259 . S
C437 O434 1.265 1_554 S
O438 Eu423 2.479 . S
O438 C453 1.238 . S
O439 Eu423 2.471 . S
O439 C453 1.247 . S
O440 Eu423 2.347 . S
O440 C424 1.259 1_556 S
O441 Tb422 2.418 . S
O441 C424 1.265 . S
O442 Tb422 2.384 . S
O442 C425 1.255 1_554 S
O443 Eu423 2.366 . S
O443 C425 1.265 . S
C444 O435 1.255 . S
C444 O436 1.265 . S
O445 Tb422 2.479 . S
O445 C432 1.238 . S
O446 Tb422 2.471 . S
O446 C432 1.247 . S
C447 C450 1.380 . S
C447 C451 1.374 . S
C447 C453 1.507 . S
C448 C449 1.387 . S
C448 C452 1.391 . S
C449 C448 1.387 . S
C449 C450 1.384 . S
C449 H458 0.930 . S
C450 C447 1.380 . S
C450 C449 1.384 . S
C450 H459 0.931 . S
C451 C447 1.374 . S
C451 C452 1.390 . S
C451 H460 0.930 . S
C452 C448 1.391 . S
C452 C451 1.390 . S
C452 H461 0.930 . S
C453 Eu423 2.825 . S
C453 O438 1.238 . S
C453 O439 1.247 . S
C453 C447 1.507 . S
H454 C427 0.930 . S
H455 C428 0.931 . S
H456 C429 0.930 . S
H457 C430 0.930 . S
H458 C449 0.930 . S
H459 C450 0.931 . S
H460 C451 0.930 . S
H461 C452 0.930 . S
Tb462 C472 2.825 . S
Tb462 O473 2.347 . S
Tb462 O476 2.366 . S
Tb462 O481 2.418 . S
Tb462 O482 2.384 . S
Tb462 O485 2.479 . S
Tb462 O486 2.471 . S
Eu463 O474 2.418 . S
Eu463 O475 2.384 . S
Eu463 O478 2.479 . S
Eu463 O479 2.471 . S
Eu463 O480 2.347 . S
Eu463 O483 2.366 . S
Eu463 C493 2.825 . S
C464 O480 1.259 . S
C464 O481 1.265 . S
C465 O482 1.255 . S
C465 O483 1.265 . S
C466 C468 1.380 . S
C466 C469 1.374 . S
C466 C472 1.507 . S
C467 C468 1.384 . S
C467 C471 1.387 . S
C467 H494 0.930 . S
C468 C466 1.380 . S
C468 C467 1.384 . S
C468 H495 0.931 . S
C469 C466 1.374 . S
C469 C470 1.390 . S
C469 H496 0.930 . S
C470 C469 1.390 . S
C470 C471 1.391 . S
C470 H497 0.930 . S
C471 C467 1.387 . S
C471 C470 1.391 . S
C472 Tb462 2.825 . S
C472 C466 1.507 . S
C472 O485 1.238 . S
C472 O486 1.247 . S
O473 Tb462 2.347 . S
O473 C477 1.259 . S
O474 Eu463 2.418 . S
O474 C477 1.265 . S
O475 Eu463 2.384 . S
O475 C484 1.255 . S
O476 Tb462 2.366 . S
O476 C484 1.265 . S
C477 O473 1.259 . S
C477 O474 1.265 . S
O478 Eu463 2.479 . S
O478 C493 1.238 . S
O479 Eu463 2.471 . S
O479 C493 1.247 . S
O480 Eu463 2.347 . S
O480 C464 1.259 . S
O481 Tb462 2.418 . S
O481 C464 1.265 . S
O482 Tb462 2.384 . S
O482 C465 1.255 . S
O483 Eu463 2.366 . S
O483 C465 1.265 . S
C484 O475 1.255 . S
C484 O476 1.265 . S
O485 Tb462 2.479 . S
O485 C472 1.238 . S
O486 Tb462 2.471 . S
O486 C472 1.247 . S
C487 C490 1.380 . S
C487 C491 1.374 . S
C487 C493 1.507 . S
C488 C489 1.387 . S
C488 C492 1.391 . S
C489 C488 1.387 . S
C489 C490 1.384 . S
C489 H498 0.930 . S
C490 C487 1.380 . S
C490 C489 1.384 . S
C490 H499 0.931 . S
C491 C487 1.374 . S
C491 C492 1.390 . S
C491 H500 0.930 . S
C492 C488 1.391 . S
C492 C491 1.390 . S
C492 H501 0.930 . S
C493 Eu463 2.825 . S
C493 O478 1.238 . S
C493 O479 1.247 . S
C493 C487 1.507 . S
H494 C467 0.930 . S
H495 C468 0.931 . S
H496 C469 0.930 . S
H497 C470 0.930 . S
H498 C489 0.930 . S
H499 C490 0.931 . S
H500 C491 0.930 . S
H501 C492 0.930 . S
Tb502 C512 2.825 . S
Tb502 O513 2.347 . S
Tb502 O516 2.366 . S
Tb502 O521 2.418 . S
Tb502 O522 2.384 . S
Tb502 O525 2.479 . S
Tb502 O526 2.471 . S
Eu503 O514 2.418 . S
Eu503 O515 2.384 . S
Eu503 O518 2.479 . S
Eu503 O519 2.471 . S
Eu503 O520 2.347 . S
Eu503 O523 2.366 . S
Eu503 C533 2.825 . S
C504 O520 1.259 . S
C504 O521 1.265 . S
C505 O522 1.255 . S
C505 O523 1.265 . S
C506 C508 1.380 . S
C506 C509 1.374 . S
C506 C512 1.507 . S
C507 C508 1.384 . S
C507 C511 1.387 . S
C507 H534 0.930 . S
C508 C506 1.380 . S
C508 C507 1.384 . S
C508 H535 0.931 . S
C509 C506 1.374 . S
C509 C510 1.390 . S
C509 H536 0.930 . S
C510 C509 1.390 . S
C510 C511 1.391 . S
C510 H537 0.930 . S
C511 C507 1.387 . S
C511 C510 1.391 . S
C512 Tb502 2.825 . S
C512 C506 1.507 . S
C512 O525 1.238 . S
C512 O526 1.247 . S
O513 Tb502 2.347 . S
O513 C517 1.259 . S
O514 Eu503 2.418 . S
O514 C517 1.265 . S
O515 Eu503 2.384 . S
O515 C524 1.255 . S
O516 Tb502 2.366 . S
O516 C524 1.265 . S
C517 O513 1.259 . S
C517 O514 1.265 . S
O518 Eu503 2.479 . S
O518 C533 1.238 . S
O519 Eu503 2.471 . S
O519 C533 1.247 . S
O520 Eu503 2.347 . S
O520 C504 1.259 . S
O521 Tb502 2.418 . S
O521 C504 1.265 . S
O522 Tb502 2.384 . S
O522 C505 1.255 . S
O523 Eu503 2.366 . S
O523 C505 1.265 . S
C524 O515 1.255 . S
C524 O516 1.265 . S
O525 Tb502 2.479 . S
O525 C512 1.238 . S
O526 Tb502 2.471 . S
O526 C512 1.247 . S
C527 C530 1.380 . S
C527 C531 1.374 . S
C527 C533 1.507 . S
C528 C529 1.387 . S
C528 C532 1.391 . S
C529 C528 1.387 . S
C529 C530 1.384 . S
C529 H538 0.930 . S
C530 C527 1.380 . S
C530 C529 1.384 . S
C530 H539 0.931 . S
C531 C527 1.374 . S
C531 C532 1.390 . S
C531 H540 0.930 . S
C532 C528 1.391 . S
C532 C531 1.390 . S
C532 H541 0.930 . S
C533 Eu503 2.825 . S
C533 O518 1.238 . S
C533 O519 1.247 . S
C533 C527 1.507 . S
H534 C507 0.930 . S
H535 C508 0.931 . S
H536 C509 0.930 . S
H537 C510 0.930 . S
H538 C529 0.930 . S
H539 C530 0.931 . S
H540 C531 0.930 . S
H541 C532 0.930 . S
Tb542 C552 2.825 . S
Tb542 O553 2.347 . S
Tb542 O556 2.366 . S
Tb542 O561 2.418 . S
Tb542 O562 2.384 . S
Tb542 O565 2.479 . S
Tb542 O566 2.471 . S
Eu543 O554 2.418 . S
Eu543 O555 2.384 . S
Eu543 O558 2.479 . S
Eu543 O559 2.471 . S
Eu543 O560 2.347 . S
Eu543 O563 2.366 . S
Eu543 C573 2.825 . S
C544 O560 1.259 . S
C544 O561 1.265 . S
C545 O562 1.255 . S
C545 O563 1.265 . S
C546 C548 1.380 . S
C546 C549 1.374 . S
C546 C552 1.507 . S
C547 C548 1.384 . S
C547 C551 1.387 . S
C547 H574 0.930 . S
C548 C546 1.380 . S
C548 C547 1.384 . S
C548 H575 0.931 . S
C549 C546 1.374 . S
C549 C550 1.390 . S
C549 H576 0.930 . S
C550 C549 1.390 . S
C550 C551 1.391 . S
C550 H577 0.930 . S
C551 C547 1.387 . S
C551 C550 1.391 . S
C552 Tb542 2.825 . S
C552 C546 1.507 . S
C552 O565 1.238 . S
C552 O566 1.247 . S
O553 Tb542 2.347 . S
O553 C557 1.259 . S
O554 Eu543 2.418 . S
O554 C557 1.265 . S
O555 Eu543 2.384 . S
O555 C564 1.255 . S
O556 Tb542 2.366 . S
O556 C564 1.265 . S
C557 O553 1.259 . S
C557 O554 1.265 . S
O558 Eu543 2.479 . S
O558 C573 1.238 . S
O559 Eu543 2.471 . S
O559 C573 1.247 . S
O560 Eu543 2.347 . S
O560 C544 1.259 . S
O561 Tb542 2.418 . S
O561 C544 1.265 . S
O562 Tb542 2.384 . S
O562 C545 1.255 . S
O563 Eu543 2.366 . S
O563 C545 1.265 . S
C564 O555 1.255 . S
C564 O556 1.265 . S
O565 Tb542 2.479 . S
O565 C552 1.238 . S
O566 Tb542 2.471 . S
O566 C552 1.247 . S
C567 C570 1.380 . S
C567 C571 1.374 . S
C567 C573 1.507 . S
C568 C569 1.387 . S
C568 C572 1.391 . S
C569 C568 1.387 . S
C569 C570 1.384 . S
C569 H578 0.930 . S
C570 C567 1.380 . S
C570 C569 1.384 . S
C570 H579 0.931 . S
C571 C567 1.374 . S
C571 C572 1.390 . S
C571 H580 0.930 . S
C572 C568 1.391 . S
C572 C571 1.390 . S
C572 H581 0.930 . S
C573 Eu543 2.825 . S
C573 O558 1.238 . S
C573 O559 1.247 . S
C573 C567 1.507 . S
H574 C547 0.930 . S
H575 C548 0.931 . S
H576 C549 0.930 . S
H577 C550 0.930 . S
H578 C569 0.930 . S
H579 C570 0.931 . S
H580 C571 0.930 . S
H581 C572 0.930 . S
Tb582 C592 2.825 . S
Tb582 O593 2.347 . S
Tb582 O596 2.366 . S
Tb582 O601 2.418 . S
Tb582 O602 2.384 . S
Tb582 O605 2.479 . S
Tb582 O606 2.471 . S
Eu583 O594 2.418 . S
Eu583 O595 2.384 . S
Eu583 O598 2.479 . S
Eu583 O599 2.471 . S
Eu583 O600 2.347 . S
Eu583 O603 2.366 . S
Eu583 C613 2.825 . S
C584 O600 1.259 . S
C584 O601 1.265 . S
C585 O602 1.255 . S
C585 O603 1.265 . S
C586 C588 1.380 . S
C586 C589 1.374 . S
C586 C592 1.507 . S
C587 C588 1.384 . S
C587 C591 1.387 . S
C587 H614 0.930 . S
C588 C586 1.380 . S
C588 C587 1.384 . S
C588 H615 0.931 . S
C589 C586 1.374 . S
C589 C590 1.390 . S
C589 H616 0.930 . S
C590 C589 1.390 . S
C590 C591 1.391 . S
C590 H617 0.930 . S
C591 C587 1.387 . S
C591 C590 1.391 . S
C592 Tb582 2.825 . S
C592 C586 1.507 . S
C592 O605 1.238 . S
C592 O606 1.247 . S
O593 Tb582 2.347 . S
O593 C597 1.259 . S
O594 Eu583 2.418 . S
O594 C597 1.265 . S
O595 Eu583 2.384 . S
O595 C604 1.255 . S
O596 Tb582 2.366 . S
O596 C604 1.265 . S
C597 O593 1.259 . S
C597 O594 1.265 . S
O598 Eu583 2.479 . S
O598 C613 1.238 . S
O599 Eu583 2.471 . S
O599 C613 1.247 . S
O600 Eu583 2.347 . S
O600 C584 1.259 . S
O601 Tb582 2.418 . S
O601 C584 1.265 . S
O602 Tb582 2.384 . S
O602 C585 1.255 . S
O603 Eu583 2.366 . S
O603 C585 1.265 . S
C604 O595 1.255 . S
C604 O596 1.265 . S
O605 Tb582 2.479 . S
O605 C592 1.238 . S
O606 Tb582 2.471 . S
O606 C592 1.247 . S
C607 C610 1.380 . S
C607 C611 1.374 . S
C607 C613 1.507 . S
C608 C609 1.387 . S
C608 C612 1.391 . S
C609 C608 1.387 . S
C609 C610 1.384 . S
C609 H618 0.930 . S
C610 C607 1.380 . S
C610 C609 1.384 . S
C610 H619 0.931 . S
C611 C607 1.374 . S
C611 C612 1.390 . S
C611 H620 0.930 . S
C612 C608 1.391 . S
C612 C611 1.390 . S
C612 H621 0.930 . S
C613 Eu583 2.825 . S
C613 O598 1.238 . S
C613 O599 1.247 . S
C613 C607 1.507 . S
H614 C587 0.930 . S
H615 C588 0.931 . S
H616 C589 0.930 . S
H617 C590 0.930 . S
H618 C609 0.930 . S
H619 C610 0.931 . S
H620 C611 0.930 . S
H621 C612 0.930 . S
Tb622 C632 2.825 . S
Tb622 O633 2.347 . S
Tb622 O636 2.366 . S
Tb622 O641 2.418 . S
Tb622 O642 2.384 . S
Tb622 O645 2.479 . S
Tb622 O646 2.471 . S
Eu623 O634 2.418 . S
Eu623 O635 2.384 . S
Eu623 O638 2.479 . S
Eu623 O639 2.471 . S
Eu623 O640 2.347 . S
Eu623 O643 2.366 . S
Eu623 C653 2.825 . S
C624 O640 1.259 . S
C624 O641 1.265 . S
C625 O642 1.255 . S
C625 O643 1.265 . S
C626 C628 1.380 . S
C626 C629 1.374 . S
C626 C632 1.507 . S
C627 C628 1.384 . S
C627 C631 1.387 . S
C627 H654 0.930 . S
C628 C626 1.380 . S
C628 C627 1.384 . S
C628 H655 0.931 . S
C629 C626 1.374 . S
C629 C630 1.390 . S
C629 H656 0.930 . S
C630 C629 1.390 . S
C630 C631 1.391 . S
C630 H657 0.930 . S
C631 C627 1.387 . S
C631 C630 1.391 . S
C632 Tb622 2.825 . S
C632 C626 1.507 . S
C632 O645 1.238 . S
C632 O646 1.247 . S
O633 Tb622 2.347 . S
O633 C637 1.259 . S
O634 Eu623 2.418 . S
O634 C637 1.265 . S
O635 Eu623 2.384 . S
O635 C644 1.255 . S
O636 Tb622 2.366 . S
O636 C644 1.265 . S
C637 O633 1.259 . S
C637 O634 1.265 . S
O638 Eu623 2.479 . S
O638 C653 1.238 . S
O639 Eu623 2.471 . S
O639 C653 1.247 . S
O640 Eu623 2.347 . S
O640 C624 1.259 . S
O641 Tb622 2.418 . S
O641 C624 1.265 . S
O642 Tb622 2.384 . S
O642 C625 1.255 . S
O643 Eu623 2.366 . S
O643 C625 1.265 . S
C644 O635 1.255 . S
C644 O636 1.265 . S
O645 Tb622 2.479 . S
O645 C632 1.238 . S
O646 Tb622 2.471 . S
O646 C632 1.247 . S
C647 C650 1.380 . S
C647 C651 1.374 . S
C647 C653 1.507 . S
C648 C649 1.387 . S
C648 C652 1.391 . S
C649 C648 1.387 . S
C649 C650 1.384 . S
C649 H658 0.930 . S
C650 C647 1.380 . S
C650 C649 1.384 . S
C650 H659 0.931 . S
C651 C647 1.374 . S
C651 C652 1.390 . S
C651 H660 0.930 . S
C652 C648 1.391 . S
C652 C651 1.390 . S
C652 H661 0.930 . S
C653 Eu623 2.825 . S
C653 O638 1.238 . S
C653 O639 1.247 . S
C653 C647 1.507 . S
H654 C627 0.930 . S
H655 C628 0.931 . S
H656 C629 0.930 . S
H657 C630 0.930 . S
H658 C649 0.930 . S
H659 C650 0.931 . S
H660 C651 0.930 . S
H661 C652 0.930 . S
Tb662 C672 2.825 . S
Tb662 O673 2.347 . S
Tb662 O676 2.366 . S
Tb662 O681 2.418 . S
Tb662 O682 2.384 . S
Tb662 O685 2.479 . S
Tb662 O686 2.471 . S
Eu663 O674 2.418 . S
Eu663 O675 2.384 . S
Eu663 O678 2.479 . S
Eu663 O679 2.471 . S
Eu663 O680 2.347 . S
Eu663 O683 2.366 . S
Eu663 C693 2.825 . S
C664 O680 1.259 . S
C664 O681 1.265 . S
C665 O682 1.255 . S
C665 O683 1.265 . S
C666 C668 1.380 . S
C666 C669 1.374 . S
C666 C672 1.507 . S
C667 C668 1.384 . S
C667 C671 1.387 . S
C667 H694 0.930 . S
C668 C666 1.380 . S
C668 C667 1.384 . S
C668 H695 0.931 . S
C669 C666 1.374 . S
C669 C670 1.390 . S
C669 H696 0.930 . S
C670 C669 1.390 . S
C670 C671 1.391 . S
C670 H697 0.930 . S
C671 C667 1.387 . S
C671 C670 1.391 . S
C672 Tb662 2.825 . S
C672 C666 1.507 . S
C672 O685 1.238 . S
C672 O686 1.247 . S
O673 Tb662 2.347 . S
O673 C677 1.259 . S
O674 Eu663 2.418 . S
O674 C677 1.265 . S
O675 Eu663 2.384 . S
O675 C684 1.255 . S
O676 Tb662 2.366 . S
O676 C684 1.265 . S
C677 O673 1.259 . S
C677 O674 1.265 . S
O678 Eu663 2.479 . S
O678 C693 1.238 . S
O679 Eu663 2.471 . S
O679 C693 1.247 . S
O680 Eu663 2.347 . S
O680 C664 1.259 . S
O681 Tb662 2.418 . S
O681 C664 1.265 . S
O682 Tb662 2.384 . S
O682 C665 1.255 . S
O683 Eu663 2.366 . S
O683 C665 1.265 . S
C684 O675 1.255 . S
C684 O676 1.265 . S
O685 Tb662 2.479 . S
O685 C672 1.238 . S
O686 Tb662 2.471 . S
O686 C672 1.247 . S
C687 C690 1.380 . S
C687 C691 1.374 . S
C687 C693 1.507 . S
C688 C689 1.387 . S
C688 C692 1.391 . S
C689 C688 1.387 . S
C689 C690 1.384 . S
C689 H698 0.930 . S
C690 C687 1.380 . S
C690 C689 1.384 . S
C690 H699 0.931 . S
C691 C687 1.374 . S
C691 C692 1.390 . S
C691 H700 0.930 . S
C692 C688 1.391 . S
C692 C691 1.390 . S
C692 H701 0.930 . S
C693 Eu663 2.825 . S
C693 O678 1.238 . S
C693 O679 1.247 . S
C693 C687 1.507 . S
H694 C667 0.930 . S
H695 C668 0.931 . S
H696 C669 0.930 . S
H697 C670 0.930 . S
H698 C689 0.930 . S
H699 C690 0.931 . S
H700 C691 0.930 . S
H701 C692 0.930 . S
C702 C703 1.363 . S
C702 C708 1.379 . S
C702 N710 1.356 . S
C703 C702 1.363 . S
C703 C709 1.363 . S
C704 C705 1.363 . S
C704 C709 1.379 . S
C704 N711 1.356 . S
C705 C704 1.363 . S
C705 C708 1.363 . S
N706 C708 1.356 1_556 S
N706 H718 0.984 . S
N706 H719 0.985 . S
N707 C709 1.356 . S
N707 H712 0.984 . S
N707 H713 0.985 . S
C708 C702 1.379 . S
C708 C705 1.363 . S
C708 N706 1.356 1_554 S
C709 C703 1.363 . S
C709 C704 1.379 . S
C709 N707 1.356 . S
N710 C702 1.356 . S
N710 H716 0.984 1_554 S
N710 H717 0.984 . S
N711 C704 1.356 . S
N711 H714 0.984 . S
N711 H715 0.985 . S
H712 N707 0.984 . S
H713 N707 0.985 . S
H714 N711 0.984 . S
H715 N711 0.985 . S
H716 N710 0.984 1_556 S
H717 N710 0.984 . S
H718 N706 0.984 . S
H719 N706 0.985 . S
C720 C721 1.363 . S
C720 C726 1.379 . S
C720 N728 1.356 . S
C721 C720 1.363 . S
C721 C727 1.363 . S
C722 C723 1.363 . S
C722 C727 1.379 . S
C722 N729 1.356 . S
C723 C722 1.363 . S
C723 C726 1.363 . S
N724 C726 1.356 . S
N724 H736 0.984 . S
N724 H737 0.985 . S
N725 C727 1.356 . S
N725 H730 0.984 . S
N725 H731 0.985 . S
C726 C720 1.379 . S
C726 C723 1.363 . S
C726 N724 1.356 . S
C727 C721 1.363 . S
C727 C722 1.379 . S
C727 N725 1.356 . S
N728 C720 1.356 . S
N728 H734 0.984 . S
N728 H735 0.984 . S
N729 C722 1.356 . S
N729 H732 0.984 . S
N729 H733 0.985 . S
H730 N725 0.984 . S
H731 N725 0.985 . S
H732 N729 0.984 . S
H733 N729 0.985 . S
H734 N728 0.984 . S
H735 N728 0.984 . S
H736 N724 0.984 . S
H737 N724 0.985 . S
C738 C739 1.363 . S
C738 C744 1.379 1_554 S
C738 N746 1.356 1_554 S
C739 C738 1.363 . S
C739 C745 1.363 . S
C740 C741 1.363 . S
C740 C745 1.379 . S
C740 N747 1.356 . S
C741 C740 1.363 . S
C741 C744 1.365 1_554 S
N742 C744 1.355 . S
N742 H754 0.984 . S
N742 H755 0.985 . S
N743 C745 1.356 . S
N743 H748 0.984 . S
N743 H749 0.985 . S
C744 C738 1.379 1_556 S
C744 C741 1.365 1_556 S
C744 N742 1.355 . S
C745 C739 1.363 . S
C745 C740 1.379 . S
C745 N743 1.356 . S
N746 C738 1.356 1_556 S
N746 H752 0.984 . S
N746 H753 0.984 . S
N747 C740 1.356 . S
N747 H750 0.984 . S
N747 H751 0.985 . S
H748 N743 0.984 . S
H749 N743 0.985 . S
H750 N747 0.984 . S
H751 N747 0.985 . S
H752 N746 0.984 . S
H753 N746 0.984 . S
H754 N742 0.984 . S
H755 N742 0.985 . S
C756 C757 1.363 . S
C756 C762 1.379 . S
C756 N764 1.356 . S
C757 C756 1.363 . S
C757 C763 1.363 . S
C758 C759 1.344 1_554 S
C758 C763 1.376 1_554 S
C758 N765 1.376 . S
C759 C758 1.344 1_556 S
C759 C762 1.363 . S
N760 C762 1.356 . S
N760 H772 0.984 . S
N760 H773 0.985 . S
N761 C763 1.356 1_554 S
N761 H766 0.984 1_554 S
N761 H767 0.985 . S
C762 C756 1.379 . S
C762 C759 1.363 . S
C762 N760 1.356 . S
C763 C757 1.363 . S
C763 C758 1.376 1_556 S
C763 N761 1.356 1_556 S
N764 C756 1.356 . S
N764 H770 0.984 . S
N764 H771 0.984 . S
N765 C758 1.376 . S
N765 H768 0.984 . S
N765 H769 0.985 . S
H766 N761 0.984 1_556 S
H767 N761 0.985 . S
H768 N765 0.984 . S
H769 N765 0.985 . S
H770 N764 0.984 . S
H771 N764 0.984 . S
H772 N760 0.984 . S
H773 N760 0.985 . S
C774 C775 1.363 . S
C774 C780 1.379 . S
C774 N782 1.356 . S
C775 C774 1.363 . S
C775 C781 1.363 . S
C776 C777 1.363 . S
C776 C781 1.379 . S
C776 N783 1.356 . S
C777 C776 1.363 . S
C777 C780 1.363 . S
N778 C780 1.356 . S
N778 H790 0.984 1_556 S
N778 H791 0.985 1_556 S
N779 C781 1.356 . S
N779 H784 0.984 . S
N779 H785 0.985 . S
C780 C774 1.379 . S
C780 C777 1.363 . S
C780 N778 1.356 . S
C781 C775 1.363 . S
C781 C776 1.379 . S
C781 N779 1.356 . S
N782 C774 1.356 . S
N782 H788 0.984 . S
N782 H789 0.984 . S
N783 C776 1.356 . S
N783 H786 0.984 . S
N783 H787 0.985 . S
H784 N779 0.984 . S
H785 N779 0.985 . S
H786 N783 0.984 . S
H787 N783 0.985 . S
H788 N782 0.984 . S
H789 N782 0.984 . S
H790 N778 0.984 1_554 S
H791 N778 0.985 1_554 S
C792 C793 1.363 1_554 S
C792 C798 1.379 . S
C792 N800 1.356 . S
C793 C792 1.363 1_556 S
C793 C799 1.363 . S
C794 C795 1.363 . S
C794 C799 1.379 . S
C794 N801 1.356 . S
C795 C794 1.363 . S
C795 C798 1.363 1_556 S
N796 C798 1.356 . S
N796 H808 0.984 . S
N796 H809 0.985 . S
N797 C799 1.356 . S
N797 H802 0.984 . S
N797 H803 0.985 . S
C798 C792 1.379 . S
C798 C795 1.363 1_554 S
C798 N796 1.356 . S
C799 C793 1.363 . S
C799 C794 1.379 . S
C799 N797 1.356 . S
N800 C792 1.356 . S
N800 H806 0.984 . S
N800 H807 0.984 . S
N801 C794 1.356 . S
N801 H804 0.984 . S
N801 H805 0.985 . S
H802 N797 0.984 . S
H803 N797 0.985 . S
H804 N801 0.984 . S
H805 N801 0.985 . S
H806 N800 0.984 . S
H807 N800 0.984 . S
H808 N796 0.984 . S
H809 N796 0.985 . S
C810 C811 1.363 1_554 S
C810 C816 1.379 . S
C810 N818 1.356 . S
C811 C810 1.363 1_556 S
C811 C817 1.363 . S
C812 C813 1.363 . S
C812 C817 1.379 . S
C812 N819 1.356 . S
C813 C812 1.363 . S
C813 C816 1.363 1_556 S
N814 C816 1.356 . S
N814 H826 0.984 . S
N814 H827 0.985 . S
N815 C817 1.356 . S
N815 H820 0.984 . S
N815 H821 0.985 . S
C816 C810 1.379 . S
C816 C813 1.363 1_554 S
C816 N814 1.356 . S
C817 C811 1.363 . S
C817 C812 1.379 . S
C817 N815 1.356 . S
N818 C810 1.356 . S
N818 H824 0.984 . S
N818 H825 0.984 . S
N819 C812 1.356 . S
N819 H822 0.984 . S
N819 H823 0.985 . S
H820 N815 0.984 . S
H821 N815 0.985 . S
H822 N819 0.984 . S
H823 N819 0.985 . S
H824 N818 0.984 . S
H825 N818 0.984 . S
H826 N814 0.984 . S
H827 N814 0.985 . S
C828 C829 1.363 . S
C828 C834 1.379 . S
C828 N836 1.356 . S
C829 C828 1.363 . S
C829 C835 1.363 . S
C830 C831 1.363 . S
C830 C835 1.379 . S
C830 N837 1.356 . S
C831 C830 1.363 . S
C831 C834 1.363 . S
N832 C834 1.356 1_554 S
N832 H844 0.984 . S
N832 H845 0.985 . S
N833 C835 1.356 . S
N833 H838 0.984 . S
N833 H839 0.985 . S
C834 C828 1.379 . S
C834 C831 1.363 . S
C834 N832 1.356 1_556 S
C835 C829 1.363 . S
C835 C830 1.379 . S
C835 N833 1.356 . S
N836 C828 1.356 . S
N836 H842 0.984 1_556 S
N836 H843 0.984 . S
N837 C830 1.356 . S
N837 H840 0.984 . S
N837 H841 0.985 . S
H838 N833 0.984 . S
H839 N833 0.985 . S
H840 N837 0.984 . S
H841 N837 0.985 . S
H842 N836 0.984 1_554 S
H843 N836 0.984 . S
H844 N832 0.984 . S
H845 N832 0.985 . S
C846 C847 1.363 1_556 S
C846 C852 1.379 . S
C846 N854 1.356 . S
C847 C846 1.363 1_554 S
C847 C853 1.363 . S
C848 C849 1.363 . S
C848 C853 1.379 . S
C848 N855 1.356 . S
C849 C848 1.363 . S
C849 C852 1.363 1_554 S
N850 C852 1.356 . S
N850 H862 0.984 . S
N850 H863 0.985 . S
N851 C853 1.356 . S
N851 H856 0.984 . S
N851 H857 0.985 . S
C852 C846 1.379 . S
C852 C849 1.363 1_556 S
C852 N850 1.356 . S
C853 C847 1.363 . S
C853 C848 1.379 . S
C853 N851 1.356 . S
N854 C846 1.356 . S
N854 H860 0.984 . S
N854 H861 0.984 . S
N855 C848 1.356 . S
N855 H858 0.984 . S
N855 H859 0.985 . S
H856 N851 0.984 . S
H857 N851 0.985 . S
H858 N855 0.984 . S
H859 N855 0.985 . S
H860 N854 0.984 . S
H861 N854 0.984 . S
H862 N850 0.984 . S
H863 N850 0.985 . S
C864 C865 1.363 1_556 S
C864 C870 1.379 . S
C864 N872 1.356 . S
C865 C864 1.363 1_554 S
C865 C871 1.363 . S
C866 C867 1.363 . S
C866 C871 1.379 . S
C866 N873 1.356 . S
C867 C866 1.363 . S
C867 C870 1.363 1_554 S
N868 C870 1.356 . S
N868 H880 0.984 . S
N868 H881 0.985 . S
N869 C871 1.356 . S
N869 H874 0.984 . S
N869 H875 0.985 . S
C870 C864 1.379 . S
C870 C867 1.363 1_556 S
C870 N868 1.356 . S
C871 C865 1.363 . S
C871 C866 1.379 . S
C871 N869 1.356 . S
N872 C864 1.356 . S
N872 H878 0.984 . S
N872 H879 0.984 . S
N873 C866 1.356 . S
N873 H876 0.984 . S
N873 H877 0.985 . S
H874 N869 0.984 . S
H875 N869 0.985 . S
H876 N873 0.984 . S
H877 N873 0.985 . S
H878 N872 0.984 . S
H879 N872 0.984 . S
H880 N868 0.984 . S
H881 N868 0.985 . S
C882 C883 1.363 . S
C882 C888 1.379 . S
C882 N890 1.356 . S
C883 C882 1.363 . S
C883 C889 1.363 . S
C884 C885 1.363 . S
C884 C889 1.379 . S
C884 N891 1.356 . S
C885 C884 1.363 . S
C885 C888 1.363 . S
N886 C888 1.356 . S
N886 H898 0.984 . S
N886 H899 0.985 . S
N887 C889 1.356 . S
N887 H892 0.984 . S
N887 H893 0.985 . S
C888 C882 1.379 . S
C888 C885 1.363 . S
C888 N886 1.356 . S
C889 C883 1.363 . S
C889 C884 1.379 . S
C889 N887 1.356 . S
N890 C882 1.356 . S
N890 H896 0.984 . S
N890 H897 0.984 . S
N891 C884 1.356 . S
N891 H894 0.984 . S
N891 H895 0.985 . S
H892 N887 0.984 . S
H893 N887 0.985 . S
H894 N891 0.984 . S
H895 N891 0.985 . S
H896 N890 0.984 . S
H897 N890 0.984 . S
H898 N886 0.984 . S
H899 N886 0.985 . S
C900 C901 1.363 . S
C900 C906 1.379 . S
C900 N908 1.356 . S
C901 C900 1.363 . S
C901 C907 1.363 1_554 S
C902 C903 1.363 1_556 S
C902 C907 1.379 . S
C902 N909 1.356 . S
C903 C902 1.363 1_554 S
C903 C906 1.363 . S
N904 C906 1.356 . S
N904 H916 0.984 . S
N904 H917 0.985 . S
N905 C907 1.356 . S
N905 H910 0.984 . S
N905 H911 0.985 . S
C906 C900 1.379 . S
C906 C903 1.363 . S
C906 N904 1.356 . S
C907 C901 1.363 1_556 S
C907 C902 1.379 . S
C907 N905 1.356 . S
N908 C900 1.356 . S
N908 H914 0.984 . S
N908 H915 0.984 . S
N909 C902 1.356 . S
N909 H912 0.984 . S
N909 H913 0.985 . S
H910 N905 0.984 . S
H911 N905 0.985 . S
H912 N909 0.984 . S
H913 N909 0.985 . S
H914 N908 0.984 . S
H915 N908 0.984 . S
H916 N904 0.984 . S
H917 N904 0.985 . S
C918 C919 1.363 . S
C918 C924 1.379 1_655 S
C918 N926 1.356 . S
C919 C918 1.363 . S
C919 C925 1.363 . S
C920 C921 1.363 1_655 S
C920 C925 1.379 . S
C920 N927 1.356 1_655 S
C921 C920 1.363 1_455 S
C921 C924 1.363 . S
N922 C924 1.356 . S
N922 H934 0.984 . S
N922 H935 0.985 . S
N923 C925 1.356 . S
N923 H928 0.984 . S
N923 H929 0.985 . S
C924 C918 1.379 1_455 S
C924 C921 1.363 . S
C924 N922 1.356 . S
C925 C919 1.363 . S
C925 C920 1.379 . S
C925 N923 1.356 . S
N926 C918 1.356 . S
N926 H932 0.984 . S
N926 H933 0.984 . S
N927 C920 1.356 1_455 S
N927 H930 0.984 . S
N927 H931 0.985 . S
H928 N923 0.984 . S
H929 N923 0.985 . S
H930 N927 0.984 . S
H931 N927 0.985 . S
H932 N926 0.984 . S
H933 N926 0.984 . S
H934 N922 0.984 . S
H935 N922 0.985 . S
C936 C937 1.363 . S
C936 C942 1.379 . S
C936 N944 1.356 . S
C937 C936 1.363 . S
C937 C943 1.363 . S
C938 C939 1.363 . S
C938 C943 1.379 . S
C938 N945 1.356 . S
C939 C938 1.363 . S
C939 C942 1.363 . S
N940 C942 1.356 . S
N940 H952 0.984 . S
N940 H953 0.985 . S
N941 C943 1.356 . S
N941 H946 0.984 . S
N941 H947 0.985 . S
C942 C936 1.379 . S
C942 C939 1.363 . S
C942 N940 1.356 . S
C943 C937 1.363 . S
C943 C938 1.379 . S
C943 N941 1.356 . S
N944 C936 1.356 . S
N944 H950 0.984 . S
N944 H951 0.984 . S
N945 C938 1.356 . S
N945 H948 0.984 . S
N945 H949 0.985 . S
H946 N941 0.984 . S
H947 N941 0.985 . S
H948 N945 0.984 . S
H949 N945 0.985 . S
H950 N944 0.984 . S
H951 N944 0.984 . S
H952 N940 0.984 . S
H953 N940 0.985 . S
C954 C955 1.363 . S
C954 C960 1.379 . S
C954 N962 1.356 . S
C955 C954 1.363 . S
C955 C961 1.363 . S
C956 C957 1.363 1_545 S
C956 C961 1.379 . S
C956 N963 1.356 1_545 S
C957 C956 1.363 1_565 S
C957 C960 1.363 1_565 S
N958 C960 1.357 1_565 S
N958 H970 0.985 1_565 S
N958 H971 0.984 . S
N959 C961 1.356 . S
N959 H964 0.984 . S
N959 H965 0.985 . S
C960 C954 1.379 . S
C960 C957 1.363 1_545 S
C960 N958 1.357 1_545 S
C961 C955 1.363 . S
C961 C956 1.379 . S
C961 N959 1.356 . S
N962 C954 1.356 . S
N962 H968 0.984 . S
N962 H969 0.984 . S
N963 C956 1.356 1_565 S
N963 H966 0.984 . S
N963 H967 0.985 . S
H964 N959 0.984 . S
H965 N959 0.985 . S
H966 N963 0.984 . S
H967 N963 0.985 . S
H968 N962 0.984 . S
H969 N962 0.984 . S
H970 N958 0.985 1_545 S
H971 N958 0.984 . S
C972 C973 1.363 . S
C972 C978 1.379 . S
C972 N980 1.356 . S
C973 C972 1.363 . S
C973 C979 1.363 . S
C974 C975 1.363 . S
C974 C979 1.379 . S
C974 N981 1.356 . S
C975 C974 1.363 . S
C975 C978 1.363 . S
N976 C978 1.356 . S
N976 H988 0.984 . S
N976 H989 0.985 . S
N977 C979 1.356 . S
N977 H982 0.984 . S
N977 H983 0.985 . S
C978 C972 1.379 . S
C978 C975 1.363 . S
C978 N976 1.356 . S
C979 C973 1.363 . S
C979 C974 1.379 . S
C979 N977 1.356 . S
N980 C972 1.356 . S
N980 H986 0.984 . S
N980 H987 0.984 . S
N981 C974 1.356 . S
N981 H984 0.984 . S
N981 H985 0.985 . S
H982 N977 0.984 . S
H983 N977 0.985 . S
H984 N981 0.984 . S
H985 N981 0.985 . S
H986 N980 0.984 . S
H987 N980 0.984 . S
H988 N976 0.984 . S
H989 N976 0.985 . S
C990 C991 1.363 . S
C990 C996 1.379 . S
C990 N998 1.356 . S
C991 C990 1.363 . S
C991 C997 1.363 . S
C992 C993 1.363 . S
C992 C997 1.379 . S
C992 N999 1.356 . S
C993 C992 1.363 . S
C993 C996 1.363 . S
N994 C996 1.356 . S
N994 H1006 0.984 . S
N994 H1007 0.985 . S
N995 C997 1.356 . S
N995 H1000 0.984 . S
N995 H1001 0.985 . S
C996 C990 1.379 . S
C996 C993 1.363 . S
C996 N994 1.356 . S
C997 C991 1.363 . S
C997 C992 1.379 . S
C997 N995 1.356 . S
N998 C990 1.356 . S
N998 H1004 0.984 . S
N998 H1005 0.984 . S
N999 C992 1.356 . S
N999 H1002 0.984 . S
N999 H1003 0.985 . S
H1000 N995 0.984 . S
H1001 N995 0.985 . S
H1002 N999 0.984 . S
H1003 N999 0.985 . S
H1004 N998 0.984 . S
H1005 N998 0.984 . S
H1006 N994 0.984 . S
H1007 N994 0.985 . S
C1008 C1009 1.363 . S
C1008 C1014 1.379 . S
C1008 N1016 1.356 . S
C1009 C1008 1.363 . S
C1009 C1015 1.363 . S
C1010 C1011 1.363 . S
C1010 C1015 1.379 . S
C1010 N1017 1.356 . S
C1011 C1010 1.363 . S
C1011 C1014 1.363 . S
N1012 C1014 1.356 . S
N1012 H1024 0.984 . S
N1012 H1025 0.985 . S
N1013 C1015 1.356 . S
N1013 H1018 0.984 . S
N1013 H1019 0.985 . S
C1014 C1008 1.379 . S
C1014 C1011 1.363 . S
C1014 N1012 1.356 . S
C1015 C1009 1.363 . S
C1015 C1010 1.379 . S
C1015 N1013 1.356 . S
N1016 C1008 1.356 . S
N1016 H1022 0.984 . S
N1016 H1023 0.984 . S
N1017 C1010 1.356 . S
N1017 H1020 0.984 . S
N1017 H1021 0.985 . S
H1018 N1013 0.984 . S
H1019 N1013 0.985 . S
H1020 N1017 0.984 . S
H1021 N1017 0.985 . S
H1022 N1016 0.984 . S
H1023 N1016 0.984 . S
H1024 N1012 0.984 . S
H1025 N1012 0.985 . S
C1026 C1027 1.363 . S
C1026 C1032 1.379 . S
C1026 N1034 1.356 . S
C1027 C1026 1.363 . S
C1027 C1033 1.363 . S
C1028 C1029 1.363 . S
C1028 C1033 1.379 . S
C1028 N1035 1.356 . S
C1029 C1028 1.363 . S
C1029 C1032 1.363 . S
N1030 C1032 1.356 . S
N1030 H1042 0.984 . S
N1030 H1043 0.985 . S
N1031 C1033 1.356 . S
N1031 H1036 0.984 . S
N1031 H1037 0.985 . S
C1032 C1026 1.379 . S
C1032 C1029 1.363 . S
C1032 N1030 1.356 . S
C1033 C1027 1.363 . S
C1033 C1028 1.379 . S
C1033 N1031 1.356 . S
N1034 C1026 1.356 . S
N1034 H1040 0.984 . S
N1034 H1041 0.984 . S
N1035 C1028 1.356 . S
N1035 H1038 0.984 . S
N1035 H1039 0.985 . S
H1036 N1031 0.984 . S
H1037 N1031 0.985 . S
H1038 N1035 0.984 . S
H1039 N1035 0.985 . S
H1040 N1034 0.984 . S
H1041 N1034 0.984 . S
H1042 N1030 0.984 . S
H1043 N1030 0.985 . S
C1044 C1045 1.363 . S
C1044 C1050 1.379 . S
C1044 N1052 1.356 . S
C1045 C1044 1.363 . S
C1045 C1051 1.363 . S
C1046 C1047 1.363 . S
C1046 C1051 1.379 . S
C1046 N1053 1.356 . S
C1047 C1046 1.363 . S
C1047 C1050 1.363 . S
N1048 C1050 1.356 . S
N1048 H1060 0.984 . S
N1048 H1061 0.985 . S
N1049 C1051 1.356 . S
N1049 H1054 0.984 . S
N1049 H1055 0.985 . S
C1050 C1044 1.379 . S
C1050 C1047 1.363 . S
C1050 N1048 1.356 . S
C1051 C1045 1.363 . S
C1051 C1046 1.379 . S
C1051 N1049 1.356 . S
N1052 C1044 1.356 . S
N1052 H1058 0.984 . S
N1052 H1059 0.984 . S
N1053 C1046 1.356 . S
N1053 H1056 0.984 . S
N1053 H1057 0.985 . S
H1054 N1049 0.984 . S
H1055 N1049 0.985 . S
H1056 N1053 0.984 . S
H1057 N1053 0.985 . S
H1058 N1052 0.984 . S
H1059 N1052 0.984 . S
H1060 N1048 0.984 . S
H1061 N1048 0.985 . S
C1062 C1063 1.363 . S
C1062 C1068 1.379 . S
C1062 N1070 1.356 . S
C1063 C1062 1.363 . S
C1063 C1069 1.363 . S
C1064 C1065 1.363 . S
C1064 C1069 1.379 . S
C1064 N1071 1.356 . S
C1065 C1064 1.363 . S
C1065 C1068 1.363 . S
N1066 C1068 1.356 . S
N1066 H1078 0.984 . S
N1066 H1079 0.985 . S
N1067 C1069 1.356 . S
N1067 H1072 0.984 . S
N1067 H1073 0.985 . S
C1068 C1062 1.379 . S
C1068 C1065 1.363 . S
C1068 N1066 1.356 . S
C1069 C1063 1.363 . S
C1069 C1064 1.379 . S
C1069 N1067 1.356 . S
N1070 C1062 1.356 . S
N1070 H1076 0.984 . S
N1070 H1077 0.984 . S
N1071 C1064 1.356 . S
N1071 H1074 0.984 . S
N1071 H1075 0.985 . S
H1072 N1067 0.984 . S
H1073 N1067 0.985 . S
H1074 N1071 0.984 . S
H1075 N1071 0.985 . S
H1076 N1070 0.984 . S
H1077 N1070 0.984 . S
H1078 N1066 0.984 . S
H1079 N1066 0.985 . S
C1080 C1081 1.363 . S
C1080 C1086 1.379 . S
C1080 N1088 1.356 . S
C1081 C1080 1.363 . S
C1081 C1087 1.363 . S
C1082 C1083 1.363 . S
C1082 C1087 1.379 . S
C1082 N1089 1.356 . S
C1083 C1082 1.363 . S
C1083 C1086 1.363 . S
N1084 C1086 1.356 . S
N1084 H1096 0.984 . S
N1084 H1097 0.985 . S
N1085 C1087 1.356 . S
N1085 H1090 0.967 1_565 S
N1085 H1091 0.985 . S
C1086 C1080 1.379 . S
C1086 C1083 1.363 . S
C1086 N1084 1.356 . S
C1087 C1081 1.363 . S
C1087 C1082 1.379 . S
C1087 N1085 1.356 . S
N1088 C1080 1.356 . S
N1088 H1094 0.984 . S
N1088 H1095 0.984 1_565 S
N1089 C1082 1.356 . S
N1089 H1092 0.984 . S
N1089 H1093 0.985 . S
H1090 N1085 0.967 1_545 S
H1091 N1085 0.985 . S
H1092 N1089 0.984 . S
H1093 N1089 0.985 . S
H1094 N1088 0.984 . S
H1095 N1088 0.984 1_545 S
H1096 N1084 0.984 . S
H1097 N1084 0.985 . S
C1098 C1099 1.363 . S
C1098 C1104 1.379 . S
C1098 N1106 1.356 . S
C1099 C1098 1.363 . S
C1099 C1105 1.363 . S
C1100 C1101 1.363 . S
C1100 C1105 1.379 . S
C1100 N1107 1.356 . S
C1101 C1100 1.363 . S
C1101 C1104 1.363 . S
N1102 C1104 1.356 . S
N1102 H1114 0.984 . S
N1102 H1115 0.985 . S
N1103 C1105 1.356 . S
N1103 H1108 0.984 . S
N1103 H1109 0.985 . S
C1104 C1098 1.379 . S
C1104 C1101 1.363 . S
C1104 N1102 1.356 . S
C1105 C1099 1.363 . S
C1105 C1100 1.379 . S
C1105 N1103 1.356 . S
N1106 C1098 1.356 . S
N1106 H1112 0.984 . S
N1106 H1113 0.984 . S
N1107 C1100 1.356 . S
N1107 H1110 0.984 . S
N1107 H1111 0.985 . S
H1108 N1103 0.984 . S
H1109 N1103 0.985 . S
H1110 N1107 0.984 . S
H1111 N1107 0.985 . S
H1112 N1106 0.984 . S
H1113 N1106 0.984 . S
H1114 N1102 0.984 . S
H1115 N1102 0.985 . S
C1116 C1117 1.363 . S
C1116 C1122 1.379 . S
C1116 N1124 1.356 . S
C1117 C1116 1.363 . S
C1117 C1123 1.363 . S
C1118 C1119 1.363 . S
C1118 C1123 1.379 . S
C1118 N1125 1.356 . S
C1119 C1118 1.363 . S
C1119 C1122 1.363 . S
N1120 C1122 1.356 . S
N1120 H1132 0.984 . S
N1120 H1133 0.985 . S
N1121 C1123 1.356 . S
N1121 H1126 0.984 . S
N1121 H1127 0.985 . S
C1122 C1116 1.379 . S
C1122 C1119 1.363 . S
C1122 N1120 1.356 . S
C1123 C1117 1.363 . S
C1123 C1118 1.379 . S
C1123 N1121 1.356 . S
N1124 C1116 1.356 . S
N1124 H1130 0.984 . S
N1124 H1131 0.984 . S
N1125 C1118 1.356 . S
N1125 H1128 0.984 . S
N1125 H1129 0.985 . S
H1126 N1121 0.984 . S
H1127 N1121 0.985 . S
H1128 N1125 0.984 . S
H1129 N1125 0.985 . S
H1130 N1124 0.984 . S
H1131 N1124 0.984 . S
H1132 N1120 0.984 . S
H1133 N1120 0.985 . S
C1134 C1135 1.363 . S
C1134 C1140 1.379 . S
C1134 N1142 1.356 . S
C1135 C1134 1.363 . S
C1135 C1141 1.363 . S
C1136 C1137 1.363 . S
C1136 C1141 1.379 . S
C1136 N1143 1.356 . S
C1137 C1136 1.363 . S
C1137 C1140 1.363 . S
N1138 C1140 1.356 . S
N1138 H1150 0.984 . S
N1138 H1151 0.985 . S
N1139 C1141 1.356 . S
N1139 H1144 0.984 . S
N1139 H1145 0.985 . S
C1140 C1134 1.379 . S
C1140 C1137 1.363 . S
C1140 N1138 1.356 . S
C1141 C1135 1.363 . S
C1141 C1136 1.379 . S
C1141 N1139 1.356 . S
N1142 C1134 1.356 . S
N1142 H1148 0.984 . S
N1142 H1149 0.984 . S
N1143 C1136 1.356 . S
N1143 H1146 0.984 . S
N1143 H1147 0.985 . S
H1144 N1139 0.984 . S
H1145 N1139 0.985 . S
H1146 N1143 0.984 . S
H1147 N1143 0.985 . S
H1148 N1142 0.984 . S
H1149 N1142 0.984 . S
H1150 N1138 0.984 . S
H1151 N1138 0.985 . S
C1152 C1153 1.363 . S
C1152 C1158 1.379 . S
C1152 N1160 1.356 . S
C1153 C1152 1.363 . S
C1153 C1159 1.363 . S
C1154 C1155 1.363 . S
C1154 C1159 1.379 . S
C1154 N1161 1.356 . S
C1155 C1154 1.363 . S
C1155 C1158 1.363 . S
N1156 C1158 1.356 . S
N1156 H1168 0.984 . S
N1156 H1169 0.985 . S
N1157 C1159 1.356 . S
N1157 H1162 0.984 . S
N1157 H1163 0.985 . S
C1158 C1152 1.379 . S
C1158 C1155 1.363 . S
C1158 N1156 1.356 . S
C1159 C1153 1.363 . S
C1159 C1154 1.379 . S
C1159 N1157 1.356 . S
N1160 C1152 1.356 . S
N1160 H1166 0.984 . S
N1160 H1167 0.984 . S
N1161 C1154 1.356 . S
N1161 H1164 0.984 . S
N1161 H1165 0.985 . S
H1162 N1157 0.984 . S
H1163 N1157 0.985 . S
H1164 N1161 0.984 . S
H1165 N1161 0.985 . S
H1166 N1160 0.984 . S
H1167 N1160 0.984 . S
H1168 N1156 0.984 . S
H1169 N1156 0.985 . S
C1170 C1171 1.363 . S
C1170 C1176 1.379 . S
C1170 N1178 1.356 . S
C1171 C1170 1.363 . S
C1171 C1177 1.363 . S
C1172 C1173 1.363 . S
C1172 C1177 1.379 . S
C1172 N1179 1.356 . S
C1173 C1172 1.363 . S
C1173 C1176 1.363 . S
N1174 C1176 1.356 . S
N1174 H1186 0.984 . S
N1174 H1187 0.985 . S
N1175 C1177 1.356 . S
N1175 H1180 0.984 . S
N1175 H1181 0.985 . S
C1176 C1170 1.379 . S
C1176 C1173 1.363 . S
C1176 N1174 1.356 . S
C1177 C1171 1.363 . S
C1177 C1172 1.379 . S
C1177 N1175 1.356 . S
N1178 C1170 1.356 . S
N1178 H1184 0.984 . S
N1178 H1185 0.984 . S
N1179 C1172 1.356 . S
N1179 H1182 0.984 . S
N1179 H1183 0.985 . S
H1180 N1175 0.984 . S
H1181 N1175 0.985 . S
H1182 N1179 0.984 . S
H1183 N1179 0.985 . S
H1184 N1178 0.984 . S
H1185 N1178 0.984 . S
H1186 N1174 0.984 . S
H1187 N1174 0.985 . S
C1188 C1189 1.363 . S
C1188 C1194 1.379 . S
C1188 N1196 1.356 . S
C1189 C1188 1.363 . S
C1189 C1195 1.363 . S
C1190 C1191 1.363 . S
C1190 C1195 1.379 1_545 S
C1190 N1197 1.356 . S
C1191 C1190 1.363 . S
C1191 C1194 1.363 1_545 S
N1192 C1194 1.356 1_545 S
N1192 H1204 0.984 . S
N1192 H1205 0.985 . S
N1193 C1195 1.356 . S
N1193 H1198 0.984 . S
N1193 H1199 0.985 . S
C1194 C1188 1.379 . S
C1194 C1191 1.363 1_565 S
C1194 N1192 1.356 1_565 S
C1195 C1189 1.363 . S
C1195 C1190 1.379 1_565 S
C1195 N1193 1.356 . S
N1196 C1188 1.356 . S
N1196 H1202 0.984 . S
N1196 H1203 0.984 . S
N1197 C1190 1.356 . S
N1197 H1200 0.984 . S
N1197 H1201 0.985 . S
H1198 N1193 0.984 . S
H1199 N1193 0.985 . S
H1200 N1197 0.984 . S
H1201 N1197 0.985 . S
H1202 N1196 0.984 . S
H1203 N1196 0.984 . S
H1204 N1192 0.984 . S
H1205 N1192 0.985 . S
C1206 C1207 1.376 . S
C1206 C1212 1.362 1_455 S
C1206 N1214 1.366 . S
C1207 C1206 1.376 . S
C1207 C1213 1.363 . S
C1208 C1209 1.363 1_455 S
C1208 C1213 1.379 . S
C1208 N1215 1.356 . S
C1209 C1208 1.363 1_655 S
C1209 C1212 1.363 . S
N1210 C1212 1.356 . S
N1210 H1222 0.984 . S
N1210 H1223 0.985 . S
N1211 C1213 1.356 . S
N1211 H1216 0.984 . S
N1211 H1217 0.985 . S
C1212 C1206 1.362 1_655 S
C1212 C1209 1.363 . S
C1212 N1210 1.356 . S
C1213 C1207 1.363 . S
C1213 C1208 1.379 . S
C1213 N1211 1.356 . S
N1214 C1206 1.366 . S
N1214 H1220 0.984 1_455 S
N1214 H1221 0.984 . S
N1215 C1208 1.356 . S
N1215 H1218 0.984 1_455 S
N1215 H1219 0.985 . S
H1216 N1211 0.984 . S
H1217 N1211 0.985 . S
H1218 N1215 0.984 1_655 S
H1219 N1215 0.985 . S
H1220 N1214 0.984 1_655 S
H1221 N1214 0.984 . S
H1222 N1210 0.984 . S
H1223 N1210 0.985 . S
C1224 C1225 1.363 . S
C1224 C1230 1.379 . S
C1224 N1232 1.356 . S
C1225 C1224 1.363 . S
C1225 C1231 1.363 . S
C1226 C1227 1.363 . S
C1226 C1231 1.379 . S
C1226 N1233 1.356 . S
C1227 C1226 1.363 . S
C1227 C1230 1.363 . S
N1228 C1230 1.356 . S
N1228 H1240 0.984 . S
N1228 H1241 0.985 . S
N1229 C1231 1.356 . S
N1229 H1234 0.984 . S
N1229 H1235 0.985 . S
C1230 C1224 1.379 . S
C1230 C1227 1.363 . S
C1230 N1228 1.356 . S
C1231 C1225 1.363 . S
C1231 C1226 1.379 . S
C1231 N1229 1.356 . S
N1232 C1224 1.356 . S
N1232 H1238 0.984 . S
N1232 H1239 0.984 . S
N1233 C1226 1.356 . S
N1233 H1236 0.984 . S
N1233 H1237 0.985 . S
H1234 N1229 0.984 . S
H1235 N1229 0.985 . S
H1236 N1233 0.984 . S
H1237 N1233 0.985 . S
H1238 N1232 0.984 . S
H1239 N1232 0.984 . S
H1240 N1228 0.984 . S
H1241 N1228 0.985 . S
C1242 C1243 1.363 . S
C1242 C1248 1.379 . S
C1242 N1250 1.356 . S
C1243 C1242 1.363 . S
C1243 C1249 1.363 . S
C1244 C1245 1.363 . S
C1244 C1249 1.379 . S
C1244 N1251 1.356 . S
C1245 C1244 1.363 . S
C1245 C1248 1.363 . S
N1246 C1248 1.356 . S
N1246 H1258 0.984 . S
N1246 H1259 0.985 . S
N1247 C1249 1.356 . S
N1247 H1252 0.984 1_655 S
N1247 H1253 0.985 . S
C1248 C1242 1.379 . S
C1248 C1245 1.363 . S
C1248 N1246 1.356 . S
C1249 C1243 1.363 . S
C1249 C1244 1.379 . S
C1249 N1247 1.356 . S
N1250 C1242 1.356 . S
N1250 H1256 0.984 . S
N1250 H1257 0.984 1_655 S
N1251 C1244 1.356 . S
N1251 H1254 0.984 . S
N1251 H1255 0.985 . S
H1252 N1247 0.984 1_455 S
H1253 N1247 0.985 . S
H1254 N1251 0.984 . S
H1255 N1251 0.985 . S
H1256 N1250 0.984 . S
H1257 N1250 0.984 1_455 S
H1258 N1246 0.984 . S
H1259 N1246 0.985 . S
C1260 C1261 1.363 . S
C1260 C1266 1.379 . S
C1260 N1268 1.356 . S
C1261 C1260 1.363 . S
C1261 C1267 1.363 . S
C1262 C1263 1.363 . S
C1262 C1267 1.379 . S
C1262 N1269 1.356 . S
C1263 C1262 1.363 . S
C1263 C1266 1.363 . S
N1264 C1266 1.356 . S
N1264 H1276 0.984 . S
N1264 H1277 0.985 . S
N1265 C1267 1.356 . S
N1265 H1270 0.984 . S
N1265 H1271 0.985 . S
C1266 C1260 1.379 . S
C1266 C1263 1.363 . S
C1266 N1264 1.356 . S
C1267 C1261 1.363 . S
C1267 C1262 1.379 . S
C1267 N1265 1.356 . S
N1268 C1260 1.356 . S
N1268 H1274 0.984 . S
N1268 H1275 0.984 . S
N1269 C1262 1.356 . S
N1269 H1272 0.984 . S
N1269 H1273 0.985 . S
H1270 N1265 0.984 . S
H1271 N1265 0.985 . S
H1272 N1269 0.984 . S
H1273 N1269 0.985 . S
H1274 N1268 0.984 . S
H1275 N1268 0.984 . S
H1276 N1264 0.984 . S
H1277 N1264 0.985 . S
C1278 C1279 1.363 . S
C1278 C1284 1.379 . S
C1278 N1286 1.356 . S
C1279 C1278 1.363 . S
C1279 C1285 1.363 . S
C1280 C1281 1.363 . S
C1280 C1285 1.379 . S
C1280 N1287 1.356 . S
C1281 C1280 1.363 . S
C1281 C1284 1.363 . S
N1282 C1284 1.356 . S
N1282 H1294 0.984 . S
N1282 H1295 0.985 . S
N1283 C1285 1.356 . S
N1283 H1288 0.984 1_545 S
N1283 H1289 0.985 . S
C1284 C1278 1.379 . S
C1284 C1281 1.363 . S
C1284 N1282 1.356 . S
C1285 C1279 1.363 . S
C1285 C1280 1.379 . S
C1285 N1283 1.356 . S
N1286 C1278 1.356 . S
N1286 H1292 0.984 . S
N1286 H1293 0.984 . S
N1287 C1280 1.356 . S
N1287 H1290 0.984 . S
N1287 H1291 0.985 . S
H1288 N1283 0.984 1_565 S
H1289 N1283 0.985 . S
H1290 N1287 0.984 . S
H1291 N1287 0.985 . S
H1292 N1286 0.984 . S
H1293 N1286 0.984 . S
H1294 N1282 0.984 . S
H1295 N1282 0.985 . S
C1296 C1297 1.363 . S
C1296 C1302 1.379 . S
C1296 N1304 1.356 . S
C1297 C1296 1.363 . S
C1297 C1303 1.363 . S
C1298 C1299 1.363 . S
C1298 C1303 1.379 . S
C1298 N1305 1.356 . S
C1299 C1298 1.363 . S
C1299 C1302 1.363 . S
N1300 C1302 1.356 . S
N1300 H1312 0.984 . S
N1300 H1313 0.985 . S
N1301 C1303 1.356 . S
N1301 H1306 0.984 . S
N1301 H1307 0.985 . S
C1302 C1296 1.379 . S
C1302 C1299 1.363 . S
C1302 N1300 1.356 . S
C1303 C1297 1.363 . S
C1303 C1298 1.379 . S
C1303 N1301 1.356 . S
N1304 C1296 1.356 . S
N1304 H1310 0.984 . S
N1304 H1311 0.984 . S
N1305 C1298 1.356 . S
N1305 H1308 0.984 . S
N1305 H1309 0.985 . S
H1306 N1301 0.984 . S
H1307 N1301 0.985 . S
H1308 N1305 0.984 . S
H1309 N1305 0.985 . S
H1310 N1304 0.984 . S
H1311 N1304 0.984 . S
H1312 N1300 0.984 . S
H1313 N1300 0.985 . S
C1314 C1315 1.363 . S
C1314 C1320 1.379 . S
C1314 N1322 1.356 . S
C1315 C1314 1.363 . S
C1315 C1321 1.363 . S
C1316 C1317 1.363 . S
C1316 C1321 1.379 . S
C1316 N1323 1.356 . S
C1317 C1316 1.363 . S
C1317 C1320 1.363 . S
N1318 C1320 1.356 . S
N1318 H1330 0.984 . S
N1318 H1331 0.985 . S
N1319 C1321 1.356 . S
N1319 H1324 0.984 . S
N1319 H1325 0.985 . S
C1320 C1314 1.379 . S
C1320 C1317 1.363 . S
C1320 N1318 1.356 . S
C1321 C1315 1.363 . S
C1321 C1316 1.379 . S
C1321 N1319 1.356 . S
N1322 C1314 1.356 . S
N1322 H1328 0.984 . S
N1322 H1329 0.984 . S
N1323 C1316 1.356 . S
N1323 H1326 0.984 . S
N1323 H1327 0.985 . S
H1324 N1319 0.984 . S
H1325 N1319 0.985 . S
H1326 N1323 0.984 . S
H1327 N1323 0.985 . S
H1328 N1322 0.984 . S
H1329 N1322 0.984 . S
H1330 N1318 0.984 . S
H1331 N1318 0.985 . S
C1332 C1333 1.363 . S
C1332 C1338 1.379 . S
C1332 N1340 1.356 . S
C1333 C1332 1.363 . S
C1333 C1339 1.363 . S
C1334 C1335 1.363 . S
C1334 C1339 1.379 . S
C1334 N1341 1.356 . S
C1335 C1334 1.363 . S
C1335 C1338 1.363 . S
N1336 C1338 1.356 . S
N1336 H1348 0.984 . S
N1336 H1349 0.985 . S
N1337 C1339 1.356 . S
N1337 H1342 0.984 . S
N1337 H1343 0.985 . S
C1338 C1332 1.379 . S
C1338 C1335 1.363 . S
C1338 N1336 1.356 . S
C1339 C1333 1.363 . S
C1339 C1334 1.379 . S
C1339 N1337 1.356 . S
N1340 C1332 1.356 . S
N1340 H1346 0.984 . S
N1340 H1347 0.984 . S
N1341 C1334 1.356 . S
N1341 H1344 0.984 . S
N1341 H1345 0.985 . S
H1342 N1337 0.984 . S
H1343 N1337 0.985 . S
H1344 N1341 0.984 . S
H1345 N1341 0.985 . S
H1346 N1340 0.984 . S
H1347 N1340 0.984 . S
H1348 N1336 0.984 . S
H1349 N1336 0.985 . S
C1350 C1351 1.363 . S
C1350 C1356 1.379 . S
C1350 N1358 1.356 . S
C1351 C1350 1.363 . S
C1351 C1357 1.363 . S
C1352 C1353 1.363 . S
C1352 C1357 1.379 . S
C1352 N1359 1.356 . S
C1353 C1352 1.363 . S
C1353 C1356 1.363 . S
N1354 C1356 1.356 . S
N1354 H1366 0.984 . S
N1354 H1367 0.985 . S
N1355 C1357 1.356 . S
N1355 H1360 0.984 . S
N1355 H1361 0.985 . S
C1356 C1350 1.379 . S
C1356 C1353 1.363 . S
C1356 N1354 1.356 . S
C1357 C1351 1.363 . S
C1357 C1352 1.379 . S
C1357 N1355 1.356 . S
N1358 C1350 1.356 . S
N1358 H1364 0.984 . S
N1358 H1365 0.984 . S
N1359 C1352 1.356 . S
N1359 H1362 0.984 . S
N1359 H1363 0.985 1_565 S
H1360 N1355 0.984 . S
H1361 N1355 0.985 . S
H1362 N1359 0.984 . S
H1363 N1359 0.985 1_545 S
H1364 N1358 0.984 . S
H1365 N1358 0.984 . S
H1366 N1354 0.984 . S
H1367 N1354 0.985 . S
C1368 C1369 1.363 . S
C1368 C1374 1.379 . S
C1368 N1376 1.356 . S
C1369 C1368 1.363 . S
C1369 C1375 1.363 . S
C1370 C1371 1.363 . S
C1370 C1375 1.379 . S
C1370 N1377 1.356 . S
C1371 C1370 1.363 . S
C1371 C1374 1.363 . S
N1372 C1374 1.356 . S
N1372 H1384 0.984 . S
N1372 H1385 0.985 . S
N1373 C1375 1.356 . S
N1373 H1378 0.984 . S
N1373 H1379 0.985 . S
C1374 C1368 1.379 . S
C1374 C1371 1.363 . S
C1374 N1372 1.356 . S
C1375 C1369 1.363 . S
C1375 C1370 1.379 . S
C1375 N1373 1.356 . S
N1376 C1368 1.356 . S
N1376 H1382 0.984 . S
N1376 H1383 0.984 . S
N1377 C1370 1.356 . S
N1377 H1380 0.984 . S
N1377 H1381 0.985 . S
H1378 N1373 0.984 . S
H1379 N1373 0.985 . S
H1380 N1377 0.984 . S
H1381 N1377 0.985 . S
H1382 N1376 0.984 . S
H1383 N1376 0.984 . S
H1384 N1372 0.984 . S
H1385 N1372 0.985 . S
C1386 C1387 1.363 . S
C1386 C1392 1.379 . S
C1386 N1394 1.356 . S
C1387 C1386 1.363 . S
C1387 C1393 1.363 . S
C1388 C1389 1.363 . S
C1388 C1393 1.379 . S
C1388 N1395 1.356 . S
C1389 C1388 1.363 . S
C1389 C1392 1.363 . S
N1390 C1392 1.356 . S
N1390 H1402 0.984 . S
N1390 H1403 0.985 . S
N1391 C1393 1.356 . S
N1391 H1396 0.984 . S
N1391 H1397 0.985 . S
C1392 C1386 1.379 . S
C1392 C1389 1.363 . S
C1392 N1390 1.356 . S
C1393 C1387 1.363 . S
C1393 C1388 1.379 . S
C1393 N1391 1.356 . S
N1394 C1386 1.356 . S
N1394 H1400 0.984 . S
N1394 H1401 0.984 . S
N1395 C1388 1.356 . S
N1395 H1398 0.984 . S
N1395 H1399 0.985 . S
H1396 N1391 0.984 . S
H1397 N1391 0.985 . S
H1398 N1395 0.984 . S
H1399 N1395 0.985 . S
H1400 N1394 0.984 . S
H1401 N1394 0.984 . S
H1402 N1390 0.984 . S
H1403 N1390 0.985 . S
C1404 C1405 1.363 . S
C1404 C1410 1.379 . S
C1404 N1412 1.356 . S
C1405 C1404 1.363 . S
C1405 C1411 1.363 . S
C1406 C1407 1.363 . S
C1406 C1411 1.379 . S
C1406 N1413 1.356 . S
C1407 C1406 1.363 . S
C1407 C1410 1.363 . S
N1408 C1410 1.356 . S
N1408 H1420 0.984 . S
N1408 H1421 0.985 . S
N1409 C1411 1.356 . S
N1409 H1414 0.984 . S
N1409 H1415 0.985 . S
C1410 C1404 1.379 . S
C1410 C1407 1.363 . S
C1410 N1408 1.356 . S
C1411 C1405 1.363 . S
C1411 C1406 1.379 . S
C1411 N1409 1.356 . S
N1412 C1404 1.356 . S
N1412 H1418 0.984 . S
N1412 H1419 0.984 . S
N1413 C1406 1.356 . S
N1413 H1416 0.984 . S
N1413 H1417 0.985 . S
H1414 N1409 0.984 . S
H1415 N1409 0.985 . S
H1416 N1413 0.984 . S
H1417 N1413 0.985 . S
H1418 N1412 0.984 . S
H1419 N1412 0.984 . S
H1420 N1408 0.984 . S
H1421 N1408 0.985 . S
C1422 C1423 1.363 . S
C1422 C1428 1.379 . S
C1422 N1430 1.356 . S
C1423 C1422 1.363 . S
C1423 C1429 1.363 . S
C1424 C1425 1.363 . S
C1424 C1429 1.379 . S
C1424 N1431 1.356 . S
C1425 C1424 1.363 . S
C1425 C1428 1.363 . S
N1426 C1428 1.356 . S
N1426 H1438 0.984 . S
N1426 H1439 0.985 . S
N1427 C1429 1.356 . S
N1427 H1432 0.984 . S
N1427 H1433 0.985 . S
C1428 C1422 1.379 . S
C1428 C1425 1.363 . S
C1428 N1426 1.356 . S
C1429 C1423 1.363 . S
C1429 C1424 1.379 . S
C1429 N1427 1.356 . S
N1430 C1422 1.356 . S
N1430 H1436 0.984 . S
N1430 H1437 0.984 . S
N1431 C1424 1.356 . S
N1431 H1434 0.984 . S
N1431 H1435 0.985 . S
H1432 N1427 0.984 . S
H1433 N1427 0.985 . S
H1434 N1431 0.984 . S
H1435 N1431 0.985 . S
H1436 N1430 0.984 . S
H1437 N1430 0.984 . S
H1438 N1426 0.984 . S
H1439 N1426 0.985 . S
C1440 C1441 1.363 . S
C1440 C1446 1.379 . S
C1440 N1448 1.356 . S
C1441 C1440 1.363 . S
C1441 C1447 1.363 . S
C1442 C1443 1.363 . S
C1442 C1447 1.379 . S
C1442 N1449 1.356 . S
C1443 C1442 1.363 . S
C1443 C1446 1.363 . S
N1444 C1446 1.356 . S
N1444 H1456 0.984 . S
N1444 H1457 0.985 . S
N1445 C1447 1.356 . S
N1445 H1450 0.984 . S
N1445 H1451 0.985 . S
C1446 C1440 1.379 . S
C1446 C1443 1.363 . S
C1446 N1444 1.356 . S
C1447 C1441 1.363 . S
C1447 C1442 1.379 . S
C1447 N1445 1.356 . S
N1448 C1440 1.356 . S
N1448 H1454 0.984 . S
N1448 H1455 0.984 . S
N1449 C1442 1.356 . S
N1449 H1452 0.984 . S
N1449 H1453 0.985 1_545 S
H1450 N1445 0.984 . S
H1451 N1445 0.985 . S
H1452 N1449 0.984 . S
H1453 N1449 0.985 1_565 S
H1454 N1448 0.984 . S
H1455 N1448 0.984 . S
H1456 N1444 0.984 . S
H1457 N1444 0.985 . S
C1458 C1459 1.363 . S
C1458 C1464 1.379 . S
C1458 N1466 1.356 . S
C1459 C1458 1.363 . S
C1459 C1465 1.363 . S
C1460 C1461 1.363 . S
C1460 C1465 1.379 . S
C1460 N1467 1.356 . S
C1461 C1460 1.363 . S
C1461 C1464 1.363 . S
N1462 C1464 1.356 . S
N1462 H1474 0.984 . S
N1462 H1475 0.985 . S
N1463 C1465 1.356 . S
N1463 H1468 0.984 . S
N1463 H1469 0.985 . S
C1464 C1458 1.379 . S
C1464 C1461 1.363 . S
C1464 N1462 1.356 . S
C1465 C1459 1.363 . S
C1465 C1460 1.379 . S
C1465 N1463 1.356 . S
N1466 C1458 1.356 . S
N1466 H1472 0.984 . S
N1466 H1473 0.984 . S
N1467 C1460 1.356 . S
N1467 H1470 0.984 . S
N1467 H1471 0.985 . S
H1468 N1463 0.984 . S
H1469 N1463 0.985 . S
H1470 N1467 0.984 . S
H1471 N1467 0.985 . S
H1472 N1466 0.984 . S
H1473 N1466 0.984 . S
H1474 N1462 0.984 . S
H1475 N1462 0.985 . S
C1476 C1477 1.363 . S
C1476 C1482 1.379 . S
C1476 N1484 1.356 . S
C1477 C1476 1.363 . S
C1477 C1483 1.363 . S
C1478 C1479 1.363 . S
C1478 C1483 1.379 . S
C1478 N1485 1.356 . S
C1479 C1478 1.363 . S
C1479 C1482 1.363 . S
N1480 C1482 1.356 . S
N1480 H1492 0.984 . S
N1480 H1493 0.985 . S
N1481 C1483 1.356 . S
N1481 H1486 0.984 . S
N1481 H1487 0.985 . S
C1482 C1476 1.379 . S
C1482 C1479 1.363 . S
C1482 N1480 1.356 . S
C1483 C1477 1.363 . S
C1483 C1478 1.379 . S
C1483 N1481 1.356 . S
N1484 C1476 1.356 . S
N1484 H1490 0.984 . S
N1484 H1491 0.984 . S
N1485 C1478 1.356 . S
N1485 H1488 0.984 . S
N1485 H1489 0.985 . S
H1486 N1481 0.984 . S
H1487 N1481 0.985 . S
H1488 N1485 0.984 . S
H1489 N1485 0.985 . S
H1490 N1484 0.984 . S
H1491 N1484 0.984 . S
H1492 N1480 0.984 . S
H1493 N1480 0.985 . S
C1494 C1495 1.363 . S
C1494 C1500 1.379 . S
C1494 N1502 1.356 . S
C1495 C1494 1.363 . S
C1495 C1501 1.363 . S
C1496 C1497 1.363 . S
C1496 C1501 1.379 . S
C1496 N1503 1.356 . S
C1497 C1496 1.363 . S
C1497 C1500 1.363 . S
N1498 C1500 1.356 . S
N1498 H1510 0.984 . S
N1498 H1511 0.985 . S
N1499 C1501 1.356 . S
N1499 H1504 0.984 . S
N1499 H1505 0.985 . S
C1500 C1494 1.379 . S
C1500 C1497 1.363 . S
C1500 N1498 1.356 . S
C1501 C1495 1.363 . S
C1501 C1496 1.379 . S
C1501 N1499 1.356 . S
N1502 C1494 1.356 . S
N1502 H1508 0.984 . S
N1502 H1509 0.984 . S
N1503 C1496 1.356 . S
N1503 H1506 0.984 . S
N1503 H1507 0.985 . S
H1504 N1499 0.984 . S
H1505 N1499 0.985 . S
H1506 N1503 0.984 . S
H1507 N1503 0.985 . S
H1508 N1502 0.984 . S
H1509 N1502 0.984 . S
H1510 N1498 0.984 . S
H1511 N1498 0.985 . S
C1512 C1513 1.363 . S
C1512 C1518 1.379 . S
C1512 N1520 1.356 . S
C1513 C1512 1.363 . S
C1513 C1519 1.363 . S
C1514 C1515 1.363 . S
C1514 C1519 1.379 . S
C1514 N1521 1.356 . S
C1515 C1514 1.363 . S
C1515 C1518 1.363 . S
N1516 C1518 1.356 . S
N1516 H1528 0.984 . S
N1516 H1529 0.985 . S
N1517 C1519 1.356 . S
N1517 H1522 0.984 . S
N1517 H1523 0.985 . S
C1518 C1512 1.379 . S
C1518 C1515 1.363 . S
C1518 N1516 1.356 . S
C1519 C1513 1.363 . S
C1519 C1514 1.379 . S
C1519 N1517 1.356 . S
N1520 C1512 1.356 . S
N1520 H1526 0.984 . S
N1520 H1527 0.984 . S
N1521 C1514 1.356 . S
N1521 H1524 0.984 . S
N1521 H1525 0.985 . S
H1522 N1517 0.984 . S
H1523 N1517 0.985 . S
H1524 N1521 0.984 . S
H1525 N1521 0.985 . S
H1526 N1520 0.984 . S
H1527 N1520 0.984 . S
H1528 N1516 0.984 . S
H1529 N1516 0.985 . S
C1530 C1531 1.363 . S
C1530 C1536 1.379 . S
C1530 N1538 1.356 . S
C1531 C1530 1.363 . S
C1531 C1537 1.363 . S
C1532 C1533 1.363 . S
C1532 C1537 1.379 . S
C1532 N1539 1.356 . S
C1533 C1532 1.363 . S
C1533 C1536 1.363 . S
N1534 C1536 1.356 . S
N1534 H1546 0.984 . S
N1534 H1547 0.985 . S
N1535 C1537 1.356 . S
N1535 H1540 0.984 . S
N1535 H1541 0.985 . S
C1536 C1530 1.379 . S
C1536 C1533 1.363 . S
C1536 N1534 1.356 . S
C1537 C1531 1.363 . S
C1537 C1532 1.379 . S
C1537 N1535 1.356 . S
N1538 C1530 1.356 . S
N1538 H1544 0.984 . S
N1538 H1545 0.984 . S
N1539 C1532 1.356 . S
N1539 H1542 0.984 . S
N1539 H1543 0.985 . S
H1540 N1535 0.984 . S
H1541 N1535 0.985 . S
H1542 N1539 0.984 . S
H1543 N1539 0.985 . S
H1544 N1538 0.984 . S
H1545 N1538 0.984 . S
H1546 N1534 0.984 . S
H1547 N1534 0.985 . S
C1548 C1549 1.363 . S
C1548 C1554 1.379 . S
C1548 N1556 1.356 . S
C1549 C1548 1.363 . S
C1549 C1555 1.363 . S
C1550 C1551 1.363 . S
C1550 C1555 1.379 . S
C1550 N1557 1.356 . S
C1551 C1550 1.363 . S
C1551 C1554 1.363 . S
N1552 C1554 1.356 . S
N1552 H1564 0.984 . S
N1552 H1565 0.985 . S
N1553 C1555 1.356 . S
N1553 H1558 0.984 . S
N1553 H1559 0.985 . S
C1554 C1548 1.379 . S
C1554 C1551 1.363 . S
C1554 N1552 1.356 . S
C1555 C1549 1.363 . S
C1555 C1550 1.379 . S
C1555 N1553 1.356 . S
N1556 C1548 1.356 . S
N1556 H1562 0.984 . S
N1556 H1563 0.984 . S
N1557 C1550 1.356 . S
N1557 H1560 0.984 . S
N1557 H1561 0.985 . S
H1558 N1553 0.984 . S
H1559 N1553 0.985 . S
H1560 N1557 0.984 . S
H1561 N1557 0.985 . S
H1562 N1556 0.984 . S
H1563 N1556 0.984 . S
H1564 N1552 0.984 . S
H1565 N1552 0.985 . S
C1566 C1567 1.363 . S
C1566 C1572 1.379 . S
C1566 N1574 1.356 . S
C1567 C1566 1.363 . S
C1567 C1573 1.363 . S
C1568 C1569 1.363 . S
C1568 C1573 1.379 . S
C1568 N1575 1.356 . S
C1569 C1568 1.363 . S
C1569 C1572 1.363 . S
N1570 C1572 1.356 . S
N1570 H1582 0.984 . S
N1570 H1583 0.985 . S
N1571 C1573 1.356 . S
N1571 H1576 0.984 . S
N1571 H1577 0.985 . S
C1572 C1566 1.379 . S
C1572 C1569 1.363 . S
C1572 N1570 1.356 . S
C1573 C1567 1.363 . S
C1573 C1568 1.379 . S
C1573 N1571 1.356 . S
N1574 C1566 1.356 . S
N1574 H1580 0.984 . S
N1574 H1581 0.984 . S
N1575 C1568 1.356 . S
N1575 H1578 0.984 . S
N1575 H1579 0.985 . S
H1576 N1571 0.984 . S
H1577 N1571 0.985 . S
H1578 N1575 0.984 . S
H1579 N1575 0.985 . S
H1580 N1574 0.984 . S
H1581 N1574 0.984 . S
H1582 N1570 0.984 . S
H1583 N1570 0.985 . S
C1584 C1585 1.363 . S
C1584 C1590 1.379 . S
C1584 N1592 1.356 . S
C1585 C1584 1.363 . S
C1585 C1591 1.363 . S
C1586 C1587 1.363 . S
C1586 C1591 1.379 . S
C1586 N1593 1.356 . S
C1587 C1586 1.363 . S
C1587 C1590 1.363 . S
N1588 C1590 1.356 . S
N1588 H1600 0.984 . S
N1588 H1601 0.985 . S
N1589 C1591 1.356 . S
N1589 H1594 0.984 . S
N1589 H1595 0.985 . S
C1590 C1584 1.379 . S
C1590 C1587 1.363 . S
C1590 N1588 1.356 . S
C1591 C1585 1.363 . S
C1591 C1586 1.379 . S
C1591 N1589 1.356 . S
N1592 C1584 1.356 . S
N1592 H1598 0.984 . S
N1592 H1599 0.984 . S
N1593 C1586 1.356 . S
N1593 H1596 0.984 . S
N1593 H1597 0.985 . S
H1594 N1589 0.984 . S
H1595 N1589 0.985 . S
H1596 N1593 0.984 . S
H1597 N1593 0.985 . S
H1598 N1592 0.984 . S
H1599 N1592 0.984 . S
H1600 N1588 0.984 . S
H1601 N1588 0.985 . S
C1602 C1603 1.363 . S
C1602 C1608 1.379 . S
C1602 N1610 1.356 . S
C1603 C1602 1.363 . S
C1603 C1609 1.363 . S
C1604 C1605 1.363 . S
C1604 C1609 1.379 . S
C1604 N1611 1.356 . S
C1605 C1604 1.363 . S
C1605 C1608 1.363 . S
N1606 C1608 1.356 . S
N1606 H1618 0.984 . S
N1606 H1619 0.985 . S
N1607 C1609 1.356 . S
N1607 H1612 0.984 . S
N1607 H1613 0.985 . S
C1608 C1602 1.379 . S
C1608 C1605 1.363 . S
C1608 N1606 1.356 . S
C1609 C1603 1.363 . S
C1609 C1604 1.379 . S
C1609 N1607 1.356 . S
N1610 C1602 1.356 . S
N1610 H1616 0.984 . S
N1610 H1617 0.984 . S
N1611 C1604 1.356 . S
N1611 H1614 0.984 . S
N1611 H1615 0.985 . S
H1612 N1607 0.984 . S
H1613 N1607 0.985 . S
H1614 N1611 0.984 . S
H1615 N1611 0.985 . S
H1616 N1610 0.984 . S
H1617 N1610 0.984 . S
H1618 N1606 0.984 . S
H1619 N1606 0.985 . S
C1620 C1621 1.363 . S
C1620 C1626 1.379 . S
C1620 N1628 1.356 . S
C1621 C1620 1.363 . S
C1621 C1627 1.363 . S
C1622 C1623 1.363 . S
C1622 C1627 1.379 . S
C1622 N1629 1.356 . S
C1623 C1622 1.363 . S
C1623 C1626 1.363 . S
N1624 C1626 1.356 . S
N1624 H1636 0.984 . S
N1624 H1637 0.985 . S
N1625 C1627 1.356 . S
N1625 H1630 0.984 . S
N1625 H1631 0.985 . S
C1626 C1620 1.379 . S
C1626 C1623 1.363 . S
C1626 N1624 1.356 . S
C1627 C1621 1.363 . S
C1627 C1622 1.379 . S
C1627 N1625 1.356 . S
N1628 C1620 1.356 . S
N1628 H1634 0.984 . S
N1628 H1635 0.984 . S
N1629 C1622 1.356 . S
N1629 H1632 0.984 . S
N1629 H1633 0.985 . S
H1630 N1625 0.984 . S
H1631 N1625 0.985 . S
H1632 N1629 0.984 . S
H1633 N1629 0.985 . S
H1634 N1628 0.984 . S
H1635 N1628 0.984 . S
H1636 N1624 0.984 . S
H1637 N1624 0.985 . S
C1638 C1639 1.363 . S
C1638 C1644 1.379 . S
C1638 N1646 1.356 . S
C1639 C1638 1.363 . S
C1639 C1645 1.363 . S
C1640 C1641 1.363 . S
C1640 C1645 1.379 . S
C1640 N1647 1.356 . S
C1641 C1640 1.363 . S
C1641 C1644 1.363 . S
N1642 C1644 1.356 . S
N1642 H1654 0.984 . S
N1642 H1655 0.985 . S
N1643 C1645 1.356 . S
N1643 H1648 0.984 . S
N1643 H1649 0.985 . S
C1644 C1638 1.379 . S
C1644 C1641 1.363 . S
C1644 N1642 1.356 . S
C1645 C1639 1.363 . S
C1645 C1640 1.379 . S
C1645 N1643 1.356 . S
N1646 C1638 1.356 . S
N1646 H1652 0.984 . S
N1646 H1653 0.984 . S
N1647 C1640 1.356 . S
N1647 H1650 0.984 . S
N1647 H1651 0.985 . S
H1648 N1643 0.984 . S
H1649 N1643 0.985 . S
H1650 N1647 0.984 . S
H1651 N1647 0.985 . S
H1652 N1646 0.984 . S
H1653 N1646 0.984 . S
H1654 N1642 0.984 . S
H1655 N1642 0.985 . S
C1656 C1657 1.363 . S
C1656 C1662 1.379 . S
C1656 N1664 1.356 . S
C1657 C1656 1.363 . S
C1657 C1663 1.363 . S
C1658 C1659 1.363 . S
C1658 C1663 1.379 . S
C1658 N1665 1.356 . S
C1659 C1658 1.363 . S
C1659 C1662 1.363 . S
N1660 C1662 1.356 . S
N1660 H1672 0.984 . S
N1660 H1673 0.985 . S
N1661 C1663 1.356 . S
N1661 H1666 0.984 . S
N1661 H1667 0.985 . S
C1662 C1656 1.379 . S
C1662 C1659 1.363 . S
C1662 N1660 1.356 . S
C1663 C1657 1.363 . S
C1663 C1658 1.379 . S
C1663 N1661 1.356 . S
N1664 C1656 1.356 . S
N1664 H1670 0.984 . S
N1664 H1671 0.984 . S
N1665 C1658 1.356 . S
N1665 H1668 0.984 . S
N1665 H1669 0.985 . S
H1666 N1661 0.984 . S
H1667 N1661 0.985 . S
H1668 N1665 0.984 . S
H1669 N1665 0.985 . S
H1670 N1664 0.984 . S
H1671 N1664 0.984 . S
H1672 N1660 0.984 . S
H1673 N1660 0.985 . S
C703 C253 1.707 . S
C705 C345 1.720 . S
C721 C272 1.806 . S
C723 C385 1.793 . S
C739 C234 1.605 . S
C741 C437 1.590 . S
C757 C215 1.500 . S
C759 C397 1.468 . S
C777 C425 1.578 . S
C775 C177 1.594 . S
C793 C196 1.435 . S
C795 C357 1.430 1_556 S
C813 C364 1.696 . S
C811 C220 1.512 . S
C831 C404 1.635 . S
C829 C182 1.540 . S
C847 C201 1.612 . S
C849 C424 1.725 . S
C865 C258 1.450 . S
C867 C384 1.557 . S
C883 C277 1.328 . S
C885 C444 1.481 . S
C903 C344 1.572 1_554 S
C901 C239 1.412 . S
C921 C465 1.719 . S
C919 C25 1.707 . S
C937 C44 1.806 . S
C939 C505 1.794 . S
C955 C6 1.605 . S
C957 C557 1.590 . S
C973 C329 1.500 . S
C975 C517 1.468 . S
C991 C291 1.594 . S
C993 C545 1.578 . S
C1009 C310 1.435 . S
C1011 C477 1.430 . S
C1027 C334 1.512 . S
C1029 C484 1.696 . S
C1045 C296 1.539 . S
C1047 C524 1.634 . S
C1065 C544 1.725 . S
C1063 C315 1.612 . S
C1081 C30 1.450 1_565 S
C1083 C504 1.558 . S
C1101 C564 1.481 . S
C1099 C49 1.328 . S
C1117 C11 1.412 . S
C1119 C464 1.574 . S
C1137 C585 1.720 . S
C1135 C139 1.707 . S
C1153 C158 1.806 . S
C1155 C625 1.794 . S
C1173 C677 1.590 . S
C1171 C120 1.605 . S
C1191 C637 1.468 . S
C1189 C101 1.500 . S
C1209 C665 1.578 . S
C1207 C63 1.594 . S
C1225 C82 1.435 . S
C1227 C597 1.430 . S
C1243 C106 1.512 1_655 S
C1245 C604 1.695 . S
C1261 C68 1.540 . S
C1263 C644 1.634 . S
C1281 C664 1.726 . S
C1279 C87 1.613 1_545 S
C1297 C144 1.450 . S
C1299 C624 1.557 . S
C1315 C163 1.328 . S
C1317 C684 1.481 . S
C1333 C125 1.412 . S
C1335 C584 1.574 . S
C1351 C287 1.686 . S
C1353 C368 1.650 . S
C1371 C408 2.004 . S
C1369 C306 2.051 . S
C1387 C325 1.627 . S
C1389 C431 1.665 . S
C1405 C116 1.805 . S
C1407 C391 1.816 . S
C1423 C135 1.796 . S
C1425 C448 1.771 . S
C1443 C351 1.398 . S
C1441 C154 1.371 . S
C1459 C59 1.686 . S
C1461 C488 1.650 . S
C1477 C78 2.052 . S
C1479 C528 2.004 . S
C1495 C97 1.627 . S
C1497 C551 1.665 . S
C1513 C230 1.805 . S
C1515 C511 1.815 . S
C1533 C568 1.771 . S
C1531 C249 1.797 . S
C1549 C268 1.371 . S
C1551 C471 1.398 . S
C1567 C173 1.685 . S
C1569 C608 1.650 . S
C1585 C192 2.051 . S
C1587 C648 2.004 . S
C1605 C671 1.665 . S
C1603 C211 1.627 . S
C1621 C2 1.805 . S
C1623 C631 1.815 . S
C1639 C21 1.796 . S
C1641 C688 1.771 . S
C1657 C40 1.371 . S
C1659 C591 1.399 . S
