# Generated by pormake.
# Topology anh, (6,3)-cn, num edge types: 1
# Building blocks:
#     Node 0, Type 0, BuildingBlock: BETDEL_clean_sbu_0, # of connection points: 6
#     Node 1, Type 0, BuildingBlock: BETDEL_clean_sbu_0, # of connection points: 6
#     Node 2, Type 0, BuildingBlock: BETDEL_clean_sbu_0, # of connection points: 6
#     Node 3, Type 1, BuildingBlock: PAMTOO_clean_linker_0, # of connection points: 3
#     Node 4, Type 1, BuildingBlock: PAMTOO_clean_linker_0, # of connection points: 3
#     Node 5, Type 1, BuildingBlock: PAMTOO_clean_linker_0, # of connection points: 3
#     Node 6, Type 1, BuildingBlock: PAMTOO_clean_linker_0, # of connection points: 3
#     Node 7, Type 1, BuildingBlock: PAMTOO_clean_linker_0, # of connection points: 3
#     Node 8, Type 1, BuildingBlock: PAMTOO_clean_linker_0, # of connection points: 3
#     Edge 9, Type (0, 1), BuildingBlock: XIVTED_clean_linker_0, # of connection points: 2
#     Edge 10, Type (0, 1), BuildingBlock: XIVTED_clean_linker_0, # of connection points: 2
#     Edge 11, Type (0, 1), BuildingBlock: XIVTED_clean_linker_0, # of connection points: 2
#     Edge 12, Type (0, 1), BuildingBlock: XIVTED_clean_linker_0, # of connection points: 2
#     Edge 13, Type (0, 1), BuildingBlock: XIVTED_clean_linker_0, # of connection points: 2
#     Edge 14, Type (0, 1), BuildingBlock: XIVTED_clean_linker_0, # of connection points: 2
#     Edge 15, Type (0, 1), BuildingBlock: XIVTED_clean_linker_0, # of connection points: 2
#     Edge 16, Type (0, 1), BuildingBlock: XIVTED_clean_linker_0, # of connection points: 2
#     Edge 17, Type (0, 1), BuildingBlock: XIVTED_clean_linker_0, # of connection points: 2
#     Edge 18, Type (0, 1), BuildingBlock: XIVTED_clean_linker_0, # of connection points: 2
#     Edge 19, Type (0, 1), BuildingBlock: XIVTED_clean_linker_0, # of connection points: 2
#     Edge 20, Type (0, 1), BuildingBlock: XIVTED_clean_linker_0, # of connection points: 2
#     Edge 21, Type (0, 1), BuildingBlock: XIVTED_clean_linker_0, # of connection points: 2
#     Edge 22, Type (0, 1), BuildingBlock: XIVTED_clean_linker_0, # of connection points: 2
#     Edge 23, Type (0, 1), BuildingBlock: XIVTED_clean_linker_0, # of connection points: 2
#     Edge 24, Type (0, 1), BuildingBlock: XIVTED_clean_linker_0, # of connection points: 2
#     Edge 25, Type (0, 1), BuildingBlock: XIVTED_clean_linker_0, # of connection points: 2
#     Edge 26, Type (0, 1), BuildingBlock: XIVTED_clean_linker_0, # of connection points: 2
# Relax obj value: 0.094
# Max RMSD: 0.132
# Mean RMSD: 0.100
data_MOF--net-anh--node1-BETDEL_clean_sbu_0--node2-PAMTOO_clean_linker_0--edge1-XIVTED_clean_linker_0
_symmetry_space_group_name_H-M    P1
_symmetry_Int_Tables_number       1
_symmetry_cell_setting            triclinic
loop_
_symmetry_equiv_pos_as_xyz
'x, y, z'
_cell_length_a     29.820469
_cell_length_b     29.742384
_cell_length_c     47.820934
_cell_angle_alpha  87.442887
_cell_angle_beta   91.020032
_cell_angle_gamma 119.92033
loop_
_atom_site_label
_atom_site_type_symbol
_atom_site_fract_x
_atom_site_fract_y
_atom_site_fract_z
_atom_type_partial_charge
Dy0 Dy 0.09394 0.49667 0.16248 0.0
C1 C 0.97066 0.59438 0.18383 0.0
C2 C 0.159 0.45913 0.15442 0.0
Dy3 Dy 0.0316 0.55698 0.16622 0.0
O4 O 0.15143 0.47439 0.17795 0.0
O5 O 0.13122 0.4648 0.13473 0.0
O6 O 0.06128 0.45939 0.20443 0.0
O7 O 0.07579 0.53506 0.19486 0.0
C8 C 0.05732 0.49812 0.21296 0.0
C9 C 0.04499 0.54176 0.11245 0.0
O10 O 0.11209 0.62196 0.1731 0.0
O11 O 0.15738 0.58112 0.15937 0.0
O12 O 1.00806 0.61771 0.16559 0.0
O13 O 0.96822 0.55149 0.19328 0.0
O14 O 1.01956 0.56441 0.11957 0.0
O15 O 0.06039 0.52936 0.13439 0.0
O16 O 1.01363 0.43246 0.15293 0.0
O17 O 0.96999 0.47286 0.16952 0.0
C18 C 0.15588 0.62315 0.16665 0.0
C19 C 0.97036 0.43139 0.16052 0.0
Dy20 Dy 0.54366 0.07052 0.49577 0.0
C21 C 0.75991 0.19762 0.52583 0.0
C22 C 0.44248 1.00173 0.48605 0.0
Dy23 Dy 0.66522 0.13636 0.50317 0.0
O24 O 0.46634 1.00569 0.50953 0.0
O25 O 0.47411 0.0353 0.46735 0.0
O26 O 0.53607 0.09928 0.53734 0.0
O27 O 0.59892 0.08848 0.52972 0.0
C28 C 0.57946 0.10474 0.54688 0.0
C29 C 0.64153 0.12274 0.44839 0.0
O30 O 0.65158 0.05569 0.51154 0.0
O31 O 0.56838 1.01026 0.49298 0.0
O32 O 0.74858 0.15929 0.50971 0.0
O33 O 0.71912 0.20167 0.5299 0.0
O34 O 0.68857 0.14846 0.45769 0.0
O35 O 0.61115 0.10751 0.46902 0.0
O36 O 0.55664 0.15009 0.48438 0.0
O37 O 0.63937 0.19587 0.50336 0.0
C38 C 0.61142 1.01219 0.50273 0.0
C39 C 0.59692 0.1939 0.49275 0.0
Dy40 Dy 0.65335 0.62027 0.8188 0.0
C41 C 0.56377 0.3975 0.84699 0.0
C42 C 0.69075 0.71622 0.79392 0.0
Dy43 Dy 0.59478 0.49769 0.83012 0.0
O44 O 0.71216 0.70503 0.81498 0.0
O45 O 0.64956 0.67457 0.78599 0.0
O46 O 0.65629 0.64258 0.86398 0.0
O47 O 0.62376 0.56603 0.85362 0.0
C48 C 0.6333 0.59483 0.87378 0.0
C49 C 0.59898 0.53176 0.77685 0.0
O50 O 0.53346 0.51591 0.84211 0.0
O51 O 0.56809 0.59519 0.81683 0.0
O52 O 0.5459 0.41168 0.82552 0.0
O53 O 0.59758 0.43822 0.85986 0.0
O54 O 0.56141 0.48836 0.78711 0.0
O55 O 0.63439 0.55238 0.79472 0.0
O56 O 0.72132 0.60664 0.81751 0.0
O57 O 0.67819 0.51792 0.83003 0.0
C58 C 0.52915 0.5552 0.83065 0.0
C59 C 0.72125 0.5626 0.82415 0.0
H60 H 0.66681 0.13361 0.23935 0.0
H61 H 0.5271 0.98483 0.2404 0.0
H62 H 0.60405 0.05766 0.16223 0.0
H63 H 0.48803 0.98795 0.15238 0.0
C64 C 0.48017 0.97449 0.17473 0.0
O65 O 0.52367 0.97551 0.18611 0.0
H66 H 0.47154 1.00181 0.18552 0.0
C67 C 0.63722 0.10086 0.22832 0.0
C68 C 0.64023 0.10097 0.19912 0.0
C69 C 0.59716 0.05904 0.24353 0.0
C70 C 0.55832 1.01743 0.22901 0.0
C71 C 0.56067 1.01679 0.19972 0.0
C72 C 0.60211 0.05832 0.18479 0.0
H73 H 0.62977 0.69802 0.57695 0.0
H74 H 0.62051 0.5534 0.55848 0.0
H75 H 0.61667 0.65256 0.4915 0.0
H76 H 0.55511 0.52716 0.47809 0.0
C77 C 0.57018 0.51965 0.49812 0.0
O78 O 0.61565 0.56437 0.50446 0.0
H79 H 0.54026 0.50927 0.51459 0.0
C80 C 0.62742 0.67086 0.56181 0.0
C81 C 0.62442 0.68172 0.53312 0.0
C82 C 0.6252 0.62443 0.57125 0.0
C83 C 0.62125 0.58898 0.5516 0.0
C84 C 0.61795 0.59879 0.52295 0.0
C85 C 0.61886 0.64491 0.51369 0.0
H86 H 1.01537 0.54132 0.906 0.0
H87 H 0.16469 0.55196 0.90194 0.0
H88 H 0.09695 0.57912 0.82759 0.0
H89 H 0.17106 0.53707 0.81307 0.0
C90 C 0.18146 0.53663 0.83547 0.0
O91 O 0.17815 0.57553 0.84851 0.0
H92 H 0.15311 0.4977 0.84475 0.0
C93 C 0.04869 0.54745 0.89409 0.0
C94 C 0.05062 0.5595 0.86528 0.0
C95 C 0.08945 0.54468 0.90777 0.0
C96 C 0.13298 0.55439 0.89202 0.0
C97 C 0.13575 0.56663 0.8632 0.0
C98 C 0.09478 0.56979 0.84986 0.0
H99 H 1.01985 0.47136 0.43022 0.0
H100 H 0.10883 0.63663 0.41331 0.0
H101 H 0.06991 0.57622 0.49788 0.0
H102 H 0.06904 0.68026 0.4843 0.0
C103 C 0.09604 0.69212 0.46619 0.0
O104 O 0.11723 0.66026 0.46554 0.0
H105 H 0.07396 0.68932 0.44668 0.0
C106 C 0.04102 0.51061 0.43748 0.0
C107 C 0.04338 0.51852 0.46634 0.0
C108 C 0.06381 0.55278 0.41797 0.0
C109 C 0.08964 0.60335 0.42779 0.0
C110 C 0.09119 0.61155 0.45645 0.0
C111 C 0.06791 0.56933 0.47571 0.0
H112 H 0.69836 0.06079 0.72505 0.0
H113 H 0.65555 0.15744 0.76865 0.0
H114 H 0.6867 0.04908 0.81493 0.0
H115 H 0.61692 0.07515 0.85144 0.0
C116 C 0.61376 0.09496 0.83187 0.0
O117 O 0.66151 0.12081 0.81875 0.0
H118 H 0.58408 0.06426 0.81862 0.0
C119 C 0.69141 0.07378 0.74449 0.0
C120 C 0.69414 0.04994 0.76992 0.0
C121 C 0.67759 0.11255 0.74368 0.0
C122 C 0.66702 0.12811 0.76886 0.0
C123 C 0.67137 0.10575 0.79448 0.0
C124 C 0.68523 0.06712 0.795 0.0
H125 H 0.66584 0.55496 0.08042 0.0
H126 H 0.50054 0.48082 0.084 0.0
H127 H 0.58478 0.48847 0.15884 0.0
H128 H 0.46783 0.38773 0.1569 0.0
C129 C 0.45987 0.40635 0.13827 0.0
O130 O 0.49365 0.45918 0.13785 0.0
H131 H 0.46449 0.3886 0.11928 0.0
C132 C 0.63055 0.5339 0.09262 0.0
C133 C 0.63231 0.52445 0.12166 0.0
C134 C 0.58331 0.51734 0.0789 0.0
C135 C 0.53726 0.4931 0.09435 0.0
C136 C 0.53821 0.48264 0.12309 0.0
C137 C 0.58531 0.49772 0.13665 0.0
H138 H 0.2044 0.4317 0.19589 0.0
H139 H 0.40005 0.40795 0.09461 0.0
H140 H 0.1958 0.44252 0.10591 0.0
H141 H 0.40011 0.38992 0.18449 0.0
H142 H 0.31926 0.41049 0.09743 0.0
H143 H 0.26987 0.40644 0.19143 0.0
C144 C 0.21619 0.42842 0.17513 0.0
C145 C 0.19522 0.4397 0.15121 0.0
C146 C 0.33635 0.40492 0.1165 0.0
C147 C 0.27063 0.41118 0.14588 0.0
C148 C 0.38215 0.40317 0.11486 0.0
C149 C 0.40603 0.39795 0.13935 0.0
C150 C 0.3149 0.40222 0.14286 0.0
C151 C 0.38235 0.39324 0.16515 0.0
C152 C 0.25353 0.41388 0.17258 0.0
C153 C 0.21138 0.43436 0.12484 0.0
N154 N 0.33826 0.39582 0.16625 0.0
N155 N 0.24872 0.42103 0.12285 0.0
H156 H 0.85033 0.2003 0.51381 0.0
H157 H 0.05252 0.4317 0.46865 0.0
H158 H 0.78993 0.28984 0.54964 0.0
H159 H 0.97616 0.50221 0.50888 0.0
H160 H 0.99761 0.35076 0.49437 0.0
H161 H 0.93477 0.27774 0.50976 0.0
C162 C 0.85533 0.2363 0.5214 0.0
C163 C 0.81296 0.23918 0.53125 0.0
C164 C 0.99266 0.38353 0.49812 0.0
C165 C 0.90924 0.32922 0.52564 0.0
C166 C 1.02438 0.43005 0.4833 0.0
C167 C 1.01784 0.47312 0.48614 0.0
C168 C 0.95329 0.3798 0.51555 0.0
C169 C 0.98196 0.4696 0.50585 0.0
C170 C 0.90373 0.28109 0.51881 0.0
C171 C 0.82152 0.28631 0.54132 0.0
N172 N 0.95029 0.4234 0.51936 0.0
N173 N 0.86841 0.32975 0.53762 0.0
H174 H 0.76375 0.80702 0.81588 0.0
H175 H 0.65121 0.9694 0.73462 0.0
H176 H 0.64653 0.74575 0.75209 0.0
H177 H 0.75413 0.02631 0.80521 0.0
H178 H 0.6607 0.89274 0.73571 0.0
H179 H 0.77286 0.89286 0.80678 0.0
C180 C 0.74071 0.81193 0.79955 0.0
C181 C 0.70396 0.76932 0.78487 0.0
C182 C 0.6816 0.92213 0.75084 0.0
C183 C 0.71367 0.86688 0.77464 0.0
C184 C 0.67647 0.96616 0.75014 0.0
C185 C 0.702 1.00446 0.76987 0.0
C186 C 0.71223 0.91592 0.77153 0.0
C187 C 0.73331 0.99748 0.78983 0.0
C188 C 0.74568 0.8608 0.79451 0.0
C189 C 0.67506 0.77762 0.76398 0.0
N190 N 0.73736 0.95388 0.79024 0.0
N191 N 0.68015 0.82537 0.75968 0.0
H192 H 0.95628 0.66396 0.15188 0.0
H193 H 0.65969 0.55525 0.17626 0.0
H194 H 0.88381 0.54366 0.21673 0.0
H195 H 0.72174 0.53415 0.09995 0.0
H196 H 0.74427 0.58459 0.19841 0.0
H197 H 0.87215 0.65598 0.14121 0.0
C198 C 0.92315 0.63745 0.16468 0.0
C199 C 0.92659 0.60357 0.1848 0.0
C200 C 0.73887 0.57404 0.17672 0.0
C201 C 0.83113 0.59494 0.17286 0.0
C202 C 0.69062 0.55668 0.16407 0.0
C203 C 0.68306 0.54235 0.13591 0.0
C204 C 0.77997 0.5786 0.16085 0.0
C205 C 0.7254 0.5462 0.12126 0.0
C206 C 0.87528 0.63285 0.15847 0.0
C207 C 0.88244 0.56997 0.20079 0.0
N208 N 0.77199 0.56435 0.13382 0.0
N209 N 0.83595 0.56565 0.19409 0.0
H210 H 0.38811 0.97459 0.43681 0.0
H211 H 0.13594 0.74564 0.51381 0.0
H212 H 0.37247 0.94237 0.52605 0.0
H213 H 0.15673 0.75985 0.42428 0.0
H214 H 0.2165 0.82807 0.51816 0.0
H215 H 0.29777 0.90551 0.43122 0.0
C216 C 0.36547 0.9533 0.45518 0.0
C217 C 0.38763 0.96359 0.48188 0.0
C218 C 0.20312 0.81372 0.49749 0.0
C219 C 0.28503 0.88534 0.47577 0.0
C220 C 0.157 0.76694 0.49504 0.0
C221 C 0.13963 0.74666 0.46866 0.0
C222 C 0.23246 0.83988 0.47337 0.0
C223 C 0.16875 0.7749 0.44495 0.0
C224 C 0.31409 0.91398 0.45202 0.0
C225 C 0.3569 0.93521 0.50506 0.0
N226 N 0.21406 0.82002 0.44786 0.0
N227 N 0.30728 0.89726 0.50146 0.0
H228 H 0.50106 0.31149 0.81811 0.0
H229 H 0.64291 0.15855 0.87627 0.0
H230 H 0.61326 0.36552 0.88461 0.0
H231 H 0.54925 0.11973 0.80195 0.0
H232 H 0.62093 0.226 0.88498 0.0
H233 H 0.50491 0.23134 0.81809 0.0
C234 C 0.52571 0.30595 0.83312 0.0
C235 C 0.55731 0.34525 0.85119 0.0
C236 C 0.60463 0.2023 0.86697 0.0
C237 C 0.56264 0.25421 0.85096 0.0
C238 C 0.61711 0.1639 0.86205 0.0
C239 C 0.59726 0.1334 0.83859 0.0
C240 C 0.57239 0.21038 0.84812 0.0
C241 C 0.56475 0.14216 0.82045 0.0
C242 C 0.52816 0.26036 0.83297 0.0
C243 C 0.58847 0.33617 0.87025 0.0
N244 N 0.55338 0.17994 0.82557 0.0
N245 N 0.59088 0.29179 0.8694 0.0
H246 H 0.54105 0.91543 0.4841 0.0
H247 H 0.69504 0.77897 0.54889 0.0
H248 H 0.68885 0.9976 0.52521 0.0
H249 H 0.55927 0.69825 0.4979 0.0
H250 H 0.69362 0.85957 0.53937 0.0
H251 H 0.54659 0.8359 0.48823 0.0
C252 C 0.57472 0.91692 0.49395 0.0
C253 C 0.61444 0.96356 0.50443 0.0
C254 C 0.66429 0.82446 0.53003 0.0
C255 C 0.62094 0.87227 0.50922 0.0
C256 C 0.6651 0.77836 0.53547 0.0
C257 C 0.62707 0.73172 0.52428 0.0
C258 C 0.62478 0.82421 0.51346 0.0
C259 C 0.58945 0.73336 0.50684 0.0
C260 C 0.57789 0.87141 0.49622 0.0
C261 C 0.65715 0.96281 0.51686 0.0
N262 N 0.58891 0.77872 0.5022 0.0
N263 N 0.65908 0.91802 0.51901 0.0
H264 H 0.73505 0.47887 0.83336 0.0
H265 H 0.04557 0.64021 0.83751 0.0
H266 H 0.82173 0.64503 0.81798 0.0
H267 H 0.95167 0.47974 0.86467 0.0
H268 H 0.96624 0.64191 0.82369 0.0
H269 H 0.81569 0.4779 0.83846 0.0
C270 C 0.77102 0.51533 0.83092 0.0
C271 C 0.77117 0.56223 0.82542 0.0
C272 C 0.96313 0.60618 0.83233 0.0
C273 C 0.86481 0.56125 0.83139 0.0
C274 C 1.00836 0.6051 0.83995 0.0
C275 C 1.00506 0.55971 0.85216 0.0
C276 C 0.91445 0.56141 0.8368 0.0
C277 C 0.9559 0.5155 0.85531 0.0
C278 C 0.81733 0.51468 0.83386 0.0
C279 C 0.81951 0.60795 0.82232 0.0
N280 N 0.91276 0.51753 0.84781 0.0
N281 N 0.86436 0.60638 0.8255 0.0
H282 H 0.25421 0.64764 0.15035 0.0
H283 H 0.38633 0.94079 0.20052 0.0
H284 H 0.17057 0.71406 0.18736 0.0
H285 H 0.46796 0.88533 0.15208 0.0
H286 H 0.30887 0.85495 0.19946 0.0
H287 H 0.33432 0.73135 0.15383 0.0
C288 C 0.25256 0.67965 0.15923 0.0
C289 C 0.20525 0.67353 0.16848 0.0
C290 C 0.34372 0.86127 0.18917 0.0
C291 C 0.29714 0.76957 0.17268 0.0
C292 C 0.38806 0.91028 0.1899 0.0
C293 C 0.43373 0.92013 0.17647 0.0
C294 C 0.34475 0.82149 0.17488 0.0
C295 C 0.43359 0.87919 0.16283 0.0
C296 C 0.29839 0.7275 0.16119 0.0
C297 C 0.20582 0.71666 0.1798 0.0
N298 N 0.38982 0.8317 0.16233 0.0
N299 N 0.25084 0.76256 0.18159 0.0
H300 H 0.52199 0.21147 0.46857 0.0
H301 H 0.64144 0.49866 0.52536 0.0
H302 H 0.665 0.28775 0.51459 0.0
H303 H 0.51544 0.43423 0.46671 0.0
H304 H 0.649 0.42062 0.52285 0.0
H305 H 0.51716 0.29134 0.46871 0.0
C306 C 0.55247 0.24493 0.47863 0.0
C307 C 0.59397 0.24258 0.49158 0.0
C308 C 0.62003 0.42372 0.51028 0.0
C309 C 0.58844 0.33435 0.49199 0.0
C310 C 0.61584 0.46845 0.51163 0.0
C311 C 0.57864 0.47368 0.4956 0.0
C312 C 0.58606 0.38324 0.49325 0.0
C313 C 0.54542 0.43232 0.47891 0.0
C314 C 0.5497 0.29062 0.47868 0.0
C315 C 0.63228 0.28747 0.50426 0.0
N316 N 0.54986 0.38896 0.47817 0.0
N317 N 0.62844 0.33121 0.50426 0.0
H318 H 0.4422 0.48501 0.8604 0.0
H319 H 0.26985 0.61078 0.80826 0.0
H320 H 0.50118 0.62364 0.80686 0.0
H321 H 0.21589 0.47995 0.86696 0.0
H322 H 0.35563 0.61796 0.80839 0.0
H323 H 0.35979 0.48358 0.86362 0.0
C324 C 0.43797 0.51523 0.84931 0.0
C325 C 0.47896 0.55441 0.83324 0.0
C326 C 0.32516 0.58785 0.82138 0.0
C327 C 0.38407 0.55295 0.83687 0.0
C328 C 0.27631 0.5839 0.82135 0.0
C329 C 0.2357 0.54452 0.83745 0.0
C330 C 0.3335 0.55204 0.83761 0.0
C331 C 0.24605 0.51069 0.85411 0.0
C332 C 0.39078 0.51443 0.85123 0.0
C333 C 0.47087 0.59258 0.81949 0.0
N334 N 0.2937 0.51497 0.8536 0.0
N335 N 0.42444 0.59076 0.82152 0.0
H336 H 0.87371 0.41825 0.16725 0.0
H337 H 0.7242 0.10689 0.17274 0.0
H338 H 0.95109 0.33124 0.15324 0.0
H339 H 0.65687 0.19933 0.19472 0.0
H340 H 0.80432 0.18704 0.15855 0.0
H341 H 0.79163 0.33756 0.17064 0.0
C342 C 0.87359 0.38216 0.16476 0.0
C343 C 0.91987 0.38184 0.16024 0.0
C344 C 0.77168 0.1897 0.16598 0.0
C345 C 0.82482 0.28823 0.16423 0.0
C346 C 0.72586 0.144 0.17378 0.0
C347 C 0.68385 0.14667 0.18462 0.0
C348 C 0.77531 0.23826 0.1691 0.0
C349 C 0.68827 0.19566 0.18622 0.0
C350 C 0.82639 0.33586 0.16669 0.0
C351 C 0.91657 0.33352 0.15687 0.0
N352 N 0.73312 0.23936 0.17872 0.0
N353 N 0.86996 0.28864 0.15917 0.0
H354 H 0.97612 0.5194 0.07081 0.0
H355 H 0.16723 0.58658 0.94705 0.0
H356 H 0.12739 0.54019 0.08854 0.0
H357 H 1.0044 0.47604 0.93898 0.0
H358 H 0.15732 0.57549 -0.00185 0.0
H359 H 0.98805 0.50983 0.02148 0.0
C360 C 1.0117 0.5214 0.06425 0.0
C361 C 0.05082 0.53047 0.08356 0.0
C362 C 0.12409 0.55317 0.98506 0.0
C363 C 0.06532 0.52093 0.02715 0.0
C364 C 0.12964 0.55933 0.9559 0.0
C365 C 0.08632 0.5331 0.93856 0.0
C366 C 0.07482 0.52126 -0.00314 0.0
C367 C 0.03857 0.4985 0.95139 0.0
C368 C 1.01842 0.51578 0.03617 0.0
C369 C 0.09627 0.53287 0.07413 0.0
N370 N 0.03393 0.49436 0.97969 0.0
N371 N 0.10282 0.52914 0.04634 0.0
H372 H 0.54554 0.06775 0.42299 0.0
H373 H 0.67878 0.07883 0.27689 0.0
H374 H 0.70975 0.14701 0.40658 0.0
H375 H 0.51871 0.03905 0.28074 0.0
H376 H 0.68553 0.08951 0.32712 0.0
H377 H 0.52997 0.04533 0.37318 0.0
C378 C 0.57812 0.08044 0.40895 0.0
C379 C 0.62898 0.1093 0.41884 0.0
C380 C 0.64875 0.07837 0.31714 0.0
C381 C 0.6117 0.08338 0.36255 0.0
C382 C 0.64492 0.07222 0.28842 0.0
C383 C 0.59842 0.05899 0.27458 0.0
C384 C 0.60581 0.07138 0.33243 0.0
C385 C 0.55536 0.04958 0.29068 0.0
C386 C 0.56928 0.06765 0.38066 0.0
C387 C 0.6699 0.12477 0.39991 0.0
N388 N 0.56017 0.05647 0.31885 0.0
N389 N 0.66036 0.1115 0.37286 0.0
H390 H 0.52929 0.48207 0.73622 0.0
H391 H 0.6871 0.68803 0.6123 0.0
H392 H 0.67808 0.61747 0.74951 0.0
H393 H 0.56146 0.53296 0.59952 0.0
H394 H 0.68173 0.6674 0.66284 0.0
H395 H 0.53706 0.50517 0.68634 0.0
C396 C 0.5636 0.51686 0.72861 0.0
C397 C 0.6032 0.54784 0.74696 0.0
C398 C 0.65557 0.63789 0.64892 0.0
C399 C 0.61241 0.5746 0.68974 0.0
C400 C 0.65847 0.64965 0.62014 0.0
C401 C 0.62468 0.61209 0.6017 0.0
C402 C 0.61817 0.58846 0.65932 0.0
C403 C 0.58862 0.56288 0.61292 0.0
C404 C 0.5681 0.52993 0.70008 0.0
C405 C 0.64671 0.59257 0.73598 0.0
N406 N 0.58613 0.55263 0.64098 0.0
N407 N 0.65019 0.60472 0.708 0.0
H408 H 0.67085 0.11976 0.56795 0.0
H409 H 0.5943 0.12062 0.72512 0.0
H410 H 0.53447 0.12589 0.59003 0.0
H411 H 0.74411 0.14842 0.69927 0.0
H412 H 0.57509 0.13303 0.67623 0.0
H413 H 0.70165 0.13924 0.61579 0.0
C414 C 0.64772 0.12594 0.58285 0.0
C415 C 0.60002 0.12106 0.57513 0.0
C416 C 0.61259 0.13753 0.68134 0.0
C417 C 0.63441 0.14227 0.63023 0.0
C418 C 0.62368 0.13082 0.70925 0.0
C419 C 0.6705 0.13268 0.71607 0.0
C420 C 0.64852 0.14575 0.66027 0.0
C421 C 0.70715 0.14571 0.69475 0.0
C422 C 0.66529 0.13708 0.61021 0.0
C423 C 0.57141 0.12912 0.59527 0.0
N424 N 0.69506 0.15088 0.66777 0.0
N425 N 0.58868 0.1386 0.62208 0.0
H426 H 0.60961 0.50199 0.89998 0.0
H427 H 0.54946 0.57418 0.04821 0.0
H428 H 0.62394 0.6507 0.91419 0.0
H429 H 0.61587 0.4756 0.04041 0.0
H430 H 0.55505 0.58931 -0.00299 0.0
H431 H 0.59029 0.47826 0.95 0.0
C432 C 0.60811 0.52929 0.91359 0.0
C433 C 0.61865 0.57836 0.90319 0.0
C434 C 0.56797 0.56406 0.00658 0.0
C435 C 0.59607 0.55155 0.95984 0.0
C436 C 0.56463 0.55536 0.0356 0.0
C437 C 0.5826 0.524 0.04823 0.0
C438 C 0.58841 0.54029 0.99028 0.0
C439 C 0.60204 0.50037 0.03124 0.0
C440 C 0.59731 0.5159 0.94203 0.0
C441 C 0.61644 0.61262 0.92158 0.0
N442 N 0.60437 0.50891 0.00305 0.0
N443 N 0.60525 0.59853 0.94908 0.0
H444 H 0.05992 0.58145 0.23673 0.0
H445 H 0.06974 0.47609 0.39139 0.0
H446 H 0.03743 0.42853 0.25635 0.0
H447 H 0.04934 0.60876 0.37496 0.0
H448 H 0.0611 0.46029 0.34155 0.0
H449 H 0.05776 0.5941 0.28694 0.0
C450 C 0.05392 0.55037 0.25161 0.0
C451 C 0.04931 0.50408 0.24252 0.0
C452 C 0.05827 0.49274 0.34885 0.0
C453 C 0.04753 0.51844 0.29967 0.0
C454 C 0.06306 0.50173 0.37736 0.0
C455 C 0.06007 0.54374 0.38749 0.0
C456 C 0.05097 0.52625 0.33015 0.0
C457 C 0.0526 0.57632 0.3681 0.0
C458 C 0.05279 0.55762 0.2802 0.0
C459 C 0.04148 0.46495 0.26254 0.0
N460 N 0.04846 0.56699 0.34033 0.0
N461 N 0.04139 0.47323 0.29019 0.0
loop_
_geom_bond_atom_site_label_1
_geom_bond_atom_site_label_2
_geom_bond_distance
_geom_bond_site_symmetry_2
_ccdc_geom_bond_type
Dy0 O4 2.398 . S
Dy0 O5 2.491 . S
Dy0 O6 2.403 . S
Dy0 O7 2.664 1_455 S
Dy0 O11 2.326 . S
Dy0 O15 2.310 . S
Dy0 O16 2.351 1_455 S
C1 O12 1.185 . S
C1 O13 1.355 . S
C2 O4 1.185 . S
C2 O5 1.355 . S
Dy3 O7 2.310 . S
Dy3 O10 2.351 1_655 S
Dy3 O12 2.398 . S
Dy3 O13 2.491 . S
Dy3 O14 2.403 . S
Dy3 O15 2.664 1_655 S
Dy3 O17 2.326 . S
O4 Dy0 2.398 . S
O4 C2 1.185 . S
O5 Dy0 2.491 . S
O5 C2 1.355 . S
O6 Dy0 2.403 . S
O6 C8 1.254 . S
O7 Dy0 2.664 1_655 S
O7 Dy3 2.310 . S
O7 C8 1.268 1_655 S
C8 O6 1.254 . S
C8 O7 1.268 1_455 S
C9 O14 1.254 1_455 S
C9 O15 1.268 . S
O10 Dy3 2.351 1_455 S
O10 C18 1.249 . S
O11 Dy0 2.326 . S
O11 C18 1.267 . S
O12 C1 1.185 . S
O12 Dy3 2.398 . S
O13 C1 1.355 . S
O13 Dy3 2.491 . S
O14 Dy3 2.403 . S
O14 C9 1.254 1_655 S
O15 Dy0 2.310 . S
O15 Dy3 2.664 1_455 S
O15 C9 1.268 . S
O16 Dy0 2.351 1_655 S
O16 C19 1.249 . S
O17 Dy3 2.326 . S
O17 C19 1.267 . S
C18 O10 1.249 . S
C18 O11 1.267 . S
C19 O16 1.249 . S
C19 O17 1.267 . S
Dy20 O24 2.398 1_545 S
Dy20 O25 2.491 1_545 S
Dy20 O26 2.403 . S
Dy20 O27 2.664 . S
Dy20 O31 2.326 1_545 S
Dy20 O35 2.310 . S
Dy20 O36 2.351 . S
C21 O32 1.185 . S
C21 O33 1.355 . S
C22 O24 1.185 . S
C22 O25 1.355 . S
Dy23 O27 2.310 . S
Dy23 O30 2.351 1_545 S
Dy23 O32 2.398 . S
Dy23 O33 2.491 . S
Dy23 O34 2.403 . S
Dy23 O35 2.664 . S
Dy23 O37 2.326 . S
O24 Dy20 2.398 1_565 S
O24 C22 1.185 . S
O25 Dy20 2.491 1_565 S
O25 C22 1.355 . S
O26 Dy20 2.403 . S
O26 C28 1.254 . S
O27 Dy20 2.664 . S
O27 Dy23 2.310 . S
O27 C28 1.268 . S
C28 O26 1.254 . S
C28 O27 1.268 . S
C29 O34 1.254 . S
C29 O35 1.268 . S
O30 Dy23 2.351 1_565 S
O30 C38 1.249 . S
O31 Dy20 2.326 1_565 S
O31 C38 1.267 . S
O32 C21 1.185 . S
O32 Dy23 2.398 . S
O33 C21 1.355 . S
O33 Dy23 2.491 . S
O34 Dy23 2.403 . S
O34 C29 1.254 . S
O35 Dy20 2.310 . S
O35 Dy23 2.664 . S
O35 C29 1.268 . S
O36 Dy20 2.351 . S
O36 C39 1.249 . S
O37 Dy23 2.326 . S
O37 C39 1.267 . S
C38 O30 1.249 . S
C38 O31 1.267 . S
C39 O36 1.249 . S
C39 O37 1.267 . S
Dy40 O44 2.398 . S
Dy40 O45 2.491 . S
Dy40 O46 2.403 . S
Dy40 O47 2.664 . S
Dy40 O51 2.326 . S
Dy40 O55 2.310 . S
Dy40 O56 2.351 . S
C41 O52 1.185 . S
C41 O53 1.355 . S
C42 O44 1.185 . S
C42 O45 1.355 . S
Dy43 O47 2.310 . S
Dy43 O50 2.351 . S
Dy43 O52 2.398 . S
Dy43 O53 2.491 . S
Dy43 O54 2.403 . S
Dy43 O55 2.664 . S
Dy43 O57 2.326 . S
O44 Dy40 2.398 . S
O44 C42 1.185 . S
O45 Dy40 2.491 . S
O45 C42 1.355 . S
O46 Dy40 2.403 . S
O46 C48 1.254 . S
O47 Dy40 2.664 . S
O47 Dy43 2.310 . S
O47 C48 1.268 . S
C48 O46 1.254 . S
C48 O47 1.268 . S
C49 O54 1.254 . S
C49 O55 1.268 . S
O50 Dy43 2.351 . S
O50 C58 1.249 . S
O51 Dy40 2.326 . S
O51 C58 1.267 . S
O52 C41 1.185 . S
O52 Dy43 2.398 . S
O53 C41 1.355 . S
O53 Dy43 2.491 . S
O54 Dy43 2.403 . S
O54 C49 1.254 . S
O55 Dy40 2.310 . S
O55 Dy43 2.664 . S
O55 C49 1.268 . S
O56 Dy40 2.351 . S
O56 C59 1.249 . S
O57 Dy43 2.326 . S
O57 C59 1.267 . S
C58 O50 1.249 . S
C58 O51 1.267 . S
C59 O56 1.249 . S
C59 O57 1.267 . S
H60 C67 0.929 . S
H61 C70 0.930 . S
H62 C72 0.929 . S
H63 C64 0.969 . S
C64 H63 0.969 . S
C64 O65 1.550 . S
C64 H66 0.973 . S
O65 C64 1.550 . S
O65 C71 1.412 . S
H66 C64 0.973 . S
C67 H60 0.929 . S
C67 C68 1.400 . S
C67 C69 1.364 . S
C68 C67 1.400 . S
C68 C72 1.377 . S
C69 C67 1.364 . S
C69 C70 1.374 1_545 S
C70 H61 0.930 . S
C70 C69 1.374 1_565 S
C70 C71 1.383 . S
C71 O65 1.412 . S
C71 C70 1.383 . S
C71 C72 1.394 1_565 S
C72 H62 0.929 . S
C72 C68 1.377 . S
C72 C71 1.394 1_545 S
H73 C80 0.929 . S
H74 C83 0.930 . S
H75 C85 0.929 . S
H76 C77 0.969 . S
C77 H76 0.969 . S
C77 O78 1.550 . S
C77 H79 0.973 . S
O78 C77 1.550 . S
O78 C84 1.412 . S
H79 C77 0.973 . S
C80 H73 0.929 . S
C80 C81 1.400 . S
C80 C82 1.364 . S
C81 C80 1.400 . S
C81 C85 1.377 . S
C82 C80 1.364 . S
C82 C83 1.374 . S
C83 H74 0.930 . S
C83 C82 1.374 . S
C83 C84 1.383 . S
C84 O78 1.412 . S
C84 C83 1.383 . S
C84 C85 1.394 . S
C85 H75 0.929 . S
C85 C81 1.377 . S
C85 C84 1.394 . S
H86 C93 0.929 . S
H87 C96 0.930 . S
H88 C98 0.929 . S
H89 C90 0.969 . S
C90 H89 0.969 . S
C90 O91 1.550 . S
C90 H92 0.973 . S
O91 C90 1.550 . S
O91 C97 1.412 . S
H92 C90 0.973 . S
C93 H86 0.929 . S
C93 C94 1.400 . S
C93 C95 1.364 . S
C94 C93 1.400 . S
C94 C98 1.377 . S
C95 C93 1.364 . S
C95 C96 1.374 . S
C96 H87 0.930 . S
C96 C95 1.374 . S
C96 C97 1.383 . S
C97 O91 1.412 . S
C97 C96 1.383 . S
C97 C98 1.394 . S
C98 H88 0.929 . S
C98 C94 1.377 . S
C98 C97 1.394 . S
H99 C106 0.929 . S
H100 C109 0.930 . S
H101 C111 0.929 . S
H102 C103 0.969 . S
C103 H102 0.969 . S
C103 O104 1.550 . S
C103 H105 0.973 . S
O104 C103 1.550 . S
O104 C110 1.412 . S
H105 C103 0.973 . S
C106 H99 0.929 . S
C106 C107 1.400 . S
C106 C108 1.364 1_655 S
C107 C106 1.400 . S
C107 C111 1.377 1_655 S
C108 C106 1.364 1_455 S
C108 C109 1.374 . S
C109 H100 0.930 . S
C109 C108 1.374 . S
C109 C110 1.383 . S
C110 O104 1.412 . S
C110 C109 1.383 . S
C110 C111 1.394 . S
C111 H101 0.929 . S
C111 C107 1.377 1_455 S
C111 C110 1.394 . S
H112 C119 0.929 1_565 S
H113 C122 0.930 . S
H114 C124 0.929 . S
H115 C116 0.969 . S
C116 H115 0.969 . S
C116 O117 1.550 . S
C116 H118 0.973 . S
O117 C116 1.550 . S
O117 C123 1.412 . S
H118 C116 0.973 . S
C119 H112 0.929 1_545 S
C119 C120 1.400 . S
C119 C121 1.364 . S
C120 C119 1.400 . S
C120 C124 1.377 . S
C121 C119 1.364 . S
C121 C122 1.374 . S
C122 H113 0.930 . S
C122 C121 1.374 . S
C122 C123 1.383 . S
C123 O117 1.412 . S
C123 C122 1.383 . S
C123 C124 1.394 . S
C124 H114 0.929 . S
C124 C120 1.377 . S
C124 C123 1.394 . S
H125 C132 0.929 . S
H126 C135 0.930 . S
H127 C137 0.929 . S
H128 C129 0.969 . S
C129 H128 0.969 . S
C129 O130 1.550 . S
C129 H131 0.973 . S
O130 C129 1.550 . S
O130 C136 1.412 . S
H131 C129 0.973 . S
C132 H125 0.929 . S
C132 C133 1.400 . S
C132 C134 1.364 . S
C133 C132 1.400 . S
C133 C137 1.377 . S
C134 C132 1.364 . S
C134 C135 1.374 . S
C135 H126 0.930 . S
C135 C134 1.374 . S
C135 C136 1.383 . S
C136 O130 1.412 . S
C136 C135 1.383 . S
C136 C137 1.394 . S
C137 H127 0.929 . S
C137 C133 1.377 . S
C137 C136 1.394 . S
H138 C144 0.930 . S
H139 C148 0.930 . S
H140 C153 0.929 . S
H141 C151 0.929 . S
H142 C146 0.929 . S
H143 C152 0.929 . S
C144 H138 0.930 . S
C144 C145 1.367 . S
C144 C152 1.378 . S
C145 C144 1.367 . S
C145 C153 1.433 . S
C146 H142 0.929 . S
C146 C148 1.378 . S
C146 C150 1.350 . S
C147 C150 1.463 . S
C147 C152 1.350 . S
C147 N155 1.427 . S
C148 H139 0.930 . S
C148 C146 1.378 . S
C148 C149 1.367 . S
C149 C148 1.367 . S
C149 C151 1.433 . S
C150 C146 1.350 . S
C150 C147 1.463 . S
C150 N154 1.427 . S
C151 H141 0.929 . S
C151 C149 1.433 . S
C151 N154 1.384 . S
C152 H143 0.929 . S
C152 C144 1.378 . S
C152 C147 1.350 . S
C153 H140 0.929 . S
C153 C145 1.433 . S
C153 N155 1.384 . S
N154 C150 1.427 . S
N154 C151 1.384 . S
N155 C147 1.427 . S
N155 C153 1.384 . S
H156 C162 0.930 . S
H157 C166 0.930 . S
H158 C171 0.929 . S
H159 C169 0.929 . S
H160 C164 0.929 . S
H161 C170 0.929 . S
C162 H156 0.930 . S
C162 C163 1.367 . S
C162 C170 1.378 . S
C163 C162 1.367 . S
C163 C171 1.433 . S
C164 H160 0.929 . S
C164 C166 1.378 . S
C164 C168 1.350 . S
C165 C168 1.463 . S
C165 C170 1.350 . S
C165 N173 1.427 . S
C166 H157 0.930 . S
C166 C164 1.378 . S
C166 C167 1.367 . S
C167 C166 1.367 . S
C167 C169 1.433 . S
C168 C164 1.350 . S
C168 C165 1.463 . S
C168 N172 1.427 . S
C169 H159 0.929 . S
C169 C167 1.433 . S
C169 N172 1.384 . S
C170 H161 0.929 . S
C170 C162 1.378 . S
C170 C165 1.350 . S
C171 H158 0.929 . S
C171 C163 1.433 . S
C171 N173 1.384 . S
N172 C168 1.427 . S
N172 C169 1.384 . S
N173 C165 1.427 . S
N173 C171 1.384 . S
H174 C180 0.930 . S
H175 C184 0.930 . S
H176 C189 0.929 . S
H177 C187 0.929 . S
H178 C182 0.929 . S
H179 C188 0.929 . S
C180 H174 0.930 . S
C180 C181 1.367 . S
C180 C188 1.378 . S
C181 C180 1.367 . S
C181 C189 1.433 . S
C182 H178 0.929 . S
C182 C184 1.378 . S
C182 C186 1.350 . S
C183 C186 1.463 . S
C183 C188 1.350 . S
C183 N191 1.427 . S
C184 H175 0.930 . S
C184 C182 1.378 . S
C184 C185 1.367 . S
C185 C184 1.367 . S
C185 C187 1.433 . S
C186 C182 1.350 . S
C186 C183 1.463 . S
C186 N190 1.427 . S
C187 H177 0.929 . S
C187 C185 1.433 . S
C187 N190 1.384 . S
C188 H179 0.929 . S
C188 C180 1.378 . S
C188 C183 1.350 . S
C189 H176 0.929 . S
C189 C181 1.433 . S
C189 N191 1.384 . S
N190 C186 1.427 . S
N190 C187 1.384 . S
N191 C183 1.427 . S
N191 C189 1.384 . S
H192 C198 0.930 . S
H193 C202 0.930 . S
H194 C207 0.929 . S
H195 C205 0.929 . S
H196 C200 0.929 . S
H197 C206 0.929 . S
C198 H192 0.930 . S
C198 C199 1.367 . S
C198 C206 1.378 . S
C199 C198 1.367 . S
C199 C207 1.433 . S
C200 H196 0.929 . S
C200 C202 1.378 . S
C200 C204 1.350 . S
C201 C204 1.463 . S
C201 C206 1.350 . S
C201 N209 1.427 . S
C202 H193 0.930 . S
C202 C200 1.378 . S
C202 C203 1.367 . S
C203 C202 1.367 . S
C203 C205 1.433 . S
C204 C200 1.350 . S
C204 C201 1.463 . S
C204 N208 1.427 . S
C205 H195 0.929 . S
C205 C203 1.433 . S
C205 N208 1.384 . S
C206 H197 0.929 . S
C206 C198 1.378 . S
C206 C201 1.350 . S
C207 H194 0.929 . S
C207 C199 1.433 . S
C207 N209 1.384 . S
N208 C204 1.427 . S
N208 C205 1.384 . S
N209 C201 1.427 . S
N209 C207 1.384 . S
H210 C216 0.930 . S
H211 C220 0.930 . S
H212 C225 0.929 . S
H213 C223 0.929 . S
H214 C218 0.929 . S
H215 C224 0.929 . S
C216 H210 0.930 . S
C216 C217 1.367 . S
C216 C224 1.378 . S
C217 C216 1.367 . S
C217 C225 1.433 . S
C218 H214 0.929 . S
C218 C220 1.378 . S
C218 C222 1.350 . S
C219 C222 1.463 . S
C219 C224 1.350 . S
C219 N227 1.427 . S
C220 H211 0.930 . S
C220 C218 1.378 . S
C220 C221 1.367 . S
C221 C220 1.367 . S
C221 C223 1.433 . S
C222 C218 1.350 . S
C222 C219 1.463 . S
C222 N226 1.427 . S
C223 H213 0.929 . S
C223 C221 1.433 . S
C223 N226 1.384 . S
C224 H215 0.929 . S
C224 C216 1.378 . S
C224 C219 1.350 . S
C225 H212 0.929 . S
C225 C217 1.433 . S
C225 N227 1.384 . S
N226 C222 1.427 . S
N226 C223 1.384 . S
N227 C219 1.427 . S
N227 C225 1.384 . S
H228 C234 0.930 . S
H229 C238 0.930 . S
H230 C243 0.929 . S
H231 C241 0.929 . S
H232 C236 0.929 . S
H233 C242 0.929 . S
C234 H228 0.930 . S
C234 C235 1.367 . S
C234 C242 1.378 . S
C235 C234 1.367 . S
C235 C243 1.433 . S
C236 H232 0.929 . S
C236 C238 1.378 . S
C236 C240 1.350 . S
C237 C240 1.463 . S
C237 C242 1.350 . S
C237 N245 1.427 . S
C238 H229 0.930 . S
C238 C236 1.378 . S
C238 C239 1.367 . S
C239 C238 1.367 . S
C239 C241 1.433 . S
C240 C236 1.350 . S
C240 C237 1.463 . S
C240 N244 1.427 . S
C241 H231 0.929 . S
C241 C239 1.433 . S
C241 N244 1.384 . S
C242 H233 0.929 . S
C242 C234 1.378 . S
C242 C237 1.350 . S
C243 H230 0.929 . S
C243 C235 1.433 . S
C243 N245 1.384 . S
N244 C240 1.427 . S
N244 C241 1.384 . S
N245 C237 1.427 . S
N245 C243 1.384 . S
H246 C252 0.930 . S
H247 C256 0.930 . S
H248 C261 0.929 . S
H249 C259 0.929 . S
H250 C254 0.929 . S
H251 C260 0.929 . S
C252 H246 0.930 . S
C252 C253 1.367 . S
C252 C260 1.378 . S
C253 C252 1.367 . S
C253 C261 1.433 . S
C254 H250 0.929 . S
C254 C256 1.378 . S
C254 C258 1.350 . S
C255 C258 1.463 . S
C255 C260 1.350 . S
C255 N263 1.427 . S
C256 H247 0.930 . S
C256 C254 1.378 . S
C256 C257 1.367 . S
C257 C256 1.367 . S
C257 C259 1.433 . S
C258 C254 1.350 . S
C258 C255 1.463 . S
C258 N262 1.427 . S
C259 H249 0.929 . S
C259 C257 1.433 . S
C259 N262 1.384 . S
C260 H251 0.929 . S
C260 C252 1.378 . S
C260 C255 1.350 . S
C261 H248 0.929 . S
C261 C253 1.433 . S
C261 N263 1.384 . S
N262 C258 1.427 . S
N262 C259 1.384 . S
N263 C255 1.427 . S
N263 C261 1.384 . S
H264 C270 0.930 . S
H265 C274 0.930 1_455 S
H266 C279 0.929 . S
H267 C277 0.929 . S
H268 C272 0.929 . S
H269 C278 0.929 . S
C270 H264 0.930 . S
C270 C271 1.367 . S
C270 C278 1.378 . S
C271 C270 1.367 . S
C271 C279 1.433 . S
C272 H268 0.929 . S
C272 C274 1.378 . S
C272 C276 1.350 . S
C273 C276 1.463 . S
C273 C278 1.350 . S
C273 N281 1.427 . S
C274 H265 0.930 1_655 S
C274 C272 1.378 . S
C274 C275 1.367 . S
C275 C274 1.367 . S
C275 C277 1.433 . S
C276 C272 1.350 . S
C276 C273 1.463 . S
C276 N280 1.427 . S
C277 H267 0.929 . S
C277 C275 1.433 . S
C277 N280 1.384 . S
C278 H269 0.929 . S
C278 C270 1.378 . S
C278 C273 1.350 . S
C279 H266 0.929 . S
C279 C271 1.433 . S
C279 N281 1.384 . S
N280 C276 1.427 . S
N280 C277 1.384 . S
N281 C273 1.427 . S
N281 C279 1.384 . S
H282 C288 0.930 . S
H283 C292 0.930 . S
H284 C297 0.929 . S
H285 C295 0.929 . S
H286 C290 0.929 . S
H287 C296 0.929 . S
C288 H282 0.930 . S
C288 C289 1.367 . S
C288 C296 1.378 . S
C289 C288 1.367 . S
C289 C297 1.433 . S
C290 H286 0.929 . S
C290 C292 1.378 . S
C290 C294 1.350 . S
C291 C294 1.463 . S
C291 C296 1.350 . S
C291 N299 1.427 . S
C292 H283 0.930 . S
C292 C290 1.378 . S
C292 C293 1.367 . S
C293 C292 1.367 . S
C293 C295 1.433 . S
C294 C290 1.350 . S
C294 C291 1.463 . S
C294 N298 1.427 . S
C295 H285 0.929 . S
C295 C293 1.433 . S
C295 N298 1.384 . S
C296 H287 0.929 . S
C296 C288 1.378 . S
C296 C291 1.350 . S
C297 H284 0.929 . S
C297 C289 1.433 . S
C297 N299 1.384 . S
N298 C294 1.427 . S
N298 C295 1.384 . S
N299 C291 1.427 . S
N299 C297 1.384 . S
H300 C306 0.930 . S
H301 C310 0.930 . S
H302 C315 0.929 . S
H303 C313 0.929 . S
H304 C308 0.929 . S
H305 C314 0.929 . S
C306 H300 0.930 . S
C306 C307 1.367 . S
C306 C314 1.378 . S
C307 C306 1.367 . S
C307 C315 1.433 . S
C308 H304 0.929 . S
C308 C310 1.378 . S
C308 C312 1.350 . S
C309 C312 1.463 . S
C309 C314 1.350 . S
C309 N317 1.427 . S
C310 H301 0.930 . S
C310 C308 1.378 . S
C310 C311 1.367 . S
C311 C310 1.367 . S
C311 C313 1.433 . S
C312 C308 1.350 . S
C312 C309 1.463 . S
C312 N316 1.427 . S
C313 H303 0.929 . S
C313 C311 1.433 . S
C313 N316 1.384 . S
C314 H305 0.929 . S
C314 C306 1.378 . S
C314 C309 1.350 . S
C315 H302 0.929 . S
C315 C307 1.433 . S
C315 N317 1.384 . S
N316 C312 1.427 . S
N316 C313 1.384 . S
N317 C309 1.427 . S
N317 C315 1.384 . S
H318 C324 0.930 . S
H319 C328 0.930 . S
H320 C333 0.929 . S
H321 C331 0.929 . S
H322 C326 0.929 . S
H323 C332 0.929 . S
C324 H318 0.930 . S
C324 C325 1.367 . S
C324 C332 1.378 . S
C325 C324 1.367 . S
C325 C333 1.433 . S
C326 H322 0.929 . S
C326 C328 1.378 . S
C326 C330 1.350 . S
C327 C330 1.463 . S
C327 C332 1.350 . S
C327 N335 1.427 . S
C328 H319 0.930 . S
C328 C326 1.378 . S
C328 C329 1.367 . S
C329 C328 1.367 . S
C329 C331 1.433 . S
C330 C326 1.350 . S
C330 C327 1.463 . S
C330 N334 1.427 . S
C331 H321 0.929 . S
C331 C329 1.433 . S
C331 N334 1.384 . S
C332 H323 0.929 . S
C332 C324 1.378 . S
C332 C327 1.350 . S
C333 H320 0.929 . S
C333 C325 1.433 . S
C333 N335 1.384 . S
N334 C330 1.427 . S
N334 C331 1.384 . S
N335 C327 1.427 . S
N335 C333 1.384 . S
H336 C342 0.930 . S
H337 C346 0.930 . S
H338 C351 0.929 . S
H339 C349 0.929 . S
H340 C344 0.929 . S
H341 C350 0.929 . S
C342 H336 0.930 . S
C342 C343 1.367 . S
C342 C350 1.378 . S
C343 C342 1.367 . S
C343 C351 1.433 . S
C344 H340 0.929 . S
C344 C346 1.378 . S
C344 C348 1.350 . S
C345 C348 1.463 . S
C345 C350 1.350 . S
C345 N353 1.427 . S
C346 H337 0.930 . S
C346 C344 1.378 . S
C346 C347 1.367 . S
C347 C346 1.367 . S
C347 C349 1.433 . S
C348 C344 1.350 . S
C348 C345 1.463 . S
C348 N352 1.427 . S
C349 H339 0.929 . S
C349 C347 1.433 . S
C349 N352 1.384 . S
C350 H341 0.929 . S
C350 C342 1.378 . S
C350 C345 1.350 . S
C351 H338 0.929 . S
C351 C343 1.433 . S
C351 N353 1.384 . S
N352 C348 1.427 . S
N352 C349 1.384 . S
N353 C345 1.427 . S
N353 C351 1.384 . S
H354 C360 0.930 . S
H355 C364 0.930 . S
H356 C369 0.929 . S
H357 C367 0.919 1_655 S
H358 C362 0.929 . S
H359 C368 0.929 . S
C360 H354 0.930 . S
C360 C361 1.367 1_655 S
C360 C368 1.378 . S
C361 C360 1.367 1_455 S
C361 C369 1.433 . S
C362 H358 0.929 . S
C362 C364 1.378 . S
C362 C366 1.350 . S
C363 C366 1.463 1_554 S
C363 C368 1.350 1_455 S
C363 N371 1.427 . S
C364 H355 0.930 . S
C364 C362 1.378 . S
C364 C365 1.367 . S
C365 C364 1.367 . S
C365 C367 1.433 . S
C366 C362 1.350 . S
C366 C363 1.463 1_556 S
C366 N370 1.427 . S
C367 H357 0.919 1_455 S
C367 C365 1.433 . S
C367 N370 1.384 . S
C368 H359 0.929 . S
C368 C360 1.378 . S
C368 C363 1.350 1_655 S
C369 H356 0.929 . S
C369 C361 1.433 . S
C369 N371 1.384 . S
N370 C366 1.427 . S
N370 C367 1.384 . S
N371 C363 1.427 . S
N371 C369 1.384 . S
H372 C378 0.930 . S
H373 C382 0.930 . S
H374 C387 0.929 . S
H375 C385 0.929 . S
H376 C380 0.929 . S
H377 C386 0.929 . S
C378 H372 0.930 . S
C378 C379 1.367 . S
C378 C386 1.378 . S
C379 C378 1.367 . S
C379 C387 1.433 . S
C380 H376 0.929 . S
C380 C382 1.378 . S
C380 C384 1.350 . S
C381 C384 1.463 . S
C381 C386 1.350 . S
C381 N389 1.427 . S
C382 H373 0.930 . S
C382 C380 1.378 . S
C382 C383 1.367 . S
C383 C382 1.367 . S
C383 C385 1.433 . S
C384 C380 1.350 . S
C384 C381 1.463 . S
C384 N388 1.427 . S
C385 H375 0.929 . S
C385 C383 1.433 . S
C385 N388 1.384 . S
C386 H377 0.929 . S
C386 C378 1.378 . S
C386 C381 1.350 . S
C387 H374 0.929 . S
C387 C379 1.433 . S
C387 N389 1.384 . S
N388 C384 1.427 . S
N388 C385 1.384 . S
N389 C381 1.427 . S
N389 C387 1.384 . S
H390 C396 0.930 . S
H391 C400 0.930 . S
H392 C405 0.929 . S
H393 C403 0.929 . S
H394 C398 0.929 . S
H395 C404 0.929 . S
C396 H390 0.930 . S
C396 C397 1.367 . S
C396 C404 1.378 . S
C397 C396 1.367 . S
C397 C405 1.433 . S
C398 H394 0.929 . S
C398 C400 1.378 . S
C398 C402 1.350 . S
C399 C402 1.463 . S
C399 C404 1.350 . S
C399 N407 1.427 . S
C400 H391 0.930 . S
C400 C398 1.378 . S
C400 C401 1.367 . S
C401 C400 1.367 . S
C401 C403 1.433 . S
C402 C398 1.350 . S
C402 C399 1.463 . S
C402 N406 1.427 . S
C403 H393 0.929 . S
C403 C401 1.433 . S
C403 N406 1.384 . S
C404 H395 0.929 . S
C404 C396 1.378 . S
C404 C399 1.350 . S
C405 H392 0.929 . S
C405 C397 1.433 . S
C405 N407 1.384 . S
N406 C402 1.427 . S
N406 C403 1.384 . S
N407 C399 1.427 . S
N407 C405 1.384 . S
H408 C414 0.930 1_565 S
H409 C418 0.930 . S
H410 C423 0.929 . S
H411 C421 0.921 1_565 S
H412 C416 0.929 . S
H413 C422 0.929 1_565 S
C414 H408 0.930 1_545 S
C414 C415 1.367 . S
C414 C422 1.378 . S
C415 C414 1.367 . S
C415 C423 1.433 . S
C416 H412 0.929 . S
C416 C418 1.378 . S
C416 C420 1.350 . S
C417 C420 1.463 . S
C417 C422 1.350 . S
C417 N425 1.427 . S
C418 H409 0.930 . S
C418 C416 1.378 . S
C418 C419 1.367 . S
C419 C418 1.367 . S
C419 C421 1.433 . S
C420 C416 1.350 . S
C420 C417 1.463 . S
C420 N424 1.427 . S
C421 H411 0.921 1_545 S
C421 C419 1.433 . S
C421 N424 1.384 . S
C422 H413 0.929 1_545 S
C422 C414 1.378 . S
C422 C417 1.350 . S
C423 H410 0.929 . S
C423 C415 1.433 . S
C423 N425 1.384 . S
N424 C420 1.427 . S
N424 C421 1.384 . S
N425 C417 1.427 . S
N425 C423 1.384 . S
H426 C432 0.930 . S
H427 C436 0.930 . S
H428 C441 0.929 . S
H429 C439 0.929 . S
H430 C434 0.929 . S
H431 C440 0.929 . S
C432 H426 0.930 . S
C432 C433 1.367 . S
C432 C440 1.378 . S
C433 C432 1.367 . S
C433 C441 1.433 . S
C434 H430 0.929 . S
C434 C436 1.378 . S
C434 C438 1.350 . S
C435 C438 1.463 1_556 S
C435 C440 1.350 . S
C435 N443 1.427 . S
C436 H427 0.930 . S
C436 C434 1.378 . S
C436 C437 1.367 . S
C437 C436 1.367 . S
C437 C439 1.433 . S
C438 C434 1.350 . S
C438 C435 1.463 1_554 S
C438 N442 1.427 . S
C439 H429 0.929 . S
C439 C437 1.433 . S
C439 N442 1.384 . S
C440 H431 0.929 . S
C440 C432 1.378 . S
C440 C435 1.350 . S
C441 H428 0.929 . S
C441 C433 1.433 . S
C441 N443 1.384 . S
N442 C438 1.427 . S
N442 C439 1.384 . S
N443 C435 1.427 . S
N443 C441 1.384 . S
H444 C450 0.930 . S
H445 C454 0.930 . S
H446 C459 0.929 1_655 S
H447 C457 0.929 . S
H448 C452 0.929 . S
H449 C458 0.929 . S
C450 H444 0.930 . S
C450 C451 1.367 . S
C450 C458 1.378 . S
C451 C450 1.367 . S
C451 C459 1.433 . S
C452 H448 0.929 . S
C452 C454 1.378 . S
C452 C456 1.350 . S
C453 C456 1.463 . S
C453 C458 1.350 . S
C453 N461 1.427 . S
C454 H445 0.930 . S
C454 C452 1.378 . S
C454 C455 1.367 . S
C455 C454 1.367 . S
C455 C457 1.433 . S
C456 C452 1.350 . S
C456 C453 1.463 . S
C456 N460 1.427 . S
C457 H447 0.929 . S
C457 C455 1.433 . S
C457 N460 1.384 . S
C458 H449 0.929 . S
C458 C450 1.378 . S
C458 C453 1.350 . S
C459 H446 0.929 1_455 S
C459 C451 1.433 . S
C459 N461 1.384 . S
N460 C456 1.427 . S
N460 C457 1.384 . S
N461 C453 1.427 . S
N461 C459 1.384 . S
C145 C2 1.120 . S
C149 C129 1.040 . S
C163 C21 0.923 . S
C167 C107 0.930 . S
C181 C42 0.996 . S
C185 C120 0.983 1_565 S
C199 C1 0.921 . S
C203 C133 0.933 . S
C221 C103 1.099 . S
C217 C22 1.142 . S
C239 C116 1.014 . S
C235 C41 1.051 . S
C253 C38 1.789 . S
C257 C81 1.773 . S
C271 C59 1.865 . S
C275 C94 1.835 1_655 S
C289 C18 1.910 . S
C293 C64 1.773 . S
C311 C77 1.850 . S
C307 C39 2.005 . S
C329 C90 1.796 . S
C325 C58 1.923 . S
C343 C19 1.870 . S
C347 C68 1.843 . S
C365 C95 1.591 . S
C361 C9 1.547 . S
C379 C29 1.543 . S
C383 C69 1.567 . S
C397 C49 1.522 . S
C401 C82 1.619 . S
C419 C121 1.446 . S
C415 C28 1.402 . S
C437 C134 1.498 . S
C433 C48 1.485 . S
C451 C8 1.444 . S
C455 C108 1.471 . S
