# Generated by pormake.
# Topology ctn, (3,4)-cn, num edge types: 1
# Building blocks:
#     Node 0, Type 0, BuildingBlock: VETTIZ_charged_linker_0, # of connection points: 3
#     Node 1, Type 0, BuildingBlock: VETTIZ_charged_linker_0, # of connection points: 3
#     Node 2, Type 0, BuildingBlock: VETTIZ_charged_linker_0, # of connection points: 3
#     Node 3, Type 0, BuildingBlock: VETTIZ_charged_linker_0, # of connection points: 3
#     Node 4, Type 0, BuildingBlock: VETTIZ_charged_linker_0, # of connection points: 3
#     Node 5, Type 0, BuildingBlock: VETTIZ_charged_linker_0, # of connection points: 3
#     Node 6, Type 0, BuildingBlock: VETTIZ_charged_linker_0, # of connection points: 3
#     Node 7, Type 0, BuildingBlock: VETTIZ_charged_linker_0, # of connection points: 3
#     Node 8, Type 0, BuildingBlock: VETTIZ_charged_linker_0, # of connection points: 3
#     Node 9, Type 0, BuildingBlock: VETTIZ_charged_linker_0, # of connection points: 3
#     Node 10, Type 0, BuildingBlock: VETTIZ_charged_linker_0, # of connection points: 3
#     Node 11, Type 0, BuildingBlock: VETTIZ_charged_linker_0, # of connection points: 3
#     Node 12, Type 0, BuildingBlock: VETTIZ_charged_linker_0, # of connection points: 3
#     Node 13, Type 0, BuildingBlock: VETTIZ_charged_linker_0, # of connection points: 3
#     Node 14, Type 0, BuildingBlock: VETTIZ_charged_linker_0, # of connection points: 3
#     Node 15, Type 0, BuildingBlock: VETTIZ_charged_linker_0, # of connection points: 3
#     Node 16, Type 1, BuildingBlock: QUQFOY_clean_sbu_1, # of connection points: 4
#     Node 17, Type 1, BuildingBlock: QUQFOY_clean_sbu_1, # of connection points: 4
#     Node 18, Type 1, BuildingBlock: QUQFOY_clean_sbu_1, # of connection points: 4
#     Node 19, Type 1, BuildingBlock: QUQFOY_clean_sbu_1, # of connection points: 4
#     Node 20, Type 1, BuildingBlock: QUQFOY_clean_sbu_1, # of connection points: 4
#     Node 21, Type 1, BuildingBlock: QUQFOY_clean_sbu_1, # of connection points: 4
#     Node 22, Type 1, BuildingBlock: QUQFOY_clean_sbu_1, # of connection points: 4
#     Node 23, Type 1, BuildingBlock: QUQFOY_clean_sbu_1, # of connection points: 4
#     Node 24, Type 1, BuildingBlock: QUQFOY_clean_sbu_1, # of connection points: 4
#     Node 25, Type 1, BuildingBlock: QUQFOY_clean_sbu_1, # of connection points: 4
#     Node 26, Type 1, BuildingBlock: QUQFOY_clean_sbu_1, # of connection points: 4
#     Node 27, Type 1, BuildingBlock: QUQFOY_clean_sbu_1, # of connection points: 4
#     Edge 28, Type (0, 1), BuildingBlock: XIVTED_clean_linker_0, # of connection points: 2
#     Edge 29, Type (0, 1), BuildingBlock: XIVTED_clean_linker_0, # of connection points: 2
#     Edge 30, Type (0, 1), BuildingBlock: XIVTED_clean_linker_0, # of connection points: 2
#     Edge 31, Type (0, 1), BuildingBlock: XIVTED_clean_linker_0, # of connection points: 2
#     Edge 32, Type (0, 1), BuildingBlock: XIVTED_clean_linker_0, # of connection points: 2
#     Edge 33, Type (0, 1), BuildingBlock: XIVTED_clean_linker_0, # of connection points: 2
#     Edge 34, Type (0, 1), BuildingBlock: XIVTED_clean_linker_0, # of connection points: 2
#     Edge 35, Type (0, 1), BuildingBlock: XIVTED_clean_linker_0, # of connection points: 2
#     Edge 36, Type (0, 1), BuildingBlock: XIVTED_clean_linker_0, # of connection points: 2
#     Edge 37, Type (0, 1), BuildingBlock: XIVTED_clean_linker_0, # of connection points: 2
#     Edge 38, Type (0, 1), BuildingBlock: XIVTED_clean_linker_0, # of connection points: 2
#     Edge 39, Type (0, 1), BuildingBlock: XIVTED_clean_linker_0, # of connection points: 2
#     Edge 40, Type (0, 1), BuildingBlock: XIVTED_clean_linker_0, # of connection points: 2
#     Edge 41, Type (0, 1), BuildingBlock: XIVTED_clean_linker_0, # of connection points: 2
#     Edge 42, Type (0, 1), BuildingBlock: XIVTED_clean_linker_0, # of connection points: 2
#     Edge 43, Type (0, 1), BuildingBlock: XIVTED_clean_linker_0, # of connection points: 2
#     Edge 44, Type (0, 1), BuildingBlock: XIVTED_clean_linker_0, # of connection points: 2
#     Edge 45, Type (0, 1), BuildingBlock: XIVTED_clean_linker_0, # of connection points: 2
#     Edge 46, Type (0, 1), BuildingBlock: XIVTED_clean_linker_0, # of connection points: 2
#     Edge 47, Type (0, 1), BuildingBlock: XIVTED_clean_linker_0, # of connection points: 2
#     Edge 48, Type (0, 1), BuildingBlock: XIVTED_clean_linker_0, # of connection points: 2
#     Edge 49, Type (0, 1), BuildingBlock: XIVTED_clean_linker_0, # of connection points: 2
#     Edge 50, Type (0, 1), BuildingBlock: XIVTED_clean_linker_0, # of connection points: 2
#     Edge 51, Type (0, 1), BuildingBlock: XIVTED_clean_linker_0, # of connection points: 2
#     Edge 52, Type (0, 1), BuildingBlock: XIVTED_clean_linker_0, # of connection points: 2
#     Edge 53, Type (0, 1), BuildingBlock: XIVTED_clean_linker_0, # of connection points: 2
#     Edge 54, Type (0, 1), BuildingBlock: XIVTED_clean_linker_0, # of connection points: 2
#     Edge 55, Type (0, 1), BuildingBlock: XIVTED_clean_linker_0, # of connection points: 2
#     Edge 56, Type (0, 1), BuildingBlock: XIVTED_clean_linker_0, # of connection points: 2
#     Edge 57, Type (0, 1), BuildingBlock: XIVTED_clean_linker_0, # of connection points: 2
#     Edge 58, Type (0, 1), BuildingBlock: XIVTED_clean_linker_0, # of connection points: 2
#     Edge 59, Type (0, 1), BuildingBlock: XIVTED_clean_linker_0, # of connection points: 2
#     Edge 60, Type (0, 1), BuildingBlock: XIVTED_clean_linker_0, # of connection points: 2
#     Edge 61, Type (0, 1), BuildingBlock: XIVTED_clean_linker_0, # of connection points: 2
#     Edge 62, Type (0, 1), BuildingBlock: XIVTED_clean_linker_0, # of connection points: 2
#     Edge 63, Type (0, 1), BuildingBlock: XIVTED_clean_linker_0, # of connection points: 2
#     Edge 64, Type (0, 1), BuildingBlock: XIVTED_clean_linker_0, # of connection points: 2
#     Edge 65, Type (0, 1), BuildingBlock: XIVTED_clean_linker_0, # of connection points: 2
#     Edge 66, Type (0, 1), BuildingBlock: XIVTED_clean_linker_0, # of connection points: 2
#     Edge 67, Type (0, 1), BuildingBlock: XIVTED_clean_linker_0, # of connection points: 2
#     Edge 68, Type (0, 1), BuildingBlock: XIVTED_clean_linker_0, # of connection points: 2
#     Edge 69, Type (0, 1), BuildingBlock: XIVTED_clean_linker_0, # of connection points: 2
#     Edge 70, Type (0, 1), BuildingBlock: XIVTED_clean_linker_0, # of connection points: 2
#     Edge 71, Type (0, 1), BuildingBlock: XIVTED_clean_linker_0, # of connection points: 2
#     Edge 72, Type (0, 1), BuildingBlock: XIVTED_clean_linker_0, # of connection points: 2
#     Edge 73, Type (0, 1), BuildingBlock: XIVTED_clean_linker_0, # of connection points: 2
#     Edge 74, Type (0, 1), BuildingBlock: XIVTED_clean_linker_0, # of connection points: 2
#     Edge 75, Type (0, 1), BuildingBlock: XIVTED_clean_linker_0, # of connection points: 2
# Relax obj value: 0.036
# Max RMSD: 0.142
# Mean RMSD: 0.065
data_MOF--net-ctn--node1-QUQFOY_clean_sbu_1--node2-VETTIZ_charged_linker_0--edge1-XIVTED_clean_linker_0
_symmetry_space_group_name_H-M    P1
_symmetry_Int_Tables_number       1
_symmetry_cell_setting            triclinic
loop_
_symmetry_equiv_pos_as_xyz
'x, y, z'
_cell_length_a     67.268736
_cell_length_b     67.177875
_cell_length_c     67.375115
_cell_angle_alpha  92.786444
_cell_angle_beta   90.082997
_cell_angle_gamma 94.452998
loop_
_atom_site_label
_atom_site_type_symbol
_atom_site_fract_x
_atom_site_fract_y
_atom_site_fract_z
_atom_type_partial_charge
C0 C 0.04954 0.15089 0.0206 0.0
C1 C 0.0327 0.16207 0.02125 0.0
C2 C 0.02147 0.16301 0.03888 0.0
C3 C 0.04213 0.1398 0.05374 0.0
C4 C 0.05395 0.13987 0.03698 0.0
C5 C 0.07043 0.12607 0.03832 0.0
H6 H 0.10685 0.04845 0.08216 0.0
C7 C 0.04937 0.12523 0.0672 0.0
C8 C 0.06619 0.11735 0.05843 0.0
H9 H 0.12904 0.07772 0.02991 0.0
H10 H 0.10589 0.1031 0.03524 0.0
H11 H 0.10468 0.08896 0.10922 0.0
H12 H 0.06123 0.05224 0.07428 0.0
H13 H 0.05039 0.0581 0.09733 0.0
H14 H 0.07233 0.0445 0.09661 0.0
H15 H 0.09247 0.06665 0.11851 0.0
H16 H 0.08197 0.09055 0.1218 0.0
C17 C 0.09068 0.13876 0.03818 0.0
C18 C 0.0676 0.11003 0.02102 0.0
C19 C 0.00669 0.10368 0.12571 0.0
C20 C 0.00825 0.08853 0.13918 0.0
C21 C 0.02584 0.07844 0.13954 0.0
C22 C 0.0411 0.08245 0.12589 0.0
C23 C 0.03868 0.09654 0.11153 0.0
C24 C 0.02204 0.10739 0.11202 0.0
C25 C 0.02214 0.1218 0.09561 0.0
C26 C 0.04136 0.11744 0.08497 0.0
C27 C 0.05076 0.10239 0.0942 0.0
C28 C 0.02315 0.14335 0.1051 0.0
C29 C 0.00346 0.11603 0.08243 0.0
C30 C 0.10703 0.0605 0.07204 0.0
C31 C 0.11954 0.06077 0.05534 0.0
C32 C 0.11919 0.0768 0.04258 0.0
C33 C 0.10576 0.09156 0.04571 0.0
C34 C 0.09242 0.09027 0.06169 0.0
C35 C 0.0937 0.07536 0.07494 0.0
C36 C 0.0786 0.07655 0.09128 0.0
C37 C 0.06773 0.09436 0.08537 0.0
C38 C 0.07566 0.1021 0.06781 0.0
C39 C 0.08987 0.08075 0.11132 0.0
C40 C 0.0649 0.05685 0.09003 0.0
H41 H 0.0168 0.15306 0.06795 0.0
H42 H 0.05849 0.14992 0.00729 0.0
H43 H 0.05162 0.10452 0.01943 0.0
H44 H 0.07562 0.09663 0.02324 0.0
H45 H 0.07249 0.11629 0.00671 0.0
H46 H 0.08927 0.15416 0.0446 0.0
H47 H 0.09645 0.14008 0.02282 0.0
H48 H 0.10208 0.13267 0.04752 0.0
H49 H 0.99336 0.11171 0.1251 0.0
H50 H 0.02758 0.06704 0.15011 0.0
H51 H 0.05388 0.07392 0.12661 0.0
H52 H 0.03085 0.14428 0.11979 0.0
H53 H 0.008 0.14849 0.10748 0.0
H54 H 0.03198 0.15418 0.09613 0.0
H55 H 0.00111 0.0995 0.08005 0.0
H56 H 0.00463 0.12177 0.06742 0.0
H57 H 0.98984 0.12137 0.08956 0.0
H58 H 0.00873 0.17193 0.03993 0.0
C59 C 0.02617 0.15206 0.05514 0.0
C60 C 0.23652 0.65169 0.22382 0.0
C61 C 0.21733 0.64879 0.21536 0.0
C62 C 0.21055 0.66374 0.2036 0.0
C63 C 0.24137 0.6843 0.2099 0.0
C64 C 0.24807 0.66952 0.22115 0.0
C65 C 0.26807 0.67541 0.23051 0.0
H66 H 0.34415 0.74538 0.24901 0.0
C67 C 0.25665 0.70136 0.211 0.0
C68 C 0.27221 0.69629 0.2232 0.0
H69 H 0.33674 0.68521 0.26956 0.0
H70 H 0.3059 0.67932 0.25138 0.0
H71 H 0.29924 0.75591 0.25407 0.0
H72 H 0.33021 0.73232 0.20327 0.0
H73 H 0.31509 0.75045 0.19501 0.0
H74 H 0.33476 0.75772 0.21271 0.0
H75 H 0.31734 0.77094 0.24063 0.0
H76 H 0.29149 0.76792 0.23312 0.0
C77 C 0.26559 0.67554 0.25342 0.0
C78 C 0.28311 0.66088 0.22201 0.0
C79 C 0.24788 0.76215 0.17107 0.0
C80 C 0.25964 0.78011 0.16887 0.0
C81 C 0.27682 0.78434 0.18078 0.0
C82 C 0.28271 0.77042 0.19404 0.0
C83 C 0.27126 0.75211 0.19543 0.0
C84 C 0.25392 0.74845 0.18439 0.0
C85 C 0.24335 0.72843 0.18808 0.0
C86 C 0.25767 0.72031 0.20249 0.0
C87 C 0.27403 0.7342 0.2067 0.0
C88 C 0.22296 0.73195 0.19782 0.0
C89 C 0.24188 0.71589 0.16816 0.0
C90 C 0.336 0.73086 0.24942 0.0
C91 C 0.34285 0.7158 0.26091 0.0
C92 C 0.33164 0.69719 0.26114 0.0
C93 C 0.31375 0.69376 0.25048 0.0
C94 C 0.3069 0.70907 0.23941 0.0
C95 C 0.31808 0.72716 0.2388 0.0
C96 C 0.30861 0.74149 0.22587 0.0
C97 C 0.28971 0.72912 0.21918 0.0
C98 C 0.28884 0.71019 0.22722 0.0
C99 C 0.30399 0.76017 0.23894 0.0
C100 C 0.32284 0.74594 0.20831 0.0
H101 H 0.21642 0.69233 0.19188 0.0
H102 H 0.2424 0.64044 0.23267 0.0
H103 H 0.2795 0.65618 0.20626 0.0
H104 H 0.29854 0.66779 0.22161 0.0
H105 H 0.28283 0.64715 0.23058 0.0
H106 H 0.25076 0.68046 0.25791 0.0
H107 H 0.26678 0.6604 0.25902 0.0
H108 H 0.27642 0.68621 0.26147 0.0
H109 H 0.23443 0.75867 0.16232 0.0
H110 H 0.28613 0.79807 0.17927 0.0
H111 H 0.29615 0.77429 0.20242 0.0
H112 H 0.2235 0.74653 0.20645 0.0
H113 H 0.21101 0.73204 0.18643 0.0
H114 H 0.21849 0.72073 0.20877 0.0
H115 H 0.25612 0.71774 0.15982 0.0
H116 H 0.23926 0.69969 0.17011 0.0
H117 H 0.22983 0.72066 0.1586 0.0
H118 H 0.19577 0.66204 0.19704 0.0
C119 C 0.22248 0.68144 0.20079 0.0
C120 C 0.93255 0.40059 0.01397 0.0
C121 C 0.92451 0.40212 0.99488 0.0
C122 C 0.91457 0.41917 0.99072 0.0
C123 C 0.92156 0.43309 0.02409 0.0
C124 C 0.93098 0.4162 0.02825 0.0
C125 C 0.9397 0.41741 0.04887 0.0
H126 H 0.96064 0.47183 0.13431 0.0
C127 C 0.92337 0.44693 0.04183 0.0
C128 C 0.93394 0.4378 0.05642 0.0
H129 H 0.97769 0.41249 0.11799 0.0
H130 H 0.95935 0.41269 0.08711 0.0
H131 H 0.91459 0.46417 0.11877 0.0
H132 H 0.96874 0.48969 0.0932 0.0
H133 H 0.94968 0.50468 0.08691 0.0
H134 H 0.95577 0.50236 0.1127 0.0
H135 H 0.92556 0.48852 0.12649 0.0
H136 H 0.90828 0.48489 0.10586 0.0
C137 C 0.92923 0.40038 0.06065 0.0
C138 C 0.96262 0.41666 0.0471 0.0
C139 C 0.89598 0.51517 0.04011 0.0
C140 C 0.89585 0.53145 0.05405 0.0
C141 C 0.9043 0.5298 0.07301 0.0
C142 C 0.91294 0.51235 0.0779 0.0
C143 C 0.91318 0.49632 0.06369 0.0
C144 C 0.90465 0.49786 0.04523 0.0
C145 C 0.90617 0.47933 0.03204 0.0
C146 C 0.91708 0.46643 0.04563 0.0
C147 C 0.92122 0.47649 0.06408 0.0
C148 C 0.88477 0.47019 0.0271 0.0
C149 C 0.91879 0.48514 0.01366 0.0
C150 C 0.96009 0.45867 0.12432 0.0
C151 C 0.97058 0.44208 0.12865 0.0
C152 C 0.96985 0.4255 0.11494 0.0
C153 C 0.95919 0.42566 0.09704 0.0
C154 C 0.9493 0.44265 0.0927 0.0
C155 C 0.94966 0.45865 0.10639 0.0
C156 C 0.93873 0.47563 0.09922 0.0
C157 C 0.93191 0.4673 0.07882 0.0
C158 C 0.93815 0.44801 0.07506 0.0
C159 C 0.9209 0.47868 0.1133 0.0
C160 C 0.95384 0.49418 0.09801 0.0
H161 H 0.90536 0.44724 0.00112 0.0
H162 H 0.94055 0.38782 0.01753 0.0
H163 H 0.96834 0.42427 0.03372 0.0
H164 H 0.9709 0.42461 0.05964 0.0
H165 H 0.96683 0.40099 0.0458 0.0
H166 H 0.91312 0.39813 0.05668 0.0
H167 H 0.93597 0.38602 0.05733 0.0
H168 H 0.92955 0.40367 0.07687 0.0
H169 H 0.88929 0.51579 0.02554 0.0
H170 H 0.90449 0.54216 0.08397 0.0
H171 H 0.91925 0.51208 0.0925 0.0
H172 H 0.8747 0.47221 0.04001 0.0
H173 H 0.87837 0.47745 0.01435 0.0
H174 H 0.88403 0.45387 0.02386 0.0
H175 H 0.93077 0.49698 0.0178 0.0
H176 H 0.92674 0.47267 0.0071 0.0
H177 H 0.90941 0.49099 0.00202 0.0
H178 H 0.90809 0.42058 0.97618 0.0
C179 C 0.91298 0.43461 0.00524 0.0
C180 C 0.67092 0.78907 0.29063 0.0
C181 C 0.65729 0.77259 0.28609 0.0
C182 C 0.66197 0.75832 0.27117 0.0
C183 C 0.69337 0.77729 0.26526 0.0
C184 C 0.6887 0.79122 0.27995 0.0
C185 C 0.70398 0.80877 0.28176 0.0
H186 H 0.7876 0.85725 0.24732 0.0
C187 C 0.71269 0.78429 0.25663 0.0
C188 C 0.71898 0.80271 0.26626 0.0
H189 H 0.74633 0.87848 0.29122 0.0
H190 H 0.72768 0.84636 0.28946 0.0
H191 H 0.75332 0.83457 0.21754 0.0
H192 H 0.79072 0.8148 0.26337 0.0
H193 H 0.7862 0.79426 0.24637 0.0
H194 H 0.79946 0.81691 0.23838 0.0
H195 H 0.78009 0.83572 0.21669 0.0
H196 H 0.76535 0.81349 0.20858 0.0
C197 C 0.69379 0.82778 0.27633 0.0
C198 C 0.71297 0.80976 0.30298 0.0
C199 C 0.74174 0.74494 0.19881 0.0
C200 C 0.75985 0.74723 0.18834 0.0
C201 C 0.77431 0.76248 0.19503 0.0
C202 C 0.77033 0.77586 0.21086 0.0
C203 C 0.75177 0.77396 0.22033 0.0
C204 C 0.73819 0.75819 0.21486 0.0
C205 C 0.71996 0.75755 0.22779 0.0
C206 C 0.72455 0.77601 0.2414 0.0
C207 C 0.74297 0.78583 0.2366 0.0
C208 C 0.70152 0.75954 0.21443 0.0
C209 C 0.71918 0.73806 0.23927 0.0
C210 C 0.77445 0.85504 0.25644 0.0
C211 C 0.76834 0.87055 0.26925 0.0
C212 C 0.75146 0.86681 0.28129 0.0
C213 C 0.74051 0.84818 0.28011 0.0
C214 C 0.74633 0.83315 0.26661 0.0
C215 C 0.7632 0.83661 0.25525 0.0
C216 C 0.76696 0.81901 0.24147 0.0
C217 C 0.74909 0.8047 0.24594 0.0
C218 C 0.73713 0.81307 0.26069 0.0
C219 C 0.76651 0.82593 0.21988 0.0
C220 C 0.7869 0.8108 0.24752 0.0
H221 H 0.68269 0.74923 0.24951 0.0
H222 H 0.66744 0.80052 0.30169 0.0
H223 H 0.71581 0.79454 0.30757 0.0
H224 H 0.72754 0.81853 0.30413 0.0
H225 H 0.70262 0.81619 0.31395 0.0
H226 H 0.68055 0.82401 0.26654 0.0
H227 H 0.68864 0.836 0.28982 0.0
H228 H 0.7036 0.83807 0.26768 0.0
H229 H 0.73017 0.73351 0.19435 0.0
H230 H 0.78872 0.76427 0.18795 0.0
H231 H 0.78176 0.78734 0.21497 0.0
H232 H 0.70504 0.77062 0.20294 0.0
H233 H 0.69664 0.74504 0.20663 0.0
H234 H 0.68876 0.7651 0.22269 0.0
H235 H 0.73444 0.73368 0.24243 0.0
H236 H 0.71221 0.73968 0.25405 0.0
H237 H 0.71115 0.72543 0.23058 0.0
H238 H 0.65158 0.74555 0.26743 0.0
C239 C 0.68002 0.7605 0.26083 0.0
C240 C 0.0564 0.92418 0.49767 0.0
C241 C 0.04014 0.91015 0.49356 0.0
C242 C 0.02903 0.91145 0.47595 0.0
C243 C 0.04889 0.94168 0.46823 0.0
C244 C 0.06047 0.93976 0.48488 0.0
C245 C 0.07637 0.95664 0.48782 0.0
H246 H 0.11516 0.04761 0.46262 0.0
C247 C 0.05575 0.96061 0.45925 0.0
C248 C 0.07194 0.96936 0.4706 0.0
H249 H 0.13552 0.01098 0.5084 0.0
H250 H 0.11044 0.98466 0.49862 0.0
H251 H 0.06888 0.03817 0.4697 0.0
H252 H 0.10972 0.01198 0.4289 0.0
H253 H 0.08738 0.01374 0.4158 0.0
H254 H 0.10096 0.03621 0.42585 0.0
H255 H 0.07819 0.05059 0.44823 0.0
H256 H 0.05612 0.03351 0.44703 0.0
C257 C 0.07289 0.96753 0.50819 0.0
C258 C 0.09699 0.94792 0.48572 0.0
C259 C 0.01663 0.98563 0.40221 0.0
C260 C 0.01798 0.00372 0.39249 0.0
C261 C 0.03363 0.01826 0.3975 0.0
C262 C 0.04757 0.01497 0.4122 0.0
C263 C 0.04571 0.99704 0.42219 0.0
C264 C 0.03053 0.98267 0.41704 0.0
C265 C 0.03041 0.96489 0.42979 0.0
C266 C 0.04814 0.9709 0.44334 0.0
C267 C 0.05699 0.98975 0.43882 0.0
C268 C 0.01046 0.96347 0.44134 0.0
C269 C 0.03394 0.94621 0.41624 0.0
C270 C 0.11408 0.03397 0.47062 0.0
C271 C 0.12716 0.03139 0.48641 0.0
C272 C 0.12562 0.01325 0.49615 0.0
C273 C 0.11102 0.99803 0.49049 0.0
C274 C 0.0978 0.00098 0.47493 0.0
C275 C 0.09967 0.01858 0.46508 0.0
C276 C 0.08467 0.01886 0.44856 0.0
C277 C 0.07343 0.99855 0.45019 0.0
C278 C 0.08103 0.98827 0.4658 0.0
C279 C 0.07127 0.03622 0.45341 0.0
C280 C 0.09613 0.02042 0.42868 0.0
H281 H 0.02411 0.92749 0.45031 0.0
H282 H 0.06518 0.92369 0.5111 0.0
H283 H 0.09616 0.93426 0.47563 0.0
H284 H 0.10825 0.95831 0.47887 0.0
H285 H 0.10265 0.94375 0.50032 0.0
H286 H 0.0567 0.96895 0.51067 0.0
H287 H 0.07853 0.95914 0.52056 0.0
H288 H 0.07982 0.98295 0.50939 0.0
H289 H 0.00458 0.9743 0.39886 0.0
H290 H 0.03503 0.03223 0.39005 0.0
H291 H 0.05906 0.02667 0.41542 0.0
H292 H 0.00572 0.97861 0.44549 0.0
H293 H 0.99835 0.95542 0.43219 0.0
H294 H 0.01146 0.95617 0.45558 0.0
H295 H 0.0445 0.95012 0.40409 0.0
H296 H 0.04091 0.93454 0.4242 0.0
H297 H 0.01979 0.93969 0.40925 0.0
H298 H 0.0167 0.90057 0.47221 0.0
C299 C 0.03336 0.92708 0.46325 0.0
C300 C 0.26441 0.71197 0.79376 0.0
C301 C 0.26766 0.69934 0.77703 0.0
C302 C 0.25722 0.70196 0.75927 0.0
C303 C 0.23991 0.72863 0.77554 0.0
C304 C 0.25049 0.72626 0.79274 0.0
C305 C 0.24462 0.73986 0.8097 0.0
H306 H 0.1844 0.80825 0.84656 0.0
C307 C 0.22612 0.74442 0.77984 0.0
C308 C 0.22889 0.75101 0.79984 0.0
H309 H 0.23043 0.77994 0.87713 0.0
H310 H 0.23857 0.7621 0.84682 0.0
H311 H 0.16752 0.76862 0.81969 0.0
H312 H 0.20955 0.81851 0.8095 0.0
H313 H 0.19886 0.81145 0.78617 0.0
H314 H 0.18329 0.82011 0.80614 0.0
H315 H 0.16107 0.79397 0.81841 0.0
H316 H 0.1622 0.77789 0.79642 0.0
C317 C 0.2358 0.72667 0.82634 0.0
C318 C 0.26313 0.75394 0.81603 0.0
C319 C 0.17649 0.76222 0.72759 0.0
C320 C 0.1619 0.77617 0.72784 0.0
C321 C 0.16064 0.7895 0.74452 0.0
C322 C 0.173 0.78837 0.76105 0.0
C323 C 0.18678 0.77372 0.76101 0.0
C324 C 0.18887 0.76138 0.74426 0.0
C325 C 0.20497 0.7473 0.74681 0.0
C326 C 0.21166 0.75284 0.76806 0.0
C327 C 0.20065 0.76809 0.77635 0.0
C328 C 0.19538 0.7256 0.7445 0.0
C329 C 0.22169 0.75232 0.73168 0.0
C330 C 0.19629 0.79827 0.84671 0.0
C331 C 0.20657 0.79532 0.86439 0.0
C332 C 0.22192 0.78214 0.86387 0.0
C333 C 0.22676 0.7719 0.84618 0.0
C334 C 0.21615 0.77477 0.82872 0.0
C335 C 0.20133 0.78791 0.82913 0.0
C336 C 0.19183 0.78924 0.80907 0.0
C337 C 0.20318 0.77444 0.79665 0.0
C338 C 0.21729 0.76598 0.80828 0.0
C339 C 0.16944 0.78219 0.81084 0.0
C340 C 0.1959 0.81093 0.80231 0.0
H341 H 0.23569 0.71764 0.74462 0.0
H342 H 0.27238 0.71066 0.80755 0.0
H343 H 0.27223 0.75813 0.80288 0.0
H344 H 0.25919 0.7683 0.82304 0.0
H345 H 0.27285 0.74661 0.82633 0.0
H346 H 0.22822 0.71245 0.82 0.0
H347 H 0.24765 0.72271 0.83661 0.0
H348 H 0.22411 0.73373 0.83504 0.0
H349 H 0.17796 0.75195 0.71488 0.0
H350 H 0.14944 0.80026 0.74517 0.0
H351 H 0.17094 0.79861 0.77344 0.0
H352 H 0.18063 0.72431 0.75197 0.0
H353 H 0.193 0.7209 0.72858 0.0
H354 H 0.20424 0.71468 0.7515 0.0
H355 H 0.22365 0.7687 0.72968 0.0
H356 H 0.23643 0.74825 0.73662 0.0
H357 H 0.21812 0.74483 0.71689 0.0
H358 H 0.25932 0.69236 0.74619 0.0
C359 C 0.2434 0.71656 0.75843 0.0
C360 C 0.88152 0.52209 0.48685 0.0
C361 C 0.87735 0.50408 0.47568 0.0
C362 C 0.89013 0.4989 0.46005 0.0
C363 C 0.91138 0.52917 0.46749 0.0
C364 C 0.89845 0.53442 0.48243 0.0
C365 C 0.90475 0.55424 0.49268 0.0
H366 H 0.97327 0.63263 0.50584 0.0
C367 C 0.92777 0.54509 0.46712 0.0
C368 C 0.92386 0.55989 0.48171 0.0
H369 H 0.91698 0.62227 0.53593 0.0
H370 H 0.90949 0.59203 0.51566 0.0
H371 H 0.95625 0.62181 0.46288 0.0
H372 H 0.98515 0.58646 0.50418 0.0
H373 H 0.99556 0.58216 0.48056 0.0
H374 H 0.99769 0.60701 0.49199 0.0
H375 H 0.98283 0.62381 0.46601 0.0
H376 H 0.97042 0.6057 0.44853 0.0
C377 C 0.88846 0.56881 0.48904 0.0
C378 C 0.90867 0.55071 0.51486 0.0
C379 C 0.98578 0.53782 0.41989 0.0
C380 C 0.00285 0.55038 0.41594 0.0
C381 C 0.00631 0.56873 0.42688 0.0
C382 C 0.99294 0.57451 0.44157 0.0
C383 C 0.97585 0.56188 0.44527 0.0
C384 C 0.97245 0.54392 0.43445 0.0
C385 C 0.95307 0.53284 0.43982 0.0
C386 C 0.94549 0.54706 0.45575 0.0
C387 C 0.95896 0.56394 0.45896 0.0
C388 C 0.93936 0.53077 0.42119 0.0
C389 C 0.95786 0.51271 0.44825 0.0
C390 C 0.9594 0.62374 0.50809 0.0
C391 C 0.94574 0.62966 0.52255 0.0
C392 C 0.92765 0.61799 0.5248 0.0
C393 C 0.9234 0.6004 0.51309 0.0
C394 C 0.93736 0.59444 0.49894 0.0
C395 C 0.95486 0.60619 0.49641 0.0
C396 C 0.96759 0.59785 0.48017 0.0
C397 C 0.95497 0.57895 0.47364 0.0
C398 C 0.93742 0.57698 0.48481 0.0
C399 C 0.96958 0.61303 0.46352 0.0
C400 C 0.98765 0.59318 0.48954 0.0
H401 H 0.91651 0.50652 0.44401 0.0
H402 H 0.87169 0.52659 0.49868 0.0
H403 H 0.91643 0.53682 0.51639 0.0
H404 H 0.91851 0.56269 0.52233 0.0
H405 H 0.89446 0.54904 0.52321 0.0
H406 H 0.88032 0.5648 0.47483 0.0
H407 H 0.87728 0.56857 0.50115 0.0
H408 H 0.89473 0.58436 0.48742 0.0
H409 H 0.98257 0.52382 0.41141 0.0
H410 H 0.01941 0.57859 0.42404 0.0
H411 H 0.99639 0.58865 0.4494 0.0
H412 H 0.94239 0.5436 0.41149 0.0
H413 H 0.94169 0.51689 0.41214 0.0
H414 H 0.92339 0.53101 0.42492 0.0
H415 H 0.97111 0.51483 0.45826 0.0
H416 H 0.94576 0.50604 0.45741 0.0
H417 H 0.96122 0.50172 0.4361 0.0
H418 H 0.88709 0.48506 0.45126 0.0
C419 C 0.9072 0.51133 0.45594 0.0
C420 C 0.80077 0.79706 0.8705 0.0
C421 C 0.78356 0.7938 0.88208 0.0
C422 C 0.76599 0.80235 0.87652 0.0
C423 C 0.78241 0.81511 0.84717 0.0
C424 C 0.79977 0.80735 0.85306 0.0
C425 C 0.8161 0.80985 0.838 0.0
H426 H 0.84471 0.83306 0.74558 0.0
C427 C 0.78587 0.82312 0.82732 0.0
C428 C 0.80551 0.8199 0.82181 0.0
H429 H 0.88006 0.81127 0.79248 0.0
H430 H 0.85233 0.81253 0.81479 0.0
H431 H 0.82501 0.86708 0.77556 0.0
H432 H 0.8046 0.80775 0.75328 0.0
H433 H 0.78419 0.82254 0.75292 0.0
H434 H 0.80568 0.82883 0.73782 0.0
H435 H 0.81834 0.86142 0.74998 0.0
H436 H 0.79994 0.86734 0.76829 0.0
C437 C 0.8334 0.82372 0.84752 0.0
C438 C 0.82193 0.78874 0.83101 0.0
C439 C 0.73123 0.85676 0.79307 0.0
C440 C 0.72953 0.86462 0.77417 0.0
C441 C 0.74507 0.8622 0.76038 0.0
C442 C 0.76226 0.85308 0.76563 0.0
C443 C 0.76395 0.84607 0.78481 0.0
C444 C 0.74834 0.84744 0.79795 0.0
C445 C 0.75217 0.83803 0.81726 0.0
C446 C 0.7732 0.83195 0.81399 0.0
C447 C 0.78008 0.83678 0.79501 0.0
C448 C 0.75132 0.85415 0.83439 0.0
C449 C 0.73689 0.81969 0.81911 0.0
C450 C 0.84658 0.82877 0.76072 0.0
C451 C 0.86457 0.82168 0.7671 0.0
C452 C 0.86625 0.81626 0.78696 0.0
C453 C 0.85014 0.81711 0.79998 0.0
C454 C 0.83206 0.82346 0.79316 0.0
C455 C 0.83062 0.82965 0.774 0.0
C456 C 0.81045 0.83682 0.76974 0.0
C457 C 0.79991 0.83334 0.78935 0.0
C458 C 0.81262 0.82532 0.80287 0.0
C459 C 0.81342 0.85931 0.76552 0.0
C460 C 0.80064 0.82347 0.75246 0.0
H461 H 0.7515 0.81892 0.85553 0.0
H462 H 0.81464 0.79108 0.8745 0.0
H463 H 0.80848 0.77802 0.82954 0.0
H464 H 0.8289 0.78826 0.81622 0.0
H465 H 0.83218 0.78282 0.84184 0.0
H466 H 0.82779 0.83439 0.85896 0.0
H467 H 0.84439 0.81497 0.85489 0.0
H468 H 0.8412 0.83335 0.83665 0.0
H469 H 0.71982 0.8583 0.80421 0.0
H470 H 0.74407 0.86749 0.74552 0.0
H471 H 0.77362 0.85195 0.75456 0.0
H472 H 0.75957 0.86836 0.83032 0.0
H473 H 0.73568 0.85734 0.83769 0.0
H474 H 0.75835 0.84992 0.84822 0.0
H475 H 0.73115 0.81372 0.80432 0.0
H476 H 0.74356 0.8069 0.82557 0.0
H477 H 0.72383 0.82361 0.82815 0.0
H478 H 0.75246 0.80004 0.88507 0.0
C479 C 0.76537 0.81307 0.85919 0.0
C480 C 0.29693 0.28176 0.36538 0.0
C481 C 0.2795 0.27985 0.37685 0.0
C482 C 0.26237 0.28864 0.37046 0.0
C483 C 0.2801 0.30068 0.34157 0.0
C484 C 0.29686 0.29208 0.34787 0.0
C485 C 0.31403 0.29499 0.33381 0.0
H486 H 0.3501 0.32923 0.24735 0.0
C487 C 0.28498 0.31009 0.32263 0.0
C488 C 0.30481 0.30671 0.31798 0.0
H489 H 0.38084 0.29858 0.29186 0.0
H490 H 0.35143 0.29717 0.31213 0.0
H491 H 0.33141 0.35904 0.27816 0.0
H492 H 0.30742 0.30375 0.24954 0.0
H493 H 0.28915 0.32111 0.24864 0.0
H494 H 0.31279 0.32632 0.23668 0.0
H495 H 0.32193 0.35789 0.25321 0.0
H496 H 0.30599 0.36173 0.27438 0.0
C497 C 0.33131 0.30745 0.34501 0.0
C498 C 0.31932 0.27409 0.32562 0.0
C499 C 0.23441 0.35019 0.28957 0.0
C500 C 0.23554 0.36205 0.27294 0.0
C501 C 0.25238 0.36172 0.26055 0.0
C502 C 0.26826 0.35041 0.26512 0.0
C503 C 0.2674 0.33948 0.2824 0.0
C504 C 0.25053 0.33919 0.29411 0.0
C505 C 0.25258 0.32731 0.31226 0.0
C506 C 0.27366 0.32103 0.30979 0.0
C507 C 0.28222 0.32814 0.29224 0.0
C508 C 0.25058 0.34146 0.33091 0.0
C509 C 0.23689 0.30916 0.3108 0.0
C510 C 0.35063 0.3224 0.26155 0.0
C511 C 0.36787 0.31382 0.26784 0.0
C512 C 0.3677 0.30494 0.2864 0.0
C513 C 0.3506 0.30422 0.29824 0.0
C514 C 0.33343 0.31255 0.29157 0.0
C515 C 0.33371 0.32168 0.27364 0.0
C516 C 0.31434 0.33045 0.26935 0.0
C517 C 0.30221 0.32457 0.28743 0.0
C518 C 0.31346 0.31403 0.30032 0.0
C519 C 0.31848 0.35344 0.26857 0.0
C520 C 0.30538 0.32004 0.24998 0.0
H521 H 0.24906 0.30528 0.3488 0.0
H522 H 0.31044 0.27543 0.36995 0.0
H523 H 0.30559 0.26391 0.32311 0.0
H524 H 0.32672 0.27444 0.31103 0.0
H525 H 0.32895 0.26705 0.33624 0.0
H526 H 0.32548 0.3181 0.35633 0.0
H527 H 0.34099 0.29767 0.35284 0.0
H528 H 0.34058 0.31699 0.33515 0.0
H529 H 0.22178 0.35039 0.29952 0.0
H530 H 0.25347 0.37067 0.24759 0.0
H531 H 0.2808 0.35105 0.25531 0.0
H532 H 0.25795 0.35655 0.32849 0.0
H533 H 0.23467 0.34328 0.3344 0.0
H534 H 0.25797 0.33642 0.3442 0.0
H535 H 0.23443 0.30365 0.29508 0.0
H536 H 0.24164 0.29613 0.31845 0.0
H537 H 0.2223 0.31319 0.31683 0.0
H538 H 0.24866 0.28717 0.37885 0.0
C539 C 0.26258 0.29902 0.3529 0.0
C540 C 0.44766 0.91392 0.51288 0.0
C541 C 0.44127 0.91565 0.49323 0.0
C542 C 0.43182 0.93276 0.48829 0.0
C543 C 0.43481 0.9457 0.52251 0.0
C544 C 0.44436 0.92905 0.52717 0.0
C545 C 0.4508 0.92966 0.54856 0.0
H546 H 0.46145 0.9811 0.63678 0.0
C547 C 0.43375 0.95855 0.54085 0.0
C548 C 0.44314 0.94924 0.55613 0.0
H549 H 0.48295 0.92366 0.61978 0.0
H550 H 0.46652 0.92399 0.58801 0.0
H551 H 0.41724 0.97022 0.61937 0.0
H552 H 0.46938 0.00191 0.59597 0.0
H553 H 0.44862 0.01577 0.5921 0.0
H554 H 0.45567 0.01086 0.61701 0.0
H555 H 0.42371 0.99603 0.62621 0.0
H556 H 0.40851 0.98853 0.60459 0.0
C557 C 0.44001 0.91154 0.55852 0.0
C558 C 0.47389 0.93027 0.54917 0.0
C559 C 0.39873 0.02274 0.53997 0.0
C560 C 0.39394 0.03693 0.55493 0.0
C561 C 0.40076 0.03485 0.57449 0.0
C562 C 0.4119 0.01886 0.57906 0.0
C563 C 0.4162 0.00467 0.56398 0.0
C564 C 0.40953 0.00669 0.54485 0.0
C565 C 0.4146 0.98967 0.53092 0.0
C566 C 0.42533 0.97703 0.54489 0.0
C567 C 0.42644 0.98601 0.56416 0.0
C568 C 0.39485 0.97877 0.52289 0.0
C569 C 0.42864 0.99821 0.51467 0.0
C570 C 0.46232 0.96837 0.62643 0.0
C571 C 0.47378 0.95244 0.63079 0.0
C572 C 0.4746 0.93631 0.61669 0.0
C573 C 0.46502 0.93652 0.59823 0.0
C574 C 0.4545 0.95304 0.59376 0.0
C575 C 0.45284 0.96834 0.60795 0.0
C576 C 0.44081 0.98454 0.60069 0.0
C577 C 0.43637 0.97686 0.57948 0.0
C578 C 0.44448 0.95847 0.57551 0.0
C579 C 0.42161 0.98506 0.61337 0.0
C580 C 0.45417 0.00441 0.60153 0.0
H581 H 0.42113 0.96038 0.49823 0.0
H582 H 0.45534 0.90114 0.51703 0.0
H583 H 0.48059 0.93855 0.53659 0.0
H584 H 0.48045 0.93831 0.56259 0.0
H585 H 0.47908 0.91495 0.54809 0.0
H586 H 0.42458 0.90841 0.55257 0.0
H587 H 0.44801 0.89783 0.55572 0.0
H588 H 0.43815 0.91415 0.5747 0.0
H589 H 0.39407 0.02392 0.52472 0.0
H590 H 0.39709 0.04529 0.58642 0.0
H591 H 0.41656 0.01806 0.59421 0.0
H592 H 0.38322 0.97836 0.53463 0.0
H593 H 0.38899 0.98649 0.51017 0.0
H594 H 0.39629 0.96295 0.51832 0.0
H595 H 0.43884 0.01081 0.52089 0.0
H596 H 0.43861 0.98721 0.50844 0.0
H597 H 0.42001 0.00394 0.50239 0.0
H598 H 0.42674 0.93436 0.47323 0.0
C599 C 0.4285 0.94777 0.50284 0.0
C600 C 0.17306 0.30417 0.81 0.0
C601 C 0.16006 0.28694 0.80666 0.0
C602 C 0.16572 0.27167 0.79322 0.0
C603 C 0.19566 0.29206 0.78498 0.0
C604 C 0.19058 0.30648 0.79899 0.0
C605 C 0.20485 0.32481 0.79949 0.0
H606 H 0.28172 0.37789 0.75805 0.0
C607 C 0.21379 0.30005 0.77472 0.0
C608 C 0.21926 0.31918 0.78329 0.0
H609 H 0.24501 0.39587 0.80742 0.0
H610 H 0.22777 0.36303 0.80654 0.0
H611 H 0.24647 0.35647 0.73258 0.0
H612 H 0.28833 0.33393 0.77243 0.0
H613 H 0.28483 0.31601 0.75261 0.0
H614 H 0.29508 0.34098 0.74784 0.0
H615 H 0.27217 0.3544 0.72634 0.0
H616 H 0.25355 0.33399 0.72148 0.0
C617 C 0.19308 0.34282 0.79412 0.0
C618 C 0.21506 0.32702 0.82019 0.0
C619 C 0.23941 0.26269 0.71362 0.0
C620 C 0.2543 0.26797 0.6998 0.0
C621 C 0.26714 0.28528 0.70365 0.0
C622 C 0.26462 0.29773 0.72056 0.0
C623 C 0.24887 0.29301 0.7336 0.0
C624 C 0.23688 0.27549 0.73035 0.0
C625 C 0.22057 0.27331 0.74557 0.0
C626 C 0.22462 0.29254 0.75826 0.0
C627 C 0.24111 0.30406 0.75101 0.0
C628 C 0.20024 0.27252 0.73457 0.0
C629 C 0.22374 0.25462 0.7574 0.0
C630 C 0.26989 0.37481 0.76862 0.0
C631 C 0.2646 0.38961 0.7827 0.0
C632 C 0.24946 0.38475 0.79648 0.0
C633 C 0.23937 0.36568 0.79586 0.0
C634 C 0.24432 0.35132 0.78118 0.0
C635 C 0.25957 0.35591 0.7681 0.0
C636 C 0.26263 0.33893 0.75334 0.0
C637 C 0.24657 0.32341 0.75965 0.0
C638 C 0.23582 0.33082 0.77584 0.0
C639 C 0.25867 0.34618 0.73227 0.0
C640 C 0.28384 0.33208 0.7565 0.0
H641 H 0.18675 0.26223 0.77198 0.0
H642 H 0.16931 0.31604 0.82047 0.0
H643 H 0.21742 0.31212 0.82595 0.0
H644 H 0.23012 0.33485 0.81985 0.0
H645 H 0.2058 0.33495 0.83118 0.0
H646 H 0.18103 0.3381 0.78315 0.0
H647 H 0.18599 0.3495 0.80747 0.0
H648 H 0.2023 0.35462 0.78684 0.0
H649 H 0.22922 0.24954 0.71087 0.0
H650 H 0.27881 0.28948 0.69324 0.0
H651 H 0.27463 0.31091 0.72243 0.0
H652 H 0.20094 0.28296 0.72222 0.0
H653 H 0.19601 0.25726 0.72808 0.0
H654 H 0.18801 0.27728 0.7441 0.0
H655 H 0.23991 0.25303 0.75974 0.0
H656 H 0.21736 0.2555 0.77248 0.0
H657 H 0.21732 0.24079 0.74933 0.0
H658 H 0.15594 0.25825 0.79036 0.0
C659 C 0.18351 0.27411 0.78241 0.0
C660 C 0.74276 0.15199 0.71235 0.0
C661 C 0.72214 0.15076 0.70862 0.0
C662 C 0.71379 0.16698 0.70005 0.0
C663 C 0.74619 0.18556 0.70041 0.0
C664 C 0.75437 0.16947 0.70839 0.0
C665 C 0.77611 0.17368 0.71331 0.0
H666 H 0.85389 0.24145 0.72907 0.0
C667 C 0.76218 0.20185 0.69929 0.0
C668 C 0.77972 0.19496 0.70685 0.0
H669 H 0.84972 0.17846 0.74074 0.0
H670 H 0.81801 0.174 0.72399 0.0
H671 H 0.80863 0.25108 0.73747 0.0
H672 H 0.83922 0.23398 0.68417 0.0
H673 H 0.81924 0.24702 0.67621 0.0
H674 H 0.83837 0.25973 0.6921 0.0
H675 H 0.82861 0.26583 0.7262 0.0
H676 H 0.8033 0.26701 0.7183 0.0
C677 C 0.77855 0.17225 0.73609 0.0
C678 C 0.78807 0.15896 0.70058 0.0
C679 C 0.74748 0.26806 0.6713 0.0
C680 C 0.7597 0.28531 0.66701 0.0
C681 C 0.77996 0.2865 0.67289 0.0
C682 C 0.78788 0.27086 0.68252 0.0
C683 C 0.77558 0.25362 0.68617 0.0
C684 C 0.75577 0.25236 0.68049 0.0
C685 C 0.74529 0.23234 0.68442 0.0
C686 C 0.76223 0.22169 0.69293 0.0
C687 C 0.77982 0.23439 0.69429 0.0
C688 C 0.72875 0.23566 0.69993 0.0
C689 C 0.73764 0.22236 0.66433 0.0
C690 C 0.84632 0.22663 0.72778 0.0
C691 C 0.85408 0.21043 0.73691 0.0
C692 C 0.84379 0.19136 0.73454 0.0
C693 C 0.82535 0.18876 0.72476 0.0
C694 C 0.81703 0.20539 0.71725 0.0
C695 C 0.82787 0.22373 0.71795 0.0
C696 C 0.81709 0.23935 0.70789 0.0
C697 C 0.79739 0.22765 0.70253 0.0
C698 C 0.79742 0.20788 0.70831 0.0
C699 C 0.81426 0.25686 0.72316 0.0
C700 C 0.82906 0.2455 0.68919 0.0
H701 H 0.71844 0.19628 0.68967 0.0
H702 H 0.74976 0.13972 0.71863 0.0
H703 H 0.78041 0.1546 0.68619 0.0
H704 H 0.80292 0.16565 0.69634 0.0
H705 H 0.78991 0.14504 0.70842 0.0
H706 H 0.76599 0.17881 0.74415 0.0
H707 H 0.77868 0.15643 0.74016 0.0
H708 H 0.79205 0.18066 0.74223 0.0
H709 H 0.73183 0.26654 0.6673 0.0
H710 H 0.79002 0.29922 0.66947 0.0
H711 H 0.80338 0.27265 0.68647 0.0
H712 H 0.73355 0.24801 0.71092 0.0
H713 H 0.71488 0.23969 0.69268 0.0
H714 H 0.72525 0.22256 0.70894 0.0
H715 H 0.74855 0.22558 0.65229 0.0
H716 H 0.73579 0.2059 0.66446 0.0
H717 H 0.72327 0.22802 0.65996 0.0
H718 H 0.69792 0.16655 0.69717 0.0
C719 C 0.72571 0.18434 0.69588 0.0
C720 C 0.55868 0.65363 0.52538 0.0
C721 C 0.54317 0.66656 0.5255 0.0
C722 C 0.52967 0.66626 0.54154 0.0
C723 C 0.54618 0.63962 0.55593 0.0
C724 C 0.55981 0.64026 0.54062 0.0
C725 C 0.57432 0.62439 0.5419 0.0
H726 H 0.59889 0.5397 0.58276 0.0
C727 C 0.55043 0.62304 0.56846 0.0
C728 C 0.56699 0.61408 0.56041 0.0
H729 H 0.62683 0.56928 0.53323 0.0
H730 H 0.60601 0.59672 0.53842 0.0
H731 H 0.59774 0.58007 0.61148 0.0
H732 H 0.55527 0.54729 0.57211 0.0
H733 H 0.54245 0.5539 0.59381 0.0
H734 H 0.56283 0.5382 0.59535 0.0
H735 H 0.58423 0.55739 0.61836 0.0
H736 H 0.57437 0.58146 0.62281 0.0
C737 C 0.59553 0.63483 0.54487 0.0
C738 C 0.57173 0.61041 0.52292 0.0
C739 C 0.50287 0.60371 0.62413 0.0
C740 C 0.50191 0.58777 0.63694 0.0
C741 C 0.51757 0.57498 0.63686 0.0
C742 C 0.5335 0.57747 0.62366 0.0
C743 C 0.53374 0.59281 0.61022 0.0
C744 C 0.51886 0.6059 0.61089 0.0
C745 C 0.52155 0.62118 0.59533 0.0
C746 C 0.54038 0.61494 0.58512 0.0
C747 C 0.5473 0.59821 0.5938 0.0
C748 C 0.52486 0.64212 0.60604 0.0
C749 C 0.50314 0.6185 0.58128 0.0
C750 C 0.6008 0.55226 0.57326 0.0
C751 C 0.61432 0.55217 0.55738 0.0
C752 C 0.61621 0.56878 0.5453 0.0
C753 C 0.60412 0.5847 0.54834 0.0
C754 C 0.58982 0.58397 0.56351 0.0
C755 C 0.58874 0.56822 0.57602 0.0
C756 C 0.57264 0.56989 0.5913 0.0
C757 C 0.56392 0.589 0.5856 0.0
C758 C 0.5739 0.59708 0.56919 0.0
C759 C 0.5826 0.57218 0.61213 0.0
C760 C 0.55748 0.55137 0.58821 0.0
H761 H 0.52024 0.65337 0.56829 0.0
H762 H 0.56948 0.65355 0.51349 0.0
H763 H 0.55574 0.60802 0.51851 0.0
H764 H 0.57644 0.59528 0.52493 0.0
H765 H 0.58004 0.61693 0.51025 0.0
H766 H 0.59512 0.64898 0.55412 0.0
H767 H 0.60239 0.63862 0.53041 0.0
H768 H 0.60556 0.62576 0.553 0.0
H769 H 0.49103 0.61374 0.6238 0.0
H770 H 0.51736 0.56284 0.64689 0.0
H771 H 0.54475 0.56704 0.62412 0.0
H772 H 0.53359 0.64141 0.61999 0.0
H773 H 0.51043 0.64819 0.61006 0.0
H774 H 0.5337 0.65299 0.59716 0.0
H775 H 0.49745 0.6025 0.57952 0.0
H776 H 0.5065 0.62287 0.566 0.0
H777 H 0.49077 0.62704 0.5872 0.0
H778 H 0.51732 0.67569 0.54201 0.0
C779 C 0.5312 0.65304 0.55677 0.0
C780 C 0.55526 0.42688 0.99653 0.0
C781 C 0.53696 0.41528 0.99499 0.0
C782 C 0.52417 0.41787 0.97884 0.0
C783 C 0.54719 0.44425 0.96716 0.0
C784 C 0.56005 0.44116 0.98252 0.0
C785 C 0.57854 0.45522 0.98256 0.0
H786 H 0.62948 0.53556 0.94543 0.0
C787 C 0.55605 0.46113 0.95602 0.0
C788 C 0.5745 0.46749 0.96489 0.0
H789 H 0.64599 0.50093 0.99443 0.0
H790 H 0.61667 0.4783 0.98877 0.0
H791 H 0.58608 0.53697 0.95673 0.0
H792 H 0.61315 0.49665 0.91534 0.0
H793 H 0.59136 0.50392 0.90417 0.0
H794 H 0.61115 0.52261 0.91116 0.0
H795 H 0.59272 0.54394 0.93211 0.0
H796 H 0.56869 0.53156 0.93748 0.0
C797 C 0.57927 0.46801 0.00238 0.0
C798 C 0.59671 0.44266 0.97901 0.0
C799 C 0.51644 0.48936 0.90108 0.0
C800 C 0.51996 0.50627 0.88972 0.0
C801 C 0.5383 0.51781 0.89174 0.0
C802 C 0.55284 0.51277 0.9051 0.0
C803 C 0.54891 0.49615 0.91678 0.0
C804 C 0.53101 0.48468 0.91459 0.0
C805 C 0.52912 0.46809 0.92884 0.0
C806 C 0.54883 0.47152 0.93996 0.0
C807 C 0.56034 0.48795 0.93278 0.0
C808 C 0.51108 0.47152 0.94254 0.0
C809 C 0.52747 0.44789 0.91663 0.0
C810 C 0.62696 0.52285 0.95466 0.0
C811 C 0.64001 0.51995 0.97037 0.0
C812 C 0.63603 0.5035 0.98233 0.0
C813 C 0.61901 0.49039 0.979 0.0
C814 C 0.60569 0.4939 0.9637 0.0
C815 C 0.6099 0.50976 0.95167 0.0
C816 C 0.5937 0.51163 0.93664 0.0
C817 C 0.57912 0.4942 0.94156 0.0
C818 C 0.58621 0.48393 0.95743 0.0
C819 C 0.58483 0.53208 0.94073 0.0
C820 C 0.60269 0.5087 0.91565 0.0
H821 H 0.51875 0.43364 0.95313 0.0
H822 H 0.56538 0.42545 0.0088 0.0
H823 H 0.5927 0.42934 0.96892 0.0
H824 H 0.60916 0.45091 0.97151 0.0
H825 H 0.60218 0.43723 0.99317 0.0
H826 H 0.56401 0.47139 0.00715 0.0
H827 H 0.58598 0.46003 0.01447 0.0
H828 H 0.58747 0.48278 0.00126 0.0
H829 H 0.50236 0.48036 0.89999 0.0
H830 H 0.54135 0.5308 0.88298 0.0
H831 H 0.56645 0.5222 0.90602 0.0
H832 H 0.5101 0.48774 0.94622 0.0
H833 H 0.49685 0.46571 0.9352 0.0
H834 H 0.51214 0.46474 0.95704 0.0
H835 H 0.53677 0.44876 0.90301 0.0
H836 H 0.5331 0.43558 0.92478 0.0
H837 H 0.51183 0.44365 0.91187 0.0
H838 H 0.51017 0.40885 0.97705 0.0
C839 C 0.52921 0.43223 0.96492 0.0
C840 C 0.76749 0.19914 0.29295 0.0
C841 C 0.76988 0.18689 0.27576 0.0
C842 C 0.75972 0.19088 0.25823 0.0
C843 C 0.74408 0.21799 0.27569 0.0
C844 C 0.75453 0.21436 0.29264 0.0
C845 C 0.74957 0.22774 0.31013 0.0
H846 H 0.69195 0.29657 0.35051 0.0
C847 C 0.73113 0.23432 0.28079 0.0
C848 C 0.73436 0.24006 0.30095 0.0
H849 H 0.73912 0.26767 0.37875 0.0
H850 H 0.74588 0.25016 0.34784 0.0
H851 H 0.67401 0.25822 0.32247 0.0
H852 H 0.71656 0.30806 0.31389 0.0
H853 H 0.70587 0.302 0.29038 0.0
H854 H 0.69036 0.31011 0.31064 0.0
H855 H 0.66802 0.28382 0.32254 0.0
H856 H 0.66853 0.26873 0.29982 0.0
C857 C 0.7403 0.21437 0.32639 0.0
C858 C 0.76875 0.24071 0.31666 0.0
C859 C 0.68216 0.25633 0.23 0.0
C860 C 0.66806 0.27078 0.23103 0.0
C861 C 0.66707 0.2832 0.2484 0.0
C862 C 0.67927 0.28077 0.26478 0.0
C863 C 0.69264 0.26573 0.26387 0.0
C864 C 0.69438 0.25418 0.24652 0.0
C865 C 0.70993 0.23935 0.24826 0.0
C866 C 0.71687 0.24371 0.26963 0.0
C867 C 0.70639 0.25895 0.27872 0.0
C868 C 0.69955 0.21804 0.24507 0.0
C869 C 0.72673 0.24446 0.23324 0.0
C870 C 0.70383 0.28658 0.3501 0.0
C871 C 0.71478 0.28338 0.36733 0.0
C872 C 0.73003 0.27009 0.36594 0.0
C873 C 0.73411 0.26005 0.34788 0.0
C874 C 0.72289 0.26331 0.3309 0.0
C875 C 0.70826 0.27661 0.33213 0.0
C876 C 0.69849 0.27894 0.31238 0.0
C877 C 0.70936 0.26441 0.29918 0.0
C878 C 0.72343 0.25515 0.31016 0.0
C879 C 0.67604 0.27221 0.31427 0.0
C880 C 0.70286 0.30089 0.30646 0.0
H881 H 0.73926 0.20849 0.24443 0.0
H882 H 0.77535 0.19675 0.30658 0.0
H883 H 0.77849 0.24401 0.3037 0.0
H884 H 0.76562 0.25555 0.32318 0.0
H885 H 0.77758 0.23296 0.32743 0.0
H886 H 0.73073 0.20156 0.31962 0.0
H887 H 0.75206 0.20815 0.33527 0.0
H888 H 0.73033 0.22219 0.33656 0.0
H889 H 0.68339 0.24669 0.21676 0.0
H890 H 0.65621 0.29428 0.24968 0.0
H891 H 0.67741 0.29037 0.2777 0.0
H892 H 0.68473 0.21701 0.25243 0.0
H893 H 0.69713 0.21406 0.22901 0.0
H894 H 0.70787 0.20646 0.25166 0.0
H895 H 0.72935 0.26092 0.23206 0.0
H896 H 0.74126 0.23952 0.23777 0.0
H897 H 0.7228 0.23785 0.21818 0.0
H898 H 0.76124 0.18162 0.24479 0.0
C899 C 0.74685 0.20639 0.2581 0.0
C900 C 0.39256 0.01995 0.99474 0.0
C901 C 0.3896 0.0011 0.98478 0.0
C902 C 0.40459 0.99441 0.97209 0.0
C903 C 0.42468 0.02556 0.97885 0.0
C904 C 0.41013 0.03183 0.99163 0.0
C905 C 0.41558 0.05215 0.00127 0.0
H906 H 0.48233 0.13219 0.01409 0.0
C907 C 0.44091 0.04166 0.97874 0.0
C908 C 0.43571 0.0572 0.99195 0.0
H909 H 0.42533 0.12177 0.04284 0.0
H910 H 0.41918 0.0905 0.02377 0.0
H911 H 0.46694 0.11893 0.97128 0.0
H912 H 0.49573 0.08723 0.01561 0.0
H913 H 0.50692 0.08165 0.99261 0.0
H914 H 0.50802 0.10717 0.00234 0.0
H915 H 0.49346 0.12154 0.97474 0.0
H916 H 0.48154 0.10233 0.95809 0.0
C917 C 0.39988 0.06639 0.99502 0.0
C918 C 0.41724 0.0499 0.024 0.0
C919 C 0.49935 0.03578 0.93176 0.0
C920 C 0.51562 0.04917 0.92725 0.0
C921 C 0.51871 0.06746 0.93836 0.0
C922 C 0.5055 0.07258 0.95343 0.0
C923 C 0.4889 0.05937 0.95733 0.0
C924 C 0.48612 0.04124 0.9467 0.0
C925 C 0.46723 0.02946 0.95241 0.0
C926 C 0.459 0.04368 0.96796 0.0
C927 C 0.47182 0.06109 0.97081 0.0
C928 C 0.45358 0.02631 0.93379 0.0
C929 C 0.47292 0.00988 0.96141 0.0
C930 C 0.46858 0.12309 0.01632 0.0
C931 C 0.45436 0.12927 0.03007 0.0
C932 C 0.43644 0.11729 0.03226 0.0
C933 C 0.43299 0.0991 0.02128 0.0
C934 C 0.44757 0.09289 0.0079 0.0
C935 C 0.46487 0.10496 0.00542 0.0
C936 C 0.47846 0.09626 0.99019 0.0
C937 C 0.46674 0.07664 0.98441 0.0
C938 C 0.44872 0.07474 0.99483 0.0
C939 C 0.48041 0.11045 0.97267 0.0
C940 C 0.49844 0.09296 0.00055 0.0
H941 H 0.43291 0.00077 0.95906 0.0
H942 H 0.38146 0.02532 0.00488 0.0
H943 H 0.4232 0.03542 0.0273 0.0
H944 H 0.42776 0.06137 0.03138 0.0
H945 H 0.40243 0.05035 0.03122 0.0
H946 H 0.3948 0.06274 0.97945 0.0
H947 H 0.38654 0.06515 0.0047 0.0
H948 H 0.40582 0.08219 0.99512 0.0
H949 H 0.49649 0.02175 0.92325 0.0
H950 H 0.53126 0.07791 0.93518 0.0
H951 H 0.50855 0.08679 0.96123 0.0
H952 H 0.45442 0.03997 0.92503 0.0
H953 H 0.45814 0.01376 0.92391 0.0
H954 H 0.43766 0.0235 0.93742 0.0
H955 H 0.48734 0.01228 0.96962 0.0
H956 H 0.46208 0.0043 0.97253 0.0
H957 H 0.47456 0.99797 0.94963 0.0
H958 H 0.40257 0.97993 0.96424 0.0
C959 C 0.42212 0.00656 0.96905 0.0
O960 O 0.22157 0.86974 0.0033 0.0
Cd961 Cd 0.23721 0.88481 0.02643 0.0
Cd962 Cd 0.21678 0.91663 0.01108 0.0
O963 O 0.20555 0.89409 0.99149 0.0
O964 O 0.24927 0.86228 0.03862 0.0
O965 O 0.229 0.88145 0.05504 0.0
C966 C 0.23991 0.86646 0.05474 0.0
C967 C 0.19571 0.94129 0.0209 0.0
C968 C 0.20968 0.87595 0.99076 0.0
C969 C 0.26199 0.92021 0.01179 0.0
O970 O 0.24581 0.92755 0.00741 0.0
O971 O 0.26182 0.90342 0.01969 0.0
O972 O 0.20221 0.93952 0.00301 0.0
O973 O 0.20076 0.92858 0.03339 0.0
O974 O 0.13424 0.51915 0.26654 0.0
Cd975 Cd 0.11953 0.49433 0.27824 0.0
Cd976 Cd 0.0904 0.50629 0.25554 0.0
O977 O 0.11205 0.52574 0.24421 0.0
O978 O 0.14194 0.48101 0.28946 0.0
O979 O 0.12244 0.467 0.26533 0.0
C980 C 0.13773 0.46626 0.27683 0.0
C981 C 0.06755 0.48891 0.23395 0.0
C982 C 0.12912 0.52931 0.25222 0.0
C983 C 0.08497 0.50845 0.30002 0.0
O984 O 0.07938 0.51366 0.28316 0.0
O985 O 0.10034 0.49879 0.30154 0.0
O986 O 0.06668 0.50767 0.23845 0.0
O987 O 0.08193 0.47989 0.24133 0.0
O988 O 0.76291 0.69187 -0.00029 0.0
Cd989 Cd 0.75889 0.6702 0.02043 0.0
Cd990 Cd 0.78563 0.65198 0.99859 0.0
O991 O 0.78835 0.67868 0.98489 0.0
O992 O 0.74596 0.68212 0.0442 0.0
O993 O 0.77685 0.67272 0.04434 0.0
C994 C 0.7623 0.6803 0.05375 0.0
C995 C 0.81307 0.63782 0.01124 0.0
C996 C 0.77673 0.69268 0.98684 0.0
C997 C 0.74536 0.63089 -0.00015 0.0
O998 O 0.76193 0.63196 0.99083 0.0
O999 O 0.74165 0.64413 0.01314 0.0
O1000 O 0.80985 0.63778 0.99235 0.0
O1001 O 0.80108 0.64677 0.02298 0.0
O1002 O 0.90719 0.0198 0.28172 0.0
Cd1003 Cd 0.88743 0.0239 0.25918 0.0
Cd1004 Cd 0.8679 0.04015 0.28852 0.0
O1005 O 0.89404 0.03947 0.30436 0.0
O1006 O 0.90294 0.01833 0.23483 0.0
O1007 O 0.89275 0.04816 0.24299 0.0
C1008 C 0.90257 0.03692 0.2311 0.0
C1009 C 0.85276 0.06976 0.28559 0.0
C1010 C 0.90786 0.02863 0.29883 0.0
C1011 C 0.84947 0.00192 0.27008 0.0
O1012 O 0.8498 0.01395 0.28524 0.0
O1013 O 0.86237 0.0044 0.2565 0.0
O1014 O 0.85165 0.06024 0.30178 0.0
O1015 O 0.86303 0.06264 0.27106 0.0
O1016 O 0.2559 0.20099 0.51012 0.0
Cd1017 Cd 0.24747 0.18345 0.53332 0.0
Cd1018 Cd 0.27432 0.15885 0.51637 0.0
O1019 O 0.27813 0.18177 0.49714 0.0
O1020 O 0.23574 0.20175 0.55319 0.0
O1021 O 0.26258 0.18575 0.55916 0.0
C1022 C 0.24976 0.19803 0.56523 0.0
C1023 C 0.30207 0.14156 0.52353 0.0
C1024 C 0.26884 0.19752 0.49696 0.0
C1025 C 0.23086 0.14303 0.5197 0.0
O1026 O 0.24856 0.14022 0.51439 0.0
O1027 O 0.22676 0.15968 0.52774 0.0
O1028 O 0.2938 0.14018 0.50625 0.0
O1029 O 0.29508 0.15359 0.53684 0.0
O1030 O 0.40519 0.53339 0.78628 0.0
Cd1031 Cd 0.38424 0.53946 0.76549 0.0
Cd1032 Cd 0.3688 0.55651 0.7968 0.0
O1033 O 0.3961 0.55431 0.81011 0.0
O1034 O 0.39694 0.53191 0.73996 0.0
O1035 O 0.39053 0.56296 0.74844 0.0
C1036 C 0.39803 0.55049 0.73591 0.0
C1037 C 0.35491 0.58673 0.79361 0.0
C1038 C 0.40823 0.54215 0.80327 0.0
C1039 C 0.34639 0.51987 0.77982 0.0
O1040 O 0.34927 0.53123 0.79535 0.0
O1041 O 0.35766 0.52216 0.76487 0.0
O1042 O 0.35479 0.5782 0.81038 0.0
O1043 O 0.36371 0.57838 0.77871 0.0
O1044 O 0.72332 0.36545 0.50506 0.0
Cd1045 Cd 0.73237 0.38561 0.52811 0.0
Cd1046 Cd 0.70997 0.40948 0.50795 0.0
O1047 O 0.7011 0.38353 0.49206 0.0
O1048 O 0.74632 0.36978 0.54709 0.0
O1049 O 0.71838 0.38383 0.55454 0.0
C1050 C 0.73258 0.37328 0.55976 0.0
C1051 C 0.68684 0.43164 0.51855 0.0
C1052 C 0.70972 0.36739 0.49233 0.0
C1053 C 0.75351 0.42075 0.50944 0.0
O1054 O 0.7372 0.42305 0.50073 0.0
O1055 O 0.75435 0.40764 0.5223 0.0
O1056 O 0.69108 0.42888 0.50003 0.0
O1057 O 0.69521 0.42106 0.53121 0.0
O1058 O 0.63887 0.02452 0.76712 0.0
Cd1059 Cd 0.62285 0.00034 0.77882 0.0
Cd1060 Cd 0.59293 0.01423 0.75935 0.0
O1061 O 0.61487 0.03307 0.74769 0.0
O1062 O 0.64244 0.98219 0.78803 0.0
O1063 O 0.62148 0.97413 0.76293 0.0
C1064 C 0.6357 0.96943 0.77428 0.0
C1065 C 0.56935 0.99756 0.73812 0.0
C1066 C 0.63278 0.03546 0.75384 0.0
C1067 C 0.59002 0.01503 0.8036 0.0
O1068 O 0.58324 0.02101 0.78755 0.0
O1069 O 0.60534 0.00515 0.8034 0.0
O1070 O 0.56879 0.01629 0.74299 0.0
O1071 O 0.58373 0.98819 0.74502 0.0
O1072 O 0.9571 0.27708 0.89911 0.0
Cd1073 Cd 0.96814 0.25277 0.88431 0.0
Cd1074 Cd 0.98547 0.28076 0.86209 0.0
O1075 O 0.97396 0.30036 0.88269 0.0
O1076 O 0.96351 0.23082 0.90287 0.0
O1077 O 0.99363 0.24318 0.89453 0.0
C1078 C 0.98259 0.23105 0.90491 0.0
C1079 C 0.01939 0.28299 0.85558 0.0
C1080 C 0.96199 0.2954 0.89648 0.0
C1081 C 0.9562 0.25126 0.84136 0.0
O1082 O 0.96696 0.26754 0.84011 0.0
O1083 O 0.95525 0.24237 0.85761 0.0
O1084 O 0.00789 0.29557 0.84873 0.0
O1085 O 0.0116 0.26921 0.86654 0.0
O1086 O 0.47146 0.78714 0.40319 0.0
Cd1087 Cd 0.47846 0.76008 0.39063 0.0
Cd1088 Cd 0.4929 0.78442 0.36309 0.0
O1089 O 0.48589 0.80772 0.38216 0.0
O1090 O 0.47412 0.74266 0.41342 0.0
O1091 O 0.50356 0.74824 0.39927 0.0
C1092 C 0.49292 0.74019 0.41313 0.0
C1093 C 0.52495 0.7821 0.35125 0.0
C1094 C 0.47612 0.80481 0.39801 0.0
C1095 C 0.45907 0.75446 0.35089 0.0
O1096 O 0.47029 0.76963 0.34632 0.0
O1097 O 0.46044 0.74734 0.36792 0.0
O1098 O 0.5132 0.79412 0.3438 0.0
O1099 O 0.51865 0.77177 0.366 0.0
O1100 O 0.98011 0.78341 0.66649 0.0
Cd1101 Cd 0.00023 0.77309 0.64599 0.0
Cd1102 Cd 0.97996 0.79519 0.62149 0.0
O1103 O 0.96617 0.80405 0.64721 0.0
O1104 O 0.02016 0.76028 0.66179 0.0
O1105 O 0.02785 0.78687 0.64437 0.0
C1106 C 0.03345 0.77348 0.65585 0.0
C1107 C 0.99231 0.81898 0.59991 0.0
C1108 C 0.96785 0.79658 0.66402 0.0
C1109 C 0.97818 0.75148 0.61155 0.0
O1110 O 0.97094 0.76786 0.6081 0.0
O1111 O 0.99078 0.75067 0.62547 0.0
O1112 O 0.97343 0.81452 0.60169 0.0
O1113 O 0.00435 0.81027 0.61099 0.0
O1114 O 0.48824 0.28636 0.16905 0.0
Cd1115 Cd 0.5081 0.27716 0.14778 0.0
Cd1116 Cd 0.48513 0.29851 0.12427 0.0
O1117 O 0.47203 0.30622 0.15077 0.0
O1118 O 0.52752 0.26318 0.16312 0.0
O1119 O 0.53613 0.29034 0.14694 0.0
C1120 C 0.54122 0.27628 0.15785 0.0
C1121 C 0.49636 0.32308 0.10303 0.0
C1122 C 0.47502 0.29871 0.16735 0.0
C1123 C 0.48519 0.25512 0.11377 0.0
O1124 O 0.47682 0.271 0.11078 0.0
O1125 O 0.49854 0.255 0.12709 0.0
O1126 O 0.4776 0.31813 0.10512 0.0
O1127 O 0.50889 0.31438 0.11358 0.0
H1128 H 0.1972 0.83426 0.86987 0.0
H1129 H 0.21104 0.83537 0.9867 0.0
H1130 H 0.20492 0.78125 0.90193 0.0
H1131 H 0.1928 0.88588 0.95592 0.0
H1132 H 0.20541 0.81447 0.95631 0.0
H1133 H 0.19226 0.85263 0.90139 0.0
C1134 C 0.19757 0.82639 0.8835 0.0
C1135 C 0.20177 0.80623 0.88325 0.0
C1136 C 0.20234 0.83005 0.95626 0.0
C1137 C 0.19642 0.82729 0.91943 0.0
C1138 C 0.20555 0.842 0.97363 0.0
C1139 C 0.20269 0.86248 0.97377 0.0
C1140 C 0.1965 0.83869 0.93882 0.0
C1141 C 0.19536 0.8702 0.95645 0.0
C1142 C 0.19481 0.83692 0.90152 0.0
C1143 C 0.20224 0.7969 0.90143 0.0
N1144 N 0.19284 0.85837 0.93956 0.0
N1145 N 0.19983 0.80756 0.91878 0.0
H1146 H 0.01693 0.57325 0.386 0.0
H1147 H 0.08487 0.49243 0.33676 0.0
H1148 H 0.01944 0.51477 0.4092 0.0
H1149 H 0.0597 0.5381 0.30388 0.0
H1150 H 0.06583 0.50292 0.36603 0.0
H1151 H 0.03805 0.56323 0.3583 0.0
C1152 C 0.02213 0.55837 0.38534 0.0
C1153 C 0.01647 0.54478 0.39981 0.0
C1154 C 0.06454 0.51058 0.35236 0.0
C1155 C 0.04051 0.53324 0.36829 0.0
C1156 C 0.0754 0.50466 0.33572 0.0
C1157 C 0.07376 0.51435 0.31787 0.0
C1158 C 0.05234 0.52652 0.35116 0.0
C1159 C 0.06128 0.53011 0.3173 0.0
C1160 C 0.03403 0.55262 0.3695 0.0
C1161 C 0.0234 0.52559 0.3982 0.0
N1162 N 0.05113 0.53577 0.33373 0.0
N1163 N 0.03514 0.52037 0.3827 0.0
H1164 H 0.80246 0.75936 0.88368 0.0
H1165 H 0.75478 0.72557 0.98596 0.0
H1166 H 0.76434 0.79648 0.91827 0.0
H1167 H 0.80333 0.69779 0.95665 0.0
H1168 H 0.75722 0.75154 0.96154 0.0
H1169 H 0.80209 0.73645 0.91037 0.0
C1170 C 0.79423 0.76291 0.89702 0.0
C1171 C 0.78361 0.78009 0.89875 0.0
C1172 C 0.76741 0.73982 0.9606 0.0
C1173 C 0.78268 0.75336 0.92937 0.0
C1174 C 0.76603 0.72499 0.97451 0.0
C1175 C 0.77878 0.70938 0.97328 0.0
C1176 C 0.78154 0.7389 0.94532 0.0
C1177 C 0.7931 0.70943 0.95816 0.0
C1178 C 0.79392 0.74967 0.91225 0.0
C1179 C 0.77266 0.78338 0.91621 0.0
N1180 N 0.79398 0.72385 0.94473 0.0
N1181 N 0.77241 0.77008 0.93084 0.0
H1182 H 0.00294 0.97908 0.36167 0.0
H1183 H 0.91815 0.04965 0.33374 0.0
H1184 H 0.99797 0.03738 0.39017 0.0
H1185 H 0.93566 0.00117 0.2948 0.0
H1186 H 0.94566 0.04412 0.35613 0.0
H1187 H 0.97648 0.98558 0.33841 0.0
C1188 C 0.99627 0.99325 0.36298 0.0
C1189 C 0.00263 0.00774 0.37779 0.0
C1190 C 0.9435 0.03477 0.34263 0.0
C1191 C 0.97237 0.01523 0.3514 0.0
C1192 C 0.92778 0.03787 0.32989 0.0
C1193 C 0.9246 0.02585 0.31238 0.0
C1194 C 0.95595 0.01938 0.33795 0.0
C1195 C 0.93758 0.01083 0.30811 0.0
C1196 C 0.98126 0.99699 0.34968 0.0
C1197 C 0.99362 0.02591 0.37881 0.0
N1198 N 0.9526 0.00794 0.32087 0.0
N1199 N 0.97883 0.0291 0.36587 0.0
H1200 H 0.25613 0.22757 0.69222 0.0
H1201 H 0.23412 0.23262 0.5773 0.0
H1202 H 0.25375 0.28325 0.66336 0.0
H1203 H 0.26829 0.18612 0.59856 0.0
H1204 H 0.23612 0.24925 0.61034 0.0
H1205 H 0.25598 0.20984 0.65928 0.0
C1206 C 0.25566 0.236 0.67895 0.0
C1207 C 0.25508 0.25685 0.68038 0.0
C1208 C 0.24322 0.23543 0.60776 0.0
C1209 C 0.25451 0.23684 0.64309 0.0
C1210 C 0.24201 0.22588 0.58896 0.0
C1211 C 0.2511 0.208 0.58522 0.0
C1212 C 0.25324 0.22686 0.62307 0.0
C1213 C 0.26118 0.19996 0.60085 0.0
C1214 C 0.25565 0.22595 0.66026 0.0
C1215 C 0.25443 0.26718 0.66284 0.0
N1216 N 0.26186 0.20938 0.61923 0.0
N1217 N 0.25397 0.25705 0.64492 0.0
H1218 H 0.48194 0.61438 0.66023 0.0
H1219 H 0.40959 0.52746 0.70436 0.0
H1220 H 0.48148 0.55185 0.64213 0.0
H1221 H 0.41214 0.58865 0.72752 0.0
H1222 H 0.43242 0.53753 0.67808 0.0
H1223 H 0.45339 0.60653 0.68194 0.0
C1224 C 0.47574 0.59905 0.66074 0.0
C1225 C 0.48425 0.58369 0.64962 0.0
C1226 C 0.42789 0.54884 0.68877 0.0
C1227 C 0.45169 0.57464 0.67422 0.0
C1228 C 0.41479 0.54309 0.70377 0.0
C1229 C 0.40916 0.5572 0.71828 0.0
C1230 C 0.43563 0.56883 0.68834 0.0
C1231 C 0.41619 0.57728 0.71666 0.0
C1232 C 0.4595 0.59458 0.67312 0.0
C1233 C 0.47567 0.56409 0.65078 0.0
N1234 N 0.42931 0.58249 0.70208 0.0
N1235 N 0.45995 0.56014 0.66291 0.0
H1236 H 0.77091 0.32583 0.6689 0.0
H1237 H 0.70233 0.353 0.57918 0.0
H1238 H 0.73059 0.28153 0.63784 0.0
H1239 H 0.76446 0.37378 0.58434 0.0
H1240 H 0.70579 0.33377 0.60909 0.0
H1241 H 0.76166 0.35048 0.64574 0.0
C1242 C 0.76004 0.32122 0.6574 0.0
C1243 C 0.75192 0.30129 0.65518 0.0
C1244 C 0.71848 0.34293 0.60385 0.0
C1245 C 0.74066 0.32981 0.6293 0.0
C1246 C 0.71651 0.35393 0.58695 0.0
C1247 C 0.73319 0.3648 0.5794 0.0
C1248 C 0.7371 0.34339 0.61338 0.0
C1249 C 0.75132 0.36543 0.58974 0.0
C1250 C 0.75465 0.3354 0.64435 0.0
C1251 C 0.73727 0.29661 0.64037 0.0
N1252 N 0.75282 0.35483 0.60625 0.0
N1253 N 0.7322 0.31073 0.62793 0.0
H1254 H 0.51164 0.94066 0.63534 0.0
H1255 H 0.53196 0.00862 0.73219 0.0
H1256 H 0.46443 0.96727 0.66807 0.0
H1257 H 0.57146 0.9635 0.71425 0.0
H1258 H 0.50703 0.99344 0.70864 0.0
H1259 H 0.53364 0.94776 0.66404 0.0
C1260 C 0.50571 0.94759 0.64868 0.0
C1261 C 0.48618 0.95365 0.64914 0.0
C1262 C 0.52104 0.98668 0.71 0.0
C1263 C 0.51153 0.96227 0.68183 0.0
C1264 C 0.53533 0.99543 0.72333 0.0
C1265 C 0.55384 0.98739 0.72498 0.0
C1266 C 0.52544 0.97002 0.6979 0.0
C1267 C 0.55736 0.97016 0.71334 0.0
C1268 C 0.51836 0.95173 0.66503 0.0
C1269 C 0.47951 0.96282 0.66681 0.0
N1270 N 0.54338 0.96219 0.7 0.0
N1271 N 0.49226 0.96714 0.68233 0.0
H1272 H 0.86004 0.1928 0.77195 0.0
H1273 H 0.95444 0.26605 0.8042 0.0
H1274 H 0.88802 0.23584 0.73308 0.0
H1275 H 0.92986 0.21806 0.83933 0.0
H1276 H 0.93182 0.25401 0.77705 0.0
H1277 H 0.88712 0.20036 0.79559 0.0
C1278 C 0.87206 0.20359 0.76815 0.0
C1279 C 0.87166 0.2137 0.7504 0.0
C1280 C 0.93151 0.24602 0.79064 0.0
C1281 C 0.90261 0.22288 0.77791 0.0
C1282 C 0.94441 0.25289 0.80617 0.0
C1283 C 0.9439 0.24317 0.82417 0.0
C1284 C 0.91795 0.22939 0.79317 0.0
C1285 C 0.93068 0.22613 0.8258 0.0
C1286 C 0.88749 0.20803 0.78181 0.0
C1287 C 0.8875 0.2279 0.74668 0.0
N1288 N 0.91813 0.2199 0.81057 0.0
N1289 N 0.90225 0.23219 0.76041 0.0
H1290 H 0.43418 0.87556 0.49681 0.0
H1291 H 0.4827 0.84517 0.39241 0.0
H1292 H 0.45578 0.91912 0.45538 0.0
H1293 H 0.45568 0.80313 0.43282 0.0
H1294 H 0.47281 0.87267 0.41462 0.0
H1295 H 0.44168 0.84891 0.47285 0.0
C1296 C 0.44051 0.87949 0.48262 0.0
C1297 C 0.44452 0.89954 0.47811 0.0
C1298 C 0.469 0.8574 0.41853 0.0
C1299 C 0.45316 0.86909 0.45051 0.0
C1300 C 0.47467 0.84171 0.40589 0.0
C1301 C 0.47009 0.8218 0.41078 0.0
C1302 C 0.45877 0.85309 0.43617 0.0
C1303 C 0.45962 0.8182 0.42842 0.0
C1304 C 0.44473 0.86427 0.46889 0.0
C1305 C 0.4524 0.90382 0.45937 0.0
N1306 N 0.45439 0.83366 0.44045 0.0
N1307 N 0.45663 0.88869 0.44627 0.0
H1308 H 0.13929 0.25497 0.82339 0.0
H1309 H 0.04079 0.31323 0.83788 0.0
H1310 H 0.13486 0.31667 0.81006 0.0
H1311 H 0.04651 0.25521 0.86121 0.0
H1312 H 0.07542 0.31422 0.8274 0.0
H1313 H 0.10536 0.25404 0.83695 0.0
C1314 C 0.13122 0.2683 0.82338 0.0
C1315 C 0.13995 0.28595 0.81571 0.0
C1316 C 0.06919 0.30129 0.83491 0.0
C1317 C 0.10131 0.285 0.83108 0.0
C1318 C 0.04938 0.30071 0.84088 0.0
C1319 C 0.04074 0.28409 0.85038 0.0
C1320 C 0.08049 0.28504 0.83825 0.0
C1321 C 0.05262 0.26833 0.85394 0.0
C1322 C 0.11193 0.2678 0.83119 0.0
C1323 C 0.12888 0.30284 0.81613 0.0
N1324 N 0.0719 0.26912 0.84774 0.0
N1325 N 0.11016 0.3019 0.82359 0.0
H1326 H 0.54965 0.65818 0.48564 0.0
H1327 H 0.47895 0.73625 0.4505 0.0
H1328 H 0.52919 0.70399 0.52619 0.0
H1329 H 0.52753 0.72079 0.41243 0.0
H1330 H 0.49418 0.72008 0.4777 0.0
H1331 H 0.53992 0.6774 0.45774 0.0
C1332 C 0.54348 0.6724 0.48877 0.0
C1333 C 0.53997 0.67926 0.50843 0.0
C1334 C 0.50153 0.72027 0.46341 0.0
C1335 C 0.52826 0.70084 0.47651 0.0
C1336 C 0.49278 0.72931 0.44783 0.0
C1337 C 0.50198 0.72976 0.42919 0.0
C1338 C 0.51938 0.71117 0.46024 0.0
C1339 C 0.52 0.72073 0.42662 0.0
C1340 C 0.53783 0.68326 0.47279 0.0
C1341 C 0.53162 0.69771 0.51138 0.0
N1342 N 0.52805 0.71153 0.44197 0.0
N1343 N 0.52573 0.70766 0.49562 0.0
H1344 H 0.88966 0.79144 0.76468 0.0
H1345 H 0.94258 0.82668 0.66534 0.0
H1346 H 0.87754 0.84606 0.73727 0.0
H1347 H 0.96271 0.77964 0.70002 0.0
H1348 H 0.91872 0.83417 0.69141 0.0
H1349 H 0.91647 0.78698 0.74106 0.0
C1350 C 0.89277 0.80266 0.75386 0.0
C1351 C 0.8813 0.8192 0.75304 0.0
C1352 C 0.92847 0.82232 0.69338 0.0
C1353 C 0.91183 0.8139 0.72559 0.0
C1354 C 0.94209 0.81801 0.67849 0.0
C1355 C 0.95459 0.80241 0.68043 0.0
C1356 C 0.92718 0.81083 0.71024 0.0
C1357 C 0.95335 0.79176 0.69785 0.0
C1358 C 0.90805 0.80002 0.74029 0.0
C1359 C 0.88578 0.83294 0.73832 0.0
N1360 N 0.93976 0.79605 0.712 0.0
N1361 N 0.90064 0.82993 0.72511 0.0
H1362 H 0.06349 0.88818 0.51638 0.0
H1363 H 0.97022 0.84035 0.57602 0.0
H1364 H 0.00216 0.89893 0.50496 0.0
H1365 H 0.03108 0.82926 0.58931 0.0
H1366 H 0.98208 0.8618 0.5498 0.0
H1367 H 0.05231 0.86615 0.54276 0.0
C1368 C 0.04769 0.88585 0.51936 0.0
C1369 C 0.03374 0.89539 0.5084 0.0
C1370 C 0.99289 0.85474 0.55844 0.0
C1371 C 0.02088 0.87026 0.53851 0.0
C1372 C 0.98613 0.8425 0.57348 0.0
C1373 C -0.00031 0.83298 0.58487 0.0
C1374 C 0.01341 0.85751 0.55466 0.0
C1375 C 0.02012 0.83635 0.58089 0.0
C1376 C 0.04132 0.87326 0.53439 0.0
C1377 C 0.01344 0.89167 0.51276 0.0
N1378 N 0.02638 0.84832 0.56605 0.0
N1379 N 0.00766 0.87948 0.5275 0.0
H1380 H 0.14757 0.80776 0.70947 0.0
H1381 H 0.05103 0.74242 0.67102 0.0
H1382 H 0.14097 0.74343 0.71056 0.0
H1383 H 0.06344 0.8037 0.65554 0.0
H1384 H 0.08476 0.74245 0.68419 0.0
H1385 H 0.11801 0.80672 0.68806 0.0
C1386 C 0.14007 0.79341 0.70493 0.0
C1387 C 0.1466 0.77567 0.71194 0.0
C1388 C 0.08024 0.75585 0.67774 0.0
C1389 C 0.11273 0.77437 0.68769 0.0
C1390 C 0.06092 0.75588 0.67031 0.0
C1391 C 0.05438 0.77316 0.66238 0.0
C1392 C 0.09307 0.77335 0.67757 0.0
C1393 C 0.06789 0.79009 0.66162 0.0
C1394 C 0.12324 0.79282 0.69269 0.0
C1395 C 0.1365 0.75746 0.70545 0.0
N1396 N 0.08656 0.78986 0.6694 0.0
N1397 N 0.11989 0.75731 0.69395 0.0
H1398 H 0.98043 0.64024 0.54265 0.0
H1399 H 0.94739 0.74553 0.58472 0.0
H1400 H 0.92194 0.65988 0.53214 0.0
H1401 H 0.99615 0.71636 0.60937 0.0
H1402 H 0.93916 0.71577 0.56298 0.0
H1403 H 0.98805 0.6699 0.56465 0.0
C1404 C 0.96925 0.65089 0.54491 0.0
C1405 C 0.95055 0.64769 0.53561 0.0
C1406 C 0.9516 0.71589 0.57323 0.0
C1407 C 0.9591 0.68151 0.56072 0.0
C1408 C 0.95633 0.73286 0.58559 0.0
C1409 C 0.97249 0.73341 0.59887 0.0
C1410 C 0.96327 0.69951 0.57398 0.0
C1411 C 0.98353 0.71656 0.59941 0.0
C1412 C 0.97354 0.6677 0.55756 0.0
C1413 C 0.93648 0.66178 0.53918 0.0
N1414 N 0.97879 0.70034 0.58704 0.0
N1415 N 0.94107 0.67817 0.55141 0.0
H1416 H 0.777 0.89674 0.3013 0.0
H1417 H 0.84167 0.97552 0.23832 0.0
H1418 H 0.78392 0.89051 0.23763 0.0
H1419 H 0.82489 0.98747 0.29933 0.0
H1420 H 0.82056 0.94427 0.23781 0.0
H1421 H 0.79465 0.92992 0.30104 0.0
C1422 C 0.78212 0.90237 0.28725 0.0
C1423 C 0.77907 0.89072 0.26948 0.0
C1424 C 0.82136 0.9538 0.25126 0.0
C1425 C 0.79946 0.92862 0.26912 0.0
C1426 C 0.83342 0.97166 0.25157 0.0
C1427 C 0.83514 0.98408 0.26893 0.0
C1428 C 0.81111 0.9482 0.26851 0.0
C1429 C 0.82403 0.97834 0.28562 0.0
C1430 C 0.79223 0.9213 0.28713 0.0
C1431 C 0.78627 0.89874 0.25176 0.0
N1432 N 0.81263 0.96072 0.28506 0.0
N1433 N 0.79619 0.91714 0.25205 0.0
H1434 H 0.77128 0.16099 0.30555 0.0
H1435 H 0.85079 0.09318 0.25333 0.0
H1436 H 0.79623 0.17298 0.24796 0.0
H1437 H 0.82961 0.08738 0.3134 0.0
H1438 H 0.83081 0.12195 0.25031 0.0
H1439 H 0.79216 0.13328 0.30781 0.0
C1440 C 0.78129 0.15789 0.2934 0.0
C1441 C 0.78217 0.16952 0.27664 0.0
C1442 C 0.83063 0.1144 0.26415 0.0
C1443 C 0.80606 0.13742 0.27901 0.0
C1444 C 0.84204 0.09801 0.2659 0.0
C1445 C 0.84183 0.08783 0.28364 0.0
C1446 C 0.81891 0.12054 0.28023 0.0
C1447 C 0.83022 0.09472 0.29943 0.0
C1448 C 0.79317 0.14195 0.29466 0.0
C1449 C 0.79503 0.16437 0.26113 0.0
N1450 N 0.81921 0.11056 0.29732 0.0
N1451 N 0.80653 0.1487 0.2627 0.0
H1452 H 0.35185 0.01301 0.98415 0.0
H1453 H 0.29991 0.9082 0.01544 0.0
H1454 H 0.38459 0.96113 0.99169 0.0
H1455 H 0.26767 0.95783 0.99818 0.0
H1456 H 0.33124 0.92736 0.00796 0.0
H1457 H 0.32089 0.99299 0.99033 0.0
C1458 C 0.35248 0.99737 0.98714 0.0
C1459 C 0.37077 0.98871 0.98753 0.0
C1460 C 0.31728 0.93399 0.00578 0.0
C1461 C 0.3354 0.96565 0.99457 0.0
C1462 C 0.29941 0.92311 0.0101 0.0
C1463 C 0.28113 0.93143 0.00747 0.0
C1464 C 0.31684 0.95336 -0.0011 0.0
C1465 C 0.28138 0.95078 0.00044 0.0
C1466 C 0.33481 0.98591 0.99057 0.0
C1467 C 0.37075 0.96831 0.99116 0.0
N1468 N 0.29894 0.96108 0.99647 0.0
N1469 N 0.35331 0.95747 0.99467 0.0
H1470 H 0.24229 0.40156 0.2665 0.0
H1471 H 0.12931 0.4279 0.26107 0.0
H1472 H 0.19465 0.35561 0.27332 0.0
H1473 H 0.17647 0.46746 0.28802 0.0
H1474 H 0.15269 0.40139 0.25784 0.0
H1475 H 0.2177 0.4264 0.26564 0.0
C1476 C 0.22661 0.39666 0.26743 0.0
C1477 C 0.22045 0.37654 0.27 0.0
C1478 C 0.15778 0.41592 0.26445 0.0
C1479 C 0.19232 0.40487 0.26916 0.0
C1480 C 0.14453 0.43099 0.26627 0.0
C1481 C 0.15098 0.44981 0.27493 0.0
C1482 C 0.17761 0.42004 0.27084 0.0
C1483 C 0.17083 0.45311 0.28142 0.0
C1484 C 0.21263 0.41084 0.26712 0.0
C1485 C 0.19995 0.37103 0.27144 0.0
N1486 N 0.18347 0.43843 0.2791 0.0
N1487 N 0.18653 0.38517 0.27101 0.0
H1488 H 0.16653 0.02823 0.49466 0.0
H1489 H 0.19029 0.14485 0.52222 0.0
H1490 H 0.12229 0.07126 0.4923 0.0
H1491 H 0.23555 0.10391 0.50937 0.0
H1492 H 0.16464 0.11745 0.51529 0.0
H1493 H 0.19161 0.05532 0.50423 0.0
C1494 C 0.1621 0.04338 0.4963 0.0
C1495 C 0.14237 0.04756 0.49263 0.0
C1496 C 0.1802 0.11452 0.51403 0.0
C1497 C 0.17091 0.07858 0.50348 0.0
C1498 C 0.19483 0.13011 0.51803 0.0
C1499 C 0.21508 0.12668 0.51627 0.0
C1500 C 0.1859 0.09537 0.50843 0.0
C1501 C 0.22012 0.10728 0.51079 0.0
C1502 C 0.17641 0.05883 0.50164 0.0
C1503 C 0.13742 0.06747 0.49477 0.0
N1504 N 0.20563 0.09237 0.50708 0.0
N1505 N 0.15161 0.08227 0.50008 0.0
H1506 H 0.72551 0.12979 0.74212 0.0
H1507 H 0.62632 0.05873 0.72254 0.0
H1508 H 0.68945 0.13156 0.68923 0.0
H1509 H 0.67017 0.0488 0.76714 0.0
H1510 H 0.64839 0.08622 0.71071 0.0
H1511 H 0.70457 0.10089 0.75212 0.0
C1512 C 0.71332 0.12398 0.73246 0.0
C1513 C 0.70937 0.13308 0.71468 0.0
C1514 C 0.65321 0.07795 0.72302 0.0
C1515 C 0.68498 0.10012 0.72636 0.0
C1516 C 0.64061 0.06228 0.72981 0.0
C1517 C 0.64637 0.05148 0.74592 0.0
C1518 C 0.67162 0.08299 0.73251 0.0
C1519 C 0.6651 0.0567 0.7547 0.0
C1520 C 0.70128 0.10752 0.73826 0.0
C1521 C 0.69297 0.12517 0.70313 0.0
N1522 N 0.67699 0.07217 0.74795 0.0
N1523 N 0.68134 0.10916 0.70919 0.0
H1524 H 0.36282 0.03543 0.52845 0.0
H1525 H 0.32474 0.14132 0.55766 0.0
H1526 H 0.39559 0.07574 0.57093 0.0
H1527 H 0.31523 0.11156 0.49977 0.0
H1528 H 0.34848 0.11666 0.56542 0.0
H1529 H 0.34239 0.06222 0.52045 0.0
C1530 C 0.36594 0.04995 0.53596 0.0
C1531 C 0.38123 0.05329 0.55024 0.0
C1532 C 0.34129 0.11576 0.55097 0.0
C1533 C 0.35727 0.08399 0.54149 0.0
C1534 C 0.32777 0.12977 0.54654 0.0
C1535 C 0.31793 0.12843 0.52808 0.0
C1536 C 0.34459 0.10021 0.53696 0.0
C1537 C 0.3224 0.11317 0.51422 0.0
C1538 C 0.35413 0.06523 0.53145 0.0
C1539 C 0.38391 0.07235 0.55996 0.0
N1540 N 0.33521 0.09955 0.51903 0.0
N1541 N 0.37198 0.08699 0.55547 0.0
H1542 H 0.63252 0.52831 0.58289 0.0
H1543 H 0.6647 0.45323 0.49495 0.0
H1544 H 0.62035 0.53474 0.5207 0.0
H1545 H 0.67993 0.44662 0.55642 0.0
H1546 H 0.64657 0.48201 0.50481 0.0
H1547 H 0.64867 0.49762 0.57413 0.0
C1548 C 0.63327 0.52329 0.5674 0.0
C1549 C 0.62519 0.53419 0.55248 0.0
C1550 C 0.65377 0.47425 0.51621 0.0
C1551 C 0.64354 0.49913 0.5424 0.0
C1552 C 0.66409 0.45773 0.51059 0.0
C1553 C 0.67394 0.44756 0.52488 0.0
C1554 C 0.65332 0.48078 0.5363 0.0
C1555 C 0.67254 0.45405 0.54492 0.0
C1556 C 0.64249 0.5058 0.56242 0.0
C1557 C 0.62669 0.52706 0.53267 0.0
N1558 N 0.66253 0.47037 0.55004 0.0
N1559 N 0.63564 0.51 0.52823 0.0
H1560 H 0.70357 0.32168 0.37319 0.0
H1561 H 0.72362 0.33001 0.48845 0.0
H1562 H 0.71692 0.27016 0.40534 0.0
H1563 H 0.68726 0.3699 0.45886 0.0
H1564 H 0.72173 0.30762 0.45861 0.0
H1565 H 0.69816 0.3397 0.40462 0.0
C1566 C 0.7051 0.31399 0.38679 0.0
C1567 C 0.71076 0.29429 0.38648 0.0
C1568 C 0.71391 0.32112 0.45882 0.0
C1569 C 0.70507 0.3152 0.42269 0.0
C1570 C 0.71497 0.33391 0.47583 0.0
C1571 C 0.7058 0.35199 0.47608 0.0
C1572 C 0.70389 0.32666 0.4419 0.0
C1573 C 0.69471 0.35622 0.45932 0.0
C1574 C 0.70207 0.32438 0.40478 0.0
C1575 C 0.71298 0.28543 0.40478 0.0
N1576 N 0.69435 0.34381 0.44281 0.0
N1577 N 0.71034 0.29602 0.42215 0.0
H1578 H 0.52664 0.07375 0.89764 0.0
H1579 H 0.59309 0.99731 0.83918 0.0
H1580 H 0.53328 0.01459 0.91767 0.0
H1581 H 0.56461 0.04412 0.81108 0.0
H1582 H 0.57616 0.00594 0.87031 0.0
H1583 H 0.54599 0.06576 0.86804 0.0
C1584 C 0.5324 0.05916 0.89589 0.0
C1585 C 0.52841 0.04479 0.91005 0.0
C1586 C 0.57367 0.01427 0.85729 0.0
C1587 C 0.5504 0.03553 0.87627 0.0
C1588 C 0.58334 0.00942 0.83958 0.0
C1589 C 0.58016 0.01997 0.82253 0.0
C1590 C 0.56108 0.03 0.85796 0.0
C1591 C 0.56737 0.0355 0.82383 0.0
C1592 C 0.54328 0.05456 0.87895 0.0
C1593 C 0.53597 0.02601 0.90698 0.0
N1594 N 0.55837 0.04011 0.84127 0.0
N1595 N 0.54668 0.0219 0.89038 0.0
H1596 H 0.29656 0.24491 0.38288 0.0
H1597 H 0.25234 0.23302 0.49199 0.0
H1598 H 0.26153 0.28855 0.41249 0.0
H1599 H 0.29281 0.19324 0.46446 0.0
H1600 H 0.25597 0.25397 0.46339 0.0
H1601 H 0.2957 0.22612 0.41293 0.0
C1602 C 0.28883 0.25065 0.39576 0.0
C1603 C 0.27912 0.26838 0.39514 0.0
C1604 C 0.26415 0.24073 0.46367 0.0
C1605 C 0.27784 0.24672 0.42959 0.0
C1606 C 0.2621 0.22876 0.48001 0.0
C1607 C 0.2722 0.21126 0.48059 0.0
C1608 C 0.2763 0.23512 0.44775 0.0
C1609 C 0.28469 0.20654 0.46466 0.0
C1610 C 0.28827 0.23985 0.41291 0.0
C1611 C 0.269 0.27484 0.41219 0.0
N1612 N 0.28627 0.21832 0.44884 0.0
N1613 N 0.26858 0.26399 0.42871 0.0
H1614 H 0.50631 0.54328 0.88709 0.0
H1615 H 0.43164 0.51102 0.79721 0.0
H1616 H 0.49794 0.48284 0.86214 0.0
H1617 H 0.42417 0.56249 0.83664 0.0
H1618 H 0.45946 0.50266 0.81772 0.0
H1619 H 0.47959 0.55273 0.86548 0.0
C1620 C 0.49893 0.53206 0.87693 0.0
C1621 C 0.50428 0.51226 0.87634 0.0
C1622 C 0.45174 0.51579 0.82186 0.0
C1623 C 0.47386 0.52293 0.85168 0.0
C1624 C 0.43591 0.52064 0.81012 0.0
C1625 C 0.42552 0.53747 0.81526 0.0
C1626 C 0.45741 0.52798 0.83871 0.0
C1627 C 0.43171 0.54934 0.8322 0.0
C1628 C 0.48364 0.53741 0.86474 0.0
C1629 C 0.49414 0.49823 0.86311 0.0
N1630 N 0.44732 0.5444 0.84331 0.0
N1631 N 0.47945 0.50385 0.85122 0.0
H1632 H 0.74532 0.70817 0.17903 0.0
H1633 H 0.79552 0.69738 0.07308 0.0
H1634 H 0.78193 0.75718 0.15527 0.0
H1635 H 0.73343 0.67899 0.08194 0.0
H1636 H 0.79733 0.71172 0.10744 0.0
H1637 H 0.74746 0.68969 0.14707 0.0
C1638 C 0.75386 0.71512 0.16727 0.0
C1639 C 0.76315 0.73457 0.16997 0.0
C1640 C 0.78343 0.70429 0.10184 0.0
C1641 C 0.76636 0.71292 0.13373 0.0
C1642 C 0.7824 0.69609 0.08238 0.0
C1643 C 0.76426 0.68719 0.07476 0.0
C1644 C 0.76637 0.70297 0.11379 0.0
C1645 C 0.74763 0.68593 0.08728 0.0
C1646 C 0.75519 0.70441 0.14912 0.0
C1647 C 0.77465 0.74224 0.15421 0.0
N1648 N 0.74909 0.69369 0.10626 0.0
N1649 N 0.7759 0.7314 0.13677 0.0
H1650 H 0.98334 0.11172 0.16105 0.0
H1651 H 0.92018 0.01618 0.20121 0.0
H1652 H 0.99371 0.05041 0.14513 0.0
H1653 H 0.91271 0.07634 0.22386 0.0
H1654 H 0.9441 0.02936 0.17722 0.0
H1655 H 0.95489 0.09989 0.18133 0.0
C1656 C 0.9796 0.0958 0.1618 0.0
C1657 C 0.99106 0.08201 0.15164 0.0
C1658 C 0.93716 0.03975 0.18731 0.0
C1659 C 0.9586 0.06843 0.17455 0.0
C1660 C 0.92342 0.03222 0.20099 0.0
C1661 C 0.9146 0.04517 0.21469 0.0
C1662 C 0.94229 0.06042 0.18737 0.0
C1663 C 0.91924 0.06583 0.21358 0.0
C1664 C 0.96341 0.08907 0.17336 0.0
C1665 C 0.98558 0.06156 0.15307 0.0
N1666 N 0.93296 0.07284 0.20028 0.0
N1667 N 0.9698 0.05542 0.16431 0.0
H1668 H 0.25838 0.821 0.17127 0.0
H1669 H 0.25169 0.82878 0.05452 0.0
H1670 H 0.25057 0.76958 0.13031 0.0
H1671 H 0.23205 0.8757 0.09409 0.0
H1672 H 0.25517 0.80808 0.0828 0.0
H1673 H 0.2522 0.84263 0.1438 0.0
C1674 C 0.25528 0.8143 0.15653 0.0
C1675 C 0.25492 0.79351 0.15301 0.0
C1676 C 0.25001 0.82287 0.08532 0.0
C1677 C 0.24813 0.81798 0.12174 0.0
C1678 C 0.24811 0.83474 0.0692 0.0
C1679 C 0.24158 0.85399 0.07199 0.0
C1680 C 0.24567 0.83036 0.10448 0.0
C1681 C 0.23707 0.8609 0.09134 0.0
C1682 C 0.25167 0.82659 0.14095 0.0
C1683 C 0.25078 0.78551 0.1337 0.0
N1684 N 0.23937 0.84912 0.10696 0.0
N1685 N 0.24773 0.79777 0.11878 0.0
H1686 H 0.00838 0.42987 0.13232 0.0
H1687 H 0.0298 0.49891 0.22854 0.0
H1688 H 0.962 0.4567 0.16601 0.0
H1689 H 0.07028 0.45494 0.20991 0.0
H1690 H 0.00481 0.48306 0.20552 0.0
H1691 H 0.03119 0.43736 0.16053 0.0
C1692 C 0.00285 0.43691 0.1458 0.0
C1693 C 0.98335 0.44301 0.14668 0.0
C1694 C 0.01905 0.47669 0.20657 0.0
C1695 C 0.00944 0.45196 0.17872 0.0
C1696 C 0.03338 0.48583 0.21961 0.0
C1697 C 0.05217 0.47832 0.22094 0.0
C1698 C 0.02364 0.46014 0.1944 0.0
C1699 C 0.05595 0.46119 0.20923 0.0
C1700 C 0.01591 0.44126 0.16184 0.0
C1701 C 0.97705 0.45221 0.16447 0.0
N1702 N 0.04188 0.45282 0.19615 0.0
N1703 N 0.99015 0.45669 0.17965 0.0
H1704 H 0.37809 0.73619 0.25095 0.0
H1705 H 0.42907 0.72537 0.35693 0.0
H1706 H 0.34966 0.70409 0.29855 0.0
H1707 H 0.45365 0.76427 0.31244 0.0
H1708 H 0.40182 0.71395 0.3341 0.0
H1709 H 0.40769 0.74355 0.27189 0.0
C1710 C 0.37806 0.7307 0.2658 0.0
C1711 C 0.36131 0.7196 0.27303 0.0
C1712 C 0.41325 0.72489 0.3293 0.0
C1713 C 0.39522 0.72778 0.29699 0.0
C1714 C 0.42885 0.73137 0.34231 0.0
C1715 C 0.44357 0.74594 0.33666 0.0
C1716 C 0.4124 0.733 0.31052 0.0
C1717 C 0.44254 0.75315 0.3175 0.0
C1718 C 0.395 0.73481 0.27771 0.0
C1719 C 0.36228 0.71253 0.29227 0.0
N1720 N 0.42716 0.74669 0.30516 0.0
N1721 N 0.3789 0.71681 0.3036 0.0
H1722 H 0.93575 0.40716 0.95635 0.0
H1723 H 0.93973 0.29011 0.93007 0.0
H1724 H 0.9201 0.36149 0.99771 0.0
H1725 H 0.96644 0.33609 0.89372 0.0
H1726 H 0.92841 0.31599 0.9531 0.0
H1727 H 0.94283 0.38115 0.93128 0.0
C1728 C 0.93356 0.39164 0.96007 0.0
C1729 C 0.9274 0.38646 0.97915 0.0
C1730 C 0.93669 0.32041 0.94005 0.0
C1731 C 0.93565 0.35666 0.95063 0.0
C1732 C 0.94313 0.30565 0.92685 0.0
C1733 C 0.95417 0.31093 0.90998 0.0
C1734 C 0.94122 0.34063 0.93632 0.0
C1735 C 0.95808 0.33132 0.90659 0.0
C1736 C 0.93774 0.37681 0.9458 0.0
C1737 C 0.92506 0.36613 0.98324 0.0
N1738 N 0.95165 0.34543 0.91968 0.0
N1739 N 0.92923 0.35197 0.96911 0.0
H1740 H 0.62073 0.76747 0.26845 0.0
H1741 H 0.55756 0.76746 0.36828 0.0
H1742 H 0.64938 0.77504 0.32592 0.0
H1743 H 0.5371 0.79097 0.31404 0.0
H1744 H 0.59009 0.76328 0.35263 0.0
H1745 H 0.58823 0.7685 0.28471 0.0
C1746 C 0.62011 0.76903 0.28452 0.0
C1747 C 0.63765 0.7712 0.29591 0.0
C1748 C 0.57842 0.76935 0.34424 0.0
C1749 C 0.60073 0.7724 0.31451 0.0
C1750 C 0.55992 0.77171 0.35311 0.0
C1751 C 0.54472 0.77969 0.34245 0.0
C1752 C 0.58145 0.77456 0.32448 0.0
C1753 C 0.54848 0.78494 0.32283 0.0
C1754 C 0.60164 0.76978 0.29374 0.0
C1755 C 0.63613 0.77343 0.31666 0.0
N1756 N 0.56643 0.78215 0.31443 0.0
N1757 N 0.61793 0.77394 0.32535 0.0
H1758 H 0.99476 0.1614 0.00703 0.0
H1759 H 0.02186 0.23071 0.9162 0.0
H1760 H 0.05506 0.18362 0.99424 0.0
H1761 H 0.96297 0.2037 0.92789 0.0
H1762 H 0.03491 0.21285 0.94369 0.0
H1763 H 0.9833 0.17656 0.97747 0.0
C1764 C 0.00559 0.16965 0.99807 0.0
C1765 C 0.02587 0.17147 0.00325 0.0
C1766 C 0.01917 0.21073 0.9401 0.0
C1767 C 0.01286 0.18869 0.96906 0.0
C1768 C 0.01173 0.22086 0.92438 0.0
C1769 C 0.99127 0.21879 0.91983 0.0
C1770 C 0.00603 0.19853 0.95132 0.0
C1771 C 0.97882 0.20586 0.93093 0.0
C1772 C -0.00095 0.17816 0.98106 0.0
C1773 C 0.03929 0.18186 0.99076 0.0
N1774 N 0.98637 0.19635 0.9462 0.0
N1775 N 0.03253 0.1902 0.97428 0.0
H1776 H 0.38314 0.34301 0.24357 0.0
H1777 H 0.47142 0.27971 0.20235 0.0
H1778 H 0.3934 0.28409 0.26242 0.0
H1779 H 0.44879 0.32787 0.17105 0.0
H1780 H 0.44717 0.28507 0.22867 0.0
H1781 H 0.41119 0.34117 0.22072 0.0
C1782 C 0.39124 0.32969 0.24294 0.0
C1783 C 0.38572 0.31361 0.25487 0.0
C1784 C 0.44764 0.29455 0.2161 0.0
C1785 C 0.4181 0.31164 0.22903 0.0
C1786 C 0.46152 0.29157 0.20111 0.0
C1787 C 0.462 0.30323 0.18437 0.0
C1788 C 0.43425 0.3094 0.21441 0.0
C1789 C 0.44882 0.3184 0.18359 0.0
C1790 C 0.40733 0.32873 0.22997 0.0
C1791 C 0.39717 0.29696 0.25373 0.0
N1792 N 0.43541 0.32099 0.19837 0.0
N1793 N 0.41276 0.29639 0.24099 0.0
H1794 H 0.49994 0.40846 0.01124 0.0
H1795 H 0.53459 0.33331 0.09086 0.0
H1796 H 0.56007 0.39057 0.01482 0.0
H1797 H 0.47339 0.34575 0.08129 0.0
H1798 H 0.54478 0.35582 0.06454 0.0
H1799 H 0.49035 0.38657 0.03796 0.0
C1800 C 0.5111 0.39976 0.01748 0.0
C1801 C 0.53084 0.40132 0.01068 0.0
C1802 C 0.52914 0.35364 0.06826 0.0
C1803 C 0.52002 0.37647 0.04166 0.0
C1804 C 0.52333 0.34088 0.08334 0.0
C1805 C 0.50311 0.33763 0.08824 0.0
C1806 C 0.51462 0.36324 0.05811 0.0
C1807 C 0.48914 0.34776 0.07797 0.0
C1808 C 0.50564 0.38737 0.03288 0.0
C1809 C 0.54473 0.39001 0.01971 0.0
N1810 N 0.49515 0.36008 0.0634 0.0
N1811 N 0.53906 0.37808 0.03476 0.0
H1812 H 0.65493 0.30408 0.21469 0.0
H1813 H 0.55771 0.24368 0.17098 0.0
H1814 H 0.64651 0.23967 0.21156 0.0
H1815 H 0.57193 0.30585 0.15977 0.0
H1816 H 0.59108 0.24196 0.18446 0.0
H1817 H 0.62585 0.30527 0.19297 0.0
C1818 C 0.64713 0.29019 0.20918 0.0
C1819 C 0.653 0.27175 0.21509 0.0
C1820 C 0.58704 0.25595 0.17888 0.0
C1821 C 0.6197 0.27301 0.19044 0.0
C1822 C 0.56793 0.25698 0.17127 0.0
C1823 C 0.56199 0.275 0.16445 0.0
C1824 C 0.60028 0.27318 0.18004 0.0
C1825 C 0.57592 0.29169 0.16496 0.0
C1826 C 0.63059 0.29088 0.19675 0.0
C1827 C 0.64255 0.25421 0.20734 0.0
N1828 N 0.59438 0.29046 0.17291 0.0
N1829 N 0.62623 0.25528 0.19567 0.0
H1830 H 0.48854 0.14114 0.05039 0.0
H1831 H 0.45388 0.24751 0.08757 0.0
H1832 H 0.42984 0.15937 0.03814 0.0
H1833 H 0.50422 0.22069 0.1121 0.0
H1834 H 0.4458 0.21672 0.06719 0.0
H1835 H 0.4957 0.17185 0.07081 0.0
C1836 C 0.4772 0.1517 0.05195 0.0
C1837 C 0.45861 0.1478 0.04255 0.0
C1838 C 0.45855 0.21761 0.0771 0.0
C1839 C 0.46663 0.18291 0.06595 0.0
C1840 C 0.46322 0.23517 0.08868 0.0
C1841 C 0.47976 0.23667 0.10154 0.0
C1842 C 0.47067 0.2016 0.07827 0.0
C1843 C 0.4913 0.22021 0.10243 0.0
C1844 C 0.48123 0.16914 0.06371 0.0
C1845 C 0.44431 0.16182 0.04527 0.0
N1846 N 0.48659 0.20341 0.09088 0.0
N1847 N 0.44866 0.17886 0.05667 0.0
H1848 H 0.27637 0.41479 0.81465 0.0
H1849 H 0.3329 0.4958 0.74798 0.0
H1850 H 0.2752 0.4113 0.75049 0.0
H1851 H 0.3254 0.50486 0.81134 0.0
H1852 H 0.31083 0.4653 0.7486 0.0
H1853 H 0.29349 0.44821 0.81387 0.0
C1854 C 0.27956 0.4211 0.80041 0.0
C1855 C 0.27451 0.41012 0.78261 0.0
C1856 C 0.31384 0.47404 0.76235 0.0
C1857 C 0.29426 0.44826 0.78161 0.0
C1858 C 0.32645 0.49148 0.76201 0.0
C1859 C 0.33114 0.50281 0.77966 0.0
C1860 C 0.30601 0.46775 0.78051 0.0
C1861 C 0.32224 0.49655 0.79737 0.0
C1862 C 0.28938 0.44015 0.79997 0.0
C1863 C 0.2792 0.419 0.76458 0.0
N1864 N 0.31027 0.47929 0.79739 0.0
N1865 N 0.2889 0.43747 0.76456 0.0
H1866 H 0.29445 0.68585 0.74944 0.0
H1867 H 0.33468 0.60695 0.82212 0.0
H1868 H 0.2717 0.67546 0.80824 0.0
H1869 H 0.35024 0.60761 0.76 0.0
H1870 H 0.31431 0.63482 0.81781 0.0
H1871 H 0.31706 0.65928 0.75325 0.0
C1872 C 0.29414 0.67797 0.7631 0.0
C1873 C 0.28126 0.68305 0.77861 0.0
C1874 C 0.32221 0.62895 0.8051 0.0
C1875 C 0.30721 0.65291 0.78314 0.0
C1876 C 0.33394 0.61306 0.80758 0.0
C1877 C 0.3441 0.60485 0.79137 0.0
C1878 C 0.32058 0.63679 0.78627 0.0
C1879 C 0.3426 0.61346 0.77289 0.0
C1880 C 0.30712 0.6629 0.76529 0.0
C1881 C 0.28164 0.67243 0.79604 0.0
N1882 N 0.33097 0.62894 0.77081 0.0
N1883 N 0.2944 0.65796 0.79782 0.0
H1884 H 0.86664 0.49079 0.51192 0.0
H1885 H 0.75991 0.4429 0.47674 0.0
H1886 H 0.84806 0.48752 0.45048 0.0
H1887 H 0.7886 0.42638 0.53024 0.0
H1888 H 0.79054 0.46255 0.46808 0.0
H1889 H 0.83649 0.47011 0.52015 0.0
C1890 C 0.85617 0.48565 0.50019 0.0
C1891 C 0.85972 0.49081 0.48052 0.0
C1892 C 0.7901 0.45457 0.48168 0.0
C1893 C 0.82528 0.4674 0.4898 0.0
C1894 C 0.77262 0.44347 0.4867 0.0
C1895 C 0.77173 0.43301 0.50425 0.0
C1896 C 0.80667 0.45546 0.49445 0.0
C1897 C 0.78867 0.43418 0.51654 0.0
C1898 C 0.83906 0.47383 0.50486 0.0
C1899 C 0.84585 0.48372 0.4658 0.0
N1900 N 0.80543 0.44531 0.51146 0.0
N1901 N 0.82909 0.47248 0.47076 0.0
H1902 H 0.72888 0.89672 0.75018 0.0
H1903 H 0.64238 0.94345 0.80253 0.0
H1904 H 0.69069 0.85985 0.78756 0.0
H1905 H 0.64999 0.95264 0.74006 0.0
H1906 H 0.66182 0.91408 0.79896 0.0
H1907 H 0.70203 0.91866 0.7467 0.0
C1908 C 0.71481 0.89288 0.75735 0.0
C1909 C 0.71235 0.87644 0.76952 0.0
C1910 C 0.65888 0.9223 0.78597 0.0
C1911 C 0.68183 0.90208 0.76604 0.0
C1912 C 0.6479 0.93901 0.78801 0.0
C1913 C 0.64463 0.95027 0.77154 0.0
C1914 C 0.66726 0.91736 0.7675 0.0
C1915 C 0.65214 0.94413 0.75303 0.0
C1916 C 0.69951 0.90554 0.75537 0.0
C1917 C 0.6937 0.87268 0.77863 0.0
N1918 N 0.66358 0.92829 0.75157 0.0
N1919 N 0.67934 0.88567 0.7771 0.0
H1920 H 0.65054 0.53735 0.00661 0.0
H1921 H 0.74408 0.60447 0.96749 0.0
H1922 H 0.6675 0.53665 0.94486 0.0
H1923 H 0.7129 0.61867 0.02171 0.0
H1924 H 0.71929 0.57634 0.96038 0.0
H1925 H 0.67698 0.56376 0.01398 0.0
C1926 C 0.66002 0.5426 0.99466 0.0
C1927 C 0.65689 0.53485 0.97511 0.0
C1928 C 0.71792 0.58566 0.97381 0.0
C1929 C 0.68698 0.56509 0.98338 0.0
C1930 C 0.73205 0.60166 0.9779 0.0
C1931 C 0.73049 0.61397 0.99519 0.0
C1932 C 0.70234 0.58178 0.98724 0.0
C1933 C 0.7146 0.60966 0.00815 0.0
C1934 C 0.67496 0.55777 -0.00117 0.0
C1935 C 0.66938 0.54236 0.96011 0.0
N1936 N 0.70118 0.59386 0.00395 0.0
N1937 N 0.68394 0.55708 0.96456 0.0
H1938 H 0.19051 0.62666 0.19043 0.0
H1939 H 0.16403 0.5444 0.26972 0.0
H1940 H 0.214 0.62977 0.25032 0.0
H1941 H 0.12552 0.55206 0.21974 0.0
H1942 H 0.18571 0.57289 0.25988 0.0
H1943 H 0.16915 0.5969 0.19845 0.0
C1944 C 0.19117 0.62117 0.20524 0.0
C1945 C 0.20423 0.6307 0.21966 0.0
C1946 C 0.17253 0.56833 0.25105 0.0
C1947 C 0.18015 0.59655 0.22873 0.0
C1948 C 0.16017 0.552 0.2566 0.0
C1949 C 0.14285 0.54589 0.2456 0.0
C1950 C 0.16768 0.5786 0.23428 0.0
C1951 C 0.13867 0.55634 0.22871 0.0
C1952 C 0.17905 0.60415 0.20975 0.0
C1953 C 0.20458 0.62272 0.23854 0.0
N1954 N 0.15102 0.57223 0.22355 0.0
N1955 N 0.1928 0.60611 0.24248 0.0
H1956 H 0.89907 0.55052 0.0191 0.0
H1957 H 0.81983 0.62914 0.0499 0.0
H1958 H 0.87204 0.55454 0.07707 0.0
H1959 H 0.8421 0.61988 0.99038 0.0
H1960 H 0.84285 0.60572 0.0616 0.0
H1961 H 0.88199 0.57943 0.00976 0.0
C1962 C 0.88954 0.5575 0.02988 0.0
C1963 C 0.88677 0.54993 0.04881 0.0
C1964 C 0.84285 0.609 0.04602 0.0
C1965 C 0.86728 0.58319 0.03827 0.0
C1966 C 0.82978 0.62243 0.03935 0.0
C1967 C 0.82889 0.62628 0.01909 0.0
C1968 C 0.85511 0.5994 0.03233 0.0
C1969 C 0.84213 0.61719 0.00609 0.0
C1970 C 0.87988 0.57409 0.02458 0.0
C1971 C 0.87464 0.5599 0.06233 0.0
N1972 N 0.85456 0.60405 0.0129 0.0
N1973 N 0.86519 0.57591 0.05674 0.0
H1974 H 0.12613 0.04345 0.01863 0.0
H1975 H 0.18492 0.95418 0.05848 0.0
H1976 H 0.14008 0.03856 0.08071 0.0
H1977 H 0.1791 0.96661 0.99657 0.0
H1978 H 0.16662 0.98355 0.06736 0.0
H1979 H 0.14424 0.0142 0.01064 0.0
C1980 C 0.13324 0.03642 0.03059 0.0
C1981 C 0.13165 0.04363 0.05038 0.0
C1982 C 0.16934 0.97978 0.05185 0.0
C1983 C 0.15208 0.00963 0.04133 0.0
C1984 C 0.17967 0.96298 0.04678 0.0
C1985 C 0.18356 0.95798 0.02677 0.0
C1986 C 0.16279 0.9915 0.03677 0.0
C1987 C 0.17651 0.96993 0.01219 0.0
C1988 C 0.14344 0.01955 0.02602 0.0
C1989 C 0.14075 0.03345 0.06526 0.0
N1990 N 0.16649 0.9861 0.01749 0.0
N1991 N 0.15054 0.01693 0.06044 0.0
loop_
_geom_bond_atom_site_label_1
_geom_bond_atom_site_label_2
_geom_bond_distance
_geom_bond_site_symmetry_2
_ccdc_geom_bond_type
C0 C1 1.391 . S
C0 C4 1.391 . S
C0 H42 0.948 . S
C1 C0 1.391 . S
C1 C2 1.391 . S
C2 C1 1.391 . S
C2 H58 0.947 . S
C2 C59 1.392 . S
C3 C4 1.391 . S
C3 C7 1.397 . S
C3 C59 1.419 . S
C4 C0 1.391 . S
C4 C3 1.391 . S
C4 C5 1.399 . S
C5 C4 1.399 . S
C5 C8 1.396 . S
C5 C17 1.453 . S
C5 C18 1.684 . S
H6 C30 0.948 . S
C7 C3 1.397 . S
C7 C8 1.394 . S
C7 C26 1.723 . S
C8 C5 1.396 . S
C8 C7 1.394 . S
C8 C38 1.723 . S
H9 C32 0.947 . S
H10 C33 0.948 . S
H11 C39 0.982 . S
H12 C40 0.979 . S
H13 C40 0.980 . S
H14 C40 0.983 . S
H15 C39 0.979 . S
H16 C39 0.977 . S
C17 C5 1.453 . S
C17 H46 0.982 . S
C17 H47 0.979 . S
C17 H48 0.977 . S
C18 C5 1.684 . S
C18 H43 0.979 . S
C18 H44 0.980 . S
C18 H45 0.983 . S
C19 C20 1.391 . S
C19 C24 1.391 . S
C19 H49 0.948 . S
C20 C19 1.391 . S
C20 C21 1.391 . S
C21 C20 1.391 . S
C21 C22 1.392 . S
C21 H50 0.947 . S
C22 C21 1.392 . S
C22 C23 1.419 . S
C22 H51 0.948 . S
C23 C22 1.419 . S
C23 C24 1.391 . S
C23 C27 1.397 . S
C24 C19 1.391 . S
C24 C23 1.391 . S
C24 C25 1.399 . S
C25 C24 1.399 . S
C25 C26 1.396 . S
C25 C28 1.453 . S
C25 C29 1.684 . S
C26 C7 1.723 . S
C26 C25 1.396 . S
C26 C27 1.394 . S
C27 C23 1.397 . S
C27 C26 1.394 . S
C27 C37 1.723 . S
C28 C25 1.453 . S
C28 H52 0.982 . S
C28 H53 0.979 . S
C28 H54 0.977 . S
C29 C25 1.684 . S
C29 H55 0.979 . S
C29 H56 0.980 . S
C29 H57 0.983 . S
C30 H6 0.948 . S
C30 C31 1.391 . S
C30 C35 1.391 . S
C31 C30 1.391 . S
C31 C32 1.391 . S
C32 H9 0.947 . S
C32 C31 1.391 . S
C32 C33 1.392 . S
C33 H10 0.948 . S
C33 C32 1.392 . S
C33 C34 1.419 . S
C34 C33 1.419 . S
C34 C35 1.391 . S
C34 C38 1.397 . S
C35 C30 1.391 . S
C35 C34 1.391 . S
C35 C36 1.399 . S
C36 C35 1.399 . S
C36 C37 1.396 . S
C36 C39 1.453 . S
C36 C40 1.684 . S
C37 C27 1.723 . S
C37 C36 1.396 . S
C37 C38 1.394 . S
C38 C8 1.723 . S
C38 C34 1.397 . S
C38 C37 1.394 . S
C39 H11 0.982 . S
C39 H15 0.979 . S
C39 H16 0.977 . S
C39 C36 1.453 . S
C40 H12 0.979 . S
C40 H13 0.980 . S
C40 H14 0.983 . S
C40 C36 1.684 . S
H41 C59 0.948 . S
H42 C0 0.948 . S
H43 C18 0.979 . S
H44 C18 0.980 . S
H45 C18 0.983 . S
H46 C17 0.982 . S
H47 C17 0.979 . S
H48 C17 0.977 . S
H49 C19 0.948 . S
H50 C21 0.947 . S
H51 C22 0.948 . S
H52 C28 0.982 . S
H53 C28 0.979 . S
H54 C28 0.977 . S
H55 C29 0.979 . S
H56 C29 0.980 . S
H57 C29 0.983 . S
H58 C2 0.947 . S
C59 C2 1.392 . S
C59 C3 1.419 . S
C59 H41 0.948 . S
C60 C61 1.391 . S
C60 C64 1.391 . S
C60 H102 0.948 . S
C61 C60 1.391 . S
C61 C62 1.391 . S
C62 C61 1.391 . S
C62 H118 0.947 . S
C62 C119 1.392 . S
C63 C64 1.391 . S
C63 C67 1.397 . S
C63 C119 1.419 . S
C64 C60 1.391 . S
C64 C63 1.391 . S
C64 C65 1.399 . S
C65 C64 1.399 . S
C65 C68 1.396 . S
C65 C77 1.453 . S
C65 C78 1.684 . S
H66 C90 0.948 . S
C67 C63 1.397 . S
C67 C68 1.394 . S
C67 C86 1.723 . S
C68 C65 1.396 . S
C68 C67 1.394 . S
C68 C98 1.723 . S
H69 C92 0.947 . S
H70 C93 0.948 . S
H71 C99 0.982 . S
H72 C100 0.979 . S
H73 C100 0.980 . S
H74 C100 0.983 . S
H75 C99 0.979 . S
H76 C99 0.977 . S
C77 C65 1.453 . S
C77 H106 0.982 . S
C77 H107 0.979 . S
C77 H108 0.977 . S
C78 C65 1.684 . S
C78 H103 0.979 . S
C78 H104 0.980 . S
C78 H105 0.983 . S
C79 C80 1.391 . S
C79 C84 1.391 . S
C79 H109 0.948 . S
C80 C79 1.391 . S
C80 C81 1.391 . S
C81 C80 1.391 . S
C81 C82 1.392 . S
C81 H110 0.947 . S
C82 C81 1.392 . S
C82 C83 1.419 . S
C82 H111 0.948 . S
C83 C82 1.419 . S
C83 C84 1.391 . S
C83 C87 1.397 . S
C84 C79 1.391 . S
C84 C83 1.391 . S
C84 C85 1.399 . S
C85 C84 1.399 . S
C85 C86 1.396 . S
C85 C88 1.453 . S
C85 C89 1.684 . S
C86 C67 1.723 . S
C86 C85 1.396 . S
C86 C87 1.394 . S
C87 C83 1.397 . S
C87 C86 1.394 . S
C87 C97 1.723 . S
C88 C85 1.453 . S
C88 H112 0.982 . S
C88 H113 0.979 . S
C88 H114 0.977 . S
C89 C85 1.684 . S
C89 H115 0.979 . S
C89 H116 0.980 . S
C89 H117 0.983 . S
C90 H66 0.948 . S
C90 C91 1.391 . S
C90 C95 1.391 . S
C91 C90 1.391 . S
C91 C92 1.391 . S
C92 H69 0.947 . S
C92 C91 1.391 . S
C92 C93 1.392 . S
C93 H70 0.948 . S
C93 C92 1.392 . S
C93 C94 1.419 . S
C94 C93 1.419 . S
C94 C95 1.391 . S
C94 C98 1.397 . S
C95 C90 1.391 . S
C95 C94 1.391 . S
C95 C96 1.399 . S
C96 C95 1.399 . S
C96 C97 1.396 . S
C96 C99 1.453 . S
C96 C100 1.684 . S
C97 C87 1.723 . S
C97 C96 1.396 . S
C97 C98 1.394 . S
C98 C68 1.723 . S
C98 C94 1.397 . S
C98 C97 1.394 . S
C99 H71 0.982 . S
C99 H75 0.979 . S
C99 H76 0.977 . S
C99 C96 1.453 . S
C100 H72 0.979 . S
C100 H73 0.980 . S
C100 H74 0.983 . S
C100 C96 1.684 . S
H101 C119 0.948 . S
H102 C60 0.948 . S
H103 C78 0.979 . S
H104 C78 0.980 . S
H105 C78 0.983 . S
H106 C77 0.982 . S
H107 C77 0.979 . S
H108 C77 0.977 . S
H109 C79 0.948 . S
H110 C81 0.947 . S
H111 C82 0.948 . S
H112 C88 0.982 . S
H113 C88 0.979 . S
H114 C88 0.977 . S
H115 C89 0.979 . S
H116 C89 0.980 . S
H117 C89 0.983 . S
H118 C62 0.947 . S
C119 C62 1.392 . S
C119 C63 1.419 . S
C119 H101 0.948 . S
C120 C121 1.391 . S
C120 C124 1.391 . S
C120 H162 0.948 . S
C121 C120 1.391 . S
C121 C122 1.391 . S
C122 C121 1.391 . S
C122 H178 0.947 . S
C122 C179 1.392 . S
C123 C124 1.391 . S
C123 C127 1.397 . S
C123 C179 1.419 . S
C124 C120 1.391 . S
C124 C123 1.391 . S
C124 C125 1.399 . S
C125 C124 1.399 . S
C125 C128 1.396 . S
C125 C137 1.453 . S
C125 C138 1.684 . S
H126 C150 0.948 . S
C127 C123 1.397 . S
C127 C128 1.394 . S
C127 C146 1.723 . S
C128 C125 1.396 . S
C128 C127 1.394 . S
C128 C158 1.723 . S
H129 C152 0.947 . S
H130 C153 0.948 . S
H131 C159 0.982 . S
H132 C160 0.979 . S
H133 C160 0.980 . S
H134 C160 0.983 . S
H135 C159 0.979 . S
H136 C159 0.977 . S
C137 C125 1.453 . S
C137 H166 0.982 . S
C137 H167 0.979 . S
C137 H168 0.977 . S
C138 C125 1.684 . S
C138 H163 0.979 . S
C138 H164 0.980 . S
C138 H165 0.983 . S
C139 C140 1.391 . S
C139 C144 1.391 . S
C139 H169 0.948 . S
C140 C139 1.391 . S
C140 C141 1.391 . S
C141 C140 1.391 . S
C141 C142 1.392 . S
C141 H170 0.947 . S
C142 C141 1.392 . S
C142 C143 1.419 . S
C142 H171 0.948 . S
C143 C142 1.419 . S
C143 C144 1.391 . S
C143 C147 1.397 . S
C144 C139 1.391 . S
C144 C143 1.391 . S
C144 C145 1.399 . S
C145 C144 1.399 . S
C145 C146 1.396 . S
C145 C148 1.453 . S
C145 C149 1.684 . S
C146 C127 1.723 . S
C146 C145 1.396 . S
C146 C147 1.394 . S
C147 C143 1.397 . S
C147 C146 1.394 . S
C147 C157 1.723 . S
C148 C145 1.453 . S
C148 H172 0.982 . S
C148 H173 0.979 . S
C148 H174 0.977 . S
C149 C145 1.684 . S
C149 H175 0.979 . S
C149 H176 0.980 . S
C149 H177 0.983 . S
C150 H126 0.948 . S
C150 C151 1.391 . S
C150 C155 1.391 . S
C151 C150 1.391 . S
C151 C152 1.391 . S
C152 H129 0.947 . S
C152 C151 1.391 . S
C152 C153 1.392 . S
C153 H130 0.948 . S
C153 C152 1.392 . S
C153 C154 1.419 . S
C154 C153 1.419 . S
C154 C155 1.391 . S
C154 C158 1.397 . S
C155 C150 1.391 . S
C155 C154 1.391 . S
C155 C156 1.399 . S
C156 C155 1.399 . S
C156 C157 1.396 . S
C156 C159 1.453 . S
C156 C160 1.684 . S
C157 C147 1.723 . S
C157 C156 1.396 . S
C157 C158 1.394 . S
C158 C128 1.723 . S
C158 C154 1.397 . S
C158 C157 1.394 . S
C159 H131 0.982 . S
C159 H135 0.979 . S
C159 H136 0.977 . S
C159 C156 1.453 . S
C160 H132 0.979 . S
C160 H133 0.980 . S
C160 H134 0.983 . S
C160 C156 1.684 . S
H161 C179 0.948 . S
H162 C120 0.948 . S
H163 C138 0.979 . S
H164 C138 0.980 . S
H165 C138 0.983 . S
H166 C137 0.982 . S
H167 C137 0.979 . S
H168 C137 0.977 . S
H169 C139 0.948 . S
H170 C141 0.947 . S
H171 C142 0.948 . S
H172 C148 0.982 . S
H173 C148 0.979 . S
H174 C148 0.977 . S
H175 C149 0.979 . S
H176 C149 0.980 . S
H177 C149 0.983 . S
H178 C122 0.947 . S
C179 C122 1.392 . S
C179 C123 1.419 . S
C179 H161 0.948 . S
C180 C181 1.391 . S
C180 C184 1.391 . S
C180 H222 0.948 . S
C181 C180 1.391 . S
C181 C182 1.391 . S
C182 C181 1.391 . S
C182 H238 0.947 . S
C182 C239 1.392 . S
C183 C184 1.391 . S
C183 C187 1.397 . S
C183 C239 1.419 . S
C184 C180 1.391 . S
C184 C183 1.391 . S
C184 C185 1.399 . S
C185 C184 1.399 . S
C185 C188 1.396 . S
C185 C197 1.453 . S
C185 C198 1.684 . S
H186 C210 0.948 . S
C187 C183 1.397 . S
C187 C188 1.394 . S
C187 C206 1.723 . S
C188 C185 1.396 . S
C188 C187 1.394 . S
C188 C218 1.723 . S
H189 C212 0.947 . S
H190 C213 0.948 . S
H191 C219 0.982 . S
H192 C220 0.979 . S
H193 C220 0.980 . S
H194 C220 0.983 . S
H195 C219 0.979 . S
H196 C219 0.977 . S
C197 C185 1.453 . S
C197 H226 0.982 . S
C197 H227 0.979 . S
C197 H228 0.977 . S
C198 C185 1.684 . S
C198 H223 0.979 . S
C198 H224 0.980 . S
C198 H225 0.983 . S
C199 C200 1.391 . S
C199 C204 1.391 . S
C199 H229 0.948 . S
C200 C199 1.391 . S
C200 C201 1.391 . S
C201 C200 1.391 . S
C201 C202 1.392 . S
C201 H230 0.947 . S
C202 C201 1.392 . S
C202 C203 1.419 . S
C202 H231 0.948 . S
C203 C202 1.419 . S
C203 C204 1.391 . S
C203 C207 1.397 . S
C204 C199 1.391 . S
C204 C203 1.391 . S
C204 C205 1.399 . S
C205 C204 1.399 . S
C205 C206 1.396 . S
C205 C208 1.453 . S
C205 C209 1.684 . S
C206 C187 1.723 . S
C206 C205 1.396 . S
C206 C207 1.394 . S
C207 C203 1.397 . S
C207 C206 1.394 . S
C207 C217 1.723 . S
C208 C205 1.453 . S
C208 H232 0.982 . S
C208 H233 0.979 . S
C208 H234 0.977 . S
C209 C205 1.684 . S
C209 H235 0.979 . S
C209 H236 0.980 . S
C209 H237 0.983 . S
C210 H186 0.948 . S
C210 C211 1.391 . S
C210 C215 1.391 . S
C211 C210 1.391 . S
C211 C212 1.391 . S
C212 H189 0.947 . S
C212 C211 1.391 . S
C212 C213 1.392 . S
C213 H190 0.948 . S
C213 C212 1.392 . S
C213 C214 1.419 . S
C214 C213 1.419 . S
C214 C215 1.391 . S
C214 C218 1.397 . S
C215 C210 1.391 . S
C215 C214 1.391 . S
C215 C216 1.399 . S
C216 C215 1.399 . S
C216 C217 1.396 . S
C216 C219 1.453 . S
C216 C220 1.684 . S
C217 C207 1.723 . S
C217 C216 1.396 . S
C217 C218 1.394 . S
C218 C188 1.723 . S
C218 C214 1.397 . S
C218 C217 1.394 . S
C219 H191 0.982 . S
C219 H195 0.979 . S
C219 H196 0.977 . S
C219 C216 1.453 . S
C220 H192 0.979 . S
C220 H193 0.980 . S
C220 H194 0.983 . S
C220 C216 1.684 . S
H221 C239 0.948 . S
H222 C180 0.948 . S
H223 C198 0.979 . S
H224 C198 0.980 . S
H225 C198 0.983 . S
H226 C197 0.982 . S
H227 C197 0.979 . S
H228 C197 0.977 . S
H229 C199 0.948 . S
H230 C201 0.947 . S
H231 C202 0.948 . S
H232 C208 0.982 . S
H233 C208 0.979 . S
H234 C208 0.977 . S
H235 C209 0.979 . S
H236 C209 0.980 . S
H237 C209 0.983 . S
H238 C182 0.947 . S
C239 C182 1.392 . S
C239 C183 1.419 . S
C239 H221 0.948 . S
C240 C241 1.391 . S
C240 C244 1.391 . S
C240 H282 0.948 . S
C241 C240 1.391 . S
C241 C242 1.391 . S
C242 C241 1.391 . S
C242 H298 0.947 . S
C242 C299 1.392 . S
C243 C244 1.391 . S
C243 C247 1.397 . S
C243 C299 1.419 . S
C244 C240 1.391 . S
C244 C243 1.391 . S
C244 C245 1.399 . S
C245 C244 1.399 . S
C245 C248 1.396 . S
C245 C257 1.453 . S
C245 C258 1.684 . S
H246 C270 0.948 . S
C247 C243 1.397 . S
C247 C248 1.394 . S
C247 C266 1.723 . S
C248 C245 1.396 . S
C248 C247 1.394 . S
C248 C278 1.723 . S
H249 C272 0.947 . S
H250 C273 0.948 . S
H251 C279 0.982 . S
H252 C280 0.979 . S
H253 C280 0.980 . S
H254 C280 0.983 1_545 S
H255 C279 0.979 . S
H256 C279 0.977 . S
C257 C245 1.453 . S
C257 H286 0.982 . S
C257 H287 0.979 . S
C257 H288 0.977 . S
C258 C245 1.684 . S
C258 H283 0.979 . S
C258 H284 0.980 . S
C258 H285 0.983 . S
C259 C260 1.391 . S
C259 C264 1.391 . S
C259 H289 0.948 . S
C260 C259 1.391 . S
C260 C261 1.391 . S
C261 C260 1.391 . S
C261 C262 1.392 . S
C261 H290 0.947 . S
C262 C261 1.392 . S
C262 C263 1.419 . S
C262 H291 0.948 . S
C263 C262 1.419 . S
C263 C264 1.391 . S
C263 C267 1.397 . S
C264 C259 1.391 . S
C264 C263 1.391 . S
C264 C265 1.399 . S
C265 C264 1.399 . S
C265 C266 1.396 . S
C265 C268 1.453 . S
C265 C269 1.684 . S
C266 C247 1.723 . S
C266 C265 1.396 . S
C266 C267 1.394 . S
C267 C263 1.397 . S
C267 C266 1.394 . S
C267 C277 1.723 . S
C268 C265 1.453 . S
C268 H292 0.982 . S
C268 H293 0.979 . S
C268 H294 0.977 . S
C269 C265 1.684 . S
C269 H295 0.979 . S
C269 H296 0.980 . S
C269 H297 0.983 . S
C270 H246 0.948 . S
C270 C271 1.384 1_545 S
C270 C275 1.391 1_545 S
C271 C270 1.384 1_565 S
C271 C272 1.420 . S
C272 H249 0.947 . S
C272 C271 1.420 . S
C272 C273 1.392 . S
C273 H250 0.948 . S
C273 C272 1.392 . S
C273 C274 1.419 . S
C274 C273 1.419 . S
C274 C275 1.391 . S
C274 C278 1.397 . S
C275 C270 1.391 1_565 S
C275 C274 1.391 . S
C275 C276 1.399 . S
C276 C275 1.399 . S
C276 C277 1.396 . S
C276 C279 1.453 1_565 S
C276 C280 1.684 . S
C277 C267 1.723 . S
C277 C276 1.396 . S
C277 C278 1.394 . S
C278 C248 1.723 . S
C278 C274 1.397 . S
C278 C277 1.394 . S
C279 H251 0.982 . S
C279 H255 0.979 . S
C279 H256 0.977 . S
C279 C276 1.453 1_545 S
C280 H252 0.979 . S
C280 H253 0.980 . S
C280 H254 0.983 1_565 S
C280 C276 1.684 . S
H281 C299 0.948 . S
H282 C240 0.948 . S
H283 C258 0.979 . S
H284 C258 0.980 . S
H285 C258 0.983 . S
H286 C257 0.982 . S
H287 C257 0.979 . S
H288 C257 0.977 . S
H289 C259 0.948 . S
H290 C261 0.947 . S
H291 C262 0.948 . S
H292 C268 0.982 . S
H293 C268 0.979 . S
H294 C268 0.977 . S
H295 C269 0.979 . S
H296 C269 0.980 . S
H297 C269 0.983 . S
H298 C242 0.947 . S
C299 C242 1.392 . S
C299 C243 1.419 . S
C299 H281 0.948 . S
C300 C301 1.391 . S
C300 C304 1.391 . S
C300 H342 0.948 . S
C301 C300 1.391 . S
C301 C302 1.391 . S
C302 C301 1.391 . S
C302 H358 0.947 . S
C302 C359 1.392 . S
C303 C304 1.391 . S
C303 C307 1.397 . S
C303 C359 1.419 . S
C304 C300 1.391 . S
C304 C303 1.391 . S
C304 C305 1.399 . S
C305 C304 1.399 . S
C305 C308 1.396 . S
C305 C317 1.453 . S
C305 C318 1.684 . S
H306 C330 0.948 . S
C307 C303 1.397 . S
C307 C308 1.394 . S
C307 C326 1.723 . S
C308 C305 1.396 . S
C308 C307 1.394 . S
C308 C338 1.723 . S
H309 C332 0.947 . S
H310 C333 0.948 . S
H311 C339 0.982 . S
H312 C340 0.979 . S
H313 C340 0.980 . S
H314 C340 0.983 . S
H315 C339 0.979 . S
H316 C339 0.977 . S
C317 C305 1.453 . S
C317 H346 0.982 . S
C317 H347 0.979 . S
C317 H348 0.977 . S
C318 C305 1.684 . S
C318 H343 0.979 . S
C318 H344 0.980 . S
C318 H345 0.983 . S
C319 C320 1.391 . S
C319 C324 1.391 . S
C319 H349 0.948 . S
C320 C319 1.391 . S
C320 C321 1.391 . S
C321 C320 1.391 . S
C321 C322 1.392 . S
C321 H350 0.947 . S
C322 C321 1.392 . S
C322 C323 1.419 . S
C322 H351 0.948 . S
C323 C322 1.419 . S
C323 C324 1.391 . S
C323 C327 1.397 . S
C324 C319 1.391 . S
C324 C323 1.391 . S
C324 C325 1.399 . S
C325 C324 1.399 . S
C325 C326 1.396 . S
C325 C328 1.453 . S
C325 C329 1.684 . S
C326 C307 1.723 . S
C326 C325 1.396 . S
C326 C327 1.394 . S
C327 C323 1.397 . S
C327 C326 1.394 . S
C327 C337 1.723 . S
C328 C325 1.453 . S
C328 H352 0.982 . S
C328 H353 0.979 . S
C328 H354 0.977 . S
C329 C325 1.684 . S
C329 H355 0.979 . S
C329 H356 0.980 . S
C329 H357 0.983 . S
C330 H306 0.948 . S
C330 C331 1.391 . S
C330 C335 1.391 . S
C331 C330 1.391 . S
C331 C332 1.391 . S
C332 H309 0.947 . S
C332 C331 1.391 . S
C332 C333 1.392 . S
C333 H310 0.948 . S
C333 C332 1.392 . S
C333 C334 1.419 . S
C334 C333 1.419 . S
C334 C335 1.391 . S
C334 C338 1.397 . S
C335 C330 1.391 . S
C335 C334 1.391 . S
C335 C336 1.399 . S
C336 C335 1.399 . S
C336 C337 1.396 . S
C336 C339 1.453 . S
C336 C340 1.684 . S
C337 C327 1.723 . S
C337 C336 1.396 . S
C337 C338 1.394 . S
C338 C308 1.723 . S
C338 C334 1.397 . S
C338 C337 1.394 . S
C339 H311 0.982 . S
C339 H315 0.979 . S
C339 H316 0.977 . S
C339 C336 1.453 . S
C340 H312 0.979 . S
C340 H313 0.980 . S
C340 H314 0.983 . S
C340 C336 1.684 . S
H341 C359 0.948 . S
H342 C300 0.948 . S
H343 C318 0.979 . S
H344 C318 0.980 . S
H345 C318 0.983 . S
H346 C317 0.982 . S
H347 C317 0.979 . S
H348 C317 0.977 . S
H349 C319 0.948 . S
H350 C321 0.947 . S
H351 C322 0.948 . S
H352 C328 0.982 . S
H353 C328 0.979 . S
H354 C328 0.977 . S
H355 C329 0.979 . S
H356 C329 0.980 . S
H357 C329 0.983 . S
H358 C302 0.947 . S
C359 C302 1.392 . S
C359 C303 1.419 . S
C359 H341 0.948 . S
C360 C361 1.391 . S
C360 C364 1.391 . S
C360 H402 0.948 . S
C361 C360 1.391 . S
C361 C362 1.391 . S
C362 C361 1.391 . S
C362 H418 0.947 . S
C362 C419 1.392 . S
C363 C364 1.391 . S
C363 C367 1.397 . S
C363 C419 1.419 . S
C364 C360 1.391 . S
C364 C363 1.391 . S
C364 C365 1.399 . S
C365 C364 1.399 . S
C365 C368 1.396 . S
C365 C377 1.453 . S
C365 C378 1.684 . S
H366 C390 0.948 . S
C367 C363 1.397 . S
C367 C368 1.394 . S
C367 C386 1.723 . S
C368 C365 1.396 . S
C368 C367 1.394 . S
C368 C398 1.723 . S
H369 C392 0.947 . S
H370 C393 0.948 . S
H371 C399 0.982 . S
H372 C400 0.979 . S
H373 C400 0.980 . S
H374 C400 0.983 . S
H375 C399 0.979 . S
H376 C399 0.977 . S
C377 C365 1.453 . S
C377 H406 0.982 . S
C377 H407 0.979 . S
C377 H408 0.977 . S
C378 C365 1.684 . S
C378 H403 0.979 . S
C378 H404 0.980 . S
C378 H405 0.983 . S
C379 C380 1.391 . S
C379 C384 1.391 . S
C379 H409 0.948 . S
C380 C379 1.391 . S
C380 C381 1.391 . S
C381 C380 1.391 . S
C381 C382 1.392 . S
C381 H410 0.947 . S
C382 C381 1.392 . S
C382 C383 1.419 . S
C382 H411 0.948 . S
C383 C382 1.419 . S
C383 C384 1.391 . S
C383 C387 1.397 . S
C384 C379 1.391 . S
C384 C383 1.391 . S
C384 C385 1.399 . S
C385 C384 1.399 . S
C385 C386 1.396 . S
C385 C388 1.453 . S
C385 C389 1.684 . S
C386 C367 1.723 . S
C386 C385 1.396 . S
C386 C387 1.394 . S
C387 C383 1.397 . S
C387 C386 1.394 . S
C387 C397 1.723 . S
C388 C385 1.453 . S
C388 H412 0.982 . S
C388 H413 0.979 . S
C388 H414 0.977 . S
C389 C385 1.684 . S
C389 H415 0.979 . S
C389 H416 0.980 . S
C389 H417 0.983 . S
C390 H366 0.948 . S
C390 C391 1.391 . S
C390 C395 1.391 . S
C391 C390 1.391 . S
C391 C392 1.391 . S
C392 H369 0.947 . S
C392 C391 1.391 . S
C392 C393 1.392 . S
C393 H370 0.948 . S
C393 C392 1.392 . S
C393 C394 1.419 . S
C394 C393 1.419 . S
C394 C395 1.391 . S
C394 C398 1.397 . S
C395 C390 1.391 . S
C395 C394 1.391 . S
C395 C396 1.399 . S
C396 C395 1.399 . S
C396 C397 1.396 . S
C396 C399 1.453 . S
C396 C400 1.684 . S
C397 C387 1.723 . S
C397 C396 1.396 . S
C397 C398 1.394 . S
C398 C368 1.723 . S
C398 C394 1.397 . S
C398 C397 1.394 . S
C399 H371 0.982 . S
C399 H375 0.979 . S
C399 H376 0.977 . S
C399 C396 1.453 . S
C400 H372 0.979 . S
C400 H373 0.980 . S
C400 H374 0.983 . S
C400 C396 1.684 . S
H401 C419 0.948 . S
H402 C360 0.948 . S
H403 C378 0.979 . S
H404 C378 0.980 . S
H405 C378 0.983 . S
H406 C377 0.982 . S
H407 C377 0.979 . S
H408 C377 0.977 . S
H409 C379 0.948 . S
H410 C381 0.947 . S
H411 C382 0.948 . S
H412 C388 0.982 . S
H413 C388 0.979 . S
H414 C388 0.977 . S
H415 C389 0.979 . S
H416 C389 0.980 . S
H417 C389 0.983 . S
H418 C362 0.947 . S
C419 C362 1.392 . S
C419 C363 1.419 . S
C419 H401 0.948 . S
C420 C421 1.391 . S
C420 C424 1.391 . S
C420 H462 0.948 . S
C421 C420 1.391 . S
C421 C422 1.391 . S
C422 C421 1.391 . S
C422 H478 0.947 . S
C422 C479 1.392 . S
C423 C424 1.391 . S
C423 C427 1.397 . S
C423 C479 1.419 . S
C424 C420 1.391 . S
C424 C423 1.391 . S
C424 C425 1.399 . S
C425 C424 1.399 . S
C425 C428 1.396 . S
C425 C437 1.453 . S
C425 C438 1.684 . S
H426 C450 0.948 . S
C427 C423 1.397 . S
C427 C428 1.394 . S
C427 C446 1.723 . S
C428 C425 1.396 . S
C428 C427 1.394 . S
C428 C458 1.723 . S
H429 C452 0.947 . S
H430 C453 0.948 . S
H431 C459 0.982 . S
H432 C460 0.979 . S
H433 C460 0.980 . S
H434 C460 0.983 . S
H435 C459 0.979 . S
H436 C459 0.977 . S
C437 C425 1.453 . S
C437 H466 0.982 . S
C437 H467 0.979 . S
C437 H468 0.977 . S
C438 C425 1.684 . S
C438 H463 0.979 . S
C438 H464 0.980 . S
C438 H465 0.983 . S
C439 C440 1.391 . S
C439 C444 1.391 . S
C439 H469 0.948 . S
C440 C439 1.391 . S
C440 C441 1.391 . S
C441 C440 1.391 . S
C441 C442 1.392 . S
C441 H470 0.947 . S
C442 C441 1.392 . S
C442 C443 1.419 . S
C442 H471 0.948 . S
C443 C442 1.419 . S
C443 C444 1.391 . S
C443 C447 1.397 . S
C444 C439 1.391 . S
C444 C443 1.391 . S
C444 C445 1.399 . S
C445 C444 1.399 . S
C445 C446 1.396 . S
C445 C448 1.453 . S
C445 C449 1.684 . S
C446 C427 1.723 . S
C446 C445 1.396 . S
C446 C447 1.394 . S
C447 C443 1.397 . S
C447 C446 1.394 . S
C447 C457 1.723 . S
C448 C445 1.453 . S
C448 H472 0.982 . S
C448 H473 0.979 . S
C448 H474 0.977 . S
C449 C445 1.684 . S
C449 H475 0.979 . S
C449 H476 0.980 . S
C449 H477 0.983 . S
C450 H426 0.948 . S
C450 C451 1.391 . S
C450 C455 1.391 . S
C451 C450 1.391 . S
C451 C452 1.391 . S
C452 H429 0.947 . S
C452 C451 1.391 . S
C452 C453 1.392 . S
C453 H430 0.948 . S
C453 C452 1.392 . S
C453 C454 1.419 . S
C454 C453 1.419 . S
C454 C455 1.391 . S
C454 C458 1.397 . S
C455 C450 1.391 . S
C455 C454 1.391 . S
C455 C456 1.399 . S
C456 C455 1.399 . S
C456 C457 1.396 . S
C456 C459 1.453 . S
C456 C460 1.684 . S
C457 C447 1.723 . S
C457 C456 1.396 . S
C457 C458 1.394 . S
C458 C428 1.723 . S
C458 C454 1.397 . S
C458 C457 1.394 . S
C459 H431 0.982 . S
C459 H435 0.979 . S
C459 H436 0.977 . S
C459 C456 1.453 . S
C460 H432 0.979 . S
C460 H433 0.980 . S
C460 H434 0.983 . S
C460 C456 1.684 . S
H461 C479 0.948 . S
H462 C420 0.948 . S
H463 C438 0.979 . S
H464 C438 0.980 . S
H465 C438 0.983 . S
H466 C437 0.982 . S
H467 C437 0.979 . S
H468 C437 0.977 . S
H469 C439 0.948 . S
H470 C441 0.947 . S
H471 C442 0.948 . S
H472 C448 0.982 . S
H473 C448 0.979 . S
H474 C448 0.977 . S
H475 C449 0.979 . S
H476 C449 0.980 . S
H477 C449 0.983 . S
H478 C422 0.947 . S
C479 C422 1.392 . S
C479 C423 1.419 . S
C479 H461 0.948 . S
C480 C481 1.391 . S
C480 C484 1.391 . S
C480 H522 0.948 . S
C481 C480 1.391 . S
C481 C482 1.391 . S
C482 C481 1.391 . S
C482 H538 0.947 . S
C482 C539 1.392 . S
C483 C484 1.391 . S
C483 C487 1.397 . S
C483 C539 1.419 . S
C484 C480 1.391 . S
C484 C483 1.391 . S
C484 C485 1.399 . S
C485 C484 1.399 . S
C485 C488 1.396 . S
C485 C497 1.453 . S
C485 C498 1.684 . S
H486 C510 0.948 . S
C487 C483 1.397 . S
C487 C488 1.394 . S
C487 C506 1.723 . S
C488 C485 1.396 . S
C488 C487 1.394 . S
C488 C518 1.723 . S
H489 C512 0.947 . S
H490 C513 0.948 . S
H491 C519 0.982 . S
H492 C520 0.979 . S
H493 C520 0.980 . S
H494 C520 0.983 . S
H495 C519 0.979 . S
H496 C519 0.977 . S
C497 C485 1.453 . S
C497 H526 0.982 . S
C497 H527 0.979 . S
C497 H528 0.977 . S
C498 C485 1.684 . S
C498 H523 0.979 . S
C498 H524 0.980 . S
C498 H525 0.983 . S
C499 C500 1.391 . S
C499 C504 1.391 . S
C499 H529 0.948 . S
C500 C499 1.391 . S
C500 C501 1.391 . S
C501 C500 1.391 . S
C501 C502 1.392 . S
C501 H530 0.947 . S
C502 C501 1.392 . S
C502 C503 1.419 . S
C502 H531 0.948 . S
C503 C502 1.419 . S
C503 C504 1.391 . S
C503 C507 1.397 . S
C504 C499 1.391 . S
C504 C503 1.391 . S
C504 C505 1.399 . S
C505 C504 1.399 . S
C505 C506 1.396 . S
C505 C508 1.453 . S
C505 C509 1.684 . S
C506 C487 1.723 . S
C506 C505 1.396 . S
C506 C507 1.394 . S
C507 C503 1.397 . S
C507 C506 1.394 . S
C507 C517 1.723 . S
C508 C505 1.453 . S
C508 H532 0.982 . S
C508 H533 0.979 . S
C508 H534 0.977 . S
C509 C505 1.684 . S
C509 H535 0.979 . S
C509 H536 0.980 . S
C509 H537 0.983 . S
C510 H486 0.948 . S
C510 C511 1.391 . S
C510 C515 1.391 . S
C511 C510 1.391 . S
C511 C512 1.391 . S
C512 H489 0.947 . S
C512 C511 1.391 . S
C512 C513 1.392 . S
C513 H490 0.948 . S
C513 C512 1.392 . S
C513 C514 1.419 . S
C514 C513 1.419 . S
C514 C515 1.391 . S
C514 C518 1.397 . S
C515 C510 1.391 . S
C515 C514 1.391 . S
C515 C516 1.399 . S
C516 C515 1.399 . S
C516 C517 1.396 . S
C516 C519 1.453 . S
C516 C520 1.684 . S
C517 C507 1.723 . S
C517 C516 1.396 . S
C517 C518 1.394 . S
C518 C488 1.723 . S
C518 C514 1.397 . S
C518 C517 1.394 . S
C519 H491 0.982 . S
C519 H495 0.979 . S
C519 H496 0.977 . S
C519 C516 1.453 . S
C520 H492 0.979 . S
C520 H493 0.980 . S
C520 H494 0.983 . S
C520 C516 1.684 . S
H521 C539 0.948 . S
H522 C480 0.948 . S
H523 C498 0.979 . S
H524 C498 0.980 . S
H525 C498 0.983 . S
H526 C497 0.982 . S
H527 C497 0.979 . S
H528 C497 0.977 . S
H529 C499 0.948 . S
H530 C501 0.947 . S
H531 C502 0.948 . S
H532 C508 0.982 . S
H533 C508 0.979 . S
H534 C508 0.977 . S
H535 C509 0.979 . S
H536 C509 0.980 . S
H537 C509 0.983 . S
H538 C482 0.947 . S
C539 C482 1.392 . S
C539 C483 1.419 . S
C539 H521 0.948 . S
C540 C541 1.391 . S
C540 C544 1.391 . S
C540 H582 0.948 . S
C541 C540 1.391 . S
C541 C542 1.391 . S
C542 C541 1.391 . S
C542 H598 0.947 . S
C542 C599 1.392 . S
C543 C544 1.391 . S
C543 C547 1.397 . S
C543 C599 1.419 . S
C544 C540 1.391 . S
C544 C543 1.391 . S
C544 C545 1.399 . S
C545 C544 1.399 . S
C545 C548 1.396 . S
C545 C557 1.453 . S
C545 C558 1.684 . S
H546 C570 0.948 . S
C547 C543 1.397 . S
C547 C548 1.394 . S
C547 C566 1.723 . S
C548 C545 1.396 . S
C548 C547 1.394 . S
C548 C578 1.723 . S
H549 C572 0.947 . S
H550 C573 0.948 . S
H551 C579 0.982 . S
H552 C580 0.979 . S
H553 C580 0.980 . S
H554 C580 0.983 . S
H555 C579 0.979 . S
H556 C579 0.977 . S
C557 C545 1.453 . S
C557 H586 0.982 . S
C557 H587 0.979 . S
C557 H588 0.977 . S
C558 C545 1.684 . S
C558 H583 0.979 . S
C558 H584 0.980 . S
C558 H585 0.983 . S
C559 C560 1.391 . S
C559 C564 1.391 . S
C559 H589 0.948 . S
C560 C559 1.391 . S
C560 C561 1.391 . S
C561 C560 1.391 . S
C561 C562 1.392 . S
C561 H590 0.947 . S
C562 C561 1.392 . S
C562 C563 1.419 . S
C562 H591 0.948 . S
C563 C562 1.419 . S
C563 C564 1.391 . S
C563 C567 1.397 . S
C564 C559 1.391 . S
C564 C563 1.391 . S
C564 C565 1.399 . S
C565 C564 1.399 . S
C565 C566 1.396 . S
C565 C568 1.453 . S
C565 C569 1.684 . S
C566 C547 1.723 . S
C566 C565 1.396 . S
C566 C567 1.394 . S
C567 C563 1.397 . S
C567 C566 1.394 . S
C567 C577 1.723 . S
C568 C565 1.453 . S
C568 H592 0.982 . S
C568 H593 0.979 . S
C568 H594 0.977 . S
C569 C565 1.684 . S
C569 H595 0.979 . S
C569 H596 0.980 . S
C569 H597 0.983 . S
C570 H546 0.948 . S
C570 C571 1.391 . S
C570 C575 1.391 . S
C571 C570 1.391 . S
C571 C572 1.391 . S
C572 H549 0.947 . S
C572 C571 1.391 . S
C572 C573 1.392 . S
C573 H550 0.948 . S
C573 C572 1.392 . S
C573 C574 1.419 . S
C574 C573 1.419 . S
C574 C575 1.391 . S
C574 C578 1.397 . S
C575 C570 1.391 . S
C575 C574 1.391 . S
C575 C576 1.399 . S
C576 C575 1.399 . S
C576 C577 1.396 . S
C576 C579 1.453 . S
C576 C580 1.684 . S
C577 C567 1.723 . S
C577 C576 1.396 . S
C577 C578 1.394 . S
C578 C548 1.723 . S
C578 C574 1.397 . S
C578 C577 1.394 . S
C579 H551 0.982 . S
C579 H555 0.979 . S
C579 H556 0.977 . S
C579 C576 1.453 . S
C580 H552 0.979 . S
C580 H553 0.980 . S
C580 H554 0.983 . S
C580 C576 1.684 . S
H581 C599 0.948 . S
H582 C540 0.948 . S
H583 C558 0.979 . S
H584 C558 0.980 . S
H585 C558 0.983 . S
H586 C557 0.982 . S
H587 C557 0.979 . S
H588 C557 0.977 . S
H589 C559 0.948 . S
H590 C561 0.947 . S
H591 C562 0.948 . S
H592 C568 0.982 . S
H593 C568 0.979 . S
H594 C568 0.977 . S
H595 C569 0.979 . S
H596 C569 0.980 . S
H597 C569 0.983 . S
H598 C542 0.947 . S
C599 C542 1.392 . S
C599 C543 1.419 . S
C599 H581 0.948 . S
C600 C601 1.391 . S
C600 C604 1.391 . S
C600 H642 0.948 . S
C601 C600 1.391 . S
C601 C602 1.391 . S
C602 C601 1.391 . S
C602 H658 0.947 . S
C602 C659 1.392 . S
C603 C604 1.391 . S
C603 C607 1.397 . S
C603 C659 1.419 . S
C604 C600 1.391 . S
C604 C603 1.391 . S
C604 C605 1.399 . S
C605 C604 1.399 . S
C605 C608 1.396 . S
C605 C617 1.453 . S
C605 C618 1.684 . S
H606 C630 0.948 . S
C607 C603 1.397 . S
C607 C608 1.394 . S
C607 C626 1.723 . S
C608 C605 1.396 . S
C608 C607 1.394 . S
C608 C638 1.723 . S
H609 C632 0.947 . S
H610 C633 0.948 . S
H611 C639 0.982 . S
H612 C640 0.979 . S
H613 C640 0.980 . S
H614 C640 0.983 . S
H615 C639 0.979 . S
H616 C639 0.977 . S
C617 C605 1.453 . S
C617 H646 0.982 . S
C617 H647 0.979 . S
C617 H648 0.977 . S
C618 C605 1.684 . S
C618 H643 0.979 . S
C618 H644 0.980 . S
C618 H645 0.983 . S
C619 C620 1.391 . S
C619 C624 1.391 . S
C619 H649 0.948 . S
C620 C619 1.391 . S
C620 C621 1.391 . S
C621 C620 1.391 . S
C621 C622 1.392 . S
C621 H650 0.947 . S
C622 C621 1.392 . S
C622 C623 1.419 . S
C622 H651 0.948 . S
C623 C622 1.419 . S
C623 C624 1.391 . S
C623 C627 1.397 . S
C624 C619 1.391 . S
C624 C623 1.391 . S
C624 C625 1.399 . S
C625 C624 1.399 . S
C625 C626 1.396 . S
C625 C628 1.453 . S
C625 C629 1.684 . S
C626 C607 1.723 . S
C626 C625 1.396 . S
C626 C627 1.394 . S
C627 C623 1.397 . S
C627 C626 1.394 . S
C627 C637 1.723 . S
C628 C625 1.453 . S
C628 H652 0.982 . S
C628 H653 0.979 . S
C628 H654 0.977 . S
C629 C625 1.684 . S
C629 H655 0.979 . S
C629 H656 0.980 . S
C629 H657 0.983 . S
C630 H606 0.948 . S
C630 C631 1.391 . S
C630 C635 1.391 . S
C631 C630 1.391 . S
C631 C632 1.391 . S
C632 H609 0.947 . S
C632 C631 1.391 . S
C632 C633 1.392 . S
C633 H610 0.948 . S
C633 C632 1.392 . S
C633 C634 1.419 . S
C634 C633 1.419 . S
C634 C635 1.391 . S
C634 C638 1.397 . S
C635 C630 1.391 . S
C635 C634 1.391 . S
C635 C636 1.399 . S
C636 C635 1.399 . S
C636 C637 1.396 . S
C636 C639 1.453 . S
C636 C640 1.684 . S
C637 C627 1.723 . S
C637 C636 1.396 . S
C637 C638 1.394 . S
C638 C608 1.723 . S
C638 C634 1.397 . S
C638 C637 1.394 . S
C639 H611 0.982 . S
C639 H615 0.979 . S
C639 H616 0.977 . S
C639 C636 1.453 . S
C640 H612 0.979 . S
C640 H613 0.980 . S
C640 H614 0.983 . S
C640 C636 1.684 . S
H641 C659 0.948 . S
H642 C600 0.948 . S
H643 C618 0.979 . S
H644 C618 0.980 . S
H645 C618 0.983 . S
H646 C617 0.982 . S
H647 C617 0.979 . S
H648 C617 0.977 . S
H649 C619 0.948 . S
H650 C621 0.947 . S
H651 C622 0.948 . S
H652 C628 0.982 . S
H653 C628 0.979 . S
H654 C628 0.977 . S
H655 C629 0.979 . S
H656 C629 0.980 . S
H657 C629 0.983 . S
H658 C602 0.947 . S
C659 C602 1.392 . S
C659 C603 1.419 . S
C659 H641 0.948 . S
C660 C661 1.391 . S
C660 C664 1.391 . S
C660 H702 0.948 . S
C661 C660 1.391 . S
C661 C662 1.391 . S
C662 C661 1.391 . S
C662 H718 0.947 . S
C662 C719 1.392 . S
C663 C664 1.391 . S
C663 C667 1.397 . S
C663 C719 1.419 . S
C664 C660 1.391 . S
C664 C663 1.391 . S
C664 C665 1.399 . S
C665 C664 1.399 . S
C665 C668 1.396 . S
C665 C677 1.453 . S
C665 C678 1.684 . S
H666 C690 0.948 . S
C667 C663 1.397 . S
C667 C668 1.394 . S
C667 C686 1.723 . S
C668 C665 1.396 . S
C668 C667 1.394 . S
C668 C698 1.723 . S
H669 C692 0.947 . S
H670 C693 0.948 . S
H671 C699 0.982 . S
H672 C700 0.979 . S
H673 C700 0.980 . S
H674 C700 0.983 . S
H675 C699 0.979 . S
H676 C699 0.977 . S
C677 C665 1.453 . S
C677 H706 0.982 . S
C677 H707 0.979 . S
C677 H708 0.977 . S
C678 C665 1.684 . S
C678 H703 0.979 . S
C678 H704 0.980 . S
C678 H705 0.983 . S
C679 C680 1.391 . S
C679 C684 1.391 . S
C679 H709 0.948 . S
C680 C679 1.391 . S
C680 C681 1.391 . S
C681 C680 1.391 . S
C681 C682 1.392 . S
C681 H710 0.947 . S
C682 C681 1.392 . S
C682 C683 1.419 . S
C682 H711 0.948 . S
C683 C682 1.419 . S
C683 C684 1.391 . S
C683 C687 1.397 . S
C684 C679 1.391 . S
C684 C683 1.391 . S
C684 C685 1.399 . S
C685 C684 1.399 . S
C685 C686 1.396 . S
C685 C688 1.453 . S
C685 C689 1.684 . S
C686 C667 1.723 . S
C686 C685 1.396 . S
C686 C687 1.394 . S
C687 C683 1.397 . S
C687 C686 1.394 . S
C687 C697 1.723 . S
C688 C685 1.453 . S
C688 H712 0.982 . S
C688 H713 0.979 . S
C688 H714 0.977 . S
C689 C685 1.684 . S
C689 H715 0.979 . S
C689 H716 0.980 . S
C689 H717 0.983 . S
C690 H666 0.948 . S
C690 C691 1.391 . S
C690 C695 1.391 . S
C691 C690 1.391 . S
C691 C692 1.391 . S
C692 H669 0.947 . S
C692 C691 1.391 . S
C692 C693 1.392 . S
C693 H670 0.948 . S
C693 C692 1.392 . S
C693 C694 1.419 . S
C694 C693 1.419 . S
C694 C695 1.391 . S
C694 C698 1.397 . S
C695 C690 1.391 . S
C695 C694 1.391 . S
C695 C696 1.399 . S
C696 C695 1.399 . S
C696 C697 1.396 . S
C696 C699 1.453 . S
C696 C700 1.684 . S
C697 C687 1.723 . S
C697 C696 1.396 . S
C697 C698 1.394 . S
C698 C668 1.723 . S
C698 C694 1.397 . S
C698 C697 1.394 . S
C699 H671 0.982 . S
C699 H675 0.979 . S
C699 H676 0.977 . S
C699 C696 1.453 . S
C700 H672 0.979 . S
C700 H673 0.980 . S
C700 H674 0.983 . S
C700 C696 1.684 . S
H701 C719 0.948 . S
H702 C660 0.948 . S
H703 C678 0.979 . S
H704 C678 0.980 . S
H705 C678 0.983 . S
H706 C677 0.982 . S
H707 C677 0.979 . S
H708 C677 0.977 . S
H709 C679 0.948 . S
H710 C681 0.947 . S
H711 C682 0.948 . S
H712 C688 0.982 . S
H713 C688 0.979 . S
H714 C688 0.977 . S
H715 C689 0.979 . S
H716 C689 0.980 . S
H717 C689 0.983 . S
H718 C662 0.947 . S
C719 C662 1.392 . S
C719 C663 1.419 . S
C719 H701 0.948 . S
C720 C721 1.391 . S
C720 C724 1.391 . S
C720 H762 0.948 . S
C721 C720 1.391 . S
C721 C722 1.391 . S
C722 C721 1.391 . S
C722 H778 0.947 . S
C722 C779 1.392 . S
C723 C724 1.391 . S
C723 C727 1.397 . S
C723 C779 1.419 . S
C724 C720 1.391 . S
C724 C723 1.391 . S
C724 C725 1.399 . S
C725 C724 1.399 . S
C725 C728 1.396 . S
C725 C737 1.453 . S
C725 C738 1.684 . S
H726 C750 0.948 . S
C727 C723 1.397 . S
C727 C728 1.394 . S
C727 C746 1.723 . S
C728 C725 1.396 . S
C728 C727 1.394 . S
C728 C758 1.723 . S
H729 C752 0.947 . S
H730 C753 0.948 . S
H731 C759 0.982 . S
H732 C760 0.979 . S
H733 C760 0.980 . S
H734 C760 0.983 . S
H735 C759 0.979 . S
H736 C759 0.977 . S
C737 C725 1.453 . S
C737 H766 0.982 . S
C737 H767 0.979 . S
C737 H768 0.977 . S
C738 C725 1.684 . S
C738 H763 0.979 . S
C738 H764 0.980 . S
C738 H765 0.983 . S
C739 C740 1.391 . S
C739 C744 1.391 . S
C739 H769 0.948 . S
C740 C739 1.391 . S
C740 C741 1.391 . S
C741 C740 1.391 . S
C741 C742 1.392 . S
C741 H770 0.947 . S
C742 C741 1.392 . S
C742 C743 1.419 . S
C742 H771 0.948 . S
C743 C742 1.419 . S
C743 C744 1.391 . S
C743 C747 1.397 . S
C744 C739 1.391 . S
C744 C743 1.391 . S
C744 C745 1.399 . S
C745 C744 1.399 . S
C745 C746 1.396 . S
C745 C748 1.453 . S
C745 C749 1.684 . S
C746 C727 1.723 . S
C746 C745 1.396 . S
C746 C747 1.394 . S
C747 C743 1.397 . S
C747 C746 1.394 . S
C747 C757 1.723 . S
C748 C745 1.453 . S
C748 H772 0.982 . S
C748 H773 0.979 . S
C748 H774 0.977 . S
C749 C745 1.684 . S
C749 H775 0.979 . S
C749 H776 0.980 . S
C749 H777 0.983 . S
C750 H726 0.948 . S
C750 C751 1.391 . S
C750 C755 1.391 . S
C751 C750 1.391 . S
C751 C752 1.391 . S
C752 H729 0.947 . S
C752 C751 1.391 . S
C752 C753 1.392 . S
C753 H730 0.948 . S
C753 C752 1.392 . S
C753 C754 1.419 . S
C754 C753 1.419 . S
C754 C755 1.391 . S
C754 C758 1.397 . S
C755 C750 1.391 . S
C755 C754 1.391 . S
C755 C756 1.399 . S
C756 C755 1.399 . S
C756 C757 1.396 . S
C756 C759 1.453 . S
C756 C760 1.684 . S
C757 C747 1.723 . S
C757 C756 1.396 . S
C757 C758 1.394 . S
C758 C728 1.723 . S
C758 C754 1.397 . S
C758 C757 1.394 . S
C759 H731 0.982 . S
C759 H735 0.979 . S
C759 H736 0.977 . S
C759 C756 1.453 . S
C760 H732 0.979 . S
C760 H733 0.980 . S
C760 H734 0.983 . S
C760 C756 1.684 . S
H761 C779 0.948 . S
H762 C720 0.948 . S
H763 C738 0.979 . S
H764 C738 0.980 . S
H765 C738 0.983 . S
H766 C737 0.982 . S
H767 C737 0.979 . S
H768 C737 0.977 . S
H769 C739 0.948 . S
H770 C741 0.947 . S
H771 C742 0.948 . S
H772 C748 0.982 . S
H773 C748 0.979 . S
H774 C748 0.977 . S
H775 C749 0.979 . S
H776 C749 0.980 . S
H777 C749 0.983 . S
H778 C722 0.947 . S
C779 C722 1.392 . S
C779 C723 1.419 . S
C779 H761 0.948 . S
C780 C781 1.391 . S
C780 C784 1.391 . S
C780 H822 0.948 . S
C781 C780 1.391 . S
C781 C782 1.391 . S
C782 C781 1.391 . S
C782 H838 0.947 . S
C782 C839 1.392 . S
C783 C784 1.391 . S
C783 C787 1.397 . S
C783 C839 1.419 . S
C784 C780 1.391 . S
C784 C783 1.391 . S
C784 C785 1.399 . S
C785 C784 1.399 . S
C785 C788 1.396 . S
C785 C797 1.453 . S
C785 C798 1.684 . S
H786 C810 0.948 . S
C787 C783 1.397 . S
C787 C788 1.394 . S
C787 C806 1.723 . S
C788 C785 1.396 . S
C788 C787 1.394 . S
C788 C818 1.723 . S
H789 C812 0.947 . S
H790 C813 0.948 . S
H791 C819 0.982 . S
H792 C820 0.979 . S
H793 C820 0.980 . S
H794 C820 0.983 . S
H795 C819 0.979 . S
H796 C819 0.977 . S
C797 C785 1.453 . S
C797 H826 0.982 . S
C797 H827 0.979 . S
C797 H828 0.977 . S
C798 C785 1.684 . S
C798 H823 0.979 . S
C798 H824 0.980 . S
C798 H825 0.983 . S
C799 C800 1.391 . S
C799 C804 1.391 . S
C799 H829 0.948 . S
C800 C799 1.391 . S
C800 C801 1.391 . S
C801 C800 1.391 . S
C801 C802 1.392 . S
C801 H830 0.947 . S
C802 C801 1.392 . S
C802 C803 1.419 . S
C802 H831 0.948 . S
C803 C802 1.419 . S
C803 C804 1.391 . S
C803 C807 1.397 . S
C804 C799 1.391 . S
C804 C803 1.391 . S
C804 C805 1.399 . S
C805 C804 1.399 . S
C805 C806 1.396 . S
C805 C808 1.453 . S
C805 C809 1.684 . S
C806 C787 1.723 . S
C806 C805 1.396 . S
C806 C807 1.394 . S
C807 C803 1.397 . S
C807 C806 1.394 . S
C807 C817 1.723 . S
C808 C805 1.453 . S
C808 H832 0.982 . S
C808 H833 0.979 . S
C808 H834 0.977 . S
C809 C805 1.684 . S
C809 H835 0.979 . S
C809 H836 0.980 . S
C809 H837 0.983 . S
C810 H786 0.948 . S
C810 C811 1.391 . S
C810 C815 1.391 . S
C811 C810 1.391 . S
C811 C812 1.391 . S
C812 H789 0.947 . S
C812 C811 1.391 . S
C812 C813 1.392 . S
C813 H790 0.948 . S
C813 C812 1.392 . S
C813 C814 1.419 . S
C814 C813 1.419 . S
C814 C815 1.391 . S
C814 C818 1.397 . S
C815 C810 1.391 . S
C815 C814 1.391 . S
C815 C816 1.399 . S
C816 C815 1.399 . S
C816 C817 1.396 . S
C816 C819 1.453 . S
C816 C820 1.684 . S
C817 C807 1.723 . S
C817 C816 1.396 . S
C817 C818 1.394 . S
C818 C788 1.723 . S
C818 C814 1.397 . S
C818 C817 1.394 . S
C819 H791 0.982 . S
C819 H795 0.979 . S
C819 H796 0.977 . S
C819 C816 1.453 . S
C820 H792 0.979 . S
C820 H793 0.980 . S
C820 H794 0.983 . S
C820 C816 1.684 . S
H821 C839 0.948 . S
H822 C780 0.948 . S
H823 C798 0.979 . S
H824 C798 0.980 . S
H825 C798 0.983 . S
H826 C797 0.982 . S
H827 C797 0.979 . S
H828 C797 0.977 . S
H829 C799 0.948 . S
H830 C801 0.947 . S
H831 C802 0.948 . S
H832 C808 0.982 . S
H833 C808 0.979 . S
H834 C808 0.977 . S
H835 C809 0.979 . S
H836 C809 0.980 . S
H837 C809 0.983 . S
H838 C782 0.947 . S
C839 C782 1.392 . S
C839 C783 1.419 . S
C839 H821 0.948 . S
C840 C841 1.391 . S
C840 C844 1.391 . S
C840 H882 0.948 . S
C841 C840 1.391 . S
C841 C842 1.391 . S
C842 C841 1.391 . S
C842 H898 0.947 . S
C842 C899 1.392 . S
C843 C844 1.391 . S
C843 C847 1.397 . S
C843 C899 1.419 . S
C844 C840 1.391 . S
C844 C843 1.391 . S
C844 C845 1.399 . S
C845 C844 1.399 . S
C845 C848 1.396 . S
C845 C857 1.453 . S
C845 C858 1.684 . S
H846 C870 0.948 . S
C847 C843 1.397 . S
C847 C848 1.394 . S
C847 C866 1.723 . S
C848 C845 1.396 . S
C848 C847 1.394 . S
C848 C878 1.723 . S
H849 C872 0.947 . S
H850 C873 0.948 . S
H851 C879 0.982 . S
H852 C880 0.979 . S
H853 C880 0.980 . S
H854 C880 0.983 . S
H855 C879 0.979 . S
H856 C879 0.977 . S
C857 C845 1.453 . S
C857 H886 0.982 . S
C857 H887 0.979 . S
C857 H888 0.977 . S
C858 C845 1.684 . S
C858 H883 0.979 . S
C858 H884 0.980 . S
C858 H885 0.983 . S
C859 C860 1.391 . S
C859 C864 1.391 . S
C859 H889 0.948 . S
C860 C859 1.391 . S
C860 C861 1.391 . S
C861 C860 1.391 . S
C861 C862 1.392 . S
C861 H890 0.947 . S
C862 C861 1.392 . S
C862 C863 1.419 . S
C862 H891 0.948 . S
C863 C862 1.419 . S
C863 C864 1.391 . S
C863 C867 1.397 . S
C864 C859 1.391 . S
C864 C863 1.391 . S
C864 C865 1.399 . S
C865 C864 1.399 . S
C865 C866 1.396 . S
C865 C868 1.453 . S
C865 C869 1.684 . S
C866 C847 1.723 . S
C866 C865 1.396 . S
C866 C867 1.394 . S
C867 C863 1.397 . S
C867 C866 1.394 . S
C867 C877 1.723 . S
C868 C865 1.453 . S
C868 H892 0.982 . S
C868 H893 0.979 . S
C868 H894 0.977 . S
C869 C865 1.684 . S
C869 H895 0.979 . S
C869 H896 0.980 . S
C869 H897 0.983 . S
C870 H846 0.948 . S
C870 C871 1.391 . S
C870 C875 1.391 . S
C871 C870 1.391 . S
C871 C872 1.391 . S
C872 H849 0.947 . S
C872 C871 1.391 . S
C872 C873 1.392 . S
C873 H850 0.948 . S
C873 C872 1.392 . S
C873 C874 1.419 . S
C874 C873 1.419 . S
C874 C875 1.391 . S
C874 C878 1.397 . S
C875 C870 1.391 . S
C875 C874 1.391 . S
C875 C876 1.399 . S
C876 C875 1.399 . S
C876 C877 1.396 . S
C876 C879 1.453 . S
C876 C880 1.684 . S
C877 C867 1.723 . S
C877 C876 1.396 . S
C877 C878 1.394 . S
C878 C848 1.723 . S
C878 C874 1.397 . S
C878 C877 1.394 . S
C879 H851 0.982 . S
C879 H855 0.979 . S
C879 H856 0.977 . S
C879 C876 1.453 . S
C880 H852 0.979 . S
C880 H853 0.980 . S
C880 H854 0.983 . S
C880 C876 1.684 . S
H881 C899 0.948 . S
H882 C840 0.948 . S
H883 C858 0.979 . S
H884 C858 0.980 . S
H885 C858 0.983 . S
H886 C857 0.982 . S
H887 C857 0.979 . S
H888 C857 0.977 . S
H889 C859 0.948 . S
H890 C861 0.947 . S
H891 C862 0.948 . S
H892 C868 0.982 . S
H893 C868 0.979 . S
H894 C868 0.977 . S
H895 C869 0.979 . S
H896 C869 0.980 . S
H897 C869 0.983 . S
H898 C842 0.947 . S
C899 C842 1.392 . S
C899 C843 1.419 . S
C899 H881 0.948 . S
C900 C901 1.391 . S
C900 C904 1.391 . S
C900 H942 0.948 . S
C901 C900 1.391 . S
C901 C902 1.391 . S
C902 C901 1.391 . S
C902 H958 0.947 . S
C902 C959 1.392 . S
C903 C904 1.391 . S
C903 C907 1.397 . S
C903 C959 1.419 . S
C904 C900 1.391 . S
C904 C903 1.391 . S
C904 C905 1.399 . S
C905 C904 1.399 . S
C905 C908 1.396 . S
C905 C917 1.453 . S
C905 C918 1.684 . S
H906 C930 0.948 . S
C907 C903 1.397 . S
C907 C908 1.394 . S
C907 C926 1.723 . S
C908 C905 1.396 . S
C908 C907 1.394 . S
C908 C938 1.723 . S
H909 C932 0.947 1_554 S
H910 C933 0.948 . S
H911 C939 0.982 . S
H912 C940 0.979 . S
H913 C940 0.980 . S
H914 C940 0.983 . S
H915 C939 0.979 . S
H916 C939 0.977 . S
C917 C905 1.453 . S
C917 H946 0.982 . S
C917 H947 0.979 . S
C917 H948 0.977 . S
C918 C905 1.684 . S
C918 H943 0.989 . S
C918 H944 0.980 . S
C918 H945 0.963 1_556 S
C919 C920 1.391 . S
C919 C924 1.391 . S
C919 H949 0.948 . S
C920 C919 1.391 . S
C920 C921 1.391 . S
C921 C920 1.391 . S
C921 C922 1.392 . S
C921 H950 0.947 . S
C922 C921 1.392 . S
C922 C923 1.419 . S
C922 H951 0.948 . S
C923 C922 1.419 . S
C923 C924 1.391 . S
C923 C927 1.397 . S
C924 C919 1.391 . S
C924 C923 1.391 . S
C924 C925 1.399 . S
C925 C924 1.399 . S
C925 C926 1.396 . S
C925 C928 1.453 . S
C925 C929 1.684 . S
C926 C907 1.723 . S
C926 C925 1.396 . S
C926 C927 1.394 . S
C927 C923 1.397 . S
C927 C926 1.394 . S
C927 C937 1.723 . S
C928 C925 1.453 . S
C928 H952 0.982 . S
C928 H953 0.979 . S
C928 H954 0.977 . S
C929 C925 1.684 . S
C929 H955 0.979 . S
C929 H956 0.980 . S
C929 H957 0.983 . S
C930 H906 0.948 . S
C930 C931 1.391 . S
C930 C935 1.391 . S
C931 C930 1.391 . S
C931 C932 1.391 . S
C932 H909 0.947 1_556 S
C932 C931 1.391 . S
C932 C933 1.392 . S
C933 H910 0.948 . S
C933 C932 1.392 . S
C933 C934 1.419 . S
C934 C933 1.419 . S
C934 C935 1.391 . S
C934 C938 1.397 . S
C935 C930 1.391 . S
C935 C934 1.391 . S
C935 C936 1.399 . S
C936 C935 1.399 . S
C936 C937 1.396 . S
C936 C939 1.453 . S
C936 C940 1.684 . S
C937 C927 1.723 . S
C937 C936 1.396 . S
C937 C938 1.394 . S
C938 C908 1.723 . S
C938 C934 1.397 . S
C938 C937 1.394 . S
C939 H911 0.982 . S
C939 H915 0.979 . S
C939 H916 0.977 . S
C939 C936 1.453 . S
C940 H912 0.979 . S
C940 H913 0.980 . S
C940 H914 0.983 . S
C940 C936 1.684 . S
H941 C959 0.948 . S
H942 C900 0.948 . S
H943 C918 0.989 . S
H944 C918 0.980 . S
H945 C918 0.963 1_554 S
H946 C917 0.982 . S
H947 C917 0.979 . S
H948 C917 0.977 . S
H949 C919 0.948 . S
H950 C921 0.947 . S
H951 C922 0.948 . S
H952 C928 0.982 . S
H953 C928 0.979 . S
H954 C928 0.977 . S
H955 C929 0.979 . S
H956 C929 0.980 . S
H957 C929 0.983 . S
H958 C902 0.947 . S
C959 C902 1.392 . S
C959 C903 1.419 . S
C959 H941 0.948 . S
O960 Cd961 2.223 . S
O960 C968 1.315 . S
Cd961 O960 2.223 . S
Cd961 O964 2.297 . S
Cd961 O965 2.439 . S
Cd961 O971 2.240 . S
Cd962 O963 2.240 . S
Cd962 O970 2.223 . S
Cd962 O972 2.297 . S
Cd962 O973 2.439 . S
O963 Cd962 2.240 . S
O963 C968 1.279 . S
O964 Cd961 2.297 . S
O964 C966 1.247 . S
O965 Cd961 2.439 . S
O965 C966 1.208 . S
C966 O964 1.247 . S
C966 O965 1.208 . S
C967 O972 1.247 . S
C967 O973 1.208 . S
C968 O960 1.315 . S
C968 O963 1.279 . S
C969 O970 1.315 . S
C969 O971 1.279 . S
O970 Cd962 2.223 . S
O970 C969 1.315 . S
O971 Cd961 2.240 . S
O971 C969 1.279 . S
O972 Cd962 2.297 . S
O972 C967 1.247 . S
O973 Cd962 2.439 . S
O973 C967 1.208 . S
O974 Cd975 2.223 . S
O974 C982 1.315 . S
Cd975 O974 2.223 . S
Cd975 O978 2.297 . S
Cd975 O979 2.439 . S
Cd975 O985 2.240 . S
Cd976 O977 2.240 . S
Cd976 O984 2.223 . S
Cd976 O986 2.297 . S
Cd976 O987 2.439 . S
O977 Cd976 2.240 . S
O977 C982 1.279 . S
O978 Cd975 2.297 . S
O978 C980 1.247 . S
O979 Cd975 2.439 . S
O979 C980 1.208 . S
C980 O978 1.247 . S
C980 O979 1.208 . S
C981 O986 1.247 . S
C981 O987 1.208 . S
C982 O974 1.315 . S
C982 O977 1.279 . S
C983 O984 1.315 . S
C983 O985 1.279 . S
O984 Cd976 2.223 . S
O984 C983 1.315 . S
O985 Cd975 2.240 . S
O985 C983 1.279 . S
O986 Cd976 2.297 . S
O986 C981 1.247 . S
O987 Cd976 2.439 . S
O987 C981 1.208 . S
O988 Cd989 2.223 1_556 S
O988 C996 1.315 . S
Cd989 O988 2.223 1_554 S
Cd989 O992 2.297 . S
Cd989 O993 2.439 . S
Cd989 O999 2.240 . S
Cd990 O991 2.240 . S
Cd990 O998 2.223 . S
Cd990 O1000 2.297 1_556 S
Cd990 O1001 2.439 1_556 S
O991 Cd990 2.240 . S
O991 C996 1.279 . S
O992 Cd989 2.297 . S
O992 C994 1.247 . S
O993 Cd989 2.439 . S
O993 C994 1.208 . S
C994 O992 1.247 . S
C994 O993 1.208 . S
C995 O1000 1.247 . S
C995 O1001 1.208 . S
C996 O988 1.315 . S
C996 O991 1.279 . S
C997 O998 1.315 . S
C997 O999 1.279 1_556 S
O998 Cd990 2.223 . S
O998 C997 1.315 . S
O999 Cd989 2.240 . S
O999 C997 1.279 1_554 S
O1000 Cd990 2.297 1_554 S
O1000 C995 1.247 . S
O1001 Cd990 2.439 1_554 S
O1001 C995 1.208 . S
O1002 Cd1003 2.223 . S
O1002 C1010 1.315 . S
Cd1003 O1002 2.223 . S
Cd1003 O1006 2.297 . S
Cd1003 O1007 2.439 . S
Cd1003 O1013 2.240 . S
Cd1004 O1005 2.240 . S
Cd1004 O1012 2.223 . S
Cd1004 O1014 2.297 . S
Cd1004 O1015 2.439 . S
O1005 Cd1004 2.240 . S
O1005 C1010 1.279 . S
O1006 Cd1003 2.297 . S
O1006 C1008 1.247 . S
O1007 Cd1003 2.439 . S
O1007 C1008 1.208 . S
C1008 O1006 1.247 . S
C1008 O1007 1.208 . S
C1009 O1014 1.247 . S
C1009 O1015 1.208 . S
C1010 O1002 1.315 . S
C1010 O1005 1.279 . S
C1011 O1012 1.315 . S
C1011 O1013 1.279 . S
O1012 Cd1004 2.223 . S
O1012 C1011 1.315 . S
O1013 Cd1003 2.240 . S
O1013 C1011 1.279 . S
O1014 Cd1004 2.297 . S
O1014 C1009 1.247 . S
O1015 Cd1004 2.439 . S
O1015 C1009 1.208 . S
O1016 Cd1017 2.223 . S
O1016 C1024 1.315 . S
Cd1017 O1016 2.223 . S
Cd1017 O1020 2.297 . S
Cd1017 O1021 2.439 . S
Cd1017 O1027 2.240 . S
Cd1018 O1019 2.240 . S
Cd1018 O1026 2.223 . S
Cd1018 O1028 2.297 . S
Cd1018 O1029 2.439 . S
O1019 Cd1018 2.240 . S
O1019 C1024 1.279 . S
O1020 Cd1017 2.297 . S
O1020 C1022 1.247 . S
O1021 Cd1017 2.439 . S
O1021 C1022 1.208 . S
C1022 O1020 1.247 . S
C1022 O1021 1.208 . S
C1023 O1028 1.247 . S
C1023 O1029 1.208 . S
C1024 O1016 1.315 . S
C1024 O1019 1.279 . S
C1025 O1026 1.315 . S
C1025 O1027 1.279 . S
O1026 Cd1018 2.223 . S
O1026 C1025 1.315 . S
O1027 Cd1017 2.240 . S
O1027 C1025 1.279 . S
O1028 Cd1018 2.297 . S
O1028 C1023 1.247 . S
O1029 Cd1018 2.439 . S
O1029 C1023 1.208 . S
O1030 Cd1031 2.223 . S
O1030 C1038 1.315 . S
Cd1031 O1030 2.223 . S
Cd1031 O1034 2.297 . S
Cd1031 O1035 2.439 . S
Cd1031 O1041 2.240 . S
Cd1032 O1033 2.240 . S
Cd1032 O1040 2.223 . S
Cd1032 O1042 2.297 . S
Cd1032 O1043 2.439 . S
O1033 Cd1032 2.240 . S
O1033 C1038 1.279 . S
O1034 Cd1031 2.297 . S
O1034 C1036 1.247 . S
O1035 Cd1031 2.439 . S
O1035 C1036 1.208 . S
C1036 O1034 1.247 . S
C1036 O1035 1.208 . S
C1037 O1042 1.247 . S
C1037 O1043 1.208 . S
C1038 O1030 1.315 . S
C1038 O1033 1.279 . S
C1039 O1040 1.315 . S
C1039 O1041 1.279 . S
O1040 Cd1032 2.223 . S
O1040 C1039 1.315 . S
O1041 Cd1031 2.240 . S
O1041 C1039 1.279 . S
O1042 Cd1032 2.297 . S
O1042 C1037 1.247 . S
O1043 Cd1032 2.439 . S
O1043 C1037 1.208 . S
O1044 Cd1045 2.223 . S
O1044 C1052 1.315 . S
Cd1045 O1044 2.223 . S
Cd1045 O1048 2.297 . S
Cd1045 O1049 2.439 . S
Cd1045 O1055 2.240 . S
Cd1046 O1047 2.240 . S
Cd1046 O1054 2.223 . S
Cd1046 O1056 2.297 . S
Cd1046 O1057 2.439 . S
O1047 Cd1046 2.240 . S
O1047 C1052 1.279 . S
O1048 Cd1045 2.297 . S
O1048 C1050 1.247 . S
O1049 Cd1045 2.439 . S
O1049 C1050 1.208 . S
C1050 O1048 1.247 . S
C1050 O1049 1.208 . S
C1051 O1056 1.247 . S
C1051 O1057 1.208 . S
C1052 O1044 1.315 . S
C1052 O1047 1.279 . S
C1053 O1054 1.315 . S
C1053 O1055 1.279 . S
O1054 Cd1046 2.223 . S
O1054 C1053 1.315 . S
O1055 Cd1045 2.240 . S
O1055 C1053 1.279 . S
O1056 Cd1046 2.297 . S
O1056 C1051 1.247 . S
O1057 Cd1046 2.439 . S
O1057 C1051 1.208 . S
O1058 Cd1059 2.223 1_545 S
O1058 C1066 1.315 . S
Cd1059 O1058 2.223 1_565 S
Cd1059 O1062 2.297 . S
Cd1059 O1063 2.439 . S
Cd1059 O1069 2.240 1_565 S
Cd1060 O1061 2.240 . S
Cd1060 O1068 2.223 . S
Cd1060 O1070 2.297 . S
Cd1060 O1071 2.439 1_545 S
O1061 Cd1060 2.240 . S
O1061 C1066 1.279 . S
O1062 Cd1059 2.297 . S
O1062 C1064 1.247 . S
O1063 Cd1059 2.439 . S
O1063 C1064 1.208 . S
C1064 O1062 1.247 . S
C1064 O1063 1.208 . S
C1065 O1070 1.247 1_565 S
C1065 O1071 1.208 . S
C1066 O1058 1.315 . S
C1066 O1061 1.279 . S
C1067 O1068 1.315 . S
C1067 O1069 1.279 . S
O1068 Cd1060 2.223 . S
O1068 C1067 1.315 . S
O1069 Cd1059 2.240 1_545 S
O1069 C1067 1.279 . S
O1070 Cd1060 2.297 . S
O1070 C1065 1.247 1_545 S
O1071 Cd1060 2.439 1_565 S
O1071 C1065 1.208 . S
O1072 Cd1073 2.223 . S
O1072 C1080 1.315 . S
Cd1073 O1072 2.223 . S
Cd1073 O1076 2.297 1_655 S
Cd1073 O1077 2.439 1_655 S
Cd1073 O1083 2.240 . S
Cd1074 O1075 2.240 . S
Cd1074 O1082 2.223 1_455 S
Cd1074 O1084 2.297 . S
Cd1074 O1085 2.439 . S
O1075 Cd1074 2.240 . S
O1075 C1080 1.279 1_455 S
O1076 Cd1073 2.297 1_455 S
O1076 C1078 1.247 . S
O1077 Cd1073 2.439 1_455 S
O1077 C1078 1.208 . S
C1078 O1076 1.247 . S
C1078 O1077 1.208 . S
C1079 O1084 1.247 . S
C1079 O1085 1.208 . S
C1080 O1072 1.315 . S
C1080 O1075 1.279 1_655 S
C1081 O1082 1.315 . S
C1081 O1083 1.279 . S
O1082 Cd1074 2.223 1_655 S
O1082 C1081 1.315 . S
O1083 Cd1073 2.240 . S
O1083 C1081 1.279 . S
O1084 Cd1074 2.297 . S
O1084 C1079 1.247 . S
O1085 Cd1074 2.439 . S
O1085 C1079 1.208 . S
O1086 Cd1087 2.223 . S
O1086 C1094 1.315 . S
Cd1087 O1086 2.223 . S
Cd1087 O1090 2.297 . S
Cd1087 O1091 2.439 . S
Cd1087 O1097 2.240 . S
Cd1088 O1089 2.240 . S
Cd1088 O1096 2.223 . S
Cd1088 O1098 2.297 . S
Cd1088 O1099 2.439 . S
O1089 Cd1088 2.240 . S
O1089 C1094 1.279 . S
O1090 Cd1087 2.297 . S
O1090 C1092 1.247 . S
O1091 Cd1087 2.439 . S
O1091 C1092 1.208 . S
C1092 O1090 1.247 . S
C1092 O1091 1.208 . S
C1093 O1098 1.247 . S
C1093 O1099 1.208 . S
C1094 O1086 1.315 . S
C1094 O1089 1.279 . S
C1095 O1096 1.315 . S
C1095 O1097 1.279 . S
O1096 Cd1088 2.223 . S
O1096 C1095 1.315 . S
O1097 Cd1087 2.240 . S
O1097 C1095 1.279 . S
O1098 Cd1088 2.297 . S
O1098 C1093 1.247 . S
O1099 Cd1088 2.439 . S
O1099 C1093 1.208 . S
O1100 Cd1101 2.223 1_655 S
O1100 C1108 1.315 . S
Cd1101 O1100 2.223 1_455 S
Cd1101 O1104 2.297 . S
Cd1101 O1105 2.439 . S
Cd1101 O1111 2.240 . S
Cd1102 O1103 2.240 . S
Cd1102 O1110 2.223 . S
Cd1102 O1112 2.297 1_655 S
Cd1102 O1113 2.439 1_655 S
O1103 Cd1102 2.240 . S
O1103 C1108 1.279 . S
O1104 Cd1101 2.297 . S
O1104 C1106 1.247 . S
O1105 Cd1101 2.439 . S
O1105 C1106 1.208 . S
C1106 O1104 1.247 . S
C1106 O1105 1.208 . S
C1107 O1112 1.247 . S
C1107 O1113 1.208 . S
C1108 O1100 1.315 . S
C1108 O1103 1.279 . S
C1109 O1110 1.315 . S
C1109 O1111 1.279 1_655 S
O1110 Cd1102 2.223 . S
O1110 C1109 1.315 . S
O1111 Cd1101 2.240 . S
O1111 C1109 1.279 1_455 S
O1112 Cd1102 2.297 1_455 S
O1112 C1107 1.247 . S
O1113 Cd1102 2.439 1_455 S
O1113 C1107 1.208 . S
O1114 Cd1115 2.223 . S
O1114 C1122 1.315 . S
Cd1115 O1114 2.223 . S
Cd1115 O1118 2.297 . S
Cd1115 O1119 2.439 . S
Cd1115 O1125 2.240 . S
Cd1116 O1117 2.240 . S
Cd1116 O1124 2.223 . S
Cd1116 O1126 2.297 . S
Cd1116 O1127 2.439 . S
O1117 Cd1116 2.240 . S
O1117 C1122 1.279 . S
O1118 Cd1115 2.297 . S
O1118 C1120 1.247 . S
O1119 Cd1115 2.439 . S
O1119 C1120 1.208 . S
C1120 O1118 1.247 . S
C1120 O1119 1.208 . S
C1121 O1126 1.247 . S
C1121 O1127 1.208 . S
C1122 O1114 1.315 . S
C1122 O1117 1.279 . S
C1123 O1124 1.315 . S
C1123 O1125 1.279 . S
O1124 Cd1116 2.223 . S
O1124 C1123 1.315 . S
O1125 Cd1115 2.240 . S
O1125 C1123 1.279 . S
O1126 Cd1116 2.297 . S
O1126 C1121 1.247 . S
O1127 Cd1116 2.439 . S
O1127 C1121 1.208 . S
H1128 C1134 0.930 . S
H1129 C1138 0.930 1_554 S
H1130 C1143 0.929 . S
H1131 C1141 0.929 . S
H1132 C1136 0.929 . S
H1133 C1142 0.929 . S
C1134 H1128 0.930 . S
C1134 C1135 1.367 . S
C1134 C1142 1.378 . S
C1135 C1134 1.367 . S
C1135 C1143 1.433 . S
C1136 H1132 0.929 . S
C1136 C1138 1.378 . S
C1136 C1140 1.350 . S
C1137 C1140 1.463 . S
C1137 C1142 1.350 . S
C1137 N1145 1.427 . S
C1138 H1129 0.930 1_556 S
C1138 C1136 1.378 . S
C1138 C1139 1.367 . S
C1139 C1138 1.367 . S
C1139 C1141 1.433 . S
C1140 C1136 1.350 . S
C1140 C1137 1.463 . S
C1140 N1144 1.427 . S
C1141 H1131 0.929 . S
C1141 C1139 1.433 . S
C1141 N1144 1.384 . S
C1142 H1133 0.929 . S
C1142 C1134 1.378 . S
C1142 C1137 1.350 . S
C1143 H1130 0.929 . S
C1143 C1135 1.433 . S
C1143 N1145 1.384 . S
N1144 C1140 1.427 . S
N1144 C1141 1.384 . S
N1145 C1137 1.427 . S
N1145 C1143 1.384 . S
H1146 C1152 0.930 . S
H1147 C1156 0.930 . S
H1148 C1161 0.929 . S
H1149 C1159 0.929 . S
H1150 C1154 0.929 . S
H1151 C1160 0.929 . S
C1152 H1146 0.930 . S
C1152 C1153 1.367 1_455 S
C1152 C1160 1.378 . S
C1153 C1152 1.367 1_655 S
C1153 C1161 1.433 . S
C1154 H1150 0.929 . S
C1154 C1156 1.378 . S
C1154 C1158 1.350 . S
C1155 C1158 1.463 . S
C1155 C1160 1.350 . S
C1155 N1163 1.427 . S
C1156 H1147 0.930 . S
C1156 C1154 1.378 . S
C1156 C1157 1.367 . S
C1157 C1156 1.367 . S
C1157 C1159 1.433 . S
C1158 C1154 1.350 . S
C1158 C1155 1.463 . S
C1158 N1162 1.427 . S
C1159 H1149 0.929 . S
C1159 C1157 1.433 . S
C1159 N1162 1.384 . S
C1160 H1151 0.929 . S
C1160 C1152 1.378 . S
C1160 C1155 1.350 . S
C1161 H1148 0.929 . S
C1161 C1153 1.433 . S
C1161 N1163 1.384 1_655 S
N1162 C1158 1.427 . S
N1162 C1159 1.384 . S
N1163 C1155 1.427 . S
N1163 C1161 1.384 1_455 S
H1164 C1170 0.930 . S
H1165 C1174 0.930 . S
H1166 C1179 0.929 . S
H1167 C1177 0.929 . S
H1168 C1172 0.929 . S
H1169 C1178 0.929 . S
C1170 H1164 0.930 . S
C1170 C1171 1.367 . S
C1170 C1178 1.378 . S
C1171 C1170 1.367 . S
C1171 C1179 1.433 . S
C1172 H1168 0.929 . S
C1172 C1174 1.378 . S
C1172 C1176 1.350 . S
C1173 C1176 1.463 . S
C1173 C1178 1.350 . S
C1173 N1181 1.427 . S
C1174 H1165 0.930 . S
C1174 C1172 1.378 . S
C1174 C1175 1.367 . S
C1175 C1174 1.367 . S
C1175 C1177 1.433 . S
C1176 C1172 1.350 . S
C1176 C1173 1.463 . S
C1176 N1180 1.427 . S
C1177 H1167 0.929 . S
C1177 C1175 1.433 . S
C1177 N1180 1.384 . S
C1178 H1169 0.929 . S
C1178 C1170 1.378 . S
C1178 C1173 1.350 . S
C1179 H1166 0.929 . S
C1179 C1171 1.433 . S
C1179 N1181 1.384 . S
N1180 C1176 1.427 . S
N1180 C1177 1.384 . S
N1181 C1173 1.427 . S
N1181 C1179 1.384 . S
H1182 C1188 0.930 1_455 S
H1183 C1192 0.930 . S
H1184 C1197 0.934 . S
H1185 C1195 0.929 . S
H1186 C1190 0.929 . S
H1187 C1196 0.929 . S
C1188 H1182 0.930 1_655 S
C1188 C1189 1.367 1_655 S
C1188 C1196 1.378 . S
C1189 C1188 1.367 1_455 S
C1189 C1197 1.438 . S
C1190 H1186 0.929 . S
C1190 C1192 1.378 . S
C1190 C1194 1.350 . S
C1191 C1194 1.463 1_565 S
C1191 C1196 1.350 . S
C1191 N1199 1.427 1_565 S
C1192 H1183 0.930 . S
C1192 C1190 1.378 . S
C1192 C1193 1.367 . S
C1193 C1192 1.367 . S
C1193 C1195 1.433 . S
C1194 C1190 1.350 . S
C1194 C1191 1.463 1_545 S
C1194 N1198 1.427 1_545 S
C1195 H1185 0.929 . S
C1195 C1193 1.433 . S
C1195 N1198 1.384 1_545 S
C1196 H1187 0.929 . S
C1196 C1188 1.378 . S
C1196 C1191 1.350 . S
C1197 H1184 0.934 . S
C1197 C1189 1.438 . S
C1197 N1199 1.374 1_465 S
N1198 C1194 1.427 1_565 S
N1198 C1195 1.384 1_565 S
N1199 C1191 1.427 1_545 S
N1199 C1197 1.374 1_645 S
H1200 C1206 0.930 . S
H1201 C1210 0.930 . S
H1202 C1215 0.929 . S
H1203 C1213 0.929 . S
H1204 C1208 0.929 . S
H1205 C1214 0.929 . S
C1206 H1200 0.930 . S
C1206 C1207 1.367 . S
C1206 C1214 1.378 . S
C1207 C1206 1.367 . S
C1207 C1215 1.433 . S
C1208 H1204 0.929 . S
C1208 C1210 1.378 . S
C1208 C1212 1.350 . S
C1209 C1212 1.463 . S
C1209 C1214 1.350 . S
C1209 N1217 1.427 . S
C1210 H1201 0.930 . S
C1210 C1208 1.378 . S
C1210 C1211 1.367 . S
C1211 C1210 1.367 . S
C1211 C1213 1.433 . S
C1212 C1208 1.350 . S
C1212 C1209 1.463 . S
C1212 N1216 1.427 . S
C1213 H1203 0.929 . S
C1213 C1211 1.433 . S
C1213 N1216 1.384 . S
C1214 H1205 0.929 . S
C1214 C1206 1.378 . S
C1214 C1209 1.350 . S
C1215 H1202 0.929 . S
C1215 C1207 1.433 . S
C1215 N1217 1.384 . S
N1216 C1212 1.427 . S
N1216 C1213 1.384 . S
N1217 C1209 1.427 . S
N1217 C1215 1.384 . S
H1218 C1224 0.930 . S
H1219 C1228 0.930 . S
H1220 C1233 0.929 . S
H1221 C1231 0.929 . S
H1222 C1226 0.929 . S
H1223 C1232 0.929 . S
C1224 H1218 0.930 . S
C1224 C1225 1.367 . S
C1224 C1232 1.378 . S
C1225 C1224 1.367 . S
C1225 C1233 1.433 . S
C1226 H1222 0.929 . S
C1226 C1228 1.378 . S
C1226 C1230 1.350 . S
C1227 C1230 1.463 . S
C1227 C1232 1.350 . S
C1227 N1235 1.427 . S
C1228 H1219 0.930 . S
C1228 C1226 1.378 . S
C1228 C1229 1.367 . S
C1229 C1228 1.367 . S
C1229 C1231 1.433 . S
C1230 C1226 1.350 . S
C1230 C1227 1.463 . S
C1230 N1234 1.427 . S
C1231 H1221 0.929 . S
C1231 C1229 1.433 . S
C1231 N1234 1.384 . S
C1232 H1223 0.929 . S
C1232 C1224 1.378 . S
C1232 C1227 1.350 . S
C1233 H1220 0.929 . S
C1233 C1225 1.433 . S
C1233 N1235 1.384 . S
N1234 C1230 1.427 . S
N1234 C1231 1.384 . S
N1235 C1227 1.427 . S
N1235 C1233 1.384 . S
H1236 C1242 0.930 . S
H1237 C1246 0.930 . S
H1238 C1251 0.929 . S
H1239 C1249 0.929 . S
H1240 C1244 0.929 . S
H1241 C1250 0.929 . S
C1242 H1236 0.930 . S
C1242 C1243 1.367 . S
C1242 C1250 1.378 . S
C1243 C1242 1.367 . S
C1243 C1251 1.433 . S
C1244 H1240 0.929 . S
C1244 C1246 1.378 . S
C1244 C1248 1.350 . S
C1245 C1248 1.463 . S
C1245 C1250 1.350 . S
C1245 N1253 1.427 . S
C1246 H1237 0.930 . S
C1246 C1244 1.378 . S
C1246 C1247 1.367 . S
C1247 C1246 1.367 . S
C1247 C1249 1.433 . S
C1248 C1244 1.350 . S
C1248 C1245 1.463 . S
C1248 N1252 1.427 . S
C1249 H1239 0.929 . S
C1249 C1247 1.433 . S
C1249 N1252 1.384 . S
C1250 H1241 0.929 . S
C1250 C1242 1.378 . S
C1250 C1245 1.350 . S
C1251 H1238 0.929 . S
C1251 C1243 1.433 . S
C1251 N1253 1.384 . S
N1252 C1248 1.427 . S
N1252 C1249 1.384 . S
N1253 C1245 1.427 . S
N1253 C1251 1.384 . S
H1254 C1260 0.930 . S
H1255 C1264 0.930 . S
H1256 C1269 0.929 . S
H1257 C1267 0.929 . S
H1258 C1262 0.929 . S
H1259 C1268 0.929 . S
C1260 H1254 0.930 . S
C1260 C1261 1.367 . S
C1260 C1268 1.378 . S
C1261 C1260 1.367 . S
C1261 C1269 1.433 . S
C1262 H1258 0.929 . S
C1262 C1264 1.378 . S
C1262 C1266 1.350 . S
C1263 C1266 1.463 . S
C1263 C1268 1.350 . S
C1263 N1271 1.427 . S
C1264 H1255 0.930 . S
C1264 C1262 1.378 . S
C1264 C1265 1.367 . S
C1265 C1264 1.367 . S
C1265 C1267 1.433 . S
C1266 C1262 1.350 . S
C1266 C1263 1.463 . S
C1266 N1270 1.427 . S
C1267 H1257 0.929 . S
C1267 C1265 1.433 . S
C1267 N1270 1.384 . S
C1268 H1259 0.929 . S
C1268 C1260 1.378 . S
C1268 C1263 1.350 . S
C1269 H1256 0.929 . S
C1269 C1261 1.433 . S
C1269 N1271 1.384 . S
N1270 C1266 1.427 . S
N1270 C1267 1.384 . S
N1271 C1263 1.427 . S
N1271 C1269 1.384 . S
H1272 C1278 0.930 . S
H1273 C1282 0.930 . S
H1274 C1287 0.929 . S
H1275 C1285 0.929 . S
H1276 C1280 0.929 . S
H1277 C1286 0.929 . S
C1278 H1272 0.930 . S
C1278 C1279 1.367 . S
C1278 C1286 1.378 . S
C1279 C1278 1.367 . S
C1279 C1287 1.433 . S
C1280 H1276 0.929 . S
C1280 C1282 1.378 . S
C1280 C1284 1.350 . S
C1281 C1284 1.463 . S
C1281 C1286 1.350 . S
C1281 N1289 1.427 . S
C1282 H1273 0.930 . S
C1282 C1280 1.378 . S
C1282 C1283 1.367 . S
C1283 C1282 1.367 . S
C1283 C1285 1.433 . S
C1284 C1280 1.350 . S
C1284 C1281 1.463 . S
C1284 N1288 1.427 . S
C1285 H1275 0.929 . S
C1285 C1283 1.433 . S
C1285 N1288 1.384 . S
C1286 H1277 0.929 . S
C1286 C1278 1.378 . S
C1286 C1281 1.350 . S
C1287 H1274 0.929 . S
C1287 C1279 1.433 . S
C1287 N1289 1.384 . S
N1288 C1284 1.427 . S
N1288 C1285 1.384 . S
N1289 C1281 1.427 . S
N1289 C1287 1.384 . S
H1290 C1296 0.930 . S
H1291 C1300 0.930 . S
H1292 C1305 0.929 . S
H1293 C1303 0.929 . S
H1294 C1298 0.929 . S
H1295 C1304 0.929 . S
C1296 H1290 0.930 . S
C1296 C1297 1.367 . S
C1296 C1304 1.378 . S
C1297 C1296 1.367 . S
C1297 C1305 1.433 . S
C1298 H1294 0.929 . S
C1298 C1300 1.378 . S
C1298 C1302 1.350 . S
C1299 C1302 1.463 . S
C1299 C1304 1.350 . S
C1299 N1307 1.427 . S
C1300 H1291 0.930 . S
C1300 C1298 1.378 . S
C1300 C1301 1.367 . S
C1301 C1300 1.367 . S
C1301 C1303 1.433 . S
C1302 C1298 1.350 . S
C1302 C1299 1.463 . S
C1302 N1306 1.427 . S
C1303 H1293 0.929 . S
C1303 C1301 1.433 . S
C1303 N1306 1.384 . S
C1304 H1295 0.929 . S
C1304 C1296 1.378 . S
C1304 C1299 1.350 . S
C1305 H1292 0.929 . S
C1305 C1297 1.433 . S
C1305 N1307 1.384 . S
N1306 C1302 1.427 . S
N1306 C1303 1.384 . S
N1307 C1299 1.427 . S
N1307 C1305 1.384 . S
H1308 C1314 0.930 . S
H1309 C1318 0.930 . S
H1310 C1323 0.929 . S
H1311 C1321 0.929 . S
H1312 C1316 0.929 . S
H1313 C1322 0.929 . S
C1314 H1308 0.930 . S
C1314 C1315 1.367 . S
C1314 C1322 1.378 . S
C1315 C1314 1.367 . S
C1315 C1323 1.433 . S
C1316 H1312 0.929 . S
C1316 C1318 1.378 . S
C1316 C1320 1.350 . S
C1317 C1320 1.463 . S
C1317 C1322 1.350 . S
C1317 N1325 1.427 . S
C1318 H1309 0.930 . S
C1318 C1316 1.378 . S
C1318 C1319 1.367 . S
C1319 C1318 1.367 . S
C1319 C1321 1.433 . S
C1320 C1316 1.350 . S
C1320 C1317 1.463 . S
C1320 N1324 1.427 . S
C1321 H1311 0.929 . S
C1321 C1319 1.433 . S
C1321 N1324 1.384 . S
C1322 H1313 0.929 . S
C1322 C1314 1.378 . S
C1322 C1317 1.350 . S
C1323 H1310 0.929 . S
C1323 C1315 1.433 . S
C1323 N1325 1.384 . S
N1324 C1320 1.427 . S
N1324 C1321 1.384 . S
N1325 C1317 1.427 . S
N1325 C1323 1.384 . S
H1326 C1332 0.930 . S
H1327 C1336 0.930 . S
H1328 C1341 0.929 . S
H1329 C1339 0.929 . S
H1330 C1334 0.929 . S
H1331 C1340 0.929 . S
C1332 H1326 0.930 . S
C1332 C1333 1.367 . S
C1332 C1340 1.378 . S
C1333 C1332 1.367 . S
C1333 C1341 1.433 . S
C1334 H1330 0.929 . S
C1334 C1336 1.378 . S
C1334 C1338 1.350 . S
C1335 C1338 1.463 . S
C1335 C1340 1.350 . S
C1335 N1343 1.427 . S
C1336 H1327 0.930 . S
C1336 C1334 1.378 . S
C1336 C1337 1.367 . S
C1337 C1336 1.367 . S
C1337 C1339 1.433 . S
C1338 C1334 1.350 . S
C1338 C1335 1.463 . S
C1338 N1342 1.427 . S
C1339 H1329 0.929 . S
C1339 C1337 1.433 . S
C1339 N1342 1.384 . S
C1340 H1331 0.929 . S
C1340 C1332 1.378 . S
C1340 C1335 1.350 . S
C1341 H1328 0.929 . S
C1341 C1333 1.433 . S
C1341 N1343 1.384 . S
N1342 C1338 1.427 . S
N1342 C1339 1.384 . S
N1343 C1335 1.427 . S
N1343 C1341 1.384 . S
H1344 C1350 0.930 . S
H1345 C1354 0.930 . S
H1346 C1359 0.929 . S
H1347 C1357 0.929 . S
H1348 C1352 0.929 . S
H1349 C1358 0.929 . S
C1350 H1344 0.930 . S
C1350 C1351 1.367 . S
C1350 C1358 1.378 . S
C1351 C1350 1.367 . S
C1351 C1359 1.433 . S
C1352 H1348 0.929 . S
C1352 C1354 1.378 . S
C1352 C1356 1.350 . S
C1353 C1356 1.463 . S
C1353 C1358 1.350 . S
C1353 N1361 1.427 . S
C1354 H1345 0.930 . S
C1354 C1352 1.378 . S
C1354 C1355 1.367 . S
C1355 C1354 1.367 . S
C1355 C1357 1.433 . S
C1356 C1352 1.350 . S
C1356 C1353 1.463 . S
C1356 N1360 1.427 . S
C1357 H1347 0.929 . S
C1357 C1355 1.433 . S
C1357 N1360 1.384 . S
C1358 H1349 0.929 . S
C1358 C1350 1.378 . S
C1358 C1353 1.350 . S
C1359 H1346 0.929 . S
C1359 C1351 1.433 . S
C1359 N1361 1.384 . S
N1360 C1356 1.427 . S
N1360 C1357 1.384 . S
N1361 C1353 1.427 . S
N1361 C1359 1.384 . S
H1362 C1368 0.930 . S
H1363 C1372 0.930 . S
H1364 C1377 0.929 . S
H1365 C1375 0.929 . S
H1366 C1370 0.929 . S
H1367 C1376 0.929 . S
C1368 H1362 0.930 . S
C1368 C1369 1.367 . S
C1368 C1376 1.378 . S
C1369 C1368 1.367 . S
C1369 C1377 1.433 . S
C1370 H1366 0.929 . S
C1370 C1372 1.378 . S
C1370 C1374 1.350 . S
C1371 C1374 1.463 . S
C1371 C1376 1.350 . S
C1371 N1379 1.427 . S
C1372 H1363 0.930 . S
C1372 C1370 1.378 . S
C1372 C1373 1.367 . S
C1373 C1372 1.367 . S
C1373 C1375 1.433 . S
C1374 C1370 1.350 . S
C1374 C1371 1.463 . S
C1374 N1378 1.427 . S
C1375 H1365 0.929 . S
C1375 C1373 1.433 . S
C1375 N1378 1.384 . S
C1376 H1367 0.929 . S
C1376 C1368 1.378 . S
C1376 C1371 1.350 . S
C1377 H1364 0.929 . S
C1377 C1369 1.433 . S
C1377 N1379 1.384 . S
N1378 C1374 1.427 . S
N1378 C1375 1.384 . S
N1379 C1371 1.427 . S
N1379 C1377 1.384 . S
H1380 C1386 0.930 . S
H1381 C1390 0.930 . S
H1382 C1395 0.929 . S
H1383 C1393 0.929 . S
H1384 C1388 0.929 . S
H1385 C1394 0.929 . S
C1386 H1380 0.930 . S
C1386 C1387 1.367 . S
C1386 C1394 1.378 . S
C1387 C1386 1.367 . S
C1387 C1395 1.433 . S
C1388 H1384 0.929 . S
C1388 C1390 1.378 . S
C1388 C1392 1.350 . S
C1389 C1392 1.463 . S
C1389 C1394 1.350 . S
C1389 N1397 1.427 . S
C1390 H1381 0.930 . S
C1390 C1388 1.378 . S
C1390 C1391 1.367 . S
C1391 C1390 1.367 . S
C1391 C1393 1.433 . S
C1392 C1388 1.350 . S
C1392 C1389 1.463 . S
C1392 N1396 1.427 . S
C1393 H1383 0.929 . S
C1393 C1391 1.433 . S
C1393 N1396 1.384 . S
C1394 H1385 0.929 . S
C1394 C1386 1.378 . S
C1394 C1389 1.350 . S
C1395 H1382 0.929 . S
C1395 C1387 1.433 . S
C1395 N1397 1.384 . S
N1396 C1392 1.427 . S
N1396 C1393 1.384 . S
N1397 C1389 1.427 . S
N1397 C1395 1.384 . S
H1398 C1404 0.930 . S
H1399 C1408 0.930 . S
H1400 C1413 0.929 . S
H1401 C1411 0.929 . S
H1402 C1406 0.929 . S
H1403 C1412 0.929 . S
C1404 H1398 0.930 . S
C1404 C1405 1.367 . S
C1404 C1412 1.378 . S
C1405 C1404 1.367 . S
C1405 C1413 1.433 . S
C1406 H1402 0.929 . S
C1406 C1408 1.378 . S
C1406 C1410 1.350 . S
C1407 C1410 1.463 . S
C1407 C1412 1.350 . S
C1407 N1415 1.427 . S
C1408 H1399 0.930 . S
C1408 C1406 1.378 . S
C1408 C1409 1.367 . S
C1409 C1408 1.367 . S
C1409 C1411 1.433 . S
C1410 C1406 1.350 . S
C1410 C1407 1.463 . S
C1410 N1414 1.427 . S
C1411 H1401 0.929 . S
C1411 C1409 1.433 . S
C1411 N1414 1.384 . S
C1412 H1403 0.929 . S
C1412 C1404 1.378 . S
C1412 C1407 1.350 . S
C1413 H1400 0.929 . S
C1413 C1405 1.433 . S
C1413 N1415 1.384 . S
N1414 C1410 1.427 . S
N1414 C1411 1.384 . S
N1415 C1407 1.427 . S
N1415 C1413 1.384 . S
H1416 C1422 0.930 . S
H1417 C1426 0.930 . S
H1418 C1431 0.929 . S
H1419 C1429 0.929 . S
H1420 C1424 0.929 . S
H1421 C1430 0.929 . S
C1422 H1416 0.930 . S
C1422 C1423 1.367 . S
C1422 C1430 1.378 . S
C1423 C1422 1.367 . S
C1423 C1431 1.433 . S
C1424 H1420 0.929 . S
C1424 C1426 1.378 1_565 S
C1424 C1428 1.350 . S
C1425 C1428 1.463 . S
C1425 C1430 1.350 . S
C1425 N1433 1.427 . S
C1426 H1417 0.930 . S
C1426 C1424 1.378 1_545 S
C1426 C1427 1.367 . S
C1427 C1426 1.367 . S
C1427 C1429 1.433 1_545 S
C1428 C1424 1.350 . S
C1428 C1425 1.463 . S
C1428 N1432 1.427 . S
C1429 H1419 0.929 . S
C1429 C1427 1.433 1_565 S
C1429 N1432 1.384 . S
C1430 H1421 0.929 . S
C1430 C1422 1.378 . S
C1430 C1425 1.350 . S
C1431 H1418 0.929 . S
C1431 C1423 1.433 . S
C1431 N1433 1.384 . S
N1432 C1428 1.427 . S
N1432 C1429 1.384 . S
N1433 C1425 1.427 . S
N1433 C1431 1.384 . S
H1434 C1440 0.930 . S
H1435 C1444 0.930 . S
H1436 C1449 0.929 . S
H1437 C1447 0.929 . S
H1438 C1442 0.929 . S
H1439 C1448 0.929 . S
C1440 H1434 0.930 . S
C1440 C1441 1.367 . S
C1440 C1448 1.378 . S
C1441 C1440 1.367 . S
C1441 C1449 1.433 . S
C1442 H1438 0.929 . S
C1442 C1444 1.378 . S
C1442 C1446 1.350 . S
C1443 C1446 1.463 . S
C1443 C1448 1.350 . S
C1443 N1451 1.427 . S
C1444 H1435 0.930 . S
C1444 C1442 1.378 . S
C1444 C1445 1.367 . S
C1445 C1444 1.367 . S
C1445 C1447 1.433 . S
C1446 C1442 1.350 . S
C1446 C1443 1.463 . S
C1446 N1450 1.427 . S
C1447 H1437 0.929 . S
C1447 C1445 1.433 . S
C1447 N1450 1.384 . S
C1448 H1439 0.929 . S
C1448 C1440 1.378 . S
C1448 C1443 1.350 . S
C1449 H1436 0.929 . S
C1449 C1441 1.433 . S
C1449 N1451 1.384 . S
N1450 C1446 1.427 . S
N1450 C1447 1.384 . S
N1451 C1443 1.427 . S
N1451 C1449 1.384 . S
H1452 C1458 0.930 . S
H1453 C1462 0.930 . S
H1454 C1467 0.929 . S
H1455 C1465 0.929 . S
H1456 C1460 0.929 . S
H1457 C1466 0.929 1_554 S
C1458 H1452 0.930 . S
C1458 C1459 1.367 . S
C1458 C1466 1.378 . S
C1459 C1458 1.367 . S
C1459 C1467 1.433 . S
C1460 H1456 0.929 . S
C1460 C1462 1.378 . S
C1460 C1464 1.350 . S
C1461 C1464 1.433 1_545 S
C1461 C1466 1.387 . S
C1461 N1469 1.418 1_545 S
C1462 H1453 0.930 . S
C1462 C1460 1.378 . S
C1462 C1463 1.367 1_556 S
C1463 C1462 1.367 1_554 S
C1463 C1465 1.433 . S
C1464 C1460 1.350 . S
C1464 C1461 1.433 1_565 S
C1464 N1468 1.427 1_556 S
C1465 H1455 0.929 . S
C1465 C1463 1.433 . S
C1465 N1468 1.384 . S
C1466 H1457 0.929 1_556 S
C1466 C1458 1.378 . S
C1466 C1461 1.387 . S
C1467 H1454 0.929 . S
C1467 C1459 1.433 . S
C1467 N1469 1.384 1_545 S
N1468 C1464 1.427 1_554 S
N1468 C1465 1.384 . S
N1469 C1461 1.418 1_565 S
N1469 C1467 1.384 1_565 S
H1470 C1476 0.930 . S
H1471 C1480 0.930 . S
H1472 C1485 0.929 . S
H1473 C1483 0.929 . S
H1474 C1478 0.929 . S
H1475 C1484 0.929 . S
C1476 H1470 0.930 . S
C1476 C1477 1.367 . S
C1476 C1484 1.378 . S
C1477 C1476 1.367 . S
C1477 C1485 1.433 . S
C1478 H1474 0.929 . S
C1478 C1480 1.378 . S
C1478 C1482 1.350 . S
C1479 C1482 1.463 . S
C1479 C1484 1.350 . S
C1479 N1487 1.427 . S
C1480 H1471 0.930 . S
C1480 C1478 1.378 . S
C1480 C1481 1.367 . S
C1481 C1480 1.367 . S
C1481 C1483 1.433 . S
C1482 C1478 1.350 . S
C1482 C1479 1.463 . S
C1482 N1486 1.427 . S
C1483 H1473 0.929 . S
C1483 C1481 1.433 . S
C1483 N1486 1.384 . S
C1484 H1475 0.929 . S
C1484 C1476 1.378 . S
C1484 C1479 1.350 . S
C1485 H1472 0.929 . S
C1485 C1477 1.433 . S
C1485 N1487 1.384 . S
N1486 C1482 1.427 . S
N1486 C1483 1.384 . S
N1487 C1479 1.427 . S
N1487 C1485 1.384 . S
H1488 C1494 0.930 . S
H1489 C1498 0.930 . S
H1490 C1503 0.929 . S
H1491 C1501 0.929 . S
H1492 C1496 0.929 . S
H1493 C1502 0.929 . S
C1494 H1488 0.930 . S
C1494 C1495 1.367 . S
C1494 C1502 1.378 . S
C1495 C1494 1.367 . S
C1495 C1503 1.433 . S
C1496 H1492 0.929 . S
C1496 C1498 1.378 . S
C1496 C1500 1.350 . S
C1497 C1500 1.463 . S
C1497 C1502 1.350 . S
C1497 N1505 1.427 . S
C1498 H1489 0.930 . S
C1498 C1496 1.378 . S
C1498 C1499 1.367 . S
C1499 C1498 1.367 . S
C1499 C1501 1.433 . S
C1500 C1496 1.350 . S
C1500 C1497 1.463 . S
C1500 N1504 1.427 . S
C1501 H1491 0.929 . S
C1501 C1499 1.433 . S
C1501 N1504 1.384 . S
C1502 H1493 0.929 . S
C1502 C1494 1.378 . S
C1502 C1497 1.350 . S
C1503 H1490 0.929 . S
C1503 C1495 1.433 . S
C1503 N1505 1.384 . S
N1504 C1500 1.427 . S
N1504 C1501 1.384 . S
N1505 C1497 1.427 . S
N1505 C1503 1.384 . S
H1506 C1512 0.930 . S
H1507 C1516 0.930 . S
H1508 C1521 0.929 . S
H1509 C1519 0.929 . S
H1510 C1514 0.929 . S
H1511 C1520 0.929 . S
C1512 H1506 0.930 . S
C1512 C1513 1.367 . S
C1512 C1520 1.378 . S
C1513 C1512 1.367 . S
C1513 C1521 1.433 . S
C1514 H1510 0.929 . S
C1514 C1516 1.378 . S
C1514 C1518 1.350 . S
C1515 C1518 1.463 . S
C1515 C1520 1.350 . S
C1515 N1523 1.427 . S
C1516 H1507 0.930 . S
C1516 C1514 1.378 . S
C1516 C1517 1.367 . S
C1517 C1516 1.367 . S
C1517 C1519 1.433 . S
C1518 C1514 1.350 . S
C1518 C1515 1.463 . S
C1518 N1522 1.427 . S
C1519 H1509 0.929 . S
C1519 C1517 1.433 . S
C1519 N1522 1.384 . S
C1520 H1511 0.929 . S
C1520 C1512 1.378 . S
C1520 C1515 1.350 . S
C1521 H1508 0.929 . S
C1521 C1513 1.433 . S
C1521 N1523 1.384 . S
N1522 C1518 1.427 . S
N1522 C1519 1.384 . S
N1523 C1515 1.427 . S
N1523 C1521 1.384 . S
H1524 C1530 0.930 . S
H1525 C1534 0.930 . S
H1526 C1539 0.929 . S
H1527 C1537 0.929 . S
H1528 C1532 0.929 . S
H1529 C1538 0.929 . S
C1530 H1524 0.930 . S
C1530 C1531 1.367 . S
C1530 C1538 1.378 1_565 S
C1531 C1530 1.367 . S
C1531 C1539 1.433 1_565 S
C1532 H1528 0.929 . S
C1532 C1534 1.378 . S
C1532 C1536 1.350 . S
C1533 C1536 1.463 . S
C1533 C1538 1.350 . S
C1533 N1541 1.427 . S
C1534 H1525 0.930 . S
C1534 C1532 1.378 . S
C1534 C1535 1.367 . S
C1535 C1534 1.367 . S
C1535 C1537 1.433 . S
C1536 C1532 1.350 . S
C1536 C1533 1.463 . S
C1536 N1540 1.427 . S
C1537 H1527 0.929 . S
C1537 C1535 1.433 . S
C1537 N1540 1.384 . S
C1538 H1529 0.929 . S
C1538 C1530 1.378 1_545 S
C1538 C1533 1.350 . S
C1539 H1526 0.929 . S
C1539 C1531 1.433 1_545 S
C1539 N1541 1.384 . S
N1540 C1536 1.427 . S
N1540 C1537 1.384 . S
N1541 C1533 1.427 . S
N1541 C1539 1.384 . S
H1542 C1548 0.930 . S
H1543 C1552 0.930 . S
H1544 C1557 0.929 . S
H1545 C1555 0.929 . S
H1546 C1550 0.929 . S
H1547 C1556 0.929 . S
C1548 H1542 0.930 . S
C1548 C1549 1.367 . S
C1548 C1556 1.378 . S
C1549 C1548 1.367 . S
C1549 C1557 1.433 . S
C1550 H1546 0.929 . S
C1550 C1552 1.378 . S
C1550 C1554 1.350 . S
C1551 C1554 1.463 . S
C1551 C1556 1.350 . S
C1551 N1559 1.427 . S
C1552 H1543 0.930 . S
C1552 C1550 1.378 . S
C1552 C1553 1.367 . S
C1553 C1552 1.367 . S
C1553 C1555 1.433 . S
C1554 C1550 1.350 . S
C1554 C1551 1.463 . S
C1554 N1558 1.427 . S
C1555 H1545 0.929 . S
C1555 C1553 1.433 . S
C1555 N1558 1.384 . S
C1556 H1547 0.929 . S
C1556 C1548 1.378 . S
C1556 C1551 1.350 . S
C1557 H1544 0.929 . S
C1557 C1549 1.433 . S
C1557 N1559 1.384 . S
N1558 C1554 1.427 . S
N1558 C1555 1.384 . S
N1559 C1551 1.427 . S
N1559 C1557 1.384 . S
H1560 C1566 0.930 . S
H1561 C1570 0.930 . S
H1562 C1575 0.929 . S
H1563 C1573 0.929 . S
H1564 C1568 0.929 . S
H1565 C1574 0.929 . S
C1566 H1560 0.930 . S
C1566 C1567 1.367 . S
C1566 C1574 1.378 . S
C1567 C1566 1.367 . S
C1567 C1575 1.433 . S
C1568 H1564 0.929 . S
C1568 C1570 1.378 . S
C1568 C1572 1.350 . S
C1569 C1572 1.463 . S
C1569 C1574 1.350 . S
C1569 N1577 1.427 . S
C1570 H1561 0.930 . S
C1570 C1568 1.378 . S
C1570 C1571 1.367 . S
C1571 C1570 1.367 . S
C1571 C1573 1.433 . S
C1572 C1568 1.350 . S
C1572 C1569 1.463 . S
C1572 N1576 1.427 . S
C1573 H1563 0.929 . S
C1573 C1571 1.433 . S
C1573 N1576 1.384 . S
C1574 H1565 0.929 . S
C1574 C1566 1.378 . S
C1574 C1569 1.350 . S
C1575 H1562 0.929 . S
C1575 C1567 1.433 . S
C1575 N1577 1.384 . S
N1576 C1572 1.427 . S
N1576 C1573 1.384 . S
N1577 C1569 1.427 . S
N1577 C1575 1.384 . S
H1578 C1584 0.930 . S
H1579 C1588 0.930 . S
H1580 C1593 0.929 . S
H1581 C1591 0.929 . S
H1582 C1586 0.929 . S
H1583 C1592 0.929 . S
C1584 H1578 0.930 . S
C1584 C1585 1.367 . S
C1584 C1592 1.378 . S
C1585 C1584 1.367 . S
C1585 C1593 1.433 . S
C1586 H1582 0.929 . S
C1586 C1588 1.378 . S
C1586 C1590 1.350 . S
C1587 C1590 1.463 . S
C1587 C1592 1.350 . S
C1587 N1595 1.427 . S
C1588 H1579 0.930 . S
C1588 C1586 1.378 . S
C1588 C1589 1.367 . S
C1589 C1588 1.367 . S
C1589 C1591 1.433 . S
C1590 C1586 1.350 . S
C1590 C1587 1.463 . S
C1590 N1594 1.427 . S
C1591 H1581 0.929 . S
C1591 C1589 1.433 . S
C1591 N1594 1.384 . S
C1592 H1583 0.929 . S
C1592 C1584 1.378 . S
C1592 C1587 1.350 . S
C1593 H1580 0.929 . S
C1593 C1585 1.433 . S
C1593 N1595 1.384 . S
N1594 C1590 1.427 . S
N1594 C1591 1.384 . S
N1595 C1587 1.427 . S
N1595 C1593 1.384 . S
H1596 C1602 0.930 . S
H1597 C1606 0.930 . S
H1598 C1611 0.929 . S
H1599 C1609 0.929 . S
H1600 C1604 0.929 . S
H1601 C1610 0.929 . S
C1602 H1596 0.930 . S
C1602 C1603 1.367 . S
C1602 C1610 1.378 . S
C1603 C1602 1.367 . S
C1603 C1611 1.433 . S
C1604 H1600 0.929 . S
C1604 C1606 1.378 . S
C1604 C1608 1.350 . S
C1605 C1608 1.463 . S
C1605 C1610 1.350 . S
C1605 N1613 1.427 . S
C1606 H1597 0.930 . S
C1606 C1604 1.378 . S
C1606 C1607 1.367 . S
C1607 C1606 1.367 . S
C1607 C1609 1.433 . S
C1608 C1604 1.350 . S
C1608 C1605 1.463 . S
C1608 N1612 1.427 . S
C1609 H1599 0.929 . S
C1609 C1607 1.433 . S
C1609 N1612 1.384 . S
C1610 H1601 0.929 . S
C1610 C1602 1.378 . S
C1610 C1605 1.350 . S
C1611 H1598 0.929 . S
C1611 C1603 1.433 . S
C1611 N1613 1.384 . S
N1612 C1608 1.427 . S
N1612 C1609 1.384 . S
N1613 C1605 1.427 . S
N1613 C1611 1.384 . S
H1614 C1620 0.930 . S
H1615 C1624 0.930 . S
H1616 C1629 0.929 . S
H1617 C1627 0.929 . S
H1618 C1622 0.929 . S
H1619 C1628 0.929 . S
C1620 H1614 0.930 . S
C1620 C1621 1.367 . S
C1620 C1628 1.378 . S
C1621 C1620 1.367 . S
C1621 C1629 1.433 . S
C1622 H1618 0.929 . S
C1622 C1624 1.378 . S
C1622 C1626 1.350 . S
C1623 C1626 1.463 . S
C1623 C1628 1.350 . S
C1623 N1631 1.427 . S
C1624 H1615 0.930 . S
C1624 C1622 1.378 . S
C1624 C1625 1.367 . S
C1625 C1624 1.367 . S
C1625 C1627 1.433 . S
C1626 C1622 1.350 . S
C1626 C1623 1.463 . S
C1626 N1630 1.427 . S
C1627 H1617 0.929 . S
C1627 C1625 1.433 . S
C1627 N1630 1.384 . S
C1628 H1619 0.929 . S
C1628 C1620 1.378 . S
C1628 C1623 1.350 . S
C1629 H1616 0.929 . S
C1629 C1621 1.433 . S
C1629 N1631 1.384 . S
N1630 C1626 1.427 . S
N1630 C1627 1.384 . S
N1631 C1623 1.427 . S
N1631 C1629 1.384 . S
H1632 C1638 0.930 . S
H1633 C1642 0.930 . S
H1634 C1647 0.929 . S
H1635 C1645 0.929 . S
H1636 C1640 0.929 . S
H1637 C1646 0.929 . S
C1638 H1632 0.930 . S
C1638 C1639 1.367 . S
C1638 C1646 1.378 . S
C1639 C1638 1.367 . S
C1639 C1647 1.433 . S
C1640 H1636 0.929 . S
C1640 C1642 1.378 . S
C1640 C1644 1.350 . S
C1641 C1644 1.463 . S
C1641 C1646 1.350 . S
C1641 N1649 1.427 . S
C1642 H1633 0.930 . S
C1642 C1640 1.378 . S
C1642 C1643 1.367 . S
C1643 C1642 1.367 . S
C1643 C1645 1.433 . S
C1644 C1640 1.350 . S
C1644 C1641 1.463 . S
C1644 N1648 1.427 . S
C1645 H1635 0.929 . S
C1645 C1643 1.433 . S
C1645 N1648 1.384 . S
C1646 H1637 0.929 . S
C1646 C1638 1.378 . S
C1646 C1641 1.350 . S
C1647 H1634 0.929 . S
C1647 C1639 1.433 . S
C1647 N1649 1.384 . S
N1648 C1644 1.427 . S
N1648 C1645 1.384 . S
N1649 C1641 1.427 . S
N1649 C1647 1.384 . S
H1650 C1656 0.930 . S
H1651 C1660 0.930 . S
H1652 C1665 0.929 . S
H1653 C1663 0.929 . S
H1654 C1658 0.929 . S
H1655 C1664 0.929 1_655 S
C1656 H1650 0.930 . S
C1656 C1657 1.367 . S
C1656 C1664 1.378 . S
C1657 C1656 1.367 . S
C1657 C1665 1.433 . S
C1658 H1654 0.929 . S
C1658 C1660 1.378 . S
C1658 C1662 1.350 . S
C1659 C1662 1.463 . S
C1659 C1664 1.350 1_655 S
C1659 N1667 1.427 1_655 S
C1660 H1651 0.930 . S
C1660 C1658 1.378 . S
C1660 C1661 1.367 . S
C1661 C1660 1.367 . S
C1661 C1663 1.433 . S
C1662 C1658 1.350 . S
C1662 C1659 1.463 . S
C1662 N1666 1.427 . S
C1663 H1653 0.929 . S
C1663 C1661 1.433 . S
C1663 N1666 1.384 . S
C1664 H1655 0.929 1_455 S
C1664 C1656 1.378 . S
C1664 C1659 1.350 1_455 S
C1665 H1652 0.929 . S
C1665 C1657 1.433 . S
C1665 N1667 1.384 . S
N1666 C1662 1.427 . S
N1666 C1663 1.384 . S
N1667 C1659 1.427 1_455 S
N1667 C1665 1.384 . S
H1668 C1674 0.930 . S
H1669 C1678 0.930 . S
H1670 C1683 0.929 . S
H1671 C1681 0.929 . S
H1672 C1676 0.929 . S
H1673 C1682 0.929 . S
C1674 H1668 0.930 . S
C1674 C1675 1.367 . S
C1674 C1682 1.378 . S
C1675 C1674 1.367 . S
C1675 C1683 1.433 . S
C1676 H1672 0.929 . S
C1676 C1678 1.378 . S
C1676 C1680 1.350 . S
C1677 C1680 1.463 . S
C1677 C1682 1.350 . S
C1677 N1685 1.427 . S
C1678 H1669 0.930 . S
C1678 C1676 1.378 . S
C1678 C1679 1.367 . S
C1679 C1678 1.367 . S
C1679 C1681 1.433 . S
C1680 C1676 1.350 . S
C1680 C1677 1.463 . S
C1680 N1684 1.427 . S
C1681 H1671 0.929 . S
C1681 C1679 1.433 . S
C1681 N1684 1.384 . S
C1682 H1673 0.929 . S
C1682 C1674 1.378 . S
C1682 C1677 1.350 . S
C1683 H1670 0.929 . S
C1683 C1675 1.433 . S
C1683 N1685 1.384 . S
N1684 C1680 1.427 . S
N1684 C1681 1.384 . S
N1685 C1677 1.427 . S
N1685 C1683 1.384 . S
H1686 C1692 0.930 . S
H1687 C1696 0.930 . S
H1688 C1701 0.929 . S
H1689 C1699 0.929 . S
H1690 C1694 0.929 . S
H1691 C1700 0.964 . S
C1692 H1686 0.930 . S
C1692 C1693 1.367 . S
C1692 C1700 1.348 1_655 S
C1693 C1692 1.367 . S
C1693 C1701 1.433 . S
C1694 H1690 0.929 . S
C1694 C1696 1.378 . S
C1694 C1698 1.350 . S
C1695 C1698 1.463 1_655 S
C1695 C1700 1.345 1_655 S
C1695 N1703 1.427 . S
C1696 H1687 0.930 . S
C1696 C1694 1.378 . S
C1696 C1697 1.367 . S
C1697 C1696 1.367 . S
C1697 C1699 1.433 . S
C1698 C1694 1.350 . S
C1698 C1695 1.463 1_455 S
C1698 N1702 1.427 . S
C1699 H1689 0.929 . S
C1699 C1697 1.433 . S
C1699 N1702 1.384 . S
C1700 H1691 0.964 . S
C1700 C1692 1.348 1_455 S
C1700 C1695 1.345 1_455 S
C1701 H1688 0.929 . S
C1701 C1693 1.433 . S
C1701 N1703 1.384 . S
N1702 C1698 1.427 . S
N1702 C1699 1.384 . S
N1703 C1695 1.427 . S
N1703 C1701 1.384 . S
H1704 C1710 0.930 . S
H1705 C1714 0.930 . S
H1706 C1719 0.929 . S
H1707 C1717 0.929 . S
H1708 C1712 0.929 . S
H1709 C1718 0.929 . S
C1710 H1704 0.930 . S
C1710 C1711 1.367 . S
C1710 C1718 1.378 . S
C1711 C1710 1.367 . S
C1711 C1719 1.433 . S
C1712 H1708 0.929 . S
C1712 C1714 1.378 . S
C1712 C1716 1.350 . S
C1713 C1716 1.463 . S
C1713 C1718 1.350 . S
C1713 N1721 1.427 . S
C1714 H1705 0.930 . S
C1714 C1712 1.378 . S
C1714 C1715 1.367 . S
C1715 C1714 1.367 . S
C1715 C1717 1.433 . S
C1716 C1712 1.350 . S
C1716 C1713 1.463 . S
C1716 N1720 1.427 . S
C1717 H1707 0.929 . S
C1717 C1715 1.433 . S
C1717 N1720 1.384 . S
C1718 H1709 0.929 . S
C1718 C1710 1.378 . S
C1718 C1713 1.350 . S
C1719 H1706 0.929 . S
C1719 C1711 1.433 . S
C1719 N1721 1.384 . S
N1720 C1716 1.427 . S
N1720 C1717 1.384 . S
N1721 C1713 1.427 . S
N1721 C1719 1.384 . S
H1722 C1728 0.930 . S
H1723 C1732 0.930 . S
H1724 C1737 0.929 . S
H1725 C1735 0.929 . S
H1726 C1730 0.929 . S
H1727 C1736 0.929 . S
C1728 H1722 0.930 . S
C1728 C1729 1.367 . S
C1728 C1736 1.378 1_554 S
C1729 C1728 1.367 . S
C1729 C1737 1.433 . S
C1730 H1726 0.929 . S
C1730 C1732 1.378 . S
C1730 C1734 1.350 . S
C1731 C1734 1.463 . S
C1731 C1736 1.350 . S
C1731 N1739 1.427 . S
C1732 H1723 0.930 . S
C1732 C1730 1.378 . S
C1732 C1733 1.367 . S
C1733 C1732 1.367 . S
C1733 C1735 1.433 . S
C1734 C1730 1.350 . S
C1734 C1731 1.463 . S
C1734 N1738 1.427 . S
C1735 H1725 0.929 . S
C1735 C1733 1.433 . S
C1735 N1738 1.384 . S
C1736 H1727 0.929 . S
C1736 C1728 1.378 1_556 S
C1736 C1731 1.350 . S
C1737 H1724 0.929 . S
C1737 C1729 1.433 . S
C1737 N1739 1.384 1_554 S
N1738 C1734 1.427 . S
N1738 C1735 1.384 . S
N1739 C1731 1.427 . S
N1739 C1737 1.384 1_556 S
H1740 C1746 0.930 . S
H1741 C1750 0.930 . S
H1742 C1755 0.929 . S
H1743 C1753 0.929 . S
H1744 C1748 0.929 . S
H1745 C1754 0.929 . S
C1746 H1740 0.930 . S
C1746 C1747 1.367 . S
C1746 C1754 1.378 . S
C1747 C1746 1.367 . S
C1747 C1755 1.433 . S
C1748 H1744 0.929 . S
C1748 C1750 1.378 . S
C1748 C1752 1.350 . S
C1749 C1752 1.463 . S
C1749 C1754 1.350 . S
C1749 N1757 1.427 . S
C1750 H1741 0.930 . S
C1750 C1748 1.378 . S
C1750 C1751 1.367 . S
C1751 C1750 1.367 . S
C1751 C1753 1.433 . S
C1752 C1748 1.350 . S
C1752 C1749 1.463 . S
C1752 N1756 1.427 . S
C1753 H1743 0.929 . S
C1753 C1751 1.433 . S
C1753 N1756 1.384 . S
C1754 H1745 0.929 . S
C1754 C1746 1.378 . S
C1754 C1749 1.350 . S
C1755 H1742 0.929 . S
C1755 C1747 1.433 . S
C1755 N1757 1.384 . S
N1756 C1752 1.427 . S
N1756 C1753 1.384 . S
N1757 C1749 1.427 . S
N1757 C1755 1.384 . S
H1758 C1764 0.930 . S
H1759 C1768 0.930 . S
H1760 C1773 0.929 . S
H1761 C1771 0.929 . S
H1762 C1766 0.929 . S
H1763 C1772 0.929 . S
C1764 H1758 0.930 . S
C1764 C1765 1.367 . S
C1764 C1772 1.378 . S
C1765 C1764 1.367 . S
C1765 C1773 1.433 . S
C1766 H1762 0.929 . S
C1766 C1768 1.378 . S
C1766 C1770 1.350 . S
C1767 C1770 1.463 1_554 S
C1767 C1772 1.350 . S
C1767 N1775 1.427 . S
C1768 H1759 0.930 . S
C1768 C1766 1.378 . S
C1768 C1769 1.367 . S
C1769 C1768 1.367 . S
C1769 C1771 1.433 . S
C1770 C1766 1.350 . S
C1770 C1767 1.463 1_556 S
C1770 N1774 1.427 . S
C1771 H1761 0.929 . S
C1771 C1769 1.433 . S
C1771 N1774 1.384 . S
C1772 H1763 0.929 . S
C1772 C1764 1.378 . S
C1772 C1767 1.350 . S
C1773 H1760 0.929 . S
C1773 C1765 1.433 . S
C1773 N1775 1.384 . S
N1774 C1770 1.427 . S
N1774 C1771 1.384 . S
N1775 C1767 1.427 . S
N1775 C1773 1.384 . S
H1776 C1782 0.930 . S
H1777 C1786 0.930 . S
H1778 C1791 0.929 . S
H1779 C1789 0.929 . S
H1780 C1784 0.929 . S
H1781 C1790 0.929 . S
C1782 H1776 0.930 . S
C1782 C1783 1.367 . S
C1782 C1790 1.378 . S
C1783 C1782 1.367 . S
C1783 C1791 1.433 . S
C1784 H1780 0.929 . S
C1784 C1786 1.378 . S
C1784 C1788 1.350 . S
C1785 C1788 1.463 . S
C1785 C1790 1.350 . S
C1785 N1793 1.427 . S
C1786 H1777 0.930 . S
C1786 C1784 1.378 . S
C1786 C1787 1.367 . S
C1787 C1786 1.367 . S
C1787 C1789 1.433 . S
C1788 C1784 1.350 . S
C1788 C1785 1.463 . S
C1788 N1792 1.427 . S
C1789 H1779 0.929 . S
C1789 C1787 1.433 . S
C1789 N1792 1.384 . S
C1790 H1781 0.929 . S
C1790 C1782 1.378 . S
C1790 C1785 1.350 . S
C1791 H1778 0.929 . S
C1791 C1783 1.433 . S
C1791 N1793 1.384 . S
N1792 C1788 1.427 . S
N1792 C1789 1.384 . S
N1793 C1785 1.427 . S
N1793 C1791 1.384 . S
H1794 C1800 0.930 . S
H1795 C1804 0.930 . S
H1796 C1809 0.929 . S
H1797 C1807 0.929 . S
H1798 C1802 0.929 . S
H1799 C1808 0.929 . S
C1800 H1794 0.930 . S
C1800 C1801 1.367 . S
C1800 C1808 1.378 1_556 S
C1801 C1800 1.367 . S
C1801 C1809 1.433 . S
C1802 H1798 0.929 . S
C1802 C1804 1.378 . S
C1802 C1806 1.350 . S
C1803 C1806 1.463 . S
C1803 C1808 1.350 . S
C1803 N1811 1.427 . S
C1804 H1795 0.930 . S
C1804 C1802 1.378 . S
C1804 C1805 1.367 . S
C1805 C1804 1.367 . S
C1805 C1807 1.433 . S
C1806 C1802 1.350 . S
C1806 C1803 1.463 . S
C1806 N1810 1.427 . S
C1807 H1797 0.929 . S
C1807 C1805 1.433 . S
C1807 N1810 1.384 . S
C1808 H1799 0.929 . S
C1808 C1800 1.378 1_554 S
C1808 C1803 1.350 . S
C1809 H1796 0.929 . S
C1809 C1801 1.433 . S
C1809 N1811 1.384 1_556 S
N1810 C1806 1.427 . S
N1810 C1807 1.384 . S
N1811 C1803 1.427 . S
N1811 C1809 1.384 1_554 S
H1812 C1818 0.930 . S
H1813 C1822 0.930 . S
H1814 C1827 0.929 . S
H1815 C1825 0.929 . S
H1816 C1820 0.929 . S
H1817 C1826 0.929 . S
C1818 H1812 0.930 . S
C1818 C1819 1.367 . S
C1818 C1826 1.378 . S
C1819 C1818 1.367 . S
C1819 C1827 1.433 . S
C1820 H1816 0.929 . S
C1820 C1822 1.378 . S
C1820 C1824 1.350 . S
C1821 C1824 1.463 . S
C1821 C1826 1.350 . S
C1821 N1829 1.427 . S
C1822 H1813 0.930 . S
C1822 C1820 1.378 . S
C1822 C1823 1.367 . S
C1823 C1822 1.367 . S
C1823 C1825 1.433 . S
C1824 C1820 1.350 . S
C1824 C1821 1.463 . S
C1824 N1828 1.427 . S
C1825 H1815 0.929 . S
C1825 C1823 1.433 . S
C1825 N1828 1.384 . S
C1826 H1817 0.929 . S
C1826 C1818 1.378 . S
C1826 C1821 1.350 . S
C1827 H1814 0.929 . S
C1827 C1819 1.433 . S
C1827 N1829 1.384 . S
N1828 C1824 1.427 . S
N1828 C1825 1.384 . S
N1829 C1821 1.427 . S
N1829 C1827 1.384 . S
H1830 C1836 0.930 . S
H1831 C1840 0.930 . S
H1832 C1845 0.901 1_556 S
H1833 C1843 0.929 . S
H1834 C1838 0.929 . S
H1835 C1844 0.929 . S
C1836 H1830 0.930 . S
C1836 C1837 1.367 . S
C1836 C1844 1.378 . S
C1837 C1836 1.367 . S
C1837 C1845 1.433 . S
C1838 H1834 0.929 . S
C1838 C1840 1.378 . S
C1838 C1842 1.350 . S
C1839 C1842 1.463 . S
C1839 C1844 1.350 . S
C1839 N1847 1.427 . S
C1840 H1831 0.930 . S
C1840 C1838 1.378 . S
C1840 C1841 1.367 . S
C1841 C1840 1.367 . S
C1841 C1843 1.433 . S
C1842 C1838 1.350 . S
C1842 C1839 1.463 . S
C1842 N1846 1.427 . S
C1843 H1833 0.929 . S
C1843 C1841 1.433 . S
C1843 N1846 1.384 . S
C1844 H1835 0.929 . S
C1844 C1836 1.378 . S
C1844 C1839 1.350 . S
C1845 H1832 0.901 1_554 S
C1845 C1837 1.433 . S
C1845 N1847 1.384 . S
N1846 C1842 1.427 . S
N1846 C1843 1.384 . S
N1847 C1839 1.427 . S
N1847 C1845 1.384 . S
H1848 C1854 0.930 . S
H1849 C1858 0.930 . S
H1850 C1863 0.929 . S
H1851 C1861 0.929 . S
H1852 C1856 0.929 . S
H1853 C1862 0.929 . S
C1854 H1848 0.930 . S
C1854 C1855 1.367 . S
C1854 C1862 1.378 . S
C1855 C1854 1.367 . S
C1855 C1863 1.433 . S
C1856 H1852 0.929 . S
C1856 C1858 1.378 . S
C1856 C1860 1.350 . S
C1857 C1860 1.463 . S
C1857 C1862 1.350 . S
C1857 N1865 1.427 . S
C1858 H1849 0.930 . S
C1858 C1856 1.378 . S
C1858 C1859 1.367 . S
C1859 C1858 1.367 . S
C1859 C1861 1.433 . S
C1860 C1856 1.350 . S
C1860 C1857 1.463 . S
C1860 N1864 1.427 . S
C1861 H1851 0.929 . S
C1861 C1859 1.433 . S
C1861 N1864 1.384 . S
C1862 H1853 0.929 . S
C1862 C1854 1.378 . S
C1862 C1857 1.350 . S
C1863 H1850 0.929 . S
C1863 C1855 1.433 . S
C1863 N1865 1.384 . S
N1864 C1860 1.427 . S
N1864 C1861 1.384 . S
N1865 C1857 1.427 . S
N1865 C1863 1.384 . S
H1866 C1872 0.930 . S
H1867 C1876 0.930 . S
H1868 C1881 0.929 . S
H1869 C1879 0.929 . S
H1870 C1874 0.929 . S
H1871 C1880 0.929 . S
C1872 H1866 0.930 . S
C1872 C1873 1.367 . S
C1872 C1880 1.378 . S
C1873 C1872 1.367 . S
C1873 C1881 1.433 . S
C1874 H1870 0.929 . S
C1874 C1876 1.378 . S
C1874 C1878 1.350 . S
C1875 C1878 1.463 . S
C1875 C1880 1.350 . S
C1875 N1883 1.427 . S
C1876 H1867 0.930 . S
C1876 C1874 1.378 . S
C1876 C1877 1.367 . S
C1877 C1876 1.367 . S
C1877 C1879 1.433 . S
C1878 C1874 1.350 . S
C1878 C1875 1.463 . S
C1878 N1882 1.427 . S
C1879 H1869 0.929 . S
C1879 C1877 1.433 . S
C1879 N1882 1.384 . S
C1880 H1871 0.929 . S
C1880 C1872 1.378 . S
C1880 C1875 1.350 . S
C1881 H1868 0.929 . S
C1881 C1873 1.433 . S
C1881 N1883 1.384 . S
N1882 C1878 1.427 . S
N1882 C1879 1.384 . S
N1883 C1875 1.427 . S
N1883 C1881 1.384 . S
H1884 C1890 0.930 . S
H1885 C1894 0.930 . S
H1886 C1899 0.929 . S
H1887 C1897 0.929 . S
H1888 C1892 0.929 . S
H1889 C1898 0.929 . S
C1890 H1884 0.930 . S
C1890 C1891 1.367 . S
C1890 C1898 1.378 . S
C1891 C1890 1.367 . S
C1891 C1899 1.433 . S
C1892 H1888 0.929 . S
C1892 C1894 1.378 . S
C1892 C1896 1.350 . S
C1893 C1896 1.463 . S
C1893 C1898 1.350 . S
C1893 N1901 1.427 . S
C1894 H1885 0.930 . S
C1894 C1892 1.378 . S
C1894 C1895 1.367 . S
C1895 C1894 1.367 . S
C1895 C1897 1.433 . S
C1896 C1892 1.350 . S
C1896 C1893 1.463 . S
C1896 N1900 1.427 . S
C1897 H1887 0.929 . S
C1897 C1895 1.433 . S
C1897 N1900 1.384 . S
C1898 H1889 0.929 . S
C1898 C1890 1.378 . S
C1898 C1893 1.350 . S
C1899 H1886 0.929 . S
C1899 C1891 1.433 . S
C1899 N1901 1.384 . S
N1900 C1896 1.427 . S
N1900 C1897 1.384 . S
N1901 C1893 1.427 . S
N1901 C1899 1.384 . S
H1902 C1908 0.930 . S
H1903 C1912 0.930 . S
H1904 C1917 0.929 . S
H1905 C1915 0.929 . S
H1906 C1910 0.929 . S
H1907 C1916 0.929 . S
C1908 H1902 0.930 . S
C1908 C1909 1.367 . S
C1908 C1916 1.378 . S
C1909 C1908 1.367 . S
C1909 C1917 1.433 . S
C1910 H1906 0.929 . S
C1910 C1912 1.378 . S
C1910 C1914 1.350 . S
C1911 C1914 1.463 . S
C1911 C1916 1.350 . S
C1911 N1919 1.427 . S
C1912 H1903 0.930 . S
C1912 C1910 1.378 . S
C1912 C1913 1.367 . S
C1913 C1912 1.367 . S
C1913 C1915 1.433 . S
C1914 C1910 1.350 . S
C1914 C1911 1.463 . S
C1914 N1918 1.427 . S
C1915 H1905 0.929 . S
C1915 C1913 1.433 . S
C1915 N1918 1.384 . S
C1916 H1907 0.929 . S
C1916 C1908 1.378 . S
C1916 C1911 1.350 . S
C1917 H1904 0.929 . S
C1917 C1909 1.433 . S
C1917 N1919 1.384 . S
N1918 C1914 1.427 . S
N1918 C1915 1.384 . S
N1919 C1911 1.427 . S
N1919 C1917 1.384 . S
H1920 C1926 0.930 . S
H1921 C1930 0.930 . S
H1922 C1935 0.929 . S
H1923 C1933 0.929 1_554 S
H1924 C1928 0.929 . S
H1925 C1934 0.929 . S
C1926 H1920 0.930 . S
C1926 C1927 1.367 . S
C1926 C1934 1.378 . S
C1927 C1926 1.367 . S
C1927 C1935 1.433 . S
C1928 H1924 0.929 . S
C1928 C1930 1.378 . S
C1928 C1932 1.350 . S
C1929 C1932 1.463 . S
C1929 C1934 1.350 . S
C1929 N1937 1.427 . S
C1930 H1921 0.930 . S
C1930 C1928 1.378 . S
C1930 C1931 1.367 . S
C1931 C1930 1.367 . S
C1931 C1933 1.433 . S
C1932 C1928 1.350 . S
C1932 C1929 1.463 . S
C1932 N1936 1.427 . S
C1933 H1923 0.929 1_556 S
C1933 C1931 1.433 . S
C1933 N1936 1.384 . S
C1934 H1925 0.929 . S
C1934 C1926 1.378 . S
C1934 C1929 1.350 . S
C1935 H1922 0.929 . S
C1935 C1927 1.433 . S
C1935 N1937 1.384 . S
N1936 C1932 1.427 . S
N1936 C1933 1.384 . S
N1937 C1929 1.427 . S
N1937 C1935 1.384 . S
H1938 C1944 0.930 . S
H1939 C1948 0.930 . S
H1940 C1953 0.929 . S
H1941 C1951 0.929 . S
H1942 C1946 0.929 . S
H1943 C1952 0.929 . S
C1944 H1938 0.930 . S
C1944 C1945 1.367 . S
C1944 C1952 1.378 . S
C1945 C1944 1.367 . S
C1945 C1953 1.433 . S
C1946 H1942 0.929 . S
C1946 C1948 1.378 . S
C1946 C1950 1.350 . S
C1947 C1950 1.463 . S
C1947 C1952 1.350 . S
C1947 N1955 1.427 . S
C1948 H1939 0.930 . S
C1948 C1946 1.378 . S
C1948 C1949 1.367 . S
C1949 C1948 1.367 . S
C1949 C1951 1.433 . S
C1950 C1946 1.350 . S
C1950 C1947 1.463 . S
C1950 N1954 1.427 . S
C1951 H1941 0.929 . S
C1951 C1949 1.433 . S
C1951 N1954 1.384 . S
C1952 H1943 0.929 . S
C1952 C1944 1.378 . S
C1952 C1947 1.350 . S
C1953 H1940 0.929 . S
C1953 C1945 1.433 . S
C1953 N1955 1.384 . S
N1954 C1950 1.427 . S
N1954 C1951 1.384 . S
N1955 C1947 1.427 . S
N1955 C1953 1.384 . S
H1956 C1962 0.930 . S
H1957 C1966 0.930 . S
H1958 C1971 0.929 . S
H1959 C1969 0.929 . S
H1960 C1964 0.929 . S
H1961 C1970 0.929 . S
C1962 H1956 0.930 . S
C1962 C1963 1.367 . S
C1962 C1970 1.378 . S
C1963 C1962 1.367 . S
C1963 C1971 1.433 . S
C1964 H1960 0.929 . S
C1964 C1966 1.378 . S
C1964 C1968 1.350 . S
C1965 C1968 1.463 . S
C1965 C1970 1.350 . S
C1965 N1973 1.427 . S
C1966 H1957 0.930 . S
C1966 C1964 1.378 . S
C1966 C1967 1.367 . S
C1967 C1966 1.367 . S
C1967 C1969 1.433 . S
C1968 C1964 1.350 . S
C1968 C1965 1.463 . S
C1968 N1972 1.427 . S
C1969 H1959 0.929 . S
C1969 C1967 1.433 . S
C1969 N1972 1.384 . S
C1970 H1961 0.929 . S
C1970 C1962 1.378 . S
C1970 C1965 1.350 . S
C1971 H1958 0.929 . S
C1971 C1963 1.433 . S
C1971 N1973 1.384 . S
N1972 C1968 1.427 . S
N1972 C1969 1.384 . S
N1973 C1965 1.427 . S
N1973 C1971 1.384 . S
H1974 C1980 0.930 . S
H1975 C1984 0.930 . S
H1976 C1989 0.929 . S
H1977 C1987 0.929 . S
H1978 C1982 0.929 . S
H1979 C1988 0.929 . S
C1980 H1974 0.930 . S
C1980 C1981 1.367 . S
C1980 C1988 1.378 . S
C1981 C1980 1.367 . S
C1981 C1989 1.433 . S
C1982 H1978 0.929 . S
C1982 C1984 1.378 . S
C1982 C1986 1.350 1_565 S
C1983 C1986 1.463 . S
C1983 C1988 1.350 . S
C1983 N1991 1.427 . S
C1984 H1975 0.930 . S
C1984 C1982 1.378 . S
C1984 C1985 1.367 . S
C1985 C1984 1.367 . S
C1985 C1987 1.433 . S
C1986 C1982 1.350 1_545 S
C1986 C1983 1.463 . S
C1986 N1990 1.427 . S
C1987 H1977 0.929 . S
C1987 C1985 1.433 . S
C1987 N1990 1.384 1_565 S
C1988 H1979 0.929 . S
C1988 C1980 1.378 . S
C1988 C1983 1.350 . S
C1989 H1976 0.929 . S
C1989 C1981 1.433 . S
C1989 N1991 1.384 . S
N1990 C1986 1.427 . S
N1990 C1987 1.384 1_545 S
N1991 C1983 1.427 . S
N1991 C1989 1.384 . S
C1139 C968 1.619 1_556 S
C1135 C331 1.592 . S
C1157 C983 1.735 . S
C1153 C380 1.703 . S
C1171 C421 1.692 . S
C1175 C996 1.700 . S
C1193 C1010 1.584 . S
C1189 C260 1.627 . S
C1211 C1022 1.646 . S
C1207 C620 1.670 . S
C1229 C1036 1.385 . S
C1225 C740 1.330 . S
C1243 C680 1.738 . S
C1247 C1050 1.741 . S
C1265 C1065 1.526 . S
C1261 C571 1.448 . S
C1279 C691 1.656 . S
C1283 C1081 1.671 . S
C1301 C1094 1.566 . S
C1297 C541 1.532 . S
C1315 C601 1.557 . S
C1319 C1079 1.547 . S
C1337 C1092 1.576 . S
C1333 C721 1.483 . S
C1351 C451 1.821 . S
C1355 C1108 1.837 . S
C1369 C241 1.647 . S
C1373 C1107 1.608 . S
C1387 C320 1.709 . S
C1391 C1106 1.681 . S
C1405 C391 1.581 . S
C1409 C1109 1.630 . S
C1423 C211 1.648 . S
C1427 C1011 1.690 . S
C1441 C841 1.488 . S
C1445 C1009 1.487 . S
C1463 C969 1.566 . S
C1459 C901 1.543 . S
C1481 C980 1.750 . S
C1477 C500 1.757 . S
C1495 C271 1.618 1_545 S
C1499 C1025 1.636 . S
C1517 C1066 1.886 . S
C1513 C661 1.868 . S
C1535 C1023 1.567 . S
C1531 C560 1.490 . S
C1553 C1051 1.559 . S
C1549 C751 1.503 . S
C1571 C1052 1.620 . S
C1567 C871 1.587 . S
C1585 C920 1.706 . S
C1589 C1067 1.737 . S
C1603 C481 1.692 . S
C1607 C1024 1.700 . S
C1625 C1038 1.574 . S
C1621 C800 1.618 . S
C1639 C200 1.673 . S
C1643 C994 1.649 . S
C1661 C1008 1.384 . S
C1657 C20 1.329 . S
C1679 C966 1.739 . S
C1675 C80 1.740 . S
C1697 C981 1.526 . S
C1693 C151 1.449 . S
C1711 C91 1.651 . S
C1715 C1095 1.672 . S
C1729 C121 1.515 . S
C1733 C1080 1.554 . S
C1747 C181 1.565 . S
C1751 C1093 1.555 . S
C1765 C1 1.474 . S
C1769 C1078 1.580 . S
C1787 C1122 1.835 . S
C1783 C511 1.827 . S
C1805 C1121 1.615 . S
C1801 C781 1.641 . S
C1823 C1120 1.680 . S
C1819 C860 1.708 . S
C1837 C931 1.583 1_554 S
C1841 C1123 1.631 . S
C1855 C631 1.646 . S
C1859 C1039 1.691 . S
C1877 C1037 1.478 . S
C1873 C301 1.479 . S
C1895 C1053 1.560 . S
C1891 C361 1.536 . S
C1913 C1064 1.748 . S
C1909 C440 1.756 . S
C1927 C811 1.643 . S
C1931 C997 1.632 . S
C1949 C982 1.887 . S
C1945 C61 1.861 . S
C1963 C140 1.477 . S
C1967 C995 1.568 . S
C1985 C967 1.563 . S
C1981 C31 1.494 . S
