# Generated by pormake.
# Topology hwx, (6,3)-cn, num edge types: 1
# Building blocks:
#     Node 0, Type 0, BuildingBlock: IZENUY_clean_sbu_0, # of connection points: 6
#     Node 1, Type 0, BuildingBlock: IZENUY_clean_sbu_0, # of connection points: 6
#     Node 2, Type 0, BuildingBlock: IZENUY_clean_sbu_0, # of connection points: 6
#     Node 3, Type 0, BuildingBlock: IZENUY_clean_sbu_0, # of connection points: 6
#     Node 4, Type 1, BuildingBlock: VETTIZ_charged_linker_0, # of connection points: 3
#     Node 5, Type 1, BuildingBlock: VETTIZ_charged_linker_0, # of connection points: 3
#     Node 6, Type 1, BuildingBlock: VETTIZ_charged_linker_0, # of connection points: 3
#     Node 7, Type 1, BuildingBlock: VETTIZ_charged_linker_0, # of connection points: 3
#     Node 8, Type 1, BuildingBlock: VETTIZ_charged_linker_0, # of connection points: 3
#     Node 9, Type 1, BuildingBlock: VETTIZ_charged_linker_0, # of connection points: 3
#     Node 10, Type 1, BuildingBlock: VETTIZ_charged_linker_0, # of connection points: 3
#     Node 11, Type 1, BuildingBlock: VETTIZ_charged_linker_0, # of connection points: 3
#     Edge 12, Type (0, 1), BuildingBlock: ZUJKAS_clean_linker_0, # of connection points: 2
#     Edge 13, Type (0, 1), BuildingBlock: ZUJKAS_clean_linker_0, # of connection points: 2
#     Edge 14, Type (0, 1), BuildingBlock: ZUJKAS_clean_linker_0, # of connection points: 2
#     Edge 15, Type (0, 1), BuildingBlock: ZUJKAS_clean_linker_0, # of connection points: 2
#     Edge 16, Type (0, 1), BuildingBlock: ZUJKAS_clean_linker_0, # of connection points: 2
#     Edge 17, Type (0, 1), BuildingBlock: ZUJKAS_clean_linker_0, # of connection points: 2
#     Edge 18, Type (0, 1), BuildingBlock: ZUJKAS_clean_linker_0, # of connection points: 2
#     Edge 19, Type (0, 1), BuildingBlock: ZUJKAS_clean_linker_0, # of connection points: 2
#     Edge 20, Type (0, 1), BuildingBlock: ZUJKAS_clean_linker_0, # of connection points: 2
#     Edge 21, Type (0, 1), BuildingBlock: ZUJKAS_clean_linker_0, # of connection points: 2
#     Edge 22, Type (0, 1), BuildingBlock: ZUJKAS_clean_linker_0, # of connection points: 2
#     Edge 23, Type (0, 1), BuildingBlock: ZUJKAS_clean_linker_0, # of connection points: 2
#     Edge 24, Type (0, 1), BuildingBlock: ZUJKAS_clean_linker_0, # of connection points: 2
#     Edge 25, Type (0, 1), BuildingBlock: ZUJKAS_clean_linker_0, # of connection points: 2
#     Edge 26, Type (0, 1), BuildingBlock: ZUJKAS_clean_linker_0, # of connection points: 2
#     Edge 27, Type (0, 1), BuildingBlock: ZUJKAS_clean_linker_0, # of connection points: 2
#     Edge 28, Type (0, 1), BuildingBlock: ZUJKAS_clean_linker_0, # of connection points: 2
#     Edge 29, Type (0, 1), BuildingBlock: ZUJKAS_clean_linker_0, # of connection points: 2
#     Edge 30, Type (0, 1), BuildingBlock: ZUJKAS_clean_linker_0, # of connection points: 2
#     Edge 31, Type (0, 1), BuildingBlock: ZUJKAS_clean_linker_0, # of connection points: 2
#     Edge 32, Type (0, 1), BuildingBlock: ZUJKAS_clean_linker_0, # of connection points: 2
#     Edge 33, Type (0, 1), BuildingBlock: ZUJKAS_clean_linker_0, # of connection points: 2
#     Edge 34, Type (0, 1), BuildingBlock: ZUJKAS_clean_linker_0, # of connection points: 2
#     Edge 35, Type (0, 1), BuildingBlock: ZUJKAS_clean_linker_0, # of connection points: 2
# Relax obj value: 0.054
# Max RMSD: 0.077
# Mean RMSD: 0.070
data_MOF--net-hwx--node1-IZENUY_clean_sbu_0--node2-VETTIZ_charged_linker_0--edge1-ZUJKAS_clean_linker_0
_symmetry_space_group_name_H-M    P1
_symmetry_Int_Tables_number       1
_symmetry_cell_setting            triclinic
loop_
_symmetry_equiv_pos_as_xyz
'x, y, z'
_cell_length_a     71.173663
_cell_length_b     71.199505
_cell_length_c     34.810001
_cell_angle_alpha  90.030262
_cell_angle_beta   89.996355
_cell_angle_gamma 90.004006
loop_
_atom_site_label
_atom_site_type_symbol
_atom_site_fract_x
_atom_site_fract_y
_atom_site_fract_z
_atom_type_partial_charge
Fe0 Fe 0.23828 0.2057 0.0393 0.0
Fe1 Fe 0.2376 0.20666 0.95123 0.0
O2 O 0.23247 0.19505 0.99496 0.0
Fe3 Fe 0.22151 0.17273 0.9943 0.0
O4 O 0.20859 0.17617 0.03938 0.0
O5 O 0.21396 0.20558 0.0547 0.0
O6 O 0.23435 0.22985 0.02252 0.0
C7 C 0.22508 0.23622 0.99431 0.0
C8 C 0.24735 0.16733 0.05107 0.0
O9 O 0.22303 0.22659 0.96416 0.0
C10 C 0.24721 0.17068 0.93241 0.0
O11 O 0.26297 0.20655 0.02688 0.0
O12 O 0.25894 0.21827 0.96911 0.0
O13 O 0.24118 0.16198 0.01892 0.0
O14 O 0.2433 0.18347 0.06405 0.0
C15 C 0.20178 0.19045 0.93789 0.0
O16 O 0.25258 0.18749 0.93548 0.0
O17 O 0.23238 0.16515 0.94905 0.0
C18 C 0.26946 0.21457 0.99746 0.0
O19 O 0.21712 0.19718 0.92548 0.0
O20 O 0.20114 0.18206 0.96973 0.0
C21 C 0.20391 0.19104 0.05686 0.0
Fe22 Fe 0.26391 0.70815 0.5394 0.0
Fe23 Fe 0.28004 0.67367 0.49831 0.0
O24 O 0.26975 0.69628 0.49637 0.0
Fe25 Fe 0.26532 0.70706 0.45144 0.0
O26 O 0.28043 0.72678 0.46312 0.0
O27 O 0.26841 0.73178 0.5203 0.0
O28 O 0.28813 0.70789 0.55537 0.0
C29 C 0.29778 0.69317 0.55947 0.0
C30 C 0.23326 0.7166 0.49576 0.0
O31 O 0.29293 0.67799 0.54324 0.0
C32 C 0.25471 0.671 0.43554 0.0
O33 O 0.25837 0.68673 0.56648 0.0
O34 O 0.25997 0.66409 0.52376 0.0
O35 O 0.24416 0.71962 0.46762 0.0
O36 O 0.23934 0.70913 0.52615 0.0
C37 C 0.30064 0.68944 0.44057 0.0
O38 O 0.26904 0.66526 0.45371 0.0
O39 O 0.24994 0.68805 0.43678 0.0
C40 C 0.25401 0.67035 0.55539 0.0
O41 O 0.3008 0.68173 0.47314 0.0
O42 O 0.28564 0.69644 0.42716 0.0
C43 C 0.27831 0.73717 0.49215 0.0
Fe44 Fe 0.76547 0.79956 0.95524 0.0
Fe45 Fe 0.76349 0.7996 0.04318 0.0
O46 O 0.76983 0.81083 -0.00028 0.0
Fe47 Fe 0.78052 0.8333 0.00072 0.0
O48 O 0.76983 0.84131 0.95555 0.0
O49 O 0.75046 0.81861 0.93937 0.0
O50 O 0.74408 0.78748 0.97143 0.0
C51 C 0.73303 0.79093 0.99908 0.0
C52 C 0.80107 0.81663 0.94399 0.0
O53 O 0.73897 0.79873 0.02925 0.0
C54 C 0.79758 0.81426 0.06316 0.0
O55 O 0.78021 0.77976 0.96818 0.0
O56 O 0.76782 0.77568 0.02535 0.0
O57 O 0.80127 0.82465 0.97627 0.0
O58 O 0.78604 0.80959 0.93088 0.0
C59 C 0.75411 0.83776 0.05688 0.0
O60 O 0.78758 0.79973 0.05993 0.0
O61 O 0.79313 0.82932 0.04603 0.0
C62 C 0.77767 0.76972 0.99757 0.0
O63 O 0.75799 0.82144 0.06897 0.0
O64 O 0.76055 0.84354 0.02529 0.0
C65 C 0.75551 0.83556 0.93738 0.0
Fe66 Fe 0.72082 0.33399 0.50401 0.0
Fe67 Fe 0.7373 0.30028 0.54715 0.0
O68 O 0.73183 0.3117 0.5034 0.0
Fe69 Fe 0.73741 0.30086 0.45911 0.0
O70 O 0.74218 0.32299 0.43374 0.0
O71 O 0.74024 0.34468 0.47849 0.0
O72 O 0.73211 0.34181 0.54871 0.0
C73 C 0.74709 0.33634 0.56485 0.0
C74 C 0.70288 0.3153 0.4422 0.0
O75 O 0.75241 0.3195 0.56196 0.0
C76 C 0.72458 0.27051 0.50513 0.0
O77 O 0.70067 0.32475 0.52952 0.0
O78 O 0.71707 0.30989 0.57347 0.0
O79 O 0.713 0.30081 0.44436 0.0
O80 O 0.70753 0.33026 0.45945 0.0
C81 C 0.76886 0.29229 0.50023 0.0
O82 O 0.7226 0.28033 0.53503 0.0
O83 O 0.73369 0.27676 0.47655 0.0
C84 C 0.70162 0.31655 0.56154 0.0
O85 O 0.7585 0.28857 0.52881 0.0
O86 O 0.76217 0.3002 0.47089 0.0
C87 C 0.74624 0.3392 0.4463 0.0
C88 C 0.18611 0.53778 0.86756 0.0
C89 C 0.18704 0.55745 0.86411 0.0
C90 C 0.1856 0.56856 0.89755 0.0
C91 C 0.18375 0.54056 0.93693 0.0
C92 C 0.18447 0.52969 0.90408 0.0
C93 C 0.18404 0.50901 0.91292 0.0
H94 H 0.18758 0.43913 0.04419 0.0
C95 C 0.18333 0.5278 0.9704 0.0
C96 C 0.18335 0.50929 0.95654 0.0
H97 H 0.18439 0.43453 0.92043 0.0
H98 H 0.18228 0.46816 0.915 0.0
H99 H 0.21566 0.47389 0.04624 0.0
H100 H 0.1552 0.47174 0.05155 0.0
H101 H 0.16285 0.4886 0.08497 0.0
H102 H 0.16977 0.46438 0.09085 0.0
H103 H 0.20329 0.46523 0.08755 0.0
H104 H 0.20825 0.48987 0.08159 0.0
C105 C 0.20251 0.5002 0.89768 0.0
C106 C 0.16589 0.5006 0.89529 0.0
C107 C 0.18737 0.55498 0.10496 0.0
C108 C 0.18879 0.54685 0.14165 0.0
C109 C 0.18796 0.52712 0.14502 0.0
C110 C 0.18609 0.5157 0.11235 0.0
C111 C 0.18517 0.52406 0.0758 0.0
C112 C 0.18561 0.5434 0.07267 0.0
C113 C 0.18483 0.54989 0.03162 0.0
C114 C 0.18386 0.53126 0.01055 0.0
C115 C 0.18414 0.51615 0.03651 0.0
C116 C 0.20327 0.56068 0.0228 0.0
C117 C 0.16666 0.56158 0.02616 0.0
C118 C 0.18619 0.44536 0.01595 0.0
C119 C 0.18636 0.43412 0.98266 0.0
C120 C 0.18467 0.44285 0.94648 0.0
C121 C 0.18336 0.46241 0.94338 0.0
C122 C 0.18382 0.47348 0.97677 0.0
C123 C 0.18491 0.46494 0.01233 0.0
C124 C 0.18512 0.47903 0.04463 0.0
C125 C 0.18406 0.49739 0.02251 0.0
C126 C 0.18347 0.49402 0.98276 0.0
C127 C 0.20396 0.47694 0.06651 0.0
C128 C 0.16742 0.4758 0.06966 0.0
H129 H 0.18323 0.56946 0.95816 0.0
H130 H 0.18692 0.52886 0.84241 0.0
H131 H 0.15435 0.51115 0.89467 0.0
H132 H 0.16018 0.48882 0.91237 0.0
H133 H 0.16828 0.49582 0.8653 0.0
H134 H 0.21462 0.50974 0.90296 0.0
H135 H 0.20169 0.49763 0.86625 0.0
H136 H 0.20628 0.48695 0.91215 0.0
H137 H 0.18826 0.57006 0.10122 0.0
H138 H 0.18881 0.5205 0.17297 0.0
H139 H 0.18567 0.5008 0.11679 0.0
H140 H 0.21539 0.5542 0.03802 0.0
H141 H 0.20229 0.57555 0.03226 0.0
H142 H 0.20722 0.56031 0.99217 0.0
H143 H 0.15507 0.55605 0.0444 0.0
H144 H 0.16113 0.5609 0.99652 0.0
H145 H 0.16893 0.5765 0.03421 0.0
H146 H 0.18645 0.58372 0.89582 0.0
C147 C 0.18391 0.56023 0.93384 0.0
C148 C 0.03732 0.79991 0.52157 0.0
C149 C 0.04755 0.79584 0.48798 0.0
C150 C 0.03895 0.79878 0.45197 0.0
C151 C 0.01031 0.809 0.48327 0.0
C152 C 0.01881 0.8064 0.51855 0.0
C153 C 0.00579 0.81074 0.55142 0.0
H154 H 0.91851 0.83391 0.61211 0.0
C155 C 0.99083 0.8153 0.4901 0.0
C156 C 0.98811 0.81645 0.53001 0.0
H157 H 0.96667 0.81935 0.68167 0.0
H158 H 0.98592 0.81717 0.62459 0.0
H159 H 0.94033 0.8612 0.55366 0.0
H160 H 0.92501 0.80284 0.54986 0.0
H161 H 0.92073 0.81201 0.50395 0.0
H162 H 0.90821 0.82144 0.54457 0.0
H163 H 0.91677 0.85365 0.54382 0.0
H164 H 0.93389 0.85647 0.50594 0.0
C165 C 0.01418 0.8273 0.57462 0.0
C166 C 0.00294 0.79248 0.57495 0.0
C167 C 0.94622 0.82424 0.37736 0.0
C168 C 0.92714 0.82932 0.37514 0.0
C169 C 0.91758 0.83432 0.40913 0.0
C170 C 0.92666 0.83379 0.44474 0.0
C171 C 0.94551 0.82806 0.44666 0.0
C172 C 0.9551 0.82375 0.4133 0.0
C173 C 0.97513 0.81814 0.42104 0.0
C174 C 0.97582 0.81946 0.46459 0.0
C175 C 0.95839 0.82512 0.47936 0.0
C176 C 0.9882 0.83274 0.40166 0.0
C177 C 0.97786 0.79771 0.40671 0.0
C178 C 0.93319 0.8302 0.6151 0.0
C179 C 0.94101 0.82657 0.65142 0.0
C180 C 0.96031 0.82225 0.65404 0.0
C181 C 0.97141 0.82083 0.62082 0.0
C182 C 0.96313 0.82369 0.58459 0.0
C183 C 0.94439 0.82859 0.58231 0.0
C184 C 0.93777 0.83082 0.54161 0.0
C185 C 0.95557 0.8262 0.51965 0.0
C186 C 0.97038 0.82199 0.54488 0.0
C187 C 0.93171 0.85154 0.53572 0.0
C188 C 0.92202 0.81617 0.53435 0.0
H189 H 0.01468 0.80715 0.42122 0.0
H190 H 0.04354 0.79805 0.54971 0.0
H191 H 0.00279 0.77995 0.55581 0.0
H192 H 0.98934 0.79201 0.59012 0.0
H193 H 0.01445 0.79051 0.59611 0.0
H194 H 0.02089 0.83771 0.55512 0.0
H195 H 0.02508 0.82231 0.59504 0.0
H196 H 0.00345 0.83532 0.59059 0.0
H197 H 0.95405 0.82056 0.35175 0.0
H198 H 0.90284 0.83807 0.40839 0.0
H199 H 0.91849 0.83747 0.46951 0.0
H200 H 0.98179 0.847 0.40218 0.0
H201 H 0.9909 0.82905 0.37116 0.0
H202 H 0.00175 0.8344 0.41676 0.0
H203 H 0.96512 0.78912 0.41261 0.0
H204 H 0.98939 0.79027 0.42143 0.0
H205 H 0.98043 0.79734 0.37524 0.0
H206 H 0.04636 0.79554 0.42562 0.0
C207 C 0.02046 0.80539 0.44945 0.0
C208 C 0.81282 0.46975 0.13195 0.0
C209 C 0.81023 0.45023 0.13534 0.0
C210 C 0.8114 0.43895 0.10216 0.0
C211 C 0.81606 0.46656 0.06278 0.0
C212 C 0.81564 0.4776 0.09543 0.0
C213 C 0.81759 0.49817 0.08617 0.0
H214 H 0.81849 0.5671 0.95248 0.0
C215 C 0.8179 0.47906 0.02916 0.0
C216 C 0.81896 0.49761 0.04257 0.0
H217 H 0.82131 0.57263 0.07615 0.0
H218 H 0.82228 0.53899 0.08274 0.0
H219 H 0.85002 0.53406 0.94756 0.0
H220 H 0.78947 0.53258 0.95016 0.0
H221 H 0.7974 0.51733 0.9138 0.0
H222 H 0.80257 0.54199 0.91048 0.0
H223 H 0.83614 0.54024 0.90642 0.0
H224 H 0.84272 0.5162 0.91608 0.0
C225 C 0.83595 0.50549 0.10485 0.0
C226 C 0.79952 0.50827 0.1 0.0
C227 C 0.8134 0.45115 0.89557 0.0
C228 C 0.81334 0.45897 0.85855 0.0
C229 C 0.8163 0.47843 0.85429 0.0
C230 C 0.81855 0.49002 0.88666 0.0
C231 C 0.81788 0.48205 0.92362 0.0
C232 C 0.8157 0.46285 0.92745 0.0
C233 C 0.81546 0.45667 0.96865 0.0
C234 C 0.81768 0.47534 0.98913 0.0
C235 C 0.8189 0.49019 0.96272 0.0
C236 C 0.83257 0.4436 0.97545 0.0
C237 C 0.79608 0.4475 0.97674 0.0
C238 C 0.81956 0.56109 0.98097 0.0
C239 C 0.81951 0.57262 0.01385 0.0
C240 C 0.82086 0.56412 0.05036 0.0
C241 C 0.8215 0.54455 0.05416 0.0
C242 C 0.82073 0.53324 0.02116 0.0
C243 C 0.82023 0.54153 0.98528 0.0
C244 C 0.8199 0.52721 0.95343 0.0
C245 C 0.81992 0.50901 0.97618 0.0
C246 C 0.82019 0.51266 0.01588 0.0
C247 C 0.83803 0.52952 0.92926 0.0
C248 C 0.80147 0.52986 0.93042 0.0
H249 H 0.81485 0.43761 0.04191 0.0
H250 H 0.81194 0.47879 0.15693 0.0
H251 H 0.78687 0.49965 0.09345 0.0
H252 H 0.79705 0.52182 0.08559 0.0
H253 H 0.79987 0.51064 0.13153 0.0
H254 H 0.84678 0.49424 0.10632 0.0
H255 H 0.8334 0.51052 0.13461 0.0
H256 H 0.84263 0.51683 0.088 0.0
H257 H 0.81148 0.43619 0.89972 0.0
H258 H 0.8163 0.48476 0.826 0.0
H259 H 0.82039 0.50478 0.88169 0.0
H260 H 0.84461 0.44761 0.95678 0.0
H261 H 0.82902 0.42874 0.96898 0.0
H262 H 0.83815 0.44456 0.00503 0.0
H263 H 0.78473 0.45483 0.96066 0.0
H264 H 0.79176 0.44843 0.00711 0.0
H265 H 0.79595 0.43253 0.96777 0.0
H266 H 0.8098 0.42385 0.10414 0.0
C267 C 0.81438 0.44698 0.06602 0.0
C268 C 0.05713 0.1856 0.37393 0.0
C269 C 0.07623 0.18051 0.37267 0.0
C270 C 0.08516 0.1747 0.4068 0.0
C271 C 0.05687 0.18101 0.44303 0.0
C272 C 0.04775 0.18572 0.40937 0.0
C273 C 0.02765 0.19138 0.41635 0.0
H274 H 0.95917 0.2142 0.5428 0.0
C275 C 0.04375 0.18404 0.47523 0.0
C276 C 0.02651 0.1899 0.45987 0.0
H277 H 0.95595 0.21295 0.41868 0.0
H278 H 0.98772 0.20136 0.41534 0.0
H279 H 0.98035 0.1738 0.551 0.0
H280 H 0.00047 0.23088 0.5482 0.0
H281 H 0.01305 0.21895 0.58404 0.0
H282 H 0.98796 0.22145 0.5886 0.0
H283 H 0.97689 0.1898 0.59025 0.0
H284 H 0.99803 0.17597 0.58599 0.0
C285 C 0.01468 0.17693 0.39613 0.0
C286 C 0.02513 0.21187 0.40231 0.0
C287 C 0.06833 0.1802 0.61147 0.0
C288 C 0.06048 0.18445 0.64745 0.0
C289 C 0.04124 0.18903 0.64967 0.0
C290 C 0.03024 0.19015 0.61624 0.0
C291 C 0.03859 0.1867 0.58026 0.0
C292 C 0.05726 0.18151 0.5785 0.0
C293 C 0.06401 0.17874 0.53805 0.0
C294 C 0.04635 0.1833 0.5156 0.0
C295 C 0.03152 0.18802 0.54037 0.0
C296 C 0.06988 0.15789 0.53317 0.0
C297 C 0.07996 0.19315 0.53052 0.0
C298 C 0.9652 0.21121 0.51489 0.0
C299 C 0.95503 0.21467 0.48095 0.0
C300 C 0.96356 0.21077 0.44525 0.0
C301 C 0.98199 0.20392 0.44334 0.0
C302 C 0.99209 0.20097 0.47747 0.0
C303 C 0.98358 0.20433 0.51248 0.0
C304 C 0.99639 0.20018 0.54576 0.0
C305 C 0.01396 0.19372 0.52493 0.0
C306 C 0.01142 0.19444 0.48492 0.0
C307 C 0.98752 0.1842 0.56987 0.0
C308 C 0.99964 0.21871 0.56818 0.0
H309 H 0.08332 0.1706 0.46681 0.0
H310 H 0.04982 0.19004 0.3482 0.0
H311 H 0.03736 0.22062 0.41104 0.0
H312 H 0.01274 0.21889 0.41472 0.0
H313 H 0.02406 0.21244 0.3705 0.0
H314 H 0.02147 0.16287 0.39434 0.0
H315 H 0.01128 0.18141 0.36638 0.0
H316 H 0.00148 0.17443 0.41211 0.0
H317 H 0.08299 0.17627 0.60887 0.0
H318 H 0.03486 0.19237 0.67708 0.0
H319 H 0.01577 0.19407 0.61963 0.0
H320 H 0.0615 0.14855 0.55221 0.0
H321 H 0.08493 0.15581 0.54046 0.0
H322 H 0.06723 0.15252 0.50384 0.0
H323 H 0.07684 0.20678 0.54481 0.0
H324 H 0.08173 0.19672 0.49993 0.0
H325 H 0.09359 0.18799 0.54192 0.0
H326 H 0.0997 0.1702 0.40647 0.0
C327 C 0.0756 0.17487 0.44185 0.0
C328 C 0.6877 0.96709 0.62219 0.0
C329 C 0.68903 0.94737 0.62417 0.0
C330 C 0.68769 0.93686 0.58992 0.0
C331 C 0.6849 0.96547 0.55274 0.0
C332 C 0.68565 0.97579 0.58632 0.0
C333 C 0.68477 0.9966 0.5789 0.0
H334 H 0.68343 0.06837 0.45132 0.0
C335 C 0.68379 0.97875 0.52022 0.0
C336 C 0.68358 0.99703 0.53531 0.0
H337 H 0.68481 0.07143 0.57545 0.0
H338 H 0.68318 0.03771 0.57936 0.0
H339 H 0.71298 0.03494 0.44479 0.0
H340 H 0.65245 0.03496 0.44538 0.0
H341 H 0.65985 0.01881 0.41028 0.0
H342 H 0.66585 0.04331 0.40518 0.0
H343 H 0.69939 0.0434 0.40497 0.0
H344 H 0.70545 0.01893 0.40965 0.0
C345 C 0.70323 0.00554 0.5939 0.0
C346 C 0.66668 0.00437 0.5979 0.0
C347 C 0.68647 0.95378 0.38379 0.0
C348 C 0.68695 0.9625 0.34756 0.0
C349 C 0.68523 0.98222 0.34553 0.0
C350 C 0.68349 0.99306 0.37903 0.0
C351 C 0.6836 0.98413 0.41507 0.0
C352 C 0.6848 0.96479 0.41691 0.0
C353 C 0.68489 0.95765 0.45753 0.0
C354 C 0.68371 0.97591 0.47986 0.0
C355 C 0.68304 0.99139 0.45492 0.0
C356 C 0.70379 0.94734 0.46442 0.0
C357 C 0.66717 0.94531 0.46339 0.0
C358 C 0.68346 0.0618 0.47937 0.0
C359 C 0.68428 0.0727 0.5131 0.0
C360 C 0.68395 0.06348 0.54898 0.0
C361 C 0.68318 0.04384 0.55121 0.0
C362 C 0.68287 0.03318 0.51725 0.0
C363 C 0.68282 0.04218 0.4821 0.0
C364 C 0.68271 0.02857 0.44902 0.0
C365 C 0.68273 0.00991 0.47012 0.0
C366 C 0.6829 0.0127 0.51009 0.0
C367 C 0.70097 0.03157 0.42552 0.0
C368 C 0.66436 0.03154 0.42589 0.0
H369 H 0.68497 0.93696 0.5294 0.0
H370 H 0.68844 0.97559 0.64794 0.0
H371 H 0.65504 0.99397 0.59603 0.0
H372 H 0.66123 0.01705 0.58344 0.0
H373 H 0.66902 0.00753 0.62878 0.0
H374 H 0.71539 0.99604 0.58872 0.0
H375 H 0.70245 0.00824 0.62529 0.0
H376 H 0.70694 0.01871 0.57906 0.0
H377 H 0.68804 0.93871 0.38654 0.0
H378 H 0.68533 0.98928 0.31798 0.0
H379 H 0.6824 0.00799 0.37559 0.0
H380 H 0.71546 0.95445 0.44889 0.0
H381 H 0.70313 0.9326 0.45401 0.0
H382 H 0.7082 0.94734 0.4948 0.0
H383 H 0.6552 0.95058 0.44588 0.0
H384 H 0.66195 0.94558 0.49329 0.0
H385 H 0.66985 0.93054 0.45473 0.0
H386 H 0.68892 0.9217 0.59041 0.0
C387 C 0.68558 0.94578 0.55435 0.0
C388 C 0.55406 0.32734 0.1292 0.0
C389 C 0.57315 0.33233 0.13165 0.0
C390 C 0.58292 0.33697 0.09771 0.0
C391 C 0.55524 0.33022 0.05975 0.0
C392 C 0.54542 0.3264 0.09307 0.0
C393 C 0.52545 0.32063 0.08509 0.0
H394 H 0.4592 0.29508 0.95608 0.0
C395 C 0.54266 0.32661 0.02687 0.0
C396 C 0.52512 0.32115 0.04145 0.0
H397 H 0.45411 0.29834 0.07977 0.0
H398 H 0.48566 0.3104 0.08427 0.0
H399 H 0.48002 0.33552 0.94658 0.0
H400 H 0.50076 0.27879 0.95419 0.0
H401 H 0.51349 0.29029 0.91794 0.0
H402 H 0.48848 0.28743 0.91276 0.0
H403 H 0.47767 0.31908 0.90777 0.0
H404 H 0.4985 0.33329 0.9134 0.0
C405 C 0.51218 0.33553 0.10293 0.0
C406 C 0.52265 0.30047 0.10085 0.0
C407 C 0.5691 0.32885 0.89178 0.0
C408 C 0.56162 0.32441 0.85553 0.0
C409 C 0.54243 0.31973 0.8526 0.0
C410 C 0.53106 0.3188 0.88552 0.0
C411 C 0.53899 0.32255 0.92175 0.0
C412 C 0.55764 0.32776 0.92427 0.0
C413 C 0.56385 0.33099 0.96497 0.0
C414 C 0.54587 0.32672 0.98664 0.0
C415 C 0.53138 0.32171 0.96127 0.0
C416 C 0.56969 0.35187 0.96915 0.0
C417 C 0.57964 0.31666 0.97417 0.0
C418 C 0.46477 0.2986 0.98412 0.0
C419 C 0.45416 0.29555 0.01764 0.0
C420 C 0.46209 0.30018 0.05355 0.0
C421 C 0.4804 0.30728 0.05611 0.0
C422 C 0.49099 0.30974 0.02244 0.0
C423 C 0.48304 0.30573 0.98718 0.0
C424 C 0.49633 0.30945 0.95445 0.0
C425 C 0.51358 0.31628 0.97594 0.0
C426 C 0.51042 0.31622 0.01578 0.0
C427 C 0.48775 0.32504 0.92887 0.0
C428 C 0.49996 0.29062 0.93336 0.0
H429 H 0.5824 0.33938 0.03716 0.0
H430 H 0.54608 0.32397 0.15478 0.0
H431 H 0.53515 0.29161 0.09452 0.0
H432 H 0.51071 0.29302 0.08761 0.0
H433 H 0.52064 0.30063 0.13249 0.0
H434 H 0.51887 0.34966 0.10329 0.0
H435 H 0.50848 0.3319 0.13302 0.0
H436 H 0.49914 0.33747 0.08611 0.0
H437 H 0.5837 0.33284 0.89495 0.0
H438 H 0.53634 0.3162 0.82501 0.0
H439 H 0.51665 0.31482 0.88156 0.0
H440 H 0.5611 0.36104 0.95015 0.0
H441 H 0.58467 0.35394 0.96124 0.0
H442 H 0.56729 0.35742 0.99841 0.0
H443 H 0.57694 0.30298 0.9597 0.0
H444 H 0.58064 0.31313 0.00495 0.0
H445 H 0.59352 0.32184 0.96413 0.0
H446 H 0.59767 0.34068 0.09865 0.0
C447 C 0.57407 0.33602 0.06189 0.0
C448 C 0.31224 0.0364 0.36559 0.0
C449 C 0.30933 0.05588 0.36236 0.0
C450 C 0.31007 0.06709 0.3957 0.0
C451 C 0.31517 0.03946 0.43483 0.0
C452 C 0.31507 0.02852 0.40204 0.0
C453 C 0.31744 0.00797 0.41104 0.0
H454 H 0.32296 0.93867 0.5436 0.0
C455 C 0.31737 0.02691 0.46827 0.0
C456 C 0.31886 0.00844 0.45461 0.0
H457 H 0.32202 0.9337 0.4197 0.0
H458 H 0.32199 0.96732 0.41363 0.0
H459 H 0.35239 0.97352 0.54711 0.0
H460 H 0.29179 0.97182 0.54819 0.0
H461 H 0.29948 0.98739 0.58418 0.0
H462 H 0.30585 0.96299 0.58703 0.0
H463 H 0.33945 0.96586 0.5885 0.0
H464 H 0.34446 0.99039 0.58023 0.0
C465 C 0.33594 0.00114 0.39219 0.0
C466 C 0.29956 0.99753 0.39718 0.0
C467 C 0.31266 0.05429 0.60221 0.0
C468 C 0.31313 0.04642 0.63914 0.0
C469 C 0.31699 0.0271 0.64319 0.0
C470 C 0.31954 0.01566 0.61066 0.0
C471 C 0.31826 0.02366 0.57377 0.0
C472 C 0.31529 0.04276 0.57018 0.0
C473 C 0.31461 0.04903 0.52906 0.0
C474 C 0.31733 0.03051 0.50835 0.0
C475 C 0.31928 0.01563 0.53455 0.0
C476 C 0.33124 0.0627 0.52203 0.0
C477 C 0.2949 0.05756 0.52147 0.0
C478 C 0.32269 0.94483 0.51517 0.0
C479 C 0.32247 0.9334 0.48211 0.0
C480 C 0.32245 0.94207 0.44567 0.0
C481 C 0.32225 0.96166 0.44217 0.0
C482 C 0.3219 0.97283 0.4754 0.0
C483 C 0.32238 0.96442 0.51116 0.0
C484 C 0.32188 0.97862 0.54325 0.0
C485 C 0.3208 0.99688 0.5208 0.0
C486 C 0.32071 0.99336 0.48105 0.0
C487 C 0.34041 0.97704 0.56633 0.0
C488 C 0.30391 0.97508 0.56726 0.0
H489 H 0.3132 0.06831 0.45604 0.0
H490 H 0.31166 0.02741 0.3405 0.0
H491 H 0.28681 0.00628 0.40186 0.0
H492 H 0.29679 0.98444 0.41314 0.0
H493 H 0.30039 0.99427 0.36602 0.0
H494 H 0.34676 0.01242 0.39246 0.0
H495 H 0.33363 0.99698 0.36179 0.0
H496 H 0.34248 0.98932 0.40781 0.0
H497 H 0.31007 0.06916 0.59825 0.0
H498 H 0.31745 0.02076 0.67145 0.0
H499 H 0.32208 0.00099 0.61545 0.0
H500 H 0.34342 0.05922 0.54076 0.0
H501 H 0.32715 0.07745 0.52822 0.0
H502 H 0.33686 0.0618 0.49247 0.0
H503 H 0.28386 0.04965 0.53732 0.0
H504 H 0.29057 0.0568 0.49109 0.0
H505 H 0.29423 0.07242 0.5311 0.0
H506 H 0.3082 0.08216 0.39386 0.0
C507 C 0.31303 0.05901 0.43181 0.0
C508 C 0.53671 0.70908 0.02034 0.0
C509 C 0.54608 0.71453 0.98655 0.0
C510 C 0.53657 0.71304 0.95111 0.0
C511 C 0.50867 0.70172 0.98362 0.0
C512 C 0.51811 0.70281 0.01823 0.0
C513 C 0.50594 0.69725 0.05166 0.0
H514 H 0.41976 0.67515 0.11911 0.0
C515 C 0.48926 0.69546 0.99159 0.0
C516 C 0.48761 0.69275 0.03143 0.0
H517 H 0.47105 0.68269 0.18407 0.0
H518 H 0.48837 0.68726 0.12521 0.0
H519 H 0.42634 0.70804 0.06008 0.0
H520 H 0.43814 0.64891 0.05454 0.0
H521 H 0.43159 0.65557 0.0079 0.0
H522 H 0.41496 0.65801 0.04682 0.0
H523 H 0.40838 0.69043 0.05621 0.0
H524 H 0.41952 0.70018 0.01431 0.0
C525 C 0.50411 0.71449 0.07864 0.0
C526 C 0.51465 0.67964 0.07077 0.0
C527 C 0.44165 0.69116 0.88286 0.0
C528 C 0.42242 0.68657 0.88202 0.0
C529 C 0.41352 0.68099 0.91637 0.0
C530 C 0.42342 0.68045 0.95107 0.0
C531 C 0.44246 0.68559 0.95167 0.0
C532 C 0.45135 0.69056 0.91789 0.0
C533 C 0.47169 0.69547 0.92419 0.0
C534 C 0.47346 0.69269 0.96732 0.0
C535 C 0.45624 0.68705 0.98321 0.0
C536 C 0.47457 0.71627 0.91242 0.0
C537 C 0.48388 0.68127 0.90147 0.0
C538 C 0.43478 0.67745 0.12079 0.0
C539 C 0.44398 0.67869 0.15648 0.0
C540 C 0.46352 0.68199 0.15706 0.0
C541 C 0.47358 0.68459 0.12282 0.0
C542 C 0.46401 0.68397 0.0875 0.0
C543 C 0.44501 0.68006 0.08692 0.0
C544 C 0.43715 0.67974 0.04685 0.0
C545 C 0.4545 0.68448 0.02348 0.0
C546 C 0.47015 0.6871 0.04742 0.0
C547 C 0.42195 0.69528 0.04395 0.0
C548 C 0.42992 0.6596 0.0384 0.0
H549 H 0.51147 0.70604 0.9217 0.0
H550 H 0.54367 0.70976 0.04798 0.0
H551 H 0.52142 0.67042 0.04896 0.0
H552 H 0.50405 0.67062 0.08483 0.0
H553 H 0.52556 0.6836 0.09209 0.0
H554 H 0.50303 0.7277 0.06174 0.0
H555 H 0.51656 0.71575 0.09773 0.0
H556 H 0.49131 0.7142 0.09648 0.0
H557 H 0.44889 0.69559 0.85704 0.0
H558 H 0.39883 0.677 0.91642 0.0
H559 H 0.41577 0.67625 0.97617 0.0
H560 H 0.46207 0.72487 0.92015 0.0
H561 H 0.47674 0.71758 0.88093 0.0
H562 H 0.48641 0.72306 0.92747 0.0
H563 H 0.47738 0.66705 0.90176 0.0
H564 H 0.49797 0.67927 0.91411 0.0
H565 H 0.4854 0.68562 0.87099 0.0
H566 H 0.54336 0.71731 0.92467 0.0
C567 C 0.51797 0.70663 0.94947 0.0
H568 H 0.19155 0.21909 0.10462 0.0
H569 H 0.16685 0.21698 0.15335 0.0
H570 H 0.15517 0.16001 0.11883 0.0
H571 H 0.17987 0.16185 0.07027 0.0
H572 H 0.12707 0.20695 0.14823 0.0
H573 H 0.16981 0.1569 0.23451 0.0
H574 H 0.17974 0.17088 0.19633 0.0
H575 H 0.16594 0.15048 0.18519 0.0
C576 C 0.18364 0.20615 0.10716 0.0
C577 C 0.18789 0.19053 0.08394 0.0
C578 C 0.1695 0.20501 0.13491 0.0
C579 C 0.15942 0.18827 0.13992 0.0
C580 C 0.16301 0.17296 0.11568 0.0
H581 H 0.06557 0.17036 0.29963 0.0
H582 H 0.08446 0.17234 0.24072 0.0
C583 C 0.17713 0.17406 0.08796 0.0
C584 C 0.14599 0.18644 0.17205 0.0
H585 H 0.1397 0.16436 0.25804 0.0
C586 C 0.12972 0.19758 0.17218 0.0
C587 C 0.14966 0.1743 0.20329 0.0
C588 C 0.16729 0.16254 0.2052 0.0
C589 C 0.11701 0.19694 0.20304 0.0
C590 C 0.12071 0.18478 0.23422 0.0
C591 C 0.13689 0.17356 0.23387 0.0
C592 C 0.10874 0.18438 0.26887 0.0
C593 C 0.10005 0.20963 0.20272 0.0
C594 C 0.11621 0.19043 0.30399 0.0
C595 C 0.10553 0.18934 0.33745 0.0
C596 C 0.08719 0.18202 0.33655 0.0
C597 C 0.07961 0.17618 0.30117 0.0
C598 C 0.09035 0.17731 0.26756 0.0
H599 H 0.10083 0.22032 0.17953 0.0
H600 H 0.08722 0.20105 0.19816 0.0
H601 H 0.09857 0.21693 0.23076 0.0
H602 H 0.13037 0.19597 0.3055 0.0
H603 H 0.11165 0.19431 0.36407 0.0
H604 H 0.24235 0.67819 0.62838 0.0
H605 H 0.22869 0.65657 0.67502 0.0
H606 H 0.22952 0.61216 0.59089 0.0
H607 H 0.24332 0.63369 0.54367 0.0
H608 H 0.1941 0.61727 0.64107 0.0
H609 H 0.26206 0.61149 0.71909 0.0
H610 H 0.25443 0.63492 0.70765 0.0
H611 H 0.26057 0.61903 0.66963 0.0
C612 C 0.23951 0.66388 0.61953 0.0
C613 C 0.24414 0.65763 0.58235 0.0
C614 C 0.23171 0.65156 0.64628 0.0
C615 C 0.2283 0.63279 0.6364 0.0
C616 C 0.23213 0.62662 0.59895 0.0
H617 H 0.2118 0.54603 0.80889 0.0
H618 H 0.2203 0.56239 0.74967 0.0
C619 C 0.24004 0.63893 0.5721 0.0
C620 C 0.22168 0.6195 0.66601 0.0
H621 H 0.23533 0.59836 0.74932 0.0
C622 C 0.2031 0.61297 0.66461 0.0
C623 C 0.23357 0.61383 0.69634 0.0
C624 C 0.25383 0.62002 0.69834 0.0
C625 C 0.19591 0.60131 0.69368 0.0
C626 C 0.20761 0.59625 0.72486 0.0
C627 C 0.22636 0.60232 0.72546 0.0
C628 C 0.20066 0.58521 0.75799 0.0
C629 C 0.17589 0.5945 0.69085 0.0
C630 C 0.18665 0.59254 0.78207 0.0
C631 C 0.18171 0.58319 0.8159 0.0
C632 C 0.19075 0.56638 0.82631 0.0
C633 C 0.20438 0.5588 0.80147 0.0
C634 C 0.20934 0.56818 0.76772 0.0
H635 H 0.17055 0.59529 0.6609 0.0
H636 H 0.17462 0.5798 0.70115 0.0
H637 H 0.16681 0.60349 0.70911 0.0
H638 H 0.18002 0.60584 0.77544 0.0
H639 H 0.17106 0.58931 0.83428 0.0
H640 H 0.82223 0.8429 0.07732 0.0
H641 H 0.84695 0.844 0.1259 0.0
H642 H 0.83373 0.78729 0.15988 0.0
H643 H 0.80883 0.78605 0.11152 0.0
H644 H 0.83471 0.81306 0.22066 0.0
H645 H 0.89881 0.81843 0.13054 0.0
H646 H 0.88077 0.83509 0.1186 0.0
H647 H 0.87652 0.81043 0.11185 0.0
C648 C 0.82468 0.83056 0.09482 0.0
C649 C 0.81346 0.81441 0.09065 0.0
C650 C 0.83892 0.83118 0.12237 0.0
C651 C 0.84229 0.81565 0.14613 0.0
C652 C 0.83139 0.79938 0.14162 0.0
H653 H 0.92957 0.8023 0.31936 0.0
H654 H 0.90994 0.79908 0.26196 0.0
C655 C 0.81716 0.79871 0.11399 0.0
C656 C 0.85613 0.81696 0.17773 0.0
H657 H 0.90245 0.82507 0.1974 0.0
C658 C 0.84954 0.81555 0.21558 0.0
C659 C 0.87548 0.82008 0.17094 0.0
C660 C 0.8834 0.82093 0.13078 0.0
C661 C 0.86171 0.81764 0.24694 0.0
C662 C 0.88092 0.82146 0.24018 0.0
C663 C 0.88765 0.82236 0.20236 0.0
C664 C 0.89412 0.8245 0.27235 0.0
C665 C 0.85394 0.81572 0.28709 0.0
C666 C 0.89207 0.84018 0.29635 0.0
C667 C 0.90331 0.84215 0.32896 0.0
C668 C 0.91681 0.82844 0.33813 0.0
C669 C 0.91941 0.81318 0.31296 0.0
C670 C 0.90816 0.81126 0.28027 0.0
H671 H 0.83996 0.80877 0.28725 0.0
H672 H 0.86367 0.80753 0.30554 0.0
H673 H 0.85233 0.82989 0.29997 0.0
H674 H 0.88147 0.85069 0.29029 0.0
H675 H 0.90121 0.85423 0.34737 0.0
H676 H 0.73519 0.37036 0.59153 0.0
H677 H 0.75126 0.39127 0.63607 0.0
H678 H 0.79838 0.35322 0.64044 0.0
H679 H 0.78205 0.3318 0.59661 0.0
H680 H 0.78876 0.36363 0.71002 0.0
H681 H 0.79344 0.42751 0.62097 0.0
H682 H 0.76961 0.4195 0.62357 0.0
H683 H 0.78718 0.40495 0.60105 0.0
C684 C 0.74905 0.36648 0.60162 0.0
C685 C 0.75733 0.34938 0.59052 0.0
C686 C 0.75832 0.37857 0.62685 0.0
C687 C 0.77623 0.37406 0.64096 0.0
C688 C 0.78463 0.35707 0.62967 0.0
H689 H 0.83199 0.45756 0.78957 0.0
H690 H 0.82566 0.43637 0.73531 0.0
C691 C 0.77527 0.34484 0.6047 0.0
C692 C 0.78539 0.38639 0.66981 0.0
H693 H 0.79533 0.43229 0.68984 0.0
C694 C 0.79049 0.37859 0.70533 0.0
C695 C 0.78808 0.40586 0.66354 0.0
C696 C 0.78448 0.41488 0.62503 0.0
C697 C 0.79713 0.38987 0.73545 0.0
C698 C 0.79816 0.40957 0.73028 0.0
C699 C 0.79418 0.41724 0.69405 0.0
C700 C 0.80217 0.42246 0.76274 0.0
C701 C 0.8028 0.38055 0.77261 0.0
C702 C 0.79079 0.42199 0.79564 0.0
C703 C 0.79443 0.43392 0.82651 0.0
C704 C 0.80936 0.44681 0.82494 0.0
C705 C 0.8204 0.44775 0.79151 0.0
C706 C 0.81684 0.43563 0.76063 0.0
H707 H 0.8075 0.36586 0.76765 0.0
H708 H 0.8143 0.38836 0.7871 0.0
H709 H 0.7905 0.38005 0.79217 0.0
H710 H 0.77899 0.41243 0.7974 0.0
H711 H 0.78543 0.43319 0.85157 0.0
H712 H 0.67816 0.34404 0.42978 0.0
H713 H 0.65323 0.34558 0.38173 0.0
H714 H 0.66596 0.28902 0.34589 0.0
H715 H 0.69109 0.28734 0.39368 0.0
H716 H 0.66517 0.31511 0.28602 0.0
H717 H 0.60117 0.32066 0.37635 0.0
H718 H 0.61934 0.3371 0.38869 0.0
H719 H 0.62339 0.31236 0.39484 0.0
C720 C 0.67555 0.33182 0.41202 0.0
C721 C 0.68672 0.3156 0.41542 0.0
C722 C 0.66118 0.3327 0.38477 0.0
C723 C 0.65764 0.31735 0.36059 0.0
C724 C 0.66844 0.30098 0.36448 0.0
H725 H 0.57024 0.30555 0.18764 0.0
H726 H 0.58976 0.30219 0.24512 0.0
C727 C 0.68279 0.30006 0.39178 0.0
C728 C 0.6438 0.319 0.32908 0.0
H729 H 0.59759 0.32779 0.30969 0.0
C730 C 0.65037 0.31774 0.29118 0.0
C731 C 0.6245 0.32233 0.33598 0.0
C732 C 0.6166 0.32303 0.37616 0.0
C733 C 0.63823 0.32016 0.25991 0.0
C734 C 0.61907 0.32417 0.26679 0.0
C735 C 0.61235 0.32495 0.30464 0.0
C736 C 0.60588 0.32742 0.23472 0.0
C737 C 0.64597 0.31834 0.2197 0.0
C738 C 0.60812 0.34306 0.21071 0.0
C739 C 0.59694 0.3451 0.17802 0.0
C740 C 0.58331 0.33152 0.16884 0.0
C741 C 0.5805 0.31634 0.19407 0.0
C742 C 0.59168 0.31434 0.22681 0.0
H743 H 0.65985 0.3112 0.21938 0.0
H744 H 0.63613 0.31037 0.20107 0.0
H745 H 0.64777 0.33255 0.20715 0.0
H746 H 0.61884 0.35345 0.21677 0.0
H747 H 0.59922 0.35712 0.15954 0.0
H748 H 0.28191 0.17507 0.89916 0.0
H749 H 0.29751 0.15375 0.85399 0.0
H750 H 0.25015 0.11604 0.85994 0.0
H751 H 0.23482 0.13684 0.90581 0.0
H752 H 0.28278 0.09704 0.86142 0.0
H753 H 0.2836 0.14896 0.74222 0.0
H754 H 0.29574 0.15636 0.78482 0.0
H755 H 0.27072 0.15288 0.78608 0.0
C756 C 0.27485 0.16222 0.89085 0.0
C757 C 0.25704 0.15775 0.90582 0.0
C758 C 0.28375 0.15009 0.86493 0.0
C759 C 0.27485 0.13346 0.85304 0.0
C760 C 0.25728 0.1288 0.86864 0.0
H761 H 0.28364 0.07022 0.64699 0.0
H762 H 0.27642 0.09085 0.70099 0.0
C763 C 0.2485 0.14077 0.89481 0.0
C764 C 0.2834 0.12098 0.82367 0.0
H765 H 0.29678 0.11932 0.72957 0.0
C766 C 0.28598 0.10191 0.83263 0.0
C767 C 0.28741 0.12736 0.78605 0.0
C768 C 0.28409 0.14745 0.77398 0.0
C769 C 0.29189 0.08893 0.80473 0.0
C770 C 0.29581 0.09531 0.76709 0.0
C771 C 0.29383 0.11448 0.7585 0.0
C772 C 0.30032 0.08222 0.73518 0.0
C773 C 0.29301 0.06842 0.81538 0.0
C774 C 0.31612 0.0704 0.73648 0.0
C775 C 0.32016 0.05838 0.70565 0.0
C776 C 0.30865 0.05831 0.67285 0.0
C777 C 0.29286 0.07014 0.67175 0.0
C778 C 0.28873 0.08192 0.70258 0.0
H779 H 0.28541 0.06536 0.84254 0.0
H780 H 0.28707 0.05946 0.79226 0.0
H781 H 0.30795 0.06444 0.81946 0.0
H782 H 0.32548 0.07065 0.761 0.0
H783 H 0.33252 0.04953 0.70702 0.0
H784 H 0.33604 0.67792 0.4608 0.0
H785 H 0.36394 0.67637 0.41976 0.0
H786 H 0.33151 0.69716 0.32415 0.0
H787 H 0.30375 0.69917 0.36495 0.0
H788 H 0.36997 0.65596 0.35525 0.0
H789 H 0.37655 0.73155 0.32165 0.0
H790 H 0.36155 0.72295 0.35957 0.0
H791 H 0.35355 0.72284 0.31048 0.0
C792 C 0.33488 0.68229 0.43109 0.0
C793 C 0.31767 0.68874 0.4162 0.0
C794 C 0.35084 0.68139 0.40771 0.0
C795 C 0.34988 0.68696 0.3691 0.0
C796 C 0.3327 0.69326 0.35412 0.0
H797 H 0.41422 0.65558 0.17294 0.0
H798 H 0.39355 0.65697 0.22869 0.0
C799 C 0.31679 0.69428 0.37747 0.0
C800 C 0.36658 0.68551 0.34383 0.0
H801 H 0.39265 0.71032 0.27921 0.0
C802 C 0.37513 0.66789 0.33901 0.0
C803 C 0.37355 0.70115 0.32326 0.0
C804 C 0.36595 0.72072 0.32931 0.0
C805 C 0.38985 0.66531 0.31268 0.0
C806 C 0.39584 0.68067 0.28999 0.0
C807 C 0.38792 0.69847 0.29625 0.0
C808 C 0.40951 0.67851 0.25811 0.0
C809 C 0.39876 0.64615 0.30943 0.0
C810 C 0.42527 0.69031 0.25577 0.0
C811 C 0.43689 0.68986 0.22342 0.0
C812 C 0.43296 0.67761 0.19272 0.0
C813 C 0.41754 0.66534 0.19582 0.0
C814 C 0.40585 0.66591 0.228 0.0
H815 H 0.3975 0.63823 0.3368 0.0
H816 H 0.39139 0.63798 0.28686 0.0
H817 H 0.41385 0.64716 0.30163 0.0
H818 H 0.42829 0.70024 0.27854 0.0
H819 H 0.44847 0.6997 0.22181 0.0
H820 H 0.76384 0.87234 0.92268 0.0
H821 H 0.74983 0.89276 0.87417 0.0
H822 H 0.71205 0.8483 0.84087 0.0
H823 H 0.72585 0.82775 0.88958 0.0
H824 H 0.74979 0.88478 0.79531 0.0
H825 H 0.67716 0.89423 0.8504 0.0
H826 H 0.6962 0.88595 0.88026 0.0
H827 H 0.6849 0.87026 0.84709 0.0
C828 C 0.7524 0.86693 0.90538 0.0
C829 C 0.74604 0.84835 0.90993 0.0
C830 C 0.74441 0.87864 0.8777 0.0
C831 C 0.7298 0.8721 0.85421 0.0
C832 C 0.72309 0.85373 0.85918 0.0
H833 H 0.67422 0.91425 0.65073 0.0
H834 H 0.68366 0.89671 0.70801 0.0
C835 C 0.73109 0.84197 0.88688 0.0
C836 C 0.72266 0.88403 0.82257 0.0
H837 H 0.68329 0.9053 0.78717 0.0
C838 C 0.73529 0.8894 0.79365 0.0
C839 C 0.7037 0.88987 0.82042 0.0
C840 C 0.6897 0.88494 0.85133 0.0
C841 C 0.72942 0.90021 0.76222 0.0
C842 C 0.71048 0.90615 0.7601 0.0
C843 C 0.69782 0.90079 0.78901 0.0
C844 C 0.70357 0.91759 0.72749 0.0
C845 C 0.74345 0.90472 0.73102 0.0
C846 C 0.71123 0.93539 0.72014 0.0
C847 C 0.70604 0.94535 0.68724 0.0
C848 C 0.69295 0.93776 0.66123 0.0
C849 C 0.6846 0.92033 0.66978 0.0
C850 C 0.68986 0.91036 0.70264 0.0
H851 H 0.75587 0.89527 0.73213 0.0
H852 H 0.73692 0.90354 0.70214 0.0
H853 H 0.74849 0.91935 0.73476 0.0
H854 H 0.7216 0.94137 0.73936 0.0
H855 H 0.71284 0.95866 0.68148 0.0
H856 H 0.80483 0.80277 0.87131 0.0
H857 H 0.83162 0.8061 0.82817 0.0
H858 H 0.86215 0.83592 0.91606 0.0
H859 H 0.83536 0.83261 0.95982 0.0
H860 H 0.84723 0.84246 0.80658 0.0
H861 H 0.89949 0.79476 0.87514 0.0
H862 H 0.87457 0.79271 0.8841 0.0
H863 H 0.88764 0.8116 0.90522 0.0
C864 C 0.81727 0.8099 0.88173 0.0
C865 C 0.81789 0.81751 0.919 0.0
C866 C 0.83257 0.81178 0.85699 0.0
C867 C 0.84884 0.82117 0.86904 0.0
C868 C 0.84976 0.82844 0.90644 0.0
H869 H 0.94841 0.84082 0.72337 0.0
H870 H 0.92726 0.84112 0.77922 0.0
C871 C 0.83441 0.8266 0.9313 0.0
C872 C 0.86429 0.82418 0.84134 0.0
H873 H 0.90852 0.80966 0.81759 0.0
C874 C 0.86071 0.83544 0.80914 0.0
C875 C 0.88188 0.81515 0.84509 0.0
C876 C 0.88623 0.80277 0.87909 0.0
C877 C 0.87406 0.83746 0.77987 0.0
C878 C 0.89128 0.82768 0.78261 0.0
C879 C 0.89525 0.81708 0.81563 0.0
C880 C 0.9045 0.82699 0.74988 0.0
C881 C 0.86949 0.8498 0.74591 0.0
C882 C 0.89881 0.81854 0.71543 0.0
C883 C 0.91078 0.81827 0.68379 0.0
C884 C 0.92875 0.82642 0.68591 0.0
C885 C 0.93466 0.83441 0.72087 0.0
C886 C 0.92261 0.83465 0.7527 0.0
H887 H 0.85849 0.86031 0.7531 0.0
H888 H 0.88219 0.85731 0.73554 0.0
H889 H 0.8641 0.84094 0.7221 0.0
H890 H 0.88503 0.81217 0.71301 0.0
H891 H 0.90598 0.81156 0.65763 0.0
H892 H 0.76258 0.3319 0.3769 0.0
H893 H 0.77699 0.35428 0.3328 0.0
H894 H 0.76705 0.39912 0.41359 0.0
H895 H 0.75245 0.37681 0.45803 0.0
H896 H 0.754 0.40662 0.33952 0.0
H897 H 0.82767 0.38173 0.33553 0.0
H898 H 0.81098 0.36318 0.32807 0.0
H899 H 0.81153 0.37531 0.37341 0.0
C900 C 0.76362 0.34648 0.38557 0.0
C901 C 0.75626 0.35257 0.42094 0.0
C902 C 0.77202 0.35923 0.36042 0.0
C903 C 0.77332 0.3783 0.37017 0.0
C904 C 0.76631 0.38442 0.4057 0.0
H905 H 0.82649 0.4564 0.20575 0.0
H906 H 0.81823 0.44141 0.26715 0.0
C907 C 0.75796 0.37164 0.43101 0.0
C908 C 0.78046 0.39197 0.34165 0.0
H909 H 0.81757 0.40079 0.28217 0.0
C910 C 0.76802 0.40558 0.32747 0.0
C911 C 0.79882 0.39074 0.32629 0.0
C912 C 0.81309 0.37707 0.34187 0.0
C913 C 0.77306 0.41723 0.29668 0.0
C914 C 0.79093 0.41507 0.27953 0.0
C915 C 0.8038 0.40228 0.29521 0.0
C916 C 0.79576 0.42463 0.24317 0.0
C917 C 0.75905 0.43141 0.282 0.0
C918 C 0.78596 0.42 0.20957 0.0
C919 C 0.79067 0.4284 0.17472 0.0
C920 C 0.80531 0.44161 0.17276 0.0
C921 C 0.81508 0.44635 0.20653 0.0
C922 C 0.81043 0.43778 0.24148 0.0
H923 H 0.74839 0.43495 0.30418 0.0
H924 H 0.76619 0.44452 0.27276 0.0
H925 H 0.75159 0.42545 0.2568 0.0
H926 H 0.77475 0.40971 0.21025 0.0
H927 H 0.78275 0.42463 0.14928 0.0
H928 H 0.19886 0.20447 0.86513 0.0
H929 H 0.17192 0.20257 0.82195 0.0
H930 H 0.13992 0.17423 0.90966 0.0
H931 H 0.1668 0.17612 0.95338 0.0
H932 H 0.15453 0.1674 0.79976 0.0
H933 H 0.10455 0.21696 0.86987 0.0
H934 H 0.12953 0.21764 0.87903 0.0
H935 H 0.11541 0.1994 0.8997 0.0
C936 C 0.18607 0.19798 0.87547 0.0
C937 C 0.18504 0.19036 0.91268 0.0
C938 C 0.17069 0.19691 0.85073 0.0
C939 C 0.15394 0.18837 0.86276 0.0
C940 C 0.15266 0.18109 0.90008 0.0
H941 H 0.05317 0.17074 0.7198 0.0
H942 H 0.07461 0.17047 0.77523 0.0
C943 C 0.16808 0.18211 0.9249 0.0
C944 C 0.13832 0.18617 0.83519 0.0
H945 H 0.09436 0.20203 0.81306 0.0
C946 C 0.14132 0.17486 0.80279 0.0
C947 C 0.12106 0.19576 0.83956 0.0
C948 C 0.11735 0.20823 0.87376 0.0
C949 C 0.12767 0.17327 0.774 0.0
C950 C 0.11075 0.18352 0.77745 0.0
C951 C 0.1074 0.19423 0.81059 0.0
C952 C 0.09725 0.1845 0.7453 0.0
C953 C 0.13158 0.16083 0.73979 0.0
C954 C 0.10277 0.19293 0.71075 0.0
C955 C 0.09065 0.19316 0.67938 0.0
C956 C 0.07271 0.18498 0.6819 0.0
C957 C 0.06691 0.17714 0.71704 0.0
C958 C 0.07912 0.17692 0.74861 0.0
H959 H 0.14247 0.15013 0.74636 0.0
H960 H 0.11861 0.15356 0.73012 0.0
H961 H 0.13681 0.1696 0.71569 0.0
H962 H 0.11658 0.1992 0.70797 0.0
H963 H 0.09536 0.19974 0.65302 0.0
H964 H 0.22519 0.67875 0.38735 0.0
H965 H 0.21019 0.65748 0.34136 0.0
H966 H 0.24698 0.61272 0.37742 0.0
H967 H 0.26189 0.63371 0.4237 0.0
H968 H 0.22798 0.63943 0.28089 0.0
H969 H 0.19561 0.58732 0.37883 0.0
H970 H 0.20367 0.61002 0.39512 0.0
H971 H 0.22012 0.59116 0.38804 0.0
C972 C 0.22996 0.66432 0.38583 0.0
C973 C 0.24479 0.65796 0.4092 0.0
C974 C 0.22136 0.65219 0.35953 0.0
C975 C 0.2273 0.63346 0.35635 0.0
C976 C 0.2419 0.627 0.37997 0.0
H977 H 0.21308 0.54066 0.20126 0.0
H978 H 0.22061 0.56192 0.25432 0.0
C979 C 0.25051 0.6391 0.40623 0.0
C980 C 0.21921 0.62099 0.32647 0.0
H981 H 0.19801 0.57847 0.3127 0.0
C982 C 0.2212 0.62621 0.28782 0.0
C983 C 0.21044 0.60373 0.33564 0.0
C984 C 0.20715 0.59778 0.37668 0.0
C985 C 0.21528 0.61434 0.258 0.0
C986 C 0.20683 0.59691 0.26714 0.0
C987 C 0.20451 0.59183 0.3058 0.0
C988 C 0.201 0.58349 0.23684 0.0
C989 C 0.21876 0.62023 0.21696 0.0
C990 C 0.18709 0.58836 0.21008 0.0
C991 C 0.18272 0.57623 0.17979 0.0
C992 C 0.1921 0.55894 0.17583 0.0
C993 C 0.20548 0.55379 0.20364 0.0
C994 C 0.20986 0.56595 0.23389 0.0
H995 H 0.22909 0.63189 0.21502 0.0
H996 H 0.224 0.60823 0.19961 0.0
H997 H 0.20537 0.62511 0.20406 0.0
H998 H 0.17981 0.60168 0.21232 0.0
H999 H 0.17211 0.58046 0.15924 0.0
H1000 H 0.32027 0.66353 0.57911 0.0
H1001 H 0.34402 0.66246 0.62977 0.0
H1002 H 0.33435 0.721 0.65455 0.0
H1003 H 0.31066 0.72233 0.60371 0.0
H1004 H 0.37341 0.70962 0.65414 0.0
H1005 H 0.32796 0.66388 0.74442 0.0
H1006 H 0.33239 0.6555 0.69656 0.0
H1007 H 0.31907 0.67665 0.70349 0.0
C1008 C 0.32327 0.67625 0.59508 0.0
C1009 C 0.31336 0.69296 0.58768 0.0
C1010 C 0.33682 0.67557 0.62406 0.0
C1011 C 0.34068 0.69157 0.6462 0.0
C1012 C 0.33147 0.70849 0.63782 0.0
H1013 H 0.38709 0.70074 0.87276 0.0
H1014 H 0.36842 0.70199 0.81399 0.0
C1015 C 0.3179 0.70919 0.60883 0.0
C1016 C 0.35358 0.69044 0.67943 0.0
H1017 H 0.35816 0.67083 0.76836 0.0
C1018 C 0.37016 0.7011 0.67909 0.0
C1019 C 0.34912 0.67945 0.71202 0.0
C1020 C 0.33111 0.66832 0.7145 0.0
C1021 C 0.38247 0.70103 0.71064 0.0
C1022 C 0.37808 0.68991 0.74306 0.0
C1023 C 0.36151 0.67924 0.7433 0.0
C1024 C 0.38995 0.68977 0.77794 0.0
C1025 C 0.39981 0.71322 0.70953 0.0
C1026 C 0.40826 0.68247 0.77708 0.0
C1027 C 0.41896 0.68161 0.81077 0.0
C1028 C 0.41145 0.68795 0.84585 0.0
C1029 C 0.39317 0.69544 0.84637 0.0
C1030 C 0.38252 0.69628 0.81279 0.0
H1031 H 0.3992 0.72371 0.68595 0.0
H1032 H 0.40168 0.72073 0.73723 0.0
H1033 H 0.41234 0.70422 0.70489 0.0
H1034 H 0.41412 0.67708 0.75056 0.0
H1035 H 0.43292 0.67558 0.80952 0.0
H1036 H 0.73555 0.82951 0.12343 0.0
H1037 H 0.72071 0.85141 0.16809 0.0
H1038 H 0.73511 0.89766 0.09374 0.0
H1039 H 0.74965 0.87581 0.04841 0.0
H1040 H 0.73845 0.87931 0.20626 0.0
H1041 H 0.68071 0.90929 0.11855 0.0
H1042 H 0.69322 0.88829 0.10471 0.0
H1043 H 0.70337 0.91105 0.09621 0.0
C1044 C 0.73537 0.84432 0.11629 0.0
C1045 C 0.74385 0.85091 0.08238 0.0
C1046 C 0.72686 0.85681 0.14186 0.0
C1047 C 0.72662 0.87615 0.13409 0.0
C1048 C 0.73475 0.88276 0.09993 0.0
H1049 H 0.70979 0.97079 0.28655 0.0
H1050 H 0.71797 0.95034 0.23246 0.0
C1051 C 0.74317 0.87025 0.07416 0.0
C1052 C 0.7192 0.88943 0.16323 0.0
H1053 H 0.6874 0.92472 0.17797 0.0
C1054 C 0.72721 0.88914 0.20009 0.0
C1055 C 0.70452 0.90227 0.15513 0.0
C1056 C 0.69482 0.90267 0.11662 0.0
C1057 C 0.72111 0.90147 0.2289 0.0
C1058 C 0.70666 0.91442 0.22064 0.0
C1059 C 0.69856 0.91477 0.18395 0.0
C1060 C 0.69988 0.92759 0.25031 0.0
C1061 C 0.73018 0.90074 0.26805 0.0
C1062 C 0.68671 0.92161 0.27761 0.0
C1063 C 0.68192 0.93326 0.3084 0.0
C1064 C 0.69028 0.95107 0.31246 0.0
C1065 C 0.70292 0.95726 0.28407 0.0
C1066 C 0.70768 0.9456 0.25324 0.0
H1067 H 0.74191 0.89047 0.2693 0.0
H1068 H 0.73564 0.91484 0.2759 0.0
H1069 H 0.71951 0.89678 0.28986 0.0
H1070 H 0.68057 0.90771 0.27568 0.0
H1071 H 0.67193 0.92817 0.32944 0.0
H1072 H 0.6994 0.30272 0.63455 0.0
H1073 H 0.67298 0.3049 0.67898 0.0
H1074 H 0.64019 0.33327 0.59254 0.0
H1075 H 0.66656 0.33109 0.54756 0.0
H1076 H 0.65608 0.34005 0.70196 0.0
H1077 H 0.60496 0.29096 0.63408 0.0
H1078 H 0.62981 0.29017 0.6236 0.0
H1079 H 0.61551 0.30848 0.60369 0.0
C1080 C 0.68654 0.30928 0.62475 0.0
C1081 C 0.68515 0.31681 0.58752 0.0
C1082 C 0.67146 0.31051 0.65021 0.0
C1083 C 0.65464 0.31914 0.63891 0.0
C1084 C 0.65299 0.32634 0.60158 0.0
H1085 H 0.55456 0.33757 0.7827 0.0
H1086 H 0.57612 0.33749 0.72754 0.0
C1087 C 0.66811 0.32516 0.57603 0.0
C1088 C 0.63933 0.32147 0.66719 0.0
H1089 H 0.59535 0.30624 0.69092 0.0
C1090 C 0.64276 0.33276 0.69946 0.0
C1091 C 0.62192 0.31209 0.66351 0.0
C1092 C 0.61774 0.29963 0.62952 0.0
C1093 C 0.62937 0.33458 0.72871 0.0
C1094 C 0.61227 0.32457 0.72589 0.0
C1095 C 0.60852 0.31384 0.69295 0.0
C1096 C 0.59884 0.32402 0.75825 0.0
C1097 C 0.63371 0.34709 0.7626 0.0
C1098 C 0.60438 0.31606 0.79327 0.0
C1099 C 0.59217 0.31603 0.82455 0.0
C1100 C 0.57413 0.32392 0.82144 0.0
C1101 C 0.56837 0.33138 0.78593 0.0
C1102 C 0.58065 0.3314 0.7545 0.0
H1103 H 0.64461 0.35769 0.75542 0.0
H1104 H 0.6209 0.35449 0.77272 0.0
H1105 H 0.63912 0.33836 0.78657 0.0
H1106 H 0.61821 0.3099 0.79643 0.0
H1107 H 0.59686 0.30974 0.85121 0.0
H1108 H 0.26401 0.17441 0.12019 0.0
H1109 H 0.27823 0.15184 0.16408 0.0
H1110 H 0.2678 0.10721 0.08305 0.0
H1111 H 0.25335 0.12972 0.03883 0.0
H1112 H 0.25458 0.09973 0.15669 0.0
H1113 H 0.32847 0.12382 0.162 0.0
H1114 H 0.31203 0.14259 0.16947 0.0
H1115 H 0.31253 0.13055 0.12401 0.0
C1116 C 0.26492 0.15984 0.11141 0.0
C1117 C 0.25743 0.15386 0.07606 0.0
C1118 C 0.27321 0.14698 0.13643 0.0
C1119 C 0.2743 0.1279 0.12658 0.0
C1120 C 0.26722 0.12191 0.09101 0.0
H1121 H 0.32625 0.04991 0.29256 0.0
H1122 H 0.31842 0.06486 0.23092 0.0
C1123 C 0.25897 0.13479 0.06582 0.0
C1124 C 0.2812 0.11413 0.15511 0.0
H1125 H 0.31787 0.10504 0.21549 0.0
C1126 C 0.26854 0.10064 0.16905 0.0
C1127 C 0.29948 0.11519 0.17088 0.0
C1128 C 0.31398 0.1287 0.15555 0.0
C1129 C 0.2733 0.08898 0.2 0.0
C1130 C 0.29108 0.09103 0.21759 0.0
C1131 C 0.30417 0.10366 0.20213 0.0
C1132 C 0.29563 0.08146 0.25411 0.0
C1133 C 0.25908 0.07493 0.21434 0.0
C1134 C 0.28551 0.08603 0.28737 0.0
C1135 C 0.28996 0.07763 0.32237 0.0
C1136 C 0.30467 0.06452 0.32482 0.0
C1137 C 0.31477 0.05987 0.2914 0.0
C1138 C 0.31037 0.06842 0.25631 0.0
H1139 H 0.24863 0.07135 0.19178 0.0
H1140 H 0.26606 0.06182 0.22412 0.0
H1141 H 0.25139 0.08104 0.2391 0.0
H1142 H 0.27425 0.09626 0.28632 0.0
H1143 H 0.2818 0.08133 0.34752 0.0
H1144 H 0.22706 0.26089 0.05435 0.0
H1145 H 0.21807 0.29396 0.055 0.0
H1146 H 0.19962 0.28965 0.93733 0.0
H1147 H 0.20835 0.25642 0.93648 0.0
H1148 H 0.23279 0.32156 0.0088 0.0
H1149 H 0.1556 0.31661 0.98896 0.0
H1150 H 0.16983 0.29673 0.00278 0.0
H1151 H 0.16893 0.30409 0.95342 0.0
C1152 C 0.22092 0.26688 0.02866 0.0
C1153 C 0.21849 0.25598 0.99529 0.0
C1154 C 0.21578 0.28581 0.02913 0.0
C1155 C 0.208 0.29423 0.99637 0.0
C1156 C 0.20526 0.28335 0.96318 0.0
H1157 H 0.20839 0.41181 0.93741 0.0
H1158 H 0.213 0.3779 0.94186 0.0
C1159 C 0.21038 0.26438 0.96268 0.0
C1160 C 0.20397 0.31466 0.99625 0.0
H1161 H 0.16923 0.34705 0.98218 0.0
C1162 C 0.21887 0.32712 0.0032 0.0
C1163 C 0.18576 0.32189 0.98937 0.0
C1164 C 0.16906 0.30915 0.98356 0.0
C1165 C 0.21615 0.34663 0.0026 0.0
C1166 C 0.19811 0.35387 0.99424 0.0
C1167 C 0.18309 0.34144 0.98823 0.0
C1168 C 0.19471 0.37433 0.99096 0.0
C1169 C 0.2326 0.35934 0.01116 0.0
C1170 C 0.18252 0.38349 0.01653 0.0
C1171 C 0.17973 0.40291 0.01388 0.0
C1172 C 0.18895 0.41344 0.98535 0.0
C1173 C 0.20092 0.40411 0.95945 0.0
C1174 C 0.20372 0.38475 0.96218 0.0
H1175 H 0.24398 0.35178 0.02661 0.0
H1176 H 0.23848 0.36469 0.98374 0.0
H1177 H 0.22816 0.37159 0.02873 0.0
H1178 H 0.17536 0.37565 0.0388 0.0
H1179 H 0.17026 0.40965 0.03396 0.0
H1180 H 0.20529 0.71113 0.54861 0.0
H1181 H 0.17335 0.72378 0.5472 0.0
H1182 H 0.18532 0.75136 0.43967 0.0
H1183 H 0.21709 0.73849 0.44035 0.0
H1184 H 0.16228 0.76055 0.54696 0.0
H1185 H 0.13645 0.72472 0.41574 0.0
H1186 H 0.1578 0.7178 0.43986 0.0
H1187 H 0.15772 0.73769 0.40798 0.0
C1188 C 0.20109 0.71977 0.5245 0.0
C1189 C 0.21374 0.72375 0.49453 0.0
C1190 C 0.18284 0.72699 0.52377 0.0
C1191 C 0.17688 0.73827 0.49306 0.0
C1192 C 0.18947 0.74232 0.46318 0.0
H1193 H 0.07784 0.80412 0.44232 0.0
H1194 H 0.10923 0.79017 0.44467 0.0
C1195 C 0.20768 0.73502 0.46376 0.0
C1196 C 0.15773 0.74644 0.493 0.0
H1197 H 0.11743 0.74958 0.44016 0.0
C1198 C 0.15241 0.75804 0.52377 0.0
C1199 C 0.14489 0.74312 0.46269 0.0
C1200 C 0.14941 0.73001 0.42989 0.0
C1201 C 0.13474 0.76675 0.52463 0.0
C1202 C 0.12206 0.76365 0.49406 0.0
C1203 C 0.12729 0.75198 0.46342 0.0
C1204 C 0.10321 0.77234 0.49341 0.0
C1205 C 0.12985 0.77951 0.55778 0.0
C1206 C 0.08947 0.76681 0.51994 0.0
C1207 C 0.07147 0.77459 0.51846 0.0
C1208 C 0.06689 0.78805 0.49037 0.0
C1209 C 0.0808 0.79362 0.46399 0.0
C1210 C 0.09877 0.78576 0.4654 0.0
H1211 H 0.14241 0.78329 0.57509 0.0
H1212 H 0.12313 0.7926 0.54723 0.0
H1213 H 0.11967 0.77228 0.57687 0.0
H1214 H 0.09259 0.75624 0.54139 0.0
H1215 H 0.06102 0.76972 0.53875 0.0
H1216 H 0.79889 0.75149 0.94312 0.0
H1217 H 0.80784 0.71822 0.94223 0.0
H1218 H 0.78025 0.71003 0.05116 0.0
H1219 H 0.77125 0.74308 0.05246 0.0
H1220 H 0.82858 0.69614 0.0016 0.0
H1221 H 0.75572 0.67138 0.97485 0.0
H1222 H 0.7631 0.69522 0.96554 0.0
H1223 H 0.75823 0.68777 0.01381 0.0
C1224 C 0.79479 0.74263 0.96697 0.0
C1225 C 0.78419 0.74994 0.9977 0.0
C1226 C 0.79995 0.72365 0.96642 0.0
C1227 C 0.79447 0.71168 0.99637 0.0
C1228 C 0.78438 0.71902 0.02753 0.0
H1229 H 0.79832 0.59572 0.05917 0.0
H1230 H 0.7938 0.62953 0.05307 0.0
C1231 C 0.7793 0.73795 0.02823 0.0
C1232 C 0.7989 0.69139 0.99505 0.0
H1233 H 0.7782 0.64821 0.99173 0.0
C1234 C 0.81764 0.68561 0.99905 0.0
C1235 C 0.78455 0.67777 0.99166 0.0
C1236 C 0.76427 0.68327 0.98589 0.0
C1237 C 0.82233 0.66646 0.00137 0.0
C1238 C 0.8079 0.65283 0.99886 0.0
C1239 C 0.78923 0.65868 0.99381 0.0
C1240 C 0.81163 0.63244 0.00309 0.0
C1241 C 0.84256 0.66101 0.00799 0.0
C1242 C 0.82317 0.62282 0.97697 0.0
C1243 C 0.82598 0.60344 0.98065 0.0
C1244 C 0.81719 0.59333 0.01039 0.0
C1245 C 0.80562 0.60308 0.03641 0.0
C1246 C 0.80288 0.6224 0.03277 0.0
H1247 H 0.85112 0.67309 0.01811 0.0
H1248 H 0.8436 0.64951 0.02943 0.0
H1249 H 0.8487 0.65591 0.98061 0.0
H1250 H 0.82978 0.63023 0.95341 0.0
H1251 H 0.83505 0.59639 0.96023 0.0
H1252 H 0.79572 0.29868 0.4454 0.0
H1253 H 0.82754 0.2857 0.44282 0.0
H1254 H 0.81817 0.2572 0.55036 0.0
H1255 H 0.78636 0.27004 0.55332 0.0
H1256 H 0.85746 0.28885 0.50117 0.0
H1257 H 0.83472 0.21542 0.47232 0.0
H1258 H 0.81954 0.23539 0.46446 0.0
H1259 H 0.82362 0.22695 0.51232 0.0
C1260 C 0.80042 0.28968 0.46856 0.0
C1261 C 0.78843 0.28528 0.49943 0.0
C1262 C 0.8186 0.28231 0.46704 0.0
C1263 C 0.82503 0.27032 0.49613 0.0
C1264 C 0.81331 0.26623 0.52737 0.0
H1265 H 0.92687 0.206 0.53165 0.0
H1266 H 0.89563 0.22014 0.53591 0.0
C1267 C 0.79517 0.27365 0.52905 0.0
C1268 C 0.84401 0.26203 0.49379 0.0
H1269 H 0.86714 0.22041 0.48273 0.0
C1270 C 0.85964 0.2739 0.49702 0.0
C1271 C 0.84668 0.24253 0.48854 0.0
C1272 C 0.83029 0.22928 0.4839 0.0
C1273 C 0.87799 0.26672 0.49577 0.0
C1274 C 0.88069 0.24721 0.49019 0.0
C1275 C 0.86502 0.23535 0.48698 0.0
C1276 C 0.89967 0.2388 0.48757 0.0
C1277 C 0.89428 0.28002 0.50133 0.0
C1278 C 0.91217 0.24442 0.45863 0.0
C1279 C 0.9301 0.23652 0.45637 0.0
C1280 C 0.93579 0.22269 0.48276 0.0
C1281 C 0.92306 0.21683 0.51127 0.0
C1282 C 0.90516 0.2248 0.51359 0.0
H1283 H 0.88983 0.29321 0.51581 0.0
H1284 H 0.9056 0.2734 0.51861 0.0
H1285 H 0.90017 0.28382 0.47287 0.0
H1286 H 0.90807 0.25491 0.43774 0.0
H1287 H 0.93959 0.24148 0.43428 0.0
H1288 H 0.70401 0.25209 0.5602 0.0
H1289 H 0.69537 0.21876 0.56137 0.0
H1290 H 0.72215 0.21073 0.45154 0.0
H1291 H 0.73083 0.2439 0.44992 0.0
H1292 H 0.67439 0.19642 0.50187 0.0
H1293 H 0.74767 0.17255 0.5282 0.0
H1294 H 0.74003 0.1963 0.5377 0.0
H1295 H 0.74452 0.18886 0.48928 0.0
C1296 C 0.70799 0.24327 0.53619 0.0
C1297 C 0.71827 0.25066 0.50511 0.0
C1298 C 0.70301 0.22425 0.53691 0.0
C1299 C 0.70833 0.21231 0.50676 0.0
C1300 C 0.71811 0.21972 0.47528 0.0
H1301 H 0.70541 0.09313 0.46239 0.0
H1302 H 0.70969 0.12712 0.46029 0.0
C1303 C 0.72302 0.2387 0.4744 0.0
C1304 C 0.70411 0.19198 0.50848 0.0
H1305 H 0.72506 0.14904 0.51574 0.0
C1306 C 0.6854 0.18601 0.50509 0.0
C1307 C 0.71856 0.17854 0.51261 0.0
C1308 C 0.73883 0.1843 0.51746 0.0
C1309 C 0.68081 0.16681 0.50472 0.0
C1310 C 0.69529 0.15332 0.50874 0.0
C1311 C 0.71398 0.15938 0.51253 0.0
C1312 C 0.69153 0.13282 0.50877 0.0
C1313 C 0.66057 0.16116 0.49891 0.0
C1314 C 0.67986 0.12469 0.53669 0.0
C1315 C 0.67717 0.10524 0.53766 0.0
C1316 C 0.68628 0.09349 0.51097 0.0
C1317 C 0.6979 0.10173 0.48295 0.0
C1318 C 0.7005 0.12117 0.4819 0.0
H1319 H 0.65221 0.17267 0.48582 0.0
H1320 H 0.65949 0.14854 0.48028 0.0
H1321 H 0.65422 0.15776 0.52717 0.0
H1322 H 0.67309 0.13335 0.55821 0.0
H1323 H 0.668 0.0994 0.55942 0.0
H1324 H 0.29641 0.20894 0.05247 0.0
H1325 H 0.32803 0.22242 0.05468 0.0
H1326 H 0.31835 0.2498 0.94605 0.0
H1327 H 0.28673 0.23649 0.94349 0.0
H1328 H 0.35815 0.21931 0.9976 0.0
H1329 H 0.33393 0.29265 0.02182 0.0
H1330 H 0.319 0.27253 0.03006 0.0
H1331 H 0.32335 0.28054 0.98198 0.0
C1332 C 0.301 0.21779 0.02898 0.0
C1333 C 0.28897 0.22176 0.99795 0.0
C1334 C 0.31907 0.22545 0.0303 0.0
C1335 C 0.32535 0.23729 0.00081 0.0
C1336 C 0.3136 0.24091 0.96936 0.0
H1337 H 0.42652 0.30288 0.96488 0.0
H1338 H 0.39558 0.28811 0.95998 0.0
C1339 C 0.29557 0.23322 0.9679 0.0
C1340 C 0.34417 0.24598 0.00303 0.0
H1341 H 0.36649 0.28815 0.01226 0.0
C1342 C 0.36003 0.23435 0.00091 0.0
C1343 C 0.34646 0.26559 0.0072 0.0
C1344 C 0.32982 0.27861 0.01071 0.0
C1345 C 0.37823 0.24188 0.00227 0.0
C1346 C 0.38055 0.2615 0.00677 0.0
C1347 C 0.36465 0.27312 0.00881 0.0
C1348 C 0.39935 0.27027 0.00969 0.0
C1349 C 0.3948 0.22881 0.99804 0.0
C1350 C 0.4116 0.26532 0.03958 0.0
C1351 C 0.42934 0.27359 0.04225 0.0
C1352 C 0.4351 0.28713 0.01528 0.0
C1353 C 0.42264 0.2923 0.98575 0.0
C1354 C 0.40492 0.28396 0.98305 0.0
H1355 H 0.3907 0.21534 0.98422 0.0
H1356 H 0.40614 0.23539 0.98076 0.0
H1357 H 0.40052 0.22552 0.02691 0.0
H1358 H 0.40742 0.25507 0.06092 0.0
H1359 H 0.43864 0.26915 0.06513 0.0
H1360 H 0.30063 0.75388 0.43764 0.0
H1361 H 0.31199 0.78635 0.43678 0.0
H1362 H 0.28385 0.79698 0.54433 0.0
H1363 H 0.27279 0.7646 0.5459 0.0
H1364 H 0.29115 0.81836 0.43497 0.0
H1365 H 0.33542 0.81826 0.56571 0.0
H1366 H 0.32706 0.79689 0.54361 0.0
H1367 H 0.31198 0.81019 0.57499 0.0
C1368 C 0.297 0.76308 0.4613 0.0
C1369 C 0.2858 0.75661 0.49186 0.0
C1370 C 0.30352 0.78163 0.46076 0.0
C1371 C 0.29905 0.79401 0.49082 0.0
C1372 C 0.2879 0.78757 0.52134 0.0
H1373 H 0.30184 0.91268 0.53328 0.0
H1374 H 0.29803 0.87856 0.53514 0.0
C1375 C 0.28146 0.76905 0.522 0.0
C1376 C 0.30498 0.81397 0.48925 0.0
H1377 H 0.32685 0.8485 0.5408 0.0
C1378 C 0.29919 0.82489 0.45784 0.0
C1379 C 0.31546 0.82248 0.51915 0.0
C1380 C 0.32301 0.8113 0.55257 0.0
C1381 C 0.30298 0.84422 0.45619 0.0
C1382 C 0.31297 0.85279 0.4866 0.0
C1383 C 0.31911 0.84185 0.51764 0.0
C1384 C 0.31658 0.87326 0.48716 0.0
C1385 C 0.29572 0.85548 0.42261 0.0
C1386 C 0.32866 0.88149 0.46017 0.0
C1387 C 0.33103 0.90097 0.45924 0.0
C1388 C 0.32132 0.91259 0.48527 0.0
C1389 C 0.3097 0.90418 0.51309 0.0
C1390 C 0.30741 0.88469 0.51408 0.0
H1391 H 0.28548 0.84741 0.40504 0.0
H1392 H 0.28888 0.8686 0.43274 0.0
H1393 H 0.30768 0.85949 0.40386 0.0
H1394 H 0.33608 0.87284 0.43953 0.0
H1395 H 0.34036 0.90694 0.43791 0.0
H1396 H 0.70501 0.79586 0.05223 0.0
H1397 H 0.67316 0.78287 0.05047 0.0
H1398 H 0.68496 0.75704 0.94107 0.0
H1399 H 0.71678 0.76984 0.94248 0.0
H1400 H 0.64473 0.78785 0.9912 0.0
H1401 H 0.66603 0.71333 0.01055 0.0
H1402 H 0.68138 0.73275 0.02199 0.0
H1403 H 0.67801 0.72577 0.97288 0.0
C1404 C 0.70085 0.78742 0.02778 0.0
C1405 C 0.71351 0.78378 0.99763 0.0
C1406 C 0.68265 0.78004 0.02683 0.0
C1407 C 0.67687 0.76879 0.99593 0.0
C1408 C 0.6893 0.76543 0.96547 0.0
H1409 H 0.57542 0.70796 0.93727 0.0
H1410 H 0.60693 0.7217 0.93942 0.0
C1411 C 0.70745 0.77285 0.96628 0.0
C1412 C 0.65776 0.76065 0.99529 0.0
H1413 H 0.634 0.71902 0.99628 0.0
C1414 C 0.64233 0.77282 0.9925 0.0
C1415 C 0.65478 0.74104 0.99684 0.0
C1416 C 0.67089 0.72742 0.00104 0.0
C1417 C 0.62392 0.76584 0.99044 0.0
C1418 C 0.62091 0.74621 0.99208 0.0
C1419 C 0.63637 0.73406 0.99499 0.0
C1420 C 0.60181 0.73797 0.99089 0.0
C1421 C 0.6079 0.77953 0.98554 0.0
C1422 C 0.58861 0.74236 0.01942 0.0
C1423 C 0.57057 0.73469 0.01808 0.0
C1424 C 0.56543 0.72231 0.98837 0.0
C1425 C 0.57883 0.71767 0.9602 0.0
C1426 C 0.59686 0.72541 0.96152 0.0
H1427 H 0.61284 0.79328 0.97434 0.0
H1428 H 0.59709 0.77387 0.96567 0.0
H1429 H 0.60118 0.78203 0.01385 0.0
H1430 H 0.59226 0.75174 0.04277 0.0
H1431 H 0.56056 0.73871 0.04003 0.0
loop_
_geom_bond_atom_site_label_1
_geom_bond_atom_site_label_2
_geom_bond_distance
_geom_bond_site_symmetry_2
_ccdc_geom_bond_type
Fe0 O2 1.918 . S
Fe0 O5 1.997 . S
Fe0 O6 2.002 . S
Fe0 O11 1.976 . S
Fe0 O14 1.996 . S
Fe1 O2 1.918 1_556 S
Fe1 O9 1.997 . S
Fe1 O12 1.996 . S
Fe1 O16 1.976 . S
Fe1 O19 2.002 . S
O2 Fe0 1.918 . S
O2 Fe1 1.918 1_554 S
O2 Fe3 1.918 1_554 S
Fe3 O2 1.918 1_556 S
Fe3 O4 1.998 1_556 S
Fe3 O13 1.972 1_556 S
Fe3 O17 2.000 . S
Fe3 O20 2.001 . S
O4 Fe3 1.998 1_554 S
O4 C21 1.295 . S
O5 Fe0 1.997 . S
O5 C21 1.235 . S
O6 Fe0 2.002 . S
O6 C7 1.295 . S
C7 O6 1.295 . S
C7 O9 1.235 1_554 S
C8 O13 1.287 . S
C8 O14 1.255 . S
O9 Fe1 1.997 . S
O9 C7 1.235 1_556 S
C10 O16 1.287 . S
C10 O17 1.255 . S
O11 Fe0 1.976 . S
O11 C18 1.287 1_554 S
O12 Fe1 1.996 . S
O12 C18 1.255 . S
O13 Fe3 1.972 1_554 S
O13 C8 1.287 . S
O14 Fe0 1.996 . S
O14 C8 1.255 . S
C15 O19 1.295 . S
C15 O20 1.235 . S
O16 Fe1 1.976 . S
O16 C10 1.287 . S
O17 Fe3 2.000 . S
O17 C10 1.255 . S
C18 O11 1.287 1_556 S
C18 O12 1.255 . S
O19 Fe1 2.002 . S
O19 C15 1.295 . S
O20 Fe3 2.001 . S
O20 C15 1.235 . S
C21 O4 1.295 . S
C21 O5 1.235 . S
Fe22 O24 1.918 . S
Fe22 O27 1.997 . S
Fe22 O28 2.002 . S
Fe22 O33 1.976 . S
Fe22 O36 1.996 . S
Fe23 O24 1.918 . S
Fe23 O31 1.997 . S
Fe23 O34 1.996 . S
Fe23 O38 1.976 . S
Fe23 O41 2.002 . S
O24 Fe22 1.918 . S
O24 Fe23 1.918 . S
O24 Fe25 1.918 . S
Fe25 O24 1.918 . S
Fe25 O26 2.002 . S
Fe25 O35 1.976 . S
Fe25 O39 1.996 . S
Fe25 O42 1.997 . S
O26 Fe25 2.002 . S
O26 C43 1.295 . S
O27 Fe22 1.997 . S
O27 C43 1.235 . S
O28 Fe22 2.002 . S
O28 C29 1.295 . S
C29 O28 1.295 . S
C29 O31 1.235 . S
C30 O35 1.287 . S
C30 O36 1.255 . S
O31 Fe23 1.997 . S
O31 C29 1.235 . S
C32 O38 1.287 . S
C32 O39 1.255 . S
O33 Fe22 1.976 . S
O33 C40 1.287 . S
O34 Fe23 1.996 . S
O34 C40 1.255 . S
O35 Fe25 1.976 . S
O35 C30 1.287 . S
O36 Fe22 1.996 . S
O36 C30 1.255 . S
C37 O41 1.295 . S
C37 O42 1.235 . S
O38 Fe23 1.976 . S
O38 C32 1.287 . S
O39 Fe25 1.996 . S
O39 C32 1.255 . S
C40 O33 1.287 . S
C40 O34 1.255 . S
O41 Fe23 2.002 . S
O41 C37 1.295 . S
O42 Fe25 1.997 . S
O42 C37 1.235 . S
C43 O26 1.295 . S
C43 O27 1.235 . S
Fe44 O46 1.918 1_556 S
Fe44 O49 1.997 . S
Fe44 O50 2.002 . S
Fe44 O55 1.976 . S
Fe44 O58 1.996 . S
Fe45 O46 1.918 . S
Fe45 O53 1.997 . S
Fe45 O56 1.996 . S
Fe45 O60 1.976 . S
Fe45 O63 2.002 . S
O46 Fe44 1.918 1_554 S
O46 Fe45 1.918 . S
O46 Fe47 1.918 . S
Fe47 O46 1.918 . S
Fe47 O48 1.994 1_554 S
Fe47 O57 1.967 1_554 S
Fe47 O61 2.005 . S
Fe47 O64 2.006 . S
O48 Fe47 1.994 1_556 S
O48 C65 1.295 . S
O49 Fe44 1.997 . S
O49 C65 1.235 . S
O50 Fe44 2.002 . S
O50 C51 1.320 . S
C51 O50 1.320 . S
C51 O53 1.211 1_556 S
C52 O57 1.287 . S
C52 O58 1.255 . S
O53 Fe45 1.997 . S
O53 C51 1.211 1_554 S
C54 O60 1.287 . S
C54 O61 1.255 . S
O55 Fe44 1.976 . S
O55 C62 1.287 1_556 S
O56 Fe45 1.996 . S
O56 C62 1.255 . S
O57 Fe47 1.967 1_556 S
O57 C52 1.287 . S
O58 Fe44 1.996 . S
O58 C52 1.255 . S
C59 O63 1.295 . S
C59 O64 1.235 . S
O60 Fe45 1.976 . S
O60 C54 1.287 . S
O61 Fe47 2.005 . S
O61 C54 1.255 . S
C62 O55 1.287 1_554 S
C62 O56 1.255 . S
O63 Fe45 2.002 . S
O63 C59 1.295 . S
O64 Fe47 2.006 . S
O64 C59 1.235 . S
C65 O48 1.295 . S
C65 O49 1.235 . S
Fe66 O68 1.918 . S
Fe66 O71 1.997 . S
Fe66 O72 2.002 . S
Fe66 O77 1.976 . S
Fe66 O80 1.996 . S
Fe67 O68 1.918 . S
Fe67 O75 1.997 . S
Fe67 O78 1.996 . S
Fe67 O82 1.976 . S
Fe67 O85 2.002 . S
O68 Fe66 1.918 . S
O68 Fe67 1.918 . S
O68 Fe69 1.918 . S
Fe69 O68 1.918 . S
Fe69 O70 2.002 . S
Fe69 O79 1.976 . S
Fe69 O83 1.996 . S
Fe69 O86 1.997 . S
O70 Fe69 2.002 . S
O70 C87 1.295 . S
O71 Fe66 1.997 . S
O71 C87 1.235 . S
O72 Fe66 2.002 . S
O72 C73 1.295 . S
C73 O72 1.295 . S
C73 O75 1.235 . S
C74 O79 1.287 . S
C74 O80 1.255 . S
O75 Fe67 1.997 . S
O75 C73 1.235 . S
C76 O82 1.287 . S
C76 O83 1.255 . S
O77 Fe66 1.976 . S
O77 C84 1.287 . S
O78 Fe67 1.996 . S
O78 C84 1.255 . S
O79 Fe69 1.976 . S
O79 C74 1.287 . S
O80 Fe66 1.996 . S
O80 C74 1.255 . S
C81 O85 1.295 . S
C81 O86 1.235 . S
O82 Fe67 1.976 . S
O82 C76 1.287 . S
O83 Fe69 1.996 . S
O83 C76 1.255 . S
C84 O77 1.287 . S
C84 O78 1.255 . S
O85 Fe67 2.002 . S
O85 C81 1.295 . S
O86 Fe69 1.997 . S
O86 C81 1.235 . S
C87 O70 1.295 . S
C87 O71 1.235 . S
C88 C89 1.391 . S
C88 C92 1.391 . S
C88 H130 0.948 . S
C89 C88 1.391 . S
C89 C90 1.391 . S
C90 C89 1.391 . S
C90 H146 0.947 . S
C90 C147 1.392 . S
C91 C92 1.391 . S
C91 C95 1.397 . S
C91 C147 1.419 . S
C92 C88 1.391 . S
C92 C91 1.391 . S
C92 C93 1.399 . S
C93 C92 1.399 . S
C93 C96 1.396 . S
C93 C105 1.453 . S
C93 C106 1.684 . S
H94 C118 0.948 . S
C95 C91 1.397 . S
C95 C96 1.394 . S
C95 C114 1.723 1_556 S
C96 C93 1.396 . S
C96 C95 1.394 . S
C96 C126 1.723 . S
H97 C120 0.947 . S
H98 C121 0.948 . S
H99 C127 0.982 . S
H100 C128 0.979 . S
H101 C128 0.980 . S
H102 C128 0.983 . S
H103 C127 0.979 . S
H104 C127 0.977 . S
C105 C93 1.453 . S
C105 H134 0.982 . S
C105 H135 0.979 . S
C105 H136 0.977 . S
C106 C93 1.684 . S
C106 H131 0.979 . S
C106 H132 0.980 . S
C106 H133 0.983 . S
C107 C108 1.391 . S
C107 C112 1.391 . S
C107 H137 0.948 . S
C108 C107 1.391 . S
C108 C109 1.391 . S
C109 C108 1.391 . S
C109 C110 1.392 . S
C109 H138 0.947 . S
C110 C109 1.392 . S
C110 C111 1.419 . S
C110 H139 0.948 . S
C111 C110 1.419 . S
C111 C112 1.391 . S
C111 C115 1.397 . S
C112 C107 1.391 . S
C112 C111 1.391 . S
C112 C113 1.399 . S
C113 C112 1.399 . S
C113 C114 1.396 . S
C113 C116 1.453 . S
C113 C117 1.684 . S
C114 C95 1.723 1_554 S
C114 C113 1.396 . S
C114 C115 1.394 . S
C115 C111 1.397 . S
C115 C114 1.394 . S
C115 C125 1.723 . S
C116 C113 1.453 . S
C116 H140 0.982 . S
C116 H141 0.979 . S
C116 H142 0.977 1_554 S
C117 C113 1.684 . S
C117 H143 0.979 . S
C117 H144 0.980 1_554 S
C117 H145 0.983 . S
C118 H94 0.948 . S
C118 C119 1.391 1_554 S
C118 C123 1.391 . S
C119 C118 1.391 1_556 S
C119 C120 1.391 . S
C120 H97 0.947 . S
C120 C119 1.391 . S
C120 C121 1.392 . S
C121 H98 0.948 . S
C121 C120 1.392 . S
C121 C122 1.419 . S
C122 C121 1.419 . S
C122 C123 1.391 1_556 S
C122 C126 1.397 . S
C123 C118 1.391 . S
C123 C122 1.391 1_554 S
C123 C124 1.399 . S
C124 C123 1.399 . S
C124 C125 1.396 . S
C124 C127 1.453 . S
C124 C128 1.684 . S
C125 C115 1.723 . S
C125 C124 1.396 . S
C125 C126 1.394 1_554 S
C126 C96 1.723 . S
C126 C122 1.397 . S
C126 C125 1.394 1_556 S
C127 H99 0.982 . S
C127 H103 0.979 . S
C127 H104 0.977 . S
C127 C124 1.453 . S
C128 H100 0.979 . S
C128 H101 0.980 . S
C128 H102 0.983 . S
C128 C124 1.684 . S
H129 C147 0.948 . S
H130 C88 0.948 . S
H131 C106 0.979 . S
H132 C106 0.980 . S
H133 C106 0.983 . S
H134 C105 0.982 . S
H135 C105 0.979 . S
H136 C105 0.977 . S
H137 C107 0.948 . S
H138 C109 0.947 . S
H139 C110 0.948 . S
H140 C116 0.982 . S
H141 C116 0.979 . S
H142 C116 0.977 1_556 S
H143 C117 0.979 . S
H144 C117 0.980 1_556 S
H145 C117 0.983 . S
H146 C90 0.947 . S
C147 C90 1.392 . S
C147 C91 1.419 . S
C147 H129 0.948 . S
C148 C149 1.391 . S
C148 C152 1.391 . S
C148 H190 0.948 . S
C149 C148 1.391 . S
C149 C150 1.391 . S
C150 C149 1.391 . S
C150 H206 0.947 . S
C150 C207 1.392 . S
C151 C152 1.391 . S
C151 C155 1.397 . S
C151 C207 1.419 . S
C152 C148 1.391 . S
C152 C151 1.391 . S
C152 C153 1.399 . S
C153 C152 1.399 . S
C153 C156 1.396 1_455 S
C153 C165 1.453 . S
C153 C166 1.684 . S
H154 C178 0.948 . S
C155 C151 1.397 . S
C155 C156 1.394 1_455 S
C155 C174 1.723 1_455 S
C156 C153 1.396 1_655 S
C156 C155 1.394 1_655 S
C156 C186 1.723 . S
H157 C180 0.947 . S
H158 C181 0.948 . S
H159 C187 0.982 . S
H160 C188 0.979 . S
H161 C188 0.980 . S
H162 C188 0.983 . S
H163 C187 0.979 . S
H164 C187 0.977 . S
C165 C153 1.453 . S
C165 H194 0.982 . S
C165 H195 0.979 . S
C165 H196 0.977 . S
C166 C153 1.684 . S
C166 H191 0.979 . S
C166 H192 0.980 . S
C166 H193 0.983 . S
C167 C168 1.391 . S
C167 C172 1.391 . S
C167 H197 0.948 . S
C168 C167 1.391 . S
C168 C169 1.391 . S
C169 C168 1.391 . S
C169 C170 1.392 . S
C169 H198 0.947 . S
C170 C169 1.392 . S
C170 C171 1.419 . S
C170 H199 0.948 . S
C171 C170 1.419 . S
C171 C172 1.391 . S
C171 C175 1.397 . S
C172 C167 1.391 . S
C172 C171 1.391 . S
C172 C173 1.399 . S
C173 C172 1.399 . S
C173 C174 1.396 . S
C173 C176 1.449 1_655 S
C173 C177 1.684 . S
C174 C155 1.723 1_655 S
C174 C173 1.396 . S
C174 C175 1.394 . S
C175 C171 1.397 . S
C175 C174 1.394 . S
C175 C185 1.723 . S
C176 C173 1.449 1_455 S
C176 H200 0.981 1_455 S
C176 H201 0.979 . S
C176 H202 0.982 . S
C177 C173 1.684 . S
C177 H203 0.979 . S
C177 H204 0.980 1_655 S
C177 H205 0.983 . S
C178 H154 0.948 . S
C178 C179 1.391 . S
C178 C183 1.391 . S
C179 C178 1.391 . S
C179 C180 1.391 . S
C180 H157 0.947 . S
C180 C179 1.391 . S
C180 C181 1.392 . S
C181 H158 0.948 . S
C181 C180 1.392 . S
C181 C182 1.419 . S
C182 C181 1.419 . S
C182 C183 1.391 . S
C182 C186 1.397 . S
C183 C178 1.391 . S
C183 C182 1.391 . S
C183 C184 1.399 . S
C184 C183 1.399 . S
C184 C185 1.396 . S
C184 C187 1.453 . S
C184 C188 1.684 . S
C185 C175 1.723 . S
C185 C184 1.396 . S
C185 C186 1.394 . S
C186 C156 1.723 . S
C186 C182 1.397 . S
C186 C185 1.394 . S
C187 H159 0.982 . S
C187 H163 0.979 . S
C187 H164 0.977 . S
C187 C184 1.453 . S
C188 H160 0.979 . S
C188 H161 0.980 . S
C188 H162 0.983 . S
C188 C184 1.684 . S
H189 C207 0.948 . S
H190 C148 0.948 . S
H191 C166 0.979 . S
H192 C166 0.980 . S
H193 C166 0.983 . S
H194 C165 0.982 . S
H195 C165 0.979 . S
H196 C165 0.977 . S
H197 C167 0.948 . S
H198 C169 0.947 . S
H199 C170 0.948 . S
H200 C176 0.981 1_655 S
H201 C176 0.979 . S
H202 C176 0.982 . S
H203 C177 0.979 . S
H204 C177 0.980 1_455 S
H205 C177 0.983 . S
H206 C150 0.947 . S
C207 C150 1.392 . S
C207 C151 1.419 . S
C207 H189 0.948 . S
C208 C209 1.391 . S
C208 C212 1.391 . S
C208 H250 0.948 . S
C209 C208 1.391 . S
C209 C210 1.391 . S
C210 C209 1.391 . S
C210 H266 0.947 . S
C210 C267 1.392 . S
C211 C212 1.391 . S
C211 C215 1.397 . S
C211 C267 1.419 . S
C212 C208 1.391 . S
C212 C211 1.391 . S
C212 C213 1.399 . S
C213 C212 1.399 . S
C213 C216 1.396 . S
C213 C225 1.453 . S
C213 C226 1.684 . S
H214 C238 0.948 . S
C215 C211 1.397 . S
C215 C216 1.394 . S
C215 C234 1.723 1_554 S
C216 C213 1.396 . S
C216 C215 1.394 . S
C216 C246 1.723 . S
H217 C240 0.947 . S
H218 C241 0.948 . S
H219 C247 0.982 . S
H220 C248 0.979 . S
H221 C248 0.980 . S
H222 C248 0.983 . S
H223 C247 0.979 . S
H224 C247 0.977 . S
C225 C213 1.453 . S
C225 H254 0.982 . S
C225 H255 0.979 . S
C225 H256 0.977 . S
C226 C213 1.684 . S
C226 H251 0.979 . S
C226 H252 0.980 . S
C226 H253 0.983 . S
C227 C228 1.391 . S
C227 C232 1.391 . S
C227 H257 0.948 . S
C228 C227 1.391 . S
C228 C229 1.391 . S
C229 C228 1.391 . S
C229 C230 1.392 . S
C229 H258 0.947 . S
C230 C229 1.392 . S
C230 C231 1.419 . S
C230 H259 0.948 . S
C231 C230 1.419 . S
C231 C232 1.391 . S
C231 C235 1.397 . S
C232 C227 1.391 . S
C232 C231 1.391 . S
C232 C233 1.399 . S
C233 C232 1.399 . S
C233 C234 1.396 . S
C233 C236 1.453 . S
C233 C237 1.684 . S
C234 C215 1.723 1_556 S
C234 C233 1.396 . S
C234 C235 1.394 . S
C235 C231 1.397 . S
C235 C234 1.394 . S
C235 C245 1.723 . S
C236 C233 1.453 . S
C236 H260 0.982 . S
C236 H261 0.979 . S
C236 H262 0.977 1_556 S
C237 C233 1.684 . S
C237 H263 0.979 . S
C237 H264 0.980 1_556 S
C237 H265 0.983 . S
C238 H214 0.948 . S
C238 C239 1.391 1_556 S
C238 C243 1.391 . S
C239 C238 1.391 1_554 S
C239 C240 1.391 . S
C240 H217 0.947 . S
C240 C239 1.391 . S
C240 C241 1.392 . S
C241 H218 0.948 . S
C241 C240 1.392 . S
C241 C242 1.419 . S
C242 C241 1.419 . S
C242 C243 1.391 1_554 S
C242 C246 1.397 . S
C243 C238 1.391 . S
C243 C242 1.391 1_556 S
C243 C244 1.399 . S
C244 C243 1.399 . S
C244 C245 1.396 . S
C244 C247 1.453 . S
C244 C248 1.684 . S
C245 C235 1.723 . S
C245 C244 1.396 . S
C245 C246 1.394 1_556 S
C246 C216 1.723 . S
C246 C242 1.397 . S
C246 C245 1.394 1_554 S
C247 H219 0.982 . S
C247 H223 0.979 . S
C247 H224 0.977 . S
C247 C244 1.453 . S
C248 H220 0.979 . S
C248 H221 0.980 . S
C248 H222 0.983 . S
C248 C244 1.684 . S
H249 C267 0.948 . S
H250 C208 0.948 . S
H251 C226 0.979 . S
H252 C226 0.980 . S
H253 C226 0.983 . S
H254 C225 0.982 . S
H255 C225 0.979 . S
H256 C225 0.977 . S
H257 C227 0.948 . S
H258 C229 0.947 . S
H259 C230 0.948 . S
H260 C236 0.982 . S
H261 C236 0.979 . S
H262 C236 0.977 1_554 S
H263 C237 0.979 . S
H264 C237 0.980 1_554 S
H265 C237 0.983 . S
H266 C210 0.947 . S
C267 C210 1.392 . S
C267 C211 1.419 . S
C267 H249 0.948 . S
C268 C269 1.391 . S
C268 C272 1.391 . S
C268 H310 0.948 . S
C269 C268 1.391 . S
C269 C270 1.391 . S
C270 C269 1.391 . S
C270 H326 0.947 . S
C270 C327 1.392 . S
C271 C272 1.391 . S
C271 C275 1.397 . S
C271 C327 1.419 . S
C272 C268 1.391 . S
C272 C271 1.391 . S
C272 C273 1.399 . S
C273 C272 1.399 . S
C273 C276 1.396 . S
C273 C285 1.453 . S
C273 C286 1.684 . S
H274 C298 0.948 . S
C275 C271 1.397 . S
C275 C276 1.394 . S
C275 C294 1.723 . S
C276 C273 1.396 . S
C276 C275 1.394 . S
C276 C306 1.723 . S
H277 C300 0.947 . S
H278 C301 0.948 . S
H279 C307 0.982 . S
H280 C308 0.979 . S
H281 C308 0.982 . S
H282 C308 0.983 . S
H283 C307 0.979 . S
H284 C307 0.977 . S
C285 C273 1.453 . S
C285 H314 0.982 . S
C285 H315 0.979 . S
C285 H316 0.977 1_455 S
C286 C273 1.684 . S
C286 H311 0.979 . S
C286 H312 0.980 1_455 S
C286 H313 0.983 . S
C287 C288 1.391 . S
C287 C292 1.391 . S
C287 H317 0.948 . S
C288 C287 1.391 . S
C288 C289 1.391 . S
C289 C288 1.391 . S
C289 C290 1.392 . S
C289 H318 0.947 . S
C290 C289 1.392 . S
C290 C291 1.419 . S
C290 H319 0.948 . S
C291 C290 1.419 . S
C291 C292 1.391 . S
C291 C295 1.397 . S
C292 C287 1.391 . S
C292 C291 1.391 . S
C292 C293 1.399 . S
C293 C292 1.399 . S
C293 C294 1.396 . S
C293 C296 1.453 . S
C293 C297 1.684 . S
C294 C275 1.723 . S
C294 C293 1.396 . S
C294 C295 1.394 . S
C295 C291 1.397 . S
C295 C294 1.394 . S
C295 C305 1.723 . S
C296 C293 1.453 . S
C296 H320 0.982 . S
C296 H321 0.979 . S
C296 H322 0.977 . S
C297 C293 1.684 . S
C297 H323 0.979 . S
C297 H324 0.980 . S
C297 H325 0.983 . S
C298 H274 0.948 . S
C298 C299 1.391 . S
C298 C303 1.391 . S
C299 C298 1.391 . S
C299 C300 1.391 . S
C300 H277 0.947 . S
C300 C299 1.391 . S
C300 C301 1.392 . S
C301 H278 0.948 . S
C301 C300 1.392 . S
C301 C302 1.419 . S
C302 C301 1.419 . S
C302 C303 1.391 . S
C302 C306 1.397 1_655 S
C303 C298 1.391 . S
C303 C302 1.391 . S
C303 C304 1.399 . S
C304 C303 1.399 . S
C304 C305 1.396 1_655 S
C304 C307 1.453 . S
C304 C308 1.684 . S
C305 C295 1.723 . S
C305 C304 1.396 1_455 S
C305 C306 1.394 . S
C306 C276 1.723 . S
C306 C302 1.397 1_455 S
C306 C305 1.394 . S
C307 H279 0.982 . S
C307 H283 0.979 . S
C307 H284 0.977 . S
C307 C304 1.453 . S
C308 H280 0.979 . S
C308 H281 0.982 . S
C308 H282 0.983 . S
C308 C304 1.684 . S
H309 C327 0.948 . S
H310 C268 0.948 . S
H311 C286 0.979 . S
H312 C286 0.980 1_655 S
H313 C286 0.983 . S
H314 C285 0.982 . S
H315 C285 0.979 . S
H316 C285 0.977 1_655 S
H317 C287 0.948 . S
H318 C289 0.947 . S
H319 C290 0.948 . S
H320 C296 0.982 . S
H321 C296 0.979 . S
H322 C296 0.977 . S
H323 C297 0.979 . S
H324 C297 0.980 . S
H325 C297 0.983 . S
H326 C270 0.947 . S
C327 C270 1.392 . S
C327 C271 1.419 . S
C327 H309 0.948 . S
C328 C329 1.391 . S
C328 C332 1.391 . S
C328 H370 0.948 . S
C329 C328 1.391 . S
C329 C330 1.391 . S
C330 C329 1.391 . S
C330 H386 0.947 . S
C330 C387 1.392 . S
C331 C332 1.391 . S
C331 C335 1.397 . S
C331 C387 1.419 . S
C332 C328 1.391 . S
C332 C331 1.391 . S
C332 C333 1.399 . S
C333 C332 1.399 . S
C333 C336 1.396 . S
C333 C345 1.453 1_565 S
C333 C346 1.684 1_565 S
H334 C358 0.948 . S
C335 C331 1.397 . S
C335 C336 1.394 . S
C335 C354 1.723 . S
C336 C333 1.396 . S
C336 C335 1.394 . S
C336 C366 1.723 1_565 S
H337 C360 0.947 . S
H338 C361 0.948 . S
H339 C367 0.982 . S
H340 C368 0.979 . S
H341 C368 0.980 . S
H342 C368 0.983 . S
H343 C367 0.979 . S
H344 C367 0.977 . S
C345 C333 1.453 1_545 S
C345 H374 0.982 . S
C345 H375 0.979 . S
C345 H376 0.977 . S
C346 C333 1.684 1_545 S
C346 H371 0.979 . S
C346 H372 0.980 . S
C346 H373 0.983 . S
C347 C348 1.391 . S
C347 C352 1.391 . S
C347 H377 0.948 . S
C348 C347 1.391 . S
C348 C349 1.391 . S
C349 C348 1.391 . S
C349 C350 1.392 . S
C349 H378 0.947 . S
C350 C349 1.392 . S
C350 C351 1.419 . S
C350 H379 0.948 . S
C351 C350 1.419 . S
C351 C352 1.391 . S
C351 C355 1.397 . S
C352 C347 1.391 . S
C352 C351 1.391 . S
C352 C353 1.399 . S
C353 C352 1.399 . S
C353 C354 1.396 . S
C353 C356 1.453 . S
C353 C357 1.684 . S
C354 C335 1.723 . S
C354 C353 1.396 . S
C354 C355 1.394 . S
C355 C351 1.397 . S
C355 C354 1.394 . S
C355 C365 1.723 1_565 S
C356 C353 1.453 . S
C356 H380 0.982 . S
C356 H381 0.979 . S
C356 H382 0.977 . S
C357 C353 1.684 . S
C357 H383 0.979 . S
C357 H384 0.980 . S
C357 H385 0.983 . S
C358 H334 0.948 . S
C358 C359 1.391 . S
C358 C363 1.391 . S
C359 C358 1.391 . S
C359 C360 1.391 . S
C360 H337 0.947 . S
C360 C359 1.391 . S
C360 C361 1.392 . S
C361 H338 0.948 . S
C361 C360 1.392 . S
C361 C362 1.419 . S
C362 C361 1.419 . S
C362 C363 1.391 . S
C362 C366 1.397 . S
C363 C358 1.391 . S
C363 C362 1.391 . S
C363 C364 1.399 . S
C364 C363 1.399 . S
C364 C365 1.396 . S
C364 C367 1.453 . S
C364 C368 1.684 . S
C365 C355 1.723 1_545 S
C365 C364 1.396 . S
C365 C366 1.394 . S
C366 C336 1.723 1_545 S
C366 C362 1.397 . S
C366 C365 1.394 . S
C367 H339 0.982 . S
C367 H343 0.979 . S
C367 H344 0.977 . S
C367 C364 1.453 . S
C368 H340 0.979 . S
C368 H341 0.980 . S
C368 H342 0.983 . S
C368 C364 1.684 . S
H369 C387 0.948 . S
H370 C328 0.948 . S
H371 C346 0.979 . S
H372 C346 0.980 . S
H373 C346 0.983 . S
H374 C345 0.982 . S
H375 C345 0.979 . S
H376 C345 0.977 . S
H377 C347 0.948 . S
H378 C349 0.947 . S
H379 C350 0.948 . S
H380 C356 0.982 . S
H381 C356 0.979 . S
H382 C356 0.977 . S
H383 C357 0.979 . S
H384 C357 0.980 . S
H385 C357 0.983 . S
H386 C330 0.947 . S
C387 C330 1.392 . S
C387 C331 1.419 . S
C387 H369 0.948 . S
C388 C389 1.391 . S
C388 C392 1.391 . S
C388 H430 0.948 . S
C389 C388 1.391 . S
C389 C390 1.391 . S
C390 C389 1.391 . S
C390 H446 0.947 . S
C390 C447 1.392 . S
C391 C392 1.391 . S
C391 C395 1.397 . S
C391 C447 1.419 . S
C392 C388 1.391 . S
C392 C391 1.391 . S
C392 C393 1.399 . S
C393 C392 1.399 . S
C393 C396 1.396 . S
C393 C405 1.453 . S
C393 C406 1.684 . S
H394 C418 0.948 . S
C395 C391 1.397 . S
C395 C396 1.394 . S
C395 C414 1.723 1_554 S
C396 C393 1.396 . S
C396 C395 1.394 . S
C396 C426 1.723 . S
H397 C420 0.947 . S
H398 C421 0.948 . S
H399 C427 0.982 . S
H400 C428 0.979 . S
H401 C428 0.980 . S
H402 C428 0.983 . S
H403 C427 0.979 . S
H404 C427 0.977 . S
C405 C393 1.453 . S
C405 H434 0.982 . S
C405 H435 0.979 . S
C405 H436 0.977 . S
C406 C393 1.684 . S
C406 H431 0.979 . S
C406 H432 0.980 . S
C406 H433 0.983 . S
C407 C408 1.391 . S
C407 C412 1.391 . S
C407 H437 0.948 . S
C408 C407 1.391 . S
C408 C409 1.391 . S
C409 C408 1.391 . S
C409 C410 1.392 . S
C409 H438 0.947 . S
C410 C409 1.392 . S
C410 C411 1.419 . S
C410 H439 0.948 . S
C411 C410 1.419 . S
C411 C412 1.391 . S
C411 C415 1.397 . S
C412 C407 1.391 . S
C412 C411 1.391 . S
C412 C413 1.399 . S
C413 C412 1.399 . S
C413 C414 1.396 . S
C413 C416 1.453 . S
C413 C417 1.684 . S
C414 C395 1.723 1_556 S
C414 C413 1.396 . S
C414 C415 1.394 . S
C415 C411 1.397 . S
C415 C414 1.394 . S
C415 C425 1.723 . S
C416 C413 1.453 . S
C416 H440 0.982 . S
C416 H441 0.979 . S
C416 H442 0.977 1_556 S
C417 C413 1.684 . S
C417 H443 0.979 . S
C417 H444 0.980 1_556 S
C417 H445 0.983 . S
C418 H394 0.948 . S
C418 C419 1.391 1_556 S
C418 C423 1.391 . S
C419 C418 1.391 1_554 S
C419 C420 1.391 . S
C420 H397 0.947 . S
C420 C419 1.391 . S
C420 C421 1.392 . S
C421 H398 0.948 . S
C421 C420 1.392 . S
C421 C422 1.419 . S
C422 C421 1.419 . S
C422 C423 1.391 1_554 S
C422 C426 1.397 . S
C423 C418 1.391 . S
C423 C422 1.391 1_556 S
C423 C424 1.399 . S
C424 C423 1.399 . S
C424 C425 1.396 . S
C424 C427 1.453 . S
C424 C428 1.684 . S
C425 C415 1.723 . S
C425 C424 1.396 . S
C425 C426 1.394 1_556 S
C426 C396 1.723 . S
C426 C422 1.397 . S
C426 C425 1.394 1_554 S
C427 H399 0.982 . S
C427 H403 0.979 . S
C427 H404 0.977 . S
C427 C424 1.453 . S
C428 H400 0.979 . S
C428 H401 0.980 . S
C428 H402 0.983 . S
C428 C424 1.684 . S
H429 C447 0.948 . S
H430 C388 0.948 . S
H431 C406 0.979 . S
H432 C406 0.980 . S
H433 C406 0.983 . S
H434 C405 0.982 . S
H435 C405 0.979 . S
H436 C405 0.977 . S
H437 C407 0.948 . S
H438 C409 0.947 . S
H439 C410 0.948 . S
H440 C416 0.982 . S
H441 C416 0.979 . S
H442 C416 0.977 1_554 S
H443 C417 0.979 . S
H444 C417 0.980 1_554 S
H445 C417 0.983 . S
H446 C390 0.947 . S
C447 C390 1.392 . S
C447 C391 1.419 . S
C447 H429 0.948 . S
C448 C449 1.391 . S
C448 C452 1.391 . S
C448 H490 0.948 . S
C449 C448 1.391 . S
C449 C450 1.391 . S
C450 C449 1.391 . S
C450 H506 0.947 . S
C450 C507 1.392 . S
C451 C452 1.391 . S
C451 C455 1.397 . S
C451 C507 1.419 . S
C452 C448 1.391 . S
C452 C451 1.391 . S
C452 C453 1.399 . S
C453 C452 1.399 . S
C453 C456 1.396 . S
C453 C465 1.453 1_545 S
C453 C466 1.684 1_545 S
H454 C478 0.948 . S
C455 C451 1.397 . S
C455 C456 1.394 . S
C455 C474 1.723 . S
C456 C453 1.396 . S
C456 C455 1.394 . S
C456 C486 1.723 1_545 S
H457 C480 0.947 . S
H458 C481 0.948 . S
H459 C487 0.982 . S
H460 C488 0.979 . S
H461 C488 0.980 . S
H462 C488 0.983 . S
H463 C487 0.979 . S
H464 C487 0.977 . S
C465 C453 1.453 1_565 S
C465 H494 0.982 1_565 S
C465 H495 0.979 . S
C465 H496 0.977 . S
C466 C453 1.684 1_565 S
C466 H491 0.979 . S
C466 H492 0.980 . S
C466 H493 0.983 . S
C467 C468 1.391 . S
C467 C472 1.391 . S
C467 H497 0.948 . S
C468 C467 1.391 . S
C468 C469 1.391 . S
C469 C468 1.391 . S
C469 C470 1.392 . S
C469 H498 0.947 . S
C470 C469 1.392 . S
C470 C471 1.419 . S
C470 H499 0.948 . S
C471 C470 1.419 . S
C471 C472 1.391 . S
C471 C475 1.397 . S
C472 C467 1.391 . S
C472 C471 1.391 . S
C472 C473 1.399 . S
C473 C472 1.399 . S
C473 C474 1.396 . S
C473 C476 1.453 . S
C473 C477 1.684 . S
C474 C455 1.723 . S
C474 C473 1.396 . S
C474 C475 1.394 . S
C475 C471 1.397 . S
C475 C474 1.394 . S
C475 C485 1.723 1_545 S
C476 C473 1.453 . S
C476 H500 0.982 . S
C476 H501 0.979 . S
C476 H502 0.977 . S
C477 C473 1.684 . S
C477 H503 0.979 . S
C477 H504 0.980 . S
C477 H505 0.983 . S
C478 H454 0.948 . S
C478 C479 1.391 . S
C478 C483 1.391 . S
C479 C478 1.391 . S
C479 C480 1.391 . S
C480 H457 0.947 . S
C480 C479 1.391 . S
C480 C481 1.392 . S
C481 H458 0.948 . S
C481 C480 1.392 . S
C481 C482 1.419 . S
C482 C481 1.419 . S
C482 C483 1.391 . S
C482 C486 1.397 . S
C483 C478 1.391 . S
C483 C482 1.391 . S
C483 C484 1.399 . S
C484 C483 1.399 . S
C484 C485 1.396 . S
C484 C487 1.453 . S
C484 C488 1.684 . S
C485 C475 1.723 1_565 S
C485 C484 1.396 . S
C485 C486 1.394 . S
C486 C456 1.723 1_565 S
C486 C482 1.397 . S
C486 C485 1.394 . S
C487 H459 0.982 . S
C487 H463 0.979 . S
C487 H464 0.977 . S
C487 C484 1.453 . S
C488 H460 0.979 . S
C488 H461 0.980 . S
C488 H462 0.983 . S
C488 C484 1.684 . S
H489 C507 0.948 . S
H490 C448 0.948 . S
H491 C466 0.979 . S
H492 C466 0.980 . S
H493 C466 0.983 . S
H494 C465 0.982 1_545 S
H495 C465 0.979 . S
H496 C465 0.977 . S
H497 C467 0.948 . S
H498 C469 0.947 . S
H499 C470 0.948 . S
H500 C476 0.982 . S
H501 C476 0.979 . S
H502 C476 0.977 . S
H503 C477 0.979 . S
H504 C477 0.980 . S
H505 C477 0.983 . S
H506 C450 0.947 . S
C507 C450 1.392 . S
C507 C451 1.419 . S
C507 H489 0.948 . S
C508 C509 1.391 1_554 S
C508 C512 1.391 . S
C508 H550 0.948 . S
C509 C508 1.391 1_556 S
C509 C510 1.391 . S
C510 C509 1.391 . S
C510 H566 0.947 . S
C510 C567 1.392 . S
C511 C512 1.391 1_556 S
C511 C515 1.397 . S
C511 C567 1.419 . S
C512 C508 1.391 . S
C512 C511 1.391 1_554 S
C512 C513 1.399 . S
C513 C512 1.399 . S
C513 C516 1.396 . S
C513 C525 1.453 . S
C513 C526 1.684 . S
H514 C538 0.948 . S
C515 C511 1.397 . S
C515 C516 1.394 1_556 S
C515 C534 1.723 . S
C516 C513 1.396 . S
C516 C515 1.394 1_554 S
C516 C546 1.723 . S
H517 C540 0.947 . S
H518 C541 0.948 . S
H519 C547 0.982 . S
H520 C548 0.979 . S
H521 C548 0.980 1_556 S
H522 C548 0.983 . S
H523 C547 0.979 . S
H524 C547 0.977 1_556 S
C525 C513 1.453 . S
C525 H554 0.982 . S
C525 H555 0.979 . S
C525 H556 0.977 . S
C526 C513 1.684 . S
C526 H551 0.979 . S
C526 H552 0.980 . S
C526 H553 0.983 . S
C527 C528 1.391 . S
C527 C532 1.391 . S
C527 H557 0.948 . S
C528 C527 1.391 . S
C528 C529 1.391 . S
C529 C528 1.391 . S
C529 C530 1.392 . S
C529 H558 0.947 . S
C530 C529 1.392 . S
C530 C531 1.419 . S
C530 H559 0.948 . S
C531 C530 1.419 . S
C531 C532 1.391 . S
C531 C535 1.397 . S
C532 C527 1.391 . S
C532 C531 1.391 . S
C532 C533 1.399 . S
C533 C532 1.399 . S
C533 C534 1.396 . S
C533 C536 1.453 . S
C533 C537 1.684 . S
C534 C515 1.723 . S
C534 C533 1.396 . S
C534 C535 1.394 . S
C535 C531 1.397 . S
C535 C534 1.394 . S
C535 C545 1.723 1_556 S
C536 C533 1.453 . S
C536 H560 0.982 . S
C536 H561 0.979 . S
C536 H562 0.977 . S
C537 C533 1.684 . S
C537 H563 0.979 . S
C537 H564 0.980 . S
C537 H565 0.983 . S
C538 H514 0.948 . S
C538 C539 1.391 . S
C538 C543 1.391 . S
C539 C538 1.391 . S
C539 C540 1.391 . S
C540 H517 0.947 . S
C540 C539 1.391 . S
C540 C541 1.392 . S
C541 H518 0.948 . S
C541 C540 1.392 . S
C541 C542 1.419 . S
C542 C541 1.419 . S
C542 C543 1.391 . S
C542 C546 1.397 . S
C543 C538 1.391 . S
C543 C542 1.391 . S
C543 C544 1.399 . S
C544 C543 1.399 . S
C544 C545 1.396 . S
C544 C547 1.453 . S
C544 C548 1.684 . S
C545 C535 1.723 1_554 S
C545 C544 1.396 . S
C545 C546 1.394 . S
C546 C516 1.723 . S
C546 C542 1.397 . S
C546 C545 1.394 . S
C547 H519 0.982 . S
C547 H523 0.979 . S
C547 H524 0.977 1_554 S
C547 C544 1.453 . S
C548 H520 0.979 . S
C548 H521 0.980 1_554 S
C548 H522 0.983 . S
C548 C544 1.684 . S
H549 C567 0.948 . S
H550 C508 0.948 . S
H551 C526 0.979 . S
H552 C526 0.980 . S
H553 C526 0.983 . S
H554 C525 0.982 . S
H555 C525 0.979 . S
H556 C525 0.977 . S
H557 C527 0.948 . S
H558 C529 0.947 . S
H559 C530 0.948 . S
H560 C536 0.982 . S
H561 C536 0.979 . S
H562 C536 0.977 . S
H563 C537 0.979 . S
H564 C537 0.980 . S
H565 C537 0.983 . S
H566 C510 0.947 . S
C567 C510 1.392 . S
C567 C511 1.419 . S
C567 H549 0.948 . S
H568 C576 0.929 . S
H569 C578 0.930 . S
H570 C580 0.930 . S
H571 C583 0.929 . S
H572 C586 0.930 . S
H573 C588 0.960 . S
H574 C588 0.960 . S
H575 C588 0.960 . S
C576 H568 0.929 . S
C576 C577 1.377 . S
C576 C578 1.384 . S
C577 C576 1.377 . S
C577 C583 1.390 . S
C578 H569 0.930 . S
C578 C576 1.384 . S
C578 C579 1.372 . S
C579 C578 1.372 . S
C579 C580 1.400 . S
C579 C584 1.490 . S
C580 H570 0.930 . S
C580 C579 1.400 . S
C580 C583 1.386 . S
H581 C597 0.930 . S
H582 C598 0.931 . S
C583 H571 0.929 . S
C583 C577 1.390 . S
C583 C580 1.386 . S
C584 C579 1.490 . S
C584 C586 1.395 . S
C584 C587 1.403 . S
H585 C591 0.930 . S
C586 H572 0.930 . S
C586 C584 1.395 . S
C586 C589 1.403 . S
C587 C584 1.403 . S
C587 C588 1.524 . S
C587 C591 1.400 . S
C588 H573 0.960 . S
C588 H574 0.960 . S
C588 H575 0.960 . S
C588 C587 1.524 . S
C589 C586 1.403 . S
C589 C590 1.392 . S
C589 C593 1.495 . S
C590 C589 1.392 . S
C590 C591 1.385 . S
C590 C592 1.478 . S
C591 H585 0.930 . S
C591 C587 1.400 . S
C591 C590 1.385 . S
C592 C590 1.478 . S
C592 C594 1.381 . S
C592 C598 1.383 . S
C593 C589 1.495 . S
C593 H599 0.959 . S
C593 H600 0.961 . S
C593 H601 0.960 . S
C594 C592 1.381 . S
C594 C595 1.394 . S
C594 H602 0.930 . S
C595 C594 1.394 . S
C595 C596 1.383 . S
C595 H603 0.929 . S
C596 C595 1.383 . S
C596 C597 1.377 . S
C597 H581 0.930 . S
C597 C596 1.377 . S
C597 C598 1.379 . S
C598 H582 0.931 . S
C598 C592 1.383 . S
C598 C597 1.379 . S
H599 C593 0.959 . S
H600 C593 0.961 . S
H601 C593 0.960 . S
H602 C594 0.930 . S
H603 C595 0.929 . S
H604 C612 0.929 . S
H605 C614 0.930 . S
H606 C616 0.930 . S
H607 C619 0.929 . S
H608 C622 0.930 . S
H609 C624 0.960 . S
H610 C624 0.960 . S
H611 C624 0.960 . S
C612 H604 0.929 . S
C612 C613 1.377 . S
C612 C614 1.384 . S
C613 C612 1.377 . S
C613 C619 1.390 . S
C614 H605 0.930 . S
C614 C612 1.384 . S
C614 C615 1.372 . S
C615 C614 1.372 . S
C615 C616 1.400 . S
C615 C620 1.490 . S
C616 H606 0.930 . S
C616 C615 1.400 . S
C616 C619 1.386 . S
H617 C633 0.930 . S
H618 C634 0.931 . S
C619 H607 0.929 . S
C619 C613 1.390 . S
C619 C616 1.386 . S
C620 C615 1.490 . S
C620 C622 1.395 . S
C620 C623 1.403 . S
H621 C627 0.930 . S
C622 H608 0.930 . S
C622 C620 1.395 . S
C622 C625 1.403 . S
C623 C620 1.403 . S
C623 C624 1.524 . S
C623 C627 1.400 . S
C624 H609 0.960 . S
C624 H610 0.960 . S
C624 H611 0.960 . S
C624 C623 1.524 . S
C625 C622 1.403 . S
C625 C626 1.392 . S
C625 C629 1.495 . S
C626 C625 1.392 . S
C626 C627 1.385 . S
C626 C628 1.478 . S
C627 H621 0.930 . S
C627 C623 1.400 . S
C627 C626 1.385 . S
C628 C626 1.478 . S
C628 C630 1.381 . S
C628 C634 1.383 . S
C629 C625 1.495 . S
C629 H635 0.959 . S
C629 H636 0.961 . S
C629 H637 0.960 . S
C630 C628 1.381 . S
C630 C631 1.394 . S
C630 H638 0.930 . S
C631 C630 1.394 . S
C631 C632 1.383 . S
C631 H639 0.929 . S
C632 C631 1.383 . S
C632 C633 1.377 . S
C633 H617 0.930 . S
C633 C632 1.377 . S
C633 C634 1.379 . S
C634 H618 0.931 . S
C634 C628 1.383 . S
C634 C633 1.379 . S
H635 C629 0.959 . S
H636 C629 0.961 . S
H637 C629 0.960 . S
H638 C630 0.930 . S
H639 C631 0.929 . S
H640 C648 0.929 . S
H641 C650 0.930 . S
H642 C652 0.930 . S
H643 C655 0.929 . S
H644 C658 0.930 . S
H645 C660 0.960 . S
H646 C660 0.960 . S
H647 C660 0.960 . S
C648 H640 0.929 . S
C648 C649 1.377 . S
C648 C650 1.384 . S
C649 C648 1.377 . S
C649 C655 1.390 . S
C650 H641 0.930 . S
C650 C648 1.384 . S
C650 C651 1.372 . S
C651 C650 1.372 . S
C651 C652 1.400 . S
C651 C656 1.490 . S
C652 H642 0.930 . S
C652 C651 1.400 . S
C652 C655 1.386 . S
H653 C669 0.930 . S
H654 C670 0.931 . S
C655 H643 0.929 . S
C655 C649 1.390 . S
C655 C652 1.386 . S
C656 C651 1.490 . S
C656 C658 1.395 . S
C656 C659 1.403 . S
H657 C663 0.930 . S
C658 H644 0.930 . S
C658 C656 1.395 . S
C658 C661 1.403 . S
C659 C656 1.403 . S
C659 C660 1.524 . S
C659 C663 1.400 . S
C660 H645 0.960 . S
C660 H646 0.960 . S
C660 H647 0.960 . S
C660 C659 1.524 . S
C661 C658 1.403 . S
C661 C662 1.392 . S
C661 C665 1.495 . S
C662 C661 1.392 . S
C662 C663 1.385 . S
C662 C664 1.478 . S
C663 H657 0.930 . S
C663 C659 1.400 . S
C663 C662 1.385 . S
C664 C662 1.478 . S
C664 C666 1.381 . S
C664 C670 1.383 . S
C665 C661 1.495 . S
C665 H671 0.959 . S
C665 H672 0.961 . S
C665 H673 0.960 . S
C666 C664 1.381 . S
C666 C667 1.394 . S
C666 H674 0.930 . S
C667 C666 1.394 . S
C667 C668 1.383 . S
C667 H675 0.929 . S
C668 C667 1.383 . S
C668 C669 1.377 . S
C669 H653 0.930 . S
C669 C668 1.377 . S
C669 C670 1.379 . S
C670 H654 0.931 . S
C670 C664 1.383 . S
C670 C669 1.379 . S
H671 C665 0.959 . S
H672 C665 0.961 . S
H673 C665 0.960 . S
H674 C666 0.930 . S
H675 C667 0.929 . S
H676 C684 0.929 . S
H677 C686 0.930 . S
H678 C688 0.930 . S
H679 C691 0.929 . S
H680 C694 0.930 . S
H681 C696 0.960 . S
H682 C696 0.960 . S
H683 C696 0.960 . S
C684 H676 0.929 . S
C684 C685 1.377 . S
C684 C686 1.384 . S
C685 C684 1.377 . S
C685 C691 1.390 . S
C686 H677 0.930 . S
C686 C684 1.384 . S
C686 C687 1.372 . S
C687 C686 1.372 . S
C687 C688 1.400 . S
C687 C692 1.490 . S
C688 H678 0.930 . S
C688 C687 1.400 . S
C688 C691 1.386 . S
H689 C705 0.930 . S
H690 C706 0.931 . S
C691 H679 0.929 . S
C691 C685 1.390 . S
C691 C688 1.386 . S
C692 C687 1.490 . S
C692 C694 1.395 . S
C692 C695 1.403 . S
H693 C699 0.930 . S
C694 H680 0.930 . S
C694 C692 1.395 . S
C694 C697 1.403 . S
C695 C692 1.403 . S
C695 C696 1.524 . S
C695 C699 1.400 . S
C696 H681 0.960 . S
C696 H682 0.960 . S
C696 H683 0.960 . S
C696 C695 1.524 . S
C697 C694 1.403 . S
C697 C698 1.392 . S
C697 C701 1.495 . S
C698 C697 1.392 . S
C698 C699 1.385 . S
C698 C700 1.478 . S
C699 H693 0.930 . S
C699 C695 1.400 . S
C699 C698 1.385 . S
C700 C698 1.478 . S
C700 C702 1.381 . S
C700 C706 1.383 . S
C701 C697 1.495 . S
C701 H707 0.959 . S
C701 H708 0.961 . S
C701 H709 0.960 . S
C702 C700 1.381 . S
C702 C703 1.394 . S
C702 H710 0.930 . S
C703 C702 1.394 . S
C703 C704 1.383 . S
C703 H711 0.929 . S
C704 C703 1.383 . S
C704 C705 1.377 . S
C705 H689 0.930 . S
C705 C704 1.377 . S
C705 C706 1.379 . S
C706 H690 0.931 . S
C706 C700 1.383 . S
C706 C705 1.379 . S
H707 C701 0.959 . S
H708 C701 0.961 . S
H709 C701 0.960 . S
H710 C702 0.930 . S
H711 C703 0.929 . S
H712 C720 0.929 . S
H713 C722 0.930 . S
H714 C724 0.930 . S
H715 C727 0.929 . S
H716 C730 0.930 . S
H717 C732 0.960 . S
H718 C732 0.960 . S
H719 C732 0.960 . S
C720 H712 0.929 . S
C720 C721 1.377 . S
C720 C722 1.384 . S
C721 C720 1.377 . S
C721 C727 1.390 . S
C722 H713 0.930 . S
C722 C720 1.384 . S
C722 C723 1.372 . S
C723 C722 1.372 . S
C723 C724 1.400 . S
C723 C728 1.490 . S
C724 H714 0.930 . S
C724 C723 1.400 . S
C724 C727 1.386 . S
H725 C741 0.930 . S
H726 C742 0.931 . S
C727 H715 0.929 . S
C727 C721 1.390 . S
C727 C724 1.386 . S
C728 C723 1.490 . S
C728 C730 1.395 . S
C728 C731 1.403 . S
H729 C735 0.930 . S
C730 H716 0.930 . S
C730 C728 1.395 . S
C730 C733 1.403 . S
C731 C728 1.403 . S
C731 C732 1.524 . S
C731 C735 1.400 . S
C732 H717 0.960 . S
C732 H718 0.960 . S
C732 H719 0.960 . S
C732 C731 1.524 . S
C733 C730 1.403 . S
C733 C734 1.392 . S
C733 C737 1.495 . S
C734 C733 1.392 . S
C734 C735 1.385 . S
C734 C736 1.478 . S
C735 H729 0.930 . S
C735 C731 1.400 . S
C735 C734 1.385 . S
C736 C734 1.478 . S
C736 C738 1.381 . S
C736 C742 1.383 . S
C737 C733 1.495 . S
C737 H743 0.959 . S
C737 H744 0.961 . S
C737 H745 0.960 . S
C738 C736 1.381 . S
C738 C739 1.394 . S
C738 H746 0.930 . S
C739 C738 1.394 . S
C739 C740 1.383 . S
C739 H747 0.929 . S
C740 C739 1.383 . S
C740 C741 1.377 . S
C741 H725 0.930 . S
C741 C740 1.377 . S
C741 C742 1.379 . S
C742 H726 0.931 . S
C742 C736 1.383 . S
C742 C741 1.379 . S
H743 C737 0.959 . S
H744 C737 0.961 . S
H745 C737 0.960 . S
H746 C738 0.930 . S
H747 C739 0.929 . S
H748 C756 0.929 . S
H749 C758 0.930 . S
H750 C760 0.930 . S
H751 C763 0.929 . S
H752 C766 0.930 . S
H753 C768 0.960 . S
H754 C768 0.960 . S
H755 C768 0.960 . S
C756 H748 0.929 . S
C756 C757 1.377 . S
C756 C758 1.384 . S
C757 C756 1.377 . S
C757 C763 1.390 . S
C758 H749 0.930 . S
C758 C756 1.384 . S
C758 C759 1.372 . S
C759 C758 1.372 . S
C759 C760 1.400 . S
C759 C764 1.490 . S
C760 H750 0.930 . S
C760 C759 1.400 . S
C760 C763 1.386 . S
H761 C777 0.930 . S
H762 C778 0.931 . S
C763 H751 0.929 . S
C763 C757 1.390 . S
C763 C760 1.386 . S
C764 C759 1.490 . S
C764 C766 1.395 . S
C764 C767 1.403 . S
H765 C771 0.930 . S
C766 H752 0.930 . S
C766 C764 1.395 . S
C766 C769 1.403 . S
C767 C764 1.403 . S
C767 C768 1.524 . S
C767 C771 1.400 . S
C768 H753 0.960 . S
C768 H754 0.960 . S
C768 H755 0.960 . S
C768 C767 1.524 . S
C769 C766 1.403 . S
C769 C770 1.392 . S
C769 C773 1.495 . S
C770 C769 1.392 . S
C770 C771 1.385 . S
C770 C772 1.478 . S
C771 H765 0.930 . S
C771 C767 1.400 . S
C771 C770 1.385 . S
C772 C770 1.478 . S
C772 C774 1.381 . S
C772 C778 1.383 . S
C773 C769 1.495 . S
C773 H779 0.959 . S
C773 H780 0.961 . S
C773 H781 0.960 . S
C774 C772 1.381 . S
C774 C775 1.394 . S
C774 H782 0.930 . S
C775 C774 1.394 . S
C775 C776 1.383 . S
C775 H783 0.929 . S
C776 C775 1.383 . S
C776 C777 1.377 . S
C777 H761 0.930 . S
C777 C776 1.377 . S
C777 C778 1.379 . S
C778 H762 0.931 . S
C778 C772 1.383 . S
C778 C777 1.379 . S
H779 C773 0.959 . S
H780 C773 0.961 . S
H781 C773 0.960 . S
H782 C774 0.930 . S
H783 C775 0.929 . S
H784 C792 0.929 . S
H785 C794 0.930 . S
H786 C796 0.930 . S
H787 C799 0.929 . S
H788 C802 0.930 . S
H789 C804 0.960 . S
H790 C804 0.960 . S
H791 C804 0.960 . S
C792 H784 0.929 . S
C792 C793 1.377 . S
C792 C794 1.384 . S
C793 C792 1.377 . S
C793 C799 1.390 . S
C794 H785 0.930 . S
C794 C792 1.384 . S
C794 C795 1.372 . S
C795 C794 1.372 . S
C795 C796 1.400 . S
C795 C800 1.490 . S
C796 H786 0.930 . S
C796 C795 1.400 . S
C796 C799 1.386 . S
H797 C813 0.930 . S
H798 C814 0.931 . S
C799 H787 0.929 . S
C799 C793 1.390 . S
C799 C796 1.386 . S
C800 C795 1.490 . S
C800 C802 1.395 . S
C800 C803 1.403 . S
H801 C807 0.930 . S
C802 H788 0.930 . S
C802 C800 1.395 . S
C802 C805 1.403 . S
C803 C800 1.403 . S
C803 C804 1.524 . S
C803 C807 1.400 . S
C804 H789 0.960 . S
C804 H790 0.960 . S
C804 H791 0.960 . S
C804 C803 1.524 . S
C805 C802 1.403 . S
C805 C806 1.392 . S
C805 C809 1.495 . S
C806 C805 1.392 . S
C806 C807 1.385 . S
C806 C808 1.478 . S
C807 H801 0.930 . S
C807 C803 1.400 . S
C807 C806 1.385 . S
C808 C806 1.478 . S
C808 C810 1.381 . S
C808 C814 1.383 . S
C809 C805 1.495 . S
C809 H815 0.959 . S
C809 H816 0.961 . S
C809 H817 0.960 . S
C810 C808 1.381 . S
C810 C811 1.394 . S
C810 H818 0.930 . S
C811 C810 1.394 . S
C811 C812 1.383 . S
C811 H819 0.929 . S
C812 C811 1.383 . S
C812 C813 1.377 . S
C813 H797 0.930 . S
C813 C812 1.377 . S
C813 C814 1.379 . S
C814 H798 0.931 . S
C814 C808 1.383 . S
C814 C813 1.379 . S
H815 C809 0.959 . S
H816 C809 0.961 . S
H817 C809 0.960 . S
H818 C810 0.930 . S
H819 C811 0.929 . S
H820 C828 0.929 . S
H821 C830 0.930 . S
H822 C832 0.930 . S
H823 C835 0.929 . S
H824 C838 0.930 . S
H825 C840 0.960 . S
H826 C840 0.960 . S
H827 C840 0.960 . S
C828 H820 0.929 . S
C828 C829 1.377 . S
C828 C830 1.384 . S
C829 C828 1.377 . S
C829 C835 1.390 . S
C830 H821 0.930 . S
C830 C828 1.384 . S
C830 C831 1.372 . S
C831 C830 1.372 . S
C831 C832 1.400 . S
C831 C836 1.490 . S
C832 H822 0.930 . S
C832 C831 1.400 . S
C832 C835 1.386 . S
H833 C849 0.930 . S
H834 C850 0.931 . S
C835 H823 0.929 . S
C835 C829 1.390 . S
C835 C832 1.386 . S
C836 C831 1.490 . S
C836 C838 1.395 . S
C836 C839 1.403 . S
H837 C843 0.930 . S
C838 H824 0.930 . S
C838 C836 1.395 . S
C838 C841 1.403 . S
C839 C836 1.403 . S
C839 C840 1.524 . S
C839 C843 1.400 . S
C840 H825 0.960 . S
C840 H826 0.960 . S
C840 H827 0.960 . S
C840 C839 1.524 . S
C841 C838 1.403 . S
C841 C842 1.392 . S
C841 C845 1.495 . S
C842 C841 1.392 . S
C842 C843 1.385 . S
C842 C844 1.478 . S
C843 H837 0.930 . S
C843 C839 1.400 . S
C843 C842 1.385 . S
C844 C842 1.478 . S
C844 C846 1.381 . S
C844 C850 1.383 . S
C845 C841 1.495 . S
C845 H851 0.959 . S
C845 H852 0.961 . S
C845 H853 0.960 . S
C846 C844 1.381 . S
C846 C847 1.394 . S
C846 H854 0.930 . S
C847 C846 1.394 . S
C847 C848 1.383 . S
C847 H855 0.929 . S
C848 C847 1.383 . S
C848 C849 1.377 . S
C849 H833 0.930 . S
C849 C848 1.377 . S
C849 C850 1.379 . S
C850 H834 0.931 . S
C850 C844 1.383 . S
C850 C849 1.379 . S
H851 C845 0.959 . S
H852 C845 0.961 . S
H853 C845 0.960 . S
H854 C846 0.930 . S
H855 C847 0.929 . S
H856 C864 0.929 . S
H857 C866 0.930 . S
H858 C868 0.930 . S
H859 C871 0.929 . S
H860 C874 0.930 . S
H861 C876 0.960 . S
H862 C876 0.960 . S
H863 C876 0.960 . S
C864 H856 0.929 . S
C864 C865 1.377 . S
C864 C866 1.384 . S
C865 C864 1.377 . S
C865 C871 1.390 . S
C866 H857 0.930 . S
C866 C864 1.384 . S
C866 C867 1.372 . S
C867 C866 1.372 . S
C867 C868 1.400 . S
C867 C872 1.490 . S
C868 H858 0.930 . S
C868 C867 1.400 . S
C868 C871 1.386 . S
H869 C885 0.930 . S
H870 C886 0.931 . S
C871 H859 0.929 . S
C871 C865 1.390 . S
C871 C868 1.386 . S
C872 C867 1.490 . S
C872 C874 1.395 . S
C872 C875 1.403 . S
H873 C879 0.930 . S
C874 H860 0.930 . S
C874 C872 1.395 . S
C874 C877 1.403 . S
C875 C872 1.403 . S
C875 C876 1.524 . S
C875 C879 1.400 . S
C876 H861 0.960 . S
C876 H862 0.960 . S
C876 H863 0.960 . S
C876 C875 1.524 . S
C877 C874 1.403 . S
C877 C878 1.392 . S
C877 C881 1.495 . S
C878 C877 1.392 . S
C878 C879 1.385 . S
C878 C880 1.478 . S
C879 H873 0.930 . S
C879 C875 1.400 . S
C879 C878 1.385 . S
C880 C878 1.478 . S
C880 C882 1.381 . S
C880 C886 1.383 . S
C881 C877 1.495 . S
C881 H887 0.959 . S
C881 H888 0.961 . S
C881 H889 0.960 . S
C882 C880 1.381 . S
C882 C883 1.394 . S
C882 H890 0.930 . S
C883 C882 1.394 . S
C883 C884 1.383 . S
C883 H891 0.929 . S
C884 C883 1.383 . S
C884 C885 1.377 . S
C885 H869 0.930 . S
C885 C884 1.377 . S
C885 C886 1.379 . S
C886 H870 0.931 . S
C886 C880 1.383 . S
C886 C885 1.379 . S
H887 C881 0.959 . S
H888 C881 0.961 . S
H889 C881 0.960 . S
H890 C882 0.930 . S
H891 C883 0.929 . S
H892 C900 0.929 . S
H893 C902 0.930 . S
H894 C904 0.930 . S
H895 C907 0.929 . S
H896 C910 0.930 . S
H897 C912 0.960 . S
H898 C912 0.960 . S
H899 C912 0.960 . S
C900 H892 0.929 . S
C900 C901 1.377 . S
C900 C902 1.384 . S
C901 C900 1.377 . S
C901 C907 1.390 . S
C902 H893 0.930 . S
C902 C900 1.384 . S
C902 C903 1.372 . S
C903 C902 1.372 . S
C903 C904 1.400 . S
C903 C908 1.490 . S
C904 H894 0.930 . S
C904 C903 1.400 . S
C904 C907 1.386 . S
H905 C921 0.930 . S
H906 C922 0.931 . S
C907 H895 0.929 . S
C907 C901 1.390 . S
C907 C904 1.386 . S
C908 C903 1.490 . S
C908 C910 1.395 . S
C908 C911 1.403 . S
H909 C915 0.930 . S
C910 H896 0.930 . S
C910 C908 1.395 . S
C910 C913 1.403 . S
C911 C908 1.403 . S
C911 C912 1.524 . S
C911 C915 1.400 . S
C912 H897 0.960 . S
C912 H898 0.960 . S
C912 H899 0.960 . S
C912 C911 1.524 . S
C913 C910 1.403 . S
C913 C914 1.392 . S
C913 C917 1.495 . S
C914 C913 1.392 . S
C914 C915 1.385 . S
C914 C916 1.478 . S
C915 H909 0.930 . S
C915 C911 1.400 . S
C915 C914 1.385 . S
C916 C914 1.478 . S
C916 C918 1.381 . S
C916 C922 1.383 . S
C917 C913 1.495 . S
C917 H923 0.959 . S
C917 H924 0.961 . S
C917 H925 0.960 . S
C918 C916 1.381 . S
C918 C919 1.394 . S
C918 H926 0.930 . S
C919 C918 1.394 . S
C919 C920 1.383 . S
C919 H927 0.929 . S
C920 C919 1.383 . S
C920 C921 1.377 . S
C921 H905 0.930 . S
C921 C920 1.377 . S
C921 C922 1.379 . S
C922 H906 0.931 . S
C922 C916 1.383 . S
C922 C921 1.379 . S
H923 C917 0.959 . S
H924 C917 0.961 . S
H925 C917 0.960 . S
H926 C918 0.930 . S
H927 C919 0.929 . S
H928 C936 0.929 . S
H929 C938 0.930 . S
H930 C940 0.930 . S
H931 C943 0.929 . S
H932 C946 0.930 . S
H933 C948 0.960 . S
H934 C948 0.960 . S
H935 C948 0.960 . S
C936 H928 0.929 . S
C936 C937 1.377 . S
C936 C938 1.384 . S
C937 C936 1.377 . S
C937 C943 1.390 . S
C938 H929 0.930 . S
C938 C936 1.384 . S
C938 C939 1.372 . S
C939 C938 1.372 . S
C939 C940 1.400 . S
C939 C944 1.490 . S
C940 H930 0.930 . S
C940 C939 1.400 . S
C940 C943 1.386 . S
H941 C957 0.930 . S
H942 C958 0.931 . S
C943 H931 0.929 . S
C943 C937 1.390 . S
C943 C940 1.386 . S
C944 C939 1.490 . S
C944 C946 1.395 . S
C944 C947 1.403 . S
H945 C951 0.930 . S
C946 H932 0.930 . S
C946 C944 1.395 . S
C946 C949 1.403 . S
C947 C944 1.403 . S
C947 C948 1.524 . S
C947 C951 1.400 . S
C948 H933 0.960 . S
C948 H934 0.960 . S
C948 H935 0.960 . S
C948 C947 1.524 . S
C949 C946 1.403 . S
C949 C950 1.392 . S
C949 C953 1.495 . S
C950 C949 1.392 . S
C950 C951 1.385 . S
C950 C952 1.478 . S
C951 H945 0.930 . S
C951 C947 1.400 . S
C951 C950 1.385 . S
C952 C950 1.478 . S
C952 C954 1.381 . S
C952 C958 1.383 . S
C953 C949 1.495 . S
C953 H959 0.959 . S
C953 H960 0.961 . S
C953 H961 0.960 . S
C954 C952 1.381 . S
C954 C955 1.394 . S
C954 H962 0.930 . S
C955 C954 1.394 . S
C955 C956 1.383 . S
C955 H963 0.929 . S
C956 C955 1.383 . S
C956 C957 1.377 . S
C957 H941 0.930 . S
C957 C956 1.377 . S
C957 C958 1.379 . S
C958 H942 0.931 . S
C958 C952 1.383 . S
C958 C957 1.379 . S
H959 C953 0.959 . S
H960 C953 0.961 . S
H961 C953 0.960 . S
H962 C954 0.930 . S
H963 C955 0.929 . S
H964 C972 0.929 . S
H965 C974 0.930 . S
H966 C976 0.930 . S
H967 C979 0.929 . S
H968 C982 0.930 . S
H969 C984 0.960 . S
H970 C984 0.960 . S
H971 C984 0.960 . S
C972 H964 0.929 . S
C972 C973 1.377 . S
C972 C974 1.384 . S
C973 C972 1.377 . S
C973 C979 1.390 . S
C974 H965 0.930 . S
C974 C972 1.384 . S
C974 C975 1.372 . S
C975 C974 1.372 . S
C975 C976 1.400 . S
C975 C980 1.490 . S
C976 H966 0.930 . S
C976 C975 1.400 . S
C976 C979 1.386 . S
H977 C993 0.930 . S
H978 C994 0.931 . S
C979 H967 0.929 . S
C979 C973 1.390 . S
C979 C976 1.386 . S
C980 C975 1.490 . S
C980 C982 1.395 . S
C980 C983 1.403 . S
H981 C987 0.930 . S
C982 H968 0.930 . S
C982 C980 1.395 . S
C982 C985 1.403 . S
C983 C980 1.403 . S
C983 C984 1.524 . S
C983 C987 1.400 . S
C984 H969 0.960 . S
C984 H970 0.960 . S
C984 H971 0.960 . S
C984 C983 1.524 . S
C985 C982 1.403 . S
C985 C986 1.392 . S
C985 C989 1.495 . S
C986 C985 1.392 . S
C986 C987 1.385 . S
C986 C988 1.478 . S
C987 H981 0.930 . S
C987 C983 1.400 . S
C987 C986 1.385 . S
C988 C986 1.478 . S
C988 C990 1.381 . S
C988 C994 1.383 . S
C989 C985 1.495 . S
C989 H995 0.959 . S
C989 H996 0.961 . S
C989 H997 0.960 . S
C990 C988 1.381 . S
C990 C991 1.394 . S
C990 H998 0.930 . S
C991 C990 1.394 . S
C991 C992 1.383 . S
C991 H999 0.929 . S
C992 C991 1.383 . S
C992 C993 1.377 . S
C993 H977 0.930 . S
C993 C992 1.377 . S
C993 C994 1.379 . S
C994 H978 0.931 . S
C994 C988 1.383 . S
C994 C993 1.379 . S
H995 C989 0.959 . S
H996 C989 0.961 . S
H997 C989 0.960 . S
H998 C990 0.930 . S
H999 C991 0.929 . S
H1000 C1008 0.929 . S
H1001 C1010 0.930 . S
H1002 C1012 0.930 . S
H1003 C1015 0.929 . S
H1004 C1018 0.930 . S
H1005 C1020 0.960 . S
H1006 C1020 0.960 . S
H1007 C1020 0.960 . S
C1008 H1000 0.929 . S
C1008 C1009 1.377 . S
C1008 C1010 1.384 . S
C1009 C1008 1.377 . S
C1009 C1015 1.390 . S
C1010 H1001 0.930 . S
C1010 C1008 1.384 . S
C1010 C1011 1.372 . S
C1011 C1010 1.372 . S
C1011 C1012 1.400 . S
C1011 C1016 1.490 . S
C1012 H1002 0.930 . S
C1012 C1011 1.400 . S
C1012 C1015 1.386 . S
H1013 C1029 0.930 . S
H1014 C1030 0.931 . S
C1015 H1003 0.929 . S
C1015 C1009 1.390 . S
C1015 C1012 1.386 . S
C1016 C1011 1.490 . S
C1016 C1018 1.395 . S
C1016 C1019 1.403 . S
H1017 C1023 0.930 . S
C1018 H1004 0.930 . S
C1018 C1016 1.395 . S
C1018 C1021 1.403 . S
C1019 C1016 1.403 . S
C1019 C1020 1.524 . S
C1019 C1023 1.400 . S
C1020 H1005 0.960 . S
C1020 H1006 0.960 . S
C1020 H1007 0.960 . S
C1020 C1019 1.524 . S
C1021 C1018 1.403 . S
C1021 C1022 1.392 . S
C1021 C1025 1.495 . S
C1022 C1021 1.392 . S
C1022 C1023 1.385 . S
C1022 C1024 1.478 . S
C1023 H1017 0.930 . S
C1023 C1019 1.400 . S
C1023 C1022 1.385 . S
C1024 C1022 1.478 . S
C1024 C1026 1.381 . S
C1024 C1030 1.383 . S
C1025 C1021 1.495 . S
C1025 H1031 0.959 . S
C1025 H1032 0.961 . S
C1025 H1033 0.960 . S
C1026 C1024 1.381 . S
C1026 C1027 1.394 . S
C1026 H1034 0.930 . S
C1027 C1026 1.394 . S
C1027 C1028 1.383 . S
C1027 H1035 0.929 . S
C1028 C1027 1.383 . S
C1028 C1029 1.377 . S
C1029 H1013 0.930 . S
C1029 C1028 1.377 . S
C1029 C1030 1.379 . S
C1030 H1014 0.931 . S
C1030 C1024 1.383 . S
C1030 C1029 1.379 . S
H1031 C1025 0.959 . S
H1032 C1025 0.961 . S
H1033 C1025 0.960 . S
H1034 C1026 0.930 . S
H1035 C1027 0.929 . S
H1036 C1044 0.929 . S
H1037 C1046 0.930 . S
H1038 C1048 0.930 . S
H1039 C1051 0.929 . S
H1040 C1054 0.930 . S
H1041 C1056 0.960 . S
H1042 C1056 0.960 . S
H1043 C1056 0.960 . S
C1044 H1036 0.929 . S
C1044 C1045 1.377 . S
C1044 C1046 1.384 . S
C1045 C1044 1.377 . S
C1045 C1051 1.390 . S
C1046 H1037 0.930 . S
C1046 C1044 1.384 . S
C1046 C1047 1.372 . S
C1047 C1046 1.372 . S
C1047 C1048 1.400 . S
C1047 C1052 1.490 . S
C1048 H1038 0.930 . S
C1048 C1047 1.400 . S
C1048 C1051 1.386 . S
H1049 C1065 0.930 . S
H1050 C1066 0.931 . S
C1051 H1039 0.929 . S
C1051 C1045 1.390 . S
C1051 C1048 1.386 . S
C1052 C1047 1.490 . S
C1052 C1054 1.395 . S
C1052 C1055 1.403 . S
H1053 C1059 0.930 . S
C1054 H1040 0.930 . S
C1054 C1052 1.395 . S
C1054 C1057 1.403 . S
C1055 C1052 1.403 . S
C1055 C1056 1.524 . S
C1055 C1059 1.400 . S
C1056 H1041 0.960 . S
C1056 H1042 0.960 . S
C1056 H1043 0.960 . S
C1056 C1055 1.524 . S
C1057 C1054 1.403 . S
C1057 C1058 1.392 . S
C1057 C1061 1.495 . S
C1058 C1057 1.392 . S
C1058 C1059 1.385 . S
C1058 C1060 1.478 . S
C1059 H1053 0.930 . S
C1059 C1055 1.400 . S
C1059 C1058 1.385 . S
C1060 C1058 1.478 . S
C1060 C1062 1.381 . S
C1060 C1066 1.383 . S
C1061 C1057 1.495 . S
C1061 H1067 0.959 . S
C1061 H1068 0.961 . S
C1061 H1069 0.960 . S
C1062 C1060 1.381 . S
C1062 C1063 1.394 . S
C1062 H1070 0.930 . S
C1063 C1062 1.394 . S
C1063 C1064 1.383 . S
C1063 H1071 0.929 . S
C1064 C1063 1.383 . S
C1064 C1065 1.377 . S
C1065 H1049 0.930 . S
C1065 C1064 1.377 . S
C1065 C1066 1.379 . S
C1066 H1050 0.931 . S
C1066 C1060 1.383 . S
C1066 C1065 1.379 . S
H1067 C1061 0.959 . S
H1068 C1061 0.961 . S
H1069 C1061 0.960 . S
H1070 C1062 0.930 . S
H1071 C1063 0.929 . S
H1072 C1080 0.929 . S
H1073 C1082 0.930 . S
H1074 C1084 0.930 . S
H1075 C1087 0.929 . S
H1076 C1090 0.930 . S
H1077 C1092 0.960 . S
H1078 C1092 0.960 . S
H1079 C1092 0.960 . S
C1080 H1072 0.929 . S
C1080 C1081 1.377 . S
C1080 C1082 1.384 . S
C1081 C1080 1.377 . S
C1081 C1087 1.390 . S
C1082 H1073 0.930 . S
C1082 C1080 1.384 . S
C1082 C1083 1.372 . S
C1083 C1082 1.372 . S
C1083 C1084 1.400 . S
C1083 C1088 1.490 . S
C1084 H1074 0.930 . S
C1084 C1083 1.400 . S
C1084 C1087 1.386 . S
H1085 C1101 0.930 . S
H1086 C1102 0.931 . S
C1087 H1075 0.929 . S
C1087 C1081 1.390 . S
C1087 C1084 1.386 . S
C1088 C1083 1.490 . S
C1088 C1090 1.395 . S
C1088 C1091 1.403 . S
H1089 C1095 0.930 . S
C1090 H1076 0.930 . S
C1090 C1088 1.395 . S
C1090 C1093 1.403 . S
C1091 C1088 1.403 . S
C1091 C1092 1.524 . S
C1091 C1095 1.400 . S
C1092 H1077 0.960 . S
C1092 H1078 0.960 . S
C1092 H1079 0.960 . S
C1092 C1091 1.524 . S
C1093 C1090 1.403 . S
C1093 C1094 1.392 . S
C1093 C1097 1.495 . S
C1094 C1093 1.392 . S
C1094 C1095 1.385 . S
C1094 C1096 1.478 . S
C1095 H1089 0.930 . S
C1095 C1091 1.400 . S
C1095 C1094 1.385 . S
C1096 C1094 1.478 . S
C1096 C1098 1.381 . S
C1096 C1102 1.383 . S
C1097 C1093 1.495 . S
C1097 H1103 0.959 . S
C1097 H1104 0.961 . S
C1097 H1105 0.960 . S
C1098 C1096 1.381 . S
C1098 C1099 1.394 . S
C1098 H1106 0.930 . S
C1099 C1098 1.394 . S
C1099 C1100 1.383 . S
C1099 H1107 0.929 . S
C1100 C1099 1.383 . S
C1100 C1101 1.377 . S
C1101 H1085 0.930 . S
C1101 C1100 1.377 . S
C1101 C1102 1.379 . S
C1102 H1086 0.931 . S
C1102 C1096 1.383 . S
C1102 C1101 1.379 . S
H1103 C1097 0.959 . S
H1104 C1097 0.961 . S
H1105 C1097 0.960 . S
H1106 C1098 0.930 . S
H1107 C1099 0.929 . S
H1108 C1116 0.929 . S
H1109 C1118 0.930 . S
H1110 C1120 0.930 . S
H1111 C1123 0.929 . S
H1112 C1126 0.930 . S
H1113 C1128 0.960 . S
H1114 C1128 0.960 . S
H1115 C1128 0.960 . S
C1116 H1108 0.929 . S
C1116 C1117 1.377 . S
C1116 C1118 1.384 . S
C1117 C1116 1.377 . S
C1117 C1123 1.390 . S
C1118 H1109 0.930 . S
C1118 C1116 1.384 . S
C1118 C1119 1.372 . S
C1119 C1118 1.372 . S
C1119 C1120 1.400 . S
C1119 C1124 1.490 . S
C1120 H1110 0.930 . S
C1120 C1119 1.400 . S
C1120 C1123 1.386 . S
H1121 C1137 0.930 . S
H1122 C1138 0.931 . S
C1123 H1111 0.929 . S
C1123 C1117 1.390 . S
C1123 C1120 1.386 . S
C1124 C1119 1.490 . S
C1124 C1126 1.395 . S
C1124 C1127 1.403 . S
H1125 C1131 0.930 . S
C1126 H1112 0.930 . S
C1126 C1124 1.395 . S
C1126 C1129 1.403 . S
C1127 C1124 1.403 . S
C1127 C1128 1.524 . S
C1127 C1131 1.400 . S
C1128 H1113 0.960 . S
C1128 H1114 0.960 . S
C1128 H1115 0.960 . S
C1128 C1127 1.524 . S
C1129 C1126 1.403 . S
C1129 C1130 1.392 . S
C1129 C1133 1.495 . S
C1130 C1129 1.392 . S
C1130 C1131 1.385 . S
C1130 C1132 1.478 . S
C1131 H1125 0.930 . S
C1131 C1127 1.400 . S
C1131 C1130 1.385 . S
C1132 C1130 1.478 . S
C1132 C1134 1.381 . S
C1132 C1138 1.383 . S
C1133 C1129 1.495 . S
C1133 H1139 0.959 . S
C1133 H1140 0.961 . S
C1133 H1141 0.960 . S
C1134 C1132 1.381 . S
C1134 C1135 1.394 . S
C1134 H1142 0.930 . S
C1135 C1134 1.394 . S
C1135 C1136 1.383 . S
C1135 H1143 0.929 . S
C1136 C1135 1.383 . S
C1136 C1137 1.377 . S
C1137 H1121 0.930 . S
C1137 C1136 1.377 . S
C1137 C1138 1.379 . S
C1138 H1122 0.931 . S
C1138 C1132 1.383 . S
C1138 C1137 1.379 . S
H1139 C1133 0.959 . S
H1140 C1133 0.961 . S
H1141 C1133 0.960 . S
H1142 C1134 0.930 . S
H1143 C1135 0.929 . S
H1144 C1152 0.929 . S
H1145 C1154 0.930 . S
H1146 C1156 0.930 . S
H1147 C1159 0.929 . S
H1148 C1162 0.930 . S
H1149 C1164 0.960 . S
H1150 C1164 0.960 . S
H1151 C1164 0.960 . S
C1152 H1144 0.929 . S
C1152 C1153 1.380 . S
C1152 C1154 1.384 . S
C1153 C1152 1.380 . S
C1153 C1159 1.387 1_554 S
C1154 H1145 0.930 . S
C1154 C1152 1.384 . S
C1154 C1155 1.372 . S
C1155 C1154 1.372 . S
C1155 C1156 1.400 1_554 S
C1155 C1160 1.490 . S
C1156 H1146 0.930 . S
C1156 C1155 1.400 1_556 S
C1156 C1159 1.386 . S
H1157 C1173 0.930 . S
H1158 C1174 0.931 . S
C1159 H1147 0.929 . S
C1159 C1153 1.387 1_556 S
C1159 C1156 1.386 . S
C1160 C1155 1.490 . S
C1160 C1162 1.395 . S
C1160 C1163 1.403 1_554 S
H1161 C1167 0.930 . S
C1162 H1148 0.930 . S
C1162 C1160 1.395 . S
C1162 C1165 1.403 . S
C1163 C1160 1.403 1_556 S
C1163 C1164 1.524 . S
C1163 C1167 1.400 . S
C1164 H1149 0.960 . S
C1164 H1150 0.960 . S
C1164 H1151 0.960 . S
C1164 C1163 1.524 . S
C1165 C1162 1.403 . S
C1165 C1166 1.392 . S
C1165 C1169 1.495 . S
C1166 C1165 1.392 . S
C1166 C1167 1.385 1_554 S
C1166 C1168 1.478 . S
C1167 H1161 0.930 . S
C1167 C1163 1.400 . S
C1167 C1166 1.385 1_556 S
C1168 C1166 1.478 . S
C1168 C1170 1.381 . S
C1168 C1174 1.383 1_554 S
C1169 C1165 1.495 . S
C1169 H1175 0.959 . S
C1169 H1176 0.961 . S
C1169 H1177 0.960 . S
C1170 C1168 1.381 . S
C1170 C1171 1.394 . S
C1170 H1178 0.930 . S
C1171 C1170 1.394 . S
C1171 C1172 1.383 . S
C1171 H1179 0.929 . S
C1172 C1171 1.383 . S
C1172 C1173 1.377 1_554 S
C1173 H1157 0.930 . S
C1173 C1172 1.377 1_556 S
C1173 C1174 1.379 . S
C1174 H1158 0.931 . S
C1174 C1168 1.383 1_556 S
C1174 C1173 1.379 . S
H1175 C1169 0.959 . S
H1176 C1169 0.961 . S
H1177 C1169 0.960 . S
H1178 C1170 0.930 . S
H1179 C1171 0.929 . S
H1180 C1188 0.929 . S
H1181 C1190 0.930 . S
H1182 C1192 0.930 . S
H1183 C1195 0.929 . S
H1184 C1198 0.930 . S
H1185 C1200 0.960 . S
H1186 C1200 0.960 . S
H1187 C1200 0.960 . S
C1188 H1180 0.929 . S
C1188 C1189 1.377 . S
C1188 C1190 1.384 . S
C1189 C1188 1.377 . S
C1189 C1195 1.390 . S
C1190 H1181 0.930 . S
C1190 C1188 1.384 . S
C1190 C1191 1.372 . S
C1191 C1190 1.372 . S
C1191 C1192 1.400 . S
C1191 C1196 1.490 . S
C1192 H1182 0.930 . S
C1192 C1191 1.400 . S
C1192 C1195 1.386 . S
H1193 C1209 0.930 . S
H1194 C1210 0.931 . S
C1195 H1183 0.929 . S
C1195 C1189 1.390 . S
C1195 C1192 1.386 . S
C1196 C1191 1.490 . S
C1196 C1198 1.395 . S
C1196 C1199 1.403 . S
H1197 C1203 0.930 . S
C1198 H1184 0.930 . S
C1198 C1196 1.395 . S
C1198 C1201 1.403 . S
C1199 C1196 1.403 . S
C1199 C1200 1.524 . S
C1199 C1203 1.400 . S
C1200 H1185 0.960 . S
C1200 H1186 0.960 . S
C1200 H1187 0.960 . S
C1200 C1199 1.524 . S
C1201 C1198 1.403 . S
C1201 C1202 1.392 . S
C1201 C1205 1.495 . S
C1202 C1201 1.392 . S
C1202 C1203 1.385 . S
C1202 C1204 1.478 . S
C1203 H1197 0.930 . S
C1203 C1199 1.400 . S
C1203 C1202 1.385 . S
C1204 C1202 1.478 . S
C1204 C1206 1.381 . S
C1204 C1210 1.383 . S
C1205 C1201 1.495 . S
C1205 H1211 0.959 . S
C1205 H1212 0.961 . S
C1205 H1213 0.960 . S
C1206 C1204 1.381 . S
C1206 C1207 1.394 . S
C1206 H1214 0.930 . S
C1207 C1206 1.394 . S
C1207 C1208 1.383 . S
C1207 H1215 0.929 . S
C1208 C1207 1.383 . S
C1208 C1209 1.377 . S
C1209 H1193 0.930 . S
C1209 C1208 1.377 . S
C1209 C1210 1.379 . S
C1210 H1194 0.931 . S
C1210 C1204 1.383 . S
C1210 C1209 1.379 . S
H1211 C1205 0.959 . S
H1212 C1205 0.961 . S
H1213 C1205 0.960 . S
H1214 C1206 0.930 . S
H1215 C1207 0.929 . S
H1216 C1224 0.929 . S
H1217 C1226 0.930 . S
H1218 C1228 0.930 . S
H1219 C1231 0.929 . S
H1220 C1234 0.930 . S
H1221 C1236 0.960 . S
H1222 C1236 0.960 . S
H1223 C1236 0.960 1_554 S
C1224 H1216 0.929 . S
C1224 C1225 1.378 . S
C1224 C1226 1.384 . S
C1225 C1224 1.378 . S
C1225 C1231 1.389 1_556 S
C1226 H1217 0.930 . S
C1226 C1224 1.384 . S
C1226 C1227 1.372 . S
C1227 C1226 1.372 . S
C1227 C1228 1.400 1_556 S
C1227 C1232 1.490 . S
C1228 H1218 0.930 . S
C1228 C1227 1.400 1_554 S
C1228 C1231 1.386 . S
H1229 C1245 0.930 . S
H1230 C1246 0.931 . S
C1231 H1219 0.929 . S
C1231 C1225 1.389 1_554 S
C1231 C1228 1.386 . S
C1232 C1227 1.490 . S
C1232 C1234 1.395 1_556 S
C1232 C1235 1.403 . S
H1233 C1239 0.930 . S
C1234 H1220 0.930 . S
C1234 C1232 1.395 1_554 S
C1234 C1237 1.403 . S
C1235 C1232 1.403 . S
C1235 C1236 1.524 . S
C1235 C1239 1.400 . S
C1236 H1221 0.960 . S
C1236 H1222 0.960 . S
C1236 H1223 0.960 1_556 S
C1236 C1235 1.524 . S
C1237 C1234 1.403 . S
C1237 C1238 1.394 . S
C1237 C1241 1.495 . S
C1238 C1237 1.394 . S
C1238 C1239 1.383 1_554 S
C1238 C1240 1.478 . S
C1239 H1233 0.930 . S
C1239 C1235 1.400 . S
C1239 C1238 1.383 1_556 S
C1240 C1238 1.478 . S
C1240 C1242 1.381 1_554 S
C1240 C1246 1.383 . S
C1241 C1237 1.495 . S
C1241 H1247 0.959 . S
C1241 H1248 0.961 . S
C1241 H1249 0.960 1_554 S
C1242 C1240 1.381 1_556 S
C1242 C1243 1.394 . S
C1242 H1250 0.930 . S
C1243 C1242 1.394 . S
C1243 C1244 1.363 1_556 S
C1243 H1251 0.929 . S
C1244 C1243 1.363 1_554 S
C1244 C1245 1.397 . S
C1245 H1229 0.930 . S
C1245 C1244 1.397 . S
C1245 C1246 1.379 . S
C1246 H1230 0.931 . S
C1246 C1240 1.383 . S
C1246 C1245 1.379 . S
H1247 C1241 0.959 . S
H1248 C1241 0.961 . S
H1249 C1241 0.960 1_556 S
H1250 C1242 0.930 . S
H1251 C1243 0.929 . S
H1252 C1260 0.929 . S
H1253 C1262 0.930 . S
H1254 C1264 0.930 . S
H1255 C1267 0.929 . S
H1256 C1270 0.930 . S
H1257 C1272 0.960 . S
H1258 C1272 0.960 . S
H1259 C1272 0.960 . S
C1260 H1252 0.929 . S
C1260 C1261 1.377 . S
C1260 C1262 1.384 . S
C1261 C1260 1.377 . S
C1261 C1267 1.390 . S
C1262 H1253 0.930 . S
C1262 C1260 1.384 . S
C1262 C1263 1.372 . S
C1263 C1262 1.372 . S
C1263 C1264 1.400 . S
C1263 C1268 1.490 . S
C1264 H1254 0.930 . S
C1264 C1263 1.400 . S
C1264 C1267 1.386 . S
H1265 C1281 0.930 . S
H1266 C1282 0.931 . S
C1267 H1255 0.929 . S
C1267 C1261 1.390 . S
C1267 C1264 1.386 . S
C1268 C1263 1.490 . S
C1268 C1270 1.395 . S
C1268 C1271 1.403 . S
H1269 C1275 0.930 . S
C1270 H1256 0.930 . S
C1270 C1268 1.395 . S
C1270 C1273 1.403 . S
C1271 C1268 1.403 . S
C1271 C1272 1.524 . S
C1271 C1275 1.400 . S
C1272 H1257 0.960 . S
C1272 H1258 0.960 . S
C1272 H1259 0.960 . S
C1272 C1271 1.524 . S
C1273 C1270 1.403 . S
C1273 C1274 1.392 . S
C1273 C1277 1.495 . S
C1274 C1273 1.392 . S
C1274 C1275 1.385 . S
C1274 C1276 1.478 . S
C1275 H1269 0.930 . S
C1275 C1271 1.400 . S
C1275 C1274 1.385 . S
C1276 C1274 1.478 . S
C1276 C1278 1.381 . S
C1276 C1282 1.383 . S
C1277 C1273 1.495 . S
C1277 H1283 0.959 . S
C1277 H1284 0.961 . S
C1277 H1285 0.960 . S
C1278 C1276 1.381 . S
C1278 C1279 1.394 . S
C1278 H1286 0.930 . S
C1279 C1278 1.394 . S
C1279 C1280 1.383 . S
C1279 H1287 0.929 . S
C1280 C1279 1.383 . S
C1280 C1281 1.377 . S
C1281 H1265 0.930 . S
C1281 C1280 1.377 . S
C1281 C1282 1.379 . S
C1282 H1266 0.931 . S
C1282 C1276 1.383 . S
C1282 C1281 1.379 . S
H1283 C1277 0.959 . S
H1284 C1277 0.961 . S
H1285 C1277 0.960 . S
H1286 C1278 0.930 . S
H1287 C1279 0.929 . S
H1288 C1296 0.929 . S
H1289 C1298 0.930 . S
H1290 C1300 0.930 . S
H1291 C1303 0.929 . S
H1292 C1306 0.930 . S
H1293 C1308 0.960 . S
H1294 C1308 0.960 . S
H1295 C1308 0.960 . S
C1296 H1288 0.929 . S
C1296 C1297 1.377 . S
C1296 C1298 1.384 . S
C1297 C1296 1.377 . S
C1297 C1303 1.390 . S
C1298 H1289 0.930 . S
C1298 C1296 1.384 . S
C1298 C1299 1.372 . S
C1299 C1298 1.372 . S
C1299 C1300 1.400 . S
C1299 C1304 1.490 . S
C1300 H1290 0.930 . S
C1300 C1299 1.400 . S
C1300 C1303 1.386 . S
H1301 C1317 0.930 . S
H1302 C1318 0.931 . S
C1303 H1291 0.929 . S
C1303 C1297 1.390 . S
C1303 C1300 1.386 . S
C1304 C1299 1.490 . S
C1304 C1306 1.395 . S
C1304 C1307 1.403 . S
H1305 C1311 0.930 . S
C1306 H1292 0.930 . S
C1306 C1304 1.395 . S
C1306 C1309 1.403 . S
C1307 C1304 1.403 . S
C1307 C1308 1.524 . S
C1307 C1311 1.400 . S
C1308 H1293 0.960 . S
C1308 H1294 0.960 . S
C1308 H1295 0.960 . S
C1308 C1307 1.524 . S
C1309 C1306 1.403 . S
C1309 C1310 1.392 . S
C1309 C1313 1.495 . S
C1310 C1309 1.392 . S
C1310 C1311 1.385 . S
C1310 C1312 1.478 . S
C1311 H1305 0.930 . S
C1311 C1307 1.400 . S
C1311 C1310 1.385 . S
C1312 C1310 1.478 . S
C1312 C1314 1.381 . S
C1312 C1318 1.383 . S
C1313 C1309 1.495 . S
C1313 H1319 0.959 . S
C1313 H1320 0.961 . S
C1313 H1321 0.960 . S
C1314 C1312 1.381 . S
C1314 C1315 1.394 . S
C1314 H1322 0.930 . S
C1315 C1314 1.394 . S
C1315 C1316 1.383 . S
C1315 H1323 0.929 . S
C1316 C1315 1.383 . S
C1316 C1317 1.377 . S
C1317 H1301 0.930 . S
C1317 C1316 1.377 . S
C1317 C1318 1.379 . S
C1318 H1302 0.931 . S
C1318 C1312 1.383 . S
C1318 C1317 1.379 . S
H1319 C1313 0.959 . S
H1320 C1313 0.961 . S
H1321 C1313 0.960 . S
H1322 C1314 0.930 . S
H1323 C1315 0.929 . S
H1324 C1332 0.929 . S
H1325 C1334 0.930 . S
H1326 C1336 0.930 . S
H1327 C1339 0.929 . S
H1328 C1342 0.932 . S
H1329 C1344 0.960 . S
H1330 C1344 0.960 . S
H1331 C1344 0.960 1_556 S
C1332 H1324 0.929 . S
C1332 C1333 1.383 . S
C1332 C1334 1.384 . S
C1333 C1332 1.383 . S
C1333 C1339 1.384 1_554 S
C1334 H1325 0.930 . S
C1334 C1332 1.384 . S
C1334 C1335 1.372 . S
C1335 C1334 1.372 . S
C1335 C1336 1.400 1_554 S
C1335 C1340 1.490 . S
C1336 H1326 0.930 . S
C1336 C1335 1.400 1_556 S
C1336 C1339 1.386 . S
H1337 C1353 0.930 . S
H1338 C1354 0.931 . S
C1339 H1327 0.929 . S
C1339 C1333 1.384 1_556 S
C1339 C1336 1.386 . S
C1340 C1335 1.490 . S
C1340 C1342 1.393 1_554 S
C1340 C1343 1.403 . S
H1341 C1347 0.930 . S
C1342 H1328 0.932 . S
C1342 C1340 1.393 1_556 S
C1342 C1345 1.404 . S
C1343 C1340 1.403 . S
C1343 C1344 1.524 . S
C1343 C1347 1.400 . S
C1344 H1329 0.960 . S
C1344 H1330 0.960 . S
C1344 H1331 0.960 1_554 S
C1344 C1343 1.524 . S
C1345 C1342 1.404 . S
C1345 C1346 1.392 1_556 S
C1345 C1349 1.495 . S
C1346 C1345 1.392 1_554 S
C1346 C1347 1.386 . S
C1346 C1348 1.477 1_554 S
C1347 H1341 0.930 . S
C1347 C1343 1.400 . S
C1347 C1346 1.386 . S
C1348 C1346 1.477 1_556 S
C1348 C1350 1.370 1_556 S
C1348 C1354 1.394 . S
C1349 C1345 1.495 . S
C1349 H1355 0.959 . S
C1349 H1356 0.961 . S
C1349 H1357 0.960 1_556 S
C1350 C1348 1.370 1_554 S
C1350 C1351 1.394 . S
C1350 H1358 0.930 . S
C1351 C1350 1.394 . S
C1351 C1352 1.375 1_554 S
C1351 H1359 0.929 . S
C1352 C1351 1.375 1_556 S
C1352 C1353 1.385 . S
C1353 H1337 0.930 . S
C1353 C1352 1.385 . S
C1353 C1354 1.379 . S
C1354 H1338 0.931 . S
C1354 C1348 1.394 . S
C1354 C1353 1.379 . S
H1355 C1349 0.959 . S
H1356 C1349 0.961 . S
H1357 C1349 0.960 1_554 S
H1358 C1350 0.930 . S
H1359 C1351 0.929 . S
H1360 C1368 0.929 . S
H1361 C1370 0.930 . S
H1362 C1372 0.930 . S
H1363 C1375 0.929 . S
H1364 C1378 0.930 . S
H1365 C1380 0.960 . S
H1366 C1380 0.960 . S
H1367 C1380 0.960 . S
C1368 H1360 0.929 . S
C1368 C1369 1.377 . S
C1368 C1370 1.384 . S
C1369 C1368 1.377 . S
C1369 C1375 1.390 . S
C1370 H1361 0.930 . S
C1370 C1368 1.384 . S
C1370 C1371 1.372 . S
C1371 C1370 1.372 . S
C1371 C1372 1.400 . S
C1371 C1376 1.490 . S
C1372 H1362 0.930 . S
C1372 C1371 1.400 . S
C1372 C1375 1.386 . S
H1373 C1389 0.930 . S
H1374 C1390 0.931 . S
C1375 H1363 0.929 . S
C1375 C1369 1.390 . S
C1375 C1372 1.386 . S
C1376 C1371 1.490 . S
C1376 C1378 1.395 . S
C1376 C1379 1.403 . S
H1377 C1383 0.930 . S
C1378 H1364 0.930 . S
C1378 C1376 1.395 . S
C1378 C1381 1.403 . S
C1379 C1376 1.403 . S
C1379 C1380 1.524 . S
C1379 C1383 1.400 . S
C1380 H1365 0.960 . S
C1380 H1366 0.960 . S
C1380 H1367 0.960 . S
C1380 C1379 1.524 . S
C1381 C1378 1.403 . S
C1381 C1382 1.392 . S
C1381 C1385 1.495 . S
C1382 C1381 1.392 . S
C1382 C1383 1.385 . S
C1382 C1384 1.478 . S
C1383 H1377 0.930 . S
C1383 C1379 1.400 . S
C1383 C1382 1.385 . S
C1384 C1382 1.478 . S
C1384 C1386 1.381 . S
C1384 C1390 1.383 . S
C1385 C1381 1.495 . S
C1385 H1391 0.959 . S
C1385 H1392 0.961 . S
C1385 H1393 0.960 . S
C1386 C1384 1.381 . S
C1386 C1387 1.394 . S
C1386 H1394 0.930 . S
C1387 C1386 1.394 . S
C1387 C1388 1.383 . S
C1387 H1395 0.929 . S
C1388 C1387 1.383 . S
C1388 C1389 1.377 . S
C1389 H1373 0.930 . S
C1389 C1388 1.377 . S
C1389 C1390 1.379 . S
C1390 H1374 0.931 . S
C1390 C1384 1.383 . S
C1390 C1389 1.379 . S
H1391 C1385 0.959 . S
H1392 C1385 0.961 . S
H1393 C1385 0.960 . S
H1394 C1386 0.930 . S
H1395 C1387 0.929 . S
H1396 C1404 0.929 . S
H1397 C1406 0.930 . S
H1398 C1408 0.930 . S
H1399 C1411 0.929 . S
H1400 C1414 0.930 . S
H1401 C1416 0.960 . S
H1402 C1416 0.960 . S
H1403 C1416 0.960 . S
C1404 H1396 0.929 . S
C1404 C1405 1.382 . S
C1404 C1406 1.384 . S
C1405 C1404 1.382 . S
C1405 C1411 1.385 1_554 S
C1406 H1397 0.930 . S
C1406 C1404 1.384 . S
C1406 C1407 1.372 . S
C1407 C1406 1.372 . S
C1407 C1408 1.400 1_554 S
C1407 C1412 1.490 . S
C1408 H1398 0.930 . S
C1408 C1407 1.400 1_556 S
C1408 C1411 1.386 . S
H1409 C1425 0.930 . S
H1410 C1426 0.931 . S
C1411 H1399 0.929 . S
C1411 C1405 1.385 1_556 S
C1411 C1408 1.386 . S
C1412 C1407 1.490 . S
C1412 C1414 1.385 1_554 S
C1412 C1415 1.412 . S
H1413 C1419 0.930 . S
C1414 H1400 0.930 . S
C1414 C1412 1.385 1_556 S
C1414 C1417 1.403 . S
C1415 C1412 1.412 . S
C1415 C1416 1.524 . S
C1415 C1419 1.400 . S
C1416 H1401 0.960 . S
C1416 H1402 0.960 . S
C1416 H1403 0.960 . S
C1416 C1415 1.524 . S
C1417 C1414 1.403 . S
C1417 C1418 1.392 . S
C1417 C1421 1.495 . S
C1418 C1417 1.392 . S
C1418 C1419 1.385 1_556 S
C1418 C1420 1.478 . S
C1419 H1413 0.930 . S
C1419 C1415 1.400 . S
C1419 C1418 1.385 1_554 S
C1420 C1418 1.478 . S
C1420 C1422 1.381 1_556 S
C1420 C1426 1.383 . S
C1421 C1417 1.495 . S
C1421 H1427 0.959 . S
C1421 H1428 0.961 . S
C1421 H1429 0.960 . S
C1422 C1420 1.381 1_554 S
C1422 C1423 1.394 . S
C1422 H1430 0.930 . S
C1423 C1422 1.394 . S
C1423 C1424 1.383 1_554 S
C1423 H1431 0.929 . S
C1424 C1423 1.383 1_556 S
C1424 C1425 1.377 . S
C1425 H1409 0.930 . S
C1425 C1424 1.377 . S
C1425 C1426 1.379 . S
C1426 H1410 0.931 . S
C1426 C1420 1.383 . S
C1426 C1425 1.379 . S
H1427 C1421 0.959 . S
H1428 C1421 0.961 . S
H1429 C1421 0.960 . S
H1430 C1422 0.930 . S
H1431 C1423 0.929 . S
C577 C21 1.594 . S
C596 C269 1.504 . S
C613 C40 1.701 . S
C632 C89 1.661 . S
C668 C168 1.431 . S
C649 C54 1.555 . S
C685 C73 1.745 . S
C704 C228 1.669 . S
C740 C389 1.434 . S
C721 C74 1.555 . S
C776 C468 1.607 . S
C757 C10 1.704 . S
C812 C539 1.609 . S
C793 C37 1.597 . S
C848 C329 1.672 . S
C829 C65 1.749 . S
C865 C52 1.562 . S
C884 C179 1.522 . S
C901 C87 1.741 . S
C920 C209 1.597 . S
C937 C15 1.597 . S
C956 C288 1.586 . S
C992 C108 1.684 . S
C973 C32 1.696 . S
C1009 C29 1.595 . S
C1028 C528 1.586 . S
C1064 C348 1.736 . S
C1045 C59 1.741 . S
C1100 C408 1.507 . S
C1081 C84 1.564 . S
C1117 C8 1.697 . S
C1136 C449 1.550 . S
C1172 C119 1.821 1_554 S
C1153 C7 1.846 . S
C1208 C149 1.615 . S
C1189 C30 1.684 . S
C1225 C62 1.866 1_556 S
C1244 C239 1.778 . S
C1261 C81 1.669 . S
C1280 C299 1.599 . S
C1316 C359 1.838 . S
C1297 C76 1.867 . S
C1333 C18 1.682 1_554 S
C1352 C419 1.589 1_556 S
C1369 C43 1.846 . S
C1388 C479 1.713 . S
C1405 C51 1.669 1_554 S
C1424 C509 1.655 . S
