# Generated by pormake.
# Topology nom, (4,4)-cn, num edge types: 1
# Building blocks:
#     Node 0, Type 0, BuildingBlock: MUDLON_clean_linker_0, # of connection points: 4
#     Node 1, Type 0, BuildingBlock: MUDLON_clean_linker_0, # of connection points: 4
#     Node 2, Type 0, BuildingBlock: MUDLON_clean_linker_0, # of connection points: 4
#     Node 3, Type 0, BuildingBlock: MUDLON_clean_linker_0, # of connection points: 4
#     Node 4, Type 0, BuildingBlock: MUDLON_clean_linker_0, # of connection points: 4
#     Node 5, Type 0, BuildingBlock: MUDLON_clean_linker_0, # of connection points: 4
#     Node 6, Type 1, BuildingBlock: QUQFOY_clean_sbu_3, # of connection points: 4
#     Node 7, Type 1, BuildingBlock: QUQFOY_clean_sbu_3, # of connection points: 4
#     Node 8, Type 1, BuildingBlock: QUQFOY_clean_sbu_3, # of connection points: 4
#     Node 9, Type 1, BuildingBlock: QUQFOY_clean_sbu_3, # of connection points: 4
#     Node 10, Type 1, BuildingBlock: QUQFOY_clean_sbu_3, # of connection points: 4
#     Node 11, Type 1, BuildingBlock: QUQFOY_clean_sbu_3, # of connection points: 4
#     Edge 12, Type (0, 1), None
#     Edge 13, Type (0, 1), None
#     Edge 14, Type (0, 1), None
#     Edge 15, Type (0, 1), None
#     Edge 16, Type (0, 1), None
#     Edge 17, Type (0, 1), None
#     Edge 18, Type (0, 1), None
#     Edge 19, Type (0, 1), None
#     Edge 20, Type (0, 1), None
#     Edge 21, Type (0, 1), None
#     Edge 22, Type (0, 1), None
#     Edge 23, Type (0, 1), None
#     Edge 24, Type (0, 1), None
#     Edge 25, Type (0, 1), None
#     Edge 26, Type (0, 1), None
#     Edge 27, Type (0, 1), None
#     Edge 28, Type (0, 1), None
#     Edge 29, Type (0, 1), None
#     Edge 30, Type (0, 1), None
#     Edge 31, Type (0, 1), None
#     Edge 32, Type (0, 1), None
#     Edge 33, Type (0, 1), None
#     Edge 34, Type (0, 1), None
#     Edge 35, Type (0, 1), None
# Relax obj value: 0.011
# Max RMSD: 0.110
# Mean RMSD: 0.061
data_MOF--net-nom--node1-QUQFOY_clean_sbu_3--node2-MUDLON_clean_linker_0--edge1-none
_symmetry_space_group_name_H-M    P1
_symmetry_Int_Tables_number       1
_symmetry_cell_setting            triclinic
loop_
_symmetry_equiv_pos_as_xyz
'x, y, z'
_cell_length_a     35.787103
_cell_length_b     37.54273
_cell_length_c     36.153162
_cell_angle_alpha  90.483592
_cell_angle_beta   89.748645
_cell_angle_gamma 120.83246
loop_
_atom_site_label
_atom_site_type_symbol
_atom_site_fract_x
_atom_site_fract_y
_atom_site_fract_z
_atom_type_partial_charge
H0 H 0.224 0.57477 0.29367 0.0
N1 N 0.15058 0.55432 0.32825 0.0
H2 H 0.26907 0.63628 0.25667 0.0
H3 H 0.13003 0.61292 0.30893 0.0
H4 H 0.17518 0.67511 0.2722 0.0
H5 H 0.14707 0.61179 0.3733 0.0
H6 H 0.17647 0.63147 0.43543 0.0
H7 H 0.18339 0.51862 0.36944 0.0
H8 H 0.21405 0.53893 0.43192 0.0
H9 H 0.11883 0.49269 0.27943 0.0
H10 H 0.0798 0.55602 0.35642 0.0
H11 H 0.04289 0.44855 0.25967 0.0
H12 H 0.00461 0.51232 0.33706 0.0
H13 H 0.78865 0.33131 0.20195 0.0
H14 H 0.76221 0.33828 0.14165 0.0
H15 H 0.84251 0.47175 0.15121 0.0
H16 H 0.86857 0.46436 0.21103 0.0
H17 H 0.85584 0.46789 0.27375 0.0
H18 H 0.8089 0.48166 0.31292 0.0
H19 H 0.71607 0.34988 0.31826 0.0
H20 H 0.76319 0.33655 0.27868 0.0
H21 H 0.91295 0.42217 0.20494 0.0
H22 H 0.98801 0.45873 0.22575 0.0
H23 H 0.94504 0.43714 0.33933 0.0
N24 N 0.83913 0.39176 0.24901 0.0
H25 H 0.86978 0.40082 0.31892 0.0
C26 C 0.17398 0.58932 0.30413 0.0
C27 C 0.21301 0.59635 0.28868 0.0
C28 C 0.23868 0.63162 0.26765 0.0
C29 C 0.22587 0.66087 0.26172 0.0
C30 C 0.186 0.65326 0.27635 0.0
C31 C 0.16019 0.61772 0.29739 0.0
C32 C 0.16265 0.56328 0.36669 0.0
C33 C 0.16052 0.59487 0.38604 0.0
C34 C 0.1776 0.60629 0.42168 0.0
C35 C 0.19783 0.58692 0.4385 0.0
C36 C 0.19875 0.55449 0.41964 0.0
C37 C 0.18115 0.54275 0.38408 0.0
C38 C 0.10519 0.52736 0.3196 0.0
C39 C 0.09386 0.49673 0.29233 0.0
C40 C 0.05067 0.47182 0.28094 0.0
C41 C 0.01793 0.47699 0.29693 0.0
C42 C 0.02914 0.50728 0.32464 0.0
C43 C 0.07236 0.53242 0.33574 0.0
C44 C 0.83047 0.39709 0.21105 0.0
C45 C 0.80119 0.36195 0.19052 0.0
C46 C 0.78601 0.36606 0.15618 0.0
C47 C 0.79988 0.4056 0.14175 0.0
C48 C 0.83091 0.44081 0.16155 0.0
C49 C 0.84585 0.43666 0.1959 0.0
C50 C 0.81279 0.40097 0.27317 0.0
C51 C 0.82526 0.44199 0.28314 0.0
C52 C 0.79849 0.44984 0.30574 0.0
C53 C 0.75873 0.41693 0.3187 0.0
C54 C 0.7465 0.37601 0.30877 0.0
C55 C 0.77329 0.36821 0.28621 0.0
C56 C 0.88465 0.41167 0.26025 0.0
C57 C 0.91903 0.42593 0.23439 0.0
C58 C 0.96232 0.44632 0.24627 0.0
C59 C 0.97228 0.45191 0.28416 0.0
C60 C 0.93826 0.43459 0.30994 0.0
C61 C 0.89511 0.41402 0.29814 0.0
H62 H 0.46818 0.80081 0.43222 0.0
N63 N 0.46077 0.86552 0.41637 0.0
H64 H 0.41882 0.74058 0.4693 0.0
H65 H 0.39401 0.85856 0.45978 0.0
H66 H 0.34432 0.7984 0.49685 0.0
H67 H 0.38222 0.85315 0.39273 0.0
H68 H 0.35179 0.83267 0.33108 0.0
H69 H 0.49791 0.8541 0.35718 0.0
H70 H 0.4662 0.83105 0.29516 0.0
H71 H 0.53999 0.91052 0.44457 0.0
H72 H 0.42664 0.91688 0.41613 0.0
H73 H 0.57706 0.98315 0.46479 0.0
H74 H 0.46367 0.98914 0.43456 0.0
H75 H 0.6784 0.18617 0.5406 0.0
H76 H 0.68524 0.21279 0.60404 0.0
H77 H 0.5547 0.19124 0.59715 0.0
H78 H 0.54895 0.16671 0.53402 0.0
H79 H 0.54194 0.16628 0.4678 0.0
H80 H 0.54457 0.22422 0.43467 0.0
H81 H 0.68499 0.28624 0.43202 0.0
H82 H 0.68193 0.2286 0.46532 0.0
H83 H 0.64609 0.12462 0.45889 0.0
H84 H 0.60893 0.05162 0.43993 0.0
H85 H 0.48928 0.03343 0.48732 0.0
N86 N 0.61273 0.16404 0.49406 0.0
H87 H 0.52602 0.10623 0.50457 0.0
C88 C 0.43489 0.83407 0.44309 0.0
C89 C 0.44172 0.80078 0.44692 0.0
C90 C 0.41334 0.76637 0.46798 0.0
C91 C 0.37738 0.76457 0.4857 0.0
C92 C 0.37169 0.79886 0.48344 0.0
C93 C 0.40016 0.83334 0.46223 0.0
C94 C 0.44306 0.85624 0.37944 0.0
C95 C 0.40169 0.85003 0.37149 0.0
C96 C 0.38409 0.83798 0.33612 0.0
C97 C 0.40674 0.83048 0.30827 0.0
C98 C 0.44813 0.83678 0.31611 0.0
C99 C 0.46626 0.84998 0.35136 0.0
C100 C 0.48075 0.90808 0.42855 0.0
C101 C 0.5232 0.9276 0.44254 0.0
C102 C 0.54438 0.96914 0.45378 0.0
C103 C 0.52343 0.9921 0.45111 0.0
C104 C 0.48063 0.97232 0.43743 0.0
C105 C 0.45942 0.93075 0.42646 0.0
C106 C 0.61307 0.17377 0.5327 0.0
C107 C 0.65108 0.18654 0.55319 0.0
C108 C 0.65497 0.20183 0.58925 0.0
C109 C 0.62049 0.20405 0.60552 0.0
C110 C 0.58171 0.18956 0.58551 0.0
C111 C 0.57821 0.17509 0.5493 0.0
C112 C 0.61199 0.19341 0.46921 0.0
C113 C 0.57319 0.19202 0.45954 0.0
C114 C 0.57471 0.22515 0.44056 0.0
C115 C 0.61497 0.26003 0.43118 0.0
C116 C 0.65341 0.26004 0.43915 0.0
C117 C 0.65183 0.22708 0.45797 0.0
C118 C 0.58917 0.121 0.48328 0.0
C119 C 0.6118 0.10475 0.465 0.0
C120 C 0.59058 0.063 0.45451 0.0
C121 C 0.54612 0.03654 0.46228 0.0
C122 C 0.5234 0.05299 0.4805 0.0
C123 C 0.54461 0.09483 0.49072 0.0
H124 H 0.4523 0.6751 0.64416 0.0
N125 N 0.46117 0.6155 0.67359 0.0
H126 H 0.39445 0.66746 0.60324 0.0
H127 H 0.39801 0.54271 0.6414 0.0
H128 H 0.3397 0.53459 0.60102 0.0
H129 H 0.39034 0.54985 0.70653 0.0
H130 H 0.36217 0.54885 0.76753 0.0
H131 H 0.49576 0.67529 0.72474 0.0
H132 H 0.46617 0.6752 0.78629 0.0
H133 H 0.53497 0.64976 0.63578 0.0
H134 H 0.44364 0.5369 0.69178 0.0
H135 H 0.57794 0.61835 0.61786 0.0
H136 H 0.48584 0.50571 0.67393 0.0
H137 H 0.69994 0.50605 0.5542 0.0
H138 H 0.6992 0.48017 0.49168 0.0
H139 H 0.55871 0.40652 0.49548 0.0
H140 H 0.55989 0.43287 0.5578 0.0
H141 H 0.55929 0.40951 0.61879 0.0
H142 H 0.55782 0.35091 0.64974 0.0
H143 H 0.69792 0.42273 0.65972 0.0
H144 H 0.69898 0.48095 0.62906 0.0
H145 H 0.61129 0.53 0.5576 0.0
H146 H 0.57027 0.56221 0.57662 0.0
H147 H 0.55792 0.5137 0.68662 0.0
N148 N 0.63257 0.48273 0.59921 0.0
H149 H 0.59858 0.4812 0.66802 0.0
C150 C 0.42951 0.60973 0.64602 0.0
C151 C 0.42819 0.64447 0.63427 0.0
C152 C 0.39502 0.63994 0.61098 0.0
C153 C 0.36214 0.60031 0.59914 0.0
C154 C 0.36434 0.56551 0.60982 0.0
C155 C 0.39779 0.57015 0.63295 0.0
C156 C 0.44594 0.61253 0.71111 0.0
C157 C 0.40821 0.57696 0.72391 0.0
C158 C 0.39185 0.57652 0.75901 0.0
C159 C 0.41197 0.61196 0.78185 0.0
C160 C 0.45002 0.64738 0.76935 0.0
C161 C 0.46699 0.64746 0.73434 0.0
C162 C 0.48628 0.5962 0.66536 0.0
C163 C 0.52434 0.61841 0.64439 0.0
C164 C 0.5486 0.60034 0.63399 0.0
C165 C 0.53518 0.55955 0.64451 0.0
C166 C 0.49727 0.53739 0.66582 0.0
C167 C 0.47295 0.55539 0.67604 0.0
C168 C 0.63019 0.47134 0.56065 0.0
C169 C 0.66905 0.48493 0.54117 0.0
C170 C 0.6685 0.46997 0.50558 0.0
C171 C 0.62889 0.44096 0.48883 0.0
C172 C 0.58975 0.42866 0.50774 0.0
C173 C 0.59035 0.44363 0.54338 0.0
C174 C 0.62949 0.44969 0.62168 0.0
C175 C 0.58957 0.41273 0.62807 0.0
C176 C 0.58873 0.37932 0.64583 0.0
C177 C 0.62775 0.38213 0.6568 0.0
C178 C 0.6673 0.41951 0.65132 0.0
C179 C 0.66805 0.4529 0.63405 0.0
C180 C 0.60568 0.49987 0.61022 0.0
C181 C 0.59879 0.52494 0.58558 0.0
C182 C 0.57589 0.54414 0.59662 0.0
C183 C 0.56017 0.53981 0.63291 0.0
C184 C 0.56849 0.5165 0.65812 0.0
C185 C 0.59157 0.49746 0.64717 0.0
H186 H 0.22739 0.68735 0.77559 0.0
N187 N 0.15074 0.63147 0.74735 0.0
H188 H 0.27503 0.67512 0.81487 0.0
H189 H 0.13425 0.556 0.77259 0.0
H190 H 0.18175 0.54327 0.81153 0.0
H191 H 0.12351 0.55872 0.70922 0.0
H192 H 0.14904 0.55173 0.64861 0.0
H193 H 0.19794 0.69186 0.69982 0.0
H194 H 0.22389 0.68531 0.63878 0.0
H195 H 0.12287 0.62859 0.81728 0.0
H196 H 0.07497 0.59521 0.70505 0.0
H197 H 0.0484 0.59352 0.83995 0.0
H198 H 0.00084 0.56018 0.72811 0.0
H199 H 0.80832 0.50899 0.87611 0.0
H200 H 0.77613 0.48761 0.93788 0.0
H201 H 0.8161 0.39683 0.94047 0.0
H202 H 0.84715 0.41767 0.87901 0.0
H203 H 0.86243 0.41514 0.81422 0.0
H204 H 0.81715 0.35294 0.77672 0.0
H205 H 0.72334 0.39194 0.76303 0.0
H206 H 0.7685 0.45336 0.80072 0.0
H207 H 0.91406 0.47499 0.86332 0.0
H208 H 0.98867 0.51729 0.8419 0.0
H209 H 0.94775 0.57496 0.76165 0.0
N210 N 0.84223 0.47398 0.83449 0.0
H211 H 0.87253 0.53249 0.78355 0.0
C212 C 0.17754 0.62283 0.77107 0.0
C213 C 0.21732 0.65591 0.78347 0.0
C214 C 0.24438 0.64874 0.80589 0.0
C215 C 0.23217 0.60812 0.81632 0.0
C216 C 0.19213 0.57487 0.80397 0.0
C217 C 0.16507 0.5821 0.7815 0.0
C218 C 0.15886 0.62599 0.70911 0.0
C219 C 0.14486 0.58649 0.69385 0.0
C220 C 0.1595 0.58257 0.65905 0.0
C221 C 0.18891 0.61799 0.63893 0.0
C222 C 0.20137 0.65739 0.65355 0.0
C223 C 0.18644 0.66124 0.6883 0.0
C224 C 0.10561 0.61205 0.75953 0.0
C225 C 0.09665 0.61314 0.79744 0.0
C226 C 0.05401 0.59327 0.8105 0.0
C227 C 0.01899 0.57317 0.78588 0.0
C228 C 0.02738 0.57491 0.74776 0.0
C229 C 0.07017 0.5945 0.73463 0.0
C230 C 0.83046 0.46536 0.87296 0.0
C231 C 0.8109 0.48514 0.89047 0.0
C232 C 0.79236 0.47273 0.9256 0.0
C233 C 0.79331 0.44032 0.94391 0.0
C234 C 0.81482 0.4219 0.92711 0.0
C235 C 0.83291 0.43402 0.89189 0.0
C236 C 0.81848 0.43873 0.81031 0.0
C237 C 0.8322 0.41028 0.80295 0.0
C238 C 0.80634 0.37477 0.78149 0.0
C239 C 0.76652 0.36729 0.76707 0.0
C240 C 0.7537 0.3965 0.7738 0.0
C241 C 0.77941 0.43172 0.79524 0.0
C242 C 0.88746 0.50084 0.82524 0.0
C243 C 0.92082 0.49704 0.84161 0.0
C244 C 0.96368 0.52133 0.82932 0.0
C245 C 0.97392 0.54935 0.80012 0.0
C246 C 0.94069 0.55341 0.78405 0.0
C247 C 0.89792 0.52948 0.79667 0.0
H248 H 0.52057 0.22661 0.93348 0.0
N249 N 0.52752 0.16169 0.91614 0.0
H250 H 0.57008 0.28646 0.97152 0.0
H251 H 0.5934 0.16758 0.95967 0.0
H252 H 0.6432 0.22733 -0.00231 0.0
H253 H 0.60644 0.17446 0.89269 0.0
H254 H 0.63814 0.19652 0.83179 0.0
H255 H 0.49164 0.17475 0.85741 0.0
H256 H 0.52474 0.1995 0.79616 0.0
H257 H 0.44843 0.11628 0.94442 0.0
H258 H 0.56164 0.11023 0.91362 0.0
H259 H 0.41182 0.04371 0.9638 0.0
H260 H 0.52508 0.03808 0.93131 0.0
H261 H 0.31229 0.84136 0.03879 0.0
H262 H 0.30612 0.81557 0.10209 0.0
H263 H 0.43731 0.83884 0.09446 0.0
H264 H 0.44239 0.86248 0.03141 0.0
H265 H 0.44877 0.86186 0.96461 0.0
H266 H 0.44647 0.80372 0.93115 0.0
H267 H 0.30593 0.73987 0.93068 0.0
H268 H 0.30866 0.79784 0.96414 0.0
H269 H 0.34351 0.90212 0.95757 0.0
H270 H 0.37991 0.97481 0.93862 0.0
H271 H 0.50065 0.99458 0.98421 0.0
N272 N 0.37787 0.86366 -0.00808 0.0
H273 H 0.46462 0.9221 0.00154 0.0
C274 C 0.55315 0.19272 0.9436 0.0
C275 C 0.54672 0.22625 0.94811 0.0
C276 C 0.5752 0.26046 0.96969 0.0
C277 C 0.61086 0.2618 0.98728 0.0
C278 C 0.61609 0.22724 0.98439 0.0
C279 C 0.58753 0.19297 0.96264 0.0
C280 C 0.54586 0.1717 0.87944 0.0
C281 C 0.5874 0.17813 0.87163 0.0
C282 C 0.60578 0.19117 0.83669 0.0
C283 C 0.58379 0.19951 0.80916 0.0
C284 C 0.5423 0.19314 0.81686 0.0
C285 C 0.52336 0.17892 0.85166 0.0
C286 C 0.50758 0.11894 0.92728 0.0
C287 C 0.46526 0.09928 0.94163 0.0
C288 C 0.44435 0.05777 0.95242 0.0
C289 C 0.46544 0.03495 0.94897 0.0
C290 C 0.50803 0.0548 0.93479 0.0
C291 C 0.52897 0.09633 0.92424 0.0
C292 C 0.37793 0.8546 0.03053 0.0
C293 C 0.3399 0.84157 0.05119 0.0
C294 C 0.33639 0.82673 0.08717 0.0
C295 C 0.37125 0.82526 0.10319 0.0
C296 C 0.41002 0.83998 0.08301 0.0
C297 C 0.41314 0.85397 0.04687 0.0
C298 C 0.37864 0.83397 0.96698 0.0
C299 C 0.41754 0.83571 0.95672 0.0
C300 C 0.41622 0.80244 0.93758 0.0
C301 C 0.37605 0.76701 0.92871 0.0
C302 C 0.33745 0.76652 0.9374 0.0
C303 C 0.33884 0.79966 0.9563 0.0
C304 C 0.401 0.90654 0.9811 0.0
C305 C 0.37787 0.92226 0.96329 0.0
C306 C 0.39866 0.96384 0.95279 0.0
C307 C 0.44321 0.99065 0.96004 0.0
C308 C 0.46644 0.97473 0.97778 0.0
C309 C 0.44564 0.93308 0.98804 0.0
H310 H 0.53799 0.35162 0.1512 0.0
N311 N 0.52885 0.4117 0.18053 0.0
H312 H 0.59563 0.35866 0.10991 0.0
H313 H 0.59225 0.48398 0.14863 0.0
H314 H 0.65032 0.49148 0.1079 0.0
H315 H 0.59996 0.47753 0.21359 0.0
H316 H 0.6287 0.47879 0.27413 0.0
H317 H 0.49402 0.35259 0.23161 0.0
H318 H 0.52419 0.35294 0.29271 0.0
H319 H 0.45913 0.38075 0.13756 0.0
H320 H 0.54466 0.48915 0.20286 0.0
H321 H 0.42109 0.41536 0.11584 0.0
H322 H 0.50654 0.52296 0.1822 0.0
H323 H 0.30718 0.52934 0.0525 0.0
H324 H 0.30207 0.55046 0.98975 0.0
H325 H 0.44238 0.62564 0.98481 0.0
H326 H 0.44705 0.60439 0.04719 0.0
H327 H 0.44629 0.63786 0.1041 0.0
H328 H 0.44339 0.69297 0.13776 0.0
H329 H 0.30959 0.60662 0.16694 0.0
H330 H 0.31323 0.55111 0.13429 0.0
H331 H 0.33978 0.47891 0.11197 0.0
H332 H 0.37408 0.44141 0.13547 0.0
H333 H 0.50024 0.55292 0.12539 0.0
N334 N 0.37811 0.5581 0.09353 0.0
H335 H 0.46593 0.58999 0.10305 0.0
C336 C 0.56077 0.41702 0.15318 0.0
C337 C 0.56208 0.3821 0.14133 0.0
C338 C 0.59511 0.38629 0.11781 0.0
C339 C 0.62785 0.42573 0.10584 0.0
C340 C 0.62577 0.4607 0.11677 0.0
C341 C 0.59248 0.45641 0.14011 0.0
C342 C 0.54403 0.41509 0.21809 0.0
C343 C 0.58209 0.45059 0.23086 0.0
C344 C 0.59877 0.45119 0.26572 0.0
C345 C 0.57873 0.41594 0.28834 0.0
C346 C 0.54029 0.38062 0.27595 0.0
C347 C 0.52298 0.38041 0.2412 0.0
C348 C 0.50475 0.43185 0.17189 0.0
C349 C 0.46924 0.41162 0.1477 0.0
C350 C 0.44754 0.43142 0.13539 0.0
C351 C 0.46106 0.47207 0.14707 0.0
C352 C 0.49584 0.49192 0.17213 0.0
C353 C 0.51757 0.4722 0.18432 0.0
C354 C 0.37729 0.56515 0.05459 0.0
C355 C 0.33678 0.54955 0.03742 0.0
C356 C 0.33396 0.56185 0.0017 0.0
C357 C 0.37182 0.59016 0.98253 0.0
C358 C 0.41259 0.60398 -0.00103 0.0
C359 C 0.41533 0.59168 0.03473 0.0
C360 C 0.37995 0.58998 0.11716 0.0
C361 C 0.41683 0.63022 0.11881 0.0
C362 C 0.41511 0.66192 0.13789 0.0
C363 C 0.37623 0.65407 0.15471 0.0
C364 C 0.33995 0.61356 0.15403 0.0
C365 C 0.34198 0.58182 0.13562 0.0
C366 C 0.40001 0.53714 0.10571 0.0
C367 C 0.37484 0.49507 0.11479 0.0
C368 C 0.39449 0.47373 0.12805 0.0
C369 C 0.43988 0.49426 0.13249 0.0
C370 C 0.46512 0.53637 0.12292 0.0
C371 C 0.44543 0.55765 0.10974 0.0
C372 C 0.72966 0.42487 0.34202 0.0
O373 O 0.7405 0.46157 0.35147 0.0
Cd374 Cd 0.6875 0.4722 0.3827 0.0
O375 O 0.69343 0.39435 0.35246 0.0
Cd376 Cd 0.6292 0.37461 0.39111 0.0
C377 C 0.60051 0.41563 0.32293 0.0
O378 O 0.66393 0.42994 0.43706 0.0
O379 O 0.59354 0.39406 0.43802 0.0
O380 O 0.6545 0.33135 0.41475 0.0
C381 C 0.62871 0.42179 0.45291 0.0
O382 O 0.6312 0.45001 0.33558 0.0
C383 C 0.61804 0.29784 0.41588 0.0
O384 O 0.59178 0.38139 0.33748 0.0
O385 O 0.58502 0.29929 0.40502 0.0
C386 C 0.32471 0.5955 0.57758 0.0
O387 O 0.29234 0.55971 0.57072 0.0
Cd388 Cd 0.22772 0.55354 0.54394 0.0
O389 O 0.32431 0.62768 0.56754 0.0
Cd390 Cd 0.27899 0.64789 0.53295 0.0
C391 C 0.20899 0.61374 0.60451 0.0
O392 O 0.24607 0.59156 0.48679 0.0
O393 O 0.21827 0.63071 0.49215 0.0
O394 O 0.34638 0.69304 0.50093 0.0
C395 C 0.22043 0.6026 0.4743 0.0
O396 O 0.19759 0.57766 0.59228 0.0
C397 C 0.34454 0.72579 0.50387 0.0
O398 O 0.2396 0.64585 0.58895 0.0
O399 O 0.31206 0.72281 0.52122 0.0
C400 C 0.73721 0.32891 0.74612 0.0
O401 O 0.74754 0.30193 0.73895 0.0
Cd402 Cd 0.68933 0.23768 0.71299 0.0
O403 O 0.70069 0.32303 0.73558 0.0
Cd404 Cd 0.63499 0.27899 0.70018 0.0
C405 C 0.60585 0.21737 0.77373 0.0
O406 O 0.66331 0.24938 0.65511 0.0
O407 O 0.59327 0.22203 0.65836 0.0
O408 O 0.66342 0.34549 0.67219 0.0
C409 C 0.62579 0.22431 0.64186 0.0
O410 O 0.63567 0.21076 0.76283 0.0
C411 C 0.62834 0.34607 0.67202 0.0
O412 O 0.59766 0.24184 0.75615 0.0
O413 O 0.59455 0.31432 0.68479 0.0
C414 C 0.2617 0.60092 0.83938 0.0
O415 O 0.25124 0.56455 0.84908 0.0
Cd416 Cd 0.30621 0.55577 0.87849 0.0
O417 O 0.2981 0.63178 0.84918 0.0
Cd418 Cd 0.36311 0.6529 0.88682 0.0
C419 C 0.3908 0.61229 0.81695 0.0
O420 O 0.33213 0.5983 0.93327 0.0
O421 O 0.40246 0.63519 0.93046 0.0
O422 O 0.33737 0.69519 0.913 0.0
C423 C 0.36871 0.60752 0.94693 0.0
O424 O 0.36097 0.57784 0.82993 0.0
C425 C 0.37335 0.72924 0.91305 0.0
O426 O 0.39931 0.64654 0.83184 0.0
O427 O 0.4063 0.7285 0.90055 0.0
C428 C 0.66496 0.43025 0.08374 0.0
O429 O 0.69751 0.46594 0.07724 0.0
Cd430 Cd 0.76188 0.47202 0.04958 0.0
O431 O 0.66489 0.39794 0.07276 0.0
Cd432 Cd 0.70971 0.37771 0.03656 0.0
C433 C 0.77973 0.4104 0.10789 0.0
O434 O 0.74365 0.43462 -0.00832 0.0
O435 O 0.77099 0.39509 -0.00393 0.0
O436 O 0.64249 0.33335 0.00374 0.0
C437 C 0.76945 0.42368 0.97899 0.0
O438 O 0.79158 0.44669 0.09647 0.0
C439 C 0.64387 0.30035 0.00602 0.0
O440 O 0.74873 0.3786 0.09203 0.0
O441 O 0.67604 0.30287 0.02329 0.0
C442 C 0.25534 0.69959 0.24169 0.0
O443 O 0.24488 0.72654 0.23539 0.0
Cd444 Cd 0.30266 0.79141 0.21087 0.0
O445 O 0.29225 0.70603 0.23142 0.0
Cd446 Cd 0.35881 0.75216 0.19772 0.0
C447 C 0.38539 0.81307 0.27239 0.0
O448 O 0.32915 0.77991 0.15264 0.0
O449 O 0.39934 0.80916 0.15609 0.0
O450 O 0.33485 0.68502 0.17119 0.0
C451 C 0.36643 0.80559 0.13948 0.0
O452 O 0.35525 0.81912 0.26166 0.0
C453 C 0.3718 0.68815 0.17015 0.0
O454 O 0.39447 0.78929 0.25426 0.0
O455 O 0.40416 0.72202 0.18176 0.0
loop_
_geom_bond_atom_site_label_1
_geom_bond_atom_site_label_2
_geom_bond_distance
_geom_bond_site_symmetry_2
_ccdc_geom_bond_type
H0 C27 0.929 . S
N1 C26 1.433 . S
N1 C32 1.435 . S
N1 C38 1.423 . S
H2 C28 0.930 . S
H3 C31 0.931 . S
H4 C30 0.929 . S
H5 C33 0.930 . S
H6 C34 0.932 . S
H7 C37 0.929 . S
H8 C36 0.931 . S
H9 C39 0.929 . S
H10 C43 0.932 . S
H11 C40 0.931 . S
H12 C42 0.929 . S
H13 C45 0.929 . S
H14 C46 0.930 . S
H15 C48 0.929 . S
H16 C49 0.931 . S
H17 C51 0.930 . S
H18 C52 0.932 . S
H19 C54 0.931 . S
H20 C55 0.929 . S
H21 C57 0.929 . S
H22 C58 0.931 . S
H23 C60 0.929 . S
N24 C44 1.433 . S
N24 C50 1.435 . S
N24 C56 1.423 . S
H25 C61 0.932 . S
C26 N1 1.433 . S
C26 C27 1.363 . S
C26 C31 1.370 . S
C27 H0 0.929 . S
C27 C26 1.363 . S
C27 C28 1.385 . S
C28 H2 0.930 . S
C28 C27 1.385 . S
C28 C29 1.357 . S
C29 C28 1.357 . S
C29 C30 1.406 . S
C30 H4 0.929 . S
C30 C29 1.406 . S
C30 C31 1.391 . S
C31 H3 0.931 . S
C31 C26 1.370 . S
C31 C30 1.391 . S
C32 N1 1.435 . S
C32 C33 1.358 . S
C32 C37 1.371 . S
C33 H5 0.930 . S
C33 C32 1.358 . S
C33 C34 1.405 . S
C34 H6 0.932 . S
C34 C33 1.405 . S
C34 C35 1.383 . S
C35 C34 1.383 . S
C35 C36 1.393 . S
C36 H8 0.931 . S
C36 C35 1.393 . S
C36 C37 1.382 . S
C37 H7 0.929 . S
C37 C32 1.371 . S
C37 C36 1.382 . S
C38 N1 1.423 . S
C38 C39 1.362 . S
C38 C43 1.388 . S
C39 H9 0.929 . S
C39 C38 1.362 . S
C39 C40 1.376 . S
C40 H11 0.931 . S
C40 C39 1.376 . S
C40 C41 1.396 . S
C41 C40 1.396 . S
C41 C42 1.348 . S
C41 C59 1.472 1_455 S
C42 H12 0.929 . S
C42 C41 1.348 . S
C42 C43 1.443 . S
C43 H10 0.932 . S
C43 C38 1.388 . S
C43 C42 1.443 . S
C44 N24 1.433 . S
C44 C45 1.363 . S
C44 C49 1.370 . S
C45 H13 0.929 . S
C45 C44 1.363 . S
C45 C46 1.385 . S
C46 H14 0.930 . S
C46 C45 1.385 . S
C46 C47 1.357 . S
C47 C46 1.357 . S
C47 C48 1.406 . S
C48 H15 0.929 . S
C48 C47 1.406 . S
C48 C49 1.391 . S
C49 H16 0.931 . S
C49 C44 1.370 . S
C49 C48 1.391 . S
C50 N24 1.435 . S
C50 C51 1.358 . S
C50 C55 1.371 . S
C51 H17 0.930 . S
C51 C50 1.358 . S
C51 C52 1.405 . S
C52 H18 0.932 . S
C52 C51 1.405 . S
C52 C53 1.383 . S
C53 C52 1.383 . S
C53 C54 1.393 . S
C54 H19 0.931 . S
C54 C53 1.393 . S
C54 C55 1.382 . S
C55 H20 0.929 . S
C55 C50 1.371 . S
C55 C54 1.382 . S
C56 N24 1.423 . S
C56 C57 1.362 . S
C56 C61 1.388 . S
C57 H21 0.929 . S
C57 C56 1.362 . S
C57 C58 1.376 . S
C58 H22 0.931 . S
C58 C57 1.376 . S
C58 C59 1.396 . S
C59 C41 1.472 1_655 S
C59 C58 1.396 . S
C59 C60 1.348 . S
C60 H23 0.929 . S
C60 C59 1.348 . S
C60 C61 1.443 . S
C61 H25 0.932 . S
C61 C56 1.388 . S
C61 C60 1.443 . S
H62 C89 0.929 . S
N63 C88 1.433 . S
N63 C94 1.435 . S
N63 C100 1.423 . S
H64 C90 0.930 . S
H65 C93 0.931 . S
H66 C92 0.929 . S
H67 C95 0.930 . S
H68 C96 0.932 . S
H69 C99 0.929 . S
H70 C98 0.931 . S
H71 C101 0.929 . S
H72 C105 0.932 . S
H73 C102 0.931 . S
H74 C104 0.929 1_545 S
H75 C107 0.929 . S
H76 C108 0.930 . S
H77 C110 0.929 . S
H78 C111 0.931 . S
H79 C113 0.930 . S
H80 C114 0.932 . S
H81 C116 0.931 . S
H82 C117 0.929 . S
H83 C119 0.929 . S
H84 C120 0.931 . S
H85 C122 0.929 . S
N86 C106 1.433 . S
N86 C112 1.435 . S
N86 C118 1.423 . S
H87 C123 0.932 . S
C88 N63 1.433 . S
C88 C89 1.363 . S
C88 C93 1.370 . S
C89 H62 0.929 . S
C89 C88 1.363 . S
C89 C90 1.385 . S
C90 H64 0.930 . S
C90 C89 1.385 . S
C90 C91 1.357 . S
C91 C90 1.357 . S
C91 C92 1.406 . S
C92 H66 0.929 . S
C92 C91 1.406 . S
C92 C93 1.391 . S
C93 H65 0.931 . S
C93 C88 1.370 . S
C93 C92 1.391 . S
C94 N63 1.435 . S
C94 C95 1.358 . S
C94 C99 1.371 . S
C95 H67 0.930 . S
C95 C94 1.358 . S
C95 C96 1.405 . S
C96 H68 0.932 . S
C96 C95 1.405 . S
C96 C97 1.383 . S
C97 C96 1.383 . S
C97 C98 1.393 . S
C98 H70 0.931 . S
C98 C97 1.393 . S
C98 C99 1.382 . S
C99 H69 0.929 . S
C99 C94 1.371 . S
C99 C98 1.382 . S
C100 N63 1.423 . S
C100 C101 1.362 . S
C100 C105 1.388 . S
C101 H71 0.929 . S
C101 C100 1.362 . S
C101 C102 1.376 . S
C102 H73 0.931 . S
C102 C101 1.376 . S
C102 C103 1.396 1_565 S
C103 C102 1.396 1_545 S
C103 C104 1.348 1_545 S
C103 C121 1.472 . S
C104 H74 0.929 1_565 S
C104 C103 1.348 1_565 S
C104 C105 1.443 . S
C105 H72 0.932 . S
C105 C100 1.388 . S
C105 C104 1.443 . S
C106 N86 1.433 . S
C106 C107 1.363 . S
C106 C111 1.370 . S
C107 H75 0.929 . S
C107 C106 1.363 . S
C107 C108 1.385 . S
C108 H76 0.930 . S
C108 C107 1.385 . S
C108 C109 1.357 . S
C109 C108 1.357 . S
C109 C110 1.406 . S
C110 H77 0.929 . S
C110 C109 1.406 . S
C110 C111 1.391 . S
C111 H78 0.931 . S
C111 C106 1.370 . S
C111 C110 1.391 . S
C112 N86 1.435 . S
C112 C113 1.358 . S
C112 C117 1.371 . S
C113 H79 0.930 . S
C113 C112 1.358 . S
C113 C114 1.405 . S
C114 H80 0.932 . S
C114 C113 1.405 . S
C114 C115 1.383 . S
C115 C114 1.383 . S
C115 C116 1.393 . S
C116 H81 0.931 . S
C116 C115 1.393 . S
C116 C117 1.382 . S
C117 H82 0.929 . S
C117 C112 1.371 . S
C117 C116 1.382 . S
C118 N86 1.423 . S
C118 C119 1.362 . S
C118 C123 1.388 . S
C119 H83 0.929 . S
C119 C118 1.362 . S
C119 C120 1.376 . S
C120 H84 0.931 . S
C120 C119 1.376 . S
C120 C121 1.396 . S
C121 C103 1.472 . S
C121 C120 1.396 . S
C121 C122 1.348 . S
C122 H85 0.929 . S
C122 C121 1.348 . S
C122 C123 1.443 . S
C123 H87 0.932 . S
C123 C118 1.388 . S
C123 C122 1.443 . S
H124 C151 0.929 . S
N125 C150 1.433 . S
N125 C156 1.435 . S
N125 C162 1.423 . S
H126 C152 0.930 . S
H127 C155 0.931 . S
H128 C154 0.929 . S
H129 C157 0.930 . S
H130 C158 0.932 . S
H131 C161 0.929 . S
H132 C160 0.931 . S
H133 C163 0.929 . S
H134 C167 0.932 . S
H135 C164 0.931 . S
H136 C166 0.929 . S
H137 C169 0.929 . S
H138 C170 0.930 . S
H139 C172 0.929 . S
H140 C173 0.931 . S
H141 C175 0.930 . S
H142 C176 0.932 . S
H143 C178 0.931 . S
H144 C179 0.929 . S
H145 C181 0.929 . S
H146 C182 0.931 . S
H147 C184 0.929 . S
N148 C168 1.433 . S
N148 C174 1.435 . S
N148 C180 1.423 . S
H149 C185 0.932 . S
C150 N125 1.433 . S
C150 C151 1.363 . S
C150 C155 1.370 . S
C151 H124 0.929 . S
C151 C150 1.363 . S
C151 C152 1.385 . S
C152 H126 0.930 . S
C152 C151 1.385 . S
C152 C153 1.357 . S
C153 C152 1.357 . S
C153 C154 1.406 . S
C154 H128 0.929 . S
C154 C153 1.406 . S
C154 C155 1.391 . S
C155 H127 0.931 . S
C155 C150 1.370 . S
C155 C154 1.391 . S
C156 N125 1.435 . S
C156 C157 1.358 . S
C156 C161 1.371 . S
C157 H129 0.930 . S
C157 C156 1.358 . S
C157 C158 1.405 . S
C158 H130 0.932 . S
C158 C157 1.405 . S
C158 C159 1.383 . S
C159 C158 1.383 . S
C159 C160 1.393 . S
C160 H132 0.931 . S
C160 C159 1.393 . S
C160 C161 1.382 . S
C161 H131 0.929 . S
C161 C156 1.371 . S
C161 C160 1.382 . S
C162 N125 1.423 . S
C162 C163 1.362 . S
C162 C167 1.388 . S
C163 H133 0.929 . S
C163 C162 1.362 . S
C163 C164 1.376 . S
C164 H135 0.931 . S
C164 C163 1.376 . S
C164 C165 1.396 . S
C165 C164 1.396 . S
C165 C166 1.348 . S
C165 C183 1.472 . S
C166 H136 0.929 . S
C166 C165 1.348 . S
C166 C167 1.443 . S
C167 H134 0.932 . S
C167 C162 1.388 . S
C167 C166 1.443 . S
C168 N148 1.433 . S
C168 C169 1.363 . S
C168 C173 1.370 . S
C169 H137 0.929 . S
C169 C168 1.363 . S
C169 C170 1.385 . S
C170 H138 0.930 . S
C170 C169 1.385 . S
C170 C171 1.357 . S
C171 C170 1.357 . S
C171 C172 1.406 . S
C172 H139 0.929 . S
C172 C171 1.406 . S
C172 C173 1.391 . S
C173 H140 0.931 . S
C173 C168 1.370 . S
C173 C172 1.391 . S
C174 N148 1.435 . S
C174 C175 1.358 . S
C174 C179 1.371 . S
C175 H141 0.930 . S
C175 C174 1.358 . S
C175 C176 1.405 . S
C176 H142 0.932 . S
C176 C175 1.405 . S
C176 C177 1.383 . S
C177 C176 1.383 . S
C177 C178 1.393 . S
C178 H143 0.931 . S
C178 C177 1.393 . S
C178 C179 1.382 . S
C179 H144 0.929 . S
C179 C174 1.371 . S
C179 C178 1.382 . S
C180 N148 1.423 . S
C180 C181 1.362 . S
C180 C185 1.388 . S
C181 H145 0.929 . S
C181 C180 1.362 . S
C181 C182 1.376 . S
C182 H146 0.931 . S
C182 C181 1.376 . S
C182 C183 1.396 . S
C183 C165 1.472 . S
C183 C182 1.396 . S
C183 C184 1.348 . S
C184 H147 0.929 . S
C184 C183 1.348 . S
C184 C185 1.443 . S
C185 H149 0.932 . S
C185 C180 1.388 . S
C185 C184 1.443 . S
H186 C213 0.929 . S
N187 C212 1.433 . S
N187 C218 1.435 . S
N187 C224 1.423 . S
H188 C214 0.930 . S
H189 C217 0.931 . S
H190 C216 0.929 . S
H191 C219 0.930 . S
H192 C220 0.932 . S
H193 C223 0.929 . S
H194 C222 0.931 . S
H195 C225 0.929 . S
H196 C229 0.932 . S
H197 C226 0.931 . S
H198 C228 0.929 . S
H199 C231 0.929 . S
H200 C232 0.930 . S
H201 C234 0.929 . S
H202 C235 0.931 . S
H203 C237 0.930 . S
H204 C238 0.932 . S
H205 C240 0.931 . S
H206 C241 0.929 . S
H207 C243 0.929 . S
H208 C244 0.931 . S
H209 C246 0.929 . S
N210 C230 1.433 . S
N210 C236 1.435 . S
N210 C242 1.423 . S
H211 C247 0.932 . S
C212 N187 1.433 . S
C212 C213 1.363 . S
C212 C217 1.370 . S
C213 H186 0.929 . S
C213 C212 1.363 . S
C213 C214 1.385 . S
C214 H188 0.930 . S
C214 C213 1.385 . S
C214 C215 1.357 . S
C215 C214 1.357 . S
C215 C216 1.406 . S
C216 H190 0.929 . S
C216 C215 1.406 . S
C216 C217 1.391 . S
C217 H189 0.931 . S
C217 C212 1.370 . S
C217 C216 1.391 . S
C218 N187 1.435 . S
C218 C219 1.358 . S
C218 C223 1.371 . S
C219 H191 0.930 . S
C219 C218 1.358 . S
C219 C220 1.405 . S
C220 H192 0.932 . S
C220 C219 1.405 . S
C220 C221 1.383 . S
C221 C220 1.383 . S
C221 C222 1.393 . S
C222 H194 0.931 . S
C222 C221 1.393 . S
C222 C223 1.382 . S
C223 H193 0.929 . S
C223 C218 1.371 . S
C223 C222 1.382 . S
C224 N187 1.423 . S
C224 C225 1.362 . S
C224 C229 1.388 . S
C225 H195 0.929 . S
C225 C224 1.362 . S
C225 C226 1.376 . S
C226 H197 0.931 . S
C226 C225 1.376 . S
C226 C227 1.396 . S
C227 C226 1.396 . S
C227 C228 1.348 . S
C227 C245 1.472 1_455 S
C228 H198 0.929 . S
C228 C227 1.348 . S
C228 C229 1.443 . S
C229 H196 0.932 . S
C229 C224 1.388 . S
C229 C228 1.443 . S
C230 N210 1.433 . S
C230 C231 1.363 . S
C230 C235 1.370 . S
C231 H199 0.929 . S
C231 C230 1.363 . S
C231 C232 1.385 . S
C232 H200 0.930 . S
C232 C231 1.385 . S
C232 C233 1.357 . S
C233 C232 1.357 . S
C233 C234 1.406 . S
C234 H201 0.929 . S
C234 C233 1.406 . S
C234 C235 1.391 . S
C235 H202 0.931 . S
C235 C230 1.370 . S
C235 C234 1.391 . S
C236 N210 1.435 . S
C236 C237 1.358 . S
C236 C241 1.371 . S
C237 H203 0.930 . S
C237 C236 1.358 . S
C237 C238 1.405 . S
C238 H204 0.932 . S
C238 C237 1.405 . S
C238 C239 1.383 . S
C239 C238 1.383 . S
C239 C240 1.393 . S
C240 H205 0.931 . S
C240 C239 1.393 . S
C240 C241 1.382 . S
C241 H206 0.929 . S
C241 C236 1.371 . S
C241 C240 1.382 . S
C242 N210 1.423 . S
C242 C243 1.362 . S
C242 C247 1.388 . S
C243 H207 0.929 . S
C243 C242 1.362 . S
C243 C244 1.376 . S
C244 H208 0.931 . S
C244 C243 1.376 . S
C244 C245 1.396 . S
C245 C227 1.472 1_655 S
C245 C244 1.396 . S
C245 C246 1.348 . S
C246 H209 0.929 . S
C246 C245 1.348 . S
C246 C247 1.443 . S
C247 H211 0.932 . S
C247 C242 1.388 . S
C247 C246 1.443 . S
H248 C275 0.929 . S
N249 C274 1.433 . S
N249 C280 1.435 . S
N249 C286 1.423 . S
H250 C276 0.930 . S
H251 C279 0.931 . S
H252 C278 0.929 . S
H253 C281 0.930 . S
H254 C282 0.932 . S
H255 C285 0.929 . S
H256 C284 0.931 . S
H257 C287 0.929 . S
H258 C291 0.932 . S
H259 C288 0.931 . S
H260 C290 0.929 . S
H261 C293 0.929 . S
H262 C294 0.930 . S
H263 C296 0.929 . S
H264 C297 0.931 . S
H265 C299 0.930 . S
H266 C300 0.932 . S
H267 C302 0.931 . S
H268 C303 0.929 . S
H269 C305 0.929 . S
H270 C306 0.942 . S
H271 C308 0.929 . S
N272 C292 1.433 . S
N272 C298 1.435 1_554 S
N272 C304 1.415 1_554 S
H273 C309 0.932 . S
C274 N249 1.433 . S
C274 C275 1.363 . S
C274 C279 1.370 . S
C275 H248 0.929 . S
C275 C274 1.363 . S
C275 C276 1.385 . S
C276 H250 0.930 . S
C276 C275 1.385 . S
C276 C277 1.357 1_556 S
C277 C276 1.357 1_554 S
C277 C278 1.406 . S
C278 H252 0.929 . S
C278 C277 1.406 . S
C278 C279 1.391 1_554 S
C279 H251 0.931 . S
C279 C274 1.370 . S
C279 C278 1.391 1_556 S
C280 N249 1.435 . S
C280 C281 1.358 . S
C280 C285 1.371 . S
C281 H253 0.930 . S
C281 C280 1.358 . S
C281 C282 1.405 . S
C282 H254 0.932 . S
C282 C281 1.405 . S
C282 C283 1.383 . S
C283 C282 1.383 . S
C283 C284 1.393 . S
C284 H256 0.931 . S
C284 C283 1.393 . S
C284 C285 1.382 . S
C285 H255 0.929 . S
C285 C280 1.371 . S
C285 C284 1.382 . S
C286 N249 1.423 . S
C286 C287 1.362 . S
C286 C291 1.388 . S
C287 H257 0.929 . S
C287 C286 1.362 . S
C287 C288 1.376 . S
C288 H259 0.931 . S
C288 C287 1.376 . S
C288 C289 1.396 . S
C289 C288 1.396 . S
C289 C290 1.348 . S
C289 C307 1.472 1_545 S
C290 H260 0.929 . S
C290 C289 1.348 . S
C290 C291 1.443 . S
C291 H258 0.932 . S
C291 C286 1.388 . S
C291 C290 1.443 . S
C292 N272 1.433 . S
C292 C293 1.363 . S
C292 C297 1.370 . S
C293 H261 0.929 . S
C293 C292 1.363 . S
C293 C294 1.385 . S
C294 H262 0.930 . S
C294 C293 1.385 . S
C294 C295 1.357 . S
C295 C294 1.357 . S
C295 C296 1.406 . S
C296 H263 0.929 . S
C296 C295 1.406 . S
C296 C297 1.391 . S
C297 H264 0.931 . S
C297 C292 1.370 . S
C297 C296 1.391 . S
C298 N272 1.435 1_556 S
C298 C299 1.358 1_556 S
C298 C303 1.371 . S
C299 H265 0.930 . S
C299 C298 1.358 1_554 S
C299 C300 1.405 1_554 S
C300 H266 0.932 . S
C300 C299 1.405 1_556 S
C300 C301 1.383 . S
C301 C300 1.383 . S
C301 C302 1.393 . S
C302 H267 0.931 . S
C302 C301 1.393 . S
C302 C303 1.382 . S
C303 H268 0.929 . S
C303 C298 1.371 . S
C303 C302 1.382 . S
C304 N272 1.415 1_556 S
C304 C305 1.354 1_556 S
C304 C309 1.405 . S
C305 H269 0.929 . S
C305 C304 1.354 1_554 S
C305 C306 1.386 . S
C306 H270 0.942 . S
C306 C305 1.386 . S
C306 C307 1.376 1_554 S
C307 C289 1.472 1_565 S
C307 C306 1.376 1_556 S
C307 C308 1.348 . S
C308 H271 0.929 . S
C308 C307 1.348 . S
C308 C309 1.443 . S
C309 H273 0.932 . S
C309 C304 1.405 . S
C309 C308 1.443 . S
H310 C337 0.929 . S
N311 C336 1.433 . S
N311 C342 1.435 . S
N311 C348 1.423 . S
H312 C338 0.930 . S
H313 C341 0.931 . S
H314 C340 0.929 . S
H315 C343 0.930 . S
H316 C344 0.932 . S
H317 C347 0.929 . S
H318 C346 0.931 . S
H319 C349 0.929 . S
H320 C353 0.932 . S
H321 C350 0.931 . S
H322 C352 0.929 . S
H323 C355 0.929 . S
H324 C356 0.930 . S
H325 C358 0.929 . S
H326 C359 0.931 . S
H327 C361 0.930 . S
H328 C362 0.932 . S
H329 C364 0.931 . S
H330 C365 0.929 . S
H331 C367 0.929 . S
H332 C368 0.931 . S
H333 C370 0.929 . S
N334 C354 1.433 . S
N334 C360 1.435 . S
N334 C366 1.423 . S
H335 C371 0.932 . S
C336 N311 1.433 . S
C336 C337 1.363 . S
C336 C341 1.370 . S
C337 H310 0.929 . S
C337 C336 1.363 . S
C337 C338 1.385 . S
C338 H312 0.930 . S
C338 C337 1.385 . S
C338 C339 1.357 . S
C339 C338 1.357 . S
C339 C340 1.406 . S
C340 H314 0.929 . S
C340 C339 1.406 . S
C340 C341 1.391 . S
C341 H313 0.931 . S
C341 C336 1.370 . S
C341 C340 1.391 . S
C342 N311 1.435 . S
C342 C343 1.358 . S
C342 C347 1.371 . S
C343 H315 0.930 . S
C343 C342 1.358 . S
C343 C344 1.405 . S
C344 H316 0.932 . S
C344 C343 1.405 . S
C344 C345 1.383 . S
C345 C344 1.383 . S
C345 C346 1.393 . S
C346 H318 0.931 . S
C346 C345 1.393 . S
C346 C347 1.382 . S
C347 H317 0.929 . S
C347 C342 1.371 . S
C347 C346 1.382 . S
C348 N311 1.423 . S
C348 C349 1.362 . S
C348 C353 1.388 . S
C349 H319 0.929 . S
C349 C348 1.362 . S
C349 C350 1.376 . S
C350 H321 0.931 . S
C350 C349 1.376 . S
C350 C351 1.396 . S
C351 C350 1.396 . S
C351 C352 1.348 . S
C351 C369 1.472 . S
C352 H322 0.929 . S
C352 C351 1.348 . S
C352 C353 1.443 . S
C353 H320 0.932 . S
C353 C348 1.388 . S
C353 C352 1.443 . S
C354 N334 1.433 . S
C354 C355 1.363 . S
C354 C359 1.370 . S
C355 H323 0.929 . S
C355 C354 1.363 . S
C355 C356 1.385 1_554 S
C356 H324 0.930 . S
C356 C355 1.385 1_556 S
C356 C357 1.357 . S
C357 C356 1.357 . S
C357 C358 1.406 . S
C358 H325 0.929 . S
C358 C357 1.406 . S
C358 C359 1.391 1_556 S
C359 H326 0.931 . S
C359 C354 1.370 . S
C359 C358 1.391 1_554 S
C360 N334 1.435 . S
C360 C361 1.358 . S
C360 C365 1.371 . S
C361 H327 0.930 . S
C361 C360 1.358 . S
C361 C362 1.405 . S
C362 H328 0.932 . S
C362 C361 1.405 . S
C362 C363 1.383 . S
C363 C362 1.383 . S
C363 C364 1.393 . S
C364 H329 0.931 . S
C364 C363 1.393 . S
C364 C365 1.382 . S
C365 H330 0.929 . S
C365 C360 1.371 . S
C365 C364 1.382 . S
C366 N334 1.423 . S
C366 C367 1.362 . S
C366 C371 1.388 . S
C367 H331 0.929 . S
C367 C366 1.362 . S
C367 C368 1.376 . S
C368 H332 0.931 . S
C368 C367 1.376 . S
C368 C369 1.396 . S
C369 C351 1.472 . S
C369 C368 1.396 . S
C369 C370 1.348 . S
C370 H333 0.929 . S
C370 C369 1.348 . S
C370 C371 1.443 . S
C371 H335 0.932 . S
C371 C366 1.388 . S
C371 C370 1.443 . S
C372 O373 1.306 . S
C372 O375 1.160 . S
O373 C372 1.306 . S
O373 Cd374 2.228 . S
Cd374 O373 2.228 . S
Cd374 O378 2.273 . S
Cd374 O382 2.277 . S
O375 C372 1.160 . S
O375 Cd376 2.203 . S
Cd376 O375 2.203 . S
Cd376 O378 2.411 . S
Cd376 O379 2.333 . S
Cd376 O380 2.352 . S
Cd376 O384 2.277 . S
Cd376 O385 2.356 . S
C377 O382 1.209 . S
C377 O384 1.226 . S
O378 Cd374 2.273 . S
O378 Cd376 2.411 . S
O378 C381 1.320 . S
O379 Cd376 2.333 . S
O379 C381 1.214 . S
O380 Cd376 2.352 . S
O380 C383 1.258 . S
C381 O378 1.320 . S
C381 O379 1.214 . S
O382 Cd374 2.277 . S
O382 C377 1.209 . S
C383 O380 1.258 . S
C383 O385 1.282 . S
O384 Cd376 2.277 . S
O384 C377 1.226 . S
O385 Cd376 2.356 . S
O385 C383 1.282 . S
C386 O387 1.306 . S
C386 O389 1.160 . S
O387 C386 1.306 . S
O387 Cd388 2.228 . S
Cd388 O387 2.228 . S
Cd388 O392 2.273 . S
Cd388 O396 2.277 . S
O389 C386 1.160 . S
O389 Cd390 2.203 . S
Cd390 O389 2.203 . S
Cd390 O392 2.411 . S
Cd390 O393 2.333 . S
Cd390 O394 2.352 . S
Cd390 O398 2.277 . S
Cd390 O399 2.356 . S
C391 O396 1.209 . S
C391 O398 1.226 . S
O392 Cd388 2.273 . S
O392 Cd390 2.411 . S
O392 C395 1.320 . S
O393 Cd390 2.333 . S
O393 C395 1.214 . S
O394 Cd390 2.352 . S
O394 C397 1.258 . S
C395 O392 1.320 . S
C395 O393 1.214 . S
O396 Cd388 2.277 . S
O396 C391 1.209 . S
C397 O394 1.258 . S
C397 O399 1.282 . S
O398 Cd390 2.277 . S
O398 C391 1.226 . S
O399 Cd390 2.356 . S
O399 C397 1.282 . S
C400 O401 1.306 . S
C400 O403 1.160 . S
O401 C400 1.306 . S
O401 Cd402 2.228 . S
Cd402 O401 2.228 . S
Cd402 O406 2.273 . S
Cd402 O410 2.277 . S
O403 C400 1.160 . S
O403 Cd404 2.203 . S
Cd404 O403 2.203 . S
Cd404 O406 2.411 . S
Cd404 O407 2.333 . S
Cd404 O408 2.352 . S
Cd404 O412 2.277 . S
Cd404 O413 2.356 . S
C405 O410 1.209 . S
C405 O412 1.226 . S
O406 Cd402 2.273 . S
O406 Cd404 2.411 . S
O406 C409 1.320 . S
O407 Cd404 2.333 . S
O407 C409 1.214 . S
O408 Cd404 2.352 . S
O408 C411 1.258 . S
C409 O406 1.320 . S
C409 O407 1.214 . S
O410 Cd402 2.277 . S
O410 C405 1.209 . S
C411 O408 1.258 . S
C411 O413 1.282 . S
O412 Cd404 2.277 . S
O412 C405 1.226 . S
O413 Cd404 2.356 . S
O413 C411 1.282 . S
C414 O415 1.306 . S
C414 O417 1.160 . S
O415 C414 1.306 . S
O415 Cd416 2.228 . S
Cd416 O415 2.228 . S
Cd416 O420 2.273 . S
Cd416 O424 2.277 . S
O417 C414 1.160 . S
O417 Cd418 2.203 . S
Cd418 O417 2.203 . S
Cd418 O420 2.411 . S
Cd418 O421 2.333 . S
Cd418 O422 2.352 . S
Cd418 O426 2.277 . S
Cd418 O427 2.356 . S
C419 O424 1.209 . S
C419 O426 1.226 . S
O420 Cd416 2.273 . S
O420 Cd418 2.411 . S
O420 C423 1.320 . S
O421 Cd418 2.333 . S
O421 C423 1.214 . S
O422 Cd418 2.352 . S
O422 C425 1.258 . S
C423 O420 1.320 . S
C423 O421 1.214 . S
O424 Cd416 2.277 . S
O424 C419 1.209 . S
C425 O422 1.258 . S
C425 O427 1.282 . S
O426 Cd418 2.277 . S
O426 C419 1.226 . S
O427 Cd418 2.356 . S
O427 C425 1.282 . S
C428 O429 1.306 . S
C428 O431 1.160 . S
O429 C428 1.306 . S
O429 Cd430 2.228 . S
Cd430 O429 2.228 . S
Cd430 O434 2.273 . S
Cd430 O438 2.277 . S
O431 C428 1.160 . S
O431 Cd432 2.203 . S
Cd432 O431 2.203 . S
Cd432 O434 2.411 . S
Cd432 O435 2.333 . S
Cd432 O436 2.352 . S
Cd432 O440 2.277 . S
Cd432 O441 2.356 . S
C433 O438 1.209 . S
C433 O440 1.226 . S
O434 Cd430 2.273 . S
O434 Cd432 2.411 . S
O434 C437 1.320 1_554 S
O435 Cd432 2.333 . S
O435 C437 1.214 1_554 S
O436 Cd432 2.352 . S
O436 C439 1.258 . S
C437 O434 1.320 1_556 S
C437 O435 1.214 1_556 S
O438 Cd430 2.277 . S
O438 C433 1.209 . S
C439 O436 1.258 . S
C439 O441 1.282 . S
O440 Cd432 2.277 . S
O440 C433 1.226 . S
O441 Cd432 2.356 . S
O441 C439 1.282 . S
C442 O443 1.306 . S
C442 O445 1.160 . S
O443 C442 1.306 . S
O443 Cd444 2.228 . S
Cd444 O443 2.228 . S
Cd444 O448 2.273 . S
Cd444 O452 2.277 . S
O445 C442 1.160 . S
O445 Cd446 2.203 . S
Cd446 O445 2.203 . S
Cd446 O448 2.411 . S
Cd446 O449 2.333 . S
Cd446 O450 2.352 . S
Cd446 O454 2.277 . S
Cd446 O455 2.356 . S
C447 O452 1.209 . S
C447 O454 1.226 . S
O448 Cd444 2.273 . S
O448 Cd446 2.411 . S
O448 C451 1.320 . S
O449 Cd446 2.333 . S
O449 C451 1.214 . S
O450 Cd446 2.352 . S
O450 C453 1.258 . S
C451 O448 1.320 . S
C451 O449 1.214 . S
O452 Cd444 2.277 . S
O452 C447 1.209 . S
C453 O450 1.258 . S
C453 O455 1.282 . S
O454 Cd446 2.277 . S
O454 C447 1.226 . S
O455 Cd446 2.356 . S
O455 C453 1.282 . S
C442 C29 2.017 . S
C115 C383 2.133 . S
C153 C386 1.804 . S
C239 C400 2.117 . S
C425 C301 2.098 . S
C339 C428 2.322 . S
C91 C397 1.820 . S
C177 C411 2.050 . S
C215 C414 1.959 . S
C439 C277 2.276 . S
C453 C363 2.053 . S
C372 C53 2.027 . S
C35 C395 1.777 . S
C109 C409 1.345 . S
C419 C159 1.790 . S
C233 C437 1.726 . S
C451 C295 1.367 . S
C377 C345 1.821 . S
C447 C97 1.760 . S
C171 C381 1.322 . S
C391 C221 1.790 . S
C283 C405 1.736 . S
C357 C423 1.416 . S
C47 C433 1.765 . S
