# Generated by pormake.
# Topology anh, (6,3)-cn, num edge types: 1
# Building blocks:
#     Node 0, Type 0, BuildingBlock: BETDIP_clean_sbu_0, # of connection points: 6
#     Node 1, Type 0, BuildingBlock: BETDIP_clean_sbu_0, # of connection points: 6
#     Node 2, Type 0, BuildingBlock: BETDIP_clean_sbu_0, # of connection points: 6
#     Node 3, Type 1, BuildingBlock: BETDAH_clean_linker_0, # of connection points: 3
#     Node 4, Type 1, BuildingBlock: BETDAH_clean_linker_0, # of connection points: 3
#     Node 5, Type 1, BuildingBlock: BETDAH_clean_linker_0, # of connection points: 3
#     Node 6, Type 1, BuildingBlock: BETDAH_clean_linker_0, # of connection points: 3
#     Node 7, Type 1, BuildingBlock: BETDAH_clean_linker_0, # of connection points: 3
#     Node 8, Type 1, BuildingBlock: BETDAH_clean_linker_0, # of connection points: 3
#     Edge 9, Type (0, 1), BuildingBlock: MIFKUJ_clean_linker_0, # of connection points: 2
#     Edge 10, Type (0, 1), BuildingBlock: MIFKUJ_clean_linker_0, # of connection points: 2
#     Edge 11, Type (0, 1), BuildingBlock: MIFKUJ_clean_linker_0, # of connection points: 2
#     Edge 12, Type (0, 1), BuildingBlock: MIFKUJ_clean_linker_0, # of connection points: 2
#     Edge 13, Type (0, 1), BuildingBlock: MIFKUJ_clean_linker_0, # of connection points: 2
#     Edge 14, Type (0, 1), BuildingBlock: MIFKUJ_clean_linker_0, # of connection points: 2
#     Edge 15, Type (0, 1), BuildingBlock: MIFKUJ_clean_linker_0, # of connection points: 2
#     Edge 16, Type (0, 1), BuildingBlock: MIFKUJ_clean_linker_0, # of connection points: 2
#     Edge 17, Type (0, 1), BuildingBlock: MIFKUJ_clean_linker_0, # of connection points: 2
#     Edge 18, Type (0, 1), BuildingBlock: MIFKUJ_clean_linker_0, # of connection points: 2
#     Edge 19, Type (0, 1), BuildingBlock: MIFKUJ_clean_linker_0, # of connection points: 2
#     Edge 20, Type (0, 1), BuildingBlock: MIFKUJ_clean_linker_0, # of connection points: 2
#     Edge 21, Type (0, 1), BuildingBlock: MIFKUJ_clean_linker_0, # of connection points: 2
#     Edge 22, Type (0, 1), BuildingBlock: MIFKUJ_clean_linker_0, # of connection points: 2
#     Edge 23, Type (0, 1), BuildingBlock: MIFKUJ_clean_linker_0, # of connection points: 2
#     Edge 24, Type (0, 1), BuildingBlock: MIFKUJ_clean_linker_0, # of connection points: 2
#     Edge 25, Type (0, 1), BuildingBlock: MIFKUJ_clean_linker_0, # of connection points: 2
#     Edge 26, Type (0, 1), BuildingBlock: MIFKUJ_clean_linker_0, # of connection points: 2
# Relax obj value: 0.186
# Max RMSD: 0.144
# Mean RMSD: 0.111
data_MOF--net-anh--node1-BETDIP_clean_sbu_0--node2-BETDAH_clean_linker_0--edge1-MIFKUJ_clean_linker_0
_symmetry_space_group_name_H-M    P1
_symmetry_Int_Tables_number       1
_symmetry_cell_setting            triclinic
loop_
_symmetry_equiv_pos_as_xyz
'x, y, z'
_cell_length_a     40.540474
_cell_length_b     40.516881
_cell_length_c     64.394813
_cell_angle_alpha  92.075502
_cell_angle_beta   91.442941
_cell_angle_gamma 119.82894
loop_
_atom_site_label
_atom_site_type_symbol
_atom_site_fract_x
_atom_site_fract_y
_atom_site_fract_z
_atom_type_partial_charge
Tb0 Tb 0.1239 0.62099 0.16635 0.0
Tb1 Tb 0.08771 0.53871 0.15612 0.0
C2 C 0.16244 0.68641 0.18374 0.0
C3 C 0.20055 0.71903 0.18179 0.0
C4 C 0.21312 0.75117 0.19536 0.0
C5 C 0.24695 0.78448 0.19201 0.0
C6 C 0.26862 0.7862 0.17492 0.0
C7 C 0.2568 0.75325 0.1619 0.0
C8 C 0.2229 0.71985 0.16531 0.0
C9 C 0.10866 0.60156 0.12648 0.0
C10 C 0.17836 0.58261 0.15841 0.0
C11 C 1.04965 0.47386 0.13789 0.0
C12 C 1.01675 0.45729 0.12298 0.0
C13 C 0.99608 0.41787 0.11875 0.0
C14 C 0.96267 0.40163 0.10611 0.0
C15 C 0.94915 0.4246 0.09772 0.0
C16 C 0.97122 0.46437 0.10112 0.0
C17 C 1.00491 0.48056 0.11349 0.0
C18 C 0.10254 0.55799 0.19651 0.0
C19 C 1.03485 0.57853 0.15863 0.0
O20 O 0.16047 0.65594 0.19133 0.0
O21 O 0.13925 0.67839 0.16748 0.0
O22 O 0.12072 0.58763 0.13967 0.0
O23 O 0.10753 0.63027 0.13516 0.0
O24 O 0.17585 0.61373 0.16352 0.0
O25 O 0.14661 0.54941 0.15447 0.0
O26 O 0.08095 0.50132 0.13102 0.0
O27 O 1.04337 0.48199 0.15673 0.0
O28 O 0.08998 0.57215 0.18349 0.0
O29 O 0.1051 0.53051 0.18712 0.0
O30 O 1.03968 0.55071 0.15022 0.0
O31 O 1.06409 0.60752 0.16926 0.0
H32 H 0.19614 0.7509 0.20816 0.0
H33 H 0.25576 0.80919 0.20255 0.0
H34 H 0.27283 0.75377 0.1486 0.0
H35 H 0.21338 0.69517 0.15464 0.0
H36 H 1.00501 0.39953 0.12582 0.0
H37 H 0.94624 0.37088 0.10407 0.0
H38 H 0.96172 0.48289 0.09491 0.0
H39 H 1.02098 0.51116 0.11617 0.0
Tb40 Tb 0.59223 0.05567 0.49934 0.0
Tb41 Tb 0.54759 0.09217 0.48922 0.0
C42 C 0.61795 1.01939 0.51819 0.0
C43 C 0.61305 0.98075 0.51835 0.0
C44 C 0.60054 0.9599 0.53622 0.0
C45 C 0.60177 0.92622 0.53798 0.0
C46 C 0.61593 0.91295 0.52194 0.0
C47 C 0.62645 0.93284 0.5036 0.0
C48 C 0.62494 0.96627 0.50179 0.0
C49 C 0.58724 0.06354 0.45955 0.0
C50 C 0.49957 1.00156 0.48926 0.0
C51 C 0.52078 0.13167 0.47505 0.0
C52 C 0.53683 0.17281 0.47358 0.0
C53 C 0.51762 0.1872 0.46189 0.0
C54 C 0.53403 0.22657 0.46004 0.0
C55 C 0.57038 0.25153 0.46922 0.0
C56 C 0.58903 0.23696 0.48122 0.0
C57 C 0.57209 0.19801 0.48366 0.0
C58 C 0.55599 0.08472 0.52952 0.0
C59 C 0.6405 0.14439 0.49229 0.0
O60 O 0.59035 1.02418 0.52505 0.0
O61 O 0.63286 1.03864 0.5018 0.0
O62 O 0.56103 0.05518 0.47202 0.0
O63 O 0.61568 0.06302 0.4688 0.0
O64 O 0.5325 1.00428 0.496 0.0
O65 O 0.49943 1.03297 0.484 0.0
O66 O 0.5365 0.11646 0.46363 0.0
O67 O 0.51621 0.11993 0.49393 0.0
O68 O 0.58126 0.0948 0.51635 0.0
O69 O 0.52491 0.0794 0.52029 0.0
O70 O 0.60721 0.14019 0.48547 0.0
O71 O 0.64083 0.11538 0.50121 0.0
H72 H 0.59125 0.97047 0.54919 0.0
H73 H 0.59293 0.91134 0.5522 0.0
H74 H 0.63809 0.92397 0.49104 0.0
H75 H 0.63486 0.98163 0.48779 0.0
H76 H 0.49017 0.16807 0.45415 0.0
H77 H 0.51906 0.23741 0.45091 0.0
H78 H 0.61659 0.25583 0.48895 0.0
H79 H 0.58659 0.18761 0.49344 0.0
Tb80 Tb 0.5593 0.58004 0.82997 0.0
Tb81 Tb 0.64568 0.62493 0.82194 0.0
C82 C 0.49549 0.55502 0.84537 0.0
C83 C 0.46051 0.55733 0.84207 0.0
C84 C 0.4494 0.57426 0.85772 0.0
C85 C 0.41393 0.57213 0.85605 0.0
C86 C 0.38867 0.55261 0.8388 0.0
C87 C 0.40069 0.53732 0.82269 0.0
C88 C 0.43621 0.53971 0.82428 0.0
C89 C 0.57745 0.58671 0.79094 0.0
C90 C 0.60099 0.67289 0.82476 0.0
C91 C 0.70612 0.65073 0.80311 0.0
C92 C 0.73601 0.64053 0.80358 0.0
C93 C 0.76477 0.6548 0.78926 0.0
C94 C 0.79046 0.64122 0.78829 0.0
C95 C 0.78698 0.61277 0.80137 0.0
C96 C 0.7586 0.59925 0.81597 0.0
C97 C 0.73339 0.61308 0.8171 0.0
C98 C 0.63457 0.60947 0.86225 0.0
C99 C 0.60285 0.53276 0.82382 0.0
O100 O 0.52614 0.58583 0.85288 0.0
O101 O 0.50284 0.53662 0.83076 0.0
O102 O 0.59376 0.61069 0.80586 0.0
O103 O 0.54684 0.55798 0.79722 0.0
O104 O 0.56908 0.63997 0.82806 0.0
O105 O 0.63378 0.67323 0.82187 0.0
O106 O 0.67322 0.62325 0.79533 0.0
O107 O 0.70296 0.66713 0.82035 0.0
O108 O 0.61076 0.60109 0.84733 0.0
O109 O 0.66769 0.62789 0.85438 0.0
O110 O 0.63121 0.56419 0.81641 0.0
O111 O 0.57455 0.53441 0.83318 0.0
H112 H 0.4676 0.58802 0.87158 0.0
H113 H 0.40583 0.58478 0.86859 0.0
H114 H 0.3819 0.52165 0.80931 0.0
H115 H 0.44384 0.52633 0.81191 0.0
H116 H 0.76676 0.67566 0.77855 0.0
H117 H 0.81228 0.65207 0.77699 0.0
H118 H 0.7558 0.57776 0.82645 0.0
H119 H 0.71112 0.60155 0.82813 0.0
H120 H 0.53708 0.1149 0.238 0.0
H121 H 0.64009 0.22281 0.25132 0.0
H122 H 0.59426 0.18644 0.18856 0.0
C123 C 0.56057 0.14123 0.23312 0.0
C124 C 0.56319 0.1477 0.21185 0.0
C125 C 0.58853 0.1675 0.24777 0.0
C126 C 0.61773 0.20195 0.24067 0.0
C127 C 0.61956 0.20945 0.21953 0.0
C128 C 0.59264 0.18173 0.20505 0.0
N129 N 0.64926 0.24481 0.21331 0.0
C130 C 0.65714 0.25283 0.19265 0.0
H131 H 0.72543 0.57618 0.58608 0.0
H132 H 0.80818 0.69068 0.60758 0.0
H133 H 0.80844 0.65188 0.54484 0.0
C134 C 0.74966 0.60366 0.58319 0.0
C135 C 0.76535 0.61007 0.56352 0.0
C136 C 0.76485 0.63245 0.59923 0.0
C137 C 0.79695 0.66765 0.59566 0.0
C138 C 0.8127 0.6744 0.57611 0.0
C139 C 0.79695 0.64569 0.56013 0.0
N140 N 0.84012 0.7118 0.57151 0.0
C141 C 0.82769 0.73221 0.5601 0.0
H142 H 0.945 0.44805 0.92046 0.0
H143 H 0.97395 0.36043 0.92978 0.0
H144 H 0.95364 0.38479 0.86804 0.0
C145 C 0.94899 0.42505 0.91441 0.0
C146 C 0.94636 0.41765 0.89279 0.0
C147 C 0.95919 0.40491 0.92805 0.0
C148 C 0.96585 0.37629 0.91967 0.0
C149 C 0.96471 0.36971 0.8981 0.0
C150 C 0.95476 0.39025 0.88472 0.0
N151 N 0.97727 0.34518 0.88997 0.0
C152 C 1.00632 0.35902 0.87616 0.0
H153 H 0.1524 0.63839 0.421 0.0
H154 H 1.04292 0.53835 0.42726 0.0
H155 H 0.10616 0.61088 0.48155 0.0
C156 C 0.13007 0.61996 0.43093 0.0
C157 C 0.13419 0.62972 0.4524 0.0
C158 C 0.09733 0.58771 0.42178 0.0
C159 C 1.06775 0.5632 0.4344 0.0
C160 C 1.07039 0.57043 0.45614 0.0
C161 C 0.10374 0.60447 0.46493 0.0
N162 N 1.04071 0.54489 0.46952 0.0
C163 C 1.00624 0.50912 0.46518 0.0
H164 H 0.60149 0.17655 0.75244 0.0
H165 H 0.595 0.06887 0.76178 0.0
H166 H 0.5989 0.1398 0.81473 0.0
C167 C 0.60074 0.15615 0.76313 0.0
C168 C 0.60079 0.16372 0.78471 0.0
C169 C 0.59829 0.12221 0.7548 0.0
C170 C 0.59651 0.09466 0.76828 0.0
C171 C 0.5972 0.10043 0.79001 0.0
C172 C 0.59866 0.13501 0.79807 0.0
N173 N 0.59652 0.07263 0.80405 0.0
C174 C 0.59634 1.03746 0.79996 0.0
H175 H 0.6831 0.58033 0.08492 0.0
H176 H 0.57843 0.58199 0.09334 0.0
H177 H 0.64624 0.5836 0.14657 0.0
C178 C 0.66221 0.58032 0.09507 0.0
C179 C 0.66901 0.58085 0.1167 0.0
C180 C 0.63008 0.581 0.0863 0.0
C181 C 0.60351 0.58231 0.09978 0.0
C182 C 0.60865 0.58345 0.12158 0.0
C183 C 0.64192 0.583 0.12987 0.0
N184 N 0.58133 0.58472 0.13549 0.0
C185 C 0.54662 0.5853 0.13141 0.0
H186 H 0.19306 0.52502 0.14583 0.0
H187 H 0.25334 0.52669 0.14088 0.0
H188 H 0.31441 0.64593 0.16019 0.0
H189 H 0.25349 0.64452 0.16462 0.0
H190 H 0.35403 0.63863 0.13159 0.0
H191 H 0.30604 0.56522 0.19118 0.0
H192 H 0.25939 0.51366 0.21171 0.0
H193 H 0.25715 0.43005 0.16788 0.0
H194 H 0.30346 0.48113 0.14695 0.0
H195 H 0.53631 0.64595 0.14242 0.0
H196 H 0.47686 0.64701 0.14695 0.0
H197 H 0.4124 0.52776 0.12777 0.0
H198 H 0.47213 0.52672 0.1237 0.0
H199 H 0.37508 0.53619 0.15683 0.0
H200 H 0.4235 0.61064 0.09719 0.0
H201 H 0.47041 0.66282 0.07709 0.0
H202 H 0.47254 0.74526 0.12174 0.0
H203 H 0.42596 0.69355 0.14224 0.0
C204 C 0.21912 0.55181 0.14919 0.0
C205 C 0.21722 0.58453 0.15589 0.0
C206 C 0.2543 0.55269 0.14645 0.0
C207 C 0.29001 0.58625 0.1505 0.0
C208 C 0.28821 0.61923 0.15692 0.0
C209 C 0.25283 0.6184 0.1596 0.0
C210 C 0.32844 0.5868 0.14782 0.0
C211 C 0.35846 0.61633 0.13747 0.0
C212 C 0.33566 0.55777 0.15485 0.0
C213 C 0.30793 0.527 0.1674 0.0
C214 C 0.29541 0.53583 0.18585 0.0
C215 C 0.26906 0.5067 0.19757 0.0
C216 C 0.25524 0.4686 0.19107 0.0
C217 C 0.26784 0.45957 0.17288 0.0
C218 C 0.29416 0.4886 0.16109 0.0
C219 C 0.50954 0.61996 0.13884 0.0
C220 C 0.50986 0.58641 0.13227 0.0
C221 C 0.47495 0.62056 0.1414 0.0
C222 C 0.43859 0.58763 0.13745 0.0
C223 C 0.43909 0.55399 0.13098 0.0
C224 C 0.47374 0.55341 0.12845 0.0
C225 C 0.40063 0.58789 0.14048 0.0
C226 C 0.37067 0.55849 0.15093 0.0
C227 C 0.39356 0.61712 0.13362 0.0
C228 C 0.42156 0.64822 0.12136 0.0
C229 C 0.43418 0.6399 0.10279 0.0
C230 C 0.46067 0.66939 0.09132 0.0
C231 C 0.47453 0.70733 0.09817 0.0
C232 C 0.46183 0.71586 0.11648 0.0
C233 C 0.43537 0.68647 0.12802 0.0
H234 H 0.49503 0.73012 0.08926 0.0
H235 H 0.23484 0.44608 0.20016 0.0
H236 H 0.6513 0.21477 0.48047 0.0
H237 H 0.7099 0.27475 0.4765 0.0
H238 H 0.7756 0.22136 0.49229 0.0
H239 H 0.71655 0.16189 0.49778 0.0
H240 H 0.81698 0.28688 0.50643 0.0
H241 H 0.75688 0.25306 0.43698 0.0
H242 H 0.70504 0.23633 0.41054 0.0
H243 H 0.70537 0.34014 0.42705 0.0
H244 H 0.75709 0.35739 0.45364 0.0
H245 H 0.99471 0.43698 0.47157 0.0
H246 H 0.93482 0.37731 0.47551 0.0
H247 H 0.87196 0.4358 0.46572 0.0
H248 H 0.93205 0.49535 0.46139 0.0
H249 H 0.82913 0.36877 0.44851 0.0
H250 H 0.88968 0.40392 0.5166 0.0
H251 H 0.94097 0.42169 0.54352 0.0
H252 H 0.93875 0.31595 0.53028 0.0
H253 H 0.88773 0.29774 0.50311 0.0
C254 C 0.67804 0.21551 0.48328 0.0
C255 C 0.67797 0.18233 0.48964 0.0
C256 C 0.71237 0.25039 0.48059 0.0
C257 C 0.74897 0.25405 0.48332 0.0
C258 C 0.74883 0.22083 0.48983 0.0
C259 C 0.71444 0.18613 0.49297 0.0
C260 C 0.78681 0.29182 0.47981 0.0
C261 C 0.81932 0.30406 0.49343 0.0
C262 C 0.79152 0.31658 0.46341 0.0
C263 C 0.76069 0.3064 0.44735 0.0
C264 C 0.74583 0.27226 0.43498 0.0
C265 C 0.71651 0.26271 0.41997 0.0
C266 C 0.70199 0.2872 0.4171 0.0
C267 C 0.71673 0.32127 0.42925 0.0
C268 C 0.74609 0.33098 0.44426 0.0
C269 C 0.96819 0.43726 0.47003 0.0
C270 C 0.96908 0.47176 0.46589 0.0
C271 C 0.93336 0.4027 0.47258 0.0
C272 C 0.89735 0.40069 0.47141 0.0
C273 C 0.89835 0.4352 0.46684 0.0
C274 C 0.93322 0.46978 0.46429 0.0
C275 C 0.85928 0.36332 0.47492 0.0
C276 C 0.82676 0.35133 0.46139 0.0
C277 C 0.85452 0.33882 0.4914 0.0
C278 C 0.88519 0.34967 0.50767 0.0
C279 C 0.90033 0.38459 0.51933 0.0
C280 C 0.92931 0.39471 0.53465 0.0
C281 C 0.94319 0.37001 0.53856 0.0
C282 C 0.92802 0.33508 0.5272 0.0
C283 C 0.89906 0.32483 0.51185 0.0
H284 H 0.96562 0.3779 0.55043 0.0
H285 H 0.6793 0.27977 0.40546 0.0
H286 H 0.54054 0.68742 0.82954 0.0
H287 H 0.53901 0.74666 0.8255 0.0
H288 H 0.65683 0.80366 0.81027 0.0
H289 H 0.65866 0.74483 0.81488 0.0
H290 H 0.65019 0.85409 0.8309 0.0
H291 H 0.57079 0.77238 0.77324 0.0
H292 H 0.51738 0.71437 0.7559 0.0
H293 H 0.43783 0.73252 0.79026 0.0
H294 H 0.49082 0.79042 0.80799 0.0
H295 H 0.65478 1.02209 0.79312 0.0
H296 H 0.6553 0.96211 0.79668 0.0
H297 H 0.53811 0.90694 0.81312 0.0
H298 H 0.53755 0.96683 0.80909 0.0
H299 H 0.544 0.85547 0.79196 0.0
H300 H 0.62335 0.93722 0.84949 0.0
H301 H 0.67674 0.99499 0.86702 0.0
H302 H 0.75641 0.97658 0.83294 0.0
H303 H 0.70344 0.91892 0.81502 0.0
C304 C 0.56629 0.71244 0.82534 0.0
C305 C 0.59973 0.71021 0.82259 0.0
C306 C 0.56533 0.74685 0.82279 0.0
C307 C 0.59761 0.78095 0.81705 0.0
C308 C 0.63111 0.77874 0.81461 0.0
C309 C 0.63213 0.74445 0.81725 0.0
C310 C 0.59685 0.81854 0.8138 0.0
C311 C 0.62702 0.854 0.82207 0.0
C312 C 0.56666 0.82014 0.80276 0.0
C313 C 0.53478 0.7855 0.79208 0.0
C314 C 0.54192 0.76386 0.77718 0.0
C315 C 0.51172 0.73103 0.76728 0.0
C316 C 0.47424 0.71971 0.77202 0.0
C317 C 0.46688 0.74128 0.78663 0.0
C318 C 0.49697 0.77413 0.7966 0.0
C319 C 0.62892 0.99716 0.79732 0.0
C320 C 0.59603 1.0 0.80059 0.0
C321 C 0.6293 0.96242 0.79964 0.0
C322 C 0.59693 0.92869 0.80567 0.0
C323 C 0.56384 0.93156 0.80853 0.0
C324 C 0.56347 0.96628 0.80617 0.0
C325 C 0.59741 0.891 0.80899 0.0
C326 C 0.56718 0.85554 0.80076 0.0
C327 C 0.62756 0.88938 0.82005 0.0
C328 C 0.65942 0.924 0.83076 0.0
C329 C 0.65225 0.94565 0.84563 0.0
C330 C 0.68243 0.97835 0.85565 0.0
C331 C 0.71994 0.98951 0.85105 0.0
C332 C 0.72734 0.96794 0.83646 0.0
C333 C 0.69725 0.93524 0.82638 0.0
H334 H 0.74327 1.01483 0.85883 0.0
H335 H 0.4509 0.69427 0.76434 0.0
H336 H 0.96606 0.52206 0.13925 0.0
H337 H 0.90538 0.52085 0.13412 0.0
H338 H 0.95421 0.63224 0.16514 0.0
H339 H 1.01463 0.63285 0.17095 0.0
H340 H 0.88447 0.59659 0.17584 0.0
H341 H 0.93266 0.60845 0.10683 0.0
H342 H 0.95854 0.5877 0.07811 0.0
H343 H 0.85693 0.47801 0.07361 0.0
H344 H 0.83055 0.49803 0.10244 0.0
H345 H 0.73047 0.6298 0.14453 0.0
H346 H 0.79039 0.63019 0.152 0.0
H347 H 0.74911 0.52684 0.11344 0.0
H348 H 0.69057 0.52806 0.10505 0.0
H349 H 0.81578 0.55836 0.10677 0.0
H350 H 0.76618 0.54319 0.17464 0.0
H351 H 0.7407 0.5584 0.20567 0.0
H352 H 0.8426 0.66741 0.21438 0.0
H353 H 0.86851 0.653 0.18327 0.0
C354 C 0.96418 0.54646 0.14507 0.0
C355 C 0.99638 0.57761 0.15557 0.0
C356 C 0.92895 0.54594 0.1419 0.0
C357 C 0.92395 0.57687 0.14867 0.0
C358 C 0.95602 0.60773 0.15947 0.0
C359 C 0.99119 0.60813 0.16279 0.0
C360 C 0.88605 0.57726 0.14454 0.0
C361 C 0.86995 0.58867 0.16058 0.0
C362 C 0.86507 0.56599 0.12495 0.0
C363 C 0.87973 0.5547 0.10681 0.0
C364 C 0.91579 0.57996 0.09965 0.0
C365 C 0.93057 0.56831 0.0834 0.0
C366 C 0.90939 0.53158 0.07407 0.0
C367 C 0.87325 0.50648 0.08085 0.0
C368 C 0.85833 0.518 0.09711 0.0
C369 C 0.73373 0.6067 0.13791 0.0
C370 C 0.70442 0.57858 0.12433 0.0
C371 C 0.76858 0.60675 0.1423 0.0
C372 C 0.77575 0.57806 0.13381 0.0
C373 C 0.74598 0.54975 0.12046 0.0
C374 C 0.71167 0.55019 0.11575 0.0
C375 C 0.81376 0.57769 0.13814 0.0
C376 C 0.83004 0.56631 0.12209 0.0
C377 C 0.83455 0.58838 0.15785 0.0
C378 C 0.81908 0.59718 0.1765 0.0
C379 C 0.78303 0.5705 0.1831 0.0
C380 C 0.76854 0.57896 0.20071 0.0
C381 C 0.78997 0.61389 0.21195 0.0
C382 C 0.826 0.64039 0.20564 0.0
C383 C 0.84062 0.63208 0.18803 0.0
H384 H 0.77869 0.62039 0.22558 0.0
H385 H 0.92104 0.52263 0.0616 0.0
H386 H 0.4247 0.98618 0.48399 0.0
H387 H 0.36507 0.925 0.47956 0.0
H388 H 0.428 0.86554 0.48337 0.0
H389 H 0.48792 0.92695 0.48828 0.0
H390 H 0.37059 0.83089 0.45178 0.0
H391 H 0.37343 0.86821 0.52382 0.0
H392 H 0.37779 0.91119 0.5532 0.0
H393 H 0.27886 0.91171 0.52822 0.0
H394 H 0.27421 0.86913 0.49852 0.0
H395 H 0.20844 0.64384 0.45401 0.0
H396 H 0.26818 0.70359 0.4617 0.0
H397 H 0.20503 0.76113 0.4743 0.0
H398 H 0.14501 0.70038 0.46767 0.0
H399 H 0.2633 0.7978 0.49761 0.0
H400 H 0.25972 0.76525 0.42559 0.0
H401 H 0.25406 0.72545 0.39432 0.0
H402 H 0.3522 0.72012 0.41611 0.0
H403 H 0.35813 0.75948 0.44767 0.0
C404 C 0.42622 0.96025 0.48399 0.0
C405 C 0.46221 0.96262 0.48663 0.0
C406 C 0.39152 0.9247 0.48148 0.0
C407 C 0.3907 0.88932 0.48115 0.0
C408 C 0.42669 0.89159 0.4835 0.0
C409 C 0.46144 0.92722 0.48642 0.0
C410 C 0.35282 0.85059 0.47832 0.0
C411 C 0.3475 0.82366 0.4621 0.0
C412 C 0.32106 0.84033 0.49099 0.0
C413 C 0.3237 0.86578 0.50885 0.0
C414 C 0.35278 0.87773 0.52451 0.0
C415 C 0.35527 0.90197 0.54123 0.0
C416 C 0.32868 0.91425 0.54255 0.0
C417 C 0.29947 0.90222 0.52717 0.0
C418 C 0.29687 0.878 0.51039 0.0
C419 C 0.20705 0.66897 0.45887 0.0
C420 C 0.17099 0.66617 0.46054 0.0
C421 C 0.24181 0.70396 0.46292 0.0
C422 C 0.24277 0.73879 0.46812 0.0
C423 C 0.20656 0.73576 0.47032 0.0
C424 C 0.17166 0.70045 0.46661 0.0
C425 C 0.28085 0.77766 0.47103 0.0
C426 C 0.28627 0.80477 0.48725 0.0
C427 C 0.31245 0.7885 0.45805 0.0
C428 C 0.30912 0.76497 0.43909 0.0
C429 C 0.27995 0.75539 0.42377 0.0
C430 C 0.27671 0.73293 0.40599 0.0
C431 C 0.30269 0.72018 0.40326 0.0
C432 C 0.33205 0.72996 0.41827 0.0
C433 C 0.33538 0.75236 0.4361 0.0
H434 H 0.30014 0.70279 0.38948 0.0
H435 H 0.33065 0.93302 0.55551 0.0
H436 H 0.55448 0.46174 0.83979 0.0
H437 H 0.55398 0.40108 0.83479 0.0
H438 H 0.65012 0.45462 0.79627 0.0
H439 H 0.65077 0.51531 0.8013 0.0
H440 H 0.60371 0.38599 0.77866 0.0
H441 H 0.65395 0.42669 0.84897 0.0
H442 H 0.65434 0.44762 0.88547 0.0
H443 H 0.55043 0.34357 0.89403 0.0
H444 H 0.54916 0.32223 0.85748 0.0
H445 H 0.64763 0.23626 0.77139 0.0
H446 H 0.648 0.29577 0.7791 0.0
H447 H 0.55916 0.2397 0.82187 0.0
H448 H 0.55959 0.17967 0.81449 0.0
H449 H 0.59941 0.3086 0.83748 0.0
H450 H 0.54786 0.26698 0.76807 0.0
H451 H 0.5452 0.24499 0.73152 0.0
H452 H 0.64741 0.3493 0.72083 0.0
H453 H 0.65102 0.37168 0.75741 0.0
C454 C 0.57578 0.46096 0.83031 0.0
C455 C 0.60277 0.49457 0.82113 0.0
C456 C 0.5756 0.42573 0.82748 0.0
C457 C 0.60228 0.42199 0.8152 0.0
C458 C 0.62897 0.45551 0.80584 0.0
C459 C 0.62941 0.4908 0.80884 0.0
C460 C 0.60224 0.3837 0.81194 0.0
C461 C 0.60331 0.36959 0.79168 0.0
C462 C 0.60051 0.36036 0.82847 0.0
C463 C 0.60126 0.37304 0.85044 0.0
C464 C 0.63103 0.4084 0.8586 0.0
C465 C 0.63144 0.42031 0.8793 0.0
C466 C 0.60237 0.39698 0.89204 0.0
C467 C 0.5729 0.36163 0.88413 0.0
C468 C 0.57233 0.3496 0.86343 0.0
C469 C 0.62805 0.23618 0.78254 0.0
C470 C 0.60337 0.20193 0.79206 0.0
C471 C 0.62801 0.27082 0.78687 0.0
C472 C 0.6027 0.27345 0.8007 0.0
C473 C 0.579 0.23963 0.81095 0.0
C474 C 0.57933 0.2048 0.80675 0.0
C475 C 0.60115 0.31095 0.80417 0.0
C476 C 0.59977 0.32492 0.82443 0.0
C477 C 0.60215 0.33401 0.7876 0.0
C478 C 0.59992 0.32084 0.76555 0.0
C479 C 0.5699 0.28513 0.75796 0.0
C480 C 0.56822 0.2726 0.73723 0.0
C481 C 0.59617 0.29569 0.72388 0.0
C482 C 0.62581 0.33142 0.7312 0.0
C483 C 0.62769 0.34405 0.75193 0.0
H484 H 0.59482 0.28594 0.70784 0.0
H485 H 0.60273 0.40626 0.90806 0.0
H486 H 0.64348 0.89839 0.55759 0.0
H487 H 0.67016 0.85653 0.56084 0.0
H488 H 0.63673 0.8163 0.49672 0.0
H489 H 0.60853 0.85715 0.49343 0.0
H490 H 0.64721 0.77698 0.55249 0.0
H491 H 0.71974 0.82727 0.47612 0.0
H492 H 0.73551 0.87875 0.45215 0.0
H493 H 0.74551 0.95447 0.50343 0.0
H494 H 0.73045 0.90366 0.5277 0.0
H495 H 0.76157 0.69209 0.53817 0.0
H496 H 0.71902 0.71546 0.52678 0.0
H497 H 0.80332 0.82948 0.54895 0.0
H498 H 0.84591 0.80601 0.56031 0.0
H499 H 0.76312 0.82652 0.51152 0.0
H500 H 0.73979 0.77453 0.5799 0.0
H501 H 0.72603 0.72224 0.60282 0.0
H502 H 0.61882 0.65155 0.56937 0.0
H503 H 0.6327 0.70294 0.54564 0.0
C504 C 0.64031 0.87958 0.54437 0.0
C505 C 0.62435 0.88165 0.52513 0.0
C506 C 0.65571 0.85569 0.54627 0.0
C507 C 0.65582 0.8338 0.52895 0.0
C508 C 0.63716 0.83331 0.51021 0.0
C509 C 0.62138 0.85691 0.50833 0.0
C510 C 0.68036 0.81642 0.52973 0.0
C511 C 0.67229 0.78742 0.54337 0.0
C512 C 0.71324 0.8304 0.51796 0.0
C513 C 0.72355 0.86155 0.50364 0.0
C514 C 0.7255 0.85498 0.48226 0.0
C515 C 0.7343 0.88402 0.46863 0.0
C516 C 0.74138 0.91982 0.47625 0.0
C517 C 0.73991 0.92671 0.49754 0.0
C518 C 0.73123 0.8978 0.51123 0.0
C519 C 0.7713 0.72231 0.54 0.0
C520 C 0.80674 0.7475 0.54993 0.0
C521 C 0.74705 0.73555 0.53357 0.0
C522 C 0.75797 0.77408 0.53721 0.0
C523 C 0.79451 0.79968 0.54596 0.0
C524 C 0.81874 0.78636 0.55244 0.0
C525 C 0.72999 0.78699 0.53423 0.0
C526 C 0.73758 0.8154 0.5203 0.0
C527 C 0.69678 0.77253 0.54582 0.0
C528 C 0.6875 0.74245 0.56082 0.0
C529 C 0.71339 0.74776 0.57733 0.0
C530 C 0.70562 0.71824 0.59043 0.0
C531 C 0.6716 0.68356 0.58753 0.0
C532 C 0.64522 0.67839 0.57156 0.0
C533 C 0.65308 0.70767 0.55822 0.0
H534 H 0.66563 0.66076 0.59773 0.0
H535 H 0.74808 0.94223 0.46567 0.0
H536 H 0.76694 0.53836 0.7964 0.0
H537 H 0.80747 0.51098 0.8037 0.0
H538 H 0.9054 0.62394 0.81171 0.0
H539 H 0.86461 0.6515 0.80455 0.0
H540 H 0.87383 0.51224 0.79238 0.0
H541 H 0.94782 0.62559 0.85858 0.0
H542 H 0.93973 0.67414 0.8785 0.0
H543 H 0.81827 0.60514 0.86935 0.0
H544 H 0.8257 0.55603 0.8497 0.0
H545 H 0.98057 0.45166 0.85731 0.0
H546 H 0.9646 0.4904 0.83528 0.0
H547 H 0.87321 0.47188 0.87484 0.0
H548 H 0.88907 0.43347 0.89683 0.0
H549 H 0.91484 0.54516 0.86713 0.0
H550 H 0.85688 0.42342 0.82739 0.0
H551 H 0.85793 0.36996 0.80844 0.0
H552 H 0.93655 0.44728 0.76633 0.0
H553 H 0.9363 0.50127 0.78521 0.0
C554 C 0.79732 0.55725 0.7991 0.0
C555 C 0.81272 0.59693 0.80034 0.0
C556 C 0.82049 0.54162 0.80308 0.0
C557 C 0.85929 0.56547 0.80852 0.0
C558 C 0.87544 0.60512 0.80762 0.0
C559 C 0.85221 0.62081 0.80355 0.0
C560 C 0.8802 0.54901 0.81901 0.0
C561 C 0.88356 0.51988 0.8086 0.0
C562 C 0.89221 0.55858 0.84027 0.0
C563 C 0.88738 0.58748 0.85247 0.0
C564 C 0.91943 0.6208 0.8609 0.0
C565 C 0.91494 0.64838 0.87214 0.0
C566 C 0.87851 0.64279 0.87512 0.0
C567 C 0.84647 0.6095 0.86698 0.0
C568 C 0.8508 0.58179 0.8558 0.0
C569 C 0.95684 0.45559 0.86113 0.0
C570 C 0.93606 0.43966 0.87879 0.0
C571 C 0.94785 0.47778 0.84859 0.0
C572 C 0.91777 0.48403 0.85345 0.0
C573 C 0.89678 0.46772 0.87093 0.0
C574 C 0.90583 0.44578 0.88347 0.0
C575 C 0.90781 0.50772 0.84065 0.0
C576 C 0.90647 0.5383 0.8507 0.0
C577 C 0.89694 0.49884 0.81922 0.0
C578 C 0.89694 0.46639 0.80785 0.0
C579 C 0.87462 0.42903 0.81419 0.0
C580 C 0.87503 0.39864 0.80344 0.0
C581 C 0.8974 0.40523 0.78624 0.0
C582 C 0.91931 0.44222 0.77969 0.0
C583 C 0.91903 0.47272 0.7904 0.0
H584 H 0.89768 0.38167 0.77794 0.0
H585 H 0.87512 0.66422 0.88378 0.0
H586 H 0.27439 0.85603 0.17615 0.0
H587 H 0.33021 0.91718 0.17071 0.0
H588 H 0.3943 0.86094 0.15658 0.0
H589 H 0.33842 0.79925 0.1628 0.0
H590 H 0.43257 0.9182 0.18403 0.0
H591 H 0.37303 0.90597 0.11838 0.0
H592 H 0.32128 0.89159 0.0924 0.0
H593 H 0.30709 0.98143 0.12013 0.0
H594 H 0.35834 0.99601 0.14648 0.0
H595 H 0.58075 0.10978 0.18269 0.0
H596 H 0.53607 0.04893 0.16405 0.0
H597 H 0.44177 0.05543 0.18929 0.0
H598 H 0.48635 0.11569 0.20827 0.0
H599 H 0.42901 1.02109 0.1462 0.0
H600 H 0.47464 1.01584 0.2171 0.0
H601 H 0.5264 1.03036 0.24315 0.0
H602 H 0.56723 0.97224 0.20355 0.0
H603 H 0.51595 0.95788 0.17713 0.0
C604 C 0.30035 0.8566 0.17191 0.0
C605 C 0.30218 0.82289 0.17019 0.0
C606 C 0.33209 0.89156 0.16843 0.0
C607 C 0.3663 0.89362 0.16289 0.0
C608 C 0.36807 0.85993 0.16066 0.0
C609 C 0.33616 0.82477 0.16418 0.0
C610 C 0.40083 0.93148 0.16174 0.0
C611 C 0.43227 0.94035 0.17518 0.0
C612 C 0.40045 0.96054 0.15031 0.0
C613 C 0.36955 0.95202 0.13447 0.0
C614 C 0.35873 0.92252 0.11903 0.0
C615 C 0.32949 0.91435 0.10422 0.0
C616 C 0.3109 0.93557 0.10462 0.0
C617 C 0.32155 0.96504 0.11982 0.0
C618 C 0.35076 0.97332 0.13468 0.0
C619 C 0.55042 0.09875 0.18361 0.0
C620 C 0.5367 0.11699 0.19687 0.0
C621 C 0.52504 0.06414 0.173 0.0
C622 C 0.48577 0.04783 0.1754 0.0
C623 C 0.472 0.06782 0.18717 0.0
C624 C 0.49736 0.10202 0.19804 0.0
C625 C 0.45948 1.00751 0.16896 0.0
C626 C 0.42972 0.99839 0.15427 0.0
C627 C 0.46142 0.97809 0.17908 0.0
C628 C 0.49184 0.98624 0.19506 0.0
C629 C 0.49485 1.00644 0.21389 0.0
C630 C 0.52407 1.01461 0.22872 0.0
C631 C 0.55018 1.00237 0.22497 0.0
C632 C 0.54705 0.9818 0.20641 0.0
C633 C 0.51793 0.97364 0.1915 0.0
H634 H 0.57278 1.00871 0.23648 0.0
H635 H 0.28827 0.92919 0.09314 0.0
H636 H 0.54328 0.2989 0.47959 0.0
H637 H 0.58058 0.3683 0.48433 0.0
H638 H 0.67731 0.3667 0.45879 0.0
H639 H 0.64023 0.29709 0.45469 0.0
H640 H 0.69557 0.39928 0.4954 0.0
H641 H 0.63556 0.41552 0.43589 0.0
H642 H 0.58286 0.40456 0.41144 0.0
H643 H 0.5354 0.44305 0.45896 0.0
H644 H 0.58748 0.45372 0.48381 0.0
H645 H 0.80159 0.59065 0.53422 0.0
H646 H 0.77264 0.53835 0.50755 0.0
H647 H 0.66106 0.50863 0.52788 0.0
H648 H 0.6896 0.56193 0.55381 0.0
H649 H 0.65937 0.49832 0.48629 0.0
H650 H 0.7108 0.46654 0.54674 0.0
H651 H 0.76191 0.47504 0.57175 0.0
H652 H 0.82409 0.46349 0.52168 0.0
H653 H 0.77354 0.45544 0.49635 0.0
C654 C 0.57207 0.31358 0.47434 0.0
C655 C 0.58916 0.29297 0.46702 0.0
C656 C 0.59337 0.35326 0.47694 0.0
C657 C 0.63182 0.37281 0.4719 0.0
C658 C 0.64777 0.35225 0.46283 0.0
C659 C 0.62665 0.31259 0.4605 0.0
C660 C 0.65675 0.41302 0.4796 0.0
C661 C 0.68825 0.42124 0.49284 0.0
C662 C 0.64684 0.44151 0.47666 0.0
C663 C 0.61543 0.43528 0.46176 0.0
C664 C 0.61376 0.42141 0.44118 0.0
C665 C 0.584 0.41529 0.42724 0.0
C666 C 0.55579 0.42307 0.43365 0.0
C667 C 0.5573 0.43706 0.45401 0.0
C668 C 0.58698 0.44323 0.46802 0.0
C669 C 0.77086 0.57347 0.53273 0.0
C670 C 0.74793 0.58001 0.54641 0.0
C671 C 0.75437 0.54349 0.51754 0.0
C672 C 0.71474 0.51924 0.51596 0.0
C673 C 0.69172 0.52691 0.52887 0.0
C674 C 0.70813 0.55702 0.54391 0.0
C675 C 0.69723 0.48381 0.50238 0.0
C676 C 0.66718 0.47656 0.48819 0.0
C677 C 0.70832 0.45599 0.50442 0.0
C678 C 0.7387 0.46095 0.51965 0.0
C679 C 0.73554 0.46615 0.54106 0.0
C680 C 0.76437 0.47083 0.55529 0.0
C681 C 0.7963 0.46996 0.5483 0.0
C682 C 0.79941 0.46429 0.52706 0.0
C683 C 0.7707 0.45968 0.51277 0.0
H684 H 0.81857 0.47355 0.55934 0.0
H685 H 0.53277 0.4183 0.42283 0.0
H686 H 0.3439 0.55097 0.80546 0.0
H687 H 0.27528 0.5275 0.8045 0.0
H688 H 0.27435 0.51217 0.87045 0.0
H689 H 0.34223 0.53452 0.8715 0.0
H690 H 0.22142 0.45681 0.81353 0.0
H691 H 0.20732 0.52493 0.89202 0.0
H692 H 0.24162 0.5865 0.91226 0.0
H693 H 0.29017 0.64338 0.85668 0.0
H694 H 0.25573 0.58227 0.83604 0.0
H695 H 1.06029 0.34043 0.86877 0.0
H696 H 0.12184 0.38122 0.85387 0.0
H697 H 0.08852 0.46529 0.84273 0.0
H698 H 1.02713 0.42452 0.85789 0.0
H699 H 0.15487 0.49689 0.86331 0.0
H700 H 0.1027 0.41888 0.80167 0.0
H701 H 1.0678 0.3595 0.77959 0.0
H702 H 0.14993 0.32702 0.7976 0.0
H703 H 0.18504 0.38594 0.82004 0.0
C704 C 0.32912 0.54292 0.8198 0.0
C705 C 0.34863 0.54451 0.83855 0.0
C706 C 0.28997 0.52968 0.81922 0.0
C707 C 0.26979 0.51831 0.83741 0.0
C708 C 0.28948 0.52146 0.85628 0.0
C709 C 0.32844 0.53442 0.85686 0.0
C710 C 0.22772 0.49959 0.83666 0.0
C711 C 0.20673 0.46577 0.82421 0.0
C712 C 0.20854 0.51191 0.85016 0.0
C713 C 0.22903 0.5489 0.86248 0.0
C714 C 0.2251 0.55059 0.88408 0.0
C715 C 0.24463 0.58542 0.89564 0.0
C716 C 0.26811 0.61882 0.88577 0.0
C717 C 0.27206 0.61747 0.86432 0.0
C718 C 0.25258 0.58273 0.85268 0.0
C719 C 1.06588 0.36715 0.86259 0.0
C720 C 1.03931 0.37947 0.86419 0.0
C721 C 0.1009 0.3904 0.85404 0.0
C722 C 0.10967 0.42621 0.84702 0.0
C723 C 0.08229 0.43775 0.84796 0.0
C724 C 1.04728 0.41446 0.8565 0.0
C725 C 0.14885 0.45304 0.84099 0.0
C726 C 0.16932 0.48834 0.85223 0.0
C727 C 0.1674 0.44237 0.82611 0.0
C728 C 0.14643 0.40682 0.81263 0.0
C729 C 0.11319 0.39896 0.80105 0.0
C730 C 0.09339 0.36539 0.78844 0.0
C731 C 0.10662 0.33949 0.78721 0.0
C732 C 0.13972 0.34713 0.79856 0.0
C733 C 0.15963 0.38065 0.8112 0.0
H734 H 0.09124 0.31352 0.77744 0.0
H735 H 0.28322 0.64574 0.89475 0.0
H736 H 0.8973 0.44767 0.10433 0.0
H737 H 0.82888 0.40691 0.10156 0.0
H738 H 0.8414 0.3195 0.06857 0.0
H739 H 0.91062 0.36038 0.07147 0.0
H740 H 0.76389 0.35906 0.07949 0.0
H741 H 0.79666 0.24192 0.0923 0.0
H742 H 0.8508 0.23182 0.10045 0.0
H743 H 0.90603 0.33681 0.13795 0.0
H744 H 0.85224 0.34743 0.12997 0.0
H745 H 0.65234 0.2031 0.16224 0.0
H746 H 0.68106 0.21925 0.12829 0.0
H747 H 0.71611 0.33749 0.14252 0.0
H748 H 0.68695 0.32111 0.17614 0.0
H749 H 0.75444 0.26177 0.12732 0.0
H750 H 0.73378 0.38782 0.10111 0.0
H751 H 0.68133 0.40159 0.0968 0.0
H752 H 0.60038 0.28177 0.09117 0.0
H753 H 0.65234 0.26719 0.0951 0.0
C754 C 0.88572 0.42055 0.0956 0.0
C755 C 0.90946 0.40658 0.08888 0.0
C756 C 0.84629 0.39716 0.09396 0.0
C757 C 0.83011 0.35956 0.08562 0.0
C758 C 0.85344 0.34804 0.07566 0.0
C759 C 0.89299 0.37134 0.07745 0.0
C760 C 0.79221 0.33102 0.09249 0.0
C761 C 0.76135 0.3373 0.08971 0.0
C762 C 0.78858 0.30191 0.10539 0.0
C763 C 0.82074 0.29556 0.1104 0.0
C764 C 0.82038 0.26275 0.10229 0.0
C765 C 0.851 0.25699 0.10685 0.0
C766 C 0.88189 0.28372 0.11966 0.0
C767 C 0.88214 0.31618 0.12801 0.0
C768 C 0.85166 0.32211 0.12345 0.0
C769 C 0.66518 0.23228 0.15769 0.0
C770 C 0.66783 0.26105 0.17155 0.0
C771 C 0.68139 0.24145 0.13834 0.0
C772 C 0.70043 0.27952 0.13272 0.0
C773 C 0.70081 0.30781 0.14621 0.0
C774 C 0.68456 0.29859 0.16551 0.0
C775 C 0.72659 0.29116 0.11534 0.0
C776 C 0.75553 0.2818 0.11623 0.0
C777 C 0.72845 0.31773 0.10105 0.0
C778 C 0.69707 0.3264 0.09843 0.0
C779 C 0.70485 0.36437 0.09877 0.0
C780 C 0.67517 0.37233 0.09644 0.0
C781 C 0.63755 0.34258 0.09373 0.0
C782 C 0.62953 0.30479 0.09331 0.0
C783 C 0.65909 0.29667 0.09562 0.0
H784 H 0.61462 0.3488 0.09194 0.0
H785 H 0.90558 0.27924 0.12314 0.0
H786 H 0.12551 0.55541 0.10351 0.0
H787 H 0.09464 0.52038 0.07052 0.0
H788 H 1.02202 0.57008 0.07029 0.0
H789 H 1.05301 0.60531 0.10356 0.0
H790 H 0.9831 0.49009 0.05991 0.0
H791 H 0.09082 0.60378 0.03913 0.0
H792 H 0.15841 0.65376 0.0398 0.0
H793 H 0.18945 0.5701 0.02188 0.0
H794 H 0.12206 0.5195 0.0214 0.0
H795 H 0.92122 0.42985 0.95326 0.0
H796 H 0.94221 0.46148 0.98785 0.0
H797 H 1.03479 0.43763 0.98907 0.0
H798 H 1.01589 0.40878 0.95392 0.0
H799 H 1.06116 0.5084 -0.00123 0.0
H800 H 0.95371 0.39346 0.02027 0.0
H801 H 0.8862 0.34326 0.0198 0.0
H802 H 0.85474 0.42667 0.03754 0.0
H803 H 0.92193 0.47748 0.03744 0.0
C804 C 0.10309 0.55899 0.09635 0.0
C805 C 0.09172 0.58312 0.1059 0.0
C806 C 0.0855 0.53901 0.07756 0.0
C807 C 1.05627 0.54288 0.06794 0.0
C808 C 1.04464 0.56687 0.07748 0.0
C809 C 1.06256 0.58722 0.09629 0.0
C810 C 1.03863 0.5221 0.04773 0.0
C811 C 0.99996 0.49418 0.04647 0.0
C812 C 1.06085 0.5274 0.03028 0.0
C813 C 0.1014 0.5578 0.03039 0.0
C814 C 0.11208 0.59599 0.03549 0.0
C815 C 0.15036 0.62444 0.0358 0.0
C816 C 0.17822 0.6151 0.03093 0.0
C817 C 0.16784 0.57729 0.02567 0.0
C818 C 0.1296 0.54872 0.02535 0.0
C819 C 0.946 0.43121 0.96089 0.0
C820 C 0.96709 0.41711 0.95059 0.0
C821 C 0.95767 0.44888 0.98085 0.0
C822 C 0.99008 0.45192 0.99114 0.0
C823 C 1.00976 0.43577 0.98142 0.0
C824 C 0.99856 0.41876 0.96135 0.0
C825 C 1.00573 0.47493 0.0111 0.0
C826 C 1.04415 0.50375 0.01225 0.0
C827 C 0.98324 0.47009 0.02847 0.0
C828 C 0.94284 0.43939 0.02863 0.0
C829 C 0.93236 0.40117 0.02383 0.0
C830 C 0.89413 0.3726 0.0236 0.0
C831 C 0.86615 0.38183 0.0284 0.0
C832 C 0.87639 0.41959 0.03363 0.0
C833 C 0.91453 0.44828 0.03373 0.0
H834 H 0.83659 0.35965 0.0283 0.0
H835 H 0.20784 0.63717 0.03118 0.0
H836 H 0.64559 0.08807 0.43384 0.0
H837 H 0.6476 0.10804 0.39838 0.0
H838 H 0.53134 0.08346 0.40088 0.0
H839 H 0.52887 0.06241 0.43641 0.0
H840 H 0.60743 0.06983 0.36368 0.0
H841 H 0.52871 0.15868 0.3733 0.0
H842 H 0.52637 0.20462 0.39857 0.0
H843 H 0.62872 0.22197 0.43014 0.0
H844 H 0.63272 0.17752 0.40461 0.0
H845 H 0.55974 0.09643 0.26374 0.0
H846 H 0.55841 0.08091 0.29959 0.0
H847 H 0.62049 0.2006 0.31864 0.0
H848 H 0.61675 0.21651 0.28301 0.0
H849 H 0.57753 0.17054 0.34607 0.0
H850 H 0.66194 0.13775 0.31381 0.0
H851 H 0.68377 0.10786 0.28764 0.0
H852 H 0.59674 0.99689 0.30348 0.0
H853 H 0.5741 1.02613 0.32959 0.0
C854 C 0.62034 0.08668 0.42681 0.0
C855 C 0.58715 0.07405 0.4379 0.0
C856 C 0.62157 0.09811 0.40655 0.0
C857 C 0.58975 0.09751 0.39708 0.0
C858 C 0.55636 0.08457 0.40805 0.0
C859 C 0.55498 0.07265 0.4283 0.0
C860 C 0.59153 0.11 0.37561 0.0
C861 C 0.60076 0.09176 0.35977 0.0
C862 C 0.58453 0.13977 0.37074 0.0
C863 C 0.58071 0.16429 0.38711 0.0
C864 C 0.55067 0.17219 0.38566 0.0
C865 C 0.54921 0.19818 0.39995 0.0
C866 C 0.5776 0.2164 0.41578 0.0
C867 C 0.60694 0.20798 0.41774 0.0
C868 C 0.6088 0.18236 0.40336 0.0
C869 C 0.57206 0.11974 0.27543 0.0
C870 C 0.58822 0.15798 0.27006 0.0
C871 C 0.57219 0.11066 0.29609 0.0
C872 C 0.59043 0.13948 0.31194 0.0
C873 C 0.60642 0.17766 0.30677 0.0
C874 C 0.60484 0.18678 0.28617 0.0
C875 C 0.5925 0.12973 0.33386 0.0
C876 C 0.584 0.14845 0.34986 0.0
C877 C 0.60239 0.10192 0.33908 0.0
C878 C 0.61613 0.08416 0.32353 0.0
C879 C 0.64734 0.10698 0.31164 0.0
C880 C 0.65986 0.09015 0.29682 0.0
C881 C 0.64159 0.0505 0.29387 0.0
C882 C 0.61084 1.0276 0.30578 0.0
C883 C 0.59818 1.04428 0.32061 0.0
H884 H 0.6513 1.03753 0.28237 0.0
H885 H 0.57719 0.23747 0.42633 0.0
H886 H 0.5634 0.52948 0.76215 0.0
H887 H 0.59442 0.53594 0.72901 0.0
H888 H 0.65754 0.65807 0.74053 0.0
H889 H 0.62663 0.65171 0.77342 0.0
H890 H 0.62951 0.63798 0.70062 0.0
H891 H 0.69891 0.60701 0.75046 0.0
H892 H 0.70598 0.56805 0.77684 0.0
H893 H 0.66535 0.47358 0.73198 0.0
H894 H 0.65721 0.51162 0.70536 0.0
H895 H 0.79682 0.64988 0.63892 0.0
H896 H 0.76408 0.64139 0.67153 0.0
H897 H 0.65639 0.59348 0.63673 0.0
H898 H 0.68888 0.60231 0.60421 0.0
H899 H 0.70818 0.57715 0.68878 0.0
H900 H 0.6025 0.62426 0.66016 0.0
H901 H 0.59912 0.66868 0.6361 0.0
H902 H 0.72069 0.73984 0.64191 0.0
H903 H 0.72478 0.69585 0.66596 0.0
C904 C 0.58354 0.55764 0.75739 0.0
C905 C 0.5929 0.5901 0.77025 0.0
C906 C 0.60139 0.5613 0.73861 0.0
C907 C 0.62854 0.59748 0.73247 0.0
C908 C 0.63673 0.62993 0.745 0.0
C909 C 0.61913 0.62626 0.76376 0.0
C910 C 0.64909 0.60184 0.71317 0.0
C911 C 0.6465 0.62446 0.69797 0.0
C912 C 0.6719 0.58486 0.70998 0.0
C913 C 0.67709 0.56207 0.72595 0.0
C914 C 0.69118 0.57784 0.74624 0.0
C915 C 0.69545 0.55596 0.76124 0.0
C916 C 0.68615 0.51843 0.7561 0.0
C917 C 0.67253 0.50266 0.73594 0.0
C918 C 0.66807 0.52436 0.72088 0.0
C919 C 0.76618 0.63759 0.63828 0.0
C920 C 0.74537 0.6266 0.61906 0.0
C921 C 0.74752 0.63254 0.65687 0.0
C922 C 0.70786 0.61695 0.65651 0.0
C923 C 0.68704 0.60576 0.63734 0.0
C924 C 0.7056 0.61056 0.6188 0.0
C925 C 0.68817 0.61291 0.67612 0.0
C926 C 0.69091 0.59036 0.69137 0.0
C927 C 0.66601 0.63051 0.67958 0.0
C928 C 0.66393 0.65661 0.66472 0.0
C929 C 0.62849 0.64937 0.65627 0.0
C930 C 0.62646 0.67446 0.64264 0.0
C931 C 0.65966 0.70708 0.63751 0.0
C932 C 0.695 0.71453 0.64588 0.0
C933 C 0.69721 0.68944 0.65943 0.0
H934 H 0.65802 0.72653 0.627 0.0
H935 H 0.68957 0.50161 0.76774 0.0
H936 H 0.62348 0.11219 0.55263 0.0
H937 H 0.63285 0.11742 0.59066 0.0
H938 H 0.51142 0.06456 0.59642 0.0
H939 H 0.50226 0.06069 0.55855 0.0
H940 H 0.54216 0.11931 0.62377 0.0
H941 H 0.56532 1.01729 0.6059 0.0
H942 H 0.59489 0.9849 0.58756 0.0
H943 H 0.70504 0.06994 0.61314 0.0
H944 H 0.67609 0.10292 0.63161 0.0
H945 H 0.54458 0.06163 0.73008 0.0
H946 H 0.53986 0.05418 0.69182 0.0
H947 H 0.64483 0.16051 0.68908 0.0
H948 H 0.649 0.16873 0.72725 0.0
H949 H 0.62325 0.07846 0.66105 0.0
H950 H 0.59532 0.18212 0.67678 0.0
H951 H 0.56114 0.20831 0.69635 0.0
H952 H 0.45411 0.11178 0.67499 0.0
H953 H 0.48778 0.08472 0.65559 0.0
C954 C 0.59882 0.10154 0.56204 0.0
C955 C 0.56213 0.08606 0.55254 0.0
C956 C 0.60414 0.10433 0.58385 0.0
C957 C 0.57284 0.09104 0.5967 0.0
C958 C 0.53618 0.07522 0.58708 0.0
C959 C 0.53092 0.07284 0.56535 0.0
C960 C 0.57808 0.09437 0.62007 0.0
C961 C 0.55973 0.11003 0.63176 0.0
C962 C 0.60107 0.08259 0.63092 0.0
C963 C 0.61859 0.06277 0.61996 0.0
C964 C 0.59588 1.02921 0.60751 0.0
C965 C 0.61252 1.01073 0.5971 0.0
C966 C 0.65185 1.02547 0.59908 0.0
C967 C 0.67459 0.0586 0.61158 0.0
C968 C 0.65807 0.07715 0.62207 0.0
C969 C 0.56684 0.08319 0.72131 0.0
C970 C 0.59715 0.11578 0.73169 0.0
C971 C 0.5641 0.07894 0.69946 0.0
C972 C 0.59199 0.10678 0.68756 0.0
C973 C 0.62299 0.13865 0.69792 0.0
C974 C 0.6253 0.14335 0.71972 0.0
C975 C 0.58769 0.1036 0.66434 0.0
C976 C 0.60597 0.08783 0.65283 0.0
C977 C 0.56426 0.11473 0.65362 0.0
C978 C 0.54404 0.1312 0.66498 0.0
C979 C 0.56451 0.16631 0.67645 0.0
C980 C 0.54524 0.18135 0.68746 0.0
C981 C 0.50548 0.16166 0.68697 0.0
C982 C 0.48491 0.12696 0.67539 0.0
C983 C 0.50407 0.11177 0.66439 0.0
H984 H 0.4906 0.17334 0.69551 0.0
H985 H 0.66468 1.01114 0.59097 0.0
H986 H 0.57218 0.59632 0.88462 0.0
H987 H 0.56534 0.58879 0.92236 0.0
H988 H 0.67529 0.59698 0.92815 0.0
H989 H 0.68275 0.60578 0.89076 0.0
H990 H 0.59681 0.52939 0.94939 0.0
H991 H 0.6903 0.66684 0.94405 0.0
H992 H 0.70837 0.72918 0.93005 0.0
H993 H 0.60792 0.72408 0.9537 0.0
H994 H 0.58902 0.66138 0.96756 0.0
H995 H 0.65038 0.54565 0.05563 0.0
H996 H 0.64645 0.54885 0.01821 0.0
H997 H 0.5905 0.61513 0.02545 0.0
H998 H 0.59776 0.6153 0.06321 0.0
H999 H 0.634 0.64321 -0.00342 0.0
H1000 H 0.54377 0.51431 0.0069 0.0
H1001 H 0.51813 0.44999 0.01989 0.0
H1002 H 0.5998 0.43424 0.98621 0.0
H1003 H 0.62629 0.49869 0.97323 0.0
C1004 C 0.59465 0.59612 0.8939 0.0
C1005 C 0.62795 0.60156 0.88466 0.0
C1006 C 0.59081 0.59196 0.9155 0.0
C1007 C 0.61986 0.59239 0.92814 0.0
C1008 C 0.65252 0.59659 0.91877 0.0
C1009 C 0.65674 0.60164 0.89738 0.0
C1010 C 0.61701 0.58953 0.95119 0.0
C1011 C 0.60516 0.55424 0.95978 0.0
C1012 C 0.62649 0.62159 0.96473 0.0
C1013 C 0.63803 0.65929 0.95657 0.0
C1014 C 0.67189 0.67884 0.94605 0.0
C1015 C 0.68232 0.71427 0.9382 0.0
C1016 C 0.65924 0.73052 0.94092 0.0
C1017 C 0.62573 0.71143 0.95156 0.0
C1018 C 0.61515 0.67596 0.95942 0.0
C1019 C 0.63774 0.56155 0.04948 0.0
C1020 C 0.62474 0.5805 0.06291 0.0
C1021 C 0.63475 0.56264 0.02778 0.0
C1022 C 0.61738 0.58154 0.01858 0.0
C1023 C 0.60392 0.60014 0.03189 0.0
C1024 C 0.60766 0.59977 0.05366 0.0
C1025 C 0.61454 0.5829 -0.00477 0.0
C1026 C 0.62527 0.618 0.98644 0.0
C1027 C 0.60306 0.55031 0.98149 0.0
C1028 C 0.58722 0.51149 0.98923 0.0
C1029 C 0.55644 0.49724 0.00237 0.0
C1030 C 0.54173 0.46074 0.00972 0.0
C1031 C 0.55738 0.43808 0.00392 0.0
C1032 C 0.58773 0.45184 0.99071 0.0
C1033 C 0.60257 0.48834 0.98333 0.0
H1034 H 0.54596 0.40983 0.00962 0.0
H1035 H 0.66736 0.75796 0.93483 0.0
H1036 H 0.13509 0.53466 0.22574 0.0
H1037 H 0.13361 0.53986 0.26359 0.0
H1038 H 1.06796 0.5966 0.25754 0.0
H1039 H 0.07124 0.59314 0.21956 0.0
H1040 H 0.11281 0.62788 0.28931 0.0
H1041 H 1.0284 0.49719 0.26914 0.0
H1042 H 1.00769 0.43407 0.25195 0.0
H1043 H 0.093 0.42496 0.28807 0.0
H1044 H 0.11456 0.48827 0.3053 0.0
H1045 H 1.04458 0.58598 0.39362 0.0
H1046 H 1.04438 0.58098 0.35536 0.0
H1047 H 0.14372 0.56831 0.35963 0.0
H1048 H 0.14472 0.5746 0.3978 0.0
H1049 H 0.07861 0.51372 0.32932 0.0
H1050 H 0.16206 0.64768 0.34884 0.0
H1051 H 0.17731 0.70893 0.36657 0.0
H1052 H 0.08548 0.70867 0.3317 0.0
H1053 H 1.06929 0.64703 0.314 0.0
C1054 C 0.12052 0.54844 0.23248 0.0
C1055 C 0.10305 0.56322 0.21959 0.0
C1056 C 0.11935 0.55112 0.25422 0.0
C1057 C 0.0997 0.56767 0.26373 0.0
C1058 C 0.08312 0.58343 0.25082 0.0
C1059 C 0.08493 0.5814 0.22903 0.0
C1060 C 0.09646 0.56838 0.28701 0.0
C1061 C 0.10478 0.60265 0.2979 0.0
C1062 C 0.08624 0.53574 0.29864 0.0
C1063 C 0.07332 0.49763 0.28836 0.0
C1064 C 1.04291 0.48183 0.27331 0.0
C1065 C 1.031 0.44601 0.26358 0.0
C1066 C 1.04908 0.42556 0.26888 0.0
C1067 C 0.07905 0.44086 0.28397 0.0
C1068 C 0.09111 0.47669 0.29373 0.0
C1069 C 1.06606 0.58167 0.38636 0.0
C1070 C 0.09453 0.58045 0.39869 0.0
C1071 C 1.06605 0.579 0.36451 0.0
C1072 C 0.09407 0.57431 0.35456 0.0
C1073 C 0.12177 0.57183 0.3669 0.0
C1074 C 0.12231 0.5754 0.3887 0.0
C1075 C 0.09524 0.57308 0.33133 0.0
C1076 C 0.08648 0.53875 0.32056 0.0
C1077 C 0.10429 0.60536 0.31979 0.0
C1078 C 0.11419 0.64254 0.33028 0.0
C1079 C 0.14488 0.66049 0.34511 0.0
C1080 C 0.15375 0.69532 0.35512 0.0
C1081 C 0.1323 0.71263 0.35031 0.0
C1082 C 0.10202 0.6952 0.33543 0.0
C1083 C 0.093 0.66032 0.3254 0.0
H1084 H 0.13921 0.7396 0.35807 0.0
H1085 H 1.03981 0.39783 0.26132 0.0
loop_
_geom_bond_atom_site_label_1
_geom_bond_atom_site_label_2
_geom_bond_distance
_geom_bond_site_symmetry_2
_ccdc_geom_bond_type
Tb0 C2 2.809 . S
Tb0 O20 2.484 . S
Tb0 O21 2.440 . S
Tb0 O22 2.658 . S
Tb0 O23 2.409 . S
Tb0 O24 2.378 . S
Tb0 O28 2.325 . S
Tb0 O31 2.341 1_455 S
Tb1 C11 2.809 . S
Tb1 O22 2.325 1_655 S
Tb1 O25 2.341 1_655 S
Tb1 O26 2.484 . S
Tb1 O27 2.440 . S
Tb1 O28 2.658 1_655 S
Tb1 O29 2.409 1_655 S
Tb1 O30 2.378 . S
C2 Tb0 2.809 . S
C2 C3 1.514 . S
C2 O20 1.248 . S
C2 O21 1.266 . S
C3 C2 1.514 . S
C3 C4 1.359 . S
C3 C8 1.348 . S
C4 C3 1.359 . S
C4 C5 1.380 . S
C4 H32 0.929 . S
C5 C4 1.380 . S
C5 C6 1.347 . S
C5 H33 0.931 . S
C6 C5 1.347 . S
C6 C7 1.369 . S
C7 C6 1.369 . S
C7 C8 1.408 . S
C7 H34 0.930 . S
C8 C3 1.348 . S
C8 C7 1.408 . S
C8 H35 0.930 . S
C9 O22 1.281 . S
C9 O23 1.254 . S
C10 O24 1.236 . S
C10 O25 1.266 . S
C11 Tb1 2.809 . S
C11 C12 1.514 . S
C11 O26 1.248 . S
C11 O27 1.266 . S
C12 C11 1.514 . S
C12 C13 1.359 . S
C12 C17 1.348 . S
C13 C12 1.359 . S
C13 C14 1.380 . S
C13 H36 0.929 . S
C14 C13 1.380 . S
C14 C15 1.347 . S
C14 H37 0.931 . S
C15 C14 1.347 . S
C15 C16 1.369 . S
C16 C15 1.369 . S
C16 C17 1.408 . S
C16 H38 0.930 . S
C17 C12 1.348 . S
C17 C16 1.408 . S
C17 H39 0.930 . S
C18 O28 1.281 . S
C18 O29 1.254 . S
C19 O30 1.236 . S
C19 O31 1.266 . S
O20 Tb0 2.484 . S
O20 C2 1.248 . S
O21 Tb0 2.440 . S
O21 C2 1.266 . S
O22 Tb0 2.658 . S
O22 Tb1 2.325 1_455 S
O22 C9 1.281 . S
O23 Tb0 2.409 . S
O23 C9 1.254 . S
O24 Tb0 2.378 . S
O24 C10 1.236 . S
O25 Tb1 2.341 1_455 S
O25 C10 1.266 . S
O26 Tb1 2.484 . S
O26 C11 1.248 . S
O27 Tb1 2.440 . S
O27 C11 1.266 . S
O28 Tb0 2.325 . S
O28 Tb1 2.658 1_455 S
O28 C18 1.281 . S
O29 Tb1 2.409 1_455 S
O29 C18 1.254 . S
O30 Tb1 2.378 . S
O30 C19 1.236 . S
O31 Tb0 2.341 1_655 S
O31 C19 1.266 . S
H32 C4 0.929 . S
H33 C5 0.931 . S
H34 C7 0.930 . S
H35 C8 0.930 . S
H36 C13 0.929 . S
H37 C14 0.931 . S
H38 C16 0.930 . S
H39 C17 0.930 . S
Tb40 C42 2.809 1_545 S
Tb40 O60 2.484 1_545 S
Tb40 O61 2.440 1_545 S
Tb40 O62 2.658 . S
Tb40 O63 2.409 . S
Tb40 O64 2.378 1_545 S
Tb40 O68 2.325 . S
Tb40 O71 2.341 . S
Tb41 C51 2.809 . S
Tb41 O62 2.325 . S
Tb41 O65 2.341 . S
Tb41 O66 2.484 . S
Tb41 O67 2.440 . S
Tb41 O68 2.658 . S
Tb41 O69 2.409 . S
Tb41 O70 2.378 . S
C42 Tb40 2.809 1_565 S
C42 C43 1.514 . S
C42 O60 1.248 . S
C42 O61 1.266 . S
C43 C42 1.514 . S
C43 C44 1.359 . S
C43 C48 1.348 . S
C44 C43 1.359 . S
C44 C45 1.380 . S
C44 H72 0.929 . S
C45 C44 1.380 . S
C45 C46 1.347 . S
C45 H73 0.931 . S
C46 C45 1.347 . S
C46 C47 1.369 . S
C47 C46 1.369 . S
C47 C48 1.408 . S
C47 H74 0.930 . S
C48 C43 1.348 . S
C48 C47 1.408 . S
C48 H75 0.930 . S
C49 O62 1.281 . S
C49 O63 1.254 . S
C50 O64 1.236 . S
C50 O65 1.266 1_565 S
C51 Tb41 2.809 . S
C51 C52 1.514 . S
C51 O66 1.248 . S
C51 O67 1.266 . S
C52 C51 1.514 . S
C52 C53 1.359 . S
C52 C57 1.348 . S
C53 C52 1.359 . S
C53 C54 1.380 . S
C53 H76 0.929 . S
C54 C53 1.380 . S
C54 C55 1.347 . S
C54 H77 0.931 . S
C55 C54 1.347 . S
C55 C56 1.369 . S
C56 C55 1.369 . S
C56 C57 1.408 . S
C56 H78 0.930 . S
C57 C52 1.348 . S
C57 C56 1.408 . S
C57 H79 0.930 . S
C58 O68 1.281 . S
C58 O69 1.254 . S
C59 O70 1.236 . S
C59 O71 1.266 . S
O60 Tb40 2.484 1_565 S
O60 C42 1.248 . S
O61 Tb40 2.440 1_565 S
O61 C42 1.266 . S
O62 Tb40 2.658 . S
O62 Tb41 2.325 . S
O62 C49 1.281 . S
O63 Tb40 2.409 . S
O63 C49 1.254 . S
O64 Tb40 2.378 1_565 S
O64 C50 1.236 . S
O65 Tb41 2.341 . S
O65 C50 1.266 1_545 S
O66 Tb41 2.484 . S
O66 C51 1.248 . S
O67 Tb41 2.440 . S
O67 C51 1.266 . S
O68 Tb40 2.325 . S
O68 Tb41 2.658 . S
O68 C58 1.281 . S
O69 Tb41 2.409 . S
O69 C58 1.254 . S
O70 Tb41 2.378 . S
O70 C59 1.236 . S
O71 Tb40 2.341 . S
O71 C59 1.266 . S
H72 C44 0.929 . S
H73 C45 0.931 . S
H74 C47 0.930 . S
H75 C48 0.930 . S
H76 C53 0.929 . S
H77 C54 0.931 . S
H78 C56 0.930 . S
H79 C57 0.930 . S
Tb80 C82 2.809 . S
Tb80 O100 2.484 . S
Tb80 O101 2.440 . S
Tb80 O102 2.658 . S
Tb80 O103 2.409 . S
Tb80 O104 2.378 . S
Tb80 O108 2.325 . S
Tb80 O111 2.341 . S
Tb81 C91 2.809 . S
Tb81 O102 2.325 . S
Tb81 O105 2.341 . S
Tb81 O106 2.484 . S
Tb81 O107 2.440 . S
Tb81 O108 2.658 . S
Tb81 O109 2.409 . S
Tb81 O110 2.378 . S
C82 Tb80 2.809 . S
C82 C83 1.514 . S
C82 O100 1.248 . S
C82 O101 1.266 . S
C83 C82 1.514 . S
C83 C84 1.359 . S
C83 C88 1.348 . S
C84 C83 1.359 . S
C84 C85 1.380 . S
C84 H112 0.929 . S
C85 C84 1.380 . S
C85 C86 1.347 . S
C85 H113 0.931 . S
C86 C85 1.347 . S
C86 C87 1.369 . S
C87 C86 1.369 . S
C87 C88 1.408 . S
C87 H114 0.930 . S
C88 C83 1.348 . S
C88 C87 1.408 . S
C88 H115 0.930 . S
C89 O102 1.281 . S
C89 O103 1.254 . S
C90 O104 1.236 . S
C90 O105 1.266 . S
C91 Tb81 2.809 . S
C91 C92 1.514 . S
C91 O106 1.248 . S
C91 O107 1.266 . S
C92 C91 1.514 . S
C92 C93 1.359 . S
C92 C97 1.348 . S
C93 C92 1.359 . S
C93 C94 1.380 . S
C93 H116 0.929 . S
C94 C93 1.380 . S
C94 C95 1.347 . S
C94 H117 0.931 . S
C95 C94 1.347 . S
C95 C96 1.369 . S
C96 C95 1.369 . S
C96 C97 1.408 . S
C96 H118 0.930 . S
C97 C92 1.348 . S
C97 C96 1.408 . S
C97 H119 0.930 . S
C98 O108 1.281 . S
C98 O109 1.254 . S
C99 O110 1.236 . S
C99 O111 1.266 . S
O100 Tb80 2.484 . S
O100 C82 1.248 . S
O101 Tb80 2.440 . S
O101 C82 1.266 . S
O102 Tb80 2.658 . S
O102 Tb81 2.325 . S
O102 C89 1.281 . S
O103 Tb80 2.409 . S
O103 C89 1.254 . S
O104 Tb80 2.378 . S
O104 C90 1.236 . S
O105 Tb81 2.341 . S
O105 C90 1.266 . S
O106 Tb81 2.484 . S
O106 C91 1.248 . S
O107 Tb81 2.440 . S
O107 C91 1.266 . S
O108 Tb80 2.325 . S
O108 Tb81 2.658 . S
O108 C98 1.281 . S
O109 Tb81 2.409 . S
O109 C98 1.254 . S
O110 Tb81 2.378 . S
O110 C99 1.236 . S
O111 Tb80 2.341 . S
O111 C99 1.266 . S
H112 C84 0.929 . S
H113 C85 0.931 . S
H114 C87 0.930 . S
H115 C88 0.930 . S
H116 C93 0.929 . S
H117 C94 0.931 . S
H118 C96 0.930 . S
H119 C97 0.930 . S
H120 C123 0.929 . S
H121 C126 0.929 . S
H122 C128 0.930 . S
C123 H120 0.929 . S
C123 C124 1.398 . S
C123 C125 1.396 . S
C124 C123 1.398 . S
C124 C128 1.407 . S
C125 C123 1.396 . S
C125 C126 1.394 . S
C126 H121 0.929 . S
C126 C125 1.394 . S
C126 C127 1.382 . S
C127 C126 1.382 . S
C127 C128 1.392 . S
C127 N129 1.420 . S
C128 H122 0.930 . S
C128 C124 1.407 . S
C128 C127 1.392 . S
N129 C127 1.420 . S
N129 C130 1.244 . S
C130 N129 1.244 . S
H131 C134 0.929 . S
H132 C137 0.929 . S
H133 C139 0.930 . S
C134 H131 0.929 . S
C134 C135 1.398 . S
C134 C136 1.396 . S
C135 C134 1.398 . S
C135 C139 1.407 . S
C136 C134 1.396 . S
C136 C137 1.394 . S
C137 H132 0.929 . S
C137 C136 1.394 . S
C137 C138 1.382 . S
C138 C137 1.382 . S
C138 C139 1.392 . S
C138 N140 1.420 . S
C139 H133 0.930 . S
C139 C135 1.407 . S
C139 C138 1.392 . S
N140 C138 1.420 . S
N140 C141 1.244 . S
C141 N140 1.244 . S
H142 C145 0.929 . S
H143 C148 0.929 . S
H144 C150 0.930 . S
C145 H142 0.929 . S
C145 C146 1.398 . S
C145 C147 1.396 1_655 S
C146 C145 1.398 . S
C146 C150 1.407 . S
C147 C145 1.396 1_455 S
C147 C148 1.394 . S
C148 H143 0.929 . S
C148 C147 1.394 . S
C148 C149 1.382 . S
C149 C148 1.382 . S
C149 C150 1.392 1_455 S
C149 N151 1.420 . S
C150 H144 0.930 . S
C150 C146 1.407 . S
C150 C149 1.392 1_655 S
N151 C149 1.420 . S
N151 C152 1.244 . S
C152 N151 1.244 . S
H153 C156 0.929 . S
H154 C159 0.929 1_655 S
H155 C161 0.930 . S
C156 H153 0.929 . S
C156 C157 1.398 . S
C156 C158 1.396 . S
C157 C156 1.398 . S
C157 C161 1.407 . S
C158 C156 1.396 . S
C158 C159 1.394 . S
C159 H154 0.929 1_455 S
C159 C158 1.394 . S
C159 C160 1.382 . S
C160 C159 1.382 . S
C160 C161 1.392 . S
C160 N162 1.420 1_455 S
C161 H155 0.930 . S
C161 C157 1.407 . S
C161 C160 1.392 . S
N162 C160 1.420 1_655 S
N162 C163 1.244 . S
C163 N162 1.244 . S
H164 C167 0.929 . S
H165 C170 0.929 1_565 S
H166 C172 0.930 . S
C167 H164 0.929 . S
C167 C168 1.398 . S
C167 C169 1.396 . S
C168 C167 1.398 . S
C168 C172 1.407 . S
C169 C167 1.396 . S
C169 C170 1.394 . S
C170 H165 0.929 1_545 S
C170 C169 1.394 . S
C170 C171 1.382 . S
C171 C170 1.382 . S
C171 C172 1.392 . S
C171 N173 1.420 1_545 S
C172 H166 0.930 . S
C172 C168 1.407 . S
C172 C171 1.392 . S
N173 C171 1.420 1_565 S
N173 C174 1.244 . S
C174 N173 1.244 . S
H175 C178 0.929 . S
H176 C181 0.929 . S
H177 C183 0.930 . S
C178 H175 0.929 . S
C178 C179 1.398 . S
C178 C180 1.396 . S
C179 C178 1.398 . S
C179 C183 1.407 . S
C180 C178 1.396 . S
C180 C181 1.394 . S
C181 H176 0.929 . S
C181 C180 1.394 . S
C181 C182 1.382 . S
C182 C181 1.382 . S
C182 C183 1.392 . S
C182 N184 1.420 . S
C183 H177 0.930 . S
C183 C179 1.407 . S
C183 C182 1.392 . S
N184 C182 1.420 . S
N184 C185 1.244 . S
C185 N184 1.244 . S
H186 C204 0.951 . S
H187 C206 0.951 . S
H188 C208 0.950 . S
H189 C209 0.950 . S
H190 C211 0.950 . S
H191 C214 0.950 . S
H192 C215 0.950 . S
H193 C217 0.950 . S
H194 C218 0.950 . S
H195 C219 0.951 . S
H196 C221 0.951 . S
H197 C223 0.950 . S
H198 C224 0.950 . S
H199 C226 0.950 . S
H200 C229 0.950 . S
H201 C230 0.950 . S
H202 C232 0.950 . S
H203 C233 0.950 . S
C204 H186 0.951 . S
C204 C205 1.366 . S
C204 C206 1.388 . S
C205 C204 1.366 . S
C205 C209 1.385 . S
C206 H187 0.951 . S
C206 C204 1.388 . S
C206 C207 1.366 . S
C207 C206 1.366 . S
C207 C208 1.414 . S
C207 C210 1.499 . S
C208 H188 0.950 . S
C208 C207 1.414 . S
C208 C209 1.374 . S
C209 H189 0.950 . S
C209 C205 1.385 . S
C209 C208 1.374 . S
C210 C207 1.499 . S
C210 C211 1.373 . S
C210 C212 1.389 . S
C211 H190 0.950 . S
C211 C210 1.373 . S
C211 C227 1.377 . S
C212 C210 1.389 . S
C212 C213 1.524 . S
C212 C226 1.377 . S
C213 C212 1.524 . S
C213 C214 1.397 . S
C213 C218 1.363 . S
C214 H191 0.950 . S
C214 C213 1.397 . S
C214 C215 1.334 . S
C215 H192 0.950 . S
C215 C214 1.334 . S
C215 C216 1.287 . S
C216 C215 1.287 . S
C216 C217 1.524 . S
C216 H235 0.913 . S
C217 H193 0.950 . S
C217 C216 1.524 . S
C217 C218 1.415 . S
C218 H194 0.950 . S
C218 C213 1.363 . S
C218 C217 1.415 . S
C219 H195 0.951 . S
C219 C220 1.366 . S
C219 C221 1.388 . S
C220 C219 1.366 . S
C220 C224 1.385 . S
C221 H196 0.951 . S
C221 C219 1.388 . S
C221 C222 1.366 . S
C222 C221 1.366 . S
C222 C223 1.414 . S
C222 C225 1.499 . S
C223 H197 0.950 . S
C223 C222 1.414 . S
C223 C224 1.374 . S
C224 H198 0.950 . S
C224 C220 1.385 . S
C224 C223 1.374 . S
C225 C222 1.499 . S
C225 C226 1.373 . S
C225 C227 1.389 . S
C226 H199 0.950 . S
C226 C212 1.377 . S
C226 C225 1.373 . S
C227 C211 1.377 . S
C227 C225 1.389 . S
C227 C228 1.524 . S
C228 C227 1.524 . S
C228 C229 1.397 . S
C228 C233 1.363 . S
C229 H200 0.950 . S
C229 C228 1.397 . S
C229 C230 1.334 . S
C230 H201 0.950 . S
C230 C229 1.334 . S
C230 C231 1.287 . S
C231 C230 1.287 . S
C231 C232 1.524 . S
C231 H234 0.999 . S
C232 H202 0.950 . S
C232 C231 1.524 . S
C232 C233 1.415 . S
C233 H203 0.950 . S
C233 C228 1.363 . S
C233 C232 1.415 . S
H234 C231 0.999 . S
H235 C216 0.913 . S
H236 C254 0.951 . S
H237 C256 0.951 . S
H238 C258 0.950 . S
H239 C259 0.950 . S
H240 C261 0.950 . S
H241 C264 0.950 . S
H242 C265 0.950 . S
H243 C267 0.950 . S
H244 C268 0.950 . S
H245 C269 0.951 . S
H246 C271 0.951 . S
H247 C273 0.950 . S
H248 C274 0.950 . S
H249 C276 0.950 . S
H250 C279 0.950 . S
H251 C280 0.950 . S
H252 C282 0.950 . S
H253 C283 0.950 . S
C254 H236 0.951 . S
C254 C255 1.366 . S
C254 C256 1.388 . S
C255 C254 1.366 . S
C255 C259 1.385 . S
C256 H237 0.951 . S
C256 C254 1.388 . S
C256 C257 1.366 . S
C257 C256 1.366 . S
C257 C258 1.414 . S
C257 C260 1.499 . S
C258 H238 0.950 . S
C258 C257 1.414 . S
C258 C259 1.374 . S
C259 H239 0.950 . S
C259 C255 1.385 . S
C259 C258 1.374 . S
C260 C257 1.499 . S
C260 C261 1.373 . S
C260 C262 1.389 . S
C261 H240 0.950 . S
C261 C260 1.373 . S
C261 C277 1.377 . S
C262 C260 1.389 . S
C262 C263 1.524 . S
C262 C276 1.377 . S
C263 C262 1.524 . S
C263 C264 1.397 . S
C263 C268 1.363 . S
C264 H241 0.950 . S
C264 C263 1.397 . S
C264 C265 1.334 . S
C265 H242 0.950 . S
C265 C264 1.334 . S
C265 C266 1.287 . S
C266 C265 1.287 . S
C266 C267 1.524 . S
C266 H285 0.913 . S
C267 H243 0.950 . S
C267 C266 1.524 . S
C267 C268 1.415 . S
C268 H244 0.950 . S
C268 C263 1.363 . S
C268 C267 1.415 . S
C269 H245 0.951 . S
C269 C270 1.366 . S
C269 C271 1.388 . S
C270 C269 1.366 . S
C270 C274 1.385 . S
C271 H246 0.951 . S
C271 C269 1.388 . S
C271 C272 1.366 . S
C272 C271 1.366 . S
C272 C273 1.414 . S
C272 C275 1.499 . S
C273 H247 0.950 . S
C273 C272 1.414 . S
C273 C274 1.374 . S
C274 H248 0.950 . S
C274 C270 1.385 . S
C274 C273 1.374 . S
C275 C272 1.499 . S
C275 C276 1.373 . S
C275 C277 1.389 . S
C276 H249 0.950 . S
C276 C262 1.377 . S
C276 C275 1.373 . S
C277 C261 1.377 . S
C277 C275 1.389 . S
C277 C278 1.524 . S
C278 C277 1.524 . S
C278 C279 1.397 . S
C278 C283 1.363 . S
C279 H250 0.950 . S
C279 C278 1.397 . S
C279 C280 1.334 . S
C280 H251 0.950 . S
C280 C279 1.334 . S
C280 C281 1.287 . S
C281 C280 1.287 . S
C281 C282 1.524 . S
C281 H284 0.999 . S
C282 H252 0.950 . S
C282 C281 1.524 . S
C282 C283 1.415 . S
C283 H253 0.950 . S
C283 C278 1.363 . S
C283 C282 1.415 . S
H284 C281 0.999 . S
H285 C266 0.913 . S
H286 C304 0.951 . S
H287 C306 0.951 . S
H288 C308 0.950 . S
H289 C309 0.950 . S
H290 C311 0.950 . S
H291 C314 0.950 . S
H292 C315 0.950 . S
H293 C317 0.950 . S
H294 C318 0.950 . S
H295 C319 0.951 . S
H296 C321 0.951 . S
H297 C323 0.950 . S
H298 C324 0.950 . S
H299 C326 0.950 . S
H300 C329 0.950 . S
H301 C330 0.950 . S
H302 C332 0.950 . S
H303 C333 0.950 . S
C304 H286 0.951 . S
C304 C305 1.366 . S
C304 C306 1.388 . S
C305 C304 1.366 . S
C305 C309 1.385 . S
C306 H287 0.951 . S
C306 C304 1.388 . S
C306 C307 1.366 . S
C307 C306 1.366 . S
C307 C308 1.414 . S
C307 C310 1.499 . S
C308 H288 0.950 . S
C308 C307 1.414 . S
C308 C309 1.374 . S
C309 H289 0.950 . S
C309 C305 1.385 . S
C309 C308 1.374 . S
C310 C307 1.499 . S
C310 C311 1.373 . S
C310 C312 1.389 . S
C311 H290 0.950 . S
C311 C310 1.373 . S
C311 C327 1.377 . S
C312 C310 1.389 . S
C312 C313 1.524 . S
C312 C326 1.377 . S
C313 C312 1.524 . S
C313 C314 1.397 . S
C313 C318 1.363 . S
C314 H291 0.950 . S
C314 C313 1.397 . S
C314 C315 1.334 . S
C315 H292 0.950 . S
C315 C314 1.334 . S
C315 C316 1.287 . S
C316 C315 1.287 . S
C316 C317 1.524 . S
C316 H335 0.913 . S
C317 H293 0.950 . S
C317 C316 1.524 . S
C317 C318 1.415 . S
C318 H294 0.950 . S
C318 C313 1.363 . S
C318 C317 1.415 . S
C319 H295 0.951 . S
C319 C320 1.366 . S
C319 C321 1.388 . S
C320 C319 1.366 . S
C320 C324 1.385 . S
C321 H296 0.951 . S
C321 C319 1.388 . S
C321 C322 1.366 . S
C322 C321 1.366 . S
C322 C323 1.414 . S
C322 C325 1.499 . S
C323 H297 0.950 . S
C323 C322 1.414 . S
C323 C324 1.374 . S
C324 H298 0.950 . S
C324 C320 1.385 . S
C324 C323 1.374 . S
C325 C322 1.499 . S
C325 C326 1.373 . S
C325 C327 1.389 . S
C326 H299 0.950 . S
C326 C312 1.377 . S
C326 C325 1.373 . S
C327 C311 1.377 . S
C327 C325 1.389 . S
C327 C328 1.524 . S
C328 C327 1.524 . S
C328 C329 1.397 . S
C328 C333 1.363 . S
C329 H300 0.950 . S
C329 C328 1.397 . S
C329 C330 1.334 . S
C330 H301 0.950 . S
C330 C329 1.334 . S
C330 C331 1.287 . S
C331 C330 1.287 . S
C331 C332 1.524 . S
C331 H334 0.999 . S
C332 H302 0.950 . S
C332 C331 1.524 . S
C332 C333 1.415 . S
C333 H303 0.950 . S
C333 C328 1.363 . S
C333 C332 1.415 . S
H334 C331 0.999 . S
H335 C316 0.913 . S
H336 C354 0.951 . S
H337 C356 0.951 . S
H338 C358 0.950 . S
H339 C359 0.950 . S
H340 C361 0.950 . S
H341 C364 0.950 . S
H342 C365 0.950 . S
H343 C367 0.950 . S
H344 C368 0.950 . S
H345 C369 0.951 . S
H346 C371 0.951 . S
H347 C373 0.950 . S
H348 C374 0.950 . S
H349 C376 0.950 . S
H350 C379 0.950 . S
H351 C380 0.950 . S
H352 C382 0.950 . S
H353 C383 0.950 . S
C354 H336 0.951 . S
C354 C355 1.366 . S
C354 C356 1.388 . S
C355 C354 1.366 . S
C355 C359 1.385 . S
C356 H337 0.951 . S
C356 C354 1.388 . S
C356 C357 1.366 . S
C357 C356 1.366 . S
C357 C358 1.414 . S
C357 C360 1.499 . S
C358 H338 0.950 . S
C358 C357 1.414 . S
C358 C359 1.374 . S
C359 H339 0.950 . S
C359 C355 1.385 . S
C359 C358 1.374 . S
C360 C357 1.499 . S
C360 C361 1.373 . S
C360 C362 1.389 . S
C361 H340 0.950 . S
C361 C360 1.373 . S
C361 C377 1.377 . S
C362 C360 1.389 . S
C362 C363 1.524 . S
C362 C376 1.377 . S
C363 C362 1.524 . S
C363 C364 1.397 . S
C363 C368 1.363 . S
C364 H341 0.950 . S
C364 C363 1.397 . S
C364 C365 1.334 . S
C365 H342 0.950 . S
C365 C364 1.334 . S
C365 C366 1.287 . S
C366 C365 1.287 . S
C366 C367 1.524 . S
C366 H385 0.913 . S
C367 H343 0.950 . S
C367 C366 1.524 . S
C367 C368 1.415 . S
C368 H344 0.950 . S
C368 C363 1.363 . S
C368 C367 1.415 . S
C369 H345 0.951 . S
C369 C370 1.366 . S
C369 C371 1.388 . S
C370 C369 1.366 . S
C370 C374 1.385 . S
C371 H346 0.951 . S
C371 C369 1.388 . S
C371 C372 1.366 . S
C372 C371 1.366 . S
C372 C373 1.414 . S
C372 C375 1.499 . S
C373 H347 0.950 . S
C373 C372 1.414 . S
C373 C374 1.374 . S
C374 H348 0.950 . S
C374 C370 1.385 . S
C374 C373 1.374 . S
C375 C372 1.499 . S
C375 C376 1.373 . S
C375 C377 1.389 . S
C376 H349 0.950 . S
C376 C362 1.377 . S
C376 C375 1.373 . S
C377 C361 1.377 . S
C377 C375 1.389 . S
C377 C378 1.524 . S
C378 C377 1.524 . S
C378 C379 1.397 . S
C378 C383 1.363 . S
C379 H350 0.950 . S
C379 C378 1.397 . S
C379 C380 1.334 . S
C380 H351 0.950 . S
C380 C379 1.334 . S
C380 C381 1.287 . S
C381 C380 1.287 . S
C381 C382 1.524 . S
C381 H384 0.999 . S
C382 H352 0.950 . S
C382 C381 1.524 . S
C382 C383 1.415 . S
C383 H353 0.950 . S
C383 C378 1.363 . S
C383 C382 1.415 . S
H384 C381 0.999 . S
H385 C366 0.913 . S
H386 C404 0.951 . S
H387 C406 0.951 . S
H388 C408 0.950 . S
H389 C409 0.950 . S
H390 C411 0.950 . S
H391 C414 0.950 . S
H392 C415 0.950 . S
H393 C417 0.950 . S
H394 C418 0.950 . S
H395 C419 0.951 . S
H396 C421 0.951 . S
H397 C423 0.950 . S
H398 C424 0.950 . S
H399 C426 0.950 . S
H400 C429 0.950 . S
H401 C430 0.950 . S
H402 C432 0.950 . S
H403 C433 0.950 . S
C404 H386 0.951 . S
C404 C405 1.366 . S
C404 C406 1.388 . S
C405 C404 1.366 . S
C405 C409 1.385 . S
C406 H387 0.951 . S
C406 C404 1.388 . S
C406 C407 1.366 . S
C407 C406 1.366 . S
C407 C408 1.414 . S
C407 C410 1.499 . S
C408 H388 0.950 . S
C408 C407 1.414 . S
C408 C409 1.374 . S
C409 H389 0.950 . S
C409 C405 1.385 . S
C409 C408 1.374 . S
C410 C407 1.499 . S
C410 C411 1.373 . S
C410 C412 1.389 . S
C411 H390 0.950 . S
C411 C410 1.373 . S
C411 C427 1.377 . S
C412 C410 1.389 . S
C412 C413 1.524 . S
C412 C426 1.377 . S
C413 C412 1.524 . S
C413 C414 1.397 . S
C413 C418 1.363 . S
C414 H391 0.950 . S
C414 C413 1.397 . S
C414 C415 1.334 . S
C415 H392 0.950 . S
C415 C414 1.334 . S
C415 C416 1.287 . S
C416 C415 1.287 . S
C416 C417 1.524 . S
C416 H435 0.913 . S
C417 H393 0.950 . S
C417 C416 1.524 . S
C417 C418 1.415 . S
C418 H394 0.950 . S
C418 C413 1.363 . S
C418 C417 1.415 . S
C419 H395 0.951 . S
C419 C420 1.366 . S
C419 C421 1.388 . S
C420 C419 1.366 . S
C420 C424 1.385 . S
C421 H396 0.951 . S
C421 C419 1.388 . S
C421 C422 1.366 . S
C422 C421 1.366 . S
C422 C423 1.414 . S
C422 C425 1.499 . S
C423 H397 0.950 . S
C423 C422 1.414 . S
C423 C424 1.374 . S
C424 H398 0.950 . S
C424 C420 1.385 . S
C424 C423 1.374 . S
C425 C422 1.499 . S
C425 C426 1.373 . S
C425 C427 1.389 . S
C426 H399 0.950 . S
C426 C412 1.377 . S
C426 C425 1.373 . S
C427 C411 1.377 . S
C427 C425 1.389 . S
C427 C428 1.524 . S
C428 C427 1.524 . S
C428 C429 1.397 . S
C428 C433 1.363 . S
C429 H400 0.950 . S
C429 C428 1.397 . S
C429 C430 1.334 . S
C430 H401 0.950 . S
C430 C429 1.334 . S
C430 C431 1.287 . S
C431 C430 1.287 . S
C431 C432 1.524 . S
C431 H434 0.999 . S
C432 H402 0.950 . S
C432 C431 1.524 . S
C432 C433 1.415 . S
C433 H403 0.950 . S
C433 C428 1.363 . S
C433 C432 1.415 . S
H434 C431 0.999 . S
H435 C416 0.913 . S
H436 C454 0.951 . S
H437 C456 0.951 . S
H438 C458 0.950 . S
H439 C459 0.950 . S
H440 C461 0.950 . S
H441 C464 0.950 . S
H442 C465 0.950 . S
H443 C467 0.950 . S
H444 C468 0.950 . S
H445 C469 0.951 . S
H446 C471 0.951 . S
H447 C473 0.950 . S
H448 C474 0.950 . S
H449 C476 0.950 . S
H450 C479 0.950 . S
H451 C480 0.950 . S
H452 C482 0.950 . S
H453 C483 0.950 . S
C454 H436 0.951 . S
C454 C455 1.366 . S
C454 C456 1.388 . S
C455 C454 1.366 . S
C455 C459 1.385 . S
C456 H437 0.951 . S
C456 C454 1.388 . S
C456 C457 1.366 . S
C457 C456 1.366 . S
C457 C458 1.414 . S
C457 C460 1.499 . S
C458 H438 0.950 . S
C458 C457 1.414 . S
C458 C459 1.374 . S
C459 H439 0.950 . S
C459 C455 1.385 . S
C459 C458 1.374 . S
C460 C457 1.499 . S
C460 C461 1.373 . S
C460 C462 1.389 . S
C461 H440 0.950 . S
C461 C460 1.373 . S
C461 C477 1.377 . S
C462 C460 1.389 . S
C462 C463 1.524 . S
C462 C476 1.377 . S
C463 C462 1.524 . S
C463 C464 1.397 . S
C463 C468 1.363 . S
C464 H441 0.950 . S
C464 C463 1.397 . S
C464 C465 1.334 . S
C465 H442 0.950 . S
C465 C464 1.334 . S
C465 C466 1.287 . S
C466 C465 1.287 . S
C466 C467 1.524 . S
C466 H485 0.913 . S
C467 H443 0.950 . S
C467 C466 1.524 . S
C467 C468 1.415 . S
C468 H444 0.950 . S
C468 C463 1.363 . S
C468 C467 1.415 . S
C469 H445 0.951 . S
C469 C470 1.366 . S
C469 C471 1.388 . S
C470 C469 1.366 . S
C470 C474 1.385 . S
C471 H446 0.951 . S
C471 C469 1.388 . S
C471 C472 1.366 . S
C472 C471 1.366 . S
C472 C473 1.414 . S
C472 C475 1.499 . S
C473 H447 0.950 . S
C473 C472 1.414 . S
C473 C474 1.374 . S
C474 H448 0.950 . S
C474 C470 1.385 . S
C474 C473 1.374 . S
C475 C472 1.499 . S
C475 C476 1.373 . S
C475 C477 1.389 . S
C476 H449 0.950 . S
C476 C462 1.377 . S
C476 C475 1.373 . S
C477 C461 1.377 . S
C477 C475 1.389 . S
C477 C478 1.524 . S
C478 C477 1.524 . S
C478 C479 1.397 . S
C478 C483 1.363 . S
C479 H450 0.950 . S
C479 C478 1.397 . S
C479 C480 1.334 . S
C480 H451 0.950 . S
C480 C479 1.334 . S
C480 C481 1.287 . S
C481 C480 1.287 . S
C481 C482 1.524 . S
C481 H484 0.999 . S
C482 H452 0.950 . S
C482 C481 1.524 . S
C482 C483 1.415 . S
C483 H453 0.950 . S
C483 C478 1.363 . S
C483 C482 1.415 . S
H484 C481 0.999 . S
H485 C466 0.913 . S
H486 C504 0.951 . S
H487 C506 0.951 . S
H488 C508 0.950 . S
H489 C509 0.950 . S
H490 C511 0.950 . S
H491 C514 0.950 . S
H492 C515 0.950 . S
H493 C517 0.950 . S
H494 C518 0.950 . S
H495 C519 0.951 . S
H496 C521 0.951 . S
H497 C523 0.950 . S
H498 C524 0.950 . S
H499 C526 0.950 . S
H500 C529 0.950 . S
H501 C530 0.950 . S
H502 C532 0.950 . S
H503 C533 0.950 . S
C504 H486 0.951 . S
C504 C505 1.366 . S
C504 C506 1.388 . S
C505 C504 1.366 . S
C505 C509 1.385 . S
C506 H487 0.951 . S
C506 C504 1.388 . S
C506 C507 1.366 . S
C507 C506 1.366 . S
C507 C508 1.414 . S
C507 C510 1.499 . S
C508 H488 0.950 . S
C508 C507 1.414 . S
C508 C509 1.374 . S
C509 H489 0.950 . S
C509 C505 1.385 . S
C509 C508 1.374 . S
C510 C507 1.499 . S
C510 C511 1.373 . S
C510 C512 1.389 . S
C511 H490 0.950 . S
C511 C510 1.373 . S
C511 C527 1.377 . S
C512 C510 1.389 . S
C512 C513 1.524 . S
C512 C526 1.377 . S
C513 C512 1.524 . S
C513 C514 1.397 . S
C513 C518 1.363 . S
C514 H491 0.950 . S
C514 C513 1.397 . S
C514 C515 1.334 . S
C515 H492 0.950 . S
C515 C514 1.334 . S
C515 C516 1.287 . S
C516 C515 1.287 . S
C516 C517 1.524 . S
C516 H535 0.913 . S
C517 H493 0.950 . S
C517 C516 1.524 . S
C517 C518 1.415 . S
C518 H494 0.950 . S
C518 C513 1.363 . S
C518 C517 1.415 . S
C519 H495 0.951 . S
C519 C520 1.366 . S
C519 C521 1.388 . S
C520 C519 1.366 . S
C520 C524 1.385 . S
C521 H496 0.951 . S
C521 C519 1.388 . S
C521 C522 1.366 . S
C522 C521 1.366 . S
C522 C523 1.414 . S
C522 C525 1.499 . S
C523 H497 0.950 . S
C523 C522 1.414 . S
C523 C524 1.374 . S
C524 H498 0.950 . S
C524 C520 1.385 . S
C524 C523 1.374 . S
C525 C522 1.499 . S
C525 C526 1.373 . S
C525 C527 1.389 . S
C526 H499 0.950 . S
C526 C512 1.377 . S
C526 C525 1.373 . S
C527 C511 1.377 . S
C527 C525 1.389 . S
C527 C528 1.524 . S
C528 C527 1.524 . S
C528 C529 1.397 . S
C528 C533 1.363 . S
C529 H500 0.950 . S
C529 C528 1.397 . S
C529 C530 1.334 . S
C530 H501 0.950 . S
C530 C529 1.334 . S
C530 C531 1.287 . S
C531 C530 1.287 . S
C531 C532 1.524 . S
C531 H534 0.999 . S
C532 H502 0.950 . S
C532 C531 1.524 . S
C532 C533 1.415 . S
C533 H503 0.950 . S
C533 C528 1.363 . S
C533 C532 1.415 . S
H534 C531 0.999 . S
H535 C516 0.913 . S
H536 C554 0.951 . S
H537 C556 0.951 . S
H538 C558 0.950 . S
H539 C559 0.950 . S
H540 C561 0.950 . S
H541 C564 0.950 . S
H542 C565 0.950 . S
H543 C567 0.950 . S
H544 C568 0.950 . S
H545 C569 0.951 . S
H546 C571 0.951 . S
H547 C573 0.950 . S
H548 C574 0.950 . S
H549 C576 0.950 . S
H550 C579 0.950 . S
H551 C580 0.950 . S
H552 C582 0.950 . S
H553 C583 0.950 . S
C554 H536 0.951 . S
C554 C555 1.366 . S
C554 C556 1.388 . S
C555 C554 1.366 . S
C555 C559 1.385 . S
C556 H537 0.951 . S
C556 C554 1.388 . S
C556 C557 1.366 . S
C557 C556 1.366 . S
C557 C558 1.414 . S
C557 C560 1.499 . S
C558 H538 0.950 . S
C558 C557 1.414 . S
C558 C559 1.374 . S
C559 H539 0.950 . S
C559 C555 1.385 . S
C559 C558 1.374 . S
C560 C557 1.499 . S
C560 C561 1.373 . S
C560 C562 1.389 . S
C561 H540 0.950 . S
C561 C560 1.373 . S
C561 C577 1.377 . S
C562 C560 1.389 . S
C562 C563 1.524 . S
C562 C576 1.377 . S
C563 C562 1.524 . S
C563 C564 1.397 . S
C563 C568 1.363 . S
C564 H541 0.950 . S
C564 C563 1.397 . S
C564 C565 1.334 . S
C565 H542 0.950 . S
C565 C564 1.334 . S
C565 C566 1.287 . S
C566 C565 1.287 . S
C566 C567 1.524 . S
C566 H585 0.913 . S
C567 H543 0.950 . S
C567 C566 1.524 . S
C567 C568 1.415 . S
C568 H544 0.950 . S
C568 C563 1.363 . S
C568 C567 1.415 . S
C569 H545 0.951 . S
C569 C570 1.366 . S
C569 C571 1.388 . S
C570 C569 1.366 . S
C570 C574 1.385 . S
C571 H546 0.951 . S
C571 C569 1.388 . S
C571 C572 1.366 . S
C572 C571 1.366 . S
C572 C573 1.414 . S
C572 C575 1.499 . S
C573 H547 0.950 . S
C573 C572 1.414 . S
C573 C574 1.374 . S
C574 H548 0.950 . S
C574 C570 1.385 . S
C574 C573 1.374 . S
C575 C572 1.499 . S
C575 C576 1.373 . S
C575 C577 1.389 . S
C576 H549 0.950 . S
C576 C562 1.377 . S
C576 C575 1.373 . S
C577 C561 1.377 . S
C577 C575 1.389 . S
C577 C578 1.524 . S
C578 C577 1.524 . S
C578 C579 1.397 . S
C578 C583 1.363 . S
C579 H550 0.950 . S
C579 C578 1.397 . S
C579 C580 1.334 . S
C580 H551 0.950 . S
C580 C579 1.334 . S
C580 C581 1.287 . S
C581 C580 1.287 . S
C581 C582 1.524 . S
C581 H584 0.999 . S
C582 H552 0.950 . S
C582 C581 1.524 . S
C582 C583 1.415 . S
C583 H553 0.950 . S
C583 C578 1.363 . S
C583 C582 1.415 . S
H584 C581 0.999 . S
H585 C566 0.913 . S
H586 C604 0.951 . S
H587 C606 0.951 . S
H588 C608 0.950 . S
H589 C609 0.950 . S
H590 C611 0.950 . S
H591 C614 0.950 . S
H592 C615 0.950 . S
H593 C617 0.950 . S
H594 C618 0.950 . S
H595 C619 0.951 . S
H596 C621 0.951 . S
H597 C623 0.950 . S
H598 C624 0.950 . S
H599 C626 0.950 . S
H600 C629 0.950 . S
H601 C630 0.950 . S
H602 C632 0.950 . S
H603 C633 0.950 . S
C604 H586 0.951 . S
C604 C605 1.366 . S
C604 C606 1.388 . S
C605 C604 1.366 . S
C605 C609 1.385 . S
C606 H587 0.951 . S
C606 C604 1.388 . S
C606 C607 1.366 . S
C607 C606 1.366 . S
C607 C608 1.414 . S
C607 C610 1.499 . S
C608 H588 0.950 . S
C608 C607 1.414 . S
C608 C609 1.374 . S
C609 H589 0.950 . S
C609 C605 1.385 . S
C609 C608 1.374 . S
C610 C607 1.499 . S
C610 C611 1.373 . S
C610 C612 1.389 . S
C611 H590 0.950 . S
C611 C610 1.373 . S
C611 C627 1.377 . S
C612 C610 1.389 . S
C612 C613 1.524 . S
C612 C626 1.377 . S
C613 C612 1.524 . S
C613 C614 1.397 . S
C613 C618 1.363 . S
C614 H591 0.950 . S
C614 C613 1.397 . S
C614 C615 1.334 . S
C615 H592 0.950 . S
C615 C614 1.334 . S
C615 C616 1.287 . S
C616 C615 1.287 . S
C616 C617 1.524 . S
C616 H635 0.913 . S
C617 H593 0.950 . S
C617 C616 1.524 . S
C617 C618 1.415 . S
C618 H594 0.950 . S
C618 C613 1.363 . S
C618 C617 1.415 . S
C619 H595 0.951 . S
C619 C620 1.366 1_565 S
C619 C621 1.388 . S
C620 C619 1.366 1_545 S
C620 C624 1.385 . S
C621 H596 0.951 . S
C621 C619 1.388 . S
C621 C622 1.366 . S
C622 C621 1.366 . S
C622 C623 1.414 . S
C622 C625 1.499 . S
C623 H597 0.950 . S
C623 C622 1.414 . S
C623 C624 1.374 1_565 S
C624 H598 0.950 . S
C624 C620 1.385 . S
C624 C623 1.374 1_545 S
C625 C622 1.499 . S
C625 C626 1.373 . S
C625 C627 1.389 . S
C626 H599 0.950 . S
C626 C612 1.377 . S
C626 C625 1.373 . S
C627 C611 1.377 . S
C627 C625 1.389 . S
C627 C628 1.524 . S
C628 C627 1.524 . S
C628 C629 1.397 . S
C628 C633 1.363 . S
C629 H600 0.950 . S
C629 C628 1.397 . S
C629 C630 1.334 . S
C630 H601 0.950 . S
C630 C629 1.334 . S
C630 C631 1.287 . S
C631 C630 1.287 . S
C631 C632 1.524 . S
C631 H634 0.999 . S
C632 H602 0.950 . S
C632 C631 1.524 . S
C632 C633 1.415 . S
C633 H603 0.950 . S
C633 C628 1.363 . S
C633 C632 1.415 . S
H634 C631 0.999 . S
H635 C616 0.913 . S
H636 C654 0.951 . S
H637 C656 0.951 . S
H638 C658 0.950 . S
H639 C659 0.950 . S
H640 C661 0.950 . S
H641 C664 0.950 . S
H642 C665 0.950 . S
H643 C667 0.950 . S
H644 C668 0.950 . S
H645 C669 0.951 . S
H646 C671 0.951 . S
H647 C673 0.950 . S
H648 C674 0.950 . S
H649 C676 0.950 . S
H650 C679 0.950 . S
H651 C680 0.950 . S
H652 C682 0.950 . S
H653 C683 0.950 . S
C654 H636 0.951 . S
C654 C655 1.366 . S
C654 C656 1.388 . S
C655 C654 1.366 . S
C655 C659 1.385 . S
C656 H637 0.951 . S
C656 C654 1.388 . S
C656 C657 1.366 . S
C657 C656 1.366 . S
C657 C658 1.414 . S
C657 C660 1.499 . S
C658 H638 0.950 . S
C658 C657 1.414 . S
C658 C659 1.374 . S
C659 H639 0.950 . S
C659 C655 1.385 . S
C659 C658 1.374 . S
C660 C657 1.499 . S
C660 C661 1.373 . S
C660 C662 1.389 . S
C661 H640 0.950 . S
C661 C660 1.373 . S
C661 C677 1.377 . S
C662 C660 1.389 . S
C662 C663 1.524 . S
C662 C676 1.377 . S
C663 C662 1.524 . S
C663 C664 1.397 . S
C663 C668 1.363 . S
C664 H641 0.950 . S
C664 C663 1.397 . S
C664 C665 1.334 . S
C665 H642 0.950 . S
C665 C664 1.334 . S
C665 C666 1.287 . S
C666 C665 1.287 . S
C666 C667 1.524 . S
C666 H685 0.913 . S
C667 H643 0.950 . S
C667 C666 1.524 . S
C667 C668 1.415 . S
C668 H644 0.950 . S
C668 C663 1.363 . S
C668 C667 1.415 . S
C669 H645 0.951 . S
C669 C670 1.366 . S
C669 C671 1.388 . S
C670 C669 1.366 . S
C670 C674 1.385 . S
C671 H646 0.951 . S
C671 C669 1.388 . S
C671 C672 1.366 . S
C672 C671 1.366 . S
C672 C673 1.414 . S
C672 C675 1.499 . S
C673 H647 0.950 . S
C673 C672 1.414 . S
C673 C674 1.374 . S
C674 H648 0.950 . S
C674 C670 1.385 . S
C674 C673 1.374 . S
C675 C672 1.499 . S
C675 C676 1.373 . S
C675 C677 1.389 . S
C676 H649 0.950 . S
C676 C662 1.377 . S
C676 C675 1.373 . S
C677 C661 1.377 . S
C677 C675 1.389 . S
C677 C678 1.524 . S
C678 C677 1.524 . S
C678 C679 1.397 . S
C678 C683 1.363 . S
C679 H650 0.950 . S
C679 C678 1.397 . S
C679 C680 1.334 . S
C680 H651 0.950 . S
C680 C679 1.334 . S
C680 C681 1.287 . S
C681 C680 1.287 . S
C681 C682 1.524 . S
C681 H684 0.999 . S
C682 H652 0.950 . S
C682 C681 1.524 . S
C682 C683 1.415 . S
C683 H653 0.950 . S
C683 C678 1.363 . S
C683 C682 1.415 . S
H684 C681 0.999 . S
H685 C666 0.913 . S
H686 C704 0.951 . S
H687 C706 0.951 . S
H688 C708 0.950 . S
H689 C709 0.950 . S
H690 C711 0.950 . S
H691 C714 0.950 . S
H692 C715 0.950 . S
H693 C717 0.950 . S
H694 C718 0.950 . S
H695 C719 0.951 . S
H696 C721 0.951 . S
H697 C723 0.950 . S
H698 C724 0.950 . S
H699 C726 0.950 . S
H700 C729 0.950 . S
H701 C730 0.950 . S
H702 C732 0.950 . S
H703 C733 0.950 . S
C704 H686 0.951 . S
C704 C705 1.366 . S
C704 C706 1.388 . S
C705 C704 1.366 . S
C705 C709 1.385 . S
C706 H687 0.951 . S
C706 C704 1.388 . S
C706 C707 1.366 . S
C707 C706 1.366 . S
C707 C708 1.414 . S
C707 C710 1.499 . S
C708 H688 0.950 . S
C708 C707 1.414 . S
C708 C709 1.374 . S
C709 H689 0.950 . S
C709 C705 1.385 . S
C709 C708 1.374 . S
C710 C707 1.499 . S
C710 C711 1.373 . S
C710 C712 1.389 . S
C711 H690 0.950 . S
C711 C710 1.373 . S
C711 C727 1.377 . S
C712 C710 1.389 . S
C712 C713 1.524 . S
C712 C726 1.377 . S
C713 C712 1.524 . S
C713 C714 1.397 . S
C713 C718 1.363 . S
C714 H691 0.950 . S
C714 C713 1.397 . S
C714 C715 1.334 . S
C715 H692 0.950 . S
C715 C714 1.334 . S
C715 C716 1.287 . S
C716 C715 1.287 . S
C716 C717 1.524 . S
C716 H735 0.913 . S
C717 H693 0.950 . S
C717 C716 1.524 . S
C717 C718 1.415 . S
C718 H694 0.950 . S
C718 C713 1.363 . S
C718 C717 1.415 . S
C719 H695 0.951 . S
C719 C720 1.366 . S
C719 C721 1.388 . S
C720 C719 1.366 . S
C720 C724 1.385 . S
C721 H696 0.951 . S
C721 C719 1.388 . S
C721 C722 1.366 . S
C722 C721 1.366 . S
C722 C723 1.414 . S
C722 C725 1.499 . S
C723 H697 0.950 . S
C723 C722 1.414 . S
C723 C724 1.374 . S
C724 H698 0.950 . S
C724 C720 1.385 . S
C724 C723 1.374 . S
C725 C722 1.499 . S
C725 C726 1.373 . S
C725 C727 1.389 . S
C726 H699 0.950 . S
C726 C712 1.377 . S
C726 C725 1.373 . S
C727 C711 1.377 . S
C727 C725 1.389 . S
C727 C728 1.524 . S
C728 C727 1.524 . S
C728 C729 1.397 . S
C728 C733 1.363 . S
C729 H700 0.950 . S
C729 C728 1.397 . S
C729 C730 1.334 . S
C730 H701 0.950 . S
C730 C729 1.334 . S
C730 C731 1.287 . S
C731 C730 1.287 . S
C731 C732 1.524 . S
C731 H734 0.999 . S
C732 H702 0.950 . S
C732 C731 1.524 . S
C732 C733 1.415 . S
C733 H703 0.950 . S
C733 C728 1.363 . S
C733 C732 1.415 . S
H734 C731 0.999 . S
H735 C716 0.913 . S
H736 C754 0.951 . S
H737 C756 0.951 . S
H738 C758 0.950 . S
H739 C759 0.950 . S
H740 C761 0.950 . S
H741 C764 0.950 . S
H742 C765 0.950 . S
H743 C767 0.950 . S
H744 C768 0.950 . S
H745 C769 0.951 . S
H746 C771 0.951 . S
H747 C773 0.950 . S
H748 C774 0.950 . S
H749 C776 0.950 . S
H750 C779 0.950 . S
H751 C780 0.950 . S
H752 C782 0.950 . S
H753 C783 0.950 . S
C754 H736 0.951 . S
C754 C755 1.366 . S
C754 C756 1.388 . S
C755 C754 1.366 . S
C755 C759 1.385 . S
C756 H737 0.951 . S
C756 C754 1.388 . S
C756 C757 1.366 . S
C757 C756 1.366 . S
C757 C758 1.414 . S
C757 C760 1.499 . S
C758 H738 0.950 . S
C758 C757 1.414 . S
C758 C759 1.374 . S
C759 H739 0.950 . S
C759 C755 1.385 . S
C759 C758 1.374 . S
C760 C757 1.499 . S
C760 C761 1.373 . S
C760 C762 1.389 . S
C761 H740 0.950 . S
C761 C760 1.373 . S
C761 C777 1.377 . S
C762 C760 1.389 . S
C762 C763 1.524 . S
C762 C776 1.377 . S
C763 C762 1.524 . S
C763 C764 1.397 . S
C763 C768 1.363 . S
C764 H741 0.950 . S
C764 C763 1.397 . S
C764 C765 1.334 . S
C765 H742 0.950 . S
C765 C764 1.334 . S
C765 C766 1.287 . S
C766 C765 1.287 . S
C766 C767 1.524 . S
C766 H785 0.913 . S
C767 H743 0.950 . S
C767 C766 1.524 . S
C767 C768 1.415 . S
C768 H744 0.950 . S
C768 C763 1.363 . S
C768 C767 1.415 . S
C769 H745 0.951 . S
C769 C770 1.366 . S
C769 C771 1.388 . S
C770 C769 1.366 . S
C770 C774 1.385 . S
C771 H746 0.951 . S
C771 C769 1.388 . S
C771 C772 1.366 . S
C772 C771 1.366 . S
C772 C773 1.414 . S
C772 C775 1.499 . S
C773 H747 0.950 . S
C773 C772 1.414 . S
C773 C774 1.374 . S
C774 H748 0.950 . S
C774 C770 1.385 . S
C774 C773 1.374 . S
C775 C772 1.499 . S
C775 C776 1.373 . S
C775 C777 1.389 . S
C776 H749 0.950 . S
C776 C762 1.377 . S
C776 C775 1.373 . S
C777 C761 1.377 . S
C777 C775 1.389 . S
C777 C778 1.524 . S
C778 C777 1.524 . S
C778 C779 1.397 . S
C778 C783 1.363 . S
C779 H750 0.950 . S
C779 C778 1.397 . S
C779 C780 1.334 . S
C780 H751 0.950 . S
C780 C779 1.334 . S
C780 C781 1.287 . S
C781 C780 1.287 . S
C781 C782 1.524 . S
C781 H784 0.999 . S
C782 H752 0.950 . S
C782 C781 1.524 . S
C782 C783 1.415 . S
C783 H753 0.950 . S
C783 C778 1.363 . S
C783 C782 1.415 . S
H784 C781 0.999 . S
H785 C766 0.913 . S
H786 C804 0.951 . S
H787 C806 0.951 . S
H788 C808 0.950 . S
H789 C809 0.950 . S
H790 C811 0.950 . S
H791 C814 0.950 . S
H792 C815 0.950 . S
H793 C817 0.950 . S
H794 C818 0.950 . S
H795 C819 0.951 . S
H796 C821 0.951 . S
H797 C823 0.950 . S
H798 C824 0.950 . S
H799 C826 0.950 1_556 S
H800 C829 0.950 1_455 S
H801 C830 0.950 . S
H802 C832 0.958 . S
H803 C833 0.950 . S
C804 H786 0.951 . S
C804 C805 1.366 . S
C804 C806 1.388 . S
C805 C804 1.366 . S
C805 C809 1.385 1_455 S
C806 H787 0.951 . S
C806 C804 1.388 . S
C806 C807 1.366 . S
C807 C806 1.366 . S
C807 C808 1.414 1_455 S
C807 C810 1.499 . S
C808 H788 0.950 . S
C808 C807 1.414 1_655 S
C808 C809 1.374 . S
C809 H789 0.950 . S
C809 C805 1.385 1_655 S
C809 C808 1.374 . S
C810 C807 1.499 . S
C810 C811 1.373 1_455 S
C810 C812 1.389 . S
C811 H790 0.950 . S
C811 C810 1.373 1_655 S
C811 C827 1.377 . S
C812 C810 1.389 . S
C812 C813 1.524 . S
C812 C826 1.377 . S
C813 C812 1.524 . S
C813 C814 1.397 . S
C813 C818 1.363 . S
C814 H791 0.950 . S
C814 C813 1.397 . S
C814 C815 1.334 . S
C815 H792 0.950 . S
C815 C814 1.334 . S
C815 C816 1.287 . S
C816 C815 1.287 . S
C816 C817 1.524 . S
C816 H835 0.913 . S
C817 H793 0.950 . S
C817 C816 1.524 . S
C817 C818 1.415 . S
C818 H794 0.950 . S
C818 C813 1.363 . S
C818 C817 1.415 . S
C819 H795 0.951 . S
C819 C820 1.366 1_655 S
C819 C821 1.388 . S
C820 C819 1.366 1_455 S
C820 C824 1.385 . S
C821 H796 0.951 . S
C821 C819 1.388 . S
C821 C822 1.366 1_655 S
C822 C821 1.366 1_455 S
C822 C823 1.414 . S
C822 C825 1.499 . S
C823 H797 0.950 . S
C823 C822 1.414 . S
C823 C824 1.374 . S
C824 H798 0.950 . S
C824 C820 1.385 . S
C824 C823 1.374 . S
C825 C822 1.499 . S
C825 C826 1.373 1_556 S
C825 C827 1.389 1_456 S
C826 H799 0.950 1_554 S
C826 C812 1.377 . S
C826 C825 1.373 1_554 S
C827 C811 1.377 . S
C827 C825 1.389 1_654 S
C827 C828 1.523 . S
C828 C827 1.523 . S
C828 C829 1.398 1_554 S
C828 C833 1.362 . S
C829 H800 0.950 1_655 S
C829 C828 1.398 1_556 S
C829 C830 1.334 . S
C830 H801 0.950 . S
C830 C829 1.334 . S
C830 C831 1.287 . S
C831 C830 1.287 . S
C831 C832 1.524 . S
C831 H834 0.999 . S
C832 H802 0.958 . S
C832 C831 1.524 . S
C832 C833 1.415 1_556 S
C833 H803 0.950 . S
C833 C828 1.362 . S
C833 C832 1.415 1_554 S
H834 C831 0.999 . S
H835 C816 0.913 . S
H836 C854 0.951 . S
H837 C856 0.951 . S
H838 C858 0.950 1_565 S
H839 C859 0.950 1_565 S
H840 C861 0.950 . S
H841 C864 0.950 . S
H842 C865 0.950 . S
H843 C867 0.950 . S
H844 C868 0.950 . S
H845 C869 0.951 . S
H846 C871 0.951 . S
H847 C873 0.950 . S
H848 C874 0.950 . S
H849 C876 0.950 . S
H850 C879 0.950 . S
H851 C880 0.950 . S
H852 C882 0.950 . S
H853 C883 0.950 . S
C854 H836 0.951 . S
C854 C855 1.366 . S
C854 C856 1.388 . S
C855 C854 1.366 . S
C855 C859 1.385 . S
C856 H837 0.951 . S
C856 C854 1.388 . S
C856 C857 1.366 . S
C857 C856 1.366 . S
C857 C858 1.414 . S
C857 C860 1.499 . S
C858 H838 0.950 1_545 S
C858 C857 1.414 . S
C858 C859 1.374 . S
C859 H839 0.950 1_545 S
C859 C855 1.385 . S
C859 C858 1.374 . S
C860 C857 1.499 . S
C860 C861 1.373 . S
C860 C862 1.389 . S
C861 H840 0.950 . S
C861 C860 1.373 . S
C861 C877 1.377 . S
C862 C860 1.389 . S
C862 C863 1.524 . S
C862 C876 1.377 . S
C863 C862 1.524 . S
C863 C864 1.397 . S
C863 C868 1.363 . S
C864 H841 0.950 . S
C864 C863 1.397 . S
C864 C865 1.334 . S
C865 H842 0.950 . S
C865 C864 1.334 . S
C865 C866 1.287 . S
C866 C865 1.287 . S
C866 C867 1.524 . S
C866 H885 0.913 . S
C867 H843 0.950 . S
C867 C866 1.524 . S
C867 C868 1.415 . S
C868 H844 0.950 . S
C868 C863 1.363 . S
C868 C867 1.415 . S
C869 H845 0.951 . S
C869 C870 1.366 . S
C869 C871 1.388 . S
C870 C869 1.366 . S
C870 C874 1.385 . S
C871 H846 0.951 . S
C871 C869 1.388 . S
C871 C872 1.366 . S
C872 C871 1.366 . S
C872 C873 1.414 . S
C872 C875 1.499 . S
C873 H847 0.950 . S
C873 C872 1.414 . S
C873 C874 1.374 . S
C874 H848 0.950 . S
C874 C870 1.385 . S
C874 C873 1.374 . S
C875 C872 1.499 . S
C875 C876 1.373 . S
C875 C877 1.389 . S
C876 H849 0.950 . S
C876 C862 1.377 . S
C876 C875 1.373 . S
C877 C861 1.377 . S
C877 C875 1.389 . S
C877 C878 1.524 . S
C878 C877 1.524 . S
C878 C879 1.397 . S
C878 C883 1.363 1_545 S
C879 H850 0.950 . S
C879 C878 1.397 . S
C879 C880 1.334 . S
C880 H851 0.950 . S
C880 C879 1.334 . S
C880 C881 1.287 . S
C881 C880 1.287 . S
C881 C882 1.524 1_545 S
C881 H884 0.999 . S
C882 H852 0.950 . S
C882 C881 1.524 1_565 S
C882 C883 1.415 . S
C883 H853 0.950 . S
C883 C878 1.363 1_565 S
C883 C882 1.415 . S
H884 C881 0.999 . S
H885 C866 0.913 . S
H886 C904 0.951 . S
H887 C906 0.951 . S
H888 C908 0.950 . S
H889 C909 0.950 . S
H890 C911 0.950 . S
H891 C914 0.950 . S
H892 C915 0.950 . S
H893 C917 0.950 . S
H894 C918 0.950 . S
H895 C919 0.951 . S
H896 C921 0.951 . S
H897 C923 0.950 . S
H898 C924 0.950 . S
H899 C926 0.950 . S
H900 C929 0.950 . S
H901 C930 0.950 . S
H902 C932 0.950 . S
H903 C933 0.950 . S
C904 H886 0.951 . S
C904 C905 1.366 . S
C904 C906 1.388 . S
C905 C904 1.366 . S
C905 C909 1.385 . S
C906 H887 0.951 . S
C906 C904 1.388 . S
C906 C907 1.366 . S
C907 C906 1.366 . S
C907 C908 1.414 . S
C907 C910 1.499 . S
C908 H888 0.950 . S
C908 C907 1.414 . S
C908 C909 1.374 . S
C909 H889 0.950 . S
C909 C905 1.385 . S
C909 C908 1.374 . S
C910 C907 1.499 . S
C910 C911 1.373 . S
C910 C912 1.389 . S
C911 H890 0.950 . S
C911 C910 1.373 . S
C911 C927 1.377 . S
C912 C910 1.389 . S
C912 C913 1.524 . S
C912 C926 1.377 . S
C913 C912 1.524 . S
C913 C914 1.397 . S
C913 C918 1.363 . S
C914 H891 0.950 . S
C914 C913 1.397 . S
C914 C915 1.334 . S
C915 H892 0.950 . S
C915 C914 1.334 . S
C915 C916 1.287 . S
C916 C915 1.287 . S
C916 C917 1.524 . S
C916 H935 0.913 . S
C917 H893 0.950 . S
C917 C916 1.524 . S
C917 C918 1.415 . S
C918 H894 0.950 . S
C918 C913 1.363 . S
C918 C917 1.415 . S
C919 H895 0.951 . S
C919 C920 1.366 . S
C919 C921 1.388 . S
C920 C919 1.366 . S
C920 C924 1.385 . S
C921 H896 0.951 . S
C921 C919 1.388 . S
C921 C922 1.366 . S
C922 C921 1.366 . S
C922 C923 1.414 . S
C922 C925 1.499 . S
C923 H897 0.950 . S
C923 C922 1.414 . S
C923 C924 1.374 . S
C924 H898 0.950 . S
C924 C920 1.385 . S
C924 C923 1.374 . S
C925 C922 1.499 . S
C925 C926 1.373 . S
C925 C927 1.389 . S
C926 H899 0.950 . S
C926 C912 1.377 . S
C926 C925 1.373 . S
C927 C911 1.377 . S
C927 C925 1.389 . S
C927 C928 1.524 . S
C928 C927 1.524 . S
C928 C929 1.397 . S
C928 C933 1.363 . S
C929 H900 0.950 . S
C929 C928 1.397 . S
C929 C930 1.334 . S
C930 H901 0.950 . S
C930 C929 1.334 . S
C930 C931 1.287 . S
C931 C930 1.287 . S
C931 C932 1.524 . S
C931 H934 0.999 . S
C932 H902 0.950 . S
C932 C931 1.524 . S
C932 C933 1.415 . S
C933 H903 0.950 . S
C933 C928 1.363 . S
C933 C932 1.415 . S
H934 C931 0.999 . S
H935 C916 0.913 . S
H936 C954 0.951 . S
H937 C956 0.951 . S
H938 C958 0.950 1_565 S
H939 C959 0.950 1_565 S
H940 C961 0.950 1_565 S
H941 C964 0.950 . S
H942 C965 0.950 . S
H943 C967 0.950 . S
H944 C968 0.950 . S
H945 C969 0.951 . S
H946 C971 0.951 . S
H947 C973 0.950 . S
H948 C974 0.950 . S
H949 C976 0.950 . S
H950 C979 0.949 1_545 S
H951 C980 0.950 . S
H952 C982 0.950 . S
H953 C983 0.950 . S
C954 H936 0.951 . S
C954 C955 1.366 . S
C954 C956 1.388 . S
C955 C954 1.366 . S
C955 C959 1.385 . S
C956 H937 0.951 . S
C956 C954 1.388 . S
C956 C957 1.366 . S
C957 C956 1.366 . S
C957 C958 1.414 . S
C957 C960 1.499 . S
C958 H938 0.950 1_545 S
C958 C957 1.414 . S
C958 C959 1.374 . S
C959 H939 0.950 1_545 S
C959 C955 1.385 . S
C959 C958 1.374 . S
C960 C957 1.499 . S
C960 C961 1.373 . S
C960 C962 1.389 . S
C961 H940 0.950 1_545 S
C961 C960 1.373 . S
C961 C977 1.377 . S
C962 C960 1.389 . S
C962 C963 1.524 . S
C962 C976 1.377 . S
C963 C962 1.524 . S
C963 C964 1.397 . S
C963 C968 1.363 . S
C964 H941 0.950 . S
C964 C963 1.397 . S
C964 C965 1.334 . S
C965 H942 0.950 . S
C965 C964 1.334 . S
C965 C966 1.287 . S
C966 C965 1.287 . S
C966 C967 1.524 . S
C966 H985 0.913 . S
C967 H943 0.950 . S
C967 C966 1.524 . S
C967 C968 1.415 . S
C968 H944 0.950 . S
C968 C963 1.363 . S
C968 C967 1.415 . S
C969 H945 0.951 . S
C969 C970 1.366 1_565 S
C969 C971 1.388 . S
C970 C969 1.366 1_545 S
C970 C974 1.385 . S
C971 H946 0.951 . S
C971 C969 1.388 . S
C971 C972 1.366 1_565 S
C972 C971 1.366 1_545 S
C972 C973 1.414 . S
C972 C975 1.499 . S
C973 H947 0.950 . S
C973 C972 1.414 . S
C973 C974 1.374 . S
C974 H948 0.950 . S
C974 C970 1.385 . S
C974 C973 1.374 . S
C975 C972 1.499 . S
C975 C976 1.373 . S
C975 C977 1.389 . S
C976 H949 0.950 . S
C976 C962 1.377 . S
C976 C975 1.373 . S
C977 C961 1.377 . S
C977 C975 1.389 . S
C977 C978 1.524 1_545 S
C978 C977 1.524 1_565 S
C978 C979 1.397 . S
C978 C983 1.363 . S
C979 H950 0.949 1_565 S
C979 C978 1.397 . S
C979 C980 1.334 . S
C980 H951 0.950 . S
C980 C979 1.334 . S
C980 C981 1.287 . S
C981 C980 1.287 . S
C981 C982 1.524 . S
C981 H984 0.999 . S
C982 H952 0.950 . S
C982 C981 1.524 . S
C982 C983 1.415 . S
C983 H953 0.950 . S
C983 C978 1.363 . S
C983 C982 1.415 . S
H984 C981 0.999 . S
H985 C966 0.913 . S
H986 C1004 0.951 . S
H987 C1006 0.951 . S
H988 C1008 0.950 . S
H989 C1009 0.950 . S
H990 C1011 0.950 . S
H991 C1014 0.950 . S
H992 C1015 0.950 . S
H993 C1017 0.950 . S
H994 C1018 0.950 . S
H995 C1019 0.951 . S
H996 C1021 0.951 . S
H997 C1023 0.950 . S
H998 C1024 0.950 . S
H999 C1026 0.950 . S
H1000 C1029 0.950 . S
H1001 C1030 0.950 . S
H1002 C1032 0.950 . S
H1003 C1033 0.950 1_556 S
C1004 H986 0.951 . S
C1004 C1005 1.366 . S
C1004 C1006 1.388 . S
C1005 C1004 1.366 . S
C1005 C1009 1.385 . S
C1006 H987 0.951 . S
C1006 C1004 1.388 . S
C1006 C1007 1.366 . S
C1007 C1006 1.366 . S
C1007 C1008 1.414 . S
C1007 C1010 1.499 . S
C1008 H988 0.950 . S
C1008 C1007 1.414 . S
C1008 C1009 1.374 . S
C1009 H989 0.950 . S
C1009 C1005 1.385 . S
C1009 C1008 1.374 . S
C1010 C1007 1.499 . S
C1010 C1011 1.373 . S
C1010 C1012 1.389 . S
C1011 H990 0.950 . S
C1011 C1010 1.373 . S
C1011 C1027 1.377 . S
C1012 C1010 1.389 . S
C1012 C1013 1.524 . S
C1012 C1026 1.377 . S
C1013 C1012 1.524 . S
C1013 C1014 1.397 . S
C1013 C1018 1.363 . S
C1014 H991 0.950 . S
C1014 C1013 1.397 . S
C1014 C1015 1.334 . S
C1015 H992 0.950 . S
C1015 C1014 1.334 . S
C1015 C1016 1.287 . S
C1016 C1015 1.287 . S
C1016 C1017 1.524 . S
C1016 H1035 0.913 . S
C1017 H993 0.950 . S
C1017 C1016 1.524 . S
C1017 C1018 1.415 . S
C1018 H994 0.950 . S
C1018 C1013 1.363 . S
C1018 C1017 1.415 . S
C1019 H995 0.951 . S
C1019 C1020 1.366 . S
C1019 C1021 1.388 . S
C1020 C1019 1.366 . S
C1020 C1024 1.385 . S
C1021 H996 0.951 . S
C1021 C1019 1.388 . S
C1021 C1022 1.366 . S
C1022 C1021 1.366 . S
C1022 C1023 1.414 . S
C1022 C1025 1.499 . S
C1023 H997 0.950 . S
C1023 C1022 1.414 . S
C1023 C1024 1.374 . S
C1024 H998 0.950 . S
C1024 C1020 1.385 . S
C1024 C1023 1.374 . S
C1025 C1022 1.499 . S
C1025 C1026 1.373 1_554 S
C1025 C1027 1.389 1_554 S
C1026 H999 0.950 . S
C1026 C1012 1.377 . S
C1026 C1025 1.373 1_556 S
C1027 C1011 1.377 . S
C1027 C1025 1.389 1_556 S
C1027 C1028 1.524 1_556 S
C1028 C1027 1.524 1_554 S
C1028 C1029 1.397 . S
C1028 C1033 1.363 . S
C1029 H1000 0.950 . S
C1029 C1028 1.397 . S
C1029 C1030 1.334 . S
C1030 H1001 0.950 . S
C1030 C1029 1.334 . S
C1030 C1031 1.287 . S
C1031 C1030 1.287 . S
C1031 C1032 1.524 . S
C1031 H1034 0.999 . S
C1032 H1002 0.950 . S
C1032 C1031 1.524 . S
C1032 C1033 1.415 . S
C1033 H1003 0.950 1_554 S
C1033 C1028 1.363 . S
C1033 C1032 1.415 . S
H1034 C1031 0.999 . S
H1035 C1016 0.913 . S
H1036 C1054 0.951 . S
H1037 C1056 0.951 . S
H1038 C1058 0.950 1_655 S
H1039 C1059 0.950 1_655 S
H1040 C1061 0.950 . S
H1041 C1064 0.950 . S
H1042 C1065 0.950 . S
H1043 C1067 0.950 . S
H1044 C1068 0.950 . S
H1045 C1069 0.951 1_655 S
H1046 C1071 0.951 1_655 S
H1047 C1073 0.950 . S
H1048 C1074 0.950 . S
H1049 C1076 0.950 . S
H1050 C1079 0.950 . S
H1051 C1080 0.950 . S
H1052 C1082 0.950 . S
H1053 C1083 0.950 1_655 S
C1054 H1036 0.951 . S
C1054 C1055 1.366 . S
C1054 C1056 1.388 . S
C1055 C1054 1.366 . S
C1055 C1059 1.385 . S
C1056 H1037 0.951 . S
C1056 C1054 1.388 . S
C1056 C1057 1.366 . S
C1057 C1056 1.366 . S
C1057 C1058 1.414 . S
C1057 C1060 1.499 . S
C1058 H1038 0.950 1_455 S
C1058 C1057 1.414 . S
C1058 C1059 1.374 . S
C1059 H1039 0.950 1_455 S
C1059 C1055 1.385 . S
C1059 C1058 1.374 . S
C1060 C1057 1.499 . S
C1060 C1061 1.373 . S
C1060 C1062 1.389 . S
C1061 H1040 0.950 . S
C1061 C1060 1.373 . S
C1061 C1077 1.377 . S
C1062 C1060 1.389 . S
C1062 C1063 1.524 . S
C1062 C1076 1.377 . S
C1063 C1062 1.524 . S
C1063 C1064 1.397 1_455 S
C1063 C1068 1.363 . S
C1064 H1041 0.950 . S
C1064 C1063 1.397 1_655 S
C1064 C1065 1.334 . S
C1065 H1042 0.950 . S
C1065 C1064 1.334 . S
C1065 C1066 1.287 1_655 S
C1066 C1065 1.287 1_455 S
C1066 C1067 1.524 . S
C1066 H1085 0.913 1_455 S
C1067 H1043 0.950 . S
C1067 C1066 1.524 . S
C1067 C1068 1.415 . S
C1068 H1044 0.950 . S
C1068 C1063 1.363 . S
C1068 C1067 1.415 . S
C1069 H1045 0.951 1_455 S
C1069 C1070 1.366 . S
C1069 C1071 1.388 . S
C1070 C1069 1.366 . S
C1070 C1074 1.385 . S
C1071 H1046 0.951 1_455 S
C1071 C1069 1.388 . S
C1071 C1072 1.366 . S
C1072 C1071 1.366 . S
C1072 C1073 1.414 . S
C1072 C1075 1.499 . S
C1073 H1047 0.950 . S
C1073 C1072 1.414 . S
C1073 C1074 1.374 . S
C1074 H1048 0.950 . S
C1074 C1070 1.385 . S
C1074 C1073 1.374 . S
C1075 C1072 1.499 . S
C1075 C1076 1.373 . S
C1075 C1077 1.389 . S
C1076 H1049 0.950 . S
C1076 C1062 1.377 . S
C1076 C1075 1.373 . S
C1077 C1061 1.377 . S
C1077 C1075 1.389 . S
C1077 C1078 1.524 . S
C1078 C1077 1.524 . S
C1078 C1079 1.397 . S
C1078 C1083 1.363 . S
C1079 H1050 0.950 . S
C1079 C1078 1.397 . S
C1079 C1080 1.334 . S
C1080 H1051 0.950 . S
C1080 C1079 1.334 . S
C1080 C1081 1.287 . S
C1081 C1080 1.287 . S
C1081 C1082 1.524 . S
C1081 H1084 0.999 . S
C1082 H1052 0.950 . S
C1082 C1081 1.524 . S
C1082 C1083 1.415 . S
C1083 H1053 0.950 1_455 S
C1083 C1078 1.363 . S
C1083 C1082 1.415 . S
H1084 C1081 0.999 . S
H1085 C1066 0.913 1_655 S
C205 C10 3.046 . S
C220 C185 3.010 . S
C255 C59 3.136 . S
C270 C163 3.070 . S
C305 C90 3.028 . S
C320 C174 2.989 . S
C355 C19 2.958 . S
C370 C179 2.918 . S
C420 C157 2.856 . S
C405 C50 2.880 . S
C470 C168 2.927 . S
C455 C99 2.966 . S
C505 C46 0.480 . S
C520 C141 0.493 . S
C555 C95 0.228 . S
C570 C146 0.192 . S
C605 C6 0.193 . S
C620 C124 0.264 . S
C670 C135 0.199 . S
C655 C55 0.208 . S
C720 C152 0.423 . S
C705 C86 0.393 . S
C755 C15 0.360 . S
C770 C130 0.333 . S
C820 C147 1.314 . S
C805 C9 1.296 . S
C855 C49 1.210 . S
C870 C125 1.256 . S
C905 C89 1.255 . S
C920 C136 1.285 . S
C970 C169 1.721 . S
C955 C58 1.679 . S
C1020 C180 1.746 . S
C1005 C98 1.687 . S
C1055 C18 1.677 . S
C1070 C158 1.783 . S
