# Generated by pormake.
# Topology ptr, (4,4)-cn, num edge types: 1
# Building blocks:
#     Node 0, Type 0, BuildingBlock: CEKHIL_clean_sbu_0, # of connection points: 4
#     Node 1, Type 0, BuildingBlock: CEKHIL_clean_sbu_0, # of connection points: 4
#     Node 2, Type 0, BuildingBlock: CEKHIL_clean_sbu_0, # of connection points: 4
#     Node 3, Type 0, BuildingBlock: CEKHIL_clean_sbu_0, # of connection points: 4
#     Node 4, Type 0, BuildingBlock: CEKHIL_clean_sbu_0, # of connection points: 4
#     Node 5, Type 0, BuildingBlock: CEKHIL_clean_sbu_0, # of connection points: 4
#     Node 6, Type 0, BuildingBlock: CEKHIL_clean_sbu_0, # of connection points: 4
#     Node 7, Type 0, BuildingBlock: CEKHIL_clean_sbu_0, # of connection points: 4
#     Node 8, Type 0, BuildingBlock: CEKHIL_clean_sbu_0, # of connection points: 4
#     Node 9, Type 0, BuildingBlock: CEKHIL_clean_sbu_0, # of connection points: 4
#     Node 10, Type 0, BuildingBlock: CEKHIL_clean_sbu_0, # of connection points: 4
#     Node 11, Type 0, BuildingBlock: CEKHIL_clean_sbu_0, # of connection points: 4
#     Node 12, Type 0, BuildingBlock: CEKHIL_clean_sbu_0, # of connection points: 4
#     Node 13, Type 0, BuildingBlock: CEKHIL_clean_sbu_0, # of connection points: 4
#     Node 14, Type 0, BuildingBlock: CEKHIL_clean_sbu_0, # of connection points: 4
#     Node 15, Type 0, BuildingBlock: CEKHIL_clean_sbu_0, # of connection points: 4
#     Node 16, Type 0, BuildingBlock: CEKHIL_clean_sbu_0, # of connection points: 4
#     Node 17, Type 0, BuildingBlock: CEKHIL_clean_sbu_0, # of connection points: 4
#     Node 18, Type 1, BuildingBlock: AZAVOO_clean_linker_0, # of connection points: 4
#     Node 19, Type 1, BuildingBlock: AZAVOO_clean_linker_0, # of connection points: 4
#     Node 20, Type 1, BuildingBlock: AZAVOO_clean_linker_0, # of connection points: 4
#     Node 21, Type 1, BuildingBlock: AZAVOO_clean_linker_0, # of connection points: 4
#     Node 22, Type 1, BuildingBlock: AZAVOO_clean_linker_0, # of connection points: 4
#     Node 23, Type 1, BuildingBlock: AZAVOO_clean_linker_0, # of connection points: 4
#     Node 24, Type 1, BuildingBlock: AZAVOO_clean_linker_0, # of connection points: 4
#     Node 25, Type 1, BuildingBlock: AZAVOO_clean_linker_0, # of connection points: 4
#     Node 26, Type 1, BuildingBlock: AZAVOO_clean_linker_0, # of connection points: 4
#     Node 27, Type 1, BuildingBlock: AZAVOO_clean_linker_0, # of connection points: 4
#     Node 28, Type 1, BuildingBlock: AZAVOO_clean_linker_0, # of connection points: 4
#     Node 29, Type 1, BuildingBlock: AZAVOO_clean_linker_0, # of connection points: 4
#     Node 30, Type 1, BuildingBlock: AZAVOO_clean_linker_0, # of connection points: 4
#     Node 31, Type 1, BuildingBlock: AZAVOO_clean_linker_0, # of connection points: 4
#     Node 32, Type 1, BuildingBlock: AZAVOO_clean_linker_0, # of connection points: 4
#     Node 33, Type 1, BuildingBlock: AZAVOO_clean_linker_0, # of connection points: 4
#     Node 34, Type 1, BuildingBlock: AZAVOO_clean_linker_0, # of connection points: 4
#     Node 35, Type 1, BuildingBlock: AZAVOO_clean_linker_0, # of connection points: 4
#     Edge 36, Type (0, 1), BuildingBlock: KIFKEQ_clean_linker_1, # of connection points: 2
#     Edge 37, Type (0, 1), BuildingBlock: KIFKEQ_clean_linker_1, # of connection points: 2
#     Edge 38, Type (0, 1), BuildingBlock: KIFKEQ_clean_linker_1, # of connection points: 2
#     Edge 39, Type (0, 1), BuildingBlock: KIFKEQ_clean_linker_1, # of connection points: 2
#     Edge 40, Type (0, 1), BuildingBlock: KIFKEQ_clean_linker_1, # of connection points: 2
#     Edge 41, Type (0, 1), BuildingBlock: KIFKEQ_clean_linker_1, # of connection points: 2
#     Edge 42, Type (0, 1), BuildingBlock: KIFKEQ_clean_linker_1, # of connection points: 2
#     Edge 43, Type (0, 1), BuildingBlock: KIFKEQ_clean_linker_1, # of connection points: 2
#     Edge 44, Type (0, 1), BuildingBlock: KIFKEQ_clean_linker_1, # of connection points: 2
#     Edge 45, Type (0, 1), BuildingBlock: KIFKEQ_clean_linker_1, # of connection points: 2
#     Edge 46, Type (0, 1), BuildingBlock: KIFKEQ_clean_linker_1, # of connection points: 2
#     Edge 47, Type (0, 1), BuildingBlock: KIFKEQ_clean_linker_1, # of connection points: 2
#     Edge 48, Type (0, 1), BuildingBlock: KIFKEQ_clean_linker_1, # of connection points: 2
#     Edge 49, Type (0, 1), BuildingBlock: KIFKEQ_clean_linker_1, # of connection points: 2
#     Edge 50, Type (0, 1), BuildingBlock: KIFKEQ_clean_linker_1, # of connection points: 2
#     Edge 51, Type (0, 1), BuildingBlock: KIFKEQ_clean_linker_1, # of connection points: 2
#     Edge 52, Type (0, 1), BuildingBlock: KIFKEQ_clean_linker_1, # of connection points: 2
#     Edge 53, Type (0, 1), BuildingBlock: KIFKEQ_clean_linker_1, # of connection points: 2
#     Edge 54, Type (0, 1), BuildingBlock: KIFKEQ_clean_linker_1, # of connection points: 2
#     Edge 55, Type (0, 1), BuildingBlock: KIFKEQ_clean_linker_1, # of connection points: 2
#     Edge 56, Type (0, 1), BuildingBlock: KIFKEQ_clean_linker_1, # of connection points: 2
#     Edge 57, Type (0, 1), BuildingBlock: KIFKEQ_clean_linker_1, # of connection points: 2
#     Edge 58, Type (0, 1), BuildingBlock: KIFKEQ_clean_linker_1, # of connection points: 2
#     Edge 59, Type (0, 1), BuildingBlock: KIFKEQ_clean_linker_1, # of connection points: 2
#     Edge 60, Type (0, 1), BuildingBlock: KIFKEQ_clean_linker_1, # of connection points: 2
#     Edge 61, Type (0, 1), BuildingBlock: KIFKEQ_clean_linker_1, # of connection points: 2
#     Edge 62, Type (0, 1), BuildingBlock: KIFKEQ_clean_linker_1, # of connection points: 2
#     Edge 63, Type (0, 1), BuildingBlock: KIFKEQ_clean_linker_1, # of connection points: 2
#     Edge 64, Type (0, 1), BuildingBlock: KIFKEQ_clean_linker_1, # of connection points: 2
#     Edge 65, Type (0, 1), BuildingBlock: KIFKEQ_clean_linker_1, # of connection points: 2
#     Edge 66, Type (0, 1), BuildingBlock: KIFKEQ_clean_linker_1, # of connection points: 2
#     Edge 67, Type (0, 1), BuildingBlock: KIFKEQ_clean_linker_1, # of connection points: 2
#     Edge 68, Type (0, 1), BuildingBlock: KIFKEQ_clean_linker_1, # of connection points: 2
#     Edge 69, Type (0, 1), BuildingBlock: KIFKEQ_clean_linker_1, # of connection points: 2
#     Edge 70, Type (0, 1), BuildingBlock: KIFKEQ_clean_linker_1, # of connection points: 2
#     Edge 71, Type (0, 1), BuildingBlock: KIFKEQ_clean_linker_1, # of connection points: 2
#     Edge 72, Type (0, 1), BuildingBlock: KIFKEQ_clean_linker_1, # of connection points: 2
#     Edge 73, Type (0, 1), BuildingBlock: KIFKEQ_clean_linker_1, # of connection points: 2
#     Edge 74, Type (0, 1), BuildingBlock: KIFKEQ_clean_linker_1, # of connection points: 2
#     Edge 75, Type (0, 1), BuildingBlock: KIFKEQ_clean_linker_1, # of connection points: 2
#     Edge 76, Type (0, 1), BuildingBlock: KIFKEQ_clean_linker_1, # of connection points: 2
#     Edge 77, Type (0, 1), BuildingBlock: KIFKEQ_clean_linker_1, # of connection points: 2
#     Edge 78, Type (0, 1), BuildingBlock: KIFKEQ_clean_linker_1, # of connection points: 2
#     Edge 79, Type (0, 1), BuildingBlock: KIFKEQ_clean_linker_1, # of connection points: 2
#     Edge 80, Type (0, 1), BuildingBlock: KIFKEQ_clean_linker_1, # of connection points: 2
#     Edge 81, Type (0, 1), BuildingBlock: KIFKEQ_clean_linker_1, # of connection points: 2
#     Edge 82, Type (0, 1), BuildingBlock: KIFKEQ_clean_linker_1, # of connection points: 2
#     Edge 83, Type (0, 1), BuildingBlock: KIFKEQ_clean_linker_1, # of connection points: 2
#     Edge 84, Type (0, 1), BuildingBlock: KIFKEQ_clean_linker_1, # of connection points: 2
#     Edge 85, Type (0, 1), BuildingBlock: KIFKEQ_clean_linker_1, # of connection points: 2
#     Edge 86, Type (0, 1), BuildingBlock: KIFKEQ_clean_linker_1, # of connection points: 2
#     Edge 87, Type (0, 1), BuildingBlock: KIFKEQ_clean_linker_1, # of connection points: 2
#     Edge 88, Type (0, 1), BuildingBlock: KIFKEQ_clean_linker_1, # of connection points: 2
#     Edge 89, Type (0, 1), BuildingBlock: KIFKEQ_clean_linker_1, # of connection points: 2
#     Edge 90, Type (0, 1), BuildingBlock: KIFKEQ_clean_linker_1, # of connection points: 2
#     Edge 91, Type (0, 1), BuildingBlock: KIFKEQ_clean_linker_1, # of connection points: 2
#     Edge 92, Type (0, 1), BuildingBlock: KIFKEQ_clean_linker_1, # of connection points: 2
#     Edge 93, Type (0, 1), BuildingBlock: KIFKEQ_clean_linker_1, # of connection points: 2
#     Edge 94, Type (0, 1), BuildingBlock: KIFKEQ_clean_linker_1, # of connection points: 2
#     Edge 95, Type (0, 1), BuildingBlock: KIFKEQ_clean_linker_1, # of connection points: 2
#     Edge 96, Type (0, 1), BuildingBlock: KIFKEQ_clean_linker_1, # of connection points: 2
#     Edge 97, Type (0, 1), BuildingBlock: KIFKEQ_clean_linker_1, # of connection points: 2
#     Edge 98, Type (0, 1), BuildingBlock: KIFKEQ_clean_linker_1, # of connection points: 2
#     Edge 99, Type (0, 1), BuildingBlock: KIFKEQ_clean_linker_1, # of connection points: 2
#     Edge 100, Type (0, 1), BuildingBlock: KIFKEQ_clean_linker_1, # of connection points: 2
#     Edge 101, Type (0, 1), BuildingBlock: KIFKEQ_clean_linker_1, # of connection points: 2
#     Edge 102, Type (0, 1), BuildingBlock: KIFKEQ_clean_linker_1, # of connection points: 2
#     Edge 103, Type (0, 1), BuildingBlock: KIFKEQ_clean_linker_1, # of connection points: 2
#     Edge 104, Type (0, 1), BuildingBlock: KIFKEQ_clean_linker_1, # of connection points: 2
#     Edge 105, Type (0, 1), BuildingBlock: KIFKEQ_clean_linker_1, # of connection points: 2
#     Edge 106, Type (0, 1), BuildingBlock: KIFKEQ_clean_linker_1, # of connection points: 2
#     Edge 107, Type (0, 1), BuildingBlock: KIFKEQ_clean_linker_1, # of connection points: 2
# Relax obj value: 0.051
# Max RMSD: 0.177
# Mean RMSD: 0.117
data_MOF--net-ptr--node1-CEKHIL_clean_sbu_0--node2-AZAVOO_clean_linker_0--edge1-KIFKEQ_clean_linker_1
_symmetry_space_group_name_H-M    P1
_symmetry_Int_Tables_number       1
_symmetry_cell_setting            triclinic
loop_
_symmetry_equiv_pos_as_xyz
'x, y, z'
_cell_length_a     83.582474
_cell_length_b     81.14241
_cell_length_c     70.397944
_cell_angle_alpha  93.535871
_cell_angle_beta   91.810522
_cell_angle_gamma 121.19929
loop_
_atom_site_label
_atom_site_type_symbol
_atom_site_fract_x
_atom_site_fract_y
_atom_site_fract_z
_atom_type_partial_charge
Co0 Co 0.01134 0.35135 0.01816 0.0
O1 O 0.01487 0.33985 0.03971 0.0
O2 O 0.03755 0.3655 0.02743 0.0
C3 C 0.99339 0.32338 0.9997 0.0
O4 O 0.01287 0.36689 0.9958 0.0
Co5 Co 0.97133 0.34149 0.00438 0.0
O6 O 0.9839 0.35347 0.98129 0.0
C7 C 0.99118 0.36876 0.03865 0.0
C8 C 0.03254 0.35301 0.04011 0.0
C9 C 0.00156 0.3652 0.9819 0.0
O10 O 0.0061 0.36838 0.03562 0.0
O11 O 0.97559 0.35807 0.02864 0.0
O12 O 0.01154 0.33176 0.00066 0.0
O13 O 0.98683 0.3312 0.01102 0.0
Co14 Co 0.6451 0.63422 0.06251 0.0
O15 O 0.6618 0.64918 0.04404 0.0
O16 O 0.6576 0.6214 0.05236 0.0
C17 C 0.6542 0.65935 0.08445 0.0
O18 O 0.6296 0.61541 0.0818 0.0
Co19 Co 0.61404 0.64212 0.07443 0.0
O20 O 0.61281 0.62668 0.09567 0.0
C21 C 0.60948 0.62092 0.03721 0.0
C22 C 0.66626 0.6361 0.04224 0.0
C23 C 0.61905 0.61528 0.09482 0.0
O24 O 0.62403 0.62007 0.04189 0.0
O25 O 0.604 0.63029 0.04762 0.0
O26 O 0.66385 0.65097 0.0831 0.0
O27 O 0.64055 0.65342 0.07156 0.0
Co28 Co 0.36766 0.99709 0.02063 0.0
O29 O 0.35169 0.00149 0.0044 0.0
O30 O 0.37956 0.02453 0.01732 0.0
C31 C 0.345 0.9778 0.03916 0.0
O32 O 0.38745 0.99774 0.03898 0.0
Co33 Co 0.36015 0.95567 0.02068 0.0
O34 O 0.38025 0.96713 0.04163 0.0
C35 C 0.3783 0.97815 0.98856 0.0
C36 C 0.36438 0.01973 0.00686 0.0
C37 C 0.39035 0.98527 0.04631 0.0
O38 O 0.37961 0.9931 0.99767 0.0
O39 O 0.3695 0.96131 0.99457 0.0
O40 O 0.35373 0.99648 0.0424 0.0
O41 O 0.34893 0.97134 0.02386 0.0
Co42 Co 0.99473 0.65103 0.04748 0.0
O43 O 0.98992 0.66186 0.02616 0.0
O44 O 0.96826 0.63594 0.03895 0.0
C45 C 0.01237 0.67944 0.06534 0.0
O46 O 0.99477 0.6361 0.06979 0.0
Co47 Co 0.0357 0.6629 0.05947 0.0
O48 O 0.0244 0.65038 0.08283 0.0
C49 C 0.0154 0.63496 0.02581 0.0
C50 C 0.97249 0.64821 0.02613 0.0
C51 C 0.00687 0.63821 0.08301 0.0
O52 O 1.00022 0.63448 0.02968 0.0
O53 O 0.03128 0.64643 0.03506 0.0
O54 O 0.9942 0.67022 0.06524 0.0
O55 O 0.01905 0.67203 0.05367 0.0
Co56 Co 0.3593 0.36864 0.00578 0.0
O57 O 0.34409 0.3547 0.0257 0.0
O58 O 0.34647 0.38116 0.01557 0.0
C59 C 0.3501 0.34242 0.98533 0.0
O60 O 0.37313 0.38646 0.98512 0.0
Co61 Co 0.3907 0.36196 0.99225 0.0
O62 O 0.38867 0.37449 0.9698 0.0
C63 C 0.39678 0.3852 0.02871 0.0
C64 C 0.33906 0.36738 0.02691 0.0
C65 C 0.38229 0.38574 0.97104 0.0
O66 O 0.38123 0.38453 0.02517 0.0
O67 O 0.40252 0.37633 0.0179 0.0
O68 O 0.33982 0.35011 0.98653 0.0
O69 O 0.36456 0.34978 0.99741 0.0
Co70 Co 0.63457 0.00401 0.04612 0.0
O71 O 0.65026 0.00201 0.06507 0.0
O72 O 0.62328 0.97733 0.05207 0.0
C73 C 0.65806 0.02203 0.02786 0.0
O74 O 0.61522 0.00075 0.0253 0.0
Co75 Co 0.63993 0.04366 0.03975 0.0
O76 O 0.62633 0.03011 0.01481 0.0
C77 C 0.61993 0.0238 0.07262 0.0
C78 C 0.63815 0.98358 0.06363 0.0
C79 C 0.61528 0.01183 0.01291 0.0
O80 O 0.62117 0.00922 0.06673 0.0
O81 O 0.62716 0.03946 0.06431 0.0
O82 O 0.64997 0.00334 0.02651 0.0
O83 O 0.65278 0.02948 0.04125 0.0
Co84 Co 0.67452 0.68844 0.3521 0.0
O85 O 0.67654 0.67514 0.37288 0.0
O86 O 0.69997 0.7023 0.36362 0.0
C87 C 0.65819 0.66177 0.33147 0.0
O88 O 0.67797 0.70587 0.33093 0.0
Co89 Co 0.63575 0.67944 0.33504 0.0
O90 O 0.65043 0.6931 0.31355 0.0
C91 C 0.65195 0.70325 0.37194 0.0
C92 C 0.69417 0.68858 0.37502 0.0
C93 C 0.66806 0.70497 0.31607 0.0
O94 O 0.66745 0.70373 0.36991 0.0
O95 O 0.63735 0.69326 0.36035 0.0
O96 O 0.67634 0.67033 0.33385 0.0
O97 O 0.65062 0.66866 0.34251 0.0
Co98 Co 0.31332 0.96725 0.3984 0.0
O99 O 0.33104 0.98052 0.37996 0.0
O100 O 0.32427 0.95233 0.3897 0.0
C101 C 0.32354 0.99345 0.41933 0.0
O102 O 0.2963 0.94975 0.41784 0.0
Co103 Co 0.28423 0.97891 0.40835 0.0
O104 O 0.28046 0.96301 0.42991 0.0
C105 C 0.27894 0.956 0.37198 0.0
C106 C 0.334 0.96632 0.37908 0.0
C107 C 0.28544 0.95058 0.42999 0.0
O108 O 0.29251 0.95375 0.37739 0.0
O109 O 0.27447 0.96672 0.38166 0.0
O110 O 0.33214 0.98392 0.41916 0.0
O111 O 0.31038 0.98786 0.406 0.0
Co112 Co 0.04241 0.33496 0.35618 0.0
O113 O 0.02894 0.34065 0.33786 0.0
O114 O 0.05691 0.36219 0.35184 0.0
C115 C 0.01777 0.31798 0.3736 0.0
O116 O 0.06002 0.33427 0.37653 0.0
Co117 Co 0.03075 0.29235 0.35948 0.0
O118 O 0.04782 0.30336 0.38299 0.0
C119 C 0.05169 0.31225 0.32707 0.0
C120 C 0.04279 0.35844 0.34017 0.0
C121 C 0.05985 0.32137 0.38649 0.0
O122 O 0.05434 0.32829 0.33497 0.0
O123 O 0.04141 0.29596 0.33384 0.0
O124 O 0.02772 0.33674 0.37622 0.0
O125 O 0.02204 0.31028 0.35957 0.0
Co126 Co 0.65852 0.97434 0.38101 0.0
O127 O 0.65502 0.98498 0.35867 0.0
O128 O 0.63231 0.96015 0.37184 0.0
C129 C 0.67697 0.00293 0.39836 0.0
O130 O 0.65668 0.95969 0.4043 0.0
Co131 Co 0.69828 0.98392 0.39563 0.0
O132 O 0.68556 0.97222 0.41863 0.0
C133 C 0.67811 0.95535 0.36237 0.0
C134 C 0.63731 0.97198 0.35853 0.0
C135 C 0.66782 0.96106 0.41824 0.0
O136 O 0.66343 0.95646 0.36444 0.0
O137 O 0.69355 0.96577 0.37264 0.0
O138 O 0.65885 0.99495 0.39744 0.0
O139 O 0.6832 0.99431 0.38769 0.0
Co140 Co 0.02709 0.702 0.33955 0.0
O141 O 0.00938 0.68647 0.3571 0.0
O142 O 0.01401 0.71446 0.34894 0.0
C143 C 0.01927 0.67756 0.3171 0.0
O144 O 0.0439 0.72165 0.32139 0.0
Co145 Co 0.0588 0.69422 0.32928 0.0
O146 O 0.06328 0.71251 0.30995 0.0
C147 C 0.06192 0.71526 0.36623 0.0
C148 C 0.00497 0.69961 0.35877 0.0
C149 C 0.05667 0.72358 0.31031 0.0
O150 O 0.04713 0.71559 0.36129 0.0
O151 O 0.0681 0.70643 0.35602 0.0
O152 O 0.00939 0.68571 0.31794 0.0
O153 O 0.03218 0.68314 0.33071 0.0
Co154 Co 0.30057 0.33774 0.37907 0.0
O155 O 0.31616 0.33446 0.39711 0.0
O156 O 0.28853 0.3108 0.38418 0.0
C157 C 0.32368 0.3556 0.36029 0.0
O158 O 0.28101 0.33558 0.35925 0.0
Co159 Co 0.30762 0.37844 0.3743 0.0
O160 O 0.28944 0.36544 0.3518 0.0
C161 C 0.28859 0.35858 0.40757 0.0
C162 C 0.30341 0.3162 0.3954 0.0
C163 C 0.27888 0.34711 0.34911 0.0
O164 O 0.2883 0.34335 0.40073 0.0
O165 O 0.2966 0.37452 0.39975 0.0
O166 O 0.31501 0.33685 0.35843 0.0
O167 O 0.31927 0.36307 0.37445 0.0
Co168 Co 0.34411 0.02335 0.68364 0.0
O169 O 0.34854 0.01227 0.70504 0.0
O170 O 0.37036 0.03846 0.69272 0.0
C171 C 0.32669 0.99528 0.66514 0.0
O172 O 0.34475 0.03866 0.66137 0.0
Co173 Co 0.30337 0.01185 0.67061 0.0
O174 O 0.31538 0.02565 0.64812 0.0
C175 C 0.32272 0.03867 0.70514 0.0
C176 C 0.36597 0.02609 0.70545 0.0
C177 C 0.33301 0.03744 0.6482 0.0
O178 O 0.33814 0.03958 0.70144 0.0
O179 O 0.3071 0.02733 0.69543 0.0
O180 O 0.34488 0.00421 0.66587 0.0
O181 O 0.31988 0.00263 0.67669 0.0
Co182 Co 0.97644 0.29621 0.72634 0.0
O183 O 0.99273 0.31135 0.70758 0.0
O184 O 0.99086 0.28509 0.71751 0.0
C185 C 0.98321 0.32161 0.74709 0.0
O186 O 0.96188 0.2775 0.74617 0.0
Co187 Co 0.94304 0.30082 0.73742 0.0
O188 O 0.94353 0.28706 0.75946 0.0
C189 C 0.94051 0.27959 0.70071 0.0
C190 C 0.99865 0.29939 0.70681 0.0
C191 C 0.95104 0.27682 0.75912 0.0
O192 O 0.95575 0.28007 0.70563 0.0
O193 O 0.93407 0.28823 0.7108 0.0
O194 O 0.99435 0.3149 0.74677 0.0
O195 O 0.96955 0.31389 0.73405 0.0
Co196 Co 0.70351 0.66263 0.68685 0.0
O197 O 0.6876 0.66571 0.66913 0.0
O198 O 0.71563 0.68941 0.68101 0.0
C199 C 0.68077 0.64552 0.70628 0.0
O200 O 0.72338 0.66487 0.70637 0.0
Co201 Co 0.69598 0.62182 0.69209 0.0
O202 O 0.7142 0.63501 0.71448 0.0
C203 C 0.71473 0.64097 0.65845 0.0
C204 C 0.70042 0.68393 0.67029 0.0
C205 C 0.72519 0.65331 0.71679 0.0
O206 O 0.71506 0.6563 0.66499 0.0
O207 O 0.70696 0.62524 0.66664 0.0
O208 O 0.68969 0.66428 0.70774 0.0
O209 O 0.68475 0.63759 0.69215 0.0
Co210 Co 0.3313 0.3131 0.71407 0.0
O211 O 0.32727 0.32538 0.69356 0.0
O212 O 0.30538 0.29782 0.70373 0.0
C213 C 0.34707 0.33997 0.73449 0.0
O214 O 0.3305 0.29649 0.73517 0.0
Co215 Co 0.37233 0.32575 0.72744 0.0
O216 O 0.35995 0.30871 0.74794 0.0
C217 C 0.35465 0.30099 0.69153 0.0
C218 C 0.30997 0.31118 0.69206 0.0
C219 C 0.34233 0.29667 0.74754 0.0
O220 O 0.33873 0.29872 0.69548 0.0
O221 O 0.37001 0.3126 0.70155 0.0
O222 O 0.32886 0.33039 0.73283 0.0
O223 O 0.35493 0.33414 0.72263 0.0
Co224 Co 0.69245 0.03696 0.66972 0.0
O225 O 0.67605 0.02374 0.6892 0.0
O226 O 0.68025 0.05062 0.67827 0.0
C227 C 0.68307 0.01014 0.65 0.0
O228 O 0.7076 0.05417 0.64915 0.0
Co229 Co 0.7233 0.02849 0.65834 0.0
O230 O 0.72267 0.04091 0.63522 0.0
C231 C 0.7291 0.05274 0.69399 0.0
C232 C 0.6718 0.03703 0.68965 0.0
C233 C 0.71697 0.05275 0.63563 0.0
O234 O 0.71389 0.05252 0.68975 0.0
O235 O 0.73471 0.0433 0.68386 0.0
O236 O 0.67332 0.01846 0.65006 0.0
O237 O 0.69708 0.01738 0.66263 0.0
Co238 Co 0.96241 0.66756 0.71039 0.0
O239 O 0.97596 0.66258 0.72935 0.0
O240 O 0.94851 0.64037 0.71475 0.0
C241 C 0.98719 0.68513 0.69333 0.0
O242 O 0.94472 0.66729 0.68954 0.0
Co243 Co 0.97241 0.70947 0.70638 0.0
O244 O 0.95488 0.69787 0.6832 0.0
C245 C 0.95168 0.68947 0.7388 0.0
C246 C 0.9624 0.64464 0.727 0.0
C247 C 0.94378 0.67966 0.67968 0.0
O248 O 0.94958 0.67363 0.73105 0.0
O249 O 0.9617 0.7058 0.73201 0.0
O250 O 0.97777 0.66636 0.69082 0.0
O251 O 0.98237 0.69259 0.7071 0.0
H252 H 0.17082 0.36161 0.044 0.0
H253 H 0.25985 0.28978 0.18485 0.0
H254 H 0.15849 0.35497 0.15321 0.0
H255 H 0.13605 0.36126 0.13698 0.0
H256 H 0.10219 0.30091 0.11619 0.0
H257 H 0.12433 0.29455 0.13313 0.0
H258 H 0.18844 0.35835 0.12431 0.0
H259 H 0.18479 0.36556 0.09173 0.0
H260 H 0.14645 0.30453 0.07565 0.0
H261 H 0.15033 0.29757 0.10825 0.0
H262 H 0.22168 0.35358 0.14982 0.0
H263 H 0.24802 0.36298 0.12991 0.0
H264 H 0.21351 0.31173 0.09138 0.0
H265 H 0.18721 0.30218 0.11165 0.0
H266 H 0.21827 0.34127 0.18874 0.0
H267 H 0.24391 0.33696 0.19941 0.0
H268 H 0.21976 0.28406 0.16206 0.0
H269 H 0.19406 0.28841 0.15173 0.0
H270 H 0.18499 0.34167 0.20689 0.0
H271 H 0.19558 0.34023 0.23905 0.0
H272 H 0.18333 0.28227 0.22344 0.0
H273 H 0.17258 0.28382 0.19112 0.0
H274 H 0.15799 0.34753 0.18697 0.0
H275 H 0.1377 0.34654 0.21167 0.0
H276 H 0.11264 0.28459 0.21061 0.0
H277 H 0.13264 0.28571 0.18537 0.0
O278 O 0.17218 0.35845 0.05675 0.0
O279 O 0.15258 0.32692 0.04923 0.0
O280 O 0.26168 0.3191 0.19989 0.0
O281 O 0.24989 0.29186 0.18085 0.0
C282 C 0.15809 0.32128 0.15127 0.0
C283 C 0.17145 0.32317 0.13841 0.0
C284 C 0.18687 0.32178 0.14462 0.0
C285 C 0.18837 0.31735 0.16343 0.0
C286 C 0.17498 0.31539 0.17637 0.0
C287 C 0.15996 0.31763 0.17033 0.0
C288 C 0.14282 0.32424 0.14465 0.0
C289 C 0.14585 0.34298 0.14579 0.0
C290 C 0.13313 0.34658 0.13642 0.0
C291 C 0.11749 0.33157 0.12534 0.0
C292 C 0.11419 0.3127 0.12465 0.0
C293 C 0.12669 0.30903 0.13441 0.0
C294 C 0.16966 0.32747 0.11855 0.0
C295 C 0.17934 0.34659 0.11368 0.0
C296 C 0.17719 0.35065 0.09509 0.0
C297 C 0.16531 0.33562 0.08108 0.0
C298 C 0.1557 0.31644 0.08607 0.0
C299 C 0.15789 0.31242 0.10466 0.0
C300 C 0.20258 0.32717 0.13222 0.0
C301 C 0.21984 0.34432 0.13714 0.0
C302 C 0.23484 0.34966 0.12578 0.0
C303 C 0.23279 0.33807 0.10914 0.0
C304 C 0.21539 0.321 0.10406 0.0
C305 C 0.20042 0.31552 0.1156 0.0
C306 C 0.20423 0.31505 0.1696 0.0
C307 C 0.2185 0.32872 0.18296 0.0
C308 C 0.23315 0.32625 0.18899 0.0
C309 C 0.23386 0.31013 0.18162 0.0
C310 C 0.21963 0.29661 0.16805 0.0
C311 C 0.20495 0.29907 0.16209 0.0
C312 C 0.17793 0.31283 0.19667 0.0
C313 C 0.18398 0.32841 0.21057 0.0
C314 C 0.19007 0.32756 0.22896 0.0
C315 C 0.19038 0.31115 0.2338 0.0
C316 C 0.18344 0.29517 0.22009 0.0
C317 C 0.17717 0.29598 0.2017 0.0
C318 C 0.14657 0.31666 0.18418 0.0
C319 C 0.1478 0.3337 0.19174 0.0
C320 C 0.13638 0.33312 0.20605 0.0
C321 C 0.1236 0.31549 0.21318 0.0
C322 C 0.12216 0.29837 0.20528 0.0
C323 C 0.1336 0.29897 0.19092 0.0
C324 C 0.16293 0.33998 0.06139 0.0
C325 C 0.24934 0.30738 0.18805 0.0
H326 H 0.67437 0.81439 0.05044 0.0
H327 H 0.70236 0.96837 0.20981 0.0
H328 H 0.66222 0.80643 0.15635 0.0
H329 H 0.65813 0.7748 0.14787 0.0
H330 H 0.71778 0.79938 0.15895 0.0
H331 H 0.72177 0.83129 0.16685 0.0
H332 H 0.66207 0.82799 0.12975 0.0
H333 H 0.66149 0.81901 0.09579 0.0
H334 H 0.72213 0.85305 0.09913 0.0
H335 H 0.72245 0.86195 0.13309 0.0
H336 H 0.65744 0.85499 0.14363 0.0
H337 H 0.64784 0.87328 0.1249 0.0
H338 H 0.70533 0.92086 0.12822 0.0
H339 H 0.71492 0.9022 0.14654 0.0
H340 H 0.6619 0.87304 0.18905 0.0
H341 H 0.65933 0.90092 0.19937 0.0
H342 H 0.71893 0.93884 0.19498 0.0
H343 H 0.72126 0.91081 0.18477 0.0
H344 H 0.66521 0.84347 0.2153 0.0
H345 H 0.66184 0.85423 0.24718 0.0
H346 H 0.71833 0.90383 0.24845 0.0
H347 H 0.722 0.8919 0.21724 0.0
H348 H 0.66457 0.81456 0.20031 0.0
H349 H 0.66355 0.79181 0.22192 0.0
H350 H 0.72424 0.82273 0.2267 0.0
H351 H 0.72495 0.84627 0.20599 0.0
O352 O 0.67491 0.81817 0.06386 0.0
O353 O 0.70609 0.83576 0.06638 0.0
O354 O 0.67241 0.93697 0.20796 0.0
O355 O 0.70296 0.95709 0.20578 0.0
C356 C 0.69418 0.8398 0.16808 0.0
C357 C 0.69273 0.85102 0.15437 0.0
C358 C 0.69181 0.86739 0.16031 0.0
C359 C 0.69324 0.87305 0.17995 0.0
C360 C 0.69475 0.86185 0.19368 0.0
C361 C 0.69508 0.84513 0.18774 0.0
C362 C 0.69229 0.82109 0.16195 0.0
C363 C 0.67442 0.805 0.15671 0.0
C364 C 0.6721 0.78691 0.15217 0.0
C365 C 0.68761 0.78454 0.15296 0.0
C366 C 0.70559 0.80078 0.15812 0.0
C367 C 0.7079 0.81896 0.16261 0.0
C368 C 0.6923 0.84568 0.13378 0.0
C369 C 0.67519 0.83354 0.12308 0.0
C370 C 0.67491 0.82842 0.1037 0.0
C371 C 0.69177 0.83532 0.09473 0.0
C372 C 0.70889 0.84749 0.10559 0.0
C373 C 0.70913 0.85261 0.12496 0.0
C374 C 0.68688 0.87723 0.14628 0.0
C375 C 0.66804 0.8691 0.13976 0.0
C376 C 0.66257 0.87957 0.12915 0.0
C377 C 0.67584 0.89849 0.12524 0.0
C378 C 0.69483 0.90633 0.13118 0.0
C379 C 0.70034 0.89571 0.14152 0.0
C380 C 0.69174 0.88998 0.18616 0.0
C381 C 0.67435 0.88739 0.19034 0.0
C382 C 0.67294 0.90333 0.19622 0.0
C383 C 0.68894 0.92213 0.19799 0.0
C384 C 0.70635 0.92459 0.19376 0.0
C385 C 0.70773 0.90863 0.18792 0.0
C386 C 0.69395 0.86674 0.2141 0.0
C387 C 0.67711 0.8562 0.22283 0.0
C388 C 0.67509 0.86264 0.24091 0.0
C389 C 0.6897 0.88009 0.25037 0.0
C390 C 0.70684 0.8902 0.24182 0.0
C391 C 0.70898 0.88348 0.22391 0.0
C392 C 0.69481 0.8322 0.20187 0.0
C393 C 0.67763 0.81663 0.20638 0.0
C394 C 0.67712 0.80344 0.21849 0.0
C395 C 0.69383 0.80519 0.22596 0.0
C396 C 0.71109 0.82099 0.22147 0.0
C397 C 0.71155 0.83444 0.2096 0.0
C398 C 0.69143 0.82981 0.07416 0.0
C399 C 0.68753 0.93911 0.20421 0.0
H400 H 0.13886 0.83888 0.04333 0.0
H401 H 0.29604 0.96178 0.19609 0.0
H402 H 0.12861 0.85274 0.14267 0.0
H403 H 0.09918 0.82393 0.1294 0.0
H404 H 0.11499 0.78767 0.15668 0.0
H405 H 0.14451 0.81642 0.16949 0.0
H406 H 0.16311 0.88004 0.11966 0.0
H407 H 0.15291 0.86756 0.08618 0.0
H408 H 0.15323 0.81594 0.09751 0.0
H409 H 0.16365 0.82871 0.13089 0.0
H410 H 0.1993 0.91145 0.13562 0.0
H411 H 0.22426 0.92642 0.11384 0.0
H412 H 0.23401 0.87919 0.11731 0.0
H413 H 0.20828 0.86392 0.13801 0.0
H414 H 0.20319 0.9216 0.18464 0.0
H415 H 0.23434 0.95001 0.19371 0.0
H416 H 0.25923 0.91567 0.18099 0.0
H417 H 0.22799 0.88736 0.17217 0.0
H418 H 0.17413 0.89462 0.21466 0.0
H419 H 0.18905 0.9061 0.24723 0.0
H420 H 0.22259 0.88057 0.23637 0.0
H421 H 0.2078 0.86942 0.20395 0.0
H422 H 0.13113 0.85732 0.19111 0.0
H423 H 0.11056 0.83861 0.21566 0.0
H424 H 0.14888 0.82001 0.23081 0.0
H425 H 0.16905 0.83836 0.20629 0.0
O426 O 0.14299 0.84358 0.0566 0.0
O427 O 0.14324 0.81727 0.06321 0.0
O428 O 0.27007 0.9678 0.19896 0.0
O429 O 0.28357 0.9508 0.19257 0.0
C430 C 0.15768 0.85374 0.16245 0.0
C431 C 0.17002 0.86278 0.14803 0.0
C432 C 0.18837 0.8785 0.15302 0.0
C433 C 0.19438 0.88535 0.17234 0.0
C434 C 0.18242 0.8758 0.18678 0.0
C435 C 0.16397 0.86008 0.18189 0.0
C436 C 0.13869 0.83666 0.15702 0.0
C437 C 0.12555 0.83858 0.14603 0.0
C438 C 0.1088 0.82217 0.13847 0.0
C439 C 0.10486 0.80362 0.14202 0.0
C440 C 0.11758 0.80181 0.15393 0.0
C441 C 0.13442 0.8182 0.16126 0.0
C442 C 0.16406 0.85526 0.12767 0.0
C443 C 0.16105 0.86609 0.11484 0.0
C444 C 0.15518 0.8589 0.09575 0.0
C445 C 0.15222 0.84073 0.08917 0.0
C446 C 0.15535 0.82997 0.10211 0.0
C447 C 0.16127 0.8372 0.12118 0.0
C448 C 0.20203 0.88663 0.13829 0.0
C449 C 0.20663 0.90423 0.13129 0.0
C450 C 0.22106 0.91284 0.11904 0.0
C451 C 0.2314 0.90418 0.11391 0.0
C452 C 0.22627 0.8862 0.12062 0.0
C453 C 0.21162 0.87746 0.13255 0.0
C454 C 0.21339 0.90252 0.17757 0.0
C455 C 0.21541 0.92028 0.18379 0.0
C456 C 0.2332 0.93646 0.18896 0.0
C457 C 0.24929 0.93512 0.18802 0.0
C458 C 0.24716 0.91723 0.18182 0.0
C459 C 0.22935 0.90106 0.17669 0.0
C460 C 0.19003 0.88137 0.20697 0.0
C461 C 0.18457 0.89139 0.21945 0.0
C462 C 0.19306 0.89785 0.23801 0.0
C463 C 0.20713 0.89438 0.24428 0.0
C464 C 0.21206 0.88378 0.23185 0.0
C465 C 0.20359 0.87733 0.21339 0.0
C466 C 0.15173 0.84943 0.19711 0.0
C467 C 0.13508 0.84927 0.19985 0.0
C468 C 0.12335 0.83858 0.2138 0.0
C469 C 0.12824 0.82806 0.22532 0.0
C470 C 0.14494 0.82832 0.22248 0.0
C471 C 0.1565 0.8388 0.20847 0.0
C472 C 0.14589 0.8331 0.06891 0.0
C473 C 0.26822 0.95226 0.19352 0.0
H474 H 0.29755 0.17173 0.01305 0.0
H475 H 0.33724 0.05206 0.86892 0.0
H476 H 0.2849 0.16924 0.90955 0.0
H477 H 0.2894 0.20085 0.92076 0.0
H478 H 0.34676 0.22908 0.90549 0.0
H479 H 0.3422 0.19769 0.89427 0.0
H480 H 0.28535 0.13481 0.93559 0.0
H481 H 0.28526 0.14567 0.96879 0.0
H482 H 0.34103 0.19525 0.96563 0.0
H483 H 0.34101 0.18408 0.93254 0.0
H484 H 0.29226 0.09947 0.91849 0.0
H485 H 0.3018 0.08291 0.93982 0.0
H486 H 0.35595 0.13544 0.95185 0.0
H487 H 0.34648 0.15162 0.92995 0.0
H488 H 0.28637 0.09388 0.87238 0.0
H489 H 0.2886 0.06543 0.86405 0.0
H490 H 0.34711 0.09784 0.88474 0.0
H491 H 0.34472 0.12623 0.89278 0.0
H492 H 0.28561 0.11995 0.84407 0.0
H493 H 0.28887 0.10636 0.81334 0.0
H494 H 0.34845 0.13367 0.82761 0.0
H495 H 0.34495 0.14682 0.85831 0.0
H496 H 0.28261 0.15963 0.86371 0.0
H497 H 0.28321 0.18027 0.83934 0.0
H498 H 0.34162 0.20018 0.83291 0.0
H499 H 0.34067 0.17926 0.85681 0.0
O500 O 0.29792 0.16766 0.99995 0.0
O501 O 0.32656 0.19293 0.99756 0.0
O502 O 0.30587 0.0471 0.86154 0.0
O503 O 0.33597 0.06308 0.87209 0.0
C504 C 0.31165 0.16243 0.8965 0.0
C505 C 0.3129 0.15215 0.91144 0.0
C506 C 0.31434 0.13577 0.90718 0.0
C507 C 0.31391 0.12932 0.88797 0.0
C508 C 0.31282 0.13969 0.87309 0.0
C509 C 0.31156 0.15617 0.87731 0.0
C510 C 0.31324 0.18128 0.90113 0.0
C511 C 0.29829 0.18232 0.9083 0.0
C512 C 0.30084 0.20028 0.9146 0.0
C513 C 0.31843 0.21724 0.91399 0.0
C514 C 0.33311 0.21615 0.90613 0.0
C515 C 0.3305 0.1983 0.89967 0.0
C516 C 0.31309 0.15876 0.93163 0.0
C517 C 0.29753 0.148 0.94212 0.0
C518 C 0.29752 0.15424 0.96107 0.0
C519 C 0.31311 0.17137 0.96985 0.0
C520 C 0.32876 0.18203 0.95929 0.0
C521 C 0.32877 0.17574 0.94037 0.0
C522 C 0.31866 0.12673 0.92268 0.0
C523 C 0.30603 0.10747 0.92603 0.0
C524 C 0.31152 0.09807 0.93828 0.0
C525 C 0.32972 0.10782 0.94745 0.0
C526 C 0.34196 0.12744 0.94479 0.0
C527 C 0.33649 0.13678 0.93249 0.0
C528 C 0.31534 0.11203 0.88328 0.0
C529 C 0.29964 0.09477 0.8751 0.0
C530 C 0.30096 0.07857 0.87037 0.0
C531 C 0.31804 0.07935 0.87376 0.0
C532 C 0.33375 0.09672 0.88197 0.0
C533 C 0.33242 0.11294 0.88664 0.0
C534 C 0.31503 0.13425 0.85334 0.0
C535 C 0.29938 0.12328 0.84032 0.0
C536 C 0.3013 0.11558 0.82281 0.0
C537 C 0.31889 0.11877 0.81819 0.0
C538 C 0.33467 0.13068 0.83092 0.0
C539 C 0.33274 0.13832 0.84835 0.0
C540 C 0.31152 0.16776 0.8618 0.0
C541 C 0.29543 0.16829 0.8568 0.0
C542 C 0.29585 0.1802 0.843 0.0
C543 C 0.31242 0.19182 0.83403 0.0
C544 C 0.32848 0.19111 0.83913 0.0
C545 C 0.32801 0.17919 0.85284 0.0
C546 C 0.31301 0.17803 0.98994 0.0
C547 C 0.31951 0.06218 0.86874 0.0
H548 H 0.84409 0.16853 0.02421 0.0
H549 H 0.71808 0.02535 0.8583 0.0
H550 H 0.84833 0.18069 0.92237 0.0
H551 H 0.87707 0.21082 0.93364 0.0
H552 H 0.90962 0.18521 0.91812 0.0
H553 H 0.88047 0.15469 0.90715 0.0
H554 H 0.81883 0.15534 0.9433 0.0
H555 H 0.82619 0.16327 0.97776 0.0
H556 H 0.86064 0.13784 0.9762 0.0
H557 H 0.85298 0.1298 0.94174 0.0
H558 H 0.78728 0.13173 0.91925 0.0
H559 H 0.76193 0.11732 0.94054 0.0
H560 H 0.77808 0.07622 0.95357 0.0
H561 H 0.80416 0.0917 0.93312 0.0
H562 H 0.78208 0.11977 0.87276 0.0
H563 H 0.75113 0.09357 0.85946 0.0
H564 H 0.76249 0.05175 0.88143 0.0
H565 H 0.79349 0.07807 0.89444 0.0
H566 H 0.81962 0.14891 0.85364 0.0
H567 H 0.80661 0.13873 0.82041 0.0
H568 H 0.80121 0.08335 0.8255 0.0
H569 H 0.81489 0.09384 0.85852 0.0
H570 H 0.85255 0.1799 0.88059 0.0
H571 H 0.87687 0.20084 0.86031 0.0
H572 H 0.88414 0.15359 0.8416 0.0
H573 H 0.86003 0.1327 0.86256 0.0
O574 O 0.8413 0.16517 0.01059 0.0
O575 O 0.85888 0.15197 0.00901 0.0
O576 O 0.72508 0.05807 0.85241 0.0
O577 O 0.7302 0.036 0.86349 0.0
C578 C 0.84461 0.14768 0.90654 0.0
C579 C 0.83081 0.13699 0.91917 0.0
C580 C 0.81287 0.12187 0.91186 0.0
C581 C 0.80902 0.11665 0.89204 0.0
C582 C 0.82298 0.12697 0.87937 0.0
C583 C 0.8407 0.14272 0.88659 0.0
C584 C 0.86232 0.16548 0.91413 0.0
C585 C 0.86164 0.18149 0.92161 0.0
C586 C 0.87809 0.19877 0.92778 0.0
C587 C 0.89562 0.20044 0.92654 0.0
C588 C 0.8963 0.18429 0.91926 0.0
C589 C 0.87973 0.16692 0.91301 0.0
C590 C 0.83519 0.14178 0.94009 0.0
C591 C 0.8278 0.15131 0.95046 0.0
C592 C 0.8321 0.15591 0.97013 0.0
C593 C 0.84396 0.15114 0.97976 0.0
C594 C 0.85142 0.14168 0.96925 0.0
C595 C 0.84708 0.13707 0.94958 0.0
C596 C 0.79751 0.11276 0.92476 0.0
C597 C 0.78535 0.11968 0.92685 0.0
C598 C 0.77077 0.11129 0.9389 0.0
C599 C 0.76781 0.0955 0.94881 0.0
C600 C 0.78007 0.08856 0.94652 0.0
C601 C 0.7949 0.09724 0.93471 0.0
C602 C 0.79 0.10078 0.88452 0.0
C603 C 0.77784 0.10493 0.87467 0.0
C604 C 0.76018 0.08995 0.86711 0.0
C605 C 0.75434 0.07055 0.86936 0.0
C606 C 0.76654 0.0665 0.87942 0.0
C607 C 0.78422 0.0815 0.88693 0.0
C608 C 0.81822 0.12211 0.85848 0.0
C609 C 0.81623 0.13483 0.84739 0.0
C610 C 0.80872 0.12898 0.82849 0.0
C611 C 0.8028 0.11022 0.82056 0.0
C612 C 0.80556 0.09783 0.8314 0.0
C613 C 0.81341 0.10382 0.85017 0.0
C614 C 0.85476 0.15489 0.87332 0.0
C615 C 0.85952 0.17409 0.8723 0.0
C616 C 0.87341 0.18602 0.86074 0.0
C617 C 0.88255 0.17888 0.84963 0.0
C618 C 0.87735 0.15943 0.85012 0.0
C619 C 0.86361 0.14754 0.86201 0.0
C620 C 0.84854 0.15608 0.00065 0.0
C621 C 0.73565 0.05456 0.86123 0.0
H622 H 0.85459 0.68088 0.034 0.0
H623 H 0.72276 0.66819 0.86728 0.0
H624 H 0.87642 0.70364 0.93799 0.0
H625 H 0.89844 0.69714 0.95483 0.0
H626 H 0.87128 0.64024 0.92454 0.0
H627 H 0.84894 0.64656 0.90829 0.0
H628 H 0.84234 0.70224 0.95947 0.0
H629 H 0.84845 0.69859 0.9927 0.0
H630 H 0.83525 0.64039 0.97625 0.0
H631 H 0.82892 0.64415 0.94312 0.0
H632 H 0.80725 0.70185 0.94019 0.0
H633 H 0.78175 0.69364 0.96102 0.0
H634 H 0.76791 0.63418 0.95672 0.0
H635 H 0.79278 0.64241 0.9351 0.0
H636 H 0.81139 0.71275 0.90421 0.0
H637 H 0.7841 0.71432 0.89346 0.0
H638 H 0.75289 0.65241 0.87887 0.0
H639 H 0.78033 0.6511 0.88968 0.0
H640 H 0.83233 0.71477 0.87475 0.0
H641 H 0.8216 0.71633 0.84237 0.0
H642 H 0.8028 0.65603 0.82898 0.0
H643 H 0.8132 0.65455 0.8613 0.0
H644 H 0.87207 0.71305 0.88403 0.0
H645 H 0.8918 0.71481 0.85825 0.0
H646 H 0.86173 0.6523 0.85055 0.0
H647 H 0.84172 0.6508 0.87577 0.0
O648 O 0.85186 0.68191 0.02081 0.0
O649 O 0.84502 0.65211 0.01161 0.0
O650 O 0.7504 0.69976 0.87944 0.0
O651 O 0.73374 0.66798 0.87169 0.0
C652 C 0.84532 0.67777 0.91532 0.0
C653 C 0.83239 0.6762 0.92866 0.0
C654 C 0.81671 0.67733 0.92284 0.0
C655 C 0.81442 0.681 0.90394 0.0
C656 C 0.82733 0.68266 0.89058 0.0
C657 C 0.84264 0.68076 0.8962 0.0
C658 C 0.86125 0.6757 0.92167 0.0
C659 C 0.87558 0.68999 0.93459 0.0
C660 C 0.88799 0.68619 0.94432 0.0
C661 C 0.88644 0.66814 0.94104 0.0
C662 C 0.87286 0.65432 0.9272 0.0
C663 C 0.86024 0.658 0.91773 0.0
C664 C 0.83532 0.67352 0.9489 0.0
C665 C 0.84067 0.68868 0.96311 0.0
C666 C 0.8442 0.68657 0.98206 0.0
C667 C 0.84243 0.66923 0.98712 0.0
C668 C 0.83681 0.65396 0.97283 0.0
C669 C 0.83322 0.65607 0.9539 0.0
C670 C 0.80174 0.67269 0.93604 0.0
C671 C 0.79859 0.68704 0.94366 0.0
C672 C 0.78414 0.68234 0.95573 0.0
C673 C 0.77274 0.66321 0.96057 0.0
C674 C 0.77618 0.64896 0.95307 0.0
C675 C 0.79049 0.65366 0.94085 0.0
C676 C 0.79775 0.68182 0.89773 0.0
C677 C 0.79861 0.69956 0.89872 0.0
C678 C 0.78303 0.70041 0.89256 0.0
C679 C 0.7663 0.68348 0.88529 0.0
C680 C 0.76554 0.66571 0.88438 0.0
C681 C 0.78115 0.6649 0.89056 0.0
C682 C 0.82361 0.68457 0.87031 0.0
C683 C 0.82616 0.70202 0.86468 0.0
C684 C 0.81997 0.70286 0.84625 0.0
C685 C 0.81138 0.68632 0.83313 0.0
C686 C 0.80961 0.6691 0.83864 0.0
C687 C 0.81556 0.66822 0.8571 0.0
C688 C 0.85569 0.68181 0.88191 0.0
C689 C 0.86995 0.69978 0.87688 0.0
C690 C 0.88122 0.70073 0.8622 0.0
C691 C 0.87834 0.68369 0.8523 0.0
C692 C 0.86419 0.66571 0.85769 0.0
C693 C 0.85291 0.6648 0.87228 0.0
C694 C 0.84648 0.66715 0.00722 0.0
C695 C 0.74972 0.68432 0.87866 0.0
H696 H 0.84002 0.69586 0.37205 0.0
H697 H 0.92113 0.62131 0.51578 0.0
H698 H 0.82958 0.69426 0.4755 0.0
H699 H 0.80702 0.7011 0.46065 0.0
H700 H 0.76376 0.64076 0.45977 0.0
H701 H 0.78656 0.63397 0.47441 0.0
H702 H 0.85944 0.69398 0.45215 0.0
H703 H 0.8559 0.70027 0.41919 0.0
H704 H 0.80698 0.64265 0.40857 0.0
H705 H 0.81081 0.63648 0.44149 0.0
H706 H 0.88839 0.689 0.48075 0.0
H707 H 0.91437 0.69694 0.46071 0.0
H708 H 0.87742 0.64741 0.42118 0.0
H709 H 0.85145 0.63923 0.44163 0.0
H710 H 0.88447 0.67746 0.51895 0.0
H711 H 0.90896 0.67141 0.52964 0.0
H712 H 0.88206 0.61786 0.49304 0.0
H713 H 0.85751 0.62396 0.48268 0.0
H714 H 0.85362 0.68 0.53689 0.0
H715 H 0.86416 0.67829 0.56892 0.0
H716 H 0.84648 0.6184 0.55453 0.0
H717 H 0.83566 0.62024 0.5223 0.0
H718 H 0.82764 0.6841 0.52444 0.0
H719 H 0.80709 0.68119 0.54948 0.0
H720 H 0.77154 0.61992 0.53199 0.0
H721 H 0.7933 0.6229 0.5082 0.0
O722 O 0.8412 0.69306 0.38501 0.0
O723 O 0.81606 0.66335 0.38035 0.0
O724 O 0.9249 0.65172 0.53039 0.0
O725 O 0.91166 0.6241 0.51174 0.0
C726 C 0.8242 0.6593 0.48212 0.0
C727 C 0.83745 0.66089 0.46918 0.0
C728 C 0.85257 0.6589 0.47531 0.0
C729 C 0.85388 0.65432 0.49411 0.0
C730 C 0.84063 0.65267 0.50706 0.0
C731 C 0.82577 0.65517 0.50105 0.0
C732 C 0.80969 0.66363 0.47604 0.0
C733 C 0.81516 0.68258 0.47239 0.0
C734 C 0.80231 0.68644 0.46381 0.0
C735 C 0.78369 0.67143 0.45893 0.0
C736 C 0.778 0.65261 0.4635 0.0
C737 C 0.79095 0.64872 0.47191 0.0
C738 C 0.83544 0.66474 0.44915 0.0
C739 C 0.84804 0.68271 0.44264 0.0
C740 C 0.84595 0.68627 0.42383 0.0
C741 C 0.83116 0.67195 0.41123 0.0
C742 C 0.81853 0.65398 0.41788 0.0
C743 C 0.82067 0.65043 0.43667 0.0
C744 C 0.86807 0.66344 0.46275 0.0
C745 C 0.88592 0.67975 0.46785 0.0
C746 C 0.90072 0.68428 0.4564 0.0
C747 C 0.8979 0.67276 0.43943 0.0
C748 C 0.87992 0.6566 0.43413 0.0
C749 C 0.86513 0.65189 0.44579 0.0
C750 C 0.86914 0.65105 0.50018 0.0
C751 C 0.88385 0.66439 0.51333 0.0
C752 C 0.89785 0.66093 0.51937 0.0
C753 C 0.89744 0.64411 0.51223 0.0
C754 C 0.88278 0.63093 0.49885 0.0
C755 C 0.86876 0.63438 0.49288 0.0
C756 C 0.84356 0.65017 0.52735 0.0
C757 C 0.85129 0.66628 0.54085 0.0
C758 C 0.85741 0.66528 0.55916 0.0
C759 C 0.85615 0.64819 0.5643 0.0
C760 C 0.84772 0.63179 0.55096 0.0
C761 C 0.8414 0.63276 0.53264 0.0
C762 C 0.81206 0.65368 0.51473 0.0
C763 C 0.81541 0.67007 0.52612 0.0
C764 C 0.80345 0.66836 0.54031 0.0
C765 C 0.78754 0.65025 0.54303 0.0
C766 C 0.78385 0.63401 0.53084 0.0
C767 C 0.79613 0.63568 0.51702 0.0
C768 C 0.82895 0.67578 0.39127 0.0
C769 C 0.91219 0.64029 0.51871 0.0
H770 H 0.33212 0.14909 0.38304 0.0
H771 H 0.38027 0.30821 0.53904 0.0
H772 H 0.33017 0.14131 0.48464 0.0
H773 H 0.32664 0.10987 0.47643 0.0
H774 H 0.3847 0.13339 0.49555 0.0
H775 H 0.38821 0.16508 0.50346 0.0
H776 H 0.3272 0.16968 0.46283 0.0
H777 H 0.32375 0.15945 0.42876 0.0
H778 H 0.38193 0.17563 0.43114 0.0
H779 H 0.38522 0.18598 0.46517 0.0
H780 H 0.32499 0.19982 0.49205 0.0
H781 H 0.31489 0.21685 0.47234 0.0
H782 H 0.36638 0.24011 0.44379 0.0
H783 H 0.37676 0.22359 0.46443 0.0
H784 H 0.33491 0.21174 0.53137 0.0
H785 H 0.33636 0.24168 0.54246 0.0
H786 H 0.39012 0.2748 0.51878 0.0
H787 H 0.38863 0.24472 0.50807 0.0
H788 H 0.33539 0.18062 0.55017 0.0
H789 H 0.33388 0.19485 0.58126 0.0
H790 H 0.39141 0.24123 0.57934 0.0
H791 H 0.3928 0.22689 0.54824 0.0
H792 H 0.33251 0.14541 0.52678 0.0
H793 H 0.33049 0.12254 0.54883 0.0
H794 H 0.38863 0.16186 0.56866 0.0
H795 H 0.39067 0.1845 0.5458 0.0
O796 O 0.33381 0.15327 0.3965 0.0
O797 O 0.36377 0.16176 0.39851 0.0
O798 O 0.35174 0.27845 0.54689 0.0
O799 O 0.37933 0.29614 0.53481 0.0
C800 C 0.36096 0.17405 0.50068 0.0
C801 C 0.35866 0.18493 0.48708 0.0
C802 C 0.35801 0.20144 0.49327 0.0
C803 C 0.36122 0.20795 0.51286 0.0
C804 C 0.36339 0.197 0.52646 0.0
C805 C 0.36272 0.17976 0.52041 0.0
C806 C 0.35948 0.15549 0.49445 0.0
C807 C 0.3422 0.13975 0.4868 0.0
C808 C 0.34015 0.12175 0.48239 0.0
C809 C 0.35535 0.11913 0.48558 0.0
C810 C 0.37278 0.13502 0.49293 0.0
C811 C 0.3748 0.15307 0.49742 0.0
C812 C 0.35651 0.17873 0.4664 0.0
C813 C 0.33921 0.17113 0.45593 0.0
C814 C 0.33727 0.16524 0.43649 0.0
C815 C 0.35258 0.16676 0.42721 0.0
C816 C 0.36987 0.17429 0.43783 0.0
C817 C 0.37179 0.1802 0.45725 0.0
C818 C 0.35168 0.21065 0.4798 0.0
C819 C 0.33407 0.20856 0.48149 0.0
C820 C 0.32823 0.21815 0.47004 0.0
C821 C 0.3398 0.22988 0.45643 0.0
C822 C 0.35723 0.23142 0.45431 0.0
C823 C 0.36315 0.2219 0.46596 0.0
C824 C 0.36179 0.22609 0.51915 0.0
C825 C 0.34705 0.22548 0.52874 0.0
C826 C 0.34788 0.2426 0.53497 0.0
C827 C 0.3634 0.26065 0.53156 0.0
C828 C 0.37801 0.26116 0.5217 0.0
C829 C 0.37719 0.24402 0.51554 0.0
C830 C 0.36421 0.20274 0.54701 0.0
C831 C 0.34786 0.19346 0.55679 0.0
C832 C 0.34695 0.2017 0.57441 0.0
C833 C 0.36246 0.21924 0.58255 0.0
C834 C 0.3793 0.22766 0.57342 0.0
C835 C 0.38014 0.21948 0.55571 0.0
C836 C 0.36175 0.16654 0.53462 0.0
C837 C 0.34483 0.14908 0.53584 0.0
C838 C 0.34368 0.1361 0.54859 0.0
C839 C 0.35937 0.14041 0.56063 0.0
C840 C 0.37634 0.15804 0.55947 0.0
C841 C 0.3775 0.17104 0.54657 0.0
C842 C 0.35047 0.16047 0.40656 0.0
C843 C 0.3644 0.2789 0.53824 0.0
H844 H 0.80759 0.1818 0.3693 0.0
H845 H 0.96405 0.29118 0.52425 0.0
H846 H 0.79395 0.17852 0.47145 0.0
H847 H 0.7657 0.14795 0.45849 0.0
H848 H 0.7918 0.11654 0.47535 0.0
H849 H 0.81972 0.1469 0.48844 0.0
H850 H 0.83041 0.21379 0.44898 0.0
H851 H 0.82048 0.20515 0.41492 0.0
H852 H 0.82381 0.15389 0.41757 0.0
H853 H 0.83396 0.16283 0.45153 0.0
H854 H 0.87257 0.24781 0.47127 0.0
H855 H 0.89904 0.26558 0.45182 0.0
H856 H 0.89776 0.21262 0.43544 0.0
H857 H 0.87212 0.19532 0.45581 0.0
H858 H 0.87091 0.24958 0.51732 0.0
H859 H 0.90197 0.27743 0.52788 0.0
H860 H 0.92748 0.2464 0.50524 0.0
H861 H 0.89634 0.21857 0.495 0.0
H862 H 0.83846 0.21816 0.5416 0.0
H863 H 0.85162 0.22784 0.5748 0.0
H864 H 0.89133 0.21036 0.56228 0.0
H865 H 0.87759 0.20008 0.52944 0.0
H866 H 0.79825 0.1826 0.51486 0.0
H867 H 0.77619 0.16018 0.53614 0.0
H868 H 0.81648 0.1444 0.55248 0.0
H869 H 0.83786 0.16591 0.53036 0.0
O870 O 0.81157 0.18497 0.38276 0.0
O871 O 0.81342 0.15877 0.38492 0.0
O872 O 0.93779 0.29562 0.53184 0.0
O873 O 0.95161 0.28035 0.52029 0.0
C874 C 0.82656 0.18312 0.48715 0.0
C875 C 0.83871 0.19419 0.4734 0.0
C876 C 0.85674 0.21016 0.47931 0.0
C877 C 0.86246 0.21527 0.49897 0.0
C878 C 0.85034 0.20412 0.51269 0.0
C879 C 0.8323 0.18814 0.50682 0.0
C880 C 0.80881 0.16484 0.48084 0.0
C881 C 0.79338 0.16498 0.47258 0.0
C882 C 0.77732 0.14761 0.46528 0.0
C883 C 0.77673 0.13004 0.46593 0.0
C884 C 0.79202 0.12996 0.47467 0.0
C885 C 0.80788 0.14721 0.48216 0.0
C886 C 0.83272 0.18885 0.45274 0.0
C887 C 0.82899 0.20071 0.44215 0.0
C888 C 0.8233 0.19573 0.42272 0.0
C889 C 0.82129 0.17879 0.41353 0.0
C890 C 0.82516 0.16699 0.42421 0.0
C891 C 0.83088 0.17202 0.44363 0.0
C892 C 0.87045 0.22029 0.46499 0.0
C893 C 0.87789 0.24005 0.46327 0.0
C894 C 0.89296 0.25014 0.45207 0.0
C895 C 0.90069 0.24058 0.44221 0.0
C896 C 0.89245 0.22054 0.44316 0.0
C897 C 0.87758 0.21054 0.45455 0.0
C898 C 0.8814 0.23213 0.5053 0.0
C899 C 0.88323 0.24883 0.51469 0.0
C900 C 0.90098 0.26471 0.52068 0.0
C901 C 0.91722 0.26416 0.51736 0.0
C902 C 0.91528 0.24733 0.50799 0.0
C903 C 0.89752 0.23144 0.50207 0.0
C904 C 0.85719 0.20859 0.53313 0.0
C905 C 0.84982 0.2162 0.54616 0.0
C906 C 0.85746 0.22185 0.56503 0.0
C907 C 0.87264 0.22002 0.57114 0.0
C908 C 0.87955 0.21179 0.55813 0.0
C909 C 0.87184 0.20607 0.53932 0.0
C910 C 0.81968 0.17593 0.52109 0.0
C911 C 0.80229 0.17432 0.52311 0.0
C912 C 0.78976 0.1616 0.53539 0.0
C913 C 0.79447 0.15036 0.54597 0.0
C914 C 0.8122 0.15252 0.54429 0.0
C915 C 0.82458 0.16503 0.53186 0.0
C916 C 0.8152 0.17351 0.39289 0.0
C917 C 0.93611 0.28102 0.52363 0.0
H918 H 0.99891 0.51728 0.34574 0.0
H919 H 0.03081 0.40177 0.19036 0.0
H920 H 0.97406 0.51073 0.24044 0.0
H921 H 0.97241 0.53935 0.24964 0.0
H922 H 0.03033 0.57589 0.23694 0.0
H923 H 0.03128 0.54717 0.22669 0.0
H924 H 0.98152 0.48153 0.26722 0.0
H925 H 0.98376 0.49182 0.30113 0.0
H926 H 0.03796 0.54263 0.29494 0.0
H927 H 0.03561 0.53207 0.26111 0.0
H928 H 0.98531 0.44753 0.24594 0.0
H929 H 0.99302 0.42948 0.26709 0.0
H930 H 0.04882 0.47959 0.27939 0.0
H931 H 0.04108 0.49734 0.25765 0.0
H932 H 0.97904 0.4421 0.20085 0.0
H933 H 0.9814 0.41413 0.19052 0.0
H934 H 0.04064 0.44701 0.20826 0.0
H935 H 0.03813 0.47496 0.21826 0.0
H936 H 0.97294 0.46927 0.17721 0.0
H937 H 0.96988 0.45263 0.14583 0.0
H938 H 0.02933 0.47403 0.15065 0.0
H939 H 0.03226 0.49099 0.18162 0.0
H940 H 0.97185 0.507 0.2001 0.0
H941 H 0.96965 0.52901 0.17948 0.0
H942 H 0.02465 0.54651 0.16087 0.0
H943 H 0.02714 0.5254 0.18247 0.0
O944 O 0.99833 0.51346 0.33232 0.0
O945 O 0.02612 0.53938 0.32837 0.0
O946 O 0.999 0.39639 0.18531 0.0
O947 O 0.02947 0.4126 0.19434 0.0
C948 C 0.00373 0.50969 0.22715 0.0
C949 C 0.00691 0.49978 0.2412 0.0
C950 C 0.00861 0.48379 0.23568 0.0
C951 C 0.00694 0.47759 0.21614 0.0
C952 C 0.00395 0.48765 0.20208 0.0
C953 C 0.00222 0.50364 0.20756 0.0
C954 C 0.00278 0.52698 0.23296 0.0
C955 C 0.98629 0.52497 0.23957 0.0
C956 C 0.98545 0.54136 0.2449 0.0
C957 C 0.00123 0.56004 0.24407 0.0
C958 C 0.01774 0.56184 0.23739 0.0
C959 C 0.01843 0.54546 0.23173 0.0
C960 C 0.00835 0.50611 0.26174 0.0
C961 C 0.99387 0.49487 0.27325 0.0
C962 C 0.99517 0.50079 0.29259 0.0
C963 C 0.01102 0.51807 0.30074 0.0
C964 C 0.02555 0.52927 0.28912 0.0
C965 C 0.02422 0.52331 0.26979 0.0
C966 C 0.01263 0.47371 0.25026 0.0
C967 C 0.99912 0.45465 0.25338 0.0
C968 C 0.00354 0.44442 0.26556 0.0
C969 C 0.02157 0.4531 0.27494 0.0
C970 C 0.0349 0.47243 0.27222 0.0
C971 C 0.03046 0.48265 0.25998 0.0
C972 C 0.0084 0.46052 0.2103 0.0
C973 C 0.99251 0.44322 0.20246 0.0
C974 C 0.9939 0.42728 0.1966 0.0
C975 C 0.01122 0.42834 0.19857 0.0
C976 C 0.0271 0.4457 0.20654 0.0
C977 C 0.0257 0.46166 0.21233 0.0
C978 C 0.00279 0.48121 0.18167 0.0
C979 C 0.98535 0.47082 0.17116 0.0
C980 C 0.98362 0.46117 0.15338 0.0
C981 C 0.99932 0.46179 0.14587 0.0
C982 C 0.01699 0.47336 0.15591 0.0
C983 C 0.0187 0.48302 0.17364 0.0
C984 C 0.99972 0.51473 0.19293 0.0
C985 C 0.98337 0.51556 0.19149 0.0
C986 C 0.98209 0.52805 0.17956 0.0
C987 C 0.99707 0.53977 0.16863 0.0
C988 C 0.01303 0.53809 0.16941 0.0
C989 C 0.01439 0.52582 0.18154 0.0
C990 C 0.01235 0.52434 0.32129 0.0
C991 C 0.01279 0.41145 0.19232 0.0
H992 H 0.50672 0.50909 0.35694 0.0
H993 H 0.38879 0.35655 0.19567 0.0
H994 H 0.51516 0.51771 0.25554 0.0
H995 H 0.54392 0.54831 0.26585 0.0
H996 H 0.57663 0.52246 0.25208 0.0
H997 H 0.54754 0.49159 0.24195 0.0
H998 H 0.48229 0.48976 0.27566 0.0
H999 H 0.48877 0.49963 0.30993 0.0
H1000 H 0.52909 0.48144 0.31205 0.0
H1001 H 0.52232 0.47144 0.27779 0.0
H1002 H 0.44854 0.45925 0.24653 0.0
H1003 H 0.42249 0.443 0.26673 0.0
H1004 H 0.45173 0.41961 0.29571 0.0
H1005 H 0.47745 0.43535 0.27478 0.0
H1006 H 0.44923 0.45199 0.20449 0.0
H1007 H 0.41914 0.42405 0.19158 0.0
H1008 H 0.43259 0.3862 0.21939 0.0
H1009 H 0.46276 0.41425 0.23197 0.0
H1010 H 0.48641 0.48322 0.18719 0.0
H1011 H 0.47387 0.47211 0.15392 0.0
H1012 H 0.47079 0.41805 0.16073 0.0
H1013 H 0.48401 0.4295 0.19381 0.0
H1014 H 0.51822 0.5154 0.21402 0.0
H1015 H 0.54236 0.53675 0.19381 0.0
H1016 H 0.55241 0.49105 0.17674 0.0
H1017 H 0.52849 0.46977 0.19767 0.0
O1018 O 0.50433 0.50503 0.34341 0.0
O1019 O 0.52496 0.49552 0.34372 0.0
O1020 O 0.3944 0.38793 0.18649 0.0
O1021 O 0.40058 0.36786 0.20062 0.0
C1022 C 0.51166 0.48435 0.24081 0.0
C1023 C 0.49784 0.47378 0.25348 0.0
C1024 C 0.48021 0.4579 0.24625 0.0
C1025 C 0.47672 0.45205 0.22648 0.0
C1026 C 0.49061 0.46254 0.21379 0.0
C1027 C 0.50798 0.47888 0.22094 0.0
C1028 C 0.52927 0.50242 0.24815 0.0
C1029 C 0.52851 0.51857 0.25496 0.0
C1030 C 0.54496 0.53609 0.26058 0.0
C1031 C 0.56253 0.53782 0.25954 0.0
C1032 C 0.56328 0.52151 0.25304 0.0
C1033 C 0.54674 0.50393 0.24729 0.0
C1034 C 0.50173 0.47974 0.27429 0.0
C1035 C 0.49242 0.48779 0.28359 0.0
C1036 C 0.49619 0.49348 0.30315 0.0
C1037 C 0.50943 0.4913 0.31374 0.0
C1038 C 0.5188 0.4833 0.30432 0.0
C1039 C 0.51498 0.47759 0.28477 0.0
C1040 C 0.46479 0.44834 0.2591 0.0
C1041 C 0.44927 0.45054 0.2572 0.0
C1042 C 0.43449 0.44141 0.2689 0.0
C1043 C 0.43502 0.43002 0.28289 0.0
C1044 C 0.45077 0.42808 0.28493 0.0
C1045 C 0.46552 0.43714 0.27309 0.0
C1046 C 0.45822 0.43512 0.21904 0.0
C1047 C 0.44568 0.43764 0.2077 0.0
C1048 C 0.42849 0.42166 0.20039 0.0
C1049 C 0.42347 0.40287 0.20442 0.0
C1050 C 0.43602 0.40045 0.21598 0.0
C1051 C 0.45324 0.41644 0.22322 0.0
C1052 C 0.48614 0.45717 0.19292 0.0
C1053 C 0.48365 0.46925 0.18132 0.0
C1054 C 0.47641 0.46287 0.16238 0.0
C1055 C 0.47126 0.44419 0.15491 0.0
C1056 C 0.47455 0.43246 0.16626 0.0
C1057 C 0.48214 0.43899 0.18507 0.0
C1058 C 0.52185 0.49116 0.20759 0.0
C1059 C 0.52575 0.51003 0.20609 0.0
C1060 C 0.53952 0.52219 0.19457 0.0
C1061 C 0.5494 0.51559 0.18398 0.0
C1062 C 0.54503 0.49645 0.18488 0.0
C1063 C 0.53141 0.48434 0.19675 0.0
C1064 C 0.51342 0.49738 0.33452 0.0
C1065 C 0.40527 0.38583 0.19661 0.0
H1066 H 0.51432 0.9891 0.36321 0.0
H1067 H 0.37539 0.97376 0.20843 0.0
H1068 H 0.53292 0.01679 0.26903 0.0
H1069 H 0.55691 0.01311 0.28563 0.0
H1070 H 0.53712 0.95899 0.25175 0.0
H1071 H 0.51282 0.96256 0.23542 0.0
H1072 H 0.49906 0.01133 0.29045 0.0
H1073 H 0.50607 0.0071 0.32318 0.0
H1074 H 0.49739 0.95118 0.30403 0.0
H1075 H 0.49014 0.95547 0.27143 0.0
H1076 H 0.46585 0.01277 0.26832 0.0
H1077 H 0.44253 0.00774 0.291 0.0
H1078 H 0.42863 0.94869 0.29368 0.0
H1079 H 0.45158 0.95373 0.27039 0.0
H1080 H 0.4685 0.01989 0.22423 0.0
H1081 H 0.44035 0.02043 0.2148 0.0
H1082 H 0.40608 0.95959 0.22295 0.0
H1083 H 0.43436 0.9592 0.23213 0.0
H1084 H 0.50045 0.023 0.1996 0.0
H1085 H 0.49031 0.02559 0.16736 0.0
H1086 H 0.44481 0.96593 0.16492 0.0
H1087 H 0.4555 0.96335 0.19652 0.0
H1088 H 0.53628 0.02212 0.22557 0.0
H1089 H 0.55811 0.02815 0.20067 0.0
H1090 H 0.51622 0.97513 0.16836 0.0
H1091 H 0.49473 0.96872 0.19362 0.0
O1092 O 0.51127 0.99037 0.35021 0.0
O1093 O 0.50685 0.96181 0.33959 0.0
O1094 O 0.40501 0.00519 0.20805 0.0
O1095 O 0.38675 0.97394 0.21209 0.0
C1096 C 0.50376 0.98969 0.24499 0.0
C1097 C 0.49057 0.98667 0.25862 0.0
C1098 C 0.4741 0.98658 0.25333 0.0
C1099 C 0.47063 0.98924 0.23436 0.0
C1100 C 0.48345 0.99165 0.22054 0.0
C1101 C 0.50016 0.99203 0.22586 0.0
C1102 C 0.52104 0.98987 0.25113 0.0
C1103 C 0.53406 0.00438 0.26485 0.0
C1104 C 0.54763 0.00219 0.27441 0.0
C1105 C 0.54863 0.98562 0.27017 0.0
C1106 C 0.53662 0.97189 0.25528 0.0
C1107 C 0.52283 0.97397 0.24588 0.0
C1108 C 0.49411 0.98371 0.27859 0.0
C1109 C 0.49853 0.99811 0.2934 0.0
C1110 C 0.5026 0.99569 0.31206 0.0
C1111 C 0.50235 0.97882 0.31622 0.0
C1112 C 0.49774 0.96435 0.30132 0.0
C1113 C 0.4936 0.96677 0.28269 0.0
C1114 C 0.46039 0.98362 0.2677 0.0
C1115 C 0.45775 0.99876 0.27381 0.0
C1116 C 0.44452 0.99588 0.28689 0.0
C1117 C 0.43373 0.97781 0.29424 0.0
C1118 C 0.43654 0.96271 0.28817 0.0
C1119 C 0.44975 0.96559 0.275 0.0
C1120 C 0.45345 0.98952 0.22888 0.0
C1121 C 0.45489 0.00669 0.22393 0.0
C1122 C 0.4388 0.00697 0.21858 0.0
C1123 C 0.42095 0.99005 0.21814 0.0
C1124 C 0.41959 0.97288 0.22316 0.0
C1125 C 0.4357 0.97261 0.22846 0.0
C1126 C 0.4787 0.99298 0.20038 0.0
C1127 C 0.48852 0.01044 0.19188 0.0
C1128 C 0.48258 0.01193 0.17356 0.0
C1129 C 0.46671 0.99598 0.1635 0.0
C1130 C 0.45726 0.97843 0.17201 0.0
C1131 C 0.46326 0.97693 0.19017 0.0
C1132 C 0.51384 0.99503 0.2114 0.0
C1133 C 0.53192 0.01163 0.21329 0.0
C1134 C 0.54434 0.01509 0.19906 0.0
C1135 C 0.53875 0.00218 0.18256 0.0
C1136 C 0.52077 0.98541 0.18085 0.0
C1137 C 0.50852 0.98175 0.19525 0.0
C1138 C 0.50693 0.97641 0.336 0.0
C1139 C 0.40382 0.99027 0.21245 0.0
H1140 H 0.50129 0.04699 0.71473 0.0
H1141 H 0.60599 0.98865 0.86581 0.0
H1142 H 0.49182 0.0383 0.82866 0.0
H1143 H 0.46803 0.04211 0.81161 0.0
H1144 H 0.4474 0.98712 0.77912 0.0
H1145 H 0.47082 0.98314 0.79657 0.0
H1146 H 0.51641 0.04569 0.79614 0.0
H1147 H 0.51133 0.05175 0.76353 0.0
H1148 H 0.50095 0.99546 0.74303 0.0
H1149 H 0.5058 0.98948 0.77575 0.0
H1150 H 0.55439 0.04623 0.80096 0.0
H1151 H 0.57816 0.05213 0.77843 0.0
H1152 H 0.56097 0.9917 0.77591 0.0
H1153 H 0.53668 0.98586 0.79755 0.0
H1154 H 0.56395 0.03786 0.84871 0.0
H1155 H 0.59145 0.03742 0.86105 0.0
H1156 H 0.56261 0.97586 0.84486 0.0
H1157 H 0.53527 0.97656 0.83256 0.0
H1158 H 0.53008 0.02859 0.87829 0.0
H1159 H 0.54017 0.02267 0.9089 0.0
H1160 H 0.51992 0.96371 0.88715 0.0
H1161 H 0.5094 0.96959 0.85677 0.0
H1162 H 0.49981 0.03296 0.86257 0.0
H1163 H 0.47689 0.02783 0.88593 0.0
H1164 H 0.44834 0.96615 0.87085 0.0
H1165 H 0.47143 0.97149 0.84757 0.0
O1166 O 0.50343 0.04437 0.72749 0.0
O1167 O 0.49862 0.01548 0.71762 0.0
O1168 O 0.60969 0.02097 0.86873 0.0
O1169 O 0.59539 0.98928 0.86087 0.0
C1170 C 0.49965 0.00994 0.82097 0.0
C1171 C 0.51354 0.01308 0.80821 0.0
C1172 C 0.52919 0.01199 0.81427 0.0
C1173 C 0.53085 0.00752 0.833 0.0
C1174 C 0.51695 0.00426 0.84574 0.0
C1175 C 0.50149 0.00575 0.83982 0.0
C1176 C 0.48294 0.01036 0.81397 0.0
C1177 C 0.48169 0.02674 0.81842 0.0
C1178 C 0.46823 0.02898 0.80856 0.0
C1179 C 0.45608 0.01501 0.79392 0.0
C1180 C 0.45675 0.99818 0.79021 0.0
C1181 C 0.46997 0.99581 0.80026 0.0
C1182 C 0.51145 0.01715 0.78829 0.0
C1183 C 0.51305 0.03471 0.78457 0.0
C1184 C 0.51015 0.03813 0.76594 0.0
C1185 C 0.50569 0.02407 0.75067 0.0
C1186 C 0.50435 0.00658 0.75445 0.0
C1187 C 0.50719 0.00316 0.77311 0.0
C1188 C 0.54393 0.01566 0.801 0.0
C1189 C 0.55578 0.0343 0.79546 0.0
C1190 C 0.56943 0.03765 0.78269 0.0
C1191 C 0.57153 0.02241 0.77532 0.0
C1192 C 0.5596 0.00375 0.78102 0.0
C1193 C 0.54586 0.0004 0.79361 0.0
C1194 C 0.54771 0.00726 0.83972 0.0
C1195 C 0.56368 0.02433 0.84776 0.0
C1196 C 0.57933 0.02403 0.85483 0.0
C1197 C 0.57922 0.00659 0.85396 0.0
C1198 C 0.56317 0.98953 0.84576 0.0
C1199 C 0.54756 0.98987 0.83868 0.0
C1200 C 0.51907 0.99953 0.86534 0.0
C1201 C 0.52722 0.01422 0.88039 0.0
C1202 C 0.533 0.01082 0.89782 0.0
C1203 C 0.53094 0.99277 0.90029 0.0
C1204 C 0.52175 0.97777 0.88555 0.0
C1205 C 0.51569 0.98108 0.86827 0.0
C1206 C 0.48713 0.0026 0.85332 0.0
C1207 C 0.48847 0.01838 0.8642 0.0
C1208 C 0.47535 0.01541 0.87747 0.0
C1209 C 0.46077 0.99658 0.88021 0.0
C1210 C 0.45949 0.98081 0.86919 0.0
C1211 C 0.47256 0.98381 0.85583 0.0
C1212 C 0.50237 0.02764 0.73091 0.0
C1213 C 0.59572 0.00614 0.86164 0.0
H1214 H 0.96457 0.46327 0.72358 0.0
H1215 H 0.01897 0.62525 0.88156 0.0
H1216 H 0.97213 0.45894 0.82956 0.0
H1217 H 0.96972 0.42884 0.8171 0.0
H1218 H 0.03018 0.45766 0.82056 0.0
H1219 H 0.03245 0.48786 0.83291 0.0
H1220 H 0.96651 0.48724 0.80413 0.0
H1221 H 0.96016 0.47549 0.77027 0.0
H1222 H 0.0184 0.49304 0.76695 0.0
H1223 H 0.02458 0.50491 0.80078 0.0
H1224 H 0.9672 0.52161 0.83019 0.0
H1225 H 0.95952 0.54029 0.80999 0.0
H1226 H 0.01093 0.55922 0.78217 0.0
H1227 H 0.01894 0.54128 0.80329 0.0
H1228 H 0.97547 0.52894 0.8702 0.0
H1229 H 0.97607 0.55813 0.8825 0.0
H1230 H 0.03 0.59333 0.85981 0.0
H1231 H 0.02935 0.56398 0.84788 0.0
H1232 H 0.97966 0.50294 0.89038 0.0
H1233 H 0.98132 0.51932 0.92142 0.0
H1234 H 0.03961 0.5616 0.91562 0.0
H1235 H 0.03782 0.5451 0.88456 0.0
H1236 H 0.97974 0.47269 0.87824 0.0
H1237 H 0.9825 0.45115 0.89894 0.0
H1238 H 0.04128 0.478 0.88871 0.0
H1239 H 0.03851 0.50036 0.869 0.0
O1240 O 0.96741 0.46808 0.73692 0.0
O1241 O 0.99748 0.47732 0.736 0.0
O1242 O 0.99075 0.59472 0.88845 0.0
O1243 O 0.01835 0.61348 0.8768 0.0
C1244 C 0.0036 0.49376 0.83869 0.0
C1245 C 0.9998 0.50392 0.82545 0.0
C1246 C 0.99897 0.52026 0.83192 0.0
C1247 C 0.00244 0.52667 0.85155 0.0
C1248 C 0.0061 0.51638 0.86477 0.0
C1249 C 0.00661 0.49988 0.85837 0.0
C1250 C 0.00244 0.47548 0.83209 0.0
C1251 C 0.98483 0.4587 0.82771 0.0
C1252 C 0.9835 0.44159 0.82059 0.0
C1253 C 0.99978 0.44099 0.81783 0.0
C1254 C 0.01744 0.45773 0.82272 0.0
C1255 C 0.01875 0.47492 0.82971 0.0
C1256 C 0.99601 0.49697 0.80486 0.0
C1257 C 0.97789 0.48862 0.79602 0.0
C1258 C 0.97429 0.48187 0.7767 0.0
C1259 C 0.98877 0.48332 0.76589 0.0
C1260 C 0.00693 0.4917 0.77485 0.0
C1261 C 0.0105 0.49847 0.79416 0.0
C1262 C 0.99373 0.53031 0.81837 0.0
C1263 C 0.9768 0.52982 0.81973 0.0
C1264 C 0.97233 0.54033 0.808 0.0
C1265 C 0.98463 0.55136 0.79446 0.0
C1266 C 0.00128 0.55118 0.79266 0.0
C1267 C 0.00583 0.54082 0.80458 0.0
C1268 C 0.00245 0.54438 0.85832 0.0
C1269 C 0.98744 0.54297 0.86799 0.0
C1270 C 0.98779 0.55967 0.87494 0.0
C1271 C 0.00312 0.57808 0.87218 0.0
C1272 C 0.01801 0.57939 0.86222 0.0
C1273 C 0.01767 0.56267 0.85535 0.0
C1274 C 0.00865 0.5228 0.88534 0.0
C1275 C 0.99298 0.51525 0.89619 0.0
C1276 C 0.99389 0.52473 0.91376 0.0
C1277 C 0.01053 0.54181 0.92076 0.0
C1278 C 0.02665 0.5484 0.91059 0.0
C1279 C 0.02568 0.53898 0.89292 0.0
C1280 C 0.00893 0.48812 0.87224 0.0
C1281 C 0.99329 0.47417 0.88083 0.0
C1282 C 0.99487 0.46166 0.89242 0.0
C1283 C 0.01208 0.46256 0.89532 0.0
C1284 C 0.02786 0.47695 0.88699 0.0
C1285 C 0.02631 0.48969 0.87564 0.0
C1286 C 0.98489 0.47609 0.74538 0.0
C1287 C 0.00363 0.59587 0.87965 0.0
H1288 H 0.47357 0.51173 0.70741 0.0
H1289 H 0.6307 0.6233 0.86155 0.0
H1290 H 0.45973 0.5131 0.81118 0.0
H1291 H 0.43025 0.48285 0.80107 0.0
H1292 H 0.4559 0.45053 0.81684 0.0
H1293 H 0.48474 0.48068 0.82768 0.0
H1294 H 0.49657 0.54632 0.7863 0.0
H1295 H 0.48661 0.53658 0.75234 0.0
H1296 H 0.4891 0.4851 0.75753 0.0
H1297 H 0.49925 0.49513 0.7914 0.0
H1298 H 0.53892 0.58056 0.80811 0.0
H1299 H 0.56529 0.59728 0.78809 0.0
H1300 H 0.56373 0.54381 0.77447 0.0
H1301 H 0.53776 0.52733 0.79487 0.0
H1302 H 0.53792 0.58446 0.85377 0.0
H1303 H 0.56933 0.61194 0.86386 0.0
H1304 H 0.5933 0.57853 0.84369 0.0
H1305 H 0.5618 0.55109 0.83392 0.0
H1306 H 0.50596 0.55604 0.87862 0.0
H1307 H 0.52012 0.56781 0.91142 0.0
H1308 H 0.55608 0.54496 0.90169 0.0
H1309 H 0.54201 0.53348 0.86901 0.0
H1310 H 0.46459 0.51873 0.85378 0.0
H1311 H 0.44202 0.49634 0.87476 0.0
H1312 H 0.48121 0.47913 0.89111 0.0
H1313 H 0.50314 0.50072 0.86939 0.0
O1314 O 0.47754 0.51531 0.72085 0.0
O1315 O 0.47896 0.48903 0.72431 0.0
O1316 O 0.60509 0.62913 0.86806 0.0
O1317 O 0.61812 0.61264 0.85774 0.0
C1318 C 0.49233 0.51713 0.82592 0.0
C1319 C 0.50454 0.52741 0.81189 0.0
C1320 C 0.52271 0.54332 0.81745 0.0
C1321 C 0.52847 0.54918 0.83704 0.0
C1322 C 0.51622 0.53889 0.85105 0.0
C1323 C 0.4981 0.52294 0.84551 0.0
C1324 C 0.47428 0.499 0.82015 0.0
C1325 C 0.4588 0.49941 0.81258 0.0
C1326 C 0.44203 0.48212 0.80674 0.0
C1327 C 0.4406 0.46415 0.80815 0.0
C1328 C 0.45623 0.46396 0.81592 0.0
C1329 C 0.47283 0.4812 0.82197 0.0
C1330 C 0.49845 0.52134 0.79132 0.0
C1331 C 0.49494 0.53295 0.78006 0.0
C1332 C 0.48925 0.52734 0.76068 0.0
C1333 C 0.487 0.51002 0.75223 0.0
C1334 C 0.49063 0.49848 0.76359 0.0
C1335 C 0.49634 0.50413 0.78296 0.0
C1336 C 0.53643 0.55274 0.80294 0.0
C1337 C 0.5441 0.57242 0.80057 0.0
C1338 C 0.55917 0.58194 0.78925 0.0
C1339 C 0.56657 0.57182 0.77987 0.0
C1340 C 0.5582 0.55189 0.78144 0.0
C1341 C 0.54333 0.54246 0.793 0.0
C1342 C 0.54761 0.56585 0.84302 0.0
C1343 C 0.54998 0.58311 0.85158 0.0
C1344 C 0.56793 0.59878 0.8573 0.0
C1345 C 0.58384 0.59744 0.85454 0.0
C1346 C 0.58137 0.58007 0.84599 0.0
C1347 C 0.56341 0.56439 0.84034 0.0
C1348 C 0.5231 0.54409 0.87147 0.0
C1349 C 0.51671 0.55338 0.88372 0.0
C1350 C 0.52478 0.56004 0.90241 0.0
C1351 C 0.53935 0.55749 0.90904 0.0
C1352 C 0.54513 0.54746 0.89689 0.0
C1353 C 0.53706 0.54081 0.87828 0.0
C1354 C 0.4855 0.51136 0.86008 0.0
C1355 C 0.46831 0.51022 0.86205 0.0
C1356 C 0.45549 0.4975 0.87412 0.0
C1357 C 0.45971 0.48578 0.88449 0.0
C1358 C 0.47733 0.48764 0.88305 0.0
C1359 C 0.49002 0.50018 0.87085 0.0
C1360 C 0.48093 0.5041 0.73164 0.0
C1361 C 0.60295 0.61406 0.86055 0.0
H1362 H 0.63425 0.83455 0.68155 0.0
H1363 H 0.66567 0.71629 0.52415 0.0
H1364 H 0.6184 0.83671 0.56839 0.0
H1365 H 0.62214 0.86781 0.5804 0.0
H1366 H 0.68213 0.89302 0.58755 0.0
H1367 H 0.6783 0.86222 0.5755 0.0
H1368 H 0.61908 0.8039 0.60133 0.0
H1369 H 0.61981 0.81303 0.6353 0.0
H1370 H 0.67977 0.85259 0.63625 0.0
H1371 H 0.67882 0.84323 0.60233 0.0
H1372 H 0.62653 0.76472 0.58412 0.0
H1373 H 0.63642 0.74703 0.60342 0.0
H1374 H 0.69226 0.79779 0.61203 0.0
H1375 H 0.68245 0.81489 0.59189 0.0
H1376 H 0.61709 0.75958 0.53937 0.0
H1377 H 0.61785 0.73079 0.52839 0.0
H1378 H 0.67789 0.76244 0.54166 0.0
H1379 H 0.67694 0.79119 0.55236 0.0
H1380 H 0.6143 0.78415 0.51364 0.0
H1381 H 0.61461 0.76965 0.48218 0.0
H1382 H 0.67518 0.79994 0.48902 0.0
H1383 H 0.67465 0.81475 0.52004 0.0
H1384 H 0.61409 0.81665 0.52308 0.0
H1385 H 0.61284 0.83916 0.50202 0.0
H1386 H 0.67199 0.87957 0.51581 0.0
H1387 H 0.67325 0.85688 0.53625 0.0
O1388 O 0.63429 0.83108 0.66816 0.0
O1389 O 0.66507 0.85129 0.66786 0.0
O1390 O 0.63413 0.71194 0.52149 0.0
O1391 O 0.66497 0.72747 0.52834 0.0
C1392 C 0.64618 0.82853 0.56511 0.0
C1393 C 0.64812 0.81751 0.57876 0.0
C1394 C 0.64873 0.80097 0.57275 0.0
C1395 C 0.64638 0.79486 0.5531 0.0
C1396 C 0.64426 0.80579 0.53945 0.0
C1397 C 0.64429 0.82271 0.54542 0.0
C1398 C 0.64807 0.84722 0.57147 0.0
C1399 C 0.63231 0.84903 0.57249 0.0
C1400 C 0.63446 0.86673 0.57923 0.0
C1401 C 0.65239 0.88268 0.58511 0.0
C1402 C 0.66813 0.88086 0.58344 0.0
C1403 C 0.66597 0.86332 0.57661 0.0
C1404 C 0.64888 0.82295 0.59941 0.0
C1405 C 0.63235 0.81451 0.60894 0.0
C1406 C 0.63282 0.81976 0.62832 0.0
C1407 C 0.64985 0.83358 0.63849 0.0
C1408 C 0.66641 0.84193 0.62885 0.0
C1409 C 0.66592 0.83663 0.60947 0.0
C1410 C 0.65372 0.79112 0.58675 0.0
C1411 C 0.64081 0.77205 0.59043 0.0
C1412 C 0.6465 0.76202 0.60152 0.0
C1413 C 0.66519 0.77097 0.60923 0.0
C1414 C 0.67786 0.79035 0.60609 0.0
C1415 C 0.6722 0.80027 0.59485 0.0
C1416 C 0.64694 0.7774 0.54668 0.0
C1417 C 0.63038 0.76025 0.53985 0.0
C1418 C 0.63086 0.74384 0.53362 0.0
C1419 C 0.64794 0.74431 0.53417 0.0
C1420 C 0.66451 0.76157 0.54106 0.0
C1421 C 0.66401 0.77799 0.54722 0.0
C1422 C 0.64445 0.80055 0.51899 0.0
C1423 C 0.62762 0.78813 0.50799 0.0
C1424 C 0.62784 0.77967 0.49016 0.0
C1425 C 0.64492 0.78344 0.48317 0.0
C1426 C 0.6618 0.79686 0.49382 0.0
C1427 C 0.66155 0.80535 0.51156 0.0
C1428 C 0.64374 0.83521 0.53122 0.0
C1429 C 0.62681 0.83022 0.52125 0.0
C1430 C 0.6261 0.84307 0.50934 0.0
C1431 C 0.64227 0.86116 0.50756 0.0
C1432 C 0.65927 0.86584 0.51719 0.0
C1433 C 0.66003 0.85289 0.52878 0.0
C1434 C 0.65027 0.83922 0.65904 0.0
C1435 C 0.64852 0.7269 0.5276 0.0
H1436 H 0.17718 0.84058 0.69499 0.0
H1437 H 0.05582 0.68657 0.53649 0.0
H1438 H 0.18123 0.84945 0.59346 0.0
H1439 H 0.20992 0.88021 0.60348 0.0
H1440 H 0.24297 0.85554 0.58669 0.0
H1441 H 0.21396 0.8245 0.57692 0.0
H1442 H 0.14981 0.82127 0.61445 0.0
H1443 H 0.15749 0.83108 0.64867 0.0
H1444 H 0.1983 0.81351 0.64803 0.0
H1445 H 0.19033 0.80357 0.61383 0.0
H1446 H 0.11582 0.79135 0.58547 0.0
H1447 H 0.08984 0.7748 0.60559 0.0
H1448 H 0.11894 0.75066 0.63347 0.0
H1449 H 0.14465 0.76677 0.61253 0.0
H1450 H 0.11412 0.78239 0.54401 0.0
H1451 H 0.08401 0.75384 0.53218 0.0
H1452 H 0.1003 0.71735 0.55834 0.0
H1453 H 0.13048 0.74602 0.56985 0.0
H1454 H 0.1494 0.81418 0.5257 0.0
H1455 H 0.13567 0.80276 0.49282 0.0
H1456 H 0.13565 0.75003 0.49807 0.0
H1457 H 0.15015 0.76187 0.53072 0.0
H1458 H 0.18011 0.84645 0.55151 0.0
H1459 H 0.20051 0.8682 0.52898 0.0
H1460 H 0.21513 0.82625 0.51019 0.0
H1461 H 0.1949 0.80463 0.53339 0.0
O1462 O 0.17432 0.83655 0.68147 0.0
O1463 O 0.19517 0.82736 0.68036 0.0
O1464 O 0.05997 0.7175 0.52769 0.0
O1465 O 0.06761 0.69811 0.54101 0.0
C1466 C 0.17793 0.81647 0.57779 0.0
C1467 C 0.16479 0.80562 0.59094 0.0
C1468 C 0.1471 0.78954 0.58422 0.0
C1469 C 0.14301 0.78356 0.5645 0.0
C1470 C 0.15618 0.79435 0.55133 0.0
C1471 C 0.17348 0.81106 0.55796 0.0
C1472 C 0.19553 0.83473 0.58464 0.0
C1473 C 0.19465 0.85062 0.59214 0.0
C1474 C 0.21105 0.86823 0.59761 0.0
C1475 C 0.22869 0.87033 0.59567 0.0
C1476 C 0.22957 0.8543 0.58838 0.0
C1477 C 0.21307 0.83663 0.5828 0.0
C1478 C 0.1694 0.81155 0.61172 0.0
C1479 C 0.1603 0.81942 0.62176 0.0
C1480 C 0.16476 0.82508 0.64129 0.0
C1481 C 0.17849 0.82305 0.6511 0.0
C1482 C 0.18764 0.81524 0.64092 0.0
C1483 C 0.18313 0.80956 0.6214 0.0
C1484 C 0.13202 0.78013 0.59745 0.0
C1485 C 0.11657 0.78247 0.59592 0.0
C1486 C 0.10182 0.77315 0.60758 0.0
C1487 C 0.1023 0.76142 0.6212 0.0
C1488 C 0.11803 0.7594 0.62296 0.0
C1489 C 0.13277 0.76867 0.61114 0.0
C1490 C 0.12454 0.76625 0.55763 0.0
C1491 C 0.11119 0.76821 0.54707 0.0
C1492 C 0.09399 0.75188 0.54038 0.0
C1493 C 0.08977 0.73329 0.54427 0.0
C1494 C 0.10311 0.73143 0.55506 0.0
C1495 C 0.12034 0.74778 0.56168 0.0
C1496 C 0.1509 0.78891 0.53057 0.0
C1497 C 0.14708 0.80049 0.51954 0.0
C1498 C 0.13913 0.79391 0.50085 0.0
C1499 C 0.13452 0.77549 0.49309 0.0
C1500 C 0.13899 0.76424 0.50386 0.0
C1501 C 0.14733 0.771 0.5224 0.0
C1502 C 0.18612 0.82403 0.54416 0.0
C1503 C 0.18784 0.84201 0.54266 0.0
C1504 C 0.19936 0.85432 0.52963 0.0
C1505 C 0.20932 0.84887 0.51767 0.0
C1506 C 0.20772 0.83088 0.51929 0.0
C1507 C 0.19613 0.81851 0.53242 0.0
C1508 C 0.18321 0.82909 0.67184 0.0
C1509 C 0.07154 0.71589 0.53713 0.0
H1510 H 0.19244 0.34666 0.70345 0.0
H1511 H 0.05658 0.33156 0.54517 0.0
H1512 H 0.21181 0.36677 0.6089 0.0
H1513 H 0.23431 0.36034 0.62471 0.0
H1514 H 0.21055 0.3062 0.58971 0.0
H1515 H 0.18766 0.3124 0.57434 0.0
H1516 H 0.1779 0.36614 0.6288 0.0
H1517 H 0.18469 0.36317 0.66205 0.0
H1518 H 0.17467 0.3061 0.64589 0.0
H1519 H 0.16764 0.30915 0.61274 0.0
H1520 H 0.14268 0.36579 0.60678 0.0
H1521 H 0.11685 0.35859 0.62699 0.0
H1522 H 0.10514 0.3003 0.6292 0.0
H1523 H 0.1307 0.30747 0.60871 0.0
H1524 H 0.14909 0.37506 0.56449 0.0
H1525 H 0.12175 0.37688 0.55462 0.0
H1526 H 0.08584 0.31548 0.55926 0.0
H1527 H 0.11335 0.31384 0.56892 0.0
H1528 H 0.17575 0.37626 0.53933 0.0
H1529 H 0.16453 0.37736 0.50688 0.0
H1530 H 0.12671 0.31539 0.5027 0.0
H1531 H 0.13761 0.3145 0.53502 0.0
H1532 H 0.21473 0.37191 0.56234 0.0
H1533 H 0.23508 0.37416 0.53687 0.0
H1534 H 0.19052 0.31946 0.5096 0.0
H1535 H 0.17061 0.31683 0.53545 0.0
O1536 O 0.18945 0.34742 0.69026 0.0
O1537 O 0.18426 0.3182 0.6812 0.0
O1538 O 0.08674 0.36272 0.54663 0.0
O1539 O 0.06763 0.33123 0.54897 0.0
C1540 C 0.18172 0.34166 0.58447 0.0
C1541 C 0.16897 0.34016 0.59809 0.0
C1542 C 0.15293 0.34076 0.59248 0.0
C1543 C 0.14985 0.34337 0.57336 0.0
C1544 C 0.16234 0.34456 0.55969 0.0
C1545 C 0.17825 0.34358 0.56516 0.0
C1546 C 0.198 0.34 0.59056 0.0
C1547 C 0.21171 0.35371 0.60436 0.0
C1548 C 0.22444 0.34998 0.61345 0.0
C1549 C 0.22395 0.33266 0.60858 0.0
C1550 C 0.2112 0.31965 0.5937 0.0
C1551 C 0.19822 0.32324 0.58484 0.0
C1552 C 0.17237 0.33791 0.61837 0.0
C1553 C 0.17706 0.35296 0.63251 0.0
C1554 C 0.18099 0.35124 0.65147 0.0
C1555 C 0.1803 0.33442 0.65662 0.0
C1556 C 0.17537 0.31927 0.64241 0.0
C1557 C 0.17138 0.32098 0.62347 0.0
C1558 C 0.13854 0.33715 0.60624 0.0
C1559 C 0.13459 0.35151 0.61172 0.0
C1560 C 0.11983 0.34736 0.62319 0.0
C1561 C 0.10895 0.32886 0.62959 0.0
C1562 C 0.11338 0.31472 0.62461 0.0
C1563 C 0.12797 0.3188 0.61294 0.0
C1564 C 0.13316 0.34433 0.56741 0.0
C1565 C 0.1353 0.36202 0.56329 0.0
C1566 C 0.11967 0.36302 0.5577 0.0
C1567 C 0.1016 0.34632 0.55617 0.0
C1568 C 0.09955 0.32861 0.56031 0.0
C1569 C 0.11521 0.32762 0.56585 0.0
C1570 C 0.15762 0.34526 0.53937 0.0
C1571 C 0.16528 0.36293 0.53121 0.0
C1572 C 0.1588 0.36355 0.51281 0.0
C1573 C 0.14486 0.34644 0.50228 0.0
C1574 C 0.13767 0.32875 0.51037 0.0
C1575 C 0.14386 0.3282 0.5288 0.0
C1576 C 0.19106 0.34437 0.55057 0.0
C1577 C 0.20947 0.36029 0.55101 0.0
C1578 C 0.22105 0.36156 0.53651 0.0
C1579 C 0.21423 0.34707 0.52124 0.0
C1580 C 0.19598 0.33092 0.52111 0.0
C1581 C 0.1846 0.32947 0.53579 0.0
C1582 C 0.18476 0.33277 0.67674 0.0
C1583 C 0.08493 0.34733 0.5503 0.0
H1584 H 0.96246 0.37275 0.05077 0.0
H1585 H 0.02198 0.3962 0.06148 0.0
H1586 H 0.96405 0.39594 0.07552 0.0
H1587 H 0.02342 0.41924 0.08644 0.0
H1588 H 0.02234 0.47026 0.11642 0.0
H1589 H 0.02023 0.44799 0.09008 0.0
H1590 H 0.96936 0.40206 0.11047 0.0
H1591 H 0.97154 0.42416 0.13682 0.0
C1592 C 0.97589 0.38279 0.05842 0.0
C1593 C 0.9921 0.38256 0.0541 0.0
C1594 C 0.97676 0.39604 0.07266 0.0
C1595 C 0.99386 0.40944 0.08289 0.0
C1596 C 0.01008 0.40926 0.07861 0.0
C1597 C 0.00921 0.39594 0.0644 0.0
C1598 C 0.01068 0.45542 0.11523 0.0
C1599 C 0.99709 0.449 0.1287 0.0
C1600 C 0.00951 0.44267 0.10018 0.0
C1601 C 0.99468 0.42326 0.09827 0.0
C1602 C 0.98083 0.41699 0.11143 0.0
C1603 C 0.98204 0.42969 0.12649 0.0
H1604 H 0.6188 0.58113 0.09302 0.0
H1605 H 0.60538 0.61685 0.12889 0.0
H1606 H 0.6056 0.55622 0.11559 0.0
H1607 H 0.59211 0.59217 0.15097 0.0
H1608 H 0.57862 0.55187 0.1947 0.0
H1609 H 0.59957 0.57585 0.17404 0.0
H1610 H 0.57359 0.53344 0.12527 0.0
H1611 H 0.55292 0.50928 0.14616 0.0
C1612 C 0.61328 0.58377 0.1058 0.0
C1613 C 0.613 0.60089 0.10909 0.0
C1614 C 0.60564 0.56949 0.11864 0.0
C1615 C 0.59784 0.57222 0.13509 0.0
C1616 C 0.59825 0.58967 0.13863 0.0
C1617 C 0.60571 0.60379 0.12582 0.0
C1618 C 0.57765 0.54762 0.1796 0.0
C1619 C 0.56401 0.52887 0.17193 0.0
C1620 C 0.58959 0.56133 0.16778 0.0
C1621 C 0.588 0.55665 0.14797 0.0
C1622 C 0.57524 0.53747 0.14048 0.0
C1623 C 0.56336 0.52366 0.1524 0.0
H1624 H 0.41621 0.97482 0.04762 0.0
H1625 H 0.39888 0.00987 0.07837 0.0
H1626 H 0.43857 0.98099 0.07412 0.0
H1627 H 0.42035 0.01508 0.10566 0.0
H1628 H 0.46487 0.02656 0.15122 0.0
H1629 H 0.45029 0.0277 0.12115 0.0
H1630 H 0.43621 0.9694 0.10358 0.0
H1631 H 0.45193 0.96891 0.13275 0.0
C1632 C 0.41736 0.984 0.06009 0.0
C1633 C 0.40582 0.9918 0.06107 0.0
C1634 C 0.43002 0.98739 0.07539 0.0
C1635 C 0.43101 0.99813 0.09235 0.0
C1636 C 0.42014 0.00684 0.09286 0.0
C1637 C 0.40777 0.00384 0.07727 0.0
C1638 C 0.45909 0.0142 0.14069 0.0
C1639 C 0.45945 0.99757 0.14452 0.0
C1640 C 0.45047 0.01474 0.12353 0.0
C1641 C 0.44191 0.99862 0.10984 0.0
C1642 C 0.44285 0.98227 0.11351 0.0
C1643 C 0.45163 0.98183 0.13048 0.0
H1644 H 0.37637 0.94998 0.96337 0.0
H1645 H 0.40329 0.01208 0.97393 0.0
H1646 H 0.39487 0.95412 0.93612 0.0
H1647 H 0.42217 0.01619 0.94694 0.0
H1648 H 0.44332 0.01673 0.88792 0.0
H1649 H 0.42194 0.01202 0.91274 0.0
H1650 H 0.42685 0.96476 0.93079 0.0
H1651 H 0.44796 0.96935 0.90588 0.0
C1652 C 0.38619 0.96453 0.95987 0.0
C1653 C 0.3884 0.98069 0.97097 0.0
C1654 C 0.3969 0.9669 0.94428 0.0
C1655 C 0.41018 0.98549 0.93943 0.0
C1656 C 0.41197 0.00165 0.95015 0.0
C1657 C 0.40117 0.99929 0.9657 0.0
C1658 C 0.43982 0.00535 0.89722 0.0
C1659 C 0.44731 0.99339 0.89492 0.0
C1660 C 0.42759 0.00266 0.91146 0.0
C1661 C 0.42263 0.98799 0.92378 0.0
C1662 C 0.43005 0.97596 0.92135 0.0
C1663 C 0.4422 0.9786 0.90708 0.0
H1664 H 0.99177 0.35775 0.94384 0.0
H1665 H 0.02632 0.40401 0.98731 0.0
H1666 H 0.99767 0.38128 0.92098 0.0
H1667 H 0.03124 0.42774 0.96498 0.0
H1668 H 0.04137 0.46802 0.91953 0.0
H1669 H 0.04277 0.44432 0.938 0.0
H1670 H 0.98629 0.40118 0.91585 0.0
H1671 H 0.98557 0.42422 0.8963 0.0
C1672 C 1.00087 0.37302 0.94838 0.0
C1673 C 0.00855 0.37911 0.96729 0.0
C1674 C 0.00407 0.38655 0.93538 0.0
C1675 C 0.0145 0.40652 0.94119 0.0
C1676 C 0.02322 0.41256 0.95985 0.0
C1677 C 0.02041 0.39896 0.97272 0.0
C1678 C 0.0294 0.45336 0.9183 0.0
C1679 C 0.01327 0.44816 0.90651 0.0
C1680 C 0.03012 0.43979 0.92911 0.0
C1681 C 0.01465 0.42072 0.92854 0.0
C1682 C 0.99867 0.41554 0.9165 0.0
C1683 C 0.99808 0.42897 0.90553 0.0
H1684 H 0.57837 0.6197 0.02167 0.0
H1685 H 0.61585 0.59885 0.0111 0.0
H1686 H 0.56112 0.60375 0.99108 0.0
H1687 H 0.59829 0.58257 0.98069 0.0
H1688 H 0.57699 0.57702 0.91846 0.0
H1689 H 0.5934 0.59148 0.94971 0.0
H1690 H 0.54038 0.57188 0.97426 0.0
H1691 H 0.52392 0.55744 0.94284 0.0
C1692 C 0.58288 0.61161 0.01291 0.0
C1693 C 0.59859 0.61065 0.01886 0.0
C1694 C 0.57288 0.60236 0.99541 0.0
C1695 C 0.57835 0.59192 0.98344 0.0
C1696 C 0.59389 0.59073 0.98948 0.0
C1697 C 0.6039 0.59999 0.00697 0.0
C1698 C 0.56881 0.57559 0.93057 0.0
C1699 C 0.54915 0.566 0.92822 0.0
C1700 C 0.57822 0.58386 0.94848 0.0
C1701 C 0.5682 0.58276 0.96449 0.0
C1702 C 0.54852 0.57316 0.96216 0.0
C1703 C 0.53909 0.56489 0.94419 0.0
H1704 H 0.98405 0.6026 0.0088 0.0
H1705 H 0.04445 0.63583 0.00812 0.0
H1706 H 0.9825 0.57903 0.98454 0.0
H1707 H 0.04285 0.61265 0.98335 0.0
H1708 H 0.03583 0.55862 0.9519 0.0
H1709 H 0.03661 0.58055 0.97785 0.0
H1710 H 0.98642 0.57522 0.95171 0.0
H1711 H 0.98541 0.55294 0.92627 0.0
C1712 C 0.99699 0.605 0.00333 0.0
C1713 C 0.01438 0.62111 0.01041 0.0
C1714 C 0.9961 0.59149 0.98936 0.0
C1715 C 0.01256 0.59389 0.98199 0.0
C1716 C 0.02992 0.61012 0.98896 0.0
C1717 C 0.03083 0.62352 0.00306 0.0
C1718 C 0.02491 0.56205 0.95189 0.0
C1719 C 0.01047 0.55397 0.93724 0.0
C1720 C 0.0254 0.5747 0.96664 0.0
C1721 C 0.0116 0.57971 0.96687 0.0
C1722 C 0.99707 0.57142 0.95223 0.0
C1723 C 0.99648 0.55865 0.93764 0.0
H1724 H 0.39432 0.42411 0.97687 0.0
H1725 H 0.38315 0.37912 0.93306 0.0
H1726 H 0.41065 0.44852 0.95454 0.0
H1727 H 0.39846 0.40323 0.91041 0.0
H1728 H 0.4522 0.44916 0.88751 0.0
H1729 H 0.43031 0.42524 0.90718 0.0
H1730 H 0.41199 0.46408 0.92631 0.0
H1731 H 0.43497 0.4887 0.90734 0.0
C1732 C 0.39477 0.41944 0.96225 0.0
C1733 C 0.38774 0.39983 0.95669 0.0
C1734 C 0.40412 0.4334 0.94942 0.0
C1735 C 0.4063 0.42789 0.93077 0.0
C1736 C 0.39762 0.40805 0.92483 0.0
C1737 C 0.38867 0.39421 0.93772 0.0
C1738 C 0.44369 0.45275 0.89606 0.0
C1739 C 0.44556 0.47098 0.89603 0.0
C1740 C 0.4308 0.43884 0.9071 0.0
C1741 C 0.41918 0.4426 0.91825 0.0
C1742 C 0.42078 0.46072 0.91799 0.0
C1743 C 0.43384 0.47477 0.90699 0.0
H1744 H 0.62247 0.01993 0.97647 0.0
H1745 H 0.57744 0.98613 0.0118 0.0
H1746 H 0.59979 0.01085 0.94922 0.0
H1747 H 0.55451 0.97745 0.98449 0.0
H1748 H 0.52868 0.0014 0.93796 0.0
H1749 H 0.54745 0.00133 0.96545 0.0
H1750 H 0.57363 0.97958 0.92807 0.0
H1751 H 0.55475 0.97941 0.90068 0.0
C1752 C 0.60769 0.01026 0.97826 0.0
C1753 C 0.60164 0.00365 0.99613 0.0
C1754 C 0.59474 0.00504 0.96269 0.0
C1755 C 0.57543 0.99349 0.9648 0.0
C1756 C 0.56934 0.98637 0.98255 0.0
C1757 C 0.5824 0.99121 0.99808 0.0
C1758 C 0.53818 0.99624 0.93574 0.0
C1759 C 0.54026 0.99038 0.91725 0.0
C1760 C 0.54879 0.99607 0.95143 0.0
C1761 C 0.56193 0.99041 0.94882 0.0
C1762 C 0.56355 0.98395 0.93043 0.0
C1763 C 0.55271 0.98378 0.91481 0.0
H1764 H 0.60243 0.04345 0.08244 0.0
H1765 H 0.61321 0.00011 0.10108 0.0
H1766 H 0.58336 0.0391 0.10955 0.0
H1767 H 0.59443 0.99608 0.12829 0.0
H1768 H 0.57509 0.01106 0.185 0.0
H1769 H 0.59574 0.01741 0.15886 0.0
H1770 H 0.55156 0.00946 0.11886 0.0
H1771 H 0.53087 0.00283 0.14491 0.0
C1772 C 0.6009 0.03316 0.09241 0.0
C1773 C 0.60927 0.02208 0.08958 0.0
C1774 C 0.58993 0.03062 0.10785 0.0
C1775 C 0.58744 0.01725 0.12096 0.0
C1776 C 0.59622 0.00656 0.11844 0.0
C1777 C 0.60687 0.00881 0.10281 0.0
C1778 C 0.56987 0.01074 0.17062 0.0
C1779 C 0.55141 0.00639 0.16691 0.0
C1780 C 0.58162 0.01429 0.1557 0.0
C1781 C 0.57522 0.01396 0.13689 0.0
C1782 C 0.55687 0.00994 0.13326 0.0
C1783 C 0.54501 0.00602 0.1481 0.0
H1784 H 0.98001 0.59976 0.07921 0.0
H1785 H 0.02099 0.64551 0.1199 0.0
H1786 H 0.97582 0.57588 0.10111 0.0
H1787 H 0.01613 0.6219 0.14228 0.0
H1788 H 0.02594 0.57613 0.16342 0.0
H1789 H 0.0256 0.59962 0.14416 0.0
H1790 H 0.96617 0.56087 0.12974 0.0
H1791 H 0.96684 0.53662 0.148 0.0
C1792 C 0.98762 0.60474 0.09313 0.0
C1793 C 0.00097 0.62444 0.0978 0.0
C1794 C 0.98524 0.59105 0.10572 0.0
C1795 C 0.99596 0.59686 0.12335 0.0
C1796 C 0.0081 0.61678 0.12859 0.0
C1797 C 0.01075 0.63037 0.11587 0.0
C1798 C 0.01282 0.57242 0.15593 0.0
C1799 C 0.99648 0.55431 0.15714 0.0
C1800 C 0.01253 0.58612 0.14515 0.0
C1801 C 0.9958 0.58231 0.13546 0.0
C1802 C 0.97935 0.5643 0.13686 0.0
C1803 C 0.97969 0.55045 0.14752 0.0
H1804 H 0.38521 0.39438 0.0614 0.0
H1805 H 0.43432 0.4004 0.03634 0.0
H1806 H 0.40372 0.40975 0.09177 0.0
H1807 H 0.4528 0.41598 0.06666 0.0
H1808 H 0.48131 0.46023 0.12101 0.0
H1809 H 0.46351 0.4474 0.08979 0.0
H1810 H 0.42008 0.39812 0.11527 0.0
H1811 H 0.43792 0.41078 0.1463 0.0
C1812 C 0.39999 0.39922 0.06229 0.0
C1813 C 0.4083 0.39609 0.04652 0.0
C1814 C 0.41053 0.4079 0.07967 0.0
C1815 C 0.42962 0.41394 0.0815 0.0
C1816 C 0.43811 0.41151 0.06556 0.0
C1817 C 0.42751 0.40252 0.04827 0.0
C1818 C 0.46799 0.44664 0.11984 0.0
C1819 C 0.46101 0.43638 0.13593 0.0
C1820 C 0.45786 0.43931 0.10206 0.0
C1821 C 0.44042 0.42185 0.10023 0.0
C1822 C 0.43342 0.41169 0.11637 0.0
C1823 C 0.44368 0.41882 0.13403 0.0
H1824 H 0.68064 0.7309 0.39689 0.0
H1825 H 0.62076 0.7025 0.38377 0.0
H1826 H 0.67862 0.75069 0.42319 0.0
H1827 H 0.61888 0.72235 0.40988 0.0
H1828 H 0.62118 0.74495 0.47235 0.0
H1829 H 0.62285 0.72585 0.4453 0.0
H1830 H 0.67134 0.77703 0.42803 0.0
H1831 H 0.66949 0.79632 0.45496 0.0
C1832 C 0.66707 0.72884 0.3996 0.0
C1833 C 0.65087 0.71508 0.38819 0.0
C1834 C 0.66595 0.74028 0.41457 0.0
C1835 C 0.6486 0.73808 0.41855 0.0
C1836 C 0.63242 0.72426 0.40725 0.0
C1837 C 0.63354 0.71294 0.39222 0.0
C1838 C 0.63196 0.75225 0.46258 0.0
C1839 C 0.64515 0.77221 0.46579 0.0
C1840 C 0.63297 0.74127 0.44713 0.0
C1841 C 0.64727 0.74994 0.43461 0.0
C1842 C 0.66033 0.76991 0.43763 0.0
C1843 C 0.65924 0.78095 0.45302 0.0
H1844 H 0.28485 0.91629 0.43082 0.0
H1845 H 0.26695 0.95144 0.46078 0.0
H1846 H 0.2672 0.89047 0.45166 0.0
H1847 H 0.24959 0.92591 0.48129 0.0
H1848 H 0.20033 0.86897 0.49454 0.0
H1849 H 0.22037 0.89313 0.4737 0.0
H1850 H 0.26485 0.8826 0.4873 0.0
H1851 H 0.24472 0.85836 0.50856 0.0
C1852 C 0.27742 0.91864 0.44197 0.0
C1853 C 0.27708 0.93582 0.4439 0.0
C1854 C 0.26735 0.90387 0.45388 0.0
C1855 C 0.25674 0.90607 0.46781 0.0
C1856 C 0.25727 0.92363 0.47037 0.0
C1857 C 0.2673 0.93831 0.45861 0.0
C1858 C 0.21439 0.8718 0.49316 0.0
C1859 C 0.22105 0.86201 0.50348 0.0
C1860 C 0.22586 0.88562 0.4812 0.0
C1861 C 0.24427 0.88997 0.47915 0.0
C1862 C 0.25071 0.87952 0.48865 0.0
C1863 C 0.23919 0.86566 0.50077 0.0
H1864 H 0.08755 0.35822 0.401 0.0
H1865 H 0.06497 0.29773 0.4084 0.0
H1866 H 0.11119 0.36706 0.42747 0.0
H1867 H 0.0881 0.30652 0.4346 0.0
H1868 H 0.13971 0.32387 0.46974 0.0
H1869 H 0.12159 0.32021 0.44028 0.0
H1870 H 0.11302 0.36558 0.46283 0.0
H1871 H 0.13156 0.36946 0.49226 0.0
C1872 C 0.08761 0.34683 0.4082 0.0
C1873 C 0.07434 0.32725 0.40248 0.0
C1874 C 0.10111 0.3519 0.42338 0.0
C1875 C 0.10168 0.33748 0.43299 0.0
C1876 C 0.08837 0.31799 0.42726 0.0
C1877 C 0.07494 0.31296 0.41227 0.0
C1878 C 0.13422 0.33327 0.46825 0.0
C1879 C 0.13683 0.34677 0.48333 0.0
C1880 C 0.12378 0.33114 0.45143 0.0
C1881 C 0.11553 0.34233 0.44937 0.0
C1882 C 0.11922 0.35678 0.46395 0.0
C1883 C 0.12982 0.359 0.48079 0.0
H1884 H 0.07492 0.3437 0.30809 0.0
H1885 H 0.05035 0.28176 0.30635 0.0
H1886 H 0.09145 0.34447 0.27997 0.0
H1887 H 0.06716 0.28267 0.27846 0.0
H1888 H 0.08664 0.2892 0.21781 0.0
H1889 H 0.06856 0.28844 0.24469 0.0
H1890 H 0.11728 0.34013 0.2719 0.0
H1891 H 0.13531 0.34086 0.24514 0.0
C1892 C 0.07302 0.33025 0.30175 0.0
C1893 C 0.06133 0.31268 0.30959 0.0
C1894 C 0.08259 0.33072 0.28567 0.0
C1895 C 0.08068 0.31364 0.27702 0.0
C1896 C 0.06877 0.29604 0.28465 0.0
C1897 C 0.05922 0.29556 0.30074 0.0
C1898 C 0.09349 0.30034 0.22958 0.0
C1899 C 0.11239 0.31512 0.22929 0.0
C1900 C 0.08314 0.29991 0.24497 0.0
C1901 C 0.09147 0.31426 0.26041 0.0
C1902 C 0.11035 0.32906 0.26008 0.0
C1903 C 0.12068 0.32948 0.24472 0.0
H1904 H 0.66433 0.69876 0.27748 0.0
H1905 H 0.69068 0.74389 0.3237 0.0
H1906 H 0.67426 0.72295 0.25458 0.0
H1907 H 0.69933 0.76827 0.30114 0.0
H1908 H 0.71789 0.81034 0.25662 0.0
H1909 H 0.7157 0.78614 0.27687 0.0
H1910 H 0.66482 0.74264 0.24398 0.0
H1911 H 0.66813 0.76623 0.22276 0.0
C1912 C 0.6724 0.71394 0.28266 0.0
C1913 C 0.67674 0.71953 0.30226 0.0
C1914 C 0.6779 0.72786 0.26959 0.0
C1915 C 0.68721 0.74771 0.2759 0.0
C1916 C 0.69236 0.75324 0.29557 0.0
C1917 C 0.68736 0.73927 0.30858 0.0
C1918 C 0.70649 0.79551 0.25343 0.0
C1919 C 0.69306 0.79039 0.23811 0.0
C1920 C 0.70506 0.78161 0.26527 0.0
C1921 C 0.69 0.76229 0.2623 0.0
C1922 C 0.67684 0.75718 0.24671 0.0
C1923 C 0.67849 0.77093 0.23468 0.0
H1924 H 0.24874 0.95627 0.3563 0.0
H1925 H 0.284 0.93259 0.34618 0.0
H1926 H 0.23112 0.9405 0.32591 0.0
H1927 H 0.26601 0.91646 0.31583 0.0
H1928 H 0.24472 0.91202 0.25339 0.0
H1929 H 0.26155 0.92567 0.28461 0.0
H1930 H 0.20923 0.90865 0.30966 0.0
H1931 H 0.19235 0.89498 0.27831 0.0
C1932 C 0.25268 0.9476 0.34768 0.0
C1933 C 0.26788 0.94579 0.3537 0.0
C1934 C 0.24246 0.93843 0.33029 0.0
C1935 C 0.24715 0.92722 0.31847 0.0
C1936 C 0.26218 0.92519 0.32454 0.0
C1937 C 0.27244 0.93437 0.34198 0.0
C1938 C 0.23678 0.91097 0.2656 0.0
C1939 C 0.2172 0.90238 0.26341 0.0
C1940 C 0.24643 0.91877 0.28349 0.0
C1941 C 0.23673 0.9182 0.29961 0.0
C1942 C 0.21713 0.90952 0.29746 0.0
C1943 C 0.20746 0.90171 0.27953 0.0
H1944 H 0.69653 0.93595 0.36302 0.0
H1945 H 0.65835 0.9439 0.32764 0.0
H1946 H 0.69757 0.91515 0.33734 0.0
H1947 H 0.66021 0.92405 0.30141 0.0
H1948 H 0.65745 0.87844 0.26025 0.0
H1949 H 0.65281 0.89361 0.28852 0.0
H1950 H 0.71083 0.91774 0.30842 0.0
H1951 H 0.71497 0.90105 0.28104 0.0
C1952 C 0.68839 0.93325 0.34967 0.0
C1953 C 0.67745 0.9416 0.34723 0.0
C1954 C 0.68909 0.92144 0.33488 0.0
C1955 C 0.67919 0.91807 0.31713 0.0
C1956 C 0.66782 0.92605 0.31492 0.0
C1957 C 0.66681 0.93753 0.3299 0.0
C1958 C 0.6691 0.88649 0.2709 0.0
C1959 C 0.68662 0.88846 0.26828 0.0
C1960 C 0.66651 0.89554 0.28701 0.0
C1961 C 0.68146 0.9071 0.30076 0.0
C1962 C 0.69887 0.90876 0.29832 0.0
C1963 C 0.70136 0.89942 0.28239 0.0
H1964 H 0.08997 0.73794 0.29446 0.0
H1965 H 0.04345 0.74683 0.29927 0.0
H1966 H 0.10547 0.76537 0.27577 0.0
H1967 H 0.05927 0.77465 0.28001 0.0
H1968 H 0.09004 0.80326 0.22172 0.0
H1969 H 0.07089 0.77956 0.24384 0.0
H1970 H 0.1195 0.80228 0.28358 0.0
H1971 H 0.13853 0.82597 0.26173 0.0
C1972 C 0.08294 0.74568 0.29146 0.0
C1973 C 0.0654 0.74012 0.29839 0.0
C1974 C 0.09196 0.76154 0.28085 0.0
C1975 C 0.08367 0.77224 0.27666 0.0
C1976 C 0.06596 0.76662 0.28316 0.0
C1977 C 0.05696 0.75077 0.29416 0.0
C1978 C 0.09648 0.80353 0.23542 0.0
C1979 C 0.11585 0.8162 0.23986 0.0
C1980 C 0.08552 0.79 0.24806 0.0
C1981 C 0.09382 0.78897 0.26525 0.0
C1982 C 0.11284 0.80262 0.27028 0.0
C1983 C 0.12373 0.81611 0.25775 0.0
H1984 H 0.2587 0.31005 0.33137 0.0
H1985 H 0.26423 0.36609 0.3321 0.0
H1986 H 0.2344 0.29788 0.30491 0.0
H1987 H 0.24026 0.35403 0.30593 0.0
H1988 H 0.18717 0.32509 0.26897 0.0
H1989 H 0.20626 0.33097 0.29842 0.0
H1990 H 0.23361 0.30443 0.27029 0.0
H1991 H 0.21462 0.29867 0.24076 0.0
C1992 C 0.25464 0.3197 0.32603 0.0
C1993 C 0.26347 0.33907 0.3338 0.0
C1994 C 0.2408 0.31276 0.31086 0.0
C1995 C 0.23535 0.32497 0.30342 0.0
C1996 C 0.24391 0.34416 0.31151 0.0
C1997 C 0.25781 0.35113 0.32643 0.0
C1998 C 0.1971 0.32032 0.26913 0.0
C1999 C 0.19952 0.31163 0.25246 0.0
C2000 C 0.20802 0.32367 0.28599 0.0
C2001 C 0.2216 0.31838 0.2866 0.0
C2002 C 0.22317 0.30855 0.27031 0.0
C2003 C 0.21227 0.30523 0.25339 0.0
H2004 H 0.27403 0.38062 0.41878 0.0
H2005 H 0.28064 0.33402 0.43561 0.0
H2006 H 0.25652 0.37803 0.44673 0.0
H2007 H 0.26341 0.33179 0.46384 0.0
H2008 H 0.24959 0.35303 0.52232 0.0
H2009 H 0.26837 0.35598 0.4951 0.0
H2010 H 0.22363 0.34904 0.45663 0.0
H2011 H 0.20477 0.34567 0.48369 0.0
C2012 C 0.27191 0.36996 0.42853 0.0
C2013 C 0.27868 0.35749 0.42496 0.0
C2014 C 0.26183 0.36844 0.44446 0.0
C2015 C 0.25865 0.35472 0.45737 0.0
C2016 C 0.26578 0.34255 0.45411 0.0
C2017 C 0.27553 0.34377 0.43793 0.0
C2018 C 0.24384 0.35214 0.50802 0.0
C2019 C 0.22577 0.34908 0.50502 0.0
C2020 C 0.2545 0.35373 0.49251 0.0
C2021 C 0.2474 0.35275 0.47384 0.0
C2022 C 0.22942 0.34993 0.47091 0.0
C2023 C 0.21863 0.34792 0.48633 0.0
H2024 H 0.63306 0.92797 0.4188 0.0
H2025 H 0.68586 0.96388 0.45223 0.0
H2026 H 0.62325 0.90375 0.44192 0.0
H2027 H 0.67643 0.9397 0.47471 0.0
H2028 H 0.65446 0.89871 0.51863 0.0
H2029 H 0.65673 0.92336 0.49886 0.0
H2030 H 0.63147 0.88051 0.45031 0.0
H2031 H 0.62858 0.85573 0.47045 0.0
C2032 C 0.64243 0.93086 0.43121 0.0
C2033 C 0.66032 0.9478 0.43355 0.0
C2034 C 0.63689 0.9169 0.44436 0.0
C2035 C 0.64908 0.91966 0.46014 0.0
C2036 C 0.66652 0.93709 0.46293 0.0
C2037 C 0.67203 0.95097 0.44988 0.0
C2038 C 0.6492 0.89457 0.50377 0.0
C2039 C 0.6416 0.87543 0.49595 0.0
C2040 C 0.65053 0.90867 0.49242 0.0
C2041 C 0.64458 0.90403 0.47288 0.0
C2042 C 0.63605 0.88461 0.46531 0.0
C2043 C 0.63449 0.87041 0.47679 0.0
H2044 H 0.09914 0.73074 0.37538 0.0
H2045 H 0.04865 0.72308 0.39846 0.0
H2046 H 0.11662 0.74655 0.40604 0.0
H2047 H 0.06621 0.73867 0.42934 0.0
H2048 H 0.10152 0.74155 0.48492 0.0
H2049 H 0.0835 0.72827 0.45396 0.0
H2050 H 0.12559 0.77821 0.42815 0.0
H2051 H 0.14349 0.79166 0.45925 0.0
C2052 C 0.09179 0.73246 0.387 0.0
C2053 C 0.07252 0.7256 0.38457 0.0
C2054 C 0.10183 0.74162 0.40448 0.0
C2055 C 0.09272 0.74377 0.41997 0.0
C2056 C 0.07349 0.73709 0.41756 0.0
C2057 C 0.0635 0.72826 0.39993 0.0
C2058 C 0.10689 0.74963 0.47259 0.0
C2059 C 0.12391 0.76751 0.47432 0.0
C2060 C 0.09653 0.74215 0.45499 0.0
C2061 C 0.10319 0.75227 0.43877 0.0
C2062 C 0.12022 0.77015 0.44049 0.0
C2063 C 0.13041 0.77782 0.45819 0.0
H2064 H 0.35265 0.0652 0.72956 0.0
H2065 H 0.29321 0.04117 0.71721 0.0
H2066 H 0.35266 0.08608 0.75603 0.0
H2067 H 0.29324 0.0617 0.7438 0.0
H2068 H 0.30281 0.11361 0.78209 0.0
H2069 H 0.30465 0.09545 0.75409 0.0
H2070 H 0.34042 0.08255 0.7875 0.0
H2071 H 0.33863 0.10067 0.81534 0.0
C2072 C 0.33959 0.06433 0.73247 0.0
C2073 C 0.32293 0.05145 0.72125 0.0
C2074 C 0.3396 0.07625 0.74768 0.0
C2075 C 0.32296 0.07556 0.75198 0.0
C2076 C 0.30635 0.0628 0.74068 0.0
C2077 C 0.30633 0.0509 0.72551 0.0
C2078 C 0.31107 0.1069 0.78339 0.0
C2079 C 0.32062 0.10862 0.80087 0.0
C2080 C 0.31212 0.0965 0.7674 0.0
C2081 C 0.32269 0.08757 0.76859 0.0
C2082 C 0.33244 0.08954 0.78602 0.0
C2083 C 0.3314 0.09993 0.80197 0.0
H2084 H 0.95084 0.24271 0.75735 0.0
H2085 H 0.93938 0.27951 0.794 0.0
H2086 H 0.93815 0.21815 0.78033 0.0
H2087 H 0.92665 0.25521 0.81654 0.0
H2088 H 0.91263 0.21477 0.86011 0.0
H2089 H 0.93374 0.23838 0.83926 0.0
H2090 H 0.90622 0.19609 0.7906 0.0
H2091 H 0.88536 0.17232 0.81166 0.0
C2092 C 0.94594 0.24569 0.77043 0.0
C2093 C 0.94595 0.26296 0.7738 0.0
C2094 C 0.93857 0.2316 0.7835 0.0
C2095 C 0.93137 0.23471 0.80026 0.0
C2096 C 0.93229 0.2524 0.80395 0.0
C2097 C 0.93945 0.2663 0.7909 0.0
C2098 C 0.91134 0.21045 0.845 0.0
C2099 C 0.89721 0.19186 0.83742 0.0
C2100 C 0.92339 0.22395 0.83305 0.0
C2101 C 0.92144 0.21922 0.81322 0.0
C2102 C 0.90817 0.20016 0.80582 0.0
C2103 C 0.89618 0.18657 0.81784 0.0
H2104 H 0.73873 0.63358 0.73417 0.0
H2105 H 0.7466 0.69059 0.734 0.0
H2106 H 0.76235 0.64501 0.76049 0.0
H2107 H 0.77072 0.7022 0.76061 0.0
H2108 H 0.78953 0.7014 0.82514 0.0
H2109 H 0.77138 0.69649 0.79518 0.0
H2110 H 0.79597 0.66624 0.76859 0.0
H2111 H 0.81396 0.67101 0.79854 0.0
C2112 C 0.74562 0.64865 0.73965 0.0
C2113 C 0.74066 0.66114 0.73201 0.0
C2114 C 0.75935 0.65526 0.75467 0.0
C2115 C 0.76853 0.67455 0.76259 0.0
C2116 C 0.76384 0.68723 0.75482 0.0
C2117 C 0.75012 0.68061 0.73956 0.0
C2118 C 0.79141 0.69414 0.81275 0.0
C2119 C 0.80297 0.68635 0.81424 0.0
C2120 C 0.78102 0.69135 0.79558 0.0
C2121 C 0.78202 0.68072 0.7796 0.0
C2122 C 0.7946 0.67414 0.78077 0.0
C2123 C 0.80491 0.67687 0.7979 0.0
H2124 H 0.71804 0.66145 0.62795 0.0
H2125 H 0.73304 0.62226 0.64955 0.0
H2126 H 0.7338 0.66263 0.59909 0.0
H2127 H 0.75004 0.62447 0.62155 0.0
H2128 H 0.76784 0.61896 0.56387 0.0
H2129 H 0.74864 0.61584 0.58993 0.0
H2130 H 0.76204 0.67462 0.58616 0.0
H2131 H 0.77939 0.67691 0.5586 0.0
C2132 C 0.7249 0.65323 0.62656 0.0
C2133 C 0.72426 0.6417 0.64092 0.0
C2134 C 0.7341 0.65401 0.61007 0.0
C2135 C 0.74335 0.64368 0.60779 0.0
C2136 C 0.74275 0.63226 0.62237 0.0
C2137 C 0.73312 0.63108 0.63858 0.0
C2138 C 0.76632 0.63108 0.56816 0.0
C2139 C 0.77534 0.64822 0.55892 0.0
C2140 C 0.75555 0.62943 0.58353 0.0
C2141 C 0.75386 0.64505 0.59055 0.0
C2142 C 0.76272 0.66212 0.58119 0.0
C2143 C 0.77308 0.66359 0.56548 0.0
H2144 H 0.31349 0.03588 0.61574 0.0
H2145 H 0.36742 0.071 0.64747 0.0
H2146 H 0.32179 0.06127 0.59465 0.0
H2147 H 0.37571 0.09658 0.62607 0.0
H2148 H 0.38485 0.12977 0.56988 0.0
H2149 H 0.38058 0.10463 0.59044 0.0
H2150 H 0.32593 0.09426 0.60235 0.0
H2151 H 0.33025 0.11944 0.58237 0.0
C2152 C 0.32723 0.04892 0.61811 0.0
C2153 C 0.33966 0.05151 0.63354 0.0
C2154 C 0.33194 0.0635 0.60602 0.0
C2155 C 0.34922 0.08103 0.60898 0.0
C2156 C 0.36226 0.0832 0.62354 0.0
C2157 C 0.3575 0.06855 0.63576 0.0
C2158 C 0.37206 0.12231 0.57714 0.0
C2159 C 0.35776 0.1264 0.57424 0.0
C2160 C 0.36961 0.10791 0.58883 0.0
C2161 C 0.35279 0.09728 0.59767 0.0
C2162 C 0.33886 0.1019 0.59533 0.0
C2163 C 0.34133 0.11631 0.58385 0.0
H2164 H 0.94977 0.26112 0.67299 0.0
H2165 H 0.90705 0.27395 0.68679 0.0
H2166 H 0.93285 0.2456 0.64191 0.0
H2167 H 0.89031 0.25842 0.65605 0.0
H2168 H 0.8805 0.25355 0.59118 0.0
H2169 H 0.8965 0.26661 0.62278 0.0
H2170 H 0.90239 0.21709 0.62683 0.0
H2171 H 0.88606 0.20377 0.59517 0.0
C2172 C 0.93675 0.2605 0.66951 0.0
C2173 C 0.9299 0.26896 0.68235 0.0
C2174 C 0.92704 0.25156 0.65176 0.0
C2175 C 0.91037 0.251 0.64652 0.0
C2176 C 0.90329 0.25894 0.65956 0.0
C2177 C 0.9129 0.26779 0.67724 0.0
C2178 C 0.88491 0.24526 0.5989 0.0
C2179 C 0.88187 0.22755 0.59069 0.0
C2180 C 0.89415 0.25279 0.61698 0.0
C2181 C 0.90064 0.24283 0.62728 0.0
C2182 C 0.89769 0.22516 0.61912 0.0
C2183 C 0.88834 0.21755 0.60102 0.0
H2184 H 0.32528 0.26841 0.6721 0.0
H2185 H 0.3855 0.30639 0.67399 0.0
H2186 H 0.3267 0.24764 0.64657 0.0
H2187 H 0.38685 0.28605 0.64807 0.0
H2188 H 0.3861 0.23613 0.61483 0.0
H2189 H 0.38369 0.25538 0.6414 0.0
H2190 H 0.33239 0.24624 0.61382 0.0
H2191 H 0.3346 0.22659 0.58768 0.0
C2192 C 0.33879 0.27246 0.66692 0.0
C2193 C 0.35527 0.28903 0.67515 0.0
C2194 C 0.33961 0.26057 0.65224 0.0
C2195 C 0.35692 0.26508 0.64532 0.0
C2196 C 0.37333 0.28187 0.65332 0.0
C2197 C 0.37253 0.29364 0.6681 0.0
C2198 C 0.37427 0.23816 0.6146 0.0
C2199 C 0.36048 0.22978 0.59932 0.0
C2200 C 0.37292 0.24927 0.62972 0.0
C2201 C 0.35788 0.25246 0.62973 0.0
C2202 C 0.34399 0.24384 0.61448 0.0
C2203 C 0.34524 0.23258 0.59949 0.0
H2204 H 0.71958 0.0453 0.59822 0.0
H2205 H 0.7291 0.09126 0.63998 0.0
H2206 H 0.73539 0.06869 0.57509 0.0
H2207 H 0.74595 0.11499 0.6172 0.0
H2208 H 0.76964 0.15341 0.56857 0.0
H2209 H 0.74727 0.12939 0.58837 0.0
H2210 H 0.7669 0.09112 0.57146 0.0
H2211 H 0.7881 0.11436 0.55083 0.0
C2212 C 0.72492 0.06045 0.60234 0.0
C2213 C 0.72329 0.06653 0.62088 0.0
C2214 C 0.73416 0.0739 0.58917 0.0
C2215 C 0.74244 0.09383 0.5944 0.0
C2216 C 0.73973 0.09979 0.61262 0.0
C2217 C 0.73009 0.08622 0.6257 0.0
C2218 C 0.76893 0.13972 0.56886 0.0
C2219 C 0.78079 0.1359 0.55816 0.0
C2220 C 0.75624 0.12602 0.58038 0.0
C2221 C 0.75516 0.10822 0.58151 0.0
C2222 C 0.76698 0.10445 0.57072 0.0
C2223 C 0.77948 0.118 0.55911 0.0
H2224 H 0.93247 0.70094 0.66139 0.0
H2225 H 0.92164 0.64278 0.66198 0.0
H2226 H 0.90887 0.69027 0.63503 0.0
H2227 H 0.89777 0.63206 0.63536 0.0
H2228 H 0.87812 0.63297 0.57119 0.0
H2229 H 0.89729 0.6381 0.60042 0.0
H2230 H 0.87432 0.66931 0.62839 0.0
H2231 H 0.85504 0.66406 0.59928 0.0
C2232 C 0.92502 0.68583 0.65595 0.0
C2233 C 0.92902 0.67273 0.66382 0.0
C2234 C 0.91134 0.67968 0.64092 0.0
C2235 C 0.90135 0.66029 0.63322 0.0
C2236 C 0.90527 0.64711 0.64101 0.0
C2237 C 0.91889 0.65324 0.65627 0.0
C2238 C 0.87676 0.64044 0.58374 0.0
C2239 C 0.86521 0.6483 0.58286 0.0
C2240 C 0.88778 0.64341 0.60047 0.0
C2241 C 0.88751 0.65435 0.6166 0.0
C2242 C 0.87508 0.66114 0.61606 0.0
C2243 C 0.86405 0.65813 0.5994 0.0
H2244 H 0.9266 0.65742 0.75592 0.0
H2245 H 0.95409 0.71981 0.76095 0.0
H2246 H 0.90952 0.65613 0.78375 0.0
H2247 H 0.93682 0.7184 0.78868 0.0
H2248 H 0.91599 0.70852 0.8492 0.0
H2249 H 0.93424 0.71002 0.82222 0.0
H2250 H 0.88442 0.66237 0.79165 0.0
H2251 H 0.86615 0.66101 0.81841 0.0
C2252 C 0.92904 0.67087 0.76294 0.0
C2253 C 0.94169 0.68872 0.7561 0.0
C2254 C 0.91917 0.6701 0.77885 0.0
C2255 C 0.92177 0.68716 0.78836 0.0
C2256 C 0.93464 0.70502 0.78175 0.0
C2257 C 0.94445 0.70579 0.76577 0.0
C2258 C 0.90891 0.69846 0.83667 0.0
C2259 C 0.88961 0.68459 0.83602 0.0
C2260 C 0.91937 0.69931 0.82123 0.0
C2261 C 0.91078 0.68626 0.80485 0.0
C2262 C 0.89151 0.6724 0.80421 0.0
C2263 C 0.88105 0.67161 0.81957 0.0
H2264 H 0.364 0.28913 0.77074 0.0
H2265 H 0.30599 0.26926 0.75465 0.0
H2266 H 0.3541 0.2625 0.79043 0.0
H2267 H 0.29612 0.24244 0.77495 0.0
H2268 H 0.29626 0.21402 0.83465 0.0
H2269 H 0.30101 0.23855 0.81314 0.0
H2270 H 0.33591 0.22472 0.78032 0.0
H2271 H 0.33073 0.19984 0.80122 0.0
C2272 C 0.3491 0.27923 0.77152 0.0
C2273 C 0.33579 0.28135 0.76095 0.0
C2274 C 0.34347 0.26388 0.78276 0.0
C2275 C 0.32439 0.25033 0.78399 0.0
C2276 C 0.31094 0.25273 0.77415 0.0
C2277 C 0.3166 0.26804 0.76255 0.0
C2278 C 0.30455 0.21585 0.82257 0.0
C2279 C 0.31337 0.20514 0.81987 0.0
C2280 C 0.30728 0.22992 0.8103 0.0
C2281 C 0.31899 0.23362 0.79526 0.0
C2282 C 0.32702 0.2223 0.792 0.0
C2283 C 0.32415 0.20815 0.80406 0.0
H2284 H 0.76645 0.06754 0.70223 0.0
H2285 H 0.71732 0.06271 0.72609 0.0
H2286 H 0.78459 0.08316 0.73267 0.0
H2287 H 0.73551 0.07813 0.75664 0.0
H2288 H 0.76871 0.07781 0.81173 0.0
H2289 H 0.75096 0.06592 0.78061 0.0
H2290 H 0.79564 0.11464 0.75563 0.0
H2291 H 0.81335 0.1267 0.78695 0.0
C2292 C 0.75957 0.06996 0.71393 0.0
C2293 C 0.74043 0.06381 0.71182 0.0
C2294 C 0.76998 0.07898 0.73128 0.0
C2295 C 0.76139 0.08173 0.74695 0.0
C2296 C 0.74239 0.07604 0.74475 0.0
C2297 C 0.73204 0.06733 0.72727 0.0
C2298 C 0.77473 0.08592 0.79956 0.0
C2299 C 0.79241 0.10306 0.80161 0.0
C2300 C 0.76453 0.07924 0.78185 0.0
C2301 C 0.77194 0.08943 0.76581 0.0
C2302 C 0.78967 0.10654 0.76782 0.0
C2303 C 0.79975 0.11343 0.78565 0.0
H2304 H 0.06993 0.36752 0.03671 0.0
H2305 H 0.02572 0.33778 0.0743 0.0
H2306 H 0.09137 0.36361 0.05795 0.0
H2307 H 0.04722 0.3343 0.09565 0.0
H2308 H 0.09894 0.34949 0.13688 0.0
H2309 H 0.07925 0.35689 0.11687 0.0
H2310 H 0.08997 0.33139 0.067 0.0
H2311 H 0.10931 0.32367 0.08702 0.0
C2312 C 0.06492 0.36049 0.04966 0.0
C2313 C 0.04618 0.35289 0.05385 0.0
C2314 C 0.07712 0.35816 0.06172 0.0
C2315 C 0.07088 0.34861 0.07836 0.0
C2316 C 0.05238 0.34179 0.08295 0.0
C2317 C 0.04009 0.34373 0.07071 0.0
C2318 C 0.09702 0.34547 0.12164 0.0
C2319 C 0.10543 0.33587 0.11345 0.0
C2320 C 0.08581 0.34969 0.11024 0.0
C2321 C 0.08323 0.3448 0.09042 0.0
C2322 C 0.0919 0.33547 0.08222 0.0
C2323 C 0.10277 0.33089 0.09366 0.0
H2324 H 0.68725 0.68151 0.10618 0.0
H2325 H 0.6326 0.67389 0.09482 0.0
H2326 H 0.69681 0.71096 0.12698 0.0
H2327 H 0.64207 0.70307 0.11561 0.0
H2328 H 0.7093 0.7758 0.13129 0.0
H2329 H 0.70198 0.74372 0.11878 0.0
H2330 H 0.65222 0.71757 0.14999 0.0
H2331 H 0.65969 0.74959 0.16285 0.0
C2332 C 0.67719 0.68594 0.10841 0.0
C2333 C 0.65925 0.67557 0.0988 0.0
C2334 C 0.68268 0.70277 0.12023 0.0
C2335 C 0.67018 0.70925 0.12286 0.0
C2336 C 0.65193 0.69829 0.11399 0.0
C2337 C 0.64655 0.68167 0.10199 0.0
C2338 C 0.69709 0.7632 0.13592 0.0
C2339 C 0.68488 0.76522 0.14777 0.0
C2340 C 0.69292 0.74485 0.12877 0.0
C2341 C 0.67643 0.72823 0.13328 0.0
C2342 C 0.66487 0.73019 0.14609 0.0
C2343 C 0.66911 0.7485 0.15335 0.0
H2344 H 0.34116 0.98516 0.07626 0.0
H2345 H 0.31422 0.94228 0.02811 0.0
H2346 H 0.3143 0.96639 0.09463 0.0
H2347 H 0.2867 0.92397 0.04595 0.0
H2348 H 0.24415 0.88816 0.08729 0.0
H2349 H 0.27257 0.90458 0.07055 0.0
H2350 H 0.28401 0.95965 0.09664 0.0
H2351 H 0.25671 0.94317 0.1147 0.0
C2352 C 0.32944 0.97165 0.06964 0.0
C2353 C 0.32969 0.96517 0.05079 0.0
C2354 C 0.31392 0.96097 0.08007 0.0
C2355 C 0.29805 0.94379 0.07171 0.0
C2356 C 0.29865 0.93699 0.05299 0.0
C2357 C 0.31441 0.9475 0.04271 0.0
C2358 C 0.25288 0.90375 0.08972 0.0
C2359 C 0.24805 0.91426 0.10248 0.0
C2360 C 0.2691 0.91323 0.07986 0.0
C2361 C 0.28077 0.93351 0.08224 0.0
C2362 C 0.27569 0.94401 0.09469 0.0
C2363 C 0.2597 0.93453 0.1048 0.0
H2364 H 0.38783 0.05937 0.00831 0.0
H2365 H 0.33263 0.01235 0.98721 0.0
H2366 H 0.38047 0.08249 0.99575 0.0
H2367 H 0.32544 0.03517 0.97481 0.0
H2368 H 0.31032 0.08061 0.97228 0.0
H2369 H 0.31991 0.06075 0.9879 0.0
H2370 H 0.37355 0.09107 0.96365 0.0
H2371 H 0.36391 0.11079 0.9478 0.0
C2372 C 0.37421 0.05398 0.00097 0.0
C2373 C 0.36082 0.03405 0.99879 0.0
C2374 C 0.37001 0.06718 0.99379 0.0
C2375 C 0.35229 0.06063 0.98453 0.0
C2376 C 0.33907 0.0407 0.98222 0.0
C2377 C 0.34328 0.0276 0.9892 0.0
C2378 C 0.32417 0.08308 0.9703 0.0
C2379 C 0.33626 0.09718 0.95865 0.0
C2380 C 0.32968 0.07174 0.97928 0.0
C2381 C 0.34743 0.07426 0.97685 0.0
C2382 C 0.35986 0.08892 0.96592 0.0
C2383 C 0.35432 0.10023 0.95686 0.0
H2384 H 0.95642 0.30846 0.99019 0.0
H2385 H 0.00216 0.29968 0.97914 0.0
H2386 H 0.93517 0.2795 0.96943 0.0
H2387 H 0.98062 0.27032 0.95828 0.0
H2388 H 0.92592 0.20617 0.94873 0.0
H2389 H 0.95187 0.23703 0.96377 0.0
H2390 H 0.93008 0.26739 0.93459 0.0
H2391 H 0.90434 0.23669 0.91945 0.0
C2392 C 0.96197 0.30041 0.9832 0.0
C2393 C 0.98094 0.30632 0.98629 0.0
C2394 C 0.94981 0.28388 0.97121 0.0
C2395 C 0.95629 0.27274 0.96217 0.0
C2396 C 0.9753 0.27867 0.96511 0.0
C2397 C 0.98759 0.29545 0.97696 0.0
C2398 C 0.92696 0.21948 0.94517 0.0
C2399 C 0.91292 0.21903 0.93322 0.0
C2400 C 0.9418 0.23712 0.95376 0.0
C2401 C 0.94278 0.25453 0.95055 0.0
C2402 C 0.92945 0.25413 0.93758 0.0
C2403 C 0.91471 0.23658 0.92897 0.0
H2404 H 0.67738 0.61038 0.03238 0.0
H2405 H 0.68916 0.66791 0.02436 0.0
H2406 H 0.70336 0.61603 0.01293 0.0
H2407 H 0.71489 0.67347 0.00522 0.0
H2408 H 0.77251 0.68458 0.99213 0.0
H2409 H 0.74654 0.67697 0.0119 0.0
H2410 H 0.71196 0.62248 0.97798 0.0
H2411 H 0.73773 0.63025 0.95776 0.0
C2412 C 0.68544 0.62415 0.02644 0.0
C2413 C 0.68125 0.6387 0.02993 0.0
C2414 C 0.70024 0.62736 0.01531 0.0
C2415 C 0.71121 0.64525 0.00775 0.0
C2416 C 0.70684 0.65965 0.0111 0.0
C2417 C 0.692 0.65639 0.02197 0.0
C2418 C 0.75934 0.67104 0.98874 0.0
C2419 C 0.7572 0.65812 0.97322 0.0
C2420 C 0.74451 0.66665 0.00014 0.0
C2421 C 0.72725 0.64917 0.99641 0.0
C2422 C 0.7252 0.63597 0.98127 0.0
C2423 C 0.73999 0.64045 0.96973 0.0
H2424 H 0.97855 0.66335 0.99201 0.0
H2425 H 0.93473 0.63194 0.02951 0.0
H2426 H 0.95645 0.66588 0.9708 0.0
H2427 H 0.91252 0.63471 0.00825 0.0
H2428 H 0.89166 0.67231 0.97979 0.0
H2429 H 0.9109 0.66444 0.99967 0.0
H2430 H 0.9264 0.64478 0.94907 0.0
H2431 H 0.90706 0.65261 0.92916 0.0
C2432 C 0.96411 0.65678 0.9956 0.0
C2433 C 0.95835 0.6475 0.01244 0.0
C2434 C 0.95145 0.65816 0.9834 0.0
C2435 C 0.93281 0.65055 0.98792 0.0
C2436 C 0.92687 0.64079 0.00451 0.0
C2437 C 0.93951 0.6391 0.01658 0.0
C2438 C 0.89922 0.66634 0.97294 0.0
C2439 C 0.89808 0.66326 0.95295 0.0
C2440 C 0.91002 0.66162 0.98431 0.0
C2441 C 0.92008 0.65395 0.9759 0.0
C2442 C 0.91881 0.65071 0.9559 0.0
C2443 C 0.90777 0.65517 0.94454 0.0
H2444 H 0.31545 0.31482 0.9692 0.0
H2445 H 0.37389 0.33242 0.97097 0.0
H2446 H 0.30716 0.28468 0.95054 0.0
H2447 H 0.3659 0.30306 0.95148 0.0
H2448 H 0.34515 0.2397 0.94194 0.0
H2449 H 0.35233 0.27062 0.95732 0.0
H2450 H 0.30782 0.26805 0.92168 0.0
H2451 H 0.30013 0.23637 0.90687 0.0
C2452 C 0.32654 0.31242 0.96519 0.0
C2453 C 0.34526 0.32573 0.97173 0.0
C2454 C 0.32182 0.2952 0.95444 0.0
C2455 C 0.33582 0.29123 0.94983 0.0
C2456 C 0.35468 0.30531 0.95531 0.0
C2457 C 0.35931 0.32223 0.96636 0.0
C2458 C 0.33696 0.24582 0.93739 0.0
C2459 C 0.32224 0.23587 0.92316 0.0
C2460 C 0.34114 0.26361 0.94607 0.0
C2461 C 0.3309 0.27207 0.9405 0.0
C2462 C 0.31594 0.26194 0.92637 0.0
C2463 C 0.31156 0.24388 0.91785 0.0
H2464 H 0.6728 0.0599 0.02054 0.0
H2465 H 0.67906 0.01066 0.00928 0.0
H2466 H 0.69973 0.07913 0.00171 0.0
H2467 H 0.70601 0.02991 0.99109 0.0
H2468 H 0.76673 0.07955 0.98243 0.0
H2469 H 0.74005 0.06264 0.00171 0.0
H2470 H 0.70643 0.07432 0.96361 0.0
H2471 H 0.73264 0.09027 0.94354 0.0
C2472 C 0.67993 0.05324 0.01409 0.0
C2473 C 0.67387 0.03382 0.01633 0.0
C2474 C 0.69524 0.06418 0.00335 0.0
C2475 C 0.70492 0.05595 0.99515 0.0
C2476 C 0.69884 0.03658 0.99743 0.0
C2477 C 0.68337 0.02557 0.00774 0.0
C2478 C 0.75364 0.07837 0.97795 0.0
C2479 C 0.7519 0.08619 0.96126 0.0
C2480 C 0.73845 0.06886 0.98913 0.0
C2481 C 0.72131 0.0673 0.98411 0.0
C2482 C 0.71962 0.07557 0.96785 0.0
C2483 C 0.73469 0.08476 0.95643 0.0
H2484 H 0.61531 0.94438 0.06603 0.0
H2485 H 0.67053 0.99339 0.0836 0.0
H2486 H 0.62345 0.92322 0.08159 0.0
H2487 H 0.67888 0.97244 0.09822 0.0
H2488 H 0.68452 0.93459 0.13802 0.0
H2489 H 0.67377 0.9543 0.12432 0.0
H2490 H 0.64246 0.9092 0.07856 0.0
H2491 H 0.65274 0.88918 0.09287 0.0
C2492 C 0.62913 0.95061 0.07323 0.0
C2493 C 0.64222 0.97055 0.07369 0.0
C2494 C 0.63387 0.9385 0.082 0.0
C2495 C 0.65183 0.9461 0.09125 0.0
C2496 C 0.6648 0.96607 0.09166 0.0
C2497 C 0.66002 0.97812 0.08314 0.0
C2498 C 0.67545 0.92898 0.12496 0.0
C2499 C 0.66965 0.91051 0.11634 0.0
C2500 C 0.66927 0.94026 0.11708 0.0
C2501 C 0.65736 0.93345 0.1002 0.0
C2502 C 0.65142 0.91483 0.09168 0.0
C2503 C 0.65742 0.90342 0.09975 0.0
H2504 H 0.04943 0.7046 0.06244 0.0
H2505 H 0.00322 0.69508 0.09562 0.0
H2506 H 0.06998 0.73514 0.08155 0.0
H2507 H 0.02406 0.72576 0.11504 0.0
H2508 H 0.07907 0.77006 0.15651 0.0
H2509 H 0.05503 0.73985 0.13837 0.0
H2510 H 0.07079 0.76768 0.08608 0.0
H2511 H 0.09469 0.79773 0.10409 0.0
C2512 C 0.04369 0.709 0.07388 0.0
C2513 C 0.02473 0.69752 0.07752 0.0
C2514 C 0.05542 0.72653 0.08472 0.0
C2515 C 0.04851 0.73281 0.09961 0.0
C2516 C 0.02966 0.72117 0.10359 0.0
C2517 C 0.01778 0.70371 0.09249 0.0
C2518 C 0.07715 0.76973 0.14117 0.0
C2519 C 0.0887 0.78618 0.13168 0.0
C2520 C 0.06338 0.75254 0.13085 0.0
C2521 C 0.06121 0.75149 0.11087 0.0
C2522 C 0.0723 0.76813 0.10148 0.0
C2523 C 0.08585 0.78534 0.11179 0.0
H2524 H 0.32813 0.34593 0.05725 0.0
H2525 H 0.31779 0.38409 0.02601 0.0
H2526 H 0.30291 0.34019 0.07746 0.0
H2527 H 0.29232 0.37818 0.04629 0.0
H2528 H 0.23329 0.33914 0.07042 0.0
H2529 H 0.26003 0.3482 0.05107 0.0
H2530 H 0.29529 0.35879 0.10208 0.0
H2531 H 0.26861 0.34967 0.12136 0.0
C2532 C 0.32055 0.35322 0.05481 0.0
C2533 C 0.32489 0.36544 0.04005 0.0
C2534 C 0.30617 0.34998 0.06643 0.0
C2535 C 0.29565 0.3587 0.06339 0.0
C2536 C 0.30015 0.37118 0.04882 0.0
C2537 C 0.31478 0.37466 0.03733 0.0
C2538 C 0.24677 0.34339 0.07744 0.0
C2539 C 0.2489 0.34368 0.09735 0.0
C2540 C 0.26208 0.34875 0.06642 0.0
C2541 C 0.27971 0.35423 0.07511 0.0
C2542 C 0.28183 0.35456 0.09502 0.0
C2543 C 0.26661 0.34944 0.10604 0.0
H2544 H 0.73096 0.71592 0.3855 0.0
H2545 H 0.68658 0.65866 0.39611 0.0
H2546 H 0.75252 0.71309 0.40734 0.0
H2547 H 0.70816 0.65546 0.41722 0.0
H2548 H 0.74737 0.6598 0.46554 0.0
H2549 H 0.7258 0.66548 0.44692 0.0
H2550 H 0.76896 0.69662 0.40856 0.0
H2551 H 0.79054 0.69143 0.42754 0.0
C2552 C 0.72581 0.70275 0.39252 0.0
C2553 C 0.70709 0.68752 0.38906 0.0
C2554 C 0.73819 0.70105 0.40494 0.0
C2555 C 0.73216 0.68399 0.41402 0.0
C2556 C 0.71329 0.66893 0.41078 0.0
C2557 C 0.70091 0.67072 0.39853 0.0
C2558 C 0.7522 0.66792 0.45316 0.0
C2559 C 0.77063 0.67524 0.44803 0.0
C2560 C 0.73985 0.67113 0.44243 0.0
C2561 C 0.74559 0.68152 0.42618 0.0
C2562 C 0.76411 0.68892 0.42117 0.0
C2563 C 0.77649 0.68588 0.43201 0.0
H2564 H 0.35619 0.01553 0.44201 0.0
H2565 H 0.3023 0.00876 0.42795 0.0
H2566 H 0.36546 0.04525 0.46236 0.0
H2567 H 0.31141 0.03806 0.44813 0.0
H2568 H 0.32642 0.08424 0.49398 0.0
H2569 H 0.31962 0.05223 0.48199 0.0
H2570 H 0.37177 0.07839 0.45467 0.0
H2571 H 0.37856 0.11049 0.46663 0.0
C2572 C 0.34624 0.0202 0.44354 0.0
C2573 C 0.32858 0.00995 0.43334 0.0
C2574 C 0.35156 0.0372 0.45508 0.0
C2575 C 0.33914 0.04392 0.45684 0.0
C2576 C 0.3212 0.03312 0.44727 0.0
C2577 C 0.31602 0.01639 0.43558 0.0
C2578 C 0.33652 0.08313 0.48557 0.0
C2579 C 0.35283 0.09984 0.48089 0.0
C2580 C 0.33267 0.06484 0.47879 0.0
C2581 C 0.34505 0.06287 0.46721 0.0
C2582 C 0.36203 0.07949 0.46367 0.0
C2583 C 0.36589 0.09785 0.47047 0.0
H2584 H 0.99663 0.27865 0.37339 0.0
H2585 H 0.00193 0.33136 0.39853 0.0
H2586 H 0.96825 0.25966 0.39003 0.0
H2587 H 0.97357 0.31238 0.41506 0.0
H2588 H 0.91009 0.27101 0.42066 0.0
H2589 H 0.93894 0.28975 0.40478 0.0
H2590 H 0.95892 0.25366 0.42412 0.0
H2591 H 0.93042 0.23526 0.44049 0.0
C2592 C 0.9918 0.28616 0.38256 0.0
C2593 C 0.00145 0.30646 0.38464 0.0
C2594 C 0.97561 0.27531 0.3921 0.0
C2595 C 0.96867 0.28458 0.4037 0.0
C2596 C 0.97849 0.30488 0.406 0.0
C2597 C 0.99479 0.31572 0.39665 0.0
C2598 C 0.92068 0.26716 0.42168 0.0
C2599 C 0.91787 0.25158 0.43183 0.0
C2600 C 0.93718 0.27787 0.41256 0.0
C2601 C 0.95114 0.27313 0.41325 0.0
C2602 C 0.94828 0.25747 0.42318 0.0
C2603 C 0.93189 0.24688 0.43247 0.0
H2604 H 0.06908 0.39745 0.34138 0.0
H2605 H 0.01354 0.35356 0.31757 0.0
H2606 H 0.06535 0.42223 0.327 0.0
H2607 H 0.00992 0.37805 0.30345 0.0
H2608 H 1.00009 0.42724 0.29994 0.0
H2609 H 0.00673 0.40568 0.31646 0.0
H2610 H 0.06104 0.43144 0.2935 0.0
H2611 H 0.05431 0.45288 0.27663 0.0
C2612 C 0.05618 0.39309 0.33303 0.0
C2613 C 0.04159 0.37357 0.33069 0.0
C2614 C 0.05406 0.40724 0.32481 0.0
C2615 C 0.03724 0.40207 0.31436 0.0
C2616 C 0.02289 0.38252 0.31175 0.0
C2617 C 0.02505 0.36846 0.31975 0.0
C2618 C 0.01346 0.42834 0.2984 0.0
C2619 C 0.02656 0.44162 0.28676 0.0
C2620 C 0.01728 0.41604 0.30791 0.0
C2621 C 0.03432 0.41676 0.30608 0.0
C2622 C 0.04784 0.43066 0.29524 0.0
C2623 C 0.04397 0.44294 0.28561 0.0
H2624 H 0.66804 0.63815 0.31243 0.0
H2625 H 0.62215 0.64772 0.31867 0.0
H2626 H 0.64737 0.60869 0.29127 0.0
H2627 H 0.60177 0.61869 0.29773 0.0
H2628 H 0.57126 0.57348 0.25022 0.0
H2629 H 0.59706 0.60478 0.26416 0.0
H2630 H 0.61868 0.57602 0.29649 0.0
H2631 H 0.59279 0.54461 0.28249 0.0
C2632 C 0.65366 0.63413 0.30906 0.0
C2633 C 0.64666 0.64515 0.31724 0.0
C2634 C 0.64185 0.61727 0.29705 0.0
C2635 C 0.62299 0.61144 0.2928 0.0
C2636 C 0.6163 0.62293 0.30048 0.0
C2637 C 0.62796 0.63952 0.31262 0.0
C2638 C 0.58165 0.57386 0.26015 0.0
C2639 C 0.57983 0.55663 0.26558 0.0
C2640 C 0.59643 0.59175 0.26807 0.0
C2641 C 0.60971 0.59281 0.28161 0.0
C2642 C 0.60869 0.57564 0.28601 0.0
C2643 C 0.59386 0.55767 0.27804 0.0
H2644 H 0.34226 0.93793 0.37154 0.0
H2645 H 0.35807 0.99572 0.359 0.0
H2646 H 0.36668 0.93965 0.35178 0.0
H2647 H 0.38217 0.99735 0.33944 0.0
H2648 H 0.43664 0.00283 0.32393 0.0
H2649 H 0.41252 0.99897 0.34489 0.0
H2650 H 0.37438 0.94195 0.31695 0.0
H2651 H 0.39845 0.94589 0.29566 0.0
C2652 C 0.35089 0.95094 0.36456 0.0
C2653 C 0.34827 0.9667 0.36687 0.0
C2654 C 0.36481 0.9519 0.35323 0.0
C2655 C 0.37645 0.96871 0.34422 0.0
C2656 C 0.37365 0.98433 0.34645 0.0
C2657 C 0.35972 0.98332 0.35758 0.0
C2658 C 0.4231 0.98949 0.32216 0.0
C2659 C 0.41943 0.97477 0.30794 0.0
C2660 C 0.4093 0.98726 0.33422 0.0
C2661 C 0.39151 0.97022 0.33245 0.0
C2662 C 0.38801 0.95518 0.31873 0.0
C2663 C 0.40182 0.95746 0.30656 0.0
H2664 H 0.64453 0.98978 0.32561 0.0
H2665 H 0.59913 0.953 0.35935 0.0
H2666 H 0.62234 0.99119 0.30339 0.0
H2667 H 0.57691 0.95454 0.3371 0.0
H2668 H 0.55142 0.9874 0.30886 0.0
H2669 H 0.57205 0.9819 0.32931 0.0
H2670 H 0.59436 0.9698 0.27945 0.0
H2671 H 0.5736 0.97532 0.25891 0.0
C2672 C 0.62978 0.98185 0.32819 0.0
C2673 C 0.62357 0.97136 0.34429 0.0
C2674 C 0.61707 0.98258 0.31539 0.0
C2675 C 0.59792 0.97304 0.31856 0.0
C2676 C 0.59163 0.96216 0.33441 0.0
C2677 C 0.60432 0.96121 0.34708 0.0
C2678 C 0.56078 0.98362 0.30228 0.0
C2679 C 0.56109 0.98199 0.28232 0.0
C2680 C 0.57242 0.98026 0.31397 0.0
C2681 C 0.58478 0.9754 0.30597 0.0
C2682 C 0.58502 0.97362 0.28599 0.0
C2683 C 0.57314 0.97671 0.27425 0.0
H2684 H 0.98577 0.65115 0.29801 0.0
H2685 H 0.04437 0.66923 0.30311 0.0
H2686 H 0.97906 0.62275 0.27677 0.0
H2687 H 0.03775 0.64135 0.2815 0.0
H2688 H 0.01905 0.59585 0.2302 0.0
H2689 H 0.0222 0.62561 0.24471 0.0
H2690 H 0.98512 0.59371 0.28744 0.0
H2691 H 0.9828 0.56416 0.27388 0.0
C2692 C 0.99724 0.64929 0.2942 0.0
C2693 C 0.01555 0.66222 0.30223 0.0
C2694 C 0.99339 0.6331 0.28214 0.0
C2695 C 0.00792 0.63002 0.27756 0.0
C2696 C 0.02637 0.64356 0.28473 0.0
C2697 C 0.03012 0.65941 0.29715 0.0
C2698 C 0.01158 0.59511 0.24272 0.0
C2699 C 0.00092 0.57756 0.25102 0.0
C2700 C 0.01323 0.61212 0.25084 0.0
C2701 C 0.00386 0.61181 0.26709 0.0
C2702 C 0.99228 0.59419 0.27472 0.0
C2703 C 0.99093 0.57725 0.26688 0.0
H2704 H 0.34927 0.39454 0.36536 0.0
H2705 H 0.33268 0.34318 0.32796 0.0
H2706 H 0.37644 0.41307 0.34701 0.0
H2707 H 0.35937 0.3617 0.30933 0.0
H2708 H 0.41959 0.39342 0.29405 0.0
H2709 H 0.39268 0.37632 0.31282 0.0
H2710 H 0.38637 0.42599 0.31676 0.0
H2711 H 0.41396 0.44351 0.29884 0.0
C2712 C 0.35128 0.38729 0.35306 0.0
C2713 C 0.33896 0.3674 0.34818 0.0
C2714 C 0.36681 0.3979 0.34251 0.0
C2715 C 0.37023 0.38882 0.32683 0.0
C2716 C 0.35744 0.36905 0.32159 0.0
C2717 C 0.34204 0.35846 0.33218 0.0
C2718 C 0.41267 0.40083 0.29917 0.0
C2719 C 0.41894 0.41984 0.29489 0.0
C2720 C 0.39704 0.39091 0.3097 0.0
C2721 C 0.38721 0.3997 0.31613 0.0
C2722 C 0.39366 0.41882 0.31213 0.0
C2723 C 0.40935 0.42878 0.30166 0.0
H2724 H 0.32817 0.32428 0.42547 0.0
H2725 H 0.28631 0.27705 0.38656 0.0
H2726 H 0.33629 0.30264 0.43929 0.0
H2727 H 0.29495 0.25533 0.39992 0.0
H2728 H 0.30454 0.2189 0.44148 0.0
H2729 H 0.29463 0.23905 0.42717 0.0
H2730 H 0.35226 0.28655 0.43113 0.0
H2731 H 0.36197 0.26687 0.44659 0.0
C2732 C 0.32067 0.30921 0.41989 0.0
C2733 C 0.30665 0.30236 0.4049 0.0
C2734 C 0.32547 0.29683 0.42767 0.0
C2735 C 0.31655 0.2773 0.42048 0.0
C2736 C 0.30206 0.27027 0.40586 0.0
C2737 C 0.2971 0.28268 0.3982 0.0
C2738 C 0.31509 0.23369 0.4394 0.0
C2739 C 0.33405 0.2413 0.44543 0.0
C2740 C 0.30942 0.24518 0.43097 0.0
C2741 C 0.32259 0.26453 0.42821 0.0
C2742 C 0.34165 0.27185 0.43344 0.0
C2743 C 0.34729 0.26043 0.44203 0.0
H2744 H 0.71177 0.01397 0.41291 0.0
H2745 H 0.67136 0.03192 0.41148 0.0
H2746 H 0.73463 0.04441 0.43047 0.0
H2747 H 0.69475 0.06318 0.42834 0.0
H2748 H 0.73938 0.11248 0.47195 0.0
H2749 H 0.7139 0.08103 0.45719 0.0
H2750 H 0.75356 0.07635 0.42274 0.0
H2751 H 0.77879 0.10705 0.43808 0.0
C2752 C 0.70779 0.02449 0.41636 0.0
C2753 C 0.68988 0.02069 0.41067 0.0
C2754 C 0.72096 0.04205 0.4263 0.0
C2755 C 0.71673 0.0565 0.4304 0.0
C2756 C 0.69849 0.05238 0.42543 0.0
C2757 C 0.68511 0.03453 0.41574 0.0
C2758 C 0.74247 0.10461 0.46118 0.0
C2759 C 0.76097 0.11191 0.45627 0.0
C2760 C 0.72794 0.08669 0.45269 0.0
C2761 C 0.73171 0.07595 0.43902 0.0
C2762 C 0.75019 0.08384 0.43366 0.0
C2763 C 0.76465 0.10149 0.4423 0.0
H2764 H 0.99096 0.67555 0.38688 0.0
H2765 H 0.98519 0.71805 0.3584 0.0
H2766 H 0.96533 0.66997 0.40636 0.0
H2767 H 0.95922 0.71226 0.37795 0.0
H2768 H 0.89895 0.67514 0.40082 0.0
H2769 H 0.92553 0.6831 0.38148 0.0
H2770 H 0.95927 0.68907 0.43213 0.0
H2771 H 0.9328 0.68113 0.4514 0.0
C2772 C 0.98425 0.68377 0.38483 0.0
C2773 C 0.99007 0.69725 0.37112 0.0
C2774 C 0.96962 0.68061 0.39605 0.0
C2775 C 0.9603 0.69067 0.39365 0.0
C2776 C 0.96612 0.70423 0.37998 0.0
C2777 C 0.98102 0.70763 0.36892 0.0
C2778 C 0.91206 0.67813 0.40776 0.0
C2779 C 0.91384 0.6775 0.42758 0.0
C2780 C 0.92728 0.68286 0.39675 0.0
C2781 C 0.94444 0.68673 0.40533 0.0
C2782 C 0.94618 0.68608 0.42515 0.0
C2783 C 0.93108 0.68163 0.43616 0.0
H2784 H 0.35944 0.00843 0.73832 0.0
H2785 H 0.40418 0.04593 0.7043 0.0
H2786 H 0.38214 0.00787 0.76048 0.0
H2787 H 0.42696 0.04517 0.72649 0.0
H2788 H 0.45318 0.0127 0.75519 0.0
H2789 H 0.43235 0.01781 0.73455 0.0
H2790 H 0.41027 0.03056 0.78422 0.0
H2791 H 0.43126 0.02552 0.80493 0.0
C2792 C 0.37416 0.01668 0.73566 0.0
C2793 C 0.38004 0.02716 0.71953 0.0
C2794 C 0.38715 0.01644 0.74842 0.0
C2795 C 0.40629 0.02643 0.74517 0.0
C2796 C 0.41226 0.03724 0.72925 0.0
C2797 C 0.39926 0.03775 0.71662 0.0
C2798 C 0.44385 0.01659 0.76167 0.0
C2799 C 0.44364 0.01853 0.78162 0.0
C2800 C 0.4321 0.01971 0.74988 0.0
C2801 C 0.41972 0.0246 0.7578 0.0
C2802 C 0.41963 0.02673 0.77777 0.0
C2803 C 0.43163 0.0239 0.78959 0.0
H2804 H 0.01574 0.3499 0.76689 0.0
H2805 H 0.95657 0.32869 0.75845 0.0
H2806 H 0.02042 0.37873 0.78572 0.0
H2807 H 0.961 0.35675 0.77771 0.0
H2808 H 0.97827 0.41936 0.78601 0.0
H2809 H 0.9748 0.38978 0.77116 0.0
H2810 H 0.01417 0.39263 0.81453 0.0
H2811 H 0.01793 0.42277 0.82925 0.0
C2812 C 0.00371 0.3512 0.76945 0.0
C2813 C 0.98586 0.33729 0.76098 0.0
C2814 C 0.00636 0.36764 0.78024 0.0
C2815 C 0.99114 0.37022 0.78283 0.0
C2816 C 0.97312 0.35551 0.77548 0.0
C2817 C 0.97055 0.33935 0.76453 0.0
C2818 C 0.98608 0.4136 0.79246 0.0
C2819 C 0.99818 0.42318 0.80889 0.0
C2820 C 0.98406 0.3966 0.78401 0.0
C2821 C 0.99395 0.38864 0.79187 0.0
C2822 C 0.00639 0.39843 0.80813 0.0
C2823 C 0.00852 0.41562 0.81655 0.0
H2824 H 0.66653 0.65945 0.73243 0.0
H2825 H 0.65992 0.60616 0.7073 0.0
H2826 H 0.63929 0.64127 0.75032 0.0
H2827 H 0.6329 0.58777 0.72591 0.0
H2828 H 0.57264 0.56201 0.74414 0.0
H2829 H 0.60103 0.57933 0.72715 0.0
H2830 H 0.62778 0.62181 0.77585 0.0
H2831 H 0.5992 0.60482 0.79242 0.0
C2832 C 0.65942 0.64381 0.73097 0.0
C2833 C 0.66531 0.63422 0.71841 0.0
C2834 C 0.64382 0.63335 0.74134 0.0
C2835 C 0.63383 0.61301 0.73959 0.0
C2836 C 0.64007 0.60341 0.72737 0.0
C2837 C 0.65563 0.61392 0.71683 0.0
C2838 C 0.58463 0.57507 0.75113 0.0
C2839 C 0.58369 0.58224 0.76946 0.0
C2840 C 0.60095 0.58492 0.74149 0.0
C2841 C 0.61673 0.60202 0.75009 0.0
C2842 C 0.6158 0.60893 0.76861 0.0
C2843 C 0.59944 0.59922 0.77813 0.0
H2844 H 0.7239 0.72328 0.66963 0.0
H2845 H 0.66865 0.67548 0.64981 0.0
H2846 H 0.71633 0.7457 0.65578 0.0
H2847 H 0.66122 0.69769 0.63619 0.0
H2848 H 0.64641 0.74404 0.63454 0.0
H2849 H 0.6561 0.72397 0.64954 0.0
H2850 H 0.70846 0.75272 0.6228 0.0
H2851 H 0.69866 0.7725 0.60736 0.0
C2852 C 0.71025 0.71756 0.66223 0.0
C2853 C 0.69687 0.69763 0.66086 0.0
C2854 C 0.70593 0.73036 0.65432 0.0
C2855 C 0.6881 0.72343 0.64515 0.0
C2856 C 0.67494 0.70348 0.64349 0.0
C2857 C 0.67929 0.69075 0.65118 0.0
C2858 C 0.65996 0.74606 0.63178 0.0
C2859 C 0.67168 0.75981 0.61963 0.0
C2860 C 0.66553 0.73461 0.64043 0.0
C2861 C 0.68299 0.73674 0.63723 0.0
C2862 C 0.69501 0.75091 0.62564 0.0
C2863 C 0.68938 0.76226 0.61685 0.0
H2864 H 0.28961 0.9798 0.65601 0.0
H2865 H 0.33574 0.9718 0.64449 0.0
H2866 H 0.26836 0.95042 0.6359 0.0
H2867 H 0.31415 0.94195 0.62421 0.0
H2868 H 0.26 0.87727 0.61683 0.0
H2869 H 0.2861 0.9087 0.63057 0.0
H2870 H 0.26226 0.93731 0.6016 0.0
H2871 H 0.2363 0.90603 0.58784 0.0
C2872 C 0.29526 0.97184 0.64902 0.0
C2873 C 0.31434 0.97808 0.65184 0.0
C2874 C 0.28308 0.95506 0.63738 0.0
C2875 C 0.28962 0.94396 0.6284 0.0
C2876 C 0.30877 0.95025 0.631 0.0
C2877 C 0.32108 0.96732 0.64251 0.0
C2878 C 0.26061 0.89031 0.61305 0.0
C2879 C 0.24595 0.88922 0.60158 0.0
C2880 C 0.27555 0.90828 0.62087 0.0
C2881 C 0.27603 0.92538 0.61735 0.0
C2882 C 0.26205 0.92431 0.60482 0.0
C2883 C 0.24718 0.90643 0.59701 0.0
H2884 H 0.01989 0.33072 0.68746 0.0
H2885 H 0.01263 0.27576 0.69941 0.0
H2886 H 0.04631 0.3374 0.66905 0.0
H2887 H 0.03883 0.28213 0.68024 0.0
H2888 H 0.09929 0.30993 0.66203 0.0
H2889 H 0.07224 0.30206 0.68033 0.0
H2890 H 0.05422 0.32839 0.64002 0.0
H2891 H 0.0815 0.33668 0.62217 0.0
C2892 C 0.0238 0.31992 0.68595 0.0
C2893 C 0.01414 0.30269 0.69488 0.0
C2894 C 0.03893 0.32372 0.67527 0.0
C2895 C 0.04472 0.31029 0.67304 0.0
C2896 C 0.03493 0.29292 0.68185 0.0
C2897 C 0.01982 0.28919 0.69272 0.0
C2898 C 0.08949 0.31399 0.65712 0.0
C2899 C 0.09258 0.32407 0.64079 0.0
C2900 C 0.07393 0.30938 0.66753 0.0
C2901 C 0.06102 0.31462 0.66172 0.0
C2902 C 0.06404 0.32447 0.64518 0.0
C2903 C 0.07967 0.32923 0.63492 0.0
H2904 H 0.31736 0.33021 0.66007 0.0
H2905 H 0.27173 0.2922 0.69291 0.0
H2906 H 0.2955 0.33317 0.63889 0.0
H2907 H 0.24979 0.29542 0.67174 0.0
H2908 H 0.22712 0.33302 0.64714 0.0
H2909 H 0.24669 0.32498 0.66624 0.0
H2910 H 0.26682 0.31266 0.61477 0.0
H2911 H 0.24706 0.32058 0.59561 0.0
C2912 C 0.3026 0.32231 0.66263 0.0
C2913 C 0.29624 0.31103 0.67818 0.0
C2914 C 0.29009 0.32395 0.65044 0.0
C2915 C 0.27098 0.31459 0.65372 0.0
C2916 C 0.26449 0.30287 0.66897 0.0
C2917 C 0.277 0.30094 0.681 0.0
C2918 C 0.23575 0.3286 0.63994 0.0
C2919 C 0.23576 0.3276 0.61994 0.0
C2920 C 0.24676 0.3238 0.65084 0.0
C2921 C 0.25821 0.31815 0.64197 0.0
C2922 C 0.25813 0.31701 0.62195 0.0
C2923 C 0.24685 0.32151 0.61101 0.0
H2924 H 0.64923 0.98418 0.63064 0.0
H2925 H 0.70604 0.99722 0.64053 0.0
H2926 H 0.64051 0.95302 0.61359 0.0
H2927 H 0.6976 0.96671 0.62316 0.0
H2928 H 0.67238 0.90256 0.61814 0.0
H2929 H 0.67902 0.93388 0.63179 0.0
H2930 H 0.64499 0.9358 0.58548 0.0
H2931 H 0.63807 0.90395 0.57188 0.0
C2932 C 0.65991 0.98057 0.6288 0.0
C2933 C 0.67822 0.99292 0.63715 0.0
C2934 C 0.65494 0.96278 0.61905 0.0
C2935 C 0.66827 0.95724 0.61743 0.0
C2936 C 0.68686 0.9703 0.62466 0.0
C2937 C 0.69174 0.98785 0.63452 0.0
C2938 C 0.66633 0.90967 0.61086 0.0
C2939 C 0.65496 0.90102 0.59383 0.0
C2940 C 0.67018 0.92765 0.61862 0.0
C2941 C 0.66288 0.93752 0.60948 0.0
C2942 C 0.65085 0.92854 0.59281 0.0
C2943 C 0.64689 0.91037 0.58504 0.0
H2944 H 0.99803 0.67313 0.66202 0.0
H2945 H 0.0133 0.72372 0.70007 0.0
H2946 H 0.02599 0.69199 0.64505 0.0
H2947 H 0.04168 0.7425 0.68353 0.0
H2948 H 0.0811 0.77451 0.63749 0.0
H2949 H 0.05293 0.75636 0.65434 0.0
H2950 H 0.05918 0.70666 0.64936 0.0
H2951 H 0.08671 0.72444 0.63151 0.0
C2952 C 0.00739 0.6883 0.66676 0.0
C2953 C 0.00351 0.69695 0.68238 0.0
C2954 C 0.02352 0.69908 0.65715 0.0
C2955 C 0.03623 0.71873 0.66304 0.0
C2956 C 0.03213 0.72745 0.67848 0.0
C2957 C 0.01589 0.71669 0.68801 0.0
C2958 C 0.07639 0.75966 0.63986 0.0
C2959 C 0.0861 0.7509 0.63299 0.0
C2960 C 0.06034 0.74931 0.64974 0.0
C2961 C 0.05368 0.72999 0.65312 0.0
C2962 C 0.0637 0.7214 0.64671 0.0
C2963 C 0.07968 0.73171 0.63672 0.0
H2964 H 0.94255 0.6052 0.7188 0.0
H2965 H 0.98492 0.65103 0.75855 0.0
H2966 H 0.94737 0.58171 0.73424 0.0
H2967 H 0.98927 0.62772 0.77431 0.0
H2968 H 0.00956 0.58766 0.78467 0.0
H2969 H 0.00304 0.60893 0.76779 0.0
H2970 H 0.94389 0.56545 0.76284 0.0
H2971 H 0.95058 0.54357 0.77874 0.0
C2972 C 0.95266 0.61018 0.73101 0.0
C2973 C 0.9635 0.62994 0.73736 0.0
C2974 C 0.95541 0.59675 0.73987 0.0
C2975 C 0.96895 0.60287 0.75533 0.0
C2976 C 0.97913 0.62255 0.76211 0.0
C2977 C 0.97652 0.63592 0.75317 0.0
C2978 C 0.99519 0.58241 0.77965 0.0
C2979 C 0.9806 0.56387 0.78313 0.0
C2980 C 0.9914 0.59477 0.77022 0.0
C2981 C 0.97289 0.58905 0.76422 0.0
C2982 C 0.95831 0.57032 0.76723 0.0
C2983 C 0.96214 0.55786 0.77655 0.0
H2984 H 0.38199 0.35299 0.75049 0.0
H2985 H 0.33733 0.365 0.7498 0.0
H2986 H 0.40178 0.38254 0.77147 0.0
H2987 H 0.3575 0.39506 0.77041 0.0
H2988 H 0.41732 0.4576 0.77647 0.0
H2989 H 0.39172 0.42656 0.76179 0.0
H2990 H 0.39993 0.39758 0.80701 0.0
H2991 H 0.42484 0.42867 0.82246 0.0
C2992 C 0.37637 0.36188 0.75497 0.0
C2993 C 0.3582 0.3568 0.74852 0.0
C2994 C 0.38764 0.37869 0.76703 0.0
C2995 C 0.38108 0.39095 0.7725 0.0
C2996 C 0.36278 0.38574 0.76637 0.0
C2997 C 0.35129 0.3686 0.75467 0.0
C2998 C 0.41331 0.44476 0.78371 0.0
C2999 C 0.42339 0.44569 0.80056 0.0
C3000 C 0.39868 0.42698 0.77523 0.0
C3001 C 0.39404 0.4098 0.78327 0.0
C3002 C 0.40341 0.4107 0.80053 0.0
C3003 C 0.41778 0.42849 0.80922 0.0
H3004 H 0.6631 0.06486 0.69826 0.0
H3005 H 0.64814 0.00694 0.70927 0.0
H3006 H 0.63871 0.06236 0.71856 0.0
H3007 H 0.62391 0.00448 0.72925 0.0
H3008 H 0.5687 0.99875 0.74424 0.0
H3009 H 0.59311 0.00325 0.72341 0.0
H3010 H 0.63163 0.05859 0.75426 0.0
H3011 H 0.60739 0.0539 0.77562 0.0
C3012 C 0.65464 0.05165 0.705 0.0
C3013 C 0.65751 0.0361 0.70215 0.0
C3014 C 0.64076 0.05025 0.71664 0.0
C3015 C 0.62935 0.03317 0.72534 0.0
C3016 C 0.63233 0.01771 0.72253 0.0
C3017 C 0.6463 0.0192 0.71116 0.0
C3018 C 0.5824 0.01182 0.74675 0.0
C3019 C 0.5861 0.02584 0.76181 0.0
C3020 C 0.59634 0.01442 0.73474 0.0
C3021 C 0.61428 0.03121 0.73731 0.0
C3022 C 0.61787 0.04557 0.75188 0.0
C3023 C 0.60395 0.04288 0.76407 0.0
loop_
_geom_bond_atom_site_label_1
_geom_bond_atom_site_label_2
_geom_bond_distance
_geom_bond_site_symmetry_2
_ccdc_geom_bond_type
Co0 O1 2.216 . S
Co0 O2 2.091 . S
Co0 O4 2.004 . S
Co0 O10 2.021 . S
Co0 O12 2.137 1_455 S
Co0 O13 2.244 1_455 S
O1 Co0 2.216 . S
O1 C8 1.247 . S
O2 Co0 2.091 . S
O2 C8 1.261 . S
C3 O12 1.247 . S
C3 O13 1.272 . S
O4 Co0 2.004 . S
O4 C9 1.259 1_554 S
Co5 O6 2.088 . S
Co5 O11 2.052 . S
Co5 O13 2.135 . S
O6 Co5 2.088 . S
O6 C9 1.221 1_654 S
C7 O10 1.238 1_655 S
C7 O11 1.241 . S
C8 O1 1.247 . S
C8 O2 1.261 . S
C9 O4 1.259 1_556 S
C9 O6 1.221 1_456 S
O10 Co0 2.021 . S
O10 C7 1.238 1_455 S
O11 Co5 2.052 . S
O11 C7 1.241 . S
O12 Co0 2.137 1_655 S
O12 C3 1.247 . S
O13 Co0 2.244 1_655 S
O13 C3 1.272 . S
O13 Co5 2.135 . S
Co14 O15 2.216 . S
Co14 O16 2.091 . S
Co14 O18 2.004 . S
Co14 O24 2.021 . S
Co14 O26 2.137 . S
Co14 O27 2.244 . S
O15 Co14 2.216 . S
O15 C22 1.247 . S
O16 Co14 2.091 . S
O16 C22 1.261 . S
C17 O26 1.247 . S
C17 O27 1.272 . S
O18 Co14 2.004 . S
O18 C23 1.259 . S
Co19 O20 2.061 . S
Co19 O25 2.052 . S
Co19 O27 2.135 . S
O20 Co19 2.061 . S
O20 C23 1.235 . S
C21 O24 1.238 . S
C21 O25 1.241 . S
C22 O15 1.247 . S
C22 O16 1.261 . S
C23 O18 1.259 . S
C23 O20 1.235 . S
O24 Co14 2.021 . S
O24 C21 1.238 . S
O25 Co19 2.052 . S
O25 C21 1.241 . S
O26 Co14 2.137 . S
O26 C17 1.247 . S
O27 Co14 2.244 . S
O27 C17 1.272 . S
O27 Co19 2.135 . S
Co28 O29 2.216 . S
Co28 O30 2.091 . S
Co28 O32 2.004 . S
Co28 O38 2.021 . S
Co28 O40 2.138 1_545 S
Co28 O41 2.244 1_545 S
O29 Co28 2.216 . S
O29 C36 1.247 . S
O30 Co28 2.091 . S
O30 C36 1.261 . S
C31 O40 1.258 . S
C31 O41 1.272 . S
O32 Co28 2.004 . S
O32 C37 1.259 . S
Co33 O34 2.061 . S
Co33 O39 2.052 . S
Co33 O41 2.135 . S
O34 Co33 2.061 . S
O34 C37 1.235 1_565 S
C35 O38 1.235 1_566 S
C35 O39 1.238 1_556 S
C36 O29 1.247 . S
C36 O30 1.261 . S
C37 O32 1.259 . S
C37 O34 1.235 1_545 S
O38 Co28 2.021 . S
O38 C35 1.235 1_544 S
O39 Co33 2.052 . S
O39 C35 1.238 1_554 S
O40 Co28 2.138 1_565 S
O40 C31 1.258 . S
O41 Co28 2.244 1_565 S
O41 C31 1.272 . S
O41 Co33 2.135 . S
Co42 O43 2.216 . S
Co42 O44 2.091 . S
Co42 O46 2.004 . S
Co42 O52 2.021 . S
Co42 O54 2.137 1_655 S
Co42 O55 2.244 1_655 S
O43 Co42 2.216 . S
O43 C50 1.247 . S
O44 Co42 2.091 . S
O44 C50 1.261 . S
C45 O54 1.247 . S
C45 O55 1.272 . S
O46 Co42 2.004 . S
O46 C51 1.310 . S
Co47 O48 2.061 . S
Co47 O53 2.052 . S
Co47 O55 2.135 . S
O48 Co47 2.061 . S
O48 C51 1.182 1_455 S
C49 O52 1.238 1_455 S
C49 O53 1.241 . S
C50 O43 1.247 . S
C50 O44 1.261 . S
C51 O46 1.310 . S
C51 O48 1.182 1_655 S
O52 Co42 2.021 . S
O52 C49 1.238 1_655 S
O53 Co47 2.052 . S
O53 C49 1.241 . S
O54 Co42 2.137 1_455 S
O54 C45 1.247 . S
O55 Co42 2.244 1_455 S
O55 C45 1.272 . S
O55 Co47 2.135 . S
Co56 O57 2.216 . S
Co56 O58 2.091 . S
Co56 O60 2.004 1_554 S
Co56 O66 2.021 . S
Co56 O68 2.137 1_554 S
Co56 O69 2.244 1_554 S
O57 Co56 2.216 . S
O57 C64 1.247 . S
O58 Co56 2.091 . S
O58 C64 1.261 . S
C59 O68 1.247 . S
C59 O69 1.272 . S
O60 Co56 2.004 1_556 S
O60 C65 1.259 . S
Co61 O62 2.061 . S
Co61 O67 2.052 1_556 S
Co61 O69 2.135 . S
O62 Co61 2.061 . S
O62 C65 1.235 . S
C63 O66 1.238 . S
C63 O67 1.241 . S
C64 O57 1.247 . S
C64 O58 1.261 . S
C65 O60 1.259 . S
C65 O62 1.235 . S
O66 Co56 2.021 . S
O66 C63 1.238 . S
O67 Co61 2.052 1_554 S
O67 C63 1.241 . S
O68 Co56 2.137 1_556 S
O68 C59 1.247 . S
O69 Co56 2.244 1_556 S
O69 C59 1.272 . S
O69 Co61 2.135 . S
Co70 O71 2.216 . S
Co70 O72 2.091 . S
Co70 O74 2.004 . S
Co70 O80 2.021 . S
Co70 O82 2.137 1_565 S
Co70 O83 2.244 1_565 S
O71 Co70 2.216 . S
O71 C78 1.247 . S
O72 Co70 2.091 . S
O72 C78 1.261 . S
C73 O82 1.247 . S
C73 O83 1.272 . S
O74 Co70 2.004 . S
O74 C79 1.259 . S
Co75 O76 2.061 . S
Co75 O81 2.052 . S
Co75 O83 2.135 . S
O76 Co75 2.061 . S
O76 C79 1.235 1_545 S
C77 O80 1.238 1_545 S
C77 O81 1.241 . S
C78 O71 1.247 . S
C78 O72 1.261 . S
C79 O74 1.259 . S
C79 O76 1.235 1_565 S
O80 Co70 2.021 . S
O80 C77 1.238 1_565 S
O81 Co75 2.052 . S
O81 C77 1.241 . S
O82 Co70 2.137 1_545 S
O82 C73 1.247 . S
O83 Co70 2.244 1_545 S
O83 C73 1.272 . S
O83 Co75 2.135 . S
Co84 O85 2.216 . S
Co84 O86 2.091 . S
Co84 O88 2.004 . S
Co84 O94 2.021 . S
Co84 O96 2.137 . S
Co84 O97 2.244 . S
O85 Co84 2.216 . S
O85 C92 1.247 . S
O86 Co84 2.091 . S
O86 C92 1.261 . S
C87 O96 1.247 . S
C87 O97 1.272 . S
O88 Co84 2.004 . S
O88 C93 1.259 . S
Co89 O90 2.061 . S
Co89 O95 2.052 . S
Co89 O97 2.135 . S
O90 Co89 2.061 . S
O90 C93 1.235 . S
C91 O94 1.238 . S
C91 O95 1.241 . S
C92 O85 1.247 . S
C92 O86 1.261 . S
C93 O88 1.259 . S
C93 O90 1.235 . S
O94 Co84 2.021 . S
O94 C91 1.238 . S
O95 Co89 2.052 . S
O95 C91 1.241 . S
O96 Co84 2.137 . S
O96 C87 1.247 . S
O97 Co84 2.244 . S
O97 C87 1.272 . S
O97 Co89 2.135 . S
Co98 O99 2.216 . S
Co98 O100 2.091 . S
Co98 O102 2.004 . S
Co98 O108 2.021 . S
Co98 O110 2.137 . S
Co98 O111 2.244 . S
O99 Co98 2.216 . S
O99 C106 1.247 . S
O100 Co98 2.091 . S
O100 C106 1.261 . S
C101 O110 1.247 . S
C101 O111 1.272 . S
O102 Co98 2.004 . S
O102 C107 1.259 . S
Co103 O104 2.061 . S
Co103 O109 2.052 . S
Co103 O111 2.135 . S
O104 Co103 2.061 . S
O104 C107 1.235 . S
C105 O108 1.238 . S
C105 O109 1.241 . S
C106 O99 1.247 . S
C106 O100 1.261 . S
C107 O102 1.259 . S
C107 O104 1.235 . S
O108 Co98 2.021 . S
O108 C105 1.238 . S
O109 Co103 2.052 . S
O109 C105 1.241 . S
O110 Co98 2.137 . S
O110 C101 1.247 . S
O111 Co98 2.244 . S
O111 C101 1.272 . S
O111 Co103 2.135 . S
Co112 O113 2.216 . S
Co112 O114 2.091 . S
Co112 O116 2.004 . S
Co112 O122 2.021 . S
Co112 O124 2.137 . S
Co112 O125 2.244 . S
O113 Co112 2.216 . S
O113 C120 1.247 . S
O114 Co112 2.091 . S
O114 C120 1.261 . S
C115 O124 1.247 . S
C115 O125 1.272 . S
O116 Co112 2.004 . S
O116 C121 1.259 . S
Co117 O118 2.061 . S
Co117 O123 2.052 . S
Co117 O125 2.135 . S
O118 Co117 2.061 . S
O118 C121 1.235 . S
C119 O122 1.238 . S
C119 O123 1.241 . S
C120 O113 1.247 . S
C120 O114 1.261 . S
C121 O116 1.259 . S
C121 O118 1.235 . S
O122 Co112 2.021 . S
O122 C119 1.238 . S
O123 Co117 2.052 . S
O123 C119 1.241 . S
O124 Co112 2.137 . S
O124 C115 1.247 . S
O125 Co112 2.244 . S
O125 C115 1.272 . S
O125 Co117 2.135 . S
Co126 O127 2.216 . S
Co126 O128 2.091 . S
Co126 O130 2.004 . S
Co126 O136 2.021 . S
Co126 O138 2.137 . S
Co126 O139 2.244 . S
O127 Co126 2.216 . S
O127 C134 1.247 . S
O128 Co126 2.091 . S
O128 C134 1.261 . S
C129 O138 1.247 . S
C129 O139 1.272 . S
O130 Co126 2.004 . S
O130 C135 1.259 . S
Co131 O132 2.061 . S
Co131 O137 2.052 . S
Co131 O139 2.135 . S
O132 Co131 2.061 . S
O132 C135 1.235 . S
C133 O136 1.238 . S
C133 O137 1.241 . S
C134 O127 1.247 . S
C134 O128 1.261 . S
C135 O130 1.259 . S
C135 O132 1.235 . S
O136 Co126 2.021 . S
O136 C133 1.238 . S
O137 Co131 2.052 . S
O137 C133 1.241 . S
O138 Co126 2.137 . S
O138 C129 1.247 . S
O139 Co126 2.244 . S
O139 C129 1.272 . S
O139 Co131 2.135 . S
Co140 O141 2.216 . S
Co140 O142 2.091 . S
Co140 O144 2.004 . S
Co140 O150 2.021 . S
Co140 O152 2.137 . S
Co140 O153 2.244 . S
O141 Co140 2.216 . S
O141 C148 1.247 . S
O142 Co140 2.091 . S
O142 C148 1.261 . S
C143 O152 1.247 . S
C143 O153 1.272 . S
O144 Co140 2.004 . S
O144 C149 1.259 . S
Co145 O146 2.061 . S
Co145 O151 2.052 . S
Co145 O153 2.135 . S
O146 Co145 2.061 . S
O146 C149 1.235 . S
C147 O150 1.238 . S
C147 O151 1.241 . S
C148 O141 1.247 . S
C148 O142 1.261 . S
C149 O144 1.259 . S
C149 O146 1.235 . S
O150 Co140 2.021 . S
O150 C147 1.238 . S
O151 Co145 2.052 . S
O151 C147 1.241 . S
O152 Co140 2.137 . S
O152 C143 1.247 . S
O153 Co140 2.244 . S
O153 C143 1.272 . S
O153 Co145 2.135 . S
Co154 O155 2.216 . S
Co154 O156 2.091 . S
Co154 O158 2.004 . S
Co154 O164 2.021 . S
Co154 O166 2.137 . S
Co154 O167 2.244 . S
O155 Co154 2.216 . S
O155 C162 1.247 . S
O156 Co154 2.091 . S
O156 C162 1.261 . S
C157 O166 1.247 . S
C157 O167 1.272 . S
O158 Co154 2.004 . S
O158 C163 1.259 . S
Co159 O160 2.061 . S
Co159 O165 2.052 . S
Co159 O167 2.135 . S
O160 Co159 2.061 . S
O160 C163 1.235 . S
C161 O164 1.238 . S
C161 O165 1.241 . S
C162 O155 1.247 . S
C162 O156 1.261 . S
C163 O158 1.259 . S
C163 O160 1.235 . S
O164 Co154 2.021 . S
O164 C161 1.238 . S
O165 Co159 2.052 . S
O165 C161 1.241 . S
O166 Co154 2.137 . S
O166 C157 1.247 . S
O167 Co154 2.244 . S
O167 C157 1.272 . S
O167 Co159 2.135 . S
Co168 O169 2.216 . S
Co168 O170 2.091 . S
Co168 O172 2.004 . S
Co168 O178 2.021 . S
Co168 O180 2.137 . S
Co168 O181 2.244 . S
O169 Co168 2.216 . S
O169 C176 1.247 . S
O170 Co168 2.091 . S
O170 C176 1.261 . S
C171 O180 1.247 . S
C171 O181 1.272 . S
O172 Co168 2.004 . S
O172 C177 1.259 . S
Co173 O174 2.061 . S
Co173 O179 2.052 . S
Co173 O181 2.135 . S
O174 Co173 2.061 . S
O174 C177 1.235 . S
C175 O178 1.238 . S
C175 O179 1.241 . S
C176 O169 1.247 . S
C176 O170 1.261 . S
C177 O172 1.259 . S
C177 O174 1.235 . S
O178 Co168 2.021 . S
O178 C175 1.238 . S
O179 Co173 2.052 . S
O179 C175 1.241 . S
O180 Co168 2.137 . S
O180 C171 1.247 . S
O181 Co168 2.244 . S
O181 C171 1.272 . S
O181 Co173 2.135 . S
Co182 O183 2.216 . S
Co182 O184 2.091 . S
Co182 O186 2.004 . S
Co182 O192 2.021 . S
Co182 O194 2.137 . S
Co182 O195 2.244 . S
O183 Co182 2.216 . S
O183 C190 1.239 . S
O184 Co182 2.091 . S
O184 C190 1.262 . S
C185 O194 1.247 . S
C185 O195 1.272 . S
O186 Co182 2.004 . S
O186 C191 1.259 . S
Co187 O188 2.061 . S
Co187 O193 2.052 . S
Co187 O195 2.135 . S
O188 Co187 2.061 . S
O188 C191 1.235 . S
C189 O192 1.238 . S
C189 O193 1.241 . S
C190 O183 1.239 . S
C190 O184 1.262 . S
C191 O186 1.259 . S
C191 O188 1.235 . S
O192 Co182 2.021 . S
O192 C189 1.238 . S
O193 Co187 2.052 . S
O193 C189 1.241 . S
O194 Co182 2.137 . S
O194 C185 1.247 . S
O195 Co182 2.244 . S
O195 C185 1.272 . S
O195 Co187 2.135 . S
Co196 O197 2.216 . S
Co196 O198 2.091 . S
Co196 O200 2.004 . S
Co196 O206 2.021 . S
Co196 O208 2.137 . S
Co196 O209 2.244 . S
O197 Co196 2.216 . S
O197 C204 1.247 . S
O198 Co196 2.091 . S
O198 C204 1.261 . S
C199 O208 1.247 . S
C199 O209 1.272 . S
O200 Co196 2.004 . S
O200 C205 1.259 . S
Co201 O202 2.061 . S
Co201 O207 2.052 . S
Co201 O209 2.135 . S
O202 Co201 2.061 . S
O202 C205 1.235 . S
C203 O206 1.238 . S
C203 O207 1.241 . S
C204 O197 1.247 . S
C204 O198 1.261 . S
C205 O200 1.259 . S
C205 O202 1.235 . S
O206 Co196 2.021 . S
O206 C203 1.238 . S
O207 Co201 2.052 . S
O207 C203 1.241 . S
O208 Co196 2.137 . S
O208 C199 1.247 . S
O209 Co196 2.244 . S
O209 C199 1.272 . S
O209 Co201 2.135 . S
Co210 O211 2.216 . S
Co210 O212 2.091 . S
Co210 O214 2.004 . S
Co210 O220 2.021 . S
Co210 O222 2.137 . S
Co210 O223 2.244 . S
O211 Co210 2.216 . S
O211 C218 1.247 . S
O212 Co210 2.091 . S
O212 C218 1.261 . S
C213 O222 1.247 . S
C213 O223 1.272 . S
O214 Co210 2.004 . S
O214 C219 1.259 . S
Co215 O216 2.061 . S
Co215 O221 2.052 . S
Co215 O223 2.135 . S
O216 Co215 2.061 . S
O216 C219 1.235 . S
C217 O220 1.238 . S
C217 O221 1.241 . S
C218 O211 1.247 . S
C218 O212 1.261 . S
C219 O214 1.259 . S
C219 O216 1.235 . S
O220 Co210 2.021 . S
O220 C217 1.238 . S
O221 Co215 2.052 . S
O221 C217 1.241 . S
O222 Co210 2.137 . S
O222 C213 1.247 . S
O223 Co210 2.244 . S
O223 C213 1.272 . S
O223 Co215 2.135 . S
Co224 O225 2.216 . S
Co224 O226 2.091 . S
Co224 O228 2.004 . S
Co224 O234 2.021 . S
Co224 O236 2.137 . S
Co224 O237 2.244 . S
O225 Co224 2.216 . S
O225 C232 1.247 . S
O226 Co224 2.091 . S
O226 C232 1.261 . S
C227 O236 1.247 . S
C227 O237 1.272 . S
O228 Co224 2.004 . S
O228 C233 1.259 . S
Co229 O230 2.061 . S
Co229 O235 2.052 . S
Co229 O237 2.135 . S
O230 Co229 2.061 . S
O230 C233 1.235 . S
C231 O234 1.238 . S
C231 O235 1.241 . S
C232 O225 1.247 . S
C232 O226 1.261 . S
C233 O228 1.259 . S
C233 O230 1.235 . S
O234 Co224 2.021 . S
O234 C231 1.238 . S
O235 Co229 2.052 . S
O235 C231 1.241 . S
O236 Co224 2.137 . S
O236 C227 1.247 . S
O237 Co224 2.244 . S
O237 C227 1.272 . S
O237 Co229 2.135 . S
Co238 O239 2.216 . S
Co238 O240 2.091 . S
Co238 O242 2.004 . S
Co238 O248 2.021 . S
Co238 O250 2.137 . S
Co238 O251 2.244 . S
O239 Co238 2.216 . S
O239 C246 1.247 . S
O240 Co238 2.091 . S
O240 C246 1.261 . S
C241 O250 1.247 . S
C241 O251 1.272 . S
O242 Co238 2.004 . S
O242 C247 1.259 . S
Co243 O244 2.061 . S
Co243 O249 2.052 . S
Co243 O251 2.135 . S
O244 Co243 2.061 . S
O244 C247 1.235 . S
C245 O248 1.238 . S
C245 O249 1.241 . S
C246 O239 1.247 . S
C246 O240 1.261 . S
C247 O242 1.259 . S
C247 O244 1.235 . S
O248 Co238 2.021 . S
O248 C245 1.238 . S
O249 Co243 2.052 . S
O249 C245 1.241 . S
O250 Co238 2.137 . S
O250 C241 1.247 . S
O251 Co238 2.244 . S
O251 C241 1.272 . S
O251 Co243 2.135 . S
H252 O278 0.856 . S
H253 O281 0.854 . S
H254 C289 0.930 . S
H255 C290 0.930 . S
H256 C292 0.930 . S
H257 C293 0.930 . S
H258 C295 0.931 . S
H259 C296 0.930 . S
H260 C298 0.930 . S
H261 C299 0.929 . S
H262 C301 0.930 . S
H263 C302 0.931 . S
H264 C304 0.930 . S
H265 C305 0.929 . S
H266 C307 0.931 . S
H267 C308 0.930 . S
H268 C310 0.930 . S
H269 C311 0.932 . S
H270 C313 0.930 . S
H271 C314 0.929 . S
H272 C316 0.931 . S
H273 C317 0.930 . S
H274 C319 0.929 . S
H275 C320 0.931 . S
H276 C322 0.930 . S
H277 C323 0.929 . S
O278 H252 0.856 . S
O278 C324 1.300 . S
O279 C324 1.209 . S
O280 C325 1.199 . S
O281 H253 0.854 . S
O281 C325 1.297 . S
C282 C283 1.404 . S
C282 C287 1.397 . S
C282 C288 1.492 . S
C283 C282 1.404 . S
C283 C284 1.396 . S
C283 C294 1.492 . S
C284 C283 1.396 . S
C284 C285 1.397 . S
C284 C300 1.509 . S
C285 C284 1.397 . S
C285 C286 1.412 . S
C285 C306 1.485 . S
C286 C285 1.412 . S
C286 C287 1.388 . S
C286 C312 1.490 . S
C287 C282 1.397 . S
C287 C286 1.388 . S
C287 C318 1.519 . S
C288 C282 1.492 . S
C288 C289 1.363 . S
C288 C293 1.390 . S
C289 H254 0.930 . S
C289 C288 1.363 . S
C289 C290 1.372 . S
C290 H255 0.930 . S
C290 C289 1.372 . S
C290 C291 1.383 . S
C291 C290 1.383 . S
C291 C292 1.395 . S
C292 H256 0.930 . S
C292 C291 1.395 . S
C292 C293 1.362 . S
C293 H257 0.930 . S
C293 C288 1.390 . S
C293 C292 1.362 . S
C294 C283 1.492 . S
C294 C295 1.377 . S
C294 C299 1.397 . S
C295 H258 0.931 . S
C295 C294 1.377 . S
C295 C296 1.376 . S
C296 H259 0.930 . S
C296 C295 1.376 . S
C296 C297 1.376 . S
C297 C296 1.376 . S
C297 C298 1.378 . S
C297 C324 1.486 . S
C298 H260 0.930 . S
C298 C297 1.378 . S
C298 C299 1.376 . S
C299 H261 0.929 . S
C299 C294 1.397 . S
C299 C298 1.376 . S
C300 C284 1.509 . S
C300 C301 1.391 . S
C300 C305 1.386 . S
C301 H262 0.930 . S
C301 C300 1.391 . S
C301 C302 1.375 . S
C302 H263 0.931 . S
C302 C301 1.375 . S
C302 C303 1.375 . S
C303 C302 1.375 . S
C303 C304 1.361 . S
C304 H264 0.930 . S
C304 C303 1.361 . S
C304 C305 1.399 . S
C305 H265 0.929 . S
C305 C300 1.386 . S
C305 C304 1.399 . S
C306 C285 1.485 . S
C306 C307 1.394 . S
C306 C311 1.360 . S
C307 H266 0.931 . S
C307 C306 1.394 . S
C307 C308 1.372 . S
C308 H267 0.930 . S
C308 C307 1.372 . S
C308 C309 1.397 . S
C309 C308 1.397 . S
C309 C310 1.390 . S
C309 C325 1.476 . S
C310 H268 0.930 . S
C310 C309 1.390 . S
C310 C311 1.366 . S
C311 H269 0.932 . S
C311 C306 1.360 . S
C311 C310 1.366 . S
C312 C286 1.490 . S
C312 C313 1.380 . S
C312 C317 1.386 . S
C313 H270 0.930 . S
C313 C312 1.380 . S
C313 C314 1.381 . S
C314 H271 0.929 . S
C314 C313 1.381 . S
C314 C315 1.371 . S
C315 C314 1.371 . S
C315 C316 1.380 . S
C316 H272 0.931 . S
C316 C315 1.380 . S
C316 C317 1.387 . S
C317 H273 0.930 . S
C317 C312 1.386 . S
C317 C316 1.387 . S
C318 C287 1.519 . S
C318 C319 1.377 . S
C318 C323 1.361 . S
C319 H274 0.929 . S
C319 C318 1.377 . S
C319 C320 1.386 . S
C320 H275 0.931 . S
C320 C319 1.386 . S
C320 C321 1.363 . S
C321 C320 1.363 . S
C321 C322 1.385 . S
C322 H276 0.930 . S
C322 C321 1.385 . S
C322 C323 1.396 . S
C323 H277 0.929 . S
C323 C318 1.361 . S
C323 C322 1.396 . S
C324 O278 1.300 . S
C324 O279 1.209 . S
C324 C297 1.486 . S
C325 O280 1.199 . S
C325 O281 1.297 . S
C325 C309 1.476 . S
H326 O352 0.856 . S
H327 O355 0.854 . S
H328 C363 0.930 . S
H329 C364 0.930 . S
H330 C366 0.930 . S
H331 C367 0.930 . S
H332 C369 0.931 . S
H333 C370 0.930 . S
H334 C372 0.930 . S
H335 C373 0.929 . S
H336 C375 0.930 . S
H337 C376 0.931 . S
H338 C378 0.930 . S
H339 C379 0.929 . S
H340 C381 0.931 . S
H341 C382 0.930 . S
H342 C384 0.930 . S
H343 C385 0.932 . S
H344 C387 0.930 . S
H345 C388 0.929 . S
H346 C390 0.931 . S
H347 C391 0.930 . S
H348 C393 0.929 . S
H349 C394 0.931 . S
H350 C396 0.930 . S
H351 C397 0.929 . S
O352 H326 0.856 . S
O352 C398 1.300 . S
O353 C398 1.209 . S
O354 C399 1.199 . S
O355 H327 0.854 . S
O355 C399 1.297 . S
C356 C357 1.404 . S
C356 C361 1.397 . S
C356 C362 1.492 . S
C357 C356 1.404 . S
C357 C358 1.396 . S
C357 C368 1.492 . S
C358 C357 1.396 . S
C358 C359 1.397 . S
C358 C374 1.509 . S
C359 C358 1.397 . S
C359 C360 1.412 . S
C359 C380 1.485 . S
C360 C359 1.412 . S
C360 C361 1.388 . S
C360 C386 1.490 . S
C361 C356 1.397 . S
C361 C360 1.388 . S
C361 C392 1.519 . S
C362 C356 1.492 . S
C362 C363 1.363 . S
C362 C367 1.390 . S
C363 H328 0.930 . S
C363 C362 1.363 . S
C363 C364 1.372 . S
C364 H329 0.930 . S
C364 C363 1.372 . S
C364 C365 1.383 . S
C365 C364 1.383 . S
C365 C366 1.395 . S
C366 H330 0.930 . S
C366 C365 1.395 . S
C366 C367 1.362 . S
C367 H331 0.930 . S
C367 C362 1.390 . S
C367 C366 1.362 . S
C368 C357 1.492 . S
C368 C369 1.377 . S
C368 C373 1.397 . S
C369 H332 0.931 . S
C369 C368 1.377 . S
C369 C370 1.376 . S
C370 H333 0.930 . S
C370 C369 1.376 . S
C370 C371 1.376 . S
C371 C370 1.376 . S
C371 C372 1.378 . S
C371 C398 1.486 . S
C372 H334 0.930 . S
C372 C371 1.378 . S
C372 C373 1.376 . S
C373 H335 0.929 . S
C373 C368 1.397 . S
C373 C372 1.376 . S
C374 C358 1.509 . S
C374 C375 1.391 . S
C374 C379 1.386 . S
C375 H336 0.930 . S
C375 C374 1.391 . S
C375 C376 1.375 . S
C376 H337 0.931 . S
C376 C375 1.375 . S
C376 C377 1.375 . S
C377 C376 1.375 . S
C377 C378 1.361 . S
C378 H338 0.930 . S
C378 C377 1.361 . S
C378 C379 1.399 . S
C379 H339 0.929 . S
C379 C374 1.386 . S
C379 C378 1.399 . S
C380 C359 1.485 . S
C380 C381 1.394 . S
C380 C385 1.360 . S
C381 H340 0.931 . S
C381 C380 1.394 . S
C381 C382 1.372 . S
C382 H341 0.930 . S
C382 C381 1.372 . S
C382 C383 1.397 . S
C383 C382 1.397 . S
C383 C384 1.390 . S
C383 C399 1.476 . S
C384 H342 0.930 . S
C384 C383 1.390 . S
C384 C385 1.366 . S
C385 H343 0.932 . S
C385 C380 1.360 . S
C385 C384 1.366 . S
C386 C360 1.490 . S
C386 C387 1.380 . S
C386 C391 1.386 . S
C387 H344 0.930 . S
C387 C386 1.380 . S
C387 C388 1.381 . S
C388 H345 0.929 . S
C388 C387 1.381 . S
C388 C389 1.371 . S
C389 C388 1.371 . S
C389 C390 1.380 . S
C390 H346 0.931 . S
C390 C389 1.380 . S
C390 C391 1.387 . S
C391 H347 0.930 . S
C391 C386 1.386 . S
C391 C390 1.387 . S
C392 C361 1.519 . S
C392 C393 1.377 . S
C392 C397 1.361 . S
C393 H348 0.929 . S
C393 C392 1.377 . S
C393 C394 1.386 . S
C394 H349 0.931 . S
C394 C393 1.386 . S
C394 C395 1.363 . S
C395 C394 1.363 . S
C395 C396 1.385 . S
C396 H350 0.930 . S
C396 C395 1.385 . S
C396 C397 1.396 . S
C397 H351 0.929 . S
C397 C392 1.361 . S
C397 C396 1.396 . S
C398 O352 1.300 . S
C398 O353 1.209 . S
C398 C371 1.486 . S
C399 O354 1.199 . S
C399 O355 1.297 . S
C399 C383 1.476 . S
H400 O426 0.856 . S
H401 O429 0.854 . S
H402 C437 0.930 . S
H403 C438 0.930 . S
H404 C440 0.930 . S
H405 C441 0.930 . S
H406 C443 0.931 . S
H407 C444 0.930 . S
H408 C446 0.930 . S
H409 C447 0.929 . S
H410 C449 0.930 . S
H411 C450 0.931 . S
H412 C452 0.930 . S
H413 C453 0.929 . S
H414 C455 0.931 . S
H415 C456 0.930 . S
H416 C458 0.930 . S
H417 C459 0.932 . S
H418 C461 0.930 . S
H419 C462 0.929 . S
H420 C464 0.931 . S
H421 C465 0.930 . S
H422 C467 0.929 . S
H423 C468 0.931 . S
H424 C470 0.930 . S
H425 C471 0.929 . S
O426 H400 0.856 . S
O426 C472 1.300 . S
O427 C472 1.209 . S
O428 C473 1.199 . S
O429 H401 0.854 . S
O429 C473 1.297 . S
C430 C431 1.404 . S
C430 C435 1.397 . S
C430 C436 1.492 . S
C431 C430 1.404 . S
C431 C432 1.396 . S
C431 C442 1.492 . S
C432 C431 1.396 . S
C432 C433 1.397 . S
C432 C448 1.509 . S
C433 C432 1.397 . S
C433 C434 1.412 . S
C433 C454 1.485 . S
C434 C433 1.412 . S
C434 C435 1.388 . S
C434 C460 1.490 . S
C435 C430 1.397 . S
C435 C434 1.388 . S
C435 C466 1.519 . S
C436 C430 1.492 . S
C436 C437 1.363 . S
C436 C441 1.390 . S
C437 H402 0.930 . S
C437 C436 1.363 . S
C437 C438 1.372 . S
C438 H403 0.930 . S
C438 C437 1.372 . S
C438 C439 1.383 . S
C439 C438 1.383 . S
C439 C440 1.395 . S
C440 H404 0.930 . S
C440 C439 1.395 . S
C440 C441 1.362 . S
C441 H405 0.930 . S
C441 C436 1.390 . S
C441 C440 1.362 . S
C442 C431 1.492 . S
C442 C443 1.377 . S
C442 C447 1.397 . S
C443 H406 0.931 . S
C443 C442 1.377 . S
C443 C444 1.376 . S
C444 H407 0.930 . S
C444 C443 1.376 . S
C444 C445 1.376 . S
C445 C444 1.376 . S
C445 C446 1.378 . S
C445 C472 1.486 . S
C446 H408 0.930 . S
C446 C445 1.378 . S
C446 C447 1.376 . S
C447 H409 0.929 . S
C447 C442 1.397 . S
C447 C446 1.376 . S
C448 C432 1.509 . S
C448 C449 1.391 . S
C448 C453 1.386 . S
C449 H410 0.930 . S
C449 C448 1.391 . S
C449 C450 1.375 . S
C450 H411 0.931 . S
C450 C449 1.375 . S
C450 C451 1.375 . S
C451 C450 1.375 . S
C451 C452 1.361 . S
C452 H412 0.930 . S
C452 C451 1.361 . S
C452 C453 1.399 . S
C453 H413 0.929 . S
C453 C448 1.386 . S
C453 C452 1.399 . S
C454 C433 1.485 . S
C454 C455 1.394 . S
C454 C459 1.360 . S
C455 H414 0.931 . S
C455 C454 1.394 . S
C455 C456 1.372 . S
C456 H415 0.930 . S
C456 C455 1.372 . S
C456 C457 1.397 . S
C457 C456 1.397 . S
C457 C458 1.390 . S
C457 C473 1.476 . S
C458 H416 0.930 . S
C458 C457 1.390 . S
C458 C459 1.366 . S
C459 H417 0.932 . S
C459 C454 1.360 . S
C459 C458 1.366 . S
C460 C434 1.490 . S
C460 C461 1.380 . S
C460 C465 1.386 . S
C461 H418 0.930 . S
C461 C460 1.380 . S
C461 C462 1.381 . S
C462 H419 0.929 . S
C462 C461 1.381 . S
C462 C463 1.371 . S
C463 C462 1.371 . S
C463 C464 1.380 . S
C464 H420 0.931 . S
C464 C463 1.380 . S
C464 C465 1.387 . S
C465 H421 0.930 . S
C465 C460 1.386 . S
C465 C464 1.387 . S
C466 C435 1.519 . S
C466 C467 1.377 . S
C466 C471 1.361 . S
C467 H422 0.929 . S
C467 C466 1.377 . S
C467 C468 1.386 . S
C468 H423 0.931 . S
C468 C467 1.386 . S
C468 C469 1.363 . S
C469 C468 1.363 . S
C469 C470 1.385 . S
C470 H424 0.930 . S
C470 C469 1.385 . S
C470 C471 1.396 . S
C471 H425 0.929 . S
C471 C466 1.361 . S
C471 C470 1.396 . S
C472 O426 1.300 . S
C472 O427 1.209 . S
C472 C445 1.486 . S
C473 O428 1.199 . S
C473 O429 1.297 . S
C473 C457 1.476 . S
H474 O500 0.856 . S
H475 O503 0.854 . S
H476 C511 0.930 . S
H477 C512 0.930 . S
H478 C514 0.930 . S
H479 C515 0.930 . S
H480 C517 0.931 . S
H481 C518 0.930 . S
H482 C520 0.930 . S
H483 C521 0.929 . S
H484 C523 0.930 . S
H485 C524 0.931 . S
H486 C526 0.930 . S
H487 C527 0.929 . S
H488 C529 0.931 . S
H489 C530 0.930 . S
H490 C532 0.930 . S
H491 C533 0.932 . S
H492 C535 0.930 . S
H493 C536 0.929 . S
H494 C538 0.931 . S
H495 C539 0.930 . S
H496 C541 0.929 . S
H497 C542 0.931 . S
H498 C544 0.930 . S
H499 C545 0.929 . S
O500 H474 0.856 . S
O500 C546 1.300 1_554 S
O501 C546 1.209 . S
O502 C547 1.199 . S
O503 H475 0.854 . S
O503 C547 1.297 . S
C504 C505 1.404 . S
C504 C509 1.397 . S
C504 C510 1.492 . S
C505 C504 1.404 . S
C505 C506 1.396 . S
C505 C516 1.492 . S
C506 C505 1.396 . S
C506 C507 1.397 . S
C506 C522 1.509 . S
C507 C506 1.397 . S
C507 C508 1.412 . S
C507 C528 1.485 . S
C508 C507 1.412 . S
C508 C509 1.388 . S
C508 C534 1.490 . S
C509 C504 1.397 . S
C509 C508 1.388 . S
C509 C540 1.519 . S
C510 C504 1.492 . S
C510 C511 1.363 . S
C510 C515 1.390 . S
C511 H476 0.930 . S
C511 C510 1.363 . S
C511 C512 1.372 . S
C512 H477 0.930 . S
C512 C511 1.372 . S
C512 C513 1.383 . S
C513 C512 1.383 . S
C513 C514 1.395 . S
C514 H478 0.930 . S
C514 C513 1.395 . S
C514 C515 1.362 . S
C515 H479 0.930 . S
C515 C510 1.390 . S
C515 C514 1.362 . S
C516 C505 1.492 . S
C516 C517 1.377 . S
C516 C521 1.397 . S
C517 H480 0.931 . S
C517 C516 1.377 . S
C517 C518 1.376 . S
C518 H481 0.930 . S
C518 C517 1.376 . S
C518 C519 1.376 . S
C519 C518 1.376 . S
C519 C520 1.378 . S
C519 C546 1.486 . S
C520 H482 0.930 . S
C520 C519 1.378 . S
C520 C521 1.376 . S
C521 H483 0.929 . S
C521 C516 1.397 . S
C521 C520 1.376 . S
C522 C506 1.509 . S
C522 C523 1.391 . S
C522 C527 1.386 . S
C523 H484 0.930 . S
C523 C522 1.391 . S
C523 C524 1.375 . S
C524 H485 0.931 . S
C524 C523 1.375 . S
C524 C525 1.375 . S
C525 C524 1.375 . S
C525 C526 1.361 . S
C526 H486 0.930 . S
C526 C525 1.361 . S
C526 C527 1.399 . S
C527 H487 0.929 . S
C527 C522 1.386 . S
C527 C526 1.399 . S
C528 C507 1.485 . S
C528 C529 1.394 . S
C528 C533 1.360 . S
C529 H488 0.931 . S
C529 C528 1.394 . S
C529 C530 1.372 . S
C530 H489 0.930 . S
C530 C529 1.372 . S
C530 C531 1.397 . S
C531 C530 1.397 . S
C531 C532 1.390 . S
C531 C547 1.476 . S
C532 H490 0.930 . S
C532 C531 1.390 . S
C532 C533 1.366 . S
C533 H491 0.932 . S
C533 C528 1.360 . S
C533 C532 1.366 . S
C534 C508 1.490 . S
C534 C535 1.380 . S
C534 C539 1.386 . S
C535 H492 0.930 . S
C535 C534 1.380 . S
C535 C536 1.381 . S
C536 H493 0.929 . S
C536 C535 1.381 . S
C536 C537 1.371 . S
C537 C536 1.371 . S
C537 C538 1.380 . S
C538 H494 0.931 . S
C538 C537 1.380 . S
C538 C539 1.387 . S
C539 H495 0.930 . S
C539 C534 1.386 . S
C539 C538 1.387 . S
C540 C509 1.519 . S
C540 C541 1.377 . S
C540 C545 1.361 . S
C541 H496 0.929 . S
C541 C540 1.377 . S
C541 C542 1.386 . S
C542 H497 0.931 . S
C542 C541 1.386 . S
C542 C543 1.363 . S
C543 C542 1.363 . S
C543 C544 1.385 . S
C544 H498 0.930 . S
C544 C543 1.385 . S
C544 C545 1.396 . S
C545 H499 0.929 . S
C545 C540 1.361 . S
C545 C544 1.396 . S
C546 O500 1.300 1_556 S
C546 O501 1.209 . S
C546 C519 1.486 . S
C547 O502 1.199 . S
C547 O503 1.297 . S
C547 C531 1.476 . S
H548 O574 0.856 . S
H549 O577 0.854 . S
H550 C585 0.930 . S
H551 C586 0.930 . S
H552 C588 0.930 . S
H553 C589 0.930 . S
H554 C591 0.931 . S
H555 C592 0.930 . S
H556 C594 0.930 . S
H557 C595 0.929 . S
H558 C597 0.930 . S
H559 C598 0.931 . S
H560 C600 0.930 . S
H561 C601 0.929 . S
H562 C603 0.931 . S
H563 C604 0.930 . S
H564 C606 0.930 . S
H565 C607 0.932 . S
H566 C609 0.930 . S
H567 C610 0.929 . S
H568 C612 0.931 . S
H569 C613 0.930 . S
H570 C615 0.929 . S
H571 C616 0.931 . S
H572 C618 0.930 . S
H573 C619 0.929 . S
O574 H548 0.856 . S
O574 C620 1.300 . S
O575 C620 1.209 . S
O576 C621 1.199 . S
O577 H549 0.854 . S
O577 C621 1.297 . S
C578 C579 1.404 . S
C578 C583 1.397 . S
C578 C584 1.492 . S
C579 C578 1.404 . S
C579 C580 1.396 . S
C579 C590 1.492 . S
C580 C579 1.396 . S
C580 C581 1.397 . S
C580 C596 1.509 . S
C581 C580 1.397 . S
C581 C582 1.412 . S
C581 C602 1.485 . S
C582 C581 1.412 . S
C582 C583 1.388 . S
C582 C608 1.490 . S
C583 C578 1.397 . S
C583 C582 1.388 . S
C583 C614 1.519 . S
C584 C578 1.492 . S
C584 C585 1.363 . S
C584 C589 1.390 . S
C585 H550 0.930 . S
C585 C584 1.363 . S
C585 C586 1.372 . S
C586 H551 0.930 . S
C586 C585 1.372 . S
C586 C587 1.383 . S
C587 C586 1.383 . S
C587 C588 1.395 . S
C588 H552 0.930 . S
C588 C587 1.395 . S
C588 C589 1.362 . S
C589 H553 0.930 . S
C589 C584 1.390 . S
C589 C588 1.362 . S
C590 C579 1.492 . S
C590 C591 1.377 . S
C590 C595 1.397 . S
C591 H554 0.931 . S
C591 C590 1.377 . S
C591 C592 1.376 . S
C592 H555 0.930 . S
C592 C591 1.376 . S
C592 C593 1.376 . S
C593 C592 1.376 . S
C593 C594 1.378 . S
C593 C620 1.486 1_556 S
C594 H556 0.930 . S
C594 C593 1.378 . S
C594 C595 1.376 . S
C595 H557 0.929 . S
C595 C590 1.397 . S
C595 C594 1.376 . S
C596 C580 1.509 . S
C596 C597 1.391 . S
C596 C601 1.386 . S
C597 H558 0.930 . S
C597 C596 1.391 . S
C597 C598 1.375 . S
C598 H559 0.931 . S
C598 C597 1.375 . S
C598 C599 1.375 . S
C599 C598 1.375 . S
C599 C600 1.361 . S
C600 H560 0.930 . S
C600 C599 1.361 . S
C600 C601 1.399 . S
C601 H561 0.929 . S
C601 C596 1.386 . S
C601 C600 1.399 . S
C602 C581 1.485 . S
C602 C603 1.394 . S
C602 C607 1.360 . S
C603 H562 0.931 . S
C603 C602 1.394 . S
C603 C604 1.372 . S
C604 H563 0.930 . S
C604 C603 1.372 . S
C604 C605 1.397 . S
C605 C604 1.397 . S
C605 C606 1.390 . S
C605 C621 1.476 . S
C606 H564 0.930 . S
C606 C605 1.390 . S
C606 C607 1.366 . S
C607 H565 0.932 . S
C607 C602 1.360 . S
C607 C606 1.366 . S
C608 C582 1.490 . S
C608 C609 1.380 . S
C608 C613 1.386 . S
C609 H566 0.930 . S
C609 C608 1.380 . S
C609 C610 1.381 . S
C610 H567 0.929 . S
C610 C609 1.381 . S
C610 C611 1.371 . S
C611 C610 1.371 . S
C611 C612 1.380 . S
C612 H568 0.931 . S
C612 C611 1.380 . S
C612 C613 1.387 . S
C613 H569 0.930 . S
C613 C608 1.386 . S
C613 C612 1.387 . S
C614 C583 1.519 . S
C614 C615 1.377 . S
C614 C619 1.361 . S
C615 H570 0.929 . S
C615 C614 1.377 . S
C615 C616 1.386 . S
C616 H571 0.931 . S
C616 C615 1.386 . S
C616 C617 1.363 . S
C617 C616 1.363 . S
C617 C618 1.385 . S
C618 H572 0.930 . S
C618 C617 1.385 . S
C618 C619 1.396 . S
C619 H573 0.929 . S
C619 C614 1.361 . S
C619 C618 1.396 . S
C620 O574 1.300 . S
C620 O575 1.209 . S
C620 C593 1.486 1_554 S
C621 O576 1.199 . S
C621 O577 1.297 . S
C621 C605 1.476 . S
H622 O648 0.856 . S
H623 O651 0.854 . S
H624 C659 0.930 . S
H625 C660 0.930 . S
H626 C662 0.930 . S
H627 C663 0.930 . S
H628 C665 0.931 . S
H629 C666 0.930 . S
H630 C668 0.930 . S
H631 C669 0.929 . S
H632 C671 0.930 . S
H633 C672 0.931 . S
H634 C674 0.930 . S
H635 C675 0.929 . S
H636 C677 0.931 . S
H637 C678 0.930 . S
H638 C680 0.930 . S
H639 C681 0.932 . S
H640 C683 0.930 . S
H641 C684 0.929 . S
H642 C686 0.931 . S
H643 C687 0.930 . S
H644 C689 0.929 . S
H645 C690 0.931 . S
H646 C692 0.930 . S
H647 C693 0.929 . S
O648 H622 0.856 . S
O648 C694 1.300 . S
O649 C694 1.209 . S
O650 C695 1.199 . S
O651 H623 0.854 . S
O651 C695 1.297 . S
C652 C653 1.404 . S
C652 C657 1.397 . S
C652 C658 1.492 . S
C653 C652 1.404 . S
C653 C654 1.396 . S
C653 C664 1.492 . S
C654 C653 1.396 . S
C654 C655 1.397 . S
C654 C670 1.509 . S
C655 C654 1.397 . S
C655 C656 1.412 . S
C655 C676 1.485 . S
C656 C655 1.412 . S
C656 C657 1.388 . S
C656 C682 1.490 . S
C657 C652 1.397 . S
C657 C656 1.388 . S
C657 C688 1.519 . S
C658 C652 1.492 . S
C658 C659 1.363 . S
C658 C663 1.390 . S
C659 H624 0.930 . S
C659 C658 1.363 . S
C659 C660 1.372 . S
C660 H625 0.930 . S
C660 C659 1.372 . S
C660 C661 1.383 . S
C661 C660 1.383 . S
C661 C662 1.395 . S
C662 H626 0.930 . S
C662 C661 1.395 . S
C662 C663 1.362 . S
C663 H627 0.930 . S
C663 C658 1.390 . S
C663 C662 1.362 . S
C664 C653 1.492 . S
C664 C665 1.377 . S
C664 C669 1.397 . S
C665 H628 0.931 . S
C665 C664 1.377 . S
C665 C666 1.376 . S
C666 H629 0.930 . S
C666 C665 1.376 . S
C666 C667 1.376 . S
C667 C666 1.376 . S
C667 C668 1.378 . S
C667 C694 1.486 1_556 S
C668 H630 0.930 . S
C668 C667 1.378 . S
C668 C669 1.376 . S
C669 H631 0.929 . S
C669 C664 1.397 . S
C669 C668 1.376 . S
C670 C654 1.509 . S
C670 C671 1.391 . S
C670 C675 1.386 . S
C671 H632 0.930 . S
C671 C670 1.391 . S
C671 C672 1.375 . S
C672 H633 0.931 . S
C672 C671 1.375 . S
C672 C673 1.375 . S
C673 C672 1.375 . S
C673 C674 1.361 . S
C674 H634 0.930 . S
C674 C673 1.361 . S
C674 C675 1.399 . S
C675 H635 0.929 . S
C675 C670 1.386 . S
C675 C674 1.399 . S
C676 C655 1.485 . S
C676 C677 1.394 . S
C676 C681 1.360 . S
C677 H636 0.931 . S
C677 C676 1.394 . S
C677 C678 1.372 . S
C678 H637 0.930 . S
C678 C677 1.372 . S
C678 C679 1.397 . S
C679 C678 1.397 . S
C679 C680 1.390 . S
C679 C695 1.476 . S
C680 H638 0.930 . S
C680 C679 1.390 . S
C680 C681 1.366 . S
C681 H639 0.932 . S
C681 C676 1.360 . S
C681 C680 1.366 . S
C682 C656 1.490 . S
C682 C683 1.380 . S
C682 C687 1.386 . S
C683 H640 0.930 . S
C683 C682 1.380 . S
C683 C684 1.381 . S
C684 H641 0.929 . S
C684 C683 1.381 . S
C684 C685 1.371 . S
C685 C684 1.371 . S
C685 C686 1.380 . S
C686 H642 0.931 . S
C686 C685 1.380 . S
C686 C687 1.387 . S
C687 H643 0.930 . S
C687 C682 1.386 . S
C687 C686 1.387 . S
C688 C657 1.519 . S
C688 C689 1.377 . S
C688 C693 1.361 . S
C689 H644 0.929 . S
C689 C688 1.377 . S
C689 C690 1.386 . S
C690 H645 0.931 . S
C690 C689 1.386 . S
C690 C691 1.363 . S
C691 C690 1.363 . S
C691 C692 1.385 . S
C692 H646 0.930 . S
C692 C691 1.385 . S
C692 C693 1.396 . S
C693 H647 0.929 . S
C693 C688 1.361 . S
C693 C692 1.396 . S
C694 O648 1.300 . S
C694 O649 1.209 . S
C694 C667 1.486 1_554 S
C695 O650 1.199 . S
C695 O651 1.297 . S
C695 C679 1.476 . S
H696 O722 0.856 . S
H697 O725 0.854 . S
H698 C733 0.930 . S
H699 C734 0.930 . S
H700 C736 0.930 . S
H701 C737 0.930 . S
H702 C739 0.931 . S
H703 C740 0.930 . S
H704 C742 0.930 . S
H705 C743 0.929 . S
H706 C745 0.930 . S
H707 C746 0.931 . S
H708 C748 0.930 . S
H709 C749 0.929 . S
H710 C751 0.931 . S
H711 C752 0.930 . S
H712 C754 0.930 . S
H713 C755 0.932 . S
H714 C757 0.930 . S
H715 C758 0.929 . S
H716 C760 0.931 . S
H717 C761 0.930 . S
H718 C763 0.929 . S
H719 C764 0.931 . S
H720 C766 0.930 . S
H721 C767 0.929 . S
O722 H696 0.856 . S
O722 C768 1.300 . S
O723 C768 1.209 . S
O724 C769 1.199 . S
O725 H697 0.854 . S
O725 C769 1.297 . S
C726 C727 1.404 . S
C726 C731 1.397 . S
C726 C732 1.492 . S
C727 C726 1.404 . S
C727 C728 1.396 . S
C727 C738 1.492 . S
C728 C727 1.396 . S
C728 C729 1.397 . S
C728 C744 1.509 . S
C729 C728 1.397 . S
C729 C730 1.412 . S
C729 C750 1.485 . S
C730 C729 1.412 . S
C730 C731 1.388 . S
C730 C756 1.490 . S
C731 C726 1.397 . S
C731 C730 1.388 . S
C731 C762 1.519 . S
C732 C726 1.492 . S
C732 C733 1.363 . S
C732 C737 1.390 . S
C733 H698 0.930 . S
C733 C732 1.363 . S
C733 C734 1.372 . S
C734 H699 0.930 . S
C734 C733 1.372 . S
C734 C735 1.383 . S
C735 C734 1.383 . S
C735 C736 1.395 . S
C736 H700 0.930 . S
C736 C735 1.395 . S
C736 C737 1.362 . S
C737 H701 0.930 . S
C737 C732 1.390 . S
C737 C736 1.362 . S
C738 C727 1.492 . S
C738 C739 1.377 . S
C738 C743 1.397 . S
C739 H702 0.931 . S
C739 C738 1.377 . S
C739 C740 1.376 . S
C740 H703 0.930 . S
C740 C739 1.376 . S
C740 C741 1.376 . S
C741 C740 1.376 . S
C741 C742 1.378 . S
C741 C768 1.486 . S
C742 H704 0.930 . S
C742 C741 1.378 . S
C742 C743 1.376 . S
C743 H705 0.929 . S
C743 C738 1.397 . S
C743 C742 1.376 . S
C744 C728 1.509 . S
C744 C745 1.391 . S
C744 C749 1.386 . S
C745 H706 0.930 . S
C745 C744 1.391 . S
C745 C746 1.375 . S
C746 H707 0.931 . S
C746 C745 1.375 . S
C746 C747 1.375 . S
C747 C746 1.375 . S
C747 C748 1.361 . S
C748 H708 0.930 . S
C748 C747 1.361 . S
C748 C749 1.399 . S
C749 H709 0.929 . S
C749 C744 1.386 . S
C749 C748 1.399 . S
C750 C729 1.485 . S
C750 C751 1.394 . S
C750 C755 1.360 . S
C751 H710 0.931 . S
C751 C750 1.394 . S
C751 C752 1.372 . S
C752 H711 0.930 . S
C752 C751 1.372 . S
C752 C753 1.397 . S
C753 C752 1.397 . S
C753 C754 1.390 . S
C753 C769 1.476 . S
C754 H712 0.930 . S
C754 C753 1.390 . S
C754 C755 1.366 . S
C755 H713 0.932 . S
C755 C750 1.360 . S
C755 C754 1.366 . S
C756 C730 1.490 . S
C756 C757 1.380 . S
C756 C761 1.386 . S
C757 H714 0.930 . S
C757 C756 1.380 . S
C757 C758 1.381 . S
C758 H715 0.929 . S
C758 C757 1.381 . S
C758 C759 1.371 . S
C759 C758 1.371 . S
C759 C760 1.380 . S
C760 H716 0.931 . S
C760 C759 1.380 . S
C760 C761 1.387 . S
C761 H717 0.930 . S
C761 C756 1.386 . S
C761 C760 1.387 . S
C762 C731 1.519 . S
C762 C763 1.377 . S
C762 C767 1.361 . S
C763 H718 0.929 . S
C763 C762 1.377 . S
C763 C764 1.386 . S
C764 H719 0.931 . S
C764 C763 1.386 . S
C764 C765 1.363 . S
C765 C764 1.363 . S
C765 C766 1.385 . S
C766 H720 0.930 . S
C766 C765 1.385 . S
C766 C767 1.396 . S
C767 H721 0.929 . S
C767 C762 1.361 . S
C767 C766 1.396 . S
C768 O722 1.300 . S
C768 O723 1.209 . S
C768 C741 1.486 . S
C769 O724 1.199 . S
C769 O725 1.297 . S
C769 C753 1.476 . S
H770 O796 0.856 . S
H771 O799 0.854 . S
H772 C807 0.930 . S
H773 C808 0.930 . S
H774 C810 0.930 . S
H775 C811 0.930 . S
H776 C813 0.931 . S
H777 C814 0.930 . S
H778 C816 0.930 . S
H779 C817 0.929 . S
H780 C819 0.930 . S
H781 C820 0.931 . S
H782 C822 0.930 . S
H783 C823 0.929 . S
H784 C825 0.931 . S
H785 C826 0.930 . S
H786 C828 0.930 . S
H787 C829 0.932 . S
H788 C831 0.930 . S
H789 C832 0.929 . S
H790 C834 0.931 . S
H791 C835 0.930 . S
H792 C837 0.929 . S
H793 C838 0.931 . S
H794 C840 0.930 . S
H795 C841 0.929 . S
O796 H770 0.856 . S
O796 C842 1.300 . S
O797 C842 1.209 . S
O798 C843 1.199 . S
O799 H771 0.854 . S
O799 C843 1.297 . S
C800 C801 1.404 . S
C800 C805 1.397 . S
C800 C806 1.492 . S
C801 C800 1.404 . S
C801 C802 1.396 . S
C801 C812 1.492 . S
C802 C801 1.396 . S
C802 C803 1.397 . S
C802 C818 1.509 . S
C803 C802 1.397 . S
C803 C804 1.412 . S
C803 C824 1.485 . S
C804 C803 1.412 . S
C804 C805 1.388 . S
C804 C830 1.490 . S
C805 C800 1.397 . S
C805 C804 1.388 . S
C805 C836 1.519 . S
C806 C800 1.492 . S
C806 C807 1.363 . S
C806 C811 1.390 . S
C807 H772 0.930 . S
C807 C806 1.363 . S
C807 C808 1.372 . S
C808 H773 0.930 . S
C808 C807 1.372 . S
C808 C809 1.383 . S
C809 C808 1.383 . S
C809 C810 1.395 . S
C810 H774 0.930 . S
C810 C809 1.395 . S
C810 C811 1.362 . S
C811 H775 0.930 . S
C811 C806 1.390 . S
C811 C810 1.362 . S
C812 C801 1.492 . S
C812 C813 1.377 . S
C812 C817 1.397 . S
C813 H776 0.931 . S
C813 C812 1.377 . S
C813 C814 1.376 . S
C814 H777 0.930 . S
C814 C813 1.376 . S
C814 C815 1.376 . S
C815 C814 1.376 . S
C815 C816 1.378 . S
C815 C842 1.486 . S
C816 H778 0.930 . S
C816 C815 1.378 . S
C816 C817 1.376 . S
C817 H779 0.929 . S
C817 C812 1.397 . S
C817 C816 1.376 . S
C818 C802 1.509 . S
C818 C819 1.391 . S
C818 C823 1.386 . S
C819 H780 0.930 . S
C819 C818 1.391 . S
C819 C820 1.375 . S
C820 H781 0.931 . S
C820 C819 1.375 . S
C820 C821 1.375 . S
C821 C820 1.375 . S
C821 C822 1.361 . S
C822 H782 0.930 . S
C822 C821 1.361 . S
C822 C823 1.399 . S
C823 H783 0.929 . S
C823 C818 1.386 . S
C823 C822 1.399 . S
C824 C803 1.485 . S
C824 C825 1.394 . S
C824 C829 1.360 . S
C825 H784 0.931 . S
C825 C824 1.394 . S
C825 C826 1.372 . S
C826 H785 0.930 . S
C826 C825 1.372 . S
C826 C827 1.397 . S
C827 C826 1.397 . S
C827 C828 1.390 . S
C827 C843 1.476 . S
C828 H786 0.930 . S
C828 C827 1.390 . S
C828 C829 1.366 . S
C829 H787 0.932 . S
C829 C824 1.360 . S
C829 C828 1.366 . S
C830 C804 1.490 . S
C830 C831 1.380 . S
C830 C835 1.386 . S
C831 H788 0.930 . S
C831 C830 1.380 . S
C831 C832 1.381 . S
C832 H789 0.929 . S
C832 C831 1.381 . S
C832 C833 1.371 . S
C833 C832 1.371 . S
C833 C834 1.380 . S
C834 H790 0.931 . S
C834 C833 1.380 . S
C834 C835 1.387 . S
C835 H791 0.930 . S
C835 C830 1.386 . S
C835 C834 1.387 . S
C836 C805 1.519 . S
C836 C837 1.377 . S
C836 C841 1.361 . S
C837 H792 0.929 . S
C837 C836 1.377 . S
C837 C838 1.386 . S
C838 H793 0.931 . S
C838 C837 1.386 . S
C838 C839 1.363 . S
C839 C838 1.363 . S
C839 C840 1.385 . S
C840 H794 0.930 . S
C840 C839 1.385 . S
C840 C841 1.396 . S
C841 H795 0.929 . S
C841 C836 1.361 . S
C841 C840 1.396 . S
C842 O796 1.300 . S
C842 O797 1.209 . S
C842 C815 1.486 . S
C843 O798 1.199 . S
C843 O799 1.297 . S
C843 C827 1.476 . S
H844 O870 0.856 . S
H845 O873 0.854 . S
H846 C881 0.930 . S
H847 C882 0.930 . S
H848 C884 0.930 . S
H849 C885 0.930 . S
H850 C887 0.931 . S
H851 C888 0.930 . S
H852 C890 0.930 . S
H853 C891 0.929 . S
H854 C893 0.930 . S
H855 C894 0.931 . S
H856 C896 0.930 . S
H857 C897 0.929 . S
H858 C899 0.931 . S
H859 C900 0.930 . S
H860 C902 0.930 . S
H861 C903 0.932 . S
H862 C905 0.930 . S
H863 C906 0.929 . S
H864 C908 0.931 . S
H865 C909 0.930 . S
H866 C911 0.929 . S
H867 C912 0.931 . S
H868 C914 0.930 . S
H869 C915 0.929 . S
O870 H844 0.856 . S
O870 C916 1.300 . S
O871 C916 1.209 . S
O872 C917 1.199 . S
O873 H845 0.854 . S
O873 C917 1.297 . S
C874 C875 1.404 . S
C874 C879 1.397 . S
C874 C880 1.492 . S
C875 C874 1.404 . S
C875 C876 1.396 . S
C875 C886 1.492 . S
C876 C875 1.396 . S
C876 C877 1.397 . S
C876 C892 1.509 . S
C877 C876 1.397 . S
C877 C878 1.412 . S
C877 C898 1.485 . S
C878 C877 1.412 . S
C878 C879 1.388 . S
C878 C904 1.490 . S
C879 C874 1.397 . S
C879 C878 1.388 . S
C879 C910 1.519 . S
C880 C874 1.492 . S
C880 C881 1.363 . S
C880 C885 1.390 . S
C881 H846 0.930 . S
C881 C880 1.363 . S
C881 C882 1.372 . S
C882 H847 0.930 . S
C882 C881 1.372 . S
C882 C883 1.383 . S
C883 C882 1.383 . S
C883 C884 1.395 . S
C884 H848 0.930 . S
C884 C883 1.395 . S
C884 C885 1.362 . S
C885 H849 0.930 . S
C885 C880 1.390 . S
C885 C884 1.362 . S
C886 C875 1.492 . S
C886 C887 1.377 . S
C886 C891 1.397 . S
C887 H850 0.931 . S
C887 C886 1.377 . S
C887 C888 1.376 . S
C888 H851 0.930 . S
C888 C887 1.376 . S
C888 C889 1.376 . S
C889 C888 1.376 . S
C889 C890 1.378 . S
C889 C916 1.486 . S
C890 H852 0.930 . S
C890 C889 1.378 . S
C890 C891 1.376 . S
C891 H853 0.929 . S
C891 C886 1.397 . S
C891 C890 1.376 . S
C892 C876 1.509 . S
C892 C893 1.391 . S
C892 C897 1.386 . S
C893 H854 0.930 . S
C893 C892 1.391 . S
C893 C894 1.375 . S
C894 H855 0.931 . S
C894 C893 1.375 . S
C894 C895 1.375 . S
C895 C894 1.375 . S
C895 C896 1.361 . S
C896 H856 0.930 . S
C896 C895 1.361 . S
C896 C897 1.399 . S
C897 H857 0.929 . S
C897 C892 1.386 . S
C897 C896 1.399 . S
C898 C877 1.485 . S
C898 C899 1.394 . S
C898 C903 1.360 . S
C899 H858 0.931 . S
C899 C898 1.394 . S
C899 C900 1.372 . S
C900 H859 0.930 . S
C900 C899 1.372 . S
C900 C901 1.397 . S
C901 C900 1.397 . S
C901 C902 1.390 . S
C901 C917 1.476 . S
C902 H860 0.930 . S
C902 C901 1.390 . S
C902 C903 1.366 . S
C903 H861 0.932 . S
C903 C898 1.360 . S
C903 C902 1.366 . S
C904 C878 1.490 . S
C904 C905 1.380 . S
C904 C909 1.386 . S
C905 H862 0.930 . S
C905 C904 1.380 . S
C905 C906 1.381 . S
C906 H863 0.929 . S
C906 C905 1.381 . S
C906 C907 1.371 . S
C907 C906 1.371 . S
C907 C908 1.380 . S
C908 H864 0.931 . S
C908 C907 1.380 . S
C908 C909 1.387 . S
C909 H865 0.930 . S
C909 C904 1.386 . S
C909 C908 1.387 . S
C910 C879 1.519 . S
C910 C911 1.377 . S
C910 C915 1.361 . S
C911 H866 0.929 . S
C911 C910 1.377 . S
C911 C912 1.386 . S
C912 H867 0.931 . S
C912 C911 1.386 . S
C912 C913 1.363 . S
C913 C912 1.363 . S
C913 C914 1.385 . S
C914 H868 0.930 . S
C914 C913 1.385 . S
C914 C915 1.396 . S
C915 H869 0.929 . S
C915 C910 1.361 . S
C915 C914 1.396 . S
C916 O870 1.300 . S
C916 O871 1.209 . S
C916 C889 1.486 . S
C917 O872 1.199 . S
C917 O873 1.297 . S
C917 C901 1.476 . S
H918 O944 0.856 . S
H919 O947 0.854 . S
H920 C955 0.930 . S
H921 C956 0.930 . S
H922 C958 0.930 . S
H923 C959 0.930 . S
H924 C961 0.931 . S
H925 C962 0.930 1_655 S
H926 C964 0.930 . S
H927 C965 0.929 . S
H928 C967 0.930 . S
H929 C968 0.931 1_655 S
H930 C970 0.930 . S
H931 C971 0.929 . S
H932 C973 0.931 . S
H933 C974 0.930 . S
H934 C976 0.930 . S
H935 C977 0.932 . S
H936 C979 0.930 . S
H937 C980 0.929 . S
H938 C982 0.931 . S
H939 C983 0.930 . S
H940 C985 0.929 . S
H941 C986 0.931 . S
H942 C988 0.930 . S
H943 C989 0.929 . S
O944 H918 0.856 . S
O944 C990 1.300 . S
O945 C990 1.209 . S
O946 C991 1.199 1_655 S
O947 H919 0.854 . S
O947 C991 1.297 . S
C948 C949 1.404 . S
C948 C953 1.394 . S
C948 C954 1.492 . S
C949 C948 1.404 . S
C949 C950 1.396 . S
C949 C960 1.492 . S
C950 C949 1.396 . S
C950 C951 1.397 . S
C950 C966 1.509 . S
C951 C950 1.397 . S
C951 C952 1.430 . S
C951 C972 1.485 . S
C952 C951 1.430 . S
C952 C953 1.399 . S
C952 C978 1.491 1_455 S
C953 C948 1.394 . S
C953 C952 1.399 . S
C953 C984 1.483 1_455 S
C954 C948 1.492 . S
C954 C955 1.363 1_455 S
C954 C959 1.390 . S
C955 H920 0.930 . S
C955 C954 1.363 1_655 S
C955 C956 1.372 . S
C956 H921 0.930 . S
C956 C955 1.372 . S
C956 C957 1.383 . S
C957 C956 1.383 . S
C957 C958 1.395 1_655 S
C958 H922 0.930 . S
C958 C957 1.395 1_455 S
C958 C959 1.362 . S
C959 H923 0.930 . S
C959 C954 1.390 . S
C959 C958 1.362 . S
C960 C949 1.492 . S
C960 C961 1.377 1_455 S
C960 C965 1.397 . S
C961 H924 0.931 . S
C961 C960 1.377 1_655 S
C961 C962 1.376 1_655 S
C962 H925 0.930 1_455 S
C962 C961 1.376 1_455 S
C962 C963 1.376 . S
C963 C962 1.376 . S
C963 C964 1.378 . S
C963 C990 1.486 . S
C964 H926 0.930 . S
C964 C963 1.378 . S
C964 C965 1.376 . S
C965 H927 0.929 . S
C965 C960 1.397 . S
C965 C964 1.376 . S
C966 C950 1.509 . S
C966 C967 1.391 1_455 S
C966 C971 1.386 . S
C967 H928 0.930 . S
C967 C966 1.391 1_655 S
C967 C968 1.375 1_655 S
C968 H929 0.931 1_455 S
C968 C967 1.375 1_455 S
C968 C969 1.375 . S
C969 C968 1.375 . S
C969 C970 1.361 . S
C970 H930 0.930 . S
C970 C969 1.361 . S
C970 C971 1.399 . S
C971 H931 0.929 . S
C971 C966 1.386 . S
C971 C970 1.399 . S
C972 C951 1.485 . S
C972 C973 1.394 1_455 S
C972 C977 1.360 . S
C973 H932 0.931 . S
C973 C972 1.394 1_655 S
C973 C974 1.372 . S
C974 H933 0.930 . S
C974 C973 1.372 . S
C974 C975 1.397 1_655 S
C975 C974 1.397 1_455 S
C975 C976 1.390 . S
C975 C991 1.476 . S
C976 H934 0.930 . S
C976 C975 1.390 . S
C976 C977 1.366 . S
C977 H935 0.932 . S
C977 C972 1.360 . S
C977 C976 1.366 . S
C978 C952 1.491 1_655 S
C978 C979 1.380 . S
C978 C983 1.386 1_655 S
C979 H936 0.930 . S
C979 C978 1.380 . S
C979 C980 1.381 . S
C980 H937 0.929 . S
C980 C979 1.381 . S
C980 C981 1.371 . S
C981 C980 1.371 . S
C981 C982 1.380 1_655 S
C982 H938 0.931 . S
C982 C981 1.380 1_455 S
C982 C983 1.387 . S
C983 H939 0.930 . S
C983 C978 1.386 1_455 S
C983 C982 1.387 . S
C984 C953 1.483 1_655 S
C984 C985 1.417 . S
C984 C989 1.336 1_655 S
C985 H940 0.929 . S
C985 C984 1.417 . S
C985 C986 1.386 . S
C986 H941 0.931 . S
C986 C985 1.386 . S
C986 C987 1.396 . S
C987 C986 1.396 . S
C987 C988 1.335 1_655 S
C988 H942 0.930 . S
C988 C987 1.335 1_455 S
C988 C989 1.396 . S
C989 H943 0.929 . S
C989 C984 1.336 1_455 S
C989 C988 1.396 . S
C990 O944 1.300 . S
C990 O945 1.209 . S
C990 C963 1.486 . S
C991 O946 1.199 1_455 S
C991 O947 1.297 . S
C991 C975 1.476 . S
H992 O1018 0.856 . S
H993 O1021 0.854 . S
H994 C1029 0.930 . S
H995 C1030 0.930 . S
H996 C1032 0.930 . S
H997 C1033 0.930 . S
H998 C1035 0.931 . S
H999 C1036 0.930 . S
H1000 C1038 0.930 . S
H1001 C1039 0.929 . S
H1002 C1041 0.930 . S
H1003 C1042 0.931 . S
H1004 C1044 0.930 . S
H1005 C1045 0.929 . S
H1006 C1047 0.931 . S
H1007 C1048 0.930 . S
H1008 C1050 0.930 . S
H1009 C1051 0.932 . S
H1010 C1053 0.930 . S
H1011 C1054 0.929 . S
H1012 C1056 0.931 . S
H1013 C1057 0.930 . S
H1014 C1059 0.929 . S
H1015 C1060 0.931 . S
H1016 C1062 0.930 . S
H1017 C1063 0.929 . S
O1018 H992 0.856 . S
O1018 C1064 1.300 . S
O1019 C1064 1.209 . S
O1020 C1065 1.199 . S
O1021 H993 0.854 . S
O1021 C1065 1.297 . S
C1022 C1023 1.404 . S
C1022 C1027 1.397 . S
C1022 C1028 1.492 . S
C1023 C1022 1.404 . S
C1023 C1024 1.396 . S
C1023 C1034 1.492 . S
C1024 C1023 1.396 . S
C1024 C1025 1.397 . S
C1024 C1040 1.509 . S
C1025 C1024 1.397 . S
C1025 C1026 1.412 . S
C1025 C1046 1.485 . S
C1026 C1025 1.412 . S
C1026 C1027 1.388 . S
C1026 C1052 1.490 . S
C1027 C1022 1.397 . S
C1027 C1026 1.388 . S
C1027 C1058 1.519 . S
C1028 C1022 1.492 . S
C1028 C1029 1.363 . S
C1028 C1033 1.390 . S
C1029 H994 0.930 . S
C1029 C1028 1.363 . S
C1029 C1030 1.372 . S
C1030 H995 0.930 . S
C1030 C1029 1.372 . S
C1030 C1031 1.383 . S
C1031 C1030 1.383 . S
C1031 C1032 1.395 . S
C1032 H996 0.930 . S
C1032 C1031 1.395 . S
C1032 C1033 1.362 . S
C1033 H997 0.930 . S
C1033 C1028 1.390 . S
C1033 C1032 1.362 . S
C1034 C1023 1.492 . S
C1034 C1035 1.377 . S
C1034 C1039 1.397 . S
C1035 H998 0.931 . S
C1035 C1034 1.377 . S
C1035 C1036 1.376 . S
C1036 H999 0.930 . S
C1036 C1035 1.376 . S
C1036 C1037 1.376 . S
C1037 C1036 1.376 . S
C1037 C1038 1.378 . S
C1037 C1064 1.486 . S
C1038 H1000 0.930 . S
C1038 C1037 1.378 . S
C1038 C1039 1.376 . S
C1039 H1001 0.929 . S
C1039 C1034 1.397 . S
C1039 C1038 1.376 . S
C1040 C1024 1.509 . S
C1040 C1041 1.391 . S
C1040 C1045 1.386 . S
C1041 H1002 0.930 . S
C1041 C1040 1.391 . S
C1041 C1042 1.375 . S
C1042 H1003 0.931 . S
C1042 C1041 1.375 . S
C1042 C1043 1.375 . S
C1043 C1042 1.375 . S
C1043 C1044 1.361 . S
C1044 H1004 0.930 . S
C1044 C1043 1.361 . S
C1044 C1045 1.399 . S
C1045 H1005 0.929 . S
C1045 C1040 1.386 . S
C1045 C1044 1.399 . S
C1046 C1025 1.485 . S
C1046 C1047 1.394 . S
C1046 C1051 1.360 . S
C1047 H1006 0.931 . S
C1047 C1046 1.394 . S
C1047 C1048 1.372 . S
C1048 H1007 0.930 . S
C1048 C1047 1.372 . S
C1048 C1049 1.397 . S
C1049 C1048 1.397 . S
C1049 C1050 1.390 . S
C1049 C1065 1.476 . S
C1050 H1008 0.930 . S
C1050 C1049 1.390 . S
C1050 C1051 1.366 . S
C1051 H1009 0.932 . S
C1051 C1046 1.360 . S
C1051 C1050 1.366 . S
C1052 C1026 1.490 . S
C1052 C1053 1.380 . S
C1052 C1057 1.386 . S
C1053 H1010 0.930 . S
C1053 C1052 1.380 . S
C1053 C1054 1.381 . S
C1054 H1011 0.929 . S
C1054 C1053 1.381 . S
C1054 C1055 1.371 . S
C1055 C1054 1.371 . S
C1055 C1056 1.380 . S
C1056 H1012 0.931 . S
C1056 C1055 1.380 . S
C1056 C1057 1.387 . S
C1057 H1013 0.930 . S
C1057 C1052 1.386 . S
C1057 C1056 1.387 . S
C1058 C1027 1.519 . S
C1058 C1059 1.377 . S
C1058 C1063 1.361 . S
C1059 H1014 0.929 . S
C1059 C1058 1.377 . S
C1059 C1060 1.386 . S
C1060 H1015 0.931 . S
C1060 C1059 1.386 . S
C1060 C1061 1.363 . S
C1061 C1060 1.363 . S
C1061 C1062 1.385 . S
C1062 H1016 0.930 . S
C1062 C1061 1.385 . S
C1062 C1063 1.396 . S
C1063 H1017 0.929 . S
C1063 C1058 1.361 . S
C1063 C1062 1.396 . S
C1064 O1018 1.300 . S
C1064 O1019 1.209 . S
C1064 C1037 1.486 . S
C1065 O1020 1.199 . S
C1065 O1021 1.297 . S
C1065 C1049 1.476 . S
H1066 O1092 0.856 . S
H1067 O1095 0.854 . S
H1068 C1103 0.930 . S
H1069 C1104 0.930 . S
H1070 C1106 0.930 . S
H1071 C1107 0.930 . S
H1072 C1109 0.931 . S
H1073 C1110 0.951 . S
H1074 C1112 0.930 . S
H1075 C1113 0.929 . S
H1076 C1115 0.930 . S
H1077 C1116 0.931 . S
H1078 C1118 0.930 . S
H1079 C1119 0.929 . S
H1080 C1121 0.931 . S
H1081 C1122 0.930 . S
H1082 C1124 0.930 . S
H1083 C1125 0.932 . S
H1084 C1127 0.930 . S
H1085 C1128 0.929 . S
H1086 C1130 0.931 . S
H1087 C1131 0.930 . S
H1088 C1133 0.929 . S
H1089 C1134 0.931 . S
H1090 C1136 0.930 . S
H1091 C1137 0.929 . S
O1092 H1066 0.856 . S
O1092 C1138 1.300 . S
O1093 C1138 1.209 . S
O1094 C1139 1.199 1_545 S
O1095 H1067 0.854 . S
O1095 C1139 1.297 . S
C1096 C1097 1.404 . S
C1096 C1101 1.414 . S
C1096 C1102 1.492 . S
C1097 C1096 1.404 . S
C1097 C1098 1.396 . S
C1097 C1108 1.492 . S
C1098 C1097 1.396 . S
C1098 C1099 1.397 . S
C1098 C1114 1.509 . S
C1099 C1098 1.397 . S
C1099 C1100 1.412 . S
C1099 C1120 1.485 . S
C1100 C1099 1.412 . S
C1100 C1101 1.364 . S
C1100 C1126 1.489 1_565 S
C1101 C1096 1.414 . S
C1101 C1100 1.364 . S
C1101 C1132 1.532 1_565 S
C1102 C1096 1.492 . S
C1102 C1103 1.363 1_565 S
C1102 C1107 1.390 . S
C1103 H1068 0.930 . S
C1103 C1102 1.363 1_545 S
C1103 C1104 1.372 . S
C1104 H1069 0.930 . S
C1104 C1103 1.372 . S
C1104 C1105 1.383 . S
C1105 C1104 1.383 . S
C1105 C1106 1.395 1_545 S
C1106 H1070 0.930 . S
C1106 C1105 1.395 1_565 S
C1106 C1107 1.362 . S
C1107 H1071 0.930 . S
C1107 C1102 1.390 . S
C1107 C1106 1.362 . S
C1108 C1097 1.492 . S
C1108 C1109 1.377 1_565 S
C1108 C1113 1.397 . S
C1109 H1072 0.931 . S
C1109 C1108 1.377 1_545 S
C1109 C1110 1.387 . S
C1110 H1073 0.951 . S
C1110 C1109 1.387 . S
C1110 C1111 1.344 1_545 S
C1111 C1110 1.344 1_565 S
C1111 C1112 1.378 . S
C1111 C1138 1.486 . S
C1112 H1074 0.930 . S
C1112 C1111 1.378 . S
C1112 C1113 1.376 . S
C1113 H1075 0.929 . S
C1113 C1108 1.397 . S
C1113 C1112 1.376 . S
C1114 C1098 1.509 . S
C1114 C1115 1.391 1_565 S
C1114 C1119 1.386 . S
C1115 H1076 0.930 . S
C1115 C1114 1.391 1_545 S
C1115 C1116 1.375 . S
C1116 H1077 0.931 . S
C1116 C1115 1.375 . S
C1116 C1117 1.375 1_545 S
C1117 C1116 1.375 1_565 S
C1117 C1118 1.361 . S
C1118 H1078 0.930 . S
C1118 C1117 1.361 . S
C1118 C1119 1.399 . S
C1119 H1079 0.929 . S
C1119 C1114 1.386 . S
C1119 C1118 1.399 . S
C1120 C1099 1.485 . S
C1120 C1121 1.394 1_565 S
C1120 C1125 1.360 . S
C1121 H1080 0.931 . S
C1121 C1120 1.394 1_545 S
C1121 C1122 1.372 . S
C1122 H1081 0.930 . S
C1122 C1121 1.372 . S
C1122 C1123 1.397 1_545 S
C1123 C1122 1.397 1_565 S
C1123 C1124 1.390 . S
C1123 C1139 1.476 . S
C1124 H1082 0.930 . S
C1124 C1123 1.390 . S
C1124 C1125 1.366 . S
C1125 H1083 0.932 . S
C1125 C1120 1.360 . S
C1125 C1124 1.366 . S
C1126 C1100 1.489 1_545 S
C1126 C1127 1.380 . S
C1126 C1131 1.386 1_545 S
C1127 H1084 0.930 . S
C1127 C1126 1.380 . S
C1127 C1128 1.381 . S
C1128 H1085 0.929 . S
C1128 C1127 1.381 . S
C1128 C1129 1.371 . S
C1129 C1128 1.371 . S
C1129 C1130 1.380 1_545 S
C1130 H1086 0.931 . S
C1130 C1129 1.380 1_565 S
C1130 C1131 1.387 . S
C1131 H1087 0.930 . S
C1131 C1126 1.386 1_565 S
C1131 C1130 1.387 . S
C1132 C1101 1.532 1_545 S
C1132 C1133 1.375 . S
C1132 C1137 1.364 1_545 S
C1133 H1088 0.929 . S
C1133 C1132 1.375 . S
C1133 C1134 1.386 . S
C1134 H1089 0.931 . S
C1134 C1133 1.386 . S
C1134 C1135 1.363 1_545 S
C1135 C1134 1.363 1_565 S
C1135 C1136 1.385 . S
C1136 H1090 0.930 . S
C1136 C1135 1.385 . S
C1136 C1137 1.396 . S
C1137 H1091 0.929 . S
C1137 C1132 1.364 1_565 S
C1137 C1136 1.396 . S
C1138 O1092 1.300 . S
C1138 O1093 1.209 . S
C1138 C1111 1.486 . S
C1139 O1094 1.199 1_565 S
C1139 O1095 1.297 . S
C1139 C1123 1.476 . S
H1140 O1166 0.856 . S
H1141 O1169 0.854 . S
H1142 C1177 0.930 . S
H1143 C1178 0.930 . S
H1144 C1180 0.930 . S
H1145 C1181 0.930 . S
H1146 C1183 0.931 . S
H1147 C1184 0.930 . S
H1148 C1186 0.930 . S
H1149 C1187 0.929 . S
H1150 C1189 0.930 . S
H1151 C1190 0.931 . S
H1152 C1192 0.930 . S
H1153 C1193 0.929 . S
H1154 C1195 0.931 . S
H1155 C1196 0.930 . S
H1156 C1198 0.930 . S
H1157 C1199 0.932 . S
H1158 C1201 0.930 . S
H1159 C1202 0.929 . S
H1160 C1204 0.931 . S
H1161 C1205 0.930 . S
H1162 C1207 0.929 . S
H1163 C1208 0.931 . S
H1164 C1210 0.930 . S
H1165 C1211 0.929 . S
O1166 H1140 0.856 . S
O1166 C1212 1.300 . S
O1167 C1212 1.209 1_565 S
O1168 C1213 1.199 1_545 S
O1169 H1141 0.854 . S
O1169 C1213 1.297 . S
C1170 C1171 1.404 . S
C1170 C1175 1.397 1_545 S
C1170 C1176 1.492 . S
C1171 C1170 1.404 . S
C1171 C1172 1.426 . S
C1171 C1182 1.492 . S
C1172 C1171 1.426 . S
C1172 C1173 1.376 1_545 S
C1172 C1188 1.503 . S
C1173 C1172 1.376 1_565 S
C1173 C1174 1.415 . S
C1173 C1194 1.507 . S
C1174 C1173 1.415 . S
C1174 C1175 1.363 . S
C1174 C1200 1.488 . S
C1175 C1170 1.397 1_565 S
C1175 C1174 1.363 . S
C1175 C1206 1.519 . S
C1176 C1170 1.492 . S
C1176 C1177 1.363 . S
C1176 C1181 1.390 1_545 S
C1177 H1142 0.930 . S
C1177 C1176 1.363 . S
C1177 C1178 1.372 . S
C1178 H1143 0.930 . S
C1178 C1177 1.372 . S
C1178 C1179 1.383 . S
C1179 C1178 1.383 . S
C1179 C1180 1.395 1_545 S
C1180 H1144 0.930 . S
C1180 C1179 1.395 1_565 S
C1180 C1181 1.362 . S
C1181 H1145 0.930 . S
C1181 C1176 1.390 1_565 S
C1181 C1180 1.362 . S
C1182 C1171 1.492 . S
C1182 C1183 1.377 . S
C1182 C1187 1.397 1_545 S
C1183 H1146 0.931 . S
C1183 C1182 1.377 . S
C1183 C1184 1.376 . S
C1184 H1147 0.930 . S
C1184 C1183 1.376 . S
C1184 C1185 1.376 . S
C1185 C1184 1.376 . S
C1185 C1186 1.378 1_545 S
C1185 C1212 1.486 . S
C1186 H1148 0.930 . S
C1186 C1185 1.378 1_565 S
C1186 C1187 1.376 . S
C1187 H1149 0.929 . S
C1187 C1182 1.397 1_565 S
C1187 C1186 1.376 . S
C1188 C1172 1.503 . S
C1188 C1189 1.404 . S
C1188 C1193 1.363 1_545 S
C1189 H1150 0.930 . S
C1189 C1188 1.404 . S
C1189 C1190 1.375 . S
C1190 H1151 0.931 . S
C1190 C1189 1.375 . S
C1190 C1191 1.380 1_545 S
C1191 C1190 1.380 1_565 S
C1191 C1192 1.359 . S
C1192 H1152 0.930 . S
C1192 C1191 1.359 . S
C1192 C1193 1.399 . S
C1193 H1153 0.929 . S
C1193 C1188 1.363 1_565 S
C1193 C1192 1.399 . S
C1194 C1173 1.507 . S
C1194 C1195 1.394 1_565 S
C1194 C1199 1.360 . S
C1195 H1154 0.931 . S
C1195 C1194 1.394 1_545 S
C1195 C1196 1.372 . S
C1196 H1155 0.930 . S
C1196 C1195 1.372 . S
C1196 C1197 1.397 1_545 S
C1197 C1196 1.397 1_565 S
C1197 C1198 1.390 . S
C1197 C1213 1.476 . S
C1198 H1156 0.930 . S
C1198 C1197 1.390 . S
C1198 C1199 1.366 . S
C1199 H1157 0.932 . S
C1199 C1194 1.360 . S
C1199 C1198 1.366 . S
C1200 C1174 1.488 . S
C1200 C1201 1.336 1_565 S
C1200 C1205 1.443 . S
C1201 H1158 0.930 . S
C1201 C1200 1.336 1_545 S
C1201 C1202 1.381 . S
C1202 H1159 0.929 . S
C1202 C1201 1.381 . S
C1202 C1203 1.376 . S
C1203 C1202 1.376 . S
C1203 C1204 1.376 1_545 S
C1204 H1160 0.931 . S
C1204 C1203 1.376 1_565 S
C1204 C1205 1.387 . S
C1205 H1161 0.930 . S
C1205 C1200 1.443 . S
C1205 C1204 1.387 . S
C1206 C1175 1.519 . S
C1206 C1207 1.377 1_565 S
C1206 C1211 1.361 . S
C1207 H1162 0.929 . S
C1207 C1206 1.377 1_545 S
C1207 C1208 1.386 . S
C1208 H1163 0.931 . S
C1208 C1207 1.386 . S
C1208 C1209 1.363 1_545 S
C1209 C1208 1.363 1_565 S
C1209 C1210 1.385 . S
C1210 H1164 0.930 . S
C1210 C1209 1.385 . S
C1210 C1211 1.396 . S
C1211 H1165 0.929 . S
C1211 C1206 1.361 . S
C1211 C1210 1.396 . S
C1212 O1166 1.300 . S
C1212 O1167 1.209 1_545 S
C1212 C1185 1.486 . S
C1213 O1168 1.199 1_565 S
C1213 O1169 1.297 . S
C1213 C1197 1.476 . S
H1214 O1240 0.856 . S
H1215 O1243 0.854 . S
H1216 C1251 0.930 . S
H1217 C1252 0.930 . S
H1218 C1254 0.930 . S
H1219 C1255 0.930 . S
H1220 C1257 0.931 . S
H1221 C1258 0.930 . S
H1222 C1260 0.930 . S
H1223 C1261 0.929 . S
H1224 C1263 0.930 . S
H1225 C1264 0.931 . S
H1226 C1266 0.930 . S
H1227 C1267 0.929 . S
H1228 C1269 0.931 . S
H1229 C1270 0.930 . S
H1230 C1272 0.930 . S
H1231 C1273 0.932 . S
H1232 C1275 0.930 . S
H1233 C1276 0.929 . S
H1234 C1278 0.931 . S
H1235 C1279 0.930 . S
H1236 C1281 0.929 . S
H1237 C1282 0.931 . S
H1238 C1284 0.930 . S
H1239 C1285 0.929 . S
O1240 H1214 0.856 . S
O1240 C1286 1.300 . S
O1241 C1286 1.209 1_455 S
O1242 C1287 1.199 1_655 S
O1243 H1215 0.854 . S
O1243 C1287 1.297 . S
C1244 C1245 1.404 . S
C1244 C1249 1.398 . S
C1244 C1250 1.492 . S
C1245 C1244 1.404 . S
C1245 C1246 1.396 . S
C1245 C1256 1.492 . S
C1246 C1245 1.396 . S
C1246 C1247 1.395 . S
C1246 C1262 1.509 . S
C1247 C1246 1.395 . S
C1247 C1248 1.394 1_655 S
C1247 C1268 1.520 1_655 S
C1248 C1247 1.394 1_455 S
C1248 C1249 1.399 1_455 S
C1248 C1274 1.487 . S
C1249 C1244 1.398 . S
C1249 C1248 1.399 1_655 S
C1249 C1280 1.522 1_655 S
C1250 C1244 1.492 . S
C1250 C1251 1.363 . S
C1250 C1255 1.390 1_655 S
C1251 H1216 0.930 . S
C1251 C1250 1.363 . S
C1251 C1252 1.372 . S
C1252 H1217 0.930 . S
C1252 C1251 1.372 . S
C1252 C1253 1.383 . S
C1253 C1252 1.383 . S
C1253 C1254 1.395 1_655 S
C1254 H1218 0.930 . S
C1254 C1253 1.395 1_455 S
C1254 C1255 1.362 . S
C1255 H1219 0.930 . S
C1255 C1250 1.390 1_455 S
C1255 C1254 1.362 . S
C1256 C1245 1.492 . S
C1256 C1257 1.377 . S
C1256 C1261 1.397 1_655 S
C1257 H1220 0.931 . S
C1257 C1256 1.377 . S
C1257 C1258 1.376 . S
C1258 H1221 0.930 . S
C1258 C1257 1.376 . S
C1258 C1259 1.376 . S
C1259 C1258 1.376 . S
C1259 C1260 1.378 1_655 S
C1259 C1286 1.486 . S
C1260 H1222 0.930 . S
C1260 C1259 1.378 1_455 S
C1260 C1261 1.376 . S
C1261 H1223 0.929 . S
C1261 C1256 1.397 1_455 S
C1261 C1260 1.376 . S
C1262 C1246 1.509 . S
C1262 C1263 1.391 . S
C1262 C1267 1.386 1_655 S
C1263 H1224 0.930 . S
C1263 C1262 1.391 . S
C1263 C1264 1.375 . S
C1264 H1225 0.931 . S
C1264 C1263 1.375 . S
C1264 C1265 1.375 . S
C1265 C1264 1.375 . S
C1265 C1266 1.361 1_655 S
C1266 H1226 0.930 . S
C1266 C1265 1.361 1_455 S
C1266 C1267 1.399 . S
C1267 H1227 0.929 . S
C1267 C1262 1.386 1_455 S
C1267 C1266 1.399 . S
C1268 C1247 1.520 1_455 S
C1268 C1269 1.353 1_455 S
C1268 C1273 1.378 . S
C1269 H1228 0.931 . S
C1269 C1268 1.353 1_655 S
C1269 C1270 1.372 . S
C1270 H1229 0.930 . S
C1270 C1269 1.372 . S
C1270 C1271 1.397 1_655 S
C1271 C1270 1.397 1_455 S
C1271 C1272 1.390 . S
C1271 C1287 1.476 . S
C1272 H1230 0.930 . S
C1272 C1271 1.390 . S
C1272 C1273 1.366 . S
C1273 H1231 0.932 . S
C1273 C1268 1.378 . S
C1273 C1272 1.366 . S
C1274 C1248 1.487 . S
C1274 C1275 1.380 1_455 S
C1274 C1279 1.386 . S
C1275 H1232 0.930 . S
C1275 C1274 1.380 1_655 S
C1275 C1276 1.381 . S
C1276 H1233 0.929 . S
C1276 C1275 1.381 . S
C1276 C1277 1.371 1_655 S
C1277 C1276 1.371 1_455 S
C1277 C1278 1.380 . S
C1278 H1234 0.931 . S
C1278 C1277 1.380 . S
C1278 C1279 1.387 . S
C1279 H1235 0.930 . S
C1279 C1274 1.386 . S
C1279 C1278 1.387 . S
C1280 C1249 1.522 1_455 S
C1280 C1281 1.377 1_455 S
C1280 C1285 1.361 . S
C1281 H1236 0.929 . S
C1281 C1280 1.377 1_655 S
C1281 C1282 1.386 . S
C1282 H1237 0.931 . S
C1282 C1281 1.386 . S
C1282 C1283 1.363 1_655 S
C1283 C1282 1.363 1_455 S
C1283 C1284 1.385 . S
C1284 H1238 0.930 . S
C1284 C1283 1.385 . S
C1284 C1285 1.396 . S
C1285 H1239 0.929 . S
C1285 C1280 1.361 . S
C1285 C1284 1.396 . S
C1286 O1240 1.300 . S
C1286 O1241 1.209 1_655 S
C1286 C1259 1.486 . S
C1287 O1242 1.199 1_455 S
C1287 O1243 1.297 . S
C1287 C1271 1.476 . S
H1288 O1314 0.856 . S
H1289 O1317 0.854 . S
H1290 C1325 0.930 . S
H1291 C1326 0.930 . S
H1292 C1328 0.930 . S
H1293 C1329 0.930 . S
H1294 C1331 0.931 . S
H1295 C1332 0.930 . S
H1296 C1334 0.930 . S
H1297 C1335 0.929 . S
H1298 C1337 0.930 . S
H1299 C1338 0.931 . S
H1300 C1340 0.930 . S
H1301 C1341 0.929 . S
H1302 C1343 0.931 . S
H1303 C1344 0.930 . S
H1304 C1346 0.930 . S
H1305 C1347 0.932 . S
H1306 C1349 0.930 . S
H1307 C1350 0.929 . S
H1308 C1352 0.931 . S
H1309 C1353 0.930 . S
H1310 C1355 0.929 . S
H1311 C1356 0.931 . S
H1312 C1358 0.930 . S
H1313 C1359 0.929 . S
O1314 H1288 0.856 . S
O1314 C1360 1.300 . S
O1315 C1360 1.209 . S
O1316 C1361 1.199 . S
O1317 H1289 0.854 . S
O1317 C1361 1.297 . S
C1318 C1319 1.404 . S
C1318 C1323 1.397 . S
C1318 C1324 1.492 . S
C1319 C1318 1.404 . S
C1319 C1320 1.396 . S
C1319 C1330 1.492 . S
C1320 C1319 1.396 . S
C1320 C1321 1.397 . S
C1320 C1336 1.509 . S
C1321 C1320 1.397 . S
C1321 C1322 1.412 . S
C1321 C1342 1.485 . S
C1322 C1321 1.412 . S
C1322 C1323 1.388 . S
C1322 C1348 1.490 . S
C1323 C1318 1.397 . S
C1323 C1322 1.388 . S
C1323 C1354 1.519 . S
C1324 C1318 1.492 . S
C1324 C1325 1.363 . S
C1324 C1329 1.390 . S
C1325 H1290 0.930 . S
C1325 C1324 1.363 . S
C1325 C1326 1.372 . S
C1326 H1291 0.930 . S
C1326 C1325 1.372 . S
C1326 C1327 1.383 . S
C1327 C1326 1.383 . S
C1327 C1328 1.395 . S
C1328 H1292 0.930 . S
C1328 C1327 1.395 . S
C1328 C1329 1.362 . S
C1329 H1293 0.930 . S
C1329 C1324 1.390 . S
C1329 C1328 1.362 . S
C1330 C1319 1.492 . S
C1330 C1331 1.377 . S
C1330 C1335 1.397 . S
C1331 H1294 0.931 . S
C1331 C1330 1.377 . S
C1331 C1332 1.376 . S
C1332 H1295 0.930 . S
C1332 C1331 1.376 . S
C1332 C1333 1.376 . S
C1333 C1332 1.376 . S
C1333 C1334 1.378 . S
C1333 C1360 1.486 . S
C1334 H1296 0.930 . S
C1334 C1333 1.378 . S
C1334 C1335 1.376 . S
C1335 H1297 0.929 . S
C1335 C1330 1.397 . S
C1335 C1334 1.376 . S
C1336 C1320 1.509 . S
C1336 C1337 1.391 . S
C1336 C1341 1.386 . S
C1337 H1298 0.930 . S
C1337 C1336 1.391 . S
C1337 C1338 1.375 . S
C1338 H1299 0.931 . S
C1338 C1337 1.375 . S
C1338 C1339 1.375 . S
C1339 C1338 1.375 . S
C1339 C1340 1.361 . S
C1340 H1300 0.930 . S
C1340 C1339 1.361 . S
C1340 C1341 1.399 . S
C1341 H1301 0.929 . S
C1341 C1336 1.386 . S
C1341 C1340 1.399 . S
C1342 C1321 1.485 . S
C1342 C1343 1.394 . S
C1342 C1347 1.360 . S
C1343 H1302 0.931 . S
C1343 C1342 1.394 . S
C1343 C1344 1.372 . S
C1344 H1303 0.930 . S
C1344 C1343 1.372 . S
C1344 C1345 1.397 . S
C1345 C1344 1.397 . S
C1345 C1346 1.390 . S
C1345 C1361 1.476 . S
C1346 H1304 0.930 . S
C1346 C1345 1.390 . S
C1346 C1347 1.366 . S
C1347 H1305 0.932 . S
C1347 C1342 1.360 . S
C1347 C1346 1.366 . S
C1348 C1322 1.490 . S
C1348 C1349 1.380 . S
C1348 C1353 1.386 . S
C1349 H1306 0.930 . S
C1349 C1348 1.380 . S
C1349 C1350 1.381 . S
C1350 H1307 0.929 . S
C1350 C1349 1.381 . S
C1350 C1351 1.371 . S
C1351 C1350 1.371 . S
C1351 C1352 1.380 . S
C1352 H1308 0.931 . S
C1352 C1351 1.380 . S
C1352 C1353 1.387 . S
C1353 H1309 0.930 . S
C1353 C1348 1.386 . S
C1353 C1352 1.387 . S
C1354 C1323 1.519 . S
C1354 C1355 1.377 . S
C1354 C1359 1.361 . S
C1355 H1310 0.929 . S
C1355 C1354 1.377 . S
C1355 C1356 1.386 . S
C1356 H1311 0.931 . S
C1356 C1355 1.386 . S
C1356 C1357 1.363 . S
C1357 C1356 1.363 . S
C1357 C1358 1.385 . S
C1358 H1312 0.930 . S
C1358 C1357 1.385 . S
C1358 C1359 1.396 . S
C1359 H1313 0.929 . S
C1359 C1354 1.361 . S
C1359 C1358 1.396 . S
C1360 O1314 1.300 . S
C1360 O1315 1.209 . S
C1360 C1333 1.486 . S
C1361 O1316 1.199 . S
C1361 O1317 1.297 . S
C1361 C1345 1.476 . S
H1362 O1388 0.856 . S
H1363 O1391 0.854 . S
H1364 C1399 0.930 . S
H1365 C1400 0.930 . S
H1366 C1402 0.930 . S
H1367 C1403 0.930 . S
H1368 C1405 0.931 . S
H1369 C1406 0.930 . S
H1370 C1408 0.930 . S
H1371 C1409 0.929 . S
H1372 C1411 0.930 . S
H1373 C1412 0.931 . S
H1374 C1414 0.930 . S
H1375 C1415 0.929 . S
H1376 C1417 0.931 . S
H1377 C1418 0.930 . S
H1378 C1420 0.930 . S
H1379 C1421 0.932 . S
H1380 C1423 0.930 . S
H1381 C1424 0.929 . S
H1382 C1426 0.931 . S
H1383 C1427 0.930 . S
H1384 C1429 0.929 . S
H1385 C1430 0.931 . S
H1386 C1432 0.930 . S
H1387 C1433 0.929 . S
O1388 H1362 0.856 . S
O1388 C1434 1.300 . S
O1389 C1434 1.209 . S
O1390 C1435 1.199 . S
O1391 H1363 0.854 . S
O1391 C1435 1.297 . S
C1392 C1393 1.404 . S
C1392 C1397 1.397 . S
C1392 C1398 1.492 . S
C1393 C1392 1.404 . S
C1393 C1394 1.396 . S
C1393 C1404 1.492 . S
C1394 C1393 1.396 . S
C1394 C1395 1.397 . S
C1394 C1410 1.509 . S
C1395 C1394 1.397 . S
C1395 C1396 1.412 . S
C1395 C1416 1.485 . S
C1396 C1395 1.412 . S
C1396 C1397 1.388 . S
C1396 C1422 1.490 . S
C1397 C1392 1.397 . S
C1397 C1396 1.388 . S
C1397 C1428 1.519 . S
C1398 C1392 1.492 . S
C1398 C1399 1.363 . S
C1398 C1403 1.390 . S
C1399 H1364 0.930 . S
C1399 C1398 1.363 . S
C1399 C1400 1.372 . S
C1400 H1365 0.930 . S
C1400 C1399 1.372 . S
C1400 C1401 1.383 . S
C1401 C1400 1.383 . S
C1401 C1402 1.395 . S
C1402 H1366 0.930 . S
C1402 C1401 1.395 . S
C1402 C1403 1.362 . S
C1403 H1367 0.930 . S
C1403 C1398 1.390 . S
C1403 C1402 1.362 . S
C1404 C1393 1.492 . S
C1404 C1405 1.377 . S
C1404 C1409 1.397 . S
C1405 H1368 0.931 . S
C1405 C1404 1.377 . S
C1405 C1406 1.376 . S
C1406 H1369 0.930 . S
C1406 C1405 1.376 . S
C1406 C1407 1.376 . S
C1407 C1406 1.376 . S
C1407 C1408 1.378 . S
C1407 C1434 1.486 . S
C1408 H1370 0.930 . S
C1408 C1407 1.378 . S
C1408 C1409 1.376 . S
C1409 H1371 0.929 . S
C1409 C1404 1.397 . S
C1409 C1408 1.376 . S
C1410 C1394 1.509 . S
C1410 C1411 1.391 . S
C1410 C1415 1.386 . S
C1411 H1372 0.930 . S
C1411 C1410 1.391 . S
C1411 C1412 1.375 . S
C1412 H1373 0.931 . S
C1412 C1411 1.375 . S
C1412 C1413 1.375 . S
C1413 C1412 1.375 . S
C1413 C1414 1.361 . S
C1414 H1374 0.930 . S
C1414 C1413 1.361 . S
C1414 C1415 1.399 . S
C1415 H1375 0.929 . S
C1415 C1410 1.386 . S
C1415 C1414 1.399 . S
C1416 C1395 1.485 . S
C1416 C1417 1.394 . S
C1416 C1421 1.360 . S
C1417 H1376 0.931 . S
C1417 C1416 1.394 . S
C1417 C1418 1.372 . S
C1418 H1377 0.930 . S
C1418 C1417 1.372 . S
C1418 C1419 1.397 . S
C1419 C1418 1.397 . S
C1419 C1420 1.390 . S
C1419 C1435 1.476 . S
C1420 H1378 0.930 . S
C1420 C1419 1.390 . S
C1420 C1421 1.366 . S
C1421 H1379 0.932 . S
C1421 C1416 1.360 . S
C1421 C1420 1.366 . S
C1422 C1396 1.490 . S
C1422 C1423 1.380 . S
C1422 C1427 1.386 . S
C1423 H1380 0.930 . S
C1423 C1422 1.380 . S
C1423 C1424 1.381 . S
C1424 H1381 0.929 . S
C1424 C1423 1.381 . S
C1424 C1425 1.371 . S
C1425 C1424 1.371 . S
C1425 C1426 1.380 . S
C1426 H1382 0.931 . S
C1426 C1425 1.380 . S
C1426 C1427 1.387 . S
C1427 H1383 0.930 . S
C1427 C1422 1.386 . S
C1427 C1426 1.387 . S
C1428 C1397 1.519 . S
C1428 C1429 1.377 . S
C1428 C1433 1.361 . S
C1429 H1384 0.929 . S
C1429 C1428 1.377 . S
C1429 C1430 1.386 . S
C1430 H1385 0.931 . S
C1430 C1429 1.386 . S
C1430 C1431 1.363 . S
C1431 C1430 1.363 . S
C1431 C1432 1.385 . S
C1432 H1386 0.930 . S
C1432 C1431 1.385 . S
C1432 C1433 1.396 . S
C1433 H1387 0.929 . S
C1433 C1428 1.361 . S
C1433 C1432 1.396 . S
C1434 O1388 1.300 . S
C1434 O1389 1.209 . S
C1434 C1407 1.486 . S
C1435 O1390 1.199 . S
C1435 O1391 1.297 . S
C1435 C1419 1.476 . S
H1436 O1462 0.856 . S
H1437 O1465 0.854 . S
H1438 C1473 0.930 . S
H1439 C1474 0.930 . S
H1440 C1476 0.930 . S
H1441 C1477 0.930 . S
H1442 C1479 0.931 . S
H1443 C1480 0.930 . S
H1444 C1482 0.930 . S
H1445 C1483 0.929 . S
H1446 C1485 0.930 . S
H1447 C1486 0.931 . S
H1448 C1488 0.930 . S
H1449 C1489 0.929 . S
H1450 C1491 0.931 . S
H1451 C1492 0.930 . S
H1452 C1494 0.930 . S
H1453 C1495 0.932 . S
H1454 C1497 0.930 . S
H1455 C1498 0.929 . S
H1456 C1500 0.931 . S
H1457 C1501 0.930 . S
H1458 C1503 0.929 . S
H1459 C1504 0.931 . S
H1460 C1506 0.930 . S
H1461 C1507 0.929 . S
O1462 H1436 0.856 . S
O1462 C1508 1.300 . S
O1463 C1508 1.209 . S
O1464 C1509 1.199 . S
O1465 H1437 0.854 . S
O1465 C1509 1.297 . S
C1466 C1467 1.404 . S
C1466 C1471 1.397 . S
C1466 C1472 1.492 . S
C1467 C1466 1.404 . S
C1467 C1468 1.396 . S
C1467 C1478 1.492 . S
C1468 C1467 1.396 . S
C1468 C1469 1.397 . S
C1468 C1484 1.509 . S
C1469 C1468 1.397 . S
C1469 C1470 1.412 . S
C1469 C1490 1.485 . S
C1470 C1469 1.412 . S
C1470 C1471 1.388 . S
C1470 C1496 1.490 . S
C1471 C1466 1.397 . S
C1471 C1470 1.388 . S
C1471 C1502 1.519 . S
C1472 C1466 1.492 . S
C1472 C1473 1.363 . S
C1472 C1477 1.390 . S
C1473 H1438 0.930 . S
C1473 C1472 1.363 . S
C1473 C1474 1.372 . S
C1474 H1439 0.930 . S
C1474 C1473 1.372 . S
C1474 C1475 1.383 . S
C1475 C1474 1.383 . S
C1475 C1476 1.395 . S
C1476 H1440 0.930 . S
C1476 C1475 1.395 . S
C1476 C1477 1.362 . S
C1477 H1441 0.930 . S
C1477 C1472 1.390 . S
C1477 C1476 1.362 . S
C1478 C1467 1.492 . S
C1478 C1479 1.377 . S
C1478 C1483 1.397 . S
C1479 H1442 0.931 . S
C1479 C1478 1.377 . S
C1479 C1480 1.376 . S
C1480 H1443 0.930 . S
C1480 C1479 1.376 . S
C1480 C1481 1.376 . S
C1481 C1480 1.376 . S
C1481 C1482 1.378 . S
C1481 C1508 1.486 . S
C1482 H1444 0.930 . S
C1482 C1481 1.378 . S
C1482 C1483 1.376 . S
C1483 H1445 0.929 . S
C1483 C1478 1.397 . S
C1483 C1482 1.376 . S
C1484 C1468 1.509 . S
C1484 C1485 1.391 . S
C1484 C1489 1.386 . S
C1485 H1446 0.930 . S
C1485 C1484 1.391 . S
C1485 C1486 1.375 . S
C1486 H1447 0.931 . S
C1486 C1485 1.375 . S
C1486 C1487 1.375 . S
C1487 C1486 1.375 . S
C1487 C1488 1.361 . S
C1488 H1448 0.930 . S
C1488 C1487 1.361 . S
C1488 C1489 1.399 . S
C1489 H1449 0.929 . S
C1489 C1484 1.386 . S
C1489 C1488 1.399 . S
C1490 C1469 1.485 . S
C1490 C1491 1.394 . S
C1490 C1495 1.360 . S
C1491 H1450 0.931 . S
C1491 C1490 1.394 . S
C1491 C1492 1.372 . S
C1492 H1451 0.930 . S
C1492 C1491 1.372 . S
C1492 C1493 1.397 . S
C1493 C1492 1.397 . S
C1493 C1494 1.390 . S
C1493 C1509 1.476 . S
C1494 H1452 0.930 . S
C1494 C1493 1.390 . S
C1494 C1495 1.366 . S
C1495 H1453 0.932 . S
C1495 C1490 1.360 . S
C1495 C1494 1.366 . S
C1496 C1470 1.490 . S
C1496 C1497 1.380 . S
C1496 C1501 1.386 . S
C1497 H1454 0.930 . S
C1497 C1496 1.380 . S
C1497 C1498 1.381 . S
C1498 H1455 0.929 . S
C1498 C1497 1.381 . S
C1498 C1499 1.371 . S
C1499 C1498 1.371 . S
C1499 C1500 1.380 . S
C1500 H1456 0.931 . S
C1500 C1499 1.380 . S
C1500 C1501 1.387 . S
C1501 H1457 0.930 . S
C1501 C1496 1.386 . S
C1501 C1500 1.387 . S
C1502 C1471 1.519 . S
C1502 C1503 1.377 . S
C1502 C1507 1.361 . S
C1503 H1458 0.929 . S
C1503 C1502 1.377 . S
C1503 C1504 1.386 . S
C1504 H1459 0.931 . S
C1504 C1503 1.386 . S
C1504 C1505 1.363 . S
C1505 C1504 1.363 . S
C1505 C1506 1.385 . S
C1506 H1460 0.930 . S
C1506 C1505 1.385 . S
C1506 C1507 1.396 . S
C1507 H1461 0.929 . S
C1507 C1502 1.361 . S
C1507 C1506 1.396 . S
C1508 O1462 1.300 . S
C1508 O1463 1.209 . S
C1508 C1481 1.486 . S
C1509 O1464 1.199 . S
C1509 O1465 1.297 . S
C1509 C1493 1.476 . S
H1510 O1536 0.856 . S
H1511 O1539 0.854 . S
H1512 C1547 0.930 . S
H1513 C1548 0.930 . S
H1514 C1550 0.930 . S
H1515 C1551 0.930 . S
H1516 C1553 0.931 . S
H1517 C1554 0.930 . S
H1518 C1556 0.930 . S
H1519 C1557 0.929 . S
H1520 C1559 0.930 . S
H1521 C1560 0.931 . S
H1522 C1562 0.930 . S
H1523 C1563 0.929 . S
H1524 C1565 0.931 . S
H1525 C1566 0.930 . S
H1526 C1568 0.930 . S
H1527 C1569 0.932 . S
H1528 C1571 0.930 . S
H1529 C1572 0.929 . S
H1530 C1574 0.931 . S
H1531 C1575 0.930 . S
H1532 C1577 0.929 . S
H1533 C1578 0.931 . S
H1534 C1580 0.930 . S
H1535 C1581 0.929 . S
O1536 H1510 0.856 . S
O1536 C1582 1.300 . S
O1537 C1582 1.209 . S
O1538 C1583 1.199 . S
O1539 H1511 0.854 . S
O1539 C1583 1.297 . S
C1540 C1541 1.404 . S
C1540 C1545 1.397 . S
C1540 C1546 1.492 . S
C1541 C1540 1.404 . S
C1541 C1542 1.396 . S
C1541 C1552 1.492 . S
C1542 C1541 1.396 . S
C1542 C1543 1.397 . S
C1542 C1558 1.509 . S
C1543 C1542 1.397 . S
C1543 C1544 1.412 . S
C1543 C1564 1.485 . S
C1544 C1543 1.412 . S
C1544 C1545 1.388 . S
C1544 C1570 1.490 . S
C1545 C1540 1.397 . S
C1545 C1544 1.388 . S
C1545 C1576 1.519 . S
C1546 C1540 1.492 . S
C1546 C1547 1.363 . S
C1546 C1551 1.390 . S
C1547 H1512 0.930 . S
C1547 C1546 1.363 . S
C1547 C1548 1.372 . S
C1548 H1513 0.930 . S
C1548 C1547 1.372 . S
C1548 C1549 1.383 . S
C1549 C1548 1.383 . S
C1549 C1550 1.395 . S
C1550 H1514 0.930 . S
C1550 C1549 1.395 . S
C1550 C1551 1.362 . S
C1551 H1515 0.930 . S
C1551 C1546 1.390 . S
C1551 C1550 1.362 . S
C1552 C1541 1.492 . S
C1552 C1553 1.377 . S
C1552 C1557 1.397 . S
C1553 H1516 0.931 . S
C1553 C1552 1.377 . S
C1553 C1554 1.376 . S
C1554 H1517 0.930 . S
C1554 C1553 1.376 . S
C1554 C1555 1.376 . S
C1555 C1554 1.376 . S
C1555 C1556 1.378 . S
C1555 C1582 1.486 . S
C1556 H1518 0.930 . S
C1556 C1555 1.378 . S
C1556 C1557 1.376 . S
C1557 H1519 0.929 . S
C1557 C1552 1.397 . S
C1557 C1556 1.376 . S
C1558 C1542 1.509 . S
C1558 C1559 1.391 . S
C1558 C1563 1.386 . S
C1559 H1520 0.930 . S
C1559 C1558 1.391 . S
C1559 C1560 1.375 . S
C1560 H1521 0.931 . S
C1560 C1559 1.375 . S
C1560 C1561 1.375 . S
C1561 C1560 1.375 . S
C1561 C1562 1.361 . S
C1562 H1522 0.930 . S
C1562 C1561 1.361 . S
C1562 C1563 1.399 . S
C1563 H1523 0.929 . S
C1563 C1558 1.386 . S
C1563 C1562 1.399 . S
C1564 C1543 1.485 . S
C1564 C1565 1.394 . S
C1564 C1569 1.360 . S
C1565 H1524 0.931 . S
C1565 C1564 1.394 . S
C1565 C1566 1.372 . S
C1566 H1525 0.930 . S
C1566 C1565 1.372 . S
C1566 C1567 1.397 . S
C1567 C1566 1.397 . S
C1567 C1568 1.390 . S
C1567 C1583 1.476 . S
C1568 H1526 0.930 . S
C1568 C1567 1.390 . S
C1568 C1569 1.366 . S
C1569 H1527 0.932 . S
C1569 C1564 1.360 . S
C1569 C1568 1.366 . S
C1570 C1544 1.490 . S
C1570 C1571 1.380 . S
C1570 C1575 1.386 . S
C1571 H1528 0.930 . S
C1571 C1570 1.380 . S
C1571 C1572 1.381 . S
C1572 H1529 0.929 . S
C1572 C1571 1.381 . S
C1572 C1573 1.371 . S
C1573 C1572 1.371 . S
C1573 C1574 1.380 . S
C1574 H1530 0.931 . S
C1574 C1573 1.380 . S
C1574 C1575 1.387 . S
C1575 H1531 0.930 . S
C1575 C1570 1.386 . S
C1575 C1574 1.387 . S
C1576 C1545 1.519 . S
C1576 C1577 1.377 . S
C1576 C1581 1.361 . S
C1577 H1532 0.929 . S
C1577 C1576 1.377 . S
C1577 C1578 1.386 . S
C1578 H1533 0.931 . S
C1578 C1577 1.386 . S
C1578 C1579 1.363 . S
C1579 C1578 1.363 . S
C1579 C1580 1.385 . S
C1580 H1534 0.930 . S
C1580 C1579 1.385 . S
C1580 C1581 1.396 . S
C1581 H1535 0.929 . S
C1581 C1576 1.361 . S
C1581 C1580 1.396 . S
C1582 O1536 1.300 . S
C1582 O1537 1.209 . S
C1582 C1555 1.486 . S
C1583 O1538 1.199 . S
C1583 O1539 1.297 . S
C1583 C1567 1.476 . S
H1584 C1592 0.950 . S
H1585 C1597 0.950 . S
H1586 C1594 0.950 . S
H1587 C1596 0.950 . S
H1588 C1598 0.950 . S
H1589 C1600 0.950 . S
H1590 C1602 0.950 . S
H1591 C1603 0.950 . S
C1592 H1584 0.950 . S
C1592 C1593 1.386 . S
C1592 C1594 1.391 . S
C1593 C1592 1.386 . S
C1593 C1597 1.393 1_655 S
C1594 H1586 0.950 . S
C1594 C1592 1.391 . S
C1594 C1595 1.400 . S
C1595 C1594 1.400 . S
C1595 C1596 1.398 1_655 S
C1595 C1601 1.491 . S
C1596 H1587 0.950 . S
C1596 C1595 1.398 1_455 S
C1596 C1597 1.391 . S
C1597 H1585 0.950 . S
C1597 C1593 1.393 1_455 S
C1597 C1596 1.391 . S
C1598 H1588 0.950 . S
C1598 C1599 1.386 1_455 S
C1598 C1600 1.391 . S
C1599 C1598 1.386 1_655 S
C1599 C1603 1.393 . S
C1600 H1589 0.950 . S
C1600 C1598 1.391 . S
C1600 C1601 1.400 1_455 S
C1601 C1595 1.491 . S
C1601 C1600 1.400 1_655 S
C1601 C1602 1.398 . S
C1602 H1590 0.950 . S
C1602 C1601 1.398 . S
C1602 C1603 1.391 . S
C1603 H1591 0.950 . S
C1603 C1599 1.393 . S
C1603 C1602 1.391 . S
H1604 C1612 0.950 . S
H1605 C1617 0.950 . S
H1606 C1614 0.950 . S
H1607 C1616 0.950 . S
H1608 C1618 0.950 . S
H1609 C1620 0.950 . S
H1610 C1622 0.950 . S
H1611 C1623 0.950 . S
C1612 H1604 0.950 . S
C1612 C1613 1.386 . S
C1612 C1614 1.391 . S
C1613 C1612 1.386 . S
C1613 C1617 1.393 . S
C1614 H1606 0.950 . S
C1614 C1612 1.391 . S
C1614 C1615 1.400 . S
C1615 C1614 1.400 . S
C1615 C1616 1.398 . S
C1615 C1621 1.491 . S
C1616 H1607 0.950 . S
C1616 C1615 1.398 . S
C1616 C1617 1.391 . S
C1617 H1605 0.950 . S
C1617 C1613 1.393 . S
C1617 C1616 1.391 . S
C1618 H1608 0.950 . S
C1618 C1619 1.386 . S
C1618 C1620 1.391 . S
C1619 C1618 1.386 . S
C1619 C1623 1.393 . S
C1620 H1609 0.950 . S
C1620 C1618 1.391 . S
C1620 C1621 1.400 . S
C1621 C1615 1.491 . S
C1621 C1620 1.400 . S
C1621 C1622 1.398 . S
C1622 H1610 0.950 . S
C1622 C1621 1.398 . S
C1622 C1623 1.391 . S
C1623 H1611 0.950 . S
C1623 C1619 1.393 . S
C1623 C1622 1.391 . S
H1624 C1632 0.950 1_565 S
H1625 C1637 0.950 . S
H1626 C1634 0.950 1_565 S
H1627 C1636 0.950 . S
H1628 C1638 0.950 . S
H1629 C1640 0.950 . S
H1630 C1642 0.950 1_565 S
H1631 C1643 0.950 1_565 S
C1632 H1624 0.950 1_545 S
C1632 C1633 1.386 . S
C1632 C1634 1.391 . S
C1633 C1632 1.386 . S
C1633 C1637 1.393 . S
C1634 H1626 0.950 1_545 S
C1634 C1632 1.391 . S
C1634 C1635 1.400 . S
C1635 C1634 1.400 . S
C1635 C1636 1.398 . S
C1635 C1641 1.491 . S
C1636 H1627 0.950 . S
C1636 C1635 1.398 . S
C1636 C1637 1.391 . S
C1637 H1625 0.950 . S
C1637 C1633 1.393 . S
C1637 C1636 1.391 . S
C1638 H1628 0.950 . S
C1638 C1639 1.386 . S
C1638 C1640 1.391 . S
C1639 C1638 1.386 . S
C1639 C1643 1.393 . S
C1640 H1629 0.950 . S
C1640 C1638 1.391 . S
C1640 C1641 1.400 . S
C1641 C1635 1.491 . S
C1641 C1640 1.400 . S
C1641 C1642 1.398 . S
C1642 H1630 0.950 1_545 S
C1642 C1641 1.398 . S
C1642 C1643 1.391 . S
C1643 H1631 0.950 1_545 S
C1643 C1639 1.393 . S
C1643 C1642 1.391 . S
H1644 C1652 0.950 . S
H1645 C1657 0.950 . S
H1646 C1654 0.950 . S
H1647 C1656 0.950 . S
H1648 C1658 0.950 . S
H1649 C1660 0.950 . S
H1650 C1662 0.950 . S
H1651 C1663 0.950 . S
C1652 H1644 0.950 . S
C1652 C1653 1.386 . S
C1652 C1654 1.391 . S
C1653 C1652 1.386 . S
C1653 C1657 1.393 1_565 S
C1654 H1646 0.950 . S
C1654 C1652 1.391 . S
C1654 C1655 1.400 . S
C1655 C1654 1.400 . S
C1655 C1656 1.398 1_565 S
C1655 C1661 1.491 . S
C1656 H1647 0.950 . S
C1656 C1655 1.398 1_545 S
C1656 C1657 1.391 . S
C1657 H1645 0.950 . S
C1657 C1653 1.393 1_545 S
C1657 C1656 1.391 . S
C1658 H1648 0.950 . S
C1658 C1659 1.386 1_545 S
C1658 C1660 1.391 . S
C1659 C1658 1.386 1_565 S
C1659 C1663 1.393 . S
C1660 H1649 0.950 . S
C1660 C1658 1.391 . S
C1660 C1661 1.400 1_545 S
C1661 C1655 1.491 . S
C1661 C1660 1.400 1_565 S
C1661 C1662 1.398 . S
C1662 H1650 0.950 . S
C1662 C1661 1.398 . S
C1662 C1663 1.391 . S
C1663 H1651 0.950 . S
C1663 C1659 1.393 . S
C1663 C1662 1.391 . S
H1664 C1672 0.939 . S
H1665 C1677 0.950 . S
H1666 C1674 0.950 . S
H1667 C1676 0.950 . S
H1668 C1678 0.950 . S
H1669 C1680 0.950 . S
H1670 C1682 0.950 . S
H1671 C1683 0.950 . S
C1672 H1664 0.939 . S
C1672 C1673 1.386 . S
C1672 C1674 1.391 . S
C1673 C1672 1.386 . S
C1673 C1677 1.393 . S
C1674 H1666 0.950 . S
C1674 C1672 1.391 . S
C1674 C1675 1.400 . S
C1675 C1674 1.400 . S
C1675 C1676 1.398 . S
C1675 C1681 1.491 . S
C1676 H1667 0.950 . S
C1676 C1675 1.398 . S
C1676 C1677 1.391 . S
C1677 H1665 0.950 . S
C1677 C1673 1.393 . S
C1677 C1676 1.391 . S
C1678 H1668 0.950 . S
C1678 C1679 1.386 . S
C1678 C1680 1.391 . S
C1679 C1678 1.386 . S
C1679 C1683 1.393 . S
C1680 H1669 0.950 . S
C1680 C1678 1.391 . S
C1680 C1681 1.400 . S
C1681 C1675 1.491 . S
C1681 C1680 1.400 . S
C1681 C1682 1.398 . S
C1682 H1670 0.950 . S
C1682 C1681 1.398 . S
C1682 C1683 1.391 . S
C1683 H1671 0.950 . S
C1683 C1679 1.393 . S
C1683 C1682 1.391 . S
H1684 C1692 0.950 . S
H1685 C1697 0.950 . S
H1686 C1694 0.943 1_554 S
H1687 C1696 0.950 . S
H1688 C1698 0.950 . S
H1689 C1700 0.950 . S
H1690 C1702 0.950 . S
H1691 C1703 0.950 . S
C1692 H1684 0.950 . S
C1692 C1693 1.386 . S
C1692 C1694 1.362 1_554 S
C1693 C1692 1.386 . S
C1693 C1697 1.393 1_554 S
C1694 H1686 0.943 1_556 S
C1694 C1692 1.362 1_556 S
C1694 C1695 1.437 . S
C1695 C1694 1.437 . S
C1695 C1696 1.398 . S
C1695 C1701 1.491 . S
C1696 H1687 0.950 . S
C1696 C1695 1.398 . S
C1696 C1697 1.391 . S
C1697 H1685 0.950 . S
C1697 C1693 1.393 1_556 S
C1697 C1696 1.391 . S
C1698 H1688 0.950 . S
C1698 C1699 1.386 . S
C1698 C1700 1.391 . S
C1699 C1698 1.386 . S
C1699 C1703 1.393 . S
C1700 H1689 0.950 . S
C1700 C1698 1.391 . S
C1700 C1701 1.400 . S
C1701 C1695 1.491 . S
C1701 C1700 1.400 . S
C1701 C1702 1.398 . S
C1702 H1690 0.950 . S
C1702 C1701 1.398 . S
C1702 C1703 1.391 . S
C1703 H1691 0.950 . S
C1703 C1699 1.393 . S
C1703 C1702 1.391 . S
H1704 C1712 0.946 1_554 S
H1705 C1717 0.950 . S
H1706 C1714 0.950 . S
H1707 C1716 0.950 . S
H1708 C1718 0.950 . S
H1709 C1720 0.950 . S
H1710 C1722 0.950 . S
H1711 C1723 0.950 . S
C1712 H1704 0.946 1_556 S
C1712 C1713 1.386 1_656 S
C1712 C1714 1.395 . S
C1713 C1712 1.386 1_454 S
C1713 C1717 1.393 1_554 S
C1714 H1706 0.950 . S
C1714 C1712 1.395 . S
C1714 C1715 1.400 1_655 S
C1715 C1714 1.400 1_455 S
C1715 C1716 1.398 . S
C1715 C1721 1.491 . S
C1716 H1707 0.950 . S
C1716 C1715 1.398 . S
C1716 C1717 1.391 . S
C1717 H1705 0.950 . S
C1717 C1713 1.393 1_556 S
C1717 C1716 1.391 . S
C1718 H1708 0.950 . S
C1718 C1719 1.386 . S
C1718 C1720 1.391 . S
C1719 C1718 1.386 . S
C1719 C1723 1.393 1_455 S
C1720 H1709 0.950 . S
C1720 C1718 1.391 . S
C1720 C1721 1.400 . S
C1721 C1715 1.491 . S
C1721 C1720 1.400 . S
C1721 C1722 1.398 1_455 S
C1722 H1710 0.950 . S
C1722 C1721 1.398 1_655 S
C1722 C1723 1.391 . S
C1723 H1711 0.950 . S
C1723 C1719 1.393 1_655 S
C1723 C1722 1.391 . S
H1724 C1732 0.950 . S
H1725 C1737 0.950 . S
H1726 C1734 0.950 . S
H1727 C1736 0.950 . S
H1728 C1738 0.950 . S
H1729 C1740 0.950 . S
H1730 C1742 0.950 . S
H1731 C1743 0.950 . S
C1732 H1724 0.950 . S
C1732 C1733 1.386 . S
C1732 C1734 1.391 . S
C1733 C1732 1.386 . S
C1733 C1737 1.393 . S
C1734 H1726 0.950 . S
C1734 C1732 1.391 . S
C1734 C1735 1.400 . S
C1735 C1734 1.400 . S
C1735 C1736 1.398 . S
C1735 C1741 1.491 . S
C1736 H1727 0.950 . S
C1736 C1735 1.398 . S
C1736 C1737 1.391 . S
C1737 H1725 0.950 . S
C1737 C1733 1.393 . S
C1737 C1736 1.391 . S
C1738 H1728 0.950 . S
C1738 C1739 1.386 . S
C1738 C1740 1.391 . S
C1739 C1738 1.386 . S
C1739 C1743 1.393 . S
C1740 H1729 0.950 . S
C1740 C1738 1.391 . S
C1740 C1741 1.400 . S
C1741 C1735 1.491 . S
C1741 C1740 1.400 . S
C1741 C1742 1.398 . S
C1742 H1730 0.950 . S
C1742 C1741 1.398 . S
C1742 C1743 1.391 . S
C1743 H1731 0.950 . S
C1743 C1739 1.393 . S
C1743 C1742 1.391 . S
H1744 C1752 0.950 . S
H1745 C1757 0.926 1_554 S
H1746 C1754 0.950 . S
H1747 C1756 0.950 . S
H1748 C1758 0.950 . S
H1749 C1760 0.950 . S
H1750 C1762 0.950 . S
H1751 C1763 0.950 . S
C1752 H1744 0.950 . S
C1752 C1753 1.386 . S
C1752 C1754 1.391 . S
C1753 C1752 1.386 . S
C1753 C1757 1.395 1_565 S
C1754 H1746 0.950 . S
C1754 C1752 1.391 . S
C1754 C1755 1.400 . S
C1755 C1754 1.400 . S
C1755 C1756 1.398 1_565 S
C1755 C1761 1.491 . S
C1756 H1747 0.950 . S
C1756 C1755 1.398 1_545 S
C1756 C1757 1.413 . S
C1757 H1745 0.926 1_556 S
C1757 C1753 1.395 1_545 S
C1757 C1756 1.413 . S
C1758 H1748 0.950 . S
C1758 C1759 1.416 . S
C1758 C1760 1.391 . S
C1759 C1758 1.416 . S
C1759 C1763 1.337 1_545 S
C1760 H1749 0.950 . S
C1760 C1758 1.391 . S
C1760 C1761 1.400 1_545 S
C1761 C1755 1.491 . S
C1761 C1760 1.400 1_565 S
C1761 C1762 1.398 . S
C1762 H1750 0.950 . S
C1762 C1761 1.398 . S
C1762 C1763 1.391 . S
C1763 H1751 0.950 . S
C1763 C1759 1.337 1_565 S
C1763 C1762 1.391 . S
H1764 C1772 0.950 1_565 S
H1765 C1777 0.950 . S
H1766 C1774 0.952 . S
H1767 C1776 0.950 . S
H1768 C1778 0.950 . S
H1769 C1780 0.950 . S
H1770 C1782 0.950 . S
H1771 C1783 0.950 . S
C1772 H1764 0.950 1_545 S
C1772 C1773 1.386 . S
C1772 C1774 1.390 1_545 S
C1773 C1772 1.386 . S
C1773 C1777 1.393 . S
C1774 H1766 0.952 . S
C1774 C1772 1.390 1_565 S
C1774 C1775 1.400 1_565 S
C1775 C1774 1.400 1_545 S
C1775 C1776 1.398 . S
C1775 C1781 1.491 . S
C1776 H1767 0.950 . S
C1776 C1775 1.398 . S
C1776 C1777 1.391 . S
C1777 H1765 0.950 . S
C1777 C1773 1.393 . S
C1777 C1776 1.391 . S
C1778 H1768 0.950 . S
C1778 C1779 1.383 . S
C1778 C1780 1.391 . S
C1779 C1778 1.383 . S
C1779 C1783 1.394 1_545 S
C1780 H1769 0.950 . S
C1780 C1778 1.391 . S
C1780 C1781 1.400 . S
C1781 C1775 1.491 . S
C1781 C1780 1.400 . S
C1781 C1782 1.398 1_545 S
C1782 H1770 0.950 . S
C1782 C1781 1.398 1_565 S
C1782 C1783 1.391 . S
C1783 H1771 0.950 . S
C1783 C1779 1.394 1_565 S
C1783 C1782 1.391 . S
H1784 C1792 0.950 . S
H1785 C1797 0.950 . S
H1786 C1794 0.950 . S
H1787 C1796 0.950 . S
H1788 C1798 0.950 . S
H1789 C1800 0.950 . S
H1790 C1802 0.950 . S
H1791 C1803 0.950 . S
C1792 H1784 0.950 . S
C1792 C1793 1.386 . S
C1792 C1794 1.391 . S
C1793 C1792 1.386 . S
C1793 C1797 1.393 1_655 S
C1794 H1786 0.950 . S
C1794 C1792 1.391 . S
C1794 C1795 1.400 . S
C1795 C1794 1.400 . S
C1795 C1796 1.398 1_655 S
C1795 C1801 1.491 . S
C1796 H1787 0.950 . S
C1796 C1795 1.398 1_455 S
C1796 C1797 1.391 . S
C1797 H1785 0.950 . S
C1797 C1793 1.393 1_455 S
C1797 C1796 1.391 . S
C1798 H1788 0.950 . S
C1798 C1799 1.386 1_455 S
C1798 C1800 1.391 . S
C1799 C1798 1.386 1_655 S
C1799 C1803 1.393 . S
C1800 H1789 0.950 . S
C1800 C1798 1.391 . S
C1800 C1801 1.400 1_455 S
C1801 C1795 1.491 . S
C1801 C1800 1.400 1_655 S
C1801 C1802 1.398 . S
C1802 H1790 0.950 . S
C1802 C1801 1.398 . S
C1802 C1803 1.391 . S
C1803 H1791 0.950 . S
C1803 C1799 1.393 . S
C1803 C1802 1.391 . S
H1804 C1812 0.950 . S
H1805 C1817 0.950 . S
H1806 C1814 0.950 . S
H1807 C1816 0.950 . S
H1808 C1818 0.950 . S
H1809 C1820 0.950 . S
H1810 C1822 0.950 . S
H1811 C1823 0.950 . S
C1812 H1804 0.950 . S
C1812 C1813 1.386 . S
C1812 C1814 1.391 . S
C1813 C1812 1.386 . S
C1813 C1817 1.393 . S
C1814 H1806 0.950 . S
C1814 C1812 1.391 . S
C1814 C1815 1.400 . S
C1815 C1814 1.400 . S
C1815 C1816 1.398 . S
C1815 C1821 1.491 . S
C1816 H1807 0.950 . S
C1816 C1815 1.398 . S
C1816 C1817 1.391 . S
C1817 H1805 0.950 . S
C1817 C1813 1.393 . S
C1817 C1816 1.391 . S
C1818 H1808 0.950 . S
C1818 C1819 1.386 . S
C1818 C1820 1.391 . S
C1819 C1818 1.386 . S
C1819 C1823 1.393 . S
C1820 H1809 0.950 . S
C1820 C1818 1.391 . S
C1820 C1821 1.400 . S
C1821 C1815 1.491 . S
C1821 C1820 1.400 . S
C1821 C1822 1.398 . S
C1822 H1810 0.950 . S
C1822 C1821 1.398 . S
C1822 C1823 1.391 . S
C1823 H1811 0.950 . S
C1823 C1819 1.393 . S
C1823 C1822 1.391 . S
H1824 C1832 0.950 . S
H1825 C1837 0.950 . S
H1826 C1834 0.950 . S
H1827 C1836 0.950 . S
H1828 C1838 0.950 . S
H1829 C1840 0.950 . S
H1830 C1842 0.950 . S
H1831 C1843 0.950 . S
C1832 H1824 0.950 . S
C1832 C1833 1.386 . S
C1832 C1834 1.391 . S
C1833 C1832 1.386 . S
C1833 C1837 1.393 . S
C1834 H1826 0.950 . S
C1834 C1832 1.391 . S
C1834 C1835 1.400 . S
C1835 C1834 1.400 . S
C1835 C1836 1.398 . S
C1835 C1841 1.491 . S
C1836 H1827 0.950 . S
C1836 C1835 1.398 . S
C1836 C1837 1.391 . S
C1837 H1825 0.950 . S
C1837 C1833 1.393 . S
C1837 C1836 1.391 . S
C1838 H1828 0.950 . S
C1838 C1839 1.386 . S
C1838 C1840 1.391 . S
C1839 C1838 1.386 . S
C1839 C1843 1.393 . S
C1840 H1829 0.950 . S
C1840 C1838 1.391 . S
C1840 C1841 1.400 . S
C1841 C1835 1.491 . S
C1841 C1840 1.400 . S
C1841 C1842 1.398 . S
C1842 H1830 0.950 . S
C1842 C1841 1.398 . S
C1842 C1843 1.391 . S
C1843 H1831 0.950 . S
C1843 C1839 1.393 . S
C1843 C1842 1.391 . S
H1844 C1852 0.950 . S
H1845 C1857 0.950 . S
H1846 C1854 0.950 . S
H1847 C1856 0.950 . S
H1848 C1858 0.950 . S
H1849 C1860 0.950 . S
H1850 C1862 0.950 . S
H1851 C1863 0.950 . S
C1852 H1844 0.950 . S
C1852 C1853 1.386 . S
C1852 C1854 1.391 . S
C1853 C1852 1.386 . S
C1853 C1857 1.393 . S
C1854 H1846 0.950 . S
C1854 C1852 1.391 . S
C1854 C1855 1.400 . S
C1855 C1854 1.400 . S
C1855 C1856 1.398 . S
C1855 C1861 1.491 . S
C1856 H1847 0.950 . S
C1856 C1855 1.398 . S
C1856 C1857 1.391 . S
C1857 H1845 0.950 . S
C1857 C1853 1.393 . S
C1857 C1856 1.391 . S
C1858 H1848 0.950 . S
C1858 C1859 1.386 . S
C1858 C1860 1.391 . S
C1859 C1858 1.386 . S
C1859 C1863 1.393 . S
C1860 H1849 0.950 . S
C1860 C1858 1.391 . S
C1860 C1861 1.400 . S
C1861 C1855 1.491 . S
C1861 C1860 1.400 . S
C1861 C1862 1.398 . S
C1862 H1850 0.950 . S
C1862 C1861 1.398 . S
C1862 C1863 1.391 . S
C1863 H1851 0.950 . S
C1863 C1859 1.393 . S
C1863 C1862 1.391 . S
H1864 C1872 0.950 . S
H1865 C1877 0.950 . S
H1866 C1874 0.950 . S
H1867 C1876 0.950 . S
H1868 C1878 0.950 . S
H1869 C1880 0.950 . S
H1870 C1882 0.950 . S
H1871 C1883 0.950 . S
C1872 H1864 0.950 . S
C1872 C1873 1.386 . S
C1872 C1874 1.391 . S
C1873 C1872 1.386 . S
C1873 C1877 1.393 . S
C1874 H1866 0.950 . S
C1874 C1872 1.391 . S
C1874 C1875 1.400 . S
C1875 C1874 1.400 . S
C1875 C1876 1.398 . S
C1875 C1881 1.491 . S
C1876 H1867 0.950 . S
C1876 C1875 1.398 . S
C1876 C1877 1.391 . S
C1877 H1865 0.950 . S
C1877 C1873 1.393 . S
C1877 C1876 1.391 . S
C1878 H1868 0.950 . S
C1878 C1879 1.386 . S
C1878 C1880 1.391 . S
C1879 C1878 1.386 . S
C1879 C1883 1.393 . S
C1880 H1869 0.950 . S
C1880 C1878 1.391 . S
C1880 C1881 1.400 . S
C1881 C1875 1.491 . S
C1881 C1880 1.400 . S
C1881 C1882 1.398 . S
C1882 H1870 0.950 . S
C1882 C1881 1.398 . S
C1882 C1883 1.391 . S
C1883 H1871 0.950 . S
C1883 C1879 1.393 . S
C1883 C1882 1.391 . S
H1884 C1892 0.950 . S
H1885 C1897 0.950 . S
H1886 C1894 0.950 . S
H1887 C1896 0.950 . S
H1888 C1898 0.950 . S
H1889 C1900 0.950 . S
H1890 C1902 0.950 . S
H1891 C1903 0.950 . S
C1892 H1884 0.950 . S
C1892 C1893 1.386 . S
C1892 C1894 1.391 . S
C1893 C1892 1.386 . S
C1893 C1897 1.393 . S
C1894 H1886 0.950 . S
C1894 C1892 1.391 . S
C1894 C1895 1.400 . S
C1895 C1894 1.400 . S
C1895 C1896 1.398 . S
C1895 C1901 1.491 . S
C1896 H1887 0.950 . S
C1896 C1895 1.398 . S
C1896 C1897 1.391 . S
C1897 H1885 0.950 . S
C1897 C1893 1.393 . S
C1897 C1896 1.391 . S
C1898 H1888 0.950 . S
C1898 C1899 1.386 . S
C1898 C1900 1.391 . S
C1899 C1898 1.386 . S
C1899 C1903 1.393 . S
C1900 H1889 0.950 . S
C1900 C1898 1.391 . S
C1900 C1901 1.400 . S
C1901 C1895 1.491 . S
C1901 C1900 1.400 . S
C1901 C1902 1.398 . S
C1902 H1890 0.950 . S
C1902 C1901 1.398 . S
C1902 C1903 1.391 . S
C1903 H1891 0.950 . S
C1903 C1899 1.393 . S
C1903 C1902 1.391 . S
H1904 C1912 0.950 . S
H1905 C1917 0.950 . S
H1906 C1914 0.950 . S
H1907 C1916 0.950 . S
H1908 C1918 0.950 . S
H1909 C1920 0.950 . S
H1910 C1922 0.950 . S
H1911 C1923 0.950 . S
C1912 H1904 0.950 . S
C1912 C1913 1.386 . S
C1912 C1914 1.391 . S
C1913 C1912 1.386 . S
C1913 C1917 1.393 . S
C1914 H1906 0.950 . S
C1914 C1912 1.391 . S
C1914 C1915 1.400 . S
C1915 C1914 1.400 . S
C1915 C1916 1.398 . S
C1915 C1921 1.491 . S
C1916 H1907 0.950 . S
C1916 C1915 1.398 . S
C1916 C1917 1.391 . S
C1917 H1905 0.950 . S
C1917 C1913 1.393 . S
C1917 C1916 1.391 . S
C1918 H1908 0.950 . S
C1918 C1919 1.386 . S
C1918 C1920 1.391 . S
C1919 C1918 1.386 . S
C1919 C1923 1.393 . S
C1920 H1909 0.950 . S
C1920 C1918 1.391 . S
C1920 C1921 1.400 . S
C1921 C1915 1.491 . S
C1921 C1920 1.400 . S
C1921 C1922 1.398 . S
C1922 H1910 0.950 . S
C1922 C1921 1.398 . S
C1922 C1923 1.391 . S
C1923 H1911 0.950 . S
C1923 C1919 1.393 . S
C1923 C1922 1.391 . S
H1924 C1932 0.950 . S
H1925 C1937 0.950 . S
H1926 C1934 0.950 . S
H1927 C1936 0.950 . S
H1928 C1938 0.950 . S
H1929 C1940 0.950 . S
H1930 C1942 0.950 . S
H1931 C1943 0.950 . S
C1932 H1924 0.950 . S
C1932 C1933 1.386 . S
C1932 C1934 1.391 . S
C1933 C1932 1.386 . S
C1933 C1937 1.393 . S
C1934 H1926 0.950 . S
C1934 C1932 1.391 . S
C1934 C1935 1.400 . S
C1935 C1934 1.400 . S
C1935 C1936 1.398 . S
C1935 C1941 1.491 . S
C1936 H1927 0.950 . S
C1936 C1935 1.398 . S
C1936 C1937 1.391 . S
C1937 H1925 0.950 . S
C1937 C1933 1.393 . S
C1937 C1936 1.391 . S
C1938 H1928 0.950 . S
C1938 C1939 1.386 . S
C1938 C1940 1.391 . S
C1939 C1938 1.386 . S
C1939 C1943 1.393 . S
C1940 H1929 0.950 . S
C1940 C1938 1.391 . S
C1940 C1941 1.400 . S
C1941 C1935 1.491 . S
C1941 C1940 1.400 . S
C1941 C1942 1.398 . S
C1942 H1930 0.950 . S
C1942 C1941 1.398 . S
C1942 C1943 1.391 . S
C1943 H1931 0.950 . S
C1943 C1939 1.393 . S
C1943 C1942 1.391 . S
H1944 C1952 0.950 . S
H1945 C1957 0.950 . S
H1946 C1954 0.950 . S
H1947 C1956 0.950 . S
H1948 C1958 0.950 . S
H1949 C1960 0.950 . S
H1950 C1962 0.950 . S
H1951 C1963 0.950 . S
C1952 H1944 0.950 . S
C1952 C1953 1.386 . S
C1952 C1954 1.391 . S
C1953 C1952 1.386 . S
C1953 C1957 1.393 . S
C1954 H1946 0.950 . S
C1954 C1952 1.391 . S
C1954 C1955 1.400 . S
C1955 C1954 1.400 . S
C1955 C1956 1.398 . S
C1955 C1961 1.491 . S
C1956 H1947 0.950 . S
C1956 C1955 1.398 . S
C1956 C1957 1.391 . S
C1957 H1945 0.950 . S
C1957 C1953 1.393 . S
C1957 C1956 1.391 . S
C1958 H1948 0.950 . S
C1958 C1959 1.386 . S
C1958 C1960 1.391 . S
C1959 C1958 1.386 . S
C1959 C1963 1.393 . S
C1960 H1949 0.950 . S
C1960 C1958 1.391 . S
C1960 C1961 1.400 . S
C1961 C1955 1.491 . S
C1961 C1960 1.400 . S
C1961 C1962 1.398 . S
C1962 H1950 0.950 . S
C1962 C1961 1.398 . S
C1962 C1963 1.391 . S
C1963 H1951 0.950 . S
C1963 C1959 1.393 . S
C1963 C1962 1.391 . S
H1964 C1972 0.950 . S
H1965 C1977 0.950 . S
H1966 C1974 0.950 . S
H1967 C1976 0.950 . S
H1968 C1978 0.950 . S
H1969 C1980 0.950 . S
H1970 C1982 0.950 . S
H1971 C1983 0.950 . S
C1972 H1964 0.950 . S
C1972 C1973 1.386 . S
C1972 C1974 1.391 . S
C1973 C1972 1.386 . S
C1973 C1977 1.393 . S
C1974 H1966 0.950 . S
C1974 C1972 1.391 . S
C1974 C1975 1.400 . S
C1975 C1974 1.400 . S
C1975 C1976 1.398 . S
C1975 C1981 1.491 . S
C1976 H1967 0.950 . S
C1976 C1975 1.398 . S
C1976 C1977 1.391 . S
C1977 H1965 0.950 . S
C1977 C1973 1.393 . S
C1977 C1976 1.391 . S
C1978 H1968 0.950 . S
C1978 C1979 1.386 . S
C1978 C1980 1.391 . S
C1979 C1978 1.386 . S
C1979 C1983 1.393 . S
C1980 H1969 0.950 . S
C1980 C1978 1.391 . S
C1980 C1981 1.400 . S
C1981 C1975 1.491 . S
C1981 C1980 1.400 . S
C1981 C1982 1.398 . S
C1982 H1970 0.950 . S
C1982 C1981 1.398 . S
C1982 C1983 1.391 . S
C1983 H1971 0.950 . S
C1983 C1979 1.393 . S
C1983 C1982 1.391 . S
H1984 C1992 0.950 . S
H1985 C1997 0.950 . S
H1986 C1994 0.950 . S
H1987 C1996 0.950 . S
H1988 C1998 0.950 . S
H1989 C2000 0.950 . S
H1990 C2002 0.950 . S
H1991 C2003 0.950 . S
C1992 H1984 0.950 . S
C1992 C1993 1.386 . S
C1992 C1994 1.391 . S
C1993 C1992 1.386 . S
C1993 C1997 1.393 . S
C1994 H1986 0.950 . S
C1994 C1992 1.391 . S
C1994 C1995 1.400 . S
C1995 C1994 1.400 . S
C1995 C1996 1.398 . S
C1995 C2001 1.491 . S
C1996 H1987 0.950 . S
C1996 C1995 1.398 . S
C1996 C1997 1.391 . S
C1997 H1985 0.950 . S
C1997 C1993 1.393 . S
C1997 C1996 1.391 . S
C1998 H1988 0.950 . S
C1998 C1999 1.386 . S
C1998 C2000 1.391 . S
C1999 C1998 1.386 . S
C1999 C2003 1.393 . S
C2000 H1989 0.950 . S
C2000 C1998 1.391 . S
C2000 C2001 1.400 . S
C2001 C1995 1.491 . S
C2001 C2000 1.400 . S
C2001 C2002 1.398 . S
C2002 H1990 0.950 . S
C2002 C2001 1.398 . S
C2002 C2003 1.391 . S
C2003 H1991 0.950 . S
C2003 C1999 1.393 . S
C2003 C2002 1.391 . S
H2004 C2012 0.950 . S
H2005 C2017 0.950 . S
H2006 C2014 0.950 . S
H2007 C2016 0.950 . S
H2008 C2018 0.950 . S
H2009 C2020 0.950 . S
H2010 C2022 0.950 . S
H2011 C2023 0.950 . S
C2012 H2004 0.950 . S
C2012 C2013 1.386 . S
C2012 C2014 1.391 . S
C2013 C2012 1.386 . S
C2013 C2017 1.393 . S
C2014 H2006 0.950 . S
C2014 C2012 1.391 . S
C2014 C2015 1.400 . S
C2015 C2014 1.400 . S
C2015 C2016 1.398 . S
C2015 C2021 1.491 . S
C2016 H2007 0.950 . S
C2016 C2015 1.398 . S
C2016 C2017 1.391 . S
C2017 H2005 0.950 . S
C2017 C2013 1.393 . S
C2017 C2016 1.391 . S
C2018 H2008 0.950 . S
C2018 C2019 1.386 . S
C2018 C2020 1.391 . S
C2019 C2018 1.386 . S
C2019 C2023 1.393 . S
C2020 H2009 0.950 . S
C2020 C2018 1.391 . S
C2020 C2021 1.400 . S
C2021 C2015 1.491 . S
C2021 C2020 1.400 . S
C2021 C2022 1.398 . S
C2022 H2010 0.950 . S
C2022 C2021 1.398 . S
C2022 C2023 1.391 . S
C2023 H2011 0.950 . S
C2023 C2019 1.393 . S
C2023 C2022 1.391 . S
H2024 C2032 0.950 . S
H2025 C2037 0.950 . S
H2026 C2034 0.950 . S
H2027 C2036 0.950 . S
H2028 C2038 0.950 . S
H2029 C2040 0.950 . S
H2030 C2042 0.950 . S
H2031 C2043 0.950 . S
C2032 H2024 0.950 . S
C2032 C2033 1.386 . S
C2032 C2034 1.391 . S
C2033 C2032 1.386 . S
C2033 C2037 1.393 . S
C2034 H2026 0.950 . S
C2034 C2032 1.391 . S
C2034 C2035 1.400 . S
C2035 C2034 1.400 . S
C2035 C2036 1.398 . S
C2035 C2041 1.491 . S
C2036 H2027 0.950 . S
C2036 C2035 1.398 . S
C2036 C2037 1.391 . S
C2037 H2025 0.950 . S
C2037 C2033 1.393 . S
C2037 C2036 1.391 . S
C2038 H2028 0.950 . S
C2038 C2039 1.386 . S
C2038 C2040 1.391 . S
C2039 C2038 1.386 . S
C2039 C2043 1.393 . S
C2040 H2029 0.950 . S
C2040 C2038 1.391 . S
C2040 C2041 1.400 . S
C2041 C2035 1.491 . S
C2041 C2040 1.400 . S
C2041 C2042 1.398 . S
C2042 H2030 0.950 . S
C2042 C2041 1.398 . S
C2042 C2043 1.391 . S
C2043 H2031 0.950 . S
C2043 C2039 1.393 . S
C2043 C2042 1.391 . S
H2044 C2052 0.950 . S
H2045 C2057 0.950 . S
H2046 C2054 0.950 . S
H2047 C2056 0.950 . S
H2048 C2058 0.950 . S
H2049 C2060 0.950 . S
H2050 C2062 0.950 . S
H2051 C2063 0.950 . S
C2052 H2044 0.950 . S
C2052 C2053 1.386 . S
C2052 C2054 1.391 . S
C2053 C2052 1.386 . S
C2053 C2057 1.393 . S
C2054 H2046 0.950 . S
C2054 C2052 1.391 . S
C2054 C2055 1.400 . S
C2055 C2054 1.400 . S
C2055 C2056 1.398 . S
C2055 C2061 1.491 . S
C2056 H2047 0.950 . S
C2056 C2055 1.398 . S
C2056 C2057 1.391 . S
C2057 H2045 0.950 . S
C2057 C2053 1.393 . S
C2057 C2056 1.391 . S
C2058 H2048 0.950 . S
C2058 C2059 1.386 . S
C2058 C2060 1.391 . S
C2059 C2058 1.386 . S
C2059 C2063 1.393 . S
C2060 H2049 0.950 . S
C2060 C2058 1.391 . S
C2060 C2061 1.400 . S
C2061 C2055 1.491 . S
C2061 C2060 1.400 . S
C2061 C2062 1.398 . S
C2062 H2050 0.950 . S
C2062 C2061 1.398 . S
C2062 C2063 1.391 . S
C2063 H2051 0.950 . S
C2063 C2059 1.393 . S
C2063 C2062 1.391 . S
H2064 C2072 0.950 . S
H2065 C2077 0.950 . S
H2066 C2074 0.950 . S
H2067 C2076 0.950 . S
H2068 C2078 0.950 . S
H2069 C2080 0.950 . S
H2070 C2082 0.950 . S
H2071 C2083 0.950 . S
C2072 H2064 0.950 . S
C2072 C2073 1.386 . S
C2072 C2074 1.391 . S
C2073 C2072 1.386 . S
C2073 C2077 1.393 . S
C2074 H2066 0.950 . S
C2074 C2072 1.391 . S
C2074 C2075 1.400 . S
C2075 C2074 1.400 . S
C2075 C2076 1.398 . S
C2075 C2081 1.491 . S
C2076 H2067 0.950 . S
C2076 C2075 1.398 . S
C2076 C2077 1.391 . S
C2077 H2065 0.950 . S
C2077 C2073 1.393 . S
C2077 C2076 1.391 . S
C2078 H2068 0.950 . S
C2078 C2079 1.386 . S
C2078 C2080 1.391 . S
C2079 C2078 1.386 . S
C2079 C2083 1.393 . S
C2080 H2069 0.950 . S
C2080 C2078 1.391 . S
C2080 C2081 1.400 . S
C2081 C2075 1.491 . S
C2081 C2080 1.400 . S
C2081 C2082 1.398 . S
C2082 H2070 0.950 . S
C2082 C2081 1.398 . S
C2082 C2083 1.391 . S
C2083 H2071 0.950 . S
C2083 C2079 1.393 . S
C2083 C2082 1.391 . S
H2084 C2092 0.950 . S
H2085 C2097 0.950 . S
H2086 C2094 0.950 . S
H2087 C2096 0.950 . S
H2088 C2098 0.950 . S
H2089 C2100 0.950 . S
H2090 C2102 0.950 . S
H2091 C2103 0.950 . S
C2092 H2084 0.950 . S
C2092 C2093 1.386 . S
C2092 C2094 1.391 . S
C2093 C2092 1.386 . S
C2093 C2097 1.393 . S
C2094 H2086 0.950 . S
C2094 C2092 1.391 . S
C2094 C2095 1.400 . S
C2095 C2094 1.400 . S
C2095 C2096 1.398 . S
C2095 C2101 1.491 . S
C2096 H2087 0.950 . S
C2096 C2095 1.398 . S
C2096 C2097 1.391 . S
C2097 H2085 0.950 . S
C2097 C2093 1.393 . S
C2097 C2096 1.391 . S
C2098 H2088 0.950 . S
C2098 C2099 1.386 . S
C2098 C2100 1.391 . S
C2099 C2098 1.386 . S
C2099 C2103 1.393 . S
C2100 H2089 0.950 . S
C2100 C2098 1.391 . S
C2100 C2101 1.400 . S
C2101 C2095 1.491 . S
C2101 C2100 1.400 . S
C2101 C2102 1.398 . S
C2102 H2090 0.950 . S
C2102 C2101 1.398 . S
C2102 C2103 1.391 . S
C2103 H2091 0.950 . S
C2103 C2099 1.393 . S
C2103 C2102 1.391 . S
H2104 C2112 0.950 . S
H2105 C2117 0.950 . S
H2106 C2114 0.950 . S
H2107 C2116 0.950 . S
H2108 C2118 0.950 . S
H2109 C2120 0.950 . S
H2110 C2122 0.950 . S
H2111 C2123 0.950 . S
C2112 H2104 0.950 . S
C2112 C2113 1.386 . S
C2112 C2114 1.391 . S
C2113 C2112 1.386 . S
C2113 C2117 1.393 . S
C2114 H2106 0.950 . S
C2114 C2112 1.391 . S
C2114 C2115 1.400 . S
C2115 C2114 1.400 . S
C2115 C2116 1.398 . S
C2115 C2121 1.491 . S
C2116 H2107 0.950 . S
C2116 C2115 1.398 . S
C2116 C2117 1.391 . S
C2117 H2105 0.950 . S
C2117 C2113 1.393 . S
C2117 C2116 1.391 . S
C2118 H2108 0.950 . S
C2118 C2119 1.386 . S
C2118 C2120 1.391 . S
C2119 C2118 1.386 . S
C2119 C2123 1.393 . S
C2120 H2109 0.950 . S
C2120 C2118 1.391 . S
C2120 C2121 1.400 . S
C2121 C2115 1.491 . S
C2121 C2120 1.400 . S
C2121 C2122 1.398 . S
C2122 H2110 0.950 . S
C2122 C2121 1.398 . S
C2122 C2123 1.391 . S
C2123 H2111 0.950 . S
C2123 C2119 1.393 . S
C2123 C2122 1.391 . S
H2124 C2132 0.950 . S
H2125 C2137 0.950 . S
H2126 C2134 0.950 . S
H2127 C2136 0.950 . S
H2128 C2138 0.950 . S
H2129 C2140 0.950 . S
H2130 C2142 0.950 . S
H2131 C2143 0.950 . S
C2132 H2124 0.950 . S
C2132 C2133 1.386 . S
C2132 C2134 1.391 . S
C2133 C2132 1.386 . S
C2133 C2137 1.393 . S
C2134 H2126 0.950 . S
C2134 C2132 1.391 . S
C2134 C2135 1.400 . S
C2135 C2134 1.400 . S
C2135 C2136 1.398 . S
C2135 C2141 1.491 . S
C2136 H2127 0.950 . S
C2136 C2135 1.398 . S
C2136 C2137 1.391 . S
C2137 H2125 0.950 . S
C2137 C2133 1.393 . S
C2137 C2136 1.391 . S
C2138 H2128 0.950 . S
C2138 C2139 1.386 . S
C2138 C2140 1.391 . S
C2139 C2138 1.386 . S
C2139 C2143 1.393 . S
C2140 H2129 0.950 . S
C2140 C2138 1.391 . S
C2140 C2141 1.400 . S
C2141 C2135 1.491 . S
C2141 C2140 1.400 . S
C2141 C2142 1.398 . S
C2142 H2130 0.950 . S
C2142 C2141 1.398 . S
C2142 C2143 1.391 . S
C2143 H2131 0.950 . S
C2143 C2139 1.393 . S
C2143 C2142 1.391 . S
H2144 C2152 0.950 . S
H2145 C2157 0.950 . S
H2146 C2154 0.950 . S
H2147 C2156 0.950 . S
H2148 C2158 0.950 . S
H2149 C2160 0.950 . S
H2150 C2162 0.950 . S
H2151 C2163 0.950 . S
C2152 H2144 0.950 . S
C2152 C2153 1.386 . S
C2152 C2154 1.391 . S
C2153 C2152 1.386 . S
C2153 C2157 1.393 . S
C2154 H2146 0.950 . S
C2154 C2152 1.391 . S
C2154 C2155 1.400 . S
C2155 C2154 1.400 . S
C2155 C2156 1.398 . S
C2155 C2161 1.491 . S
C2156 H2147 0.950 . S
C2156 C2155 1.398 . S
C2156 C2157 1.391 . S
C2157 H2145 0.950 . S
C2157 C2153 1.393 . S
C2157 C2156 1.391 . S
C2158 H2148 0.950 . S
C2158 C2159 1.386 . S
C2158 C2160 1.391 . S
C2159 C2158 1.386 . S
C2159 C2163 1.393 . S
C2160 H2149 0.950 . S
C2160 C2158 1.391 . S
C2160 C2161 1.400 . S
C2161 C2155 1.491 . S
C2161 C2160 1.400 . S
C2161 C2162 1.398 . S
C2162 H2150 0.950 . S
C2162 C2161 1.398 . S
C2162 C2163 1.391 . S
C2163 H2151 0.950 . S
C2163 C2159 1.393 . S
C2163 C2162 1.391 . S
H2164 C2172 0.950 . S
H2165 C2177 0.950 . S
H2166 C2174 0.950 . S
H2167 C2176 0.950 . S
H2168 C2178 0.950 . S
H2169 C2180 0.950 . S
H2170 C2182 0.950 . S
H2171 C2183 0.950 . S
C2172 H2164 0.950 . S
C2172 C2173 1.386 . S
C2172 C2174 1.391 . S
C2173 C2172 1.386 . S
C2173 C2177 1.393 . S
C2174 H2166 0.950 . S
C2174 C2172 1.391 . S
C2174 C2175 1.400 . S
C2175 C2174 1.400 . S
C2175 C2176 1.398 . S
C2175 C2181 1.491 . S
C2176 H2167 0.950 . S
C2176 C2175 1.398 . S
C2176 C2177 1.391 . S
C2177 H2165 0.950 . S
C2177 C2173 1.393 . S
C2177 C2176 1.391 . S
C2178 H2168 0.950 . S
C2178 C2179 1.386 . S
C2178 C2180 1.391 . S
C2179 C2178 1.386 . S
C2179 C2183 1.393 . S
C2180 H2169 0.950 . S
C2180 C2178 1.391 . S
C2180 C2181 1.400 . S
C2181 C2175 1.491 . S
C2181 C2180 1.400 . S
C2181 C2182 1.398 . S
C2182 H2170 0.950 . S
C2182 C2181 1.398 . S
C2182 C2183 1.391 . S
C2183 H2171 0.950 . S
C2183 C2179 1.393 . S
C2183 C2182 1.391 . S
H2184 C2192 0.950 . S
H2185 C2197 0.950 . S
H2186 C2194 0.950 . S
H2187 C2196 0.950 . S
H2188 C2198 0.950 . S
H2189 C2200 0.950 . S
H2190 C2202 0.950 . S
H2191 C2203 0.950 . S
C2192 H2184 0.950 . S
C2192 C2193 1.386 . S
C2192 C2194 1.391 . S
C2193 C2192 1.386 . S
C2193 C2197 1.393 . S
C2194 H2186 0.950 . S
C2194 C2192 1.391 . S
C2194 C2195 1.400 . S
C2195 C2194 1.400 . S
C2195 C2196 1.398 . S
C2195 C2201 1.491 . S
C2196 H2187 0.950 . S
C2196 C2195 1.398 . S
C2196 C2197 1.391 . S
C2197 H2185 0.950 . S
C2197 C2193 1.393 . S
C2197 C2196 1.391 . S
C2198 H2188 0.950 . S
C2198 C2199 1.386 . S
C2198 C2200 1.391 . S
C2199 C2198 1.386 . S
C2199 C2203 1.393 . S
C2200 H2189 0.950 . S
C2200 C2198 1.391 . S
C2200 C2201 1.400 . S
C2201 C2195 1.491 . S
C2201 C2200 1.400 . S
C2201 C2202 1.398 . S
C2202 H2190 0.950 . S
C2202 C2201 1.398 . S
C2202 C2203 1.391 . S
C2203 H2191 0.950 . S
C2203 C2199 1.393 . S
C2203 C2202 1.391 . S
H2204 C2212 0.950 . S
H2205 C2217 0.950 . S
H2206 C2214 0.950 . S
H2207 C2216 0.950 . S
H2208 C2218 0.950 . S
H2209 C2220 0.950 . S
H2210 C2222 0.950 . S
H2211 C2223 0.950 . S
C2212 H2204 0.950 . S
C2212 C2213 1.386 . S
C2212 C2214 1.391 . S
C2213 C2212 1.386 . S
C2213 C2217 1.393 . S
C2214 H2206 0.950 . S
C2214 C2212 1.391 . S
C2214 C2215 1.400 . S
C2215 C2214 1.400 . S
C2215 C2216 1.398 . S
C2215 C2221 1.491 . S
C2216 H2207 0.950 . S
C2216 C2215 1.398 . S
C2216 C2217 1.391 . S
C2217 H2205 0.950 . S
C2217 C2213 1.393 . S
C2217 C2216 1.391 . S
C2218 H2208 0.950 . S
C2218 C2219 1.386 . S
C2218 C2220 1.391 . S
C2219 C2218 1.386 . S
C2219 C2223 1.393 . S
C2220 H2209 0.950 . S
C2220 C2218 1.391 . S
C2220 C2221 1.400 . S
C2221 C2215 1.491 . S
C2221 C2220 1.400 . S
C2221 C2222 1.398 . S
C2222 H2210 0.950 . S
C2222 C2221 1.398 . S
C2222 C2223 1.391 . S
C2223 H2211 0.950 . S
C2223 C2219 1.393 . S
C2223 C2222 1.391 . S
H2224 C2232 0.950 . S
H2225 C2237 0.950 . S
H2226 C2234 0.950 . S
H2227 C2236 0.950 . S
H2228 C2238 0.950 . S
H2229 C2240 0.950 . S
H2230 C2242 0.950 . S
H2231 C2243 0.950 . S
C2232 H2224 0.950 . S
C2232 C2233 1.386 . S
C2232 C2234 1.391 . S
C2233 C2232 1.386 . S
C2233 C2237 1.393 . S
C2234 H2226 0.950 . S
C2234 C2232 1.391 . S
C2234 C2235 1.400 . S
C2235 C2234 1.400 . S
C2235 C2236 1.398 . S
C2235 C2241 1.491 . S
C2236 H2227 0.950 . S
C2236 C2235 1.398 . S
C2236 C2237 1.391 . S
C2237 H2225 0.950 . S
C2237 C2233 1.393 . S
C2237 C2236 1.391 . S
C2238 H2228 0.950 . S
C2238 C2239 1.386 . S
C2238 C2240 1.391 . S
C2239 C2238 1.386 . S
C2239 C2243 1.393 . S
C2240 H2229 0.950 . S
C2240 C2238 1.391 . S
C2240 C2241 1.400 . S
C2241 C2235 1.491 . S
C2241 C2240 1.400 . S
C2241 C2242 1.398 . S
C2242 H2230 0.950 . S
C2242 C2241 1.398 . S
C2242 C2243 1.391 . S
C2243 H2231 0.950 . S
C2243 C2239 1.393 . S
C2243 C2242 1.391 . S
H2244 C2252 0.950 . S
H2245 C2257 0.950 . S
H2246 C2254 0.950 . S
H2247 C2256 0.950 . S
H2248 C2258 0.950 . S
H2249 C2260 0.950 . S
H2250 C2262 0.950 . S
H2251 C2263 0.950 . S
C2252 H2244 0.950 . S
C2252 C2253 1.386 . S
C2252 C2254 1.391 . S
C2253 C2252 1.386 . S
C2253 C2257 1.393 . S
C2254 H2246 0.950 . S
C2254 C2252 1.391 . S
C2254 C2255 1.400 . S
C2255 C2254 1.400 . S
C2255 C2256 1.398 . S
C2255 C2261 1.491 . S
C2256 H2247 0.950 . S
C2256 C2255 1.398 . S
C2256 C2257 1.391 . S
C2257 H2245 0.950 . S
C2257 C2253 1.393 . S
C2257 C2256 1.391 . S
C2258 H2248 0.950 . S
C2258 C2259 1.386 . S
C2258 C2260 1.391 . S
C2259 C2258 1.386 . S
C2259 C2263 1.393 . S
C2260 H2249 0.950 . S
C2260 C2258 1.391 . S
C2260 C2261 1.400 . S
C2261 C2255 1.491 . S
C2261 C2260 1.400 . S
C2261 C2262 1.398 . S
C2262 H2250 0.950 . S
C2262 C2261 1.398 . S
C2262 C2263 1.391 . S
C2263 H2251 0.950 . S
C2263 C2259 1.393 . S
C2263 C2262 1.391 . S
H2264 C2272 0.950 . S
H2265 C2277 0.950 . S
H2266 C2274 0.950 . S
H2267 C2276 0.950 . S
H2268 C2278 0.950 . S
H2269 C2280 0.950 . S
H2270 C2282 0.950 . S
H2271 C2283 0.950 . S
C2272 H2264 0.950 . S
C2272 C2273 1.386 . S
C2272 C2274 1.391 . S
C2273 C2272 1.386 . S
C2273 C2277 1.393 . S
C2274 H2266 0.950 . S
C2274 C2272 1.391 . S
C2274 C2275 1.400 . S
C2275 C2274 1.400 . S
C2275 C2276 1.398 . S
C2275 C2281 1.491 . S
C2276 H2267 0.950 . S
C2276 C2275 1.398 . S
C2276 C2277 1.391 . S
C2277 H2265 0.950 . S
C2277 C2273 1.393 . S
C2277 C2276 1.391 . S
C2278 H2268 0.950 . S
C2278 C2279 1.386 . S
C2278 C2280 1.391 . S
C2279 C2278 1.386 . S
C2279 C2283 1.393 . S
C2280 H2269 0.950 . S
C2280 C2278 1.391 . S
C2280 C2281 1.400 . S
C2281 C2275 1.491 . S
C2281 C2280 1.400 . S
C2281 C2282 1.398 . S
C2282 H2270 0.950 . S
C2282 C2281 1.398 . S
C2282 C2283 1.391 . S
C2283 H2271 0.950 . S
C2283 C2279 1.393 . S
C2283 C2282 1.391 . S
H2284 C2292 0.950 . S
H2285 C2297 0.950 . S
H2286 C2294 0.950 . S
H2287 C2296 0.950 . S
H2288 C2298 0.950 . S
H2289 C2300 0.950 . S
H2290 C2302 0.950 . S
H2291 C2303 0.950 . S
C2292 H2284 0.950 . S
C2292 C2293 1.386 . S
C2292 C2294 1.391 . S
C2293 C2292 1.386 . S
C2293 C2297 1.393 . S
C2294 H2286 0.950 . S
C2294 C2292 1.391 . S
C2294 C2295 1.400 . S
C2295 C2294 1.400 . S
C2295 C2296 1.398 . S
C2295 C2301 1.491 . S
C2296 H2287 0.950 . S
C2296 C2295 1.398 . S
C2296 C2297 1.391 . S
C2297 H2285 0.950 . S
C2297 C2293 1.393 . S
C2297 C2296 1.391 . S
C2298 H2288 0.950 . S
C2298 C2299 1.386 . S
C2298 C2300 1.391 . S
C2299 C2298 1.386 . S
C2299 C2303 1.393 . S
C2300 H2289 0.950 . S
C2300 C2298 1.391 . S
C2300 C2301 1.400 . S
C2301 C2295 1.491 . S
C2301 C2300 1.400 . S
C2301 C2302 1.398 . S
C2302 H2290 0.950 . S
C2302 C2301 1.398 . S
C2302 C2303 1.391 . S
C2303 H2291 0.950 . S
C2303 C2299 1.393 . S
C2303 C2302 1.391 . S
H2304 C2312 0.950 . S
H2305 C2317 0.950 . S
H2306 C2314 0.950 . S
H2307 C2316 0.950 . S
H2308 C2318 0.950 . S
H2309 C2320 0.950 . S
H2310 C2322 0.950 . S
H2311 C2323 0.950 . S
C2312 H2304 0.950 . S
C2312 C2313 1.386 . S
C2312 C2314 1.391 . S
C2313 C2312 1.386 . S
C2313 C2317 1.393 . S
C2314 H2306 0.950 . S
C2314 C2312 1.391 . S
C2314 C2315 1.400 . S
C2315 C2314 1.400 . S
C2315 C2316 1.398 . S
C2315 C2321 1.491 . S
C2316 H2307 0.950 . S
C2316 C2315 1.398 . S
C2316 C2317 1.391 . S
C2317 H2305 0.950 . S
C2317 C2313 1.393 . S
C2317 C2316 1.391 . S
C2318 H2308 0.950 . S
C2318 C2319 1.386 . S
C2318 C2320 1.391 . S
C2319 C2318 1.386 . S
C2319 C2323 1.393 . S
C2320 H2309 0.950 . S
C2320 C2318 1.391 . S
C2320 C2321 1.400 . S
C2321 C2315 1.491 . S
C2321 C2320 1.400 . S
C2321 C2322 1.398 . S
C2322 H2310 0.950 . S
C2322 C2321 1.398 . S
C2322 C2323 1.391 . S
C2323 H2311 0.950 . S
C2323 C2319 1.393 . S
C2323 C2322 1.391 . S
H2324 C2332 0.950 . S
H2325 C2337 0.950 . S
H2326 C2334 0.950 . S
H2327 C2336 0.950 . S
H2328 C2338 0.950 . S
H2329 C2340 0.950 . S
H2330 C2342 0.950 . S
H2331 C2343 0.950 . S
C2332 H2324 0.950 . S
C2332 C2333 1.386 . S
C2332 C2334 1.391 . S
C2333 C2332 1.386 . S
C2333 C2337 1.393 . S
C2334 H2326 0.950 . S
C2334 C2332 1.391 . S
C2334 C2335 1.400 . S
C2335 C2334 1.400 . S
C2335 C2336 1.398 . S
C2335 C2341 1.491 . S
C2336 H2327 0.950 . S
C2336 C2335 1.398 . S
C2336 C2337 1.391 . S
C2337 H2325 0.950 . S
C2337 C2333 1.393 . S
C2337 C2336 1.391 . S
C2338 H2328 0.950 . S
C2338 C2339 1.386 . S
C2338 C2340 1.391 . S
C2339 C2338 1.386 . S
C2339 C2343 1.393 . S
C2340 H2329 0.950 . S
C2340 C2338 1.391 . S
C2340 C2341 1.400 . S
C2341 C2335 1.491 . S
C2341 C2340 1.400 . S
C2341 C2342 1.398 . S
C2342 H2330 0.950 . S
C2342 C2341 1.398 . S
C2342 C2343 1.391 . S
C2343 H2331 0.950 . S
C2343 C2339 1.393 . S
C2343 C2342 1.391 . S
H2344 C2352 0.950 . S
H2345 C2357 0.950 . S
H2346 C2354 0.950 . S
H2347 C2356 0.950 . S
H2348 C2358 0.950 . S
H2349 C2360 0.950 . S
H2350 C2362 0.950 . S
H2351 C2363 0.950 . S
C2352 H2344 0.950 . S
C2352 C2353 1.386 . S
C2352 C2354 1.391 . S
C2353 C2352 1.386 . S
C2353 C2357 1.393 . S
C2354 H2346 0.950 . S
C2354 C2352 1.391 . S
C2354 C2355 1.400 . S
C2355 C2354 1.400 . S
C2355 C2356 1.398 . S
C2355 C2361 1.491 . S
C2356 H2347 0.950 . S
C2356 C2355 1.398 . S
C2356 C2357 1.391 . S
C2357 H2345 0.950 . S
C2357 C2353 1.393 . S
C2357 C2356 1.391 . S
C2358 H2348 0.950 . S
C2358 C2359 1.386 . S
C2358 C2360 1.391 . S
C2359 C2358 1.386 . S
C2359 C2363 1.393 . S
C2360 H2349 0.950 . S
C2360 C2358 1.391 . S
C2360 C2361 1.400 . S
C2361 C2355 1.491 . S
C2361 C2360 1.400 . S
C2361 C2362 1.398 . S
C2362 H2350 0.950 . S
C2362 C2361 1.398 . S
C2362 C2363 1.391 . S
C2363 H2351 0.950 . S
C2363 C2359 1.393 . S
C2363 C2362 1.391 . S
H2364 C2372 0.950 . S
H2365 C2377 0.945 1_554 S
H2366 C2374 0.950 . S
H2367 C2376 0.950 . S
H2368 C2378 0.950 . S
H2369 C2380 0.950 . S
H2370 C2382 0.950 . S
H2371 C2383 0.950 . S
C2372 H2364 0.950 . S
C2372 C2373 1.405 . S
C2372 C2374 1.391 . S
C2373 C2372 1.405 . S
C2373 C2377 1.391 . S
C2374 H2366 0.950 . S
C2374 C2372 1.391 . S
C2374 C2375 1.400 . S
C2375 C2374 1.400 . S
C2375 C2376 1.398 . S
C2375 C2381 1.491 . S
C2376 H2367 0.950 . S
C2376 C2375 1.398 . S
C2376 C2377 1.394 . S
C2377 H2365 0.945 1_556 S
C2377 C2373 1.391 . S
C2377 C2376 1.394 . S
C2378 H2368 0.950 . S
C2378 C2379 1.386 . S
C2378 C2380 1.391 . S
C2379 C2378 1.386 . S
C2379 C2383 1.393 . S
C2380 H2369 0.950 . S
C2380 C2378 1.391 . S
C2380 C2381 1.400 . S
C2381 C2375 1.491 . S
C2381 C2380 1.400 . S
C2381 C2382 1.398 . S
C2382 H2370 0.950 . S
C2382 C2381 1.398 . S
C2382 C2383 1.391 . S
C2383 H2371 0.950 . S
C2383 C2379 1.393 . S
C2383 C2382 1.391 . S
H2384 C2392 0.950 . S
H2385 C2397 0.950 . S
H2386 C2394 0.950 . S
H2387 C2396 0.950 . S
H2388 C2398 0.950 . S
H2389 C2400 0.950 . S
H2390 C2402 0.950 . S
H2391 C2403 0.950 . S
C2392 H2384 0.950 . S
C2392 C2393 1.386 . S
C2392 C2394 1.391 . S
C2393 C2392 1.386 . S
C2393 C2397 1.393 . S
C2394 H2386 0.950 . S
C2394 C2392 1.391 . S
C2394 C2395 1.400 . S
C2395 C2394 1.400 . S
C2395 C2396 1.398 . S
C2395 C2401 1.491 . S
C2396 H2387 0.950 . S
C2396 C2395 1.398 . S
C2396 C2397 1.391 . S
C2397 H2385 0.950 . S
C2397 C2393 1.393 . S
C2397 C2396 1.391 . S
C2398 H2388 0.950 . S
C2398 C2399 1.386 . S
C2398 C2400 1.391 . S
C2399 C2398 1.386 . S
C2399 C2403 1.393 . S
C2400 H2389 0.950 . S
C2400 C2398 1.391 . S
C2400 C2401 1.400 . S
C2401 C2395 1.491 . S
C2401 C2400 1.400 . S
C2401 C2402 1.398 . S
C2402 H2390 0.950 . S
C2402 C2401 1.398 . S
C2402 C2403 1.391 . S
C2403 H2391 0.950 . S
C2403 C2399 1.393 . S
C2403 C2402 1.391 . S
H2404 C2412 0.950 . S
H2405 C2417 0.950 . S
H2406 C2414 0.950 1_556 S
H2407 C2416 0.950 . S
H2408 C2418 0.944 1_554 S
H2409 C2420 0.950 . S
H2410 C2422 0.950 . S
H2411 C2423 0.950 . S
C2412 H2404 0.950 . S
C2412 C2413 1.386 . S
C2412 C2414 1.391 . S
C2413 C2412 1.386 . S
C2413 C2417 1.393 . S
C2414 H2406 0.950 1_554 S
C2414 C2412 1.391 . S
C2414 C2415 1.400 . S
C2415 C2414 1.400 . S
C2415 C2416 1.398 . S
C2415 C2421 1.491 . S
C2416 H2407 0.950 . S
C2416 C2415 1.398 . S
C2416 C2417 1.391 . S
C2417 H2405 0.950 . S
C2417 C2413 1.393 . S
C2417 C2416 1.391 . S
C2418 H2408 0.944 1_556 S
C2418 C2419 1.386 . S
C2418 C2420 1.391 1_556 S
C2419 C2418 1.386 . S
C2419 C2423 1.393 . S
C2420 H2409 0.950 . S
C2420 C2418 1.391 1_554 S
C2420 C2421 1.400 . S
C2421 C2415 1.491 . S
C2421 C2420 1.400 . S
C2421 C2422 1.398 1_554 S
C2422 H2410 0.950 . S
C2422 C2421 1.398 1_556 S
C2422 C2423 1.391 . S
C2423 H2411 0.950 . S
C2423 C2419 1.393 . S
C2423 C2422 1.391 . S
H2424 C2432 0.950 . S
H2425 C2437 0.950 . S
H2426 C2434 0.950 . S
H2427 C2436 0.950 . S
H2428 C2438 0.950 . S
H2429 C2440 0.950 . S
H2430 C2442 0.950 . S
H2431 C2443 0.950 . S
C2432 H2424 0.950 . S
C2432 C2433 1.386 1_556 S
C2432 C2434 1.391 . S
C2433 C2432 1.386 1_554 S
C2433 C2437 1.393 . S
C2434 H2426 0.950 . S
C2434 C2432 1.391 . S
C2434 C2435 1.400 . S
C2435 C2434 1.400 . S
C2435 C2436 1.398 1_556 S
C2435 C2441 1.491 . S
C2436 H2427 0.950 . S
C2436 C2435 1.398 1_554 S
C2436 C2437 1.391 . S
C2437 H2425 0.950 . S
C2437 C2433 1.393 . S
C2437 C2436 1.391 . S
C2438 H2428 0.950 . S
C2438 C2439 1.386 . S
C2438 C2440 1.391 . S
C2439 C2438 1.386 . S
C2439 C2443 1.393 . S
C2440 H2429 0.950 . S
C2440 C2438 1.391 . S
C2440 C2441 1.400 . S
C2441 C2435 1.491 . S
C2441 C2440 1.400 . S
C2441 C2442 1.398 . S
C2442 H2430 0.950 . S
C2442 C2441 1.398 . S
C2442 C2443 1.391 . S
C2443 H2431 0.950 . S
C2443 C2439 1.393 . S
C2443 C2442 1.391 . S
H2444 C2452 0.950 . S
H2445 C2457 0.950 . S
H2446 C2454 0.950 . S
H2447 C2456 0.950 . S
H2448 C2458 0.950 . S
H2449 C2460 0.950 . S
H2450 C2462 0.950 . S
H2451 C2463 0.950 . S
C2452 H2444 0.950 . S
C2452 C2453 1.386 . S
C2452 C2454 1.391 . S
C2453 C2452 1.386 . S
C2453 C2457 1.393 . S
C2454 H2446 0.950 . S
C2454 C2452 1.391 . S
C2454 C2455 1.400 . S
C2455 C2454 1.400 . S
C2455 C2456 1.398 . S
C2455 C2461 1.491 . S
C2456 H2447 0.950 . S
C2456 C2455 1.398 . S
C2456 C2457 1.391 . S
C2457 H2445 0.950 . S
C2457 C2453 1.393 . S
C2457 C2456 1.391 . S
C2458 H2448 0.950 . S
C2458 C2459 1.386 . S
C2458 C2460 1.391 . S
C2459 C2458 1.386 . S
C2459 C2463 1.393 . S
C2460 H2449 0.950 . S
C2460 C2458 1.391 . S
C2460 C2461 1.400 . S
C2461 C2455 1.491 . S
C2461 C2460 1.400 . S
C2461 C2462 1.398 . S
C2462 H2450 0.950 . S
C2462 C2461 1.398 . S
C2462 C2463 1.391 . S
C2463 H2451 0.950 . S
C2463 C2459 1.393 . S
C2463 C2462 1.391 . S
H2464 C2472 0.950 1_556 S
H2465 C2477 0.950 . S
H2466 C2474 0.950 . S
H2467 C2476 0.950 . S
H2468 C2478 0.950 . S
H2469 C2480 0.950 1_554 S
H2470 C2482 0.950 . S
H2471 C2483 0.950 . S
C2472 H2464 0.950 1_554 S
C2472 C2473 1.386 . S
C2472 C2474 1.391 1_554 S
C2473 C2472 1.386 . S
C2473 C2477 1.393 . S
C2474 H2466 0.950 . S
C2474 C2472 1.391 1_556 S
C2474 C2475 1.400 . S
C2475 C2474 1.400 . S
C2475 C2476 1.398 1_556 S
C2475 C2481 1.491 . S
C2476 H2467 0.950 . S
C2476 C2475 1.398 1_554 S
C2476 C2477 1.391 . S
C2477 H2465 0.950 . S
C2477 C2473 1.393 . S
C2477 C2476 1.391 . S
C2478 H2468 0.950 . S
C2478 C2479 1.386 . S
C2478 C2480 1.391 . S
C2479 C2478 1.386 . S
C2479 C2483 1.393 . S
C2480 H2469 0.950 1_556 S
C2480 C2478 1.391 . S
C2480 C2481 1.400 . S
C2481 C2475 1.491 . S
C2481 C2480 1.400 . S
C2481 C2482 1.398 . S
C2482 H2470 0.950 . S
C2482 C2481 1.398 . S
C2482 C2483 1.391 . S
C2483 H2471 0.950 . S
C2483 C2479 1.393 . S
C2483 C2482 1.391 . S
H2484 C2492 0.950 . S
H2485 C2497 0.950 . S
H2486 C2494 0.950 . S
H2487 C2496 0.950 . S
H2488 C2498 0.950 . S
H2489 C2500 0.950 . S
H2490 C2502 0.950 . S
H2491 C2503 0.950 . S
C2492 H2484 0.950 . S
C2492 C2493 1.386 . S
C2492 C2494 1.391 . S
C2493 C2492 1.386 . S
C2493 C2497 1.393 . S
C2494 H2486 0.950 . S
C2494 C2492 1.391 . S
C2494 C2495 1.400 . S
C2495 C2494 1.400 . S
C2495 C2496 1.398 . S
C2495 C2501 1.491 . S
C2496 H2487 0.950 . S
C2496 C2495 1.398 . S
C2496 C2497 1.391 . S
C2497 H2485 0.950 . S
C2497 C2493 1.393 . S
C2497 C2496 1.391 . S
C2498 H2488 0.950 . S
C2498 C2499 1.386 . S
C2498 C2500 1.391 . S
C2499 C2498 1.386 . S
C2499 C2503 1.393 . S
C2500 H2489 0.950 . S
C2500 C2498 1.391 . S
C2500 C2501 1.400 . S
C2501 C2495 1.491 . S
C2501 C2500 1.400 . S
C2501 C2502 1.398 . S
C2502 H2490 0.950 . S
C2502 C2501 1.398 . S
C2502 C2503 1.391 . S
C2503 H2491 0.950 . S
C2503 C2499 1.393 . S
C2503 C2502 1.391 . S
H2504 C2512 0.950 . S
H2505 C2517 0.950 . S
H2506 C2514 0.950 . S
H2507 C2516 0.950 . S
H2508 C2518 0.950 . S
H2509 C2520 0.950 . S
H2510 C2522 0.950 . S
H2511 C2523 0.950 . S
C2512 H2504 0.950 . S
C2512 C2513 1.386 . S
C2512 C2514 1.391 . S
C2513 C2512 1.386 . S
C2513 C2517 1.393 . S
C2514 H2506 0.950 . S
C2514 C2512 1.391 . S
C2514 C2515 1.400 . S
C2515 C2514 1.400 . S
C2515 C2516 1.398 . S
C2515 C2521 1.491 . S
C2516 H2507 0.950 . S
C2516 C2515 1.398 . S
C2516 C2517 1.391 . S
C2517 H2505 0.950 . S
C2517 C2513 1.393 . S
C2517 C2516 1.391 . S
C2518 H2508 0.950 . S
C2518 C2519 1.386 . S
C2518 C2520 1.391 . S
C2519 C2518 1.386 . S
C2519 C2523 1.393 . S
C2520 H2509 0.950 . S
C2520 C2518 1.391 . S
C2520 C2521 1.400 . S
C2521 C2515 1.491 . S
C2521 C2520 1.400 . S
C2521 C2522 1.398 . S
C2522 H2510 0.950 . S
C2522 C2521 1.398 . S
C2522 C2523 1.391 . S
C2523 H2511 0.950 . S
C2523 C2519 1.393 . S
C2523 C2522 1.391 . S
H2524 C2532 0.950 . S
H2525 C2537 0.950 . S
H2526 C2534 0.950 . S
H2527 C2536 0.950 . S
H2528 C2538 0.950 . S
H2529 C2540 0.950 . S
H2530 C2542 0.950 . S
H2531 C2543 0.950 . S
C2532 H2524 0.950 . S
C2532 C2533 1.386 . S
C2532 C2534 1.391 . S
C2533 C2532 1.386 . S
C2533 C2537 1.393 . S
C2534 H2526 0.950 . S
C2534 C2532 1.391 . S
C2534 C2535 1.400 . S
C2535 C2534 1.400 . S
C2535 C2536 1.398 . S
C2535 C2541 1.491 . S
C2536 H2527 0.950 . S
C2536 C2535 1.398 . S
C2536 C2537 1.391 . S
C2537 H2525 0.950 . S
C2537 C2533 1.393 . S
C2537 C2536 1.391 . S
C2538 H2528 0.950 . S
C2538 C2539 1.386 . S
C2538 C2540 1.391 . S
C2539 C2538 1.386 . S
C2539 C2543 1.393 . S
C2540 H2529 0.950 . S
C2540 C2538 1.391 . S
C2540 C2541 1.400 . S
C2541 C2535 1.491 . S
C2541 C2540 1.400 . S
C2541 C2542 1.398 . S
C2542 H2530 0.950 . S
C2542 C2541 1.398 . S
C2542 C2543 1.391 . S
C2543 H2531 0.950 . S
C2543 C2539 1.393 . S
C2543 C2542 1.391 . S
H2544 C2552 0.950 . S
H2545 C2557 0.950 . S
H2546 C2554 0.950 . S
H2547 C2556 0.950 . S
H2548 C2558 0.950 . S
H2549 C2560 0.950 . S
H2550 C2562 0.950 . S
H2551 C2563 0.950 . S
C2552 H2544 0.950 . S
C2552 C2553 1.386 . S
C2552 C2554 1.391 . S
C2553 C2552 1.386 . S
C2553 C2557 1.393 . S
C2554 H2546 0.950 . S
C2554 C2552 1.391 . S
C2554 C2555 1.400 . S
C2555 C2554 1.400 . S
C2555 C2556 1.398 . S
C2555 C2561 1.491 . S
C2556 H2547 0.950 . S
C2556 C2555 1.398 . S
C2556 C2557 1.391 . S
C2557 H2545 0.950 . S
C2557 C2553 1.393 . S
C2557 C2556 1.391 . S
C2558 H2548 0.950 . S
C2558 C2559 1.386 . S
C2558 C2560 1.391 . S
C2559 C2558 1.386 . S
C2559 C2563 1.393 . S
C2560 H2549 0.950 . S
C2560 C2558 1.391 . S
C2560 C2561 1.400 . S
C2561 C2555 1.491 . S
C2561 C2560 1.400 . S
C2561 C2562 1.398 . S
C2562 H2550 0.950 . S
C2562 C2561 1.398 . S
C2562 C2563 1.391 . S
C2563 H2551 0.950 . S
C2563 C2559 1.393 . S
C2563 C2562 1.391 . S
H2564 C2572 0.950 . S
H2565 C2577 0.950 . S
H2566 C2574 0.950 . S
H2567 C2576 0.950 . S
H2568 C2578 0.950 . S
H2569 C2580 0.950 . S
H2570 C2582 0.950 . S
H2571 C2583 0.950 . S
C2572 H2564 0.950 . S
C2572 C2573 1.386 . S
C2572 C2574 1.391 . S
C2573 C2572 1.386 . S
C2573 C2577 1.393 . S
C2574 H2566 0.950 . S
C2574 C2572 1.391 . S
C2574 C2575 1.400 . S
C2575 C2574 1.400 . S
C2575 C2576 1.398 . S
C2575 C2581 1.491 . S
C2576 H2567 0.950 . S
C2576 C2575 1.398 . S
C2576 C2577 1.391 . S
C2577 H2565 0.950 . S
C2577 C2573 1.393 . S
C2577 C2576 1.391 . S
C2578 H2568 0.950 . S
C2578 C2579 1.386 . S
C2578 C2580 1.391 . S
C2579 C2578 1.386 . S
C2579 C2583 1.393 . S
C2580 H2569 0.950 . S
C2580 C2578 1.391 . S
C2580 C2581 1.400 . S
C2581 C2575 1.491 . S
C2581 C2580 1.400 . S
C2581 C2582 1.398 . S
C2582 H2570 0.950 . S
C2582 C2581 1.398 . S
C2582 C2583 1.391 . S
C2583 H2571 0.950 . S
C2583 C2579 1.393 . S
C2583 C2582 1.391 . S
H2584 C2592 0.930 1_455 S
H2585 C2597 0.950 . S
H2586 C2594 0.950 . S
H2587 C2596 0.950 . S
H2588 C2598 0.950 . S
H2589 C2600 0.950 . S
H2590 C2602 0.950 . S
H2591 C2603 0.950 . S
C2592 H2584 0.930 1_655 S
C2592 C2593 1.390 1_655 S
C2592 C2594 1.407 . S
C2593 C2592 1.390 1_455 S
C2593 C2597 1.393 1_455 S
C2594 H2586 0.950 . S
C2594 C2592 1.407 . S
C2594 C2595 1.400 . S
C2595 C2594 1.400 . S
C2595 C2596 1.398 . S
C2595 C2601 1.491 . S
C2596 H2587 0.950 . S
C2596 C2595 1.398 . S
C2596 C2597 1.391 . S
C2597 H2585 0.950 . S
C2597 C2593 1.393 1_655 S
C2597 C2596 1.391 . S
C2598 H2588 0.950 . S
C2598 C2599 1.386 . S
C2598 C2600 1.391 . S
C2599 C2598 1.386 . S
C2599 C2603 1.393 . S
C2600 H2589 0.950 . S
C2600 C2598 1.391 . S
C2600 C2601 1.400 . S
C2601 C2595 1.491 . S
C2601 C2600 1.400 . S
C2601 C2602 1.398 . S
C2602 H2590 0.950 . S
C2602 C2601 1.398 . S
C2602 C2603 1.391 . S
C2603 H2591 0.950 . S
C2603 C2599 1.393 . S
C2603 C2602 1.391 . S
H2604 C2612 0.950 . S
H2605 C2617 0.950 . S
H2606 C2614 0.950 . S
H2607 C2616 0.950 . S
H2608 C2618 0.950 1_655 S
H2609 C2620 0.950 . S
H2610 C2622 0.950 . S
H2611 C2623 0.950 . S
C2612 H2604 0.950 . S
C2612 C2613 1.386 . S
C2612 C2614 1.391 . S
C2613 C2612 1.386 . S
C2613 C2617 1.393 . S
C2614 H2606 0.950 . S
C2614 C2612 1.391 . S
C2614 C2615 1.400 . S
C2615 C2614 1.400 . S
C2615 C2616 1.398 . S
C2615 C2621 1.491 . S
C2616 H2607 0.950 . S
C2616 C2615 1.398 . S
C2616 C2617 1.391 . S
C2617 H2605 0.950 . S
C2617 C2613 1.393 . S
C2617 C2616 1.391 . S
C2618 H2608 0.950 1_455 S
C2618 C2619 1.386 . S
C2618 C2620 1.391 . S
C2619 C2618 1.386 . S
C2619 C2623 1.393 . S
C2620 H2609 0.950 . S
C2620 C2618 1.391 . S
C2620 C2621 1.400 . S
C2621 C2615 1.491 . S
C2621 C2620 1.400 . S
C2621 C2622 1.398 . S
C2622 H2610 0.950 . S
C2622 C2621 1.398 . S
C2622 C2623 1.391 . S
C2623 H2611 0.950 . S
C2623 C2619 1.393 . S
C2623 C2622 1.391 . S
H2624 C2632 0.950 . S
H2625 C2637 0.950 . S
H2626 C2634 0.950 . S
H2627 C2636 0.950 . S
H2628 C2638 0.950 . S
H2629 C2640 0.950 . S
H2630 C2642 0.950 . S
H2631 C2643 0.950 . S
C2632 H2624 0.950 . S
C2632 C2633 1.386 . S
C2632 C2634 1.391 . S
C2633 C2632 1.386 . S
C2633 C2637 1.393 . S
C2634 H2626 0.950 . S
C2634 C2632 1.391 . S
C2634 C2635 1.400 . S
C2635 C2634 1.400 . S
C2635 C2636 1.398 . S
C2635 C2641 1.491 . S
C2636 H2627 0.950 . S
C2636 C2635 1.398 . S
C2636 C2637 1.391 . S
C2637 H2625 0.950 . S
C2637 C2633 1.393 . S
C2637 C2636 1.391 . S
C2638 H2628 0.950 . S
C2638 C2639 1.386 . S
C2638 C2640 1.391 . S
C2639 C2638 1.386 . S
C2639 C2643 1.393 . S
C2640 H2629 0.950 . S
C2640 C2638 1.391 . S
C2640 C2641 1.400 . S
C2641 C2635 1.491 . S
C2641 C2640 1.400 . S
C2641 C2642 1.398 . S
C2642 H2630 0.950 . S
C2642 C2641 1.398 . S
C2642 C2643 1.391 . S
C2643 H2631 0.950 . S
C2643 C2639 1.393 . S
C2643 C2642 1.391 . S
H2644 C2652 0.950 . S
H2645 C2657 0.978 . S
H2646 C2654 0.950 . S
H2647 C2656 0.950 1_545 S
H2648 C2658 0.950 1_545 S
H2649 C2660 0.950 1_545 S
H2650 C2662 0.950 . S
H2651 C2663 0.950 . S
C2652 H2644 0.950 . S
C2652 C2653 1.386 . S
C2652 C2654 1.391 . S
C2653 C2652 1.386 . S
C2653 C2657 1.393 . S
C2654 H2646 0.950 . S
C2654 C2652 1.391 . S
C2654 C2655 1.400 . S
C2655 C2654 1.400 . S
C2655 C2656 1.398 . S
C2655 C2661 1.491 . S
C2656 H2647 0.950 1_565 S
C2656 C2655 1.398 . S
C2656 C2657 1.391 . S
C2657 H2645 0.978 . S
C2657 C2653 1.393 . S
C2657 C2656 1.391 . S
C2658 H2648 0.950 1_565 S
C2658 C2659 1.386 . S
C2658 C2660 1.391 . S
C2659 C2658 1.386 . S
C2659 C2663 1.393 . S
C2660 H2649 0.950 1_565 S
C2660 C2658 1.391 . S
C2660 C2661 1.400 . S
C2661 C2655 1.491 . S
C2661 C2660 1.400 . S
C2661 C2662 1.398 . S
C2662 H2650 0.950 . S
C2662 C2661 1.398 . S
C2662 C2663 1.391 . S
C2663 H2651 0.950 . S
C2663 C2659 1.393 . S
C2663 C2662 1.391 . S
H2664 C2672 0.950 . S
H2665 C2677 0.950 . S
H2666 C2674 0.958 . S
H2667 C2676 0.950 . S
H2668 C2678 0.950 . S
H2669 C2680 0.950 . S
H2670 C2682 0.950 . S
H2671 C2683 0.950 . S
C2672 H2664 0.950 . S
C2672 C2673 1.386 . S
C2672 C2674 1.391 . S
C2673 C2672 1.386 . S
C2673 C2677 1.393 . S
C2674 H2666 0.958 . S
C2674 C2672 1.391 . S
C2674 C2675 1.400 . S
C2675 C2674 1.400 . S
C2675 C2676 1.398 . S
C2675 C2681 1.491 . S
C2676 H2667 0.950 . S
C2676 C2675 1.398 . S
C2676 C2677 1.391 . S
C2677 H2665 0.950 . S
C2677 C2673 1.393 . S
C2677 C2676 1.391 . S
C2678 H2668 0.950 . S
C2678 C2679 1.372 1_565 S
C2678 C2680 1.391 . S
C2679 C2678 1.372 1_545 S
C2679 C2683 1.387 . S
C2680 H2669 0.950 . S
C2680 C2678 1.391 . S
C2680 C2681 1.400 . S
C2681 C2675 1.491 . S
C2681 C2680 1.400 . S
C2681 C2682 1.398 1_565 S
C2682 H2670 0.950 . S
C2682 C2681 1.398 1_545 S
C2682 C2683 1.391 . S
C2683 H2671 0.950 . S
C2683 C2679 1.387 . S
C2683 C2682 1.391 . S
H2684 C2692 0.950 . S
H2685 C2697 0.950 . S
H2686 C2694 0.950 1_655 S
H2687 C2696 0.950 . S
H2688 C2698 0.950 . S
H2689 C2700 0.950 . S
H2690 C2702 0.950 . S
H2691 C2703 0.950 . S
C2692 H2684 0.950 . S
C2692 C2693 1.386 . S
C2692 C2694 1.391 . S
C2693 C2692 1.386 . S
C2693 C2697 1.393 . S
C2694 H2686 0.950 1_455 S
C2694 C2692 1.391 . S
C2694 C2695 1.400 . S
C2695 C2694 1.400 . S
C2695 C2696 1.398 . S
C2695 C2701 1.491 . S
C2696 H2687 0.950 . S
C2696 C2695 1.398 . S
C2696 C2697 1.391 . S
C2697 H2685 0.950 . S
C2697 C2693 1.393 . S
C2697 C2696 1.391 . S
C2698 H2688 0.950 . S
C2698 C2699 1.386 1_455 S
C2698 C2700 1.391 . S
C2699 C2698 1.386 1_655 S
C2699 C2703 1.393 . S
C2700 H2689 0.950 . S
C2700 C2698 1.391 . S
C2700 C2701 1.400 . S
C2701 C2695 1.491 . S
C2701 C2700 1.400 . S
C2701 C2702 1.398 1_455 S
C2702 H2690 0.950 . S
C2702 C2701 1.398 1_655 S
C2702 C2703 1.391 . S
C2703 H2691 0.950 . S
C2703 C2699 1.393 . S
C2703 C2702 1.391 . S
H2704 C2712 0.950 . S
H2705 C2717 0.950 . S
H2706 C2714 0.950 . S
H2707 C2716 0.950 . S
H2708 C2718 0.950 . S
H2709 C2720 0.950 . S
H2710 C2722 0.950 . S
H2711 C2723 0.950 . S
C2712 H2704 0.950 . S
C2712 C2713 1.386 . S
C2712 C2714 1.391 . S
C2713 C2712 1.386 . S
C2713 C2717 1.393 . S
C2714 H2706 0.950 . S
C2714 C2712 1.391 . S
C2714 C2715 1.400 . S
C2715 C2714 1.400 . S
C2715 C2716 1.398 . S
C2715 C2721 1.491 . S
C2716 H2707 0.950 . S
C2716 C2715 1.398 . S
C2716 C2717 1.391 . S
C2717 H2705 0.950 . S
C2717 C2713 1.393 . S
C2717 C2716 1.391 . S
C2718 H2708 0.950 . S
C2718 C2719 1.386 . S
C2718 C2720 1.391 . S
C2719 C2718 1.386 . S
C2719 C2723 1.393 . S
C2720 H2709 0.950 . S
C2720 C2718 1.391 . S
C2720 C2721 1.400 . S
C2721 C2715 1.491 . S
C2721 C2720 1.400 . S
C2721 C2722 1.398 . S
C2722 H2710 0.950 . S
C2722 C2721 1.398 . S
C2722 C2723 1.391 . S
C2723 H2711 0.950 . S
C2723 C2719 1.393 . S
C2723 C2722 1.391 . S
H2724 C2732 0.950 . S
H2725 C2737 0.950 . S
H2726 C2734 0.950 . S
H2727 C2736 0.950 . S
H2728 C2738 0.950 . S
H2729 C2740 0.950 . S
H2730 C2742 0.950 . S
H2731 C2743 0.950 . S
C2732 H2724 0.950 . S
C2732 C2733 1.386 . S
C2732 C2734 1.391 . S
C2733 C2732 1.386 . S
C2733 C2737 1.393 . S
C2734 H2726 0.950 . S
C2734 C2732 1.391 . S
C2734 C2735 1.400 . S
C2735 C2734 1.400 . S
C2735 C2736 1.398 . S
C2735 C2741 1.491 . S
C2736 H2727 0.950 . S
C2736 C2735 1.398 . S
C2736 C2737 1.391 . S
C2737 H2725 0.950 . S
C2737 C2733 1.393 . S
C2737 C2736 1.391 . S
C2738 H2728 0.950 . S
C2738 C2739 1.386 . S
C2738 C2740 1.391 . S
C2739 C2738 1.386 . S
C2739 C2743 1.393 . S
C2740 H2729 0.950 . S
C2740 C2738 1.391 . S
C2740 C2741 1.400 . S
C2741 C2735 1.491 . S
C2741 C2740 1.400 . S
C2741 C2742 1.398 . S
C2742 H2730 0.950 . S
C2742 C2741 1.398 . S
C2742 C2743 1.391 . S
C2743 H2731 0.950 . S
C2743 C2739 1.393 . S
C2743 C2742 1.391 . S
H2744 C2752 0.950 . S
H2745 C2757 0.950 . S
H2746 C2754 0.950 . S
H2747 C2756 0.950 . S
H2748 C2758 0.950 . S
H2749 C2760 0.950 . S
H2750 C2762 0.950 . S
H2751 C2763 0.950 . S
C2752 H2744 0.950 . S
C2752 C2753 1.386 . S
C2752 C2754 1.391 . S
C2753 C2752 1.386 . S
C2753 C2757 1.393 . S
C2754 H2746 0.950 . S
C2754 C2752 1.391 . S
C2754 C2755 1.400 . S
C2755 C2754 1.400 . S
C2755 C2756 1.398 . S
C2755 C2761 1.491 . S
C2756 H2747 0.950 . S
C2756 C2755 1.398 . S
C2756 C2757 1.391 . S
C2757 H2745 0.950 . S
C2757 C2753 1.393 . S
C2757 C2756 1.391 . S
C2758 H2748 0.950 . S
C2758 C2759 1.386 . S
C2758 C2760 1.391 . S
C2759 C2758 1.386 . S
C2759 C2763 1.393 . S
C2760 H2749 0.950 . S
C2760 C2758 1.391 . S
C2760 C2761 1.400 . S
C2761 C2755 1.491 . S
C2761 C2760 1.400 . S
C2761 C2762 1.398 . S
C2762 H2750 0.950 . S
C2762 C2761 1.398 . S
C2762 C2763 1.391 . S
C2763 H2751 0.950 . S
C2763 C2759 1.393 . S
C2763 C2762 1.391 . S
H2764 C2772 0.950 . S
H2765 C2777 0.950 . S
H2766 C2774 0.950 . S
H2767 C2776 0.950 . S
H2768 C2778 0.950 . S
H2769 C2780 0.950 . S
H2770 C2782 0.950 . S
H2771 C2783 0.950 . S
C2772 H2764 0.950 . S
C2772 C2773 1.386 . S
C2772 C2774 1.391 . S
C2773 C2772 1.386 . S
C2773 C2777 1.393 . S
C2774 H2766 0.950 . S
C2774 C2772 1.391 . S
C2774 C2775 1.400 . S
C2775 C2774 1.400 . S
C2775 C2776 1.398 . S
C2775 C2781 1.491 . S
C2776 H2767 0.950 . S
C2776 C2775 1.398 . S
C2776 C2777 1.391 . S
C2777 H2765 0.950 . S
C2777 C2773 1.393 . S
C2777 C2776 1.391 . S
C2778 H2768 0.950 . S
C2778 C2779 1.386 . S
C2778 C2780 1.391 . S
C2779 C2778 1.386 . S
C2779 C2783 1.393 . S
C2780 H2769 0.950 . S
C2780 C2778 1.391 . S
C2780 C2781 1.400 . S
C2781 C2775 1.491 . S
C2781 C2780 1.400 . S
C2781 C2782 1.398 . S
C2782 H2770 0.950 . S
C2782 C2781 1.398 . S
C2782 C2783 1.391 . S
C2783 H2771 0.950 . S
C2783 C2779 1.393 . S
C2783 C2782 1.391 . S
H2784 C2792 0.950 . S
H2785 C2797 0.950 . S
H2786 C2794 0.950 . S
H2787 C2796 0.950 . S
H2788 C2798 0.950 1_565 S
H2789 C2800 0.950 . S
H2790 C2802 0.950 . S
H2791 C2803 0.950 . S
C2792 H2784 0.950 . S
C2792 C2793 1.386 . S
C2792 C2794 1.391 . S
C2793 C2792 1.386 . S
C2793 C2797 1.393 . S
C2794 H2786 0.950 . S
C2794 C2792 1.391 . S
C2794 C2795 1.400 . S
C2795 C2794 1.400 . S
C2795 C2796 1.398 . S
C2795 C2801 1.491 . S
C2796 H2787 0.950 . S
C2796 C2795 1.398 . S
C2796 C2797 1.391 . S
C2797 H2785 0.950 . S
C2797 C2793 1.393 . S
C2797 C2796 1.391 . S
C2798 H2788 0.950 1_545 S
C2798 C2799 1.386 . S
C2798 C2800 1.391 . S
C2799 C2798 1.386 . S
C2799 C2803 1.393 . S
C2800 H2789 0.950 . S
C2800 C2798 1.391 . S
C2800 C2801 1.400 . S
C2801 C2795 1.491 . S
C2801 C2800 1.400 . S
C2801 C2802 1.398 . S
C2802 H2790 0.950 . S
C2802 C2801 1.398 . S
C2802 C2803 1.391 . S
C2803 H2791 0.950 . S
C2803 C2799 1.393 . S
C2803 C2802 1.391 . S
H2804 C2812 0.950 . S
H2805 C2817 0.950 . S
H2806 C2814 0.950 . S
H2807 C2816 0.950 . S
H2808 C2818 0.950 . S
H2809 C2820 0.950 . S
H2810 C2822 0.950 . S
H2811 C2823 0.927 1_455 S
C2812 H2804 0.950 . S
C2812 C2813 1.386 . S
C2812 C2814 1.391 . S
C2813 C2812 1.386 . S
C2813 C2817 1.393 . S
C2814 H2806 0.950 . S
C2814 C2812 1.391 . S
C2814 C2815 1.400 . S
C2815 C2814 1.400 . S
C2815 C2816 1.398 . S
C2815 C2821 1.491 . S
C2816 H2807 0.950 . S
C2816 C2815 1.398 . S
C2816 C2817 1.391 . S
C2817 H2805 0.950 . S
C2817 C2813 1.393 . S
C2817 C2816 1.391 . S
C2818 H2808 0.950 . S
C2818 C2819 1.386 . S
C2818 C2820 1.391 . S
C2819 C2818 1.386 . S
C2819 C2823 1.393 . S
C2820 H2809 0.950 . S
C2820 C2818 1.391 . S
C2820 C2821 1.400 . S
C2821 C2815 1.491 . S
C2821 C2820 1.400 . S
C2821 C2822 1.398 . S
C2822 H2810 0.950 . S
C2822 C2821 1.398 . S
C2822 C2823 1.391 . S
C2823 H2811 0.927 1_655 S
C2823 C2819 1.393 . S
C2823 C2822 1.391 . S
H2824 C2832 0.950 . S
H2825 C2837 0.950 . S
H2826 C2834 0.950 . S
H2827 C2836 0.950 . S
H2828 C2838 0.950 . S
H2829 C2840 0.950 . S
H2830 C2842 0.950 . S
H2831 C2843 0.950 . S
C2832 H2824 0.950 . S
C2832 C2833 1.386 . S
C2832 C2834 1.391 . S
C2833 C2832 1.386 . S
C2833 C2837 1.393 . S
C2834 H2826 0.950 . S
C2834 C2832 1.391 . S
C2834 C2835 1.400 . S
C2835 C2834 1.400 . S
C2835 C2836 1.398 . S
C2835 C2841 1.491 . S
C2836 H2827 0.950 . S
C2836 C2835 1.398 . S
C2836 C2837 1.391 . S
C2837 H2825 0.950 . S
C2837 C2833 1.393 . S
C2837 C2836 1.391 . S
C2838 H2828 0.950 . S
C2838 C2839 1.386 . S
C2838 C2840 1.391 . S
C2839 C2838 1.386 . S
C2839 C2843 1.393 . S
C2840 H2829 0.950 . S
C2840 C2838 1.391 . S
C2840 C2841 1.400 . S
C2841 C2835 1.491 . S
C2841 C2840 1.400 . S
C2841 C2842 1.398 . S
C2842 H2830 0.950 . S
C2842 C2841 1.398 . S
C2842 C2843 1.391 . S
C2843 H2831 0.950 . S
C2843 C2839 1.393 . S
C2843 C2842 1.391 . S
H2844 C2852 0.950 . S
H2845 C2857 0.950 . S
H2846 C2854 0.950 . S
H2847 C2856 0.950 . S
H2848 C2858 0.950 . S
H2849 C2860 0.950 . S
H2850 C2862 0.950 . S
H2851 C2863 0.950 . S
C2852 H2844 0.950 . S
C2852 C2853 1.386 . S
C2852 C2854 1.391 . S
C2853 C2852 1.386 . S
C2853 C2857 1.393 . S
C2854 H2846 0.950 . S
C2854 C2852 1.391 . S
C2854 C2855 1.400 . S
C2855 C2854 1.400 . S
C2855 C2856 1.398 . S
C2855 C2861 1.491 . S
C2856 H2847 0.950 . S
C2856 C2855 1.398 . S
C2856 C2857 1.391 . S
C2857 H2845 0.950 . S
C2857 C2853 1.393 . S
C2857 C2856 1.391 . S
C2858 H2848 0.950 . S
C2858 C2859 1.386 . S
C2858 C2860 1.391 . S
C2859 C2858 1.386 . S
C2859 C2863 1.393 . S
C2860 H2849 0.950 . S
C2860 C2858 1.391 . S
C2860 C2861 1.400 . S
C2861 C2855 1.491 . S
C2861 C2860 1.400 . S
C2861 C2862 1.398 . S
C2862 H2850 0.950 . S
C2862 C2861 1.398 . S
C2862 C2863 1.391 . S
C2863 H2851 0.950 . S
C2863 C2859 1.393 . S
C2863 C2862 1.391 . S
H2864 C2872 0.950 . S
H2865 C2877 0.950 . S
H2866 C2874 0.950 . S
H2867 C2876 0.950 . S
H2868 C2878 0.950 . S
H2869 C2880 0.950 . S
H2870 C2882 0.950 . S
H2871 C2883 0.950 . S
C2872 H2864 0.950 . S
C2872 C2873 1.386 . S
C2872 C2874 1.391 . S
C2873 C2872 1.386 . S
C2873 C2877 1.393 . S
C2874 H2866 0.950 . S
C2874 C2872 1.391 . S
C2874 C2875 1.400 . S
C2875 C2874 1.400 . S
C2875 C2876 1.398 . S
C2875 C2881 1.491 . S
C2876 H2867 0.950 . S
C2876 C2875 1.398 . S
C2876 C2877 1.391 . S
C2877 H2865 0.950 . S
C2877 C2873 1.393 . S
C2877 C2876 1.391 . S
C2878 H2868 0.950 . S
C2878 C2879 1.386 . S
C2878 C2880 1.391 . S
C2879 C2878 1.386 . S
C2879 C2883 1.393 . S
C2880 H2869 0.950 . S
C2880 C2878 1.391 . S
C2880 C2881 1.400 . S
C2881 C2875 1.491 . S
C2881 C2880 1.400 . S
C2881 C2882 1.398 . S
C2882 H2870 0.950 . S
C2882 C2881 1.398 . S
C2882 C2883 1.391 . S
C2883 H2871 0.950 . S
C2883 C2879 1.393 . S
C2883 C2882 1.391 . S
H2884 C2892 0.950 . S
H2885 C2897 0.950 . S
H2886 C2894 0.950 . S
H2887 C2896 0.950 . S
H2888 C2898 0.950 . S
H2889 C2900 0.950 . S
H2890 C2902 0.950 . S
H2891 C2903 0.950 . S
C2892 H2884 0.950 . S
C2892 C2893 1.386 . S
C2892 C2894 1.391 . S
C2893 C2892 1.386 . S
C2893 C2897 1.393 . S
C2894 H2886 0.950 . S
C2894 C2892 1.391 . S
C2894 C2895 1.400 . S
C2895 C2894 1.400 . S
C2895 C2896 1.398 . S
C2895 C2901 1.491 . S
C2896 H2887 0.950 . S
C2896 C2895 1.398 . S
C2896 C2897 1.391 . S
C2897 H2885 0.950 . S
C2897 C2893 1.393 . S
C2897 C2896 1.391 . S
C2898 H2888 0.950 . S
C2898 C2899 1.386 . S
C2898 C2900 1.391 . S
C2899 C2898 1.386 . S
C2899 C2903 1.393 . S
C2900 H2889 0.950 . S
C2900 C2898 1.391 . S
C2900 C2901 1.400 . S
C2901 C2895 1.491 . S
C2901 C2900 1.400 . S
C2901 C2902 1.398 . S
C2902 H2890 0.950 . S
C2902 C2901 1.398 . S
C2902 C2903 1.391 . S
C2903 H2891 0.950 . S
C2903 C2899 1.393 . S
C2903 C2902 1.391 . S
H2904 C2912 0.950 . S
H2905 C2917 0.950 . S
H2906 C2914 0.950 . S
H2907 C2916 0.950 . S
H2908 C2918 0.950 . S
H2909 C2920 0.950 . S
H2910 C2922 0.950 . S
H2911 C2923 0.950 . S
C2912 H2904 0.950 . S
C2912 C2913 1.386 . S
C2912 C2914 1.391 . S
C2913 C2912 1.386 . S
C2913 C2917 1.393 . S
C2914 H2906 0.950 . S
C2914 C2912 1.391 . S
C2914 C2915 1.400 . S
C2915 C2914 1.400 . S
C2915 C2916 1.398 . S
C2915 C2921 1.491 . S
C2916 H2907 0.950 . S
C2916 C2915 1.398 . S
C2916 C2917 1.391 . S
C2917 H2905 0.950 . S
C2917 C2913 1.393 . S
C2917 C2916 1.391 . S
C2918 H2908 0.950 . S
C2918 C2919 1.386 . S
C2918 C2920 1.391 . S
C2919 C2918 1.386 . S
C2919 C2923 1.393 . S
C2920 H2909 0.950 . S
C2920 C2918 1.391 . S
C2920 C2921 1.400 . S
C2921 C2915 1.491 . S
C2921 C2920 1.400 . S
C2921 C2922 1.398 . S
C2922 H2910 0.950 . S
C2922 C2921 1.398 . S
C2922 C2923 1.391 . S
C2923 H2911 0.950 . S
C2923 C2919 1.393 . S
C2923 C2922 1.391 . S
H2924 C2932 0.950 . S
H2925 C2937 0.950 . S
H2926 C2934 0.950 . S
H2927 C2936 0.950 . S
H2928 C2938 0.950 . S
H2929 C2940 0.950 . S
H2930 C2942 0.950 . S
H2931 C2943 0.950 . S
C2932 H2924 0.950 . S
C2932 C2933 1.386 . S
C2932 C2934 1.391 . S
C2933 C2932 1.386 . S
C2933 C2937 1.393 . S
C2934 H2926 0.950 . S
C2934 C2932 1.391 . S
C2934 C2935 1.400 . S
C2935 C2934 1.400 . S
C2935 C2936 1.398 . S
C2935 C2941 1.491 . S
C2936 H2927 0.950 . S
C2936 C2935 1.398 . S
C2936 C2937 1.391 . S
C2937 H2925 0.950 . S
C2937 C2933 1.393 . S
C2937 C2936 1.391 . S
C2938 H2928 0.950 . S
C2938 C2939 1.386 . S
C2938 C2940 1.391 . S
C2939 C2938 1.386 . S
C2939 C2943 1.393 . S
C2940 H2929 0.950 . S
C2940 C2938 1.391 . S
C2940 C2941 1.400 . S
C2941 C2935 1.491 . S
C2941 C2940 1.400 . S
C2941 C2942 1.398 . S
C2942 H2930 0.950 . S
C2942 C2941 1.398 . S
C2942 C2943 1.391 . S
C2943 H2931 0.950 . S
C2943 C2939 1.393 . S
C2943 C2942 1.391 . S
H2944 C2952 0.950 1_655 S
H2945 C2957 0.950 . S
H2946 C2954 0.950 . S
H2947 C2956 0.950 . S
H2948 C2958 0.950 . S
H2949 C2960 0.950 . S
H2950 C2962 0.950 . S
H2951 C2963 0.950 . S
C2952 H2944 0.950 1_455 S
C2952 C2953 1.386 . S
C2952 C2954 1.391 . S
C2953 C2952 1.386 . S
C2953 C2957 1.393 . S
C2954 H2946 0.950 . S
C2954 C2952 1.391 . S
C2954 C2955 1.400 . S
C2955 C2954 1.400 . S
C2955 C2956 1.398 . S
C2955 C2961 1.491 . S
C2956 H2947 0.950 . S
C2956 C2955 1.398 . S
C2956 C2957 1.391 . S
C2957 H2945 0.950 . S
C2957 C2953 1.393 . S
C2957 C2956 1.391 . S
C2958 H2948 0.950 . S
C2958 C2959 1.386 . S
C2958 C2960 1.391 . S
C2959 C2958 1.386 . S
C2959 C2963 1.393 . S
C2960 H2949 0.950 . S
C2960 C2958 1.391 . S
C2960 C2961 1.400 . S
C2961 C2955 1.491 . S
C2961 C2960 1.400 . S
C2961 C2962 1.398 . S
C2962 H2950 0.950 . S
C2962 C2961 1.398 . S
C2962 C2963 1.391 . S
C2963 H2951 0.950 . S
C2963 C2959 1.393 . S
C2963 C2962 1.391 . S
H2964 C2972 0.950 . S
H2965 C2977 0.950 . S
H2966 C2974 0.950 . S
H2967 C2976 0.950 . S
H2968 C2978 0.950 . S
H2969 C2980 0.950 . S
H2970 C2982 0.950 . S
H2971 C2983 0.950 . S
C2972 H2964 0.950 . S
C2972 C2973 1.386 . S
C2972 C2974 1.391 . S
C2973 C2972 1.386 . S
C2973 C2977 1.393 . S
C2974 H2966 0.950 . S
C2974 C2972 1.391 . S
C2974 C2975 1.400 . S
C2975 C2974 1.400 . S
C2975 C2976 1.398 . S
C2975 C2981 1.491 . S
C2976 H2967 0.950 . S
C2976 C2975 1.398 . S
C2976 C2977 1.391 . S
C2977 H2965 0.950 . S
C2977 C2973 1.393 . S
C2977 C2976 1.391 . S
C2978 H2968 0.950 . S
C2978 C2979 1.386 . S
C2978 C2980 1.391 . S
C2979 C2978 1.386 . S
C2979 C2983 1.393 . S
C2980 H2969 0.950 . S
C2980 C2978 1.391 . S
C2980 C2981 1.400 . S
C2981 C2975 1.491 . S
C2981 C2980 1.400 . S
C2981 C2982 1.398 . S
C2982 H2970 0.950 . S
C2982 C2981 1.398 . S
C2982 C2983 1.391 . S
C2983 H2971 0.950 . S
C2983 C2979 1.393 . S
C2983 C2982 1.391 . S
H2984 C2992 0.950 . S
H2985 C2997 0.950 . S
H2986 C2994 0.950 . S
H2987 C2996 0.950 . S
H2988 C2998 0.950 . S
H2989 C3000 0.950 . S
H2990 C3002 0.950 . S
H2991 C3003 0.950 . S
C2992 H2984 0.950 . S
C2992 C2993 1.386 . S
C2992 C2994 1.391 . S
C2993 C2992 1.386 . S
C2993 C2997 1.393 . S
C2994 H2986 0.950 . S
C2994 C2992 1.391 . S
C2994 C2995 1.400 . S
C2995 C2994 1.400 . S
C2995 C2996 1.398 . S
C2995 C3001 1.491 . S
C2996 H2987 0.950 . S
C2996 C2995 1.398 . S
C2996 C2997 1.391 . S
C2997 H2985 0.950 . S
C2997 C2993 1.393 . S
C2997 C2996 1.391 . S
C2998 H2988 0.950 . S
C2998 C2999 1.386 . S
C2998 C3000 1.391 . S
C2999 C2998 1.386 . S
C2999 C3003 1.393 . S
C3000 H2989 0.950 . S
C3000 C2998 1.391 . S
C3000 C3001 1.400 . S
C3001 C2995 1.491 . S
C3001 C3000 1.400 . S
C3001 C3002 1.398 . S
C3002 H2990 0.950 . S
C3002 C3001 1.398 . S
C3002 C3003 1.391 . S
C3003 H2991 0.950 . S
C3003 C2999 1.393 . S
C3003 C3002 1.391 . S
H3004 C3012 0.950 . S
H3005 C3017 0.950 . S
H3006 C3014 0.950 . S
H3007 C3016 0.950 1_565 S
H3008 C3018 0.950 . S
H3009 C3020 0.950 . S
H3010 C3022 0.950 . S
H3011 C3023 0.950 . S
C3012 H3004 0.950 . S
C3012 C3013 1.386 . S
C3012 C3014 1.391 . S
C3013 C3012 1.386 . S
C3013 C3017 1.393 . S
C3014 H3006 0.950 . S
C3014 C3012 1.391 . S
C3014 C3015 1.400 . S
C3015 C3014 1.400 . S
C3015 C3016 1.398 . S
C3015 C3021 1.491 . S
C3016 H3007 0.950 1_545 S
C3016 C3015 1.398 . S
C3016 C3017 1.391 . S
C3017 H3005 0.950 . S
C3017 C3013 1.393 . S
C3017 C3016 1.391 . S
C3018 H3008 0.950 . S
C3018 C3019 1.386 1_565 S
C3018 C3020 1.391 . S
C3019 C3018 1.386 1_545 S
C3019 C3023 1.393 . S
C3020 H3009 0.950 . S
C3020 C3018 1.391 . S
C3020 C3021 1.400 1_565 S
C3021 C3015 1.491 . S
C3021 C3020 1.400 1_545 S
C3021 C3022 1.398 . S
C3022 H3010 0.950 . S
C3022 C3021 1.398 . S
C3022 C3023 1.391 . S
C3023 H3011 0.950 . S
C3023 C3019 1.393 . S
C3023 C3022 1.391 . S
C1593 C7 1.188 . S
C1599 C981 1.165 . S
C1613 C23 1.635 . S
C1619 C1061 1.578 . S
C1639 C1129 1.313 . S
C1633 C37 1.353 . S
C1653 C35 1.738 . S
C1659 C1209 1.704 . S
C1673 C9 1.509 . S
C1679 C1283 1.531 . S
C1693 C21 1.655 . S
C1699 C1351 1.605 . S
C1713 C49 1.110 . S
C1719 C1277 1.092 . S
C1739 C1357 1.486 . S
C1733 C65 1.465 . S
C1759 C1203 1.321 . S
C1753 C79 1.308 1_556 S
C1773 C77 1.686 . S
C1779 C1135 1.670 1_545 S
C1799 C987 1.517 . S
C1793 C51 1.449 . S
C1813 C63 1.474 . S
C1819 C1055 1.477 . S
C1833 C91 1.456 . S
C1839 C1425 1.395 . S
C1853 C107 1.675 . S
C1859 C1505 1.625 . S
C1879 C1573 1.541 . S
C1873 C121 1.620 . S
C1893 C119 1.948 . S
C1899 C321 1.895 . S
C1913 C93 1.803 . S
C1919 C395 1.752 . S
C1933 C105 1.688 . S
C1939 C463 1.636 . S
C1953 C133 1.145 . S
C1959 C389 1.132 . S
C1973 C149 1.512 . S
C1979 C469 1.527 . S
C1999 C315 1.422 . S
C1993 C163 1.444 . S
C2019 C1579 1.903 . S
C2013 C161 1.911 . S
C2039 C1431 1.591 . S
C2033 C135 1.591 . S
C2059 C1499 1.540 . S
C2053 C147 1.534 . S
C2073 C175 1.361 . S
C2079 C537 1.306 . S
C2093 C191 1.688 . S
C2099 C617 1.627 . S
C2113 C205 1.653 . S
C2119 C685 1.549 . S
C2133 C203 2.061 . S
C2139 C765 2.013 . S
C2159 C839 1.714 . S
C2153 C177 1.789 . S
C2179 C907 1.667 . S
C2173 C189 1.714 . S
C2199 C833 1.281 . S
C2193 C217 1.280 . S
C2219 C913 1.505 . S
C2213 C233 1.511 . S
C2233 C247 1.386 . S
C2239 C759 1.385 . S
C2259 C691 1.787 . S
C2253 C245 1.800 . S
C2273 C219 1.620 . S
C2279 C543 1.627 . S
C2299 C611 1.512 . S
C2293 C231 1.512 . S
C2319 C291 1.958 . S
C2313 C8 2.001 . S
C2333 C17 1.461 . S
C2339 C365 1.452 . S
C2359 C451 1.549 . S
C2353 C31 1.544 . S
C2379 C525 1.297 . S
C2373 C36 1.292 1_556 S
C2399 C587 1.632 . S
C2393 C3 1.642 1_556 S
C2419 C673 1.536 . S
C2413 C22 1.547 . S
C2433 C50 2.173 . S
C2439 C661 2.078 . S
C2453 C59 1.662 . S
C2459 C513 1.589 . S
C2473 C73 1.762 . S
C2479 C599 1.732 . S
C2493 C78 1.566 . S
C2499 C377 1.498 . S
C2519 C439 1.753 . S
C2513 C45 1.828 . S
C2533 C64 1.781 . S
C2539 C303 1.729 . S
C2559 C735 1.895 . S
C2553 C92 1.944 . S
C2573 C101 1.634 1_545 S
C2579 C809 1.624 . S
C2593 C115 1.616 . S
C2599 C895 1.613 . S
C2619 C969 1.097 . S
C2613 C120 1.100 . S
C2633 C87 1.581 . S
C2639 C1031 1.575 . S
C2653 C106 1.400 . S
C2659 C1117 1.402 . S
C2673 C134 1.843 . S
C2679 C1105 1.797 . S
C2693 C143 1.401 . S
C2699 C957 1.364 . S
C2719 C1043 1.669 . S
C2713 C157 1.707 . S
C2733 C162 1.558 . S
C2739 C821 1.497 . S
C2753 C129 1.877 1_545 S
C2759 C883 1.804 . S
C2779 C747 1.827 . S
C2773 C148 1.883 1_655 S
C2799 C1179 1.760 . S
C2793 C176 1.801 . S
C2813 C185 1.318 . S
C2819 C1253 1.314 . S
C2833 C199 1.515 . S
C2839 C1339 1.508 . S
C2859 C1413 1.275 . S
C2853 C204 1.293 . S
C2879 C1475 1.680 . S
C2873 C171 1.696 1_565 S
C2893 C190 1.664 1_455 S
C2899 C1561 1.636 . S
C2913 C218 2.119 . S
C2919 C1549 2.020 . S
C2933 C227 1.818 1_565 S
C2939 C1401 1.738 . S
C2959 C1487 1.781 . S
C2953 C241 1.818 1_455 S
C2979 C1265 1.149 . S
C2973 C246 1.176 . S
C2999 C1327 1.706 . S
C2993 C213 1.769 . S
C3013 C232 1.488 . S
C3019 C1191 1.464 1_545 S
