# Generated by pormake.
# Topology pth, (4,4)-cn, num edge types: 1
# Building blocks:
#     Node 0, Type 0, BuildingBlock: GALJAG_clean_sbu_0, # of connection points: 4
#     Node 1, Type 0, BuildingBlock: GALJAG_clean_sbu_0, # of connection points: 4
#     Node 2, Type 0, BuildingBlock: GALJAG_clean_sbu_0, # of connection points: 4
#     Node 3, Type 1, BuildingBlock: NAWXER_clean_linker_0, # of connection points: 4
#     Node 4, Type 1, BuildingBlock: NAWXER_clean_linker_0, # of connection points: 4
#     Node 5, Type 1, BuildingBlock: NAWXER_clean_linker_0, # of connection points: 4
#     Edge 6, Type (0, 1), BuildingBlock: XIVTED_clean_linker_0, # of connection points: 2
#     Edge 7, Type (0, 1), BuildingBlock: XIVTED_clean_linker_0, # of connection points: 2
#     Edge 8, Type (0, 1), BuildingBlock: XIVTED_clean_linker_0, # of connection points: 2
#     Edge 9, Type (0, 1), BuildingBlock: XIVTED_clean_linker_0, # of connection points: 2
#     Edge 10, Type (0, 1), BuildingBlock: XIVTED_clean_linker_0, # of connection points: 2
#     Edge 11, Type (0, 1), BuildingBlock: XIVTED_clean_linker_0, # of connection points: 2
#     Edge 12, Type (0, 1), BuildingBlock: XIVTED_clean_linker_0, # of connection points: 2
#     Edge 13, Type (0, 1), BuildingBlock: XIVTED_clean_linker_0, # of connection points: 2
#     Edge 14, Type (0, 1), BuildingBlock: XIVTED_clean_linker_0, # of connection points: 2
#     Edge 15, Type (0, 1), BuildingBlock: XIVTED_clean_linker_0, # of connection points: 2
#     Edge 16, Type (0, 1), BuildingBlock: XIVTED_clean_linker_0, # of connection points: 2
#     Edge 17, Type (0, 1), BuildingBlock: XIVTED_clean_linker_0, # of connection points: 2
# Relax obj value: 0.002
# Max RMSD: 0.036
# Mean RMSD: 0.021
data_MOF--net-pth--node1-GALJAG_clean_sbu_0--node2-NAWXER_clean_linker_0--edge1-XIVTED_clean_linker_0
_symmetry_space_group_name_H-M    P1
_symmetry_Int_Tables_number       1
_symmetry_cell_setting            triclinic
loop_
_symmetry_equiv_pos_as_xyz
'x, y, z'
_cell_length_a     29.790988
_cell_length_b     29.814587
_cell_length_c     64.60029
_cell_angle_alpha  90.266081
_cell_angle_beta   90.095859
_cell_angle_gamma 119.94074
loop_
_atom_site_label
_atom_site_type_symbol
_atom_site_fract_x
_atom_site_fract_y
_atom_site_fract_z
_atom_type_partial_charge
In0 In -0.00084 -0.00061 0.0425 0.0
O1 O 0.95739 0.04253 0.05282 0.0
O2 O 0.02678 0.05868 0.06853 0.0
C3 C 0.92499 0.9273 0.01782 0.0
C4 C 0.07387 0.06552 0.01663 0.0
C5 C 0.00514 0.93363 0.06933 0.0
O6 O 0.91698 0.95754 0.02896 0.0
O7 O 0.97004 0.93368 0.01918 0.0
O8 O 0.0354 0.95228 0.05411 0.0
O9 O 0.97246 0.94856 0.07108 0.0
C10 C 0.98995 0.0679 0.06689 0.0
O11 O 0.08401 0.0478 0.03256 0.0
O12 O 0.02645 0.0498 0.01381 0.0
In13 In 0.00102 0.00595 0.37503 0.0
O14 O 0.03847 0.08894 0.36321 0.0
O15 O 0.97734 0.02993 0.34538 0.0
C16 C 0.07499 0.01715 0.40218 0.0
C17 C 0.9251 0.00129 0.39919 0.0
C18 C -0.0053 0.92846 0.35119 0.0
O19 O 0.08525 0.04323 0.38578 0.0
O20 O 0.02749 0.98604 0.40503 0.0
O21 O 0.9556 0.92519 0.36022 0.0
O22 O 0.0363 0.97041 0.35424 0.0
C23 C 0.00997 0.07742 0.34734 0.0
O24 O 0.92183 0.96148 0.3907 0.0
O25 O 0.96641 0.0429 0.39548 0.0
In26 In -0.00556 0.9937 0.70881 0.0
O27 O 0.95725 0.91498 0.7248 0.0
O28 O 0.93221 0.96788 0.73344 0.0
C29 C 0.0606 0.98686 0.68231 0.0
C30 C 0.92738 -0.00288 0.68167 0.0
C31 C 0.0625 0.06661 0.73509 0.0
O32 O 0.03071 0.94967 0.6938 0.0
O33 O 0.05665 0.02689 0.68414 0.0
O34 O 0.03097 0.07354 0.72437 0.0
O35 O 0.05918 0.02307 0.73263 0.0
C36 C 0.92763 0.92385 0.7359 0.0
O37 O 0.95855 0.03614 0.69227 0.0
O38 O 0.93044 0.95699 0.68471 0.0
C39 C 0.96291 0.32884 0.24147 0.0
C40 C 0.00576 0.34427 0.25475 0.0
C41 C 0.95811 0.3653 0.22959 0.0
C42 C -0.00399 0.41785 0.23077 0.0
C43 C 0.04379 0.39701 0.25571 0.0
C44 C 0.03867 0.43344 0.24399 0.0
C45 C 0.99058 0.45716 0.21896 0.0
C46 C 0.02256 0.36444 0.17232 0.0
C47 C 0.97989 0.33417 0.15929 0.0
C48 C 0.02356 0.40335 0.18476 0.0
C49 C 0.982 0.41291 0.18441 0.0
C50 C 0.93852 0.34429 0.15888 0.0
C51 C 0.93982 0.38361 0.1712 0.0
C52 C 0.98303 0.45438 0.19733 0.0
C53 C 0.02162 0.66805 0.17821 0.0
C54 C 0.9894 0.6562 0.16078 0.0
C55 C 0.01918 0.62851 0.19052 0.0
C56 C 0.98316 0.57639 0.18605 0.0
C57 C 0.95415 0.60418 0.15602 0.0
C58 C 0.95097 0.56466 0.16858 0.0
C59 C 0.98188 0.53382 0.19831 0.0
C60 C 0.94595 0.62574 0.24392 0.0
C61 C 0.98347 0.65007 0.25957 0.0
C62 C 0.94693 0.58844 0.23103 0.0
C63 C 0.98568 0.57509 0.23345 0.0
C64 C 0.02152 0.63578 0.26221 0.0
C65 C 0.02242 0.59848 0.24935 0.0
C66 C 0.98704 0.53527 0.22013 0.0
H67 H 0.93235 0.28879 0.24061 0.0
H68 H 0.92428 0.35259 0.2198 0.0
H69 H 0.0777 0.41026 0.26548 0.0
H70 H 0.06831 0.47387 0.24512 0.0
H71 H 0.05568 0.3587 0.1727 0.0
H72 H 0.05709 0.4264 0.19449 0.0
H73 H 0.90476 0.32146 0.14926 0.0
H74 H 0.90749 0.39063 0.17065 0.0
H75 H 0.04978 0.70787 0.18196 0.0
H76 H 0.04634 0.63883 0.20324 0.0
H77 H 0.9289 0.59414 0.14264 0.0
H78 H 0.92344 0.52483 0.16458 0.0
H79 H 0.91624 0.63601 0.24145 0.0
H80 H 0.91732 0.56993 0.21921 0.0
H81 H 0.05039 0.6531 0.27436 0.0
H82 H 0.05221 0.58825 0.25171 0.0
N83 N 0.99205 0.49732 0.22954 0.0
N84 N 0.97921 0.49287 0.18782 0.0
C85 C 0.66297 0.02894 0.50715 0.0
C86 C 0.64916 0.99177 0.49128 0.0
C87 C 0.62509 0.02904 0.51985 0.0
C88 C 0.57272 0.99148 0.51715 0.0
C89 C 0.59655 0.95479 0.48841 0.0
C90 C 0.55874 0.95483 0.50116 0.0
C91 C 0.53197 0.99124 0.53029 0.0
C92 C 0.63396 0.96064 0.57254 0.0
C93 C 0.65752 -0.00252 0.58852 0.0
C94 C 0.59386 0.95905 0.5607 0.0
C95 C 0.57714 -0.00514 0.56435 0.0
C96 C 0.63994 0.03261 0.59235 0.0
C97 C 0.6001 0.03118 0.58043 0.0
C98 C 0.53447 0.99374 0.55215 0.0
C99 C 0.32106 0.95048 0.57533 0.0
C100 C 0.3332 0.98727 0.59119 0.0
C101 C 0.36018 0.95197 0.56292 0.0
C102 C 0.41208 0.99035 0.56614 0.0
C103 C 0.38531 0.02496 0.59463 0.0
C104 C 0.4244 0.02621 0.58232 0.0
C105 C 0.45388 0.9927 0.55307 0.0
C106 C 0.35863 0.03464 0.51229 0.0
C107 C 0.33822 0.00409 0.4944 0.0
C108 C 0.39567 0.03089 0.52428 0.0
C109 C 0.4117 -0.00477 0.51899 0.0
C110 C 0.35512 0.96939 0.48881 0.0
C111 C 0.39145 0.96494 0.50102 0.0
C112 C 0.4521 0.99178 0.53119 0.0
H113 H 0.70312 0.0578 0.50987 0.0
H114 H 0.63674 0.05862 0.53171 0.0
H115 H 0.58445 0.92625 0.47611 0.0
H116 H 0.51848 0.92596 0.49861 0.0
H117 H 0.64665 0.93315 0.56908 0.0
H118 H 0.57578 0.92965 0.54878 0.0
H119 H 0.65637 0.06076 0.6048 0.0
H120 H 0.58733 0.05871 0.58373 0.0
H121 H 0.28126 0.92108 0.57229 0.0
H122 H 0.34991 0.92319 0.55081 0.0
H123 H 0.39592 0.05329 0.60695 0.0
H124 H 0.46425 0.05573 0.58522 0.0
H125 H 0.34692 0.06239 0.5167 0.0
H126 H 0.41234 0.05658 0.53746 0.0
H127 H 0.33987 0.94537 0.47508 0.0
H128 H 0.40369 0.93771 0.49642 0.0
N129 N 0.4909 0.99037 0.5207 0.0
N130 N 0.49531 0.99436 0.56266 0.0
C131 C 0.35791 0.32703 0.84242 0.0
C132 C 0.33337 0.34094 0.82716 0.0
C133 C 0.3975 0.36482 0.85468 0.0
C134 C 0.41271 0.41731 0.85229 0.0
C135 C 0.34929 0.39363 0.8246 0.0
C136 C 0.38864 0.43139 0.83699 0.0
C137 C 0.45533 0.45798 0.86489 0.0
C138 C 0.33048 0.36011 0.91067 0.0
C139 C 0.34513 0.33301 0.92437 0.0
C140 C 0.36731 0.39937 0.8982 0.0
C141 C 0.41945 0.41225 0.89915 0.0
C142 C 0.39751 0.34622 0.92526 0.0
C143 C 0.43432 0.38573 0.9129 0.0
C144 C 0.45917 0.45475 0.88659 0.0
C145 C 0.62932 0.66745 0.90967 0.0
C146 C 0.65499 0.65527 0.92501 0.0
C147 C 0.59193 0.62861 0.89701 0.0
C148 C 0.57969 0.57691 0.89938 0.0
C149 C 0.64244 0.60345 0.92741 0.0
C150 C 0.60486 0.56461 0.91481 0.0
C151 C 0.53855 0.53516 0.8867 0.0
C152 C 0.6681 0.62864 0.84288 0.0
C153 C 0.65629 0.65486 0.82771 0.0
C154 C 0.62897 0.59088 0.8551 0.0
C155 C 0.57729 0.5788 0.85247 0.0
C156 C 0.60446 0.64237 0.82499 0.0
C157 C 0.56528 0.6044 0.83716 0.0
C158 C 0.53548 0.53784 0.86497 0.0
H159 H 0.34648 0.28686 0.84495 0.0
H160 H 0.41655 0.35294 0.86587 0.0
H161 H 0.33202 0.40589 0.81275 0.0
H162 H 0.40026 0.4717 0.83464 0.0
H163 H 0.29074 0.35178 0.90987 0.0
H164 H 0.3552 0.42021 0.88803 0.0
H165 H 0.41013 0.32578 0.93539 0.0
H166 H 0.47444 0.39527 0.91392 0.0
H167 H 0.63832 0.70705 0.9074 0.0
H168 H 0.57207 0.6389 0.88556 0.0
H169 H 0.66102 0.59277 0.93929 0.0
H170 H 0.59552 0.52489 0.91709 0.0
H171 H 0.70767 0.63754 0.8454 0.0
H172 H 0.63906 0.57073 0.86645 0.0
H173 H 0.59406 0.66137 0.81323 0.0
H174 H 0.52559 0.5952 0.8347 0.0
N175 N 0.4937 0.49947 0.85492 0.0
N176 N 0.5006 0.49344 0.89663 0.0
H177 H 0.92553 0.10827 0.06262 0.0
H178 H 0.01631 0.26824 0.1687 0.0
H179 H 0.04456 0.11267 0.10217 0.0
H180 H 0.94095 0.30473 0.11976 0.0
H181 H 0.01726 0.2025 0.1464 0.0
H182 H 0.9207 0.17181 0.08542 0.0
C183 C 0.95049 0.12249 0.07612 0.0
C184 C 0.98561 0.1054 0.08051 0.0
C185 C 0.00051 0.22493 0.14057 0.0
C186 C 0.98001 0.17743 0.10663 0.0
C187 C 0.00019 0.26273 0.15325 0.0
C188 C 0.9789 0.29259 0.1461 0.0
C189 C 0.9789 0.21633 0.12063 0.0
C190 C 0.95728 0.28242 0.12608 0.0
C191 C 0.94783 0.15878 0.08907 0.0
C192 C 0.01711 0.12503 0.09818 0.0
N193 N 0.95784 0.24516 0.11405 0.0
N194 N 0.01345 0.15987 0.11063 0.0
H195 H 0.92221 0.08298 0.41685 0.0
H196 H 0.65513 0.90851 0.47625 0.0
H197 H 0.83507 0.91639 0.41193 0.0
H198 H 0.73485 0.07553 0.47501 0.0
H199 H 0.72138 0.91006 0.45351 0.0
H200 H 0.85499 0.08048 0.43913 0.0
C201 C 0.88886 0.04582 0.42047 0.0
C202 C 0.88419 -0.00021 0.41254 0.0
C203 C 0.72433 0.94635 0.45821 0.0
C204 C 0.807 -0.00339 0.43811 0.0
C205 C 0.68638 0.94551 0.47113 0.0
C206 C 0.68936 0.99199 0.4776 0.0
C207 C 0.7657 0.99399 0.45173 0.0
C208 C 0.73129 0.03876 0.47071 0.0
C209 C 0.85044 0.04442 0.43318 0.0
C210 C 0.84014 0.95277 0.41771 0.0
N211 N 0.76774 0.03854 0.45818 0.0
N212 N 0.80324 0.95236 0.43022 0.0
H213 H 0.8564 0.93294 0.75928 0.0
H214 H 0.73707 0.65108 0.80917 0.0
H215 H 0.91164 0.82729 0.74508 0.0
H216 H 0.6701 0.74939 0.81646 0.0
H217 H 0.80487 0.7172 0.78752 0.0
H218 H 0.79143 0.86816 0.78213 0.0
C219 C 0.85495 0.89612 0.76103 0.0
C220 C 0.88938 0.88539 0.75024 0.0
C221 C 0.77535 0.7243 0.79385 0.0
C222 C 0.81502 0.81099 0.77638 0.0
C223 C 0.73681 0.68672 0.80631 0.0
C224 C 0.69783 0.69472 0.81462 0.0
C225 C 0.77512 0.77041 0.78976 0.0
C226 C 0.69902 0.74134 0.81018 0.0
C227 C 0.81776 0.8591 0.77405 0.0
C228 C 0.88576 0.83707 0.75309 0.0
N229 N 0.73706 0.77742 0.79809 0.0
N230 N 0.84919 0.80161 0.76589 0.0
H231 H 0.96303 0.90744 0.10786 0.0
H232 H 0.00203 0.66426 0.11888 0.0
H233 H 0.04906 0.87322 0.063 0.0
H234 H 0.98625 0.74292 0.17216 0.0
H235 H 0.00898 0.73416 0.09679 0.0
H236 H 0.96131 0.84108 0.13062 0.0
C237 C 0.9817 0.88604 0.10285 0.0
C238 C 0.00624 0.8957 0.08357 0.0
C239 C 0.00417 0.73614 0.11332 0.0
C240 C 0.00369 0.81948 0.10929 0.0
C241 C -0.00015 0.69622 0.12587 0.0
C242 C -0.00652 0.698 0.1473 0.0
C243 C 0.00107 0.77751 0.12225 0.0
C244 C 0.99136 0.74037 0.15569 0.0
C245 C 0.98082 0.84837 0.11585 0.0
C246 C 0.02991 0.86702 0.07781 0.0
N247 N -0.00531 0.77832 0.14311 0.0
N248 N 0.02759 0.82974 0.09054 0.0
H249 H 0.17866 0.06094 0.39479 0.0
H250 H 0.24932 0.00156 0.50679 0.0
H251 H 0.06315 0.9806 0.44165 0.0
H252 H 0.3406 0.0181 0.4526 0.0
H253 H 0.18584 0.00862 0.48481 0.0
H254 H 0.24422 0.06079 0.41771 0.0
C255 C 0.16723 0.04371 0.40997 0.0
C256 C 0.11546 0.02055 0.41634 0.0
C257 C 0.21982 0.01074 0.47777 0.0
C258 C 0.19005 0.0205 0.44257 0.0
C259 C 0.25603 0.00694 0.49027 0.0
C260 C 0.29997 0.009 0.48142 0.0
C261 C 0.22817 0.01755 0.45635 0.0
C262 C 0.30688 0.01579 0.45996 0.0
C263 C 0.20454 0.0434 0.42297 0.0
C264 C 0.10264 -0.00138 0.43613 0.0
N265 N 0.27144 0.02005 0.44814 0.0
N266 N 0.13975 -0.00079 0.44859 0.0
H267 H 0.13992 0.06308 0.75615 0.0
H268 H 0.24422 0.33659 0.81276 0.0
H269 H 0.07342 0.16075 0.74583 0.0
H270 H 0.32841 0.25346 0.81077 0.0
H271 H 0.17762 0.27021 0.79041 0.0
H272 H 0.20509 0.1296 0.77874 0.0
C273 C 0.13896 0.09853 0.75869 0.0
C274 C 0.10126 0.10647 0.74909 0.0
C275 C 0.21071 0.26659 0.79489 0.0
C276 C 0.17582 0.18287 0.77497 0.0
C277 C 0.24892 0.3046 0.80757 0.0
C278 C 0.29213 0.30072 0.81373 0.0
C279 C 0.21551 0.22418 0.7884 0.0
C280 C 0.29549 0.25779 0.80677 0.0
C281 C 0.17629 0.13658 0.77154 0.0
C282 C 0.1019 0.15316 0.75291 0.0
N283 N 0.25772 0.22125 0.79453 0.0
N284 N 0.13859 0.18964 0.76561 0.0
H285 H 0.85219 0.91569 0.65985 0.0
H286 H 0.74521 0.08243 0.60364 0.0
H287 H 0.91592 0.07946 0.67042 0.0
H288 H 0.66573 0.91534 0.60292 0.0
H289 H 0.81211 0.08326 0.62583 0.0
H290 H 0.788 0.91613 0.63646 0.0
C291 C 0.85276 0.95182 0.6572 0.0
C292 C 0.88934 -0.00239 0.66712 0.0
C293 C 0.78004 0.04644 0.62079 0.0
C294 C 0.81593 -0.0016 0.64033 0.0
C295 C 0.74165 0.04589 0.60819 0.0
C296 C 0.69952 -0.00129 0.60142 0.0
C297 C 0.77653 -0.0005 0.62661 0.0
C298 C 0.69771 0.95266 0.6075 0.0
C299 C 0.81601 0.95201 0.64387 0.0
C300 C 0.88829 0.04328 0.66311 0.0
N301 N 0.73558 0.95424 0.61975 0.0
N302 N 0.85213 0.04253 0.65 0.0
H303 H 0.93261 0.85443 -0.00503 0.0
H304 H 0.65057 0.73536 0.94407 0.0
H305 H 0.82701 0.90945 0.00956 0.0
H306 H 0.74912 0.66862 0.93688 0.0
H307 H 0.71609 0.8023 0.96663 0.0
H308 H 0.86703 0.78868 0.97229 0.0
C309 C 0.89555 0.85266 0.99339 0.0
C310 C 0.88517 0.88741 0.00416 0.0
C311 C 0.72333 0.77298 0.96013 0.0
C312 C 0.80985 0.81221 0.97816 0.0
C313 C 0.68612 0.73498 0.94715 0.0
C314 C 0.69442 0.69635 0.93859 0.0
C315 C 0.76932 0.77256 0.96447 0.0
C316 C 0.74087 0.6973 0.94333 0.0
C317 C 0.85807 0.81504 0.98046 0.0
C318 C 0.83651 0.88332 0.00155 0.0
N319 N 0.77658 0.73483 0.9559 0.0
N320 N 0.80062 0.84641 0.98876 0.0
H321 H 0.07507 0.92715 0.33182 0.0
H322 H 0.90023 0.65091 0.27748 0.0
H323 H 0.90965 0.83574 0.34022 0.0
H324 H 0.06661 0.74155 0.27228 0.0
H325 H 0.90181 0.71829 0.29982 0.0
H326 H 0.07177 0.85943 0.30954 0.0
C327 C 0.03798 0.89273 0.32897 0.0
C328 C 0.99254 0.88704 0.33787 0.0
C329 C 0.93795 0.72336 0.2938 0.0
C330 C 0.98842 0.80916 0.31228 0.0
C331 C 0.93705 0.68507 0.28095 0.0
C332 C 0.98339 0.69053 0.27303 0.0
C333 C 0.98551 0.76751 0.29869 0.0
C334 C 0.03002 0.73532 0.27826 0.0
C335 C 0.03612 0.85402 0.31624 0.0
C336 C 0.94559 0.84161 0.33366 0.0
N337 N 0.02986 0.77201 0.29072 0.0
N338 N 0.94471 0.80436 0.32112 0.0
H339 H 0.07412 0.90414 0.67382 0.0
H340 H 0.32252 0.06969 0.60278 0.0
H341 H 0.1334 0.06487 0.65883 0.0
H342 H 0.24957 0.90384 0.60879 0.0
H343 H 0.25505 0.06876 0.62447 0.0
H344 H 0.13931 0.90305 0.65103 0.0
C345 C 0.10075 0.93912 0.66569 0.0
C346 C 0.09844 0.98468 0.66822 0.0
C347 C 0.25365 0.03251 0.62102 0.0
C348 C 0.17309 0.98382 0.64228 0.0
C349 C 0.29236 0.03307 0.60875 0.0
C350 C 0.29176 0.9868 0.60405 0.0
C351 C 0.21411 0.98535 0.62882 0.0
C352 C 0.25127 0.94036 0.61192 0.0
C353 C 0.13787 0.93847 0.65268 0.0
C354 C 0.13381 0.0289 0.65733 0.0
N355 N 0.21417 0.94082 0.62401 0.0
N356 N 0.16976 0.02741 0.64491 0.0
H357 H 0.05976 0.09761 0.97899 0.0
H358 H 0.35688 0.311 0.96464 0.0
H359 H 0.17918 0.1177 0.02217 0.0
H360 H 0.24416 0.26083 0.9151 0.0
H361 H 0.29193 0.24368 0.98667 0.0
H362 H 0.12621 0.16098 0.95616 0.0
C363 C 0.10004 0.11532 0.98364 0.0
C364 C 0.11405 0.1025 0.0025 0.0
C365 C 0.28153 0.24731 0.97095 0.0
C366 C 0.19026 0.17529 0.97651 0.0
C367 C 0.31867 0.28561 0.95829 0.0
C368 C 0.30612 0.29177 0.93791 0.0
C369 C 0.23122 0.21515 0.96329 0.0
C370 C 0.25551 0.25824 0.93078 0.0
C371 C 0.13794 0.15139 0.97058 0.0
C372 C 0.16677 0.12649 0.00774 0.0
N373 N 0.21992 0.22156 0.94347 0.0
N374 N 0.20301 0.16203 0.99486 0.0
H375 H 0.96158 0.06107 0.30984 0.0
H376 H 0.04259 0.35684 0.29461 0.0
H377 H 0.06475 0.18271 0.35157 0.0
H378 H 0.97838 0.24365 0.24522 0.0
H379 H 0.0477 0.29286 0.31629 0.0
H380 H 0.96349 0.12648 0.28655 0.0
C381 C 0.98481 0.10158 0.31405 0.0
C382 C 0.01295 0.11657 0.33267 0.0
C383 C 0.03275 0.28213 0.30067 0.0
C384 C 0.01497 0.19145 0.30622 0.0
C385 C 0.03006 0.31876 0.2882 0.0
C386 C 0.01004 0.30581 0.26797 0.0
C387 C 0.01479 0.23187 0.29301 0.0
C388 C -0.00669 0.25528 0.26079 0.0
C389 C 0.98597 0.13887 0.30073 0.0
C390 C 0.0425 0.16953 0.33735 0.0
N391 N -0.00418 0.22011 0.27333 0.0
N392 N 0.04243 0.20508 0.32428 0.0
loop_
_geom_bond_atom_site_label_1
_geom_bond_atom_site_label_2
_geom_bond_distance
_geom_bond_site_symmetry_2
_ccdc_geom_bond_type
In0 O1 2.294 1_455 S
In0 O2 2.326 . S
In0 O6 2.266 1_445 S
In0 O7 2.326 1_445 S
In0 O8 2.266 1_545 S
In0 O9 2.326 1_445 S
In0 O11 2.294 . S
In0 O12 2.326 . S
O1 In0 2.294 1_655 S
O1 C10 1.240 1_655 S
O2 In0 2.326 . S
O2 C10 1.252 . S
C3 O6 1.252 . S
C3 O7 1.260 . S
C4 O11 1.240 . S
C4 O12 1.252 . S
C5 O8 1.236 1_655 S
C5 O9 1.286 . S
O6 In0 2.266 1_665 S
O6 C3 1.252 . S
O7 In0 2.326 1_665 S
O7 C3 1.260 . S
O8 In0 2.266 1_565 S
O8 C5 1.236 1_455 S
O9 In0 2.326 1_665 S
O9 C5 1.286 . S
C10 O1 1.240 1_455 S
C10 O2 1.252 . S
O11 In0 2.294 . S
O11 C4 1.240 . S
O12 In0 2.326 . S
O12 C4 1.252 . S
In13 O14 2.294 . S
In13 O15 2.326 1_455 S
In13 O19 2.266 . S
In13 O20 2.326 1_545 S
In13 O21 2.266 1_445 S
In13 O22 2.326 1_545 S
In13 O24 2.294 1_445 S
In13 O25 2.326 1_455 S
O14 In13 2.294 . S
O14 C23 1.240 1_455 S
O15 In13 2.326 1_655 S
O15 C23 1.252 . S
C16 O19 1.252 1_565 S
C16 O20 1.260 . S
C17 O24 1.240 1_545 S
C17 O25 1.252 . S
C18 O21 1.252 1_455 S
C18 O22 1.260 . S
O19 In13 2.266 . S
O19 C16 1.252 1_545 S
O20 In13 2.326 1_565 S
O20 C16 1.260 . S
O21 In13 2.266 1_665 S
O21 C18 1.252 1_655 S
O22 In13 2.326 1_565 S
O22 C18 1.260 . S
C23 O14 1.240 1_655 S
C23 O15 1.252 . S
O24 In13 2.294 1_665 S
O24 C17 1.240 1_565 S
O25 In13 2.326 1_655 S
O25 C17 1.252 . S
In26 O27 2.280 1_445 S
In26 O28 2.328 1_445 S
In26 O32 2.252 1_545 S
In26 O33 2.328 . S
In26 O34 2.280 . S
In26 O35 2.323 . S
In26 O37 2.308 1_455 S
In26 O38 2.324 1_445 S
O27 In26 2.280 1_665 S
O27 C36 1.240 . S
O28 In26 2.328 1_665 S
O28 C36 1.252 . S
C29 O32 1.252 1_545 S
C29 O33 1.260 . S
C30 O37 1.240 1_565 S
C30 O38 1.252 . S
C31 O34 1.252 . S
C31 O35 1.260 . S
O32 In26 2.252 1_565 S
O32 C29 1.252 1_565 S
O33 In26 2.328 . S
O33 C29 1.260 . S
O34 In26 2.280 . S
O34 C31 1.252 . S
O35 In26 2.323 . S
O35 C31 1.260 . S
C36 O27 1.240 . S
C36 O28 1.252 . S
O37 In26 2.308 1_655 S
O37 C30 1.240 1_545 S
O38 In26 2.324 1_665 S
O38 C30 1.252 . S
C39 C40 1.384 1_655 S
C39 C41 1.384 . S
C39 H67 0.931 . S
C40 C39 1.384 1_455 S
C40 C43 1.382 . S
C41 C39 1.384 . S
C41 C42 1.381 1_655 S
C41 H68 0.930 . S
C42 C41 1.381 1_455 S
C42 C44 1.381 . S
C42 C45 1.487 . S
C43 C40 1.382 . S
C43 C44 1.387 . S
C43 H69 0.930 . S
C44 C42 1.381 . S
C44 C43 1.387 . S
C44 H70 0.931 . S
C45 C42 1.487 . S
C45 C52 1.400 . S
C45 N83 1.343 . S
C46 C47 1.384 . S
C46 C48 1.384 . S
C46 H71 0.931 . S
C47 C46 1.384 . S
C47 C50 1.382 1_455 S
C48 C46 1.384 . S
C48 C49 1.382 1_455 S
C48 H72 0.930 . S
C49 C48 1.382 1_655 S
C49 C51 1.381 . S
C49 C52 1.492 1_655 S
C50 C47 1.382 1_655 S
C50 C51 1.387 . S
C50 H73 0.930 . S
C51 C49 1.381 . S
C51 C50 1.387 . S
C51 H74 0.931 . S
C52 C45 1.400 . S
C52 C49 1.492 1_455 S
C52 N84 1.337 1_455 S
C53 C54 1.384 . S
C53 C55 1.384 . S
C53 H75 0.931 . S
C54 C53 1.384 . S
C54 C57 1.382 1_455 S
C55 C53 1.384 . S
C55 C56 1.382 1_455 S
C55 H76 0.930 . S
C56 C55 1.382 1_655 S
C56 C58 1.381 . S
C56 C59 1.482 1_655 S
C57 C54 1.382 1_655 S
C57 C58 1.387 . S
C57 H77 0.930 . S
C58 C56 1.381 . S
C58 C57 1.387 . S
C58 H78 0.931 . S
C59 C56 1.482 1_455 S
C59 C66 1.400 . S
C59 N84 1.348 1_455 S
C60 C61 1.384 1_655 S
C60 C62 1.384 . S
C60 H79 0.931 . S
C61 C60 1.384 1_455 S
C61 C64 1.382 . S
C62 C60 1.384 . S
C62 C63 1.381 1_655 S
C62 H80 0.930 . S
C63 C62 1.381 1_455 S
C63 C65 1.381 . S
C63 C66 1.487 . S
C64 C61 1.382 . S
C64 C65 1.387 . S
C64 H81 0.930 . S
C65 C63 1.381 . S
C65 C64 1.387 . S
C65 H82 0.931 . S
C66 C59 1.400 . S
C66 C63 1.487 . S
C66 N83 1.343 . S
H67 C39 0.931 . S
H68 C41 0.930 . S
H69 C43 0.930 . S
H70 C44 0.931 . S
H71 C46 0.931 . S
H72 C48 0.930 . S
H73 C50 0.930 . S
H74 C51 0.931 . S
H75 C53 0.931 . S
H76 C55 0.930 . S
H77 C57 0.930 . S
H78 C58 0.931 . S
H79 C60 0.931 . S
H80 C62 0.930 . S
H81 C64 0.930 . S
H82 C65 0.931 . S
N83 C45 1.343 . S
N83 C66 1.343 . S
N84 C52 1.337 1_655 S
N84 C59 1.348 1_655 S
C85 C86 1.384 . S
C85 C87 1.384 . S
C85 H113 0.931 . S
C86 C85 1.384 . S
C86 C89 1.382 1_545 S
C87 C85 1.384 . S
C87 C88 1.379 1_545 S
C87 H114 0.930 . S
C88 C87 1.379 1_565 S
C88 C90 1.388 . S
C88 C91 1.482 1_565 S
C89 C86 1.382 1_565 S
C89 C90 1.387 . S
C89 H115 0.930 . S
C90 C88 1.388 . S
C90 C89 1.387 . S
C90 H116 0.931 . S
C91 C88 1.482 1_545 S
C91 C98 1.399 . S
C91 N129 1.344 1_545 S
C92 C93 1.384 1_565 S
C92 C94 1.384 . S
C92 H117 0.931 . S
C93 C92 1.384 1_545 S
C93 C96 1.382 . S
C94 C92 1.384 . S
C94 C95 1.381 1_565 S
C94 H118 0.930 . S
C95 C94 1.381 1_545 S
C95 C97 1.381 . S
C95 C98 1.487 . S
C96 C93 1.382 . S
C96 C97 1.387 . S
C96 H119 0.930 . S
C97 C95 1.381 . S
C97 C96 1.387 . S
C97 H120 0.931 . S
C98 C91 1.399 . S
C98 C95 1.487 . S
C98 N130 1.343 . S
C99 C100 1.384 1_565 S
C99 C101 1.384 . S
C99 H121 0.931 . S
C100 C99 1.384 1_545 S
C100 C103 1.382 . S
C101 C99 1.384 . S
C101 C102 1.381 1_565 S
C101 H122 0.930 . S
C102 C101 1.381 1_545 S
C102 C104 1.381 . S
C102 C105 1.487 . S
C103 C100 1.382 . S
C103 C104 1.387 . S
C103 H123 0.930 . S
C104 C102 1.381 . S
C104 C103 1.387 . S
C104 H124 0.931 . S
C105 C102 1.487 . S
C105 C112 1.399 . S
C105 N130 1.343 . S
C106 C107 1.384 . S
C106 C108 1.384 . S
C106 H125 0.931 . S
C107 C106 1.384 . S
C107 C110 1.382 1_545 S
C108 C106 1.384 . S
C108 C109 1.371 1_545 S
C108 H126 0.930 . S
C109 C108 1.371 1_565 S
C109 C111 1.387 . S
C109 C112 1.492 1_565 S
C110 C107 1.382 1_565 S
C110 C111 1.387 . S
C110 H127 0.930 . S
C111 C109 1.387 . S
C111 C110 1.387 . S
C111 H128 0.931 . S
C112 C105 1.399 . S
C112 C109 1.492 1_545 S
C112 N129 1.342 1_545 S
H113 C85 0.931 . S
H114 C87 0.930 . S
H115 C89 0.930 . S
H116 C90 0.931 . S
H117 C92 0.931 . S
H118 C94 0.930 . S
H119 C96 0.930 . S
H120 C97 0.931 . S
H121 C99 0.931 . S
H122 C101 0.930 . S
H123 C103 0.930 . S
H124 C104 0.931 . S
H125 C106 0.931 . S
H126 C108 0.930 . S
H127 C110 0.930 . S
H128 C111 0.931 . S
N129 C91 1.344 1_565 S
N129 C112 1.342 1_565 S
N130 C98 1.343 . S
N130 C105 1.343 . S
C131 C132 1.384 . S
C131 C133 1.384 . S
C131 H159 0.931 . S
C132 C131 1.384 . S
C132 C135 1.382 . S
C133 C131 1.384 . S
C133 C134 1.381 . S
C133 H160 0.930 . S
C134 C133 1.381 . S
C134 C136 1.381 . S
C134 C137 1.487 . S
C135 C132 1.382 . S
C135 C136 1.387 . S
C135 H161 0.930 . S
C136 C134 1.381 . S
C136 C135 1.387 . S
C136 H162 0.931 . S
C137 C134 1.487 . S
C137 C144 1.399 . S
C137 N175 1.343 . S
C138 C139 1.384 . S
C138 C140 1.384 . S
C138 H163 0.931 . S
C139 C138 1.384 . S
C139 C142 1.382 . S
C140 C138 1.384 . S
C140 C141 1.381 . S
C140 H164 0.930 . S
C141 C140 1.381 . S
C141 C143 1.381 . S
C141 C144 1.487 . S
C142 C139 1.382 . S
C142 C143 1.387 . S
C142 H165 0.930 . S
C143 C141 1.381 . S
C143 C142 1.387 . S
C143 H166 0.931 . S
C144 C137 1.399 . S
C144 C141 1.487 . S
C144 N176 1.343 . S
C145 C146 1.384 . S
C145 C147 1.384 . S
C145 H167 0.931 . S
C146 C145 1.384 . S
C146 C149 1.382 . S
C147 C145 1.384 . S
C147 C148 1.381 . S
C147 H168 0.930 . S
C148 C147 1.381 . S
C148 C150 1.381 . S
C148 C151 1.487 . S
C149 C146 1.382 . S
C149 C150 1.387 . S
C149 H169 0.930 . S
C150 C148 1.381 . S
C150 C149 1.387 . S
C150 H170 0.931 . S
C151 C148 1.487 . S
C151 C158 1.399 . S
C151 N176 1.343 . S
C152 C153 1.384 . S
C152 C154 1.384 . S
C152 H171 0.931 . S
C153 C152 1.384 . S
C153 C156 1.382 . S
C154 C152 1.384 . S
C154 C155 1.381 . S
C154 H172 0.930 . S
C155 C154 1.381 . S
C155 C157 1.381 . S
C155 C158 1.487 . S
C156 C153 1.382 . S
C156 C157 1.387 . S
C156 H173 0.930 . S
C157 C155 1.381 . S
C157 C156 1.387 . S
C157 H174 0.931 . S
C158 C151 1.399 . S
C158 C155 1.487 . S
C158 N175 1.343 . S
H159 C131 0.931 . S
H160 C133 0.930 . S
H161 C135 0.930 . S
H162 C136 0.931 . S
H163 C138 0.931 . S
H164 C140 0.930 . S
H165 C142 0.930 . S
H166 C143 0.931 . S
H167 C145 0.931 . S
H168 C147 0.930 . S
H169 C149 0.930 . S
H170 C150 0.931 . S
H171 C152 0.931 . S
H172 C154 0.930 . S
H173 C156 0.930 . S
H174 C157 0.931 . S
N175 C137 1.343 . S
N175 C158 1.343 . S
N176 C144 1.343 . S
N176 C151 1.343 . S
H177 C183 0.930 . S
H178 C187 0.930 . S
H179 C192 0.929 . S
H180 C190 0.929 . S
H181 C185 0.929 . S
H182 C191 0.929 . S
C183 H177 0.930 . S
C183 C184 1.367 1_655 S
C183 C191 1.378 . S
C184 C183 1.367 1_455 S
C184 C192 1.433 . S
C185 H181 0.929 . S
C185 C187 1.378 . S
C185 C189 1.350 . S
C186 C189 1.463 . S
C186 C191 1.350 1_455 S
C186 N194 1.427 . S
C187 H178 0.930 . S
C187 C185 1.378 . S
C187 C188 1.367 . S
C188 C187 1.367 . S
C188 C190 1.433 1_455 S
C189 C185 1.350 . S
C189 C186 1.463 . S
C189 N193 1.427 1_455 S
C190 H180 0.929 . S
C190 C188 1.433 1_655 S
C190 N193 1.384 . S
C191 H182 0.929 . S
C191 C183 1.378 . S
C191 C186 1.350 1_655 S
C192 H179 0.929 . S
C192 C184 1.433 . S
C192 N194 1.384 . S
N193 C189 1.427 1_655 S
N193 C190 1.384 . S
N194 C186 1.427 . S
N194 C192 1.384 . S
H195 C201 0.930 . S
H196 C205 0.930 . S
H197 C210 0.929 . S
H198 C208 0.929 . S
H199 C203 0.929 . S
H200 C209 0.929 . S
C201 H195 0.930 . S
C201 C202 1.367 . S
C201 C209 1.378 . S
C202 C201 1.367 . S
C202 C210 1.433 1_545 S
C203 H199 0.929 . S
C203 C205 1.378 . S
C203 C207 1.350 1_565 S
C204 C207 1.463 . S
C204 C209 1.350 . S
C204 N212 1.427 1_545 S
C205 H196 0.930 . S
C205 C203 1.378 . S
C205 C206 1.367 1_565 S
C206 C205 1.367 1_545 S
C206 C208 1.433 . S
C207 C203 1.350 1_545 S
C207 C204 1.463 . S
C207 N211 1.427 . S
C208 H198 0.929 . S
C208 C206 1.433 . S
C208 N211 1.384 . S
C209 H200 0.929 . S
C209 C201 1.378 . S
C209 C204 1.350 . S
C210 H197 0.929 . S
C210 C202 1.433 1_565 S
C210 N212 1.384 . S
N211 C207 1.427 . S
N211 C208 1.384 . S
N212 C204 1.427 1_565 S
N212 C210 1.384 . S
H213 C219 0.930 . S
H214 C223 0.930 . S
H215 C228 0.929 . S
H216 C226 0.929 . S
H217 C221 0.929 . S
H218 C227 0.929 . S
C219 H213 0.930 . S
C219 C220 1.367 . S
C219 C227 1.378 . S
C220 C219 1.367 . S
C220 C228 1.433 . S
C221 H217 0.929 . S
C221 C223 1.378 . S
C221 C225 1.350 . S
C222 C225 1.463 . S
C222 C227 1.350 . S
C222 N230 1.427 . S
C223 H214 0.930 . S
C223 C221 1.378 . S
C223 C224 1.367 . S
C224 C223 1.367 . S
C224 C226 1.433 . S
C225 C221 1.350 . S
C225 C222 1.463 . S
C225 N229 1.427 . S
C226 H216 0.929 . S
C226 C224 1.433 . S
C226 N229 1.384 . S
C227 H218 0.929 . S
C227 C219 1.378 . S
C227 C222 1.350 . S
C228 H215 0.929 . S
C228 C220 1.433 . S
C228 N230 1.384 . S
N229 C225 1.427 . S
N229 C226 1.384 . S
N230 C222 1.427 . S
N230 C228 1.384 . S
H231 C237 0.933 . S
H232 C241 0.930 . S
H233 C246 0.929 . S
H234 C244 0.929 . S
H235 C239 0.928 . S
H236 C245 0.929 . S
C237 H231 0.933 . S
C237 C238 1.368 1_455 S
C237 C245 1.383 . S
C238 C237 1.368 1_655 S
C238 C246 1.438 . S
C239 H235 0.928 . S
C239 C241 1.378 . S
C239 C243 1.350 . S
C240 C243 1.472 . S
C240 C245 1.340 . S
C240 N248 1.429 1_455 S
C241 H232 0.930 . S
C241 C239 1.378 . S
C241 C242 1.367 . S
C242 C241 1.367 . S
C242 C244 1.433 . S
C243 C239 1.350 . S
C243 C240 1.472 . S
C243 N247 1.427 . S
C244 H234 0.929 . S
C244 C242 1.433 . S
C244 N247 1.384 . S
C245 H236 0.929 . S
C245 C237 1.383 . S
C245 C240 1.340 . S
C246 H233 0.929 . S
C246 C238 1.438 . S
C246 N248 1.375 . S
N247 C243 1.427 . S
N247 C244 1.384 . S
N248 C240 1.429 1_655 S
N248 C246 1.375 . S
H249 C255 0.930 . S
H250 C259 0.930 . S
H251 C264 0.929 . S
H252 C262 0.929 . S
H253 C257 0.929 . S
H254 C263 0.929 . S
C255 H249 0.930 . S
C255 C256 1.367 . S
C255 C263 1.378 . S
C256 C255 1.367 . S
C256 C264 1.433 1_565 S
C257 H253 0.929 . S
C257 C259 1.378 . S
C257 C261 1.350 . S
C258 C261 1.463 . S
C258 C263 1.350 1_545 S
C258 N266 1.427 . S
C259 H250 0.930 . S
C259 C257 1.378 . S
C259 C260 1.367 . S
C260 C259 1.367 . S
C260 C262 1.433 1_545 S
C261 C257 1.350 . S
C261 C258 1.463 . S
C261 N265 1.427 1_545 S
C262 H252 0.929 . S
C262 C260 1.433 1_565 S
C262 N265 1.384 . S
C263 H254 0.929 . S
C263 C255 1.378 . S
C263 C258 1.350 1_565 S
C264 H251 0.929 . S
C264 C256 1.433 1_545 S
C264 N266 1.384 . S
N265 C261 1.427 1_565 S
N265 C262 1.384 . S
N266 C258 1.427 . S
N266 C264 1.384 . S
H267 C273 0.930 . S
H268 C277 0.930 . S
H269 C282 0.929 . S
H270 C280 0.929 . S
H271 C275 0.929 . S
H272 C281 0.929 . S
C273 H267 0.930 . S
C273 C274 1.367 . S
C273 C281 1.378 . S
C274 C273 1.367 . S
C274 C282 1.433 . S
C275 H271 0.929 . S
C275 C277 1.378 . S
C275 C279 1.350 . S
C276 C279 1.463 . S
C276 C281 1.350 . S
C276 N284 1.427 . S
C277 H268 0.930 . S
C277 C275 1.378 . S
C277 C278 1.367 . S
C278 C277 1.367 . S
C278 C280 1.433 . S
C279 C275 1.350 . S
C279 C276 1.463 . S
C279 N283 1.427 . S
C280 H270 0.929 . S
C280 C278 1.433 . S
C280 N283 1.384 . S
C281 H272 0.929 . S
C281 C273 1.378 . S
C281 C276 1.350 . S
C282 H269 0.929 . S
C282 C274 1.433 . S
C282 N284 1.384 . S
N283 C279 1.427 . S
N283 C280 1.384 . S
N284 C276 1.427 . S
N284 C282 1.384 . S
H285 C291 0.930 . S
H286 C295 0.930 . S
H287 C300 0.929 . S
H288 C298 0.929 . S
H289 C293 0.929 . S
H290 C299 0.929 . S
C291 H285 0.930 . S
C291 C292 1.367 . S
C291 C299 1.378 . S
C292 C291 1.367 . S
C292 C300 1.433 1_565 S
C293 H289 0.929 . S
C293 C295 1.378 . S
C293 C297 1.350 . S
C294 C297 1.463 1_565 S
C294 C299 1.350 . S
C294 N302 1.427 1_565 S
C295 H286 0.930 . S
C295 C293 1.378 . S
C295 C296 1.367 . S
C296 C295 1.367 . S
C296 C298 1.433 1_545 S
C297 C293 1.350 . S
C297 C294 1.463 1_545 S
C297 N301 1.427 1_545 S
C298 H288 0.929 . S
C298 C296 1.433 1_565 S
C298 N301 1.384 . S
C299 H290 0.929 . S
C299 C291 1.378 . S
C299 C294 1.350 . S
C300 H287 0.929 . S
C300 C292 1.433 1_545 S
C300 N302 1.384 . S
N301 C297 1.427 1_565 S
N301 C298 1.384 . S
N302 C294 1.427 1_545 S
N302 C300 1.384 . S
H303 C309 0.930 . S
H304 C313 0.930 . S
H305 C318 0.929 . S
H306 C316 0.929 . S
H307 C311 0.929 . S
H308 C317 0.929 . S
C309 H303 0.930 . S
C309 C310 1.367 . S
C309 C317 1.378 1_554 S
C310 C309 1.367 . S
C310 C318 1.433 1_554 S
C311 H307 0.929 . S
C311 C313 1.378 . S
C311 C315 1.350 . S
C312 C315 1.463 . S
C312 C317 1.350 . S
C312 N320 1.427 . S
C313 H304 0.930 . S
C313 C311 1.378 . S
C313 C314 1.367 . S
C314 C313 1.367 . S
C314 C316 1.433 . S
C315 C311 1.350 . S
C315 C312 1.463 . S
C315 N319 1.427 . S
C316 H306 0.929 . S
C316 C314 1.433 . S
C316 N319 1.384 . S
C317 H308 0.929 . S
C317 C309 1.378 1_556 S
C317 C312 1.350 . S
C318 H305 0.929 . S
C318 C310 1.433 1_556 S
C318 N320 1.384 . S
N319 C315 1.427 . S
N319 C316 1.384 . S
N320 C312 1.427 . S
N320 C318 1.384 . S
H321 C327 0.930 . S
H322 C331 0.930 . S
H323 C336 0.929 . S
H324 C334 0.929 . S
H325 C329 0.929 . S
H326 C335 0.929 . S
C327 H321 0.930 . S
C327 C328 1.367 . S
C327 C335 1.378 . S
C328 C327 1.367 . S
C328 C336 1.433 1_455 S
C329 H325 0.929 . S
C329 C331 1.378 . S
C329 C333 1.350 1_655 S
C330 C333 1.463 . S
C330 C335 1.350 . S
C330 N338 1.427 1_455 S
C331 H322 0.930 . S
C331 C329 1.378 . S
C331 C332 1.367 1_655 S
C332 C331 1.367 1_455 S
C332 C334 1.433 . S
C333 C329 1.350 1_455 S
C333 C330 1.463 . S
C333 N337 1.427 . S
C334 H324 0.929 . S
C334 C332 1.433 . S
C334 N337 1.384 . S
C335 H326 0.929 . S
C335 C327 1.378 . S
C335 C330 1.350 . S
C336 H323 0.929 . S
C336 C328 1.433 1_655 S
C336 N338 1.384 . S
N337 C333 1.427 . S
N337 C334 1.384 . S
N338 C330 1.427 1_655 S
N338 C336 1.384 . S
H339 C345 0.930 . S
H340 C349 0.930 . S
H341 C354 0.929 . S
H342 C352 0.929 . S
H343 C347 0.929 . S
H344 C353 0.929 . S
C345 H339 0.930 . S
C345 C346 1.367 1_565 S
C345 C353 1.378 . S
C346 C345 1.367 1_545 S
C346 C354 1.433 . S
C347 H343 0.929 . S
C347 C349 1.378 . S
C347 C351 1.350 . S
C348 C351 1.463 . S
C348 C353 1.350 1_545 S
C348 N356 1.427 . S
C349 H340 0.930 . S
C349 C347 1.378 . S
C349 C350 1.367 . S
C350 C349 1.367 . S
C350 C352 1.433 1_545 S
C351 C347 1.350 . S
C351 C348 1.463 . S
C351 N355 1.427 1_545 S
C352 H342 0.929 . S
C352 C350 1.433 1_565 S
C352 N355 1.384 . S
C353 H344 0.929 . S
C353 C345 1.378 . S
C353 C348 1.350 1_565 S
C354 H341 0.929 . S
C354 C346 1.433 . S
C354 N356 1.384 . S
N355 C351 1.427 1_565 S
N355 C352 1.384 . S
N356 C348 1.427 . S
N356 C354 1.384 . S
H357 C363 0.930 . S
H358 C367 0.930 . S
H359 C372 0.929 . S
H360 C370 0.929 . S
H361 C365 0.929 . S
H362 C371 0.929 . S
C363 H357 0.930 . S
C363 C364 1.367 1_556 S
C363 C371 1.378 . S
C364 C363 1.367 1_554 S
C364 C372 1.433 . S
C365 H361 0.929 . S
C365 C367 1.378 . S
C365 C369 1.350 . S
C366 C369 1.463 . S
C366 C371 1.350 . S
C366 N374 1.427 1_556 S
C367 H358 0.930 . S
C367 C365 1.378 . S
C367 C368 1.367 . S
C368 C367 1.367 . S
C368 C370 1.433 . S
C369 C365 1.350 . S
C369 C366 1.463 . S
C369 N373 1.427 . S
C370 H360 0.929 . S
C370 C368 1.433 . S
C370 N373 1.384 . S
C371 H362 0.929 . S
C371 C363 1.378 . S
C371 C366 1.350 . S
C372 H359 0.929 . S
C372 C364 1.433 . S
C372 N374 1.384 . S
N373 C369 1.427 . S
N373 C370 1.384 . S
N374 C366 1.427 1_554 S
N374 C372 1.384 . S
H375 C381 0.930 . S
H376 C385 0.930 . S
H377 C390 0.929 . S
H378 C388 0.929 . S
H379 C383 0.929 . S
H380 C389 0.929 . S
C381 H375 0.930 . S
C381 C382 1.367 . S
C381 C389 1.378 . S
C382 C381 1.367 . S
C382 C390 1.433 1_655 S
C383 H379 0.929 . S
C383 C385 1.378 . S
C383 C387 1.353 . S
C384 C387 1.472 1_655 S
C384 C389 1.350 . S
C384 N392 1.427 1_655 S
C385 H376 0.930 . S
C385 C383 1.378 . S
C385 C386 1.367 . S
C386 C385 1.367 . S
C386 C388 1.433 1_455 S
C387 C383 1.353 . S
C387 C384 1.472 1_455 S
C387 N391 1.415 1_455 S
C388 H378 0.929 . S
C388 C386 1.433 1_655 S
C388 N391 1.384 . S
C389 H380 0.929 . S
C389 C381 1.378 . S
C389 C384 1.350 . S
C390 H377 0.929 . S
C390 C382 1.433 1_455 S
C390 N392 1.384 . S
N391 C387 1.415 1_655 S
N391 C388 1.384 . S
N392 C384 1.427 1_455 S
N392 C390 1.384 . S
C188 C47 1.519 . S
C184 C10 1.520 . S
C202 C17 1.520 . S
C206 C86 1.518 . S
C220 C36 1.521 . S
C224 C153 1.520 . S
C238 C5 1.516 . S
C242 C54 1.522 . S
C260 C107 1.520 . S
C256 C16 1.522 . S
C274 C31 1.522 . S
C278 C132 1.519 . S
C296 C93 1.519 . S
C292 C30 1.520 . S
C310 C3 1.521 . S
C314 C146 1.520 . S
C332 C61 1.522 . S
C328 C18 1.522 . S
C350 C100 1.520 . S
C346 C29 1.522 . S
C368 C139 1.521 . S
C364 C4 1.522 . S
C382 C23 1.521 . S
C386 C40 1.520 . S
