# Generated by pormake.
# Topology nom, (4,4)-cn, num edge types: 1
# Building blocks:
#     Node 0, Type 0, BuildingBlock: NAHDIM_clean_linker_0, # of connection points: 4
#     Node 1, Type 0, BuildingBlock: NAHDIM_clean_linker_0, # of connection points: 4
#     Node 2, Type 0, BuildingBlock: NAHDIM_clean_linker_0, # of connection points: 4
#     Node 3, Type 0, BuildingBlock: NAHDIM_clean_linker_0, # of connection points: 4
#     Node 4, Type 0, BuildingBlock: NAHDIM_clean_linker_0, # of connection points: 4
#     Node 5, Type 0, BuildingBlock: NAHDIM_clean_linker_0, # of connection points: 4
#     Node 6, Type 1, BuildingBlock: KUFVIS_clean_sbu_0, # of connection points: 4
#     Node 7, Type 1, BuildingBlock: KUFVIS_clean_sbu_0, # of connection points: 4
#     Node 8, Type 1, BuildingBlock: KUFVIS_clean_sbu_0, # of connection points: 4
#     Node 9, Type 1, BuildingBlock: KUFVIS_clean_sbu_0, # of connection points: 4
#     Node 10, Type 1, BuildingBlock: KUFVIS_clean_sbu_0, # of connection points: 4
#     Node 11, Type 1, BuildingBlock: KUFVIS_clean_sbu_0, # of connection points: 4
#     Edge 12, Type (0, 1), BuildingBlock: KIFKEQ_clean_linker_1, # of connection points: 2
#     Edge 13, Type (0, 1), BuildingBlock: KIFKEQ_clean_linker_1, # of connection points: 2
#     Edge 14, Type (0, 1), BuildingBlock: KIFKEQ_clean_linker_1, # of connection points: 2
#     Edge 15, Type (0, 1), BuildingBlock: KIFKEQ_clean_linker_1, # of connection points: 2
#     Edge 16, Type (0, 1), BuildingBlock: KIFKEQ_clean_linker_1, # of connection points: 2
#     Edge 17, Type (0, 1), BuildingBlock: KIFKEQ_clean_linker_1, # of connection points: 2
#     Edge 18, Type (0, 1), BuildingBlock: KIFKEQ_clean_linker_1, # of connection points: 2
#     Edge 19, Type (0, 1), BuildingBlock: KIFKEQ_clean_linker_1, # of connection points: 2
#     Edge 20, Type (0, 1), BuildingBlock: KIFKEQ_clean_linker_1, # of connection points: 2
#     Edge 21, Type (0, 1), BuildingBlock: KIFKEQ_clean_linker_1, # of connection points: 2
#     Edge 22, Type (0, 1), BuildingBlock: KIFKEQ_clean_linker_1, # of connection points: 2
#     Edge 23, Type (0, 1), BuildingBlock: KIFKEQ_clean_linker_1, # of connection points: 2
#     Edge 24, Type (0, 1), BuildingBlock: KIFKEQ_clean_linker_1, # of connection points: 2
#     Edge 25, Type (0, 1), BuildingBlock: KIFKEQ_clean_linker_1, # of connection points: 2
#     Edge 26, Type (0, 1), BuildingBlock: KIFKEQ_clean_linker_1, # of connection points: 2
#     Edge 27, Type (0, 1), BuildingBlock: KIFKEQ_clean_linker_1, # of connection points: 2
#     Edge 28, Type (0, 1), BuildingBlock: KIFKEQ_clean_linker_1, # of connection points: 2
#     Edge 29, Type (0, 1), BuildingBlock: KIFKEQ_clean_linker_1, # of connection points: 2
#     Edge 30, Type (0, 1), BuildingBlock: KIFKEQ_clean_linker_1, # of connection points: 2
#     Edge 31, Type (0, 1), BuildingBlock: KIFKEQ_clean_linker_1, # of connection points: 2
#     Edge 32, Type (0, 1), BuildingBlock: KIFKEQ_clean_linker_1, # of connection points: 2
#     Edge 33, Type (0, 1), BuildingBlock: KIFKEQ_clean_linker_1, # of connection points: 2
#     Edge 34, Type (0, 1), BuildingBlock: KIFKEQ_clean_linker_1, # of connection points: 2
#     Edge 35, Type (0, 1), BuildingBlock: KIFKEQ_clean_linker_1, # of connection points: 2
# Relax obj value: 0.043
# Max RMSD: 0.131
# Mean RMSD: 0.094
data_MOF--net-nom--node1-KUFVIS_clean_sbu_0--node2-NAHDIM_clean_linker_0--edge1-KIFKEQ_clean_linker_1
_symmetry_space_group_name_H-M    P1
_symmetry_Int_Tables_number       1
_symmetry_cell_setting            triclinic
loop_
_symmetry_equiv_pos_as_xyz
'x, y, z'
_cell_length_a     58.22766
_cell_length_b     58.917907
_cell_length_c     71.172086
_cell_angle_alpha  90.77867
_cell_angle_beta   90.806916
_cell_angle_gamma 119.98481
loop_
_atom_site_label
_atom_site_type_symbol
_atom_site_fract_x
_atom_site_fract_y
_atom_site_fract_z
_atom_type_partial_charge
C0 C 0.15405 0.61033 0.2429 0.0
C1 C 0.16989 0.61257 0.26094 0.0
C2 C 0.13335 0.59858 0.2826 0.0
C3 C 0.12468 0.57169 0.28322 0.0
C4 C 0.09877 0.55373 0.28849 0.0
C5 C 0.08107 0.56283 0.2929 0.0
C6 C 0.09006 0.59004 0.29282 0.0
C7 C 0.11634 0.60762 0.28805 0.0
C8 C 0.0901 0.52495 0.28887 0.0
C9 C 0.07166 0.60049 0.29702 0.0
C10 C 0.98734 0.47192 0.18529 0.0
C11 C 0.96816 0.47913 0.19444 0.0
C12 C 0.97061 0.47738 0.22844 0.0
C13 C 0.97409 0.50186 0.23399 0.0
C14 C 0.98614 0.51342 0.25141 0.0
C15 C 0.99488 0.50019 0.26345 0.0
C16 C 0.99054 0.47508 0.25812 0.0
C17 C 0.97804 0.46381 0.24075 0.0
C18 C 0.98986 0.53991 0.25686 0.0
C19 C 0.99972 0.46046 0.27056 0.0
C20 C 0.87873 0.43861 0.35346 0.0
C21 C 0.88858 0.46554 0.35123 0.0
C22 C 0.91598 0.48325 0.35181 0.0
C23 C 0.93379 0.47378 0.35464 0.0
C24 C 0.92384 0.44689 0.35802 0.0
C25 C 0.89633 0.42966 0.35757 0.0
C26 C 0.92594 0.51197 0.34879 0.0
C27 C 0.94228 0.43622 0.36137 0.0
C28 C 0.09018 0.6132 0.4354 0.0
C29 C 0.09109 0.58766 0.43463 0.0
C30 C 0.05123 0.55536 0.41834 0.0
C31 C 0.03616 0.56536 0.41034 0.0
C32 C 0.02138 0.55434 0.39363 0.0
C33 C 0.02125 0.53243 0.38509 0.0
C34 C 0.03584 0.52177 0.39355 0.0
C35 C 0.05083 0.53353 0.41009 0.0
C36 C 0.00598 0.56614 0.38508 0.0
C37 C 0.03559 0.49801 0.38512 0.0
C38 C 0.05263 0.54374 0.29578 0.0
C39 C 0.03688 0.53122 0.27979 0.0
C40 C 0.00986 0.51322 0.28111 0.0
C41 C 0.99791 0.50775 0.29886 0.0
C42 C 0.97062 0.4903 0.30062 0.0
C43 C 0.95906 0.48493 0.31815 0.0
C44 C 0.97433 0.49684 0.33462 0.0
C45 C 0.96269 0.49157 0.3525 0.0
C46 C 0.97847 0.50335 0.36861 0.0
C47 C 0.00575 0.52062 0.36738 0.0
C48 C 0.0177 0.52651 0.34958 0.0
C49 C 0.045 0.54413 0.34777 0.0
C50 C 0.05655 0.54968 0.33019 0.0
C51 C 0.04121 0.53803 0.31374 0.0
C52 C 0.01368 0.5201 0.31524 0.0
C53 C 0.00191 0.51447 0.33316 0.0
C54 C 0.81984 0.39715 0.32767 0.0
C55 C 0.83456 0.42249 0.33951 0.0
O56 O 0.15772 0.61621 0.27641 0.0
O57 O 0.06559 0.56627 0.43436 0.0
O58 O 0.8525 0.42073 0.35155 0.0
O59 O 0.96002 0.46638 0.21135 0.0
H60 H 0.17092 0.59434 0.26245 0.0
H61 H 0.13374 0.59311 0.24344 0.0
H62 H 0.1525 0.62825 0.2412 0.0
H63 H 0.16373 0.60764 0.23039 0.0
H64 H 0.13803 0.56463 0.27959 0.0
H65 H 0.12336 0.62846 0.28766 0.0
H66 H 0.07669 0.51471 0.2766 0.0
H67 H 0.10719 0.52153 0.28828 0.0
H68 H 0.0789 0.51607 0.3018 0.0
H69 H 0.08115 0.62192 0.29481 0.0
H70 H 0.05349 0.59028 0.28793 0.0
H71 H 0.06543 0.59662 0.31184 0.0
H72 H 0.97904 0.50079 0.19673 0.0
H73 H 0.99406 0.4819 0.17166 0.0
H74 H 0.00504 0.47829 0.19464 0.0
H75 H 0.97771 0.45039 0.18281 0.0
H76 H 0.96734 0.51188 0.22472 0.0
H77 H 0.97485 0.44473 0.2364 0.0
H78 H 0.01133 0.55469 0.25716 0.0
H79 H 0.9795 0.54634 0.2469 0.0
H80 H 0.98236 0.53939 0.27121 0.0
H81 H 0.99605 0.44172 0.26393 0.0
H82 H 0.02127 0.47285 0.27384 0.0
H83 H 0.98919 0.45611 0.28406 0.0
H84 H 0.84505 0.43853 0.32937 0.0
H85 H 0.87493 0.47272 0.34888 0.0
H86 H 0.88846 0.4089 0.35964 0.0
H87 H 0.93582 0.5176 0.33504 0.0
H88 H 0.90967 0.51664 0.34889 0.0
H89 H 0.94091 0.52404 0.35988 0.0
H90 H 0.93139 0.41487 0.36407 0.0
H91 H 0.95484 0.43979 0.34893 0.0
H92 H 0.95571 0.44666 0.3736 0.0
H93 H 0.10135 0.58734 0.42159 0.0
H94 H 0.11054 0.63038 0.43684 0.0
H95 H 0.08117 0.61539 0.42221 0.0
H96 H 0.07835 0.61334 0.44748 0.0
H97 H 0.03601 0.58182 0.41718 0.0
H98 H 0.0623 0.52577 0.41664 0.0
H99 H 0.01111 0.57052 0.37009 0.0
H100 H 0.98442 0.55179 0.38554 0.0
H101 H 0.00991 0.58444 0.39258 0.0
H102 H 0.04594 0.49071 0.39433 0.0
H103 H 0.01484 0.482 0.38253 0.0
H104 H 0.04549 0.50303 0.37137 0.0
H105 H 0.04583 0.53551 0.26607 0.0
H106 H 0.95788 0.48062 0.28844 0.0
H107 H 0.93796 0.47125 0.31861 0.0
H108 H 0.96939 0.49908 0.38228 0.0
H109 H 0.05776 0.55384 0.35993 0.0
H110 H 0.07766 0.56327 0.32964 0.0
H111 H 0.80525 0.39804 0.31792 0.0
H112 H 0.83422 0.39448 0.31918 0.0
H113 H 0.80927 0.3799 0.33677 0.0
C114 C 0.44805 0.86169 0.56846 0.0
C115 C 0.43419 0.8523 0.54909 0.0
C116 C 0.44308 0.8944 0.53599 0.0
C117 C 0.47034 0.90465 0.53315 0.0
C118 C 0.48652 0.93085 0.52809 0.0
C119 C 0.47521 0.94702 0.52569 0.0
C120 C 0.44759 0.93641 0.52766 0.0
C121 C 0.43189 0.91018 0.53275 0.0
C122 C 0.51585 0.94151 0.52579 0.0
C123 C 0.4348 0.95301 0.52498 0.0
C124 C 0.54454 0.09939 0.63402 0.0
C125 C 0.53057 0.08091 0.61789 0.0
C126 C 0.53967 0.06249 0.58994 0.0
C127 C 0.51493 0.05447 0.58109 0.0
C128 C 0.50813 0.04095 0.56372 0.0
C129 C 0.52619 0.03486 0.55509 0.0
C130 C 0.55113 0.04293 0.56388 0.0
C131 C 0.55762 0.05685 0.58114 0.0
C132 C 0.4814 0.03279 0.55472 0.0
C133 C 0.57072 0.03653 0.55513 0.0
C134 C 0.58445 0.14785 0.46118 0.0
C135 C 0.55671 0.13476 0.4624 0.0
C136 C 0.54201 0.10737 0.46345 0.0
C137 C 0.55529 0.09279 0.46294 0.0
C138 C 0.58307 0.10582 0.4607 0.0
C139 C 0.5973 0.13327 0.45973 0.0
C140 C 0.51231 0.09401 0.4654 0.0
C141 C 0.59774 0.09079 0.45978 0.0
C142 C 0.42077 0.93695 0.38421 0.0
C143 C 0.44656 0.93597 0.38328 0.0
C144 C 0.47917 0.97516 0.39992 0.0
C145 C 0.46836 0.98928 0.40816 0.0
C146 C 0.47927 0.00382 0.42491 0.0
C147 C 0.50209 0.00495 0.43318 0.0
C148 C 0.51367 0.99145 0.42443 0.0
C149 C 0.50189 0.97652 0.4079 0.0
C150 C 0.4665 0.01816 0.43364 0.0
C151 C 0.53848 0.99291 0.43249 0.0
C152 C 0.49251 0.9755 0.52276 0.0
C153 C 0.50274 0.99177 0.53876 0.0
C154 C 0.51825 0.01893 0.53736 0.0
C155 C 0.52427 0.03033 0.51945 0.0
C156 C 0.53981 0.05759 0.51751 0.0
C157 C 0.54528 0.06865 0.49983 0.0
C158 C 0.53522 0.05288 0.4834 0.0
C159 C 0.54017 0.064 0.46539 0.0
C160 C 0.52971 0.04783 0.44937 0.0
C161 C 0.51401 0.02064 0.45077 0.0
C162 C 0.50881 0.0091 0.46867 0.0
C163 C 0.49286 0.98185 0.47065 0.0
C164 C 0.48773 0.97074 0.48833 0.0
C165 C 0.49806 0.9865 0.50472 0.0
C166 C 0.5141 0.01403 0.50307 0.0
C167 C 0.51953 0.02533 0.48503 0.0
C168 C 0.61467 0.20099 0.48916 0.0
C169 C 0.5952 0.1915 0.47231 0.0
O170 O 0.42691 0.86975 0.54216 0.0
O171 O 0.46839 0.96106 0.38381 0.0
O172 O 0.59933 0.17441 0.46119 0.0
O173 O 0.54683 0.07556 0.60685 0.0
H174 H 0.44782 0.85051 0.53917 0.0
H175 H 0.46688 0.88056 0.56743 0.0
H176 H 0.43513 0.86452 0.57843 0.0
H177 H 0.45288 0.8471 0.57423 0.0
H178 H 0.47928 0.89257 0.53516 0.0
H179 H 0.41081 0.90204 0.53473 0.0
H180 H 0.52709 0.95671 0.53687 0.0
H181 H 0.52134 0.926 0.52676 0.0
H182 H 0.52204 0.95102 0.51198 0.0
H183 H 0.41288 0.94147 0.52608 0.0
H184 H 0.44276 0.96906 0.53578 0.0
H185 H 0.43973 0.9622 0.511 0.0
H186 H 0.51173 0.06286 0.6214 0.0
H187 H 0.54109 0.1322 0.62762 0.0
H188 H 0.53573 0.08753 0.64693 0.0
H189 H 0.56426 0.10035 0.63592 0.0
H190 H 0.50074 0.0586 0.58766 0.0
H191 H 0.57666 0.06312 0.588 0.0
H192 H 0.48369 0.03856 0.53977 0.0
H193 H 0.46884 0.01114 0.55502 0.0
H194 H 0.47093 0.04161 0.56207 0.0
H195 H 0.58909 0.04376 0.5639 0.0
H196 H 0.56146 0.01498 0.55303 0.0
H197 H 0.57615 0.04545 0.54108 0.0
H198 H 0.57508 0.18155 0.47835 0.0
H199 H 0.54644 0.14581 0.46244 0.0
H200 H 0.61865 0.14353 0.45838 0.0
H201 H 0.50661 0.08345 0.47885 0.0
H202 H 0.50487 0.10808 0.46511 0.0
H203 H 0.50237 0.07927 0.45384 0.0
H204 H 0.6193 0.10377 0.45759 0.0
H205 H 0.59507 0.08013 0.47305 0.0
H206 H 0.58933 0.07594 0.44813 0.0
H207 H 0.44767 0.92498 0.39557 0.0
H208 H 0.40326 0.91705 0.38198 0.0
H209 H 0.41897 0.94413 0.3983 0.0
H210 H 0.42033 0.9501 0.37334 0.0
H211 H 0.4514 0.98897 0.40144 0.0
H212 H 0.51036 0.9659 0.40112 0.0
H213 H 0.46391 0.01441 0.44892 0.0
H214 H 0.47963 0.03955 0.43194 0.0
H215 H 0.44688 0.0123 0.427 0.0
H216 H 0.54637 0.98336 0.42307 0.0
H217 H 0.55405 0.0137 0.435 0.0
H218 H 0.53414 0.98312 0.44624 0.0
H219 H 0.498 0.98319 0.55256 0.0
H220 H 0.54793 0.07069 0.52966 0.0
H221 H 0.5574 0.08976 0.49922 0.0
H222 H 0.53337 0.05657 0.43562 0.0
H223 H 0.48414 0.96878 0.45855 0.0
H224 H 0.47539 0.94966 0.48902 0.0
H225 H 0.61241 0.21558 0.4978 0.0
H226 H 0.61051 0.18412 0.49812 0.0
H227 H 0.6355 0.20997 0.48454 0.0
C228 C 0.57534 0.4342 0.73788 0.0
C229 C 0.5845 0.42933 0.71887 0.0
C230 C 0.55979 0.44383 0.69881 0.0
C231 C 0.57769 0.47095 0.70002 0.0
C232 C 0.5699 0.48894 0.69446 0.0
C233 C 0.54359 0.47967 0.68784 0.0
C234 C 0.52565 0.45233 0.68637 0.0
C235 C 0.53422 0.4348 0.69151 0.0
C236 C 0.58971 0.51791 0.69591 0.0
C237 C 0.49721 0.44156 0.67984 0.0
C238 C 0.44686 0.55751 0.77943 0.0
C239 C 0.45164 0.5467 0.76182 0.0
C240 C 0.48716 0.55025 0.74216 0.0
C241 C 0.47063 0.52713 0.73165 0.0
C242 C 0.48062 0.51885 0.71692 0.0
C243 C 0.5077 0.53401 0.71245 0.0
C244 C 0.52457 0.557 0.72315 0.0
C245 C 0.51404 0.56482 0.73791 0.0
C246 C 0.46208 0.49404 0.70593 0.0
C247 C 0.55354 0.57348 0.71874 0.0
C248 C 0.46135 0.59387 0.6125 0.0
C249 C 0.44628 0.56847 0.61928 0.0
C250 C 0.45762 0.55254 0.62183 0.0
C251 C 0.48484 0.56265 0.61806 0.0
C252 C 0.49985 0.58811 0.61077 0.0
C253 C 0.4877 0.60322 0.60776 0.0
C254 C 0.44051 0.52502 0.62866 0.0
C255 C 0.52882 0.59953 0.60645 0.0
C256 C 0.50289 0.42256 0.54395 0.0
C257 C 0.52942 0.44836 0.54454 0.0
C258 C 0.52256 0.48087 0.56034 0.0
C259 C 0.49808 0.47016 0.56906 0.0
C260 C 0.49506 0.482 0.58534 0.0
C261 C 0.51692 0.50543 0.59267 0.0
C262 C 0.54157 0.51662 0.58358 0.0
C263 C 0.5441 0.50409 0.56747 0.0
C264 C 0.46846 0.46961 0.5946 0.0
C265 C 0.56508 0.54187 0.59079 0.0
C266 C 0.5344 0.49854 0.6836 0.0
C267 C 0.52792 0.50944 0.69879 0.0
C268 C 0.51776 0.5262 0.69597 0.0
C269 C 0.51435 0.53277 0.67752 0.0
C270 C 0.50465 0.54998 0.67424 0.0
C271 C 0.49986 0.55516 0.65605 0.0
C272 C 0.50415 0.54298 0.64044 0.0
C273 C 0.49766 0.54676 0.62195 0.0
C274 C 0.50252 0.53461 0.60676 0.0
C275 C 0.51363 0.51862 0.60947 0.0
C276 C 0.52004 0.51441 0.62786 0.0
C277 C 0.53101 0.49823 0.63113 0.0
C278 C 0.5364 0.49355 0.64934 0.0
C279 C 0.53057 0.50444 0.66499 0.0
C280 C 0.52024 0.52142 0.66198 0.0
C281 C 0.51501 0.52644 0.64341 0.0
C282 C 0.45282 0.64392 0.62928 0.0
C283 C 0.43717 0.61472 0.62395 0.0
O284 O 0.56618 0.42579 0.70478 0.0
O285 O 0.52522 0.46952 0.54451 0.0
O286 O 0.45081 0.60963 0.61025 0.0
O287 O 0.47786 0.55898 0.75635 0.0
H288 H 0.60416 0.44636 0.71566 0.0
H289 H 0.57384 0.45225 0.73755 0.0
H290 H 0.55559 0.4174 0.74124 0.0
H291 H 0.58976 0.43691 0.74929 0.0
H292 H 0.59773 0.47824 0.70529 0.0
H293 H 0.52062 0.41385 0.69052 0.0
H294 H 0.58409 0.52693 0.70744 0.0
H295 H 0.61019 0.52187 0.69885 0.0
H296 H 0.58951 0.52758 0.68267 0.0
H297 H 0.485 0.4201 0.68185 0.0
H298 H 0.48812 0.45148 0.68757 0.0
H299 H 0.49659 0.44539 0.66468 0.0
H300 H 0.43759 0.54359 0.74993 0.0
H301 H 0.43424 0.52649 0.79809 0.0
H302 H 0.46507 0.57725 0.78217 0.0
H303 H 0.43392 0.56576 0.77499 0.0
H304 H 0.44981 0.51543 0.73475 0.0
H305 H 0.52673 0.58252 0.7461 0.0
H306 H 0.46016 0.49889 0.69118 0.0
H307 H 0.47034 0.48065 0.70561 0.0
H308 H 0.44199 0.48352 0.71196 0.0
H309 H 0.56417 0.59063 0.72854 0.0
H310 H 0.56319 0.56133 0.71952 0.0
H311 H 0.55555 0.58059 0.70415 0.0
H312 H 0.4357 0.6037 0.63693 0.0
H313 H 0.4256 0.56108 0.62241 0.0
H314 H 0.49899 0.62278 0.60228 0.0
H315 H 0.44527 0.52427 0.64371 0.0
H316 H 0.41905 0.51847 0.62728 0.0
H317 H 0.44446 0.51103 0.62071 0.0
H318 H 0.53835 0.62055 0.60281 0.0
H319 H 0.53966 0.59756 0.61871 0.0
H320 H 0.53083 0.58851 0.59442 0.0
H321 H 0.54061 0.44911 0.55762 0.0
H322 H 0.50615 0.40559 0.54233 0.0
H323 H 0.49235 0.42012 0.55729 0.0
H324 H 0.49014 0.4222 0.53205 0.0
H325 H 0.48127 0.45267 0.56303 0.0
H326 H 0.56282 0.51236 0.56034 0.0
H327 H 0.47085 0.46693 0.60977 0.0
H328 H 0.46004 0.48282 0.59351 0.0
H329 H 0.4541 0.45031 0.58804 0.0
H330 H 0.58254 0.54856 0.58169 0.0
H331 H 0.55968 0.55746 0.59167 0.0
H332 H 0.57072 0.53916 0.6052 0.0
H333 H 0.52998 0.50411 0.71299 0.0
H334 H 0.5005 0.55955 0.68571 0.0
H335 H 0.49233 0.56853 0.65441 0.0
H336 H 0.49721 0.53732 0.59263 0.0
H337 H 0.53539 0.48889 0.61963 0.0
H338 H 0.54479 0.4809 0.65102 0.0
H339 H 0.45469 0.65597 0.61689 0.0
H340 H 0.44284 0.64858 0.64065 0.0
H341 H 0.47302 0.64922 0.63444 0.0
C342 C 0.17018 0.59292 0.90029 0.0
C343 C 0.17682 0.58966 0.87998 0.0
C344 C 0.13222 0.55647 0.86808 0.0
C345 C 0.12139 0.57305 0.86692 0.0
C346 C 0.09434 0.56279 0.86257 0.0
C347 C 0.0779 0.5355 0.85927 0.0
C348 C 0.08882 0.51883 0.86025 0.0
C349 C 0.11591 0.52961 0.86452 0.0
C350 C 0.08328 0.58108 0.86149 0.0
C351 C 0.07184 0.48964 0.85681 0.0
C352 C 0.91757 0.47366 0.95854 0.0
C353 C 0.93609 0.48923 0.94353 0.0
C354 C 0.9532 0.48285 0.9139 0.0
C355 C 0.95419 0.46428 0.90207 0.0
C356 C 0.97124 0.47189 0.88679 0.0
C357 C 0.98703 0.49885 0.88284 0.0
C358 C 0.98607 0.51781 0.89472 0.0
C359 C 0.96943 0.50965 0.91026 0.0
C360 C 0.97235 0.45103 0.87493 0.0
C361 C 0.00256 0.54672 0.89097 0.0
C362 C 0.88046 0.45961 0.78543 0.0
C363 C 0.8909 0.44296 0.78814 0.0
C364 C 0.91841 0.45302 0.78899 0.0
C365 C 0.93572 0.48031 0.78725 0.0
C366 C 0.92519 0.49684 0.7833 0.0
C367 C 0.89758 0.48615 0.78222 0.0
C368 C 0.92897 0.43467 0.79251 0.0
C369 C 0.94308 0.52594 0.78111 0.0
C370 C 0.12096 0.53457 0.73431 0.0
C371 C 0.10673 0.54533 0.72224 0.0
C372 C 0.06208 0.52259 0.73426 0.0
C373 C 0.04579 0.497 0.74016 0.0
C374 C 0.02806 0.49171 0.75483 0.0
C375 C 0.02613 0.51252 0.76336 0.0
C376 C 0.04155 0.53828 0.75668 0.0
C377 C 0.05954 0.54308 0.74226 0.0
C378 C 0.01188 0.46399 0.76153 0.0
C379 C 0.03931 0.56078 0.76498 0.0
C380 C 0.04929 0.52441 0.85472 0.0
C381 C 0.0318 0.51735 0.86962 0.0
C382 C 0.00462 0.50715 0.86637 0.0
C383 C 0.9946 0.50426 0.84772 0.0
C384 C 0.96761 0.49525 0.84394 0.0
C385 C 0.95776 0.49149 0.82555 0.0
C386 C 0.97452 0.49653 0.81021 0.0
C387 C 0.96449 0.4918 0.79147 0.0
C388 C 0.98173 0.49739 0.77654 0.0
C389 C 0.00892 0.50753 0.7798 0.0
C390 C 0.01927 0.51215 0.79846 0.0
C391 C 0.04646 0.5221 0.80228 0.0
C392 C 0.05641 0.5265 0.82067 0.0
C393 C 0.03949 0.52062 0.83598 0.0
C394 C 0.01203 0.51053 0.83248 0.0
C395 C 0.00195 0.50649 0.8137 0.0
C396 C 0.82398 0.44511 0.81036 0.0
C397 C 0.83703 0.43269 0.79886 0.0
O398 O 0.15811 0.56529 0.87262 0.0
O399 O 0.07991 0.52693 0.72073 0.0
O400 O 0.85405 0.45076 0.7862 0.0
O401 O 0.93637 0.47409 0.92854 0.0
H402 H 0.1773 0.60535 0.87119 0.0
H403 H 0.15065 0.59187 0.90085 0.0
H404 H 0.16952 0.57723 0.90917 0.0
H405 H 0.18533 0.6123 0.90632 0.0
H406 H 0.13383 0.59393 0.86938 0.0
H407 H 0.1245 0.51702 0.86536 0.0
H408 H 0.06769 0.57565 0.87211 0.0
H409 H 0.09877 0.60191 0.86399 0.0
H410 H 0.07383 0.57907 0.84744 0.0
H411 H 0.0832 0.47926 0.85869 0.0
H412 H 0.05502 0.48146 0.86659 0.0
H413 H 0.06333 0.48567 0.84228 0.0
H414 H 0.93446 0.50647 0.93911 0.0
H415 H 0.94276 0.47952 0.98159 0.0
H416 H 0.90223 0.47998 0.95873 0.0
H417 H 0.90366 0.45366 0.95219 0.0
H418 H 0.94174 0.44368 0.90504 0.0
H419 H 0.96905 0.52433 0.91933 0.0
H420 H 0.96208 0.44884 0.86121 0.0
H421 H 0.99324 0.45671 0.8721 0.0
H422 H 0.96262 0.43169 0.88178 0.0
H423 H 0.99691 0.55867 0.89991 0.0
H424 H 0.02379 0.55333 0.89386 0.0
H425 H 0.00044 0.5505 0.87598 0.0
H426 H 0.84821 0.42758 0.80918 0.0
H427 H 0.87758 0.42216 0.78983 0.0
H428 H 0.88924 0.49871 0.77977 0.0
H429 H 0.93717 0.43786 0.8071 0.0
H430 H 0.91331 0.41378 0.7907 0.0
H431 H 0.94534 0.4388 0.78283 0.0
H432 H 0.93179 0.53607 0.77787 0.0
H433 H 0.95497 0.53466 0.79427 0.0
H434 H 0.95717 0.52954 0.76965 0.0
H435 H 0.10965 0.56369 0.72912 0.0
H436 H 0.1425 0.54908 0.73561 0.0
H437 H 0.11275 0.53059 0.74865 0.0
H438 H 0.11831 0.51603 0.72799 0.0
H439 H 0.04768 0.48129 0.73366 0.0
H440 H 0.07142 0.56277 0.73716 0.0
H441 H 0.01549 0.46341 0.77683 0.0
H442 H 0.99045 0.45709 0.75934 0.0
H443 H 0.01662 0.45024 0.75402 0.0
H444 H 0.05018 0.5789 0.75675 0.0
H445 H 0.01815 0.55544 0.76562 0.0
H446 H 0.04758 0.56503 0.77957 0.0
H447 H 0.03943 0.51968 0.88394 0.0
H448 H 0.95374 0.49091 0.85516 0.0
H449 H 0.93677 0.48439 0.82356 0.0
H450 H 0.97387 0.49362 0.76221 0.0
H451 H 0.06041 0.52664 0.79109 0.0
H452 H 0.07752 0.53428 0.82272 0.0
H453 H 0.81006 0.43087 0.8205 0.0
H454 H 0.83944 0.46247 0.81841 0.0
H455 H 0.81296 0.4516 0.80108 0.0
C456 C 0.43317 0.86564 0.90876 0.0
C457 C 0.4392 0.85883 0.92829 0.0
C458 C 0.47157 0.90277 0.94109 0.0
C459 C 0.45357 0.91186 0.9436 0.0
C460 C 0.46255 0.93805 0.94902 0.0
C461 C 0.49 0.95539 0.95219 0.0
C462 C 0.50803 0.94607 0.95035 0.0
C463 C 0.49854 0.91986 0.94482 0.0
C464 C 0.4428 0.94735 0.95105 0.0
C465 C 0.53741 0.96395 0.95379 0.0
C466 C 0.58816 0.11467 0.8551 0.0
C467 C 0.58253 0.09813 0.87194 0.0
C468 C 0.54904 0.07565 0.89551 0.0
C469 C 0.56549 0.07035 0.90711 0.0
C470 C 0.55557 0.05493 0.92303 0.0
C471 C 0.5286 0.0445 0.92752 0.0
C472 C 0.51202 0.05004 0.91608 0.0
C473 C 0.52252 0.06567 0.90024 0.0
C474 C 0.57392 0.04963 0.93501 0.0
C475 C 0.48324 0.03935 0.92059 0.0
C476 C 0.56678 0.15288 0.02349 0.0
C477 C 0.58308 0.14192 0.02094 0.0
C478 C 0.57227 0.11462 0.02024 0.0
C479 C 0.54454 0.09805 0.02189 0.0
C480 C 0.52832 0.10911 0.02557 0.0
C481 C 0.53977 0.1365 0.02656 0.0
C482 C 0.59034 0.10352 0.01707 0.0
C483 C 0.49878 0.09204 0.02767 0.0
C484 C 0.48935 0.91797 0.07802 0.0
C485 C 0.4784 0.9317 0.0904 0.0
C486 C 0.50075 0.97538 0.07762 0.0
C487 C 0.52666 0.99162 0.0718 0.0
C488 C 0.53191 0.00836 0.05663 0.0
C489 C 0.5107 0.00938 0.04747 0.0
C490 C 0.48458 0.99404 0.05404 0.0
C491 C 0.47985 0.97699 0.06896 0.0
C492 C 0.56003 0.02454 0.05013 0.0
C493 C 0.46164 0.99542 0.04515 0.0
C494 C 0.50002 0.98361 0.95641 0.0
C495 C 0.50737 0.00051 0.94124 0.0
C496 C 0.51791 0.02746 0.94405 0.0
C497 C 0.52049 0.0379 0.96246 0.0
C498 C 0.53028 0.0648 0.96572 0.0
C499 C 0.53368 0.07507 0.98391 0.0
C500 C 0.5278 0.0589 0.99958 0.0
C501 C 0.53235 0.0694 0.01815 0.0
C502 C 0.52616 0.05277 0.0334 0.0
C503 C 0.51576 0.02578 0.03065 0.0
C504 C 0.51128 0.01496 0.01216 0.0
C505 C 0.50124 0.98798 0.00883 0.0
C506 C 0.49716 0.97759 0.9906 0.0
C507 C 0.50333 0.99382 0.97498 0.0
C508 C 0.51351 0.02107 0.978 0.0
C509 C 0.51737 0.03162 0.99659 0.0
C510 C 0.58021 0.20681 0.99761 0.0
C511 C 0.59391 0.19531 0.00944 0.0
O512 O 0.46407 0.87801 0.93487 0.0
O513 O 0.49649 0.95837 0.0916 0.0
O514 O 0.57651 0.17913 0.02279 0.0
O515 O 0.55799 0.09008 0.87972 0.0
H516 H 0.42388 0.85716 0.93823 0.0
H517 H 0.43246 0.8841 0.9094 0.0
H518 H 0.44867 0.86817 0.89872 0.0
H519 H 0.41358 0.84981 0.90333 0.0
H520 H 0.43255 0.89885 0.94113 0.0
H521 H 0.51227 0.91267 0.94303 0.0
H522 H 0.44717 0.96302 0.94084 0.0
H523 H 0.42203 0.9313 0.94862 0.0
H524 H 0.44468 0.95594 0.96536 0.0
H525 H 0.54859 0.95325 0.95311 0.0
H526 H 0.5452 0.97941 0.94308 0.0
H527 H 0.54111 0.97384 0.9678 0.0
H528 H 0.58683 0.08174 0.87029 0.0
H529 H 0.5894 0.10264 0.84316 0.0
H530 H 0.56861 0.11237 0.85016 0.0
H531 H 0.62031 0.15066 0.86397 0.0
H532 H 0.58615 0.07815 0.90384 0.0
H533 H 0.50996 0.06992 0.89133 0.0
H534 H 0.57504 0.05726 0.94955 0.0
H535 H 0.56595 0.02819 0.93579 0.0
H536 H 0.5943 0.05885 0.92947 0.0
H537 H 0.47311 0.04604 0.91063 0.0
H538 H 0.47277 0.01759 0.92011 0.0
H539 H 0.48165 0.04558 0.93508 0.0
H540 H 0.59906 0.18388 0.99946 0.0
H541 H 0.6042 0.1547 0.01931 0.0
H542 H 0.52748 0.14524 0.02888 0.0
H543 H 0.58715 0.09527 0.00253 0.0
H544 H 0.6116 0.11866 0.01898 0.0
H545 H 0.58566 0.08735 0.02688 0.0
H546 H 0.4889 0.10369 0.03042 0.0
H547 H 0.48988 0.07992 0.01466 0.0
H548 H 0.4947 0.07845 0.03943 0.0
H549 H 0.45938 0.92826 0.08394 0.0
H550 H 0.47511 0.89655 0.07705 0.0
H551 H 0.49247 0.92575 0.06359 0.0
H552 H 0.50861 0.92129 0.08389 0.0
H553 H 0.54268 0.99045 0.0788 0.0
H554 H 0.45988 0.96513 0.07395 0.0
H555 H 0.56094 0.02093 0.03487 0.0
H556 H 0.56677 0.04568 0.05222 0.0
H557 H 0.57397 0.0201 0.05787 0.0
H558 H 0.44331 0.98497 0.0534 0.0
H559 H 0.46677 0.01618 0.04377 0.0
H560 H 0.4575 0.98643 0.0308 0.0
H561 H 0.50559 0.99266 0.92707 0.0
H562 H 0.53544 0.07823 0.95423 0.0
H563 H 0.54125 0.09593 0.98551 0.0
H564 H 0.52986 0.06099 0.04759 0.0
H565 H 0.49645 0.97455 0.02028 0.0
H566 H 0.48937 0.95669 0.98889 0.0
H567 H 0.59391 0.22005 0.98692 0.0
H568 H 0.56252 0.19072 0.99018 0.0
H569 H 0.57361 0.21794 0.0066 0.0
C570 C 0.60286 0.46779 0.07577 0.0
C571 C 0.60542 0.45636 0.09444 0.0
C572 C 0.59252 0.48154 0.11504 0.0
C573 C 0.56491 0.46475 0.11426 0.0
C574 C 0.54772 0.47381 0.11955 0.0
C575 C 0.55834 0.50031 0.1254 0.0
C576 C 0.58618 0.51712 0.12656 0.0
C577 C 0.6029 0.50729 0.12173 0.0
C578 C 0.51816 0.45516 0.11852 0.0
C579 C 0.59828 0.54566 0.13229 0.0
C580 C 0.47982 0.5129 0.01891 0.0
C581 C 0.48695 0.53914 0.0284 0.0
C582 C 0.48155 0.534 0.06215 0.0
C583 C 0.50614 0.55412 0.06905 0.0
C584 C 0.51583 0.5525 0.08683 0.0
C585 C 0.50058 0.53026 0.09783 0.0
C586 C 0.47521 0.51053 0.09122 0.0
C587 C 0.46584 0.51291 0.07351 0.0
C588 C 0.54264 0.5742 0.09368 0.0
C589 C 0.45846 0.48648 0.10252 0.0
C590 C 0.44019 0.58273 0.19579 0.0
C591 C 0.46652 0.59829 0.19039 0.0
C592 C 0.48314 0.58752 0.1885 0.0
C593 C 0.47282 0.56041 0.19152 0.0
C594 C 0.44631 0.54484 0.19732 0.0
C595 C 0.4305 0.55639 0.19974 0.0
C596 C 0.51161 0.6051 0.18317 0.0
C597 C 0.4345 0.51591 0.20068 0.0
C598 C 0.57301 0.47329 0.24482 0.0
C599 C 0.55403 0.47108 0.26035 0.0
C600 C 0.54184 0.50234 0.24823 0.0
C601 C 0.55464 0.52907 0.24445 0.0
C602 C 0.54572 0.53856 0.22972 0.0
C603 C 0.52298 0.52085 0.21893 0.0
C604 C 0.50887 0.49404 0.22356 0.0
C605 C 0.51858 0.48501 0.23806 0.0
C606 C 0.56113 0.56727 0.22523 0.0
C607 C 0.4839 0.47477 0.21285 0.0
C608 C 0.54033 0.51087 0.12892 0.0
C609 C 0.52926 0.51624 0.11329 0.0
C610 C 0.51225 0.52636 0.11528 0.0
C611 C 0.50644 0.53192 0.1334 0.0
C612 C 0.4899 0.54268 0.13591 0.0
C613 C 0.4842 0.54792 0.15385 0.0
C614 C 0.49499 0.54277 0.16996 0.0
C615 C 0.48953 0.54824 0.18828 0.0
C616 C 0.49952 0.54158 0.20397 0.0
C617 C 0.51505 0.52976 0.20188 0.0
C618 C 0.5217 0.52527 0.18371 0.0
C619 C 0.53814 0.51433 0.18116 0.0
C620 C 0.54421 0.50953 0.16325 0.0
C621 C 0.53418 0.51556 0.14719 0.0
C622 C 0.51741 0.52642 0.14943 0.0
C623 C 0.51145 0.5316 0.16772 0.0
C624 C 0.39048 0.59096 0.17707 0.0
C625 C 0.4195 0.60672 0.18373 0.0
O626 O 0.60973 0.47383 0.10917 0.0
O627 O 0.55265 0.49392 0.26153 0.0
O628 O 0.42385 0.59278 0.19751 0.0
O629 O 0.47247 0.5345 0.04462 0.0
H630 H 0.58695 0.43746 0.0967 0.0
H631 H 0.58567 0.47106 0.076 0.0
H632 H 0.6211 0.48681 0.07333 0.0
H633 H 0.59957 0.45405 0.06384 0.0
H634 H 0.55663 0.44458 0.10956 0.0
H635 H 0.62424 0.52002 0.12239 0.0
H636 H 0.50943 0.46019 0.10642 0.0
H637 H 0.51321 0.43444 0.11669 0.0
H638 H 0.50874 0.45705 0.13147 0.0
H639 H 0.62014 0.55664 0.13072 0.0
H640 H 0.58946 0.55507 0.12366 0.0
H641 H 0.59388 0.54729 0.1472 0.0
H642 H 0.50863 0.54966 0.03172 0.0
H643 H 0.49127 0.51613 0.00589 0.0
H644 H 0.48474 0.50121 0.02857 0.0
H645 H 0.45827 0.50151 0.01528 0.0
H646 H 0.51778 0.57103 0.06051 0.0
H647 H 0.44666 0.49774 0.06811 0.0
H648 H 0.55696 0.56695 0.09372 0.0
H649 H 0.55041 0.59165 0.08466 0.0
H650 H 0.54147 0.5802 0.10833 0.0
H651 H 0.43944 0.47266 0.09518 0.0
H652 H 0.46959 0.47609 0.10541 0.0
H653 H 0.45402 0.49236 0.11627 0.0
H654 H 0.43196 0.60924 0.1713 0.0
H655 H 0.47409 0.6189 0.18785 0.0
H656 H 0.41017 0.5447 0.20415 0.0
H657 H 0.51401 0.6013 0.16822 0.0
H658 H 0.51783 0.62618 0.18494 0.0
H659 H 0.52507 0.60096 0.19181 0.0
H660 H 0.41275 0.50598 0.2027 0.0
H661 H 0.43848 0.50623 0.18867 0.0
H662 H 0.44391 0.51316 0.21346 0.0
H663 H 0.53407 0.45404 0.25704 0.0
H664 H 0.57447 0.45521 0.24388 0.0
H665 H 0.56559 0.47581 0.23099 0.0
H666 H 0.5931 0.4904 0.24768 0.0
H667 H 0.57237 0.54233 0.25257 0.0
H668 H 0.50789 0.46444 0.24135 0.0
H669 H 0.56803 0.56958 0.21054 0.0
H670 H 0.54804 0.57589 0.22628 0.0
H671 H 0.57861 0.57845 0.23482 0.0
H672 H 0.47311 0.45566 0.21995 0.0
H673 H 0.47042 0.48289 0.21117 0.0
H674 H 0.4891 0.47122 0.19859 0.0
H675 H 0.53382 0.51229 0.0993 0.0
H676 H 0.48117 0.54716 0.12402 0.0
H677 H 0.47117 0.55602 0.1549 0.0
H678 H 0.49477 0.54522 0.21797 0.0
H679 H 0.54657 0.5094 0.19298 0.0
H680 H 0.55685 0.50098 0.16214 0.0
H681 H 0.37708 0.58818 0.18887 0.0
H682 H 0.38645 0.60113 0.16556 0.0
H683 H 0.38604 0.57138 0.17163 0.0
Mn684 Mn 0.6253 0.39848 0.4094 0.0
Mn685 Mn 0.66039 0.46412 0.41542 0.0
C686 C 0.611 0.41849 0.43037 0.0
C687 C 0.62005 0.35791 0.41695 0.0
C688 C 0.62425 0.43657 0.38145 0.0
O689 O 0.66044 0.40886 0.39748 0.0
O690 O 0.68431 0.45179 0.40545 0.0
C691 C 0.6974 0.46846 0.44602 0.0
N692 N 0.67822 0.47327 0.43941 0.0
C693 C 0.67897 0.49516 0.4684 0.0
C694 C 0.69889 0.49062 0.47547 0.0
C695 C 0.70811 0.47718 0.46424 0.0
C696 C 0.66924 0.48622 0.45008 0.0
H697 H 0.70441 0.45798 0.43747 0.0
C698 C 0.68215 0.43066 0.39831 0.0
O699 O 0.61076 0.36116 0.40113 0.0
O700 O 0.63214 0.37808 0.42828 0.0
N701 N 0.6397 0.47843 0.42516 0.0
C702 C 0.61921 0.47966 0.41673 0.0
C703 C 0.60703 0.49162 0.42638 0.0
C704 C 0.6161 0.50228 0.44455 0.0
C705 C 0.63737 0.50099 0.45288 0.0
C706 C 0.64889 0.48903 0.44251 0.0
H707 H 0.61206 0.4714 0.40281 0.0
O708 O 0.59482 0.39496 0.42393 0.0
O709 O 0.63531 0.42929 0.42468 0.0
O710 O 0.61458 0.41317 0.38717 0.0
O711 O 0.64224 0.45665 0.39052 0.0
C712 C 0.64718 0.51054 0.47122 0.0
C713 C 0.66797 0.50763 0.47898 0.0
H714 H 0.70705 0.49712 0.48957 0.0
H715 H 0.72336 0.47346 0.46964 0.0
H716 H 0.59058 0.49249 0.41988 0.0
H717 H 0.60645 0.51122 0.45203 0.0
H718 H 0.63861 0.5198 0.47959 0.0
H719 H 0.67508 0.51471 0.49319 0.0
Mn720 Mn 0.23889 0.63089 0.5718 0.0
Mn721 Mn 0.20875 0.56625 0.56142 0.0
C722 C 0.2048 0.61314 0.54972 0.0
C723 C 0.27427 0.67288 0.56726 0.0
C724 C 0.19945 0.58894 0.59728 0.0
O725 O 0.26372 0.61952 0.58287 0.0
O726 O 0.24528 0.57799 0.57157 0.0
C727 C 0.24187 0.56651 0.53017 0.0
N728 N 0.21765 0.56034 0.5368 0.0
C729 C 0.1965 0.54148 0.50684 0.0
C730 C 0.22118 0.54741 0.49975 0.0
C731 C 0.24397 0.56003 0.51146 0.0
C732 C 0.19559 0.5482 0.52566 0.0
H733 H 0.25947 0.57639 0.53908 0.0
C734 C 0.26392 0.59816 0.58029 0.0
O735 O 0.26125 0.66685 0.58279 0.0
O736 O 0.26665 0.65453 0.55442 0.0
N737 N 0.17355 0.55257 0.55125 0.0
C738 C 0.1516 0.54993 0.55985 0.0
C739 C 0.12732 0.53866 0.54981 0.0
C740 C 0.12581 0.53011 0.53107 0.0
C741 C 0.1486 0.53283 0.52257 0.0
C742 C 0.17221 0.54402 0.53333 0.0
H743 H 0.15263 0.55653 0.57422 0.0
O744 O 0.21185 0.63567 0.55775 0.0
O745 O 0.21845 0.60204 0.55456 0.0
O746 O 0.21303 0.61298 0.59295 0.0
O747 O 0.19772 0.57018 0.58695 0.0
C748 C 0.14894 0.52546 0.50371 0.0
C749 C 0.17287 0.52978 0.49585 0.0
H750 H 0.22292 0.54265 0.48528 0.0
H751 H 0.26312 0.56484 0.50605 0.0
H752 H 0.10983 0.53668 0.55645 0.0
H753 H 0.1071 0.5217 0.52331 0.0
H754 H 0.13101 0.51684 0.49503 0.0
H755 H 0.17297 0.5244 0.48125 0.0
Mn756 Mn 0.61999 0.23988 0.73971 0.0
Mn757 Mn 0.65729 0.2129 0.72832 0.0
C758 C 0.60342 0.20504 0.71858 0.0
C759 C 0.60946 0.27273 0.73521 0.0
C760 C 0.62926 0.20421 0.76547 0.0
O761 O 0.65709 0.26695 0.74865 0.0
O762 O 0.68127 0.24965 0.73758 0.0
C763 C 0.68561 0.24514 0.69587 0.0
N764 N 0.66926 0.22122 0.70315 0.0
C765 C 0.6649 0.1996 0.67329 0.0
C766 C 0.68185 0.22399 0.6655 0.0
C767 C 0.69222 0.24686 0.67684 0.0
C768 C 0.65923 0.19908 0.69239 0.0
H769 H 0.6935 0.26277 0.70452 0.0
C770 C 0.67921 0.26813 0.74569 0.0
O771 O 0.60549 0.26099 0.75115 0.0
O772 O 0.61922 0.26516 0.72185 0.0
N773 N 0.6365 0.17751 0.71902 0.0
C774 C 0.61924 0.15573 0.72842 0.0
C775 C 0.60645 0.1313 0.71891 0.0
C776 C 0.61159 0.1295 0.69989 0.0
C777 C 0.62957 0.15214 0.69056 0.0
C778 C 0.64193 0.17592 0.70081 0.0
H779 H 0.61512 0.157 0.74301 0.0
O780 O 0.58742 0.21078 0.72725 0.0
O781 O 0.62857 0.22013 0.72241 0.0
O782 O 0.61687 0.21637 0.7616 0.0
O783 O 0.6455 0.20269 0.75434 0.0
C784 C 0.6353 0.15215 0.67139 0.0
C785 C 0.65296 0.17586 0.66276 0.0
H786 H 0.68683 0.22543 0.6508 0.0
H787 H 0.7052 0.26577 0.6709 0.0
H788 H 0.59255 0.11392 0.72621 0.0
H789 H 0.60146 0.11066 0.69256 0.0
H790 H 0.62595 0.13408 0.66308 0.0
H791 H 0.65691 0.17565 0.64796 0.0
Mn792 Mn 0.4158 0.63834 0.90522 0.0
Mn793 Mn 0.38105 0.57437 0.91562 0.0
C794 C 0.43347 0.62133 0.92635 0.0
C795 C 0.42361 0.68079 0.91053 0.0
C796 C 0.40928 0.59462 0.87879 0.0
O797 O 0.37821 0.62663 0.89555 0.0
O798 O 0.3562 0.58636 0.90775 0.0
C799 C 0.35238 0.57653 0.94899 0.0
N800 N 0.36911 0.56962 0.94087 0.0
C801 C 0.37138 0.54839 0.96888 0.0
C802 C 0.35407 0.55516 0.97754 0.0
C803 C 0.34467 0.56944 0.96759 0.0
C804 C 0.37861 0.55627 0.95041 0.0
H805 H 0.34493 0.58727 0.9413 0.0
C806 C 0.35676 0.60575 0.89941 0.0
O807 O 0.4291 0.67377 0.8946 0.0
O808 O 0.41384 0.66321 0.92337 0.0
N809 N 0.40276 0.56024 0.92366 0.0
C810 C 0.42019 0.55623 0.91356 0.0
C811 C 0.43212 0.54299 0.92174 0.0
C812 C 0.42565 0.53358 0.94005 0.0
C813 C 0.40737 0.53762 0.95006 0.0
C814 C 0.39633 0.55118 0.94127 0.0
H815 H 0.42495 0.56306 0.89938 0.0
O816 O 0.44882 0.64339 0.91835 0.0
O817 O 0.4084 0.61038 0.92206 0.0
O818 O 0.42144 0.61899 0.88321 0.0
O819 O 0.39272 0.57688 0.88944 0.0
C820 C 0.39971 0.52875 0.96843 0.0
C821 C 0.38179 0.53421 0.97786 0.0
H822 H 0.34796 0.54959 0.99185 0.0
H823 H 0.33137 0.57479 0.97419 0.0
H824 H 0.44616 0.53991 0.91389 0.0
H825 H 0.43485 0.52334 0.9463 0.0
H826 H 0.40778 0.51804 0.97554 0.0
H827 H 0.37639 0.52765 0.9921 0.0
Mn828 Mn 0.78914 0.40937 0.07334 0.0
Mn829 Mn 0.81597 0.37091 0.08094 0.0
C830 C 0.82343 0.42269 0.09503 0.0
C831 C 0.75604 0.41967 0.07858 0.0
C832 C 0.82867 0.40586 0.04726 0.0
O833 O 0.76204 0.37437 0.06157 0.0
O834 O 0.77986 0.34947 0.06923 0.0
C835 C 0.77924 0.3373 0.10998 0.0
N836 N 0.80439 0.35403 0.10445 0.0
C837 C 0.82279 0.35011 0.13389 0.0
C838 C 0.79709 0.3327 0.13986 0.0
C839 C 0.77522 0.32637 0.12788 0.0
C840 C 0.82554 0.36052 0.11596 0.0
H841 H 0.76238 0.33235 0.10079 0.0
C842 C 0.76121 0.35238 0.06205 0.0
O843 O 0.76909 0.42569 0.06308 0.0
O844 O 0.76236 0.40784 0.09115 0.0
N845 N 0.85073 0.38846 0.09235 0.0
C846 C 0.87416 0.40615 0.08471 0.0
C847 C 0.89794 0.41487 0.09503 0.0
C848 C 0.89747 0.40499 0.11296 0.0
C849 C 0.87318 0.38642 0.12038 0.0
C850 C 0.85011 0.37851 0.10946 0.0
H851 H 0.87471 0.41367 0.07087 0.0
O852 O 0.81779 0.43956 0.08794 0.0
O853 O 0.80832 0.39831 0.08963 0.0
O854 O 0.8145 0.41588 0.05188 0.0
O855 O 0.82978 0.38814 0.05672 0.0
C856 C 0.87095 0.37559 0.13824 0.0
C857 C 0.84576 0.35764 0.14507 0.0
H858 H 0.79392 0.32418 0.15364 0.0
H859 H 0.75532 0.31304 0.13241 0.0
H860 H 0.91661 0.42915 0.08918 0.0
H861 H 0.91584 0.41185 0.12092 0.0
H862 H 0.88847 0.38115 0.14693 0.0
H863 H 0.84427 0.34978 0.15896 0.0
Mn864 Mn 0.39808 0.79885 0.23996 0.0
Mn865 Mn 0.46363 0.8289 0.25007 0.0
C866 C 0.41603 0.8317 0.2627 0.0
C867 C 0.3555 0.7639 0.24406 0.0
C868 C 0.44027 0.83917 0.2149 0.0
O869 O 0.40967 0.77469 0.2283 0.0
O870 O 0.45206 0.79337 0.23895 0.0
C871 C 0.46395 0.79489 0.28018 0.0
N872 N 0.46991 0.81907 0.27425 0.0
C873 C 0.48912 0.83869 0.30449 0.0
C874 C 0.48343 0.81404 0.31086 0.0
C875 C 0.47074 0.79204 0.29866 0.0
C876 C 0.48212 0.84038 0.28587 0.0
H877 H 0.454 0.7779 0.2709 0.0
C878 C 0.43157 0.77489 0.23034 0.0
O879 O 0.36186 0.77715 0.2287 0.0
O880 O 0.37389 0.7709 0.25699 0.0
N881 N 0.47714 0.86316 0.26116 0.0
C882 C 0.47937 0.88511 0.2533 0.0
C883 C 0.49057 0.90862 0.26394 0.0
C884 C 0.49945 0.90935 0.28251 0.0
C885 C 0.49712 0.88656 0.29026 0.0
C886 C 0.48599 0.86374 0.27893 0.0
H887 H 0.47248 0.88467 0.23907 0.0
O888 O 0.39329 0.82514 0.25471 0.0
O889 O 0.4273 0.8185 0.2573 0.0
O890 O 0.41603 0.82505 0.21918 0.0
O891 O 0.45948 0.84098 0.225 0.0
C892 C 0.50481 0.88543 0.30892 0.0
C893 C 0.50082 0.86152 0.31603 0.0
H894 H 0.48842 0.81171 0.32516 0.0
H895 H 0.4661 0.77292 0.30352 0.0
H896 H 0.49222 0.92611 0.25788 0.0
H897 H 0.50779 0.92744 0.29074 0.0
H898 H 0.51339 0.90274 0.31803 0.0
H899 H 0.50641 0.86081 0.3305 0.0
H900 H 0.19287 0.66304 0.27665 0.0
H901 H 0.21007 0.61352 0.24118 0.0
H902 H 0.23805 0.69925 0.27289 0.0
H903 H 0.25503 0.65021 0.23692 0.0
H904 H 0.31812 0.73491 0.21703 0.0
H905 H 0.27339 0.69796 0.22158 0.0
H906 H 0.28703 0.70655 0.28166 0.0
H907 H 0.332 0.74308 0.27717 0.0
C908 C 0.20631 0.65976 0.26821 0.0
C909 C 0.19804 0.63518 0.25948 0.0
C910 C 0.23212 0.68053 0.26603 0.0
C911 C 0.24988 0.67738 0.25467 0.0
C912 C 0.24161 0.65306 0.24573 0.0
C913 C 0.21602 0.63212 0.24823 0.0
C914 C 0.31156 0.72888 0.23119 0.0
C915 C 0.32849 0.74179 0.24675 0.0
C916 C 0.28608 0.70773 0.23377 0.0
C917 C 0.27692 0.69955 0.25195 0.0
C918 C 0.29369 0.71263 0.26752 0.0
C919 C 0.31938 0.7334 0.26493 0.0
H920 H 0.55813 0.20602 0.46431 0.0
H921 H 0.63941 0.22783 0.45382 0.0
H922 H 0.56434 0.24485 0.44791 0.0
H923 H 0.64575 0.26702 0.43784 0.0
H924 H 0.65064 0.34959 0.44179 0.0
H925 H 0.64466 0.30771 0.45212 0.0
H926 H 0.57659 0.26677 0.41459 0.0
H927 H 0.58288 0.30893 0.40389 0.0
C928 C 0.57726 0.21903 0.45839 0.0
C929 C 0.59847 0.21425 0.46073 0.0
C930 C 0.58073 0.24112 0.44892 0.0
C931 C 0.60556 0.25895 0.44177 0.0
C932 C 0.62649 0.25366 0.44341 0.0
C933 C 0.62289 0.23134 0.4526 0.0
C934 C 0.63454 0.33167 0.4356 0.0
C935 C 0.61713 0.33245 0.42211 0.0
C936 C 0.63125 0.30774 0.44142 0.0
C937 C 0.6102 0.28409 0.43412 0.0
C938 C 0.59295 0.28479 0.42043 0.0
C939 C 0.59659 0.30884 0.41429 0.0
H940 H 0.41803 0.61117 0.58736 0.0
H941 H 0.39436 0.6031 0.64524 0.0
H942 H 0.3744 0.6037 0.5773 0.0
H943 H 0.35094 0.59619 0.63515 0.0
H944 H 0.2982 0.62764 0.60872 0.0
H945 H 0.33844 0.62808 0.61929 0.0
H946 H 0.32367 0.56745 0.5782 0.0
H947 H 0.28297 0.56665 0.5677 0.0
C948 C 0.40336 0.60728 0.5979 0.0
C949 C 0.40947 0.60729 0.61711 0.0
C950 C 0.37841 0.60302 0.59213 0.0
C951 C 0.35936 0.59935 0.60546 0.0
C952 C 0.36531 0.59901 0.6246 0.0
C953 C 0.39005 0.60283 0.63035 0.0
C954 C 0.30338 0.61424 0.60201 0.0
C955 C 0.28742 0.59714 0.58735 0.0
C956 C 0.32634 0.61441 0.60814 0.0
C957 C 0.3341 0.59779 0.59956 0.0
C958 C 0.31811 0.58051 0.585 0.0
C959 C 0.2948 0.57998 0.57907 0.0
H960 H 0.80496 0.42882 0.76883 0.0
H961 H 0.82196 0.3815 0.80598 0.0
H962 H 0.76823 0.38908 0.75434 0.0
H963 H 0.7853 0.34176 0.79149 0.0
H964 H 0.72954 0.27571 0.74985 0.0
H965 H 0.76955 0.31561 0.76083 0.0
H966 H 0.72426 0.35505 0.76639 0.0
H967 H 0.68443 0.31547 0.75545 0.0
C968 C 0.801 0.4099 0.77371 0.0
C969 C 0.81623 0.40821 0.78854 0.0
C970 C 0.77996 0.3872 0.7655 0.0
C971 C 0.77385 0.36236 0.77186 0.0
C972 C 0.7897 0.36064 0.7862 0.0
C973 C 0.8106 0.38335 0.79453 0.0
C974 C 0.72816 0.29294 0.75332 0.0
C975 C 0.70374 0.29234 0.75185 0.0
C976 C 0.75104 0.31572 0.75967 0.0
C977 C 0.75001 0.33843 0.7644 0.0
C978 C 0.72572 0.33794 0.76263 0.0
C979 C 0.70285 0.31516 0.75651 0.0
H980 H 0.39915 0.81058 0.93854 0.0
H981 H 0.47683 0.84821 0.91439 0.0
H982 H 0.39638 0.76802 0.9347 0.0
H983 H 0.47429 0.80569 0.91077 0.0
H984 H 0.44464 0.72206 0.88669 0.0
H985 H 0.44931 0.76527 0.8917 0.0
H986 H 0.41625 0.74281 0.94683 0.0
H987 H 0.41126 0.69955 0.94174 0.0
C988 C 0.41579 0.80975 0.93268 0.0
C989 C 0.43837 0.83274 0.92706 0.0
C990 C 0.41425 0.78541 0.93051 0.0
C991 C 0.43516 0.78347 0.92249 0.0
C992 C 0.45777 0.80649 0.91686 0.0
C993 C 0.45933 0.83084 0.91909 0.0
C994 C 0.43847 0.72639 0.8999 0.0
C995 C 0.42752 0.70737 0.91379 0.0
C996 C 0.44128 0.75119 0.90281 0.0
C997 C 0.4331 0.75746 0.91965 0.0
C998 C 0.42243 0.7385 0.93361 0.0
C999 C 0.41971 0.71375 0.93073 0.0
H1000 H 0.65664 0.48465 0.11005 0.0
H1001 H 0.60561 0.4157 0.07594 0.0
H1002 H 0.69282 0.47524 0.10693 0.0
H1003 H 0.6423 0.40701 0.07229 0.0
H1004 H 0.72754 0.4281 0.05178 0.0
H1005 H 0.69088 0.43652 0.05641 0.0
H1006 H 0.69939 0.43324 0.11647 0.0
H1007 H 0.7357 0.42407 0.11189 0.0
C1008 C 0.65301 0.46736 0.10205 0.0
C1009 C 0.62803 0.45061 0.09346 0.0
C1010 C 0.67377 0.46207 0.10025 0.0
C1011 C 0.6702 0.44042 0.08942 0.0
C1012 C 0.64545 0.42384 0.0807 0.0
C1013 C 0.62452 0.42876 0.08284 0.0
C1014 C 0.72162 0.4292 0.06597 0.0
C1015 C 0.73441 0.42542 0.08149 0.0
C1016 C 0.70061 0.4339 0.06859 0.0
C1017 C 0.69243 0.43547 0.08677 0.0
C1018 C 0.70547 0.43215 0.10232 0.0
C1019 C 0.72611 0.42685 0.09969 0.0
H1020 H 0.42761 0.80405 0.53965 0.0
H1021 H 0.38591 0.84066 0.56332 0.0
H1022 H 0.38874 0.76091 0.54395 0.0
H1023 H 0.34685 0.79756 0.56737 0.0
H1024 H 0.29467 0.71544 0.59133 0.0
H1025 H 0.33295 0.7588 0.58659 0.0
H1026 H 0.34331 0.73351 0.53167 0.0
H1027 H 0.30537 0.69011 0.53652 0.0
C1028 C 0.40998 0.80284 0.54554 0.0
C1029 C 0.40961 0.82569 0.55084 0.0
C1030 C 0.38772 0.77817 0.54797 0.0
C1031 C 0.36468 0.77583 0.55593 0.0
C1032 C 0.36436 0.7987 0.56133 0.0
C1033 C 0.3866 0.82336 0.55886 0.0
C1034 C 0.30511 0.71916 0.57824 0.0
C1035 C 0.29704 0.69935 0.56432 0.0
C1036 C 0.32694 0.74404 0.57548 0.0
C1037 C 0.34118 0.74958 0.55876 0.0
C1038 C 0.33297 0.72977 0.54481 0.0
C1039 C 0.31114 0.70494 0.54755 0.0
H1040 H 0.62494 0.42618 0.73595 0.0
H1041 H 0.55111 0.37825 0.70517 0.0
H1042 H 0.62992 0.38765 0.74005 0.0
H1043 H 0.55677 0.3401 0.70872 0.0
H1044 H 0.60149 0.2909 0.70213 0.0
H1045 H 0.59461 0.32828 0.69769 0.0
H1046 H 0.59967 0.34168 0.75773 0.0
H1047 H 0.60586 0.30392 0.76227 0.0
C1048 C 0.60998 0.40751 0.72988 0.0
C1049 C 0.58786 0.40543 0.72005 0.0
C1050 C 0.61277 0.38552 0.7323 0.0
C1051 C 0.59373 0.36104 0.72467 0.0
C1052 C 0.57179 0.35887 0.71461 0.0
C1053 C 0.56865 0.38076 0.71255 0.0
C1054 C 0.60093 0.30172 0.71438 0.0
C1055 C 0.60416 0.29452 0.73255 0.0
C1056 C 0.59693 0.323 0.71182 0.0
C1057 C 0.59672 0.3378 0.72737 0.0
C1058 C 0.59989 0.33059 0.74554 0.0
C1059 C 0.60328 0.30895 0.74812 0.0
H1060 H 0.18973 0.55033 0.88009 0.0
H1061 H 0.22526 0.6346 0.88045 0.0
H1062 H 0.23333 0.55476 0.88218 0.0
H1063 H 0.26925 0.63915 0.88375 0.0
H1064 H 0.34661 0.63738 0.87668 0.0
H1065 H 0.30353 0.63359 0.86971 0.0
H1066 H 0.26603 0.56678 0.90578 0.0
H1067 H 0.30835 0.56989 0.91208 0.0
C1068 C 0.20688 0.56986 0.88042 0.0
C1069 C 0.20402 0.59218 0.87979 0.0
C1070 C 0.23197 0.57242 0.88188 0.0
C1071 C 0.25487 0.59732 0.88335 0.0
C1072 C 0.25209 0.61967 0.88241 0.0
C1073 C 0.22693 0.6171 0.88062 0.0
C1074 C 0.32909 0.62181 0.88299 0.0
C1075 C 0.33095 0.60383 0.89481 0.0
C1076 C 0.30443 0.61971 0.87908 0.0
C1077 C 0.28122 0.59971 0.88703 0.0
C1078 C 0.28328 0.58199 0.89898 0.0
C1079 C 0.30772 0.58391 0.90271 0.0
H1080 H 0.64555 0.21037 0.00167 0.0
H1081 H 0.59855 0.22929 0.0381 0.0
H1082 H 0.68603 0.24763 0.0149 0.0
H1083 H 0.63906 0.26664 0.05136 0.0
H1084 H 0.71416 0.34851 0.05089 0.0
H1085 H 0.67401 0.30965 0.03932 0.0
H1086 H 0.71277 0.26382 0.04493 0.0
H1087 H 0.75313 0.30271 0.05645 0.0
C1088 C 0.64393 0.22234 0.01267 0.0
C1089 C 0.61893 0.21695 0.01887 0.0
C1090 C 0.66708 0.24362 0.02027 0.0
C1091 C 0.66571 0.26012 0.03409 0.0
C1092 C 0.64072 0.25444 0.04056 0.0
C1093 C 0.61757 0.23302 0.03307 0.0
C1094 C 0.71424 0.3302 0.04961 0.0
C1095 C 0.73699 0.32882 0.05455 0.0
C1096 C 0.69111 0.30788 0.04313 0.0
C1097 C 0.69021 0.28367 0.0413 0.0
C1098 C 0.71295 0.28226 0.04609 0.0
C1099 C 0.73604 0.30455 0.05273 0.0
H1100 H 0.4302 0.64938 0.16319 0.0
H1101 H 0.42146 0.62409 0.22063 0.0
H1102 H 0.43558 0.69143 0.17396 0.0
H1103 H 0.42754 0.66639 0.23136 0.0
H1104 H 0.46433 0.75667 0.24204 0.0
H1105 H 0.46419 0.71707 0.23085 0.0
H1106 H 0.40194 0.70213 0.19046 0.0
H1107 H 0.40164 0.74127 0.20178 0.0
C1108 C 0.42995 0.65302 0.17812 0.0
C1109 C 0.42576 0.63355 0.19103 0.0
C1110 C 0.43291 0.67698 0.18426 0.0
C1111 C 0.43205 0.6821 0.20347 0.0
C1112 C 0.42859 0.66299 0.21648 0.0
C1113 C 0.42514 0.6388 0.21032 0.0
C1114 C 0.45076 0.74503 0.23068 0.0
C1115 C 0.43293 0.75205 0.22282 0.0
C1116 C 0.45061 0.72235 0.22437 0.0
C1117 C 0.43308 0.70664 0.20981 0.0
C1118 C 0.41579 0.71403 0.20162 0.0
C1119 C 0.41554 0.73635 0.20817 0.0
H1120 H 0.81765 0.45761 0.33279 0.0
H1121 H 0.80712 0.39674 0.3707 0.0
H1122 H 0.78251 0.46139 0.34841 0.0
H1123 H 0.77211 0.40059 0.38641 0.0
H1124 H 0.68782 0.3888 0.38861 0.0
H1125 H 0.72658 0.38911 0.37618 0.0
H1126 H 0.76984 0.47372 0.37899 0.0
H1127 H 0.73078 0.47356 0.39142 0.0
C1128 C 0.80811 0.44538 0.34468 0.0
C1129 C 0.81511 0.42693 0.35058 0.0
C1130 C 0.78809 0.4476 0.35365 0.0
C1131 C 0.77449 0.43119 0.36856 0.0
C1132 C 0.78206 0.41329 0.37482 0.0
C1133 C 0.80217 0.41119 0.36593 0.0
C1134 C 0.70554 0.40754 0.38661 0.0
C1135 C 0.7061 0.43118 0.39095 0.0
C1136 C 0.72786 0.40767 0.37964 0.0
C1137 C 0.75129 0.43142 0.37671 0.0
C1138 C 0.75198 0.45512 0.38104 0.0
C1139 C 0.72965 0.455 0.38821 0.0
H1140 H 0.07314 0.56601 0.46949 0.0
H1141 H 0.14463 0.60865 0.43799 0.0
H1142 H 0.09946 0.56797 0.49703 0.0
H1143 H 0.17114 0.61201 0.46575 0.0
H1144 H 0.21364 0.60132 0.51464 0.0
H1145 H 0.18487 0.59063 0.48676 0.0
H1146 H 0.12768 0.59899 0.51991 0.0
H1147 H 0.15598 0.60807 0.54787 0.0
C1148 C 0.09448 0.57554 0.46839 0.0
C1149 C 0.10682 0.58672 0.45144 0.0
C1150 C 0.10963 0.57697 0.48426 0.0
C1151 C 0.1375 0.59019 0.4837 0.0
C1152 C 0.14975 0.60117 0.46667 0.0
C1153 C 0.13459 0.5994 0.45076 0.0
C1154 C 0.1945 0.6 0.51597 0.0
C1155 C 0.18642 0.60444 0.53341 0.0
C1156 C 0.1782 0.59436 0.49997 0.0
C1157 C 0.15383 0.59387 0.501 0.0
C1158 C 0.14595 0.59854 0.51858 0.0
C1159 C 0.16218 0.60393 0.53459 0.0
H1160 H 0.48513 0.08791 0.63004 0.0
H1161 H 0.57514 0.12931 0.59758 0.0
H1162 H 0.51203 0.11816 0.6636 0.0
H1163 H 0.6 0.15815 0.63216 0.0
H1164 H 0.62093 0.21652 0.68319 0.0
H1165 H 0.60242 0.18903 0.65492 0.0
H1166 H 0.54408 0.12672 0.68835 0.0
H1167 H 0.56265 0.15467 0.71666 0.0
C1168 C 0.5062 0.10177 0.6302 0.0
C1169 C 0.52803 0.10193 0.61136 0.0
C1170 C 0.52339 0.1195 0.65136 0.0
C1171 C 0.55911 0.14 0.65211 0.0
C1172 C 0.5788 0.14496 0.63147 0.0
C1173 C 0.56342 0.12806 0.6096 0.0
C1174 C 0.60454 0.1967 0.68447 0.0
C1175 C 0.59363 0.1873 0.70205 0.0
C1176 C 0.59393 0.18091 0.6683 0.0
C1177 C 0.57189 0.15561 0.66941 0.0
C1178 C 0.56097 0.14621 0.68704 0.0
C1179 C 0.57161 0.16207 0.70324 0.0
H1180 H 0.39473 0.50525 0.76592 0.0
H1181 H 0.49072 0.54246 0.79051 0.0
H1182 H 0.38566 0.53148 0.79695 0.0
H1183 H 0.47916 0.56795 0.82114 0.0
H1184 H 0.45493 0.61836 0.85848 0.0
H1185 H 0.46463 0.60088 0.83002 0.0
H1186 H 0.38575 0.53345 0.83039 0.0
H1187 H 0.37614 0.55068 0.85846 0.0
C1188 C 0.40999 0.51586 0.77659 0.0
C1189 C 0.44509 0.52502 0.77307 0.0
C1190 C 0.40502 0.53345 0.79541 0.0
C1191 C 0.43184 0.55413 0.81167 0.0
C1192 C 0.46408 0.55669 0.81051 0.0
C1193 C 0.47107 0.53979 0.79213 0.0
C1194 C 0.4396 0.60001 0.85225 0.0
C1195 C 0.41478 0.58586 0.86069 0.0
C1196 C 0.44521 0.58994 0.83608 0.0
C1197 C 0.42589 0.56591 0.82794 0.0
C1198 C 0.4009 0.55227 0.83607 0.0
C1199 C 0.39546 0.56204 0.85231 0.0
H1200 H 0.9558 0.45013 0.95299 0.0
H1201 H 0.95307 0.53324 0.97227 0.0
H1202 H 0.91384 0.42098 0.97899 0.0
H1203 H 0.91168 0.50229 0.99807 0.0
H1204 H 0.83439 0.44545 0.02452 0.0
H1205 H 0.8673 0.46725 0.00063 0.0
H1206 H 0.89712 0.41423 0.00983 0.0
H1207 H 0.86382 0.39193 0.03346 0.0
C1208 C 0.94833 0.45991 0.9619 0.0
C1209 C 0.9554 0.4939 0.95744 0.0
C1210 C 0.9214 0.44175 0.97756 0.0
C1211 C 0.90684 0.45793 0.99052 0.0
C1212 C 0.9198 0.49294 0.98939 0.0
C1213 C 0.94661 0.51273 0.97414 0.0
C1214 C 0.8477 0.43815 0.02131 0.0
C1215 C 0.8465 0.417 0.03109 0.0
C1216 C 0.86678 0.45086 0.00771 0.0
C1217 C 0.88509 0.44274 0.00352 0.0
C1218 C 0.88319 0.42088 0.0126 0.0
C1219 C 0.86411 0.40815 0.02625 0.0
H1220 H 0.51199 0.94618 0.12176 0.0
H1221 H 0.43283 0.88967 0.10221 0.0
H1222 H 0.50296 0.92539 0.15228 0.0
H1223 H 0.42408 0.8681 0.13234 0.0
H1224 H 0.40686 0.8487 0.19337 0.0
H1225 H 0.41642 0.87263 0.16431 0.0
H1226 H 0.49682 0.88696 0.16712 0.0
H1227 H 0.4875 0.86381 0.19662 0.0
C1228 C 0.49256 0.92946 0.12406 0.0
C1229 C 0.47283 0.91998 0.10976 0.0
C1230 C 0.48748 0.91731 0.14148 0.0
C1231 C 0.46271 0.89511 0.14488 0.0
C1232 C 0.44315 0.88551 0.13045 0.0
C1233 C 0.44815 0.89779 0.11314 0.0
C1234 C 0.42662 0.85698 0.18783 0.0
C1235 C 0.44637 0.85418 0.19732 0.0
C1236 C 0.43207 0.87063 0.17107 0.0
C1237 C 0.45736 0.88162 0.16322 0.0
C1238 C 0.47722 0.87908 0.17283 0.0
C1239 C 0.47182 0.86563 0.18972 0.0
H1240 H 0.58504 0.50663 0.2887 0.0
H1241 H 0.54566 0.42433 0.27335 0.0
H1242 H 0.60088 0.4978 0.31795 0.0
H1243 H 0.5628 0.41556 0.30211 0.0
H1244 H 0.57662 0.40431 0.36352 0.0
H1245 H 0.55901 0.41278 0.33488 0.0
H1246 H 0.63157 0.48699 0.33001 0.0
H1247 H 0.64852 0.47902 0.35905 0.0
C1248 C 0.57964 0.4866 0.29163 0.0
C1249 C 0.5635 0.46603 0.27893 0.0
C1250 C 0.58905 0.48155 0.30831 0.0
C1251 C 0.58315 0.45592 0.3125 0.0
C1252 C 0.5673 0.43544 0.29963 0.0
C1253 C 0.55757 0.44045 0.28309 0.0
C1254 C 0.5888 0.42239 0.35628 0.0
C1255 C 0.61393 0.44101 0.36359 0.0
C1256 C 0.57876 0.42724 0.33979 0.0
C1257 C 0.59378 0.45065 0.33007 0.0
C1258 C 0.61913 0.46903 0.33728 0.0
C1259 C 0.62897 0.46436 0.35389 0.0
H1260 H 0.42446 0.88325 0.37776 0.0
H1261 H 0.46643 0.95594 0.34834 0.0
H1262 H 0.41902 0.85882 0.34862 0.0
H1263 H 0.46248 0.93167 0.31933 0.0
H1264 H 0.42055 0.87959 0.26721 0.0
H1265 H 0.43027 0.90543 0.29638 0.0
H1266 H 0.43922 0.84642 0.32581 0.0
H1267 H 0.42785 0.82014 0.29682 0.0
C1268 C 0.43313 0.89398 0.36512 0.0
C1269 C 0.44627 0.92148 0.36545 0.0
C1270 C 0.43015 0.88002 0.34839 0.0
C1271 C 0.44039 0.89322 0.33154 0.0
C1272 C 0.45401 0.9208 0.33195 0.0
C1273 C 0.45662 0.93476 0.34865 0.0
C1274 C 0.42488 0.87243 0.27995 0.0
C1275 C 0.42445 0.84845 0.27976 0.0
C1276 C 0.43064 0.88726 0.29664 0.0
C1277 C 0.43578 0.87819 0.31353 0.0
C1278 C 0.43514 0.85399 0.3132 0.0
C1279 C 0.42912 0.83911 0.29655 0.0
H1280 H 0.53043 0.46807 0.50925 0.0
H1281 H 0.56332 0.42925 0.54169 0.0
H1282 H 0.55367 0.46588 0.48169 0.0
H1283 H 0.58543 0.4257 0.51395 0.0
H1284 H 0.63536 0.43477 0.46455 0.0
H1285 H 0.6192 0.44718 0.49209 0.0
H1286 H 0.54973 0.43357 0.45984 0.0
H1287 H 0.56694 0.42273 0.43217 0.0
C1288 C 0.54293 0.45938 0.51055 0.0
C1289 C 0.54552 0.4493 0.52775 0.0
C1290 C 0.55601 0.45783 0.49469 0.0
C1291 C 0.57145 0.44559 0.49553 0.0
C1292 C 0.57422 0.43578 0.51282 0.0
C1293 C 0.56144 0.43765 0.52872 0.0
C1294 C 0.61712 0.43539 0.4633 0.0
C1295 C 0.60283 0.42884 0.44618 0.0
C1296 C 0.60758 0.44201 0.47912 0.0
C1297 C 0.58311 0.4414 0.47826 0.0
C1298 C 0.56891 0.43487 0.46098 0.0
C1299 C 0.57862 0.42848 0.44515 0.0
H1300 H 0.09308 0.51345 0.69027 0.0
H1301 H 0.14871 0.59143 0.71121 0.0
H1302 H 0.11419 0.52405 0.65982 0.0
H1303 H 0.17068 0.60178 0.68108 0.0
H1304 H 0.18967 0.62099 0.6199 0.0
H1305 H 0.16598 0.6103 0.64926 0.0
H1306 H 0.15339 0.53161 0.64489 0.0
H1307 H 0.17621 0.54201 0.61517 0.0
C1308 C 0.10969 0.53295 0.68829 0.0
C1309 C 0.1188 0.55188 0.70297 0.0
C1310 C 0.12204 0.53895 0.67091 0.0
C1311 C 0.14413 0.56384 0.66789 0.0
C1312 C 0.15338 0.58262 0.68269 0.0
C1313 C 0.14087 0.5767 0.69999 0.0
C1314 C 0.18182 0.60138 0.62518 0.0
C1315 C 0.18493 0.58239 0.61516 0.0
C1316 C 0.16833 0.59527 0.6421 0.0
C1317 C 0.1578 0.57009 0.64955 0.0
C1318 C 0.16083 0.55108 0.63948 0.0
C1319 C 0.1741 0.55711 0.62246 0.0
H1320 H 0.57534 0.14427 0.88755 0.0
H1321 H 0.63913 0.11196 0.8682 0.0
H1322 H 0.58344 0.16917 0.85157 0.0
H1323 H 0.64554 0.13704 0.83282 0.0
H1324 H 0.66217 0.19122 0.78395 0.0
H1325 H 0.65631 0.17131 0.81428 0.0
H1326 H 0.58028 0.16702 0.81887 0.0
H1327 H 0.58696 0.18846 0.78873 0.0
C1328 C 0.58905 0.14387 0.87763 0.0
C1329 C 0.60284 0.1215 0.88021 0.0
C1330 C 0.59323 0.15815 0.85477 0.0
C1331 C 0.61407 0.15468 0.83758 0.0
C1332 C 0.63277 0.13844 0.84307 0.0
C1333 C 0.6299 0.12364 0.86548 0.0
C1334 C 0.64414 0.18597 0.79139 0.0
C1335 C 0.62504 0.19143 0.78389 0.0
C1336 C 0.6406 0.17423 0.80882 0.0
C1337 C 0.61764 0.16718 0.81908 0.0
C1338 C 0.59841 0.1725 0.81155 0.0
C1339 C 0.60215 0.18468 0.79419 0.0
H1340 H 0.43962 0.53823 0.02256 0.0
H1341 H 0.52031 0.57568 0.00379 0.0
H1342 H 0.42916 0.56178 0.99956 0.0
H1343 H 0.5099 0.59935 0.98046 0.0
H1344 H 0.47306 0.60958 0.92599 0.0
H1345 H 0.48762 0.59258 0.95185 0.0
H1346 H 0.43261 0.59967 0.98842 0.0
H1347 H 0.41711 0.61491 0.9621 0.0
C1348 C 0.45524 0.55184 0.01364 0.0
C1349 C 0.4809 0.55539 0.01514 0.0
C1350 C 0.44923 0.56535 0.00032 0.0
C1351 C 0.46849 0.58221 0.98776 0.0
C1352 C 0.49434 0.58611 0.98954 0.0
C1353 C 0.50042 0.57277 0.00303 0.0
C1354 C 0.46422 0.60742 0.93962 0.0
C1355 C 0.44347 0.61261 0.94206 0.0
C1356 C 0.47271 0.59798 0.95453 0.0
C1357 C 0.46116 0.59444 0.97232 0.0
C1358 C 0.44148 0.60135 0.97488 0.0
C1359 C 0.43264 0.61019 0.95986 0.0
H1360 H 0.95897 0.51057 0.17121 0.0
H1361 H 0.92457 0.43018 0.18803 0.0
H1362 H 0.9227 0.49789 0.14843 0.0
H1363 H 0.88843 0.41731 0.16516 0.0
H1364 H 0.81683 0.40368 0.13025 0.0
H1365 H 0.85004 0.41848 0.15581 0.0
H1366 H 0.9082 0.47587 0.11921 0.0
H1367 H 0.87451 0.46163 0.09414 0.0
C1368 C 0.94347 0.4902 0.17012 0.0
C1369 C 0.94444 0.47141 0.18151 0.0
C1370 C 0.92281 0.48285 0.15694 0.0
C1371 C 0.90275 0.45646 0.15469 0.0
C1372 C 0.90344 0.43778 0.16645 0.0
C1373 C 0.92413 0.44513 0.1796 0.0
C1374 C 0.83682 0.41937 0.12779 0.0
C1375 C 0.84356 0.43103 0.11018 0.0
C1376 C 0.85584 0.42789 0.14238 0.0
C1377 C 0.88195 0.44829 0.1396 0.0
C1378 C 0.88828 0.46038 0.12202 0.0
C1379 C 0.86913 0.45209 0.10756 0.0
loop_
_geom_bond_atom_site_label_1
_geom_bond_atom_site_label_2
_geom_bond_distance
_geom_bond_site_symmetry_2
_ccdc_geom_bond_type
C0 C1 1.560 . S
C0 H61 0.959 . S
C0 H62 0.959 . S
C0 H63 0.960 . S
C1 C0 1.560 . S
C1 O56 1.426 . S
C1 H60 0.980 . S
C2 C3 1.407 . S
C2 C7 1.418 . S
C2 O56 1.334 . S
C3 C2 1.407 . S
C3 C4 1.360 . S
C3 H64 0.929 . S
C4 C3 1.360 . S
C4 C5 1.401 . S
C4 C8 1.527 . S
C5 C4 1.401 . S
C5 C6 1.405 . S
C5 C38 1.587 . S
C6 C5 1.405 . S
C6 C7 1.332 . S
C6 C9 1.496 . S
C7 C2 1.418 . S
C7 C6 1.332 . S
C7 H65 0.929 . S
C8 C4 1.527 . S
C8 H66 0.959 . S
C8 H67 0.961 . S
C8 H68 0.961 . S
C9 C6 1.496 . S
C9 H69 0.960 . S
C9 H70 0.960 . S
C9 H71 0.961 . S
C10 C11 1.517 . S
C10 H73 0.961 . S
C10 H74 0.960 . S
C10 H75 0.959 . S
C11 C10 1.517 . S
C11 O59 1.468 . S
C11 H72 0.980 . S
C12 C13 1.349 . S
C12 C17 1.367 . S
C12 O59 1.408 . S
C13 C12 1.349 . S
C13 C14 1.407 . S
C13 H76 0.930 . S
C14 C13 1.407 . S
C14 C15 1.449 . S
C14 C18 1.535 . S
C15 C14 1.449 . S
C15 C16 1.384 . S
C15 C40 1.553 1_655 S
C16 C15 1.384 . S
C16 C17 1.364 . S
C16 C19 1.450 . S
C17 C12 1.367 . S
C17 C16 1.364 . S
C17 H77 0.931 . S
C18 C14 1.535 . S
C18 H78 0.959 1_655 S
C18 H79 0.961 . S
C18 H80 0.959 . S
C19 C16 1.450 . S
C19 H81 0.960 . S
C19 H82 0.960 1_655 S
C19 H83 0.960 . S
C20 C21 1.309 . S
C20 C25 1.304 . S
C20 O58 1.435 . S
C21 C20 1.309 . S
C21 C22 1.476 . S
C21 H85 0.930 . S
C22 C21 1.476 . S
C22 C23 1.400 . S
C22 C26 1.567 . S
C23 C22 1.400 . S
C23 C24 1.373 . S
C23 C45 1.432 . S
C24 C23 1.373 . S
C24 C25 1.339 . S
C24 C27 1.530 . S
C25 C20 1.304 . S
C25 C24 1.339 . S
C25 H86 0.930 . S
C26 C22 1.567 . S
C26 H87 0.961 . S
C26 H88 0.960 . S
C26 H89 0.958 . S
C27 C24 1.530 . S
C27 H90 0.961 . S
C27 H91 0.960 . S
C27 H92 0.960 . S
C28 C29 1.530 . S
C28 H94 0.961 . S
C28 H95 0.961 . S
C28 H96 0.959 . S
C29 C28 1.530 . S
C29 O57 1.412 . S
C29 H93 0.980 . S
C30 C31 1.288 . S
C30 C35 1.377 . S
C30 O57 1.393 . S
C31 C30 1.288 . S
C31 C32 1.369 . S
C31 H97 0.932 . S
C32 C31 1.369 . S
C32 C33 1.398 . S
C32 C36 1.527 . S
C33 C32 1.398 . S
C33 C34 1.380 . S
C33 C47 1.497 . S
C34 C33 1.380 . S
C34 C35 1.383 . S
C34 C37 1.603 . S
C35 C30 1.377 . S
C35 C34 1.383 . S
C35 H98 0.929 . S
C36 C32 1.527 . S
C36 H99 0.961 . S
C36 H100 0.959 1_455 S
C36 H101 0.959 . S
C37 C34 1.603 . S
C37 H102 0.960 . S
C37 H103 0.962 . S
C37 H104 0.961 . S
C38 C5 1.587 . S
C38 C39 1.360 . S
C38 C51 1.412 . S
C39 C38 1.360 . S
C39 C40 1.365 . S
C39 H105 0.929 . S
C40 C15 1.553 1_455 S
C40 C39 1.365 . S
C40 C41 1.402 . S
C41 C40 1.402 . S
C41 C42 1.400 1_455 S
C41 C52 1.448 . S
C42 C41 1.400 1_655 S
C42 C43 1.322 . S
C42 H106 0.930 . S
C43 C42 1.322 . S
C43 C44 1.459 . S
C43 H107 0.929 . S
C44 C43 1.459 . S
C44 C45 1.445 . S
C44 C53 1.395 1_655 S
C45 C23 1.432 . S
C45 C44 1.445 . S
C45 C46 1.370 . S
C46 C45 1.370 . S
C46 C47 1.438 1_655 S
C46 H108 0.930 . S
C47 C33 1.497 . S
C47 C46 1.438 1_455 S
C47 C48 1.360 . S
C48 C47 1.360 . S
C48 C49 1.401 . S
C48 C53 1.446 . S
C49 C48 1.401 . S
C49 C50 1.347 . S
C49 H109 0.929 . S
C50 C49 1.347 . S
C50 C51 1.455 . S
C50 H110 0.930 . S
C51 C38 1.412 . S
C51 C50 1.455 . S
C51 C52 1.331 . S
C52 C41 1.448 . S
C52 C51 1.331 . S
C52 C53 1.497 . S
C53 C44 1.395 1_455 S
C53 C48 1.446 . S
C53 C52 1.497 . S
C54 C55 1.582 . S
C54 H111 0.962 . S
C54 H112 0.959 . S
C54 H113 0.958 . S
C55 C54 1.582 . S
C55 O58 1.458 . S
C55 H84 0.980 . S
O56 C1 1.426 . S
O56 C2 1.334 . S
O57 C29 1.412 . S
O57 C30 1.393 . S
O58 C20 1.435 . S
O58 C55 1.458 . S
O59 C11 1.468 . S
O59 C12 1.408 . S
H60 C1 0.980 . S
H61 C0 0.959 . S
H62 C0 0.959 . S
H63 C0 0.960 . S
H64 C3 0.929 . S
H65 C7 0.929 . S
H66 C8 0.959 . S
H67 C8 0.961 . S
H68 C8 0.961 . S
H69 C9 0.960 . S
H70 C9 0.960 . S
H71 C9 0.961 . S
H72 C11 0.980 . S
H73 C10 0.961 . S
H74 C10 0.960 . S
H75 C10 0.959 . S
H76 C13 0.930 . S
H77 C17 0.931 . S
H78 C18 0.959 1_455 S
H79 C18 0.961 . S
H80 C18 0.959 . S
H81 C19 0.960 . S
H82 C19 0.960 1_455 S
H83 C19 0.960 . S
H84 C55 0.980 . S
H85 C21 0.930 . S
H86 C25 0.930 . S
H87 C26 0.961 . S
H88 C26 0.960 . S
H89 C26 0.958 . S
H90 C27 0.961 . S
H91 C27 0.960 . S
H92 C27 0.960 . S
H93 C29 0.980 . S
H94 C28 0.961 . S
H95 C28 0.961 . S
H96 C28 0.959 . S
H97 C31 0.932 . S
H98 C35 0.929 . S
H99 C36 0.961 . S
H100 C36 0.959 1_655 S
H101 C36 0.959 . S
H102 C37 0.960 . S
H103 C37 0.962 . S
H104 C37 0.961 . S
H105 C39 0.929 . S
H106 C42 0.930 . S
H107 C43 0.929 . S
H108 C46 0.930 . S
H109 C49 0.929 . S
H110 C50 0.930 . S
H111 C54 0.962 . S
H112 C54 0.959 . S
H113 C54 0.958 . S
C114 C115 1.560 . S
C114 H175 0.959 . S
C114 H176 0.959 . S
C114 H177 0.960 . S
C115 C114 1.560 . S
C115 O170 1.426 . S
C115 H174 0.980 . S
C116 C117 1.407 . S
C116 C121 1.418 . S
C116 O170 1.334 . S
C117 C116 1.407 . S
C117 C118 1.360 . S
C117 H178 0.929 . S
C118 C117 1.360 . S
C118 C119 1.401 . S
C118 C122 1.527 . S
C119 C118 1.401 . S
C119 C120 1.405 . S
C119 C152 1.587 . S
C120 C119 1.405 . S
C120 C121 1.332 . S
C120 C123 1.496 . S
C121 C116 1.418 . S
C121 C120 1.332 . S
C121 H179 0.929 . S
C122 C118 1.527 . S
C122 H180 0.959 . S
C122 H181 0.961 . S
C122 H182 0.961 . S
C123 C120 1.496 . S
C123 H183 0.960 . S
C123 H184 0.960 . S
C123 H185 0.961 . S
C124 C125 1.517 . S
C124 H187 0.961 . S
C124 H188 0.960 . S
C124 H189 0.959 . S
C125 C124 1.517 . S
C125 O173 1.468 . S
C125 H186 0.980 . S
C126 C127 1.349 . S
C126 C131 1.367 . S
C126 O173 1.408 . S
C127 C126 1.349 . S
C127 C128 1.407 . S
C127 H190 0.930 . S
C128 C127 1.407 . S
C128 C129 1.449 . S
C128 C132 1.535 . S
C129 C128 1.449 . S
C129 C130 1.384 . S
C129 C154 1.553 . S
C130 C129 1.384 . S
C130 C131 1.364 . S
C130 C133 1.450 . S
C131 C126 1.367 . S
C131 C130 1.364 . S
C131 H191 0.931 . S
C132 C128 1.535 . S
C132 H192 0.959 . S
C132 H193 0.961 . S
C132 H194 0.959 . S
C133 C130 1.450 . S
C133 H195 0.960 . S
C133 H196 0.960 . S
C133 H197 0.960 . S
C134 C135 1.309 . S
C134 C139 1.304 . S
C134 O172 1.435 . S
C135 C134 1.309 . S
C135 C136 1.476 . S
C135 H199 0.930 . S
C136 C135 1.476 . S
C136 C137 1.400 . S
C136 C140 1.567 . S
C137 C136 1.400 . S
C137 C138 1.373 . S
C137 C159 1.432 . S
C138 C137 1.373 . S
C138 C139 1.339 . S
C138 C141 1.530 . S
C139 C134 1.304 . S
C139 C138 1.339 . S
C139 H200 0.930 . S
C140 C136 1.567 . S
C140 H201 0.961 . S
C140 H202 0.960 . S
C140 H203 0.958 . S
C141 C138 1.530 . S
C141 H204 0.961 . S
C141 H205 0.960 . S
C141 H206 0.960 . S
C142 C143 1.530 . S
C142 H208 0.961 . S
C142 H209 0.961 . S
C142 H210 0.959 . S
C143 C142 1.530 . S
C143 O171 1.412 . S
C143 H207 0.980 . S
C144 C145 1.288 . S
C144 C149 1.377 . S
C144 O171 1.393 . S
C145 C144 1.288 . S
C145 C146 1.369 . S
C145 H211 0.932 . S
C146 C145 1.369 . S
C146 C147 1.398 . S
C146 C150 1.527 1_565 S
C147 C146 1.398 . S
C147 C148 1.380 . S
C147 C161 1.497 1_565 S
C148 C147 1.380 . S
C148 C149 1.383 . S
C148 C151 1.603 . S
C149 C144 1.377 . S
C149 C148 1.383 . S
C149 H212 0.929 . S
C150 C146 1.527 1_545 S
C150 H213 0.961 . S
C150 H214 0.959 . S
C150 H215 0.959 . S
C151 C148 1.603 . S
C151 H216 0.960 . S
C151 H217 0.962 1_565 S
C151 H218 0.961 . S
C152 C119 1.587 . S
C152 C153 1.360 . S
C152 C165 1.412 . S
C153 C152 1.360 . S
C153 C154 1.365 1_565 S
C153 H219 0.929 . S
C154 C129 1.553 . S
C154 C153 1.365 1_545 S
C154 C155 1.404 . S
C155 C154 1.404 . S
C155 C156 1.395 . S
C155 C166 1.451 . S
C156 C155 1.395 . S
C156 C157 1.322 . S
C156 H220 0.930 . S
C157 C156 1.322 . S
C157 C158 1.459 . S
C157 H221 0.929 . S
C158 C157 1.459 . S
C158 C159 1.445 . S
C158 C167 1.395 . S
C159 C137 1.432 . S
C159 C158 1.445 . S
C159 C160 1.370 . S
C160 C159 1.370 . S
C160 C161 1.438 . S
C160 H222 0.930 . S
C161 C147 1.497 1_545 S
C161 C160 1.438 . S
C161 C162 1.360 . S
C162 C161 1.360 . S
C162 C163 1.401 1_545 S
C162 C167 1.446 . S
C163 C162 1.401 1_565 S
C163 C164 1.347 . S
C163 H223 0.929 . S
C164 C163 1.347 . S
C164 C165 1.455 . S
C164 H224 0.930 . S
C165 C152 1.412 . S
C165 C164 1.455 . S
C165 C166 1.331 1_565 S
C166 C155 1.451 . S
C166 C165 1.331 1_545 S
C166 C167 1.497 . S
C167 C158 1.395 . S
C167 C162 1.446 . S
C167 C166 1.497 . S
C168 C169 1.582 . S
C168 H225 0.962 . S
C168 H226 0.959 . S
C168 H227 0.958 . S
C169 C168 1.582 . S
C169 O172 1.458 . S
C169 H198 0.980 . S
O170 C115 1.426 . S
O170 C116 1.334 . S
O171 C143 1.412 . S
O171 C144 1.393 . S
O172 C134 1.435 . S
O172 C169 1.458 . S
O173 C125 1.468 . S
O173 C126 1.408 . S
H174 C115 0.980 . S
H175 C114 0.959 . S
H176 C114 0.959 . S
H177 C114 0.960 . S
H178 C117 0.929 . S
H179 C121 0.929 . S
H180 C122 0.959 . S
H181 C122 0.961 . S
H182 C122 0.961 . S
H183 C123 0.960 . S
H184 C123 0.960 . S
H185 C123 0.961 . S
H186 C125 0.980 . S
H187 C124 0.961 . S
H188 C124 0.960 . S
H189 C124 0.959 . S
H190 C127 0.930 . S
H191 C131 0.931 . S
H192 C132 0.959 . S
H193 C132 0.961 . S
H194 C132 0.959 . S
H195 C133 0.960 . S
H196 C133 0.960 . S
H197 C133 0.960 . S
H198 C169 0.980 . S
H199 C135 0.930 . S
H200 C139 0.930 . S
H201 C140 0.961 . S
H202 C140 0.960 . S
H203 C140 0.958 . S
H204 C141 0.961 . S
H205 C141 0.960 . S
H206 C141 0.960 . S
H207 C143 0.980 . S
H208 C142 0.961 . S
H209 C142 0.961 . S
H210 C142 0.959 . S
H211 C145 0.932 . S
H212 C149 0.929 . S
H213 C150 0.961 . S
H214 C150 0.959 . S
H215 C150 0.959 . S
H216 C151 0.960 . S
H217 C151 0.962 1_545 S
H218 C151 0.961 . S
H219 C153 0.929 . S
H220 C156 0.930 . S
H221 C157 0.929 . S
H222 C160 0.930 . S
H223 C163 0.929 . S
H224 C164 0.930 . S
H225 C168 0.962 . S
H226 C168 0.959 . S
H227 C168 0.958 . S
C228 C229 1.560 . S
C228 H289 0.959 . S
C228 H290 0.959 . S
C228 H291 0.960 . S
C229 C228 1.560 . S
C229 O284 1.426 . S
C229 H288 0.980 . S
C230 C231 1.407 . S
C230 C235 1.418 . S
C230 O284 1.334 . S
C231 C230 1.407 . S
C231 C232 1.360 . S
C231 H292 0.929 . S
C232 C231 1.360 . S
C232 C233 1.401 . S
C232 C236 1.527 . S
C233 C232 1.401 . S
C233 C234 1.405 . S
C233 C266 1.587 . S
C234 C233 1.405 . S
C234 C235 1.332 . S
C234 C237 1.496 . S
C235 C230 1.418 . S
C235 C234 1.332 . S
C235 H293 0.929 . S
C236 C232 1.527 . S
C236 H294 0.959 . S
C236 H295 0.961 . S
C236 H296 0.961 . S
C237 C234 1.496 . S
C237 H297 0.960 . S
C237 H298 0.960 . S
C237 H299 0.961 . S
C238 C239 1.517 . S
C238 H301 0.961 . S
C238 H302 0.960 . S
C238 H303 0.959 . S
C239 C238 1.517 . S
C239 O287 1.468 . S
C239 H300 0.980 . S
C240 C241 1.349 . S
C240 C245 1.367 . S
C240 O287 1.408 . S
C241 C240 1.349 . S
C241 C242 1.407 . S
C241 H304 0.930 . S
C242 C241 1.407 . S
C242 C243 1.449 . S
C242 C246 1.535 . S
C243 C242 1.449 . S
C243 C244 1.384 . S
C243 C268 1.553 . S
C244 C243 1.384 . S
C244 C245 1.364 . S
C244 C247 1.450 . S
C245 C240 1.367 . S
C245 C244 1.364 . S
C245 H305 0.931 . S
C246 C242 1.535 . S
C246 H306 0.959 . S
C246 H307 0.961 . S
C246 H308 0.959 . S
C247 C244 1.450 . S
C247 H309 0.960 . S
C247 H310 0.960 . S
C247 H311 0.960 . S
C248 C249 1.309 . S
C248 C253 1.304 . S
C248 O286 1.435 . S
C249 C248 1.309 . S
C249 C250 1.476 . S
C249 H313 0.930 . S
C250 C249 1.476 . S
C250 C251 1.400 . S
C250 C254 1.567 . S
C251 C250 1.400 . S
C251 C252 1.373 . S
C251 C273 1.432 . S
C252 C251 1.373 . S
C252 C253 1.339 . S
C252 C255 1.530 . S
C253 C248 1.304 . S
C253 C252 1.339 . S
C253 H314 0.930 . S
C254 C250 1.567 . S
C254 H315 0.961 . S
C254 H316 0.960 . S
C254 H317 0.958 . S
C255 C252 1.530 . S
C255 H318 0.961 . S
C255 H319 0.960 . S
C255 H320 0.960 . S
C256 C257 1.530 . S
C256 H322 0.961 . S
C256 H323 0.961 . S
C256 H324 0.959 . S
C257 C256 1.530 . S
C257 O285 1.412 . S
C257 H321 0.980 . S
C258 C259 1.288 . S
C258 C263 1.377 . S
C258 O285 1.393 . S
C259 C258 1.288 . S
C259 C260 1.369 . S
C259 H325 0.932 . S
C260 C259 1.369 . S
C260 C261 1.398 . S
C260 C264 1.527 . S
C261 C260 1.398 . S
C261 C262 1.380 . S
C261 C275 1.497 . S
C262 C261 1.380 . S
C262 C263 1.383 . S
C262 C265 1.603 . S
C263 C258 1.377 . S
C263 C262 1.383 . S
C263 H326 0.929 . S
C264 C260 1.527 . S
C264 H327 0.961 . S
C264 H328 0.959 . S
C264 H329 0.959 . S
C265 C262 1.603 . S
C265 H330 0.960 . S
C265 H331 0.962 . S
C265 H332 0.961 . S
C266 C233 1.587 . S
C266 C267 1.360 . S
C266 C279 1.412 . S
C267 C266 1.360 . S
C267 C268 1.365 . S
C267 H333 0.929 . S
C268 C243 1.553 . S
C268 C267 1.365 . S
C268 C269 1.404 . S
C269 C268 1.404 . S
C269 C270 1.395 . S
C269 C280 1.451 . S
C270 C269 1.395 . S
C270 C271 1.322 . S
C270 H334 0.930 . S
C271 C270 1.322 . S
C271 C272 1.459 . S
C271 H335 0.929 . S
C272 C271 1.459 . S
C272 C273 1.445 . S
C272 C281 1.395 . S
C273 C251 1.432 . S
C273 C272 1.445 . S
C273 C274 1.370 . S
C274 C273 1.370 . S
C274 C275 1.438 . S
C274 H336 0.930 . S
C275 C261 1.497 . S
C275 C274 1.438 . S
C275 C276 1.360 . S
C276 C275 1.360 . S
C276 C277 1.401 . S
C276 C281 1.446 . S
C277 C276 1.401 . S
C277 C278 1.347 . S
C277 H337 0.929 . S
C278 C277 1.347 . S
C278 C279 1.455 . S
C278 H338 0.930 . S
C279 C266 1.412 . S
C279 C278 1.455 . S
C279 C280 1.331 . S
C280 C269 1.451 . S
C280 C279 1.331 . S
C280 C281 1.497 . S
C281 C272 1.395 . S
C281 C276 1.446 . S
C281 C280 1.497 . S
C282 C283 1.582 . S
C282 H339 0.962 . S
C282 H340 0.959 . S
C282 H341 0.958 . S
C283 C282 1.582 . S
C283 O286 1.458 . S
C283 H312 0.980 . S
O284 C229 1.426 . S
O284 C230 1.334 . S
O285 C257 1.412 . S
O285 C258 1.393 . S
O286 C248 1.435 . S
O286 C283 1.458 . S
O287 C239 1.468 . S
O287 C240 1.408 . S
H288 C229 0.980 . S
H289 C228 0.959 . S
H290 C228 0.959 . S
H291 C228 0.960 . S
H292 C231 0.929 . S
H293 C235 0.929 . S
H294 C236 0.959 . S
H295 C236 0.961 . S
H296 C236 0.961 . S
H297 C237 0.960 . S
H298 C237 0.960 . S
H299 C237 0.961 . S
H300 C239 0.980 . S
H301 C238 0.961 . S
H302 C238 0.960 . S
H303 C238 0.959 . S
H304 C241 0.930 . S
H305 C245 0.931 . S
H306 C246 0.959 . S
H307 C246 0.961 . S
H308 C246 0.959 . S
H309 C247 0.960 . S
H310 C247 0.960 . S
H311 C247 0.960 . S
H312 C283 0.980 . S
H313 C249 0.930 . S
H314 C253 0.930 . S
H315 C254 0.961 . S
H316 C254 0.960 . S
H317 C254 0.958 . S
H318 C255 0.961 . S
H319 C255 0.960 . S
H320 C255 0.960 . S
H321 C257 0.980 . S
H322 C256 0.961 . S
H323 C256 0.961 . S
H324 C256 0.959 . S
H325 C259 0.932 . S
H326 C263 0.929 . S
H327 C264 0.961 . S
H328 C264 0.959 . S
H329 C264 0.959 . S
H330 C265 0.960 . S
H331 C265 0.962 . S
H332 C265 0.961 . S
H333 C267 0.929 . S
H334 C270 0.930 . S
H335 C271 0.929 . S
H336 C274 0.930 . S
H337 C277 0.929 . S
H338 C278 0.930 . S
H339 C282 0.962 . S
H340 C282 0.959 . S
H341 C282 0.958 . S
C342 C343 1.560 . S
C342 H403 0.959 . S
C342 H404 0.959 . S
C342 H405 0.960 . S
C343 C342 1.560 . S
C343 O398 1.426 . S
C343 H402 0.980 . S
C344 C345 1.407 . S
C344 C349 1.418 . S
C344 O398 1.334 . S
C345 C344 1.407 . S
C345 C346 1.360 . S
C345 H406 0.929 . S
C346 C345 1.360 . S
C346 C347 1.401 . S
C346 C350 1.527 . S
C347 C346 1.401 . S
C347 C348 1.405 . S
C347 C380 1.587 . S
C348 C347 1.405 . S
C348 C349 1.332 . S
C348 C351 1.496 . S
C349 C344 1.418 . S
C349 C348 1.332 . S
C349 H407 0.929 . S
C350 C346 1.527 . S
C350 H408 0.959 . S
C350 H409 0.961 . S
C350 H410 0.961 . S
C351 C348 1.496 . S
C351 H411 0.960 . S
C351 H412 0.960 . S
C351 H413 0.961 . S
C352 C353 1.517 . S
C352 H415 0.961 . S
C352 H416 0.960 . S
C352 H417 0.959 . S
C353 C352 1.517 . S
C353 O401 1.468 . S
C353 H414 0.980 . S
C354 C355 1.349 . S
C354 C359 1.367 . S
C354 O401 1.408 . S
C355 C354 1.349 . S
C355 C356 1.407 . S
C355 H418 0.930 . S
C356 C355 1.407 . S
C356 C357 1.448 1_655 S
C356 C360 1.535 1_655 S
C357 C356 1.448 1_455 S
C357 C358 1.388 1_455 S
C357 C382 1.550 . S
C358 C357 1.388 1_655 S
C358 C359 1.364 . S
C358 C361 1.447 . S
C359 C354 1.367 . S
C359 C358 1.364 . S
C359 H419 0.931 . S
C360 C356 1.535 1_455 S
C360 H420 0.959 . S
C360 H421 0.961 . S
C360 H422 0.959 1_455 S
C361 C358 1.447 . S
C361 H423 0.976 . S
C361 H424 0.937 1_655 S
C361 H425 0.971 . S
C362 C363 1.309 . S
C362 C367 1.304 . S
C362 O400 1.435 . S
C363 C362 1.309 . S
C363 C364 1.476 . S
C363 H427 0.930 . S
C364 C363 1.476 . S
C364 C365 1.400 . S
C364 C368 1.567 . S
C365 C364 1.400 . S
C365 C366 1.373 . S
C365 C387 1.432 . S
C366 C365 1.373 . S
C366 C367 1.339 . S
C366 C369 1.530 . S
C367 C362 1.304 . S
C367 C366 1.339 . S
C367 H428 0.930 . S
C368 C364 1.567 . S
C368 H429 0.961 . S
C368 H430 0.960 . S
C368 H431 0.958 . S
C369 C366 1.530 . S
C369 H432 0.961 . S
C369 H433 0.960 . S
C369 H434 0.960 . S
C370 C371 1.530 . S
C370 H436 0.961 . S
C370 H437 0.961 . S
C370 H438 0.959 . S
C371 C370 1.530 . S
C371 O399 1.412 . S
C371 H435 0.980 . S
C372 C373 1.288 . S
C372 C377 1.377 . S
C372 O399 1.393 . S
C373 C372 1.288 . S
C373 C374 1.369 . S
C373 H439 0.932 . S
C374 C373 1.369 . S
C374 C375 1.398 . S
C374 C378 1.527 . S
C375 C374 1.398 . S
C375 C376 1.380 . S
C375 C389 1.497 . S
C376 C375 1.380 . S
C376 C377 1.383 . S
C376 C379 1.603 . S
C377 C372 1.377 . S
C377 C376 1.383 . S
C377 H440 0.929 . S
C378 C374 1.527 . S
C378 H441 0.961 . S
C378 H442 0.959 . S
C378 H443 0.959 . S
C379 C376 1.603 . S
C379 H444 0.960 . S
C379 H445 0.962 . S
C379 H446 0.961 . S
C380 C347 1.587 . S
C380 C381 1.360 . S
C380 C393 1.412 . S
C381 C380 1.360 . S
C381 C382 1.365 . S
C381 H447 0.929 . S
C382 C357 1.550 . S
C382 C381 1.365 . S
C382 C383 1.404 . S
C383 C382 1.404 . S
C383 C384 1.395 1_455 S
C383 C394 1.451 . S
C384 C383 1.395 1_655 S
C384 C385 1.322 . S
C384 H448 0.930 . S
C385 C384 1.322 . S
C385 C386 1.459 . S
C385 H449 0.929 . S
C386 C385 1.459 . S
C386 C387 1.445 . S
C386 C395 1.395 1_655 S
C387 C365 1.432 . S
C387 C386 1.445 . S
C387 C388 1.370 . S
C388 C387 1.370 . S
C388 C389 1.438 1_655 S
C388 H450 0.930 . S
C389 C375 1.497 . S
C389 C388 1.438 1_455 S
C389 C390 1.360 . S
C390 C389 1.360 . S
C390 C391 1.401 . S
C390 C395 1.446 . S
C391 C390 1.401 . S
C391 C392 1.347 . S
C391 H451 0.929 . S
C392 C391 1.347 . S
C392 C393 1.455 . S
C392 H452 0.930 . S
C393 C380 1.412 . S
C393 C392 1.455 . S
C393 C394 1.331 . S
C394 C383 1.451 . S
C394 C393 1.331 . S
C394 C395 1.497 . S
C395 C386 1.395 1_455 S
C395 C390 1.446 . S
C395 C394 1.497 . S
C396 C397 1.582 . S
C396 H453 0.962 . S
C396 H454 0.959 . S
C396 H455 0.958 . S
C397 C396 1.582 . S
C397 O400 1.458 . S
C397 H426 0.980 . S
O398 C343 1.426 . S
O398 C344 1.334 . S
O399 C371 1.412 . S
O399 C372 1.393 . S
O400 C362 1.435 . S
O400 C397 1.458 . S
O401 C353 1.468 . S
O401 C354 1.408 . S
H402 C343 0.980 . S
H403 C342 0.959 . S
H404 C342 0.959 . S
H405 C342 0.960 . S
H406 C345 0.929 . S
H407 C349 0.929 . S
H408 C350 0.959 . S
H409 C350 0.961 . S
H410 C350 0.961 . S
H411 C351 0.960 . S
H412 C351 0.960 . S
H413 C351 0.961 . S
H414 C353 0.980 . S
H415 C352 0.961 . S
H416 C352 0.960 . S
H417 C352 0.959 . S
H418 C355 0.930 . S
H419 C359 0.931 . S
H420 C360 0.959 . S
H421 C360 0.961 . S
H422 C360 0.959 1_655 S
H423 C361 0.976 . S
H424 C361 0.937 1_455 S
H425 C361 0.971 . S
H426 C397 0.980 . S
H427 C363 0.930 . S
H428 C367 0.930 . S
H429 C368 0.961 . S
H430 C368 0.960 . S
H431 C368 0.958 . S
H432 C369 0.961 . S
H433 C369 0.960 . S
H434 C369 0.960 . S
H435 C371 0.980 . S
H436 C370 0.961 . S
H437 C370 0.961 . S
H438 C370 0.959 . S
H439 C373 0.932 . S
H440 C377 0.929 . S
H441 C378 0.961 . S
H442 C378 0.959 . S
H443 C378 0.959 . S
H444 C379 0.960 . S
H445 C379 0.962 . S
H446 C379 0.961 . S
H447 C381 0.929 . S
H448 C384 0.930 . S
H449 C385 0.929 . S
H450 C388 0.930 . S
H451 C391 0.929 . S
H452 C392 0.930 . S
H453 C396 0.962 . S
H454 C396 0.959 . S
H455 C396 0.958 . S
C456 C457 1.560 . S
C456 H517 0.959 . S
C456 H518 0.959 . S
C456 H519 0.960 . S
C457 C456 1.560 . S
C457 O512 1.426 . S
C457 H516 0.980 . S
C458 C459 1.407 . S
C458 C463 1.418 . S
C458 O512 1.334 . S
C459 C458 1.407 . S
C459 C460 1.360 . S
C459 H520 0.929 . S
C460 C459 1.360 . S
C460 C461 1.401 . S
C460 C464 1.527 . S
C461 C460 1.401 . S
C461 C462 1.405 . S
C461 C494 1.587 . S
C462 C461 1.405 . S
C462 C463 1.332 . S
C462 C465 1.496 . S
C463 C458 1.418 . S
C463 C462 1.332 . S
C463 H521 0.929 . S
C464 C460 1.527 . S
C464 H522 0.959 . S
C464 H523 0.961 . S
C464 H524 0.961 . S
C465 C462 1.496 . S
C465 H525 0.960 . S
C465 H526 0.960 . S
C465 H527 0.961 . S
C466 C467 1.517 . S
C466 H529 0.961 . S
C466 H530 0.960 . S
C466 H531 0.959 . S
C467 C466 1.517 . S
C467 O515 1.468 . S
C467 H528 0.980 . S
C468 C469 1.349 . S
C468 C473 1.367 . S
C468 O515 1.408 . S
C469 C468 1.349 . S
C469 C470 1.407 . S
C469 H532 0.930 . S
C470 C469 1.407 . S
C470 C471 1.449 . S
C470 C474 1.535 . S
C471 C470 1.449 . S
C471 C472 1.384 . S
C471 C496 1.553 . S
C472 C471 1.384 . S
C472 C473 1.364 . S
C472 C475 1.450 . S
C473 C468 1.367 . S
C473 C472 1.364 . S
C473 H533 0.931 . S
C474 C470 1.535 . S
C474 H534 0.959 . S
C474 H535 0.961 . S
C474 H536 0.959 . S
C475 C472 1.450 . S
C475 H537 0.960 . S
C475 H538 0.960 . S
C475 H539 0.960 . S
C476 C477 1.309 . S
C476 C481 1.304 . S
C476 O514 1.435 . S
C477 C476 1.309 . S
C477 C478 1.476 . S
C477 H541 0.930 . S
C478 C477 1.476 . S
C478 C479 1.400 . S
C478 C482 1.567 . S
C479 C478 1.400 . S
C479 C480 1.373 . S
C479 C501 1.432 . S
C480 C479 1.373 . S
C480 C481 1.339 . S
C480 C483 1.530 . S
C481 C476 1.304 . S
C481 C480 1.339 . S
C481 H542 0.930 . S
C482 C478 1.567 . S
C482 H543 0.961 . S
C482 H544 0.960 . S
C482 H545 0.958 . S
C483 C480 1.530 . S
C483 H546 0.961 . S
C483 H547 0.960 . S
C483 H548 0.960 . S
C484 C485 1.530 . S
C484 H550 0.961 . S
C484 H551 0.961 . S
C484 H552 0.959 . S
C485 C484 1.530 . S
C485 O513 1.412 . S
C485 H549 0.980 . S
C486 C487 1.288 . S
C486 C491 1.377 . S
C486 O513 1.393 . S
C487 C486 1.288 . S
C487 C488 1.369 1_565 S
C487 H553 0.932 . S
C488 C487 1.369 1_545 S
C488 C489 1.398 . S
C488 C492 1.527 . S
C489 C488 1.398 . S
C489 C490 1.380 1_545 S
C489 C503 1.497 . S
C490 C489 1.380 1_565 S
C490 C491 1.383 . S
C490 C493 1.603 . S
C491 C486 1.377 . S
C491 C490 1.383 . S
C491 H554 0.929 . S
C492 C488 1.527 . S
C492 H555 0.961 . S
C492 H556 0.959 . S
C492 H557 0.959 . S
C493 C490 1.603 . S
C493 H558 0.960 . S
C493 H559 0.962 1_565 S
C493 H560 0.961 . S
C494 C461 1.587 . S
C494 C495 1.360 . S
C494 C507 1.412 . S
C495 C494 1.360 . S
C495 C496 1.365 1_565 S
C495 H561 0.929 . S
C496 C471 1.553 . S
C496 C495 1.365 1_545 S
C496 C497 1.404 . S
C497 C496 1.404 . S
C497 C498 1.395 . S
C497 C508 1.451 . S
C498 C497 1.395 . S
C498 C499 1.322 . S
C498 H562 0.930 . S
C499 C498 1.322 . S
C499 C500 1.486 . S
C499 H563 0.929 . S
C500 C499 1.486 . S
C500 C501 1.415 1_556 S
C500 C509 1.399 . S
C501 C479 1.432 . S
C501 C500 1.415 1_554 S
C501 C502 1.370 . S
C502 C501 1.370 . S
C502 C503 1.438 . S
C502 H564 0.930 . S
C503 C489 1.497 . S
C503 C502 1.438 . S
C503 C504 1.360 . S
C504 C503 1.360 . S
C504 C505 1.401 1_545 S
C504 C509 1.446 1_554 S
C505 C504 1.401 1_565 S
C505 C506 1.347 1_554 S
C505 H565 0.929 . S
C506 C505 1.347 1_556 S
C506 C507 1.455 . S
C506 H566 0.930 . S
C507 C494 1.412 . S
C507 C506 1.455 . S
C507 C508 1.331 1_565 S
C508 C497 1.451 . S
C508 C507 1.331 1_545 S
C508 C509 1.497 . S
C509 C500 1.399 . S
C509 C504 1.446 1_556 S
C509 C508 1.497 . S
C510 C511 1.582 . S
C510 H567 0.962 . S
C510 H568 0.959 . S
C510 H569 0.958 . S
C511 C510 1.582 . S
C511 O514 1.458 . S
C511 H540 0.980 . S
O512 C457 1.426 . S
O512 C458 1.334 . S
O513 C485 1.412 . S
O513 C486 1.393 . S
O514 C476 1.435 . S
O514 C511 1.458 . S
O515 C467 1.468 . S
O515 C468 1.408 . S
H516 C457 0.980 . S
H517 C456 0.959 . S
H518 C456 0.959 . S
H519 C456 0.960 . S
H520 C459 0.929 . S
H521 C463 0.929 . S
H522 C464 0.959 . S
H523 C464 0.961 . S
H524 C464 0.961 . S
H525 C465 0.960 . S
H526 C465 0.960 . S
H527 C465 0.961 . S
H528 C467 0.980 . S
H529 C466 0.961 . S
H530 C466 0.960 . S
H531 C466 0.959 . S
H532 C469 0.930 . S
H533 C473 0.931 . S
H534 C474 0.959 . S
H535 C474 0.961 . S
H536 C474 0.959 . S
H537 C475 0.960 . S
H538 C475 0.960 . S
H539 C475 0.960 . S
H540 C511 0.980 . S
H541 C477 0.930 . S
H542 C481 0.930 . S
H543 C482 0.961 . S
H544 C482 0.960 . S
H545 C482 0.958 . S
H546 C483 0.961 . S
H547 C483 0.960 . S
H548 C483 0.960 . S
H549 C485 0.980 . S
H550 C484 0.961 . S
H551 C484 0.961 . S
H552 C484 0.959 . S
H553 C487 0.932 . S
H554 C491 0.929 . S
H555 C492 0.961 . S
H556 C492 0.959 . S
H557 C492 0.959 . S
H558 C493 0.960 . S
H559 C493 0.962 1_545 S
H560 C493 0.961 . S
H561 C495 0.929 . S
H562 C498 0.930 . S
H563 C499 0.929 . S
H564 C502 0.930 . S
H565 C505 0.929 . S
H566 C506 0.930 . S
H567 C510 0.962 . S
H568 C510 0.959 . S
H569 C510 0.958 . S
C570 C571 1.560 . S
C570 H631 0.959 . S
C570 H632 0.959 . S
C570 H633 0.960 . S
C571 C570 1.560 . S
C571 O626 1.426 . S
C571 H630 0.980 . S
C572 C573 1.407 . S
C572 C577 1.418 . S
C572 O626 1.334 . S
C573 C572 1.407 . S
C573 C574 1.360 . S
C573 H634 0.929 . S
C574 C573 1.360 . S
C574 C575 1.401 . S
C574 C578 1.527 . S
C575 C574 1.401 . S
C575 C576 1.405 . S
C575 C608 1.587 . S
C576 C575 1.405 . S
C576 C577 1.332 . S
C576 C579 1.496 . S
C577 C572 1.418 . S
C577 C576 1.332 . S
C577 H635 0.929 . S
C578 C574 1.527 . S
C578 H636 0.959 . S
C578 H637 0.961 . S
C578 H638 0.961 . S
C579 C576 1.496 . S
C579 H639 0.960 . S
C579 H640 0.960 . S
C579 H641 0.961 . S
C580 C581 1.517 . S
C580 H643 0.961 . S
C580 H644 0.960 . S
C580 H645 0.959 . S
C581 C580 1.517 . S
C581 O629 1.468 . S
C581 H642 0.980 . S
C582 C583 1.349 . S
C582 C587 1.367 . S
C582 O629 1.408 . S
C583 C582 1.349 . S
C583 C584 1.407 . S
C583 H646 0.930 . S
C584 C583 1.407 . S
C584 C585 1.449 . S
C584 C588 1.535 . S
C585 C584 1.449 . S
C585 C586 1.384 . S
C585 C610 1.553 . S
C586 C585 1.384 . S
C586 C587 1.364 . S
C586 C589 1.450 . S
C587 C582 1.367 . S
C587 C586 1.364 . S
C587 H647 0.931 . S
C588 C584 1.535 . S
C588 H648 0.959 . S
C588 H649 0.961 . S
C588 H650 0.959 . S
C589 C586 1.450 . S
C589 H651 0.960 . S
C589 H652 0.960 . S
C589 H653 0.960 . S
C590 C591 1.309 . S
C590 C595 1.304 . S
C590 O628 1.435 . S
C591 C590 1.309 . S
C591 C592 1.476 . S
C591 H655 0.930 . S
C592 C591 1.476 . S
C592 C593 1.400 . S
C592 C596 1.567 . S
C593 C592 1.400 . S
C593 C594 1.373 . S
C593 C615 1.432 . S
C594 C593 1.373 . S
C594 C595 1.339 . S
C594 C597 1.530 . S
C595 C590 1.304 . S
C595 C594 1.339 . S
C595 H656 0.930 . S
C596 C592 1.567 . S
C596 H657 0.961 . S
C596 H658 0.960 . S
C596 H659 0.958 . S
C597 C594 1.530 . S
C597 H660 0.961 . S
C597 H661 0.960 . S
C597 H662 0.960 . S
C598 C599 1.530 . S
C598 H664 0.961 . S
C598 H665 0.961 . S
C598 H666 0.959 . S
C599 C598 1.530 . S
C599 O627 1.412 . S
C599 H663 0.980 . S
C600 C601 1.288 . S
C600 C605 1.377 . S
C600 O627 1.393 . S
C601 C600 1.288 . S
C601 C602 1.369 . S
C601 H667 0.932 . S
C602 C601 1.369 . S
C602 C603 1.398 . S
C602 C606 1.527 . S
C603 C602 1.398 . S
C603 C604 1.380 . S
C603 C617 1.497 . S
C604 C603 1.380 . S
C604 C605 1.383 . S
C604 C607 1.603 . S
C605 C600 1.377 . S
C605 C604 1.383 . S
C605 H668 0.929 . S
C606 C602 1.527 . S
C606 H669 0.961 . S
C606 H670 0.959 . S
C606 H671 0.959 . S
C607 C604 1.603 . S
C607 H672 0.960 . S
C607 H673 0.962 . S
C607 H674 0.961 . S
C608 C575 1.587 . S
C608 C609 1.360 . S
C608 C621 1.412 . S
C609 C608 1.360 . S
C609 C610 1.365 . S
C609 H675 0.929 . S
C610 C585 1.553 . S
C610 C609 1.365 . S
C610 C611 1.404 . S
C611 C610 1.404 . S
C611 C612 1.395 . S
C611 C622 1.451 . S
C612 C611 1.395 . S
C612 C613 1.322 . S
C612 H676 0.930 . S
C613 C612 1.322 . S
C613 C614 1.459 . S
C613 H677 0.929 . S
C614 C613 1.459 . S
C614 C615 1.445 . S
C614 C623 1.395 . S
C615 C593 1.432 . S
C615 C614 1.445 . S
C615 C616 1.370 . S
C616 C615 1.370 . S
C616 C617 1.438 . S
C616 H678 0.930 . S
C617 C603 1.497 . S
C617 C616 1.438 . S
C617 C618 1.360 . S
C618 C617 1.360 . S
C618 C619 1.401 . S
C618 C623 1.446 . S
C619 C618 1.401 . S
C619 C620 1.347 . S
C619 H679 0.929 . S
C620 C619 1.347 . S
C620 C621 1.455 . S
C620 H680 0.930 . S
C621 C608 1.412 . S
C621 C620 1.455 . S
C621 C622 1.331 . S
C622 C611 1.451 . S
C622 C621 1.331 . S
C622 C623 1.497 . S
C623 C614 1.395 . S
C623 C618 1.446 . S
C623 C622 1.497 . S
C624 C625 1.582 . S
C624 H681 0.962 . S
C624 H682 0.959 . S
C624 H683 0.958 . S
C625 C624 1.582 . S
C625 O628 1.458 . S
C625 H654 0.980 . S
O626 C571 1.426 . S
O626 C572 1.334 . S
O627 C599 1.412 . S
O627 C600 1.393 . S
O628 C590 1.435 . S
O628 C625 1.458 . S
O629 C581 1.468 . S
O629 C582 1.408 . S
H630 C571 0.980 . S
H631 C570 0.959 . S
H632 C570 0.959 . S
H633 C570 0.960 . S
H634 C573 0.929 . S
H635 C577 0.929 . S
H636 C578 0.959 . S
H637 C578 0.961 . S
H638 C578 0.961 . S
H639 C579 0.960 . S
H640 C579 0.960 . S
H641 C579 0.961 . S
H642 C581 0.980 . S
H643 C580 0.961 . S
H644 C580 0.960 . S
H645 C580 0.959 . S
H646 C583 0.930 . S
H647 C587 0.931 . S
H648 C588 0.959 . S
H649 C588 0.961 . S
H650 C588 0.959 . S
H651 C589 0.960 . S
H652 C589 0.960 . S
H653 C589 0.960 . S
H654 C625 0.980 . S
H655 C591 0.930 . S
H656 C595 0.930 . S
H657 C596 0.961 . S
H658 C596 0.960 . S
H659 C596 0.958 . S
H660 C597 0.961 . S
H661 C597 0.960 . S
H662 C597 0.960 . S
H663 C599 0.980 . S
H664 C598 0.961 . S
H665 C598 0.961 . S
H666 C598 0.959 . S
H667 C601 0.932 . S
H668 C605 0.929 . S
H669 C606 0.961 . S
H670 C606 0.959 . S
H671 C606 0.959 . S
H672 C607 0.960 . S
H673 C607 0.962 . S
H674 C607 0.961 . S
H675 C609 0.929 . S
H676 C612 0.930 . S
H677 C613 0.929 . S
H678 C616 0.930 . S
H679 C619 0.929 . S
H680 C620 0.930 . S
H681 C624 0.962 . S
H682 C624 0.959 . S
H683 C624 0.958 . S
Mn684 O689 2.095 . S
Mn684 O699 2.162 . S
Mn684 O700 2.297 . S
Mn684 O708 2.385 . S
Mn684 O709 2.209 . S
Mn684 O710 2.094 . S
Mn685 O690 2.121 . S
Mn685 N692 2.257 . S
Mn685 N701 2.282 . S
Mn685 O709 2.215 . S
Mn685 O711 2.117 . S
C686 O708 1.234 . S
C686 O709 1.283 . S
C687 O699 1.281 . S
C687 O700 1.236 . S
C688 O710 1.240 . S
C688 O711 1.264 . S
O689 Mn684 2.095 . S
O689 C698 1.250 . S
O690 Mn685 2.121 . S
O690 C698 1.258 . S
C691 N692 1.326 . S
C691 C695 1.460 . S
C691 H697 0.929 . S
N692 Mn685 2.257 . S
N692 C691 1.326 . S
N692 C696 1.362 . S
C693 C694 1.258 . S
C693 C696 1.431 . S
C693 C713 1.449 . S
C694 C693 1.258 . S
C694 C695 1.477 . S
C694 H714 0.931 . S
C695 C691 1.460 . S
C695 C694 1.477 . S
C695 H715 0.930 . S
C696 N692 1.362 . S
C696 C693 1.431 . S
C696 C706 1.476 . S
H697 C691 0.929 . S
C698 O689 1.250 . S
C698 O690 1.258 . S
O699 Mn684 2.162 . S
O699 C687 1.281 . S
O700 Mn684 2.297 . S
O700 C687 1.236 . S
N701 Mn685 2.282 . S
N701 C702 1.328 . S
N701 C706 1.318 . S
C702 N701 1.328 . S
C702 C703 1.457 . S
C702 H707 0.929 . S
C703 C702 1.457 . S
C703 C704 1.291 . S
C703 H716 0.931 . S
C704 C703 1.291 . S
C704 C705 1.373 . S
C704 H717 0.929 . S
C705 C704 1.373 . S
C705 C706 1.396 . S
C705 C712 1.403 . S
C706 C696 1.476 . S
C706 N701 1.318 . S
C706 C705 1.396 . S
H707 C702 0.929 . S
O708 Mn684 2.385 . S
O708 C686 1.234 . S
O709 Mn684 2.209 . S
O709 Mn685 2.215 . S
O709 C686 1.283 . S
O710 Mn684 2.094 . S
O710 C688 1.240 . S
O711 Mn685 2.117 . S
O711 C688 1.264 . S
C712 C705 1.403 . S
C712 C713 1.399 . S
C712 H718 0.929 . S
C713 C693 1.449 . S
C713 C712 1.399 . S
C713 H719 0.930 . S
H714 C694 0.931 . S
H715 C695 0.930 . S
H716 C703 0.931 . S
H717 C704 0.929 . S
H718 C712 0.929 . S
H719 C713 0.930 . S
Mn720 O725 2.095 . S
Mn720 O735 2.162 . S
Mn720 O736 2.297 . S
Mn720 O744 2.385 . S
Mn720 O745 2.209 . S
Mn720 O746 2.094 . S
Mn721 O726 2.121 . S
Mn721 N728 2.257 . S
Mn721 N737 2.282 . S
Mn721 O745 2.215 . S
Mn721 O747 2.117 . S
C722 O744 1.234 . S
C722 O745 1.283 . S
C723 O735 1.281 . S
C723 O736 1.236 . S
C724 O746 1.240 . S
C724 O747 1.264 . S
O725 Mn720 2.095 . S
O725 C734 1.250 . S
O726 Mn721 2.121 . S
O726 C734 1.258 . S
C727 N728 1.326 . S
C727 C731 1.460 . S
C727 H733 0.929 . S
N728 Mn721 2.257 . S
N728 C727 1.326 . S
N728 C732 1.362 . S
C729 C730 1.258 . S
C729 C732 1.431 . S
C729 C749 1.449 . S
C730 C729 1.258 . S
C730 C731 1.477 . S
C730 H750 0.931 . S
C731 C727 1.460 . S
C731 C730 1.477 . S
C731 H751 0.930 . S
C732 N728 1.362 . S
C732 C729 1.431 . S
C732 C742 1.476 . S
H733 C727 0.929 . S
C734 O725 1.250 . S
C734 O726 1.258 . S
O735 Mn720 2.162 . S
O735 C723 1.281 . S
O736 Mn720 2.297 . S
O736 C723 1.236 . S
N737 Mn721 2.282 . S
N737 C738 1.328 . S
N737 C742 1.318 . S
C738 N737 1.328 . S
C738 C739 1.457 . S
C738 H743 0.929 . S
C739 C738 1.457 . S
C739 C740 1.291 . S
C739 H752 0.931 . S
C740 C739 1.291 . S
C740 C741 1.373 . S
C740 H753 0.929 . S
C741 C740 1.373 . S
C741 C742 1.396 . S
C741 C748 1.403 . S
C742 C732 1.476 . S
C742 N737 1.318 . S
C742 C741 1.396 . S
H743 C738 0.929 . S
O744 Mn720 2.385 . S
O744 C722 1.234 . S
O745 Mn720 2.209 . S
O745 Mn721 2.215 . S
O745 C722 1.283 . S
O746 Mn720 2.094 . S
O746 C724 1.240 . S
O747 Mn721 2.117 . S
O747 C724 1.264 . S
C748 C741 1.403 . S
C748 C749 1.399 . S
C748 H754 0.929 . S
C749 C729 1.449 . S
C749 C748 1.399 . S
C749 H755 0.930 . S
H750 C730 0.931 . S
H751 C731 0.930 . S
H752 C739 0.931 . S
H753 C740 0.929 . S
H754 C748 0.929 . S
H755 C749 0.930 . S
Mn756 O761 2.095 . S
Mn756 O771 2.162 . S
Mn756 O772 2.297 . S
Mn756 O780 2.385 . S
Mn756 O781 2.209 . S
Mn756 O782 2.094 . S
Mn757 O762 2.121 . S
Mn757 N764 2.257 . S
Mn757 N773 2.282 . S
Mn757 O781 2.215 . S
Mn757 O783 2.117 . S
C758 O780 1.234 . S
C758 O781 1.283 . S
C759 O771 1.281 . S
C759 O772 1.236 . S
C760 O782 1.240 . S
C760 O783 1.264 . S
O761 Mn756 2.095 . S
O761 C770 1.250 . S
O762 Mn757 2.121 . S
O762 C770 1.258 . S
C763 N764 1.326 . S
C763 C767 1.460 . S
C763 H769 0.929 . S
N764 Mn757 2.257 . S
N764 C763 1.326 . S
N764 C768 1.362 . S
C765 C766 1.258 . S
C765 C768 1.431 . S
C765 C785 1.449 . S
C766 C765 1.258 . S
C766 C767 1.477 . S
C766 H786 0.931 . S
C767 C763 1.460 . S
C767 C766 1.477 . S
C767 H787 0.930 . S
C768 N764 1.362 . S
C768 C765 1.431 . S
C768 C778 1.476 . S
H769 C763 0.929 . S
C770 O761 1.250 . S
C770 O762 1.258 . S
O771 Mn756 2.162 . S
O771 C759 1.281 . S
O772 Mn756 2.297 . S
O772 C759 1.236 . S
N773 Mn757 2.282 . S
N773 C774 1.328 . S
N773 C778 1.318 . S
C774 N773 1.328 . S
C774 C775 1.457 . S
C774 H779 0.929 . S
C775 C774 1.457 . S
C775 C776 1.291 . S
C775 H788 0.931 . S
C776 C775 1.291 . S
C776 C777 1.373 . S
C776 H789 0.929 . S
C777 C776 1.373 . S
C777 C778 1.396 . S
C777 C784 1.403 . S
C778 C768 1.476 . S
C778 N773 1.318 . S
C778 C777 1.396 . S
H779 C774 0.929 . S
O780 Mn756 2.385 . S
O780 C758 1.234 . S
O781 Mn756 2.209 . S
O781 Mn757 2.215 . S
O781 C758 1.283 . S
O782 Mn756 2.094 . S
O782 C760 1.240 . S
O783 Mn757 2.117 . S
O783 C760 1.264 . S
C784 C777 1.403 . S
C784 C785 1.399 . S
C784 H790 0.929 . S
C785 C765 1.449 . S
C785 C784 1.399 . S
C785 H791 0.930 . S
H786 C766 0.931 . S
H787 C767 0.930 . S
H788 C775 0.931 . S
H789 C776 0.929 . S
H790 C784 0.929 . S
H791 C785 0.930 . S
Mn792 O797 2.095 . S
Mn792 O807 2.162 . S
Mn792 O808 2.297 . S
Mn792 O816 2.385 . S
Mn792 O817 2.209 . S
Mn792 O818 2.094 . S
Mn793 O798 2.121 . S
Mn793 N800 2.257 . S
Mn793 N809 2.282 . S
Mn793 O817 2.215 . S
Mn793 O819 2.117 . S
C794 O816 1.234 . S
C794 O817 1.283 . S
C795 O807 1.281 . S
C795 O808 1.236 . S
C796 O818 1.240 . S
C796 O819 1.264 . S
O797 Mn792 2.095 . S
O797 C806 1.250 . S
O798 Mn793 2.121 . S
O798 C806 1.258 . S
C799 N800 1.326 . S
C799 C803 1.460 . S
C799 H805 0.929 . S
N800 Mn793 2.257 . S
N800 C799 1.326 . S
N800 C804 1.362 . S
C801 C802 1.258 . S
C801 C804 1.431 . S
C801 C821 1.449 . S
C802 C801 1.258 . S
C802 C803 1.477 . S
C802 H822 0.931 . S
C803 C799 1.460 . S
C803 C802 1.477 . S
C803 H823 0.930 . S
C804 N800 1.362 . S
C804 C801 1.431 . S
C804 C814 1.476 . S
H805 C799 0.929 . S
C806 O797 1.250 . S
C806 O798 1.258 . S
O807 Mn792 2.162 . S
O807 C795 1.281 . S
O808 Mn792 2.297 . S
O808 C795 1.236 . S
N809 Mn793 2.282 . S
N809 C810 1.328 . S
N809 C814 1.318 . S
C810 N809 1.328 . S
C810 C811 1.457 . S
C810 H815 0.929 . S
C811 C810 1.457 . S
C811 C812 1.291 . S
C811 H824 0.931 . S
C812 C811 1.291 . S
C812 C813 1.373 . S
C812 H825 0.929 . S
C813 C812 1.373 . S
C813 C814 1.396 . S
C813 C820 1.403 . S
C814 C804 1.476 . S
C814 N809 1.318 . S
C814 C813 1.396 . S
H815 C810 0.929 . S
O816 Mn792 2.385 . S
O816 C794 1.234 . S
O817 Mn792 2.209 . S
O817 Mn793 2.215 . S
O817 C794 1.283 . S
O818 Mn792 2.094 . S
O818 C796 1.240 . S
O819 Mn793 2.117 . S
O819 C796 1.264 . S
C820 C813 1.403 . S
C820 C821 1.399 . S
C820 H826 0.929 . S
C821 C801 1.449 . S
C821 C820 1.399 . S
C821 H827 0.930 . S
H822 C802 0.931 . S
H823 C803 0.930 . S
H824 C811 0.931 . S
H825 C812 0.929 . S
H826 C820 0.929 . S
H827 C821 0.930 . S
Mn828 O833 2.095 . S
Mn828 O843 2.162 . S
Mn828 O844 2.297 . S
Mn828 O852 2.385 . S
Mn828 O853 2.209 . S
Mn828 O854 2.094 . S
Mn829 O834 2.121 . S
Mn829 N836 2.257 . S
Mn829 N845 2.282 . S
Mn829 O853 2.215 . S
Mn829 O855 2.117 . S
C830 O852 1.234 . S
C830 O853 1.283 . S
C831 O843 1.281 . S
C831 O844 1.236 . S
C832 O854 1.240 . S
C832 O855 1.264 . S
O833 Mn828 2.095 . S
O833 C842 1.250 . S
O834 Mn829 2.121 . S
O834 C842 1.258 . S
C835 N836 1.326 . S
C835 C839 1.460 . S
C835 H841 0.929 . S
N836 Mn829 2.257 . S
N836 C835 1.326 . S
N836 C840 1.362 . S
C837 C838 1.258 . S
C837 C840 1.431 . S
C837 C857 1.449 . S
C838 C837 1.258 . S
C838 C839 1.477 . S
C838 H858 0.931 . S
C839 C835 1.460 . S
C839 C838 1.477 . S
C839 H859 0.930 . S
C840 N836 1.362 . S
C840 C837 1.431 . S
C840 C850 1.476 . S
H841 C835 0.929 . S
C842 O833 1.250 . S
C842 O834 1.258 . S
O843 Mn828 2.162 . S
O843 C831 1.281 . S
O844 Mn828 2.297 . S
O844 C831 1.236 . S
N845 Mn829 2.282 . S
N845 C846 1.328 . S
N845 C850 1.318 . S
C846 N845 1.328 . S
C846 C847 1.457 . S
C846 H851 0.929 . S
C847 C846 1.457 . S
C847 C848 1.291 . S
C847 H860 0.931 . S
C848 C847 1.291 . S
C848 C849 1.373 . S
C848 H861 0.929 . S
C849 C848 1.373 . S
C849 C850 1.396 . S
C849 C856 1.403 . S
C850 C840 1.476 . S
C850 N845 1.318 . S
C850 C849 1.396 . S
H851 C846 0.929 . S
O852 Mn828 2.385 . S
O852 C830 1.234 . S
O853 Mn828 2.209 . S
O853 Mn829 2.215 . S
O853 C830 1.283 . S
O854 Mn828 2.094 . S
O854 C832 1.240 . S
O855 Mn829 2.117 . S
O855 C832 1.264 . S
C856 C849 1.403 . S
C856 C857 1.399 . S
C856 H862 0.929 . S
C857 C837 1.449 . S
C857 C856 1.399 . S
C857 H863 0.930 . S
H858 C838 0.931 . S
H859 C839 0.930 . S
H860 C847 0.931 . S
H861 C848 0.929 . S
H862 C856 0.929 . S
H863 C857 0.930 . S
Mn864 O869 2.095 . S
Mn864 O879 2.162 . S
Mn864 O880 2.297 . S
Mn864 O888 2.385 . S
Mn864 O889 2.209 . S
Mn864 O890 2.094 . S
Mn865 O870 2.121 . S
Mn865 N872 2.257 . S
Mn865 N881 2.282 . S
Mn865 O889 2.215 . S
Mn865 O891 2.117 . S
C866 O888 1.234 . S
C866 O889 1.283 . S
C867 O879 1.281 . S
C867 O880 1.236 . S
C868 O890 1.240 . S
C868 O891 1.264 . S
O869 Mn864 2.095 . S
O869 C878 1.250 . S
O870 Mn865 2.121 . S
O870 C878 1.258 . S
C871 N872 1.326 . S
C871 C875 1.460 . S
C871 H877 0.929 . S
N872 Mn865 2.257 . S
N872 C871 1.326 . S
N872 C876 1.362 . S
C873 C874 1.258 . S
C873 C876 1.431 . S
C873 C893 1.449 . S
C874 C873 1.258 . S
C874 C875 1.477 . S
C874 H894 0.931 . S
C875 C871 1.460 . S
C875 C874 1.477 . S
C875 H895 0.930 . S
C876 N872 1.362 . S
C876 C873 1.431 . S
C876 C886 1.476 . S
H877 C871 0.929 . S
C878 O869 1.250 . S
C878 O870 1.258 . S
O879 Mn864 2.162 . S
O879 C867 1.281 . S
O880 Mn864 2.297 . S
O880 C867 1.236 . S
N881 Mn865 2.282 . S
N881 C882 1.328 . S
N881 C886 1.318 . S
C882 N881 1.328 . S
C882 C883 1.457 . S
C882 H887 0.929 . S
C883 C882 1.457 . S
C883 C884 1.291 . S
C883 H896 0.931 . S
C884 C883 1.291 . S
C884 C885 1.373 . S
C884 H897 0.929 . S
C885 C884 1.373 . S
C885 C886 1.396 . S
C885 C892 1.403 . S
C886 C876 1.476 . S
C886 N881 1.318 . S
C886 C885 1.396 . S
H887 C882 0.929 . S
O888 Mn864 2.385 . S
O888 C866 1.234 . S
O889 Mn864 2.209 . S
O889 Mn865 2.215 . S
O889 C866 1.283 . S
O890 Mn864 2.094 . S
O890 C868 1.240 . S
O891 Mn865 2.117 . S
O891 C868 1.264 . S
C892 C885 1.403 . S
C892 C893 1.399 . S
C892 H898 0.929 . S
C893 C873 1.449 . S
C893 C892 1.399 . S
C893 H899 0.930 . S
H894 C874 0.931 . S
H895 C875 0.930 . S
H896 C883 0.931 . S
H897 C884 0.929 . S
H898 C892 0.929 . S
H899 C893 0.930 . S
H900 C908 0.950 . S
H901 C913 0.950 . S
H902 C910 0.950 . S
H903 C912 0.950 . S
H904 C914 0.950 . S
H905 C916 0.950 . S
H906 C918 0.950 . S
H907 C919 0.950 . S
C908 H900 0.950 . S
C908 C909 1.386 . S
C908 C910 1.391 . S
C909 C908 1.386 . S
C909 C913 1.393 . S
C910 H902 0.950 . S
C910 C908 1.391 . S
C910 C911 1.400 . S
C911 C910 1.400 . S
C911 C912 1.398 . S
C911 C917 1.491 . S
C912 H903 0.950 . S
C912 C911 1.398 . S
C912 C913 1.391 . S
C913 H901 0.950 . S
C913 C909 1.393 . S
C913 C912 1.391 . S
C914 H904 0.950 . S
C914 C915 1.386 . S
C914 C916 1.391 . S
C915 C914 1.386 . S
C915 C919 1.393 . S
C916 H905 0.950 . S
C916 C914 1.391 . S
C916 C917 1.400 . S
C917 C911 1.491 . S
C917 C916 1.400 . S
C917 C918 1.398 . S
C918 H906 0.950 . S
C918 C917 1.398 . S
C918 C919 1.391 . S
C919 H907 0.950 . S
C919 C915 1.393 . S
C919 C918 1.391 . S
H920 C928 0.950 . S
H921 C933 0.950 . S
H922 C930 0.950 . S
H923 C932 0.950 . S
H924 C934 0.950 . S
H925 C936 0.950 . S
H926 C938 0.950 . S
H927 C939 0.950 . S
C928 H920 0.950 . S
C928 C929 1.386 . S
C928 C930 1.391 . S
C929 C928 1.386 . S
C929 C933 1.393 . S
C930 H922 0.950 . S
C930 C928 1.391 . S
C930 C931 1.400 . S
C931 C930 1.400 . S
C931 C932 1.398 . S
C931 C937 1.491 . S
C932 H923 0.950 . S
C932 C931 1.398 . S
C932 C933 1.391 . S
C933 H921 0.950 . S
C933 C929 1.393 . S
C933 C932 1.391 . S
C934 H924 0.950 . S
C934 C935 1.386 . S
C934 C936 1.391 . S
C935 C934 1.386 . S
C935 C939 1.393 . S
C936 H925 0.950 . S
C936 C934 1.391 . S
C936 C937 1.400 . S
C937 C931 1.491 . S
C937 C936 1.400 . S
C937 C938 1.398 . S
C938 H926 0.950 . S
C938 C937 1.398 . S
C938 C939 1.391 . S
C939 H927 0.950 . S
C939 C935 1.393 . S
C939 C938 1.391 . S
H940 C948 0.950 . S
H941 C953 0.950 . S
H942 C950 0.950 . S
H943 C952 0.950 . S
H944 C954 0.950 . S
H945 C956 0.950 . S
H946 C958 0.950 . S
H947 C959 0.950 . S
C948 H940 0.950 . S
C948 C949 1.386 . S
C948 C950 1.391 . S
C949 C948 1.386 . S
C949 C953 1.393 . S
C950 H942 0.950 . S
C950 C948 1.391 . S
C950 C951 1.400 . S
C951 C950 1.400 . S
C951 C952 1.398 . S
C951 C957 1.491 . S
C952 H943 0.950 . S
C952 C951 1.398 . S
C952 C953 1.391 . S
C953 H941 0.950 . S
C953 C949 1.393 . S
C953 C952 1.391 . S
C954 H944 0.950 . S
C954 C955 1.386 . S
C954 C956 1.391 . S
C955 C954 1.386 . S
C955 C959 1.393 . S
C956 H945 0.950 . S
C956 C954 1.391 . S
C956 C957 1.400 . S
C957 C951 1.491 . S
C957 C956 1.400 . S
C957 C958 1.398 . S
C958 H946 0.950 . S
C958 C957 1.398 . S
C958 C959 1.391 . S
C959 H947 0.950 . S
C959 C955 1.393 . S
C959 C958 1.391 . S
H960 C968 0.950 . S
H961 C973 0.950 . S
H962 C970 0.950 . S
H963 C972 0.950 . S
H964 C974 0.950 . S
H965 C976 0.950 . S
H966 C978 0.950 . S
H967 C979 0.950 . S
C968 H960 0.950 . S
C968 C969 1.386 . S
C968 C970 1.391 . S
C969 C968 1.386 . S
C969 C973 1.393 . S
C970 H962 0.950 . S
C970 C968 1.391 . S
C970 C971 1.400 . S
C971 C970 1.400 . S
C971 C972 1.398 . S
C971 C977 1.491 . S
C972 H963 0.950 . S
C972 C971 1.398 . S
C972 C973 1.391 . S
C973 H961 0.950 . S
C973 C969 1.393 . S
C973 C972 1.391 . S
C974 H964 0.950 . S
C974 C975 1.386 . S
C974 C976 1.391 . S
C975 C974 1.386 . S
C975 C979 1.393 . S
C976 H965 0.950 . S
C976 C974 1.391 . S
C976 C977 1.400 . S
C977 C971 1.491 . S
C977 C976 1.400 . S
C977 C978 1.398 . S
C978 H966 0.950 . S
C978 C977 1.398 . S
C978 C979 1.391 . S
C979 H967 0.950 . S
C979 C975 1.393 . S
C979 C978 1.391 . S
H980 C988 0.950 . S
H981 C993 0.950 . S
H982 C990 0.950 . S
H983 C992 0.950 . S
H984 C994 0.950 . S
H985 C996 0.950 . S
H986 C998 0.950 . S
H987 C999 0.950 . S
C988 H980 0.950 . S
C988 C989 1.386 . S
C988 C990 1.391 . S
C989 C988 1.386 . S
C989 C993 1.393 . S
C990 H982 0.950 . S
C990 C988 1.391 . S
C990 C991 1.400 . S
C991 C990 1.400 . S
C991 C992 1.398 . S
C991 C997 1.491 . S
C992 H983 0.950 . S
C992 C991 1.398 . S
C992 C993 1.391 . S
C993 H981 0.950 . S
C993 C989 1.393 . S
C993 C992 1.391 . S
C994 H984 0.950 . S
C994 C995 1.386 . S
C994 C996 1.391 . S
C995 C994 1.386 . S
C995 C999 1.393 . S
C996 H985 0.950 . S
C996 C994 1.391 . S
C996 C997 1.400 . S
C997 C991 1.491 . S
C997 C996 1.400 . S
C997 C998 1.398 . S
C998 H986 0.950 . S
C998 C997 1.398 . S
C998 C999 1.391 . S
C999 H987 0.950 . S
C999 C995 1.393 . S
C999 C998 1.391 . S
H1000 C1008 0.950 . S
H1001 C1013 0.950 . S
H1002 C1010 0.950 . S
H1003 C1012 0.950 . S
H1004 C1014 0.950 . S
H1005 C1016 0.950 . S
H1006 C1018 0.950 . S
H1007 C1019 0.950 . S
C1008 H1000 0.950 . S
C1008 C1009 1.386 . S
C1008 C1010 1.391 . S
C1009 C1008 1.386 . S
C1009 C1013 1.393 . S
C1010 H1002 0.950 . S
C1010 C1008 1.391 . S
C1010 C1011 1.400 . S
C1011 C1010 1.400 . S
C1011 C1012 1.398 . S
C1011 C1017 1.491 . S
C1012 H1003 0.950 . S
C1012 C1011 1.398 . S
C1012 C1013 1.391 . S
C1013 H1001 0.950 . S
C1013 C1009 1.393 . S
C1013 C1012 1.391 . S
C1014 H1004 0.950 . S
C1014 C1015 1.386 . S
C1014 C1016 1.391 . S
C1015 C1014 1.386 . S
C1015 C1019 1.393 . S
C1016 H1005 0.950 . S
C1016 C1014 1.391 . S
C1016 C1017 1.400 . S
C1017 C1011 1.491 . S
C1017 C1016 1.400 . S
C1017 C1018 1.398 . S
C1018 H1006 0.950 . S
C1018 C1017 1.398 . S
C1018 C1019 1.391 . S
C1019 H1007 0.950 . S
C1019 C1015 1.393 . S
C1019 C1018 1.391 . S
H1020 C1028 0.950 . S
H1021 C1033 0.950 . S
H1022 C1030 0.950 . S
H1023 C1032 0.950 . S
H1024 C1034 0.950 . S
H1025 C1036 0.950 . S
H1026 C1038 0.950 . S
H1027 C1039 0.950 . S
C1028 H1020 0.950 . S
C1028 C1029 1.386 . S
C1028 C1030 1.391 . S
C1029 C1028 1.386 . S
C1029 C1033 1.393 . S
C1030 H1022 0.950 . S
C1030 C1028 1.391 . S
C1030 C1031 1.400 . S
C1031 C1030 1.400 . S
C1031 C1032 1.398 . S
C1031 C1037 1.491 . S
C1032 H1023 0.950 . S
C1032 C1031 1.398 . S
C1032 C1033 1.391 . S
C1033 H1021 0.950 . S
C1033 C1029 1.393 . S
C1033 C1032 1.391 . S
C1034 H1024 0.950 . S
C1034 C1035 1.386 . S
C1034 C1036 1.391 . S
C1035 C1034 1.386 . S
C1035 C1039 1.393 . S
C1036 H1025 0.950 . S
C1036 C1034 1.391 . S
C1036 C1037 1.400 . S
C1037 C1031 1.491 . S
C1037 C1036 1.400 . S
C1037 C1038 1.398 . S
C1038 H1026 0.950 . S
C1038 C1037 1.398 . S
C1038 C1039 1.391 . S
C1039 H1027 0.950 . S
C1039 C1035 1.393 . S
C1039 C1038 1.391 . S
H1040 C1048 0.950 . S
H1041 C1053 0.950 . S
H1042 C1050 0.950 . S
H1043 C1052 0.950 . S
H1044 C1054 0.950 . S
H1045 C1056 0.950 . S
H1046 C1058 0.950 . S
H1047 C1059 0.950 . S
C1048 H1040 0.950 . S
C1048 C1049 1.386 . S
C1048 C1050 1.391 . S
C1049 C1048 1.386 . S
C1049 C1053 1.393 . S
C1050 H1042 0.950 . S
C1050 C1048 1.391 . S
C1050 C1051 1.400 . S
C1051 C1050 1.400 . S
C1051 C1052 1.398 . S
C1051 C1057 1.491 . S
C1052 H1043 0.950 . S
C1052 C1051 1.398 . S
C1052 C1053 1.391 . S
C1053 H1041 0.950 . S
C1053 C1049 1.393 . S
C1053 C1052 1.391 . S
C1054 H1044 0.950 . S
C1054 C1055 1.386 . S
C1054 C1056 1.391 . S
C1055 C1054 1.386 . S
C1055 C1059 1.393 . S
C1056 H1045 0.950 . S
C1056 C1054 1.391 . S
C1056 C1057 1.400 . S
C1057 C1051 1.491 . S
C1057 C1056 1.400 . S
C1057 C1058 1.398 . S
C1058 H1046 0.950 . S
C1058 C1057 1.398 . S
C1058 C1059 1.391 . S
C1059 H1047 0.950 . S
C1059 C1055 1.393 . S
C1059 C1058 1.391 . S
H1060 C1068 0.950 . S
H1061 C1073 0.950 . S
H1062 C1070 0.950 . S
H1063 C1072 0.950 . S
H1064 C1074 0.950 . S
H1065 C1076 0.950 . S
H1066 C1078 0.950 . S
H1067 C1079 0.950 . S
C1068 H1060 0.950 . S
C1068 C1069 1.386 . S
C1068 C1070 1.391 . S
C1069 C1068 1.386 . S
C1069 C1073 1.393 . S
C1070 H1062 0.950 . S
C1070 C1068 1.391 . S
C1070 C1071 1.400 . S
C1071 C1070 1.400 . S
C1071 C1072 1.398 . S
C1071 C1077 1.491 . S
C1072 H1063 0.950 . S
C1072 C1071 1.398 . S
C1072 C1073 1.391 . S
C1073 H1061 0.950 . S
C1073 C1069 1.393 . S
C1073 C1072 1.391 . S
C1074 H1064 0.950 . S
C1074 C1075 1.386 . S
C1074 C1076 1.391 . S
C1075 C1074 1.386 . S
C1075 C1079 1.393 . S
C1076 H1065 0.950 . S
C1076 C1074 1.391 . S
C1076 C1077 1.400 . S
C1077 C1071 1.491 . S
C1077 C1076 1.400 . S
C1077 C1078 1.398 . S
C1078 H1066 0.950 . S
C1078 C1077 1.398 . S
C1078 C1079 1.391 . S
C1079 H1067 0.950 . S
C1079 C1075 1.393 . S
C1079 C1078 1.391 . S
H1080 C1088 0.950 . S
H1081 C1093 0.950 . S
H1082 C1090 0.950 . S
H1083 C1092 0.950 . S
H1084 C1094 0.950 . S
H1085 C1096 0.950 . S
H1086 C1098 0.950 . S
H1087 C1099 0.950 . S
C1088 H1080 0.950 . S
C1088 C1089 1.386 . S
C1088 C1090 1.391 . S
C1089 C1088 1.386 . S
C1089 C1093 1.393 . S
C1090 H1082 0.950 . S
C1090 C1088 1.391 . S
C1090 C1091 1.400 . S
C1091 C1090 1.400 . S
C1091 C1092 1.398 . S
C1091 C1097 1.491 . S
C1092 H1083 0.950 . S
C1092 C1091 1.398 . S
C1092 C1093 1.391 . S
C1093 H1081 0.950 . S
C1093 C1089 1.393 . S
C1093 C1092 1.391 . S
C1094 H1084 0.950 . S
C1094 C1095 1.386 . S
C1094 C1096 1.391 . S
C1095 C1094 1.386 . S
C1095 C1099 1.393 . S
C1096 H1085 0.950 . S
C1096 C1094 1.391 . S
C1096 C1097 1.400 . S
C1097 C1091 1.491 . S
C1097 C1096 1.400 . S
C1097 C1098 1.398 . S
C1098 H1086 0.950 . S
C1098 C1097 1.398 . S
C1098 C1099 1.391 . S
C1099 H1087 0.950 . S
C1099 C1095 1.393 . S
C1099 C1098 1.391 . S
H1100 C1108 0.950 . S
H1101 C1113 0.950 . S
H1102 C1110 0.950 . S
H1103 C1112 0.950 . S
H1104 C1114 0.950 . S
H1105 C1116 0.950 . S
H1106 C1118 0.950 . S
H1107 C1119 0.950 . S
C1108 H1100 0.950 . S
C1108 C1109 1.386 . S
C1108 C1110 1.391 . S
C1109 C1108 1.386 . S
C1109 C1113 1.393 . S
C1110 H1102 0.950 . S
C1110 C1108 1.391 . S
C1110 C1111 1.400 . S
C1111 C1110 1.400 . S
C1111 C1112 1.398 . S
C1111 C1117 1.491 . S
C1112 H1103 0.950 . S
C1112 C1111 1.398 . S
C1112 C1113 1.391 . S
C1113 H1101 0.950 . S
C1113 C1109 1.393 . S
C1113 C1112 1.391 . S
C1114 H1104 0.950 . S
C1114 C1115 1.386 . S
C1114 C1116 1.391 . S
C1115 C1114 1.386 . S
C1115 C1119 1.393 . S
C1116 H1105 0.950 . S
C1116 C1114 1.391 . S
C1116 C1117 1.400 . S
C1117 C1111 1.491 . S
C1117 C1116 1.400 . S
C1117 C1118 1.398 . S
C1118 H1106 0.950 . S
C1118 C1117 1.398 . S
C1118 C1119 1.391 . S
C1119 H1107 0.950 . S
C1119 C1115 1.393 . S
C1119 C1118 1.391 . S
H1120 C1128 0.950 . S
H1121 C1133 0.950 . S
H1122 C1130 0.950 . S
H1123 C1132 0.950 . S
H1124 C1134 0.950 . S
H1125 C1136 0.950 . S
H1126 C1138 0.950 . S
H1127 C1139 0.950 . S
C1128 H1120 0.950 . S
C1128 C1129 1.386 . S
C1128 C1130 1.391 . S
C1129 C1128 1.386 . S
C1129 C1133 1.393 . S
C1130 H1122 0.950 . S
C1130 C1128 1.391 . S
C1130 C1131 1.400 . S
C1131 C1130 1.400 . S
C1131 C1132 1.398 . S
C1131 C1137 1.491 . S
C1132 H1123 0.950 . S
C1132 C1131 1.398 . S
C1132 C1133 1.391 . S
C1133 H1121 0.950 . S
C1133 C1129 1.393 . S
C1133 C1132 1.391 . S
C1134 H1124 0.950 . S
C1134 C1135 1.386 . S
C1134 C1136 1.391 . S
C1135 C1134 1.386 . S
C1135 C1139 1.393 . S
C1136 H1125 0.950 . S
C1136 C1134 1.391 . S
C1136 C1137 1.400 . S
C1137 C1131 1.491 . S
C1137 C1136 1.400 . S
C1137 C1138 1.398 . S
C1138 H1126 0.950 . S
C1138 C1137 1.398 . S
C1138 C1139 1.391 . S
C1139 H1127 0.950 . S
C1139 C1135 1.393 . S
C1139 C1138 1.391 . S
H1140 C1148 0.950 . S
H1141 C1153 0.950 . S
H1142 C1150 0.950 . S
H1143 C1152 0.950 . S
H1144 C1154 0.950 . S
H1145 C1156 0.950 . S
H1146 C1158 0.950 . S
H1147 C1159 0.950 . S
C1148 H1140 0.950 . S
C1148 C1149 1.386 . S
C1148 C1150 1.391 . S
C1149 C1148 1.386 . S
C1149 C1153 1.393 . S
C1150 H1142 0.950 . S
C1150 C1148 1.391 . S
C1150 C1151 1.400 . S
C1151 C1150 1.400 . S
C1151 C1152 1.398 . S
C1151 C1157 1.491 . S
C1152 H1143 0.950 . S
C1152 C1151 1.398 . S
C1152 C1153 1.391 . S
C1153 H1141 0.950 . S
C1153 C1149 1.393 . S
C1153 C1152 1.391 . S
C1154 H1144 0.950 . S
C1154 C1155 1.386 . S
C1154 C1156 1.391 . S
C1155 C1154 1.386 . S
C1155 C1159 1.393 . S
C1156 H1145 0.950 . S
C1156 C1154 1.391 . S
C1156 C1157 1.400 . S
C1157 C1151 1.491 . S
C1157 C1156 1.400 . S
C1157 C1158 1.398 . S
C1158 H1146 0.950 . S
C1158 C1157 1.398 . S
C1158 C1159 1.391 . S
C1159 H1147 0.950 . S
C1159 C1155 1.393 . S
C1159 C1158 1.391 . S
H1160 C1168 0.950 . S
H1161 C1173 0.950 . S
H1162 C1170 0.950 . S
H1163 C1172 0.950 . S
H1164 C1174 0.950 . S
H1165 C1176 0.950 . S
H1166 C1178 0.950 . S
H1167 C1179 0.950 . S
C1168 H1160 0.950 . S
C1168 C1169 1.386 . S
C1168 C1170 1.391 . S
C1169 C1168 1.386 . S
C1169 C1173 1.393 . S
C1170 H1162 0.950 . S
C1170 C1168 1.391 . S
C1170 C1171 1.400 . S
C1171 C1170 1.400 . S
C1171 C1172 1.398 . S
C1171 C1177 1.491 . S
C1172 H1163 0.950 . S
C1172 C1171 1.398 . S
C1172 C1173 1.391 . S
C1173 H1161 0.950 . S
C1173 C1169 1.393 . S
C1173 C1172 1.391 . S
C1174 H1164 0.950 . S
C1174 C1175 1.386 . S
C1174 C1176 1.391 . S
C1175 C1174 1.386 . S
C1175 C1179 1.393 . S
C1176 H1165 0.950 . S
C1176 C1174 1.391 . S
C1176 C1177 1.400 . S
C1177 C1171 1.491 . S
C1177 C1176 1.400 . S
C1177 C1178 1.398 . S
C1178 H1166 0.950 . S
C1178 C1177 1.398 . S
C1178 C1179 1.391 . S
C1179 H1167 0.950 . S
C1179 C1175 1.393 . S
C1179 C1178 1.391 . S
H1180 C1188 0.950 . S
H1181 C1193 0.950 . S
H1182 C1190 0.950 . S
H1183 C1192 0.950 . S
H1184 C1194 0.950 . S
H1185 C1196 0.950 . S
H1186 C1198 0.950 . S
H1187 C1199 0.950 . S
C1188 H1180 0.950 . S
C1188 C1189 1.386 . S
C1188 C1190 1.391 . S
C1189 C1188 1.386 . S
C1189 C1193 1.393 . S
C1190 H1182 0.950 . S
C1190 C1188 1.391 . S
C1190 C1191 1.400 . S
C1191 C1190 1.400 . S
C1191 C1192 1.398 . S
C1191 C1197 1.491 . S
C1192 H1183 0.950 . S
C1192 C1191 1.398 . S
C1192 C1193 1.391 . S
C1193 H1181 0.950 . S
C1193 C1189 1.393 . S
C1193 C1192 1.391 . S
C1194 H1184 0.950 . S
C1194 C1195 1.386 . S
C1194 C1196 1.391 . S
C1195 C1194 1.386 . S
C1195 C1199 1.393 . S
C1196 H1185 0.950 . S
C1196 C1194 1.391 . S
C1196 C1197 1.400 . S
C1197 C1191 1.491 . S
C1197 C1196 1.400 . S
C1197 C1198 1.398 . S
C1198 H1186 0.950 . S
C1198 C1197 1.398 . S
C1198 C1199 1.391 . S
C1199 H1187 0.950 . S
C1199 C1195 1.393 . S
C1199 C1198 1.391 . S
H1200 C1208 0.950 . S
H1201 C1213 0.950 . S
H1202 C1210 0.950 . S
H1203 C1212 0.950 . S
H1204 C1214 0.950 . S
H1205 C1216 0.950 . S
H1206 C1218 0.950 . S
H1207 C1219 0.950 . S
C1208 H1200 0.950 . S
C1208 C1209 1.386 . S
C1208 C1210 1.391 . S
C1209 C1208 1.386 . S
C1209 C1213 1.393 . S
C1210 H1202 0.950 . S
C1210 C1208 1.391 . S
C1210 C1211 1.400 . S
C1211 C1210 1.400 . S
C1211 C1212 1.398 . S
C1211 C1217 1.491 . S
C1212 H1203 0.950 . S
C1212 C1211 1.398 . S
C1212 C1213 1.391 . S
C1213 H1201 0.950 . S
C1213 C1209 1.393 . S
C1213 C1212 1.391 . S
C1214 H1204 0.950 . S
C1214 C1215 1.386 . S
C1214 C1216 1.391 . S
C1215 C1214 1.386 . S
C1215 C1219 1.393 . S
C1216 H1205 0.950 . S
C1216 C1214 1.391 . S
C1216 C1217 1.400 1_554 S
C1217 C1211 1.491 . S
C1217 C1216 1.400 1_556 S
C1217 C1218 1.398 . S
C1218 H1206 0.950 . S
C1218 C1217 1.398 . S
C1218 C1219 1.391 1_556 S
C1219 H1207 0.950 . S
C1219 C1215 1.393 . S
C1219 C1218 1.391 1_554 S
H1220 C1228 0.950 . S
H1221 C1233 0.950 . S
H1222 C1230 0.950 . S
H1223 C1232 0.950 . S
H1224 C1234 0.950 . S
H1225 C1236 0.950 . S
H1226 C1238 0.950 . S
H1227 C1239 0.950 . S
C1228 H1220 0.950 . S
C1228 C1229 1.386 . S
C1228 C1230 1.391 . S
C1229 C1228 1.386 . S
C1229 C1233 1.393 . S
C1230 H1222 0.950 . S
C1230 C1228 1.391 . S
C1230 C1231 1.400 . S
C1231 C1230 1.400 . S
C1231 C1232 1.398 . S
C1231 C1237 1.491 . S
C1232 H1223 0.950 . S
C1232 C1231 1.398 . S
C1232 C1233 1.391 . S
C1233 H1221 0.950 . S
C1233 C1229 1.393 . S
C1233 C1232 1.391 . S
C1234 H1224 0.950 . S
C1234 C1235 1.386 . S
C1234 C1236 1.391 . S
C1235 C1234 1.386 . S
C1235 C1239 1.393 . S
C1236 H1225 0.950 . S
C1236 C1234 1.391 . S
C1236 C1237 1.400 . S
C1237 C1231 1.491 . S
C1237 C1236 1.400 . S
C1237 C1238 1.398 . S
C1238 H1226 0.950 . S
C1238 C1237 1.398 . S
C1238 C1239 1.391 . S
C1239 H1227 0.950 . S
C1239 C1235 1.393 . S
C1239 C1238 1.391 . S
H1240 C1248 0.950 . S
H1241 C1253 0.950 . S
H1242 C1250 0.950 . S
H1243 C1252 0.950 . S
H1244 C1254 0.950 . S
H1245 C1256 0.950 . S
H1246 C1258 0.950 . S
H1247 C1259 0.950 . S
C1248 H1240 0.950 . S
C1248 C1249 1.386 . S
C1248 C1250 1.391 . S
C1249 C1248 1.386 . S
C1249 C1253 1.393 . S
C1250 H1242 0.950 . S
C1250 C1248 1.391 . S
C1250 C1251 1.400 . S
C1251 C1250 1.400 . S
C1251 C1252 1.398 . S
C1251 C1257 1.491 . S
C1252 H1243 0.950 . S
C1252 C1251 1.398 . S
C1252 C1253 1.391 . S
C1253 H1241 0.950 . S
C1253 C1249 1.393 . S
C1253 C1252 1.391 . S
C1254 H1244 0.950 . S
C1254 C1255 1.386 . S
C1254 C1256 1.391 . S
C1255 C1254 1.386 . S
C1255 C1259 1.393 . S
C1256 H1245 0.950 . S
C1256 C1254 1.391 . S
C1256 C1257 1.400 . S
C1257 C1251 1.491 . S
C1257 C1256 1.400 . S
C1257 C1258 1.398 . S
C1258 H1246 0.950 . S
C1258 C1257 1.398 . S
C1258 C1259 1.391 . S
C1259 H1247 0.950 . S
C1259 C1255 1.393 . S
C1259 C1258 1.391 . S
H1260 C1268 0.950 . S
H1261 C1273 0.950 . S
H1262 C1270 0.950 . S
H1263 C1272 0.950 . S
H1264 C1274 0.950 . S
H1265 C1276 0.950 . S
H1266 C1278 0.950 . S
H1267 C1279 0.950 . S
C1268 H1260 0.950 . S
C1268 C1269 1.386 . S
C1268 C1270 1.391 . S
C1269 C1268 1.386 . S
C1269 C1273 1.393 . S
C1270 H1262 0.950 . S
C1270 C1268 1.391 . S
C1270 C1271 1.400 . S
C1271 C1270 1.400 . S
C1271 C1272 1.398 . S
C1271 C1277 1.491 . S
C1272 H1263 0.950 . S
C1272 C1271 1.398 . S
C1272 C1273 1.391 . S
C1273 H1261 0.950 . S
C1273 C1269 1.393 . S
C1273 C1272 1.391 . S
C1274 H1264 0.950 . S
C1274 C1275 1.386 . S
C1274 C1276 1.391 . S
C1275 C1274 1.386 . S
C1275 C1279 1.393 . S
C1276 H1265 0.950 . S
C1276 C1274 1.391 . S
C1276 C1277 1.400 . S
C1277 C1271 1.491 . S
C1277 C1276 1.400 . S
C1277 C1278 1.398 . S
C1278 H1266 0.950 . S
C1278 C1277 1.398 . S
C1278 C1279 1.391 . S
C1279 H1267 0.950 . S
C1279 C1275 1.393 . S
C1279 C1278 1.391 . S
H1280 C1288 0.950 . S
H1281 C1293 0.950 . S
H1282 C1290 0.950 . S
H1283 C1292 0.950 . S
H1284 C1294 0.950 . S
H1285 C1296 0.950 . S
H1286 C1298 0.950 . S
H1287 C1299 0.950 . S
C1288 H1280 0.950 . S
C1288 C1289 1.386 . S
C1288 C1290 1.391 . S
C1289 C1288 1.386 . S
C1289 C1293 1.393 . S
C1290 H1282 0.950 . S
C1290 C1288 1.391 . S
C1290 C1291 1.400 . S
C1291 C1290 1.400 . S
C1291 C1292 1.398 . S
C1291 C1297 1.491 . S
C1292 H1283 0.950 . S
C1292 C1291 1.398 . S
C1292 C1293 1.391 . S
C1293 H1281 0.950 . S
C1293 C1289 1.393 . S
C1293 C1292 1.391 . S
C1294 H1284 0.950 . S
C1294 C1295 1.386 . S
C1294 C1296 1.391 . S
C1295 C1294 1.386 . S
C1295 C1299 1.393 . S
C1296 H1285 0.950 . S
C1296 C1294 1.391 . S
C1296 C1297 1.400 . S
C1297 C1291 1.491 . S
C1297 C1296 1.400 . S
C1297 C1298 1.398 . S
C1298 H1286 0.950 . S
C1298 C1297 1.398 . S
C1298 C1299 1.391 . S
C1299 H1287 0.950 . S
C1299 C1295 1.393 . S
C1299 C1298 1.391 . S
H1300 C1308 0.950 . S
H1301 C1313 0.950 . S
H1302 C1310 0.950 . S
H1303 C1312 0.950 . S
H1304 C1314 0.950 . S
H1305 C1316 0.950 . S
H1306 C1318 0.950 . S
H1307 C1319 0.950 . S
C1308 H1300 0.950 . S
C1308 C1309 1.386 . S
C1308 C1310 1.391 . S
C1309 C1308 1.386 . S
C1309 C1313 1.393 . S
C1310 H1302 0.950 . S
C1310 C1308 1.391 . S
C1310 C1311 1.400 . S
C1311 C1310 1.400 . S
C1311 C1312 1.398 . S
C1311 C1317 1.491 . S
C1312 H1303 0.950 . S
C1312 C1311 1.398 . S
C1312 C1313 1.391 . S
C1313 H1301 0.950 . S
C1313 C1309 1.393 . S
C1313 C1312 1.391 . S
C1314 H1304 0.950 . S
C1314 C1315 1.386 . S
C1314 C1316 1.391 . S
C1315 C1314 1.386 . S
C1315 C1319 1.393 . S
C1316 H1305 0.950 . S
C1316 C1314 1.391 . S
C1316 C1317 1.400 . S
C1317 C1311 1.491 . S
C1317 C1316 1.400 . S
C1317 C1318 1.398 . S
C1318 H1306 0.950 . S
C1318 C1317 1.398 . S
C1318 C1319 1.391 . S
C1319 H1307 0.950 . S
C1319 C1315 1.393 . S
C1319 C1318 1.391 . S
H1320 C1328 0.950 . S
H1321 C1333 0.950 . S
H1322 C1330 0.950 . S
H1323 C1332 0.950 . S
H1324 C1334 0.950 . S
H1325 C1336 0.950 . S
H1326 C1338 0.950 . S
H1327 C1339 0.950 . S
C1328 H1320 0.950 . S
C1328 C1329 1.386 . S
C1328 C1330 1.391 . S
C1329 C1328 1.386 . S
C1329 C1333 1.393 . S
C1330 H1322 0.950 . S
C1330 C1328 1.391 . S
C1330 C1331 1.400 . S
C1331 C1330 1.400 . S
C1331 C1332 1.398 . S
C1331 C1337 1.491 . S
C1332 H1323 0.950 . S
C1332 C1331 1.398 . S
C1332 C1333 1.391 . S
C1333 H1321 0.950 . S
C1333 C1329 1.393 . S
C1333 C1332 1.391 . S
C1334 H1324 0.950 . S
C1334 C1335 1.386 . S
C1334 C1336 1.391 . S
C1335 C1334 1.386 . S
C1335 C1339 1.393 . S
C1336 H1325 0.950 . S
C1336 C1334 1.391 . S
C1336 C1337 1.400 . S
C1337 C1331 1.491 . S
C1337 C1336 1.400 . S
C1337 C1338 1.398 . S
C1338 H1326 0.950 . S
C1338 C1337 1.398 . S
C1338 C1339 1.391 . S
C1339 H1327 0.950 . S
C1339 C1335 1.393 . S
C1339 C1338 1.391 . S
H1340 C1348 0.950 . S
H1341 C1353 0.950 . S
H1342 C1350 0.950 . S
H1343 C1352 0.950 1_556 S
H1344 C1354 0.950 . S
H1345 C1356 0.950 . S
H1346 C1358 0.950 . S
H1347 C1359 0.950 . S
C1348 H1340 0.950 . S
C1348 C1349 1.386 . S
C1348 C1350 1.391 . S
C1349 C1348 1.386 . S
C1349 C1353 1.393 . S
C1350 H1342 0.950 . S
C1350 C1348 1.391 . S
C1350 C1351 1.400 . S
C1351 C1350 1.400 . S
C1351 C1352 1.398 . S
C1351 C1357 1.491 1_554 S
C1352 H1343 0.950 1_554 S
C1352 C1351 1.398 . S
C1352 C1353 1.391 . S
C1353 H1341 0.950 . S
C1353 C1349 1.393 . S
C1353 C1352 1.391 . S
C1354 H1344 0.950 . S
C1354 C1355 1.386 . S
C1354 C1356 1.391 . S
C1355 C1354 1.386 . S
C1355 C1359 1.393 . S
C1356 H1345 0.950 . S
C1356 C1354 1.391 . S
C1356 C1357 1.400 . S
C1357 C1351 1.491 1_556 S
C1357 C1356 1.400 . S
C1357 C1358 1.398 . S
C1358 H1346 0.950 . S
C1358 C1357 1.398 . S
C1358 C1359 1.391 . S
C1359 H1347 0.950 . S
C1359 C1355 1.393 . S
C1359 C1358 1.391 . S
H1360 C1368 0.950 . S
H1361 C1373 0.950 . S
H1362 C1370 0.950 . S
H1363 C1372 0.950 . S
H1364 C1374 0.950 . S
H1365 C1376 0.950 . S
H1366 C1378 0.950 . S
H1367 C1379 0.950 . S
C1368 H1360 0.950 . S
C1368 C1369 1.386 . S
C1368 C1370 1.391 . S
C1369 C1368 1.386 . S
C1369 C1373 1.393 . S
C1370 H1362 0.950 . S
C1370 C1368 1.391 . S
C1370 C1371 1.400 . S
C1371 C1370 1.400 . S
C1371 C1372 1.398 . S
C1371 C1377 1.491 . S
C1372 H1363 0.950 . S
C1372 C1371 1.398 . S
C1372 C1373 1.391 . S
C1373 H1361 0.950 . S
C1373 C1369 1.393 . S
C1373 C1372 1.391 . S
C1374 H1364 0.950 . S
C1374 C1375 1.386 . S
C1374 C1376 1.391 . S
C1375 C1374 1.386 . S
C1375 C1379 1.393 . S
C1376 H1365 0.950 . S
C1376 C1374 1.391 . S
C1376 C1377 1.400 . S
C1377 C1371 1.491 . S
C1377 C1376 1.400 . S
C1377 C1378 1.398 . S
C1378 H1366 0.950 . S
C1378 C1377 1.398 . S
C1378 C1379 1.391 . S
C1379 H1367 0.950 . S
C1379 C1375 1.393 . S
C1379 C1378 1.391 . S
C915 C867 1.679 . S
C909 C1 1.268 . S
C929 C169 1.535 . S
C935 C687 1.840 . S
C949 C283 1.504 . S
C955 C734 1.819 . S
C969 C397 1.320 . S
C975 C770 1.586 . S
C995 C795 1.509 . S
C989 C457 1.100 . S
C1009 C571 1.169 . S
C1015 C831 1.523 . S
C1029 C115 1.257 . S
C1035 C723 1.707 . S
C1049 C229 1.103 . S
C1055 C759 1.536 . S
C1069 C343 1.139 . S
C1075 C806 1.459 . S
C1095 C842 1.664 . S
C1089 C511 1.348 . S
C1115 C878 1.783 . S
C1109 C625 1.483 . S
C1135 C698 1.848 . S
C1129 C55 1.528 . S
C1149 C29 1.137 . S
C1155 C722 1.411 . S
C1169 C125 0.959 . S
C1175 C758 1.519 . S
C1195 C796 1.479 . S
C1189 C239 0.910 . S
C1209 C353 0.910 . S
C1215 C832 1.466 . S
C1235 C868 1.362 . S
C1229 C485 1.101 . S
C1255 C688 1.418 . S
C1249 C599 1.137 . S
C1275 C866 1.420 . S
C1269 C143 1.116 . S
C1289 C257 1.148 . S
C1295 C686 1.404 . S
C1315 C724 1.359 . S
C1309 C371 1.119 . S
C1329 C467 0.951 . S
C1335 C760 1.469 . S
C1349 C581 0.937 . S
C1355 C794 1.492 . S
C1369 C11 0.935 . S
C1375 C830 1.521 . S
