# Generated by pormake.
# Topology pts, (4,4)-cn, num edge types: 1
# Building blocks:
#     Node 0, Type 0, BuildingBlock: MIFKUJ_clean_linker_1, # of connection points: 4
#     Node 1, Type 0, BuildingBlock: MIFKUJ_clean_linker_1, # of connection points: 4
#     Node 2, Type 1, BuildingBlock: QUQFOY_clean_sbu_1, # of connection points: 4
#     Node 3, Type 1, BuildingBlock: QUQFOY_clean_sbu_1, # of connection points: 4
#     Edge 4, Type (0, 1), BuildingBlock: KIFKEQ_clean_linker_1, # of connection points: 2
#     Edge 5, Type (0, 1), BuildingBlock: KIFKEQ_clean_linker_1, # of connection points: 2
#     Edge 6, Type (0, 1), BuildingBlock: KIFKEQ_clean_linker_1, # of connection points: 2
#     Edge 7, Type (0, 1), BuildingBlock: KIFKEQ_clean_linker_1, # of connection points: 2
#     Edge 8, Type (0, 1), BuildingBlock: KIFKEQ_clean_linker_1, # of connection points: 2
#     Edge 9, Type (0, 1), BuildingBlock: KIFKEQ_clean_linker_1, # of connection points: 2
#     Edge 10, Type (0, 1), BuildingBlock: KIFKEQ_clean_linker_1, # of connection points: 2
#     Edge 11, Type (0, 1), BuildingBlock: KIFKEQ_clean_linker_1, # of connection points: 2
# Relax obj value: 0.096
# Max RMSD: 0.259
# Mean RMSD: 0.154
data_MOF--net-pts--node1-QUQFOY_clean_sbu_1--node2-MIFKUJ_clean_linker_1--edge1-KIFKEQ_clean_linker_1
_symmetry_space_group_name_H-M    P1
_symmetry_Int_Tables_number       1
_symmetry_cell_setting            triclinic
loop_
_symmetry_equiv_pos_as_xyz
'x, y, z'
_cell_length_a     29.018041
_cell_length_b     31.695137
_cell_length_c     44.335376
_cell_angle_alpha  90.094664
_cell_angle_beta   90.037648
_cell_angle_gamma 89.979731
loop_
_atom_site_label
_atom_site_type_symbol
_atom_site_fract_x
_atom_site_fract_y
_atom_site_fract_z
_atom_type_partial_charge
H0 H 0.56746 0.94368 0.05512 0.0
H1 H 0.63378 0.9432 0.0891 0.0
H2 H 0.66746 0.07031 0.06149 0.0
H3 H 0.60187 0.06997 0.02697 0.0
H4 H 0.49493 0.99717 0.0598 0.0
H5 H 0.60159 0.95729 0.98295 0.0
H6 H 0.6668 0.95684 0.94821 0.0
H7 H 0.63285 0.08394 0.92061 0.0
H8 H 0.56689 0.08356 0.95484 0.0
H9 H 0.42146 0.08515 0.95667 0.0
H10 H 0.35521 0.08643 0.92239 0.0
H11 H 0.32154 0.95867 0.94797 0.0
H12 H 0.38784 0.95753 0.98218 0.0
H13 H 0.49428 0.0302 0.95054 0.0
H14 H 0.38806 0.06986 0.02863 0.0
H15 H 0.32215 0.06869 0.06312 0.0
H16 H 0.35624 0.94092 0.08851 0.0
H17 H 0.42209 0.94224 0.05396 0.0
C18 C 0.57991 0.00676 0.03846 0.0
C19 C 0.58959 0.97118 0.05612 0.0
C20 C 0.62728 0.97112 0.07571 0.0
C21 C 0.65573 0.00689 0.07829 0.0
C22 C 0.64668 0.04203 0.05984 0.0
C23 C 0.60916 0.04192 0.04008 0.0
C24 C 0.53685 0.00876 0.02061 0.0
C25 C 0.49482 0.00361 0.03576 0.0
C26 C 0.53667 0.01857 0.98955 0.0
C27 C 0.57952 0.0205 0.97152 0.0
C28 C 0.60873 0.98531 0.9698 0.0
C29 C 0.64605 0.98514 0.94991 0.0
C30 C 0.65491 0.02025 0.9314 0.0
C31 C 0.62649 0.05605 0.93405 0.0
C32 C 0.58901 0.05605 0.95378 0.0
C33 C 0.40936 0.02133 0.97202 0.0
C34 C 0.39936 0.05767 0.9552 0.0
C35 C 0.36151 0.05841 0.93573 0.0
C36 C 0.33349 0.02256 0.93244 0.0
C37 C 0.34286 0.98659 0.94991 0.0
C38 C 0.38041 0.98604 0.96963 0.0
C39 C 0.45245 0.01877 0.98977 0.0
C40 C 0.49446 0.02376 0.97458 0.0
C41 C 0.45264 0.00863 0.02076 0.0
C42 C 0.40976 0.00607 0.03868 0.0
C43 C 0.3808 0.04135 0.0412 0.0
C44 C 0.34348 0.04078 0.06108 0.0
C45 C 0.33435 0.0048 0.07857 0.0
C46 C 0.36236 0.96895 0.07515 0.0
C47 C 0.39999 0.96971 0.05553 0.0
H48 H 0.05329 0.45242 0.44394 0.0
H49 H 0.0535 0.38753 0.41459 0.0
H50 H 0.93709 0.34199 0.46604 0.0
H51 H 0.93484 0.40859 0.4936 0.0
H52 H -0.00378 0.5137 0.4489 0.0
H53 H 0.0543 0.4093 0.51734 0.0
H54 H 0.05448 0.34453 0.54753 0.0
H55 H 0.93745 0.39036 0.59783 0.0
H56 H 0.93571 0.45406 0.56677 0.0
H57 H 0.92771 0.58354 0.55856 0.0
H58 H 0.92962 0.64961 0.58741 0.0
H59 H 0.0634 0.6781 0.54997 0.0
H60 H 0.06128 0.61203 0.52121 0.0
H61 H 0.99212 0.51533 0.56075 0.0
H62 H 0.92666 0.61146 0.48739 0.0
H63 H 0.92493 0.67736 0.4586 0.0
H64 H 0.05886 0.64827 0.42154 0.0
H65 H 0.0604 0.58234 0.45044 0.0
C66 C -0.00553 0.43533 0.47132 0.0
C67 C 0.02751 0.42864 0.44871 0.0
C68 C 0.02798 0.39108 0.43221 0.0
C69 C -0.00428 0.35894 0.43811 0.0
C70 C 0.96229 0.36596 0.46059 0.0
C71 C 0.96133 0.40392 0.47672 0.0
C72 C -0.00512 0.47525 0.48906 0.0
C73 C -0.00412 0.51378 0.47336 0.0
C74 C -0.00643 0.47572 0.52108 0.0
C75 C -0.00547 0.43643 0.53942 0.0
C76 C 0.02811 0.40514 0.53447 0.0
C77 C 0.02835 0.36823 0.55174 0.0
C78 C -0.00407 0.36261 0.57487 0.0
C79 C 0.96288 0.39411 0.58016 0.0
C80 C 0.962 0.43052 0.56249 0.0
C81 C -0.00571 0.59302 0.53775 0.0
C82 C 0.95737 0.6041 0.55657 0.0
C83 C 0.95835 0.64194 0.57281 0.0
C84 C -0.00338 0.669 0.57085 0.0
C85 C 0.03359 0.65774 0.55201 0.0
C86 C 0.03235 0.62015 0.53551 0.0
C87 C -0.00678 0.55296 0.52049 0.0
C88 C 0.99236 0.51469 0.53628 0.0
C89 C -0.00518 0.55251 0.48869 0.0
C90 C -0.0063 0.59214 0.47104 0.0
C91 C 0.95567 0.61937 0.47311 0.0
C92 C 0.95466 0.65688 0.45661 0.0
C93 C 0.99182 0.66795 0.43792 0.0
C94 C 0.02999 0.64072 0.43603 0.0
C95 C 0.03075 0.60296 0.45229 0.0
O96 O 0.93309 0.9815 0.23767 0.0
Cd97 Cd -0.0062 0.97021 0.2606 0.0
Cd98 Cd -0.00385 0.05802 0.25945 0.0
O99 O 0.9362 0.05097 0.23513 0.0
O100 O 0.99006 0.9086 0.26878 0.0
O101 O -0.00518 0.95624 0.30508 0.0
C102 C 0.99172 0.91711 0.29716 0.0
C103 C -0.0023 0.10983 0.29697 0.0
C104 C 0.91624 0.01638 0.22884 0.0
C105 C 0.07404 0.01111 0.22928 0.0
O106 O 0.05665 0.04641 0.23671 0.0
O107 O 0.05454 0.97683 0.23684 0.0
O108 O 0.0003 0.11933 0.26879 0.0
O109 O -0.0061 0.07048 0.30411 0.0
O110 O 0.93167 0.04512 0.77187 0.0
Cd111 Cd -0.00708 0.05653 0.74965 0.0
Cd112 Cd -0.00446 0.96851 0.75107 0.0
O113 O 0.93507 0.97571 0.77474 0.0
O114 O 0.98865 0.11821 0.74193 0.0
O115 O -0.00437 0.0713 0.70529 0.0
C116 C 0.99161 0.11023 0.71352 0.0
C117 C -0.00212 0.91602 0.71402 0.0
C118 C 0.91481 0.01026 0.78068 0.0
C119 C 0.07258 0.01576 0.78191 0.0
O120 O 0.0555 0.98038 0.77435 0.0
O121 O 0.05308 0.04997 0.77413 0.0
O122 O -0.0006 0.90704 0.74232 0.0
O123 O -0.00519 0.95528 0.7065 0.0
H124 H 0.26827 0.94503 0.08857 0.0
H125 H 0.31734 0.06567 0.12044 0.0
H126 H 0.20728 0.94628 0.12647 0.0
H127 H 0.25754 0.0665 0.15895 0.0
H128 H 0.114 0.07719 0.19991 0.0
H129 H 0.17723 0.07508 0.16416 0.0
H130 H 0.19198 0.94097 0.17905 0.0
H131 H 0.12723 0.94285 0.21407 0.0
C132 C 0.26614 0.97164 0.10388 0.0
C133 C 0.29719 0.00542 0.10144 0.0
C134 C 0.23143 0.97228 0.12573 0.0
C135 C 0.22739 0.00652 0.14582 0.0
C136 C 0.25898 0.04002 0.14352 0.0
C137 C 0.29329 0.03957 0.12148 0.0
C138 C 0.13093 0.04727 0.19579 0.0
C139 C 0.11543 0.01015 0.20979 0.0
C140 C 0.16743 0.04608 0.17533 0.0
C141 C 0.18974 0.00782 0.16859 0.0
C142 C 0.17506 0.97086 0.18326 0.0
C143 C 0.13818 0.97198 0.20354 0.0
H144 H -0.00706 0.28008 0.55712 0.0
H145 H 0.00163 0.35974 0.63583 0.0
H146 H 0.99032 0.21758 0.5894 0.0
H147 H 0.00174 0.29781 0.66813 0.0
H148 H 0.9529 0.18722 0.72117 0.0
H149 H 0.95312 0.24645 0.68664 0.0
H150 H 0.03048 0.17239 0.62209 0.0
H151 H 0.02763 0.11204 0.65635 0.0
C152 C -0.00509 0.28402 0.58137 0.0
C153 C -0.00295 0.32454 0.5941 0.0
C154 C -0.00635 0.24828 0.5999 0.0
C155 C -0.00471 0.25241 0.63153 0.0
C156 C -0.00104 0.29319 0.64401 0.0
C157 C -0.00071 0.32878 0.62554 0.0
C158 C 0.96975 0.18353 0.69953 0.0
C159 C 0.99049 0.14513 0.69151 0.0
C160 C 0.97029 0.21768 0.67975 0.0
C161 C 0.99258 0.21475 0.65164 0.0
C162 C 0.01263 0.17589 0.64338 0.0
C163 C 0.01123 0.1413 0.66303 0.0
H164 H 0.65474 0.97541 0.13577 0.0
H165 H 0.74178 0.04188 0.0726 0.0
H166 H 0.71586 0.97847 0.17342 0.0
H167 H 0.80243 0.04573 0.11063 0.0
H168 H 0.88034 0.08227 0.19669 0.0
H169 H 0.81631 0.0804 0.16099 0.0
H170 H 0.7951 0.94842 0.18057 0.0
H171 H 0.85895 0.95015 0.21634 0.0
C172 C 0.68703 0.99031 0.12977 0.0
C173 C 0.69337 0.00823 0.10105 0.0
C174 C 0.72192 0.99224 0.15143 0.0
C175 C 0.76379 0.01246 0.14498 0.0
C176 C 0.77021 0.03049 0.11636 0.0
C177 C 0.73545 0.02828 0.09459 0.0
C178 C 0.86174 0.05296 0.19364 0.0
C179 C 0.87486 0.01632 0.20931 0.0
C180 C 0.82533 0.05184 0.17302 0.0
C181 C 0.80099 0.0142 0.16787 0.0
C182 C 0.81311 0.97793 0.18422 0.0
C183 C 0.84978 0.97892 0.20463 0.0
H184 H 0.06805 0.69674 0.60551 0.0
H185 H 0.92975 0.72909 0.57795 0.0
H186 H 0.07022 0.75884 0.63822 0.0
H187 H 0.93193 0.79132 0.61081 0.0
H188 H 0.97508 0.92002 0.65398 0.0
H189 H 0.97613 0.86206 0.6172 0.0
H190 H 0.02602 0.77747 0.6861 0.0
H191 H 0.02461 0.83479 0.72272 0.0
C192 C 0.03835 0.71743 0.60619 0.0
C193 C -0.00132 0.70804 0.58929 0.0
C194 C 0.03949 0.75278 0.62502 0.0
C195 C 0.0012 0.77978 0.62708 0.0
C196 C 0.96202 0.77116 0.60949 0.0
C197 C 0.96064 0.73543 0.59092 0.0
C198 C 0.98643 0.88906 0.66117 0.0
C199 C -0.00032 0.88192 0.69123 0.0
C200 C 0.98683 0.85594 0.64019 0.0
C201 C 0.00131 0.81537 0.64882 0.0
C202 C 0.01517 0.80851 0.67875 0.0
C203 C 0.01409 0.84131 0.69975 0.0
H204 H 0.26722 0.08228 0.92264 0.0
H205 H 0.31617 0.96165 0.89066 0.0
H206 H 0.20585 0.08096 0.88495 0.0
H207 H 0.256 0.96074 0.85235 0.0
H208 H 0.11243 0.94986 0.8116 0.0
H209 H 0.17565 0.95211 0.8474 0.0
H210 H 0.19013 0.0862 0.83237 0.0
H211 H 0.12539 0.08418 0.7973 0.0
C212 C 0.26498 0.05565 0.90735 0.0
C213 C 0.2961 0.0219 0.9097 0.0
C214 C 0.23005 0.05497 0.88563 0.0
C215 C 0.22587 0.02071 0.86556 0.0
C216 C 0.25754 0.98723 0.86777 0.0
C217 C 0.29207 0.98773 0.88969 0.0
C218 C 0.12928 0.97981 0.81572 0.0
C219 C 0.11374 0.01687 0.80163 0.0
C220 C 0.16577 0.98108 0.83621 0.0
C221 C 0.18805 0.01936 0.84289 0.0
C222 C 0.17325 0.0563 0.8282 0.0
C223 C 0.13637 0.05509 0.80789 0.0
H224 H 0.92249 0.30979 0.41975 0.0
H225 H 0.07137 0.3163 0.41655 0.0
H226 H 0.92459 0.24604 0.3888 0.0
H227 H 0.07273 0.25403 0.38424 0.0
H228 H 0.03616 0.18739 0.29146 0.0
H229 H 0.0369 0.24455 0.32842 0.0
H230 H 0.96224 0.16639 0.39122 0.0
H231 H 0.9625 0.10833 0.35435 0.0
C232 C 0.95568 0.29753 0.41287 0.0
C233 C -0.00324 0.31871 0.42054 0.0
C234 C 0.95675 0.26106 0.39504 0.0
C235 C -0.00122 0.24541 0.38411 0.0
C236 C 0.03985 0.2658 0.39223 0.0
C237 C 0.03892 0.30173 0.4105 0.0
C238 C 0.02015 0.18224 0.31321 0.0
C239 C -0.00076 0.14345 0.32005 0.0
C240 C 0.02078 0.21487 0.33436 0.0
C241 C -0.00033 0.20973 0.36257 0.0
C242 C 0.97868 0.17101 0.36954 0.0
C243 C 0.979 0.13787 0.34856 0.0
H244 H 0.741 0.98521 0.93687 0.0
H245 H 0.65344 0.05168 0.8739 0.0
H246 H 0.8013 0.98122 0.89866 0.0
H247 H 0.71422 0.04847 0.83606 0.0
H248 H 0.8573 0.0765 0.79286 0.0
H249 H 0.79346 0.07835 0.8286 0.0
H250 H 0.81469 0.9464 0.84834 0.0
H251 H 0.87868 0.9444 0.81269 0.0
C252 C 0.73448 0.99878 0.91488 0.0
C253 C 0.69235 0.01885 0.90853 0.0
C254 C 0.76903 0.99648 0.89301 0.0
C255 C 0.76237 0.01446 0.86438 0.0
C256 C 0.72047 0.03474 0.85805 0.0
C257 C 0.68577 0.03675 0.87981 0.0
C258 C 0.84811 0.04775 0.80459 0.0
C259 C 0.87322 0.01034 0.8 0.0
C260 C 0.81145 0.04882 0.82498 0.0
C261 C 0.79938 0.0126 0.8414 0.0
C262 C 0.82368 0.97493 0.83627 0.0
C263 C 0.86007 0.97374 0.81567 0.0
H264 H 0.05911 0.7277 0.43137 0.0
H265 H 0.9208 0.69636 0.40322 0.0
H266 H 0.0574 0.79039 0.39909 0.0
H267 H 0.91907 0.75892 0.3711 0.0
H268 H 0.96499 0.83608 0.28756 0.0
H269 H 0.9635 0.77814 0.32352 0.0
H270 H 0.01348 0.86143 0.39338 0.0
H271 H 0.01463 0.92003 0.35725 0.0
C272 C 0.02834 0.73434 0.41837 0.0
C273 C 0.99015 0.70712 0.41968 0.0
C274 C 0.02722 0.77034 0.40015 0.0
C275 C 0.98815 0.77939 0.38258 0.0
C276 C 0.94973 0.75253 0.38429 0.0
C277 C 0.95062 0.71691 0.40278 0.0
C278 C 0.97553 0.84219 0.3106 0.0
C279 C 0.98996 0.88263 0.31958 0.0
C280 C 0.9744 0.80903 0.33122 0.0
C281 C 0.98824 0.81534 0.36122 0.0
C282 C 0.00279 0.85573 0.37031 0.0
C283 C 0.00325 0.88922 0.34971 0.0
loop_
_geom_bond_atom_site_label_1
_geom_bond_atom_site_label_2
_geom_bond_distance
_geom_bond_site_symmetry_2
_ccdc_geom_bond_type
H0 C19 0.949 . S
H1 C20 0.950 . S
H2 C22 0.950 . S
H3 C23 0.950 . S
H4 C25 0.950 1_565 S
H5 C28 0.950 . S
H6 C29 0.950 . S
H7 C31 0.951 . S
H8 C32 0.949 . S
H9 C34 0.949 . S
H10 C35 0.950 . S
H11 C37 0.950 . S
H12 C38 0.950 . S
H13 C40 0.950 . S
H14 C43 0.950 . S
H15 C44 0.950 . S
H16 C46 0.951 . S
H17 C47 0.949 . S
C18 C19 1.376 1_545 S
C18 C23 1.386 . S
C18 C24 1.483 . S
C19 H0 0.949 . S
C19 C18 1.376 1_565 S
C19 C20 1.397 . S
C20 H1 0.950 . S
C20 C19 1.397 . S
C20 C21 1.391 1_565 S
C21 C20 1.391 1_545 S
C21 C22 1.405 . S
C22 H2 0.950 . S
C22 C21 1.405 . S
C22 C23 1.367 . S
C23 H3 0.950 . S
C23 C18 1.386 . S
C23 C22 1.367 . S
C24 C18 1.483 . S
C24 C25 1.382 . S
C24 C26 1.403 1_554 S
C25 H4 0.950 1_545 S
C25 C24 1.382 . S
C25 C41 1.411 . S
C26 C24 1.403 1_556 S
C26 C27 1.489 . S
C26 C40 1.411 . S
C27 C26 1.489 . S
C27 C28 1.383 1_545 S
C27 C32 1.382 . S
C28 H5 0.950 . S
C28 C27 1.383 1_565 S
C28 C29 1.395 . S
C29 H6 0.950 . S
C29 C28 1.395 . S
C29 C30 1.288 1_565 S
C30 C29 1.288 1_545 S
C30 C31 1.392 . S
C31 H7 0.951 . S
C31 C30 1.392 . S
C31 C32 1.392 . S
C32 H8 0.949 . S
C32 C27 1.382 . S
C32 C31 1.392 . S
C33 C34 1.376 . S
C33 C38 1.386 1_545 S
C33 C39 1.483 . S
C34 H9 0.949 . S
C34 C33 1.376 . S
C34 C35 1.397 . S
C35 H10 0.950 . S
C35 C34 1.397 . S
C35 C36 1.391 . S
C36 C35 1.391 . S
C36 C37 1.405 1_545 S
C37 H11 0.950 . S
C37 C36 1.405 1_565 S
C37 C38 1.367 . S
C38 H12 0.950 . S
C38 C33 1.386 1_565 S
C38 C37 1.367 . S
C39 C33 1.483 . S
C39 C40 1.382 . S
C39 C41 1.403 1_556 S
C40 H13 0.950 . S
C40 C26 1.411 . S
C40 C39 1.382 . S
C41 C25 1.411 . S
C41 C39 1.403 1_554 S
C41 C42 1.489 . S
C42 C41 1.489 . S
C42 C43 1.383 . S
C42 C47 1.382 1_545 S
C43 H14 0.950 . S
C43 C42 1.383 . S
C43 C44 1.395 . S
C44 H15 0.950 . S
C44 C43 1.395 . S
C44 C45 1.288 . S
C45 C44 1.288 . S
C45 C46 1.392 1_545 S
C46 H16 0.951 . S
C46 C45 1.392 1_565 S
C46 C47 1.392 . S
C47 H17 0.949 . S
C47 C42 1.382 1_565 S
C47 C46 1.392 . S
H48 C67 0.949 . S
H49 C68 0.950 . S
H50 C70 0.950 . S
H51 C71 0.950 . S
H52 C73 0.950 . S
H53 C76 0.950 . S
H54 C77 0.950 . S
H55 C79 0.951 . S
H56 C80 0.949 . S
H57 C82 0.949 . S
H58 C83 0.950 . S
H59 C85 0.950 . S
H60 C86 0.950 . S
H61 C88 0.950 . S
H62 C91 0.950 . S
H63 C92 0.950 . S
H64 C94 0.951 . S
H65 C95 0.949 . S
C66 C67 1.376 . S
C66 C71 1.386 1_455 S
C66 C72 1.483 . S
C67 H48 0.949 . S
C67 C66 1.376 . S
C67 C68 1.397 . S
C68 H49 0.950 . S
C68 C67 1.397 . S
C68 C69 1.391 . S
C69 C68 1.391 . S
C69 C70 1.405 1_455 S
C70 H50 0.950 . S
C70 C69 1.405 1_655 S
C70 C71 1.367 . S
C71 H51 0.950 . S
C71 C66 1.386 1_655 S
C71 C70 1.367 . S
C72 C66 1.483 . S
C72 C73 1.382 . S
C72 C74 1.403 1_455 S
C73 H52 0.950 . S
C73 C72 1.382 . S
C73 C89 1.411 . S
C74 C72 1.403 1_655 S
C74 C75 1.489 . S
C74 C88 1.411 . S
C75 C74 1.489 . S
C75 C76 1.383 1_655 S
C75 C80 1.382 . S
C76 H53 0.950 . S
C76 C75 1.383 1_455 S
C76 C77 1.395 . S
C77 H54 0.950 . S
C77 C76 1.395 . S
C77 C78 1.288 1_455 S
C78 C77 1.288 1_655 S
C78 C79 1.392 . S
C79 H55 0.951 . S
C79 C78 1.392 . S
C79 C80 1.392 . S
C80 H56 0.949 . S
C80 C75 1.382 . S
C80 C79 1.392 . S
C81 C82 1.376 . S
C81 C86 1.386 1_655 S
C81 C87 1.483 . S
C82 H57 0.949 . S
C82 C81 1.376 . S
C82 C83 1.397 . S
C83 H58 0.950 . S
C83 C82 1.397 . S
C83 C84 1.381 1_655 S
C84 C83 1.381 1_455 S
C84 C85 1.415 . S
C85 H59 0.950 . S
C85 C84 1.415 . S
C85 C86 1.367 . S
C86 H60 0.950 . S
C86 C81 1.386 1_455 S
C86 C85 1.367 . S
C87 C81 1.483 . S
C87 C88 1.382 . S
C87 C89 1.403 1_655 S
C88 H61 0.950 . S
C88 C74 1.411 . S
C88 C87 1.382 . S
C89 C73 1.411 . S
C89 C87 1.403 1_455 S
C89 C90 1.489 . S
C90 C89 1.489 . S
C90 C91 1.383 1_455 S
C90 C95 1.382 . S
C91 H62 0.950 . S
C91 C90 1.383 1_655 S
C91 C92 1.395 . S
C92 H63 0.950 . S
C92 C91 1.395 . S
C92 C93 1.288 1_655 S
C93 C92 1.288 1_455 S
C93 C94 1.392 . S
C94 H64 0.951 . S
C94 C93 1.392 . S
C94 C95 1.392 . S
C95 H65 0.949 . S
C95 C90 1.382 . S
C95 C94 1.392 . S
O96 Cd97 2.223 1_655 S
O96 C104 1.315 . S
Cd97 O96 2.223 1_455 S
Cd97 O100 2.297 1_455 S
Cd97 O101 2.439 1_455 S
Cd97 O107 2.240 1_565 S
Cd98 O99 2.240 . S
Cd98 O106 2.223 1_655 S
Cd98 O108 2.297 1_655 S
Cd98 O109 2.439 1_655 S
O99 Cd98 2.240 . S
O99 C104 1.279 1_545 S
O100 Cd97 2.297 1_655 S
O100 C102 1.247 . S
O101 Cd97 2.439 1_655 S
O101 C102 1.208 . S
C102 O100 1.247 . S
C102 O101 1.208 . S
C103 O108 1.247 . S
C103 O109 1.208 . S
C104 O96 1.315 . S
C104 O99 1.279 1_565 S
C105 O106 1.315 . S
C105 O107 1.279 . S
O106 Cd98 2.223 1_455 S
O106 C105 1.315 . S
O107 Cd97 2.240 1_545 S
O107 C105 1.279 . S
O108 Cd98 2.297 1_455 S
O108 C103 1.247 . S
O109 Cd98 2.439 1_455 S
O109 C103 1.208 . S
O110 Cd111 2.223 1_655 S
O110 C118 1.315 . S
Cd111 O110 2.223 1_455 S
Cd111 O114 2.297 1_455 S
Cd111 O115 2.439 1_455 S
Cd111 O121 2.240 . S
Cd112 O113 2.240 1_565 S
Cd112 O120 2.223 1_655 S
Cd112 O122 2.297 1_655 S
Cd112 O123 2.439 1_655 S
O113 Cd112 2.240 1_545 S
O113 C118 1.279 . S
O114 Cd111 2.297 1_655 S
O114 C116 1.247 . S
O115 Cd111 2.439 1_655 S
O115 C116 1.208 . S
C116 O114 1.247 . S
C116 O115 1.208 . S
C117 O122 1.247 . S
C117 O123 1.208 . S
C118 O110 1.315 . S
C118 O113 1.279 . S
C119 O120 1.315 . S
C119 O121 1.279 1_565 S
O120 Cd112 2.223 1_455 S
O120 C119 1.315 . S
O121 Cd111 2.240 . S
O121 C119 1.279 1_545 S
O122 Cd112 2.297 1_455 S
O122 C117 1.247 . S
O123 Cd112 2.439 1_455 S
O123 C117 1.208 . S
H124 C132 0.950 . S
H125 C137 0.950 . S
H126 C134 0.950 . S
H127 C136 0.950 . S
H128 C138 0.950 . S
H129 C140 0.950 . S
H130 C142 0.950 . S
H131 C143 0.950 . S
C132 H124 0.950 . S
C132 C133 1.386 1_565 S
C132 C134 1.391 . S
C133 C132 1.386 1_545 S
C133 C137 1.393 . S
C134 H126 0.950 . S
C134 C132 1.391 . S
C134 C135 1.400 1_565 S
C135 C134 1.400 1_545 S
C135 C136 1.398 . S
C135 C141 1.491 . S
C136 H127 0.950 . S
C136 C135 1.398 . S
C136 C137 1.391 . S
C137 H125 0.950 . S
C137 C133 1.393 . S
C137 C136 1.391 . S
C138 H128 0.950 . S
C138 C139 1.386 . S
C138 C140 1.391 . S
C139 C138 1.386 . S
C139 C143 1.393 1_545 S
C140 H129 0.950 . S
C140 C138 1.391 . S
C140 C141 1.400 . S
C141 C135 1.491 . S
C141 C140 1.400 . S
C141 C142 1.398 1_545 S
C142 H130 0.950 . S
C142 C141 1.398 1_565 S
C142 C143 1.391 . S
C143 H131 0.950 . S
C143 C139 1.393 1_565 S
C143 C142 1.391 . S
H144 C152 0.950 . S
H145 C157 0.950 . S
H146 C154 0.950 . S
H147 C156 0.950 . S
H148 C158 0.950 . S
H149 C160 0.950 . S
H150 C162 0.950 . S
H151 C163 0.950 1_455 S
C152 H144 0.950 . S
C152 C153 1.386 . S
C152 C154 1.391 . S
C153 C152 1.386 . S
C153 C157 1.392 1_455 S
C154 H146 0.950 . S
C154 C152 1.391 . S
C154 C155 1.400 1_455 S
C155 C154 1.400 1_655 S
C155 C156 1.398 . S
C155 C161 1.491 . S
C156 H147 0.950 . S
C156 C155 1.398 . S
C156 C157 1.391 . S
C157 H145 0.950 . S
C157 C153 1.392 1_655 S
C157 C156 1.391 . S
C158 H148 0.950 . S
C158 C159 1.386 . S
C158 C160 1.391 . S
C159 C158 1.386 . S
C159 C163 1.393 . S
C160 H149 0.950 . S
C160 C158 1.391 . S
C160 C161 1.400 . S
C161 C155 1.491 . S
C161 C160 1.400 . S
C161 C162 1.398 1_655 S
C162 H150 0.950 . S
C162 C161 1.398 1_455 S
C162 C163 1.391 1_455 S
C163 H151 0.950 1_655 S
C163 C159 1.393 . S
C163 C162 1.391 1_655 S
H164 C172 0.950 . S
H165 C177 0.950 . S
H166 C174 0.950 . S
H167 C176 0.950 . S
H168 C178 0.950 . S
H169 C180 0.950 . S
H170 C182 0.950 . S
H171 C183 0.950 . S
C172 H164 0.950 . S
C172 C173 1.386 1_565 S
C172 C174 1.391 . S
C173 C172 1.386 1_545 S
C173 C177 1.393 . S
C174 H166 0.950 . S
C174 C172 1.391 . S
C174 C175 1.400 1_565 S
C175 C174 1.400 1_545 S
C175 C176 1.399 . S
C175 C181 1.490 1_545 S
C176 H167 0.950 . S
C176 C175 1.399 . S
C176 C177 1.391 . S
C177 H165 0.950 . S
C177 C173 1.393 . S
C177 C176 1.391 . S
C178 H168 0.950 . S
C178 C179 1.386 1_545 S
C178 C180 1.391 . S
C179 C178 1.386 1_565 S
C179 C183 1.393 . S
C180 H169 0.950 . S
C180 C178 1.391 . S
C180 C181 1.400 1_545 S
C181 C175 1.490 1_565 S
C181 C180 1.400 1_565 S
C181 C182 1.398 . S
C182 H170 0.950 . S
C182 C181 1.398 . S
C182 C183 1.391 . S
C183 H171 0.950 . S
C183 C179 1.393 . S
C183 C182 1.391 . S
H184 C192 0.950 . S
H185 C197 0.950 . S
H186 C194 0.950 . S
H187 C196 0.950 . S
H188 C198 0.950 1_655 S
H189 C200 0.950 1_655 S
H190 C202 0.950 . S
H191 C203 0.950 . S
C192 H184 0.950 . S
C192 C193 1.386 . S
C192 C194 1.391 . S
C193 C192 1.386 . S
C193 C197 1.393 1_455 S
C194 H186 0.950 . S
C194 C192 1.391 . S
C194 C195 1.400 . S
C195 C194 1.400 . S
C195 C196 1.398 1_455 S
C195 C201 1.491 . S
C196 H187 0.950 . S
C196 C195 1.398 1_655 S
C196 C197 1.391 . S
C197 H185 0.950 . S
C197 C193 1.393 1_655 S
C197 C196 1.391 . S
C198 H188 0.950 1_455 S
C198 C199 1.386 . S
C198 C200 1.391 . S
C199 C198 1.386 . S
C199 C203 1.393 . S
C200 H189 0.950 1_455 S
C200 C198 1.391 . S
C200 C201 1.400 . S
C201 C195 1.491 . S
C201 C200 1.400 . S
C201 C202 1.398 . S
C202 H190 0.950 . S
C202 C201 1.398 . S
C202 C203 1.391 . S
C203 H191 0.950 . S
C203 C199 1.393 . S
C203 C202 1.391 . S
H204 C212 0.950 . S
H205 C217 0.950 . S
H206 C214 0.950 . S
H207 C216 0.950 . S
H208 C218 0.950 . S
H209 C220 0.950 . S
H210 C222 0.950 . S
H211 C223 0.950 . S
C212 H204 0.950 . S
C212 C213 1.386 . S
C212 C214 1.391 . S
C213 C212 1.386 . S
C213 C217 1.393 1_545 S
C214 H206 0.950 . S
C214 C212 1.391 . S
C214 C215 1.400 . S
C215 C214 1.400 . S
C215 C216 1.398 1_545 S
C215 C221 1.491 1_545 S
C216 H207 0.950 . S
C216 C215 1.398 1_565 S
C216 C217 1.391 . S
C217 H205 0.950 . S
C217 C213 1.393 1_565 S
C217 C216 1.391 . S
C218 H208 0.950 . S
C218 C219 1.386 . S
C218 C220 1.391 . S
C219 C218 1.386 . S
C219 C223 1.393 1_565 S
C220 H209 0.950 . S
C220 C218 1.391 . S
C220 C221 1.400 . S
C221 C215 1.491 1_565 S
C221 C220 1.400 . S
C221 C222 1.398 1_565 S
C222 H210 0.950 . S
C222 C221 1.398 1_545 S
C222 C223 1.391 . S
C223 H211 0.950 . S
C223 C219 1.393 1_545 S
C223 C222 1.391 . S
H224 C232 0.950 . S
H225 C237 0.950 . S
H226 C234 0.950 . S
H227 C236 0.950 . S
H228 C238 0.950 . S
H229 C240 0.950 . S
H230 C242 0.950 . S
H231 C243 0.950 . S
C232 H224 0.950 . S
C232 C233 1.386 1_655 S
C232 C234 1.391 . S
C233 C232 1.386 1_455 S
C233 C237 1.393 . S
C234 H226 0.950 . S
C234 C232 1.391 . S
C234 C235 1.400 1_655 S
C235 C234 1.400 1_455 S
C235 C236 1.398 . S
C235 C241 1.491 . S
C236 H227 0.950 . S
C236 C235 1.398 . S
C236 C237 1.391 . S
C237 H225 0.950 . S
C237 C233 1.393 . S
C237 C236 1.391 . S
C238 H228 0.950 . S
C238 C239 1.386 . S
C238 C240 1.391 . S
C239 C238 1.386 . S
C239 C243 1.393 1_455 S
C240 H229 0.950 . S
C240 C238 1.391 . S
C240 C241 1.400 . S
C241 C235 1.491 . S
C241 C240 1.400 . S
C241 C242 1.398 1_455 S
C242 H230 0.950 . S
C242 C241 1.398 1_655 S
C242 C243 1.391 . S
C243 H231 0.950 . S
C243 C239 1.393 1_655 S
C243 C242 1.391 . S
H244 C252 0.950 . S
H245 C257 0.950 . S
H246 C254 0.950 . S
H247 C256 0.950 . S
H248 C258 0.950 . S
H249 C260 0.950 . S
H250 C262 0.950 . S
H251 C263 0.950 1_565 S
C252 H244 0.950 . S
C252 C253 1.386 1_565 S
C252 C254 1.391 . S
C253 C252 1.386 1_545 S
C253 C257 1.393 . S
C254 H246 0.950 . S
C254 C252 1.391 . S
C254 C255 1.400 1_565 S
C255 C254 1.400 1_545 S
C255 C256 1.398 . S
C255 C261 1.491 . S
C256 H247 0.950 . S
C256 C255 1.398 . S
C256 C257 1.391 . S
C257 H245 0.950 . S
C257 C253 1.393 . S
C257 C256 1.391 . S
C258 H248 0.950 . S
C258 C259 1.386 . S
C258 C260 1.391 . S
C259 C258 1.386 . S
C259 C263 1.393 . S
C260 H249 0.950 . S
C260 C258 1.391 . S
C260 C261 1.400 . S
C261 C255 1.491 . S
C261 C260 1.400 . S
C261 C262 1.398 1_545 S
C262 H250 0.950 . S
C262 C261 1.398 1_565 S
C262 C263 1.391 1_565 S
C263 H251 0.950 1_545 S
C263 C259 1.393 . S
C263 C262 1.391 1_545 S
H264 C272 0.950 . S
H265 C277 0.950 . S
H266 C274 0.950 . S
H267 C276 0.950 . S
H268 C278 0.950 . S
H269 C280 0.950 . S
H270 C282 0.950 . S
H271 C283 0.950 . S
C272 H264 0.950 . S
C272 C273 1.387 1_455 S
C272 C274 1.391 . S
C273 C272 1.387 1_655 S
C273 C277 1.391 . S
C274 H266 0.950 . S
C274 C272 1.391 . S
C274 C275 1.400 1_455 S
C275 C274 1.400 1_655 S
C275 C276 1.398 . S
C275 C281 1.491 . S
C276 H267 0.950 . S
C276 C275 1.398 . S
C276 C277 1.391 . S
C277 H265 0.950 . S
C277 C273 1.391 . S
C277 C276 1.391 . S
C278 H268 0.950 . S
C278 C279 1.386 . S
C278 C280 1.391 . S
C279 C278 1.386 . S
C279 C283 1.393 1_655 S
C280 H269 0.950 . S
C280 C278 1.391 . S
C280 C281 1.400 . S
C281 C275 1.491 . S
C281 C280 1.400 . S
C281 C282 1.398 1_655 S
C282 H270 0.950 . S
C282 C281 1.398 1_455 S
C282 C283 1.391 . S
C283 H271 0.950 . S
C283 C279 1.393 1_455 S
C283 C282 1.391 . S
C139 C105 1.635 . S
C133 C45 1.628 . S
C159 C116 1.560 . S
C153 C78 1.610 1_455 S
C179 C104 1.633 . S
C173 C21 1.628 . S
C199 C117 1.533 . S
C193 C84 1.619 . S
C219 C119 1.634 . S
C213 C36 1.635 . S
C239 C103 1.552 . S
C233 C69 1.615 . S
C259 C118 1.634 . S
C253 C30 1.621 . S
C273 C93 1.618 1_655 S
C279 C102 1.560 . S
