# Generated by pormake.
# Topology the, (3,8)-cn, num edge types: 1
# Building blocks:
#     Node 0, Type 0, BuildingBlock: CUQRIR_clean_linker_1, # of connection points: 3
#     Node 1, Type 0, BuildingBlock: CUQRIR_clean_linker_1, # of connection points: 3
#     Node 2, Type 0, BuildingBlock: CUQRIR_clean_linker_1, # of connection points: 3
#     Node 3, Type 0, BuildingBlock: CUQRIR_clean_linker_1, # of connection points: 3
#     Node 4, Type 0, BuildingBlock: CUQRIR_clean_linker_1, # of connection points: 3
#     Node 5, Type 0, BuildingBlock: CUQRIR_clean_linker_1, # of connection points: 3
#     Node 6, Type 0, BuildingBlock: CUQRIR_clean_linker_1, # of connection points: 3
#     Node 7, Type 0, BuildingBlock: CUQRIR_clean_linker_1, # of connection points: 3
#     Node 8, Type 1, BuildingBlock: GIZVER_clean_sbu_0, # of connection points: 8
#     Node 9, Type 1, BuildingBlock: GIZVER_clean_sbu_0, # of connection points: 8
#     Node 10, Type 1, BuildingBlock: GIZVER_clean_sbu_0, # of connection points: 8
#     Edge 11, Type (0, 1), BuildingBlock: MIFKUJ_clean_linker_0, # of connection points: 2
#     Edge 12, Type (0, 1), BuildingBlock: MIFKUJ_clean_linker_0, # of connection points: 2
#     Edge 13, Type (0, 1), BuildingBlock: MIFKUJ_clean_linker_0, # of connection points: 2
#     Edge 14, Type (0, 1), BuildingBlock: MIFKUJ_clean_linker_0, # of connection points: 2
#     Edge 15, Type (0, 1), BuildingBlock: MIFKUJ_clean_linker_0, # of connection points: 2
#     Edge 16, Type (0, 1), BuildingBlock: MIFKUJ_clean_linker_0, # of connection points: 2
#     Edge 17, Type (0, 1), BuildingBlock: MIFKUJ_clean_linker_0, # of connection points: 2
#     Edge 18, Type (0, 1), BuildingBlock: MIFKUJ_clean_linker_0, # of connection points: 2
#     Edge 19, Type (0, 1), BuildingBlock: MIFKUJ_clean_linker_0, # of connection points: 2
#     Edge 20, Type (0, 1), BuildingBlock: MIFKUJ_clean_linker_0, # of connection points: 2
#     Edge 21, Type (0, 1), BuildingBlock: MIFKUJ_clean_linker_0, # of connection points: 2
#     Edge 22, Type (0, 1), BuildingBlock: MIFKUJ_clean_linker_0, # of connection points: 2
#     Edge 23, Type (0, 1), BuildingBlock: MIFKUJ_clean_linker_0, # of connection points: 2
#     Edge 24, Type (0, 1), BuildingBlock: MIFKUJ_clean_linker_0, # of connection points: 2
#     Edge 25, Type (0, 1), BuildingBlock: MIFKUJ_clean_linker_0, # of connection points: 2
#     Edge 26, Type (0, 1), BuildingBlock: MIFKUJ_clean_linker_0, # of connection points: 2
#     Edge 27, Type (0, 1), BuildingBlock: MIFKUJ_clean_linker_0, # of connection points: 2
#     Edge 28, Type (0, 1), BuildingBlock: MIFKUJ_clean_linker_0, # of connection points: 2
#     Edge 29, Type (0, 1), BuildingBlock: MIFKUJ_clean_linker_0, # of connection points: 2
#     Edge 30, Type (0, 1), BuildingBlock: MIFKUJ_clean_linker_0, # of connection points: 2
#     Edge 31, Type (0, 1), BuildingBlock: MIFKUJ_clean_linker_0, # of connection points: 2
#     Edge 32, Type (0, 1), BuildingBlock: MIFKUJ_clean_linker_0, # of connection points: 2
#     Edge 33, Type (0, 1), BuildingBlock: MIFKUJ_clean_linker_0, # of connection points: 2
#     Edge 34, Type (0, 1), BuildingBlock: MIFKUJ_clean_linker_0, # of connection points: 2
# Relax obj value: 0.076
# Max RMSD: 0.228
# Mean RMSD: 0.156
data_MOF--net-the--node1-GIZVER_clean_sbu_0--node2-CUQRIR_clean_linker_1--edge1-MIFKUJ_clean_linker_0
_symmetry_space_group_name_H-M    P1
_symmetry_Int_Tables_number       1
_symmetry_cell_setting            triclinic
loop_
_symmetry_equiv_pos_as_xyz
'x, y, z'
_cell_length_a     50.030621
_cell_length_b     47.058606
_cell_length_c     42.703055
_cell_angle_alpha  84.711853
_cell_angle_beta   96.389852
_cell_angle_gamma 104.48656
loop_
_atom_site_label
_atom_site_type_symbol
_atom_site_fract_x
_atom_site_fract_y
_atom_site_fract_z
_atom_type_partial_charge
C0 C 0.35379 0.31595 0.40235 0.0
N1 N 0.37618 0.31732 0.38661 0.0
N2 N 0.34431 0.34044 0.39518 0.0
C3 C 0.34113 0.29073 0.42463 0.0
C4 C 0.36173 0.35694 0.37484 0.0
N5 N 0.3815 0.34312 0.37 0.0
C6 C 0.35865 0.38596 0.35866 0.0
H7 H 0.32634 0.27372 0.41081 0.0
H8 H 0.32962 0.29796 0.44189 0.0
H9 H 0.35735 0.28063 0.43749 0.0
H10 H 0.3737 0.40408 0.37067 0.0
H11 H 0.33761 0.38929 0.35955 0.0
H12 H 0.36316 0.38743 0.33361 0.0
C13 C 0.71461 0.31158 0.29129 0.0
N14 N 0.73364 0.30481 0.31386 0.0
N15 N 0.7257 0.33652 0.27407 0.0
C16 C 0.68512 0.29389 0.28617 0.0
C17 C 0.7523 0.34461 0.28698 0.0
N18 N 0.75719 0.32509 0.31102 0.0
C19 C 0.77363 0.37136 0.27617 0.0
H20 H 0.68403 0.27747 0.26873 0.0
H21 H 0.67115 0.30825 0.27676 0.0
H22 H 0.67777 0.28189 0.3084 0.0
H23 H 0.78453 0.38343 0.29687 0.0
H24 H 0.76454 0.38637 0.25919 0.0
H25 H 0.78929 0.36425 0.26437 0.0
C26 C 0.7657 0.72395 0.36311 0.0
N27 N 0.76963 0.70431 0.34376 0.0
N28 N 0.74855 0.7401 0.34828 0.0
C29 C 0.77947 0.72843 0.39604 0.0
C30 C 0.7422 0.72972 0.31917 0.0
N31 N 0.75523 0.70819 0.31626 0.0
C32 C 0.72129 0.73853 0.29457 0.0
H33 H 0.76688 0.7127 0.41288 0.0
H34 H 0.78096 0.75107 0.40267 0.0
H35 H 0.80053 0.7244 0.39812 0.0
H36 H 0.73205 0.75012 0.27397 0.0
H37 H 0.71006 0.75311 0.30371 0.0
H38 H 0.70611 0.71857 0.2862 0.0
C39 C 0.35267 0.6625 0.31952 0.0
N40 N 0.3783 0.68098 0.31947 0.0
N41 N 0.33948 0.66696 0.34394 0.0
C42 C 0.34154 0.6383 0.29741 0.0
C43 C 0.35805 0.68864 0.35899 0.0
N44 N 0.38182 0.69705 0.34438 0.0
C45 C 0.3522 0.70289 0.38675 0.0
H46 H 0.33394 0.64779 0.2744 0.0
H47 H 0.32427 0.62117 0.30691 0.0
H48 H 0.35831 0.62793 0.29326 0.0
H49 H 0.36092 0.69287 0.40882 0.0
H50 H 0.32959 0.69976 0.38791 0.0
H51 H 0.36218 0.72673 0.38522 0.0
C52 C 0.34982 0.69295 0.74264 0.0
N53 N 0.3746 0.71246 0.74812 0.0
N54 N 0.33251 0.70506 0.72218 0.0
C55 C 0.34192 0.66221 0.75777 0.0
C56 C 0.34747 0.73269 0.71536 0.0
N57 N 0.37293 0.73742 0.73152 0.0
C58 C 0.33841 0.75389 0.69029 0.0
H59 H 0.34771 0.64688 0.74301 0.0
H60 H 0.3192 0.65513 0.75937 0.0
H61 H 0.35279 0.66082 0.78176 0.0
H62 H 0.33245 0.77126 0.70187 0.0
H63 H 0.3204 0.74283 0.67453 0.0
H64 H 0.35575 0.76472 0.67587 0.0
C65 C 0.36425 0.2976 0.67353 0.0
N66 N 0.36286 0.3187 0.69249 0.0
N67 N 0.38828 0.28889 0.68063 0.0
C68 C 0.34297 0.28709 0.64664 0.0
C69 C 0.40138 0.30566 0.70468 0.0
N70 N 0.38619 0.32413 0.71158 0.0
C71 C 0.42774 0.30195 0.72351 0.0
H72 H 0.32751 0.26745 0.65526 0.0
H73 H 0.35277 0.28093 0.62706 0.0
H74 H 0.33185 0.30423 0.63749 0.0
H75 H 0.44572 0.31737 0.71326 0.0
H76 H 0.4301 0.27919 0.72293 0.0
H77 H 0.42794 0.30693 0.74845 0.0
C78 C 0.72554 0.32009 0.71041 0.0
N79 N 0.74342 0.31608 0.69047 0.0
N80 N 0.73717 0.34375 0.72748 0.0
C81 C 0.69633 0.30174 0.71199 0.0
C82 C 0.76273 0.35382 0.71732 0.0
N83 N 0.76662 0.33697 0.69503 0.0
C84 C 0.78397 0.38024 0.72906 0.0
H85 H 0.68258 0.3105 0.69345 0.0
H86 H 0.68851 0.30235 0.73509 0.0
H87 H 0.69506 0.27856 0.70753 0.0
H88 H 0.78089 0.38416 0.75349 0.0
H89 H 0.78194 0.39989 0.71338 0.0
H90 H 0.80521 0.37731 0.72842 0.0
C91 C 0.75743 0.69605 0.65881 0.0
N92 N 0.76834 0.67232 0.66298 0.0
N93 N 0.76388 0.71124 0.63108 0.0
C94 C 0.73902 0.70334 0.68094 0.0
C95 C 0.77876 0.69555 0.6183 0.0
N96 N 0.78125 0.67166 0.63766 0.0
C97 C 0.79246 0.70467 0.58815 0.0
H98 H 0.72375 0.71463 0.66787 0.0
H99 H 0.75208 0.71823 0.69837 0.0
H100 H 0.72776 0.68326 0.69406 0.0
H101 H 0.79573 0.7287 0.5824 0.0
H102 H 0.77893 0.69297 0.5686 0.0
H103 H 0.81267 0.69865 0.58994 0.0
Co104 Co 0.11172 0.46593 0.54277 0.0
Co105 Co 0.08249 0.45044 0.48957 0.0
Co106 Co 0.05441 0.49256 0.51823 0.0
O107 O 0.07274 0.45893 0.52776 0.0
H108 H 0.06122 0.44181 0.53807 0.0
O109 O 0.03599 0.52613 0.50927 0.0
Co110 Co 0.99702 0.51983 0.49482 0.0
Co111 Co 0.02637 0.53404 0.54785 0.0
H112 H 0.04755 0.54338 0.49923 0.0
O113 O 0.09032 0.41524 0.48393 0.0
O114 O 0.12028 0.4564 0.50114 0.0
O115 O 0.07895 0.47714 0.45298 0.0
O116 O 0.07919 0.51236 0.48394 0.0
O117 O 0.02699 0.46898 0.48685 0.0
O118 O 0.96196 0.51733 0.4798 0.0
O119 O 0.99729 0.55773 0.48103 0.0
O120 O 0.99139 0.47911 0.5059 0.0
O121 O 0.02948 0.47286 0.55212 0.0
O122 O 0.03166 0.50764 0.58417 0.0
O123 O 0.98829 0.52672 0.53745 0.0
O124 O 0.01738 0.56827 0.55503 0.0
C125 C 0.13818 0.44192 0.5664 0.0
C126 C 0.10781 0.52177 0.54638 0.0
C127 C 0.08486 0.50415 0.45826 0.0
C128 C 0.11556 0.43019 0.49084 0.0
C129 C 0.97125 0.54535 0.47298 0.0
C130 C 1.00101 0.46353 0.4894 0.0
C131 C 0.02433 0.48082 0.57811 0.0
C132 C 0.99242 0.55201 0.54967 0.0
O133 O 0.14676 0.46962 0.55775 0.0
O134 O 0.11214 0.42863 0.55946 0.0
O135 O 0.08188 0.51631 0.5494 0.0
O136 O 0.11686 0.50602 0.52944 0.0
Co137 Co 0.59399 0.95314 0.50755 0.0
Co138 Co 0.60841 0.98026 0.55979 0.0
Co139 Co 0.56574 0.01046 0.51517 0.0
O140 O 0.5985 0.99269 0.5188 0.0
H141 H 0.61448 1.00594 0.51027 0.0
O142 O 0.53316 0.02911 0.5102 0.0
Co143 Co 0.53814 0.06957 0.52052 0.0
Co144 Co 0.52611 0.04264 0.46773 0.0
H145 H 0.51675 0.01609 0.51806 0.0
O146 O 0.64361 0.97324 0.57195 0.0
O147 O 0.60564 0.94152 0.5515 0.0
O148 O 0.58173 0.97869 0.58924 0.0
O149 O 0.54797 0.98589 0.55275 0.0
O150 O 0.58804 0.04186 0.54329 0.0
O151 O 0.54001 0.10573 0.53131 0.0
O152 O 0.50281 0.06729 0.53017 0.0
O153 O 0.57559 0.07764 0.51283 0.0
O154 O 0.58426 0.03467 0.47881 0.0
O155 O 0.55472 0.04555 0.43954 0.0
O156 O 0.52863 0.0814 0.47595 0.0
O157 O 0.49197 0.0506 0.45212 0.0
C158 C 0.61816 0.93007 0.48948 0.0
C159 C 0.54065 0.95161 0.4951 0.0
C160 C 0.55626 0.97705 0.58068 0.0
C161 C 0.63113 0.94699 0.56379 0.0
C162 C 0.51414 0.09473 0.53616 0.0
C163 C 0.59238 0.06908 0.53387 0.0
C164 C 0.5792 0.04529 0.4509 0.0
C165 C 0.50407 0.07675 0.46089 0.0
O166 O 0.59289 0.91748 0.49586 0.0
O167 O 0.62863 0.95754 0.49561 0.0
O168 O 0.54379 0.97896 0.48663 0.0
O169 O 0.55702 0.94389 0.51721 0.0
Co170 Co 0.53509 0.54307 0.07626 0.0
Co171 Co 0.51329 0.4945 0.04795 0.0
Co172 Co 0.56155 0.53396 0.0086 0.0
O173 O 0.52903 0.53319 0.03271 0.0
H174 H 0.5153 0.54187 0.02047 0.0
O175 O 0.59437 0.53399 0.98586 0.0
Co176 Co 0.5895 0.51728 0.94596 0.0
Co177 Co 0.60992 0.56974 0.9655 0.0
H178 H 0.60863 0.52763 0.99984 0.0
O179 O 0.47865 0.48249 0.06526 0.0
O180 O 0.52014 0.50173 0.09046 0.0
O181 O 0.53415 0.4655 0.04419 0.0
O182 O 0.57226 0.50015 0.03511 0.0
O183 O 0.53588 0.50599 0.97883 0.0
O184 O 0.58762 0.50047 0.90996 0.0
O185 O 0.6209 0.50421 0.95051 0.0
O186 O 0.55555 0.52798 0.93655 0.0
O187 O 0.55078 0.56802 0.98146 0.0
O188 O 0.58729 0.59747 0.95968 0.0
O189 O 0.60911 0.55532 0.92639 0.0
O190 O 0.64676 0.57916 0.95561 0.0
C191 C 0.51357 0.55853 0.10676 0.0
C192 C 0.58948 0.55518 0.06792 0.0
C193 C 0.56033 0.47389 0.04423 0.0
C194 C 0.4943 0.48811 0.09135 0.0
C195 C 0.61081 0.49496 0.9227 0.0
C196 C 0.53507 0.51064 0.94878 0.0
C197 C 0.56197 0.59143 0.96516 0.0
C198 C 0.63568 0.56671 0.92981 0.0
O199 O 0.53777 0.55351 0.11582 0.0
O200 O 0.50223 0.55237 0.07831 0.0
O201 O 0.58743 0.56183 0.03821 0.0
O202 O 0.57031 0.53567 0.07979 0.0
H203 H 0.2954 0.33915 0.36194 0.0
H204 H 0.25596 0.35414 0.37929 0.0
H205 H 0.30168 0.37254 0.47003 0.0
H206 H 0.34098 0.35753 0.45237 0.0
H207 H 0.24881 0.34228 0.47582 0.0
H208 H 0.29645 0.42715 0.41716 0.0
H209 H 0.31818 0.45612 0.37159 0.0
H210 H 0.23978 0.43754 0.3157 0.0
H211 H 0.21767 0.40778 0.36073 0.0
H212 H 0.17063 0.4499 0.51033 0.0
H213 H 0.2093 0.43181 0.49628 0.0
H214 H 0.15229 0.36858 0.43873 0.0
H215 H 0.11338 0.38521 0.45404 0.0
H216 H 0.21089 0.4218 0.4173 0.0
H217 H 0.16546 0.33262 0.48074 0.0
H218 H 0.14796 0.30597 0.52963 0.0
H219 H 0.22809 0.33635 0.57934 0.0
H220 H 0.24541 0.36464 0.53157 0.0
C221 C 0.29669 0.34626 0.38559 0.0
C222 C 0.32078 0.34731 0.40603 0.0
C223 C 0.27443 0.35495 0.3954 0.0
C224 C 0.27611 0.36475 0.42579 0.0
C225 C 0.30006 0.3651 0.44647 0.0
C226 C 0.32234 0.35655 0.43654 0.0
C227 C 0.25278 0.37436 0.43619 0.0
C228 C 0.24062 0.35977 0.46309 0.0
C229 C 0.24217 0.39719 0.4195 0.0
C230 C 0.25546 0.41487 0.39224 0.0
C231 C 0.28389 0.42889 0.39505 0.0
C232 C 0.29628 0.44548 0.36931 0.0
C233 C 0.2804 0.44858 0.34073 0.0
C234 C 0.25208 0.43506 0.33783 0.0
C235 C 0.23961 0.41829 0.36345 0.0
C236 C 0.16625 0.43166 0.49534 0.0
C237 C 0.13891 0.41864 0.48376 0.0
C238 C 0.18835 0.42148 0.48725 0.0
C239 C 0.18343 0.39865 0.4669 0.0
C240 C 0.15629 0.38588 0.45495 0.0
C241 C 0.13414 0.39543 0.46374 0.0
C242 C 0.2068 0.38933 0.45653 0.0
C243 C 0.21903 0.40415 0.42975 0.0
C244 C 0.21776 0.36702 0.47353 0.0
C245 C 0.20651 0.35144 0.50273 0.0
C246 C 0.17903 0.33447 0.50239 0.0
C247 C 0.16914 0.31897 0.52998 0.0
C248 C 0.18675 0.31977 0.55786 0.0
C249 C 0.21422 0.33613 0.55813 0.0
C250 C 0.22404 0.35206 0.53084 0.0
H251 H 0.17921 0.30748 0.57912 0.0
H252 H 0.29001 0.46157 0.32088 0.0
H253 H 0.71233 0.29715 0.36977 0.0
H254 H 0.69491 0.24973 0.39881 0.0
H255 H 0.72576 0.20589 0.33123 0.0
H256 H 0.74373 0.25357 0.30301 0.0
H257 H 0.65505 0.20872 0.37596 0.0
H258 H 0.73468 0.13944 0.36223 0.0
H259 H 0.78538 0.14633 0.3648 0.0
H260 H 0.79716 0.21917 0.4227 0.0
H261 H 0.74656 0.21247 0.42086 0.0
H262 H 0.5808 0.06529 0.38841 0.0
H263 H 0.6169 0.10474 0.3661 0.0
H264 H 0.66649 0.10807 0.4556 0.0
H265 H 0.63154 0.06767 0.47747 0.0
H266 H 0.69938 0.1255 0.40552 0.0
H267 H 0.62372 0.15621 0.44687 0.0
H268 H 0.57345 0.14527 0.4521 0.0
H269 H 0.55718 0.14905 0.35108 0.0
H270 H 0.60732 0.16145 0.3454 0.0
C271 C 0.71632 0.27741 0.36213 0.0
C272 C 0.72964 0.27869 0.33469 0.0
C273 C 0.70617 0.25036 0.3784 0.0
C274 C 0.70899 0.22416 0.36724 0.0
C275 C 0.72371 0.22575 0.34068 0.0
C276 C 0.734 0.25287 0.32457 0.0
C277 C 0.69362 0.1952 0.38075 0.0
C278 C 0.66499 0.19074 0.38255 0.0
C279 C 0.70633 0.17156 0.38975 0.0
C280 C 0.73681 0.17563 0.39109 0.0
C281 C 0.74808 0.15687 0.37559 0.0
C282 C 0.77681 0.16075 0.37691 0.0
C283 C 0.79448 0.18323 0.39381 0.0
C284 C 0.78346 0.20184 0.4095 0.0
C285 C 0.75476 0.19805 0.40826 0.0
C286 C 0.5998 0.07371 0.40298 0.0
C287 C 0.60302 0.06364 0.43482 0.0
C288 C 0.6204 0.0963 0.39027 0.0
C289 C 0.644 0.10986 0.4095 0.0
C290 C 0.64845 0.098 0.44035 0.0
C291 C 0.62826 0.07492 0.45283 0.0
C292 C 0.66109 0.13921 0.39952 0.0
C293 C 0.68981 0.1437 0.39871 0.0
C294 C 0.64883 0.16328 0.39239 0.0
C295 C 0.61911 0.16006 0.39572 0.0
C296 C 0.60935 0.15545 0.42584 0.0
C297 C 0.58089 0.14903 0.42887 0.0
C298 C 0.56206 0.14684 0.40193 0.0
C299 C 0.57171 0.15137 0.37194 0.0
C300 C 0.60015 0.15848 0.36877 0.0
H301 H 0.54001 0.14143 0.40423 0.0
H302 H 0.81672 0.1862 0.39479 0.0
H303 H 0.81121 0.69937 0.31093 0.0
H304 H 0.84631 0.67131 0.32841 0.0
H305 H 0.80351 0.63686 0.41122 0.0
H306 H 0.76838 0.66441 0.3934 0.0
H307 H 0.85869 0.66194 0.42597 0.0
H308 H 0.80237 0.59327 0.35374 0.0
H309 H 0.7787 0.57854 0.30185 0.0
H310 H 0.85677 0.60204 0.26147 0.0
H311 H 0.88087 0.61737 0.31304 0.0
H312 H 0.91776 0.52411 0.44926 0.0
H313 H 0.88507 0.55141 0.4234 0.0
H314 H 0.94731 0.63279 0.43369 0.0
H315 H 0.98039 0.60542 0.45994 0.0
H316 H 0.88437 0.58631 0.3699 0.0
H317 H 0.91271 0.68667 0.44559 0.0
H318 H 0.93266 0.70051 0.49917 0.0
H319 H 0.90593 0.61061 0.5346 0.0
H320 H 0.88554 0.59637 0.4817 0.0
C321 C 0.80905 0.68517 0.3324 0.0
C322 C 0.78736 0.6842 0.35104 0.0
C323 C 0.82912 0.6693 0.34248 0.0
C324 C 0.82772 0.6522 0.37134 0.0
C325 C 0.80523 0.65015 0.38909 0.0
C326 C 0.78516 0.66581 0.37892 0.0
C327 C 0.85031 0.63772 0.38416 0.0
C328 C 0.86443 0.64555 0.41357 0.0
C329 C 0.85781 0.61631 0.36807 0.0
C330 C 0.84339 0.60676 0.33717 0.0
C331 C 0.81447 0.59552 0.33374 0.0
C332 C 0.80098 0.58703 0.30439 0.0
C333 C 0.81622 0.58943 0.27836 0.0
C334 C 0.84499 0.60024 0.28165 0.0
C335 C 0.85858 0.60882 0.31093 0.0
C336 C 0.92465 0.54783 0.44604 0.0
C337 C 0.9518 0.56255 0.45681 0.0
C338 C 0.90589 0.56342 0.43102 0.0
C339 C 0.91359 0.5942 0.42655 0.0
C340 C 0.94077 0.60905 0.437 0.0
C341 C 0.95969 0.59338 0.45198 0.0
C342 C 0.8927 0.61043 0.41189 0.0
C343 C 0.87894 0.60302 0.38208 0.0
C344 C 0.88535 0.63218 0.42766 0.0
C345 C 0.898 0.64041 0.45959 0.0
C346 C 0.91116 0.66988 0.4649 0.0
C347 C 0.9225 0.67781 0.4952 0.0
C348 C 0.92069 0.65645 0.52037 0.0
C349 C 0.90749 0.62715 0.51525 0.0
C350 C 0.89607 0.61911 0.48508 0.0
H351 H 0.92945 0.66264 0.5438 0.0
H352 H 0.80573 0.58285 0.25566 0.0
H353 H 0.41382 0.70177 0.39934 0.0
H354 H 0.4426 0.74758 0.41999 0.0
H355 H 0.42944 0.79369 0.3298 0.0
H356 H 0.40024 0.74758 0.3093 0.0
H357 H 0.48553 0.81297 0.36296 0.0
H358 H 0.3891 0.80101 0.38069 0.0
H359 H 0.34358 0.77456 0.39828 0.0
H360 H 0.3818 0.75934 0.49138 0.0
H361 H 0.42751 0.78596 0.47437 0.0
H362 H 0.52161 0.95401 0.43185 0.0
H363 H 0.49611 0.91233 0.40089 0.0
H364 H 0.49312 0.85437 0.48544 0.0
H365 H 0.51846 0.89551 0.51614 0.0
H366 H 0.44376 0.84378 0.45033 0.0
H367 H 0.53949 0.8557 0.43464 0.0
H368 H 0.58561 0.8823 0.41905 0.0
H369 H 0.55067 0.89622 0.32411 0.0
H370 H 0.50421 0.87003 0.33923 0.0
C371 C 0.41791 0.72151 0.38368 0.0
C372 C 0.40493 0.72123 0.35277 0.0
C373 C 0.43412 0.74771 0.39552 0.0
C374 C 0.43782 0.77422 0.37663 0.0
C375 C 0.42684 0.77354 0.34484 0.0
C376 C 0.4104 0.74721 0.33303 0.0
C377 C 0.45085 0.80266 0.39117 0.0
C378 C 0.47619 0.82002 0.38167 0.0
C379 C 0.43901 0.81165 0.41603 0.0
C380 C 0.41169 0.79523 0.42619 0.0
C381 C 0.38779 0.79189 0.40486 0.0
C382 C 0.36194 0.77704 0.41478 0.0
C383 C 0.35981 0.76519 0.4459 0.0
C384 C 0.38349 0.76845 0.46726 0.0
C385 C 0.40934 0.78355 0.45754 0.0
C386 C 0.51508 0.93246 0.44383 0.0
C387 C 0.52203 0.92808 0.47646 0.0
C388 C 0.50077 0.9086 0.42609 0.0
C389 C 0.49292 0.88008 0.44076 0.0
C390 C 0.49895 0.87606 0.47351 0.0
C391 C 0.51345 0.89966 0.49106 0.0
C392 C 0.47865 0.85412 0.42243 0.0
C393 C 0.45303 0.83707 0.43133 0.0
C394 C 0.49043 0.8454 0.39728 0.0
C395 C 0.5183 0.86125 0.38816 0.0
C396 C 0.54158 0.86469 0.41051 0.0
C397 C 0.5678 0.87963 0.40176 0.0
C398 C 0.57106 0.89102 0.37065 0.0
C399 C 0.5481 0.88744 0.34822 0.0
C400 C 0.52182 0.87254 0.35686 0.0
H401 H 0.59138 0.90256 0.36392 0.0
H402 H 0.33981 0.75353 0.45346 0.0
H403 H 0.32796 0.66435 0.68094 0.0
H404 H 0.28538 0.63834 0.65114 0.0
H405 H 0.23793 0.68506 0.69638 0.0
H406 H 0.28094 0.71149 0.72586 0.0
H407 H 0.21597 0.61982 0.6939 0.0
H408 H 0.24708 0.70745 0.62745 0.0
H409 H 0.28214 0.74437 0.59951 0.0
H410 H 0.29428 0.67771 0.54416 0.0
H411 H 0.25968 0.64025 0.57221 0.0
H412 H 0.09791 0.55703 0.58958 0.0
H413 H 0.13238 0.59366 0.61968 0.0
H414 H 0.19742 0.57572 0.57198 0.0
H415 H 0.16339 0.53977 0.54167 0.0
H416 H 0.20624 0.63286 0.57686 0.0
H417 H 0.18479 0.54533 0.64665 0.0
H418 H 0.15417 0.50471 0.67591 0.0
H419 H 0.12762 0.56699 0.725 0.0
H420 H 0.15795 0.60801 0.69577 0.0
C421 C 0.30835 0.66888 0.68443 0.0
C422 C 0.30736 0.68967 0.70545 0.0
C423 C 0.28417 0.65417 0.66749 0.0
C424 C 0.25861 0.65992 0.67154 0.0
C425 C 0.2575 0.68038 0.69301 0.0
C426 C 0.28187 0.69544 0.70967 0.0
C427 C 0.23329 0.64453 0.65286 0.0
C428 C 0.21339 0.62312 0.66836 0.0
C429 C 0.2305 0.64838 0.61953 0.0
C430 C 0.25089 0.67099 0.6021 0.0
C431 C 0.25735 0.70061 0.60947 0.0
C432 C 0.27714 0.72165 0.5936 0.0
C433 C 0.29046 0.71339 0.5701 0.0
C434 C 0.28395 0.68408 0.56237 0.0
C435 C 0.26423 0.66294 0.57824 0.0
C436 C 0.11953 0.56112 0.58534 0.0
C437 C 0.12789 0.54534 0.56337 0.0
C438 C 0.13921 0.58195 0.60264 0.0
C439 C 0.16753 0.58724 0.59829 0.0
C440 C 0.17572 0.5721 0.57571 0.0
C441 C 0.15617 0.5514 0.55848 0.0
C442 C 0.18901 0.60769 0.6178 0.0
C443 C 0.20832 0.63 0.60244 0.0
C444 C 0.19158 0.60425 0.65122 0.0
C445 C 0.17332 0.5797 0.66875 0.0
C446 C 0.17224 0.55035 0.66349 0.0
C447 C 0.15499 0.52726 0.68011 0.0
C448 C 0.13887 0.53327 0.70221 0.0
C449 C 0.14006 0.56238 0.70782 0.0
C450 C 0.15729 0.58555 0.69126 0.0
H451 H 0.12552 0.51537 0.71505 0.0
H452 H 0.30579 0.7297 0.55786 0.0
H453 H 0.36077 0.23391 0.66441 0.0
H454 H 0.3782 0.20006 0.63638 0.0
H455 H 0.45752 0.26287 0.63509 0.0
H456 H 0.43921 0.29751 0.66043 0.0
H457 H 0.44818 0.24162 0.58295 0.0
H458 H 0.44147 0.19553 0.68768 0.0
H459 H 0.41845 0.1739 0.73548 0.0
H460 H 0.36145 0.10853 0.68113 0.0
H461 H 0.38393 0.13001 0.6329 0.0
H462 H 0.53454 0.14988 0.55654 0.0
H463 H 0.51008 0.18135 0.57762 0.0
H464 H 0.43316 0.11568 0.56353 0.0
H465 H 0.45797 0.08333 0.54307 0.0
H466 H 0.43717 0.13664 0.61963 0.0
H467 H 0.45025 0.18526 0.51423 0.0
H468 H 0.47739 0.2098 0.47018 0.0
H469 H 0.52878 0.2724 0.53172 0.0
H470 H 0.50213 0.24849 0.57626 0.0
C471 C 0.3818 0.24056 0.65775 0.0
C472 C 0.39864 0.26837 0.6648 0.0
C473 C 0.39196 0.22098 0.64212 0.0
C474 C 0.4195 0.22842 0.63395 0.0
C475 C 0.43625 0.2563 0.64103 0.0
C476 C 0.4259 0.27605 0.65596 0.0
C477 C 0.43096 0.2077 0.61758 0.0
C478 C 0.44595 0.21875 0.59131 0.0
C479 C 0.42772 0.17753 0.6277 0.0
C480 C 0.41417 0.16458 0.65663 0.0
C481 C 0.4239 0.17668 0.68589 0.0
C482 C 0.41097 0.16442 0.71306 0.0
C483 C 0.38845 0.13991 0.71132 0.0
C484 C 0.37886 0.12755 0.68242 0.0
C485 C 0.39169 0.13974 0.65517 0.0
C486 C 0.51237 0.14203 0.55766 0.0
C487 C 0.49828 0.11392 0.54803 0.0
C488 C 0.49828 0.16032 0.56955 0.0
C489 C 0.46953 0.15138 0.57167 0.0
C490 C 0.45531 0.12329 0.56202 0.0
C491 C 0.46951 0.10477 0.5503 0.0
C492 C 0.45485 0.1708 0.58548 0.0
C493 C 0.43916 0.15947 0.61118 0.0
C494 C 0.45812 0.20097 0.57543 0.0
C495 C 0.47431 0.21493 0.54863 0.0
C496 C 0.46745 0.20412 0.51844 0.0
C497 C 0.48268 0.21794 0.49337 0.0
C498 C 0.50477 0.24245 0.49812 0.0
C499 C 0.51168 0.25337 0.52803 0.0
C500 C 0.49648 0.23978 0.55318 0.0
H501 H 0.51648 0.25301 0.47859 0.0
H502 H 0.37847 0.13045 0.73239 0.0
H503 H 0.81058 0.31314 0.70472 0.0
H504 H 0.85539 0.33298 0.68281 0.0
H505 H 0.82139 0.39837 0.62563 0.0
H506 H 0.77642 0.3776 0.64687 0.0
H507 H 0.85751 0.38391 0.59432 0.0
H508 H 0.85742 0.4148 0.69731 0.0
H509 H 0.85117 0.40974 0.75422 0.0
H510 H 0.91219 0.35882 0.77152 0.0
H511 H 0.91876 0.36354 0.71466 0.0
H512 H 0.99928 0.49318 0.62748 0.0
H513 H 0.95573 0.46478 0.64682 0.0
H514 H 0.9548 0.39524 0.5873 0.0
H515 H 0.99817 0.42358 0.56749 0.0
H516 H 0.93584 0.41313 0.67632 0.0
H517 H 0.88849 0.37135 0.55253 0.0
H518 H 0.89327 0.38778 0.49637 0.0
H519 H 0.92389 0.47724 0.52118 0.0
H520 H 0.91872 0.46151 0.57729 0.0
C521 C 0.8125 0.33085 0.6864 0.0
C522 C 0.79014 0.34352 0.67681 0.0
C523 C 0.83814 0.34252 0.67428 0.0
C524 C 0.84195 0.36753 0.65293 0.0
C525 C 0.81903 0.37906 0.64196 0.0
C526 C 0.79335 0.36718 0.6539 0.0
C527 C 0.87017 0.38316 0.64425 0.0
C528 C 0.87469 0.38997 0.61224 0.0
C529 C 0.89239 0.39238 0.66759 0.0
C530 C 0.88835 0.38924 0.70173 0.0
C531 C 0.86936 0.40234 0.71323 0.0
C532 C 0.86581 0.3996 0.74548 0.0
C533 C 0.88117 0.38384 0.76645 0.0
C534 C 0.90024 0.37094 0.75524 0.0
C535 C 0.90394 0.3737 0.72302 0.0
C536 C 0.99025 0.47153 0.61905 0.0
C537 C 1.0022 0.46084 0.59567 0.0
C538 C 0.96525 0.45533 0.6301 0.0
C539 C 0.95171 0.42816 0.61802 0.0
C540 C 0.96463 0.41642 0.59651 0.0
C541 C 0.9896 0.43259 0.58542 0.0
C542 C 0.92337 0.41298 0.62643 0.0
C543 C 0.91879 0.40651 0.65838 0.0
C544 C 0.90081 0.40546 0.60306 0.0
C545 C 0.90356 0.41514 0.5692 0.0
C546 C 0.89614 0.39453 0.54598 0.0
C547 C 0.89891 0.40374 0.51415 0.0
C548 C 0.909 0.43352 0.50525 0.0
C549 C 0.9162 0.45418 0.52812 0.0
C550 C 0.91334 0.44512 0.55993 0.0
H551 H 0.91118 0.4406 0.48063 0.0
H552 H 0.87837 0.38171 0.7914 0.0
H553 H 0.73622 0.71918 0.57441 0.0
H554 H 0.71691 0.76154 0.5557 0.0
H555 H 0.75271 0.80369 0.64144 0.0
H556 H 0.77271 0.7619 0.65931 0.0
H557 H 0.67922 0.77872 0.58065 0.0
H558 H 0.7645 0.87646 0.63152 0.0
H559 H 0.81552 0.89301 0.63766 0.0
H560 H 0.82077 0.84223 0.56101 0.0
H561 H 0.76979 0.82569 0.55414 0.0
H562 H 0.61679 0.89488 0.59777 0.0
H563 H 0.64138 0.85552 0.60474 0.0
H564 H 0.70117 0.90576 0.5425 0.0
H565 H 0.67806 0.94612 0.53827 0.0
H566 H 0.72777 0.88404 0.58559 0.0
H567 H 0.64497 0.83819 0.52203 0.0
H568 H 0.59458 0.8204 0.50734 0.0
H569 H 0.58606 0.76762 0.59479 0.0
H570 H 0.63626 0.78489 0.60969 0.0
C571 C 0.74049 0.73794 0.58868 0.0
C572 C 0.75578 0.73748 0.61823 0.0
C573 C 0.72934 0.76196 0.57819 0.0
C574 C 0.7334 0.78588 0.59711 0.0
C575 C 0.74962 0.78579 0.62615 0.0
C576 C 0.76085 0.76188 0.6365 0.0
C577 C 0.71876 0.80966 0.58802 0.0
C578 C 0.68989 0.80181 0.58125 0.0
C579 C 0.73263 0.83976 0.5885 0.0
C580 C 0.76332 0.8496 0.59256 0.0
C581 C 0.77653 0.86889 0.61592 0.0
C582 C 0.80545 0.87826 0.61954 0.0
C583 C 0.82138 0.8686 0.59981 0.0
C584 C 0.80842 0.8496 0.57637 0.0
C585 C 0.77951 0.84017 0.57266 0.0
C586 C 0.63534 0.89739 0.58585 0.0
C587 C 0.64583 0.9234 0.56778 0.0
C588 C 0.64918 0.87475 0.58939 0.0
C589 C 0.67297 0.87716 0.57362 0.0
C590 C 0.68307 0.9032 0.55511 0.0
C591 C 0.66989 0.9263 0.55266 0.0
C592 C 0.68812 0.85331 0.5775 0.0
C593 C 0.71709 0.86107 0.58403 0.0
C594 C 0.67443 0.82315 0.57557 0.0
C595 C 0.64421 0.81307 0.56697 0.0
C596 C 0.6322 0.82297 0.53808 0.0
C597 C 0.60376 0.81295 0.52974 0.0
C598 C 0.58713 0.7931 0.55021 0.0
C599 C 0.59894 0.78306 0.57898 0.0
C600 C 0.62739 0.79286 0.58731 0.0
H601 H 0.56512 0.78541 0.54373 0.0
H602 H 0.84376 0.87588 0.60265 0.0
H603 H 0.35577 0.2617 0.37084 0.0
H604 H 0.37895 0.22121 0.38134 0.0
H605 H 0.45375 0.28205 0.41644 0.0
H606 H 0.43026 0.32262 0.40579 0.0
H607 H 0.46482 0.24176 0.38117 0.0
H608 H 0.41348 0.24034 0.46847 0.0
H609 H 0.3726 0.24104 0.49548 0.0
H610 H 0.32822 0.1597 0.45657 0.0
H611 H 0.36873 0.15876 0.4289 0.0
H612 H 0.52602 0.13496 0.47056 0.0
H613 H 0.50549 0.1763 0.45326 0.0
H614 H 0.43208 0.1167 0.41334 0.0
H615 H 0.45269 0.07511 0.43012 0.0
H616 H 0.42079 0.15666 0.45102 0.0
H617 H 0.47354 0.16222 0.36031 0.0
H618 H 0.5143 0.16656 0.33096 0.0
H619 H 0.55818 0.2421 0.38086 0.0
H620 H 0.5174 0.2385 0.41005 0.0
C621 C 0.37725 0.26631 0.38044 0.0
C622 C 0.3913 0.29495 0.38785 0.0
C623 C 0.39042 0.24328 0.38658 0.0
C624 C 0.41787 0.24853 0.40034 0.0
C625 C 0.43249 0.27751 0.40602 0.0
C626 C 0.41923 0.30062 0.39984 0.0
C627 C 0.43085 0.22354 0.40952 0.0
C628 C 0.45538 0.22333 0.39677 0.0
C629 C 0.41837 0.19934 0.4296 0.0
C630 C 0.39401 0.19966 0.44633 0.0
C631 C 0.39491 0.22273 0.46545 0.0
C632 C 0.37184 0.22315 0.48093 0.0
C633 C 0.3478 0.20047 0.47767 0.0
C634 C 0.34684 0.17728 0.45902 0.0
C635 C 0.36986 0.17678 0.44345 0.0
C636 C 0.50556 0.13058 0.45796 0.0
C637 C 0.49109 0.1017 0.45153 0.0
C638 C 0.49391 0.15431 0.44793 0.0
C639 C 0.46742 0.14962 0.43157 0.0
C640 C 0.45267 0.1208 0.42566 0.0
C641 C 0.46445 0.09706 0.43535 0.0
C642 C 0.45456 0.17466 0.42221 0.0
C643 C 0.43008 0.17497 0.4352 0.0
C644 C 0.46739 0.19922 0.40287 0.0
C645 C 0.49258 0.19996 0.38743 0.0
C646 C 0.492 0.17955 0.36523 0.0
C647 C 0.515 0.18205 0.34844 0.0
C648 C 0.53879 0.20465 0.35399 0.0
C649 C 0.53971 0.22468 0.37651 0.0
C650 C 0.51663 0.22251 0.39306 0.0
H651 H 0.55656 0.20661 0.34089 0.0
H652 H 0.32995 0.20084 0.48966 0.0
H653 H 0.76245 0.3301 0.37375 0.0
H654 H 0.80603 0.34476 0.40731 0.0
H655 H 0.85196 0.3428 0.3281 0.0
H656 H 0.80825 0.32675 0.29513 0.0
H657 H 0.8796 0.32747 0.38227 0.0
H658 H 0.83504 0.40525 0.34319 0.0
H659 H 0.79654 0.42998 0.33545 0.0
H660 H 0.79772 0.43286 0.43583 0.0
H661 H 0.83598 0.40772 0.44418 0.0
H662 H 0.97703 0.4775 0.43254 0.0
H663 H 0.93747 0.44674 0.4025 0.0
H664 H 0.93916 0.37412 0.47163 0.0
H665 H 0.97894 0.40511 0.5017 0.0
H666 H 0.88796 0.42464 0.42389 0.0
H667 H 0.91035 0.3092 0.43267 0.0
H668 H 0.9504 0.28699 0.43552 0.0
H669 H 0.99714 0.36473 0.38762 0.0
H670 H 0.95727 0.3872 0.38409 0.0
C671 C 0.78186 0.33173 0.36398 0.0
C672 C 0.78219 0.3277 0.33192 0.0
C673 C 0.80674 0.34035 0.383 0.0
C674 C 0.83229 0.34554 0.37003 0.0
C675 C 0.83255 0.33912 0.33861 0.0
C676 C 0.80765 0.33022 0.31972 0.0
C677 C 0.85837 0.36105 0.38771 0.0
C678 C 0.88139 0.34859 0.39163 0.0
C679 C 0.86095 0.38895 0.39932 0.0
C680 C 0.83813 0.40431 0.39431 0.0
C681 C 0.82696 0.41098 0.36361 0.0
C682 C 0.80519 0.42508 0.35912 0.0
C683 C 0.79464 0.4329 0.38514 0.0
C684 C 0.80588 0.42672 0.41571 0.0
C685 C 0.8276 0.41255 0.42033 0.0
C686 C 0.96941 0.45469 0.44071 0.0
C687 C 0.98117 0.44331 0.46888 0.0
C688 C 0.94673 0.43723 0.42375 0.0
C689 C 0.93539 0.4081 0.43476 0.0
C690 C 0.94782 0.39637 0.46245 0.0
C691 C 0.97052 0.41397 0.47953 0.0
C692 C 0.90925 0.3911 0.41857 0.0
C693 C 0.88615 0.40333 0.41495 0.0
C694 C 0.90689 0.36338 0.4067 0.0
C695 C 0.93092 0.35 0.40849 0.0
C696 C 0.92916 0.32151 0.42269 0.0
C697 C 0.95182 0.30888 0.42442 0.0
C698 C 0.97633 0.32449 0.41187 0.0
C699 C 0.97819 0.35272 0.39747 0.0
C700 C 0.95558 0.36543 0.39565 0.0
H701 H 0.99386 0.31467 0.41324 0.0
H702 H 0.77779 0.44383 0.38161 0.0
H703 H 0.71369 0.72874 0.39383 0.0
H704 H 0.69335 0.76408 0.41609 0.0
H705 H 0.73813 0.83398 0.35533 0.0
H706 H 0.75795 0.79829 0.33265 0.0
H707 H 0.74047 0.84663 0.42193 0.0
H708 H 0.67526 0.812 0.33439 0.0
H709 H 0.64435 0.77415 0.302 0.0
H710 H 0.59613 0.74093 0.38047 0.0
H711 H 0.62709 0.77825 0.41354 0.0
H712 H 0.66735 0.94997 0.46192 0.0
H713 H 0.69197 0.92088 0.43642 0.0
H714 H 0.6312 0.84176 0.46217 0.0
H715 H 0.606 0.87088 0.4859 0.0
H716 H 0.63895 0.83692 0.40812 0.0
H717 H 0.71005 0.86225 0.49879 0.0
H718 H 0.74498 0.89512 0.53338 0.0
H719 H 0.78152 0.94342 0.4523 0.0
H720 H 0.7476 0.91027 0.41723 0.0
C721 C 0.71909 0.75168 0.38539 0.0
C722 C 0.73721 0.76101 0.36165 0.0
C723 C 0.70752 0.77179 0.39799 0.0
C724 C 0.71418 0.80164 0.38729 0.0
C725 C 0.73275 0.81107 0.36392 0.0
C726 C 0.74396 0.79081 0.35095 0.0
C727 C 0.70141 0.82278 0.40035 0.0
C728 C 0.71829 0.84478 0.41871 0.0
C729 C 0.67248 0.82005 0.39649 0.0
C730 C 0.65367 0.79776 0.37654 0.0
C731 C 0.65822 0.79646 0.34484 0.0
C732 C 0.64067 0.77512 0.32634 0.0
C733 C 0.61833 0.75511 0.33919 0.0
C734 C 0.61347 0.75643 0.37056 0.0
C735 C 0.63101 0.77768 0.38919 0.0
C736 C 0.65943 0.92633 0.46233 0.0
C737 C 0.63467 0.91274 0.47595 0.0
C738 C 0.67373 0.90957 0.448 0.0
C739 C 0.66392 0.87878 0.44768 0.0
C740 C 0.6394 0.86537 0.46184 0.0
C741 C 0.62498 0.88207 0.47565 0.0
C742 C 0.67781 0.86039 0.43119 0.0
C743 C 0.66113 0.83891 0.41174 0.0
C744 C 0.7069 0.86331 0.43447 0.0
C745 C 0.7261 0.88414 0.45544 0.0
C746 C 0.72538 0.88006 0.48837 0.0
C747 C 0.74507 0.89859 0.50805 0.0
C748 C 0.76515 0.9215 0.49507 0.0
C749 C 0.76586 0.92576 0.46234 0.0
C750 C 0.74658 0.907 0.44256 0.0
H751 H 0.78028 0.93583 0.51039 0.0
H752 H 0.60475 0.73861 0.32482 0.0
H753 H 0.32653 0.63577 0.39858 0.0
H754 H 0.28005 0.60904 0.41258 0.0
H755 H 0.24461 0.63742 0.32193 0.0
H756 H 0.29122 0.66395 0.30802 0.0
H757 H 0.21515 0.64358 0.37131 0.0
H758 H 0.251 0.5702 0.3325 0.0
H759 H 0.28436 0.54031 0.32854 0.0
H760 H 0.2754 0.50611 0.42454 0.0
H761 H 0.24242 0.53631 0.42935 0.0
H762 H 0.1021 0.49516 0.40202 0.0
H763 H 0.14201 0.52502 0.3763 0.0
H764 H 0.15461 0.58924 0.44574 0.0
H765 H 0.11447 0.55987 0.47121 0.0
H766 H 0.19354 0.53631 0.40038 0.0
H767 H 0.18937 0.65611 0.41694 0.0
H768 H 0.15443 0.68495 0.41698 0.0
H769 H 0.09703 0.62426 0.35764 0.0
H770 H 0.13173 0.59528 0.35689 0.0
C771 C 0.30871 0.63625 0.38182 0.0
C772 C 0.3122 0.65174 0.35229 0.0
C773 C 0.28227 0.62097 0.3897 0.0
C774 C 0.25886 0.6211 0.36822 0.0
C775 C 0.26235 0.63701 0.33885 0.0
C776 C 0.28885 0.65202 0.33086 0.0
C777 C 0.2308 0.60458 0.37644 0.0
C778 C 0.21039 0.62012 0.37765 0.0
C779 C 0.22441 0.57386 0.38408 0.0
C780 C 0.24447 0.55585 0.3814 0.0
C781 C 0.25638 0.55659 0.35291 0.0
C782 C 0.27518 0.53954 0.35049 0.0
C783 C 0.28208 0.52143 0.37632 0.0
C784 C 0.2701 0.52024 0.40459 0.0
C785 C 0.25136 0.53734 0.40718 0.0
C786 C 0.11289 0.51601 0.41137 0.0
C787 C 0.105 0.52502 0.43877 0.0
C788 C 0.13587 0.53299 0.39673 0.0
C789 C 0.15145 0.55939 0.40905 0.0
C790 C 0.14278 0.56919 0.43545 0.0
C791 C 0.11971 0.5523 0.45002 0.0
C792 C 0.17795 0.57538 0.39597 0.0
C793 C 0.19818 0.55975 0.39394 0.0
C794 C 0.18401 0.60591 0.38714 0.0
C795 C 0.1631 0.6234 0.3871 0.0
C796 C 0.16934 0.649 0.40378 0.0
C797 C 0.14956 0.66536 0.40395 0.0
C798 C 0.1235 0.6564 0.3874 0.0
C799 C 0.11719 0.63112 0.37055 0.0
C800 C 0.13689 0.61469 0.37028 0.0
H801 H 0.10822 0.66908 0.38758 0.0
H802 H 0.2967 0.50832 0.37442 0.0
H803 H 0.3741 0.79284 0.74289 0.0
H804 H 0.40593 0.83751 0.72234 0.0
H805 H 0.45336 0.78414 0.68743 0.0
H806 H 0.42103 0.73949 0.70758 0.0
H807 H 0.45982 0.86461 0.72777 0.0
H808 H 0.46935 0.81214 0.61292 0.0
H809 H 0.44279 0.77209 0.5802 0.0
H810 H 0.36726 0.77821 0.61496 0.0
H811 H 0.39329 0.81858 0.64748 0.0
H812 H 0.56626 0.95349 0.64056 0.0
H813 H 0.53427 0.91661 0.67086 0.0
H814 H 0.46736 0.92297 0.59964 0.0
H815 H 0.49959 0.95941 0.56847 0.0
H816 H 0.46698 0.86824 0.61244 0.0
H817 H 0.47101 0.94727 0.67573 0.0
H818 H 0.49262 0.98993 0.70708 0.0
H819 H 0.53254 0.93561 0.77307 0.0
H820 H 0.51147 0.89268 0.74187 0.0
C821 C 0.39182 0.79088 0.73158 0.0
C822 C 0.39527 0.76298 0.72671 0.0
C823 C 0.40995 0.8163 0.71983 0.0
C824 C 0.43174 0.81418 0.70282 0.0
C825 C 0.43644 0.78629 0.70008 0.0
C826 C 0.41825 0.76084 0.71187 0.0
C827 C 0.44789 0.84083 0.6857 0.0
C828 C 0.46153 0.86539 0.70258 0.0
C829 C 0.44926 0.84229 0.65262 0.0
C830 C 0.43335 0.81817 0.63291 0.0
C831 C 0.44707 0.805 0.6135 0.0
C832 C 0.4321 0.78224 0.59499 0.0
C833 C 0.40337 0.77254 0.59559 0.0
C834 C 0.38953 0.78566 0.61461 0.0
C835 C 0.40438 0.80847 0.63311 0.0
C836 C 0.54464 0.94757 0.6315 0.0
C837 C 0.53562 0.95943 0.60187 0.0
C838 C 0.52628 0.92645 0.64903 0.0
C839 C 0.49829 0.91695 0.63768 0.0
C840 C 0.48887 0.92983 0.60889 0.0
C841 C 0.50731 0.95088 0.59118 0.0
C842 C 0.47961 0.89193 0.65459 0.0
C843 C 0.4654 0.86758 0.63764 0.0
C844 C 0.4771 0.89104 0.68743 0.0
C845 C 0.48982 0.9168 0.7063 0.0
C846 C 0.48457 0.94446 0.69679 0.0
C847 C 0.49669 0.96869 0.71456 0.0
C848 C 0.51399 0.9655 0.74201 0.0
C849 C 0.51915 0.93805 0.75179 0.0
C850 C 0.50709 0.91375 0.73409 0.0
H851 H 0.52335 0.98428 0.75574 0.0
H852 H 0.39182 0.75491 0.58126 0.0
H853 H 0.31297 0.29693 0.71417 0.0
H854 H 0.27208 0.31746 0.70259 0.0
H855 H 0.32134 0.3928 0.65243 0.0
H856 H 0.36237 0.37256 0.6654 0.0
H857 H 0.28437 0.40978 0.68087 0.0
H858 H 0.28123 0.32976 0.61662 0.0
H859 H 0.28029 0.27893 0.60591 0.0
H860 H 0.20549 0.24704 0.65211 0.0
H861 H 0.20624 0.2977 0.66359 0.0
H862 H 0.19413 0.45894 0.56652 0.0
H863 H 0.22886 0.4366 0.59584 0.0
H864 H 0.16447 0.36784 0.63486 0.0
H865 H 0.12909 0.38979 0.60406 0.0
H866 H 0.20398 0.34509 0.62299 0.0
H867 H 0.20381 0.42614 0.67924 0.0
H868 H 0.20358 0.47726 0.68739 0.0
H869 H 0.28424 0.5078 0.65368 0.0
H870 H 0.28477 0.45692 0.64476 0.0
C871 C 0.31504 0.31828 0.70152 0.0
C872 C 0.34064 0.33339 0.69085 0.0
C873 C 0.29169 0.32989 0.69459 0.0
C874 C 0.29332 0.35644 0.67595 0.0
C875 C 0.31939 0.37229 0.66677 0.0
C876 C 0.34285 0.36084 0.67419 0.0
C877 C 0.26774 0.36661 0.66395 0.0
C878 C 0.267 0.39573 0.6678 0.0
C879 C 0.24437 0.348 0.64803 0.0
C880 C 0.24406 0.31748 0.64147 0.0
C881 C 0.26477 0.31188 0.62486 0.0
C882 C 0.26423 0.28311 0.61856 0.0
C883 C 0.24291 0.25976 0.62845 0.0
C884 C 0.22205 0.26515 0.64457 0.0
C885 C 0.22253 0.29388 0.651 0.0
C886 C 0.18717 0.43901 0.58124 0.0
C887 C 0.15871 0.42636 0.58316 0.0
C888 C 0.20719 0.42634 0.59832 0.0
C889 C 0.1995 0.40105 0.61862 0.0
C890 C 0.17105 0.38762 0.61978 0.0
C891 C 0.15082 0.40013 0.60213 0.0
C892 C 0.2215 0.38879 0.63783 0.0
C893 C 0.22139 0.35917 0.63591 0.0
C894 C 0.24417 0.40698 0.65526 0.0
C895 C 0.24425 0.43765 0.66117 0.0
C896 C 0.22145 0.44375 0.67341 0.0
C897 C 0.22126 0.4727 0.67817 0.0
C898 C 0.24387 0.49576 0.67102 0.0
C899 C 0.26675 0.48991 0.6592 0.0
C900 C 0.26701 0.461 0.65433 0.0
H901 H 0.24366 0.51817 0.67468 0.0
H902 H 0.24251 0.23749 0.62353 0.0
H903 H 0.70334 0.30789 0.64236 0.0
H904 H 0.68704 0.26372 0.61243 0.0
H905 H 0.75459 0.22932 0.65842 0.0
H906 H 0.77023 0.2731 0.68929 0.0
H907 H 0.72878 0.2238 0.57889 0.0
H908 H 0.71567 0.19614 0.69314 0.0
H909 H 0.70277 0.2086 0.74339 0.0
H910 H 0.62432 0.21829 0.6977 0.0
H911 H 0.63699 0.20625 0.6471 0.0
H912 H 0.62643 0.06448 0.58863 0.0
H913 H 0.66188 0.10443 0.61309 0.0
H914 H 0.64613 0.16466 0.53482 0.0
H915 H 0.61157 0.12521 0.51018 0.0
H916 H 0.6538 0.15377 0.63326 0.0
H917 H 0.70139 0.21937 0.52284 0.0
H918 H 0.71166 0.2093 0.47031 0.0
H919 H 0.72023 0.12347 0.50619 0.0
H920 H 0.71039 0.13311 0.559 0.0
C921 C 0.71502 0.29117 0.64543 0.0
C922 C 0.73796 0.29375 0.66806 0.0
C923 C 0.70582 0.26608 0.6283 0.0
C924 C 0.71965 0.24332 0.63322 0.0
C925 C 0.74382 0.2468 0.6541 0.0
C926 C 0.75283 0.27182 0.67156 0.0
C927 C 0.7063 0.21447 0.62023 0.0
C928 C 0.71261 0.20823 0.59081 0.0
C929 C 0.68531 0.19425 0.63589 0.0
C930 C 0.67732 0.20047 0.66643 0.0
C931 C 0.69573 0.20105 0.69384 0.0
C932 C 0.68845 0.20801 0.72236 0.0
C933 C 0.66274 0.21425 0.72374 0.0
C934 C 0.64422 0.21344 0.69661 0.0
C935 C 0.65142 0.20652 0.66803 0.0
C936 C 0.63097 0.08612 0.57642 0.0
C937 C 0.61604 0.09165 0.54758 0.0
C938 C 0.65112 0.10895 0.59045 0.0
C939 C 0.6569 0.13756 0.5757 0.0
C940 C 0.64253 0.14277 0.54647 0.0
C941 C 0.62251 0.12012 0.53252 0.0
C942 C 0.67618 0.16262 0.59168 0.0
C943 C 0.67058 0.1686 0.62157 0.0
C944 C 0.69785 0.18247 0.57629 0.0
C945 C 0.70504 0.17696 0.54491 0.0
C946 C 0.70574 0.19845 0.51962 0.0
C947 C 0.71141 0.19279 0.48977 0.0
C948 C 0.71657 0.16576 0.48494 0.0
C949 C 0.71619 0.14438 0.50997 0.0
C950 C 0.71055 0.14993 0.53986 0.0
H951 H 0.72091 0.16137 0.46185 0.0
H952 H 0.65718 0.21971 0.74581 0.0
H953 H 0.82407 0.66206 0.67713 0.0
H954 H 0.85698 0.6337 0.66727 0.0
H955 H 0.80898 0.60813 0.57964 0.0
H956 H 0.77611 0.63677 0.58957 0.0
H957 H 0.8355 0.56195 0.61962 0.0
H958 H 0.85528 0.66031 0.5669 0.0
H959 H 0.86204 0.71417 0.56503 0.0
H960 H 0.92756 0.71955 0.63994 0.0
H961 H 0.92096 0.66562 0.64242 0.0
H962 H 0.93707 0.53373 0.53068 0.0
H963 H 0.89872 0.54749 0.5513 0.0
H964 H 0.95676 0.60114 0.61764 0.0
H965 H 0.99507 0.58877 0.59595 0.0
H966 H 0.92409 0.63042 0.59308 0.0
H967 H 0.90999 0.53242 0.63854 0.0
H968 H 0.90375 0.47864 0.63986 0.0
H969 H 0.82829 0.47105 0.57913 0.0
H970 H 0.83431 0.52483 0.57691 0.0
C971 C 0.82023 0.64966 0.65628 0.0
C972 C 0.79785 0.65152 0.63399 0.0
C973 C 0.83892 0.63352 0.65066 0.0
C974 C 0.8353 0.61883 0.62277 0.0
C975 C 0.81192 0.61911 0.60141 0.0
C976 C 0.79337 0.63557 0.60691 0.0
C977 C 0.85803 0.6072 0.61384 0.0
C978 C 0.85481 0.57675 0.61338 0.0
C979 C 0.88334 0.62661 0.60657 0.0
C980 C 0.88738 0.65897 0.60514 0.0
C981 C 0.87094 0.67297 0.58317 0.0
C982 C 0.87479 0.7035 0.58194 0.0
C983 C 0.89513 0.72026 0.60245 0.0
C984 C 0.91176 0.70653 0.62413 0.0
C985 C 0.90799 0.67599 0.62544 0.0
C986 C 0.94158 0.54851 0.5496 0.0
C987 C 0.96906 0.56045 0.56145 0.0
C988 C 0.91962 0.55602 0.56173 0.0
C989 C 0.92472 0.57495 0.58652 0.0
C990 C 0.95221 0.58651 0.59856 0.0
C991 C 0.97414 0.57955 0.586 0.0
C992 C 0.90181 0.58487 0.59808 0.0
C993 C 0.90497 0.61525 0.59932 0.0
C994 C 0.87656 0.56522 0.60586 0.0
C995 C 0.87271 0.53277 0.60738 0.0
C996 C 0.89216 0.51933 0.62527 0.0
C997 C 0.88865 0.48884 0.62621 0.0
C998 C 0.86565 0.47148 0.60959 0.0
C999 C 0.8461 0.48455 0.592 0.0
C1000 C 0.84953 0.51504 0.59091 0.0
H1001 H 0.86293 0.4479 0.61038 0.0
H1002 H 0.89808 0.74389 0.60148 0.0
H1003 H 0.41936 0.39481 0.36913 0.0
H1004 H 0.44274 0.41899 0.32318 0.0
H1005 H 0.41564 0.33791 0.27604 0.0
H1006 H 0.38982 0.31478 0.32109 0.0
H1007 H 0.47832 0.4203 0.28809 0.0
H1008 H 0.39743 0.34961 0.19947 0.0
H1009 H 0.34903 0.32008 0.19759 0.0
H1010 H 0.33221 0.37031 0.26885 0.0
H1011 H 0.38033 0.4004 0.27077 0.0
H1012 H 0.52311 0.46204 0.1374 0.0
H1013 H 0.50722 0.43655 0.18673 0.0
H1014 H 0.42829 0.45873 0.16385 0.0
H1015 H 0.44365 0.48249 0.11309 0.0
H1016 H 0.41812 0.40776 0.18742 0.0
H1017 H 0.48123 0.49351 0.22081 0.0
H1018 H 0.5242 0.53267 0.22702 0.0
H1019 H 0.56778 0.46981 0.27196 0.0
H1020 H 0.52524 0.43008 0.26531 0.0
C1021 C 0.4188 0.38215 0.34904 0.0
C1022 C 0.40222 0.35335 0.34807 0.0
C1023 C 0.43229 0.39588 0.32282 0.0
C1024 C 0.43012 0.38067 0.2955 0.0
C1025 C 0.41673 0.3505 0.29633 0.0
C1026 C 0.40242 0.33707 0.32225 0.0
C1027 C 0.43929 0.39718 0.26553 0.0
C1028 C 0.46523 0.41743 0.26603 0.0
C1029 C 0.42169 0.39464 0.23697 0.0
C1030 C 0.39256 0.37699 0.2355 0.0
C1031 C 0.38335 0.35441 0.21462 0.0
C1032 C 0.35597 0.33758 0.21356 0.0
C1033 C 0.33758 0.34325 0.23316 0.0
C1034 C 0.34648 0.36588 0.25374 0.0
C1035 C 0.3738 0.38283 0.25481 0.0
C1036 C 0.50243 0.46165 0.14306 0.0
C1037 C 0.48461 0.47437 0.12171 0.0
C1038 C 0.49342 0.44722 0.17137 0.0
C1039 C 0.46677 0.44622 0.17955 0.0
C1040 C 0.44896 0.45916 0.15819 0.0
C1041 C 0.45772 0.47283 0.12929 0.0
C1042 C 0.45733 0.43075 0.20986 0.0
C1043 C 0.43132 0.41064 0.2094 0.0
C1044 C 0.4741 0.43497 0.23892 0.0
C1045 C 0.50003 0.45869 0.24226 0.0
C1046 C 0.50004 0.48792 0.23167 0.0
C1047 C 0.52432 0.51026 0.23532 0.0
C1048 C 0.5487 0.50373 0.24987 0.0
C1049 C 0.54885 0.47485 0.26077 0.0
C1050 C 0.52467 0.45239 0.25698 0.0
H1051 H 0.56748 0.52106 0.25268 0.0
H1052 H 0.31642 0.33015 0.23235 0.0
H1053 H 0.39781 0.66734 0.74425 0.0
H1054 H 0.43112 0.65095 0.78319 0.0
H1055 H 0.44103 0.72946 0.83276 0.0
H1056 H 0.40541 0.74437 0.79494 0.0
H1057 H 0.4796 0.66429 0.80262 0.0
H1058 H 0.45668 0.71701 0.91125 0.0
H1059 H 0.41816 0.73284 0.93012 0.0
H1060 H 0.35939 0.67159 0.87261 0.0
H1061 H 0.39752 0.65514 0.85375 0.0
H1062 H 0.57762 0.64103 0.92604 0.0
H1063 H 0.54762 0.66591 0.89079 0.0
H1064 H 0.47562 0.6083 0.92896 0.0
H1065 H 0.50551 0.58315 0.9645 0.0
H1066 H 0.46821 0.66318 0.91666 0.0
H1067 H 0.49574 0.59337 0.86418 0.0
H1068 H 0.52554 0.56654 0.84326 0.0
H1069 H 0.56076 0.64339 0.78536 0.0
H1070 H 0.53227 0.6712 0.80717 0.0
C1071 C 0.40706 0.68098 0.76357 0.0
C1072 C 0.39851 0.7066 0.76723 0.0
C1073 C 0.42635 0.67179 0.78572 0.0
C1074 C 0.43822 0.68847 0.81165 0.0
C1075 C 0.43154 0.71559 0.81368 0.0
C1076 C 0.41157 0.7244 0.79183 0.0
C1077 C 0.45666 0.67665 0.83675 0.0
C1078 C 0.47718 0.66432 0.82754 0.0
C1079 C 0.45305 0.67561 0.86937 0.0
C1080 C 0.42998 0.68514 0.88082 0.0
C1081 C 0.43553 0.70688 0.90272 0.0
C1082 C 0.41377 0.71596 0.9134 0.0
C1083 C 0.38635 0.70331 0.90248 0.0
C1084 C 0.38063 0.68145 0.88096 0.0
C1085 C 0.40231 0.67226 0.87026 0.0
C1086 C 0.55544 0.63389 0.92746 0.0
C1087 C 0.54404 0.60982 0.94803 0.0
C1088 C 0.53829 0.64813 0.90712 0.0
C1089 C 0.50936 0.63869 0.90685 0.0
C1090 C 0.4979 0.61593 0.9287 0.0
C1091 C 0.51506 0.60156 0.94903 0.0
C1092 C 0.49117 0.65123 0.88235 0.0
C1093 C 0.47078 0.66359 0.89172 0.0
C1094 C 0.49381 0.6508 0.84972 0.0
C1095 C 0.51221 0.63461 0.83785 0.0
C1096 C 0.51034 0.60482 0.8476 0.0
C1097 C 0.52702 0.5894 0.83557 0.0
C1098 C 0.54531 0.60334 0.81329 0.0
C1099 C 0.54692 0.63273 0.80299 0.0
C1100 C 0.53061 0.64838 0.81531 0.0
H1101 H 0.55806 0.59131 0.80382 0.0
H1102 H 0.36954 0.71039 0.91075 0.0
H1103 H 0.43413 0.36574 0.71565 0.0
H1104 H 0.45236 0.39804 0.75891 0.0
H1105 H 0.37548 0.36622 0.8018 0.0
H1106 H 0.35758 0.33277 0.75894 0.0
H1107 H 0.4071 0.43574 0.79866 0.0
H1108 H 0.41369 0.33651 0.83653 0.0
H1109 H 0.42494 0.28965 0.82883 0.0
H1110 H 0.50907 0.33543 0.81597 0.0
H1111 H 0.49826 0.38268 0.82329 0.0
H1112 H 0.4978 0.458 0.96249 0.0
H1113 H 0.46541 0.42664 0.92481 0.0
H1114 H 0.49079 0.49141 0.84881 0.0
H1115 H 0.52287 0.52261 0.88602 0.0
H1116 H 0.47818 0.4022 0.87335 0.0
H1117 H 0.43744 0.49061 0.79322 0.0
H1118 H 0.42802 0.53903 0.79769 0.0
H1119 H 0.41235 0.51565 0.89469 0.0
H1120 H 0.42135 0.46698 0.8907 0.0
C1121 C 0.42106 0.36582 0.73419 0.0
C1122 C 0.39461 0.34651 0.7342 0.0
C1123 C 0.43142 0.38437 0.75877 0.0
C1124 C 0.41535 0.38444 0.78364 0.0
C1125 C 0.38818 0.36657 0.78275 0.0
C1126 C 0.37793 0.34759 0.75826 0.0
C1127 C 0.42818 0.40119 0.81167 0.0
C1128 C 0.42242 0.42834 0.81523 0.0
C1129 C 0.44816 0.39151 0.83326 0.0
C1130 C 0.4551 0.36311 0.83024 0.0
C1131 C 0.43457 0.33659 0.83195 0.0
C1132 C 0.44088 0.30998 0.82769 0.0
C1133 C 0.46772 0.30959 0.8219 0.0
C1134 C 0.48833 0.33581 0.82052 0.0
C1135 C 0.48214 0.3625 0.82478 0.0
C1136 C 0.4961 0.46574 0.93784 0.0
C1137 C 0.51295 0.49284 0.92732 0.0
C1138 C 0.47772 0.44772 0.91629 0.0
C1139 C 0.4755 0.45667 0.88393 0.0
C1140 C 0.49179 0.48408 0.87363 0.0
C1141 C 0.51024 0.5019 0.895 0.0
C1142 C 0.45727 0.43703 0.8605 0.0
C1143 C 0.46237 0.40943 0.85742 0.0
C1144 C 0.43672 0.44641 0.83935 0.0
C1145 C 0.4302 0.47519 0.84167 0.0
C1146 C 0.43176 0.49571 0.81542 0.0
C1147 C 0.42656 0.52323 0.8179 0.0
C1148 C 0.41965 0.53043 0.84647 0.0
C1149 C 0.41778 0.51007 0.87259 0.0
C1150 C 0.42295 0.48253 0.87025 0.0
H1151 H 0.41572 0.55178 0.84836 0.0
H1152 H 0.47256 0.28898 0.81851 0.0
H1153 H 0.72956 0.3986 0.721 0.0
H1154 H 0.71014 0.42275 0.7585 0.0
H1155 H 0.69704 0.34336 0.81989 0.0
H1156 H 0.71729 0.31956 0.78265 0.0
H1157 H 0.6511 0.36841 0.81088 0.0
H1158 H 0.74834 0.39682 0.83925 0.0
H1159 H 0.79758 0.41697 0.83062 0.0
H1160 H 0.78139 0.50116 0.80095 0.0
H1161 H 0.73193 0.4814 0.80846 0.0
H1162 H 0.6581 0.47608 0.94244 0.0
H1163 H 0.68129 0.44837 0.91288 0.0
H1164 H 0.62098 0.45142 0.83298 0.0
H1165 H 0.59758 0.47849 0.8623 0.0
H1166 H 0.70564 0.46026 0.85795 0.0
H1167 H 0.60555 0.38876 0.79731 0.0
H1168 H 0.55673 0.36847 0.80792 0.0
H1169 H 0.58041 0.36765 0.90773 0.0
H1170 H 0.6294 0.38772 0.8977 0.0
C1171 C 0.72253 0.38644 0.74255 0.0
C1172 C 0.72459 0.35724 0.74895 0.0
C1173 C 0.71149 0.40017 0.76391 0.0
C1174 C 0.70223 0.38487 0.79203 0.0
C1175 C 0.70396 0.35551 0.79828 0.0
C1176 C 0.71535 0.34191 0.77704 0.0
C1177 C 0.69075 0.39963 0.81479 0.0
C1178 C 0.66305 0.38842 0.82125 0.0
C1179 C 0.70651 0.42547 0.82877 0.0
C1180 C 0.7363 0.43749 0.8241 0.0
C1181 C 0.75519 0.41955 0.8305 0.0
C1182 C 0.78318 0.43093 0.82581 0.0
C1183 C 0.79261 0.46033 0.81509 0.0
C1184 C 0.77406 0.4784 0.80908 0.0
C1185 C 0.74603 0.46711 0.81353 0.0
C1186 C 0.6498 0.4708 0.91859 0.0
C1187 C 0.62576 0.47914 0.90492 0.0
C1188 C 0.66311 0.45505 0.9017 0.0
C1189 C 0.65258 0.44734 0.87092 0.0
C1190 C 0.62914 0.45652 0.85694 0.0
C1191 C 0.6158 0.47208 0.87377 0.0
C1192 C 0.66577 0.42951 0.85328 0.0
C1193 C 0.69376 0.44013 0.84775 0.0
C1194 C 0.6504 0.40293 0.84043 0.0
C1195 C 0.62111 0.38989 0.84672 0.0
C1196 C 0.60035 0.38404 0.82151 0.0
C1197 C 0.57264 0.37264 0.82743 0.0
C1198 C 0.56546 0.36681 0.85849 0.0
C1199 C 0.58599 0.37225 0.88369 0.0
C1200 C 0.61373 0.38367 0.8779 0.0
H1201 H 0.54399 0.35807 0.86305 0.0
H1202 H 0.81429 0.46914 0.81155 0.0
H1203 H 0.79244 0.67506 0.72222 0.0
H1204 H 0.77444 0.64339 0.76808 0.0
H1205 H 0.71254 0.58926 0.70589 0.0
H1206 H 0.73123 0.62057 0.66011 0.0
H1207 H 0.69527 0.624 0.75284 0.0
H1208 H 0.75116 0.5561 0.74367 0.0
H1209 H 0.79567 0.544 0.73918 0.0
H1210 H 0.82656 0.57588 0.83052 0.0
H1211 H 0.78251 0.589 0.8352 0.0
H1212 H 0.61826 0.54636 0.87127 0.0
H1213 H 0.64548 0.55184 0.82622 0.0
H1214 H 0.71892 0.59381 0.88324 0.0
H1215 H 0.69189 0.58789 0.92885 0.0
H1216 H 0.7307 0.55973 0.83768 0.0
H1217 H 0.68697 0.63708 0.84436 0.0
H1218 H 0.64896 0.65982 0.85166 0.0
H1219 H 0.60233 0.62065 0.76926 0.0
H1220 H 0.64 0.59724 0.76175 0.0
C1221 C 0.77589 0.65553 0.71851 0.0
C1222 C 0.76324 0.64978 0.68804 0.0
C1223 C 0.7656 0.63755 0.74452 0.0
C1224 C 0.74225 0.614 0.74024 0.0
C1225 C 0.73077 0.60715 0.70955 0.0
C1226 C 0.74143 0.62483 0.68353 0.0
C1227 C 0.72685 0.60053 0.76758 0.0
C1228 C 0.70259 0.60925 0.77095 0.0
C1229 C 0.73741 0.5827 0.7919 0.0
C1230 C 0.76357 0.57385 0.78963 0.0
C1231 C 0.76753 0.56084 0.76267 0.0
C1232 C 0.79272 0.55385 0.76006 0.0
C1233 C 0.814 0.55935 0.78446 0.0
C1234 C 0.81009 0.57173 0.81159 0.0
C1235 C 0.785 0.57896 0.81422 0.0
C1236 C 0.6403 0.55623 0.87452 0.0
C1237 C 0.65281 0.56714 0.90355 0.0
C1238 C 0.65585 0.55922 0.84873 0.0
C1239 C 0.68414 0.57348 0.85135 0.0
C1240 C 0.69713 0.58265 0.88079 0.0
C1241 C 0.68157 0.57955 0.90671 0.0
C1242 C 0.69884 0.58279 0.82247 0.0
C1243 C 0.72303 0.57375 0.81907 0.0
C1244 C 0.68896 0.60135 0.79843 0.0
C1245 C 0.66611 0.61512 0.80274 0.0
C1246 C 0.66848 0.63306 0.82798 0.0
C1247 C 0.64705 0.6461 0.83213 0.0
C1248 C 0.62324 0.64162 0.81099 0.0
C1249 C 0.62079 0.62404 0.78565 0.0
C1250 C 0.64217 0.61087 0.78143 0.0
H1251 H 0.60682 0.65195 0.81424 0.0
H1252 H 0.83345 0.55383 0.78244 0.0
H1253 H 0.77015 0.72285 0.25726 0.0
H1254 H 0.75127 0.69493 0.2106 0.0
H1255 H 0.70623 0.62418 0.27039 0.0
H1256 H 0.72623 0.65184 0.31697 0.0
H1257 H 0.71978 0.60148 0.2229 0.0
H1258 H 0.67603 0.68024 0.23232 0.0
H1259 H 0.67391 0.7315 0.23693 0.0
H1260 H 0.71069 0.75754 0.14934 0.0
H1261 H 0.713 0.70639 0.14422 0.0
H1262 H 0.59613 0.54554 0.13153 0.0
H1263 H 0.63289 0.57003 0.16866 0.0
H1264 H 0.67321 0.62415 0.09214 0.0
H1265 H 0.63583 0.59929 0.0541 0.0
H1266 H 0.66873 0.65588 0.1422 0.0
H1267 H 0.70131 0.57019 0.13042 0.0
H1268 H 0.69557 0.51686 0.1276 0.0
H1269 H 0.67303 0.50158 0.22289 0.0
H1270 H 0.67828 0.55479 0.22619 0.0
C1271 C 0.75697 0.7009 0.2603 0.0
C1272 C 0.74963 0.68929 0.29044 0.0
C1273 C 0.74591 0.68508 0.23371 0.0
C1274 C 0.72665 0.65771 0.23676 0.0
C1275 C 0.72091 0.64525 0.26726 0.0
C1276 C 0.73237 0.66092 0.29389 0.0
C1277 C 0.71063 0.64337 0.20835 0.0
C1278 C 0.70864 0.6134 0.20528 0.0
C1279 C 0.69622 0.65885 0.18499 0.0
C1280 C 0.69501 0.68961 0.18809 0.0
C1281 C 0.68383 0.69695 0.21416 0.0
C1282 C 0.68254 0.72595 0.21683 0.0
C1283 C 0.69231 0.74778 0.19355 0.0
C1284 C 0.70322 0.74062 0.16742 0.0
C1285 C 0.70446 0.71162 0.16457 0.0
C1286 C 0.61294 0.5623 0.12227 0.0
C1287 C 0.61307 0.57018 0.08964 0.0
C1288 C 0.63408 0.57629 0.1437 0.0
C1289 C 0.65615 0.59855 0.13324 0.0
C1290 C 0.65649 0.60677 0.1007 0.0
C1291 C 0.63517 0.59257 0.07901 0.0
C1292 C 0.6777 0.61403 0.15693 0.0
C1293 C 0.68054 0.64418 0.15929 0.0
C1294 C 0.69229 0.5985 0.18 0.0
C1295 C 0.69018 0.56655 0.17852 0.0
C1296 C 0.69511 0.55547 0.15077 0.0
C1297 C 0.69193 0.52525 0.14909 0.0
C1298 C 0.68399 0.50585 0.17507 0.0
C1299 C 0.67927 0.51665 0.20282 0.0
C1300 C 0.68242 0.54685 0.20464 0.0
H1301 H 0.68144 0.48245 0.17367 0.0
H1302 H 0.69134 0.77023 0.19569 0.0
H1303 H 0.37535 0.69257 0.25666 0.0
H1304 H 0.40135 0.67538 0.21996 0.0
H1305 H 0.45196 0.64632 0.29879 0.0
H1306 H 0.4258 0.66378 0.33545 0.0
H1307 H 0.48218 0.66804 0.24735 0.0
H1308 H 0.39719 0.59508 0.26638 0.0
H1309 H 0.34675 0.57644 0.26929 0.0
H1310 H 0.33187 0.60624 0.17231 0.0
H1311 H 0.38226 0.62468 0.16873 0.0
H1312 H 0.52648 0.56305 0.17026 0.0
H1313 H 0.50594 0.58722 0.20614 0.0
H1314 H 0.44912 0.6086 0.12927 0.0
H1315 H 0.46915 0.58357 0.09335 0.0
H1316 H 0.42281 0.59206 0.1797 0.0
H1317 H 0.50868 0.66041 0.15919 0.0
H1318 H 0.5592 0.67672 0.15608 0.0
H1319 H 0.57311 0.65634 0.25573 0.0
H1320 H 0.52265 0.63952 0.25937 0.0
C1321 C 0.39274 0.68353 0.26597 0.0
C1322 C 0.39878 0.67966 0.29875 0.0
C1323 C 0.40733 0.67332 0.24508 0.0
C1324 C 0.42822 0.65888 0.25659 0.0
C1325 C 0.43586 0.65723 0.28931 0.0
C1326 C 0.42116 0.66748 0.31025 0.0
C1327 C 0.44047 0.64367 0.23468 0.0
C1328 C 0.46926 0.65122 0.23279 0.0
C1329 C 0.42365 0.62206 0.21517 0.0
C1330 C 0.3934 0.61149 0.21739 0.0
C1331 C 0.38313 0.59777 0.24574 0.0
C1332 C 0.35458 0.5871 0.24745 0.0
C1333 C 0.33612 0.5903 0.22106 0.0
C1334 C 0.34619 0.60387 0.19277 0.0
C1335 C 0.37473 0.61428 0.19083 0.0
C1336 C 0.50954 0.57279 0.16095 0.0
C1337 C 0.4996 0.57153 0.12881 0.0
C1338 C 0.49792 0.58685 0.18151 0.0
C1339 C 0.47637 0.60049 0.17039 0.0
C1340 C 0.46585 0.59849 0.13848 0.0
C1341 C 0.4773 0.58412 0.11792 0.0
C1342 C 0.46461 0.61648 0.19207 0.0
C1343 C 0.43585 0.60901 0.19404 0.0
C1344 C 0.48152 0.63817 0.21157 0.0
C1345 C 0.51188 0.64845 0.20949 0.0
C1346 C 0.52251 0.65922 0.1804 0.0
C1347 C 0.55114 0.66858 0.17855 0.0
C1348 C 0.56936 0.6675 0.20568 0.0
C1349 C 0.55897 0.65713 0.23473 0.0
C1350 C 0.53036 0.6477 0.23671 0.0
H1351 H 0.59152 0.67475 0.20419 0.0
H1352 H 0.31402 0.58218 0.2225 0.0
H1353 H 0.70072 0.31336 0.21998 0.0
H1354 H 0.67412 0.3364 0.17789 0.0
H1355 H 0.69342 0.41558 0.22825 0.0
H1356 H 0.71856 0.39162 0.27117 0.0
H1357 H 0.64276 0.40557 0.20747 0.0
H1358 H 0.72501 0.40956 0.15975 0.0
H1359 H 0.76259 0.39113 0.1424 0.0
H1360 H 0.70343 0.33278 0.08226 0.0
H1361 H 0.66543 0.35057 0.09959 0.0
H1362 H 0.61637 0.48218 0.04457 0.0
H1363 H 0.64645 0.45784 0.0805 0.0
H1364 H 0.57471 0.39929 0.11827 0.0
H1365 H 0.54437 0.42377 0.08269 0.0
H1366 H 0.65454 0.40301 0.09396 0.0
H1367 H 0.58638 0.39509 0.19722 0.0
H1368 H 0.55324 0.42098 0.21303 0.0
H1369 H 0.59384 0.50003 0.16206 0.0
H1370 H 0.62717 0.47473 0.14597 0.0
C1371 C 0.69925 0.3357 0.22183 0.0
C1372 C 0.71188 0.35096 0.24841 0.0
C1373 C 0.68428 0.34896 0.19774 0.0
C1374 C 0.68211 0.37798 0.19953 0.0
C1375 C 0.69485 0.39324 0.22619 0.0
C1376 C 0.70944 0.37975 0.25051 0.0
C1377 C 0.66577 0.39198 0.17417 0.0
C1378 C 0.64543 0.40495 0.1827 0.0
C1379 C 0.66956 0.39196 0.14175 0.0
C1380 C 0.69235 0.38122 0.1312 0.0
C1381 C 0.71999 0.39264 0.143 0.0
C1382 C 0.74137 0.38233 0.13314 0.0
C1383 C 0.73539 0.36075 0.1113 0.0
C1384 C 0.70802 0.34947 0.09921 0.0
C1385 C 0.68656 0.35968 0.10902 0.0
C1386 C 0.60691 0.46373 0.06006 0.0
C1387 C 0.57792 0.45513 0.06095 0.0
C1388 C 0.62418 0.4498 0.08054 0.0
C1389 C 0.61284 0.4271 0.10238 0.0
C1390 C 0.58388 0.41706 0.10184 0.0
C1391 C 0.56655 0.43095 0.08132 0.0
C1392 C 0.63121 0.41563 0.12741 0.0
C1393 C 0.65193 0.40337 0.11879 0.0
C1394 C 0.62856 0.41731 0.15978 0.0
C1395 C 0.60909 0.43291 0.1702 0.0
C1396 C 0.58829 0.41804 0.18953 0.0
C1397 C 0.56944 0.43261 0.19845 0.0
C1398 C 0.57137 0.4621 0.18836 0.0
C1399 C 0.59228 0.47717 0.16963 0.0
C1400 C 0.61112 0.46272 0.16057 0.0
H1401 H 0.55661 0.47329 0.19492 0.0
H1402 H 0.75197 0.3528 0.10369 0.0
loop_
_geom_bond_atom_site_label_1
_geom_bond_atom_site_label_2
_geom_bond_distance
_geom_bond_site_symmetry_2
_ccdc_geom_bond_type
C0 N1 1.317 . S
C0 N2 1.348 . S
C0 C3 1.485 . S
N1 C0 1.317 . S
N1 N5 1.370 . S
N2 C0 1.348 . S
N2 C4 1.346 . S
C3 C0 1.485 . S
C3 H7 0.960 . S
C3 H8 0.961 . S
C3 H9 0.960 . S
C4 N2 1.346 . S
C4 N5 1.307 . S
C4 C6 1.486 . S
N5 N1 1.370 . S
N5 C4 1.307 . S
C6 C4 1.486 . S
C6 H10 0.960 . S
C6 H11 0.960 . S
C6 H12 0.959 . S
H7 C3 0.960 . S
H8 C3 0.961 . S
H9 C3 0.960 . S
H10 C6 0.960 . S
H11 C6 0.960 . S
H12 C6 0.959 . S
C13 N14 1.317 . S
C13 N15 1.348 . S
C13 C16 1.485 . S
N14 C13 1.317 . S
N14 N18 1.370 . S
N15 C13 1.348 . S
N15 C17 1.346 . S
C16 C13 1.485 . S
C16 H20 0.960 . S
C16 H21 0.961 . S
C16 H22 0.960 . S
C17 N15 1.346 . S
C17 N18 1.307 . S
C17 C19 1.486 . S
N18 N14 1.370 . S
N18 C17 1.307 . S
C19 C17 1.486 . S
C19 H23 0.960 . S
C19 H24 0.960 . S
C19 H25 0.959 . S
H20 C16 0.960 . S
H21 C16 0.961 . S
H22 C16 0.960 . S
H23 C19 0.960 . S
H24 C19 0.960 . S
H25 C19 0.959 . S
C26 N27 1.317 . S
C26 N28 1.348 . S
C26 C29 1.485 . S
N27 C26 1.317 . S
N27 N31 1.370 . S
N28 C26 1.348 . S
N28 C30 1.346 . S
C29 C26 1.485 . S
C29 H33 0.960 . S
C29 H34 0.961 . S
C29 H35 0.960 . S
C30 N28 1.346 . S
C30 N31 1.307 . S
C30 C32 1.486 . S
N31 N27 1.370 . S
N31 C30 1.307 . S
C32 C30 1.486 . S
C32 H36 0.960 . S
C32 H37 0.960 . S
C32 H38 0.959 . S
H33 C29 0.960 . S
H34 C29 0.961 . S
H35 C29 0.960 . S
H36 C32 0.960 . S
H37 C32 0.960 . S
H38 C32 0.959 . S
C39 N40 1.317 . S
C39 N41 1.348 . S
C39 C42 1.485 . S
N40 C39 1.317 . S
N40 N44 1.370 . S
N41 C39 1.348 . S
N41 C43 1.346 . S
C42 C39 1.485 . S
C42 H46 0.960 . S
C42 H47 0.961 . S
C42 H48 0.960 . S
C43 N41 1.346 . S
C43 N44 1.307 . S
C43 C45 1.486 . S
N44 N40 1.370 . S
N44 C43 1.307 . S
C45 C43 1.486 . S
C45 H49 0.960 . S
C45 H50 0.960 . S
C45 H51 0.959 . S
H46 C42 0.960 . S
H47 C42 0.961 . S
H48 C42 0.960 . S
H49 C45 0.960 . S
H50 C45 0.960 . S
H51 C45 0.959 . S
C52 N53 1.317 . S
C52 N54 1.348 . S
C52 C55 1.485 . S
N53 C52 1.317 . S
N53 N57 1.370 . S
N54 C52 1.348 . S
N54 C56 1.346 . S
C55 C52 1.485 . S
C55 H59 0.960 . S
C55 H60 0.961 . S
C55 H61 0.960 . S
C56 N54 1.346 . S
C56 N57 1.307 . S
C56 C58 1.486 . S
N57 N53 1.370 . S
N57 C56 1.307 . S
C58 C56 1.486 . S
C58 H62 0.960 . S
C58 H63 0.960 . S
C58 H64 0.959 . S
H59 C55 0.960 . S
H60 C55 0.961 . S
H61 C55 0.960 . S
H62 C58 0.960 . S
H63 C58 0.960 . S
H64 C58 0.959 . S
C65 N66 1.317 . S
C65 N67 1.348 . S
C65 C68 1.485 . S
N66 C65 1.317 . S
N66 N70 1.370 . S
N67 C65 1.348 . S
N67 C69 1.346 . S
C68 C65 1.485 . S
C68 H72 0.960 . S
C68 H73 0.961 . S
C68 H74 0.960 . S
C69 N67 1.346 . S
C69 N70 1.307 . S
C69 C71 1.486 . S
N70 N66 1.370 . S
N70 C69 1.307 . S
C71 C69 1.486 . S
C71 H75 0.960 . S
C71 H76 0.960 . S
C71 H77 0.959 . S
H72 C68 0.960 . S
H73 C68 0.961 . S
H74 C68 0.960 . S
H75 C71 0.960 . S
H76 C71 0.960 . S
H77 C71 0.959 . S
C78 N79 1.317 . S
C78 N80 1.348 . S
C78 C81 1.485 . S
N79 C78 1.317 . S
N79 N83 1.370 . S
N80 C78 1.348 . S
N80 C82 1.346 . S
C81 C78 1.485 . S
C81 H85 0.960 . S
C81 H86 0.961 . S
C81 H87 0.960 . S
C82 N80 1.346 . S
C82 N83 1.307 . S
C82 C84 1.486 . S
N83 N79 1.370 . S
N83 C82 1.307 . S
C84 C82 1.486 . S
C84 H88 0.960 . S
C84 H89 0.960 . S
C84 H90 0.959 . S
H85 C81 0.960 . S
H86 C81 0.961 . S
H87 C81 0.960 . S
H88 C84 0.960 . S
H89 C84 0.960 . S
H90 C84 0.959 . S
C91 N92 1.317 . S
C91 N93 1.348 . S
C91 C94 1.485 . S
N92 C91 1.317 . S
N92 N96 1.370 . S
N93 C91 1.348 . S
N93 C95 1.346 . S
C94 C91 1.485 . S
C94 H98 0.960 . S
C94 H99 0.961 . S
C94 H100 0.960 . S
C95 N93 1.346 . S
C95 N96 1.307 . S
C95 C97 1.486 . S
N96 N92 1.370 . S
N96 C95 1.307 . S
C97 C95 1.486 . S
C97 H101 0.960 . S
C97 H102 0.960 . S
C97 H103 0.959 . S
H98 C94 0.960 . S
H99 C94 0.961 . S
H100 C94 0.960 . S
H101 C97 0.960 . S
H102 C97 0.960 . S
H103 C97 0.959 . S
Co104 O107 2.042 . S
Co104 O114 2.264 . S
Co104 O133 2.286 . S
Co104 O134 2.069 . S
Co104 O136 2.015 . S
Co105 O107 2.122 . S
Co105 O113 2.073 . S
Co105 O114 2.327 . S
Co105 O115 1.976 . S
Co106 O107 2.087 . S
Co106 O109 2.087 . S
Co106 O116 2.111 . S
Co106 O117 2.143 . S
Co106 O121 2.111 . S
Co106 O135 2.143 . S
O107 Co104 2.042 . S
O107 Co105 2.122 . S
O107 Co106 2.087 . S
O107 H108 0.980 . S
H108 O107 0.980 . S
O109 Co106 2.087 . S
O109 Co110 2.042 1_455 S
O109 Co111 2.122 1_455 S
O109 H112 0.980 . S
Co110 O109 2.042 1_655 S
Co110 O118 2.286 . S
Co110 O119 2.069 . S
Co110 O120 2.015 . S
Co110 O123 2.264 . S
Co111 O109 2.122 1_655 S
Co111 O122 1.976 . S
Co111 O123 2.327 . S
Co111 O124 2.073 . S
H112 O109 0.980 . S
O113 Co105 2.073 . S
O113 C128 1.245 . S
O114 Co104 2.264 . S
O114 Co105 2.327 . S
O114 C128 1.257 . S
O115 Co105 1.976 . S
O115 C127 1.251 . S
O116 Co106 2.111 . S
O116 C127 1.274 . S
O117 Co106 2.143 . S
O117 C130 1.246 1_455 S
O118 Co110 2.286 . S
O118 C129 1.259 . S
O119 Co110 2.069 . S
O119 C129 1.289 . S
O120 Co110 2.015 . S
O120 C130 1.257 . S
O121 Co106 2.111 . S
O121 C131 1.274 1_455 S
O122 Co111 1.976 . S
O122 C131 1.251 . S
O123 Co110 2.264 . S
O123 Co111 2.327 . S
O123 C132 1.257 . S
O124 Co111 2.073 . S
O124 C132 1.245 . S
C125 O133 1.259 . S
C125 O134 1.289 . S
C126 O135 1.246 . S
C126 O136 1.257 . S
C127 O115 1.251 . S
C127 O116 1.274 . S
C128 O113 1.245 . S
C128 O114 1.257 . S
C129 O118 1.259 . S
C129 O119 1.289 . S
C130 O117 1.246 1_655 S
C130 O120 1.257 . S
C131 O121 1.274 1_655 S
C131 O122 1.251 . S
C132 O123 1.257 . S
C132 O124 1.245 . S
O133 Co104 2.286 . S
O133 C125 1.259 . S
O134 Co104 2.069 . S
O134 C125 1.289 . S
O135 Co106 2.143 . S
O135 C126 1.246 . S
O136 Co104 2.015 . S
O136 C126 1.257 . S
Co137 O140 2.042 . S
Co137 O147 2.264 . S
Co137 O166 2.286 . S
Co137 O167 2.069 . S
Co137 O169 2.015 . S
Co138 O140 2.122 . S
Co138 O146 2.073 . S
Co138 O147 2.327 . S
Co138 O148 1.976 . S
Co139 O140 2.087 1_545 S
Co139 O142 2.087 . S
Co139 O149 2.111 1_545 S
Co139 O150 2.143 . S
Co139 O154 2.111 . S
Co139 O168 2.143 1_545 S
O140 Co137 2.042 . S
O140 Co138 2.122 . S
O140 Co139 2.087 1_565 S
O140 H141 0.980 1_565 S
H141 O140 0.980 1_545 S
O142 Co139 2.087 . S
O142 Co143 2.042 . S
O142 Co144 2.122 . S
O142 H145 0.980 . S
Co143 O142 2.042 . S
Co143 O151 2.286 . S
Co143 O152 2.069 . S
Co143 O153 2.015 . S
Co143 O156 2.264 . S
Co144 O142 2.122 . S
Co144 O155 1.976 . S
Co144 O156 2.327 . S
Co144 O157 2.073 . S
H145 O142 0.980 . S
O146 Co138 2.073 . S
O146 C161 1.245 . S
O147 Co137 2.264 . S
O147 Co138 2.327 . S
O147 C161 1.257 . S
O148 Co138 1.976 . S
O148 C160 1.251 . S
O149 Co139 2.111 1_565 S
O149 C160 1.274 . S
O150 Co139 2.143 . S
O150 C163 1.246 . S
O151 Co143 2.286 . S
O151 C162 1.259 . S
O152 Co143 2.069 . S
O152 C162 1.289 . S
O153 Co143 2.015 . S
O153 C163 1.257 . S
O154 Co139 2.111 . S
O154 C164 1.274 . S
O155 Co144 1.976 . S
O155 C164 1.251 . S
O156 Co143 2.264 . S
O156 Co144 2.327 . S
O156 C165 1.257 . S
O157 Co144 2.073 . S
O157 C165 1.245 . S
C158 O166 1.259 . S
C158 O167 1.289 . S
C159 O168 1.246 . S
C159 O169 1.257 . S
C160 O148 1.251 . S
C160 O149 1.274 . S
C161 O146 1.245 . S
C161 O147 1.257 . S
C162 O151 1.259 . S
C162 O152 1.289 . S
C163 O150 1.246 . S
C163 O153 1.257 . S
C164 O154 1.274 . S
C164 O155 1.251 . S
C165 O156 1.257 . S
C165 O157 1.245 . S
O166 Co137 2.286 . S
O166 C158 1.259 . S
O167 Co137 2.069 . S
O167 C158 1.289 . S
O168 Co139 2.143 1_565 S
O168 C159 1.246 . S
O169 Co137 2.015 . S
O169 C159 1.257 . S
Co170 O173 2.042 . S
Co170 O180 2.264 . S
Co170 O199 2.286 . S
Co170 O200 2.069 . S
Co170 O202 2.015 . S
Co171 O173 2.122 . S
Co171 O179 2.073 . S
Co171 O180 2.327 . S
Co171 O181 1.976 . S
Co172 O173 2.087 . S
Co172 O175 2.087 1_554 S
Co172 O182 2.111 . S
Co172 O183 2.143 1_554 S
Co172 O187 2.111 1_554 S
Co172 O201 2.143 . S
O173 Co170 2.042 . S
O173 Co171 2.122 . S
O173 Co172 2.087 . S
O173 H174 0.980 . S
H174 O173 0.980 . S
O175 Co172 2.087 1_556 S
O175 Co176 2.042 . S
O175 Co177 2.122 . S
O175 H178 0.980 . S
Co176 O175 2.042 . S
Co176 O184 2.286 . S
Co176 O185 2.069 . S
Co176 O186 2.015 . S
Co176 O189 2.264 . S
Co177 O175 2.122 . S
Co177 O188 1.976 . S
Co177 O189 2.327 . S
Co177 O190 2.073 . S
H178 O175 0.980 . S
O179 Co171 2.073 . S
O179 C194 1.245 . S
O180 Co170 2.264 . S
O180 Co171 2.327 . S
O180 C194 1.257 . S
O181 Co171 1.976 . S
O181 C193 1.251 . S
O182 Co172 2.111 . S
O182 C193 1.274 . S
O183 Co172 2.143 1_556 S
O183 C196 1.246 . S
O184 Co176 2.286 . S
O184 C195 1.259 . S
O185 Co176 2.069 . S
O185 C195 1.289 . S
O186 Co176 2.015 . S
O186 C196 1.257 . S
O187 Co172 2.111 1_556 S
O187 C197 1.274 . S
O188 Co177 1.976 . S
O188 C197 1.251 . S
O189 Co176 2.264 . S
O189 Co177 2.327 . S
O189 C198 1.257 . S
O190 Co177 2.073 . S
O190 C198 1.245 . S
C191 O199 1.259 . S
C191 O200 1.289 . S
C192 O201 1.246 . S
C192 O202 1.257 . S
C193 O181 1.251 . S
C193 O182 1.274 . S
C194 O179 1.245 . S
C194 O180 1.257 . S
C195 O184 1.259 . S
C195 O185 1.289 . S
C196 O183 1.246 . S
C196 O186 1.257 . S
C197 O187 1.274 . S
C197 O188 1.251 . S
C198 O189 1.257 . S
C198 O190 1.245 . S
O199 Co170 2.286 . S
O199 C191 1.259 . S
O200 Co170 2.069 . S
O200 C191 1.289 . S
O201 Co172 2.143 . S
O201 C192 1.246 . S
O202 Co170 2.015 . S
O202 C192 1.257 . S
H203 C221 0.951 . S
H204 C223 0.951 . S
H205 C225 0.950 . S
H206 C226 0.950 . S
H207 C228 0.950 . S
H208 C231 0.950 . S
H209 C232 0.950 . S
H210 C234 0.950 . S
H211 C235 0.950 . S
H212 C236 0.951 . S
H213 C238 0.951 . S
H214 C240 0.950 . S
H215 C241 0.950 . S
H216 C243 0.950 . S
H217 C246 0.950 . S
H218 C247 0.950 . S
H219 C249 0.950 . S
H220 C250 0.950 . S
C221 H203 0.951 . S
C221 C222 1.366 . S
C221 C223 1.388 . S
C222 C221 1.366 . S
C222 C226 1.385 . S
C223 H204 0.951 . S
C223 C221 1.388 . S
C223 C224 1.366 . S
C224 C223 1.366 . S
C224 C225 1.414 . S
C224 C227 1.499 . S
C225 H205 0.950 . S
C225 C224 1.414 . S
C225 C226 1.374 . S
C226 H206 0.950 . S
C226 C222 1.385 . S
C226 C225 1.374 . S
C227 C224 1.499 . S
C227 C228 1.373 . S
C227 C229 1.389 . S
C228 H207 0.950 . S
C228 C227 1.373 . S
C228 C244 1.377 . S
C229 C227 1.389 . S
C229 C230 1.524 . S
C229 C243 1.377 . S
C230 C229 1.524 . S
C230 C231 1.397 . S
C230 C235 1.363 . S
C231 H208 0.950 . S
C231 C230 1.397 . S
C231 C232 1.334 . S
C232 H209 0.950 . S
C232 C231 1.334 . S
C232 C233 1.287 . S
C233 C232 1.287 . S
C233 C234 1.524 . S
C233 H252 0.913 . S
C234 H210 0.950 . S
C234 C233 1.524 . S
C234 C235 1.415 . S
C235 H211 0.950 . S
C235 C230 1.363 . S
C235 C234 1.415 . S
C236 H212 0.951 . S
C236 C237 1.366 . S
C236 C238 1.388 . S
C237 C236 1.366 . S
C237 C241 1.385 . S
C238 H213 0.951 . S
C238 C236 1.388 . S
C238 C239 1.366 . S
C239 C238 1.366 . S
C239 C240 1.414 . S
C239 C242 1.499 . S
C240 H214 0.950 . S
C240 C239 1.414 . S
C240 C241 1.374 . S
C241 H215 0.950 . S
C241 C237 1.385 . S
C241 C240 1.374 . S
C242 C239 1.499 . S
C242 C243 1.373 . S
C242 C244 1.389 . S
C243 H216 0.950 . S
C243 C229 1.377 . S
C243 C242 1.373 . S
C244 C228 1.377 . S
C244 C242 1.389 . S
C244 C245 1.524 . S
C245 C244 1.524 . S
C245 C246 1.397 . S
C245 C250 1.363 . S
C246 H217 0.950 . S
C246 C245 1.397 . S
C246 C247 1.334 . S
C247 H218 0.950 . S
C247 C246 1.334 . S
C247 C248 1.287 . S
C248 C247 1.287 . S
C248 C249 1.524 . S
C248 H251 0.999 . S
C249 H219 0.950 . S
C249 C248 1.524 . S
C249 C250 1.415 . S
C250 H220 0.950 . S
C250 C245 1.363 . S
C250 C249 1.415 . S
H251 C248 0.999 . S
H252 C233 0.913 . S
H253 C271 0.951 . S
H254 C273 0.951 . S
H255 C275 0.950 . S
H256 C276 0.950 . S
H257 C278 0.950 . S
H258 C281 0.950 . S
H259 C282 0.950 . S
H260 C284 0.950 . S
H261 C285 0.950 . S
H262 C286 0.951 . S
H263 C288 0.951 . S
H264 C290 0.950 . S
H265 C291 0.950 . S
H266 C293 0.950 . S
H267 C296 0.950 . S
H268 C297 0.950 . S
H269 C299 0.950 . S
H270 C300 0.950 . S
C271 H253 0.951 . S
C271 C272 1.366 . S
C271 C273 1.388 . S
C272 C271 1.366 . S
C272 C276 1.385 . S
C273 H254 0.951 . S
C273 C271 1.388 . S
C273 C274 1.366 . S
C274 C273 1.366 . S
C274 C275 1.414 . S
C274 C277 1.499 . S
C275 H255 0.950 . S
C275 C274 1.414 . S
C275 C276 1.374 . S
C276 H256 0.950 . S
C276 C272 1.385 . S
C276 C275 1.374 . S
C277 C274 1.499 . S
C277 C278 1.373 . S
C277 C279 1.389 . S
C278 H257 0.950 . S
C278 C277 1.373 . S
C278 C294 1.377 . S
C279 C277 1.389 . S
C279 C280 1.524 . S
C279 C293 1.377 . S
C280 C279 1.524 . S
C280 C281 1.397 . S
C280 C285 1.363 . S
C281 H258 0.950 . S
C281 C280 1.397 . S
C281 C282 1.334 . S
C282 H259 0.950 . S
C282 C281 1.334 . S
C282 C283 1.287 . S
C283 C282 1.287 . S
C283 C284 1.524 . S
C283 H302 0.913 . S
C284 H260 0.950 . S
C284 C283 1.524 . S
C284 C285 1.415 . S
C285 H261 0.950 . S
C285 C280 1.363 . S
C285 C284 1.415 . S
C286 H262 0.951 . S
C286 C287 1.366 . S
C286 C288 1.388 . S
C287 C286 1.366 . S
C287 C291 1.385 . S
C288 H263 0.951 . S
C288 C286 1.388 . S
C288 C289 1.366 . S
C289 C288 1.366 . S
C289 C290 1.414 . S
C289 C292 1.499 . S
C290 H264 0.950 . S
C290 C289 1.414 . S
C290 C291 1.374 . S
C291 H265 0.950 . S
C291 C287 1.385 . S
C291 C290 1.374 . S
C292 C289 1.499 . S
C292 C293 1.373 . S
C292 C294 1.389 . S
C293 H266 0.950 . S
C293 C279 1.377 . S
C293 C292 1.373 . S
C294 C278 1.377 . S
C294 C292 1.389 . S
C294 C295 1.524 . S
C295 C294 1.524 . S
C295 C296 1.397 . S
C295 C300 1.363 . S
C296 H267 0.950 . S
C296 C295 1.397 . S
C296 C297 1.334 . S
C297 H268 0.950 . S
C297 C296 1.334 . S
C297 C298 1.287 . S
C298 C297 1.287 . S
C298 C299 1.524 . S
C298 H301 0.999 . S
C299 H269 0.950 . S
C299 C298 1.524 . S
C299 C300 1.415 . S
C300 H270 0.950 . S
C300 C295 1.363 . S
C300 C299 1.415 . S
H301 C298 0.999 . S
H302 C283 0.913 . S
H303 C321 0.951 . S
H304 C323 0.951 . S
H305 C325 0.950 . S
H306 C326 0.950 . S
H307 C328 0.950 . S
H308 C331 0.950 . S
H309 C332 0.950 . S
H310 C334 0.950 . S
H311 C335 0.950 . S
H312 C336 0.951 . S
H313 C338 0.951 . S
H314 C340 0.950 . S
H315 C341 0.950 . S
H316 C343 0.950 . S
H317 C346 0.950 . S
H318 C347 0.950 . S
H319 C349 0.950 . S
H320 C350 0.950 . S
C321 H303 0.951 . S
C321 C322 1.366 . S
C321 C323 1.388 . S
C322 C321 1.366 . S
C322 C326 1.385 . S
C323 H304 0.951 . S
C323 C321 1.388 . S
C323 C324 1.366 . S
C324 C323 1.366 . S
C324 C325 1.414 . S
C324 C327 1.499 . S
C325 H305 0.950 . S
C325 C324 1.414 . S
C325 C326 1.374 . S
C326 H306 0.950 . S
C326 C322 1.385 . S
C326 C325 1.374 . S
C327 C324 1.499 . S
C327 C328 1.373 . S
C327 C329 1.389 . S
C328 H307 0.950 . S
C328 C327 1.373 . S
C328 C344 1.377 . S
C329 C327 1.389 . S
C329 C330 1.524 . S
C329 C343 1.377 . S
C330 C329 1.524 . S
C330 C331 1.397 . S
C330 C335 1.363 . S
C331 H308 0.950 . S
C331 C330 1.397 . S
C331 C332 1.334 . S
C332 H309 0.950 . S
C332 C331 1.334 . S
C332 C333 1.287 . S
C333 C332 1.287 . S
C333 C334 1.524 . S
C333 H352 0.913 . S
C334 H310 0.950 . S
C334 C333 1.524 . S
C334 C335 1.415 . S
C335 H311 0.950 . S
C335 C330 1.363 . S
C335 C334 1.415 . S
C336 H312 0.951 . S
C336 C337 1.366 . S
C336 C338 1.388 . S
C337 C336 1.366 . S
C337 C341 1.385 . S
C338 H313 0.951 . S
C338 C336 1.388 . S
C338 C339 1.366 . S
C339 C338 1.366 . S
C339 C340 1.414 . S
C339 C342 1.499 . S
C340 H314 0.950 . S
C340 C339 1.414 . S
C340 C341 1.374 . S
C341 H315 0.950 . S
C341 C337 1.385 . S
C341 C340 1.374 . S
C342 C339 1.499 . S
C342 C343 1.373 . S
C342 C344 1.389 . S
C343 H316 0.950 . S
C343 C329 1.377 . S
C343 C342 1.373 . S
C344 C328 1.377 . S
C344 C342 1.389 . S
C344 C345 1.524 . S
C345 C344 1.524 . S
C345 C346 1.397 . S
C345 C350 1.363 . S
C346 H317 0.950 . S
C346 C345 1.397 . S
C346 C347 1.334 . S
C347 H318 0.950 . S
C347 C346 1.334 . S
C347 C348 1.287 . S
C348 C347 1.287 . S
C348 C349 1.524 . S
C348 H351 0.999 . S
C349 H319 0.950 . S
C349 C348 1.524 . S
C349 C350 1.415 . S
C350 H320 0.950 . S
C350 C345 1.363 . S
C350 C349 1.415 . S
H351 C348 0.999 . S
H352 C333 0.913 . S
H353 C371 0.951 . S
H354 C373 0.951 . S
H355 C375 0.950 . S
H356 C376 0.950 . S
H357 C378 0.950 . S
H358 C381 0.950 . S
H359 C382 0.950 . S
H360 C384 0.950 . S
H361 C385 0.950 . S
H362 C386 0.951 . S
H363 C388 0.951 . S
H364 C390 0.950 . S
H365 C391 0.950 . S
H366 C393 0.950 . S
H367 C396 0.950 . S
H368 C397 0.950 . S
H369 C399 0.950 . S
H370 C400 0.950 . S
C371 H353 0.951 . S
C371 C372 1.366 . S
C371 C373 1.388 . S
C372 C371 1.366 . S
C372 C376 1.385 . S
C373 H354 0.951 . S
C373 C371 1.388 . S
C373 C374 1.366 . S
C374 C373 1.366 . S
C374 C375 1.414 . S
C374 C377 1.499 . S
C375 H355 0.950 . S
C375 C374 1.414 . S
C375 C376 1.374 . S
C376 H356 0.950 . S
C376 C372 1.385 . S
C376 C375 1.374 . S
C377 C374 1.499 . S
C377 C378 1.373 . S
C377 C379 1.389 . S
C378 H357 0.950 . S
C378 C377 1.373 . S
C378 C394 1.377 . S
C379 C377 1.389 . S
C379 C380 1.524 . S
C379 C393 1.377 . S
C380 C379 1.524 . S
C380 C381 1.397 . S
C380 C385 1.363 . S
C381 H358 0.950 . S
C381 C380 1.397 . S
C381 C382 1.334 . S
C382 H359 0.950 . S
C382 C381 1.334 . S
C382 C383 1.287 . S
C383 C382 1.287 . S
C383 C384 1.524 . S
C383 H402 0.913 . S
C384 H360 0.950 . S
C384 C383 1.524 . S
C384 C385 1.415 . S
C385 H361 0.950 . S
C385 C380 1.363 . S
C385 C384 1.415 . S
C386 H362 0.951 . S
C386 C387 1.366 . S
C386 C388 1.388 . S
C387 C386 1.366 . S
C387 C391 1.385 . S
C388 H363 0.951 . S
C388 C386 1.388 . S
C388 C389 1.366 . S
C389 C388 1.366 . S
C389 C390 1.414 . S
C389 C392 1.499 . S
C390 H364 0.950 . S
C390 C389 1.414 . S
C390 C391 1.374 . S
C391 H365 0.950 . S
C391 C387 1.385 . S
C391 C390 1.374 . S
C392 C389 1.499 . S
C392 C393 1.373 . S
C392 C394 1.389 . S
C393 H366 0.950 . S
C393 C379 1.377 . S
C393 C392 1.373 . S
C394 C378 1.377 . S
C394 C392 1.389 . S
C394 C395 1.524 . S
C395 C394 1.524 . S
C395 C396 1.397 . S
C395 C400 1.363 . S
C396 H367 0.950 . S
C396 C395 1.397 . S
C396 C397 1.334 . S
C397 H368 0.950 . S
C397 C396 1.334 . S
C397 C398 1.287 . S
C398 C397 1.287 . S
C398 C399 1.524 . S
C398 H401 0.999 . S
C399 H369 0.950 . S
C399 C398 1.524 . S
C399 C400 1.415 . S
C400 H370 0.950 . S
C400 C395 1.363 . S
C400 C399 1.415 . S
H401 C398 0.999 . S
H402 C383 0.913 . S
H403 C421 0.951 . S
H404 C423 0.951 . S
H405 C425 0.950 . S
H406 C426 0.950 . S
H407 C428 0.950 . S
H408 C431 0.950 . S
H409 C432 0.950 . S
H410 C434 0.950 . S
H411 C435 0.950 . S
H412 C436 0.951 . S
H413 C438 0.951 . S
H414 C440 0.950 . S
H415 C441 0.950 . S
H416 C443 0.950 . S
H417 C446 0.950 . S
H418 C447 0.950 . S
H419 C449 0.950 . S
H420 C450 0.950 . S
C421 H403 0.951 . S
C421 C422 1.366 . S
C421 C423 1.388 . S
C422 C421 1.366 . S
C422 C426 1.385 . S
C423 H404 0.951 . S
C423 C421 1.388 . S
C423 C424 1.366 . S
C424 C423 1.366 . S
C424 C425 1.414 . S
C424 C427 1.499 . S
C425 H405 0.950 . S
C425 C424 1.414 . S
C425 C426 1.374 . S
C426 H406 0.950 . S
C426 C422 1.385 . S
C426 C425 1.374 . S
C427 C424 1.499 . S
C427 C428 1.373 . S
C427 C429 1.389 . S
C428 H407 0.950 . S
C428 C427 1.373 . S
C428 C444 1.377 . S
C429 C427 1.389 . S
C429 C430 1.524 . S
C429 C443 1.377 . S
C430 C429 1.524 . S
C430 C431 1.397 . S
C430 C435 1.363 . S
C431 H408 0.950 . S
C431 C430 1.397 . S
C431 C432 1.334 . S
C432 H409 0.950 . S
C432 C431 1.334 . S
C432 C433 1.287 . S
C433 C432 1.287 . S
C433 C434 1.524 . S
C433 H452 0.913 . S
C434 H410 0.950 . S
C434 C433 1.524 . S
C434 C435 1.415 . S
C435 H411 0.950 . S
C435 C430 1.363 . S
C435 C434 1.415 . S
C436 H412 0.951 . S
C436 C437 1.366 . S
C436 C438 1.388 . S
C437 C436 1.366 . S
C437 C441 1.385 . S
C438 H413 0.951 . S
C438 C436 1.388 . S
C438 C439 1.366 . S
C439 C438 1.366 . S
C439 C440 1.414 . S
C439 C442 1.499 . S
C440 H414 0.950 . S
C440 C439 1.414 . S
C440 C441 1.374 . S
C441 H415 0.950 . S
C441 C437 1.385 . S
C441 C440 1.374 . S
C442 C439 1.499 . S
C442 C443 1.373 . S
C442 C444 1.389 . S
C443 H416 0.950 . S
C443 C429 1.377 . S
C443 C442 1.373 . S
C444 C428 1.377 . S
C444 C442 1.389 . S
C444 C445 1.524 . S
C445 C444 1.524 . S
C445 C446 1.397 . S
C445 C450 1.363 . S
C446 H417 0.950 . S
C446 C445 1.397 . S
C446 C447 1.334 . S
C447 H418 0.950 . S
C447 C446 1.334 . S
C447 C448 1.287 . S
C448 C447 1.287 . S
C448 C449 1.524 . S
C448 H451 0.999 . S
C449 H419 0.950 . S
C449 C448 1.524 . S
C449 C450 1.415 . S
C450 H420 0.950 . S
C450 C445 1.363 . S
C450 C449 1.415 . S
H451 C448 0.999 . S
H452 C433 0.913 . S
H453 C471 0.951 . S
H454 C473 0.951 . S
H455 C475 0.950 . S
H456 C476 0.950 . S
H457 C478 0.950 . S
H458 C481 0.950 . S
H459 C482 0.950 . S
H460 C484 0.950 . S
H461 C485 0.950 . S
H462 C486 0.951 . S
H463 C488 0.951 . S
H464 C490 0.950 . S
H465 C491 0.950 . S
H466 C493 0.950 . S
H467 C496 0.950 . S
H468 C497 0.950 . S
H469 C499 0.950 . S
H470 C500 0.950 . S
C471 H453 0.951 . S
C471 C472 1.366 . S
C471 C473 1.388 . S
C472 C471 1.366 . S
C472 C476 1.385 . S
C473 H454 0.951 . S
C473 C471 1.388 . S
C473 C474 1.366 . S
C474 C473 1.366 . S
C474 C475 1.414 . S
C474 C477 1.499 . S
C475 H455 0.950 . S
C475 C474 1.414 . S
C475 C476 1.374 . S
C476 H456 0.950 . S
C476 C472 1.385 . S
C476 C475 1.374 . S
C477 C474 1.499 . S
C477 C478 1.373 . S
C477 C479 1.389 . S
C478 H457 0.950 . S
C478 C477 1.373 . S
C478 C494 1.377 . S
C479 C477 1.389 . S
C479 C480 1.524 . S
C479 C493 1.377 . S
C480 C479 1.524 . S
C480 C481 1.397 . S
C480 C485 1.363 . S
C481 H458 0.950 . S
C481 C480 1.397 . S
C481 C482 1.334 . S
C482 H459 0.950 . S
C482 C481 1.334 . S
C482 C483 1.287 . S
C483 C482 1.287 . S
C483 C484 1.524 . S
C483 H502 0.913 . S
C484 H460 0.950 . S
C484 C483 1.524 . S
C484 C485 1.415 . S
C485 H461 0.950 . S
C485 C480 1.363 . S
C485 C484 1.415 . S
C486 H462 0.951 . S
C486 C487 1.366 . S
C486 C488 1.388 . S
C487 C486 1.366 . S
C487 C491 1.385 . S
C488 H463 0.951 . S
C488 C486 1.388 . S
C488 C489 1.366 . S
C489 C488 1.366 . S
C489 C490 1.414 . S
C489 C492 1.499 . S
C490 H464 0.950 . S
C490 C489 1.414 . S
C490 C491 1.374 . S
C491 H465 0.950 . S
C491 C487 1.385 . S
C491 C490 1.374 . S
C492 C489 1.499 . S
C492 C493 1.373 . S
C492 C494 1.389 . S
C493 H466 0.950 . S
C493 C479 1.377 . S
C493 C492 1.373 . S
C494 C478 1.377 . S
C494 C492 1.389 . S
C494 C495 1.524 . S
C495 C494 1.524 . S
C495 C496 1.397 . S
C495 C500 1.363 . S
C496 H467 0.950 . S
C496 C495 1.397 . S
C496 C497 1.334 . S
C497 H468 0.950 . S
C497 C496 1.334 . S
C497 C498 1.287 . S
C498 C497 1.287 . S
C498 C499 1.524 . S
C498 H501 0.999 . S
C499 H469 0.950 . S
C499 C498 1.524 . S
C499 C500 1.415 . S
C500 H470 0.950 . S
C500 C495 1.363 . S
C500 C499 1.415 . S
H501 C498 0.999 . S
H502 C483 0.913 . S
H503 C521 0.951 . S
H504 C523 0.951 . S
H505 C525 0.950 . S
H506 C526 0.950 . S
H507 C528 0.950 . S
H508 C531 0.950 . S
H509 C532 0.950 . S
H510 C534 0.950 . S
H511 C535 0.950 . S
H512 C536 0.951 . S
H513 C538 0.951 . S
H514 C540 0.950 . S
H515 C541 0.950 1_455 S
H516 C543 0.950 . S
H517 C546 0.950 . S
H518 C547 0.950 . S
H519 C549 0.950 . S
H520 C550 0.950 . S
C521 H503 0.951 . S
C521 C522 1.366 . S
C521 C523 1.388 . S
C522 C521 1.366 . S
C522 C526 1.385 . S
C523 H504 0.951 . S
C523 C521 1.388 . S
C523 C524 1.366 . S
C524 C523 1.366 . S
C524 C525 1.414 . S
C524 C527 1.499 . S
C525 H505 0.950 . S
C525 C524 1.414 . S
C525 C526 1.374 . S
C526 H506 0.950 . S
C526 C522 1.385 . S
C526 C525 1.374 . S
C527 C524 1.499 . S
C527 C528 1.373 . S
C527 C529 1.389 . S
C528 H507 0.950 . S
C528 C527 1.373 . S
C528 C544 1.377 . S
C529 C527 1.389 . S
C529 C530 1.524 . S
C529 C543 1.377 . S
C530 C529 1.524 . S
C530 C531 1.397 . S
C530 C535 1.363 . S
C531 H508 0.950 . S
C531 C530 1.397 . S
C531 C532 1.334 . S
C532 H509 0.950 . S
C532 C531 1.334 . S
C532 C533 1.287 . S
C533 C532 1.287 . S
C533 C534 1.524 . S
C533 H552 0.913 . S
C534 H510 0.950 . S
C534 C533 1.524 . S
C534 C535 1.415 . S
C535 H511 0.950 . S
C535 C530 1.363 . S
C535 C534 1.415 . S
C536 H512 0.951 . S
C536 C537 1.366 . S
C536 C538 1.388 . S
C537 C536 1.366 . S
C537 C541 1.385 . S
C538 H513 0.951 . S
C538 C536 1.388 . S
C538 C539 1.366 . S
C539 C538 1.366 . S
C539 C540 1.414 . S
C539 C542 1.499 . S
C540 H514 0.950 . S
C540 C539 1.414 . S
C540 C541 1.374 . S
C541 H515 0.950 1_655 S
C541 C537 1.385 . S
C541 C540 1.374 . S
C542 C539 1.499 . S
C542 C543 1.373 . S
C542 C544 1.389 . S
C543 H516 0.950 . S
C543 C529 1.377 . S
C543 C542 1.373 . S
C544 C528 1.377 . S
C544 C542 1.389 . S
C544 C545 1.524 . S
C545 C544 1.524 . S
C545 C546 1.397 . S
C545 C550 1.363 . S
C546 H517 0.950 . S
C546 C545 1.397 . S
C546 C547 1.334 . S
C547 H518 0.950 . S
C547 C546 1.334 . S
C547 C548 1.287 . S
C548 C547 1.287 . S
C548 C549 1.524 . S
C548 H551 0.999 . S
C549 H519 0.950 . S
C549 C548 1.524 . S
C549 C550 1.415 . S
C550 H520 0.950 . S
C550 C545 1.363 . S
C550 C549 1.415 . S
H551 C548 0.999 . S
H552 C533 0.913 . S
H553 C571 0.951 . S
H554 C573 0.951 . S
H555 C575 0.950 . S
H556 C576 0.950 . S
H557 C578 0.950 . S
H558 C581 0.950 . S
H559 C582 0.950 . S
H560 C584 0.950 . S
H561 C585 0.950 . S
H562 C586 0.951 . S
H563 C588 0.951 . S
H564 C590 0.950 . S
H565 C591 0.950 . S
H566 C593 0.950 . S
H567 C596 0.950 . S
H568 C597 0.950 . S
H569 C599 0.950 . S
H570 C600 0.950 . S
C571 H553 0.951 . S
C571 C572 1.366 . S
C571 C573 1.388 . S
C572 C571 1.366 . S
C572 C576 1.385 . S
C573 H554 0.951 . S
C573 C571 1.388 . S
C573 C574 1.366 . S
C574 C573 1.366 . S
C574 C575 1.414 . S
C574 C577 1.499 . S
C575 H555 0.950 . S
C575 C574 1.414 . S
C575 C576 1.374 . S
C576 H556 0.950 . S
C576 C572 1.385 . S
C576 C575 1.374 . S
C577 C574 1.499 . S
C577 C578 1.373 . S
C577 C579 1.389 . S
C578 H557 0.950 . S
C578 C577 1.373 . S
C578 C594 1.377 . S
C579 C577 1.389 . S
C579 C580 1.524 . S
C579 C593 1.377 . S
C580 C579 1.524 . S
C580 C581 1.397 . S
C580 C585 1.363 . S
C581 H558 0.950 . S
C581 C580 1.397 . S
C581 C582 1.334 . S
C582 H559 0.950 . S
C582 C581 1.334 . S
C582 C583 1.287 . S
C583 C582 1.287 . S
C583 C584 1.524 . S
C583 H602 0.913 . S
C584 H560 0.950 . S
C584 C583 1.524 . S
C584 C585 1.415 . S
C585 H561 0.950 . S
C585 C580 1.363 . S
C585 C584 1.415 . S
C586 H562 0.951 . S
C586 C587 1.366 . S
C586 C588 1.388 . S
C587 C586 1.366 . S
C587 C591 1.385 . S
C588 H563 0.951 . S
C588 C586 1.388 . S
C588 C589 1.366 . S
C589 C588 1.366 . S
C589 C590 1.414 . S
C589 C592 1.499 . S
C590 H564 0.950 . S
C590 C589 1.414 . S
C590 C591 1.374 . S
C591 H565 0.950 . S
C591 C587 1.385 . S
C591 C590 1.374 . S
C592 C589 1.499 . S
C592 C593 1.373 . S
C592 C594 1.389 . S
C593 H566 0.950 . S
C593 C579 1.377 . S
C593 C592 1.373 . S
C594 C578 1.377 . S
C594 C592 1.389 . S
C594 C595 1.524 . S
C595 C594 1.524 . S
C595 C596 1.397 . S
C595 C600 1.363 . S
C596 H567 0.950 . S
C596 C595 1.397 . S
C596 C597 1.334 . S
C597 H568 0.950 . S
C597 C596 1.334 . S
C597 C598 1.287 . S
C598 C597 1.287 . S
C598 C599 1.524 . S
C598 H601 0.999 . S
C599 H569 0.950 . S
C599 C598 1.524 . S
C599 C600 1.415 . S
C600 H570 0.950 . S
C600 C595 1.363 . S
C600 C599 1.415 . S
H601 C598 0.999 . S
H602 C583 0.913 . S
H603 C621 0.951 . S
H604 C623 0.951 . S
H605 C625 0.950 . S
H606 C626 0.950 . S
H607 C628 0.950 . S
H608 C631 0.950 . S
H609 C632 0.950 . S
H610 C634 0.950 . S
H611 C635 0.950 . S
H612 C636 0.951 . S
H613 C638 0.951 . S
H614 C640 0.950 . S
H615 C641 0.950 . S
H616 C643 0.950 . S
H617 C646 0.950 . S
H618 C647 0.950 . S
H619 C649 0.950 . S
H620 C650 0.950 . S
C621 H603 0.951 . S
C621 C622 1.366 . S
C621 C623 1.388 . S
C622 C621 1.366 . S
C622 C626 1.385 . S
C623 H604 0.951 . S
C623 C621 1.388 . S
C623 C624 1.366 . S
C624 C623 1.366 . S
C624 C625 1.414 . S
C624 C627 1.499 . S
C625 H605 0.950 . S
C625 C624 1.414 . S
C625 C626 1.374 . S
C626 H606 0.950 . S
C626 C622 1.385 . S
C626 C625 1.374 . S
C627 C624 1.499 . S
C627 C628 1.373 . S
C627 C629 1.389 . S
C628 H607 0.950 . S
C628 C627 1.373 . S
C628 C644 1.377 . S
C629 C627 1.389 . S
C629 C630 1.524 . S
C629 C643 1.377 . S
C630 C629 1.524 . S
C630 C631 1.397 . S
C630 C635 1.363 . S
C631 H608 0.950 . S
C631 C630 1.397 . S
C631 C632 1.334 . S
C632 H609 0.950 . S
C632 C631 1.334 . S
C632 C633 1.287 . S
C633 C632 1.287 . S
C633 C634 1.524 . S
C633 H652 0.913 . S
C634 H610 0.950 . S
C634 C633 1.524 . S
C634 C635 1.415 . S
C635 H611 0.950 . S
C635 C630 1.363 . S
C635 C634 1.415 . S
C636 H612 0.951 . S
C636 C637 1.366 . S
C636 C638 1.388 . S
C637 C636 1.366 . S
C637 C641 1.385 . S
C638 H613 0.951 . S
C638 C636 1.388 . S
C638 C639 1.366 . S
C639 C638 1.366 . S
C639 C640 1.414 . S
C639 C642 1.499 . S
C640 H614 0.950 . S
C640 C639 1.414 . S
C640 C641 1.374 . S
C641 H615 0.950 . S
C641 C637 1.385 . S
C641 C640 1.374 . S
C642 C639 1.499 . S
C642 C643 1.373 . S
C642 C644 1.389 . S
C643 H616 0.950 . S
C643 C629 1.377 . S
C643 C642 1.373 . S
C644 C628 1.377 . S
C644 C642 1.389 . S
C644 C645 1.524 . S
C645 C644 1.524 . S
C645 C646 1.397 . S
C645 C650 1.363 . S
C646 H617 0.950 . S
C646 C645 1.397 . S
C646 C647 1.334 . S
C647 H618 0.950 . S
C647 C646 1.334 . S
C647 C648 1.287 . S
C648 C647 1.287 . S
C648 C649 1.524 . S
C648 H651 0.999 . S
C649 H619 0.950 . S
C649 C648 1.524 . S
C649 C650 1.415 . S
C650 H620 0.950 . S
C650 C645 1.363 . S
C650 C649 1.415 . S
H651 C648 0.999 . S
H652 C633 0.913 . S
H653 C671 0.951 . S
H654 C673 0.951 . S
H655 C675 0.950 . S
H656 C676 0.950 . S
H657 C678 0.950 . S
H658 C681 0.950 . S
H659 C682 0.950 . S
H660 C684 0.950 . S
H661 C685 0.950 . S
H662 C686 0.951 . S
H663 C688 0.951 . S
H664 C690 0.950 . S
H665 C691 0.950 . S
H666 C693 0.950 . S
H667 C696 0.950 . S
H668 C697 0.950 . S
H669 C699 0.950 . S
H670 C700 0.950 . S
C671 H653 0.951 . S
C671 C672 1.366 . S
C671 C673 1.388 . S
C672 C671 1.366 . S
C672 C676 1.385 . S
C673 H654 0.951 . S
C673 C671 1.388 . S
C673 C674 1.366 . S
C674 C673 1.366 . S
C674 C675 1.414 . S
C674 C677 1.499 . S
C675 H655 0.950 . S
C675 C674 1.414 . S
C675 C676 1.374 . S
C676 H656 0.950 . S
C676 C672 1.385 . S
C676 C675 1.374 . S
C677 C674 1.499 . S
C677 C678 1.373 . S
C677 C679 1.389 . S
C678 H657 0.950 . S
C678 C677 1.373 . S
C678 C694 1.377 . S
C679 C677 1.389 . S
C679 C680 1.524 . S
C679 C693 1.377 . S
C680 C679 1.524 . S
C680 C681 1.397 . S
C680 C685 1.363 . S
C681 H658 0.950 . S
C681 C680 1.397 . S
C681 C682 1.334 . S
C682 H659 0.950 . S
C682 C681 1.334 . S
C682 C683 1.287 . S
C683 C682 1.287 . S
C683 C684 1.524 . S
C683 H702 0.913 . S
C684 H660 0.950 . S
C684 C683 1.524 . S
C684 C685 1.415 . S
C685 H661 0.950 . S
C685 C680 1.363 . S
C685 C684 1.415 . S
C686 H662 0.951 . S
C686 C687 1.366 . S
C686 C688 1.388 . S
C687 C686 1.366 . S
C687 C691 1.385 . S
C688 H663 0.951 . S
C688 C686 1.388 . S
C688 C689 1.366 . S
C689 C688 1.366 . S
C689 C690 1.414 . S
C689 C692 1.499 . S
C690 H664 0.950 . S
C690 C689 1.414 . S
C690 C691 1.374 . S
C691 H665 0.950 . S
C691 C687 1.385 . S
C691 C690 1.374 . S
C692 C689 1.499 . S
C692 C693 1.373 . S
C692 C694 1.389 . S
C693 H666 0.950 . S
C693 C679 1.377 . S
C693 C692 1.373 . S
C694 C678 1.377 . S
C694 C692 1.389 . S
C694 C695 1.524 . S
C695 C694 1.524 . S
C695 C696 1.397 . S
C695 C700 1.363 . S
C696 H667 0.950 . S
C696 C695 1.397 . S
C696 C697 1.334 . S
C697 H668 0.950 . S
C697 C696 1.334 . S
C697 C698 1.287 . S
C698 C697 1.287 . S
C698 C699 1.524 . S
C698 H701 0.999 . S
C699 H669 0.950 . S
C699 C698 1.524 . S
C699 C700 1.415 . S
C700 H670 0.950 . S
C700 C695 1.363 . S
C700 C699 1.415 . S
H701 C698 0.999 . S
H702 C683 0.913 . S
H703 C721 0.951 . S
H704 C723 0.951 . S
H705 C725 0.950 . S
H706 C726 0.950 . S
H707 C728 0.950 . S
H708 C731 0.950 . S
H709 C732 0.950 . S
H710 C734 0.950 . S
H711 C735 0.950 . S
H712 C736 0.951 . S
H713 C738 0.951 . S
H714 C740 0.950 . S
H715 C741 0.950 . S
H716 C743 0.950 . S
H717 C746 0.950 . S
H718 C747 0.950 . S
H719 C749 0.950 . S
H720 C750 0.950 . S
C721 H703 0.951 . S
C721 C722 1.366 . S
C721 C723 1.388 . S
C722 C721 1.366 . S
C722 C726 1.385 . S
C723 H704 0.951 . S
C723 C721 1.388 . S
C723 C724 1.366 . S
C724 C723 1.366 . S
C724 C725 1.414 . S
C724 C727 1.499 . S
C725 H705 0.950 . S
C725 C724 1.414 . S
C725 C726 1.374 . S
C726 H706 0.950 . S
C726 C722 1.385 . S
C726 C725 1.374 . S
C727 C724 1.499 . S
C727 C728 1.373 . S
C727 C729 1.389 . S
C728 H707 0.950 . S
C728 C727 1.373 . S
C728 C744 1.377 . S
C729 C727 1.389 . S
C729 C730 1.524 . S
C729 C743 1.377 . S
C730 C729 1.524 . S
C730 C731 1.397 . S
C730 C735 1.363 . S
C731 H708 0.950 . S
C731 C730 1.397 . S
C731 C732 1.334 . S
C732 H709 0.950 . S
C732 C731 1.334 . S
C732 C733 1.287 . S
C733 C732 1.287 . S
C733 C734 1.524 . S
C733 H752 0.913 . S
C734 H710 0.950 . S
C734 C733 1.524 . S
C734 C735 1.415 . S
C735 H711 0.950 . S
C735 C730 1.363 . S
C735 C734 1.415 . S
C736 H712 0.951 . S
C736 C737 1.366 . S
C736 C738 1.388 . S
C737 C736 1.366 . S
C737 C741 1.385 . S
C738 H713 0.951 . S
C738 C736 1.388 . S
C738 C739 1.366 . S
C739 C738 1.366 . S
C739 C740 1.414 . S
C739 C742 1.499 . S
C740 H714 0.950 . S
C740 C739 1.414 . S
C740 C741 1.374 . S
C741 H715 0.950 . S
C741 C737 1.385 . S
C741 C740 1.374 . S
C742 C739 1.499 . S
C742 C743 1.373 . S
C742 C744 1.389 . S
C743 H716 0.950 . S
C743 C729 1.377 . S
C743 C742 1.373 . S
C744 C728 1.377 . S
C744 C742 1.389 . S
C744 C745 1.524 . S
C745 C744 1.524 . S
C745 C746 1.397 . S
C745 C750 1.363 . S
C746 H717 0.950 . S
C746 C745 1.397 . S
C746 C747 1.334 . S
C747 H718 0.950 . S
C747 C746 1.334 . S
C747 C748 1.287 . S
C748 C747 1.287 . S
C748 C749 1.524 . S
C748 H751 0.999 . S
C749 H719 0.950 . S
C749 C748 1.524 . S
C749 C750 1.415 . S
C750 H720 0.950 . S
C750 C745 1.363 . S
C750 C749 1.415 . S
H751 C748 0.999 . S
H752 C733 0.913 . S
H753 C771 0.951 . S
H754 C773 0.951 . S
H755 C775 0.950 . S
H756 C776 0.950 . S
H757 C778 0.950 . S
H758 C781 0.950 . S
H759 C782 0.950 . S
H760 C784 0.950 . S
H761 C785 0.950 . S
H762 C786 0.951 . S
H763 C788 0.951 . S
H764 C790 0.950 . S
H765 C791 0.950 . S
H766 C793 0.950 . S
H767 C796 0.950 . S
H768 C797 0.950 . S
H769 C799 0.950 . S
H770 C800 0.950 . S
C771 H753 0.951 . S
C771 C772 1.366 . S
C771 C773 1.388 . S
C772 C771 1.366 . S
C772 C776 1.385 . S
C773 H754 0.951 . S
C773 C771 1.388 . S
C773 C774 1.366 . S
C774 C773 1.366 . S
C774 C775 1.414 . S
C774 C777 1.499 . S
C775 H755 0.950 . S
C775 C774 1.414 . S
C775 C776 1.374 . S
C776 H756 0.950 . S
C776 C772 1.385 . S
C776 C775 1.374 . S
C777 C774 1.499 . S
C777 C778 1.373 . S
C777 C779 1.389 . S
C778 H757 0.950 . S
C778 C777 1.373 . S
C778 C794 1.377 . S
C779 C777 1.389 . S
C779 C780 1.524 . S
C779 C793 1.377 . S
C780 C779 1.524 . S
C780 C781 1.397 . S
C780 C785 1.363 . S
C781 H758 0.950 . S
C781 C780 1.397 . S
C781 C782 1.334 . S
C782 H759 0.950 . S
C782 C781 1.334 . S
C782 C783 1.287 . S
C783 C782 1.287 . S
C783 C784 1.524 . S
C783 H802 0.913 . S
C784 H760 0.950 . S
C784 C783 1.524 . S
C784 C785 1.415 . S
C785 H761 0.950 . S
C785 C780 1.363 . S
C785 C784 1.415 . S
C786 H762 0.951 . S
C786 C787 1.366 . S
C786 C788 1.388 . S
C787 C786 1.366 . S
C787 C791 1.385 . S
C788 H763 0.951 . S
C788 C786 1.388 . S
C788 C789 1.366 . S
C789 C788 1.366 . S
C789 C790 1.414 . S
C789 C792 1.499 . S
C790 H764 0.950 . S
C790 C789 1.414 . S
C790 C791 1.374 . S
C791 H765 0.950 . S
C791 C787 1.385 . S
C791 C790 1.374 . S
C792 C789 1.499 . S
C792 C793 1.373 . S
C792 C794 1.389 . S
C793 H766 0.950 . S
C793 C779 1.377 . S
C793 C792 1.373 . S
C794 C778 1.377 . S
C794 C792 1.389 . S
C794 C795 1.524 . S
C795 C794 1.524 . S
C795 C796 1.397 . S
C795 C800 1.363 . S
C796 H767 0.950 . S
C796 C795 1.397 . S
C796 C797 1.334 . S
C797 H768 0.950 . S
C797 C796 1.334 . S
C797 C798 1.287 . S
C798 C797 1.287 . S
C798 C799 1.524 . S
C798 H801 0.999 . S
C799 H769 0.950 . S
C799 C798 1.524 . S
C799 C800 1.415 . S
C800 H770 0.950 . S
C800 C795 1.363 . S
C800 C799 1.415 . S
H801 C798 0.999 . S
H802 C783 0.913 . S
H803 C821 0.951 . S
H804 C823 0.951 . S
H805 C825 0.950 . S
H806 C826 0.950 . S
H807 C828 0.950 . S
H808 C831 0.950 . S
H809 C832 0.950 . S
H810 C834 0.950 . S
H811 C835 0.950 . S
H812 C836 0.951 . S
H813 C838 0.951 . S
H814 C840 0.950 . S
H815 C841 0.950 . S
H816 C843 0.950 . S
H817 C846 0.950 . S
H818 C847 0.950 . S
H819 C849 0.950 . S
H820 C850 0.950 . S
C821 H803 0.951 . S
C821 C822 1.366 . S
C821 C823 1.388 . S
C822 C821 1.366 . S
C822 C826 1.385 . S
C823 H804 0.951 . S
C823 C821 1.388 . S
C823 C824 1.366 . S
C824 C823 1.366 . S
C824 C825 1.414 . S
C824 C827 1.499 . S
C825 H805 0.950 . S
C825 C824 1.414 . S
C825 C826 1.374 . S
C826 H806 0.950 . S
C826 C822 1.385 . S
C826 C825 1.374 . S
C827 C824 1.499 . S
C827 C828 1.373 . S
C827 C829 1.389 . S
C828 H807 0.950 . S
C828 C827 1.373 . S
C828 C844 1.377 . S
C829 C827 1.389 . S
C829 C830 1.524 . S
C829 C843 1.377 . S
C830 C829 1.524 . S
C830 C831 1.397 . S
C830 C835 1.363 . S
C831 H808 0.950 . S
C831 C830 1.397 . S
C831 C832 1.334 . S
C832 H809 0.950 . S
C832 C831 1.334 . S
C832 C833 1.287 . S
C833 C832 1.287 . S
C833 C834 1.524 . S
C833 H852 0.913 . S
C834 H810 0.950 . S
C834 C833 1.524 . S
C834 C835 1.415 . S
C835 H811 0.950 . S
C835 C830 1.363 . S
C835 C834 1.415 . S
C836 H812 0.951 . S
C836 C837 1.366 . S
C836 C838 1.388 . S
C837 C836 1.366 . S
C837 C841 1.385 . S
C838 H813 0.951 . S
C838 C836 1.388 . S
C838 C839 1.366 . S
C839 C838 1.366 . S
C839 C840 1.414 . S
C839 C842 1.499 . S
C840 H814 0.950 . S
C840 C839 1.414 . S
C840 C841 1.374 . S
C841 H815 0.950 . S
C841 C837 1.385 . S
C841 C840 1.374 . S
C842 C839 1.499 . S
C842 C843 1.373 . S
C842 C844 1.389 . S
C843 H816 0.950 . S
C843 C829 1.377 . S
C843 C842 1.373 . S
C844 C828 1.377 . S
C844 C842 1.389 . S
C844 C845 1.524 . S
C845 C844 1.524 . S
C845 C846 1.397 . S
C845 C850 1.363 . S
C846 H817 0.950 . S
C846 C845 1.397 . S
C846 C847 1.334 . S
C847 H818 0.950 . S
C847 C846 1.334 . S
C847 C848 1.287 . S
C848 C847 1.287 . S
C848 C849 1.524 . S
C848 H851 0.999 . S
C849 H819 0.950 . S
C849 C848 1.524 . S
C849 C850 1.415 . S
C850 H820 0.950 . S
C850 C845 1.363 . S
C850 C849 1.415 . S
H851 C848 0.999 . S
H852 C833 0.913 . S
H853 C871 0.951 . S
H854 C873 0.951 . S
H855 C875 0.950 . S
H856 C876 0.950 . S
H857 C878 0.950 . S
H858 C881 0.950 . S
H859 C882 0.950 . S
H860 C884 0.950 . S
H861 C885 0.950 . S
H862 C886 0.951 . S
H863 C888 0.951 . S
H864 C890 0.950 . S
H865 C891 0.950 . S
H866 C893 0.950 . S
H867 C896 0.950 . S
H868 C897 0.950 . S
H869 C899 0.950 . S
H870 C900 0.950 . S
C871 H853 0.951 . S
C871 C872 1.366 . S
C871 C873 1.388 . S
C872 C871 1.366 . S
C872 C876 1.385 . S
C873 H854 0.951 . S
C873 C871 1.388 . S
C873 C874 1.366 . S
C874 C873 1.366 . S
C874 C875 1.414 . S
C874 C877 1.499 . S
C875 H855 0.950 . S
C875 C874 1.414 . S
C875 C876 1.374 . S
C876 H856 0.950 . S
C876 C872 1.385 . S
C876 C875 1.374 . S
C877 C874 1.499 . S
C877 C878 1.373 . S
C877 C879 1.389 . S
C878 H857 0.950 . S
C878 C877 1.373 . S
C878 C894 1.377 . S
C879 C877 1.389 . S
C879 C880 1.524 . S
C879 C893 1.377 . S
C880 C879 1.524 . S
C880 C881 1.397 . S
C880 C885 1.363 . S
C881 H858 0.950 . S
C881 C880 1.397 . S
C881 C882 1.334 . S
C882 H859 0.950 . S
C882 C881 1.334 . S
C882 C883 1.287 . S
C883 C882 1.287 . S
C883 C884 1.524 . S
C883 H902 0.913 . S
C884 H860 0.950 . S
C884 C883 1.524 . S
C884 C885 1.415 . S
C885 H861 0.950 . S
C885 C880 1.363 . S
C885 C884 1.415 . S
C886 H862 0.951 . S
C886 C887 1.366 . S
C886 C888 1.388 . S
C887 C886 1.366 . S
C887 C891 1.385 . S
C888 H863 0.951 . S
C888 C886 1.388 . S
C888 C889 1.366 . S
C889 C888 1.366 . S
C889 C890 1.414 . S
C889 C892 1.499 . S
C890 H864 0.950 . S
C890 C889 1.414 . S
C890 C891 1.374 . S
C891 H865 0.950 . S
C891 C887 1.385 . S
C891 C890 1.374 . S
C892 C889 1.499 . S
C892 C893 1.373 . S
C892 C894 1.389 . S
C893 H866 0.950 . S
C893 C879 1.377 . S
C893 C892 1.373 . S
C894 C878 1.377 . S
C894 C892 1.389 . S
C894 C895 1.524 . S
C895 C894 1.524 . S
C895 C896 1.397 . S
C895 C900 1.363 . S
C896 H867 0.950 . S
C896 C895 1.397 . S
C896 C897 1.334 . S
C897 H868 0.950 . S
C897 C896 1.334 . S
C897 C898 1.287 . S
C898 C897 1.287 . S
C898 C899 1.524 . S
C898 H901 0.999 . S
C899 H869 0.950 . S
C899 C898 1.524 . S
C899 C900 1.415 . S
C900 H870 0.950 . S
C900 C895 1.363 . S
C900 C899 1.415 . S
H901 C898 0.999 . S
H902 C883 0.913 . S
H903 C921 0.951 . S
H904 C923 0.951 . S
H905 C925 0.950 . S
H906 C926 0.950 . S
H907 C928 0.950 . S
H908 C931 0.950 . S
H909 C932 0.950 . S
H910 C934 0.950 . S
H911 C935 0.950 . S
H912 C936 0.951 . S
H913 C938 0.951 . S
H914 C940 0.950 . S
H915 C941 0.950 . S
H916 C943 0.950 . S
H917 C946 0.950 . S
H918 C947 0.950 . S
H919 C949 0.950 . S
H920 C950 0.950 . S
C921 H903 0.951 . S
C921 C922 1.366 . S
C921 C923 1.388 . S
C922 C921 1.366 . S
C922 C926 1.385 . S
C923 H904 0.951 . S
C923 C921 1.388 . S
C923 C924 1.366 . S
C924 C923 1.366 . S
C924 C925 1.414 . S
C924 C927 1.499 . S
C925 H905 0.950 . S
C925 C924 1.414 . S
C925 C926 1.374 . S
C926 H906 0.950 . S
C926 C922 1.385 . S
C926 C925 1.374 . S
C927 C924 1.499 . S
C927 C928 1.373 . S
C927 C929 1.389 . S
C928 H907 0.950 . S
C928 C927 1.373 . S
C928 C944 1.377 . S
C929 C927 1.389 . S
C929 C930 1.524 . S
C929 C943 1.377 . S
C930 C929 1.524 . S
C930 C931 1.397 . S
C930 C935 1.363 . S
C931 H908 0.950 . S
C931 C930 1.397 . S
C931 C932 1.334 . S
C932 H909 0.950 . S
C932 C931 1.334 . S
C932 C933 1.287 . S
C933 C932 1.287 . S
C933 C934 1.524 . S
C933 H952 0.913 . S
C934 H910 0.950 . S
C934 C933 1.524 . S
C934 C935 1.415 . S
C935 H911 0.950 . S
C935 C930 1.363 . S
C935 C934 1.415 . S
C936 H912 0.951 . S
C936 C937 1.366 . S
C936 C938 1.388 . S
C937 C936 1.366 . S
C937 C941 1.385 . S
C938 H913 0.951 . S
C938 C936 1.388 . S
C938 C939 1.366 . S
C939 C938 1.366 . S
C939 C940 1.414 . S
C939 C942 1.499 . S
C940 H914 0.950 . S
C940 C939 1.414 . S
C940 C941 1.374 . S
C941 H915 0.950 . S
C941 C937 1.385 . S
C941 C940 1.374 . S
C942 C939 1.499 . S
C942 C943 1.373 . S
C942 C944 1.389 . S
C943 H916 0.950 . S
C943 C929 1.377 . S
C943 C942 1.373 . S
C944 C928 1.377 . S
C944 C942 1.389 . S
C944 C945 1.524 . S
C945 C944 1.524 . S
C945 C946 1.397 . S
C945 C950 1.363 . S
C946 H917 0.950 . S
C946 C945 1.397 . S
C946 C947 1.334 . S
C947 H918 0.950 . S
C947 C946 1.334 . S
C947 C948 1.287 . S
C948 C947 1.287 . S
C948 C949 1.524 . S
C948 H951 0.999 . S
C949 H919 0.950 . S
C949 C948 1.524 . S
C949 C950 1.415 . S
C950 H920 0.950 . S
C950 C945 1.363 . S
C950 C949 1.415 . S
H951 C948 0.999 . S
H952 C933 0.913 . S
H953 C971 0.951 . S
H954 C973 0.951 . S
H955 C975 0.950 . S
H956 C976 0.950 . S
H957 C978 0.950 . S
H958 C981 0.950 . S
H959 C982 0.950 . S
H960 C984 0.950 . S
H961 C985 0.950 . S
H962 C986 0.951 . S
H963 C988 0.951 . S
H964 C990 0.950 . S
H965 C991 0.950 . S
H966 C993 0.950 . S
H967 C996 0.950 . S
H968 C997 0.950 . S
H969 C999 0.950 . S
H970 C1000 0.950 . S
C971 H953 0.951 . S
C971 C972 1.366 . S
C971 C973 1.388 . S
C972 C971 1.366 . S
C972 C976 1.385 . S
C973 H954 0.951 . S
C973 C971 1.388 . S
C973 C974 1.366 . S
C974 C973 1.366 . S
C974 C975 1.414 . S
C974 C977 1.499 . S
C975 H955 0.950 . S
C975 C974 1.414 . S
C975 C976 1.374 . S
C976 H956 0.950 . S
C976 C972 1.385 . S
C976 C975 1.374 . S
C977 C974 1.499 . S
C977 C978 1.373 . S
C977 C979 1.389 . S
C978 H957 0.950 . S
C978 C977 1.373 . S
C978 C994 1.377 . S
C979 C977 1.389 . S
C979 C980 1.524 . S
C979 C993 1.377 . S
C980 C979 1.524 . S
C980 C981 1.397 . S
C980 C985 1.363 . S
C981 H958 0.950 . S
C981 C980 1.397 . S
C981 C982 1.334 . S
C982 H959 0.950 . S
C982 C981 1.334 . S
C982 C983 1.287 . S
C983 C982 1.287 . S
C983 C984 1.524 . S
C983 H1002 0.913 . S
C984 H960 0.950 . S
C984 C983 1.524 . S
C984 C985 1.415 . S
C985 H961 0.950 . S
C985 C980 1.363 . S
C985 C984 1.415 . S
C986 H962 0.951 . S
C986 C987 1.366 . S
C986 C988 1.388 . S
C987 C986 1.366 . S
C987 C991 1.385 . S
C988 H963 0.951 . S
C988 C986 1.388 . S
C988 C989 1.366 . S
C989 C988 1.366 . S
C989 C990 1.414 . S
C989 C992 1.499 . S
C990 H964 0.950 . S
C990 C989 1.414 . S
C990 C991 1.374 . S
C991 H965 0.950 . S
C991 C987 1.385 . S
C991 C990 1.374 . S
C992 C989 1.499 . S
C992 C993 1.373 . S
C992 C994 1.389 . S
C993 H966 0.950 . S
C993 C979 1.377 . S
C993 C992 1.373 . S
C994 C978 1.377 . S
C994 C992 1.389 . S
C994 C995 1.524 . S
C995 C994 1.524 . S
C995 C996 1.397 . S
C995 C1000 1.363 . S
C996 H967 0.950 . S
C996 C995 1.397 . S
C996 C997 1.334 . S
C997 H968 0.950 . S
C997 C996 1.334 . S
C997 C998 1.287 . S
C998 C997 1.287 . S
C998 C999 1.524 . S
C998 H1001 0.999 . S
C999 H969 0.950 . S
C999 C998 1.524 . S
C999 C1000 1.415 . S
C1000 H970 0.950 . S
C1000 C995 1.363 . S
C1000 C999 1.415 . S
H1001 C998 0.999 . S
H1002 C983 0.913 . S
H1003 C1021 0.951 . S
H1004 C1023 0.951 . S
H1005 C1025 0.950 . S
H1006 C1026 0.950 . S
H1007 C1028 0.950 . S
H1008 C1031 0.950 . S
H1009 C1032 0.950 . S
H1010 C1034 0.950 . S
H1011 C1035 0.950 . S
H1012 C1036 0.951 . S
H1013 C1038 0.951 . S
H1014 C1040 0.950 . S
H1015 C1041 0.950 . S
H1016 C1043 0.950 . S
H1017 C1046 0.950 . S
H1018 C1047 0.950 . S
H1019 C1049 0.950 . S
H1020 C1050 0.950 . S
C1021 H1003 0.951 . S
C1021 C1022 1.366 . S
C1021 C1023 1.388 . S
C1022 C1021 1.366 . S
C1022 C1026 1.385 . S
C1023 H1004 0.951 . S
C1023 C1021 1.388 . S
C1023 C1024 1.366 . S
C1024 C1023 1.366 . S
C1024 C1025 1.414 . S
C1024 C1027 1.499 . S
C1025 H1005 0.950 . S
C1025 C1024 1.414 . S
C1025 C1026 1.374 . S
C1026 H1006 0.950 . S
C1026 C1022 1.385 . S
C1026 C1025 1.374 . S
C1027 C1024 1.499 . S
C1027 C1028 1.373 . S
C1027 C1029 1.389 . S
C1028 H1007 0.950 . S
C1028 C1027 1.373 . S
C1028 C1044 1.377 . S
C1029 C1027 1.389 . S
C1029 C1030 1.524 . S
C1029 C1043 1.377 . S
C1030 C1029 1.524 . S
C1030 C1031 1.397 . S
C1030 C1035 1.363 . S
C1031 H1008 0.950 . S
C1031 C1030 1.397 . S
C1031 C1032 1.334 . S
C1032 H1009 0.950 . S
C1032 C1031 1.334 . S
C1032 C1033 1.287 . S
C1033 C1032 1.287 . S
C1033 C1034 1.524 . S
C1033 H1052 0.913 . S
C1034 H1010 0.950 . S
C1034 C1033 1.524 . S
C1034 C1035 1.415 . S
C1035 H1011 0.950 . S
C1035 C1030 1.363 . S
C1035 C1034 1.415 . S
C1036 H1012 0.951 . S
C1036 C1037 1.366 . S
C1036 C1038 1.388 . S
C1037 C1036 1.366 . S
C1037 C1041 1.385 . S
C1038 H1013 0.951 . S
C1038 C1036 1.388 . S
C1038 C1039 1.366 . S
C1039 C1038 1.366 . S
C1039 C1040 1.414 . S
C1039 C1042 1.499 . S
C1040 H1014 0.950 . S
C1040 C1039 1.414 . S
C1040 C1041 1.374 . S
C1041 H1015 0.950 . S
C1041 C1037 1.385 . S
C1041 C1040 1.374 . S
C1042 C1039 1.499 . S
C1042 C1043 1.373 . S
C1042 C1044 1.389 . S
C1043 H1016 0.950 . S
C1043 C1029 1.377 . S
C1043 C1042 1.373 . S
C1044 C1028 1.377 . S
C1044 C1042 1.389 . S
C1044 C1045 1.524 . S
C1045 C1044 1.524 . S
C1045 C1046 1.397 . S
C1045 C1050 1.363 . S
C1046 H1017 0.950 . S
C1046 C1045 1.397 . S
C1046 C1047 1.334 . S
C1047 H1018 0.950 . S
C1047 C1046 1.334 . S
C1047 C1048 1.287 . S
C1048 C1047 1.287 . S
C1048 C1049 1.524 . S
C1048 H1051 0.999 . S
C1049 H1019 0.950 . S
C1049 C1048 1.524 . S
C1049 C1050 1.415 . S
C1050 H1020 0.950 . S
C1050 C1045 1.363 . S
C1050 C1049 1.415 . S
H1051 C1048 0.999 . S
H1052 C1033 0.913 . S
H1053 C1071 0.951 . S
H1054 C1073 0.951 . S
H1055 C1075 0.950 . S
H1056 C1076 0.950 . S
H1057 C1078 0.950 . S
H1058 C1081 0.950 . S
H1059 C1082 0.950 . S
H1060 C1084 0.950 . S
H1061 C1085 0.950 . S
H1062 C1086 0.951 . S
H1063 C1088 0.951 . S
H1064 C1090 0.950 . S
H1065 C1091 0.950 . S
H1066 C1093 0.950 . S
H1067 C1096 0.950 . S
H1068 C1097 0.950 . S
H1069 C1099 0.950 . S
H1070 C1100 0.950 . S
C1071 H1053 0.951 . S
C1071 C1072 1.366 . S
C1071 C1073 1.388 . S
C1072 C1071 1.366 . S
C1072 C1076 1.385 . S
C1073 H1054 0.951 . S
C1073 C1071 1.388 . S
C1073 C1074 1.366 . S
C1074 C1073 1.366 . S
C1074 C1075 1.414 . S
C1074 C1077 1.499 . S
C1075 H1055 0.950 . S
C1075 C1074 1.414 . S
C1075 C1076 1.374 . S
C1076 H1056 0.950 . S
C1076 C1072 1.385 . S
C1076 C1075 1.374 . S
C1077 C1074 1.499 . S
C1077 C1078 1.373 . S
C1077 C1079 1.389 . S
C1078 H1057 0.950 . S
C1078 C1077 1.373 . S
C1078 C1094 1.377 . S
C1079 C1077 1.389 . S
C1079 C1080 1.524 . S
C1079 C1093 1.377 . S
C1080 C1079 1.524 . S
C1080 C1081 1.397 . S
C1080 C1085 1.363 . S
C1081 H1058 0.950 . S
C1081 C1080 1.397 . S
C1081 C1082 1.334 . S
C1082 H1059 0.950 . S
C1082 C1081 1.334 . S
C1082 C1083 1.287 . S
C1083 C1082 1.287 . S
C1083 C1084 1.524 . S
C1083 H1102 0.913 . S
C1084 H1060 0.950 . S
C1084 C1083 1.524 . S
C1084 C1085 1.415 . S
C1085 H1061 0.950 . S
C1085 C1080 1.363 . S
C1085 C1084 1.415 . S
C1086 H1062 0.951 . S
C1086 C1087 1.366 . S
C1086 C1088 1.388 . S
C1087 C1086 1.366 . S
C1087 C1091 1.385 . S
C1088 H1063 0.951 . S
C1088 C1086 1.388 . S
C1088 C1089 1.366 . S
C1089 C1088 1.366 . S
C1089 C1090 1.414 . S
C1089 C1092 1.499 . S
C1090 H1064 0.950 . S
C1090 C1089 1.414 . S
C1090 C1091 1.374 . S
C1091 H1065 0.950 . S
C1091 C1087 1.385 . S
C1091 C1090 1.374 . S
C1092 C1089 1.499 . S
C1092 C1093 1.373 . S
C1092 C1094 1.389 . S
C1093 H1066 0.950 . S
C1093 C1079 1.377 . S
C1093 C1092 1.373 . S
C1094 C1078 1.377 . S
C1094 C1092 1.389 . S
C1094 C1095 1.524 . S
C1095 C1094 1.524 . S
C1095 C1096 1.397 . S
C1095 C1100 1.363 . S
C1096 H1067 0.950 . S
C1096 C1095 1.397 . S
C1096 C1097 1.334 . S
C1097 H1068 0.950 . S
C1097 C1096 1.334 . S
C1097 C1098 1.287 . S
C1098 C1097 1.287 . S
C1098 C1099 1.524 . S
C1098 H1101 0.999 . S
C1099 H1069 0.950 . S
C1099 C1098 1.524 . S
C1099 C1100 1.415 . S
C1100 H1070 0.950 . S
C1100 C1095 1.363 . S
C1100 C1099 1.415 . S
H1101 C1098 0.999 . S
H1102 C1083 0.913 . S
H1103 C1121 0.951 . S
H1104 C1123 0.951 . S
H1105 C1125 0.950 . S
H1106 C1126 0.950 . S
H1107 C1128 0.950 . S
H1108 C1131 0.950 . S
H1109 C1132 0.950 . S
H1110 C1134 0.950 . S
H1111 C1135 0.950 . S
H1112 C1136 0.951 . S
H1113 C1138 0.951 . S
H1114 C1140 0.950 . S
H1115 C1141 0.950 . S
H1116 C1143 0.950 . S
H1117 C1146 0.950 . S
H1118 C1147 0.950 . S
H1119 C1149 0.950 . S
H1120 C1150 0.950 . S
C1121 H1103 0.951 . S
C1121 C1122 1.366 . S
C1121 C1123 1.388 . S
C1122 C1121 1.366 . S
C1122 C1126 1.385 . S
C1123 H1104 0.951 . S
C1123 C1121 1.388 . S
C1123 C1124 1.366 . S
C1124 C1123 1.366 . S
C1124 C1125 1.414 . S
C1124 C1127 1.499 . S
C1125 H1105 0.950 . S
C1125 C1124 1.414 . S
C1125 C1126 1.374 . S
C1126 H1106 0.950 . S
C1126 C1122 1.385 . S
C1126 C1125 1.374 . S
C1127 C1124 1.499 . S
C1127 C1128 1.373 . S
C1127 C1129 1.389 . S
C1128 H1107 0.950 . S
C1128 C1127 1.373 . S
C1128 C1144 1.377 . S
C1129 C1127 1.389 . S
C1129 C1130 1.524 . S
C1129 C1143 1.377 . S
C1130 C1129 1.524 . S
C1130 C1131 1.397 . S
C1130 C1135 1.363 . S
C1131 H1108 0.950 . S
C1131 C1130 1.397 . S
C1131 C1132 1.334 . S
C1132 H1109 0.950 . S
C1132 C1131 1.334 . S
C1132 C1133 1.287 . S
C1133 C1132 1.287 . S
C1133 C1134 1.524 . S
C1133 H1152 0.913 . S
C1134 H1110 0.950 . S
C1134 C1133 1.524 . S
C1134 C1135 1.415 . S
C1135 H1111 0.950 . S
C1135 C1130 1.363 . S
C1135 C1134 1.415 . S
C1136 H1112 0.951 . S
C1136 C1137 1.366 . S
C1136 C1138 1.388 . S
C1137 C1136 1.366 . S
C1137 C1141 1.385 . S
C1138 H1113 0.951 . S
C1138 C1136 1.388 . S
C1138 C1139 1.366 . S
C1139 C1138 1.366 . S
C1139 C1140 1.414 . S
C1139 C1142 1.499 . S
C1140 H1114 0.950 . S
C1140 C1139 1.414 . S
C1140 C1141 1.374 . S
C1141 H1115 0.950 . S
C1141 C1137 1.385 . S
C1141 C1140 1.374 . S
C1142 C1139 1.499 . S
C1142 C1143 1.373 . S
C1142 C1144 1.389 . S
C1143 H1116 0.950 . S
C1143 C1129 1.377 . S
C1143 C1142 1.373 . S
C1144 C1128 1.377 . S
C1144 C1142 1.389 . S
C1144 C1145 1.524 . S
C1145 C1144 1.524 . S
C1145 C1146 1.397 . S
C1145 C1150 1.363 . S
C1146 H1117 0.950 . S
C1146 C1145 1.397 . S
C1146 C1147 1.334 . S
C1147 H1118 0.950 . S
C1147 C1146 1.334 . S
C1147 C1148 1.287 . S
C1148 C1147 1.287 . S
C1148 C1149 1.524 . S
C1148 H1151 0.999 . S
C1149 H1119 0.950 . S
C1149 C1148 1.524 . S
C1149 C1150 1.415 . S
C1150 H1120 0.950 . S
C1150 C1145 1.363 . S
C1150 C1149 1.415 . S
H1151 C1148 0.999 . S
H1152 C1133 0.913 . S
H1153 C1171 0.951 . S
H1154 C1173 0.951 . S
H1155 C1175 0.950 . S
H1156 C1176 0.950 . S
H1157 C1178 0.950 . S
H1158 C1181 0.950 . S
H1159 C1182 0.950 . S
H1160 C1184 0.950 . S
H1161 C1185 0.950 . S
H1162 C1186 0.951 . S
H1163 C1188 0.951 . S
H1164 C1190 0.950 . S
H1165 C1191 0.950 . S
H1166 C1193 0.950 . S
H1167 C1196 0.950 . S
H1168 C1197 0.950 . S
H1169 C1199 0.950 . S
H1170 C1200 0.950 . S
C1171 H1153 0.951 . S
C1171 C1172 1.366 . S
C1171 C1173 1.388 . S
C1172 C1171 1.366 . S
C1172 C1176 1.385 . S
C1173 H1154 0.951 . S
C1173 C1171 1.388 . S
C1173 C1174 1.366 . S
C1174 C1173 1.366 . S
C1174 C1175 1.414 . S
C1174 C1177 1.499 . S
C1175 H1155 0.950 . S
C1175 C1174 1.414 . S
C1175 C1176 1.374 . S
C1176 H1156 0.950 . S
C1176 C1172 1.385 . S
C1176 C1175 1.374 . S
C1177 C1174 1.499 . S
C1177 C1178 1.373 . S
C1177 C1179 1.389 . S
C1178 H1157 0.950 . S
C1178 C1177 1.373 . S
C1178 C1194 1.377 . S
C1179 C1177 1.389 . S
C1179 C1180 1.524 . S
C1179 C1193 1.377 . S
C1180 C1179 1.524 . S
C1180 C1181 1.397 . S
C1180 C1185 1.363 . S
C1181 H1158 0.950 . S
C1181 C1180 1.397 . S
C1181 C1182 1.334 . S
C1182 H1159 0.950 . S
C1182 C1181 1.334 . S
C1182 C1183 1.287 . S
C1183 C1182 1.287 . S
C1183 C1184 1.524 . S
C1183 H1202 0.913 . S
C1184 H1160 0.950 . S
C1184 C1183 1.524 . S
C1184 C1185 1.415 . S
C1185 H1161 0.950 . S
C1185 C1180 1.363 . S
C1185 C1184 1.415 . S
C1186 H1162 0.951 . S
C1186 C1187 1.366 . S
C1186 C1188 1.388 . S
C1187 C1186 1.366 . S
C1187 C1191 1.385 . S
C1188 H1163 0.951 . S
C1188 C1186 1.388 . S
C1188 C1189 1.366 . S
C1189 C1188 1.366 . S
C1189 C1190 1.414 . S
C1189 C1192 1.499 . S
C1190 H1164 0.950 . S
C1190 C1189 1.414 . S
C1190 C1191 1.374 . S
C1191 H1165 0.950 . S
C1191 C1187 1.385 . S
C1191 C1190 1.374 . S
C1192 C1189 1.499 . S
C1192 C1193 1.373 . S
C1192 C1194 1.389 . S
C1193 H1166 0.950 . S
C1193 C1179 1.377 . S
C1193 C1192 1.373 . S
C1194 C1178 1.377 . S
C1194 C1192 1.389 . S
C1194 C1195 1.524 . S
C1195 C1194 1.524 . S
C1195 C1196 1.397 . S
C1195 C1200 1.363 . S
C1196 H1167 0.950 . S
C1196 C1195 1.397 . S
C1196 C1197 1.334 . S
C1197 H1168 0.950 . S
C1197 C1196 1.334 . S
C1197 C1198 1.287 . S
C1198 C1197 1.287 . S
C1198 C1199 1.524 . S
C1198 H1201 0.999 . S
C1199 H1169 0.950 . S
C1199 C1198 1.524 . S
C1199 C1200 1.415 . S
C1200 H1170 0.950 . S
C1200 C1195 1.363 . S
C1200 C1199 1.415 . S
H1201 C1198 0.999 . S
H1202 C1183 0.913 . S
H1203 C1221 0.951 . S
H1204 C1223 0.951 . S
H1205 C1225 0.950 . S
H1206 C1226 0.950 . S
H1207 C1228 0.950 . S
H1208 C1231 0.950 . S
H1209 C1232 0.950 . S
H1210 C1234 0.950 . S
H1211 C1235 0.950 . S
H1212 C1236 0.951 . S
H1213 C1238 0.951 . S
H1214 C1240 0.950 . S
H1215 C1241 0.950 . S
H1216 C1243 0.950 . S
H1217 C1246 0.950 . S
H1218 C1247 0.950 . S
H1219 C1249 0.950 . S
H1220 C1250 0.950 . S
C1221 H1203 0.951 . S
C1221 C1222 1.366 . S
C1221 C1223 1.388 . S
C1222 C1221 1.366 . S
C1222 C1226 1.385 . S
C1223 H1204 0.951 . S
C1223 C1221 1.388 . S
C1223 C1224 1.366 . S
C1224 C1223 1.366 . S
C1224 C1225 1.414 . S
C1224 C1227 1.499 . S
C1225 H1205 0.950 . S
C1225 C1224 1.414 . S
C1225 C1226 1.374 . S
C1226 H1206 0.950 . S
C1226 C1222 1.385 . S
C1226 C1225 1.374 . S
C1227 C1224 1.499 . S
C1227 C1228 1.373 . S
C1227 C1229 1.389 . S
C1228 H1207 0.950 . S
C1228 C1227 1.373 . S
C1228 C1244 1.377 . S
C1229 C1227 1.389 . S
C1229 C1230 1.524 . S
C1229 C1243 1.377 . S
C1230 C1229 1.524 . S
C1230 C1231 1.397 . S
C1230 C1235 1.363 . S
C1231 H1208 0.950 . S
C1231 C1230 1.397 . S
C1231 C1232 1.334 . S
C1232 H1209 0.950 . S
C1232 C1231 1.334 . S
C1232 C1233 1.287 . S
C1233 C1232 1.287 . S
C1233 C1234 1.524 . S
C1233 H1252 0.913 . S
C1234 H1210 0.950 . S
C1234 C1233 1.524 . S
C1234 C1235 1.415 . S
C1235 H1211 0.950 . S
C1235 C1230 1.363 . S
C1235 C1234 1.415 . S
C1236 H1212 0.951 . S
C1236 C1237 1.366 . S
C1236 C1238 1.388 . S
C1237 C1236 1.366 . S
C1237 C1241 1.385 . S
C1238 H1213 0.951 . S
C1238 C1236 1.388 . S
C1238 C1239 1.366 . S
C1239 C1238 1.366 . S
C1239 C1240 1.414 . S
C1239 C1242 1.499 . S
C1240 H1214 0.950 . S
C1240 C1239 1.414 . S
C1240 C1241 1.374 . S
C1241 H1215 0.950 . S
C1241 C1237 1.385 . S
C1241 C1240 1.374 . S
C1242 C1239 1.499 . S
C1242 C1243 1.373 . S
C1242 C1244 1.389 . S
C1243 H1216 0.950 . S
C1243 C1229 1.377 . S
C1243 C1242 1.373 . S
C1244 C1228 1.377 . S
C1244 C1242 1.389 . S
C1244 C1245 1.524 . S
C1245 C1244 1.524 . S
C1245 C1246 1.397 . S
C1245 C1250 1.363 . S
C1246 H1217 0.950 . S
C1246 C1245 1.397 . S
C1246 C1247 1.334 . S
C1247 H1218 0.950 . S
C1247 C1246 1.334 . S
C1247 C1248 1.287 . S
C1248 C1247 1.287 . S
C1248 C1249 1.524 . S
C1248 H1251 0.999 . S
C1249 H1219 0.950 . S
C1249 C1248 1.524 . S
C1249 C1250 1.415 . S
C1250 H1220 0.950 . S
C1250 C1245 1.363 . S
C1250 C1249 1.415 . S
H1251 C1248 0.999 . S
H1252 C1233 0.913 . S
H1253 C1271 0.951 . S
H1254 C1273 0.951 . S
H1255 C1275 0.950 . S
H1256 C1276 0.950 . S
H1257 C1278 0.950 . S
H1258 C1281 0.950 . S
H1259 C1282 0.950 . S
H1260 C1284 0.950 . S
H1261 C1285 0.950 . S
H1262 C1286 0.951 . S
H1263 C1288 0.951 . S
H1264 C1290 0.950 . S
H1265 C1291 0.950 . S
H1266 C1293 0.950 . S
H1267 C1296 0.950 . S
H1268 C1297 0.950 . S
H1269 C1299 0.950 . S
H1270 C1300 0.950 . S
C1271 H1253 0.951 . S
C1271 C1272 1.366 . S
C1271 C1273 1.388 . S
C1272 C1271 1.366 . S
C1272 C1276 1.385 . S
C1273 H1254 0.951 . S
C1273 C1271 1.388 . S
C1273 C1274 1.366 . S
C1274 C1273 1.366 . S
C1274 C1275 1.414 . S
C1274 C1277 1.499 . S
C1275 H1255 0.950 . S
C1275 C1274 1.414 . S
C1275 C1276 1.374 . S
C1276 H1256 0.950 . S
C1276 C1272 1.385 . S
C1276 C1275 1.374 . S
C1277 C1274 1.499 . S
C1277 C1278 1.373 . S
C1277 C1279 1.389 . S
C1278 H1257 0.950 . S
C1278 C1277 1.373 . S
C1278 C1294 1.377 . S
C1279 C1277 1.389 . S
C1279 C1280 1.524 . S
C1279 C1293 1.377 . S
C1280 C1279 1.524 . S
C1280 C1281 1.397 . S
C1280 C1285 1.363 . S
C1281 H1258 0.950 . S
C1281 C1280 1.397 . S
C1281 C1282 1.334 . S
C1282 H1259 0.950 . S
C1282 C1281 1.334 . S
C1282 C1283 1.287 . S
C1283 C1282 1.287 . S
C1283 C1284 1.524 . S
C1283 H1302 0.913 . S
C1284 H1260 0.950 . S
C1284 C1283 1.524 . S
C1284 C1285 1.415 . S
C1285 H1261 0.950 . S
C1285 C1280 1.363 . S
C1285 C1284 1.415 . S
C1286 H1262 0.951 . S
C1286 C1287 1.366 . S
C1286 C1288 1.388 . S
C1287 C1286 1.366 . S
C1287 C1291 1.385 . S
C1288 H1263 0.951 . S
C1288 C1286 1.388 . S
C1288 C1289 1.366 . S
C1289 C1288 1.366 . S
C1289 C1290 1.414 . S
C1289 C1292 1.499 . S
C1290 H1264 0.950 . S
C1290 C1289 1.414 . S
C1290 C1291 1.374 . S
C1291 H1265 0.950 . S
C1291 C1287 1.385 . S
C1291 C1290 1.374 . S
C1292 C1289 1.499 . S
C1292 C1293 1.373 . S
C1292 C1294 1.389 . S
C1293 H1266 0.950 . S
C1293 C1279 1.377 . S
C1293 C1292 1.373 . S
C1294 C1278 1.377 . S
C1294 C1292 1.389 . S
C1294 C1295 1.524 . S
C1295 C1294 1.524 . S
C1295 C1296 1.397 . S
C1295 C1300 1.363 . S
C1296 H1267 0.950 . S
C1296 C1295 1.397 . S
C1296 C1297 1.334 . S
C1297 H1268 0.950 . S
C1297 C1296 1.334 . S
C1297 C1298 1.287 . S
C1298 C1297 1.287 . S
C1298 C1299 1.524 . S
C1298 H1301 0.999 . S
C1299 H1269 0.950 . S
C1299 C1298 1.524 . S
C1299 C1300 1.415 . S
C1300 H1270 0.950 . S
C1300 C1295 1.363 . S
C1300 C1299 1.415 . S
H1301 C1298 0.999 . S
H1302 C1283 0.913 . S
H1303 C1321 0.951 . S
H1304 C1323 0.951 . S
H1305 C1325 0.950 . S
H1306 C1326 0.950 . S
H1307 C1328 0.950 . S
H1308 C1331 0.950 . S
H1309 C1332 0.950 . S
H1310 C1334 0.950 . S
H1311 C1335 0.950 . S
H1312 C1336 0.951 . S
H1313 C1338 0.951 . S
H1314 C1340 0.950 . S
H1315 C1341 0.950 . S
H1316 C1343 0.950 . S
H1317 C1346 0.950 . S
H1318 C1347 0.950 . S
H1319 C1349 0.950 . S
H1320 C1350 0.950 . S
C1321 H1303 0.951 . S
C1321 C1322 1.366 . S
C1321 C1323 1.388 . S
C1322 C1321 1.366 . S
C1322 C1326 1.385 . S
C1323 H1304 0.951 . S
C1323 C1321 1.388 . S
C1323 C1324 1.366 . S
C1324 C1323 1.366 . S
C1324 C1325 1.414 . S
C1324 C1327 1.499 . S
C1325 H1305 0.950 . S
C1325 C1324 1.414 . S
C1325 C1326 1.374 . S
C1326 H1306 0.950 . S
C1326 C1322 1.385 . S
C1326 C1325 1.374 . S
C1327 C1324 1.499 . S
C1327 C1328 1.373 . S
C1327 C1329 1.389 . S
C1328 H1307 0.950 . S
C1328 C1327 1.373 . S
C1328 C1344 1.377 . S
C1329 C1327 1.389 . S
C1329 C1330 1.524 . S
C1329 C1343 1.377 . S
C1330 C1329 1.524 . S
C1330 C1331 1.397 . S
C1330 C1335 1.363 . S
C1331 H1308 0.950 . S
C1331 C1330 1.397 . S
C1331 C1332 1.334 . S
C1332 H1309 0.950 . S
C1332 C1331 1.334 . S
C1332 C1333 1.287 . S
C1333 C1332 1.287 . S
C1333 C1334 1.524 . S
C1333 H1352 0.913 . S
C1334 H1310 0.950 . S
C1334 C1333 1.524 . S
C1334 C1335 1.415 . S
C1335 H1311 0.950 . S
C1335 C1330 1.363 . S
C1335 C1334 1.415 . S
C1336 H1312 0.951 . S
C1336 C1337 1.366 . S
C1336 C1338 1.388 . S
C1337 C1336 1.366 . S
C1337 C1341 1.385 . S
C1338 H1313 0.951 . S
C1338 C1336 1.388 . S
C1338 C1339 1.366 . S
C1339 C1338 1.366 . S
C1339 C1340 1.414 . S
C1339 C1342 1.499 . S
C1340 H1314 0.950 . S
C1340 C1339 1.414 . S
C1340 C1341 1.374 . S
C1341 H1315 0.950 . S
C1341 C1337 1.385 . S
C1341 C1340 1.374 . S
C1342 C1339 1.499 . S
C1342 C1343 1.373 . S
C1342 C1344 1.389 . S
C1343 H1316 0.950 . S
C1343 C1329 1.377 . S
C1343 C1342 1.373 . S
C1344 C1328 1.377 . S
C1344 C1342 1.389 . S
C1344 C1345 1.524 . S
C1345 C1344 1.524 . S
C1345 C1346 1.397 . S
C1345 C1350 1.363 . S
C1346 H1317 0.950 . S
C1346 C1345 1.397 . S
C1346 C1347 1.334 . S
C1347 H1318 0.950 . S
C1347 C1346 1.334 . S
C1347 C1348 1.287 . S
C1348 C1347 1.287 . S
C1348 C1349 1.524 . S
C1348 H1351 0.999 . S
C1349 H1319 0.950 . S
C1349 C1348 1.524 . S
C1349 C1350 1.415 . S
C1350 H1320 0.950 . S
C1350 C1345 1.363 . S
C1350 C1349 1.415 . S
H1351 C1348 0.999 . S
H1352 C1333 0.913 . S
H1353 C1371 0.951 . S
H1354 C1373 0.951 . S
H1355 C1375 0.950 . S
H1356 C1376 0.950 . S
H1357 C1378 0.950 . S
H1358 C1381 0.950 . S
H1359 C1382 0.950 . S
H1360 C1384 0.950 . S
H1361 C1385 0.950 . S
H1362 C1386 0.951 . S
H1363 C1388 0.951 . S
H1364 C1390 0.950 . S
H1365 C1391 0.950 . S
H1366 C1393 0.950 . S
H1367 C1396 0.950 . S
H1368 C1397 0.950 . S
H1369 C1399 0.950 . S
H1370 C1400 0.950 . S
C1371 H1353 0.951 . S
C1371 C1372 1.366 . S
C1371 C1373 1.388 . S
C1372 C1371 1.366 . S
C1372 C1376 1.385 . S
C1373 H1354 0.951 . S
C1373 C1371 1.388 . S
C1373 C1374 1.366 . S
C1374 C1373 1.366 . S
C1374 C1375 1.414 . S
C1374 C1377 1.499 . S
C1375 H1355 0.950 . S
C1375 C1374 1.414 . S
C1375 C1376 1.374 . S
C1376 H1356 0.950 . S
C1376 C1372 1.385 . S
C1376 C1375 1.374 . S
C1377 C1374 1.499 . S
C1377 C1378 1.373 . S
C1377 C1379 1.389 . S
C1378 H1357 0.950 . S
C1378 C1377 1.373 . S
C1378 C1394 1.377 . S
C1379 C1377 1.389 . S
C1379 C1380 1.524 . S
C1379 C1393 1.377 . S
C1380 C1379 1.524 . S
C1380 C1381 1.397 . S
C1380 C1385 1.363 . S
C1381 H1358 0.950 . S
C1381 C1380 1.397 . S
C1381 C1382 1.334 . S
C1382 H1359 0.950 . S
C1382 C1381 1.334 . S
C1382 C1383 1.287 . S
C1383 C1382 1.287 . S
C1383 C1384 1.524 . S
C1383 H1402 0.913 . S
C1384 H1360 0.950 . S
C1384 C1383 1.524 . S
C1384 C1385 1.415 . S
C1385 H1361 0.950 . S
C1385 C1380 1.363 . S
C1385 C1384 1.415 . S
C1386 H1362 0.951 . S
C1386 C1387 1.366 . S
C1386 C1388 1.388 . S
C1387 C1386 1.366 . S
C1387 C1391 1.385 . S
C1388 H1363 0.951 . S
C1388 C1386 1.388 . S
C1388 C1389 1.366 . S
C1389 C1388 1.366 . S
C1389 C1390 1.414 . S
C1389 C1392 1.499 . S
C1390 H1364 0.950 . S
C1390 C1389 1.414 . S
C1390 C1391 1.374 . S
C1391 H1365 0.950 . S
C1391 C1387 1.385 . S
C1391 C1390 1.374 . S
C1392 C1389 1.499 . S
C1392 C1393 1.373 . S
C1392 C1394 1.389 . S
C1393 H1366 0.950 . S
C1393 C1379 1.377 . S
C1393 C1392 1.373 . S
C1394 C1378 1.377 . S
C1394 C1392 1.389 . S
C1394 C1395 1.524 . S
C1395 C1394 1.524 . S
C1395 C1396 1.397 . S
C1395 C1400 1.363 . S
C1396 H1367 0.950 . S
C1396 C1395 1.397 . S
C1396 C1397 1.334 . S
C1397 H1368 0.950 . S
C1397 C1396 1.334 . S
C1397 C1398 1.287 . S
C1398 C1397 1.287 . S
C1398 C1399 1.524 . S
C1398 H1401 0.999 . S
C1399 H1369 0.950 . S
C1399 C1398 1.524 . S
C1399 C1400 1.415 . S
C1400 H1370 0.950 . S
C1400 C1395 1.363 . S
C1400 C1399 1.415 . S
H1401 C1398 0.999 . S
H1402 C1383 0.913 . S
C237 C128 1.161 . S
C222 N2 1.243 . S
C287 C164 1.131 . S
C272 N14 1.185 . S
C337 C129 1.617 . S
C322 N27 1.616 . S
C387 C159 1.795 . S
C372 N44 1.837 . S
C437 C126 1.024 . S
C422 N54 1.059 . S
C472 N67 1.636 . S
C487 C162 1.640 . S
C522 N83 0.709 . S
C537 C131 0.722 . S
C587 C161 1.123 . S
C572 N93 1.155 . S
C637 C165 1.734 . S
C622 N1 1.779 . S
C687 C130 0.973 . S
C672 N18 1.011 . S
C737 C158 1.287 . S
C722 N28 1.296 . S
C787 C127 1.153 . S
C772 N41 1.257 . S
C837 C160 1.821 . S
C822 N57 1.914 . S
C872 N66 1.602 . S
C887 C125 1.586 . S
C922 N79 1.499 . S
C937 C163 1.441 . S
C987 C132 1.404 . S
C972 N96 1.449 . S
C1037 C194 1.985 . S
C1022 N5 2.075 . S
C1072 N53 1.916 . S
C1087 C197 1.808 . S
C1137 C196 1.995 . S
C1122 N70 2.042 . S
C1172 N80 1.704 . S
C1187 C195 1.675 . S
C1237 C198 1.836 . S
C1222 N92 1.899 . S
C1272 N31 1.710 . S
C1287 C192 1.665 . S
C1337 C191 2.333 . S
C1322 N40 2.303 . S
C1372 N15 1.114 . S
C1387 C193 1.038 . S
