# Generated by pormake.
# Topology hwx, (6,3)-cn, num edge types: 1
# Building blocks:
#     Node 0, Type 0, BuildingBlock: IZENUY_clean_sbu_0, # of connection points: 6
#     Node 1, Type 0, BuildingBlock: IZENUY_clean_sbu_0, # of connection points: 6
#     Node 2, Type 0, BuildingBlock: IZENUY_clean_sbu_0, # of connection points: 6
#     Node 3, Type 0, BuildingBlock: IZENUY_clean_sbu_0, # of connection points: 6
#     Node 4, Type 1, BuildingBlock: BETDIP_clean_linker_0, # of connection points: 3
#     Node 5, Type 1, BuildingBlock: BETDIP_clean_linker_0, # of connection points: 3
#     Node 6, Type 1, BuildingBlock: BETDIP_clean_linker_0, # of connection points: 3
#     Node 7, Type 1, BuildingBlock: BETDIP_clean_linker_0, # of connection points: 3
#     Node 8, Type 1, BuildingBlock: BETDIP_clean_linker_0, # of connection points: 3
#     Node 9, Type 1, BuildingBlock: BETDIP_clean_linker_0, # of connection points: 3
#     Node 10, Type 1, BuildingBlock: BETDIP_clean_linker_0, # of connection points: 3
#     Node 11, Type 1, BuildingBlock: BETDIP_clean_linker_0, # of connection points: 3
#     Edge 12, Type (0, 1), BuildingBlock: TEMPAE_clean_linker_10, # of connection points: 2
#     Edge 13, Type (0, 1), BuildingBlock: TEMPAE_clean_linker_10, # of connection points: 2
#     Edge 14, Type (0, 1), BuildingBlock: TEMPAE_clean_linker_10, # of connection points: 2
#     Edge 15, Type (0, 1), BuildingBlock: TEMPAE_clean_linker_10, # of connection points: 2
#     Edge 16, Type (0, 1), BuildingBlock: TEMPAE_clean_linker_10, # of connection points: 2
#     Edge 17, Type (0, 1), BuildingBlock: TEMPAE_clean_linker_10, # of connection points: 2
#     Edge 18, Type (0, 1), BuildingBlock: TEMPAE_clean_linker_10, # of connection points: 2
#     Edge 19, Type (0, 1), BuildingBlock: TEMPAE_clean_linker_10, # of connection points: 2
#     Edge 20, Type (0, 1), BuildingBlock: TEMPAE_clean_linker_10, # of connection points: 2
#     Edge 21, Type (0, 1), BuildingBlock: TEMPAE_clean_linker_10, # of connection points: 2
#     Edge 22, Type (0, 1), BuildingBlock: TEMPAE_clean_linker_10, # of connection points: 2
#     Edge 23, Type (0, 1), BuildingBlock: TEMPAE_clean_linker_10, # of connection points: 2
#     Edge 24, Type (0, 1), BuildingBlock: TEMPAE_clean_linker_10, # of connection points: 2
#     Edge 25, Type (0, 1), BuildingBlock: TEMPAE_clean_linker_10, # of connection points: 2
#     Edge 26, Type (0, 1), BuildingBlock: TEMPAE_clean_linker_10, # of connection points: 2
#     Edge 27, Type (0, 1), BuildingBlock: TEMPAE_clean_linker_10, # of connection points: 2
#     Edge 28, Type (0, 1), BuildingBlock: TEMPAE_clean_linker_10, # of connection points: 2
#     Edge 29, Type (0, 1), BuildingBlock: TEMPAE_clean_linker_10, # of connection points: 2
#     Edge 30, Type (0, 1), BuildingBlock: TEMPAE_clean_linker_10, # of connection points: 2
#     Edge 31, Type (0, 1), BuildingBlock: TEMPAE_clean_linker_10, # of connection points: 2
#     Edge 32, Type (0, 1), BuildingBlock: TEMPAE_clean_linker_10, # of connection points: 2
#     Edge 33, Type (0, 1), BuildingBlock: TEMPAE_clean_linker_10, # of connection points: 2
#     Edge 34, Type (0, 1), BuildingBlock: TEMPAE_clean_linker_10, # of connection points: 2
#     Edge 35, Type (0, 1), BuildingBlock: TEMPAE_clean_linker_10, # of connection points: 2
# Relax obj value: 0.003
# Max RMSD: 0.061
# Mean RMSD: 0.048
data_MOF--net-hwx--node1-IZENUY_clean_sbu_0--node2-BETDIP_clean_linker_0--edge1-TEMPAE_clean_linker_10
_symmetry_space_group_name_H-M    P1
_symmetry_Int_Tables_number       1
_symmetry_cell_setting            triclinic
loop_
_symmetry_equiv_pos_as_xyz
'x, y, z'
_cell_length_a     52.308846
_cell_length_b     52.345728
_cell_length_c     20.980723
_cell_angle_alpha  91.51888
_cell_angle_beta   91.529154
_cell_angle_gamma 89.974951
loop_
_atom_site_label
_atom_site_type_symbol
_atom_site_fract_x
_atom_site_fract_y
_atom_site_fract_z
_atom_type_partial_charge
Fe0 Fe 0.23614 0.23399 0.07977 0.0
Fe1 Fe 0.23691 0.23297 0.93354 0.0
O2 O 0.22486 0.22121 0.00524 0.0
Fe3 Fe 0.20157 0.19666 0.00228 0.0
O4 O 0.17883 0.21664 0.04391 0.0
O5 O 0.20563 0.23001 0.11994 0.0
O6 O 0.22526 0.26577 0.05984 0.0
C7 C 0.23215 0.27765 0.01171 0.0
C8 C 0.23406 0.1831 0.10616 0.0
O9 O 0.24206 0.26581 0.96503 0.0
C10 C 0.23281 0.17965 0.90808 0.0
O11 O 0.26875 0.24031 0.05291 0.0
O12 O 0.26919 0.22347 0.95584 0.0
O13 O 0.21275 0.18186 0.07617 0.0
O14 O 0.24766 0.20299 0.10486 0.0
C15 C 0.18607 0.22854 0.90148 0.0
O16 O 0.23402 0.20236 0.88892 0.0
O17 O 0.22275 0.17498 0.96043 0.0
C18 C 0.28088 0.23079 0.00641 0.0
O19 O 0.2053 0.24309 0.90664 0.0
O20 O 0.18609 0.20707 0.92793 0.0
C21 C 0.18299 0.22732 0.0977 0.0
Fe22 Fe 0.26724 0.73182 0.5727 0.0
Fe23 Fe 0.303 0.6967 0.49672 0.0
O24 O 0.27915 0.7207 0.49885 0.0
Fe25 Fe 0.26722 0.73354 0.42679 0.0
O26 O 0.27789 0.76533 0.451 0.0
O27 O 0.26191 0.76488 0.54687 0.0
O28 O 0.2988 0.74208 0.60089 0.0
C29 C 0.31825 0.72783 0.60318 0.0
C30 C 0.22292 0.72978 0.50083 0.0
O31 O 0.31852 0.70664 0.57271 0.0
C32 C 0.27011 0.68307 0.39237 0.0
O33 O 0.27048 0.70082 0.6114 0.0
O34 O 0.28253 0.67418 0.53513 0.0
O35 O 0.23477 0.73957 0.4556 0.0
O36 O 0.23491 0.7222 0.54968 0.0
C37 C 0.32036 0.72825 0.40625 0.0
O38 O 0.29191 0.68242 0.41995 0.0
O39 O 0.25584 0.70236 0.3984 0.0
C40 C 0.27238 0.67826 0.58831 0.0
O41 O 0.32501 0.71769 0.45854 0.0
O42 O 0.29755 0.73007 0.38472 0.0
C43 C 0.27149 0.77694 0.50155 0.0
Fe44 Fe 0.76814 0.77928 0.93395 0.0
Fe45 Fe 0.76963 0.77969 0.08006 0.0
O46 O 0.78004 0.79218 0.00764 0.0
Fe47 Fe 0.80243 0.81755 0.00862 0.0
O48 O 0.78004 0.83803 0.96698 0.0
O49 O 0.76971 0.80966 0.89181 0.0
O50 O 0.73561 0.78776 0.95329 0.0
C51 C 0.7244 0.78042 0.00207 0.0
C52 C 0.8184 0.78546 0.90683 0.0
O53 O 0.73708 0.772 0.04945 0.0
C54 C 0.82271 0.78834 0.10331 0.0
O55 O 0.76426 0.74659 0.96243 0.0
O56 O 0.78146 0.74807 0.05902 0.0
O57 O 0.81758 0.8073 0.93409 0.0
O58 O 0.80006 0.76998 0.91041 0.0
C59 C 0.77023 0.83082 0.11063 0.0
O60 O 0.80028 0.78513 0.12325 0.0
O61 O 0.82622 0.79869 0.05063 0.0
C62 C 0.77478 0.73551 0.00926 0.0
O63 O 0.75721 0.81052 0.10616 0.0
O64 O 0.79136 0.83247 0.083 0.0
C65 C 0.76998 0.83257 0.91311 0.0
Fe66 Fe 0.70082 0.31719 0.51418 0.0
Fe67 Fe 0.73638 0.27998 0.58369 0.0
O68 O 0.72379 0.29234 0.51176 0.0
Fe69 Fe 0.73408 0.27985 0.43758 0.0
O70 O 0.74575 0.31086 0.4147 0.0
O71 O 0.7112 0.33208 0.44109 0.0
O72 O 0.72288 0.33835 0.55729 0.0
C73 C 0.73349 0.33339 0.61013 0.0
C74 C 0.68075 0.28728 0.4168 0.0
O75 O 0.73457 0.31057 0.62902 0.0
C76 C 0.73029 0.23577 0.50348 0.0
O77 O 0.68631 0.30695 0.58812 0.0
O78 O 0.7048 0.27017 0.60755 0.0
O79 O 0.70314 0.28455 0.39587 0.0
O80 O 0.67727 0.29762 0.47087 0.0
C81 C 0.77971 0.28153 0.5142 0.0
O82 O 0.74065 0.24722 0.55149 0.0
O83 O 0.72301 0.24806 0.45541 0.0
C84 C 0.68615 0.28524 0.61328 0.0
O85 O 0.76865 0.28895 0.56408 0.0
O86 O 0.76689 0.27284 0.46623 0.0
C87 C 0.73232 0.33088 0.41308 0.0
H88 H 0.23617 0.51258 0.88012 0.0
H89 H 0.22733 0.51958 0.08327 0.0
H90 H 0.24768 0.58518 0.97602 0.0
H91 H 0.24627 0.4792 0.07593 0.0
C92 C 0.23581 0.47057 0.03544 0.0
C93 C 0.23636 0.52422 0.92362 0.0
C94 C 0.24215 0.55033 0.92157 0.0
C95 C 0.23217 0.51279 0.98217 0.0
C96 C 0.23194 0.52809 0.03856 0.0
C97 C 0.23698 0.55449 0.03687 0.0
C98 C 0.24272 0.56513 0.97816 0.0
N99 N 0.22851 0.48587 0.98297 0.0
H100 H 0.98131 0.7422 0.61693 0.0
H101 H 0.98882 0.7507 0.41466 0.0
H102 H 0.9173 0.76737 0.5013 0.0
H103 H 0.02056 0.71971 0.43393 0.0
C104 C 0.02973 0.72866 0.47591 0.0
C105 C 0.97293 0.74717 0.57114 0.0
C106 C 0.94703 0.75437 0.56605 0.0
C107 C 0.98812 0.74562 0.51696 0.0
C108 C 0.97731 0.75144 0.4568 0.0
C109 C 0.95175 0.75937 0.45138 0.0
C110 C 0.93696 0.76099 0.50601 0.0
N111 N 0.01445 0.73934 0.52493 0.0
H112 H 0.76856 0.49589 0.12996 0.0
H113 H 0.77155 0.4992 0.9251 0.0
H114 H 0.75568 0.42814 0.0129 0.0
H115 H 0.79802 0.53392 0.95196 0.0
C116 C 0.7873 0.54281 0.99025 0.0
C117 C 0.76751 0.48638 0.08345 0.0
C118 C 0.76167 0.46019 0.07827 0.0
C119 C 0.77154 0.50059 0.02873 0.0
C120 C 0.76947 0.48841 0.96797 0.0
C121 C 0.76326 0.46236 0.96246 0.0
C122 C 0.7598 0.44843 0.01757 0.0
N123 N 0.77587 0.52733 0.03631 0.0
H124 H 0.01651 0.26123 0.39099 0.0
H125 H 0.01955 0.2594 0.59643 0.0
H126 H 0.08735 0.24517 0.4899 0.0
H127 H 0.97823 0.245 0.5772 0.0
C128 C 0.9712 0.25762 0.54036 0.0
C129 C 0.02729 0.25878 0.43524 0.0
C130 C 0.05333 0.25246 0.43383 0.0
C131 C 0.01476 0.26069 0.49354 0.0
C132 C 0.02885 0.25745 0.5511 0.0
C133 C 0.05509 0.2516 0.55014 0.0
C134 C 0.06703 0.24921 0.49126 0.0
N135 N 0.98802 0.26568 0.49265 0.0
H136 H 0.7296 0.99923 0.62142 0.0
H137 H 0.73353 0.99446 0.41633 0.0
H138 H 0.74342 0.92703 0.52706 0.0
H139 H 0.74916 0.03503 0.43349 0.0
C140 C 0.73709 0.04308 0.47027 0.0
C141 C 0.73186 0.98802 0.57774 0.0
C142 C 0.73668 0.96175 0.58054 0.0
C143 C 0.73121 1.00015 0.51882 0.0
C144 C 0.73439 0.98545 0.46216 0.0
C145 C 0.73899 0.959 0.4647 0.0
C146 C 0.74001 0.94742 0.52422 0.0
N147 N 0.72781 0.02711 0.51835 0.0
H148 H 0.52291 0.24182 0.89592 0.0
H149 H 0.51495 0.25028 0.09918 0.0
H150 H 0.58688 0.26628 0.01602 0.0
H151 H 0.48304 0.21952 0.07517 0.0
C152 C 0.47402 0.22866 0.03445 0.0
C153 C 0.53122 0.24667 0.94251 0.0
C154 C 0.55719 0.25361 0.94899 0.0
C155 C 0.51586 0.24524 0.99623 0.0
C156 C 0.52658 0.25091 0.05733 0.0
C157 C 0.55221 0.25858 0.06425 0.0
C158 C 0.56717 0.26009 0.0101 0.0
N159 N 0.48948 0.23923 0.98705 0.0
H160 H 0.26781 0.01846 0.39382 0.0
H161 H 0.27043 0.01267 0.59853 0.0
H162 H 0.25802 0.08544 0.51447 0.0
H163 H 0.2966 0.97791 0.57185 0.0
C164 C 0.28517 0.96954 0.53264 0.0
C165 C 0.2672 0.0275 0.44082 0.0
C166 C 0.26263 0.05393 0.44716 0.0
C167 C 0.27054 0.01248 0.49496 0.0
C168 C 0.26895 0.02403 0.55622 0.0
C169 C 0.2641 0.05028 0.56281 0.0
C170 C 0.26131 0.06506 0.50854 0.0
N171 N 0.2738 0.98564 0.48628 0.0
H172 H 0.48684 0.76297 0.11852 0.0
H173 H 0.48466 0.75978 0.9128 0.0
H174 H 0.41636 0.74643 0.01628 0.0
H175 H 0.52573 0.74501 0.93193 0.0
C176 C 0.53275 0.75783 0.97004 0.0
C177 C 0.47624 0.76028 0.07375 0.0
C178 C 0.45016 0.75409 0.07387 0.0
C179 C 0.48903 0.76173 0.01594 0.0
C180 C 0.47516 0.75817 0.95772 0.0
C181 C 0.4489 0.75242 0.95749 0.0
C182 C 0.4367 0.75047 0.01582 0.0
N183 N 0.51582 0.76648 0.01797 0.0
C184 C 0.13603 0.22713 0.11965 0.0
C185 C 0.16112 0.23394 0.13859 0.0
C186 C 0.11553 0.23133 0.16057 0.0
C187 C 0.12024 0.24268 0.22172 0.0
C188 C 0.1453 0.25073 0.23982 0.0
C189 C 0.16542 0.24625 0.19811 0.0
C190 C 0.08908 0.22254 0.13953 0.0
C191 C 0.15111 0.26306 0.3045 0.0
C192 C 0.06799 0.26807 0.32897 0.0
C193 C 0.06677 0.24856 0.37318 0.0
C194 C 0.08444 0.26598 0.2771 0.0
C195 C 0.09976 0.24382 0.26955 0.0
C196 C 0.09725 0.22342 0.31192 0.0
C197 C 0.08084 0.22609 0.36328 0.0
C198 C 0.08654 0.28807 0.23278 0.0
C199 C 0.11301 0.19935 0.30528 0.0
H200 H 0.13245 0.21778 0.07355 0.0
H201 H 0.18466 0.25188 0.21291 0.0
H202 H 0.08357 0.20583 0.16755 0.0
H203 H 0.07484 0.23782 0.14873 0.0
H204 H 0.08801 0.21696 0.08807 0.0
H205 H 0.17111 0.27016 0.30915 0.0
H206 H 0.13793 0.2793 0.31339 0.0
H207 H 0.14808 0.24899 0.3422 0.0
H208 H 0.05716 0.28548 0.33688 0.0
H209 H 0.07967 0.21092 0.39731 0.0
H210 H 0.08591 0.28117 0.18231 0.0
H211 H 0.1052 0.29779 0.24154 0.0
H212 H 0.07104 0.30231 0.23979 0.0
H213 H 0.11134 0.19138 0.25583 0.0
H214 H 0.10712 0.18444 0.33864 0.0
H215 H 0.13348 0.20389 0.31514 0.0
C216 C 0.25245 0.66057 0.68472 0.0
C217 C 0.26557 0.65636 0.62797 0.0
C218 C 0.24773 0.6405 0.72578 0.0
C219 C 0.25644 0.61557 0.70995 0.0
C220 C 0.26874 0.61093 0.65149 0.0
C221 C 0.2731 0.63137 0.61106 0.0
C222 C 0.23433 0.64623 0.78743 0.0
C223 C 0.27828 0.58462 0.63299 0.0
C224 C 0.27036 0.57692 0.85662 0.0
C225 C 0.24776 0.56282 0.86109 0.0
C226 C 0.27409 0.59296 0.8053 0.0
C227 C 0.25462 0.59511 0.75757 0.0
C228 C 0.23242 0.57967 0.75977 0.0
C229 C 0.22928 0.56357 0.81162 0.0
C230 C 0.29818 0.60883 0.80445 0.0
C231 C 0.21125 0.58142 0.7098 0.0
H232 H 0.24627 0.67972 0.69784 0.0
H233 H 0.28315 0.62788 0.56716 0.0
H234 H 0.21805 0.63292 0.79252 0.0
H235 H 0.24778 0.64333 0.8284 0.0
H236 H 0.22702 0.66615 0.79034 0.0
H237 H 0.28487 0.58357 0.58308 0.0
H238 H 0.29449 0.57939 0.66526 0.0
H239 H 0.26304 0.57017 0.63842 0.0
H240 H 0.28468 0.57618 0.89488 0.0
H241 H 0.21173 0.55277 0.81542 0.0
H242 H 0.29341 0.62925 0.81346 0.0
H243 H 0.30696 0.6073 0.75695 0.0
H244 H 0.31254 0.60295 0.84119 0.0
H245 H 0.20114 0.59992 0.71591 0.0
H246 H 0.19709 0.56573 0.71325 0.0
H247 H 0.21916 0.58084 0.66125 0.0
C248 C 0.86972 0.79047 0.13122 0.0
C249 C 0.84495 0.78254 0.14586 0.0
C250 C 0.8905 0.78664 0.17379 0.0
C251 C 0.8864 0.77452 0.23217 0.0
C252 C 0.86166 0.7656 0.24599 0.0
C253 C 0.84128 0.76973 0.20277 0.0
C254 C 0.91661 0.79637 0.15738 0.0
C255 C 0.85649 0.75243 0.30756 0.0
C256 C 0.93867 0.74709 0.33918 0.0
C257 C 0.93961 0.76544 0.38902 0.0
C258 C 0.92259 0.75048 0.28529 0.0
C259 C 0.90729 0.77277 0.28143 0.0
C260 C 0.90978 0.7922 0.32944 0.0
C261 C 0.92586 0.78825 0.38274 0.0
C262 C 0.92056 0.72939 0.23498 0.0
C263 C 0.89405 0.81638 0.32692 0.0
H264 H 0.8728 0.80028 0.08722 0.0
H265 H 0.8223 0.76326 0.21424 0.0
H266 H 0.92204 0.81257 0.19014 0.0
H267 H 0.9312 0.78121 0.16391 0.0
H268 H 0.91718 0.80298 0.10756 0.0
H269 H 0.83655 0.74525 0.30931 0.0
H270 H 0.86977 0.7361 0.3138 0.0
H271 H 0.85992 0.76596 0.34851 0.0
H272 H 0.94922 0.7294 0.34423 0.0
H273 H 0.92679 0.80253 0.42115 0.0
H274 H 0.92075 0.73734 0.18651 0.0
H275 H 0.90213 0.71919 0.23943 0.0
H276 H 0.93635 0.71531 0.23973 0.0
H277 H 0.89518 0.825 0.27936 0.0
H278 H 0.90039 0.83078 0.36387 0.0
H279 H 0.87368 0.81176 0.33456 0.0
C280 C 0.75269 0.34981 0.71388 0.0
C281 C 0.74146 0.35478 0.65404 0.0
C282 C 0.75815 0.36971 0.75825 0.0
C283 C 0.75219 0.39522 0.74252 0.0
C284 C 0.74203 0.40052 0.68111 0.0
C285 C 0.73683 0.38024 0.63754 0.0
C286 C 0.76918 0.36329 0.82313 0.0
C287 C 0.73547 0.42745 0.66252 0.0
C288 C 0.73612 0.43646 0.88663 0.0
C289 C 0.7593 0.44915 0.89985 0.0
C290 C 0.73318 0.41989 0.83348 0.0
C291 C 0.75403 0.41577 0.79281 0.0
C292 C 0.77704 0.42967 0.80391 0.0
C293 C 0.77939 0.44635 0.85747 0.0
C294 C 0.7082 0.40571 0.82304 0.0
C295 C 0.79965 0.4258 0.76154 0.0
H296 H 0.75662 0.33026 0.72684 0.0
H297 H 0.72837 0.38434 0.59121 0.0
H298 H 0.78614 0.37539 0.83504 0.0
H299 H 0.75479 0.36734 0.85997 0.0
H300 H 0.77488 0.34289 0.82585 0.0
H301 H 0.7307 0.42873 0.61078 0.0
H302 H 0.71878 0.43426 0.68973 0.0
H303 H 0.75162 0.44057 0.6747 0.0
H304 H 0.72059 0.43878 0.91951 0.0
H305 H 0.79736 0.45607 0.86814 0.0
H306 H 0.71126 0.38504 0.83096 0.0
H307 H 0.70105 0.40766 0.77316 0.0
H308 H 0.69322 0.41272 0.85572 0.0
H309 H 0.80797 0.4066 0.76927 0.0
H310 H 0.8148 0.44035 0.77149 0.0
H311 H 0.79358 0.42658 0.71055 0.0
C312 C 0.63371 0.28915 0.3895 0.0
C313 C 0.65847 0.28118 0.37389 0.0
C314 C 0.61294 0.28527 0.34641 0.0
C315 C 0.61704 0.27308 0.28653 0.0
C316 C 0.64175 0.26402 0.27176 0.0
C317 C 0.66213 0.2682 0.31552 0.0
C318 C 0.58686 0.29513 0.36388 0.0
C319 C 0.64692 0.25074 0.20858 0.0
C320 C 0.56484 0.24613 0.17496 0.0
C321 C 0.56422 0.26451 0.12761 0.0
C322 C 0.58078 0.24937 0.22961 0.0
C323 C 0.59625 0.27153 0.23676 0.0
C324 C 0.59408 0.291 0.19137 0.0
C325 C 0.57813 0.28721 0.13725 0.0
C326 C 0.58247 0.22824 0.27708 0.0
C327 C 0.61 0.31505 0.19746 0.0
H328 H 0.63064 0.29909 0.43463 0.0
H329 H 0.6811 0.26169 0.30331 0.0
H330 H 0.58168 0.31151 0.33361 0.0
H331 H 0.57214 0.28013 0.35473 0.0
H332 H 0.58621 0.30156 0.41471 0.0
H333 H 0.6668 0.24334 0.20622 0.0
H334 H 0.63348 0.23455 0.20004 0.0
H335 H 0.64376 0.26428 0.16933 0.0
H336 H 0.55415 0.22853 0.16732 0.0
H337 H 0.57744 0.30151 0.10077 0.0
H338 H 0.58229 0.23617 0.32662 0.0
H339 H 0.60078 0.21783 0.27141 0.0
H340 H 0.56652 0.21434 0.27026 0.0
H341 H 0.60879 0.32367 0.24615 0.0
H342 H 0.60391 0.32951 0.16234 0.0
H343 H 0.63037 0.31027 0.18961 0.0
C344 C 0.23948 0.13281 0.88503 0.0
C345 C 0.24032 0.15818 0.86497 0.0
C346 C 0.24495 0.11231 0.84293 0.0
C347 C 0.25124 0.11732 0.77928 0.0
C348 C 0.25296 0.1429 0.75944 0.0
C349 C 0.24758 0.16298 0.80252 0.0
C350 C 0.24317 0.08531 0.86593 0.0
C351 C 0.25957 0.14907 0.69187 0.0
C352 C 0.2815 0.06937 0.66513 0.0
C353 C 0.26042 0.06274 0.62569 0.0
C354 C 0.27862 0.086 0.71818 0.0
C355 C 0.25412 0.09606 0.73154 0.0
C356 C 0.23257 0.08795 0.69398 0.0
C357 C 0.23604 0.07149 0.6412 0.0
C358 C 0.30203 0.09417 0.7571 0.0
C359 C 0.2061 0.09806 0.70675 0.0
H360 H 0.23414 0.1289 0.93337 0.0
H361 H 0.24843 0.18248 0.78658 0.0
H362 H 0.2268 0.07541 0.84135 0.0
H363 H 0.2607 0.07445 0.85395 0.0
H364 H 0.24051 0.0847 0.91822 0.0
H365 H 0.26149 0.16995 0.68503 0.0
H366 H 0.27777 0.13965 0.67884 0.0
H367 H 0.24444 0.14157 0.65834 0.0
H368 H 0.30037 0.06274 0.65235 0.0
H369 H 0.21985 0.06638 0.61009 0.0
H370 H 0.29829 0.09354 0.80884 0.0
H371 H 0.30685 0.11422 0.74634 0.0
H372 H 0.31885 0.08196 0.74657 0.0
H373 H 0.20171 0.0964 0.7579 0.0
H374 H 0.19112 0.08776 0.67768 0.0
H375 H 0.20519 0.11863 0.69542 0.0
C376 C 0.33722 0.74698 0.30721 0.0
C377 C 0.34193 0.73536 0.36583 0.0
C378 C 0.3572 0.7518 0.26588 0.0
C379 C 0.38251 0.74476 0.28345 0.0
C380 C 0.3876 0.73414 0.34378 0.0
C381 C 0.36725 0.7296 0.38433 0.0
C382 C 0.35101 0.76335 0.20209 0.0
C383 C 0.41432 0.72641 0.36423 0.0
C384 C 0.42285 0.72783 0.14156 0.0
C385 C 0.43646 0.75051 0.13372 0.0
C386 C 0.40621 0.72529 0.19215 0.0
C387 C 0.40298 0.74606 0.23578 0.0
C388 C 0.41776 0.76855 0.23014 0.0
C389 C 0.43447 0.77048 0.17905 0.0
C390 C 0.39107 0.70087 0.19678 0.0
C391 C 0.41484 0.79105 0.2758 0.0
H392 H 0.31779 0.75179 0.29279 0.0
H393 H 0.37116 0.72081 0.42976 0.0
H394 H 0.36372 0.77987 0.1943 0.0
H395 H 0.35441 0.749 0.16336 0.0
H396 H 0.33082 0.76984 0.19803 0.0
H397 H 0.41556 0.72127 0.41526 0.0
H398 H 0.42041 0.70965 0.33489 0.0
H399 H 0.42805 0.74208 0.35629 0.0
H400 H 0.42458 0.71234 0.10655 0.0
H401 H 0.44493 0.78807 0.17263 0.0
H402 H 0.37049 0.70479 0.18714 0.0
H403 H 0.39289 0.69337 0.24565 0.0
H404 H 0.39738 0.68583 0.16233 0.0
H405 H 0.39586 0.80003 0.26752 0.0
H406 H 0.42985 0.80574 0.26981 0.0
H407 H 0.41565 0.78472 0.32585 0.0
C408 C 0.75532 0.84831 0.80665 0.0
C409 C 0.76166 0.85351 0.87106 0.0
C410 C 0.74943 0.8681 0.76495 0.0
C411 C 0.74967 0.89375 0.78826 0.0
C412 C 0.75497 0.89908 0.85374 0.0
C413 C 0.76098 0.87891 0.89436 0.0
C414 C 0.74392 0.86161 0.69534 0.0
C415 C 0.75516 0.92615 0.88042 0.0
C416 C 0.76454 0.94092 0.66084 0.0
C417 C 0.74003 0.94884 0.64173 0.0
C418 C 0.76803 0.92414 0.71124 0.0
C419 C 0.74642 0.91488 0.74269 0.0
C420 C 0.72169 0.92398 0.72573 0.0
C421 C 0.71878 0.94091 0.67513 0.0
C422 C 0.79473 0.91505 0.72797 0.0
C423 C 0.69822 0.91459 0.75821 0.0
H424 H 0.75567 0.82878 0.78819 0.0
H425 H 0.76559 0.88311 0.94422 0.0
H426 H 0.72552 0.87025 0.67961 0.0
H427 H 0.75912 0.86972 0.66598 0.0
H428 H 0.74299 0.84066 0.68559 0.0
H429 H 0.75716 0.9269 0.93329 0.0
H430 H 0.77133 0.9368 0.86058 0.0
H431 H 0.73731 0.93617 0.8661 0.0
H432 H 0.78087 0.94698 0.63427 0.0
H433 H 0.69983 0.94686 0.65945 0.0
H434 H 0.79656 0.89452 0.71426 0.0
H435 H 0.7985 0.91688 0.78016 0.0
H436 H 0.80959 0.92591 0.70327 0.0
H437 H 0.69458 0.89435 0.74375 0.0
H438 H 0.68096 0.92596 0.74557 0.0
H439 H 0.70118 0.91534 0.81077 0.0
C440 C 0.84873 0.79865 0.82453 0.0
C441 C 0.83928 0.77954 0.863 0.0
C442 C 0.8676 0.79317 0.77996 0.0
C443 C 0.87792 0.76818 0.77545 0.0
C444 C 0.86919 0.74907 0.81622 0.0
C445 C 0.84956 0.75486 0.85872 0.0
C446 C 0.87575 0.81388 0.736 0.0
C447 C 0.88035 0.72247 0.81442 0.0
C448 C 0.90419 0.74866 0.61485 0.0
C449 C 0.93017 0.75521 0.62243 0.0
C450 C 0.88713 0.75233 0.6646 0.0
C451 C 0.89638 0.76175 0.72466 0.0
C452 C 0.92285 0.76669 0.73427 0.0
C453 C 0.93939 0.76372 0.6828 0.0
C454 C 0.85899 0.74726 0.65184 0.0
C455 C 0.93355 0.77593 0.7983 0.0
H456 H 0.84064 0.81771 0.82764 0.0
H457 H 0.8424 0.74017 0.88908 0.0
H458 H 0.8967 0.81691 0.74052 0.0
H459 H 0.87133 0.80792 0.68574 0.0
H460 H 0.86602 0.83236 0.74612 0.0
H461 H 0.87345 0.7107 0.85375 0.0
H462 H 0.87512 0.71269 0.76839 0.0
H463 H 0.90154 0.72343 0.81775 0.0
H464 H 0.89694 0.74115 0.56926 0.0
H465 H 0.95935 0.76888 0.68949 0.0
H466 H 0.84803 0.76523 0.65877 0.0
H467 H 0.85178 0.73337 0.68608 0.0
H468 H 0.85497 0.73966 0.60265 0.0
H469 H 0.92728 0.79587 0.80796 0.0
H470 H 0.95479 0.77542 0.80044 0.0
H471 H 0.92618 0.76406 0.83685 0.0
C472 C 0.72796 0.37617 0.3798 0.0
C473 C 0.73959 0.35215 0.37208 0.0
C474 C 0.73285 0.39599 0.33812 0.0
C475 C 0.74951 0.39159 0.28696 0.0
C476 C 0.76215 0.36775 0.28051 0.0
C477 C 0.75717 0.34835 0.32345 0.0
C478 C 0.71932 0.42126 0.34722 0.0
C479 C 0.77992 0.36228 0.22628 0.0
C480 C 0.73711 0.42695 0.13406 0.0
C481 C 0.75721 0.44471 0.13529 0.0
C482 C 0.73422 0.4099 0.18364 0.0
C483 C 0.75162 0.41083 0.23645 0.0
C484 C 0.77125 0.4295 0.23958 0.0
C485 C 0.77387 0.44623 0.18876 0.0
C486 C 0.71296 0.39036 0.17849 0.0
C487 C 0.78993 0.43128 0.29559 0.0
H488 H 0.71464 0.37937 0.41792 0.0
H489 H 0.76628 0.32988 0.31732 0.0
H490 H 0.73308 0.43731 0.34495 0.0
H491 H 0.70486 0.42366 0.30818 0.0
H492 H 0.70948 0.42266 0.39346 0.0
H493 H 0.78982 0.34361 0.2309 0.0
H494 H 0.76886 0.36205 0.18039 0.0
H495 H 0.79453 0.37756 0.22403 0.0
H496 H 0.72385 0.42606 0.09345 0.0
H497 H 0.78948 0.45985 0.18983 0.0
H498 H 0.70066 0.39206 0.22065 0.0
H499 H 0.72119 0.37081 0.17781 0.0
H500 H 0.70076 0.39251 0.13479 0.0
H501 H 0.77952 0.43237 0.34098 0.0
H502 H 0.80268 0.44818 0.29339 0.0
H503 H 0.80193 0.41381 0.29665 0.0
C504 C 0.16749 0.25218 0.80882 0.0
C505 C 0.16437 0.23499 0.85812 0.0
C506 C 0.14775 0.25623 0.76352 0.0
C507 C 0.12422 0.2431 0.76836 0.0
C508 C 0.12047 0.2269 0.82021 0.0
C509 C 0.14066 0.22288 0.86415 0.0
C510 C 0.15257 0.27348 0.70856 0.0
C511 C 0.09552 0.21294 0.82777 0.0
C512 C 0.06883 0.26516 0.66184 0.0
C513 C 0.07054 0.24795 0.60973 0.0
C514 C 0.08566 0.26341 0.71499 0.0
C515 C 0.1047 0.24415 0.71556 0.0
C516 C 0.10581 0.22616 0.66418 0.0
C517 C 0.08859 0.22814 0.61231 0.0
C518 C 0.08363 0.28264 0.76948 0.0
C519 C 0.12576 0.20528 0.66288 0.0
H520 H 0.18574 0.26164 0.80397 0.0
H521 H 0.138 0.20986 0.90279 0.0
H522 H 0.1528 0.26193 0.66345 0.0
H523 H 0.13695 0.28769 0.70371 0.0
H524 H 0.17106 0.28383 0.71438 0.0
H525 H 0.09453 0.20375 0.87477 0.0
H526 H 0.07914 0.22625 0.8225 0.0
H527 H 0.09332 0.1979 0.78977 0.0
H528 H 0.05499 0.28056 0.66004 0.0
H529 H 0.08964 0.21444 0.5728 0.0
H530 H 0.10074 0.29518 0.77133 0.0
H531 H 0.08311 0.27277 0.81557 0.0
H532 H 0.06632 0.29482 0.76465 0.0
H533 H 0.14516 0.21389 0.66383 0.0
H534 H 0.12372 0.19254 0.61984 0.0
H535 H 0.12442 0.19347 0.7058 0.0
C536 C 0.2814 0.65393 0.30225 0.0
C537 C 0.26316 0.66279 0.34514 0.0
C538 C 0.27514 0.63518 0.25552 0.0
C539 C 0.2503 0.62434 0.25329 0.0
C540 C 0.23205 0.63265 0.29806 0.0
C541 C 0.23855 0.65223 0.34275 0.0
C542 C 0.2949 0.62753 0.20738 0.0
C543 C 0.20573 0.62087 0.29872 0.0
C544 C 0.22889 0.59678 0.09193 0.0
C545 C 0.237 0.57125 0.09563 0.0
C546 C 0.2324 0.61407 0.14351 0.0
C547 C 0.24324 0.60545 0.20154 0.0
C548 C 0.24948 0.57927 0.20756 0.0
C549 C 0.24667 0.56254 0.15426 0.0
C550 C 0.22594 0.64191 0.1345 0.0
C551 C 0.26022 0.56916 0.26943 0.0
H552 H 0.30039 0.66227 0.30405 0.0
H553 H 0.22459 0.65897 0.37656 0.0
H554 H 0.29889 0.60677 0.20975 0.0
H555 H 0.28744 0.63123 0.15846 0.0
H556 H 0.31318 0.63809 0.21521 0.0
H557 H 0.19457 0.62795 0.3399 0.0
H558 H 0.19495 0.62529 0.25414 0.0
H559 H 0.20728 0.59976 0.30069 0.0
H560 H 0.22049 0.60357 0.04776 0.0
H561 H 0.25302 0.54292 0.15801 0.0
H562 H 0.24367 0.65353 0.13902 0.0
H563 H 0.21295 0.64887 0.17206 0.0
H564 H 0.21673 0.64533 0.08717 0.0
H565 H 0.28022 0.57582 0.27703 0.0
H566 H 0.26012 0.54793 0.26956 0.0
H567 H 0.24907 0.57653 0.31027 0.0
C568 C 0.3637 0.72231 0.63972 0.0
C569 C 0.33995 0.73433 0.64738 0.0
C570 C 0.38391 0.72648 0.68407 0.0
C571 C 0.38014 0.74274 0.73794 0.0
C572 C 0.35657 0.75577 0.74454 0.0
C573 C 0.3368 0.75156 0.69887 0.0
C574 C 0.4089 0.71262 0.67468 0.0
C575 C 0.35173 0.7731 0.80163 0.0
C576 C 0.41579 0.72842 0.89232 0.0
C577 C 0.43369 0.74837 0.89724 0.0
C578 C 0.39866 0.72613 0.84006 0.0
C579 C 0.3997 0.74399 0.79074 0.0
C580 C 0.41862 0.76337 0.79357 0.0
C581 C 0.43538 0.7654 0.84704 0.0
C582 C 0.37884 0.70512 0.8389 0.0
C583 C 0.42056 0.78248 0.74131 0.0
H584 H 0.3664 0.70927 0.59943 0.0
H585 H 0.31853 0.76096 0.70498 0.0
H586 H 0.42524 0.72602 0.68142 0.0
H587 H 0.41122 0.69767 0.7109 0.0
H588 H 0.40989 0.70333 0.62658 0.0
H589 H 0.33319 0.78333 0.79722 0.0
H590 H 0.35163 0.76163 0.84537 0.0
H591 H 0.36729 0.7874 0.80804 0.0
H592 H 0.41476 0.71487 0.93038 0.0
H593 H 0.44911 0.78091 0.8507 0.0
H594 H 0.38017 0.69329 0.79446 0.0
H595 H 0.35939 0.71361 0.83925 0.0
H596 H 0.38102 0.69243 0.88031 0.0
H597 H 0.42103 0.7725 0.69403 0.0
H598 H 0.43785 0.7947 0.74745 0.0
H599 H 0.40343 0.79498 0.74108 0.0
C600 C 0.74409 0.84789 0.20083 0.0
C601 C 0.7625 0.85186 0.15472 0.0
C602 C 0.73867 0.86698 0.24684 0.0
C603 C 0.75176 0.89066 0.24623 0.0
C604 C 0.76929 0.89526 0.19765 0.0
C605 C 0.77454 0.87578 0.15269 0.0
C606 C 0.71991 0.8613 0.29807 0.0
C607 C 0.78339 0.92036 0.19484 0.0
C608 C 0.72732 0.94526 0.35177 0.0
C609 C 0.7433 0.94314 0.40613 0.0
C610 C 0.73009 0.92863 0.2986 0.0
C611 C 0.74919 0.90944 0.30017 0.0
C612 C 0.76581 0.90775 0.35421 0.0
C613 C 0.76278 0.9247 0.4062 0.0
C614 C 0.71221 0.93118 0.24146 0.0
C615 C 0.7865 0.88764 0.35779 0.0
H616 H 0.73462 0.82952 0.2026 0.0
H617 H 0.78852 0.87915 0.11661 0.0
H618 H 0.73025 0.86028 0.34482 0.0
H619 H 0.70562 0.87687 0.30212 0.0
H620 H 0.70967 0.84294 0.28863 0.0
H621 H 0.79405 0.92201 0.15004 0.0
H622 H 0.76985 0.93661 0.19874 0.0
H623 H 0.79721 0.92214 0.23575 0.0
H624 H 0.71217 0.95939 0.35157 0.0
H625 H 0.77554 0.92331 0.44753 0.0
H626 H 0.70013 0.91382 0.23567 0.0
H627 H 0.72331 0.93274 0.19739 0.0
H628 H 0.69952 0.94812 0.24597 0.0
H629 H 0.77781 0.86831 0.35372 0.0
H630 H 0.79798 0.88906 0.40307 0.0
H631 H 0.79958 0.88946 0.3174 0.0
C632 C 0.65618 0.29804 0.69837 0.0
C633 C 0.66556 0.27907 0.65693 0.0
C634 C 0.63735 0.29241 0.74222 0.0
C635 C 0.627 0.26741 0.74293 0.0
C636 C 0.63575 0.24842 0.69935 0.0
C637 C 0.65535 0.25435 0.65764 0.0
C638 C 0.6292 0.31299 0.78925 0.0
C639 C 0.62454 0.22183 0.6971 0.0
C640 C 0.60013 0.24764 0.9001 0.0
C641 C 0.57421 0.25438 0.89302 0.0
C642 C 0.61736 0.25132 0.85121 0.0
C643 C 0.60835 0.26091 0.79238 0.0
C644 C 0.58194 0.26599 0.78299 0.0
C645 C 0.56522 0.26303 0.83372 0.0
C646 C 0.64544 0.24609 0.86377 0.0
C647 C 0.57148 0.27542 0.72013 0.0
H648 H 0.66422 0.31712 0.69798 0.0
H649 H 0.66247 0.23978 0.62496 0.0
H650 H 0.60829 0.31619 0.78469 0.0
H651 H 0.63337 0.3068 0.83865 0.0
H652 H 0.63912 0.33144 0.78229 0.0
H653 H 0.63165 0.21008 0.6564 0.0
H654 H 0.62949 0.212 0.74194 0.0
H655 H 0.60337 0.22283 0.69315 0.0
H656 H 0.6072 0.24002 0.94472 0.0
H657 H 0.54531 0.26833 0.82741 0.0
H658 H 0.6565 0.26406 0.85993 0.0
H659 H 0.65273 0.23234 0.82752 0.0
H660 H 0.64926 0.23829 0.91182 0.0
H661 H 0.57784 0.29536 0.71355 0.0
H662 H 0.55024 0.27497 0.71748 0.0
H663 H 0.57893 0.26363 0.67999 0.0
C664 C 0.25987 0.16578 0.19791 0.0
C665 C 0.24138 0.16205 0.1489 0.0
C666 C 0.26494 0.14669 0.24239 0.0
C667 C 0.25141 0.12325 0.23724 0.0
C668 C 0.23376 0.11888 0.18584 0.0
C669 C 0.22887 0.13836 0.14252 0.0
C670 C 0.28383 0.15212 0.29672 0.0
C671 C 0.2192 0.09404 0.17815 0.0
C672 C 0.27478 0.06798 0.33816 0.0
C673 C 0.25877 0.07022 0.39063 0.0
C674 C 0.27243 0.08485 0.2872 0.0
C675 C 0.25373 0.10443 0.28908 0.0
C676 C 0.23713 0.10633 0.34116 0.0
C677 C 0.23973 0.08912 0.39091 0.0
C678 C 0.29025 0.08207 0.23205 0.0
C679 C 0.21688 0.12686 0.345 0.0
H680 H 0.26969 0.18398 0.20306 0.0
H681 H 0.21483 0.13517 0.10421 0.0
H682 H 0.27354 0.15337 0.34229 0.0
H683 H 0.29786 0.13631 0.30065 0.0
H684 H 0.29437 0.17029 0.29088 0.0
H685 H 0.20837 0.09256 0.13192 0.0
H686 H 0.23246 0.07756 0.18144 0.0
H687 H 0.20547 0.09251 0.21727 0.0
H688 H 0.28961 0.05352 0.33778 0.0
H689 H 0.22692 0.09062 0.43061 0.0
H690 H 0.30249 0.09931 0.22995 0.0
H691 H 0.2791 0.08055 0.18637 0.0
H692 H 0.30278 0.06501 0.23606 0.0
H693 H 0.22596 0.14601 0.3444 0.0
H694 H 0.2055 0.1257 0.38879 0.0
H695 H 0.20365 0.12528 0.30287 0.0
C696 C 0.21445 0.31911 0.0535 0.0
C697 C 0.23111 0.30596 0.01285 0.0
C698 C 0.2137 0.34595 0.05611 0.0
C699 C 0.23038 0.36 0.01812 0.0
C700 C 0.24713 0.34682 0.97671 0.0
C701 C 0.2471 0.31998 0.9741 0.0
C702 C 0.19522 0.35928 0.09993 0.0
C703 C 0.26554 0.36107 0.93628 0.0
C704 C 0.2175 0.43015 0.98551 0.0
C705 C 0.2336 0.44236 0.03132 0.0
C706 C 0.21586 0.40333 0.98142 0.0
C707 C 0.23104 0.38845 0.02334 0.0
C708 C 0.24726 0.40077 0.06972 0.0
C709 C 0.24812 0.42757 0.07354 0.0
C710 C 0.19796 0.39092 0.9322 0.0
C711 C 0.26405 0.38564 0.11463 0.0
H712 H 0.20187 0.30839 0.08315 0.0
H713 H 0.26012 0.30996 0.94279 0.0
H714 H 0.20594 0.37055 0.13733 0.0
H715 H 0.18318 0.37288 0.07274 0.0
H716 H 0.18253 0.34562 0.12356 0.0
H717 H 0.27709 0.348 0.90598 0.0
H718 H 0.25493 0.37439 0.90497 0.0
H719 H 0.27872 0.37275 0.96742 0.0
H720 H 0.20606 0.44153 0.95311 0.0
H721 H 0.26059 0.43702 0.10892 0.0
H722 H 0.18452 0.37801 0.95569 0.0
H723 H 0.20902 0.37904 0.89812 0.0
H724 H 0.18671 0.40518 0.90495 0.0
H725 H 0.25213 0.37298 0.14326 0.0
H726 H 0.27569 0.39813 0.14772 0.0
H727 H 0.27713 0.3732 0.0869 0.0
C728 C 0.18074 0.74511 0.45743 0.0
C729 C 0.19456 0.72921 0.49867 0.0
C730 C 0.15389 0.74498 0.45524 0.0
C731 C 0.14048 0.7282 0.49433 0.0
C732 C 0.15432 0.71192 0.53564 0.0
C733 C 0.18119 0.71279 0.53775 0.0
C734 C 0.13985 0.76293 0.41129 0.0
C735 C 0.14074 0.69344 0.57722 0.0
C736 C 0.07095 0.7434 0.52884 0.0
C737 C 0.05798 0.72799 0.48286 0.0
C738 C 0.09781 0.74356 0.53336 0.0
C739 C 0.11197 0.72763 0.49157 0.0
C740 C 0.09889 0.71168 0.44592 0.0
C741 C 0.07205 0.71226 0.44171 0.0
C742 C 0.11104 0.76116 0.58194 0.0
C743 C 0.11325 0.69413 0.40118 0.0
H744 H 0.19092 0.75797 0.42738 0.0
H745 H 0.19175 0.70031 0.5694 0.0
H746 H 0.1279 0.75184 0.37595 0.0
H747 H 0.1268 0.77538 0.43908 0.0
H748 H 0.15309 0.77524 0.38516 0.0
H749 H 0.15429 0.68185 0.60614 0.0
H750 H 0.12794 0.70402 0.60994 0.0
H751 H 0.12857 0.68032 0.54714 0.0
H752 H 0.06016 0.75577 0.56045 0.0
H753 H 0.06201 0.70033 0.40619 0.0
H754 H 0.12335 0.77485 0.55738 0.0
H755 H 0.12367 0.74999 0.61409 0.0
H756 H 0.09728 0.77214 0.61134 0.0
H757 H 0.12536 0.70556 0.36998 0.0
H758 H 0.10022 0.68204 0.37055 0.0
H759 H 0.1262 0.6815 0.42883 0.0
C760 C 0.76284 0.69243 0.96297 0.0
C761 C 0.77719 0.70727 0.00764 0.0
C762 C 0.76465 0.66566 0.96125 0.0
C763 C 0.78153 0.65339 0.00453 0.0
C764 C 0.79628 0.66825 0.04932 0.0
C765 C 0.79378 0.695 0.05068 0.0
C766 C 0.74832 0.6505 0.91336 0.0
C767 C 0.81478 0.65591 0.09559 0.0
C768 C 0.76938 0.58336 0.03753 0.0
C769 C 0.78629 0.57106 0.99601 0.0
C770 C 0.76775 0.61015 0.04109 0.0
C771 C 0.78366 0.62498 0.00287 0.0
C772 C 0.80108 0.61262 0.96171 0.0
C773 C 0.80201 0.58579 0.95839 0.0
C774 C 0.74866 0.62259 0.08487 0.0
C775 C 0.8186 0.62774 0.92082 0.0
H776 H 0.74988 0.70173 0.92976 0.0
H777 H 0.80507 0.70634 0.08503 0.0
H778 H 0.76066 0.63902 0.88136 0.0
H779 H 0.73606 0.63692 0.93845 0.0
H780 H 0.73586 0.66292 0.8837 0.0
H781 H 0.82516 0.67018 0.12668 0.0
H782 H 0.80439 0.64269 0.12624 0.0
H783 H 0.82898 0.64436 0.06905 0.0
H784 H 0.75703 0.57207 0.06643 0.0
H785 H 0.8151 0.57629 0.92632 0.0
H786 H 0.7348 0.63403 0.05662 0.0
H787 H 0.75859 0.63591 0.11926 0.0
H788 H 0.73791 0.60838 0.112 0.0
H789 H 0.80711 0.6391 0.88659 0.0
H790 H 0.83184 0.61527 0.89355 0.0
H791 H 0.83007 0.64142 0.95106 0.0
C792 C 0.82049 0.26373 0.47151 0.0
C793 C 0.80803 0.28006 0.51478 0.0
C794 C 0.8472 0.26092 0.47409 0.0
C795 C 0.86189 0.27511 0.52032 0.0
C796 C 0.8495 0.29223 0.56282 0.0
C797 C 0.82272 0.29434 0.55991 0.0
C798 C 0.85962 0.24218 0.42853 0.0
C799 C 0.86451 0.30803 0.61205 0.0
C800 C 0.92668 0.24879 0.57224 0.0
C801 C 0.94338 0.26273 0.53536 0.0
C802 C 0.90014 0.2526 0.56767 0.0
C803 C 0.89008 0.27117 0.526 0.0
C804 C 0.90692 0.28565 0.4894 0.0
C805 C 0.9334 0.28112 0.49414 0.0
C806 C 0.88284 0.23652 0.60687 0.0
C807 C 0.89696 0.3059 0.44525 0.0
H808 H 0.80929 0.25254 0.43667 0.0
H809 H 0.81325 0.30716 0.59314 0.0
H810 H 0.87443 0.25195 0.40121 0.0
H811 H 0.86936 0.22694 0.45578 0.0
H812 H 0.84559 0.23312 0.39429 0.0
H813 H 0.85219 0.32163 0.63878 0.0
H814 H 0.87415 0.29529 0.64661 0.0
H815 H 0.87966 0.31899 0.58878 0.0
H816 H 0.9344 0.23456 0.60408 0.0
H817 H 0.94627 0.2921 0.46588 0.0
H818 H 0.86922 0.22569 0.57499 0.0
H819 H 0.87135 0.24899 0.6387 0.0
H820 H 0.89368 0.22275 0.63657 0.0
H821 H 0.88409 0.29711 0.40797 0.0
H822 H 0.91261 0.31603 0.42155 0.0
H823 H 0.88552 0.32014 0.47231 0.0
C824 C 0.71354 0.19448 0.45559 0.0
C825 C 0.7294 0.20743 0.50073 0.0
C826 C 0.71321 0.16764 0.45113 0.0
C827 C 0.72942 0.15342 0.49207 0.0
C828 C 0.74527 0.16639 0.53814 0.0
C829 C 0.74491 0.1932 0.54227 0.0
C830 C 0.69573 0.15452 0.40208 0.0
C831 C 0.7631 0.15195 0.58208 0.0
C832 C 0.71703 0.08274 0.51715 0.0
C833 C 0.73426 0.07123 0.47514 0.0
C834 C 0.71487 0.1095 0.52229 0.0
C835 C 0.73057 0.12502 0.48524 0.0
C836 C 0.74788 0.11341 0.44253 0.0
C837 C 0.74934 0.08665 0.43764 0.0
C838 C 0.6959 0.12115 0.5676 0.0
C839 C 0.76519 0.12926 0.40278 0.0
H840 H 0.70134 0.20533 0.42367 0.0
H841 H 0.7573 0.20304 0.57712 0.0
H842 H 0.70726 0.1438 0.36671 0.0
H843 H 0.68343 0.14045 0.42537 0.0
H844 H 0.68328 0.16825 0.37631 0.0
H845 H 0.77385 0.16485 0.61609 0.0
H846 H 0.75215 0.13809 0.60968 0.0
H847 H 0.77703 0.14085 0.55356 0.0
H848 H 0.70517 0.07088 0.5459 0.0
H849 H 0.76267 0.07775 0.40517 0.0
H850 H 0.68275 0.13413 0.54161 0.0
H851 H 0.70613 0.13284 0.60507 0.0
H852 H 0.68437 0.10646 0.59105 0.0
H853 H 0.75362 0.1421 0.37226 0.0
H854 H 0.77753 0.11728 0.37172 0.0
H855 H 0.77763 0.14154 0.43438 0.0
C856 C 0.32289 0.24603 0.05323 0.0
C857 C 0.30922 0.23024 0.00932 0.0
C858 C 0.34974 0.2459 0.05604 0.0
C859 C 0.36329 0.22921 0.01482 0.0
C860 C 0.34961 0.21304 0.97079 0.0
C861 C 0.32275 0.21392 0.96816 0.0
C862 C 0.36363 0.26374 0.10294 0.0
C863 C 0.36333 0.19465 0.92684 0.0
C864 C 0.43303 0.24402 0.98358 0.0
C865 C 0.44577 0.22836 0.02733 0.0
C866 C 0.40617 0.24447 0.97892 0.0
C867 C 0.39179 0.22857 0.01819 0.0
C868 C 0.40464 0.2124 0.06163 0.0
C869 C 0.43148 0.2127 0.0661 0.0
C870 C 0.39318 0.26228 0.93279 0.0
C871 C 0.39004 0.19487 0.1036 0.0
H872 H 0.31258 0.25881 0.08491 0.0
H873 H 0.31231 0.20152 0.93443 0.0
H874 H 0.37542 0.25256 0.13695 0.0
H875 H 0.37682 0.27622 0.0773 0.0
H876 H 0.3503 0.27601 0.13049 0.0
H877 H 0.34988 0.18314 0.89591 0.0
H878 H 0.37627 0.20529 0.89599 0.0
H879 H 0.37538 0.18146 0.95527 0.0
H880 H 0.44399 0.25634 0.95386 0.0
H881 H 0.44135 0.20058 0.09991 0.0
H882 H 0.38079 0.27589 0.95915 0.0
H883 H 0.38067 0.25126 0.89856 0.0
H884 H 0.4071 0.27336 0.9055 0.0
H885 H 0.37782 0.2063 0.13601 0.0
H886 H 0.40292 0.18273 0.13291 0.0
H887 H 0.37719 0.18228 0.07388 0.0
C888 C 0.28932 0.81821 0.4645 0.0
C889 C 0.27346 0.80521 0.50573 0.0
C890 C 0.29156 0.84495 0.468 0.0
C891 C 0.27729 0.85912 0.51317 0.0
C892 C 0.26109 0.84613 0.55462 0.0
C893 C 0.25954 0.81933 0.55078 0.0
C894 C 0.30934 0.85803 0.42367 0.0
C895 C 0.2453 0.86056 0.60283 0.0
C896 C 0.29915 0.92607 0.56412 0.0
C897 C 0.28328 0.94134 0.52614 0.0
C898 C 0.29762 0.89928 0.55985 0.0
C899 C 0.27943 0.88752 0.51736 0.0
C900 C 0.26323 0.9029 0.47908 0.0
C901 C 0.26548 0.92965 0.48359 0.0
C902 C 0.31549 0.88358 0.60078 0.0
C903 C 0.24335 0.89109 0.43388 0.0
H904 H 0.30029 0.80743 0.42987 0.0
H905 H 0.24715 0.80945 0.5826 0.0
H906 H 0.29846 0.87166 0.39379 0.0
H907 H 0.3239 0.86925 0.45181 0.0
H908 H 0.31933 0.84425 0.39176 0.0
H909 H 0.23324 0.84767 0.63063 0.0
H910 H 0.25801 0.87162 0.63653 0.0
H911 H 0.2327 0.87447 0.57829 0.0
H912 H 0.31292 0.93511 0.59704 0.0
H913 H 0.253 0.94138 0.45449 0.0
H914 H 0.32671 0.87035 0.57023 0.0
H915 H 0.30431 0.8717 0.63302 0.0
H916 H 0.32898 0.89565 0.63019 0.0
H917 H 0.25268 0.8783 0.3985 0.0
H918 H 0.23209 0.9057 0.40788 0.0
H919 H 0.23001 0.87919 0.4607 0.0
C920 C 0.68157 0.79305 0.95679 0.0
C921 C 0.69607 0.77894 0.00072 0.0
C922 C 0.65478 0.79107 0.95326 0.0
C923 C 0.6422 0.77425 0.9939 0.0
C924 C 0.65671 0.7602 0.03891 0.0
C925 C 0.68343 0.76288 0.04215 0.0
C926 C 0.63997 0.8067 0.90538 0.0
C927 C 0.64406 0.74179 0.08246 0.0
C928 C 0.57067 0.78111 0.01948 0.0
C929 C 0.56062 0.76262 0.97622 0.0
C930 C 0.59719 0.78536 0.02523 0.0
C931 C 0.61399 0.7705 0.98751 0.0
C932 C 0.60386 0.7518 0.94381 0.0
C933 C 0.57728 0.74827 0.93833 0.0
C934 C 0.60724 0.80575 0.07158 0.0
C935 C 0.6211 0.73533 0.9033 0.0
H936 H 0.69117 0.80568 0.92501 0.0
H937 H 0.69449 0.75184 0.07608 0.0
H938 H 0.63026 0.79383 0.86954 0.0
H939 H 0.62489 0.81793 0.92958 0.0
H940 H 0.65245 0.82003 0.88004 0.0
H941 H 0.65797 0.73279 0.11592 0.0
H942 H 0.62929 0.75183 0.11064 0.0
H943 H 0.63423 0.72648 0.05359 0.0
H944 H 0.55784 0.7924 0.04855 0.0
H945 H 0.56951 0.73395 0.9049 0.0
H946 H 0.61882 0.81979 0.04609 0.0
H947 H 0.62 0.79704 0.10807 0.0
H948 H 0.59163 0.81611 0.0962 0.0
H949 H 0.63275 0.74751 0.87279 0.0
H950 H 0.6102 0.72146 0.87217 0.0
H951 H 0.63457 0.72458 0.93433 0.0
loop_
_geom_bond_atom_site_label_1
_geom_bond_atom_site_label_2
_geom_bond_distance
_geom_bond_site_symmetry_2
_ccdc_geom_bond_type
Fe0 O2 1.918 . S
Fe0 O5 1.997 . S
Fe0 O6 2.002 . S
Fe0 O11 1.976 . S
Fe0 O14 1.996 . S
Fe1 O2 1.918 1_556 S
Fe1 O9 1.997 . S
Fe1 O12 1.996 . S
Fe1 O16 1.976 . S
Fe1 O19 2.002 . S
O2 Fe0 1.918 . S
O2 Fe1 1.918 1_554 S
O2 Fe3 1.918 . S
Fe3 O2 1.918 . S
Fe3 O4 2.003 . S
Fe3 O13 1.976 . S
Fe3 O17 1.995 1_554 S
Fe3 O20 1.996 1_554 S
O4 Fe3 2.003 . S
O4 C21 1.295 . S
O5 Fe0 1.997 . S
O5 C21 1.235 . S
O6 Fe0 2.002 . S
O6 C7 1.295 . S
C7 O6 1.295 . S
C7 O9 1.235 1_554 S
C8 O13 1.287 . S
C8 O14 1.255 . S
O9 Fe1 1.997 . S
O9 C7 1.235 1_556 S
C10 O16 1.287 . S
C10 O17 1.255 . S
O11 Fe0 1.976 . S
O11 C18 1.287 . S
O12 Fe1 1.996 . S
O12 C18 1.255 1_556 S
O13 Fe3 1.976 . S
O13 C8 1.287 . S
O14 Fe0 1.996 . S
O14 C8 1.255 . S
C15 O19 1.295 . S
C15 O20 1.235 . S
O16 Fe1 1.976 . S
O16 C10 1.287 . S
O17 Fe3 1.995 1_556 S
O17 C10 1.255 . S
C18 O11 1.287 . S
C18 O12 1.255 1_554 S
O19 Fe1 2.002 . S
O19 C15 1.295 . S
O20 Fe3 1.996 1_556 S
O20 C15 1.235 . S
C21 O4 1.295 . S
C21 O5 1.235 . S
Fe22 O24 1.918 . S
Fe22 O27 1.997 . S
Fe22 O28 2.002 . S
Fe22 O33 1.976 . S
Fe22 O36 1.996 . S
Fe23 O24 1.918 . S
Fe23 O31 1.997 . S
Fe23 O34 1.996 . S
Fe23 O38 1.976 . S
Fe23 O41 2.002 . S
O24 Fe22 1.918 . S
O24 Fe23 1.918 . S
O24 Fe25 1.918 . S
Fe25 O24 1.918 . S
Fe25 O26 2.002 . S
Fe25 O35 1.976 . S
Fe25 O39 1.996 . S
Fe25 O42 1.997 . S
O26 Fe25 2.002 . S
O26 C43 1.295 . S
O27 Fe22 1.997 . S
O27 C43 1.235 . S
O28 Fe22 2.002 . S
O28 C29 1.295 . S
C29 O28 1.295 . S
C29 O31 1.235 . S
C30 O35 1.287 . S
C30 O36 1.255 . S
O31 Fe23 1.997 . S
O31 C29 1.235 . S
C32 O38 1.287 . S
C32 O39 1.255 . S
O33 Fe22 1.976 . S
O33 C40 1.287 . S
O34 Fe23 1.996 . S
O34 C40 1.255 . S
O35 Fe25 1.976 . S
O35 C30 1.287 . S
O36 Fe22 1.996 . S
O36 C30 1.255 . S
C37 O41 1.295 . S
C37 O42 1.235 . S
O38 Fe23 1.976 . S
O38 C32 1.287 . S
O39 Fe25 1.996 . S
O39 C32 1.255 . S
C40 O33 1.287 . S
C40 O34 1.255 . S
O41 Fe23 2.002 . S
O41 C37 1.295 . S
O42 Fe25 1.997 . S
O42 C37 1.235 . S
C43 O26 1.295 . S
C43 O27 1.235 . S
Fe44 O46 1.918 1_556 S
Fe44 O49 1.997 . S
Fe44 O50 2.002 . S
Fe44 O55 1.976 . S
Fe44 O58 1.996 . S
Fe45 O46 1.918 . S
Fe45 O53 1.997 . S
Fe45 O56 1.996 . S
Fe45 O60 1.976 . S
Fe45 O63 2.002 . S
O46 Fe44 1.918 1_554 S
O46 Fe45 1.918 . S
O46 Fe47 1.918 . S
Fe47 O46 1.918 . S
Fe47 O48 2.002 1_554 S
Fe47 O57 1.976 1_554 S
Fe47 O61 1.996 . S
Fe47 O64 1.997 . S
O48 Fe47 2.002 1_556 S
O48 C65 1.295 . S
O49 Fe44 1.997 . S
O49 C65 1.235 . S
O50 Fe44 2.002 . S
O50 C51 1.295 1_556 S
C51 O50 1.295 1_554 S
C51 O53 1.235 . S
C52 O57 1.287 . S
C52 O58 1.255 . S
O53 Fe45 1.997 . S
O53 C51 1.235 . S
C54 O60 1.287 . S
C54 O61 1.255 . S
O55 Fe44 1.976 . S
O55 C62 1.287 1_556 S
O56 Fe45 1.996 . S
O56 C62 1.255 . S
O57 Fe47 1.976 1_556 S
O57 C52 1.287 . S
O58 Fe44 1.996 . S
O58 C52 1.255 . S
C59 O63 1.295 . S
C59 O64 1.235 . S
O60 Fe45 1.976 . S
O60 C54 1.287 . S
O61 Fe47 1.996 . S
O61 C54 1.255 . S
C62 O55 1.287 1_554 S
C62 O56 1.255 . S
O63 Fe45 2.002 . S
O63 C59 1.295 . S
O64 Fe47 1.997 . S
O64 C59 1.235 . S
C65 O48 1.295 . S
C65 O49 1.235 . S
Fe66 O68 1.918 . S
Fe66 O71 1.997 . S
Fe66 O72 2.002 . S
Fe66 O77 1.976 . S
Fe66 O80 1.996 . S
Fe67 O68 1.918 . S
Fe67 O75 1.997 . S
Fe67 O78 1.996 . S
Fe67 O82 1.976 . S
Fe67 O85 2.002 . S
O68 Fe66 1.918 . S
O68 Fe67 1.918 . S
O68 Fe69 1.918 . S
Fe69 O68 1.918 . S
Fe69 O70 2.002 . S
Fe69 O79 1.976 . S
Fe69 O83 1.996 . S
Fe69 O86 1.997 . S
O70 Fe69 2.002 . S
O70 C87 1.295 . S
O71 Fe66 1.997 . S
O71 C87 1.235 . S
O72 Fe66 2.002 . S
O72 C73 1.295 . S
C73 O72 1.295 . S
C73 O75 1.235 . S
C74 O79 1.287 . S
C74 O80 1.255 . S
O75 Fe67 1.997 . S
O75 C73 1.235 . S
C76 O82 1.287 . S
C76 O83 1.255 . S
O77 Fe66 1.976 . S
O77 C84 1.287 . S
O78 Fe67 1.996 . S
O78 C84 1.255 . S
O79 Fe69 1.976 . S
O79 C74 1.287 . S
O80 Fe66 1.996 . S
O80 C74 1.255 . S
C81 O85 1.295 . S
C81 O86 1.235 . S
O82 Fe67 1.976 . S
O82 C76 1.287 . S
O83 Fe69 1.996 . S
O83 C76 1.255 . S
C84 O77 1.287 . S
C84 O78 1.255 . S
O85 Fe67 2.002 . S
O85 C81 1.295 . S
O86 Fe69 1.997 . S
O86 C81 1.235 . S
C87 O70 1.295 . S
C87 O71 1.235 . S
H88 C93 0.930 . S
H89 C96 0.930 . S
H90 C98 0.930 1_554 S
H91 C92 1.016 . S
C92 H91 1.016 . S
C92 N99 1.286 1_554 S
C93 H88 0.930 . S
C93 C94 1.397 . S
C93 C95 1.361 . S
C94 C93 1.397 . S
C94 C98 1.398 . S
C95 C93 1.361 . S
C95 C96 1.393 1_556 S
C95 N99 1.413 . S
C96 H89 0.930 . S
C96 C95 1.393 1_554 S
C96 C97 1.399 . S
C97 C96 1.399 . S
C97 C98 1.373 1_554 S
C98 H90 0.930 1_556 S
C98 C94 1.398 . S
C98 C97 1.373 1_556 S
N99 C92 1.286 1_556 S
N99 C95 1.413 . S
H100 C105 0.930 . S
H101 C108 0.935 . S
H102 C110 0.930 . S
H103 C104 1.016 . S
C104 H103 1.016 . S
C104 N111 1.286 . S
C105 H100 0.930 . S
C105 C106 1.397 . S
C105 C107 1.361 1_655 S
C106 C105 1.397 . S
C106 C110 1.390 . S
C107 C105 1.361 1_455 S
C107 C108 1.393 1_455 S
C107 N111 1.413 . S
C108 H101 0.935 . S
C108 C107 1.393 1_655 S
C108 C109 1.399 . S
C109 C108 1.399 . S
C109 C110 1.381 . S
C110 H102 0.930 . S
C110 C106 1.390 . S
C110 C109 1.381 . S
N111 C104 1.286 . S
N111 C107 1.413 . S
H112 C117 0.930 . S
H113 C120 0.930 . S
H114 C122 0.930 . S
H115 C116 1.016 1_556 S
C116 H115 1.016 1_554 S
C116 N123 1.286 . S
C117 H112 0.930 . S
C117 C118 1.397 . S
C117 C119 1.361 . S
C118 C117 1.397 . S
C118 C122 1.390 . S
C119 C117 1.361 . S
C119 C120 1.393 1_554 S
C119 N123 1.413 . S
C120 H113 0.930 . S
C120 C119 1.393 1_556 S
C120 C121 1.399 . S
C121 C120 1.399 . S
C121 C122 1.381 1_556 S
C122 H114 0.930 . S
C122 C118 1.390 . S
C122 C121 1.381 1_554 S
N123 C116 1.286 . S
N123 C119 1.413 . S
H124 C129 0.930 . S
H125 C132 0.930 . S
H126 C134 0.930 . S
H127 C128 1.016 . S
C128 H127 1.016 . S
C128 N135 1.286 . S
C129 H124 0.930 . S
C129 C130 1.397 . S
C129 C131 1.362 1_455 S
C130 C129 1.397 . S
C130 C134 1.390 . S
C131 C129 1.362 1_655 S
C131 C132 1.394 1_655 S
C131 N135 1.411 . S
C132 H125 0.930 . S
C132 C131 1.394 1_455 S
C132 C133 1.399 . S
C133 C132 1.399 . S
C133 C134 1.381 . S
C134 H126 0.930 . S
C134 C130 1.390 . S
C134 C133 1.381 . S
N135 C128 1.286 . S
N135 C131 1.411 . S
H136 C141 0.930 . S
H137 C144 0.928 1_545 S
H138 C146 0.930 . S
H139 C140 1.016 . S
C140 H139 1.016 . S
C140 N147 1.286 . S
C141 H136 0.930 . S
C141 C142 1.397 . S
C141 C143 1.361 1_565 S
C142 C141 1.397 . S
C142 C146 1.390 . S
C143 C141 1.361 1_545 S
C143 C144 1.393 1_545 S
C143 N147 1.413 . S
C144 H137 0.928 1_565 S
C144 C143 1.393 1_565 S
C144 C145 1.399 . S
C145 C144 1.399 . S
C145 C146 1.381 . S
C146 H138 0.930 . S
C146 C142 1.390 . S
C146 C145 1.381 . S
N147 C140 1.286 . S
N147 C143 1.413 . S
H148 C153 0.930 . S
H149 C156 0.930 . S
H150 C158 0.930 . S
H151 C152 1.016 . S
C152 H151 1.016 . S
C152 N159 1.286 1_554 S
C153 H148 0.930 . S
C153 C154 1.397 . S
C153 C155 1.361 . S
C154 C153 1.397 . S
C154 C158 1.390 1_556 S
C155 C153 1.361 . S
C155 C156 1.393 1_556 S
C155 N159 1.413 . S
C156 H149 0.930 . S
C156 C155 1.393 1_554 S
C156 C157 1.399 . S
C157 C156 1.399 . S
C157 C158 1.381 . S
C158 H150 0.930 . S
C158 C154 1.390 1_554 S
C158 C157 1.381 . S
N159 C152 1.286 1_556 S
N159 C155 1.413 . S
H160 C165 0.930 . S
H161 C168 0.930 1_565 S
H162 C170 0.930 . S
H163 C164 1.016 . S
C164 H163 1.016 . S
C164 N171 1.286 . S
C165 H160 0.930 . S
C165 C166 1.397 . S
C165 C167 1.361 1_545 S
C166 C165 1.397 . S
C166 C170 1.390 . S
C167 C165 1.361 1_565 S
C167 C168 1.393 1_565 S
C167 N171 1.413 . S
C168 H161 0.930 1_545 S
C168 C167 1.393 1_545 S
C168 C169 1.399 . S
C169 C168 1.399 . S
C169 C170 1.381 . S
C170 H162 0.930 . S
C170 C166 1.390 . S
C170 C169 1.381 . S
N171 C164 1.286 . S
N171 C167 1.413 . S
H172 C177 0.930 . S
H173 C180 0.930 . S
H174 C182 0.930 . S
H175 C176 1.018 . S
C176 H175 1.018 . S
C176 N183 1.285 1_556 S
C177 H172 0.930 . S
C177 C178 1.397 . S
C177 C179 1.361 . S
C178 C177 1.397 . S
C178 C182 1.390 . S
C179 C177 1.361 . S
C179 C180 1.393 1_554 S
C179 N183 1.413 . S
C180 H173 0.930 . S
C180 C179 1.393 1_556 S
C180 C181 1.399 . S
C181 C180 1.399 . S
C181 C182 1.381 1_556 S
C182 H174 0.930 . S
C182 C178 1.390 . S
C182 C181 1.381 1_554 S
N183 C176 1.285 1_554 S
N183 C179 1.413 . S
C184 C185 1.391 . S
C184 C186 1.394 . S
C184 H200 0.931 . S
C185 C184 1.391 . S
C185 C189 1.376 . S
C186 C184 1.394 . S
C186 C187 1.369 . S
C186 C190 1.531 . S
C187 C186 1.369 . S
C187 C188 1.410 . S
C187 C195 1.503 . S
C188 C187 1.410 . S
C188 C189 1.392 . S
C188 C191 1.511 . S
C189 C185 1.376 . S
C189 C188 1.392 . S
C189 H201 0.929 . S
C190 C186 1.531 . S
C190 H202 0.960 . S
C190 H203 0.962 . S
C190 H204 0.960 . S
C191 C188 1.511 . S
C191 H205 0.961 . S
C191 H206 0.961 . S
C191 H207 0.961 . S
C192 C193 1.370 . S
C192 C194 1.363 . S
C192 H208 0.931 . S
C193 C192 1.370 . S
C193 C197 1.408 . S
C194 C192 1.363 . S
C194 C195 1.370 . S
C194 C198 1.524 . S
C195 C187 1.503 . S
C195 C194 1.370 . S
C195 C196 1.403 . S
C196 C195 1.403 . S
C196 C197 1.404 . S
C196 C199 1.539 . S
C197 C193 1.408 . S
C197 C196 1.404 . S
C197 H209 0.930 . S
C198 C194 1.524 . S
C198 H210 0.956 . S
C198 H211 0.961 . S
C198 H212 0.961 . S
C199 C196 1.539 . S
C199 H213 0.958 . S
C199 H214 0.961 . S
C199 H215 0.960 . S
H200 C184 0.931 . S
H201 C189 0.929 . S
H202 C190 0.960 . S
H203 C190 0.962 . S
H204 C190 0.960 . S
H205 C191 0.961 . S
H206 C191 0.961 . S
H207 C191 0.961 . S
H208 C192 0.931 . S
H209 C197 0.930 . S
H210 C198 0.956 . S
H211 C198 0.961 . S
H212 C198 0.961 . S
H213 C199 0.958 . S
H214 C199 0.961 . S
H215 C199 0.960 . S
C216 C217 1.391 . S
C216 C218 1.394 . S
C216 H232 0.931 . S
C217 C216 1.391 . S
C217 C221 1.376 . S
C218 C216 1.394 . S
C218 C219 1.369 . S
C218 C222 1.531 . S
C219 C218 1.369 . S
C219 C220 1.410 . S
C219 C227 1.503 . S
C220 C219 1.410 . S
C220 C221 1.392 . S
C220 C223 1.511 . S
C221 C217 1.376 . S
C221 C220 1.392 . S
C221 H233 0.929 . S
C222 C218 1.531 . S
C222 H234 0.960 . S
C222 H235 0.962 . S
C222 H236 0.960 . S
C223 C220 1.511 . S
C223 H237 0.961 . S
C223 H238 0.961 . S
C223 H239 0.961 . S
C224 C225 1.370 . S
C224 C226 1.363 . S
C224 H240 0.931 . S
C225 C224 1.370 . S
C225 C229 1.408 . S
C226 C224 1.363 . S
C226 C227 1.370 . S
C226 C230 1.524 . S
C227 C219 1.503 . S
C227 C226 1.370 . S
C227 C228 1.403 . S
C228 C227 1.403 . S
C228 C229 1.404 . S
C228 C231 1.539 . S
C229 C225 1.408 . S
C229 C228 1.404 . S
C229 H241 0.930 . S
C230 C226 1.524 . S
C230 H242 0.956 . S
C230 H243 0.961 . S
C230 H244 0.961 . S
C231 C228 1.539 . S
C231 H245 0.958 . S
C231 H246 0.961 . S
C231 H247 0.960 . S
H232 C216 0.931 . S
H233 C221 0.929 . S
H234 C222 0.960 . S
H235 C222 0.962 . S
H236 C222 0.960 . S
H237 C223 0.961 . S
H238 C223 0.961 . S
H239 C223 0.961 . S
H240 C224 0.931 . S
H241 C229 0.930 . S
H242 C230 0.956 . S
H243 C230 0.961 . S
H244 C230 0.961 . S
H245 C231 0.958 . S
H246 C231 0.961 . S
H247 C231 0.960 . S
C248 C249 1.391 . S
C248 C250 1.394 . S
C248 H264 0.931 . S
C249 C248 1.391 . S
C249 C253 1.376 . S
C250 C248 1.394 . S
C250 C251 1.369 . S
C250 C254 1.531 . S
C251 C250 1.369 . S
C251 C252 1.410 . S
C251 C259 1.503 . S
C252 C251 1.410 . S
C252 C253 1.392 . S
C252 C255 1.511 . S
C253 C249 1.376 . S
C253 C252 1.392 . S
C253 H265 0.929 . S
C254 C250 1.531 . S
C254 H266 0.960 . S
C254 H267 0.962 . S
C254 H268 0.960 . S
C255 C252 1.511 . S
C255 H269 0.961 . S
C255 H270 0.961 . S
C255 H271 0.961 . S
C256 C257 1.370 . S
C256 C258 1.363 . S
C256 H272 0.931 . S
C257 C256 1.370 . S
C257 C261 1.408 . S
C258 C256 1.363 . S
C258 C259 1.370 . S
C258 C262 1.524 . S
C259 C251 1.503 . S
C259 C258 1.370 . S
C259 C260 1.403 . S
C260 C259 1.403 . S
C260 C261 1.404 . S
C260 C263 1.539 . S
C261 C257 1.408 . S
C261 C260 1.404 . S
C261 H273 0.930 . S
C262 C258 1.524 . S
C262 H274 0.956 . S
C262 H275 0.961 . S
C262 H276 0.961 . S
C263 C260 1.539 . S
C263 H277 0.958 . S
C263 H278 0.961 . S
C263 H279 0.960 . S
H264 C248 0.931 . S
H265 C253 0.929 . S
H266 C254 0.960 . S
H267 C254 0.962 . S
H268 C254 0.960 . S
H269 C255 0.961 . S
H270 C255 0.961 . S
H271 C255 0.961 . S
H272 C256 0.931 . S
H273 C261 0.930 . S
H274 C262 0.956 . S
H275 C262 0.961 . S
H276 C262 0.961 . S
H277 C263 0.958 . S
H278 C263 0.961 . S
H279 C263 0.960 . S
C280 C281 1.391 . S
C280 C282 1.394 . S
C280 H296 0.931 . S
C281 C280 1.391 . S
C281 C285 1.376 . S
C282 C280 1.394 . S
C282 C283 1.369 . S
C282 C286 1.531 . S
C283 C282 1.369 . S
C283 C284 1.410 . S
C283 C291 1.503 . S
C284 C283 1.410 . S
C284 C285 1.392 . S
C284 C287 1.511 . S
C285 C281 1.376 . S
C285 C284 1.392 . S
C285 H297 0.929 . S
C286 C282 1.531 . S
C286 H298 0.960 . S
C286 H299 0.962 . S
C286 H300 0.960 . S
C287 C284 1.511 . S
C287 H301 0.961 . S
C287 H302 0.961 . S
C287 H303 0.961 . S
C288 C289 1.370 . S
C288 C290 1.363 . S
C288 H304 0.931 . S
C289 C288 1.370 . S
C289 C293 1.408 . S
C290 C288 1.363 . S
C290 C291 1.370 . S
C290 C294 1.524 . S
C291 C283 1.503 . S
C291 C290 1.370 . S
C291 C292 1.403 . S
C292 C291 1.403 . S
C292 C293 1.404 . S
C292 C295 1.539 . S
C293 C289 1.408 . S
C293 C292 1.404 . S
C293 H305 0.930 . S
C294 C290 1.524 . S
C294 H306 0.956 . S
C294 H307 0.961 . S
C294 H308 0.961 . S
C295 C292 1.539 . S
C295 H309 0.958 . S
C295 H310 0.961 . S
C295 H311 0.960 . S
H296 C280 0.931 . S
H297 C285 0.929 . S
H298 C286 0.960 . S
H299 C286 0.962 . S
H300 C286 0.960 . S
H301 C287 0.961 . S
H302 C287 0.961 . S
H303 C287 0.961 . S
H304 C288 0.931 . S
H305 C293 0.930 . S
H306 C294 0.956 . S
H307 C294 0.961 . S
H308 C294 0.961 . S
H309 C295 0.958 . S
H310 C295 0.961 . S
H311 C295 0.960 . S
C312 C313 1.391 . S
C312 C314 1.394 . S
C312 H328 0.931 . S
C313 C312 1.391 . S
C313 C317 1.376 . S
C314 C312 1.394 . S
C314 C315 1.369 . S
C314 C318 1.531 . S
C315 C314 1.369 . S
C315 C316 1.410 . S
C315 C323 1.503 . S
C316 C315 1.410 . S
C316 C317 1.392 . S
C316 C319 1.511 . S
C317 C313 1.376 . S
C317 C316 1.392 . S
C317 H329 0.929 . S
C318 C314 1.531 . S
C318 H330 0.960 . S
C318 H331 0.962 . S
C318 H332 0.960 . S
C319 C316 1.511 . S
C319 H333 0.961 . S
C319 H334 0.961 . S
C319 H335 0.961 . S
C320 C321 1.370 . S
C320 C322 1.363 . S
C320 H336 0.931 . S
C321 C320 1.370 . S
C321 C325 1.408 . S
C322 C320 1.363 . S
C322 C323 1.370 . S
C322 C326 1.524 . S
C323 C315 1.503 . S
C323 C322 1.370 . S
C323 C324 1.403 . S
C324 C323 1.403 . S
C324 C325 1.404 . S
C324 C327 1.539 . S
C325 C321 1.408 . S
C325 C324 1.404 . S
C325 H337 0.930 . S
C326 C322 1.524 . S
C326 H338 0.956 . S
C326 H339 0.961 . S
C326 H340 0.961 . S
C327 C324 1.539 . S
C327 H341 0.958 . S
C327 H342 0.961 . S
C327 H343 0.960 . S
H328 C312 0.931 . S
H329 C317 0.929 . S
H330 C318 0.960 . S
H331 C318 0.962 . S
H332 C318 0.960 . S
H333 C319 0.961 . S
H334 C319 0.961 . S
H335 C319 0.961 . S
H336 C320 0.931 . S
H337 C325 0.930 . S
H338 C326 0.956 . S
H339 C326 0.961 . S
H340 C326 0.961 . S
H341 C327 0.958 . S
H342 C327 0.961 . S
H343 C327 0.960 . S
C344 C345 1.391 . S
C344 C346 1.394 . S
C344 H360 0.931 . S
C345 C344 1.391 . S
C345 C349 1.376 . S
C346 C344 1.394 . S
C346 C347 1.369 . S
C346 C350 1.531 . S
C347 C346 1.369 . S
C347 C348 1.410 . S
C347 C355 1.503 . S
C348 C347 1.410 . S
C348 C349 1.392 . S
C348 C351 1.511 . S
C349 C345 1.376 . S
C349 C348 1.392 . S
C349 H361 0.929 . S
C350 C346 1.531 . S
C350 H362 0.960 . S
C350 H363 0.962 . S
C350 H364 0.960 . S
C351 C348 1.511 . S
C351 H365 0.961 . S
C351 H366 0.961 . S
C351 H367 0.961 . S
C352 C353 1.370 . S
C352 C354 1.363 . S
C352 H368 0.931 . S
C353 C352 1.370 . S
C353 C357 1.408 . S
C354 C352 1.363 . S
C354 C355 1.370 . S
C354 C358 1.524 . S
C355 C347 1.503 . S
C355 C354 1.370 . S
C355 C356 1.403 . S
C356 C355 1.403 . S
C356 C357 1.404 . S
C356 C359 1.539 . S
C357 C353 1.408 . S
C357 C356 1.404 . S
C357 H369 0.930 . S
C358 C354 1.524 . S
C358 H370 0.956 . S
C358 H371 0.961 . S
C358 H372 0.961 . S
C359 C356 1.539 . S
C359 H373 0.958 . S
C359 H374 0.961 . S
C359 H375 0.960 . S
H360 C344 0.931 . S
H361 C349 0.929 . S
H362 C350 0.960 . S
H363 C350 0.962 . S
H364 C350 0.960 . S
H365 C351 0.961 . S
H366 C351 0.961 . S
H367 C351 0.961 . S
H368 C352 0.931 . S
H369 C357 0.930 . S
H370 C358 0.956 . S
H371 C358 0.961 . S
H372 C358 0.961 . S
H373 C359 0.958 . S
H374 C359 0.961 . S
H375 C359 0.960 . S
C376 C377 1.391 . S
C376 C378 1.394 . S
C376 H392 0.931 . S
C377 C376 1.391 . S
C377 C381 1.376 . S
C378 C376 1.394 . S
C378 C379 1.369 . S
C378 C382 1.531 . S
C379 C378 1.369 . S
C379 C380 1.410 . S
C379 C387 1.503 . S
C380 C379 1.410 . S
C380 C381 1.392 . S
C380 C383 1.511 . S
C381 C377 1.376 . S
C381 C380 1.392 . S
C381 H393 0.929 . S
C382 C378 1.531 . S
C382 H394 0.960 . S
C382 H395 0.962 . S
C382 H396 0.960 . S
C383 C380 1.511 . S
C383 H397 0.961 . S
C383 H398 0.961 . S
C383 H399 0.961 . S
C384 C385 1.370 . S
C384 C386 1.363 . S
C384 H400 0.931 . S
C385 C384 1.370 . S
C385 C389 1.408 . S
C386 C384 1.363 . S
C386 C387 1.370 . S
C386 C390 1.524 . S
C387 C379 1.503 . S
C387 C386 1.370 . S
C387 C388 1.403 . S
C388 C387 1.403 . S
C388 C389 1.404 . S
C388 C391 1.539 . S
C389 C385 1.408 . S
C389 C388 1.404 . S
C389 H401 0.930 . S
C390 C386 1.524 . S
C390 H402 0.956 . S
C390 H403 0.961 . S
C390 H404 0.961 . S
C391 C388 1.539 . S
C391 H405 0.958 . S
C391 H406 0.961 . S
C391 H407 0.960 . S
H392 C376 0.931 . S
H393 C381 0.929 . S
H394 C382 0.960 . S
H395 C382 0.962 . S
H396 C382 0.960 . S
H397 C383 0.961 . S
H398 C383 0.961 . S
H399 C383 0.961 . S
H400 C384 0.931 . S
H401 C389 0.930 . S
H402 C390 0.956 . S
H403 C390 0.961 . S
H404 C390 0.961 . S
H405 C391 0.958 . S
H406 C391 0.961 . S
H407 C391 0.960 . S
C408 C409 1.391 . S
C408 C410 1.394 . S
C408 H424 0.931 . S
C409 C408 1.391 . S
C409 C413 1.376 . S
C410 C408 1.394 . S
C410 C411 1.369 . S
C410 C414 1.531 . S
C411 C410 1.369 . S
C411 C412 1.410 . S
C411 C419 1.503 . S
C412 C411 1.410 . S
C412 C413 1.392 . S
C412 C415 1.511 . S
C413 C409 1.376 . S
C413 C412 1.392 . S
C413 H425 0.929 . S
C414 C410 1.531 . S
C414 H426 0.960 . S
C414 H427 0.962 . S
C414 H428 0.960 . S
C415 C412 1.511 . S
C415 H429 0.961 . S
C415 H430 0.961 . S
C415 H431 0.961 . S
C416 C417 1.370 . S
C416 C418 1.363 . S
C416 H432 0.931 . S
C417 C416 1.370 . S
C417 C421 1.408 . S
C418 C416 1.363 . S
C418 C419 1.370 . S
C418 C422 1.524 . S
C419 C411 1.503 . S
C419 C418 1.370 . S
C419 C420 1.403 . S
C420 C419 1.403 . S
C420 C421 1.404 . S
C420 C423 1.539 . S
C421 C417 1.408 . S
C421 C420 1.404 . S
C421 H433 0.930 . S
C422 C418 1.524 . S
C422 H434 0.956 . S
C422 H435 0.961 . S
C422 H436 0.961 . S
C423 C420 1.539 . S
C423 H437 0.958 . S
C423 H438 0.961 . S
C423 H439 0.960 . S
H424 C408 0.931 . S
H425 C413 0.929 . S
H426 C414 0.960 . S
H427 C414 0.962 . S
H428 C414 0.960 . S
H429 C415 0.961 . S
H430 C415 0.961 . S
H431 C415 0.961 . S
H432 C416 0.931 . S
H433 C421 0.930 . S
H434 C422 0.956 . S
H435 C422 0.961 . S
H436 C422 0.961 . S
H437 C423 0.958 . S
H438 C423 0.961 . S
H439 C423 0.960 . S
C440 C441 1.391 . S
C440 C442 1.394 . S
C440 H456 0.931 . S
C441 C440 1.391 . S
C441 C445 1.376 . S
C442 C440 1.394 . S
C442 C443 1.369 . S
C442 C446 1.531 . S
C443 C442 1.369 . S
C443 C444 1.410 . S
C443 C451 1.503 . S
C444 C443 1.410 . S
C444 C445 1.392 . S
C444 C447 1.511 . S
C445 C441 1.376 . S
C445 C444 1.392 . S
C445 H457 0.929 . S
C446 C442 1.531 . S
C446 H458 0.960 . S
C446 H459 0.962 . S
C446 H460 0.960 . S
C447 C444 1.511 . S
C447 H461 0.961 . S
C447 H462 0.961 . S
C447 H463 0.961 . S
C448 C449 1.370 . S
C448 C450 1.363 . S
C448 H464 0.931 . S
C449 C448 1.370 . S
C449 C453 1.408 . S
C450 C448 1.363 . S
C450 C451 1.370 . S
C450 C454 1.524 . S
C451 C443 1.503 . S
C451 C450 1.370 . S
C451 C452 1.403 . S
C452 C451 1.403 . S
C452 C453 1.404 . S
C452 C455 1.539 . S
C453 C449 1.408 . S
C453 C452 1.404 . S
C453 H465 0.930 . S
C454 C450 1.524 . S
C454 H466 0.956 . S
C454 H467 0.961 . S
C454 H468 0.961 . S
C455 C452 1.539 . S
C455 H469 0.958 . S
C455 H470 0.961 . S
C455 H471 0.960 . S
H456 C440 0.931 . S
H457 C445 0.929 . S
H458 C446 0.960 . S
H459 C446 0.962 . S
H460 C446 0.960 . S
H461 C447 0.961 . S
H462 C447 0.961 . S
H463 C447 0.961 . S
H464 C448 0.931 . S
H465 C453 0.930 . S
H466 C454 0.956 . S
H467 C454 0.961 . S
H468 C454 0.961 . S
H469 C455 0.958 . S
H470 C455 0.961 . S
H471 C455 0.960 . S
C472 C473 1.391 . S
C472 C474 1.394 . S
C472 H488 0.931 . S
C473 C472 1.391 . S
C473 C477 1.376 . S
C474 C472 1.394 . S
C474 C475 1.369 . S
C474 C478 1.531 . S
C475 C474 1.369 . S
C475 C476 1.410 . S
C475 C483 1.503 . S
C476 C475 1.410 . S
C476 C477 1.392 . S
C476 C479 1.511 . S
C477 C473 1.376 . S
C477 C476 1.392 . S
C477 H489 0.929 . S
C478 C474 1.531 . S
C478 H490 0.960 . S
C478 H491 0.962 . S
C478 H492 0.960 . S
C479 C476 1.511 . S
C479 H493 0.961 . S
C479 H494 0.961 . S
C479 H495 0.961 . S
C480 C481 1.370 . S
C480 C482 1.363 . S
C480 H496 0.931 . S
C481 C480 1.370 . S
C481 C485 1.408 . S
C482 C480 1.363 . S
C482 C483 1.370 . S
C482 C486 1.524 . S
C483 C475 1.503 . S
C483 C482 1.370 . S
C483 C484 1.403 . S
C484 C483 1.403 . S
C484 C485 1.404 . S
C484 C487 1.539 . S
C485 C481 1.408 . S
C485 C484 1.404 . S
C485 H497 0.930 . S
C486 C482 1.524 . S
C486 H498 0.956 . S
C486 H499 0.961 . S
C486 H500 0.961 . S
C487 C484 1.539 . S
C487 H501 0.958 . S
C487 H502 0.961 . S
C487 H503 0.960 . S
H488 C472 0.931 . S
H489 C477 0.929 . S
H490 C478 0.960 . S
H491 C478 0.962 . S
H492 C478 0.960 . S
H493 C479 0.961 . S
H494 C479 0.961 . S
H495 C479 0.961 . S
H496 C480 0.931 . S
H497 C485 0.930 . S
H498 C486 0.956 . S
H499 C486 0.961 . S
H500 C486 0.961 . S
H501 C487 0.958 . S
H502 C487 0.961 . S
H503 C487 0.960 . S
C504 C505 1.391 . S
C504 C506 1.394 . S
C504 H520 0.931 . S
C505 C504 1.391 . S
C505 C509 1.376 . S
C506 C504 1.394 . S
C506 C507 1.369 . S
C506 C510 1.531 . S
C507 C506 1.369 . S
C507 C508 1.410 . S
C507 C515 1.503 . S
C508 C507 1.410 . S
C508 C509 1.392 . S
C508 C511 1.511 . S
C509 C505 1.376 . S
C509 C508 1.392 . S
C509 H521 0.929 . S
C510 C506 1.531 . S
C510 H522 0.960 . S
C510 H523 0.962 . S
C510 H524 0.960 . S
C511 C508 1.511 . S
C511 H525 0.961 . S
C511 H526 0.961 . S
C511 H527 0.961 . S
C512 C513 1.370 . S
C512 C514 1.363 . S
C512 H528 0.931 . S
C513 C512 1.370 . S
C513 C517 1.408 . S
C514 C512 1.363 . S
C514 C515 1.370 . S
C514 C518 1.524 . S
C515 C507 1.503 . S
C515 C514 1.370 . S
C515 C516 1.403 . S
C516 C515 1.403 . S
C516 C517 1.404 . S
C516 C519 1.539 . S
C517 C513 1.408 . S
C517 C516 1.404 . S
C517 H529 0.930 . S
C518 C514 1.524 . S
C518 H530 0.956 . S
C518 H531 0.961 . S
C518 H532 0.961 . S
C519 C516 1.539 . S
C519 H533 0.958 . S
C519 H534 0.961 . S
C519 H535 0.960 . S
H520 C504 0.931 . S
H521 C509 0.929 . S
H522 C510 0.960 . S
H523 C510 0.962 . S
H524 C510 0.960 . S
H525 C511 0.961 . S
H526 C511 0.961 . S
H527 C511 0.961 . S
H528 C512 0.931 . S
H529 C517 0.930 . S
H530 C518 0.956 . S
H531 C518 0.961 . S
H532 C518 0.961 . S
H533 C519 0.958 . S
H534 C519 0.961 . S
H535 C519 0.960 . S
C536 C537 1.391 . S
C536 C538 1.394 . S
C536 H552 0.931 . S
C537 C536 1.391 . S
C537 C541 1.376 . S
C538 C536 1.394 . S
C538 C539 1.369 . S
C538 C542 1.531 . S
C539 C538 1.369 . S
C539 C540 1.410 . S
C539 C547 1.503 . S
C540 C539 1.410 . S
C540 C541 1.392 . S
C540 C543 1.511 . S
C541 C537 1.376 . S
C541 C540 1.392 . S
C541 H553 0.929 . S
C542 C538 1.531 . S
C542 H554 0.960 . S
C542 H555 0.962 . S
C542 H556 0.960 . S
C543 C540 1.511 . S
C543 H557 0.961 . S
C543 H558 0.961 . S
C543 H559 0.961 . S
C544 C545 1.370 . S
C544 C546 1.363 . S
C544 H560 0.931 . S
C545 C544 1.370 . S
C545 C549 1.408 . S
C546 C544 1.363 . S
C546 C547 1.370 . S
C546 C550 1.524 . S
C547 C539 1.503 . S
C547 C546 1.370 . S
C547 C548 1.403 . S
C548 C547 1.403 . S
C548 C549 1.404 . S
C548 C551 1.539 . S
C549 C545 1.408 . S
C549 C548 1.404 . S
C549 H561 0.930 . S
C550 C546 1.524 . S
C550 H562 0.956 . S
C550 H563 0.961 . S
C550 H564 0.961 . S
C551 C548 1.539 . S
C551 H565 0.958 . S
C551 H566 0.961 . S
C551 H567 0.960 . S
H552 C536 0.931 . S
H553 C541 0.929 . S
H554 C542 0.960 . S
H555 C542 0.962 . S
H556 C542 0.960 . S
H557 C543 0.961 . S
H558 C543 0.961 . S
H559 C543 0.961 . S
H560 C544 0.931 . S
H561 C549 0.930 . S
H562 C550 0.956 . S
H563 C550 0.961 . S
H564 C550 0.961 . S
H565 C551 0.958 . S
H566 C551 0.961 . S
H567 C551 0.960 . S
C568 C569 1.391 . S
C568 C570 1.394 . S
C568 H584 0.931 . S
C569 C568 1.391 . S
C569 C573 1.376 . S
C570 C568 1.394 . S
C570 C571 1.369 . S
C570 C574 1.531 . S
C571 C570 1.369 . S
C571 C572 1.410 . S
C571 C579 1.503 . S
C572 C571 1.410 . S
C572 C573 1.392 . S
C572 C575 1.511 . S
C573 C569 1.376 . S
C573 C572 1.392 . S
C573 H585 0.929 . S
C574 C570 1.531 . S
C574 H586 0.960 . S
C574 H587 0.962 . S
C574 H588 0.960 . S
C575 C572 1.511 . S
C575 H589 0.961 . S
C575 H590 0.961 . S
C575 H591 0.961 . S
C576 C577 1.370 . S
C576 C578 1.363 . S
C576 H592 0.931 . S
C577 C576 1.370 . S
C577 C581 1.408 . S
C578 C576 1.363 . S
C578 C579 1.370 . S
C578 C582 1.524 . S
C579 C571 1.503 . S
C579 C578 1.370 . S
C579 C580 1.403 . S
C580 C579 1.403 . S
C580 C581 1.404 . S
C580 C583 1.539 . S
C581 C577 1.408 . S
C581 C580 1.404 . S
C581 H593 0.930 . S
C582 C578 1.524 . S
C582 H594 0.956 . S
C582 H595 0.961 . S
C582 H596 0.961 . S
C583 C580 1.539 . S
C583 H597 0.958 . S
C583 H598 0.961 . S
C583 H599 0.960 . S
H584 C568 0.931 . S
H585 C573 0.929 . S
H586 C574 0.960 . S
H587 C574 0.962 . S
H588 C574 0.960 . S
H589 C575 0.961 . S
H590 C575 0.961 . S
H591 C575 0.961 . S
H592 C576 0.931 . S
H593 C581 0.930 . S
H594 C582 0.956 . S
H595 C582 0.961 . S
H596 C582 0.961 . S
H597 C583 0.958 . S
H598 C583 0.961 . S
H599 C583 0.960 . S
C600 C601 1.391 . S
C600 C602 1.394 . S
C600 H616 0.931 . S
C601 C600 1.391 . S
C601 C605 1.376 . S
C602 C600 1.394 . S
C602 C603 1.369 . S
C602 C606 1.531 . S
C603 C602 1.369 . S
C603 C604 1.410 . S
C603 C611 1.503 . S
C604 C603 1.410 . S
C604 C605 1.392 . S
C604 C607 1.511 . S
C605 C601 1.376 . S
C605 C604 1.392 . S
C605 H617 0.929 . S
C606 C602 1.531 . S
C606 H618 0.960 . S
C606 H619 0.962 . S
C606 H620 0.960 . S
C607 C604 1.511 . S
C607 H621 0.961 . S
C607 H622 0.961 . S
C607 H623 0.961 . S
C608 C609 1.370 . S
C608 C610 1.363 . S
C608 H624 0.931 . S
C609 C608 1.370 . S
C609 C613 1.408 . S
C610 C608 1.363 . S
C610 C611 1.370 . S
C610 C614 1.524 . S
C611 C603 1.503 . S
C611 C610 1.370 . S
C611 C612 1.403 . S
C612 C611 1.403 . S
C612 C613 1.404 . S
C612 C615 1.539 . S
C613 C609 1.408 . S
C613 C612 1.404 . S
C613 H625 0.930 . S
C614 C610 1.524 . S
C614 H626 0.956 . S
C614 H627 0.961 . S
C614 H628 0.961 . S
C615 C612 1.539 . S
C615 H629 0.958 . S
C615 H630 0.961 . S
C615 H631 0.960 . S
H616 C600 0.931 . S
H617 C605 0.929 . S
H618 C606 0.960 . S
H619 C606 0.962 . S
H620 C606 0.960 . S
H621 C607 0.961 . S
H622 C607 0.961 . S
H623 C607 0.961 . S
H624 C608 0.931 . S
H625 C613 0.930 . S
H626 C614 0.956 . S
H627 C614 0.961 . S
H628 C614 0.961 . S
H629 C615 0.958 . S
H630 C615 0.961 . S
H631 C615 0.960 . S
C632 C633 1.391 . S
C632 C634 1.394 . S
C632 H648 0.931 . S
C633 C632 1.391 . S
C633 C637 1.376 . S
C634 C632 1.394 . S
C634 C635 1.369 . S
C634 C638 1.531 . S
C635 C634 1.369 . S
C635 C636 1.410 . S
C635 C643 1.503 . S
C636 C635 1.410 . S
C636 C637 1.392 . S
C636 C639 1.511 . S
C637 C633 1.376 . S
C637 C636 1.392 . S
C637 H649 0.929 . S
C638 C634 1.531 . S
C638 H650 0.960 . S
C638 H651 0.962 . S
C638 H652 0.960 . S
C639 C636 1.511 . S
C639 H653 0.961 . S
C639 H654 0.961 . S
C639 H655 0.961 . S
C640 C641 1.370 . S
C640 C642 1.363 . S
C640 H656 0.931 . S
C641 C640 1.370 . S
C641 C645 1.408 . S
C642 C640 1.363 . S
C642 C643 1.370 . S
C642 C646 1.524 . S
C643 C635 1.503 . S
C643 C642 1.370 . S
C643 C644 1.403 . S
C644 C643 1.403 . S
C644 C645 1.404 . S
C644 C647 1.539 . S
C645 C641 1.408 . S
C645 C644 1.404 . S
C645 H657 0.930 . S
C646 C642 1.524 . S
C646 H658 0.956 . S
C646 H659 0.961 . S
C646 H660 0.961 . S
C647 C644 1.539 . S
C647 H661 0.958 . S
C647 H662 0.961 . S
C647 H663 0.960 . S
H648 C632 0.931 . S
H649 C637 0.929 . S
H650 C638 0.960 . S
H651 C638 0.962 . S
H652 C638 0.960 . S
H653 C639 0.961 . S
H654 C639 0.961 . S
H655 C639 0.961 . S
H656 C640 0.931 . S
H657 C645 0.930 . S
H658 C646 0.956 . S
H659 C646 0.961 . S
H660 C646 0.961 . S
H661 C647 0.958 . S
H662 C647 0.961 . S
H663 C647 0.960 . S
C664 C665 1.391 . S
C664 C666 1.394 . S
C664 H680 0.931 . S
C665 C664 1.391 . S
C665 C669 1.376 . S
C666 C664 1.394 . S
C666 C667 1.369 . S
C666 C670 1.531 . S
C667 C666 1.369 . S
C667 C668 1.410 . S
C667 C675 1.503 . S
C668 C667 1.410 . S
C668 C669 1.392 . S
C668 C671 1.511 . S
C669 C665 1.376 . S
C669 C668 1.392 . S
C669 H681 0.929 . S
C670 C666 1.531 . S
C670 H682 0.960 . S
C670 H683 0.962 . S
C670 H684 0.960 . S
C671 C668 1.511 . S
C671 H685 0.961 . S
C671 H686 0.961 . S
C671 H687 0.961 . S
C672 C673 1.370 . S
C672 C674 1.363 . S
C672 H688 0.931 . S
C673 C672 1.370 . S
C673 C677 1.408 . S
C674 C672 1.363 . S
C674 C675 1.370 . S
C674 C678 1.524 . S
C675 C667 1.503 . S
C675 C674 1.370 . S
C675 C676 1.403 . S
C676 C675 1.403 . S
C676 C677 1.404 . S
C676 C679 1.539 . S
C677 C673 1.408 . S
C677 C676 1.404 . S
C677 H689 0.930 . S
C678 C674 1.524 . S
C678 H690 0.956 . S
C678 H691 0.961 . S
C678 H692 0.961 . S
C679 C676 1.539 . S
C679 H693 0.958 . S
C679 H694 0.961 . S
C679 H695 0.960 . S
H680 C664 0.931 . S
H681 C669 0.929 . S
H682 C670 0.960 . S
H683 C670 0.962 . S
H684 C670 0.960 . S
H685 C671 0.961 . S
H686 C671 0.961 . S
H687 C671 0.961 . S
H688 C672 0.931 . S
H689 C677 0.930 . S
H690 C678 0.956 . S
H691 C678 0.961 . S
H692 C678 0.961 . S
H693 C679 0.958 . S
H694 C679 0.961 . S
H695 C679 0.960 . S
C696 C697 1.391 1_556 S
C696 C698 1.394 1_556 S
C696 H712 0.931 . S
C697 C696 1.391 1_554 S
C697 C701 1.376 . S
C698 C696 1.394 1_554 S
C698 C699 1.369 . S
C698 C702 1.531 1_554 S
C699 C698 1.369 . S
C699 C700 1.410 . S
C699 C707 1.503 . S
C700 C699 1.410 . S
C700 C701 1.392 . S
C700 C703 1.511 . S
C701 C697 1.376 . S
C701 C700 1.392 . S
C701 H713 0.929 . S
C702 C698 1.531 1_556 S
C702 H714 0.960 1_556 S
C702 H715 0.962 . S
C702 H716 0.960 . S
C703 C700 1.511 . S
C703 H717 0.961 . S
C703 H718 0.961 . S
C703 H719 0.961 . S
C704 C705 1.370 1_556 S
C704 C706 1.363 . S
C704 H720 0.931 . S
C705 C704 1.370 1_554 S
C705 C709 1.408 . S
C706 C704 1.363 . S
C706 C707 1.370 1_556 S
C706 C710 1.524 . S
C707 C699 1.503 . S
C707 C706 1.370 1_554 S
C707 C708 1.403 . S
C708 C707 1.403 . S
C708 C709 1.404 . S
C708 C711 1.539 . S
C709 C705 1.408 . S
C709 C708 1.404 . S
C709 H721 0.930 . S
C710 C706 1.524 . S
C710 H722 0.956 . S
C710 H723 0.961 . S
C710 H724 0.961 . S
C711 C708 1.539 . S
C711 H725 0.958 . S
C711 H726 0.961 . S
C711 H727 0.960 . S
H712 C696 0.931 . S
H713 C701 0.929 . S
H714 C702 0.960 1_554 S
H715 C702 0.962 . S
H716 C702 0.960 . S
H717 C703 0.961 . S
H718 C703 0.961 . S
H719 C703 0.961 . S
H720 C704 0.931 . S
H721 C709 0.930 . S
H722 C710 0.956 . S
H723 C710 0.961 . S
H724 C710 0.961 . S
H725 C711 0.958 . S
H726 C711 0.961 . S
H727 C711 0.960 . S
C728 C729 1.391 . S
C728 C730 1.394 . S
C728 H744 0.931 . S
C729 C728 1.391 . S
C729 C733 1.376 . S
C730 C728 1.394 . S
C730 C731 1.369 . S
C730 C734 1.531 . S
C731 C730 1.369 . S
C731 C732 1.410 . S
C731 C739 1.503 . S
C732 C731 1.410 . S
C732 C733 1.392 . S
C732 C735 1.511 . S
C733 C729 1.376 . S
C733 C732 1.392 . S
C733 H745 0.929 . S
C734 C730 1.531 . S
C734 H746 0.960 . S
C734 H747 0.962 . S
C734 H748 0.960 . S
C735 C732 1.511 . S
C735 H749 0.961 . S
C735 H750 0.961 . S
C735 H751 0.961 . S
C736 C737 1.370 . S
C736 C738 1.363 . S
C736 H752 0.931 . S
C737 C736 1.370 . S
C737 C741 1.408 . S
C738 C736 1.363 . S
C738 C739 1.370 . S
C738 C742 1.524 . S
C739 C731 1.503 . S
C739 C738 1.370 . S
C739 C740 1.403 . S
C740 C739 1.403 . S
C740 C741 1.404 . S
C740 C743 1.539 . S
C741 C737 1.408 . S
C741 C740 1.404 . S
C741 H753 0.930 . S
C742 C738 1.524 . S
C742 H754 0.956 . S
C742 H755 0.961 . S
C742 H756 0.961 . S
C743 C740 1.539 . S
C743 H757 0.958 . S
C743 H758 0.961 . S
C743 H759 0.960 . S
H744 C728 0.931 . S
H745 C733 0.929 . S
H746 C734 0.960 . S
H747 C734 0.962 . S
H748 C734 0.960 . S
H749 C735 0.961 . S
H750 C735 0.961 . S
H751 C735 0.961 . S
H752 C736 0.931 . S
H753 C741 0.930 . S
H754 C742 0.956 . S
H755 C742 0.961 . S
H756 C742 0.961 . S
H757 C743 0.958 . S
H758 C743 0.961 . S
H759 C743 0.960 . S
C760 C761 1.391 1_556 S
C760 C762 1.394 . S
C760 H776 0.931 . S
C761 C760 1.391 1_554 S
C761 C765 1.376 . S
C762 C760 1.394 . S
C762 C763 1.369 . S
C762 C766 1.531 . S
C763 C762 1.369 . S
C763 C764 1.410 1_556 S
C763 C771 1.504 . S
C764 C763 1.410 1_554 S
C764 C765 1.392 . S
C764 C767 1.511 . S
C765 C761 1.376 . S
C765 C764 1.392 . S
C765 H777 0.929 . S
C766 C762 1.531 . S
C766 H778 0.960 . S
C766 H779 0.962 1_556 S
C766 H780 0.960 . S
C767 C764 1.511 . S
C767 H781 0.961 . S
C767 H782 0.961 . S
C767 H783 0.961 1_554 S
C768 C769 1.370 . S
C768 C770 1.363 . S
C768 H784 0.931 . S
C769 C768 1.370 . S
C769 C773 1.408 1_554 S
C770 C768 1.363 . S
C770 C771 1.360 1_554 S
C770 C774 1.524 . S
C771 C763 1.504 . S
C771 C770 1.360 1_556 S
C771 C772 1.413 . S
C772 C771 1.413 . S
C772 C773 1.404 . S
C772 C775 1.539 . S
C773 C769 1.408 1_556 S
C773 C772 1.404 . S
C773 H785 0.930 . S
C774 C770 1.524 . S
C774 H786 0.956 . S
C774 H787 0.961 . S
C774 H788 0.961 . S
C775 C772 1.539 . S
C775 H789 0.958 . S
C775 H790 0.961 . S
C775 H791 0.960 . S
H776 C760 0.931 . S
H777 C765 0.929 . S
H778 C766 0.960 . S
H779 C766 0.962 1_554 S
H780 C766 0.960 . S
H781 C767 0.961 . S
H782 C767 0.961 . S
H783 C767 0.961 1_556 S
H784 C768 0.931 . S
H785 C773 0.930 . S
H786 C774 0.956 . S
H787 C774 0.961 . S
H788 C774 0.961 . S
H789 C775 0.958 . S
H790 C775 0.961 . S
H791 C775 0.960 . S
C792 C793 1.391 . S
C792 C794 1.394 . S
C792 H808 0.931 . S
C793 C792 1.391 . S
C793 C797 1.376 . S
C794 C792 1.394 . S
C794 C795 1.369 . S
C794 C798 1.531 . S
C795 C794 1.369 . S
C795 C796 1.410 . S
C795 C803 1.503 . S
C796 C795 1.410 . S
C796 C797 1.392 . S
C796 C799 1.511 . S
C797 C793 1.376 . S
C797 C796 1.392 . S
C797 H809 0.929 . S
C798 C794 1.531 . S
C798 H810 0.960 . S
C798 H811 0.962 . S
C798 H812 0.960 . S
C799 C796 1.511 . S
C799 H813 0.961 . S
C799 H814 0.961 . S
C799 H815 0.961 . S
C800 C801 1.370 . S
C800 C802 1.363 . S
C800 H816 0.931 . S
C801 C800 1.370 . S
C801 C805 1.408 . S
C802 C800 1.363 . S
C802 C803 1.370 . S
C802 C806 1.524 . S
C803 C795 1.503 . S
C803 C802 1.370 . S
C803 C804 1.403 . S
C804 C803 1.403 . S
C804 C805 1.404 . S
C804 C807 1.539 . S
C805 C801 1.408 . S
C805 C804 1.404 . S
C805 H817 0.930 . S
C806 C802 1.524 . S
C806 H818 0.956 . S
C806 H819 0.961 . S
C806 H820 0.961 . S
C807 C804 1.539 . S
C807 H821 0.958 . S
C807 H822 0.961 . S
C807 H823 0.960 . S
H808 C792 0.931 . S
H809 C797 0.929 . S
H810 C798 0.960 . S
H811 C798 0.962 . S
H812 C798 0.960 . S
H813 C799 0.961 . S
H814 C799 0.961 . S
H815 C799 0.961 . S
H816 C800 0.931 . S
H817 C805 0.930 . S
H818 C806 0.956 . S
H819 C806 0.961 . S
H820 C806 0.961 . S
H821 C807 0.958 . S
H822 C807 0.961 . S
H823 C807 0.960 . S
C824 C825 1.391 . S
C824 C826 1.394 . S
C824 H840 0.931 . S
C825 C824 1.391 . S
C825 C829 1.376 . S
C826 C824 1.394 . S
C826 C827 1.369 . S
C826 C830 1.531 . S
C827 C826 1.369 . S
C827 C828 1.410 . S
C827 C835 1.503 . S
C828 C827 1.410 . S
C828 C829 1.392 . S
C828 C831 1.511 . S
C829 C825 1.376 . S
C829 C828 1.392 . S
C829 H841 0.929 . S
C830 C826 1.531 . S
C830 H842 0.960 . S
C830 H843 0.962 . S
C830 H844 0.960 . S
C831 C828 1.511 . S
C831 H845 0.961 . S
C831 H846 0.961 . S
C831 H847 0.961 . S
C832 C833 1.370 . S
C832 C834 1.363 . S
C832 H848 0.931 . S
C833 C832 1.370 . S
C833 C837 1.408 . S
C834 C832 1.363 . S
C834 C835 1.370 . S
C834 C838 1.524 . S
C835 C827 1.503 . S
C835 C834 1.370 . S
C835 C836 1.403 . S
C836 C835 1.403 . S
C836 C837 1.404 . S
C836 C839 1.539 . S
C837 C833 1.408 . S
C837 C836 1.404 . S
C837 H849 0.930 . S
C838 C834 1.524 . S
C838 H850 0.956 . S
C838 H851 0.961 . S
C838 H852 0.961 . S
C839 C836 1.539 . S
C839 H853 0.958 . S
C839 H854 0.961 . S
C839 H855 0.960 . S
H840 C824 0.931 . S
H841 C829 0.929 . S
H842 C830 0.960 . S
H843 C830 0.962 . S
H844 C830 0.960 . S
H845 C831 0.961 . S
H846 C831 0.961 . S
H847 C831 0.961 . S
H848 C832 0.931 . S
H849 C837 0.930 . S
H850 C838 0.956 . S
H851 C838 0.961 . S
H852 C838 0.961 . S
H853 C839 0.958 . S
H854 C839 0.961 . S
H855 C839 0.960 . S
C856 C857 1.391 . S
C856 C858 1.394 . S
C856 H872 0.931 . S
C857 C856 1.391 . S
C857 C861 1.376 1_554 S
C858 C856 1.394 . S
C858 C859 1.369 . S
C858 C862 1.531 . S
C859 C858 1.369 . S
C859 C860 1.410 1_554 S
C859 C867 1.503 . S
C860 C859 1.410 1_556 S
C860 C861 1.392 . S
C860 C863 1.511 . S
C861 C857 1.376 1_556 S
C861 C860 1.392 . S
C861 H873 0.929 . S
C862 C858 1.531 . S
C862 H874 0.960 . S
C862 H875 0.962 . S
C862 H876 0.960 . S
C863 C860 1.511 . S
C863 H877 0.961 . S
C863 H878 0.961 . S
C863 H879 0.961 1_556 S
C864 C865 1.370 1_556 S
C864 C866 1.363 . S
C864 H880 0.931 . S
C865 C864 1.370 1_554 S
C865 C869 1.408 . S
C866 C864 1.363 . S
C866 C867 1.370 1_556 S
C866 C870 1.524 . S
C867 C859 1.503 . S
C867 C866 1.370 1_554 S
C867 C868 1.403 . S
C868 C867 1.403 . S
C868 C869 1.404 . S
C868 C871 1.539 . S
C869 C865 1.408 . S
C869 C868 1.404 . S
C869 H881 0.930 . S
C870 C866 1.524 . S
C870 H882 0.956 . S
C870 H883 0.961 . S
C870 H884 0.961 . S
C871 C868 1.539 . S
C871 H885 0.958 . S
C871 H886 0.961 . S
C871 H887 0.960 . S
H872 C856 0.931 . S
H873 C861 0.929 . S
H874 C862 0.960 . S
H875 C862 0.962 . S
H876 C862 0.960 . S
H877 C863 0.961 . S
H878 C863 0.961 . S
H879 C863 0.961 1_554 S
H880 C864 0.931 . S
H881 C869 0.930 . S
H882 C870 0.956 . S
H883 C870 0.961 . S
H884 C870 0.961 . S
H885 C871 0.958 . S
H886 C871 0.961 . S
H887 C871 0.960 . S
C888 C889 1.391 . S
C888 C890 1.394 . S
C888 H904 0.931 . S
C889 C888 1.391 . S
C889 C893 1.376 . S
C890 C888 1.394 . S
C890 C891 1.369 . S
C890 C894 1.531 . S
C891 C890 1.369 . S
C891 C892 1.410 . S
C891 C899 1.503 . S
C892 C891 1.410 . S
C892 C893 1.392 . S
C892 C895 1.511 . S
C893 C889 1.376 . S
C893 C892 1.392 . S
C893 H905 0.929 . S
C894 C890 1.531 . S
C894 H906 0.960 . S
C894 H907 0.962 . S
C894 H908 0.960 . S
C895 C892 1.511 . S
C895 H909 0.961 . S
C895 H910 0.961 . S
C895 H911 0.961 . S
C896 C897 1.370 . S
C896 C898 1.363 . S
C896 H912 0.931 . S
C897 C896 1.370 . S
C897 C901 1.408 . S
C898 C896 1.363 . S
C898 C899 1.370 . S
C898 C902 1.524 . S
C899 C891 1.503 . S
C899 C898 1.370 . S
C899 C900 1.403 . S
C900 C899 1.403 . S
C900 C901 1.404 . S
C900 C903 1.539 . S
C901 C897 1.408 . S
C901 C900 1.404 . S
C901 H913 0.930 . S
C902 C898 1.524 . S
C902 H914 0.956 . S
C902 H915 0.961 . S
C902 H916 0.961 . S
C903 C900 1.539 . S
C903 H917 0.958 . S
C903 H918 0.961 . S
C903 H919 0.960 . S
H904 C888 0.931 . S
H905 C893 0.929 . S
H906 C894 0.960 . S
H907 C894 0.962 . S
H908 C894 0.960 . S
H909 C895 0.961 . S
H910 C895 0.961 . S
H911 C895 0.961 . S
H912 C896 0.931 . S
H913 C901 0.930 . S
H914 C902 0.956 . S
H915 C902 0.961 . S
H916 C902 0.961 . S
H917 C903 0.958 . S
H918 C903 0.961 . S
H919 C903 0.960 . S
C920 C921 1.391 1_556 S
C920 C922 1.394 . S
C920 H936 0.931 . S
C921 C920 1.391 1_554 S
C921 C925 1.376 . S
C922 C920 1.394 . S
C922 C923 1.369 . S
C922 C926 1.531 . S
C923 C922 1.369 . S
C923 C924 1.410 1_556 S
C923 C931 1.503 . S
C924 C923 1.410 1_554 S
C924 C925 1.392 . S
C924 C927 1.511 . S
C925 C921 1.376 . S
C925 C924 1.392 . S
C925 H937 0.929 . S
C926 C922 1.531 . S
C926 H938 0.960 . S
C926 H939 0.962 1_556 S
C926 H940 0.960 . S
C927 C924 1.511 . S
C927 H941 0.961 . S
C927 H942 0.961 . S
C927 H943 0.961 1_554 S
C928 C929 1.370 . S
C928 C930 1.363 . S
C928 H944 0.931 . S
C929 C928 1.370 . S
C929 C933 1.408 1_554 S
C930 C928 1.363 . S
C930 C931 1.370 1_554 S
C930 C934 1.524 . S
C931 C923 1.503 . S
C931 C930 1.370 1_556 S
C931 C932 1.403 . S
C932 C931 1.403 . S
C932 C933 1.404 . S
C932 C935 1.539 . S
C933 C929 1.408 1_556 S
C933 C932 1.404 . S
C933 H945 0.930 . S
C934 C930 1.524 . S
C934 H946 0.956 . S
C934 H947 0.961 . S
C934 H948 0.961 . S
C935 C932 1.539 . S
C935 H949 0.958 . S
C935 H950 0.961 . S
C935 H951 0.960 . S
H936 C920 0.931 . S
H937 C925 0.929 . S
H938 C926 0.960 . S
H939 C926 0.962 1_554 S
H940 C926 0.960 . S
H941 C927 0.961 . S
H942 C927 0.961 . S
H943 C927 0.961 1_556 S
H944 C928 0.931 . S
H945 C933 0.930 . S
H946 C934 0.956 . S
H947 C934 0.961 . S
H948 C934 0.961 . S
H949 C935 0.958 . S
H950 C935 0.961 . S
H951 C935 0.960 . S
C185 C21 1.467 . S
C193 C130 1.493 . S
C217 C40 1.489 . S
C225 C94 1.487 . S
C257 C109 1.451 . S
C249 C54 1.462 . S
C281 C73 1.527 . S
C289 C121 1.512 . S
C321 C157 1.441 . S
C313 C74 1.450 . S
C353 C169 1.480 . S
C345 C10 1.505 . S
C385 C178 1.498 . S
C377 C37 1.503 . S
C417 C142 1.511 . S
C409 C65 1.504 . S
C441 C52 1.437 . S
C449 C106 1.443 . S
C473 C87 1.522 . S
C481 C118 1.514 . S
C505 C15 1.502 . S
C513 C133 1.505 . S
C545 C97 1.478 . S
C537 C32 1.495 . S
C569 C29 1.512 . S
C577 C181 1.492 . S
C609 C145 1.510 . S
C601 C59 1.513 . S
C641 C154 1.451 . S
C633 C84 1.451 . S
C665 C8 1.470 . S
C673 C166 1.459 . S
C705 C92 1.519 . S
C697 C7 1.527 . S
C737 C104 1.474 . S
C729 C30 1.487 . S
C761 C62 1.530 . S
C769 C116 1.521 . S
C793 C81 1.505 . S
C801 C128 1.513 . S
C833 C140 1.509 . S
C825 C76 1.525 . S
C857 C18 1.486 . S
C865 C152 1.474 . S
C889 C43 1.516 . S
C897 C164 1.531 . S
C921 C51 1.496 . S
C929 C176 1.505 1_554 S
