# Generated by pormake.
# Topology apo, (3,6)-cn, num edge types: 1
# Building blocks:
#     Node 0, Type 0, BuildingBlock: MIDCAF_clean_linker_0, # of connection points: 3
#     Node 1, Type 0, BuildingBlock: MIDCAF_clean_linker_0, # of connection points: 3
#     Node 2, Type 0, BuildingBlock: MIDCAF_clean_linker_0, # of connection points: 3
#     Node 3, Type 0, BuildingBlock: MIDCAF_clean_linker_0, # of connection points: 3
#     Node 4, Type 0, BuildingBlock: MIDCAF_clean_linker_0, # of connection points: 3
#     Node 5, Type 0, BuildingBlock: MIDCAF_clean_linker_0, # of connection points: 3
#     Node 6, Type 0, BuildingBlock: MIDCAF_clean_linker_0, # of connection points: 3
#     Node 7, Type 0, BuildingBlock: MIDCAF_clean_linker_0, # of connection points: 3
#     Node 8, Type 1, BuildingBlock: KUMBOL_clean_sbu_1, # of connection points: 6
#     Node 9, Type 1, BuildingBlock: KUMBOL_clean_sbu_1, # of connection points: 6
#     Node 10, Type 1, BuildingBlock: KUMBOL_clean_sbu_1, # of connection points: 6
#     Node 11, Type 1, BuildingBlock: KUMBOL_clean_sbu_1, # of connection points: 6
#     Edge 12, Type (0, 1), BuildingBlock: UVAHIK_clean_linker_0, # of connection points: 2
#     Edge 13, Type (0, 1), BuildingBlock: UVAHIK_clean_linker_0, # of connection points: 2
#     Edge 14, Type (0, 1), BuildingBlock: UVAHIK_clean_linker_0, # of connection points: 2
#     Edge 15, Type (0, 1), BuildingBlock: UVAHIK_clean_linker_0, # of connection points: 2
#     Edge 16, Type (0, 1), BuildingBlock: UVAHIK_clean_linker_0, # of connection points: 2
#     Edge 17, Type (0, 1), BuildingBlock: UVAHIK_clean_linker_0, # of connection points: 2
#     Edge 18, Type (0, 1), BuildingBlock: UVAHIK_clean_linker_0, # of connection points: 2
#     Edge 19, Type (0, 1), BuildingBlock: UVAHIK_clean_linker_0, # of connection points: 2
#     Edge 20, Type (0, 1), BuildingBlock: UVAHIK_clean_linker_0, # of connection points: 2
#     Edge 21, Type (0, 1), BuildingBlock: UVAHIK_clean_linker_0, # of connection points: 2
#     Edge 22, Type (0, 1), BuildingBlock: UVAHIK_clean_linker_0, # of connection points: 2
#     Edge 23, Type (0, 1), BuildingBlock: UVAHIK_clean_linker_0, # of connection points: 2
#     Edge 24, Type (0, 1), BuildingBlock: UVAHIK_clean_linker_0, # of connection points: 2
#     Edge 25, Type (0, 1), BuildingBlock: UVAHIK_clean_linker_0, # of connection points: 2
#     Edge 26, Type (0, 1), BuildingBlock: UVAHIK_clean_linker_0, # of connection points: 2
#     Edge 27, Type (0, 1), BuildingBlock: UVAHIK_clean_linker_0, # of connection points: 2
#     Edge 28, Type (0, 1), BuildingBlock: UVAHIK_clean_linker_0, # of connection points: 2
#     Edge 29, Type (0, 1), BuildingBlock: UVAHIK_clean_linker_0, # of connection points: 2
#     Edge 30, Type (0, 1), BuildingBlock: UVAHIK_clean_linker_0, # of connection points: 2
#     Edge 31, Type (0, 1), BuildingBlock: UVAHIK_clean_linker_0, # of connection points: 2
#     Edge 32, Type (0, 1), BuildingBlock: UVAHIK_clean_linker_0, # of connection points: 2
#     Edge 33, Type (0, 1), BuildingBlock: UVAHIK_clean_linker_0, # of connection points: 2
#     Edge 34, Type (0, 1), BuildingBlock: UVAHIK_clean_linker_0, # of connection points: 2
#     Edge 35, Type (0, 1), BuildingBlock: UVAHIK_clean_linker_0, # of connection points: 2
# Relax obj value: 0.010
# Max RMSD: 0.084
# Mean RMSD: 0.068
data_MOF--net-apo--node1-KUMBOL_clean_sbu_1--node2-MIDCAF_clean_linker_0--edge1-UVAHIK_clean_linker_0
_symmetry_space_group_name_H-M    P1
_symmetry_Int_Tables_number       1
_symmetry_cell_setting            triclinic
loop_
_symmetry_equiv_pos_as_xyz
'x, y, z'
_cell_length_a     35.706202
_cell_length_b     65.45149
_cell_length_c     77.343321
_cell_angle_alpha  90.024564
_cell_angle_beta   89.997205
_cell_angle_gamma 90.556427
loop_
_atom_site_label
_atom_site_type_symbol
_atom_site_fract_x
_atom_site_fract_y
_atom_site_fract_z
_atom_type_partial_charge
C0 C 0.31807 0.39218 0.47914 0.0
C1 C 0.31196 0.37454 0.48914 0.0
C2 C 0.2957 0.35725 0.48123 0.0
C3 C 0.2868 0.35743 0.46359 0.0
H4 H 0.21489 0.331 0.42241 0.0
H5 H 0.18096 0.30413 0.40684 0.0
H6 H 0.24383 0.31865 0.36058 0.0
H7 H 0.27615 0.34593 0.37588 0.0
H8 H 0.31046 0.39082 0.37263 0.0
H9 H 0.33318 0.4193 0.35509 0.0
H10 H 0.33454 0.45815 0.40019 0.0
H11 H 0.31201 0.42962 0.41789 0.0
H12 H 0.31489 0.4062 0.4543 0.0
H13 H 0.32981 0.4059 0.4849 0.0
H14 H 0.29083 0.34337 0.48854 0.0
H15 H 0.2751 0.34371 0.45783 0.0
N16 N 0.27048 0.35855 0.42664 0.0
N17 N 0.27923 0.37419 0.39961 0.0
N18 N 0.29964 0.3908 0.42474 0.0
C19 C 0.26635 0.35819 0.40915 0.0
C20 C 0.29568 0.39059 0.40729 0.0
C21 C 0.28736 0.37482 0.43452 0.0
C22 C 0.24788 0.34073 0.40033 0.0
C23 C 0.2215 0.32833 0.40894 0.0
C24 C 0.20216 0.31288 0.4 0.0
C25 C 0.20921 0.30932 0.38233 0.0
C26 C 0.23674 0.32127 0.374 0.0
C27 C 0.25554 0.33686 0.38283 0.0
C28 C 0.30944 0.40793 0.39668 0.0
C29 C 0.31553 0.40542 0.37885 0.0
C30 C 0.32873 0.42168 0.3688 0.0
C31 C 0.33561 0.44088 0.3763 0.0
C32 C 0.32922 0.44351 0.39408 0.0
C33 C 0.31654 0.42715 0.40421 0.0
C34 C 0.29401 0.37491 0.45348 0.0
C35 C 0.30927 0.39236 0.46156 0.0
C36 C 0.1556 0.10688 0.9761 0.0
C37 C 0.17259 0.12131 0.98714 0.0
C38 C 0.19798 0.13557 0.98003 0.0
C39 C 0.20705 0.13497 0.96241 0.0
H40 H 0.24356 0.17128 0.9174 0.0
H41 H 0.27847 0.19759 0.90163 0.0
H42 H 0.31707 0.15185 0.86561 0.0
H43 H 0.28104 0.12593 0.88085 0.0
H44 H 0.22321 0.08915 0.87405 0.0
H45 H 0.20263 0.0599 0.85705 0.0
H46 H 0.13325 0.0394 0.89951 0.0
H47 H 0.15443 0.06846 0.91674 0.0
H48 H 0.15139 0.09467 0.95057 0.0
H49 H 0.13534 0.09594 0.98105 0.0
H50 H 0.21182 0.14678 0.98817 0.0
H51 H 0.22737 0.14587 0.95745 0.0
N52 N 0.22435 0.13287 0.92552 0.0
N53 N 0.22472 0.11395 0.89974 0.0
N54 N 0.19158 0.10165 0.92372 0.0
C55 C 0.23565 0.13074 0.90881 0.0
C56 C 0.20261 0.09936 0.90703 0.0
C57 C 0.20237 0.11829 0.93309 0.0
C58 C 0.25917 0.14656 0.90027 0.0
C59 C 0.25969 0.16688 0.90616 0.0
C60 C 0.27985 0.18195 0.89714 0.0
C61 C 0.30032 0.17696 0.88217 0.0
C62 C 0.30084 0.15644 0.87676 0.0
C63 C 0.28033 0.1415 0.88559 0.0
C64 C 0.19044 0.08127 0.8968 0.0
C65 C 0.20361 0.07843 0.87983 0.0
C66 C 0.19163 0.06168 0.87001 0.0
C67 C 0.16612 0.04734 0.87686 0.0
C68 C 0.15323 0.05003 0.89389 0.0
C69 C 0.16525 0.06679 0.90375 0.0
C70 C 0.19099 0.12005 0.95151 0.0
C71 C 0.16474 0.10622 0.95856 0.0
C72 C 0.83709 0.10728 0.52615 0.0
C73 C 0.82461 0.12445 0.51694 0.0
C74 C 0.80329 0.13913 0.52573 0.0
C75 C 0.79505 0.13687 0.54329 0.0
H76 H 0.72883 0.16119 0.58483 0.0
H77 H 0.69817 0.18824 0.60147 0.0
H78 H 0.75093 0.16646 0.64806 0.0
H79 H 0.78098 0.13938 0.63167 0.0
H80 H 0.77528 0.08552 0.62814 0.0
H81 H 0.79457 0.05622 0.64498 0.0
H82 H 0.87623 0.04119 0.60583 0.0
H83 H 0.85572 0.07025 0.58856 0.0
H84 H 0.83919 0.09166 0.55042 0.0
H85 H 0.85387 0.09577 0.51984 0.0
H86 H 0.79261 0.15235 0.51899 0.0
H87 H 0.77862 0.14855 0.54956 0.0
N88 N 0.78202 0.13297 0.58001 0.0
N89 N 0.78574 0.11423 0.60573 0.0
N90 N 0.81023 0.10066 0.58011 0.0
C91 C 0.7752 0.13135 0.59724 0.0
C92 C 0.80305 0.09879 0.59731 0.0
C93 C 0.79966 0.1177 0.57134 0.0
C94 C 0.75723 0.14811 0.60694 0.0
C95 C 0.73393 0.16224 0.59861 0.0
C96 C 0.71629 0.17763 0.60811 0.0
C97 C 0.72233 0.17941 0.62601 0.0
C98 C 0.74605 0.1655 0.63425 0.0
C99 C 0.76305 0.14993 0.62486 0.0
C100 C 0.81415 0.08033 0.60705 0.0
C101 C 0.79731 0.07596 0.62307 0.0
C102 C 0.80856 0.05918 0.6328 0.0
C103 C 0.83735 0.04643 0.62692 0.0
C104 C 0.85374 0.05055 0.61071 0.0
C105 C 0.84211 0.06726 0.60083 0.0
C106 C 0.80782 0.11981 0.55256 0.0
C107 C 0.82879 0.10498 0.54374 0.0
C108 C 0.67572 0.37776 0.02631 0.0
C109 C 0.69032 0.36116 0.01701 0.0
C110 C 0.71418 0.34754 0.02562 0.0
C111 C 0.72295 0.35033 0.04309 0.0
H112 H 0.76184 0.31877 0.08655 0.0
H113 H 0.79383 0.29248 0.10309 0.0
H114 H 0.81342 0.33578 0.14439 0.0
H115 H 0.7805 0.36178 0.12817 0.0
H116 H 0.74061 0.40449 0.12734 0.0
H117 H 0.71721 0.43344 0.14378 0.0
H118 H 0.63454 0.44458 0.10427 0.0
H119 H 0.65796 0.41556 0.08767 0.0
H120 H 0.67259 0.39347 0.05052 0.0
H121 H 0.65686 0.38839 0.02018 0.0
H122 H 0.72642 0.33478 0.01882 0.0
H123 H 0.74145 0.33951 0.04922 0.0
N124 N 0.73798 0.35555 0.07959 0.0
N125 N 0.73515 0.37517 0.10489 0.0
N126 N 0.70565 0.38663 0.07967 0.0
C127 C 0.74691 0.35815 0.09654 0.0
C128 C 0.71447 0.38945 0.09661 0.0
C129 C 0.71753 0.36977 0.07101 0.0
C130 C 0.7683 0.34239 0.10605 0.0
C131 C 0.77311 0.32271 0.09913 0.0
C132 C 0.79162 0.30763 0.1086 0.0
C133 C 0.80601 0.31191 0.12517 0.0
C134 C 0.80199 0.33175 0.13186 0.0
C135 C 0.78326 0.34675 0.12248 0.0
C136 C 0.70111 0.40764 0.10618 0.0
C137 C 0.71752 0.41312 0.12208 0.0
C138 C 0.70429 0.42979 0.13148 0.0
C139 C 0.67404 0.44125 0.12532 0.0
C140 C 0.65773 0.43591 0.10938 0.0
C141 C 0.67131 0.41937 0.09984 0.0
C142 C 0.70822 0.36687 0.05242 0.0
C143 C 0.68459 0.38059 0.04378 0.0
C144 C 0.66897 0.60416 0.52761 0.0
C145 C 0.68261 0.6206 0.51766 0.0
C146 C 0.7047 0.63567 0.52584 0.0
C147 C 0.7131 0.63427 0.54348 0.0
H148 H 0.75523 0.66824 0.58579 0.0
H149 H 0.79064 0.69479 0.60118 0.0
H150 H 0.80471 0.65395 0.64447 0.0
H151 H 0.76974 0.62751 0.62924 0.0
H152 H 0.69977 0.59496 0.63365 0.0
H153 H 0.67781 0.56598 0.6507 0.0
H154 H 0.65756 0.53161 0.60394 0.0
H155 H 0.67942 0.56074 0.58669 0.0
H156 H 0.66632 0.58982 0.5524 0.0
H157 H 0.65143 0.59243 0.52182 0.0
H158 H 0.71611 0.64841 0.51855 0.0
H159 H 0.73039 0.64611 0.54927 0.0
N160 N 0.72898 0.63105 0.5802 0.0
N161 N 0.72503 0.61302 0.60632 0.0
N162 N 0.69687 0.59957 0.58139 0.0
C163 C 0.73733 0.62957 0.59732 0.0
C164 C 0.70482 0.59798 0.59852 0.0
C165 C 0.70877 0.61609 0.57212 0.0
C166 C 0.75951 0.64571 0.60626 0.0
C167 C 0.76603 0.66489 0.59856 0.0
C168 C 0.78614 0.68014 0.6074 0.0
C169 C 0.80054 0.67644 0.62402 0.0
C170 C 0.79438 0.65721 0.6316 0.0
C171 C 0.77405 0.64208 0.62288 0.0
C172 C 0.69135 0.58021 0.60877 0.0
C173 C 0.6907 0.58126 0.62694 0.0
C174 C 0.67791 0.5647 0.63674 0.0
C175 C 0.6659 0.54658 0.62865 0.0
C176 C 0.66684 0.54538 0.61051 0.0
C177 C 0.67916 0.56209 0.60065 0.0
C178 C 0.69966 0.61773 0.5534 0.0
C179 C 0.6774 0.60273 0.54522 0.0
C180 C 0.82416 0.89135 0.0259 0.0
C181 C 0.81254 0.87518 0.01515 0.0
C182 C 0.79095 0.85923 0.02232 0.0
C183 C 0.78219 0.85916 0.03999 0.0
H184 H 0.71157 0.83205 0.08224 0.0
H185 H 0.68058 0.80355 0.09742 0.0
H186 H 0.75272 0.81338 0.14144 0.0
H187 H 0.78289 0.8421 0.12662 0.0
H188 H 0.80291 0.8908 0.13249 0.0
H189 H 0.82349 0.9193 0.1505 0.0
H190 H 0.83688 0.95693 0.10504 0.0
H191 H 0.81615 0.92845 0.08691 0.0
H192 H 0.82522 0.90401 0.05131 0.0
H193 H 0.84029 0.90404 0.02071 0.0
H194 H 0.7817 0.84652 0.01437 0.0
H195 H 0.76616 0.84644 0.04516 0.0
N196 N 0.77103 0.85811 0.07735 0.0
N197 N 0.77908 0.87319 0.10467 0.0
N198 N 0.79931 0.89052 0.07985 0.0
C199 C 0.76683 0.8573 0.09482 0.0
C200 C 0.79505 0.88994 0.09729 0.0
C201 C 0.78758 0.87466 0.06977 0.0
C202 C 0.74952 0.83931 0.10329 0.0
C203 C 0.72091 0.82801 0.09511 0.0
C204 C 0.70312 0.81182 0.10378 0.0
C205 C 0.71443 0.80636 0.12053 0.0
C206 C 0.7437 0.81728 0.12849 0.0
C207 C 0.76078 0.83374 0.12003 0.0
C208 C 0.80786 0.90729 0.10822 0.0
C209 C 0.81018 0.90513 0.12628 0.0
C210 C 0.82218 0.92142 0.13662 0.0
C211 C 0.83181 0.94033 0.12918 0.0
C212 C 0.82933 0.94257 0.11115 0.0
C213 C 0.81767 0.9262 0.10076 0.0
C214 C 0.79462 0.87514 0.05083 0.0
C215 C 0.81527 0.89136 0.04347 0.0
C216 C 0.18365 0.87852 0.47825 0.0
C217 C 0.18609 0.85894 0.48557 0.0
C218 C 0.19847 0.84268 0.47525 0.0
C219 C 0.20811 0.84591 0.45795 0.0
H220 H 0.28189 0.82483 0.41887 0.0
H221 H 0.31581 0.79898 0.40269 0.0
H222 H 0.27944 0.82639 0.35477 0.0
H223 H 0.24689 0.85262 0.37091 0.0
H224 H 0.23143 0.90194 0.37443 0.0
H225 H 0.20859 0.93143 0.35874 0.0
H226 H 0.13706 0.94665 0.40184 0.0
H227 H 0.16082 0.91742 0.41782 0.0
H228 H 0.19032 0.89696 0.45558 0.0
H229 H 0.17397 0.8913 0.48589 0.0
H230 H 0.20097 0.82747 0.4806 0.0
H231 H 0.21743 0.833 0.45037 0.0
N232 N 0.23347 0.85421 0.42304 0.0
N233 N 0.22991 0.87404 0.3979 0.0
N234 N 0.20311 0.88586 0.42366 0.0
C235 C 0.24138 0.8568 0.406 0.0
C236 C 0.21084 0.88867 0.40661 0.0
C237 C 0.21436 0.86866 0.43198 0.0
C238 C 0.26174 0.84087 0.39621 0.0
C239 C 0.28117 0.82535 0.40488 0.0
C240 C 0.30047 0.81043 0.39558 0.0
C241 C 0.3005 0.81054 0.37738 0.0
C242 C 0.28076 0.826 0.36875 0.0
C243 C 0.26184 0.84102 0.37804 0.0
C244 C 0.19783 0.90718 0.39738 0.0
C245 C 0.21091 0.91158 0.38063 0.0
C246 C 0.19764 0.92847 0.37156 0.0
C247 C 0.17067 0.94135 0.37893 0.0
C248 C 0.15809 0.9372 0.39582 0.0
C249 C 0.1716 0.92035 0.40496 0.0
C250 C 0.20514 0.86543 0.45049 0.0
C251 C 0.19283 0.88171 0.46086 0.0
C252 C 0.33512 0.60821 0.97763 0.0
C253 C 0.31779 0.62348 0.98745 0.0
C254 C 0.2912 0.63606 0.97948 0.0
C255 C 0.28295 0.63378 0.96188 0.0
H256 H 0.2268 0.66134 0.91924 0.0
H257 H 0.19397 0.68726 0.90249 0.0
H258 H 0.24226 0.66329 0.85551 0.0
H259 H 0.27382 0.63718 0.87205 0.0
H260 H 0.32277 0.59755 0.87291 0.0
H261 H 0.34603 0.56827 0.85673 0.0
H262 H 0.33828 0.53096 0.9026 0.0
H263 H 0.31555 0.5604 0.91901 0.0
H264 H 0.34093 0.59397 0.95295 0.0
H265 H 0.35542 0.59815 0.98349 0.0
H266 H 0.27754 0.64802 0.98674 0.0
H267 H 0.26285 0.64396 0.95603 0.0
N268 N 0.27598 0.63191 0.9243 0.0
N269 N 0.2853 0.61425 0.89828 0.0
N270 N 0.30696 0.6004 0.92428 0.0
C271 C 0.27166 0.63069 0.90684 0.0
C272 C 0.30273 0.59901 0.90688 0.0
C273 C 0.29385 0.61684 0.93309 0.0
C274 C 0.25272 0.64706 0.897 0.0
C275 C 0.2304 0.66165 0.90534 0.0
C276 C 0.2117 0.67656 0.89573 0.0
C277 C 0.21515 0.67728 0.87761 0.0
C278 C 0.23814 0.66292 0.86938 0.0
C279 C 0.25648 0.64797 0.87892 0.0
C280 C 0.31732 0.58127 0.89724 0.0
C281 C 0.32606 0.58313 0.87958 0.0
C282 C 0.33955 0.56643 0.87033 0.0
C283 C 0.3439 0.54744 0.87845 0.0
C284 C 0.335 0.54548 0.89606 0.0
C285 C 0.3222 0.56232 0.90544 0.0
C286 C 0.30081 0.6187 0.95196 0.0
C287 C 0.3266 0.60576 0.96013 0.0
C288 C 0.88539 0.10838 0.25067 0.0
C289 C 0.8872 0.07403 0.26236 0.0
C290 C 0.9023 0.094 0.26127 0.0
C291 C 0.85622 0.06853 0.25211 0.0
C292 C 0.85382 0.10304 0.24063 0.0
C293 C 0.83957 0.08299 0.24129 0.0
N294 N 0.9006 0.12748 0.24978 0.0
C295 C 0.88474 0.14223 0.23978 0.0
C296 C 0.8378 0.11797 0.23006 0.0
C297 C 0.8532 0.13768 0.22972 0.0
Gd298 Gd 0.05185 0.13034 0.24 0.0
Gd299 Gd 0.95398 0.13359 0.26668 0.0
N300 N 0.93264 0.09969 0.2709 0.0
C301 C 0.90303 0.06033 0.27407 0.0
C302 C 0.94545 0.08701 0.28356 0.0
C303 C 0.93174 0.067 0.28499 0.0
H304 H 0.96537 0.09231 0.29303 0.0
H305 H 0.94278 0.05689 0.29478 0.0
H306 H 0.04038 0.17383 0.21632 0.0
H307 H 0.89652 0.15747 0.23959 0.0
H308 H 0.06688 0.2084 0.21511 0.0
H309 H 0.89224 0.04487 0.27531 0.0
H310 H 0.84453 0.0532 0.25268 0.0
H311 H 0.10727 0.10398 0.26639 0.0
H312 H 0.81354 0.11446 0.22215 0.0
H313 H 0.84085 0.14936 0.22169 0.0
H314 H 0.17087 0.20653 0.25414 0.0
H315 H 0.81553 0.07855 0.23355 0.0
H316 H 0.19703 0.14334 0.28273 0.0
H317 H 0.16517 0.10961 0.28335 0.0
N318 N 0.10621 0.13429 0.25663 0.0
C319 C 0.12362 0.15284 0.25579 0.0
C320 C 0.12082 0.11879 0.26622 0.0
C321 C 0.17168 0.14095 0.27527 0.0
C322 C 0.1537 0.1219 0.27571 0.0
C323 C 0.1567 0.15671 0.26526 0.0
H324 H 0.19869 0.1795 0.27192 0.0
N325 N 0.07541 0.16398 0.23693 0.0
C326 C 0.10742 0.16819 0.24593 0.0
C327 C 0.10904 0.20246 0.23429 0.0
C328 C 0.12468 0.18766 0.24506 0.0
C329 C 0.06217 0.17784 0.22529 0.0
C330 C 0.07805 0.19739 0.22414 0.0
O331 O 0.95424 0.11992 0.23973 0.0
O332 O 0.01093 0.10398 0.23789 0.0
O333 O 0.06669 0.12964 0.21229 0.0
O334 O 0.0961 0.1108 0.23114 0.0
O335 O 0.00329 0.11787 0.27954 0.0
O336 O 0.03604 0.10353 0.25683 0.0
O337 O 0.05293 0.1445 0.26678 0.0
O338 O 0.99552 0.15963 0.26879 0.0
O339 O 0.93881 0.13519 0.29419 0.0
O340 O 0.90893 0.1532 0.2749 0.0
O341 O 0.0029 0.14645 0.22714 0.0
O342 O 0.96961 0.16045 0.24985 0.0
C343 C 0.97512 0.1049 0.23426 0.0
C344 C 0.0265 0.10415 0.27326 0.0
C345 C 0.11772 0.10779 0.20167 0.0
C346 C 0.13524 0.10252 0.17143 0.0
C347 C 0.17051 0.08622 0.1944 0.0
C348 C 0.14729 0.09506 0.20671 0.0
C349 C 0.16451 0.08983 0.17689 0.0
C350 C 0.11204 0.11171 0.18393 0.0
C351 C 0.09296 0.11636 0.21512 0.0
C352 C 0.15743 0.19162 0.2546 0.0
C353 C 0.17339 0.1762 0.26466 0.0
H354 H 0.12148 0.21757 0.23325 0.0
C355 C 0.03064 0.1582 0.27351 0.0
C356 C 0.97895 0.15985 0.23338 0.0
C357 C 0.88796 0.15713 0.30452 0.0
C358 C 0.86937 0.16124 0.33475 0.0
C359 C 0.83858 0.18077 0.31222 0.0
C360 C 0.86101 0.1716 0.29975 0.0
C361 C 0.84278 0.17573 0.3296 0.0
C362 C 0.89177 0.15181 0.3221 0.0
C363 C 0.9124 0.14828 0.29108 0.0
H364 H 0.19319 0.07646 0.19845 0.0
H365 H 0.15253 0.09184 0.22023 0.0
H366 H 0.18304 0.08281 0.16757 0.0
H367 H 0.08927 0.12141 0.17984 0.0
H368 H 0.81795 0.1919 0.3084 0.0
H369 H 0.85737 0.17598 0.28636 0.0
H370 H 0.82493 0.18303 0.33905 0.0
H371 H 0.91254 0.14075 0.32598 0.0
C372 C 0.61921 0.38514 0.75589 0.0
C373 C 0.61099 0.41799 0.7697 0.0
C374 C 0.59985 0.39746 0.76729 0.0
C375 C 0.64061 0.42613 0.75982 0.0
C376 C 0.6499 0.39295 0.74645 0.0
C377 C 0.66006 0.41363 0.74823 0.0
N378 N 0.60805 0.36537 0.75413 0.0
C379 C 0.62805 0.35209 0.74423 0.0
C380 C 0.66958 0.37966 0.73562 0.0
C381 C 0.65888 0.35908 0.73468 0.0
Gd382 Gd 0.46194 0.35252 0.73954 0.0
Gd383 Gd 0.55489 0.35506 0.76976 0.0
N384 N 0.57146 0.38905 0.77668 0.0
C385 C 0.59277 0.42953 0.78235 0.0
C386 C 0.556 0.3997 0.79002 0.0
C387 C 0.56566 0.4202 0.79279 0.0
H388 H 0.53675 0.39234 0.7988 0.0
H389 H 0.55261 0.42869 0.80314 0.0
H390 H 0.46835 0.30628 0.72226 0.0
H391 H 0.61971 0.3362 0.74349 0.0
H392 H 0.43544 0.2728 0.72391 0.0
H393 H 0.60047 0.44536 0.78461 0.0
H394 H 0.64928 0.44194 0.76136 0.0
H395 H 0.40276 0.3866 0.7577 0.0
H396 H 0.69335 0.38506 0.72814 0.0
H397 H 0.67428 0.34863 0.72657 0.0
H398 H 0.33439 0.28452 0.76367 0.0
H399 H 0.68329 0.42 0.74094 0.0
H400 H 0.31563 0.35314 0.78325 0.0
H401 H 0.34692 0.38602 0.77633 0.0
N402 N 0.40632 0.35423 0.7559 0.0
C403 C 0.38799 0.33619 0.7585 0.0
C404 C 0.39084 0.37208 0.76143 0.0
C405 C 0.34091 0.35326 0.77549 0.0
C406 C 0.35855 0.37184 0.77166 0.0
C407 C 0.35497 0.33517 0.76849 0.0
H408 H 0.31118 0.31522 0.77843 0.0
N409 N 0.43238 0.32047 0.74043 0.0
C410 C 0.40096 0.31887 0.75022 0.0
C411 C 0.39438 0.28332 0.74223 0.0
C412 C 0.38144 0.30012 0.75165 0.0
C413 C 0.44421 0.30448 0.73058 0.0
C414 C 0.42562 0.28559 0.73147 0.0
O415 O 0.55533 0.36731 0.74231 0.0
O416 O 0.49731 0.38121 0.73972 0.0
O417 O 0.46564 0.35083 0.71157 0.0
O418 O 0.41613 0.36312 0.72349 0.0
O419 O 0.50157 0.36885 0.78059 0.0
O420 O 0.46887 0.38046 0.75676 0.0
O421 O 0.47635 0.32646 0.75766 0.0
O422 O 0.50054 0.34342 0.78089 0.0
O423 O 0.58651 0.35584 0.79385 0.0
O424 O 0.58483 0.32833 0.7785 0.0
O425 O 0.51439 0.33834 0.7287 0.0
O426 O 0.54907 0.32734 0.75232 0.0
C427 C 0.53331 0.38166 0.73651 0.0
C428 C 0.47777 0.38151 0.7733 0.0
C429 C 0.43508 0.37711 0.69681 0.0
C430 C 0.42619 0.38992 0.66746 0.0
C431 C 0.45073 0.41234 0.68999 0.0
C432 C 0.44833 0.39642 0.70195 0.0
C433 C 0.43978 0.40915 0.67285 0.0
C434 C 0.42399 0.37392 0.67961 0.0
C435 C 0.43398 0.36002 0.70909 0.0
C436 C 0.34952 0.29885 0.76222 0.0
C437 C 0.33637 0.31633 0.77066 0.0
H438 H 0.38013 0.26866 0.74295 0.0
C439 C 0.48126 0.32814 0.7744 0.0
C440 C 0.53938 0.32628 0.73586 0.0
C441 C 0.58185 0.32455 0.80895 0.0
C442 C 0.5809 0.32058 0.84043 0.0
C443 C 0.54528 0.29719 0.82217 0.0
C444 C 0.55761 0.30755 0.80746 0.0
C445 C 0.55667 0.30365 0.83853 0.0
C446 C 0.59367 0.33088 0.82551 0.0
C447 C 0.59317 0.33635 0.79344 0.0
H448 H 0.46106 0.4272 0.69402 0.0
H449 H 0.45685 0.39915 0.71518 0.0
H450 H 0.44151 0.42182 0.66387 0.0
H451 H 0.41428 0.35889 0.67564 0.0
H452 H 0.52656 0.28416 0.82087 0.0
H453 H 0.54775 0.30235 0.79496 0.0
H454 H 0.54675 0.29527 0.84973 0.0
H455 H 0.61195 0.34411 0.82678 0.0
C456 C 0.89507 0.82095 0.75714 0.0
C457 C 0.90759 0.7892 0.77198 0.0
C458 C 0.91671 0.8098 0.76848 0.0
C459 C 0.87768 0.77978 0.76313 0.0
C460 C 0.86392 0.81193 0.74885 0.0
C461 C 0.85585 0.79113 0.7516 0.0
N462 N 0.90399 0.84091 0.75457 0.0
C463 C 0.88129 0.85323 0.74504 0.0
C464 C 0.84146 0.8242 0.73833 0.0
C465 C 0.84988 0.84502 0.73663 0.0
Gd466 Gd 0.0485 0.85536 0.73646 0.0
Gd467 Gd 0.95803 0.8534 0.7683 0.0
N468 N 0.94509 0.81949 0.77696 0.0
C469 C 0.92793 0.77894 0.78471 0.0
C470 C 0.96262 0.8101 0.79044 0.0
C471 C 0.95507 0.78957 0.79422 0.0
H472 H 0.98219 0.81843 0.79847 0.0
H473 H 0.96981 0.78206 0.80462 0.0
H474 H 0.04527 0.90185 0.71937 0.0
H475 H 0.88811 0.86928 0.74363 0.0
H476 H 0.07914 0.93501 0.72194 0.0
H477 H 0.92185 0.7631 0.78778 0.0
H478 H 0.87052 0.7639 0.7655 0.0
H479 H 0.10729 0.82008 0.75318 0.0
H480 H 0.81723 0.81785 0.73174 0.0
H481 H 0.83234 0.85469 0.72877 0.0
H482 H 0.1776 0.92142 0.76265 0.0
H483 H 0.8323 0.78382 0.74519 0.0
H484 H 0.19455 0.85189 0.7802 0.0
H485 H 0.16296 0.8195 0.77197 0.0
N486 N 0.10429 0.85256 0.75258 0.0
C487 C 0.12292 0.87036 0.75582 0.0
C488 C 0.11954 0.83437 0.75742 0.0
C489 C 0.16942 0.85226 0.77236 0.0
C490 C 0.15164 0.83396 0.76776 0.0
C491 C 0.15577 0.87074 0.76595 0.0
H492 H 0.19971 0.89001 0.77668 0.0
N493 N 0.07966 0.88698 0.73779 0.0
C494 C 0.11065 0.88806 0.74791 0.0
C495 C 0.11865 0.92373 0.74066 0.0
C496 C 0.1306 0.90658 0.74991 0.0
C497 C 0.06905 0.90326 0.72796 0.0
C498 C 0.08811 0.92196 0.72941 0.0
O499 O 0.95468 0.84129 0.74083 0.0
O500 O 0.01215 0.82702 0.73692 0.0
O501 O 0.043 0.85685 0.70852 0.0
O502 O 0.09375 0.84532 0.71984 0.0
O503 O 0.01329 0.84091 0.77799 0.0
O504 O 0.04126 0.82749 0.75371 0.0
O505 O 0.03447 0.88205 0.75401 0.0
O506 O 0.013 0.86582 0.77811 0.0
O507 O 0.92881 0.85379 0.79307 0.0
O508 O 0.92769 0.88022 0.77646 0.0
O509 O 0.99593 0.87008 0.72626 0.0
O510 O 0.96094 0.88052 0.75008 0.0
C511 C 0.97599 0.8272 0.73401 0.0
C512 C 0.03498 0.82738 0.77049 0.0
C513 C 0.07493 0.83153 0.69306 0.0
C514 C 0.08441 0.81981 0.66338 0.0
C515 C 0.06524 0.79583 0.6859 0.0
C516 C 0.06533 0.81158 0.69806 0.0
C517 C 0.07486 0.79984 0.6687 0.0
C518 C 0.08414 0.83561 0.67576 0.0
C519 C 0.07511 0.84831 0.70565 0.0
C520 C 0.16215 0.90727 0.76074 0.0
C521 C 0.17469 0.88938 0.76876 0.0
H522 H 0.13326 0.93825 0.74182 0.0
C523 C 0.0307 0.88115 0.77084 0.0
C524 C 0.97105 0.88203 0.73368 0.0
C525 C 0.93208 0.88619 0.80658 0.0
C526 C 0.93128 0.89354 0.83762 0.0
C527 C 0.96759 0.91504 0.81802 0.0
C528 C 0.95615 0.90308 0.80405 0.0
C529 C 0.95532 0.91035 0.83468 0.0
C530 C 0.91961 0.88155 0.82341 0.0
C531 C 0.9208 0.87308 0.79184 0.0
H532 H 0.05793 0.78043 0.68983 0.0
H533 H 0.05808 0.80821 0.71136 0.0
H534 H 0.0753 0.78722 0.65965 0.0
H535 H 0.09069 0.85119 0.67198 0.0
H536 H 0.98607 0.92802 0.81593 0.0
H537 H 0.96633 0.90704 0.79128 0.0
H538 H 0.96434 0.92008 0.84525 0.0
H539 H 0.90145 0.86841 0.82544 0.0
C540 C 0.62319 0.65956 0.24848 0.0
C541 C 0.61668 0.69439 0.25869 0.0
C542 C 0.60429 0.67384 0.25845 0.0
C543 C 0.64689 0.70049 0.24819 0.0
C544 C 0.65413 0.66552 0.23827 0.0
C545 C 0.66558 0.6861 0.23803 0.0
N546 N 0.61061 0.63989 0.2484 0.0
C547 C 0.62852 0.62522 0.23907 0.0
C548 C 0.67234 0.65063 0.22844 0.0
C549 C 0.6596 0.63038 0.22892 0.0
Gd550 Gd 0.46116 0.63484 0.23875 0.0
Gd551 Gd 0.55839 0.63265 0.26572 0.0
N552 N 0.57479 0.66755 0.26836 0.0
C553 C 0.59907 0.70808 0.26987 0.0
C554 C 0.56049 0.68036 0.28059 0.0
C555 C 0.57145 0.70091 0.28115 0.0
H556 H 0.54152 0.67479 0.29037 0.0
H557 H 0.55918 0.7111 0.29056 0.0
H558 H 0.46353 0.58414 0.23183 0.0
H559 H 0.61851 0.60958 0.23938 0.0
H560 H 0.42371 0.55388 0.23748 0.0
H561 H 0.60777 0.72397 0.27044 0.0
H562 H 0.65647 0.71625 0.24809 0.0
H563 H 0.41244 0.67533 0.25204 0.0
H564 H 0.6962 0.65462 0.22042 0.0
H565 H 0.67358 0.61877 0.2214 0.0
H566 H 0.31411 0.58117 0.26468 0.0
H567 H 0.68902 0.69101 0.23011 0.0
H568 H 0.30884 0.65363 0.27348 0.0
H569 H 0.35213 0.68224 0.26654 0.0
N570 N 0.40399 0.64318 0.25163 0.0
C571 C 0.38031 0.62728 0.25497 0.0
C572 C 0.39409 0.66274 0.25544 0.0
C573 C 0.3354 0.65052 0.26729 0.0
C574 C 0.3598 0.6667 0.26344 0.0
C575 C 0.3454 0.63051 0.26297 0.0
H576 H 0.29479 0.61593 0.27261 0.0
N577 N 0.42558 0.60498 0.24327 0.0
C578 C 0.39117 0.60764 0.25046 0.0
C579 C 0.37955 0.57124 0.24927 0.0
C580 C 0.36745 0.59079 0.25389 0.0
C581 C 0.43697 0.58607 0.23818 0.0
C582 C 0.41433 0.56891 0.24128 0.0
O583 O 0.55661 0.64318 0.23773 0.0
O584 O 0.50228 0.661 0.23682 0.0
O585 O 0.45959 0.62796 0.21129 0.0
O586 O 0.42098 0.64981 0.22206 0.0
O587 O 0.50679 0.64637 0.27833 0.0
O588 O 0.47879 0.66165 0.25504 0.0
O589 O 0.45931 0.61772 0.26422 0.0
O590 O 0.51905 0.60613 0.27043 0.0
O591 O 0.57718 0.63437 0.29281 0.0
O592 O 0.60478 0.61426 0.27435 0.0
O593 O 0.50701 0.6146 0.22807 0.0
O594 O 0.54702 0.60417 0.25013 0.0
C595 C 0.53689 0.65842 0.23178 0.0
C596 C 0.48368 0.65992 0.27179 0.0
C597 C 0.44127 0.65509 0.19338 0.0
C598 C 0.43723 0.66218 0.16248 0.0
C599 C 0.47027 0.68572 0.1816 0.0
C600 C 0.4616 0.6733 0.19573 0.0
C601 C 0.45836 0.68018 0.16503 0.0
C602 C 0.42884 0.64966 0.17677 0.0
C603 C 0.43377 0.64137 0.20804 0.0
C604 C 0.33268 0.59395 0.2619 0.0
C605 C 0.32169 0.61375 0.26643 0.0
H606 H 0.36217 0.55789 0.25173 0.0
C607 C 0.48241 0.60515 0.27196 0.0
C608 C 0.53243 0.60222 0.23454 0.0
C609 C 0.63034 0.61424 0.30336 0.0
C610 C 0.65296 0.61336 0.33324 0.0
C611 C 0.68677 0.59559 0.31055 0.0
C612 C 0.6607 0.60205 0.29838 0.0
C613 C 0.68304 0.6012 0.32784 0.0
C614 C 0.62643 0.61977 0.3209 0.0
C615 C 0.60361 0.62121 0.29005 0.0
H616 H 0.48616 0.69972 0.18348 0.0
H617 H 0.47064 0.67787 0.2085 0.0
H618 H 0.46509 0.69013 0.15426 0.0
H619 H 0.41314 0.63555 0.17495 0.0
H620 H 0.71001 0.58618 0.30657 0.0
H621 H 0.6645 0.59757 0.28502 0.0
H622 H 0.70353 0.59579 0.33705 0.0
H623 H 0.60322 0.62922 0.3249 0.0
C624 C 0.14708 0.97748 0.37676 0.0
C625 C 0.15512 0.95868 0.36881 0.0
C626 C 0.13224 0.99362 0.36715 0.0
C627 C 0.083 0.00442 0.32587 0.0
H628 H 0.11702 0.06006 0.33391 0.0
C629 C 0.05347 0.06952 0.27798 0.0
C630 C 0.04112 0.08814 0.28487 0.0
C631 C 0.06653 0.05412 0.28884 0.0
C632 C 0.10699 0.04462 0.33165 0.0
H633 H 0.15327 0.94215 0.34448 0.0
H634 H 0.12879 0.97036 0.32771 0.0
H635 H 0.14145 0.0324 0.35173 0.0
H636 H 0.03348 0.10541 0.3085 0.0
H637 H 0.05662 0.07844 0.32755 0.0
H638 H 0.04913 0.0166 0.30558 0.0
C639 C 0.13334 0.97259 0.34142 0.0
C640 C 0.1209 0.02877 0.34187 0.0
C641 C 0.14796 0.95646 0.35102 0.0
C642 C 0.04265 0.09116 0.30285 0.0
C643 C 0.05607 0.07579 0.31372 0.0
C644 C 0.06934 0.02022 0.31559 0.0
C645 C 0.12514 0.99136 0.34935 0.0
C646 C 0.10932 0.00843 0.339 0.0
C647 C 0.06788 0.05705 0.30683 0.0
C648 C 0.0814 0.04047 0.31827 0.0
H649 H 0.15256 0.97981 0.39039 0.0
H650 H 0.12596 0.00778 0.37372 0.0
H651 H 0.07277 0.98903 0.32353 0.0
H652 H 0.05262 0.0667 0.26418 0.0
H653 H 0.07588 0.03994 0.28313 0.0
C654 C 0.39027 0.5314 0.85858 0.0
C655 C 0.35741 0.52974 0.86843 0.0
C656 C 0.40244 0.51496 0.8486 0.0
C657 C 0.38834 0.45894 0.84197 0.0
H658 H 0.43812 0.47073 0.79853 0.0
C659 C 0.46038 0.39597 0.80214 0.0
C660 C 0.46104 0.39774 0.78405 0.0
C661 C 0.4464 0.41175 0.81236 0.0
C662 C 0.42377 0.46707 0.81048 0.0
H663 H 0.31129 0.50979 0.87559 0.0
H664 H 0.33156 0.48127 0.85766 0.0
H665 H 0.41573 0.49863 0.8162 0.0
H666 H 0.44644 0.41719 0.76244 0.0
H667 H 0.42017 0.44422 0.78015 0.0
H668 H 0.39473 0.42734 0.83581 0.0
C669 C 0.34873 0.49499 0.85798 0.0
C670 C 0.41151 0.48317 0.82083 0.0
C671 C 0.33695 0.51133 0.86821 0.0
C672 C 0.44632 0.41535 0.77636 0.0
C673 C 0.4317 0.43099 0.78656 0.0
C674 C 0.40007 0.44283 0.83148 0.0
C675 C 0.38159 0.4966 0.84797 0.0
C676 C 0.39392 0.47935 0.8368 0.0
C677 C 0.432 0.42954 0.80472 0.0
C678 C 0.41823 0.44667 0.81565 0.0
H679 H 0.40671 0.5454 0.85869 0.0
H680 H 0.42834 0.51667 0.84145 0.0
H681 H 0.37532 0.45533 0.85425 0.0
H682 H 0.47123 0.38249 0.80845 0.0
H683 H 0.44767 0.41013 0.82627 0.0
C684 C 0.66565 0.50927 0.63624 0.0
C685 C 0.65239 0.52909 0.63922 0.0
C686 C 0.65408 0.49301 0.64678 0.0
C687 C 0.60996 0.48232 0.68959 0.0
H688 H 0.59453 0.42816 0.67039 0.0
C689 C 0.53183 0.41754 0.72572 0.0
C690 C 0.54881 0.39829 0.72574 0.0
C691 C 0.54609 0.43331 0.7154 0.0
C692 C 0.59907 0.44318 0.67594 0.0
H693 H 0.61566 0.54734 0.65513 0.0
H694 H 0.59451 0.519 0.67315 0.0
H695 H 0.61533 0.456 0.6516 0.0
H696 H 0.59368 0.38029 0.71492 0.0
H697 H 0.61861 0.4079 0.69676 0.0
H698 H 0.59256 0.46951 0.71382 0.0
C699 C 0.61482 0.516 0.66309 0.0
C700 C 0.6111 0.45914 0.6652 0.0
C701 C 0.62675 0.53226 0.6527 0.0
C702 C 0.58029 0.39506 0.71524 0.0
C703 C 0.59434 0.41077 0.70477 0.0
C704 C 0.59749 0.46643 0.70025 0.0
C705 C 0.62861 0.49617 0.66041 0.0
C706 C 0.61654 0.47898 0.67186 0.0
C707 C 0.57736 0.43006 0.70475 0.0
C708 C 0.59179 0.44672 0.69352 0.0
H709 H 0.68573 0.50644 0.62604 0.0
H710 H 0.66574 0.47805 0.64445 0.0
H711 H 0.61466 0.49723 0.69531 0.0
H712 H 0.50759 0.42045 0.73374 0.0
H713 H 0.53227 0.44797 0.71553 0.0
C714 C 0.87079 0.95439 0.15346 0.0
C715 C 0.84455 0.95759 0.14023 0.0
C716 C 0.88277 0.97057 0.16393 0.0
C717 C 0.88744 0.0272 0.16568 0.0
H718 H 0.90799 0.01751 0.21422 0.0
C719 C 0.92665 0.09211 0.21345 0.0
C720 C 0.95784 0.08833 0.22399 0.0
C721 C 0.9105 0.07637 0.20368 0.0
C722 C 0.90251 0.0204 0.20067 0.0
H723 H 0.80987 0.9802 0.12774 0.0
H724 H 0.83023 0.00845 0.1462 0.0
H725 H 0.88388 0.9897 0.19628 0.0
H726 H 0.99641 0.06518 0.23277 0.0
H727 H 0.96827 0.03766 0.21566 0.0
H728 H 0.90589 0.05799 0.1702 0.0
C729 C 0.84222 0.99352 0.14827 0.0
C730 C 0.88883 0.00446 0.19036 0.0
C731 C 0.83047 0.97734 0.13771 0.0
C732 C 0.97248 0.06852 0.22467 0.0
C733 C 0.95616 0.05275 0.21502 0.0
C734 C 0.90082 0.04318 0.17605 0.0
C735 C 0.86856 0.99035 0.16152 0.0
C736 C 0.88153 0.00758 0.17267 0.0
C737 C 0.92515 0.05653 0.20434 0.0
C738 C 0.90889 0.03989 0.1936 0.0
H739 H 0.88252 0.93939 0.15555 0.0
H740 H 0.90365 0.96762 0.17374 0.0
H741 H 0.88267 0.03012 0.15209 0.0
H742 H 0.91503 0.10731 0.2126 0.0
H743 H 0.88645 0.07969 0.19565 0.0
C744 C 0.86112 0.01052 0.63049 0.0
C745 C 0.85052 0.02922 0.63789 0.0
C746 C 0.87321 -0.00559 0.64091 0.0
C747 C 0.90914 0.98333 0.68506 0.0
H748 H 0.88228 0.92751 0.6732 0.0
C749 C 0.9366 0.91505 0.73066 0.0
C750 C 0.95424 0.89824 0.72296 0.0
C751 C 0.92253 0.93085 0.72044 0.0
C752 C 0.8901 0.94303 0.67662 0.0
H753 H 0.84513 0.04566 0.66214 0.0
H754 H 0.86449 0.01744 0.68026 0.0
H755 H 0.86078 0.95549 0.655 0.0
H756 H 0.97003 0.88456 0.69847 0.0
H757 H 0.94508 0.91199 0.68071 0.0
H758 H 0.93795 0.97077 0.70684 0.0
C759 C 0.86415 0.01527 0.66638 0.0
C760 C 0.87798 0.95907 0.66615 0.0
C761 C 0.85243 0.0314 0.65597 0.0
C762 C 0.95673 0.89733 0.70483 0.0
C763 C 0.94225 0.91297 0.69463 0.0
C764 C 0.92089 0.9673 0.69562 0.0
C765 C 0.87478 -0.00344 0.65901 0.0
C766 C 0.88748 0.97943 0.67019 0.0
C767 C 0.92535 0.92998 0.70233 0.0
C768 C 0.91164 0.947 0.69146 0.0
H769 H 0.85969 0.0082 0.61664 0.0
H770 H 0.88165 0.98034 0.63474 0.0
H771 H 0.91762 -0.00125 0.68843 0.0
H772 H 0.93432 0.91623 0.74459 0.0
H773 H 0.90937 0.94373 0.7267 0.0
C774 C 0.68355 0.47278 0.14332 0.0
C775 C 0.65913 0.45841 0.13574 0.0
C776 C 0.66964 0.4885 0.15367 0.0
C777 C 0.58172 0.51582 0.16481 0.0
H778 H 0.63939 0.53303 0.20479 0.0
C779 C 0.54016 0.58608 0.2054 0.0
C780 C 0.54619 0.58552 0.22335 0.0
C781 C 0.5538 0.57061 0.19472 0.0
C782 C 0.62264 0.52828 0.19381 0.0
H783 H 0.60102 0.44914 0.13313 0.0
H784 H 0.57669 0.47621 0.15151 0.0
H785 H 0.66279 0.50591 0.18639 0.0
H786 H 0.57077 0.56803 0.2442 0.0
H787 H 0.59356 0.54072 0.22568 0.0
H788 H 0.54083 0.5376 0.17263 0.0
C789 C 0.60655 0.47574 0.14914 0.0
C790 C 0.63641 0.5129 0.18305 0.0
C791 C 0.62046 0.46016 0.13863 0.0
C792 C 0.56587 0.56901 0.2304 0.0
C793 C 0.57916 0.5534 0.21974 0.0
C794 C 0.56777 0.53105 0.17566 0.0
C795 C 0.63096 0.4901 0.15687 0.0
C796 C 0.61621 0.5065 0.16835 0.0
C797 C 0.57346 0.55402 0.20173 0.0
C798 C 0.58809 0.53755 0.19029 0.0
H799 H 0.71347 0.47195 0.14115 0.0
H800 H 0.68927 0.49949 0.15906 0.0
H801 H 0.56552 0.51152 0.15352 0.0
H802 H 0.52542 0.59867 0.1995 0.0
H803 H 0.54943 0.57188 0.18092 0.0
C804 C 0.37997 0.45526 0.35432 0.0
C805 C 0.34961 0.45807 0.36557 0.0
C806 C 0.39312 0.47137 0.34408 0.0
C807 C 0.38996 0.52796 0.33973 0.0
H808 H 0.42834 0.51633 0.29389 0.0
C809 C 0.43039 0.59069 0.29001 0.0
C810 C 0.46605 0.58858 0.28256 0.0
C811 C 0.41482 0.5749 0.29991 0.0
C812 C 0.41782 0.51976 0.3067 0.0
H813 H 0.30884 0.47977 0.37483 0.0
H814 H 0.33096 0.5078 0.35657 0.0
H815 H 0.40308 0.48857 0.31151 0.0
H816 H 0.5131 0.56822 0.27937 0.0
H817 H 0.48569 0.54056 0.29656 0.0
H818 H 0.40412 0.55929 0.33461 0.0
C819 C 0.34537 0.49334 0.35595 0.0
C820 C 0.40352 0.50386 0.31686 0.0
C821 C 0.33256 0.47728 0.36638 0.0
C822 C 0.4857 0.57034 0.28507 0.0
C823 C 0.46992 0.55446 0.29477 0.0
C824 C 0.40379 0.5439 0.32945 0.0
C825 C 0.37587 0.49061 0.34467 0.0
C826 C 0.38978 0.5077 0.3336 0.0
C827 C 0.43442 0.55663 0.30235 0.0
C828 C 0.4182 0.5399 0.31292 0.0
H829 H 0.39391 0.44066 0.35363 0.0
H830 H 0.41717 0.46876 0.33588 0.0
H831 H 0.38021 0.5315 0.35263 0.0
H832 H 0.41465 0.60461 0.28834 0.0
H833 H 0.3873 0.57689 0.30553 0.0
C834 C 0.14443 0.03254 0.84856 0.0
C835 C 0.15271 0.02982 0.86619 0.0
C836 C 0.13198 0.01613 0.83846 0.0
C837 C 0.08748 0.96515 0.84133 0.0
H838 H 0.12609 0.9588 0.79478 0.0
C839 C 0.05364 0.89426 0.79933 0.0
C840 C 0.04567 0.89778 0.7818 0.0
C841 C 0.06746 0.91004 0.80977 0.0
C842 C 0.11475 0.96048 0.80769 0.0
H843 H 0.15466 0.00758 0.88694 0.0
H844 H 0.13273 0.97893 0.8693 0.0
H845 H 0.14871 0.98693 0.81277 0.0
H846 H 0.04467 0.92068 0.76162 0.0
H847 H 0.06911 0.94821 0.77975 0.0
H848 H 0.0533 0.93878 0.83619 0.0
C849 C 0.13551 0.99385 0.86336 0.0
C850 C 0.12772 0.97659 0.818 0.0
C851 C 0.14805 0.01027 0.87347 0.0
C852 C 0.05151 0.9174 0.77496 0.0
C853 C 0.06541 0.93318 0.78537 0.0
C854 C 0.07445 0.94905 0.831 0.0
C855 C 0.12741 -0.00342 0.84573 0.0
C856 C 0.11414 0.97917 0.83492 0.0
C857 C 0.07351 0.92969 0.80292 0.0
C858 C 0.08784 0.94657 0.81403 0.0
H859 H 0.14703 0.04745 0.8426 0.0
H860 H 0.12537 0.01884 0.82499 0.0
H861 H 0.07609 0.96687 0.85422 0.0
H862 H 0.04939 0.87926 0.80495 0.0
H863 H 0.07373 0.9068 0.82319 0.0
C864 C 0.16129 0.13883 0.01576 0.0
C865 C 0.16509 0.12074 0.00609 0.0
C866 C 0.15514 0.13802 0.03365 0.0
C867 C 0.16836 0.10367 0.07098 0.0
H868 H 0.09733 0.13866 0.09433 0.0
C869 C 0.12963 0.08893 0.1414 0.0
C870 C 0.12965 0.10578 0.15263 0.0
C871 C 0.13036 0.09174 0.12353 0.0
C872 C 0.11748 0.12891 0.088 0.0
H873 H 0.16558 0.08765 0.00776 0.0
H874 H 0.15412 0.08626 0.03868 0.0
H875 H 0.10654 0.1419 0.06304 0.0
H876 H 0.12828 0.13881 0.154 0.0
H877 H 0.12981 0.14381 0.12255 0.0
H878 H 0.17949 0.09069 0.09574 0.0
C879 C 0.15622 0.10109 0.03252 0.0
C880 C 0.1228 0.13079 0.07009 0.0
C881 C 0.16232 0.10188 0.01471 0.0
C882 C 0.12815 0.12556 0.1456 0.0
C883 C 0.12906 0.1284 0.12762 0.0
C884 C 0.16305 0.1018 0.08877 0.0
C885 C 0.15288 0.11912 0.04226 0.0
C886 C 0.148 0.11799 0.06136 0.0
C887 C 0.13136 0.11149 0.11642 0.0
C888 C 0.13722 0.11419 0.09749 0.0
H889 H 0.16295 0.1536 0.00949 0.0
H890 H 0.1529 0.1522 0.04078 0.0
H891 H 0.18867 0.09393 0.06476 0.0
H892 H 0.13016 0.0735 0.14647 0.0
H893 H 0.13107 0.07838 0.11527 0.0
C894 C 0.30076 0.36483 0.52026 0.0
C895 C 0.32352 0.37414 0.50762 0.0
C896 C 0.31164 0.36487 0.53766 0.0
C897 C 0.39463 0.37191 0.56601 0.0
H898 H 0.32094 0.38399 0.60129 0.0
C899 C 0.43594 0.3946 0.63554 0.0
C900 C 0.41449 0.38656 0.64922 0.0
C901 C 0.42475 0.39167 0.6184 0.0
C902 C 0.34177 0.38033 0.59162 0.0
H903 H 0.37605 0.39029 0.50334 0.0
H904 H 0.39453 0.39076 0.53359 0.0
H905 H 0.30148 0.38122 0.57113 0.0
H906 H 0.36436 0.36917 0.6556 0.0
H907 H 0.34501 0.36388 0.62563 0.0
H908 H 0.43499 0.3713 0.58646 0.0
C909 C 0.36843 0.38327 0.5301 0.0
C910 C 0.33061 0.37872 0.57433 0.0
C911 C 0.35757 0.38324 0.51276 0.0
C912 C 0.38167 0.37542 0.64535 0.0
C913 C 0.37038 0.37256 0.62819 0.0
C914 C 0.40578 0.37356 0.58327 0.0
C915 C 0.34558 0.37414 0.54278 0.0
C916 C 0.35698 0.37471 0.56129 0.0
C917 C 0.39177 0.38068 0.61452 0.0
C918 C 0.37956 0.37799 0.59626 0.0
H919 H 0.27426 0.35778 0.51676 0.0
H920 H 0.29354 0.35753 0.54707 0.0
H921 H 0.41555 0.36841 0.55634 0.0
H922 H 0.46157 0.40307 0.63808 0.0
H923 H 0.44166 0.3983 0.60818 0.0
C924 C 0.67723 0.37448 0.98704 0.0
C925 C 0.68029 0.35788 0.9985 0.0
C926 C 0.66722 0.37133 0.96973 0.0
C927 C 0.62065 0.33345 0.94113 0.0
H928 H 0.66676 0.36502 0.90429 0.0
C929 C 0.56576 0.32831 0.87139 0.0
C930 C 0.59235 0.32738 0.85802 0.0
C931 C 0.57661 0.3333 0.88823 0.0
C932 C 0.65378 0.35598 0.91441 0.0
H933 H 0.67506 0.32492 1.00061 0.0
H934 H 0.65861 0.31941 0.97044 0.0
H935 H 0.68642 0.37064 0.93417 0.0
H936 H 0.65109 0.33147 0.85177 0.0
H937 H 0.67024 0.33998 0.88128 0.0
H938 H 0.58875 0.31839 0.92144 0.0
C939 C 0.66344 0.33492 0.97487 0.0
C940 C 0.66475 0.35937 0.93157 0.0
C941 C 0.67338 0.33806 0.99215 0.0
C942 C 0.62993 0.33218 0.86178 0.0
C943 C 0.64086 0.33709 0.87869 0.0
C944 C 0.60975 0.33005 0.92401 0.0
C945 C 0.66001 0.35151 0.96344 0.0
C946 C 0.64836 0.3481 0.94515 0.0
C947 C 0.61439 0.3374 0.89219 0.0
C948 C 0.6261 0.34127 0.91041 0.0
H949 H 0.68278 0.38993 0.99141 0.0
H950 H 0.66453 0.38449 0.96135 0.0
H951 H 0.60704 0.32467 0.95124 0.0
H952 H 0.53646 0.32509 0.86883 0.0
H953 H 0.55531 0.33387 0.89818 0.0
C954 C 0.833 0.11054 0.48677 0.0
C955 C 0.83386 0.12719 0.49829 0.0
C956 C 0.84038 0.1134 0.46915 0.0
C957 C 0.83786 0.15329 0.43568 0.0
H958 H 0.89871 0.11618 0.4088 0.0
C959 C 0.87561 0.17216 0.36558 0.0
C960 C 0.87319 0.15631 0.35339 0.0
C961 C 0.87454 0.16793 0.38325 0.0
C962 C 0.88136 0.12658 0.41609 0.0
H963 H 0.84485 0.15977 0.50034 0.0
H964 H 0.85731 0.16475 0.46969 0.0
H965 H 0.88918 0.10992 0.43969 0.0
H966 H 0.86933 0.12351 0.3501 0.0
H967 H 0.86676 0.11602 0.38111 0.0
H968 H 0.82935 0.16978 0.41223 0.0
C969 C 0.85032 0.14953 0.47422 0.0
C970 C 0.87593 0.12299 0.43379 0.0
C971 C 0.84308 0.14667 0.49181 0.0
C972 C 0.87139 0.13601 0.35924 0.0
C973 C 0.86996 0.13175 0.377 0.0
C974 C 0.84311 0.15681 0.41805 0.0
C975 C 0.84865 0.13299 0.46264 0.0
C976 C 0.85432 0.13641 0.4438 0.0
C977 C 0.87058 0.14772 0.38922 0.0
C978 C 0.86516 0.14362 0.40802 0.0
H979 H 0.82566 0.09536 0.49129 0.0
H980 H 0.83855 0.10038 0.46053 0.0
H981 H 0.82039 0.16368 0.44293 0.0
H982 H 0.87763 0.18794 0.36141 0.0
H983 H 0.87618 0.18058 0.39225 0.0
C984 C 0.79814 0.86978 0.98357 0.0
C985 C 0.8239 0.87488 0.99666 0.0
C986 C 0.80884 0.87047 0.96614 0.0
C987 C 0.88074 0.89394 0.93761 0.0
H988 H 0.84648 0.85384 0.9041 0.0
C989 C 0.94363 0.89059 0.86946 0.0
C990 C 0.91857 0.88874 0.85551 0.0
C991 C 0.93137 0.88764 0.88642 0.0
C992 C 0.85601 0.86524 0.91329 0.0
H993 H 0.88152 0.88369 1.00179 0.0
H994 H 0.90027 0.88465 0.97157 0.0
H995 H 0.82631 0.85103 0.93425 0.0
H996 H 0.86107 0.8817 0.8485 0.0
H997 H 0.83966 0.8764 0.87822 0.0
H998 H 0.91057 0.90808 0.91678 0.0
C999 C 0.87151 0.88069 0.97464 0.0
C1000 C 0.84442 0.86366 0.93056 0.0
C1001 C 0.86079 0.88011 0.99199 0.0
C1002 C 0.88116 0.8831 0.85893 0.0
C1003 C 0.86888 0.88009 0.87595 0.0
C1004 C 0.89241 0.89545 0.92044 0.0
C1005 C 0.84559 0.87618 0.96146 0.0
C1006 C 0.8569 0.87792 0.94296 0.0
C1007 C 0.89373 0.8827 0.88991 0.0
C1008 C 0.88045 0.88106 0.90809 0.0
H1009 H 0.76946 0.8658 0.98677 0.0
H1010 H 0.78807 0.86706 0.95633 0.0
H1011 H 0.89019 0.90549 0.94669 0.0
H1012 H 0.97282 0.89444 0.86728 0.0
H1013 H 0.95141 0.88933 0.89685 0.0
C1014 C 0.67447 0.60416 0.48846 0.0
C1015 C 0.67427 0.62185 0.4988 0.0
C1016 C 0.66725 0.60529 0.47072 0.0
C1017 C 0.67013 0.64115 0.43402 0.0
H1018 H 0.61372 0.59827 0.41082 0.0
C1019 C 0.68161 0.62559 0.36096 0.0
C1020 C 0.64975 0.61895 0.35181 0.0
C1021 C 0.68019 0.62853 0.37883 0.0
C1022 C 0.62908 0.61053 0.4171 0.0
H1023 H 0.66542 0.65459 0.49851 0.0
H1024 H 0.65307 0.65658 0.46752 0.0
H1025 H 0.61891 0.59802 0.44227 0.0
H1026 H 0.59095 0.61097 0.35412 0.0
H1027 H 0.58832 0.61623 0.38548 0.0
H1028 H 0.68053 0.65358 0.40884 0.0
C1029 C 0.65924 0.64184 0.47315 0.0
C1030 C 0.63246 0.61025 0.43512 0.0
C1031 C 0.6664 0.6407 0.49092 0.0
C1032 C 0.61592 0.61615 0.36083 0.0
C1033 C 0.61453 0.61897 0.37879 0.0
C1034 C 0.66684 0.6414 0.41599 0.0
C1035 C 0.65969 0.62416 0.46282 0.0
C1036 C 0.65356 0.62536 0.44379 0.0
C1037 C 0.64686 0.62485 0.38804 0.0
C1038 C 0.64683 0.6259 0.40728 0.0
H1039 H 0.68104 0.58943 0.49401 0.0
H1040 H 0.66852 0.59142 0.46312 0.0
H1041 H 0.68675 0.65297 0.44024 0.0
H1042 H 0.708 0.62805 0.35433 0.0
H1043 H 0.70569 0.63288 0.38552 0.0
C1044 C 0.36644 0.62732 0.01054 0.0
C1045 C 0.32849 0.62663 0.00581 0.0
C1046 C 0.37688 0.63027 0.02776 0.0
C1047 C 0.34068 0.64846 0.07011 0.0
H1048 H 0.42964 0.62179 0.08745 0.0
C1049 C 0.38631 0.65101 0.14211 0.0
C1050 C 0.42394 0.65658 0.14492 0.0
C1051 C 0.37352 0.64646 0.12544 0.0
C1052 C 0.40482 0.62939 0.08275 0.0
H1053 H 0.27163 0.6283 0.0154 0.0
H1054 H 0.28971 0.6329 0.04564 0.0
H1055 H 0.40887 0.61524 0.05793 0.0
H1056 H 0.47785 0.6613 0.13262 0.0
H1057 H 0.45561 0.65305 0.1035 0.0
H1058 H 0.3365 0.6623 0.09516 0.0
C1059 C 0.31154 0.63165 0.03599 0.0
C1060 C 0.39296 0.62574 0.0658 0.0
C1061 C 0.30111 0.62894 0.01868 0.0
C1062 C 0.44866 0.65717 0.1308 0.0
C1063 C 0.436 0.65232 0.11418 0.0
C1064 C 0.3523 0.65189 0.08715 0.0
C1065 C 0.3496 0.63235 0.04077 0.0
C1066 C 0.36102 0.63544 0.05915 0.0
C1067 C 0.39825 0.64708 0.11131 0.0
C1068 C 0.38475 0.64259 0.09356 0.0
H1069 H 0.38816 0.62591 1.00084 0.0
H1070 H 0.40644 0.63121 0.03081 0.0
H1071 H 0.31629 0.65644 0.06542 0.0
H1072 H 0.36663 0.65056 0.15277 0.0
H1073 H 0.34433 0.64236 0.12359 0.0
C1074 C 0.18833 0.86843 0.51702 0.0
C1075 C 0.17537 0.85535 0.50387 0.0
C1076 C 0.17867 0.86478 0.53429 0.0
C1077 C 0.14163 0.82393 0.56337 0.0
H1078 H 0.12399 0.86931 0.59449 0.0
C1079 C 0.0767 0.8138 0.63137 0.0
C1080 C 0.09475 0.82414 0.64504 0.0
C1081 C 0.08666 0.81772 0.6142 0.0
C1082 C 0.1291 0.8565 0.58596 0.0
H1083 H 0.14133 0.82856 0.4984 0.0
H1084 H 0.12357 0.82248 0.52838 0.0
H1085 H 0.14059 0.87604 0.56441 0.0
H1086 H 0.13787 0.84664 0.65117 0.0
H1087 H 0.1544 0.85383 0.62118 0.0
H1088 H 0.12926 0.80444 0.58492 0.0
C1089 C 0.14214 0.8352 0.52552 0.0
C1090 C 0.13876 0.86033 0.56873 0.0
C1091 C 0.15217 0.83872 0.50831 0.0
C1092 C 0.12282 0.83864 0.64103 0.0
C1093 C 0.13245 0.84273 0.62384 0.0
C1094 C 0.13154 0.82012 0.58054 0.0
C1095 C 0.15544 0.8481 0.53878 0.0
C1096 C 0.14519 0.84409 0.55719 0.0
C1097 C 0.11459 0.83225 0.61025 0.0
C1098 C 0.1252 0.83636 0.59202 0.0
H1099 H 0.20657 0.88126 0.51399 0.0
H1100 H 0.18997 0.87487 0.54413 0.0
H1101 H 0.14711 0.81102 0.55502 0.0
H1102 H 0.05448 0.80283 0.6339 0.0
H1103 H 0.0721 0.8096 0.60397 0.0
C1104 C 0.1766 0.275 0.3801 0.0
C1105 C 0.18759 0.29361 0.37243 0.0
C1106 C 0.15685 0.26024 0.37057 0.0
C1107 C 0.10253 0.25329 0.32962 0.0
H1108 H 0.12414 0.19609 0.33717 0.0
C1109 C 0.02521 0.19011 0.29128 0.0
C1110 C 0.046 0.17299 0.28623 0.0
C1111 C 0.04022 0.20435 0.30291 0.0
C1112 C 0.118 0.212 0.33473 0.0
H1113 H 0.18519 0.31137 0.34875 0.0
H1114 H 0.15293 0.28541 0.33201 0.0
H1115 H 0.15499 0.22188 0.35486 0.0
H1116 H 0.09791 0.15683 0.29031 0.0
H1117 H 0.12519 0.18224 0.30948 0.0
H1118 H 0.0673 0.24355 0.30884 0.0
C1119 C 0.15872 0.28228 0.34548 0.0
C1120 C 0.13528 0.22683 0.34512 0.0
C1121 C 0.17796 0.2971 0.35505 0.0
C1122 C 0.08169 0.17019 0.29341 0.0
C1123 C 0.09701 0.18461 0.30477 0.0
C1124 C 0.08571 0.2385 0.31907 0.0
C1125 C 0.14788 0.26362 0.35308 0.0
C1126 C 0.12803 0.24771 0.34262 0.0
C1127 C 0.07656 0.20196 0.30964 0.0
C1128 C 0.09338 0.21764 0.32139 0.0
H1129 H 0.18371 0.27166 0.3934 0.0
H1130 H 0.14855 0.2462 0.37696 0.0
H1131 H 0.0956 0.26916 0.32748 0.0
H1132 H 0.99738 0.19261 0.28618 0.0
H1133 H 0.0232 0.21722 0.30664 0.0
C1134 C 0.32162 0.1917 0.85375 0.0
C1135 C 0.32028 0.19302 0.87191 0.0
C1136 C 0.34076 0.20641 0.84402 0.0
C1137 C 0.37295 0.25948 0.84431 0.0
H1138 H 0.44064 0.24165 0.80823 0.0
C1139 C 0.46039 0.317 0.80387 0.0
C1140 C 0.46496 0.31267 0.7862 0.0
C1141 C 0.44448 0.30247 0.81498 0.0
C1142 C 0.42148 0.24694 0.81808 0.0
H1143 H 0.33807 0.21117 0.89399 0.0
H1144 H 0.37064 0.23723 0.87685 0.0
H1145 H 0.40906 0.21638 0.82635 0.0
H1146 H 0.45804 0.28942 0.76653 0.0
H1147 H 0.42839 0.26454 0.78556 0.0
H1148 H 0.38432 0.28999 0.83575 0.0
C1149 C 0.35688 0.22464 0.87025 0.0
C1150 C 0.40354 0.23243 0.82852 0.0
C1151 C 0.33808 0.20974 0.88004 0.0
C1152 C 0.45392 0.29341 0.77996 0.0
C1153 C 0.43755 0.27899 0.79099 0.0
C1154 C 0.39055 0.27401 0.83373 0.0
C1155 C 0.35864 0.22301 0.85216 0.0
C1156 C 0.3789 0.23854 0.84165 0.0
C1157 C 0.43258 0.28331 0.80867 0.0
C1158 C 0.41486 0.26793 0.82038 0.0
H1159 H 0.30747 0.17939 0.84695 0.0
H1160 H 0.3411 0.20496 0.83007 0.0
H1161 H 0.35382 0.2646 0.85425 0.0
H1162 H 0.46899 0.33165 0.80912 0.0
H1163 H 0.44185 0.30623 0.82856 0.0
C1164 C 0.66468 0.19789 0.63539 0.0
C1165 C 0.70363 0.19548 0.63626 0.0
C1166 C 0.64679 0.21209 0.64601 0.0
C1167 C 0.66216 0.24303 0.68597 0.0
H1168 H 0.57344 0.27092 0.67001 0.0
C1169 C 0.57498 0.29382 0.73168 0.0
C1170 C 0.55816 0.31124 0.72464 0.0
C1171 C 0.59231 0.27955 0.72092 0.0
C1172 C 0.59846 0.26349 0.67465 0.0
H1173 H 0.75467 0.20643 0.64836 0.0
H1174 H 0.72387 0.23182 0.66635 0.0
H1175 H 0.6052 0.24745 0.65081 0.0
H1176 H 0.5471 0.32765 0.70087 0.0
H1177 H 0.57844 0.30334 0.68223 0.0
H1178 H 0.65651 0.25984 0.70949 0.0
C1179 C 0.70675 0.2223 0.65799 0.0
C1180 C 0.61639 0.24971 0.66369 0.0
C1181 C 0.72451 0.20788 0.64759 0.0
C1182 C 0.55941 0.31424 0.70667 0.0
C1183 C 0.57723 0.30018 0.69596 0.0
C1184 C 0.64455 0.25704 0.69684 0.0
C1185 C 0.66756 0.22443 0.65754 0.0
C1186 C 0.64849 0.23925 0.66919 0.0
C1187 C 0.59374 0.28255 0.70289 0.0
C1188 C 0.61242 0.26747 0.69135 0.0
H1189 H 0.64793 0.18833 0.62689 0.0
H1190 H 0.61656 0.21299 0.64545 0.0
H1191 H 0.68639 0.23505 0.69084 0.0
H1192 H 0.57424 0.29103 0.74549 0.0
H1193 H 0.6041 0.26603 0.72676 0.0
C1194 C 0.84784 0.28119 0.12779 0.0
C1195 C 0.82453 0.29574 0.13562 0.0
C1196 C 0.86541 0.2662 0.13775 0.0
C1197 C 0.89653 0.25562 0.18217 0.0
H1198 H 0.89615 0.19885 0.16783 0.0
C1199 C 0.94205 0.19167 0.22834 0.0
C1200 C 0.96234 0.17518 0.22159 0.0
C1201 C 0.92618 0.20613 0.21736 0.0
C1202 C 0.89702 0.21467 0.17191 0.0
H1203 H 0.80061 0.30541 0.16007 0.0
H1204 H 0.83175 0.27961 0.17737 0.0
H1205 H 0.86699 0.22453 0.14944 0.0
H1206 H 0.9816 0.16095 0.19791 0.0
H1207 H 0.95471 0.18653 0.17875 0.0
H1208 H 0.92677 0.24597 0.20451 0.0
C1209 C 0.83679 0.27995 0.16356 0.0
C1210 C 0.88023 0.22937 0.16138 0.0
C1211 C 0.81903 0.2948 0.15362 0.0
C1212 C 0.96628 0.1735 0.20355 0.0
C1213 C 0.95058 0.18809 0.19255 0.0
C1214 C 0.91353 0.24099 0.19262 0.0
C1215 C 0.86029 0.26553 0.15576 0.0
C1216 C 0.87945 0.24997 0.1665 0.0
C1217 C 0.93038 0.20462 0.19933 0.0
C1218 C 0.91363 0.22028 0.18774 0.0
H1219 H 0.85311 0.28157 0.11401 0.0
H1220 H 0.88362 0.25539 0.1314 0.0
H1221 H 0.89696 0.27143 0.18632 0.0
H1222 H 0.93827 0.19343 0.24215 0.0
H1223 H 0.91021 0.2184 0.22306 0.0
C1224 C 0.80767 0.71263 0.63446 0.0
C1225 C 0.82128 0.69258 0.63369 0.0
C1226 C 0.82581 0.72743 0.64459 0.0
C1227 C 0.89112 0.73224 0.68172 0.0
H1228 H 0.89752 0.78889 0.66728 0.0
C1229 C 0.97677 0.79305 0.71945 0.0
C1230 C 0.95942 0.81196 0.72209 0.0
C1231 C 0.96085 0.77858 0.70828 0.0
C1232 C 0.89568 0.77315 0.67154 0.0
H1233 H 0.86551 0.67257 0.64232 0.0
H1234 H 0.89754 0.69841 0.65972 0.0
H1235 H 0.86872 0.7636 0.64814 0.0
H1236 H 0.91245 0.83078 0.71477 0.0
H1237 H 0.88427 0.80542 0.69551 0.0
H1238 H 0.9183 0.74182 0.70508 0.0
C1239 C 0.87228 0.70262 0.6529 0.0
C1240 C 0.87912 0.75864 0.66059 0.0
C1241 C 0.85401 0.68781 0.64287 0.0
C1242 C 0.9261 0.81621 0.71321 0.0
C1243 C 0.91023 0.80178 0.70201 0.0
C1244 C 0.90787 0.74672 0.69261 0.0
C1245 C 0.85814 0.72256 0.6541 0.0
C1246 C 0.8765 0.738 0.66555 0.0
C1247 C 0.92737 0.78278 0.69944 0.0
C1248 C 0.91021 0.76735 0.68768 0.0
H1249 H 0.78228 0.71672 0.62768 0.0
H1250 H 0.81382 0.74254 0.64536 0.0
H1251 H 0.88899 0.71658 0.68614 0.0
H1252 H 0.00246 0.78935 0.72616 0.0
H1253 H 0.97494 0.76416 0.70644 0.0
C1254 C 0.6567 0.7909 0.13353 0.0
C1255 C 0.69517 0.78975 0.13007 0.0
C1256 C 0.63913 0.77618 0.14392 0.0
C1257 C 0.66147 0.73536 0.17606 0.0
H1258 H 0.55662 0.72118 0.16978 0.0
C1259 C 0.58492 0.6673 0.20942 0.0
C1260 C 0.55425 0.6731 0.21962 0.0
C1261 C 0.60215 0.68134 0.19831 0.0
C1262 C 0.5859 0.7251 0.17165 0.0
H1263 H 0.74529 0.77209 0.13405 0.0
H1264 H 0.71449 0.7457 0.15133 0.0
H1265 H 0.58673 0.74525 0.14994 0.0
H1266 H 0.51731 0.69807 0.22607 0.0
H1267 H 0.54635 0.72234 0.2059 0.0
H1268 H 0.66057 0.71444 0.19742 0.0
C1269 C 0.69791 0.75833 0.14672 0.0
C1270 C 0.60319 0.73898 0.16038 0.0
C1271 C 0.71559 0.77331 0.13667 0.0
C1272 C 0.54067 0.69311 0.21824 0.0
C1273 C 0.55729 0.707 0.20678 0.0
C1274 C 0.64436 0.72115 0.18707 0.0
C1275 C 0.65954 0.75973 0.15079 0.0
C1276 C 0.64121 0.74444 0.16248 0.0
C1277 C 0.58832 0.70124 0.19683 0.0
C1278 C 0.60642 0.71603 0.18501 0.0
H1279 H 0.64052 0.80362 0.12872 0.0
H1280 H 0.60978 0.77809 0.14694 0.0
H1281 H 0.69046 0.73945 0.17844 0.0
H1282 H 0.59563 0.6519 0.21004 0.0
H1283 H 0.62599 0.67658 0.19069 0.0
C1284 C 0.32214 0.7743 0.37318 0.0
C1285 C 0.32098 0.79467 0.36739 0.0
C1286 C 0.341 0.75942 0.36365 0.0
C1287 C 0.41151 0.75341 0.3285 0.0
H1288 H 0.36939 0.69869 0.32531 0.0
C1289 C 0.45874 0.69476 0.27752 0.0
C1290 C 0.46588 0.67488 0.28339 0.0
C1291 C 0.44214 0.70904 0.28844 0.0
C1292 C 0.38164 0.71386 0.32623 0.0
H1293 H 0.33958 0.81528 0.34708 0.0
H1294 H 0.37082 0.78928 0.33016 0.0
H1295 H 0.33821 0.7243 0.34301 0.0
H1296 H 0.46138 0.65427 0.3052 0.0
H1297 H 0.43168 0.67926 0.32432 0.0
H1298 H 0.45428 0.74302 0.31127 0.0
C1299 C 0.35783 0.78482 0.34225 0.0
C1300 C 0.36388 0.72855 0.33642 0.0
C1301 C 0.33931 0.79973 0.35185 0.0
C1302 C 0.45614 0.66952 0.30039 0.0
C1303 C 0.43901 0.68375 0.31126 0.0
C1304 C 0.42896 0.7388 0.31817 0.0
C1305 C 0.35896 0.76445 0.34801 0.0
C1306 C 0.37847 0.74857 0.33762 0.0
C1307 C 0.432 0.70368 0.3054 0.0
C1308 C 0.41411 0.71892 0.31686 0.0
H1309 H 0.30802 0.76974 0.38497 0.0
H1310 H 0.34164 0.74397 0.36864 0.0
H1311 H 0.42409 0.76849 0.32939 0.0
H1312 H 0.46631 0.69933 0.26451 0.0
H1313 H 0.43681 0.72424 0.28354 0.0
C1314 C 0.19109 0.71299 0.87313 0.0
C1315 C 0.19493 0.6928 0.86717 0.0
C1316 C 0.17328 0.72764 0.86293 0.0
C1317 C 0.15092 0.73953 0.81779 0.0
H1318 H 0.07671 0.7758 0.83719 0.0
C1319 C 0.0626 0.7928 0.77486 0.0
C1320 C 0.05396 0.81218 0.78141 0.0
C1321 C 0.07981 0.7783 0.7854 0.0
C1322 C 0.09778 0.76601 0.8316 0.0
H1323 H 0.18158 0.6721 0.84605 0.0
H1324 H 0.15135 0.69774 0.8282 0.0
H1325 H 0.10673 0.75059 0.85568 0.0
H1326 H 0.05718 0.83186 0.8039 0.0
H1327 H 0.08806 0.80682 0.82218 0.0
H1328 H 0.14265 0.75508 0.79381 0.0
C1329 C 0.16253 0.70226 0.84067 0.0
C1330 C 0.11487 0.75153 0.8422 0.0
C1331 C 0.17997 0.68758 0.8509 0.0
C1332 C 0.06321 0.81692 0.79859 0.0
C1333 C 0.08072 0.80252 0.80909 0.0
C1334 C 0.13413 0.75413 0.80722 0.0
C1335 C 0.15921 0.72246 0.84652 0.0
C1336 C 0.14147 0.73808 0.83539 0.0
C1337 C 0.08907 0.78297 0.80267 0.0
C1338 C 0.10721 0.76752 0.81397 0.0
H1339 H 0.20263 0.71762 0.88549 0.0
H1340 H 0.17134 0.74316 0.86771 0.0
H1341 H 0.17173 0.72954 0.81224 0.0
H1342 H 0.05547 0.78874 0.76168 0.0
H1343 H 0.08526 0.76332 0.78008 0.0
loop_
_geom_bond_atom_site_label_1
_geom_bond_atom_site_label_2
_geom_bond_distance
_geom_bond_site_symmetry_2
_ccdc_geom_bond_type
C0 C1 1.384 . S
C0 H13 0.947 . S
C0 C35 1.382 . S
C1 C0 1.384 . S
C1 C2 1.378 . S
C2 C1 1.378 . S
C2 C3 1.378 . S
C2 H14 0.952 . S
C3 C2 1.378 . S
C3 H15 0.950 . S
C3 C34 1.383 . S
H4 C23 0.947 . S
H5 C24 0.946 . S
H6 C26 0.953 . S
H7 C27 0.945 . S
H8 C29 0.952 . S
H9 C30 0.949 . S
H10 C32 0.950 . S
H11 C33 0.948 . S
H12 C35 0.951 . S
H13 C0 0.947 . S
H14 C2 0.952 . S
H15 C3 0.950 . S
N16 C19 1.382 . S
N16 C21 1.363 . S
N17 C19 1.371 . S
N17 C20 1.372 . S
N18 C20 1.361 . S
N18 C21 1.377 . S
C19 N16 1.382 . S
C19 N17 1.371 . S
C19 C22 1.480 . S
C20 N17 1.372 . S
C20 N18 1.361 . S
C20 C28 1.457 . S
C21 N16 1.363 . S
C21 N18 1.377 . S
C21 C34 1.479 . S
C22 C19 1.480 . S
C22 C23 1.383 . S
C22 C27 1.385 . S
C23 H4 0.947 . S
C23 C22 1.383 . S
C23 C24 1.388 . S
C24 H5 0.946 . S
C24 C23 1.388 . S
C24 C25 1.384 . S
C25 C24 1.384 . S
C25 C26 1.377 . S
C26 H6 0.953 . S
C26 C25 1.377 . S
C26 C27 1.369 . S
C27 H7 0.945 . S
C27 C22 1.385 . S
C27 C26 1.369 . S
C28 C20 1.457 . S
C28 C29 1.372 . S
C28 C33 1.364 . S
C29 H8 0.952 . S
C29 C28 1.372 . S
C29 C30 1.389 . S
C30 H9 0.949 . S
C30 C29 1.389 . S
C30 C31 1.387 . S
C31 C30 1.387 . S
C31 C32 1.372 . S
C32 H10 0.950 . S
C32 C31 1.372 . S
C32 C33 1.379 . S
C33 H11 0.948 . S
C33 C28 1.364 . S
C33 C32 1.379 . S
C34 C3 1.383 . S
C34 C21 1.479 . S
C34 C35 1.398 . S
C35 C0 1.382 . S
C35 H12 0.951 . S
C35 C34 1.398 . S
C36 C37 1.384 . S
C36 H49 0.947 . S
C36 C71 1.382 . S
C37 C36 1.384 . S
C37 C38 1.378 . S
C38 C37 1.378 . S
C38 C39 1.378 . S
C38 H50 0.952 . S
C39 C38 1.378 . S
C39 H51 0.950 . S
C39 C70 1.383 . S
H40 C59 0.947 . S
H41 C60 0.946 . S
H42 C62 0.953 . S
H43 C63 0.945 . S
H44 C65 0.952 . S
H45 C66 0.949 . S
H46 C68 0.950 . S
H47 C69 0.948 . S
H48 C71 0.951 . S
H49 C36 0.947 . S
H50 C38 0.952 . S
H51 C39 0.950 . S
N52 C55 1.382 . S
N52 C57 1.363 . S
N53 C55 1.371 . S
N53 C56 1.372 . S
N54 C56 1.361 . S
N54 C57 1.377 . S
C55 N52 1.382 . S
C55 N53 1.371 . S
C55 C58 1.480 . S
C56 N53 1.372 . S
C56 N54 1.361 . S
C56 C64 1.457 . S
C57 N52 1.363 . S
C57 N54 1.377 . S
C57 C70 1.479 . S
C58 C55 1.480 . S
C58 C59 1.383 . S
C58 C63 1.385 . S
C59 H40 0.947 . S
C59 C58 1.383 . S
C59 C60 1.388 . S
C60 H41 0.946 . S
C60 C59 1.388 . S
C60 C61 1.384 . S
C61 C60 1.384 . S
C61 C62 1.377 . S
C62 H42 0.953 . S
C62 C61 1.377 . S
C62 C63 1.369 . S
C63 H43 0.945 . S
C63 C58 1.385 . S
C63 C62 1.369 . S
C64 C56 1.457 . S
C64 C65 1.372 . S
C64 C69 1.364 . S
C65 H44 0.952 . S
C65 C64 1.372 . S
C65 C66 1.389 . S
C66 H45 0.949 . S
C66 C65 1.389 . S
C66 C67 1.387 . S
C67 C66 1.387 . S
C67 C68 1.372 . S
C68 H46 0.950 . S
C68 C67 1.372 . S
C68 C69 1.379 . S
C69 H47 0.948 . S
C69 C64 1.364 . S
C69 C68 1.379 . S
C70 C39 1.383 . S
C70 C57 1.479 . S
C70 C71 1.398 . S
C71 C36 1.382 . S
C71 H48 0.951 . S
C71 C70 1.398 . S
C72 C73 1.384 . S
C72 H85 0.947 . S
C72 C107 1.382 . S
C73 C72 1.384 . S
C73 C74 1.378 . S
C74 C73 1.378 . S
C74 C75 1.378 . S
C74 H86 0.952 . S
C75 C74 1.378 . S
C75 H87 0.950 . S
C75 C106 1.383 . S
H76 C95 0.947 . S
H77 C96 0.946 . S
H78 C98 0.953 . S
H79 C99 0.945 . S
H80 C101 0.952 . S
H81 C102 0.949 . S
H82 C104 0.950 . S
H83 C105 0.948 . S
H84 C107 0.951 . S
H85 C72 0.947 . S
H86 C74 0.952 . S
H87 C75 0.950 . S
N88 C91 1.382 . S
N88 C93 1.363 . S
N89 C91 1.371 . S
N89 C92 1.372 . S
N90 C92 1.361 . S
N90 C93 1.377 . S
C91 N88 1.382 . S
C91 N89 1.371 . S
C91 C94 1.480 . S
C92 N89 1.372 . S
C92 N90 1.361 . S
C92 C100 1.457 . S
C93 N88 1.363 . S
C93 N90 1.377 . S
C93 C106 1.479 . S
C94 C91 1.480 . S
C94 C95 1.383 . S
C94 C99 1.385 . S
C95 H76 0.947 . S
C95 C94 1.383 . S
C95 C96 1.388 . S
C96 H77 0.946 . S
C96 C95 1.388 . S
C96 C97 1.384 . S
C97 C96 1.384 . S
C97 C98 1.377 . S
C98 H78 0.953 . S
C98 C97 1.377 . S
C98 C99 1.369 . S
C99 H79 0.945 . S
C99 C94 1.385 . S
C99 C98 1.369 . S
C100 C92 1.457 . S
C100 C101 1.372 . S
C100 C105 1.364 . S
C101 H80 0.952 . S
C101 C100 1.372 . S
C101 C102 1.389 . S
C102 H81 0.949 . S
C102 C101 1.389 . S
C102 C103 1.387 . S
C103 C102 1.387 . S
C103 C104 1.372 . S
C104 H82 0.950 . S
C104 C103 1.372 . S
C104 C105 1.379 . S
C105 H83 0.948 . S
C105 C100 1.364 . S
C105 C104 1.379 . S
C106 C75 1.383 . S
C106 C93 1.479 . S
C106 C107 1.398 . S
C107 C72 1.382 . S
C107 H84 0.951 . S
C107 C106 1.398 . S
C108 C109 1.384 . S
C108 H121 0.947 . S
C108 C143 1.382 . S
C109 C108 1.384 . S
C109 C110 1.378 . S
C110 C109 1.378 . S
C110 C111 1.378 . S
C110 H122 0.952 . S
C111 C110 1.378 . S
C111 H123 0.950 . S
C111 C142 1.383 . S
H112 C131 0.947 . S
H113 C132 0.946 . S
H114 C134 0.953 . S
H115 C135 0.945 . S
H116 C137 0.952 . S
H117 C138 0.949 . S
H118 C140 0.950 . S
H119 C141 0.948 . S
H120 C143 0.951 . S
H121 C108 0.947 . S
H122 C110 0.952 . S
H123 C111 0.950 . S
N124 C127 1.382 . S
N124 C129 1.363 . S
N125 C127 1.371 . S
N125 C128 1.372 . S
N126 C128 1.361 . S
N126 C129 1.377 . S
C127 N124 1.382 . S
C127 N125 1.371 . S
C127 C130 1.480 . S
C128 N125 1.372 . S
C128 N126 1.361 . S
C128 C136 1.457 . S
C129 N124 1.363 . S
C129 N126 1.377 . S
C129 C142 1.479 . S
C130 C127 1.480 . S
C130 C131 1.383 . S
C130 C135 1.385 . S
C131 H112 0.947 . S
C131 C130 1.383 . S
C131 C132 1.388 . S
C132 H113 0.946 . S
C132 C131 1.388 . S
C132 C133 1.384 . S
C133 C132 1.384 . S
C133 C134 1.377 . S
C134 H114 0.953 . S
C134 C133 1.377 . S
C134 C135 1.369 . S
C135 H115 0.945 . S
C135 C130 1.385 . S
C135 C134 1.369 . S
C136 C128 1.457 . S
C136 C137 1.372 . S
C136 C141 1.364 . S
C137 H116 0.952 . S
C137 C136 1.372 . S
C137 C138 1.389 . S
C138 H117 0.949 . S
C138 C137 1.389 . S
C138 C139 1.387 . S
C139 C138 1.387 . S
C139 C140 1.372 . S
C140 H118 0.950 . S
C140 C139 1.372 . S
C140 C141 1.379 . S
C141 H119 0.948 . S
C141 C136 1.364 . S
C141 C140 1.379 . S
C142 C111 1.383 . S
C142 C129 1.479 . S
C142 C143 1.398 . S
C143 C108 1.382 . S
C143 H120 0.951 . S
C143 C142 1.398 . S
C144 C145 1.384 . S
C144 H157 0.947 . S
C144 C179 1.382 . S
C145 C144 1.384 . S
C145 C146 1.378 . S
C146 C145 1.378 . S
C146 C147 1.378 . S
C146 H158 0.952 . S
C147 C146 1.378 . S
C147 H159 0.950 . S
C147 C178 1.383 . S
H148 C167 0.947 . S
H149 C168 0.946 . S
H150 C170 0.953 . S
H151 C171 0.945 . S
H152 C173 0.952 . S
H153 C174 0.949 . S
H154 C176 0.950 . S
H155 C177 0.948 . S
H156 C179 0.951 . S
H157 C144 0.947 . S
H158 C146 0.952 . S
H159 C147 0.950 . S
N160 C163 1.382 . S
N160 C165 1.363 . S
N161 C163 1.371 . S
N161 C164 1.372 . S
N162 C164 1.361 . S
N162 C165 1.377 . S
C163 N160 1.382 . S
C163 N161 1.371 . S
C163 C166 1.480 . S
C164 N161 1.372 . S
C164 N162 1.361 . S
C164 C172 1.457 . S
C165 N160 1.363 . S
C165 N162 1.377 . S
C165 C178 1.479 . S
C166 C163 1.480 . S
C166 C167 1.383 . S
C166 C171 1.385 . S
C167 H148 0.947 . S
C167 C166 1.383 . S
C167 C168 1.388 . S
C168 H149 0.946 . S
C168 C167 1.388 . S
C168 C169 1.384 . S
C169 C168 1.384 . S
C169 C170 1.377 . S
C170 H150 0.953 . S
C170 C169 1.377 . S
C170 C171 1.369 . S
C171 H151 0.945 . S
C171 C166 1.385 . S
C171 C170 1.369 . S
C172 C164 1.457 . S
C172 C173 1.372 . S
C172 C177 1.364 . S
C173 H152 0.952 . S
C173 C172 1.372 . S
C173 C174 1.389 . S
C174 H153 0.949 . S
C174 C173 1.389 . S
C174 C175 1.387 . S
C175 C174 1.387 . S
C175 C176 1.372 . S
C176 H154 0.950 . S
C176 C175 1.372 . S
C176 C177 1.379 . S
C177 H155 0.948 . S
C177 C172 1.364 . S
C177 C176 1.379 . S
C178 C147 1.383 . S
C178 C165 1.479 . S
C178 C179 1.398 . S
C179 C144 1.382 . S
C179 H156 0.951 . S
C179 C178 1.398 . S
C180 C181 1.384 . S
C180 H193 0.947 . S
C180 C215 1.382 . S
C181 C180 1.384 . S
C181 C182 1.378 . S
C182 C181 1.378 . S
C182 C183 1.378 . S
C182 H194 0.952 . S
C183 C182 1.378 . S
C183 H195 0.950 . S
C183 C214 1.383 . S
H184 C203 0.947 . S
H185 C204 0.946 . S
H186 C206 0.953 . S
H187 C207 0.945 . S
H188 C209 0.952 . S
H189 C210 0.949 . S
H190 C212 0.950 . S
H191 C213 0.948 . S
H192 C215 0.951 . S
H193 C180 0.947 . S
H194 C182 0.952 . S
H195 C183 0.950 . S
N196 C199 1.382 . S
N196 C201 1.363 . S
N197 C199 1.371 . S
N197 C200 1.372 . S
N198 C200 1.361 . S
N198 C201 1.377 . S
C199 N196 1.382 . S
C199 N197 1.371 . S
C199 C202 1.480 . S
C200 N197 1.372 . S
C200 N198 1.361 . S
C200 C208 1.457 . S
C201 N196 1.363 . S
C201 N198 1.377 . S
C201 C214 1.479 . S
C202 C199 1.480 . S
C202 C203 1.383 . S
C202 C207 1.385 . S
C203 H184 0.947 . S
C203 C202 1.383 . S
C203 C204 1.388 . S
C204 H185 0.946 . S
C204 C203 1.388 . S
C204 C205 1.384 . S
C205 C204 1.384 . S
C205 C206 1.377 . S
C206 H186 0.953 . S
C206 C205 1.377 . S
C206 C207 1.369 . S
C207 H187 0.945 . S
C207 C202 1.385 . S
C207 C206 1.369 . S
C208 C200 1.457 . S
C208 C209 1.372 . S
C208 C213 1.364 . S
C209 H188 0.952 . S
C209 C208 1.372 . S
C209 C210 1.389 . S
C210 H189 0.949 . S
C210 C209 1.389 . S
C210 C211 1.387 . S
C211 C210 1.387 . S
C211 C212 1.372 . S
C212 H190 0.950 . S
C212 C211 1.372 . S
C212 C213 1.379 . S
C213 H191 0.948 . S
C213 C208 1.364 . S
C213 C212 1.379 . S
C214 C183 1.383 . S
C214 C201 1.479 . S
C214 C215 1.398 . S
C215 C180 1.382 . S
C215 H192 0.951 . S
C215 C214 1.398 . S
C216 C217 1.384 . S
C216 H229 0.947 . S
C216 C251 1.382 . S
C217 C216 1.384 . S
C217 C218 1.378 . S
C218 C217 1.378 . S
C218 C219 1.378 . S
C218 H230 0.952 . S
C219 C218 1.378 . S
C219 H231 0.950 . S
C219 C250 1.383 . S
H220 C239 0.947 . S
H221 C240 0.946 . S
H222 C242 0.953 . S
H223 C243 0.945 . S
H224 C245 0.952 . S
H225 C246 0.949 . S
H226 C248 0.950 . S
H227 C249 0.948 . S
H228 C251 0.951 . S
H229 C216 0.947 . S
H230 C218 0.952 . S
H231 C219 0.950 . S
N232 C235 1.382 . S
N232 C237 1.363 . S
N233 C235 1.371 . S
N233 C236 1.372 . S
N234 C236 1.361 . S
N234 C237 1.377 . S
C235 N232 1.382 . S
C235 N233 1.371 . S
C235 C238 1.480 . S
C236 N233 1.372 . S
C236 N234 1.361 . S
C236 C244 1.457 . S
C237 N232 1.363 . S
C237 N234 1.377 . S
C237 C250 1.479 . S
C238 C235 1.480 . S
C238 C239 1.383 . S
C238 C243 1.385 . S
C239 H220 0.947 . S
C239 C238 1.383 . S
C239 C240 1.388 . S
C240 H221 0.946 . S
C240 C239 1.388 . S
C240 C241 1.384 . S
C241 C240 1.384 . S
C241 C242 1.377 . S
C242 H222 0.953 . S
C242 C241 1.377 . S
C242 C243 1.369 . S
C243 H223 0.945 . S
C243 C238 1.385 . S
C243 C242 1.369 . S
C244 C236 1.457 . S
C244 C245 1.372 . S
C244 C249 1.364 . S
C245 H224 0.952 . S
C245 C244 1.372 . S
C245 C246 1.389 . S
C246 H225 0.949 . S
C246 C245 1.389 . S
C246 C247 1.387 . S
C247 C246 1.387 . S
C247 C248 1.372 . S
C248 H226 0.950 . S
C248 C247 1.372 . S
C248 C249 1.379 . S
C249 H227 0.948 . S
C249 C244 1.364 . S
C249 C248 1.379 . S
C250 C219 1.383 . S
C250 C237 1.479 . S
C250 C251 1.398 . S
C251 C216 1.382 . S
C251 H228 0.951 . S
C251 C250 1.398 . S
C252 C253 1.384 . S
C252 H265 0.947 . S
C252 C287 1.382 . S
C253 C252 1.384 . S
C253 C254 1.378 . S
C254 C253 1.378 . S
C254 C255 1.378 . S
C254 H266 0.952 . S
C255 C254 1.378 . S
C255 H267 0.950 . S
C255 C286 1.383 . S
H256 C275 0.947 . S
H257 C276 0.946 . S
H258 C278 0.953 . S
H259 C279 0.945 . S
H260 C281 0.952 . S
H261 C282 0.949 . S
H262 C284 0.950 . S
H263 C285 0.948 . S
H264 C287 0.951 . S
H265 C252 0.947 . S
H266 C254 0.952 . S
H267 C255 0.950 . S
N268 C271 1.382 . S
N268 C273 1.363 . S
N269 C271 1.371 . S
N269 C272 1.372 . S
N270 C272 1.361 . S
N270 C273 1.377 . S
C271 N268 1.382 . S
C271 N269 1.371 . S
C271 C274 1.480 . S
C272 N269 1.372 . S
C272 N270 1.361 . S
C272 C280 1.457 . S
C273 N268 1.363 . S
C273 N270 1.377 . S
C273 C286 1.479 . S
C274 C271 1.480 . S
C274 C275 1.383 . S
C274 C279 1.385 . S
C275 H256 0.947 . S
C275 C274 1.383 . S
C275 C276 1.388 . S
C276 H257 0.946 . S
C276 C275 1.388 . S
C276 C277 1.384 . S
C277 C276 1.384 . S
C277 C278 1.377 . S
C278 H258 0.953 . S
C278 C277 1.377 . S
C278 C279 1.369 . S
C279 H259 0.945 . S
C279 C274 1.385 . S
C279 C278 1.369 . S
C280 C272 1.457 . S
C280 C281 1.372 . S
C280 C285 1.364 . S
C281 H260 0.952 . S
C281 C280 1.372 . S
C281 C282 1.389 . S
C282 H261 0.949 . S
C282 C281 1.389 . S
C282 C283 1.387 . S
C283 C282 1.387 . S
C283 C284 1.372 . S
C284 H262 0.950 . S
C284 C283 1.372 . S
C284 C285 1.379 . S
C285 H263 0.948 . S
C285 C280 1.364 . S
C285 C284 1.379 . S
C286 C255 1.383 . S
C286 C273 1.479 . S
C286 C287 1.398 . S
C287 C252 1.382 . S
C287 H264 0.951 . S
C287 C286 1.398 . S
C288 C290 1.422 . S
C288 C292 1.415 . S
C288 N294 1.369 . S
C289 C290 1.421 . S
C289 C291 1.417 . S
C289 C301 1.422 . S
C290 C288 1.422 . S
C290 C289 1.421 . S
C290 N300 1.359 . S
C291 C289 1.417 . S
C291 C293 1.329 . S
C291 H310 0.930 . S
C292 C288 1.415 . S
C292 C293 1.437 . S
C292 C296 1.413 . S
C293 C291 1.329 . S
C293 C292 1.437 . S
C293 H315 0.929 . S
N294 C288 1.369 . S
N294 C295 1.338 . S
N294 Gd299 2.622 . S
C295 N294 1.338 . S
C295 C297 1.378 . S
C295 H307 0.929 . S
C296 C292 1.413 . S
C296 C297 1.348 . S
C296 H312 0.931 . S
C297 C295 1.378 . S
C297 C296 1.348 . S
C297 H313 0.930 . S
Gd298 N318 2.622 . S
Gd298 N325 2.570 . S
Gd298 O332 2.353 . S
Gd298 O333 2.468 . S
Gd298 O334 2.427 . S
Gd298 O336 2.388 . S
Gd298 O337 2.386 . S
Gd298 O341 2.307 . S
Gd298 C351 2.805 . S
Gd299 N294 2.622 . S
Gd299 N300 2.570 . S
Gd299 O331 2.386 . S
Gd299 O335 2.307 1_655 S
Gd299 O338 2.353 1_655 S
Gd299 O339 2.468 . S
Gd299 O340 2.427 . S
Gd299 O342 2.388 . S
Gd299 C363 2.805 . S
N300 C290 1.359 . S
N300 Gd299 2.570 . S
N300 C302 1.343 . S
C301 C289 1.422 . S
C301 C303 1.321 . S
C301 H309 0.931 . S
C302 N300 1.343 . S
C302 C303 1.390 . S
C302 H304 0.931 . S
C303 C301 1.321 . S
C303 C302 1.390 . S
C303 H305 0.930 . S
H304 C302 0.931 . S
H305 C303 0.930 . S
H306 C329 0.931 . S
H307 C295 0.929 . S
H308 C330 0.930 . S
H309 C301 0.931 . S
H310 C291 0.930 . S
H311 C320 0.929 . S
H312 C296 0.931 . S
H313 C297 0.930 . S
H314 C352 0.930 . S
H315 C293 0.929 . S
H316 C321 0.931 . S
H317 C322 0.930 . S
N318 Gd298 2.622 . S
N318 C319 1.369 . S
N318 C320 1.338 . S
C319 N318 1.369 . S
C319 C323 1.415 . S
C319 C326 1.422 . S
C320 H311 0.929 . S
C320 N318 1.338 . S
C320 C322 1.378 . S
C321 H316 0.931 . S
C321 C322 1.348 . S
C321 C323 1.413 . S
C322 H317 0.930 . S
C322 C320 1.378 . S
C322 C321 1.348 . S
C323 C319 1.415 . S
C323 C321 1.413 . S
C323 C353 1.437 . S
H324 C353 0.929 . S
N325 Gd298 2.570 . S
N325 C326 1.359 . S
N325 C329 1.343 . S
C326 C319 1.422 . S
C326 N325 1.359 . S
C326 C328 1.421 . S
C327 C328 1.422 . S
C327 C330 1.321 . S
C327 H354 0.931 . S
C328 C326 1.421 . S
C328 C327 1.422 . S
C328 C352 1.417 . S
C329 H306 0.931 . S
C329 N325 1.343 . S
C329 C330 1.390 . S
C330 H308 0.930 . S
C330 C327 1.321 . S
C330 C329 1.390 . S
O331 Gd299 2.386 . S
O331 C343 1.265 . S
O332 Gd298 2.353 . S
O332 C343 1.242 1_455 S
O333 Gd298 2.468 . S
O333 C351 1.263 . S
O334 Gd298 2.427 . S
O334 C351 1.252 . S
O335 Gd299 2.307 1_455 S
O335 C344 1.261 . S
O336 Gd298 2.388 . S
O336 C344 1.252 . S
O337 Gd298 2.386 . S
O337 C355 1.265 . S
O338 Gd299 2.353 1_455 S
O338 C355 1.242 . S
O339 Gd299 2.468 . S
O339 C363 1.263 . S
O340 Gd299 2.427 . S
O340 C363 1.252 . S
O341 Gd298 2.307 . S
O341 C356 1.261 1_455 S
O342 Gd299 2.388 . S
O342 C356 1.252 . S
C343 O331 1.265 . S
C343 O332 1.242 1_655 S
C344 O335 1.261 . S
C344 O336 1.252 . S
C345 C348 1.394 . S
C345 C350 1.370 . S
C345 C351 1.500 . S
C346 C349 1.383 . S
C346 C350 1.395 . S
C347 C348 1.396 . S
C347 C349 1.365 . S
C347 H364 0.929 . S
C348 C345 1.394 . S
C348 C347 1.396 . S
C348 H365 0.930 . S
C349 C346 1.383 . S
C349 C347 1.365 . S
C349 H366 0.931 . S
C350 C345 1.370 . S
C350 C346 1.395 . S
C350 H367 0.930 . S
C351 Gd298 2.805 . S
C351 O333 1.263 . S
C351 O334 1.252 . S
C351 C345 1.500 . S
C352 H314 0.930 . S
C352 C328 1.417 . S
C352 C353 1.329 . S
C353 C323 1.437 . S
C353 H324 0.929 . S
C353 C352 1.329 . S
H354 C327 0.931 . S
C355 O337 1.265 . S
C355 O338 1.242 . S
C356 O341 1.261 1_655 S
C356 O342 1.252 . S
C357 C360 1.394 . S
C357 C362 1.370 . S
C357 C363 1.500 . S
C358 C361 1.383 . S
C358 C362 1.395 . S
C359 C360 1.396 . S
C359 C361 1.365 . S
C359 H368 0.929 . S
C360 C357 1.394 . S
C360 C359 1.396 . S
C360 H369 0.930 . S
C361 C358 1.383 . S
C361 C359 1.365 . S
C361 H370 0.931 . S
C362 C357 1.370 . S
C362 C358 1.395 . S
C362 H371 0.930 . S
C363 Gd299 2.805 . S
C363 O339 1.263 . S
C363 O340 1.252 . S
C363 C357 1.500 . S
H364 C347 0.929 . S
H365 C348 0.930 . S
H366 C349 0.931 . S
H367 C350 0.930 . S
H368 C359 0.929 . S
H369 C360 0.930 . S
H370 C361 0.931 . S
H371 C362 0.930 . S
C372 C374 1.422 . S
C372 C376 1.415 . S
C372 N378 1.369 . S
C373 C374 1.421 . S
C373 C375 1.417 . S
C373 C385 1.422 . S
C374 C372 1.422 . S
C374 C373 1.421 . S
C374 N384 1.359 . S
C375 C373 1.417 . S
C375 C377 1.329 . S
C375 H394 0.930 . S
C376 C372 1.415 . S
C376 C377 1.437 . S
C376 C380 1.413 . S
C377 C375 1.329 . S
C377 C376 1.437 . S
C377 H399 0.929 . S
N378 C372 1.369 . S
N378 C379 1.338 . S
N378 Gd383 2.622 . S
C379 N378 1.338 . S
C379 C381 1.378 . S
C379 H391 0.929 . S
C380 C376 1.413 . S
C380 C381 1.348 . S
C380 H396 0.931 . S
C381 C379 1.378 . S
C381 C380 1.348 . S
C381 H397 0.930 . S
Gd382 N402 2.622 . S
Gd382 N409 2.570 . S
Gd382 O416 2.353 . S
Gd382 O417 2.468 . S
Gd382 O418 2.427 . S
Gd382 O420 2.388 . S
Gd382 O421 2.386 . S
Gd382 O425 2.307 . S
Gd382 C435 2.805 . S
Gd383 N378 2.622 . S
Gd383 N384 2.570 . S
Gd383 O415 2.386 . S
Gd383 O419 2.307 . S
Gd383 O422 2.353 . S
Gd383 O423 2.468 . S
Gd383 O424 2.427 . S
Gd383 O426 2.388 . S
Gd383 C447 2.805 . S
N384 C374 1.359 . S
N384 Gd383 2.570 . S
N384 C386 1.343 . S
C385 C373 1.422 . S
C385 C387 1.321 . S
C385 H393 0.931 . S
C386 N384 1.343 . S
C386 C387 1.390 . S
C386 H388 0.931 . S
C387 C385 1.321 . S
C387 C386 1.390 . S
C387 H389 0.930 . S
H388 C386 0.931 . S
H389 C387 0.930 . S
H390 C413 0.931 . S
H391 C379 0.929 . S
H392 C414 0.930 . S
H393 C385 0.931 . S
H394 C375 0.930 . S
H395 C404 0.929 . S
H396 C380 0.931 . S
H397 C381 0.930 . S
H398 C436 0.930 . S
H399 C377 0.929 . S
H400 C405 0.931 . S
H401 C406 0.930 . S
N402 Gd382 2.622 . S
N402 C403 1.369 . S
N402 C404 1.338 . S
C403 N402 1.369 . S
C403 C407 1.415 . S
C403 C410 1.422 . S
C404 H395 0.929 . S
C404 N402 1.338 . S
C404 C406 1.378 . S
C405 H400 0.931 . S
C405 C406 1.348 . S
C405 C407 1.413 . S
C406 H401 0.930 . S
C406 C404 1.378 . S
C406 C405 1.348 . S
C407 C403 1.415 . S
C407 C405 1.413 . S
C407 C437 1.437 . S
H408 C437 0.929 . S
N409 Gd382 2.570 . S
N409 C410 1.359 . S
N409 C413 1.343 . S
C410 C403 1.422 . S
C410 N409 1.359 . S
C410 C412 1.421 . S
C411 C412 1.422 . S
C411 C414 1.321 . S
C411 H438 0.931 . S
C412 C410 1.421 . S
C412 C411 1.422 . S
C412 C436 1.417 . S
C413 H390 0.931 . S
C413 N409 1.343 . S
C413 C414 1.390 . S
C414 H392 0.930 . S
C414 C411 1.321 . S
C414 C413 1.390 . S
O415 Gd383 2.386 . S
O415 C427 1.265 . S
O416 Gd382 2.353 . S
O416 C427 1.242 . S
O417 Gd382 2.468 . S
O417 C435 1.263 . S
O418 Gd382 2.427 . S
O418 C435 1.252 . S
O419 Gd383 2.307 . S
O419 C428 1.261 . S
O420 Gd382 2.388 . S
O420 C428 1.252 . S
O421 Gd382 2.386 . S
O421 C439 1.265 . S
O422 Gd383 2.353 . S
O422 C439 1.242 . S
O423 Gd383 2.468 . S
O423 C447 1.263 . S
O424 Gd383 2.427 . S
O424 C447 1.252 . S
O425 Gd382 2.307 . S
O425 C440 1.261 . S
O426 Gd383 2.388 . S
O426 C440 1.252 . S
C427 O415 1.265 . S
C427 O416 1.242 . S
C428 O419 1.261 . S
C428 O420 1.252 . S
C429 C432 1.394 . S
C429 C434 1.370 . S
C429 C435 1.500 . S
C430 C433 1.383 . S
C430 C434 1.395 . S
C431 C432 1.396 . S
C431 C433 1.365 . S
C431 H448 0.929 . S
C432 C429 1.394 . S
C432 C431 1.396 . S
C432 H449 0.930 . S
C433 C430 1.383 . S
C433 C431 1.365 . S
C433 H450 0.931 . S
C434 C429 1.370 . S
C434 C430 1.395 . S
C434 H451 0.930 . S
C435 Gd382 2.805 . S
C435 O417 1.263 . S
C435 O418 1.252 . S
C435 C429 1.500 . S
C436 H398 0.930 . S
C436 C412 1.417 . S
C436 C437 1.329 . S
C437 C407 1.437 . S
C437 H408 0.929 . S
C437 C436 1.329 . S
H438 C411 0.931 . S
C439 O421 1.265 . S
C439 O422 1.242 . S
C440 O425 1.261 . S
C440 O426 1.252 . S
C441 C444 1.394 . S
C441 C446 1.370 . S
C441 C447 1.500 . S
C442 C445 1.383 . S
C442 C446 1.395 . S
C443 C444 1.396 . S
C443 C445 1.365 . S
C443 H452 0.929 . S
C444 C441 1.394 . S
C444 C443 1.396 . S
C444 H453 0.930 . S
C445 C442 1.383 . S
C445 C443 1.365 . S
C445 H454 0.931 . S
C446 C441 1.370 . S
C446 C442 1.395 . S
C446 H455 0.930 . S
C447 Gd383 2.805 . S
C447 O423 1.263 . S
C447 O424 1.252 . S
C447 C441 1.500 . S
H448 C431 0.929 . S
H449 C432 0.930 . S
H450 C433 0.931 . S
H451 C434 0.930 . S
H452 C443 0.929 . S
H453 C444 0.930 . S
H454 C445 0.931 . S
H455 C446 0.930 . S
C456 C458 1.422 . S
C456 C460 1.415 . S
C456 N462 1.369 . S
C457 C458 1.421 . S
C457 C459 1.417 . S
C457 C469 1.422 . S
C458 C456 1.422 . S
C458 C457 1.421 . S
C458 N468 1.359 . S
C459 C457 1.417 . S
C459 C461 1.329 . S
C459 H478 0.930 . S
C460 C456 1.415 . S
C460 C461 1.437 . S
C460 C464 1.413 . S
C461 C459 1.329 . S
C461 C460 1.437 . S
C461 H483 0.929 . S
N462 C456 1.369 . S
N462 C463 1.338 . S
N462 Gd467 2.622 . S
C463 N462 1.338 . S
C463 C465 1.378 . S
C463 H475 0.929 . S
C464 C460 1.413 . S
C464 C465 1.348 . S
C464 H480 0.931 . S
C465 C463 1.378 . S
C465 C464 1.348 . S
C465 H481 0.930 . S
Gd466 N486 2.622 . S
Gd466 N493 2.570 . S
Gd466 O500 2.353 . S
Gd466 O501 2.468 . S
Gd466 O502 2.427 . S
Gd466 O504 2.388 . S
Gd466 O505 2.386 . S
Gd466 O509 2.307 . S
Gd466 C519 2.805 . S
Gd467 N462 2.622 . S
Gd467 N468 2.570 . S
Gd467 O499 2.386 . S
Gd467 O503 2.307 1_655 S
Gd467 O506 2.353 1_655 S
Gd467 O507 2.468 . S
Gd467 O508 2.427 . S
Gd467 O510 2.388 . S
Gd467 C531 2.805 . S
N468 C458 1.359 . S
N468 Gd467 2.570 . S
N468 C470 1.343 . S
C469 C457 1.422 . S
C469 C471 1.321 . S
C469 H477 0.931 . S
C470 N468 1.343 . S
C470 C471 1.390 . S
C470 H472 0.931 . S
C471 C469 1.321 . S
C471 C470 1.390 . S
C471 H473 0.930 . S
H472 C470 0.931 . S
H473 C471 0.930 . S
H474 C497 0.931 . S
H475 C463 0.929 . S
H476 C498 0.930 . S
H477 C469 0.931 . S
H478 C459 0.930 . S
H479 C488 0.929 . S
H480 C464 0.931 . S
H481 C465 0.930 . S
H482 C520 0.930 . S
H483 C461 0.929 . S
H484 C489 0.931 . S
H485 C490 0.930 . S
N486 Gd466 2.622 . S
N486 C487 1.369 . S
N486 C488 1.338 . S
C487 N486 1.369 . S
C487 C491 1.415 . S
C487 C494 1.422 . S
C488 H479 0.929 . S
C488 N486 1.338 . S
C488 C490 1.378 . S
C489 H484 0.931 . S
C489 C490 1.348 . S
C489 C491 1.413 . S
C490 H485 0.930 . S
C490 C488 1.378 . S
C490 C489 1.348 . S
C491 C487 1.415 . S
C491 C489 1.413 . S
C491 C521 1.437 . S
H492 C521 0.929 . S
N493 Gd466 2.570 . S
N493 C494 1.359 . S
N493 C497 1.343 . S
C494 C487 1.422 . S
C494 N493 1.359 . S
C494 C496 1.421 . S
C495 C496 1.422 . S
C495 C498 1.321 . S
C495 H522 0.931 . S
C496 C494 1.421 . S
C496 C495 1.422 . S
C496 C520 1.417 . S
C497 H474 0.931 . S
C497 N493 1.343 . S
C497 C498 1.390 . S
C498 H476 0.930 . S
C498 C495 1.321 . S
C498 C497 1.390 . S
O499 Gd467 2.386 . S
O499 C511 1.265 . S
O500 Gd466 2.353 . S
O500 C511 1.242 1_455 S
O501 Gd466 2.468 . S
O501 C519 1.263 . S
O502 Gd466 2.427 . S
O502 C519 1.252 . S
O503 Gd467 2.307 1_455 S
O503 C512 1.261 . S
O504 Gd466 2.388 . S
O504 C512 1.252 . S
O505 Gd466 2.386 . S
O505 C523 1.265 . S
O506 Gd467 2.353 1_455 S
O506 C523 1.242 . S
O507 Gd467 2.468 . S
O507 C531 1.263 . S
O508 Gd467 2.427 . S
O508 C531 1.252 . S
O509 Gd466 2.307 . S
O509 C524 1.261 1_455 S
O510 Gd467 2.388 . S
O510 C524 1.252 . S
C511 O499 1.265 . S
C511 O500 1.242 1_655 S
C512 O503 1.261 . S
C512 O504 1.252 . S
C513 C516 1.394 . S
C513 C518 1.370 . S
C513 C519 1.500 . S
C514 C517 1.383 . S
C514 C518 1.395 . S
C515 C516 1.396 . S
C515 C517 1.365 . S
C515 H532 0.929 . S
C516 C513 1.394 . S
C516 C515 1.396 . S
C516 H533 0.930 . S
C517 C514 1.383 . S
C517 C515 1.365 . S
C517 H534 0.931 . S
C518 C513 1.370 . S
C518 C514 1.395 . S
C518 H535 0.930 . S
C519 Gd466 2.805 . S
C519 O501 1.263 . S
C519 O502 1.252 . S
C519 C513 1.500 . S
C520 H482 0.930 . S
C520 C496 1.417 . S
C520 C521 1.329 . S
C521 C491 1.437 . S
C521 H492 0.929 . S
C521 C520 1.329 . S
H522 C495 0.931 . S
C523 O505 1.265 . S
C523 O506 1.242 . S
C524 O509 1.261 1_655 S
C524 O510 1.252 . S
C525 C528 1.394 . S
C525 C530 1.370 . S
C525 C531 1.500 . S
C526 C529 1.383 . S
C526 C530 1.395 . S
C527 C528 1.396 . S
C527 C529 1.365 . S
C527 H536 0.929 . S
C528 C525 1.394 . S
C528 C527 1.396 . S
C528 H537 0.930 . S
C529 C526 1.383 . S
C529 C527 1.365 . S
C529 H538 0.931 . S
C530 C525 1.370 . S
C530 C526 1.395 . S
C530 H539 0.930 . S
C531 Gd467 2.805 . S
C531 O507 1.263 . S
C531 O508 1.252 . S
C531 C525 1.500 . S
H532 C515 0.929 . S
H533 C516 0.930 . S
H534 C517 0.931 . S
H535 C518 0.930 . S
H536 C527 0.929 . S
H537 C528 0.930 . S
H538 C529 0.931 . S
H539 C530 0.930 . S
C540 C542 1.422 . S
C540 C544 1.415 . S
C540 N546 1.369 . S
C541 C542 1.421 . S
C541 C543 1.417 . S
C541 C553 1.422 . S
C542 C540 1.422 . S
C542 C541 1.421 . S
C542 N552 1.359 . S
C543 C541 1.417 . S
C543 C545 1.329 . S
C543 H562 0.930 . S
C544 C540 1.415 . S
C544 C545 1.437 . S
C544 C548 1.413 . S
C545 C543 1.329 . S
C545 C544 1.437 . S
C545 H567 0.929 . S
N546 C540 1.369 . S
N546 C547 1.338 . S
N546 Gd551 2.622 . S
C547 N546 1.338 . S
C547 C549 1.378 . S
C547 H559 0.929 . S
C548 C544 1.413 . S
C548 C549 1.348 . S
C548 H564 0.931 . S
C549 C547 1.378 . S
C549 C548 1.348 . S
C549 H565 0.930 . S
Gd550 N570 2.622 . S
Gd550 N577 2.570 . S
Gd550 O584 2.353 . S
Gd550 O585 2.468 . S
Gd550 O586 2.427 . S
Gd550 O588 2.388 . S
Gd550 O589 2.386 . S
Gd550 O593 2.307 . S
Gd550 C603 2.805 . S
Gd551 N546 2.622 . S
Gd551 N552 2.570 . S
Gd551 O583 2.386 . S
Gd551 O587 2.307 . S
Gd551 O590 2.353 . S
Gd551 O591 2.468 . S
Gd551 O592 2.427 . S
Gd551 O594 2.388 . S
Gd551 C615 2.805 . S
N552 C542 1.359 . S
N552 Gd551 2.570 . S
N552 C554 1.343 . S
C553 C541 1.422 . S
C553 C555 1.321 . S
C553 H561 0.931 . S
C554 N552 1.343 . S
C554 C555 1.390 . S
C554 H556 0.931 . S
C555 C553 1.321 . S
C555 C554 1.390 . S
C555 H557 0.930 . S
H556 C554 0.931 . S
H557 C555 0.930 . S
H558 C581 0.931 . S
H559 C547 0.929 . S
H560 C582 0.930 . S
H561 C553 0.931 . S
H562 C543 0.930 . S
H563 C572 0.929 . S
H564 C548 0.931 . S
H565 C549 0.930 . S
H566 C604 0.930 . S
H567 C545 0.929 . S
H568 C573 0.931 . S
H569 C574 0.930 . S
N570 Gd550 2.622 . S
N570 C571 1.369 . S
N570 C572 1.338 . S
C571 N570 1.369 . S
C571 C575 1.415 . S
C571 C578 1.422 . S
C572 H563 0.929 . S
C572 N570 1.338 . S
C572 C574 1.378 . S
C573 H568 0.931 . S
C573 C574 1.348 . S
C573 C575 1.413 . S
C574 H569 0.930 . S
C574 C572 1.378 . S
C574 C573 1.348 . S
C575 C571 1.415 . S
C575 C573 1.413 . S
C575 C605 1.437 . S
H576 C605 0.929 . S
N577 Gd550 2.570 . S
N577 C578 1.359 . S
N577 C581 1.343 . S
C578 C571 1.422 . S
C578 N577 1.359 . S
C578 C580 1.421 . S
C579 C580 1.422 . S
C579 C582 1.321 . S
C579 H606 0.931 . S
C580 C578 1.421 . S
C580 C579 1.422 . S
C580 C604 1.417 . S
C581 H558 0.931 . S
C581 N577 1.343 . S
C581 C582 1.390 . S
C582 H560 0.930 . S
C582 C579 1.321 . S
C582 C581 1.390 . S
O583 Gd551 2.386 . S
O583 C595 1.265 . S
O584 Gd550 2.353 . S
O584 C595 1.242 . S
O585 Gd550 2.468 . S
O585 C603 1.263 . S
O586 Gd550 2.427 . S
O586 C603 1.252 . S
O587 Gd551 2.307 . S
O587 C596 1.261 . S
O588 Gd550 2.388 . S
O588 C596 1.252 . S
O589 Gd550 2.386 . S
O589 C607 1.265 . S
O590 Gd551 2.353 . S
O590 C607 1.242 . S
O591 Gd551 2.468 . S
O591 C615 1.263 . S
O592 Gd551 2.427 . S
O592 C615 1.252 . S
O593 Gd550 2.307 . S
O593 C608 1.261 . S
O594 Gd551 2.388 . S
O594 C608 1.252 . S
C595 O583 1.265 . S
C595 O584 1.242 . S
C596 O587 1.261 . S
C596 O588 1.252 . S
C597 C600 1.394 . S
C597 C602 1.370 . S
C597 C603 1.500 . S
C598 C601 1.383 . S
C598 C602 1.395 . S
C599 C600 1.396 . S
C599 C601 1.365 . S
C599 H616 0.929 . S
C600 C597 1.394 . S
C600 C599 1.396 . S
C600 H617 0.930 . S
C601 C598 1.383 . S
C601 C599 1.365 . S
C601 H618 0.931 . S
C602 C597 1.370 . S
C602 C598 1.395 . S
C602 H619 0.930 . S
C603 Gd550 2.805 . S
C603 O585 1.263 . S
C603 O586 1.252 . S
C603 C597 1.500 . S
C604 H566 0.930 . S
C604 C580 1.417 . S
C604 C605 1.329 . S
C605 C575 1.437 . S
C605 H576 0.929 . S
C605 C604 1.329 . S
H606 C579 0.931 . S
C607 O589 1.265 . S
C607 O590 1.242 . S
C608 O593 1.261 . S
C608 O594 1.252 . S
C609 C612 1.394 . S
C609 C614 1.370 . S
C609 C615 1.500 . S
C610 C613 1.383 . S
C610 C614 1.395 . S
C611 C612 1.396 . S
C611 C613 1.365 . S
C611 H620 0.929 . S
C612 C609 1.394 . S
C612 C611 1.396 . S
C612 H621 0.930 . S
C613 C610 1.383 . S
C613 C611 1.365 . S
C613 H622 0.931 . S
C614 C609 1.370 . S
C614 C610 1.395 . S
C614 H623 0.930 . S
C615 Gd551 2.805 . S
C615 O591 1.263 . S
C615 O592 1.252 . S
C615 C609 1.500 . S
H616 C599 0.929 . S
H617 C600 0.930 . S
H618 C601 0.931 . S
H619 C602 0.930 . S
H620 C611 0.929 . S
H621 C612 0.930 . S
H622 C613 0.931 . S
H623 C614 0.930 . S
C624 C625 1.349 . S
C624 C626 1.327 1_565 S
C624 H649 0.950 . S
C625 C624 1.349 . S
C625 C641 1.349 . S
C626 C624 1.327 1_545 S
C626 C645 1.424 1_545 S
C626 H650 0.950 . S
C627 C644 1.574 . S
C627 C646 1.368 . S
C627 H651 0.949 1_545 S
H628 C632 0.949 . S
C629 C630 1.349 . S
C629 C631 1.327 . S
C629 H652 0.950 . S
C630 C629 1.349 . S
C630 C642 1.349 . S
C631 C629 1.327 . S
C631 C647 1.429 . S
C631 H653 0.950 . S
C632 H628 0.949 . S
C632 C640 1.574 . S
C632 C648 1.368 . S
H633 C641 0.950 . S
H634 C639 0.950 . S
H635 C640 0.949 . S
H636 C642 0.950 . S
H637 C643 0.950 . S
H638 C644 0.949 . S
C639 H634 0.950 . S
C639 C641 1.327 . S
C639 C645 1.457 . S
C640 C632 1.574 . S
C640 H635 0.949 . S
C640 C646 1.368 . S
C641 C625 1.349 . S
C641 H633 0.950 . S
C641 C639 1.327 . S
C642 C630 1.349 . S
C642 H636 0.950 . S
C642 C643 1.327 . S
C643 H637 0.950 . S
C643 C642 1.327 . S
C643 C647 1.429 . S
C644 C627 1.574 . S
C644 H638 0.949 . S
C644 C648 1.368 . S
C645 C626 1.424 1_565 S
C645 C639 1.457 . S
C645 C646 1.501 1_565 S
C646 C627 1.368 . S
C646 C640 1.368 . S
C646 C645 1.501 1_545 S
C647 C631 1.429 . S
C647 C643 1.429 . S
C647 C648 1.523 . S
C648 C632 1.368 . S
C648 C644 1.368 . S
C648 C647 1.523 . S
H649 C624 0.950 . S
H650 C626 0.950 . S
H651 C627 0.949 1_565 S
H652 C629 0.950 . S
H653 C631 0.950 . S
C654 C655 1.349 . S
C654 C656 1.327 . S
C654 H679 0.950 . S
C655 C654 1.349 . S
C655 C671 1.349 . S
C656 C654 1.327 . S
C656 C675 1.429 . S
C656 H680 0.950 . S
C657 C674 1.574 . S
C657 C676 1.368 . S
C657 H681 0.949 . S
H658 C662 0.949 . S
C659 C660 1.349 . S
C659 C661 1.327 . S
C659 H682 0.950 . S
C660 C659 1.349 . S
C660 C672 1.349 . S
C661 C659 1.327 . S
C661 C677 1.429 . S
C661 H683 0.950 . S
C662 H658 0.949 . S
C662 C670 1.574 . S
C662 C678 1.368 . S
H663 C671 0.950 . S
H664 C669 0.950 . S
H665 C670 0.949 . S
H666 C672 0.950 . S
H667 C673 0.950 . S
H668 C674 0.949 . S
C669 H664 0.950 . S
C669 C671 1.327 . S
C669 C675 1.429 . S
C670 C662 1.574 . S
C670 H665 0.949 . S
C670 C676 1.368 . S
C671 C655 1.349 . S
C671 H663 0.950 . S
C671 C669 1.327 . S
C672 C660 1.349 . S
C672 H666 0.950 . S
C672 C673 1.327 . S
C673 H667 0.950 . S
C673 C672 1.327 . S
C673 C677 1.429 . S
C674 C657 1.574 . S
C674 H668 0.949 . S
C674 C678 1.368 . S
C675 C656 1.429 . S
C675 C669 1.429 . S
C675 C676 1.523 . S
C676 C657 1.368 . S
C676 C670 1.368 . S
C676 C675 1.523 . S
C677 C661 1.429 . S
C677 C673 1.429 . S
C677 C678 1.523 . S
C678 C662 1.368 . S
C678 C674 1.368 . S
C678 C677 1.523 . S
H679 C654 0.950 . S
H680 C656 0.950 . S
H681 C657 0.949 . S
H682 C659 0.950 . S
H683 C661 0.950 . S
C684 C685 1.349 . S
C684 C686 1.327 . S
C684 H709 0.950 . S
C685 C684 1.349 . S
C685 C701 1.349 . S
C686 C684 1.327 . S
C686 C705 1.429 . S
C686 H710 0.950 . S
C687 C704 1.574 . S
C687 C706 1.368 . S
C687 H711 0.949 . S
H688 C692 0.949 . S
C689 C690 1.349 . S
C689 C691 1.327 . S
C689 H712 0.950 . S
C690 C689 1.349 . S
C690 C702 1.349 . S
C691 C689 1.327 . S
C691 C707 1.429 . S
C691 H713 0.950 . S
C692 H688 0.949 . S
C692 C700 1.574 . S
C692 C708 1.368 . S
H693 C701 0.950 . S
H694 C699 0.950 . S
H695 C700 0.949 . S
H696 C702 0.950 . S
H697 C703 0.950 . S
H698 C704 0.949 . S
C699 H694 0.950 . S
C699 C701 1.327 . S
C699 C705 1.429 . S
C700 C692 1.574 . S
C700 H695 0.949 . S
C700 C706 1.368 . S
C701 C685 1.349 . S
C701 H693 0.950 . S
C701 C699 1.327 . S
C702 C690 1.349 . S
C702 H696 0.950 . S
C702 C703 1.327 . S
C703 H697 0.950 . S
C703 C702 1.327 . S
C703 C707 1.429 . S
C704 C687 1.574 . S
C704 H698 0.949 . S
C704 C708 1.368 . S
C705 C686 1.429 . S
C705 C699 1.429 . S
C705 C706 1.523 . S
C706 C687 1.368 . S
C706 C700 1.368 . S
C706 C705 1.523 . S
C707 C691 1.429 . S
C707 C703 1.429 . S
C707 C708 1.523 . S
C708 C692 1.368 . S
C708 C704 1.368 . S
C708 C707 1.523 . S
H709 C684 0.950 . S
H710 C686 0.950 . S
H711 C687 0.949 . S
H712 C689 0.950 . S
H713 C691 0.950 . S
C714 C715 1.349 . S
C714 C716 1.327 . S
C714 H739 0.950 . S
C715 C714 1.349 . S
C715 C731 1.349 . S
C716 C714 1.327 . S
C716 C735 1.429 1_565 S
C716 H740 0.950 . S
C717 C734 1.574 . S
C717 C736 1.368 . S
C717 H741 0.949 . S
H718 C722 0.949 . S
C719 C720 1.349 . S
C719 C721 1.327 . S
C719 H742 0.950 . S
C720 C719 1.349 . S
C720 C732 1.349 . S
C721 C719 1.327 . S
C721 C737 1.429 . S
C721 H743 0.950 . S
C722 H718 0.949 . S
C722 C730 1.574 . S
C722 C738 1.368 . S
H723 C731 0.950 . S
H724 C729 0.950 . S
H725 C730 0.949 1_565 S
H726 C732 0.950 . S
H727 C733 0.950 . S
H728 C734 0.949 . S
C729 H724 0.950 . S
C729 C731 1.327 1_545 S
C729 C735 1.429 . S
C730 C722 1.574 . S
C730 H725 0.949 1_545 S
C730 C736 1.368 . S
C731 C715 1.349 . S
C731 H723 0.950 . S
C731 C729 1.327 1_565 S
C732 C720 1.349 . S
C732 H726 0.950 . S
C732 C733 1.327 . S
C733 H727 0.950 . S
C733 C732 1.327 . S
C733 C737 1.429 . S
C734 C717 1.574 . S
C734 H728 0.949 . S
C734 C738 1.368 . S
C735 C716 1.429 1_545 S
C735 C729 1.429 . S
C735 C736 1.523 . S
C736 C717 1.368 . S
C736 C730 1.368 . S
C736 C735 1.523 . S
C737 C721 1.429 . S
C737 C733 1.429 . S
C737 C738 1.523 . S
C738 C722 1.368 . S
C738 C734 1.368 . S
C738 C737 1.523 . S
H739 C714 0.950 . S
H740 C716 0.950 . S
H741 C717 0.949 . S
H742 C719 0.950 . S
H743 C721 0.950 . S
C744 C745 1.349 . S
C744 C746 1.327 1_545 S
C744 H769 0.950 . S
C745 C744 1.349 . S
C745 C761 1.349 . S
C746 C744 1.327 1_565 S
C746 C765 1.424 1_565 S
C746 H770 0.950 . S
C747 C764 1.574 . S
C747 C766 1.368 . S
C747 H771 0.949 1_565 S
H748 C752 0.949 . S
C749 C750 1.349 . S
C749 C751 1.327 . S
C749 H772 0.950 . S
C750 C749 1.349 . S
C750 C762 1.349 . S
C751 C749 1.327 . S
C751 C767 1.429 . S
C751 H773 0.950 . S
C752 H748 0.949 . S
C752 C760 1.574 . S
C752 C768 1.368 . S
H753 C761 0.950 . S
H754 C759 0.950 . S
H755 C760 0.949 . S
H756 C762 0.950 . S
H757 C763 0.950 . S
H758 C764 0.949 . S
C759 H754 0.950 . S
C759 C761 1.327 . S
C759 C765 1.457 . S
C760 C752 1.574 . S
C760 H755 0.949 . S
C760 C766 1.368 . S
C761 C745 1.349 . S
C761 H753 0.950 . S
C761 C759 1.327 . S
C762 C750 1.349 . S
C762 H756 0.950 . S
C762 C763 1.327 . S
C763 H757 0.950 . S
C763 C762 1.327 . S
C763 C767 1.429 . S
C764 C747 1.574 . S
C764 H758 0.949 . S
C764 C768 1.368 . S
C765 C746 1.424 1_545 S
C765 C759 1.457 . S
C765 C766 1.501 1_545 S
C766 C747 1.368 . S
C766 C760 1.368 . S
C766 C765 1.501 1_565 S
C767 C751 1.429 . S
C767 C763 1.429 . S
C767 C768 1.523 . S
C768 C752 1.368 . S
C768 C764 1.368 . S
C768 C767 1.523 . S
H769 C744 0.950 . S
H770 C746 0.950 . S
H771 C747 0.949 1_545 S
H772 C749 0.950 . S
H773 C751 0.950 . S
C774 C775 1.349 . S
C774 C776 1.327 . S
C774 H799 0.950 . S
C775 C774 1.349 . S
C775 C791 1.349 . S
C776 C774 1.327 . S
C776 C795 1.429 . S
C776 H800 0.950 . S
C777 C794 1.574 . S
C777 C796 1.368 . S
C777 H801 0.949 . S
H778 C782 0.949 . S
C779 C780 1.349 . S
C779 C781 1.327 . S
C779 H802 0.950 . S
C780 C779 1.349 . S
C780 C792 1.349 . S
C781 C779 1.327 . S
C781 C797 1.429 . S
C781 H803 0.950 . S
C782 H778 0.949 . S
C782 C790 1.574 . S
C782 C798 1.368 . S
H783 C791 0.950 . S
H784 C789 0.950 . S
H785 C790 0.949 . S
H786 C792 0.950 . S
H787 C793 0.950 . S
H788 C794 0.949 . S
C789 H784 0.950 . S
C789 C791 1.327 . S
C789 C795 1.429 . S
C790 C782 1.574 . S
C790 H785 0.949 . S
C790 C796 1.368 . S
C791 C775 1.349 . S
C791 H783 0.950 . S
C791 C789 1.327 . S
C792 C780 1.349 . S
C792 H786 0.950 . S
C792 C793 1.327 . S
C793 H787 0.950 . S
C793 C792 1.327 . S
C793 C797 1.429 . S
C794 C777 1.574 . S
C794 H788 0.949 . S
C794 C798 1.368 . S
C795 C776 1.429 . S
C795 C789 1.429 . S
C795 C796 1.523 . S
C796 C777 1.368 . S
C796 C790 1.368 . S
C796 C795 1.523 . S
C797 C781 1.429 . S
C797 C793 1.429 . S
C797 C798 1.523 . S
C798 C782 1.368 . S
C798 C794 1.368 . S
C798 C797 1.523 . S
H799 C774 0.950 . S
H800 C776 0.950 . S
H801 C777 0.949 . S
H802 C779 0.950 . S
H803 C781 0.950 . S
C804 C805 1.349 . S
C804 C806 1.327 . S
C804 H829 0.950 . S
C805 C804 1.349 . S
C805 C821 1.349 . S
C806 C804 1.327 . S
C806 C825 1.429 . S
C806 H830 0.950 . S
C807 C824 1.574 . S
C807 C826 1.368 . S
C807 H831 0.949 . S
H808 C812 0.949 . S
C809 C810 1.349 . S
C809 C811 1.327 . S
C809 H832 0.950 . S
C810 C809 1.349 . S
C810 C822 1.349 . S
C811 C809 1.327 . S
C811 C827 1.429 . S
C811 H833 0.950 . S
C812 H808 0.949 . S
C812 C820 1.574 . S
C812 C828 1.368 . S
H813 C821 0.950 . S
H814 C819 0.950 . S
H815 C820 0.949 . S
H816 C822 0.950 . S
H817 C823 0.950 . S
H818 C824 0.949 . S
C819 H814 0.950 . S
C819 C821 1.327 . S
C819 C825 1.429 . S
C820 C812 1.574 . S
C820 H815 0.949 . S
C820 C826 1.368 . S
C821 C805 1.349 . S
C821 H813 0.950 . S
C821 C819 1.327 . S
C822 C810 1.349 . S
C822 H816 0.950 . S
C822 C823 1.327 . S
C823 H817 0.950 . S
C823 C822 1.327 . S
C823 C827 1.429 . S
C824 C807 1.574 . S
C824 H818 0.949 . S
C824 C828 1.368 . S
C825 C806 1.429 . S
C825 C819 1.429 . S
C825 C826 1.523 . S
C826 C807 1.368 . S
C826 C820 1.368 . S
C826 C825 1.523 . S
C827 C811 1.429 . S
C827 C823 1.429 . S
C827 C828 1.523 . S
C828 C812 1.368 . S
C828 C824 1.368 . S
C828 C827 1.523 . S
H829 C804 0.950 . S
H830 C806 0.950 . S
H831 C807 0.949 . S
H832 C809 0.950 . S
H833 C811 0.950 . S
C834 C835 1.349 . S
C834 C836 1.327 . S
C834 H859 0.950 . S
C835 C834 1.349 . S
C835 C851 1.349 . S
C836 C834 1.327 . S
C836 C855 1.429 1_545 S
C836 H860 0.950 . S
C837 C854 1.574 . S
C837 C856 1.368 . S
C837 H861 0.949 . S
H838 C842 0.949 . S
C839 C840 1.349 . S
C839 C841 1.327 . S
C839 H862 0.950 . S
C840 C839 1.349 . S
C840 C852 1.349 . S
C841 C839 1.327 . S
C841 C857 1.429 . S
C841 H863 0.950 . S
C842 H838 0.949 . S
C842 C850 1.574 . S
C842 C858 1.368 . S
H843 C851 0.950 . S
H844 C849 0.950 . S
H845 C850 0.936 1_545 S
H846 C852 0.950 . S
H847 C853 0.950 . S
H848 C854 0.949 . S
C849 H844 0.950 . S
C849 C851 1.327 1_565 S
C849 C855 1.429 . S
C850 C842 1.574 . S
C850 H845 0.936 1_565 S
C850 C856 1.368 . S
C851 C835 1.349 . S
C851 H843 0.950 . S
C851 C849 1.327 1_545 S
C852 C840 1.349 . S
C852 H846 0.950 . S
C852 C853 1.327 . S
C853 H847 0.950 . S
C853 C852 1.327 . S
C853 C857 1.429 . S
C854 C837 1.574 . S
C854 H848 0.949 . S
C854 C858 1.368 . S
C855 C836 1.429 1_565 S
C855 C849 1.429 . S
C855 C856 1.523 . S
C856 C837 1.368 . S
C856 C850 1.368 . S
C856 C855 1.523 . S
C857 C841 1.429 . S
C857 C853 1.429 . S
C857 C858 1.523 . S
C858 C842 1.368 . S
C858 C854 1.368 . S
C858 C857 1.523 . S
H859 C834 0.950 . S
H860 C836 0.950 . S
H861 C837 0.949 . S
H862 C839 0.950 . S
H863 C841 0.950 . S
C864 C865 1.349 . S
C864 C866 1.327 . S
C864 H889 0.950 1_554 S
C865 C864 1.349 . S
C865 C881 1.349 . S
C866 C864 1.327 . S
C866 C885 1.429 . S
C866 H890 0.950 . S
C867 C884 1.574 . S
C867 C886 1.368 . S
C867 H891 0.949 . S
H868 C872 0.949 . S
C869 C870 1.349 . S
C869 C871 1.327 . S
C869 H892 0.950 . S
C870 C869 1.349 . S
C870 C882 1.349 . S
C871 C869 1.327 . S
C871 C887 1.429 . S
C871 H893 0.950 . S
C872 H868 0.949 . S
C872 C880 1.574 . S
C872 C888 1.368 . S
H873 C881 0.950 . S
H874 C879 0.950 . S
H875 C880 0.949 . S
H876 C882 0.950 . S
H877 C883 0.950 . S
H878 C884 0.949 . S
C879 H874 0.950 . S
C879 C881 1.327 . S
C879 C885 1.429 . S
C880 C872 1.574 . S
C880 H875 0.949 . S
C880 C886 1.368 . S
C881 C865 1.349 . S
C881 H873 0.950 . S
C881 C879 1.327 . S
C882 C870 1.349 . S
C882 H876 0.950 . S
C882 C883 1.327 . S
C883 H877 0.950 . S
C883 C882 1.327 . S
C883 C887 1.429 . S
C884 C867 1.574 . S
C884 H878 0.949 . S
C884 C888 1.368 . S
C885 C866 1.429 . S
C885 C879 1.429 . S
C885 C886 1.523 . S
C886 C867 1.368 . S
C886 C880 1.368 . S
C886 C885 1.523 . S
C887 C871 1.429 . S
C887 C883 1.429 . S
C887 C888 1.523 . S
C888 C872 1.368 . S
C888 C884 1.368 . S
C888 C887 1.523 . S
H889 C864 0.950 1_556 S
H890 C866 0.950 . S
H891 C867 0.949 . S
H892 C869 0.950 . S
H893 C871 0.950 . S
C894 C895 1.349 . S
C894 C896 1.327 . S
C894 H919 0.950 . S
C895 C894 1.349 . S
C895 C911 1.349 . S
C896 C894 1.327 . S
C896 C915 1.429 . S
C896 H920 0.950 . S
C897 C914 1.574 . S
C897 C916 1.368 . S
C897 H921 0.949 . S
H898 C902 0.949 . S
C899 C900 1.349 . S
C899 C901 1.327 . S
C899 H922 0.950 . S
C900 C899 1.349 . S
C900 C912 1.349 . S
C901 C899 1.327 . S
C901 C917 1.429 . S
C901 H923 0.950 . S
C902 H898 0.949 . S
C902 C910 1.574 . S
C902 C918 1.368 . S
H903 C911 0.950 . S
H904 C909 0.950 . S
H905 C910 0.949 . S
H906 C912 0.950 . S
H907 C913 0.950 . S
H908 C914 0.949 . S
C909 H904 0.950 . S
C909 C911 1.327 . S
C909 C915 1.429 . S
C910 C902 1.574 . S
C910 H905 0.949 . S
C910 C916 1.368 . S
C911 C895 1.349 . S
C911 H903 0.950 . S
C911 C909 1.327 . S
C912 C900 1.349 . S
C912 H906 0.950 . S
C912 C913 1.327 . S
C913 H907 0.950 . S
C913 C912 1.327 . S
C913 C917 1.429 . S
C914 C897 1.574 . S
C914 H908 0.949 . S
C914 C918 1.368 . S
C915 C896 1.429 . S
C915 C909 1.429 . S
C915 C916 1.523 . S
C916 C897 1.368 . S
C916 C910 1.368 . S
C916 C915 1.523 . S
C917 C901 1.429 . S
C917 C913 1.429 . S
C917 C918 1.523 . S
C918 C902 1.368 . S
C918 C914 1.368 . S
C918 C917 1.523 . S
H919 C894 0.950 . S
H920 C896 0.950 . S
H921 C897 0.949 . S
H922 C899 0.950 . S
H923 C901 0.950 . S
C924 C925 1.305 1_556 S
C924 C926 1.327 . S
C924 H949 0.950 . S
C925 C924 1.305 1_554 S
C925 C941 1.336 1_554 S
C926 C924 1.327 . S
C926 C945 1.429 . S
C926 H950 0.950 . S
C927 C944 1.574 . S
C927 C946 1.368 . S
C927 H951 0.949 . S
H928 C932 0.949 . S
C929 C930 1.349 . S
C929 C931 1.327 . S
C929 H952 0.950 . S
C930 C929 1.349 . S
C930 C942 1.349 . S
C931 C929 1.327 . S
C931 C947 1.429 . S
C931 H953 0.950 . S
C932 H928 0.949 . S
C932 C940 1.574 . S
C932 C948 1.368 . S
H933 C941 0.950 1_554 S
H934 C939 0.950 . S
H935 C940 0.949 . S
H936 C942 0.950 . S
H937 C943 0.950 . S
H938 C944 0.949 . S
C939 H934 0.950 . S
C939 C941 1.327 . S
C939 C945 1.429 . S
C940 C932 1.574 . S
C940 H935 0.949 . S
C940 C946 1.368 . S
C941 C925 1.336 1_556 S
C941 H933 0.950 1_556 S
C941 C939 1.327 . S
C942 C930 1.349 . S
C942 H936 0.950 . S
C942 C943 1.327 . S
C943 H937 0.950 . S
C943 C942 1.327 . S
C943 C947 1.429 . S
C944 C927 1.574 . S
C944 H938 0.949 . S
C944 C948 1.368 . S
C945 C926 1.429 . S
C945 C939 1.429 . S
C945 C946 1.523 . S
C946 C927 1.368 . S
C946 C940 1.368 . S
C946 C945 1.523 . S
C947 C931 1.429 . S
C947 C943 1.429 . S
C947 C948 1.523 . S
C948 C932 1.368 . S
C948 C944 1.368 . S
C948 C947 1.523 . S
H949 C924 0.950 . S
H950 C926 0.950 . S
H951 C927 0.949 . S
H952 C929 0.950 . S
H953 C931 0.950 . S
C954 C955 1.349 . S
C954 C956 1.327 . S
C954 H979 0.950 . S
C955 C954 1.349 . S
C955 C971 1.349 . S
C956 C954 1.327 . S
C956 C975 1.429 . S
C956 H980 0.950 . S
C957 C974 1.574 . S
C957 C976 1.368 . S
C957 H981 0.949 . S
H958 C962 0.949 . S
C959 C960 1.349 . S
C959 C961 1.327 . S
C959 H982 0.950 . S
C960 C959 1.349 . S
C960 C972 1.349 . S
C961 C959 1.327 . S
C961 C977 1.429 . S
C961 H983 0.950 . S
C962 H958 0.949 . S
C962 C970 1.574 . S
C962 C978 1.368 . S
H963 C971 0.950 . S
H964 C969 0.950 . S
H965 C970 0.949 . S
H966 C972 0.950 . S
H967 C973 0.950 . S
H968 C974 0.949 . S
C969 H964 0.950 . S
C969 C971 1.327 . S
C969 C975 1.429 . S
C970 C962 1.574 . S
C970 H965 0.949 . S
C970 C976 1.368 . S
C971 C955 1.349 . S
C971 H963 0.950 . S
C971 C969 1.327 . S
C972 C960 1.349 . S
C972 H966 0.950 . S
C972 C973 1.327 . S
C973 H967 0.950 . S
C973 C972 1.327 . S
C973 C977 1.429 . S
C974 C957 1.574 . S
C974 H968 0.949 . S
C974 C978 1.368 . S
C975 C956 1.429 . S
C975 C969 1.429 . S
C975 C976 1.523 . S
C976 C957 1.368 . S
C976 C970 1.368 . S
C976 C975 1.523 . S
C977 C961 1.429 . S
C977 C973 1.429 . S
C977 C978 1.523 . S
C978 C962 1.368 . S
C978 C974 1.368 . S
C978 C977 1.523 . S
H979 C954 0.950 . S
H980 C956 0.950 . S
H981 C957 0.949 . S
H982 C959 0.950 . S
H983 C961 0.950 . S
C984 C985 1.349 . S
C984 C986 1.327 . S
C984 H1009 0.950 . S
C985 C984 1.349 . S
C985 C1001 1.349 . S
C986 C984 1.327 . S
C986 C1005 1.429 . S
C986 H1010 0.950 . S
C987 C1004 1.574 . S
C987 C1006 1.368 . S
C987 H1011 0.949 . S
H988 C992 0.949 . S
C989 C990 1.349 . S
C989 C991 1.327 . S
C989 H1012 0.950 . S
C990 C989 1.349 . S
C990 C1002 1.349 . S
C991 C989 1.327 . S
C991 C1007 1.429 . S
C991 H1013 0.950 . S
C992 H988 0.949 . S
C992 C1000 1.574 . S
C992 C1008 1.368 . S
H993 C1001 0.950 1_554 S
H994 C999 0.950 . S
H995 C1000 0.949 . S
H996 C1002 0.950 . S
H997 C1003 0.950 . S
H998 C1004 0.949 . S
C999 H994 0.950 . S
C999 C1001 1.327 . S
C999 C1005 1.429 . S
C1000 C992 1.574 . S
C1000 H995 0.949 . S
C1000 C1006 1.368 . S
C1001 C985 1.349 . S
C1001 H993 0.950 1_556 S
C1001 C999 1.327 . S
C1002 C990 1.349 . S
C1002 H996 0.950 . S
C1002 C1003 1.327 . S
C1003 H997 0.950 . S
C1003 C1002 1.327 . S
C1003 C1007 1.429 . S
C1004 C987 1.574 . S
C1004 H998 0.949 . S
C1004 C1008 1.368 . S
C1005 C986 1.429 . S
C1005 C999 1.429 . S
C1005 C1006 1.523 . S
C1006 C987 1.368 . S
C1006 C1000 1.368 . S
C1006 C1005 1.523 . S
C1007 C991 1.429 . S
C1007 C1003 1.429 . S
C1007 C1008 1.523 . S
C1008 C992 1.368 . S
C1008 C1004 1.368 . S
C1008 C1007 1.523 . S
H1009 C984 0.950 . S
H1010 C986 0.950 . S
H1011 C987 0.949 . S
H1012 C989 0.950 . S
H1013 C991 0.950 . S
C1014 C1015 1.349 . S
C1014 C1016 1.327 . S
C1014 H1039 0.950 . S
C1015 C1014 1.349 . S
C1015 C1031 1.349 . S
C1016 C1014 1.327 . S
C1016 C1035 1.429 . S
C1016 H1040 0.950 . S
C1017 C1034 1.574 . S
C1017 C1036 1.368 . S
C1017 H1041 0.949 . S
H1018 C1022 0.949 . S
C1019 C1020 1.349 . S
C1019 C1021 1.327 . S
C1019 H1042 0.950 . S
C1020 C1019 1.349 . S
C1020 C1032 1.349 . S
C1021 C1019 1.327 . S
C1021 C1037 1.429 . S
C1021 H1043 0.950 . S
C1022 H1018 0.949 . S
C1022 C1030 1.574 . S
C1022 C1038 1.368 . S
H1023 C1031 0.950 . S
H1024 C1029 0.950 . S
H1025 C1030 0.949 . S
H1026 C1032 0.950 . S
H1027 C1033 0.950 . S
H1028 C1034 0.949 . S
C1029 H1024 0.950 . S
C1029 C1031 1.327 . S
C1029 C1035 1.429 . S
C1030 C1022 1.574 . S
C1030 H1025 0.949 . S
C1030 C1036 1.368 . S
C1031 C1015 1.349 . S
C1031 H1023 0.950 . S
C1031 C1029 1.327 . S
C1032 C1020 1.349 . S
C1032 H1026 0.950 . S
C1032 C1033 1.327 . S
C1033 H1027 0.950 . S
C1033 C1032 1.327 . S
C1033 C1037 1.429 . S
C1034 C1017 1.574 . S
C1034 H1028 0.949 . S
C1034 C1038 1.368 . S
C1035 C1016 1.429 . S
C1035 C1029 1.429 . S
C1035 C1036 1.523 . S
C1036 C1017 1.368 . S
C1036 C1030 1.368 . S
C1036 C1035 1.523 . S
C1037 C1021 1.429 . S
C1037 C1033 1.429 . S
C1037 C1038 1.523 . S
C1038 C1022 1.368 . S
C1038 C1034 1.368 . S
C1038 C1037 1.523 . S
H1039 C1014 0.950 . S
H1040 C1016 0.950 . S
H1041 C1017 0.949 . S
H1042 C1019 0.950 . S
H1043 C1021 0.950 . S
C1044 C1045 1.349 1_554 S
C1044 C1046 1.327 . S
C1044 H1069 0.950 1_554 S
C1045 C1044 1.349 1_556 S
C1045 C1061 1.349 1_556 S
C1046 C1044 1.327 . S
C1046 C1065 1.429 . S
C1046 H1070 0.950 . S
C1047 C1064 1.574 . S
C1047 C1066 1.368 . S
C1047 H1071 0.949 . S
H1048 C1052 0.949 . S
C1049 C1050 1.349 . S
C1049 C1051 1.327 . S
C1049 H1072 0.950 . S
C1050 C1049 1.349 . S
C1050 C1062 1.349 . S
C1051 C1049 1.327 . S
C1051 C1067 1.429 . S
C1051 H1073 0.950 . S
C1052 H1048 0.949 . S
C1052 C1060 1.574 . S
C1052 C1068 1.368 . S
H1053 C1061 0.950 . S
H1054 C1059 0.950 . S
H1055 C1060 0.949 . S
H1056 C1062 0.950 . S
H1057 C1063 0.950 . S
H1058 C1064 0.949 . S
C1059 H1054 0.950 . S
C1059 C1061 1.327 . S
C1059 C1065 1.429 . S
C1060 C1052 1.574 . S
C1060 H1055 0.949 . S
C1060 C1066 1.368 . S
C1061 C1045 1.349 1_554 S
C1061 H1053 0.950 . S
C1061 C1059 1.327 . S
C1062 C1050 1.349 . S
C1062 H1056 0.950 . S
C1062 C1063 1.327 . S
C1063 H1057 0.950 . S
C1063 C1062 1.327 . S
C1063 C1067 1.429 . S
C1064 C1047 1.574 . S
C1064 H1058 0.949 . S
C1064 C1068 1.368 . S
C1065 C1046 1.429 . S
C1065 C1059 1.429 . S
C1065 C1066 1.523 . S
C1066 C1047 1.368 . S
C1066 C1060 1.368 . S
C1066 C1065 1.523 . S
C1067 C1051 1.429 . S
C1067 C1063 1.429 . S
C1067 C1068 1.523 . S
C1068 C1052 1.368 . S
C1068 C1064 1.368 . S
C1068 C1067 1.523 . S
H1069 C1044 0.950 1_556 S
H1070 C1046 0.950 . S
H1071 C1047 0.949 . S
H1072 C1049 0.950 . S
H1073 C1051 0.950 . S
C1074 C1075 1.349 . S
C1074 C1076 1.327 . S
C1074 H1099 0.950 . S
C1075 C1074 1.349 . S
C1075 C1091 1.349 . S
C1076 C1074 1.327 . S
C1076 C1095 1.429 . S
C1076 H1100 0.950 . S
C1077 C1094 1.574 . S
C1077 C1096 1.368 . S
C1077 H1101 0.949 . S
H1078 C1082 0.949 . S
C1079 C1080 1.349 . S
C1079 C1081 1.327 . S
C1079 H1102 0.950 . S
C1080 C1079 1.349 . S
C1080 C1092 1.349 . S
C1081 C1079 1.327 . S
C1081 C1097 1.429 . S
C1081 H1103 0.950 . S
C1082 H1078 0.949 . S
C1082 C1090 1.574 . S
C1082 C1098 1.368 . S
H1083 C1091 0.950 . S
H1084 C1089 0.950 . S
H1085 C1090 0.949 . S
H1086 C1092 0.950 . S
H1087 C1093 0.950 . S
H1088 C1094 0.949 . S
C1089 H1084 0.950 . S
C1089 C1091 1.327 . S
C1089 C1095 1.429 . S
C1090 C1082 1.574 . S
C1090 H1085 0.949 . S
C1090 C1096 1.368 . S
C1091 C1075 1.349 . S
C1091 H1083 0.950 . S
C1091 C1089 1.327 . S
C1092 C1080 1.349 . S
C1092 H1086 0.950 . S
C1092 C1093 1.327 . S
C1093 H1087 0.950 . S
C1093 C1092 1.327 . S
C1093 C1097 1.429 . S
C1094 C1077 1.574 . S
C1094 H1088 0.949 . S
C1094 C1098 1.368 . S
C1095 C1076 1.429 . S
C1095 C1089 1.429 . S
C1095 C1096 1.523 . S
C1096 C1077 1.368 . S
C1096 C1090 1.368 . S
C1096 C1095 1.523 . S
C1097 C1081 1.429 . S
C1097 C1093 1.429 . S
C1097 C1098 1.523 . S
C1098 C1082 1.368 . S
C1098 C1094 1.368 . S
C1098 C1097 1.523 . S
H1099 C1074 0.950 . S
H1100 C1076 0.950 . S
H1101 C1077 0.949 . S
H1102 C1079 0.950 . S
H1103 C1081 0.950 . S
C1104 C1105 1.349 . S
C1104 C1106 1.327 . S
C1104 H1129 0.950 . S
C1105 C1104 1.349 . S
C1105 C1121 1.349 . S
C1106 C1104 1.327 . S
C1106 C1125 1.429 . S
C1106 H1130 0.950 . S
C1107 C1124 1.574 . S
C1107 C1126 1.368 . S
C1107 H1131 0.949 . S
H1108 C1112 0.949 . S
C1109 C1110 1.349 . S
C1109 C1111 1.327 . S
C1109 H1132 0.950 . S
C1110 C1109 1.349 . S
C1110 C1122 1.349 . S
C1111 C1109 1.327 . S
C1111 C1127 1.429 . S
C1111 H1133 0.950 . S
C1112 H1108 0.949 . S
C1112 C1120 1.574 . S
C1112 C1128 1.368 . S
H1113 C1121 0.950 . S
H1114 C1119 0.950 . S
H1115 C1120 0.949 . S
H1116 C1122 0.950 . S
H1117 C1123 0.950 . S
H1118 C1124 0.949 . S
C1119 H1114 0.950 . S
C1119 C1121 1.327 . S
C1119 C1125 1.429 . S
C1120 C1112 1.574 . S
C1120 H1115 0.949 . S
C1120 C1126 1.368 . S
C1121 C1105 1.349 . S
C1121 H1113 0.950 . S
C1121 C1119 1.327 . S
C1122 C1110 1.349 . S
C1122 H1116 0.950 . S
C1122 C1123 1.327 . S
C1123 H1117 0.950 . S
C1123 C1122 1.327 . S
C1123 C1127 1.429 . S
C1124 C1107 1.574 . S
C1124 H1118 0.949 . S
C1124 C1128 1.368 . S
C1125 C1106 1.429 . S
C1125 C1119 1.429 . S
C1125 C1126 1.523 . S
C1126 C1107 1.368 . S
C1126 C1120 1.368 . S
C1126 C1125 1.523 . S
C1127 C1111 1.429 . S
C1127 C1123 1.429 . S
C1127 C1128 1.523 . S
C1128 C1112 1.368 . S
C1128 C1124 1.368 . S
C1128 C1127 1.523 . S
H1129 C1104 0.950 . S
H1130 C1106 0.950 . S
H1131 C1107 0.949 . S
H1132 C1109 0.950 . S
H1133 C1111 0.950 . S
C1134 C1135 1.349 . S
C1134 C1136 1.327 . S
C1134 H1159 0.950 . S
C1135 C1134 1.349 . S
C1135 C1151 1.349 . S
C1136 C1134 1.327 . S
C1136 C1155 1.429 . S
C1136 H1160 0.950 . S
C1137 C1154 1.574 . S
C1137 C1156 1.368 . S
C1137 H1161 0.949 . S
H1138 C1142 0.949 . S
C1139 C1140 1.349 . S
C1139 C1141 1.327 . S
C1139 H1162 0.950 . S
C1140 C1139 1.349 . S
C1140 C1152 1.349 . S
C1141 C1139 1.327 . S
C1141 C1157 1.429 . S
C1141 H1163 0.950 . S
C1142 H1138 0.949 . S
C1142 C1150 1.574 . S
C1142 C1158 1.368 . S
H1143 C1151 0.950 . S
H1144 C1149 0.950 . S
H1145 C1150 0.949 . S
H1146 C1152 0.950 . S
H1147 C1153 0.950 . S
H1148 C1154 0.949 . S
C1149 H1144 0.950 . S
C1149 C1151 1.327 . S
C1149 C1155 1.429 . S
C1150 C1142 1.574 . S
C1150 H1145 0.949 . S
C1150 C1156 1.368 . S
C1151 C1135 1.349 . S
C1151 H1143 0.950 . S
C1151 C1149 1.327 . S
C1152 C1140 1.349 . S
C1152 H1146 0.950 . S
C1152 C1153 1.327 . S
C1153 H1147 0.950 . S
C1153 C1152 1.327 . S
C1153 C1157 1.429 . S
C1154 C1137 1.574 . S
C1154 H1148 0.949 . S
C1154 C1158 1.368 . S
C1155 C1136 1.429 . S
C1155 C1149 1.429 . S
C1155 C1156 1.523 . S
C1156 C1137 1.368 . S
C1156 C1150 1.368 . S
C1156 C1155 1.523 . S
C1157 C1141 1.429 . S
C1157 C1153 1.429 . S
C1157 C1158 1.523 . S
C1158 C1142 1.368 . S
C1158 C1154 1.368 . S
C1158 C1157 1.523 . S
H1159 C1134 0.950 . S
H1160 C1136 0.950 . S
H1161 C1137 0.949 . S
H1162 C1139 0.950 . S
H1163 C1141 0.950 . S
C1164 C1165 1.349 . S
C1164 C1166 1.327 . S
C1164 H1189 0.950 . S
C1165 C1164 1.349 . S
C1165 C1181 1.349 . S
C1166 C1164 1.327 . S
C1166 C1185 1.429 . S
C1166 H1190 0.950 . S
C1167 C1184 1.574 . S
C1167 C1186 1.368 . S
C1167 H1191 0.949 . S
H1168 C1172 0.949 . S
C1169 C1170 1.349 . S
C1169 C1171 1.327 . S
C1169 H1192 0.950 . S
C1170 C1169 1.349 . S
C1170 C1182 1.349 . S
C1171 C1169 1.327 . S
C1171 C1187 1.429 . S
C1171 H1193 0.950 . S
C1172 H1168 0.949 . S
C1172 C1180 1.574 . S
C1172 C1188 1.368 . S
H1173 C1181 0.950 . S
H1174 C1179 0.950 . S
H1175 C1180 0.949 . S
H1176 C1182 0.950 . S
H1177 C1183 0.950 . S
H1178 C1184 0.949 . S
C1179 H1174 0.950 . S
C1179 C1181 1.327 . S
C1179 C1185 1.429 . S
C1180 C1172 1.574 . S
C1180 H1175 0.949 . S
C1180 C1186 1.368 . S
C1181 C1165 1.349 . S
C1181 H1173 0.950 . S
C1181 C1179 1.327 . S
C1182 C1170 1.349 . S
C1182 H1176 0.950 . S
C1182 C1183 1.327 . S
C1183 H1177 0.950 . S
C1183 C1182 1.327 . S
C1183 C1187 1.429 . S
C1184 C1167 1.574 . S
C1184 H1178 0.949 . S
C1184 C1188 1.368 . S
C1185 C1166 1.429 . S
C1185 C1179 1.429 . S
C1185 C1186 1.523 . S
C1186 C1167 1.368 . S
C1186 C1180 1.368 . S
C1186 C1185 1.523 . S
C1187 C1171 1.429 . S
C1187 C1183 1.429 . S
C1187 C1188 1.523 . S
C1188 C1172 1.368 . S
C1188 C1184 1.368 . S
C1188 C1187 1.523 . S
H1189 C1164 0.950 . S
H1190 C1166 0.950 . S
H1191 C1167 0.949 . S
H1192 C1169 0.950 . S
H1193 C1171 0.950 . S
C1194 C1195 1.349 . S
C1194 C1196 1.327 . S
C1194 H1219 0.950 . S
C1195 C1194 1.349 . S
C1195 C1211 1.349 . S
C1196 C1194 1.327 . S
C1196 C1215 1.429 . S
C1196 H1220 0.950 . S
C1197 C1214 1.574 . S
C1197 C1216 1.368 . S
C1197 H1221 0.949 . S
H1198 C1202 0.949 . S
C1199 C1200 1.349 . S
C1199 C1201 1.327 . S
C1199 H1222 0.950 . S
C1200 C1199 1.349 . S
C1200 C1212 1.349 . S
C1201 C1199 1.327 . S
C1201 C1217 1.429 . S
C1201 H1223 0.950 . S
C1202 H1198 0.949 . S
C1202 C1210 1.574 . S
C1202 C1218 1.368 . S
H1203 C1211 0.950 . S
H1204 C1209 0.950 . S
H1205 C1210 0.949 . S
H1206 C1212 0.950 . S
H1207 C1213 0.950 . S
H1208 C1214 0.949 . S
C1209 H1204 0.950 . S
C1209 C1211 1.327 . S
C1209 C1215 1.429 . S
C1210 C1202 1.574 . S
C1210 H1205 0.949 . S
C1210 C1216 1.368 . S
C1211 C1195 1.349 . S
C1211 H1203 0.950 . S
C1211 C1209 1.327 . S
C1212 C1200 1.349 . S
C1212 H1206 0.950 . S
C1212 C1213 1.327 . S
C1213 H1207 0.950 . S
C1213 C1212 1.327 . S
C1213 C1217 1.429 . S
C1214 C1197 1.574 . S
C1214 H1208 0.949 . S
C1214 C1218 1.368 . S
C1215 C1196 1.429 . S
C1215 C1209 1.429 . S
C1215 C1216 1.523 . S
C1216 C1197 1.368 . S
C1216 C1210 1.368 . S
C1216 C1215 1.523 . S
C1217 C1201 1.429 . S
C1217 C1213 1.429 . S
C1217 C1218 1.523 . S
C1218 C1202 1.368 . S
C1218 C1214 1.368 . S
C1218 C1217 1.523 . S
H1219 C1194 0.950 . S
H1220 C1196 0.950 . S
H1221 C1197 0.949 . S
H1222 C1199 0.950 . S
H1223 C1201 0.950 . S
C1224 C1225 1.349 . S
C1224 C1226 1.327 . S
C1224 H1249 0.950 . S
C1225 C1224 1.349 . S
C1225 C1241 1.349 . S
C1226 C1224 1.327 . S
C1226 C1245 1.429 . S
C1226 H1250 0.950 . S
C1227 C1244 1.574 . S
C1227 C1246 1.368 . S
C1227 H1251 0.949 . S
H1228 C1232 0.949 . S
C1229 C1230 1.349 . S
C1229 C1231 1.327 . S
C1229 H1252 0.950 . S
C1230 C1229 1.349 . S
C1230 C1242 1.349 . S
C1231 C1229 1.327 . S
C1231 C1247 1.429 . S
C1231 H1253 0.950 . S
C1232 H1228 0.949 . S
C1232 C1240 1.574 . S
C1232 C1248 1.368 . S
H1233 C1241 0.950 . S
H1234 C1239 0.950 . S
H1235 C1240 0.949 . S
H1236 C1242 0.950 . S
H1237 C1243 0.950 . S
H1238 C1244 0.949 . S
C1239 H1234 0.950 . S
C1239 C1241 1.327 . S
C1239 C1245 1.429 . S
C1240 C1232 1.574 . S
C1240 H1235 0.949 . S
C1240 C1246 1.368 . S
C1241 C1225 1.349 . S
C1241 H1233 0.950 . S
C1241 C1239 1.327 . S
C1242 C1230 1.349 . S
C1242 H1236 0.950 . S
C1242 C1243 1.327 . S
C1243 H1237 0.950 . S
C1243 C1242 1.327 . S
C1243 C1247 1.429 . S
C1244 C1227 1.574 . S
C1244 H1238 0.949 . S
C1244 C1248 1.368 . S
C1245 C1226 1.429 . S
C1245 C1239 1.429 . S
C1245 C1246 1.523 . S
C1246 C1227 1.368 . S
C1246 C1240 1.368 . S
C1246 C1245 1.523 . S
C1247 C1231 1.429 . S
C1247 C1243 1.429 . S
C1247 C1248 1.523 . S
C1248 C1232 1.368 . S
C1248 C1244 1.368 . S
C1248 C1247 1.523 . S
H1249 C1224 0.950 . S
H1250 C1226 0.950 . S
H1251 C1227 0.949 . S
H1252 C1229 0.950 . S
H1253 C1231 0.950 . S
C1254 C1255 1.349 . S
C1254 C1256 1.327 . S
C1254 H1279 0.950 . S
C1255 C1254 1.349 . S
C1255 C1271 1.349 . S
C1256 C1254 1.327 . S
C1256 C1275 1.429 . S
C1256 H1280 0.950 . S
C1257 C1274 1.574 . S
C1257 C1276 1.368 . S
C1257 H1281 0.949 . S
H1258 C1262 0.949 . S
C1259 C1260 1.349 . S
C1259 C1261 1.327 . S
C1259 H1282 0.950 . S
C1260 C1259 1.349 . S
C1260 C1272 1.349 . S
C1261 C1259 1.327 . S
C1261 C1277 1.429 . S
C1261 H1283 0.950 . S
C1262 H1258 0.949 . S
C1262 C1270 1.574 . S
C1262 C1278 1.368 . S
H1263 C1271 0.950 . S
H1264 C1269 0.950 . S
H1265 C1270 0.949 . S
H1266 C1272 0.950 . S
H1267 C1273 0.950 . S
H1268 C1274 0.949 . S
C1269 H1264 0.950 . S
C1269 C1271 1.327 . S
C1269 C1275 1.429 . S
C1270 C1262 1.574 . S
C1270 H1265 0.949 . S
C1270 C1276 1.368 . S
C1271 C1255 1.349 . S
C1271 H1263 0.950 . S
C1271 C1269 1.327 . S
C1272 C1260 1.349 . S
C1272 H1266 0.950 . S
C1272 C1273 1.327 . S
C1273 H1267 0.950 . S
C1273 C1272 1.327 . S
C1273 C1277 1.429 . S
C1274 C1257 1.574 . S
C1274 H1268 0.949 . S
C1274 C1278 1.368 . S
C1275 C1256 1.429 . S
C1275 C1269 1.429 . S
C1275 C1276 1.523 . S
C1276 C1257 1.368 . S
C1276 C1270 1.368 . S
C1276 C1275 1.523 . S
C1277 C1261 1.429 . S
C1277 C1273 1.429 . S
C1277 C1278 1.523 . S
C1278 C1262 1.368 . S
C1278 C1274 1.368 . S
C1278 C1277 1.523 . S
H1279 C1254 0.950 . S
H1280 C1256 0.950 . S
H1281 C1257 0.949 . S
H1282 C1259 0.950 . S
H1283 C1261 0.950 . S
C1284 C1285 1.349 . S
C1284 C1286 1.327 . S
C1284 H1309 0.950 . S
C1285 C1284 1.349 . S
C1285 C1301 1.349 . S
C1286 C1284 1.327 . S
C1286 C1305 1.429 . S
C1286 H1310 0.950 . S
C1287 C1304 1.574 . S
C1287 C1306 1.368 . S
C1287 H1311 0.949 . S
H1288 C1292 0.949 . S
C1289 C1290 1.349 . S
C1289 C1291 1.327 . S
C1289 H1312 0.950 . S
C1290 C1289 1.349 . S
C1290 C1302 1.349 . S
C1291 C1289 1.327 . S
C1291 C1307 1.429 . S
C1291 H1313 0.950 . S
C1292 H1288 0.949 . S
C1292 C1300 1.574 . S
C1292 C1308 1.368 . S
H1293 C1301 0.950 . S
H1294 C1299 0.950 . S
H1295 C1300 0.949 . S
H1296 C1302 0.950 . S
H1297 C1303 0.950 . S
H1298 C1304 0.949 . S
C1299 H1294 0.950 . S
C1299 C1301 1.327 . S
C1299 C1305 1.429 . S
C1300 C1292 1.574 . S
C1300 H1295 0.949 . S
C1300 C1306 1.368 . S
C1301 C1285 1.349 . S
C1301 H1293 0.950 . S
C1301 C1299 1.327 . S
C1302 C1290 1.349 . S
C1302 H1296 0.950 . S
C1302 C1303 1.327 . S
C1303 H1297 0.950 . S
C1303 C1302 1.327 . S
C1303 C1307 1.429 . S
C1304 C1287 1.574 . S
C1304 H1298 0.949 . S
C1304 C1308 1.368 . S
C1305 C1286 1.429 . S
C1305 C1299 1.429 . S
C1305 C1306 1.523 . S
C1306 C1287 1.368 . S
C1306 C1300 1.368 . S
C1306 C1305 1.523 . S
C1307 C1291 1.429 . S
C1307 C1303 1.429 . S
C1307 C1308 1.523 . S
C1308 C1292 1.368 . S
C1308 C1304 1.368 . S
C1308 C1307 1.523 . S
H1309 C1284 0.950 . S
H1310 C1286 0.950 . S
H1311 C1287 0.949 . S
H1312 C1289 0.950 . S
H1313 C1291 0.950 . S
C1314 C1315 1.349 . S
C1314 C1316 1.327 . S
C1314 H1339 0.950 . S
C1315 C1314 1.349 . S
C1315 C1331 1.349 . S
C1316 C1314 1.327 . S
C1316 C1335 1.429 . S
C1316 H1340 0.950 . S
C1317 C1334 1.574 . S
C1317 C1336 1.368 . S
C1317 H1341 0.949 . S
H1318 C1322 0.949 . S
C1319 C1320 1.349 . S
C1319 C1321 1.327 . S
C1319 H1342 0.950 . S
C1320 C1319 1.349 . S
C1320 C1332 1.349 . S
C1321 C1319 1.327 . S
C1321 C1337 1.429 . S
C1321 H1343 0.950 . S
C1322 H1318 0.949 . S
C1322 C1330 1.574 . S
C1322 C1338 1.368 . S
H1323 C1331 0.950 . S
H1324 C1329 0.950 . S
H1325 C1330 0.949 . S
H1326 C1332 0.950 . S
H1327 C1333 0.950 . S
H1328 C1334 0.949 . S
C1329 H1324 0.950 . S
C1329 C1331 1.327 . S
C1329 C1335 1.429 . S
C1330 C1322 1.574 . S
C1330 H1325 0.949 . S
C1330 C1336 1.368 . S
C1331 C1315 1.349 . S
C1331 H1323 0.950 . S
C1331 C1329 1.327 . S
C1332 C1320 1.349 . S
C1332 H1326 0.950 . S
C1332 C1333 1.327 . S
C1333 H1327 0.950 . S
C1333 C1332 1.327 . S
C1333 C1337 1.429 . S
C1334 C1317 1.574 . S
C1334 H1328 0.949 . S
C1334 C1338 1.368 . S
C1335 C1316 1.429 . S
C1335 C1329 1.429 . S
C1335 C1336 1.523 . S
C1336 C1317 1.368 . S
C1336 C1330 1.368 . S
C1336 C1335 1.523 . S
C1337 C1321 1.429 . S
C1337 C1333 1.429 . S
C1337 C1338 1.523 . S
C1338 C1322 1.368 . S
C1338 C1334 1.368 . S
C1338 C1337 1.523 . S
H1339 C1314 0.950 . S
H1340 C1316 0.950 . S
H1341 C1317 0.949 . S
H1342 C1319 0.950 . S
H1343 C1321 0.950 . S
C625 C247 1.474 . S
C630 C344 1.453 . S
C660 C428 1.453 . S
C655 C283 1.474 . S
C690 C427 1.459 . S
C685 C175 1.463 . S
C715 C211 1.463 . S
C720 C343 1.459 . S
C750 C524 1.453 . S
C745 C103 1.462 . S
C780 C608 1.453 . S
C775 C139 1.462 . S
C805 C31 1.449 . S
C810 C607 1.459 . S
C835 C67 1.449 . S
C840 C523 1.459 . S
C870 C346 1.341 . S
C865 C37 1.508 1_554 S
C900 C430 1.341 . S
C895 C1 1.508 . S
C930 C442 1.407 . S
C925 C109 1.598 . S
C960 C358 1.407 . S
C955 C73 1.537 . S
C990 C526 1.341 . S
C985 C181 1.520 1_556 S
C1015 C145 1.520 . S
C1020 C610 1.341 . S
C1050 C598 1.407 . S
C1045 C253 1.547 . S
C1075 C217 1.547 . S
C1080 C514 1.407 . S
C1110 C355 1.592 . S
C1105 C25 1.570 . S
C1140 C439 1.592 . S
C1135 C61 1.570 . S
C1165 C97 1.558 . S
C1170 C440 1.564 . S
C1200 C356 1.564 . S
C1195 C133 1.558 . S
C1230 C511 1.592 . S
C1225 C169 1.587 . S
C1255 C205 1.587 . S
C1260 C595 1.592 . S
C1285 C241 1.573 . S
C1290 C596 1.564 . S
C1315 C277 1.573 . S
C1320 C512 1.564 . S
