# Generated by pormake.
# Topology zzz, (3,6)-cn, num edge types: 1
# Building blocks:
#     Node 0, Type 0, BuildingBlock: PAMTOO_clean_linker_0, # of connection points: 3
#     Node 1, Type 0, BuildingBlock: PAMTOO_clean_linker_0, # of connection points: 3
#     Node 2, Type 0, BuildingBlock: PAMTOO_clean_linker_0, # of connection points: 3
#     Node 3, Type 0, BuildingBlock: PAMTOO_clean_linker_0, # of connection points: 3
#     Node 4, Type 0, BuildingBlock: PAMTOO_clean_linker_0, # of connection points: 3
#     Node 5, Type 0, BuildingBlock: PAMTOO_clean_linker_0, # of connection points: 3
#     Node 6, Type 0, BuildingBlock: PAMTOO_clean_linker_0, # of connection points: 3
#     Node 7, Type 0, BuildingBlock: PAMTOO_clean_linker_0, # of connection points: 3
#     Node 8, Type 1, BuildingBlock: KUMJIN_clean_sbu_0, # of connection points: 6
#     Node 9, Type 1, BuildingBlock: KUMJIN_clean_sbu_0, # of connection points: 6
#     Node 10, Type 1, BuildingBlock: KUMJIN_clean_sbu_0, # of connection points: 6
#     Node 11, Type 1, BuildingBlock: KUMJIN_clean_sbu_0, # of connection points: 6
#     Edge 12, Type (0, 1), BuildingBlock: AJUNOK_clean_linker_0, # of connection points: 2
#     Edge 13, Type (0, 1), BuildingBlock: AJUNOK_clean_linker_0, # of connection points: 2
#     Edge 14, Type (0, 1), BuildingBlock: AJUNOK_clean_linker_0, # of connection points: 2
#     Edge 15, Type (0, 1), BuildingBlock: AJUNOK_clean_linker_0, # of connection points: 2
#     Edge 16, Type (0, 1), BuildingBlock: AJUNOK_clean_linker_0, # of connection points: 2
#     Edge 17, Type (0, 1), BuildingBlock: AJUNOK_clean_linker_0, # of connection points: 2
#     Edge 18, Type (0, 1), BuildingBlock: AJUNOK_clean_linker_0, # of connection points: 2
#     Edge 19, Type (0, 1), BuildingBlock: AJUNOK_clean_linker_0, # of connection points: 2
#     Edge 20, Type (0, 1), BuildingBlock: AJUNOK_clean_linker_0, # of connection points: 2
#     Edge 21, Type (0, 1), BuildingBlock: AJUNOK_clean_linker_0, # of connection points: 2
#     Edge 22, Type (0, 1), BuildingBlock: AJUNOK_clean_linker_0, # of connection points: 2
#     Edge 23, Type (0, 1), BuildingBlock: AJUNOK_clean_linker_0, # of connection points: 2
#     Edge 24, Type (0, 1), BuildingBlock: AJUNOK_clean_linker_0, # of connection points: 2
#     Edge 25, Type (0, 1), BuildingBlock: AJUNOK_clean_linker_0, # of connection points: 2
#     Edge 26, Type (0, 1), BuildingBlock: AJUNOK_clean_linker_0, # of connection points: 2
#     Edge 27, Type (0, 1), BuildingBlock: AJUNOK_clean_linker_0, # of connection points: 2
#     Edge 28, Type (0, 1), BuildingBlock: AJUNOK_clean_linker_0, # of connection points: 2
#     Edge 29, Type (0, 1), BuildingBlock: AJUNOK_clean_linker_0, # of connection points: 2
#     Edge 30, Type (0, 1), BuildingBlock: AJUNOK_clean_linker_0, # of connection points: 2
#     Edge 31, Type (0, 1), BuildingBlock: AJUNOK_clean_linker_0, # of connection points: 2
#     Edge 32, Type (0, 1), BuildingBlock: AJUNOK_clean_linker_0, # of connection points: 2
#     Edge 33, Type (0, 1), BuildingBlock: AJUNOK_clean_linker_0, # of connection points: 2
#     Edge 34, Type (0, 1), BuildingBlock: AJUNOK_clean_linker_0, # of connection points: 2
#     Edge 35, Type (0, 1), BuildingBlock: AJUNOK_clean_linker_0, # of connection points: 2
# Relax obj value: 0.229
# Max RMSD: 0.183
# Mean RMSD: 0.118
data_MOF--net-zzz--node1-KUMJIN_clean_sbu_0--node2-PAMTOO_clean_linker_0--edge1-AJUNOK_clean_linker_0
_symmetry_space_group_name_H-M    P1
_symmetry_Int_Tables_number       1
_symmetry_cell_setting            triclinic
loop_
_symmetry_equiv_pos_as_xyz
'x, y, z'
_cell_length_a     36.96932
_cell_length_b     37.267723
_cell_length_c     11.081811
_cell_angle_alpha  91.582023
_cell_angle_beta   90.366054
_cell_angle_gamma 89.881487
loop_
_atom_site_label
_atom_site_type_symbol
_atom_site_fract_x
_atom_site_fract_y
_atom_site_fract_z
_atom_type_partial_charge
H0 H 0.8416 0.48104 0.35167 0.0
H1 H 0.73798 0.48572 0.17485 0.0
H2 H 0.77781 0.57771 0.38147 0.0
H3 H 0.72916 0.54698 0.05798 0.0
C4 C 0.7118 0.56128 0.12541 0.0
O5 O 0.72078 0.55008 0.24262 0.0
H6 H 0.71873 0.5902 0.12091 0.0
C7 C 0.81668 0.49552 0.33425 0.0
C8 C 0.81345 0.53058 0.38081 0.0
C9 C 0.7902 0.47958 0.25884 0.0
C10 C 0.75832 0.49825 0.23291 0.0
C11 C 0.75313 0.53371 0.27387 0.0
C12 C 0.78119 0.55031 0.34862 0.0
H13 H 1.00291 0.86752 0.22997 0.0
H14 H 0.99524 0.75737 0.10947 0.0
H15 H 0.02486 0.78315 0.47866 0.0
H16 H 0.96834 0.70875 0.25914 0.0
C17 C 0.99645 0.69892 0.27225 0.0
O18 O 1.01952 0.72885 0.2956 0.0
H19 H 0.99533 0.68334 0.35615 0.0
C20 C 1.00236 0.83937 0.25208 0.0
C21 C 1.01066 0.83015 0.37139 0.0
C22 C 0.99788 0.81331 0.15815 0.0
C23 C 0.99847 0.77697 0.18305 0.0
C24 C 1.0093 0.76489 0.29448 0.0
C25 C 1.01521 0.79175 0.39172 0.0
H26 H 0.70001 0.98474 0.25235 0.0
H27 H 0.81326 0.97002 0.18561 0.0
H28 H 0.77829 0.03631 0.48746 0.0
H29 H 0.85464 0.06595 0.29992 0.0
C30 C 0.85172 0.0394 0.25318 0.0
O31 O 0.83658 1.01588 0.33754 0.0
H32 H 0.83192 0.04429 0.17949 0.0
C33 C 0.72775 0.98792 0.28242 0.0
C34 C 0.73451 1.00753 0.39083 0.0
C35 C 0.75608 0.97639 0.20527 0.0
C36 C 0.79182 0.98003 0.24376 0.0
C37 C 0.80075 1.00473 0.33473 0.0
C38 C 0.77189 0.01805 0.41279 0.0
H39 H 0.60323 0.70698 0.3091 0.0
H40 H 0.59064 0.80987 0.15267 0.0
H41 H 0.53356 0.78547 0.47944 0.0
H42 H 0.49528 0.84802 0.28012 0.0
C43 C 0.52136 0.8484 0.23115 0.0
O44 O 0.54832 0.83748 0.31252 0.0
H45 H 0.51855 0.82815 0.15599 0.0
C46 C 0.5925 0.73385 0.31534 0.0
C47 C 0.56863 0.74214 0.41001 0.0
C48 C 0.59931 0.7571 0.21998 0.0
C49 C 0.5854 0.79192 0.22582 0.0
C50 C 0.56161 0.80282 0.31728 0.0
C51 C 0.5524 0.7775 0.40933 0.0
H52 H 0.20506 0.55112 0.27451 0.0
H53 H 0.31748 0.55023 0.36068 0.0
H54 H 0.27921 0.49273 0.04084 0.0
H55 H 0.35877 0.4542 0.23115 0.0
C56 C 0.35272 0.47949 0.28222 0.0
O57 O 0.33737 0.50389 0.20105 0.0
H58 H 0.3321 0.47232 0.3502 0.0
C59 C 0.23201 0.54251 0.24868 0.0
C60 C 0.23738 0.52385 0.1381 0.0
C61 C 0.26086 0.55413 0.32205 0.0
C62 C 0.2955 0.5413 0.30214 0.0
C63 C 0.3023 0.51667 0.20829 0.0
C64 C 0.27339 0.50885 0.12111 0.0
H65 H 0.03694 0.19939 0.25296 0.0
H66 H 0.05913 0.30681 0.37629 0.0
H67 H 0.04217 0.28445 0.99575 0.0
H68 H 1.00538 0.34375 0.29102 0.0
C69 C 0.02246 0.36 0.23124 0.0
O70 O 0.05063 0.33833 0.1813 0.0
H71 H 1.00448 0.36681 0.15488 0.0
C72 C 0.04308 0.22684 0.23026 0.0
C73 C 0.043 0.23641 0.10801 0.0
C74 C 0.04762 0.25248 0.32475 0.0
C75 C 0.05565 0.28783 0.30109 0.0
C76 C 0.05112 0.30098 0.18655 0.0
C77 C 0.04532 0.27496 0.08662 0.0
H78 H 0.36374 1.00605 0.16491 0.0
H79 H 0.26099 0.03096 0.32055 0.0
H80 H 0.28824 0.07355 0.97362 0.0
H81 H 0.20683 0.02412 0.13173 0.0
C82 C 0.20243 0.05325 0.15133 0.0
O83 O 0.23626 0.07095 0.15801 0.0
H84 H 0.18781 0.06309 0.07078 0.0
C85 C 0.33791 0.01964 0.15625 0.0
C86 C 0.33063 0.03986 0.05342 0.0
C87 C 0.31266 1.01601 0.24891 0.0
C88 C 0.27977 0.03384 0.2466 0.0
C89 C 0.26972 0.05418 0.14895 0.0
C90 C 0.29545 0.05759 0.05029 0.0
H91 H 0.45156 0.36099 0.1649 0.0
H92 H 0.45122 0.25449 0.30297 0.0
H93 H 0.53167 0.28414 0.04552 0.0
H94 H 0.52287 0.23884 0.3635 0.0
C95 C 0.52498 0.21852 0.28827 0.0
O96 O 0.5054 0.23017 0.18724 0.0
H97 H 0.55411 0.21793 0.26436 0.0
C98 C 0.46313 0.33435 0.16805 0.0
C99 C 0.49304 0.32671 0.09353 0.0
C100 C 0.45103 0.3104 0.25612 0.0
C101 C 0.46255 0.27454 0.24566 0.0
C102 C 0.49235 0.26469 0.17536 0.0
C103 C 0.50813 0.29111 0.0988 0.0
Eu104 Eu 0.06695 0.02319 0.82069 0.0
C105 C 0.94541 0.97955 0.52958 0.0
C106 C 0.97372 0.95682 0.34611 0.0
C107 C 0.91949 0.92826 0.41758 0.0
C108 C 0.97288 0.98154 0.44584 0.0
C109 C 0.91783 0.95339 0.51382 0.0
C110 C 0.94743 0.92991 0.33412 0.0
C111 C 0.88607 0.98102 0.68043 0.0
N112 N 0.94423 1.0043 0.62191 0.0
C113 C 0.91353 1.00653 0.69166 0.0
C114 C 0.88858 0.95383 0.59278 0.0
Eu115 Eu 0.99398 0.04626 0.63859 0.0
N116 N 0.99778 1.00832 0.45811 0.0
C117 C 1.02099 1.01383 0.36437 0.0
C118 C 1.00054 0.96018 0.25943 0.0
C119 C 0.02387 0.9892 0.26764 0.0
H120 H 0.90907 0.02866 0.75483 0.0
H121 H 0.04362 0.99313 0.19769 0.0
H122 H 0.94795 0.91074 0.2589 0.0
H123 H 0.86256 0.98285 0.73808 0.0
H124 H 0.03678 0.03757 0.35856 0.0
H125 H 0.05335 0.08733 0.26112 0.0
H126 H 1.0025 0.94145 0.18324 0.0
H127 H 0.14959 0.01979 0.67487 0.0
H128 H 0.03886 0.04917 0.10183 0.0
H129 H 0.19793 0.06191 0.62589 0.0
H130 H 0.8988 0.9079 0.40534 0.0
H131 H 0.13918 0.12795 0.38045 0.0
H132 H 0.14181 0.16924 0.07245 0.0
H133 H 0.86701 0.93429 0.58331 0.0
H134 H 0.17653 0.16267 0.89313 0.0
N135 N 0.07836 0.06693 0.98089 0.0
C136 C 0.06027 0.06764 0.08663 0.0
C137 C 0.10466 0.11015 0.18927 0.0
C138 C 0.11586 0.11566 0.0613 0.0
C139 C 0.07077 0.0899 0.18404 0.0
C140 C 0.10595 0.09007 0.96804 0.0
H141 H 0.2006 0.12154 0.72944 0.0
N142 N 0.12152 0.057 0.79197 0.0
C143 C 0.17741 0.06976 0.69074 0.0
C144 C 0.12628 0.08659 0.86392 0.0
C145 C 0.14937 0.04627 0.7173 0.0
C146 C 0.17886 0.10321 0.74937 0.0
C147 C 0.15422 0.11104 0.84148 0.0
O148 O 0.11707 0.99864 0.88506 0.0
O149 O 1.02145 0.99576 0.70659 0.0
O150 O 0.96765 0.0353 0.81955 0.0
O151 O 1.01492 1.018 0.94153 0.0
O152 O 0.07344 0.97806 0.67834 0.0
O153 O 0.06603 0.98171 0.95523 0.0
O154 O 0.94084 0.06814 0.59335 0.0
O155 O 0.03753 0.07356 0.76101 0.0
O156 O 0.08806 0.02564 0.62658 0.0
O157 O 0.04747 0.06391 0.54148 0.0
O158 O 0.98472 0.08813 0.79005 0.0
O159 O 0.9885 0.09063 0.5163 0.0
C160 C 0.04027 0.97162 0.64815 0.0
C161 C 0.10604 0.93666 0.88669 0.0
C162 C 0.07377 0.88229 0.82805 0.0
C163 C 0.07979 0.91112 0.90904 0.0
C164 C 0.09831 0.87557 0.73412 0.0
C165 C 0.13088 0.92985 0.79273 0.0
C166 C 0.12732 0.89901 0.71841 0.0
C167 C 0.97964 0.02403 0.92389 0.0
C168 C 0.09989 0.97315 0.93728 0.0
C169 C 0.15737 0.14182 0.91433 0.0
C170 C 0.13764 0.14469 0.02091 0.0
C171 C 1.01741 0.09567 0.82316 0.0
C172 C 0.9454 0.13085 0.60063 0.0
C173 C 0.96979 0.15886 0.58952 0.0
C174 C 0.96769 0.18977 0.66358 0.0
C175 C 0.93888 0.19398 0.74428 0.0
C176 C 0.91644 0.13508 0.68175 0.0
C177 C 0.91307 0.16672 0.75215 0.0
C178 C 0.07981 0.0479 0.54046 0.0
C179 C 0.95453 0.09585 0.54333 0.0
H180 H 0.06195 0.91543 0.98554 0.0
H181 H 0.09489 0.85259 0.67317 0.0
H182 H 0.1516 0.94922 0.77221 0.0
H183 H 0.14609 0.89418 0.64516 0.0
H184 H 0.99118 0.15631 0.5232 0.0
H185 H 0.9362 0.21825 0.79954 0.0
H186 H 0.89712 0.11366 0.69338 0.0
H187 H 0.89082 0.1698 0.81462 0.0
Eu188 Eu 0.54387 0.06042 0.82414 0.0
C189 C 0.59017 0.95658 0.49967 0.0
C190 C 0.59516 0.97651 0.29496 0.0
C191 C 0.63984 0.93538 0.37225 0.0
C192 C 0.57666 0.97635 0.40593 0.0
C193 C 0.62131 0.93485 0.48209 0.0
C194 C 0.62707 0.9567 0.27975 0.0
C195 C 0.61436 0.91412 0.6839 0.0
N196 N 0.57295 0.95829 0.60755 0.0
C197 C 0.58429 0.93657 0.69794 0.0
C198 C 0.6333 0.91358 0.57601 0.0
Eu199 Eu 0.51866 0.99356 0.61702 0.0
N200 N 0.54492 0.99436 0.42106 0.0
C201 C 0.52828 1.00883 0.32314 0.0
C202 C 0.58078 0.99617 0.2013 0.0
C203 C 0.547 1.01203 0.21539 0.0
H204 H 0.56988 0.93504 0.78015 0.0
H205 H 0.5357 0.02744 0.14458 0.0
H206 H 0.64157 0.95721 0.19568 0.0
H207 H 0.62272 0.89702 0.75634 0.0
H208 H 0.50125 0.01988 0.32978 0.0
H209 H 0.44016 0.04071 0.1703 0.0
H210 H 0.59492 0.99797 0.11652 0.0
H211 H 0.57188 0.13837 0.70612 0.0
H212 H 0.48491 0.02257 0.0198 0.0
H213 H 0.5565 0.20276 0.71585 0.0
H214 H 0.66417 0.91957 0.35822 0.0
H215 H 0.42344 0.10463 0.1963 0.0
H216 H 0.43004 0.16772 0.1294 0.0
H217 H 0.65689 0.89649 0.56581 0.0
H218 H 0.45962 0.21113 0.99982 0.0
N219 N 0.49703 0.0753 0.96568 0.0
C220 C 0.47965 0.05053 0.03293 0.0
C221 C 0.44409 0.09678 0.13177 0.0
C222 C 0.46071 0.12211 0.05998 0.0
C223 C 0.45354 0.06078 0.11775 0.0
C224 C 0.48764 0.11051 0.97743 0.0
H225 H 0.50726 0.22463 0.84877 0.0
N226 N 0.53108 0.12339 0.83016 0.0
C227 C 0.54168 0.18406 0.76977 0.0
C228 C 0.5048 0.13515 0.90654 0.0
C229 C 0.55031 0.14753 0.76463 0.0
C230 C 0.51384 0.19627 0.84461 0.0
C231 C 0.49526 0.17187 0.91498 0.0
O232 O 0.58098 0.0978 0.91761 0.0
O233 O 0.56928 0.01982 0.68989 0.0
O234 O 0.51599 0.96661 0.80269 0.0
O235 O 0.54173 1.00832 0.93581 0.0
O236 O 0.58284 0.07228 0.66885 0.0
O237 O 0.58654 0.04139 0.94301 0.0
O238 O 0.50477 0.93715 0.6362 0.0
O239 O 0.49614 0.02522 0.77701 0.0
O240 O 0.51521 0.0904 0.67425 0.0
O241 O 0.51718 0.04868 0.51752 0.0
O242 O 0.46289 0.02126 0.62999 0.0
O243 O 0.48227 0.96649 0.48845 0.0
C244 C 0.59037 0.04024 0.63104 0.0
C245 C 0.63927 0.07263 0.89623 0.0
C246 C 0.69267 0.03729 0.84308 0.0
C247 C 0.66135 0.04275 0.91226 0.0
C248 C 0.70283 0.06349 0.76102 0.0
C249 C 0.64991 0.09881 0.81447 0.0
C250 C 0.68157 0.09417 0.74747 0.0
C251 C 0.52912 0.9754 0.91138 0.0
C252 C 0.60269 0.07231 0.94826 0.0
C253 C 0.46774 0.1832 0.99393 0.0
C254 C 0.45084 0.15847 0.06742 0.0
C255 C 0.46452 0.03424 0.73961 0.0
C256 C 0.44593 0.92166 0.57578 0.0
C257 C 0.41459 0.94033 0.54578 0.0
C258 C 0.38043 0.9264 0.57038 0.0
C259 C 0.3774 0.89329 0.62623 0.0
C260 C 0.4429 0.88866 0.63327 0.0
C261 C 0.40873 0.87466 0.65881 0.0
C262 C 0.51329 0.08255 0.55788 0.0
C263 C 0.48155 0.93677 0.54795 0.0
H264 H 0.65368 0.02354 0.97916 0.0
H265 H 0.72722 0.06034 0.70816 0.0
H266 H 0.63324 0.12216 0.79895 0.0
H267 H 0.68935 0.11414 0.68352 0.0
H268 H 0.41654 0.96548 0.49929 0.0
H269 H 0.35107 0.88186 0.6432 0.0
H270 H 0.46688 0.87373 0.65795 0.0
H271 H 0.40654 0.84914 0.70248 0.0
Eu272 Eu 0.56445 0.5141 0.62288 0.0
C273 C 0.40801 0.52109 0.80013 0.0
C274 C 0.37983 0.55344 0.63757 0.0
C275 C 0.34375 0.51322 0.75583 0.0
C276 C 0.41076 0.54495 0.7072 0.0
C277 C 0.37429 0.50526 0.82613 0.0
C278 C 0.34652 0.53729 0.66187 0.0
C279 C 0.40267 0.47605 0.99344 0.0
N280 N 0.438 0.51368 0.86638 0.0
C281 C 0.43511 0.493 0.96632 0.0
C282 C 0.37211 0.48201 0.92266 0.0
Eu283 Eu 0.49245 0.54425 0.81646 0.0
N284 N 0.44359 0.55945 0.68339 0.0
C285 C 0.44682 0.58285 0.59076 0.0
C286 C 0.38319 0.57786 0.54498 0.0
C287 C 0.41685 0.59262 0.52159 0.0
H288 H 0.45805 0.48936 0.02564 0.0
H289 H 0.42 0.61082 0.44795 0.0
H290 H 0.32271 0.5433 0.60855 0.0
H291 H 0.40128 0.45872 0.06989 0.0
H292 H 0.47265 0.59256 0.56305 0.0
H293 H 0.67056 0.46566 0.92609 0.0
H294 H 0.36011 0.58516 0.49012 0.0
H295 H 0.57439 0.55995 0.36831 0.0
H296 H 0.60918 0.46915 0.84112 0.0
H297 H 0.62089 0.59655 0.27079 0.0
H298 H 0.31779 0.50113 0.77408 0.0
H299 H 0.71879 0.50492 0.85142 0.0
H300 H 0.73839 0.55107 0.70577 0.0
H301 H 0.34683 0.46915 0.94478 0.0
H302 H 0.72463 0.58749 0.5297 0.0
N303 N 0.6218 0.51074 0.71986 0.0
C304 C 0.62978 0.48655 0.80707 0.0
C305 C 0.6918 0.50661 0.81326 0.0
C306 C 0.68402 0.53004 0.71998 0.0
C307 C 0.66469 0.48434 0.85548 0.0
C308 C 0.64842 0.53115 0.67292 0.0
H309 H 0.68103 0.60461 0.36689 0.0
N310 N 0.60717 0.54946 0.52187 0.0
C311 C 0.62672 0.58444 0.35615 0.0
C312 C 0.64081 0.5513 0.57205 0.0
C313 C 0.60051 0.56364 0.41127 0.0
C314 C 0.66061 0.58884 0.41073 0.0
C315 C 0.66841 0.5713 0.51794 0.0
O316 O 0.56311 0.48546 0.44786 0.0
O317 O 0.50367 0.51164 0.64652 0.0
O318 O 0.49673 0.48392 0.84796 0.0
O319 O 0.54978 0.46715 0.74996 0.0
O320 O 0.5219 0.52349 0.47597 0.0
O321 O 0.59751 0.46664 0.59133 0.0
O322 O 0.47813 0.5564 1.00347 0.0
O323 O 0.55329 0.54346 0.79709 0.0
O324 O 0.56565 0.57633 0.61421 0.0
O325 O 0.51405 0.59444 0.71852 0.0
O326 O 0.5344 0.53233 0.96517 0.0
O327 O 0.47641 0.59845 0.87259 0.0
C328 C 0.49329 0.51701 0.53798 0.0
C329 C 0.57328 0.42316 0.4624 0.0
C330 C 0.52889 0.37574 0.48183 0.0
C331 C 0.53881 0.41186 0.49745 0.0
C332 C 0.55417 0.35112 0.43229 0.0
C333 C 0.59806 0.39842 0.41355 0.0
C334 C 0.58851 0.36245 0.39889 0.0
C335 C 0.52211 0.45984 0.82197 0.0
C336 C 0.58473 0.46014 0.48383 0.0
C337 C 0.70323 0.57199 0.56939 0.0
C338 C 0.71106 0.55128 0.66977 0.0
C339 C 0.5636 0.53663 0.90423 0.0
C340 C 0.50149 0.61177 0.06458 0.0
C341 C 0.52983 0.63139 0.01426 0.0
C342 C 0.55668 0.64669 0.08833 0.0
C343 C 0.55538 0.64149 0.21374 0.0
C344 C 0.49969 0.60834 0.18995 0.0
C345 C 0.52684 0.62273 0.26406 0.0
C346 C 0.5423 0.60184 0.64925 0.0
C347 C 0.47683 0.59079 0.98684 0.0
H348 H 0.51964 0.43118 0.53463 0.0
H349 H 0.54695 0.32331 0.4144 0.0
H350 H 0.62485 0.40692 0.38747 0.0
H351 H 0.60756 0.34339 0.35998 0.0
H352 H 0.53113 0.63506 0.91775 0.0
H353 H 0.57549 0.65321 0.2738 0.0
H354 H 0.47774 0.59378 0.22986 0.0
H355 H 0.52564 0.61948 0.36063 0.0
Eu356 Eu 0.04227 0.56575 0.64164 0.0
C357 C 0.04074 0.41917 0.79879 0.0
C358 C 1.0028 0.3895 0.64738 0.0
C359 C 0.05147 0.35637 0.74049 0.0
C360 C 1.01249 0.4206 0.71656 0.0
C361 C 0.05961 0.38647 0.81448 0.0
C362 C 0.02315 0.35791 0.65693 0.0
C363 C 0.08824 0.41285 0.99096 0.0
N364 N 0.04684 0.44814 0.87337 0.0
C365 C 0.06836 0.4442 0.9739 0.0
C366 C 0.0845 0.38411 0.90925 0.0
Eu367 Eu 1.01109 0.50103 0.83835 0.0
N368 N 0.99273 0.45134 0.71037 0.0
C369 C 0.96106 0.45114 0.64536 0.0
C370 C 0.97213 0.39055 0.57347 0.0
C371 C 0.95075 0.42126 0.57458 0.0
H372 H 0.06999 0.46508 0.04344 0.0
H373 H 0.92604 0.42188 0.52166 0.0
H374 H 1.01639 0.33412 0.60309 0.0
H375 H 0.10573 0.41057 0.0691 0.0
H376 H 0.94273 0.47334 0.64816 0.0
H377 H 0.15956 0.64125 0.81848 0.0
H378 H 0.96405 0.36745 0.51847 0.0
H379 H 0.96656 0.60962 0.52922 0.0
H380 H 0.1282 0.59177 0.71439 0.0
H381 H 0.93166 0.66339 0.5718 0.0
H382 H 0.06598 0.33133 0.75055 0.0
H383 H 0.12508 0.69203 0.90632 0.0
H384 H 0.06658 0.72437 0.92371 0.0
H385 H 0.09931 0.35949 0.92431 0.0
H386 H 1.00395 0.73096 0.85315 0.0
N387 N 0.07501 0.61204 0.74927 0.0
C388 C 0.11205 0.61271 0.75585 0.0
C389 C 0.11082 0.67 0.86153 0.0
C390 C 0.07353 0.67139 0.84251 0.0
C391 C 0.13034 0.64137 0.81238 0.0
C392 C 0.05628 0.64226 0.78099 0.0
H393 H 0.9542 0.7091 0.7185 0.0
N394 N 1.00646 0.61949 0.66788 0.0
C395 C 0.9562 0.65848 0.62258 0.0
C396 C 1.02107 0.64606 0.73949 0.0
C397 C 0.97574 0.62681 0.60246 0.0
C398 C 0.96914 0.68429 0.70455 0.0
C399 C 1.00244 0.67889 0.76111 0.0
O400 O 0.04476 0.60123 0.48776 0.0
O401 O 0.04094 0.50435 0.65832 0.0
O402 O 0.06965 0.51089 0.90323 0.0
O403 O 0.09261 0.54257 0.74551 0.0
O404 O 0.02564 0.52547 0.49394 0.0
O405 O 0.08924 0.5655 0.52386 0.0
O406 O 0.9987 0.47605 1.00958 0.0
O407 O 1.01295 0.56204 0.82004 0.0
O408 O 0.98423 0.55363 0.5757 0.0
O409 O 0.96097 0.52654 0.74276 0.0
O410 O 0.0275 0.54251 0.98562 0.0
O411 O 0.95525 0.49564 0.89919 0.0
C412 C 0.03131 0.49579 0.54854 0.0
C413 C 0.10411 0.6245 0.47176 0.0
C414 C 0.16629 0.64389 0.50726 0.0
C415 C 0.14114 0.61711 0.47535 0.0
C416 C 0.15456 0.67935 0.52559 0.0
C417 C 0.09242 0.66018 0.49137 0.0
C418 C 0.11763 0.68743 0.51704 0.0
C419 C 0.09751 0.52495 0.84764 0.0
C420 C 0.07861 0.59393 0.46714 0.0
C421 C 1.01828 0.70611 0.83348 0.0
C422 C 0.05382 0.70234 0.8741 0.0
C423 C 0.02324 0.57186 0.92752 0.0
C424 C 0.94531 0.44094 0.99478 0.0
C425 C 0.90786 0.44071 1.00952 0.0
C426 C 0.88883 0.4082 0.01564 0.0
C427 C 0.90749 0.37557 1.00424 0.0
C428 C 0.96379 0.40801 0.9834 0.0
C429 C 0.94487 0.37556 0.98648 0.0
C430 C 0.9561 0.54171 0.63619 0.0
C431 C 0.96407 0.47581 0.98948 0.0
H432 H 0.15044 0.58982 0.45789 0.0
H433 H 0.17379 0.70053 0.54658 0.0
H434 H 0.0639 0.66688 0.49045 0.0
H435 H 0.10842 0.71474 0.53261 0.0
H436 H 0.89362 0.46606 0.02139 0.0
H437 H 0.89331 0.35032 1.01155 0.0
H438 H 0.99281 0.40717 0.97467 0.0
H439 H 0.95939 0.35036 0.97826 0.0
C440 C 0.16457 0.0271 0.3284 0.0
C441 C 0.17622 0.05747 0.26241 0.0
C442 C 0.13458 0.02544 0.41252 0.0
C443 C 0.10808 0.05269 0.43943 0.0
H444 H 0.17963 1.0024 0.31415 0.0
H445 H 0.13159 1.0002 0.45749 0.0
S446 S 0.11613 0.16617 0.28844 0.0
N447 N 0.16082 0.12967 0.23339 0.0
N448 N 0.08988 0.12311 0.38363 0.0
C449 C 0.11338 0.08393 0.37526 0.0
C450 C 0.155 0.08778 0.28417 0.0
C451 C 0.49389 0.17851 0.44476 0.0
C452 C 0.51428 0.18111 0.33766 0.0
C453 C 0.49203 0.14628 0.51064 0.0
C454 C 0.51 0.11429 0.47294 0.0
H455 H 0.48084 0.20224 0.48218 0.0
H456 H 0.4774 0.14692 0.59507 0.0
S457 S 0.56545 0.1057 0.19596 0.0
N458 N 0.55124 0.14766 0.19452 0.0
N459 N 0.54797 0.08795 0.31708 0.0
C460 C 0.52874 0.11606 0.36255 0.0
C461 C 0.53072 0.14896 0.29559 0.0
C462 C 0.41351 0.51568 0.30524 0.0
C463 C 0.38808 0.49142 0.35132 0.0
C464 C 0.447 0.52324 0.36565 0.0
C465 C 0.45699 0.50761 0.47656 0.0
H466 H 0.40778 0.52869 0.22108 0.0
H467 H 0.46534 0.54187 0.32532 0.0
S468 S 0.40407 0.43669 0.6233 0.0
N469 N 0.37845 0.44794 0.50757 0.0
N470 N 0.44032 0.46242 0.61858 0.0
C471 C 0.43278 0.48192 0.5198 0.0
C472 C 0.39887 0.47395 0.45828 0.0
C473 C 1.00587 0.42444 0.29989 0.0
C474 C 0.03128 0.39594 0.30575 0.0
C475 C 1.00667 0.45524 0.37856 0.0
C476 C 0.03222 0.45997 0.47339 0.0
H477 H 0.98395 0.42256 0.23491 0.0
H478 H 0.98598 0.47548 0.36644 0.0
S479 S 0.10781 0.39595 0.52598 0.0
N480 N 0.08474 0.37624 0.41429 0.0
N481 N 0.08667 0.43409 0.55929 0.0
C482 C 0.0589 0.43249 0.47879 0.0
C483 C 0.05807 0.40065 0.39751 0.0
C484 C 0.89036 1.00245 0.09514 0.0
C485 C 0.88866 0.02852 0.19082 0.0
C486 C 0.92061 0.99944 0.01509 0.0
C487 C 0.9515 0.02196 0.02572 0.0
H488 H 0.86704 0.98567 0.07648 0.0
H489 H 0.91899 0.98019 0.94042 0.0
S490 S 0.96076 0.09626 0.25285 0.0
N491 N 0.92155 0.07805 0.28636 0.0
N492 N 0.97682 0.07232 0.13819 0.0
C493 C 0.95046 0.04743 0.12208 0.0
C494 C 0.91979 0.05064 0.20334 0.0
C495 C 0.55785 0.89361 0.10333 0.0
C496 C 0.52682 0.88566 0.17174 0.0
C497 C 0.55917 0.92358 0.0258 0.0
C498 C 0.52916 0.94676 1.00852 0.0
H499 H 0.58098 0.8758 0.10634 0.0
H500 H 0.58382 0.92795 0.97654 0.0
S501 S 0.44255 0.94063 0.17547 0.0
N502 N 0.46648 0.9065 0.22452 0.0
N503 N 0.46833 0.96048 0.0763 0.0
C504 C 0.4986 0.9399 0.08009 0.0
C505 C 0.4976 0.91012 0.16139 0.0
C506 C 0.65871 0.57655 0.9832 0.0
C507 C 0.67161 0.55625 0.08148 0.0
C508 C 0.62419 0.57082 0.92784 0.0
C509 C 0.60039 0.54385 0.96579 0.0
H510 H 0.67601 0.59691 0.94648 0.0
H511 H 0.61639 0.58734 0.85307 0.0
S512 S 0.6206 0.48142 0.21372 0.0
N513 N 0.65714 0.50674 0.20973 0.0
N514 N 0.59276 0.49654 0.10957 0.0
C515 C 0.61256 0.52373 0.06522 0.0
C516 C 0.64796 0.52934 0.1206 0.0
C517 C 0.03814 0.64985 0.16868 0.0
C518 C 1.00653 0.67137 0.16539 0.0
C519 C 0.04349 0.61922 0.08942 0.0
C520 C 1.01816 0.60805 0.99871 0.0
H521 H 0.05829 0.65553 0.23785 0.0
H522 H 0.06741 0.60317 0.10299 0.0
S523 S 0.92845 0.65141 0.95903 0.0
N524 N 0.94793 0.6765 0.06604 0.0
N525 N 0.95814 0.61998 0.92098 0.0
C526 C 0.98621 0.62892 0.99541 0.0
C527 C 0.98057 0.66005 0.0764 0.0
C528 C 0.04887 0.22136 0.52116 0.0
C529 C 0.03258 0.24572 0.44398 0.0
C530 C 0.02972 0.2088 0.61979 0.0
C531 C 0.99319 0.21867 0.63758 0.0
H532 H 0.07508 0.20989 0.49976 0.0
H533 H 0.04105 0.18644 0.66737 0.0
S534 S 0.94275 0.28912 0.47931 0.0
N535 N 0.98166 0.2856 0.40776 0.0
N536 N 0.94534 0.26069 0.59061 0.0
C537 C 0.97936 0.24761 0.57426 0.0
C538 C 0.9989 0.26084 0.47534 0.0
C539 C 0.33117 1.00515 0.46038 0.0
C540 C 0.32013 0.99155 0.3469 0.0
C541 C 0.34552 0.9821 0.54594 0.0
C542 C 0.34936 0.94514 0.51875 0.0
H543 H 0.33142 0.03384 0.47917 0.0
H544 H 0.35766 0.9937 0.62731 0.0
S545 S 0.31689 0.89645 0.24359 0.0
N546 N 0.30782 0.93906 0.21914 0.0
N547 N 0.3353 0.89556 0.37971 0.0
C548 C 0.334 0.93099 0.41183 0.0
C549 C 0.31955 0.95441 0.32492 0.0
C550 C 0.43392 0.36285 0.38581 0.0
C551 C 0.43733 0.32509 0.37642 0.0
C552 C 0.46301 0.3825 0.43663 0.0
C553 C 0.49092 0.36421 0.49696 0.0
H554 H 0.41558 0.37663 0.32608 0.0
H555 H 0.46592 0.41042 0.41416 0.0
S556 S 0.48235 0.27266 0.6134 0.0
N557 N 0.44912 0.27606 0.51368 0.0
N558 N 0.50383 0.3115 0.61451 0.0
C559 C 0.48327 0.3294 0.53394 0.0
C560 C 0.45411 0.31029 0.47847 0.0
C561 C 0.24966 0.61829 0.35674 0.0
C562 C 0.25427 0.58429 0.40662 0.0
C563 C 0.22507 0.64287 0.40732 0.0
C564 C 0.20477 0.63364 0.50826 0.0
H565 H 0.26074 0.62367 0.26874 0.0
H566 H 0.21768 0.66612 0.3559 0.0
S567 S 0.2177 0.55376 0.69549 0.0
N568 N 0.24449 0.54672 0.57836 0.0
N569 N 0.19924 0.59365 0.67681 0.0
C570 C 0.2153 0.60328 0.57275 0.0
C571 C 0.23975 0.578 0.52008 0.0
C572 C 0.03273 0.80554 0.96916 0.0
C573 C 1.00436 0.82319 0.0319 0.0
C574 C 0.05181 0.82278 0.87973 0.0
C575 C 0.0434 0.85829 0.85334 0.0
H576 H 0.04391 0.78062 1.00066 0.0
H577 H 0.07663 0.81053 0.84705 0.0
S578 S 0.9631 0.91013 0.95714 0.0
N579 N 0.96172 0.87273 0.03339 0.0
N580 N 0.9988 0.90632 0.869 0.0
C581 C 1.01061 0.87299 0.89655 0.0
C582 C 0.9909 0.8552 0.98647 0.0
C583 C 0.76891 1.00044 1.0045 0.0
C584 C 0.74984 0.97531 0.07302 0.0
C585 C 0.7526 1.01635 0.90585 0.0
C586 C 0.71702 1.00731 0.87378 0.0
H587 H 0.79386 1.01237 0.03742 0.0
H588 H 0.76544 0.03986 0.87009 0.0
S589 S 0.66702 0.92747 0.97372 0.0
N590 N 0.70167 0.93116 0.06826 0.0
N591 N 0.67136 0.96033 0.87781 0.0
C592 C 0.70275 0.9753 0.91849 0.0
C593 C 0.71894 0.95961 0.02112 0.0
C594 C 0.58148 0.73854 0.01844 0.0
C595 C 0.61043 0.74078 0.10158 0.0
C596 C 0.56578 0.70496 0.99289 0.0
C597 C 0.58144 0.67387 0.04041 0.0
H598 H 0.56533 0.76213 1.00054 0.0
H599 H 0.5387 0.70426 0.95488 0.0
S600 S 0.6732 0.66729 0.17211 0.0
N601 N 0.66567 0.71087 0.16229 0.0
N602 N 0.63699 0.64718 0.11442 0.0
C603 C 0.6174 0.6761 0.08099 0.0
C604 C 0.63299 0.71045 0.10564 0.0
C605 C 0.80083 0.44946 0.06288 0.0
C606 C 0.80033 0.44664 0.18961 0.0
C607 C 0.82698 0.43191 0.9956 0.0
C608 C 0.85095 0.4099 0.05467 0.0
H609 H 0.78551 0.47033 0.0192 0.0
H610 H 0.83154 0.43933 0.90308 0.0
S611 S 0.84717 0.36648 0.38245 0.0
N612 N 0.84208 0.38978 0.25087 0.0
N613 N 0.85762 0.37448 0.23885 0.0
C614 C 0.84206 0.40027 0.18347 0.0
C615 C 0.81802 0.41961 0.25711 0.0
C616 C 0.06242 0.1881 0.94104 0.0
C617 C 0.03539 0.20483 0.0148 0.0
C618 C 0.05727 0.15375 0.87866 0.0
C619 C 0.02533 0.13279 0.8895 0.0
H620 H 0.0883 0.20132 0.93317 0.0
H621 H 0.07859 0.14379 0.82051 0.0
S622 S 0.94403 0.16589 0.05785 0.0
N623 N 0.97388 0.19811 0.08271 0.0
N624 N 0.9646 0.13528 0.97225 0.0
C625 C 0.99774 0.15029 0.95872 0.0
C626 C 1.00271 0.1852 0.01958 0.0
C627 C 0.37845 0.07072 0.91495 0.0
C628 C 0.361 0.0394 0.95603 0.0
C629 C 0.41131 0.06923 0.84548 0.0
C630 C 0.42958 0.03647 0.81621 0.0
H631 H 0.36742 0.09677 0.94016 0.0
H632 H 0.42302 0.0942 0.81704 0.0
S633 S 0.39404 0.94646 0.88772 0.0
N634 N 0.36387 0.97422 0.94765 0.0
N635 N 0.425 0.97194 0.82636 0.0
C636 C 0.41168 1.0052 0.8526 0.0
C637 C 0.37803 1.00656 0.91987 0.0
C638 C 0.51182 0.35808 0.89614 0.0
C639 C 0.50833 0.35853 0.02347 0.0
C640 C 0.51808 0.39016 0.83066 0.0
C641 C 0.52058 0.42448 0.88882 0.0
H642 H 0.50791 0.33302 0.84636 0.0
H643 H 0.51919 0.38823 0.73347 0.0
S644 S 0.51664 0.44104 0.21957 0.0
N645 N 0.51164 0.39716 0.20372 0.0
N646 N 0.52115 0.45599 0.08204 0.0
C647 C 0.51856 0.42495 0.01545 0.0
C648 C 0.51315 0.39261 0.08187 0.0
C649 C 0.19234 0.49405 0.97762 0.0
C650 C 0.20481 0.52431 0.04702 0.0
C651 C 0.15859 0.49429 0.91117 0.0
C652 C 0.13498 0.52459 0.91102 0.0
H653 H 0.20807 0.46954 0.97771 0.0
H654 H 0.15055 0.47013 0.86163 0.0
S655 S 0.15303 0.61024 0.07944 0.0
N656 N 0.19009 0.5866 0.10031 0.0
N657 N 0.12628 0.58421 0.9959 0.0
C658 C 0.14706 0.55445 0.98032 0.0
C659 C 0.18179 0.55508 0.04179 0.0
C660 C 0.99404 0.87899 0.53943 0.0
C661 C 1.01973 0.86269 0.45924 0.0
C662 C 0.99943 0.91379 0.59826 0.0
C663 C 0.03063 0.93529 0.5798 0.0
H664 H 0.96875 0.86525 0.55417 0.0
H665 H 0.9785 0.92407 0.65742 0.0
S666 S 0.10509 0.90751 0.37153 0.0
N667 N 0.07698 0.87319 0.36205 0.0
N668 N 0.08685 0.93658 0.46841 0.0
C669 C 0.05606 0.91926 0.49879 0.0
C670 C 0.0507 0.88409 0.44002 0.0
C671 C 0.6862 0.99758 0.55696 0.0
C672 C 0.70081 0.01922 0.46557 0.0
C673 C 0.6513 1.0042 0.60997 0.0
C674 C 0.62771 0.03181 0.57194 0.0
H675 H 0.70168 0.97478 0.58704 0.0
H676 H 0.64262 0.98734 0.68175 0.0
S677 S 0.65263 0.0975 0.33956 0.0
N678 N 0.68815 0.07061 0.34334 0.0
N679 N 0.62391 0.08253 0.44002 0.0
C680 C 0.64246 0.05406 0.48276 0.0
C681 C 0.67805 0.04767 0.42993 0.0
C682 C 0.58933 0.68649 0.52571 0.0
C683 C 0.56105 0.71096 0.49675 0.0
C684 C 0.58307 0.65237 0.57585 0.0
C685 C 0.54821 0.64054 0.60706 0.0
H686 H 0.61702 0.693 0.50394 0.0
H687 H 0.60608 0.63484 0.58902 0.0
S688 S 0.46465 0.6957 0.57298 0.0
N689 N 0.4965 0.72102 0.51548 0.0
N690 N 0.48517 0.65916 0.61986 0.0
C691 C 0.51995 0.66598 0.59007 0.0
C692 C 0.52621 0.70037 0.53367 0.0
C693 C 0.87849 0.55386 0.39792 0.0
C694 C 0.84622 0.54369 0.45622 0.0
C695 C 0.91295 0.55429 0.45708 0.0
C696 C 0.91785 0.54405 0.57867 0.0
H697 H 0.87748 0.55956 0.30265 0.0
H698 H 0.93632 0.5613 0.40436 0.0
S699 S 0.84242 0.515 0.77466 0.0
N700 N 0.82214 0.52308 0.6449 0.0
N701 N 0.88567 0.52421 0.75544 0.0
C702 C 0.8856 0.53467 0.63906 0.0
C703 C 0.85048 0.53433 0.57852 0.0
loop_
_geom_bond_atom_site_label_1
_geom_bond_atom_site_label_2
_geom_bond_distance
_geom_bond_site_symmetry_2
_ccdc_geom_bond_type
H0 C7 0.929 . S
H1 C10 0.930 . S
H2 C12 0.929 . S
H3 C4 0.969 . S
C4 H3 0.969 . S
C4 O5 1.550 . S
C4 H6 0.973 . S
O5 C4 1.550 . S
O5 C11 1.412 . S
H6 C4 0.973 . S
C7 H0 0.929 . S
C7 C8 1.400 . S
C7 C9 1.364 . S
C8 C7 1.400 . S
C8 C12 1.377 . S
C9 C7 1.364 . S
C9 C10 1.374 . S
C10 H1 0.930 . S
C10 C9 1.374 . S
C10 C11 1.383 . S
C11 O5 1.412 . S
C11 C10 1.383 . S
C11 C12 1.394 . S
C12 H2 0.929 . S
C12 C8 1.377 . S
C12 C11 1.394 . S
H13 C20 0.929 . S
H14 C23 0.930 . S
H15 C25 0.929 . S
H16 C17 0.969 . S
C17 H16 0.969 . S
C17 O18 1.550 . S
C17 H19 0.973 . S
O18 C17 1.550 . S
O18 C24 1.412 . S
H19 C17 0.973 . S
C20 H13 0.929 . S
C20 C21 1.400 . S
C20 C22 1.364 . S
C21 C20 1.400 . S
C21 C25 1.377 . S
C22 C20 1.364 . S
C22 C23 1.374 . S
C23 H14 0.930 . S
C23 C22 1.374 . S
C23 C24 1.383 . S
C24 O18 1.412 . S
C24 C23 1.383 . S
C24 C25 1.394 . S
C25 H15 0.929 . S
C25 C21 1.377 . S
C25 C24 1.394 . S
H26 C33 0.929 . S
H27 C36 0.930 . S
H28 C38 0.929 . S
H29 C30 0.969 1_545 S
C30 H29 0.969 1_565 S
C30 O31 1.550 . S
C30 H32 0.973 . S
O31 C30 1.550 . S
O31 C37 1.412 . S
H32 C30 0.973 . S
C33 H26 0.929 . S
C33 C34 1.400 . S
C33 C35 1.364 . S
C34 C33 1.400 . S
C34 C38 1.377 . S
C35 C33 1.364 . S
C35 C36 1.374 . S
C36 H27 0.930 . S
C36 C35 1.374 . S
C36 C37 1.383 . S
C37 O31 1.412 . S
C37 C36 1.383 . S
C37 C38 1.394 . S
C38 H28 0.929 . S
C38 C34 1.377 . S
C38 C37 1.394 . S
H39 C46 0.929 . S
H40 C49 0.930 . S
H41 C51 0.929 . S
H42 C43 0.969 . S
C43 H42 0.969 . S
C43 O44 1.550 . S
C43 H45 0.973 . S
O44 C43 1.550 . S
O44 C50 1.412 . S
H45 C43 0.973 . S
C46 H39 0.929 . S
C46 C47 1.400 . S
C46 C48 1.364 . S
C47 C46 1.400 . S
C47 C51 1.377 . S
C48 C46 1.364 . S
C48 C49 1.374 . S
C49 H40 0.930 . S
C49 C48 1.374 . S
C49 C50 1.383 . S
C50 O44 1.412 . S
C50 C49 1.383 . S
C50 C51 1.394 . S
C51 H41 0.929 . S
C51 C47 1.377 . S
C51 C50 1.394 . S
H52 C59 0.929 . S
H53 C62 0.930 . S
H54 C64 0.929 . S
H55 C56 0.969 . S
C56 H55 0.969 . S
C56 O57 1.550 . S
C56 H58 0.973 . S
O57 C56 1.550 . S
O57 C63 1.412 . S
H58 C56 0.973 . S
C59 H52 0.929 . S
C59 C60 1.400 . S
C59 C61 1.364 1_556 S
C60 C59 1.400 . S
C60 C64 1.377 . S
C61 C59 1.364 1_554 S
C61 C62 1.374 . S
C62 H53 0.930 . S
C62 C61 1.374 . S
C62 C63 1.383 . S
C63 O57 1.412 . S
C63 C62 1.383 . S
C63 C64 1.394 1_554 S
C64 H54 0.929 . S
C64 C60 1.377 . S
C64 C63 1.394 1_556 S
H65 C72 0.929 . S
H66 C75 0.930 . S
H67 C77 0.929 . S
H68 C69 0.969 . S
C69 H68 0.969 . S
C69 O70 1.550 . S
C69 H71 0.973 . S
O70 C69 1.550 . S
O70 C76 1.412 . S
H71 C69 0.973 . S
C72 H65 0.929 . S
C72 C73 1.400 . S
C72 C74 1.364 1_556 S
C73 C72 1.400 . S
C73 C77 1.377 . S
C74 C72 1.364 1_554 S
C74 C75 1.374 . S
C75 H66 0.930 . S
C75 C74 1.374 . S
C75 C76 1.383 . S
C76 O70 1.412 . S
C76 C75 1.383 . S
C76 C77 1.394 1_554 S
C77 H67 0.929 . S
C77 C73 1.377 . S
C77 C76 1.394 1_556 S
H78 C85 0.929 . S
H79 C88 0.930 . S
H80 C90 0.929 . S
H81 C82 0.969 . S
C82 H81 0.969 . S
C82 O83 1.550 . S
C82 H84 0.973 . S
O83 C82 1.550 . S
O83 C89 1.412 . S
H84 C82 0.973 . S
C85 H78 0.929 . S
C85 C86 1.400 . S
C85 C87 1.364 1_556 S
C86 C85 1.400 . S
C86 C90 1.377 . S
C87 C85 1.364 1_554 S
C87 C88 1.374 . S
C88 H79 0.930 . S
C88 C87 1.374 . S
C88 C89 1.383 . S
C89 O83 1.412 . S
C89 C88 1.383 . S
C89 C90 1.394 1_554 S
C90 H80 0.929 . S
C90 C86 1.377 . S
C90 C89 1.394 1_556 S
H91 C98 0.929 . S
H92 C101 0.930 . S
H93 C103 0.929 . S
H94 C95 0.969 . S
C95 H94 0.969 . S
C95 O96 1.550 . S
C95 H97 0.973 . S
O96 C95 1.550 . S
O96 C102 1.412 . S
H97 C95 0.973 . S
C98 H91 0.929 . S
C98 C99 1.400 . S
C98 C100 1.364 1_556 S
C99 C98 1.400 . S
C99 C103 1.377 . S
C100 C98 1.364 1_554 S
C100 C101 1.374 . S
C101 H92 0.930 . S
C101 C100 1.374 . S
C101 C102 1.383 . S
C102 O96 1.412 . S
C102 C101 1.383 . S
C102 C103 1.394 1_554 S
C103 H93 0.929 . S
C103 C99 1.377 . S
C103 C102 1.394 1_556 S
Eu104 N135 2.657 1_566 S
Eu104 N142 2.609 1_565 S
Eu104 O148 2.558 . S
Eu104 O149 2.612 1_455 S
Eu104 O151 2.339 1_455 S
Eu104 O152 2.563 . S
Eu104 O153 2.419 1_556 S
Eu104 O155 2.380 1_565 S
Eu104 O156 2.432 . S
Eu104 C168 2.848 . S
C105 C108 1.429 . S
C105 C109 1.411 . S
C105 N112 1.377 1_565 S
C106 C108 1.420 . S
C106 C110 1.423 . S
C106 C118 1.392 . S
C107 C109 1.420 . S
C107 C110 1.351 . S
C107 H130 0.931 . S
C108 C105 1.429 . S
C108 C106 1.420 . S
C108 N116 1.362 . S
C109 C105 1.411 . S
C109 C107 1.420 . S
C109 C114 1.395 1_565 S
C110 C106 1.423 . S
C110 C107 1.351 . S
C110 H122 0.930 . S
C111 C113 1.400 . S
C111 C114 1.386 . S
C111 H123 0.930 . S
N112 C105 1.377 1_545 S
N112 C113 1.321 . S
N112 Eu115 2.609 . S
C113 C111 1.400 . S
C113 N112 1.321 . S
C113 H120 0.930 . S
C114 C109 1.395 1_545 S
C114 C111 1.386 . S
C114 H133 0.930 . S
Eu115 N112 2.609 . S
Eu115 N116 2.657 1_545 S
Eu115 O149 2.380 1_545 S
Eu115 O150 2.432 . S
Eu115 O154 2.558 . S
Eu115 O155 2.612 1_655 S
Eu115 O157 2.339 1_655 S
Eu115 O158 2.563 1_655 S
Eu115 O159 2.419 . S
Eu115 C179 2.848 . S
N116 C108 1.362 . S
N116 Eu115 2.657 1_565 S
N116 C117 1.334 1_655 S
C117 N116 1.334 1_455 S
C117 C119 1.413 . S
C117 H124 0.929 . S
C118 C106 1.392 . S
C118 C119 1.367 1_655 S
C118 H126 0.930 . S
C119 C117 1.413 . S
C119 C118 1.367 1_455 S
C119 H121 0.930 . S
H120 C113 0.930 . S
H121 C119 0.930 . S
H122 C110 0.930 . S
H123 C111 0.930 . S
H124 C117 0.929 . S
H125 C139 0.930 1_655 S
H126 C118 0.930 . S
H127 C145 0.930 . S
H128 C136 0.929 1_655 S
H129 C143 0.930 . S
H130 C107 0.931 . S
H131 C137 0.930 . S
H132 C170 0.930 . S
H133 C114 0.930 . S
H134 C169 0.931 . S
N135 Eu104 2.657 1_544 S
N135 C136 1.334 . S
N135 C140 1.362 . S
C136 H128 0.929 1_455 S
C136 N135 1.334 . S
C136 C139 1.413 . S
C137 H131 0.930 . S
C137 C138 1.392 . S
C137 C139 1.367 . S
C138 C137 1.392 . S
C138 C140 1.420 . S
C138 C170 1.423 . S
C139 H125 0.930 1_455 S
C139 C136 1.413 . S
C139 C137 1.367 . S
C140 N135 1.362 . S
C140 C138 1.420 . S
C140 C144 1.429 . S
H141 C146 0.930 . S
N142 Eu104 2.609 1_545 S
N142 C144 1.377 1_556 S
N142 C145 1.321 1_545 S
C143 H129 0.930 . S
C143 C145 1.400 . S
C143 C146 1.386 1_566 S
C144 C140 1.429 . S
C144 N142 1.377 1_554 S
C144 C147 1.411 . S
C145 H127 0.930 . S
C145 N142 1.321 1_565 S
C145 C143 1.400 . S
C146 H141 0.930 . S
C146 C143 1.386 1_544 S
C146 C147 1.395 . S
C147 C144 1.411 . S
C147 C146 1.395 . S
C147 C169 1.420 . S
O148 Eu104 2.558 . S
O148 C168 1.257 . S
O149 Eu104 2.612 1_655 S
O149 Eu115 2.380 1_565 S
O149 C160 1.276 . S
O150 Eu115 2.432 . S
O150 C167 1.264 . S
O151 Eu104 2.339 1_655 S
O151 C167 1.254 1_565 S
O152 Eu104 2.563 . S
O152 C160 1.235 1_455 S
O153 Eu104 2.419 1_554 S
O153 C168 1.249 1_554 S
O154 Eu115 2.558 . S
O154 C179 1.257 . S
O155 Eu104 2.380 1_545 S
O155 Eu115 2.612 1_455 S
O155 C171 1.276 . S
O156 Eu104 2.432 . S
O156 C178 1.264 1_565 S
O157 Eu115 2.339 1_455 S
O157 C178 1.254 . S
O158 Eu115 2.563 1_455 S
O158 C171 1.235 . S
O159 Eu115 2.419 . S
O159 C179 1.249 . S
C160 O149 1.276 . S
C160 O152 1.235 1_655 S
C161 C163 1.393 . S
C161 C165 1.395 . S
C161 C168 1.492 1_554 S
C162 C163 1.392 . S
C162 C164 1.386 . S
C163 C161 1.393 . S
C163 C162 1.392 . S
C163 H180 0.930 . S
C164 C162 1.386 . S
C164 C166 1.395 . S
C164 H181 0.930 . S
C165 C161 1.395 . S
C165 C166 1.379 . S
C165 H182 0.930 . S
C166 C164 1.395 . S
C166 C165 1.379 . S
C166 H183 0.930 . S
C167 O150 1.264 . S
C167 O151 1.254 1_545 S
C168 Eu104 2.848 . S
C168 O148 1.257 . S
C168 O153 1.249 1_556 S
C168 C161 1.492 1_556 S
C169 H134 0.931 . S
C169 C147 1.420 . S
C169 C170 1.351 . S
C170 H132 0.930 . S
C170 C138 1.423 . S
C170 C169 1.351 . S
C171 O155 1.276 . S
C171 O158 1.235 . S
C172 C173 1.393 . S
C172 C176 1.395 . S
C172 C179 1.492 . S
C173 C172 1.393 . S
C173 C174 1.392 . S
C173 H184 0.930 1_655 S
C174 C173 1.392 . S
C174 C175 1.386 . S
C175 C174 1.386 . S
C175 C177 1.395 . S
C175 H185 0.930 . S
C176 C172 1.395 . S
C176 C177 1.379 . S
C176 H186 0.930 . S
C177 C175 1.395 . S
C177 C176 1.379 . S
C177 H187 0.930 . S
C178 O156 1.264 1_545 S
C178 O157 1.254 . S
C179 Eu115 2.848 . S
C179 O154 1.257 . S
C179 O159 1.249 . S
C179 C172 1.492 . S
H180 C163 0.930 . S
H181 C164 0.930 . S
H182 C165 0.930 . S
H183 C166 0.930 . S
H184 C173 0.930 1_455 S
H185 C175 0.930 . S
H186 C176 0.930 . S
H187 C177 0.930 . S
Eu188 N219 2.657 1_556 S
Eu188 N226 2.609 . S
Eu188 O232 2.558 . S
Eu188 O233 2.612 1_545 S
Eu188 O235 2.339 1_545 S
Eu188 O236 2.563 . S
Eu188 O237 2.419 1_556 S
Eu188 O239 2.380 . S
Eu188 O240 2.432 . S
Eu188 C252 2.848 . S
C189 C192 1.429 . S
C189 C193 1.411 . S
C189 N196 1.377 . S
C190 C192 1.420 . S
C190 C194 1.423 . S
C190 C202 1.392 . S
C191 C193 1.420 . S
C191 C194 1.351 . S
C191 H214 0.931 . S
C192 C189 1.429 . S
C192 C190 1.420 . S
C192 N200 1.362 . S
C193 C189 1.411 . S
C193 C191 1.420 . S
C193 C198 1.395 . S
C194 C190 1.423 . S
C194 C191 1.351 . S
C194 H206 0.930 . S
C195 C197 1.400 . S
C195 C198 1.386 . S
C195 H207 0.930 . S
N196 C189 1.377 . S
N196 C197 1.321 . S
N196 Eu199 2.609 . S
C197 C195 1.400 . S
C197 N196 1.321 . S
C197 H204 0.930 . S
C198 C193 1.395 . S
C198 C195 1.386 . S
C198 H217 0.930 . S
Eu199 N196 2.609 . S
Eu199 N200 2.657 . S
Eu199 O233 2.380 . S
Eu199 O234 2.432 . S
Eu199 O238 2.558 . S
Eu199 O239 2.612 1_565 S
Eu199 O241 2.339 1_565 S
Eu199 O242 2.563 1_565 S
Eu199 O243 2.419 . S
Eu199 C263 2.848 . S
N200 C192 1.362 . S
N200 Eu199 2.657 . S
N200 C201 1.334 1_565 S
C201 N200 1.334 1_545 S
C201 C203 1.413 . S
C201 H208 0.929 . S
C202 C190 1.392 . S
C202 C203 1.367 1_565 S
C202 H210 0.930 . S
C203 C201 1.413 . S
C203 C202 1.367 1_545 S
C203 H205 0.930 . S
H204 C197 0.930 . S
H205 C203 0.930 . S
H206 C194 0.930 . S
H207 C195 0.930 . S
H208 C201 0.929 . S
H209 C223 0.930 1_565 S
H210 C202 0.930 . S
H211 C229 0.930 . S
H212 C220 0.929 1_565 S
H213 C227 0.930 . S
H214 C191 0.931 . S
H215 C221 0.930 . S
H216 C254 0.930 . S
H217 C198 0.930 . S
H218 C253 0.931 . S
N219 Eu188 2.657 1_554 S
N219 C220 1.334 . S
N219 C224 1.362 . S
C220 H212 0.929 1_545 S
C220 N219 1.334 . S
C220 C223 1.413 . S
C221 H215 0.930 . S
C221 C222 1.392 . S
C221 C223 1.367 . S
C222 C221 1.392 . S
C222 C224 1.420 . S
C222 C254 1.423 . S
C223 H209 0.930 1_545 S
C223 C220 1.413 . S
C223 C221 1.367 . S
C224 N219 1.362 . S
C224 C222 1.420 . S
C224 C228 1.429 . S
H225 C230 0.930 . S
N226 Eu188 2.609 . S
N226 C228 1.377 1_556 S
N226 C229 1.321 . S
C227 H213 0.930 . S
C227 C229 1.400 . S
C227 C230 1.386 1_556 S
C228 C224 1.429 . S
C228 N226 1.377 1_554 S
C228 C231 1.411 . S
C229 H211 0.930 . S
C229 N226 1.321 . S
C229 C227 1.400 . S
C230 H225 0.930 . S
C230 C227 1.386 1_554 S
C230 C231 1.395 . S
C231 C228 1.411 . S
C231 C230 1.395 . S
C231 C253 1.420 . S
O232 Eu188 2.558 . S
O232 C252 1.257 . S
O233 Eu188 2.612 1_565 S
O233 Eu199 2.380 . S
O233 C244 1.276 . S
O234 Eu199 2.432 . S
O234 C251 1.264 . S
O235 Eu188 2.339 1_565 S
O235 C251 1.254 . S
O236 Eu188 2.563 . S
O236 C244 1.235 1_545 S
O237 Eu188 2.419 1_554 S
O237 C252 1.249 1_554 S
O238 Eu199 2.558 . S
O238 C263 1.257 . S
O239 Eu188 2.380 . S
O239 Eu199 2.612 1_545 S
O239 C255 1.276 . S
O240 Eu188 2.432 . S
O240 C262 1.264 . S
O241 Eu199 2.339 1_545 S
O241 C262 1.254 . S
O242 Eu199 2.563 1_545 S
O242 C255 1.235 . S
O243 Eu199 2.419 . S
O243 C263 1.249 . S
C244 O233 1.276 . S
C244 O236 1.235 1_565 S
C245 C247 1.393 . S
C245 C249 1.395 . S
C245 C252 1.492 1_554 S
C246 C247 1.392 . S
C246 C248 1.386 . S
C247 C245 1.393 . S
C247 C246 1.392 . S
C247 H264 0.930 . S
C248 C246 1.386 . S
C248 C250 1.395 . S
C248 H265 0.930 . S
C249 C245 1.395 . S
C249 C250 1.379 . S
C249 H266 0.930 . S
C250 C248 1.395 . S
C250 C249 1.379 . S
C250 H267 0.930 . S
C251 O234 1.264 . S
C251 O235 1.254 . S
C252 Eu188 2.848 . S
C252 O232 1.257 . S
C252 O237 1.249 1_556 S
C252 C245 1.492 1_556 S
C253 H218 0.931 . S
C253 C231 1.420 . S
C253 C254 1.351 . S
C254 H216 0.930 . S
C254 C222 1.423 . S
C254 C253 1.351 . S
C255 O239 1.276 . S
C255 O242 1.235 . S
C256 C257 1.393 . S
C256 C260 1.395 . S
C256 C263 1.492 . S
C257 C256 1.393 . S
C257 C258 1.392 . S
C257 H268 0.930 1_565 S
C258 C257 1.392 . S
C258 C259 1.386 . S
C259 C258 1.386 . S
C259 C261 1.395 . S
C259 H269 0.930 . S
C260 C256 1.395 . S
C260 C261 1.379 . S
C260 H270 0.930 . S
C261 C259 1.395 . S
C261 C260 1.379 . S
C261 H271 0.930 . S
C262 O240 1.264 . S
C262 O241 1.254 . S
C263 Eu199 2.848 . S
C263 O238 1.257 . S
C263 O243 1.249 . S
C263 C256 1.492 . S
H264 C247 0.930 . S
H265 C248 0.930 . S
H266 C249 0.930 . S
H267 C250 0.930 . S
H268 C257 0.930 1_545 S
H269 C259 0.930 . S
H270 C260 0.930 . S
H271 C261 0.930 . S
Eu272 N303 2.657 . S
Eu272 N310 2.609 . S
Eu272 O316 2.558 . S
Eu272 O317 2.612 . S
Eu272 O319 2.339 . S
Eu272 O320 2.563 . S
Eu272 O321 2.419 . S
Eu272 O323 2.380 . S
Eu272 O324 2.432 . S
Eu272 C336 2.848 . S
C273 C276 1.429 . S
C273 C277 1.411 . S
C273 N280 1.377 . S
C274 C276 1.420 . S
C274 C278 1.423 . S
C274 C286 1.392 . S
C275 C277 1.420 . S
C275 C278 1.351 . S
C275 H298 0.931 . S
C276 C273 1.429 . S
C276 C274 1.420 . S
C276 N284 1.362 . S
C277 C273 1.411 . S
C277 C275 1.420 . S
C277 C282 1.395 1_556 S
C278 C274 1.423 . S
C278 C275 1.351 . S
C278 H290 0.930 . S
C279 C281 1.400 . S
C279 C282 1.386 . S
C279 H291 0.930 . S
N280 C273 1.377 . S
N280 C281 1.321 1_556 S
N280 Eu283 2.609 . S
C281 C279 1.400 . S
C281 N280 1.321 1_554 S
C281 H288 0.930 . S
C282 C277 1.395 1_554 S
C282 C279 1.386 . S
C282 H301 0.930 . S
Eu283 N280 2.609 . S
Eu283 N284 2.657 . S
Eu283 O317 2.380 . S
Eu283 O318 2.432 . S
Eu283 O322 2.558 1_556 S
Eu283 O323 2.612 . S
Eu283 O325 2.339 . S
Eu283 O326 2.563 . S
Eu283 O327 2.419 . S
Eu283 C347 2.848 1_556 S
N284 C276 1.362 . S
N284 Eu283 2.657 . S
N284 C285 1.334 . S
C285 N284 1.334 . S
C285 C287 1.413 . S
C285 H292 0.929 . S
C286 C274 1.392 . S
C286 C287 1.367 . S
C286 H294 0.930 . S
C287 C285 1.413 . S
C287 C286 1.367 . S
C287 H289 0.930 . S
H288 C281 0.930 . S
H289 C287 0.930 . S
H290 C278 0.930 . S
H291 C279 0.930 . S
H292 C285 0.929 . S
H293 C307 0.930 . S
H294 C286 0.930 . S
H295 C313 0.930 . S
H296 C304 0.929 . S
H297 C311 0.930 . S
H298 C275 0.931 . S
H299 C305 0.930 . S
H300 C338 0.930 . S
H301 C282 0.930 . S
H302 C337 0.931 . S
N303 Eu272 2.657 . S
N303 C304 1.334 . S
N303 C308 1.362 . S
C304 H296 0.929 . S
C304 N303 1.334 . S
C304 C307 1.413 . S
C305 H299 0.930 . S
C305 C306 1.392 . S
C305 C307 1.367 . S
C306 C305 1.392 . S
C306 C308 1.420 . S
C306 C338 1.423 . S
C307 H293 0.930 . S
C307 C304 1.413 . S
C307 C305 1.367 . S
C308 N303 1.362 . S
C308 C306 1.420 . S
C308 C312 1.429 . S
H309 C314 0.930 . S
N310 Eu272 2.609 . S
N310 C312 1.377 . S
N310 C313 1.321 . S
C311 H297 0.930 . S
C311 C313 1.400 . S
C311 C314 1.386 . S
C312 C308 1.429 . S
C312 N310 1.377 . S
C312 C315 1.411 . S
C313 H295 0.930 . S
C313 N310 1.321 . S
C313 C311 1.400 . S
C314 H309 0.930 . S
C314 C311 1.386 . S
C314 C315 1.395 . S
C315 C312 1.411 . S
C315 C314 1.395 . S
C315 C337 1.420 . S
O316 Eu272 2.558 . S
O316 C336 1.257 . S
O317 Eu272 2.612 . S
O317 Eu283 2.380 . S
O317 C328 1.276 . S
O318 Eu283 2.432 . S
O318 C335 1.264 . S
O319 Eu272 2.339 . S
O319 C335 1.254 . S
O320 Eu272 2.563 . S
O320 C328 1.235 . S
O321 Eu272 2.419 . S
O321 C336 1.249 . S
O322 Eu283 2.558 1_554 S
O322 C347 1.257 . S
O323 Eu272 2.380 . S
O323 Eu283 2.612 . S
O323 C339 1.276 . S
O324 Eu272 2.432 . S
O324 C346 1.264 . S
O325 Eu283 2.339 . S
O325 C346 1.254 . S
O326 Eu283 2.563 . S
O326 C339 1.235 . S
O327 Eu283 2.419 . S
O327 C347 1.249 1_556 S
C328 O317 1.276 . S
C328 O320 1.235 . S
C329 C331 1.393 . S
C329 C333 1.395 . S
C329 C336 1.492 . S
C330 C331 1.392 . S
C330 C332 1.386 . S
C331 C329 1.393 . S
C331 C330 1.392 . S
C331 H348 0.930 . S
C332 C330 1.386 . S
C332 C334 1.395 . S
C332 H349 0.930 . S
C333 C329 1.395 . S
C333 C334 1.379 . S
C333 H350 0.930 . S
C334 C332 1.395 . S
C334 C333 1.379 . S
C334 H351 0.930 . S
C335 O318 1.264 . S
C335 O319 1.254 . S
C336 Eu272 2.848 . S
C336 O316 1.257 . S
C336 O321 1.249 . S
C336 C329 1.492 . S
C337 H302 0.931 . S
C337 C315 1.420 . S
C337 C338 1.351 . S
C338 H300 0.930 . S
C338 C306 1.423 . S
C338 C337 1.351 . S
C339 O323 1.276 . S
C339 O326 1.235 . S
C340 C341 1.393 . S
C340 C344 1.395 . S
C340 C347 1.492 . S
C341 C340 1.393 . S
C341 C342 1.392 . S
C341 H352 0.930 . S
C342 C341 1.392 . S
C342 C343 1.386 . S
C343 C342 1.386 . S
C343 C345 1.395 . S
C343 H353 0.930 . S
C344 C340 1.395 . S
C344 C345 1.379 . S
C344 H354 0.930 . S
C345 C343 1.395 . S
C345 C344 1.379 . S
C345 H355 0.930 . S
C346 O324 1.264 . S
C346 O325 1.254 . S
C347 Eu283 2.848 1_554 S
C347 O322 1.257 . S
C347 O327 1.249 1_554 S
C347 C340 1.492 . S
H348 C331 0.930 . S
H349 C332 0.930 . S
H350 C333 0.930 . S
H351 C334 0.930 . S
H352 C341 0.930 . S
H353 C343 0.930 . S
H354 C344 0.930 . S
H355 C345 0.930 . S
Eu356 N387 2.657 . S
Eu356 N394 2.609 . S
Eu356 O400 2.558 . S
Eu356 O401 2.612 . S
Eu356 O403 2.339 . S
Eu356 O404 2.563 . S
Eu356 O405 2.419 . S
Eu356 O407 2.380 . S
Eu356 O408 2.432 1_455 S
Eu356 C420 2.848 . S
C357 C360 1.429 . S
C357 C361 1.411 . S
C357 N364 1.383 . S
C358 C360 1.420 . S
C358 C362 1.423 . S
C358 C370 1.392 . S
C359 C361 1.420 . S
C359 C362 1.351 . S
C359 H382 0.931 . S
C360 C357 1.429 . S
C360 C358 1.420 . S
C360 N368 1.362 . S
C361 C357 1.411 . S
C361 C359 1.420 . S
C361 C366 1.395 1_656 S
C362 C358 1.423 . S
C362 C359 1.351 . S
C362 H374 0.930 . S
C363 C365 1.400 . S
C363 C366 1.386 . S
C363 H375 0.930 . S
N364 C357 1.383 . S
N364 C365 1.313 1_656 S
N364 Eu367 2.612 . S
C365 C363 1.400 . S
C365 N364 1.313 1_454 S
C365 H372 0.930 . S
C366 C361 1.395 1_454 S
C366 C363 1.386 . S
C366 H385 0.930 . S
Eu367 N364 2.612 . S
Eu367 N368 2.657 . S
Eu367 O401 2.380 1_655 S
Eu367 O402 2.432 1_655 S
Eu367 O406 2.558 1_556 S
Eu367 O407 2.612 1_655 S
Eu367 O409 2.339 . S
Eu367 O410 2.563 . S
Eu367 O411 2.419 . S
Eu367 C431 2.848 1_556 S
N368 C360 1.362 . S
N368 Eu367 2.657 . S
N368 C369 1.334 . S
C369 N368 1.334 . S
C369 C371 1.413 . S
C369 H376 0.929 . S
C370 C358 1.392 . S
C370 C371 1.367 . S
C370 H378 0.930 . S
C371 C369 1.413 . S
C371 C370 1.367 . S
C371 H373 0.930 . S
H372 C365 0.930 . S
H373 C371 0.930 . S
H374 C362 0.930 . S
H375 C363 0.930 . S
H376 C369 0.929 . S
H377 C391 0.930 . S
H378 C370 0.930 . S
H379 C397 0.930 . S
H380 C388 0.929 . S
H381 C395 0.930 . S
H382 C359 0.931 . S
H383 C389 0.930 . S
H384 C422 0.930 . S
H385 C366 0.930 . S
H386 C421 0.931 . S
N387 Eu356 2.657 . S
N387 C388 1.334 . S
N387 C392 1.362 . S
C388 H380 0.929 . S
C388 N387 1.334 . S
C388 C391 1.413 . S
C389 H383 0.930 . S
C389 C390 1.392 . S
C389 C391 1.367 . S
C390 C389 1.392 . S
C390 C392 1.420 . S
C390 C422 1.423 . S
C391 H377 0.930 . S
C391 C388 1.413 . S
C391 C389 1.367 . S
C392 N387 1.362 . S
C392 C390 1.420 . S
C392 C396 1.429 . S
H393 C398 0.930 . S
N394 Eu356 2.609 . S
N394 C396 1.377 . S
N394 C397 1.321 1_455 S
C395 H381 0.930 . S
C395 C397 1.400 . S
C395 C398 1.386 1_655 S
C396 C392 1.429 . S
C396 N394 1.377 . S
C396 C399 1.411 . S
C397 H379 0.930 . S
C397 N394 1.321 1_655 S
C397 C395 1.400 . S
C398 H393 0.930 . S
C398 C395 1.386 1_455 S
C398 C399 1.395 . S
C399 C396 1.411 . S
C399 C398 1.395 . S
C399 C421 1.420 . S
O400 Eu356 2.558 . S
O400 C420 1.257 . S
O401 Eu356 2.612 . S
O401 Eu367 2.380 1_455 S
O401 C412 1.276 . S
O402 Eu367 2.432 1_455 S
O402 C419 1.264 . S
O403 Eu356 2.339 . S
O403 C419 1.254 . S
O404 Eu356 2.563 . S
O404 C412 1.235 . S
O405 Eu356 2.419 . S
O405 C420 1.249 . S
O406 Eu367 2.558 1_554 S
O406 C431 1.257 . S
O407 Eu356 2.380 . S
O407 Eu367 2.612 1_455 S
O407 C423 1.276 1_455 S
O408 Eu356 2.432 1_655 S
O408 C430 1.264 . S
O409 Eu367 2.339 . S
O409 C430 1.254 . S
O410 Eu367 2.563 . S
O410 C423 1.235 . S
O411 Eu367 2.419 . S
O411 C431 1.249 1_556 S
C412 O401 1.276 . S
C412 O404 1.235 . S
C413 C415 1.393 . S
C413 C417 1.395 . S
C413 C420 1.492 . S
C414 C415 1.392 . S
C414 C416 1.386 . S
C415 C413 1.393 . S
C415 C414 1.392 . S
C415 H432 0.930 . S
C416 C414 1.386 . S
C416 C418 1.395 . S
C416 H433 0.930 . S
C417 C413 1.395 . S
C417 C418 1.379 . S
C417 H434 0.930 . S
C418 C416 1.395 . S
C418 C417 1.379 . S
C418 H435 0.930 . S
C419 O402 1.264 . S
C419 O403 1.254 . S
C420 Eu356 2.848 . S
C420 O400 1.257 . S
C420 O405 1.249 . S
C420 C413 1.492 . S
C421 H386 0.931 . S
C421 C399 1.420 . S
C421 C422 1.351 . S
C422 H384 0.930 . S
C422 C390 1.423 . S
C422 C421 1.351 . S
C423 O407 1.276 1_655 S
C423 O410 1.235 . S
C424 C425 1.393 . S
C424 C428 1.395 . S
C424 C431 1.492 . S
C425 C424 1.393 . S
C425 C426 1.392 . S
C425 H436 0.930 . S
C426 C425 1.392 . S
C426 C427 1.386 . S
C427 C426 1.386 . S
C427 C429 1.395 . S
C427 H437 0.930 . S
C428 C424 1.395 . S
C428 C429 1.379 . S
C428 H438 0.930 . S
C429 C427 1.395 . S
C429 C428 1.379 . S
C429 H439 0.930 . S
C430 O408 1.264 . S
C430 O409 1.254 . S
C431 Eu367 2.848 1_554 S
C431 O406 1.257 . S
C431 O411 1.249 1_554 S
C431 C424 1.492 . S
H432 C415 0.930 . S
H433 C416 0.930 . S
H434 C417 0.930 . S
H435 C418 0.930 . S
H436 C425 0.930 . S
H437 C427 0.930 . S
H438 C428 0.930 . S
H439 C429 0.930 . S
C440 C441 1.369 . S
C440 C442 1.419 . S
C440 H444 0.930 . S
C441 C440 1.369 . S
C441 C450 1.429 . S
C442 C440 1.419 . S
C442 C443 1.363 . S
C442 H445 0.929 . S
C443 C442 1.363 . S
C443 C449 1.428 . S
H444 C440 0.930 . S
H445 C442 0.929 . S
S446 N447 1.613 . S
S446 N448 1.610 . S
N447 S446 1.613 . S
N447 C450 1.350 . S
N448 S446 1.610 . S
N448 C449 1.351 . S
C449 C443 1.428 . S
C449 N448 1.351 . S
C449 C450 1.434 . S
C450 C441 1.429 . S
C450 N447 1.350 . S
C450 C449 1.434 . S
C451 C452 1.369 . S
C451 C453 1.419 . S
C451 H455 0.930 . S
C452 C451 1.369 . S
C452 C461 1.429 . S
C453 C451 1.419 . S
C453 C454 1.363 . S
C453 H456 0.929 . S
C454 C453 1.363 . S
C454 C460 1.428 . S
H455 C451 0.930 . S
H456 C453 0.929 . S
S457 N458 1.613 . S
S457 N459 1.610 . S
N458 S457 1.613 . S
N458 C461 1.350 . S
N459 S457 1.610 . S
N459 C460 1.351 . S
C460 C454 1.428 . S
C460 N459 1.351 . S
C460 C461 1.434 . S
C461 C452 1.429 . S
C461 N458 1.350 . S
C461 C460 1.434 . S
C462 C463 1.369 . S
C462 C464 1.419 . S
C462 H466 0.930 . S
C463 C462 1.369 . S
C463 C472 1.429 . S
C464 C462 1.419 . S
C464 C465 1.363 . S
C464 H467 0.929 . S
C465 C464 1.363 . S
C465 C471 1.428 . S
H466 C462 0.930 . S
H467 C464 0.929 . S
S468 N469 1.613 . S
S468 N470 1.610 . S
N469 S468 1.613 . S
N469 C472 1.350 . S
N470 S468 1.610 . S
N470 C471 1.351 . S
C471 C465 1.428 . S
C471 N470 1.351 . S
C471 C472 1.434 . S
C472 C463 1.429 . S
C472 N469 1.350 . S
C472 C471 1.434 . S
C473 C474 1.369 . S
C473 C475 1.419 . S
C473 H477 0.930 . S
C474 C473 1.369 . S
C474 C483 1.429 . S
C475 C473 1.419 . S
C475 C476 1.363 . S
C475 H478 0.929 1_455 S
C476 C475 1.363 . S
C476 C482 1.428 . S
H477 C473 0.930 . S
H478 C475 0.929 1_655 S
S479 N480 1.613 . S
S479 N481 1.610 . S
N480 S479 1.613 . S
N480 C483 1.350 . S
N481 S479 1.610 . S
N481 C482 1.351 . S
C482 C476 1.428 . S
C482 N481 1.351 . S
C482 C483 1.434 . S
C483 C474 1.429 . S
C483 N480 1.350 . S
C483 C482 1.434 . S
C484 C485 1.369 . S
C484 C486 1.419 . S
C484 H488 0.930 . S
C485 C484 1.369 . S
C485 C494 1.429 . S
C486 C484 1.419 . S
C486 C487 1.363 1_554 S
C486 H489 0.929 1_554 S
C487 C486 1.363 1_556 S
C487 C493 1.428 1_556 S
H488 C484 0.930 . S
H489 C486 0.929 1_556 S
S490 N491 1.613 . S
S490 N492 1.610 . S
N491 S490 1.613 . S
N491 C494 1.350 1_545 S
N492 S490 1.610 . S
N492 C493 1.351 1_545 S
C493 C487 1.428 1_554 S
C493 N492 1.351 1_565 S
C493 C494 1.434 . S
C494 C485 1.429 . S
C494 N491 1.350 1_565 S
C494 C493 1.434 . S
C495 C496 1.369 . S
C495 C497 1.419 . S
C495 H499 0.930 . S
C496 C495 1.369 . S
C496 C505 1.429 . S
C497 C495 1.419 . S
C497 C498 1.363 1_554 S
C497 H500 0.929 1_554 S
C498 C497 1.363 1_556 S
C498 C504 1.428 1_556 S
H499 C495 0.930 . S
H500 C497 0.929 1_556 S
S501 N502 1.613 . S
S501 N503 1.610 . S
N502 S501 1.613 . S
N502 C505 1.350 . S
N503 S501 1.610 . S
N503 C504 1.351 . S
C504 C498 1.428 1_554 S
C504 N503 1.351 . S
C504 C505 1.434 . S
C505 C496 1.429 . S
C505 N502 1.350 . S
C505 C504 1.434 . S
C506 C507 1.369 . S
C506 C508 1.419 . S
C506 H510 0.930 . S
C507 C506 1.369 . S
C507 C516 1.429 . S
C508 C506 1.419 . S
C508 C509 1.363 1_554 S
C508 H511 0.929 1_554 S
C509 C508 1.363 1_556 S
C509 C515 1.428 1_556 S
H510 C506 0.930 . S
H511 C508 0.929 1_556 S
S512 N513 1.613 . S
S512 N514 1.610 . S
N513 S512 1.613 . S
N513 C516 1.350 . S
N514 S512 1.610 . S
N514 C515 1.351 . S
C515 C509 1.428 1_554 S
C515 N514 1.351 . S
C515 C516 1.434 . S
C516 C507 1.429 . S
C516 N513 1.350 . S
C516 C515 1.434 . S
C517 C518 1.369 . S
C517 C519 1.419 . S
C517 H521 0.930 . S
C518 C517 1.369 . S
C518 C527 1.429 . S
C519 C517 1.419 . S
C519 C520 1.363 1_554 S
C519 H522 0.929 . S
C520 C519 1.363 1_556 S
C520 C526 1.428 . S
H521 C517 0.930 . S
H522 C519 0.929 . S
S523 N524 1.613 1_556 S
S523 N525 1.610 . S
N524 S523 1.613 1_554 S
N524 C527 1.350 . S
N525 S523 1.610 . S
N525 C526 1.351 . S
C526 C520 1.428 . S
C526 N525 1.351 . S
C526 C527 1.434 1_556 S
C527 C518 1.429 . S
C527 N524 1.350 . S
C527 C526 1.434 1_554 S
C528 C529 1.369 . S
C528 C530 1.419 . S
C528 H532 0.930 . S
C529 C528 1.369 . S
C529 C538 1.429 . S
C530 C528 1.419 . S
C530 C531 1.363 1_455 S
C530 H533 0.929 . S
C531 C530 1.363 1_655 S
C531 C537 1.428 . S
H532 C528 0.930 . S
H533 C530 0.929 . S
S534 N535 1.613 1_655 S
S534 N536 1.610 . S
N535 S534 1.613 1_455 S
N535 C538 1.350 . S
N536 S534 1.610 . S
N536 C537 1.351 . S
C537 C531 1.428 . S
C537 N536 1.351 . S
C537 C538 1.434 1_655 S
C538 C529 1.429 . S
C538 N535 1.350 . S
C538 C537 1.434 1_455 S
C539 C540 1.369 . S
C539 C541 1.419 . S
C539 H543 0.930 . S
C540 C539 1.369 . S
C540 C549 1.429 . S
C541 C539 1.419 . S
C541 C542 1.363 1_545 S
C541 H544 0.929 . S
C542 C541 1.363 1_565 S
C542 C548 1.428 . S
H543 C539 0.930 . S
H544 C541 0.929 . S
S545 N546 1.613 1_565 S
S545 N547 1.610 1_556 S
N546 S545 1.613 1_545 S
N546 C549 1.350 1_556 S
N547 S545 1.610 1_554 S
N547 C548 1.351 . S
C548 C542 1.428 . S
C548 N547 1.351 . S
C548 C549 1.434 1_565 S
C549 C540 1.429 . S
C549 N546 1.350 1_554 S
C549 C548 1.434 1_545 S
C550 C551 1.369 . S
C550 C552 1.419 . S
C550 H554 0.930 . S
C551 C550 1.369 . S
C551 C560 1.429 . S
C552 C550 1.419 . S
C552 C553 1.363 . S
C552 H555 0.929 . S
C553 C552 1.363 . S
C553 C559 1.428 . S
H554 C550 0.930 . S
H555 C552 0.929 . S
S556 N557 1.613 . S
S556 N558 1.610 1_556 S
N557 S556 1.613 . S
N557 C560 1.350 1_556 S
N558 S556 1.610 1_554 S
N558 C559 1.351 . S
C559 C553 1.428 . S
C559 N558 1.351 . S
C559 C560 1.434 . S
C560 C551 1.429 . S
C560 N557 1.350 1_554 S
C560 C559 1.434 . S
C561 C562 1.369 . S
C561 C563 1.419 . S
C561 H565 0.930 1_554 S
C562 C561 1.369 . S
C562 C571 1.429 . S
C563 C561 1.419 . S
C563 C564 1.363 . S
C563 H566 0.929 . S
C564 C563 1.363 . S
C564 C570 1.428 . S
H565 C561 0.930 1_556 S
H566 C563 0.929 . S
S567 N568 1.613 . S
S567 N569 1.610 . S
N568 S567 1.613 . S
N568 C571 1.350 . S
N569 S567 1.610 . S
N569 C570 1.351 . S
C570 C564 1.428 . S
C570 N569 1.351 . S
C570 C571 1.434 . S
C571 C562 1.429 . S
C571 N568 1.350 . S
C571 C570 1.434 . S
C572 C573 1.369 . S
C572 C574 1.419 1_655 S
C572 H576 0.930 1_655 S
C573 C572 1.369 . S
C573 C582 1.429 . S
C574 C572 1.419 1_455 S
C574 C575 1.363 . S
C574 H577 0.929 . S
C575 C574 1.363 . S
C575 C581 1.428 1_455 S
H576 C572 0.930 1_455 S
H577 C574 0.929 . S
S578 N579 1.613 . S
S578 N580 1.610 . S
N579 S578 1.613 . S
N579 C582 1.350 . S
N580 S578 1.610 . S
N580 C581 1.351 . S
C581 C575 1.428 1_655 S
C581 N580 1.351 . S
C581 C582 1.434 . S
C582 C573 1.429 . S
C582 N579 1.350 . S
C582 C581 1.434 . S
C583 C584 1.369 1_545 S
C583 C585 1.419 . S
C583 H587 0.930 . S
C584 C583 1.369 1_565 S
C584 C593 1.429 . S
C585 C583 1.419 . S
C585 C586 1.363 . S
C585 H588 0.929 . S
C586 C585 1.363 . S
C586 C592 1.428 1_545 S
H587 C583 0.930 . S
H588 C585 0.929 . S
S589 N590 1.613 . S
S589 N591 1.610 . S
N590 S589 1.613 . S
N590 C593 1.350 . S
N591 S589 1.610 . S
N591 C592 1.351 . S
C592 C586 1.428 1_565 S
C592 N591 1.351 . S
C592 C593 1.434 . S
C593 C584 1.429 . S
C593 N590 1.350 . S
C593 C592 1.434 . S
C594 C595 1.369 . S
C594 C596 1.419 . S
C594 H598 0.930 . S
C595 C594 1.369 . S
C595 C604 1.429 . S
C596 C594 1.419 . S
C596 C597 1.363 . S
C596 H599 0.929 . S
C597 C596 1.363 . S
C597 C603 1.428 . S
H598 C594 0.930 . S
H599 C596 0.929 . S
S600 N601 1.613 . S
S600 N602 1.610 . S
N601 S600 1.613 . S
N601 C604 1.350 . S
N602 S600 1.610 . S
N602 C603 1.351 . S
C603 C597 1.428 . S
C603 N602 1.351 . S
C603 C604 1.434 . S
C604 C595 1.429 . S
C604 N601 1.350 . S
C604 C603 1.434 . S
C605 C606 1.369 . S
C605 C607 1.419 . S
C605 H609 0.930 . S
C606 C605 1.369 . S
C606 C615 1.429 . S
C607 C605 1.419 . S
C607 C608 1.363 . S
C607 H610 0.929 . S
C608 C607 1.363 . S
C608 C614 1.428 . S
H609 C605 0.930 . S
H610 C607 0.929 . S
S611 N612 1.613 . S
S611 N613 1.610 . S
N612 S611 1.613 . S
N612 C615 1.350 . S
N613 S611 1.610 . S
N613 C614 1.351 . S
C614 C608 1.428 . S
C614 N613 1.351 . S
C614 C615 1.434 . S
C615 C606 1.429 . S
C615 N612 1.350 . S
C615 C614 1.434 . S
C616 C617 1.369 . S
C616 C618 1.419 . S
C616 H620 0.930 . S
C617 C616 1.369 . S
C617 C626 1.429 . S
C618 C616 1.419 . S
C618 C619 1.363 . S
C618 H621 0.929 . S
C619 C618 1.363 . S
C619 C625 1.428 . S
H620 C616 0.930 . S
H621 C618 0.929 . S
S622 N623 1.613 . S
S622 N624 1.610 . S
N623 S622 1.613 . S
N623 C626 1.350 1_554 S
N624 S622 1.610 . S
N624 C625 1.351 1_554 S
C625 C619 1.428 . S
C625 N624 1.351 1_556 S
C625 C626 1.434 . S
C626 C617 1.429 . S
C626 N623 1.350 1_556 S
C626 C625 1.434 . S
C627 C628 1.369 . S
C627 C629 1.419 . S
C627 H631 0.930 . S
C628 C627 1.369 . S
C628 C637 1.429 . S
C629 C627 1.419 . S
C629 C630 1.363 . S
C629 H632 0.929 . S
C630 C629 1.363 . S
C630 C636 1.428 . S
H631 C627 0.930 . S
H632 C629 0.929 . S
S633 N634 1.613 . S
S633 N635 1.610 . S
N634 S633 1.613 . S
N634 C637 1.350 . S
N635 S633 1.610 . S
N635 C636 1.351 . S
C636 C630 1.428 . S
C636 N635 1.351 . S
C636 C637 1.434 . S
C637 C628 1.429 . S
C637 N634 1.350 . S
C637 C636 1.434 . S
C638 C639 1.369 . S
C638 C640 1.419 . S
C638 H642 0.930 . S
C639 C638 1.369 . S
C639 C648 1.429 . S
C640 C638 1.419 . S
C640 C641 1.363 . S
C640 H643 0.929 . S
C641 C640 1.363 . S
C641 C647 1.428 . S
H642 C638 0.930 . S
H643 C640 0.929 . S
S644 N645 1.613 . S
S644 N646 1.610 . S
N645 S644 1.613 . S
N645 C648 1.350 1_554 S
N646 S644 1.610 . S
N646 C647 1.351 1_554 S
C647 C641 1.428 . S
C647 N646 1.351 1_556 S
C647 C648 1.434 . S
C648 C639 1.429 . S
C648 N645 1.350 1_556 S
C648 C647 1.434 . S
C649 C650 1.369 . S
C649 C651 1.419 . S
C649 H653 0.930 . S
C650 C649 1.369 . S
C650 C659 1.429 . S
C651 C649 1.419 . S
C651 C652 1.363 . S
C651 H654 0.929 . S
C652 C651 1.363 . S
C652 C658 1.428 . S
H653 C649 0.930 . S
H654 C651 0.929 . S
S655 N656 1.613 . S
S655 N657 1.610 . S
N656 S655 1.613 . S
N656 C659 1.350 1_554 S
N657 S655 1.610 . S
N657 C658 1.351 1_554 S
C658 C652 1.428 . S
C658 N657 1.351 1_556 S
C658 C659 1.434 . S
C659 C650 1.429 . S
C659 N656 1.350 1_556 S
C659 C658 1.434 . S
C660 C661 1.369 . S
C660 C662 1.419 . S
C660 H664 0.930 . S
C661 C660 1.369 . S
C661 C670 1.426 . S
C662 C660 1.419 . S
C662 C663 1.363 . S
C662 H665 0.929 . S
C663 C662 1.363 . S
C663 C669 1.428 1_655 S
H664 C660 0.930 . S
H665 C662 0.929 . S
S666 N667 1.613 . S
S666 N668 1.610 . S
N667 S666 1.613 . S
N667 C670 1.352 1_455 S
N668 S666 1.610 . S
N668 C669 1.351 . S
C669 C663 1.428 1_455 S
C669 N668 1.351 . S
C669 C670 1.434 1_455 S
C670 C661 1.426 . S
C670 N667 1.352 1_655 S
C670 C669 1.434 1_655 S
C671 C672 1.369 . S
C671 C673 1.419 . S
C671 H675 0.930 . S
C672 C671 1.369 . S
C672 C681 1.429 . S
C673 C671 1.419 . S
C673 C674 1.363 . S
C673 H676 0.929 . S
C674 C673 1.363 . S
C674 C680 1.428 . S
H675 C671 0.930 . S
H676 C673 0.929 . S
S677 N678 1.613 . S
S677 N679 1.610 . S
N678 S677 1.613 . S
N678 C681 1.350 . S
N679 S677 1.610 . S
N679 C680 1.351 . S
C680 C674 1.428 . S
C680 N679 1.351 . S
C680 C681 1.434 . S
C681 C672 1.429 . S
C681 N678 1.350 . S
C681 C680 1.434 . S
C682 C683 1.369 . S
C682 C684 1.419 . S
C682 H686 0.930 . S
C683 C682 1.369 . S
C683 C692 1.429 . S
C684 C682 1.419 . S
C684 C685 1.363 . S
C684 H687 0.929 . S
C685 C684 1.363 . S
C685 C691 1.428 . S
H686 C682 0.930 . S
H687 C684 0.929 . S
S688 N689 1.613 . S
S688 N690 1.610 . S
N689 S688 1.613 . S
N689 C692 1.350 . S
N690 S688 1.610 . S
N690 C691 1.351 . S
C691 C685 1.428 . S
C691 N690 1.351 . S
C691 C692 1.434 . S
C692 C683 1.429 . S
C692 N689 1.350 . S
C692 C691 1.434 . S
C693 C694 1.369 . S
C693 C695 1.419 . S
C693 H697 0.930 . S
C694 C693 1.369 . S
C694 C703 1.429 . S
C695 C693 1.419 . S
C695 C696 1.363 . S
C695 H698 0.929 . S
C696 C695 1.363 . S
C696 C702 1.428 . S
H697 C693 0.930 . S
H698 C695 0.929 . S
S699 N700 1.613 . S
S699 N701 1.610 . S
N700 S699 1.613 . S
N700 C703 1.350 . S
N701 S699 1.610 . S
N701 C702 1.351 . S
C702 C696 1.428 . S
C702 N701 1.351 . S
C702 C703 1.434 . S
C703 C694 1.429 . S
C703 N700 1.350 . S
C703 C702 1.434 . S
C441 C82 1.805 . S
C443 C178 2.078 . S
C454 C262 2.085 . S
C452 C95 1.824 . S
C465 C328 1.998 . S
C463 C56 1.894 . S
C476 C412 1.997 . S
C474 C69 1.872 . S
C487 C167 2.075 1_565 S
C485 C30 1.750 . S
C496 C43 1.753 . S
C498 C251 2.085 . S
C507 C4 1.819 . S
C509 C339 2.002 . S
C518 C17 1.811 . S
C520 C423 1.997 . S
C531 C174 0.934 . S
C529 C74 0.879 . S
C542 C258 0.899 . S
C540 C87 0.852 . S
C553 C330 0.874 . S
C551 C100 0.827 . S
C562 C61 0.874 . S
C564 C414 0.912 . S
C573 C22 0.895 . S
C575 C162 0.937 . S
C586 C246 0.902 . S
C584 C35 0.871 . S
C597 C342 0.874 . S
C595 C48 0.844 . S
C606 C9 0.857 . S
C608 C426 0.906 . S
C617 C73 2.099 . S
C619 C171 2.208 . S
C628 C86 2.088 . S
C630 C255 2.181 . S
C641 C335 2.272 . S
C639 C99 1.999 . S
C652 C419 2.291 . S
C650 C60 2.019 . S
C661 C21 2.103 . S
C663 C160 2.203 . S
C674 C244 2.186 . S
C672 C34 2.075 . S
C685 C346 2.270 . S
C683 C47 1.998 . S
C694 C8 2.026 . S
C696 C430 2.292 . S
