# Generated by pormake.
# Topology pyr, (3,6)-cn, num edge types: 1
# Building blocks:
#     Node 0, Type 0, BuildingBlock: BETDIP_clean_linker_0, # of connection points: 3
#     Node 1, Type 0, BuildingBlock: BETDIP_clean_linker_0, # of connection points: 3
#     Node 2, Type 0, BuildingBlock: BETDIP_clean_linker_0, # of connection points: 3
#     Node 3, Type 0, BuildingBlock: BETDIP_clean_linker_0, # of connection points: 3
#     Node 4, Type 0, BuildingBlock: BETDIP_clean_linker_0, # of connection points: 3
#     Node 5, Type 0, BuildingBlock: BETDIP_clean_linker_0, # of connection points: 3
#     Node 6, Type 0, BuildingBlock: BETDIP_clean_linker_0, # of connection points: 3
#     Node 7, Type 0, BuildingBlock: BETDIP_clean_linker_0, # of connection points: 3
#     Node 8, Type 1, BuildingBlock: BETDEL_clean_sbu_0, # of connection points: 6
#     Node 9, Type 1, BuildingBlock: BETDEL_clean_sbu_0, # of connection points: 6
#     Node 10, Type 1, BuildingBlock: BETDEL_clean_sbu_0, # of connection points: 6
#     Node 11, Type 1, BuildingBlock: BETDEL_clean_sbu_0, # of connection points: 6
#     Edge 12, Type (0, 1), BuildingBlock: XIVTED_clean_linker_0, # of connection points: 2
#     Edge 13, Type (0, 1), BuildingBlock: XIVTED_clean_linker_0, # of connection points: 2
#     Edge 14, Type (0, 1), BuildingBlock: XIVTED_clean_linker_0, # of connection points: 2
#     Edge 15, Type (0, 1), BuildingBlock: XIVTED_clean_linker_0, # of connection points: 2
#     Edge 16, Type (0, 1), BuildingBlock: XIVTED_clean_linker_0, # of connection points: 2
#     Edge 17, Type (0, 1), BuildingBlock: XIVTED_clean_linker_0, # of connection points: 2
#     Edge 18, Type (0, 1), BuildingBlock: XIVTED_clean_linker_0, # of connection points: 2
#     Edge 19, Type (0, 1), BuildingBlock: XIVTED_clean_linker_0, # of connection points: 2
#     Edge 20, Type (0, 1), BuildingBlock: XIVTED_clean_linker_0, # of connection points: 2
#     Edge 21, Type (0, 1), BuildingBlock: XIVTED_clean_linker_0, # of connection points: 2
#     Edge 22, Type (0, 1), BuildingBlock: XIVTED_clean_linker_0, # of connection points: 2
#     Edge 23, Type (0, 1), BuildingBlock: XIVTED_clean_linker_0, # of connection points: 2
#     Edge 24, Type (0, 1), BuildingBlock: XIVTED_clean_linker_0, # of connection points: 2
#     Edge 25, Type (0, 1), BuildingBlock: XIVTED_clean_linker_0, # of connection points: 2
#     Edge 26, Type (0, 1), BuildingBlock: XIVTED_clean_linker_0, # of connection points: 2
#     Edge 27, Type (0, 1), BuildingBlock: XIVTED_clean_linker_0, # of connection points: 2
#     Edge 28, Type (0, 1), BuildingBlock: XIVTED_clean_linker_0, # of connection points: 2
#     Edge 29, Type (0, 1), BuildingBlock: XIVTED_clean_linker_0, # of connection points: 2
#     Edge 30, Type (0, 1), BuildingBlock: XIVTED_clean_linker_0, # of connection points: 2
#     Edge 31, Type (0, 1), BuildingBlock: XIVTED_clean_linker_0, # of connection points: 2
#     Edge 32, Type (0, 1), BuildingBlock: XIVTED_clean_linker_0, # of connection points: 2
#     Edge 33, Type (0, 1), BuildingBlock: XIVTED_clean_linker_0, # of connection points: 2
#     Edge 34, Type (0, 1), BuildingBlock: XIVTED_clean_linker_0, # of connection points: 2
#     Edge 35, Type (0, 1), BuildingBlock: XIVTED_clean_linker_0, # of connection points: 2
# Relax obj value: 0.065
# Max RMSD: 0.180
# Mean RMSD: 0.130
data_MOF--net-pyr--node1-BETDEL_clean_sbu_0--node2-BETDIP_clean_linker_0--edge1-XIVTED_clean_linker_0
_symmetry_space_group_name_H-M    P1
_symmetry_Int_Tables_number       1
_symmetry_cell_setting            triclinic
loop_
_symmetry_equiv_pos_as_xyz
'x, y, z'
_cell_length_a     36.379096
_cell_length_b     37.452092
_cell_length_c     36.603404
_cell_angle_alpha  94.661329
_cell_angle_beta   85.79755
_cell_angle_gamma 101.50357
loop_
_atom_site_label
_atom_site_type_symbol
_atom_site_fract_x
_atom_site_fract_y
_atom_site_fract_z
_atom_type_partial_charge
H0 H 0.19219 0.22699 0.20168 0.0
H1 H 0.27726 0.22249 0.11419 0.0
H2 H 0.25163 0.13833 0.19064 0.0
H3 H 0.21154 0.2893 0.19394 0.0
C4 C 0.20953 0.28656 0.16432 0.0
C5 C 0.2136 0.21381 0.18751 0.0
C6 C 0.21981 0.18126 0.19997 0.0
C7 C 0.23471 0.22908 0.15683 0.0
C8 C 0.26154 0.2111 0.13825 0.0
C9 C 0.26765 0.17827 0.15032 0.0
C10 C 0.24684 0.16364 0.18122 0.0
N11 N 0.2278 0.26122 0.14292 0.0
H12 H 0.26223 0.84832 0.71172 0.0
H13 H 0.27244 0.7697 0.62065 0.0
H14 H 0.34152 0.77761 0.71254 0.0
H15 H 0.2331 0.79634 0.59391 0.0
C16 C 0.22257 0.81663 0.61238 0.0
C17 C 0.27498 0.8263 0.69881 0.0
C18 C 0.30309 0.81465 0.71627 0.0
C19 C 0.26341 0.81042 0.66452 0.0
C20 C 0.28044 0.78206 0.64734 0.0
C21 C 0.30902 0.77027 0.66449 0.0
C22 C 0.31954 0.78639 0.69918 0.0
N23 N 0.23548 0.8249 0.64842 0.0
H24 H 0.69874 0.39412 0.84074 0.0
H25 H 0.60765 0.30135 0.83398 0.0
H26 H 0.69184 0.30675 0.91182 0.0
H27 H 0.60961 0.31806 0.77494 0.0
C28 C 0.61479 0.34771 0.77765 0.0
C29 C 0.68454 0.368 0.85032 0.0
C30 C 0.69987 0.35227 0.87782 0.0
C31 C 0.65168 0.34972 0.8339 0.0
C32 C 0.63329 0.31548 0.84601 0.0
C33 C 0.64789 0.29947 0.87392 0.0
C34 C 0.68106 0.31825 0.88956 0.0
N35 N 0.63785 0.36673 0.80564 0.0
H36 H 0.75376 0.65175 0.29807 0.0
H37 H 0.83409 0.75097 0.28201 0.0
H38 H 0.7935 0.72233 0.39103 0.0
H39 H 0.75597 0.64357 0.23724 0.0
C40 C 0.78387 0.65779 0.22864 0.0
C41 C 0.77118 0.67645 0.30916 0.0
C42 C 0.76963 0.68484 0.34732 0.0
C43 C 0.79495 0.70014 0.28561 0.0
C44 C 0.81635 0.73264 0.30038 0.0
C45 C 0.81548 0.74124 0.33841 0.0
C46 C 0.79273 0.71675 0.36157 0.0
N47 N 0.80025 0.6912 0.24738 0.0
H48 H 0.75032 0.7873 0.88723 0.0
H49 H 0.83993 0.78542 0.80419 0.0
H50 H 0.78151 0.87512 0.81589 0.0
H51 H 0.8348 0.7277 0.81702 0.0
C52 C 0.82768 0.72885 0.84636 0.0
C53 C 0.76756 0.79958 0.86436 0.0
C54 C 0.76208 0.83267 0.85263 0.0
C55 C 0.79536 0.78222 0.847 0.0
C56 C 0.81814 0.7984 0.81766 0.0
C57 C 0.81332 0.83189 0.8059 0.0
C58 C 0.785 0.84872 0.82361 0.0
N59 N 0.80161 0.75023 0.86177 0.0
H60 H 0.77601 0.16777 0.29612 0.0
H61 H 0.7569 0.23856 0.39135 0.0
H62 H 0.68789 0.2296 0.29965 0.0
H63 H 0.78773 0.20473 0.4196 0.0
C64 C 0.80505 0.19099 0.40009 0.0
C65 C 0.76035 0.18705 0.31026 0.0
C66 C 0.73085 0.19706 0.29324 0.0
C67 C 0.76965 0.20109 0.34581 0.0
C68 C 0.74985 0.22679 0.36421 0.0
C69 C 0.7202 0.23713 0.34758 0.0
C70 C 0.71102 0.22205 0.31224 0.0
N71 N 0.79846 0.18794 0.36201 0.0
H72 H 0.32304 0.63103 0.19872 0.0
H73 H 0.41697 0.72071 0.19329 0.0
H74 H 0.3237 0.71556 0.12572 0.0
H75 H 0.37165 0.60165 0.21199 0.0
C76 C 0.38563 0.62192 0.23199 0.0
C77 C 0.3372 0.65591 0.18663 0.0
C78 C 0.31918 0.67091 0.16053 0.0
C79 C 0.37258 0.67381 0.19843 0.0
C80 C 0.38973 0.70714 0.1841 0.0
C81 C 0.37259 0.7224 0.15743 0.0
C82 C 0.33732 0.70396 0.14593 0.0
N83 N 0.39086 0.65969 0.22565 0.0
H84 H 0.12247 0.32784 0.69415 0.0
H85 H 0.19626 0.43033 0.67557 0.0
H86 H 0.19457 0.33912 0.59597 0.0
H87 H 0.12225 0.34813 0.75173 0.0
C88 C 0.12839 0.37774 0.75326 0.0
C89 C 0.14341 0.34458 0.67712 0.0
C90 C 0.15656 0.32917 0.64364 0.0
C91 C 0.15795 0.38107 0.68875 0.0
C92 C 0.18504 0.40231 0.66629 0.0
C93 C 0.19884 0.38729 0.63294 0.0
C94 C 0.18388 0.35094 0.62156 0.0
N95 N 0.14701 0.39716 0.72326 0.0
Dy96 Dy 0.04251 0.02286 0.47263 0.0
C97 C 0.97578 0.96539 0.60963 0.0
C98 C 0.079 0.05773 0.4144 0.0
Dy99 Dy 0.9989 0.99871 0.54656 0.0
O100 O 0.09516 0.04744 0.44108 0.0
O101 O 0.04265 0.04879 0.41929 0.0
O102 O 0.06705 0.9724 0.46968 0.0
O103 O 0.05511 0.99771 0.52132 0.0
C104 C 0.06623 0.97038 0.505 0.0
C105 C 0.96061 0.04009 0.51279 0.0
O106 O 0.03937 0.04751 0.56753 0.0
O107 O 0.05904 0.07197 0.51112 0.0
O108 O 0.97419 0.99885 0.60421 0.0
O109 O 0.9907 0.95002 0.58063 0.0
O110 O 0.94919 0.02603 0.54388 0.0
O111 O 0.99115 0.03057 0.50223 0.0
O112 O 0.99606 0.98062 0.45068 0.0
O113 O 0.97593 0.9533 0.5057 0.0
C114 C 0.05724 0.07426 0.54751 0.0
C115 C 0.97571 0.95404 0.46949 0.0
Dy116 Dy 0.54644 0.02476 0.03648 0.0
C117 C 0.4439 0.94812 0.9265 0.0
C118 C 0.60044 0.06981 0.07549 0.0
Dy119 Dy 0.4884 0.98772 0.97817 0.0
O120 O 0.59936 0.03534 0.06672 0.0
O121 O 0.57222 0.08006 0.06226 0.0
O122 O 0.5304 0.98375 0.07973 0.0
O123 O 0.50324 0.97598 0.03128 0.0
C124 C 0.50498 0.96208 0.06111 0.0
C125 C 0.52192 0.05754 0.96917 0.0
O126 O 0.45053 0.00879 0.02139 0.0
O127 O 0.49698 0.05192 0.04988 0.0
O128 O 0.47162 0.975 0.92031 0.0
O129 O 0.44043 0.94225 0.9613 0.0
O130 O 0.48752 0.04368 0.9615 0.0
O131 O 0.53749 0.03307 0.97952 0.0
O132 O 0.58285 0.99707 0.99659 0.0
O133 O 0.5359 0.95855 0.96415 0.0
C134 C 0.46121 0.03813 0.04376 0.0
C135 C 0.57135 0.9692 0.97274 0.0
Dy136 Dy 0.52202 0.46701 0.48342 0.0
C137 C 0.45612 0.57849 0.56758 0.0
C138 C 0.56449 0.41999 0.44936 0.0
Dy139 Dy 0.4981 0.53076 0.53387 0.0
O140 O 0.52796 0.41422 0.45139 0.0
O141 O 0.57777 0.45178 0.46523 0.0
O142 O 0.46107 0.44038 0.47905 0.0
O143 O 0.47924 0.47238 0.52663 0.0
C144 C 0.45096 0.45562 0.51041 0.0
C145 C 0.56921 0.54347 0.50583 0.0
O146 O 0.51263 0.4981 0.57788 0.0
O147 O 0.54267 0.45938 0.53852 0.0
O148 O 0.4924 0.58238 0.56822 0.0
O149 O 0.44273 0.54813 0.54918 0.0
O150 O 0.5585 0.55853 0.53705 0.0
O151 O 0.54091 0.5258 0.49011 0.0
O152 O 0.50668 0.49883 0.43946 0.0
O153 O 0.477 0.53805 0.47864 0.0
C154 C 0.53361 0.47262 0.57211 0.0
C155 C 0.48557 0.52418 0.44513 0.0
Dy156 Dy 0.00409 0.47747 0.04966 0.0
C157 C 0.97327 0.60946 0.00141 0.0
C158 C 0.03009 0.4182 0.06727 0.0
Dy159 Dy 0.99764 0.55005 0.02112 0.0
O160 O 0.00859 0.43562 0.08871 0.0
O161 O 0.03673 0.43269 0.03584 0.0
O162 O 0.95245 0.47882 0.08652 0.0
O163 O 0.98957 0.52796 0.07455 0.0
C164 C 0.95842 0.5143 0.09006 0.0
C165 C 0.04114 0.51165 0.97875 0.0
O166 O 0.04324 0.57134 0.0593 0.0
O167 O 0.05889 0.51484 0.06363 0.0
O168 O 0.00317 0.59837 0.98747 0.0
O169 O 0.95706 0.58853 0.02687 0.0
O170 O 0.04739 0.54708 0.98179 0.0
O171 O 0.01072 0.49909 0.99593 0.0
O172 O 0.95677 0.45589 0.01324 0.0
O173 O 0.94386 0.51276 0.00405 0.0
C174 C 0.06656 0.55104 0.06863 0.0
C175 C 0.93506 0.47648 0.00113 0.0
H176 H 0.1439 0.17188 0.21626 0.0
H177 H 0.15448 0.07634 0.4019 0.0
H178 H 0.24664 0.15457 0.25751 0.0
H179 H 0.04985 0.08315 0.35709 0.0
H180 H 0.18863 0.10838 0.35062 0.0
H181 H 0.10874 0.14319 0.26943 0.0
C182 C 0.15903 0.16228 0.23668 0.0
C183 C 0.19816 0.16538 0.2325 0.0
C184 C 0.1582 0.10291 0.3519 0.0
C185 C 0.1583 0.13246 0.29297 0.0
C186 C 0.13872 0.08463 0.38116 0.0
C187 C 0.09939 0.07708 0.38349 0.0
C188 C 0.13818 0.11377 0.32478 0.0
C189 C 0.08026 0.08844 0.35608 0.0
C190 C 0.13898 0.14574 0.26683 0.0
C191 C 0.21643 0.15223 0.25947 0.0
N192 N 0.09988 0.10627 0.32771 0.0
N193 N 0.19633 0.13631 0.28853 0.0
H194 H 0.31673 0.785 0.77897 0.0
H195 H 0.43844 0.97018 0.85897 0.0
H196 H 0.32368 0.88808 0.73164 0.0
H197 H 0.39443 0.88215 0.92865 0.0
H198 H 0.39974 0.9382 0.81029 0.0
H199 H 0.34757 0.81771 0.83289 0.0
C200 C 0.32444 0.81452 0.78013 0.0
C201 C 0.31773 0.83391 0.75083 0.0
C202 C 0.39829 0.9259 0.83626 0.0
C203 C 0.35328 0.87125 0.81192 0.0
C204 C 0.42052 0.94405 0.864 0.0
C205 C 0.41961 0.92868 0.89778 0.0
C206 C 0.3754 0.89174 0.84201 0.0
C207 C 0.39581 0.89485 0.90292 0.0
C208 C 0.34186 0.83312 0.81089 0.0
C209 C 0.32806 0.87211 0.75372 0.0
N210 N 0.37484 0.87722 0.87511 0.0
N211 N 0.34573 0.88948 0.78349 0.0
H212 H 0.58725 0.31805 0.71294 0.0
H213 H 0.53719 0.49923 0.64481 0.0
H214 H 0.6134 0.42132 0.77591 0.0
H215 H 0.55684 0.40763 0.57182 0.0
H216 H 0.55688 0.46993 0.69601 0.0
H217 H 0.56721 0.34904 0.66379 0.0
C218 C 0.58871 0.3473 0.71641 0.0
C219 C 0.60225 0.36713 0.74842 0.0
C220 C 0.5569 0.45642 0.66871 0.0
C221 C 0.57892 0.4029 0.69234 0.0
C222 C 0.54556 0.47303 0.63952 0.0
C223 C 0.54543 0.45598 0.60384 0.0
C224 C 0.56745 0.4222 0.66229 0.0
C225 C 0.55665 0.42202 0.59868 0.0
C226 C 0.57736 0.365 0.68831 0.0
C227 C 0.6034 0.40501 0.75154 0.0
N228 N 0.56691 0.40624 0.6275 0.0
N229 N 0.59173 0.42168 0.7239 0.0
H230 H 0.85387 0.68487 0.19772 0.0
H231 H 0.88651 0.48875 0.11545 0.0
H232 H 0.76789 0.58727 0.20089 0.0
H233 H 0.96883 0.58814 0.10447 0.0
H234 H 0.84179 0.52454 0.14487 0.0
H235 H 0.89519 0.65042 0.16077 0.0
C236 C 0.84355 0.65621 0.19034 0.0
C237 C 0.80753 0.6387 0.20259 0.0
C238 C 0.86957 0.53857 0.1359 0.0
C239 C 0.85483 0.59904 0.1606 0.0
C240 C 0.89512 0.51814 0.11928 0.0
C241 C 0.93136 0.5356 0.10776 0.0
C242 C 0.88048 0.57668 0.14119 0.0
C243 C 0.94111 0.57369 0.11307 0.0
C244 C 0.86719 0.63654 0.16925 0.0
C245 C 0.79554 0.60165 0.19201 0.0
N246 N 0.91584 0.59299 0.12956 0.0
N247 N 0.81929 0.5829 0.17188 0.0
H248 H 0.34083 0.20641 0.13015 0.0
H249 H 0.38502 0.01426 0.04768 0.0
H250 H 0.25827 0.10619 0.12754 0.0
H251 H 0.47137 0.10739 0.07648 0.0
H252 H 0.33738 0.04913 0.07127 0.0
H253 H 0.38841 0.17228 0.10347 0.0
C254 C 0.33272 0.1773 0.12353 0.0
C255 C 0.2958 0.15894 0.13114 0.0
C256 C 0.36677 0.06186 0.07254 0.0
C257 C 0.34972 0.11988 0.10111 0.0
C258 C 0.39398 0.04198 0.05912 0.0
C259 C 0.43222 0.05792 0.06021 0.0
C260 C 0.37788 0.09804 0.08682 0.0
C261 C 0.4422 0.09394 0.07533 0.0
C262 C 0.35984 0.15782 0.10865 0.0
C263 C 0.28662 0.1212 0.1224 0.0
N264 N 0.41516 0.11287 0.0879 0.0
N265 N 0.31343 0.10287 0.10787 0.0
H266 H 0.18956 0.87049 0.64936 0.0
H267 H 0.09296 0.91235 0.47183 0.0
H268 H 0.19594 0.81059 0.5441 0.0
H269 H 0.08203 0.9704 0.57749 0.0
H270 H 0.12826 0.87315 0.49887 0.0
H271 H 0.14836 0.90576 0.62468 0.0
C272 C 0.18221 0.86463 0.62106 0.0
C273 C 0.19635 0.83758 0.59864 0.0
C274 C 0.11804 0.89429 0.51629 0.0
C275 C 0.14912 0.87801 0.57021 0.0
C276 C 0.09781 0.91669 0.50085 0.0
C277 C 0.08475 0.94483 0.5224 0.0
C278 C 0.12553 0.90006 0.55364 0.0
C279 C 0.09171 0.94908 0.55987 0.0
C280 C 0.15862 0.88481 0.607 0.0
C281 C 0.18573 0.83122 0.56228 0.0
N282 N 0.11186 0.9271 0.57427 0.0
N283 N 0.16292 0.85135 0.54917 0.0
H284 H 0.75793 0.32147 0.89581 0.0
H285 H 0.88134 0.50906 0.97624 0.0
H286 H 0.7236 0.42549 0.89751 0.0
H287 H 0.90971 0.40336 0.98346 0.0
H288 H 0.82489 0.47948 0.94522 0.0
H289 H 0.81492 0.35152 0.9255 0.0
C290 C 0.76225 0.35064 0.90256 0.0
C291 C 0.7356 0.37087 0.89437 0.0
C292 C 0.84345 0.46275 0.95359 0.0
C293 C 0.8014 0.40567 0.92814 0.0
C294 C 0.87578 0.47962 0.97133 0.0
C295 C 0.90046 0.4587 0.98257 0.0
C296 C 0.83564 0.42462 0.94684 0.0
C297 C 0.89156 0.42065 0.97542 0.0
C298 C 0.79497 0.36782 0.9194 0.0
C299 C 0.74336 0.40877 0.90303 0.0
N300 N 0.85996 0.40488 0.958 0.0
N301 N 0.77545 0.4249 0.91953 0.0
H302 H 0.73119 0.70599 0.40986 0.0
H303 H 0.59398 0.52046 0.43739 0.0
H304 H 0.74776 0.60948 0.34257 0.0
H305 H 0.62481 0.59945 0.52794 0.0
H306 H 0.64784 0.55173 0.40024 0.0
H307 H 0.68893 0.66754 0.45141 0.0
C308 C 0.72647 0.67669 0.40396 0.0
C309 C 0.74355 0.66109 0.37261 0.0
C310 C 0.64315 0.56172 0.42846 0.0
C311 C 0.69385 0.6169 0.41986 0.0
C312 C 0.61254 0.54393 0.44966 0.0
C313 C 0.60485 0.55769 0.4856 0.0
C314 C 0.66554 0.5938 0.44321 0.0
C315 C 0.62961 0.58817 0.50022 0.0
C316 C 0.70214 0.65476 0.42775 0.0
C317 C 0.73496 0.62288 0.36602 0.0
N318 N 0.6585 0.60565 0.47872 0.0
N319 N 0.71036 0.60206 0.38929 0.0
H320 H 0.19745 0.28886 0.09133 0.0
H321 H 0.026 0.39303 0.13532 0.0
H322 H 0.15938 0.32301 0.2006 0.0
H323 H 0.08111 0.38412 0.02744 0.0
H324 H 0.06795 0.35764 0.15827 0.0
H325 H 0.14947 0.31579 0.06622 0.0
C326 C 0.17903 0.30211 0.11 0.0
C327 C 0.18232 0.30397 0.14808 0.0
C328 C 0.07065 0.36312 0.1295 0.0
C329 C 0.12731 0.33421 0.11967 0.0
C330 C 0.04655 0.38306 0.11635 0.0
C331 C 0.05043 0.39165 0.07957 0.0
C332 C 0.09872 0.35172 0.10562 0.0
C333 C 0.07742 0.37813 0.05608 0.0
C334 C 0.15164 0.31736 0.09568 0.0
C335 C 0.15778 0.3213 0.17107 0.0
N336 N 0.10084 0.35901 0.06958 0.0
N337 N 0.13121 0.3357 0.15651 0.0
H338 H 0.57201 0.27308 0.88602 0.0
H339 H 0.59767 0.08709 0.96734 0.0
H340 H 0.67993 0.24351 0.89304 0.0
H341 H 0.49032 0.1111 0.94644 0.0
H342 H 0.62861 0.14622 0.94438 0.0
H343 H 0.54167 0.21508 0.91084 0.0
C344 C 0.58936 0.25433 0.89245 0.0
C345 C 0.62867 0.26343 0.88743 0.0
C346 C 0.59827 0.13857 0.94493 0.0
C347 C 0.59404 0.19699 0.91661 0.0
C348 C 0.58064 0.10492 0.95819 0.0
C349 C 0.54143 0.09414 0.95857 0.0
C350 C 0.57645 0.16159 0.93218 0.0
C351 C 0.52066 0.11826 0.94642 0.0
C352 C 0.57201 0.22127 0.90693 0.0
C353 C 0.6496 0.23807 0.89693 0.0
N354 N 0.53838 0.15073 0.93367 0.0
N355 N 0.63208 0.20616 0.91109 0.0
H356 H 0.8876 0.77435 0.31711 0.0
H357 H 0.91384 0.90778 0.49632 0.0
H358 H 0.79608 0.78584 0.39652 0.0
H359 H 0.98259 0.93159 0.39672 0.0
H360 H 0.87396 0.85768 0.46241 0.0
H361 H 0.92625 0.82808 0.34746 0.0
C362 C 0.87545 0.78833 0.3406 0.0
C363 C 0.83862 0.77527 0.3545 0.0
C364 C 0.8977 0.874 0.44798 0.0
C365 C 0.88293 0.83598 0.38969 0.0
C366 C 0.92058 0.90241 0.46733 0.0
C367 C 0.95151 0.92381 0.44926 0.0
C368 C 0.90621 0.86656 0.41046 0.0
C369 C 0.95886 0.91581 0.41161 0.0
C370 C 0.8976 0.81884 0.35798 0.0
C371 C 0.8246 0.7943 0.38537 0.0
N372 N 0.93649 0.88755 0.39344 0.0
N373 N 0.8469 0.82344 0.40214 0.0
H374 H 0.28039 0.70388 0.62856 0.0
H375 H 0.48181 0.64491 0.60249 0.0
H376 H 0.38472 0.77309 0.65913 0.0
H377 H 0.38028 0.57515 0.56569 0.0
H378 H 0.44574 0.69183 0.62379 0.0
H379 H 0.31554 0.6565 0.60426 0.0
C380 C 0.31066 0.70924 0.62983 0.0
C381 C 0.32957 0.74233 0.64631 0.0
C382 C 0.43121 0.66628 0.61111 0.0
C383 C 0.36987 0.68828 0.61899 0.0
C384 C 0.45183 0.63942 0.59909 0.0
C385 C 0.434 0.60612 0.58238 0.0
C386 C 0.39234 0.65988 0.60646 0.0
C387 C 0.39509 0.60049 0.57852 0.0
C388 C 0.33068 0.68213 0.6162 0.0
C389 C 0.36884 0.74775 0.64735 0.0
N390 N 0.37552 0.62711 0.59045 0.0
N391 N 0.38755 0.72104 0.63412 0.0
H392 H 0.79552 0.87309 0.7535 0.0
H393 H 0.98329 0.89905 0.63156 0.0
H394 H 0.88882 0.83225 0.79003 0.0
H395 H 0.92453 0.98793 0.65863 0.0
H396 H 0.94505 0.8652 0.68076 0.0
H397 H 0.83816 0.90641 0.70789 0.0
C398 C 0.82489 0.87113 0.75216 0.0
C399 C 0.83852 0.85006 0.77616 0.0
C400 C 0.94101 0.89228 0.67596 0.0
C401 C 0.88698 0.88715 0.72299 0.0
C402 C 0.96266 0.91149 0.64809 0.0
C403 C 0.95687 0.94617 0.64123 0.0
C404 C 0.91291 0.90763 0.69596 0.0
C405 C 0.92985 0.96125 0.66318 0.0
C406 C 0.84908 0.89001 0.72596 0.0
C407 C 0.87678 0.84769 0.77195 0.0
N408 N 0.90839 0.94162 0.68923 0.0
N409 N 0.89973 0.86594 0.74572 0.0
H410 H 0.72777 0.12598 0.26598 0.0
H411 H 0.60537 0.14184 0.09919 0.0
H412 H 0.70651 0.22916 0.23682 0.0
H413 H 0.65373 0.04765 0.11161 0.0
H414 H 0.64314 0.17511 0.14856 0.0
H415 H 0.70224 0.09733 0.20863 0.0
C416 C 0.71833 0.14281 0.24733 0.0
C417 C 0.71904 0.18007 0.2566 0.0
C418 C 0.64585 0.14732 0.14014 0.0
C419 C 0.68882 0.14707 0.19104 0.0
C420 C 0.62433 0.12838 0.11198 0.0
C421 C 0.62633 0.09195 0.10154 0.0
C422 C 0.66909 0.12945 0.1582 0.0
C423 C 0.65127 0.0757 0.11895 0.0
C424 C 0.7035 0.12633 0.2146 0.0
C425 C 0.70575 0.2002 0.23136 0.0
N426 N 0.67133 0.0944 0.14671 0.0
N427 N 0.69081 0.18338 0.19998 0.0
H428 H 0.4133 0.66145 0.29449 0.0
H429 H 0.48101 0.49395 0.37423 0.0
H430 H 0.39503 0.55308 0.24088 0.0
H431 H 0.45951 0.58782 0.44266 0.0
H432 H 0.45786 0.5183 0.32206 0.0
H433 H 0.43859 0.63806 0.34616 0.0
C434 C 0.41482 0.6328 0.29349 0.0
C435 C 0.40209 0.60913 0.26334 0.0
C436 C 0.45823 0.53355 0.34852 0.0
C437 C 0.4312 0.58228 0.32218 0.0
C438 C 0.47158 0.51973 0.3783 0.0
C439 C 0.47213 0.53876 0.413 0.0
C440 C 0.44589 0.56697 0.35322 0.0
C441 C 0.45941 0.57204 0.41654 0.0
C442 C 0.4291 0.61944 0.32304 0.0
C443 C 0.40452 0.57222 0.26363 0.0
N444 N 0.44702 0.58514 0.38705 0.0
N445 N 0.41893 0.55996 0.29244 0.0
H446 H 0.14616 0.45145 0.77183 0.0
H447 H 0.02424 0.43821 0.96183 0.0
H448 H 0.08954 0.34908 0.81362 0.0
H449 H 0.09768 0.53707 0.92881 0.0
H450 H 0.04888 0.4046 0.90865 0.0
H451 H 0.12906 0.48317 0.82949 0.0
C452 C 0.13015 0.43562 0.79319 0.0
C453 C 0.119 0.39759 0.788 0.0
C454 C 0.05991 0.43356 0.91323 0.0
C455 C 0.09937 0.43372 0.85402 0.0
C456 C 0.04594 0.45271 0.94362 0.0
C457 C 0.05887 0.49044 0.94948 0.0
C458 C 0.08669 0.45242 0.88842 0.0
C459 C 0.08687 0.508 0.92509 0.0
C460 C 0.12053 0.45375 0.82618 0.0
C461 C 0.09851 0.37847 0.81663 0.0
N462 N 0.09961 0.48888 0.89536 0.0
N463 N 0.08911 0.39677 0.8484 0.0
H464 H 0.75216 0.85077 0.92588 0.0
H465 H 0.56617 0.92744 0.90805 0.0
H466 H 0.70689 0.85694 0.82143 0.0
H467 H 0.63963 0.96466 0.99664 0.0
H468 H 0.61225 0.89305 0.87904 0.0
H469 H 0.70524 0.88414 0.95583 0.0
C470 C 0.73209 0.85895 0.9094 0.0
C471 C 0.73315 0.85127 0.87127 0.0
C472 C 0.61824 0.90883 0.90478 0.0
C473 C 0.67982 0.889 0.90503 0.0
C474 C 0.59198 0.92833 0.92141 0.0
C475 C 0.59921 0.94896 0.95473 0.0
C476 C 0.65161 0.90948 0.92194 0.0
C477 C 0.63313 0.94929 0.9708 0.0
C478 C 0.70564 0.87812 0.92637 0.0
C479 C 0.70693 0.8626 0.85092 0.0
N480 N 0.65805 0.92959 0.95435 0.0
N481 N 0.68112 0.88079 0.8681 0.0
H482 H 0.8557 0.15307 0.36214 0.0
H483 H 0.90411 0.0713 0.54341 0.0
H484 H 0.81451 0.18324 0.47147 0.0
H485 H 0.97116 0.06342 0.44204 0.0
H486 H 0.8689 0.1096 0.51548 0.0
H487 H 0.89638 0.11797 0.38864 0.0
C488 C 0.85531 0.15244 0.39169 0.0
C489 C 0.83152 0.17095 0.41472 0.0
C490 C 0.8914 0.09976 0.49922 0.0
C491 C 0.87771 0.13075 0.44504 0.0
C492 C 0.91149 0.07773 0.51516 0.0
C493 C 0.94064 0.06417 0.49502 0.0
C494 C 0.9 0.10813 0.46251 0.0
C495 C 0.94897 0.07348 0.45853 0.0
C496 C 0.8786 0.13248 0.40676 0.0
C497 C 0.83231 0.16931 0.45274 0.0
N498 N 0.92852 0.09474 0.44327 0.0
N499 N 0.85474 0.1494 0.46664 0.0
H500 H 0.29211 0.59746 0.14616 0.0
H501 H 0.09274 0.6243 0.08469 0.0
H502 H 0.25941 0.70227 0.14819 0.0
H503 H 0.123 0.51894 0.08846 0.0
H504 H 0.15337 0.65328 0.1085 0.0
H505 H 0.23003 0.56812 0.12588 0.0
C506 C 0.27184 0.61432 0.14258 0.0
C507 C 0.28121 0.65247 0.14877 0.0
C508 C 0.1467 0.62381 0.10423 0.0
C509 C 0.21001 0.619 0.12512 0.0
C510 C 0.11201 0.60721 0.09063 0.0
C511 C 0.10263 0.56907 0.08446 0.0
C512 C 0.17237 0.60219 0.11167 0.0
C513 C 0.12889 0.54842 0.09272 0.0
C514 C 0.23642 0.59754 0.1308 0.0
C515 C 0.2538 0.67286 0.14317 0.0
N516 N 0.16252 0.56523 0.10576 0.0
N517 N 0.21958 0.65591 0.13163 0.0
H518 H 0.21257 0.38928 0.55806 0.0
H519 H 0.42863 0.48002 0.57862 0.0
H520 H 0.26147 0.43061 0.66083 0.0
H521 H 0.38559 0.4238 0.4784 0.0
H522 H 0.36478 0.47245 0.60614 0.0
H523 H 0.27282 0.41238 0.52565 0.0
C524 C 0.23578 0.40363 0.57377 0.0
C525 C 0.2321 0.40748 0.6123 0.0
C526 C 0.36916 0.46195 0.57804 0.0
C527 C 0.30087 0.43404 0.57543 0.0
C528 C 0.40561 0.46627 0.56231 0.0
C529 C 0.41226 0.45226 0.52631 0.0
C530 C 0.33912 0.44315 0.55773 0.0
C531 C 0.38153 0.43469 0.50639 0.0
C532 C 0.27011 0.41683 0.55525 0.0
C533 C 0.26284 0.42706 0.63116 0.0
N534 N 0.34618 0.43036 0.52249 0.0
N535 N 0.29602 0.4392 0.61257 0.0
H536 H 0.89104 0.70252 0.82761 0.0
H537 H 0.90709 0.6309 0.02295 0.0
H538 H 0.81467 0.72002 0.9202 0.0
H539 H 0.99864 0.6454 0.94026 0.0
H540 H 0.8723 0.6636 0.98659 0.0
H541 H 0.92981 0.67928 0.86843 0.0
C542 C 0.88242 0.70126 0.85653 0.0
C543 C 0.84974 0.71304 0.87061 0.0
C544 C 0.90025 0.66011 0.97672 0.0
C545 C 0.89375 0.68683 0.9174 0.0
C546 C 0.92013 0.64165 0.99751 0.0
C547 C 0.95554 0.6353 0.98431 0.0
C548 C 0.91585 0.67171 0.94241 0.0
C549 C 0.97127 0.64962 0.95124 0.0
C550 C 0.90464 0.68835 0.87984 0.0
C551 C 0.83975 0.71117 0.90827 0.0
N552 N 0.95106 0.66673 0.93111 0.0
N553 N 0.86162 0.6981 0.9304 0.0
H554 H 0.37496 0.74218 0.08608 0.0
H555 H 0.50295 0.93912 0.12926 0.0
H556 H 0.4124 0.78369 0.19335 0.0
H557 H 0.45701 0.90636 0.02369 0.0
H558 H 0.47001 0.88156 0.15217 0.0
H559 H 0.40462 0.80084 0.06193 0.0
C560 C 0.38921 0.76361 0.10466 0.0
C561 C 0.39111 0.75776 0.14195 0.0
C562 C 0.46684 0.88679 0.12402 0.0
C563 C 0.42554 0.82501 0.11417 0.0
C564 C 0.4857 0.91977 0.11086 0.0
C565 C 0.48272 0.92757 0.07449 0.0
C566 C 0.44483 0.86091 0.10064 0.0
C567 C 0.45993 0.90143 0.05196 0.0
C568 C 0.40627 0.79708 0.09074 0.0
C569 C 0.41059 0.7865 0.16438 0.0
N570 N 0.44196 0.8691 0.06536 0.0
N571 N 0.42697 0.81869 0.15016 0.0
H572 H 0.1979 0.28082 0.60972 0.0
H573 H 0.03393 0.10567 0.61279 0.0
H574 H 0.08542 0.28744 0.65283 0.0
H575 H 0.11917 0.12221 0.5241 0.0
H576 H 0.05933 0.16718 0.63961 0.0
H577 H 0.17542 0.21714 0.58926 0.0
C578 C 0.16843 0.26908 0.61471 0.0
C579 C 0.14339 0.2899 0.6325 0.0
C580 C 0.07255 0.15705 0.61447 0.0
C581 C 0.11804 0.21654 0.61039 0.0
C582 C 0.05835 0.12202 0.59936 0.0
C583 C 0.07451 0.10911 0.5662 0.0
C584 C 0.10354 0.1787 0.59664 0.0
C585 C 0.10582 0.13137 0.5496 0.0
C586 C 0.15579 0.23263 0.60332 0.0
C587 C 0.10582 0.27253 0.63943 0.0
N588 N 0.11943 0.16512 0.56507 0.0
N589 N 0.09425 0.23678 0.62835 0.0
H590 H 0.74575 0.30313 0.38518 0.0
H591 H 0.53995 0.35168 0.41766 0.0
H592 H 0.64384 0.23061 0.35312 0.0
H593 H 0.64095 0.42697 0.44741 0.0
H594 H 0.57787 0.30644 0.39543 0.0
H595 H 0.70819 0.34787 0.411 0.0
C596 C 0.71548 0.29647 0.38395 0.0
C597 C 0.69796 0.26323 0.36666 0.0
C598 C 0.59185 0.33285 0.40675 0.0
C599 C 0.65485 0.31434 0.39573 0.0
C600 C 0.57017 0.35872 0.41933 0.0
C601 C 0.58737 0.39312 0.43426 0.0
C602 C 0.63108 0.34136 0.40914 0.0
C603 C 0.62662 0.40076 0.43596 0.0
C604 C 0.69407 0.3221 0.39842 0.0
C605 C 0.65862 0.25613 0.36562 0.0
N606 N 0.64717 0.37509 0.42358 0.0
N607 N 0.6385 0.28146 0.37976 0.0
loop_
_geom_bond_atom_site_label_1
_geom_bond_atom_site_label_2
_geom_bond_distance
_geom_bond_site_symmetry_2
_ccdc_geom_bond_type
H0 C5 0.930 . S
H1 C8 0.930 . S
H2 C10 0.930 . S
H3 C4 1.016 . S
C4 H3 1.016 . S
C4 N11 1.286 . S
C5 H0 0.930 . S
C5 C6 1.397 . S
C5 C7 1.361 . S
C6 C5 1.397 . S
C6 C10 1.390 . S
C7 C5 1.361 . S
C7 C8 1.393 . S
C7 N11 1.413 . S
C8 H1 0.930 . S
C8 C7 1.393 . S
C8 C9 1.399 . S
C9 C8 1.399 . S
C9 C10 1.381 . S
C10 H2 0.930 . S
C10 C6 1.390 . S
C10 C9 1.381 . S
N11 C4 1.286 . S
N11 C7 1.413 . S
H12 C17 0.930 . S
H13 C20 0.930 . S
H14 C22 0.930 . S
H15 C16 1.016 . S
C16 H15 1.016 . S
C16 N23 1.286 . S
C17 H12 0.930 . S
C17 C18 1.397 . S
C17 C19 1.361 . S
C18 C17 1.397 . S
C18 C22 1.390 . S
C19 C17 1.361 . S
C19 C20 1.393 . S
C19 N23 1.413 . S
C20 H13 0.930 . S
C20 C19 1.393 . S
C20 C21 1.399 . S
C21 C20 1.399 . S
C21 C22 1.381 . S
C22 H14 0.930 . S
C22 C18 1.390 . S
C22 C21 1.381 . S
N23 C16 1.286 . S
N23 C19 1.413 . S
H24 C29 0.930 . S
H25 C32 0.930 . S
H26 C34 0.930 . S
H27 C28 1.016 . S
C28 H27 1.016 . S
C28 N35 1.286 . S
C29 H24 0.930 . S
C29 C30 1.397 . S
C29 C31 1.361 . S
C30 C29 1.397 . S
C30 C34 1.390 . S
C31 C29 1.361 . S
C31 C32 1.393 . S
C31 N35 1.413 . S
C32 H25 0.930 . S
C32 C31 1.393 . S
C32 C33 1.399 . S
C33 C32 1.399 . S
C33 C34 1.381 . S
C34 H26 0.930 . S
C34 C30 1.390 . S
C34 C33 1.381 . S
N35 C28 1.286 . S
N35 C31 1.413 . S
H36 C41 0.930 . S
H37 C44 0.930 . S
H38 C46 0.930 . S
H39 C40 1.016 . S
C40 H39 1.016 . S
C40 N47 1.286 . S
C41 H36 0.930 . S
C41 C42 1.397 . S
C41 C43 1.361 . S
C42 C41 1.397 . S
C42 C46 1.390 . S
C43 C41 1.361 . S
C43 C44 1.393 . S
C43 N47 1.413 . S
C44 H37 0.930 . S
C44 C43 1.393 . S
C44 C45 1.399 . S
C45 C44 1.399 . S
C45 C46 1.381 . S
C46 H38 0.930 . S
C46 C42 1.390 . S
C46 C45 1.381 . S
N47 C40 1.286 . S
N47 C43 1.413 . S
H48 C53 0.930 . S
H49 C56 0.930 . S
H50 C58 0.930 . S
H51 C52 1.016 . S
C52 H51 1.016 . S
C52 N59 1.286 . S
C53 H48 0.930 . S
C53 C54 1.397 . S
C53 C55 1.361 . S
C54 C53 1.397 . S
C54 C58 1.390 . S
C55 C53 1.361 . S
C55 C56 1.393 . S
C55 N59 1.413 . S
C56 H49 0.930 . S
C56 C55 1.393 . S
C56 C57 1.399 . S
C57 C56 1.399 . S
C57 C58 1.381 . S
C58 H50 0.930 . S
C58 C54 1.390 . S
C58 C57 1.381 . S
N59 C52 1.286 . S
N59 C55 1.413 . S
H60 C65 0.930 . S
H61 C68 0.930 . S
H62 C70 0.930 . S
H63 C64 1.016 . S
C64 H63 1.016 . S
C64 N71 1.286 . S
C65 H60 0.930 . S
C65 C66 1.397 . S
C65 C67 1.361 . S
C66 C65 1.397 . S
C66 C70 1.390 . S
C67 C65 1.361 . S
C67 C68 1.393 . S
C67 N71 1.413 . S
C68 H61 0.930 . S
C68 C67 1.393 . S
C68 C69 1.399 . S
C69 C68 1.399 . S
C69 C70 1.381 . S
C70 H62 0.930 . S
C70 C66 1.390 . S
C70 C69 1.381 . S
N71 C64 1.286 . S
N71 C67 1.413 . S
H72 C77 0.930 . S
H73 C80 0.930 . S
H74 C82 0.930 . S
H75 C76 1.016 . S
C76 H75 1.016 . S
C76 N83 1.286 . S
C77 H72 0.930 . S
C77 C78 1.397 . S
C77 C79 1.361 . S
C78 C77 1.397 . S
C78 C82 1.390 . S
C79 C77 1.361 . S
C79 C80 1.393 . S
C79 N83 1.413 . S
C80 H73 0.930 . S
C80 C79 1.393 . S
C80 C81 1.399 . S
C81 C80 1.399 . S
C81 C82 1.381 . S
C82 H74 0.930 . S
C82 C78 1.390 . S
C82 C81 1.381 . S
N83 C76 1.286 . S
N83 C79 1.413 . S
H84 C89 0.930 . S
H85 C92 0.930 . S
H86 C94 0.930 . S
H87 C88 1.016 . S
C88 H87 1.016 . S
C88 N95 1.286 . S
C89 H84 0.930 . S
C89 C90 1.397 . S
C89 C91 1.361 . S
C90 C89 1.397 . S
C90 C94 1.390 . S
C91 C89 1.361 . S
C91 C92 1.393 . S
C91 N95 1.413 . S
C92 H85 0.930 . S
C92 C91 1.393 . S
C92 C93 1.399 . S
C93 C92 1.399 . S
C93 C94 1.381 . S
C94 H86 0.930 . S
C94 C90 1.390 . S
C94 C93 1.381 . S
N95 C88 1.286 . S
N95 C91 1.413 . S
Dy96 O100 2.398 . S
Dy96 O101 2.491 . S
Dy96 O102 2.403 1_545 S
Dy96 O103 2.664 1_545 S
Dy96 O107 2.326 . S
Dy96 O111 2.310 1_455 S
Dy96 O112 2.351 1_445 S
C97 O108 1.185 . S
C97 O109 1.355 . S
C98 O100 1.185 . S
C98 O101 1.355 . S
Dy99 O103 2.310 1_655 S
Dy99 O106 2.351 1_665 S
Dy99 O108 2.398 . S
Dy99 O109 2.491 . S
Dy99 O110 2.403 1_565 S
Dy99 O111 2.664 1_565 S
Dy99 O113 2.326 . S
O100 Dy96 2.398 . S
O100 C98 1.185 . S
O101 Dy96 2.491 . S
O101 C98 1.355 . S
O102 Dy96 2.403 1_565 S
O102 C104 1.254 . S
O103 Dy96 2.664 1_565 S
O103 Dy99 2.310 1_455 S
O103 C104 1.268 . S
C104 O102 1.254 . S
C104 O103 1.268 . S
C105 O110 1.254 . S
C105 O111 1.268 . S
O106 Dy99 2.351 1_445 S
O106 C114 1.249 . S
O107 Dy96 2.326 . S
O107 C114 1.267 . S
O108 C97 1.185 . S
O108 Dy99 2.398 . S
O109 C97 1.355 . S
O109 Dy99 2.491 . S
O110 Dy99 2.403 1_545 S
O110 C105 1.254 . S
O111 Dy96 2.310 1_655 S
O111 Dy99 2.664 1_545 S
O111 C105 1.268 . S
O112 Dy96 2.351 1_665 S
O112 C115 1.249 . S
O113 Dy99 2.326 . S
O113 C115 1.267 . S
C114 O106 1.249 . S
C114 O107 1.267 . S
C115 O112 1.249 . S
C115 O113 1.267 . S
Dy116 O120 2.398 . S
Dy116 O121 2.491 . S
Dy116 O122 2.403 1_545 S
Dy116 O123 2.664 1_545 S
Dy116 O127 2.326 . S
Dy116 O131 2.310 . S
Dy116 O132 2.351 1_544 S
C117 O128 1.185 . S
C117 O129 1.355 . S
C118 O120 1.185 . S
C118 O121 1.355 . S
Dy119 O123 2.310 1_546 S
Dy119 O126 2.351 1_556 S
Dy119 O128 2.398 1_545 S
Dy119 O129 2.491 1_545 S
Dy119 O130 2.403 . S
Dy119 O131 2.664 1_556 S
Dy119 O133 2.326 1_545 S
O120 Dy116 2.398 . S
O120 C118 1.185 . S
O121 Dy116 2.491 . S
O121 C118 1.355 . S
O122 Dy116 2.403 1_565 S
O122 C124 1.254 . S
O123 Dy116 2.664 1_565 S
O123 Dy119 2.310 1_564 S
O123 C124 1.268 . S
C124 O122 1.254 . S
C124 O123 1.268 . S
C125 O130 1.254 . S
C125 O131 1.268 1_556 S
O126 Dy119 2.351 1_554 S
O126 C134 1.249 . S
O127 Dy116 2.326 . S
O127 C134 1.267 . S
O128 C117 1.185 . S
O128 Dy119 2.398 1_565 S
O129 C117 1.355 . S
O129 Dy119 2.491 1_565 S
O130 Dy119 2.403 . S
O130 C125 1.254 . S
O131 Dy116 2.310 . S
O131 Dy119 2.664 1_554 S
O131 C125 1.268 1_554 S
O132 Dy116 2.351 1_566 S
O132 C135 1.249 . S
O133 Dy119 2.326 1_565 S
O133 C135 1.267 . S
C134 O126 1.249 . S
C134 O127 1.267 . S
C135 O132 1.249 . S
C135 O133 1.267 . S
Dy136 O140 2.398 . S
Dy136 O141 2.491 . S
Dy136 O142 2.403 . S
Dy136 O143 2.664 . S
Dy136 O147 2.326 . S
Dy136 O151 2.310 . S
Dy136 O152 2.351 . S
C137 O148 1.185 . S
C137 O149 1.355 . S
C138 O140 1.185 . S
C138 O141 1.355 . S
Dy139 O143 2.310 . S
Dy139 O146 2.351 . S
Dy139 O148 2.398 . S
Dy139 O149 2.491 . S
Dy139 O150 2.403 . S
Dy139 O151 2.664 . S
Dy139 O153 2.326 . S
O140 Dy136 2.398 . S
O140 C138 1.185 . S
O141 Dy136 2.491 . S
O141 C138 1.355 . S
O142 Dy136 2.403 . S
O142 C144 1.254 . S
O143 Dy136 2.664 . S
O143 Dy139 2.310 . S
O143 C144 1.268 . S
C144 O142 1.254 . S
C144 O143 1.268 . S
C145 O150 1.254 . S
C145 O151 1.268 . S
O146 Dy139 2.351 . S
O146 C154 1.249 . S
O147 Dy136 2.326 . S
O147 C154 1.267 . S
O148 C137 1.185 . S
O148 Dy139 2.398 . S
O149 C137 1.355 . S
O149 Dy139 2.491 . S
O150 Dy139 2.403 . S
O150 C145 1.254 . S
O151 Dy136 2.310 . S
O151 Dy139 2.664 . S
O151 C145 1.268 . S
O152 Dy136 2.351 . S
O152 C155 1.249 . S
O153 Dy139 2.326 . S
O153 C155 1.267 . S
C154 O146 1.249 . S
C154 O147 1.267 . S
C155 O152 1.249 . S
C155 O153 1.267 . S
Dy156 O160 2.398 . S
Dy156 O161 2.491 . S
Dy156 O162 2.403 1_455 S
Dy156 O163 2.664 1_455 S
Dy156 O167 2.326 . S
Dy156 O171 2.310 1_554 S
Dy156 O172 2.338 1_454 S
C157 O168 1.185 . S
C157 O169 1.355 . S
C158 O160 1.185 . S
C158 O161 1.355 . S
Dy159 O163 2.310 1_456 S
Dy159 O166 2.351 1_556 S
Dy159 O168 2.398 1_455 S
Dy159 O169 2.491 1_455 S
Dy159 O170 2.403 . S
Dy159 O171 2.664 . S
Dy159 O173 2.326 1_455 S
O160 Dy156 2.398 . S
O160 C158 1.185 . S
O161 Dy156 2.491 . S
O161 C158 1.355 . S
O162 Dy156 2.403 1_655 S
O162 C164 1.254 . S
O163 Dy156 2.664 1_655 S
O163 Dy159 2.310 1_654 S
O163 C164 1.268 . S
C164 O162 1.254 . S
C164 O163 1.268 . S
C165 O170 1.254 . S
C165 O171 1.268 . S
O166 Dy159 2.351 1_554 S
O166 C174 1.249 . S
O167 Dy156 2.326 . S
O167 C174 1.267 . S
O168 C157 1.185 . S
O168 Dy159 2.398 1_655 S
O169 C157 1.355 . S
O169 Dy159 2.491 1_655 S
O170 Dy159 2.403 . S
O170 C165 1.254 . S
O171 Dy156 2.310 1_556 S
O171 Dy159 2.664 . S
O171 C165 1.268 . S
O172 Dy156 2.338 1_656 S
O172 C175 1.266 . S
O173 Dy159 2.326 1_655 S
O173 C175 1.267 . S
C174 O166 1.249 . S
C174 O167 1.267 . S
C175 O172 1.266 . S
C175 O173 1.267 . S
H176 C182 0.930 . S
H177 C186 0.930 . S
H178 C191 0.929 . S
H179 C189 0.929 . S
H180 C184 0.929 . S
H181 C190 0.929 . S
C182 H176 0.930 . S
C182 C183 1.367 . S
C182 C190 1.378 . S
C183 C182 1.367 . S
C183 C191 1.433 . S
C184 H180 0.929 . S
C184 C186 1.378 . S
C184 C188 1.350 . S
C185 C188 1.463 . S
C185 C190 1.350 . S
C185 N193 1.427 . S
C186 H177 0.930 . S
C186 C184 1.378 . S
C186 C187 1.367 . S
C187 C186 1.367 . S
C187 C189 1.433 . S
C188 C184 1.350 . S
C188 C185 1.463 . S
C188 N192 1.427 . S
C189 H179 0.929 . S
C189 C187 1.433 . S
C189 N192 1.384 . S
C190 H181 0.929 . S
C190 C182 1.378 . S
C190 C185 1.350 . S
C191 H178 0.929 . S
C191 C183 1.433 . S
C191 N193 1.384 . S
N192 C188 1.427 . S
N192 C189 1.384 . S
N193 C185 1.427 . S
N193 C191 1.384 . S
H194 C200 0.930 . S
H195 C204 0.930 . S
H196 C209 0.929 . S
H197 C207 0.929 . S
H198 C202 0.929 . S
H199 C208 0.929 . S
C200 H194 0.930 . S
C200 C201 1.367 . S
C200 C208 1.378 . S
C201 C200 1.367 . S
C201 C209 1.433 . S
C202 H198 0.929 . S
C202 C204 1.378 . S
C202 C206 1.350 . S
C203 C206 1.463 . S
C203 C208 1.350 . S
C203 N211 1.427 . S
C204 H195 0.930 . S
C204 C202 1.378 . S
C204 C205 1.367 . S
C205 C204 1.367 . S
C205 C207 1.433 . S
C206 C202 1.350 . S
C206 C203 1.463 . S
C206 N210 1.427 . S
C207 H197 0.929 . S
C207 C205 1.433 . S
C207 N210 1.384 . S
C208 H199 0.929 . S
C208 C200 1.378 . S
C208 C203 1.350 . S
C209 H196 0.929 . S
C209 C201 1.433 . S
C209 N211 1.384 . S
N210 C206 1.427 . S
N210 C207 1.384 . S
N211 C203 1.427 . S
N211 C209 1.384 . S
H212 C218 0.930 . S
H213 C222 0.930 . S
H214 C227 0.929 . S
H215 C225 0.929 . S
H216 C220 0.929 . S
H217 C226 0.929 . S
C218 H212 0.930 . S
C218 C219 1.367 . S
C218 C226 1.378 . S
C219 C218 1.367 . S
C219 C227 1.433 . S
C220 H216 0.929 . S
C220 C222 1.378 . S
C220 C224 1.350 . S
C221 C224 1.463 . S
C221 C226 1.350 . S
C221 N229 1.427 . S
C222 H213 0.930 . S
C222 C220 1.378 . S
C222 C223 1.367 . S
C223 C222 1.367 . S
C223 C225 1.433 . S
C224 C220 1.350 . S
C224 C221 1.463 . S
C224 N228 1.427 . S
C225 H215 0.929 . S
C225 C223 1.433 . S
C225 N228 1.384 . S
C226 H217 0.929 . S
C226 C218 1.378 . S
C226 C221 1.350 . S
C227 H214 0.929 . S
C227 C219 1.433 . S
C227 N229 1.384 . S
N228 C224 1.427 . S
N228 C225 1.384 . S
N229 C221 1.427 . S
N229 C227 1.384 . S
H230 C236 0.930 . S
H231 C240 0.930 . S
H232 C245 0.929 . S
H233 C243 0.929 1_455 S
H234 C238 0.929 . S
H235 C244 0.929 . S
C236 H230 0.930 . S
C236 C237 1.367 . S
C236 C244 1.378 . S
C237 C236 1.367 . S
C237 C245 1.433 . S
C238 H234 0.929 . S
C238 C240 1.378 . S
C238 C242 1.350 . S
C239 C242 1.463 . S
C239 C244 1.350 . S
C239 N247 1.427 . S
C240 H231 0.930 . S
C240 C238 1.378 . S
C240 C241 1.367 . S
C241 C240 1.367 . S
C241 C243 1.433 . S
C242 C238 1.350 . S
C242 C239 1.463 . S
C242 N246 1.427 . S
C243 H233 0.929 1_655 S
C243 C241 1.433 . S
C243 N246 1.384 . S
C244 H235 0.929 . S
C244 C236 1.378 . S
C244 C239 1.350 . S
C245 H232 0.929 . S
C245 C237 1.433 . S
C245 N247 1.384 . S
N246 C242 1.427 . S
N246 C243 1.384 . S
N247 C239 1.427 . S
N247 C245 1.384 . S
H248 C254 0.930 . S
H249 C258 0.930 . S
H250 C263 0.929 . S
H251 C261 0.929 . S
H252 C256 0.929 . S
H253 C262 0.929 . S
C254 H248 0.930 . S
C254 C255 1.367 . S
C254 C262 1.378 . S
C255 C254 1.367 . S
C255 C263 1.433 . S
C256 H252 0.929 . S
C256 C258 1.378 . S
C256 C260 1.350 . S
C257 C260 1.463 . S
C257 C262 1.350 . S
C257 N265 1.427 . S
C258 H249 0.930 . S
C258 C256 1.378 . S
C258 C259 1.367 . S
C259 C258 1.367 . S
C259 C261 1.433 . S
C260 C256 1.350 . S
C260 C257 1.463 . S
C260 N264 1.427 . S
C261 H251 0.929 . S
C261 C259 1.433 . S
C261 N264 1.384 . S
C262 H253 0.929 . S
C262 C254 1.378 . S
C262 C257 1.350 . S
C263 H250 0.929 . S
C263 C255 1.433 . S
C263 N265 1.384 . S
N264 C260 1.427 . S
N264 C261 1.384 . S
N265 C257 1.427 . S
N265 C263 1.384 . S
H266 C272 0.930 . S
H267 C276 0.930 . S
H268 C281 0.929 . S
H269 C279 0.929 . S
H270 C274 0.929 . S
H271 C280 0.929 . S
C272 H266 0.930 . S
C272 C273 1.367 . S
C272 C280 1.378 . S
C273 C272 1.367 . S
C273 C281 1.433 . S
C274 H270 0.929 . S
C274 C276 1.378 . S
C274 C278 1.350 . S
C275 C278 1.463 . S
C275 C280 1.350 . S
C275 N283 1.427 . S
C276 H267 0.930 . S
C276 C274 1.378 . S
C276 C277 1.367 . S
C277 C276 1.367 . S
C277 C279 1.433 . S
C278 C274 1.350 . S
C278 C275 1.463 . S
C278 N282 1.427 . S
C279 H269 0.929 . S
C279 C277 1.433 . S
C279 N282 1.384 . S
C280 H271 0.929 . S
C280 C272 1.378 . S
C280 C275 1.350 . S
C281 H268 0.929 . S
C281 C273 1.433 . S
C281 N283 1.384 . S
N282 C278 1.427 . S
N282 C279 1.384 . S
N283 C275 1.427 . S
N283 C281 1.384 . S
H284 C290 0.930 . S
H285 C294 0.930 . S
H286 C299 0.929 . S
H287 C297 0.929 . S
H288 C292 0.929 . S
H289 C298 0.929 . S
C290 H284 0.930 . S
C290 C291 1.367 . S
C290 C298 1.378 . S
C291 C290 1.367 . S
C291 C299 1.433 . S
C292 H288 0.929 . S
C292 C294 1.378 . S
C292 C296 1.350 . S
C293 C296 1.463 . S
C293 C298 1.350 . S
C293 N301 1.427 . S
C294 H285 0.930 . S
C294 C292 1.378 . S
C294 C295 1.367 . S
C295 C294 1.367 . S
C295 C297 1.433 . S
C296 C292 1.350 . S
C296 C293 1.463 . S
C296 N300 1.427 . S
C297 H287 0.929 . S
C297 C295 1.433 . S
C297 N300 1.384 . S
C298 H289 0.929 . S
C298 C290 1.378 . S
C298 C293 1.350 . S
C299 H286 0.929 . S
C299 C291 1.433 . S
C299 N301 1.384 . S
N300 C296 1.427 . S
N300 C297 1.384 . S
N301 C293 1.427 . S
N301 C299 1.384 . S
H302 C308 0.930 . S
H303 C312 0.930 . S
H304 C317 0.929 . S
H305 C315 0.929 . S
H306 C310 0.929 . S
H307 C316 0.929 . S
C308 H302 0.930 . S
C308 C309 1.367 . S
C308 C316 1.378 . S
C309 C308 1.367 . S
C309 C317 1.433 . S
C310 H306 0.929 . S
C310 C312 1.378 . S
C310 C314 1.350 . S
C311 C314 1.463 . S
C311 C316 1.350 . S
C311 N319 1.427 . S
C312 H303 0.930 . S
C312 C310 1.378 . S
C312 C313 1.367 . S
C313 C312 1.367 . S
C313 C315 1.433 . S
C314 C310 1.350 . S
C314 C311 1.463 . S
C314 N318 1.427 . S
C315 H305 0.929 . S
C315 C313 1.433 . S
C315 N318 1.384 . S
C316 H307 0.929 . S
C316 C308 1.378 . S
C316 C311 1.350 . S
C317 H304 0.929 . S
C317 C309 1.433 . S
C317 N319 1.384 . S
N318 C314 1.427 . S
N318 C315 1.384 . S
N319 C311 1.427 . S
N319 C317 1.384 . S
H320 C326 0.930 . S
H321 C330 0.930 . S
H322 C335 0.929 . S
H323 C333 0.929 . S
H324 C328 0.929 . S
H325 C334 0.929 . S
C326 H320 0.930 . S
C326 C327 1.367 . S
C326 C334 1.378 . S
C327 C326 1.367 . S
C327 C335 1.433 . S
C328 H324 0.929 . S
C328 C330 1.378 . S
C328 C332 1.350 . S
C329 C332 1.463 . S
C329 C334 1.350 . S
C329 N337 1.427 . S
C330 H321 0.930 . S
C330 C328 1.378 . S
C330 C331 1.367 . S
C331 C330 1.367 . S
C331 C333 1.433 . S
C332 C328 1.350 . S
C332 C329 1.463 . S
C332 N336 1.427 . S
C333 H323 0.929 . S
C333 C331 1.433 . S
C333 N336 1.384 . S
C334 H325 0.929 . S
C334 C326 1.378 . S
C334 C329 1.350 . S
C335 H322 0.929 . S
C335 C327 1.433 . S
C335 N337 1.384 . S
N336 C332 1.427 . S
N336 C333 1.384 . S
N337 C329 1.427 . S
N337 C335 1.384 . S
H338 C344 0.930 . S
H339 C348 0.930 . S
H340 C353 0.929 . S
H341 C351 0.929 . S
H342 C346 0.929 . S
H343 C352 0.929 . S
C344 H338 0.930 . S
C344 C345 1.367 . S
C344 C352 1.378 . S
C345 C344 1.367 . S
C345 C353 1.433 . S
C346 H342 0.929 . S
C346 C348 1.378 . S
C346 C350 1.350 . S
C347 C350 1.463 . S
C347 C352 1.350 . S
C347 N355 1.427 . S
C348 H339 0.930 . S
C348 C346 1.378 . S
C348 C349 1.367 . S
C349 C348 1.367 . S
C349 C351 1.433 . S
C350 C346 1.350 . S
C350 C347 1.463 . S
C350 N354 1.427 . S
C351 H341 0.929 . S
C351 C349 1.433 . S
C351 N354 1.384 . S
C352 H343 0.929 . S
C352 C344 1.378 . S
C352 C347 1.350 . S
C353 H340 0.929 . S
C353 C345 1.433 . S
C353 N355 1.384 . S
N354 C350 1.427 . S
N354 C351 1.384 . S
N355 C347 1.427 . S
N355 C353 1.384 . S
H356 C362 0.930 . S
H357 C366 0.930 . S
H358 C371 0.929 . S
H359 C369 0.929 1_455 S
H360 C364 0.929 . S
H361 C370 0.929 . S
C362 H356 0.930 . S
C362 C363 1.367 . S
C362 C370 1.378 . S
C363 C362 1.367 . S
C363 C371 1.433 . S
C364 H360 0.929 . S
C364 C366 1.378 . S
C364 C368 1.350 . S
C365 C368 1.463 . S
C365 C370 1.350 . S
C365 N373 1.427 . S
C366 H357 0.930 . S
C366 C364 1.378 . S
C366 C367 1.367 . S
C367 C366 1.367 . S
C367 C369 1.433 . S
C368 C364 1.350 . S
C368 C365 1.463 . S
C368 N372 1.427 . S
C369 H359 0.929 1_655 S
C369 C367 1.433 . S
C369 N372 1.384 . S
C370 H361 0.929 . S
C370 C362 1.378 . S
C370 C365 1.350 . S
C371 H358 0.929 . S
C371 C363 1.433 . S
C371 N373 1.384 . S
N372 C368 1.427 . S
N372 C369 1.384 . S
N373 C365 1.427 . S
N373 C371 1.384 . S
H374 C380 0.930 . S
H375 C384 0.930 . S
H376 C389 0.929 . S
H377 C387 0.929 . S
H378 C382 0.929 . S
H379 C388 0.929 . S
C380 H374 0.930 . S
C380 C381 1.367 . S
C380 C388 1.378 . S
C381 C380 1.367 . S
C381 C389 1.433 . S
C382 H378 0.929 . S
C382 C384 1.378 . S
C382 C386 1.350 . S
C383 C386 1.463 . S
C383 C388 1.350 . S
C383 N391 1.427 . S
C384 H375 0.930 . S
C384 C382 1.378 . S
C384 C385 1.367 . S
C385 C384 1.367 . S
C385 C387 1.433 . S
C386 C382 1.350 . S
C386 C383 1.463 . S
C386 N390 1.427 . S
C387 H377 0.929 . S
C387 C385 1.433 . S
C387 N390 1.384 . S
C388 H379 0.929 . S
C388 C380 1.378 . S
C388 C383 1.350 . S
C389 H376 0.929 . S
C389 C381 1.433 . S
C389 N391 1.384 . S
N390 C386 1.427 . S
N390 C387 1.384 . S
N391 C383 1.427 . S
N391 C389 1.384 . S
H392 C398 0.930 . S
H393 C402 0.930 . S
H394 C407 0.929 . S
H395 C405 0.929 . S
H396 C400 0.929 . S
H397 C406 0.929 . S
C398 H392 0.930 . S
C398 C399 1.367 . S
C398 C406 1.378 . S
C399 C398 1.367 . S
C399 C407 1.433 . S
C400 H396 0.929 . S
C400 C402 1.378 . S
C400 C404 1.350 . S
C401 C404 1.463 . S
C401 C406 1.350 . S
C401 N409 1.427 . S
C402 H393 0.930 . S
C402 C400 1.378 . S
C402 C403 1.367 . S
C403 C402 1.367 . S
C403 C405 1.433 . S
C404 C400 1.350 . S
C404 C401 1.463 . S
C404 N408 1.427 . S
C405 H395 0.929 . S
C405 C403 1.433 . S
C405 N408 1.384 . S
C406 H397 0.929 . S
C406 C398 1.378 . S
C406 C401 1.350 . S
C407 H394 0.929 . S
C407 C399 1.433 . S
C407 N409 1.384 . S
N408 C404 1.427 . S
N408 C405 1.384 . S
N409 C401 1.427 . S
N409 C407 1.384 . S
H410 C416 0.930 . S
H411 C420 0.930 . S
H412 C425 0.929 . S
H413 C423 0.929 . S
H414 C418 0.929 . S
H415 C424 0.929 . S
C416 H410 0.930 . S
C416 C417 1.367 . S
C416 C424 1.378 . S
C417 C416 1.367 . S
C417 C425 1.433 . S
C418 H414 0.929 . S
C418 C420 1.378 . S
C418 C422 1.350 . S
C419 C422 1.463 . S
C419 C424 1.350 . S
C419 N427 1.427 . S
C420 H411 0.930 . S
C420 C418 1.378 . S
C420 C421 1.367 . S
C421 C420 1.367 . S
C421 C423 1.433 . S
C422 C418 1.350 . S
C422 C419 1.463 . S
C422 N426 1.427 . S
C423 H413 0.929 . S
C423 C421 1.433 . S
C423 N426 1.384 . S
C424 H415 0.929 . S
C424 C416 1.378 . S
C424 C419 1.350 . S
C425 H412 0.929 . S
C425 C417 1.433 . S
C425 N427 1.384 . S
N426 C422 1.427 . S
N426 C423 1.384 . S
N427 C419 1.427 . S
N427 C425 1.384 . S
H428 C434 0.930 . S
H429 C438 0.930 . S
H430 C443 0.929 . S
H431 C441 0.929 . S
H432 C436 0.929 . S
H433 C442 0.929 . S
C434 H428 0.930 . S
C434 C435 1.367 . S
C434 C442 1.378 . S
C435 C434 1.367 . S
C435 C443 1.433 . S
C436 H432 0.929 . S
C436 C438 1.378 . S
C436 C440 1.350 . S
C437 C440 1.463 . S
C437 C442 1.350 . S
C437 N445 1.427 . S
C438 H429 0.930 . S
C438 C436 1.378 . S
C438 C439 1.367 . S
C439 C438 1.367 . S
C439 C441 1.433 . S
C440 C436 1.350 . S
C440 C437 1.463 . S
C440 N444 1.427 . S
C441 H431 0.929 . S
C441 C439 1.433 . S
C441 N444 1.384 . S
C442 H433 0.929 . S
C442 C434 1.378 . S
C442 C437 1.350 . S
C443 H430 0.929 . S
C443 C435 1.433 . S
C443 N445 1.384 . S
N444 C440 1.427 . S
N444 C441 1.384 . S
N445 C437 1.427 . S
N445 C443 1.384 . S
H446 C452 0.930 . S
H447 C456 0.930 . S
H448 C461 0.929 . S
H449 C459 0.929 . S
H450 C454 0.929 . S
H451 C460 0.929 . S
C452 H446 0.930 . S
C452 C453 1.367 . S
C452 C460 1.378 . S
C453 C452 1.367 . S
C453 C461 1.433 . S
C454 H450 0.929 . S
C454 C456 1.378 . S
C454 C458 1.350 . S
C455 C458 1.463 . S
C455 C460 1.350 . S
C455 N463 1.427 . S
C456 H447 0.930 . S
C456 C454 1.378 . S
C456 C457 1.367 . S
C457 C456 1.367 . S
C457 C459 1.433 . S
C458 C454 1.350 . S
C458 C455 1.463 . S
C458 N462 1.427 . S
C459 H449 0.929 . S
C459 C457 1.433 . S
C459 N462 1.384 . S
C460 H451 0.929 . S
C460 C452 1.378 . S
C460 C455 1.350 . S
C461 H448 0.929 . S
C461 C453 1.433 . S
C461 N463 1.384 . S
N462 C458 1.427 . S
N462 C459 1.384 . S
N463 C455 1.427 . S
N463 C461 1.384 . S
H464 C470 0.930 . S
H465 C474 0.930 . S
H466 C479 0.929 . S
H467 C477 0.929 . S
H468 C472 0.929 . S
H469 C478 0.929 . S
C470 H464 0.930 . S
C470 C471 1.367 . S
C470 C478 1.378 . S
C471 C470 1.367 . S
C471 C479 1.433 . S
C472 H468 0.929 . S
C472 C474 1.378 . S
C472 C476 1.350 . S
C473 C476 1.463 . S
C473 C478 1.350 . S
C473 N481 1.427 . S
C474 H465 0.930 . S
C474 C472 1.378 . S
C474 C475 1.367 . S
C475 C474 1.367 . S
C475 C477 1.433 . S
C476 C472 1.350 . S
C476 C473 1.463 . S
C476 N480 1.427 . S
C477 H467 0.929 . S
C477 C475 1.433 . S
C477 N480 1.384 . S
C478 H469 0.929 . S
C478 C470 1.378 . S
C478 C473 1.350 . S
C479 H466 0.929 . S
C479 C471 1.433 . S
C479 N481 1.384 . S
N480 C476 1.427 . S
N480 C477 1.384 . S
N481 C473 1.427 . S
N481 C479 1.384 . S
H482 C488 0.930 . S
H483 C492 0.930 . S
H484 C497 0.929 . S
H485 C495 0.929 . S
H486 C490 0.929 . S
H487 C496 0.929 . S
C488 H482 0.930 . S
C488 C489 1.367 . S
C488 C496 1.378 . S
C489 C488 1.367 . S
C489 C497 1.433 . S
C490 H486 0.929 . S
C490 C492 1.378 . S
C490 C494 1.350 . S
C491 C494 1.463 . S
C491 C496 1.350 . S
C491 N499 1.427 . S
C492 H483 0.930 . S
C492 C490 1.378 . S
C492 C493 1.367 . S
C493 C492 1.367 . S
C493 C495 1.433 . S
C494 C490 1.350 . S
C494 C491 1.463 . S
C494 N498 1.427 . S
C495 H485 0.929 . S
C495 C493 1.433 . S
C495 N498 1.384 . S
C496 H487 0.929 . S
C496 C488 1.378 . S
C496 C491 1.350 . S
C497 H484 0.929 . S
C497 C489 1.433 . S
C497 N499 1.384 . S
N498 C494 1.427 . S
N498 C495 1.384 . S
N499 C491 1.427 . S
N499 C497 1.384 . S
H500 C506 0.930 . S
H501 C510 0.930 . S
H502 C515 0.929 . S
H503 C513 0.929 . S
H504 C508 0.929 . S
H505 C514 0.929 . S
C506 H500 0.930 . S
C506 C507 1.367 . S
C506 C514 1.378 . S
C507 C506 1.367 . S
C507 C515 1.433 . S
C508 H504 0.929 . S
C508 C510 1.378 . S
C508 C512 1.350 . S
C509 C512 1.463 . S
C509 C514 1.350 . S
C509 N517 1.427 . S
C510 H501 0.930 . S
C510 C508 1.378 . S
C510 C511 1.367 . S
C511 C510 1.367 . S
C511 C513 1.433 . S
C512 C508 1.350 . S
C512 C509 1.463 . S
C512 N516 1.427 . S
C513 H503 0.929 . S
C513 C511 1.433 . S
C513 N516 1.384 . S
C514 H505 0.929 . S
C514 C506 1.378 . S
C514 C509 1.350 . S
C515 H502 0.929 . S
C515 C507 1.433 . S
C515 N517 1.384 . S
N516 C512 1.427 . S
N516 C513 1.384 . S
N517 C509 1.427 . S
N517 C515 1.384 . S
H518 C524 0.930 . S
H519 C528 0.930 . S
H520 C533 0.929 . S
H521 C531 0.929 . S
H522 C526 0.929 . S
H523 C532 0.929 . S
C524 H518 0.930 . S
C524 C525 1.367 . S
C524 C532 1.378 . S
C525 C524 1.367 . S
C525 C533 1.433 . S
C526 H522 0.929 . S
C526 C528 1.378 . S
C526 C530 1.350 . S
C527 C530 1.463 . S
C527 C532 1.350 . S
C527 N535 1.427 . S
C528 H519 0.930 . S
C528 C526 1.378 . S
C528 C529 1.367 . S
C529 C528 1.367 . S
C529 C531 1.433 . S
C530 C526 1.350 . S
C530 C527 1.463 . S
C530 N534 1.427 . S
C531 H521 0.929 . S
C531 C529 1.433 . S
C531 N534 1.384 . S
C532 H523 0.929 . S
C532 C524 1.378 . S
C532 C527 1.350 . S
C533 H520 0.929 . S
C533 C525 1.433 . S
C533 N535 1.384 . S
N534 C530 1.427 . S
N534 C531 1.384 . S
N535 C527 1.427 . S
N535 C533 1.384 . S
H536 C542 0.930 . S
H537 C546 0.930 . S
H538 C551 0.929 . S
H539 C549 0.929 . S
H540 C544 0.929 . S
H541 C550 0.929 . S
C542 H536 0.930 . S
C542 C543 1.367 . S
C542 C550 1.378 . S
C543 C542 1.367 . S
C543 C551 1.433 . S
C544 H540 0.929 . S
C544 C546 1.378 . S
C544 C548 1.350 . S
C545 C548 1.463 . S
C545 C550 1.350 . S
C545 N553 1.427 . S
C546 H537 0.930 . S
C546 C544 1.378 . S
C546 C547 1.367 . S
C547 C546 1.367 . S
C547 C549 1.433 . S
C548 C544 1.350 . S
C548 C545 1.463 . S
C548 N552 1.427 . S
C549 H539 0.929 . S
C549 C547 1.433 . S
C549 N552 1.384 . S
C550 H541 0.929 . S
C550 C542 1.378 . S
C550 C545 1.350 . S
C551 H538 0.929 . S
C551 C543 1.433 . S
C551 N553 1.384 . S
N552 C548 1.427 . S
N552 C549 1.384 . S
N553 C545 1.427 . S
N553 C551 1.384 . S
H554 C560 0.930 . S
H555 C564 0.930 . S
H556 C569 0.929 . S
H557 C567 0.929 . S
H558 C562 0.929 . S
H559 C568 0.929 . S
C560 H554 0.930 . S
C560 C561 1.367 . S
C560 C568 1.378 . S
C561 C560 1.367 . S
C561 C569 1.433 . S
C562 H558 0.929 . S
C562 C564 1.378 . S
C562 C566 1.350 . S
C563 C566 1.463 . S
C563 C568 1.350 . S
C563 N571 1.427 . S
C564 H555 0.930 . S
C564 C562 1.378 . S
C564 C565 1.367 . S
C565 C564 1.367 . S
C565 C567 1.433 . S
C566 C562 1.350 . S
C566 C563 1.463 . S
C566 N570 1.427 . S
C567 H557 0.929 . S
C567 C565 1.433 . S
C567 N570 1.384 . S
C568 H559 0.929 . S
C568 C560 1.378 . S
C568 C563 1.350 . S
C569 H556 0.929 . S
C569 C561 1.433 . S
C569 N571 1.384 . S
N570 C566 1.427 . S
N570 C567 1.384 . S
N571 C563 1.427 . S
N571 C569 1.384 . S
H572 C578 0.930 . S
H573 C582 0.930 . S
H574 C587 0.929 . S
H575 C585 0.929 . S
H576 C580 0.929 . S
H577 C586 0.929 . S
C578 H572 0.930 . S
C578 C579 1.367 . S
C578 C586 1.378 . S
C579 C578 1.367 . S
C579 C587 1.433 . S
C580 H576 0.929 . S
C580 C582 1.378 . S
C580 C584 1.350 . S
C581 C584 1.463 . S
C581 C586 1.350 . S
C581 N589 1.427 . S
C582 H573 0.930 . S
C582 C580 1.378 . S
C582 C583 1.367 . S
C583 C582 1.367 . S
C583 C585 1.433 . S
C584 C580 1.350 . S
C584 C581 1.463 . S
C584 N588 1.427 . S
C585 H575 0.929 . S
C585 C583 1.433 . S
C585 N588 1.384 . S
C586 H577 0.929 . S
C586 C578 1.378 . S
C586 C581 1.350 . S
C587 H574 0.929 . S
C587 C579 1.433 . S
C587 N589 1.384 . S
N588 C584 1.427 . S
N588 C585 1.384 . S
N589 C581 1.427 . S
N589 C587 1.384 . S
H590 C596 0.930 . S
H591 C600 0.930 . S
H592 C605 0.929 . S
H593 C603 0.929 . S
H594 C598 0.929 . S
H595 C604 0.929 . S
C596 H590 0.930 . S
C596 C597 1.367 . S
C596 C604 1.378 . S
C597 C596 1.367 . S
C597 C605 1.433 . S
C598 H594 0.929 . S
C598 C600 1.378 . S
C598 C602 1.350 . S
C599 C602 1.463 . S
C599 C604 1.350 . S
C599 N607 1.427 . S
C600 H591 0.930 . S
C600 C598 1.378 . S
C600 C601 1.367 . S
C601 C600 1.367 . S
C601 C603 1.433 . S
C602 C598 1.350 . S
C602 C599 1.463 . S
C602 N606 1.427 . S
C603 H593 0.929 . S
C603 C601 1.433 . S
C603 N606 1.384 . S
C604 H595 0.929 . S
C604 C596 1.378 . S
C604 C599 1.350 . S
C605 H592 0.929 . S
C605 C597 1.433 . S
C605 N607 1.384 . S
N606 C602 1.427 . S
N606 C603 1.384 . S
N607 C599 1.427 . S
N607 C605 1.384 . S
C183 C6 1.473 . S
C187 C98 1.484 . S
C201 C18 1.598 . S
C205 C117 1.562 . S
C223 C154 1.804 . S
C219 C28 1.823 . S
C237 C40 1.195 . S
C241 C164 1.169 . S
C259 C134 2.054 . S
C255 C9 2.020 . S
C277 C104 1.426 . S
C273 C16 1.486 . S
C295 C175 1.509 . S
C291 C30 1.527 . S
C313 C145 1.118 . S
C309 C42 1.134 . S
C327 C4 1.594 . S
C331 C158 1.610 . S
C349 C125 1.823 . S
C345 C33 1.881 . S
C363 C45 1.558 . S
C367 C115 1.544 . S
C381 C21 1.420 . S
C385 C137 1.416 . S
C403 C97 1.501 . S
C399 C57 1.505 . S
C417 C66 1.605 . S
C421 C118 1.561 . S
C435 C76 1.866 . S
C439 C155 1.835 . S
C453 C88 1.141 . S
C457 C165 1.123 . S
C471 C54 1.987 . S
C475 C135 2.026 . S
C493 C105 1.485 . S
C489 C64 1.543 . S
C511 C174 1.407 . S
C507 C78 1.435 . S
C529 C144 1.137 . S
C525 C93 1.150 . S
C543 C52 1.552 . S
C547 C157 1.583 . S
C565 C124 1.808 . S
C561 C81 1.873 . S
C583 C114 1.538 . S
C579 C90 1.546 . S
C597 C69 1.446 . S
C601 C138 1.434 . S
