# Generated by pormake.
# Topology rtl, (3,6)-cn, num edge types: 1
# Building blocks:
#     Node 0, Type 0, BuildingBlock: CUQRIR_clean_linker_1, # of connection points: 3
#     Node 1, Type 0, BuildingBlock: CUQRIR_clean_linker_1, # of connection points: 3
#     Node 2, Type 0, BuildingBlock: CUQRIR_clean_linker_1, # of connection points: 3
#     Node 3, Type 0, BuildingBlock: CUQRIR_clean_linker_1, # of connection points: 3
#     Node 4, Type 1, BuildingBlock: LEVNOQ01_clean_sbu_1, # of connection points: 6
#     Node 5, Type 1, BuildingBlock: LEVNOQ01_clean_sbu_1, # of connection points: 6
#     Edge 6, Type (0, 1), BuildingBlock: XIVTED_clean_linker_0, # of connection points: 2
#     Edge 7, Type (0, 1), BuildingBlock: XIVTED_clean_linker_0, # of connection points: 2
#     Edge 8, Type (0, 1), BuildingBlock: XIVTED_clean_linker_0, # of connection points: 2
#     Edge 9, Type (0, 1), BuildingBlock: XIVTED_clean_linker_0, # of connection points: 2
#     Edge 10, Type (0, 1), BuildingBlock: XIVTED_clean_linker_0, # of connection points: 2
#     Edge 11, Type (0, 1), BuildingBlock: XIVTED_clean_linker_0, # of connection points: 2
#     Edge 12, Type (0, 1), BuildingBlock: XIVTED_clean_linker_0, # of connection points: 2
#     Edge 13, Type (0, 1), BuildingBlock: XIVTED_clean_linker_0, # of connection points: 2
#     Edge 14, Type (0, 1), BuildingBlock: XIVTED_clean_linker_0, # of connection points: 2
#     Edge 15, Type (0, 1), BuildingBlock: XIVTED_clean_linker_0, # of connection points: 2
#     Edge 16, Type (0, 1), BuildingBlock: XIVTED_clean_linker_0, # of connection points: 2
#     Edge 17, Type (0, 1), BuildingBlock: XIVTED_clean_linker_0, # of connection points: 2
# Relax obj value: 0.023
# Max RMSD: 0.124
# Mean RMSD: 0.102
data_MOF--net-rtl--node1-LEVNOQ01_clean_sbu_1--node2-CUQRIR_clean_linker_1--edge1-XIVTED_clean_linker_0
_symmetry_space_group_name_H-M    P1
_symmetry_Int_Tables_number       1
_symmetry_cell_setting            triclinic
loop_
_symmetry_equiv_pos_as_xyz
'x, y, z'
_cell_length_a     34.324052
_cell_length_b     34.348012
_cell_length_c     19.831628
_cell_angle_alpha  89.933321
_cell_angle_beta   98.439211
_cell_angle_gamma 89.829399
loop_
_atom_site_label
_atom_site_type_symbol
_atom_site_fract_x
_atom_site_fract_y
_atom_site_fract_z
_atom_type_partial_charge
C0 C 0.20569 0.76832 0.06671 0.0
N1 N 0.17998 0.79734 0.07473 0.0
N2 N 0.22709 0.75866 0.12729 0.0
C3 C 0.2121 0.75171 0.99903 0.0
C4 C 0.21391 0.78305 0.17243 0.0
N5 N 0.18546 0.80693 0.14047 0.0
C6 C 0.22761 0.78179 0.24801 0.0
H7 H 0.18731 0.73199 0.98045 0.0
H8 H 0.24007 0.73505 1.00285 0.0
H9 H 0.21232 0.77539 0.96097 0.0
H10 H 0.25073 0.80412 0.26131 0.0
H11 H 0.24041 0.75291 0.26381 0.0
H12 H 0.20289 0.78805 0.2767 0.0
C13 C 0.72809 0.6918 0.68318 0.0
N14 N 0.69856 0.66721 0.6582 0.0
N15 N 0.7471 0.70487 0.63249 0.0
C16 C 0.7411 0.70002 0.7576 0.0
C17 C 0.72825 0.68741 0.57582 0.0
N18 N 0.69887 0.66451 0.59134 0.0
C19 C 0.73792 0.69335 0.50495 0.0
H20 H 0.72474 0.7257 0.77272 0.0
H21 H 0.77304 0.70668 0.76758 0.0
H22 H 0.73503 0.67484 0.78954 0.0
H23 H 0.75995 0.6712 0.49495 0.0
H24 H 0.75053 0.72269 0.49945 0.0
H25 H 0.71131 0.68974 0.46634 0.0
C26 C 0.78173 0.22677 0.04292 0.0
N27 N 0.80776 0.19803 0.03481 0.0
N28 N 0.76804 0.24367 0.98244 0.0
C29 C 0.76822 0.23724 0.10941 0.0
C30 C 0.78634 0.22411 0.93692 0.0
N31 N 0.81104 0.19662 0.96877 0.0
C32 C 0.77805 0.2303 0.86096 0.0
H33 H 0.74208 0.21942 0.11565 0.0
H34 H 0.75962 0.26836 0.1101 0.0
H35 H 0.79168 0.2312 0.15296 0.0
H36 H 0.8007 0.25001 0.84544 0.0
H37 H 0.74885 0.24403 0.84534 0.0
H38 H 0.77928 0.20228 0.83355 0.0
C39 C 0.2431 0.2982 0.44922 0.0
N40 N 0.27204 0.32243 0.47724 0.0
N41 N 0.22066 0.28695 0.49632 0.0
C42 C 0.23562 0.28705 0.3751 0.0
C43 C 0.23706 0.30517 0.55412 0.0
N44 N 0.26821 0.32698 0.54243 0.0
C45 C 0.2247 0.29909 0.62313 0.0
H46 H 0.2042 0.27961 0.35905 0.0
H47 H 0.2539 0.26124 0.36712 0.0
H48 H 0.24395 0.31108 0.34264 0.0
H49 H 0.2116 0.26982 0.62695 0.0
H50 H 0.20225 0.32131 0.63085 0.0
H51 H 0.25009 0.30228 0.66432 0.0
O52 O -0.0067 0.02536 0.71252 0.0
Mg53 Mg 0.03368 0.02269 0.64108 0.0
O54 O 0.94803 0.02247 0.6232 0.0
Mg55 Mg -0.01228 -0.00835 0.55256 0.0
O56 O 0.02821 0.04792 0.54608 0.0
O57 O 0.05575 0.07674 0.64323 0.0
O58 O 0.02649 0.96147 0.47908 0.0
O59 O 0.95284 0.03033 0.46027 0.0
Mg60 Mg 0.93759 0.9603 0.46504 0.0
O61 O 0.94618 0.93596 0.56029 0.0
O62 O 0.97802 0.95232 0.39579 0.0
O63 O 0.89485 0.00354 0.44232 0.0
O64 O 0.91075 0.9088 0.4677 0.0
C65 C 0.06029 0.95388 0.67284 0.0
C66 C 0.95772 0.02897 0.68655 0.0
C67 C 0.04686 0.07703 0.57795 0.0
C68 C 0.01446 0.95138 0.41769 0.0
C69 C 0.91683 0.03156 0.43225 0.0
C70 C 0.92362 0.90823 0.53199 0.0
O71 O 0.07993 -0.01631 0.6631 0.0
O72 O 0.02419 0.95261 0.64485 0.0
O73 O 0.55724 0.46752 0.22535 0.0
Mg74 Mg 0.5286 0.42948 0.15207 0.0
O75 O 0.52959 0.51757 0.16708 0.0
Mg76 Mg 0.49102 0.49046 0.0692 0.0
O77 O 0.53576 0.43927 0.05315 0.0
O78 O 0.56509 0.39088 0.11932 0.0
O79 O 0.45262 0.459 0.97045 0.0
O80 O 0.53232 0.52469 1.00586 0.0
Mg81 Mg 0.44667 0.53077 0.98537 0.0
O82 O 0.44973 0.54517 0.08647 0.0
O83 O 0.39959 0.49506 0.95235 0.0
O84 O 0.48823 0.53661 0.91725 0.0
O85 O 0.42759 0.58508 0.99896 0.0
C86 C 0.44791 0.42427 0.16496 0.0
C87 C 0.55202 0.50385 0.21893 0.0
C88 C 0.55917 0.40906 0.06179 0.0
C89 C 0.41708 0.46403 0.94117 0.0
C90 C 0.52373 0.53584 0.94436 0.0
C91 C 0.43274 0.57749 0.0632 0.0
O92 O 0.47771 0.40241 0.17062 0.0
O93 O 0.44864 0.4574 0.13574 0.0
H94 H 0.14824 0.29904 0.52941 0.0
H95 H 0.08567 0.07631 0.46678 0.0
H96 H 0.2198 0.21404 0.44508 0.0
H97 H 0.03971 0.15296 0.60816 0.0
H98 H 0.1222 0.13148 0.42747 0.0
H99 H 0.09602 0.25034 0.52839 0.0
C100 C 0.1526 0.27014 0.51003 0.0
C101 C 0.18827 0.26012 0.48825 0.0
C102 C 0.10332 0.13631 0.4659 0.0
C103 C 0.12905 0.20455 0.48627 0.0
C104 C 0.08229 0.10502 0.48776 0.0
C105 C 0.06011 0.11034 0.54098 0.0
C106 C 0.10153 0.17289 0.49715 0.0
C107 C 0.05687 0.14782 0.56733 0.0
C108 C 0.12291 0.24248 0.50914 0.0
C109 C 0.19257 0.22265 0.46234 0.0
N110 N 0.07765 0.17763 0.54559 0.0
N111 N 0.16343 0.19596 0.46275 0.0
H112 H 0.30334 0.77829 0.15702 0.0
H113 H 0.37775 0.5578 0.14276 0.0
H114 H 0.2253 0.68024 0.12424 0.0
H115 H 0.44019 0.65576 0.07564 0.0
H116 H 0.32881 0.60289 0.17825 0.0
H117 H 0.36016 0.73358 0.16666 0.0
C118 C 0.29844 0.7472 0.15299 0.0
C119 C 0.26011 0.73256 0.13934 0.0
C120 C 0.35395 0.61449 0.15775 0.0
C121 C 0.32413 0.68158 0.15115 0.0
C122 C 0.38211 0.58888 0.13849 0.0
C123 C 0.41293 0.60329 0.10658 0.0
C124 C 0.35721 0.65459 0.14571 0.0
C125 C 0.41683 0.64369 0.10041 0.0
C126 C 0.3306 0.72182 0.15849 0.0
C127 C 0.25469 0.69225 0.13437 0.0
N128 N 0.38905 0.66798 0.1192 0.0
N129 N 0.28643 0.66802 0.14 0.0
H130 H 0.81684 0.69084 0.59012 0.0
H131 H 0.88732 0.91175 0.64589 0.0
H132 H 0.75264 0.77716 0.68655 0.0
H133 H 0.92908 0.83176 0.50518 0.0
H134 H 0.85028 0.85823 0.68934 0.0
H135 H 0.87007 0.73779 0.58612 0.0
C136 C 0.81428 0.71971 0.61089 0.0
C137 C 0.78031 0.73066 0.63743 0.0
C138 C 0.86839 0.85226 0.65018 0.0
C139 C 0.84075 0.78437 0.6336 0.0
C140 C 0.88976 0.88262 0.62602 0.0
C141 C 0.91096 0.87588 0.57193 0.0
C142 C 0.86875 0.81519 0.62014 0.0
C143 C 0.91285 0.83795 0.54685 0.0
C144 C 0.84458 0.74641 0.60894 0.0
C145 C 0.77845 0.76798 0.66528 0.0
N146 N 0.8917 0.8091 0.57071 0.0
N147 N 0.80809 0.79381 0.66187 0.0
H148 H 0.69271 0.229 0.93115 0.0
H149 H 0.62516 0.44142 0.02639 0.0
H150 H 0.77243 0.32103 1.00416 0.0
H151 H 0.54704 0.3437 0.98631 0.0
H152 H 0.67718 0.40383 0.98348 0.0
H153 H 0.63772 0.27568 0.9197 0.0
C154 C 0.69843 0.25932 0.94371 0.0
C155 C 0.73661 0.27153 0.96894 0.0
C156 C 0.64825 0.39105 0.98177 0.0
C157 C 0.67449 0.3249 0.95672 0.0
C158 C 0.61839 0.41276 1.00509 0.0
C159 C 0.58187 0.39557 1.00925 0.0
C160 C 0.64136 0.35189 0.96321 0.0
C161 C 0.57481 0.35798 0.98315 0.0
C162 C 0.66728 0.28592 0.93722 0.0
C163 C 0.7431 0.31086 0.98483 0.0
N164 N 0.60451 0.33709 0.96235 0.0
N165 N 0.71224 0.33619 0.97917 0.0
H166 H 0.21208 0.86354 0.23109 0.0
H167 H -0.0051 0.92584 0.28731 0.0
H168 H 0.10631 0.81328 0.12264 0.0
H169 H 0.09556 0.94238 0.44282 0.0
H170 H 0.03751 0.89621 0.21422 0.0
H171 H 0.17171 0.90371 0.29684 0.0
C172 C 0.18033 0.8612 0.22097 0.0
C173 C 0.16237 0.83468 0.17233 0.0
C174 C 0.05037 0.90645 0.26417 0.0
C175 C 0.11622 0.88088 0.24579 0.0
C176 C 0.02608 0.92351 0.30615 0.0
C177 C 0.04155 0.93632 0.37192 0.0
C178 C 0.09069 0.90223 0.28749 0.0
C179 C 0.08231 0.93268 0.39278 0.0
C180 C 0.15739 0.88409 0.25828 0.0
C181 C 0.12119 0.83345 0.15956 0.0
N182 N 0.10553 0.91578 0.35072 0.0
N183 N 0.09949 0.85606 0.1963 0.0
H184 H 0.65671 0.69864 0.74955 0.0
H185 H 0.53154 0.51725 0.81419 0.0
H186 H 0.68173 0.58982 0.65664 0.0
H187 H 0.58287 0.58757 0.98399 0.0
H188 H 0.5761 0.54756 0.74321 0.0
H189 H 0.61774 0.66342 0.82414 0.0
C190 C 0.65379 0.66736 0.74471 0.0
C191 C 0.67245 0.64707 0.69703 0.0
C192 C 0.57786 0.55591 0.79622 0.0
C193 C 0.62733 0.60699 0.78044 0.0
C194 C 0.55261 0.53873 0.83659 0.0
C195 C 0.55394 0.54989 0.90489 0.0
C196 C 0.60343 0.5854 0.82386 0.0
C197 C 0.58139 0.57799 0.93168 0.0
C198 C 0.63172 0.64739 0.78717 0.0
C199 C 0.66717 0.60664 0.69166 0.0
N200 N 0.60466 0.59542 0.89063 0.0
N201 N 0.64478 0.58785 0.73262 0.0
H202 H 0.76908 0.14732 0.10312 0.0
H203 H 0.95953 0.08333 0.36549 0.0
H204 H 0.88505 0.1897 0.08669 0.0
H205 H 0.84084 0.04526 0.37574 0.0
H206 H 0.93434 0.12352 0.26567 0.0
H207 H 0.79635 0.10878 0.20272 0.0
C208 C 0.8005 0.14798 0.12048 0.0
C209 C 0.82496 0.17144 0.08718 0.0
C210 C 0.91387 0.10654 0.29019 0.0
C211 C 0.85667 0.12802 0.20182 0.0
C212 C 0.92817 0.08388 0.34753 0.0
C213 C 0.90229 0.06075 0.37904 0.0
C214 C 0.87344 0.10605 0.26437 0.0
C215 C 0.86199 0.06238 0.3531 0.0
C216 C 0.81612 0.12624 0.17747 0.0
C217 C 0.86546 0.17161 0.11117 0.0
N218 N 0.84895 0.08437 0.29739 0.0
N219 N 0.88015 0.15035 0.16745 0.0
H220 H 0.245 0.3868 0.61314 0.0
H221 H 0.45052 0.41141 0.86018 0.0
H222 H 0.3464 0.31787 0.58655 0.0
H223 H 0.33891 0.45837 0.89738 0.0
H224 H 0.41626 0.37841 0.75786 0.0
H225 H 0.28288 0.41801 0.71219 0.0
C226 C 0.27563 0.37887 0.6279 0.0
C227 C 0.29277 0.35001 0.59215 0.0
C228 C 0.39939 0.3957 0.78899 0.0
C229 C 0.3364 0.3847 0.7064 0.0
C230 C 0.41884 0.41418 0.84765 0.0
C231 C 0.39757 0.43787 0.88715 0.0
C232 C 0.35859 0.40122 0.77004 0.0
C233 C 0.35663 0.44075 0.86821 0.0
C234 C 0.29721 0.39629 0.68473 0.0
C235 C 0.33247 0.34036 0.61294 0.0
N236 N 0.33868 0.423 0.81106 0.0
N237 N 0.35304 0.35751 0.66922 0.0
H238 H 0.72147 0.59736 0.54125 0.0
H239 H 0.53544 0.58036 0.24911 0.0
H240 H 0.62368 0.67661 0.53164 0.0
H241 H 0.61509 0.4854 0.31294 0.0
H242 H 0.56922 0.61966 0.34405 0.0
H243 H 0.68454 0.55861 0.44993 0.0
C244 C 0.69178 0.606 0.52028 0.0
C245 C 0.67503 0.6394 0.54432 0.0
C246 C 0.57909 0.59017 0.33702 0.0
C247 C 0.63297 0.5964 0.4385 0.0
C248 C 0.56007 0.56788 0.28267 0.0
C249 C 0.57242 0.52951 0.27301 0.0
C250 C 0.61096 0.57407 0.38106 0.0
C251 C 0.60434 0.51473 0.31836 0.0
C252 C 0.67077 0.58418 0.4681 0.0
C253 C 0.63696 0.65041 0.51487 0.0
N254 N 0.62249 0.537 0.36994 0.0
N255 N 0.61714 0.62907 0.46292 0.0
H256 H 0.8619 0.21495 0.88276 0.0
H257 H 0.95196 0.01422 0.81993 0.0
H258 H 0.81358 0.11749 0.97912 0.0
H259 H 0.90233 0.08477 0.6485 0.0
H260 H 0.91456 0.05255 0.89373 0.0
H261 H 0.89317 0.1696 0.81154 0.0
C262 C 0.85824 0.18395 0.88924 0.0
C263 C 0.83477 0.16989 0.93603 0.0
C264 C 0.91143 0.05902 0.83973 0.0
C265 C 0.87114 0.1181 0.85646 0.0
C266 C 0.93257 0.03726 0.79771 0.0
C267 C 0.9299 0.0463 0.72809 0.0
C268 C 0.88885 0.09081 0.81218 0.0
C269 C 0.90479 0.07664 0.70173 0.0
C270 C 0.87591 0.15824 0.84866 0.0
C271 C 0.8317 0.12943 0.94394 0.0
N272 N 0.88588 0.09845 0.74417 0.0
N273 N 0.84985 0.10474 0.90451 0.0
H274 H 0.32856 0.28477 0.42448 0.0
H275 H 0.3974 0.47014 0.22711 0.0
H276 H 0.27961 0.39855 0.44683 0.0
H277 H 0.42557 0.35066 0.18728 0.0
H278 H 0.35485 0.44717 0.30882 0.0
H279 H 0.36885 0.31125 0.34367 0.0
C280 C 0.32717 0.31563 0.41309 0.0
C281 C 0.3013 0.3397 0.44206 0.0
C282 C 0.37001 0.42609 0.2814 0.0
C283 C 0.34605 0.37032 0.34823 0.0
C284 C 0.39383 0.43915 0.23424 0.0
C285 C 0.41515 0.41221 0.2008 0.0
C286 C 0.36784 0.38598 0.29486 0.0
C287 C 0.40994 0.37243 0.21243 0.0
C288 C 0.34965 0.33074 0.36644 0.0
C289 C 0.29978 0.37942 0.42564 0.0
N290 N 0.3872 0.36061 0.2588 0.0
N291 N 0.32173 0.39361 0.3792 0.0
H292 H 0.12017 0.7714 0.98136 0.0
H293 H 0.13478 0.95376 0.74203 0.0
H294 H 0.19016 0.87233 0.0433 0.0
H295 H 0.02525 0.89058 0.72729 0.0
H296 H 0.16073 0.91535 0.84141 0.0
H297 H 0.08852 0.80731 0.8797 0.0
C298 C 0.12834 0.80132 0.97372 0.0
C299 C 0.1575 0.81925 1.02033 0.0
C300 C 0.13106 0.90974 0.81638 0.0
C301 C 0.1227 0.85975 0.90443 0.0
C302 C 0.11619 0.93147 0.7591 0.0
C303 C 0.07748 0.92575 0.72624 0.0
C304 C 0.1075 0.88143 0.84112 0.0
C305 C 0.05519 0.89607 0.75099 0.0
C306 C 0.11044 0.82168 0.91603 0.0
C307 C 0.16752 0.85784 1.0086 0.0
N308 N 0.07052 0.87494 0.80716 0.0
N309 N 0.15054 0.87666 0.95139 0.0
loop_
_geom_bond_atom_site_label_1
_geom_bond_atom_site_label_2
_geom_bond_distance
_geom_bond_site_symmetry_2
_ccdc_geom_bond_type
C0 N1 1.317 . S
C0 N2 1.348 . S
C0 C3 1.485 1_554 S
N1 C0 1.317 . S
N1 N5 1.370 . S
N2 C0 1.348 . S
N2 C4 1.346 . S
C3 C0 1.485 1_556 S
C3 H7 0.960 . S
C3 H8 0.961 . S
C3 H9 0.960 . S
C4 N2 1.346 . S
C4 N5 1.307 . S
C4 C6 1.486 . S
N5 N1 1.370 . S
N5 C4 1.307 . S
C6 C4 1.486 . S
C6 H10 0.960 . S
C6 H11 0.960 . S
C6 H12 0.959 . S
H7 C3 0.960 . S
H8 C3 0.961 . S
H9 C3 0.960 . S
H10 C6 0.960 . S
H11 C6 0.960 . S
H12 C6 0.959 . S
C13 N14 1.317 . S
C13 N15 1.348 . S
C13 C16 1.485 . S
N14 C13 1.317 . S
N14 N18 1.370 . S
N15 C13 1.348 . S
N15 C17 1.346 . S
C16 C13 1.485 . S
C16 H20 0.960 . S
C16 H21 0.961 . S
C16 H22 0.960 . S
C17 N15 1.346 . S
C17 N18 1.307 . S
C17 C19 1.486 . S
N18 N14 1.370 . S
N18 C17 1.307 . S
C19 C17 1.486 . S
C19 H23 0.960 . S
C19 H24 0.960 . S
C19 H25 0.959 . S
H20 C16 0.960 . S
H21 C16 0.961 . S
H22 C16 0.960 . S
H23 C19 0.960 . S
H24 C19 0.960 . S
H25 C19 0.959 . S
C26 N27 1.317 . S
C26 N28 1.353 . S
C26 C29 1.485 . S
N27 C26 1.317 . S
N27 N31 1.370 1_554 S
N28 C26 1.353 . S
N28 C30 1.341 1_554 S
C29 C26 1.485 . S
C29 H33 0.960 . S
C29 H34 0.961 . S
C29 H35 0.960 . S
C30 N28 1.341 1_556 S
C30 N31 1.307 . S
C30 C32 1.486 . S
N31 N27 1.370 1_556 S
N31 C30 1.307 . S
C32 C30 1.486 . S
C32 H36 0.960 . S
C32 H37 0.960 . S
C32 H38 0.959 . S
H33 C29 0.960 . S
H34 C29 0.961 . S
H35 C29 0.960 . S
H36 C32 0.960 . S
H37 C32 0.960 . S
H38 C32 0.959 . S
C39 N40 1.317 . S
C39 N41 1.348 . S
C39 C42 1.485 . S
N40 C39 1.317 . S
N40 N44 1.370 . S
N41 C39 1.348 . S
N41 C43 1.346 . S
C42 C39 1.485 . S
C42 H46 0.960 . S
C42 H47 0.961 . S
C42 H48 0.960 . S
C43 N41 1.346 . S
C43 N44 1.307 . S
C43 C45 1.486 . S
N44 N40 1.370 . S
N44 C43 1.307 . S
C45 C43 1.486 . S
C45 H49 0.960 . S
C45 H50 0.960 . S
C45 H51 0.959 . S
H46 C42 0.960 . S
H47 C42 0.961 . S
H48 C42 0.960 . S
H49 C45 0.960 . S
H50 C45 0.960 . S
H51 C45 0.959 . S
O52 Mg53 1.990 . S
O52 C66 1.253 1_455 S
Mg53 O52 1.990 . S
Mg53 O56 2.180 . S
Mg53 O57 2.117 . S
Mg53 O71 2.030 . S
O54 Mg55 2.072 1_655 S
O54 C66 1.260 . S
Mg55 O54 2.072 1_455 S
Mg55 O56 2.099 . S
Mg55 O58 2.079 1_545 S
Mg55 O59 2.072 1_455 S
Mg55 O61 2.099 1_445 S
Mg55 O72 2.079 1_545 S
O56 Mg53 2.180 . S
O56 Mg55 2.099 . S
O56 C67 1.279 . S
O57 Mg53 2.117 . S
O57 C67 1.250 . S
O58 Mg55 2.079 1_565 S
O58 C68 1.264 . S
O59 Mg55 2.072 1_655 S
O59 C69 1.260 . S
Mg60 O61 2.180 . S
Mg60 O62 2.030 1_655 S
Mg60 O63 1.990 1_565 S
Mg60 O64 2.117 . S
O61 Mg55 2.099 1_665 S
O61 Mg60 2.180 . S
O61 C70 1.279 . S
O62 Mg60 2.030 1_455 S
O62 C68 1.248 . S
O63 Mg60 1.990 1_545 S
O63 C69 1.253 . S
O64 Mg60 2.117 . S
O64 C70 1.250 . S
C65 O71 1.248 1_565 S
C65 O72 1.264 . S
C66 O52 1.253 1_655 S
C66 O54 1.260 . S
C67 O56 1.279 . S
C67 O57 1.250 . S
C68 O58 1.264 . S
C68 O62 1.248 . S
C69 O59 1.260 . S
C69 O63 1.253 . S
C70 O61 1.279 . S
C70 O64 1.250 . S
O71 Mg53 2.030 . S
O71 C65 1.248 1_545 S
O72 Mg55 2.079 1_565 S
O72 C65 1.264 . S
O73 Mg74 1.990 . S
O73 C87 1.253 . S
Mg74 O73 1.990 . S
Mg74 O77 2.180 . S
Mg74 O78 2.117 . S
Mg74 O92 2.030 . S
O75 Mg76 2.072 . S
O75 C87 1.260 . S
Mg76 O75 2.072 . S
Mg76 O77 2.099 . S
Mg76 O79 2.079 1_554 S
Mg76 O80 2.072 1_554 S
Mg76 O82 2.099 . S
Mg76 O93 2.079 . S
O77 Mg74 2.180 . S
O77 Mg76 2.099 . S
O77 C88 1.279 . S
O78 Mg74 2.117 . S
O78 C88 1.250 . S
O79 Mg76 2.079 1_556 S
O79 C89 1.264 . S
O80 Mg76 2.072 1_556 S
O80 C90 1.260 . S
Mg81 O82 2.180 1_556 S
Mg81 O83 2.030 . S
Mg81 O84 1.990 . S
Mg81 O85 2.117 . S
O82 Mg76 2.099 . S
O82 Mg81 2.180 1_554 S
O82 C91 1.279 . S
O83 Mg81 2.030 . S
O83 C89 1.248 . S
O84 Mg81 1.990 . S
O84 C90 1.253 . S
O85 Mg81 2.117 . S
O85 C91 1.250 1_556 S
C86 O92 1.248 . S
C86 O93 1.264 . S
C87 O73 1.253 . S
C87 O75 1.260 . S
C88 O77 1.279 . S
C88 O78 1.250 . S
C89 O79 1.264 . S
C89 O83 1.248 . S
C90 O80 1.260 . S
C90 O84 1.253 . S
C91 O82 1.279 . S
C91 O85 1.250 1_554 S
O92 Mg74 2.030 . S
O92 C86 1.248 . S
O93 Mg76 2.079 . S
O93 C86 1.264 . S
H94 C100 0.930 . S
H95 C104 0.930 . S
H96 C109 0.929 . S
H97 C107 0.929 . S
H98 C102 0.929 . S
H99 C108 0.929 . S
C100 H94 0.930 . S
C100 C101 1.367 . S
C100 C108 1.378 . S
C101 C100 1.367 . S
C101 C109 1.433 . S
C102 H98 0.929 . S
C102 C104 1.378 . S
C102 C106 1.350 . S
C103 C106 1.463 . S
C103 C108 1.350 . S
C103 N111 1.427 . S
C104 H95 0.930 . S
C104 C102 1.378 . S
C104 C105 1.367 . S
C105 C104 1.367 . S
C105 C107 1.433 . S
C106 C102 1.350 . S
C106 C103 1.463 . S
C106 N110 1.427 . S
C107 H97 0.929 . S
C107 C105 1.433 . S
C107 N110 1.384 . S
C108 H99 0.929 . S
C108 C100 1.378 . S
C108 C103 1.350 . S
C109 H96 0.929 . S
C109 C101 1.433 . S
C109 N111 1.384 . S
N110 C106 1.427 . S
N110 C107 1.384 . S
N111 C103 1.427 . S
N111 C109 1.384 . S
H112 C118 0.930 . S
H113 C122 0.915 1_556 S
H114 C127 0.929 1_556 S
H115 C125 0.929 . S
H116 C120 0.929 1_556 S
H117 C126 0.929 . S
C118 H112 0.930 . S
C118 C119 1.367 . S
C118 C126 1.378 . S
C119 C118 1.367 . S
C119 C127 1.433 . S
C120 H116 0.929 1_554 S
C120 C122 1.381 . S
C120 C124 1.350 . S
C121 C124 1.463 . S
C121 C126 1.350 . S
C121 N129 1.427 . S
C122 H113 0.915 1_554 S
C122 C120 1.381 . S
C122 C123 1.380 . S
C123 C122 1.380 . S
C123 C125 1.433 . S
C124 C120 1.350 . S
C124 C121 1.463 . S
C124 N128 1.427 . S
C125 H115 0.929 . S
C125 C123 1.433 . S
C125 N128 1.384 . S
C126 H117 0.929 . S
C126 C118 1.378 . S
C126 C121 1.350 . S
C127 H114 0.929 1_554 S
C127 C119 1.433 . S
C127 N129 1.384 . S
N128 C124 1.427 . S
N128 C125 1.384 . S
N129 C121 1.427 . S
N129 C127 1.384 . S
H130 C136 0.930 . S
H131 C140 0.930 . S
H132 C145 0.929 . S
H133 C143 0.929 . S
H134 C138 0.929 . S
H135 C144 0.929 . S
C136 H130 0.930 . S
C136 C137 1.367 . S
C136 C144 1.378 . S
C137 C136 1.367 . S
C137 C145 1.433 . S
C138 H134 0.929 . S
C138 C140 1.378 . S
C138 C142 1.350 . S
C139 C142 1.463 . S
C139 C144 1.350 . S
C139 N147 1.427 . S
C140 H131 0.930 . S
C140 C138 1.378 . S
C140 C141 1.367 . S
C141 C140 1.367 . S
C141 C143 1.433 . S
C142 C138 1.350 . S
C142 C139 1.463 . S
C142 N146 1.427 . S
C143 H133 0.929 . S
C143 C141 1.433 . S
C143 N146 1.384 . S
C144 H135 0.929 . S
C144 C136 1.378 . S
C144 C139 1.350 . S
C145 H132 0.929 . S
C145 C137 1.433 . S
C145 N147 1.384 . S
N146 C142 1.427 . S
N146 C143 1.384 . S
N147 C139 1.427 . S
N147 C145 1.384 . S
H148 C154 0.930 . S
H149 C158 0.930 . S
H150 C163 0.929 . S
H151 C161 0.929 . S
H152 C156 0.929 . S
H153 C162 0.929 . S
C154 H148 0.930 . S
C154 C155 1.367 . S
C154 C162 1.378 . S
C155 C154 1.367 . S
C155 C163 1.433 1_556 S
C156 H152 0.929 . S
C156 C158 1.378 . S
C156 C160 1.350 . S
C157 C160 1.463 . S
C157 C162 1.350 1_554 S
C157 N165 1.427 . S
C158 H149 0.930 . S
C158 C156 1.378 . S
C158 C159 1.367 . S
C159 C158 1.367 . S
C159 C161 1.433 1_554 S
C160 C156 1.350 . S
C160 C157 1.463 . S
C160 N164 1.427 1_554 S
C161 H151 0.929 . S
C161 C159 1.433 1_556 S
C161 N164 1.384 . S
C162 H153 0.929 . S
C162 C154 1.378 . S
C162 C157 1.350 1_556 S
C163 H150 0.929 . S
C163 C155 1.433 1_554 S
C163 N165 1.384 . S
N164 C160 1.427 1_556 S
N164 C161 1.384 . S
N165 C157 1.427 . S
N165 C163 1.384 . S
H166 C172 0.930 . S
H167 C176 0.930 . S
H168 C181 0.929 . S
H169 C179 0.929 . S
H170 C174 0.929 . S
H171 C180 0.929 . S
C172 H166 0.930 . S
C172 C173 1.367 . S
C172 C180 1.378 . S
C173 C172 1.367 . S
C173 C181 1.433 . S
C174 H170 0.929 . S
C174 C176 1.378 . S
C174 C178 1.350 . S
C175 C178 1.463 . S
C175 C180 1.350 . S
C175 N183 1.427 . S
C176 H167 0.930 . S
C176 C174 1.378 . S
C176 C177 1.367 . S
C177 C176 1.367 . S
C177 C179 1.433 . S
C178 C174 1.350 . S
C178 C175 1.463 . S
C178 N182 1.427 . S
C179 H169 0.929 . S
C179 C177 1.433 . S
C179 N182 1.384 . S
C180 H171 0.929 . S
C180 C172 1.378 . S
C180 C175 1.350 . S
C181 H168 0.929 . S
C181 C173 1.433 . S
C181 N183 1.384 . S
N182 C178 1.427 . S
N182 C179 1.384 . S
N183 C175 1.427 . S
N183 C181 1.384 . S
H184 C190 0.930 . S
H185 C194 0.930 . S
H186 C199 0.929 . S
H187 C197 0.929 . S
H188 C192 0.929 . S
H189 C198 0.929 . S
C190 H184 0.930 . S
C190 C191 1.367 . S
C190 C198 1.378 . S
C191 C190 1.367 . S
C191 C199 1.433 . S
C192 H188 0.929 . S
C192 C194 1.378 . S
C192 C196 1.350 . S
C193 C196 1.463 . S
C193 C198 1.350 . S
C193 N201 1.427 . S
C194 H185 0.930 . S
C194 C192 1.378 . S
C194 C195 1.367 . S
C195 C194 1.367 . S
C195 C197 1.433 . S
C196 C192 1.350 . S
C196 C193 1.463 . S
C196 N200 1.427 . S
C197 H187 0.929 . S
C197 C195 1.433 . S
C197 N200 1.384 . S
C198 H189 0.929 . S
C198 C190 1.378 . S
C198 C193 1.350 . S
C199 H186 0.929 . S
C199 C191 1.433 . S
C199 N201 1.384 . S
N200 C196 1.427 . S
N200 C197 1.384 . S
N201 C193 1.427 . S
N201 C199 1.384 . S
H202 C208 0.930 . S
H203 C212 0.930 . S
H204 C217 0.929 . S
H205 C215 0.929 . S
H206 C210 0.929 . S
H207 C216 0.929 . S
C208 H202 0.930 . S
C208 C209 1.367 . S
C208 C216 1.378 . S
C209 C208 1.367 . S
C209 C217 1.433 . S
C210 H206 0.929 . S
C210 C212 1.378 . S
C210 C214 1.350 . S
C211 C214 1.463 . S
C211 C216 1.350 . S
C211 N219 1.427 . S
C212 H203 0.930 . S
C212 C210 1.378 . S
C212 C213 1.367 . S
C213 C212 1.367 . S
C213 C215 1.433 . S
C214 C210 1.350 . S
C214 C211 1.463 . S
C214 N218 1.427 . S
C215 H205 0.929 . S
C215 C213 1.433 . S
C215 N218 1.384 . S
C216 H207 0.929 . S
C216 C208 1.378 . S
C216 C211 1.350 . S
C217 H204 0.929 . S
C217 C209 1.433 . S
C217 N219 1.384 . S
N218 C214 1.427 . S
N218 C215 1.384 . S
N219 C211 1.427 . S
N219 C217 1.384 . S
H220 C226 0.930 . S
H221 C230 0.930 . S
H222 C235 0.929 . S
H223 C233 0.929 . S
H224 C228 0.929 . S
H225 C234 0.929 . S
C226 H220 0.930 . S
C226 C227 1.367 . S
C226 C234 1.378 . S
C227 C226 1.367 . S
C227 C235 1.433 . S
C228 H224 0.929 . S
C228 C230 1.378 . S
C228 C232 1.350 . S
C229 C232 1.463 . S
C229 C234 1.350 . S
C229 N237 1.427 . S
C230 H221 0.930 . S
C230 C228 1.378 . S
C230 C231 1.367 . S
C231 C230 1.367 . S
C231 C233 1.433 . S
C232 C228 1.350 . S
C232 C229 1.463 . S
C232 N236 1.427 . S
C233 H223 0.929 . S
C233 C231 1.433 . S
C233 N236 1.384 . S
C234 H225 0.929 . S
C234 C226 1.378 . S
C234 C229 1.350 . S
C235 H222 0.929 . S
C235 C227 1.433 . S
C235 N237 1.384 . S
N236 C232 1.427 . S
N236 C233 1.384 . S
N237 C229 1.427 . S
N237 C235 1.384 . S
H238 C244 0.930 . S
H239 C248 0.930 . S
H240 C253 0.929 . S
H241 C251 0.929 . S
H242 C246 0.929 . S
H243 C252 0.929 . S
C244 H238 0.930 . S
C244 C245 1.367 . S
C244 C252 1.378 . S
C245 C244 1.367 . S
C245 C253 1.433 . S
C246 H242 0.929 . S
C246 C248 1.378 . S
C246 C250 1.350 . S
C247 C250 1.463 . S
C247 C252 1.350 . S
C247 N255 1.427 . S
C248 H239 0.930 . S
C248 C246 1.378 . S
C248 C249 1.367 . S
C249 C248 1.367 . S
C249 C251 1.433 . S
C250 C246 1.350 . S
C250 C247 1.463 . S
C250 N254 1.427 . S
C251 H241 0.929 . S
C251 C249 1.433 . S
C251 N254 1.384 . S
C252 H243 0.929 . S
C252 C244 1.378 . S
C252 C247 1.350 . S
C253 H240 0.929 . S
C253 C245 1.433 . S
C253 N255 1.384 . S
N254 C250 1.427 . S
N254 C251 1.384 . S
N255 C247 1.427 . S
N255 C253 1.384 . S
H256 C262 0.930 . S
H257 C266 0.930 . S
H258 C271 0.929 . S
H259 C269 0.929 . S
H260 C264 0.929 . S
H261 C270 0.929 . S
C262 H256 0.930 . S
C262 C263 1.367 . S
C262 C270 1.378 . S
C263 C262 1.367 . S
C263 C271 1.433 . S
C264 H260 0.929 . S
C264 C266 1.378 . S
C264 C268 1.350 . S
C265 C268 1.463 . S
C265 C270 1.350 . S
C265 N273 1.427 . S
C266 H257 0.930 . S
C266 C264 1.378 . S
C266 C267 1.367 . S
C267 C266 1.367 . S
C267 C269 1.433 . S
C268 C264 1.350 . S
C268 C265 1.463 . S
C268 N272 1.427 . S
C269 H259 0.929 . S
C269 C267 1.433 . S
C269 N272 1.384 . S
C270 H261 0.929 . S
C270 C262 1.378 . S
C270 C265 1.350 . S
C271 H258 0.929 . S
C271 C263 1.433 . S
C271 N273 1.384 . S
N272 C268 1.427 . S
N272 C269 1.384 . S
N273 C265 1.427 . S
N273 C271 1.384 . S
H274 C280 0.930 . S
H275 C284 0.930 . S
H276 C289 0.929 . S
H277 C287 0.929 . S
H278 C282 0.929 . S
H279 C288 0.929 . S
C280 H274 0.930 . S
C280 C281 1.367 . S
C280 C288 1.378 . S
C281 C280 1.367 . S
C281 C289 1.433 . S
C282 H278 0.929 . S
C282 C284 1.378 . S
C282 C286 1.350 . S
C283 C286 1.463 . S
C283 C288 1.350 . S
C283 N291 1.427 . S
C284 H275 0.930 . S
C284 C282 1.378 . S
C284 C285 1.367 . S
C285 C284 1.367 . S
C285 C287 1.433 . S
C286 C282 1.350 . S
C286 C283 1.463 . S
C286 N290 1.427 . S
C287 H277 0.929 . S
C287 C285 1.433 . S
C287 N290 1.384 . S
C288 H279 0.929 . S
C288 C280 1.378 . S
C288 C283 1.350 . S
C289 H276 0.929 . S
C289 C281 1.433 . S
C289 N291 1.384 . S
N290 C286 1.427 . S
N290 C287 1.384 . S
N291 C283 1.427 . S
N291 C289 1.384 . S
H292 C298 0.930 . S
H293 C302 0.930 . S
H294 C307 0.927 1_554 S
H295 C305 0.929 . S
H296 C300 0.929 . S
H297 C306 0.929 . S
C298 H292 0.930 . S
C298 C299 1.367 . S
C298 C306 1.378 . S
C299 C298 1.367 . S
C299 C307 1.433 . S
C300 H296 0.929 . S
C300 C302 1.378 . S
C300 C304 1.350 . S
C301 C304 1.463 . S
C301 C306 1.350 . S
C301 N309 1.427 . S
C302 H293 0.930 . S
C302 C300 1.378 . S
C302 C303 1.367 . S
C303 C302 1.367 . S
C303 C305 1.433 . S
C304 C300 1.350 . S
C304 C301 1.463 . S
C304 N308 1.427 . S
C305 H295 0.929 . S
C305 C303 1.433 . S
C305 N308 1.384 . S
C306 H297 0.929 . S
C306 C298 1.378 . S
C306 C301 1.350 . S
C307 H294 0.927 1_556 S
C307 C299 1.433 . S
C307 N309 1.384 . S
N308 C304 1.427 . S
N308 C305 1.384 . S
N309 C301 1.427 . S
N309 C307 1.384 . S
C105 C67 1.293 . S
C101 N41 1.476 . S
C119 N2 1.478 . S
C123 C91 1.266 . S
C137 N15 1.608 . S
C141 C70 1.401 . S
C155 N28 1.608 1_556 S
C159 C88 1.375 . S
C177 C68 1.452 . S
C173 N5 1.489 . S
C195 C90 1.520 . S
C191 N14 1.579 . S
C209 N27 1.551 . S
C213 C69 1.516 . S
C227 N44 1.481 . S
C231 C89 1.441 . S
C249 C87 1.513 . S
C245 N18 1.554 . S
C267 C66 1.524 . S
C263 N31 1.583 . S
C285 C86 1.458 . S
C281 N40 1.485 . S
C299 N1 1.485 1_556 S
C303 C65 1.436 . S
