# Generated by pormake.
# Topology hwx, (6,3)-cn, num edge types: 1
# Building blocks:
#     Node 0, Type 0, BuildingBlock: IZENUY_clean_sbu_0, # of connection points: 6
#     Node 1, Type 0, BuildingBlock: IZENUY_clean_sbu_0, # of connection points: 6
#     Node 2, Type 0, BuildingBlock: IZENUY_clean_sbu_0, # of connection points: 6
#     Node 3, Type 0, BuildingBlock: IZENUY_clean_sbu_0, # of connection points: 6
#     Node 4, Type 1, BuildingBlock: KAKCAD_clean_linker_0, # of connection points: 3
#     Node 5, Type 1, BuildingBlock: KAKCAD_clean_linker_0, # of connection points: 3
#     Node 6, Type 1, BuildingBlock: KAKCAD_clean_linker_0, # of connection points: 3
#     Node 7, Type 1, BuildingBlock: KAKCAD_clean_linker_0, # of connection points: 3
#     Node 8, Type 1, BuildingBlock: KAKCAD_clean_linker_0, # of connection points: 3
#     Node 9, Type 1, BuildingBlock: KAKCAD_clean_linker_0, # of connection points: 3
#     Node 10, Type 1, BuildingBlock: KAKCAD_clean_linker_0, # of connection points: 3
#     Node 11, Type 1, BuildingBlock: KAKCAD_clean_linker_0, # of connection points: 3
#     Edge 12, Type (0, 1), BuildingBlock: EZIPEK_clean_linker_0, # of connection points: 2
#     Edge 13, Type (0, 1), BuildingBlock: EZIPEK_clean_linker_0, # of connection points: 2
#     Edge 14, Type (0, 1), BuildingBlock: EZIPEK_clean_linker_0, # of connection points: 2
#     Edge 15, Type (0, 1), BuildingBlock: EZIPEK_clean_linker_0, # of connection points: 2
#     Edge 16, Type (0, 1), BuildingBlock: EZIPEK_clean_linker_0, # of connection points: 2
#     Edge 17, Type (0, 1), BuildingBlock: EZIPEK_clean_linker_0, # of connection points: 2
#     Edge 18, Type (0, 1), BuildingBlock: EZIPEK_clean_linker_0, # of connection points: 2
#     Edge 19, Type (0, 1), BuildingBlock: EZIPEK_clean_linker_0, # of connection points: 2
#     Edge 20, Type (0, 1), BuildingBlock: EZIPEK_clean_linker_0, # of connection points: 2
#     Edge 21, Type (0, 1), BuildingBlock: EZIPEK_clean_linker_0, # of connection points: 2
#     Edge 22, Type (0, 1), BuildingBlock: EZIPEK_clean_linker_0, # of connection points: 2
#     Edge 23, Type (0, 1), BuildingBlock: EZIPEK_clean_linker_0, # of connection points: 2
#     Edge 24, Type (0, 1), BuildingBlock: EZIPEK_clean_linker_0, # of connection points: 2
#     Edge 25, Type (0, 1), BuildingBlock: EZIPEK_clean_linker_0, # of connection points: 2
#     Edge 26, Type (0, 1), BuildingBlock: EZIPEK_clean_linker_0, # of connection points: 2
#     Edge 27, Type (0, 1), BuildingBlock: EZIPEK_clean_linker_0, # of connection points: 2
#     Edge 28, Type (0, 1), BuildingBlock: EZIPEK_clean_linker_0, # of connection points: 2
#     Edge 29, Type (0, 1), BuildingBlock: EZIPEK_clean_linker_0, # of connection points: 2
#     Edge 30, Type (0, 1), BuildingBlock: EZIPEK_clean_linker_0, # of connection points: 2
#     Edge 31, Type (0, 1), BuildingBlock: EZIPEK_clean_linker_0, # of connection points: 2
#     Edge 32, Type (0, 1), BuildingBlock: EZIPEK_clean_linker_0, # of connection points: 2
#     Edge 33, Type (0, 1), BuildingBlock: EZIPEK_clean_linker_0, # of connection points: 2
#     Edge 34, Type (0, 1), BuildingBlock: EZIPEK_clean_linker_0, # of connection points: 2
#     Edge 35, Type (0, 1), BuildingBlock: EZIPEK_clean_linker_0, # of connection points: 2
# Relax obj value: 0.051
# Max RMSD: 0.075
# Mean RMSD: 0.068
data_MOF--net-hwx--node1-IZENUY_clean_sbu_0--node2-KAKCAD_clean_linker_0--edge1-EZIPEK_clean_linker_0
_symmetry_space_group_name_H-M    P1
_symmetry_Int_Tables_number       1
_symmetry_cell_setting            triclinic
loop_
_symmetry_equiv_pos_as_xyz
'x, y, z'
_cell_length_a     45.620156
_cell_length_b     45.539957
_cell_length_c     22.038904
_cell_angle_alpha  89.858884
_cell_angle_beta   90.080894
_cell_angle_gamma 90.007222
loop_
_atom_site_label
_atom_site_type_symbol
_atom_site_fract_x
_atom_site_fract_y
_atom_site_fract_z
_atom_type_partial_charge
Fe0 Fe 0.23673 0.21296 0.0767 0.0
Fe1 Fe 0.23777 0.21594 0.93697 0.0
O2 O 0.22757 0.19764 0.00506 0.0
Fe3 Fe 0.20797 0.16383 0.0016 0.0
O4 O 0.18727 0.16961 0.07218 0.0
O5 O 0.19869 0.21458 0.09903 0.0
O6 O 0.23292 0.25146 0.0524 0.0
C7 C 0.22131 0.26312 0.00604 0.0
C8 C 0.24623 0.15153 0.09309 0.0
O9 O 0.21821 0.24903 0.95742 0.0
C10 C 0.24803 0.15911 0.90369 0.0
O11 O 0.27547 0.21269 0.05997 0.0
O12 O 0.27246 0.23015 0.96682 0.0
O13 O 0.23698 0.14449 0.04122 0.0
O14 O 0.24226 0.17715 0.11403 0.0
C15 C 0.18016 0.19537 0.91338 0.0
O16 O 0.25839 0.1845 0.91024 0.0
O17 O 0.22473 0.15143 0.93028 0.0
C18 C 0.28719 0.22368 0.01356 0.0
O19 O 0.2047 0.20497 0.89549 0.0
O20 O 0.17765 0.18089 0.96185 0.0
C21 C 0.18164 0.19293 0.10087 0.0
Fe22 Fe 0.26004 0.71195 0.57281 0.0
Fe23 Fe 0.28635 0.66237 0.49458 0.0
O24 O 0.26762 0.69652 0.50067 0.0
Fe25 Fe 0.25706 0.71531 0.43362 0.0
O26 O 0.26119 0.75246 0.46461 0.0
O27 O 0.2795 0.74561 0.55558 0.0
O28 O 0.29438 0.69906 0.60713 0.0
C29 C 0.31784 0.68912 0.58432 0.0
C30 C 0.20834 0.72293 0.50373 0.0
O31 O 0.31822 0.67658 0.53349 0.0
C32 C 0.24602 0.65523 0.40543 0.0
O33 O 0.23999 0.67973 0.59739 0.0
O34 O 0.27145 0.64672 0.56523 0.0
O35 O 0.21877 0.71411 0.45409 0.0
O36 O 0.22442 0.72746 0.54977 0.0
C37 C 0.31087 0.69627 0.39891 0.0
O38 O 0.25565 0.64578 0.45535 0.0
O39 O 0.25067 0.68155 0.38903 0.0
C40 C 0.24967 0.65387 0.59741 0.0
O41 O 0.30498 0.67155 0.42242 0.0
O42 O 0.29487 0.71807 0.40995 0.0
C43 C 0.27483 0.76187 0.5105 0.0
Fe44 Fe 0.75782 0.80065 0.9264 0.0
Fe45 Fe 0.75772 0.79642 0.06556 0.0
O46 O 0.76783 0.81521 0.99816 0.0
Fe47 Fe 0.78796 0.84854 0.00253 0.0
O48 O 0.77124 0.86499 0.93398 0.0
O49 O 0.73728 0.83335 0.90734 0.0
O50 O 0.72293 0.78479 0.95265 0.0
C51 C 0.70761 0.7901 0.99919 0.0
C52 C 0.81553 0.82212 0.90737 0.0
O53 O 0.71911 0.79908 0.04763 0.0
C54 C 0.813 0.81324 0.09637 0.0
O55 O 0.77761 0.76683 0.9403 0.0
O56 O 0.76069 0.75955 0.03256 0.0
O57 O 0.81791 0.83333 0.95925 0.0
O58 O 0.79094 0.81388 0.88692 0.0
C59 C 0.74966 0.85653 0.09607 0.0
O60 O 0.79549 0.79228 0.08845 0.0
O61 O 0.80858 0.83802 0.07147 0.0
C62 C 0.77387 0.75048 0.98573 0.0
O63 O 0.75311 0.8299 0.11102 0.0
O64 O 0.75943 0.86628 0.0465 0.0
C65 C 0.74834 0.8586 0.90403 0.0
Fe66 Fe 0.70543 0.34843 0.50418 0.0
Fe67 Fe 0.73659 0.29856 0.57292 0.0
O68 O 0.72746 0.31623 0.50343 0.0
Fe69 Fe 0.74013 0.30191 0.43327 0.0
O70 O 0.74487 0.33835 0.39731 0.0
O71 O 0.73434 0.36987 0.46974 0.0
O72 O 0.71867 0.36172 0.57809 0.0
C73 C 0.74176 0.35578 0.6074 0.0
C74 C 0.68492 0.31825 0.39991 0.0
O75 O 0.75419 0.33128 0.60202 0.0
C76 C 0.72471 0.25108 0.50103 0.0
O77 O 0.67525 0.32897 0.53895 0.0
O78 O 0.70165 0.30747 0.60994 0.0
O79 O 0.70328 0.29782 0.40448 0.0
O80 O 0.68773 0.34159 0.43035 0.0
C81 C 0.78887 0.29351 0.50356 0.0
O82 O 0.71974 0.26459 0.54957 0.0
O83 O 0.73761 0.26323 0.45682 0.0
C84 C 0.67708 0.31567 0.58894 0.0
O85 O 0.77305 0.28629 0.54827 0.0
O86 O 0.778 0.3044 0.45617 0.0
C87 C 0.74617 0.364 0.4196 0.0
C88 C 0.17945 0.58135 0.8132 0.0
C89 C 0.20302 0.57303 0.77623 0.0
C90 C 0.17263 0.56498 0.86509 0.0
C91 C 0.18911 0.53992 0.88032 0.0
C92 C 0.21138 0.53057 0.84075 0.0
C93 C 0.21839 0.54712 0.78928 0.0
C94 C 0.18571 0.5257 0.94057 0.0
C95 C 0.18535 0.495 0.94627 0.0
C96 C 0.18586 0.48157 0.00382 0.0
C97 C 0.18671 0.49932 0.05599 0.0
C98 C 0.18728 0.53011 0.05106 0.0
C99 C 0.1862 0.54304 0.99314 0.0
C100 C 0.19182 0.54871 0.10572 0.0
C101 C 0.17708 0.54275 0.16048 0.0
C102 C 0.21212 0.57197 0.10396 0.0
C103 C 0.21791 0.58854 0.15576 0.0
C104 C 0.20353 0.58227 0.21038 0.0
C105 C 0.18796 0.44909 0.00896 0.0
C106 C 0.17052 0.43079 0.9723 0.0
C107 C 0.20862 0.43615 0.04826 0.0
C108 C 0.21234 0.4057 0.04957 0.0
C109 C 0.19536 0.38765 0.01195 0.0
C110 C 0.17415 0.4003 0.97392 0.0
C111 C 0.18287 0.55946 0.21245 0.0
H112 H 0.16751 0.60143 0.80389 0.0
H113 H 0.15528 0.57257 0.89466 0.0
H114 H 0.22464 0.51154 0.85166 0.0
H115 H 0.23681 0.54057 0.76143 0.0
H116 H 0.18573 0.48156 0.90575 0.0
H117 H 0.18707 0.56674 0.98885 0.0
H118 H 0.18796 0.48912 0.10039 0.0
H119 H 0.16122 0.5251 0.16319 0.0
H120 H 0.22429 0.57682 0.06297 0.0
H121 H 0.23413 0.60589 0.15363 0.0
H122 H 0.1543 0.44011 0.94192 0.0
H123 H 0.22265 0.44964 0.07642 0.0
H124 H 0.17173 0.55425 0.2545 0.0
H125 H 0.16094 0.38661 0.94448 0.0
H126 H 0.22894 0.39623 0.07886 0.0
C127 C 0.92097 0.78041 0.28994 0.0
C128 C 0.90172 0.80424 0.28376 0.0
C129 C 0.938 0.77737 0.34247 0.0
C130 C 0.93584 0.79806 0.38957 0.0
C131 C 0.91758 0.82266 0.3816 0.0
C132 C 0.90063 0.82568 0.3292 0.0
C133 C 0.95104 0.79318 0.44839 0.0
C134 C 0.98023 0.78344 0.45034 0.0
C135 C 0.99448 0.77873 0.50621 0.0
C136 C 0.97904 0.78376 0.56043 0.0
C137 C 0.94987 0.7936 0.55929 0.0
C138 C 0.93604 0.79804 0.50307 0.0
C139 C 0.93398 0.79985 0.61671 0.0
C140 C 0.93605 0.78081 0.66657 0.0
C141 C 0.91593 0.8246 0.62144 0.0
C142 C 0.90126 0.83079 0.67541 0.0
C143 C 0.90522 0.8134 0.72822 0.0
C144 C 0.02567 0.76929 0.50793 0.0
C145 C 0.03624 0.74819 0.46685 0.0
C146 C 0.04526 0.78168 0.55015 0.0
C147 C 0.07472 0.77335 0.55091 0.0
C148 C 0.08516 0.7526 0.50935 0.0
C149 C 0.06576 0.73996 0.46749 0.0
C150 C 0.92133 0.78704 0.72071 0.0
H151 H 0.92181 0.76354 0.25543 0.0
H152 H 0.95175 0.75812 0.34745 0.0
H153 H 0.91583 0.83922 0.41661 0.0
H154 H 0.88576 0.84414 0.32511 0.0
H155 H 0.9921 0.78035 0.40828 0.0
H156 H 0.91325 0.80473 0.50183 0.0
H157 H 0.98983 0.78026 0.60368 0.0
H158 H 0.94845 0.7606 0.66325 0.0
H159 H 0.91305 0.83935 0.58327 0.0
H160 H 0.88624 0.84906 0.67397 0.0
H161 H 0.02168 0.73796 0.43431 0.0
H162 H 0.03797 0.79829 0.5818 0.0
H163 H 0.92217 0.77024 0.75513 0.0
H164 H 0.07354 0.72391 0.4351 0.0
H165 H 0.0895 0.78341 0.58327 0.0
C166 C 0.76759 0.47102 0.22305 0.0
C167 C 0.78472 0.44692 0.24305 0.0
C168 C 0.77227 0.48415 0.16663 0.0
C169 C 0.7931 0.47287 0.12641 0.0
C170 C 0.80839 0.4474 0.14282 0.0
C171 C 0.80394 0.43441 0.19968 0.0
C172 C 0.79789 0.48729 0.0668 0.0
C173 C 0.80037 0.51796 0.06343 0.0
C174 C 0.80265 0.53229 0.00721 0.0
C175 C 0.80314 0.5155 0.95387 0.0
C176 C 0.80022 0.48474 0.95608 0.0
C177 C 0.79796 0.47082 0.01303 0.0
C178 C 0.79659 0.4675 0.89917 0.0
C179 C 0.78004 0.47896 0.85053 0.0
C180 C 0.80775 0.43876 0.8945 0.0
C181 C 0.80124 0.42145 0.84392 0.0
C182 C 0.78382 0.43271 0.79688 0.0
C183 C 0.80191 0.56484 0.00395 0.0
C184 C 0.78159 0.58056 0.03917 0.0
C185 C 0.82033 0.58033 0.96394 0.0
C186 C 0.81819 0.61088 0.95881 0.0
C187 C 0.79752 0.62627 0.99339 0.0
C188 C 0.7794 0.611 0.03384 0.0
C189 C 0.77389 0.46177 0.79972 0.0
H190 H 0.74971 0.47987 0.2488 0.0
H191 H 0.7589 0.50284 0.15375 0.0
H192 H 0.82389 0.43753 0.11175 0.0
H193 H 0.81537 0.41406 0.20849 0.0
H194 H 0.80024 0.53077 0.10483 0.0
H195 H 0.79454 0.4473 0.01559 0.0
H196 H 0.80462 0.52655 0.9104 0.0
H197 H 0.7706 0.50073 0.85275 0.0
H198 H 0.82094 0.42939 0.93054 0.0
H199 H 0.80901 0.39898 0.84229 0.0
H200 H 0.76677 0.56923 0.06963 0.0
H201 H 0.83629 0.56881 0.93653 0.0
H202 H 0.76016 0.47064 0.76395 0.0
H203 H 0.76324 0.62264 0.06057 0.0
H204 H 0.83229 0.62247 0.92733 0.0
C205 C 0.06754 0.20364 0.71873 0.0
C206 C 0.09588 0.21513 0.725 0.0
C207 C 0.05158 0.20877 0.66557 0.0
C208 C 0.06388 0.22533 0.61802 0.0
C209 C 0.09204 0.23735 0.62535 0.0
C210 C 0.1079 0.2323 0.67847 0.0
C211 C 0.04787 0.22935 0.56011 0.0
C212 C 0.01802 0.23664 0.55986 0.0
C213 C 0.00295 0.24069 0.5049 0.0
C214 C 0.01793 0.23713 0.44975 0.0
C215 C 0.04776 0.22961 0.44931 0.0
C216 C 0.06253 0.22578 0.5047 0.0
C217 C 0.06363 0.22518 0.3914 0.0
C218 C 0.05108 0.20863 0.34419 0.0
C219 C 0.09217 0.23629 0.38427 0.0
C220 C 0.10823 0.2301 0.33208 0.0
C221 C 0.096 0.21282 0.28606 0.0
C222 C 0.97159 0.24882 0.50528 0.0
C223 C 0.95178 0.23372 0.54291 0.0
C224 C 0.9613 0.27185 0.4684 0.0
C225 C 0.93172 0.27966 0.46922 0.0
C226 C 0.91206 0.26437 0.50647 0.0
C227 C 0.92216 0.24137 0.54326 0.0
C228 C 0.06721 0.20242 0.29184 0.0
H229 H 0.0581 0.19023 0.75437 0.0
H230 H 0.03001 0.19908 0.66093 0.0
H231 H 0.10187 0.25052 0.5898 0.0
H232 H 0.12979 0.24129 0.68287 0.0
H233 H 0.00667 0.23991 0.6025 0.0
H234 H 0.08537 0.21922 0.50473 0.0
H235 H 0.00636 0.24017 0.40721 0.0
H236 H 0.02922 0.19958 0.34869 0.0
H237 H 0.10225 0.24944 0.41948 0.0
H238 H 0.13046 0.23826 0.32811 0.0
H239 H 0.95914 0.21574 0.57138 0.0
H240 H 0.9762 0.284 0.43948 0.0
H241 H 0.05761 0.18889 0.25669 0.0
H242 H 0.90709 0.22933 0.572 0.0
H243 H 0.9241 0.29745 0.44052 0.0
C244 C 0.6883 0.95636 0.70935 0.0
C245 C 0.71381 0.93913 0.71271 0.0
C246 C 0.68229 0.97292 0.65706 0.0
C247 C 0.70139 0.97186 0.60715 0.0
C248 C 0.72714 0.9551 0.61121 0.0
C249 C 0.7334 0.93909 0.66365 0.0
C250 C 0.69445 0.98744 0.54993 0.0
C251 C 0.69177 0.01812 0.54889 0.0
C252 C 0.68883 0.03323 0.49341 0.0
C253 C 0.68737 0.01708 0.43916 0.0
C254 C 0.68996 0.98636 0.43955 0.0
C255 C 0.69341 0.97173 0.49526 0.0
C256 C 0.69235 0.9698 0.38177 0.0
C257 C 0.67854 0.94238 0.37481 0.0
C258 C 0.7107 0.9802 0.33517 0.0
C259 C 0.71645 0.96283 0.28443 0.0
C260 C 0.7038 0.93492 0.27921 0.0
C261 C 0.6904 0.06582 0.49144 0.0
C262 C 0.67616 0.08307 0.53535 0.0
C263 C 0.70771 0.07985 0.44718 0.0
C264 C 0.71125 0.11028 0.44762 0.0
C265 C 0.69761 0.12725 0.4923 0.0
C266 C 0.67974 0.11359 0.53574 0.0
C267 C 0.68417 0.92509 0.32376 0.0
H268 H 0.67281 0.95646 0.74656 0.0
H269 H 0.66232 0.98574 0.65476 0.0
H270 H 0.7423 0.9542 0.57345 0.0
H271 H 0.75313 0.92587 0.66532 0.0
H272 H 0.69392 0.03026 0.59092 0.0
H273 H 0.69649 0.94812 0.49607 0.0
H274 H 0.68483 0.02849 0.39626 0.0
H275 H 0.66412 0.93394 0.40974 0.0
H276 H 0.72195 0.00103 0.33947 0.0
H277 H 0.73191 0.97055 0.25069 0.0
H278 H 0.66254 0.07293 0.56973 0.0
H279 H 0.71944 0.06724 0.41341 0.0
H280 H 0.67444 0.90345 0.32052 0.0
H281 H 0.66916 0.12648 0.57066 0.0
H282 H 0.72531 0.12053 0.41412 0.0
C283 C 0.57873 0.28692 0.20542 0.0
C284 C 0.59735 0.3113 0.21045 0.0
C285 C 0.56019 0.28413 0.15522 0.0
C286 C 0.5603 0.30558 0.10924 0.0
C287 C 0.57825 0.33047 0.11567 0.0
C288 C 0.59656 0.33335 0.16601 0.0
C289 C 0.54319 0.30123 0.0529 0.0
C290 C 0.51385 0.29222 0.05514 0.0
C291 C 0.49787 0.28779 0.00143 0.0
C292 C 0.51151 0.29269 0.94514 0.0
C293 C 0.54108 0.30124 0.94206 0.0
C294 C 0.55669 0.30534 0.99642 0.0
C295 C 0.55619 0.30481 0.88262 0.0
C296 C 0.54951 0.28633 0.83328 0.0
C297 C 0.57857 0.32583 0.87572 0.0
C298 C 0.59499 0.32713 0.82252 0.0
C299 C 0.58893 0.308 0.77439 0.0
C300 C 0.46706 0.27759 0.0041 0.0
C301 C 0.45888 0.25516 0.0447 0.0
C302 C 0.44569 0.29002 0.96585 0.0
C303 C 0.41672 0.28028 0.9683 0.0
C304 C 0.40871 0.25798 0.00897 0.0
C305 C 0.42988 0.24545 0.04714 0.0
C306 C 0.56548 0.28822 0.77932 0.0
H307 H 0.57923 0.26967 0.23934 0.0
H308 H 0.5467 0.26466 0.15111 0.0
H309 H 0.57848 0.34745 0.08115 0.0
H310 H 0.61084 0.35229 0.16939 0.0
H311 H 0.50334 0.28913 0.09878 0.0
H312 H 0.5798 0.31079 0.99512 0.0
H313 H 0.49913 0.28944 0.90374 0.0
H314 H 0.53269 0.26966 0.83687 0.0
H315 H 0.58379 0.34107 0.91178 0.0
H316 H 0.61278 0.34283 0.8192 0.0
H317 H 0.47494 0.24492 0.07414 0.0
H318 H 0.45128 0.30755 0.93464 0.0
H319 H 0.56035 0.27347 0.74232 0.0
H320 H 0.42391 0.22824 0.07881 0.0
H321 H 0.40047 0.29024 0.93885 0.0
C322 C 0.27005 0.08292 0.33906 0.0
C323 C 0.28516 0.07585 0.28579 0.0
C324 C 0.27549 0.06746 0.39261 0.0
C325 C 0.29617 0.04454 0.39393 0.0
C326 C 0.31134 0.03751 0.34031 0.0
C327 C 0.3059 0.05311 0.28659 0.0
C328 C 0.30116 0.02777 0.45098 0.0
C329 C 0.3024 0.99695 0.4504 0.0
C330 C 0.30443 0.98091 0.50488 0.0
C331 C 0.30568 0.9961 0.56035 0.0
C332 C 0.30454 0.02694 0.56177 0.0
C333 C 0.30257 0.04251 0.5068 0.0
C334 C 0.30253 0.04306 0.62024 0.0
C335 C 0.28351 0.0332 0.66623 0.0
C336 C 0.31719 0.07 0.62796 0.0
C337 C 0.3115 0.08754 0.67853 0.0
C338 C 0.29121 0.07837 0.72235 0.0
C339 C 0.30305 0.94832 0.50422 0.0
C340 C 0.28214 0.93388 0.46802 0.0
C341 C 0.32171 0.93145 0.54138 0.0
C342 C 0.31924 0.90082 0.54281 0.0
C343 C 0.29794 0.88667 0.50746 0.0
C344 C 0.27956 0.90332 0.46979 0.0
C345 C 0.27789 0.05076 0.71689 0.0
H346 H 0.25379 0.10027 0.33898 0.0
H347 H 0.26303 0.07307 0.43273 0.0
H348 H 0.32748 0.02007 0.34001 0.0
H349 H 0.31763 0.04733 0.24563 0.0
H350 H 0.30089 0.98538 0.4076 0.0
H351 H 0.3011 0.06626 0.50751 0.0
H352 H 0.30662 0.98389 0.60257 0.0
H353 H 0.27164 0.01275 0.66142 0.0
H354 H 0.33225 0.078 0.59376 0.0
H355 H 0.32189 0.10886 0.68209 0.0
H356 H 0.26717 0.94626 0.43961 0.0
H357 H 0.33814 0.94196 0.56944 0.0
H358 H 0.26197 0.04352 0.75014 0.0
H359 H 0.26291 0.89267 0.44249 0.0
H360 H 0.33355 0.8882 0.5722 0.0
C361 C 0.43654 0.69375 0.76769 0.0
C362 C 0.40644 0.70002 0.76539 0.0
C363 C 0.45207 0.69728 0.82207 0.0
C364 C 0.43769 0.70737 0.87453 0.0
C365 C 0.40767 0.71435 0.871 0.0
C366 C 0.39221 0.71053 0.81713 0.0
C367 C 0.45346 0.71105 0.9331 0.0
C368 C 0.48174 0.72295 0.93526 0.0
C369 C 0.49528 0.72897 0.9912 0.0
C370 C 0.47941 0.72455 0.04532 0.0
C371 C 0.45097 0.71234 0.04423 0.0
C372 C 0.43921 0.7042 0.98761 0.0
C373 C 0.43277 0.7092 0.10073 0.0
C374 C 0.44549 0.70772 0.15916 0.0
C375 C 0.40188 0.70846 0.09662 0.0
C376 C 0.38456 0.70533 0.14809 0.0
C377 C 0.39723 0.70476 0.206 0.0
C378 C 0.52605 0.73971 0.99255 0.0
C379 C 0.54706 0.72724 0.95364 0.0
C380 C 0.53483 0.76201 0.03278 0.0
C381 C 0.56403 0.77142 0.03432 0.0
C382 C 0.58482 0.75872 0.99558 0.0
C383 C 0.57614 0.7367 0.9551 0.0
C384 C 0.42788 0.70626 0.21121 0.0
H385 H 0.44778 0.68566 0.72783 0.0
H386 H 0.47513 0.69166 0.82331 0.0
H387 H 0.39605 0.72293 0.90994 0.0
H388 H 0.36904 0.71573 0.81579 0.0
H389 H 0.49298 0.7283 0.89339 0.0
H390 H 0.41851 0.69271 0.9851 0.0
H391 H 0.48943 0.73065 0.08791 0.0
H392 H 0.469 0.70769 0.1653 0.0
H393 H 0.39053 0.71095 0.05387 0.0
H394 H 0.36096 0.70444 0.14275 0.0
H395 H 0.54114 0.70974 0.92276 0.0
H396 H 0.51914 0.77231 0.06279 0.0
H397 H 0.43817 0.70607 0.25553 0.0
H398 H 0.59201 0.72656 0.92521 0.0
H399 H 0.57047 0.78843 0.06591 0.0
C400 C 0.15834 0.17815 0.19941 0.0
C401 C 0.15678 0.19382 0.14373 0.0
C402 C 0.11297 0.21982 0.17858 0.0
C403 C 0.1145 0.20407 0.23404 0.0
N404 N 0.13354 0.16329 0.29173 0.0
N405 N 0.12876 0.22322 0.07373 0.0
C406 C 0.13553 0.18152 0.24252 0.0
C407 C 0.13281 0.21269 0.13124 0.0
N408 N 0.18233 0.16132 0.21257 0.0
N409 N 0.09337 0.24231 0.1721 0.0
H410 H 0.14271 0.21778 0.03803 0.0
H411 H 0.11031 0.23501 0.0602 0.0
H412 H 0.07801 0.24762 0.20533 0.0
H413 H 0.09354 0.25684 0.13554 0.0
H414 H 0.1864 0.15228 0.2552 0.0
H415 H 0.19936 0.15799 0.18205 0.0
H416 H 0.14638 0.14457 0.29729 0.0
H417 H 0.11716 0.16533 0.32445 0.0
C418 C 0.24802 0.63376 0.70338 0.0
C419 C 0.2379 0.63268 0.64244 0.0
C420 C 0.20592 0.59102 0.6681 0.0
C421 C 0.21452 0.59367 0.72974 0.0
N422 N 0.24083 0.61955 0.80824 0.0
N423 N 0.20542 0.61252 0.56699 0.0
C424 C 0.23472 0.61564 0.74796 0.0
C425 C 0.21635 0.61186 0.62478 0.0
N426 N 0.27117 0.65136 0.71834 0.0
N427 N 0.1882 0.56828 0.65101 0.0
H428 H 0.21324 0.62684 0.53377 0.0
H429 H 0.18746 0.60024 0.55274 0.0
H430 H 0.17948 0.55328 0.68199 0.0
H431 H 0.18354 0.56309 0.60607 0.0
H432 H 0.28209 0.65038 0.7598 0.0
H433 H 0.28122 0.66535 0.68751 0.0
H434 H 0.25221 0.63758 0.82514 0.0
H435 H 0.23279 0.60588 0.84241 0.0
C436 C 0.86602 0.81554 0.12861 0.0
C437 C 0.8362 0.81006 0.14337 0.0
C438 C 0.85078 0.79587 0.24655 0.0
C439 C 0.87983 0.80493 0.23397 0.0
N440 N 0.91502 0.82631 0.16555 0.0
N441 N 0.79965 0.80001 0.22046 0.0
C442 C 0.88748 0.81558 0.17563 0.0
C443 C 0.82841 0.80142 0.20336 0.0
N444 N 0.87405 0.81941 0.06942 0.0
N445 N 0.84459 0.78144 0.29953 0.0
H446 H 0.78225 0.80434 0.19132 0.0
H447 H 0.793 0.79743 0.26536 0.0
H448 H 0.86031 0.77712 0.33278 0.0
H449 H 0.82453 0.7713 0.30799 0.0
H450 H 0.89576 0.82055 0.05514 0.0
H451 H 0.85908 0.81864 0.03373 0.0
H452 H 0.92098 0.83738 0.12604 0.0
H453 H 0.93141 0.826 0.19862 0.0
C454 C 0.73591 0.3791 0.70968 0.0
C455 C 0.75208 0.37622 0.65497 0.0
C456 C 0.79017 0.40903 0.69477 0.0
C457 C 0.77317 0.41316 0.74789 0.0
N458 N 0.72829 0.40555 0.80361 0.0
N459 N 0.79168 0.39201 0.59046 0.0
C460 C 0.74554 0.39921 0.75459 0.0
C461 C 0.77848 0.39214 0.64614 0.0
N462 N 0.71194 0.36175 0.71981 0.0
N463 N 0.81763 0.42092 0.69128 0.0
H464 H 0.78347 0.38016 0.55371 0.0
H465 H 0.80934 0.40539 0.57903 0.0
H466 H 0.82644 0.43419 0.72525 0.0
H467 H 0.83246 0.41608 0.65688 0.0
H468 H 0.7014 0.36001 0.76151 0.0
H469 H 0.70362 0.34733 0.68765 0.0
H470 H 0.70644 0.39921 0.80723 0.0
H471 H 0.73511 0.41889 0.83933 0.0
C472 C 0.63208 0.3176 0.36706 0.0
C473 C 0.66229 0.31647 0.35177 0.0
C474 C 0.6494 0.30806 0.24531 0.0
C475 C 0.61948 0.31267 0.25959 0.0
N476 N 0.58243 0.32632 0.33212 0.0
N477 N 0.69976 0.31641 0.27419 0.0
C478 C 0.61081 0.31876 0.31997 0.0
C479 C 0.671 0.31326 0.29028 0.0
N480 N 0.62362 0.31614 0.42639 0.0
N481 N 0.65718 0.29787 0.18927 0.0
H482 H 0.71636 0.32083 0.30528 0.0
H483 H 0.70676 0.31754 0.22927 0.0
H484 H 0.64199 0.29351 0.15504 0.0
H485 H 0.67836 0.29106 0.17866 0.0
H486 H 0.60187 0.31392 0.43996 0.0
H487 H 0.63853 0.31407 0.46189 0.0
H488 H 0.57555 0.33407 0.37419 0.0
H489 H 0.56621 0.32722 0.29874 0.0
C490 C 0.28112 0.11743 0.87405 0.0
C491 C 0.26068 0.13949 0.85704 0.0
C492 C 0.25917 0.12021 0.75336 0.0
C493 C 0.28094 0.09932 0.76922 0.0
N494 N 0.31565 0.08001 0.84136 0.0
N495 N 0.23465 0.16564 0.77827 0.0
C496 C 0.29281 0.09848 0.82873 0.0
C497 C 0.25101 0.14199 0.796 0.0
N498 N 0.28892 0.11433 0.93364 0.0
N499 N 0.24561 0.11869 0.69802 0.0
H500 H 0.22844 0.18223 0.80787 0.0
H501 H 0.22958 0.17036 0.73321 0.0
H502 H 0.25126 0.10342 0.66483 0.0
H503 H 0.2271 0.13092 0.68669 0.0
H504 H 0.30113 0.09678 0.95033 0.0
H505 H 0.28174 0.12861 0.96744 0.0
H506 H 0.32739 0.08037 0.88187 0.0
H507 H 0.32426 0.06551 0.80942 0.0
C508 C 0.33048 0.71873 0.3021 0.0
C509 C 0.3342 0.69896 0.35166 0.0
C510 C 0.37965 0.68145 0.30446 0.0
C511 C 0.37767 0.70408 0.26021 0.0
N512 N 0.35573 0.75042 0.23179 0.0
N513 N 0.36789 0.66767 0.40738 0.0
C514 C 0.35466 0.72486 0.2642 0.0
C515 C 0.36046 0.68211 0.35525 0.0
N516 N 0.30359 0.72997 0.28757 0.0
N517 N 0.39871 0.65862 0.29717 0.0
H518 H 0.35583 0.66932 0.44725 0.0
H519 H 0.388 0.65711 0.41302 0.0
H520 H 0.41223 0.65646 0.25938 0.0
H521 H 0.39879 0.64033 0.32573 0.0
H522 H 0.30015 0.74291 0.2491 0.0
H523 H 0.28419 0.72299 0.30785 0.0
H524 H 0.3402 0.76704 0.23702 0.0
H525 H 0.37379 0.75628 0.20538 0.0
C526 C 0.73234 0.90933 0.87086 0.0
C527 C 0.73728 0.87929 0.85674 0.0
C528 C 0.71924 0.88825 0.75353 0.0
C529 C 0.71915 0.91884 0.76462 0.0
N530 N 0.72905 0.95917 0.83243 0.0
N531 N 0.74172 0.84205 0.77853 0.0
C532 C 0.72652 0.92964 0.82304 0.0
C533 C 0.73226 0.86914 0.79652 0.0
N534 N 0.73221 0.91833 0.92994 0.0
N535 N 0.70664 0.87734 0.70199 0.0
H536 H 0.75332 0.82773 0.8064 0.0
H537 H 0.74111 0.83516 0.73347 0.0
H538 H 0.69634 0.89067 0.66982 0.0
H539 H 0.70365 0.85493 0.69463 0.0
H540 H 0.726 0.93937 0.94315 0.0
H541 H 0.73534 0.90393 0.96621 0.0
H542 H 0.73744 0.9681 0.87232 0.0
H543 H 0.725 0.97469 0.79858 0.0
C544 C 0.84622 0.84595 0.82683 0.0
C545 C 0.84148 0.82215 0.86733 0.0
C546 C 0.88897 0.80164 0.83785 0.0
C547 C 0.88946 0.82092 0.78721 0.0
N548 N 0.88333 0.87285 0.7722 0.0
N549 N 0.85955 0.77787 0.91494 0.0
C550 C 0.87237 0.84674 0.79235 0.0
C551 C 0.86336 0.80025 0.87438 0.0
N552 N 0.82575 0.86758 0.82026 0.0
N553 N 0.91434 0.78883 0.85714 0.0
H554 H 0.8413 0.77643 0.94324 0.0
H555 H 0.87357 0.75982 0.91723 0.0
H556 H 0.93449 0.79437 0.83778 0.0
H557 H 0.91592 0.77661 0.89705 0.0
H558 H 0.82723 0.88371 0.78674 0.0
H559 H 0.80638 0.86809 0.84509 0.0
H560 H 0.87302 0.89293 0.77988 0.0
H561 H 0.9046 0.87445 0.75499 0.0
C562 C 0.78866 0.38735 0.36368 0.0
C563 C 0.75893 0.38842 0.3833 0.0
C564 C 0.75514 0.4377 0.34028 0.0
C565 C 0.78035 0.43241 0.30478 0.0
N566 N 0.8292 0.41406 0.31797 0.0
N567 N 0.7131 0.41561 0.38692 0.0
C568 C 0.79979 0.41048 0.3265 0.0
C569 C 0.74197 0.41396 0.37117 0.0
N570 N 0.80618 0.36444 0.38042 0.0
N571 N 0.74707 0.46569 0.35396 0.0
H572 H 0.70164 0.39836 0.40696 0.0
H573 H 0.7 0.43342 0.37435 0.0
H574 H 0.76059 0.48347 0.34326 0.0
H575 H 0.73003 0.47046 0.3839 0.0
H576 H 0.82662 0.36037 0.36126 0.0
H577 H 0.79987 0.34905 0.41276 0.0
H578 H 0.84512 0.40042 0.33678 0.0
H579 H 0.83762 0.43298 0.29751 0.0
C580 C 0.13848 0.22468 0.87135 0.0
C581 C 0.15484 0.1982 0.87222 0.0
C582 C 0.13047 0.18157 0.77951 0.0
C583 C 0.11397 0.20798 0.77876 0.0
N584 N 0.09748 0.25188 0.82887 0.0
N585 N 0.16221 0.14881 0.83624 0.0
C586 C 0.11643 0.22866 0.82646 0.0
C587 C 0.14938 0.17574 0.82925 0.0
N588 N 0.14474 0.24634 0.91225 0.0
N589 N 0.12904 0.16275 0.7313 0.0
H590 H 0.17623 0.14382 0.87216 0.0
H591 H 0.157 0.13061 0.80985 0.0
H592 H 0.11486 0.16584 0.69467 0.0
H593 H 0.14321 0.14507 0.72543 0.0
H594 H 0.13616 0.26748 0.90981 0.0
H595 H 0.15981 0.24358 0.94741 0.0
H596 H 0.0962 0.26627 0.86539 0.0
H597 H 0.08128 0.25545 0.79621 0.0
C598 C 0.25062 0.61033 0.33934 0.0
C599 C 0.23344 0.63418 0.36103 0.0
C600 C 0.19522 0.62277 0.28612 0.0
C601 C 0.21202 0.59848 0.26607 0.0
N602 N 0.25188 0.56475 0.28286 0.0
N603 N 0.18656 0.65845 0.36565 0.0
C604 C 0.23847 0.59084 0.29586 0.0
C605 C 0.20484 0.63902 0.33753 0.0
N606 N 0.27915 0.60716 0.35729 0.0
N607 N 0.1706 0.63086 0.25491 0.0
H608 H 0.19263 0.66984 0.40465 0.0
H609 H 0.16455 0.66101 0.35425 0.0
H610 H 0.16251 0.61899 0.21809 0.0
H611 H 0.15932 0.65034 0.26293 0.0
H612 H 0.29367 0.59253 0.33702 0.0
H613 H 0.28927 0.62068 0.38895 0.0
H614 H 0.26945 0.55643 0.30778 0.0
H615 H 0.24372 0.55002 0.25081 0.0
C616 C 0.35275 0.66507 0.65673 0.0
C617 C 0.34484 0.68988 0.62123 0.0
C618 C 0.38202 0.71981 0.67203 0.0
C619 C 0.38901 0.6954 0.70948 0.0
N620 N 0.38622 0.64352 0.73017 0.0
N621 N 0.35593 0.73821 0.5835 0.0
C622 C 0.37613 0.66752 0.69911 0.0
C623 C 0.36085 0.71645 0.62516 0.0
N624 N 0.337 0.63964 0.65182 0.0
N625 N 0.3949 0.7464 0.68295 0.0
H626 H 0.34071 0.73607 0.54839 0.0
H627 H 0.36841 0.75728 0.58033 0.0
H628 H 0.4116 0.74915 0.71485 0.0
H629 H 0.38838 0.76594 0.66243 0.0
H630 H 0.33889 0.62201 0.68167 0.0
H631 H 0.32083 0.63656 0.61907 0.0
H632 H 0.37986 0.62206 0.72086 0.0
H633 H 0.4028 0.64474 0.76266 0.0
C634 C 0.75327 0.88135 0.19716 0.0
C635 C 0.73792 0.87734 0.14167 0.0
C636 C 0.70061 0.91275 0.17468 0.0
C637 C 0.71464 0.91447 0.23204 0.0
N638 N 0.75154 0.89695 0.3019 0.0
N639 N 0.69526 0.88632 0.07964 0.0
C640 C 0.74009 0.89764 0.24449 0.0
C641 C 0.71112 0.89235 0.1308 0.0
N642 N 0.78121 0.87099 0.20354 0.0
N643 N 0.67757 0.93094 0.16194 0.0
H644 H 0.70242 0.8717 0.04646 0.0
H645 H 0.67412 0.8941 0.07198 0.0
H646 H 0.66884 0.94541 0.1938 0.0
H647 H 0.66836 0.93312 0.11893 0.0
H648 H 0.79467 0.8759 0.24035 0.0
H649 H 0.79218 0.86006 0.16909 0.0
H650 H 0.76782 0.88227 0.31537 0.0
H651 H 0.7432 0.90931 0.33771 0.0
C652 C 0.63432 0.33804 0.64496 0.0
C653 C 0.65086 0.31288 0.6281 0.0
C654 C 0.62575 0.28379 0.70557 0.0
C655 C 0.60801 0.30842 0.71988 0.0
N656 N 0.58968 0.3561 0.69092 0.0
N657 N 0.65534 0.26015 0.62905 0.0
C658 C 0.61038 0.3346 0.68533 0.0
C659 C 0.6443 0.28518 0.65415 0.0
N660 N 0.64248 0.36548 0.62622 0.0
N661 N 0.62631 0.25972 0.74272 0.0
H662 H 0.66773 0.26043 0.58937 0.0
H663 H 0.64926 0.23917 0.64324 0.0
H664 H 0.61396 0.25804 0.78231 0.0
H665 H 0.64122 0.2426 0.73727 0.0
H666 H 0.63297 0.38459 0.64308 0.0
H667 H 0.66049 0.36956 0.59854 0.0
H668 H 0.58891 0.37448 0.66268 0.0
H669 H 0.57156 0.35401 0.71946 0.0
C670 C 0.24079 0.10465 0.15329 0.0
C671 C 0.25847 0.12866 0.13397 0.0
C672 C 0.29567 0.11587 0.21 0.0
C673 C 0.27808 0.09189 0.22895 0.0
N674 N 0.23807 0.05878 0.20921 0.0
N675 N 0.30584 0.15194 0.13165 0.0
C676 C 0.25201 0.08474 0.19728 0.0
C677 C 0.28693 0.13264 0.15858 0.0
N678 N 0.21266 0.10179 0.13267 0.0
N679 N 0.32011 0.12329 0.24248 0.0
H680 H 0.30034 0.16361 0.0925 0.0
H681 H 0.32777 0.15404 0.144 0.0
H682 H 0.32758 0.11105 0.27946 0.0
H683 H 0.33188 0.14257 0.23525 0.0
H684 H 0.19763 0.08708 0.15118 0.0
H685 H 0.20336 0.11555 0.10019 0.0
H686 H 0.22071 0.05082 0.18331 0.0
H687 H 0.24564 0.04382 0.24157 0.0
C688 C 0.1901 0.30523 0.04152 0.0
C689 C 0.21415 0.29492 0.00673 0.0
C690 C 0.22356 0.34505 0.97039 0.0
C691 C 0.20129 0.35562 0.00945 0.0
N692 N 0.1654 0.34682 0.08747 0.0
N693 N 0.25657 0.30539 0.94492 0.0
C694 C 0.1851 0.33599 0.04656 0.0
C695 C 0.23159 0.31492 0.97281 0.0
N696 N 0.17139 0.28555 0.06784 0.0
N697 N 0.23668 0.36375 0.93003 0.0
H698 H 0.26315 0.28352 0.94491 0.0
H699 H 0.2721 0.31943 0.92599 0.0
H700 H 0.23195 0.38614 0.92787 0.0
H701 H 0.25051 0.35675 0.89543 0.0
H702 H 0.15171 0.2914 0.08837 0.0
H703 H 0.17435 0.26295 0.06459 0.0
H704 H 0.1553 0.33402 0.12059 0.0
H705 H 0.16063 0.36915 0.09115 0.0
C706 C 0.16768 0.7591 0.48847 0.0
C707 C 0.17691 0.73063 0.50636 0.0
C708 C 0.12625 0.71731 0.53109 0.0
C709 C 0.11676 0.7449 0.50828 0.0
N710 N 0.12752 0.7902 0.45586 0.0
N711 N 0.16521 0.68113 0.5367 0.0
C712 C 0.13724 0.76534 0.48445 0.0
C713 C 0.15624 0.70926 0.5254 0.0
N714 N 0.188 0.78038 0.47642 0.0
N715 N 0.10676 0.69925 0.55992 0.0
H716 H 0.18709 0.67466 0.53406 0.0
H717 H 0.15085 0.66373 0.54421 0.0
H718 H 0.08462 0.70441 0.56482 0.0
H719 H 0.11289 0.6803 0.58322 0.0
H720 H 0.18273 0.80243 0.47021 0.0
H721 H 0.21048 0.77647 0.47742 0.0
H722 H 0.14117 0.80431 0.43166 0.0
H723 H 0.10537 0.79552 0.45174 0.0
C724 C 0.76386 0.69938 0.94896 0.0
C725 C 0.78194 0.7191 0.98191 0.0
C726 C 0.81136 0.67798 0.02022 0.0
C727 C 0.79378 0.6584 0.98598 0.0
N728 N 0.75724 0.65028 0.90875 0.0
N729 N 0.82632 0.72834 0.03811 0.0
C730 C 0.77126 0.66909 0.94742 0.0
C731 C 0.80676 0.70873 0.01433 0.0
N732 N 0.73895 0.70939 0.92125 0.0
N733 N 0.83179 0.66712 0.05979 0.0
H734 H 0.82373 0.75098 0.03389 0.0
H735 H 0.84636 0.72233 0.05706 0.0
H736 H 0.83635 0.64476 0.06396 0.0
H737 H 0.8429 0.68 0.09129 0.0
H738 H 0.72292 0.69566 0.90324 0.0
H739 H 0.73321 0.73151 0.91967 0.0
H740 H 0.74285 0.65716 0.87489 0.0
H741 H 0.76183 0.62785 0.90706 0.0
C742 C 0.83129 0.26397 0.46497 0.0
C743 C 0.82047 0.28619 0.50419 0.0
C744 C 0.8695 0.29262 0.54787 0.0
C745 C 0.88056 0.27196 0.50573 0.0
N746 N 0.87348 0.24068 0.41884 0.0
N747 N 0.82973 0.32515 0.57554 0.0
C748 C 0.86188 0.25844 0.46266 0.0
C749 C 0.83969 0.30142 0.54384 0.0
N750 N 0.81224 0.24732 0.43169 0.0
N751 N 0.88742 0.3035 0.59225 0.0
H752 H 0.80814 0.33239 0.57299 0.0
H753 H 0.84326 0.33919 0.60012 0.0
H754 H 0.90965 0.29834 0.59528 0.0
H755 H 0.87991 0.31598 0.62856 0.0
H756 H 0.81836 0.22847 0.4083 0.0
H757 H 0.78972 0.25087 0.43112 0.0
H758 H 0.86162 0.23308 0.38166 0.0
H759 H 0.89565 0.23514 0.41705 0.0
C760 C 0.68968 0.21033 0.47767 0.0
C761 C 0.71771 0.21946 0.49825 0.0
C762 C 0.73092 0.16851 0.5214 0.0
C763 C 0.70394 0.15914 0.4959 0.0
N764 N 0.65894 0.17016 0.44316 0.0
N765 N 0.76648 0.20762 0.53288 0.0
C766 C 0.6836 0.1798 0.47229 0.0
C767 C 0.73877 0.19864 0.51815 0.0
N768 N 0.66872 0.23087 0.4645 0.0
N769 N 0.7486 0.14869 0.55049 0.0
H770 H 0.77278 0.22959 0.5331 0.0
H771 H 0.78384 0.19325 0.54057 0.0
H772 H 0.74367 0.12637 0.55363 0.0
H773 H 0.76692 0.15461 0.57589 0.0
H774 H 0.6469 0.22572 0.45569 0.0
H775 H 0.67263 0.25342 0.46664 0.0
H776 H 0.64485 0.18389 0.41908 0.0
H777 H 0.65358 0.14797 0.43936 0.0
C778 C 0.33949 0.21223 0.99065 0.0
C779 C 0.31846 0.23166 0.01553 0.0
C780 C 0.35721 0.26633 0.04318 0.0
C781 C 0.3778 0.24837 0.01268 0.0
N782 N 0.3887 0.20601 0.95122 0.0
N783 N 0.3062 0.27864 0.05911 0.0
C784 C 0.36903 0.2217 0.98488 0.0
C785 C 0.327 0.2591 0.0402 0.0
N786 N 0.33127 0.18457 0.97361 0.0
N787 N 0.36665 0.28986 0.07639 0.0
H788 H 0.2839 0.27382 0.05946 0.0
H789 H 0.31079 0.30035 0.07035 0.0
H790 H 0.38866 0.29593 0.07944 0.0
H791 H 0.3531 0.3019 0.10503 0.0
H792 H 0.34604 0.16826 0.96104 0.0
H793 H 0.30972 0.17708 0.97673 0.0
H794 H 0.38292 0.18816 0.92434 0.0
H795 H 0.41061 0.21215 0.94645 0.0
C796 C 0.26595 0.81254 0.55143 0.0
C797 C 0.28252 0.79345 0.51385 0.0
C798 C 0.30963 0.83551 0.4725 0.0
C799 C 0.29382 0.8544 0.51167 0.0
N800 N 0.26083 0.86095 0.59588 0.0
N801 N 0.3241 0.7856 0.4486 0.0
C802 C 0.27319 0.84289 0.55353 0.0
C803 C 0.30553 0.80462 0.47718 0.0
N804 N 0.24249 0.80193 0.58318 0.0
N805 N 0.32804 0.84718 0.42987 0.0
H806 H 0.32213 0.76288 0.45246 0.0
H807 H 0.34301 0.79215 0.42592 0.0
H808 H 0.33231 0.86963 0.4265 0.0
H809 H 0.33757 0.83492 0.39531 0.0
H810 H 0.22728 0.81525 0.605 0.0
H811 H 0.23691 0.77977 0.5844 0.0
H812 H 0.24824 0.8534 0.63204 0.0
H813 H 0.26502 0.88345 0.59783 0.0
C814 C 0.66703 0.75467 0.02169 0.0
C815 C 0.67613 0.78241 0.99912 0.0
C816 C 0.62536 0.79442 0.97208 0.0
C817 C 0.61609 0.76757 0.99867 0.0
N818 N 0.62702 0.72461 0.05876 0.0
N819 N 0.664 0.83069 0.96169 0.0
C820 C 0.63664 0.74839 0.02637 0.0
C821 C 0.65528 0.80291 0.97691 0.0
N822 N 0.68744 0.73396 0.03701 0.0
N823 N 0.60577 0.81126 0.94043 0.0
H824 H 0.68579 0.8375 0.96386 0.0
H825 H 0.64947 0.84764 0.95154 0.0
H826 H 0.58363 0.80586 0.93639 0.0
H827 H 0.61179 0.82936 0.91432 0.0
H828 H 0.68223 0.71219 0.04678 0.0
H829 H 0.7099 0.73785 0.0352 0.0
H830 H 0.6407 0.71162 0.0855 0.0
H831 H 0.60489 0.71932 0.06335 0.0
loop_
_geom_bond_atom_site_label_1
_geom_bond_atom_site_label_2
_geom_bond_distance
_geom_bond_site_symmetry_2
_ccdc_geom_bond_type
Fe0 O2 1.918 . S
Fe0 O5 1.997 . S
Fe0 O6 2.002 . S
Fe0 O11 1.976 . S
Fe0 O14 1.996 . S
Fe1 O2 1.918 1_556 S
Fe1 O9 1.997 . S
Fe1 O12 1.996 . S
Fe1 O16 1.976 . S
Fe1 O19 2.002 . S
O2 Fe0 1.918 . S
O2 Fe1 1.918 1_554 S
O2 Fe3 1.918 . S
Fe3 O2 1.918 . S
Fe3 O4 2.002 . S
Fe3 O13 1.976 . S
Fe3 O17 1.996 1_554 S
Fe3 O20 1.997 1_554 S
O4 Fe3 2.002 . S
O4 C21 1.295 . S
O5 Fe0 1.997 . S
O5 C21 1.235 . S
O6 Fe0 2.002 . S
O6 C7 1.295 . S
C7 O6 1.295 . S
C7 O9 1.235 1_554 S
C8 O13 1.287 . S
C8 O14 1.255 . S
O9 Fe1 1.997 . S
O9 C7 1.235 1_556 S
C10 O16 1.287 . S
C10 O17 1.255 . S
O11 Fe0 1.976 . S
O11 C18 1.293 . S
O12 Fe1 1.996 . S
O12 C18 1.248 1_556 S
O13 Fe3 1.976 . S
O13 C8 1.287 . S
O14 Fe0 1.996 . S
O14 C8 1.255 . S
C15 O19 1.295 . S
C15 O20 1.235 . S
O16 Fe1 1.976 . S
O16 C10 1.287 . S
O17 Fe3 1.996 1_556 S
O17 C10 1.255 . S
C18 O11 1.293 . S
C18 O12 1.248 1_554 S
O19 Fe1 2.002 . S
O19 C15 1.295 . S
O20 Fe3 1.997 1_556 S
O20 C15 1.235 . S
C21 O4 1.295 . S
C21 O5 1.235 . S
Fe22 O24 1.918 . S
Fe22 O27 1.997 . S
Fe22 O28 2.002 . S
Fe22 O33 1.976 . S
Fe22 O36 1.996 . S
Fe23 O24 1.918 . S
Fe23 O31 1.997 . S
Fe23 O34 1.996 . S
Fe23 O38 1.976 . S
Fe23 O41 2.002 . S
O24 Fe22 1.918 . S
O24 Fe23 1.918 . S
O24 Fe25 1.918 . S
Fe25 O24 1.918 . S
Fe25 O26 2.002 . S
Fe25 O35 1.976 . S
Fe25 O39 1.996 . S
Fe25 O42 1.997 . S
O26 Fe25 2.002 . S
O26 C43 1.295 . S
O27 Fe22 1.997 . S
O27 C43 1.235 . S
O28 Fe22 2.002 . S
O28 C29 1.295 . S
C29 O28 1.295 . S
C29 O31 1.235 . S
C30 O35 1.287 . S
C30 O36 1.255 . S
O31 Fe23 1.997 . S
O31 C29 1.235 . S
C32 O38 1.287 . S
C32 O39 1.255 . S
O33 Fe22 1.976 . S
O33 C40 1.287 . S
O34 Fe23 1.996 . S
O34 C40 1.255 . S
O35 Fe25 1.976 . S
O35 C30 1.287 . S
O36 Fe22 1.996 . S
O36 C30 1.255 . S
C37 O41 1.295 . S
C37 O42 1.235 . S
O38 Fe23 1.976 . S
O38 C32 1.287 . S
O39 Fe25 1.996 . S
O39 C32 1.255 . S
C40 O33 1.287 . S
C40 O34 1.255 . S
O41 Fe23 2.002 . S
O41 C37 1.295 . S
O42 Fe25 1.997 . S
O42 C37 1.235 . S
C43 O26 1.295 . S
C43 O27 1.235 . S
Fe44 O46 1.918 1_556 S
Fe44 O49 1.997 . S
Fe44 O50 2.002 . S
Fe44 O55 1.976 . S
Fe44 O58 1.996 . S
Fe45 O46 1.918 . S
Fe45 O53 1.997 . S
Fe45 O56 1.996 . S
Fe45 O60 1.976 . S
Fe45 O63 2.002 . S
O46 Fe44 1.918 1_554 S
O46 Fe45 1.918 . S
O46 Fe47 1.918 . S
Fe47 O46 1.918 . S
Fe47 O48 2.002 1_554 S
Fe47 O57 1.976 1_554 S
Fe47 O61 1.996 . S
Fe47 O64 1.997 . S
O48 Fe47 2.002 1_556 S
O48 C65 1.295 . S
O49 Fe44 1.997 . S
O49 C65 1.235 . S
O50 Fe44 2.002 . S
O50 C51 1.293 1_556 S
C51 O50 1.293 1_554 S
C51 O53 1.238 . S
C52 O57 1.287 . S
C52 O58 1.255 . S
O53 Fe45 1.997 . S
O53 C51 1.238 . S
C54 O60 1.287 . S
C54 O61 1.255 . S
O55 Fe44 1.976 . S
O55 C62 1.287 1_556 S
O56 Fe45 1.996 . S
O56 C62 1.255 . S
O57 Fe47 1.976 1_556 S
O57 C52 1.287 . S
O58 Fe44 1.996 . S
O58 C52 1.255 . S
C59 O63 1.295 . S
C59 O64 1.235 . S
O60 Fe45 1.976 . S
O60 C54 1.287 . S
O61 Fe47 1.996 . S
O61 C54 1.255 . S
C62 O55 1.287 1_554 S
C62 O56 1.255 . S
O63 Fe45 2.002 . S
O63 C59 1.295 . S
O64 Fe47 1.997 . S
O64 C59 1.235 . S
C65 O48 1.295 . S
C65 O49 1.235 . S
Fe66 O68 1.918 . S
Fe66 O71 1.997 . S
Fe66 O72 2.002 . S
Fe66 O77 1.976 . S
Fe66 O80 1.996 . S
Fe67 O68 1.918 . S
Fe67 O75 1.997 . S
Fe67 O78 1.996 . S
Fe67 O82 1.976 . S
Fe67 O85 2.002 . S
O68 Fe66 1.918 . S
O68 Fe67 1.918 . S
O68 Fe69 1.918 . S
Fe69 O68 1.918 . S
Fe69 O70 2.002 . S
Fe69 O79 1.976 . S
Fe69 O83 1.996 . S
Fe69 O86 1.997 . S
O70 Fe69 2.002 . S
O70 C87 1.295 . S
O71 Fe66 1.997 . S
O71 C87 1.235 . S
O72 Fe66 2.002 . S
O72 C73 1.295 . S
C73 O72 1.295 . S
C73 O75 1.235 . S
C74 O79 1.287 . S
C74 O80 1.255 . S
O75 Fe67 1.997 . S
O75 C73 1.235 . S
C76 O82 1.287 . S
C76 O83 1.255 . S
O77 Fe66 1.976 . S
O77 C84 1.287 . S
O78 Fe67 1.996 . S
O78 C84 1.255 . S
O79 Fe69 1.976 . S
O79 C74 1.287 . S
O80 Fe66 1.996 . S
O80 C74 1.255 . S
C81 O85 1.295 . S
C81 O86 1.235 . S
O82 Fe67 1.976 . S
O82 C76 1.287 . S
O83 Fe69 1.996 . S
O83 C76 1.255 . S
C84 O77 1.287 . S
C84 O78 1.255 . S
O85 Fe67 2.002 . S
O85 C81 1.295 . S
O86 Fe69 1.997 . S
O86 C81 1.235 . S
C87 O70 1.295 . S
C87 O71 1.235 . S
C88 C89 1.386 . S
C88 C90 1.397 . S
C88 H112 0.931 . S
C89 C88 1.386 . S
C89 C93 1.397 . S
C90 C88 1.397 . S
C90 C91 1.384 . S
C90 H113 0.930 . S
C91 C90 1.384 . S
C91 C92 1.377 . S
C91 C94 1.481 . S
C92 C91 1.377 . S
C92 C93 1.389 . S
C92 H114 0.929 . S
C93 C89 1.397 . S
C93 C92 1.389 . S
C93 H115 0.931 . S
C94 C91 1.481 . S
C94 C95 1.387 . S
C94 C99 1.390 1_556 S
C95 C94 1.387 . S
C95 C96 1.401 1_556 S
C95 H116 0.930 . S
C96 C95 1.401 1_554 S
C96 C97 1.376 . S
C96 C105 1.511 . S
C97 C96 1.376 . S
C97 C98 1.392 . S
C97 H118 0.931 . S
C98 C97 1.392 . S
C98 C99 1.361 . S
C98 C100 1.500 . S
C99 C94 1.390 1_554 S
C99 C98 1.361 . S
C99 H117 0.931 . S
C100 C98 1.500 . S
C100 C101 1.371 . S
C100 C102 1.365 . S
C101 C100 1.371 . S
C101 C111 1.386 . S
C101 H119 0.931 . S
C102 C100 1.365 . S
C102 C103 1.409 . S
C102 H120 0.929 . S
C103 C102 1.409 . S
C103 C104 1.380 . S
C103 H121 0.930 . S
C104 C103 1.380 . S
C104 C111 1.357 . S
C105 C96 1.511 . S
C105 C106 1.341 1_554 S
C105 C107 1.371 . S
C106 C105 1.341 1_556 S
C106 C110 1.394 . S
C106 H122 0.930 . S
C107 C105 1.371 . S
C107 C108 1.392 . S
C107 H123 0.931 . S
C108 C107 1.392 . S
C108 C109 1.331 . S
C108 H126 0.932 . S
C109 C108 1.331 . S
C109 C110 1.336 1_554 S
C110 C106 1.394 . S
C110 C109 1.336 1_556 S
C110 H125 0.929 . S
C111 C101 1.386 . S
C111 C104 1.357 . S
C111 H124 0.928 . S
H112 C88 0.931 . S
H113 C90 0.930 . S
H114 C92 0.929 . S
H115 C93 0.931 . S
H116 C95 0.930 . S
H117 C99 0.931 . S
H118 C97 0.931 . S
H119 C101 0.931 . S
H120 C102 0.929 . S
H121 C103 0.930 . S
H122 C106 0.930 . S
H123 C107 0.931 . S
H124 C111 0.928 . S
H125 C110 0.929 . S
H126 C108 0.932 . S
C127 C128 1.386 . S
C127 C129 1.397 . S
C127 H151 0.931 . S
C128 C127 1.386 . S
C128 C132 1.397 . S
C129 C127 1.397 . S
C129 C130 1.384 . S
C129 H152 0.930 . S
C130 C129 1.384 . S
C130 C131 1.377 . S
C130 C133 1.481 . S
C131 C130 1.377 . S
C131 C132 1.389 . S
C131 H153 0.929 . S
C132 C128 1.397 . S
C132 C131 1.389 . S
C132 H154 0.931 . S
C133 C130 1.481 . S
C133 C134 1.387 . S
C133 C138 1.390 . S
C134 C133 1.387 . S
C134 C135 1.401 1_655 S
C134 H155 0.930 1_655 S
C135 C134 1.401 1_455 S
C135 C136 1.376 1_455 S
C135 C144 1.511 . S
C136 C135 1.376 1_655 S
C136 C137 1.392 . S
C136 H157 0.931 1_655 S
C137 C136 1.392 . S
C137 C138 1.361 . S
C137 C139 1.500 . S
C138 C133 1.390 . S
C138 C137 1.361 . S
C138 H156 0.931 . S
C139 C137 1.500 . S
C139 C140 1.371 . S
C139 C141 1.365 . S
C140 C139 1.371 . S
C140 C150 1.386 . S
C140 H158 0.931 . S
C141 C139 1.365 . S
C141 C142 1.409 . S
C141 H159 0.929 . S
C142 C141 1.409 . S
C142 C143 1.380 . S
C142 H160 0.930 . S
C143 C142 1.380 . S
C143 C150 1.357 . S
C144 C135 1.511 . S
C144 C145 1.341 . S
C144 C146 1.371 . S
C145 C144 1.341 . S
C145 C149 1.394 . S
C145 H161 0.930 . S
C146 C144 1.371 . S
C146 C147 1.392 . S
C146 H162 0.931 . S
C147 C146 1.392 . S
C147 C148 1.331 . S
C147 H165 0.932 . S
C148 C147 1.331 . S
C148 C149 1.336 . S
C149 C145 1.394 . S
C149 C148 1.336 . S
C149 H164 0.929 . S
C150 C140 1.386 . S
C150 C143 1.357 . S
C150 H163 0.928 . S
H151 C127 0.931 . S
H152 C129 0.930 . S
H153 C131 0.929 . S
H154 C132 0.931 . S
H155 C134 0.930 1_455 S
H156 C138 0.931 . S
H157 C136 0.931 1_455 S
H158 C140 0.931 . S
H159 C141 0.929 . S
H160 C142 0.930 . S
H161 C145 0.930 . S
H162 C146 0.931 . S
H163 C150 0.928 . S
H164 C149 0.929 . S
H165 C147 0.932 . S
C166 C167 1.386 . S
C166 C168 1.397 . S
C166 H190 0.931 . S
C167 C166 1.386 . S
C167 C171 1.397 . S
C168 C166 1.397 . S
C168 C169 1.384 . S
C168 H191 0.930 . S
C169 C168 1.384 . S
C169 C170 1.377 . S
C169 C172 1.481 . S
C170 C169 1.377 . S
C170 C171 1.389 . S
C170 H192 0.929 . S
C171 C167 1.397 . S
C171 C170 1.389 . S
C171 H193 0.931 . S
C172 C169 1.481 . S
C172 C173 1.387 . S
C172 C177 1.390 . S
C173 C172 1.387 . S
C173 C174 1.403 1_554 S
C173 H194 0.930 . S
C174 C173 1.403 1_556 S
C174 C175 1.374 . S
C174 C183 1.511 1_556 S
C175 C174 1.374 . S
C175 C176 1.392 . S
C175 H196 0.931 . S
C176 C175 1.392 . S
C176 C177 1.361 1_556 S
C176 C178 1.500 . S
C177 C172 1.390 . S
C177 C176 1.361 1_554 S
C177 H195 0.931 . S
C178 C176 1.500 . S
C178 C179 1.371 . S
C178 C180 1.365 . S
C179 C178 1.371 . S
C179 C189 1.386 . S
C179 H197 0.931 . S
C180 C178 1.365 . S
C180 C181 1.409 . S
C180 H198 0.929 . S
C181 C180 1.409 . S
C181 C182 1.380 . S
C181 H199 0.930 . S
C182 C181 1.380 . S
C182 C189 1.357 . S
C183 C174 1.511 1_554 S
C183 C184 1.343 . S
C183 C185 1.369 1_554 S
C184 C183 1.343 . S
C184 C188 1.394 . S
C184 H200 0.930 . S
C185 C183 1.369 1_556 S
C185 C186 1.392 . S
C185 H201 0.931 . S
C186 C185 1.392 . S
C186 C187 1.331 1_556 S
C186 H204 0.932 . S
C187 C186 1.331 1_554 S
C187 C188 1.336 . S
C188 C184 1.394 . S
C188 C187 1.336 . S
C188 H203 0.929 . S
C189 C179 1.386 . S
C189 C182 1.357 . S
C189 H202 0.928 . S
H190 C166 0.931 . S
H191 C168 0.930 . S
H192 C170 0.929 . S
H193 C171 0.931 . S
H194 C173 0.930 . S
H195 C177 0.931 . S
H196 C175 0.931 . S
H197 C179 0.931 . S
H198 C180 0.929 . S
H199 C181 0.930 . S
H200 C184 0.930 . S
H201 C185 0.931 . S
H202 C189 0.928 . S
H203 C188 0.929 . S
H204 C186 0.932 . S
C205 C206 1.386 . S
C205 C207 1.397 . S
C205 H229 0.931 . S
C206 C205 1.386 . S
C206 C210 1.397 . S
C207 C205 1.397 . S
C207 C208 1.384 . S
C207 H230 0.930 . S
C208 C207 1.384 . S
C208 C209 1.377 . S
C208 C211 1.481 . S
C209 C208 1.377 . S
C209 C210 1.389 . S
C209 H231 0.929 . S
C210 C206 1.397 . S
C210 C209 1.389 . S
C210 H232 0.931 . S
C211 C208 1.481 . S
C211 C212 1.387 . S
C211 C216 1.390 . S
C212 C211 1.387 . S
C212 C213 1.401 1_455 S
C212 H233 0.930 1_455 S
C213 C212 1.401 1_655 S
C213 C214 1.376 1_655 S
C213 C222 1.511 . S
C214 C213 1.376 1_455 S
C214 C215 1.392 . S
C214 H235 0.931 1_455 S
C215 C214 1.392 . S
C215 C216 1.361 . S
C215 C217 1.500 . S
C216 C211 1.390 . S
C216 C215 1.361 . S
C216 H234 0.931 . S
C217 C215 1.500 . S
C217 C218 1.371 . S
C217 C219 1.365 . S
C218 C217 1.371 . S
C218 C228 1.386 . S
C218 H236 0.931 . S
C219 C217 1.365 . S
C219 C220 1.409 . S
C219 H237 0.929 . S
C220 C219 1.409 . S
C220 C221 1.380 . S
C220 H238 0.930 . S
C221 C220 1.380 . S
C221 C228 1.357 . S
C222 C213 1.511 . S
C222 C223 1.341 . S
C222 C224 1.371 . S
C223 C222 1.341 . S
C223 C227 1.394 . S
C223 H239 0.930 . S
C224 C222 1.371 . S
C224 C225 1.392 . S
C224 H240 0.931 . S
C225 C224 1.392 . S
C225 C226 1.331 . S
C225 H243 0.932 . S
C226 C225 1.331 . S
C226 C227 1.336 . S
C227 C223 1.394 . S
C227 C226 1.336 . S
C227 H242 0.929 . S
C228 C218 1.386 . S
C228 C221 1.357 . S
C228 H241 0.928 . S
H229 C205 0.931 . S
H230 C207 0.930 . S
H231 C209 0.929 . S
H232 C210 0.931 . S
H233 C212 0.930 1_655 S
H234 C216 0.931 . S
H235 C214 0.931 1_655 S
H236 C218 0.931 . S
H237 C219 0.929 . S
H238 C220 0.930 . S
H239 C223 0.930 . S
H240 C224 0.931 . S
H241 C228 0.928 . S
H242 C227 0.929 . S
H243 C225 0.932 . S
C244 C245 1.386 . S
C244 C246 1.397 . S
C244 H268 0.931 . S
C245 C244 1.386 . S
C245 C249 1.397 . S
C246 C244 1.397 . S
C246 C247 1.384 . S
C246 H269 0.930 . S
C247 C246 1.384 . S
C247 C248 1.377 . S
C247 C250 1.481 . S
C248 C247 1.377 . S
C248 C249 1.389 . S
C248 H270 0.929 . S
C249 C245 1.397 . S
C249 C248 1.389 . S
C249 H271 0.931 . S
C250 C247 1.481 . S
C250 C251 1.387 1_565 S
C250 C255 1.390 . S
C251 C250 1.387 1_545 S
C251 C252 1.401 . S
C251 H272 0.930 . S
C252 C251 1.401 . S
C252 C253 1.376 . S
C252 C261 1.511 . S
C253 C252 1.376 . S
C253 C254 1.392 1_545 S
C253 H274 0.931 . S
C254 C253 1.392 1_565 S
C254 C255 1.361 . S
C254 C256 1.500 . S
C255 C250 1.390 . S
C255 C254 1.361 . S
C255 H273 0.931 . S
C256 C254 1.500 . S
C256 C257 1.371 . S
C256 C258 1.365 . S
C257 C256 1.371 . S
C257 C267 1.386 . S
C257 H275 0.931 . S
C258 C256 1.365 . S
C258 C259 1.409 . S
C258 H276 0.929 . S
C259 C258 1.409 . S
C259 C260 1.380 . S
C259 H277 0.930 . S
C260 C259 1.380 . S
C260 C267 1.357 . S
C261 C252 1.511 . S
C261 C262 1.341 . S
C261 C263 1.371 . S
C262 C261 1.341 . S
C262 C266 1.394 . S
C262 H278 0.930 . S
C263 C261 1.371 . S
C263 C264 1.392 . S
C263 H279 0.931 . S
C264 C263 1.392 . S
C264 C265 1.331 . S
C264 H282 0.932 . S
C265 C264 1.331 . S
C265 C266 1.336 . S
C266 C262 1.394 . S
C266 C265 1.336 . S
C266 H281 0.929 . S
C267 C257 1.386 . S
C267 C260 1.357 . S
C267 H280 0.928 . S
H268 C244 0.931 . S
H269 C246 0.930 . S
H270 C248 0.929 . S
H271 C249 0.931 . S
H272 C251 0.930 . S
H273 C255 0.931 . S
H274 C253 0.931 . S
H275 C257 0.931 . S
H276 C258 0.929 . S
H277 C259 0.930 . S
H278 C262 0.930 . S
H279 C263 0.931 . S
H280 C267 0.928 . S
H281 C266 0.929 . S
H282 C264 0.932 . S
C283 C284 1.386 . S
C283 C285 1.397 . S
C283 H307 0.931 . S
C284 C283 1.386 . S
C284 C288 1.397 . S
C285 C283 1.397 . S
C285 C286 1.384 . S
C285 H308 0.930 . S
C286 C285 1.384 . S
C286 C287 1.377 . S
C286 C289 1.481 . S
C287 C286 1.377 . S
C287 C288 1.389 . S
C287 H309 0.929 . S
C288 C284 1.397 . S
C288 C287 1.389 . S
C288 H310 0.931 . S
C289 C286 1.481 . S
C289 C290 1.387 . S
C289 C294 1.400 . S
C290 C289 1.387 . S
C290 C291 1.390 1_554 S
C290 H311 0.930 . S
C291 C290 1.390 1_556 S
C291 C292 1.387 . S
C291 C300 1.511 . S
C292 C291 1.387 . S
C292 C293 1.392 . S
C292 H313 0.931 . S
C293 C292 1.392 . S
C293 C294 1.351 1_556 S
C293 C295 1.500 . S
C294 C289 1.400 . S
C294 C293 1.351 1_554 S
C294 H312 0.931 . S
C295 C293 1.500 . S
C295 C296 1.371 . S
C295 C297 1.365 . S
C296 C295 1.371 . S
C296 C306 1.386 . S
C296 H314 0.931 . S
C297 C295 1.365 . S
C297 C298 1.409 . S
C297 H315 0.929 . S
C298 C297 1.409 . S
C298 C299 1.380 . S
C298 H316 0.930 . S
C299 C298 1.380 . S
C299 C306 1.357 . S
C300 C291 1.511 . S
C300 C301 1.335 1_556 S
C300 C302 1.377 . S
C301 C300 1.335 1_554 S
C301 C305 1.394 . S
C301 H317 0.930 . S
C302 C300 1.377 . S
C302 C303 1.392 . S
C302 H318 0.931 . S
C303 C302 1.392 . S
C303 C304 1.331 1_556 S
C303 H321 0.932 . S
C304 C303 1.331 1_554 S
C304 C305 1.336 . S
C305 C301 1.394 . S
C305 C304 1.336 . S
C305 H320 0.929 . S
C306 C296 1.386 . S
C306 C299 1.357 . S
C306 H319 0.928 . S
H307 C283 0.931 . S
H308 C285 0.930 . S
H309 C287 0.929 . S
H310 C288 0.931 . S
H311 C290 0.930 . S
H312 C294 0.931 . S
H313 C292 0.931 . S
H314 C296 0.931 . S
H315 C297 0.929 . S
H316 C298 0.930 . S
H317 C301 0.930 . S
H318 C302 0.931 . S
H319 C306 0.928 . S
H320 C305 0.929 . S
H321 C303 0.932 . S
C322 C323 1.386 . S
C322 C324 1.397 . S
C322 H346 0.931 . S
C323 C322 1.386 . S
C323 C327 1.397 . S
C324 C322 1.397 . S
C324 C325 1.384 . S
C324 H347 0.930 . S
C325 C324 1.384 . S
C325 C326 1.377 . S
C325 C328 1.481 . S
C326 C325 1.377 . S
C326 C327 1.389 . S
C326 H348 0.929 . S
C327 C323 1.397 . S
C327 C326 1.389 . S
C327 H349 0.931 . S
C328 C325 1.481 . S
C328 C329 1.387 1_545 S
C328 C333 1.390 . S
C329 C328 1.387 1_565 S
C329 C330 1.401 . S
C329 H350 0.930 . S
C330 C329 1.401 . S
C330 C331 1.389 . S
C330 C339 1.511 . S
C331 C330 1.389 . S
C331 C332 1.368 1_565 S
C331 H352 0.943 . S
C332 C331 1.368 1_545 S
C332 C333 1.361 . S
C332 C334 1.500 . S
C333 C328 1.390 . S
C333 C332 1.361 . S
C333 H351 0.931 . S
C334 C332 1.500 . S
C334 C335 1.371 . S
C334 C336 1.365 . S
C335 C334 1.371 . S
C335 C345 1.386 . S
C335 H353 0.931 . S
C336 C334 1.365 . S
C336 C337 1.409 . S
C336 H354 0.929 . S
C337 C336 1.409 . S
C337 C338 1.380 . S
C337 H355 0.930 . S
C338 C337 1.380 . S
C338 C345 1.357 . S
C339 C330 1.511 . S
C339 C340 1.341 . S
C339 C341 1.371 . S
C340 C339 1.341 . S
C340 C344 1.394 . S
C340 H356 0.930 . S
C341 C339 1.371 . S
C341 C342 1.392 . S
C341 H357 0.931 . S
C342 C341 1.392 . S
C342 C343 1.331 . S
C342 H360 0.932 . S
C343 C342 1.331 . S
C343 C344 1.336 . S
C344 C340 1.394 . S
C344 C343 1.336 . S
C344 H359 0.929 . S
C345 C335 1.386 . S
C345 C338 1.357 . S
C345 H358 0.928 . S
H346 C322 0.931 . S
H347 C324 0.930 . S
H348 C326 0.929 . S
H349 C327 0.931 . S
H350 C329 0.930 . S
H351 C333 0.931 . S
H352 C331 0.943 . S
H353 C335 0.931 . S
H354 C336 0.929 . S
H355 C337 0.930 . S
H356 C340 0.930 . S
H357 C341 0.931 . S
H358 C345 0.928 . S
H359 C344 0.929 . S
H360 C342 0.932 . S
C361 C362 1.386 . S
C361 C363 1.397 . S
C361 H385 0.931 . S
C362 C361 1.386 . S
C362 C366 1.397 . S
C363 C361 1.397 . S
C363 C364 1.384 . S
C363 H386 0.930 . S
C364 C363 1.384 . S
C364 C365 1.377 . S
C364 C367 1.481 . S
C365 C364 1.377 . S
C365 C366 1.389 . S
C365 H387 0.929 . S
C366 C362 1.397 . S
C366 C365 1.389 . S
C366 H388 0.931 . S
C367 C364 1.481 . S
C367 C368 1.387 . S
C367 C372 1.390 1_556 S
C368 C367 1.387 . S
C368 C369 1.401 1_556 S
C368 H389 0.930 . S
C369 C368 1.401 1_554 S
C369 C370 1.376 . S
C369 C378 1.511 . S
C370 C369 1.376 . S
C370 C371 1.392 . S
C370 H391 0.931 . S
C371 C370 1.392 . S
C371 C372 1.361 . S
C371 C373 1.500 . S
C372 C367 1.390 1_554 S
C372 C371 1.361 . S
C372 H390 0.931 . S
C373 C371 1.500 . S
C373 C374 1.371 . S
C373 C375 1.365 . S
C374 C373 1.371 . S
C374 C384 1.386 . S
C374 H392 0.931 . S
C375 C373 1.365 . S
C375 C376 1.409 . S
C375 H393 0.929 . S
C376 C375 1.409 . S
C376 C377 1.380 . S
C376 H394 0.930 . S
C377 C376 1.380 . S
C377 C384 1.357 . S
C378 C369 1.511 . S
C378 C379 1.341 1_554 S
C378 C380 1.371 . S
C379 C378 1.341 1_556 S
C379 C383 1.394 . S
C379 H395 0.930 . S
C380 C378 1.371 . S
C380 C381 1.392 . S
C380 H396 0.931 . S
C381 C380 1.392 . S
C381 C382 1.331 . S
C381 H399 0.932 . S
C382 C381 1.331 . S
C382 C383 1.336 1_554 S
C383 C379 1.394 . S
C383 C382 1.336 1_556 S
C383 H398 0.929 . S
C384 C374 1.386 . S
C384 C377 1.357 . S
C384 H397 0.928 . S
H385 C361 0.931 . S
H386 C363 0.930 . S
H387 C365 0.929 . S
H388 C366 0.931 . S
H389 C368 0.930 . S
H390 C372 0.931 . S
H391 C370 0.931 . S
H392 C374 0.931 . S
H393 C375 0.929 . S
H394 C376 0.930 . S
H395 C379 0.930 . S
H396 C380 0.931 . S
H397 C384 0.928 . S
H398 C383 0.929 . S
H399 C381 0.932 . S
C400 C401 1.363 . S
C400 C406 1.379 . S
C400 N408 1.356 . S
C401 C400 1.363 . S
C401 C407 1.363 . S
C402 C403 1.363 . S
C402 C407 1.379 . S
C402 N409 1.356 . S
C403 C402 1.363 . S
C403 C406 1.363 . S
N404 C406 1.356 . S
N404 H416 0.984 . S
N404 H417 0.985 . S
N405 C407 1.356 . S
N405 H410 0.984 . S
N405 H411 0.985 . S
C406 C400 1.379 . S
C406 C403 1.363 . S
C406 N404 1.356 . S
C407 C401 1.363 . S
C407 C402 1.379 . S
C407 N405 1.356 . S
N408 C400 1.356 . S
N408 H414 0.984 . S
N408 H415 0.984 . S
N409 C402 1.356 . S
N409 H412 0.984 . S
N409 H413 0.985 . S
H410 N405 0.984 . S
H411 N405 0.985 . S
H412 N409 0.984 . S
H413 N409 0.985 . S
H414 N408 0.984 . S
H415 N408 0.984 . S
H416 N404 0.984 . S
H417 N404 0.985 . S
C418 C419 1.363 . S
C418 C424 1.379 . S
C418 N426 1.356 . S
C419 C418 1.363 . S
C419 C425 1.363 . S
C420 C421 1.363 . S
C420 C425 1.379 . S
C420 N427 1.356 . S
C421 C420 1.363 . S
C421 C424 1.363 . S
N422 C424 1.356 . S
N422 H434 0.984 . S
N422 H435 0.985 . S
N423 C425 1.356 . S
N423 H428 0.984 . S
N423 H429 0.985 . S
C424 C418 1.379 . S
C424 C421 1.363 . S
C424 N422 1.356 . S
C425 C419 1.363 . S
C425 C420 1.379 . S
C425 N423 1.356 . S
N426 C418 1.356 . S
N426 H432 0.984 . S
N426 H433 0.984 . S
N427 C420 1.356 . S
N427 H430 0.984 . S
N427 H431 0.985 . S
H428 N423 0.984 . S
H429 N423 0.985 . S
H430 N427 0.984 . S
H431 N427 0.985 . S
H432 N426 0.984 . S
H433 N426 0.984 . S
H434 N422 0.984 . S
H435 N422 0.985 . S
C436 C437 1.363 . S
C436 C442 1.379 . S
C436 N444 1.356 . S
C437 C436 1.363 . S
C437 C443 1.363 . S
C438 C439 1.363 . S
C438 C443 1.379 . S
C438 N445 1.356 . S
C439 C438 1.363 . S
C439 C442 1.363 . S
N440 C442 1.356 . S
N440 H452 0.984 . S
N440 H453 0.985 . S
N441 C443 1.356 . S
N441 H446 0.984 . S
N441 H447 0.985 . S
C442 C436 1.379 . S
C442 C439 1.363 . S
C442 N440 1.356 . S
C443 C437 1.363 . S
C443 C438 1.379 . S
C443 N441 1.356 . S
N444 C436 1.356 . S
N444 H450 0.984 . S
N444 H451 0.984 . S
N445 C438 1.356 . S
N445 H448 0.984 . S
N445 H449 0.985 . S
H446 N441 0.984 . S
H447 N441 0.985 . S
H448 N445 0.984 . S
H449 N445 0.985 . S
H450 N444 0.984 . S
H451 N444 0.984 . S
H452 N440 0.984 . S
H453 N440 0.985 . S
C454 C455 1.363 . S
C454 C460 1.379 . S
C454 N462 1.356 . S
C455 C454 1.363 . S
C455 C461 1.363 . S
C456 C457 1.363 . S
C456 C461 1.379 . S
C456 N463 1.356 . S
C457 C456 1.363 . S
C457 C460 1.363 . S
N458 C460 1.356 . S
N458 H470 0.984 . S
N458 H471 0.985 . S
N459 C461 1.356 . S
N459 H464 0.984 . S
N459 H465 0.985 . S
C460 C454 1.379 . S
C460 C457 1.363 . S
C460 N458 1.356 . S
C461 C455 1.363 . S
C461 C456 1.379 . S
C461 N459 1.356 . S
N462 C454 1.356 . S
N462 H468 0.984 . S
N462 H469 0.984 . S
N463 C456 1.356 . S
N463 H466 0.984 . S
N463 H467 0.985 . S
H464 N459 0.984 . S
H465 N459 0.985 . S
H466 N463 0.984 . S
H467 N463 0.985 . S
H468 N462 0.984 . S
H469 N462 0.984 . S
H470 N458 0.984 . S
H471 N458 0.985 . S
C472 C473 1.363 . S
C472 C478 1.379 . S
C472 N480 1.356 . S
C473 C472 1.363 . S
C473 C479 1.363 . S
C474 C475 1.363 . S
C474 C479 1.379 . S
C474 N481 1.356 . S
C475 C474 1.363 . S
C475 C478 1.363 . S
N476 C478 1.356 . S
N476 H488 0.984 . S
N476 H489 0.985 . S
N477 C479 1.356 . S
N477 H482 0.984 . S
N477 H483 0.985 . S
C478 C472 1.379 . S
C478 C475 1.363 . S
C478 N476 1.356 . S
C479 C473 1.363 . S
C479 C474 1.379 . S
C479 N477 1.356 . S
N480 C472 1.356 . S
N480 H486 0.984 . S
N480 H487 0.984 . S
N481 C474 1.356 . S
N481 H484 0.984 . S
N481 H485 0.985 . S
H482 N477 0.984 . S
H483 N477 0.985 . S
H484 N481 0.984 . S
H485 N481 0.985 . S
H486 N480 0.984 . S
H487 N480 0.984 . S
H488 N476 0.984 . S
H489 N476 0.985 . S
C490 C491 1.363 . S
C490 C496 1.379 . S
C490 N498 1.356 . S
C491 C490 1.363 . S
C491 C497 1.363 . S
C492 C493 1.363 . S
C492 C497 1.379 . S
C492 N499 1.356 . S
C493 C492 1.363 . S
C493 C496 1.363 . S
N494 C496 1.356 . S
N494 H506 0.984 . S
N494 H507 0.985 . S
N495 C497 1.356 . S
N495 H500 0.984 . S
N495 H501 0.985 . S
C496 C490 1.379 . S
C496 C493 1.363 . S
C496 N494 1.356 . S
C497 C491 1.363 . S
C497 C492 1.379 . S
C497 N495 1.356 . S
N498 C490 1.356 . S
N498 H504 0.984 . S
N498 H505 0.984 . S
N499 C492 1.356 . S
N499 H502 0.984 . S
N499 H503 0.985 . S
H500 N495 0.984 . S
H501 N495 0.985 . S
H502 N499 0.984 . S
H503 N499 0.985 . S
H504 N498 0.984 . S
H505 N498 0.984 . S
H506 N494 0.984 . S
H507 N494 0.985 . S
C508 C509 1.363 . S
C508 C514 1.379 . S
C508 N516 1.356 . S
C509 C508 1.363 . S
C509 C515 1.363 . S
C510 C511 1.363 . S
C510 C515 1.379 . S
C510 N517 1.356 . S
C511 C510 1.363 . S
C511 C514 1.363 . S
N512 C514 1.356 . S
N512 H524 0.984 . S
N512 H525 0.985 . S
N513 C515 1.356 . S
N513 H518 0.984 . S
N513 H519 0.985 . S
C514 C508 1.379 . S
C514 C511 1.363 . S
C514 N512 1.356 . S
C515 C509 1.363 . S
C515 C510 1.379 . S
C515 N513 1.356 . S
N516 C508 1.356 . S
N516 H522 0.984 . S
N516 H523 0.984 . S
N517 C510 1.356 . S
N517 H520 0.984 . S
N517 H521 0.985 . S
H518 N513 0.984 . S
H519 N513 0.985 . S
H520 N517 0.984 . S
H521 N517 0.985 . S
H522 N516 0.984 . S
H523 N516 0.984 . S
H524 N512 0.984 . S
H525 N512 0.985 . S
C526 C527 1.363 . S
C526 C532 1.379 . S
C526 N534 1.356 . S
C527 C526 1.363 . S
C527 C533 1.363 . S
C528 C529 1.363 . S
C528 C533 1.379 . S
C528 N535 1.356 . S
C529 C528 1.363 . S
C529 C532 1.363 . S
N530 C532 1.356 . S
N530 H542 0.984 . S
N530 H543 0.985 . S
N531 C533 1.356 . S
N531 H536 0.984 . S
N531 H537 0.985 . S
C532 C526 1.379 . S
C532 C529 1.363 . S
C532 N530 1.356 . S
C533 C527 1.363 . S
C533 C528 1.379 . S
C533 N531 1.356 . S
N534 C526 1.356 . S
N534 H540 0.984 . S
N534 H541 0.984 . S
N535 C528 1.356 . S
N535 H538 0.984 . S
N535 H539 0.985 . S
H536 N531 0.984 . S
H537 N531 0.985 . S
H538 N535 0.984 . S
H539 N535 0.985 . S
H540 N534 0.984 . S
H541 N534 0.984 . S
H542 N530 0.984 . S
H543 N530 0.985 . S
C544 C545 1.363 . S
C544 C550 1.379 . S
C544 N552 1.356 . S
C545 C544 1.363 . S
C545 C551 1.363 . S
C546 C547 1.363 . S
C546 C551 1.379 . S
C546 N553 1.356 . S
C547 C546 1.363 . S
C547 C550 1.363 . S
N548 C550 1.356 . S
N548 H560 0.984 . S
N548 H561 0.985 . S
N549 C551 1.356 . S
N549 H554 0.984 . S
N549 H555 0.985 . S
C550 C544 1.379 . S
C550 C547 1.363 . S
C550 N548 1.356 . S
C551 C545 1.363 . S
C551 C546 1.379 . S
C551 N549 1.356 . S
N552 C544 1.356 . S
N552 H558 0.984 . S
N552 H559 0.984 . S
N553 C546 1.356 . S
N553 H556 0.984 . S
N553 H557 0.985 . S
H554 N549 0.984 . S
H555 N549 0.985 . S
H556 N553 0.984 . S
H557 N553 0.985 . S
H558 N552 0.984 . S
H559 N552 0.984 . S
H560 N548 0.984 . S
H561 N548 0.985 . S
C562 C563 1.363 . S
C562 C568 1.379 . S
C562 N570 1.356 . S
C563 C562 1.363 . S
C563 C569 1.363 . S
C564 C565 1.363 . S
C564 C569 1.379 . S
C564 N571 1.356 . S
C565 C564 1.363 . S
C565 C568 1.363 . S
N566 C568 1.356 . S
N566 H578 0.984 . S
N566 H579 0.985 . S
N567 C569 1.356 . S
N567 H572 0.984 . S
N567 H573 0.985 . S
C568 C562 1.379 . S
C568 C565 1.363 . S
C568 N566 1.356 . S
C569 C563 1.363 . S
C569 C564 1.379 . S
C569 N567 1.356 . S
N570 C562 1.356 . S
N570 H576 0.984 . S
N570 H577 0.984 . S
N571 C564 1.356 . S
N571 H574 0.984 . S
N571 H575 0.985 . S
H572 N567 0.984 . S
H573 N567 0.985 . S
H574 N571 0.984 . S
H575 N571 0.985 . S
H576 N570 0.984 . S
H577 N570 0.984 . S
H578 N566 0.984 . S
H579 N566 0.985 . S
C580 C581 1.363 . S
C580 C586 1.379 . S
C580 N588 1.356 . S
C581 C580 1.363 . S
C581 C587 1.363 . S
C582 C583 1.363 . S
C582 C587 1.379 . S
C582 N589 1.356 . S
C583 C582 1.363 . S
C583 C586 1.363 . S
N584 C586 1.356 . S
N584 H596 0.984 . S
N584 H597 0.985 . S
N585 C587 1.356 . S
N585 H590 0.984 . S
N585 H591 0.985 . S
C586 C580 1.379 . S
C586 C583 1.363 . S
C586 N584 1.356 . S
C587 C581 1.363 . S
C587 C582 1.379 . S
C587 N585 1.356 . S
N588 C580 1.356 . S
N588 H594 0.984 . S
N588 H595 0.984 . S
N589 C582 1.356 . S
N589 H592 0.984 . S
N589 H593 0.985 . S
H590 N585 0.984 . S
H591 N585 0.985 . S
H592 N589 0.984 . S
H593 N589 0.985 . S
H594 N588 0.984 . S
H595 N588 0.984 . S
H596 N584 0.984 . S
H597 N584 0.985 . S
C598 C599 1.363 . S
C598 C604 1.379 . S
C598 N606 1.356 . S
C599 C598 1.363 . S
C599 C605 1.363 . S
C600 C601 1.363 . S
C600 C605 1.379 . S
C600 N607 1.356 . S
C601 C600 1.363 . S
C601 C604 1.363 . S
N602 C604 1.356 . S
N602 H614 0.984 . S
N602 H615 0.985 . S
N603 C605 1.356 . S
N603 H608 0.984 . S
N603 H609 0.985 . S
C604 C598 1.379 . S
C604 C601 1.363 . S
C604 N602 1.356 . S
C605 C599 1.363 . S
C605 C600 1.379 . S
C605 N603 1.356 . S
N606 C598 1.356 . S
N606 H612 0.984 . S
N606 H613 0.984 . S
N607 C600 1.356 . S
N607 H610 0.984 . S
N607 H611 0.985 . S
H608 N603 0.984 . S
H609 N603 0.985 . S
H610 N607 0.984 . S
H611 N607 0.985 . S
H612 N606 0.984 . S
H613 N606 0.984 . S
H614 N602 0.984 . S
H615 N602 0.985 . S
C616 C617 1.363 . S
C616 C622 1.379 . S
C616 N624 1.356 . S
C617 C616 1.363 . S
C617 C623 1.363 . S
C618 C619 1.363 . S
C618 C623 1.379 . S
C618 N625 1.356 . S
C619 C618 1.363 . S
C619 C622 1.363 . S
N620 C622 1.356 . S
N620 H632 0.984 . S
N620 H633 0.985 . S
N621 C623 1.356 . S
N621 H626 0.984 . S
N621 H627 0.985 . S
C622 C616 1.379 . S
C622 C619 1.363 . S
C622 N620 1.356 . S
C623 C617 1.363 . S
C623 C618 1.379 . S
C623 N621 1.356 . S
N624 C616 1.356 . S
N624 H630 0.984 . S
N624 H631 0.984 . S
N625 C618 1.356 . S
N625 H628 0.984 . S
N625 H629 0.985 . S
H626 N621 0.984 . S
H627 N621 0.985 . S
H628 N625 0.984 . S
H629 N625 0.985 . S
H630 N624 0.984 . S
H631 N624 0.984 . S
H632 N620 0.984 . S
H633 N620 0.985 . S
C634 C635 1.363 . S
C634 C640 1.379 . S
C634 N642 1.356 . S
C635 C634 1.363 . S
C635 C641 1.363 . S
C636 C637 1.363 . S
C636 C641 1.379 . S
C636 N643 1.356 . S
C637 C636 1.363 . S
C637 C640 1.363 . S
N638 C640 1.356 . S
N638 H650 0.984 . S
N638 H651 0.985 . S
N639 C641 1.356 . S
N639 H644 0.984 . S
N639 H645 0.985 . S
C640 C634 1.379 . S
C640 C637 1.363 . S
C640 N638 1.356 . S
C641 C635 1.363 . S
C641 C636 1.379 . S
C641 N639 1.356 . S
N642 C634 1.356 . S
N642 H648 0.984 . S
N642 H649 0.984 . S
N643 C636 1.356 . S
N643 H646 0.984 . S
N643 H647 0.985 . S
H644 N639 0.984 . S
H645 N639 0.985 . S
H646 N643 0.984 . S
H647 N643 0.985 . S
H648 N642 0.984 . S
H649 N642 0.984 . S
H650 N638 0.984 . S
H651 N638 0.985 . S
C652 C653 1.363 . S
C652 C658 1.379 . S
C652 N660 1.356 . S
C653 C652 1.363 . S
C653 C659 1.363 . S
C654 C655 1.363 . S
C654 C659 1.379 . S
C654 N661 1.356 . S
C655 C654 1.363 . S
C655 C658 1.363 . S
N656 C658 1.356 . S
N656 H668 0.984 . S
N656 H669 0.985 . S
N657 C659 1.356 . S
N657 H662 0.984 . S
N657 H663 0.985 . S
C658 C652 1.379 . S
C658 C655 1.363 . S
C658 N656 1.356 . S
C659 C653 1.363 . S
C659 C654 1.379 . S
C659 N657 1.356 . S
N660 C652 1.356 . S
N660 H666 0.984 . S
N660 H667 0.984 . S
N661 C654 1.356 . S
N661 H664 0.984 . S
N661 H665 0.985 . S
H662 N657 0.984 . S
H663 N657 0.985 . S
H664 N661 0.984 . S
H665 N661 0.985 . S
H666 N660 0.984 . S
H667 N660 0.984 . S
H668 N656 0.984 . S
H669 N656 0.985 . S
C670 C671 1.363 . S
C670 C676 1.379 . S
C670 N678 1.356 . S
C671 C670 1.363 . S
C671 C677 1.363 . S
C672 C673 1.363 . S
C672 C677 1.379 . S
C672 N679 1.356 . S
C673 C672 1.363 . S
C673 C676 1.363 . S
N674 C676 1.356 . S
N674 H686 0.984 . S
N674 H687 0.985 . S
N675 C677 1.356 . S
N675 H680 0.984 . S
N675 H681 0.985 . S
C676 C670 1.379 . S
C676 C673 1.363 . S
C676 N674 1.356 . S
C677 C671 1.363 . S
C677 C672 1.379 . S
C677 N675 1.356 . S
N678 C670 1.356 . S
N678 H684 0.984 . S
N678 H685 0.984 . S
N679 C672 1.356 . S
N679 H682 0.984 . S
N679 H683 0.985 . S
H680 N675 0.984 . S
H681 N675 0.985 . S
H682 N679 0.984 . S
H683 N679 0.985 . S
H684 N678 0.984 . S
H685 N678 0.984 . S
H686 N674 0.984 . S
H687 N674 0.985 . S
C688 C689 1.363 . S
C688 C694 1.379 . S
C688 N696 1.356 . S
C689 C688 1.363 . S
C689 C695 1.363 1_554 S
C690 C691 1.363 1_556 S
C690 C695 1.379 . S
C690 N697 1.356 . S
C691 C690 1.363 1_554 S
C691 C694 1.363 . S
N692 C694 1.356 . S
N692 H704 0.984 . S
N692 H705 0.985 . S
N693 C695 1.356 . S
N693 H698 0.984 . S
N693 H699 0.985 . S
C694 C688 1.379 . S
C694 C691 1.363 . S
C694 N692 1.356 . S
C695 C689 1.363 1_556 S
C695 C690 1.379 . S
C695 N693 1.356 . S
N696 C688 1.356 . S
N696 H702 0.984 . S
N696 H703 0.984 . S
N697 C690 1.356 . S
N697 H700 0.984 . S
N697 H701 0.985 . S
H698 N693 0.984 . S
H699 N693 0.985 . S
H700 N697 0.984 . S
H701 N697 0.985 . S
H702 N696 0.984 . S
H703 N696 0.984 . S
H704 N692 0.984 . S
H705 N692 0.985 . S
C706 C707 1.363 . S
C706 C712 1.379 . S
C706 N714 1.356 . S
C707 C706 1.363 . S
C707 C713 1.363 . S
C708 C709 1.363 . S
C708 C713 1.379 . S
C708 N715 1.356 . S
C709 C708 1.363 . S
C709 C712 1.363 . S
N710 C712 1.356 . S
N710 H722 0.984 . S
N710 H723 0.985 . S
N711 C713 1.356 . S
N711 H716 0.984 . S
N711 H717 0.985 . S
C712 C706 1.379 . S
C712 C709 1.363 . S
C712 N710 1.356 . S
C713 C707 1.363 . S
C713 C708 1.379 . S
C713 N711 1.356 . S
N714 C706 1.356 . S
N714 H720 0.984 . S
N714 H721 0.984 . S
N715 C708 1.356 . S
N715 H718 0.984 . S
N715 H719 0.985 . S
H716 N711 0.984 . S
H717 N711 0.985 . S
H718 N715 0.984 . S
H719 N715 0.985 . S
H720 N714 0.984 . S
H721 N714 0.984 . S
H722 N710 0.984 . S
H723 N710 0.985 . S
C724 C725 1.363 1_556 S
C724 C730 1.379 . S
C724 N732 1.356 . S
C725 C724 1.363 1_554 S
C725 C731 1.363 . S
C726 C727 1.363 . S
C726 C731 1.379 . S
C726 N733 1.356 . S
C727 C726 1.363 . S
C727 C730 1.363 1_554 S
N728 C730 1.356 . S
N728 H740 0.984 . S
N728 H741 0.985 . S
N729 C731 1.356 . S
N729 H734 0.984 . S
N729 H735 0.985 . S
C730 C724 1.379 . S
C730 C727 1.363 1_556 S
C730 N728 1.356 . S
C731 C725 1.363 . S
C731 C726 1.379 . S
C731 N729 1.356 . S
N732 C724 1.356 . S
N732 H738 0.984 . S
N732 H739 0.984 . S
N733 C726 1.356 . S
N733 H736 0.984 . S
N733 H737 0.985 . S
H734 N729 0.984 . S
H735 N729 0.985 . S
H736 N733 0.984 . S
H737 N733 0.985 . S
H738 N732 0.984 . S
H739 N732 0.984 . S
H740 N728 0.984 . S
H741 N728 0.985 . S
C742 C743 1.363 . S
C742 C748 1.379 . S
C742 N750 1.356 . S
C743 C742 1.363 . S
C743 C749 1.363 . S
C744 C745 1.363 . S
C744 C749 1.379 . S
C744 N751 1.356 . S
C745 C744 1.363 . S
C745 C748 1.363 . S
N746 C748 1.356 . S
N746 H758 0.984 . S
N746 H759 0.985 . S
N747 C749 1.356 . S
N747 H752 0.984 . S
N747 H753 0.985 . S
C748 C742 1.379 . S
C748 C745 1.363 . S
C748 N746 1.356 . S
C749 C743 1.363 . S
C749 C744 1.379 . S
C749 N747 1.356 . S
N750 C742 1.356 . S
N750 H756 0.984 . S
N750 H757 0.984 . S
N751 C744 1.356 . S
N751 H754 0.984 . S
N751 H755 0.985 . S
H752 N747 0.984 . S
H753 N747 0.985 . S
H754 N751 0.984 . S
H755 N751 0.985 . S
H756 N750 0.984 . S
H757 N750 0.984 . S
H758 N746 0.984 . S
H759 N746 0.985 . S
C760 C761 1.363 . S
C760 C766 1.379 . S
C760 N768 1.356 . S
C761 C760 1.363 . S
C761 C767 1.363 . S
C762 C763 1.363 . S
C762 C767 1.379 . S
C762 N769 1.356 . S
C763 C762 1.363 . S
C763 C766 1.363 . S
N764 C766 1.356 . S
N764 H776 0.984 . S
N764 H777 0.985 . S
N765 C767 1.356 . S
N765 H770 0.984 . S
N765 H771 0.985 . S
C766 C760 1.379 . S
C766 C763 1.363 . S
C766 N764 1.356 . S
C767 C761 1.363 . S
C767 C762 1.379 . S
C767 N765 1.356 . S
N768 C760 1.356 . S
N768 H774 0.984 . S
N768 H775 0.984 . S
N769 C762 1.356 . S
N769 H772 0.984 . S
N769 H773 0.985 . S
H770 N765 0.984 . S
H771 N765 0.985 . S
H772 N769 0.984 . S
H773 N769 0.985 . S
H774 N768 0.984 . S
H775 N768 0.984 . S
H776 N764 0.984 . S
H777 N764 0.985 . S
C778 C779 1.363 1_556 S
C778 C784 1.379 . S
C778 N786 1.356 . S
C779 C778 1.363 1_554 S
C779 C785 1.363 . S
C780 C781 1.363 . S
C780 C785 1.379 . S
C780 N787 1.356 . S
C781 C780 1.363 . S
C781 C784 1.363 1_554 S
N782 C784 1.356 . S
N782 H794 0.984 . S
N782 H795 0.985 . S
N783 C785 1.356 . S
N783 H788 0.984 . S
N783 H789 0.985 . S
C784 C778 1.379 . S
C784 C781 1.363 1_556 S
C784 N782 1.356 . S
C785 C779 1.363 . S
C785 C780 1.379 . S
C785 N783 1.356 . S
N786 C778 1.356 . S
N786 H792 0.984 . S
N786 H793 0.984 . S
N787 C780 1.356 . S
N787 H790 0.984 . S
N787 H791 0.985 . S
H788 N783 0.984 . S
H789 N783 0.985 . S
H790 N787 0.984 . S
H791 N787 0.985 . S
H792 N786 0.984 . S
H793 N786 0.984 . S
H794 N782 0.984 . S
H795 N782 0.985 . S
C796 C797 1.363 . S
C796 C802 1.379 . S
C796 N804 1.356 . S
C797 C796 1.363 . S
C797 C803 1.363 . S
C798 C799 1.363 . S
C798 C803 1.379 . S
C798 N805 1.356 . S
C799 C798 1.363 . S
C799 C802 1.363 . S
N800 C802 1.356 . S
N800 H812 0.984 . S
N800 H813 0.985 . S
N801 C803 1.356 . S
N801 H806 0.984 . S
N801 H807 0.985 . S
C802 C796 1.379 . S
C802 C799 1.363 . S
C802 N800 1.356 . S
C803 C797 1.363 . S
C803 C798 1.379 . S
C803 N801 1.356 . S
N804 C796 1.356 . S
N804 H810 0.984 . S
N804 H811 0.984 . S
N805 C798 1.356 . S
N805 H808 0.984 . S
N805 H809 0.985 . S
H806 N801 0.984 . S
H807 N801 0.985 . S
H808 N805 0.984 . S
H809 N805 0.985 . S
H810 N804 0.984 . S
H811 N804 0.984 . S
H812 N800 0.984 . S
H813 N800 0.985 . S
C814 C815 1.363 . S
C814 C820 1.379 . S
C814 N822 1.356 . S
C815 C814 1.363 . S
C815 C821 1.363 1_554 S
C816 C817 1.363 1_556 S
C816 C821 1.379 . S
C816 N823 1.356 . S
C817 C816 1.363 1_554 S
C817 C820 1.363 . S
N818 C820 1.356 . S
N818 H830 0.984 . S
N818 H831 0.985 . S
N819 C821 1.356 . S
N819 H824 0.984 . S
N819 H825 0.985 . S
C820 C814 1.379 . S
C820 C817 1.363 . S
C820 N818 1.356 . S
C821 C815 1.363 1_556 S
C821 C816 1.379 . S
C821 N819 1.356 . S
N822 C814 1.356 . S
N822 H828 0.984 . S
N822 H829 0.984 . S
N823 C816 1.356 . S
N823 H826 0.984 . S
N823 H827 0.985 . S
H824 N819 0.984 . S
H825 N819 0.985 . S
H826 N823 0.984 . S
H827 N823 0.985 . S
H828 N822 0.984 . S
H829 N822 0.984 . S
H830 N818 0.984 . S
H831 N818 0.985 . S
C401 C21 1.668 . S
C403 C221 1.637 . S
C419 C40 1.819 . S
C421 C89 1.728 . S
C439 C128 1.603 . S
C437 C54 1.655 . S
C455 C73 1.859 . S
C457 C182 1.758 . S
C475 C284 1.604 . S
C473 C74 1.656 . S
C493 C338 1.723 . S
C491 C10 1.817 . S
C511 C377 1.637 . S
C509 C37 1.667 . S
C529 C245 1.763 . S
C527 C65 1.860 . S
C545 C52 1.664 . S
C547 C143 1.610 . S
C563 C87 1.856 . S
C565 C167 1.751 . S
C581 C15 1.677 . S
C583 C206 1.647 . S
C601 C104 1.714 . S
C599 C32 1.811 . S
C617 C29 1.677 . S
C619 C362 1.648 . S
C637 C260 1.751 . S
C635 C59 1.855 . S
C655 C299 1.610 . S
C653 C84 1.664 . S
C671 C8 1.812 . S
C673 C323 1.714 . S
C691 C109 1.817 . S
C689 C7 1.903 . S
C709 C148 1.669 . S
C707 C30 1.706 . S
C725 C62 1.910 . S
C727 C187 1.810 . S
C743 C81 1.672 . S
C745 C226 1.684 . S
C763 C265 1.834 . S
C761 C76 1.910 . S
C779 C18 1.706 . S
C781 C304 1.669 . S
C797 C43 1.903 . S
C799 C343 1.793 . S
C815 C51 1.672 . S
C817 C382 1.684 . S
