# Generated by pormake.
# Topology pth, (4,4)-cn, num edge types: 1
# Building blocks:
#     Node 0, Type 0, BuildingBlock: TATPOV_clean_sbu_0, # of connection points: 4
#     Node 1, Type 0, BuildingBlock: TATPOV_clean_sbu_0, # of connection points: 4
#     Node 2, Type 0, BuildingBlock: TATPOV_clean_sbu_0, # of connection points: 4
#     Node 3, Type 1, BuildingBlock: NAWXER_clean_linker_0, # of connection points: 4
#     Node 4, Type 1, BuildingBlock: NAWXER_clean_linker_0, # of connection points: 4
#     Node 5, Type 1, BuildingBlock: NAWXER_clean_linker_0, # of connection points: 4
#     Edge 6, Type (0, 1), BuildingBlock: XUDNAN_clean_linker_2, # of connection points: 2
#     Edge 7, Type (0, 1), BuildingBlock: XUDNAN_clean_linker_2, # of connection points: 2
#     Edge 8, Type (0, 1), BuildingBlock: XUDNAN_clean_linker_2, # of connection points: 2
#     Edge 9, Type (0, 1), BuildingBlock: XUDNAN_clean_linker_2, # of connection points: 2
#     Edge 10, Type (0, 1), BuildingBlock: XUDNAN_clean_linker_2, # of connection points: 2
#     Edge 11, Type (0, 1), BuildingBlock: XUDNAN_clean_linker_2, # of connection points: 2
#     Edge 12, Type (0, 1), BuildingBlock: XUDNAN_clean_linker_2, # of connection points: 2
#     Edge 13, Type (0, 1), BuildingBlock: XUDNAN_clean_linker_2, # of connection points: 2
#     Edge 14, Type (0, 1), BuildingBlock: XUDNAN_clean_linker_2, # of connection points: 2
#     Edge 15, Type (0, 1), BuildingBlock: XUDNAN_clean_linker_2, # of connection points: 2
#     Edge 16, Type (0, 1), BuildingBlock: XUDNAN_clean_linker_2, # of connection points: 2
#     Edge 17, Type (0, 1), BuildingBlock: XUDNAN_clean_linker_2, # of connection points: 2
# Relax obj value: 0.037
# Max RMSD: 0.160
# Mean RMSD: 0.080
data_MOF--net-pth--node1-TATPOV_clean_sbu_0--node2-NAWXER_clean_linker_0--edge1-XUDNAN_clean_linker_2
_symmetry_space_group_name_H-M    P1
_symmetry_Int_Tables_number       1
_symmetry_cell_setting            triclinic
loop_
_symmetry_equiv_pos_as_xyz
'x, y, z'
_cell_length_a     29.15561
_cell_length_b     28.834535
_cell_length_c     63.941931
_cell_angle_alpha  92.41463
_cell_angle_beta   92.121397
_cell_angle_gamma 121.04984
loop_
_atom_site_label
_atom_site_type_symbol
_atom_site_fract_x
_atom_site_fract_y
_atom_site_fract_z
_atom_type_partial_charge
Zn0 Zn 0.13105 0.00606 0.02985 0.0
Zn1 Zn 0.1012 0.0556 0.05735 0.0
O2 O 0.11223 0.00255 0.07464 0.0
O3 O 0.14667 0.96957 0.05281 0.0
O4 O 0.09047 0.10067 0.07932 0.0
O5 O 0.18799 0.07658 0.0194 0.0
O6 O 0.16519 0.11652 0.04335 0.0
C7 C 0.13134 0.97224 0.07085 0.0
C8 C 0.02134 0.98179 0.02219 0.0
O9 O 0.03277 0.01642 0.03757 0.0
O10 O 0.05546 0.9698 0.01662 0.0
C11 C 0.04906 0.1035 0.08222 0.0
O12 O 0.00464 0.07214 0.07044 0.0
C13 C 0.1943 0.1195 0.02849 0.0
Zn14 Zn 0.12416 0.06585 0.35144 0.0
Zn15 Zn 0.06496 0.07384 0.37926 0.0
O16 O 0.13793 0.09705 0.39542 0.0
O17 O 0.19073 0.10458 0.3704 0.0
O18 O 0.02422 0.08594 0.40171 0.0
O19 O 0.10605 0.10636 0.33132 0.0
O20 O 0.06505 0.12234 0.35628 0.0
C21 C 0.18421 0.10992 0.38959 0.0
C22 C 0.0322 0.96344 0.35834 0.0
O23 O 0.01914 0.99278 0.36892 0.0
O24 O 0.07749 0.98458 0.35063 0.0
C25 C 0.98197 0.04934 0.40936 0.0
O26 O 0.96138 0.99835 0.40261 0.0
C27 C 0.08078 0.12845 0.33771 0.0
Zn28 Zn 0.1042 0.94806 0.73194 0.0
Zn29 Zn 0.03629 0.97777 0.71589 0.0
O30 O 0.08219 0.98104 0.69168 0.0
O31 O 0.13193 0.94915 0.70324 0.0
O32 O 0.98264 0.99447 0.70311 0.0
O33 O 0.04146 0.87991 0.7418 0.0
O34 O 0.98786 0.90605 0.72911 0.0
C35 C 0.11714 0.96798 0.68867 0.0
C36 C 0.11871 0.04977 0.75081 0.0
O37 O 0.07928 0.03926 0.73816 0.0
O38 O 0.13703 0.01826 0.75092 0.0
C39 C 0.96657 0.98388 0.68379 0.0
O40 O 0.98616 0.96205 0.67127 0.0
C41 C 0.99482 0.87241 0.73894 0.0
C42 C 0.93398 0.32899 0.24127 0.0
C43 C 0.9685 0.34342 0.25943 0.0
C44 C 0.9281 0.36818 0.23149 0.0
C45 C 0.95755 0.42261 0.23948 0.0
C46 C 0.99414 0.39692 0.26843 0.0
C47 C 0.98863 0.43621 0.25853 0.0
C48 C 0.9599 0.46622 0.22733 0.0
C49 C 0.0389 0.3928 0.19163 0.0
C50 C 0.01384 0.36839 0.17168 0.0
C51 C 0.02578 0.42673 0.20262 0.0
C52 C 0.98604 0.43574 0.19426 0.0
C53 C 0.97503 0.37866 0.1631 0.0
C54 C 0.96139 0.41214 0.17427 0.0
C55 C 0.97168 0.47135 0.206 0.0
C56 C 0.03326 0.69625 0.18958 0.0
C57 C 0.0153 0.68646 0.16833 0.0
C58 C 0.01546 0.65307 0.20253 0.0
C59 C 0.97828 0.59958 0.19456 0.0
C60 C 0.9768 0.63357 0.16048 0.0
C61 C 0.95826 0.59058 0.17351 0.0
C62 C 0.96819 0.55236 0.20637 0.0
C63 C 0.89299 0.61612 0.25506 0.0
C64 C 0.93516 0.65343 0.2695 0.0
C65 C 0.90077 0.58334 0.2406 0.0
C66 C 0.95047 0.58678 0.24055 0.0
C67 C 0.98537 0.65747 0.26878 0.0
C68 C 0.99241 0.62353 0.25486 0.0
C69 C 0.95702 0.54734 0.22774 0.0
H70 H 0.91298 0.28777 0.23424 0.0
H71 H 0.90262 0.35648 0.21713 0.0
H72 H 0.02106 0.40916 0.28239 0.0
H73 H 0.01128 0.47789 0.26508 0.0
H74 H 0.06855 0.38551 0.19887 0.0
H75 H 0.04673 0.44587 0.21771 0.0
H76 H 0.95569 0.36149 0.14761 0.0
H77 H 0.93134 0.41935 0.16735 0.0
H78 H 0.06392 0.73666 0.19577 0.0
H79 H 0.03415 0.66137 0.21822 0.0
H80 H 0.96292 0.6252 0.14404 0.0
H81 H 0.93032 0.54975 0.16683 0.0
H82 H 0.85357 0.61107 0.25523 0.0
H83 H 0.86752 0.55401 0.22997 0.0
H84 H 0.0196 0.68676 0.27897 0.0
H85 H 0.03084 0.62606 0.25521 0.0
N86 N 0.95342 0.50464 0.2374 0.0
N87 N 0.97474 0.51382 0.19634 0.0
C88 C 0.75437 0.11082 0.52595 0.0
C89 C 0.7444 0.08115 0.50655 0.0
C90 C 0.71197 0.10742 0.53675 0.0
C91 C 0.65871 0.07378 0.52848 0.0
C92 C 0.69101 0.0476 0.49835 0.0
C93 C 0.64873 0.04416 0.50916 0.0
C94 C 0.6132 0.07151 0.53899 0.0
C95 C 0.68611 0.00792 0.58494 0.0
C96 C 0.70719 0.04095 0.6038 0.0
C97 C 0.65325 0.01515 0.57061 0.0
C98 C 0.64103 0.05559 0.57487 0.0
C99 C 0.69489 0.08152 0.60788 0.0
C100 C 0.66179 0.08839 0.59365 0.0
C101 C 0.6049 0.06284 0.56041 0.0
C102 C 0.41289 0.01915 0.59331 0.0
C103 C 0.38865 0.04919 0.58836 0.0
C104 C 0.45625 0.02491 0.58265 0.0
C105 C 0.47818 0.06208 0.56712 0.0
C106 C 0.41101 0.08675 0.57285 0.0
C107 C 0.4561 0.09433 0.56292 0.0
C108 C 0.52541 0.06755 0.55661 0.0
C109 C 0.49436 0.15153 0.49901 0.0
C110 C 0.4409 0.11206 0.49252 0.0
C111 C 0.52428 0.13959 0.51284 0.0
C112 C 0.50112 0.08849 0.52095 0.0
C113 C 0.4176 0.06075 0.50081 0.0
C114 C 0.44753 0.04907 0.51495 0.0
C115 C 0.53445 0.07719 0.53519 0.0
H116 H 0.79499 0.13687 0.53276 0.0
H117 H 0.72095 0.13187 0.55134 0.0
H118 H 0.68187 0.02499 0.48329 0.0
H119 H 0.60804 0.01845 0.50234 0.0
H120 H 0.69405 0.97575 0.58143 0.0
H121 H 0.63671 0.98863 0.55638 0.0
H122 H 0.71114 0.10835 0.62202 0.0
H123 H 0.65275 0.11978 0.59724 0.0
H124 H 0.3993 0.99146 0.60566 0.0
H125 H 0.47288 0.00019 0.58672 0.0
H126 H 0.39411 0.11077 0.56824 0.0
H127 H 0.47372 0.12613 0.55221 0.0
H128 H 0.51333 0.1918 0.49336 0.0
H129 H 0.56558 0.17056 0.5174 0.0
H130 H 0.3768 0.02916 0.49596 0.0
H131 H 0.42921 0.00922 0.52097 0.0
N132 N 0.57778 0.07866 0.52729 0.0
N133 N 0.56142 0.06107 0.5683 0.0
C134 C 0.40522 0.38985 0.83972 0.0
C135 C 0.35226 0.37381 0.84393 0.0
C136 C 0.44843 0.43633 0.85007 0.0
C137 C 0.4397 0.46763 0.86496 0.0
C138 C 0.34351 0.40492 0.85898 0.0
C139 C 0.38683 0.45153 0.86934 0.0
C140 C 0.48599 0.51877 0.87468 0.0
C141 C 0.40442 0.47654 0.94178 0.0
C142 C 0.4026 0.4269 0.94296 0.0
C143 C 0.43279 0.51187 0.92641 0.0
C144 C 0.45865 0.49757 0.91169 0.0
C145 C 0.4296 0.41354 0.92834 0.0
C146 C 0.45703 0.44831 0.91286 0.0
C147 C 0.49125 0.5354 0.8961 0.0
C148 C 0.65199 0.74455 0.92648 0.0
C149 C 0.70472 0.75523 0.92584 0.0
C150 C 0.61 0.70108 0.9142 0.0
C151 C 0.61963 0.66725 0.90104 0.0
C152 C 0.7145 0.72232 0.91206 0.0
C153 C 0.6723 0.6782 0.90012 0.0
C154 C 0.57344 0.61695 0.89079 0.0
C155 C 0.6704 0.61206 0.83114 0.0
C156 C 0.69927 0.66794 0.82843 0.0
C157 C 0.62856 0.59033 0.84442 0.0
C158 C 0.61429 0.62374 0.85536 0.0
C159 C 0.68399 0.70143 0.83885 0.0
C160 C 0.64159 0.67943 0.85216 0.0
C161 C 0.57023 0.59818 0.86964 0.0
H162 H 0.41334 0.36736 0.82795 0.0
H163 H 0.48879 0.44809 0.8463 0.0
H164 H 0.30316 0.39347 0.86261 0.0
H165 H 0.37888 0.47566 0.88038 0.0
H166 H 0.38374 0.48803 0.95263 0.0
H167 H 0.43423 0.5501 0.92591 0.0
H168 H 0.43067 0.37667 0.92906 0.0
H169 H 0.47819 0.43726 0.90206 0.0
H170 H 0.64258 0.76821 0.93712 0.0
H171 H 0.56952 0.6928 0.91548 0.0
H172 H 0.75464 0.72968 0.91087 0.0
H173 H 0.68079 0.65166 0.89077 0.0
H174 H 0.68017 0.5849 0.82298 0.0
H175 H 0.60779 0.54713 0.8464 0.0
H176 H 0.70544 0.74468 0.83705 0.0
H177 H 0.63048 0.70585 0.86002 0.0
N178 N 0.52608 0.55032 0.86243 0.0
N179 N 0.534 0.58437 0.90322 0.0
H180 H 0.96849 0.12046 0.09406 0.0
H181 H 0.13878 0.18156 0.10536 0.0
H182 H 0.14756 0.25464 0.12962 0.0
H183 H 0.97858 0.24883 0.09449 0.0
H184 H 0.91845 0.2281 0.10798 0.0
H185 H 0.9245 0.17892 0.09193 0.0
H186 H 0.90575 0.1196 0.12353 0.0
H187 H 0.89926 0.16843 0.13964 0.0
H188 H 0.9466 0.14912 0.14776 0.0
H189 H 0.13956 0.32392 0.15102 0.0
H190 H 0.11417 0.38263 0.16988 0.0
H191 H 0.94823 0.27494 0.14631 0.0
C192 C 0.00752 0.14895 0.10176 0.0
C193 C 0.05293 0.1452 0.09774 0.0
C194 C 0.10332 0.18339 0.10816 0.0
C195 C 0.10881 0.2252 0.12197 0.0
C196 C 0.0635 0.22814 0.12537 0.0
C197 C 0.01371 0.19086 0.11575 0.0
C198 C 0.97163 0.20365 0.12214 0.0
C199 C 0.94685 0.21559 0.10299 0.0
C200 C 0.92825 0.15745 0.13397 0.0
C201 C 0.00579 0.25433 0.13659 0.0
C202 C 0.05864 0.26768 0.13819 0.0
C203 C 0.09814 0.31351 0.15014 0.0
C204 C 0.08318 0.34644 0.16092 0.0
C205 C 0.02904 0.33328 0.15984 0.0
C206 C 0.99 0.2865 0.14741 0.0
H207 H 0.88702 0.9825 0.42697 0.0
H208 H 0.01752 0.15038 0.42819 0.0
H209 H 0.97307 0.17601 0.45445 0.0
H210 H 0.78211 0.01025 0.4306 0.0
H211 H 0.74337 0.95592 0.44713 0.0
H212 H 0.78674 0.95022 0.42924 0.0
H213 H 0.83545 0.93348 0.46008 0.0
H214 H 0.79215 0.93909 0.47807 0.0
H215 H 0.86396 0.98194 0.48254 0.0
H216 H 0.91288 0.18402 0.47963 0.0
H217 H 0.84039 0.17402 0.50131 0.0
H218 H 0.74975 0.00082 0.484 0.0
C219 C 0.90651 0.0246 0.43286 0.0
C220 C 0.95586 0.06439 0.42552 0.0
C221 C 0.97975 0.11911 0.43356 0.0
C222 C 0.95488 0.13409 0.44852 0.0
C223 C 0.90615 0.09391 0.45532 0.0
C224 C 0.8822 0.04029 0.44777 0.0
C225 C 0.82891 0.00533 0.45716 0.0
C226 C 0.78256 0.97889 0.44001 0.0
C227 C 0.83023 0.96243 0.47024 0.0
C228 C 0.82634 0.04779 0.47097 0.0
C229 C 0.87143 0.09855 0.46981 0.0
C230 C 0.87757 0.14437 0.48081 0.0
C231 C 0.8363 0.13822 0.4932 0.0
C232 C 0.78937 0.08663 0.49445 0.0
C233 C 0.78485 0.04089 0.48328 0.0
H234 H 0.89758 0.8616 0.74591 0.0
H235 H 0.99187 0.78652 0.75687 0.0
H236 H 0.92381 0.72317 0.77958 0.0
H237 H 0.86092 0.86022 0.79695 0.0
H238 H 0.79382 0.84527 0.79024 0.0
H239 H 0.84574 0.88016 0.77253 0.0
H240 H 0.78861 0.80658 0.74262 0.0
H241 H 0.73599 0.77186 0.76014 0.0
H242 H 0.76337 0.7362 0.74677 0.0
H243 H 0.85161 0.67518 0.80394 0.0
H244 H 0.77624 0.64097 0.82681 0.0
H245 H 0.72782 0.74648 0.80007 0.0
C246 C 0.90319 0.83082 0.75258 0.0
C247 C 0.94996 0.82882 0.74951 0.0
C248 C 0.9563 0.78869 0.75892 0.0
C249 C 0.91789 0.75256 0.77187 0.0
C250 C 0.87331 0.75699 0.7752 0.0
C251 C 0.86537 0.79463 0.76566 0.0
C252 C 0.8157 0.79308 0.77292 0.0
C253 C 0.82993 0.84794 0.78381 0.0
C254 C 0.7734 0.77589 0.75452 0.0
C255 C 0.7977 0.74956 0.7884 0.0
C256 C 0.83137 0.72911 0.78935 0.0
C257 C 0.82437 0.69013 0.80307 0.0
C258 C 0.78134 0.67089 0.81596 0.0
C259 C 0.74566 0.69052 0.81507 0.0
C260 C 0.75436 0.7307 0.80116 0.0
H261 H 0.08079 0.94843 0.10791 0.0
H262 H 0.17676 0.90998 0.06858 0.0
H263 H 0.16214 0.83686 0.09096 0.0
H264 H 0.12369 0.91648 0.15857 0.0
H265 H 0.05772 0.88799 0.16815 0.0
H266 H 0.08129 0.94203 0.15066 0.0
H267 H 0.99728 0.88222 0.12535 0.0
H268 H 0.97381 0.82778 0.14256 0.0
H269 H 0.98292 0.8162 0.11552 0.0
H270 H 0.12755 0.7607 0.11408 0.0
H271 H 0.08119 0.69026 0.1391 0.0
H272 H 0.00992 0.7783 0.16467 0.0
C273 C 0.10003 0.92569 0.10437 0.0
C274 C 0.13 0.93508 0.08647 0.0
C275 C 0.15369 0.90369 0.08218 0.0
C276 C 0.14564 0.862 0.09482 0.0
C277 C 0.11428 0.85245 0.11184 0.0
C278 C 0.09252 0.88385 0.1169 0.0
C279 C 0.05783 0.86277 0.13539 0.0
C280 C 0.08156 0.90483 0.15432 0.0
C281 C -0.00049 0.84626 0.12933 0.0
C282 C 0.06214 0.81365 0.13943 0.0
C283 C 0.09508 0.80868 0.12565 0.0
C284 C 0.10251 0.76467 0.12522 0.0
C285 C 0.07586 0.72479 0.13934 0.0
C286 C 0.04251 0.72938 0.15372 0.0
C287 C 0.03582 0.7745 0.15391 0.0
H288 H 0.18242 0.08117 0.43015 0.0
H289 H 0.2895 0.1756 0.38311 0.0
H290 H 0.36731 0.19311 0.40606 0.0
H291 H 0.27497 0.16255 0.47734 0.0
H292 H 0.25458 0.10267 0.49136 0.0
H293 H 0.20771 0.10482 0.47282 0.0
H294 H 0.19217 0.01705 0.45309 0.0
H295 H 0.23949 0.01503 0.47133 0.0
H296 H 0.24875 0.01523 0.44361 0.0
H297 H 0.43156 0.19008 0.43119 0.0
H298 H 0.48019 0.17061 0.45819 0.0
H299 H 0.33315 0.07918 0.48995 0.0
C300 C 0.22239 0.10707 0.42506 0.0
C301 C 0.23012 0.12748 0.40496 0.0
C302 C 0.28283 0.15979 0.39849 0.0
C303 C 0.32726 0.17004 0.41142 0.0
C304 C 0.31833 0.1477 0.4308 0.0
C305 C 0.26737 0.11732 0.43776 0.0
C306 C 0.26894 0.09409 0.45846 0.0
C307 C 0.25046 0.11744 0.47604 0.0
C308 C 0.23535 0.03166 0.45649 0.0
C309 C 0.32841 0.11474 0.4616 0.0
C310 C 0.35606 0.14602 0.44555 0.0
C311 C 0.41068 0.16679 0.44415 0.0
C312 C 0.43801 0.15563 0.45966 0.0
C313 C 0.41086 0.12406 0.47647 0.0
C314 C 0.35521 0.1035 0.47738 0.0
H315 H 0.20774 0.08854 0.77799 0.0
H316 H 0.08597 0.12287 0.75639 0.0
H317 H 0.12883 0.20644 0.77997 0.0
H318 H 0.22189 0.13986 0.83253 0.0
H319 H 0.2934 0.16794 0.83468 0.0
H320 H 0.25098 0.10888 0.81718 0.0
H321 H 0.30735 0.15843 0.7862 0.0
H322 H 0.34989 0.21755 0.80359 0.0
H323 H 0.31667 0.22327 0.78037 0.0
H324 H 0.18776 0.28875 0.80443 0.0
H325 H 0.25996 0.36493 0.82713 0.0
H326 H 0.34211 0.27581 0.83301 0.0
C327 C 0.18968 0.11327 0.77835 0.0
C328 C 0.14342 0.09906 0.76536 0.0
C329 C 0.1214 0.13287 0.7662 0.0
C330 C 0.14532 0.18034 0.77959 0.0
C331 C 0.19109 0.19328 0.79208 0.0
C332 C 0.21303 0.16073 0.79158 0.0
C333 C 0.26384 0.18505 0.8058 0.0
C334 C 0.25709 0.14823 0.82361 0.0
C335 C 0.31229 0.19678 0.79324 0.0
C336 C 0.26765 0.23692 0.81406 0.0
C337 C 0.22505 0.2407 0.80614 0.0
C338 C 0.22101 0.28599 0.81093 0.0
C339 C 0.26205 0.32891 0.82393 0.0
C340 C 0.3066 0.32626 0.83188 0.0
C341 C 0.30875 0.27918 0.82708 0.0
H342 H 0.93478 0.98166 0.64264 0.0
H343 H 0.90461 0.01048 0.70648 0.0
H344 H 0.83409 0.0267 0.69293 0.0
H345 H 0.91748 0.08503 0.62066 0.0
H346 H 0.88571 0.0458 0.59618 0.0
H347 H 0.93327 0.03563 0.61093 0.0
H348 H 0.86219 0.93316 0.61127 0.0
H349 H 0.81433 0.94306 0.59661 0.0
H350 H 0.79795 0.91251 0.62137 0.0
H351 H 0.7658 0.0379 0.67257 0.0
H352 H 0.70707 0.04769 0.64673 0.0
H353 H 0.78455 0.01578 0.59608 0.0
C354 C 0.9133 0.99131 0.65378 0.0
C355 C 0.92509 0.99465 0.67563 0.0
C356 C 0.89634 0.00779 0.68968 0.0
C357 C 0.85611 0.01692 0.68214 0.0
C358 C 0.84539 0.01312 0.66053 0.0
C359 C 0.87335 0.00101 0.64654 0.0
C360 C 0.85466 0.00048 0.62406 0.0
C361 C 0.90051 0.04436 0.61227 0.0
C362 C 0.83086 0.94394 0.61266 0.0
C363 C 0.81169 0.01402 0.62761 0.0
C364 C 0.80683 0.02088 0.64876 0.0
C365 C 0.76954 0.0331 0.65595 0.0
C366 C 0.7366 0.03894 0.64113 0.0
C367 C 0.7414 0.03303 0.61932 0.0
C368 C 0.77942 0.02011 0.61258 0.0
H369 H 0.97043 0.88252 0.00127 0.0
H370 H 0.95393 0.02112 0.01617 0.0
H371 H 0.86983 0.97841 0.9931 0.0
H372 H 0.92575 0.85981 0.9481 0.0
H373 H 0.89004 0.78684 0.94798 0.0
H374 H 0.94715 0.82738 0.96626 0.0
H375 H 0.88938 0.78101 0.99736 0.0
H376 H 0.83224 0.73973 0.97914 0.0
H377 H 0.82791 0.78066 0.00017 0.0
H378 H 0.79115 0.92235 0.96585 0.0
H379 H 0.72075 0.85492 0.93988 0.0
H380 H 0.78783 0.75162 0.94557 0.0
C381 C 0.94895 0.90379 0.99982 0.0
C382 C 0.96865 0.9552 0.01033 0.0
C383 C 0.93922 0.98154 0.00825 0.0
C384 C 0.89168 0.95772 0.99513 0.0
C385 C 0.874 0.90733 0.9846 0.0
C386 C 0.90138 0.88036 0.98716 0.0
C387 C 0.87432 0.82663 0.97433 0.0
C388 C 0.91154 0.82512 0.95821 0.0
C389 C 0.85479 0.77921 0.9886 0.0
C390 C 0.82788 0.82784 0.96374 0.0
C391 C 0.82829 0.87466 0.96972 0.0
C392 C 0.79005 0.88519 0.96131 0.0
C393 C 0.75009 0.8465 0.94661 0.0
C394 C 0.74846 0.79768 0.94059 0.0
C395 C 0.78811 0.78868 0.94941 0.0
H396 H 0.04547 0.87796 0.36177 0.0
H397 H 0.93393 0.92333 0.33847 0.0
H398 H 0.8838 0.83654 0.31672 0.0
H399 H 0.06157 0.82926 0.31794 0.0
H400 H 0.06363 0.77189 0.32691 0.0
H401 H 0.08142 0.82883 0.34496 0.0
H402 H 0.00951 0.76671 0.36963 0.0
H403 H 0.99226 0.70884 0.35192 0.0
H404 H 0.94104 0.72241 0.35936 0.0
H405 H 0.86482 0.76101 0.29037 0.0
H406 H 0.8692 0.69586 0.26566 0.0
H407 H 0.98503 0.69173 0.30912 0.0
C408 C 0.00859 0.8679 0.35302 0.0
C409 C 0.99283 0.90643 0.35191 0.0
C410 C 0.94562 0.89344 0.33984 0.0
C411 C 0.91716 0.8444 0.32736 0.0
C412 C 0.93566 0.8084 0.32776 0.0
C413 C 0.97913 0.81862 0.34094 0.0
C414 C 0.99476 0.7767 0.33679 0.0
C415 C 0.05379 0.8033 0.33132 0.0
C416 C 0.98371 0.74157 0.35554 0.0
C417 C 0.95656 0.74427 0.31804 0.0
C418 C 0.92238 0.76265 0.31315 0.0
C419 C 0.8897 0.74461 0.29455 0.0
C420 C 0.89248 0.70738 0.28055 0.0
C421 C 0.92753 0.68822 0.28526 0.0
C422 C 0.95828 0.70574 0.30469 0.0
H423 H 0.15959 0.91422 0.66867 0.0
H424 H 0.14156 0.054 0.66561 0.0
H425 H 0.20388 0.08696 0.63724 0.0
H426 H 0.29391 0.97718 0.66158 0.0
H427 H 0.29138 0.92391 0.64484 0.0
H428 H 0.24067 0.90772 0.66313 0.0
H429 H 0.16618 0.86113 0.63292 0.0
H430 H 0.21668 0.87637 0.61452 0.0
H431 H 0.16928 0.89807 0.61043 0.0
H432 H 0.28096 0.11294 0.6146 0.0
H433 H 0.35621 0.12365 0.59519 0.0
H434 H 0.31366 0.95965 0.60843 0.0
C435 C 0.16769 0.95096 0.66159 0.0
C436 C 0.14593 0.98165 0.66927 0.0
C437 C 0.15748 0.02967 0.65978 0.0
C438 C 0.19299 0.04881 0.64373 0.0
C439 C 0.21521 0.01854 0.63695 0.0
C440 C 0.20175 0.96977 0.64512 0.0
C441 C 0.2323 0.94582 0.63542 0.0
C442 C 0.26659 0.93825 0.65225 0.0
C443 C 0.19381 0.89217 0.62255 0.0
C444 C 0.26701 0.9901 0.62135 0.0
C445 C 0.25674 0.03175 0.62254 0.0
C446 C 0.28802 0.07967 0.61288 0.0
C447 C 0.33079 0.08512 0.60166 0.0
C448 C 0.34157 0.04237 0.59971 0.0
C449 C 0.30802 0.99387 0.60953 0.0
H450 H 0.23343 0.13808 0.98972 0.0
H451 H 0.23675 0.2208 0.04855 0.0
H452 H 0.29219 0.30941 0.03345 0.0
H453 H 0.36799 0.23536 0.9757 0.0
H454 H 0.34757 0.22802 0.94822 0.0
H455 H 0.31215 0.17193 0.96436 0.0
H456 H 0.22277 0.16602 0.95318 0.0
H457 H 0.25795 0.2223 0.93713 0.0
H458 H 0.21735 0.22525 0.95712 0.0
H459 H 0.34621 0.38908 0.01127 0.0
H460 H 0.39284 0.45247 0.98404 0.0
H461 H 0.3462 0.31541 0.93927 0.0
C462 C 0.24665 0.1748 0.99959 0.0
C463 C 0.2314 0.17264 0.02039 0.0
C464 C 0.24836 0.22162 0.03261 0.0
C465 C 0.27979 0.27206 0.02417 0.0
C466 C 0.2933 0.27265 0.00344 0.0
C467 C 0.27709 0.22521 0.99133 0.0
C468 C 0.29414 0.23645 0.96917 0.0
C469 C 0.33277 0.21678 0.96407 0.0
C470 C 0.24513 0.211 0.95322 0.0
C471 C 0.3226 0.29767 0.97066 0.0
C472 C 0.32214 0.31797 0.99055 0.0
C473 C 0.34659 0.37356 0.99561 0.0
C474 C 0.37256 0.40926 0.97995 0.0
C475 C 0.37341 0.38919 0.95941 0.0
C476 C 0.3474 0.33247 0.95483 0.0
H477 H 0.04234 0.1964 0.3465 0.0
H478 H 0.08684 0.12666 0.29533 0.0
H479 H 0.05949 0.17121 0.27001 0.0
H480 H 0.9266 0.18614 0.31947 0.0
H481 H 0.939 0.25042 0.33057 0.0
H482 H 0.96134 0.21252 0.34501 0.0
H483 H 0.05854 0.29541 0.34806 0.0
H484 H 0.03643 0.33367 0.33376 0.0
H485 H 0.09007 0.32603 0.3246 0.0
H486 H 0.02595 0.22081 0.25008 0.0
H487 H 0.99533 0.28006 0.23678 0.0
H488 H 0.97475 0.32073 0.30051 0.0
C489 C 0.04639 0.19062 0.32998 0.0
C490 C 0.06665 0.15793 0.32292 0.0
C491 C 0.07164 0.15164 0.30116 0.0
C492 C 0.05596 0.17655 0.28661 0.0
C493 C 0.03575 0.20803 0.29403 0.0
C494 C 0.03148 0.2158 0.31518 0.0
C495 C 0.00995 0.25318 0.31889 0.0
C496 C 0.95601 0.22379 0.32909 0.0
C497 C 0.05122 0.30516 0.3321 0.0
C498 C 0.0028 0.265 0.29651 0.0
C499 C 0.01743 0.23801 0.28245 0.0
C500 C 0.0143 0.24217 0.2609 0.0
C501 C 0.99646 0.27554 0.2535 0.0
C502 C 0.98233 0.30458 0.26761 0.0
C503 C 0.98533 0.29896 0.2894 0.0
loop_
_geom_bond_atom_site_label_1
_geom_bond_atom_site_label_2
_geom_bond_distance
_geom_bond_site_symmetry_2
_ccdc_geom_bond_type
Zn0 O3 2.031 1_545 S
Zn0 O5 2.049 . S
Zn0 O10 2.067 1_545 S
Zn1 O2 1.962 . S
Zn1 O4 1.986 . S
Zn1 O6 1.996 . S
Zn1 O9 1.943 . S
O2 Zn1 1.962 . S
O2 C7 1.254 1_545 S
O3 Zn0 2.031 1_565 S
O3 C7 1.269 . S
O4 Zn1 1.986 . S
O4 C11 1.262 . S
O5 Zn0 2.049 . S
O5 C13 1.260 . S
O6 Zn1 1.996 . S
O6 C13 1.257 . S
C7 O2 1.254 1_565 S
C7 O3 1.269 . S
C8 O9 1.249 1_565 S
C8 O10 1.270 . S
O9 Zn1 1.943 . S
O9 C8 1.249 1_545 S
O10 Zn0 2.067 1_565 S
O10 C8 1.270 . S
C11 O4 1.262 . S
C11 O12 1.232 . S
O12 C11 1.232 . S
C13 O5 1.260 . S
C13 O6 1.257 . S
Zn14 O17 2.031 . S
Zn14 O19 2.049 . S
Zn14 O24 2.067 . S
Zn15 O16 1.962 . S
Zn15 O18 1.986 1_455 S
Zn15 O20 1.996 . S
Zn15 O23 1.943 1_455 S
O16 Zn15 1.962 . S
O16 C21 1.254 . S
O17 Zn14 2.031 . S
O17 C21 1.269 . S
O18 Zn15 1.986 1_655 S
O18 C25 1.262 . S
O19 Zn14 2.049 . S
O19 C27 1.260 . S
O20 Zn15 1.996 . S
O20 C27 1.257 . S
C21 O16 1.254 . S
C21 O17 1.269 . S
C22 O23 1.249 1_465 S
C22 O24 1.270 1_565 S
O23 Zn15 1.943 1_655 S
O23 C22 1.249 1_645 S
O24 Zn14 2.067 . S
O24 C22 1.270 1_545 S
C25 O18 1.262 . S
C25 O26 1.232 . S
O26 C25 1.232 . S
C27 O19 1.260 . S
C27 O20 1.257 . S
Zn28 O31 2.031 1_565 S
Zn28 O33 2.049 . S
Zn28 O38 2.067 1_565 S
Zn29 O30 1.962 1_545 S
Zn29 O32 1.986 1_445 S
Zn29 O34 1.996 1_445 S
Zn29 O37 1.943 . S
O30 Zn29 1.962 1_565 S
O30 C35 1.254 . S
O31 Zn28 2.031 1_545 S
O31 C35 1.269 1_545 S
O32 Zn29 1.986 1_665 S
O32 C39 1.262 1_565 S
O33 Zn28 2.049 . S
O33 C41 1.260 1_455 S
O34 Zn29 1.996 1_665 S
O34 C41 1.257 . S
C35 O30 1.254 . S
C35 O31 1.269 1_565 S
C36 O37 1.249 . S
C36 O38 1.270 . S
O37 Zn29 1.943 . S
O37 C36 1.249 . S
O38 Zn28 2.067 1_545 S
O38 C36 1.270 . S
C39 O32 1.262 1_545 S
C39 O40 1.232 1_655 S
O40 C39 1.232 1_455 S
C41 O33 1.260 1_655 S
C41 O34 1.257 . S
C42 C43 1.384 . S
C42 C44 1.384 . S
C42 H70 0.931 1_455 S
C43 C42 1.384 . S
C43 C46 1.382 . S
C44 C42 1.384 . S
C44 C45 1.381 . S
C44 H71 0.930 1_455 S
C45 C44 1.381 . S
C45 C47 1.381 . S
C45 C48 1.487 . S
C46 C43 1.382 . S
C46 C47 1.387 . S
C46 H72 0.930 . S
C47 C45 1.381 . S
C47 C46 1.387 . S
C47 H73 0.931 . S
C48 C45 1.487 . S
C48 C55 1.399 . S
C48 N86 1.343 . S
C49 C50 1.384 . S
C49 C51 1.384 . S
C49 H74 0.931 . S
C50 C49 1.384 . S
C50 C53 1.382 . S
C51 C49 1.384 . S
C51 C52 1.381 . S
C51 H75 0.930 . S
C52 C51 1.381 . S
C52 C54 1.381 . S
C52 C55 1.487 . S
C53 C50 1.382 . S
C53 C54 1.387 . S
C53 H76 0.930 1_455 S
C54 C52 1.381 . S
C54 C53 1.387 . S
C54 H77 0.931 1_455 S
C55 C48 1.399 . S
C55 C52 1.487 . S
C55 N87 1.343 . S
C56 C57 1.384 . S
C56 C58 1.384 . S
C56 H78 0.931 . S
C57 C56 1.384 . S
C57 C60 1.382 . S
C58 C56 1.384 . S
C58 C59 1.381 . S
C58 H79 0.930 . S
C59 C58 1.381 . S
C59 C61 1.381 . S
C59 C62 1.487 . S
C60 C57 1.382 . S
C60 C61 1.387 . S
C60 H80 0.930 1_455 S
C61 C59 1.381 . S
C61 C60 1.387 . S
C61 H81 0.931 1_455 S
C62 C59 1.487 . S
C62 C69 1.399 . S
C62 N87 1.343 . S
C63 C64 1.384 . S
C63 C65 1.384 . S
C63 H82 0.931 1_455 S
C64 C63 1.384 . S
C64 C67 1.382 . S
C65 C63 1.384 . S
C65 C66 1.381 . S
C65 H83 0.930 1_455 S
C66 C65 1.381 . S
C66 C68 1.381 . S
C66 C69 1.487 . S
C67 C64 1.382 . S
C67 C68 1.387 . S
C67 H84 0.930 . S
C68 C66 1.381 . S
C68 C67 1.387 . S
C68 H85 0.931 . S
C69 C62 1.399 . S
C69 C66 1.487 . S
C69 N86 1.343 . S
H70 C42 0.931 1_655 S
H71 C44 0.930 1_655 S
H72 C46 0.930 . S
H73 C47 0.931 . S
H74 C49 0.931 . S
H75 C51 0.930 . S
H76 C53 0.930 1_655 S
H77 C54 0.931 1_655 S
H78 C56 0.931 . S
H79 C58 0.930 . S
H80 C60 0.930 1_655 S
H81 C61 0.931 1_655 S
H82 C63 0.931 1_655 S
H83 C65 0.930 1_655 S
H84 C67 0.930 . S
H85 C68 0.931 . S
N86 C48 1.343 . S
N86 C69 1.343 . S
N87 C55 1.343 . S
N87 C62 1.343 . S
C88 C89 1.384 . S
C88 C90 1.384 . S
C88 H116 0.931 . S
C89 C88 1.384 . S
C89 C92 1.382 . S
C90 C88 1.384 . S
C90 C91 1.381 . S
C90 H117 0.930 . S
C91 C90 1.381 . S
C91 C93 1.381 . S
C91 C94 1.487 . S
C92 C89 1.382 . S
C92 C93 1.387 . S
C92 H118 0.930 1_545 S
C93 C91 1.381 . S
C93 C92 1.387 . S
C93 H119 0.931 1_545 S
C94 C91 1.487 . S
C94 C101 1.399 . S
C94 N132 1.343 . S
C95 C96 1.384 1_565 S
C95 C97 1.377 1_565 S
C95 H120 0.931 . S
C96 C95 1.384 1_545 S
C96 C99 1.382 . S
C97 C95 1.377 1_545 S
C97 C98 1.395 . S
C97 H121 0.923 1_545 S
C98 C97 1.395 . S
C98 C100 1.381 . S
C98 C101 1.487 . S
C99 C96 1.382 . S
C99 C100 1.387 . S
C99 H122 0.930 . S
C100 C98 1.381 . S
C100 C99 1.387 . S
C100 H123 0.931 . S
C101 C94 1.399 . S
C101 C98 1.487 . S
C101 N133 1.343 . S
C102 C103 1.384 1_565 S
C102 C104 1.389 1_565 S
C102 H124 0.931 . S
C103 C102 1.384 1_545 S
C103 C106 1.382 . S
C104 C102 1.389 1_545 S
C104 C105 1.384 . S
C104 H125 0.922 1_545 S
C105 C104 1.384 . S
C105 C107 1.381 . S
C105 C108 1.487 . S
C106 C103 1.382 . S
C106 C107 1.387 . S
C106 H126 0.930 . S
C107 C105 1.381 . S
C107 C106 1.387 . S
C107 H127 0.931 . S
C108 C105 1.487 . S
C108 C115 1.399 . S
C108 N133 1.343 . S
C109 C110 1.384 . S
C109 C111 1.384 . S
C109 H128 0.931 . S
C110 C109 1.384 . S
C110 C113 1.382 . S
C111 C109 1.384 . S
C111 C112 1.381 . S
C111 H129 0.930 . S
C112 C111 1.381 . S
C112 C114 1.381 . S
C112 C115 1.487 . S
C113 C110 1.382 . S
C113 C114 1.387 . S
C113 H130 0.930 1_545 S
C114 C112 1.381 . S
C114 C113 1.387 . S
C114 H131 0.931 1_545 S
C115 C108 1.399 . S
C115 C112 1.487 . S
C115 N132 1.343 . S
H116 C88 0.931 . S
H117 C90 0.930 . S
H118 C92 0.930 1_565 S
H119 C93 0.931 1_565 S
H120 C95 0.931 . S
H121 C97 0.923 1_565 S
H122 C99 0.930 . S
H123 C100 0.931 . S
H124 C102 0.931 . S
H125 C104 0.922 1_565 S
H126 C106 0.930 . S
H127 C107 0.931 . S
H128 C109 0.931 . S
H129 C111 0.930 . S
H130 C113 0.930 1_565 S
H131 C114 0.931 1_565 S
N132 C94 1.343 . S
N132 C115 1.343 . S
N133 C101 1.343 . S
N133 C108 1.343 . S
C134 C135 1.384 . S
C134 C136 1.384 . S
C134 H162 0.931 . S
C135 C134 1.384 . S
C135 C138 1.382 . S
C136 C134 1.384 . S
C136 C137 1.381 . S
C136 H163 0.930 . S
C137 C136 1.381 . S
C137 C139 1.381 . S
C137 C140 1.487 . S
C138 C135 1.382 . S
C138 C139 1.387 . S
C138 H164 0.930 . S
C139 C137 1.381 . S
C139 C138 1.387 . S
C139 H165 0.931 . S
C140 C137 1.487 . S
C140 C147 1.399 . S
C140 N178 1.343 . S
C141 C142 1.384 . S
C141 C143 1.384 . S
C141 H166 0.931 . S
C142 C141 1.384 . S
C142 C145 1.382 . S
C143 C141 1.384 . S
C143 C144 1.381 . S
C143 H167 0.930 . S
C144 C143 1.381 . S
C144 C146 1.381 . S
C144 C147 1.487 . S
C145 C142 1.382 . S
C145 C146 1.387 . S
C145 H168 0.930 . S
C146 C144 1.381 . S
C146 C145 1.387 . S
C146 H169 0.931 . S
C147 C140 1.399 . S
C147 C144 1.487 . S
C147 N179 1.343 . S
C148 C149 1.384 . S
C148 C150 1.384 . S
C148 H170 0.931 . S
C149 C148 1.384 . S
C149 C152 1.382 . S
C150 C148 1.384 . S
C150 C151 1.381 . S
C150 H171 0.930 . S
C151 C150 1.381 . S
C151 C153 1.381 . S
C151 C154 1.487 . S
C152 C149 1.382 . S
C152 C153 1.387 . S
C152 H172 0.930 . S
C153 C151 1.381 . S
C153 C152 1.387 . S
C153 H173 0.931 . S
C154 C151 1.487 . S
C154 C161 1.399 . S
C154 N179 1.343 . S
C155 C156 1.384 . S
C155 C157 1.384 . S
C155 H174 0.931 . S
C156 C155 1.384 . S
C156 C159 1.382 . S
C157 C155 1.384 . S
C157 C158 1.381 . S
C157 H175 0.930 . S
C158 C157 1.381 . S
C158 C160 1.381 . S
C158 C161 1.487 . S
C159 C156 1.382 . S
C159 C160 1.387 . S
C159 H176 0.930 . S
C160 C158 1.381 . S
C160 C159 1.387 . S
C160 H177 0.931 . S
C161 C154 1.399 . S
C161 C158 1.487 . S
C161 N178 1.343 . S
H162 C134 0.931 . S
H163 C136 0.930 . S
H164 C138 0.930 . S
H165 C139 0.931 . S
H166 C141 0.931 . S
H167 C143 0.930 . S
H168 C145 0.930 . S
H169 C146 0.931 . S
H170 C148 0.931 . S
H171 C150 0.930 . S
H172 C152 0.930 . S
H173 C153 0.931 . S
H174 C155 0.931 . S
H175 C157 0.930 . S
H176 C159 0.930 . S
H177 C160 0.931 . S
N178 C140 1.343 . S
N178 C161 1.343 . S
N179 C147 1.343 . S
N179 C154 1.343 . S
H180 C192 0.930 1_655 S
H181 C194 0.930 . S
H182 C195 0.930 . S
H183 C199 0.959 . S
H184 C199 0.959 . S
H185 C199 0.961 . S
H186 C200 0.960 1_655 S
H187 C200 0.961 1_655 S
H188 C200 0.959 . S
H189 C203 0.929 . S
H190 C204 0.931 . S
H191 C206 0.930 1_655 S
C192 H180 0.930 1_455 S
C192 C193 1.399 . S
C192 C197 1.399 . S
C193 C192 1.399 . S
C193 C194 1.376 . S
C194 H181 0.930 . S
C194 C193 1.376 . S
C194 C195 1.388 . S
C195 H182 0.930 . S
C195 C194 1.388 . S
C195 C196 1.390 . S
C196 C195 1.390 . S
C196 C197 1.394 . S
C196 C202 1.465 . S
C197 C192 1.399 . S
C197 C196 1.394 . S
C197 C198 1.521 . S
C198 C197 1.521 . S
C198 C199 1.495 1_455 S
C198 C200 1.563 . S
C198 C201 1.526 . S
C199 H183 0.959 . S
C199 H184 0.959 . S
C199 H185 0.961 . S
C199 C198 1.495 1_655 S
C200 H186 0.960 1_455 S
C200 H187 0.961 1_455 S
C200 H188 0.959 . S
C200 C198 1.563 . S
C201 C198 1.526 . S
C201 C202 1.396 . S
C201 C206 1.390 . S
C202 C196 1.465 . S
C202 C201 1.396 . S
C202 C203 1.399 . S
C203 H189 0.929 . S
C203 C202 1.399 . S
C203 C204 1.385 . S
C204 H190 0.931 . S
C204 C203 1.385 . S
C204 C205 1.389 . S
C205 C204 1.389 . S
C205 C206 1.387 . S
C206 H191 0.930 1_455 S
C206 C201 1.390 . S
C206 C205 1.387 . S
H207 C219 0.930 1_565 S
H208 C221 0.930 . S
H209 C222 0.930 . S
H210 C226 0.959 . S
H211 C226 0.959 . S
H212 C226 0.961 . S
H213 C227 0.960 . S
H214 C227 0.961 . S
H215 C227 0.959 . S
H216 C230 0.929 . S
H217 C231 0.931 . S
H218 C233 0.930 1_565 S
C219 H207 0.930 1_545 S
C219 C220 1.399 . S
C219 C224 1.399 . S
C220 C219 1.399 . S
C220 C221 1.376 . S
C221 H208 0.930 . S
C221 C220 1.376 . S
C221 C222 1.388 . S
C222 H209 0.930 . S
C222 C221 1.388 . S
C222 C223 1.390 . S
C223 C222 1.390 . S
C223 C224 1.394 . S
C223 C229 1.465 . S
C224 C219 1.399 . S
C224 C223 1.394 . S
C224 C225 1.516 1_545 S
C225 C224 1.516 1_565 S
C225 C226 1.502 . S
C225 C227 1.561 . S
C225 C228 1.526 1_565 S
C226 H210 0.959 . S
C226 H211 0.959 . S
C226 H212 0.961 . S
C226 C225 1.502 . S
C227 H213 0.960 . S
C227 H214 0.961 . S
C227 H215 0.959 . S
C227 C225 1.561 . S
C228 C225 1.526 1_545 S
C228 C229 1.396 . S
C228 C233 1.390 . S
C229 C223 1.465 . S
C229 C228 1.396 . S
C229 C230 1.399 . S
C230 H216 0.929 . S
C230 C229 1.399 . S
C230 C231 1.385 . S
C231 H217 0.931 . S
C231 C230 1.385 . S
C231 C232 1.389 . S
C232 C231 1.389 . S
C232 C233 1.387 . S
C233 H218 0.930 1_545 S
C233 C228 1.390 . S
C233 C232 1.387 . S
H234 C246 0.930 . S
H235 C248 0.930 1_455 S
H236 C249 0.930 . S
H237 C253 0.959 . S
H238 C253 0.959 . S
H239 C253 0.961 . S
H240 C254 0.960 . S
H241 C254 0.961 . S
H242 C254 0.959 . S
H243 C257 0.929 . S
H244 C258 0.931 . S
H245 C260 0.930 . S
C246 H234 0.930 . S
C246 C247 1.399 . S
C246 C251 1.399 . S
C247 C246 1.399 . S
C247 C248 1.376 . S
C248 H235 0.930 1_655 S
C248 C247 1.376 . S
C248 C249 1.388 . S
C249 H236 0.930 . S
C249 C248 1.388 . S
C249 C250 1.390 . S
C250 C249 1.390 . S
C250 C251 1.394 . S
C250 C256 1.465 . S
C251 C246 1.399 . S
C251 C250 1.394 . S
C251 C252 1.516 . S
C252 C251 1.516 . S
C252 C253 1.502 . S
C252 C254 1.561 . S
C252 C255 1.526 . S
C253 H237 0.959 . S
C253 H238 0.959 . S
C253 H239 0.961 . S
C253 C252 1.502 . S
C254 H240 0.960 . S
C254 H241 0.961 . S
C254 H242 0.959 . S
C254 C252 1.561 . S
C255 C252 1.526 . S
C255 C256 1.396 . S
C255 C260 1.390 . S
C256 C250 1.465 . S
C256 C255 1.396 . S
C256 C257 1.399 . S
C257 H243 0.929 . S
C257 C256 1.399 . S
C257 C258 1.385 . S
C258 H244 0.931 . S
C258 C257 1.385 . S
C258 C259 1.389 . S
C259 C258 1.389 . S
C259 C260 1.387 . S
C260 H245 0.930 . S
C260 C255 1.390 . S
C260 C259 1.387 . S
H261 C273 0.930 . S
H262 C275 0.930 . S
H263 C276 0.930 . S
H264 C280 0.959 . S
H265 C280 0.959 . S
H266 C280 0.961 . S
H267 C281 0.960 . S
H268 C281 0.961 . S
H269 C281 0.959 . S
H270 C284 0.929 . S
H271 C285 0.931 . S
H272 C287 0.930 . S
C273 H261 0.930 . S
C273 C274 1.399 . S
C273 C278 1.399 . S
C274 C273 1.399 . S
C274 C275 1.376 . S
C275 H262 0.930 . S
C275 C274 1.376 . S
C275 C276 1.388 . S
C276 H263 0.930 . S
C276 C275 1.388 . S
C276 C277 1.390 . S
C277 C276 1.390 . S
C277 C278 1.394 . S
C277 C283 1.465 . S
C278 C273 1.399 . S
C278 C277 1.394 . S
C278 C279 1.516 . S
C279 C278 1.516 . S
C279 C280 1.502 . S
C279 C281 1.561 . S
C279 C282 1.526 . S
C280 H264 0.959 . S
C280 H265 0.959 . S
C280 H266 0.961 . S
C280 C279 1.502 . S
C281 H267 0.960 . S
C281 H268 0.961 . S
C281 H269 0.959 . S
C281 C279 1.561 . S
C282 C279 1.526 . S
C282 C283 1.396 . S
C282 C287 1.390 . S
C283 C277 1.465 . S
C283 C282 1.396 . S
C283 C284 1.399 . S
C284 H270 0.929 . S
C284 C283 1.399 . S
C284 C285 1.385 . S
C285 H271 0.931 . S
C285 C284 1.385 . S
C285 C286 1.389 . S
C286 C285 1.389 . S
C286 C287 1.387 . S
C287 H272 0.930 . S
C287 C282 1.390 . S
C287 C286 1.387 . S
H288 C300 0.930 . S
H289 C302 0.930 . S
H290 C303 0.930 . S
H291 C307 0.959 . S
H292 C307 0.959 . S
H293 C307 0.961 . S
H294 C308 0.960 . S
H295 C308 0.961 . S
H296 C308 0.959 . S
H297 C311 0.929 . S
H298 C312 0.931 . S
H299 C314 0.930 1_565 S
C300 H288 0.930 . S
C300 C301 1.399 . S
C300 C305 1.399 . S
C301 C300 1.399 . S
C301 C302 1.376 . S
C302 H289 0.930 . S
C302 C301 1.376 . S
C302 C303 1.388 . S
C303 H290 0.930 . S
C303 C302 1.388 . S
C303 C304 1.390 . S
C304 C303 1.390 . S
C304 C305 1.394 . S
C304 C310 1.465 . S
C305 C300 1.399 . S
C305 C304 1.394 . S
C305 C306 1.516 1_545 S
C306 C305 1.516 1_565 S
C306 C307 1.502 . S
C306 C308 1.561 . S
C306 C309 1.526 1_565 S
C307 H291 0.959 . S
C307 H292 0.959 . S
C307 H293 0.961 . S
C307 C306 1.502 . S
C308 H294 0.960 . S
C308 H295 0.961 . S
C308 H296 0.959 . S
C308 C306 1.561 . S
C309 C306 1.526 1_545 S
C309 C310 1.396 . S
C309 C314 1.390 . S
C310 C304 1.465 . S
C310 C309 1.396 . S
C310 C311 1.399 . S
C311 H297 0.929 . S
C311 C310 1.399 . S
C311 C312 1.385 . S
C312 H298 0.931 . S
C312 C311 1.385 . S
C312 C313 1.389 . S
C313 C312 1.389 . S
C313 C314 1.387 . S
C314 H299 0.930 1_545 S
C314 C309 1.390 . S
C314 C313 1.387 . S
H315 C327 0.930 . S
H316 C329 0.930 . S
H317 C330 0.930 . S
H318 C334 0.959 . S
H319 C334 0.959 . S
H320 C334 0.961 . S
H321 C335 0.960 . S
H322 C335 0.961 . S
H323 C335 0.959 . S
H324 C338 0.929 . S
H325 C339 0.931 . S
H326 C341 0.930 . S
C327 H315 0.930 . S
C327 C328 1.399 . S
C327 C332 1.399 . S
C328 C327 1.399 . S
C328 C329 1.376 . S
C329 H316 0.930 . S
C329 C328 1.376 . S
C329 C330 1.388 . S
C330 H317 0.930 . S
C330 C329 1.388 . S
C330 C331 1.390 . S
C331 C330 1.390 . S
C331 C332 1.394 . S
C331 C337 1.465 . S
C332 C327 1.399 . S
C332 C331 1.394 . S
C332 C333 1.516 . S
C333 C332 1.516 . S
C333 C334 1.502 . S
C333 C335 1.561 . S
C333 C336 1.526 . S
C334 H318 0.959 . S
C334 H319 0.959 . S
C334 H320 0.961 . S
C334 C333 1.502 . S
C335 H321 0.960 . S
C335 H322 0.961 . S
C335 H323 0.959 . S
C335 C333 1.561 . S
C336 C333 1.526 . S
C336 C337 1.396 . S
C336 C341 1.390 . S
C337 C331 1.465 . S
C337 C336 1.396 . S
C337 C338 1.399 . S
C338 H324 0.929 . S
C338 C337 1.399 . S
C338 C339 1.385 . S
C339 H325 0.931 . S
C339 C338 1.385 . S
C339 C340 1.389 . S
C340 C339 1.389 . S
C340 C341 1.387 . S
C341 H326 0.930 . S
C341 C336 1.390 . S
C341 C340 1.387 . S
H342 C354 0.930 . S
H343 C356 0.930 . S
H344 C357 0.930 . S
H345 C361 0.959 . S
H346 C361 0.959 . S
H347 C361 0.961 . S
H348 C362 0.960 . S
H349 C362 0.961 . S
H350 C362 0.959 . S
H351 C365 0.929 . S
H352 C366 0.931 . S
H353 C368 0.930 . S
C354 H342 0.930 . S
C354 C355 1.399 . S
C354 C359 1.399 . S
C355 C354 1.399 . S
C355 C356 1.376 . S
C356 H343 0.930 . S
C356 C355 1.376 . S
C356 C357 1.388 . S
C357 H344 0.930 . S
C357 C356 1.388 . S
C357 C358 1.390 . S
C358 C357 1.390 . S
C358 C359 1.394 . S
C358 C364 1.465 . S
C359 C354 1.399 . S
C359 C358 1.394 . S
C359 C360 1.516 . S
C360 C359 1.516 . S
C360 C361 1.502 . S
C360 C362 1.561 1_545 S
C360 C363 1.526 . S
C361 H345 0.959 . S
C361 H346 0.959 . S
C361 H347 0.961 . S
C361 C360 1.502 . S
C362 H348 0.960 . S
C362 H349 0.961 . S
C362 H350 0.959 . S
C362 C360 1.561 1_565 S
C363 C360 1.526 . S
C363 C364 1.396 . S
C363 C368 1.390 . S
C364 C358 1.465 . S
C364 C363 1.396 . S
C364 C365 1.399 . S
C365 H351 0.929 . S
C365 C364 1.399 . S
C365 C366 1.385 . S
C366 H352 0.931 . S
C366 C365 1.385 . S
C366 C367 1.389 . S
C367 C366 1.389 . S
C367 C368 1.387 . S
C368 H353 0.930 . S
C368 C363 1.390 . S
C368 C367 1.387 . S
H369 C381 0.930 . S
H370 C383 0.930 1_455 S
H371 C384 0.930 . S
H372 C388 0.959 . S
H373 C388 0.959 . S
H374 C388 0.961 . S
H375 C389 0.960 . S
H376 C389 0.961 . S
H377 C389 0.959 1_556 S
H378 C392 0.929 . S
H379 C393 0.931 . S
H380 C395 0.930 . S
C381 H369 0.930 . S
C381 C382 1.399 . S
C381 C386 1.398 . S
C382 C381 1.399 . S
C382 C383 1.376 1_554 S
C383 H370 0.930 1_655 S
C383 C382 1.376 1_556 S
C383 C384 1.388 . S
C384 H371 0.930 . S
C384 C383 1.388 . S
C384 C385 1.390 . S
C385 C384 1.390 . S
C385 C386 1.396 1_556 S
C385 C391 1.465 . S
C386 C381 1.398 . S
C386 C385 1.396 1_554 S
C386 C387 1.514 . S
C387 C386 1.514 . S
C387 C388 1.521 . S
C387 C389 1.568 . S
C387 C390 1.500 1_554 S
C388 H372 0.959 . S
C388 H373 0.959 . S
C388 H374 0.961 . S
C388 C387 1.521 . S
C389 H375 0.960 . S
C389 H376 0.961 . S
C389 H377 0.959 1_554 S
C389 C387 1.568 . S
C390 C387 1.500 1_556 S
C390 C391 1.396 . S
C390 C395 1.390 . S
C391 C385 1.465 . S
C391 C390 1.396 . S
C391 C392 1.399 . S
C392 H378 0.929 . S
C392 C391 1.399 . S
C392 C393 1.385 . S
C393 H379 0.931 . S
C393 C392 1.385 . S
C393 C394 1.389 . S
C394 C393 1.389 . S
C394 C395 1.387 . S
C395 H380 0.930 . S
C395 C390 1.390 . S
C395 C394 1.387 . S
H396 C408 0.930 . S
H397 C410 0.930 . S
H398 C411 0.930 . S
H399 C415 0.959 . S
H400 C415 0.959 . S
H401 C415 0.961 . S
H402 C416 0.960 . S
H403 C416 0.961 . S
H404 C416 0.959 1_655 S
H405 C419 0.929 . S
H406 C420 0.934 . S
H407 C422 0.930 . S
C408 H396 0.930 . S
C408 C409 1.399 . S
C408 C413 1.399 . S
C409 C408 1.399 . S
C409 C410 1.376 1_455 S
C410 H397 0.930 . S
C410 C409 1.376 1_655 S
C410 C411 1.388 . S
C411 H398 0.930 . S
C411 C410 1.388 . S
C411 C412 1.390 1_655 S
C412 C411 1.390 1_455 S
C412 C413 1.394 . S
C412 C418 1.465 . S
C413 C408 1.399 . S
C413 C412 1.394 . S
C413 C414 1.516 . S
C414 C413 1.516 . S
C414 C415 1.502 . S
C414 C416 1.561 . S
C414 C417 1.526 . S
C415 H399 0.959 . S
C415 H400 0.959 . S
C415 H401 0.961 . S
C415 C414 1.502 . S
C416 H402 0.960 . S
C416 H403 0.961 . S
C416 H404 0.959 1_455 S
C416 C414 1.561 . S
C417 C414 1.526 . S
C417 C418 1.396 . S
C417 C422 1.390 . S
C418 C412 1.465 . S
C418 C417 1.396 . S
C418 C419 1.399 1_455 S
C419 H405 0.929 . S
C419 C418 1.399 1_655 S
C419 C420 1.396 . S
C420 H406 0.934 . S
C420 C419 1.396 . S
C420 C421 1.375 1_655 S
C421 C420 1.375 1_455 S
C421 C422 1.387 . S
C422 H407 0.930 . S
C422 C417 1.390 . S
C422 C421 1.387 . S
H423 C435 0.930 . S
H424 C437 0.930 . S
H425 C438 0.930 . S
H426 C442 0.959 . S
H427 C442 0.959 . S
H428 C442 0.961 . S
H429 C443 0.960 . S
H430 C443 0.961 . S
H431 C443 0.959 1_545 S
H432 C446 0.929 . S
H433 C447 0.931 . S
H434 C449 0.930 1_565 S
C435 H423 0.930 . S
C435 C436 1.399 1_565 S
C435 C440 1.399 . S
C436 C435 1.399 1_545 S
C436 C437 1.376 . S
C437 H424 0.930 . S
C437 C436 1.376 . S
C437 C438 1.388 . S
C438 H425 0.930 . S
C438 C437 1.388 . S
C438 C439 1.390 . S
C439 C438 1.390 . S
C439 C440 1.394 1_545 S
C439 C445 1.465 . S
C440 C435 1.399 . S
C440 C439 1.394 1_565 S
C440 C441 1.516 . S
C441 C440 1.516 . S
C441 C442 1.502 . S
C441 C443 1.561 . S
C441 C444 1.526 1_565 S
C442 H426 0.959 . S
C442 H427 0.959 . S
C442 H428 0.961 . S
C442 C441 1.502 . S
C443 H429 0.960 . S
C443 H430 0.961 . S
C443 H431 0.959 1_565 S
C443 C441 1.561 . S
C444 C441 1.526 1_545 S
C444 C445 1.396 . S
C444 C449 1.389 . S
C445 C439 1.465 . S
C445 C444 1.396 . S
C445 C446 1.399 . S
C446 H432 0.929 . S
C446 C445 1.399 . S
C446 C447 1.385 . S
C447 H433 0.931 . S
C447 C446 1.385 . S
C447 C448 1.389 . S
C448 C447 1.389 . S
C448 C449 1.387 . S
C449 H434 0.930 1_545 S
C449 C444 1.389 . S
C449 C448 1.387 . S
H450 C462 0.930 . S
H451 C464 0.930 . S
H452 C465 0.930 . S
H453 C469 0.959 . S
H454 C469 0.959 . S
H455 C469 0.961 . S
H456 C470 0.960 . S
H457 C470 0.961 . S
H458 C470 0.959 . S
H459 C473 0.929 . S
H460 C474 0.931 . S
H461 C476 0.930 . S
C462 H450 0.930 . S
C462 C463 1.399 1_556 S
C462 C467 1.399 . S
C463 C462 1.399 1_554 S
C463 C464 1.376 . S
C464 H451 0.930 . S
C464 C463 1.376 . S
C464 C465 1.388 . S
C465 H452 0.930 . S
C465 C464 1.388 . S
C465 C466 1.390 1_554 S
C466 C465 1.390 1_556 S
C466 C467 1.394 . S
C466 C472 1.465 . S
C467 C462 1.399 . S
C467 C466 1.394 . S
C467 C468 1.516 . S
C468 C467 1.516 . S
C468 C469 1.502 . S
C468 C470 1.561 . S
C468 C471 1.526 . S
C469 H453 0.959 . S
C469 H454 0.959 . S
C469 H455 0.961 . S
C469 C468 1.502 . S
C470 H456 0.960 . S
C470 H457 0.961 . S
C470 H458 0.959 . S
C470 C468 1.561 . S
C471 C468 1.526 . S
C471 C472 1.396 . S
C471 C476 1.390 . S
C472 C466 1.465 . S
C472 C471 1.396 . S
C472 C473 1.399 . S
C473 H459 0.929 . S
C473 C472 1.399 . S
C473 C474 1.385 . S
C474 H460 0.931 . S
C474 C473 1.385 . S
C474 C475 1.389 . S
C475 C474 1.389 . S
C475 C476 1.387 . S
C476 H461 0.930 . S
C476 C471 1.390 . S
C476 C475 1.387 . S
H477 C489 0.930 . S
H478 C491 0.930 . S
H479 C492 0.930 . S
H480 C496 0.959 . S
H481 C496 0.959 . S
H482 C496 0.961 . S
H483 C497 0.960 . S
H484 C497 0.961 . S
H485 C497 0.959 . S
H486 C500 0.929 . S
H487 C501 0.931 . S
H488 C503 0.930 . S
C489 H477 0.930 . S
C489 C490 1.399 . S
C489 C494 1.399 . S
C490 C489 1.399 . S
C490 C491 1.376 . S
C491 H478 0.930 . S
C491 C490 1.376 . S
C491 C492 1.388 . S
C492 H479 0.930 . S
C492 C491 1.388 . S
C492 C493 1.390 . S
C493 C492 1.390 . S
C493 C494 1.394 . S
C493 C499 1.465 . S
C494 C489 1.399 . S
C494 C493 1.394 . S
C494 C495 1.516 . S
C495 C494 1.516 . S
C495 C496 1.502 1_455 S
C495 C497 1.561 . S
C495 C498 1.526 . S
C496 H480 0.959 . S
C496 H481 0.959 . S
C496 H482 0.961 . S
C496 C495 1.502 1_655 S
C497 H483 0.960 . S
C497 H484 0.961 . S
C497 H485 0.959 . S
C497 C495 1.561 . S
C498 C495 1.526 . S
C498 C499 1.396 . S
C498 C503 1.390 . S
C499 C493 1.465 . S
C499 C498 1.396 . S
C499 C500 1.399 . S
C500 H486 0.929 . S
C500 C499 1.399 . S
C500 C501 1.385 . S
C501 H487 0.931 . S
C501 C500 1.385 . S
C501 C502 1.389 . S
C502 C501 1.389 . S
C502 C503 1.387 . S
C503 H488 0.930 . S
C503 C498 1.390 . S
C503 C502 1.387 . S
C205 C50 1.336 . S
C193 C11 1.299 . S
C220 C25 1.355 . S
C232 C89 1.399 . S
C247 C41 1.325 . S
C259 C156 1.433 . S
C274 C7 1.338 . S
C286 C57 1.356 . S
C313 C110 1.417 . S
C301 C21 1.414 . S
C328 C36 1.378 . S
C340 C135 1.464 . S
C367 C96 1.390 . S
C355 C39 1.386 . S
C382 C8 1.376 1_655 S
C394 C149 1.449 . S
C421 C64 1.495 . S
C409 C22 1.452 . S
C448 C103 1.414 . S
C436 C35 1.396 1_545 S
C475 C142 1.430 . S
C463 C13 1.408 . S
C490 C27 1.382 . S
C502 C43 1.460 . S
