# Generated by pormake.
# Topology ctn, (3,4)-cn, num edge types: 1
# Building blocks:
#     Node 0, Type 0, BuildingBlock: BELTOD_clean_linker_0, # of connection points: 3
#     Node 1, Type 0, BuildingBlock: BELTOD_clean_linker_0, # of connection points: 3
#     Node 2, Type 0, BuildingBlock: BELTOD_clean_linker_0, # of connection points: 3
#     Node 3, Type 0, BuildingBlock: BELTOD_clean_linker_0, # of connection points: 3
#     Node 4, Type 0, BuildingBlock: BELTOD_clean_linker_0, # of connection points: 3
#     Node 5, Type 0, BuildingBlock: BELTOD_clean_linker_0, # of connection points: 3
#     Node 6, Type 0, BuildingBlock: BELTOD_clean_linker_0, # of connection points: 3
#     Node 7, Type 0, BuildingBlock: BELTOD_clean_linker_0, # of connection points: 3
#     Node 8, Type 0, BuildingBlock: BELTOD_clean_linker_0, # of connection points: 3
#     Node 9, Type 0, BuildingBlock: BELTOD_clean_linker_0, # of connection points: 3
#     Node 10, Type 0, BuildingBlock: BELTOD_clean_linker_0, # of connection points: 3
#     Node 11, Type 0, BuildingBlock: BELTOD_clean_linker_0, # of connection points: 3
#     Node 12, Type 0, BuildingBlock: BELTOD_clean_linker_0, # of connection points: 3
#     Node 13, Type 0, BuildingBlock: BELTOD_clean_linker_0, # of connection points: 3
#     Node 14, Type 0, BuildingBlock: BELTOD_clean_linker_0, # of connection points: 3
#     Node 15, Type 0, BuildingBlock: BELTOD_clean_linker_0, # of connection points: 3
#     Node 16, Type 1, BuildingBlock: UXUYUI_clean_sbu_0, # of connection points: 4
#     Node 17, Type 1, BuildingBlock: UXUYUI_clean_sbu_0, # of connection points: 4
#     Node 18, Type 1, BuildingBlock: UXUYUI_clean_sbu_0, # of connection points: 4
#     Node 19, Type 1, BuildingBlock: UXUYUI_clean_sbu_0, # of connection points: 4
#     Node 20, Type 1, BuildingBlock: UXUYUI_clean_sbu_0, # of connection points: 4
#     Node 21, Type 1, BuildingBlock: UXUYUI_clean_sbu_0, # of connection points: 4
#     Node 22, Type 1, BuildingBlock: UXUYUI_clean_sbu_0, # of connection points: 4
#     Node 23, Type 1, BuildingBlock: UXUYUI_clean_sbu_0, # of connection points: 4
#     Node 24, Type 1, BuildingBlock: UXUYUI_clean_sbu_0, # of connection points: 4
#     Node 25, Type 1, BuildingBlock: UXUYUI_clean_sbu_0, # of connection points: 4
#     Node 26, Type 1, BuildingBlock: UXUYUI_clean_sbu_0, # of connection points: 4
#     Node 27, Type 1, BuildingBlock: UXUYUI_clean_sbu_0, # of connection points: 4
#     Edge 28, Type (0, 1), BuildingBlock: UVAHIK_clean_linker_0, # of connection points: 2
#     Edge 29, Type (0, 1), BuildingBlock: UVAHIK_clean_linker_0, # of connection points: 2
#     Edge 30, Type (0, 1), BuildingBlock: UVAHIK_clean_linker_0, # of connection points: 2
#     Edge 31, Type (0, 1), BuildingBlock: UVAHIK_clean_linker_0, # of connection points: 2
#     Edge 32, Type (0, 1), BuildingBlock: UVAHIK_clean_linker_0, # of connection points: 2
#     Edge 33, Type (0, 1), BuildingBlock: UVAHIK_clean_linker_0, # of connection points: 2
#     Edge 34, Type (0, 1), BuildingBlock: UVAHIK_clean_linker_0, # of connection points: 2
#     Edge 35, Type (0, 1), BuildingBlock: UVAHIK_clean_linker_0, # of connection points: 2
#     Edge 36, Type (0, 1), BuildingBlock: UVAHIK_clean_linker_0, # of connection points: 2
#     Edge 37, Type (0, 1), BuildingBlock: UVAHIK_clean_linker_0, # of connection points: 2
#     Edge 38, Type (0, 1), BuildingBlock: UVAHIK_clean_linker_0, # of connection points: 2
#     Edge 39, Type (0, 1), BuildingBlock: UVAHIK_clean_linker_0, # of connection points: 2
#     Edge 40, Type (0, 1), BuildingBlock: UVAHIK_clean_linker_0, # of connection points: 2
#     Edge 41, Type (0, 1), BuildingBlock: UVAHIK_clean_linker_0, # of connection points: 2
#     Edge 42, Type (0, 1), BuildingBlock: UVAHIK_clean_linker_0, # of connection points: 2
#     Edge 43, Type (0, 1), BuildingBlock: UVAHIK_clean_linker_0, # of connection points: 2
#     Edge 44, Type (0, 1), BuildingBlock: UVAHIK_clean_linker_0, # of connection points: 2
#     Edge 45, Type (0, 1), BuildingBlock: UVAHIK_clean_linker_0, # of connection points: 2
#     Edge 46, Type (0, 1), BuildingBlock: UVAHIK_clean_linker_0, # of connection points: 2
#     Edge 47, Type (0, 1), BuildingBlock: UVAHIK_clean_linker_0, # of connection points: 2
#     Edge 48, Type (0, 1), BuildingBlock: UVAHIK_clean_linker_0, # of connection points: 2
#     Edge 49, Type (0, 1), BuildingBlock: UVAHIK_clean_linker_0, # of connection points: 2
#     Edge 50, Type (0, 1), BuildingBlock: UVAHIK_clean_linker_0, # of connection points: 2
#     Edge 51, Type (0, 1), BuildingBlock: UVAHIK_clean_linker_0, # of connection points: 2
#     Edge 52, Type (0, 1), BuildingBlock: UVAHIK_clean_linker_0, # of connection points: 2
#     Edge 53, Type (0, 1), BuildingBlock: UVAHIK_clean_linker_0, # of connection points: 2
#     Edge 54, Type (0, 1), BuildingBlock: UVAHIK_clean_linker_0, # of connection points: 2
#     Edge 55, Type (0, 1), BuildingBlock: UVAHIK_clean_linker_0, # of connection points: 2
#     Edge 56, Type (0, 1), BuildingBlock: UVAHIK_clean_linker_0, # of connection points: 2
#     Edge 57, Type (0, 1), BuildingBlock: UVAHIK_clean_linker_0, # of connection points: 2
#     Edge 58, Type (0, 1), BuildingBlock: UVAHIK_clean_linker_0, # of connection points: 2
#     Edge 59, Type (0, 1), BuildingBlock: UVAHIK_clean_linker_0, # of connection points: 2
#     Edge 60, Type (0, 1), BuildingBlock: UVAHIK_clean_linker_0, # of connection points: 2
#     Edge 61, Type (0, 1), BuildingBlock: UVAHIK_clean_linker_0, # of connection points: 2
#     Edge 62, Type (0, 1), BuildingBlock: UVAHIK_clean_linker_0, # of connection points: 2
#     Edge 63, Type (0, 1), BuildingBlock: UVAHIK_clean_linker_0, # of connection points: 2
#     Edge 64, Type (0, 1), BuildingBlock: UVAHIK_clean_linker_0, # of connection points: 2
#     Edge 65, Type (0, 1), BuildingBlock: UVAHIK_clean_linker_0, # of connection points: 2
#     Edge 66, Type (0, 1), BuildingBlock: UVAHIK_clean_linker_0, # of connection points: 2
#     Edge 67, Type (0, 1), BuildingBlock: UVAHIK_clean_linker_0, # of connection points: 2
#     Edge 68, Type (0, 1), BuildingBlock: UVAHIK_clean_linker_0, # of connection points: 2
#     Edge 69, Type (0, 1), BuildingBlock: UVAHIK_clean_linker_0, # of connection points: 2
#     Edge 70, Type (0, 1), BuildingBlock: UVAHIK_clean_linker_0, # of connection points: 2
#     Edge 71, Type (0, 1), BuildingBlock: UVAHIK_clean_linker_0, # of connection points: 2
#     Edge 72, Type (0, 1), BuildingBlock: UVAHIK_clean_linker_0, # of connection points: 2
#     Edge 73, Type (0, 1), BuildingBlock: UVAHIK_clean_linker_0, # of connection points: 2
#     Edge 74, Type (0, 1), BuildingBlock: UVAHIK_clean_linker_0, # of connection points: 2
#     Edge 75, Type (0, 1), BuildingBlock: UVAHIK_clean_linker_0, # of connection points: 2
# Relax obj value: 0.001
# Max RMSD: 0.018
# Mean RMSD: 0.012
data_MOF--net-ctn--node1-UXUYUI_clean_sbu_0--node2-BELTOD_clean_linker_0--edge1-UVAHIK_clean_linker_0
_symmetry_space_group_name_H-M    P1
_symmetry_Int_Tables_number       1
_symmetry_cell_setting            triclinic
loop_
_symmetry_equiv_pos_as_xyz
'x, y, z'
_cell_length_a     91.921846
_cell_length_b     92.531327
_cell_length_c     91.764249
_cell_angle_alpha  89.369574
_cell_angle_beta   90.097757
_cell_angle_gamma 90.714895
loop_
_atom_site_label
_atom_site_type_symbol
_atom_site_fract_x
_atom_site_fract_y
_atom_site_fract_z
_atom_type_partial_charge
P0 P 0.05925 0.05646 0.06489 0.0
H1 H 0.05732 0.05193 0.09633 0.0
H2 H 0.03777 0.04348 0.11228 0.0
H3 H 0.01009 0.03681 0.07474 0.0
H4 H 0.02967 0.04576 0.05885 0.0
H5 H 0.08613 0.05661 0.04848 0.0
H6 H 0.10118 0.03745 0.03875 0.0
H7 H 0.06921 0.00564 0.05291 0.0
H8 H 0.05443 0.02487 0.06295 0.0
H9 H 0.05414 0.08738 0.06494 0.0
H10 H 0.048 0.05206 0.03523 0.0
O11 O 0.07099 0.06582 0.07511 0.0
H12 H 0.04481 0.1042 0.04668 0.0
H13 H 0.03816 0.06878 0.01693 0.0
C14 C 0.04484 0.04972 0.07645 0.0
C15 C 0.04703 0.0487 0.09152 0.0
C16 C 0.03586 0.04372 0.10063 0.0
C17 C 0.02231 0.03947 0.09482 0.0
C18 C 0.02029 0.04022 0.07961 0.0
C19 C 0.03148 0.04529 0.07051 0.0
C20 C 0.06927 0.04217 0.05656 0.0
C21 C 0.08233 0.04551 0.0494 0.0
C22 C 0.09087 0.03453 0.04375 0.0
C23 C 0.08645 0.01997 0.04509 0.0
C24 C 0.07306 0.01671 0.05189 0.0
C25 C 0.06454 0.02773 0.05758 0.0
C26 C 0.05202 0.06856 0.05131 0.0
C27 C 0.05074 0.08325 0.05446 0.0
C28 C 0.04525 0.09283 0.04404 0.0
C29 C 0.04072 0.08787 0.03029 0.0
C30 C 0.04176 0.07302 0.0273 0.0
C31 C 0.04733 0.06343 0.03776 0.0
P32 P 0.30967 0.69478 0.19453 0.0
H33 H 0.32441 0.7138 0.17389 0.0
H34 H 0.31674 0.73492 0.15995 0.0
H35 H 0.27491 0.73309 0.18144 0.0
H36 H 0.28262 0.71159 0.19509 0.0
H37 H 0.3355 0.68165 0.20704 0.0
H38 H 0.35069 0.68752 0.22792 0.0
H39 H 0.32213 0.72271 0.23842 0.0
H40 H 0.30729 0.71707 0.21697 0.0
H41 H 0.29441 0.67236 0.17842 0.0
H42 H 0.29112 0.69207 0.22064 0.0
O43 O 0.32018 0.68576 0.18303 0.0
H44 H 0.27454 0.6557 0.18472 0.0
H45 H 0.27124 0.67532 0.22708 0.0
C46 C 0.30398 0.71097 0.18526 0.0
C47 C 0.31359 0.71795 0.17561 0.0
C48 C 0.30922 0.73014 0.16775 0.0
C49 C 0.29517 0.73571 0.16952 0.0
C50 C 0.28571 0.72894 0.17962 0.0
C51 C 0.29011 0.71668 0.18747 0.0
C52 C 0.32043 0.69907 0.21033 0.0
C53 C 0.33254 0.69068 0.21378 0.0
C54 C 0.34114 0.69396 0.22587 0.0
C55 C 0.33766 0.70559 0.23494 0.0
C56 C 0.32528 0.71383 0.23157 0.0
C57 C 0.31674 0.71058 0.21935 0.0
C58 C 0.29446 0.68321 0.19919 0.0
C59 C 0.28943 0.67307 0.18908 0.0
C60 C 0.2781 0.66353 0.1927 0.0
C61 C 0.27146 0.66406 0.20647 0.0
C62 C 0.27614 0.67465 0.21639 0.0
C63 C 0.28757 0.68416 0.21276 0.0
P64 P 0.98573 0.4871 0.01532 0.0
H65 H 0.97987 0.47874 0.98552 0.0
H66 H 0.97836 0.45538 0.97343 0.0
H67 H 0.98638 0.43378 0.01463 0.0
H68 H 0.98742 0.4572 0.02669 0.0
H69 H 0.9765 0.51694 0.01158 0.0
H70 H 0.95283 0.52847 0.01275 0.0
H71 H 0.93274 0.4872 0.02341 0.0
H72 H 0.95653 0.47568 0.0218 0.0
H73 H 0.01494 0.4793 0.02415 0.0
H74 H 0.97533 0.49206 0.04529 0.0
O75 O 0.99646 0.49738 0.0047 0.0
H76 H 0.02728 0.47834 0.04776 0.0
H77 H 0.98765 0.49146 0.06887 0.0
C78 C 0.98404 0.4697 0.00691 0.0
C79 C 0.98127 0.46896 0.99193 0.0
C80 C 0.98049 0.45559 0.98504 0.0
C81 C 0.98245 0.44269 0.99302 0.0
C82 C 0.98477 0.44349 0.00816 0.0
C83 C 0.9855 0.45689 0.01506 0.0
C84 C 0.96819 0.49543 0.01631 0.0
C85 C 0.96699 0.51036 0.01407 0.0
C86 C 0.95344 0.51696 0.01489 0.0
C87 C 0.94084 0.50876 0.01816 0.0
C88 C 0.94217 0.49379 0.02064 0.0
C89 C 0.95575 0.4872 0.01976 0.0
C90 C 0.99429 0.48587 0.03295 0.0
C91 C 0.00892 0.48192 0.03388 0.0
C92 C 0.01597 0.48145 0.04738 0.0
C93 C 0.00849 0.48494 0.0602 0.0
C94 C 0.9937 0.48859 0.05923 0.0
C95 C 0.98665 0.48903 0.04571 0.0
P96 P 0.69327 0.80596 0.19649 0.0
H97 H 0.71539 0.82096 0.17946 0.0
H98 H 0.73548 0.83723 0.18593 0.0
H99 H 0.72535 0.83091 0.23157 0.0
H100 H 0.70561 0.81432 0.22501 0.0
H101 H 0.67801 0.78859 0.17506 0.0
H102 H 0.68512 0.76802 0.16038 0.0
H103 H 0.72707 0.76775 0.18175 0.0
H104 H 0.7199 0.78855 0.19626 0.0
H105 H 0.67482 0.82317 0.21485 0.0
H106 H 0.68703 0.77845 0.21205 0.0
O107 O 0.68338 0.81626 0.18531 0.0
H108 H 0.65849 0.8172 0.23506 0.0
H109 H 0.67037 0.77227 0.23198 0.0
C110 C 0.70892 0.81659 0.20172 0.0
C111 C 0.71762 0.82298 0.19086 0.0
C112 C 0.72902 0.83234 0.19458 0.0
C113 C 0.73191 0.83554 0.20927 0.0
C114 C 0.72349 0.82864 0.22016 0.0
C115 C 0.7121 0.81922 0.21641 0.0
C116 C 0.69854 0.79026 0.18649 0.0
C117 C 0.68873 0.78409 0.17659 0.0
C118 C 0.69278 0.77224 0.16829 0.0
C119 C 0.70671 0.76627 0.16984 0.0
C120 C 0.71636 0.77224 0.18013 0.0
C121 C 0.71227 0.7841 0.18846 0.0
C122 C 0.68195 0.80124 0.21184 0.0
C123 C 0.67393 0.81205 0.21858 0.0
C124 C 0.66455 0.80859 0.23007 0.0
C125 C 0.66296 0.79421 0.23503 0.0
C126 C 0.67138 0.78346 0.22849 0.0
C127 C 0.68083 0.78696 0.21701 0.0
P128 P 0.05667 0.9441 0.44857 0.0
H129 H 0.08781 0.94515 0.45373 0.0
H130 H 0.10417 0.96364 0.46334 0.0
H131 H 0.06749 0.99143 0.4707 0.0
H132 H 0.05118 0.97288 0.46063 0.0
H133 H 0.05351 0.91273 0.44844 0.0
H134 H 0.04665 0.895 0.46716 0.0
H135 H 0.04076 0.92942 0.49795 0.0
H136 H 0.04758 0.94718 0.47904 0.0
H137 H 0.05443 0.96238 0.42287 0.0
H138 H 0.02502 0.94301 0.45423 0.0
O139 O 0.06617 0.93546 0.43595 0.0
H140 H 0.03379 0.97114 0.40869 0.0
H141 H 0.00429 0.95205 0.44033 0.0
C142 C 0.06836 0.95779 0.45619 0.0
C143 C 0.08329 0.95524 0.45737 0.0
C144 C 0.09262 0.96579 0.46302 0.0
C145 C 0.08716 0.97906 0.4678 0.0
C146 C 0.07208 0.98143 0.46692 0.0
C147 C 0.06274 0.97084 0.4612 0.0
C148 C 0.05135 0.93123 0.46246 0.0
C149 C 0.05083 0.91647 0.45923 0.0
C150 C 0.04693 0.90634 0.46995 0.0
C151 C 0.04333 0.9108 0.48408 0.0
C152 C 0.04346 0.92566 0.48716 0.0
C153 C 0.04745 0.9358 0.47642 0.0
C154 C 0.04126 0.95194 0.43948 0.0
C155 C 0.04351 0.96021 0.42681 0.0
C156 C 0.03168 0.96529 0.41877 0.0
C157 C 0.01735 0.96223 0.42332 0.0
C158 C 0.01517 0.95439 0.43639 0.0
C159 C 0.02704 0.94928 0.4444 0.0
P160 P 0.23301 0.73451 0.77043 0.0
H161 H 0.25179 0.73235 0.79598 0.0
H162 H 0.25078 0.74322 0.82007 0.0
H163 H 0.2089 0.76132 0.8094 0.0
H164 H 0.21026 0.75086 0.78518 0.0
H165 H 0.25616 0.72321 0.75225 0.0
H166 H 0.26808 0.69986 0.75138 0.0
H167 H 0.24006 0.68392 0.78595 0.0
H168 H 0.22851 0.70759 0.78705 0.0
H169 H 0.22268 0.74696 0.74294 0.0
H170 H 0.20554 0.71955 0.77728 0.0
O171 O 0.24366 0.74667 0.76196 0.0
H172 H 0.19929 0.74601 0.73042 0.0
H173 H 0.18207 0.71826 0.76462 0.0
C174 C 0.23097 0.74051 0.7889 0.0
C175 C 0.24226 0.73842 0.79894 0.0
C176 C 0.24165 0.74463 0.81275 0.0
C177 C 0.22975 0.75316 0.81671 0.0
C178 C 0.2183 0.75495 0.80667 0.0
C179 C 0.21898 0.74881 0.79285 0.0
C180 C 0.2416 0.71717 0.76985 0.0
C181 C 0.25263 0.71472 0.7597 0.0
C182 C 0.25935 0.70129 0.75912 0.0
C183 C 0.25504 0.68997 0.7686 0.0
C184 C 0.2438 0.69244 0.77865 0.0
C185 C 0.23713 0.70594 0.77924 0.0
C186 C 0.2158 0.73341 0.76109 0.0
C187 C 0.21389 0.74067 0.74776 0.0
C188 C 0.20052 0.74003 0.74055 0.0
C189 C 0.18879 0.73204 0.74651 0.0
C190 C 0.19082 0.72464 0.75982 0.0
C191 C 0.20424 0.72528 0.76702 0.0
P192 P 0.98097 0.51664 0.48792 0.0
H193 H 0.0103 0.509 0.47894 0.0
H194 H 0.02289 0.5103 0.45558 0.0
H195 H 0.98467 0.52881 0.43563 0.0
H196 H 0.97201 0.52716 0.45909 0.0
H197 H 0.9986 0.52812 0.51174 0.0
H198 H 0.99983 0.55171 0.52333 0.0
H199 H 0.96702 0.56755 0.49363 0.0
H200 H 0.9658 0.54378 0.48207 0.0
H201 H 0.96818 0.49435 0.46958 0.0
H202 H 0.95346 0.52384 0.50232 0.0
O203 O 0.98948 0.50469 0.49859 0.0
H204 H 0.94387 0.48357 0.46828 0.0
H205 H 0.92896 0.51364 0.50061 0.0
C206 C 0.99015 0.51773 0.47065 0.0
C207 C 0.0046 0.51327 0.46952 0.0
C208 C 0.01183 0.51414 0.45617 0.0
C209 C 0.00478 0.51964 0.4437 0.0
C210 C 0.99033 0.52432 0.44496 0.0
C211 C 0.98311 0.52344 0.45835 0.0
C212 C 0.9819 0.53414 0.49625 0.0
C213 C 0.99164 0.53664 0.50773 0.0
C214 C 0.99242 0.55017 0.51428 0.0
C215 C 0.98348 0.56148 0.50943 0.0
C216 C 0.97389 0.55899 0.49773 0.0
C217 C 0.97322 0.54545 0.4911 0.0
C218 C 0.96256 0.51016 0.48575 0.0
C219 C 0.95961 0.49876 0.47622 0.0
C220 C 0.94566 0.49264 0.47545 0.0
C221 C 0.93437 0.49776 0.48429 0.0
C222 C 0.93739 0.5093 0.49374 0.0
C223 C 0.95138 0.51531 0.49459 0.0
P224 P 0.80192 0.81015 0.80875 0.0
H225 H 0.8311 0.81848 0.79897 0.0
H226 H 0.8464 0.81037 0.77913 0.0
H227 H 0.81226 0.78099 0.76537 0.0
H228 H 0.79704 0.78901 0.78557 0.0
H229 H 0.77682 0.8203 0.82452 0.0
H230 H 0.75658 0.83589 0.81766 0.0
H231 H 0.77209 0.83722 0.77326 0.0
H232 H 0.79234 0.82166 0.78019 0.0
H233 H 0.81444 0.79832 0.83546 0.0
H234 H 0.77874 0.78815 0.80667 0.0
O235 O 0.81165 0.82166 0.81884 0.0
H236 H 0.80762 0.77805 0.85126 0.0
H237 H 0.77213 0.76737 0.82214 0.0
C238 C 0.81296 0.80428 0.7938 0.0
C239 C 0.82687 0.81029 0.79171 0.0
C240 C 0.83559 0.80572 0.78026 0.0
C241 C 0.83055 0.79506 0.7706 0.0
C242 C 0.81653 0.7891 0.7727 0.0
C243 C 0.80781 0.7937 0.78421 0.0
C244 C 0.78598 0.81968 0.80286 0.0
C245 C 0.77572 0.82374 0.81326 0.0
C246 C 0.76422 0.83272 0.80935 0.0
C247 C 0.76279 0.83781 0.79493 0.0
C248 C 0.77284 0.83334 0.78441 0.0
C249 C 0.78443 0.82444 0.78838 0.0
C250 C 0.79696 0.79485 0.82003 0.0
C251 C 0.80515 0.79166 0.8325 0.0
C252 C 0.80131 0.77994 0.84146 0.0
C253 C 0.78931 0.77102 0.838 0.0
C254 C 0.78129 0.77412 0.82527 0.0
C255 C 0.7851 0.78594 0.81636 0.0
P256 P 0.30219 0.30774 0.30813 0.0
H257 H 0.31299 0.3237 0.28293 0.0
H258 H 0.32824 0.31701 0.26234 0.0
H259 H 0.32783 0.27267 0.27764 0.0
H260 H 0.31235 0.27939 0.29802 0.0
H261 H 0.29126 0.3337 0.3218 0.0
H262 H 0.27174 0.35022 0.31556 0.0
H263 H 0.26045 0.32381 0.27852 0.0
H264 H 0.28047 0.30758 0.28463 0.0
H265 H 0.317 0.28935 0.32911 0.0
H266 H 0.27374 0.29287 0.31128 0.0
O267 O 0.31429 0.31711 0.31791 0.0
H268 H 0.30875 0.26967 0.34513 0.0
H269 H 0.26541 0.27308 0.3272 0.0
C270 C 0.31145 0.30206 0.29194 0.0
C271 C 0.31596 0.31249 0.28169 0.0
C272 C 0.32478 0.30867 0.27 0.0
C273 C 0.32934 0.29432 0.26841 0.0
C274 C 0.32439 0.28379 0.27847 0.0
C275 C 0.31557 0.28764 0.29018 0.0
C276 C 0.28745 0.31958 0.30353 0.0
C277 C 0.28463 0.3315 0.3123 0.0
C278 C 0.27334 0.34087 0.30878 0.0
C279 C 0.26447 0.33838 0.29652 0.0
C280 C 0.26719 0.3262 0.2879 0.0
C281 C 0.27859 0.31688 0.2914 0.0
C282 C 0.29594 0.29274 0.31921 0.0
C283 C 0.30573 0.28585 0.32862 0.0
C284 C 0.30102 0.27452 0.33769 0.0
C285 C 0.2864 0.26985 0.33749 0.0
C286 C 0.27668 0.27657 0.32776 0.0
C287 C 0.28145 0.28787 0.31862 0.0
P288 P 0.48553 0.98681 0.51385 0.0
H289 H 0.50466 0.97285 0.49311 0.0
H290 H 0.50507 0.94854 0.48302 0.0
H291 H 0.46768 0.93656 0.50916 0.0
H292 H 0.46733 0.961 0.51921 0.0
H293 H 0.47313 0.00905 0.53218 0.0
H294 H 0.44928 0.02027 0.53283 0.0
H295 H 0.43421 0.99129 0.49919 0.0
H296 H 0.45831 0.9807 0.49811 0.0
H297 H 0.51349 0.99839 0.52397 0.0
H298 H 0.47718 0.97441 0.54209 0.0
O299 O 0.49465 0.99789 0.50257 0.0
H300 H 0.52555 0.99809 0.54766 0.0
H301 H 0.48937 0.97368 0.56583 0.0
C302 C 0.48574 0.96881 0.50662 0.0
C303 C 0.49651 0.96502 0.49663 0.0
C304 C 0.49681 0.95108 0.49096 0.0
C305 C 0.48635 0.94066 0.49524 0.0
C306 C 0.47574 0.94443 0.5055 0.0
C307 C 0.47554 0.95836 0.51126 0.0
C308 C 0.46739 0.99374 0.51542 0.0
C309 C 0.46462 0.00498 0.5251 0.0
C310 C 0.45092 0.01135 0.52549 0.0
C311 C 0.43972 0.00665 0.51613 0.0
C312 C 0.44257 0.99531 0.50647 0.0
C313 C 0.45633 0.98907 0.50599 0.0
C314 C 0.4944 0.98652 0.53133 0.0
C315 C 0.50812 0.99302 0.53306 0.0
C316 C 0.51507 0.99274 0.5466 0.0
C317 C 0.50845 0.98584 0.55867 0.0
C318 C 0.49469 0.97925 0.55683 0.0
C319 C 0.48775 0.97957 0.54326 0.0
P320 P 0.19133 0.3033 0.69852 0.0
H321 H 0.20061 0.33101 0.68598 0.0
H322 H 0.21886 0.34891 0.69326 0.0
H323 H 0.23091 0.32175 0.72983 0.0
H324 H 0.21259 0.30376 0.72237 0.0
H325 H 0.17758 0.27906 0.68397 0.0
H326 H 0.18682 0.2602 0.66815 0.0
H327 H 0.23058 0.27666 0.67434 0.0
H328 H 0.22122 0.29562 0.68994 0.0
H329 H 0.17086 0.31715 0.71764 0.0
H330 H 0.19107 0.27548 0.71467 0.0
O331 O 0.17926 0.31169 0.68789 0.0
H332 H 0.1567 0.30861 0.7386 0.0
H333 H 0.17696 0.26685 0.73571 0.0
C334 C 0.20508 0.31621 0.70381 0.0
C335 C 0.20713 0.32892 0.6956 0.0
C336 C 0.21754 0.33917 0.6998 0.0
C337 C 0.22621 0.33682 0.71222 0.0
C338 C 0.22441 0.32385 0.7202 0.0
C339 C 0.2139 0.31362 0.71601 0.0
C340 C 0.19869 0.28873 0.6881 0.0
C341 C 0.18918 0.27851 0.68201 0.0
C342 C 0.19449 0.26769 0.67304 0.0
C343 C 0.20945 0.26693 0.66995 0.0
C344 C 0.21899 0.27705 0.67636 0.0
C345 C 0.21365 0.28786 0.68536 0.0
C346 C 0.18177 0.29687 0.71445 0.0
C347 C 0.17228 0.30617 0.72156 0.0
C348 C 0.16428 0.3013 0.7336 0.0
C349 C 0.16566 0.28702 0.73878 0.0
C350 C 0.1755 0.27784 0.73184 0.0
C351 C 0.18358 0.28276 0.71982 0.0
P352 P 0.81131 0.19362 0.69339 0.0
H353 H 0.81853 0.20307 0.66378 0.0
H354 H 0.81084 0.22341 0.64879 0.0
H355 H 0.78409 0.2384 0.68414 0.0
H356 H 0.79157 0.21755 0.699 0.0
H357 H 0.82173 0.17714 0.71831 0.0
H358 H 0.83753 0.18326 0.73885 0.0
H359 H 0.83952 0.22763 0.72374 0.0
H360 H 0.82365 0.22146 0.7033 0.0
H361 H 0.79489 0.1727 0.67655 0.0
H362 H 0.79286 0.19077 0.71959 0.0
O363 O 0.82251 0.18358 0.68354 0.0
H364 H 0.77437 0.15668 0.68234 0.0
H365 H 0.7726 0.1744 0.72569 0.0
C366 C 0.80565 0.20885 0.68252 0.0
C367 C 0.81102 0.2107 0.66835 0.0
C368 C 0.80668 0.22245 0.6598 0.0
C369 C 0.79694 0.23265 0.66529 0.0
C370 C 0.79151 0.23069 0.67952 0.0
C371 C 0.79582 0.21885 0.68806 0.0
C372 C 0.82129 0.19887 0.70943 0.0
C373 C 0.82536 0.18823 0.71957 0.0
C374 C 0.83449 0.19173 0.73123 0.0
C375 C 0.8398 0.20593 0.7329 0.0
C376 C 0.83545 0.21664 0.72286 0.0
C377 C 0.82636 0.21311 0.71116 0.0
C378 C 0.79563 0.1826 0.69777 0.0
C379 C 0.79006 0.17314 0.68729 0.0
C380 C 0.77837 0.16394 0.69065 0.0
C381 C 0.77199 0.16404 0.70458 0.0
C382 C 0.77724 0.17403 0.71487 0.0
C383 C 0.78892 0.18331 0.71144 0.0
P384 P 0.55867 0.55608 0.56501 0.0
H385 H 0.55284 0.56057 0.59593 0.0
H386 H 0.53384 0.55162 0.61225 0.0
H387 H 0.51508 0.52683 0.57708 0.0
H388 H 0.53403 0.53623 0.56064 0.0
H389 H 0.58649 0.54488 0.5749 0.0
H390 H 0.60207 0.52572 0.56614 0.0
H391 H 0.57057 0.51569 0.5326 0.0
H392 H 0.55483 0.53478 0.5417 0.0
H393 H 0.5326 0.5737 0.56312 0.0
H394 H 0.56788 0.56187 0.53489 0.0
O395 O 0.56934 0.56759 0.57412 0.0
H396 H 0.52337 0.59005 0.54423 0.0
H397 H 0.55862 0.57808 0.51592 0.0
C398 C 0.54485 0.54903 0.57708 0.0
C399 C 0.54468 0.55319 0.59171 0.0
C400 C 0.53383 0.54797 0.60108 0.0
C401 C 0.52296 0.53843 0.59602 0.0
C402 C 0.52321 0.53426 0.58131 0.0
C403 C 0.53408 0.53953 0.57192 0.0
C404 C 0.56969 0.54148 0.55871 0.0
C405 C 0.58293 0.53859 0.56565 0.0
C406 C 0.59186 0.52765 0.56058 0.0
C407 C 0.58769 0.51932 0.54851 0.0
C408 C 0.5741 0.52189 0.54193 0.0
C409 C 0.56514 0.53285 0.54705 0.0
C410 C 0.55068 0.56623 0.55026 0.0
C411 C 0.53817 0.57434 0.55274 0.0
C412 C 0.53297 0.58377 0.54198 0.0
C413 C 0.54025 0.58529 0.52859 0.0
C414 C 0.55265 0.57695 0.52605 0.0
C415 C 0.55793 0.56764 0.53687 0.0
P416 P 0.55557 0.44635 0.95067 0.0
H417 H 0.57444 0.44963 0.97605 0.0
H418 H 0.58935 0.4697 0.98477 0.0
H419 H 0.57132 0.49733 0.95116 0.0
H420 H 0.55704 0.47699 0.94208 0.0
H421 H 0.56872 0.41952 0.96079 0.0
H422 H 0.56208 0.40195 0.9797 0.0
H423 H 0.52461 0.42739 0.99059 0.0
H424 H 0.53128 0.44492 0.97151 0.0
H425 H 0.54593 0.43719 0.92188 0.0
H426 H 0.53112 0.46607 0.95517 0.0
O427 O 0.56787 0.4388 0.93987 0.0
H428 H 0.52588 0.44455 0.90613 0.0
H429 H 0.51087 0.47342 0.93942 0.0
C430 C 0.56433 0.46187 0.95864 0.0
C431 C 0.57347 0.46009 0.97075 0.0
C432 C 0.58199 0.47163 0.97576 0.0
C433 C 0.58157 0.48521 0.9687 0.0
C434 C 0.57208 0.48702 0.95678 0.0
C435 C 0.5637 0.47541 0.95169 0.0
C436 C 0.55034 0.43339 0.96453 0.0
C437 C 0.55902 0.4213 0.96716 0.0
C438 C 0.55528 0.41131 0.97808 0.0
C439 C 0.5428 0.41326 0.98663 0.0
C440 C 0.53417 0.42548 0.98405 0.0
C441 C 0.53798 0.43552 0.97314 0.0
C442 C 0.54014 0.45123 0.93962 0.0
C443 C 0.53835 0.44511 0.92583 0.0
C444 C 0.5269 0.44934 0.91681 0.0
C445 C 0.5169 0.45967 0.92149 0.0
C446 C 0.51839 0.46541 0.93555 0.0
C447 C 0.52995 0.46123 0.94454 0.0
P448 P 0.7327 0.23476 0.26831 0.0
H449 H 0.75048 0.2316 0.29463 0.0
H450 H 0.74942 0.2428 0.31855 0.0
H451 H 0.70997 0.26459 0.30579 0.0
H452 H 0.71152 0.25386 0.28171 0.0
H453 H 0.75882 0.22495 0.25338 0.0
H454 H 0.77135 0.20187 0.25318 0.0
H455 H 0.73946 0.18393 0.28308 0.0
H456 H 0.72684 0.20713 0.28307 0.0
H457 H 0.72328 0.23928 0.23828 0.0
H458 H 0.70418 0.22441 0.27871 0.0
O459 O 0.74247 0.24698 0.25891 0.0
H460 H 0.6997 0.23684 0.22617 0.0
H461 H 0.68047 0.22194 0.26664 0.0
C462 C 0.73084 0.24155 0.28652 0.0
C463 C 0.74147 0.2386 0.29707 0.0
C464 C 0.74083 0.24501 0.31078 0.0
C465 C 0.72957 0.25458 0.31417 0.0
C466 C 0.71888 0.2574 0.30355 0.0
C467 C 0.71963 0.2511 0.28981 0.0
C468 C 0.74197 0.21775 0.26832 0.0
C469 C 0.75454 0.21608 0.25993 0.0
C470 C 0.76174 0.20288 0.25988 0.0
C471 C 0.75646 0.19108 0.26817 0.0
C472 C 0.74374 0.19278 0.27648 0.0
C473 C 0.73656 0.20602 0.27655 0.0
C474 C 0.71536 0.2324 0.25947 0.0
C475 C 0.71399 0.23551 0.24456 0.0
C476 C 0.70053 0.234 0.23762 0.0
C477 C 0.68821 0.2293 0.24549 0.0
C478 C 0.68973 0.2258 0.26036 0.0
C479 C 0.70325 0.22719 0.26726 0.0
P480 P 0.48164 0.01794 0.98409 0.0
H481 H 0.51091 0.02446 0.97392 0.0
H482 H 0.52182 0.02595 0.94965 0.0
H483 H 0.47965 0.01772 0.93033 0.0
H484 H 0.46886 0.01615 0.95463 0.0
H485 H 0.47669 0.02452 0.01446 0.0
H486 H 0.47645 0.04706 0.02806 0.0
H487 H 0.48579 0.07098 0.98835 0.0
H488 H 0.48554 0.04841 0.97478 0.0
H489 H 0.47145 0.98814 0.982 0.0
H490 H 0.45236 0.03038 0.98437 0.0
O491 O 0.49236 0.00673 0.99344 0.0
H492 H 0.44719 0.97704 0.98162 0.0
H493 H 0.42802 0.01937 0.98383 0.0
C494 C 0.48915 0.02001 0.96608 0.0
C495 C 0.50402 0.02304 0.96444 0.0
C496 C 0.51021 0.02398 0.95057 0.0
C497 C 0.50161 0.02187 0.93806 0.0
C498 C 0.4866 0.01918 0.93976 0.0
C499 C 0.48041 0.01832 0.95366 0.0
C500 C 0.48137 0.03478 0.9937 0.0
C501 C 0.47869 0.03464 0.00871 0.0
C502 C 0.47864 0.04753 0.01647 0.0
C503 C 0.48126 0.06085 0.00934 0.0
C504 C 0.48364 0.06094 0.99418 0.0
C505 C 0.48363 0.04801 0.98641 0.0
C506 C 0.46368 0.01003 0.98355 0.0
C507 C 0.46201 0.99502 0.98245 0.0
C508 C 0.44814 0.9887 0.98211 0.0
C509 C 0.43566 0.99732 0.98277 0.0
C510 C 0.4374 0.01243 0.98355 0.0
C511 C 0.45131 0.01873 0.98384 0.0
Li512 Li 0.26121 0.88518 0.9994 0.0
Li513 Li 0.25016 0.86617 0.01504 0.0
Li514 Li 0.2472 0.86641 0.9888 0.0
Li515 Li 0.23505 0.88463 0.00346 0.0
C516 C 0.27119 0.85245 0.99348 0.0
N517 N 0.28157 0.82831 0.97958 0.0
C518 C 0.26868 0.83867 0.99941 0.0
C519 C 0.27913 0.85395 0.98056 0.0
C520 C 0.27399 0.8266 0.99221 0.0
C521 C 0.28423 0.84162 0.97367 0.0
C522 C 0.24457 0.89099 0.03112 0.0
C523 C 0.22656 0.8869 0.04984 0.0
N524 N 0.23225 0.89817 0.05746 0.0
C525 C 0.25023 0.90254 0.03911 0.0
C526 C 0.23263 0.88311 0.03649 0.0
C527 C 0.24385 0.90599 0.05242 0.0
C528 C 0.27581 0.91231 0.99843 0.0
N529 N 0.27764 0.89778 0.99761 0.0
C530 C 0.30314 0.901 0.99361 0.0
C531 C 0.29096 0.89201 0.99539 0.0
C532 C 0.3016 0.91608 0.99418 0.0
C533 C 0.2877 0.92171 0.9967 0.0
H534 H 0.26506 0.91657 0.00023 0.0
H535 H 0.29212 0.88042 0.99498 0.0
C536 C 0.24559 0.8421 0.03402 0.0
N537 N 0.2528 0.85491 0.03226 0.0
C538 C 0.24798 0.83357 0.04643 0.0
C539 C 0.26476 0.85184 0.0552 0.0
C540 C 0.26219 0.85991 0.04254 0.0
C541 C 0.25777 0.83835 0.05722 0.0
H542 H 0.23825 0.83837 0.02561 0.0
H543 H 0.26773 0.87017 0.04085 0.0
C544 C 0.25072 0.89774 0.97533 0.0
N545 N 0.26179 0.91895 0.95683 0.0
C546 C 0.2432 0.91062 0.97315 0.0
C547 C 0.2637 0.89553 0.9678 0.0
C548 C 0.24901 0.92124 0.96383 0.0
C549 C 0.26918 0.90641 0.9586 0.0
C550 C 0.21904 0.85912 0.99766 0.0
C551 C 0.21438 0.86608 0.98491 0.0
C552 C 0.21055 0.84797 0.00374 0.0
C553 C 0.20125 0.86179 0.97849 0.0
C554 C 0.19749 0.844 0.99699 0.0
N555 N 0.19315 0.85093 0.98461 0.0
C556 C 0.24115 0.84004 0.97432 0.0
C557 C 0.24688 0.85984 0.95869 0.0
C558 C 0.2393 0.83096 0.96237 0.0
N559 N 0.24493 0.85417 0.97227 0.0
C560 C 0.24516 0.85118 0.94646 0.0
C561 C 0.24127 0.83652 0.94818 0.0
H562 H 0.2395 0.83584 0.98524 0.0
H563 H 0.24972 0.87111 0.95732 0.0
C564 C 0.22135 0.91119 0.0064 0.0
N565 N 0.21865 0.89672 0.00671 0.0
C566 C 0.21012 0.92092 0.0087 0.0
C567 C 0.19364 0.90067 0.01238 0.0
C568 C 0.20518 0.89133 0.00993 0.0
C569 C 0.19601 0.91568 0.01165 0.0
H570 H 0.23229 0.91518 0.00445 0.0
H571 H 0.20335 0.87982 0.01075 0.0
O572 O 0.26575 0.86437 0.0002 0.0
O573 O 0.25063 0.88761 0.018 0.0
O574 O 0.24526 0.88726 0.98455 0.0
O575 O 0.23196 0.86294 0.00408 0.0
H576 H 0.26257 0.83726 0.00937 0.0
H577 H 0.28127 0.8645 0.97582 0.0
H578 H 0.27203 0.81587 0.99664 0.0
H579 H 0.29031 0.84263 0.96362 0.0
H580 H 0.21732 0.8809 0.05413 0.0
H581 H 0.25944 0.90878 0.03505 0.0
H582 H 0.22805 0.87419 0.03043 0.0
H583 H 0.24812 0.9149 0.05873 0.0
H584 H 0.31367 0.89618 0.99197 0.0
H585 H 0.286 0.93326 0.99709 0.0
H586 H 0.2425 0.82318 0.04735 0.0
H587 H 0.27217 0.85614 0.06329 0.0
H588 H 0.2329 0.91236 0.97845 0.0
H589 H 0.26959 0.88559 0.96921 0.0
H590 H 0.24332 0.93128 0.96211 0.0
H591 H 0.27931 0.90489 0.95287 0.0
H592 H 0.22077 0.87471 0.98001 0.0
H593 H 0.21402 0.84245 0.01359 0.0
H594 H 0.19751 0.86708 0.96864 0.0
H595 H 0.19081 0.8354 0.00159 0.0
H596 H 0.23612 0.81978 0.96421 0.0
H597 H 0.24697 0.8559 0.93575 0.0
H598 H 0.2125 0.93241 0.0084 0.0
H599 H 0.18294 0.89617 0.01469 0.0
Li600 Li 0.11239 0.50514 0.26683 0.0
Li601 Li 0.13025 0.48938 0.25521 0.0
Li602 Li 0.13101 0.51642 0.25059 0.0
Li603 Li 0.11227 0.50079 0.23992 0.0
C604 C 0.14016 0.50964 0.2818 0.0
N605 N 0.15319 0.51824 0.30752 0.0
C606 C 0.14545 0.49934 0.29166 0.0
C607 C 0.14176 0.52433 0.28492 0.0
C608 C 0.15192 0.5039 0.30464 0.0
C609 C 0.14832 0.52846 0.298 0.0
C610 C 0.10656 0.47258 0.25957 0.0
C611 C 0.10803 0.44739 0.2533 0.0
N612 N 0.10279 0.44368 0.26669 0.0
C613 C 0.10108 0.46852 0.27323 0.0
C614 C 0.10997 0.46194 0.24947 0.0
C615 C 0.09928 0.45385 0.27664 0.0
C616 C 0.08776 0.51414 0.28288 0.0
N617 N 0.10092 0.50764 0.28392 0.0
C618 C 0.098 0.50448 0.30963 0.0
C619 C 0.10602 0.50263 0.29691 0.0
C620 C 0.08451 0.51141 0.30898 0.0
C621 C 0.07934 0.51617 0.29535 0.0
H622 H 0.08384 0.51781 0.27238 0.0
H623 H 0.11622 0.49702 0.29738 0.0
C624 C 0.15294 0.4701 0.24872 0.0
N625 N 0.14216 0.47288 0.25838 0.0
C626 C 0.1622 0.45843 0.25106 0.0
C627 C 0.14896 0.4526 0.27312 0.0
C628 C 0.14007 0.46445 0.27043 0.0
C629 C 0.16033 0.44951 0.26345 0.0
H630 H 0.1545 0.47709 0.23933 0.0
H631 H 0.13157 0.467 0.27806 0.0
C632 C 0.10528 0.53316 0.25286 0.0
N633 N 0.09669 0.56121 0.25779 0.0
C634 C 0.09788 0.54088 0.24203 0.0
C635 C 0.10813 0.53966 0.26626 0.0
C636 C 0.09369 0.55507 0.24471 0.0
C637 C 0.10374 0.55385 0.26853 0.0
C638 C 0.13465 0.4992 0.22199 0.0
C639 C 0.13744 0.51152 0.21345 0.0
C640 C 0.13256 0.48584 0.21529 0.0
C641 C 0.13788 0.5103 0.19829 0.0
C642 C 0.13305 0.48507 0.20011 0.0
N643 N 0.13566 0.49721 0.19199 0.0
C644 C 0.15794 0.53072 0.25141 0.0
C645 C 0.13927 0.54495 0.24098 0.0
C646 C 0.16815 0.54177 0.24896 0.0
N647 N 0.14382 0.5325 0.24744 0.0
C648 C 0.14911 0.55632 0.23841 0.0
C649 C 0.16379 0.55477 0.24233 0.0
H650 H 0.16127 0.52064 0.2564 0.0
H651 H 0.12811 0.54599 0.23753 0.0
C652 C 0.09251 0.48639 0.22084 0.0
N653 N 0.10047 0.49867 0.22296 0.0
C654 C 0.08451 0.48461 0.208 0.0
C655 C 0.09286 0.50823 0.19993 0.0
C656 C 0.10065 0.50957 0.21292 0.0
C657 C 0.08473 0.49557 0.19728 0.0
H658 H 0.09247 0.47792 0.22902 0.0
H659 H 0.10705 0.51923 0.21491 0.0
O660 O 0.1339 0.50533 0.26897 0.0
O661 O 0.10849 0.48688 0.25609 0.0
O662 O 0.10952 0.51928 0.25036 0.0
O663 O 0.13387 0.50024 0.23682 0.0
H664 H 0.14448 0.48794 0.28939 0.0
H665 H 0.13819 0.5325 0.27727 0.0
H666 H 0.15595 0.49603 0.31241 0.0
H667 H 0.14959 0.53979 0.30055 0.0
H668 H 0.11073 0.43905 0.24562 0.0
H669 H 0.09828 0.4766 0.28114 0.0
H670 H 0.11421 0.46489 0.23885 0.0
H671 H 0.09511 0.45056 0.28719 0.0
H672 H 0.10224 0.50032 0.31985 0.0
H673 H 0.06901 0.52159 0.29436 0.0
H674 H 0.17095 0.45667 0.24343 0.0
H675 H 0.14692 0.44595 0.2827 0.0
H676 H 0.09545 0.53599 0.23165 0.0
H677 H 0.11346 0.53374 0.2749 0.0
H678 H 0.08803 0.56119 0.23639 0.0
H679 H 0.10589 0.55899 0.27886 0.0
H680 H 0.1391 0.52194 0.21846 0.0
H681 H 0.13049 0.47619 0.22175 0.0
H682 H 0.13992 0.51976 0.19154 0.0
H683 H 0.13134 0.47482 0.19477 0.0
H684 H 0.17935 0.54016 0.25224 0.0
H685 H 0.14535 0.56607 0.23303 0.0
H686 H 0.07849 0.47462 0.20637 0.0
H687 H 0.09318 0.51705 0.19207 0.0
Li688 Li 0.73868 0.61598 0.00272 0.0
Li689 Li 0.74975 0.63435 0.01845 0.0
Li690 Li 0.75305 0.63484 0.99108 0.0
Li691 Li 0.76585 0.61693 0.00621 0.0
C692 C 0.72027 0.63801 0.00172 0.0
N693 N 0.69031 0.63906 0.9998 0.0
C694 C 0.71202 0.64136 0.01398 0.0
C695 C 0.71331 0.63539 0.98844 0.0
C696 C 0.69688 0.6418 0.01279 0.0
C697 C 0.69814 0.63591 0.98771 0.0
C698 C 0.75216 0.60786 0.03466 0.0
C699 C 0.7674 0.60427 0.05579 0.0
N700 N 0.75616 0.5974 0.06269 0.0
C701 C 0.74082 0.60061 0.0419 0.0
C702 C 0.7656 0.60959 0.0416 0.0
C703 C 0.74303 0.59546 0.05609 0.0
C704 C 0.72155 0.59408 0.98959 0.0
N705 N 0.72221 0.60342 0.0009 0.0
C706 C 0.69911 0.59501 0.00968 0.0
C707 C 0.71139 0.60394 0.01096 0.0
C708 C 0.6981 0.58529 0.99807 0.0
C709 C 0.70955 0.58484 0.98798 0.0
H710 H 0.73037 0.59377 0.98183 0.0
H711 H 0.71231 0.61129 0.02 0.0
C712 C 0.75228 0.65968 0.03511 0.0
N713 N 0.747 0.64589 0.03528 0.0
C714 C 0.75003 0.66869 0.04699 0.0
C715 C 0.73689 0.64916 0.05897 0.0
C716 C 0.73936 0.64056 0.04685 0.0
C717 C 0.74218 0.66348 0.05913 0.0
H718 H 0.75809 0.66374 0.02564 0.0
H719 H 0.73492 0.62972 0.04658 0.0
C720 C 0.75737 0.61214 0.97365 0.0
N721 N 0.7636 0.60974 0.94434 0.0
C722 C 0.77132 0.60832 0.96918 0.0
C723 C 0.74654 0.61456 0.96323 0.0
C724 C 0.77426 0.6072 0.9543 0.0
C725 C 0.74992 0.61336 0.94846 0.0
C726 C 0.78064 0.64414 0.01102 0.0
C727 C 0.78995 0.6506 0.00075 0.0
C728 C 0.78464 0.64392 0.02572 0.0
C729 C 0.80326 0.65643 0.00533 0.0
C730 C 0.79803 0.64988 0.02987 0.0
N731 N 0.807 0.65594 0.01967 0.0
C732 C 0.74444 0.65713 0.97167 0.0
C733 C 0.7668 0.64622 0.96566 0.0
C734 C 0.74561 0.66648 0.95965 0.0
N735 N 0.75494 0.64724 0.9744 0.0
C736 C 0.76832 0.65521 0.95343 0.0
C737 C 0.75767 0.66555 0.95034 0.0
H738 H 0.7352 0.65784 0.97888 0.0
H739 H 0.77516 0.63849 0.96824 0.0
C740 C 0.7814 0.59185 0.01349 0.0
N741 N 0.78294 0.60557 0.0082 0.0
C742 C 0.79355 0.58305 0.01516 0.0
C743 C 0.8086 0.60258 0.00571 0.0
C744 C 0.79616 0.61097 0.00415 0.0
C745 C 0.80739 0.58843 0.01132 0.0
H746 H 0.77073 0.58776 0.01645 0.0
H747 H 0.79707 0.6217 0.99951 0.0
O748 O 0.7351 0.63733 0.00272 0.0
O749 O 0.75015 0.61296 0.02075 0.0
O750 O 0.75433 0.6134 0.98816 0.0
O751 O 0.76755 0.6384 0.00669 0.0
H752 H 0.71724 0.6435 0.02432 0.0
H753 H 0.71954 0.63291 0.97883 0.0
H754 H 0.69034 0.64429 0.02221 0.0
H755 H 0.6926 0.6338 0.97753 0.0
H756 H 0.77774 0.60556 0.06129 0.0
H757 H 0.73039 0.59904 0.03664 0.0
H758 H 0.77462 0.6148 0.03605 0.0
H759 H 0.73431 0.58992 0.06185 0.0
H760 H 0.6906 0.59555 0.0178 0.0
H761 H 0.70914 0.57754 0.97883 0.0
H762 H 0.75408 0.67972 0.0465 0.0
H763 H 0.73086 0.64464 0.0681 0.0
H764 H 0.7798 0.60632 0.9771 0.0
H765 H 0.73567 0.61742 0.96651 0.0
H766 H 0.78503 0.60433 0.95068 0.0
H767 H 0.74167 0.6153 0.94027 0.0
H768 H 0.78698 0.65102 0.98935 0.0
H769 H 0.77742 0.63937 0.03388 0.0
H770 H 0.81061 0.66137 0.99748 0.0
H771 H 0.80126 0.64975 0.04121 0.0
H772 H 0.73715 0.67429 0.95761 0.0
H773 H 0.7779 0.65431 0.94665 0.0
H774 H 0.79214 0.57222 0.01958 0.0
H775 H 0.81902 0.60705 0.00233 0.0
Li776 Li 0.86372 0.01555 0.25922 0.0
Li777 Li 0.8816 0.99952 0.27128 0.0
Li778 Li 0.88334 0.00396 0.24479 0.0
Li779 Li 0.86334 0.98961 0.25609 0.0
C780 C 0.89144 0.03032 0.26584 0.0
N781 N 0.90416 0.05526 0.27658 0.0
C782 C 0.89183 0.03274 0.28085 0.0
C783 C 0.8976 0.04057 0.2563 0.0
C784 C 0.89829 0.04542 0.28606 0.0
C785 C 0.90395 0.05311 0.26194 0.0
C786 C 0.84808 0.99363 0.27934 0.0
C787 C 0.83622 0.97287 0.2904 0.0
N788 N 0.82309 0.97915 0.28817 0.0
C789 C 0.83448 0.99991 0.27723 0.0
C790 C 0.84898 0.98004 0.28606 0.0
C791 C 0.82197 0.99241 0.28175 0.0
C792 C 0.84023 0.03412 0.25201 0.0
N793 N 0.85206 0.03257 0.26081 0.0
C794 C 0.84749 0.05538 0.27183 0.0
C795 C 0.85557 0.04276 0.27082 0.0
C796 C 0.8355 0.05748 0.26257 0.0
C797 C 0.8318 0.04656 0.25267 0.0
H798 H 0.83729 0.02569 0.24447 0.0
H799 H 0.86457 0.04109 0.27814 0.0
C800 C 0.90797 0.99994 0.28694 0.0
N801 N 0.89348 0.99709 0.28816 0.0
C802 C 0.91717 0.99799 0.2989 0.0
C803 C 0.89632 0.99037 0.31321 0.0
C804 C 0.88752 0.99251 0.30097 0.0
C805 C 0.91138 0.99307 0.31225 0.0
H806 H 0.91239 0.00362 0.27661 0.0
H807 H 0.87594 0.9905 0.30168 0.0
C808 C 0.85951 0.01368 0.22886 0.0
N809 N 0.85484 0.03153 0.20502 0.0
C810 C 0.85011 0.0093 0.21773 0.0
C811 C 0.86654 0.02714 0.22787 0.0
C812 C 0.84789 0.01848 0.20576 0.0
C813 C 0.86404 0.03601 0.21574 0.0
C814 C 0.89536 0.97714 0.26112 0.0
C815 C 0.90943 0.97864 0.2555 0.0
C816 C 0.89277 0.96766 0.27282 0.0
C817 C 0.92072 0.97077 0.26183 0.0
C818 C 0.90435 0.96001 0.27887 0.0
N819 N 0.91797 0.96171 0.2733 0.0
C820 C 0.90952 0.01231 0.231 0.0
C821 C 0.8919 0.00194 0.21522 0.0
C822 C 0.91926 0.01412 0.21945 0.0
N823 N 0.89615 0.00633 0.22868 0.0
C824 C 0.90125 0.00369 0.20333 0.0
C825 C 0.91515 0.00981 0.20539 0.0
H826 H 0.91265 0.01555 0.24186 0.0
H827 H 0.88128 0.99703 0.21373 0.0
C828 C 0.83682 0.97642 0.24796 0.0
N829 N 0.85056 0.97366 0.2526 0.0
C830 C 0.82715 0.96506 0.24505 0.0
C831 C 0.846 0.94821 0.25167 0.0
C832 C 0.8553 0.95991 0.25445 0.0
C833 C 0.83172 0.9507 0.24685 0.0
H834 H 0.83339 0.98749 0.24651 0.0
H835 H 0.86634 0.95801 0.25792 0.0
O836 O 0.88544 0.01783 0.2605 0.0
O837 O 0.86042 0.00068 0.27468 0.0
O838 O 0.86186 0.00474 0.24057 0.0
O839 O 0.88421 0.985 0.25526 0.0
H840 H 0.88698 0.02505 0.2884 0.0
H841 H 0.89752 0.03886 0.24466 0.0
H842 H 0.89859 0.04746 0.29764 0.0
H843 H 0.90874 0.06113 0.25468 0.0
H844 H 0.83675 0.96229 0.29549 0.0
H845 H 0.83357 0.01042 0.27207 0.0
H846 H 0.8594 0.97498 0.28771 0.0
H847 H 0.81137 0.99711 0.28012 0.0
H848 H 0.85051 0.06334 0.27988 0.0
H849 H 0.82264 0.0477 0.24533 0.0
H850 H 0.92872 1.00005 0.29763 0.0
H851 H 0.89139 0.98676 0.32334 0.0
H852 H 0.84461 0.99889 0.21833 0.0
H853 H 0.87379 0.03071 0.23641 0.0
H854 H 0.84065 0.01523 0.19706 0.0
H855 H 0.86939 0.04645 0.21485 0.0
H856 H 0.91163 0.98583 0.24639 0.0
H857 H 0.88198 0.96643 0.27738 0.0
H858 H 0.93167 0.97188 0.25763 0.0
H859 H 0.90252 0.95276 0.28803 0.0
H860 H 0.92984 0.01898 0.22148 0.0
H861 H 0.89774 1.00007 0.19269 0.0
H862 H 0.8162 0.96749 0.24151 0.0
H863 H 0.85007 0.93733 0.25297 0.0
Li864 Li 0.25073 0.13461 0.51825 0.0
Li865 Li 0.23955 0.11517 0.50367 0.0
Li866 Li 0.26547 0.11666 0.50809 0.0
Li867 Li 0.25389 0.1346 0.49197 0.0
C868 C 0.25533 0.1022 0.53028 0.0
N869 N 0.2675 0.07891 0.54472 0.0
C870 C 0.25106 0.08811 0.5268 0.0
C871 C 0.26568 0.10444 0.54124 0.0
C872 C 0.25736 0.07647 0.5342 0.0
C873 C 0.27174 0.09253 0.54837 0.0
C874 C 0.22436 0.13908 0.49345 0.0
C875 C 0.21172 0.13445 0.4709 0.0
N876 N 0.2019 0.14476 0.47427 0.0
C877 C 0.21417 0.14965 0.49669 0.0
C878 C 0.22316 0.13143 0.48044 0.0
C879 C 0.20288 0.15235 0.48686 0.0
C880 C 0.24594 0.16149 0.53131 0.0
N881 N 0.24751 0.14716 0.53417 0.0
C882 C 0.24498 0.15108 0.55973 0.0
C883 C 0.24696 0.1418 0.54801 0.0
C884 C 0.24351 0.16599 0.55715 0.0
C885 C 0.24398 0.17116 0.54269 0.0
H886 H 0.24632 0.16541 0.52016 0.0
H887 H 0.24812 0.13034 0.54996 0.0
C888 C 0.22514 0.08998 0.49436 0.0
N889 N 0.22318 0.10269 0.50131 0.0
C890 C 0.21352 0.08029 0.49267 0.0
C891 C 0.19796 0.09716 0.50493 0.0
C892 C 0.20994 0.10645 0.50656 0.0
C893 C 0.19973 0.08382 0.49803 0.0
H894 H 0.2358 0.08729 0.49032 0.0
H895 H 0.20872 0.11664 0.51207 0.0
C896 C 0.27573 0.14879 0.51439 0.0
N897 N 0.28856 0.17129 0.5295 0.0
C898 C 0.27811 0.16218 0.50755 0.0
C899 C 0.2802 0.14677 0.52883 0.0
C900 C 0.28454 0.17344 0.51539 0.0
C901 C 0.28656 0.1583 0.53632 0.0
C902 C 0.26483 0.10977 0.47845 0.0
C903 C 0.27845 0.11667 0.47779 0.0
C904 C 0.26121 0.09927 0.46819 0.0
C905 C 0.2882 0.11294 0.46684 0.0
C906 C 0.27126 0.09587 0.45739 0.0
N907 N 0.28443 0.1027 0.45695 0.0
C908 C 0.28155 0.0911 0.5055 0.0
C909 C 0.2946 0.11025 0.51672 0.0
C910 C 0.29365 0.08218 0.50648 0.0
N911 N 0.28227 0.10487 0.51051 0.0
C912 C 0.30692 0.10164 0.51807 0.0
C913 C 0.30656 0.08745 0.51279 0.0
H914 H 0.27159 0.08709 0.50063 0.0
H915 H 0.29495 0.12126 0.52047 0.0
C916 C 0.25187 0.16125 0.47758 0.0
N917 N 0.25465 0.14709 0.47513 0.0
C918 C 0.25236 0.17133 0.46614 0.0
C919 C 0.25786 0.15198 0.44967 0.0
C920 C 0.25723 0.14228 0.46142 0.0
C921 C 0.25558 0.16677 0.45196 0.0
H922 H 0.24934 0.16473 0.48849 0.0
H923 H 0.2588 0.13095 0.45949 0.0
O924 O 0.24956 0.11372 0.52287 0.0
O925 O 0.23551 0.13642 0.50295 0.0
O926 O 0.26926 0.13768 0.50693 0.0
O927 O 0.25516 0.11301 0.48922 0.0
H928 H 0.24307 0.08614 0.5184 0.0
H929 H 0.2691 0.11523 0.54415 0.0
H930 H 0.25421 0.06551 0.53153 0.0
H931 H 0.27984 0.09411 0.55679 0.0
H932 H 0.21065 0.12861 0.4608 0.0
H933 H 0.21499 0.1557 0.5067 0.0
H934 H 0.23097 0.12325 0.47771 0.0
H935 H 0.1949 0.1605 0.48922 0.0
H936 H 0.2448 0.14664 0.5707 0.0
H937 H 0.24267 0.18253 0.54018 0.0
H938 H 0.21529 0.07017 0.48716 0.0
H939 H 0.18751 0.10022 0.50928 0.0
H940 H 0.27515 0.16385 0.49627 0.0
H941 H 0.27854 0.13649 0.53429 0.0
H942 H 0.28637 0.18387 0.51023 0.0
H943 H 0.28988 0.15692 0.54756 0.0
H944 H 0.2815 0.12481 0.48561 0.0
H945 H 0.25072 0.09383 0.46854 0.0
H946 H 0.29877 0.11818 0.4662 0.0
H947 H 0.26858 0.08777 0.44937 0.0
H948 H 0.29291 0.07126 0.50239 0.0
H949 H 0.31672 0.10615 0.52286 0.0
H950 H 0.25017 0.18256 0.46838 0.0
H951 H 0.26038 0.14794 0.43894 0.0
Li952 Li 0.38054 0.49944 0.7709 0.0
Li953 Li 0.36326 0.5152 0.7582 0.0
Li954 Li 0.36216 0.48819 0.75475 0.0
Li955 Li 0.38146 0.50332 0.74363 0.0
C956 C 0.35444 0.49546 0.78635 0.0
N957 N 0.34524 0.48701 0.81385 0.0
C958 C 0.34948 0.50573 0.79617 0.0
C959 C 0.35446 0.48087 0.79043 0.0
C960 C 0.34495 0.50126 0.81005 0.0
C961 C 0.34984 0.47682 0.8044 0.0
C962 C 0.38706 0.53176 0.76214 0.0
C963 C 0.38751 0.55658 0.75383 0.0
N964 N 0.39116 0.56085 0.76751 0.0
C965 C 0.39095 0.53638 0.77608 0.0
C966 C 0.38546 0.54192 0.75088 0.0
C967 C 0.39293 0.55114 0.77859 0.0
C968 C 0.40498 0.48953 0.78599 0.0
N969 N 0.39233 0.49673 0.78782 0.0
C970 C 0.39779 0.50036 0.81303 0.0
C971 C 0.38864 0.50221 0.80098 0.0
C972 C 0.41091 0.49289 0.81147 0.0
C973 C 0.41441 0.48739 0.79772 0.0
H974 H 0.40781 0.48553 0.77535 0.0
H975 H 0.37879 0.50831 0.80208 0.0
C976 C 0.34228 0.53539 0.74909 0.0
N977 N 0.35182 0.53217 0.75994 0.0
C978 C 0.33387 0.54783 0.74979 0.0
C979 C 0.34513 0.55334 0.77292 0.0
C980 C 0.35324 0.54074 0.77181 0.0
C981 C 0.33529 0.55707 0.76179 0.0
H982 H 0.34114 0.52827 0.7399 0.0
H983 H 0.36076 0.53785 0.78039 0.0
C984 C 0.38737 0.47095 0.75551 0.0
N985 N 0.39523 0.44222 0.75629 0.0
C986 C 0.39315 0.46451 0.74312 0.0
C987 C 0.38582 0.46283 0.76836 0.0
C988 C 0.39699 0.44995 0.74372 0.0
C989 C 0.3898 0.44831 0.76852 0.0
C990 C 0.35882 0.50524 0.72523 0.0
C991 C 0.35418 0.4934 0.71705 0.0
C992 C 0.36219 0.51833 0.7182 0.0
C993 C 0.35321 0.49478 0.7019 0.0
C994 C 0.3611 0.51928 0.70303 0.0
N995 N 0.35669 0.50758 0.69526 0.0
C996 C 0.33612 0.47236 0.75853 0.0
C997 C 0.35334 0.46071 0.74366 0.0
C998 C 0.32615 0.46103 0.75662 0.0
N999 N 0.34943 0.47198 0.75213 0.0
C1000 C 0.34373 0.44912 0.74149 0.0
C1001 C 0.3299 0.44922 0.74796 0.0
H1002 H 0.3332 0.48155 0.76504 0.0
H1003 H 0.36375 0.46087 0.73826 0.0
C1004 C 0.40539 0.51515 0.72842 0.0
N1005 N 0.39439 0.50526 0.72744 0.0
C1006 C 0.41539 0.51684 0.71708 0.0
C1007 C 0.40257 0.49814 0.70388 0.0
C1008 C 0.39289 0.49672 0.71555 0.0
C1009 C 0.41406 0.50825 0.70461 0.0
H1010 H 0.40648 0.52167 0.73807 0.0
H1011 H 0.38427 0.48869 0.71517 0.0
O1012 O 0.35892 0.49967 0.77272 0.0
O1013 O 0.38493 0.51736 0.75951 0.0
O1014 O 0.38355 0.4852 0.7551 0.0
O1015 O 0.35995 0.50405 0.74007 0.0
H1016 H 0.34921 0.51705 0.79315 0.0
H1017 H 0.35785 0.47273 0.78285 0.0
H1018 H 0.34119 0.5091 0.81779 0.0
H1019 H 0.34985 0.46556 0.8077 0.0
H1020 H 0.38622 0.56457 0.74524 0.0
H1021 H 0.39234 0.52867 0.78489 0.0
H1022 H 0.38263 0.53852 0.74 0.0
H1023 H 0.39585 0.55487 0.78934 0.0
H1024 H 0.39478 0.50503 0.82334 0.0
H1025 H 0.42432 0.48144 0.79602 0.0
H1026 H 0.32623 0.55008 0.74109 0.0
H1027 H 0.34672 0.56017 0.78231 0.0
H1028 H 0.39458 0.47066 0.73313 0.0
H1029 H 0.38177 0.46773 0.77816 0.0
H1030 H 0.40138 0.44481 0.73418 0.0
H1031 H 0.38862 0.44191 0.77839 0.0
H1032 H 0.35142 0.48323 0.72231 0.0
H1033 H 0.36564 0.52764 0.72438 0.0
H1034 H 0.34971 0.48568 0.69542 0.0
H1035 H 0.36376 0.52932 0.69744 0.0
H1036 H 0.31563 0.4615 0.76187 0.0
H1037 H 0.34695 0.44039 0.73448 0.0
H1038 H 0.42404 0.52483 0.71804 0.0
H1039 H 0.40129 0.49117 0.69455 0.0
Li1040 Li 0.7605 0.38416 0.49779 0.0
Li1041 Li 0.74951 0.36547 0.51353 0.0
Li1042 Li 0.74489 0.3661 0.48724 0.0
Li1043 Li 0.73441 0.38413 0.50332 0.0
C1044 C 0.7687 0.35134 0.49051 0.0
N1045 N 0.7774 0.32708 0.47572 0.0
C1046 C 0.76718 0.33764 0.49696 0.0
C1047 C 0.77469 0.3527 0.47656 0.0
C1048 C 0.77166 0.32552 0.4893 0.0
C1049 C 0.77899 0.3403 0.46925 0.0
C1050 C 0.75505 0.38725 0.53104 0.0
C1051 C 0.74974 0.38433 0.55665 0.0
N1052 N 0.76391 0.38731 0.55983 0.0
C1053 C 0.76956 0.39032 0.53456 0.0
C1054 C 0.74504 0.38428 0.54216 0.0
C1055 C 0.77382 0.3903 0.54919 0.0
C1056 C 0.77648 0.41021 0.50001 0.0
N1057 N 0.77713 0.39641 0.49513 0.0
C1058 C 0.80137 0.40041 0.4865 0.0
C1059 C 0.78924 0.39137 0.48853 0.0
C1060 C 0.80105 0.41469 0.4915 0.0
C1061 C 0.7884 0.41957 0.49834 0.0
H1062 H 0.76669 0.41391 0.50523 0.0
H1063 H 0.78952 0.38032 0.48489 0.0
C1064 C 0.74221 0.34489 0.53577 0.0
N1065 N 0.75301 0.35335 0.53006 0.0
C1066 C 0.74492 0.33606 0.54791 0.0
C1067 C 0.76978 0.34486 0.54802 0.0
C1068 C 0.76664 0.35335 0.53579 0.0
C1069 C 0.75887 0.33598 0.55425 0.0
H1070 H 0.73153 0.3449 0.53083 0.0
H1071 H 0.77508 0.36003 0.53088 0.0
C1072 C 0.74872 0.3993 0.47699 0.0
N1073 N 0.7595 0.42409 0.46362 0.0
C1074 C 0.74338 0.41282 0.48082 0.0
C1075 C 0.75951 0.39839 0.46633 0.0
C1076 C 0.74897 0.42522 0.47392 0.0
C1077 C 0.76483 0.41105 0.45972 0.0
C1078 C 0.71607 0.36209 0.50436 0.0
C1079 C 0.70768 0.3595 0.49192 0.0
C1080 C 0.70922 0.36439 0.5177 0.0
C1081 C 0.69252 0.35934 0.49304 0.0
C1082 C 0.69404 0.36418 0.51836 0.0
N1083 N 0.68607 0.36168 0.50612 0.0
C1084 C 0.73784 0.34015 0.4727 0.0
C1085 C 0.7429 0.36012 0.45704 0.0
C1086 C 0.73581 0.33111 0.46075 0.0
N1087 N 0.74142 0.35432 0.47063 0.0
C1088 C 0.74103 0.35147 0.4448 0.0
C1089 C 0.73748 0.33673 0.44654 0.0
H1090 H 0.73664 0.33587 0.48365 0.0
H1091 H 0.74566 0.37142 0.45571 0.0
C1092 C 0.71805 0.40469 0.51854 0.0
N1093 N 0.71813 0.39626 0.50651 0.0
C1094 C 0.70661 0.41414 0.52092 0.0
C1095 C 0.69548 0.40605 0.49851 0.0
C1096 C 0.70722 0.39684 0.49649 0.0
C1097 C 0.69515 0.41494 0.51081 0.0
H1098 H 0.72698 0.40426 0.52617 0.0
H1099 H 0.70775 0.39028 0.48683 0.0
O1100 O 0.76407 0.36332 0.49769 0.0
O1101 O 0.7507 0.38699 0.51677 0.0
O1102 O 0.74365 0.38705 0.48387 0.0
O1103 O 0.73092 0.36249 0.50345 0.0
H1104 H 0.76248 0.33636 0.50769 0.0
H1105 H 0.77571 0.36317 0.47129 0.0
H1106 H 0.7705 0.31485 0.49414 0.0
H1107 H 0.78352 0.34118 0.4584 0.0
H1108 H 0.74213 0.38196 0.56535 0.0
H1109 H 0.77749 0.39252 0.52611 0.0
H1110 H 0.7338 0.38178 0.53963 0.0
H1111 H 0.78502 0.39259 0.55207 0.0
H1112 H 0.81099 0.39618 0.48134 0.0
H1113 H 0.78769 0.43054 0.50224 0.0
H1114 H 0.73622 0.32921 0.5521 0.0
H1115 H 0.78064 0.34536 0.55259 0.0
H1116 H 0.73512 0.41376 0.48911 0.0
H1117 H 0.76396 0.38805 0.46342 0.0
H1118 H 0.74497 0.43576 0.47681 0.0
H1119 H 0.77327 0.41052 0.45154 0.0
H1120 H 0.71279 0.35778 0.48149 0.0
H1121 H 0.71556 0.36648 0.52741 0.0
H1122 H 0.68588 0.35741 0.4835 0.0
H1123 H 0.68859 0.36604 0.5286 0.0
H1124 H 0.73286 0.31988 0.46264 0.0
H1125 H 0.74262 0.35626 0.43409 0.0
H1126 H 0.70673 0.42076 0.53058 0.0
H1127 H 0.68696 0.40651 0.49036 0.0
Li1128 Li 0.63083 0.9903 0.75376 0.0
Li1129 Li 0.61267 0.0066 0.76377 0.0
Li1130 Li 0.61253 0.00134 0.73801 0.0
Li1131 Li 0.63181 0.01624 0.74922 0.0
C1132 C 0.60521 0.97735 0.76454 0.0
N1133 N 0.59721 0.957 0.78541 0.0
C1134 C 0.61247 0.9768 0.77795 0.0
C1135 C 0.59387 0.96755 0.76178 0.0
C1136 C 0.60827 0.96643 0.78834 0.0
C1137 C 0.59 0.95734 0.77246 0.0
C1138 C 0.64351 0.01414 0.77577 0.0
C1139 C 0.65096 0.03712 0.7857 0.0
N1140 N 0.66354 0.03111 0.79049 0.0
C1141 C 0.65642 0.00815 0.78099 0.0
C1142 C 0.64067 0.02869 0.77834 0.0
C1143 C 0.66644 0.01692 0.78834 0.0
C1144 C 0.6573 0.97613 0.75713 0.0
N1145 N 0.64273 0.97364 0.75619 0.0
C1146 C 0.64627 0.94815 0.75862 0.0
C1147 C 0.63712 0.95996 0.75654 0.0
C1148 C 0.66129 0.95049 0.76034 0.0
C1149 C 0.66681 0.96468 0.7594 0.0
H1150 H 0.66152 0.98705 0.75614 0.0
H1151 H 0.62558 0.95815 0.7552 0.0
C1152 C 0.58588 0.00618 0.77892 0.0
N1153 N 0.60024 0.00965 0.78012 0.0
C1154 C 0.57652 0.00796 0.79072 0.0
C1155 C 0.59697 0.01658 0.8049 0.0
C1156 C 0.6059 0.01469 0.7928 0.0
C1157 C 0.58204 0.01321 0.80397 0.0
H1158 H 0.5817 0.00193 0.76878 0.0
H1159 H 0.61739 0.01702 0.79364 0.0
C1160 C 0.63725 0.99065 0.72445 0.0
N1161 N 0.64389 0.97091 0.70318 0.0
C1162 C 0.64872 0.99344 0.71482 0.0
C1163 C 0.62916 0.97782 0.7233 0.0
C1164 C 0.65191 0.98332 0.70413 0.0
C1165 C 0.63269 0.96798 0.71246 0.0
C1166 C 0.59873 0.02795 0.75104 0.0
C1167 C 0.58506 0.02349 0.74596 0.0
C1168 C 0.5998 0.03983 0.76028 0.0
C1169 C 0.57268 0.03086 0.75038 0.0
C1170 C 0.58717 0.0469 0.76448 0.0
N1171 N 0.57398 0.0423 0.75949 0.0
C1172 C 0.58935 0.98998 0.72093 0.0
C1173 C 0.60592 0.00551 0.70841 0.0
C1174 C 0.58125 0.98798 0.70819 0.0
N1175 N 0.60139 0.99865 0.72078 0.0
C1176 C 0.59822 0.00374 0.69541 0.0
C1177 C 0.58569 0.99489 0.6952 0.0
H1178 H 0.58601 0.98468 0.73095 0.0
H1179 H 0.61555 0.01234 0.70865 0.0
C1180 C 0.65943 0.02901 0.74535 0.0
N1181 N 0.64497 0.03186 0.74562 0.0
C1182 C 0.66952 0.04011 0.74262 0.0
C1183 C 0.64963 0.05685 0.74043 0.0
C1184 C 0.63992 0.04542 0.74322 0.0
C1185 C 0.66466 0.05426 0.74003 0.0
H1186 H 0.6631 0.01809 0.7473 0.0
H1187 H 0.62834 0.04734 0.74338 0.0
O1188 O 0.60898 0.9875 0.7542 0.0
O1189 O 0.63363 0.00576 0.76836 0.0
O1190 O 0.63407 0.00046 0.73499 0.0
O1191 O 0.61095 0.02068 0.74705 0.0
H1192 H 0.62126 0.98425 0.78036 0.0
H1193 H 0.58812 0.96781 0.75149 0.0
H1194 H 0.61379 0.96589 0.79875 0.0
H1195 H 0.58125 0.94969 0.77045 0.0
H1196 H 0.64894 0.04844 0.7876 0.0
H1197 H 0.65863 0.99682 0.77956 0.0
H1198 H 0.63068 0.03346 0.77454 0.0
H1199 H 0.6765 0.01242 0.79238 0.0
H1200 H 0.6416 0.93736 0.75921 0.0
H1201 H 0.67837 0.96689 0.76033 0.0
H1202 H 0.56509 0.0053 0.78945 0.0
H1203 H 0.60178 0.02034 0.81496 0.0
H1204 H 0.6551 0.00332 0.71561 0.0
H1205 H 0.62027 0.97545 0.73067 0.0
H1206 H 0.66075 0.98533 0.69659 0.0
H1207 H 0.62652 0.95801 0.71144 0.0
H1208 H 0.58398 0.01432 0.73884 0.0
H1209 H 0.61026 0.04356 0.76422 0.0
H1210 H 0.56204 0.02745 0.74661 0.0
H1211 H 0.58784 0.05605 0.77169 0.0
H1212 H 0.57174 0.98096 0.70847 0.0
H1213 H 0.60192 0.0094 0.68568 0.0
H1214 H 0.681 0.03763 0.74262 0.0
H1215 H 0.64538 0.06754 0.73829 0.0
Li1216 Li 0.01368 0.25284 0.87451 0.0
Li1217 Li 0.99638 0.26471 0.89082 0.0
Li1218 Li 0.00121 0.23911 0.89395 0.0
Li1219 Li 0.9876 0.24877 0.87297 0.0
C1220 C 0.02532 0.26549 0.90007 0.0
N1221 N 0.04561 0.28622 0.90813 0.0
C1222 C 0.02625 0.27866 0.89247 0.0
C1223 C 0.03471 0.26289 0.91178 0.0
C1224 C 0.03657 0.28899 0.89671 0.0
C1225 C 0.0449 0.2735 0.91567 0.0
C1226 C 0.9913 0.27264 0.85766 0.0
C1227 C 0.96954 0.28236 0.84678 0.0
N1228 N 0.97629 0.28287 0.83361 0.0
C1229 C 0.99808 0.27347 0.84406 0.0
C1230 C 0.97698 0.27733 0.85907 0.0
C1231 C 0.9903 0.2786 0.83202 0.0
C1232 C 0.02982 0.24973 0.84896 0.0
N1233 N 0.03123 0.2536 0.86316 0.0
C1234 C 0.05672 0.25801 0.85987 0.0
C1235 C 0.04444 0.25728 0.8688 0.0
C1236 C 0.05546 0.25467 0.84502 0.0
C1237 C 0.04181 0.25026 0.83964 0.0
H1238 H 0.01929 0.24636 0.84485 0.0
H1239 H 0.04559 0.25961 0.88022 0.0
C1240 C 0.9953 0.28198 0.91606 0.0
N1241 N 0.99314 0.28205 0.9014 0.0
C1242 C 0.99353 0.2946 0.92404 0.0
C1243 C 0.98754 0.30719 0.90164 0.0
C1244 C 0.98937 0.29432 0.89412 0.0
C1245 C 0.98968 0.30747 0.91681 0.0
H1246 H 0.99858 0.27213 0.92153 0.0
H1247 H 0.98799 0.29417 0.88244 0.0
C1248 C 0.01306 0.22329 0.87134 0.0
N1249 N 0.03293 0.20142 0.86806 0.0
C1250 C 0.01059 0.21247 0.8611 0.0
C1251 C 0.02566 0.22302 0.87989 0.0
C1252 C 0.02076 0.2015 0.85961 0.0
C1253 C 0.03557 0.21186 0.87807 0.0
C1254 C 0.97385 0.25405 0.90489 0.0
C1255 C 0.97602 0.24914 0.91918 0.0
C1256 C 0.9635 0.26468 0.9021 0.0
C1257 C 0.96797 0.25512 0.93047 0.0
C1258 C 0.95569 0.27041 0.91369 0.0
N1259 N 0.95808 0.26556 0.92752 0.0
C1260 C 0.00984 0.22576 0.92029 0.0
C1261 C 0.99858 0.20995 0.90338 0.0
C1262 C 0.01172 0.21438 0.93021 0.0
N1263 N 0.00335 0.22335 0.90721 0.0
C1264 C 0.00041 0.19822 0.91289 0.0
C1265 C 0.00702 0.20038 0.92652 0.0
H1266 H 0.01347 0.23654 0.92304 0.0
H1267 H 0.99343 0.20838 0.89291 0.0
C1268 C 0.97601 0.24047 0.84585 0.0
N1269 N 0.97238 0.24444 0.85957 0.0
C1270 C 0.96516 0.23753 0.83559 0.0
C1271 C 0.94707 0.24282 0.8538 0.0
C1272 C 0.95826 0.24556 0.86373 0.0
C1273 C 0.95046 0.23873 0.83952 0.0
H1274 H 0.98736 0.23971 0.84287 0.0
H1275 H 0.9557 0.24863 0.87475 0.0
O1276 O 0.0151 0.2553 0.89634 0.0
O1277 O 0.99867 0.26738 0.86955 0.0
O1278 O 0.00321 0.23414 0.87282 0.0
O1279 O 0.98183 0.2485 0.89371 0.0
H1280 H 0.01912 0.2809 0.88337 0.0
H1281 H 0.03415 0.25278 0.91779 0.0
H1282 H 0.0374 0.29922 0.89093 0.0
H1283 H 0.05224 0.27162 0.9247 0.0
H1284 H 0.95839 0.28584 0.84771 0.0
H1285 H 0.00926 0.2703 0.84279 0.0
H1286 H 0.97159 0.27689 0.86951 0.0
H1287 H 0.99541 0.27922 0.82141 0.0
H1288 H 0.06711 0.26107 0.86457 0.0
H1289 H 0.04033 0.24758 0.82828 0.0
H1290 H 0.99551 0.29437 0.93567 0.0
H1291 H 0.98447 0.31683 0.89565 0.0
H1292 H 0.0009 0.21257 0.85437 0.0
H1293 H 0.0278 0.23133 0.88784 0.0
H1294 H 0.01899 0.19304 0.85173 0.0
H1295 H 0.04536 0.21151 0.88462 0.0
H1296 H 0.98386 0.24086 0.92157 0.0
H1297 H 0.96159 0.26859 0.89115 0.0
H1298 H 0.96961 0.25147 0.94158 0.0
H1299 H 0.94775 0.27873 0.91169 0.0
H1300 H 0.01697 0.21647 0.94056 0.0
H1301 H 0.99654 0.18761 0.90971 0.0
H1302 H 0.96825 0.23455 0.82465 0.0
H1303 H 0.93587 0.24368 0.85733 0.0
Li1304 Li 0.5129 0.75211 0.37317 0.0
Li1305 Li 0.49757 0.76353 0.39146 0.0
Li1306 Li 0.5024 0.73759 0.39235 0.0
Li1307 Li 0.48652 0.74789 0.37361 0.0
C1308 C 0.52396 0.7495 0.40624 0.0
N1309 N 0.53783 0.73933 0.43097 0.0
C1310 C 0.52012 0.75466 0.41995 0.0
C1311 C 0.53489 0.7392 0.40511 0.0
C1312 C 0.52726 0.74939 0.43232 0.0
C1313 C 0.54175 0.73418 0.41774 0.0
C1314 C 0.49647 0.78076 0.36852 0.0
C1315 C 0.48305 0.80295 0.36973 0.0
N1316 N 0.4955 0.81057 0.36692 0.0
C1317 C 0.50912 0.78881 0.36559 0.0
C1318 C 0.48331 0.78787 0.37054 0.0
C1319 C 0.50841 0.80387 0.36483 0.0
C1320 C 0.52609 0.75762 0.34611 0.0
N1321 N 0.52902 0.75525 0.36045 0.0
C1322 C 0.55454 0.75804 0.35614 0.0
C1323 C 0.54288 0.75544 0.36561 0.0
C1324 C 0.55186 0.76055 0.34124 0.0
C1325 C 0.53739 0.76023 0.33626 0.0
H1326 H 0.51493 0.75752 0.34234 0.0
H1327 H 0.54489 0.75375 0.3771 0.0
C1328 C 0.48326 0.78256 0.41082 0.0
N1329 N 0.49546 0.7805 0.4028 0.0
C1330 C 0.48183 0.79504 0.4191 0.0
C1331 C 0.50561 0.80295 0.41081 0.0
C1332 C 0.50661 0.79028 0.40278 0.0
C1333 C 0.49309 0.80549 0.41914 0.0
H1334 H 0.4747 0.77447 0.4109 0.0
H1335 H 0.51627 0.78825 0.39647 0.0
C1336 C 0.50875 0.72774 0.35953 0.0
N1337 N 0.52276 0.71741 0.33522 0.0
C1338 C 0.50177 0.72786 0.34598 0.0
C1339 C 0.52283 0.7223 0.36072 0.0
C1340 C 0.50904 0.72259 0.33382 0.0
C1341 C 0.52974 0.71716 0.3483 0.0
C1342 C 0.46933 0.74387 0.39633 0.0
C1343 C 0.46528 0.7298 0.40043 0.0
C1344 C 0.4586 0.75396 0.39298 0.0
C1345 C 0.45052 0.72604 0.40106 0.0
C1346 C 0.44397 0.74977 0.39371 0.0
N1347 N 0.44026 0.73601 0.3977 0.0
C1348 C 0.50008 0.72261 0.41913 0.0
C1349 C 0.51215 0.70962 0.40072 0.0
C1350 C 0.50201 0.71126 0.42906 0.0
N1351 N 0.50515 0.72159 0.40528 0.0
C1352 C 0.51447 0.69807 0.41033 0.0
C1353 C 0.50935 0.69877 0.42474 0.0
H1354 H 0.4945 0.73226 0.42243 0.0
H1355 H 0.51605 0.70909 0.38965 0.0
C1356 C 0.46556 0.75462 0.35195 0.0
N1357 N 0.46987 0.74438 0.36169 0.0
C1358 C 0.45379 0.75194 0.34267 0.0
C1359 C 0.45099 0.72828 0.3538 0.0
C1360 C 0.46295 0.73134 0.36268 0.0
C1361 C 0.44631 0.73859 0.34348 0.0
H1362 H 0.47147 0.76477 0.35115 0.0
H1363 H 0.46682 0.72326 0.3703 0.0
O1364 O 0.5168 0.75421 0.39404 0.0
O1365 O 0.49699 0.76602 0.3696 0.0
O1366 O 0.50191 0.7331 0.37151 0.0
O1367 O 0.48373 0.74772 0.39548 0.0
H1368 H 0.5116 0.76253 0.42104 0.0
H1369 H 0.53786 0.73493 0.39461 0.0
H1370 H 0.52436 0.75324 0.443 0.0
H1371 H 0.55015 0.72613 0.41704 0.0
H1372 H 0.47296 0.80859 0.37136 0.0
H1373 H 0.51942 0.7835 0.36409 0.0
H1374 H 0.47343 0.78181 0.37285 0.0
H1375 H 0.51812 0.81024 0.36265 0.0
H1376 H 0.56549 0.7584 0.36049 0.0
H1377 H 0.53481 0.76194 0.32486 0.0
H1378 H 0.47211 0.79638 0.42557 0.0
H1379 H 0.51449 0.81073 0.41036 0.0
H1380 H 0.49091 0.73208 0.34481 0.0
H1381 H 0.52849 0.72234 0.37106 0.0
H1382 H 0.50379 0.72266 0.32326 0.0
H1383 H 0.54068 0.71304 0.34904 0.0
H1384 H 0.47342 0.72181 0.40293 0.0
H1385 H 0.46154 0.76486 0.38968 0.0
H1386 H 0.44723 0.71517 0.40416 0.0
H1387 H 0.43556 0.75744 0.39107 0.0
H1388 H 0.49765 0.71223 0.43995 0.0
H1389 H 0.52038 0.6888 0.40653 0.0
H1390 H 0.45085 0.76012 0.33471 0.0
H1391 H 0.44552 0.71791 0.35501 0.0
Li1392 Li 0.99884 0.76024 0.62167 0.0
Li1393 Li 0.98294 0.74881 0.64009 0.0
Li1394 Li 0.01015 0.74486 0.64077 0.0
Li1395 Li 0.99441 0.73333 0.62258 0.0
C1396 C 0.0031 0.77663 0.64753 0.0
N1397 N 0.01124 0.80406 0.65632 0.0
C1398 C 0.99267 0.78616 0.65271 0.0
C1399 C 0.01771 0.78099 0.64706 0.0
C1400 C 0.99698 0.8 0.65704 0.0
C1401 C 0.0216 0.79491 0.65149 0.0
C1402 C 0.9663 0.75264 0.6161 0.0
C1403 C 0.94077 0.74631 0.61617 0.0
N1404 N 0.93757 0.75997 0.61168 0.0
C1405 C 0.96277 0.76658 0.61137 0.0
C1406 C 0.95523 0.74238 0.6184 0.0
C1407 C 0.94818 0.77008 0.60924 0.0
C1408 C 0.00731 0.77327 0.5954 0.0
N1409 N 0.00196 0.77635 0.6088 0.0
C1410 C 0.00189 0.8016 0.60294 0.0
C1411 C 0.99901 0.79016 0.61262 0.0
C1412 C 0.00773 0.79878 0.58913 0.0
C1413 C 0.01031 0.78435 0.58537 0.0
H1414 H 0.00932 0.76216 0.59254 0.0
H1415 H 0.9944 0.79235 0.62315 0.0
C1416 C 0.96276 0.74167 0.66238 0.0
N1417 N 0.96603 0.75156 0.65178 0.0
C1418 C 0.95057 0.74345 0.67123 0.0
C1419 C 0.94529 0.76553 0.65806 0.0
C1420 C 0.95763 0.76338 0.64955 0.0
C1421 C 0.94165 0.75552 0.66911 0.0
H1422 H 0.96969 0.73244 0.66405 0.0
H1423 H 0.9606 0.77124 0.64126 0.0
C1424 C 0.02707 0.74537 0.61504 0.0
N1425 N 0.05579 0.74776 0.60635 0.0
C1426 C 0.03425 0.73337 0.60955 0.0
C1427 C 0.03444 0.75864 0.61585 0.0
C1428 C 0.04879 0.73477 0.6053 0.0
C1429 C 0.04896 0.75962 0.61147 0.0
C1430 C 0.99175 0.71624 0.64594 0.0
C1431 C 0.00314 0.70747 0.65065 0.0
C1432 C 0.97816 0.71002 0.6429 0.0
C1433 C 0.00081 0.69257 0.65199 0.0
C1434 C 0.97627 0.69507 0.64436 0.0
N1435 N 0.98755 0.68673 0.64882 0.0
C1436 C 0.02882 0.75022 0.66493 0.0
C1437 C 0.03705 0.73253 0.64852 0.0
C1438 C 0.04147 0.74887 0.67328 0.0
N1439 N 0.027 0.74231 0.65265 0.0
C1440 C 0.04984 0.73081 0.65653 0.0
C1441 C 0.05228 0.73917 0.66901 0.0
H1442 H 0.02052 0.75771 0.66816 0.0
H1443 H 0.03512 0.72601 0.639 0.0
C1444 C 0.98155 0.71545 0.60101 0.0
N1445 N 0.99244 0.71646 0.611 0.0
C1446 C 0.98027 0.70325 0.59223 0.0
C1447 C 0.0014 0.69335 0.60425 0.0
C1448 C 0.0023 0.70575 0.61273 0.0
C1449 C 0.99032 0.69199 0.59376 0.0
H1450 H 0.97397 0.72421 0.59971 0.0
H1451 H 0.01091 0.70687 0.62068 0.0
O1452 O 0.99902 0.76305 0.64323 0.0
O1453 O 0.98053 0.74905 0.61833 0.0
O1454 O 0.01283 0.74416 0.6193 0.0
O1455 O 0.99388 0.73083 0.64434 0.0
H1456 H 0.98135 0.78295 0.65333 0.0
H1457 H 0.026 0.77366 0.64351 0.0
H1458 H 0.989 0.8075 0.66098 0.0
H1459 H 0.03286 0.79842 0.65114 0.0
H1460 H 0.93209 0.73851 0.618 0.0
H1461 H 0.97119 0.77463 0.60945 0.0
H1462 H 0.95778 0.73152 0.62191 0.0
H1463 H 0.94528 0.78085 0.60566 0.0
H1464 H 0.99976 0.81254 0.60635 0.0
H1465 H 0.0145 0.78161 0.57475 0.0
H1466 H 0.94811 0.73543 0.67958 0.0
H1467 H 0.93886 0.77511 0.65622 0.0
H1468 H 0.0287 0.72306 0.60866 0.0
H1469 H 0.02897 0.76814 0.61964 0.0
H1470 H 0.05451 0.72554 0.60114 0.0
H1471 H 0.05479 0.76983 0.61208 0.0
H1472 H 0.01369 0.71211 0.65316 0.0
H1473 H 0.9692 0.71666 0.63939 0.0
H1474 H 0.00956 0.68565 0.65553 0.0
H1475 H 0.96584 0.69011 0.64194 0.0
H1476 H 0.0429 0.75558 0.68278 0.0
H1477 H 0.05769 0.72294 0.65302 0.0
H1478 H 0.97169 0.70278 0.58415 0.0
H1479 H 0.00927 0.68488 0.60597 0.0
Li1480 Li 0.50016 0.25897 0.1203 0.0
Li1481 Li 0.48403 0.24896 0.13916 0.0
Li1482 Li 0.51026 0.24476 0.13995 0.0
Li1483 Li 0.49464 0.23304 0.12179 0.0
C1484 C 0.50114 0.27793 0.14127 0.0
N1485 N 0.50295 0.30773 0.13948 0.0
C1486 C 0.48873 0.28624 0.14331 0.0
C1487 C 0.51448 0.28478 0.13836 0.0
C1488 C 0.48987 0.3013 0.14237 0.0
C1489 C 0.51517 0.29986 0.13747 0.0
C1490 C 0.47357 0.24407 0.10618 0.0
C1491 C 0.45616 0.22744 0.09571 0.0
N1492 N 0.45945 0.23272 0.0822 0.0
C1493 C 0.47676 0.24935 0.09221 0.0
C1494 C 0.46315 0.23306 0.10797 0.0
C1495 C 0.4695 0.24347 0.08022 0.0
C1496 C 0.51619 0.27565 0.09977 0.0
N1497 N 0.50352 0.27492 0.10735 0.0
C1498 C 0.49575 0.29725 0.09675 0.0
C1499 C 0.49326 0.28529 0.10588 0.0
C1500 C 0.50887 0.29845 0.08896 0.0
C1501 C 0.51911 0.28737 0.09049 0.0
H1502 H 0.52402 0.26711 0.10089 0.0
H1503 H 0.48318 0.28433 0.1119 0.0
C1504 C 0.46992 0.25734 0.16482 0.0
N1505 N 0.46752 0.25271 0.15101 0.0
C1506 C 0.45823 0.26031 0.17394 0.0
C1507 C 0.44179 0.25361 0.1545 0.0
C1508 C 0.45381 0.25084 0.14571 0.0
C1509 C 0.44392 0.25848 0.1688 0.0
H1510 H 0.48095 0.25875 0.16871 0.0
H1511 H 0.45221 0.24729 0.13465 0.0
C1512 C 0.52773 0.23827 0.1184 0.0
N1513 N 0.55613 0.22884 0.1192 0.0
C1514 C 0.53078 0.2237 0.11615 0.0
C1515 C 0.53914 0.24806 0.12098 0.0
C1516 C 0.54521 0.21915 0.1166 0.0
C1517 C 0.55342 0.24307 0.12138 0.0
C1518 C 0.48706 0.22583 0.15522 0.0
C1519 C 0.49306 0.22816 0.16901 0.0
C1520 C 0.47332 0.21932 0.15398 0.0
C1521 C 0.48515 0.22397 0.18138 0.0
C1522 C 0.46574 0.21533 0.16661 0.0
N1523 N 0.47176 0.21772 0.17993 0.0
C1524 C 0.53266 0.25339 0.15954 0.0
C1525 C 0.53243 0.22857 0.15341 0.0
C1526 C 0.54517 0.25155 0.16798 0.0
N1527 N 0.52671 0.24202 0.15231 0.0
C1528 C 0.54502 0.22627 0.1616 0.0
C1529 C 0.55161 0.23788 0.16893 0.0
H1530 H 0.52777 0.26392 0.15865 0.0
H1531 H 0.52732 0.21968 0.14772 0.0
C1532 C 0.49532 0.21665 0.09608 0.0
N1533 N 0.49209 0.21603 0.11053 0.0
C1534 C 0.49373 0.20437 0.08749 0.0
C1535 C 0.4858 0.19097 0.10887 0.0
C1536 C 0.48746 0.20354 0.11703 0.0
C1537 C 0.48896 0.19129 0.09389 0.0
H1538 H 0.49922 0.22668 0.09126 0.0
H1539 H 0.48515 0.20331 0.12856 0.0
O1540 O 0.5002 0.26317 0.14188 0.0
O1541 O 0.48075 0.2495 0.11803 0.0
O1542 O 0.51365 0.24289 0.1183 0.0
O1543 O 0.49448 0.23018 0.14299 0.0
H1544 H 0.47829 0.28114 0.14543 0.0
H1545 H 0.52416 0.27852 0.13659 0.0
H1546 H 0.48035 0.30786 0.14388 0.0
H1547 H 0.5254 0.30529 0.13513 0.0
H1548 H 0.44816 0.21883 0.09692 0.0
H1549 H 0.48484 0.25781 0.09061 0.0
H1550 H 0.46069 0.22869 0.11868 0.0
H1551 H 0.4719 0.24742 0.06934 0.0
H1552 H 0.48758 0.30556 0.09598 0.0
H1553 H 0.52923 0.28766 0.08446 0.0
H1554 H 0.46036 0.2639 0.18494 0.0
H1555 H 0.43094 0.25223 0.15005 0.0
H1556 H 0.52211 0.21595 0.11424 0.0
H1557 H 0.53697 0.25934 0.12289 0.0
H1558 H 0.54773 0.2079 0.11495 0.0
H1559 H 0.56233 0.2505 0.12348 0.0
H1560 H 0.50364 0.23327 0.17018 0.0
H1561 H 0.46844 0.2176 0.14339 0.0
H1562 H 0.48963 0.22576 0.19213 0.0
H1563 H 0.45504 0.21039 0.16583 0.0
H1564 H 0.54995 0.2608 0.17341 0.0
H1565 H 0.54952 0.21552 0.16223 0.0
H1566 H 0.4965 0.20503 0.07603 0.0
H1567 H 0.48199 0.18114 0.11421 0.0
C1568 C 0.22477 0.77518 0.83155 0.0
C1569 C 0.22973 0.76089 0.83085 0.0
C1570 C 0.22547 0.7828 0.84458 0.0
C1571 C 0.22962 0.77846 0.88458 0.0
H1572 H 0.24174 0.8187 0.88217 0.0
C1573 C 0.24422 0.8129 0.93521 0.0
C1574 C 0.23922 0.8272 0.93522 0.0
C1575 C 0.2427 0.80436 0.92279 0.0
C1576 C 0.23819 0.80752 0.88302 0.0
H1577 H 0.23895 0.74329 0.8435 0.0
H1578 H 0.24049 0.75674 0.8662 0.0
H1579 H 0.23973 0.80462 0.86001 0.0
H1580 H 0.22816 0.84353 0.92234 0.0
H1581 H 0.2256 0.82871 0.90071 0.0
H1582 H 0.22823 0.78141 0.90767 0.0
C1583 C 0.23592 0.76199 0.85667 0.0
C1584 C 0.23701 0.79944 0.87031 0.0
C1585 C 0.23518 0.75433 0.84361 0.0
C1586 C 0.23242 0.83267 0.92261 0.0
C1587 C 0.23093 0.82417 0.91021 0.0
C1588 C 0.23085 0.78655 0.89733 0.0
C1589 C 0.23122 0.77638 0.85726 0.0
C1590 C 0.23262 0.78483 0.8709 0.0
C1591 C 0.23617 0.80997 0.91011 0.0
C1592 C 0.23506 0.8012 0.89667 0.0
H1593 H 0.22068 0.78066 0.82193 0.0
H1594 H 0.22154 0.79379 0.8447 0.0
H1595 H 0.22606 0.76728 0.88541 0.0
H1596 H 0.24965 0.8084 0.94469 0.0
H1597 H 0.24696 0.7935 0.923 0.0
C1598 C 0.02726 0.52437 0.42878 0.0
C1599 C 0.01249 0.52029 0.42946 0.0
C1600 C 0.03473 0.52426 0.41554 0.0
C1601 C 0.02968 0.52425 0.37558 0.0
H1602 H 0.06822 0.50768 0.3757 0.0
C1603 C 0.06078 0.51098 0.32259 0.0
C1604 C 0.07589 0.51351 0.32245 0.0
C1605 C 0.05282 0.51244 0.33546 0.0
C1606 C 0.05756 0.51253 0.37548 0.0
H1607 H 0.99396 0.51307 0.41669 0.0
H1608 H 0.00701 0.51294 0.39355 0.0
H1609 H 0.05475 0.50926 0.39842 0.0
H1610 H 0.09439 0.52011 0.33559 0.0
H1611 H 0.08053 0.52277 0.35797 0.0
H1612 H 0.03251 0.52751 0.35261 0.0
C1613 C 0.01276 0.51635 0.40326 0.0
C1614 C 0.04983 0.51342 0.38852 0.0
C1615 C 0.00528 0.51643 0.41652 0.0
C1616 C 0.08281 0.51782 0.3354 0.0
C1617 C 0.07486 0.51933 0.34823 0.0
C1618 C 0.03744 0.5234 0.36252 0.0
C1619 C 0.02762 0.5201 0.40265 0.0
C1620 C 0.03581 0.5193 0.38874 0.0
C1621 C 0.05979 0.51651 0.34847 0.0
C1622 C 0.05148 0.51753 0.36232 0.0
H1623 H 0.03307 0.52768 0.43849 0.0
H1624 H 0.04611 0.52747 0.4154 0.0
H1625 H 0.01896 0.52898 0.37541 0.0
H1626 H 0.05516 0.50749 0.31283 0.0
H1627 H 0.04127 0.51001 0.33529 0.0
C1628 C 0.77038 0.75543 0.85058 0.0
C1629 C 0.7851 0.75873 0.84782 0.0
C1630 C 0.76649 0.74441 0.86044 0.0
C1631 C 0.78137 0.71269 0.88075 0.0
H1632 H 0.74895 0.71953 0.90662 0.0
C1633 C 0.76357 0.67034 0.92403 0.0
C1634 C 0.75935 0.67554 0.93768 0.0
C1635 C 0.76562 0.67984 0.91223 0.0
C1636 C 0.75811 0.71748 0.89956 0.0
H1637 H 0.80726 0.75256 0.85289 0.0
H1638 H 0.80052 0.73385 0.87044 0.0
H1639 H 0.7549 0.73717 0.88767 0.0
H1640 H 0.75402 0.69476 0.94973 0.0
H1641 H 0.75795 0.7114 0.92933 0.0
H1642 H 0.78505 0.69338 0.89311 0.0
C1643 C 0.79193 0.73959 0.86485 0.0
C1644 C 0.76139 0.72752 0.88852 0.0
C1645 C 0.79581 0.75051 0.85492 0.0
C1646 C 0.7571 0.69042 0.93928 0.0
C1647 C 0.7593 0.69995 0.92754 0.0
C1648 C 0.77817 0.70273 0.89187 0.0
C1649 C 0.77722 0.73647 0.86786 0.0
C1650 C 0.77316 0.72534 0.87905 0.0
C1651 C 0.76366 0.6948 0.91387 0.0
C1652 C 0.76658 0.70505 0.90153 0.0
H1653 H 0.76182 0.76159 0.84542 0.0
H1654 H 0.75504 0.74218 0.8623 0.0
H1655 H 0.79037 0.71051 0.87353 0.0
H1656 H 0.7652 0.65889 0.92244 0.0
H1657 H 0.7687 0.67543 0.90182 0.0
C1658 C 0.00488 0.97973 0.40637 0.0
C1659 C 0.00481 0.96645 0.41398 0.0
C1660 C 0.99371 0.98309 0.3966 0.0
C1661 C 0.96588 0.96526 0.37377 0.0
H1662 H 0.95123 0.00412 0.3688 0.0
C1663 C 0.91915 0.97822 0.33389 0.0
C1664 C 0.92103 0.99058 0.32501 0.0
C1665 C 0.92855 0.9756 0.34559 0.0
C1666 C 0.95529 0.99323 0.37001 0.0
H1667 H 0.99268 0.94645 0.41749 0.0
H1668 H 0.97303 0.95248 0.40079 0.0
H1669 H 0.96892 0.99905 0.38802 0.0
H1670 H 0.934 0.01007 0.32171 0.0
H1671 H 0.95051 0.0054 0.34201 0.0
H1672 H 0.95236 0.95945 0.35572 0.0
C1673 C 0.98186 0.96021 0.40219 0.0
C1674 C 0.96542 0.99033 0.38101 0.0
C1675 C 0.99304 0.95683 0.41194 0.0
C1676 C 0.93236 0.00037 0.32825 0.0
C1677 C 0.94172 0.99778 0.33998 0.0
C1678 C 0.95573 0.96815 0.36282 0.0
C1679 C 0.98218 0.97326 0.39421 0.0
C1680 C 0.97091 0.97631 0.38297 0.0
C1681 C 0.94 0.9853 0.34871 0.0
C1682 C 0.95038 0.98218 0.36074 0.0
H1683 H 0.01368 0.98747 0.40783 0.0
H1684 H 0.99437 0.99321 0.39057 0.0
H1685 H 0.97007 0.9544 0.37478 0.0
H1686 H 0.9106 0.9704 0.33162 0.0
H1687 H 0.92684 0.96596 0.3522 0.0
C1688 C 0.22534 0.25993 0.64901 0.0
C1689 C 0.21491 0.25603 0.65958 0.0
C1690 C 0.22973 0.24998 0.63859 0.0
C1691 C 0.2299 0.21091 0.63008 0.0
H1692 H 0.23257 0.22465 0.59008 0.0
C1693 C 0.23215 0.17228 0.58111 0.0
C1694 C 0.24137 0.17608 0.56944 0.0
C1695 C 0.22991 0.18189 0.59252 0.0
C1696 C 0.23208 0.22066 0.60121 0.0
H1697 H 0.20133 0.23844 0.66781 0.0
H1698 H 0.20879 0.22117 0.64948 0.0
H1699 H 0.22713 0.24159 0.60938 0.0
H1700 H 0.25578 0.19282 0.56082 0.0
H1701 H 0.25186 0.20959 0.58071 0.0
H1702 H 0.2347 0.18993 0.62185 0.0
C1703 C 0.21366 0.23189 0.6493 0.0
C1704 C 0.22896 0.23039 0.61229 0.0
C1705 C 0.20926 0.24184 0.65971 0.0
C1706 C 0.24842 0.18966 0.56952 0.0
C1707 C 0.24618 0.19926 0.58093 0.0
C1708 C 0.23302 0.20118 0.61899 0.0
C1709 C 0.2238 0.2359 0.63849 0.0
C1710 C 0.22775 0.22562 0.62684 0.0
C1711 C 0.23684 0.19552 0.59253 0.0
C1712 C 0.23405 0.20593 0.60441 0.0
H1713 H 0.22982 0.2708 0.64851 0.0
H1714 H 0.2377 0.25337 0.63052 0.0
H1715 H 0.22924 0.20692 0.6412 0.0
H1716 H 0.2264 0.162 0.58129 0.0
H1717 H 0.22248 0.17875 0.60117 0.0
C1718 C 0.51469 0.52947 0.62061 0.0
C1719 C 0.51136 0.53308 0.60607 0.0
C1720 C 0.50373 0.52526 0.63033 0.0
C1721 C 0.46411 0.52808 0.63608 0.0
H1722 H 0.47128 0.49954 0.66643 0.0
C1723 C 0.42015 0.51011 0.67797 0.0
C1724 C 0.42476 0.50971 0.69258 0.0
C1725 C 0.43027 0.51181 0.66668 0.0
C1726 C 0.46914 0.50758 0.65805 0.0
H1727 H 0.49383 0.53478 0.5903 0.0
H1728 H 0.47473 0.52705 0.60719 0.0
H1729 H 0.4897 0.50422 0.64782 0.0
H1730 H 0.44361 0.51041 0.7068 0.0
H1731 H 0.46125 0.51342 0.68713 0.0
H1732 H 0.44355 0.53143 0.64638 0.0
C1733 C 0.48582 0.52772 0.61113 0.0
C1734 C 0.4797 0.51029 0.6474 0.0
C1735 C 0.49681 0.53199 0.6014 0.0
C1736 C 0.43971 0.51083 0.69565 0.0
C1737 C 0.44983 0.5124 0.68439 0.0
C1738 C 0.4535 0.52529 0.64669 0.0
C1739 C 0.48913 0.52446 0.62577 0.0
C1740 C 0.47742 0.52074 0.63641 0.0
C1741 C 0.44522 0.51299 0.66979 0.0
C1742 C 0.456 0.51518 0.65791 0.0
H1743 H 0.5258 0.52998 0.62453 0.0
H1744 H 0.50668 0.52299 0.64155 0.0
H1745 H 0.46205 0.53634 0.62791 0.0
H1746 H 0.40869 0.50936 0.67527 0.0
H1747 H 0.42641 0.51214 0.65553 0.0
C1748 C 0.80266 0.25212 0.64683 0.0
C1749 C 0.7925 0.24518 0.65605 0.0
C1750 C 0.7984 0.26321 0.63739 0.0
C1751 C 0.76583 0.27782 0.61895 0.0
H1752 H 0.79253 0.30907 0.60869 0.0
C1753 C 0.75161 0.32392 0.578 0.0
C1754 C 0.76212 0.32654 0.56709 0.0
C1755 C 0.7547 0.31494 0.58995 0.0
C1756 C 0.78498 0.30038 0.61144 0.0
H1757 H 0.7699 0.24481 0.66283 0.0
H1758 H 0.76254 0.26453 0.64667 0.0
H1759 H 0.79894 0.29213 0.62813 0.0
H1760 H 0.78406 0.32147 0.56023 0.0
H1761 H 0.78951 0.30621 0.58125 0.0
H1762 H 0.75186 0.28621 0.60222 0.0
C1763 C 0.77377 0.26116 0.64653 0.0
C1764 C 0.78865 0.29064 0.62254 0.0
C1765 C 0.77803 0.24996 0.65593 0.0
C1766 C 0.7758 0.32 0.56853 0.0
C1767 C 0.77893 0.3112 0.58056 0.0
C1768 C 0.76208 0.28768 0.60795 0.0
C1769 C 0.78387 0.2678 0.637 0.0
C1770 C 0.77928 0.27903 0.62623 0.0
C1771 C 0.76841 0.30855 0.59137 0.0
C1772 C 0.77176 0.29888 0.60389 0.0
H1773 H 0.81395 0.2489 0.6468 0.0
H1774 H 0.80646 0.26791 0.63012 0.0
H1775 H 0.75841 0.26893 0.62135 0.0
H1776 H 0.74105 0.32893 0.57741 0.0
H1777 H 0.74643 0.31315 0.59819 0.0
C1778 C 0.50798 0.98762 0.58601 0.0
C1779 C 0.51588 0.98561 0.57309 0.0
C1780 C 0.51506 0.9878 0.59951 0.0
C1781 C 0.54941 0.97723 0.61786 0.0
H1782 H 0.53822 0.00582 0.64618 0.0
C1783 C 0.58452 0.9909 0.66821 0.0
C1784 C 0.57729 0.99294 0.6815 0.0
C1785 C 0.57665 0.9893 0.65527 0.0
C1786 C 0.54135 0.99766 0.63846 0.0
H1787 H 0.53739 0.98184 0.56433 0.0
H1788 H 0.54976 0.98252 0.58778 0.0
H1789 H 0.52515 0.00427 0.62309 0.0
H1790 H 0.55612 0.99495 0.69162 0.0
H1791 H 0.54236 0.99206 0.66902 0.0
H1792 H 0.56577 0.97078 0.63317 0.0
C1793 C 0.53806 0.98381 0.58751 0.0
C1794 C 0.53385 0.99675 0.62523 0.0
C1795 C 0.53099 0.98361 0.57403 0.0
C1796 C 0.562 0.99328 0.68157 0.0
C1797 C 0.55413 0.99176 0.66861 0.0
C1798 C 0.55694 0.97818 0.63107 0.0
C1799 C 0.5302 0.98597 0.60042 0.0
C1800 C 0.53784 0.98658 0.61472 0.0
C1801 C 0.56137 0.98978 0.65531 0.0
C1802 C 0.55305 0.98845 0.64148 0.0
H1803 H 0.49635 0.98933 0.58568 0.0
H1804 H 0.50864 0.98932 0.60925 0.0
H1805 H 0.55261 0.9691 0.61014 0.0
H1806 H 0.59628 0.99045 0.66781 0.0
H1807 H 0.58255 0.98792 0.64519 0.0
C1808 C 0.84933 0.22212 0.75269 0.0
C1809 C 0.85044 0.20937 0.74461 0.0
C1810 C 0.8596 0.22543 0.76347 0.0
C1811 C 0.88829 0.20873 0.78648 0.0
H1812 H 0.90225 0.24823 0.79029 0.0
C1813 C 0.93953 0.22355 0.81973 0.0
C1814 C 0.93872 0.23563 0.82882 0.0
C1815 C 0.92839 0.22049 0.80981 0.0
C1816 C 0.89835 0.23717 0.78946 0.0
H1817 H 0.86335 0.19024 0.7413 0.0
H1818 H 0.8813 0.19604 0.75991 0.0
H1819 H 0.88337 0.2426 0.77243 0.0
H1820 H 0.9257 0.25412 0.83447 0.0
H1821 H 0.90619 0.24875 0.81714 0.0
H1822 H 0.90346 0.20328 0.80334 0.0
C1823 C 0.87232 0.20334 0.75822 0.0
C1824 C 0.8875 0.23395 0.77925 0.0
C1825 C 0.86203 0.20001 0.74752 0.0
C1826 C 0.92657 0.24466 0.8277 0.0
C1827 C 0.91547 0.24165 0.81769 0.0
C1828 C 0.89919 0.21195 0.79661 0.0
C1829 C 0.87126 0.21609 0.76633 0.0
C1830 C 0.8824 0.21966 0.77757 0.0
C1831 C 0.91623 0.2295 0.80869 0.0
C1832 C 0.9044 0.22618 0.79816 0.0
H1833 H 0.84043 0.22948 0.75079 0.0
H1834 H 0.85832 0.23523 0.76964 0.0
H1835 H 0.88443 0.19766 0.78569 0.0
H1836 H 0.9487 0.21632 0.82043 0.0
H1837 H 0.92936 0.21112 0.80292 0.0
C1838 C 0.49955 0.9186 0.48708 0.0
C1839 C 0.48642 0.92602 0.48878 0.0
C1840 C 0.49971 0.90509 0.48043 0.0
C1841 C 0.47918 0.88277 0.45459 0.0
H1842 H 0.50265 0.85159 0.46999 0.0
C1843 C 0.47845 0.82605 0.4289 0.0
C1844 C 0.49182 0.8189 0.42784 0.0
C1845 C 0.47732 0.83874 0.43693 0.0
C1846 C 0.49616 0.86023 0.46545 0.0
H1847 H 0.46316 0.92505 0.48494 0.0
H1848 H 0.46344 0.9014 0.47333 0.0
H1849 H 0.50156 0.87438 0.48302 0.0
H1850 H 0.51443 0.81942 0.4347 0.0
H1851 H 0.51257 0.84176 0.44826 0.0
H1852 H 0.474 0.8688 0.43686 0.0
C1853 C 0.4736 0.90608 0.47711 0.0
C1854 C 0.49552 0.87327 0.47295 0.0
C1855 C 0.47343 0.91955 0.48387 0.0
C1856 C 0.504 0.82473 0.43509 0.0
C1857 C 0.50289 0.83745 0.44306 0.0
C1858 C 0.4799 0.86976 0.44704 0.0
C1859 C 0.48676 0.89875 0.47524 0.0
C1860 C 0.48706 0.88471 0.46756 0.0
C1861 C 0.48954 0.84464 0.44406 0.0
C1862 C 0.48845 0.85834 0.45233 0.0
H1863 H 0.50972 0.92326 0.49087 0.0
H1864 H 0.51004 0.89976 0.47904 0.0
H1865 H 0.47273 0.89145 0.45006 0.0
H1866 H 0.46888 0.82196 0.42334 0.0
H1867 H 0.46683 0.84388 0.4376 0.0
C1868 C 0.14943 0.2681 0.75028 0.0
C1869 C 0.15641 0.28167 0.75101 0.0
C1870 C 0.13975 0.26359 0.76121 0.0
C1871 C 0.12818 0.27086 0.79907 0.0
H1872 H 0.09112 0.25504 0.78623 0.0
C1873 C 0.07772 0.2681 0.83627 0.0
C1874 C 0.06821 0.25614 0.83515 0.0
C1875 C 0.08935 0.26988 0.82662 0.0
C1876 C 0.10149 0.25921 0.79004 0.0
H1877 H 0.15922 0.30087 0.7641 0.0
H1878 H 0.14223 0.29309 0.78308 0.0
H1879 H 0.1101 0.26034 0.76841 0.0
H1880 H 0.06377 0.23644 0.82328 0.0
H1881 H 0.08414 0.23951 0.80645 0.0
H1882 H 0.1195 0.26989 0.82069 0.0
C1883 C 0.14426 0.28589 0.7741 0.0
C1884 C 0.11238 0.26226 0.77981 0.0
C1885 C 0.15388 0.29042 0.76315 0.0
C1886 C 0.07076 0.24588 0.8243 0.0
C1887 C 0.08243 0.24764 0.81465 0.0
C1888 C 0.1173 0.26777 0.80931 0.0
C1889 C 0.1369 0.27252 0.77314 0.0
C1890 C 0.12578 0.26829 0.78418 0.0
C1891 C 0.0918 0.25974 0.81562 0.0
C1892 C 0.10375 0.26209 0.8049 0.0
H1893 H 0.15107 0.26115 0.74102 0.0
H1894 H 0.13437 0.25316 0.76024 0.0
H1895 H 0.13847 0.27531 0.8028 0.0
H1896 H 0.07593 0.27632 0.84436 0.0
H1897 H 0.09619 0.27945 0.82753 0.0
C1898 C 0.53238 0.61032 0.52201 0.0
C1899 C 0.53549 0.59618 0.51766 0.0
C1900 C 0.52867 0.62087 0.51171 0.0
C1901 C 0.53123 0.62926 0.47213 0.0
H1902 H 0.50401 0.65933 0.4819 0.0
C1903 C 0.51114 0.67215 0.43049 0.0
C1904 C 0.51169 0.68658 0.4352 0.0
C1905 C 0.51346 0.66074 0.44029 0.0
C1906 C 0.51168 0.65103 0.47906 0.0
H1907 H 0.53677 0.58189 0.4992 0.0
H1908 H 0.52988 0.6002 0.48118 0.0
H1909 H 0.50861 0.63985 0.49935 0.0
H1910 H 0.51531 0.7002 0.45402 0.0
H1911 H 0.51895 0.68026 0.47115 0.0
H1912 H 0.53409 0.64043 0.45173 0.0
C1913 C 0.53067 0.60326 0.49251 0.0
C1914 C 0.51437 0.63988 0.48907 0.0
C1915 C 0.53456 0.59274 0.50282 0.0
C1916 C 0.51451 0.68926 0.45002 0.0
C1917 C 0.51665 0.67784 0.45984 0.0
C1918 C 0.5284 0.64032 0.46206 0.0
C1919 C 0.52781 0.61751 0.49681 0.0
C1920 C 0.52432 0.62894 0.48582 0.0
C1921 C 0.5162 0.66347 0.45507 0.0
C1922 C 0.51872 0.6514 0.46549 0.0
H1923 H 0.53325 0.61334 0.53335 0.0
H1924 H 0.52684 0.63176 0.51542 0.0
H1925 H 0.53914 0.62118 0.46931 0.0
H1926 H 0.50873 0.66963 0.41924 0.0
H1927 H 0.5129 0.64975 0.43636 0.0
C1928 C 0.84086 0.7754 0.75509 0.0
C1929 C 0.84004 0.79013 0.75856 0.0
C1930 C 0.85049 0.77073 0.74437 0.0
C1931 C 0.87328 0.78387 0.71335 0.0
H1932 H 0.89555 0.74942 0.72162 0.0
C1933 C 0.91565 0.76273 0.67268 0.0
C1934 C 0.92886 0.7579 0.67862 0.0
C1935 C 0.90381 0.76555 0.68171 0.0
C1936 C 0.88948 0.7591 0.71917 0.0
H1937 H 0.84828 0.81156 0.75303 0.0
H1938 H 0.86528 0.80343 0.73468 0.0
H1939 H 0.87672 0.75675 0.73854 0.0
H1940 H 0.93998 0.75222 0.69869 0.0
H1941 H 0.91943 0.75731 0.71447 0.0
H1942 H 0.88645 0.78658 0.69432 0.0
C1943 C 0.85841 0.79545 0.74012 0.0
C1944 C 0.87853 0.7632 0.72878 0.0
C1945 C 0.84879 0.80011 0.75079 0.0
C1946 C 0.92989 0.75574 0.69376 0.0
C1947 C 0.91808 0.75864 0.7028 0.0
C1948 C 0.88426 0.7798 0.70377 0.0
C1949 C 0.8595 0.78069 0.73687 0.0
C1950 C 0.87041 0.77574 0.72609 0.0
C1951 C 0.90492 0.76368 0.69691 0.0
C1952 C 0.89262 0.76747 0.70664 0.0
H1953 H 0.83436 0.76741 0.76093 0.0
H1954 H 0.85092 0.7593 0.74202 0.0
H1955 H 0.86711 0.79347 0.71083 0.0
H1956 H 0.91446 0.76428 0.66103 0.0
H1957 H 0.89377 0.76917 0.67677 0.0
C1958 C 0.04791 0.8873 0.49698 0.0
C1959 C 0.03962 0.89989 0.49551 0.0
C1960 C 0.04426 0.87677 0.50739 0.0
C1961 C 0.02318 0.87048 0.54132 0.0
H1962 H 0.02664 0.83028 0.53046 0.0
C1963 C 0.002 0.82276 0.57733 0.0
C1964 C 0.01119 0.81077 0.5787 0.0
C1965 C 0.00523 0.83392 0.5674 0.0
C1966 C 0.02574 0.84146 0.5337 0.0
H1967 H 0.02105 0.91136 0.50388 0.0
H1968 H 0.01454 0.89285 0.52201 0.0
H1969 H 0.03261 0.84923 0.51278 0.0
H1970 H 0.03121 0.80137 0.57096 0.0
H1971 H 0.03673 0.82071 0.55355 0.0
H1972 H 0.01617 0.8626 0.56224 0.0
C1973 C 0.024 0.89122 0.51524 0.0
C1974 C 0.02918 0.85233 0.52358 0.0
C1975 C 0.02771 0.90182 0.50484 0.0
C1976 C 0.02373 0.81028 0.56998 0.0
C1977 C 0.02692 0.82138 0.56002 0.0
C1978 C 0.01965 0.85957 0.55144 0.0
C1979 C 0.03217 0.87851 0.51656 0.0
C1980 C 0.02808 0.86699 0.52729 0.0
C1981 C 0.01768 0.8333 0.55857 0.0
C1982 C 0.02101 0.84494 0.54777 0.0
H1983 H 0.05731 0.88563 0.49013 0.0
H1984 H 0.05099 0.86728 0.50832 0.0
H1985 H 0.02235 0.88165 0.5446 0.0
H1986 H 0.99215 0.82341 0.58373 0.0
H1987 H 0.99783 0.8429 0.56642 0.0
C1988 C 0.16144 0.73281 0.74673 0.0
C1989 C 0.1745 0.73166 0.73889 0.0
C1990 C 0.14806 0.73315 0.73944 0.0
C1991 C 0.13222 0.74165 0.70345 0.0
H1992 H 0.09831 0.72095 0.71826 0.0
C1993 C 0.07942 0.73652 0.66995 0.0
C1994 C 0.06613 0.73794 0.67733 0.0
C1995 C 0.09248 0.73553 0.67768 0.0
C1996 C 0.10764 0.72693 0.71407 0.0
H1997 H 0.18367 0.72938 0.71728 0.0
H1998 H 0.16038 0.73 0.7046 0.0
H1999 H 0.12139 0.71943 0.73137 0.0
H2000 H 0.05617 0.73926 0.69868 0.0
H2001 H 0.07902 0.73783 0.71217 0.0
H2002 H 0.11852 0.74921 0.6862 0.0
C2003 C 0.16049 0.73092 0.71636 0.0
C2004 C 0.12086 0.72604 0.72158 0.0
C2005 C 0.17384 0.73056 0.72363 0.0
C2006 C 0.06622 0.73831 0.69265 0.0
C2007 C 0.07931 0.73732 0.70039 0.0
C2008 C 0.11901 0.74255 0.69597 0.0
C2009 C 0.14745 0.73236 0.72416 0.0
C2010 C 0.13332 0.73334 0.71631 0.0
C2011 C 0.0926 0.73598 0.69298 0.0
C2012 C 0.10657 0.73515 0.70114 0.0
H2013 H 0.16157 0.73385 0.75847 0.0
H2014 H 0.13823 0.73442 0.74576 0.0
H2015 H 0.14153 0.74763 0.69925 0.0
H2016 H 0.07977 0.73637 0.65815 0.0
H2017 H 0.10249 0.73433 0.67163 0.0
C2018 C 0.99751 0.58197 0.52063 0.0
C2019 C 0.98407 0.5757 0.51676 0.0
C2020 C 0.99808 0.59495 0.52824 0.0
C2021 C 0.97618 0.62676 0.53834 0.0
H2022 H 0.00468 0.63007 0.56938 0.0
C2023 C 0.97587 0.67278 0.5807 0.0
C2024 C 0.98942 0.679 0.58436 0.0
C2025 C 0.97509 0.66047 0.57201 0.0
C2026 C 0.99676 0.62938 0.56065 0.0
H2027 H 0.96068 0.57821 0.51773 0.0
H2028 H 0.96165 0.60082 0.53117 0.0
H2029 H 0.00355 0.60818 0.55492 0.0
H2030 H 0.01275 0.67734 0.58135 0.0
H2031 H 0.01138 0.6558 0.56637 0.0
H2032 H 0.9693 0.64795 0.54426 0.0
C2033 C 0.97177 0.59582 0.52811 0.0
C2034 C 0.99613 0.61684 0.55233 0.0
C2035 C 0.97121 0.58286 0.52042 0.0
C2036 C 0.00215 0.67267 0.57901 0.0
C2037 C 0.00137 0.66034 0.57039 0.0
C2038 C 0.97678 0.6393 0.54672 0.0
C2039 C 0.98522 0.60195 0.53225 0.0
C2040 C 0.98586 0.61538 0.54103 0.0
C2041 C 0.98785 0.65406 0.56684 0.0
C2042 C 0.9871 0.64075 0.55794 0.0
H2043 H 0.00762 0.57683 0.51774 0.0
H2044 H 0.00863 0.59952 0.53097 0.0
H2045 H 0.96827 0.62608 0.52961 0.0
H2046 H 0.96586 0.67726 0.58478 0.0
H2047 H 0.96452 0.65578 0.5696 0.0
C2048 C 0.75225 0.8446 0.22534 0.0
C2049 C 0.74318 0.84653 0.21314 0.0
C2050 C 0.76249 0.85524 0.22913 0.0
C2051 C 0.78264 0.8869 0.21411 0.0
H2052 H 0.78663 0.89791 0.25459 0.0
C2053 C 0.81278 0.93901 0.23099 0.0
C2054 C 0.8218 0.9384 0.24335 0.0
C2055 C 0.80366 0.92736 0.22749 0.0
C2056 C 0.78579 0.89484 0.24326 0.0
H2057 H 0.73763 0.86129 0.1955 0.0
H2058 H 0.75548 0.87972 0.20205 0.0
H2059 H 0.7701 0.87815 0.24807 0.0
H2060 H 0.82813 0.92514 0.26188 0.0
H2061 H 0.81236 0.90469 0.25565 0.0
H2062 H 0.79824 0.90361 0.20927 0.0
C2063 C 0.75488 0.86989 0.20855 0.0
C2064 C 0.77632 0.88351 0.23953 0.0
C2065 C 0.74464 0.8593 0.20479 0.0
C2066 C 0.82142 0.92589 0.2522 0.0
C2067 C 0.81228 0.91424 0.24871 0.0
C2068 C 0.7921 0.8982 0.21784 0.0
C2069 C 0.7639 0.86802 0.22079 0.0
C2070 C 0.77453 0.87951 0.22489 0.0
C2071 C 0.80333 0.91481 0.23628 0.0
C2072 C 0.79368 0.90241 0.23244 0.0
H2073 H 0.75152 0.83483 0.23191 0.0
H2074 H 0.7694 0.8534 0.23853 0.0
H2075 H 0.78171 0.88391 0.20277 0.0
H2076 H 0.81291 0.94841 0.22385 0.0
H2077 H 0.79677 0.92823 0.21794 0.0
C2078 C 0.77951 0.17683 0.26864 0.0
C2079 C 0.76423 0.17709 0.2681 0.0
C2080 C 0.78689 0.16375 0.26814 0.0
C2081 C 0.78213 0.1243 0.27371 0.0
H2082 H 0.81725 0.12253 0.25048 0.0
C2083 C 0.81173 0.07067 0.26229 0.0
C2084 C 0.82701 0.07102 0.2632 0.0
C2085 C 0.80381 0.08346 0.26286 0.0
C2086 C 0.80754 0.12288 0.25713 0.0
H2087 H 0.74473 0.16375 0.26664 0.0
H2088 H 0.75763 0.14088 0.26572 0.0
H2089 H 0.8039 0.14506 0.25162 0.0
H2090 H 0.84592 0.0851 0.26525 0.0
H2091 H 0.8321 0.10736 0.26644 0.0
H2092 H 0.7858 0.10207 0.27917 0.0
C2093 C 0.76389 0.15081 0.26672 0.0
C2094 C 0.79989 0.1358 0.2578 0.0
C2095 C 0.7565 0.16392 0.26725 0.0
C2096 C 0.83416 0.08444 0.26467 0.0
C2097 C 0.82625 0.09722 0.26519 0.0
C2098 C 0.78978 0.11135 0.27301 0.0
C2099 C 0.77919 0.15058 0.26706 0.0
C2100 C 0.78714 0.13671 0.26617 0.0
C2101 C 0.81098 0.09688 0.26428 0.0
C2102 C 0.80262 0.11052 0.26478 0.0
H2103 H 0.78578 0.18677 0.26957 0.0
H2104 H 0.79866 0.16396 0.26873 0.0
H2105 H 0.77245 0.12467 0.2804 0.0
H2106 H 0.80589 0.0605 0.26128 0.0
H2107 H 0.79206 0.08285 0.26202 0.0
C2108 C 0.41766 0.97881 0.9738 0.0
C2109 C 0.42093 0.99052 0.98292 0.0
C2110 C 0.40403 0.97196 0.97444 0.0
C2111 C 0.37302 0.96581 0.99912 0.0
H2112 H 0.35351 0.95258 0.96413 0.0
C2113 C 0.31635 0.93809 0.00096 0.0
C2114 C 0.31446 0.92582 0.99222 0.0
C2115 C 0.3287 0.94695 0.9994 0.0
C2116 C 0.35887 0.9561 0.97401 0.0
H2117 H 0.4124 0.0043 0.99976 0.0
H2118 H 0.38854 0.99246 0.00073 0.0
H2119 H 0.37622 0.96638 0.96211 0.0
H2120 H 0.32388 0.91349 0.9747 0.0
H2121 H 0.34553 0.92875 0.9722 0.0
H2122 H 0.35581 0.95536 0.01105 0.0
C2123 C 0.39656 0.9885 0.99317 0.0
C2124 C 0.37188 0.96402 0.97285 0.0
C2125 C 0.41018 0.99538 0.99251 0.0
C2126 C 0.32509 0.92275 0.98174 0.0
C2127 C 0.33742 0.93161 0.98018 0.0
C2128 C 0.36002 0.95788 0.00029 0.0
C2129 C 0.39337 0.97664 0.98423 0.0
C2130 C 0.37917 0.96886 0.9854 0.0
C2131 C 0.33943 0.94376 0.98905 0.0
C2132 C 0.35286 0.95282 0.98776 0.0
H2133 H 0.42565 0.9749 0.96619 0.0
H2134 H 0.40198 0.96277 0.96749 0.0
H2135 H 0.37846 0.9692 0.00901 0.0
H2136 H 0.30843 0.9407 0.00921 0.0
H2137 H 0.32984 0.95631 0.00631 0.0
C2138 C 0.24976 0.35236 0.27808 0.0
C2139 C 0.25264 0.34861 0.2927 0.0
C2140 C 0.23921 0.36261 0.27461 0.0
C2141 C 0.22107 0.3939 0.29003 0.0
H2142 H 0.19265 0.38834 0.25927 0.0
C2143 C 0.17466 0.43412 0.28092 0.0
C2144 C 0.17043 0.43737 0.26653 0.0
C2145 C 0.18431 0.42291 0.28387 0.0
C2146 C 0.20064 0.39016 0.26776 0.0
H2147 H 0.24611 0.35227 0.31507 0.0
H2148 H 0.22797 0.37034 0.309 0.0
H2149 H 0.21014 0.36935 0.26472 0.0
H2150 H 0.17296 0.43112 0.24396 0.0
H2151 H 0.19023 0.41196 0.24905 0.0
H2152 H 0.21192 0.41477 0.29293 0.0
C2153 C 0.23401 0.36545 0.30026 0.0
C2154 C 0.21062 0.37925 0.2709 0.0
C2155 C 0.24445 0.35512 0.30372 0.0
C2156 C 0.1761 0.42906 0.25516 0.0
C2157 C 0.18587 0.41792 0.2581 0.0
C2158 C 0.21122 0.40485 0.2868 0.0
C2159 C 0.23139 0.36942 0.28568 0.0
C2160 C 0.22086 0.38098 0.28214 0.0
C2161 C 0.19015 0.41474 0.2725 0.0
C2162 C 0.20079 0.4031 0.2757 0.0
H2163 H 0.25596 0.34771 0.26931 0.0
H2164 H 0.23749 0.36555 0.26328 0.0
H2165 H 0.22902 0.39564 0.29858 0.0
H2166 H 0.17072 0.44037 0.28996 0.0
H2167 H 0.18715 0.42065 0.29511 0.0
C2168 C 0.09542 0.00506 0.46939 0.0
C2169 C 0.09732 0.99044 0.47326 0.0
C2170 C 0.10572 0.01553 0.47345 0.0
C2171 C 0.14443 0.01893 0.48196 0.0
H2172 H 0.13471 0.05667 0.49679 0.0
C2173 C 0.18916 0.05882 0.49993 0.0
C2174 C 0.18735 0.07352 0.49653 0.0
C2175 C 0.1777 0.04897 0.49811 0.0
C2176 C 0.13761 0.04625 0.4925 0.0
H2177 H 0.11111 0.97557 0.48522 0.0
H2178 H 0.12915 0.99379 0.49206 0.0
H2179 H 0.11533 0.03905 0.49188 0.0
H2180 H 0.17209 0.08948 0.48868 0.0
H2181 H 0.15212 0.07221 0.48511 0.0
H2182 H 0.16659 0.02611 0.48213 0.0
C2183 C 0.11979 0.99709 0.48571 0.0
C2184 C 0.1265 0.03615 0.48974 0.0
C2185 C 0.10947 0.98666 0.48175 0.0
C2186 C 0.17375 0.07821 0.49148 0.0
C2187 C 0.1623 0.06831 0.48949 0.0
C2188 C 0.1555 0.02904 0.48458 0.0
C2189 C 0.11817 0.01159 0.48138 0.0
C2190 C 0.12982 0.02237 0.4845 0.0
C2191 C 0.16417 0.05353 0.49266 0.0
C2192 C 0.15226 0.04282 0.48993 0.0
H2193 H 0.08627 0.00834 0.46273 0.0
H2194 H 0.10424 0.02661 0.46988 0.0
H2195 H 0.1473 0.00849 0.47766 0.0
H2196 H 0.19946 0.05495 0.50409 0.0
H2197 H 0.17946 0.03775 0.501 0.0
C2198 C 0.76106 0.13911 0.70355 0.0
C2199 C 0.76028 0.15343 0.70842 0.0
C2200 C 0.75013 0.12906 0.707 0.0
C2201 C 0.72075 0.12113 0.73316 0.0
H2202 H 0.70748 0.09476 0.70324 0.0
C2203 C 0.67334 0.08005 0.74231 0.0
C2204 C 0.67519 0.06614 0.73661 0.0
C2205 C 0.68321 0.09122 0.73893 0.0
C2206 C 0.71116 0.10194 0.71176 0.0
H2207 H 0.74731 0.16838 0.7208 0.0
H2208 H 0.72821 0.15073 0.72694 0.0
H2209 H 0.72555 0.11336 0.69726 0.0
H2210 H 0.68882 0.05315 0.72276 0.0
H2211 H 0.70615 0.07249 0.71714 0.0
H2212 H 0.70646 0.10957 0.74771 0.0
C2213 C 0.73738 0.14731 0.7205 0.0
C2214 C 0.7215 0.11261 0.70833 0.0
C2215 C 0.74833 0.15741 0.71699 0.0
C2216 C 0.68715 0.06368 0.72748 0.0
C2217 C 0.69699 0.07483 0.7241 0.0
C2218 C 0.71041 0.11041 0.73662 0.0
C2219 C 0.73813 0.13303 0.71547 0.0
C2220 C 0.72655 0.12223 0.71902 0.0
C2221 C 0.69512 0.08875 0.72973 0.0
C2222 C 0.70561 0.10058 0.72599 0.0
H2223 H 0.77026 0.13556 0.69722 0.0
H2224 H 0.75118 0.11808 0.70321 0.0
H2225 H 0.72452 0.12828 0.74167 0.0
H2226 H 0.66433 0.08228 0.7495 0.0
H2227 H 0.68139 0.10184 0.74337 0.0
C2228 C 0.4192 0.01898 0.52905 0.0
C2229 C 0.42534 0.01392 0.51605 0.0
C2230 C 0.40603 0.02638 0.52885 0.0
C2231 C 0.38176 0.04665 0.50371 0.0
H2232 H 0.35404 0.0423 0.53532 0.0
C2233 C 0.32413 0.07061 0.5012 0.0
C2234 C 0.31971 0.07834 0.51348 0.0
C2235 C 0.33677 0.06238 0.50165 0.0
C2236 C 0.36173 0.04367 0.52647 0.0
H2237 H 0.42222 0.01269 0.49263 0.0
H2238 H 0.39904 0.02495 0.49239 0.0
H2239 H 0.37638 0.02831 0.53575 0.0
H2240 H 0.32484 0.08328 0.53595 0.0
H2241 H 0.34692 0.06876 0.53678 0.0
H2242 H 0.36694 0.06183 0.49434 0.0
C2243 C 0.40456 0.0235 0.50272 0.0
C2244 C 0.37457 0.03571 0.52672 0.0
C2245 C 0.41779 0.01623 0.5029 0.0
C2246 C 0.32806 0.0775 0.5263 0.0
C2247 C 0.34061 0.06912 0.5268 0.0
C2248 C 0.36887 0.05448 0.50339 0.0
C2249 C 0.39858 0.02882 0.51567 0.0
C2250 C 0.38478 0.03712 0.51536 0.0
C2251 C 0.34515 0.06158 0.51444 0.0
C2252 C 0.35874 0.05311 0.51477 0.0
H2253 H 0.42458 0.01724 0.53942 0.0
H2254 H 0.40186 0.03044 0.53903 0.0
H2255 H 0.38947 0.04828 0.49492 0.0
H2256 H 0.31797 0.07115 0.49114 0.0
H2257 H 0.33996 0.05659 0.49199 0.0
C2258 C 0.59245 0.49474 0.53808 0.0
C2259 C 0.59769 0.50829 0.54268 0.0
C2260 C 0.60205 0.48433 0.53296 0.0
C2261 C 0.63956 0.48013 0.51873 0.0
H2262 H 0.63508 0.44045 0.53219 0.0
C2263 C 0.68631 0.43954 0.51726 0.0
C2264 C 0.68318 0.42533 0.51292 0.0
C2265 C 0.67513 0.44936 0.5194 0.0
C2266 C 0.63636 0.45144 0.52817 0.0
H2267 H 0.61709 0.52166 0.54505 0.0
H2268 H 0.63379 0.50348 0.53651 0.0
H2269 H 0.61678 0.45821 0.53855 0.0
H2270 H 0.66585 0.41024 0.50742 0.0
H2271 H 0.64622 0.42745 0.51121 0.0
H2272 H 0.65933 0.47344 0.50868 0.0
C2273 C 0.62227 0.50089 0.5367 0.0
C2274 C 0.62587 0.46162 0.53179 0.0
C2275 C 0.6127 0.51126 0.54181 0.0
C2276 C 0.66859 0.42115 0.51069 0.0
C2277 C 0.65736 0.43095 0.51296 0.0
C2278 C 0.65007 0.46999 0.51517 0.0
C2279 C 0.61709 0.48727 0.53226 0.0
C2280 C 0.62749 0.47615 0.52733 0.0
C2281 C 0.66053 0.44517 0.51733 0.0
C2282 C 0.64872 0.45559 0.52006 0.0
H2283 H 0.58096 0.49208 0.53869 0.0
H2284 H 0.59769 0.47399 0.52951 0.0
H2285 H 0.64099 0.49115 0.51484 0.0
H2286 H 0.69745 0.44313 0.51891 0.0
H2287 H 0.67791 0.46018 0.52292 0.0
C2288 C 0.7336 0.25486 0.34136 0.0
C2289 C 0.7293 0.26204 0.32848 0.0
C2290 C 0.73377 0.26207 0.35468 0.0
C2291 C 0.71853 0.2934 0.3735 0.0
H2292 H 0.75275 0.29069 0.39809 0.0
C2293 C 0.72897 0.33259 0.42085 0.0
C2294 C 0.73563 0.3273 0.43361 0.0
C2295 C 0.7276 0.3239 0.40855 0.0
C2296 C 0.743 0.29139 0.3915 0.0
H2297 H 0.72197 0.28255 0.3196 0.0
H2298 H 0.722 0.29497 0.34284 0.0
H2299 H 0.75129 0.27666 0.37578 0.0
H2300 H 0.74602 0.30862 0.44339 0.0
H2301 H 0.7432 0.29333 0.4221 0.0
H2302 H 0.71018 0.30806 0.38918 0.0
C2303 C 0.7251 0.28372 0.34263 0.0
C2304 C 0.74219 0.28336 0.37869 0.0
C2305 C 0.72504 0.27656 0.32931 0.0
C2306 C 0.7407 0.31301 0.43381 0.0
C2307 C 0.73925 0.30429 0.42153 0.0
C2308 C 0.71928 0.30134 0.38636 0.0
C2309 C 0.72954 0.27659 0.35544 0.0
C2310 C 0.73003 0.28442 0.36947 0.0
C2311 C 0.73276 0.30966 0.40871 0.0
C2312 C 0.73161 0.30058 0.39543 0.0
H2313 H 0.73674 0.24362 0.34119 0.0
H2314 H 0.7371 0.25626 0.36441 0.0
H2315 H 0.70892 0.29427 0.36672 0.0
H2316 H 0.72476 0.34346 0.42035 0.0
H2317 H 0.7227 0.32848 0.39883 0.0
C2318 C 0.51909 0.03229 0.9196 0.0
C2319 C 0.50838 0.02194 0.92337 0.0
C2320 C 0.52599 0.03186 0.90605 0.0
C2321 C 0.53502 0.00664 0.87688 0.0
H2322 H 0.54343 0.04148 0.85443 0.0
C2323 C 0.56155 0.00445 0.82004 0.0
C2324 C 0.57243 0.01482 0.81687 0.0
C2325 C 0.55289 0.00567 0.83247 0.0
C2326 C 0.5413 0.03166 0.86063 0.0
H2327 H 0.49646 0.00308 0.91582 0.0
H2328 H 0.50842 0.00241 0.89212 0.0
H2329 H 0.52985 0.04305 0.87718 0.0
H2330 H 0.58243 0.03486 0.82412 0.0
H2331 H 0.56763 0.03678 0.84597 0.0
H2332 H 0.54667 0.99526 0.86055 0.0
C2333 C 0.51153 0.01081 0.89969 0.0
C2334 C 0.53349 0.03257 0.87365 0.0
C2335 C 0.50457 0.01129 0.9132 0.0
C2336 C 0.57428 0.02657 0.82632 0.0
C2337 C 0.56566 0.02777 0.83877 0.0
C2338 C 0.54288 0.00574 0.86391 0.0
C2339 C 0.52241 0.02102 0.89601 0.0
C2340 C 0.53031 0.02007 0.88195 0.0
C2341 C 0.55493 0.01728 0.84206 0.0
C2342 C 0.54617 0.01824 0.85564 0.0
H2343 H 0.52217 0.04071 0.92716 0.0
H2344 H 0.53441 0.03982 0.90359 0.0
H2345 H 0.53295 0.99684 0.88314 0.0
H2346 H 0.5599 0.99518 0.8131 0.0
H2347 H 0.54461 0.9975 0.83456 0.0
C2348 C 0.28984 0.24612 0.35053 0.0
C2349 C 0.28129 0.25835 0.34777 0.0
C2350 C 0.28555 0.23582 0.36096 0.0
C2351 C 0.26351 0.23204 0.39416 0.0
H2352 H 0.26929 0.19103 0.38859 0.0
C2353 C 0.26359 0.19092 0.44185 0.0
C2354 C 0.25685 0.17738 0.43971 0.0
C2355 C 0.26528 0.20071 0.43027 0.0
C2356 C 0.26747 0.20243 0.39027 0.0
H2357 H 0.26139 0.26919 0.35361 0.0
H2358 H 0.25381 0.25109 0.37171 0.0
H2359 H 0.27426 0.20797 0.36858 0.0
H2360 H 0.24625 0.16372 0.42371 0.0
H2361 H 0.24932 0.18079 0.40345 0.0
H2362 H 0.25675 0.22652 0.41586 0.0
C2363 C 0.2639 0.24956 0.36589 0.0
C2364 C 0.27046 0.21215 0.37885 0.0
C2365 C 0.26817 0.25984 0.35541 0.0
C2366 C 0.2517 0.17395 0.4257 0.0
C2367 C 0.25344 0.18374 0.41409 0.0
C2368 C 0.26059 0.22234 0.4056 0.0
C2369 C 0.27263 0.23751 0.3689 0.0
C2370 C 0.26864 0.22708 0.38071 0.0
C2371 C 0.26032 0.1972 0.41623 0.0
C2372 C 0.26267 0.20744 0.40383 0.0
H2373 H 0.29994 0.24458 0.34471 0.0
H2374 H 0.29258 0.22673 0.3631 0.0
H2375 H 0.26212 0.24349 0.396 0.0
H2376 H 0.26791 0.19383 0.45242 0.0
H2377 H 0.27083 0.2109 0.43223 0.0
C2378 C 0.50861 0.46821 0.89693 0.0
C2379 C 0.50528 0.46469 0.91149 0.0
C2380 C 0.49774 0.47267 0.88732 0.0
C2381 C 0.45859 0.46991 0.88074 0.0
H2382 H 0.46595 0.50148 0.85348 0.0
C2383 C 0.41576 0.48795 0.83808 0.0
C2384 C 0.42105 0.49105 0.824 0.0
C2385 C 0.42539 0.48592 0.84974 0.0
C2386 C 0.46376 0.49256 0.86094 0.0
H2387 H 0.48795 0.46317 0.92743 0.0
H2388 H 0.46882 0.47092 0.91052 0.0
H2389 H 0.48397 0.49579 0.87213 0.0
H2390 H 0.44062 0.49483 0.81125 0.0
H2391 H 0.45733 0.49087 0.83139 0.0
H2392 H 0.43857 0.4664 0.8693 0.0
C2393 C 0.47989 0.4702 0.9066 0.0
C2394 C 0.47407 0.48934 0.87164 0.0
C2395 C 0.49083 0.46587 0.91628 0.0
C2396 C 0.43616 0.49224 0.8219 0.0
C2397 C 0.44576 0.49018 0.83351 0.0
C2398 C 0.4483 0.47308 0.86996 0.0
C2399 C 0.48325 0.47363 0.89201 0.0
C2400 C 0.47171 0.47783 0.88151 0.0
C2401 C 0.44051 0.48695 0.84757 0.0
C2402 C 0.45087 0.4843 0.85977 0.0
H2403 H 0.51968 0.46756 0.89297 0.0
H2404 H 0.50065 0.4751 0.87612 0.0
H2405 H 0.45654 0.4609 0.88812 0.0
H2406 H 0.40419 0.48685 0.84006 0.0
H2407 H 0.42097 0.48358 0.86045 0.0
C2408 C 0.70135 0.74302 0.15688 0.0
C2409 C 0.71121 0.7542 0.16033 0.0
C2410 C 0.70513 0.73236 0.14696 0.0
C2411 C 0.73625 0.71553 0.1284 0.0
H2412 H 0.70735 0.70619 0.09902 0.0
C2413 C 0.74965 0.68298 0.07666 0.0
C2414 C 0.7391 0.67305 0.07166 0.0
C2415 C 0.74654 0.69227 0.08814 0.0
C2416 C 0.71549 0.7085 0.10726 0.0
H2417 H 0.73294 0.76273 0.1563 0.0
H2418 H 0.73957 0.74406 0.13904 0.0
H2419 H 0.70149 0.72318 0.11812 0.0
H2420 H 0.717 0.66515 0.07489 0.0
H2421 H 0.71175 0.68103 0.09511 0.0
H2422 H 0.75026 0.70085 0.11747 0.0
C2423 C 0.72894 0.74349 0.14411 0.0
C2424 C 0.71212 0.71825 0.11821 0.0
C2425 C 0.72514 0.75418 0.15401 0.0
C2426 C 0.72545 0.67253 0.07855 0.0
C2427 C 0.72236 0.68178 0.09004 0.0
C2428 C 0.73961 0.70572 0.11745 0.0
C2429 C 0.71888 0.7326 0.14028 0.0
C2430 C 0.72246 0.72191 0.1289 0.0
C2431 C 0.73282 0.69185 0.0949 0.0
C2432 C 0.72927 0.7021 0.10672 0.0
H2433 H 0.69063 0.74256 0.16176 0.0
H2434 H 0.69724 0.72395 0.14446 0.0
H2435 H 0.7444 0.71802 0.13656 0.0
H2436 H 0.76033 0.68356 0.07172 0.0
H2437 H 0.75481 0.69998 0.09151 0.0
C2438 C 0.01329 0.02614 0.11712 0.0
C2439 C 0.01032 0.0346 0.10466 0.0
C2440 C 0.00222 0.02239 0.12691 0.0
C2441 C 0.96578 0.03401 0.13874 0.0
H2442 H 0.96576 0.99733 0.15961 0.0
C2443 C 0.9205 0.01722 0.17953 0.0
C2444 C 0.92535 0.01164 0.19297 0.0
C2445 C 0.93021 0.01926 0.16795 0.0
C2446 C 0.96567 0.00764 0.15391 0.0
H2447 H 0.99322 0.04543 0.0926 0.0
H2448 H 0.97383 0.03847 0.10942 0.0
H2449 H 0.98369 0.00196 0.14051 0.0
H2450 H 0.94408 0.00349 0.2047 0.0
H2451 H 0.96104 0.00706 0.18449 0.0
H2452 H 0.94773 0.03964 0.15218 0.0
C2453 C 0.9848 0.03499 0.11178 0.0
C2454 C 0.97596 0.01032 0.14298 0.0
C2455 C 0.9959 0.03882 0.10201 0.0
C2456 C 0.94006 0.00794 0.19452 0.0
C2457 C 0.94973 0.00984 0.18291 0.0
C2458 C 0.95542 0.03128 0.14959 0.0
C2459 C 0.98786 0.02689 0.12446 0.0
C2460 C 0.97628 0.02362 0.13539 0.0
C2461 C 0.94494 0.01561 0.16953 0.0
C2462 C 0.95538 0.01814 0.15742 0.0
H2463 H 0.02422 0.0225 0.11939 0.0
H2464 H 0.00503 0.01627 0.13662 0.0
H2465 H 0.96583 0.04445 0.13331 0.0
H2466 H 0.90925 0.02026 0.17805 0.0
H2467 H 0.9262 0.02364 0.15774 0.0
C2468 C 0.30007 0.75946 0.15676 0.0
C2469 C 0.29032 0.74814 0.16035 0.0
C2470 C 0.29607 0.7703 0.14688 0.0
C2471 C 0.26501 0.78785 0.12886 0.0
H2472 H 0.29262 0.79524 0.09768 0.0
C2473 C 0.25016 0.82041 0.07675 0.0
C2474 C 0.26103 0.82914 0.07023 0.0
C2475 C 0.25345 0.8113 0.08854 0.0
C2476 C 0.28487 0.79354 0.10642 0.0
H2477 H 0.26849 0.73971 0.15674 0.0
H2478 H 0.26145 0.75882 0.13968 0.0
H2479 H 0.29876 0.77844 0.11723 0.0
H2480 H 0.28392 0.83516 0.07124 0.0
H2481 H 0.28946 0.81987 0.0921 0.0
H2482 H 0.25115 0.80306 0.11812 0.0
C2483 C 0.27219 0.75925 0.14454 0.0
C2484 C 0.28839 0.78386 0.11762 0.0
C2485 C 0.27623 0.74832 0.15435 0.0
C2486 C 0.2752 0.82875 0.07604 0.0
C2487 C 0.27845 0.81978 0.0879 0.0
C2488 C 0.26153 0.79768 0.11772 0.0
C2489 C 0.28219 0.77016 0.14046 0.0
C2490 C 0.2785 0.78087 0.12892 0.0
C2491 C 0.26767 0.81078 0.0942 0.0
C2492 C 0.2714 0.80061 0.10631 0.0
H2493 H 0.3109 0.75985 0.16142 0.0
H2494 H 0.30392 0.77872 0.14413 0.0
H2495 H 0.25722 0.78582 0.13751 0.0
H2496 H 0.23908 0.82056 0.07273 0.0
H2497 H 0.24489 0.80444 0.093 0.0
C2498 C 0.03042 0.49081 0.07547 0.0
C2499 C 0.0162 0.48514 0.07447 0.0
C2500 C 0.03765 0.49122 0.08885 0.0
C2501 C 0.03118 0.4908 0.12851 0.0
H2502 H 0.07222 0.48174 0.13049 0.0
C2503 C 0.06269 0.48749 0.18311 0.0
C2504 C 0.0767 0.49377 0.18333 0.0
C2505 C 0.05515 0.48587 0.16996 0.0
C2506 C 0.06079 0.48443 0.1301 0.0
H2507 H 0.99851 0.47525 0.08678 0.0
H2508 H 0.01115 0.47599 0.11019 0.0
H2509 H 0.05934 0.47986 0.10733 0.0
H2510 H 0.09386 0.50302 0.16984 0.0
H2511 H 0.08064 0.50044 0.14697 0.0
H2512 H 0.03266 0.49547 0.15127 0.0
C2513 C 0.01663 0.48029 0.10061 0.0
C2514 C 0.05341 0.48335 0.11683 0.0
C2515 C 0.00939 0.47987 0.0872 0.0
C2516 C 0.08302 0.49831 0.17008 0.0
C2517 C 0.07551 0.49666 0.15695 0.0
C2518 C 0.03857 0.49188 0.1418 0.0
C2519 C 0.03085 0.48598 0.10159 0.0
C2520 C 0.03854 0.48662 0.11584 0.0
C2521 C 0.06148 0.49043 0.15672 0.0
C2522 C 0.05349 0.48881 0.14272 0.0
H2523 H 0.03589 0.49521 0.06593 0.0
H2524 H 0.0485 0.49591 0.08926 0.0
H2525 H 0.01977 0.49357 0.12809 0.0
H2526 H 0.05746 0.48399 0.19313 0.0
H2527 H 0.04442 0.48091 0.17016 0.0
C2528 C 0.35386 0.69816 0.25575 0.0
C2529 C 0.34715 0.7092 0.24761 0.0
C2530 C 0.36373 0.70149 0.26683 0.0
C2531 C 0.37566 0.72949 0.2922 0.0
H2532 H 0.41297 0.71055 0.29006 0.0
C2533 C 0.4245 0.74611 0.32862 0.0
C2534 C 0.43408 0.73526 0.33331 0.0
C2535 C 0.4134 0.74304 0.31863 0.0
C2536 C 0.40255 0.71576 0.29103 0.0
H2537 H 0.3453 0.73248 0.24516 0.0
H2538 H 0.36228 0.73824 0.26483 0.0
H2539 H 0.39417 0.70488 0.27228 0.0
H2540 H 0.4393 0.71255 0.33109 0.0
H2541 H 0.41959 0.70707 0.31441 0.0
H2542 H 0.38388 0.74015 0.31113 0.0
C2543 C 0.35988 0.727 0.26251 0.0
C2544 C 0.39179 0.71255 0.28077 0.0
C2545 C 0.35012 0.72368 0.25127 0.0
C2546 C 0.43206 0.72119 0.32794 0.0
C2547 C 0.42086 0.71808 0.31812 0.0
C2548 C 0.38637 0.73257 0.30262 0.0
C2549 C 0.36699 0.71593 0.27019 0.0
C2550 C 0.37825 0.71937 0.28124 0.0
C2551 C 0.41148 0.72899 0.31317 0.0
C2552 C 0.39997 0.72574 0.30217 0.0
H2553 H 0.35157 0.68689 0.25351 0.0
H2554 H 0.36889 0.69274 0.27275 0.0
H2555 H 0.36527 0.73483 0.29284 0.0
H2556 H 0.42555 0.75703 0.33266 0.0
H2557 H 0.40651 0.75178 0.31499 0.0
C2558 C 0.98922 0.42724 0.97184 0.0
C2559 C 0.98244 0.42854 0.98548 0.0
C2560 C 0.9893 0.414 0.96468 0.0
C2561 C 0.98574 0.37474 0.9709 0.0
H2562 H 0.97906 0.37402 0.92918 0.0
C2563 C 0.98138 0.32137 0.93862 0.0
C2564 C 0.98825 0.32117 0.92494 0.0
C2565 C 0.98008 0.33431 0.94622 0.0
C2566 C 0.98109 0.37404 0.94081 0.0
H2567 H 0.97036 0.41688 0.00225 0.0
H2568 H 0.97058 0.3937 0.98976 0.0
H2569 H 0.97784 0.39685 0.94206 0.0
H2570 H 0.99944 0.33437 0.9087 0.0
H2571 H 0.99722 0.35688 0.92195 0.0
H2572 H 0.98914 0.35193 0.96961 0.0
C2573 C 0.97593 0.40294 0.98468 0.0
C2574 C 0.98038 0.38713 0.94819 0.0
C2575 C 0.97582 0.41622 0.99183 0.0
C2576 C 0.99385 0.33419 0.91908 0.0
C2577 C 0.99256 0.3471 0.92668 0.0
C2578 C 0.98649 0.36163 0.9635 0.0
C2579 C 0.98264 0.4017 0.971 0.0
C2580 C 0.98281 0.38766 0.9633 0.0
C2581 C 0.98563 0.34734 0.94032 0.0
C2582 C 0.9843 0.36115 0.94834 0.0
H2583 H 0.99469 0.43642 0.96676 0.0
H2584 H 0.9948 0.41335 0.95429 0.0
H2585 H 0.98782 0.37481 0.98252 0.0
H2586 H 0.97682 0.31155 0.94335 0.0
H2587 H 0.97452 0.33414 0.95662 0.0
C2588 C 0.65549 0.78023 0.2576 0.0
C2589 C 0.65226 0.79048 0.24667 0.0
C2590 C 0.64532 0.77683 0.2685 0.0
C2591 C 0.61283 0.79127 0.28663 0.0
H2592 H 0.6052 0.75136 0.29781 0.0
C2593 C 0.56246 0.77452 0.32012 0.0
C2594 C 0.564 0.76382 0.33099 0.0
C2595 C 0.57382 0.77767 0.31046 0.0
C2596 C 0.60734 0.76257 0.29496 0.0
H2597 H 0.63561 0.80486 0.23842 0.0
H2598 H 0.61802 0.79904 0.25741 0.0
H2599 H 0.62407 0.75702 0.27985 0.0
H2600 H 0.57872 0.74798 0.34016 0.0
H2601 H 0.59868 0.75367 0.32344 0.0
H2602 H 0.59611 0.79686 0.30165 0.0
C2603 C 0.62849 0.79381 0.25773 0.0
C2604 C 0.61815 0.76581 0.28467 0.0
C2605 C 0.6386 0.79716 0.24684 0.0
C2606 C 0.57722 0.75637 0.33199 0.0
C2607 C 0.5886 0.75952 0.32231 0.0
C2608 C 0.60207 0.78804 0.29693 0.0
C2609 C 0.63174 0.78365 0.26871 0.0
C2610 C 0.62088 0.78019 0.28025 0.0
C2611 C 0.58704 0.77023 0.31145 0.0
C2612 C 0.59905 0.77365 0.30108 0.0
H2613 H 0.66596 0.77499 0.25787 0.0
H2614 H 0.64819 0.76904 0.27688 0.0
H2615 H 0.61486 0.80248 0.28367 0.0
H2616 H 0.55251 0.78059 0.31914 0.0
H2617 H 0.57216 0.78585 0.30211 0.0
C2618 C 0.02664 0.10998 0.02321 0.0
C2619 C 0.03528 0.09826 0.01911 0.0
C2620 C 0.02248 0.1204 0.01295 0.0
C2621 C 0.01799 0.12765 0.9737 0.0
H2622 H 0.0243 0.1676 0.98465 0.0
C2623 C 0.01463 0.17495 0.93205 0.0
C2624 C 0.00906 0.18814 0.93686 0.0
C2625 C 0.01707 0.16361 0.94192 0.0
C2626 C 0.02222 0.15653 0.98146 0.0
H2627 H 0.04598 0.08816 0.00085 0.0
H2628 H 0.03848 0.10627 0.98289 0.0
H2629 H 0.02949 0.14835 0.00208 0.0
H2630 H 0.00115 0.19961 0.95565 0.0
H2631 H 0.00505 0.17976 0.97282 0.0
H2632 H 0.01058 0.13582 0.95311 0.0
C2633 C 0.03493 0.10733 0.99408 0.0
C2634 C 0.02524 0.14549 0.99147 0.0
C2635 C 0.0392 0.09695 0.00437 0.0
C2636 C 0.00568 0.18965 0.95167 0.0
C2637 C 0.00796 0.17827 0.96151 0.0
C2638 C 0.01483 0.13872 0.96371 0.0
C2639 C 0.02675 0.1193 0.99832 0.0
C2640 C 0.0232 0.13094 0.98769 0.0
C2641 C 0.01385 0.16516 0.95681 0.0
C2642 C 0.01694 0.15331 0.96745 0.0
H2643 H 0.02314 0.11116 0.03439 0.0
H2644 H 0.01596 0.12937 0.01649 0.0
H2645 H 0.01619 0.11653 0.97054 0.0
H2646 H 0.01747 0.17354 0.9207 0.0
H2647 H 0.0218 0.15377 0.93792 0.0
C2648 C 0.35188 0.29977 0.25394 0.0
C2649 C 0.33993 0.29058 0.25687 0.0
C2650 C 0.36221 0.29611 0.24353 0.0
C2651 C 0.37701 0.26488 0.22399 0.0
H2652 H 0.39458 0.29476 0.19956 0.0
C2653 C 0.41904 0.2527 0.17878 0.0
C2654 C 0.43133 0.26189 0.17823 0.0
C2655 C 0.40722 0.25596 0.1877 0.0
C2656 C 0.38984 0.28631 0.20637 0.0
H2657 H 0.32934 0.27042 0.25093 0.0
H2658 H 0.34736 0.26405 0.2326 0.0
H2659 H 0.37492 0.3009 0.21607 0.0
H2660 H 0.44076 0.28181 0.18641 0.0
H2661 H 0.42021 0.28744 0.20204 0.0
H2662 H 0.39201 0.25031 0.21426 0.0
C2663 C 0.34884 0.27401 0.23855 0.0
C2664 C 0.37858 0.28982 0.21585 0.0
C2665 C 0.3385 0.27766 0.24903 0.0
C2666 C 0.43151 0.27444 0.18671 0.0
C2667 C 0.41967 0.27775 0.19554 0.0
C2668 C 0.38825 0.26136 0.21445 0.0
C2669 C 0.36085 0.28318 0.23571 0.0
C2670 C 0.37216 0.2792 0.22493 0.0
C2671 C 0.4074 0.26855 0.19615 0.0
C2672 C 0.39492 0.27208 0.20568 0.0
H2673 H 0.35348 0.30965 0.25999 0.0
H2674 H 0.37147 0.30329 0.24186 0.0
H2675 H 0.37244 0.25646 0.23094 0.0
H2676 H 0.41863 0.24289 0.17245 0.0
H2677 H 0.39788 0.24871 0.18787 0.0
C2678 C 0.54962 0.39665 0.00725 0.0
C2679 C 0.53884 0.40251 0.99815 0.0
C2680 C 0.54608 0.38602 0.01761 0.0
C2681 C 0.5152 0.36933 0.0379 0.0
H2682 H 0.54171 0.3373 0.04234 0.0
C2683 C 0.50087 0.31698 0.07042 0.0
C2684 C 0.5119 0.31109 0.07923 0.0
C2685 C 0.50389 0.32859 0.06097 0.0
C2686 C 0.53427 0.34625 0.04135 0.0
H2687 H 0.51584 0.40193 0.99291 0.0
H2688 H 0.50964 0.38328 0.01096 0.0
H2689 H 0.54742 0.35673 0.02511 0.0
H2690 H 0.53464 0.31317 0.08535 0.0
H2691 H 0.53991 0.3333 0.06879 0.0
H2692 H 0.50198 0.35868 0.05407 0.0
C2693 C 0.52082 0.38704 0.01021 0.0
C2694 C 0.53755 0.35741 0.03149 0.0
C2695 C 0.52437 0.39772 0.99986 0.0
C2696 C 0.52595 0.31724 0.07851 0.0
C2697 C 0.52898 0.3288 0.06903 0.0
C2698 C 0.51189 0.35812 0.04775 0.0
C2699 C 0.53167 0.38095 0.01911 0.0
C2700 C 0.52809 0.36911 0.02966 0.0
C2701 C 0.51801 0.33454 0.06007 0.0
C2702 C 0.52142 0.34648 0.04961 0.0
H2703 H 0.56083 0.4003 0.00638 0.0
H2704 H 0.55466 0.3818 0.02449 0.0
H2705 H 0.50775 0.37827 0.03689 0.0
H2706 H 0.48997 0.31241 0.07057 0.0
H2707 H 0.49525 0.33267 0.05408 0.0
C2708 C 0.67237 0.22256 0.22426 0.0
C2709 C 0.67378 0.22848 0.23823 0.0
C2710 C 0.65894 0.22251 0.21709 0.0
C2711 C 0.61923 0.22699 0.22311 0.0
H2712 H 0.61909 0.23585 0.1817 0.0
C2713 C 0.56716 0.24206 0.19106 0.0
C2714 C 0.5653 0.23582 0.17727 0.0
C2715 C 0.58019 0.24037 0.19874 0.0
C2716 C 0.61896 0.2332 0.19323 0.0
H2717 H 0.66221 0.23892 0.25568 0.0
H2718 H 0.63881 0.23905 0.24312 0.0
H2719 H 0.64215 0.23427 0.19469 0.0
H2720 H 0.57565 0.22299 0.1607 0.0
H2721 H 0.5984 0.22003 0.17412 0.0
H2722 H 0.59596 0.22625 0.22162 0.0
C2723 C 0.648 0.23417 0.23779 0.0
C2724 C 0.63218 0.23226 0.20068 0.0
C2725 C 0.66141 0.23412 0.24499 0.0
C2726 C 0.57671 0.22781 0.17136 0.0
C2727 C 0.58978 0.22623 0.17898 0.0
C2728 C 0.60599 0.22804 0.21566 0.0
C2729 C 0.64662 0.22848 0.22369 0.0
C2730 C 0.6325 0.22916 0.21573 0.0
C2731 C 0.59168 0.23253 0.19273 0.0
C2732 C 0.60572 0.23117 0.20064 0.0
H2733 H 0.68167 0.21794 0.21886 0.0
H2734 H 0.65823 0.21777 0.20637 0.0
H2735 H 0.61905 0.22437 0.23463 0.0
H2736 H 0.55851 0.2482 0.19594 0.0
H2737 H 0.58138 0.24545 0.20926 0.0
C2738 C 0.48819 0.07487 0.03163 0.0
C2739 C 0.48169 0.0745 0.01775 0.0
C2740 C 0.4885 0.08761 0.03965 0.0
C2741 C 0.48628 0.12716 0.03597 0.0
H2742 H 0.47775 0.12532 0.07733 0.0
C2743 C 0.48148 0.17851 0.07098 0.0
C2744 C 0.48756 0.17799 0.08505 0.0
C2745 C 0.4803 0.16599 0.06264 0.0
C2746 C 0.48032 0.12601 0.06583 0.0
H2747 H 0.47038 0.08732 0.00146 0.0
H2748 H 0.47106 0.10962 0.01544 0.0
H2749 H 0.47664 0.10333 0.06297 0.0
H2750 H 0.49739 0.16396 0.10127 0.0
H2751 H 0.49545 0.14217 0.08671 0.0
H2752 H 0.49014 0.14982 0.03885 0.0
C2753 C 0.476 0.10003 0.02004 0.0
C2754 C 0.47966 0.11341 0.0576 0.0
C2755 C 0.47563 0.08726 0.01203 0.0
C2756 C 0.49244 0.16467 0.09057 0.0
C2757 C 0.49131 0.15218 0.08222 0.0
C2758 C 0.487 0.13978 0.04422 0.0
C2759 C 0.48239 0.10033 0.03397 0.0
C2760 C 0.48271 0.11382 0.0426 0.0
C2761 C 0.48522 0.15267 0.06815 0.0
C2762 C 0.4841 0.13934 0.05927 0.0
H2763 H 0.49322 0.06534 0.03625 0.0
H2764 H 0.49373 0.08755 0.05024 0.0
H2765 H 0.48886 0.12781 0.02447 0.0
H2766 H 0.47746 0.18857 0.0665 0.0
H2767 H 0.47536 0.16673 0.05194 0.0
C2768 C 0.23314 0.36266 0.71667 0.0
C2769 C 0.23694 0.348 0.71685 0.0
C2770 C 0.24327 0.3733 0.72059 0.0
C2771 C 0.27825 0.37913 0.73991 0.0
H2772 H 0.27905 0.41474 0.71722 0.0
C2773 C 0.32372 0.42283 0.74528 0.0
C2774 C 0.31927 0.43731 0.74525 0.0
C2775 C 0.31377 0.41169 0.74228 0.0
C2776 C 0.27887 0.40492 0.72375 0.0
H2777 H 0.25432 0.33298 0.72138 0.0
H2778 H 0.27212 0.3516 0.72808 0.0
H2779 H 0.26164 0.39572 0.71109 0.0
H2780 H 0.30087 0.45145 0.74206 0.0
H2781 H 0.28349 0.43203 0.73698 0.0
H2782 H 0.29564 0.38837 0.75247 0.0
C2783 C 0.26122 0.35486 0.72511 0.0
C2784 C 0.26887 0.39401 0.72026 0.0
C2785 C 0.25104 0.34419 0.72125 0.0
C2786 C 0.30462 0.4404 0.7423 0.0
C2787 C 0.2947 0.42929 0.73923 0.0
C2788 C 0.28832 0.39004 0.74337 0.0
C2789 C 0.25748 0.36956 0.72471 0.0
C2790 C 0.26836 0.38102 0.72835 0.0
C2791 C 0.29917 0.41482 0.7391 0.0
C2792 C 0.28866 0.40309 0.73538 0.0
H2793 H 0.22227 0.36592 0.7136 0.0
H2794 H 0.23991 0.38448 0.72046 0.0
H2795 H 0.27805 0.36933 0.74647 0.0
H2796 H 0.33491 0.4201 0.74764 0.0
H2797 H 0.31756 0.40066 0.74217 0.0
C2798 C 0.26561 0.668 0.78089 0.0
C2799 C 0.26236 0.67572 0.76802 0.0
C2800 C 0.27302 0.65491 0.78033 0.0
C2801 C 0.29799 0.63474 0.75711 0.0
H2802 H 0.28613 0.60163 0.78068 0.0
C2803 C 0.32396 0.57889 0.75003 0.0
C2804 C 0.32663 0.57053 0.76262 0.0
C2805 C 0.31588 0.59155 0.75079 0.0
C2806 C 0.28971 0.61083 0.77417 0.0
H2807 H 0.26393 0.67538 0.74443 0.0
H2808 H 0.27701 0.65268 0.74349 0.0
H2809 H 0.27238 0.62398 0.78191 0.0
H2810 H 0.32268 0.56893 0.7859 0.0
H2811 H 0.309 0.59124 0.78729 0.0
H2812 H 0.31542 0.62175 0.74951 0.0
C2813 C 0.27399 0.65687 0.75403 0.0
C2814 C 0.2818 0.62362 0.77485 0.0
C2815 C 0.26651 0.6699 0.75457 0.0
C2816 C 0.321 0.57518 0.776 0.0
C2817 C 0.31297 0.58789 0.77677 0.0
C2818 C 0.30595 0.622 0.75649 0.0
C2819 C 0.27743 0.64928 0.7669 0.0
C2820 C 0.28582 0.63569 0.76628 0.0
C2821 C 0.31032 0.59625 0.76417 0.0
C2822 C 0.30189 0.60985 0.76497 0.0
H2823 H 0.26276 0.67225 0.79144 0.0
H2824 H 0.27564 0.64938 0.79044 0.0
H2825 H 0.3015 0.64394 0.75056 0.0
H2826 H 0.32827 0.57576 0.73957 0.0
H2827 H 0.31391 0.5976 0.74082 0.0
C2828 C 0.91375 0.48536 0.47105 0.0
C2829 C 0.91973 0.49066 0.4841 0.0
C2830 C 0.90035 0.47804 0.47105 0.0
C2831 C 0.86662 0.4727 0.49207 0.0
H2832 H 0.86419 0.43588 0.4724 0.0
C2833 C 0.81886 0.43273 0.50158 0.0
C2834 C 0.81397 0.42434 0.48985 0.0
C2835 C 0.8313 0.44147 0.50021 0.0
C2836 C 0.86456 0.44625 0.47774 0.0
H2837 H 0.91616 0.49235 0.50741 0.0
H2838 H 0.89268 0.47989 0.50731 0.0
H2839 H 0.88656 0.45023 0.471 0.0
H2840 H 0.818 0.41884 0.46734 0.0
H2841 H 0.83954 0.43434 0.4648 0.0
H2842 H 0.84462 0.46884 0.49874 0.0
C2843 C 0.89836 0.4815 0.49707 0.0
C2844 C 0.87742 0.45445 0.47696 0.0
C2845 C 0.91181 0.48869 0.4971 0.0
C2846 C 0.82164 0.42505 0.47663 0.0
C2847 C 0.83401 0.4339 0.4752 0.0
C2848 C 0.85371 0.46457 0.49274 0.0
C2849 C 0.89256 0.47597 0.48408 0.0
C2850 C 0.87863 0.46768 0.48425 0.0
C2851 C 0.83907 0.44215 0.48702 0.0
C2852 C 0.85256 0.45116 0.48572 0.0
H2853 H 0.9194 0.48689 0.46079 0.0
H2854 H 0.89605 0.47403 0.46085 0.0
H2855 H 0.86719 0.48296 0.49764 0.0
H2856 H 0.81327 0.43225 0.51197 0.0
H2857 H 0.83499 0.44744 0.50963 0.0
C2858 C 0.74298 0.847 0.77844 0.0
C2859 C 0.7514 0.84845 0.79114 0.0
C2860 C 0.73243 0.85725 0.77488 0.0
C2861 C 0.71119 0.88715 0.79109 0.0
H2862 H 0.70581 0.89901 0.7508 0.0
C2863 C 0.68156 0.93929 0.77458 0.0
C2864 C 0.67115 0.93824 0.76341 0.0
C2865 C 0.69069 0.92772 0.77775 0.0
C2866 C 0.70711 0.89569 0.76208 0.0
H2867 H 0.75566 0.86193 0.80987 0.0
H2868 H 0.7376 0.87992 0.80357 0.0
H2869 H 0.723 0.8799 0.75674 0.0
H2870 H 0.66227 0.92437 0.74663 0.0
H2871 H 0.67843 0.90413 0.75208 0.0
H2872 H 0.69562 0.90327 0.79642 0.0
C2873 C 0.73873 0.87068 0.79654 0.0
C2874 C 0.71691 0.88471 0.7655 0.0
C2875 C 0.74914 0.86038 0.80016 0.0
C2876 C 0.67014 0.92543 0.75536 0.0
C2877 C 0.67944 0.9139 0.75841 0.0
C2878 C 0.70153 0.89822 0.78768 0.0
C2879 C 0.73019 0.86925 0.78389 0.0
C2880 C 0.7192 0.88039 0.78008 0.0
C2881 C 0.68973 0.91491 0.7697 0.0
C2882 C 0.69949 0.90269 0.77316 0.0
H2883 H 0.74444 0.83786 0.77134 0.0
H2884 H 0.72594 0.85569 0.76516 0.0
H2885 H 0.71238 0.8839 0.8024 0.0
H2886 H 0.68249 0.94899 0.78104 0.0
H2887 H 0.69862 0.92884 0.78643 0.0
C2888 C 0.59549 0.49905 0.98784 0.0
C2889 C 0.5917 0.49708 0.97312 0.0
C2890 C 0.60588 0.50947 0.99178 0.0
C2891 C 0.6247 0.54265 0.979 0.0
H2892 H 0.6561 0.53004 0.00422 0.0
C2893 C 0.67108 0.581 0.99811 0.0
C2894 C 0.68522 0.57561 0.99653 0.0
C2895 C 0.65895 0.57192 0.99634 0.0
C2896 C 0.64739 0.53371 0.99718 0.0
H2897 H 0.5959 0.50474 0.95104 0.0
H2898 H 0.61369 0.52307 0.95798 0.0
H2899 H 0.63577 0.51358 0.99912 0.0
H2900 H 0.69774 0.55644 0.9922 0.0
H2901 H 0.67655 0.54057 0.98915 0.0
H2902 H 0.63647 0.5627 0.97686 0.0
C2903 C 0.60854 0.51659 0.96647 0.0
C2904 C 0.6357 0.52435 0.99437 0.0
C2905 C 0.59828 0.50609 0.96251 0.0
C2906 C 0.68697 0.56092 0.99336 0.0
C2907 C 0.67486 0.55181 0.99175 0.0
C2908 C 0.63632 0.55207 0.98194 0.0
C2909 C 0.61261 0.51825 0.98112 0.0
C2910 C 0.62434 0.52864 0.98508 0.0
C2911 C 0.66072 0.55723 0.99314 0.0
C2912 C 0.6479 0.54762 0.99087 0.0
H2913 H 0.59048 0.49248 0.99634 0.0
H2914 H 0.6087 0.51063 0.00318 0.0
H2915 H 0.61605 0.54628 0.97187 0.0
H2916 H 0.66941 0.59231 0.00047 0.0
H2917 H 0.64818 0.57637 0.99755 0.0
C2918 C 0.26178 0.63866 0.20717 0.0
C2919 C 0.26001 0.65331 0.21054 0.0
C2920 C 0.25104 0.62846 0.2108 0.0
C2921 C 0.21903 0.62219 0.23463 0.0
H2922 H 0.21091 0.59136 0.20737 0.0
C2923 C 0.17129 0.58099 0.24169 0.0
C2924 C 0.17457 0.56644 0.2391 0.0
C2925 C 0.18141 0.59196 0.23839 0.0
C2926 C 0.21313 0.59984 0.21515 0.0
H2927 H 0.24558 0.66874 0.2204 0.0
H2928 H 0.22666 0.65092 0.22658 0.0
H2929 H 0.22893 0.60992 0.2012 0.0
H2930 H 0.191 0.55201 0.23092 0.0
H2931 H 0.20866 0.57112 0.22523 0.0
H2932 H 0.20306 0.61207 0.24851 0.0
C2933 C 0.23648 0.64729 0.22132 0.0
C2934 C 0.22349 0.61047 0.21163 0.0
C2935 C 0.24729 0.65751 0.21776 0.0
C2936 C 0.18819 0.5631 0.23317 0.0
C2937 C 0.19825 0.57406 0.22977 0.0
C2938 C 0.20858 0.61157 0.23811 0.0
C2939 C 0.23819 0.63264 0.21781 0.0
C2940 C 0.2267 0.6217 0.22139 0.0
C2941 C 0.19496 0.58861 0.23231 0.0
C2942 C 0.20564 0.6002 0.22846 0.0
H2943 H 0.27158 0.63504 0.20188 0.0
H2944 H 0.2529 0.61724 0.20823 0.0
H2945 H 0.22133 0.63057 0.24247 0.0
H2946 H 0.16092 0.58389 0.24635 0.0
H2947 H 0.17854 0.60308 0.24038 0.0
C2948 C 0.92506 0.52963 0.02492 0.0
C2949 C 0.92641 0.51584 0.01881 0.0
C2950 C 0.91167 0.5366 0.02494 0.0
C2951 C 0.87611 0.5368 0.00606 0.0
H2952 H 0.86488 0.56072 0.03851 0.0
C2953 C 0.82023 0.56478 0.00885 0.0
C2954 C 0.8205 0.57935 0.01303 0.0
C2955 C 0.83269 0.55634 0.01016 0.0
C2956 C 0.86791 0.55415 0.02933 0.0
H2957 H 0.91461 0.4985 0.0081 0.0
H2958 H 0.89115 0.51049 0.0085 0.0
H2959 H 0.88734 0.54702 0.03991 0.0
H2960 H 0.83396 0.59641 0.02215 0.0
H2961 H 0.85574 0.58172 0.02436 0.0
H2962 H 0.85665 0.54397 0.9955 0.0
C2963 C 0.90053 0.51602 0.01306 0.0
C2964 C 0.88079 0.54631 0.03011 0.0
C2965 C 0.91395 0.50907 0.013 0.0
C2966 C 0.83345 0.58525 0.01871 0.0
C2967 C 0.84587 0.5768 0.02012 0.0
C2968 C 0.86318 0.54459 0.00532 0.0
C2969 C 0.89925 0.52993 0.01892 0.0
C2970 C 0.88514 0.53766 0.01843 0.0
C2971 C 0.84566 0.56227 0.01578 0.0
C2972 C 0.85902 0.55346 0.01688 0.0
H2973 H 0.93439 0.53509 0.02968 0.0
H2974 H 0.91115 0.54736 0.02941 0.0
H2975 H 0.87921 0.53044 0.99677 0.0
H2976 H 0.81044 0.55995 0.00433 0.0
H2977 H 0.83216 0.54516 0.00682 0.0
C2978 C 0.09784 0.9956 0.04848 0.0
C2979 C 0.09611 0.00825 0.04005 0.0
C2980 C 0.10774 0.98507 0.04434 0.0
C2981 C 0.14137 0.98099 0.0234 0.0
H2982 H 0.13284 0.93996 0.02702 0.0
C2983 C 0.18233 0.93814 0.0051 0.0
C2984 C 0.18389 0.92585 0.01407 0.0
C2985 C 0.17107 0.94783 0.00748 0.0
C2986 C 0.13545 0.95138 0.02609 0.0
H2987 H 0.10302 0.01941 0.02028 0.0
H2988 H 0.1204 0.00109 0.01314 0.0
H2989 H 0.11396 0.95742 0.03244 0.0
H2990 H 0.1749 0.91412 0.03261 0.0
H2991 H 0.15534 0.93111 0.03689 0.0
H2992 H 0.16291 0.97504 0.01735 0.0
C2993 C 0.11422 0.99943 0.02307 0.0
C2994 C 0.12462 0.96138 0.02916 0.0
C2995 C 0.10427 0.00993 0.02717 0.0
C2996 C 0.17387 0.9234 0.0254 0.0
C2997 C 0.16264 0.93313 0.02783 0.0
C2998 C 0.15222 0.97102 0.0204 0.0
C2999 C 0.1162 0.98697 0.03171 0.0
C3000 C 0.12748 0.97629 0.0279 0.0
C3001 C 0.16113 0.9455 0.01893 0.0
C3002 C 0.14942 0.95608 0.02176 0.0
H3003 H 0.09191 0.99404 0.05858 0.0
H3004 H 0.10914 0.97567 0.05132 0.0
H3005 H 0.14399 0.99241 0.02256 0.0
H3006 H 0.18975 0.9402 0.99614 0.0
H3007 H 0.17008 0.9571 0.00025 0.0
loop_
_geom_bond_atom_site_label_1
_geom_bond_atom_site_label_2
_geom_bond_distance
_geom_bond_site_symmetry_2
_ccdc_geom_bond_type
P0 O11 1.490 . S
P0 C14 1.812 . S
P0 C20 1.803 . S
P0 C26 1.819 . S
H1 C15 0.941 . S
H2 C16 0.939 . S
H3 C18 0.940 1_655 S
H4 C19 0.940 . S
H5 C21 0.939 . S
H6 C22 0.942 . S
H7 C24 0.940 1_565 S
H8 C25 0.939 . S
H9 C27 0.941 . S
H10 C31 0.939 . S
O11 P0 1.490 . S
H12 C28 0.939 . S
H13 C30 0.940 1_556 S
C14 P0 1.812 . S
C14 C15 1.389 . S
C14 C19 1.391 . S
C15 H1 0.941 . S
C15 C14 1.389 . S
C15 C16 1.397 . S
C16 H2 0.939 . S
C16 C15 1.397 . S
C16 C17 1.378 . S
C17 C16 1.378 . S
C17 C18 1.378 . S
C18 H3 0.940 1_455 S
C18 C17 1.378 . S
C18 C19 1.396 . S
C19 H4 0.940 . S
C19 C14 1.391 . S
C19 C18 1.396 . S
C20 P0 1.803 . S
C20 C21 1.378 . S
C20 C25 1.400 . S
C21 H5 0.939 . S
C21 C20 1.378 . S
C21 C22 1.361 . S
C22 H6 0.942 . S
C22 C21 1.361 . S
C22 C23 1.369 . S
C23 C22 1.369 . S
C23 C24 1.404 . S
C24 H7 0.940 1_545 S
C24 C23 1.404 . S
C24 C25 1.389 . S
C25 H8 0.939 . S
C25 C20 1.400 . S
C25 C24 1.389 . S
C26 P0 1.819 . S
C26 C27 1.391 . S
C26 C31 1.391 . S
C27 H9 0.941 . S
C27 C26 1.391 . S
C27 C28 1.396 . S
C28 H12 0.939 . S
C28 C27 1.396 . S
C28 C29 1.397 . S
C29 C28 1.397 . S
C29 C30 1.385 . S
C30 H13 0.940 1_554 S
C30 C29 1.385 . S
C30 C31 1.388 . S
C31 H10 0.939 . S
C31 C26 1.391 . S
C31 C30 1.388 . S
P32 O43 1.490 . S
P32 C46 1.812 . S
P32 C52 1.803 . S
P32 C58 1.819 . S
H33 C47 0.941 . S
H34 C48 0.939 . S
H35 C50 0.940 . S
H36 C51 0.940 . S
H37 C53 0.939 . S
H38 C54 0.942 . S
H39 C56 0.940 . S
H40 C57 0.939 . S
H41 C59 0.941 . S
H42 C63 0.939 . S
O43 P32 1.490 . S
H44 C60 0.939 . S
H45 C62 0.940 . S
C46 P32 1.812 . S
C46 C47 1.389 . S
C46 C51 1.391 . S
C47 H33 0.941 . S
C47 C46 1.389 . S
C47 C48 1.397 . S
C48 H34 0.939 . S
C48 C47 1.397 . S
C48 C49 1.378 . S
C49 C48 1.378 . S
C49 C50 1.378 . S
C50 H35 0.940 . S
C50 C49 1.378 . S
C50 C51 1.396 . S
C51 H36 0.940 . S
C51 C46 1.391 . S
C51 C50 1.396 . S
C52 P32 1.803 . S
C52 C53 1.378 . S
C52 C57 1.400 . S
C53 H37 0.939 . S
C53 C52 1.378 . S
C53 C54 1.361 . S
C54 H38 0.942 . S
C54 C53 1.361 . S
C54 C55 1.369 . S
C55 C54 1.369 . S
C55 C56 1.404 . S
C56 H39 0.940 . S
C56 C55 1.404 . S
C56 C57 1.389 . S
C57 H40 0.939 . S
C57 C52 1.400 . S
C57 C56 1.389 . S
C58 P32 1.819 . S
C58 C59 1.391 . S
C58 C63 1.391 . S
C59 H41 0.941 . S
C59 C58 1.391 . S
C59 C60 1.396 . S
C60 H44 0.939 . S
C60 C59 1.396 . S
C60 C61 1.397 . S
C61 C60 1.397 . S
C61 C62 1.385 . S
C62 H45 0.940 . S
C62 C61 1.385 . S
C62 C63 1.388 . S
C63 H42 0.939 . S
C63 C58 1.391 . S
C63 C62 1.388 . S
P64 O75 1.490 . S
P64 C78 1.812 . S
P64 C84 1.803 . S
P64 C90 1.819 . S
H65 C79 0.941 . S
H66 C80 0.939 . S
H67 C82 0.940 . S
H68 C83 0.940 . S
H69 C85 0.939 . S
H70 C86 0.942 . S
H71 C88 0.940 . S
H72 C89 0.939 . S
H73 C91 0.941 . S
H74 C95 0.939 . S
O75 P64 1.490 . S
H76 C92 0.939 . S
H77 C94 0.940 . S
C78 P64 1.812 . S
C78 C79 1.389 1_554 S
C78 C83 1.391 . S
C79 H65 0.941 . S
C79 C78 1.389 1_556 S
C79 C80 1.397 . S
C80 H66 0.939 . S
C80 C79 1.397 . S
C80 C81 1.378 1_556 S
C81 C80 1.378 1_554 S
C81 C82 1.378 . S
C82 H67 0.940 . S
C82 C81 1.378 . S
C82 C83 1.396 . S
C83 H68 0.940 . S
C83 C78 1.391 . S
C83 C82 1.396 . S
C84 P64 1.803 . S
C84 C85 1.378 . S
C84 C89 1.400 . S
C85 H69 0.939 . S
C85 C84 1.378 . S
C85 C86 1.361 . S
C86 H70 0.942 . S
C86 C85 1.361 . S
C86 C87 1.369 . S
C87 C86 1.369 . S
C87 C88 1.404 . S
C88 H71 0.940 . S
C88 C87 1.404 . S
C88 C89 1.389 . S
C89 H72 0.939 . S
C89 C84 1.400 . S
C89 C88 1.389 . S
C90 P64 1.819 . S
C90 C91 1.391 1_655 S
C90 C95 1.391 . S
C91 H73 0.941 . S
C91 C90 1.391 1_455 S
C91 C92 1.396 . S
C92 H76 0.939 . S
C92 C91 1.396 . S
C92 C93 1.398 . S
C93 C92 1.398 . S
C93 C94 1.384 1_455 S
C94 H77 0.940 . S
C94 C93 1.384 1_655 S
C94 C95 1.388 . S
C95 H74 0.939 . S
C95 C90 1.391 . S
C95 C94 1.388 . S
P96 O107 1.490 . S
P96 C110 1.812 . S
P96 C116 1.803 . S
P96 C122 1.819 . S
H97 C111 0.941 . S
H98 C112 0.939 . S
H99 C114 0.940 . S
H100 C115 0.940 . S
H101 C117 0.939 . S
H102 C118 0.942 . S
H103 C120 0.940 . S
H104 C121 0.939 . S
H105 C123 0.941 . S
H106 C127 0.939 . S
O107 P96 1.490 . S
H108 C124 0.939 . S
H109 C126 0.940 . S
C110 P96 1.812 . S
C110 C111 1.389 . S
C110 C115 1.391 . S
C111 H97 0.941 . S
C111 C110 1.389 . S
C111 C112 1.397 . S
C112 H98 0.939 . S
C112 C111 1.397 . S
C112 C113 1.378 . S
C113 C112 1.378 . S
C113 C114 1.378 . S
C114 H99 0.940 . S
C114 C113 1.378 . S
C114 C115 1.396 . S
C115 H100 0.940 . S
C115 C110 1.391 . S
C115 C114 1.396 . S
C116 P96 1.803 . S
C116 C117 1.378 . S
C116 C121 1.400 . S
C117 H101 0.939 . S
C117 C116 1.378 . S
C117 C118 1.361 . S
C118 H102 0.942 . S
C118 C117 1.361 . S
C118 C119 1.369 . S
C119 C118 1.369 . S
C119 C120 1.404 . S
C120 H103 0.940 . S
C120 C119 1.404 . S
C120 C121 1.389 . S
C121 H104 0.939 . S
C121 C116 1.400 . S
C121 C120 1.389 . S
C122 P96 1.819 . S
C122 C123 1.391 . S
C122 C127 1.391 . S
C123 H105 0.941 . S
C123 C122 1.391 . S
C123 C124 1.396 . S
C124 H108 0.939 . S
C124 C123 1.396 . S
C124 C125 1.397 . S
C125 C124 1.397 . S
C125 C126 1.385 . S
C126 H109 0.940 . S
C126 C125 1.385 . S
C126 C127 1.388 . S
C127 H106 0.939 . S
C127 C122 1.391 . S
C127 C126 1.388 . S
P128 O139 1.490 . S
P128 C142 1.812 . S
P128 C148 1.803 . S
P128 C154 1.819 . S
H129 C143 0.941 . S
H130 C144 0.939 . S
H131 C146 0.940 1_545 S
H132 C147 0.940 . S
H133 C149 0.939 . S
H134 C150 0.942 . S
H135 C152 0.940 . S
H136 C153 0.939 . S
H137 C155 0.941 . S
H138 C159 0.939 . S
O139 P128 1.490 . S
H140 C156 0.939 . S
H141 C158 0.940 1_655 S
C142 P128 1.812 . S
C142 C143 1.389 . S
C142 C147 1.391 . S
C143 H129 0.941 . S
C143 C142 1.389 . S
C143 C144 1.397 . S
C144 H130 0.939 . S
C144 C143 1.397 . S
C144 C145 1.378 . S
C145 C144 1.378 . S
C145 C146 1.378 . S
C146 H131 0.940 1_565 S
C146 C145 1.378 . S
C146 C147 1.396 . S
C147 H132 0.940 . S
C147 C142 1.391 . S
C147 C146 1.396 . S
C148 P128 1.803 . S
C148 C149 1.378 . S
C148 C153 1.400 . S
C149 H133 0.939 . S
C149 C148 1.378 . S
C149 C150 1.361 . S
C150 H134 0.942 . S
C150 C149 1.361 . S
C150 C151 1.369 . S
C151 C150 1.369 . S
C151 C152 1.404 . S
C152 H135 0.940 . S
C152 C151 1.404 . S
C152 C153 1.389 . S
C153 H136 0.939 . S
C153 C148 1.400 . S
C153 C152 1.389 . S
C154 P128 1.819 . S
C154 C155 1.391 . S
C154 C159 1.391 . S
C155 H137 0.941 . S
C155 C154 1.391 . S
C155 C156 1.396 . S
C156 H140 0.939 . S
C156 C155 1.396 . S
C156 C157 1.397 . S
C157 C156 1.397 . S
C157 C158 1.385 . S
C158 H141 0.940 1_455 S
C158 C157 1.385 . S
C158 C159 1.388 . S
C159 H138 0.939 . S
C159 C154 1.391 . S
C159 C158 1.388 . S
P160 O171 1.490 . S
P160 C174 1.812 . S
P160 C180 1.803 . S
P160 C186 1.819 . S
H161 C175 0.941 . S
H162 C176 0.939 . S
H163 C178 0.940 . S
H164 C179 0.940 . S
H165 C181 0.939 . S
H166 C182 0.942 . S
H167 C184 0.940 . S
H168 C185 0.939 . S
H169 C187 0.941 . S
H170 C191 0.939 . S
O171 P160 1.490 . S
H172 C188 0.939 . S
H173 C190 0.940 . S
C174 P160 1.812 . S
C174 C175 1.389 . S
C174 C179 1.391 . S
C175 H161 0.941 . S
C175 C174 1.389 . S
C175 C176 1.397 . S
C176 H162 0.939 . S
C176 C175 1.397 . S
C176 C177 1.378 . S
C177 C176 1.378 . S
C177 C178 1.378 . S
C178 H163 0.940 . S
C178 C177 1.378 . S
C178 C179 1.396 . S
C179 H164 0.940 . S
C179 C174 1.391 . S
C179 C178 1.396 . S
C180 P160 1.803 . S
C180 C181 1.378 . S
C180 C185 1.400 . S
C181 H165 0.939 . S
C181 C180 1.378 . S
C181 C182 1.361 . S
C182 H166 0.942 . S
C182 C181 1.361 . S
C182 C183 1.369 . S
C183 C182 1.369 . S
C183 C184 1.404 . S
C184 H167 0.940 . S
C184 C183 1.404 . S
C184 C185 1.389 . S
C185 H168 0.939 . S
C185 C180 1.400 . S
C185 C184 1.389 . S
C186 P160 1.819 . S
C186 C187 1.391 . S
C186 C191 1.391 . S
C187 H169 0.941 . S
C187 C186 1.391 . S
C187 C188 1.396 . S
C188 H172 0.939 . S
C188 C187 1.396 . S
C188 C189 1.397 . S
C189 C188 1.397 . S
C189 C190 1.385 . S
C190 H173 0.940 . S
C190 C189 1.385 . S
C190 C191 1.388 . S
C191 H170 0.939 . S
C191 C186 1.391 . S
C191 C190 1.388 . S
P192 O203 1.490 . S
P192 C206 1.812 . S
P192 C212 1.803 . S
P192 C218 1.819 . S
H193 C207 0.941 . S
H194 C208 0.939 . S
H195 C210 0.940 . S
H196 C211 0.940 . S
H197 C213 0.939 . S
H198 C214 0.942 . S
H199 C216 0.940 . S
H200 C217 0.939 . S
H201 C219 0.941 . S
H202 C223 0.939 . S
O203 P192 1.490 . S
H204 C220 0.939 . S
H205 C222 0.940 . S
C206 P192 1.812 . S
C206 C207 1.389 1_655 S
C206 C211 1.391 . S
C207 H193 0.941 . S
C207 C206 1.389 1_455 S
C207 C208 1.397 . S
C208 H194 0.939 . S
C208 C207 1.397 . S
C208 C209 1.381 1_455 S
C209 C208 1.381 1_655 S
C209 C210 1.372 . S
C210 H195 0.940 . S
C210 C209 1.372 . S
C210 C211 1.396 . S
C211 H196 0.940 . S
C211 C206 1.391 . S
C211 C210 1.396 . S
C212 P192 1.803 . S
C212 C213 1.378 . S
C212 C217 1.400 . S
C213 H197 0.939 . S
C213 C212 1.378 . S
C213 C214 1.361 . S
C214 H198 0.942 . S
C214 C213 1.361 . S
C214 C215 1.369 . S
C215 C214 1.369 . S
C215 C216 1.404 . S
C216 H199 0.940 . S
C216 C215 1.404 . S
C216 C217 1.389 . S
C217 H200 0.939 . S
C217 C212 1.400 . S
C217 C216 1.389 . S
C218 P192 1.819 . S
C218 C219 1.391 . S
C218 C223 1.391 . S
C219 H201 0.941 . S
C219 C218 1.391 . S
C219 C220 1.396 . S
C220 H204 0.939 . S
C220 C219 1.396 . S
C220 C221 1.397 . S
C221 C220 1.397 . S
C221 C222 1.385 . S
C222 H205 0.940 . S
C222 C221 1.385 . S
C222 C223 1.388 . S
C223 H202 0.939 . S
C223 C218 1.391 . S
C223 C222 1.388 . S
P224 O235 1.490 . S
P224 C238 1.812 . S
P224 C244 1.803 . S
P224 C250 1.819 . S
H225 C239 0.941 . S
H226 C240 0.939 . S
H227 C242 0.940 . S
H228 C243 0.940 . S
H229 C245 0.939 . S
H230 C246 0.942 . S
H231 C248 0.940 . S
H232 C249 0.939 . S
H233 C251 0.941 . S
H234 C255 0.939 . S
O235 P224 1.490 . S
H236 C252 0.939 . S
H237 C254 0.940 . S
C238 P224 1.812 . S
C238 C239 1.389 . S
C238 C243 1.391 . S
C239 H225 0.941 . S
C239 C238 1.389 . S
C239 C240 1.397 . S
C240 H226 0.939 . S
C240 C239 1.397 . S
C240 C241 1.378 . S
C241 C240 1.378 . S
C241 C242 1.378 . S
C242 H227 0.940 . S
C242 C241 1.378 . S
C242 C243 1.396 . S
C243 H228 0.940 . S
C243 C238 1.391 . S
C243 C242 1.396 . S
C244 P224 1.803 . S
C244 C245 1.378 . S
C244 C249 1.400 . S
C245 H229 0.939 . S
C245 C244 1.378 . S
C245 C246 1.361 . S
C246 H230 0.942 . S
C246 C245 1.361 . S
C246 C247 1.369 . S
C247 C246 1.369 . S
C247 C248 1.404 . S
C248 H231 0.940 . S
C248 C247 1.404 . S
C248 C249 1.389 . S
C249 H232 0.939 . S
C249 C244 1.400 . S
C249 C248 1.389 . S
C250 P224 1.819 . S
C250 C251 1.391 . S
C250 C255 1.391 . S
C251 H233 0.941 . S
C251 C250 1.391 . S
C251 C252 1.396 . S
C252 H236 0.939 . S
C252 C251 1.396 . S
C252 C253 1.397 . S
C253 C252 1.397 . S
C253 C254 1.385 . S
C254 H237 0.940 . S
C254 C253 1.385 . S
C254 C255 1.388 . S
C255 H234 0.939 . S
C255 C250 1.391 . S
C255 C254 1.388 . S
P256 O267 1.490 . S
P256 C270 1.812 . S
P256 C276 1.803 . S
P256 C282 1.819 . S
H257 C271 0.941 . S
H258 C272 0.939 . S
H259 C274 0.940 . S
H260 C275 0.940 . S
H261 C277 0.939 . S
H262 C278 0.942 . S
H263 C280 0.940 . S
H264 C281 0.939 . S
H265 C283 0.941 . S
H266 C287 0.939 . S
O267 P256 1.490 . S
H268 C284 0.939 . S
H269 C286 0.940 . S
C270 P256 1.812 . S
C270 C271 1.389 . S
C270 C275 1.391 . S
C271 H257 0.941 . S
C271 C270 1.389 . S
C271 C272 1.397 . S
C272 H258 0.939 . S
C272 C271 1.397 . S
C272 C273 1.378 . S
C273 C272 1.378 . S
C273 C274 1.378 . S
C274 H259 0.940 . S
C274 C273 1.378 . S
C274 C275 1.396 . S
C275 H260 0.940 . S
C275 C270 1.391 . S
C275 C274 1.396 . S
C276 P256 1.803 . S
C276 C277 1.378 . S
C276 C281 1.400 . S
C277 H261 0.939 . S
C277 C276 1.378 . S
C277 C278 1.361 . S
C278 H262 0.942 . S
C278 C277 1.361 . S
C278 C279 1.369 . S
C279 C278 1.369 . S
C279 C280 1.404 . S
C280 H263 0.940 . S
C280 C279 1.404 . S
C280 C281 1.389 . S
C281 H264 0.939 . S
C281 C276 1.400 . S
C281 C280 1.389 . S
C282 P256 1.819 . S
C282 C283 1.391 . S
C282 C287 1.391 . S
C283 H265 0.941 . S
C283 C282 1.391 . S
C283 C284 1.396 . S
C284 H268 0.939 . S
C284 C283 1.396 . S
C284 C285 1.397 . S
C285 C284 1.397 . S
C285 C286 1.385 . S
C286 H269 0.940 . S
C286 C285 1.385 . S
C286 C287 1.388 . S
C287 H266 0.939 . S
C287 C282 1.391 . S
C287 C286 1.388 . S
P288 O299 1.490 . S
P288 C302 1.812 . S
P288 C308 1.803 . S
P288 C314 1.819 . S
H289 C303 0.941 . S
H290 C304 0.939 . S
H291 C306 0.940 . S
H292 C307 0.940 . S
H293 C309 0.939 . S
H294 C310 0.942 . S
H295 C312 0.940 . S
H296 C313 0.939 . S
H297 C315 0.941 . S
H298 C319 0.939 . S
O299 P288 1.490 . S
H300 C316 0.939 . S
H301 C318 0.940 . S
C302 P288 1.812 . S
C302 C303 1.389 . S
C302 C307 1.391 . S
C303 H289 0.941 . S
C303 C302 1.389 . S
C303 C304 1.397 . S
C304 H290 0.939 . S
C304 C303 1.397 . S
C304 C305 1.378 . S
C305 C304 1.378 . S
C305 C306 1.378 . S
C306 H291 0.940 . S
C306 C305 1.378 . S
C306 C307 1.396 . S
C307 H292 0.940 . S
C307 C302 1.391 . S
C307 C306 1.396 . S
C308 P288 1.803 . S
C308 C309 1.378 1_565 S
C308 C313 1.400 . S
C309 H293 0.939 . S
C309 C308 1.378 1_545 S
C309 C310 1.361 . S
C310 H294 0.942 . S
C310 C309 1.361 . S
C310 C311 1.369 . S
C311 C310 1.369 . S
C311 C312 1.404 1_545 S
C312 H295 0.940 . S
C312 C311 1.404 1_565 S
C312 C313 1.389 . S
C313 H296 0.939 . S
C313 C308 1.400 . S
C313 C312 1.389 . S
C314 P288 1.819 . S
C314 C315 1.391 . S
C314 C319 1.391 . S
C315 H297 0.941 . S
C315 C314 1.391 . S
C315 C316 1.396 . S
C316 H300 0.939 . S
C316 C315 1.396 . S
C316 C317 1.397 . S
C317 C316 1.397 . S
C317 C318 1.385 . S
C318 H301 0.940 . S
C318 C317 1.385 . S
C318 C319 1.388 . S
C319 H298 0.939 . S
C319 C314 1.391 . S
C319 C318 1.388 . S
P320 O331 1.490 . S
P320 C334 1.812 . S
P320 C340 1.803 . S
P320 C346 1.819 . S
H321 C335 0.941 . S
H322 C336 0.939 . S
H323 C338 0.940 . S
H324 C339 0.940 . S
H325 C341 0.939 . S
H326 C342 0.942 . S
H327 C344 0.940 . S
H328 C345 0.939 . S
H329 C347 0.941 . S
H330 C351 0.939 . S
O331 P320 1.490 . S
H332 C348 0.939 . S
H333 C350 0.940 . S
C334 P320 1.812 . S
C334 C335 1.389 . S
C334 C339 1.391 . S
C335 H321 0.941 . S
C335 C334 1.389 . S
C335 C336 1.397 . S
C336 H322 0.939 . S
C336 C335 1.397 . S
C336 C337 1.378 . S
C337 C336 1.378 . S
C337 C338 1.378 . S
C338 H323 0.940 . S
C338 C337 1.378 . S
C338 C339 1.396 . S
C339 H324 0.940 . S
C339 C334 1.391 . S
C339 C338 1.396 . S
C340 P320 1.803 . S
C340 C341 1.378 . S
C340 C345 1.400 . S
C341 H325 0.939 . S
C341 C340 1.378 . S
C341 C342 1.361 . S
C342 H326 0.942 . S
C342 C341 1.361 . S
C342 C343 1.369 . S
C343 C342 1.369 . S
C343 C344 1.404 . S
C344 H327 0.940 . S
C344 C343 1.404 . S
C344 C345 1.389 . S
C345 H328 0.939 . S
C345 C340 1.400 . S
C345 C344 1.389 . S
C346 P320 1.819 . S
C346 C347 1.391 . S
C346 C351 1.391 . S
C347 H329 0.941 . S
C347 C346 1.391 . S
C347 C348 1.396 . S
C348 H332 0.939 . S
C348 C347 1.396 . S
C348 C349 1.397 . S
C349 C348 1.397 . S
C349 C350 1.385 . S
C350 H333 0.940 . S
C350 C349 1.385 . S
C350 C351 1.388 . S
C351 H330 0.939 . S
C351 C346 1.391 . S
C351 C350 1.388 . S
P352 O363 1.490 . S
P352 C366 1.812 . S
P352 C372 1.803 . S
P352 C378 1.819 . S
H353 C367 0.941 . S
H354 C368 0.939 . S
H355 C370 0.940 . S
H356 C371 0.940 . S
H357 C373 0.939 . S
H358 C374 0.942 . S
H359 C376 0.940 . S
H360 C377 0.939 . S
H361 C379 0.941 . S
H362 C383 0.939 . S
O363 P352 1.490 . S
H364 C380 0.939 . S
H365 C382 0.940 . S
C366 P352 1.812 . S
C366 C367 1.389 . S
C366 C371 1.391 . S
C367 H353 0.941 . S
C367 C366 1.389 . S
C367 C368 1.397 . S
C368 H354 0.939 . S
C368 C367 1.397 . S
C368 C369 1.378 . S
C369 C368 1.378 . S
C369 C370 1.378 . S
C370 H355 0.940 . S
C370 C369 1.378 . S
C370 C371 1.396 . S
C371 H356 0.940 . S
C371 C366 1.391 . S
C371 C370 1.396 . S
C372 P352 1.803 . S
C372 C373 1.378 . S
C372 C377 1.400 . S
C373 H357 0.939 . S
C373 C372 1.378 . S
C373 C374 1.361 . S
C374 H358 0.942 . S
C374 C373 1.361 . S
C374 C375 1.369 . S
C375 C374 1.369 . S
C375 C376 1.404 . S
C376 H359 0.940 . S
C376 C375 1.404 . S
C376 C377 1.389 . S
C377 H360 0.939 . S
C377 C372 1.400 . S
C377 C376 1.389 . S
C378 P352 1.819 . S
C378 C379 1.391 . S
C378 C383 1.391 . S
C379 H361 0.941 . S
C379 C378 1.391 . S
C379 C380 1.396 . S
C380 H364 0.939 . S
C380 C379 1.396 . S
C380 C381 1.397 . S
C381 C380 1.397 . S
C381 C382 1.385 . S
C382 H365 0.940 . S
C382 C381 1.385 . S
C382 C383 1.388 . S
C383 H362 0.939 . S
C383 C378 1.391 . S
C383 C382 1.388 . S
P384 O395 1.490 . S
P384 C398 1.812 . S
P384 C404 1.803 . S
P384 C410 1.819 . S
H385 C399 0.941 . S
H386 C400 0.939 . S
H387 C402 0.940 . S
H388 C403 0.940 . S
H389 C405 0.939 . S
H390 C406 0.942 . S
H391 C408 0.940 . S
H392 C409 0.939 . S
H393 C411 0.941 . S
H394 C415 0.939 . S
O395 P384 1.490 . S
H396 C412 0.939 . S
H397 C414 0.940 . S
C398 P384 1.812 . S
C398 C399 1.389 . S
C398 C403 1.391 . S
C399 H385 0.941 . S
C399 C398 1.389 . S
C399 C400 1.397 . S
C400 H386 0.939 . S
C400 C399 1.397 . S
C400 C401 1.378 . S
C401 C400 1.378 . S
C401 C402 1.378 . S
C402 H387 0.940 . S
C402 C401 1.378 . S
C402 C403 1.396 . S
C403 H388 0.940 . S
C403 C398 1.391 . S
C403 C402 1.396 . S
C404 P384 1.803 . S
C404 C405 1.378 . S
C404 C409 1.400 . S
C405 H389 0.939 . S
C405 C404 1.378 . S
C405 C406 1.361 . S
C406 H390 0.942 . S
C406 C405 1.361 . S
C406 C407 1.369 . S
C407 C406 1.369 . S
C407 C408 1.404 . S
C408 H391 0.940 . S
C408 C407 1.404 . S
C408 C409 1.389 . S
C409 H392 0.939 . S
C409 C404 1.400 . S
C409 C408 1.389 . S
C410 P384 1.819 . S
C410 C411 1.391 . S
C410 C415 1.391 . S
C411 H393 0.941 . S
C411 C410 1.391 . S
C411 C412 1.396 . S
C412 H396 0.939 . S
C412 C411 1.396 . S
C412 C413 1.397 . S
C413 C412 1.397 . S
C413 C414 1.385 . S
C414 H397 0.940 . S
C414 C413 1.385 . S
C414 C415 1.388 . S
C415 H394 0.939 . S
C415 C410 1.391 . S
C415 C414 1.388 . S
P416 O427 1.490 . S
P416 C430 1.812 . S
P416 C436 1.803 . S
P416 C442 1.819 . S
H417 C431 0.941 . S
H418 C432 0.939 . S
H419 C434 0.940 . S
H420 C435 0.940 . S
H421 C437 0.939 . S
H422 C438 0.942 . S
H423 C440 0.940 . S
H424 C441 0.939 . S
H425 C443 0.941 . S
H426 C447 0.939 . S
O427 P416 1.490 . S
H428 C444 0.939 . S
H429 C446 0.940 . S
C430 P416 1.812 . S
C430 C431 1.389 . S
C430 C435 1.391 . S
C431 H417 0.941 . S
C431 C430 1.389 . S
C431 C432 1.397 . S
C432 H418 0.939 . S
C432 C431 1.397 . S
C432 C433 1.378 . S
C433 C432 1.378 . S
C433 C434 1.378 . S
C434 H419 0.940 . S
C434 C433 1.378 . S
C434 C435 1.396 . S
C435 H420 0.940 . S
C435 C430 1.391 . S
C435 C434 1.396 . S
C436 P416 1.803 . S
C436 C437 1.378 . S
C436 C441 1.400 . S
C437 H421 0.939 . S
C437 C436 1.378 . S
C437 C438 1.361 . S
C438 H422 0.942 . S
C438 C437 1.361 . S
C438 C439 1.369 1_556 S
C439 C438 1.369 1_554 S
C439 C440 1.404 . S
C440 H423 0.940 . S
C440 C439 1.404 . S
C440 C441 1.389 1_554 S
C441 H424 0.939 . S
C441 C436 1.400 . S
C441 C440 1.389 1_556 S
C442 P416 1.819 . S
C442 C443 1.391 . S
C442 C447 1.391 . S
C443 H425 0.941 . S
C443 C442 1.391 . S
C443 C444 1.396 . S
C444 H428 0.939 . S
C444 C443 1.396 . S
C444 C445 1.397 . S
C445 C444 1.397 . S
C445 C446 1.385 . S
C446 H429 0.940 . S
C446 C445 1.385 . S
C446 C447 1.388 . S
C447 H426 0.939 . S
C447 C442 1.391 . S
C447 C446 1.388 . S
P448 O459 1.490 . S
P448 C462 1.812 . S
P448 C468 1.803 . S
P448 C474 1.819 . S
H449 C463 0.941 . S
H450 C464 0.939 . S
H451 C466 0.940 . S
H452 C467 0.940 . S
H453 C469 0.939 . S
H454 C470 0.942 . S
H455 C472 0.940 . S
H456 C473 0.939 . S
H457 C475 0.941 . S
H458 C479 0.939 . S
O459 P448 1.490 . S
H460 C476 0.939 . S
H461 C478 0.940 . S
C462 P448 1.812 . S
C462 C463 1.389 . S
C462 C467 1.391 . S
C463 H449 0.941 . S
C463 C462 1.389 . S
C463 C464 1.397 . S
C464 H450 0.939 . S
C464 C463 1.397 . S
C464 C465 1.378 . S
C465 C464 1.378 . S
C465 C466 1.378 . S
C466 H451 0.940 . S
C466 C465 1.378 . S
C466 C467 1.396 . S
C467 H452 0.940 . S
C467 C462 1.391 . S
C467 C466 1.396 . S
C468 P448 1.803 . S
C468 C469 1.378 . S
C468 C473 1.400 . S
C469 H453 0.939 . S
C469 C468 1.378 . S
C469 C470 1.361 . S
C470 H454 0.942 . S
C470 C469 1.361 . S
C470 C471 1.369 . S
C471 C470 1.369 . S
C471 C472 1.404 . S
C472 H455 0.940 . S
C472 C471 1.404 . S
C472 C473 1.389 . S
C473 H456 0.939 . S
C473 C468 1.400 . S
C473 C472 1.389 . S
C474 P448 1.819 . S
C474 C475 1.391 . S
C474 C479 1.391 . S
C475 H457 0.941 . S
C475 C474 1.391 . S
C475 C476 1.396 . S
C476 H460 0.939 . S
C476 C475 1.396 . S
C476 C477 1.397 . S
C477 C476 1.397 . S
C477 C478 1.385 . S
C478 H461 0.940 . S
C478 C477 1.385 . S
C478 C479 1.388 . S
C479 H458 0.939 . S
C479 C474 1.391 . S
C479 C478 1.388 . S
P480 O491 1.490 . S
P480 C494 1.812 . S
P480 C500 1.803 . S
P480 C506 1.819 . S
H481 C495 0.941 . S
H482 C496 0.939 . S
H483 C498 0.940 . S
H484 C499 0.940 . S
H485 C501 0.939 . S
H486 C502 0.942 . S
H487 C504 0.940 . S
H488 C505 0.939 . S
H489 C507 0.941 1_565 S
H490 C511 0.939 . S
O491 P480 1.490 . S
H492 C508 0.939 . S
H493 C510 0.940 . S
C494 P480 1.812 . S
C494 C495 1.389 . S
C494 C499 1.391 . S
C495 H481 0.941 . S
C495 C494 1.389 . S
C495 C496 1.397 . S
C496 H482 0.939 . S
C496 C495 1.397 . S
C496 C497 1.378 . S
C497 C496 1.378 . S
C497 C498 1.378 . S
C498 H483 0.940 . S
C498 C497 1.378 . S
C498 C499 1.396 . S
C499 H484 0.940 . S
C499 C494 1.391 . S
C499 C498 1.396 . S
C500 P480 1.803 . S
C500 C501 1.378 1_556 S
C500 C505 1.400 . S
C501 H485 0.939 . S
C501 C500 1.378 1_554 S
C501 C502 1.361 . S
C502 H486 0.942 . S
C502 C501 1.361 . S
C502 C503 1.369 . S
C503 C502 1.369 . S
C503 C504 1.404 1_554 S
C504 H487 0.940 . S
C504 C503 1.404 1_556 S
C504 C505 1.389 . S
C505 H488 0.939 . S
C505 C500 1.400 . S
C505 C504 1.389 . S
C506 P480 1.819 . S
C506 C507 1.391 . S
C506 C511 1.391 . S
C507 H489 0.941 1_545 S
C507 C506 1.391 . S
C507 C508 1.396 1_545 S
C508 H492 0.939 . S
C508 C507 1.396 1_565 S
C508 C509 1.397 1_565 S
C509 C508 1.397 1_545 S
C509 C510 1.385 . S
C510 H493 0.940 . S
C510 C509 1.385 . S
C510 C511 1.388 . S
C511 H490 0.939 . S
C511 C506 1.391 . S
C511 C510 1.388 . S
Li512 N529 1.990 . S
Li512 O572 1.956 . S
Li512 O573 1.970 1_556 S
Li512 O574 1.961 . S
Li513 N537 1.990 . S
Li513 O572 1.970 1_554 S
Li513 O573 1.956 . S
Li513 O575 1.961 . S
Li514 N559 1.990 . S
Li514 O572 1.961 . S
Li514 O574 1.956 . S
Li514 O575 1.970 1_556 S
Li515 N565 1.990 . S
Li515 O573 1.961 . S
Li515 O574 1.970 1_554 S
Li515 O575 1.956 . S
C516 C518 1.348 1_556 S
C516 C519 1.356 . S
C516 O572 1.325 . S
N517 C520 1.314 1_556 S
N517 C521 1.279 . S
C518 C516 1.348 1_554 S
C518 C520 1.353 . S
C518 H576 0.929 . S
C519 C516 1.356 . S
C519 C521 1.358 . S
C519 H577 0.930 . S
C520 N517 1.314 1_554 S
C520 C518 1.353 . S
C520 H578 0.930 . S
C521 N517 1.279 . S
C521 C519 1.358 . S
C521 H579 0.930 . S
C522 C525 1.348 . S
C522 C526 1.356 . S
C522 O573 1.325 . S
C523 N524 1.279 . S
C523 C526 1.358 . S
C523 H580 0.930 . S
N524 C523 1.279 . S
N524 C527 1.314 . S
C525 C522 1.348 . S
C525 C527 1.353 . S
C525 H581 0.929 . S
C526 C522 1.356 . S
C526 C523 1.358 . S
C526 H582 0.930 . S
C527 N524 1.314 . S
C527 C525 1.353 . S
C527 H583 0.930 . S
C528 N529 1.314 . S
C528 C533 1.353 . S
C528 H534 0.930 . S
N529 Li512 1.990 . S
N529 C528 1.314 . S
N529 C531 1.279 . S
C530 C531 1.358 . S
C530 C532 1.356 . S
C530 H584 0.930 . S
C531 N529 1.279 . S
C531 C530 1.358 . S
C531 H535 0.930 . S
C532 C530 1.356 . S
C532 C533 1.348 . S
C533 C528 1.353 . S
C533 C532 1.348 . S
C533 H585 0.929 . S
H534 C528 0.930 . S
H535 C531 0.930 . S
C536 N537 1.314 . S
C536 C538 1.353 . S
C536 H542 0.930 . S
N537 Li513 1.990 . S
N537 C536 1.314 . S
N537 C540 1.279 . S
C538 C536 1.353 . S
C538 C541 1.348 . S
C538 H586 0.929 . S
C539 C540 1.358 . S
C539 C541 1.356 . S
C539 H587 0.930 . S
C540 N537 1.279 . S
C540 C539 1.358 . S
C540 H543 0.930 . S
C541 C538 1.348 . S
C541 C539 1.356 . S
H542 C536 0.930 . S
H543 C540 0.930 . S
C544 C546 1.348 . S
C544 C547 1.356 . S
C544 O574 1.325 . S
N545 C548 1.314 . S
N545 C549 1.279 . S
C546 C544 1.348 . S
C546 C548 1.353 . S
C546 H588 0.929 . S
C547 C544 1.356 . S
C547 C549 1.358 . S
C547 H589 0.930 . S
C548 N545 1.314 . S
C548 C546 1.353 . S
C548 H590 0.930 . S
C549 N545 1.279 . S
C549 C547 1.358 . S
C549 H591 0.930 . S
C550 C551 1.348 1_554 S
C550 C552 1.356 . S
C550 O575 1.325 . S
C551 C550 1.348 1_556 S
C551 C553 1.353 . S
C551 H592 0.929 . S
C552 C550 1.356 . S
C552 C554 1.358 . S
C552 H593 0.930 . S
C553 C551 1.353 . S
C553 N555 1.314 1_556 S
C553 H594 0.930 . S
C554 C552 1.358 . S
C554 N555 1.279 . S
C554 H595 0.930 . S
N555 C553 1.314 1_554 S
N555 C554 1.279 . S
C556 C558 1.353 . S
C556 N559 1.314 . S
C556 H562 0.930 . S
C557 N559 1.279 . S
C557 C560 1.358 . S
C557 H563 0.930 . S
C558 C556 1.353 . S
C558 C561 1.348 . S
C558 H596 0.929 . S
N559 Li514 1.990 . S
N559 C556 1.314 . S
N559 C557 1.279 . S
C560 C557 1.358 . S
C560 C561 1.356 . S
C560 H597 0.930 . S
C561 C558 1.348 . S
C561 C560 1.356 . S
H562 C556 0.930 . S
H563 C557 0.930 . S
C564 N565 1.314 . S
C564 C566 1.353 . S
C564 H570 0.930 . S
N565 Li515 1.990 . S
N565 C564 1.314 . S
N565 C568 1.279 . S
C566 C564 1.353 . S
C566 C569 1.348 . S
C566 H598 0.929 . S
C567 C568 1.358 . S
C567 C569 1.356 . S
C567 H599 0.930 . S
C568 N565 1.279 . S
C568 C567 1.358 . S
C568 H571 0.930 . S
C569 C566 1.348 . S
C569 C567 1.356 . S
H570 C564 0.930 . S
H571 C568 0.930 . S
O572 Li512 1.956 . S
O572 Li513 1.970 1_556 S
O572 Li514 1.961 . S
O572 C516 1.325 . S
O573 Li512 1.970 1_554 S
O573 Li513 1.956 . S
O573 Li515 1.961 . S
O573 C522 1.325 . S
O574 Li512 1.961 . S
O574 Li514 1.956 . S
O574 Li515 1.970 1_556 S
O574 C544 1.325 . S
O575 Li513 1.961 . S
O575 Li514 1.970 1_554 S
O575 Li515 1.956 . S
O575 C550 1.325 . S
H576 C518 0.929 . S
H577 C519 0.930 . S
H578 C520 0.930 . S
H579 C521 0.930 . S
H580 C523 0.930 . S
H581 C525 0.929 . S
H582 C526 0.930 . S
H583 C527 0.930 . S
H584 C530 0.930 . S
H585 C533 0.929 . S
H586 C538 0.929 . S
H587 C539 0.930 . S
H588 C546 0.929 . S
H589 C547 0.930 . S
H590 C548 0.930 . S
H591 C549 0.930 . S
H592 C551 0.929 . S
H593 C552 0.930 . S
H594 C553 0.930 . S
H595 C554 0.930 . S
H596 C558 0.929 . S
H597 C560 0.930 . S
H598 C566 0.929 . S
H599 C567 0.930 . S
Li600 N617 1.990 . S
Li600 O660 1.956 . S
Li600 O661 1.970 . S
Li600 O662 1.961 . S
Li601 N625 1.990 . S
Li601 O660 1.970 . S
Li601 O661 1.956 . S
Li601 O663 1.961 . S
Li602 N647 1.990 . S
Li602 O660 1.961 . S
Li602 O662 1.956 . S
Li602 O663 1.970 . S
Li603 N653 1.990 . S
Li603 O661 1.961 . S
Li603 O662 1.970 . S
Li603 O663 1.956 . S
C604 C606 1.348 . S
C604 C607 1.356 . S
C604 O660 1.325 . S
N605 C608 1.314 . S
N605 C609 1.279 . S
C606 C604 1.348 . S
C606 C608 1.353 . S
C606 H664 0.929 . S
C607 C604 1.356 . S
C607 C609 1.358 . S
C607 H665 0.930 . S
C608 N605 1.314 . S
C608 C606 1.353 . S
C608 H666 0.930 . S
C609 N605 1.279 . S
C609 C607 1.358 . S
C609 H667 0.930 . S
C610 C613 1.348 . S
C610 C614 1.356 . S
C610 O661 1.325 . S
C611 N612 1.279 . S
C611 C614 1.358 . S
C611 H668 0.930 . S
N612 C611 1.279 . S
N612 C615 1.314 . S
C613 C610 1.348 . S
C613 C615 1.353 . S
C613 H669 0.929 . S
C614 C610 1.356 . S
C614 C611 1.358 . S
C614 H670 0.930 . S
C615 N612 1.314 . S
C615 C613 1.353 . S
C615 H671 0.930 . S
C616 N617 1.314 . S
C616 C621 1.353 . S
C616 H622 0.930 . S
N617 Li600 1.990 . S
N617 C616 1.314 . S
N617 C619 1.279 . S
C618 C619 1.358 . S
C618 C620 1.356 . S
C618 H672 0.930 . S
C619 N617 1.279 . S
C619 C618 1.358 . S
C619 H623 0.930 . S
C620 C618 1.356 . S
C620 C621 1.348 . S
C621 C616 1.353 . S
C621 C620 1.348 . S
C621 H673 0.929 . S
H622 C616 0.930 . S
H623 C619 0.930 . S
C624 N625 1.314 . S
C624 C626 1.353 . S
C624 H630 0.930 . S
N625 Li601 1.990 . S
N625 C624 1.314 . S
N625 C628 1.279 . S
C626 C624 1.353 . S
C626 C629 1.348 . S
C626 H674 0.929 . S
C627 C628 1.358 . S
C627 C629 1.356 . S
C627 H675 0.930 . S
C628 N625 1.279 . S
C628 C627 1.358 . S
C628 H631 0.930 . S
C629 C626 1.348 . S
C629 C627 1.356 . S
H630 C624 0.930 . S
H631 C628 0.930 . S
C632 C634 1.348 . S
C632 C635 1.356 . S
C632 O662 1.325 . S
N633 C636 1.314 . S
N633 C637 1.279 . S
C634 C632 1.348 . S
C634 C636 1.353 . S
C634 H676 0.929 . S
C635 C632 1.356 . S
C635 C637 1.358 . S
C635 H677 0.930 . S
C636 N633 1.314 . S
C636 C634 1.353 . S
C636 H678 0.930 . S
C637 N633 1.279 . S
C637 C635 1.358 . S
C637 H679 0.930 . S
C638 C639 1.348 . S
C638 C640 1.356 . S
C638 O663 1.325 . S
C639 C638 1.348 . S
C639 C641 1.353 . S
C639 H680 0.929 . S
C640 C638 1.356 . S
C640 C642 1.358 . S
C640 H681 0.930 . S
C641 C639 1.353 . S
C641 N643 1.314 . S
C641 H682 0.930 . S
C642 C640 1.358 . S
C642 N643 1.279 . S
C642 H683 0.930 . S
N643 C641 1.314 . S
N643 C642 1.279 . S
C644 C646 1.353 . S
C644 N647 1.314 . S
C644 H650 0.930 . S
C645 N647 1.279 . S
C645 C648 1.358 . S
C645 H651 0.930 . S
C646 C644 1.353 . S
C646 C649 1.348 . S
C646 H684 0.929 . S
N647 Li602 1.990 . S
N647 C644 1.314 . S
N647 C645 1.279 . S
C648 C645 1.358 . S
C648 C649 1.356 . S
C648 H685 0.930 . S
C649 C646 1.348 . S
C649 C648 1.356 . S
H650 C644 0.930 . S
H651 C645 0.930 . S
C652 N653 1.314 . S
C652 C654 1.353 . S
C652 H658 0.930 . S
N653 Li603 1.990 . S
N653 C652 1.314 . S
N653 C656 1.279 . S
C654 C652 1.353 . S
C654 C657 1.348 . S
C654 H686 0.929 . S
C655 C656 1.358 . S
C655 C657 1.356 . S
C655 H687 0.930 . S
C656 N653 1.279 . S
C656 C655 1.358 . S
C656 H659 0.930 . S
C657 C654 1.348 . S
C657 C655 1.356 . S
H658 C652 0.930 . S
H659 C656 0.930 . S
O660 Li600 1.956 . S
O660 Li601 1.970 . S
O660 Li602 1.961 . S
O660 C604 1.325 . S
O661 Li600 1.970 . S
O661 Li601 1.956 . S
O661 Li603 1.961 . S
O661 C610 1.325 . S
O662 Li600 1.961 . S
O662 Li602 1.956 . S
O662 Li603 1.970 . S
O662 C632 1.325 . S
O663 Li601 1.961 . S
O663 Li602 1.970 . S
O663 Li603 1.956 . S
O663 C638 1.325 . S
H664 C606 0.929 . S
H665 C607 0.930 . S
H666 C608 0.930 . S
H667 C609 0.930 . S
H668 C611 0.930 . S
H669 C613 0.929 . S
H670 C614 0.930 . S
H671 C615 0.930 . S
H672 C618 0.930 . S
H673 C621 0.929 . S
H674 C626 0.929 . S
H675 C627 0.930 . S
H676 C634 0.929 . S
H677 C635 0.930 . S
H678 C636 0.930 . S
H679 C637 0.930 . S
H680 C639 0.929 . S
H681 C640 0.930 . S
H682 C641 0.930 . S
H683 C642 0.930 . S
H684 C646 0.929 . S
H685 C648 0.930 . S
H686 C654 0.929 . S
H687 C655 0.930 . S
Li688 N705 2.003 . S
Li688 O748 1.956 . S
Li688 O749 1.910 1_556 S
Li688 O750 2.007 . S
Li689 N713 1.990 . S
Li689 O748 1.928 1_554 S
Li689 O749 1.956 . S
Li689 O751 1.961 . S
Li690 N735 1.990 . S
Li690 O748 1.995 . S
Li690 O750 1.956 . S
Li690 O751 1.970 1_556 S
Li691 N741 1.990 . S
Li691 O749 1.961 . S
Li691 O750 1.970 1_554 S
Li691 O751 1.956 . S
C692 C694 1.348 1_556 S
C692 C695 1.356 . S
C692 O748 1.333 . S
N693 C696 1.314 1_556 S
N693 C697 1.279 . S
C694 C692 1.348 1_554 S
C694 C696 1.353 . S
C694 H752 0.929 . S
C695 C692 1.356 . S
C695 C697 1.358 . S
C695 H753 0.930 . S
C696 N693 1.314 1_554 S
C696 C694 1.353 . S
C696 H754 0.930 . S
C697 N693 1.279 . S
C697 C695 1.358 . S
C697 H755 0.930 . S
C698 C701 1.348 . S
C698 C702 1.356 . S
C698 O749 1.325 . S
C699 N700 1.279 . S
C699 C702 1.358 . S
C699 H756 0.930 . S
N700 C699 1.279 . S
N700 C703 1.314 . S
C701 C698 1.348 . S
C701 C703 1.353 . S
C701 H757 0.929 . S
C702 C698 1.356 . S
C702 C699 1.358 . S
C702 H758 0.930 . S
C703 N700 1.314 . S
C703 C701 1.353 . S
C703 H759 0.930 . S
C704 N705 1.314 . S
C704 C709 1.353 . S
C704 H710 0.930 . S
N705 Li688 2.003 . S
N705 C704 1.314 . S
N705 C707 1.279 . S
C706 C707 1.358 . S
C706 C708 1.356 . S
C706 H760 0.930 . S
C707 N705 1.279 . S
C707 C706 1.358 . S
C707 H711 0.938 . S
C708 C706 1.356 . S
C708 C709 1.348 . S
C709 C704 1.353 . S
C709 C708 1.348 . S
C709 H761 0.929 . S
H710 C704 0.930 . S
H711 C707 0.938 . S
C712 N713 1.314 . S
C712 C714 1.353 . S
C712 H718 0.930 . S
N713 Li689 1.990 . S
N713 C712 1.314 . S
N713 C716 1.279 . S
C714 C712 1.353 . S
C714 C717 1.348 . S
C714 H762 0.929 . S
C715 C716 1.358 . S
C715 C717 1.356 . S
C715 H763 0.930 . S
C716 N713 1.279 . S
C716 C715 1.358 . S
C716 H719 0.930 . S
C717 C714 1.348 . S
C717 C715 1.356 . S
H718 C712 0.930 . S
H719 C716 0.930 . S
C720 C722 1.348 . S
C720 C723 1.356 . S
C720 O750 1.325 . S
N721 C724 1.314 . S
N721 C725 1.279 . S
C722 C720 1.348 . S
C722 C724 1.353 . S
C722 H764 0.929 . S
C723 C720 1.356 . S
C723 C725 1.358 . S
C723 H765 0.930 . S
C724 N721 1.314 . S
C724 C722 1.353 . S
C724 H766 0.930 . S
C725 N721 1.279 . S
C725 C723 1.358 . S
C725 H767 0.930 . S
C726 C727 1.348 1_554 S
C726 C728 1.356 . S
C726 O751 1.325 . S
C727 C726 1.348 1_556 S
C727 C729 1.353 . S
C727 H768 0.929 . S
C728 C726 1.356 . S
C728 C730 1.358 . S
C728 H769 0.930 . S
C729 C727 1.353 . S
C729 N731 1.314 1_556 S
C729 H770 0.930 . S
C730 C728 1.358 . S
C730 N731 1.279 . S
C730 H771 0.930 . S
N731 C729 1.314 1_554 S
N731 C730 1.279 . S
C732 C734 1.353 . S
C732 N735 1.314 . S
C732 H738 0.930 . S
C733 N735 1.279 . S
C733 C736 1.358 . S
C733 H739 0.930 . S
C734 C732 1.353 . S
C734 C737 1.348 . S
C734 H772 0.929 . S
N735 Li690 1.990 . S
N735 C732 1.314 . S
N735 C733 1.279 . S
C736 C733 1.358 . S
C736 C737 1.356 . S
C736 H773 0.930 . S
C737 C734 1.348 . S
C737 C736 1.356 . S
H738 C732 0.930 . S
H739 C733 0.930 . S
C740 N741 1.314 . S
C740 C742 1.353 . S
C740 H746 0.930 . S
N741 Li691 1.990 . S
N741 C740 1.314 . S
N741 C744 1.279 . S
C742 C740 1.353 . S
C742 C745 1.348 . S
C742 H774 0.929 . S
C743 C744 1.358 . S
C743 C745 1.356 . S
C743 H775 0.930 . S
C744 N741 1.279 . S
C744 C743 1.358 . S
C744 H747 0.930 . S
C745 C742 1.348 . S
C745 C743 1.356 . S
H746 C740 0.930 . S
H747 C744 0.930 . S
O748 Li688 1.956 . S
O748 Li689 1.928 1_556 S
O748 Li690 1.995 . S
O748 C692 1.333 . S
O749 Li688 1.910 1_554 S
O749 Li689 1.956 . S
O749 Li691 1.961 . S
O749 C698 1.325 . S
O750 Li688 2.007 . S
O750 Li690 1.956 . S
O750 Li691 1.970 1_556 S
O750 C720 1.325 . S
O751 Li689 1.961 . S
O751 Li690 1.970 1_554 S
O751 Li691 1.956 . S
O751 C726 1.325 . S
H752 C694 0.929 . S
H753 C695 0.930 . S
H754 C696 0.930 . S
H755 C697 0.930 . S
H756 C699 0.930 . S
H757 C701 0.929 . S
H758 C702 0.930 . S
H759 C703 0.930 . S
H760 C706 0.930 . S
H761 C709 0.929 . S
H762 C714 0.929 . S
H763 C715 0.930 . S
H764 C722 0.929 . S
H765 C723 0.930 . S
H766 C724 0.930 . S
H767 C725 0.930 . S
H768 C727 0.929 . S
H769 C728 0.930 . S
H770 C729 0.930 . S
H771 C730 0.930 . S
H772 C734 0.929 . S
H773 C736 0.930 . S
H774 C742 0.929 . S
H775 C743 0.930 . S
Li776 N793 1.990 . S
Li776 O836 1.956 . S
Li776 O837 1.988 . S
Li776 O838 1.961 . S
Li777 N801 1.989 1_545 S
Li777 O836 1.978 . S
Li777 O837 1.956 . S
Li777 O839 1.955 1_545 S
Li778 N823 1.990 . S
Li778 O836 1.961 . S
Li778 O838 1.956 . S
Li778 O839 1.970 1_545 S
Li779 N829 1.990 . S
Li779 O837 1.948 1_565 S
Li779 O838 1.970 1_565 S
Li779 O839 1.956 . S
C780 C782 1.348 . S
C780 C783 1.356 . S
C780 O836 1.325 . S
N781 C784 1.314 . S
N781 C785 1.279 . S
C782 C780 1.348 . S
C782 C784 1.353 . S
C782 H840 0.929 . S
C783 C780 1.356 . S
C783 C785 1.358 . S
C783 H841 0.930 . S
C784 N781 1.314 . S
C784 C782 1.353 . S
C784 H842 0.930 . S
C785 N781 1.279 . S
C785 C783 1.358 . S
C785 H843 0.930 . S
C786 C789 1.348 1_565 S
C786 C790 1.356 . S
C786 O837 1.322 1_565 S
C787 N788 1.279 . S
C787 C790 1.358 . S
C787 H844 0.930 . S
N788 C787 1.279 . S
N788 C791 1.314 1_565 S
C789 C786 1.348 1_545 S
C789 C791 1.353 . S
C789 H845 0.929 . S
C790 C786 1.356 . S
C790 C787 1.358 . S
C790 H846 0.930 . S
C791 N788 1.314 1_545 S
C791 C789 1.353 . S
C791 H847 0.930 . S
C792 N793 1.314 . S
C792 C797 1.353 . S
C792 H798 0.930 . S
N793 Li776 1.990 . S
N793 C792 1.314 . S
N793 C795 1.279 . S
C794 C795 1.358 . S
C794 C796 1.356 . S
C794 H848 0.930 . S
C795 N793 1.279 . S
C795 C794 1.358 . S
C795 H799 0.930 . S
C796 C794 1.356 . S
C796 C797 1.348 . S
C797 C792 1.353 . S
C797 C796 1.348 . S
C797 H849 0.929 . S
H798 C792 0.930 . S
H799 C795 0.930 . S
C800 N801 1.314 . S
C800 C802 1.353 . S
C800 H806 0.930 . S
N801 Li777 1.989 1_565 S
N801 C800 1.314 . S
N801 C804 1.279 . S
C802 C800 1.353 . S
C802 C805 1.348 . S
C802 H850 0.929 . S
C803 C804 1.358 . S
C803 C805 1.356 . S
C803 H851 0.930 . S
C804 N801 1.279 . S
C804 C803 1.358 . S
C804 H807 0.931 1_565 S
C805 C802 1.348 . S
C805 C803 1.356 . S
H806 C800 0.930 . S
H807 C804 0.931 1_545 S
C808 C810 1.348 1_545 S
C808 C811 1.356 . S
C808 O838 1.325 . S
N809 C812 1.314 1_545 S
N809 C813 1.279 . S
C810 C808 1.348 1_565 S
C810 C812 1.353 . S
C810 H852 0.929 . S
C811 C808 1.356 . S
C811 C813 1.358 . S
C811 H853 0.930 . S
C812 N809 1.314 1_565 S
C812 C810 1.353 . S
C812 H854 0.930 . S
C813 N809 1.279 . S
C813 C811 1.358 . S
C813 H855 0.930 . S
C814 C815 1.348 . S
C814 C816 1.356 . S
C814 O839 1.325 . S
C815 C814 1.348 . S
C815 C817 1.353 . S
C815 H856 0.929 . S
C816 C814 1.356 . S
C816 C818 1.358 . S
C816 H857 0.930 . S
C817 C815 1.353 . S
C817 N819 1.314 . S
C817 H858 0.930 . S
C818 C816 1.358 . S
C818 N819 1.279 . S
C818 H859 0.930 . S
N819 C817 1.314 . S
N819 C818 1.279 . S
C820 C822 1.353 . S
C820 N823 1.314 . S
C820 H826 0.930 . S
C821 N823 1.279 . S
C821 C824 1.358 . S
C821 H827 0.930 . S
C822 C820 1.353 . S
C822 C825 1.348 . S
C822 H860 0.929 . S
N823 Li778 1.990 . S
N823 C820 1.314 . S
N823 C821 1.279 . S
C824 C821 1.358 . S
C824 C825 1.356 . S
C824 H861 0.930 . S
C825 C822 1.348 . S
C825 C824 1.356 . S
H826 C820 0.930 . S
H827 C821 0.930 . S
C828 N829 1.314 . S
C828 C830 1.353 . S
C828 H834 0.930 . S
N829 Li779 1.990 . S
N829 C828 1.314 . S
N829 C832 1.279 . S
C830 C828 1.353 . S
C830 C833 1.348 . S
C830 H862 0.929 . S
C831 C832 1.358 . S
C831 C833 1.356 . S
C831 H863 0.930 . S
C832 N829 1.279 . S
C832 C831 1.358 . S
C832 H835 0.930 . S
C833 C830 1.348 . S
C833 C831 1.356 . S
H834 C828 0.930 . S
H835 C832 0.930 . S
O836 Li776 1.956 . S
O836 Li777 1.978 . S
O836 Li778 1.961 . S
O836 C780 1.325 . S
O837 Li776 1.988 . S
O837 Li777 1.956 . S
O837 Li779 1.948 1_545 S
O837 C786 1.322 1_545 S
O838 Li776 1.961 . S
O838 Li778 1.956 . S
O838 Li779 1.970 1_545 S
O838 C808 1.325 . S
O839 Li777 1.955 1_565 S
O839 Li778 1.970 1_565 S
O839 Li779 1.956 . S
O839 C814 1.325 . S
H840 C782 0.929 . S
H841 C783 0.930 . S
H842 C784 0.930 . S
H843 C785 0.930 . S
H844 C787 0.930 . S
H845 C789 0.929 . S
H846 C790 0.930 . S
H847 C791 0.930 . S
H848 C794 0.930 . S
H849 C797 0.929 . S
H850 C802 0.929 . S
H851 C803 0.930 . S
H852 C810 0.929 . S
H853 C811 0.930 . S
H854 C812 0.930 . S
H855 C813 0.930 . S
H856 C815 0.929 . S
H857 C816 0.930 . S
H858 C817 0.930 . S
H859 C818 0.930 . S
H860 C822 0.929 . S
H861 C824 0.930 . S
H862 C830 0.929 . S
H863 C831 0.930 . S
Li864 N881 1.990 . S
Li864 O924 1.956 . S
Li864 O925 1.970 . S
Li864 O926 1.961 . S
Li865 N889 1.990 . S
Li865 O924 1.970 . S
Li865 O925 1.956 . S
Li865 O927 1.961 . S
Li866 N911 1.990 . S
Li866 O924 1.961 . S
Li866 O926 1.956 . S
Li866 O927 1.970 . S
Li867 N917 1.990 . S
Li867 O925 1.961 . S
Li867 O926 1.970 . S
Li867 O927 1.956 . S
C868 C870 1.348 . S
C868 C871 1.356 . S
C868 O924 1.325 . S
N869 C872 1.314 . S
N869 C873 1.279 . S
C870 C868 1.348 . S
C870 C872 1.353 . S
C870 H928 0.929 . S
C871 C868 1.356 . S
C871 C873 1.358 . S
C871 H929 0.930 . S
C872 N869 1.314 . S
C872 C870 1.353 . S
C872 H930 0.930 . S
C873 N869 1.279 . S
C873 C871 1.358 . S
C873 H931 0.930 . S
C874 C877 1.348 . S
C874 C878 1.356 . S
C874 O925 1.325 . S
C875 N876 1.279 . S
C875 C878 1.358 . S
C875 H932 0.930 . S
N876 C875 1.279 . S
N876 C879 1.314 . S
C877 C874 1.348 . S
C877 C879 1.353 . S
C877 H933 0.929 . S
C878 C874 1.356 . S
C878 C875 1.358 . S
C878 H934 0.930 . S
C879 N876 1.314 . S
C879 C877 1.353 . S
C879 H935 0.930 . S
C880 N881 1.314 . S
C880 C885 1.353 . S
C880 H886 0.930 . S
N881 Li864 1.990 . S
N881 C880 1.314 . S
N881 C883 1.279 . S
C882 C883 1.358 . S
C882 C884 1.356 . S
C882 H936 0.930 . S
C883 N881 1.279 . S
C883 C882 1.358 . S
C883 H887 0.930 . S
C884 C882 1.356 . S
C884 C885 1.348 . S
C885 C880 1.353 . S
C885 C884 1.348 . S
C885 H937 0.929 . S
H886 C880 0.930 . S
H887 C883 0.930 . S
C888 N889 1.314 . S
C888 C890 1.353 . S
C888 H894 0.930 . S
N889 Li865 1.990 . S
N889 C888 1.314 . S
N889 C892 1.279 . S
C890 C888 1.353 . S
C890 C893 1.348 . S
C890 H938 0.929 . S
C891 C892 1.358 . S
C891 C893 1.356 . S
C891 H939 0.930 . S
C892 N889 1.279 . S
C892 C891 1.358 . S
C892 H895 0.930 . S
C893 C890 1.348 . S
C893 C891 1.356 . S
H894 C888 0.930 . S
H895 C892 0.930 . S
C896 C898 1.348 . S
C896 C899 1.356 . S
C896 O926 1.325 . S
N897 C900 1.314 . S
N897 C901 1.279 . S
C898 C896 1.348 . S
C898 C900 1.353 . S
C898 H940 0.929 . S
C899 C896 1.356 . S
C899 C901 1.358 . S
C899 H941 0.930 . S
C900 N897 1.314 . S
C900 C898 1.353 . S
C900 H942 0.930 . S
C901 N897 1.279 . S
C901 C899 1.358 . S
C901 H943 0.930 . S
C902 C903 1.348 . S
C902 C904 1.356 . S
C902 O927 1.325 . S
C903 C902 1.348 . S
C903 C905 1.353 . S
C903 H944 0.929 . S
C904 C902 1.356 . S
C904 C906 1.358 . S
C904 H945 0.930 . S
C905 C903 1.353 . S
C905 N907 1.314 . S
C905 H946 0.930 . S
C906 C904 1.358 . S
C906 N907 1.279 . S
C906 H947 0.930 . S
N907 C905 1.314 . S
N907 C906 1.279 . S
C908 C910 1.353 . S
C908 N911 1.314 . S
C908 H914 0.930 . S
C909 N911 1.279 . S
C909 C912 1.358 . S
C909 H915 0.930 . S
C910 C908 1.353 . S
C910 C913 1.348 . S
C910 H948 0.929 . S
N911 Li866 1.990 . S
N911 C908 1.314 . S
N911 C909 1.279 . S
C912 C909 1.358 . S
C912 C913 1.356 . S
C912 H949 0.930 . S
C913 C910 1.348 . S
C913 C912 1.356 . S
H914 C908 0.930 . S
H915 C909 0.930 . S
C916 N917 1.314 . S
C916 C918 1.353 . S
C916 H922 0.930 . S
N917 Li867 1.990 . S
N917 C916 1.314 . S
N917 C920 1.279 . S
C918 C916 1.353 . S
C918 C921 1.348 . S
C918 H950 0.929 . S
C919 C920 1.358 . S
C919 C921 1.356 . S
C919 H951 0.930 . S
C920 N917 1.279 . S
C920 C919 1.358 . S
C920 H923 0.930 . S
C921 C918 1.348 . S
C921 C919 1.356 . S
H922 C916 0.930 . S
H923 C920 0.930 . S
O924 Li864 1.956 . S
O924 Li865 1.970 . S
O924 Li866 1.961 . S
O924 C868 1.325 . S
O925 Li864 1.970 . S
O925 Li865 1.956 . S
O925 Li867 1.961 . S
O925 C874 1.325 . S
O926 Li864 1.961 . S
O926 Li866 1.956 . S
O926 Li867 1.970 . S
O926 C896 1.325 . S
O927 Li865 1.961 . S
O927 Li866 1.970 . S
O927 Li867 1.956 . S
O927 C902 1.325 . S
H928 C870 0.929 . S
H929 C871 0.930 . S
H930 C872 0.930 . S
H931 C873 0.930 . S
H932 C875 0.930 . S
H933 C877 0.929 . S
H934 C878 0.930 . S
H935 C879 0.930 . S
H936 C882 0.930 . S
H937 C885 0.929 . S
H938 C890 0.929 . S
H939 C891 0.930 . S
H940 C898 0.929 . S
H941 C899 0.930 . S
H942 C900 0.930 . S
H943 C901 0.930 . S
H944 C903 0.929 . S
H945 C904 0.930 . S
H946 C905 0.930 . S
H947 C906 0.930 . S
H948 C910 0.929 . S
H949 C912 0.930 . S
H950 C918 0.929 . S
H951 C919 0.930 . S
Li952 N969 1.990 . S
Li952 O1012 1.956 . S
Li952 O1013 1.970 . S
Li952 O1014 1.961 . S
Li953 N977 1.990 . S
Li953 O1012 1.970 . S
Li953 O1013 1.956 . S
Li953 O1015 1.961 . S
Li954 N999 1.990 . S
Li954 O1012 1.961 . S
Li954 O1014 1.956 . S
Li954 O1015 1.970 . S
Li955 N1005 1.990 . S
Li955 O1013 1.961 . S
Li955 O1014 1.970 . S
Li955 O1015 1.956 . S
C956 C958 1.348 . S
C956 C959 1.356 . S
C956 O1012 1.325 . S
N957 C960 1.314 . S
N957 C961 1.279 . S
C958 C956 1.348 . S
C958 C960 1.353 . S
C958 H1016 0.929 . S
C959 C956 1.356 . S
C959 C961 1.358 . S
C959 H1017 0.930 . S
C960 N957 1.314 . S
C960 C958 1.353 . S
C960 H1018 0.930 . S
C961 N957 1.279 . S
C961 C959 1.358 . S
C961 H1019 0.930 . S
C962 C965 1.348 . S
C962 C966 1.356 . S
C962 O1013 1.325 . S
C963 N964 1.279 . S
C963 C966 1.358 . S
C963 H1020 0.930 . S
N964 C963 1.279 . S
N964 C967 1.314 . S
C965 C962 1.348 . S
C965 C967 1.353 . S
C965 H1021 0.929 . S
C966 C962 1.356 . S
C966 C963 1.358 . S
C966 H1022 0.930 . S
C967 N964 1.314 . S
C967 C965 1.353 . S
C967 H1023 0.930 . S
C968 N969 1.314 . S
C968 C973 1.353 . S
C968 H974 0.930 . S
N969 Li952 1.990 . S
N969 C968 1.314 . S
N969 C971 1.279 . S
C970 C971 1.358 . S
C970 C972 1.356 . S
C970 H1024 0.930 . S
C971 N969 1.279 . S
C971 C970 1.358 . S
C971 H975 0.930 . S
C972 C970 1.356 . S
C972 C973 1.348 . S
C973 C968 1.353 . S
C973 C972 1.348 . S
C973 H1025 0.929 . S
H974 C968 0.930 . S
H975 C971 0.930 . S
C976 N977 1.314 . S
C976 C978 1.353 . S
C976 H982 0.930 . S
N977 Li953 1.990 . S
N977 C976 1.314 . S
N977 C980 1.279 . S
C978 C976 1.353 . S
C978 C981 1.348 . S
C978 H1026 0.929 . S
C979 C980 1.358 . S
C979 C981 1.356 . S
C979 H1027 0.930 . S
C980 N977 1.279 . S
C980 C979 1.358 . S
C980 H983 0.930 . S
C981 C978 1.348 . S
C981 C979 1.356 . S
H982 C976 0.930 . S
H983 C980 0.930 . S
C984 C986 1.348 . S
C984 C987 1.356 . S
C984 O1014 1.325 . S
N985 C988 1.314 . S
N985 C989 1.279 . S
C986 C984 1.348 . S
C986 C988 1.353 . S
C986 H1028 0.929 . S
C987 C984 1.356 . S
C987 C989 1.358 . S
C987 H1029 0.930 . S
C988 N985 1.314 . S
C988 C986 1.353 . S
C988 H1030 0.930 . S
C989 N985 1.279 . S
C989 C987 1.358 . S
C989 H1031 0.930 . S
C990 C991 1.348 . S
C990 C992 1.356 . S
C990 O1015 1.325 . S
C991 C990 1.348 . S
C991 C993 1.353 . S
C991 H1032 0.929 . S
C992 C990 1.356 . S
C992 C994 1.358 . S
C992 H1033 0.930 . S
C993 C991 1.353 . S
C993 N995 1.314 . S
C993 H1034 0.930 . S
C994 C992 1.358 . S
C994 N995 1.279 . S
C994 H1035 0.930 . S
N995 C993 1.314 . S
N995 C994 1.279 . S
C996 C998 1.353 . S
C996 N999 1.314 . S
C996 H1002 0.930 . S
C997 N999 1.279 . S
C997 C1000 1.358 . S
C997 H1003 0.930 . S
C998 C996 1.353 . S
C998 C1001 1.348 . S
C998 H1036 0.929 . S
N999 Li954 1.990 . S
N999 C996 1.314 . S
N999 C997 1.279 . S
C1000 C997 1.358 . S
C1000 C1001 1.356 . S
C1000 H1037 0.930 . S
C1001 C998 1.348 . S
C1001 C1000 1.356 . S
H1002 C996 0.930 . S
H1003 C997 0.930 . S
C1004 N1005 1.314 . S
C1004 C1006 1.353 . S
C1004 H1010 0.930 . S
N1005 Li955 1.990 . S
N1005 C1004 1.314 . S
N1005 C1008 1.279 . S
C1006 C1004 1.353 . S
C1006 C1009 1.348 . S
C1006 H1038 0.929 . S
C1007 C1008 1.358 . S
C1007 C1009 1.356 . S
C1007 H1039 0.930 . S
C1008 N1005 1.279 . S
C1008 C1007 1.358 . S
C1008 H1011 0.930 . S
C1009 C1006 1.348 . S
C1009 C1007 1.356 . S
H1010 C1004 0.930 . S
H1011 C1008 0.930 . S
O1012 Li952 1.956 . S
O1012 Li953 1.970 . S
O1012 Li954 1.961 . S
O1012 C956 1.325 . S
O1013 Li952 1.970 . S
O1013 Li953 1.956 . S
O1013 Li955 1.961 . S
O1013 C962 1.325 . S
O1014 Li952 1.961 . S
O1014 Li954 1.956 . S
O1014 Li955 1.970 . S
O1014 C984 1.325 . S
O1015 Li953 1.961 . S
O1015 Li954 1.970 . S
O1015 Li955 1.956 . S
O1015 C990 1.325 . S
H1016 C958 0.929 . S
H1017 C959 0.930 . S
H1018 C960 0.930 . S
H1019 C961 0.930 . S
H1020 C963 0.930 . S
H1021 C965 0.929 . S
H1022 C966 0.930 . S
H1023 C967 0.930 . S
H1024 C970 0.930 . S
H1025 C973 0.929 . S
H1026 C978 0.929 . S
H1027 C979 0.930 . S
H1028 C986 0.929 . S
H1029 C987 0.930 . S
H1030 C988 0.930 . S
H1031 C989 0.930 . S
H1032 C991 0.929 . S
H1033 C992 0.930 . S
H1034 C993 0.930 . S
H1035 C994 0.930 . S
H1036 C998 0.929 . S
H1037 C1000 0.930 . S
H1038 C1006 0.929 . S
H1039 C1007 0.930 . S
Li1040 N1057 1.990 . S
Li1040 O1100 1.956 . S
Li1040 O1101 1.970 . S
Li1040 O1102 1.961 . S
Li1041 N1065 1.990 . S
Li1041 O1100 1.970 . S
Li1041 O1101 1.956 . S
Li1041 O1103 1.961 . S
Li1042 N1087 1.990 . S
Li1042 O1100 1.961 . S
Li1042 O1102 1.956 . S
Li1042 O1103 1.970 . S
Li1043 N1093 1.990 . S
Li1043 O1101 1.961 . S
Li1043 O1102 1.970 . S
Li1043 O1103 1.956 . S
C1044 C1046 1.348 . S
C1044 C1047 1.356 . S
C1044 O1100 1.325 . S
N1045 C1048 1.314 . S
N1045 C1049 1.279 . S
C1046 C1044 1.348 . S
C1046 C1048 1.353 . S
C1046 H1104 0.929 . S
C1047 C1044 1.356 . S
C1047 C1049 1.358 . S
C1047 H1105 0.930 . S
C1048 N1045 1.314 . S
C1048 C1046 1.353 . S
C1048 H1106 0.930 . S
C1049 N1045 1.279 . S
C1049 C1047 1.358 . S
C1049 H1107 0.930 . S
C1050 C1053 1.348 . S
C1050 C1054 1.356 . S
C1050 O1101 1.325 . S
C1051 N1052 1.279 . S
C1051 C1054 1.358 . S
C1051 H1108 0.930 . S
N1052 C1051 1.279 . S
N1052 C1055 1.314 . S
C1053 C1050 1.348 . S
C1053 C1055 1.353 . S
C1053 H1109 0.929 . S
C1054 C1050 1.356 . S
C1054 C1051 1.358 . S
C1054 H1110 0.930 . S
C1055 N1052 1.314 . S
C1055 C1053 1.353 . S
C1055 H1111 0.930 . S
C1056 N1057 1.314 . S
C1056 C1061 1.353 . S
C1056 H1062 0.930 . S
N1057 Li1040 1.990 . S
N1057 C1056 1.314 . S
N1057 C1059 1.279 . S
C1058 C1059 1.358 . S
C1058 C1060 1.356 . S
C1058 H1112 0.930 . S
C1059 N1057 1.279 . S
C1059 C1058 1.358 . S
C1059 H1063 0.930 . S
C1060 C1058 1.356 . S
C1060 C1061 1.348 . S
C1061 C1056 1.353 . S
C1061 C1060 1.348 . S
C1061 H1113 0.929 . S
H1062 C1056 0.930 . S
H1063 C1059 0.930 . S
C1064 N1065 1.314 . S
C1064 C1066 1.353 . S
C1064 H1070 0.930 . S
N1065 Li1041 1.990 . S
N1065 C1064 1.314 . S
N1065 C1068 1.279 . S
C1066 C1064 1.353 . S
C1066 C1069 1.348 . S
C1066 H1114 0.929 . S
C1067 C1068 1.358 . S
C1067 C1069 1.356 . S
C1067 H1115 0.930 . S
C1068 N1065 1.279 . S
C1068 C1067 1.358 . S
C1068 H1071 0.930 . S
C1069 C1066 1.348 . S
C1069 C1067 1.356 . S
H1070 C1064 0.930 . S
H1071 C1068 0.930 . S
C1072 C1074 1.348 . S
C1072 C1075 1.356 . S
C1072 O1102 1.325 . S
N1073 C1076 1.314 . S
N1073 C1077 1.279 . S
C1074 C1072 1.348 . S
C1074 C1076 1.353 . S
C1074 H1116 0.929 . S
C1075 C1072 1.356 . S
C1075 C1077 1.358 . S
C1075 H1117 0.930 . S
C1076 N1073 1.314 . S
C1076 C1074 1.353 . S
C1076 H1118 0.930 . S
C1077 N1073 1.279 . S
C1077 C1075 1.358 . S
C1077 H1119 0.930 . S
C1078 C1079 1.348 . S
C1078 C1080 1.356 . S
C1078 O1103 1.325 . S
C1079 C1078 1.348 . S
C1079 C1081 1.353 . S
C1079 H1120 0.929 . S
C1080 C1078 1.356 . S
C1080 C1082 1.358 . S
C1080 H1121 0.930 . S
C1081 C1079 1.353 . S
C1081 N1083 1.314 . S
C1081 H1122 0.930 . S
C1082 C1080 1.358 . S
C1082 N1083 1.279 . S
C1082 H1123 0.930 . S
N1083 C1081 1.314 . S
N1083 C1082 1.279 . S
C1084 C1086 1.353 . S
C1084 N1087 1.314 . S
C1084 H1090 0.930 . S
C1085 N1087 1.279 . S
C1085 C1088 1.358 . S
C1085 H1091 0.930 . S
C1086 C1084 1.353 . S
C1086 C1089 1.348 . S
C1086 H1124 0.929 . S
N1087 Li1042 1.990 . S
N1087 C1084 1.314 . S
N1087 C1085 1.279 . S
C1088 C1085 1.358 . S
C1088 C1089 1.356 . S
C1088 H1125 0.930 . S
C1089 C1086 1.348 . S
C1089 C1088 1.356 . S
H1090 C1084 0.930 . S
H1091 C1085 0.930 . S
C1092 N1093 1.314 . S
C1092 C1094 1.353 . S
C1092 H1098 0.930 . S
N1093 Li1043 1.990 . S
N1093 C1092 1.314 . S
N1093 C1096 1.279 . S
C1094 C1092 1.353 . S
C1094 C1097 1.348 . S
C1094 H1126 0.929 . S
C1095 C1096 1.358 . S
C1095 C1097 1.356 . S
C1095 H1127 0.930 . S
C1096 N1093 1.279 . S
C1096 C1095 1.358 . S
C1096 H1099 0.930 . S
C1097 C1094 1.348 . S
C1097 C1095 1.356 . S
H1098 C1092 0.930 . S
H1099 C1096 0.930 . S
O1100 Li1040 1.956 . S
O1100 Li1041 1.970 . S
O1100 Li1042 1.961 . S
O1100 C1044 1.325 . S
O1101 Li1040 1.970 . S
O1101 Li1041 1.956 . S
O1101 Li1043 1.961 . S
O1101 C1050 1.325 . S
O1102 Li1040 1.961 . S
O1102 Li1042 1.956 . S
O1102 Li1043 1.970 . S
O1102 C1072 1.325 . S
O1103 Li1041 1.961 . S
O1103 Li1042 1.970 . S
O1103 Li1043 1.956 . S
O1103 C1078 1.325 . S
H1104 C1046 0.929 . S
H1105 C1047 0.930 . S
H1106 C1048 0.930 . S
H1107 C1049 0.930 . S
H1108 C1051 0.930 . S
H1109 C1053 0.929 . S
H1110 C1054 0.930 . S
H1111 C1055 0.930 . S
H1112 C1058 0.930 . S
H1113 C1061 0.929 . S
H1114 C1066 0.929 . S
H1115 C1067 0.930 . S
H1116 C1074 0.929 . S
H1117 C1075 0.930 . S
H1118 C1076 0.930 . S
H1119 C1077 0.930 . S
H1120 C1079 0.929 . S
H1121 C1080 0.930 . S
H1122 C1081 0.930 . S
H1123 C1082 0.930 . S
H1124 C1086 0.929 . S
H1125 C1088 0.930 . S
H1126 C1094 0.929 . S
H1127 C1095 0.930 . S
Li1128 N1145 1.990 . S
Li1128 O1188 1.956 . S
Li1128 O1189 1.970 1_565 S
Li1128 O1190 1.960 1_565 S
Li1129 N1153 1.990 . S
Li1129 O1188 1.970 1_545 S
Li1129 O1189 1.956 . S
Li1129 O1191 1.961 . S
Li1130 N1175 1.991 . S
Li1130 O1188 1.966 . S
Li1130 O1190 1.956 1_565 S
Li1130 O1191 1.964 1_565 S
Li1131 N1181 1.990 . S
Li1131 O1189 1.961 . S
Li1131 O1190 1.971 . S
Li1131 O1191 1.956 . S
C1132 C1134 1.348 . S
C1132 C1135 1.356 . S
C1132 O1188 1.325 . S
N1133 C1136 1.314 . S
N1133 C1137 1.279 . S
C1134 C1132 1.348 . S
C1134 C1136 1.353 . S
C1134 H1192 0.929 . S
C1135 C1132 1.356 . S
C1135 C1137 1.358 . S
C1135 H1193 0.930 . S
C1136 N1133 1.314 . S
C1136 C1134 1.353 . S
C1136 H1194 0.930 . S
C1137 N1133 1.279 . S
C1137 C1135 1.358 . S
C1137 H1195 0.930 . S
C1138 C1141 1.348 1_545 S
C1138 C1142 1.356 . S
C1138 O1189 1.325 . S
C1139 N1140 1.279 . S
C1139 C1142 1.358 . S
C1139 H1196 0.930 . S
N1140 C1139 1.279 . S
N1140 C1143 1.314 1_545 S
C1141 C1138 1.348 1_565 S
C1141 C1143 1.353 . S
C1141 H1197 0.929 . S
C1142 C1138 1.356 . S
C1142 C1139 1.358 . S
C1142 H1198 0.930 . S
C1143 N1140 1.314 1_565 S
C1143 C1141 1.353 . S
C1143 H1199 0.930 . S
C1144 N1145 1.314 . S
C1144 C1149 1.353 . S
C1144 H1150 0.930 . S
N1145 Li1128 1.990 . S
N1145 C1144 1.314 . S
N1145 C1147 1.279 . S
C1146 C1147 1.358 . S
C1146 C1148 1.356 . S
C1146 H1200 0.930 . S
C1147 N1145 1.279 . S
C1147 C1146 1.358 . S
C1147 H1151 0.930 . S
C1148 C1146 1.356 . S
C1148 C1149 1.348 . S
C1149 C1144 1.353 . S
C1149 C1148 1.348 . S
C1149 H1201 0.929 . S
H1150 C1144 0.930 . S
H1151 C1147 0.930 . S
C1152 N1153 1.314 . S
C1152 C1154 1.353 . S
C1152 H1158 0.930 . S
N1153 Li1129 1.990 . S
N1153 C1152 1.314 . S
N1153 C1156 1.279 . S
C1154 C1152 1.353 . S
C1154 C1157 1.348 . S
C1154 H1202 0.929 . S
C1155 C1156 1.358 . S
C1155 C1157 1.356 . S
C1155 H1203 0.930 . S
C1156 N1153 1.279 . S
C1156 C1155 1.358 . S
C1156 H1159 0.930 . S
C1157 C1154 1.348 . S
C1157 C1155 1.356 . S
H1158 C1152 0.930 . S
H1159 C1156 0.930 . S
C1160 C1162 1.348 1_565 S
C1160 C1163 1.356 . S
C1160 O1190 1.325 1_565 S
N1161 C1164 1.314 1_565 S
N1161 C1165 1.279 . S
C1162 C1160 1.348 1_545 S
C1162 C1164 1.353 . S
C1162 H1204 0.929 . S
C1163 C1160 1.356 . S
C1163 C1165 1.358 . S
C1163 H1205 0.930 . S
C1164 N1161 1.314 1_545 S
C1164 C1162 1.353 . S
C1164 H1206 0.930 . S
C1165 N1161 1.279 . S
C1165 C1163 1.358 . S
C1165 H1207 0.930 . S
C1166 C1167 1.348 . S
C1166 C1168 1.356 . S
C1166 O1191 1.325 . S
C1167 C1166 1.348 . S
C1167 C1169 1.353 . S
C1167 H1208 0.929 . S
C1168 C1166 1.356 . S
C1168 C1170 1.358 . S
C1168 H1209 0.930 . S
C1169 C1167 1.353 . S
C1169 N1171 1.314 . S
C1169 H1210 0.930 . S
C1170 C1168 1.358 . S
C1170 N1171 1.279 . S
C1170 H1211 0.930 . S
N1171 C1169 1.314 . S
N1171 C1170 1.279 . S
C1172 C1174 1.353 . S
C1172 N1175 1.314 . S
C1172 H1178 0.930 . S
C1173 N1175 1.279 . S
C1173 C1176 1.358 . S
C1173 H1179 0.928 1_565 S
C1174 C1172 1.353 . S
C1174 C1177 1.348 . S
C1174 H1212 0.929 . S
N1175 Li1130 1.991 . S
N1175 C1172 1.314 . S
N1175 C1173 1.279 . S
C1176 C1173 1.358 . S
C1176 C1177 1.356 . S
C1176 H1213 0.930 . S
C1177 C1174 1.348 . S
C1177 C1176 1.356 . S
H1178 C1172 0.930 . S
H1179 C1173 0.928 1_545 S
C1180 N1181 1.314 . S
C1180 C1182 1.353 . S
C1180 H1186 0.930 . S
N1181 Li1131 1.990 . S
N1181 C1180 1.314 . S
N1181 C1184 1.279 . S
C1182 C1180 1.353 . S
C1182 C1185 1.348 . S
C1182 H1214 0.929 . S
C1183 C1184 1.358 . S
C1183 C1185 1.356 . S
C1183 H1215 0.930 . S
C1184 N1181 1.279 . S
C1184 C1183 1.358 . S
C1184 H1187 0.930 . S
C1185 C1182 1.348 . S
C1185 C1183 1.356 . S
H1186 C1180 0.930 . S
H1187 C1184 0.930 . S
O1188 Li1128 1.956 . S
O1188 Li1129 1.970 1_565 S
O1188 Li1130 1.966 . S
O1188 C1132 1.325 . S
O1189 Li1128 1.970 1_545 S
O1189 Li1129 1.956 . S
O1189 Li1131 1.961 . S
O1189 C1138 1.325 . S
O1190 Li1128 1.960 1_545 S
O1190 Li1130 1.956 1_545 S
O1190 Li1131 1.971 . S
O1190 C1160 1.325 1_545 S
O1191 Li1129 1.961 . S
O1191 Li1130 1.964 1_545 S
O1191 Li1131 1.956 . S
O1191 C1166 1.325 . S
H1192 C1134 0.929 . S
H1193 C1135 0.930 . S
H1194 C1136 0.930 . S
H1195 C1137 0.930 . S
H1196 C1139 0.930 . S
H1197 C1141 0.929 . S
H1198 C1142 0.930 . S
H1199 C1143 0.930 . S
H1200 C1146 0.930 . S
H1201 C1149 0.929 . S
H1202 C1154 0.929 . S
H1203 C1155 0.930 . S
H1204 C1162 0.929 . S
H1205 C1163 0.930 . S
H1206 C1164 0.930 . S
H1207 C1165 0.930 . S
H1208 C1167 0.929 . S
H1209 C1168 0.930 . S
H1210 C1169 0.930 . S
H1211 C1170 0.930 . S
H1212 C1174 0.929 . S
H1213 C1176 0.930 . S
H1214 C1182 0.929 . S
H1215 C1183 0.930 . S
Li1216 N1233 1.990 . S
Li1216 O1276 1.956 . S
Li1216 O1277 1.970 . S
Li1216 O1278 1.961 . S
Li1217 N1241 1.980 1_455 S
Li1217 O1276 1.970 . S
Li1217 O1277 1.956 . S
Li1217 O1279 1.961 1_455 S
Li1218 N1263 1.990 . S
Li1218 O1276 1.961 . S
Li1218 O1278 1.956 . S
Li1218 O1279 1.970 1_455 S
Li1219 N1269 1.990 . S
Li1219 O1277 1.961 1_655 S
Li1219 O1278 1.970 1_655 S
Li1219 O1279 1.956 . S
C1220 C1222 1.348 . S
C1220 C1223 1.356 . S
C1220 O1276 1.325 . S
N1221 C1224 1.314 . S
N1221 C1225 1.279 . S
C1222 C1220 1.348 . S
C1222 C1224 1.353 . S
C1222 H1280 0.929 . S
C1223 C1220 1.356 . S
C1223 C1225 1.358 . S
C1223 H1281 0.930 . S
C1224 N1221 1.314 . S
C1224 C1222 1.353 . S
C1224 H1282 0.930 . S
C1225 N1221 1.279 . S
C1225 C1223 1.358 . S
C1225 H1283 0.930 . S
C1226 C1229 1.348 . S
C1226 C1230 1.356 1_455 S
C1226 O1277 1.325 . S
C1227 N1228 1.279 . S
C1227 C1230 1.358 . S
C1227 H1284 0.930 . S
N1228 C1227 1.279 . S
N1228 C1231 1.314 1_655 S
C1229 C1226 1.348 . S
C1229 C1231 1.353 . S
C1229 H1285 0.929 . S
C1230 C1226 1.356 1_655 S
C1230 C1227 1.358 . S
C1230 H1286 0.930 . S
C1231 N1228 1.314 1_455 S
C1231 C1229 1.353 . S
C1231 H1287 0.930 . S
C1232 N1233 1.314 . S
C1232 C1237 1.353 . S
C1232 H1238 0.930 . S
N1233 Li1216 1.990 . S
N1233 C1232 1.314 . S
N1233 C1235 1.279 . S
C1234 C1235 1.358 . S
C1234 C1236 1.356 . S
C1234 H1288 0.930 . S
C1235 N1233 1.279 . S
C1235 C1234 1.358 . S
C1235 H1239 0.930 . S
C1236 C1234 1.356 . S
C1236 C1237 1.348 . S
C1237 C1232 1.353 . S
C1237 C1236 1.348 . S
C1237 H1289 0.929 . S
H1238 C1232 0.930 . S
H1239 C1235 0.930 . S
C1240 N1241 1.331 . S
C1240 C1242 1.353 . S
C1240 H1246 0.930 . S
N1241 Li1217 1.980 1_655 S
N1241 C1240 1.331 . S
N1241 C1244 1.274 1_655 S
C1242 C1240 1.353 . S
C1242 C1245 1.348 . S
C1242 H1290 0.929 . S
C1243 C1244 1.352 1_655 S
C1243 C1245 1.367 . S
C1243 H1291 0.927 1_655 S
C1244 N1241 1.274 1_455 S
C1244 C1243 1.352 1_455 S
C1244 H1247 0.942 . S
C1245 C1242 1.348 . S
C1245 C1243 1.367 . S
H1246 C1240 0.930 . S
H1247 C1244 0.942 . S
C1248 C1250 1.348 1_455 S
C1248 C1251 1.356 . S
C1248 O1278 1.325 . S
N1249 C1252 1.357 . S
N1249 C1253 1.279 . S
C1250 C1248 1.348 1_655 S
C1250 C1252 1.344 1_655 S
C1250 H1292 0.929 . S
C1251 C1248 1.356 . S
C1251 C1253 1.358 . S
C1251 H1293 0.930 . S
C1252 N1249 1.357 . S
C1252 C1250 1.344 1_455 S
C1252 H1294 0.892 1_455 S
C1253 N1249 1.279 . S
C1253 C1251 1.358 . S
C1253 H1295 0.930 . S
C1254 C1255 1.348 . S
C1254 C1256 1.356 . S
C1254 O1279 1.325 . S
C1255 C1254 1.348 . S
C1255 C1257 1.353 . S
C1255 H1296 0.929 . S
C1256 C1254 1.356 . S
C1256 C1258 1.358 . S
C1256 H1297 0.930 . S
C1257 C1255 1.353 . S
C1257 N1259 1.314 . S
C1257 H1298 0.930 . S
C1258 C1256 1.358 . S
C1258 N1259 1.279 . S
C1258 H1299 0.930 . S
N1259 C1257 1.314 . S
N1259 C1258 1.279 . S
C1260 C1262 1.353 . S
C1260 N1263 1.314 . S
C1260 H1266 0.930 . S
C1261 N1263 1.279 . S
C1261 C1264 1.358 . S
C1261 H1267 0.930 . S
C1262 C1260 1.353 . S
C1262 C1265 1.348 . S
C1262 H1300 0.929 . S
N1263 Li1218 1.990 . S
N1263 C1260 1.314 . S
N1263 C1261 1.279 . S
C1264 C1261 1.358 . S
C1264 C1265 1.356 . S
C1264 H1301 0.930 . S
C1265 C1262 1.348 . S
C1265 C1264 1.356 . S
H1266 C1260 0.930 . S
H1267 C1261 0.930 . S
C1268 N1269 1.314 . S
C1268 C1270 1.353 . S
C1268 H1274 0.930 . S
N1269 Li1219 1.990 . S
N1269 C1268 1.314 . S
N1269 C1272 1.279 . S
C1270 C1268 1.353 . S
C1270 C1273 1.348 . S
C1270 H1302 0.929 . S
C1271 C1272 1.358 . S
C1271 C1273 1.356 . S
C1271 H1303 0.930 . S
C1272 N1269 1.279 . S
C1272 C1271 1.358 . S
C1272 H1275 0.930 . S
C1273 C1270 1.348 . S
C1273 C1271 1.356 . S
H1274 C1268 0.930 . S
H1275 C1272 0.930 . S
O1276 Li1216 1.956 . S
O1276 Li1217 1.970 . S
O1276 Li1218 1.961 . S
O1276 C1220 1.325 . S
O1277 Li1216 1.970 . S
O1277 Li1217 1.956 . S
O1277 Li1219 1.961 1_455 S
O1277 C1226 1.325 . S
O1278 Li1216 1.961 . S
O1278 Li1218 1.956 . S
O1278 Li1219 1.970 1_455 S
O1278 C1248 1.325 . S
O1279 Li1217 1.961 1_655 S
O1279 Li1218 1.970 1_655 S
O1279 Li1219 1.956 . S
O1279 C1254 1.325 . S
H1280 C1222 0.929 . S
H1281 C1223 0.930 . S
H1282 C1224 0.930 . S
H1283 C1225 0.930 . S
H1284 C1227 0.930 . S
H1285 C1229 0.929 . S
H1286 C1230 0.930 . S
H1287 C1231 0.930 . S
H1288 C1234 0.930 . S
H1289 C1237 0.929 . S
H1290 C1242 0.929 . S
H1291 C1243 0.927 1_455 S
H1292 C1250 0.929 . S
H1293 C1251 0.930 . S
H1294 C1252 0.892 1_655 S
H1295 C1253 0.930 . S
H1296 C1255 0.929 . S
H1297 C1256 0.930 . S
H1298 C1257 0.930 . S
H1299 C1258 0.930 . S
H1300 C1262 0.929 . S
H1301 C1264 0.930 . S
H1302 C1270 0.929 . S
H1303 C1271 0.930 . S
Li1304 N1321 1.990 . S
Li1304 O1364 1.956 . S
Li1304 O1365 1.970 . S
Li1304 O1366 1.961 . S
Li1305 N1329 1.990 . S
Li1305 O1364 1.970 . S
Li1305 O1365 1.956 . S
Li1305 O1367 1.961 . S
Li1306 N1351 1.990 . S
Li1306 O1364 1.961 . S
Li1306 O1366 1.956 . S
Li1306 O1367 1.970 . S
Li1307 N1357 1.990 . S
Li1307 O1365 1.961 . S
Li1307 O1366 1.970 . S
Li1307 O1367 1.956 . S
C1308 C1310 1.348 . S
C1308 C1311 1.356 . S
C1308 O1364 1.325 . S
N1309 C1312 1.314 . S
N1309 C1313 1.279 . S
C1310 C1308 1.348 . S
C1310 C1312 1.353 . S
C1310 H1368 0.929 . S
C1311 C1308 1.356 . S
C1311 C1313 1.358 . S
C1311 H1369 0.930 . S
C1312 N1309 1.314 . S
C1312 C1310 1.353 . S
C1312 H1370 0.930 . S
C1313 N1309 1.279 . S
C1313 C1311 1.358 . S
C1313 H1371 0.930 . S
C1314 C1317 1.348 . S
C1314 C1318 1.356 . S
C1314 O1365 1.325 . S
C1315 N1316 1.279 . S
C1315 C1318 1.358 . S
C1315 H1372 0.930 . S
N1316 C1315 1.279 . S
N1316 C1319 1.314 . S
C1317 C1314 1.348 . S
C1317 C1319 1.353 . S
C1317 H1373 0.929 . S
C1318 C1314 1.356 . S
C1318 C1315 1.358 . S
C1318 H1374 0.930 . S
C1319 N1316 1.314 . S
C1319 C1317 1.353 . S
C1319 H1375 0.930 . S
C1320 N1321 1.314 . S
C1320 C1325 1.353 . S
C1320 H1326 0.930 . S
N1321 Li1304 1.990 . S
N1321 C1320 1.314 . S
N1321 C1323 1.279 . S
C1322 C1323 1.358 . S
C1322 C1324 1.356 . S
C1322 H1376 0.930 . S
C1323 N1321 1.279 . S
C1323 C1322 1.358 . S
C1323 H1327 0.930 . S
C1324 C1322 1.356 . S
C1324 C1325 1.348 . S
C1325 C1320 1.353 . S
C1325 C1324 1.348 . S
C1325 H1377 0.929 . S
H1326 C1320 0.930 . S
H1327 C1323 0.930 . S
C1328 N1329 1.314 . S
C1328 C1330 1.353 . S
C1328 H1334 0.930 . S
N1329 Li1305 1.990 . S
N1329 C1328 1.314 . S
N1329 C1332 1.279 . S
C1330 C1328 1.353 . S
C1330 C1333 1.348 . S
C1330 H1378 0.929 . S
C1331 C1332 1.358 . S
C1331 C1333 1.356 . S
C1331 H1379 0.930 . S
C1332 N1329 1.279 . S
C1332 C1331 1.358 . S
C1332 H1335 0.930 . S
C1333 C1330 1.348 . S
C1333 C1331 1.356 . S
H1334 C1328 0.930 . S
H1335 C1332 0.930 . S
C1336 C1338 1.348 . S
C1336 C1339 1.356 . S
C1336 O1366 1.325 . S
N1337 C1340 1.314 . S
N1337 C1341 1.279 . S
C1338 C1336 1.348 . S
C1338 C1340 1.353 . S
C1338 H1380 0.929 . S
C1339 C1336 1.356 . S
C1339 C1341 1.358 . S
C1339 H1381 0.930 . S
C1340 N1337 1.314 . S
C1340 C1338 1.353 . S
C1340 H1382 0.930 . S
C1341 N1337 1.279 . S
C1341 C1339 1.358 . S
C1341 H1383 0.930 . S
C1342 C1343 1.348 . S
C1342 C1344 1.356 . S
C1342 O1367 1.325 . S
C1343 C1342 1.348 . S
C1343 C1345 1.353 . S
C1343 H1384 0.929 . S
C1344 C1342 1.356 . S
C1344 C1346 1.358 . S
C1344 H1385 0.930 . S
C1345 C1343 1.353 . S
C1345 N1347 1.314 . S
C1345 H1386 0.930 . S
C1346 C1344 1.358 . S
C1346 N1347 1.279 . S
C1346 H1387 0.930 . S
N1347 C1345 1.314 . S
N1347 C1346 1.279 . S
C1348 C1350 1.353 . S
C1348 N1351 1.314 . S
C1348 H1354 0.930 . S
C1349 N1351 1.279 . S
C1349 C1352 1.358 . S
C1349 H1355 0.930 . S
C1350 C1348 1.353 . S
C1350 C1353 1.348 . S
C1350 H1388 0.929 . S
N1351 Li1306 1.990 . S
N1351 C1348 1.314 . S
N1351 C1349 1.279 . S
C1352 C1349 1.358 . S
C1352 C1353 1.356 . S
C1352 H1389 0.930 . S
C1353 C1350 1.348 . S
C1353 C1352 1.356 . S
H1354 C1348 0.930 . S
H1355 C1349 0.930 . S
C1356 N1357 1.314 . S
C1356 C1358 1.353 . S
C1356 H1362 0.930 . S
N1357 Li1307 1.990 . S
N1357 C1356 1.314 . S
N1357 C1360 1.279 . S
C1358 C1356 1.353 . S
C1358 C1361 1.348 . S
C1358 H1390 0.929 . S
C1359 C1360 1.358 . S
C1359 C1361 1.356 . S
C1359 H1391 0.930 . S
C1360 N1357 1.279 . S
C1360 C1359 1.358 . S
C1360 H1363 0.930 . S
C1361 C1358 1.348 . S
C1361 C1359 1.356 . S
H1362 C1356 0.930 . S
H1363 C1360 0.930 . S
O1364 Li1304 1.956 . S
O1364 Li1305 1.970 . S
O1364 Li1306 1.961 . S
O1364 C1308 1.325 . S
O1365 Li1304 1.970 . S
O1365 Li1305 1.956 . S
O1365 Li1307 1.961 . S
O1365 C1314 1.325 . S
O1366 Li1304 1.961 . S
O1366 Li1306 1.956 . S
O1366 Li1307 1.970 . S
O1366 C1336 1.325 . S
O1367 Li1305 1.961 . S
O1367 Li1306 1.970 . S
O1367 Li1307 1.956 . S
O1367 C1342 1.325 . S
H1368 C1310 0.929 . S
H1369 C1311 0.930 . S
H1370 C1312 0.930 . S
H1371 C1313 0.930 . S
H1372 C1315 0.930 . S
H1373 C1317 0.929 . S
H1374 C1318 0.930 . S
H1375 C1319 0.930 . S
H1376 C1322 0.930 . S
H1377 C1325 0.929 . S
H1378 C1330 0.929 . S
H1379 C1331 0.930 . S
H1380 C1338 0.929 . S
H1381 C1339 0.930 . S
H1382 C1340 0.930 . S
H1383 C1341 0.930 . S
H1384 C1343 0.929 . S
H1385 C1344 0.930 . S
H1386 C1345 0.930 . S
H1387 C1346 0.930 . S
H1388 C1350 0.929 . S
H1389 C1352 0.930 . S
H1390 C1358 0.929 . S
H1391 C1359 0.930 . S
Li1392 N1409 1.990 . S
Li1392 O1452 1.956 . S
Li1392 O1453 1.970 1_455 S
Li1392 O1454 1.961 . S
Li1393 N1417 1.990 . S
Li1393 O1452 1.970 1_655 S
Li1393 O1453 1.956 . S
Li1393 O1455 1.961 . S
Li1394 N1439 1.990 . S
Li1394 O1452 1.961 . S
Li1394 O1454 1.956 . S
Li1394 O1455 1.970 1_455 S
Li1395 N1445 1.990 . S
Li1395 O1453 1.961 . S
Li1395 O1454 1.970 1_655 S
Li1395 O1455 1.956 . S
C1396 C1398 1.348 1_455 S
C1396 C1399 1.356 . S
C1396 O1452 1.325 . S
N1397 C1400 1.314 1_455 S
N1397 C1401 1.279 . S
C1398 C1396 1.348 1_655 S
C1398 C1400 1.353 . S
C1398 H1456 0.929 . S
C1399 C1396 1.356 . S
C1399 C1401 1.358 . S
C1399 H1457 0.930 . S
C1400 N1397 1.314 1_655 S
C1400 C1398 1.353 . S
C1400 H1458 0.930 . S
C1401 N1397 1.279 . S
C1401 C1399 1.358 . S
C1401 H1459 0.930 . S
C1402 C1405 1.348 . S
C1402 C1406 1.356 . S
C1402 O1453 1.325 . S
C1403 N1404 1.279 . S
C1403 C1406 1.358 . S
C1403 H1460 0.930 . S
N1404 C1403 1.279 . S
N1404 C1407 1.314 . S
C1405 C1402 1.348 . S
C1405 C1407 1.353 . S
C1405 H1461 0.929 . S
C1406 C1402 1.356 . S
C1406 C1403 1.358 . S
C1406 H1462 0.930 . S
C1407 N1404 1.314 . S
C1407 C1405 1.353 . S
C1407 H1463 0.930 . S
C1408 N1409 1.314 . S
C1408 C1413 1.353 . S
C1408 H1414 0.930 . S
N1409 Li1392 1.990 . S
N1409 C1408 1.314 . S
N1409 C1411 1.279 . S
C1410 C1411 1.358 . S
C1410 C1412 1.356 . S
C1410 H1464 0.930 . S
C1411 N1409 1.279 . S
C1411 C1410 1.358 . S
C1411 H1415 0.930 . S
C1412 C1410 1.356 . S
C1412 C1413 1.348 . S
C1413 C1408 1.353 . S
C1413 C1412 1.348 . S
C1413 H1465 0.929 . S
H1414 C1408 0.930 . S
H1415 C1411 0.930 . S
C1416 N1417 1.314 . S
C1416 C1418 1.353 . S
C1416 H1422 0.930 . S
N1417 Li1393 1.990 . S
N1417 C1416 1.314 . S
N1417 C1420 1.279 . S
C1418 C1416 1.353 . S
C1418 C1421 1.348 . S
C1418 H1466 0.929 . S
C1419 C1420 1.358 . S
C1419 C1421 1.356 . S
C1419 H1467 0.930 . S
C1420 N1417 1.279 . S
C1420 C1419 1.358 . S
C1420 H1423 0.930 . S
C1421 C1418 1.348 . S
C1421 C1419 1.356 . S
H1422 C1416 0.930 . S
H1423 C1420 0.930 . S
C1424 C1426 1.348 . S
C1424 C1427 1.356 . S
C1424 O1454 1.325 . S
N1425 C1428 1.314 . S
N1425 C1429 1.279 . S
C1426 C1424 1.348 . S
C1426 C1428 1.353 . S
C1426 H1468 0.929 . S
C1427 C1424 1.356 . S
C1427 C1429 1.358 . S
C1427 H1469 0.930 . S
C1428 N1425 1.314 . S
C1428 C1426 1.353 . S
C1428 H1470 0.930 . S
C1429 N1425 1.279 . S
C1429 C1427 1.358 . S
C1429 H1471 0.930 . S
C1430 C1431 1.348 1_655 S
C1430 C1432 1.356 . S
C1430 O1455 1.325 . S
C1431 C1430 1.348 1_455 S
C1431 C1433 1.353 . S
C1431 H1472 0.929 . S
C1432 C1430 1.356 . S
C1432 C1434 1.358 . S
C1432 H1473 0.930 . S
C1433 C1431 1.353 . S
C1433 N1435 1.314 1_455 S
C1433 H1474 0.930 . S
C1434 C1432 1.358 . S
C1434 N1435 1.279 . S
C1434 H1475 0.930 . S
N1435 C1433 1.314 1_655 S
N1435 C1434 1.279 . S
C1436 C1438 1.353 . S
C1436 N1439 1.314 . S
C1436 H1442 0.930 . S
C1437 N1439 1.279 . S
C1437 C1440 1.358 . S
C1437 H1443 0.930 . S
C1438 C1436 1.353 . S
C1438 C1441 1.348 . S
C1438 H1476 0.929 . S
N1439 Li1394 1.990 . S
N1439 C1436 1.314 . S
N1439 C1437 1.279 . S
C1440 C1437 1.358 . S
C1440 C1441 1.356 . S
C1440 H1477 0.930 . S
C1441 C1438 1.348 . S
C1441 C1440 1.356 . S
H1442 C1436 0.930 . S
H1443 C1437 0.930 . S
C1444 N1445 1.314 . S
C1444 C1446 1.353 . S
C1444 H1450 0.930 . S
N1445 Li1395 1.990 . S
N1445 C1444 1.314 . S
N1445 C1448 1.279 . S
C1446 C1444 1.353 . S
C1446 C1449 1.348 . S
C1446 H1478 0.929 . S
C1447 C1448 1.358 . S
C1447 C1449 1.356 . S
C1447 H1479 0.930 . S
C1448 N1445 1.279 . S
C1448 C1447 1.358 . S
C1448 H1451 0.930 . S
C1449 C1446 1.348 . S
C1449 C1447 1.356 . S
H1450 C1444 0.930 . S
H1451 C1448 0.930 . S
O1452 Li1392 1.956 . S
O1452 Li1393 1.970 1_455 S
O1452 Li1394 1.961 . S
O1452 C1396 1.325 . S
O1453 Li1392 1.970 1_655 S
O1453 Li1393 1.956 . S
O1453 Li1395 1.961 . S
O1453 C1402 1.325 . S
O1454 Li1392 1.961 . S
O1454 Li1394 1.956 . S
O1454 Li1395 1.970 1_455 S
O1454 C1424 1.325 . S
O1455 Li1393 1.961 . S
O1455 Li1394 1.970 1_655 S
O1455 Li1395 1.956 . S
O1455 C1430 1.325 . S
H1456 C1398 0.929 . S
H1457 C1399 0.930 . S
H1458 C1400 0.930 . S
H1459 C1401 0.930 . S
H1460 C1403 0.930 . S
H1461 C1405 0.929 . S
H1462 C1406 0.930 . S
H1463 C1407 0.930 . S
H1464 C1410 0.930 . S
H1465 C1413 0.929 . S
H1466 C1418 0.929 . S
H1467 C1419 0.930 . S
H1468 C1426 0.929 . S
H1469 C1427 0.930 . S
H1470 C1428 0.930 . S
H1471 C1429 0.930 . S
H1472 C1431 0.929 . S
H1473 C1432 0.930 . S
H1474 C1433 0.930 . S
H1475 C1434 0.930 . S
H1476 C1438 0.929 . S
H1477 C1440 0.930 . S
H1478 C1446 0.929 . S
H1479 C1447 0.930 . S
Li1480 N1497 1.990 . S
Li1480 O1540 1.956 . S
Li1480 O1541 1.970 . S
Li1480 O1542 1.961 . S
Li1481 N1505 1.990 . S
Li1481 O1540 1.970 . S
Li1481 O1541 1.956 . S
Li1481 O1543 1.961 . S
Li1482 N1527 1.990 . S
Li1482 O1540 1.961 . S
Li1482 O1542 1.956 . S
Li1482 O1543 1.970 . S
Li1483 N1533 1.990 . S
Li1483 O1541 1.961 . S
Li1483 O1542 1.970 . S
Li1483 O1543 1.956 . S
C1484 C1486 1.348 . S
C1484 C1487 1.356 . S
C1484 O1540 1.325 . S
N1485 C1488 1.314 . S
N1485 C1489 1.279 . S
C1486 C1484 1.348 . S
C1486 C1488 1.353 . S
C1486 H1544 0.929 . S
C1487 C1484 1.356 . S
C1487 C1489 1.358 . S
C1487 H1545 0.930 . S
C1488 N1485 1.314 . S
C1488 C1486 1.353 . S
C1488 H1546 0.930 . S
C1489 N1485 1.279 . S
C1489 C1487 1.358 . S
C1489 H1547 0.930 . S
C1490 C1493 1.348 . S
C1490 C1494 1.356 . S
C1490 O1541 1.325 . S
C1491 N1492 1.279 . S
C1491 C1494 1.358 . S
C1491 H1548 0.930 . S
N1492 C1491 1.279 . S
N1492 C1495 1.314 . S
C1493 C1490 1.348 . S
C1493 C1495 1.353 . S
C1493 H1549 0.929 . S
C1494 C1490 1.356 . S
C1494 C1491 1.358 . S
C1494 H1550 0.930 . S
C1495 N1492 1.314 . S
C1495 C1493 1.353 . S
C1495 H1551 0.930 . S
C1496 N1497 1.314 . S
C1496 C1501 1.353 . S
C1496 H1502 0.930 . S
N1497 Li1480 1.990 . S
N1497 C1496 1.314 . S
N1497 C1499 1.279 . S
C1498 C1499 1.358 . S
C1498 C1500 1.356 . S
C1498 H1552 0.930 . S
C1499 N1497 1.279 . S
C1499 C1498 1.358 . S
C1499 H1503 0.930 . S
C1500 C1498 1.356 . S
C1500 C1501 1.348 . S
C1501 C1496 1.353 . S
C1501 C1500 1.348 . S
C1501 H1553 0.929 . S
H1502 C1496 0.930 . S
H1503 C1499 0.930 . S
C1504 N1505 1.314 . S
C1504 C1506 1.353 . S
C1504 H1510 0.930 . S
N1505 Li1481 1.990 . S
N1505 C1504 1.314 . S
N1505 C1508 1.279 . S
C1506 C1504 1.353 . S
C1506 C1509 1.348 . S
C1506 H1554 0.929 . S
C1507 C1508 1.358 . S
C1507 C1509 1.356 . S
C1507 H1555 0.930 . S
C1508 N1505 1.279 . S
C1508 C1507 1.358 . S
C1508 H1511 0.930 . S
C1509 C1506 1.348 . S
C1509 C1507 1.356 . S
H1510 C1504 0.930 . S
H1511 C1508 0.930 . S
C1512 C1514 1.348 . S
C1512 C1515 1.356 . S
C1512 O1542 1.325 . S
N1513 C1516 1.314 . S
N1513 C1517 1.279 . S
C1514 C1512 1.348 . S
C1514 C1516 1.353 . S
C1514 H1556 0.929 . S
C1515 C1512 1.356 . S
C1515 C1517 1.358 . S
C1515 H1557 0.930 . S
C1516 N1513 1.314 . S
C1516 C1514 1.353 . S
C1516 H1558 0.930 . S
C1517 N1513 1.279 . S
C1517 C1515 1.358 . S
C1517 H1559 0.930 . S
C1518 C1519 1.348 . S
C1518 C1520 1.356 . S
C1518 O1543 1.325 . S
C1519 C1518 1.348 . S
C1519 C1521 1.353 . S
C1519 H1560 0.929 . S
C1520 C1518 1.356 . S
C1520 C1522 1.358 . S
C1520 H1561 0.930 . S
C1521 C1519 1.353 . S
C1521 N1523 1.314 . S
C1521 H1562 0.930 . S
C1522 C1520 1.358 . S
C1522 N1523 1.279 . S
C1522 H1563 0.930 . S
N1523 C1521 1.314 . S
N1523 C1522 1.279 . S
C1524 C1526 1.353 . S
C1524 N1527 1.314 . S
C1524 H1530 0.930 . S
C1525 N1527 1.279 . S
C1525 C1528 1.358 . S
C1525 H1531 0.930 . S
C1526 C1524 1.353 . S
C1526 C1529 1.348 . S
C1526 H1564 0.929 . S
N1527 Li1482 1.990 . S
N1527 C1524 1.314 . S
N1527 C1525 1.279 . S
C1528 C1525 1.358 . S
C1528 C1529 1.356 . S
C1528 H1565 0.930 . S
C1529 C1526 1.348 . S
C1529 C1528 1.356 . S
H1530 C1524 0.930 . S
H1531 C1525 0.930 . S
C1532 N1533 1.314 . S
C1532 C1534 1.353 . S
C1532 H1538 0.930 . S
N1533 Li1483 1.990 . S
N1533 C1532 1.314 . S
N1533 C1536 1.279 . S
C1534 C1532 1.353 . S
C1534 C1537 1.348 . S
C1534 H1566 0.929 . S
C1535 C1536 1.358 . S
C1535 C1537 1.356 . S
C1535 H1567 0.930 . S
C1536 N1533 1.279 . S
C1536 C1535 1.358 . S
C1536 H1539 0.930 . S
C1537 C1534 1.348 . S
C1537 C1535 1.356 . S
H1538 C1532 0.930 . S
H1539 C1536 0.930 . S
O1540 Li1480 1.956 . S
O1540 Li1481 1.970 . S
O1540 Li1482 1.961 . S
O1540 C1484 1.325 . S
O1541 Li1480 1.970 . S
O1541 Li1481 1.956 . S
O1541 Li1483 1.961 . S
O1541 C1490 1.325 . S
O1542 Li1480 1.961 . S
O1542 Li1482 1.956 . S
O1542 Li1483 1.970 . S
O1542 C1512 1.325 . S
O1543 Li1481 1.961 . S
O1543 Li1482 1.970 . S
O1543 Li1483 1.956 . S
O1543 C1518 1.325 . S
H1544 C1486 0.929 . S
H1545 C1487 0.930 . S
H1546 C1488 0.930 . S
H1547 C1489 0.930 . S
H1548 C1491 0.930 . S
H1549 C1493 0.929 . S
H1550 C1494 0.930 . S
H1551 C1495 0.930 . S
H1552 C1498 0.930 . S
H1553 C1501 0.929 . S
H1554 C1506 0.929 . S
H1555 C1507 0.930 . S
H1556 C1514 0.929 . S
H1557 C1515 0.930 . S
H1558 C1516 0.930 . S
H1559 C1517 0.930 . S
H1560 C1519 0.929 . S
H1561 C1520 0.930 . S
H1562 C1521 0.930 . S
H1563 C1522 0.930 . S
H1564 C1526 0.929 . S
H1565 C1528 0.930 . S
H1566 C1534 0.929 . S
H1567 C1535 0.930 . S
C1568 C1569 1.349 . S
C1568 C1570 1.327 . S
C1568 H1593 0.950 . S
C1569 C1568 1.349 . S
C1569 C1585 1.349 . S
C1570 C1568 1.327 . S
C1570 C1589 1.429 . S
C1570 H1594 0.950 . S
C1571 C1588 1.574 . S
C1571 C1590 1.368 . S
C1571 H1595 0.949 . S
H1572 C1576 0.949 . S
C1573 C1574 1.349 . S
C1573 C1575 1.327 . S
C1573 H1596 0.950 . S
C1574 C1573 1.349 . S
C1574 C1586 1.349 . S
C1575 C1573 1.327 . S
C1575 C1591 1.429 . S
C1575 H1597 0.950 . S
C1576 H1572 0.949 . S
C1576 C1584 1.574 . S
C1576 C1592 1.368 . S
H1577 C1585 0.950 . S
H1578 C1583 0.950 . S
H1579 C1584 0.949 . S
H1580 C1586 0.950 . S
H1581 C1587 0.950 . S
H1582 C1588 0.949 . S
C1583 H1578 0.950 . S
C1583 C1585 1.327 . S
C1583 C1589 1.429 . S
C1584 C1576 1.574 . S
C1584 H1579 0.949 . S
C1584 C1590 1.368 . S
C1585 C1569 1.349 . S
C1585 H1577 0.950 . S
C1585 C1583 1.327 . S
C1586 C1574 1.349 . S
C1586 H1580 0.950 . S
C1586 C1587 1.327 . S
C1587 H1581 0.950 . S
C1587 C1586 1.327 . S
C1587 C1591 1.429 . S
C1588 C1571 1.574 . S
C1588 H1582 0.949 . S
C1588 C1592 1.368 . S
C1589 C1570 1.429 . S
C1589 C1583 1.429 . S
C1589 C1590 1.523 . S
C1590 C1571 1.368 . S
C1590 C1584 1.368 . S
C1590 C1589 1.523 . S
C1591 C1575 1.429 . S
C1591 C1587 1.429 . S
C1591 C1592 1.523 . S
C1592 C1576 1.368 . S
C1592 C1588 1.368 . S
C1592 C1591 1.523 . S
H1593 C1568 0.950 . S
H1594 C1570 0.950 . S
H1595 C1571 0.949 . S
H1596 C1573 0.950 . S
H1597 C1575 0.950 . S
C1598 C1599 1.349 . S
C1598 C1600 1.327 . S
C1598 H1623 0.950 . S
C1599 C1598 1.349 . S
C1599 C1615 1.382 . S
C1600 C1598 1.327 . S
C1600 C1619 1.429 . S
C1600 H1624 0.950 . S
C1601 C1618 1.574 . S
C1601 C1620 1.368 . S
C1601 H1625 0.949 . S
H1602 C1606 0.949 . S
C1603 C1604 1.349 . S
C1603 C1605 1.327 . S
C1603 H1626 0.950 . S
C1604 C1603 1.349 . S
C1604 C1616 1.349 . S
C1605 C1603 1.327 . S
C1605 C1621 1.429 . S
C1605 H1627 0.950 . S
C1606 H1602 0.949 . S
C1606 C1614 1.574 . S
C1606 C1622 1.368 . S
H1607 C1615 0.877 1_655 S
H1608 C1613 0.950 . S
H1609 C1614 0.949 . S
H1610 C1616 0.950 . S
H1611 C1617 0.950 . S
H1612 C1618 0.949 . S
C1613 H1608 0.950 . S
C1613 C1615 1.368 . S
C1613 C1619 1.429 . S
C1614 C1606 1.574 . S
C1614 H1609 0.949 . S
C1614 C1620 1.368 . S
C1615 C1599 1.382 . S
C1615 H1607 0.877 1_455 S
C1615 C1613 1.368 . S
C1616 C1604 1.349 . S
C1616 H1610 0.950 . S
C1616 C1617 1.327 . S
C1617 H1611 0.950 . S
C1617 C1616 1.327 . S
C1617 C1621 1.429 . S
C1618 C1601 1.574 . S
C1618 H1612 0.949 . S
C1618 C1622 1.368 . S
C1619 C1600 1.429 . S
C1619 C1613 1.429 . S
C1619 C1620 1.523 . S
C1620 C1601 1.368 . S
C1620 C1614 1.368 . S
C1620 C1619 1.523 . S
C1621 C1605 1.429 . S
C1621 C1617 1.429 . S
C1621 C1622 1.523 . S
C1622 C1606 1.368 . S
C1622 C1618 1.368 . S
C1622 C1621 1.523 . S
H1623 C1598 0.950 . S
H1624 C1600 0.950 . S
H1625 C1601 0.949 . S
H1626 C1603 0.950 . S
H1627 C1605 0.950 . S
C1628 C1629 1.349 . S
C1628 C1630 1.327 . S
C1628 H1653 0.950 . S
C1629 C1628 1.349 . S
C1629 C1645 1.349 . S
C1630 C1628 1.327 . S
C1630 C1649 1.429 . S
C1630 H1654 0.950 . S
C1631 C1648 1.574 . S
C1631 C1650 1.368 . S
C1631 H1655 0.949 . S
H1632 C1636 0.949 . S
C1633 C1634 1.349 . S
C1633 C1635 1.327 . S
C1633 H1656 0.950 . S
C1634 C1633 1.349 . S
C1634 C1646 1.349 . S
C1635 C1633 1.327 . S
C1635 C1651 1.429 . S
C1635 H1657 0.950 . S
C1636 H1632 0.949 . S
C1636 C1644 1.574 . S
C1636 C1652 1.368 . S
H1637 C1645 0.950 . S
H1638 C1643 0.950 . S
H1639 C1644 0.949 . S
H1640 C1646 0.950 . S
H1641 C1647 0.950 . S
H1642 C1648 0.949 . S
C1643 H1638 0.950 . S
C1643 C1645 1.327 . S
C1643 C1649 1.429 . S
C1644 C1636 1.574 . S
C1644 H1639 0.949 . S
C1644 C1650 1.368 . S
C1645 C1629 1.349 . S
C1645 H1637 0.950 . S
C1645 C1643 1.327 . S
C1646 C1634 1.349 . S
C1646 H1640 0.950 . S
C1646 C1647 1.327 . S
C1647 H1641 0.950 . S
C1647 C1646 1.327 . S
C1647 C1651 1.429 . S
C1648 C1631 1.574 . S
C1648 H1642 0.949 . S
C1648 C1652 1.368 . S
C1649 C1630 1.429 . S
C1649 C1643 1.429 . S
C1649 C1650 1.523 . S
C1650 C1631 1.368 . S
C1650 C1644 1.368 . S
C1650 C1649 1.523 . S
C1651 C1635 1.429 . S
C1651 C1647 1.429 . S
C1651 C1652 1.523 . S
C1652 C1636 1.368 . S
C1652 C1648 1.368 . S
C1652 C1651 1.523 . S
H1653 C1628 0.950 . S
H1654 C1630 0.950 . S
H1655 C1631 0.949 . S
H1656 C1633 0.950 . S
H1657 C1635 0.950 . S
C1658 C1659 1.349 . S
C1658 C1660 1.327 . S
C1658 H1683 0.950 1_655 S
C1659 C1658 1.349 . S
C1659 C1675 1.349 . S
C1660 C1658 1.327 . S
C1660 C1679 1.429 . S
C1660 H1684 0.950 1_565 S
C1661 C1678 1.574 . S
C1661 C1680 1.368 . S
C1661 H1685 0.949 . S
H1662 C1666 0.949 1_545 S
C1663 C1664 1.349 . S
C1663 C1665 1.327 . S
C1663 H1686 0.950 . S
C1664 C1663 1.349 . S
C1664 C1676 1.349 1_565 S
C1665 C1663 1.327 . S
C1665 C1681 1.429 . S
C1665 H1687 0.950 . S
C1666 H1662 0.949 1_565 S
C1666 C1674 1.574 . S
C1666 C1682 1.368 . S
H1667 C1675 0.950 . S
H1668 C1673 0.950 . S
H1669 C1674 0.949 1_545 S
H1670 C1676 0.950 . S
H1671 C1677 0.950 . S
H1672 C1678 0.949 . S
C1673 H1668 0.950 . S
C1673 C1675 1.327 . S
C1673 C1679 1.429 . S
C1674 C1666 1.574 . S
C1674 H1669 0.949 1_565 S
C1674 C1680 1.368 . S
C1675 C1659 1.349 . S
C1675 H1667 0.950 . S
C1675 C1673 1.327 . S
C1676 C1664 1.349 1_545 S
C1676 H1670 0.950 . S
C1676 C1677 1.327 . S
C1677 H1671 0.950 . S
C1677 C1676 1.327 . S
C1677 C1681 1.429 1_545 S
C1678 C1661 1.574 . S
C1678 H1672 0.949 . S
C1678 C1682 1.368 . S
C1679 C1660 1.429 . S
C1679 C1673 1.429 . S
C1679 C1680 1.523 . S
C1680 C1661 1.368 . S
C1680 C1674 1.368 . S
C1680 C1679 1.523 . S
C1681 C1665 1.429 . S
C1681 C1677 1.429 1_565 S
C1681 C1682 1.523 . S
C1682 C1666 1.368 . S
C1682 C1678 1.368 . S
C1682 C1681 1.523 . S
H1683 C1658 0.950 1_455 S
H1684 C1660 0.950 1_545 S
H1685 C1661 0.949 . S
H1686 C1663 0.950 . S
H1687 C1665 0.950 . S
C1688 C1689 1.349 . S
C1688 C1690 1.327 . S
C1688 H1713 0.950 . S
C1689 C1688 1.349 . S
C1689 C1705 1.349 . S
C1690 C1688 1.327 . S
C1690 C1709 1.429 . S
C1690 H1714 0.950 . S
C1691 C1708 1.574 . S
C1691 C1710 1.368 . S
C1691 H1715 0.949 . S
H1692 C1696 0.949 . S
C1693 C1694 1.349 . S
C1693 C1695 1.327 . S
C1693 H1716 0.950 . S
C1694 C1693 1.349 . S
C1694 C1706 1.349 . S
C1695 C1693 1.327 . S
C1695 C1711 1.429 . S
C1695 H1717 0.950 . S
C1696 H1692 0.949 . S
C1696 C1704 1.574 . S
C1696 C1712 1.368 . S
H1697 C1705 0.950 . S
H1698 C1703 0.950 . S
H1699 C1704 0.949 . S
H1700 C1706 0.950 . S
H1701 C1707 0.950 . S
H1702 C1708 0.949 . S
C1703 H1698 0.950 . S
C1703 C1705 1.327 . S
C1703 C1709 1.429 . S
C1704 C1696 1.574 . S
C1704 H1699 0.949 . S
C1704 C1710 1.368 . S
C1705 C1689 1.349 . S
C1705 H1697 0.950 . S
C1705 C1703 1.327 . S
C1706 C1694 1.349 . S
C1706 H1700 0.950 . S
C1706 C1707 1.327 . S
C1707 H1701 0.950 . S
C1707 C1706 1.327 . S
C1707 C1711 1.429 . S
C1708 C1691 1.574 . S
C1708 H1702 0.949 . S
C1708 C1712 1.368 . S
C1709 C1690 1.429 . S
C1709 C1703 1.429 . S
C1709 C1710 1.523 . S
C1710 C1691 1.368 . S
C1710 C1704 1.368 . S
C1710 C1709 1.523 . S
C1711 C1695 1.429 . S
C1711 C1707 1.429 . S
C1711 C1712 1.523 . S
C1712 C1696 1.368 . S
C1712 C1708 1.368 . S
C1712 C1711 1.523 . S
H1713 C1688 0.950 . S
H1714 C1690 0.950 . S
H1715 C1691 0.949 . S
H1716 C1693 0.950 . S
H1717 C1695 0.950 . S
C1718 C1719 1.349 . S
C1718 C1720 1.327 . S
C1718 H1743 0.950 . S
C1719 C1718 1.349 . S
C1719 C1735 1.349 . S
C1720 C1718 1.327 . S
C1720 C1739 1.429 . S
C1720 H1744 0.950 . S
C1721 C1738 1.574 . S
C1721 C1740 1.368 . S
C1721 H1745 0.949 . S
H1722 C1726 0.949 . S
C1723 C1724 1.349 . S
C1723 C1725 1.327 . S
C1723 H1746 0.950 . S
C1724 C1723 1.349 . S
C1724 C1736 1.349 . S
C1725 C1723 1.327 . S
C1725 C1741 1.429 . S
C1725 H1747 0.950 . S
C1726 H1722 0.949 . S
C1726 C1734 1.574 . S
C1726 C1742 1.368 . S
H1727 C1735 0.950 . S
H1728 C1733 0.950 . S
H1729 C1734 0.949 . S
H1730 C1736 0.950 . S
H1731 C1737 0.950 . S
H1732 C1738 0.949 . S
C1733 H1728 0.950 . S
C1733 C1735 1.327 . S
C1733 C1739 1.429 . S
C1734 C1726 1.574 . S
C1734 H1729 0.949 . S
C1734 C1740 1.368 . S
C1735 C1719 1.349 . S
C1735 H1727 0.950 . S
C1735 C1733 1.327 . S
C1736 C1724 1.349 . S
C1736 H1730 0.950 . S
C1736 C1737 1.327 . S
C1737 H1731 0.950 . S
C1737 C1736 1.327 . S
C1737 C1741 1.429 . S
C1738 C1721 1.574 . S
C1738 H1732 0.949 . S
C1738 C1742 1.368 . S
C1739 C1720 1.429 . S
C1739 C1733 1.429 . S
C1739 C1740 1.523 . S
C1740 C1721 1.368 . S
C1740 C1734 1.368 . S
C1740 C1739 1.523 . S
C1741 C1725 1.429 . S
C1741 C1737 1.429 . S
C1741 C1742 1.523 . S
C1742 C1726 1.368 . S
C1742 C1738 1.368 . S
C1742 C1741 1.523 . S
H1743 C1718 0.950 . S
H1744 C1720 0.950 . S
H1745 C1721 0.949 . S
H1746 C1723 0.950 . S
H1747 C1725 0.950 . S
C1748 C1749 1.349 . S
C1748 C1750 1.327 . S
C1748 H1773 0.950 . S
C1749 C1748 1.349 . S
C1749 C1765 1.349 . S
C1750 C1748 1.327 . S
C1750 C1769 1.429 . S
C1750 H1774 0.950 . S
C1751 C1768 1.574 . S
C1751 C1770 1.368 . S
C1751 H1775 0.949 . S
H1752 C1756 0.949 . S
C1753 C1754 1.349 . S
C1753 C1755 1.327 . S
C1753 H1776 0.950 . S
C1754 C1753 1.349 . S
C1754 C1766 1.349 . S
C1755 C1753 1.327 . S
C1755 C1771 1.429 . S
C1755 H1777 0.950 . S
C1756 H1752 0.949 . S
C1756 C1764 1.574 . S
C1756 C1772 1.368 . S
H1757 C1765 0.950 . S
H1758 C1763 0.950 . S
H1759 C1764 0.949 . S
H1760 C1766 0.950 . S
H1761 C1767 0.950 . S
H1762 C1768 0.949 . S
C1763 H1758 0.950 . S
C1763 C1765 1.327 . S
C1763 C1769 1.429 . S
C1764 C1756 1.574 . S
C1764 H1759 0.949 . S
C1764 C1770 1.368 . S
C1765 C1749 1.349 . S
C1765 H1757 0.950 . S
C1765 C1763 1.327 . S
C1766 C1754 1.349 . S
C1766 H1760 0.950 . S
C1766 C1767 1.327 . S
C1767 H1761 0.950 . S
C1767 C1766 1.327 . S
C1767 C1771 1.429 . S
C1768 C1751 1.574 . S
C1768 H1762 0.949 . S
C1768 C1772 1.368 . S
C1769 C1750 1.429 . S
C1769 C1763 1.429 . S
C1769 C1770 1.523 . S
C1770 C1751 1.368 . S
C1770 C1764 1.368 . S
C1770 C1769 1.523 . S
C1771 C1755 1.429 . S
C1771 C1767 1.429 . S
C1771 C1772 1.523 . S
C1772 C1756 1.368 . S
C1772 C1768 1.368 . S
C1772 C1771 1.523 . S
H1773 C1748 0.950 . S
H1774 C1750 0.950 . S
H1775 C1751 0.949 . S
H1776 C1753 0.950 . S
H1777 C1755 0.950 . S
C1778 C1779 1.349 . S
C1778 C1780 1.327 . S
C1778 H1803 0.950 . S
C1779 C1778 1.349 . S
C1779 C1795 1.349 . S
C1780 C1778 1.327 . S
C1780 C1799 1.429 . S
C1780 H1804 0.950 1_565 S
C1781 C1798 1.574 . S
C1781 C1800 1.368 . S
C1781 H1805 0.949 . S
H1782 C1786 0.949 1_545 S
C1783 C1784 1.349 . S
C1783 C1785 1.327 . S
C1783 H1806 0.950 . S
C1784 C1783 1.349 . S
C1784 C1796 1.349 1_565 S
C1785 C1783 1.327 . S
C1785 C1801 1.429 . S
C1785 H1807 0.950 . S
C1786 H1782 0.949 1_565 S
C1786 C1794 1.574 . S
C1786 C1802 1.368 . S
H1787 C1795 0.950 . S
H1788 C1793 0.950 . S
H1789 C1794 0.949 1_545 S
H1790 C1796 0.950 . S
H1791 C1797 0.950 . S
H1792 C1798 0.949 . S
C1793 H1788 0.950 . S
C1793 C1795 1.327 . S
C1793 C1799 1.429 . S
C1794 C1786 1.574 . S
C1794 H1789 0.949 1_565 S
C1794 C1800 1.368 . S
C1795 C1779 1.349 . S
C1795 H1787 0.950 . S
C1795 C1793 1.327 . S
C1796 C1784 1.349 1_545 S
C1796 H1790 0.950 . S
C1796 C1797 1.327 . S
C1797 H1791 0.950 . S
C1797 C1796 1.327 . S
C1797 C1801 1.429 1_545 S
C1798 C1781 1.574 . S
C1798 H1792 0.949 . S
C1798 C1802 1.368 . S
C1799 C1780 1.429 . S
C1799 C1793 1.429 . S
C1799 C1800 1.523 . S
C1800 C1781 1.368 . S
C1800 C1794 1.368 . S
C1800 C1799 1.523 . S
C1801 C1785 1.429 . S
C1801 C1797 1.429 1_565 S
C1801 C1802 1.523 . S
C1802 C1786 1.368 . S
C1802 C1798 1.368 . S
C1802 C1801 1.523 . S
H1803 C1778 0.950 . S
H1804 C1780 0.950 1_545 S
H1805 C1781 0.949 . S
H1806 C1783 0.950 . S
H1807 C1785 0.950 . S
C1808 C1809 1.349 . S
C1808 C1810 1.327 . S
C1808 H1833 0.950 . S
C1809 C1808 1.349 . S
C1809 C1825 1.349 . S
C1810 C1808 1.327 . S
C1810 C1829 1.429 . S
C1810 H1834 0.950 . S
C1811 C1828 1.574 . S
C1811 C1830 1.368 . S
C1811 H1835 0.949 . S
H1812 C1816 0.949 . S
C1813 C1814 1.349 . S
C1813 C1815 1.327 . S
C1813 H1836 0.950 . S
C1814 C1813 1.349 . S
C1814 C1826 1.349 . S
C1815 C1813 1.327 . S
C1815 C1831 1.429 . S
C1815 H1837 0.950 . S
C1816 H1812 0.949 . S
C1816 C1824 1.574 . S
C1816 C1832 1.368 . S
H1817 C1825 0.950 . S
H1818 C1823 0.950 . S
H1819 C1824 0.949 . S
H1820 C1826 0.950 . S
H1821 C1827 0.950 . S
H1822 C1828 0.949 . S
C1823 H1818 0.950 . S
C1823 C1825 1.327 . S
C1823 C1829 1.429 . S
C1824 C1816 1.574 . S
C1824 H1819 0.949 . S
C1824 C1830 1.368 . S
C1825 C1809 1.349 . S
C1825 H1817 0.950 . S
C1825 C1823 1.327 . S
C1826 C1814 1.349 . S
C1826 H1820 0.950 . S
C1826 C1827 1.327 . S
C1827 H1821 0.950 . S
C1827 C1826 1.327 . S
C1827 C1831 1.429 . S
C1828 C1811 1.574 . S
C1828 H1822 0.949 . S
C1828 C1832 1.368 . S
C1829 C1810 1.429 . S
C1829 C1823 1.429 . S
C1829 C1830 1.523 . S
C1830 C1811 1.368 . S
C1830 C1824 1.368 . S
C1830 C1829 1.523 . S
C1831 C1815 1.429 . S
C1831 C1827 1.429 . S
C1831 C1832 1.523 . S
C1832 C1816 1.368 . S
C1832 C1828 1.368 . S
C1832 C1831 1.523 . S
H1833 C1808 0.950 . S
H1834 C1810 0.950 . S
H1835 C1811 0.949 . S
H1836 C1813 0.950 . S
H1837 C1815 0.950 . S
C1838 C1839 1.349 . S
C1838 C1840 1.327 . S
C1838 H1863 0.950 . S
C1839 C1838 1.349 . S
C1839 C1855 1.349 . S
C1840 C1838 1.327 . S
C1840 C1859 1.429 . S
C1840 H1864 0.950 . S
C1841 C1858 1.574 . S
C1841 C1860 1.368 . S
C1841 H1865 0.949 . S
H1842 C1846 0.949 . S
C1843 C1844 1.349 . S
C1843 C1845 1.327 . S
C1843 H1866 0.950 . S
C1844 C1843 1.349 . S
C1844 C1856 1.349 . S
C1845 C1843 1.327 . S
C1845 C1861 1.429 . S
C1845 H1867 0.950 . S
C1846 H1842 0.949 . S
C1846 C1854 1.574 . S
C1846 C1862 1.368 . S
H1847 C1855 0.950 . S
H1848 C1853 0.950 . S
H1849 C1854 0.949 . S
H1850 C1856 0.950 . S
H1851 C1857 0.950 . S
H1852 C1858 0.949 . S
C1853 H1848 0.950 . S
C1853 C1855 1.327 . S
C1853 C1859 1.429 . S
C1854 C1846 1.574 . S
C1854 H1849 0.949 . S
C1854 C1860 1.368 . S
C1855 C1839 1.349 . S
C1855 H1847 0.950 . S
C1855 C1853 1.327 . S
C1856 C1844 1.349 . S
C1856 H1850 0.950 . S
C1856 C1857 1.327 . S
C1857 H1851 0.950 . S
C1857 C1856 1.327 . S
C1857 C1861 1.429 . S
C1858 C1841 1.574 . S
C1858 H1852 0.949 . S
C1858 C1862 1.368 . S
C1859 C1840 1.429 . S
C1859 C1853 1.429 . S
C1859 C1860 1.523 . S
C1860 C1841 1.368 . S
C1860 C1854 1.368 . S
C1860 C1859 1.523 . S
C1861 C1845 1.429 . S
C1861 C1857 1.429 . S
C1861 C1862 1.523 . S
C1862 C1846 1.368 . S
C1862 C1858 1.368 . S
C1862 C1861 1.523 . S
H1863 C1838 0.950 . S
H1864 C1840 0.950 . S
H1865 C1841 0.949 . S
H1866 C1843 0.950 . S
H1867 C1845 0.950 . S
C1868 C1869 1.349 . S
C1868 C1870 1.327 . S
C1868 H1893 0.950 . S
C1869 C1868 1.349 . S
C1869 C1885 1.349 . S
C1870 C1868 1.327 . S
C1870 C1889 1.429 . S
C1870 H1894 0.950 . S
C1871 C1888 1.574 . S
C1871 C1890 1.368 . S
C1871 H1895 0.949 . S
H1872 C1876 0.949 . S
C1873 C1874 1.349 . S
C1873 C1875 1.327 . S
C1873 H1896 0.950 . S
C1874 C1873 1.349 . S
C1874 C1886 1.349 . S
C1875 C1873 1.327 . S
C1875 C1891 1.429 . S
C1875 H1897 0.950 . S
C1876 H1872 0.949 . S
C1876 C1884 1.574 . S
C1876 C1892 1.368 . S
H1877 C1885 0.950 . S
H1878 C1883 0.950 . S
H1879 C1884 0.949 . S
H1880 C1886 0.950 . S
H1881 C1887 0.950 . S
H1882 C1888 0.949 . S
C1883 H1878 0.950 . S
C1883 C1885 1.327 . S
C1883 C1889 1.429 . S
C1884 C1876 1.574 . S
C1884 H1879 0.949 . S
C1884 C1890 1.368 . S
C1885 C1869 1.349 . S
C1885 H1877 0.950 . S
C1885 C1883 1.327 . S
C1886 C1874 1.349 . S
C1886 H1880 0.950 . S
C1886 C1887 1.327 . S
C1887 H1881 0.950 . S
C1887 C1886 1.327 . S
C1887 C1891 1.429 . S
C1888 C1871 1.574 . S
C1888 H1882 0.949 . S
C1888 C1892 1.368 . S
C1889 C1870 1.429 . S
C1889 C1883 1.429 . S
C1889 C1890 1.523 . S
C1890 C1871 1.368 . S
C1890 C1884 1.368 . S
C1890 C1889 1.523 . S
C1891 C1875 1.429 . S
C1891 C1887 1.429 . S
C1891 C1892 1.523 . S
C1892 C1876 1.368 . S
C1892 C1888 1.368 . S
C1892 C1891 1.523 . S
H1893 C1868 0.950 . S
H1894 C1870 0.950 . S
H1895 C1871 0.949 . S
H1896 C1873 0.950 . S
H1897 C1875 0.950 . S
C1898 C1899 1.349 . S
C1898 C1900 1.327 . S
C1898 H1923 0.950 . S
C1899 C1898 1.349 . S
C1899 C1915 1.349 . S
C1900 C1898 1.327 . S
C1900 C1919 1.429 . S
C1900 H1924 0.950 . S
C1901 C1918 1.574 . S
C1901 C1920 1.368 . S
C1901 H1925 0.949 . S
H1902 C1906 0.949 . S
C1903 C1904 1.349 . S
C1903 C1905 1.327 . S
C1903 H1926 0.950 . S
C1904 C1903 1.349 . S
C1904 C1916 1.349 . S
C1905 C1903 1.327 . S
C1905 C1921 1.429 . S
C1905 H1927 0.950 . S
C1906 H1902 0.949 . S
C1906 C1914 1.574 . S
C1906 C1922 1.368 . S
H1907 C1915 0.950 . S
H1908 C1913 0.950 . S
H1909 C1914 0.949 . S
H1910 C1916 0.950 . S
H1911 C1917 0.950 . S
H1912 C1918 0.949 . S
C1913 H1908 0.950 . S
C1913 C1915 1.327 . S
C1913 C1919 1.429 . S
C1914 C1906 1.574 . S
C1914 H1909 0.949 . S
C1914 C1920 1.368 . S
C1915 C1899 1.349 . S
C1915 H1907 0.950 . S
C1915 C1913 1.327 . S
C1916 C1904 1.349 . S
C1916 H1910 0.950 . S
C1916 C1917 1.327 . S
C1917 H1911 0.950 . S
C1917 C1916 1.327 . S
C1917 C1921 1.429 . S
C1918 C1901 1.574 . S
C1918 H1912 0.949 . S
C1918 C1922 1.368 . S
C1919 C1900 1.429 . S
C1919 C1913 1.429 . S
C1919 C1920 1.523 . S
C1920 C1901 1.368 . S
C1920 C1914 1.368 . S
C1920 C1919 1.523 . S
C1921 C1905 1.429 . S
C1921 C1917 1.429 . S
C1921 C1922 1.523 . S
C1922 C1906 1.368 . S
C1922 C1918 1.368 . S
C1922 C1921 1.523 . S
H1923 C1898 0.950 . S
H1924 C1900 0.950 . S
H1925 C1901 0.949 . S
H1926 C1903 0.950 . S
H1927 C1905 0.950 . S
C1928 C1929 1.349 . S
C1928 C1930 1.327 . S
C1928 H1953 0.950 . S
C1929 C1928 1.349 . S
C1929 C1945 1.349 . S
C1930 C1928 1.327 . S
C1930 C1949 1.429 . S
C1930 H1954 0.950 . S
C1931 C1948 1.574 . S
C1931 C1950 1.368 . S
C1931 H1955 0.949 . S
H1932 C1936 0.949 . S
C1933 C1934 1.349 . S
C1933 C1935 1.327 . S
C1933 H1956 0.950 . S
C1934 C1933 1.349 . S
C1934 C1946 1.349 . S
C1935 C1933 1.327 . S
C1935 C1951 1.429 . S
C1935 H1957 0.950 . S
C1936 H1932 0.949 . S
C1936 C1944 1.574 . S
C1936 C1952 1.368 . S
H1937 C1945 0.950 . S
H1938 C1943 0.950 . S
H1939 C1944 0.949 . S
H1940 C1946 0.950 . S
H1941 C1947 0.950 . S
H1942 C1948 0.949 . S
C1943 H1938 0.950 . S
C1943 C1945 1.327 . S
C1943 C1949 1.429 . S
C1944 C1936 1.574 . S
C1944 H1939 0.949 . S
C1944 C1950 1.368 . S
C1945 C1929 1.349 . S
C1945 H1937 0.950 . S
C1945 C1943 1.327 . S
C1946 C1934 1.349 . S
C1946 H1940 0.950 . S
C1946 C1947 1.327 . S
C1947 H1941 0.950 . S
C1947 C1946 1.327 . S
C1947 C1951 1.429 . S
C1948 C1931 1.574 . S
C1948 H1942 0.949 . S
C1948 C1952 1.368 . S
C1949 C1930 1.429 . S
C1949 C1943 1.429 . S
C1949 C1950 1.523 . S
C1950 C1931 1.368 . S
C1950 C1944 1.368 . S
C1950 C1949 1.523 . S
C1951 C1935 1.429 . S
C1951 C1947 1.429 . S
C1951 C1952 1.523 . S
C1952 C1936 1.368 . S
C1952 C1948 1.368 . S
C1952 C1951 1.523 . S
H1953 C1928 0.950 . S
H1954 C1930 0.950 . S
H1955 C1931 0.949 . S
H1956 C1933 0.950 . S
H1957 C1935 0.950 . S
C1958 C1959 1.349 . S
C1958 C1960 1.327 . S
C1958 H1983 0.950 . S
C1959 C1958 1.349 . S
C1959 C1975 1.349 . S
C1960 C1958 1.327 . S
C1960 C1979 1.429 . S
C1960 H1984 0.950 . S
C1961 C1978 1.574 . S
C1961 C1980 1.368 . S
C1961 H1985 0.950 1_455 S
H1962 C1966 0.949 . S
C1963 C1964 1.349 . S
C1963 C1965 1.327 . S
C1963 H1986 0.950 1_455 S
C1964 C1963 1.349 . S
C1964 C1976 1.349 . S
C1965 C1963 1.327 . S
C1965 C1981 1.429 . S
C1965 H1987 0.950 1_455 S
C1966 H1962 0.949 . S
C1966 C1974 1.574 . S
C1966 C1982 1.368 . S
H1967 C1975 0.950 . S
H1968 C1973 0.950 . S
H1969 C1974 0.949 . S
H1970 C1976 0.950 . S
H1971 C1977 0.950 . S
H1972 C1978 0.949 1_655 S
C1973 H1968 0.950 . S
C1973 C1975 1.327 . S
C1973 C1979 1.429 . S
C1974 C1966 1.574 . S
C1974 H1969 0.949 . S
C1974 C1980 1.368 . S
C1975 C1959 1.349 . S
C1975 H1967 0.950 . S
C1975 C1973 1.327 . S
C1976 C1964 1.349 . S
C1976 H1970 0.950 . S
C1976 C1977 1.327 . S
C1977 H1971 0.950 . S
C1977 C1976 1.327 . S
C1977 C1981 1.429 . S
C1978 C1961 1.574 . S
C1978 H1972 0.949 1_455 S
C1978 C1982 1.368 . S
C1979 C1960 1.429 . S
C1979 C1973 1.429 . S
C1979 C1980 1.523 . S
C1980 C1961 1.368 . S
C1980 C1974 1.368 . S
C1980 C1979 1.523 . S
C1981 C1965 1.429 . S
C1981 C1977 1.429 . S
C1981 C1982 1.523 . S
C1982 C1966 1.368 . S
C1982 C1978 1.368 . S
C1982 C1981 1.523 . S
H1983 C1958 0.950 . S
H1984 C1960 0.950 . S
H1985 C1961 0.950 1_655 S
H1986 C1963 0.950 1_655 S
H1987 C1965 0.950 1_655 S
C1988 C1989 1.349 . S
C1988 C1990 1.327 . S
C1988 H2013 0.950 . S
C1989 C1988 1.349 . S
C1989 C2005 1.349 . S
C1990 C1988 1.327 . S
C1990 C2009 1.429 . S
C1990 H2014 0.950 . S
C1991 C2008 1.574 . S
C1991 C2010 1.368 . S
C1991 H2015 0.949 . S
H1992 C1996 0.949 . S
C1993 C1994 1.349 . S
C1993 C1995 1.327 . S
C1993 H2016 0.950 . S
C1994 C1993 1.349 . S
C1994 C2006 1.349 . S
C1995 C1993 1.327 . S
C1995 C2011 1.429 . S
C1995 H2017 0.950 . S
C1996 H1992 0.949 . S
C1996 C2004 1.574 . S
C1996 C2012 1.368 . S
H1997 C2005 0.950 . S
H1998 C2003 0.950 . S
H1999 C2004 0.949 . S
H2000 C2006 0.950 . S
H2001 C2007 0.950 . S
H2002 C2008 0.949 . S
C2003 H1998 0.950 . S
C2003 C2005 1.327 . S
C2003 C2009 1.429 . S
C2004 C1996 1.574 . S
C2004 H1999 0.949 . S
C2004 C2010 1.368 . S
C2005 C1989 1.349 . S
C2005 H1997 0.950 . S
C2005 C2003 1.327 . S
C2006 C1994 1.349 . S
C2006 H2000 0.950 . S
C2006 C2007 1.327 . S
C2007 H2001 0.950 . S
C2007 C2006 1.327 . S
C2007 C2011 1.429 . S
C2008 C1991 1.574 . S
C2008 H2002 0.949 . S
C2008 C2012 1.368 . S
C2009 C1990 1.429 . S
C2009 C2003 1.429 . S
C2009 C2010 1.523 . S
C2010 C1991 1.368 . S
C2010 C2004 1.368 . S
C2010 C2009 1.523 . S
C2011 C1995 1.429 . S
C2011 C2007 1.429 . S
C2011 C2012 1.523 . S
C2012 C1996 1.368 . S
C2012 C2008 1.368 . S
C2012 C2011 1.523 . S
H2013 C1988 0.950 . S
H2014 C1990 0.950 . S
H2015 C1991 0.949 . S
H2016 C1993 0.950 . S
H2017 C1995 0.950 . S
C2018 C2019 1.349 . S
C2018 C2020 1.327 . S
C2018 H2043 0.950 . S
C2019 C2018 1.349 . S
C2019 C2035 1.349 . S
C2020 C2018 1.327 . S
C2020 C2039 1.429 . S
C2020 H2044 0.950 . S
C2021 C2038 1.574 . S
C2021 C2040 1.368 . S
C2021 H2045 0.949 . S
H2022 C2026 0.949 1_455 S
C2023 C2024 1.349 . S
C2023 C2025 1.327 . S
C2023 H2046 0.950 . S
C2024 C2023 1.349 . S
C2024 C2036 1.386 . S
C2025 C2023 1.327 . S
C2025 C2041 1.429 . S
C2025 H2047 0.950 . S
C2026 H2022 0.949 1_655 S
C2026 C2034 1.574 . S
C2026 C2042 1.368 . S
H2027 C2035 0.950 . S
H2028 C2033 0.950 . S
H2029 C2034 0.974 . S
H2030 C2036 0.909 1_455 S
H2031 C2037 0.950 1_455 S
H2032 C2038 0.949 . S
C2033 H2028 0.950 . S
C2033 C2035 1.327 . S
C2033 C2039 1.429 . S
C2034 C2026 1.574 . S
C2034 H2029 0.974 . S
C2034 C2040 1.368 . S
C2035 C2019 1.349 . S
C2035 H2027 0.950 . S
C2035 C2033 1.327 . S
C2036 C2024 1.386 . S
C2036 H2030 0.909 1_655 S
C2036 C2037 1.333 . S
C2037 H2031 0.950 1_655 S
C2037 C2036 1.333 . S
C2037 C2041 1.429 . S
C2038 C2021 1.574 . S
C2038 H2032 0.949 . S
C2038 C2042 1.368 . S
C2039 C2020 1.429 . S
C2039 C2033 1.429 . S
C2039 C2040 1.523 . S
C2040 C2021 1.368 . S
C2040 C2034 1.368 . S
C2040 C2039 1.523 . S
C2041 C2025 1.429 . S
C2041 C2037 1.429 . S
C2041 C2042 1.523 . S
C2042 C2026 1.368 . S
C2042 C2038 1.368 . S
C2042 C2041 1.523 . S
H2043 C2018 0.950 . S
H2044 C2020 0.950 . S
H2045 C2021 0.949 . S
H2046 C2023 0.950 . S
H2047 C2025 0.950 . S
C2048 C2049 1.349 . S
C2048 C2050 1.327 . S
C2048 H2073 0.950 . S
C2049 C2048 1.349 . S
C2049 C2065 1.349 . S
C2050 C2048 1.327 . S
C2050 C2069 1.429 . S
C2050 H2074 0.950 . S
C2051 C2068 1.574 . S
C2051 C2070 1.368 . S
C2051 H2075 0.949 . S
H2052 C2056 0.949 . S
C2053 C2054 1.349 . S
C2053 C2055 1.327 . S
C2053 H2076 0.950 . S
C2054 C2053 1.349 . S
C2054 C2066 1.349 . S
C2055 C2053 1.327 . S
C2055 C2071 1.429 . S
C2055 H2077 0.950 . S
C2056 H2052 0.949 . S
C2056 C2064 1.574 . S
C2056 C2072 1.368 . S
H2057 C2065 0.950 . S
H2058 C2063 0.950 . S
H2059 C2064 0.949 . S
H2060 C2066 0.950 . S
H2061 C2067 0.950 . S
H2062 C2068 0.949 . S
C2063 H2058 0.950 . S
C2063 C2065 1.327 . S
C2063 C2069 1.429 . S
C2064 C2056 1.574 . S
C2064 H2059 0.949 . S
C2064 C2070 1.368 . S
C2065 C2049 1.349 . S
C2065 H2057 0.950 . S
C2065 C2063 1.327 . S
C2066 C2054 1.349 . S
C2066 H2060 0.950 . S
C2066 C2067 1.327 . S
C2067 H2061 0.950 . S
C2067 C2066 1.327 . S
C2067 C2071 1.429 . S
C2068 C2051 1.574 . S
C2068 H2062 0.949 . S
C2068 C2072 1.368 . S
C2069 C2050 1.429 . S
C2069 C2063 1.429 . S
C2069 C2070 1.523 . S
C2070 C2051 1.368 . S
C2070 C2064 1.368 . S
C2070 C2069 1.523 . S
C2071 C2055 1.429 . S
C2071 C2067 1.429 . S
C2071 C2072 1.523 . S
C2072 C2056 1.368 . S
C2072 C2068 1.368 . S
C2072 C2071 1.523 . S
H2073 C2048 0.950 . S
H2074 C2050 0.950 . S
H2075 C2051 0.949 . S
H2076 C2053 0.950 . S
H2077 C2055 0.950 . S
C2078 C2079 1.349 . S
C2078 C2080 1.327 . S
C2078 H2103 0.950 . S
C2079 C2078 1.349 . S
C2079 C2095 1.349 . S
C2080 C2078 1.327 . S
C2080 C2099 1.429 . S
C2080 H2104 0.950 . S
C2081 C2098 1.574 . S
C2081 C2100 1.368 . S
C2081 H2105 0.949 . S
H2082 C2086 0.949 . S
C2083 C2084 1.349 . S
C2083 C2085 1.327 . S
C2083 H2106 0.950 . S
C2084 C2083 1.349 . S
C2084 C2096 1.349 . S
C2085 C2083 1.327 . S
C2085 C2101 1.429 . S
C2085 H2107 0.950 . S
C2086 H2082 0.949 . S
C2086 C2094 1.574 . S
C2086 C2102 1.368 . S
H2087 C2095 0.950 . S
H2088 C2093 0.950 . S
H2089 C2094 0.949 . S
H2090 C2096 0.950 . S
H2091 C2097 0.950 . S
H2092 C2098 0.949 . S
C2093 H2088 0.950 . S
C2093 C2095 1.327 . S
C2093 C2099 1.429 . S
C2094 C2086 1.574 . S
C2094 H2089 0.949 . S
C2094 C2100 1.368 . S
C2095 C2079 1.349 . S
C2095 H2087 0.950 . S
C2095 C2093 1.327 . S
C2096 C2084 1.349 . S
C2096 H2090 0.950 . S
C2096 C2097 1.327 . S
C2097 H2091 0.950 . S
C2097 C2096 1.327 . S
C2097 C2101 1.429 . S
C2098 C2081 1.574 . S
C2098 H2092 0.949 . S
C2098 C2102 1.368 . S
C2099 C2080 1.429 . S
C2099 C2093 1.429 . S
C2099 C2100 1.523 . S
C2100 C2081 1.368 . S
C2100 C2094 1.368 . S
C2100 C2099 1.523 . S
C2101 C2085 1.429 . S
C2101 C2097 1.429 . S
C2101 C2102 1.523 . S
C2102 C2086 1.368 . S
C2102 C2098 1.368 . S
C2102 C2101 1.523 . S
H2103 C2078 0.950 . S
H2104 C2080 0.950 . S
H2105 C2081 0.949 . S
H2106 C2083 0.950 . S
H2107 C2085 0.950 . S
C2108 C2109 1.349 . S
C2108 C2110 1.327 . S
C2108 H2133 0.950 . S
C2109 C2108 1.349 . S
C2109 C2125 1.349 . S
C2110 C2108 1.327 . S
C2110 C2129 1.429 . S
C2110 H2134 0.950 . S
C2111 C2128 1.574 . S
C2111 C2130 1.368 . S
C2111 H2135 0.949 1_556 S
H2112 C2116 0.949 . S
C2113 C2114 1.332 1_554 S
C2113 C2115 1.324 1_554 S
C2113 H2136 0.969 . S
C2114 C2113 1.332 1_556 S
C2114 C2126 1.349 . S
C2115 C2113 1.324 1_556 S
C2115 C2131 1.475 . S
C2115 H2137 0.908 1_556 S
C2116 H2112 0.949 . S
C2116 C2124 1.574 . S
C2116 C2132 1.368 . S
H2117 C2125 0.950 1_545 S
H2118 C2123 0.957 . S
H2119 C2124 0.949 . S
H2120 C2126 0.950 . S
H2121 C2127 0.950 . S
H2122 C2128 0.949 1_554 S
C2123 H2118 0.957 . S
C2123 C2125 1.327 . S
C2123 C2129 1.429 . S
C2124 C2116 1.574 . S
C2124 H2119 0.949 . S
C2124 C2130 1.368 . S
C2125 C2109 1.349 . S
C2125 H2117 0.950 1_565 S
C2125 C2123 1.327 . S
C2126 C2114 1.349 . S
C2126 H2120 0.950 . S
C2126 C2127 1.327 . S
C2127 H2121 0.950 . S
C2127 C2126 1.327 . S
C2127 C2131 1.429 . S
C2128 C2111 1.574 . S
C2128 H2122 0.949 1_556 S
C2128 C2132 1.368 . S
C2129 C2110 1.429 . S
C2129 C2123 1.429 . S
C2129 C2130 1.523 . S
C2130 C2111 1.368 . S
C2130 C2124 1.368 . S
C2130 C2129 1.523 . S
C2131 C2115 1.475 . S
C2131 C2127 1.429 . S
C2131 C2132 1.523 . S
C2132 C2116 1.368 . S
C2132 C2128 1.368 . S
C2132 C2131 1.523 . S
H2133 C2108 0.950 . S
H2134 C2110 0.950 . S
H2135 C2111 0.949 1_554 S
H2136 C2113 0.969 . S
H2137 C2115 0.908 1_554 S
C2138 C2139 1.349 . S
C2138 C2140 1.327 . S
C2138 H2163 0.950 . S
C2139 C2138 1.349 . S
C2139 C2155 1.349 . S
C2140 C2138 1.327 . S
C2140 C2159 1.429 . S
C2140 H2164 0.950 . S
C2141 C2158 1.574 . S
C2141 C2160 1.368 . S
C2141 H2165 0.949 . S
H2142 C2146 0.949 . S
C2143 C2144 1.349 . S
C2143 C2145 1.327 . S
C2143 H2166 0.950 . S
C2144 C2143 1.349 . S
C2144 C2156 1.349 . S
C2145 C2143 1.327 . S
C2145 C2161 1.429 . S
C2145 H2167 0.950 . S
C2146 H2142 0.949 . S
C2146 C2154 1.574 . S
C2146 C2162 1.368 . S
H2147 C2155 0.950 . S
H2148 C2153 0.950 . S
H2149 C2154 0.949 . S
H2150 C2156 0.950 . S
H2151 C2157 0.950 . S
H2152 C2158 0.949 . S
C2153 H2148 0.950 . S
C2153 C2155 1.327 . S
C2153 C2159 1.429 . S
C2154 C2146 1.574 . S
C2154 H2149 0.949 . S
C2154 C2160 1.368 . S
C2155 C2139 1.349 . S
C2155 H2147 0.950 . S
C2155 C2153 1.327 . S
C2156 C2144 1.349 . S
C2156 H2150 0.950 . S
C2156 C2157 1.327 . S
C2157 H2151 0.950 . S
C2157 C2156 1.327 . S
C2157 C2161 1.429 . S
C2158 C2141 1.574 . S
C2158 H2152 0.949 . S
C2158 C2162 1.368 . S
C2159 C2140 1.429 . S
C2159 C2153 1.429 . S
C2159 C2160 1.523 . S
C2160 C2141 1.368 . S
C2160 C2154 1.368 . S
C2160 C2159 1.523 . S
C2161 C2145 1.429 . S
C2161 C2157 1.429 . S
C2161 C2162 1.523 . S
C2162 C2146 1.368 . S
C2162 C2158 1.368 . S
C2162 C2161 1.523 . S
H2163 C2138 0.950 . S
H2164 C2140 0.950 . S
H2165 C2141 0.949 . S
H2166 C2143 0.950 . S
H2167 C2145 0.950 . S
C2168 C2169 1.349 . S
C2168 C2170 1.327 . S
C2168 H2193 0.950 . S
C2169 C2168 1.349 . S
C2169 C2185 1.349 . S
C2170 C2168 1.327 . S
C2170 C2189 1.429 . S
C2170 H2194 0.950 . S
C2171 C2188 1.574 . S
C2171 C2190 1.368 . S
C2171 H2195 0.949 . S
H2172 C2176 0.949 . S
C2173 C2174 1.349 . S
C2173 C2175 1.327 . S
C2173 H2196 0.950 . S
C2174 C2173 1.349 . S
C2174 C2186 1.349 . S
C2175 C2173 1.327 . S
C2175 C2191 1.429 . S
C2175 H2197 0.950 . S
C2176 H2172 0.949 . S
C2176 C2184 1.574 . S
C2176 C2192 1.368 . S
H2177 C2185 0.950 1_565 S
H2178 C2183 0.950 . S
H2179 C2184 0.949 . S
H2180 C2186 0.950 . S
H2181 C2187 0.950 . S
H2182 C2188 0.949 . S
C2183 H2178 0.950 . S
C2183 C2185 1.327 . S
C2183 C2189 1.429 . S
C2184 C2176 1.574 . S
C2184 H2179 0.949 . S
C2184 C2190 1.368 . S
C2185 C2169 1.349 . S
C2185 H2177 0.950 1_545 S
C2185 C2183 1.327 . S
C2186 C2174 1.349 . S
C2186 H2180 0.950 . S
C2186 C2187 1.327 . S
C2187 H2181 0.950 . S
C2187 C2186 1.327 . S
C2187 C2191 1.429 . S
C2188 C2171 1.574 . S
C2188 H2182 0.949 . S
C2188 C2192 1.368 . S
C2189 C2170 1.429 . S
C2189 C2183 1.429 . S
C2189 C2190 1.523 . S
C2190 C2171 1.368 . S
C2190 C2184 1.368 . S
C2190 C2189 1.523 . S
C2191 C2175 1.429 . S
C2191 C2187 1.429 . S
C2191 C2192 1.523 . S
C2192 C2176 1.368 . S
C2192 C2188 1.368 . S
C2192 C2191 1.523 . S
H2193 C2168 0.950 . S
H2194 C2170 0.950 . S
H2195 C2171 0.949 . S
H2196 C2173 0.950 . S
H2197 C2175 0.950 . S
C2198 C2199 1.349 . S
C2198 C2200 1.327 . S
C2198 H2223 0.950 . S
C2199 C2198 1.349 . S
C2199 C2215 1.349 . S
C2200 C2198 1.327 . S
C2200 C2219 1.429 . S
C2200 H2224 0.950 . S
C2201 C2218 1.574 . S
C2201 C2220 1.368 . S
C2201 H2225 0.949 . S
H2202 C2206 0.949 . S
C2203 C2204 1.349 . S
C2203 C2205 1.327 . S
C2203 H2226 0.950 . S
C2204 C2203 1.349 . S
C2204 C2216 1.349 . S
C2205 C2203 1.327 . S
C2205 C2221 1.429 . S
C2205 H2227 0.950 . S
C2206 H2202 0.949 . S
C2206 C2214 1.574 . S
C2206 C2222 1.368 . S
H2207 C2215 0.950 . S
H2208 C2213 0.950 . S
H2209 C2214 0.949 . S
H2210 C2216 0.950 . S
H2211 C2217 0.950 . S
H2212 C2218 0.949 . S
C2213 H2208 0.950 . S
C2213 C2215 1.327 . S
C2213 C2219 1.429 . S
C2214 C2206 1.574 . S
C2214 H2209 0.949 . S
C2214 C2220 1.368 . S
C2215 C2199 1.349 . S
C2215 H2207 0.950 . S
C2215 C2213 1.327 . S
C2216 C2204 1.349 . S
C2216 H2210 0.950 . S
C2216 C2217 1.327 . S
C2217 H2211 0.950 . S
C2217 C2216 1.327 . S
C2217 C2221 1.429 . S
C2218 C2201 1.574 . S
C2218 H2212 0.949 . S
C2218 C2222 1.368 . S
C2219 C2200 1.429 . S
C2219 C2213 1.429 . S
C2219 C2220 1.523 . S
C2220 C2201 1.368 . S
C2220 C2214 1.368 . S
C2220 C2219 1.523 . S
C2221 C2205 1.429 . S
C2221 C2217 1.429 . S
C2221 C2222 1.523 . S
C2222 C2206 1.368 . S
C2222 C2218 1.368 . S
C2222 C2221 1.523 . S
H2223 C2198 0.950 . S
H2224 C2200 0.950 . S
H2225 C2201 0.949 . S
H2226 C2203 0.950 . S
H2227 C2205 0.950 . S
C2228 C2229 1.349 . S
C2228 C2230 1.327 . S
C2228 H2253 0.950 . S
C2229 C2228 1.349 . S
C2229 C2245 1.349 . S
C2230 C2228 1.327 . S
C2230 C2249 1.429 . S
C2230 H2254 0.950 . S
C2231 C2248 1.574 . S
C2231 C2250 1.368 . S
C2231 H2255 0.949 . S
H2232 C2236 0.949 . S
C2233 C2234 1.349 . S
C2233 C2235 1.327 . S
C2233 H2256 0.950 . S
C2234 C2233 1.349 . S
C2234 C2246 1.349 . S
C2235 C2233 1.327 . S
C2235 C2251 1.429 . S
C2235 H2257 0.950 . S
C2236 H2232 0.949 . S
C2236 C2244 1.574 . S
C2236 C2252 1.368 . S
H2237 C2245 0.950 . S
H2238 C2243 0.950 . S
H2239 C2244 0.949 . S
H2240 C2246 0.950 . S
H2241 C2247 0.950 . S
H2242 C2248 0.949 . S
C2243 H2238 0.950 . S
C2243 C2245 1.327 . S
C2243 C2249 1.429 . S
C2244 C2236 1.574 . S
C2244 H2239 0.949 . S
C2244 C2250 1.368 . S
C2245 C2229 1.349 . S
C2245 H2237 0.950 . S
C2245 C2243 1.327 . S
C2246 C2234 1.349 . S
C2246 H2240 0.950 . S
C2246 C2247 1.327 . S
C2247 H2241 0.950 . S
C2247 C2246 1.327 . S
C2247 C2251 1.429 . S
C2248 C2231 1.574 . S
C2248 H2242 0.949 . S
C2248 C2252 1.368 . S
C2249 C2230 1.429 . S
C2249 C2243 1.429 . S
C2249 C2250 1.523 . S
C2250 C2231 1.368 . S
C2250 C2244 1.368 . S
C2250 C2249 1.523 . S
C2251 C2235 1.429 . S
C2251 C2247 1.429 . S
C2251 C2252 1.523 . S
C2252 C2236 1.368 . S
C2252 C2248 1.368 . S
C2252 C2251 1.523 . S
H2253 C2228 0.950 . S
H2254 C2230 0.950 . S
H2255 C2231 0.949 . S
H2256 C2233 0.950 . S
H2257 C2235 0.950 . S
C2258 C2259 1.349 . S
C2258 C2260 1.327 . S
C2258 H2283 0.950 . S
C2259 C2258 1.349 . S
C2259 C2275 1.349 . S
C2260 C2258 1.327 . S
C2260 C2279 1.429 . S
C2260 H2284 0.950 . S
C2261 C2278 1.574 . S
C2261 C2280 1.368 . S
C2261 H2285 0.949 . S
H2262 C2266 0.949 . S
C2263 C2264 1.349 . S
C2263 C2265 1.327 . S
C2263 H2286 0.950 . S
C2264 C2263 1.349 . S
C2264 C2276 1.349 . S
C2265 C2263 1.327 . S
C2265 C2281 1.429 . S
C2265 H2287 0.950 . S
C2266 H2262 0.949 . S
C2266 C2274 1.574 . S
C2266 C2282 1.368 . S
H2267 C2275 0.950 . S
H2268 C2273 0.950 . S
H2269 C2274 0.949 . S
H2270 C2276 0.950 . S
H2271 C2277 0.950 . S
H2272 C2278 0.949 . S
C2273 H2268 0.950 . S
C2273 C2275 1.327 . S
C2273 C2279 1.429 . S
C2274 C2266 1.574 . S
C2274 H2269 0.949 . S
C2274 C2280 1.368 . S
C2275 C2259 1.349 . S
C2275 H2267 0.950 . S
C2275 C2273 1.327 . S
C2276 C2264 1.349 . S
C2276 H2270 0.950 . S
C2276 C2277 1.327 . S
C2277 H2271 0.950 . S
C2277 C2276 1.327 . S
C2277 C2281 1.429 . S
C2278 C2261 1.574 . S
C2278 H2272 0.949 . S
C2278 C2282 1.368 . S
C2279 C2260 1.429 . S
C2279 C2273 1.429 . S
C2279 C2280 1.523 . S
C2280 C2261 1.368 . S
C2280 C2274 1.368 . S
C2280 C2279 1.523 . S
C2281 C2265 1.429 . S
C2281 C2277 1.429 . S
C2281 C2282 1.523 . S
C2282 C2266 1.368 . S
C2282 C2278 1.368 . S
C2282 C2281 1.523 . S
H2283 C2258 0.950 . S
H2284 C2260 0.950 . S
H2285 C2261 0.949 . S
H2286 C2263 0.950 . S
H2287 C2265 0.950 . S
C2288 C2289 1.349 . S
C2288 C2290 1.327 . S
C2288 H2313 0.950 . S
C2289 C2288 1.349 . S
C2289 C2305 1.349 . S
C2290 C2288 1.327 . S
C2290 C2309 1.429 . S
C2290 H2314 0.950 . S
C2291 C2308 1.574 . S
C2291 C2310 1.368 . S
C2291 H2315 0.949 . S
H2292 C2296 0.949 . S
C2293 C2294 1.349 . S
C2293 C2295 1.327 . S
C2293 H2316 0.950 . S
C2294 C2293 1.349 . S
C2294 C2306 1.349 . S
C2295 C2293 1.327 . S
C2295 C2311 1.429 . S
C2295 H2317 0.950 . S
C2296 H2292 0.949 . S
C2296 C2304 1.574 . S
C2296 C2312 1.368 . S
H2297 C2305 0.950 . S
H2298 C2303 0.950 . S
H2299 C2304 0.949 . S
H2300 C2306 0.950 . S
H2301 C2307 0.950 . S
H2302 C2308 0.949 . S
C2303 H2298 0.950 . S
C2303 C2305 1.327 . S
C2303 C2309 1.429 . S
C2304 C2296 1.574 . S
C2304 H2299 0.949 . S
C2304 C2310 1.368 . S
C2305 C2289 1.349 . S
C2305 H2297 0.950 . S
C2305 C2303 1.327 . S
C2306 C2294 1.349 . S
C2306 H2300 0.950 . S
C2306 C2307 1.327 . S
C2307 H2301 0.950 . S
C2307 C2306 1.327 . S
C2307 C2311 1.429 . S
C2308 C2291 1.574 . S
C2308 H2302 0.949 . S
C2308 C2312 1.368 . S
C2309 C2290 1.429 . S
C2309 C2303 1.429 . S
C2309 C2310 1.523 . S
C2310 C2291 1.368 . S
C2310 C2304 1.368 . S
C2310 C2309 1.523 . S
C2311 C2295 1.429 . S
C2311 C2307 1.429 . S
C2311 C2312 1.523 . S
C2312 C2296 1.368 . S
C2312 C2308 1.368 . S
C2312 C2311 1.523 . S
H2313 C2288 0.950 . S
H2314 C2290 0.950 . S
H2315 C2291 0.949 . S
H2316 C2293 0.950 . S
H2317 C2295 0.950 . S
C2318 C2319 1.349 . S
C2318 C2320 1.327 . S
C2318 H2343 0.950 . S
C2319 C2318 1.349 . S
C2319 C2335 1.349 . S
C2320 C2318 1.327 . S
C2320 C2339 1.429 . S
C2320 H2344 0.950 . S
C2321 C2338 1.574 . S
C2321 C2340 1.368 . S
C2321 H2345 0.949 . S
H2322 C2326 0.949 . S
C2323 C2324 1.349 . S
C2323 C2325 1.327 . S
C2323 H2346 0.950 1_545 S
C2324 C2323 1.349 . S
C2324 C2336 1.349 . S
C2325 C2323 1.327 . S
C2325 C2341 1.429 . S
C2325 H2347 0.950 1_545 S
C2326 H2322 0.949 . S
C2326 C2334 1.574 . S
C2326 C2342 1.368 . S
H2327 C2335 0.950 . S
H2328 C2333 0.950 . S
H2329 C2334 0.949 . S
H2330 C2336 0.950 . S
H2331 C2337 0.950 . S
H2332 C2338 0.949 1_565 S
C2333 H2328 0.950 . S
C2333 C2335 1.327 . S
C2333 C2339 1.429 . S
C2334 C2326 1.574 . S
C2334 H2329 0.949 . S
C2334 C2340 1.368 . S
C2335 C2319 1.349 . S
C2335 H2327 0.950 . S
C2335 C2333 1.327 . S
C2336 C2324 1.349 . S
C2336 H2330 0.950 . S
C2336 C2337 1.327 . S
C2337 H2331 0.950 . S
C2337 C2336 1.327 . S
C2337 C2341 1.429 . S
C2338 C2321 1.574 . S
C2338 H2332 0.949 1_545 S
C2338 C2342 1.368 . S
C2339 C2320 1.429 . S
C2339 C2333 1.429 . S
C2339 C2340 1.523 . S
C2340 C2321 1.368 . S
C2340 C2334 1.368 . S
C2340 C2339 1.523 . S
C2341 C2325 1.429 . S
C2341 C2337 1.429 . S
C2341 C2342 1.523 . S
C2342 C2326 1.368 . S
C2342 C2338 1.368 . S
C2342 C2341 1.523 . S
H2343 C2318 0.950 . S
H2344 C2320 0.950 . S
H2345 C2321 0.949 . S
H2346 C2323 0.950 1_565 S
H2347 C2325 0.950 1_565 S
C2348 C2349 1.349 . S
C2348 C2350 1.327 . S
C2348 H2373 0.950 . S
C2349 C2348 1.349 . S
C2349 C2365 1.349 . S
C2350 C2348 1.327 . S
C2350 C2369 1.429 . S
C2350 H2374 0.950 . S
C2351 C2368 1.574 . S
C2351 C2370 1.368 . S
C2351 H2375 0.949 . S
H2352 C2356 0.949 . S
C2353 C2354 1.349 . S
C2353 C2355 1.327 . S
C2353 H2376 0.950 . S
C2354 C2353 1.349 . S
C2354 C2366 1.349 . S
C2355 C2353 1.327 . S
C2355 C2371 1.429 . S
C2355 H2377 0.950 . S
C2356 H2352 0.949 . S
C2356 C2364 1.574 . S
C2356 C2372 1.368 . S
H2357 C2365 0.950 . S
H2358 C2363 0.950 . S
H2359 C2364 0.949 . S
H2360 C2366 0.950 . S
H2361 C2367 0.950 . S
H2362 C2368 0.949 . S
C2363 H2358 0.950 . S
C2363 C2365 1.327 . S
C2363 C2369 1.429 . S
C2364 C2356 1.574 . S
C2364 H2359 0.949 . S
C2364 C2370 1.368 . S
C2365 C2349 1.349 . S
C2365 H2357 0.950 . S
C2365 C2363 1.327 . S
C2366 C2354 1.349 . S
C2366 H2360 0.950 . S
C2366 C2367 1.327 . S
C2367 H2361 0.950 . S
C2367 C2366 1.327 . S
C2367 C2371 1.429 . S
C2368 C2351 1.574 . S
C2368 H2362 0.949 . S
C2368 C2372 1.368 . S
C2369 C2350 1.429 . S
C2369 C2363 1.429 . S
C2369 C2370 1.523 . S
C2370 C2351 1.368 . S
C2370 C2364 1.368 . S
C2370 C2369 1.523 . S
C2371 C2355 1.429 . S
C2371 C2367 1.429 . S
C2371 C2372 1.523 . S
C2372 C2356 1.368 . S
C2372 C2368 1.368 . S
C2372 C2371 1.523 . S
H2373 C2348 0.950 . S
H2374 C2350 0.950 . S
H2375 C2351 0.949 . S
H2376 C2353 0.950 . S
H2377 C2355 0.950 . S
C2378 C2379 1.349 . S
C2378 C2380 1.327 . S
C2378 H2403 0.950 . S
C2379 C2378 1.349 . S
C2379 C2395 1.349 . S
C2380 C2378 1.327 . S
C2380 C2399 1.429 . S
C2380 H2404 0.950 . S
C2381 C2398 1.574 . S
C2381 C2400 1.368 . S
C2381 H2405 0.949 . S
H2382 C2386 0.949 . S
C2383 C2384 1.349 . S
C2383 C2385 1.327 . S
C2383 H2406 0.950 . S
C2384 C2383 1.349 . S
C2384 C2396 1.349 . S
C2385 C2383 1.327 . S
C2385 C2401 1.429 . S
C2385 H2407 0.950 . S
C2386 H2382 0.949 . S
C2386 C2394 1.574 . S
C2386 C2402 1.368 . S
H2387 C2395 0.950 . S
H2388 C2393 0.950 . S
H2389 C2394 0.949 . S
H2390 C2396 0.950 . S
H2391 C2397 0.950 . S
H2392 C2398 0.949 . S
C2393 H2388 0.950 . S
C2393 C2395 1.327 . S
C2393 C2399 1.429 . S
C2394 C2386 1.574 . S
C2394 H2389 0.949 . S
C2394 C2400 1.368 . S
C2395 C2379 1.349 . S
C2395 H2387 0.950 . S
C2395 C2393 1.327 . S
C2396 C2384 1.349 . S
C2396 H2390 0.950 . S
C2396 C2397 1.327 . S
C2397 H2391 0.950 . S
C2397 C2396 1.327 . S
C2397 C2401 1.429 . S
C2398 C2381 1.574 . S
C2398 H2392 0.949 . S
C2398 C2402 1.368 . S
C2399 C2380 1.429 . S
C2399 C2393 1.429 . S
C2399 C2400 1.523 . S
C2400 C2381 1.368 . S
C2400 C2394 1.368 . S
C2400 C2399 1.523 . S
C2401 C2385 1.429 . S
C2401 C2397 1.429 . S
C2401 C2402 1.523 . S
C2402 C2386 1.368 . S
C2402 C2398 1.368 . S
C2402 C2401 1.523 . S
H2403 C2378 0.950 . S
H2404 C2380 0.950 . S
H2405 C2381 0.949 . S
H2406 C2383 0.950 . S
H2407 C2385 0.950 . S
C2408 C2409 1.349 . S
C2408 C2410 1.327 . S
C2408 H2433 0.950 . S
C2409 C2408 1.349 . S
C2409 C2425 1.349 . S
C2410 C2408 1.327 . S
C2410 C2429 1.429 . S
C2410 H2434 0.950 . S
C2411 C2428 1.574 . S
C2411 C2430 1.368 . S
C2411 H2435 0.949 . S
H2412 C2416 0.949 . S
C2413 C2414 1.349 . S
C2413 C2415 1.327 . S
C2413 H2436 0.950 . S
C2414 C2413 1.349 . S
C2414 C2426 1.349 . S
C2415 C2413 1.327 . S
C2415 C2431 1.429 . S
C2415 H2437 0.950 . S
C2416 H2412 0.949 . S
C2416 C2424 1.574 . S
C2416 C2432 1.368 . S
H2417 C2425 0.950 . S
H2418 C2423 0.950 . S
H2419 C2424 0.949 . S
H2420 C2426 0.950 . S
H2421 C2427 0.950 . S
H2422 C2428 0.949 . S
C2423 H2418 0.950 . S
C2423 C2425 1.327 . S
C2423 C2429 1.429 . S
C2424 C2416 1.574 . S
C2424 H2419 0.949 . S
C2424 C2430 1.368 . S
C2425 C2409 1.349 . S
C2425 H2417 0.950 . S
C2425 C2423 1.327 . S
C2426 C2414 1.349 . S
C2426 H2420 0.950 . S
C2426 C2427 1.327 . S
C2427 H2421 0.950 . S
C2427 C2426 1.327 . S
C2427 C2431 1.429 . S
C2428 C2411 1.574 . S
C2428 H2422 0.949 . S
C2428 C2432 1.368 . S
C2429 C2410 1.429 . S
C2429 C2423 1.429 . S
C2429 C2430 1.523 . S
C2430 C2411 1.368 . S
C2430 C2424 1.368 . S
C2430 C2429 1.523 . S
C2431 C2415 1.429 . S
C2431 C2427 1.429 . S
C2431 C2432 1.523 . S
C2432 C2416 1.368 . S
C2432 C2428 1.368 . S
C2432 C2431 1.523 . S
H2433 C2408 0.950 . S
H2434 C2410 0.950 . S
H2435 C2411 0.949 . S
H2436 C2413 0.950 . S
H2437 C2415 0.950 . S
C2438 C2439 1.361 . S
C2438 C2440 1.358 . S
C2438 H2463 0.908 1_655 S
C2439 C2438 1.361 . S
C2439 C2455 1.349 . S
C2440 C2438 1.358 . S
C2440 C2459 1.429 . S
C2440 H2464 0.950 . S
C2441 C2458 1.574 . S
C2441 C2460 1.368 . S
C2441 H2465 0.949 . S
H2442 C2446 1.004 . S
C2443 C2444 1.349 . S
C2443 C2445 1.327 . S
C2443 H2466 0.950 . S
C2444 C2443 1.349 . S
C2444 C2456 1.349 . S
C2445 C2443 1.327 . S
C2445 C2461 1.429 . S
C2445 H2467 0.950 . S
C2446 H2442 1.004 . S
C2446 C2454 1.574 . S
C2446 C2462 1.368 . S
H2447 C2455 0.950 . S
H2448 C2453 0.950 . S
H2449 C2454 0.949 . S
H2450 C2456 0.950 1_565 S
H2451 C2457 0.899 1_565 S
H2452 C2458 0.949 . S
C2453 H2448 0.950 . S
C2453 C2455 1.327 . S
C2453 C2459 1.429 . S
C2454 C2446 1.574 . S
C2454 H2449 0.949 . S
C2454 C2460 1.368 . S
C2455 C2439 1.349 . S
C2455 H2447 0.950 . S
C2455 C2453 1.327 . S
C2456 C2444 1.349 . S
C2456 H2450 0.950 1_545 S
C2456 C2457 1.327 . S
C2457 H2451 0.899 1_545 S
C2457 C2456 1.327 . S
C2457 C2461 1.429 . S
C2458 C2441 1.574 . S
C2458 H2452 0.949 . S
C2458 C2462 1.368 . S
C2459 C2440 1.429 . S
C2459 C2453 1.429 . S
C2459 C2460 1.523 . S
C2460 C2441 1.368 . S
C2460 C2454 1.368 . S
C2460 C2459 1.523 . S
C2461 C2445 1.429 . S
C2461 C2457 1.429 . S
C2461 C2462 1.523 . S
C2462 C2446 1.368 . S
C2462 C2458 1.368 . S
C2462 C2461 1.523 . S
H2463 C2438 0.908 1_455 S
H2464 C2440 0.950 . S
H2465 C2441 0.949 . S
H2466 C2443 0.950 . S
H2467 C2445 0.950 . S
C2468 C2469 1.349 . S
C2468 C2470 1.327 . S
C2468 H2493 0.950 . S
C2469 C2468 1.349 . S
C2469 C2485 1.349 . S
C2470 C2468 1.327 . S
C2470 C2489 1.429 . S
C2470 H2494 0.950 . S
C2471 C2488 1.574 . S
C2471 C2490 1.368 . S
C2471 H2495 0.949 . S
H2472 C2476 0.949 . S
C2473 C2474 1.349 . S
C2473 C2475 1.327 . S
C2473 H2496 0.950 . S
C2474 C2473 1.349 . S
C2474 C2486 1.349 . S
C2475 C2473 1.327 . S
C2475 C2491 1.429 . S
C2475 H2497 0.950 . S
C2476 H2472 0.949 . S
C2476 C2484 1.574 . S
C2476 C2492 1.368 . S
H2477 C2485 0.950 . S
H2478 C2483 0.950 . S
H2479 C2484 0.949 . S
H2480 C2486 0.950 . S
H2481 C2487 0.950 . S
H2482 C2488 0.949 . S
C2483 H2478 0.950 . S
C2483 C2485 1.327 . S
C2483 C2489 1.429 . S
C2484 C2476 1.574 . S
C2484 H2479 0.949 . S
C2484 C2490 1.368 . S
C2485 C2469 1.349 . S
C2485 H2477 0.950 . S
C2485 C2483 1.327 . S
C2486 C2474 1.349 . S
C2486 H2480 0.950 . S
C2486 C2487 1.327 . S
C2487 H2481 0.950 . S
C2487 C2486 1.327 . S
C2487 C2491 1.429 . S
C2488 C2471 1.574 . S
C2488 H2482 0.949 . S
C2488 C2492 1.368 . S
C2489 C2470 1.429 . S
C2489 C2483 1.429 . S
C2489 C2490 1.523 . S
C2490 C2471 1.368 . S
C2490 C2484 1.368 . S
C2490 C2489 1.523 . S
C2491 C2475 1.429 . S
C2491 C2487 1.429 . S
C2491 C2492 1.523 . S
C2492 C2476 1.368 . S
C2492 C2488 1.368 . S
C2492 C2491 1.523 . S
H2493 C2468 0.950 . S
H2494 C2470 0.950 . S
H2495 C2471 0.949 . S
H2496 C2473 0.950 . S
H2497 C2475 0.950 . S
C2498 C2499 1.349 . S
C2498 C2500 1.327 . S
C2498 H2523 0.950 . S
C2499 C2498 1.349 . S
C2499 C2515 1.349 . S
C2500 C2498 1.327 . S
C2500 C2519 1.429 . S
C2500 H2524 0.950 . S
C2501 C2518 1.574 . S
C2501 C2520 1.368 . S
C2501 H2525 0.949 . S
H2502 C2506 0.949 . S
C2503 C2504 1.349 . S
C2503 C2505 1.327 . S
C2503 H2526 0.950 . S
C2504 C2503 1.349 . S
C2504 C2516 1.349 . S
C2505 C2503 1.327 . S
C2505 C2521 1.429 . S
C2505 H2527 0.950 . S
C2506 H2502 0.949 . S
C2506 C2514 1.574 . S
C2506 C2522 1.368 . S
H2507 C2515 0.950 1_655 S
H2508 C2513 0.950 . S
H2509 C2514 0.949 . S
H2510 C2516 0.950 . S
H2511 C2517 0.950 . S
H2512 C2518 0.949 . S
C2513 H2508 0.950 . S
C2513 C2515 1.327 . S
C2513 C2519 1.429 . S
C2514 C2506 1.574 . S
C2514 H2509 0.949 . S
C2514 C2520 1.368 . S
C2515 C2499 1.349 . S
C2515 H2507 0.950 1_455 S
C2515 C2513 1.327 . S
C2516 C2504 1.349 . S
C2516 H2510 0.950 . S
C2516 C2517 1.327 . S
C2517 H2511 0.950 . S
C2517 C2516 1.327 . S
C2517 C2521 1.429 . S
C2518 C2501 1.574 . S
C2518 H2512 0.949 . S
C2518 C2522 1.368 . S
C2519 C2500 1.429 . S
C2519 C2513 1.429 . S
C2519 C2520 1.523 . S
C2520 C2501 1.368 . S
C2520 C2514 1.368 . S
C2520 C2519 1.523 . S
C2521 C2505 1.429 . S
C2521 C2517 1.429 . S
C2521 C2522 1.523 . S
C2522 C2506 1.368 . S
C2522 C2518 1.368 . S
C2522 C2521 1.523 . S
H2523 C2498 0.950 . S
H2524 C2500 0.950 . S
H2525 C2501 0.949 . S
H2526 C2503 0.950 . S
H2527 C2505 0.950 . S
C2528 C2529 1.349 . S
C2528 C2530 1.327 . S
C2528 H2553 0.950 . S
C2529 C2528 1.349 . S
C2529 C2545 1.349 . S
C2530 C2528 1.327 . S
C2530 C2549 1.429 . S
C2530 H2554 0.950 . S
C2531 C2548 1.574 . S
C2531 C2550 1.368 . S
C2531 H2555 0.949 . S
H2532 C2536 0.949 . S
C2533 C2534 1.349 . S
C2533 C2535 1.327 . S
C2533 H2556 0.950 . S
C2534 C2533 1.349 . S
C2534 C2546 1.349 . S
C2535 C2533 1.327 . S
C2535 C2551 1.429 . S
C2535 H2557 0.950 . S
C2536 H2532 0.949 . S
C2536 C2544 1.574 . S
C2536 C2552 1.368 . S
H2537 C2545 0.950 . S
H2538 C2543 0.950 . S
H2539 C2544 0.949 . S
H2540 C2546 0.950 . S
H2541 C2547 0.950 . S
H2542 C2548 0.949 . S
C2543 H2538 0.950 . S
C2543 C2545 1.327 . S
C2543 C2549 1.429 . S
C2544 C2536 1.574 . S
C2544 H2539 0.949 . S
C2544 C2550 1.368 . S
C2545 C2529 1.349 . S
C2545 H2537 0.950 . S
C2545 C2543 1.327 . S
C2546 C2534 1.349 . S
C2546 H2540 0.950 . S
C2546 C2547 1.327 . S
C2547 H2541 0.950 . S
C2547 C2546 1.327 . S
C2547 C2551 1.429 . S
C2548 C2531 1.574 . S
C2548 H2542 0.949 . S
C2548 C2552 1.368 . S
C2549 C2530 1.429 . S
C2549 C2543 1.429 . S
C2549 C2550 1.523 . S
C2550 C2531 1.368 . S
C2550 C2544 1.368 . S
C2550 C2549 1.523 . S
C2551 C2535 1.429 . S
C2551 C2547 1.429 . S
C2551 C2552 1.523 . S
C2552 C2536 1.368 . S
C2552 C2548 1.368 . S
C2552 C2551 1.523 . S
H2553 C2528 0.950 . S
H2554 C2530 0.950 . S
H2555 C2531 0.949 . S
H2556 C2533 0.950 . S
H2557 C2535 0.950 . S
C2558 C2559 1.349 . S
C2558 C2560 1.327 . S
C2558 H2583 0.950 . S
C2559 C2558 1.349 . S
C2559 C2575 1.365 . S
C2560 C2558 1.327 . S
C2560 C2579 1.429 . S
C2560 H2584 0.950 . S
C2561 C2578 1.574 . S
C2561 C2580 1.368 . S
C2561 H2585 0.949 . S
H2562 C2566 0.949 1_455 S
C2563 C2564 1.349 . S
C2563 C2565 1.327 . S
C2563 H2586 0.950 . S
C2564 C2563 1.349 . S
C2564 C2576 1.349 1_655 S
C2565 C2563 1.327 . S
C2565 C2581 1.429 . S
C2565 H2587 0.950 . S
C2566 H2562 0.949 1_655 S
C2566 C2574 1.574 . S
C2566 C2582 1.368 . S
H2567 C2575 0.907 1_554 S
H2568 C2573 0.950 . S
H2569 C2574 0.965 . S
H2570 C2576 0.950 . S
H2571 C2577 0.954 . S
H2572 C2578 0.949 . S
C2573 H2568 0.950 . S
C2573 C2575 1.356 . S
C2573 C2579 1.429 . S
C2574 C2566 1.574 . S
C2574 H2569 0.965 . S
C2574 C2580 1.368 . S
C2575 C2559 1.365 . S
C2575 H2567 0.907 1_556 S
C2575 C2573 1.356 . S
C2576 C2564 1.349 1_455 S
C2576 H2570 0.950 . S
C2576 C2577 1.328 . S
C2577 H2571 0.954 . S
C2577 C2576 1.328 . S
C2577 C2581 1.423 1_455 S
C2578 C2561 1.574 . S
C2578 H2572 0.949 . S
C2578 C2582 1.368 . S
C2579 C2560 1.429 . S
C2579 C2573 1.429 . S
C2579 C2580 1.523 . S
C2580 C2561 1.368 . S
C2580 C2574 1.368 . S
C2580 C2579 1.523 . S
C2581 C2565 1.429 . S
C2581 C2577 1.423 1_655 S
C2581 C2582 1.523 . S
C2582 C2566 1.368 . S
C2582 C2578 1.368 . S
C2582 C2581 1.523 . S
H2583 C2558 0.950 . S
H2584 C2560 0.950 . S
H2585 C2561 0.949 . S
H2586 C2563 0.950 . S
H2587 C2565 0.950 . S
C2588 C2589 1.349 . S
C2588 C2590 1.327 . S
C2588 H2613 0.950 . S
C2589 C2588 1.349 . S
C2589 C2605 1.349 . S
C2590 C2588 1.327 . S
C2590 C2609 1.429 . S
C2590 H2614 0.950 . S
C2591 C2608 1.574 . S
C2591 C2610 1.368 . S
C2591 H2615 0.949 . S
H2592 C2596 0.949 . S
C2593 C2594 1.349 . S
C2593 C2595 1.327 . S
C2593 H2616 0.950 . S
C2594 C2593 1.349 . S
C2594 C2606 1.349 . S
C2595 C2593 1.327 . S
C2595 C2611 1.429 . S
C2595 H2617 0.950 . S
C2596 H2592 0.949 . S
C2596 C2604 1.574 . S
C2596 C2612 1.368 . S
H2597 C2605 0.950 . S
H2598 C2603 0.950 . S
H2599 C2604 0.949 . S
H2600 C2606 0.950 . S
H2601 C2607 0.950 . S
H2602 C2608 0.949 . S
C2603 H2598 0.950 . S
C2603 C2605 1.327 . S
C2603 C2609 1.429 . S
C2604 C2596 1.574 . S
C2604 H2599 0.949 . S
C2604 C2610 1.368 . S
C2605 C2589 1.349 . S
C2605 H2597 0.950 . S
C2605 C2603 1.327 . S
C2606 C2594 1.349 . S
C2606 H2600 0.950 . S
C2606 C2607 1.327 . S
C2607 H2601 0.950 . S
C2607 C2606 1.327 . S
C2607 C2611 1.429 . S
C2608 C2591 1.574 . S
C2608 H2602 0.949 . S
C2608 C2612 1.368 . S
C2609 C2590 1.429 . S
C2609 C2603 1.429 . S
C2609 C2610 1.523 . S
C2610 C2591 1.368 . S
C2610 C2604 1.368 . S
C2610 C2609 1.523 . S
C2611 C2595 1.429 . S
C2611 C2607 1.429 . S
C2611 C2612 1.523 . S
C2612 C2596 1.368 . S
C2612 C2608 1.368 . S
C2612 C2611 1.523 . S
H2613 C2588 0.950 . S
H2614 C2590 0.950 . S
H2615 C2591 0.949 . S
H2616 C2593 0.950 . S
H2617 C2595 0.950 . S
C2618 C2619 1.348 1_554 S
C2618 C2620 1.327 1_554 S
C2618 H2643 0.950 . S
C2619 C2618 1.348 1_556 S
C2619 C2635 1.351 . S
C2620 C2618 1.327 1_556 S
C2620 C2639 1.429 . S
C2620 H2644 0.950 1_556 S
C2621 C2638 1.574 . S
C2621 C2640 1.368 . S
C2621 H2645 0.949 . S
H2622 C2626 0.949 . S
C2623 C2624 1.349 . S
C2623 C2625 1.327 . S
C2623 H2646 0.950 . S
C2624 C2623 1.349 . S
C2624 C2636 1.349 . S
C2625 C2623 1.327 . S
C2625 C2641 1.429 . S
C2625 H2647 0.950 . S
C2626 H2622 0.949 . S
C2626 C2634 1.574 . S
C2626 C2642 1.368 . S
H2627 C2635 0.950 . S
H2628 C2633 0.950 . S
H2629 C2634 0.949 . S
H2630 C2636 0.950 . S
H2631 C2637 0.950 . S
H2632 C2638 0.949 . S
C2633 H2628 0.950 . S
C2633 C2635 1.327 . S
C2633 C2639 1.429 . S
C2634 C2626 1.574 . S
C2634 H2629 0.949 . S
C2634 C2640 1.368 . S
C2635 C2619 1.351 . S
C2635 H2627 0.950 . S
C2635 C2633 1.327 . S
C2636 C2624 1.349 . S
C2636 H2630 0.950 . S
C2636 C2637 1.327 . S
C2637 H2631 0.950 . S
C2637 C2636 1.327 . S
C2637 C2641 1.429 . S
C2638 C2621 1.574 . S
C2638 H2632 0.949 . S
C2638 C2642 1.368 . S
C2639 C2620 1.429 . S
C2639 C2633 1.429 . S
C2639 C2640 1.523 . S
C2640 C2621 1.368 . S
C2640 C2634 1.368 . S
C2640 C2639 1.523 . S
C2641 C2625 1.429 . S
C2641 C2637 1.429 . S
C2641 C2642 1.523 . S
C2642 C2626 1.368 . S
C2642 C2638 1.368 . S
C2642 C2641 1.523 . S
H2643 C2618 0.950 . S
H2644 C2620 0.950 1_554 S
H2645 C2621 0.949 . S
H2646 C2623 0.950 . S
H2647 C2625 0.950 . S
C2648 C2649 1.349 . S
C2648 C2650 1.327 . S
C2648 H2673 0.950 . S
C2649 C2648 1.349 . S
C2649 C2665 1.349 . S
C2650 C2648 1.327 . S
C2650 C2669 1.429 . S
C2650 H2674 0.950 . S
C2651 C2668 1.574 . S
C2651 C2670 1.368 . S
C2651 H2675 0.949 . S
H2652 C2656 0.949 . S
C2653 C2654 1.349 . S
C2653 C2655 1.327 . S
C2653 H2676 0.950 . S
C2654 C2653 1.349 . S
C2654 C2666 1.349 . S
C2655 C2653 1.327 . S
C2655 C2671 1.429 . S
C2655 H2677 0.950 . S
C2656 H2652 0.949 . S
C2656 C2664 1.574 . S
C2656 C2672 1.368 . S
H2657 C2665 0.950 . S
H2658 C2663 0.950 . S
H2659 C2664 0.949 . S
H2660 C2666 0.950 . S
H2661 C2667 0.950 . S
H2662 C2668 0.949 . S
C2663 H2658 0.950 . S
C2663 C2665 1.327 . S
C2663 C2669 1.429 . S
C2664 C2656 1.574 . S
C2664 H2659 0.949 . S
C2664 C2670 1.368 . S
C2665 C2649 1.349 . S
C2665 H2657 0.950 . S
C2665 C2663 1.327 . S
C2666 C2654 1.349 . S
C2666 H2660 0.950 . S
C2666 C2667 1.327 . S
C2667 H2661 0.950 . S
C2667 C2666 1.327 . S
C2667 C2671 1.429 . S
C2668 C2651 1.574 . S
C2668 H2662 0.949 . S
C2668 C2672 1.368 . S
C2669 C2650 1.429 . S
C2669 C2663 1.429 . S
C2669 C2670 1.523 . S
C2670 C2651 1.368 . S
C2670 C2664 1.368 . S
C2670 C2669 1.523 . S
C2671 C2655 1.429 . S
C2671 C2667 1.429 . S
C2671 C2672 1.523 . S
C2672 C2656 1.368 . S
C2672 C2668 1.368 . S
C2672 C2671 1.523 . S
H2673 C2648 0.950 . S
H2674 C2650 0.950 . S
H2675 C2651 0.949 . S
H2676 C2653 0.950 . S
H2677 C2655 0.950 . S
C2678 C2679 1.349 . S
C2678 C2680 1.327 . S
C2678 H2703 0.949 . S
C2679 C2678 1.349 . S
C2679 C2695 1.349 . S
C2680 C2678 1.327 . S
C2680 C2699 1.429 . S
C2680 H2704 0.950 . S
C2681 C2698 1.574 . S
C2681 C2700 1.368 . S
C2681 H2705 0.949 . S
H2682 C2686 0.949 . S
C2683 C2684 1.349 . S
C2683 C2685 1.327 . S
C2683 H2706 0.950 . S
C2684 C2683 1.349 . S
C2684 C2696 1.349 . S
C2685 C2683 1.327 . S
C2685 C2701 1.429 . S
C2685 H2707 0.950 . S
C2686 H2682 0.949 . S
C2686 C2694 1.574 . S
C2686 C2702 1.368 . S
H2687 C2695 0.950 . S
H2688 C2693 0.950 . S
H2689 C2694 0.949 . S
H2690 C2696 0.950 . S
H2691 C2697 0.950 . S
H2692 C2698 0.949 . S
C2693 H2688 0.950 . S
C2693 C2695 1.327 . S
C2693 C2699 1.429 . S
C2694 C2686 1.574 . S
C2694 H2689 0.949 . S
C2694 C2700 1.368 . S
C2695 C2679 1.349 . S
C2695 H2687 0.950 . S
C2695 C2693 1.327 . S
C2696 C2684 1.349 . S
C2696 H2690 0.950 . S
C2696 C2697 1.327 . S
C2697 H2691 0.950 . S
C2697 C2696 1.327 . S
C2697 C2701 1.429 . S
C2698 C2681 1.574 . S
C2698 H2692 0.949 . S
C2698 C2702 1.368 . S
C2699 C2680 1.429 . S
C2699 C2693 1.429 . S
C2699 C2700 1.523 . S
C2700 C2681 1.368 . S
C2700 C2694 1.368 . S
C2700 C2699 1.523 . S
C2701 C2685 1.429 . S
C2701 C2697 1.429 . S
C2701 C2702 1.523 . S
C2702 C2686 1.368 . S
C2702 C2698 1.368 . S
C2702 C2701 1.523 . S
H2703 C2678 0.949 . S
H2704 C2680 0.950 . S
H2705 C2681 0.949 . S
H2706 C2683 0.950 . S
H2707 C2685 0.950 . S
C2708 C2709 1.349 . S
C2708 C2710 1.327 . S
C2708 H2733 0.950 . S
C2709 C2708 1.349 . S
C2709 C2725 1.349 . S
C2710 C2708 1.327 . S
C2710 C2729 1.429 . S
C2710 H2734 0.950 . S
C2711 C2728 1.574 . S
C2711 C2730 1.368 . S
C2711 H2735 0.949 . S
H2712 C2716 0.949 . S
C2713 C2714 1.349 . S
C2713 C2715 1.327 . S
C2713 H2736 0.950 . S
C2714 C2713 1.349 . S
C2714 C2726 1.349 . S
C2715 C2713 1.327 . S
C2715 C2731 1.429 . S
C2715 H2737 0.950 . S
C2716 H2712 0.949 . S
C2716 C2724 1.574 . S
C2716 C2732 1.368 . S
H2717 C2725 0.950 . S
H2718 C2723 0.950 . S
H2719 C2724 0.949 . S
H2720 C2726 0.950 . S
H2721 C2727 0.950 . S
H2722 C2728 0.949 . S
C2723 H2718 0.950 . S
C2723 C2725 1.327 . S
C2723 C2729 1.429 . S
C2724 C2716 1.574 . S
C2724 H2719 0.949 . S
C2724 C2730 1.368 . S
C2725 C2709 1.349 . S
C2725 H2717 0.950 . S
C2725 C2723 1.327 . S
C2726 C2714 1.349 . S
C2726 H2720 0.950 . S
C2726 C2727 1.327 . S
C2727 H2721 0.950 . S
C2727 C2726 1.327 . S
C2727 C2731 1.429 . S
C2728 C2711 1.574 . S
C2728 H2722 0.949 . S
C2728 C2732 1.368 . S
C2729 C2710 1.429 . S
C2729 C2723 1.429 . S
C2729 C2730 1.523 . S
C2730 C2711 1.368 . S
C2730 C2724 1.368 . S
C2730 C2729 1.523 . S
C2731 C2715 1.429 . S
C2731 C2727 1.429 . S
C2731 C2732 1.523 . S
C2732 C2716 1.368 . S
C2732 C2728 1.368 . S
C2732 C2731 1.523 . S
H2733 C2708 0.950 . S
H2734 C2710 0.950 . S
H2735 C2711 0.949 . S
H2736 C2713 0.950 . S
H2737 C2715 0.950 . S
C2738 C2739 1.349 . S
C2738 C2740 1.327 . S
C2738 H2763 0.950 . S
C2739 C2738 1.349 . S
C2739 C2755 1.349 . S
C2740 C2738 1.327 . S
C2740 C2759 1.429 . S
C2740 H2764 0.950 . S
C2741 C2758 1.574 . S
C2741 C2760 1.368 . S
C2741 H2765 0.949 . S
H2742 C2746 0.949 . S
C2743 C2744 1.349 . S
C2743 C2745 1.327 . S
C2743 H2766 0.950 . S
C2744 C2743 1.349 . S
C2744 C2756 1.349 . S
C2745 C2743 1.327 . S
C2745 C2761 1.429 . S
C2745 H2767 0.950 . S
C2746 H2742 0.949 . S
C2746 C2754 1.574 . S
C2746 C2762 1.368 . S
H2747 C2755 0.941 1_556 S
H2748 C2753 0.950 . S
H2749 C2754 0.949 . S
H2750 C2756 0.950 . S
H2751 C2757 0.950 . S
H2752 C2758 0.949 . S
C2753 H2748 0.950 . S
C2753 C2755 1.327 . S
C2753 C2759 1.429 . S
C2754 C2746 1.574 . S
C2754 H2749 0.949 . S
C2754 C2760 1.368 . S
C2755 C2739 1.349 . S
C2755 H2747 0.941 1_554 S
C2755 C2753 1.327 . S
C2756 C2744 1.349 . S
C2756 H2750 0.950 . S
C2756 C2757 1.327 . S
C2757 H2751 0.950 . S
C2757 C2756 1.327 . S
C2757 C2761 1.429 . S
C2758 C2741 1.574 . S
C2758 H2752 0.949 . S
C2758 C2762 1.368 . S
C2759 C2740 1.429 . S
C2759 C2753 1.429 . S
C2759 C2760 1.523 . S
C2760 C2741 1.368 . S
C2760 C2754 1.368 . S
C2760 C2759 1.523 . S
C2761 C2745 1.429 . S
C2761 C2757 1.429 . S
C2761 C2762 1.523 . S
C2762 C2746 1.368 . S
C2762 C2758 1.368 . S
C2762 C2761 1.523 . S
H2763 C2738 0.950 . S
H2764 C2740 0.950 . S
H2765 C2741 0.949 . S
H2766 C2743 0.950 . S
H2767 C2745 0.950 . S
C2768 C2769 1.349 . S
C2768 C2770 1.327 . S
C2768 H2793 0.950 . S
C2769 C2768 1.349 . S
C2769 C2785 1.349 . S
C2770 C2768 1.327 . S
C2770 C2789 1.429 . S
C2770 H2794 0.950 . S
C2771 C2788 1.574 . S
C2771 C2790 1.368 . S
C2771 H2795 0.949 . S
H2772 C2776 0.949 . S
C2773 C2774 1.349 . S
C2773 C2775 1.327 . S
C2773 H2796 0.950 . S
C2774 C2773 1.349 . S
C2774 C2786 1.349 . S
C2775 C2773 1.327 . S
C2775 C2791 1.429 . S
C2775 H2797 0.950 . S
C2776 H2772 0.949 . S
C2776 C2784 1.574 . S
C2776 C2792 1.368 . S
H2777 C2785 0.950 . S
H2778 C2783 0.950 . S
H2779 C2784 0.949 . S
H2780 C2786 0.950 . S
H2781 C2787 0.950 . S
H2782 C2788 0.949 . S
C2783 H2778 0.950 . S
C2783 C2785 1.327 . S
C2783 C2789 1.429 . S
C2784 C2776 1.574 . S
C2784 H2779 0.949 . S
C2784 C2790 1.368 . S
C2785 C2769 1.349 . S
C2785 H2777 0.950 . S
C2785 C2783 1.327 . S
C2786 C2774 1.349 . S
C2786 H2780 0.950 . S
C2786 C2787 1.327 . S
C2787 H2781 0.950 . S
C2787 C2786 1.327 . S
C2787 C2791 1.429 . S
C2788 C2771 1.574 . S
C2788 H2782 0.949 . S
C2788 C2792 1.368 . S
C2789 C2770 1.429 . S
C2789 C2783 1.429 . S
C2789 C2790 1.523 . S
C2790 C2771 1.368 . S
C2790 C2784 1.368 . S
C2790 C2789 1.523 . S
C2791 C2775 1.429 . S
C2791 C2787 1.429 . S
C2791 C2792 1.523 . S
C2792 C2776 1.368 . S
C2792 C2788 1.368 . S
C2792 C2791 1.523 . S
H2793 C2768 0.950 . S
H2794 C2770 0.950 . S
H2795 C2771 0.949 . S
H2796 C2773 0.950 . S
H2797 C2775 0.950 . S
C2798 C2799 1.349 . S
C2798 C2800 1.327 . S
C2798 H2823 0.950 . S
C2799 C2798 1.349 . S
C2799 C2815 1.349 . S
C2800 C2798 1.327 . S
C2800 C2819 1.429 . S
C2800 H2824 0.950 . S
C2801 C2818 1.574 . S
C2801 C2820 1.368 . S
C2801 H2825 0.949 . S
H2802 C2806 0.949 . S
C2803 C2804 1.349 . S
C2803 C2805 1.327 . S
C2803 H2826 0.950 . S
C2804 C2803 1.349 . S
C2804 C2816 1.349 . S
C2805 C2803 1.327 . S
C2805 C2821 1.429 . S
C2805 H2827 0.950 . S
C2806 H2802 0.949 . S
C2806 C2814 1.574 . S
C2806 C2822 1.368 . S
H2807 C2815 0.950 . S
H2808 C2813 0.950 . S
H2809 C2814 0.949 . S
H2810 C2816 0.950 . S
H2811 C2817 0.950 . S
H2812 C2818 0.949 . S
C2813 H2808 0.950 . S
C2813 C2815 1.327 . S
C2813 C2819 1.429 . S
C2814 C2806 1.574 . S
C2814 H2809 0.949 . S
C2814 C2820 1.368 . S
C2815 C2799 1.349 . S
C2815 H2807 0.950 . S
C2815 C2813 1.327 . S
C2816 C2804 1.349 . S
C2816 H2810 0.950 . S
C2816 C2817 1.327 . S
C2817 H2811 0.950 . S
C2817 C2816 1.327 . S
C2817 C2821 1.429 . S
C2818 C2801 1.574 . S
C2818 H2812 0.949 . S
C2818 C2822 1.368 . S
C2819 C2800 1.429 . S
C2819 C2813 1.429 . S
C2819 C2820 1.523 . S
C2820 C2801 1.368 . S
C2820 C2814 1.368 . S
C2820 C2819 1.523 . S
C2821 C2805 1.429 . S
C2821 C2817 1.429 . S
C2821 C2822 1.523 . S
C2822 C2806 1.368 . S
C2822 C2818 1.368 . S
C2822 C2821 1.523 . S
H2823 C2798 0.950 . S
H2824 C2800 0.950 . S
H2825 C2801 0.949 . S
H2826 C2803 0.950 . S
H2827 C2805 0.950 . S
C2828 C2829 1.349 . S
C2828 C2830 1.327 . S
C2828 H2853 0.950 . S
C2829 C2828 1.349 . S
C2829 C2845 1.349 . S
C2830 C2828 1.327 . S
C2830 C2849 1.429 . S
C2830 H2854 0.950 . S
C2831 C2848 1.574 . S
C2831 C2850 1.368 . S
C2831 H2855 0.949 . S
H2832 C2836 0.949 . S
C2833 C2834 1.349 . S
C2833 C2835 1.327 . S
C2833 H2856 0.950 . S
C2834 C2833 1.349 . S
C2834 C2846 1.349 . S
C2835 C2833 1.327 . S
C2835 C2851 1.429 . S
C2835 H2857 0.950 . S
C2836 H2832 0.949 . S
C2836 C2844 1.574 . S
C2836 C2852 1.368 . S
H2837 C2845 0.950 . S
H2838 C2843 0.950 . S
H2839 C2844 0.949 . S
H2840 C2846 0.950 . S
H2841 C2847 0.950 . S
H2842 C2848 0.949 . S
C2843 H2838 0.950 . S
C2843 C2845 1.327 . S
C2843 C2849 1.429 . S
C2844 C2836 1.574 . S
C2844 H2839 0.949 . S
C2844 C2850 1.368 . S
C2845 C2829 1.349 . S
C2845 H2837 0.950 . S
C2845 C2843 1.327 . S
C2846 C2834 1.349 . S
C2846 H2840 0.950 . S
C2846 C2847 1.327 . S
C2847 H2841 0.950 . S
C2847 C2846 1.327 . S
C2847 C2851 1.429 . S
C2848 C2831 1.574 . S
C2848 H2842 0.949 . S
C2848 C2852 1.368 . S
C2849 C2830 1.429 . S
C2849 C2843 1.429 . S
C2849 C2850 1.523 . S
C2850 C2831 1.368 . S
C2850 C2844 1.368 . S
C2850 C2849 1.523 . S
C2851 C2835 1.429 . S
C2851 C2847 1.429 . S
C2851 C2852 1.523 . S
C2852 C2836 1.368 . S
C2852 C2848 1.368 . S
C2852 C2851 1.523 . S
H2853 C2828 0.950 . S
H2854 C2830 0.950 . S
H2855 C2831 0.949 . S
H2856 C2833 0.950 . S
H2857 C2835 0.950 . S
C2858 C2859 1.349 . S
C2858 C2860 1.327 . S
C2858 H2883 0.950 . S
C2859 C2858 1.349 . S
C2859 C2875 1.349 . S
C2860 C2858 1.327 . S
C2860 C2879 1.429 . S
C2860 H2884 0.950 . S
C2861 C2878 1.574 . S
C2861 C2880 1.368 . S
C2861 H2885 0.949 . S
H2862 C2866 0.949 . S
C2863 C2864 1.349 . S
C2863 C2865 1.327 . S
C2863 H2886 0.950 . S
C2864 C2863 1.349 . S
C2864 C2876 1.349 . S
C2865 C2863 1.327 . S
C2865 C2881 1.429 . S
C2865 H2887 0.950 . S
C2866 H2862 0.949 . S
C2866 C2874 1.574 . S
C2866 C2882 1.368 . S
H2867 C2875 0.950 . S
H2868 C2873 0.950 . S
H2869 C2874 0.949 . S
H2870 C2876 0.950 . S
H2871 C2877 0.950 . S
H2872 C2878 0.949 . S
C2873 H2868 0.950 . S
C2873 C2875 1.327 . S
C2873 C2879 1.429 . S
C2874 C2866 1.574 . S
C2874 H2869 0.949 . S
C2874 C2880 1.368 . S
C2875 C2859 1.349 . S
C2875 H2867 0.950 . S
C2875 C2873 1.327 . S
C2876 C2864 1.349 . S
C2876 H2870 0.950 . S
C2876 C2877 1.327 . S
C2877 H2871 0.950 . S
C2877 C2876 1.327 . S
C2877 C2881 1.429 . S
C2878 C2861 1.574 . S
C2878 H2872 0.949 . S
C2878 C2882 1.368 . S
C2879 C2860 1.429 . S
C2879 C2873 1.429 . S
C2879 C2880 1.523 . S
C2880 C2861 1.368 . S
C2880 C2874 1.368 . S
C2880 C2879 1.523 . S
C2881 C2865 1.429 . S
C2881 C2877 1.429 . S
C2881 C2882 1.523 . S
C2882 C2866 1.368 . S
C2882 C2878 1.368 . S
C2882 C2881 1.523 . S
H2883 C2858 0.950 . S
H2884 C2860 0.950 . S
H2885 C2861 0.949 . S
H2886 C2863 0.950 . S
H2887 C2865 0.950 . S
C2888 C2889 1.349 . S
C2888 C2890 1.327 . S
C2888 H2913 0.950 . S
C2889 C2888 1.349 . S
C2889 C2905 1.349 . S
C2890 C2888 1.327 . S
C2890 C2909 1.429 . S
C2890 H2914 0.902 1_556 S
C2891 C2908 1.574 . S
C2891 C2910 1.368 . S
C2891 H2915 0.949 . S
H2892 C2896 0.949 1_554 S
C2893 C2894 1.349 . S
C2893 C2895 1.327 . S
C2893 H2916 0.950 . S
C2894 C2893 1.349 . S
C2894 C2906 1.349 1_556 S
C2895 C2893 1.327 . S
C2895 C2911 1.429 . S
C2895 H2917 0.950 . S
C2896 H2892 0.949 1_556 S
C2896 C2904 1.574 . S
C2896 C2912 1.368 . S
H2897 C2905 0.950 . S
H2898 C2903 0.950 . S
H2899 C2904 0.949 1_554 S
H2900 C2906 0.950 . S
H2901 C2907 0.979 . S
H2902 C2908 0.949 . S
C2903 H2898 0.950 . S
C2903 C2905 1.327 . S
C2903 C2909 1.429 . S
C2904 C2896 1.574 . S
C2904 H2899 0.949 1_556 S
C2904 C2910 1.368 . S
C2905 C2889 1.349 . S
C2905 H2897 0.950 . S
C2905 C2903 1.327 . S
C2906 C2894 1.349 1_554 S
C2906 H2900 0.950 . S
C2906 C2907 1.331 . S
C2907 H2901 0.979 . S
C2907 C2906 1.331 . S
C2907 C2911 1.397 1_554 S
C2908 C2891 1.574 . S
C2908 H2902 0.949 . S
C2908 C2912 1.368 . S
C2909 C2890 1.429 . S
C2909 C2903 1.429 . S
C2909 C2910 1.523 . S
C2910 C2891 1.368 . S
C2910 C2904 1.368 . S
C2910 C2909 1.523 . S
C2911 C2895 1.429 . S
C2911 C2907 1.397 1_556 S
C2911 C2912 1.523 . S
C2912 C2896 1.368 . S
C2912 C2908 1.368 . S
C2912 C2911 1.523 . S
H2913 C2888 0.950 . S
H2914 C2890 0.902 1_554 S
H2915 C2891 0.949 . S
H2916 C2893 0.950 . S
H2917 C2895 0.950 . S
C2918 C2919 1.349 . S
C2918 C2920 1.327 . S
C2918 H2943 0.950 . S
C2919 C2918 1.349 . S
C2919 C2935 1.349 . S
C2920 C2918 1.327 . S
C2920 C2939 1.429 . S
C2920 H2944 0.950 . S
C2921 C2938 1.574 . S
C2921 C2940 1.368 . S
C2921 H2945 0.949 . S
H2922 C2926 0.949 . S
C2923 C2924 1.349 . S
C2923 C2925 1.327 . S
C2923 H2946 0.950 . S
C2924 C2923 1.349 . S
C2924 C2936 1.349 . S
C2925 C2923 1.327 . S
C2925 C2941 1.429 . S
C2925 H2947 0.950 . S
C2926 H2922 0.949 . S
C2926 C2934 1.574 . S
C2926 C2942 1.368 . S
H2927 C2935 0.950 . S
H2928 C2933 0.950 . S
H2929 C2934 0.949 . S
H2930 C2936 0.950 . S
H2931 C2937 0.950 . S
H2932 C2938 0.949 . S
C2933 H2928 0.950 . S
C2933 C2935 1.327 . S
C2933 C2939 1.429 . S
C2934 C2926 1.574 . S
C2934 H2929 0.949 . S
C2934 C2940 1.368 . S
C2935 C2919 1.349 . S
C2935 H2927 0.950 . S
C2935 C2933 1.327 . S
C2936 C2924 1.349 . S
C2936 H2930 0.950 . S
C2936 C2937 1.327 . S
C2937 H2931 0.950 . S
C2937 C2936 1.327 . S
C2937 C2941 1.429 . S
C2938 C2921 1.574 . S
C2938 H2932 0.949 . S
C2938 C2942 1.368 . S
C2939 C2920 1.429 . S
C2939 C2933 1.429 . S
C2939 C2940 1.523 . S
C2940 C2921 1.368 . S
C2940 C2934 1.368 . S
C2940 C2939 1.523 . S
C2941 C2925 1.429 . S
C2941 C2937 1.429 . S
C2941 C2942 1.523 . S
C2942 C2926 1.368 . S
C2942 C2938 1.368 . S
C2942 C2941 1.523 . S
H2943 C2918 0.950 . S
H2944 C2920 0.950 . S
H2945 C2921 0.949 . S
H2946 C2923 0.950 . S
H2947 C2925 0.950 . S
C2948 C2949 1.349 . S
C2948 C2950 1.327 . S
C2948 H2973 0.950 . S
C2949 C2948 1.349 . S
C2949 C2965 1.349 . S
C2950 C2948 1.327 . S
C2950 C2969 1.429 . S
C2950 H2974 0.950 . S
C2951 C2968 1.574 . S
C2951 C2970 1.368 . S
C2951 H2975 0.949 . S
H2952 C2956 0.949 . S
C2953 C2954 1.349 . S
C2953 C2955 1.327 . S
C2953 H2976 0.950 1_554 S
C2954 C2953 1.349 . S
C2954 C2966 1.349 . S
C2955 C2953 1.327 . S
C2955 C2971 1.429 . S
C2955 H2977 0.950 1_554 S
C2956 H2952 0.949 . S
C2956 C2964 1.574 . S
C2956 C2972 1.368 . S
H2957 C2965 0.950 . S
H2958 C2963 0.950 . S
H2959 C2964 0.949 . S
H2960 C2966 0.950 . S
H2961 C2967 0.950 . S
H2962 C2968 0.949 1_556 S
C2963 H2958 0.950 . S
C2963 C2965 1.327 . S
C2963 C2969 1.429 . S
C2964 C2956 1.574 . S
C2964 H2959 0.949 . S
C2964 C2970 1.368 . S
C2965 C2949 1.349 . S
C2965 H2957 0.950 . S
C2965 C2963 1.327 . S
C2966 C2954 1.349 . S
C2966 H2960 0.950 . S
C2966 C2967 1.327 . S
C2967 H2961 0.950 . S
C2967 C2966 1.327 . S
C2967 C2971 1.429 . S
C2968 C2951 1.574 . S
C2968 H2962 0.949 1_554 S
C2968 C2972 1.368 . S
C2969 C2950 1.429 . S
C2969 C2963 1.429 . S
C2969 C2970 1.523 . S
C2970 C2951 1.368 . S
C2970 C2964 1.368 . S
C2970 C2969 1.523 . S
C2971 C2955 1.429 . S
C2971 C2967 1.429 . S
C2971 C2972 1.523 . S
C2972 C2956 1.368 . S
C2972 C2968 1.368 . S
C2972 C2971 1.523 . S
H2973 C2948 0.950 . S
H2974 C2950 0.950 . S
H2975 C2951 0.949 . S
H2976 C2953 0.950 1_556 S
H2977 C2955 0.950 1_556 S
C2978 C2979 1.349 . S
C2978 C2980 1.327 . S
C2978 H3003 0.950 . S
C2979 C2978 1.349 . S
C2979 C2995 1.362 . S
C2980 C2978 1.327 . S
C2980 C2999 1.429 . S
C2980 H3004 0.950 . S
C2981 C2998 1.574 . S
C2981 C3000 1.368 . S
C2981 H3005 0.949 . S
H2982 C2986 0.949 . S
C2983 C2984 1.349 . S
C2983 C2985 1.327 . S
C2983 H3006 0.950 1_554 S
C2984 C2983 1.349 . S
C2984 C2996 1.349 . S
C2985 C2983 1.327 . S
C2985 C3001 1.429 . S
C2985 H3007 0.949 . S
C2986 H2982 0.949 . S
C2986 C2994 1.574 . S
C2986 C3002 1.368 . S
H2987 C2995 0.913 1_545 S
H2988 C2993 0.950 . S
H2989 C2994 0.949 . S
H2990 C2996 0.950 . S
H2991 C2997 0.950 . S
H2992 C2998 0.949 . S
C2993 H2988 0.950 . S
C2993 C2995 1.352 . S
C2993 C2999 1.429 . S
C2994 C2986 1.574 . S
C2994 H2989 0.949 . S
C2994 C3000 1.368 . S
C2995 C2979 1.362 . S
C2995 H2987 0.913 1_565 S
C2995 C2993 1.352 . S
C2996 C2984 1.349 . S
C2996 H2990 0.950 . S
C2996 C2997 1.327 . S
C2997 H2991 0.950 . S
C2997 C2996 1.327 . S
C2997 C3001 1.429 . S
C2998 C2981 1.574 . S
C2998 H2992 0.949 . S
C2998 C3002 1.368 . S
C2999 C2980 1.429 . S
C2999 C2993 1.429 . S
C2999 C3000 1.523 . S
C3000 C2981 1.368 . S
C3000 C2994 1.368 . S
C3000 C2999 1.523 . S
C3001 C2985 1.429 . S
C3001 C2997 1.429 . S
C3001 C3002 1.523 . S
C3002 C2986 1.368 . S
C3002 C2998 1.368 . S
C3002 C3001 1.523 . S
H3003 C2978 0.950 . S
H3004 C2980 0.950 . S
H3005 C2981 0.949 . S
H3006 C2983 0.950 1_556 S
H3007 C2985 0.949 . S
C1574 C561 1.463 . S
C1569 C177 1.447 . S
C1604 C620 1.540 . S
C1599 C209 1.528 1_455 S
C1629 C253 1.414 . S
C1634 C737 1.460 . S
C1664 C805 1.540 . S
C1659 C157 1.492 1_655 S
C1694 C884 1.529 . S
C1689 C343 1.489 . S
C1724 C1009 1.508 . S
C1719 C401 1.470 . S
C1749 C369 1.495 . S
C1754 C1069 1.531 . S
C1784 C1177 1.515 . S
C1779 C317 1.496 . S
C1809 C375 1.484 . S
C1814 C1273 1.522 . S
C1844 C1333 1.569 . S
C1839 C305 1.556 . S
C1869 C349 1.504 . S
C1874 C1236 1.550 . S
C1904 C1353 1.522 . S
C1899 C413 1.475 . S
C1929 C241 1.444 . S
C1934 C1421 1.480 . S
C1959 C151 1.447 . S
C1964 C1412 1.488 . S
C1989 C189 1.492 . S
C1994 C1441 1.512 . S
C2019 C215 1.500 . S
C2024 C1449 1.516 . S
C2049 C113 1.456 . S
C2054 C833 1.493 . S
C2079 C471 1.468 . S
C2084 C796 1.484 . S
C2114 C532 1.529 . S
C2109 C509 1.508 1_565 S
C2144 C629 1.509 . S
C2139 C279 1.469 . S
C2169 C145 1.434 1_545 S
C2174 C893 1.471 . S
C2204 C1185 1.565 . S
C2199 C381 1.519 . S
C2234 C913 1.543 . S
C2229 C311 1.528 . S
C2264 C1097 1.499 . S
C2259 C407 1.462 . S
C2294 C1089 1.463 . S
C2289 C465 1.447 . S
C2319 C497 1.526 . S
C2324 C1157 1.540 . S
C2349 C285 1.414 . S
C2354 C921 1.460 . S
C2384 C972 1.540 . S
C2379 C445 1.492 . S
C2409 C119 1.489 . S
C2414 C717 1.529 . S
C2444 C825 1.508 . S
C2439 C17 1.470 1_655 S
C2474 C541 1.531 . S
C2469 C49 1.495 . S
C2504 C657 1.516 . S
C2499 C93 1.497 . S
C2529 C55 1.484 . S
C2534 C1361 1.522 . S
C2559 C81 1.556 1_556 S
C2564 C1245 1.569 . S
C2589 C125 1.503 . S
C2594 C1324 1.550 . S
C2619 C29 1.473 1_556 S
C2624 C1265 1.522 . S
C2654 C1509 1.480 . S
C2649 C273 1.443 . S
C2684 C1500 1.488 . S
C2679 C439 1.447 . S
C2714 C1529 1.512 . S
C2709 C477 1.492 . S
C2739 C503 1.500 . S
C2744 C1537 1.516 . S
C2769 C337 1.456 . S
C2774 C1001 1.493 . S
C2804 C981 1.484 . S
C2799 C183 1.467 . S
C2834 C1060 1.529 . S
C2829 C221 1.508 . S
C2864 C1148 1.509 . S
C2859 C247 1.469 . S
C2889 C433 1.434 . S
C2894 C708 1.471 . S
C2924 C649 1.565 . S
C2919 C61 1.519 . S
C2949 C87 1.528 . S
C2954 C745 1.543 . S
C2984 C569 1.499 . S
C2979 C23 1.462 1_565 S
