# Generated by pormake.
# Topology llj, (12,3)-cn, num edge types: 1
# Building blocks:
#     Node 0, Type 0, BuildingBlock: QEWDON_clean_sbu_0, # of connection points: 12
#     Node 1, Type 0, BuildingBlock: QEWDON_clean_sbu_0, # of connection points: 12
#     Node 2, Type 1, BuildingBlock: QEWDON_clean_linker_0, # of connection points: 3
#     Node 3, Type 1, BuildingBlock: QEWDON_clean_linker_0, # of connection points: 3
#     Node 4, Type 1, BuildingBlock: QEWDON_clean_linker_0, # of connection points: 3
#     Node 5, Type 1, BuildingBlock: QEWDON_clean_linker_0, # of connection points: 3
#     Node 6, Type 1, BuildingBlock: QEWDON_clean_linker_0, # of connection points: 3
#     Node 7, Type 1, BuildingBlock: QEWDON_clean_linker_0, # of connection points: 3
#     Node 8, Type 1, BuildingBlock: QEWDON_clean_linker_0, # of connection points: 3
#     Node 9, Type 1, BuildingBlock: QEWDON_clean_linker_0, # of connection points: 3
#     Edge 10, Type (0, 1), BuildingBlock: CIFDUS_clean_linker_0, # of connection points: 2
#     Edge 11, Type (0, 1), BuildingBlock: CIFDUS_clean_linker_0, # of connection points: 2
#     Edge 12, Type (0, 1), BuildingBlock: CIFDUS_clean_linker_0, # of connection points: 2
#     Edge 13, Type (0, 1), BuildingBlock: CIFDUS_clean_linker_0, # of connection points: 2
#     Edge 14, Type (0, 1), BuildingBlock: CIFDUS_clean_linker_0, # of connection points: 2
#     Edge 15, Type (0, 1), BuildingBlock: CIFDUS_clean_linker_0, # of connection points: 2
#     Edge 16, Type (0, 1), BuildingBlock: CIFDUS_clean_linker_0, # of connection points: 2
#     Edge 17, Type (0, 1), BuildingBlock: CIFDUS_clean_linker_0, # of connection points: 2
#     Edge 18, Type (0, 1), BuildingBlock: CIFDUS_clean_linker_0, # of connection points: 2
#     Edge 19, Type (0, 1), BuildingBlock: CIFDUS_clean_linker_0, # of connection points: 2
#     Edge 20, Type (0, 1), BuildingBlock: CIFDUS_clean_linker_0, # of connection points: 2
#     Edge 21, Type (0, 1), BuildingBlock: CIFDUS_clean_linker_0, # of connection points: 2
#     Edge 22, Type (0, 1), BuildingBlock: CIFDUS_clean_linker_0, # of connection points: 2
#     Edge 23, Type (0, 1), BuildingBlock: CIFDUS_clean_linker_0, # of connection points: 2
#     Edge 24, Type (0, 1), BuildingBlock: CIFDUS_clean_linker_0, # of connection points: 2
#     Edge 25, Type (0, 1), BuildingBlock: CIFDUS_clean_linker_0, # of connection points: 2
#     Edge 26, Type (0, 1), BuildingBlock: CIFDUS_clean_linker_0, # of connection points: 2
#     Edge 27, Type (0, 1), BuildingBlock: CIFDUS_clean_linker_0, # of connection points: 2
#     Edge 28, Type (0, 1), BuildingBlock: CIFDUS_clean_linker_0, # of connection points: 2
#     Edge 29, Type (0, 1), BuildingBlock: CIFDUS_clean_linker_0, # of connection points: 2
#     Edge 30, Type (0, 1), BuildingBlock: CIFDUS_clean_linker_0, # of connection points: 2
#     Edge 31, Type (0, 1), BuildingBlock: CIFDUS_clean_linker_0, # of connection points: 2
#     Edge 32, Type (0, 1), BuildingBlock: CIFDUS_clean_linker_0, # of connection points: 2
#     Edge 33, Type (0, 1), BuildingBlock: CIFDUS_clean_linker_0, # of connection points: 2
# Relax obj value: 0.027
# Max RMSD: 0.168
# Mean RMSD: 0.145
data_MOF--net-llj--node1-QEWDON_clean_sbu_0--node2-QEWDON_clean_linker_0--edge1-CIFDUS_clean_linker_0
_symmetry_space_group_name_H-M    P1
_symmetry_Int_Tables_number       1
_symmetry_cell_setting            triclinic
loop_
_symmetry_equiv_pos_as_xyz
'x, y, z'
_cell_length_a     37.300951
_cell_length_b     37.294923
_cell_length_c     21.638586
_cell_angle_alpha  91.429796
_cell_angle_beta   91.257117
_cell_angle_gamma 90.507396
loop_
_atom_site_label
_atom_site_type_symbol
_atom_site_fract_x
_atom_site_fract_y
_atom_site_fract_z
_atom_type_partial_charge
Zn0 Zn 0.94819 0.10199 0.98132 0.0
Zn1 Zn 0.95766 0.09152 0.12548 0.0
O2 O 0.98489 0.08888 0.04696 0.0
H3 H 0.00451 0.07302 0.03797 0.0
C4 C 0.90425 0.98484 0.84138 0.0
O5 O 0.87979 0.96527 0.86791 0.0
Zn6 Zn 0.04965 0.93072 0.10332 0.0
Zn7 Zn 0.05454 0.92121 0.9547 0.0
O8 O 0.02335 0.93945 0.0236 0.0
H9 H 0.00184 0.95325 0.01739 0.0
Zn10 Zn 0.9422 0.96245 0.94944 0.0
O11 O 0.93978 0.99718 0.02182 0.0
Zn12 Zn 0.92677 0.96597 0.09111 0.0
H13 H 0.95335 0.01934 0.0246 0.0
Zn14 Zn 0.07565 0.0444 0.95707 0.0
O15 O 0.05844 0.02318 0.03591 0.0
H16 H 0.03618 0.00986 0.03726 0.0
Zn17 Zn 0.07741 0.05404 0.10656 0.0
C18 C 0.12145 0.00693 0.87357 0.0
O19 O 0.14444 0.02559 0.90855 0.0
O20 O 0.91125 0.1373 0.01697 0.0
O21 O 0.91957 0.13035 0.11834 0.0
O22 O 0.09299 0.88692 0.98771 0.0
O23 O 0.0876 0.89264 0.08985 0.0
O24 O 0.91265 0.91619 0.96233 0.0
O25 O 0.89607 0.92318 0.0601 0.0
C26 C 0.02459 0.092 0.19236 0.0
O27 O 0.11003 0.08715 0.97364 0.0
O28 O 0.11232 0.09221 0.07644 0.0
O29 O 0.02652 0.90317 0.87606 0.0
C30 C 0.90394 0.14557 0.07287 0.0
O31 O 0.96856 0.11044 0.89385 0.0
C32 C 0.98209 0.92355 0.16194 0.0
O33 O 0.93526 0.98748 0.86634 0.0
C34 C 0.10199 0.87814 0.04244 0.0
O35 O 0.08825 0.00946 0.8845 0.0
C36 C 0.90901 0.02956 0.16117 0.0
O37 O 0.99251 0.10271 0.19756 0.0
O38 O 0.03319 0.07619 0.14235 0.0
C39 C 0.89489 0.90577 0.00841 0.0
O40 O 0.01428 0.9128 0.16453 0.0
O41 O 0.97383 0.9474 0.12342 0.0
C42 C 0.09496 0.98988 0.16844 0.0
O43 O 0.90031 0.99673 0.15246 0.0
O44 O 0.93578 0.04199 0.13301 0.0
C45 C 0.1223 0.10223 0.02332 0.0
O46 O 0.10309 0.02301 0.16822 0.0
O47 O 0.07102 0.97828 0.13023 0.0
C48 C 0.00849 0.92363 0.84132 0.0
O49 O 0.00859 0.9583 0.8536 0.0
C50 C 0.99574 0.09237 0.87787 0.0
O51 O 0.00838 0.06815 0.91539 0.0
Zn52 Zn 0.45895 0.59278 0.42097 0.0
Zn53 Zn 0.45721 0.57864 0.56759 0.0
O54 O 0.48608 0.56996 0.49198 0.0
H55 H 0.50423 0.55183 0.48725 0.0
C56 C 0.38447 0.51614 0.34029 0.0
O57 O 0.39153 0.53241 0.39379 0.0
Zn58 Zn 0.54624 0.43242 0.58004 0.0
Zn59 Zn 0.53674 0.41054 0.43604 0.0
O60 O 0.51939 0.44469 0.50281 0.0
H61 H 0.50813 0.4675 0.49573 0.0
Zn62 Zn 0.39936 0.45332 0.41307 0.0
O63 O 0.42757 0.47957 0.48104 0.0
Zn64 Zn 0.41726 0.45402 0.55808 0.0
H65 H 0.4469 0.49649 0.47513 0.0
Zn66 Zn 0.57535 0.55956 0.43834 0.0
O67 O 0.57997 0.52055 0.50137 0.0
H68 H 0.59041 0.49735 0.49324 0.0
Zn69 Zn 0.58696 0.55129 0.57712 0.0
C70 C 0.56482 0.50902 0.33434 0.0
O71 O 0.55469 0.48827 0.37904 0.0
O72 O 0.41494 0.62115 0.44882 0.0
O73 O 0.41785 0.61574 0.5512 0.0
O74 O 0.5749 0.37486 0.46584 0.0
O75 O 0.57953 0.39012 0.56586 0.0
O76 O 0.36929 0.40958 0.4391 0.0
O77 O 0.38304 0.41126 0.53964 0.0
C78 C 0.52435 0.59131 0.6392 0.0
O79 O 0.60959 0.60232 0.45985 0.0
O80 O 0.62119 0.59254 0.55906 0.0
O81 O 0.50034 0.3936 0.3674 0.0
C82 C 0.4034 0.6287 0.50255 0.0
O83 O 0.48878 0.61459 0.35068 0.0
C84 C 0.47763 0.425 0.64091 0.0
O85 O 0.38534 0.4821 0.33643 0.0
C86 C 0.58841 0.37038 0.51969 0.0
O87 O 0.57365 0.54137 0.34719 0.0
C88 C 0.40922 0.52166 0.62205 0.0
O89 O 0.49089 0.59779 0.63612 0.0
O90 O 0.53748 0.57034 0.59828 0.0
C91 C 0.36642 0.39685 0.49293 0.0
O92 O 0.51117 0.41994 0.64559 0.0
O93 O 0.46524 0.4381 0.59118 0.0
C94 C 0.59759 0.48754 0.64564 0.0
O95 O 0.39686 0.48973 0.61892 0.0
O96 O 0.43404 0.53055 0.58582 0.0
C97 C 0.62623 0.61042 0.51039 0.0
O98 O 0.60812 0.51996 0.64394 0.0
O99 O 0.57406 0.47702 0.60561 0.0
C100 C 0.47879 0.41586 0.34366 0.0
O101 O 0.48004 0.44951 0.36312 0.0
C102 C 0.52171 0.62205 0.36096 0.0
O103 O 0.53594 0.61605 0.41569 0.0
H104 H 0.35616 0.27756 0.06504 0.0
C105 C 0.36549 0.29524 0.02967 0.0
C106 C 0.38361 0.32747 0.04653 0.0
C107 C 0.36141 0.28477 0.96699 0.0
H108 H 0.4124 0.3731 0.01191 0.0
C109 C 0.39691 0.34912 -0.00021 0.0
C110 C 0.39285 0.33897 0.93737 0.0
C111 C 0.3746 0.30707 0.92117 0.0
C112 C 0.34827 0.24848 0.94871 0.0
H113 H 0.37262 0.2984 0.87298 0.0
C114 C 0.3129 0.23735 0.95996 0.0
C115 C 0.30033 0.20388 0.93649 0.0
C116 C 0.37121 0.22538 0.9163 0.0
H117 H 0.39857 0.23344 0.90748 0.0
C118 C 0.35904 0.19189 0.89455 0.0
H119 H 0.29492 0.25517 0.98429 0.0
C120 C 0.32375 0.18127 0.90408 0.0
H121 H 0.31465 0.15529 0.88612 0.0
H122 H 0.37688 0.1743 0.86956 0.0
H123 H 0.69272 0.38483 0.12752 0.0
C124 C 0.68758 0.3898 0.07895 0.0
C125 C 0.65463 0.40414 0.05996 0.0
C126 C 0.71502 0.38432 0.03663 0.0
H127 H 0.62391 0.42416 0.98293 0.0
C128 C 0.64892 0.41202 0.99753 0.0
C129 C 0.67619 0.40666 0.95464 0.0
C130 C 0.70931 0.39276 0.97435 0.0
C131 C 0.75079 0.37402 0.05995 0.0
H132 H 0.73094 0.3899 0.94199 0.0
C133 C 0.76421 0.33951 0.04817 0.0
C134 C 0.7969 0.32903 0.07578 0.0
C135 C 0.77053 0.39832 0.09809 0.0
H136 H 0.76041 0.42497 0.10783 0.0
C137 C 0.80328 0.38832 0.12437 0.0
H138 H 0.74863 0.32054 0.0196 0.0
C139 C 0.81636 0.35386 0.11363 0.0
H140 H 0.84185 0.34667 0.13461 0.0
H141 H 0.81843 0.40723 0.15361 0.0
H142 H 0.66237 0.69347 0.9014 0.0
C143 C 0.64763 0.69397 0.94403 0.0
C144 C 0.61059 0.68674 0.9428 0.0
C145 C 0.66618 0.7008 0.0003 0.0
H146 H 0.56434 0.67869 -0.00141 0.0
C147 C 0.59237 0.68658 -0.00113 0.0
C148 C 0.61044 0.69344 0.05567 0.0
C149 C 0.64749 0.701 0.0559 0.0
C150 C 0.70573 0.70249 0.00119 0.0
H151 H 0.6621 0.70554 0.09928 0.0
C152 C 0.72447 0.73492 0.01318 0.0
C153 C 0.76221 0.73601 0.01017 0.0
C154 C 0.72482 0.67109 0.98787 0.0
H155 H 0.71074 0.64592 0.97858 0.0
C156 C 0.76214 0.67189 0.98646 0.0
H157 H 0.70971 0.7593 0.02246 0.0
C158 C 0.78076 0.70409 0.99728 0.0
H159 H 0.80976 0.70406 0.99555 0.0
H160 H 0.77668 0.64752 0.97642 0.0
H161 H 0.27393 0.61109 0.07627 0.0
C162 C 0.28443 0.60967 0.02992 0.0
C163 C 0.31744 0.59326 0.01951 0.0
C164 C 0.26374 0.6225 0.98067 0.0
H165 H 0.35485 0.57638 0.95058 0.0
C166 C 0.32989 0.59017 0.95894 0.0
C167 C 0.30939 0.6029 0.90883 0.0
C168 C 0.27632 0.61943 0.92017 0.0
C169 C 0.22766 0.63613 0.99317 0.0
H170 H 0.25983 0.62867 0.88199 0.0
C171 C 0.22022 0.67279 0.98873 0.0
C172 C 0.18725 0.68617 0.00886 0.0
C173 C 0.20159 0.61273 0.01569 0.0
H174 H 0.2071 0.5844 0.01977 0.0
C175 C 0.16851 0.62583 0.03413 0.0
H176 H 0.24057 0.691 0.97247 0.0
C177 C 0.16143 0.66241 0.0313 0.0
H178 H 0.13572 0.67219 0.04648 0.0
H179 H 0.14853 0.60769 0.05154 0.0
H180 H 0.86233 0.81871 0.60294 0.0
C181 C 0.86305 0.83226 0.55922 0.0
C182 C 0.87828 0.86679 0.55649 0.0
C183 C 0.85163 0.81368 0.50513 0.0
H184 H 0.89352 0.90901 0.49591 0.0
C185 C 0.87998 0.8833 0.49895 0.0
C186 C 0.86856 0.86505 0.44428 0.0
C187 C 0.85418 0.83019 0.44787 0.0
C188 C 0.84528 0.7747 0.50743 0.0
H189 H 0.84698 0.81507 0.40591 0.0
C190 C 0.81133 0.76028 0.52013 0.0
C191 C 0.80712 0.72301 0.52668 0.0
C192 C 0.8746 0.75176 0.50022 0.0
H193 H 0.90092 0.76255 0.49067 0.0
C194 C 0.87036 0.71487 0.50637 0.0
H195 H 0.78863 0.7779 0.52597 0.0
C196 C 0.83689 0.70054 0.51989 0.0
H197 H 0.8341 0.67178 0.52441 0.0
H198 H 0.89313 0.69736 0.50099 0.0
H199 H 0.2108 0.86758 0.61666 0.0
C200 C 0.19626 0.8707 0.57321 0.0
C201 C 0.16244 0.88706 0.57257 0.0
C202 C 0.21292 0.86116 0.5179 0.0
H203 H 0.11906 0.9056 0.51437 0.0
C204 C 0.14444 0.89165 0.51558 0.0
C205 C 0.16083 0.88212 0.45966 0.0
C206 C 0.1952 0.86692 0.46127 0.0
C207 C 0.25139 0.8525 0.5196 0.0
H208 H 0.20885 0.86107 0.41849 0.0
C209 C 0.26343 0.81765 0.53145 0.0
C210 C 0.30042 0.81111 0.53798 0.0
C211 C 0.27638 0.88045 0.51336 0.0
H212 H 0.26745 0.90746 0.5046 0.0
C213 C 0.313 0.87394 0.51972 0.0
H214 H 0.24423 0.79598 0.53641 0.0
C215 C 0.32501 0.83954 0.53232 0.0
H216 H 0.35358 0.83495 0.53678 0.0
H217 H 0.33213 0.89566 0.51515 0.0
H218 H 0.18719 0.1673 0.46913 0.0
C219 C 0.17144 0.15878 0.50773 0.0
C220 C 0.13645 0.14529 0.49724 0.0
C221 C 0.18677 0.1591 0.56768 0.0
H222 H 0.08963 0.12273 0.53862 0.0
C223 C 0.11648 0.13339 0.54713 0.0
C224 C 0.1311 0.13449 0.60745 0.0
C225 C 0.16638 0.14718 0.61715 0.0
C226 C 0.22502 0.16856 0.57903 0.0
H227 H 0.17815 0.14789 0.66344 0.0
C228 C 0.23852 0.20324 0.56838 0.0
C229 C 0.27422 0.2123 0.58572 0.0
C230 C 0.24779 0.14283 0.60478 0.0
H231 H 0.23792 0.11601 0.61324 0.0
C232 C 0.28332 0.15145 0.62027 0.0
H233 H 0.22096 0.22342 0.54947 0.0
C234 C 0.29642 0.18598 0.61128 0.0
H235 H 0.32404 0.19217 0.62432 0.0
H236 H 0.30064 0.13141 0.64006 0.0
H237 H 0.76654 0.10259 0.60368 0.0
C238 C 0.78272 0.10593 0.56314 0.0
C239 C 0.81695 0.09083 0.5613 0.0
C240 C 0.76861 0.12435 0.51259 0.0
H241 H 0.86359 0.08242 0.50616 0.0
C242 C 0.83778 0.09547 0.50893 0.0
C243 C 0.82401 0.11366 0.45759 0.0
C244 C 0.78944 0.12843 0.45992 0.0
C245 C 0.73088 0.13614 0.51378 0.0
H246 H 0.77815 0.14142 0.41977 0.0
C247 C 0.72168 0.17196 0.50292 0.0
C248 C 0.68615 0.18322 0.51056 0.0
C249 C 0.70399 0.11155 0.5296 0.0
H250 H 0.71043 0.08375 0.53763 0.0
C251 C 0.66863 0.12262 0.53577 0.0
H252 H 0.74222 0.19125 0.49131 0.0
C253 C 0.65976 0.15836 0.52693 0.0
H254 H 0.63225 0.16667 0.5328 0.0
H255 H 0.64814 0.10354 0.5482 0.0
H256 H 0.14965 0.12886 0.91863 0.0
H257 H 0.16141 0.13577 0.11756 0.0
H258 H 0.21581 0.17216 0.10831 0.0
H259 H 0.26403 0.19573 0.04309 0.0
H260 H 0.25298 0.18521 0.84475 0.0
H261 H 0.19421 0.15675 0.85432 0.0
C262 C 0.16374 0.13867 0.96016 0.0
C263 C 0.15164 0.12911 0.0187 0.0
C264 C 0.19538 0.15876 0.95451 0.0
C265 C 0.17019 0.14248 0.07185 0.0
C266 C 0.20142 0.16319 0.06661 0.0
C267 C 0.24828 0.18784 0.00218 0.0
C268 C 0.26268 0.19225 0.94335 0.0
C269 C 0.21486 0.17058 0.00814 0.0
C270 C 0.24236 0.18176 0.89046 0.0
C271 C 0.20886 0.16546 0.89593 0.0
H272 H 0.86563 0.18328 0.98833 0.0
H273 H 0.88722 0.17644 0.18465 0.0
H274 H 0.85389 0.23156 0.203 0.0
H275 H 0.82304 0.28432 0.16254 0.0
H276 H 0.80212 0.29153 0.96646 0.0
H277 H 0.83049 0.23337 0.94884 0.0
C278 C 0.86277 0.19356 0.03528 0.0
C279 C 0.87941 0.17592 0.08492 0.0
C280 C 0.84388 0.22547 0.0455 0.0
C281 C 0.87498 0.18952 0.14546 0.0
C282 C 0.85601 0.22115 0.15602 0.0
C283 C 0.82464 0.27306 0.11599 0.0
C284 C 0.81095 0.29233 0.06575 0.0
C285 C 0.84115 0.23979 0.10626 0.0
C286 C 0.81245 0.27715 0.00582 0.0
C287 C 0.82881 0.24402 0.99574 0.0
H288 H 0.84131 0.8826 0.0828 0.0
H289 H 0.89805 0.85475 0.91669 0.0
H290 H 0.86169 0.80056 0.90251 0.0
H291 H 0.81412 0.76078 0.9368 0.0
H292 H 0.75582 0.78812 0.10092 0.0
H293 H 0.79203 0.84303 0.11584 0.0
C294 C 0.84576 0.86462 0.04361 0.0
C295 C 0.87253 0.87277 0.00104 0.0
C296 C 0.82434 0.83351 0.03513 0.0
C297 C 0.87767 0.84929 0.95018 0.0
C298 C 0.85688 0.81821 0.94196 0.0
C299 C 0.80944 0.7787 0.97601 0.0
C300 C 0.78258 0.77029 0.018 0.0
C301 C 0.83021 0.81005 0.98409 0.0
C302 C 0.77628 0.79411 0.06785 0.0
C303 C 0.7971 0.82536 0.07654 0.0
H304 H 0.14049 0.84356 0.95423 0.0
H305 H 0.11578 0.84156 0.14826 0.0
H306 H 0.14306 0.78261 0.15592 0.0
H307 H 0.1667 0.72853 0.10444 0.0
H308 H 0.19108 0.73021 0.91077 0.0
H309 H 0.1712 0.79255 0.90596 0.0
C310 C 0.14159 0.83055 -0.0015 0.0
C311 C 0.12545 0.8467 0.05028 0.0
C312 C 0.15678 0.7964 0.0024 0.0
C313 C 0.1277 0.82968 0.10749 0.0
C314 C 0.14308 0.79582 0.11187 0.0
C315 C 0.16794 0.74279 0.06143 0.0
C316 C 0.17967 0.72492 0.00777 0.0
C317 C 0.15646 0.77842 0.05913 0.0
C318 C 0.18193 0.74359 0.95248 0.0
C319 C 0.17049 0.77909 0.94974 0.0
H320 H 0.67838 0.62407 0.59793 0.0
H321 H 0.63693 0.66093 0.42304 0.0
H322 H 0.68727 0.70285 0.41675 0.0
H323 H 0.7466 0.72433 0.45538 0.0
H324 H 0.78988 0.68403 0.62598 0.0
H325 H 0.73526 0.64858 0.64004 0.0
C326 C 0.68002 0.64165 0.55889 0.0
C327 C 0.65405 0.63908 0.51081 0.0
C328 C 0.70956 0.66503 0.55469 0.0
C329 C 0.6567 0.66208 0.46049 0.0
C330 C 0.68551 0.68608 0.45679 0.0
C331 C 0.74355 0.70837 0.4962 0.0
C332 C 0.77192 0.70672 0.53973 0.0
C333 C 0.7126 0.68712 0.50279 0.0
C334 C 0.76819 0.68561 0.59205 0.0
C335 C 0.73709 0.66528 0.59991 0.0
H336 H 0.39308 0.67624 0.59762 0.0
H337 H 0.35056 0.64274 0.41818 0.0
H338 H 0.31034 0.69405 0.41782 0.0
H339 H 0.29319 0.75273 0.46214 0.0
H340 H 0.33998 0.78911 0.63653 0.0
H341 H 0.37219 0.73248 0.6459 0.0
C342 C 0.37441 0.67976 0.55915 0.0
C343 C 0.37491 0.65587 0.5079 0.0
C344 C 0.35234 0.71014 0.55817 0.0
C345 C 0.35084 0.66095 0.45801 0.0
C346 C 0.32789 0.69033 0.45769 0.0
C347 C 0.30976 0.74772 0.5028 0.0
C348 C 0.31424 0.77472 0.54871 0.0
C349 C 0.32926 0.71574 0.50654 0.0
C350 C 0.3362 0.76847 0.6008 0.0
C351 C 0.35469 0.73622 0.60597 0.0
H352 H 0.3571 0.36027 0.59891 0.0
H353 H 0.32584 0.35939 0.40553 0.0
H354 H 0.29204 0.30377 0.41811 0.0
H355 H 0.27411 0.25321 0.48293 0.0
H356 H 0.30733 0.25369 0.67503 0.0
H357 H 0.33725 0.31164 0.66417 0.0
C358 C 0.34274 0.34812 0.55948 0.0
C359 C 0.34426 0.36405 0.50128 0.0
C360 C 0.32365 0.31591 0.56681 0.0
C361 C 0.32535 0.34776 0.45087 0.0
C362 C 0.30596 0.31589 0.45798 0.0
C363 C 0.28746 0.26636 0.52246 0.0
C364 C 0.28867 0.24921 0.57959 0.0
C365 C 0.30526 0.29945 0.51557 0.0
C366 C 0.30632 0.2663 0.63046 0.0
C367 C 0.32344 0.2994 0.62428 0.0
H368 H 0.62434 0.33168 0.43299 0.0
H369 H 0.60605 0.33964 0.62924 0.0
H370 H 0.63776 0.2835 0.64433 0.0
H371 H 0.66487 0.22893 0.60023 0.0
H372 H 0.68433 0.22115 0.40497 0.0
H373 H 0.6582 0.28064 0.39081 0.0
C374 C 0.62767 0.32135 0.47916 0.0
C375 C 0.61231 0.33952 0.52974 0.0
C376 C 0.64594 0.28903 0.48756 0.0
C377 C 0.61739 0.32611 0.58942 0.0
C378 C 0.6354 0.29391 0.59811 0.0
C379 C 0.66389 0.24071 0.55488 0.0
C380 C 0.67612 0.22102 0.50356 0.0
C381 C 0.64889 0.2747 0.54733 0.0
C382 C 0.67503 0.23617 0.44492 0.0
C383 C 0.65996 0.26997 0.43689 0.0
H384 H 0.04901 0.15416 0.24571 0.0
H385 H 0.05587 0.03931 0.25692 0.0
H386 H 0.09393 0.04559 0.3503 0.0
H387 H 0.12113 0.08398 0.43335 0.0
H388 H 0.11562 0.19889 0.42174 0.0
H389 H 0.08137 0.19275 0.32374 0.0
C390 C 0.05936 0.13066 0.26838 0.0
C391 C 0.05024 0.09633 0.24458 0.0
C392 C 0.08121 0.1346 0.32198 0.0
C393 C 0.0634 0.06593 0.27401 0.0
C394 C 0.08481 0.06955 0.3276 0.0
C395 C 0.11286 0.10757 0.4086 0.0
C396 C 0.12064 0.14181 0.4342 0.0
C397 C 0.09339 0.10373 0.35253 0.0
C398 C 0.10996 0.17233 0.40231 0.0
C399 C 0.09025 0.16878 0.34666 0.0
H400 H 0.93288 0.07776 0.24913 0.0
H401 H 0.83694 0.03021 0.16699 0.0
H402 H 0.80074 0.05855 0.2468 0.0
H403 H 0.79771 0.08864 0.34801 0.0
H404 H 0.89406 0.13107 0.43686 0.0
H405 H 0.92882 0.11367 0.34623 0.0
C406 C 0.90397 0.07459 0.24794 0.0
C407 C 0.88747 0.05208 0.20259 0.0
C408 C 0.88352 0.08976 0.29559 0.0
C409 C 0.85009 0.04739 0.20187 0.0
C410 C 0.82943 0.0635 0.24748 0.0
C411 C 0.8261 0.09512 0.34662 0.0
C412 C 0.84336 0.11115 0.39869 0.0
C413 C 0.84601 0.08361 0.29578 0.0
C414 C 0.8803 0.11873 0.39706 0.0
C415 C 0.90015 0.10861 0.34548 0.0
H416 H 0.93138 0.95603 0.23112 0.0
H417 H 0.97464 0.85282 0.18159 0.0
H418 H 0.93813 0.82435 0.25914 0.0
H419 H 0.90101 0.83022 0.35013 0.0
H420 H 0.85963 0.93365 0.40428 0.0
H421 H 0.88759 0.96068 0.31502 0.0
C422 C 0.93164 0.9272 0.23587 0.0
C423 C 0.95526 0.90643 0.20061 0.0
C424 C 0.91129 0.91118 0.28186 0.0
C425 C 0.95657 0.86923 0.20849 0.0
C426 C 0.93578 0.85298 0.25282 0.0
C427 C 0.89706 0.85843 0.34133 0.0
C428 C 0.87836 0.87992 0.38381 0.0
C429 C 0.91399 0.87386 0.29114 0.0
C430 C 0.87414 0.91662 0.37237 0.0
C431 C 0.89021 0.93208 0.32152 0.0
H432 H 0.06571 0.93798 0.23797 0.0
H433 H 0.16553 0.99078 0.1987 0.0
H434 H 0.19583 0.95841 0.28124 0.0
H435 H 0.19255 0.92015 0.37111 0.0
H436 H 0.09198 0.87076 0.41675 0.0
H437 H 0.06325 0.89636 0.32504 0.0
C438 C 0.09424 0.94151 0.24654 0.0
C439 C 0.11352 0.96631 0.21211 0.0
C440 C 0.11119 0.92375 0.29565 0.0
C441 C 0.15027 0.97168 0.2247 0.0
C442 C 0.16755 0.95328 0.27192 0.0
C443 C 0.16455 0.91429 0.36013 0.0
C444 C 0.14443 0.89345 0.40026 0.0
C445 C 0.1481 0.92995 0.30865 0.0
C446 C 0.10796 0.88677 0.38639 0.0
C447 C 0.09156 0.90143 0.3341 0.0
H448 H 0.08201 0.96289 0.79438 0.0
H449 H 0.18997 0.0008 0.835 0.0
H450 H 0.21193 0.96582 0.7476 0.0
H451 H 0.20059 0.92672 0.65754 0.0
H452 H 0.09339 0.88791 0.6149 0.0
H453 H 0.07098 0.92116 0.70513 0.0
C454 C 0.11035 0.96336 0.78422 0.0
C455 C 0.13427 0.98454 0.82125 0.0
C456 C 0.12294 0.9431 0.73354 0.0
C457 C 0.17091 0.9848 0.80743 0.0
C458 C 0.18356 0.9648 0.75737 0.0
C459 C 0.17243 0.92481 0.6686 0.0
C460 C 0.14878 0.90451 0.62987 0.0
C461 C 0.15983 0.94405 0.72 0.0
C462 C 0.11216 0.90335 0.64397 0.0
C463 C 0.09936 0.92235 0.69551 0.0
H464 H 0.06358 0.07394 0.84921 0.0
H465 H 0.97129 0.13014 0.77898 0.0
H466 H 0.00472 0.14714 0.68803 0.0
H467 H 0.06107 0.14827 0.63098 0.0
H468 H 0.15331 0.09226 0.70217 0.0
H469 H 0.11904 0.07315 0.79058 0.0
C470 C 0.0506 0.08949 0.81366 0.0
C471 C 0.015 0.10072 0.82084 0.0
C472 C 0.0701 0.09952 0.76203 0.0
C473 C 0.99874 0.12131 0.7747 0.0
C474 C 0.01783 0.13103 0.72271 0.0
C475 C 0.07353 0.13153 0.66547 0.0
C476 C 0.10976 0.12189 0.6601 0.0
C477 C 0.05366 0.12063 0.71625 0.0
C478 C 0.12565 0.10054 0.70565 0.0
C479 C 0.10601 0.0894 0.75603 0.0
H480 H 0.84176 0.9823 0.7758 0.0
H481 H 0.94591 0.03384 0.78281 0.0
H482 H 0.92864 0.07054 0.69516 0.0
H483 H 0.88263 0.08987 0.61935 0.0
H484 H 0.77862 0.03814 0.61452 0.0
H485 H 0.79711 0.9998 0.69873 0.0
C486 C 0.86076 0.00147 0.75812 0.0
C487 C 0.89493 0.00548 0.78603 0.0
C488 C 0.85058 0.02265 0.70831 0.0
C489 C 0.91934 0.03027 0.76221 0.0
C490 C 0.90948 0.05132 0.71215 0.0
C491 C 0.86418 0.07004 0.63663 0.0
C492 C 0.82916 0.06721 0.61147 0.0
C493 C 0.87499 0.04803 0.68529 0.0
C494 C 0.80546 0.04139 0.63411 0.0
C495 C 0.81607 0.01929 0.68196 0.0
H496 H 0.96453 0.95866 0.76061 0.0
H497 H 0.00198 0.85315 0.80649 0.0
H498 H 0.96377 0.82648 0.72481 0.0
H499 H 0.92093 0.8329 0.63931 0.0
H500 H 0.88097 0.93764 0.59486 0.0
H501 H 0.91916 0.96478 0.67681 0.0
C502 C 0.9641 0.92983 0.75311 0.0
C503 C 0.98597 0.90799 0.79005 0.0
C504 C 0.94156 0.91448 0.70648 0.0
C505 C 0.98546 0.87068 0.77894 0.0
C506 C 0.96349 0.85532 0.73232 0.0
C507 C 0.91968 0.86157 0.64853 0.0
C508 C 0.89782 0.8831 0.61113 0.0
C509 C 0.94139 0.87693 0.69598 0.0
C510 C 0.8976 0.92039 0.62277 0.0
C511 C 0.91936 0.93594 0.66981 0.0
H512 H 0.50308 0.64028 0.72572 0.0
H513 H 0.5962 0.58248 0.66646 0.0
H514 H 0.63124 0.6078 0.75263 0.0
H515 H 0.63462 0.64381 0.84885 0.0
H516 H 0.54261 0.70485 0.90546 0.0
H517 H 0.50806 0.68087 0.81644 0.0
C518 C 0.53108 0.63322 0.73134 0.0
C519 C 0.54665 0.60851 0.68974 0.0
C520 C 0.55132 0.64856 0.78091 0.0
C521 C 0.58311 0.60043 0.69778 0.0
C522 C 0.60334 0.61522 0.74725 0.0
C523 C 0.60729 0.6526 0.84111 0.0
C524 C 0.59122 0.67588 0.88431 0.0
C525 C 0.5876 0.63897 0.78957 0.0
C526 C 0.55552 0.68645 0.87366 0.0
C527 C 0.53573 0.67284 0.82264 0.0
H528 H 0.33988 0.53161 0.65004 0.0
H529 H 0.44722 0.56581 0.7008 0.0
H530 H 0.42491 0.59948 0.79011 0.0
H531 H 0.37575 0.61174 0.86145 0.0
H532 H 0.26868 0.57452 0.81334 0.0
H533 H 0.28964 0.54997 0.71508 0.0
C534 C 0.35816 0.54719 0.67999 0.0
C535 C 0.39505 0.54699 0.66844 0.0
C536 C 0.34513 0.56553 0.73214 0.0
C537 C 0.41865 0.56687 0.70753 0.0
C538 C 0.4059 0.58553 0.75924 0.0
C539 C 0.35696 0.59875 0.82891 0.0
C540 C 0.32082 0.59464 0.84485 0.0
C541 C 0.36934 0.58406 0.77304 0.0
C542 C 0.2966 0.57821 0.80203 0.0
C543 C 0.30863 0.56386 0.74607 0.0
H544 H 0.50025 0.40938 0.75614 0.0
H545 H 0.40389 0.41831 0.6446 0.0
H546 H 0.36864 0.39296 0.72668 0.0
H547 H 0.36621 0.36432 0.82872 0.0
H548 H 0.46311 0.35765 0.94023 0.0
H549 H 0.49718 0.38633 0.85994 0.0
C550 C 0.47147 0.40604 0.74965 0.0
C551 C 0.45486 0.41479 0.69308 0.0
C552 C 0.45152 0.39179 0.79738 0.0
C553 C 0.4175 0.41105 0.68656 0.0
C554 C 0.39731 0.39659 0.73382 0.0
C555 C 0.39472 0.36946 0.83532 0.0
C556 C 0.4122 0.35893 0.89006 0.0
C557 C 0.4142 0.38612 0.78896 0.0
C558 C 0.44908 0.36586 0.89862 0.0
C559 C 0.46859 0.38208 0.85268 0.0
H560 H 0.65599 0.49999 0.72013 0.0
H561 H 0.57269 0.4216 0.68042 0.0
H562 H 0.59093 0.38802 0.77063 0.0
H563 H 0.62728 0.38435 0.8672 0.0
H564 H 0.7131 0.4606 0.90309 0.0
H565 H 0.69775 0.49137 0.80755 0.0
C566 C 0.64198 0.47537 0.73079 0.0
C567 C 0.61196 0.46405 0.69454 0.0
C568 C 0.65327 0.45582 0.78217 0.0
C569 C 0.59493 0.43159 0.70826 0.0
C570 C 0.60557 0.41224 0.7599 0.0
C571 C 0.64299 0.40725 0.85314 0.0
C572 C 0.67115 0.42039 0.8917 0.0
C573 C 0.6341 0.42464 0.79813 0.0
C574 C 0.69148 0.45 0.87356 0.0
C575 C 0.68253 0.4677 0.81932 0.0
H576 H 0.57145 0.43858 0.30249 0.0
H577 H 0.5759 0.5448 0.22796 0.0
H578 H 0.59916 0.5202 0.13135 0.0
H579 H 0.62625 0.47 0.07447 0.0
H580 H 0.6268 0.36478 0.15247 0.0
H581 H 0.59333 0.38736 0.24125 0.0
C582 C 0.57683 0.45626 0.26466 0.0
C583 C 0.57239 0.4935 0.27259 0.0
C584 C 0.59146 0.44211 0.21014 0.0
C585 C 0.57946 0.51607 0.22317 0.0
C586 C 0.59285 0.50204 0.16799 0.0
C587 C 0.61814 0.45185 0.11012 0.0
C588 C 0.62884 0.41583 0.10718 0.0
C589 C 0.60014 0.46532 0.16185 0.0
C590 C 0.61883 0.39265 0.15409 0.0
C591 C 0.59984 0.40557 0.2048 0.0
H592 H 0.50036 0.66307 0.26542 0.0
H593 H 0.59326 0.61266 0.34572 0.0
H594 H 0.62985 0.63276 0.26099 0.0
H595 H 0.63428 0.66083 0.16005 0.0
H596 H 0.54222 0.71436 0.08236 0.0
H597 H 0.50654 0.69701 0.17011 0.0
C598 C 0.52866 0.65666 0.26438 0.0
C599 C 0.54404 0.63611 0.3114 0.0
C600 C 0.54967 0.66882 0.21592 0.0
C601 C 0.58082 0.62846 0.31015 0.0
C602 C 0.60175 0.63989 0.26157 0.0
C603 C 0.60671 0.66956 0.16297 0.0
C604 C 0.59089 0.68848 0.11413 0.0
C605 C 0.58636 0.65971 0.21379 0.0
C606 C 0.55492 0.69916 0.11867 0.0
C607 C 0.53447 0.68929 0.16886 0.0
H608 H 0.37983 0.49188 0.22165 0.0
H609 H 0.36821 0.58742 0.33562 0.0
H610 H 0.34919 0.62077 0.24492 0.0
H611 H 0.33227 0.62153 0.13425 0.0
H612 H 0.34433 0.52569 0.02107 0.0
H613 H 0.36781 0.49385 0.11025 0.0
C614 C 0.37343 0.52003 0.22658 0.0
C615 C 0.37505 0.537 0.28526 0.0
C616 C 0.36282 0.53901 0.17434 0.0
C617 C 0.36695 0.57365 0.29094 0.0
C618 C 0.35609 0.59274 0.23912 0.0
C619 C 0.34038 0.59377 0.12916 0.0
C620 C 0.33647 0.57592 0.07137 0.0
C621 C 0.35341 0.57552 0.18078 0.0
C622 C 0.34743 0.5401 0.06498 0.0
C623 C 0.36051 0.52178 0.11605 0.0
H624 H 0.46134 0.34767 0.3055 0.0
H625 H 0.44166 0.45866 0.26519 0.0
H626 H 0.40533 0.44029 0.17447 0.0
H627 H 0.38322 0.39345 0.10254 0.0
H628 H 0.40729 0.28269 0.13708 0.0
H629 H 0.43601 0.30019 0.23592 0.0
C630 C 0.44875 0.36785 0.27728 0.0
C631 C 0.4543 0.40449 0.29203 0.0
C632 C 0.42815 0.35717 0.22477 0.0
C633 C 0.43765 0.43029 0.25521 0.0
C634 C 0.41684 0.41986 0.20335 0.0
C635 C 0.39448 0.37307 0.13194 0.0
C636 C 0.39347 0.33687 0.11195 0.0
C637 C 0.41247 0.38346 0.18714 0.0
C638 C 0.40741 0.31073 0.15133 0.0
C639 C 0.42432 0.32078 0.20754 0.0
loop_
_geom_bond_atom_site_label_1
_geom_bond_atom_site_label_2
_geom_bond_distance
_geom_bond_site_symmetry_2
_ccdc_geom_bond_type
Zn0 O2 1.933 1_556 S
Zn0 O20 1.985 . S
Zn0 O31 1.955 . S
Zn1 O2 1.911 . S
Zn1 O21 1.970 . S
Zn1 O37 1.945 . S
Zn1 O44 1.981 . S
O2 Zn0 1.933 1_554 S
O2 Zn1 1.911 . S
O2 H3 0.841 1_655 S
H3 O2 0.841 1_455 S
C4 O5 1.246 . S
C4 O33 1.276 1_545 S
O5 C4 1.246 . S
Zn6 O8 1.911 . S
Zn6 O23 1.970 . S
Zn6 O40 1.945 . S
Zn6 O47 1.981 . S
Zn7 O8 1.933 1_556 S
Zn7 O22 1.985 . S
Zn7 O29 1.955 . S
O8 Zn6 1.911 . S
O8 Zn7 1.933 1_554 S
O8 H9 0.841 1_455 S
H9 O8 0.841 1_655 S
Zn10 O11 1.933 1_556 S
Zn10 O24 1.985 . S
Zn10 O33 1.955 . S
O11 Zn10 1.933 1_554 S
O11 Zn12 1.911 . S
O11 H13 0.841 1_565 S
Zn12 O11 1.911 . S
Zn12 O25 1.970 . S
Zn12 O41 1.981 . S
Zn12 O43 1.945 . S
H13 O11 0.841 1_545 S
Zn14 O15 1.933 1_556 S
Zn14 O27 1.985 . S
Zn14 O35 1.955 . S
O15 Zn14 1.933 1_554 S
O15 H16 0.841 1_545 S
O15 Zn17 1.911 . S
H16 O15 0.841 1_565 S
Zn17 O15 1.911 . S
Zn17 O28 1.970 . S
Zn17 O38 1.981 . S
Zn17 O46 1.945 . S
C18 O19 1.246 . S
C18 O35 1.276 1_565 S
O19 C18 1.246 . S
O20 Zn0 1.985 . S
O20 C30 1.245 1_556 S
O21 Zn1 1.970 . S
O21 C30 1.263 . S
O22 Zn7 1.985 . S
O22 C34 1.245 1_556 S
O23 Zn6 1.970 . S
O23 C34 1.263 . S
O24 Zn10 1.985 . S
O24 C39 1.245 1_556 S
O25 Zn12 1.970 . S
O25 C39 1.263 . S
C26 O37 1.262 1_455 S
C26 O38 1.245 . S
O27 Zn14 1.985 . S
O27 C45 1.245 1_556 S
O28 Zn17 1.970 . S
O28 C45 1.263 . S
O29 Zn7 1.955 . S
O29 C48 1.276 1_455 S
C30 O20 1.245 1_554 S
C30 O21 1.263 . S
O31 Zn0 1.955 . S
O31 C50 1.276 1_655 S
C32 O40 1.262 1_655 S
C32 O41 1.245 . S
O33 C4 1.276 1_565 S
O33 Zn10 1.955 . S
C34 O22 1.245 1_554 S
C34 O23 1.263 . S
O35 Zn14 1.955 . S
O35 C18 1.276 1_545 S
C36 O43 1.262 1_545 S
C36 O44 1.245 . S
O37 Zn1 1.945 . S
O37 C26 1.262 1_655 S
O38 Zn17 1.981 . S
O38 C26 1.245 . S
C39 O24 1.245 1_554 S
C39 O25 1.263 . S
O40 Zn6 1.945 . S
O40 C32 1.262 1_455 S
O41 Zn12 1.981 . S
O41 C32 1.245 . S
C42 O46 1.262 1_565 S
C42 O47 1.245 . S
O43 Zn12 1.945 . S
O43 C36 1.262 1_565 S
O44 Zn1 1.981 . S
O44 C36 1.245 . S
C45 O27 1.245 1_554 S
C45 O28 1.263 . S
O46 Zn17 1.945 . S
O46 C42 1.262 1_545 S
O47 Zn6 1.981 . S
O47 C42 1.245 . S
C48 O29 1.276 1_655 S
C48 O49 1.246 . S
O49 C48 1.246 . S
C50 O31 1.276 1_455 S
C50 O51 1.246 . S
O51 C50 1.246 . S
Zn52 O54 1.933 . S
Zn52 O72 1.985 . S
Zn52 O83 1.955 . S
Zn53 O54 1.911 . S
Zn53 O73 1.970 . S
Zn53 O89 1.945 . S
Zn53 O96 1.981 . S
O54 Zn52 1.933 . S
O54 Zn53 1.911 . S
O54 H55 0.841 . S
H55 O54 0.841 . S
C56 O57 1.246 . S
C56 O85 1.276 . S
O57 C56 1.246 . S
Zn58 O60 1.911 . S
Zn58 O75 1.970 . S
Zn58 O92 1.945 . S
Zn58 O99 1.981 . S
Zn59 O60 1.933 . S
Zn59 O74 1.985 . S
Zn59 O81 1.955 . S
O60 Zn58 1.911 . S
O60 Zn59 1.933 . S
O60 H61 0.841 . S
H61 O60 0.841 . S
Zn62 O63 1.933 . S
Zn62 O76 1.985 . S
Zn62 O85 1.955 . S
O63 Zn62 1.933 . S
O63 Zn64 1.911 . S
O63 H65 0.841 . S
Zn64 O63 1.911 . S
Zn64 O77 1.970 . S
Zn64 O93 1.981 . S
Zn64 O95 1.945 . S
H65 O63 0.841 . S
Zn66 O67 1.933 . S
Zn66 O79 1.985 . S
Zn66 O87 1.955 . S
O67 Zn66 1.933 . S
O67 H68 0.841 . S
O67 Zn69 1.911 . S
H68 O67 0.841 . S
Zn69 O67 1.911 . S
Zn69 O80 1.970 . S
Zn69 O90 1.981 . S
Zn69 O98 1.945 . S
C70 O71 1.246 . S
C70 O87 1.276 . S
O71 C70 1.246 . S
O72 Zn52 1.985 . S
O72 C82 1.245 . S
O73 Zn53 1.970 . S
O73 C82 1.263 . S
O74 Zn59 1.985 . S
O74 C86 1.245 . S
O75 Zn58 1.970 . S
O75 C86 1.263 . S
O76 Zn62 1.985 . S
O76 C91 1.245 . S
O77 Zn64 1.970 . S
O77 C91 1.263 . S
C78 O89 1.262 . S
C78 O90 1.245 . S
O79 Zn66 1.985 . S
O79 C97 1.245 . S
O80 Zn69 1.970 . S
O80 C97 1.263 . S
O81 Zn59 1.955 . S
O81 C100 1.276 . S
C82 O72 1.245 . S
C82 O73 1.263 . S
O83 Zn52 1.955 . S
O83 C102 1.276 . S
C84 O92 1.262 . S
C84 O93 1.245 . S
O85 C56 1.276 . S
O85 Zn62 1.955 . S
C86 O74 1.245 . S
C86 O75 1.263 . S
O87 Zn66 1.955 . S
O87 C70 1.276 . S
C88 O95 1.262 . S
C88 O96 1.245 . S
O89 Zn53 1.945 . S
O89 C78 1.262 . S
O90 Zn69 1.981 . S
O90 C78 1.245 . S
C91 O76 1.245 . S
C91 O77 1.263 . S
O92 Zn58 1.945 . S
O92 C84 1.262 . S
O93 Zn64 1.981 . S
O93 C84 1.245 . S
C94 O98 1.262 . S
C94 O99 1.245 . S
O95 Zn64 1.945 . S
O95 C88 1.262 . S
O96 Zn53 1.981 . S
O96 C88 1.245 . S
C97 O79 1.245 . S
C97 O80 1.263 . S
O98 Zn69 1.945 . S
O98 C94 1.262 . S
O99 Zn58 1.981 . S
O99 C94 1.245 . S
C100 O81 1.276 . S
C100 O101 1.246 . S
O101 C100 1.246 . S
C102 O83 1.276 . S
C102 O103 1.246 . S
O103 C102 1.246 . S
H104 C105 0.949 . S
C105 H104 0.949 . S
C105 C106 1.395 . S
C105 C107 1.391 1_554 S
C106 C105 1.395 . S
C106 C109 1.390 . S
C107 C105 1.391 1_556 S
C107 C111 1.387 . S
C107 C112 1.491 . S
H108 C109 0.950 . S
C109 C106 1.390 . S
C109 H108 0.950 . S
C109 C110 1.378 1_554 S
C110 C109 1.378 1_556 S
C110 C111 1.409 . S
C111 C107 1.387 . S
C111 C110 1.409 . S
C111 H113 0.951 . S
C112 C107 1.491 . S
C112 C114 1.382 1_556 S
C112 C116 1.404 . S
H113 C111 0.951 . S
C114 C112 1.382 1_554 S
C114 C115 1.390 . S
C114 H119 0.949 . S
C115 C114 1.390 . S
C115 C120 1.399 1_554 S
C116 C112 1.404 . S
C116 H117 0.950 . S
C116 C118 1.375 . S
H117 C116 0.950 . S
C118 C116 1.375 . S
C118 C120 1.382 . S
C118 H122 0.950 . S
H119 C114 0.949 . S
C120 C115 1.399 1_556 S
C120 C118 1.382 . S
C120 H121 0.952 . S
H121 C120 0.952 . S
H122 C118 0.950 . S
H123 C124 0.949 . S
C124 H123 0.949 . S
C124 C125 1.395 . S
C124 C126 1.406 . S
C125 C124 1.395 . S
C125 C128 1.390 . S
C126 C124 1.406 . S
C126 C130 1.375 1_554 S
C126 C131 1.489 1_554 S
H127 C128 0.950 . S
C128 C125 1.390 . S
C128 H127 0.950 . S
C128 C129 1.378 1_554 S
C129 C128 1.378 1_556 S
C129 C130 1.409 . S
C130 C126 1.375 1_556 S
C130 C129 1.409 . S
C130 H132 0.951 . S
C131 C126 1.489 1_556 S
C131 C133 1.382 1_556 S
C131 C135 1.404 . S
H132 C130 0.951 . S
C133 C131 1.382 1_554 S
C133 C134 1.390 . S
C133 H138 0.949 . S
C134 C133 1.390 . S
C134 C139 1.399 1_554 S
C135 C131 1.404 . S
C135 H136 0.950 . S
C135 C137 1.375 . S
H136 C135 0.950 . S
C137 C135 1.375 . S
C137 C139 1.382 . S
C137 H141 0.950 . S
H138 C133 0.949 . S
C139 C134 1.399 1_556 S
C139 C137 1.382 . S
C139 H140 0.952 . S
H140 C139 0.952 . S
H141 C137 0.950 . S
H142 C143 0.949 . S
C143 H142 0.949 . S
C143 C144 1.395 . S
C143 C145 1.391 1_556 S
C144 C143 1.395 . S
C144 C147 1.390 1_556 S
C145 C143 1.391 1_554 S
C145 C149 1.387 . S
C145 C150 1.491 . S
H146 C147 0.950 . S
C147 C144 1.390 1_554 S
C147 H146 0.950 . S
C147 C148 1.378 . S
C148 C147 1.378 . S
C148 C149 1.409 . S
C149 C145 1.387 . S
C149 C148 1.409 . S
C149 H151 0.951 . S
C150 C145 1.491 . S
C150 C152 1.382 . S
C150 C154 1.404 . S
H151 C149 0.951 . S
C152 C150 1.382 . S
C152 C153 1.390 . S
C152 H157 0.949 1_554 S
C153 C152 1.390 . S
C153 C158 1.399 . S
C154 C150 1.404 . S
C154 H155 0.950 . S
C154 C156 1.375 . S
H155 C154 0.950 . S
C156 C154 1.375 . S
C156 C158 1.382 . S
C156 H160 0.950 . S
H157 C152 0.949 1_556 S
C158 C153 1.399 . S
C158 C156 1.382 . S
C158 H159 0.952 . S
H159 C158 0.952 . S
H160 C156 0.950 . S
H161 C162 0.949 . S
C162 H161 0.949 . S
C162 C163 1.395 . S
C162 C164 1.391 1_554 S
C163 C162 1.395 . S
C163 C166 1.390 . S
C164 C162 1.391 1_556 S
C164 C168 1.387 . S
C164 C169 1.491 . S
H165 C166 0.950 . S
C166 C163 1.390 . S
C166 H165 0.950 . S
C166 C167 1.378 1_554 S
C167 C166 1.378 1_556 S
C167 C168 1.409 . S
C168 C164 1.387 . S
C168 C167 1.409 . S
C168 H170 0.951 . S
C169 C164 1.491 . S
C169 C171 1.382 1_556 S
C169 C173 1.404 . S
H170 C168 0.951 . S
C171 C169 1.382 1_554 S
C171 C172 1.390 . S
C171 H176 0.949 . S
C172 C171 1.390 . S
C172 C177 1.399 1_554 S
C173 C169 1.404 . S
C173 H174 0.950 . S
C173 C175 1.375 . S
H174 C173 0.950 . S
C175 C173 1.375 . S
C175 C177 1.382 . S
C175 H179 0.950 . S
H176 C171 0.949 . S
C177 C172 1.399 1_556 S
C177 C175 1.382 . S
C177 H178 0.952 . S
H178 C177 0.952 . S
H179 C175 0.950 . S
H180 C181 0.949 . S
C181 H180 0.949 . S
C181 C182 1.395 . S
C181 C183 1.391 . S
C182 C181 1.395 . S
C182 C185 1.390 . S
C183 C181 1.391 . S
C183 C187 1.387 . S
C183 C188 1.491 . S
H184 C185 0.950 . S
C185 C182 1.390 . S
C185 H184 0.950 . S
C185 C186 1.378 . S
C186 C185 1.378 . S
C186 C187 1.409 . S
C187 C183 1.387 . S
C187 C186 1.409 . S
C187 H189 0.951 . S
C188 C183 1.491 . S
C188 C190 1.382 . S
C188 C192 1.404 . S
H189 C187 0.951 . S
C190 C188 1.382 . S
C190 C191 1.390 . S
C190 H195 0.949 . S
C191 C190 1.390 . S
C191 C196 1.399 . S
C192 C188 1.404 . S
C192 H193 0.950 . S
C192 C194 1.375 . S
H193 C192 0.950 . S
C194 C192 1.375 . S
C194 C196 1.382 . S
C194 H198 0.950 . S
H195 C190 0.949 . S
C196 C191 1.399 . S
C196 C194 1.382 . S
C196 H197 0.952 . S
H197 C196 0.952 . S
H198 C194 0.950 . S
H199 C200 0.949 . S
C200 H199 0.949 . S
C200 C201 1.395 . S
C200 C202 1.391 . S
C201 C200 1.395 . S
C201 C204 1.390 . S
C202 C200 1.391 . S
C202 C206 1.387 . S
C202 C207 1.491 . S
H203 C204 0.950 . S
C204 C201 1.390 . S
C204 H203 0.950 . S
C204 C205 1.378 . S
C205 C204 1.378 . S
C205 C206 1.409 . S
C206 C202 1.387 . S
C206 C205 1.409 . S
C206 H208 0.951 . S
C207 C202 1.491 . S
C207 C209 1.382 . S
C207 C211 1.404 . S
H208 C206 0.951 . S
C209 C207 1.382 . S
C209 C210 1.390 . S
C209 H214 0.949 . S
C210 C209 1.390 . S
C210 C215 1.399 . S
C211 C207 1.404 . S
C211 H212 0.950 . S
C211 C213 1.375 . S
H212 C211 0.950 . S
C213 C211 1.375 . S
C213 C215 1.382 . S
C213 H217 0.950 . S
H214 C209 0.949 . S
C215 C210 1.399 . S
C215 C213 1.382 . S
C215 H216 0.952 . S
H216 C215 0.952 . S
H217 C213 0.950 . S
H218 C219 0.949 . S
C219 H218 0.949 . S
C219 C220 1.395 . S
C219 C221 1.391 . S
C220 C219 1.395 . S
C220 C223 1.390 . S
C221 C219 1.391 . S
C221 C225 1.387 . S
C221 C226 1.491 . S
H222 C223 0.950 . S
C223 C220 1.390 . S
C223 H222 0.950 . S
C223 C224 1.378 . S
C224 C223 1.378 . S
C224 C225 1.409 . S
C225 C221 1.387 . S
C225 C224 1.409 . S
C225 H227 0.951 . S
C226 C221 1.491 . S
C226 C228 1.382 . S
C226 C230 1.404 . S
H227 C225 0.951 . S
C228 C226 1.382 . S
C228 C229 1.390 . S
C228 H233 0.949 . S
C229 C228 1.390 . S
C229 C234 1.399 . S
C230 C226 1.404 . S
C230 H231 0.950 . S
C230 C232 1.375 . S
H231 C230 0.950 . S
C232 C230 1.375 . S
C232 C234 1.382 . S
C232 H236 0.950 . S
H233 C228 0.949 . S
C234 C229 1.399 . S
C234 C232 1.382 . S
C234 H235 0.952 . S
H235 C234 0.952 . S
H236 C232 0.950 . S
H237 C238 0.949 . S
C238 H237 0.949 . S
C238 C239 1.395 . S
C238 C240 1.391 . S
C239 C238 1.395 . S
C239 C242 1.390 . S
C240 C238 1.391 . S
C240 C244 1.387 . S
C240 C245 1.491 . S
H241 C242 0.950 . S
C242 C239 1.390 . S
C242 H241 0.950 . S
C242 C243 1.378 . S
C243 C242 1.378 . S
C243 C244 1.409 . S
C244 C240 1.387 . S
C244 C243 1.409 . S
C244 H246 0.951 . S
C245 C240 1.491 . S
C245 C247 1.382 . S
C245 C249 1.404 . S
H246 C244 0.951 . S
C247 C245 1.382 . S
C247 C248 1.390 . S
C247 H252 0.949 . S
C248 C247 1.390 . S
C248 C253 1.399 . S
C249 C245 1.404 . S
C249 H250 0.950 . S
C249 C251 1.375 . S
H250 C249 0.950 . S
C251 C249 1.375 . S
C251 C253 1.382 . S
C251 H255 0.950 . S
H252 C247 0.949 . S
C253 C248 1.399 . S
C253 C251 1.382 . S
C253 H254 0.952 . S
H254 C253 0.952 . S
H255 C251 0.950 . S
H256 C262 0.930 . S
H257 C265 0.930 1_556 S
H258 C266 0.930 1_556 S
H259 C267 0.930 . S
H260 C270 0.930 . S
H261 C271 0.930 . S
C262 H256 0.930 . S
C262 C263 1.355 . S
C262 C264 1.415 . S
C263 C262 1.355 . S
C263 C265 1.419 . S
C264 C262 1.415 . S
C264 C269 1.425 . S
C264 C271 1.409 . S
C265 H257 0.930 1_554 S
C265 C263 1.419 . S
C265 C266 1.362 . S
C266 H258 0.930 1_554 S
C266 C265 1.362 . S
C266 C269 1.409 . S
C267 H259 0.930 . S
C267 C268 1.355 . S
C267 C269 1.415 . S
C268 C267 1.355 . S
C268 C270 1.419 . S
C269 C264 1.425 . S
C269 C266 1.409 . S
C269 C267 1.415 . S
C270 H260 0.930 . S
C270 C268 1.419 . S
C270 C271 1.362 . S
C271 H261 0.930 . S
C271 C264 1.409 . S
C271 C270 1.362 . S
H272 C278 0.930 . S
H273 C281 0.930 . S
H274 C282 0.930 . S
H275 C283 0.932 . S
H276 C286 0.930 . S
H277 C287 0.930 . S
C278 H272 0.930 . S
C278 C279 1.355 . S
C278 C280 1.415 . S
C279 C278 1.355 . S
C279 C281 1.419 1_554 S
C280 C278 1.415 . S
C280 C285 1.425 . S
C280 C287 1.409 . S
C281 H273 0.930 . S
C281 C279 1.419 1_556 S
C281 C282 1.362 . S
C282 H274 0.930 . S
C282 C281 1.362 . S
C282 C285 1.409 1_556 S
C283 H275 0.932 . S
C283 C284 1.355 . S
C283 C285 1.415 . S
C284 C283 1.355 . S
C284 C286 1.419 . S
C285 C280 1.425 . S
C285 C282 1.409 1_554 S
C285 C283 1.415 . S
C286 H276 0.930 . S
C286 C284 1.419 . S
C286 C287 1.362 . S
C287 H277 0.930 . S
C287 C280 1.409 . S
C287 C286 1.362 . S
H288 C294 0.930 1_556 S
H289 C297 0.930 . S
H290 C298 0.930 . S
H291 C299 0.930 . S
H292 C302 0.930 . S
H293 C303 0.930 . S
C294 H288 0.930 1_554 S
C294 C295 1.355 . S
C294 C296 1.415 1_554 S
C295 C294 1.355 . S
C295 C297 1.419 . S
C296 C294 1.415 1_556 S
C296 C301 1.423 1_556 S
C296 C303 1.411 . S
C297 H289 0.930 . S
C297 C295 1.419 . S
C297 C298 1.362 . S
C298 H290 0.930 . S
C298 C297 1.362 . S
C298 C301 1.409 . S
C299 H291 0.930 . S
C299 C300 1.351 1_554 S
C299 C301 1.415 . S
C300 C299 1.351 1_556 S
C300 C302 1.423 . S
C301 C296 1.423 1_554 S
C301 C298 1.409 . S
C301 C299 1.415 . S
C302 H292 0.930 . S
C302 C300 1.423 . S
C302 C303 1.362 . S
C303 H293 0.930 . S
C303 C296 1.411 . S
C303 C302 1.362 . S
H304 C310 0.930 . S
H305 C313 0.930 . S
H306 C314 0.930 . S
H307 C315 0.930 . S
H308 C318 0.930 . S
H309 C319 0.930 . S
C310 H304 0.930 . S
C310 C311 1.355 . S
C310 C312 1.415 . S
C311 C310 1.355 . S
C311 C313 1.419 . S
C312 C310 1.415 . S
C312 C317 1.425 . S
C312 C319 1.409 . S
C313 H305 0.930 . S
C313 C311 1.419 . S
C313 C314 1.362 . S
C314 H306 0.930 . S
C314 C313 1.362 . S
C314 C317 1.409 . S
C315 H307 0.930 . S
C315 C316 1.355 . S
C315 C317 1.415 . S
C316 C315 1.355 . S
C316 C318 1.419 . S
C317 C312 1.425 . S
C317 C314 1.409 . S
C317 C315 1.415 . S
C318 H308 0.930 . S
C318 C316 1.419 . S
C318 C319 1.362 . S
C319 H309 0.930 . S
C319 C312 1.409 . S
C319 C318 1.362 . S
H320 C326 0.930 . S
H321 C329 0.930 . S
H322 C330 0.930 . S
H323 C331 0.930 . S
H324 C334 0.930 . S
H325 C335 0.930 . S
C326 H320 0.930 . S
C326 C327 1.355 . S
C326 C328 1.415 . S
C327 C326 1.355 . S
C327 C329 1.419 . S
C328 C326 1.415 . S
C328 C333 1.425 . S
C328 C335 1.409 . S
C329 H321 0.930 . S
C329 C327 1.419 . S
C329 C330 1.362 . S
C330 H322 0.930 . S
C330 C329 1.362 . S
C330 C333 1.409 . S
C331 H323 0.930 . S
C331 C332 1.355 . S
C331 C333 1.415 . S
C332 C331 1.355 . S
C332 C334 1.419 . S
C333 C328 1.425 . S
C333 C330 1.409 . S
C333 C331 1.415 . S
C334 H324 0.930 . S
C334 C332 1.419 . S
C334 C335 1.362 . S
C335 H325 0.930 . S
C335 C328 1.409 . S
C335 C334 1.362 . S
H336 C342 0.930 . S
H337 C345 0.930 . S
H338 C346 0.930 . S
H339 C347 0.930 . S
H340 C350 0.930 . S
H341 C351 0.930 . S
C342 H336 0.930 . S
C342 C343 1.355 . S
C342 C344 1.415 . S
C343 C342 1.355 . S
C343 C345 1.419 . S
C344 C342 1.415 . S
C344 C349 1.425 . S
C344 C351 1.409 . S
C345 H337 0.930 . S
C345 C343 1.419 . S
C345 C346 1.362 . S
C346 H338 0.930 . S
C346 C345 1.362 . S
C346 C349 1.409 . S
C347 H339 0.930 . S
C347 C348 1.355 . S
C347 C349 1.415 . S
C348 C347 1.355 . S
C348 C350 1.419 . S
C349 C344 1.425 . S
C349 C346 1.409 . S
C349 C347 1.415 . S
C350 H340 0.930 . S
C350 C348 1.419 . S
C350 C351 1.362 . S
C351 H341 0.930 . S
C351 C344 1.409 . S
C351 C350 1.362 . S
H352 C358 0.930 . S
H353 C361 0.930 . S
H354 C362 0.930 . S
H355 C363 0.930 . S
H356 C366 0.930 . S
H357 C367 0.930 . S
C358 H352 0.930 . S
C358 C359 1.355 . S
C358 C360 1.415 . S
C359 C358 1.355 . S
C359 C361 1.419 . S
C360 C358 1.415 . S
C360 C365 1.425 . S
C360 C367 1.409 . S
C361 H353 0.930 . S
C361 C359 1.419 . S
C361 C362 1.362 . S
C362 H354 0.930 . S
C362 C361 1.362 . S
C362 C365 1.409 . S
C363 H355 0.930 . S
C363 C364 1.355 . S
C363 C365 1.415 . S
C364 C363 1.355 . S
C364 C366 1.419 . S
C365 C360 1.425 . S
C365 C362 1.409 . S
C365 C363 1.415 . S
C366 H356 0.930 . S
C366 C364 1.419 . S
C366 C367 1.362 . S
C367 H357 0.930 . S
C367 C360 1.409 . S
C367 C366 1.362 . S
H368 C374 0.930 . S
H369 C377 0.930 . S
H370 C378 0.930 . S
H371 C379 0.930 . S
H372 C382 0.930 . S
H373 C383 0.930 . S
C374 H368 0.930 . S
C374 C375 1.355 . S
C374 C376 1.415 . S
C375 C374 1.355 . S
C375 C377 1.419 . S
C376 C374 1.415 . S
C376 C381 1.425 . S
C376 C383 1.409 . S
C377 H369 0.930 . S
C377 C375 1.419 . S
C377 C378 1.362 . S
C378 H370 0.930 . S
C378 C377 1.362 . S
C378 C381 1.409 . S
C379 H371 0.930 . S
C379 C380 1.355 . S
C379 C381 1.415 . S
C380 C379 1.355 . S
C380 C382 1.419 . S
C381 C376 1.425 . S
C381 C378 1.409 . S
C381 C379 1.415 . S
C382 H372 0.930 . S
C382 C380 1.419 . S
C382 C383 1.362 . S
C383 H373 0.930 . S
C383 C376 1.409 . S
C383 C382 1.362 . S
H384 C390 0.930 . S
H385 C393 0.930 . S
H386 C394 0.930 . S
H387 C395 0.930 . S
H388 C398 0.930 . S
H389 C399 0.930 . S
C390 H384 0.930 . S
C390 C391 1.355 . S
C390 C392 1.415 . S
C391 C390 1.355 . S
C391 C393 1.419 . S
C392 C390 1.415 . S
C392 C397 1.425 . S
C392 C399 1.409 . S
C393 H385 0.930 . S
C393 C391 1.419 . S
C393 C394 1.362 . S
C394 H386 0.930 . S
C394 C393 1.362 . S
C394 C397 1.409 . S
C395 H387 0.930 . S
C395 C396 1.355 . S
C395 C397 1.415 . S
C396 C395 1.355 . S
C396 C398 1.419 . S
C397 C392 1.425 . S
C397 C394 1.409 . S
C397 C395 1.415 . S
C398 H388 0.930 . S
C398 C396 1.419 . S
C398 C399 1.362 . S
C399 H389 0.930 . S
C399 C392 1.409 . S
C399 C398 1.362 . S
H400 C406 0.930 . S
H401 C409 0.930 . S
H402 C410 0.930 . S
H403 C411 0.930 . S
H404 C414 0.930 . S
H405 C415 0.930 . S
C406 H400 0.930 . S
C406 C407 1.355 . S
C406 C408 1.415 . S
C407 C406 1.355 . S
C407 C409 1.419 . S
C408 C406 1.415 . S
C408 C413 1.425 . S
C408 C415 1.409 . S
C409 H401 0.930 . S
C409 C407 1.419 . S
C409 C410 1.362 . S
C410 H402 0.930 . S
C410 C409 1.362 . S
C410 C413 1.409 . S
C411 H403 0.930 . S
C411 C412 1.355 . S
C411 C413 1.415 . S
C412 C411 1.355 . S
C412 C414 1.419 . S
C413 C408 1.425 . S
C413 C410 1.409 . S
C413 C411 1.415 . S
C414 H404 0.930 . S
C414 C412 1.419 . S
C414 C415 1.362 . S
C415 H405 0.930 . S
C415 C408 1.409 . S
C415 C414 1.362 . S
H416 C422 0.930 . S
H417 C425 0.930 . S
H418 C426 0.930 . S
H419 C427 0.930 . S
H420 C430 0.930 . S
H421 C431 0.930 . S
C422 H416 0.930 . S
C422 C423 1.355 . S
C422 C424 1.415 . S
C423 C422 1.355 . S
C423 C425 1.419 . S
C424 C422 1.415 . S
C424 C429 1.425 . S
C424 C431 1.409 . S
C425 H417 0.930 . S
C425 C423 1.419 . S
C425 C426 1.362 . S
C426 H418 0.930 . S
C426 C425 1.362 . S
C426 C429 1.409 . S
C427 H419 0.930 . S
C427 C428 1.355 . S
C427 C429 1.415 . S
C428 C427 1.355 . S
C428 C430 1.419 . S
C429 C424 1.425 . S
C429 C426 1.409 . S
C429 C427 1.415 . S
C430 H420 0.930 . S
C430 C428 1.419 . S
C430 C431 1.362 . S
C431 H421 0.930 . S
C431 C424 1.409 . S
C431 C430 1.362 . S
H432 C438 0.930 . S
H433 C441 0.930 . S
H434 C442 0.930 . S
H435 C443 0.930 . S
H436 C446 0.930 . S
H437 C447 0.930 . S
C438 H432 0.930 . S
C438 C439 1.355 . S
C438 C440 1.415 . S
C439 C438 1.355 . S
C439 C441 1.419 . S
C440 C438 1.415 . S
C440 C445 1.425 . S
C440 C447 1.409 . S
C441 H433 0.930 . S
C441 C439 1.419 . S
C441 C442 1.362 . S
C442 H434 0.930 . S
C442 C441 1.362 . S
C442 C445 1.409 . S
C443 H435 0.930 . S
C443 C444 1.355 . S
C443 C445 1.415 . S
C444 C443 1.355 . S
C444 C446 1.419 . S
C445 C440 1.425 . S
C445 C442 1.409 . S
C445 C443 1.415 . S
C446 H436 0.930 . S
C446 C444 1.419 . S
C446 C447 1.362 . S
C447 H437 0.930 . S
C447 C440 1.409 . S
C447 C446 1.362 . S
H448 C454 0.930 . S
H449 C457 0.930 . S
H450 C458 0.930 . S
H451 C459 0.930 . S
H452 C462 0.930 . S
H453 C463 0.930 . S
C454 H448 0.930 . S
C454 C455 1.355 . S
C454 C456 1.415 . S
C455 C454 1.355 . S
C455 C457 1.419 . S
C456 C454 1.415 . S
C456 C461 1.425 . S
C456 C463 1.409 . S
C457 H449 0.930 . S
C457 C455 1.419 . S
C457 C458 1.362 . S
C458 H450 0.930 . S
C458 C457 1.362 . S
C458 C461 1.409 . S
C459 H451 0.930 . S
C459 C460 1.355 . S
C459 C461 1.415 . S
C460 C459 1.355 . S
C460 C462 1.419 . S
C461 C456 1.425 . S
C461 C458 1.409 . S
C461 C459 1.415 . S
C462 H452 0.930 . S
C462 C460 1.419 . S
C462 C463 1.362 . S
C463 H453 0.930 . S
C463 C456 1.409 . S
C463 C462 1.362 . S
H464 C470 0.930 . S
H465 C473 0.930 1_655 S
H466 C474 0.930 1_655 S
H467 C475 0.930 . S
H468 C478 0.930 . S
H469 C479 0.930 . S
C470 H464 0.930 . S
C470 C471 1.355 . S
C470 C472 1.415 . S
C471 C470 1.355 . S
C471 C473 1.419 . S
C472 C470 1.415 . S
C472 C477 1.425 . S
C472 C479 1.409 . S
C473 H465 0.930 1_455 S
C473 C471 1.419 . S
C473 C474 1.362 . S
C474 H466 0.930 1_455 S
C474 C473 1.362 . S
C474 C477 1.409 . S
C475 H467 0.930 . S
C475 C476 1.355 . S
C475 C477 1.415 . S
C476 C475 1.355 . S
C476 C478 1.419 . S
C477 C472 1.425 . S
C477 C474 1.409 . S
C477 C475 1.415 . S
C478 H468 0.930 . S
C478 C476 1.419 . S
C478 C479 1.362 . S
C479 H469 0.930 . S
C479 C472 1.409 . S
C479 C478 1.362 . S
H480 C486 0.930 . S
H481 C489 0.930 . S
H482 C490 0.930 . S
H483 C491 0.930 . S
H484 C494 0.930 . S
H485 C495 0.930 . S
C486 H480 0.930 . S
C486 C487 1.355 . S
C486 C488 1.415 . S
C487 C486 1.355 . S
C487 C489 1.419 . S
C488 C486 1.415 . S
C488 C493 1.425 . S
C488 C495 1.409 . S
C489 H481 0.930 . S
C489 C487 1.419 . S
C489 C490 1.362 . S
C490 H482 0.930 . S
C490 C489 1.362 . S
C490 C493 1.409 . S
C491 H483 0.930 . S
C491 C492 1.355 . S
C491 C493 1.415 . S
C492 C491 1.355 . S
C492 C494 1.419 . S
C493 C488 1.425 . S
C493 C490 1.409 . S
C493 C491 1.415 . S
C494 H484 0.930 . S
C494 C492 1.419 . S
C494 C495 1.362 . S
C495 H485 0.930 . S
C495 C488 1.409 . S
C495 C494 1.362 . S
H496 C502 0.930 . S
H497 C505 0.930 . S
H498 C506 0.930 . S
H499 C507 0.930 . S
H500 C510 0.930 . S
H501 C511 0.930 . S
C502 H496 0.930 . S
C502 C503 1.355 . S
C502 C504 1.415 . S
C503 C502 1.355 . S
C503 C505 1.419 . S
C504 C502 1.415 . S
C504 C509 1.425 . S
C504 C511 1.409 . S
C505 H497 0.930 . S
C505 C503 1.419 . S
C505 C506 1.362 . S
C506 H498 0.930 . S
C506 C505 1.362 . S
C506 C509 1.409 . S
C507 H499 0.930 . S
C507 C508 1.355 . S
C507 C509 1.415 . S
C508 C507 1.355 . S
C508 C510 1.419 . S
C509 C504 1.425 . S
C509 C506 1.409 . S
C509 C507 1.415 . S
C510 H500 0.930 . S
C510 C508 1.419 . S
C510 C511 1.362 . S
C511 H501 0.930 . S
C511 C504 1.409 . S
C511 C510 1.362 . S
H512 C518 0.930 . S
H513 C521 0.930 . S
H514 C522 0.930 . S
H515 C523 0.930 . S
H516 C526 0.930 . S
H517 C527 0.930 . S
C518 H512 0.930 . S
C518 C519 1.355 . S
C518 C520 1.415 . S
C519 C518 1.355 . S
C519 C521 1.419 . S
C520 C518 1.415 . S
C520 C525 1.425 . S
C520 C527 1.409 . S
C521 H513 0.930 . S
C521 C519 1.419 . S
C521 C522 1.362 . S
C522 H514 0.930 . S
C522 C521 1.362 . S
C522 C525 1.409 . S
C523 H515 0.930 . S
C523 C524 1.355 . S
C523 C525 1.415 . S
C524 C523 1.355 . S
C524 C526 1.419 . S
C525 C520 1.425 . S
C525 C522 1.409 . S
C525 C523 1.415 . S
C526 H516 0.930 . S
C526 C524 1.419 . S
C526 C527 1.362 . S
C527 H517 0.930 . S
C527 C520 1.409 . S
C527 C526 1.362 . S
H528 C534 0.930 . S
H529 C537 0.930 . S
H530 C538 0.930 . S
H531 C539 0.930 . S
H532 C542 0.930 . S
H533 C543 0.930 . S
C534 H528 0.930 . S
C534 C535 1.355 . S
C534 C536 1.415 . S
C535 C534 1.355 . S
C535 C537 1.419 . S
C536 C534 1.415 . S
C536 C541 1.425 . S
C536 C543 1.409 . S
C537 H529 0.930 . S
C537 C535 1.419 . S
C537 C538 1.362 . S
C538 H530 0.930 . S
C538 C537 1.362 . S
C538 C541 1.409 . S
C539 H531 0.930 . S
C539 C540 1.355 . S
C539 C541 1.415 . S
C540 C539 1.355 . S
C540 C542 1.419 . S
C541 C536 1.425 . S
C541 C538 1.409 . S
C541 C539 1.415 . S
C542 H532 0.930 . S
C542 C540 1.419 . S
C542 C543 1.362 . S
C543 H533 0.930 . S
C543 C536 1.409 . S
C543 C542 1.362 . S
H544 C550 0.930 . S
H545 C553 0.930 . S
H546 C554 0.930 . S
H547 C555 0.930 . S
H548 C558 0.930 . S
H549 C559 0.930 . S
C550 H544 0.930 . S
C550 C551 1.355 . S
C550 C552 1.415 . S
C551 C550 1.355 . S
C551 C553 1.419 . S
C552 C550 1.415 . S
C552 C557 1.425 . S
C552 C559 1.409 . S
C553 H545 0.930 . S
C553 C551 1.419 . S
C553 C554 1.362 . S
C554 H546 0.930 . S
C554 C553 1.362 . S
C554 C557 1.409 . S
C555 H547 0.930 . S
C555 C556 1.355 . S
C555 C557 1.415 . S
C556 C555 1.355 . S
C556 C558 1.419 . S
C557 C552 1.425 . S
C557 C554 1.409 . S
C557 C555 1.415 . S
C558 H548 0.930 . S
C558 C556 1.419 . S
C558 C559 1.362 . S
C559 H549 0.930 . S
C559 C552 1.409 . S
C559 C558 1.362 . S
H560 C566 0.930 . S
H561 C569 0.930 . S
H562 C570 0.930 . S
H563 C571 0.930 . S
H564 C574 0.930 . S
H565 C575 0.930 . S
C566 H560 0.930 . S
C566 C567 1.355 . S
C566 C568 1.415 . S
C567 C566 1.355 . S
C567 C569 1.419 . S
C568 C566 1.415 . S
C568 C573 1.425 . S
C568 C575 1.409 . S
C569 H561 0.930 . S
C569 C567 1.419 . S
C569 C570 1.362 . S
C570 H562 0.930 . S
C570 C569 1.362 . S
C570 C573 1.409 . S
C571 H563 0.930 . S
C571 C572 1.355 . S
C571 C573 1.415 . S
C572 C571 1.355 . S
C572 C574 1.419 . S
C573 C568 1.425 . S
C573 C570 1.409 . S
C573 C571 1.415 . S
C574 H564 0.930 . S
C574 C572 1.419 . S
C574 C575 1.362 . S
C575 H565 0.930 . S
C575 C568 1.409 . S
C575 C574 1.362 . S
H576 C582 0.930 . S
H577 C585 0.930 . S
H578 C586 0.930 . S
H579 C587 0.930 . S
H580 C590 0.930 . S
H581 C591 0.930 . S
C582 H576 0.930 . S
C582 C583 1.355 . S
C582 C584 1.415 . S
C583 C582 1.355 . S
C583 C585 1.419 . S
C584 C582 1.415 . S
C584 C589 1.425 . S
C584 C591 1.409 . S
C585 H577 0.930 . S
C585 C583 1.419 . S
C585 C586 1.362 . S
C586 H578 0.930 . S
C586 C585 1.362 . S
C586 C589 1.409 . S
C587 H579 0.930 . S
C587 C588 1.355 . S
C587 C589 1.415 . S
C588 C587 1.355 . S
C588 C590 1.419 . S
C589 C584 1.425 . S
C589 C586 1.409 . S
C589 C587 1.415 . S
C590 H580 0.930 . S
C590 C588 1.419 . S
C590 C591 1.362 . S
C591 H581 0.930 . S
C591 C584 1.409 . S
C591 C590 1.362 . S
H592 C598 0.930 . S
H593 C601 0.930 . S
H594 C602 0.930 . S
H595 C603 0.930 . S
H596 C606 0.930 . S
H597 C607 0.930 . S
C598 H592 0.930 . S
C598 C599 1.355 . S
C598 C600 1.415 . S
C599 C598 1.355 . S
C599 C601 1.419 . S
C600 C598 1.415 . S
C600 C605 1.425 . S
C600 C607 1.409 . S
C601 H593 0.930 . S
C601 C599 1.419 . S
C601 C602 1.362 . S
C602 H594 0.930 . S
C602 C601 1.362 . S
C602 C605 1.409 . S
C603 H595 0.930 . S
C603 C604 1.355 . S
C603 C605 1.415 . S
C604 C603 1.355 . S
C604 C606 1.419 . S
C605 C600 1.425 . S
C605 C602 1.409 . S
C605 C603 1.415 . S
C606 H596 0.930 . S
C606 C604 1.419 . S
C606 C607 1.362 . S
C607 H597 0.930 . S
C607 C600 1.409 . S
C607 C606 1.362 . S
H608 C614 0.930 . S
H609 C617 0.930 . S
H610 C618 0.930 . S
H611 C619 0.930 . S
H612 C622 0.930 . S
H613 C623 0.930 . S
C614 H608 0.930 . S
C614 C615 1.355 . S
C614 C616 1.415 . S
C615 C614 1.355 . S
C615 C617 1.419 . S
C616 C614 1.415 . S
C616 C621 1.425 . S
C616 C623 1.409 . S
C617 H609 0.930 . S
C617 C615 1.419 . S
C617 C618 1.362 . S
C618 H610 0.930 . S
C618 C617 1.362 . S
C618 C621 1.409 . S
C619 H611 0.930 . S
C619 C620 1.355 . S
C619 C621 1.415 . S
C620 C619 1.355 . S
C620 C622 1.419 . S
C621 C616 1.425 . S
C621 C618 1.409 . S
C621 C619 1.415 . S
C622 H612 0.930 . S
C622 C620 1.419 . S
C622 C623 1.362 . S
C623 H613 0.930 . S
C623 C616 1.409 . S
C623 C622 1.362 . S
H624 C630 0.930 . S
H625 C633 0.930 . S
H626 C634 0.930 . S
H627 C635 0.930 . S
H628 C638 0.930 . S
H629 C639 0.930 . S
C630 H624 0.930 . S
C630 C631 1.355 . S
C630 C632 1.415 . S
C631 C630 1.355 . S
C631 C633 1.419 . S
C632 C630 1.415 . S
C632 C637 1.425 . S
C632 C639 1.409 . S
C633 H625 0.930 . S
C633 C631 1.419 . S
C633 C634 1.362 . S
C634 H626 0.930 . S
C634 C633 1.362 . S
C634 C637 1.409 . S
C635 H627 0.930 . S
C635 C636 1.355 . S
C635 C637 1.415 . S
C636 C635 1.355 . S
C636 C638 1.419 . S
C637 C632 1.425 . S
C637 C634 1.409 . S
C637 C635 1.415 . S
C638 H628 0.930 . S
C638 C636 1.419 . S
C638 C639 1.362 . S
C639 H629 0.930 . S
C639 C632 1.409 . S
C639 C638 1.362 . S
C263 C45 1.541 . S
C268 C115 1.533 . S
C279 C30 1.551 . S
C284 C134 1.532 . S
C295 C39 1.578 . S
C300 C153 1.438 1_556 S
C316 C172 1.522 . S
C311 C34 1.545 . S
C327 C97 1.577 . S
C332 C191 1.460 . S
C348 C210 1.516 . S
C343 C82 1.579 . S
C364 C229 1.444 . S
C359 C91 1.580 . S
C380 C248 1.526 . S
C375 C86 1.547 . S
C396 C220 1.593 . S
C391 C26 1.579 . S
C412 C243 1.508 . S
C407 C36 1.433 . S
C428 C186 1.576 . S
C423 C32 1.508 . S
C444 C205 1.498 . S
C439 C42 1.431 . S
C455 C18 1.654 . S
C460 C201 1.712 . S
C476 C224 1.640 . S
C471 C50 1.559 . S
C487 C4 1.693 . S
C492 C239 1.747 . S
C503 C48 1.570 . S
C508 C182 1.627 . S
C524 C144 1.576 . S
C519 C78 1.562 . S
C535 C88 1.501 . S
C540 C167 1.530 . S
C556 C110 1.590 . S
C551 C84 1.521 . S
C572 C129 1.529 . S
C567 C94 1.488 . S
C588 C125 1.753 . S
C583 C70 1.690 . S
C604 C148 1.677 . S
C599 C102 1.621 . S
C615 C56 1.720 . S
C620 C163 1.746 . S
C631 C100 1.641 . S
C636 C106 1.669 . S
