# Generated by pormake.
# Topology tsx, (6,3)-cn, num edge types: 1
# Building blocks:
#     Node 0, Type 0, BuildingBlock: JUFBIX_clean_sbu_0, # of connection points: 6
#     Node 1, Type 0, BuildingBlock: JUFBIX_clean_sbu_0, # of connection points: 6
#     Node 2, Type 1, BuildingBlock: PAMTOO_clean_linker_0, # of connection points: 3
#     Node 3, Type 1, BuildingBlock: PAMTOO_clean_linker_0, # of connection points: 3
#     Node 4, Type 1, BuildingBlock: PAMTOO_clean_linker_0, # of connection points: 3
#     Node 5, Type 1, BuildingBlock: PAMTOO_clean_linker_0, # of connection points: 3
#     Edge 6, Type (0, 1), BuildingBlock: XIVTED_clean_linker_0, # of connection points: 2
#     Edge 7, Type (0, 1), BuildingBlock: XIVTED_clean_linker_0, # of connection points: 2
#     Edge 8, Type (0, 1), BuildingBlock: XIVTED_clean_linker_0, # of connection points: 2
#     Edge 9, Type (0, 1), BuildingBlock: XIVTED_clean_linker_0, # of connection points: 2
#     Edge 10, Type (0, 1), BuildingBlock: XIVTED_clean_linker_0, # of connection points: 2
#     Edge 11, Type (0, 1), BuildingBlock: XIVTED_clean_linker_0, # of connection points: 2
#     Edge 12, Type (0, 1), BuildingBlock: XIVTED_clean_linker_0, # of connection points: 2
#     Edge 13, Type (0, 1), BuildingBlock: XIVTED_clean_linker_0, # of connection points: 2
#     Edge 14, Type (0, 1), BuildingBlock: XIVTED_clean_linker_0, # of connection points: 2
#     Edge 15, Type (0, 1), BuildingBlock: XIVTED_clean_linker_0, # of connection points: 2
#     Edge 16, Type (0, 1), BuildingBlock: XIVTED_clean_linker_0, # of connection points: 2
#     Edge 17, Type (0, 1), BuildingBlock: XIVTED_clean_linker_0, # of connection points: 2
# Relax obj value: 0.109
# Max RMSD: 0.125
# Mean RMSD: 0.121
data_MOF--net-tsx--node1-JUFBIX_clean_sbu_0--node2-PAMTOO_clean_linker_0--edge1-XIVTED_clean_linker_0
_symmetry_space_group_name_H-M    P1
_symmetry_Int_Tables_number       1
_symmetry_cell_setting            triclinic
loop_
_symmetry_equiv_pos_as_xyz
'x, y, z'
_cell_length_a     20.088132
_cell_length_b     23.897177
_cell_length_c     33.229912
_cell_angle_alpha  86.100767
_cell_angle_beta   90.518064
_cell_angle_gamma 99.129414
loop_
_atom_site_label
_atom_site_type_symbol
_atom_site_fract_x
_atom_site_fract_y
_atom_site_fract_z
_atom_type_partial_charge
Co0 Co 0.05737 0.04623 0.98134 0.0
C1 C 0.99245 0.09077 0.91425 0.0
Co2 Co 0.97125 0.08929 -0.00514 0.0
C3 C 0.14243 0.95952 0.97639 0.0
C4 C 0.17937 0.03564 0.94043 0.0
N5 N 0.12948 0.01243 0.96612 0.0
N6 N 0.19844 0.94868 0.95802 0.0
C7 C 0.22171 0.99673 0.93542 0.0
H8 H 0.11103 0.92957 -0.00315 0.0
H9 H 0.18387 0.07781 0.92561 0.0
C10 C 0.03924 0.04638 0.06176 0.0
N11 N 0.89914 0.12227 0.01101 0.0
C12 C 0.87317 0.16673 -0.00636 0.0
C13 C 0.86136 0.10601 0.04445 0.0
N14 N 0.82127 0.17899 0.01519 0.0
C15 C 0.8138 0.14102 0.04723 0.0
C16 C 0.93538 0.97376 -0.01419 0.0
O17 O 0.07424 0.02737 0.03588 0.0
O18 O 0.99287 0.07407 0.05001 0.0
O19 O 0.91393 0.01868 -0.00558 0.0
O20 O 0.99775 0.97579 0.97834 0.0
O21 O 0.95151 0.10455 0.93934 0.0
H22 H 0.86759 0.0706 0.06543 0.0
H23 H 0.8922 0.18991 0.96591 0.0
O24 O 0.04077 0.06584 0.92674 0.0
O25 O 0.11562 0.11731 -0.01513 0.0
O26 O 0.02885 0.16003 -0.00483 0.0
C27 C 0.09207 0.1625 -0.00919 0.0
H28 H 0.26506 1.00297 0.91559 0.0
H29 H 0.77554 0.13789 0.07036 0.0
Co30 Co 0.59545 0.46333 0.49883 0.0
C31 C 0.55918 0.50663 0.42247 0.0
Co32 Co 0.5113 0.51295 0.49756 0.0
C33 C 0.67984 0.37373 0.50707 0.0
C34 C 0.73045 0.45233 0.47945 0.0
N35 N 0.67095 0.42757 0.49592 0.0
N36 N 0.74278 0.36447 0.49851 0.0
C37 C 0.77453 0.41398 0.4812 0.0
H38 H 0.64083 0.34186 0.52078 0.0
H39 H 0.7408 0.49525 0.46589 0.0
C40 C 0.54825 0.47178 0.57392 0.0
N41 N 0.4359 0.54815 0.50083 0.0
C42 C 0.42436 0.59972 0.48592 0.0
C43 C 0.38 0.52606 0.52217 0.0
N44 N 0.36333 0.61065 0.49725 0.0
C45 C 0.33559 0.56414 0.52009 0.0
C46 C 0.47371 0.39573 0.48993 0.0
O47 O 0.59388 0.45176 0.5559 0.0
O48 O 0.50722 0.49737 0.55353 0.0
O49 O 0.45438 0.44377 0.48989 0.0
O50 O 0.53608 0.39279 0.49433 0.0
O51 O 0.51653 0.52875 0.44153 0.0
H52 H 0.3726 0.48516 0.53899 0.0
H53 H 0.46027 0.62857 0.46731 0.0
O54 O 0.59682 0.47599 0.44167 0.0
O55 O 0.653 0.53427 0.50387 0.0
O56 O 0.56876 0.58216 0.50522 0.0
C57 C 0.63172 0.5811 0.50699 0.0
H58 H 0.82519 0.42129 0.46899 0.0
H59 H 0.28736 0.55835 0.53529 0.0
H60 H 0.18204 0.94135 0.35937 0.0
H61 H 0.04633 0.0625 0.36866 0.0
H62 H 0.08922 0.95868 0.47286 0.0
H63 H 0.93143 0.99003 0.45256 0.0
C64 C 0.95434 0.03317 0.4407 0.0
O65 O 0.02366 0.04064 0.44528 0.0
H66 H 0.94131 0.03742 0.40814 0.0
C67 C 0.14942 0.96206 0.37718 0.0
C68 C 0.14095 0.94591 0.41845 0.0
C69 C 0.11426 1.00296 0.35844 0.0
C70 C 0.07376 0.03052 0.38221 0.0
C71 C 0.06394 0.01419 0.42322 0.0
C72 C 0.09672 0.97129 0.44118 0.0
H73 H 0.09322 0.15236 0.6045 0.0
H74 H 0.96436 0.99101 0.62755 0.0
H75 H 0.09598 0.01882 0.52488 0.0
H76 H 0.98181 0.94443 0.50247 0.0
C77 C 0.95323 0.94303 0.53093 0.0
O78 O 0.99876 0.94826 0.56226 0.0
H79 H 0.92396 0.97908 0.52885 0.0
C80 C 0.07408 0.10967 0.59626 0.0
C81 C 0.0998 0.08991 0.56177 0.0
C82 C 0.02696 0.07395 0.6213 0.0
C83 C 1.00113 0.01948 0.60919 0.0
C84 C 0.02539 0.99997 0.57425 0.0
C85 C 0.0763 0.03448 0.55134 0.0
H86 H 0.59372 0.46266 0.87176 0.0
H87 H 0.48582 0.60435 0.8699 0.0
H88 H 0.50012 0.50117 0.97969 0.0
H89 H 0.35826 0.55009 0.96218 0.0
C90 C 0.38324 0.58504 0.94122 0.0
O91 O 0.45235 0.59009 0.94599 0.0
H92 H 0.36841 0.57436 0.90996 0.0
C93 C 0.5654 0.48958 0.88742 0.0
C94 C 0.55081 0.47704 0.92846 0.0
C95 C 0.54142 0.53458 0.86584 0.0
C96 C 0.50484 0.56933 0.88616 0.0
C97 C 0.48972 0.55735 0.92722 0.0
C98 C 0.51262 0.51112 0.94832 0.0
H99 H 0.65695 0.64489 0.11706 0.0
H100 H 0.4886 0.50891 0.12002 0.0
H101 H 0.54225 0.60802 0.00918 0.0
H102 H 0.3801 0.56461 0.03109 0.0
C103 C 0.39176 0.52632 0.04888 0.0
O104 O 0.45904 0.52256 0.0442 0.0
H105 H 0.3802 0.53031 0.08114 0.0
C106 C 0.61616 0.61956 0.10167 0.0
C107 C 0.60609 0.6308 0.06022 0.0
C108 C 0.57359 0.57617 0.12351 0.0
C109 C 0.52156 0.54299 0.10357 0.0
C110 C 0.50926 0.55534 0.06277 0.0
C111 C 0.5511 0.59951 0.04103 0.0
H112 H 0.23027 0.18126 -0.00778 0.0
H113 H 0.25925 0.51313 0.02668 0.0
H114 H 0.05795 0.26787 -0.00198 0.0
H115 H 0.4245 0.41844 0.04289 0.0
H116 H 0.18635 0.42612 0.00855 0.0
H117 H 0.3042 0.27068 0.00273 0.0
C118 C 0.20797 0.21913 -0.00456 0.0
C119 C 0.13776 0.21695 -0.00551 0.0
C120 C 0.23873 0.42457 0.01573 0.0
C121 C 0.22213 0.31947 0.00657 0.0
C122 C 0.28028 0.47419 0.02591 0.0
C123 C 0.34825 0.47341 0.03545 0.0
C124 C 0.2653 0.37362 0.01541 0.0
C125 C 0.37277 0.42151 0.03497 0.0
C126 C 0.25021 0.27014 0.00156 0.0
C127 C 0.11176 0.26745 -0.00122 0.0
N128 N 0.33138 0.37383 0.025 0.0
N129 N 0.15392 0.31658 0.00473 0.0
H130 H 0.13354 0.84178 0.9798 0.0
H131 H 0.44553 0.69396 0.91975 0.0
H132 H 0.32678 0.93483 0.9409 0.0
H133 H 0.26545 0.60129 0.97667 0.0
H134 H 0.40233 0.78272 0.92733 0.0
H135 H 0.18031 0.75345 0.97953 0.0
C136 C 0.1859 0.84391 0.97156 0.0
C137 C 0.22599 0.89619 0.96007 0.0
C138 C 0.37249 0.7431 0.93863 0.0
C139 C 0.27966 0.79473 0.95919 0.0
C140 C 0.39731 0.69245 0.93446 0.0
C141 C 0.35971 0.64037 0.94857 0.0
C142 C 0.30885 0.74171 0.95627 0.0
C143 C 0.29656 0.6407 0.96618 0.0
C144 C 0.21251 0.79328 0.97123 0.0
C145 C 0.29339 0.89575 0.94924 0.0
N146 N 0.27302 0.69055 0.96948 0.0
N147 N 0.31788 0.84595 0.94888 0.0
H148 H 0.96466 0.86517 -0.00955 0.0
H149 H 0.57693 0.72141 0.01208 0.0
H150 H 0.79811 0.95943 0.98253 0.0
H151 H 0.74288 0.64202 0.05828 0.0
H152 H 0.65801 0.80253 -0.01565 0.0
H153 H 0.88388 0.77674 -0.00101 0.0
C154 C 0.91117 0.8672 -0.01005 0.0
C155 C 0.88802 0.91968 -0.01365 0.0
C156 C 0.67659 0.76695 0.0001 0.0
C157 C 0.79568 0.81906 -0.00417 0.0
C158 C 0.63045 0.72068 0.01567 0.0
C159 C 0.65351 0.67561 0.03788 0.0
C160 C 0.746 0.76757 0.00649 0.0
C161 C 0.72327 0.67653 0.04181 0.0
C162 C 0.86516 0.81682 -0.00508 0.0
C163 C 0.81814 0.91989 -0.01421 0.0
N164 N 0.76709 0.72198 0.02653 0.0
N165 N 0.77445 0.87039 -0.00928 0.0
H166 H 0.77838 0.20965 0.94106 0.0
H167 H 0.61641 0.47119 0.00136 0.0
H168 H 0.76824 0.2437 0.06638 0.0
H169 H 0.54304 0.37078 0.90235 0.0
H170 H 0.67888 0.39507 0.02632 0.0
H171 H 0.70273 0.27869 0.9245 0.0
C172 C 0.76054 0.23211 0.96498 0.0
C173 C 0.77933 0.22122 0.00504 0.0
C174 C 0.64819 0.38963 -0.00052 0.0
C175 C 0.693 0.29989 -0.01345 0.0
C176 C 0.61231 0.43272 -0.01457 0.0
C177 C 0.57591 0.42769 0.94926 0.0
C178 C 0.64793 0.34205 0.9768 0.0
C179 C 0.57209 0.377 0.92974 0.0
C180 C 0.71692 0.27094 0.95567 0.0
C181 C 0.75431 0.25087 0.03514 0.0
N182 N 0.60874 0.33667 0.94329 0.0
N183 N 0.71273 0.28941 0.02527 0.0
H184 H 0.76941 0.59362 0.50914 0.0
H185 H 0.8178 0.9246 0.54814 0.0
H186 H 0.60406 0.68708 0.5203 0.0
H187 H 0.98208 0.83632 0.52249 0.0
H188 H 0.73938 0.8353 0.54586 0.0
H189 H 0.84844 0.67976 0.52049 0.0
C190 C 0.74966 0.63227 0.51397 0.0
C191 C 0.67994 0.63319 0.51355 0.0
C192 C 0.79261 0.83526 0.54105 0.0
C193 C 0.77033 0.73196 0.52683 0.0
C194 C 0.83732 0.8861 0.54257 0.0
C195 C 0.90619 0.88753 0.53524 0.0
C196 C 0.81707 0.78557 0.53217 0.0
C197 C 0.92917 0.83668 0.52821 0.0
C198 C 0.79488 0.68143 0.52052 0.0
C199 C 0.65737 0.68447 0.52016 0.0
N200 N 0.88461 0.78774 0.52655 0.0
N201 N 0.70245 0.73181 0.52648 0.0
H202 H 0.67486 0.25717 0.49366 0.0
H203 H 1.01797 0.13322 0.47224 0.0
H204 H 0.87276 0.35209 0.51167 0.0
H205 H 0.82156 0.03497 0.45475 0.0
H206 H 0.96435 0.20886 0.49667 0.0
H207 H 0.7256 0.17091 0.48956 0.0
C208 C 0.72879 0.25964 0.49752 0.0
C209 C 0.76982 0.31201 0.50235 0.0
C210 C 0.9328 0.17052 0.488 0.0
C211 C 0.82831 0.21391 0.49722 0.0
C212 C 0.9635 0.12706 0.4741 0.0
C213 C 0.924 0.07751 0.46139 0.0
C214 C 0.86208 0.16504 0.48854 0.0
C215 C 0.85365 0.07249 0.46431 0.0
C216 C 0.75782 0.2105 0.49493 0.0
C217 C 0.83948 0.31283 0.50699 0.0
N218 N 0.82485 0.11593 0.47715 0.0
N219 N 0.86654 0.26475 0.50389 0.0
H220 H 0.34502 0.39161 0.46343 0.0
H221 H 0.22619 0.06911 0.54465 0.0
H222 H 0.4841 0.28369 0.51126 0.0
H223 H 0.0959 0.1956 0.52706 0.0
H224 H 0.32075 0.13868 0.51658 0.0
H225 H 0.25406 0.31128 0.46989 0.0
C226 C 0.35663 0.35073 0.47489 0.0
C227 C 0.42208 0.34457 0.48754 0.0
C228 C 0.27118 0.15079 0.51825 0.0
C229 C 0.3175 0.25222 0.49537 0.0
C230 C 0.21732 0.11114 0.53396 0.0
C231 C 0.15365 0.12711 0.53835 0.0
C232 C 0.26068 0.20631 0.50653 0.0
C233 C 0.1445 0.18197 0.52443 0.0
C234 C 0.30453 0.30484 0.4786 0.0
C235 C 0.43423 0.29033 0.50148 0.0
N236 N 0.19751 0.21969 0.50938 0.0
N237 N 0.38207 0.24625 0.50562 0.0
H238 H 0.42779 0.71632 0.47184 0.0
H239 H 0.0884 0.85298 0.46747 0.0
H240 H 0.2309 0.62182 0.50192 0.0
H241 H 0.27354 0.93539 0.41032 0.0
H242 H 0.14477 0.77286 0.49029 0.0
H243 H 0.37598 0.80125 0.45714 0.0
C244 C 0.37381 0.71313 0.47526 0.0
C245 C 0.3339 0.66141 0.48818 0.0
C246 C 0.17317 0.80866 0.47297 0.0
C247 C 0.27447 0.75898 0.47209 0.0
C248 C 0.14118 0.85454 0.46027 0.0
C249 C 0.17626 0.90052 0.43669 0.0
C250 C 0.24079 0.80902 0.46221 0.0
C251 C 0.24447 0.90027 0.42795 0.0
C252 C 0.34432 0.76184 0.46711 0.0
C253 C 0.26416 0.66056 0.49265 0.0
N254 N 0.27446 0.8551 0.44055 0.0
N255 N 0.2368 0.7085 0.48463 0.0
H256 H 0.10885 0.96881 0.10009 0.0
H257 H 0.11062 0.10323 0.31292 0.0
H258 H 1.00588 0.10953 0.12137 0.0
H259 H 0.11731 0.92497 0.30192 0.0
H260 H 0.0966 0.11499 0.23982 0.0
H261 H 0.13589 0.96058 0.1722 0.0
C262 C 0.09202 0.99791 0.11994 0.0
C263 C 0.05468 0.0396 0.10497 0.0
C264 C 0.10176 0.0735 0.2536 0.0
C265 C 0.08651 0.03121 0.18669 0.0
C266 C 0.10955 0.06665 0.29527 0.0
C267 C 0.11463 0.01291 0.31384 0.0
C268 C 0.10006 0.02654 0.23029 0.0
C269 C 0.11458 0.96739 0.28912 0.0
C270 C 0.10744 0.99321 0.16091 0.0
C271 C 0.03418 0.07641 0.13183 0.0
N272 N 0.10722 0.97523 0.24862 0.0
N273 N 0.05069 0.07154 0.17144 0.0
H274 H 0.09394 0.14163 0.86636 0.0
H275 H 0.90663 0.05133 0.66397 0.0
H276 H 0.88248 0.0724 0.86417 0.0
H277 H 0.11315 0.13447 0.67229 0.0
H278 H 0.88995 0.06898 0.73481 0.0
H279 H 0.09486 0.15203 0.79313 0.0
C280 C 0.04735 0.12942 0.85018 0.0
C281 C 0.98822 0.10583 0.87093 0.0
C282 C 0.93842 0.08422 0.72072 0.0
C283 C 0.98897 0.11577 0.78693 0.0
C284 C 0.94816 0.07384 0.68039 0.0
C285 C 1.01157 0.09103 0.66199 0.0
C286 C 0.99256 0.11174 0.7427 0.0
C287 C 0.06309 0.12092 0.68463 0.0
C288 C 0.04777 0.13522 0.80836 0.0
C289 C 0.929 0.09083 0.8489 0.0
N290 N 0.05255 0.12976 0.72369 0.0
N291 N 0.93109 0.095 0.8078 0.0
H292 H 0.65126 0.46227 0.62739 0.0
H293 H 0.44223 0.54735 0.8113 0.0
H294 H 0.4435 0.48814 0.62009 0.0
H295 H 0.65222 0.52875 0.81975 0.0
H296 H 0.44423 0.53078 0.73983 0.0
H297 H 0.65317 0.48499 0.69828 0.0
C298 C 0.60575 0.47154 0.64095 0.0
C299 C 0.54722 0.47349 0.61798 0.0
C300 C 0.49016 0.53091 0.75716 0.0
C301 C 0.54944 0.50083 0.69822 0.0
C302 C 0.48926 0.54128 0.79783 0.0
C303 C 0.54698 0.53893 0.82144 0.0
C304 C 0.54912 0.51785 0.7401 0.0
C305 C 0.60635 0.53006 0.80258 0.0
C306 C 0.60709 0.48528 0.68116 0.0
C307 C 0.48982 0.48646 0.63675 0.0
N308 N 0.60572 0.51912 0.76304 0.0
N309 N 0.4925 0.49994 0.67569 0.0
H310 H 0.61554 0.4444 0.37003 0.0
H311 H 0.57907 0.65583 0.17847 0.0
H312 H 0.5182 0.59242 0.37508 0.0
H313 H 0.58224 0.47732 0.16818 0.0
H314 H 0.58019 0.63996 0.25208 0.0
H315 H 0.62552 0.46242 0.29668 0.0
C316 C 0.59647 0.48074 0.3557 0.0
C317 C 0.56567 0.51686 0.37847 0.0
C318 C 0.58107 0.6044 0.23365 0.0
C319 C 0.57785 0.53795 0.2952 0.0
C320 C 0.58098 0.61347 0.19183 0.0
C321 C 0.58051 0.56772 0.16756 0.0
C322 C 0.58164 0.54938 0.25112 0.0
C323 C 0.58221 0.51351 0.1861 0.0
C324 C 0.60206 0.49084 0.31397 0.0
C325 C 0.54178 0.56331 0.35851 0.0
N326 N 0.58283 0.50576 0.22695 0.0
N327 N 0.54868 0.57273 0.31794 0.0
loop_
_geom_bond_atom_site_label_1
_geom_bond_atom_site_label_2
_geom_bond_distance
_geom_bond_site_symmetry_2
_ccdc_geom_bond_type
Co0 N5 2.057 . S
Co0 O17 2.021 . S
Co0 O20 2.062 1_455 S
Co0 O24 2.117 1_564 S
Co0 O25 2.020 1_565 S
C1 O21 1.259 1_455 S
C1 O24 1.258 . S
Co2 N11 2.057 . S
Co2 O18 2.117 . S
Co2 O19 2.020 1_545 S
Co2 O21 2.021 1_554 S
Co2 O26 2.062 1_655 S
C3 N5 1.316 . S
C3 N6 1.347 . S
C3 H8 0.931 . S
C4 N5 1.375 1_556 S
C4 C7 1.350 . S
C4 H9 0.930 . S
N5 Co0 2.057 . S
N5 C3 1.316 . S
N5 C4 1.375 1_554 S
N6 C3 1.347 . S
N6 C7 1.373 1_554 S
C7 C4 1.350 . S
C7 N6 1.373 1_556 S
C7 H28 0.931 . S
H8 C3 0.931 . S
H9 C4 0.930 . S
C10 O17 1.259 1_545 S
C10 O18 1.258 1_455 S
N11 Co2 2.057 . S
N11 C12 1.316 1_554 S
N11 C13 1.375 . S
C12 N11 1.316 1_556 S
C12 N14 1.347 1_556 S
C12 H23 0.931 . S
C13 N11 1.375 . S
C13 C15 1.350 . S
C13 H22 0.930 . S
N14 C12 1.347 1_554 S
N14 C15 1.373 . S
C15 C13 1.350 . S
C15 N14 1.373 . S
C15 H29 0.931 . S
C16 O19 1.256 . S
C16 O20 1.255 . S
O17 Co0 2.021 . S
O17 C10 1.259 1_565 S
O18 Co2 2.117 . S
O18 C10 1.258 1_655 S
O19 Co2 2.020 1_565 S
O19 C16 1.256 . S
O20 Co0 2.062 1_655 S
O20 C16 1.255 . S
O21 C1 1.259 1_655 S
O21 Co2 2.021 1_556 S
H22 C13 0.930 . S
H23 C12 0.931 . S
O24 Co0 2.117 1_546 S
O24 C1 1.258 . S
O25 Co0 2.020 1_545 S
O25 C27 1.256 . S
O26 Co2 2.062 1_455 S
O26 C27 1.255 . S
C27 O25 1.256 . S
C27 O26 1.255 . S
H28 C7 0.931 . S
H29 C15 0.931 . S
Co30 N35 2.057 . S
Co30 O47 2.021 . S
Co30 O50 2.062 . S
Co30 O54 2.117 . S
Co30 O55 2.020 . S
C31 O51 1.259 . S
C31 O54 1.258 . S
Co32 N41 2.057 . S
Co32 O48 2.117 . S
Co32 O49 2.020 . S
Co32 O51 2.021 . S
Co32 O56 2.062 . S
C33 N35 1.316 . S
C33 N36 1.347 . S
C33 H38 0.931 . S
C34 N35 1.375 . S
C34 C37 1.350 . S
C34 H39 0.930 . S
N35 Co30 2.057 . S
N35 C33 1.316 . S
N35 C34 1.375 . S
N36 C33 1.347 . S
N36 C37 1.373 . S
C37 C34 1.350 . S
C37 N36 1.373 . S
C37 H58 0.931 . S
H38 C33 0.931 . S
H39 C34 0.930 . S
C40 O47 1.259 . S
C40 O48 1.258 . S
N41 Co32 2.057 . S
N41 C42 1.316 . S
N41 C43 1.375 . S
C42 N41 1.316 . S
C42 N44 1.347 . S
C42 H53 0.931 . S
C43 N41 1.375 . S
C43 C45 1.350 . S
C43 H52 0.930 . S
N44 C42 1.347 . S
N44 C45 1.373 . S
C45 C43 1.350 . S
C45 N44 1.373 . S
C45 H59 0.931 . S
C46 O49 1.256 . S
C46 O50 1.255 . S
O47 Co30 2.021 . S
O47 C40 1.259 . S
O48 Co32 2.117 . S
O48 C40 1.258 . S
O49 Co32 2.020 . S
O49 C46 1.256 . S
O50 Co30 2.062 . S
O50 C46 1.255 . S
O51 C31 1.259 . S
O51 Co32 2.021 . S
H52 C43 0.930 . S
H53 C42 0.931 . S
O54 Co30 2.117 . S
O54 C31 1.258 . S
O55 Co30 2.020 . S
O55 C57 1.256 . S
O56 Co32 2.062 . S
O56 C57 1.255 . S
C57 O55 1.256 . S
C57 O56 1.255 . S
H58 C37 0.931 . S
H59 C45 0.931 . S
H60 C67 0.929 . S
H61 C70 0.930 . S
H62 C72 0.929 . S
H63 C64 0.969 . S
C64 H63 0.969 . S
C64 O65 1.550 . S
C64 H66 0.973 . S
O65 C64 1.550 . S
O65 C71 1.412 . S
H66 C64 0.973 . S
C67 H60 0.929 . S
C67 C68 1.400 . S
C67 C69 1.364 . S
C68 C67 1.400 . S
C68 C72 1.377 . S
C69 C67 1.364 . S
C69 C70 1.374 1_465 S
C70 H61 0.930 . S
C70 C69 1.374 1_645 S
C70 C71 1.383 . S
C71 O65 1.412 . S
C71 C70 1.383 . S
C71 C72 1.394 1_645 S
C72 H62 0.929 . S
C72 C68 1.377 . S
C72 C71 1.394 1_465 S
H73 C80 0.929 . S
H74 C83 0.930 1_565 S
H75 C85 0.929 . S
H76 C77 0.969 . S
C77 H76 0.969 . S
C77 O78 1.550 . S
C77 H79 0.973 . S
O78 C77 1.550 . S
O78 C84 1.412 1_565 S
H79 C77 0.973 . S
C80 H73 0.929 . S
C80 C81 1.400 . S
C80 C82 1.364 . S
C81 C80 1.400 . S
C81 C85 1.377 . S
C82 C80 1.364 . S
C82 C83 1.374 1_455 S
C83 H74 0.930 1_545 S
C83 C82 1.374 1_655 S
C83 C84 1.383 . S
C84 O78 1.412 1_545 S
C84 C83 1.383 . S
C84 C85 1.394 1_655 S
C85 H75 0.929 . S
C85 C81 1.377 . S
C85 C84 1.394 1_455 S
H86 C93 0.929 . S
H87 C96 0.930 . S
H88 C98 0.929 1_554 S
H89 C90 0.969 . S
C90 H89 0.969 . S
C90 O91 1.550 . S
C90 H92 0.973 . S
O91 C90 1.550 . S
O91 C97 1.412 . S
H92 C90 0.973 . S
C93 H86 0.929 . S
C93 C94 1.400 . S
C93 C95 1.364 . S
C94 C93 1.400 . S
C94 C98 1.377 . S
C95 C93 1.364 . S
C95 C96 1.374 . S
C96 H87 0.930 . S
C96 C95 1.374 . S
C96 C97 1.383 . S
C97 O91 1.412 . S
C97 C96 1.383 . S
C97 C98 1.394 . S
C98 H88 0.929 1_556 S
C98 C94 1.377 . S
C98 C97 1.394 . S
H99 C106 0.929 . S
H100 C109 0.930 . S
H101 C111 0.929 . S
H102 C103 0.969 . S
C103 H102 0.969 . S
C103 O104 1.550 . S
C103 H105 0.973 . S
O104 C103 1.550 . S
O104 C110 1.412 . S
H105 C103 0.973 . S
C106 H99 0.929 . S
C106 C107 1.400 . S
C106 C108 1.364 . S
C107 C106 1.400 . S
C107 C111 1.377 . S
C108 C106 1.364 . S
C108 C109 1.374 . S
C109 H100 0.930 . S
C109 C108 1.374 . S
C109 C110 1.383 . S
C110 O104 1.412 . S
C110 C109 1.383 . S
C110 C111 1.394 . S
C111 H101 0.929 . S
C111 C107 1.377 . S
C111 C110 1.394 . S
H112 C118 0.930 . S
H113 C122 0.930 . S
H114 C127 0.929 . S
H115 C125 0.929 . S
H116 C120 0.929 . S
H117 C126 0.929 . S
C118 H112 0.930 . S
C118 C119 1.367 1_556 S
C118 C126 1.378 . S
C119 C118 1.367 1_554 S
C119 C127 1.433 . S
C120 H116 0.929 . S
C120 C122 1.378 . S
C120 C124 1.350 . S
C121 C124 1.463 . S
C121 C126 1.350 1_554 S
C121 N129 1.427 . S
C122 H113 0.930 . S
C122 C120 1.378 . S
C122 C123 1.367 . S
C123 C122 1.367 . S
C123 C125 1.433 1_554 S
C124 C120 1.350 . S
C124 C121 1.463 . S
C124 N128 1.427 1_554 S
C125 H115 0.929 . S
C125 C123 1.433 1_556 S
C125 N128 1.384 . S
C126 H117 0.929 . S
C126 C118 1.378 . S
C126 C121 1.350 1_556 S
C127 H114 0.929 . S
C127 C119 1.433 . S
C127 N129 1.384 . S
N128 C124 1.427 1_556 S
N128 C125 1.384 . S
N129 C121 1.427 . S
N129 C127 1.384 . S
H130 C136 0.930 . S
H131 C140 0.930 . S
H132 C145 0.929 . S
H133 C143 0.929 . S
H134 C138 0.929 . S
H135 C144 0.929 . S
C136 H130 0.930 . S
C136 C137 1.367 . S
C136 C144 1.378 . S
C137 C136 1.367 . S
C137 C145 1.433 1_554 S
C138 H134 0.929 . S
C138 C140 1.378 . S
C138 C142 1.350 1_556 S
C139 C142 1.463 . S
C139 C144 1.350 . S
C139 N147 1.427 1_554 S
C140 H131 0.930 . S
C140 C138 1.378 . S
C140 C141 1.367 . S
C141 C140 1.367 . S
C141 C143 1.433 1_556 S
C142 C138 1.350 1_554 S
C142 C139 1.463 . S
C142 N146 1.427 . S
C143 H133 0.929 . S
C143 C141 1.433 1_554 S
C143 N146 1.384 . S
C144 H135 0.929 . S
C144 C136 1.378 . S
C144 C139 1.350 . S
C145 H132 0.929 . S
C145 C137 1.433 1_556 S
C145 N147 1.384 . S
N146 C142 1.427 . S
N146 C143 1.384 . S
N147 C139 1.427 1_556 S
N147 C145 1.384 . S
H148 C154 0.930 . S
H149 C158 0.930 . S
H150 C163 0.938 . S
H151 C161 0.929 . S
H152 C156 0.929 1_556 S
H153 C162 0.929 . S
C154 H148 0.930 . S
C154 C155 1.367 . S
C154 C162 1.378 . S
C155 C154 1.367 . S
C155 C163 1.425 1_554 S
C156 H152 0.929 1_554 S
C156 C158 1.378 . S
C156 C160 1.350 . S
C157 C160 1.463 . S
C157 C162 1.350 . S
C157 N165 1.427 . S
C158 H149 0.930 . S
C158 C156 1.378 . S
C158 C159 1.367 . S
C159 C158 1.367 . S
C159 C161 1.433 . S
C160 C156 1.350 . S
C160 C157 1.463 . S
C160 N164 1.427 . S
C161 H151 0.929 . S
C161 C159 1.433 . S
C161 N164 1.384 . S
C162 H153 0.929 . S
C162 C154 1.378 . S
C162 C157 1.350 . S
C163 H150 0.938 . S
C163 C155 1.425 1_556 S
C163 N165 1.383 1_556 S
N164 C160 1.427 . S
N164 C161 1.384 . S
N165 C157 1.427 . S
N165 C163 1.383 1_554 S
H166 C172 0.930 . S
H167 C176 0.946 . S
H168 C181 0.929 . S
H169 C179 0.929 . S
H170 C174 0.929 . S
H171 C180 0.929 . S
C172 H166 0.930 . S
C172 C173 1.367 . S
C172 C180 1.378 . S
C173 C172 1.367 . S
C173 C181 1.433 1_556 S
C174 H170 0.929 . S
C174 C176 1.379 . S
C174 C178 1.350 1_554 S
C175 C178 1.463 . S
C175 C180 1.350 . S
C175 N183 1.427 1_556 S
C176 H167 0.946 . S
C176 C174 1.379 . S
C176 C177 1.351 1_554 S
C177 C176 1.351 1_556 S
C177 C179 1.433 . S
C178 C174 1.350 1_556 S
C178 C175 1.463 . S
C178 N182 1.427 . S
C179 H169 0.929 . S
C179 C177 1.433 . S
C179 N182 1.384 . S
C180 H171 0.929 . S
C180 C172 1.378 . S
C180 C175 1.350 . S
C181 H168 0.929 . S
C181 C173 1.433 1_554 S
C181 N183 1.384 . S
N182 C178 1.427 . S
N182 C179 1.384 . S
N183 C175 1.427 1_554 S
N183 C181 1.384 . S
H184 C190 0.930 . S
H185 C194 0.930 . S
H186 C199 0.929 . S
H187 C197 0.929 . S
H188 C192 0.929 . S
H189 C198 0.929 . S
C190 H184 0.930 . S
C190 C191 1.367 . S
C190 C198 1.378 . S
C191 C190 1.367 . S
C191 C199 1.433 . S
C192 H188 0.929 . S
C192 C194 1.378 . S
C192 C196 1.350 . S
C193 C196 1.463 . S
C193 C198 1.350 . S
C193 N201 1.427 . S
C194 H185 0.930 . S
C194 C192 1.378 . S
C194 C195 1.367 . S
C195 C194 1.367 . S
C195 C197 1.433 . S
C196 C192 1.350 . S
C196 C193 1.463 . S
C196 N200 1.427 . S
C197 H187 0.929 . S
C197 C195 1.433 . S
C197 N200 1.384 . S
C198 H189 0.929 . S
C198 C190 1.378 . S
C198 C193 1.350 . S
C199 H186 0.929 . S
C199 C191 1.433 . S
C199 N201 1.384 . S
N200 C196 1.427 . S
N200 C197 1.384 . S
N201 C193 1.427 . S
N201 C199 1.384 . S
H202 C208 0.930 . S
H203 C212 0.930 . S
H204 C217 0.929 . S
H205 C215 0.929 . S
H206 C210 0.929 . S
H207 C216 0.929 . S
C208 H202 0.930 . S
C208 C209 1.367 . S
C208 C216 1.378 . S
C209 C208 1.367 . S
C209 C217 1.433 . S
C210 H206 0.929 . S
C210 C212 1.378 . S
C210 C214 1.350 . S
C211 C214 1.463 . S
C211 C216 1.350 . S
C211 N219 1.427 . S
C212 H203 0.930 . S
C212 C210 1.378 . S
C212 C213 1.367 . S
C213 C212 1.367 . S
C213 C215 1.433 . S
C214 C210 1.350 . S
C214 C211 1.463 . S
C214 N218 1.427 . S
C215 H205 0.929 . S
C215 C213 1.433 . S
C215 N218 1.384 . S
C216 H207 0.929 . S
C216 C208 1.378 . S
C216 C211 1.350 . S
C217 H204 0.929 . S
C217 C209 1.433 . S
C217 N219 1.384 . S
N218 C214 1.427 . S
N218 C215 1.384 . S
N219 C211 1.427 . S
N219 C217 1.384 . S
H220 C226 0.930 . S
H221 C230 0.930 . S
H222 C235 0.929 . S
H223 C233 0.929 . S
H224 C228 0.929 . S
H225 C234 0.929 . S
C226 H220 0.930 . S
C226 C227 1.367 . S
C226 C234 1.378 . S
C227 C226 1.367 . S
C227 C235 1.433 . S
C228 H224 0.929 . S
C228 C230 1.378 . S
C228 C232 1.350 . S
C229 C232 1.463 . S
C229 C234 1.350 . S
C229 N237 1.427 . S
C230 H221 0.930 . S
C230 C228 1.378 . S
C230 C231 1.367 . S
C231 C230 1.367 . S
C231 C233 1.433 . S
C232 C228 1.350 . S
C232 C229 1.463 . S
C232 N236 1.427 . S
C233 H223 0.929 . S
C233 C231 1.433 . S
C233 N236 1.384 . S
C234 H225 0.929 . S
C234 C226 1.378 . S
C234 C229 1.350 . S
C235 H222 0.929 . S
C235 C227 1.433 . S
C235 N237 1.384 . S
N236 C232 1.427 . S
N236 C233 1.384 . S
N237 C229 1.427 . S
N237 C235 1.384 . S
H238 C244 0.930 . S
H239 C248 0.930 . S
H240 C253 0.929 . S
H241 C251 0.929 . S
H242 C246 0.929 . S
H243 C252 0.929 . S
C244 H238 0.930 . S
C244 C245 1.367 . S
C244 C252 1.378 . S
C245 C244 1.367 . S
C245 C253 1.433 . S
C246 H242 0.929 . S
C246 C248 1.378 . S
C246 C250 1.350 . S
C247 C250 1.463 . S
C247 C252 1.350 . S
C247 N255 1.427 . S
C248 H239 0.930 . S
C248 C246 1.378 . S
C248 C249 1.367 . S
C249 C248 1.367 . S
C249 C251 1.433 . S
C250 C246 1.350 . S
C250 C247 1.463 . S
C250 N254 1.427 . S
C251 H241 0.929 . S
C251 C249 1.433 . S
C251 N254 1.384 . S
C252 H243 0.929 . S
C252 C244 1.378 . S
C252 C247 1.350 . S
C253 H240 0.929 . S
C253 C245 1.433 . S
C253 N255 1.384 . S
N254 C250 1.427 . S
N254 C251 1.384 . S
N255 C247 1.427 . S
N255 C253 1.384 . S
H256 C262 0.930 . S
H257 C266 0.930 . S
H258 C271 0.929 . S
H259 C269 0.929 . S
H260 C264 0.929 . S
H261 C270 0.929 . S
C262 H256 0.930 . S
C262 C263 1.367 1_565 S
C262 C270 1.378 . S
C263 C262 1.367 1_545 S
C263 C271 1.433 1_455 S
C264 H260 0.929 . S
C264 C266 1.378 . S
C264 C268 1.348 1_645 S
C265 C268 1.463 1_545 S
C265 C270 1.351 1_545 S
C265 N273 1.426 1_455 S
C266 H257 0.930 . S
C266 C264 1.378 . S
C266 C267 1.367 1_645 S
C267 C266 1.367 1_465 S
C267 C269 1.433 . S
C268 C264 1.348 1_465 S
C268 C265 1.463 1_565 S
C268 N272 1.429 . S
C269 H259 0.929 . S
C269 C267 1.433 . S
C269 N272 1.384 . S
C270 H261 0.929 . S
C270 C262 1.378 . S
C270 C265 1.351 1_565 S
C271 H258 0.929 . S
C271 C263 1.433 1_655 S
C271 N273 1.384 . S
N272 C268 1.429 . S
N272 C269 1.384 . S
N273 C265 1.426 1_655 S
N273 C271 1.384 . S
H274 C280 0.930 . S
H275 C284 0.930 1_565 S
H276 C289 0.929 . S
H277 C287 0.929 . S
H278 C282 0.929 1_565 S
H279 C288 0.929 . S
C280 H274 0.930 . S
C280 C281 1.367 . S
C280 C288 1.378 . S
C281 C280 1.367 . S
C281 C289 1.433 1_445 S
C282 H278 0.929 1_545 S
C282 C284 1.378 . S
C282 C286 1.350 1_655 S
C283 C286 1.463 . S
C283 C288 1.350 . S
C283 N291 1.427 1_445 S
C284 H275 0.930 1_545 S
C284 C282 1.378 . S
C284 C285 1.367 1_655 S
C285 C284 1.367 1_455 S
C285 C287 1.433 . S
C286 C282 1.350 1_455 S
C286 C283 1.463 . S
C286 N290 1.427 . S
C287 H277 0.929 . S
C287 C285 1.433 . S
C287 N290 1.384 . S
C288 H279 0.929 . S
C288 C280 1.378 . S
C288 C283 1.350 . S
C289 H276 0.929 . S
C289 C281 1.433 1_665 S
C289 N291 1.384 . S
N290 C286 1.427 . S
N290 C287 1.384 . S
N291 C283 1.427 1_665 S
N291 C289 1.384 . S
H292 C298 0.930 . S
H293 C302 0.930 . S
H294 C307 0.929 . S
H295 C305 0.929 . S
H296 C300 0.929 . S
H297 C306 0.929 . S
C298 H292 0.930 . S
C298 C299 1.367 . S
C298 C306 1.378 . S
C299 C298 1.367 . S
C299 C307 1.433 . S
C300 H296 0.929 . S
C300 C302 1.378 . S
C300 C304 1.350 . S
C301 C304 1.463 . S
C301 C306 1.350 . S
C301 N309 1.427 . S
C302 H293 0.930 . S
C302 C300 1.378 . S
C302 C303 1.367 . S
C303 C302 1.367 . S
C303 C305 1.433 . S
C304 C300 1.350 . S
C304 C301 1.463 . S
C304 N308 1.427 . S
C305 H295 0.929 . S
C305 C303 1.433 . S
C305 N308 1.384 . S
C306 H297 0.929 . S
C306 C298 1.378 . S
C306 C301 1.350 . S
C307 H294 0.929 . S
C307 C299 1.433 . S
C307 N309 1.384 . S
N308 C304 1.427 . S
N308 C305 1.384 . S
N309 C301 1.427 . S
N309 C307 1.384 . S
H310 C316 0.930 . S
H311 C320 0.930 . S
H312 C325 0.929 . S
H313 C323 0.929 . S
H314 C318 0.929 . S
H315 C324 0.929 . S
C316 H310 0.930 . S
C316 C317 1.367 . S
C316 C324 1.378 . S
C317 C316 1.367 . S
C317 C325 1.433 . S
C318 H314 0.929 . S
C318 C320 1.378 . S
C318 C322 1.350 . S
C319 C322 1.463 . S
C319 C324 1.350 . S
C319 N327 1.427 . S
C320 H311 0.930 . S
C320 C318 1.378 . S
C320 C321 1.367 . S
C321 C320 1.367 . S
C321 C323 1.433 . S
C322 C318 1.350 . S
C322 C319 1.463 . S
C322 N326 1.427 . S
C323 H313 0.929 . S
C323 C321 1.433 . S
C323 N326 1.384 . S
C324 H315 0.929 . S
C324 C316 1.378 . S
C324 C319 1.350 . S
C325 H312 0.929 . S
C325 C317 1.433 . S
C325 N327 1.384 . S
N326 C322 1.427 . S
N326 C323 1.384 . S
N327 C319 1.427 . S
N327 C325 1.384 . S
C123 C103 1.298 . S
C119 C27 1.436 . S
C137 N6 1.377 . S
C141 C90 1.305 . S
C155 C16 1.490 . S
C159 C107 1.473 . S
C173 N14 1.435 1_556 S
C177 C94 1.450 . S
C191 C57 1.436 . S
C195 C77 1.298 . S
C209 N36 1.377 . S
C213 C64 1.304 . S
C231 C81 1.471 . S
C227 C46 1.488 . S
C249 C68 1.447 . S
C245 N44 1.438 . S
C263 C10 1.471 . S
C267 C69 1.473 . S
C281 C1 1.554 . S
C285 C82 1.556 . S
C303 C95 1.473 . S
C299 C40 1.471 . S
C317 C31 1.552 . S
C321 C108 1.553 . S
