# Generated by pormake.
# Topology sqc, (4,8)-cn, num edge types: 1
# Building blocks:
#     Node 0, Type 0, BuildingBlock: NAHDIM_clean_linker_0, # of connection points: 4
#     Node 1, Type 0, BuildingBlock: NAHDIM_clean_linker_0, # of connection points: 4
#     Node 2, Type 0, BuildingBlock: NAHDIM_clean_linker_0, # of connection points: 4
#     Node 3, Type 0, BuildingBlock: NAHDIM_clean_linker_0, # of connection points: 4
#     Node 4, Type 0, BuildingBlock: NAHDIM_clean_linker_0, # of connection points: 4
#     Node 5, Type 0, BuildingBlock: NAHDIM_clean_linker_0, # of connection points: 4
#     Node 6, Type 0, BuildingBlock: NAHDIM_clean_linker_0, # of connection points: 4
#     Node 7, Type 0, BuildingBlock: NAHDIM_clean_linker_0, # of connection points: 4
#     Node 8, Type 1, BuildingBlock: TAGTUT_clean_sbu_3, # of connection points: 8
#     Node 9, Type 1, BuildingBlock: TAGTUT_clean_sbu_3, # of connection points: 8
#     Node 10, Type 1, BuildingBlock: TAGTUT_clean_sbu_3, # of connection points: 8
#     Node 11, Type 1, BuildingBlock: TAGTUT_clean_sbu_3, # of connection points: 8
#     Edge 12, Type (0, 1), BuildingBlock: ZUJKAS_clean_linker_0, # of connection points: 2
#     Edge 13, Type (0, 1), BuildingBlock: ZUJKAS_clean_linker_0, # of connection points: 2
#     Edge 14, Type (0, 1), BuildingBlock: ZUJKAS_clean_linker_0, # of connection points: 2
#     Edge 15, Type (0, 1), BuildingBlock: ZUJKAS_clean_linker_0, # of connection points: 2
#     Edge 16, Type (0, 1), BuildingBlock: ZUJKAS_clean_linker_0, # of connection points: 2
#     Edge 17, Type (0, 1), BuildingBlock: ZUJKAS_clean_linker_0, # of connection points: 2
#     Edge 18, Type (0, 1), BuildingBlock: ZUJKAS_clean_linker_0, # of connection points: 2
#     Edge 19, Type (0, 1), BuildingBlock: ZUJKAS_clean_linker_0, # of connection points: 2
#     Edge 20, Type (0, 1), BuildingBlock: ZUJKAS_clean_linker_0, # of connection points: 2
#     Edge 21, Type (0, 1), BuildingBlock: ZUJKAS_clean_linker_0, # of connection points: 2
#     Edge 22, Type (0, 1), BuildingBlock: ZUJKAS_clean_linker_0, # of connection points: 2
#     Edge 23, Type (0, 1), BuildingBlock: ZUJKAS_clean_linker_0, # of connection points: 2
#     Edge 24, Type (0, 1), BuildingBlock: ZUJKAS_clean_linker_0, # of connection points: 2
#     Edge 25, Type (0, 1), BuildingBlock: ZUJKAS_clean_linker_0, # of connection points: 2
#     Edge 26, Type (0, 1), BuildingBlock: ZUJKAS_clean_linker_0, # of connection points: 2
#     Edge 27, Type (0, 1), BuildingBlock: ZUJKAS_clean_linker_0, # of connection points: 2
#     Edge 28, Type (0, 1), BuildingBlock: ZUJKAS_clean_linker_0, # of connection points: 2
#     Edge 29, Type (0, 1), BuildingBlock: ZUJKAS_clean_linker_0, # of connection points: 2
#     Edge 30, Type (0, 1), BuildingBlock: ZUJKAS_clean_linker_0, # of connection points: 2
#     Edge 31, Type (0, 1), BuildingBlock: ZUJKAS_clean_linker_0, # of connection points: 2
#     Edge 32, Type (0, 1), BuildingBlock: ZUJKAS_clean_linker_0, # of connection points: 2
#     Edge 33, Type (0, 1), BuildingBlock: ZUJKAS_clean_linker_0, # of connection points: 2
#     Edge 34, Type (0, 1), BuildingBlock: ZUJKAS_clean_linker_0, # of connection points: 2
#     Edge 35, Type (0, 1), BuildingBlock: ZUJKAS_clean_linker_0, # of connection points: 2
#     Edge 36, Type (0, 1), BuildingBlock: ZUJKAS_clean_linker_0, # of connection points: 2
#     Edge 37, Type (0, 1), BuildingBlock: ZUJKAS_clean_linker_0, # of connection points: 2
#     Edge 38, Type (0, 1), BuildingBlock: ZUJKAS_clean_linker_0, # of connection points: 2
#     Edge 39, Type (0, 1), BuildingBlock: ZUJKAS_clean_linker_0, # of connection points: 2
#     Edge 40, Type (0, 1), BuildingBlock: ZUJKAS_clean_linker_0, # of connection points: 2
#     Edge 41, Type (0, 1), BuildingBlock: ZUJKAS_clean_linker_0, # of connection points: 2
#     Edge 42, Type (0, 1), BuildingBlock: ZUJKAS_clean_linker_0, # of connection points: 2
#     Edge 43, Type (0, 1), BuildingBlock: ZUJKAS_clean_linker_0, # of connection points: 2
# Relax obj value: 0.121
# Max RMSD: 0.250
# Mean RMSD: 0.122
data_MOF--net-sqc--node1-TAGTUT_clean_sbu_3--node2-NAHDIM_clean_linker_0--edge1-ZUJKAS_clean_linker_0
_symmetry_space_group_name_H-M    P1
_symmetry_Int_Tables_number       1
_symmetry_cell_setting            triclinic
loop_
_symmetry_equiv_pos_as_xyz
'x, y, z'
_cell_length_a     37.288937
_cell_length_b     37.264911
_cell_length_c     125.1661
_cell_angle_alpha  90.274903
_cell_angle_beta   89.635754
_cell_angle_gamma 89.977678
loop_
_atom_site_label
_atom_site_type_symbol
_atom_site_fract_x
_atom_site_fract_y
_atom_site_fract_z
_atom_type_partial_charge
C0 C 0.83712 0.00772 0.46927 0.0
C1 C 0.84937 0.97738 0.46175 0.0
C2 C 0.89919 0.95026 0.47175 0.0
C3 C 0.90906 0.92127 0.47814 0.0
C4 C 0.94218 0.92072 0.48343 0.0
C5 C 0.96599 0.94996 0.48224 0.0
C6 C 0.95698 0.97858 0.47538 0.0
C7 C 0.92372 0.97848 0.47021 0.0
C8 C 0.95112 0.88969 0.49063 0.0
C9 C 0.98198 0.01004 0.47384 0.0
C10 C 0.25199 0.89924 0.4639 0.0
C11 C 0.22416 0.91964 0.47 0.0
C12 C 0.16403 0.91065 0.47753 0.0
C13 C 0.15392 0.94698 0.47711 0.0
C14 C 0.12044 0.95834 0.48102 0.0
C15 C 0.09714 0.93316 0.48589 0.0
C16 C 0.10721 0.89658 0.48633 0.0
C17 C 0.14038 0.88577 0.48201 0.0
C18 C 0.11024 0.99742 0.48002 0.0
C19 C 0.08316 0.86899 0.49148 0.0
C20 C 0.1615 0.0696 0.53978 0.0
C21 C 0.14559 0.08485 0.53071 0.0
C22 C 0.11177 0.07348 0.52721 0.0
C23 C 0.09363 0.04584 0.53278 0.0
C24 C 0.10901 0.03114 0.54208 0.0
C25 C 0.14269 0.04342 0.54549 0.0
C26 C 0.09584 0.09045 0.51739 0.0
C27 C 0.09035 0.00173 0.5482 0.0
C28 C 0.81108 0.05315 0.52732 0.0
C29 C 0.82579 0.05633 0.53868 0.0
C30 C 0.88991 0.06917 0.537 0.0
C31 C 0.91172 0.09156 0.53084 0.0
C32 C 0.94689 0.08148 0.52811 0.0
C33 C 0.9606 0.04843 0.53182 0.0
C34 C 0.93957 0.02695 0.53872 0.0
C35 C 0.90442 0.03758 0.54127 0.0
C36 C 0.96879 0.10526 0.52085 0.0
C37 C 0.95379 0.99206 0.54306 0.0
C38 C 0.99827 0.9529 0.48908 0.0
C39 C 0.03104 0.93994 0.48516 0.0
C40 C 0.06286 0.9454 0.49083 0.0
C41 C 0.06206 0.96443 0.50065 0.0
C42 C 0.09352 0.97088 0.5065 0.0
C43 C 0.09286 0.99221 0.51565 0.0
C44 C 0.06057 0.00717 0.51946 0.0
C45 C 0.05993 0.03087 0.52833 0.0
C46 C 0.0271 0.04355 0.53232 0.0
C47 C 0.99482 0.03414 0.5274 0.0
C48 C 0.99523 0.01236 0.51811 0.0
C49 C 0.96348 0.0043 0.51258 0.0
C50 C 0.96435 0.98449 0.50316 0.0
C51 C 0.99694 0.97145 0.49895 0.0
C52 C 0.02902 0.97787 0.50464 0.0
C53 C 0.02822 0.99881 0.51415 0.0
C54 C 0.23711 0.07916 0.52867 0.0
C55 C 0.21991 0.10006 0.53796 0.0
O56 O 0.86569 0.95013 0.46746 0.0
O57 O 0.85528 0.07905 0.53873 0.0
O58 O 0.19486 0.07886 0.54321 0.0
O59 O 0.196 0.89851 0.47363 0.0
H60 H 0.86865 0.98857 0.45582 0.0
H61 H 0.86054 0.0206 0.47314 0.0
H62 H 0.81918 0.99728 0.47566 0.0
H63 H 0.82261 0.02865 0.46471 0.0
H64 H 0.89022 0.89942 0.47922 0.0
H65 H 0.91701 0.00098 0.46519 0.0
H66 H 0.97803 0.87885 0.48854 0.0
H67 H 0.93109 0.86771 0.49007 0.0
H68 H 0.95216 0.89925 0.49903 0.0
H69 H 0.97243 0.02877 0.46759 0.0
H70 H 0.00916 1.00035 0.47159 0.0
H71 H 0.98442 0.02509 0.48148 0.0
H72 H 0.23449 0.93824 0.47627 0.0
H73 H 0.24866 0.92045 0.44842 0.0
H74 H 0.2475 0.86995 0.46567 0.0
H75 H 0.27692 0.90142 0.46888 0.0
H76 H 0.17187 0.96669 0.4737 0.0
H77 H 0.14829 0.8578 0.48227 0.0
H78 H 0.11353 0.01096 0.48786 0.0
H79 H 0.08176 1.00022 0.47763 0.0
H80 H 0.12734 0.01157 0.47409 0.0
H81 H 0.09612 0.84219 0.49194 0.0
H82 H 0.05809 0.86639 0.48681 0.0
H83 H 0.07559 0.87782 0.49968 0.0
H84 H 0.20665 0.12453 0.53482 0.0
H85 H 0.15936 0.10536 0.5262 0.0
H86 H 0.15496 0.03195 0.55252 0.0
H87 H 0.09709 0.07106 0.51064 0.0
H88 H 0.1104 0.11517 0.51498 0.0
H89 H 0.0672 0.09728 0.5188 0.0
H90 H 0.10601 0.99283 0.55523 0.0
H91 H 0.08582 0.97831 0.54285 0.0
H92 H 0.06367 0.0113 0.55099 0.0
H93 H 0.83327 0.02882 0.54121 0.0
H94 H 0.78668 0.03604 0.52725 0.0
H95 H 0.83155 0.04053 0.52202 0.0
H96 H 0.80437 0.07995 0.52404 0.0
H97 H 0.90056 0.11633 0.5278 0.0
H98 H 0.8885 0.02111 0.54658 0.0
H99 H 0.9741 0.09105 0.51318 0.0
H100 H 0.99513 0.11112 0.52456 0.0
H101 H 0.95503 0.13102 0.51913 0.0
H102 H 0.93575 0.98039 0.54922 0.0
H103 H 0.98073 0.99627 0.54658 0.0
H104 H 0.95681 0.97241 0.53642 0.0
H105 H 0.03194 0.92639 0.47747 0.0
H106 H 0.11918 0.96019 0.50394 0.0
H107 H 0.11804 0.99697 0.51967 0.0
H108 H 0.02673 0.06164 0.53913 0.0
H109 H 0.93759 0.01381 0.51535 0.0
H110 H 0.93909 0.97975 0.49918 0.0
H111 H 0.25767 0.09593 0.5246 0.0
H112 H 0.21658 0.07166 0.52268 0.0
H113 H 0.24999 0.0542 0.53159 0.0
C114 C 0.14563 0.82476 0.80682 0.0
C115 C 0.1805 0.8439 0.80368 0.0
C116 C 0.2083 0.81353 0.78866 0.0
C117 C 0.24328 0.80845 0.79241 0.0
C118 C 0.26433 0.7798 0.78866 0.0
C119 C 0.25012 0.75594 0.78094 0.0
C120 C 0.21541 0.76194 0.77681 0.0
C121 C 0.195 0.79099 0.78067 0.0
C122 C 0.30155 0.77463 0.79307 0.0
C123 C 0.1997 0.73726 0.76848 0.0
C124 C 0.24057 0.46741 0.80301 0.0
C125 C 0.24126 0.49979 0.79615 0.0
C126 C 0.26725 0.55992 0.79546 0.0
C127 C 0.25256 0.56845 0.78546 0.0
C128 C 0.2583 0.60219 0.78086 0.0
C129 C 0.27968 0.6278 0.78625 0.0
C130 C 0.29434 0.61947 0.79633 0.0
C131 C 0.28785 0.58557 0.80081 0.0
C132 C 0.24199 0.61024 0.77012 0.0
C133 C 0.31745 0.64611 0.80223 0.0
C134 C 0.46535 0.58054 0.74546 0.0
C135 C 0.43126 0.57816 0.74079 0.0
C136 C 0.40793 0.60771 0.74088 0.0
C137 C 0.41861 0.6399 0.74599 0.0
C138 C 0.45361 0.6429 0.75021 0.0
C139 C 0.47672 0.61322 0.74974 0.0
C140 C 0.37137 0.60408 0.73589 0.0
C141 C 0.46608 0.67698 0.75558 0.0
C142 C 0.31211 0.88477 0.71804 0.0
C143 C 0.35245 0.87821 0.71683 0.0
C144 C 0.36299 0.81504 0.72062 0.0
C145 C 0.34466 0.78314 0.71858 0.0
C146 C 0.34703 0.75407 0.7256 0.0
C147 C 0.36898 0.75693 0.73475 0.0
C148 C 0.38922 0.78846 0.73653 0.0
C149 C 0.38599 0.8173 0.72943 0.0
C150 C 0.32544 0.72063 0.7234 0.0
C151 C 0.41372 0.79183 0.74603 0.0
C152 C 0.27137 0.7242 0.77749 0.0
C153 C 0.26725 0.69235 0.78325 0.0
C154 C 0.28833 0.66226 0.78093 0.0
C155 C 0.3153 0.66432 0.77298 0.0
C156 C 0.33902 0.63563 0.77109 0.0
C157 C 0.36487 0.63753 0.76307 0.0
C158 C 0.36713 0.66763 0.75636 0.0
C159 C 0.39223 0.66914 0.74785 0.0
C160 C 0.39268 0.69878 0.74105 0.0
C161 C 0.36919 0.72757 0.74269 0.0
C162 C 0.34515 0.72738 0.75148 0.0
C163 C 0.32234 0.75666 0.75367 0.0
C164 C 0.29868 0.75605 0.76231 0.0
C165 C 0.296 0.72562 0.76886 0.0
C166 C 0.3184 0.6957 0.76671 0.0
C167 C 0.34367 0.69696 0.7582 0.0
C168 C 0.50368 0.49545 0.7534 0.0
C169 C 0.47732 0.51625 0.74647 0.0
O170 O 0.18674 0.83947 0.79283 0.0
O171 O 0.3584 0.84286 0.71382 0.0
O172 O 0.48774 0.5519 0.74611 0.0
O173 O 0.26228 0.52741 0.80014 0.0
H174 H 0.20189 0.83072 0.80845 0.0
H175 H 0.14898 0.79534 0.80573 0.0
H176 H 0.12296 0.83349 0.80174 0.0
H177 H 0.13895 0.83009 0.81535 0.0
H178 H 0.254 0.82677 0.79833 0.0
H179 H 0.16809 0.79548 0.77774 0.0
H180 H 0.30327 0.74819 0.79708 0.0
H181 H 0.30893 0.79594 0.79889 0.0
H182 H 0.32145 0.77459 0.78643 0.0
H183 H 0.17273 0.74615 0.76586 0.0
H184 H 0.1975 0.7097 0.77176 0.0
H185 H 0.2178 0.73592 0.76141 0.0
H186 H 0.21424 0.509 0.79352 0.0
H187 H 0.212 0.46522 0.8059 0.0
H188 H 0.25139 0.47579 0.81103 0.0
H189 H 0.26501 0.42795 0.79349 0.0
H190 H 0.23683 0.54886 0.78114 0.0
H191 H 0.29912 0.57881 0.80851 0.0
H192 H 0.2636 0.61222 0.76401 0.0
H193 H 0.22781 0.63645 0.77038 0.0
H194 H 0.22278 0.58917 0.76754 0.0
H195 H 0.32709 0.63547 0.80997 0.0
H196 H 0.30199 0.6711 0.80375 0.0
H197 H 0.341 0.65333 0.79721 0.0
H198 H 0.45056 0.51407 0.75044 0.0
H199 H 0.42264 0.55326 0.73714 0.0
H200 H 0.50331 0.61492 0.75316 0.0
H201 H 0.35074 0.60195 0.74228 0.0
H202 H 0.36948 0.5799 0.73069 0.0
H203 H 0.36506 0.6282 0.73107 0.0
H204 H 0.49398 0.67482 0.75857 0.0
H205 H 0.44803 0.68357 0.7624 0.0
H206 H 0.46472 0.69959 0.74985 0.0
H207 H 0.36501 0.88416 0.72468 0.0
H208 H 0.30687 0.91312 0.72036 0.0
H209 H 0.30098 0.86713 0.72437 0.0
H210 H 0.29803 0.87882 0.71043 0.0
H211 H 0.32757 0.78151 0.71162 0.0
H212 H 0.40164 0.84137 0.73073 0.0
H213 H 0.30668 0.71562 0.73015 0.0
H214 H 0.34363 0.69711 0.72276 0.0
H215 H 0.30972 0.72265 0.71591 0.0
H216 H 0.42959 0.81705 0.74587 0.0
H217 H 0.43243 0.76865 0.74624 0.0
H218 H 0.39754 0.79129 0.7535 0.0
H219 H 0.24719 0.69088 0.78955 0.0
H220 H 0.3381 0.61149 0.77586 0.0
H221 H 0.3826 0.61473 0.76209 0.0
H222 H 0.41135 0.69934 0.73437 0.0
H223 H 0.32273 0.78054 0.74877 0.0
H224 H 0.28198 0.77943 0.76367 0.0
H225 H 0.53132 0.49715 0.75007 0.0
H226 H 0.49565 0.46679 0.75389 0.0
H227 H 0.50374 0.50687 0.76162 0.0
C228 C 0.68078 0.92354 0.08309 0.0
C229 C 0.69968 0.92182 0.07222 0.0
C230 C 0.68502 0.96118 0.05744 0.0
C231 C 0.69177 0.93727 0.04898 0.0
C232 C 0.67504 0.94183 0.03907 0.0
C233 C 0.6509 0.97074 0.03767 0.0
C234 C 0.64596 0.9962 0.04598 0.0
C235 C 0.66362 0.99134 0.05574 0.0
C236 C 0.68173 0.91473 0.03029 0.0
C237 C 0.62038 0.0273 0.04479 0.0
C238 C 0.47678 0.78814 0.03662 0.0
C239 C 0.4729 0.82718 0.04041 0.0
C240 C 0.48853 0.87305 0.02781 0.0
C241 C 0.48359 0.90961 0.02979 0.0
C242 C 0.50998 0.93456 0.02683 0.0
C243 C 0.54159 0.92241 0.02162 0.0
C244 C 0.54552 0.88562 0.01902 0.0
C245 C 0.51891 0.86125 0.0222 0.0
C246 C 0.505 0.97357 0.02974 0.0
C247 C 0.57857 0.87187 0.01332 0.0
C248 C 0.51887 0.03044 0.9582 0.0
C249 C 0.51061 0.05016 0.96745 0.0
C250 C 0.53546 0.05304 0.97579 0.0
C251 C 0.56885 0.03507 0.97491 0.0
C252 C 0.57759 0.01612 0.96541 0.0
C253 C 0.55259 0.01457 0.95708 0.0
C254 C 0.5258 0.07484 0.98558 0.0
C255 C 0.61299 0.99687 0.96413 0.0
C256 C 0.82518 0.16437 0.99944 0.0
C257 C 0.80445 0.14144 0.99141 0.0
C258 C 0.7399 0.12924 0.99101 0.0
C259 C 0.70708 0.14143 0.99506 0.0
C260 C 0.67682 0.11908 0.99522 0.0
C261 C 0.67949 0.08376 0.9911 0.0
C262 C 0.71219 0.07177 0.98653 0.0
C263 C 0.74209 0.09466 0.98651 0.0
C264 C 0.64223 0.13284 3e-05 0.0
C265 C 0.71566 0.03451 0.98187 0.0
C266 C 0.62688 0.97102 0.02827 0.0
C267 C 0.59686 0.94873 0.02871 0.0
C268 C 0.57251 0.94705 0.02032 0.0
C269 C 0.57796 0.96836 0.01115 0.0
C270 C 0.55414 0.9671 0.00251 0.0
C271 C 0.55958 0.98853 0.99357 0.0
C272 C 0.58883 0.01235 0.99299 0.0
C273 C 0.59407 0.03496 0.98405 0.0
C274 C 0.62372 0.05791 0.98368 0.0
C275 C 0.64855 0.05887 0.992 0.0
C276 C 0.64366 0.03665 0.00103 0.0
C277 C 0.66812 0.03699 0.00955 0.0
C278 C 0.66288 0.01531 0.01845 0.0
C279 C 0.63288 0.99265 0.01919 0.0
C280 C 0.60815 0.99147 0.01063 0.0
C281 C 0.61356 0.0135 0.00154 0.0
C282 C 0.45697 0.97636 0.94716 0.0
C283 C 0.45991 0.01451 0.95162 0.0
O284 O 0.69771 0.95521 0.06741 0.0
O285 O 0.76867 0.15151 0.99166 0.0
O286 O 0.4948 0.02654 0.95021 0.0
O287 O 0.46484 0.84916 0.03186 0.0
H288 H 0.68489 0.90134 0.06745 0.0
H289 H 0.65206 0.93044 0.08198 0.0
H290 H 0.6931 0.94431 0.0883 0.0
H291 H 0.6823 0.8971 0.08713 0.0
H292 H 0.70948 0.91461 0.05018 0.0
H293 H 0.65913 0.00994 0.06229 0.0
H294 H 0.65812 0.89675 0.02963 0.0
H295 H 0.70575 0.89798 0.03188 0.0
H296 H 0.68532 0.92842 0.0225 0.0
H297 H 0.61986 0.04494 0.05197 0.0
H298 H 0.59286 0.01702 0.04337 0.0
H299 H 0.62818 0.04361 0.03775 0.0
H300 H 0.49935 0.83469 0.04391 0.0
H301 H 0.47856 0.7698 0.04357 0.0
H302 H 0.50175 0.78504 0.03183 0.0
H303 H 0.4539 0.78004 0.03151 0.0
H304 H 0.45985 0.91829 0.03412 0.0
H305 H 0.52215 0.83289 0.02055 0.0
H306 H 0.50959 0.99062 0.02261 0.0
H307 H 0.52512 0.98137 0.03583 0.0
H308 H 0.47778 0.97915 0.033 0.0
H309 H 0.57581 0.84334 0.01084 0.0
H310 H 0.60203 0.87428 0.01869 0.0
H311 H 0.58416 0.88837 0.00614 0.0
H312 H 0.45283 0.01334 0.96028 0.0
H313 H 0.4848 0.06339 0.9681 0.0
H314 H 0.55878 0.99989 0.94981 0.0
H315 H 0.5203 0.05652 0.99236 0.0
H316 H 0.50165 0.09171 0.9843 0.0
H317 H 0.54851 0.09246 0.98789 0.0
H318 H 0.61441 0.98088 0.95663 0.0
H319 H 0.61742 0.97872 0.97101 0.0
H320 H 0.63511 0.0168 0.96406 0.0
H321 H 0.80743 0.11317 0.99413 0.0
H322 H 0.85403 0.15686 0.99935 0.0
H323 H 0.81439 0.15986 0.00762 0.0
H324 H 0.82264 0.19337 0.99756 0.0
H325 H 0.70553 0.16832 0.99837 0.0
H326 H 0.76703 0.08539 0.98299 0.0
H327 H 0.63489 0.11634 0.00708 0.0
H328 H 0.62023 0.13021 0.99414 0.0
H329 H 0.6442 0.16136 0.00259 0.0
H330 H 0.74255 0.02962 0.97827 0.0
H331 H 0.69498 0.03035 0.97564 0.0
H332 H 0.71086 0.01433 0.98822 0.0
H333 H 0.59236 0.93232 0.03574 0.0
H334 H 0.53102 0.94953 0.00258 0.0
H335 H 0.5404 0.98632 0.98715 0.0
H336 H 0.62756 0.07521 0.97682 0.0
H337 H 0.69158 0.05409 0.00946 0.0
H338 H 0.68251 0.01664 0.02478 0.0
H339 H 0.4636 0.97585 0.93849 0.0
H340 H 0.42938 0.96578 0.94835 0.0
H341 H 0.47596 0.95846 0.95139 0.0
C342 C 0.15111 0.1863 0.20227 0.0
C343 C 0.18492 0.16747 0.2063 0.0
C344 C 0.21056 0.19739 0.22166 0.0
C345 C 0.24694 0.19857 0.21879 0.0
C346 C 0.26957 0.22517 0.22296 0.0
C347 C 0.25545 0.25111 0.23014 0.0
C348 C 0.21897 0.24927 0.2333 0.0
C349 C 0.19704 0.22205 0.22909 0.0
C350 C 0.30853 0.22576 0.21963 0.0
C351 C 0.20314 0.27633 0.24099 0.0
C352 C 0.37789 0.51155 0.21247 0.0
C353 C 0.33877 0.49932 0.21285 0.0
C354 C 0.32622 0.43472 0.21327 0.0
C355 C 0.30014 0.43429 0.22141 0.0
C356 C 0.29216 0.40242 0.22688 0.0
C357 C 0.31058 0.37042 0.22413 0.0
C358 C 0.33518 0.37039 0.21547 0.0
C359 C 0.3424 0.40257 0.21009 0.0
C360 C 0.26495 0.40314 0.23585 0.0
C361 C 0.35487 0.33668 0.2122 0.0
C362 C 0.47034 0.40194 0.27409 0.0
C363 C 0.43484 0.40849 0.27737 0.0
C364 C 0.40843 0.38194 0.27625 0.0
C365 C 0.41764 0.34853 0.27155 0.0
C366 C 0.45379 0.3413 0.26876 0.0
C367 C 0.47979 0.36803 0.27023 0.0
C368 C 0.37045 0.39004 0.27973 0.0
C369 C 0.4647 0.30586 0.26384 0.0
C370 C 0.29002 0.10527 0.29493 0.0
C371 C 0.33024 0.11213 0.29614 0.0
C372 C 0.34233 0.17564 0.29306 0.0
C373 C 0.32471 0.20798 0.29519 0.0
C374 C 0.32982 0.23794 0.2886 0.0
C375 C 0.35377 0.23552 0.27982 0.0
C376 C 0.37294 0.20332 0.27791 0.0
C377 C 0.36704 0.17366 0.28457 0.0
C378 C 0.30927 0.272 0.29093 0.0
C379 C 0.39949 0.20024 0.2688 0.0
C380 C 0.27896 0.28018 0.23425 0.0
C381 C 0.28313 0.31106 0.22803 0.0
C382 C 0.30704 0.33818 0.231 0.0
C383 C 0.32773 0.33434 0.24036 0.0
C384 C 0.35338 0.36019 0.24327 0.0
C385 C 0.37376 0.35617 0.25244 0.0
C386 C 0.36883 0.32651 0.2592 0.0
C387 C 0.38917 0.32247 0.26863 0.0
C388 C 0.38348 0.29277 0.27519 0.0
C389 C 0.35828 0.26648 0.27252 0.0
C390 C 0.33811 0.26975 0.26303 0.0
C391 C 0.31313 0.24341 0.25997 0.0
C392 C 0.29389 0.24661 0.25052 0.0
C393 C 0.2983 0.27666 0.24388 0.0
C394 C 0.32295 0.30375 0.2469 0.0
C395 C 0.34322 0.30006 0.2564 0.0
C396 C 0.52052 0.4794 0.26602 0.0
C397 C 0.49007 0.46412 0.27286 0.0
O398 O 0.188 0.17301 0.21722 0.0
O399 O 0.33558 0.14723 0.29951 0.0
O400 O 0.49595 0.42779 0.27438 0.0
O401 O 0.33627 0.46542 0.20826 0.0
H402 H 0.20771 0.18012 0.20192 0.0
H403 H 0.15376 0.21575 0.20345 0.0
H404 H 0.1269 0.17718 0.20669 0.0
H405 H 0.14745 0.18097 0.1936 0.0
H406 H 0.25758 0.17868 0.21328 0.0
H407 H 0.16895 0.22061 0.23133 0.0
H408 H 0.3143 0.25093 0.21524 0.0
H409 H 0.31578 0.20261 0.21442 0.0
H410 H 0.32588 0.22541 0.22681 0.0
H411 H 0.1741 0.2717 0.24246 0.0
H412 H 0.20682 0.30383 0.23778 0.0
H413 H 0.21747 0.27504 0.24872 0.0
H414 H 0.33087 0.49882 0.22144 0.0
H415 H 0.38061 0.53868 0.2161 0.0
H416 H 0.38797 0.51233 0.2041 0.0
H417 H 0.39478 0.49258 0.21706 0.0
H418 H 0.28608 0.45875 0.22354 0.0
H419 H 0.36185 0.40305 0.20362 0.0
H420 H 0.2456 0.38071 0.2349 0.0
H421 H 0.2499 0.42886 0.23619 0.0
H422 H 0.27884 0.39936 0.24358 0.0
H423 H 0.37295 0.34104 0.20524 0.0
H424 H 0.33525 0.3154 0.21013 0.0
H425 H 0.37105 0.32677 0.219 0.0
H426 H 0.46493 0.46825 0.26824 0.0
H427 H 0.42765 0.43438 0.28071 0.0
H428 H 0.50742 0.36311 0.2679 0.0
H429 H 0.35358 0.39424 0.27257 0.0
H430 H 0.36885 0.41451 0.28481 0.0
H431 H 0.35905 0.36703 0.28422 0.0
H432 H 0.49372 0.30492 0.26179 0.0
H433 H 0.44899 0.30085 0.25647 0.0
H434 H 0.45864 0.28381 0.2695 0.0
H435 H 0.3429 0.10729 0.2882 0.0
H436 H 0.28519 0.07719 0.29227 0.0
H437 H 0.27881 0.12364 0.28884 0.0
H438 H 0.27571 0.11002 0.30263 0.0
H439 H 0.30623 0.20939 0.30189 0.0
H440 H 0.38213 0.14923 0.28321 0.0
H441 H 0.29292 0.27933 0.28388 0.0
H442 H 0.32833 0.29434 0.2924 0.0
H443 H 0.29125 0.26938 0.29798 0.0
H444 H 0.41362 0.17399 0.26871 0.0
H445 H 0.41968 0.22205 0.26938 0.0
H446 H 0.38532 0.20352 0.26109 0.0
H447 H 0.26799 0.31377 0.2207 0.0
H448 H 0.35829 0.38374 0.23846 0.0
H449 H 0.39331 0.37682 0.25417 0.0
H450 H 0.39911 0.28989 0.28242 0.0
H451 H 0.30837 0.21983 0.26479 0.0
H452 H 0.27531 0.22533 0.24853 0.0
H453 H 0.51626 0.50853 0.26465 0.0
H454 H 0.52123 0.46557 0.25814 0.0
H455 H 0.54684 0.47548 0.26997 0.0
C456 C 0.62647 0.33205 0.3046 0.0
C457 C 0.66517 0.34446 0.3029 0.0
C458 C 0.69854 0.31118 0.28939 0.0
C459 C 0.73228 0.3078 0.29415 0.0
C460 C 0.75614 0.28061 0.2909 0.0
C461 C 0.74577 0.25605 0.28281 0.0
C462 C 0.71163 0.25946 0.27802 0.0
C463 C 0.68872 0.28749 0.28124 0.0
C464 C 0.79251 0.2783 0.29607 0.0
C465 C 0.69936 0.23357 0.26949 0.0
C466 C 0.8789 0.99888 0.30049 0.0
C467 C 0.8397 0.01057 0.29972 0.0
C468 C 0.82289 0.07415 0.30002 0.0
C469 C 0.79619 0.07336 0.29217 0.0
C470 C 0.78589 0.10494 0.28692 0.0
C471 C 0.80276 0.1378 0.28959 0.0
C472 C 0.82767 0.13897 0.29806 0.0
C473 C 0.83711 0.10707 0.30325 0.0
C474 C 0.75838 0.10295 0.27816 0.0
C475 C 0.84575 0.17357 0.30125 0.0
C476 C 0.96532 0.10545 0.23818 0.0
C477 C 0.92946 0.09904 0.23544 0.0
C478 C 0.90306 0.12529 0.23731 0.0
C479 C 0.9127 0.15813 0.24228 0.0
C480 C 0.94909 0.16487 0.24477 0.0
C481 C 0.97501 0.13862 0.24249 0.0
C482 C 0.86486 0.11773 0.2341 0.0
C483 C 0.96061 0.19949 0.25004 0.0
C484 C 0.85781 0.4272 0.23106 0.0
C485 C 0.88113 0.40719 0.22284 0.0
C486 C 0.86419 0.34394 0.22538 0.0
C487 C 0.84428 0.3154 0.22121 0.0
C488 C 0.842 0.28246 0.22658 0.0
C489 C 0.86048 0.27793 0.2363 0.0
C490 C 0.88117 0.30646 0.2405 0.0
C491 C 0.88253 0.33923 0.23507 0.0
C492 C 0.81962 0.2526 0.22192 0.0
C493 C 0.90175 0.30242 0.25079 0.0
C494 C 0.77109 0.22757 0.27915 0.0
C495 C 0.77445 0.19654 0.28535 0.0
C496 C 0.79871 0.16942 0.28251 0.0
C497 C 0.82005 0.17301 0.27318 0.0
C498 C 0.84523 0.14655 0.27022 0.0
C499 C 0.86637 0.15035 0.26112 0.0
C500 C 0.86313 0.18065 0.25456 0.0
C501 C 0.88475 0.18483 0.24531 0.0
C502 C 0.8819 0.21606 0.23923 0.0
C503 C 0.85828 0.24355 0.2422 0.0
C504 C 0.83571 0.23938 0.25123 0.0
C505 C 0.81124 0.26628 0.25432 0.0
C506 C 0.79009 0.26252 0.26345 0.0
C507 C 0.79228 0.23153 0.26979 0.0
C508 C 0.81665 0.20402 0.26678 0.0
C509 C 0.83825 0.20786 0.25746 0.0
C510 C 0.01912 0.03044 0.24469 0.0
C511 C 0.98746 0.04379 0.23808 0.0
O512 O 0.67526 0.33739 0.29241 0.0
O513 O 0.86477 0.37532 0.21983 0.0
O514 O 0.99133 0.08046 0.23669 0.0
O515 O 0.83579 0.04386 0.30461 0.0
H516 H 0.68208 0.32889 0.30854 0.0
H517 H 0.62445 0.30278 0.30299 0.0
H518 H 0.60806 0.34635 0.29912 0.0
H519 H 0.61784 0.33714 0.31299 0.0
H520 H 0.74013 0.32679 0.30028 0.0
H521 H 0.66266 0.29055 0.27757 0.0
H522 H 0.79395 0.25346 0.3009 0.0
H523 H 0.79795 0.30162 0.30138 0.0
H524 H 0.81388 0.27676 0.28987 0.0
H525 H 0.67054 0.2371 0.26755 0.0
H526 H 0.7038 0.20548 0.27211 0.0
H527 H 0.71536 0.23777 0.2621 0.0
H528 H 0.83345 0.0121 0.29104 0.0
H529 H 0.88734 0.99714 0.30897 0.0
H530 H 0.89633 0.01869 0.29636 0.0
H531 H 0.88279 0.97229 0.29659 0.0
H532 H 0.78374 0.04811 0.29001 0.0
H533 H 0.85703 0.10746 0.30952 0.0
H534 H 0.73864 0.1251 0.27905 0.0
H535 H 0.74386 0.07692 0.27814 0.0
H536 H 0.77197 0.10618 0.27031 0.0
H537 H 0.86382 0.17015 0.30819 0.0
H538 H 0.82516 0.19401 0.30331 0.0
H539 H 0.86166 0.18403 0.29441 0.0
H540 H 0.96258 0.03788 0.24274 0.0
H541 H 0.92217 0.0737 0.23178 0.0
H542 H 0.00291 0.14339 0.24441 0.0
H543 H 0.84848 0.11243 0.24136 0.0
H544 H 0.86289 0.09403 0.22872 0.0
H545 H 0.85314 0.14137 0.23003 0.0
H546 H 0.98903 0.19867 0.25264 0.0
H547 H 0.94337 0.20539 0.2571 0.0
H548 H 0.95749 0.2219 0.24431 0.0
H549 H 0.90776 0.40148 0.2264 0.0
H550 H 0.87073 0.45293 0.23337 0.0
H551 H 0.85433 0.41085 0.23838 0.0
H552 H 0.83085 0.43291 0.22773 0.0
H553 H 0.8302 0.31917 0.21375 0.0
H554 H 0.89795 0.36085 0.23852 0.0
H555 H 0.79952 0.24352 0.22791 0.0
H556 H 0.83709 0.22931 0.21997 0.0
H557 H 0.80543 0.26094 0.21456 0.0
H558 H 0.91968 0.32563 0.25236 0.0
H559 H 0.9182 0.27759 0.25054 0.0
H560 H 0.88263 0.3 0.25757 0.0
H561 H 0.75837 0.1937 0.29255 0.0
H562 H 0.84912 0.12259 0.27492 0.0
H563 H 0.88541 0.12919 0.25934 0.0
H564 H 0.89933 0.21963 0.23234 0.0
H565 H 0.8083 0.29067 0.24974 0.0
H566 H 0.77206 0.28431 0.26548 0.0
H567 H 0.04479 0.03483 0.24033 0.0
H568 H 0.01627 0.00141 0.24649 0.0
H569 H 0.02012 0.0453 0.2524 0.0
C570 C 0.63553 0.68311 0.70755 0.0
C571 C 0.67385 0.67043 0.70963 0.0
C572 C 0.70633 0.70382 0.72317 0.0
C573 C 0.74098 0.70518 0.7188 0.0
C574 C 0.76537 0.73171 0.72206 0.0
C575 C 0.75462 0.75765 0.72975 0.0
C576 C 0.71949 0.75638 0.73411 0.0
C577 C 0.69603 0.72894 0.73091 0.0
C578 C 0.80271 0.73184 0.71735 0.0
C579 C 0.70674 0.78392 0.74216 0.0
C580 C 0.88776 0.01283 0.71003 0.0
C581 C 0.84869 0.00132 0.7115 0.0
C582 C 0.83277 0.93756 0.71181 0.0
C583 C 0.8073 0.93835 0.72012 0.0
C584 C 0.79819 0.90688 0.72563 0.0
C585 C 0.81501 0.87407 0.7228 0.0
C586 C 0.83898 0.87289 0.714 0.0
C587 C 0.84722 0.90469 0.70854 0.0
C588 C 0.77158 0.90891 0.73475 0.0
C589 C 0.85702 0.83834 0.71066 0.0
C590 C 0.96807 0.90921 0.77477 0.0
C591 C 0.93195 0.91562 0.77739 0.0
C592 C 0.90595 0.88889 0.77585 0.0
C593 C 0.91628 0.85534 0.77146 0.0
C594 C 0.95293 0.84827 0.76932 0.0
C595 C 0.97843 0.87525 0.77114 0.0
C596 C 0.8673 0.89687 0.77861 0.0
C597 C 0.96495 0.81268 0.76474 0.0
C598 C 0.77596 0.61669 0.79947 0.0
C599 C 0.81552 0.62708 0.79854 0.0
C600 C 0.82971 0.68958 0.79443 0.0
C601 C 0.81346 0.72317 0.79545 0.0
C602 C 0.82201 0.75115 0.78843 0.0
C603 C 0.84806 0.74542 0.78033 0.0
C604 C 0.86592 0.71198 0.77958 0.0
C605 C 0.85656 0.68433 0.78666 0.0
C606 C 0.80274 0.78661 0.78952 0.0
C607 C 0.89455 0.70541 0.77123 0.0
C608 C 0.78044 0.78548 0.7334 0.0
C609 C 0.78591 0.81563 0.72695 0.0
C610 C 0.81069 0.84215 0.72978 0.0
C611 C 0.8309 0.83846 0.73924 0.0
C612 C 0.85714 0.86382 0.74209 0.0
C613 C 0.87641 0.86043 0.75149 0.0
C614 C 0.86988 0.83182 0.75853 0.0
C615 C 0.88859 0.82879 0.76828 0.0
C616 C 0.88119 0.80023 0.77515 0.0
C617 C 0.85578 0.77415 0.77247 0.0
C618 C 0.83734 0.77632 0.76264 0.0
C619 C 0.81231 0.75007 0.75957 0.0
C620 C 0.79417 0.7526 0.74992 0.0
C621 C 0.79957 0.78203 0.74309 0.0
C622 C 0.82483 0.80867 0.74601 0.0
C623 C 0.84407 0.80557 0.75573 0.0
C624 C 0.01887 0.98751 0.76778 0.0
C625 C 0.98777 0.97163 0.77423 0.0
O626 O 0.68257 0.67822 0.72014 0.0
O627 O 0.81918 0.66309 0.80116 0.0
O628 O 0.9935 0.93516 0.7755 0.0
O629 O 0.844 0.96783 0.7068 0.0
H630 H 0.69174 0.68531 0.70402 0.0
H631 H 0.63353 0.71247 0.70903 0.0
H632 H 0.61627 0.66919 0.71293 0.0
H633 H 0.62801 0.67775 0.69912 0.0
H634 H 0.74906 0.68512 0.71296 0.0
H635 H 0.66921 0.72745 0.73427 0.0
H636 H 0.80646 0.7564 0.71248 0.0
H637 H 0.80788 0.70804 0.71218 0.0
H638 H 0.82292 0.73246 0.72382 0.0
H639 H 0.6774 0.7821 0.74366 0.0
H640 H 0.71321 0.8114 0.73934 0.0
H641 H 0.72081 0.77982 0.74984 0.0
H642 H 0.84375 1.00013 0.72028 0.0
H643 H 0.89495 0.0142 0.70141 0.0
H644 H 0.90572 0.99311 0.71393 0.0
H645 H 0.89228 0.03955 0.71377 0.0
H646 H 0.7947 0.96351 0.72235 0.0
H647 H 0.86624 0.90428 0.70195 0.0
H648 H 0.75171 0.88681 0.7341 0.0
H649 H 0.75707 0.93495 0.73496 0.0
H650 H 0.78592 0.90561 0.74243 0.0
H651 H 0.87498 0.8419 0.70363 0.0
H652 H 0.83638 0.81797 0.70867 0.0
H653 H 0.87302 0.82771 0.7174 0.0
H654 H 0.96313 0.97624 0.76942 0.0
H655 H 0.92395 0.94151 0.78056 0.0
H656 H 0.00648 0.87042 0.76932 0.0
H657 H 0.85172 0.89981 0.77113 0.0
H658 H 0.8644 0.92196 0.78337 0.0
H659 H 0.85541 0.8743 0.78318 0.0
H660 H 0.9944 0.81162 0.76337 0.0
H661 H 0.9512 0.80761 0.75704 0.0
H662 H 0.9573 0.79075 0.77028 0.0
H663 H 0.82361 0.62191 0.7901 0.0
H664 H 0.77225 0.58792 0.79737 0.0
H665 H 0.75983 0.63308 0.79388 0.0
H666 H 0.7658 0.62143 0.80773 0.0
H667 H 0.79325 0.72709 0.80161 0.0
H668 H 0.8704 0.65882 0.78616 0.0
H669 H 0.78852 0.79279 0.78198 0.0
H670 H 0.82252 0.80838 0.79092 0.0
H671 H 0.78297 0.78667 0.7962 0.0
H672 H 0.90731 0.67863 0.77206 0.0
H673 H 0.91559 0.7264 0.77182 0.0
H674 H 0.88261 0.7073 0.76315 0.0
H675 H 0.77076 0.81846 0.71963 0.0
H676 H 0.86321 0.88663 0.73707 0.0
H677 H 0.89628 0.88078 0.75321 0.0
H678 H 0.89527 0.79834 0.78268 0.0
H679 H 0.80658 0.72711 0.76457 0.0
H680 H 0.7755 0.73138 0.74795 0.0
H681 H 0.01478 0.01677 0.76663 0.0
H682 H 0.0203 0.97444 0.7598 0.0
H683 H 0.0448 0.98314 0.77191 0.0
C684 C 0.65754 0.59318 0.0657 0.0
C685 C 0.68237 0.58308 0.05632 0.0
C686 C 0.63905 0.58225 0.0416 0.0
C687 C 0.62246 0.54969 0.04444 0.0
C688 C 0.5916 0.5377 0.03918 0.0
C689 C 0.57682 0.55861 0.0309 0.0
C690 C 0.59373 0.59097 0.02785 0.0
C691 C 0.62478 0.60227 0.03321 0.0
C692 C 0.57455 0.50274 0.04254 0.0
C693 C 0.57883 0.61364 0.01897 0.0
C694 C 0.28756 0.59957 0.05051 0.0
C695 C 0.3203 0.60029 0.04368 0.0
C696 C 0.37752 0.56867 0.04157 0.0
C697 C 0.3893 0.58852 0.03268 0.0
C698 C 0.42266 0.58134 0.02786 0.0
C699 C 0.44439 0.55344 0.03189 0.0
C700 C 0.43269 0.53361 0.04087 0.0
C701 C 0.39944 0.54164 0.04561 0.0
C702 C 0.43442 0.60308 0.01832 0.0
C703 C 0.4551 0.50362 0.04538 0.0
C704 C 0.37453 0.40871 0.98339 0.0
C705 C 0.38899 0.43866 0.97815 0.0
C706 C 0.42442 0.44955 0.98006 0.0
C707 C 0.44566 0.43002 0.98734 0.0
C708 C 0.43204 0.39815 0.99193 0.0
C709 C 0.39662 0.38772 0.98981 0.0
C710 C 0.43852 0.48299 0.97475 0.0
C711 C 0.45419 0.37634 -0.00042 0.0
C712 C 0.72294 0.40748 0.98881 0.0
C713 C 0.70727 0.38905 0.9789 0.0
C714 C 0.64742 0.41717 0.97803 0.0
C715 C 0.62751 0.44387 0.97298 0.0
C716 C 0.59337 0.45381 0.97675 0.0
C717 C 0.5787 0.43628 0.98576 0.0
C718 C 0.59796 0.40811 0.99064 0.0
C719 C 0.63216 0.39888 0.98676 0.0
C720 C 0.57344 0.48378 0.97132 0.0
C721 C 0.58279 0.38845 0.00017 0.0
C722 C 0.54339 0.54656 0.0256 0.0
C723 C 0.51061 0.55662 0.03022 0.0
C724 C 0.47819 0.54333 0.0263 0.0
C725 C 0.47828 0.51946 0.01748 0.0
C726 C 0.44621 0.50495 0.01351 0.0
C727 C 0.44653 0.48105 0.00496 0.0
C728 C 0.47895 0.47059 4e-05 0.0
C729 C 0.47947 0.44586 0.99142 0.0
C730 C 0.51218 0.43548 0.98683 0.0
C731 C 0.54464 0.44927 0.99064 0.0
C732 C 0.54457 0.47432 0.99918 0.0
C733 C 0.57667 0.48882 0.00318 0.0
C734 C 0.57638 0.51265 0.01178 0.0
C735 C 0.54395 0.52314 0.01667 0.0
C736 C 0.51126 0.5094 0.01264 0.0
C737 C 0.51159 0.48489 0.00391 0.0
C738 C 0.29121 0.42064 0.99338 0.0
C739 C 0.31077 0.42326 0.98263 0.0
O740 O 0.66833 0.59546 0.04678 0.0
O741 O 0.68118 0.41048 0.97431 0.0
O742 O 0.33945 0.3995 0.98249 0.0
O743 O 0.34535 0.57453 0.04645 0.0
H744 H 0.68532 0.55341 0.05593 0.0
H745 H 0.63084 0.58046 0.06479 0.0
H746 H 0.65375 0.62274 0.06612 0.0
H747 H 0.66909 0.58381 0.07336 0.0
H748 H 0.63311 0.53343 0.0508 0.0
H749 H 0.63775 0.62719 0.031 0.0
H750 H 0.547 0.50789 0.04557 0.0
H751 H 0.59 0.48895 0.04887 0.0
H752 H 0.57235 0.48446 0.03554 0.0
H753 H 0.59521 0.63803 0.01749 0.0
H754 H 0.55099 0.62195 0.02099 0.0
H755 H 0.57766 0.59756 0.01149 0.0
H756 H 0.33221 0.6275 0.04258 0.0
H757 H 0.28768 0.62597 0.05492 0.0
H758 H 0.29428 0.58321 0.05778 0.0
H759 H 0.24689 0.58515 0.03988 0.0
H760 H 0.37255 0.60941 0.0294 0.0
H761 H 0.39017 0.52653 0.05247 0.0
H762 H 0.43497 0.58562 0.01111 0.0
H763 H 0.46203 0.61341 0.01954 0.0
H764 H 0.41623 0.62609 0.0168 0.0
H765 H 0.44124 0.48939 0.052 0.0
H766 H 0.48066 0.51477 0.04843 0.0
H767 H 0.46184 0.48389 0.039 0.0
H768 H 0.32008 0.45153 0.98194 0.0
H769 H 0.3725 0.45386 0.9727 0.0
H770 H 0.38544 0.3641 0.99359 0.0
H771 H 0.44063 0.5048 0.98079 0.0
H772 H 0.42078 0.49224 0.96822 0.0
H773 H 0.46582 0.4781 0.97145 0.0
H774 H 0.44065 0.35098 0.00191 0.0
H775 H 0.4594 0.39239 0.0069 0.0
H776 H 0.48056 0.36977 0.99589 0.0
H777 H 0.69536 0.36285 0.98124 0.0
H778 H 0.7445 0.39066 0.99229 0.0
H779 H 0.70192 0.4114 0.99502 0.0
H780 H 0.7342 0.43416 0.98672 0.0
H781 H 0.63928 0.45762 0.9662 0.0
H782 H 0.64682 0.37776 0.99069 0.0
H783 H 0.5691 0.50621 0.97706 0.0
H784 H 0.54664 0.47417 0.96875 0.0
H785 H 0.58813 0.49417 0.96423 0.0
H786 H 0.5994 0.36493 0.00241 0.0
H787 H 0.55512 0.37914 0.99845 0.0
H788 H 0.58126 0.40703 0.00711 0.0
H789 H 0.51039 0.57427 0.03714 0.0
H790 H 0.42042 0.51174 0.01698 0.0
H791 H 0.42092 0.47075 0.00233 0.0
H792 H 0.51241 0.41621 0.98031 0.0
H793 H 0.60248 0.48175 -0.00024 0.0
H794 H 0.60192 0.52271 0.01456 0.0
H795 H 0.26766 0.43892 0.99355 0.0
H796 H 0.30962 0.42867 -9e-05 0.0
H797 H 0.28202 0.39276 0.9949 0.0
C798 C 0.95371 0.65317 0.47838 0.0
C799 C 0.96683 0.63479 0.46809 0.0
C800 C 0.00194 0.58212 0.47377 0.0
C801 C 0.00277 0.54467 0.47357 0.0
C802 C 0.03237 0.52565 0.47744 0.0
C803 C 0.06166 0.5447 0.48182 0.0
C804 C 0.06101 0.58265 0.48211 0.0
C805 C 0.03122 0.60104 0.47803 0.0
C806 C 0.03237 0.48518 0.47682 0.0
C807 C 0.09174 0.60371 0.48679 0.0
C808 C 0.33619 0.44726 0.45951 0.0
C809 C 0.31213 0.47951 0.462 0.0
C810 C 0.24682 0.48219 0.46346 0.0
C811 C 0.24517 0.51124 0.47065 0.0
C812 C 0.2136 0.51864 0.47639 0.0
C813 C 0.18322 0.49649 0.47493 0.0
C814 C 0.1841 0.46871 0.46719 0.0
C815 C 0.21594 0.46212 0.46148 0.0
C816 C 0.21315 0.54919 0.48435 0.0
C817 C 0.15196 0.44496 0.46534 0.0
C818 C 0.23734 0.35834 0.52832 0.0
C819 C 0.24073 0.39479 0.53105 0.0
C820 C 0.21176 0.41847 0.52983 0.0
C821 C 0.17899 0.40544 0.52569 0.0
C822 C 0.17497 0.36836 0.52352 0.0
C823 C 0.20418 0.34521 0.52499 0.0
C824 C 0.21657 0.45765 0.53255 0.0
C825 C 0.14029 0.35343 0.51922 0.0
C826 C 0.92125 0.51652 0.54675 0.0
C827 C 0.93627 0.47951 0.54953 0.0
C828 C 0.00114 0.47508 0.54706 0.0
C829 C 0.03095 0.49756 0.5479 0.0
C830 C 0.06157 0.49189 0.54153 0.0
C831 C 0.06232 0.46272 0.53426 0.0
C832 C 0.03303 0.43867 0.53382 0.0
C833 C 0.00282 0.44492 0.5403 0.0
C834 C 0.09265 0.51763 0.54233 0.0
C835 C 0.03339 0.40679 0.52634 0.0
C836 C 0.09305 0.52477 0.48596 0.0
C837 C 0.12275 0.5204 0.4792 0.0
C838 C 0.15216 0.49983 0.48232 0.0
C839 C 0.15193 0.4826 0.49236 0.0
C840 C 0.18042 0.46037 0.49551 0.0
C841 C 0.17987 0.4433 0.50535 0.0
C842 C 0.15108 0.44821 0.51252 0.0
C843 C 0.15031 0.43089 0.52256 0.0
C844 C 0.12137 0.43646 0.52952 0.0
C845 C 0.09273 0.45861 0.52666 0.0
C846 C 0.09279 0.47576 0.51659 0.0
C847 C 0.0641 0.49769 0.51338 0.0
C848 C 0.06416 0.51392 0.50339 0.0
C849 C 0.09297 0.50899 0.49623 0.0
C850 C 0.1224 0.48752 0.49938 0.0
C851 C 0.12216 0.47062 0.50953 0.0
C852 C 0.31949 0.3155 0.52039 0.0
C853 C 0.30127 0.34409 0.52735 0.0
O854 O 0.97226 0.59851 0.46984 0.0
O855 O 0.97143 0.48313 0.55292 0.0
O856 O 0.26543 0.33519 0.52864 0.0
O857 O 0.27774 0.47228 0.45847 0.0
H858 H 0.9923 0.64755 0.46541 0.0
H859 H 0.97408 0.65073 0.48476 0.0
H860 H 0.92841 0.6407 0.48127 0.0
H861 H 0.94895 0.68218 0.47693 0.0
H862 H 0.98008 0.53032 0.47028 0.0
H863 H 0.03102 0.63004 0.4783 0.0
H864 H 0.05729 0.47555 0.47283 0.0
H865 H 0.0089 0.47458 0.47238 0.0
H866 H 0.03186 0.47392 0.48501 0.0
H867 H 0.08613 0.63298 0.48712 0.0
H868 H 0.11626 0.59923 0.48188 0.0
H869 H 0.09748 0.59412 0.49499 0.0
H870 H 0.31221 0.48267 0.47086 0.0
H871 H 0.36398 0.45246 0.46227 0.0
H872 H 0.33676 0.44146 0.45079 0.0
H873 H 0.32584 0.42317 0.46371 0.0
H874 H 0.26857 0.52785 0.47192 0.0
H875 H 0.21732 0.44019 0.45578 0.0
H876 H 0.18886 0.56597 0.48322 0.0
H877 H 0.2373 0.56648 0.48364 0.0
H878 H 0.212 0.53818 0.49257 0.0
H879 H 0.15651 0.4254 0.45874 0.0
H880 H 0.12822 0.46166 0.46341 0.0
H881 H 0.14561 0.42995 0.47276 0.0
H882 H 0.30386 0.36988 0.52293 0.0
H883 H 0.266 0.40488 0.53404 0.0
H884 H 0.2017 0.31691 0.52309 0.0
H885 H 0.21736 0.47351 0.52507 0.0
H886 H 0.24173 0.46267 0.53702 0.0
H887 H 0.19348 0.46745 0.53739 0.0
H888 H 0.14163 0.32399 0.51784 0.0
H889 H 0.13361 0.36676 0.51157 0.0
H890 H 0.11817 0.35919 0.52495 0.0
H891 H 0.93461 0.46325 0.54208 0.0
H892 H 0.89275 0.51425 0.54429 0.0
H893 H 0.93681 0.52807 0.53999 0.0
H894 H 0.92311 0.53521 0.55366 0.0
H895 H 0.02968 0.52031 0.55332 0.0
H896 H 0.98065 0.4262 0.54007 0.0
H897 H 0.0958 0.53219 0.53467 0.0
H898 H 0.11788 0.50257 0.54373 0.0
H899 H 0.08889 0.53759 0.54887 0.0
H900 H 0.00856 0.39046 0.52699 0.0
H901 H 0.05679 0.38946 0.52812 0.0
H902 H 0.03634 0.41611 0.51797 0.0
H903 H 0.12282 0.53283 0.47138 0.0
H904 H 0.20339 0.45558 0.49036 0.0
H905 H 0.20244 0.42628 0.50725 0.0
H906 H 0.12089 0.42301 0.53719 0.0
H907 H 0.04113 0.50242 0.51853 0.0
H908 H 0.04132 0.53041 0.50134 0.0
H909 H 0.31735 0.28861 0.52414 0.0
H910 H 0.34828 0.32215 0.51918 0.0
H911 H 0.30643 0.31437 0.51244 0.0
C912 C 0.10974 0.70232 0.14539 0.0
C913 C 0.97641 0.66216 0.143 0.0
C914 C 0.97843 0.71626 0.11253 0.0
Mg915 Mg 0.15078 0.77004 0.13502 0.0
Mg916 Mg 0.11111 0.84131 0.12445 0.0
O917 O 0.11252 0.79148 0.12585 0.0
Mg918 Mg 0.07124 0.7619 0.13084 0.0
O919 O 0.03274 0.72887 0.13582 0.0
Mg920 Mg 0.04763 0.68501 0.1276 0.0
Mg921 Mg 0.98415 0.74158 0.13577 0.0
C922 C 0.0369 0.82146 0.11379 0.0
O923 O 0.049 0.80319 0.14301 0.0
O924 O 0.19142 0.8032 0.12498 0.0
O925 O 0.98934 0.7929 0.14414 0.0
O926 O 0.14628 0.81711 0.14772 0.0
O927 O 0.16293 0.84882 0.11698 0.0
O928 O 0.11272 0.86026 0.14041 0.0
O929 O 0.09101 0.71915 0.11908 0.0
O930 O 0.1498 0.72555 0.12231 0.0
C931 C 0.12384 0.70982 0.11746 0.0
C932 C 0.19127 0.83024 0.11864 0.0
O933 O 0.03699 0.7901 0.11804 0.0
O934 O 0.00466 0.65458 0.1375 0.0
O935 O 0.06102 0.8452 0.1157 0.0
O936 O 0.0049 0.69508 0.11429 0.0
O937 O 0.96396 0.69419 0.1437 0.0
O938 O 0.96791 0.73915 0.11949 0.0
O939 O 0.1072 0.73601 0.14333 0.0
O940 O 0.08939 0.67923 0.14078 0.0
C941 C 0.12993 0.84746 0.14829 0.0
C942 C 0.0175 0.81099 0.14657 0.0
C943 C 0.61928 0.7984 0.39188 0.0
C944 C 0.68756 0.6784 0.39061 0.0
C945 C 0.62703 0.65967 0.36113 0.0
Mg946 Mg 0.54295 0.8226 0.38249 0.0
Mg947 Mg 0.47846 0.76644 0.37499 0.0
O948 O 0.52721 0.77842 0.37466 0.0
Mg949 Mg 0.56612 0.74536 0.37925 0.0
O950 O 0.60819 0.71606 0.38371 0.0
Mg951 Mg 0.6462 0.73781 0.37434 0.0
Mg952 Mg 0.60774 0.66631 0.38494 0.0
C953 C 0.51132 0.69666 0.36401 0.0
O954 O 0.53251 0.71658 0.39239 0.0
O955 O 0.49975 0.85318 0.37287 0.0
O956 O 0.55811 0.66187 0.39388 0.0
O957 O 0.50113 0.81348 0.39615 0.0
O958 O 0.45892 0.81369 0.36686 0.0
O959 O 0.46283 0.77009 0.39146 0.0
O960 O 0.60153 0.77096 0.36636 0.0
O961 O 0.58369 0.82775 0.36889 0.0
C962 C 0.60371 0.80452 0.36415 0.0
C963 C 0.47153 0.84566 0.36746 0.0
O964 O 0.54294 0.70423 0.36739 0.0
O965 O 0.68786 0.70525 0.3842 0.0
O966 O 0.48333 0.71498 0.36662 0.0
O967 O 0.64224 0.69059 0.36165 0.0
O968 O 0.65918 0.65988 0.39235 0.0
O969 O 0.61014 0.6465 0.36907 0.0
O970 O 0.58656 0.7883 0.39074 0.0
O971 O 0.64528 0.783 0.38686 0.0
C972 C 0.47439 0.79298 0.39824 0.0
C973 C 0.5334 0.68462 0.39626 0.0
C974 C 0.60808 0.2071 0.64971 0.0
C975 C 0.48152 0.15198 0.6465 0.0
C976 C 0.47662 0.2089 0.61659 0.0
Mg977 Mg 0.6435 0.27923 0.64016 0.0
Mg978 Mg 0.59735 0.34879 0.631 0.0
O979 O 0.60265 0.29915 0.63163 0.0
Mg980 Mg 0.56388 0.2649 0.63577 0.0
O981 O 0.52892 0.22669 0.63989 0.0
Mg982 Mg 0.54906 0.18563 0.63135 0.0
Mg983 Mg 0.47921 0.23214 0.64022 0.0
C984 C 0.52558 0.32459 0.61942 0.0
O985 O 0.53553 0.30191 0.64818 0.0
O986 O 0.68124 0.3173 0.63049 0.0
O987 O 0.47814 0.28234 0.64915 0.0
O988 O 0.63675 0.32372 0.65347 0.0
O989 O 0.64771 0.36145 0.62354 0.0
O990 O 0.6004 0.36635 0.64717 0.0
O991 O 0.58822 0.22604 0.62349 0.0
O992 O 0.64624 0.23668 0.62695 0.0
C993 C 0.62168 0.21967 0.62187 0.0
C994 C 0.67785 0.34551 0.62471 0.0
O995 O 0.52768 0.29259 0.62324 0.0
O996 O 0.50988 0.14846 0.6407 0.0
O997 O 0.54786 0.34962 0.62184 0.0
O998 O 0.50625 0.19208 0.61795 0.0
O999 O 0.46586 0.18229 0.64782 0.0
O1000 O 0.46249 0.22797 0.62399 0.0
O1001 O 0.60247 0.2407 0.64808 0.0
O1002 O 0.59038 0.18294 0.64466 0.0
C1003 C 0.61942 0.3533 0.65466 0.0
C1004 C 0.50308 0.30452 0.65172 0.0
C1005 C 0.11371 0.30148 0.89314 0.0
C1006 C 0.17267 0.17657 0.89361 0.0
C1007 C 0.11673 0.15954 0.8638 0.0
Mg1008 Mg 0.04192 0.33201 0.88226 0.0
Mg1009 Mg 0.97384 0.28246 0.87382 0.0
O1010 O 0.02334 0.28839 0.8747 0.0
Mg1011 Mg 0.05809 0.25186 0.88006 0.0
O1012 O 0.09694 0.21955 0.88528 0.0
Mg1013 Mg 0.1383 0.23755 0.87642 0.0
Mg1014 Mg 0.09269 0.1703 0.88725 0.0
C1015 C 0.00027 0.20764 0.86427 0.0
O1016 O 0.021 0.22723 0.89312 0.0
O1017 O 0.00374 0.36631 0.8717 0.0
O1018 O 0.04183 0.17109 0.89589 0.0
O1019 O 0.99704 0.32837 0.89541 0.0
O1020 O 0.96114 0.33021 0.86502 0.0
O1021 O 0.95502 0.28988 0.8898 0.0
O1022 O 0.09759 0.27296 0.86748 0.0
O1023 O 0.08501 0.33149 0.86918 0.0
C1024 C 0.10324 0.30584 0.86493 0.0
C1025 C 0.97627 0.36097 0.86575 0.0
O1026 O 0.03186 0.2112 0.86828 0.0
O1027 O 0.17591 0.20254 0.88695 0.0
O1028 O 0.97484 0.23033 0.86594 0.0
O1029 O 0.13333 0.18971 0.86422 0.0
O1030 O 0.14255 0.16107 0.89537 0.0
O1031 O 0.09765 0.14827 0.8716 0.0
O1032 O 0.0805 0.29428 0.89147 0.0
O1033 O 0.13905 0.28353 0.88861 0.0
C1034 C 0.96755 0.31123 0.89686 0.0
C1035 C 0.01893 0.19627 0.89765 0.0
H1036 H 0.17801 0.88422 0.45208 0.0
H1037 H 0.23711 0.84324 0.44314 0.0
H1038 H 0.32452 0.9397 0.45298 0.0
H1039 H 0.26804 0.98295 0.46238 0.0
H1040 H 0.28453 0.8599 0.42827 0.0
H1041 H 0.37837 0.85008 0.46204 0.0
H1042 H 0.33296 0.86599 0.46369 0.0
H1043 H 0.36783 0.89593 0.45919 0.0
C1044 C 0.20499 0.89487 0.45196 0.0
C1045 C 0.218 0.935 0.45997 0.0
C1046 C 0.24214 0.86882 0.44696 0.0
C1047 C 0.28751 0.88547 0.44795 0.0
C1048 C 0.29739 0.92955 0.45324 0.0
H1049 H 0.47899 0.84956 0.41222 0.0
H1050 H 0.43464 0.86681 0.42576 0.0
C1051 C 0.26216 0.9577 0.45847 0.0
C1052 C 0.31634 0.86535 0.44247 0.0
H1053 H 0.40367 0.83863 0.44448 0.0
C1054 C 0.31034 0.85461 0.43189 0.0
C1055 C 0.3501 0.85888 0.44717 0.0
C1056 C 0.35754 0.86805 0.45869 0.0
C1057 C 0.33768 0.83911 0.42567 0.0
C1058 C 0.37177 0.83321 0.43028 0.0
C1059 C 0.37753 0.84309 0.44097 0.0
C1060 C 0.40215 0.81917 0.4238 0.0
C1061 C 0.33028 0.83094 0.41406 0.0
C1062 C 0.39966 0.78575 0.41865 0.0
C1063 C 0.42464 0.77604 0.41079 0.0
C1064 C 0.453 0.79928 0.4081 0.0
C1065 C 0.45739 0.8311 0.41404 0.0
C1066 C 0.43207 0.84102 0.4218 0.0
H1067 H 0.30574 0.8447 0.4112 0.0
H1068 H 0.3532 0.83918 0.40892 0.0
H1069 H 0.32627 0.80163 0.41304 0.0
H1070 H 0.37726 0.76806 0.42028 0.0
H1071 H 0.42066 0.75113 0.40647 0.0
H1072 H 0.35041 0.87153 0.69491 0.0
H1073 H 0.37428 0.91302 0.6815 0.0
H1074 H 0.4109 0.98344 0.70662 0.0
H1075 H 0.38779 0.94171 0.72004 0.0
H1076 H 0.35581 0.98283 0.67812 0.0
H1077 H 0.50007 0.97352 0.68796 0.0
H1078 H 0.46742 0.94165 0.6928 0.0
H1079 H 0.47275 0.98436 0.69938 0.0
C1080 C 0.36411 0.89558 0.69755 0.0
C1081 C 0.3681 0.90302 0.70851 0.0
C1082 C 0.37757 0.91929 0.6899 0.0
C1083 C 0.39506 0.95088 0.69307 0.0
C1084 C 0.39844 0.95869 0.704 0.0
H1085 H 0.42525 0.1497 0.6606 0.0
H1086 H 0.4039 0.09835 0.6708 0.0
C1087 C 0.38511 0.93496 0.71165 0.0
C1088 C 0.40827 0.9766 0.68498 0.0
H1089 H 0.48246 0.02348 0.67722 0.0
C1090 C 0.38358 0.99144 0.67783 0.0
C1091 C 0.44462 0.98731 0.6845 0.0
C1092 C 0.47283 0.97061 0.6915 0.0
C1093 C 0.39399 0.01787 0.6705 0.0
C1094 C 0.42986 0.03021 0.67049 0.0
C1095 C 0.45487 0.01427 0.67732 0.0
C1096 C 0.44168 0.06074 0.66382 0.0
C1097 C 0.36646 0.03234 0.66286 0.0
C1098 C 0.47049 0.0568 0.65664 0.0
C1099 C 0.48307 0.08626 0.65085 0.0
C1100 C 0.46715 0.12025 0.65219 0.0
C1101 C 0.43804 0.12393 0.65932 0.0
C1102 C 0.42559 0.09451 0.66511 0.0
H1103 H 0.34442 0.01278 0.66154 0.0
H1104 H 0.35445 0.05713 0.66628 0.0
H1105 H 0.37878 0.03904 0.65502 0.0
H1106 H 0.48341 0.03097 0.65558 0.0
H1107 H 0.50555 0.08245 0.64544 0.0
H1108 H 0.46951 0.05421 0.93315 0.0
H1109 H 0.42464 0.08936 0.92356 0.0
H1110 H 0.34511 0.06132 0.94727 0.0
H1111 H 0.39018 0.02739 0.95709 0.0
H1112 H 0.36533 0.06576 0.91444 0.0
H1113 H 0.32676 0.16678 0.9449 0.0
H1114 H 0.36614 0.13902 0.94622 0.0
H1115 H 0.32262 0.12207 0.94997 0.0
C1116 C 0.44271 0.0564 0.93647 0.0
C1117 C 0.43357 0.0389 0.94604 0.0
C1118 C 0.41704 0.0763 0.93095 0.0
C1119 C 0.38167 0.07872 0.93482 0.0
C1120 C 0.37246 0.06096 0.94432 0.0
H1121 H 0.1749 0.12957 0.91031 0.0
H1122 H 0.22762 0.10873 0.91998 0.0
C1123 C 0.39817 0.04141 0.94989 0.0
C1124 C 0.35369 0.0973 0.92852 0.0
H1125 H 0.28517 0.15796 0.93047 0.0
C1126 C 0.34821 0.08635 0.91789 0.0
C1127 C 0.33136 0.12425 0.93301 0.0
C1128 C 0.33726 0.13898 0.94411 0.0
C1129 C 0.32013 0.10053 0.91181 0.0
C1130 C 0.29699 0.12627 0.91647 0.0
C1131 C 0.30293 0.138 0.92697 0.0
C1132 C 0.26537 0.13994 0.91072 0.0
C1133 C 0.31448 0.08709 0.90056 0.0
C1134 C 0.26929 0.1646 0.90237 0.0
C1135 C 0.23918 0.17674 0.89683 0.0
C1136 C 0.20468 0.16421 0.89953 0.0
C1137 C 0.20101 0.13964 0.90797 0.0
C1138 C 0.23107 0.12777 0.91354 0.0
H1139 H 0.33273 0.06453 0.89846 0.0
H1140 H 0.28632 0.07809 0.89954 0.0
H1141 H 0.31933 0.10931 0.89485 0.0
H1142 H 0.29563 0.17436 0.90013 0.0
H1143 H 0.243 0.19567 0.89039 0.0
H1144 H 0.23424 0.12855 0.19478 0.0
H1145 H 0.22909 0.06691 0.18821 0.0
H1146 H 0.12893 0.05496 0.20523 0.0
H1147 H 0.13474 0.11629 0.21223 0.0
H1148 H 0.1703 0.99083 0.20446 0.0
H1149 H 0.15545 0.05292 0.16449 0.0
H1150 H 0.19664 0.06428 0.17102 0.0
H1151 H 0.15459 0.07892 0.17667 0.0
C1152 C 0.21143 0.11261 0.19728 0.0
C1153 C 0.18427 0.12766 0.20372 0.0
C1154 C 0.20851 0.07741 0.19351 0.0
C1155 C 0.17814 0.05675 0.19599 0.0
C1156 C 0.15241 0.0706 0.20313 0.0
H1157 H 0.08672 0.90309 0.15381 0.0
H1158 H 0.09861 0.95005 0.16676 0.0
C1159 C 0.1556 0.10572 0.20705 0.0
C1160 C 0.17129 0.02272 0.19016 0.0
H1161 H 0.15752 0.9899 0.16505 0.0
C1162 C 0.16759 0.99047 0.19584 0.0
C1163 C 0.16707 0.0225 0.17893 0.0
C1164 C 0.16828 0.05651 0.17241 0.0
C1165 C 0.15998 0.95792 0.19054 0.0
C1166 C 0.15646 0.95776 0.17929 0.0
C1167 C 0.1604 0.99001 0.17367 0.0
C1168 C 0.14645 0.92533 0.17306 0.0
C1169 C 0.15439 0.92434 0.19701 0.0
C1170 C 0.16899 0.89511 0.17243 0.0
C1171 C 0.1623 0.86788 0.1649 0.0
C1172 C 0.13322 0.87085 0.15785 0.0
C1173 C 0.10956 0.90001 0.15904 0.0
C1174 C 0.11618 0.92689 0.16651 0.0
H1175 H 0.15017 0.93046 0.20562 0.0
H1176 H 0.13094 0.90899 0.19402 0.0
H1177 H 0.17844 0.90696 0.19622 0.0
H1178 H 0.19289 0.89361 0.17727 0.0
H1179 H 0.18114 0.84588 0.16413 0.0
H1180 H 0.25416 0.05998 0.55329 0.0
H1181 H 0.30149 0.07927 0.56556 0.0
H1182 H 0.29885 0.18536 0.55197 0.0
H1183 H 0.25183 0.16613 0.53961 0.0
H1184 H 0.36898 0.15792 0.55506 0.0
H1185 H 0.28402 0.1456 0.59149 0.0
H1186 H 0.28648 0.10583 0.58335 0.0
H1187 H 0.26551 0.14552 0.5782 0.0
C1188 C 0.26349 0.08749 0.553 0.0
C1189 C 0.24864 0.11186 0.54571 0.0
C1190 C 0.2905 0.09845 0.55999 0.0
C1191 C 0.3032 0.1339 0.55978 0.0
C1192 C 0.28921 0.15796 0.5523 0.0
H1193 H 0.41312 0.23995 0.61112 0.0
H1194 H 0.37423 0.22408 0.59632 0.0
C1195 C 0.26222 0.14703 0.54531 0.0
C1196 C 0.33062 0.14615 0.56748 0.0
H1197 H 0.34522 0.15907 0.59408 0.0
C1198 C 0.36386 0.15828 0.5636 0.0
C1199 C 0.32367 0.14683 0.57859 0.0
C1200 C 0.2879 0.13556 0.58319 0.0
C1201 C 0.39049 0.17094 0.57056 0.0
C1202 C 0.38372 0.1711 0.5817 0.0
C1203 C 0.35041 0.15897 0.58554 0.0
C1204 C 0.41019 0.18423 0.58961 0.0
C1205 C 0.42531 0.18444 0.5659 0.0
C1206 C 0.44398 0.16792 0.59059 0.0
C1207 C 0.46674 0.17743 0.599 0.0
C1208 C 0.45583 0.20305 0.60666 0.0
C1209 C 0.42258 0.22027 0.60537 0.0
C1210 C 0.40011 0.21105 0.59693 0.0
H1211 H 0.42197 0.19336 0.5575 0.0
H1212 H 0.43623 0.20704 0.57065 0.0
H1213 H 0.44527 0.16234 0.56592 0.0
H1214 H 0.4521 0.14671 0.58515 0.0
H1215 H 0.49205 0.16346 0.59978 0.0
H1216 H 0.23171 0.88268 0.81423 0.0
H1217 H 0.22732 0.94383 0.82129 0.0
H1218 H 0.12348 0.95562 0.80675 0.0
H1219 H 0.12858 0.89516 0.79916 0.0
H1220 H 0.16177 0.01963 0.80705 0.0
H1221 H 0.16162 0.95512 0.84699 0.0
H1222 H 0.20131 0.94655 0.83922 0.0
H1223 H 0.15874 0.92953 0.83478 0.0
C1224 C 0.20815 0.89848 0.81241 0.0
C1225 C 0.1797 0.88346 0.80659 0.0
C1226 C 0.20567 0.93339 0.81646 0.0
C1227 C 0.1745 0.95375 0.81488 0.0
C1228 C 0.14753 0.94013 0.80822 0.0
H1229 H 0.08244 0.09645 0.86007 0.0
H1230 H 0.0963 0.0513 0.84672 0.0
C1231 C 0.15029 0.9054 0.804 0.0
C1232 C 0.16823 0.98718 0.8211 0.0
H1233 H 0.15848 0.0179 0.84665 0.0
C1234 C 0.16109 0.01939 0.81571 0.0
C1235 C 0.16703 0.98668 0.8324 0.0
C1236 C 0.17224 0.9526 0.8387 0.0
C1237 C 0.15235 0.05105 0.82135 0.0
C1238 C 0.15121 0.0504 0.83265 0.0
C1239 C 0.15926 0.01838 0.83799 0.0
C1240 C 0.13927 0.08139 0.83929 0.0
C1241 C 0.14356 0.08447 0.81516 0.0
C1242 C 0.15783 0.11423 0.83932 0.0
C1243 C 0.14917 0.14092 0.84687 0.0
C1244 C 0.12228 0.13483 0.8546 0.0
C1245 C 0.10301 0.10243 0.85421 0.0
C1246 C 0.11113 0.07631 0.8466 0.0
H1247 H 0.13583 0.07813 0.8068 0.0
H1248 H 0.12147 0.0997 0.81904 0.0
H1249 H 0.16757 0.10203 0.81491 0.0
H1250 H 0.18005 0.11858 0.83387 0.0
H1251 H 0.16477 0.16543 0.847 0.0
H1252 H 0.47384 0.87413 0.0572 0.0
H1253 H 0.42832 0.88374 0.07111 0.0
H1254 H 0.362 0.80219 0.05672 0.0
H1255 H 0.40619 0.79395 0.04254 0.0
H1256 H 0.32289 0.85733 0.06253 0.0
H1257 H 0.41075 0.82111 0.09646 0.0
H1258 H 0.42701 0.85817 0.08874 0.0
H1259 H 0.42411 0.81429 0.08274 0.0
C1260 C 0.44966 0.85802 0.05708 0.0
C1261 C 0.44449 0.83212 0.04903 0.0
C1262 C 0.42375 0.86344 0.06506 0.0
C1263 C 0.39224 0.84284 0.06518 0.0
C1264 C 0.38636 0.81801 0.0569 0.0
H1265 H 0.24893 0.78628 0.11549 0.0
H1266 H 0.29849 0.79451 0.10298 0.0
C1267 C 0.41193 0.81303 0.04883 0.0
C1268 C 0.36499 0.84714 0.07381 0.0
H1269 H 0.35215 0.8405 0.10077 0.0
C1270 C 0.3293 0.85376 0.0709 0.0
C1271 C 0.37337 0.8423 0.08473 0.0
C1272 C 0.4108 0.83324 0.08837 0.0
C1273 C 0.30158 0.85456 0.07854 0.0
C1274 C 0.30997 0.84992 0.08946 0.0
C1275 C 0.34582 0.84436 0.09241 0.0
C1276 C 0.28164 0.84722 0.09782 0.0
C1277 C 0.26345 0.85852 0.07472 0.0
C1278 C 0.25624 0.87463 0.09937 0.0
C1279 C 0.2274 0.86977 0.10643 0.0
C1280 C 0.22393 0.8377 0.11223 0.0
C1281 C 0.25071 0.81132 0.11116 0.0
C1282 C 0.27914 0.81598 0.10399 0.0
H1283 H 0.26104 0.8528 0.06604 0.0
H1284 H 0.24515 0.84021 0.07911 0.0
H1285 H 0.25436 0.88651 0.07613 0.0
H1286 H 0.25821 0.89944 0.09494 0.0
H1287 H 0.20747 0.89079 0.10717 0.0
H1288 H 0.3669 0.04974 0.29212 0.0
H1289 H 0.38961 0.00604 0.30497 0.0
H1290 H 0.35114 0.07225 0.33098 0.0
H1291 H 0.32776 0.11574 0.31815 0.0
H1292 H 0.4395 0.01447 0.32105 0.0
H1293 H 0.30699 0.97453 0.33761 0.0
H1294 H 0.31162 1.00009 0.32547 0.0
H1295 H 0.31587 0.02185 0.33824 0.0
C1296 C 0.3635 0.05505 0.30059 0.0
C1297 C 0.34602 0.08635 0.30414 0.0
C1298 C 0.37641 0.03008 0.30791 0.0
C1299 C 0.37171 0.03573 0.31892 0.0
C1300 C 0.35454 0.0671 0.32252 0.0
H1301 H 0.48696 0.91751 0.36786 0.0
H1302 H 0.46195 0.96443 0.35657 0.0
C1303 C 0.34153 0.09206 0.31519 0.0
C1304 C 0.38506 0.00878 0.32661 0.0
H1305 H 0.35832 0.9509 0.34617 0.0
C1306 C 0.42179 0.00057 0.32655 0.0
C1307 C 0.36178 0.9904 0.33367 0.0
C1308 C 0.32182 0.99684 0.33372 0.0
C1309 C 0.43594 0.97457 0.33342 0.0
C1310 C 0.4128 0.95679 0.34067 0.0
C1311 C 0.37603 0.96484 0.34068 0.0
C1312 C 0.42613 0.9289 0.34805 0.0
C1313 C 0.47539 0.96574 0.33265 0.0
C1314 C 0.41318 0.89363 0.34732 0.0
C1315 C 0.42715 0.86673 0.35383 0.0
C1316 C 0.45437 0.87464 0.36122 0.0
C1317 C 0.46631 0.91033 0.36219 0.0
C1318 C 0.4522 0.93721 0.3557 0.0
H1319 H 0.4873 0.97488 0.32497 0.0
H1320 H 0.48979 0.97947 0.33923 0.0
H1321 H 0.47997 0.93642 0.33341 0.0
H1322 H 0.39288 0.88672 0.3415 0.0
H1323 H 0.41724 0.83959 0.35288 0.0
H1324 H 0.79462 0.02275 0.55589 0.0
H1325 H 0.75147 0.04739 0.56876 0.0
H1326 H 0.74973 0.14709 0.55138 0.0
H1327 H 0.79395 0.12296 0.53871 0.0
H1328 H 0.75969 0.15864 0.57186 0.0
H1329 H 0.64526 0.06545 0.5676 0.0
H1330 H 0.68625 0.04203 0.57025 0.0
H1331 H 0.68172 0.067 0.55805 0.0
C1332 C 0.78475 0.0498 0.55476 0.0
C1333 C 0.79755 0.0709 0.54628 0.0
C1334 C 0.75977 0.06371 0.56205 0.0
C1335 C 0.74673 0.09883 0.56091 0.0
C1336 C 0.75913 0.11979 0.55235 0.0
H1337 H 0.58805 0.20286 0.60308 0.0
H1338 H 0.61511 0.17116 0.58774 0.0
C1339 C 0.78435 0.10601 0.54512 0.0
C1340 C 0.72302 0.11486 0.56921 0.0
H1341 H 0.6462 0.10128 0.5837 0.0
C1342 C 0.73465 0.14629 0.57434 0.0
C1343 C 0.69009 0.09907 0.57237 0.0
C1344 C 0.6749 0.06674 0.56669 0.0
C1345 C 0.71505 0.1616 0.58278 0.0
C1346 C 0.6834 0.14448 0.5864 0.0
C1347 C 0.67083 0.11393 0.58102 0.0
C1348 C 0.66406 0.15769 0.59601 0.0
C1349 C 0.72858 0.19594 0.58777 0.0
C1350 C 0.68184 0.15879 0.60583 0.0
C1351 C 0.66673 0.17704 0.61449 0.0
C1352 C 0.63326 0.194 0.61354 0.0
C1353 C 0.61391 0.19003 0.604 0.0
C1354 C 0.62934 0.17205 0.59525 0.0
H1355 H 0.74662 0.21079 0.58225 0.0
H1356 H 0.70602 0.21384 0.59012 0.0
H1357 H 0.74409 0.18943 0.59505 0.0
H1358 H 0.70829 0.14712 0.60664 0.0
H1359 H 0.68199 0.17924 0.62181 0.0
H1360 H 0.80134 0.95613 0.29037 0.0
H1361 H 0.76411 0.91043 0.29911 0.0
H1362 H 0.78814 0.95714 0.32984 0.0
H1363 H 0.82589 0.00227 0.32117 0.0
H1364 H 0.79275 0.88201 0.32949 0.0
H1365 H 0.66474 0.93045 0.31195 0.0
H1366 H 0.69982 0.91894 0.30264 0.0
H1367 H 0.70542 0.95659 0.31148 0.0
C1368 C 0.79838 0.95672 0.29898 0.0
C1369 C 0.81569 0.98327 0.30508 0.0
C1370 C 0.77719 0.93065 0.30396 0.0
C1371 C 0.77299 0.93074 0.3151 0.0
C1372 C 0.79094 0.9567 0.32122 0.0
H1373 H 0.6188 0.87407 0.3596 0.0
H1374 H 0.66106 0.89743 0.34661 0.0
C1375 C 0.81219 0.98264 0.31626 0.0
C1376 C 0.74923 0.90455 0.3205 0.0
H1377 H 0.66107 0.88326 0.32421 0.0
C1378 C 0.76399 0.8818 0.32824 0.0
C1379 C 0.71176 0.90444 0.31883 0.0
C1380 C 0.6943 0.92903 0.31084 0.0
C1381 C 0.74206 0.86018 0.33471 0.0
C1382 C 0.70451 0.86118 0.33331 0.0
C1383 C 0.68995 0.88247 0.3252 0.0
C1384 C 0.67955 0.84537 0.34122 0.0
C1385 C 0.75888 0.83815 0.34343 0.0
C1386 C 0.67609 0.80812 0.34257 0.0
C1387 C 0.65174 0.7944 0.35011 0.0
C1388 C 0.63052 0.81786 0.35634 0.0
C1389 C 0.63447 0.85509 0.35495 0.0
C1390 C 0.65864 0.86861 0.34749 0.0
H1391 H 0.78816 0.84307 0.34411 0.0
H1392 H 0.74592 0.84433 0.35124 0.0
H1393 H 0.75465 0.80922 0.34173 0.0
H1394 H 0.69186 0.78975 0.33773 0.0
H1395 H 0.64926 0.7656 0.35098 0.0
H1396 H 0.73117 0.85799 0.06637 0.0
H1397 H 0.79251 0.8378 0.0699 0.0
H1398 H 0.81596 0.93965 0.08482 0.0
H1399 H 0.75504 0.96031 0.08101 0.0
H1400 H 0.87173 0.91485 0.07209 0.0
H1401 H 0.82347 0.80787 0.09954 0.0
H1402 H 0.80684 0.80523 0.08614 0.0
H1403 H 0.79415 0.84239 0.09456 0.0
C1404 C 0.7496 0.87617 0.07029 0.0
C1405 C 0.73837 0.91062 0.07349 0.0
C1406 C 0.7845 0.86454 0.07236 0.0
C1407 C 0.80852 0.88697 0.07782 0.0
C1408 C 0.79778 0.92187 0.08064 0.0
H1409 H 0.00518 0.8867 0.11153 0.0
H1410 H 0.95238 0.90109 0.10087 0.0
C1411 C 0.76302 0.93361 0.07849 0.0
C1412 C 0.84432 0.87384 0.08105 0.0
H1413 H 0.88566 0.81403 0.09746 0.0
C1414 C 0.87484 0.89263 0.07757 0.0
C1415 C 0.84831 0.84465 0.08814 0.0
C1416 C 0.8165 0.82398 0.0924 0.0
C1417 C 0.90918 0.88361 0.08122 0.0
C1418 C 0.91292 0.85546 0.08866 0.0
C1419 C 0.88265 0.83566 0.09177 0.0
C1420 C 0.94731 0.84784 0.09404 0.0
C1421 C 0.94106 0.90444 0.07713 0.0
C1422 C 0.96187 0.81314 0.09377 0.0
C1423 C 0.99149 0.80466 0.10006 0.0
C1424 C 0.00721 0.8309 0.10662 0.0
C1425 C 0.99359 0.86603 0.10652 0.0
C1426 C 0.96362 0.87432 0.10037 0.0
H1427 H 0.93565 0.91627 0.06917 0.0
H1428 H 0.94687 0.9268 0.08275 0.0
H1429 H 0.96528 0.88717 0.07652 0.0
H1430 H 0.94982 0.79246 0.08886 0.0
H1431 H 0.00204 0.7776 0.09983 0.0
H1432 H 0.03102 0.96411 0.79182 0.0
H1433 H 0.02893 0.99844 0.80859 0.0
H1434 H 0.9365 0.05628 0.79731 0.0
H1435 H 0.93842 0.02199 0.78058 0.0
H1436 H 0.03496 0.07363 0.80975 0.0
H1437 H 0.90684 0.0273 0.82782 0.0
H1438 H 0.92971 0.00268 0.81734 0.0
H1439 H 0.9034 0.04157 0.81418 0.0
C1440 C 0.0099 0.9837 0.79303 0.0
C1441 C 0.98462 0.99016 0.78497 0.0
C1442 C 0.00875 0.00328 0.80257 0.0
C1443 C 0.98221 0.02946 0.80425 0.0
C1444 C 0.95668 0.03562 0.79628 0.0
H1445 H 0.94928 0.20413 0.84871 0.0
H1446 H 0.94317 0.15833 0.83477 0.0
C1447 C 0.9579 0.01616 0.78672 0.0
C1448 C 0.98302 0.05247 0.81392 0.0
H1449 H 0.93372 0.07915 0.83565 0.0
C1450 C 0.01299 0.07457 0.81547 0.0
C1451 C 0.95416 0.05382 0.8213 0.0
C1452 C 0.92181 0.02987 0.82016 0.0
C1453 C 0.0145 0.09872 0.82408 0.0
C1454 C 0.98569 0.10008 0.83146 0.0
C1455 C 0.95579 0.07784 0.82997 0.0
C1456 C 0.98622 0.12512 0.84065 0.0
C1457 C 0.04641 0.12342 0.82502 0.0
C1458 C 0.01162 0.12087 0.84875 0.0
C1459 C 0.01537 0.14706 0.85669 0.0
C1460 C 0.99357 0.17778 0.8567 0.0
C1461 C 0.96662 0.18082 0.84892 0.0
C1462 C 0.96304 0.15471 0.84095 0.0
H1463 H 0.0615 0.12537 0.81736 0.0
H1464 H 0.03796 0.15083 0.82748 0.0
H1465 H 0.06478 0.11294 0.8312 0.0
H1466 H 0.02903 0.09765 0.84873 0.0
H1467 H 0.03556 0.14355 0.86274 0.0
H1468 H 0.79121 0.94039 0.46979 0.0
H1469 H 0.73947 0.91677 0.46003 0.0
H1470 H 0.78491 0.95562 0.43049 0.0
H1471 H 0.83575 0.98058 0.44024 0.0
H1472 H 0.71365 0.96903 0.4317 0.0
H1473 H 0.74052 0.82667 0.44223 0.0
H1474 H 0.73378 0.85621 0.45343 0.0
H1475 H 0.77227 0.86201 0.44489 0.0
C1476 C 0.79001 0.94396 0.46122 0.0
C1477 C 0.81761 0.96217 0.45577 0.0
C1478 C 0.76058 0.93027 0.45565 0.0
C1479 C 0.75858 0.93392 0.44451 0.0
C1480 C 0.7859 0.95245 0.43908 0.0
H1481 H 0.67096 0.84859 0.38955 0.0
H1482 H 0.6958 0.88713 0.40348 0.0
C1483 C 0.81505 0.96651 0.44465 0.0
C1484 C 0.72862 0.91797 0.43836 0.0
H1485 H 0.69158 0.83781 0.43105 0.0
C1486 C 0.70853 0.94038 0.43166 0.0
C1487 C 0.72181 0.88058 0.43834 0.0
C1488 C 0.74337 0.85486 0.44503 0.0
C1489 C 0.68297 0.92622 0.42462 0.0
C1490 C 0.67735 0.88879 0.4243 0.0
C1491 C 0.69583 0.86659 0.43141 0.0
C1492 C 0.65719 0.87144 0.41555 0.0
C1493 C 0.66302 0.95117 0.4173 0.0
C1494 C 0.62665 0.85053 0.41767 0.0
C1495 C 0.61204 0.82877 0.40964 0.0
C1496 C 0.62849 0.82705 0.39952 0.0
C1497 C 0.65784 0.84946 0.3973 0.0
C1498 C 0.67193 0.87159 0.40523 0.0
H1499 H 0.66285 0.97913 0.42043 0.0
H1500 H 0.6764 0.95125 0.40936 0.0
H1501 H 0.63492 0.94208 0.4162 0.0
H1502 H 0.61518 0.84984 0.42564 0.0
H1503 H 0.5896 0.81145 0.41156 0.0
H1504 H 0.96751 0.97452 0.23467 0.0
H1505 H 0.97095 0.93927 0.21819 0.0
H1506 H 0.00572 0.0333 0.20101 0.0
H1507 H 0.00477 0.06799 0.21759 0.0
H1508 H 0.93928 0.94075 0.19996 0.0
H1509 H 0.0836 0.96679 0.19259 0.0
H1510 H 0.06165 0.97999 0.20484 0.0
H1511 H 0.05761 0.00713 0.19303 0.0
C1512 C 0.97593 0.98762 0.22737 0.0
C1513 C 0.98609 0.02393 0.22748 0.0
C1514 C 0.97779 0.96751 0.21794 0.0
C1515 C 0.98941 0.98337 0.20837 0.0
C1516 C 0.99784 0.02011 0.20834 0.0
H1517 H 0.96443 0.8612 0.14848 0.0
H1518 H 0.95706 0.90594 0.16276 0.0
C1519 C 0.99683 0.04007 0.21783 0.0
C1520 C 0.99316 0.96107 0.19854 0.0
H1521 H 0.05263 0.93527 0.17919 0.0
C1522 C 0.9641 0.93957 0.1954 0.0
C1523 C 0.02572 0.95907 0.19268 0.0
C1524 C 0.05901 0.97919 0.19601 0.0
C1525 C 0.96678 0.9158 0.18669 0.0
C1526 C 0.99899 0.91465 0.18062 0.0
C1527 C 0.02783 0.9365 0.1837 0.0
C1528 C 0.00431 0.88948 0.17147 0.0
C1529 C 0.93561 0.89111 0.18444 0.0
C1530 C 0.0344 0.86676 0.17123 0.0
C1531 C 0.03935 0.8423 0.16287 0.0
C1532 C 0.014 0.83963 0.15467 0.0
C1533 C 0.98422 0.86268 0.15477 0.0
C1534 C 0.9798 0.88791 0.16299 0.0
H1535 H 0.91823 0.88766 0.1916 0.0
H1536 H 0.91887 0.90285 0.17805 0.0
H1537 H 0.94496 0.86421 0.18177 0.0
H1538 H 0.05384 0.86746 0.17763 0.0
H1539 H 0.06238 0.82457 0.16302 0.0
H1540 H 0.80017 0.20027 0.97827 0.0
H1541 H 0.83011 0.2095 0.96098 0.0
H1542 H 0.87408 0.10261 0.96242 0.0
H1543 H 0.84444 0.09334 0.97972 0.0
H1544 H 0.90715 0.20331 0.95819 0.0
H1545 H 0.83182 0.11051 0.93168 0.0
H1546 H 0.81376 0.12708 0.9442 0.0
H1547 H 0.8465 0.09173 0.94411 0.0
C1548 C 0.81581 0.17861 0.9748 0.0
C1549 C 0.81989 0.14602 0.98029 0.0
C1550 C 0.83285 0.1839 0.96495 0.0
C1551 C 0.8539 0.15657 0.96038 0.0
C1552 C 0.85741 0.12377 0.96573 0.0
H1553 H 0.00204 0.13317 0.90772 0.0
H1554 H 0.95982 0.12457 0.9225 0.0
C1555 C 0.84061 0.11856 0.97562 0.0
C1556 C 0.87461 0.16331 0.95047 0.0
H1557 H 0.88594 0.13501 0.92469 0.0
C1558 C 0.90231 0.18871 0.95082 0.0
C1559 C 0.86835 0.1439 0.94094 0.0
C1560 C 0.83832 0.11694 0.94012 0.0
C1561 C 0.92471 0.19451 0.94195 0.0
C1562 C 0.91854 0.17506 0.93239 0.0
C1563 C 0.89051 0.14995 0.93201 0.0
C1564 C 0.94174 0.17973 0.92284 0.0
C1565 C 0.95579 0.2202 0.94303 0.0
C1566 C 0.94481 0.21332 0.91793 0.0
C1567 C 0.96914 0.21841 0.90954 0.0
C1568 C 0.99054 0.18994 0.90579 0.0
C1569 C 0.98615 0.15584 0.91042 0.0
C1570 C 0.96194 0.1508 0.91886 0.0
H1571 H 0.96112 0.22728 0.95151 0.0
H1572 H 0.98053 0.20849 0.93947 0.0
H1573 H 0.94968 0.24531 0.9387 0.0
H1574 H 0.92896 0.23581 0.92076 0.0
H1575 H 0.97205 0.2449 0.90624 0.0
H1576 H 0.81103 0.05546 0.72142 0.0
H1577 H 0.77308 0.10145 0.71323 0.0
H1578 H 0.79411 0.05546 0.68213 0.0
H1579 H 0.83246 0.00987 0.69025 0.0
H1580 H 0.79955 0.13139 0.68286 0.0
H1581 H 0.67241 0.08217 0.70123 0.0
H1582 H 0.70839 0.09244 0.71023 0.0
H1583 H 0.71286 0.05559 0.70102 0.0
C1584 C 0.80724 0.05504 0.71285 0.0
C1585 C 0.82394 0.02859 0.70649 0.0
C1586 C 0.78565 0.08131 0.70819 0.0
C1587 C 0.78046 0.08159 0.69709 0.0
C1588 C 0.79769 0.05564 0.69071 0.0
H1589 H 0.62872 0.13835 0.65314 0.0
H1590 H 0.67173 0.11592 0.66586 0.0
C1591 C 0.81929 0.02944 0.69536 0.0
C1592 C 0.75647 0.10821 0.69204 0.0
H1593 H 0.66812 0.12973 0.68913 0.0
C1594 C 0.77087 0.13156 0.68435 0.0
C1595 C 0.71909 0.10831 0.69403 0.0
C1596 C 0.70205 0.08319 0.70201 0.0
C1597 C 0.74862 0.15376 0.67822 0.0
C1598 C 0.71115 0.1526 0.67989 0.0
C1599 C 0.69696 0.13073 0.68797 0.0
C1600 C 0.68593 0.16815 0.67209 0.0
C1601 C 0.76491 0.17656 0.66953 0.0
C1602 C 0.67988 0.20528 0.67129 0.0
C1603 C 0.65493 0.21852 0.66391 0.0
C1604 C 0.63582 0.1947 0.65729 0.0
C1605 C 0.64263 0.15764 0.6581 0.0
C1606 C 0.66727 0.14462 0.66541 0.0
H1607 H 0.79453 0.17364 0.66906 0.0
H1608 H 0.75329 0.16905 0.66169 0.0
H1609 H 0.75838 0.2052 0.67104 0.0
H1610 H 0.69404 0.22384 0.67644 0.0
H1611 H 0.65029 0.24717 0.66349 0.0
H1612 H 0.73977 0.43703 0.96526 0.0
H1613 H 0.7881 0.42561 0.95231 0.0
H1614 H 0.79083 0.31449 0.96174 0.0
H1615 H 0.74277 0.32585 0.97478 0.0
H1616 H 0.85968 0.34675 0.95948 0.0
H1617 H 0.77318 0.36998 0.92416 0.0
H1618 H 0.7739 0.40596 0.93376 0.0
H1619 H 0.75503 0.36335 0.9374 0.0
C1620 C 0.75054 0.41013 0.9645 0.0
C1621 C 0.73688 0.38209 0.97082 0.0
C1622 C 0.77812 0.40366 0.95713 0.0
C1623 C 0.79259 0.36908 0.95596 0.0
C1624 C 0.77983 0.34131 0.96249 0.0
H1625 H 0.90454 0.27903 0.90242 0.0
H1626 H 0.86539 0.29315 0.91745 0.0
C1627 C 0.75226 0.34775 0.96986 0.0
C1628 C 0.82042 0.3616 0.94775 0.0
H1629 H 0.83459 0.35941 0.92081 0.0
C1630 C 0.85431 0.34956 0.95102 0.0
C1631 C 0.81315 0.36507 0.93674 0.0
C1632 C 0.77678 0.3765 0.93275 0.0
C1633 C 0.88116 0.34077 0.94352 0.0
C1634 C 0.87392 0.34447 0.9325 0.0
C1635 C 0.8401 0.35675 0.92927 0.0
C1636 C 0.90007 0.33395 0.92408 0.0
C1637 C 0.91668 0.32682 0.94742 0.0
C1638 C 0.93303 0.35179 0.92291 0.0
C1639 C 0.95582 0.34361 0.91429 0.0
C1640 C 0.9458 0.31767 0.90666 0.0
C1641 C 0.91315 0.2993 0.90807 0.0
C1642 C 0.89063 0.30732 0.91668 0.0
H1643 H 0.91492 0.3172 0.9558 0.0
H1644 H 0.92648 0.30455 0.94227 0.0
H1645 H 0.93677 0.34875 0.9471 0.0
H1646 H 0.9406 0.3728 0.92846 0.0
H1647 H 0.98067 0.35837 0.91342 0.0
H1648 H 0.94067 0.44668 0.21782 0.0
H1649 H 0.94935 0.48801 0.20292 0.0
H1650 H 0.84337 0.46334 0.19141 0.0
H1651 H 0.83465 0.42141 0.2063 0.0
H1652 H 0.89728 0.46614 0.17511 0.0
H1653 H 0.89926 0.58625 0.20138 0.0
H1654 H 0.93056 0.55227 0.20534 0.0
H1655 H 0.88321 0.54313 0.20586 0.0
C1656 C 0.91937 0.44974 0.21205 0.0
C1657 C 0.88713 0.43056 0.21315 0.0
C1658 C 0.92426 0.47353 0.2036 0.0
C1659 C 0.89681 0.47904 0.19617 0.0
C1660 C 0.86483 0.45946 0.19709 0.0
H1661 H 0.91351 0.66543 0.15444 0.0
H1662 H 0.88844 0.61952 0.16621 0.0
C1663 C 0.85991 0.43554 0.20556 0.0
C1664 C 0.90158 0.50583 0.1876 0.0
H1665 H 0.92093 0.59415 0.18355 0.0
C1666 C 0.90204 0.49423 0.17692 0.0
C1667 C 0.90705 0.54254 0.18998 0.0
C1668 C 0.90465 0.55692 0.20125 0.0
C1669 C 0.90958 0.51819 0.16857 0.0
C1670 C 0.91739 0.55446 0.17102 0.0
C1671 C 0.91524 0.56629 0.18167 0.0
C1672 C 0.92987 0.58031 0.16284 0.0
C1673 C 0.90923 0.50438 0.15722 0.0
C1674 C 0.96129 0.57339 0.15695 0.0
C1675 C 0.97561 0.59947 0.15019 0.0
C1676 C 0.95906 0.63327 0.14928 0.0
C1677 C 0.92703 0.63977 0.15497 0.0
C1678 C 0.91262 0.61355 0.16169 0.0
H1679 H 0.89154 0.48054 0.15641 0.0
H1680 H 0.90006 0.52535 0.15158 0.0
H1681 H 0.93677 0.49609 0.15488 0.0
H1682 H 0.9756 0.54832 0.15791 0.0
H1683 H 0.00039 0.59355 0.14598 0.0
H1684 H 0.96748 0.68179 0.4512 0.0
H1685 H 0.92193 0.68943 0.43732 0.0
H1686 H 0.85836 0.60558 0.45164 0.0
H1687 H 0.90339 0.59824 0.46559 0.0
H1688 H 0.8956 0.63893 0.42249 0.0
H1689 H 0.78766 0.689 0.44938 0.0
H1690 H 0.83402 0.68692 0.4534 0.0
H1691 H 0.80671 0.64716 0.45357 0.0
C1692 C 0.9438 0.66497 0.45135 0.0
C1693 C 0.93915 0.63914 0.4594 0.0
C1694 C 0.91786 0.66935 0.44344 0.0
C1695 C 0.88666 0.6483 0.44352 0.0
C1696 C 0.88199 0.62246 0.45153 0.0
H1697 H 0.69652 0.6256 0.40548 0.0
H1698 H 0.74699 0.61758 0.41755 0.0
C1699 C 0.90783 0.61811 0.45944 0.0
C1700 C 0.859 0.65307 0.43521 0.0
H1701 H 0.77046 0.67274 0.43174 0.0
C1702 C 0.86829 0.64657 0.42448 0.0
C1703 C 0.82346 0.66317 0.43785 0.0
C1704 C 0.81236 0.67232 0.44916 0.0
C1705 C 0.84261 0.64887 0.41635 0.0
C1706 C 0.80694 0.65826 0.41903 0.0
C1707 C 0.79782 0.66526 0.42973 0.0
C1708 C 0.7784 0.66095 0.41091 0.0
C1709 C 0.85354 0.64036 0.40499 0.0
C1710 C 0.77961 0.68771 0.40308 0.0
C1711 C 0.75074 0.69245 0.39614 0.0
C1712 C 0.72006 0.67058 0.39697 0.0
C1713 C 0.71961 0.64298 0.4046 0.0
C1714 C 0.74842 0.63835 0.41153 0.0
H1715 H 0.87975 0.62621 0.40458 0.0
H1716 H 0.83294 0.62349 0.40103 0.0
H1717 H 0.85599 0.66573 0.40044 0.0
H1718 H 0.8023 0.70577 0.40258 0.0
H1719 H 0.752 0.71403 0.39039 0.0
H1720 H 0.65943 0.61308 0.72304 0.0
H1721 H 0.65792 0.54911 0.71836 0.0
H1722 H 0.68958 0.57473 0.68607 0.0
H1723 H 0.69238 0.6382 0.69081 0.0
H1724 H 0.61528 0.5175 0.70505 0.0
H1725 H 0.75237 0.49004 0.69077 0.0
H1726 H 0.74134 0.53013 0.69825 0.0
H1727 H 0.73535 0.52854 0.68396 0.0
C1728 C 0.66719 0.60486 0.71504 0.0
C1729 C 0.67695 0.63057 0.70735 0.0
C1730 C 0.66615 0.56833 0.71236 0.0
C1731 C 0.67452 0.55685 0.70192 0.0
C1732 C 0.68437 0.58257 0.69427 0.0
H1733 H 0.58497 0.4155 0.65975 0.0
H1734 H 0.59828 0.45717 0.67407 0.0
C1735 C 0.68572 0.61893 0.69697 0.0
C1736 C 0.66904 0.51887 0.69859 0.0
H1737 H 0.70504 0.45349 0.68259 0.0
C1738 C 0.63529 0.50318 0.70036 0.0
C1739 C 0.6953 0.49939 0.69273 0.0
C1740 C 0.73323 0.51281 0.69144 0.0
C1741 C 0.62611 0.47026 0.69563 0.0
C1742 C 0.65087 0.45306 0.6887 0.0
C1743 C 0.68571 0.46697 0.68774 0.0
C1744 C 0.63955 0.42433 0.68117 0.0
C1745 C 0.58962 0.45462 0.69788 0.0
C1746 C 0.65817 0.39161 0.68036 0.0
C1747 C 0.65029 0.36718 0.67212 0.0
C1748 C 0.62412 0.37547 0.66446 0.0
C1749 C 0.60489 0.40778 0.66556 0.0
C1750 C 0.61242 0.43178 0.67381 0.0
H1751 H 0.57983 0.4627 0.70593 0.0
H1752 H 0.5702 0.46468 0.69191 0.0
H1753 H 0.59035 0.42491 0.69743 0.0
H1754 H 0.67948 0.38547 0.6859 0.0
H1755 H 0.66583 0.3427 0.67148 0.0
H1756 H 0.70628 0.6523 0.05262 0.0
H1757 H 0.76271 0.67944 0.05868 0.0
H1758 H 0.79638 0.57725 0.07112 0.0
H1759 H 0.74035 0.55006 0.06511 0.0
H1760 H 0.79097 0.63846 0.08606 0.0
H1761 H 0.87332 0.66646 0.04976 0.0
H1762 H 0.8262 0.67734 0.0495 0.0
H1763 H 0.83992 0.63131 0.0501 0.0
C1764 C 0.72626 0.63544 0.05634 0.0
C1765 C 0.71919 0.5989 0.05824 0.0
C1766 C 0.75843 0.65094 0.05978 0.0
C1767 C 0.7838 0.63019 0.06522 0.0
C1768 C 0.7773 0.59355 0.06681 0.0
H1769 H 0.98454 0.66386 0.09708 0.0
H1770 H 0.93891 0.64716 0.08397 0.0
C1771 C 0.74533 0.57806 0.06336 0.0
C1772 C 0.81465 0.64729 0.07058 0.0
H1773 H 0.89675 0.68567 0.06639 0.0
C1774 C 0.81405 0.64889 0.08177 0.0
C1775 C 0.84463 0.66071 0.06492 0.0
C1776 C 0.84645 0.65885 0.0529 0.0
C1777 C 0.84278 0.66339 0.08749 0.0
C1778 C 0.8728 0.677 0.08186 0.0
C1779 C 0.87352 0.67544 0.07065 0.0
C1780 C 0.90383 0.69175 0.08772 0.0
C1781 C 0.84109 0.66341 0.09955 0.0
C1782 C 0.89986 0.72324 0.09377 0.0
C1783 C 0.92554 0.73259 0.10134 0.0
C1784 C 0.95595 0.71086 0.10292 0.0
C1785 C 0.96142 0.68113 0.09612 0.0
C1786 C 0.93545 0.67159 0.08859 0.0
H1787 H 0.81927 0.64593 0.10264 0.0
H1788 H 0.86693 0.65423 0.10295 0.0
H1789 H 0.83605 0.69115 0.10246 0.0
H1790 H 0.87574 0.73929 0.09313 0.0
H1791 H 0.9205 0.75585 0.10636 0.0
H1792 H 0.64696 0.40273 0.29041 0.0
H1793 H 0.64608 0.46638 0.29561 0.0
H1794 H 0.68644 0.43837 0.3267 0.0
H1795 H 0.68811 0.37527 0.32146 0.0
H1796 H 0.60699 0.49683 0.31081 0.0
H1797 H 0.74862 0.52315 0.32017 0.0
H1798 H 0.73476 0.48399 0.31271 0.0
H1799 H 0.73385 0.48388 0.32712 0.0
C1800 C 0.6566 0.41041 0.29824 0.0
C1801 C 0.66842 0.38413 0.30545 0.0
C1802 C 0.65595 0.44671 0.30122 0.0
C1803 C 0.66705 0.45738 0.31146 0.0
C1804 C 0.67897 0.43111 0.31863 0.0
H1805 H 0.5919 0.59723 0.35704 0.0
H1806 H 0.60132 0.55557 0.34241 0.0
C1807 C 0.67973 0.39496 0.31565 0.0
C1808 C 0.66283 0.49514 0.31517 0.0
H1809 H 0.70476 0.55942 0.33007 0.0
C1810 C 0.62864 0.5109 0.31478 0.0
C1811 C 0.69114 0.5142 0.32011 0.0
C1812 C 0.72922 0.50054 0.31993 0.0
C1813 C 0.62132 0.54346 0.32005 0.0
C1814 C 0.64863 0.56024 0.32608 0.0
C1815 C 0.68358 0.54629 0.32562 0.0
C1816 C 0.6404 0.58845 0.33416 0.0
C1817 C 0.584 0.55881 0.31943 0.0
C1818 C 0.65945 0.62101 0.33452 0.0
C1819 C 0.65421 0.64523 0.34302 0.0
C1820 C 0.63024 0.63691 0.35138 0.0
C1821 C 0.61071 0.60464 0.3508 0.0
C1822 C 0.61575 0.58079 0.34233 0.0
H1823 H 0.57169 0.55248 0.31159 0.0
H1824 H 0.56702 0.54645 0.32572 0.0
H1825 H 0.5839 0.58837 0.32059 0.0
H1826 H 0.67891 0.62729 0.32834 0.0
H1827 H 0.66979 0.66974 0.34324 0.0
H1828 H 0.89537 0.41841 0.54814 0.0
H1829 H 0.85623 0.39229 0.56182 0.0
H1830 H 0.88738 0.47539 0.584 0.0
H1831 H 0.9276 0.50085 0.57046 0.0
H1832 H 0.88225 0.40976 0.59363 0.0
H1833 H 0.76075 0.4372 0.56962 0.0
H1834 H 0.79308 0.4094 0.56286 0.0
H1835 H 0.80419 0.4551 0.56616 0.0
C1836 C 0.89405 0.43092 0.55596 0.0
C1837 C 0.91406 0.46199 0.5582 0.0
C1838 C 0.87157 0.41611 0.56374 0.0
C1839 C 0.86826 0.43242 0.57383 0.0
C1840 C 0.88933 0.46255 0.57623 0.0
H1841 H 0.68625 0.41181 0.61595 0.0
H1842 H 0.73499 0.43253 0.60446 0.0
C1843 C 0.91212 0.47716 0.56849 0.0
C1844 C 0.84182 0.41899 0.58175 0.0
H1845 H 0.75238 0.40405 0.58549 0.0
C1846 C 0.85383 0.40851 0.59188 0.0
C1847 C 0.80471 0.41789 0.57947 0.0
C1848 C 0.7898 0.43082 0.56898 0.0
C1849 C 0.82969 0.3968 0.59979 0.0
C1850 C 0.7927 0.3949 0.59742 0.0
C1851 C 0.78078 0.40537 0.58728 0.0
C1852 C 0.76544 0.38318 0.60534 0.0
C1853 C 0.84391 0.38749 0.61069 0.0
C1854 C 0.76663 0.34871 0.6098 0.0
C1855 C 0.73889 0.33688 0.6165 0.0
C1856 C 0.70922 0.35913 0.61867 0.0
C1857 C 0.7086 0.39392 0.61438 0.0
C1858 C 0.73645 0.40582 0.60781 0.0
H1859 H 0.87073 0.39956 0.61209 0.0
H1860 H 0.82533 0.39675 0.6171 0.0
H1861 H 0.84666 0.35793 0.61131 0.0
H1862 H 0.78833 0.33049 0.60782 0.0
H1863 H 0.74 0.30982 0.6196 0.0
H1864 H 0.85372 0.56648 0.79355 0.0
H1865 H 0.88437 0.52549 0.80571 0.0
H1866 H 0.85722 0.59444 0.83233 0.0
H1867 H 0.82591 0.63516 0.82022 0.0
H1868 H 0.94105 0.53522 0.82009 0.0
H1869 H 0.81445 0.49746 0.84084 0.0
H1870 H 0.81499 0.52192 0.82844 0.0
H1871 H 0.82409 0.54468 0.84082 0.0
C1872 C 0.85474 0.5731 0.80197 0.0
C1873 C 0.83778 0.60417 0.80592 0.0
C1874 C 0.8722 0.5497 0.80891 0.0
C1875 C 0.87272 0.55675 0.81993 0.0
C1876 C 0.8567 0.58827 0.82387 0.0
H1877 H 0.99885 0.43116 0.86548 0.0
H1878 H 0.97497 0.48035 0.85476 0.0
C1879 C 0.83912 0.61164 0.81694 0.0
C1880 C 0.88873 0.53026 0.82729 0.0
H1881 H 0.86793 0.47231 0.84744 0.0
C1882 C 0.92517 0.52154 0.82611 0.0
C1883 C 0.86776 0.5122 0.83504 0.0
C1884 C 0.82809 0.51921 0.83634 0.0
C1885 C 0.9412 0.49506 0.83245 0.0
C1886 C 0.92029 0.47726 0.84027 0.0
C1887 C 0.88393 0.4862 0.84149 0.0
C1888 C 0.93496 0.44781 0.84686 0.0
C1889 C 0.98003 0.48554 0.83049 0.0
C1890 C 0.91982 0.41344 0.84616 0.0
C1891 C 0.93314 0.38538 0.85233 0.0
C1892 C 0.96189 0.3911 0.85936 0.0
C1893 C 0.97682 0.42572 0.86011 0.0
C1894 C 0.96336 0.45385 0.85394 0.0
H1895 H 0.98985 0.49571 0.82267 0.0
H1896 H 0.9967 0.49774 0.83685 0.0
H1897 H 0.98401 0.45602 0.8307 0.0
H1898 H 0.8978 0.40824 0.84076 0.0
H1899 H 0.92093 0.35915 0.85152 0.0
H1900 H 0.29518 0.5209 0.0408 0.0
H1901 H 0.23753 0.52758 0.05627 0.0
H1902 H 0.22086 0.65755 0.04709 0.0
H1903 H 0.27743 0.65396 0.0314 0.0
H1904 H 0.2328 0.5653 0.07295 0.0
H1905 H 0.12163 0.63034 0.05285 0.0
H1906 H 0.16015 0.61502 0.04536 0.0
H1907 H 0.15853 0.66007 0.05087 0.0
C1908 C 0.28001 0.54554 0.04155 0.0
C1909 C 0.29632 0.5886 0.03577 0.0
C1910 C 0.24496 0.55038 0.05143 0.0
C1911 C 0.22329 0.5933 0.05361 0.0
C1912 C 0.23386 0.63214 0.04553 0.0
H1913 H 0.19056 0.68775 0.1116 0.0
H1914 H 0.20742 0.65033 0.0966 0.0
C1915 C 0.26846 0.62997 0.03545 0.0
C1916 C 0.19902 0.59771 0.06291 0.0
H1917 H 0.12944 0.64892 0.07205 0.0
C1918 C 0.2096 0.58281 0.07267 0.0
C1919 C 0.16785 0.61932 0.06261 0.0
C1920 C 0.15135 0.63159 0.05228 0.0
C1921 C 0.19223 0.5921 0.08226 0.0
C1922 C 0.16456 0.61812 0.08212 0.0
C1923 C 0.15145 0.6299 0.07225 0.0
C1924 C 0.15302 0.6374 0.09198 0.0
C1925 C 0.20465 0.57478 0.09246 0.0
C1926 C 0.11659 0.64357 0.09435 0.0
C1927 C 0.10666 0.666 0.10291 0.0
C1928 C 0.13307 0.68265 0.1092 0.0
C1929 C 0.16937 0.67535 0.10699 0.0
C1930 C 0.17917 0.65343 0.09844 0.0
H1931 H 0.21252 0.54642 0.09097 0.0
H1932 H 0.22875 0.58904 0.09543 0.0
H1933 H 0.18354 0.57541 0.09875 0.0
H1934 H 0.0959 0.6318 0.08941 0.0
H1935 H 0.07846 0.67112 0.10438 0.0
H1936 H 0.32291 0.48171 0.79789 0.0
H1937 H 0.31133 0.42392 0.81291 0.0
H1938 H 0.19184 0.39594 0.79657 0.0
H1939 H 0.20062 0.45232 0.78119 0.0
H1940 H 0.26337 0.4174 0.82709 0.0
H1941 H 0.22236 0.29951 0.80454 0.0
H1942 H 0.23942 0.33853 0.79775 0.0
H1943 H 0.19186 0.33358 0.80045 0.0
C1944 C 0.29971 0.46442 0.79727 0.0
C1945 C 0.25997 0.47685 0.78912 0.0
C1946 C 0.29162 0.42919 0.80681 0.0
C1947 C 0.25015 0.40393 0.80658 0.0
C1948 C 0.21658 0.41099 0.79641 0.0
H1949 H 0.11842 0.3722 0.85729 0.0
H1950 H 0.16275 0.38896 0.84405 0.0
C1951 C 0.22222 0.4455 0.78655 0.0
C1952 C 0.24145 0.38009 0.81563 0.0
H1953 H 0.18948 0.30804 0.82212 0.0
C1954 C 0.24816 0.39289 0.82598 0.0
C1955 C 0.22268 0.34739 0.81431 0.0
C1956 C 0.21919 0.32898 0.80362 0.0
C1957 C 0.23306 0.37616 0.83494 0.0
C1958 C 0.20967 0.34669 0.83346 0.0
C1959 C 0.20641 0.33141 0.82325 0.0
C1960 C 0.1843 0.3354 0.84198 0.0
C1961 C 0.24106 0.39132 0.84587 0.0
C1962 C 0.1806 0.29929 0.84499 0.0
C1963 C 0.15453 0.28933 0.85255 0.0
C1964 C 0.13171 0.31536 0.85714 0.0
C1965 C 0.13566 0.35138 0.85404 0.0
C1966 C 0.16137 0.36117 0.84652 0.0
H1967 H 0.26882 0.40209 0.84616 0.0
H1968 H 0.22252 0.41395 0.84759 0.0
H1969 H 0.23786 0.37079 0.8522 0.0
H1970 H 0.19769 0.27888 0.84146 0.0
H1971 H 0.15208 0.26134 0.85473 0.0
H1972 H 0.29533 0.29845 0.54448 0.0
H1973 H 0.32916 0.29993 0.56121 0.0
H1974 H 0.38384 0.39561 0.55073 0.0
H1975 H 0.3498 0.39443 0.53405 0.0
H1976 H 0.40366 0.296 0.56247 0.0
H1977 H 0.35327 0.4216 0.58136 0.0
H1978 H 0.32999 0.39928 0.5706 0.0
H1979 H 0.36864 0.42655 0.56781 0.0
C1980 C 0.31406 0.32017 0.54586 0.0
C1981 C 0.31959 0.34666 0.53806 0.0
C1982 C 0.3334 0.32094 0.55538 0.0
C1983 C 0.35854 0.34822 0.55727 0.0
C1984 C 0.36393 0.37484 0.54954 0.0
H1985 H 0.52644 0.37709 0.60421 0.0
H1986 H 0.48419 0.3849 0.58949 0.0
C1987 C 0.34462 0.37406 0.54001 0.0
C1988 C 0.38112 0.34718 0.56695 0.0
H1989 H 0.40427 0.39442 0.58933 0.0
C1990 C 0.4036 0.31741 0.56838 0.0
C1991 C 0.38118 0.3753 0.57459 0.0
C1992 C 0.35677 0.40738 0.5736 0.0
C1993 C 0.42659 0.31524 0.57716 0.0
C1994 C 0.42647 0.34319 0.58483 0.0
C1995 C 0.40411 0.37303 0.58343 0.0
C1996 C 0.44947 0.34143 0.59438 0.0
C1997 C 0.45138 0.28339 0.57806 0.0
C1998 C 0.44316 0.31522 0.60215 0.0
C1999 C 0.46718 0.31066 0.61054 0.0
C2000 C 0.49791 0.33225 0.61132 0.0
C2001 C 0.50307 0.35989 0.60383 0.0
C2002 C 0.47901 0.36441 0.59541 0.0
H2003 H 0.45508 0.26956 0.57025 0.0
H2004 H 0.47811 0.29161 0.58106 0.0
H2005 H 0.43977 0.26394 0.58381 0.0
H2006 H 0.42 0.29784 0.60156 0.0
H2007 H 0.46193 0.29003 0.61636 0.0
H2008 H 0.4415 0.51526 0.27914 0.0
H2009 H 0.44105 0.551 0.29562 0.0
H2010 H 0.53422 0.49382 0.30667 0.0
H2011 H 0.53449 0.45765 0.29024 0.0
H2012 H 0.48077 0.50609 0.32275 0.0
H2013 H 0.51702 0.62972 0.30051 0.0
H2014 H 0.47773 0.60706 0.29571 0.0
H2015 H 0.52072 0.58545 0.29471 0.0
C2016 C 0.46157 0.51003 0.28516 0.0
C2017 C 0.48794 0.48365 0.28346 0.0
C2018 C 0.46138 0.53052 0.29453 0.0
C2019 C 0.48784 0.52528 0.30228 0.0
C2020 C 0.51357 0.49823 0.30077 0.0
H2021 H 0.56141 0.67474 0.34963 0.0
H2022 H 0.55461 0.63088 0.33525 0.0
C2023 C 0.51372 0.47764 0.29141 0.0
C2024 C 0.48983 0.54928 0.3117 0.0
H2025 H 0.50479 0.63635 0.31892 0.0
C2026 C 0.48584 0.53461 0.32195 0.0
C2027 C 0.49709 0.58633 0.31058 0.0
C2028 C 0.50373 0.60314 0.2998 0.0
C2029 C 0.48876 0.55617 0.33114 0.0
C2030 C 0.49533 0.5933 0.32999 0.0
C2031 C 0.49936 0.6079 0.31975 0.0
C2032 C 0.49978 0.61748 0.33929 0.0
C2033 C 0.48598 0.53897 0.34199 0.0
C2034 C 0.47109 0.62454 0.34631 0.0
C2035 C 0.47495 0.64967 0.35457 0.0
C2036 C 0.50763 0.66785 0.35595 0.0
C2037 C 0.53633 0.66033 0.34897 0.0
C2038 C 0.53238 0.63553 0.3407 0.0
H2039 H 0.48811 0.50927 0.34151 0.0
H2040 H 0.50732 0.54925 0.34735 0.0
H2041 H 0.45966 0.54583 0.34566 0.0
H2042 H 0.44546 0.61141 0.34521 0.0
H2043 H 0.45228 0.65524 0.35977 0.0
H2044 H 0.28605 0.46831 0.96698 0.0
H2045 H 0.24626 0.45392 0.95207 0.0
H2046 H 0.2386 0.3446 0.96306 0.0
H2047 H 0.2793 0.35862 0.97776 0.0
H2048 H 0.25312 0.34744 0.94227 0.0
H2049 H 0.13903 0.43829 0.95122 0.0
H2050 H 0.18125 0.46124 0.95041 0.0
H2051 H 0.17373 0.42888 0.96081 0.0
C2052 C 0.27571 0.44127 0.96622 0.0
C2053 C 0.28571 0.41457 0.97352 0.0
C2054 C 0.25268 0.43317 0.95778 0.0
C2055 C 0.23885 0.39837 0.95657 0.0
C2056 C 0.24871 0.37172 0.96389 0.0
H2057 H 0.08073 0.31425 0.91234 0.0
H2058 H 0.1087 0.34285 0.92792 0.0
C2059 C 0.27194 0.37971 0.97227 0.0
C2060 C 0.21633 0.3889 0.94725 0.0
H2061 H 0.13957 0.41063 0.93393 0.0
C2062 C 0.22821 0.36117 0.94049 0.0
C2063 C 0.18361 0.40656 0.945 0.0
C2064 C 0.16842 0.43516 0.9523 0.0
C2065 C 0.20864 0.35088 0.93148 0.0
C2066 C 0.17675 0.36956 0.92895 0.0
C2067 C 0.16435 0.39684 0.9358 0.0
C2068 C 0.15601 0.36023 0.91928 0.0
C2069 C 0.22209 0.31966 0.92483 0.0
C2070 C 0.1723 0.36266 0.90918 0.0
C2071 C 0.15668 0.34605 0.90036 0.0
C2072 C 0.12413 0.32744 0.90146 0.0
C2073 C 0.1058 0.32855 0.9113 0.0
C2074 C 0.1218 0.34473 0.9202 0.0
H2075 H 0.24111 0.3026 0.92935 0.0
H2076 H 0.19953 0.30261 0.92206 0.0
H2077 H 0.23645 0.33004 0.91769 0.0
H2078 H 0.19833 0.37522 0.90828 0.0
H2079 H 0.17115 0.34584 0.89283 0.0
H2080 H 0.52622 0.524 0.73006 0.0
H2081 H 0.52609 0.49437 0.71252 0.0
H2082 H 0.42678 0.44149 0.72059 0.0
H2083 H 0.42658 0.47132 0.73808 0.0
H2084 H 0.52456 0.41634 0.71027 0.0
H2085 H 0.41073 0.48357 0.68997 0.0
H2086 H 0.43385 0.50354 0.70117 0.0
H2087 H 0.40212 0.46806 0.70333 0.0
C2088 C 0.50411 0.50649 0.728 0.0
C2089 C 0.47618 0.50022 0.73535 0.0
C2090 C 0.50412 0.48955 0.71802 0.0
C2091 C 0.47625 0.46608 0.71525 0.0
C2092 C 0.44816 0.46005 0.72252 0.0
H2093 H 0.44907 0.30423 0.66657 0.0
H2094 H 0.44019 0.34659 0.68137 0.0
C2095 C 0.44816 0.47693 0.7325 0.0
C2096 C 0.47804 0.44562 0.70513 0.0
H2097 H 0.43558 0.43218 0.68134 0.0
C2098 C 0.50535 0.42003 0.7039 0.0
C2099 C 0.45264 0.45033 0.69691 0.0
C2100 C 0.42327 0.47803 0.69782 0.0
C2101 C 0.50772 0.39866 0.69468 0.0
C2102 C 0.48234 0.40334 0.68648 0.0
C2103 C 0.455 0.4289 0.68767 0.0
C2104 C 0.484 0.38123 0.6767 0.0
C2105 C 0.53675 0.37051 0.69383 0.0
C2106 C 0.51082 0.38751 0.66906 0.0
C2107 C 0.51614 0.3633 0.66065 0.0
C2108 C 0.49461 0.33256 0.65975 0.0
C2109 C 0.46623 0.32762 0.66706 0.0
C2110 C 0.46105 0.35176 0.67551 0.0
H2111 H 0.55206 0.36776 0.70137 0.0
H2112 H 0.52483 0.34409 0.69176 0.0
H2113 H 0.55574 0.37773 0.68732 0.0
H2114 H 0.52831 0.41053 0.66985 0.0
H2115 H 0.53742 0.36829 0.65497 0.0
H2116 H 0.34727 0.53624 0.47127 0.0
H2117 H 0.37672 0.58686 0.46239 0.0
H2118 H 0.34107 0.54679 0.43184 0.0
H2119 H 0.31085 0.4969 0.44072 0.0
H2120 H 0.43085 0.57973 0.44907 0.0
H2121 H 0.3241 0.65222 0.4279 0.0
H2122 H 0.31447 0.62066 0.43845 0.0
H2123 H 0.32159 0.60521 0.42492 0.0
C2124 C 0.34503 0.53884 0.46269 0.0
C2125 C 0.32667 0.51284 0.45667 0.0
C2126 C 0.36178 0.56774 0.45763 0.0
C2127 C 0.36057 0.57104 0.44646 0.0
C2128 C 0.34144 0.54554 0.44048 0.0
H2129 H 0.51372 0.61628 0.40085 0.0
H2130 H 0.47062 0.59616 0.41422 0.0
C2131 C 0.3245 0.51681 0.44554 0.0
C2132 C 0.38342 0.59772 0.4409 0.0
H2133 H 0.38407 0.65551 0.4198 0.0
C2134 C 0.42043 0.59701 0.44287 0.0
C2135 C 0.36993 0.62079 0.43292 0.0
C2136 C 0.33027 0.62506 0.43102 0.0
C2137 C 0.44449 0.6163 0.43648 0.0
C2138 C 0.43124 0.63629 0.42779 0.0
C2139 C 0.39413 0.6396 0.42637 0.0
C2140 C 0.45572 0.64962 0.41939 0.0
C2141 C 0.4841 0.61377 0.43874 0.0
C2142 C 0.4608 0.68644 0.41768 0.0
C2143 C 0.4856 0.69813 0.40999 0.0
C2144 C 0.50533 0.6731 0.40389 0.0
C2145 C 0.49924 0.63628 0.40547 0.0
C2146 C 0.47463 0.62471 0.41311 0.0
H2147 H 0.48913 0.60669 0.44721 0.0
H2148 H 0.49611 0.59247 0.43362 0.0
H2149 H 0.49789 0.63947 0.43692 0.0
H2150 H 0.44634 0.706 0.42248 0.0
H2151 H 0.49017 0.72659 0.40905 0.0
H2152 H 0.29633 0.553 0.22114 0.0
H2153 H 0.25999 0.59695 0.21147 0.0
H2154 H 0.29348 0.54956 0.18152 0.0
H2155 H 0.33023 0.50603 0.19114 0.0
H2156 H 0.29558 0.62548 0.18174 0.0
H2157 H 0.16498 0.57255 0.19664 0.0
H2158 H 0.19699 0.58508 0.20666 0.0
H2159 H 0.20633 0.54783 0.19792 0.0
C2160 C 0.29566 0.55186 0.2125 0.0
C2161 C 0.31536 0.52558 0.20689 0.0
C2162 C 0.27497 0.57695 0.20699 0.0
C2163 C 0.2737 0.57619 0.19579 0.0
C2164 C 0.294 0.55051 0.19017 0.0
H2165 H 0.12756 0.63274 0.14884 0.0
H2166 H 0.16862 0.60867 0.16192 0.0
C2167 C 0.31471 0.52549 0.19566 0.0
C2168 C 0.25057 0.6014 0.18983 0.0
H2169 H 0.16296 0.62034 0.18453 0.0
C2170 C 0.26658 0.62478 0.18243 0.0
C2171 C 0.21278 0.60031 0.19077 0.0
C2172 C 0.19408 0.57497 0.19836 0.0
C2173 C 0.24569 0.64613 0.17565 0.0
C2174 C 0.20792 0.64413 0.17636 0.0
C2175 C 0.19198 0.62193 0.18408 0.0
C2176 C 0.18443 0.66038 0.16821 0.0
C2177 C 0.26398 0.66915 0.16737 0.0
C2178 C 0.18 0.6977 0.16731 0.0
C2179 C 0.15632 0.71182 0.15972 0.0
C2180 C 0.13669 0.68871 0.15302 0.0
C2181 C 0.14191 0.65144 0.15389 0.0
C2182 C 0.16542 0.63752 0.16139 0.0
H2183 H 0.29348 0.66501 0.16718 0.0
H2184 H 0.25308 0.66319 0.15932 0.0
H2185 H 0.25857 0.69785 0.16915 0.0
H2186 H 0.1943 0.71577 0.17257 0.0
H2187 H 0.15283 0.74063 0.15926 0.0
loop_
_geom_bond_atom_site_label_1
_geom_bond_atom_site_label_2
_geom_bond_distance
_geom_bond_site_symmetry_2
_ccdc_geom_bond_type
C0 C1 1.560 . S
C0 H61 0.959 . S
C0 H62 0.959 . S
C0 H63 0.960 . S
C1 C0 1.560 . S
C1 O56 1.426 . S
C1 H60 0.980 . S
C2 C3 1.407 . S
C2 C7 1.418 . S
C2 O56 1.334 . S
C3 C2 1.407 . S
C3 C4 1.360 . S
C3 H64 0.929 . S
C4 C3 1.360 . S
C4 C5 1.401 . S
C4 C8 1.527 . S
C5 C4 1.401 . S
C5 C6 1.405 . S
C5 C38 1.587 . S
C6 C5 1.405 . S
C6 C7 1.332 . S
C6 C9 1.496 1_565 S
C7 C2 1.418 . S
C7 C6 1.332 . S
C7 H65 0.919 1_565 S
C8 C4 1.527 . S
C8 H66 0.959 . S
C8 H67 0.961 . S
C8 H68 0.961 . S
C9 C6 1.496 1_545 S
C9 H69 0.960 . S
C9 H70 0.960 . S
C9 H71 0.961 . S
C10 C11 1.517 . S
C10 H73 0.961 . S
C10 H74 0.960 . S
C10 H75 0.959 . S
C11 C10 1.517 . S
C11 O59 1.468 . S
C11 H72 0.980 . S
C12 C13 1.349 . S
C12 C17 1.367 . S
C12 O59 1.408 . S
C13 C12 1.349 . S
C13 C14 1.407 . S
C13 H76 0.930 . S
C14 C13 1.407 . S
C14 C15 1.449 . S
C14 C18 1.535 . S
C15 C14 1.449 . S
C15 C16 1.384 . S
C15 C40 1.553 . S
C16 C15 1.384 . S
C16 C17 1.364 . S
C16 C19 1.450 . S
C17 C12 1.367 . S
C17 C16 1.364 . S
C17 H77 0.931 . S
C18 C14 1.535 . S
C18 H78 0.959 . S
C18 H79 0.961 . S
C18 H80 0.959 . S
C19 C16 1.450 . S
C19 H81 0.960 . S
C19 H82 0.960 . S
C19 H83 0.960 . S
C20 C21 1.309 . S
C20 C25 1.304 . S
C20 O58 1.435 . S
C21 C20 1.309 . S
C21 C22 1.476 . S
C21 H85 0.930 . S
C22 C21 1.476 . S
C22 C23 1.400 . S
C22 C26 1.567 . S
C23 C22 1.400 . S
C23 C24 1.373 . S
C23 C45 1.432 . S
C24 C23 1.373 . S
C24 C25 1.339 . S
C24 C27 1.530 1_545 S
C25 C20 1.304 . S
C25 C24 1.339 . S
C25 H86 0.930 1_545 S
C26 C22 1.567 . S
C26 H87 0.961 . S
C26 H88 0.960 . S
C26 H89 0.958 . S
C27 C24 1.530 1_565 S
C27 H90 0.961 . S
C27 H91 0.960 . S
C27 H92 0.960 . S
C28 C29 1.530 . S
C28 H94 0.961 . S
C28 H95 0.961 . S
C28 H96 0.959 . S
C29 C28 1.530 . S
C29 O57 1.412 . S
C29 H93 0.980 . S
C30 C31 1.288 . S
C30 C35 1.377 . S
C30 O57 1.393 . S
C31 C30 1.288 . S
C31 C32 1.369 . S
C31 H97 0.932 . S
C32 C31 1.369 . S
C32 C33 1.398 . S
C32 C36 1.527 . S
C33 C32 1.398 . S
C33 C34 1.380 . S
C33 C47 1.497 . S
C34 C33 1.380 . S
C34 C35 1.383 . S
C34 C37 1.603 1_545 S
C35 C30 1.377 . S
C35 C34 1.383 . S
C35 H98 0.929 . S
C36 C32 1.527 . S
C36 H99 0.961 . S
C36 H100 0.959 . S
C36 H101 0.959 . S
C37 C34 1.603 1_565 S
C37 H102 0.960 . S
C37 H103 0.962 . S
C37 H104 0.961 . S
C38 C5 1.587 . S
C38 C39 1.360 1_655 S
C38 C51 1.412 . S
C39 C38 1.360 1_455 S
C39 C40 1.365 . S
C39 H105 0.929 . S
C40 C15 1.553 . S
C40 C39 1.365 . S
C40 C41 1.404 . S
C41 C40 1.404 . S
C41 C42 1.395 . S
C41 C52 1.451 . S
C42 C41 1.395 . S
C42 C43 1.322 . S
C42 H106 0.930 . S
C43 C42 1.322 . S
C43 C44 1.459 . S
C43 H107 0.929 . S
C44 C43 1.459 . S
C44 C45 1.445 1_565 S
C44 C53 1.395 . S
C45 C23 1.432 . S
C45 C44 1.445 1_545 S
C45 C46 1.370 . S
C46 C45 1.370 . S
C46 C47 1.438 1_455 S
C46 H108 0.930 . S
C47 C33 1.497 . S
C47 C46 1.438 1_655 S
C47 C48 1.360 . S
C48 C47 1.360 . S
C48 C49 1.401 . S
C48 C53 1.446 1_645 S
C49 C48 1.401 . S
C49 C50 1.347 1_545 S
C49 H109 0.929 . S
C50 C49 1.347 1_565 S
C50 C51 1.455 . S
C50 H110 0.930 . S
C51 C38 1.412 . S
C51 C50 1.455 . S
C51 C52 1.331 1_655 S
C52 C41 1.451 . S
C52 C51 1.331 1_455 S
C52 C53 1.497 . S
C53 C44 1.395 . S
C53 C48 1.446 1_465 S
C53 C52 1.497 . S
C54 C55 1.582 . S
C54 H111 0.962 . S
C54 H112 0.959 . S
C54 H113 0.958 . S
C55 C54 1.582 . S
C55 O58 1.458 . S
C55 H84 0.980 . S
O56 C1 1.426 . S
O56 C2 1.334 . S
O57 C29 1.412 . S
O57 C30 1.393 . S
O58 C20 1.435 . S
O58 C55 1.458 . S
O59 C11 1.468 . S
O59 C12 1.408 . S
H60 C1 0.980 . S
H61 C0 0.959 . S
H62 C0 0.959 . S
H63 C0 0.960 . S
H64 C3 0.929 . S
H65 C7 0.919 1_545 S
H66 C8 0.959 . S
H67 C8 0.961 . S
H68 C8 0.961 . S
H69 C9 0.960 . S
H70 C9 0.960 . S
H71 C9 0.961 . S
H72 C11 0.980 . S
H73 C10 0.961 . S
H74 C10 0.960 . S
H75 C10 0.959 . S
H76 C13 0.930 . S
H77 C17 0.931 . S
H78 C18 0.959 . S
H79 C18 0.961 . S
H80 C18 0.959 . S
H81 C19 0.960 . S
H82 C19 0.960 . S
H83 C19 0.960 . S
H84 C55 0.980 . S
H85 C21 0.930 . S
H86 C25 0.930 1_565 S
H87 C26 0.961 . S
H88 C26 0.960 . S
H89 C26 0.958 . S
H90 C27 0.961 . S
H91 C27 0.960 . S
H92 C27 0.960 . S
H93 C29 0.980 . S
H94 C28 0.961 . S
H95 C28 0.961 . S
H96 C28 0.959 . S
H97 C31 0.932 . S
H98 C35 0.929 . S
H99 C36 0.961 . S
H100 C36 0.959 . S
H101 C36 0.959 . S
H102 C37 0.960 . S
H103 C37 0.962 . S
H104 C37 0.961 . S
H105 C39 0.929 . S
H106 C42 0.930 . S
H107 C43 0.929 . S
H108 C46 0.930 . S
H109 C49 0.929 . S
H110 C50 0.930 . S
H111 C54 0.962 . S
H112 C54 0.959 . S
H113 C54 0.958 . S
C114 C115 1.560 . S
C114 H175 0.959 . S
C114 H176 0.959 . S
C114 H177 0.960 . S
C115 C114 1.560 . S
C115 O170 1.426 . S
C115 H174 0.980 . S
C116 C117 1.407 . S
C116 C121 1.418 . S
C116 O170 1.334 . S
C117 C116 1.407 . S
C117 C118 1.360 . S
C117 H178 0.929 . S
C118 C117 1.360 . S
C118 C119 1.401 . S
C118 C122 1.527 . S
C119 C118 1.401 . S
C119 C120 1.405 . S
C119 C152 1.587 . S
C120 C119 1.405 . S
C120 C121 1.332 . S
C120 C123 1.496 . S
C121 C116 1.418 . S
C121 C120 1.332 . S
C121 H179 0.929 . S
C122 C118 1.527 . S
C122 H180 0.959 . S
C122 H181 0.961 . S
C122 H182 0.961 . S
C123 C120 1.496 . S
C123 H183 0.960 . S
C123 H184 0.960 . S
C123 H185 0.961 . S
C124 C125 1.517 . S
C124 H187 0.961 . S
C124 H188 0.960 . S
C124 H189 0.959 . S
C125 C124 1.517 . S
C125 O173 1.468 . S
C125 H186 0.980 . S
C126 C127 1.349 . S
C126 C131 1.367 . S
C126 O173 1.408 . S
C127 C126 1.349 . S
C127 C128 1.407 . S
C127 H190 0.930 . S
C128 C127 1.407 . S
C128 C129 1.449 . S
C128 C132 1.535 . S
C129 C128 1.449 . S
C129 C130 1.384 . S
C129 C154 1.553 . S
C130 C129 1.384 . S
C130 C131 1.364 . S
C130 C133 1.450 . S
C131 C126 1.367 . S
C131 C130 1.364 . S
C131 H191 0.931 . S
C132 C128 1.535 . S
C132 H192 0.959 . S
C132 H193 0.961 . S
C132 H194 0.959 . S
C133 C130 1.450 . S
C133 H195 0.960 . S
C133 H196 0.960 . S
C133 H197 0.960 . S
C134 C135 1.309 . S
C134 C139 1.304 . S
C134 O172 1.435 . S
C135 C134 1.309 . S
C135 C136 1.476 . S
C135 H199 0.930 . S
C136 C135 1.476 . S
C136 C137 1.400 . S
C136 C140 1.567 . S
C137 C136 1.400 . S
C137 C138 1.373 . S
C137 C159 1.432 . S
C138 C137 1.373 . S
C138 C139 1.339 . S
C138 C141 1.530 . S
C139 C134 1.304 . S
C139 C138 1.339 . S
C139 H200 0.930 . S
C140 C136 1.567 . S
C140 H201 0.961 . S
C140 H202 0.960 . S
C140 H203 0.958 . S
C141 C138 1.530 . S
C141 H204 0.961 . S
C141 H205 0.960 . S
C141 H206 0.960 . S
C142 C143 1.530 . S
C142 H208 0.961 . S
C142 H209 0.961 . S
C142 H210 0.959 . S
C143 C142 1.530 . S
C143 O171 1.412 . S
C143 H207 0.980 . S
C144 C145 1.288 . S
C144 C149 1.377 . S
C144 O171 1.393 . S
C145 C144 1.288 . S
C145 C146 1.369 . S
C145 H211 0.932 . S
C146 C145 1.369 . S
C146 C147 1.398 . S
C146 C150 1.527 . S
C147 C146 1.398 . S
C147 C148 1.380 . S
C147 C161 1.497 . S
C148 C147 1.380 . S
C148 C149 1.383 . S
C148 C151 1.603 . S
C149 C144 1.377 . S
C149 C148 1.383 . S
C149 H212 0.929 . S
C150 C146 1.527 . S
C150 H213 0.961 . S
C150 H214 0.959 . S
C150 H215 0.959 . S
C151 C148 1.603 . S
C151 H216 0.960 . S
C151 H217 0.962 . S
C151 H218 0.961 . S
C152 C119 1.587 . S
C152 C153 1.360 . S
C152 C165 1.412 . S
C153 C152 1.360 . S
C153 C154 1.365 . S
C153 H219 0.929 . S
C154 C129 1.553 . S
C154 C153 1.365 . S
C154 C155 1.404 . S
C155 C154 1.404 . S
C155 C156 1.395 . S
C155 C166 1.451 . S
C156 C155 1.395 . S
C156 C157 1.322 . S
C156 H220 0.930 . S
C157 C156 1.322 . S
C157 C158 1.459 . S
C157 H221 0.929 . S
C158 C157 1.459 . S
C158 C159 1.445 . S
C158 C167 1.395 . S
C159 C137 1.432 . S
C159 C158 1.445 . S
C159 C160 1.370 . S
C160 C159 1.370 . S
C160 C161 1.438 . S
C160 H222 0.930 . S
C161 C147 1.497 . S
C161 C160 1.438 . S
C161 C162 1.360 . S
C162 C161 1.360 . S
C162 C163 1.401 . S
C162 C167 1.446 . S
C163 C162 1.401 . S
C163 C164 1.347 . S
C163 H223 0.929 . S
C164 C163 1.347 . S
C164 C165 1.455 . S
C164 H224 0.930 . S
C165 C152 1.412 . S
C165 C164 1.455 . S
C165 C166 1.331 . S
C166 C155 1.451 . S
C166 C165 1.331 . S
C166 C167 1.497 . S
C167 C158 1.395 . S
C167 C162 1.446 . S
C167 C166 1.497 . S
C168 C169 1.582 . S
C168 H225 0.962 . S
C168 H226 0.959 . S
C168 H227 0.958 . S
C169 C168 1.582 . S
C169 O172 1.458 . S
C169 H198 0.980 . S
O170 C115 1.426 . S
O170 C116 1.334 . S
O171 C143 1.412 . S
O171 C144 1.393 . S
O172 C134 1.435 . S
O172 C169 1.458 . S
O173 C125 1.468 . S
O173 C126 1.408 . S
H174 C115 0.980 . S
H175 C114 0.959 . S
H176 C114 0.959 . S
H177 C114 0.960 . S
H178 C117 0.929 . S
H179 C121 0.929 . S
H180 C122 0.959 . S
H181 C122 0.961 . S
H182 C122 0.961 . S
H183 C123 0.960 . S
H184 C123 0.960 . S
H185 C123 0.961 . S
H186 C125 0.980 . S
H187 C124 0.961 . S
H188 C124 0.960 . S
H189 C124 0.959 . S
H190 C127 0.930 . S
H191 C131 0.931 . S
H192 C132 0.959 . S
H193 C132 0.961 . S
H194 C132 0.959 . S
H195 C133 0.960 . S
H196 C133 0.960 . S
H197 C133 0.960 . S
H198 C169 0.980 . S
H199 C135 0.930 . S
H200 C139 0.930 . S
H201 C140 0.961 . S
H202 C140 0.960 . S
H203 C140 0.958 . S
H204 C141 0.961 . S
H205 C141 0.960 . S
H206 C141 0.960 . S
H207 C143 0.980 . S
H208 C142 0.961 . S
H209 C142 0.961 . S
H210 C142 0.959 . S
H211 C145 0.932 . S
H212 C149 0.929 . S
H213 C150 0.961 . S
H214 C150 0.959 . S
H215 C150 0.959 . S
H216 C151 0.960 . S
H217 C151 0.962 . S
H218 C151 0.961 . S
H219 C153 0.929 . S
H220 C156 0.930 . S
H221 C157 0.929 . S
H222 C160 0.930 . S
H223 C163 0.929 . S
H224 C164 0.930 . S
H225 C168 0.962 . S
H226 C168 0.959 . S
H227 C168 0.958 . S
C228 C229 1.560 . S
C228 H289 0.959 . S
C228 H290 0.959 . S
C228 H291 0.960 . S
C229 C228 1.560 . S
C229 O284 1.426 . S
C229 H288 0.980 . S
C230 C231 1.407 . S
C230 C235 1.418 . S
C230 O284 1.334 . S
C231 C230 1.407 . S
C231 C232 1.360 . S
C231 H292 0.929 . S
C232 C231 1.360 . S
C232 C233 1.401 . S
C232 C236 1.527 . S
C233 C232 1.401 . S
C233 C234 1.405 . S
C233 C266 1.587 . S
C234 C233 1.405 . S
C234 C235 1.332 . S
C234 C237 1.496 1_565 S
C235 C230 1.418 . S
C235 C234 1.332 . S
C235 H293 0.935 . S
C236 C232 1.527 . S
C236 H294 0.959 . S
C236 H295 0.961 . S
C236 H296 0.961 . S
C237 C234 1.496 1_545 S
C237 H297 0.960 . S
C237 H298 0.970 . S
C237 H299 0.961 . S
C238 C239 1.517 . S
C238 H301 0.961 . S
C238 H302 0.960 . S
C238 H303 0.959 . S
C239 C238 1.517 . S
C239 O287 1.468 . S
C239 H300 0.980 . S
C240 C241 1.349 . S
C240 C245 1.367 . S
C240 O287 1.408 . S
C241 C240 1.349 . S
C241 C242 1.407 . S
C241 H304 0.930 . S
C242 C241 1.407 . S
C242 C243 1.449 . S
C242 C246 1.535 . S
C243 C242 1.449 . S
C243 C244 1.384 . S
C243 C268 1.553 . S
C244 C243 1.384 . S
C244 C245 1.364 . S
C244 C247 1.450 . S
C245 C240 1.367 . S
C245 C244 1.364 . S
C245 H305 0.931 . S
C246 C242 1.535 . S
C246 H306 0.959 . S
C246 H307 0.961 . S
C246 H308 0.959 . S
C247 C244 1.450 . S
C247 H309 0.960 . S
C247 H310 0.960 . S
C247 H311 0.960 . S
C248 C249 1.309 . S
C248 C253 1.304 . S
C248 O286 1.435 . S
C249 C248 1.309 . S
C249 C250 1.476 . S
C249 H313 0.930 . S
C250 C249 1.476 . S
C250 C251 1.400 . S
C250 C254 1.567 . S
C251 C250 1.400 . S
C251 C252 1.373 . S
C251 C273 1.432 . S
C252 C251 1.373 . S
C252 C253 1.339 . S
C252 C255 1.530 1_545 S
C253 C248 1.304 . S
C253 C252 1.339 . S
C253 H314 0.930 1_545 S
C254 C250 1.567 . S
C254 H315 1.029 . S
C254 H316 0.960 . S
C254 H317 0.958 . S
C255 C252 1.530 1_565 S
C255 H318 0.961 . S
C255 H319 0.960 . S
C255 H320 0.960 . S
C256 C257 1.530 . S
C256 H322 0.961 . S
C256 H323 0.961 . S
C256 H324 0.959 . S
C257 C256 1.530 . S
C257 O285 1.412 . S
C257 H321 0.980 . S
C258 C259 1.288 . S
C258 C263 1.377 . S
C258 O285 1.393 . S
C259 C258 1.288 . S
C259 C260 1.369 . S
C259 H325 0.932 . S
C260 C259 1.369 . S
C260 C261 1.398 . S
C260 C264 1.527 . S
C261 C260 1.398 . S
C261 C262 1.380 . S
C261 C275 1.497 . S
C262 C261 1.380 . S
C262 C263 1.383 . S
C262 C265 1.603 1_545 S
C263 C258 1.377 . S
C263 C262 1.383 . S
C263 H326 0.929 . S
C264 C260 1.527 . S
C264 H327 0.889 1_556 S
C264 H328 0.959 . S
C264 H329 0.959 . S
C265 C262 1.603 1_565 S
C265 H330 0.960 . S
C265 H331 0.962 . S
C265 H332 0.961 . S
C266 C233 1.587 . S
C266 C267 1.360 . S
C266 C279 1.412 . S
C267 C266 1.360 . S
C267 C268 1.365 . S
C267 H333 0.929 . S
C268 C243 1.553 . S
C268 C267 1.365 . S
C268 C269 1.404 . S
C269 C268 1.404 . S
C269 C270 1.395 . S
C269 C280 1.451 . S
C270 C269 1.395 . S
C270 C271 1.353 . S
C270 H334 0.930 . S
C271 C270 1.353 . S
C271 C272 1.445 1_554 S
C271 H335 0.913 1_554 S
C272 C271 1.445 1_556 S
C272 C273 1.445 1_565 S
C272 C281 1.349 1_556 S
C273 C251 1.432 . S
C273 C272 1.445 1_545 S
C273 C274 1.370 . S
C274 C273 1.370 . S
C274 C275 1.438 . S
C274 H336 0.930 . S
C275 C261 1.497 . S
C275 C274 1.438 . S
C275 C276 1.360 . S
C276 C275 1.360 . S
C276 C277 1.401 1_556 S
C276 C281 1.413 1_546 S
C277 C276 1.401 1_554 S
C277 C278 1.347 1_545 S
C277 H337 0.939 . S
C278 C277 1.347 1_565 S
C278 C279 1.455 . S
C278 H338 0.930 . S
C279 C266 1.412 . S
C279 C278 1.455 . S
C279 C280 1.331 . S
C280 C269 1.451 . S
C280 C279 1.331 . S
C280 C281 1.592 . S
C281 C272 1.349 1_554 S
C281 C276 1.413 1_564 S
C281 C280 1.592 . S
C282 C283 1.582 . S
C282 H339 0.962 . S
C282 H340 0.959 . S
C282 H341 0.958 . S
C283 C282 1.582 . S
C283 O286 1.458 . S
C283 H312 0.980 . S
O284 C229 1.426 . S
O284 C230 1.334 . S
O285 C257 1.412 . S
O285 C258 1.393 . S
O286 C248 1.435 . S
O286 C283 1.458 . S
O287 C239 1.468 . S
O287 C240 1.408 . S
H288 C229 0.980 . S
H289 C228 0.959 . S
H290 C228 0.959 . S
H291 C228 0.960 . S
H292 C231 0.929 . S
H293 C235 0.935 . S
H294 C236 0.959 . S
H295 C236 0.961 . S
H296 C236 0.961 . S
H297 C237 0.960 . S
H298 C237 0.970 . S
H299 C237 0.961 . S
H300 C239 0.980 . S
H301 C238 0.961 . S
H302 C238 0.960 . S
H303 C238 0.959 . S
H304 C241 0.930 . S
H305 C245 0.931 . S
H306 C246 0.959 . S
H307 C246 0.961 . S
H308 C246 0.959 . S
H309 C247 0.960 . S
H310 C247 0.960 . S
H311 C247 0.960 . S
H312 C283 0.980 . S
H313 C249 0.930 . S
H314 C253 0.930 1_565 S
H315 C254 1.029 . S
H316 C254 0.960 . S
H317 C254 0.958 . S
H318 C255 0.961 . S
H319 C255 0.960 . S
H320 C255 0.960 . S
H321 C257 0.980 . S
H322 C256 0.961 . S
H323 C256 0.961 . S
H324 C256 0.959 . S
H325 C259 0.932 . S
H326 C263 0.929 . S
H327 C264 0.889 1_554 S
H328 C264 0.959 . S
H329 C264 0.959 . S
H330 C265 0.960 . S
H331 C265 0.962 . S
H332 C265 0.961 . S
H333 C267 0.929 . S
H334 C270 0.930 . S
H335 C271 0.913 1_556 S
H336 C274 0.930 . S
H337 C277 0.939 . S
H338 C278 0.930 . S
H339 C282 0.962 . S
H340 C282 0.959 . S
H341 C282 0.958 . S
C342 C343 1.560 . S
C342 H403 0.959 . S
C342 H404 0.959 . S
C342 H405 0.960 . S
C343 C342 1.560 . S
C343 O398 1.426 . S
C343 H402 0.980 . S
C344 C345 1.407 . S
C344 C349 1.418 . S
C344 O398 1.334 . S
C345 C344 1.407 . S
C345 C346 1.360 . S
C345 H406 0.929 . S
C346 C345 1.360 . S
C346 C347 1.401 . S
C346 C350 1.527 . S
C347 C346 1.401 . S
C347 C348 1.405 . S
C347 C380 1.587 . S
C348 C347 1.405 . S
C348 C349 1.332 . S
C348 C351 1.496 . S
C349 C344 1.418 . S
C349 C348 1.332 . S
C349 H407 0.929 . S
C350 C346 1.527 . S
C350 H408 0.959 . S
C350 H409 0.961 . S
C350 H410 0.961 . S
C351 C348 1.496 . S
C351 H411 0.960 . S
C351 H412 0.960 . S
C351 H413 0.961 . S
C352 C353 1.517 . S
C352 H415 0.961 . S
C352 H416 0.960 . S
C352 H417 0.959 . S
C353 C352 1.517 . S
C353 O401 1.468 . S
C353 H414 0.980 . S
C354 C355 1.349 . S
C354 C359 1.367 . S
C354 O401 1.408 . S
C355 C354 1.349 . S
C355 C356 1.407 . S
C355 H418 0.930 . S
C356 C355 1.407 . S
C356 C357 1.449 . S
C356 C360 1.535 . S
C357 C356 1.449 . S
C357 C358 1.384 . S
C357 C382 1.553 . S
C358 C357 1.384 . S
C358 C359 1.364 . S
C358 C361 1.450 . S
C359 C354 1.367 . S
C359 C358 1.364 . S
C359 H419 0.931 . S
C360 C356 1.535 . S
C360 H420 0.959 . S
C360 H421 0.961 . S
C360 H422 0.959 . S
C361 C358 1.450 . S
C361 H423 0.960 . S
C361 H424 0.960 . S
C361 H425 0.960 . S
C362 C363 1.309 . S
C362 C367 1.304 . S
C362 O400 1.435 . S
C363 C362 1.309 . S
C363 C364 1.476 . S
C363 H427 0.930 . S
C364 C363 1.476 . S
C364 C365 1.400 . S
C364 C368 1.567 . S
C365 C364 1.400 . S
C365 C366 1.373 . S
C365 C387 1.432 . S
C366 C365 1.373 . S
C366 C367 1.339 . S
C366 C369 1.530 . S
C367 C362 1.304 . S
C367 C366 1.339 . S
C367 H428 0.930 . S
C368 C364 1.567 . S
C368 H429 0.961 . S
C368 H430 0.960 . S
C368 H431 0.958 . S
C369 C366 1.530 . S
C369 H432 0.961 . S
C369 H433 0.960 . S
C369 H434 0.960 . S
C370 C371 1.530 . S
C370 H436 0.961 . S
C370 H437 0.961 . S
C370 H438 0.959 . S
C371 C370 1.530 . S
C371 O399 1.412 . S
C371 H435 0.980 . S
C372 C373 1.288 . S
C372 C377 1.377 . S
C372 O399 1.393 . S
C373 C372 1.288 . S
C373 C374 1.369 . S
C373 H439 0.932 . S
C374 C373 1.369 . S
C374 C375 1.398 . S
C374 C378 1.527 . S
C375 C374 1.398 . S
C375 C376 1.380 . S
C375 C389 1.497 . S
C376 C375 1.380 . S
C376 C377 1.383 . S
C376 C379 1.603 . S
C377 C372 1.377 . S
C377 C376 1.383 . S
C377 H440 0.929 . S
C378 C374 1.527 . S
C378 H441 0.961 . S
C378 H442 0.959 . S
C378 H443 0.959 . S
C379 C376 1.603 . S
C379 H444 0.960 . S
C379 H445 0.962 . S
C379 H446 0.961 . S
C380 C347 1.587 . S
C380 C381 1.360 . S
C380 C393 1.412 . S
C381 C380 1.360 . S
C381 C382 1.365 . S
C381 H447 0.929 . S
C382 C357 1.553 . S
C382 C381 1.365 . S
C382 C383 1.404 . S
C383 C382 1.404 . S
C383 C384 1.395 . S
C383 C394 1.451 . S
C384 C383 1.395 . S
C384 C385 1.322 . S
C384 H448 0.930 . S
C385 C384 1.322 . S
C385 C386 1.459 . S
C385 H449 0.929 . S
C386 C385 1.459 . S
C386 C387 1.445 . S
C386 C395 1.395 . S
C387 C365 1.432 . S
C387 C386 1.445 . S
C387 C388 1.370 . S
C388 C387 1.370 . S
C388 C389 1.438 . S
C388 H450 0.930 . S
C389 C375 1.497 . S
C389 C388 1.438 . S
C389 C390 1.360 . S
C390 C389 1.360 . S
C390 C391 1.401 . S
C390 C395 1.446 . S
C391 C390 1.401 . S
C391 C392 1.347 . S
C391 H451 0.929 . S
C392 C391 1.347 . S
C392 C393 1.455 . S
C392 H452 0.930 . S
C393 C380 1.412 . S
C393 C392 1.455 . S
C393 C394 1.331 . S
C394 C383 1.451 . S
C394 C393 1.331 . S
C394 C395 1.497 . S
C395 C386 1.395 . S
C395 C390 1.446 . S
C395 C394 1.497 . S
C396 C397 1.582 . S
C396 H453 0.962 . S
C396 H454 0.959 . S
C396 H455 0.958 . S
C397 C396 1.582 . S
C397 O400 1.458 . S
C397 H426 0.980 . S
O398 C343 1.426 . S
O398 C344 1.334 . S
O399 C371 1.412 . S
O399 C372 1.393 . S
O400 C362 1.435 . S
O400 C397 1.458 . S
O401 C353 1.468 . S
O401 C354 1.408 . S
H402 C343 0.980 . S
H403 C342 0.959 . S
H404 C342 0.959 . S
H405 C342 0.960 . S
H406 C345 0.929 . S
H407 C349 0.929 . S
H408 C350 0.959 . S
H409 C350 0.961 . S
H410 C350 0.961 . S
H411 C351 0.960 . S
H412 C351 0.960 . S
H413 C351 0.961 . S
H414 C353 0.980 . S
H415 C352 0.961 . S
H416 C352 0.960 . S
H417 C352 0.959 . S
H418 C355 0.930 . S
H419 C359 0.931 . S
H420 C360 0.959 . S
H421 C360 0.961 . S
H422 C360 0.959 . S
H423 C361 0.960 . S
H424 C361 0.960 . S
H425 C361 0.960 . S
H426 C397 0.980 . S
H427 C363 0.930 . S
H428 C367 0.930 . S
H429 C368 0.961 . S
H430 C368 0.960 . S
H431 C368 0.958 . S
H432 C369 0.961 . S
H433 C369 0.960 . S
H434 C369 0.960 . S
H435 C371 0.980 . S
H436 C370 0.961 . S
H437 C370 0.961 . S
H438 C370 0.959 . S
H439 C373 0.932 . S
H440 C377 0.929 . S
H441 C378 0.961 . S
H442 C378 0.959 . S
H443 C378 0.959 . S
H444 C379 0.960 . S
H445 C379 0.962 . S
H446 C379 0.961 . S
H447 C381 0.929 . S
H448 C384 0.930 . S
H449 C385 0.929 . S
H450 C388 0.930 . S
H451 C391 0.929 . S
H452 C392 0.930 . S
H453 C396 0.962 . S
H454 C396 0.959 . S
H455 C396 0.958 . S
C456 C457 1.560 . S
C456 H517 0.959 . S
C456 H518 0.959 . S
C456 H519 0.960 . S
C457 C456 1.560 . S
C457 O512 1.426 . S
C457 H516 0.980 . S
C458 C459 1.407 . S
C458 C463 1.418 . S
C458 O512 1.334 . S
C459 C458 1.407 . S
C459 C460 1.360 . S
C459 H520 0.929 . S
C460 C459 1.360 . S
C460 C461 1.401 . S
C460 C464 1.527 . S
C461 C460 1.401 . S
C461 C462 1.405 . S
C461 C494 1.587 . S
C462 C461 1.405 . S
C462 C463 1.332 . S
C462 C465 1.496 . S
C463 C458 1.418 . S
C463 C462 1.332 . S
C463 H521 0.929 . S
C464 C460 1.527 . S
C464 H522 0.959 . S
C464 H523 0.961 . S
C464 H524 0.961 . S
C465 C462 1.496 . S
C465 H525 0.960 . S
C465 H526 0.960 . S
C465 H527 0.961 . S
C466 C467 1.517 1_565 S
C466 H529 0.961 . S
C466 H530 0.960 . S
C466 H531 0.959 . S
C467 C466 1.517 1_545 S
C467 O515 1.468 . S
C467 H528 0.980 . S
C468 C469 1.349 . S
C468 C473 1.367 . S
C468 O515 1.408 . S
C469 C468 1.349 . S
C469 C470 1.407 . S
C469 H532 0.930 . S
C470 C469 1.407 . S
C470 C471 1.449 . S
C470 C474 1.535 . S
C471 C470 1.449 . S
C471 C472 1.384 . S
C471 C496 1.553 . S
C472 C471 1.384 . S
C472 C473 1.364 . S
C472 C475 1.450 . S
C473 C468 1.367 . S
C473 C472 1.364 . S
C473 H533 0.931 . S
C474 C470 1.535 . S
C474 H534 0.959 . S
C474 H535 0.961 . S
C474 H536 0.959 . S
C475 C472 1.450 . S
C475 H537 0.960 . S
C475 H538 0.960 . S
C475 H539 0.960 . S
C476 C477 1.309 . S
C476 C481 1.304 . S
C476 O514 1.435 . S
C477 C476 1.309 . S
C477 C478 1.476 . S
C477 H541 0.930 . S
C478 C477 1.476 . S
C478 C479 1.400 . S
C478 C482 1.567 . S
C479 C478 1.400 . S
C479 C480 1.373 . S
C479 C501 1.432 . S
C480 C479 1.373 . S
C480 C481 1.339 . S
C480 C483 1.530 . S
C481 C476 1.304 . S
C481 C480 1.339 . S
C481 H542 0.930 . S
C482 C478 1.567 . S
C482 H543 0.961 . S
C482 H544 0.960 . S
C482 H545 0.958 . S
C483 C480 1.530 . S
C483 H546 0.961 . S
C483 H547 0.960 . S
C483 H548 0.960 . S
C484 C485 1.530 . S
C484 H550 0.961 . S
C484 H551 0.961 . S
C484 H552 0.959 . S
C485 C484 1.530 . S
C485 O513 1.412 . S
C485 H549 0.980 . S
C486 C487 1.288 . S
C486 C491 1.377 . S
C486 O513 1.393 . S
C487 C486 1.288 . S
C487 C488 1.369 . S
C487 H553 0.932 . S
C488 C487 1.369 . S
C488 C489 1.398 . S
C488 C492 1.527 . S
C489 C488 1.398 . S
C489 C490 1.380 . S
C489 C503 1.497 . S
C490 C489 1.380 . S
C490 C491 1.383 . S
C490 C493 1.603 . S
C491 C486 1.377 . S
C491 C490 1.383 . S
C491 H554 0.929 . S
C492 C488 1.527 . S
C492 H555 0.961 . S
C492 H556 0.959 . S
C492 H557 0.959 . S
C493 C490 1.603 . S
C493 H558 0.960 . S
C493 H559 0.962 . S
C493 H560 0.961 . S
C494 C461 1.587 . S
C494 C495 1.360 . S
C494 C507 1.412 . S
C495 C494 1.360 . S
C495 C496 1.365 . S
C495 H561 0.929 . S
C496 C471 1.553 . S
C496 C495 1.365 . S
C496 C497 1.404 . S
C497 C496 1.404 . S
C497 C498 1.395 . S
C497 C508 1.451 . S
C498 C497 1.395 . S
C498 C499 1.322 . S
C498 H562 0.930 . S
C499 C498 1.322 . S
C499 C500 1.459 . S
C499 H563 0.929 . S
C500 C499 1.459 . S
C500 C501 1.445 . S
C500 C509 1.395 . S
C501 C479 1.432 . S
C501 C500 1.445 . S
C501 C502 1.370 . S
C502 C501 1.370 . S
C502 C503 1.438 . S
C502 H564 0.930 . S
C503 C489 1.497 . S
C503 C502 1.438 . S
C503 C504 1.360 . S
C504 C503 1.360 . S
C504 C505 1.401 . S
C504 C509 1.446 . S
C505 C504 1.401 . S
C505 C506 1.347 . S
C505 H565 0.929 . S
C506 C505 1.347 . S
C506 C507 1.455 . S
C506 H566 0.930 . S
C507 C494 1.412 . S
C507 C506 1.455 . S
C507 C508 1.331 . S
C508 C497 1.451 . S
C508 C507 1.331 . S
C508 C509 1.497 . S
C509 C500 1.395 . S
C509 C504 1.446 . S
C509 C508 1.497 . S
C510 C511 1.582 1_565 S
C510 H567 0.962 . S
C510 H568 0.959 . S
C510 H569 0.958 . S
C511 C510 1.582 1_545 S
C511 O514 1.458 . S
C511 H540 0.980 1_545 S
O512 C457 1.426 . S
O512 C458 1.334 . S
O513 C485 1.412 . S
O513 C486 1.393 . S
O514 C476 1.435 . S
O514 C511 1.458 . S
O515 C467 1.468 . S
O515 C468 1.408 . S
H516 C457 0.980 . S
H517 C456 0.959 . S
H518 C456 0.959 . S
H519 C456 0.960 . S
H520 C459 0.929 . S
H521 C463 0.929 . S
H522 C464 0.959 . S
H523 C464 0.961 . S
H524 C464 0.961 . S
H525 C465 0.960 . S
H526 C465 0.960 . S
H527 C465 0.961 . S
H528 C467 0.980 . S
H529 C466 0.961 . S
H530 C466 0.960 . S
H531 C466 0.959 . S
H532 C469 0.930 . S
H533 C473 0.931 . S
H534 C474 0.959 . S
H535 C474 0.961 . S
H536 C474 0.959 . S
H537 C475 0.960 . S
H538 C475 0.960 . S
H539 C475 0.960 . S
H540 C511 0.980 1_565 S
H541 C477 0.930 . S
H542 C481 0.930 . S
H543 C482 0.961 . S
H544 C482 0.960 . S
H545 C482 0.958 . S
H546 C483 0.961 . S
H547 C483 0.960 . S
H548 C483 0.960 . S
H549 C485 0.980 . S
H550 C484 0.961 . S
H551 C484 0.961 . S
H552 C484 0.959 . S
H553 C487 0.932 . S
H554 C491 0.929 . S
H555 C492 0.961 . S
H556 C492 0.959 . S
H557 C492 0.959 . S
H558 C493 0.960 . S
H559 C493 0.962 . S
H560 C493 0.961 . S
H561 C495 0.929 . S
H562 C498 0.930 . S
H563 C499 0.929 . S
H564 C502 0.930 . S
H565 C505 0.929 . S
H566 C506 0.930 . S
H567 C510 0.962 . S
H568 C510 0.959 . S
H569 C510 0.958 . S
C570 C571 1.560 . S
C570 H631 0.959 . S
C570 H632 0.959 . S
C570 H633 0.960 . S
C571 C570 1.560 . S
C571 O626 1.426 . S
C571 H630 0.980 . S
C572 C573 1.407 . S
C572 C577 1.418 . S
C572 O626 1.334 . S
C573 C572 1.407 . S
C573 C574 1.360 . S
C573 H634 0.929 . S
C574 C573 1.360 . S
C574 C575 1.401 . S
C574 C578 1.527 . S
C575 C574 1.401 . S
C575 C576 1.405 . S
C575 C608 1.587 . S
C576 C575 1.405 . S
C576 C577 1.332 . S
C576 C579 1.496 . S
C577 C572 1.418 . S
C577 C576 1.332 . S
C577 H635 0.929 . S
C578 C574 1.527 . S
C578 H636 0.959 . S
C578 H637 0.961 . S
C578 H638 0.961 . S
C579 C576 1.496 . S
C579 H639 0.960 . S
C579 H640 0.960 . S
C579 H641 0.961 . S
C580 C581 1.517 1_545 S
C580 H643 0.961 . S
C580 H644 0.960 . S
C580 H645 0.959 . S
C581 C580 1.517 1_565 S
C581 O629 1.468 . S
C581 H642 0.980 . S
C582 C583 1.349 . S
C582 C587 1.367 . S
C582 O629 1.408 . S
C583 C582 1.349 . S
C583 C584 1.407 . S
C583 H646 0.930 . S
C584 C583 1.407 . S
C584 C585 1.449 . S
C584 C588 1.535 . S
C585 C584 1.449 . S
C585 C586 1.384 . S
C585 C610 1.553 . S
C586 C585 1.384 . S
C586 C587 1.364 . S
C586 C589 1.450 . S
C587 C582 1.367 . S
C587 C586 1.364 . S
C587 H647 0.931 . S
C588 C584 1.535 . S
C588 H648 0.959 . S
C588 H649 0.961 . S
C588 H650 0.959 . S
C589 C586 1.450 . S
C589 H651 0.960 . S
C589 H652 0.960 . S
C589 H653 0.960 . S
C590 C591 1.309 . S
C590 C595 1.304 . S
C590 O628 1.435 . S
C591 C590 1.309 . S
C591 C592 1.476 . S
C591 H655 0.930 . S
C592 C591 1.476 . S
C592 C593 1.400 . S
C592 C596 1.567 . S
C593 C592 1.400 . S
C593 C594 1.373 . S
C593 C615 1.432 . S
C594 C593 1.373 . S
C594 C595 1.339 . S
C594 C597 1.530 . S
C595 C590 1.304 . S
C595 C594 1.339 . S
C595 H656 0.930 . S
C596 C592 1.567 . S
C596 H657 0.961 . S
C596 H658 0.960 . S
C596 H659 0.958 . S
C597 C594 1.530 . S
C597 H660 0.961 . S
C597 H661 0.960 . S
C597 H662 0.960 . S
C598 C599 1.530 . S
C598 H664 0.961 . S
C598 H665 0.961 . S
C598 H666 0.959 . S
C599 C598 1.530 . S
C599 O627 1.412 . S
C599 H663 0.980 . S
C600 C601 1.288 . S
C600 C605 1.377 . S
C600 O627 1.393 . S
C601 C600 1.288 . S
C601 C602 1.369 . S
C601 H667 0.932 . S
C602 C601 1.369 . S
C602 C603 1.398 . S
C602 C606 1.527 . S
C603 C602 1.398 . S
C603 C604 1.380 . S
C603 C617 1.497 . S
C604 C603 1.380 . S
C604 C605 1.383 . S
C604 C607 1.603 . S
C605 C600 1.377 . S
C605 C604 1.383 . S
C605 H668 0.929 . S
C606 C602 1.527 . S
C606 H669 0.961 . S
C606 H670 0.959 . S
C606 H671 0.959 . S
C607 C604 1.603 . S
C607 H672 0.960 . S
C607 H673 0.962 . S
C607 H674 0.961 . S
C608 C575 1.587 . S
C608 C609 1.360 . S
C608 C621 1.412 . S
C609 C608 1.360 . S
C609 C610 1.365 . S
C609 H675 0.929 . S
C610 C585 1.553 . S
C610 C609 1.365 . S
C610 C611 1.404 . S
C611 C610 1.404 . S
C611 C612 1.395 . S
C611 C622 1.451 . S
C612 C611 1.395 . S
C612 C613 1.322 . S
C612 H676 0.930 . S
C613 C612 1.322 . S
C613 C614 1.459 . S
C613 H677 0.929 . S
C614 C613 1.459 . S
C614 C615 1.445 . S
C614 C623 1.395 . S
C615 C593 1.432 . S
C615 C614 1.445 . S
C615 C616 1.370 . S
C616 C615 1.370 . S
C616 C617 1.438 . S
C616 H678 0.930 . S
C617 C603 1.497 . S
C617 C616 1.438 . S
C617 C618 1.360 . S
C618 C617 1.360 . S
C618 C619 1.401 . S
C618 C623 1.446 . S
C619 C618 1.401 . S
C619 C620 1.347 . S
C619 H679 0.929 . S
C620 C619 1.347 . S
C620 C621 1.455 . S
C620 H680 0.930 . S
C621 C608 1.412 . S
C621 C620 1.455 . S
C621 C622 1.331 . S
C622 C611 1.451 . S
C622 C621 1.331 . S
C622 C623 1.497 . S
C623 C614 1.395 . S
C623 C618 1.446 . S
C623 C622 1.497 . S
C624 C625 1.582 . S
C624 H681 0.962 . S
C624 H682 0.959 . S
C624 H683 0.958 . S
C625 C624 1.582 . S
C625 O628 1.458 1_545 S
C625 H654 0.980 . S
O626 C571 1.426 . S
O626 C572 1.334 . S
O627 C599 1.412 . S
O627 C600 1.393 . S
O628 C590 1.435 . S
O628 C625 1.458 1_565 S
O629 C581 1.468 . S
O629 C582 1.408 . S
H630 C571 0.980 . S
H631 C570 0.959 . S
H632 C570 0.959 . S
H633 C570 0.960 . S
H634 C573 0.929 . S
H635 C577 0.929 . S
H636 C578 0.959 . S
H637 C578 0.961 . S
H638 C578 0.961 . S
H639 C579 0.960 . S
H640 C579 0.960 . S
H641 C579 0.961 . S
H642 C581 0.980 . S
H643 C580 0.961 . S
H644 C580 0.960 . S
H645 C580 0.959 . S
H646 C583 0.930 . S
H647 C587 0.931 . S
H648 C588 0.959 . S
H649 C588 0.961 . S
H650 C588 0.959 . S
H651 C589 0.960 . S
H652 C589 0.960 . S
H653 C589 0.960 . S
H654 C625 0.980 . S
H655 C591 0.930 . S
H656 C595 0.930 . S
H657 C596 0.961 . S
H658 C596 0.960 . S
H659 C596 0.958 . S
H660 C597 0.961 . S
H661 C597 0.960 . S
H662 C597 0.960 . S
H663 C599 0.980 . S
H664 C598 0.961 . S
H665 C598 0.961 . S
H666 C598 0.959 . S
H667 C601 0.932 . S
H668 C605 0.929 . S
H669 C606 0.961 . S
H670 C606 0.959 . S
H671 C606 0.959 . S
H672 C607 0.960 . S
H673 C607 0.962 . S
H674 C607 0.961 . S
H675 C609 0.929 . S
H676 C612 0.930 . S
H677 C613 0.929 . S
H678 C616 0.930 . S
H679 C619 0.929 . S
H680 C620 0.930 . S
H681 C624 0.962 . S
H682 C624 0.959 . S
H683 C624 0.958 . S
C684 C685 1.560 . S
C684 H745 0.959 . S
C684 H746 0.959 . S
C684 H747 0.960 . S
C685 C684 1.560 . S
C685 O740 1.426 . S
C685 H744 0.980 . S
C686 C687 1.407 . S
C686 C691 1.418 . S
C686 O740 1.334 . S
C687 C686 1.407 . S
C687 C688 1.360 . S
C687 H748 0.929 . S
C688 C687 1.360 . S
C688 C689 1.401 . S
C688 C692 1.527 . S
C689 C688 1.401 . S
C689 C690 1.405 . S
C689 C722 1.587 . S
C690 C689 1.405 . S
C690 C691 1.332 . S
C690 C693 1.496 . S
C691 C686 1.418 . S
C691 C690 1.332 . S
C691 H749 0.929 . S
C692 C688 1.527 . S
C692 H750 0.959 . S
C692 H751 0.961 . S
C692 H752 0.961 . S
C693 C690 1.496 . S
C693 H753 0.960 . S
C693 H754 0.960 . S
C693 H755 0.961 . S
C694 C695 1.517 . S
C694 H757 0.961 . S
C694 H758 0.960 . S
C694 H759 0.959 . S
C695 C694 1.517 . S
C695 O743 1.468 . S
C695 H756 0.980 . S
C696 C697 1.349 . S
C696 C701 1.367 . S
C696 O743 1.408 . S
C697 C696 1.349 . S
C697 C698 1.407 . S
C697 H760 0.930 . S
C698 C697 1.407 . S
C698 C699 1.449 . S
C698 C702 1.535 . S
C699 C698 1.449 . S
C699 C700 1.384 . S
C699 C724 1.553 . S
C700 C699 1.384 . S
C700 C701 1.364 . S
C700 C703 1.450 . S
C701 C696 1.367 . S
C701 C700 1.364 . S
C701 H761 0.931 . S
C702 C698 1.535 . S
C702 H762 0.959 . S
C702 H763 0.961 . S
C702 H764 0.959 . S
C703 C700 1.450 . S
C703 H765 0.960 . S
C703 H766 0.960 . S
C703 H767 0.960 . S
C704 C705 1.309 . S
C704 C709 1.304 . S
C704 O742 1.435 . S
C705 C704 1.309 . S
C705 C706 1.476 . S
C705 H769 0.930 . S
C706 C705 1.476 . S
C706 C707 1.400 . S
C706 C710 1.567 . S
C707 C706 1.400 . S
C707 C708 1.373 . S
C707 C729 1.432 . S
C708 C707 1.373 . S
C708 C709 1.339 . S
C708 C711 1.530 . S
C709 C704 1.304 . S
C709 C708 1.339 . S
C709 H770 0.930 . S
C710 C706 1.567 . S
C710 H771 0.961 . S
C710 H772 0.960 . S
C710 H773 0.958 . S
C711 C708 1.530 . S
C711 H774 0.961 . S
C711 H775 0.960 1_556 S
C711 H776 0.960 . S
C712 C713 1.530 . S
C712 H778 0.961 . S
C712 H779 0.961 . S
C712 H780 0.959 . S
C713 C712 1.530 . S
C713 O741 1.412 . S
C713 H777 0.980 . S
C714 C715 1.288 . S
C714 C719 1.377 . S
C714 O741 1.393 . S
C715 C714 1.288 . S
C715 C716 1.369 . S
C715 H781 0.932 . S
C716 C715 1.369 . S
C716 C717 1.398 . S
C716 C720 1.527 . S
C717 C716 1.398 . S
C717 C718 1.380 . S
C717 C731 1.497 . S
C718 C717 1.380 . S
C718 C719 1.383 . S
C718 C721 1.603 . S
C719 C714 1.377 . S
C719 C718 1.383 . S
C719 H782 0.929 . S
C720 C716 1.527 . S
C720 H783 0.961 . S
C720 H784 0.959 . S
C720 H785 0.959 . S
C721 C718 1.603 . S
C721 H786 0.960 . S
C721 H787 0.962 . S
C721 H788 0.964 1_556 S
C722 C689 1.587 . S
C722 C723 1.360 . S
C722 C735 1.412 . S
C723 C722 1.360 . S
C723 C724 1.365 . S
C723 H789 0.929 . S
C724 C699 1.553 . S
C724 C723 1.365 . S
C724 C725 1.404 . S
C725 C724 1.404 . S
C725 C726 1.395 . S
C725 C736 1.451 . S
C726 C725 1.395 . S
C726 C727 1.322 . S
C726 H790 0.930 . S
C727 C726 1.322 . S
C727 C728 1.459 . S
C727 H791 0.929 . S
C728 C727 1.459 . S
C728 C729 1.445 1_554 S
C728 C737 1.395 . S
C729 C707 1.432 . S
C729 C728 1.445 1_556 S
C729 C730 1.370 . S
C730 C729 1.370 . S
C730 C731 1.438 . S
C730 H792 0.930 . S
C731 C717 1.497 . S
C731 C730 1.438 . S
C731 C732 1.360 1_556 S
C732 C731 1.360 1_554 S
C732 C733 1.401 . S
C732 C737 1.446 . S
C733 C732 1.401 . S
C733 C734 1.347 . S
C733 H793 0.929 . S
C734 C733 1.347 . S
C734 C735 1.455 . S
C734 H794 0.930 . S
C735 C722 1.412 . S
C735 C734 1.455 . S
C735 C736 1.331 . S
C736 C725 1.451 . S
C736 C735 1.331 . S
C736 C737 1.497 . S
C737 C728 1.395 . S
C737 C732 1.446 . S
C737 C736 1.497 . S
C738 C739 1.582 . S
C738 H795 0.962 . S
C738 H796 0.959 . S
C738 H797 0.958 . S
C739 C738 1.582 . S
C739 O742 1.458 . S
C739 H768 0.980 . S
O740 C685 1.426 . S
O740 C686 1.334 . S
O741 C713 1.412 . S
O741 C714 1.393 . S
O742 C704 1.435 . S
O742 C739 1.458 . S
O743 C695 1.468 . S
O743 C696 1.408 . S
H744 C685 0.980 . S
H745 C684 0.959 . S
H746 C684 0.959 . S
H747 C684 0.960 . S
H748 C687 0.929 . S
H749 C691 0.929 . S
H750 C692 0.959 . S
H751 C692 0.961 . S
H752 C692 0.961 . S
H753 C693 0.960 . S
H754 C693 0.960 . S
H755 C693 0.961 . S
H756 C695 0.980 . S
H757 C694 0.961 . S
H758 C694 0.960 . S
H759 C694 0.959 . S
H760 C697 0.930 . S
H761 C701 0.931 . S
H762 C702 0.959 . S
H763 C702 0.961 . S
H764 C702 0.959 . S
H765 C703 0.960 . S
H766 C703 0.960 . S
H767 C703 0.960 . S
H768 C739 0.980 . S
H769 C705 0.930 . S
H770 C709 0.930 . S
H771 C710 0.961 . S
H772 C710 0.960 . S
H773 C710 0.958 . S
H774 C711 0.961 . S
H775 C711 0.960 1_554 S
H776 C711 0.960 . S
H777 C713 0.980 . S
H778 C712 0.961 . S
H779 C712 0.961 . S
H780 C712 0.959 . S
H781 C715 0.932 . S
H782 C719 0.929 . S
H783 C720 0.961 . S
H784 C720 0.959 . S
H785 C720 0.959 . S
H786 C721 0.960 . S
H787 C721 0.962 . S
H788 C721 0.964 1_554 S
H789 C723 0.929 . S
H790 C726 0.930 . S
H791 C727 0.929 . S
H792 C730 0.930 . S
H793 C733 0.929 . S
H794 C734 0.930 . S
H795 C738 0.962 . S
H796 C738 0.959 . S
H797 C738 0.958 . S
C798 C799 1.560 . S
C798 H859 0.959 . S
C798 H860 0.959 . S
C798 H861 0.960 . S
C799 C798 1.560 . S
C799 O854 1.426 . S
C799 H858 0.980 . S
C800 C801 1.407 . S
C800 C805 1.418 . S
C800 O854 1.334 1_455 S
C801 C800 1.407 . S
C801 C802 1.360 . S
C801 H862 0.929 1_455 S
C802 C801 1.360 . S
C802 C803 1.401 . S
C802 C806 1.527 . S
C803 C802 1.401 . S
C803 C804 1.405 . S
C803 C836 1.587 . S
C804 C803 1.405 . S
C804 C805 1.332 . S
C804 C807 1.496 . S
C805 C800 1.418 . S
C805 C804 1.332 . S
C805 H863 0.929 . S
C806 C802 1.527 . S
C806 H864 0.959 . S
C806 H865 0.961 . S
C806 H866 0.961 . S
C807 C804 1.496 . S
C807 H867 0.960 . S
C807 H868 0.960 . S
C807 H869 0.961 . S
C808 C809 1.517 . S
C808 H871 0.961 . S
C808 H872 0.960 . S
C808 H873 0.959 . S
C809 C808 1.517 . S
C809 O857 1.468 . S
C809 H870 0.980 . S
C810 C811 1.349 . S
C810 C815 1.367 . S
C810 O857 1.408 . S
C811 C810 1.349 . S
C811 C812 1.407 . S
C811 H874 0.930 . S
C812 C811 1.407 . S
C812 C813 1.449 . S
C812 C816 1.535 . S
C813 C812 1.449 . S
C813 C814 1.384 . S
C813 C838 1.553 . S
C814 C813 1.384 . S
C814 C815 1.364 . S
C814 C817 1.450 . S
C815 C810 1.367 . S
C815 C814 1.364 . S
C815 H875 0.931 . S
C816 C812 1.535 . S
C816 H876 0.959 . S
C816 H877 0.961 . S
C816 H878 0.959 . S
C817 C814 1.450 . S
C817 H879 0.960 . S
C817 H880 0.960 . S
C817 H881 0.960 . S
C818 C819 1.309 . S
C818 C823 1.304 . S
C818 O856 1.435 . S
C819 C818 1.309 . S
C819 C820 1.476 . S
C819 H883 0.930 . S
C820 C819 1.476 . S
C820 C821 1.400 . S
C820 C824 1.567 . S
C821 C820 1.400 . S
C821 C822 1.373 . S
C821 C843 1.432 . S
C822 C821 1.373 . S
C822 C823 1.339 . S
C822 C825 1.530 . S
C823 C818 1.304 . S
C823 C822 1.339 . S
C823 H884 0.930 . S
C824 C820 1.567 . S
C824 H885 0.961 . S
C824 H886 0.960 . S
C824 H887 0.958 . S
C825 C822 1.530 . S
C825 H888 0.961 . S
C825 H889 0.960 . S
C825 H890 0.960 . S
C826 C827 1.530 . S
C826 H892 0.961 . S
C826 H893 0.961 . S
C826 H894 0.959 . S
C827 C826 1.530 . S
C827 O855 1.412 . S
C827 H891 0.980 . S
C828 C829 1.288 . S
C828 C833 1.377 . S
C828 O855 1.393 1_455 S
C829 C828 1.288 . S
C829 C830 1.369 . S
C829 H895 0.932 . S
C830 C829 1.369 . S
C830 C831 1.398 . S
C830 C834 1.527 . S
C831 C830 1.398 . S
C831 C832 1.380 . S
C831 C845 1.497 . S
C832 C831 1.380 . S
C832 C833 1.383 . S
C832 C835 1.603 . S
C833 C828 1.377 . S
C833 C832 1.383 . S
C833 H896 0.927 . S
C834 C830 1.527 . S
C834 H897 0.961 . S
C834 H898 0.959 . S
C834 H899 0.959 . S
C835 C832 1.603 . S
C835 H900 0.960 . S
C835 H901 0.962 . S
C835 H902 0.961 . S
C836 C803 1.587 . S
C836 C837 1.360 . S
C836 C849 1.412 . S
C837 C836 1.360 . S
C837 C838 1.365 . S
C837 H903 0.929 . S
C838 C813 1.553 . S
C838 C837 1.365 . S
C838 C839 1.404 . S
C839 C838 1.404 . S
C839 C840 1.395 . S
C839 C850 1.451 . S
C840 C839 1.395 . S
C840 C841 1.322 . S
C840 H904 0.930 . S
C841 C840 1.322 . S
C841 C842 1.459 . S
C841 H905 0.929 . S
C842 C841 1.459 . S
C842 C843 1.445 . S
C842 C851 1.395 . S
C843 C821 1.432 . S
C843 C842 1.445 . S
C843 C844 1.370 . S
C844 C843 1.370 . S
C844 C845 1.438 . S
C844 H906 0.930 . S
C845 C831 1.497 . S
C845 C844 1.438 . S
C845 C846 1.360 . S
C846 C845 1.360 . S
C846 C847 1.401 . S
C846 C851 1.446 . S
C847 C846 1.401 . S
C847 C848 1.347 . S
C847 H907 0.929 . S
C848 C847 1.347 . S
C848 C849 1.455 . S
C848 H908 0.930 . S
C849 C836 1.412 . S
C849 C848 1.455 . S
C849 C850 1.331 . S
C850 C839 1.451 . S
C850 C849 1.331 . S
C850 C851 1.497 . S
C851 C842 1.395 . S
C851 C846 1.446 . S
C851 C850 1.497 . S
C852 C853 1.582 . S
C852 H909 0.962 . S
C852 H910 0.959 . S
C852 H911 0.958 . S
C853 C852 1.582 . S
C853 O856 1.458 . S
C853 H882 0.980 . S
O854 C799 1.426 . S
O854 C800 1.334 1_655 S
O855 C827 1.412 . S
O855 C828 1.393 1_655 S
O856 C818 1.435 . S
O856 C853 1.458 . S
O857 C809 1.468 . S
O857 C810 1.408 . S
H858 C799 0.980 . S
H859 C798 0.959 . S
H860 C798 0.959 . S
H861 C798 0.960 . S
H862 C801 0.929 1_655 S
H863 C805 0.929 . S
H864 C806 0.959 . S
H865 C806 0.961 . S
H866 C806 0.961 . S
H867 C807 0.960 . S
H868 C807 0.960 . S
H869 C807 0.961 . S
H870 C809 0.980 . S
H871 C808 0.961 . S
H872 C808 0.960 . S
H873 C808 0.959 . S
H874 C811 0.930 . S
H875 C815 0.931 . S
H876 C816 0.959 . S
H877 C816 0.961 . S
H878 C816 0.959 . S
H879 C817 0.960 . S
H880 C817 0.960 . S
H881 C817 0.960 . S
H882 C853 0.980 . S
H883 C819 0.930 . S
H884 C823 0.930 . S
H885 C824 0.961 . S
H886 C824 0.960 . S
H887 C824 0.958 . S
H888 C825 0.961 . S
H889 C825 0.960 . S
H890 C825 0.960 . S
H891 C827 0.980 . S
H892 C826 0.961 . S
H893 C826 0.961 . S
H894 C826 0.959 . S
H895 C829 0.932 . S
H896 C833 0.927 . S
H897 C834 0.961 . S
H898 C834 0.959 . S
H899 C834 0.959 . S
H900 C835 0.960 . S
H901 C835 0.962 . S
H902 C835 0.961 . S
H903 C837 0.929 . S
H904 C840 0.930 . S
H905 C841 0.929 . S
H906 C844 0.930 . S
H907 C847 0.929 . S
H908 C848 0.930 . S
H909 C852 0.962 . S
H910 C852 0.959 . S
H911 C852 0.958 . S
C912 O939 1.312 . S
C912 O940 1.208 . S
C913 O934 1.331 1_655 S
C913 O937 1.244 . S
C914 O936 1.264 1_655 S
C914 O938 1.273 . S
Mg915 O917 1.936 . S
Mg915 O924 2.081 . S
Mg915 O926 2.023 . S
Mg915 O930 2.031 . S
Mg915 O939 2.291 . S
Mg916 O917 1.963 . S
Mg916 O927 1.942 . S
Mg916 O928 1.955 . S
Mg916 O935 1.986 . S
O917 Mg915 1.936 . S
O917 Mg916 1.963 . S
O917 Mg918 1.915 . S
Mg918 O917 1.915 . S
Mg918 O919 1.915 . S
Mg918 O923 2.013 . S
Mg918 O929 2.114 . S
Mg918 O933 2.013 . S
Mg918 O939 2.114 . S
O919 Mg918 1.915 . S
O919 Mg920 1.936 . S
O919 Mg921 1.963 1_455 S
Mg920 O919 1.936 . S
Mg920 O929 2.291 . S
Mg920 O934 2.081 . S
Mg920 O936 2.023 . S
Mg920 O940 2.031 . S
Mg921 O919 1.963 1_655 S
Mg921 O925 1.986 . S
Mg921 O937 1.942 . S
Mg921 O938 1.955 . S
C922 O933 1.191 . S
C922 O935 1.307 . S
O923 Mg918 2.013 . S
O923 C942 1.191 . S
O924 Mg915 2.081 . S
O924 C932 1.331 . S
O925 Mg921 1.986 . S
O925 C942 1.307 1_655 S
O926 Mg915 2.023 . S
O926 C941 1.264 . S
O927 Mg916 1.942 . S
O927 C932 1.244 . S
O928 Mg916 1.955 . S
O928 C941 1.273 . S
O929 Mg918 2.114 . S
O929 Mg920 2.291 . S
O929 C931 1.312 . S
O930 Mg915 2.031 . S
O930 C931 1.208 . S
C931 O929 1.312 . S
C931 O930 1.208 . S
C932 O924 1.331 . S
C932 O927 1.244 . S
O933 Mg918 2.013 . S
O933 C922 1.191 . S
O934 C913 1.331 1_455 S
O934 Mg920 2.081 . S
O935 Mg916 1.986 . S
O935 C922 1.307 . S
O936 C914 1.264 1_455 S
O936 Mg920 2.023 . S
O937 C913 1.244 . S
O937 Mg921 1.942 . S
O938 C914 1.273 . S
O938 Mg921 1.955 . S
O939 C912 1.312 . S
O939 Mg915 2.291 . S
O939 Mg918 2.114 . S
O940 C912 1.208 . S
O940 Mg920 2.031 . S
C941 O926 1.264 . S
C941 O928 1.273 . S
C942 O923 1.191 . S
C942 O925 1.307 1_455 S
C943 O970 1.312 . S
C943 O971 1.208 . S
C944 O965 1.331 . S
C944 O968 1.244 . S
C945 O967 1.264 . S
C945 O969 1.273 . S
Mg946 O948 1.936 . S
Mg946 O955 2.081 . S
Mg946 O957 2.023 . S
Mg946 O961 2.031 . S
Mg946 O970 2.291 . S
Mg947 O948 1.963 . S
Mg947 O958 1.942 . S
Mg947 O959 1.955 . S
Mg947 O966 1.986 . S
O948 Mg946 1.936 . S
O948 Mg947 1.963 . S
O948 Mg949 1.915 . S
Mg949 O948 1.915 . S
Mg949 O950 1.915 . S
Mg949 O954 2.013 . S
Mg949 O960 2.114 . S
Mg949 O964 2.013 . S
Mg949 O970 2.114 . S
O950 Mg949 1.915 . S
O950 Mg951 1.936 . S
O950 Mg952 1.963 . S
Mg951 O950 1.936 . S
Mg951 O960 2.291 . S
Mg951 O965 2.081 . S
Mg951 O967 2.023 . S
Mg951 O971 2.031 . S
Mg952 O950 1.963 . S
Mg952 O956 1.986 . S
Mg952 O968 1.942 . S
Mg952 O969 1.955 . S
C953 O964 1.191 . S
C953 O966 1.307 . S
O954 Mg949 2.013 . S
O954 C973 1.191 . S
O955 Mg946 2.081 . S
O955 C963 1.331 . S
O956 Mg952 1.986 . S
O956 C973 1.307 . S
O957 Mg946 2.023 . S
O957 C972 1.264 . S
O958 Mg947 1.942 . S
O958 C963 1.244 . S
O959 Mg947 1.955 . S
O959 C972 1.273 . S
O960 Mg949 2.114 . S
O960 Mg951 2.291 . S
O960 C962 1.312 . S
O961 Mg946 2.031 . S
O961 C962 1.208 . S
C962 O960 1.312 . S
C962 O961 1.208 . S
C963 O955 1.331 . S
C963 O958 1.244 . S
O964 Mg949 2.013 . S
O964 C953 1.191 . S
O965 C944 1.331 . S
O965 Mg951 2.081 . S
O966 Mg947 1.986 . S
O966 C953 1.307 . S
O967 C945 1.264 . S
O967 Mg951 2.023 . S
O968 C944 1.244 . S
O968 Mg952 1.942 . S
O969 C945 1.273 . S
O969 Mg952 1.955 . S
O970 C943 1.312 . S
O970 Mg946 2.291 . S
O970 Mg949 2.114 . S
O971 C943 1.208 . S
O971 Mg951 2.031 . S
C972 O957 1.264 . S
C972 O959 1.273 . S
C973 O954 1.191 . S
C973 O956 1.307 . S
C974 O1001 1.312 . S
C974 O1002 1.208 . S
C975 O996 1.331 . S
C975 O999 1.244 . S
C976 O998 1.264 . S
C976 O1000 1.273 . S
Mg977 O979 1.936 . S
Mg977 O986 2.081 . S
Mg977 O988 2.023 . S
Mg977 O992 2.031 . S
Mg977 O1001 2.291 . S
Mg978 O979 1.963 . S
Mg978 O989 1.942 . S
Mg978 O990 1.955 . S
Mg978 O997 1.986 . S
O979 Mg977 1.936 . S
O979 Mg978 1.963 . S
O979 Mg980 1.915 . S
Mg980 O979 1.915 . S
Mg980 O981 1.915 . S
Mg980 O985 2.013 . S
Mg980 O991 2.114 . S
Mg980 O995 2.013 . S
Mg980 O1001 2.114 . S
O981 Mg980 1.915 . S
O981 Mg982 1.936 . S
O981 Mg983 1.963 . S
Mg982 O981 1.936 . S
Mg982 O991 2.291 . S
Mg982 O996 2.081 . S
Mg982 O998 2.023 . S
Mg982 O1002 2.031 . S
Mg983 O981 1.963 . S
Mg983 O987 1.986 . S
Mg983 O999 1.942 . S
Mg983 O1000 1.955 . S
C984 O995 1.191 . S
C984 O997 1.307 . S
O985 Mg980 2.013 . S
O985 C1004 1.191 . S
O986 Mg977 2.081 . S
O986 C994 1.331 . S
O987 Mg983 1.986 . S
O987 C1004 1.307 . S
O988 Mg977 2.023 . S
O988 C1003 1.264 . S
O989 Mg978 1.942 . S
O989 C994 1.244 . S
O990 Mg978 1.955 . S
O990 C1003 1.273 . S
O991 Mg980 2.114 . S
O991 Mg982 2.291 . S
O991 C993 1.312 . S
O992 Mg977 2.031 . S
O992 C993 1.208 . S
C993 O991 1.312 . S
C993 O992 1.208 . S
C994 O986 1.331 . S
C994 O989 1.244 . S
O995 Mg980 2.013 . S
O995 C984 1.191 . S
O996 C975 1.331 . S
O996 Mg982 2.081 . S
O997 Mg978 1.986 . S
O997 C984 1.307 . S
O998 C976 1.264 . S
O998 Mg982 2.023 . S
O999 C975 1.244 . S
O999 Mg983 1.942 . S
O1000 C976 1.273 . S
O1000 Mg983 1.955 . S
O1001 C974 1.312 . S
O1001 Mg977 2.291 . S
O1001 Mg980 2.114 . S
O1002 C974 1.208 . S
O1002 Mg982 2.031 . S
C1003 O988 1.264 . S
C1003 O990 1.273 . S
C1004 O985 1.191 . S
C1004 O987 1.307 . S
C1005 O1032 1.312 . S
C1005 O1033 1.208 . S
C1006 O1027 1.331 . S
C1006 O1030 1.244 . S
C1007 O1029 1.264 . S
C1007 O1031 1.273 . S
Mg1008 O1010 1.936 . S
Mg1008 O1017 2.081 . S
Mg1008 O1019 2.023 . S
Mg1008 O1023 2.031 . S
Mg1008 O1032 2.291 . S
Mg1009 O1010 1.963 1_655 S
Mg1009 O1020 1.942 . S
Mg1009 O1021 1.955 . S
Mg1009 O1028 1.986 . S
O1010 Mg1008 1.936 . S
O1010 Mg1009 1.963 1_455 S
O1010 Mg1011 1.915 . S
Mg1011 O1010 1.915 . S
Mg1011 O1012 1.915 . S
Mg1011 O1016 2.013 . S
Mg1011 O1022 2.114 . S
Mg1011 O1026 2.013 . S
Mg1011 O1032 2.114 . S
O1012 Mg1011 1.915 . S
O1012 Mg1013 1.936 . S
O1012 Mg1014 1.963 . S
Mg1013 O1012 1.936 . S
Mg1013 O1022 2.291 . S
Mg1013 O1027 2.081 . S
Mg1013 O1029 2.023 . S
Mg1013 O1033 2.031 . S
Mg1014 O1012 1.963 . S
Mg1014 O1018 1.986 . S
Mg1014 O1030 1.942 . S
Mg1014 O1031 1.955 . S
C1015 O1026 1.191 . S
C1015 O1028 1.307 1_455 S
O1016 Mg1011 2.013 . S
O1016 C1035 1.191 . S
O1017 Mg1008 2.081 . S
O1017 C1025 1.331 1_455 S
O1018 Mg1014 1.986 . S
O1018 C1035 1.307 . S
O1019 Mg1008 2.023 . S
O1019 C1034 1.264 1_455 S
O1020 Mg1009 1.942 . S
O1020 C1025 1.244 . S
O1021 Mg1009 1.955 . S
O1021 C1034 1.273 . S
O1022 Mg1011 2.114 . S
O1022 Mg1013 2.291 . S
O1022 C1024 1.312 . S
O1023 Mg1008 2.031 . S
O1023 C1024 1.208 . S
C1024 O1022 1.312 . S
C1024 O1023 1.208 . S
C1025 O1017 1.331 1_655 S
C1025 O1020 1.244 . S
O1026 Mg1011 2.013 . S
O1026 C1015 1.191 . S
O1027 C1006 1.331 . S
O1027 Mg1013 2.081 . S
O1028 Mg1009 1.986 . S
O1028 C1015 1.307 1_655 S
O1029 C1007 1.264 . S
O1029 Mg1013 2.023 . S
O1030 C1006 1.244 . S
O1030 Mg1014 1.942 . S
O1031 C1007 1.273 . S
O1031 Mg1014 1.955 . S
O1032 C1005 1.312 . S
O1032 Mg1008 2.291 . S
O1032 Mg1011 2.114 . S
O1033 C1005 1.208 . S
O1033 Mg1013 2.031 . S
C1034 O1019 1.264 1_655 S
C1034 O1021 1.273 . S
C1035 O1016 1.191 . S
C1035 O1018 1.307 . S
H1036 C1044 0.929 . S
H1037 C1046 0.930 . S
H1038 C1048 0.930 . S
H1039 C1051 0.929 . S
H1040 C1054 0.930 . S
H1041 C1056 0.960 . S
H1042 C1056 0.960 . S
H1043 C1056 0.960 . S
C1044 H1036 0.929 . S
C1044 C1045 1.377 . S
C1044 C1046 1.384 . S
C1045 C1044 1.377 . S
C1045 C1051 1.390 . S
C1046 H1037 0.930 . S
C1046 C1044 1.384 . S
C1046 C1047 1.372 . S
C1047 C1046 1.372 . S
C1047 C1048 1.400 . S
C1047 C1052 1.490 . S
C1048 H1038 0.930 . S
C1048 C1047 1.400 . S
C1048 C1051 1.386 . S
H1049 C1065 0.930 . S
H1050 C1066 0.931 . S
C1051 H1039 0.929 . S
C1051 C1045 1.390 . S
C1051 C1048 1.386 . S
C1052 C1047 1.490 . S
C1052 C1054 1.395 . S
C1052 C1055 1.403 . S
H1053 C1059 0.930 . S
C1054 H1040 0.930 . S
C1054 C1052 1.395 . S
C1054 C1057 1.403 . S
C1055 C1052 1.403 . S
C1055 C1056 1.524 . S
C1055 C1059 1.400 . S
C1056 H1041 0.960 . S
C1056 H1042 0.960 . S
C1056 H1043 0.960 . S
C1056 C1055 1.524 . S
C1057 C1054 1.403 . S
C1057 C1058 1.392 . S
C1057 C1061 1.495 . S
C1058 C1057 1.392 . S
C1058 C1059 1.385 . S
C1058 C1060 1.478 . S
C1059 H1053 0.930 . S
C1059 C1055 1.400 . S
C1059 C1058 1.385 . S
C1060 C1058 1.478 . S
C1060 C1062 1.381 . S
C1060 C1066 1.383 . S
C1061 C1057 1.495 . S
C1061 H1067 0.959 . S
C1061 H1068 0.961 . S
C1061 H1069 0.960 . S
C1062 C1060 1.381 . S
C1062 C1063 1.394 . S
C1062 H1070 0.930 . S
C1063 C1062 1.394 . S
C1063 C1064 1.383 . S
C1063 H1071 0.929 . S
C1064 C1063 1.383 . S
C1064 C1065 1.377 . S
C1065 H1049 0.930 . S
C1065 C1064 1.377 . S
C1065 C1066 1.379 . S
C1066 H1050 0.931 . S
C1066 C1060 1.383 . S
C1066 C1065 1.379 . S
H1067 C1061 0.959 . S
H1068 C1061 0.961 . S
H1069 C1061 0.960 . S
H1070 C1062 0.930 . S
H1071 C1063 0.929 . S
H1072 C1080 0.929 . S
H1073 C1082 0.930 . S
H1074 C1084 0.930 . S
H1075 C1087 0.929 . S
H1076 C1090 0.930 . S
H1077 C1092 0.953 1_545 S
H1078 C1092 0.968 . S
H1079 C1092 0.960 . S
C1080 H1072 0.929 . S
C1080 C1081 1.377 . S
C1080 C1082 1.384 . S
C1081 C1080 1.377 . S
C1081 C1087 1.390 . S
C1082 H1073 0.930 . S
C1082 C1080 1.384 . S
C1082 C1083 1.372 . S
C1083 C1082 1.372 . S
C1083 C1084 1.400 . S
C1083 C1088 1.490 . S
C1084 H1074 0.930 . S
C1084 C1083 1.400 . S
C1084 C1087 1.386 . S
H1085 C1101 0.930 . S
H1086 C1102 0.931 . S
C1087 H1075 0.929 . S
C1087 C1081 1.390 . S
C1087 C1084 1.386 . S
C1088 C1083 1.490 . S
C1088 C1090 1.395 . S
C1088 C1091 1.403 1_565 S
H1089 C1095 0.930 . S
C1090 H1076 0.930 . S
C1090 C1088 1.395 . S
C1090 C1093 1.403 1_565 S
C1091 C1088 1.403 1_545 S
C1091 C1092 1.523 1_545 S
C1091 C1095 1.400 . S
C1092 H1077 0.953 1_565 S
C1092 H1078 0.968 . S
C1092 H1079 0.960 . S
C1092 C1091 1.523 1_565 S
C1093 C1090 1.403 1_545 S
C1093 C1094 1.392 . S
C1093 C1097 1.495 . S
C1094 C1093 1.392 . S
C1094 C1095 1.385 . S
C1094 C1096 1.478 . S
C1095 H1089 0.930 . S
C1095 C1091 1.400 . S
C1095 C1094 1.385 . S
C1096 C1094 1.478 . S
C1096 C1098 1.381 . S
C1096 C1102 1.383 . S
C1097 C1093 1.495 . S
C1097 H1103 0.959 1_545 S
C1097 H1104 0.961 . S
C1097 H1105 0.960 . S
C1098 C1096 1.381 . S
C1098 C1099 1.394 . S
C1098 H1106 0.930 . S
C1099 C1098 1.394 . S
C1099 C1100 1.383 . S
C1099 H1107 0.929 . S
C1100 C1099 1.383 . S
C1100 C1101 1.377 . S
C1101 H1085 0.930 . S
C1101 C1100 1.377 . S
C1101 C1102 1.379 . S
C1102 H1086 0.931 . S
C1102 C1096 1.383 . S
C1102 C1101 1.379 . S
H1103 C1097 0.959 1_565 S
H1104 C1097 0.961 . S
H1105 C1097 0.960 . S
H1106 C1098 0.930 . S
H1107 C1099 0.929 . S
H1108 C1116 0.929 . S
H1109 C1118 0.930 . S
H1110 C1120 0.930 . S
H1111 C1123 0.929 . S
H1112 C1126 0.930 . S
H1113 C1128 0.960 . S
H1114 C1128 0.960 . S
H1115 C1128 0.960 . S
C1116 H1108 0.929 . S
C1116 C1117 1.377 . S
C1116 C1118 1.384 . S
C1117 C1116 1.377 . S
C1117 C1123 1.390 . S
C1118 H1109 0.930 . S
C1118 C1116 1.384 . S
C1118 C1119 1.372 . S
C1119 C1118 1.372 . S
C1119 C1120 1.400 . S
C1119 C1124 1.490 . S
C1120 H1110 0.930 . S
C1120 C1119 1.400 . S
C1120 C1123 1.386 . S
H1121 C1137 0.930 . S
H1122 C1138 0.931 . S
C1123 H1111 0.929 . S
C1123 C1117 1.390 . S
C1123 C1120 1.386 . S
C1124 C1119 1.490 . S
C1124 C1126 1.395 . S
C1124 C1127 1.403 . S
H1125 C1131 0.930 . S
C1126 H1112 0.930 . S
C1126 C1124 1.395 . S
C1126 C1129 1.403 . S
C1127 C1124 1.403 . S
C1127 C1128 1.524 . S
C1127 C1131 1.400 . S
C1128 H1113 0.960 . S
C1128 H1114 0.960 . S
C1128 H1115 0.960 . S
C1128 C1127 1.524 . S
C1129 C1126 1.403 . S
C1129 C1130 1.392 . S
C1129 C1133 1.495 . S
C1130 C1129 1.392 . S
C1130 C1131 1.385 . S
C1130 C1132 1.478 . S
C1131 H1125 0.930 . S
C1131 C1127 1.400 . S
C1131 C1130 1.385 . S
C1132 C1130 1.478 . S
C1132 C1134 1.381 . S
C1132 C1138 1.383 . S
C1133 C1129 1.495 . S
C1133 H1139 0.959 . S
C1133 H1140 0.961 . S
C1133 H1141 0.960 . S
C1134 C1132 1.381 . S
C1134 C1135 1.394 . S
C1134 H1142 0.930 . S
C1135 C1134 1.394 . S
C1135 C1136 1.383 . S
C1135 H1143 0.929 . S
C1136 C1135 1.383 . S
C1136 C1137 1.377 . S
C1137 H1121 0.930 . S
C1137 C1136 1.377 . S
C1137 C1138 1.379 . S
C1138 H1122 0.931 . S
C1138 C1132 1.383 . S
C1138 C1137 1.379 . S
H1139 C1133 0.959 . S
H1140 C1133 0.961 . S
H1141 C1133 0.960 . S
H1142 C1134 0.930 . S
H1143 C1135 0.929 . S
H1144 C1152 0.929 . S
H1145 C1154 0.930 . S
H1146 C1156 0.930 . S
H1147 C1159 0.929 . S
H1148 C1162 0.930 . S
H1149 C1164 0.960 . S
H1150 C1164 0.960 . S
H1151 C1164 0.960 . S
C1152 H1144 0.929 . S
C1152 C1153 1.377 . S
C1152 C1154 1.384 . S
C1153 C1152 1.377 . S
C1153 C1159 1.390 . S
C1154 H1145 0.930 . S
C1154 C1152 1.384 . S
C1154 C1155 1.372 . S
C1155 C1154 1.372 . S
C1155 C1156 1.400 . S
C1155 C1160 1.490 . S
C1156 H1146 0.930 . S
C1156 C1155 1.400 . S
C1156 C1159 1.386 . S
H1157 C1173 0.930 . S
H1158 C1174 0.931 . S
C1159 H1147 0.929 . S
C1159 C1153 1.390 . S
C1159 C1156 1.386 . S
C1160 C1155 1.490 . S
C1160 C1162 1.395 1_545 S
C1160 C1163 1.403 . S
H1161 C1167 0.930 . S
C1162 H1148 0.930 . S
C1162 C1160 1.395 1_565 S
C1162 C1165 1.403 . S
C1163 C1160 1.403 . S
C1163 C1164 1.524 . S
C1163 C1167 1.400 1_545 S
C1164 H1149 0.960 . S
C1164 H1150 0.960 . S
C1164 H1151 0.960 . S
C1164 C1163 1.524 . S
C1165 C1162 1.403 . S
C1165 C1166 1.392 . S
C1165 C1169 1.495 . S
C1166 C1165 1.392 . S
C1166 C1167 1.385 . S
C1166 C1168 1.478 . S
C1167 H1161 0.930 . S
C1167 C1163 1.400 1_565 S
C1167 C1166 1.385 . S
C1168 C1166 1.478 . S
C1168 C1170 1.381 . S
C1168 C1174 1.383 . S
C1169 C1165 1.495 . S
C1169 H1175 0.959 . S
C1169 H1176 0.961 . S
C1169 H1177 0.960 . S
C1170 C1168 1.381 . S
C1170 C1171 1.394 . S
C1170 H1178 0.930 . S
C1171 C1170 1.394 . S
C1171 C1172 1.383 . S
C1171 H1179 0.929 . S
C1172 C1171 1.383 . S
C1172 C1173 1.377 . S
C1173 H1157 0.930 . S
C1173 C1172 1.377 . S
C1173 C1174 1.379 . S
C1174 H1158 0.931 . S
C1174 C1168 1.383 . S
C1174 C1173 1.379 . S
H1175 C1169 0.959 . S
H1176 C1169 0.961 . S
H1177 C1169 0.960 . S
H1178 C1170 0.930 . S
H1179 C1171 0.929 . S
H1180 C1188 0.929 . S
H1181 C1190 0.930 . S
H1182 C1192 0.930 . S
H1183 C1195 0.929 . S
H1184 C1198 0.930 . S
H1185 C1200 0.960 . S
H1186 C1200 0.960 . S
H1187 C1200 0.960 . S
C1188 H1180 0.929 . S
C1188 C1189 1.377 . S
C1188 C1190 1.384 . S
C1189 C1188 1.377 . S
C1189 C1195 1.390 . S
C1190 H1181 0.930 . S
C1190 C1188 1.384 . S
C1190 C1191 1.372 . S
C1191 C1190 1.372 . S
C1191 C1192 1.400 . S
C1191 C1196 1.490 . S
C1192 H1182 0.930 . S
C1192 C1191 1.400 . S
C1192 C1195 1.386 . S
H1193 C1209 0.930 . S
H1194 C1210 0.931 . S
C1195 H1183 0.929 . S
C1195 C1189 1.390 . S
C1195 C1192 1.386 . S
C1196 C1191 1.490 . S
C1196 C1198 1.395 . S
C1196 C1199 1.403 . S
H1197 C1203 0.930 . S
C1198 H1184 0.930 . S
C1198 C1196 1.395 . S
C1198 C1201 1.403 . S
C1199 C1196 1.403 . S
C1199 C1200 1.524 . S
C1199 C1203 1.400 . S
C1200 H1185 0.960 . S
C1200 H1186 0.960 . S
C1200 H1187 0.960 . S
C1200 C1199 1.524 . S
C1201 C1198 1.403 . S
C1201 C1202 1.392 . S
C1201 C1205 1.495 . S
C1202 C1201 1.392 . S
C1202 C1203 1.385 . S
C1202 C1204 1.478 . S
C1203 H1197 0.930 . S
C1203 C1199 1.400 . S
C1203 C1202 1.385 . S
C1204 C1202 1.478 . S
C1204 C1206 1.381 . S
C1204 C1210 1.383 . S
C1205 C1201 1.495 . S
C1205 H1211 0.959 . S
C1205 H1212 0.961 . S
C1205 H1213 0.960 . S
C1206 C1204 1.381 . S
C1206 C1207 1.394 . S
C1206 H1214 0.930 . S
C1207 C1206 1.394 . S
C1207 C1208 1.383 . S
C1207 H1215 0.929 . S
C1208 C1207 1.383 . S
C1208 C1209 1.377 . S
C1209 H1193 0.930 . S
C1209 C1208 1.377 . S
C1209 C1210 1.379 . S
C1210 H1194 0.931 . S
C1210 C1204 1.383 . S
C1210 C1209 1.379 . S
H1211 C1205 0.959 . S
H1212 C1205 0.961 . S
H1213 C1205 0.960 . S
H1214 C1206 0.930 . S
H1215 C1207 0.929 . S
H1216 C1224 0.929 . S
H1217 C1226 0.930 . S
H1218 C1228 0.930 . S
H1219 C1231 0.929 . S
H1220 C1234 0.930 . S
H1221 C1236 0.960 . S
H1222 C1236 0.960 . S
H1223 C1236 0.960 . S
C1224 H1216 0.929 . S
C1224 C1225 1.377 . S
C1224 C1226 1.384 . S
C1225 C1224 1.377 . S
C1225 C1231 1.390 . S
C1226 H1217 0.930 . S
C1226 C1224 1.384 . S
C1226 C1227 1.372 . S
C1227 C1226 1.372 . S
C1227 C1228 1.400 . S
C1227 C1232 1.490 . S
C1228 H1218 0.930 . S
C1228 C1227 1.400 . S
C1228 C1231 1.386 . S
H1229 C1245 0.930 . S
H1230 C1246 0.931 . S
C1231 H1219 0.929 . S
C1231 C1225 1.390 . S
C1231 C1228 1.386 . S
C1232 C1227 1.490 . S
C1232 C1234 1.395 1_565 S
C1232 C1235 1.403 . S
H1233 C1239 0.930 . S
C1234 H1220 0.930 . S
C1234 C1232 1.395 1_545 S
C1234 C1237 1.403 . S
C1235 C1232 1.403 . S
C1235 C1236 1.524 . S
C1235 C1239 1.400 1_565 S
C1236 H1221 0.960 . S
C1236 H1222 0.960 . S
C1236 H1223 0.960 . S
C1236 C1235 1.524 . S
C1237 C1234 1.403 . S
C1237 C1238 1.392 . S
C1237 C1241 1.495 . S
C1238 C1237 1.392 . S
C1238 C1239 1.385 . S
C1238 C1240 1.478 . S
C1239 H1233 0.930 . S
C1239 C1235 1.400 1_545 S
C1239 C1238 1.385 . S
C1240 C1238 1.478 . S
C1240 C1242 1.381 . S
C1240 C1246 1.383 . S
C1241 C1237 1.495 . S
C1241 H1247 0.959 . S
C1241 H1248 0.961 . S
C1241 H1249 0.960 . S
C1242 C1240 1.381 . S
C1242 C1243 1.394 . S
C1242 H1250 0.930 . S
C1243 C1242 1.394 . S
C1243 C1244 1.383 . S
C1243 H1251 0.929 . S
C1244 C1243 1.383 . S
C1244 C1245 1.377 . S
C1245 H1229 0.930 . S
C1245 C1244 1.377 . S
C1245 C1246 1.379 . S
C1246 H1230 0.931 . S
C1246 C1240 1.383 . S
C1246 C1245 1.379 . S
H1247 C1241 0.959 . S
H1248 C1241 0.961 . S
H1249 C1241 0.960 . S
H1250 C1242 0.930 . S
H1251 C1243 0.929 . S
H1252 C1260 0.929 . S
H1253 C1262 0.930 . S
H1254 C1264 0.930 . S
H1255 C1267 0.929 . S
H1256 C1270 0.930 . S
H1257 C1272 0.960 . S
H1258 C1272 0.960 . S
H1259 C1272 0.960 . S
C1260 H1252 0.929 . S
C1260 C1261 1.377 . S
C1260 C1262 1.384 . S
C1261 C1260 1.377 . S
C1261 C1267 1.390 . S
C1262 H1253 0.930 . S
C1262 C1260 1.384 . S
C1262 C1263 1.372 . S
C1263 C1262 1.372 . S
C1263 C1264 1.400 . S
C1263 C1268 1.490 . S
C1264 H1254 0.930 . S
C1264 C1263 1.400 . S
C1264 C1267 1.386 . S
H1265 C1281 0.930 . S
H1266 C1282 0.931 . S
C1267 H1255 0.929 . S
C1267 C1261 1.390 . S
C1267 C1264 1.386 . S
C1268 C1263 1.490 . S
C1268 C1270 1.395 . S
C1268 C1271 1.403 . S
H1269 C1275 0.930 . S
C1270 H1256 0.930 . S
C1270 C1268 1.395 . S
C1270 C1273 1.403 . S
C1271 C1268 1.403 . S
C1271 C1272 1.524 . S
C1271 C1275 1.400 . S
C1272 H1257 0.960 . S
C1272 H1258 0.960 . S
C1272 H1259 0.960 . S
C1272 C1271 1.524 . S
C1273 C1270 1.403 . S
C1273 C1274 1.392 . S
C1273 C1277 1.495 . S
C1274 C1273 1.392 . S
C1274 C1275 1.385 . S
C1274 C1276 1.478 . S
C1275 H1269 0.930 . S
C1275 C1271 1.400 . S
C1275 C1274 1.385 . S
C1276 C1274 1.478 . S
C1276 C1278 1.381 . S
C1276 C1282 1.383 . S
C1277 C1273 1.495 . S
C1277 H1283 0.959 . S
C1277 H1284 0.961 . S
C1277 H1285 0.960 . S
C1278 C1276 1.381 . S
C1278 C1279 1.394 . S
C1278 H1286 0.930 . S
C1279 C1278 1.394 . S
C1279 C1280 1.383 . S
C1279 H1287 0.929 . S
C1280 C1279 1.383 . S
C1280 C1281 1.377 . S
C1281 H1265 0.930 . S
C1281 C1280 1.377 . S
C1281 C1282 1.379 . S
C1282 H1266 0.931 . S
C1282 C1276 1.383 . S
C1282 C1281 1.379 . S
H1283 C1277 0.959 . S
H1284 C1277 0.961 . S
H1285 C1277 0.960 . S
H1286 C1278 0.930 . S
H1287 C1279 0.929 . S
H1288 C1296 0.929 . S
H1289 C1298 0.930 . S
H1290 C1300 0.930 . S
H1291 C1303 0.929 . S
H1292 C1306 0.930 . S
H1293 C1308 0.960 1_565 S
H1294 C1308 0.960 . S
H1295 C1308 0.960 . S
C1296 H1288 0.929 . S
C1296 C1297 1.377 . S
C1296 C1298 1.384 . S
C1297 C1296 1.377 . S
C1297 C1303 1.390 . S
C1298 H1289 0.930 . S
C1298 C1296 1.384 . S
C1298 C1299 1.372 . S
C1299 C1298 1.372 . S
C1299 C1300 1.400 . S
C1299 C1304 1.490 . S
C1300 H1290 0.930 . S
C1300 C1299 1.400 . S
C1300 C1303 1.386 . S
H1301 C1317 0.930 . S
H1302 C1318 0.931 . S
C1303 H1291 0.929 . S
C1303 C1297 1.390 . S
C1303 C1300 1.386 . S
C1304 C1299 1.490 . S
C1304 C1306 1.395 . S
C1304 C1307 1.403 . S
H1305 C1311 0.930 . S
C1306 H1292 0.930 . S
C1306 C1304 1.395 . S
C1306 C1309 1.403 1_545 S
C1307 C1304 1.403 . S
C1307 C1308 1.524 . S
C1307 C1311 1.400 1_545 S
C1308 H1293 0.960 1_545 S
C1308 H1294 0.960 . S
C1308 H1295 0.960 . S
C1308 C1307 1.524 . S
C1309 C1306 1.403 1_565 S
C1309 C1310 1.392 . S
C1309 C1313 1.495 . S
C1310 C1309 1.392 . S
C1310 C1311 1.385 . S
C1310 C1312 1.478 . S
C1311 H1305 0.930 . S
C1311 C1307 1.400 1_565 S
C1311 C1310 1.385 . S
C1312 C1310 1.478 . S
C1312 C1314 1.381 . S
C1312 C1318 1.383 . S
C1313 C1309 1.495 . S
C1313 H1319 0.959 . S
C1313 H1320 0.961 . S
C1313 H1321 0.960 . S
C1314 C1312 1.381 . S
C1314 C1315 1.394 . S
C1314 H1322 0.930 . S
C1315 C1314 1.394 . S
C1315 C1316 1.383 . S
C1315 H1323 0.929 . S
C1316 C1315 1.383 . S
C1316 C1317 1.377 . S
C1317 H1301 0.930 . S
C1317 C1316 1.377 . S
C1317 C1318 1.379 . S
C1318 H1302 0.931 . S
C1318 C1312 1.383 . S
C1318 C1317 1.379 . S
H1319 C1313 0.959 . S
H1320 C1313 0.961 . S
H1321 C1313 0.960 . S
H1322 C1314 0.930 . S
H1323 C1315 0.929 . S
H1324 C1332 0.929 . S
H1325 C1334 0.930 . S
H1326 C1336 0.930 . S
H1327 C1339 0.929 . S
H1328 C1342 0.930 . S
H1329 C1344 0.960 . S
H1330 C1344 0.960 . S
H1331 C1344 0.960 . S
C1332 H1324 0.929 . S
C1332 C1333 1.377 . S
C1332 C1334 1.384 . S
C1333 C1332 1.377 . S
C1333 C1339 1.390 . S
C1334 H1325 0.930 . S
C1334 C1332 1.384 . S
C1334 C1335 1.372 . S
C1335 C1334 1.372 . S
C1335 C1336 1.400 . S
C1335 C1340 1.490 . S
C1336 H1326 0.930 . S
C1336 C1335 1.400 . S
C1336 C1339 1.386 . S
H1337 C1353 0.930 . S
H1338 C1354 0.931 . S
C1339 H1327 0.929 . S
C1339 C1333 1.390 . S
C1339 C1336 1.386 . S
C1340 C1335 1.490 . S
C1340 C1342 1.395 . S
C1340 C1343 1.403 . S
H1341 C1347 0.930 . S
C1342 H1328 0.930 . S
C1342 C1340 1.395 . S
C1342 C1345 1.403 . S
C1343 C1340 1.403 . S
C1343 C1344 1.524 . S
C1343 C1347 1.400 . S
C1344 H1329 0.960 . S
C1344 H1330 0.960 . S
C1344 H1331 0.960 . S
C1344 C1343 1.524 . S
C1345 C1342 1.403 . S
C1345 C1346 1.392 . S
C1345 C1349 1.495 . S
C1346 C1345 1.392 . S
C1346 C1347 1.385 . S
C1346 C1348 1.478 . S
C1347 H1341 0.930 . S
C1347 C1343 1.400 . S
C1347 C1346 1.385 . S
C1348 C1346 1.478 . S
C1348 C1350 1.381 . S
C1348 C1354 1.383 . S
C1349 C1345 1.495 . S
C1349 H1355 0.959 . S
C1349 H1356 0.961 . S
C1349 H1357 0.960 . S
C1350 C1348 1.381 . S
C1350 C1351 1.394 . S
C1350 H1358 0.930 . S
C1351 C1350 1.394 . S
C1351 C1352 1.383 . S
C1351 H1359 0.929 . S
C1352 C1351 1.383 . S
C1352 C1353 1.377 . S
C1353 H1337 0.930 . S
C1353 C1352 1.377 . S
C1353 C1354 1.379 . S
C1354 H1338 0.931 . S
C1354 C1348 1.383 . S
C1354 C1353 1.379 . S
H1355 C1349 0.959 . S
H1356 C1349 0.961 . S
H1357 C1349 0.960 . S
H1358 C1350 0.930 . S
H1359 C1351 0.929 . S
H1360 C1368 0.929 . S
H1361 C1370 0.930 . S
H1362 C1372 0.930 . S
H1363 C1375 0.929 . S
H1364 C1378 0.930 . S
H1365 C1380 0.960 . S
H1366 C1380 0.960 . S
H1367 C1380 0.960 . S
C1368 H1360 0.929 . S
C1368 C1369 1.377 1_565 S
C1368 C1370 1.384 . S
C1369 C1368 1.377 1_545 S
C1369 C1375 1.390 . S
C1370 H1361 0.930 . S
C1370 C1368 1.384 . S
C1370 C1371 1.372 . S
C1371 C1370 1.372 . S
C1371 C1372 1.400 . S
C1371 C1376 1.490 . S
C1372 H1362 0.930 . S
C1372 C1371 1.400 . S
C1372 C1375 1.386 1_565 S
H1373 C1389 0.930 . S
H1374 C1390 0.931 . S
C1375 H1363 0.929 . S
C1375 C1369 1.390 . S
C1375 C1372 1.386 1_545 S
C1376 C1371 1.490 . S
C1376 C1378 1.395 . S
C1376 C1379 1.403 . S
H1377 C1383 0.930 . S
C1378 H1364 0.930 . S
C1378 C1376 1.395 . S
C1378 C1381 1.403 . S
C1379 C1376 1.403 . S
C1379 C1380 1.524 . S
C1379 C1383 1.400 . S
C1380 H1365 0.960 . S
C1380 H1366 0.960 . S
C1380 H1367 0.960 . S
C1380 C1379 1.524 . S
C1381 C1378 1.403 . S
C1381 C1382 1.392 . S
C1381 C1385 1.495 . S
C1382 C1381 1.392 . S
C1382 C1383 1.385 . S
C1382 C1384 1.478 . S
C1383 H1377 0.930 . S
C1383 C1379 1.400 . S
C1383 C1382 1.385 . S
C1384 C1382 1.478 . S
C1384 C1386 1.381 . S
C1384 C1390 1.383 . S
C1385 C1381 1.495 . S
C1385 H1391 0.959 . S
C1385 H1392 0.961 . S
C1385 H1393 0.960 . S
C1386 C1384 1.381 . S
C1386 C1387 1.394 . S
C1386 H1394 0.930 . S
C1387 C1386 1.394 . S
C1387 C1388 1.383 . S
C1387 H1395 0.929 . S
C1388 C1387 1.383 . S
C1388 C1389 1.377 . S
C1389 H1373 0.930 . S
C1389 C1388 1.377 . S
C1389 C1390 1.379 . S
C1390 H1374 0.931 . S
C1390 C1384 1.383 . S
C1390 C1389 1.379 . S
H1391 C1385 0.959 . S
H1392 C1385 0.961 . S
H1393 C1385 0.960 . S
H1394 C1386 0.930 . S
H1395 C1387 0.929 . S
H1396 C1404 0.929 . S
H1397 C1406 0.930 . S
H1398 C1408 0.930 . S
H1399 C1411 0.929 . S
H1400 C1414 0.930 . S
H1401 C1416 0.960 . S
H1402 C1416 0.960 . S
H1403 C1416 0.960 . S
C1404 H1396 0.929 . S
C1404 C1405 1.377 . S
C1404 C1406 1.384 . S
C1405 C1404 1.377 . S
C1405 C1411 1.390 . S
C1406 H1397 0.930 . S
C1406 C1404 1.384 . S
C1406 C1407 1.372 . S
C1407 C1406 1.372 . S
C1407 C1408 1.400 . S
C1407 C1412 1.490 . S
C1408 H1398 0.930 . S
C1408 C1407 1.400 . S
C1408 C1411 1.386 . S
H1409 C1425 0.930 . S
H1410 C1426 0.931 . S
C1411 H1399 0.929 . S
C1411 C1405 1.390 . S
C1411 C1408 1.386 . S
C1412 C1407 1.490 . S
C1412 C1414 1.395 . S
C1412 C1415 1.403 . S
H1413 C1419 0.930 . S
C1414 H1400 0.930 . S
C1414 C1412 1.395 . S
C1414 C1417 1.403 . S
C1415 C1412 1.403 . S
C1415 C1416 1.524 . S
C1415 C1419 1.400 . S
C1416 H1401 0.960 . S
C1416 H1402 0.960 . S
C1416 H1403 0.960 . S
C1416 C1415 1.524 . S
C1417 C1414 1.403 . S
C1417 C1418 1.392 . S
C1417 C1421 1.495 . S
C1418 C1417 1.392 . S
C1418 C1419 1.385 . S
C1418 C1420 1.478 . S
C1419 H1413 0.930 . S
C1419 C1415 1.400 . S
C1419 C1418 1.385 . S
C1420 C1418 1.478 . S
C1420 C1422 1.381 . S
C1420 C1426 1.383 . S
C1421 C1417 1.495 . S
C1421 H1427 0.959 . S
C1421 H1428 0.961 1_655 S
C1421 H1429 0.960 1_655 S
C1422 C1420 1.381 . S
C1422 C1423 1.394 1_655 S
C1422 H1430 0.930 . S
C1423 C1422 1.394 1_455 S
C1423 C1424 1.383 . S
C1423 H1431 0.929 . S
C1424 C1423 1.383 . S
C1424 C1425 1.377 . S
C1425 H1409 0.930 . S
C1425 C1424 1.377 . S
C1425 C1426 1.379 1_455 S
C1426 H1410 0.931 . S
C1426 C1420 1.383 . S
C1426 C1425 1.379 1_655 S
H1427 C1421 0.959 . S
H1428 C1421 0.961 1_455 S
H1429 C1421 0.960 1_455 S
H1430 C1422 0.930 . S
H1431 C1423 0.929 . S
H1432 C1440 0.929 . S
H1433 C1442 0.930 . S
H1434 C1444 0.930 . S
H1435 C1447 0.929 . S
H1436 C1450 0.930 . S
H1437 C1452 0.960 . S
H1438 C1452 0.960 . S
H1439 C1452 0.960 . S
C1440 H1432 0.929 . S
C1440 C1441 1.377 1_565 S
C1440 C1442 1.384 1_565 S
C1441 C1440 1.377 1_545 S
C1441 C1447 1.390 . S
C1442 H1433 0.930 . S
C1442 C1440 1.384 1_545 S
C1442 C1443 1.372 . S
C1443 C1442 1.372 . S
C1443 C1444 1.400 . S
C1443 C1448 1.490 . S
C1444 H1434 0.930 . S
C1444 C1443 1.400 . S
C1444 C1447 1.386 . S
H1445 C1461 0.930 . S
H1446 C1462 0.931 . S
C1447 H1435 0.929 . S
C1447 C1441 1.390 . S
C1447 C1444 1.386 . S
C1448 C1443 1.490 . S
C1448 C1450 1.395 . S
C1448 C1451 1.403 . S
H1449 C1455 0.930 . S
C1450 H1436 0.930 . S
C1450 C1448 1.395 . S
C1450 C1453 1.403 . S
C1451 C1448 1.403 . S
C1451 C1452 1.524 . S
C1451 C1455 1.400 . S
C1452 H1437 0.960 . S
C1452 H1438 0.960 . S
C1452 H1439 0.960 . S
C1452 C1451 1.524 . S
C1453 C1450 1.403 . S
C1453 C1454 1.392 . S
C1453 C1457 1.495 1_655 S
C1454 C1453 1.392 . S
C1454 C1455 1.385 . S
C1454 C1456 1.478 . S
C1455 H1449 0.930 . S
C1455 C1451 1.400 . S
C1455 C1454 1.385 . S
C1456 C1454 1.478 . S
C1456 C1458 1.381 1_655 S
C1456 C1462 1.383 . S
C1457 C1453 1.495 1_455 S
C1457 H1463 0.959 . S
C1457 H1464 0.961 . S
C1457 H1465 0.960 . S
C1458 C1456 1.381 1_455 S
C1458 C1459 1.394 . S
C1458 H1466 0.930 . S
C1459 C1458 1.394 . S
C1459 C1460 1.383 . S
C1459 H1467 0.929 . S
C1460 C1459 1.383 . S
C1460 C1461 1.377 1_455 S
C1461 H1445 0.930 . S
C1461 C1460 1.377 1_655 S
C1461 C1462 1.379 . S
C1462 H1446 0.931 . S
C1462 C1456 1.383 . S
C1462 C1461 1.379 . S
H1463 C1457 0.959 . S
H1464 C1457 0.961 . S
H1465 C1457 0.960 . S
H1466 C1458 0.930 . S
H1467 C1459 0.929 . S
H1468 C1476 0.929 . S
H1469 C1478 0.930 . S
H1470 C1480 0.930 . S
H1471 C1483 0.929 . S
H1472 C1486 0.930 . S
H1473 C1488 0.960 . S
H1474 C1488 0.960 . S
H1475 C1488 0.960 . S
C1476 H1468 0.929 . S
C1476 C1477 1.377 . S
C1476 C1478 1.384 . S
C1477 C1476 1.377 . S
C1477 C1483 1.390 . S
C1478 H1469 0.930 . S
C1478 C1476 1.384 . S
C1478 C1479 1.372 . S
C1479 C1478 1.372 . S
C1479 C1480 1.400 . S
C1479 C1484 1.490 . S
C1480 H1470 0.930 . S
C1480 C1479 1.400 . S
C1480 C1483 1.386 . S
H1481 C1497 0.930 . S
H1482 C1498 0.931 . S
C1483 H1471 0.929 . S
C1483 C1477 1.390 . S
C1483 C1480 1.386 . S
C1484 C1479 1.490 . S
C1484 C1486 1.395 . S
C1484 C1487 1.403 . S
H1485 C1491 0.930 . S
C1486 H1472 0.930 . S
C1486 C1484 1.395 . S
C1486 C1489 1.403 . S
C1487 C1484 1.403 . S
C1487 C1488 1.524 . S
C1487 C1491 1.400 . S
C1488 H1473 0.960 . S
C1488 H1474 0.960 . S
C1488 H1475 0.960 . S
C1488 C1487 1.524 . S
C1489 C1486 1.403 . S
C1489 C1490 1.392 . S
C1489 C1493 1.495 . S
C1490 C1489 1.392 . S
C1490 C1491 1.385 . S
C1490 C1492 1.478 . S
C1491 H1485 0.930 . S
C1491 C1487 1.400 . S
C1491 C1490 1.385 . S
C1492 C1490 1.478 . S
C1492 C1494 1.381 . S
C1492 C1498 1.383 . S
C1493 C1489 1.495 . S
C1493 H1499 0.959 . S
C1493 H1500 0.961 . S
C1493 H1501 0.960 . S
C1494 C1492 1.381 . S
C1494 C1495 1.394 . S
C1494 H1502 0.930 . S
C1495 C1494 1.394 . S
C1495 C1496 1.383 . S
C1495 H1503 0.929 . S
C1496 C1495 1.383 . S
C1496 C1497 1.377 . S
C1497 H1481 0.930 . S
C1497 C1496 1.377 . S
C1497 C1498 1.379 . S
C1498 H1482 0.931 . S
C1498 C1492 1.383 . S
C1498 C1497 1.379 . S
H1499 C1493 0.959 . S
H1500 C1493 0.961 . S
H1501 C1493 0.960 . S
H1502 C1494 0.930 . S
H1503 C1495 0.929 . S
H1504 C1512 0.929 . S
H1505 C1514 0.930 . S
H1506 C1516 0.930 . S
H1507 C1519 0.929 . S
H1508 C1522 0.930 . S
H1509 C1524 0.960 1_455 S
H1510 C1524 0.952 1_455 S
H1511 C1524 0.960 . S
C1512 H1504 0.929 . S
C1512 C1513 1.377 1_565 S
C1512 C1514 1.384 . S
C1513 C1512 1.377 1_545 S
C1513 C1519 1.390 . S
C1514 H1505 0.930 . S
C1514 C1512 1.384 . S
C1514 C1515 1.372 . S
C1515 C1514 1.372 . S
C1515 C1516 1.400 . S
C1515 C1520 1.490 . S
C1516 H1506 0.930 . S
C1516 C1515 1.400 . S
C1516 C1519 1.386 1_565 S
H1517 C1533 0.930 . S
H1518 C1534 0.931 . S
C1519 H1507 0.929 . S
C1519 C1513 1.390 . S
C1519 C1516 1.386 1_545 S
C1520 C1515 1.490 . S
C1520 C1522 1.395 . S
C1520 C1523 1.403 . S
H1521 C1527 0.930 1_455 S
C1522 H1508 0.930 . S
C1522 C1520 1.395 . S
C1522 C1525 1.403 . S
C1523 C1520 1.403 . S
C1523 C1524 1.524 . S
C1523 C1527 1.400 . S
C1524 H1509 0.960 1_655 S
C1524 H1510 0.952 1_655 S
C1524 H1511 0.960 . S
C1524 C1523 1.524 . S
C1525 C1522 1.403 . S
C1525 C1526 1.392 . S
C1525 C1529 1.495 . S
C1526 C1525 1.392 . S
C1526 C1527 1.385 . S
C1526 C1528 1.478 . S
C1527 H1521 0.930 1_655 S
C1527 C1523 1.400 . S
C1527 C1526 1.385 . S
C1528 C1526 1.478 . S
C1528 C1530 1.390 . S
C1528 C1534 1.383 . S
C1529 C1525 1.495 . S
C1529 H1535 0.959 . S
C1529 H1536 0.961 . S
C1529 H1537 0.960 . S
C1530 C1528 1.390 . S
C1530 C1531 1.387 1_655 S
C1530 H1538 0.929 1_655 S
C1531 C1530 1.387 1_455 S
C1531 C1532 1.383 . S
C1531 H1539 0.929 . S
C1532 C1531 1.383 . S
C1532 C1533 1.377 1_455 S
C1533 H1517 0.930 . S
C1533 C1532 1.377 1_655 S
C1533 C1534 1.379 . S
C1534 H1518 0.931 . S
C1534 C1528 1.383 . S
C1534 C1533 1.379 . S
H1535 C1529 0.959 . S
H1536 C1529 0.961 . S
H1537 C1529 0.960 . S
H1538 C1530 0.929 1_455 S
H1539 C1531 0.929 . S
H1540 C1548 0.929 . S
H1541 C1550 0.930 . S
H1542 C1552 0.930 . S
H1543 C1555 0.929 . S
H1544 C1558 0.930 . S
H1545 C1560 0.960 . S
H1546 C1560 0.960 . S
H1547 C1560 0.960 . S
C1548 H1540 0.929 . S
C1548 C1549 1.377 . S
C1548 C1550 1.384 . S
C1549 C1548 1.377 . S
C1549 C1555 1.390 . S
C1550 H1541 0.930 . S
C1550 C1548 1.384 . S
C1550 C1551 1.372 . S
C1551 C1550 1.372 . S
C1551 C1552 1.400 . S
C1551 C1556 1.490 . S
C1552 H1542 0.930 . S
C1552 C1551 1.400 . S
C1552 C1555 1.386 . S
H1553 C1569 0.930 . S
H1554 C1570 0.931 . S
C1555 H1543 0.929 . S
C1555 C1549 1.390 . S
C1555 C1552 1.386 . S
C1556 C1551 1.490 . S
C1556 C1558 1.395 . S
C1556 C1559 1.403 . S
H1557 C1563 0.930 . S
C1558 H1544 0.930 . S
C1558 C1556 1.395 . S
C1558 C1561 1.403 . S
C1559 C1556 1.403 . S
C1559 C1560 1.524 . S
C1559 C1563 1.400 . S
C1560 H1545 0.960 . S
C1560 H1546 0.960 . S
C1560 H1547 0.960 . S
C1560 C1559 1.524 . S
C1561 C1558 1.403 . S
C1561 C1562 1.392 . S
C1561 C1565 1.495 . S
C1562 C1561 1.392 . S
C1562 C1563 1.385 . S
C1562 C1564 1.478 . S
C1563 H1557 0.930 . S
C1563 C1559 1.400 . S
C1563 C1562 1.385 . S
C1564 C1562 1.478 . S
C1564 C1566 1.381 . S
C1564 C1570 1.383 . S
C1565 C1561 1.495 . S
C1565 H1571 0.959 . S
C1565 H1572 0.961 . S
C1565 H1573 0.960 . S
C1566 C1564 1.381 . S
C1566 C1567 1.394 . S
C1566 H1574 0.930 . S
C1567 C1566 1.394 . S
C1567 C1568 1.383 1_655 S
C1567 H1575 0.929 . S
C1568 C1567 1.383 1_455 S
C1568 C1569 1.377 . S
C1569 H1553 0.930 . S
C1569 C1568 1.377 . S
C1569 C1570 1.379 1_455 S
C1570 H1554 0.931 . S
C1570 C1564 1.383 . S
C1570 C1569 1.379 1_655 S
H1571 C1565 0.959 . S
H1572 C1565 0.961 . S
H1573 C1565 0.960 . S
H1574 C1566 0.930 . S
H1575 C1567 0.929 . S
H1576 C1584 0.929 . S
H1577 C1586 0.930 . S
H1578 C1588 0.930 . S
H1579 C1591 0.929 . S
H1580 C1594 0.930 . S
H1581 C1596 0.960 . S
H1582 C1596 0.960 . S
H1583 C1596 0.960 . S
C1584 H1576 0.929 . S
C1584 C1585 1.377 . S
C1584 C1586 1.384 . S
C1585 C1584 1.377 . S
C1585 C1591 1.390 1_545 S
C1586 H1577 0.930 . S
C1586 C1584 1.384 . S
C1586 C1587 1.372 . S
C1587 C1586 1.372 . S
C1587 C1588 1.400 . S
C1587 C1592 1.490 . S
C1588 H1578 0.930 . S
C1588 C1587 1.400 . S
C1588 C1591 1.386 1_545 S
H1589 C1605 0.930 . S
H1590 C1606 0.931 . S
C1591 H1579 0.929 . S
C1591 C1585 1.390 1_565 S
C1591 C1588 1.386 1_565 S
C1592 C1587 1.490 . S
C1592 C1594 1.395 . S
C1592 C1595 1.403 . S
H1593 C1599 0.930 . S
C1594 H1580 0.930 . S
C1594 C1592 1.395 . S
C1594 C1597 1.403 . S
C1595 C1592 1.403 . S
C1595 C1596 1.524 . S
C1595 C1599 1.400 . S
C1596 H1581 0.960 . S
C1596 H1582 0.960 . S
C1596 H1583 0.960 . S
C1596 C1595 1.524 . S
C1597 C1594 1.403 . S
C1597 C1598 1.392 . S
C1597 C1601 1.495 . S
C1598 C1597 1.392 . S
C1598 C1599 1.385 . S
C1598 C1600 1.478 . S
C1599 H1593 0.930 . S
C1599 C1595 1.400 . S
C1599 C1598 1.385 . S
C1600 C1598 1.478 . S
C1600 C1602 1.381 . S
C1600 C1606 1.383 . S
C1601 C1597 1.495 . S
C1601 H1607 0.959 . S
C1601 H1608 0.961 . S
C1601 H1609 0.960 . S
C1602 C1600 1.381 . S
C1602 C1603 1.394 . S
C1602 H1610 0.930 . S
C1603 C1602 1.394 . S
C1603 C1604 1.383 . S
C1603 H1611 0.929 . S
C1604 C1603 1.383 . S
C1604 C1605 1.377 . S
C1605 H1589 0.930 . S
C1605 C1604 1.377 . S
C1605 C1606 1.379 . S
C1606 H1590 0.931 . S
C1606 C1600 1.383 . S
C1606 C1605 1.379 . S
H1607 C1601 0.959 . S
H1608 C1601 0.961 . S
H1609 C1601 0.960 . S
H1610 C1602 0.930 . S
H1611 C1603 0.929 . S
H1612 C1620 0.929 . S
H1613 C1622 0.930 . S
H1614 C1624 0.930 . S
H1615 C1627 0.929 . S
H1616 C1630 0.930 . S
H1617 C1632 0.960 . S
H1618 C1632 0.960 . S
H1619 C1632 0.960 . S
C1620 H1612 0.929 . S
C1620 C1621 1.377 . S
C1620 C1622 1.384 . S
C1621 C1620 1.377 . S
C1621 C1627 1.390 . S
C1622 H1613 0.930 . S
C1622 C1620 1.384 . S
C1622 C1623 1.372 . S
C1623 C1622 1.372 . S
C1623 C1624 1.400 . S
C1623 C1628 1.490 . S
C1624 H1614 0.930 . S
C1624 C1623 1.400 . S
C1624 C1627 1.386 . S
H1625 C1641 0.930 . S
H1626 C1642 0.931 . S
C1627 H1615 0.929 . S
C1627 C1621 1.390 . S
C1627 C1624 1.386 . S
C1628 C1623 1.490 . S
C1628 C1630 1.395 . S
C1628 C1631 1.403 . S
H1629 C1635 0.930 . S
C1630 H1616 0.930 . S
C1630 C1628 1.395 . S
C1630 C1633 1.403 . S
C1631 C1628 1.403 . S
C1631 C1632 1.524 . S
C1631 C1635 1.400 . S
C1632 H1617 0.960 . S
C1632 H1618 0.960 . S
C1632 H1619 0.960 . S
C1632 C1631 1.524 . S
C1633 C1630 1.403 . S
C1633 C1634 1.392 . S
C1633 C1637 1.495 . S
C1634 C1633 1.392 . S
C1634 C1635 1.385 . S
C1634 C1636 1.478 . S
C1635 H1629 0.930 . S
C1635 C1631 1.400 . S
C1635 C1634 1.385 . S
C1636 C1634 1.478 . S
C1636 C1638 1.381 . S
C1636 C1642 1.383 . S
C1637 C1633 1.495 . S
C1637 H1643 0.959 . S
C1637 H1644 0.961 . S
C1637 H1645 0.960 . S
C1638 C1636 1.381 . S
C1638 C1639 1.394 . S
C1638 H1646 0.930 . S
C1639 C1638 1.394 . S
C1639 C1640 1.383 . S
C1639 H1647 0.929 . S
C1640 C1639 1.383 . S
C1640 C1641 1.377 . S
C1641 H1625 0.930 . S
C1641 C1640 1.377 . S
C1641 C1642 1.379 . S
C1642 H1626 0.931 . S
C1642 C1636 1.383 . S
C1642 C1641 1.379 . S
H1643 C1637 0.959 . S
H1644 C1637 0.961 . S
H1645 C1637 0.960 . S
H1646 C1638 0.930 . S
H1647 C1639 0.929 . S
H1648 C1656 0.929 . S
H1649 C1658 0.930 . S
H1650 C1660 0.930 . S
H1651 C1663 0.929 . S
H1652 C1666 0.930 . S
H1653 C1668 0.960 . S
H1654 C1668 0.960 . S
H1655 C1668 0.960 . S
C1656 H1648 0.929 . S
C1656 C1657 1.377 . S
C1656 C1658 1.384 . S
C1657 C1656 1.377 . S
C1657 C1663 1.390 . S
C1658 H1649 0.930 . S
C1658 C1656 1.384 . S
C1658 C1659 1.372 . S
C1659 C1658 1.372 . S
C1659 C1660 1.400 . S
C1659 C1664 1.490 . S
C1660 H1650 0.930 . S
C1660 C1659 1.400 . S
C1660 C1663 1.386 . S
H1661 C1677 0.930 . S
H1662 C1678 0.931 . S
C1663 H1651 0.929 . S
C1663 C1657 1.390 . S
C1663 C1660 1.386 . S
C1664 C1659 1.490 . S
C1664 C1666 1.395 . S
C1664 C1667 1.403 . S
H1665 C1671 0.930 . S
C1666 H1652 0.930 . S
C1666 C1664 1.395 . S
C1666 C1669 1.403 . S
C1667 C1664 1.403 . S
C1667 C1668 1.524 . S
C1667 C1671 1.400 . S
C1668 H1653 0.960 . S
C1668 H1654 0.960 . S
C1668 H1655 0.960 . S
C1668 C1667 1.524 . S
C1669 C1666 1.403 . S
C1669 C1670 1.392 . S
C1669 C1673 1.495 . S
C1670 C1669 1.392 . S
C1670 C1671 1.385 . S
C1670 C1672 1.478 . S
C1671 H1665 0.930 . S
C1671 C1667 1.400 . S
C1671 C1670 1.385 . S
C1672 C1670 1.478 . S
C1672 C1674 1.381 1_655 S
C1672 C1678 1.383 . S
C1673 C1669 1.495 . S
C1673 H1679 0.959 . S
C1673 H1680 0.961 . S
C1673 H1681 0.963 1_655 S
C1674 C1672 1.381 1_455 S
C1674 C1675 1.394 . S
C1674 H1682 0.930 . S
C1675 C1674 1.394 . S
C1675 C1676 1.383 1_455 S
C1675 H1683 0.929 . S
C1676 C1675 1.383 1_655 S
C1676 C1677 1.377 . S
C1677 H1661 0.930 . S
C1677 C1676 1.377 . S
C1677 C1678 1.379 . S
C1678 H1662 0.931 . S
C1678 C1672 1.383 . S
C1678 C1677 1.379 . S
H1679 C1673 0.959 . S
H1680 C1673 0.961 . S
H1681 C1673 0.963 1_455 S
H1682 C1674 0.930 . S
H1683 C1675 0.929 . S
H1684 C1692 0.929 . S
H1685 C1694 0.930 . S
H1686 C1696 0.930 . S
H1687 C1699 0.929 . S
H1688 C1702 0.930 . S
H1689 C1704 0.960 . S
H1690 C1704 0.960 . S
H1691 C1704 0.960 . S
C1692 H1684 0.929 . S
C1692 C1693 1.377 . S
C1692 C1694 1.384 . S
C1693 C1692 1.377 . S
C1693 C1699 1.390 . S
C1694 H1685 0.930 . S
C1694 C1692 1.384 . S
C1694 C1695 1.372 . S
C1695 C1694 1.372 . S
C1695 C1696 1.400 . S
C1695 C1700 1.490 . S
C1696 H1686 0.930 . S
C1696 C1695 1.400 . S
C1696 C1699 1.386 . S
H1697 C1713 0.930 . S
H1698 C1714 0.931 . S
C1699 H1687 0.929 . S
C1699 C1693 1.390 . S
C1699 C1696 1.386 . S
C1700 C1695 1.490 . S
C1700 C1702 1.395 . S
C1700 C1703 1.403 . S
H1701 C1707 0.930 . S
C1702 H1688 0.930 . S
C1702 C1700 1.395 . S
C1702 C1705 1.403 . S
C1703 C1700 1.403 . S
C1703 C1704 1.524 . S
C1703 C1707 1.400 . S
C1704 H1689 0.960 . S
C1704 H1690 0.960 . S
C1704 H1691 0.960 . S
C1704 C1703 1.524 . S
C1705 C1702 1.403 . S
C1705 C1706 1.392 . S
C1705 C1709 1.495 . S
C1706 C1705 1.392 . S
C1706 C1707 1.385 . S
C1706 C1708 1.478 . S
C1707 H1701 0.930 . S
C1707 C1703 1.400 . S
C1707 C1706 1.385 . S
C1708 C1706 1.478 . S
C1708 C1710 1.381 . S
C1708 C1714 1.383 . S
C1709 C1705 1.495 . S
C1709 H1715 0.959 . S
C1709 H1716 0.961 . S
C1709 H1717 0.960 . S
C1710 C1708 1.381 . S
C1710 C1711 1.394 . S
C1710 H1718 0.930 . S
C1711 C1710 1.394 . S
C1711 C1712 1.383 . S
C1711 H1719 0.929 . S
C1712 C1711 1.383 . S
C1712 C1713 1.377 . S
C1713 H1697 0.930 . S
C1713 C1712 1.377 . S
C1713 C1714 1.379 . S
C1714 H1698 0.931 . S
C1714 C1708 1.383 . S
C1714 C1713 1.379 . S
H1715 C1709 0.959 . S
H1716 C1709 0.961 . S
H1717 C1709 0.960 . S
H1718 C1710 0.930 . S
H1719 C1711 0.929 . S
H1720 C1728 0.929 . S
H1721 C1730 0.930 . S
H1722 C1732 0.930 . S
H1723 C1735 0.929 . S
H1724 C1738 0.930 . S
H1725 C1740 0.960 . S
H1726 C1740 0.960 . S
H1727 C1740 0.960 . S
C1728 H1720 0.929 . S
C1728 C1729 1.377 . S
C1728 C1730 1.384 . S
C1729 C1728 1.377 . S
C1729 C1735 1.390 . S
C1730 H1721 0.930 . S
C1730 C1728 1.384 . S
C1730 C1731 1.372 . S
C1731 C1730 1.372 . S
C1731 C1732 1.400 . S
C1731 C1736 1.490 . S
C1732 H1722 0.930 . S
C1732 C1731 1.400 . S
C1732 C1735 1.386 . S
H1733 C1749 0.930 . S
H1734 C1750 0.931 . S
C1735 H1723 0.929 . S
C1735 C1729 1.390 . S
C1735 C1732 1.386 . S
C1736 C1731 1.490 . S
C1736 C1738 1.395 . S
C1736 C1739 1.403 . S
H1737 C1743 0.930 . S
C1738 H1724 0.930 . S
C1738 C1736 1.395 . S
C1738 C1741 1.403 . S
C1739 C1736 1.403 . S
C1739 C1740 1.524 . S
C1739 C1743 1.400 . S
C1740 H1725 0.960 . S
C1740 H1726 0.960 . S
C1740 H1727 0.960 . S
C1740 C1739 1.524 . S
C1741 C1738 1.403 . S
C1741 C1742 1.392 . S
C1741 C1745 1.495 . S
C1742 C1741 1.392 . S
C1742 C1743 1.385 . S
C1742 C1744 1.478 . S
C1743 H1737 0.930 . S
C1743 C1739 1.400 . S
C1743 C1742 1.385 . S
C1744 C1742 1.478 . S
C1744 C1746 1.381 . S
C1744 C1750 1.383 . S
C1745 C1741 1.495 . S
C1745 H1751 0.959 . S
C1745 H1752 0.961 . S
C1745 H1753 0.960 . S
C1746 C1744 1.381 . S
C1746 C1747 1.394 . S
C1746 H1754 0.930 . S
C1747 C1746 1.394 . S
C1747 C1748 1.383 . S
C1747 H1755 0.929 . S
C1748 C1747 1.383 . S
C1748 C1749 1.377 . S
C1749 H1733 0.930 . S
C1749 C1748 1.377 . S
C1749 C1750 1.379 . S
C1750 H1734 0.931 . S
C1750 C1744 1.383 . S
C1750 C1749 1.379 . S
H1751 C1745 0.959 . S
H1752 C1745 0.961 . S
H1753 C1745 0.960 . S
H1754 C1746 0.930 . S
H1755 C1747 0.929 . S
H1756 C1764 0.929 . S
H1757 C1766 0.930 . S
H1758 C1768 0.930 . S
H1759 C1771 0.929 . S
H1760 C1774 0.930 . S
H1761 C1776 0.960 . S
H1762 C1776 0.960 . S
H1763 C1776 0.960 . S
C1764 H1756 0.929 . S
C1764 C1765 1.377 . S
C1764 C1766 1.384 . S
C1765 C1764 1.377 . S
C1765 C1771 1.390 . S
C1766 H1757 0.930 . S
C1766 C1764 1.384 . S
C1766 C1767 1.372 . S
C1767 C1766 1.372 . S
C1767 C1768 1.400 . S
C1767 C1772 1.490 . S
C1768 H1758 0.930 . S
C1768 C1767 1.400 . S
C1768 C1771 1.386 . S
H1769 C1785 0.930 . S
H1770 C1786 0.931 . S
C1771 H1759 0.929 . S
C1771 C1765 1.390 . S
C1771 C1768 1.386 . S
C1772 C1767 1.490 . S
C1772 C1774 1.395 . S
C1772 C1775 1.403 . S
H1773 C1779 0.930 . S
C1774 H1760 0.930 . S
C1774 C1772 1.395 . S
C1774 C1777 1.403 . S
C1775 C1772 1.403 . S
C1775 C1776 1.524 . S
C1775 C1779 1.400 . S
C1776 H1761 0.960 . S
C1776 H1762 0.960 . S
C1776 H1763 0.960 . S
C1776 C1775 1.524 . S
C1777 C1774 1.403 . S
C1777 C1778 1.392 . S
C1777 C1781 1.495 . S
C1778 C1777 1.392 . S
C1778 C1779 1.385 . S
C1778 C1780 1.478 . S
C1779 H1773 0.930 . S
C1779 C1775 1.400 . S
C1779 C1778 1.385 . S
C1780 C1778 1.478 . S
C1780 C1782 1.381 . S
C1780 C1786 1.383 . S
C1781 C1777 1.495 . S
C1781 H1787 0.959 . S
C1781 H1788 0.961 . S
C1781 H1789 0.960 . S
C1782 C1780 1.381 . S
C1782 C1783 1.394 . S
C1782 H1790 0.930 . S
C1783 C1782 1.394 . S
C1783 C1784 1.383 . S
C1783 H1791 0.929 . S
C1784 C1783 1.383 . S
C1784 C1785 1.377 . S
C1785 H1769 0.930 . S
C1785 C1784 1.377 . S
C1785 C1786 1.379 . S
C1786 H1770 0.931 . S
C1786 C1780 1.383 . S
C1786 C1785 1.379 . S
H1787 C1781 0.959 . S
H1788 C1781 0.961 . S
H1789 C1781 0.960 . S
H1790 C1782 0.930 . S
H1791 C1783 0.929 . S
H1792 C1800 0.929 . S
H1793 C1802 0.930 . S
H1794 C1804 0.930 . S
H1795 C1807 0.929 . S
H1796 C1810 0.930 . S
H1797 C1812 0.960 . S
H1798 C1812 0.960 . S
H1799 C1812 0.960 . S
C1800 H1792 0.929 . S
C1800 C1801 1.377 . S
C1800 C1802 1.384 . S
C1801 C1800 1.377 . S
C1801 C1807 1.390 . S
C1802 H1793 0.930 . S
C1802 C1800 1.384 . S
C1802 C1803 1.372 . S
C1803 C1802 1.372 . S
C1803 C1804 1.400 . S
C1803 C1808 1.490 . S
C1804 H1794 0.930 . S
C1804 C1803 1.400 . S
C1804 C1807 1.386 . S
H1805 C1821 0.930 . S
H1806 C1822 0.931 . S
C1807 H1795 0.929 . S
C1807 C1801 1.390 . S
C1807 C1804 1.386 . S
C1808 C1803 1.490 . S
C1808 C1810 1.395 . S
C1808 C1811 1.403 . S
H1809 C1815 0.930 . S
C1810 H1796 0.930 . S
C1810 C1808 1.395 . S
C1810 C1813 1.403 . S
C1811 C1808 1.403 . S
C1811 C1812 1.524 . S
C1811 C1815 1.400 . S
C1812 H1797 0.960 . S
C1812 H1798 0.960 . S
C1812 H1799 0.960 . S
C1812 C1811 1.524 . S
C1813 C1810 1.403 . S
C1813 C1814 1.392 . S
C1813 C1817 1.495 . S
C1814 C1813 1.392 . S
C1814 C1815 1.385 . S
C1814 C1816 1.478 . S
C1815 H1809 0.930 . S
C1815 C1811 1.400 . S
C1815 C1814 1.385 . S
C1816 C1814 1.478 . S
C1816 C1818 1.381 . S
C1816 C1822 1.383 . S
C1817 C1813 1.495 . S
C1817 H1823 0.959 . S
C1817 H1824 0.961 . S
C1817 H1825 0.960 . S
C1818 C1816 1.381 . S
C1818 C1819 1.394 . S
C1818 H1826 0.930 . S
C1819 C1818 1.394 . S
C1819 C1820 1.383 . S
C1819 H1827 0.929 . S
C1820 C1819 1.383 . S
C1820 C1821 1.377 . S
C1821 H1805 0.930 . S
C1821 C1820 1.377 . S
C1821 C1822 1.379 . S
C1822 H1806 0.931 . S
C1822 C1816 1.383 . S
C1822 C1821 1.379 . S
H1823 C1817 0.959 . S
H1824 C1817 0.961 . S
H1825 C1817 0.960 . S
H1826 C1818 0.930 . S
H1827 C1819 0.929 . S
H1828 C1836 0.929 . S
H1829 C1838 0.930 . S
H1830 C1840 0.930 . S
H1831 C1843 0.929 . S
H1832 C1846 0.930 . S
H1833 C1848 0.960 . S
H1834 C1848 0.960 . S
H1835 C1848 0.960 . S
C1836 H1828 0.929 . S
C1836 C1837 1.377 . S
C1836 C1838 1.384 . S
C1837 C1836 1.377 . S
C1837 C1843 1.390 . S
C1838 H1829 0.930 . S
C1838 C1836 1.384 . S
C1838 C1839 1.372 . S
C1839 C1838 1.372 . S
C1839 C1840 1.400 . S
C1839 C1844 1.490 . S
C1840 H1830 0.930 . S
C1840 C1839 1.400 . S
C1840 C1843 1.386 . S
H1841 C1857 0.930 . S
H1842 C1858 0.931 . S
C1843 H1831 0.929 . S
C1843 C1837 1.390 . S
C1843 C1840 1.386 . S
C1844 C1839 1.490 . S
C1844 C1846 1.395 . S
C1844 C1847 1.403 . S
H1845 C1851 0.930 . S
C1846 H1832 0.930 . S
C1846 C1844 1.395 . S
C1846 C1849 1.403 . S
C1847 C1844 1.403 . S
C1847 C1848 1.524 . S
C1847 C1851 1.400 . S
C1848 H1833 0.960 . S
C1848 H1834 0.960 . S
C1848 H1835 0.960 . S
C1848 C1847 1.524 . S
C1849 C1846 1.403 . S
C1849 C1850 1.392 . S
C1849 C1853 1.495 . S
C1850 C1849 1.392 . S
C1850 C1851 1.385 . S
C1850 C1852 1.478 . S
C1851 H1845 0.930 . S
C1851 C1847 1.400 . S
C1851 C1850 1.385 . S
C1852 C1850 1.478 . S
C1852 C1854 1.381 . S
C1852 C1858 1.383 . S
C1853 C1849 1.495 . S
C1853 H1859 0.959 . S
C1853 H1860 0.961 . S
C1853 H1861 0.960 . S
C1854 C1852 1.381 . S
C1854 C1855 1.394 . S
C1854 H1862 0.930 . S
C1855 C1854 1.394 . S
C1855 C1856 1.383 . S
C1855 H1863 0.929 . S
C1856 C1855 1.383 . S
C1856 C1857 1.377 . S
C1857 H1841 0.930 . S
C1857 C1856 1.377 . S
C1857 C1858 1.379 . S
C1858 H1842 0.931 . S
C1858 C1852 1.383 . S
C1858 C1857 1.379 . S
H1859 C1853 0.959 . S
H1860 C1853 0.961 . S
H1861 C1853 0.960 . S
H1862 C1854 0.930 . S
H1863 C1855 0.929 . S
H1864 C1872 0.929 . S
H1865 C1874 0.930 . S
H1866 C1876 0.930 . S
H1867 C1879 0.929 . S
H1868 C1882 0.930 . S
H1869 C1884 0.960 . S
H1870 C1884 0.960 . S
H1871 C1884 0.960 . S
C1872 H1864 0.929 . S
C1872 C1873 1.377 . S
C1872 C1874 1.384 . S
C1873 C1872 1.377 . S
C1873 C1879 1.390 . S
C1874 H1865 0.930 . S
C1874 C1872 1.384 . S
C1874 C1875 1.372 . S
C1875 C1874 1.372 . S
C1875 C1876 1.400 . S
C1875 C1880 1.490 . S
C1876 H1866 0.930 . S
C1876 C1875 1.400 . S
C1876 C1879 1.386 . S
H1877 C1893 0.930 . S
H1878 C1894 0.931 . S
C1879 H1867 0.929 . S
C1879 C1873 1.390 . S
C1879 C1876 1.386 . S
C1880 C1875 1.490 . S
C1880 C1882 1.395 . S
C1880 C1883 1.403 . S
H1881 C1887 0.930 . S
C1882 H1868 0.930 . S
C1882 C1880 1.395 . S
C1882 C1885 1.403 . S
C1883 C1880 1.403 . S
C1883 C1884 1.524 . S
C1883 C1887 1.400 . S
C1884 H1869 0.960 . S
C1884 H1870 0.960 . S
C1884 H1871 0.960 . S
C1884 C1883 1.524 . S
C1885 C1882 1.403 . S
C1885 C1886 1.392 . S
C1885 C1889 1.495 1_655 S
C1886 C1885 1.392 . S
C1886 C1887 1.385 . S
C1886 C1888 1.478 . S
C1887 H1881 0.930 . S
C1887 C1883 1.400 . S
C1887 C1886 1.385 . S
C1888 C1886 1.478 . S
C1888 C1890 1.381 . S
C1888 C1894 1.383 . S
C1889 C1885 1.495 1_455 S
C1889 H1895 0.959 . S
C1889 H1896 0.961 . S
C1889 H1897 0.960 . S
C1890 C1888 1.381 . S
C1890 C1891 1.394 . S
C1890 H1898 0.930 . S
C1891 C1890 1.394 . S
C1891 C1892 1.383 . S
C1891 H1899 0.929 . S
C1892 C1891 1.383 . S
C1892 C1893 1.377 . S
C1893 H1877 0.930 . S
C1893 C1892 1.377 . S
C1893 C1894 1.379 . S
C1894 H1878 0.931 . S
C1894 C1888 1.383 . S
C1894 C1893 1.379 . S
H1895 C1889 0.959 . S
H1896 C1889 0.961 . S
H1897 C1889 0.960 . S
H1898 C1890 0.930 . S
H1899 C1891 0.929 . S
H1900 C1908 0.929 . S
H1901 C1910 0.930 . S
H1902 C1912 0.930 . S
H1903 C1915 0.929 . S
H1904 C1918 0.930 . S
H1905 C1920 0.960 . S
H1906 C1920 0.960 . S
H1907 C1920 0.960 . S
C1908 H1900 0.929 . S
C1908 C1909 1.377 . S
C1908 C1910 1.384 . S
C1909 C1908 1.377 . S
C1909 C1915 1.390 . S
C1910 H1901 0.930 . S
C1910 C1908 1.384 . S
C1910 C1911 1.372 . S
C1911 C1910 1.372 . S
C1911 C1912 1.400 . S
C1911 C1916 1.490 . S
C1912 H1902 0.930 . S
C1912 C1911 1.400 . S
C1912 C1915 1.386 . S
H1913 C1929 0.930 . S
H1914 C1930 0.931 . S
C1915 H1903 0.929 . S
C1915 C1909 1.390 . S
C1915 C1912 1.386 . S
C1916 C1911 1.490 . S
C1916 C1918 1.395 . S
C1916 C1919 1.403 . S
H1917 C1923 0.930 . S
C1918 H1904 0.930 . S
C1918 C1916 1.395 . S
C1918 C1921 1.403 . S
C1919 C1916 1.403 . S
C1919 C1920 1.524 . S
C1919 C1923 1.400 . S
C1920 H1905 0.960 . S
C1920 H1906 0.960 . S
C1920 H1907 0.960 . S
C1920 C1919 1.524 . S
C1921 C1918 1.403 . S
C1921 C1922 1.392 . S
C1921 C1925 1.495 . S
C1922 C1921 1.392 . S
C1922 C1923 1.385 . S
C1922 C1924 1.478 . S
C1923 H1917 0.930 . S
C1923 C1919 1.400 . S
C1923 C1922 1.385 . S
C1924 C1922 1.478 . S
C1924 C1926 1.381 . S
C1924 C1930 1.383 . S
C1925 C1921 1.495 . S
C1925 H1931 0.959 . S
C1925 H1932 0.961 . S
C1925 H1933 0.960 . S
C1926 C1924 1.381 . S
C1926 C1927 1.394 . S
C1926 H1934 0.930 . S
C1927 C1926 1.394 . S
C1927 C1928 1.383 . S
C1927 H1935 0.929 . S
C1928 C1927 1.383 . S
C1928 C1929 1.377 . S
C1929 H1913 0.930 . S
C1929 C1928 1.377 . S
C1929 C1930 1.379 . S
C1930 H1914 0.931 . S
C1930 C1924 1.383 . S
C1930 C1929 1.379 . S
H1931 C1925 0.959 . S
H1932 C1925 0.961 . S
H1933 C1925 0.960 . S
H1934 C1926 0.930 . S
H1935 C1927 0.929 . S
H1936 C1944 0.929 . S
H1937 C1946 0.930 . S
H1938 C1948 0.930 . S
H1939 C1951 0.929 . S
H1940 C1954 0.930 . S
H1941 C1956 0.960 . S
H1942 C1956 0.960 . S
H1943 C1956 0.960 . S
C1944 H1936 0.929 . S
C1944 C1945 1.377 . S
C1944 C1946 1.384 . S
C1945 C1944 1.377 . S
C1945 C1951 1.390 . S
C1946 H1937 0.930 . S
C1946 C1944 1.384 . S
C1946 C1947 1.372 . S
C1947 C1946 1.372 . S
C1947 C1948 1.400 . S
C1947 C1952 1.490 . S
C1948 H1938 0.930 . S
C1948 C1947 1.400 . S
C1948 C1951 1.386 . S
H1949 C1965 0.930 . S
H1950 C1966 0.931 . S
C1951 H1939 0.929 . S
C1951 C1945 1.390 . S
C1951 C1948 1.386 . S
C1952 C1947 1.490 . S
C1952 C1954 1.395 . S
C1952 C1955 1.403 . S
H1953 C1959 0.930 . S
C1954 H1940 0.930 . S
C1954 C1952 1.395 . S
C1954 C1957 1.403 . S
C1955 C1952 1.403 . S
C1955 C1956 1.524 . S
C1955 C1959 1.400 . S
C1956 H1941 0.960 . S
C1956 H1942 0.960 . S
C1956 H1943 0.960 . S
C1956 C1955 1.524 . S
C1957 C1954 1.403 . S
C1957 C1958 1.392 . S
C1957 C1961 1.495 . S
C1958 C1957 1.392 . S
C1958 C1959 1.385 . S
C1958 C1960 1.478 . S
C1959 H1953 0.930 . S
C1959 C1955 1.400 . S
C1959 C1958 1.385 . S
C1960 C1958 1.478 . S
C1960 C1962 1.381 . S
C1960 C1966 1.383 . S
C1961 C1957 1.495 . S
C1961 H1967 0.959 . S
C1961 H1968 0.961 . S
C1961 H1969 0.960 . S
C1962 C1960 1.381 . S
C1962 C1963 1.394 . S
C1962 H1970 0.930 . S
C1963 C1962 1.394 . S
C1963 C1964 1.383 . S
C1963 H1971 0.929 . S
C1964 C1963 1.383 . S
C1964 C1965 1.377 . S
C1965 H1949 0.930 . S
C1965 C1964 1.377 . S
C1965 C1966 1.379 . S
C1966 H1950 0.931 . S
C1966 C1960 1.383 . S
C1966 C1965 1.379 . S
H1967 C1961 0.959 . S
H1968 C1961 0.961 . S
H1969 C1961 0.960 . S
H1970 C1962 0.930 . S
H1971 C1963 0.929 . S
H1972 C1980 0.929 . S
H1973 C1982 0.930 . S
H1974 C1984 0.930 . S
H1975 C1987 0.929 . S
H1976 C1990 0.930 . S
H1977 C1992 0.960 . S
H1978 C1992 0.960 . S
H1979 C1992 0.960 . S
C1980 H1972 0.929 . S
C1980 C1981 1.377 . S
C1980 C1982 1.384 . S
C1981 C1980 1.377 . S
C1981 C1987 1.390 . S
C1982 H1973 0.930 . S
C1982 C1980 1.384 . S
C1982 C1983 1.372 . S
C1983 C1982 1.372 . S
C1983 C1984 1.400 . S
C1983 C1988 1.490 . S
C1984 H1974 0.930 . S
C1984 C1983 1.400 . S
C1984 C1987 1.386 . S
H1985 C2001 0.930 . S
H1986 C2002 0.931 . S
C1987 H1975 0.929 . S
C1987 C1981 1.390 . S
C1987 C1984 1.386 . S
C1988 C1983 1.490 . S
C1988 C1990 1.395 . S
C1988 C1991 1.403 . S
H1989 C1995 0.930 . S
C1990 H1976 0.930 . S
C1990 C1988 1.395 . S
C1990 C1993 1.403 . S
C1991 C1988 1.403 . S
C1991 C1992 1.524 . S
C1991 C1995 1.400 . S
C1992 H1977 0.960 . S
C1992 H1978 0.960 . S
C1992 H1979 0.960 . S
C1992 C1991 1.524 . S
C1993 C1990 1.403 . S
C1993 C1994 1.392 . S
C1993 C1997 1.495 . S
C1994 C1993 1.392 . S
C1994 C1995 1.385 . S
C1994 C1996 1.478 . S
C1995 H1989 0.930 . S
C1995 C1991 1.400 . S
C1995 C1994 1.385 . S
C1996 C1994 1.478 . S
C1996 C1998 1.381 . S
C1996 C2002 1.383 . S
C1997 C1993 1.495 . S
C1997 H2003 0.959 . S
C1997 H2004 0.961 . S
C1997 H2005 0.960 . S
C1998 C1996 1.381 . S
C1998 C1999 1.394 . S
C1998 H2006 0.930 . S
C1999 C1998 1.394 . S
C1999 C2000 1.383 . S
C1999 H2007 0.929 . S
C2000 C1999 1.383 . S
C2000 C2001 1.377 . S
C2001 H1985 0.930 . S
C2001 C2000 1.377 . S
C2001 C2002 1.379 . S
C2002 H1986 0.931 . S
C2002 C1996 1.383 . S
C2002 C2001 1.379 . S
H2003 C1997 0.959 . S
H2004 C1997 0.961 . S
H2005 C1997 0.960 . S
H2006 C1998 0.930 . S
H2007 C1999 0.929 . S
H2008 C2016 0.929 . S
H2009 C2018 0.930 . S
H2010 C2020 0.930 . S
H2011 C2023 0.929 . S
H2012 C2026 0.930 . S
H2013 C2028 0.960 . S
H2014 C2028 0.960 . S
H2015 C2028 0.960 . S
C2016 H2008 0.929 . S
C2016 C2017 1.377 . S
C2016 C2018 1.384 . S
C2017 C2016 1.377 . S
C2017 C2023 1.390 . S
C2018 H2009 0.930 . S
C2018 C2016 1.384 . S
C2018 C2019 1.372 . S
C2019 C2018 1.372 . S
C2019 C2020 1.400 . S
C2019 C2024 1.490 . S
C2020 H2010 0.930 . S
C2020 C2019 1.400 . S
C2020 C2023 1.386 . S
H2021 C2037 0.930 . S
H2022 C2038 0.931 . S
C2023 H2011 0.929 . S
C2023 C2017 1.390 . S
C2023 C2020 1.386 . S
C2024 C2019 1.490 . S
C2024 C2026 1.395 . S
C2024 C2027 1.403 . S
H2025 C2031 0.930 . S
C2026 H2012 0.930 . S
C2026 C2024 1.395 . S
C2026 C2029 1.403 . S
C2027 C2024 1.403 . S
C2027 C2028 1.524 . S
C2027 C2031 1.400 . S
C2028 H2013 0.960 . S
C2028 H2014 0.960 . S
C2028 H2015 0.960 . S
C2028 C2027 1.524 . S
C2029 C2026 1.403 . S
C2029 C2030 1.392 . S
C2029 C2033 1.495 . S
C2030 C2029 1.392 . S
C2030 C2031 1.385 . S
C2030 C2032 1.478 . S
C2031 H2025 0.930 . S
C2031 C2027 1.400 . S
C2031 C2030 1.385 . S
C2032 C2030 1.478 . S
C2032 C2034 1.381 . S
C2032 C2038 1.383 . S
C2033 C2029 1.495 . S
C2033 H2039 0.959 . S
C2033 H2040 0.961 . S
C2033 H2041 0.960 . S
C2034 C2032 1.381 . S
C2034 C2035 1.394 . S
C2034 H2042 0.930 . S
C2035 C2034 1.394 . S
C2035 C2036 1.383 . S
C2035 H2043 0.929 . S
C2036 C2035 1.383 . S
C2036 C2037 1.377 . S
C2037 H2021 0.930 . S
C2037 C2036 1.377 . S
C2037 C2038 1.379 . S
C2038 H2022 0.931 . S
C2038 C2032 1.383 . S
C2038 C2037 1.379 . S
H2039 C2033 0.959 . S
H2040 C2033 0.961 . S
H2041 C2033 0.960 . S
H2042 C2034 0.930 . S
H2043 C2035 0.929 . S
H2044 C2052 0.929 . S
H2045 C2054 0.930 . S
H2046 C2056 0.930 . S
H2047 C2059 0.929 . S
H2048 C2062 0.930 . S
H2049 C2064 0.960 . S
H2050 C2064 0.960 . S
H2051 C2064 0.960 . S
C2052 H2044 0.929 . S
C2052 C2053 1.377 . S
C2052 C2054 1.384 . S
C2053 C2052 1.377 . S
C2053 C2059 1.390 . S
C2054 H2045 0.930 . S
C2054 C2052 1.384 . S
C2054 C2055 1.372 . S
C2055 C2054 1.372 . S
C2055 C2056 1.400 . S
C2055 C2060 1.490 . S
C2056 H2046 0.930 . S
C2056 C2055 1.400 . S
C2056 C2059 1.386 . S
H2057 C2073 0.930 . S
H2058 C2074 0.931 . S
C2059 H2047 0.929 . S
C2059 C2053 1.390 . S
C2059 C2056 1.386 . S
C2060 C2055 1.490 . S
C2060 C2062 1.395 . S
C2060 C2063 1.403 . S
H2061 C2067 0.930 . S
C2062 H2048 0.930 . S
C2062 C2060 1.395 . S
C2062 C2065 1.403 . S
C2063 C2060 1.403 . S
C2063 C2064 1.524 . S
C2063 C2067 1.400 . S
C2064 H2049 0.960 . S
C2064 H2050 0.960 . S
C2064 H2051 0.960 . S
C2064 C2063 1.524 . S
C2065 C2062 1.403 . S
C2065 C2066 1.392 . S
C2065 C2069 1.495 . S
C2066 C2065 1.392 . S
C2066 C2067 1.385 . S
C2066 C2068 1.478 . S
C2067 H2061 0.930 . S
C2067 C2063 1.400 . S
C2067 C2066 1.385 . S
C2068 C2066 1.478 . S
C2068 C2070 1.381 . S
C2068 C2074 1.383 . S
C2069 C2065 1.495 . S
C2069 H2075 0.959 . S
C2069 H2076 0.961 . S
C2069 H2077 0.960 . S
C2070 C2068 1.381 . S
C2070 C2071 1.394 . S
C2070 H2078 0.930 . S
C2071 C2070 1.394 . S
C2071 C2072 1.383 . S
C2071 H2079 0.929 . S
C2072 C2071 1.383 . S
C2072 C2073 1.377 . S
C2073 H2057 0.930 . S
C2073 C2072 1.377 . S
C2073 C2074 1.379 . S
C2074 H2058 0.931 . S
C2074 C2068 1.383 . S
C2074 C2073 1.379 . S
H2075 C2069 0.959 . S
H2076 C2069 0.961 . S
H2077 C2069 0.960 . S
H2078 C2070 0.930 . S
H2079 C2071 0.929 . S
H2080 C2088 0.929 . S
H2081 C2090 0.930 . S
H2082 C2092 0.930 . S
H2083 C2095 0.929 . S
H2084 C2098 0.930 . S
H2085 C2100 0.960 . S
H2086 C2100 0.960 . S
H2087 C2100 0.960 . S
C2088 H2080 0.929 . S
C2088 C2089 1.377 . S
C2088 C2090 1.384 . S
C2089 C2088 1.377 . S
C2089 C2095 1.390 . S
C2090 H2081 0.930 . S
C2090 C2088 1.384 . S
C2090 C2091 1.372 . S
C2091 C2090 1.372 . S
C2091 C2092 1.400 . S
C2091 C2096 1.490 . S
C2092 H2082 0.930 . S
C2092 C2091 1.400 . S
C2092 C2095 1.386 . S
H2093 C2109 0.930 . S
H2094 C2110 0.931 . S
C2095 H2083 0.929 . S
C2095 C2089 1.390 . S
C2095 C2092 1.386 . S
C2096 C2091 1.490 . S
C2096 C2098 1.395 . S
C2096 C2099 1.403 . S
H2097 C2103 0.930 . S
C2098 H2084 0.930 . S
C2098 C2096 1.395 . S
C2098 C2101 1.403 . S
C2099 C2096 1.403 . S
C2099 C2100 1.524 . S
C2099 C2103 1.400 . S
C2100 H2085 0.960 . S
C2100 H2086 0.960 . S
C2100 H2087 0.960 . S
C2100 C2099 1.524 . S
C2101 C2098 1.403 . S
C2101 C2102 1.392 . S
C2101 C2105 1.495 . S
C2102 C2101 1.392 . S
C2102 C2103 1.385 . S
C2102 C2104 1.478 . S
C2103 H2097 0.930 . S
C2103 C2099 1.400 . S
C2103 C2102 1.385 . S
C2104 C2102 1.478 . S
C2104 C2106 1.381 . S
C2104 C2110 1.383 . S
C2105 C2101 1.495 . S
C2105 H2111 0.959 . S
C2105 H2112 0.961 . S
C2105 H2113 0.960 . S
C2106 C2104 1.381 . S
C2106 C2107 1.394 . S
C2106 H2114 0.930 . S
C2107 C2106 1.394 . S
C2107 C2108 1.383 . S
C2107 H2115 0.929 . S
C2108 C2107 1.383 . S
C2108 C2109 1.377 . S
C2109 H2093 0.930 . S
C2109 C2108 1.377 . S
C2109 C2110 1.379 . S
C2110 H2094 0.931 . S
C2110 C2104 1.383 . S
C2110 C2109 1.379 . S
H2111 C2105 0.959 . S
H2112 C2105 0.961 . S
H2113 C2105 0.960 . S
H2114 C2106 0.930 . S
H2115 C2107 0.929 . S
H2116 C2124 0.929 . S
H2117 C2126 0.930 . S
H2118 C2128 0.930 . S
H2119 C2131 0.929 . S
H2120 C2134 0.930 . S
H2121 C2136 0.960 . S
H2122 C2136 0.960 . S
H2123 C2136 0.960 . S
C2124 H2116 0.929 . S
C2124 C2125 1.377 . S
C2124 C2126 1.384 . S
C2125 C2124 1.377 . S
C2125 C2131 1.390 . S
C2126 H2117 0.930 . S
C2126 C2124 1.384 . S
C2126 C2127 1.372 . S
C2127 C2126 1.372 . S
C2127 C2128 1.400 . S
C2127 C2132 1.490 . S
C2128 H2118 0.930 . S
C2128 C2127 1.400 . S
C2128 C2131 1.386 . S
H2129 C2145 0.930 . S
H2130 C2146 0.931 . S
C2131 H2119 0.929 . S
C2131 C2125 1.390 . S
C2131 C2128 1.386 . S
C2132 C2127 1.490 . S
C2132 C2134 1.395 . S
C2132 C2135 1.403 . S
H2133 C2139 0.930 . S
C2134 H2120 0.930 . S
C2134 C2132 1.395 . S
C2134 C2137 1.403 . S
C2135 C2132 1.403 . S
C2135 C2136 1.524 . S
C2135 C2139 1.400 . S
C2136 H2121 0.960 . S
C2136 H2122 0.960 . S
C2136 H2123 0.960 . S
C2136 C2135 1.524 . S
C2137 C2134 1.403 . S
C2137 C2138 1.392 . S
C2137 C2141 1.495 . S
C2138 C2137 1.392 . S
C2138 C2139 1.385 . S
C2138 C2140 1.478 . S
C2139 H2133 0.930 . S
C2139 C2135 1.400 . S
C2139 C2138 1.385 . S
C2140 C2138 1.478 . S
C2140 C2142 1.381 . S
C2140 C2146 1.383 . S
C2141 C2137 1.495 . S
C2141 H2147 0.959 . S
C2141 H2148 0.961 . S
C2141 H2149 0.960 . S
C2142 C2140 1.381 . S
C2142 C2143 1.394 . S
C2142 H2150 0.930 . S
C2143 C2142 1.394 . S
C2143 C2144 1.383 . S
C2143 H2151 0.929 . S
C2144 C2143 1.383 . S
C2144 C2145 1.377 . S
C2145 H2129 0.930 . S
C2145 C2144 1.377 . S
C2145 C2146 1.379 . S
C2146 H2130 0.931 . S
C2146 C2140 1.383 . S
C2146 C2145 1.379 . S
H2147 C2141 0.959 . S
H2148 C2141 0.961 . S
H2149 C2141 0.960 . S
H2150 C2142 0.930 . S
H2151 C2143 0.929 . S
H2152 C2160 0.929 . S
H2153 C2162 0.930 . S
H2154 C2164 0.930 . S
H2155 C2167 0.929 . S
H2156 C2170 0.930 . S
H2157 C2172 0.960 . S
H2158 C2172 0.960 . S
H2159 C2172 0.960 . S
C2160 H2152 0.929 . S
C2160 C2161 1.377 . S
C2160 C2162 1.384 . S
C2161 C2160 1.377 . S
C2161 C2167 1.390 . S
C2162 H2153 0.930 . S
C2162 C2160 1.384 . S
C2162 C2163 1.372 . S
C2163 C2162 1.372 . S
C2163 C2164 1.400 . S
C2163 C2168 1.490 . S
C2164 H2154 0.930 . S
C2164 C2163 1.400 . S
C2164 C2167 1.386 . S
H2165 C2181 0.930 . S
H2166 C2182 0.931 . S
C2167 H2155 0.929 . S
C2167 C2161 1.390 . S
C2167 C2164 1.386 . S
C2168 C2163 1.490 . S
C2168 C2170 1.395 . S
C2168 C2171 1.403 . S
H2169 C2175 0.930 . S
C2170 H2156 0.930 . S
C2170 C2168 1.395 . S
C2170 C2173 1.403 . S
C2171 C2168 1.403 . S
C2171 C2172 1.524 . S
C2171 C2175 1.400 . S
C2172 H2157 0.960 . S
C2172 H2158 0.960 . S
C2172 H2159 0.960 . S
C2172 C2171 1.524 . S
C2173 C2170 1.403 . S
C2173 C2174 1.392 . S
C2173 C2177 1.495 . S
C2174 C2173 1.392 . S
C2174 C2175 1.385 . S
C2174 C2176 1.478 . S
C2175 H2169 0.930 . S
C2175 C2171 1.400 . S
C2175 C2174 1.385 . S
C2176 C2174 1.478 . S
C2176 C2178 1.381 . S
C2176 C2182 1.383 . S
C2177 C2173 1.495 . S
C2177 H2183 0.959 . S
C2177 H2184 0.961 . S
C2177 H2185 0.960 . S
C2178 C2176 1.381 . S
C2178 C2179 1.394 . S
C2178 H2186 0.930 . S
C2179 C2178 1.394 . S
C2179 C2180 1.383 . S
C2179 H2187 0.929 . S
C2180 C2179 1.383 . S
C2180 C2181 1.377 . S
C2181 H2165 0.930 . S
C2181 C2180 1.377 . S
C2181 C2182 1.379 . S
C2182 H2166 0.931 . S
C2182 C2176 1.383 . S
C2182 C2181 1.379 . S
H2183 C2177 0.959 . S
H2184 C2177 0.961 . S
H2185 C2177 0.960 . S
H2186 C2178 0.930 . S
H2187 C2179 0.929 . S
C1064 C972 1.901 . S
C1045 C11 1.313 . S
C1081 C143 1.428 . S
C1100 C975 1.761 . S
C1117 C283 1.372 . S
C1136 C1006 1.854 . S
C1172 C941 1.738 . S
C1153 C343 1.452 . S
C1208 C976 1.990 . S
C1189 C55 1.475 . S
C1244 C1007 1.723 . S
C1225 C115 1.442 . S
C1280 C932 1.825 . S
C1261 C239 1.226 . S
C1316 C963 1.783 . S
C1297 C371 1.426 . S
C1333 C29 0.897 . S
C1352 C993 0.915 . S
C1369 C467 0.728 . S
C1388 C962 1.090 . S
C1405 C229 0.768 . S
C1424 C922 0.858 . S
C1460 C1015 1.145 . S
C1441 C625 0.920 . S
C1496 C943 0.963 . S
C1477 C1 0.803 . S
C1513 C511 0.883 . S
C1532 C942 1.105 . S
C1549 C257 0.843 . S
C1568 C1035 0.939 . S
C1604 C974 1.106 . S
C1585 C581 0.729 1_545 S
C1621 C713 1.497 . S
C1640 C1034 1.868 . S
C1657 C485 1.416 . S
C1676 C913 1.744 . S
C1693 C799 1.364 . S
C1712 C944 1.630 . S
C1729 C571 1.452 . S
C1748 C1003 1.710 . S
C1784 C914 1.725 . S
C1765 C685 1.473 . S
C1801 C457 1.446 . S
C1820 C945 1.708 . S
C1837 C827 1.399 . S
C1856 C994 1.726 . S
C1892 C1025 1.776 . S
C1873 C599 1.406 . S
C1909 C695 0.721 . S
C1928 C931 1.071 . S
C1945 C125 0.712 . S
C1964 C1024 1.057 . S
C1981 C853 0.918 . S
C2000 C984 1.129 . S
C2036 C953 1.134 . S
C2017 C397 0.911 . S
C2072 C1005 1.113 . S
C2053 C739 0.947 . S
C2108 C1004 1.152 . S
C2089 C169 0.929 . S
C2144 C973 1.068 . S
C2125 C809 0.704 . S
C2180 C912 1.148 . S
C2161 C353 0.729 . S
