# Generated by pormake.
# Topology tbo, (3,4)-cn, num edge types: 1
# Building blocks:
#     Node 0, Type 0, BuildingBlock: BETDIP_clean_linker_0, # of connection points: 3
#     Node 1, Type 0, BuildingBlock: BETDIP_clean_linker_0, # of connection points: 3
#     Node 2, Type 0, BuildingBlock: BETDIP_clean_linker_0, # of connection points: 3
#     Node 3, Type 0, BuildingBlock: BETDIP_clean_linker_0, # of connection points: 3
#     Node 4, Type 0, BuildingBlock: BETDIP_clean_linker_0, # of connection points: 3
#     Node 5, Type 0, BuildingBlock: BETDIP_clean_linker_0, # of connection points: 3
#     Node 6, Type 0, BuildingBlock: BETDIP_clean_linker_0, # of connection points: 3
#     Node 7, Type 0, BuildingBlock: BETDIP_clean_linker_0, # of connection points: 3
#     Node 8, Type 0, BuildingBlock: BETDIP_clean_linker_0, # of connection points: 3
#     Node 9, Type 0, BuildingBlock: BETDIP_clean_linker_0, # of connection points: 3
#     Node 10, Type 0, BuildingBlock: BETDIP_clean_linker_0, # of connection points: 3
#     Node 11, Type 0, BuildingBlock: BETDIP_clean_linker_0, # of connection points: 3
#     Node 12, Type 0, BuildingBlock: BETDIP_clean_linker_0, # of connection points: 3
#     Node 13, Type 0, BuildingBlock: BETDIP_clean_linker_0, # of connection points: 3
#     Node 14, Type 0, BuildingBlock: BETDIP_clean_linker_0, # of connection points: 3
#     Node 15, Type 0, BuildingBlock: BETDIP_clean_linker_0, # of connection points: 3
#     Node 16, Type 0, BuildingBlock: BETDIP_clean_linker_0, # of connection points: 3
#     Node 17, Type 0, BuildingBlock: BETDIP_clean_linker_0, # of connection points: 3
#     Node 18, Type 0, BuildingBlock: BETDIP_clean_linker_0, # of connection points: 3
#     Node 19, Type 0, BuildingBlock: BETDIP_clean_linker_0, # of connection points: 3
#     Node 20, Type 0, BuildingBlock: BETDIP_clean_linker_0, # of connection points: 3
#     Node 21, Type 0, BuildingBlock: BETDIP_clean_linker_0, # of connection points: 3
#     Node 22, Type 0, BuildingBlock: BETDIP_clean_linker_0, # of connection points: 3
#     Node 23, Type 0, BuildingBlock: BETDIP_clean_linker_0, # of connection points: 3
#     Node 24, Type 0, BuildingBlock: BETDIP_clean_linker_0, # of connection points: 3
#     Node 25, Type 0, BuildingBlock: BETDIP_clean_linker_0, # of connection points: 3
#     Node 26, Type 0, BuildingBlock: BETDIP_clean_linker_0, # of connection points: 3
#     Node 27, Type 0, BuildingBlock: BETDIP_clean_linker_0, # of connection points: 3
#     Node 28, Type 0, BuildingBlock: BETDIP_clean_linker_0, # of connection points: 3
#     Node 29, Type 0, BuildingBlock: BETDIP_clean_linker_0, # of connection points: 3
#     Node 30, Type 0, BuildingBlock: BETDIP_clean_linker_0, # of connection points: 3
#     Node 31, Type 0, BuildingBlock: BETDIP_clean_linker_0, # of connection points: 3
#     Node 32, Type 1, BuildingBlock: ESEHIV_clean_sbu_0, # of connection points: 4
#     Node 33, Type 1, BuildingBlock: ESEHIV_clean_sbu_0, # of connection points: 4
#     Node 34, Type 1, BuildingBlock: ESEHIV_clean_sbu_0, # of connection points: 4
#     Node 35, Type 1, BuildingBlock: ESEHIV_clean_sbu_0, # of connection points: 4
#     Node 36, Type 1, BuildingBlock: ESEHIV_clean_sbu_0, # of connection points: 4
#     Node 37, Type 1, BuildingBlock: ESEHIV_clean_sbu_0, # of connection points: 4
#     Node 38, Type 1, BuildingBlock: ESEHIV_clean_sbu_0, # of connection points: 4
#     Node 39, Type 1, BuildingBlock: ESEHIV_clean_sbu_0, # of connection points: 4
#     Node 40, Type 1, BuildingBlock: ESEHIV_clean_sbu_0, # of connection points: 4
#     Node 41, Type 1, BuildingBlock: ESEHIV_clean_sbu_0, # of connection points: 4
#     Node 42, Type 1, BuildingBlock: ESEHIV_clean_sbu_0, # of connection points: 4
#     Node 43, Type 1, BuildingBlock: ESEHIV_clean_sbu_0, # of connection points: 4
#     Node 44, Type 1, BuildingBlock: ESEHIV_clean_sbu_0, # of connection points: 4
#     Node 45, Type 1, BuildingBlock: ESEHIV_clean_sbu_0, # of connection points: 4
#     Node 46, Type 1, BuildingBlock: ESEHIV_clean_sbu_0, # of connection points: 4
#     Node 47, Type 1, BuildingBlock: ESEHIV_clean_sbu_0, # of connection points: 4
#     Node 48, Type 1, BuildingBlock: ESEHIV_clean_sbu_0, # of connection points: 4
#     Node 49, Type 1, BuildingBlock: ESEHIV_clean_sbu_0, # of connection points: 4
#     Node 50, Type 1, BuildingBlock: ESEHIV_clean_sbu_0, # of connection points: 4
#     Node 51, Type 1, BuildingBlock: ESEHIV_clean_sbu_0, # of connection points: 4
#     Node 52, Type 1, BuildingBlock: ESEHIV_clean_sbu_0, # of connection points: 4
#     Node 53, Type 1, BuildingBlock: ESEHIV_clean_sbu_0, # of connection points: 4
#     Node 54, Type 1, BuildingBlock: ESEHIV_clean_sbu_0, # of connection points: 4
#     Node 55, Type 1, BuildingBlock: ESEHIV_clean_sbu_0, # of connection points: 4
#     Edge 56, Type (0, 1), BuildingBlock: XUDNAN_clean_linker_2, # of connection points: 2
#     Edge 57, Type (0, 1), BuildingBlock: XUDNAN_clean_linker_2, # of connection points: 2
#     Edge 58, Type (0, 1), BuildingBlock: XUDNAN_clean_linker_2, # of connection points: 2
#     Edge 59, Type (0, 1), BuildingBlock: XUDNAN_clean_linker_2, # of connection points: 2
#     Edge 60, Type (0, 1), BuildingBlock: XUDNAN_clean_linker_2, # of connection points: 2
#     Edge 61, Type (0, 1), BuildingBlock: XUDNAN_clean_linker_2, # of connection points: 2
#     Edge 62, Type (0, 1), BuildingBlock: XUDNAN_clean_linker_2, # of connection points: 2
#     Edge 63, Type (0, 1), BuildingBlock: XUDNAN_clean_linker_2, # of connection points: 2
#     Edge 64, Type (0, 1), BuildingBlock: XUDNAN_clean_linker_2, # of connection points: 2
#     Edge 65, Type (0, 1), BuildingBlock: XUDNAN_clean_linker_2, # of connection points: 2
#     Edge 66, Type (0, 1), BuildingBlock: XUDNAN_clean_linker_2, # of connection points: 2
#     Edge 67, Type (0, 1), BuildingBlock: XUDNAN_clean_linker_2, # of connection points: 2
#     Edge 68, Type (0, 1), BuildingBlock: XUDNAN_clean_linker_2, # of connection points: 2
#     Edge 69, Type (0, 1), BuildingBlock: XUDNAN_clean_linker_2, # of connection points: 2
#     Edge 70, Type (0, 1), BuildingBlock: XUDNAN_clean_linker_2, # of connection points: 2
#     Edge 71, Type (0, 1), BuildingBlock: XUDNAN_clean_linker_2, # of connection points: 2
#     Edge 72, Type (0, 1), BuildingBlock: XUDNAN_clean_linker_2, # of connection points: 2
#     Edge 73, Type (0, 1), BuildingBlock: XUDNAN_clean_linker_2, # of connection points: 2
#     Edge 74, Type (0, 1), BuildingBlock: XUDNAN_clean_linker_2, # of connection points: 2
#     Edge 75, Type (0, 1), BuildingBlock: XUDNAN_clean_linker_2, # of connection points: 2
#     Edge 76, Type (0, 1), BuildingBlock: XUDNAN_clean_linker_2, # of connection points: 2
#     Edge 77, Type (0, 1), BuildingBlock: XUDNAN_clean_linker_2, # of connection points: 2
#     Edge 78, Type (0, 1), BuildingBlock: XUDNAN_clean_linker_2, # of connection points: 2
#     Edge 79, Type (0, 1), BuildingBlock: XUDNAN_clean_linker_2, # of connection points: 2
#     Edge 80, Type (0, 1), BuildingBlock: XUDNAN_clean_linker_2, # of connection points: 2
#     Edge 81, Type (0, 1), BuildingBlock: XUDNAN_clean_linker_2, # of connection points: 2
#     Edge 82, Type (0, 1), BuildingBlock: XUDNAN_clean_linker_2, # of connection points: 2
#     Edge 83, Type (0, 1), BuildingBlock: XUDNAN_clean_linker_2, # of connection points: 2
#     Edge 84, Type (0, 1), BuildingBlock: XUDNAN_clean_linker_2, # of connection points: 2
#     Edge 85, Type (0, 1), BuildingBlock: XUDNAN_clean_linker_2, # of connection points: 2
#     Edge 86, Type (0, 1), BuildingBlock: XUDNAN_clean_linker_2, # of connection points: 2
#     Edge 87, Type (0, 1), BuildingBlock: XUDNAN_clean_linker_2, # of connection points: 2
#     Edge 88, Type (0, 1), BuildingBlock: XUDNAN_clean_linker_2, # of connection points: 2
#     Edge 89, Type (0, 1), BuildingBlock: XUDNAN_clean_linker_2, # of connection points: 2
#     Edge 90, Type (0, 1), BuildingBlock: XUDNAN_clean_linker_2, # of connection points: 2
#     Edge 91, Type (0, 1), BuildingBlock: XUDNAN_clean_linker_2, # of connection points: 2
#     Edge 92, Type (0, 1), BuildingBlock: XUDNAN_clean_linker_2, # of connection points: 2
#     Edge 93, Type (0, 1), BuildingBlock: XUDNAN_clean_linker_2, # of connection points: 2
#     Edge 94, Type (0, 1), BuildingBlock: XUDNAN_clean_linker_2, # of connection points: 2
#     Edge 95, Type (0, 1), BuildingBlock: XUDNAN_clean_linker_2, # of connection points: 2
#     Edge 96, Type (0, 1), BuildingBlock: XUDNAN_clean_linker_2, # of connection points: 2
#     Edge 97, Type (0, 1), BuildingBlock: XUDNAN_clean_linker_2, # of connection points: 2
#     Edge 98, Type (0, 1), BuildingBlock: XUDNAN_clean_linker_2, # of connection points: 2
#     Edge 99, Type (0, 1), BuildingBlock: XUDNAN_clean_linker_2, # of connection points: 2
#     Edge 100, Type (0, 1), BuildingBlock: XUDNAN_clean_linker_2, # of connection points: 2
#     Edge 101, Type (0, 1), BuildingBlock: XUDNAN_clean_linker_2, # of connection points: 2
#     Edge 102, Type (0, 1), BuildingBlock: XUDNAN_clean_linker_2, # of connection points: 2
#     Edge 103, Type (0, 1), BuildingBlock: XUDNAN_clean_linker_2, # of connection points: 2
#     Edge 104, Type (0, 1), BuildingBlock: XUDNAN_clean_linker_2, # of connection points: 2
#     Edge 105, Type (0, 1), BuildingBlock: XUDNAN_clean_linker_2, # of connection points: 2
#     Edge 106, Type (0, 1), BuildingBlock: XUDNAN_clean_linker_2, # of connection points: 2
#     Edge 107, Type (0, 1), BuildingBlock: XUDNAN_clean_linker_2, # of connection points: 2
#     Edge 108, Type (0, 1), BuildingBlock: XUDNAN_clean_linker_2, # of connection points: 2
#     Edge 109, Type (0, 1), BuildingBlock: XUDNAN_clean_linker_2, # of connection points: 2
#     Edge 110, Type (0, 1), BuildingBlock: XUDNAN_clean_linker_2, # of connection points: 2
#     Edge 111, Type (0, 1), BuildingBlock: XUDNAN_clean_linker_2, # of connection points: 2
#     Edge 112, Type (0, 1), BuildingBlock: XUDNAN_clean_linker_2, # of connection points: 2
#     Edge 113, Type (0, 1), BuildingBlock: XUDNAN_clean_linker_2, # of connection points: 2
#     Edge 114, Type (0, 1), BuildingBlock: XUDNAN_clean_linker_2, # of connection points: 2
#     Edge 115, Type (0, 1), BuildingBlock: XUDNAN_clean_linker_2, # of connection points: 2
#     Edge 116, Type (0, 1), BuildingBlock: XUDNAN_clean_linker_2, # of connection points: 2
#     Edge 117, Type (0, 1), BuildingBlock: XUDNAN_clean_linker_2, # of connection points: 2
#     Edge 118, Type (0, 1), BuildingBlock: XUDNAN_clean_linker_2, # of connection points: 2
#     Edge 119, Type (0, 1), BuildingBlock: XUDNAN_clean_linker_2, # of connection points: 2
#     Edge 120, Type (0, 1), BuildingBlock: XUDNAN_clean_linker_2, # of connection points: 2
#     Edge 121, Type (0, 1), BuildingBlock: XUDNAN_clean_linker_2, # of connection points: 2
#     Edge 122, Type (0, 1), BuildingBlock: XUDNAN_clean_linker_2, # of connection points: 2
#     Edge 123, Type (0, 1), BuildingBlock: XUDNAN_clean_linker_2, # of connection points: 2
#     Edge 124, Type (0, 1), BuildingBlock: XUDNAN_clean_linker_2, # of connection points: 2
#     Edge 125, Type (0, 1), BuildingBlock: XUDNAN_clean_linker_2, # of connection points: 2
#     Edge 126, Type (0, 1), BuildingBlock: XUDNAN_clean_linker_2, # of connection points: 2
#     Edge 127, Type (0, 1), BuildingBlock: XUDNAN_clean_linker_2, # of connection points: 2
#     Edge 128, Type (0, 1), BuildingBlock: XUDNAN_clean_linker_2, # of connection points: 2
#     Edge 129, Type (0, 1), BuildingBlock: XUDNAN_clean_linker_2, # of connection points: 2
#     Edge 130, Type (0, 1), BuildingBlock: XUDNAN_clean_linker_2, # of connection points: 2
#     Edge 131, Type (0, 1), BuildingBlock: XUDNAN_clean_linker_2, # of connection points: 2
#     Edge 132, Type (0, 1), BuildingBlock: XUDNAN_clean_linker_2, # of connection points: 2
#     Edge 133, Type (0, 1), BuildingBlock: XUDNAN_clean_linker_2, # of connection points: 2
#     Edge 134, Type (0, 1), BuildingBlock: XUDNAN_clean_linker_2, # of connection points: 2
#     Edge 135, Type (0, 1), BuildingBlock: XUDNAN_clean_linker_2, # of connection points: 2
#     Edge 136, Type (0, 1), BuildingBlock: XUDNAN_clean_linker_2, # of connection points: 2
#     Edge 137, Type (0, 1), BuildingBlock: XUDNAN_clean_linker_2, # of connection points: 2
#     Edge 138, Type (0, 1), BuildingBlock: XUDNAN_clean_linker_2, # of connection points: 2
#     Edge 139, Type (0, 1), BuildingBlock: XUDNAN_clean_linker_2, # of connection points: 2
#     Edge 140, Type (0, 1), BuildingBlock: XUDNAN_clean_linker_2, # of connection points: 2
#     Edge 141, Type (0, 1), BuildingBlock: XUDNAN_clean_linker_2, # of connection points: 2
#     Edge 142, Type (0, 1), BuildingBlock: XUDNAN_clean_linker_2, # of connection points: 2
#     Edge 143, Type (0, 1), BuildingBlock: XUDNAN_clean_linker_2, # of connection points: 2
#     Edge 144, Type (0, 1), BuildingBlock: XUDNAN_clean_linker_2, # of connection points: 2
#     Edge 145, Type (0, 1), BuildingBlock: XUDNAN_clean_linker_2, # of connection points: 2
#     Edge 146, Type (0, 1), BuildingBlock: XUDNAN_clean_linker_2, # of connection points: 2
#     Edge 147, Type (0, 1), BuildingBlock: XUDNAN_clean_linker_2, # of connection points: 2
#     Edge 148, Type (0, 1), BuildingBlock: XUDNAN_clean_linker_2, # of connection points: 2
#     Edge 149, Type (0, 1), BuildingBlock: XUDNAN_clean_linker_2, # of connection points: 2
#     Edge 150, Type (0, 1), BuildingBlock: XUDNAN_clean_linker_2, # of connection points: 2
#     Edge 151, Type (0, 1), BuildingBlock: XUDNAN_clean_linker_2, # of connection points: 2
# Relax obj value: 0.046
# Max RMSD: 0.172
# Mean RMSD: 0.122
data_MOF--net-tbo--node1-ESEHIV_clean_sbu_0--node2-BETDIP_clean_linker_0--edge1-XUDNAN_clean_linker_2
_symmetry_space_group_name_H-M    P1
_symmetry_Int_Tables_number       1
_symmetry_cell_setting            triclinic
loop_
_symmetry_equiv_pos_as_xyz
'x, y, z'
_cell_length_a     70.819195
_cell_length_b     69.69087
_cell_length_c     75.923685
_cell_angle_alpha  95.514483
_cell_angle_beta   85.915975
_cell_angle_gamma 100.96782
loop_
_atom_site_label
_atom_site_type_symbol
_atom_site_fract_x
_atom_site_fract_y
_atom_site_fract_z
_atom_type_partial_charge
H0 H 0.16866 0.17659 0.23695 0.0
H1 H 0.22093 0.1786 0.20393 0.0
H2 H 0.18189 0.21712 0.19668 0.0
H3 H 0.22806 0.15713 0.22056 0.0
C4 C 0.21614 0.15186 0.22968 0.0
C5 C 0.17813 0.18279 0.22626 0.0
C6 C 0.17329 0.19797 0.21753 0.0
C7 C 0.19525 0.17564 0.22161 0.0
C8 C 0.20767 0.18378 0.20775 0.0
C9 C 0.20309 0.199 0.19882 0.0
C10 C 0.18585 0.20587 0.20383 0.0
N11 N 0.19919 0.16034 0.23128 0.0
H12 H 0.88539 0.24061 0.18446 0.0
H13 H 0.83672 0.1999 0.16455 0.0
H14 H 0.86657 0.1855 0.2074 0.0
H15 H 0.84819 0.21505 0.13862 0.0
C16 C 0.84963 0.23007 0.14448 0.0
C17 C 0.87581 0.22653 0.18484 0.0
C18 C 0.87814 0.21347 0.19727 0.0
C19 C 0.86107 0.22163 0.17286 0.0
C20 C 0.84826 0.20362 0.17358 0.0
C21 C 0.84998 0.19053 0.1861 0.0
C22 C 0.86507 0.19554 0.19778 0.0
N23 N 0.85873 0.23542 0.16085 0.0
H24 H 0.86617 0.8411 0.17765 0.0
H25 H 0.86479 0.88713 0.21922 0.0
H26 H 0.83293 0.88594 0.17274 0.0
H27 H 0.87065 0.86283 0.23605 0.0
C28 C 0.88001 0.85475 0.22761 0.0
C29 C 0.86072 0.85411 0.18293 0.0
C30 C 0.84837 0.86201 0.17304 0.0
C31 C 0.86624 0.86256 0.19971 0.0
C32 C 0.85997 0.88 0.20661 0.0
C33 C 0.84834 0.88892 0.19672 0.0
C34 C 0.84245 0.8796 0.18006 0.0
N35 N 0.87852 0.85327 0.20889 0.0
H36 H 0.13717 0.82064 0.18471 0.0
H37 H 0.19495 0.85239 0.17552 0.0
H38 H 0.15808 0.87257 0.21795 0.0
H39 H 0.18878 0.83932 0.14659 0.0
C40 C 0.18113 0.82457 0.1486 0.0
C41 C 0.14856 0.83293 0.18811 0.0
C42 C 0.14558 0.84656 0.20232 0.0
C43 C 0.16601 0.83529 0.17795 0.0
C44 C 0.18104 0.85096 0.18267 0.0
C45 C 0.17837 0.86421 0.19738 0.0
C46 C 0.1604 0.86221 0.20677 0.0
N47 N 0.16816 0.82116 0.16357 0.0
H48 H 0.17499 0.83103 0.86541 0.0
H49 H 0.21489 0.88551 0.87387 0.0
H50 H 0.17163 0.87935 0.83553 0.0
H51 H 0.18084 0.82799 0.89401 0.0
C52 C 0.19576 0.83489 0.89575 0.0
C53 C 0.18015 0.84614 0.86265 0.0
C54 C 0.17157 0.85396 0.84949 0.0
C55 C 0.19546 0.85781 0.87191 0.0
C56 C 0.20261 0.87694 0.86723 0.0
C57 C 0.19424 0.88492 0.85403 0.0
C58 C 0.17844 0.87338 0.84556 0.0
N59 N 0.20439 0.85075 0.88562 0.0
H60 H 0.21383 0.22904 0.90569 0.0
H61 H 0.21725 0.1877 0.8605 0.0
H62 H 0.25508 0.19073 0.90321 0.0
H63 H 0.19229 0.19848 0.85105 0.0
C64 C 0.18866 0.21056 0.8599 0.0
C65 C 0.22052 0.21749 0.89879 0.0
C66 C 0.23559 0.21125 0.90639 0.0
C67 C 0.21364 0.20908 0.88245 0.0
C68 C 0.22206 0.19391 0.87336 0.0
C69 C 0.2371 0.18702 0.8807 0.0
C70 C 0.24363 0.19579 0.89733 0.0
N71 N 0.19844 0.21671 0.87583 0.0
H72 H 0.8712 0.20804 0.85791 0.0
H73 H 0.9184 0.25686 0.85955 0.0
H74 H 0.91797 0.20969 0.81846 0.0
H75 H 0.87076 0.21464 0.88706 0.0
C76 C 0.87436 0.23049 0.88937 0.0
C77 C 0.88477 0.21552 0.85233 0.0
C78 C 0.89337 0.20675 0.83719 0.0
C79 C 0.89392 0.23348 0.86055 0.0
C80 C 0.91126 0.24318 0.85298 0.0
C81 C 0.92016 0.23461 0.8379 0.0
C82 C 0.91111 0.21639 0.83006 0.0
N83 N 0.88658 0.24167 0.87689 0.0
H84 H 0.85283 0.88243 0.87073 0.0
H85 H 0.8916 0.87667 0.82528 0.0
H86 H 0.8836 0.8343 0.86419 0.0
H87 H 0.86816 0.89285 0.81326 0.0
C88 C 0.86725 0.90395 0.8242 0.0
C89 C 0.86306 0.87455 0.86335 0.0
C90 C 0.867 0.8574 0.8695 0.0
C91 C 0.87151 0.88134 0.8473 0.0
C92 C 0.8846 0.8711 0.83739 0.0
C93 C 0.88929 0.85416 0.8435 0.0
C94 C 0.88032 0.84744 0.85953 0.0
N95 N 0.86708 0.89897 0.84198 0.0
H96 H 0.1814 0.65622 0.71838 0.0
H97 H 0.22957 0.66761 0.6811 0.0
H98 H 0.18187 0.69779 0.67978 0.0
H99 H 0.19274 0.62743 0.71987 0.0
C100 C 0.20829 0.63191 0.71853 0.0
C101 C 0.18833 0.66368 0.70712 0.0
C102 C 0.1792 0.67712 0.69971 0.0
C103 C 0.20656 0.66037 0.70042 0.0
C104 C 0.2157 0.67065 0.68629 0.0
C105 C 0.2071 0.68423 0.67857 0.0
C106 C 0.18876 0.6874 0.68548 0.0
N107 N 0.21661 0.64745 0.70788 0.0
H108 H 0.89567 0.74034 0.64837 0.0
H109 H 0.84904 0.6918 0.64085 0.0
H110 H 0.88877 0.6919 0.68116 0.0
H111 H 0.86464 0.7025 0.60876 0.0
C112 C 0.85955 0.71604 0.61307 0.0
C113 C 0.88794 0.72632 0.65232 0.0
C114 C 0.89457 0.71728 0.66592 0.0
C115 C 0.8718 0.71697 0.6431 0.0
C116 C 0.86184 0.69862 0.6477 0.0
C117 C 0.86778 0.68946 0.6615 0.0
C118 C 0.88414 0.69892 0.67054 0.0
N119 N 0.86536 0.72635 0.62946 0.0
H120 H 0.89142 0.35455 0.6846 0.0
H121 H 0.8926 0.40354 0.72329 0.0
H122 H 0.85052 0.39298 0.68346 0.0
H123 H 0.92067 0.39801 0.72902 0.0
C124 C 0.92093 0.38255 0.72584 0.0
C125 C 0.88562 0.36735 0.68994 0.0
C126 C 0.87008 0.37245 0.68197 0.0
C127 C 0.89388 0.37835 0.70475 0.0
C128 C 0.8864 0.39497 0.71182 0.0
C129 C 0.87066 0.40053 0.70444 0.0
C130 C 0.8628 0.38928 0.68918 0.0
N131 N 0.90894 0.37162 0.71264 0.0
H132 H 0.20487 0.32017 0.71455 0.0
H133 H 0.26121 0.34675 0.69528 0.0
H134 H 0.21749 0.3818 0.70625 0.0
H135 H 0.259 0.29423 0.69192 0.0
C136 C 0.25195 0.30595 0.68887 0.0
C137 C 0.21453 0.33302 0.71017 0.0
C138 C 0.20869 0.35135 0.71147 0.0
C139 C 0.23305 0.33105 0.70346 0.0
C140 C 0.24641 0.34782 0.6992 0.0
C141 C 0.24071 0.36606 0.69991 0.0
C142 C 0.22175 0.36762 0.70563 0.0
N143 N 0.23801 0.31209 0.70156 0.0
H144 H 0.16285 0.33126 0.39394 0.0
H145 H 0.21305 0.37682 0.39226 0.0
H146 H 0.1752 0.36643 0.34928 0.0
H147 H 0.20913 0.37571 0.42223 0.0
C148 C 0.20578 0.36 0.42337 0.0
C149 C 0.17181 0.34297 0.38712 0.0
C150 C 0.16668 0.34759 0.37067 0.0
C151 C 0.18823 0.35359 0.39517 0.0
C152 C 0.19989 0.36899 0.38657 0.0
C153 C 0.19527 0.37369 0.37004 0.0
C154 C 0.17866 0.36293 0.36214 0.0
N155 N 0.19321 0.34774 0.41143 0.0
H156 H 0.17626 0.69828 0.39127 0.0
H157 H 0.17919 0.6571 0.34561 0.0
H158 H 0.21292 0.65532 0.39015 0.0
H159 H 0.1716 0.68356 0.33211 0.0
C160 C 0.16032 0.68771 0.34132 0.0
C161 C 0.18232 0.68627 0.38445 0.0
C162 C 0.19565 0.67803 0.39287 0.0
C163 C 0.17645 0.67907 0.36738 0.0
C164 C 0.18402 0.66318 0.35853 0.0
C165 C 0.19701 0.65429 0.36675 0.0
C166 C 0.2027 0.66187 0.3839 0.0
N167 N 0.16228 0.68752 0.35986 0.0
H168 H 0.81543 0.72381 0.29663 0.0
H169 H 0.84543 0.77946 0.31831 0.0
H170 H 0.87558 0.73137 0.30631 0.0
H171 H 0.79882 0.78601 0.30952 0.0
C172 C 0.80697 0.77731 0.31606 0.0
C173 C 0.82866 0.7329 0.30112 0.0
C174 C 0.84549 0.72498 0.30105 0.0
C175 C 0.82851 0.75244 0.30737 0.0
C176 C 0.84548 0.76434 0.31358 0.0
C177 C 0.8625 0.75676 0.31372 0.0
C178 C 0.86236 0.73714 0.30713 0.0
N179 N 0.81123 0.75986 0.30661 0.0
H180 H 0.84234 0.39612 0.39143 0.0
H181 H 0.88349 0.38987 0.34797 0.0
H182 H 0.87625 0.3507 0.38943 0.0
H183 H 0.88474 0.42312 0.34894 0.0
C184 C 0.86963 0.42421 0.35094 0.0
C185 C 0.85321 0.38848 0.38489 0.0
C186 C 0.85804 0.37251 0.39245 0.0
C187 C 0.86269 0.3952 0.36922 0.0
C188 C 0.87686 0.38542 0.36058 0.0
C189 C 0.88188 0.36926 0.36769 0.0
C190 C 0.87248 0.36306 0.38376 0.0
N191 N 0.85731 0.41153 0.36224 0.0
H192 H 0.70594 0.17596 0.69732 0.0
H193 H 0.74084 0.17445 0.64855 0.0
H194 H 0.70381 0.21684 0.65877 0.0
H195 H 0.75686 0.1563 0.6619 0.0
C196 C 0.74838 0.15013 0.67316 0.0
C197 C 0.71072 0.18172 0.68466 0.0
C198 C 0.70322 0.19744 0.6794 0.0
C199 C 0.72469 0.17358 0.67398 0.0
C200 C 0.73064 0.1809 0.65736 0.0
C201 C 0.72324 0.19664 0.65186 0.0
C202 C 0.7098 0.20499 0.6631 0.0
N203 N 0.73206 0.158 0.68042 0.0
H204 H 0.40863 0.23328 0.66004 0.0
H205 H 0.35199 0.19786 0.66483 0.0
H206 H 0.39018 0.20403 0.70738 0.0
H207 H 0.34549 0.21827 0.64473 0.0
C208 C 0.35865 0.22127 0.63641 0.0
C209 C 0.3977 0.22409 0.66779 0.0
C210 C 0.40165 0.21965 0.68464 0.0
C211 C 0.37978 0.21666 0.66066 0.0
C212 C 0.36569 0.20415 0.67036 0.0
C213 C 0.3694 0.1996 0.68729 0.0
C214 C 0.38732 0.20751 0.69433 0.0
N215 N 0.3768 0.2217 0.64349 0.0
H216 H 0.38039 0.86457 0.67987 0.0
H217 H 0.3868 0.90631 0.72571 0.0
H218 H 0.33956 0.90311 0.69245 0.0
H219 H 0.41843 0.90672 0.71577 0.0
C220 C 0.41846 0.89108 0.71528 0.0
C221 C 0.37517 0.87599 0.68847 0.0
C222 C 0.35885 0.88313 0.68403 0.0
C223 C 0.38554 0.88446 0.70342 0.0
C224 C 0.37894 0.89977 0.71426 0.0
C225 C 0.36252 0.90692 0.71036 0.0
C226 C 0.35251 0.89818 0.69538 0.0
N227 N 0.40279 0.87794 0.70722 0.0
H228 H 0.69276 0.83 0.65341 0.0
H229 H 0.73172 0.87916 0.67723 0.0
H230 H 0.6785 0.85635 0.70498 0.0
H231 H 0.7537 0.86823 0.65902 0.0
C232 C 0.74647 0.8617 0.64717 0.0
C233 C 0.69644 0.84086 0.66443 0.0
C234 C 0.68377 0.84138 0.67947 0.0
C235 C 0.71405 0.85406 0.66366 0.0
C236 C 0.71853 0.86845 0.67783 0.0
C237 C 0.70583 0.86932 0.69286 0.0
C238 C 0.68861 0.85555 0.69363 0.0
N239 N 0.72663 0.8528 0.64827 0.0
H240 H 0.66158 0.82045 0.35256 0.0
H241 H 0.71035 0.86778 0.35732 0.0
H242 H 0.67042 0.86618 0.31696 0.0
H243 H 0.69806 0.86179 0.38857 0.0
C244 C 0.69917 0.84636 0.38688 0.0
C245 C 0.66993 0.83392 0.34798 0.0
C246 C 0.66398 0.84221 0.33361 0.0
C247 C 0.68649 0.8432 0.35674 0.0
C248 C 0.69744 0.86068 0.35077 0.0
C249 C 0.69167 0.869 0.33637 0.0
C250 C 0.67498 0.85967 0.32797 0.0
N251 N 0.69185 0.83478 0.37155 0.0
H252 H 0.70934 0.23002 0.36613 0.0
H253 H 0.70383 0.18285 0.3248 0.0
H254 H 0.74729 0.18846 0.36299 0.0
H255 H 0.68408 0.20019 0.31273 0.0
C256 C 0.68015 0.21148 0.32239 0.0
C257 C 0.71428 0.21719 0.35964 0.0
C258 C 0.72936 0.21026 0.36662 0.0
C259 C 0.70518 0.20785 0.34442 0.0
C260 C 0.71108 0.19061 0.33617 0.0
C261 C 0.72603 0.18303 0.34311 0.0
C262 C 0.73518 0.19336 0.35809 0.0
N263 N 0.69002 0.2163 0.33846 0.0
H264 H 0.34504 0.22351 0.35376 0.0
H265 H 0.38638 0.26346 0.32435 0.0
H266 H 0.36893 0.20356 0.30333 0.0
H267 H 0.36216 0.24053 0.37612 0.0
C268 C 0.36389 0.25566 0.37295 0.0
C269 C 0.35437 0.22659 0.34205 0.0
C270 C 0.35549 0.21147 0.32866 0.0
C271 C 0.36563 0.24536 0.34059 0.0
C272 C 0.37727 0.24916 0.32517 0.0
C273 C 0.37864 0.23409 0.31168 0.0
C274 C 0.36747 0.21538 0.31342 0.0
N275 N 0.36663 0.26013 0.35496 0.0
H276 H 0.3279 0.86517 0.4098 0.0
H277 H 0.35768 0.85645 0.35914 0.0
H278 H 0.35688 0.81594 0.39851 0.0
H279 H 0.36341 0.89013 0.36303 0.0
C280 C 0.34877 0.8924 0.36637 0.0
C281 C 0.3364 0.85671 0.40082 0.0
C282 C 0.34162 0.83969 0.40623 0.0
C283 C 0.34231 0.86302 0.38392 0.0
C284 C 0.35324 0.85187 0.37226 0.0
C285 C 0.35867 0.83493 0.3774 0.0
C286 C 0.35272 0.82894 0.3944 0.0
N287 N 0.33715 0.88048 0.37877 0.0
H288 H 0.67461 0.71298 0.21903 0.0
H289 H 0.70622 0.70653 0.16936 0.0
H290 H 0.66177 0.74179 0.1748 0.0
H291 H 0.70368 0.67364 0.18228 0.0
C292 C 0.7082 0.67962 0.19538 0.0
C293 C 0.6773 0.71646 0.20536 0.0
C294 C 0.6663 0.72828 0.19823 0.0
C295 C 0.69129 0.70829 0.19501 0.0
C296 C 0.69487 0.71235 0.1772 0.0
C297 C 0.68453 0.72478 0.1698 0.0
C298 C 0.67004 0.7325 0.18038 0.0
N299 N 0.70206 0.69684 0.20333 0.0
H300 H 0.36771 0.7232 0.1606 0.0
H301 H 0.32532 0.67012 0.16313 0.0
H302 H 0.36905 0.68471 0.20124 0.0
H303 H 0.33103 0.67338 0.13114 0.0
C304 C 0.32996 0.68871 0.13094 0.0
C305 C 0.36165 0.71002 0.16705 0.0
C306 C 0.37049 0.7053 0.1816 0.0
C307 C 0.34565 0.69725 0.16006 0.0
C308 C 0.3379 0.67985 0.16824 0.0
C309 C 0.34604 0.67548 0.18347 0.0
C310 C 0.36239 0.68823 0.18983 0.0
N311 N 0.33772 0.70243 0.14485 0.0
H312 H 0.39494 0.35669 0.18834 0.0
H313 H 0.38549 0.39516 0.23482 0.0
H314 H 0.34674 0.3863 0.19231 0.0
H315 H 0.4096 0.38346 0.24593 0.0
C316 C 0.41676 0.37474 0.23593 0.0
C317 C 0.38657 0.36663 0.19564 0.0
C318 C 0.37004 0.37034 0.18836 0.0
C319 C 0.39233 0.37516 0.21242 0.0
C320 C 0.38132 0.38822 0.22197 0.0
C321 C 0.36456 0.39214 0.21485 0.0
C322 C 0.35921 0.38303 0.19809 0.0
N323 N 0.40917 0.36996 0.21879 0.0
H324 H 0.73788 0.33661 0.20333 0.0
H325 H 0.78316 0.38701 0.20095 0.0
H326 H 0.72485 0.39222 0.19302 0.0
H327 H 0.8058 0.34823 0.20705 0.0
C328 C 0.79508 0.35178 0.19901 0.0
C329 C 0.74252 0.35204 0.20141 0.0
C330 C 0.72907 0.36336 0.19772 0.0
C331 C 0.76207 0.36037 0.20209 0.0
C332 C 0.76811 0.38043 0.19989 0.0
C333 C 0.75482 0.39212 0.19664 0.0
C334 C 0.73534 0.38334 0.19521 0.0
N335 N 0.77544 0.34847 0.20545 0.0
H336 H 0.6731 0.3521 0.88096 0.0
H337 H 0.72356 0.39776 0.87956 0.0
H338 H 0.6825 0.39161 0.83968 0.0
H339 H 0.72456 0.39329 0.90771 0.0
C340 C 0.71846 0.37808 0.90957 0.0
C341 C 0.68166 0.36456 0.87485 0.0
C342 C 0.6755 0.37091 0.85953 0.0
C343 C 0.69873 0.37436 0.88253 0.0
C344 C 0.71003 0.39037 0.87433 0.0
C345 C 0.70401 0.39688 0.85906 0.0
C346 C 0.68676 0.38709 0.85186 0.0
N347 N 0.70428 0.36741 0.89814 0.0
H348 H 0.7186 0.73159 0.87728 0.0
H349 H 0.72183 0.69423 0.829 0.0
H350 H 0.75464 0.68761 0.87253 0.0
H351 H 0.71205 0.71828 0.81732 0.0
C352 C 0.70213 0.72424 0.82693 0.0
C353 C 0.72417 0.71965 0.8698 0.0
C354 C 0.73753 0.71048 0.87731 0.0
C355 C 0.71843 0.71417 0.85235 0.0
C356 C 0.72618 0.69902 0.84232 0.0
C357 C 0.73933 0.68947 0.84952 0.0
C358 C 0.74463 0.6951 0.86704 0.0
N359 N 0.70489 0.72407 0.84539 0.0
H360 H 0.34917 0.66492 0.82865 0.0
H361 H 0.37853 0.72467 0.83538 0.0
H362 H 0.40731 0.68071 0.80729 0.0
H363 H 0.34742 0.73051 0.84119 0.0
C364 C 0.34088 0.718 0.84844 0.0
C365 C 0.36192 0.67593 0.82628 0.0
C366 C 0.37817 0.67059 0.81691 0.0
C367 C 0.36183 0.69529 0.83282 0.0
C368 C 0.37832 0.70969 0.83 0.0
C369 C 0.39485 0.7046 0.8207 0.0
C370 C 0.39453 0.685 0.814 0.0
N371 N 0.34545 0.69922 0.8434 0.0
H372 H 0.36969 0.34494 0.89866 0.0
H373 H 0.40893 0.33638 0.8536 0.0
H374 H 0.41269 0.30997 0.90189 0.0
H375 H 0.36487 0.37036 0.88485 0.0
C376 C 0.36786 0.36761 0.87072 0.0
C377 C 0.38159 0.33869 0.8924 0.0
C378 C 0.39073 0.32734 0.90222 0.0
C379 C 0.38818 0.34203 0.87472 0.0
C380 C 0.40369 0.33354 0.86703 0.0
C381 C 0.41297 0.32225 0.87682 0.0
C382 C 0.40604 0.31901 0.89425 0.0
N383 N 0.37993 0.35396 0.86427 0.0
Cu384 Cu 0.3062 0.26985 0.05282 0.0
N385 N 0.32808 0.26677 0.03846 0.0
N386 N 0.34979 0.2743 0.01613 0.0
C387 C 0.3313 0.2733 0.02217 0.0
C388 C 0.35857 0.268 0.02912 0.0
C389 C 0.34514 0.26344 0.04292 0.0
O390 O 0.28675 0.26898 0.03545 0.0
C391 C 0.3073 0.30032 0.08237 0.0
O392 O 0.2898 0.29198 0.08738 0.0
H393 H 0.32074 0.27906 0.01565 0.0
H394 H 0.34801 0.25958 0.05579 0.0
N395 N 0.29836 0.2497 0.06805 0.0
N396 N 0.28279 0.23511 0.09137 0.0
C397 C 0.28292 0.2485 0.07961 0.0
C398 C 0.30803 0.23605 0.07226 0.0
C399 C 0.29843 0.22699 0.08663 0.0
C400 C 0.28276 0.25252 0.02621 0.0
O401 O 0.28968 0.23764 0.03085 0.0
H402 H 0.2724 0.25793 0.07992 0.0
H403 H 0.3217 0.23366 0.06606 0.0
O404 O 0.31485 0.29438 0.06756 0.0
H405 H 0.37382 0.26783 0.02911 0.0
H406 H 0.30336 0.21637 0.09383 0.0
Cu407 Cu 0.80577 0.33159 0.03257 0.0
N408 N 0.81115 0.35482 0.04726 0.0
N409 N 0.8139 0.3721 0.0736 0.0
C410 C 0.80544 0.35552 0.06451 0.0
C411 C 0.82519 0.38256 0.06147 0.0
C412 C 0.82335 0.3719 0.04514 0.0
O413 O 0.80219 0.31087 0.0488 0.0
C414 C 0.78623 0.34594 1.00824 0.0
O415 O 0.80226 0.359 1.00885 0.0
H416 H 0.7965 0.34324 0.07056 0.0
H417 H 0.83115 0.37592 0.03289 0.0
N418 N 0.82622 0.32761 0.01668 0.0
N419 N 0.84197 0.31181 0.99523 0.0
C420 C 0.8256 0.3114 1.0055 0.0
C421 C 0.84365 0.33873 1.01348 0.0
C422 C 0.85339 0.32903 1.00012 0.0
C423 C 0.81702 0.31091 0.05744 0.0
O424 O 0.83281 0.3236 0.05408 0.0
H425 H 0.81319 0.29964 1.00476 0.0
H426 H 0.84904 0.35276 0.0204 0.0
O427 O 0.78393 0.33201 0.01837 0.0
H428 H 0.83471 0.39646 0.0643 0.0
H429 H 0.86782 0.33408 0.99463 0.0
Cu430 Cu 0.77971 0.79658 0.02559 0.0
N431 N 0.78644 0.81653 1.01004 0.0
N432 N 0.79877 0.82873 0.98448 0.0
C433 C 0.79648 0.81348 0.9946 0.0
C434 C 0.79001 0.84221 0.9941 0.0
C435 C 0.78231 0.83459 1.00984 0.0
O436 O 0.7775 0.7729 1.00889 0.0
C437 C 0.80117 0.8164 0.05349 0.0
O438 O 0.79305 0.8305 0.04893 0.0
H439 H 0.80184 0.80005 0.9908 0.0
H440 H 0.77398 0.84159 0.02015 0.0
N441 N 0.75615 0.79571 0.03874 0.0
N442 N 0.73415 0.78468 0.05996 0.0
C443 C 0.74847 0.78054 0.04833 0.0
C444 C 0.74631 0.81006 0.04444 0.0
C445 C 0.7327 0.80328 0.05752 0.0
C446 C 0.76342 0.77045 0.9987 0.0
O447 O 0.7506 0.78189 1.00196 0.0
H448 H 0.75439 0.76726 0.04776 0.0
H449 H 0.74959 0.82478 0.04029 0.0
O450 O 0.79857 0.79996 0.04405 0.0
H451 H 0.78866 0.85623 0.98982 0.0
H452 H 0.72303 0.81166 0.06508 0.0
Cu453 Cu 0.25403 0.74304 1.0066 0.0
N454 N 0.23202 0.73651 0.02138 0.0
N455 N 0.21074 0.74044 0.044 0.0
C456 C 0.22592 0.7491 0.03402 0.0
C457 C 0.20699 0.72157 0.03711 0.0
C458 C 0.22016 0.7192 0.02313 0.0
O459 O 0.2761 0.7408 0.01986 0.0
C460 C 0.23749 0.76805 0.98997 0.0
O461 O 0.22367 0.75265 0.99122 0.0
H462 H 0.23318 0.76417 0.03625 0.0
H463 H 0.2213 0.70572 1.01516 0.0
N464 N 0.25413 0.72563 0.9864 0.0
N465 N 0.26056 0.71655 0.95792 0.0
C466 C 0.25965 0.73164 0.97024 0.0
C467 C 0.25151 0.70592 0.98439 0.0
C468 C 0.25548 0.70025 0.96676 0.0
C469 C 0.27843 0.74709 0.03605 0.0
O470 O 0.26767 0.7592 0.04378 0.0
H471 H 0.26407 0.74693 0.96779 0.0
H472 H 0.24778 0.69642 0.99505 0.0
O473 O 0.25326 0.76812 0.99722 0.0
H474 H 0.19582 0.71017 0.04198 0.0
H475 H 0.25517 0.68537 0.96102 0.0
Cu476 Cu 0.0239 0.2836 0.28125 0.0
N477 N 0.04331 0.28327 0.26309 0.0
N478 N 0.06726 0.27061 0.24814 0.0
C479 C 0.05115 0.26716 0.25888 0.0
C480 C 0.06964 0.28984 0.24544 0.0
C481 C 0.05486 0.29763 0.25473 0.0
O482 O 0.0378 0.28368 0.30261 0.0
C483 C 0.99694 0.26267 0.25993 0.0
O484 O 1.00611 0.2765 0.25019 0.0
H485 H 0.04578 0.25345 0.2647 0.0
H486 H 0.05334 0.31286 0.25607 0.0
N487 N 1.01107 0.30502 0.28454 0.0
N488 N 0.98764 0.32071 0.29629 0.0
C489 C 0.99588 0.30477 0.29627 0.0
C490 C 1.01269 0.32185 0.27673 0.0
C491 C 0.99828 0.33164 0.28407 0.0
C492 C 0.0492 0.30001 0.3059 0.0
O493 O 0.0488 0.31434 0.29597 0.0
H494 H 0.99093 0.29286 0.30461 0.0
H495 H 0.02327 0.3265 0.26628 0.0
O496 O 1.00306 0.26169 0.2752 0.0
H497 H 0.0815 0.29788 0.2378 0.0
H498 H 0.99552 0.3454 0.28029 0.0
Cu499 Cu 0.77404 0.03276 0.25582 0.0
N500 N 0.77024 0.04206 0.23441 0.0
N501 N 0.77496 0.06346 0.21374 0.0
C502 C 0.78217 0.05732 0.22771 0.0
C503 C 0.75783 0.05137 0.21142 0.0
C504 C 0.75498 0.03807 0.22419 0.0
O505 O 0.77611 0.05599 0.27363 0.0
C506 C 0.80103 1.00503 0.25715 0.0
O507 O 0.79414 1.00133 0.27325 0.0
H508 H 0.79517 0.06476 0.23392 0.0
H509 H 0.74227 0.02707 0.22649 0.0
N510 N 0.75251 0.01472 0.26319 0.0
N511 N 0.73657 0.98788 0.27537 0.0
C512 C 0.75175 0.9955 0.26479 0.0
C513 C 0.73682 0.01922 0.27249 0.0
C514 C 0.72695 1.00273 0.27997 0.0
C515 C 0.765 0.06832 0.27224 0.0
O516 O 0.75346 0.06525 0.25906 0.0
H517 H 0.76268 0.98752 0.25913 0.0
H518 H 0.73367 0.03385 0.27499 0.0
O519 O 0.79594 0.01886 0.24976 0.0
H520 H 0.74775 0.05254 0.20168 0.0
H521 H 0.71467 1.00226 0.28936 0.0
Cu522 Cu 1.01347 0.77474 0.29834 0.0
N523 N 0.99473 0.77037 0.28115 0.0
N524 N 0.97033 0.77788 0.26725 0.0
C525 C 0.9787 0.77841 0.28282 0.0
C526 C 0.98148 0.76881 0.25527 0.0
C527 C 0.9965 0.76427 0.26385 0.0
O528 O 1.00017 0.78298 0.32015 0.0
C529 C 0.03231 0.8081 0.28118 0.0
O530 O 1.01488 0.81103 0.27905 0.0
H531 H 0.97426 0.78613 0.29493 0.0
H532 H 1.00861 0.75831 0.25766 0.0
N533 N 0.02382 0.75262 0.30233 0.0
N534 N 0.04601 0.73544 0.3086 0.0
C535 C 0.04269 0.75125 0.30105 0.0
C536 C 1.01493 0.73708 0.31092 0.0
C537 C 0.02853 0.72648 0.31477 0.0
C538 C 0.9963 0.80007 0.32373 0.0
O539 O 1.00664 0.81472 0.31568 0.0
H540 H 0.05391 0.76233 0.29572 0.0
H541 H 0.99977 0.73428 0.31498 0.0
O542 O 0.03461 0.79423 0.29009 0.0
H543 H 0.97951 0.76641 0.24118 0.0
H544 H 0.02582 0.71345 0.32195 0.0
Cu545 Cu 0.28044 0.02086 0.29419 0.0
N546 N 0.30085 0.0416 0.30355 0.0
N547 N 0.31595 0.07039 0.31539 0.0
C548 C 0.29982 0.06057 0.30796 0.0
C549 C 0.32761 0.05727 0.3157 0.0
C550 C 0.3183 0.03949 0.30827 0.0
O551 O 0.26779 0.04143 0.28414 0.0
C552 C 0.28798 0.99052 0.31672 0.0
O553 O 0.27228 0.99344 0.32604 0.0
H554 H 0.2874 0.06702 0.30629 0.0
H555 H 0.32384 0.02597 0.30666 0.0
N556 N 0.26011 1.00013 0.28519 0.0
N557 N 0.24474 0.97438 0.26897 0.0
C558 C 0.26053 0.98866 0.26992 0.0
C559 C 0.2436 0.99301 0.29414 0.0
C560 C 0.23405 0.9771 0.28414 0.0
C561 C 0.25271 0.04687 0.29151 0.0
O562 O 0.24497 0.03907 0.30602 0.0
H563 H 0.27247 0.99023 0.26011 0.0
H564 H 0.23914 0.99864 0.30723 0.0
O565 O 0.29353 1.0001 0.3032 0.0
H566 H 0.34185 0.06039 0.32084 0.0
H567 H 0.22039 0.96809 0.28781 0.0
Cu568 Cu 0.03376 0.76546 0.76327 0.0
N569 N 0.04274 0.74165 0.76238 0.0
N570 N 0.06168 0.7194 0.7547 0.0
C571 C 0.05826 0.73744 0.75242 0.0
C572 C 0.04773 0.71209 0.76666 0.0
C573 C 0.03615 0.72582 0.77139 0.0
O574 O 0.05707 0.78504 0.76701 0.0
C575 C 1.00869 0.75092 0.73687 0.0
O576 O 1.00718 0.73543 0.74582 0.0
H577 H 0.06676 0.74741 0.74356 0.0
H578 H 0.02384 0.72438 0.78077 0.0
N579 N 1.01507 0.7686 0.78167 0.0
N580 N 0.99015 0.78014 0.79606 0.0
C581 C 1.00086 0.77882 0.78066 0.0
C582 C 1.01336 0.76318 0.79833 0.0
C583 C 0.99801 0.77026 0.80723 0.0
C584 C 0.05917 0.79813 0.78001 0.0
O585 O 0.04392 0.80208 0.78949 0.0
H586 H 0.99892 0.78575 0.76893 0.0
H587 H 0.02284 0.75504 0.80375 0.0
O588 O 0.02079 0.76629 0.74154 0.0
H589 H 0.04611 0.69792 0.77188 0.0
H590 H 0.99312 0.76831 0.82088 0.0
Cu591 Cu 0.28519 0.04762 0.77905 0.0
N592 N 0.28526 0.06188 0.75927 0.0
N593 N 0.29294 0.08734 0.7426 0.0
C594 C 0.29435 0.08061 0.75846 0.0
C595 C 0.28252 0.07221 0.733 0.0
C596 C 0.27774 0.05655 0.74334 0.0
O597 O 0.2867 0.06727 0.79965 0.0
C598 C 0.30445 0.01953 0.76137 0.0
O599 O 0.29068 0.01941 0.75066 0.0
H600 H 0.30231 0.08897 0.7692 0.0
H601 H 0.26961 0.04225 0.73931 0.0
N602 N 0.26243 0.02955 0.78258 0.0
N603 N 0.24254 1.00521 0.79518 0.0
C604 C 0.25907 0.01842 0.7964 0.0
C605 C 0.24739 0.02328 0.77227 0.0
C606 C 0.23512 1.00815 0.77999 0.0
C607 C 0.2719 0.07539 0.80272 0.0
O608 O 0.2573 0.06954 0.79253 0.0
H609 H 0.26905 0.01947 0.80676 0.0
H610 H 0.24561 0.02895 0.75987 0.0
O611 O 0.30557 0.03159 0.77526 0.0
H612 H 0.27863 0.07244 0.71951 0.0
H613 H 0.22189 0.99984 0.77478 0.0
Cu614 Cu 0.05922 0.30304 0.79308 0.0
N615 N 0.03499 0.30002 0.78343 0.0
N616 N 1.00928 0.30978 0.77399 0.0
C617 C 0.02701 0.31538 0.78037 0.0
C618 C 1.00598 0.28998 0.77292 0.0
C619 C 0.02182 0.28399 0.77883 0.0
O620 O 0.05928 0.32082 0.81449 0.0
C621 C 0.08372 0.33361 0.77618 0.0
O622 O 0.07531 0.34526 0.78746 0.0
H623 H 0.03419 0.33046 0.78284 0.0
H624 H 0.0234 0.26906 0.78001 0.0
N625 N 0.06736 0.2801 0.79812 0.0
N626 N 0.08586 0.26194 0.80938 0.0
C627 C 0.0811 0.27985 0.80948 0.0
C628 C 0.06335 0.2617 0.79037 0.0
C629 C 0.07469 0.25046 0.79732 0.0
C630 C 0.0452 0.32028 0.82595 0.0
O631 O 0.04571 0.33428 0.83886 0.0
H632 H 0.08794 0.29284 0.81723 0.0
H633 H 0.05336 0.2569 0.78002 0.0
O634 O 0.07843 0.31514 0.77625 0.0
H635 H 0.99287 0.28051 0.76864 0.0
H636 H 0.07477 0.23508 0.79366 0.0
Cu637 Cu 0.79178 0.03247 0.77178 0.0
N638 N 0.79514 0.0539 0.78872 0.0
N639 N 0.8104 0.08156 0.80268 0.0
C640 C 0.81213 0.06596 0.79112 0.0
C641 C 0.79149 0.07919 0.80775 0.0
C642 C 0.78209 0.0621 0.79907 0.0
O643 O 0.79116 0.04392 0.74928 0.0
C644 C 0.81369 0.01361 0.79015 0.0
O645 O 0.8026 0.02059 0.80281 0.0
H646 H 0.82534 0.06375 0.7838 0.0
H647 H 0.76675 0.05652 0.79975 0.0
N648 N 0.76866 0.01519 0.77559 0.0
N649 N 0.7467 0.98791 0.77083 0.0
C650 C 0.76191 1.00015 0.76392 0.0
C651 C 0.75736 0.01248 0.79049 0.0
C652 C 0.74373 0.99565 0.78757 0.0
C653 C 0.77686 0.05248 0.74834 0.0
O654 O 0.76368 0.05137 0.76148 0.0
H655 H 0.76894 0.99756 0.75101 0.0
H656 H 0.75952 0.02141 0.80289 0.0
O657 O 0.81202 0.01728 0.77423 0.0
H658 H 0.78485 0.08923 0.81681 0.0
H659 H 0.73294 0.98928 0.79722 0.0
Cu660 Cu 0.27176 0.77414 0.54525 0.0
N661 N 0.27179 0.79634 0.56161 0.0
N662 N 0.28203 0.81952 0.58332 0.0
C663 C 0.28532 0.80303 0.57361 0.0
C664 C 0.26572 0.82321 0.57724 0.0
C665 C 0.25938 0.80888 0.564 0.0
O666 O 0.26935 0.75255 0.56045 0.0
C667 C 0.29778 0.77334 0.51467 0.0
O668 O 0.28693 0.75653 0.50965 0.0
H669 H 0.29763 0.79623 0.57485 0.0
H670 H 0.24667 0.8078 0.55661 0.0
N671 N 0.25176 0.76917 0.5291 0.0
N672 N 0.23577 0.75435 0.50528 0.0
C673 C 0.24595 0.75207 0.5192 0.0
C674 C 0.24473 0.78266 0.5213 0.0
C675 C 0.23481 0.77362 0.50681 0.0
C676 C 0.25287 0.74776 0.56849 0.0
O677 O 0.23855 0.75562 0.56422 0.0
H678 H 0.25069 0.73862 0.52125 0.0
H679 H 0.24788 0.79826 0.52498 0.0
O680 O 0.29547 0.78086 0.53049 0.0
H681 H 0.25883 0.83546 0.58202 0.0
H682 H 0.22822 0.78098 0.49765 0.0
Cu683 Cu 0.79482 0.78913 0.49193 0.0
N684 N 0.81144 0.78552 0.47216 0.0
N685 N 0.82197 0.78592 0.4437 0.0
C686 C 0.8122 0.79456 0.45716 0.0
C687 C 0.8279 0.7711 0.45066 0.0
C688 C 0.82128 0.77081 0.46814 0.0
O689 O 0.76994 0.79118 0.48361 0.0
C690 C 0.81013 0.76821 0.51461 0.0
O691 O 0.82601 0.77886 0.50823 0.0
H692 H 0.80409 0.80595 0.45572 0.0
H693 H 0.82231 0.7597 0.47685 0.0
N694 N 0.80311 0.81268 0.50509 0.0
N695 N 0.80357 0.83443 0.52871 0.0
C696 C 0.79427 0.81757 0.52063 0.0
C697 C 0.81867 0.82689 0.50309 0.0
C698 C 0.81902 0.84039 0.51774 0.0
C699 C 0.76353 0.78322 0.46887 0.0
O700 O 0.77217 0.76997 0.45989 0.0
H701 H 0.78169 0.80832 0.52625 0.0
H702 H 0.82925 0.82712 0.49207 0.0
O703 O 0.79406 0.76943 0.50864 0.0
H704 H 0.83549 0.76049 0.44339 0.0
H705 H 0.8299 0.85338 0.5202 0.0
Cu706 Cu 0.79919 0.28825 0.52636 0.0
N707 N 0.79985 0.26975 0.50645 0.0
N708 N 0.792 0.25598 0.47927 0.0
C709 C 0.79049 0.27084 0.49179 0.0
C710 C 0.80278 0.24495 0.48636 0.0
C711 C 0.80769 0.25352 0.50307 0.0
O712 O 0.80009 0.31224 0.51468 0.0
C713 C 0.77716 0.26165 0.54662 0.0
O714 O 0.7918 0.25324 0.54101 0.0
H715 H 0.78234 0.28225 0.49053 0.0
H716 H 0.81617 0.24811 0.51211 0.0
N717 N 0.8197 0.29227 0.54171 0.0
N718 N 0.83489 0.30157 0.56698 0.0
C719 C 0.82046 0.30388 0.55711 0.0
C720 C 0.83425 0.28238 0.54184 0.0
C721 C 0.84354 0.28799 0.55743 0.0
C722 C 0.8163 0.31755 0.50635 0.0
O723 O 0.83059 0.30885 0.50918 0.0
H724 H 0.80977 0.31276 0.56156 0.0
H725 H 0.83726 0.27111 0.5318 0.0
O726 O 0.77647 0.27842 0.54148 0.0
H727 H 0.80698 0.23176 0.47989 0.0
H728 H 0.85523 0.28192 0.56178 0.0
Cu729 Cu 0.31854 0.32352 0.52959 0.0
N730 N 0.31758 0.34174 0.5491 0.0
N731 N 0.30886 0.35186 0.57668 0.0
C732 C 0.31231 0.33653 0.56558 0.0
C733 C 0.31208 0.36742 0.56692 0.0
C734 C 0.31773 0.36117 0.54987 0.0
O735 O 0.32263 0.29946 0.53872 0.0
C736 C 0.29208 0.33483 0.50987 0.0
O737 O 0.30519 0.3509 0.51116 0.0
H738 H 0.30937 0.32147 0.56898 0.0
H739 H 0.32051 0.36996 0.53868 0.0
N740 N 0.33819 0.33186 0.51288 0.0
N741 N 0.35458 0.33118 0.48671 0.0
C742 C 0.34097 0.32134 0.4975 0.0
C743 C 0.3505 0.34908 0.51192 0.0
C744 C 0.36063 0.34872 0.49566 0.0
C745 C 0.33979 0.29695 0.54018 0.0
O746 O 0.35425 0.30998 0.53439 0.0
H747 H 0.33243 0.30704 0.49399 0.0
H748 H 0.35158 0.36121 0.52203 0.0
O749 O 0.29462 0.32005 0.51746 0.0
H750 H 0.30952 0.38193 0.57153 0.0
H751 H 0.37136 0.36049 0.49073 0.0
Cu752 Cu 0.79275 0.54567 0.76074 0.0
N753 N 0.78919 0.55485 0.73913 0.0
N754 N 0.79529 0.57374 0.71644 0.0
C755 C 0.80074 0.57035 0.73236 0.0
C756 C 0.77962 0.55978 0.71308 0.0
C757 C 0.77583 0.54819 0.72715 0.0
O758 O 0.79624 0.56971 0.77726 0.0
C759 C 0.81311 0.51783 0.7432 0.0
O760 O 0.8002 0.51774 0.73161 0.0
H761 H 0.81318 0.57871 0.73888 0.0
H762 H 0.76435 0.53565 0.72843 0.0
N763 N 0.77138 0.52793 0.7686 0.0
N764 N 0.7553 0.50313 0.7835 0.0
C765 C 0.7727 0.51373 0.77899 0.0
C766 C 0.75248 0.52643 0.76636 0.0
C767 C 0.7425 0.51111 0.77554 0.0
C768 C 0.78527 0.57242 0.79107 0.0
O769 O 0.77336 0.55734 0.79707 0.0
H770 H 0.78625 0.51169 0.78354 0.0
H771 H 0.74638 0.53594 0.75883 0.0
O772 O 0.81353 0.53003 0.75702 0.0
H773 H 0.77143 0.5581 0.70135 0.0
H774 H 0.72704 0.50628 0.77625 0.0
Cu775 Cu 0.30721 0.5013 0.77681 0.0
N776 N 0.30617 0.48556 0.79573 0.0
N777 N 0.31331 0.46272 0.81177 0.0
C778 C 0.317 0.47174 0.79655 0.0
C779 C 0.29958 0.47131 0.82086 0.0
C780 C 0.2952 0.48534 0.81094 0.0
O781 O 0.30882 0.48436 0.7554 0.0
C782 C 0.33205 0.53227 0.79275 0.0
O783 O 0.32032 0.52738 0.80646 0.0
H784 H 0.32757 0.4686 0.78621 0.0
H785 H 0.28479 0.49474 0.81458 0.0
N786 N 0.28566 0.51334 0.77652 0.0
N787 N 0.26795 0.53499 0.76994 0.0
C788 C 0.28572 0.53036 0.76941 0.0
C789 C 0.26722 0.50689 0.78183 0.0
C790 C 0.25628 0.52019 0.77784 0.0
C791 C 0.30683 0.48892 0.73992 0.0
O792 O 0.30454 0.50677 0.73764 0.0
H793 H 0.29858 0.53878 0.76341 0.0
H794 H 0.26202 0.4933 0.78789 0.0
O795 O 0.32952 0.52202 0.77807 0.0
H796 H 0.29295 0.46759 0.83367 0.0
H797 H 0.24091 0.51892 0.78052 0.0
Cu798 Cu 0.28426 0.52786 0.28926 0.0
N799 N 0.28728 0.51587 0.30963 0.0
N800 N 0.27901 0.49063 0.32665 0.0
C801 C 0.28157 0.49636 0.31003 0.0
C802 C 0.28342 0.50739 0.33727 0.0
C803 C 0.28843 0.52297 0.32672 0.0
O804 O 0.28696 0.50654 0.2705 0.0
C805 C 0.25765 0.55529 0.29262 0.0
O806 O 0.26961 0.56547 0.28148 0.0
H807 H 0.27724 0.48681 0.29836 0.0
H808 H 0.29099 0.5384 0.33125 0.0
N809 N 0.30337 0.54937 0.28382 0.0
N810 N 0.31771 0.57349 0.26716 0.0
C811 C 0.30655 0.55548 0.26738 0.0
C812 C 0.31312 0.56384 0.29449 0.0
C813 C 0.32203 0.57873 0.28424 0.0
C814 C 0.30399 0.50246 0.26893 0.0
O815 O 0.31742 0.51375 0.27824 0.0
H816 H 0.29927 0.54754 0.25608 0.0
H817 H 0.31275 0.56412 0.30877 0.0
O818 O 0.25993 0.53795 0.29512 0.0
H819 H 0.28201 0.50851 0.3516 0.0
H820 H 0.33032 0.59266 0.28915 0.0
Cu821 Cu 0.79356 0.55099 0.26463 0.0
N822 N 0.79384 0.53725 0.28448 0.0
N823 N 0.80486 0.51854 0.30228 0.0
C824 C 0.80873 0.52903 0.28797 0.0
C825 C 0.78668 0.5202 0.30799 0.0
C826 C 0.77991 0.53177 0.29696 0.0
O827 O 0.79753 0.53256 0.2446 0.0
C828 C 0.81685 0.58707 0.25562 0.0
O829 O 0.80739 0.58421 0.24104 0.0
H830 H 0.82191 0.5302 0.27968 0.0
H831 H 0.76574 0.53557 0.29775 0.0
N832 N 0.77003 0.55913 0.26311 0.0
N833 N 0.75051 0.57871 0.25622 0.0
C834 C 0.76774 0.57777 0.26226 0.0
C835 C 0.75339 0.54787 0.25796 0.0
C836 C 0.74135 0.55991 0.25361 0.0
C837 C 0.79047 0.53168 0.22954 0.0
O838 O 0.78209 0.54591 0.22569 0.0
H839 H 0.77908 0.59037 0.26454 0.0
H840 H 0.75086 0.53202 0.25604 0.0
O841 O 0.81385 0.57393 0.26653 0.0
H842 H 0.7788 0.51351 0.31926 0.0
H843 H 0.72742 0.55517 0.24801 0.0
Cu844 Cu 0.54897 0.25817 0.77252 0.0
N845 N 0.53288 0.25087 0.79224 0.0
N846 N 0.51157 0.25499 0.81478 0.0
C847 C 0.51835 0.26003 0.79851 0.0
C848 C 0.52218 0.24202 0.81889 0.0
C849 C 0.5353 0.23947 0.80492 0.0
O850 O 0.53218 0.26117 0.7542 0.0
C851 C 0.57799 0.27992 0.79185 0.0
O852 O 0.57831 0.26213 0.79603 0.0
H853 H 0.514 0.27147 0.79191 0.0
H854 H 0.54666 0.23103 0.80461 0.0
N855 N 0.56433 0.23978 0.76403 0.0
N856 N 0.58961 0.22821 0.75057 0.0
C857 C 0.58092 0.24394 0.75416 0.0
C858 C 0.56226 0.2207 0.76676 0.0
C859 C 0.57781 0.21352 0.75848 0.0
C860 C 0.52013 0.24573 0.74973 0.0
O861 O 0.52083 0.22953 0.75701 0.0
H862 H 0.58642 0.25836 0.74978 0.0
H863 H 0.55043 0.21263 0.7744 0.0
O864 O 0.56605 0.28213 0.78074 0.0
H865 H 0.52121 0.23568 0.83147 0.0
H866 H 0.58034 0.19871 0.75866 0.0
Cu867 Cu 0.55153 0.79527 0.76785 0.0
N868 N 0.57142 0.7963 0.78356 0.0
N869 N 0.59692 0.78764 0.7948 0.0
C870 C 0.58468 0.78451 0.78144 0.0
C871 C 0.59107 0.80204 0.80581 0.0
C872 C 0.57545 0.80739 0.79883 0.0
O873 O 0.56233 0.78557 0.74539 0.0
C874 C 0.52124 0.78426 0.79125 0.0
O875 O 0.53001 0.80059 0.79954 0.0
H876 H 0.5851 0.77357 0.77037 0.0
H877 H 0.56758 0.81857 0.80453 0.0
N878 N 0.5445 0.81964 0.7653 0.0
N879 N 0.52714 0.84199 0.75948 0.0
C880 C 0.52716 0.82275 0.7609 0.0
C881 C 0.55584 0.83744 0.7666 0.0
C882 C 0.54524 0.85118 0.76307 0.0
C883 C 0.55995 0.79095 0.7303 0.0
O884 O 0.54611 0.80066 0.72857 0.0
H885 H 0.5148 0.81113 0.75886 0.0
H886 H 0.57084 0.84019 0.76969 0.0
O887 O 0.52856 0.77826 0.77643 0.0
H888 H 0.59777 0.80849 0.8179 0.0
H889 H 0.55064 0.86677 0.76289 0.0
Cu890 Cu 0.50418 0.76941 0.27893 0.0
N891 N 0.48562 0.7664 0.29789 0.0
N892 N 0.45948 0.77161 0.3147 0.0
C893 C 0.46983 0.7747 0.29926 0.0
C894 C 0.46912 0.76085 0.32341 0.0
C895 C 0.48518 0.75758 0.31299 0.0
O896 O 0.4903 0.77012 0.25792 0.0
C897 C 0.53188 0.79371 0.29831 0.0
O898 O 0.52433 0.78163 0.31024 0.0
H899 H 0.46641 0.78349 0.28934 0.0
H900 H 0.49606 0.74991 0.31654 0.0
N901 N 0.51887 0.74963 0.27485 0.0
N902 N 0.54538 0.73797 0.26526 0.0
C903 C 0.53428 0.75118 0.26324 0.0
C904 C 0.52021 0.73476 0.2845 0.0
C905 C 0.53673 0.72766 0.2787 0.0
C906 C 0.48171 0.75358 0.25127 0.0
O907 O 0.48369 0.73764 0.25834 0.0
H908 H 0.53826 0.76302 0.25466 0.0
H909 H 0.51074 0.73028 0.29573 0.0
O910 O 0.52371 0.79254 0.28372 0.0
H911 H 0.46496 0.75584 0.33643 0.0
H912 H 0.54257 0.71666 0.28459 0.0
Cu913 Cu 0.55388 0.28685 0.25573 0.0
N914 N 0.53396 0.26525 0.25266 0.0
N915 N 0.5033 0.25012 0.25215 0.0
C916 C 0.51561 0.26636 0.25764 0.0
C917 C 0.51423 0.23787 0.2437 0.0
C918 C 0.53329 0.24738 0.24391 0.0
O919 O 0.53972 0.30924 0.26011 0.0
C920 C 0.58089 0.26807 0.26927 0.0
O921 O 0.57861 0.25864 0.25351 0.0
H922 H 0.51121 0.27911 0.26481 0.0
H923 H 0.54561 0.24197 0.23749 0.0
N924 N 0.5691 0.29002 0.23472 0.0
N925 N 0.59447 0.2999 0.21647 0.0
C926 C 0.58716 0.30035 0.23338 0.0
C927 C 0.56488 0.28262 0.21812 0.0
C928 C 0.58048 0.28884 0.20679 0.0
C929 C 0.52953 0.31168 0.24742 0.0
O930 O 0.53105 0.30092 0.23239 0.0
H931 H 0.5947 0.30819 0.24458 0.0
H932 H 0.5514 0.27338 0.21452 0.0
O933 O 0.57104 0.28163 0.27377 0.0
H934 H 0.50878 0.22356 0.23722 0.0
H935 H 0.58157 0.28527 0.19261 0.0
H936 H 0.22329 0.18066 0.17164 0.0
H937 H 0.2125 0.23788 0.19304 0.0
H938 H 0.23163 0.25294 0.1679 0.0
H939 H 0.27317 0.19816 0.15541 0.0
H940 H 0.27136 0.18118 0.13587 0.0
H941 H 0.25713 0.17476 0.15581 0.0
H942 H 0.22614 0.1684 0.13832 0.0
H943 H 0.24025 0.17494 0.11837 0.0
H944 H 0.22086 0.18754 0.12614 0.0
H945 H 0.25026 0.26176 0.13994 0.0
H946 H 0.26947 0.26425 0.11164 0.0
H947 H 0.26987 0.20184 0.10832 0.0
C948 C 0.22521 0.19639 0.17119 0.0
C949 C 0.21613 0.20802 0.18428 0.0
C950 C 0.21891 0.22856 0.18304 0.0
C951 C 0.22986 0.2373 0.16885 0.0
C952 C 0.23821 0.2254 0.15601 0.0
C953 C 0.23626 0.20544 0.1571 0.0
C954 C 0.24676 0.1961 0.14136 0.0
C955 C 0.26307 0.18701 0.14748 0.0
C956 C 0.23266 0.18084 0.1304 0.0
C957 C 0.25469 0.21392 0.13121 0.0
C958 C 0.24946 0.23062 0.13992 0.0
C959 C 0.25451 0.24881 0.13302 0.0
C960 C 0.26528 0.25004 0.11684 0.0
C961 C 0.27106 0.23323 0.10768 0.0
C962 C 0.26572 0.21494 0.11506 0.0
H963 H 0.83885 0.22542 0.1104 0.0
H964 H 0.84513 0.2676 0.15643 0.0
H965 H 0.83339 0.29145 0.13982 0.0
H966 H 0.85602 0.25976 0.07869 0.0
H967 H 0.83977 0.24786 0.06207 0.0
H968 H 0.84708 0.23371 0.0781 0.0
H969 H 0.81124 0.22105 0.08725 0.0
H970 H 0.80384 0.23539 0.07136 0.0
H971 H 0.79577 0.23842 0.09435 0.0
H972 H 0.82268 0.31128 0.11779 0.0
H973 H 0.81652 0.32662 0.09125 0.0
H974 H 0.8175 0.2719 0.05921 0.0
C975 C 0.83759 0.23964 0.11699 0.0
C976 C 0.84284 0.24467 0.13469 0.0
C977 C 0.84123 0.26346 0.14287 0.0
C978 C 0.83444 0.27704 0.13357 0.0
C979 C 0.82937 0.27162 0.11612 0.0
C980 C 0.83102 0.25342 0.10785 0.0
C981 C 0.82595 0.25175 0.0886 0.0
C982 C 0.84323 0.24806 0.07614 0.0
C983 C 0.80814 0.2357 0.0852 0.0
C984 C 0.82149 0.27198 0.08722 0.0
C985 C 0.82328 0.2831 0.10334 0.0
C986 C 0.82097 0.30262 0.10519 0.0
C987 C 0.81736 0.31118 0.09009 0.0
C988 C 0.81602 0.30023 0.07339 0.0
C989 C 0.81778 0.28031 0.07198 0.0
H990 H 0.8403 0.87788 0.14258 0.0
H991 H 0.84058 0.82215 0.1637 0.0
H992 H 0.83112 0.80481 0.13505 0.0
H993 H 0.7977 0.8603 0.11792 0.0
H994 H 0.8062 0.87514 0.09977 0.0
H995 H 0.81408 0.88331 0.12173 0.0
H996 H 0.8496 0.88635 0.10974 0.0
H997 H 0.84181 0.87799 0.08778 0.0
H998 H 0.85759 0.86536 0.09797 0.0
H999 H 0.82154 0.79309 0.1036 0.0
H1000 H 0.80966 0.78823 0.07327 0.0
H1001 H 0.81364 0.85112 0.07315 0.0
C1002 C 0.83827 0.86203 0.14131 0.0
C1003 C 0.84168 0.85159 0.15559 0.0
C1004 C 0.83878 0.83077 0.15302 0.0
C1005 C 0.83323 0.82066 0.13674 0.0
C1006 C 0.8303 0.83141 0.12296 0.0
C1007 C 0.83247 0.85162 0.12515 0.0
C1008 C 0.82757 0.85959 0.10845 0.0
C1009 C 0.81036 0.87021 0.11219 0.0
C1010 C 0.84519 0.87312 0.10052 0.0
C1011 C 0.82227 0.84073 0.0966 0.0
C1012 C 0.82415 0.82463 0.10512 0.0
C1013 C 0.82001 0.80563 0.09681 0.0
C1014 C 0.81337 0.80299 0.07951 0.0
C1015 C 0.81073 0.81923 0.07072 0.0
C1016 C 0.81552 0.83834 0.07942 0.0
H1017 H 0.19769 0.82827 0.11544 0.0
H1018 H 0.16756 0.78503 0.15005 0.0
H1019 H 0.17015 0.75868 0.12627 0.0
H1020 H 0.17587 0.80487 0.07493 0.0
H1021 H 0.19765 0.81138 0.06133 0.0
H1022 H 0.19294 0.82681 0.08095 0.0
H1023 H 0.22567 0.82385 0.09273 0.0
H1024 H 0.23048 0.80847 0.07314 0.0
H1025 H 0.23095 0.79987 0.09472 0.0
H1026 H 0.17763 0.73692 0.09907 0.0
H1027 H 0.18942 0.72161 0.07083 0.0
H1028 H 0.21278 0.77947 0.05359 0.0
C1029 C 0.19159 0.81325 0.11795 0.0
C1030 C 0.18243 0.80866 0.1345 0.0
C1031 C 0.17458 0.78887 0.13739 0.0
C1032 C 0.17596 0.77381 0.12398 0.0
C1033 C 0.18506 0.77884 0.10774 0.0
C1034 C 0.19265 0.79809 0.10466 0.0
C1035 C 0.20193 0.79959 0.08616 0.0
C1036 C 0.19147 0.81136 0.0752 0.0
C1037 C 0.22354 0.80846 0.08673 0.0
C1038 C 0.19872 0.77814 0.07944 0.0
C1039 C 0.18894 0.76638 0.09202 0.0
C1040 C 0.18513 0.746 0.08903 0.0
C1041 C 0.1918 0.73743 0.07286 0.0
C1042 C 0.20216 0.74923 0.05985 0.0
C1043 C 0.2052 0.76988 0.0632 0.0
H1044 H 0.18088 0.8084 0.91932 0.0
H1045 H 0.23369 0.84749 0.90453 0.0
H1046 H 0.25009 0.83646 0.92845 0.0
H1047 H 0.18626 0.81497 0.96683 0.0
H1048 H 0.17617 0.78969 0.96998 0.0
H1049 H 0.1687 0.80126 0.95211 0.0
H1050 H 0.17828 0.77393 0.92952 0.0
H1051 H 0.18564 0.76224 0.94733 0.0
H1052 H 0.20237 0.76888 0.92893 0.0
H1053 H 0.261 0.81944 0.95376 0.0
H1054 H 0.26508 0.79796 0.97698 0.0
H1055 H 0.20462 0.7713 0.97506 0.0
C1056 C 0.19588 0.81472 0.92118 0.0
C1057 C 0.20598 0.8288 0.9101 0.0
C1058 C 0.22562 0.8367 0.9129 0.0
C1059 C 0.23505 0.83054 0.92648 0.0
C1060 C 0.22462 0.81658 0.93722 0.0
C1061 C 0.20542 0.80884 0.93468 0.0
C1062 C 0.19741 0.79372 0.9476 0.0
C1063 C 0.18118 0.80031 0.95985 0.0
C1064 C 0.19053 0.7735 0.93776 0.0
C1065 C 0.21512 0.7939 0.95769 0.0
C1066 C 0.23072 0.80718 0.95165 0.0
C1067 C 0.24879 0.80914 0.95867 0.0
C1068 C 0.25098 0.79695 0.97191 0.0
C1069 C 0.23518 0.78299 0.97795 0.0
C1070 C 0.21702 0.78185 0.97088 0.0
H1071 H 0.24608 0.19458 0.93511 0.0
H1072 H 0.24158 0.25064 0.91696 0.0
H1073 H 0.25155 0.26719 0.9459 0.0
H1074 H 0.22849 0.20398 0.97995 0.0
H1075 H 0.24502 0.19165 0.98943 0.0
H1076 H 0.23753 0.1841 0.96725 0.0
H1077 H 0.27318 0.18943 0.9553 0.0
H1078 H 0.28077 0.19677 0.97747 0.0
H1079 H 0.28858 0.21285 0.96008 0.0
H1080 H 0.26202 0.27786 0.97733 0.0
H1081 H 0.27374 0.28155 1.00769 0.0
H1082 H 0.27161 0.2187 1.0051 0.0
C1083 C 0.24737 0.21035 0.93713 0.0
C1084 C 0.24282 0.2212 0.92368 0.0
C1085 C 0.2446 0.24186 0.92707 0.0
C1086 C 0.25034 0.25146 0.94348 0.0
C1087 C 0.25438 0.2403 0.95653 0.0
C1088 C 0.25311 0.22021 0.95348 0.0
C1089 C 0.25845 0.21165 0.96966 0.0
C1090 C 0.24135 0.19698 0.977 0.0
C1091 C 0.27631 0.20212 0.96537 0.0
C1092 C 0.26291 0.23002 0.98224 0.0
C1093 C 0.26043 0.24642 0.97448 0.0
C1094 C 0.26395 0.26508 0.98354 0.0
C1095 C 0.2705 0.26704 1.00084 0.0
C1096 C 0.27352 0.25045 1.00891 0.0
C1097 C 0.26939 0.23172 0.99944 0.0
H1098 H 0.88212 0.26957 0.90195 0.0
H1099 H 0.85258 0.21201 0.91557 0.0
H1100 H 0.84201 0.22651 0.94473 0.0
H1101 H 0.89874 0.28718 0.9456 0.0
H1102 H 0.89511 0.31185 0.94402 0.0
H1103 H 0.90062 0.29697 0.92428 0.0
H1104 H 0.86977 0.30236 0.91053 0.0
H1105 H 0.86421 0.31732 0.93019 0.0
H1106 H 0.8468 0.29635 0.92251 0.0
H1107 H 0.83419 0.24711 0.97193 0.0
H1108 H 0.82912 0.27274 0.99559 0.0
H1109 H 0.86379 0.31704 0.96451 0.0
C1110 C 0.87346 0.26003 0.91108 0.0
C1111 C 0.86813 0.23965 0.90659 0.0
C1112 C 0.85677 0.22765 0.91884 0.0
C1113 C 0.85075 0.23574 0.93541 0.0
C1114 C 0.85628 0.25585 0.93949 0.0
C1115 C 0.86735 0.26786 0.92771 0.0
C1116 C 0.87103 0.28906 0.93534 0.0
C1117 C 0.89266 0.29671 0.93743 0.0
C1118 C 0.86243 0.30203 0.92397 0.0
C1119 C 0.86016 0.28708 0.95319 0.0
C1120 C 0.85181 0.26778 0.95529 0.0
C1121 C 0.84067 0.26228 0.97046 0.0
C1122 C 0.83779 0.27694 0.98377 0.0
C1123 C 0.84602 0.29686 0.98185 0.0
C1124 C 0.85754 0.30191 0.96642 0.0
H1125 H 0.85753 0.87779 0.9011 0.0
H1126 H 0.8524 0.81894 0.87495 0.0
H1127 H 0.83446 0.80555 0.90143 0.0
H1128 H 0.86355 0.86505 0.94509 0.0
H1129 H 0.84946 0.88213 0.95605 0.0
H1130 H 0.86223 0.8872 0.93514 0.0
H1131 H 0.83042 0.89063 0.92197 0.0
H1132 H 0.81753 0.88552 0.94282 0.0
H1133 H 0.80999 0.8708 0.92283 0.0
H1134 H 0.81658 0.79841 0.93037 0.0
H1135 H 0.8006 0.79783 0.96021 0.0
H1136 H 0.8168 0.86121 0.9681 0.0
C1137 C 0.85258 0.86209 0.90089 0.0
C1138 C 0.85657 0.84944 0.88586 0.0
C1139 C 0.84992 0.82896 0.88632 0.0
C1140 C 0.83955 0.8212 0.90128 0.0
C1141 C 0.83583 0.83406 0.91577 0.0
C1142 C 0.84215 0.85406 0.91575 0.0
C1143 C 0.83616 0.8646 0.93313 0.0
C1144 C 0.85391 0.87538 0.94293 0.0
C1145 C 0.82273 0.87872 0.92999 0.0
C1146 C 0.82546 0.84738 0.94289 0.0
C1147 C 0.82547 0.82992 0.93257 0.0
C1148 C 0.81659 0.81198 0.93861 0.0
C1149 C 0.80764 0.81181 0.95568 0.0
C1150 C 0.80758 0.82945 0.96669 0.0
C1151 C 0.8165 0.84749 0.96004 0.0
H1152 H 0.16791 0.2364 0.22181 0.0
H1153 H 0.13724 0.17647 0.22418 0.0
H1154 H 0.10676 0.18862 0.23137 0.0
H1155 H 0.14077 0.25745 0.25813 0.0
H1156 H 0.1411 0.27989 0.24803 0.0
H1157 H 0.16043 0.26646 0.24289 0.0
H1158 H 0.15455 0.26497 0.20946 0.0
H1159 H 0.13512 0.2783 0.21451 0.0
H1160 H 0.1309 0.25481 0.20182 0.0
H1161 H 0.07951 0.20722 0.23773 0.0
H1162 H 0.0577 0.23084 0.24469 0.0
H1163 H 0.10601 0.27899 0.239 0.0
C1164 C 0.15476 0.22582 0.22375 0.0
C1165 C 0.155 0.20542 0.2224 0.0
C1166 C 0.13749 0.19213 0.22531 0.0
C1167 C 0.12008 0.19889 0.22927 0.0
C1168 C 0.12035 0.21904 0.23039 0.0
C1169 C 0.13725 0.23233 0.22785 0.0
C1170 C 0.13362 0.25325 0.23022 0.0
C1171 C 0.14463 0.26495 0.24574 0.0
C1172 C 0.13886 0.26343 0.21297 0.0
C1173 C 0.11202 0.24966 0.23447 0.0
C1174 C 0.10467 0.2298 0.23439 0.0
C1175 C 0.08515 0.2228 0.23795 0.0
C1176 C 0.07285 0.23639 0.24199 0.0
C1177 C 0.08002 0.25689 0.24261 0.0
C1178 C 0.09992 0.2635 0.23854 0.0
H1179 H 0.85649 0.15425 0.19305 0.0
H1180 H 0.81091 0.1846 0.18228 0.0
H1181 H 0.78715 0.15408 0.18491 0.0
H1182 H 0.8368 0.10646 0.17105 0.0
H1183 H 0.84404 0.09316 0.18784 0.0
H1184 H 0.85783 0.11682 0.1832 0.0
H1185 H 0.85371 0.12938 0.21626 0.0
H1186 H 0.84002 0.10575 0.221 0.0
H1187 H 0.82983 0.12749 0.22672 0.0
H1188 H 0.76793 0.12071 0.19055 0.0
H1189 H 0.75476 0.08792 0.2007 0.0
H1190 H 0.81262 0.07981 0.20879 0.0
C1191 C 0.84154 0.15454 0.19122 0.0
C1192 C 0.8357 0.17189 0.18726 0.0
C1193 C 0.81592 0.17146 0.18488 0.0
C1194 C 0.80225 0.15418 0.18643 0.0
C1195 C 0.80851 0.13742 0.19043 0.0
C1196 C 0.82768 0.13749 0.19288 0.0
C1197 C 0.83048 0.11792 0.19832 0.0
C1198 C 0.84303 0.10801 0.18426 0.0
C1199 C 0.83901 0.12029 0.21666 0.0
C1200 C 0.80985 0.10698 0.19891 0.0
C1201 C 0.79741 0.11835 0.19405 0.0
C1202 C 0.77756 0.1116 0.19422 0.0
C1203 C 0.7702 0.09291 0.19989 0.0
C1204 C 0.78266 0.0813 0.20551 0.0
C1205 C 0.80275 0.08837 0.20463 0.0
H1206 H 0.90924 0.83562 0.21255 0.0
H1207 H 0.87734 0.84724 0.2621 0.0
H1208 H 0.8959 0.82759 0.27716 0.0
H1209 H 0.91381 0.7857 0.21904 0.0
H1210 H 0.93808 0.78816 0.20943 0.0
H1211 H 0.92185 0.8025 0.20224 0.0
H1212 H 0.9463 0.83439 0.20988 0.0
H1213 H 0.96263 0.82014 0.217 0.0
H1214 H 0.95508 0.83935 0.23188 0.0
H1215 H 0.91769 0.80665 0.28686 0.0
H1216 H 0.9426 0.78757 0.29133 0.0
H1217 H 0.96203 0.79061 0.23591 0.0
C1218 C 0.90611 0.83393 0.22654 0.0
C1219 C 0.89169 0.84287 0.23615 0.0
C1220 C 0.88825 0.8405 0.25448 0.0
C1221 C 0.89869 0.82931 0.26314 0.0
C1222 C 0.91275 0.82067 0.25335 0.0
C1223 C 0.91663 0.82296 0.23549 0.0
C1224 C 0.93309 0.8127 0.22832 0.0
C1225 C 0.9263 0.79629 0.2139 0.0
C1226 C 0.95029 0.82753 0.22136 0.0
C1227 C 0.93782 0.80433 0.24492 0.0
C1228 C 0.92578 0.809 0.25914 0.0
C1229 C 0.92729 0.803 0.27588 0.0
C1230 C 0.94163 0.79223 0.27829 0.0
C1231 C 0.95461 0.78763 0.26408 0.0
C1232 C 0.95239 0.79364 0.24709 0.0
H1233 H 0.18936 0.87209 0.23111 0.0
H1234 H 0.20251 0.8916 0.17839 0.0
H1235 H 0.22502 0.92073 0.19081 0.0
H1236 H 0.18557 0.91656 0.25191 0.0
H1237 H 0.19587 0.91326 0.2722 0.0
H1238 H 0.18422 0.89227 0.25882 0.0
H1239 H 0.21516 0.87723 0.25696 0.0
H1240 H 0.2269 0.89811 0.27055 0.0
H1241 H 0.23773 0.89136 0.24921 0.0
H1242 H 0.24237 0.95004 0.20993 0.0
H1243 H 0.25268 0.97631 0.2336 0.0
H1244 H 0.22688 0.93726 0.27336 0.0
C1245 C 0.19734 0.88227 0.22212 0.0
C1246 C 0.19425 0.87973 0.20384 0.0
C1247 C 0.20488 0.89327 0.19244 0.0
C1248 C 0.21763 0.90983 0.19939 0.0
C1249 C 0.21967 0.91236 0.21768 0.0
C1250 C 0.20993 0.89876 0.22883 0.0
C1251 C 0.21281 0.90563 0.24809 0.0
C1252 C 0.19347 0.90702 0.25834 0.0
C1253 C 0.22381 0.89229 0.2567 0.0
C1254 C 0.225 0.92564 0.24617 0.0
C1255 C 0.22921 0.92919 0.22858 0.0
C1256 C 0.2394 0.94726 0.22373 0.0
C1257 C 0.2452 0.96207 0.23721 0.0
C1258 C 0.24045 0.95877 0.25523 0.0
C1259 C 0.23055 0.94021 0.25967 0.0
H1260 H 0.13546 0.86114 0.84576 0.0
H1261 H 0.17333 0.82003 0.82886 0.0
H1262 H 0.14936 0.8023 0.80791 0.0
H1263 H 0.09081 0.82492 0.84407 0.0
H1264 H 0.0773 0.84175 0.83657 0.0
H1265 H 0.09744 0.85086 0.85017 0.0
H1266 H 0.11279 0.87407 0.82623 0.0
H1267 H 0.09286 0.86477 0.81241 0.0
H1268 H 0.11713 0.86394 0.80388 0.0
H1269 H 0.12212 0.79053 0.78743 0.0
H1270 H 0.09152 0.7821 0.77236 0.0
H1271 H 0.07049 0.8298 0.80389 0.0
C1272 C 0.13853 0.84824 0.83779 0.0
C1273 C 0.15615 0.84184 0.8389 0.0
C1274 C 0.15979 0.82497 0.8283 0.0
C1275 C 0.14636 0.81495 0.81627 0.0
C1276 C 0.12927 0.82189 0.81521 0.0
C1277 C 0.12514 0.83789 0.82596 0.0
C1278 C 0.10549 0.84199 0.82261 0.0
C1279 C 0.09196 0.83974 0.83935 0.0
C1280 C 0.10718 0.8624 0.81588 0.0
C1281 C 0.09923 0.82588 0.8082 0.0
C1282 C 0.11329 0.81465 0.80393 0.0
C1283 C 0.11096 0.79913 0.79077 0.0
C1284 C 0.09356 0.79457 0.78217 0.0
C1285 C 0.07857 0.80529 0.78692 0.0
C1286 C 0.08165 0.82134 0.79994 0.0
H1287 H 0.21964 0.1546 0.85977 0.0
H1288 H 0.2753 0.18284 0.87898 0.0
H1289 H 0.29015 0.1566 0.86269 0.0
H1290 H 0.22581 0.10454 0.86061 0.0
H1291 H 0.21369 0.09629 0.84041 0.0
H1292 H 0.20733 0.11674 0.85437 0.0
H1293 H 0.2142 0.13838 0.82789 0.0
H1294 H 0.22048 0.11797 0.81384 0.0
H1295 H 0.23735 0.14085 0.81595 0.0
H1296 H 0.29919 0.12692 0.84326 0.0
H1297 H 0.30132 0.09796 0.82194 0.0
H1298 H 0.24003 0.09045 0.81486 0.0
C1299 C 0.23498 0.15544 0.86053 0.0
C1300 C 0.24616 0.17094 0.87088 0.0
C1301 C 0.2662 0.17106 0.87153 0.0
C1302 C 0.27484 0.15622 0.86219 0.0
C1303 C 0.26338 0.14126 0.85211 0.0
C1304 C 0.24387 0.14085 0.85119 0.0
C1305 C 0.23478 0.12359 0.83898 0.0
C1306 C 0.2195 0.10946 0.84921 0.0
C1307 C 0.2262 0.13062 0.82324 0.0
C1308 C 0.25219 0.1144 0.83305 0.0
C1309 C 0.26857 0.12464 0.84083 0.0
C1310 C 0.2864 0.11881 0.83714 0.0
C1311 C 0.28749 0.10229 0.82505 0.0
C1312 C 0.27089 0.09186 0.81666 0.0
C1313 C 0.25305 0.09804 0.82096 0.0
H1314 H 0.93376 0.27323 0.83207 0.0
H1315 H 0.95106 0.2166 0.83048 0.0
H1316 H 0.98485 0.23224 0.82429 0.0
H1317 H 0.97033 0.2934 0.79691 0.0
H1318 H 0.97408 0.31768 0.80816 0.0
H1319 H 0.95082 0.3019 0.80997 0.0
H1320 H 0.9516 0.30592 0.84416 0.0
H1321 H 0.9748 0.32171 0.84258 0.0
H1322 H 0.97168 0.30012 0.85457 0.0
H1323 H 0.01677 0.2543 0.82382 0.0
H1324 H 0.0448 0.28134 0.82588 0.0
H1325 H 1.00747 0.32369 0.82547 0.0
C1326 C 0.94464 0.26411 0.83 0.0
C1327 C 0.93983 0.24371 0.83165 0.0
C1328 C 0.95441 0.2322 0.82898 0.0
C1329 C 0.97364 0.24096 0.82553 0.0
C1330 C 0.978 0.26118 0.82449 0.0
C1331 C 0.96391 0.2726 0.8263 0.0
C1332 C 0.97264 0.29417 0.82565 0.0
C1333 C 0.96662 0.30226 0.80919 0.0
C1334 C 0.96737 0.30618 0.84276 0.0
C1335 C 0.99387 0.29314 0.82416 0.0
C1336 C 0.99661 0.27394 0.82334 0.0
C1337 C 1.01486 0.26932 0.82367 0.0
C1338 C 0.03074 0.28471 0.82457 0.0
C1339 C 0.02833 0.30437 0.82478 0.0
C1340 C 1.00966 0.30867 0.82479 0.0
H1341 H 0.85272 0.91377 0.79433 0.0
H1342 H 0.87215 0.93776 0.84618 0.0
H1343 H 0.86415 0.96962 0.84099 0.0
H1344 H 0.8683 0.95909 0.77125 0.0
H1345 H 0.84721 0.95478 0.75844 0.0
H1346 H 0.85633 0.93434 0.76523 0.0
H1347 H 0.82302 0.92114 0.78027 0.0
H1348 H 0.8138 0.94144 0.77343 0.0
H1349 H 0.81216 0.93693 0.79653 0.0
H1350 H 0.85205 0.99785 0.83149 0.0
H1351 H 0.83455 0.02035 0.81912 0.0
H1352 H 0.82211 0.97888 0.77324 0.0
C1353 C 0.85555 0.92587 0.80443 0.0
C1354 C 0.86314 0.92333 0.82064 0.0
C1355 C 0.86633 0.93934 0.8337 0.0
C1356 C 0.86194 0.95755 0.83081 0.0
C1357 C 0.8543 0.95955 0.81481 0.0
C1358 C 0.851 0.94416 0.80184 0.0
C1359 C 0.84114 0.94989 0.78648 0.0
C1360 C 0.85402 0.9495 0.76934 0.0
C1361 C 0.82136 0.93656 0.78404 0.0
C1362 C 0.83908 0.97075 0.79302 0.0
C1363 C 0.84705 0.97602 0.8093 0.0
C1364 C 0.84598 0.99399 0.81866 0.0
C1365 C 0.83603 1.0067 0.81151 0.0
C1366 C 0.82725 1.00151 0.79511 0.0
C1367 C 0.82918 0.98346 0.78553 0.0
H1368 H 0.24684 0.13317 0.23002 0.0
H1369 H 0.1898 0.13447 0.25456 0.0
H1370 H 0.19318 0.10805 0.2729 0.0
H1371 H 0.24385 0.08089 0.2281 0.0
H1372 H 0.26858 0.08233 0.23321 0.0
H1373 H 0.26187 0.10156 0.22214 0.0
H1374 H 0.27658 0.12721 0.24678 0.0
H1375 H 0.28327 0.10808 0.25802 0.0
H1376 H 0.26853 0.1242 0.26957 0.0
H1377 H 0.20273 0.08156 0.28875 0.0
H1378 H 0.21747 0.05652 0.30063 0.0
H1379 H 0.2683 0.07171 0.26568 0.0
C1380 C 0.23507 0.12788 0.23927 0.0
C1381 C 0.21805 0.13592 0.24083 0.0
C1382 C 0.20298 0.1286 0.25309 0.0
C1383 C 0.20477 0.11358 0.26359 0.0
C1384 C 0.22172 0.10597 0.26173 0.0
C1385 C 0.23663 0.11285 0.24988 0.0
C1386 C 0.25329 0.10204 0.25046 0.0
C1387 C 0.25712 0.09105 0.2324 0.0
C1388 C 0.27149 0.11623 0.25657 0.0
C1389 C 0.24533 0.08787 0.26434 0.0
C1390 C 0.22715 0.09051 0.27075 0.0
C1391 C 0.21693 0.07936 0.2838 0.0
C1392 C 0.22547 0.06515 0.29049 0.0
C1393 C 0.24403 0.06202 0.28408 0.0
C1394 C 0.25403 0.0736 0.27079 0.0
H1395 H 0.19794 0.89754 0.8205 0.0
H1396 H 0.20854 0.91801 0.8754 0.0
H1397 H 0.22166 0.95126 0.86633 0.0
H1398 H 0.2395 0.92635 0.80082 0.0
H1399 H 0.22731 0.93112 0.78211 0.0
H1400 H 0.21899 0.90896 0.79296 0.0
H1401 H 0.18492 0.91767 0.798 0.0
H1402 H 0.19314 0.93988 0.78717 0.0
H1403 H 0.18213 0.941 0.80931 0.0
H1404 H 0.23431 0.98218 0.85103 0.0
H1405 H 0.24496 1.0084 0.83077 0.0
H1406 H 0.22434 0.96797 0.7863 0.0
C1407 C 0.20274 0.90902 0.83072 0.0
C1408 C 0.20215 0.90506 0.84871 0.0
C1409 C 0.20905 0.92053 0.86151 0.0
C1410 C 0.2164 0.93952 0.8565 0.0
C1411 C 0.21663 0.94286 0.83867 0.0
C1412 C 0.2099 0.92804 0.82599 0.0
C1413 C 0.21169 0.93542 0.80771 0.0
C1414 C 0.22518 0.92483 0.79517 0.0
C1415 C 0.19178 0.93337 0.80011 0.0
C1416 C 0.22059 0.95673 0.81204 0.0
C1417 C 0.2234 0.96072 0.82996 0.0
C1418 C 0.23206 0.97924 0.83701 0.0
C1419 C 0.23812 0.99401 0.82542 0.0
C1420 C 0.23535 0.99022 0.80703 0.0
C1421 C 0.22631 0.97136 0.80034 0.0
H1422 H 0.16692 0.20269 0.83059 0.0
H1423 H 0.17524 0.24138 0.87883 0.0
H1424 H 0.14964 0.25814 0.87122 0.0
H1425 H 0.158 0.23908 0.80301 0.0
H1426 H 0.13989 0.22247 0.79076 0.0
H1427 H 0.15877 0.21325 0.80003 0.0
H1428 H 0.13322 0.18882 0.81678 0.0
H1429 H 0.11426 0.198 0.80759 0.0
H1430 H 0.11501 0.19793 0.83126 0.0
H1431 H 0.1233 0.27103 0.85839 0.0
H1432 H 0.0981 0.27918 0.84119 0.0
H1433 H 0.10656 0.2325 0.80096 0.0
C1434 C 0.1633 0.21468 0.83954 0.0
C1435 C 0.17313 0.22067 0.85532 0.0
C1436 C 0.16799 0.23644 0.86668 0.0
C1437 C 0.15342 0.24609 0.86247 0.0
C1438 C 0.14403 0.23984 0.84684 0.0
C1439 C 0.14874 0.22451 0.83553 0.0
C1440 C 0.13644 0.22084 0.8195 0.0
C1441 C 0.14903 0.22411 0.80231 0.0
C1442 C 0.12399 0.20017 0.81875 0.0
C1443 C 0.12413 0.23653 0.82358 0.0
C1444 C 0.12878 0.24731 0.83942 0.0
C1445 C 0.11957 0.26271 0.84594 0.0
C1446 C 0.10531 0.26731 0.83599 0.0
C1447 C 0.10028 0.2566 0.81963 0.0
C1448 C 0.10984 0.24089 0.81347 0.0
H1449 H 0.8551 0.19262 0.83176 0.0
H1450 H 0.91131 0.17579 0.82635 0.0
H1451 H 0.89613 0.14192 0.81651 0.0
H1452 H 0.82992 0.1492 0.84962 0.0
H1453 H 0.80828 0.14824 0.83817 0.0
H1454 H 0.82362 0.17149 0.84361 0.0
H1455 H 0.82656 0.17881 0.8106 0.0
H1456 H 0.81106 0.15566 0.80507 0.0
H1457 H 0.83457 0.16138 0.79401 0.0
H1458 H 0.87469 0.10955 0.80894 0.0
H1459 H 0.84866 0.08124 0.80266 0.0
H1460 H 0.80641 0.11918 0.81311 0.0
C1461 C 0.86423 0.18184 0.82842 0.0
C1462 C 0.88441 0.18687 0.82977 0.0
C1463 C 0.89587 0.17236 0.82515 0.0
C1464 C 0.88736 0.15305 0.81968 0.0
C1465 C 0.8674 0.14851 0.81886 0.0
C1466 C 0.85599 0.16251 0.82297 0.0
C1467 C 0.83485 0.15373 0.82134 0.0
C1468 C 0.82351 0.15579 0.83925 0.0
C1469 C 0.82626 0.16294 0.80689 0.0
C1470 C 0.83614 0.13253 0.81586 0.0
C1471 C 0.85504 0.12985 0.81449 0.0
C1472 C 0.85985 0.11151 0.80981 0.0
C1473 C 0.84495 0.09552 0.80621 0.0
C1474 C 0.82546 0.09795 0.80728 0.0
C1475 C 0.82109 0.11675 0.81232 0.0
H1476 H 0.91786 0.83777 0.85598 0.0
H1477 H 0.89258 0.84586 0.80742 0.0
H1478 H 0.91545 0.82771 0.79016 0.0
H1479 H 0.96695 0.84324 0.83824 0.0
H1480 H 0.97292 0.82479 0.85085 0.0
H1481 H 0.95458 0.83845 0.8594 0.0
H1482 H 0.93022 0.80597 0.86242 0.0
H1483 H 0.94848 0.79221 0.85386 0.0
H1484 H 0.9259 0.78857 0.84333 0.0
H1485 H 0.94084 0.80818 0.77814 0.0
H1486 H 0.96723 0.78961 0.77216 0.0
H1487 H 0.97644 0.79437 0.82847 0.0
C1488 C 0.91702 0.83561 0.84172 0.0
C1489 C 0.90334 0.84332 0.83309 0.0
C1490 C 0.90302 0.84037 0.81437 0.0
C1491 C 0.91589 0.82995 0.80444 0.0
C1492 C 0.92911 0.82253 0.81337 0.0
C1493 C 0.92982 0.82528 0.83159 0.0
C1494 C 0.94557 0.81595 0.83791 0.0
C1495 C 0.96091 0.83154 0.84714 0.0
C1496 C 0.93703 0.79971 0.8501 0.0
C1497 C 0.95358 0.80747 0.8204 0.0
C1498 C 0.94385 0.81142 0.80643 0.0
C1499 C 0.94861 0.80511 0.78899 0.0
C1500 C 0.96377 0.79463 0.78571 0.0
C1501 C 0.97418 0.79052 0.79977 0.0
C1502 C 0.9688 0.79702 0.81738 0.0
H1503 H 0.83492 0.90133 0.23052 0.0
H1504 H 0.84968 0.92072 0.17784 0.0
H1505 H 0.84108 0.95282 0.18802 0.0
H1506 H 0.7937 0.92485 0.23922 0.0
H1507 H 0.79782 0.93137 0.26236 0.0
H1508 H 0.80588 0.91014 0.2512 0.0
H1509 H 0.84055 0.92404 0.26072 0.0
H1510 H 0.8326 0.94536 0.27185 0.0
H1511 H 0.85214 0.94822 0.25518 0.0
H1512 H 0.83055 0.98295 0.20375 0.0
H1513 H 0.81695 1.00792 0.22324 0.0
H1514 H 0.80823 0.96935 0.2659 0.0
C1515 C 0.83648 0.91239 0.22117 0.0
C1516 C 0.84301 0.90836 0.2033 0.0
C1517 C 0.84456 0.92325 0.1915 0.0
C1518 C 0.83982 0.94164 0.19721 0.0
C1519 C 0.8334 0.9451 0.21482 0.0
C1520 C 0.83158 0.93086 0.22662 0.0
C1521 C 0.82357 0.93819 0.24465 0.0
C1522 C 0.80409 0.92538 0.24965 0.0
C1523 C 0.83808 0.939 0.25895 0.0
C1524 C 0.82114 0.95871 0.24111 0.0
C1525 C 0.82707 0.96242 0.22384 0.0
C1526 C 0.82592 0.98019 0.21731 0.0
C1527 C 0.81819 0.99437 0.22855 0.0
C1528 C 0.81156 0.99084 0.24624 0.0
C1529 C 0.81335 0.97275 0.25257 0.0
H1530 H 0.12993 0.81598 0.22163 0.0
H1531 H 0.12087 0.87231 0.20781 0.0
H1532 H 0.0912 0.86936 0.22753 0.0
H1533 H 0.08022 0.7921 0.2247 0.0
H1534 H 0.08314 0.77918 0.24349 0.0
H1535 H 0.10316 0.78567 0.22788 0.0
H1536 H 0.12362 0.80383 0.25353 0.0
H1537 H 0.10356 0.79758 0.26918 0.0
H1538 H 0.11483 0.82288 0.26767 0.0
H1539 H 0.06202 0.85954 0.24794 0.0
H1540 H 0.03578 0.8439 0.26811 0.0
H1541 H 0.06553 0.79523 0.27012 0.0
C1542 C 0.12151 0.82753 0.22265 0.0
C1543 C 0.12734 0.84423 0.21314 0.0
C1544 C 0.11637 0.85935 0.21497 0.0
C1545 C 0.09961 0.85781 0.22614 0.0
C1546 C 0.0943 0.84122 0.23553 0.0
C1547 C 0.10497 0.8264 0.23397 0.0
C1548 C 0.09642 0.81033 0.24581 0.0
C1549 C 0.09037 0.79066 0.23481 0.0
C1550 C 0.11045 0.80856 0.25988 0.0
C1551 C 0.07912 0.8183 0.25409 0.0
C1552 C 0.07809 0.83608 0.24795 0.0
C1553 C 0.06278 0.84573 0.25302 0.0
C1554 C 0.04798 0.83678 0.26446 0.0
C1555 C 0.0488 0.81855 0.27083 0.0
C1556 C 0.06474 0.8094 0.26577 0.0
H1557 H 0.91568 0.23155 0.19025 0.0
H1558 H 0.87702 0.20665 0.23255 0.0
H1559 H 0.90375 0.21394 0.25278 0.0
H1560 H 0.95804 0.21483 0.20182 0.0
H1561 H 0.9742 0.23697 0.19632 0.0
H1562 H 0.9522 0.22899 0.185 0.0
H1563 H 0.94211 0.26257 0.19417 0.0
H1564 H 0.96417 0.2707 0.20533 0.0
H1565 H 0.94135 0.27147 0.21726 0.0
H1566 H 0.93514 0.22504 0.26884 0.0
H1567 H 0.96738 0.24065 0.27925 0.0
H1568 H 0.98476 0.25832 0.22637 0.0
C1569 C 0.91275 0.22772 0.20379 0.0
C1570 C 0.89418 0.21839 0.2097 0.0
C1571 C 0.89114 0.21348 0.22754 0.0
C1572 C 0.90625 0.21762 0.23918 0.0
C1573 C 0.9244 0.2267 0.23286 0.0
C1574 C 0.92764 0.23176 0.21558 0.0
C1575 C 0.94824 0.24197 0.21215 0.0
C1576 C 0.95879 0.22997 0.19798 0.0
C1577 C 0.949 0.26292 0.20693 0.0
C1578 C 0.95604 0.24213 0.23023 0.0
C1579 C 0.9422 0.23311 0.24202 0.0
C1580 C 0.94611 0.23205 0.25966 0.0
C1581 C 0.96449 0.24083 0.26546 0.0
C1582 C 0.97863 0.25066 0.25365 0.0
C1583 C 0.97432 0.25089 0.23576 0.0
H1584 H 0.19182 0.6946 0.64886 0.0
H1585 H 0.24603 0.69788 0.67342 0.0
H1586 H 0.2636 0.71214 0.64721 0.0
H1587 H 0.20813 0.68291 0.60414 0.0
H1588 H 0.19447 0.69823 0.59456 0.0
H1589 H 0.18591 0.68781 0.61511 0.0
H1590 H 0.18462 0.72245 0.63039 0.0
H1591 H 0.1929 0.73294 0.60981 0.0
H1592 H 0.20586 0.74135 0.62953 0.0
H1593 H 0.27565 0.72535 0.61772 0.0
H1594 H 0.2807 0.74016 0.58898 0.0
H1595 H 0.21881 0.73015 0.58433 0.0
C1596 C 0.20736 0.69851 0.64888 0.0
C1597 C 0.21744 0.69466 0.66324 0.0
C1598 C 0.23786 0.70005 0.66249 0.0
C1599 C 0.24804 0.70829 0.64765 0.0
C1600 C 0.23771 0.7114 0.63359 0.0
C1601 C 0.2178 0.707 0.6342 0.0
C1602 C 0.21017 0.71248 0.61756 0.0
C1603 C 0.19901 0.69427 0.60723 0.0
C1604 C 0.19765 0.72824 0.6221 0.0
C1605 C 0.22887 0.72061 0.60754 0.0
C1606 C 0.24461 0.71964 0.61691 0.0
C1607 C 0.26341 0.72623 0.61028 0.0
C1608 C 0.26616 0.73449 0.59387 0.0
C1609 C 0.2502 0.7363 0.58434 0.0
C1610 C 0.23135 0.72896 0.59125 0.0
H1611 H 0.86343 0.71321 0.57713 0.0
H1612 H 0.83123 0.73777 0.6215 0.0
H1613 H 0.81212 0.75048 0.60064 0.0
H1614 H 0.86754 0.75441 0.5517 0.0
H1615 H 0.86611 0.73993 0.53069 0.0
H1616 H 0.87562 0.73123 0.54914 0.0
H1617 H 0.85046 0.69898 0.54576 0.0
H1618 H 0.84068 0.70774 0.52744 0.0
H1619 H 0.8252 0.7001 0.54635 0.0
H1620 H 0.79635 0.76021 0.57454 0.0
H1621 H 0.78936 0.77135 0.54603 0.0
H1622 H 0.8343 0.74336 0.5192 0.0
C1623 C 0.85225 0.72117 0.5824 0.0
C1624 C 0.84862 0.72443 0.60084 0.0
C1625 C 0.83419 0.73519 0.60737 0.0
C1626 C 0.82318 0.74229 0.59562 0.0
C1627 C 0.82706 0.73877 0.57743 0.0
C1628 C 0.84156 0.72883 0.57089 0.0
C1629 C 0.84421 0.72868 0.55091 0.0
C1630 C 0.86457 0.73919 0.54529 0.0
C1631 C 0.83987 0.70762 0.5421 0.0
C1632 C 0.82903 0.74018 0.5472 0.0
C1633 C 0.81891 0.74542 0.5626 0.0
C1634 C 0.80418 0.75616 0.56242 0.0
C1635 C 0.80017 0.76226 0.54618 0.0
C1636 C 0.81116 0.75796 0.5305 0.0
C1637 C 0.82555 0.74657 0.53102 0.0
H1638 H 0.86019 0.38181 0.64925 0.0
H1639 H 0.86014 0.33268 0.68032 0.0
H1640 H 0.84996 0.30966 0.65465 0.0
H1641 H 0.8176 0.35779 0.62361 0.0
H1642 H 0.82749 0.36842 0.60346 0.0
H1643 H 0.83348 0.38134 0.62464 0.0
H1644 H 0.86973 0.38333 0.61579 0.0
H1645 H 0.86386 0.37028 0.59467 0.0
H1646 H 0.87873 0.36109 0.60896 0.0
H1647 H 0.84331 0.29179 0.62517 0.0
H1648 H 0.83747 0.28 0.59392 0.0
H1649 H 0.83958 0.33968 0.58127 0.0
C1650 C 0.85759 0.36621 0.65073 0.0
C1651 C 0.86118 0.35911 0.66685 0.0
C1652 C 0.8578 0.33855 0.66811 0.0
C1653 C 0.85194 0.3253 0.65359 0.0
C1654 C 0.84919 0.33269 0.63777 0.0
C1655 C 0.85157 0.35263 0.63624 0.0
C1656 C 0.84806 0.35644 0.6174 0.0
C1657 C 0.83062 0.3666 0.61727 0.0
C1658 C 0.86617 0.3685 0.6087 0.0
C1659 C 0.84378 0.33559 0.6086 0.0
C1660 C 0.84459 0.32218 0.62068 0.0
C1661 C 0.84235 0.30212 0.61566 0.0
C1662 C 0.83915 0.29555 0.59788 0.0
C1663 C 0.83797 0.30886 0.58524 0.0
C1664 C 0.84015 0.32917 0.59074 0.0
H1665 H 0.28625 0.30883 0.67009 0.0
H1666 H 0.22877 0.32136 0.66831 0.0
H1667 H 0.23866 0.33813 0.64105 0.0
H1668 H 0.31277 0.35341 0.65257 0.0
H1669 H 0.32986 0.34112 0.63945 0.0
H1670 H 0.31881 0.33147 0.65967 0.0
H1671 H 0.30655 0.29789 0.64255 0.0
H1672 H 0.31786 0.30747 0.62245 0.0
H1673 H 0.29251 0.29698 0.62348 0.0
H1674 H 0.25496 0.35388 0.61414 0.0
H1675 H 0.27476 0.36227 0.58671 0.0
H1676 H 0.32046 0.33681 0.60451 0.0
C1677 C 0.2758 0.31517 0.66395 0.0
C1678 C 0.25705 0.31461 0.67169 0.0
C1679 C 0.24351 0.32247 0.66305 0.0
C1680 C 0.24897 0.33197 0.64753 0.0
C1681 C 0.26785 0.33299 0.6406 0.0
C1682 C 0.28093 0.32442 0.64831 0.0
C1683 C 0.29985 0.32623 0.63745 0.0
C1684 C 0.31629 0.33881 0.64791 0.0
C1685 C 0.30444 0.30592 0.63111 0.0
C1686 C 0.29521 0.33672 0.62221 0.0
C1687 C 0.27687 0.34099 0.62453 0.0
C1688 C 0.26935 0.35063 0.61217 0.0
C1689 C 0.28068 0.35547 0.59676 0.0
C1690 C 0.29905 0.35028 0.59377 0.0
C1691 C 0.30649 0.34104 0.60673 0.0
H1692 H 0.23153 0.3802 0.44611 0.0
H1693 H 0.20091 0.32144 0.43151 0.0
H1694 H 0.21798 0.30846 0.45378 0.0
H1695 H 0.27627 0.3672 0.45112 0.0
H1696 H 0.28254 0.385 0.4696 0.0
H1697 H 0.2667 0.38956 0.45362 0.0
H1698 H 0.2408 0.39425 0.47877 0.0
H1699 H 0.25658 0.38968 0.49485 0.0
H1700 H 0.23271 0.37514 0.49347 0.0
H1701 H 0.24016 0.30191 0.47693 0.0
H1702 H 0.26572 0.30249 0.49782 0.0
H1703 H 0.28134 0.36566 0.4965 0.0
C1704 C 0.22823 0.36463 0.44778 0.0
C1705 C 0.21488 0.35185 0.4372 0.0
C1706 C 0.21107 0.33152 0.43956 0.0
C1707 C 0.22067 0.32403 0.45219 0.0
C1708 C 0.23396 0.33707 0.46234 0.0
C1709 C 0.23768 0.35696 0.46024 0.0
C1710 C 0.25325 0.36784 0.472 0.0
C1711 C 0.27072 0.37799 0.46092 0.0
C1712 C 0.24536 0.38259 0.48558 0.0
C1713 C 0.258 0.35097 0.48088 0.0
C1714 C 0.24665 0.33332 0.47533 0.0
C1715 C 0.24902 0.31569 0.48144 0.0
C1716 C 0.26353 0.31615 0.49332 0.0
C1717 C 0.27553 0.3341 0.49879 0.0
C1718 C 0.27243 0.35167 0.49261 0.0
H1719 H 0.20478 0.71689 0.40642 0.0
H1720 H 0.20045 0.65741 0.42088 0.0
H1721 H 0.21017 0.67034 0.451 0.0
H1722 H 0.24662 0.73806 0.43143 0.0
H1723 H 0.23847 0.76084 0.43775 0.0
H1724 H 0.23132 0.7469 0.41731 0.0
H1725 H 0.19545 0.74627 0.42722 0.0
H1726 H 0.2025 0.76017 0.44771 0.0
H1727 H 0.18621 0.73693 0.44808 0.0
H1728 H 0.21991 0.68998 0.48011 0.0
H1729 H 0.22949 0.71444 0.50514 0.0
H1730 H 0.228 0.7612 0.47165 0.0
C1731 C 0.20577 0.70655 0.41593 0.0
C1732 C 0.2018 0.68603 0.41112 0.0
C1733 C 0.20359 0.67314 0.42403 0.0
C1734 C 0.20901 0.68037 0.44127 0.0
C1735 C 0.21276 0.70062 0.44554 0.0
C1736 C 0.21131 0.71353 0.4332 0.0
C1737 C 0.21633 0.73464 0.44112 0.0
C1738 C 0.23425 0.74576 0.43132 0.0
C1739 C 0.19909 0.74512 0.44103 0.0
C1740 C 0.22059 0.73159 0.4599 0.0
C1741 C 0.21848 0.71186 0.46218 0.0
C1742 C 0.22166 0.70547 0.4784 0.0
C1743 C 0.2272 0.71954 0.49259 0.0
C1744 C 0.22958 0.73993 0.49063 0.0
C1745 C 0.22614 0.74586 0.47392 0.0
H1746 H 0.81307 0.75335 0.34135 0.0
H1747 H 0.80792 0.81301 0.33384 0.0
H1748 H 0.8131 0.82247 0.36566 0.0
H1749 H 0.78879 0.7506 0.38334 0.0
H1750 H 0.80427 0.73629 0.3918 0.0
H1751 H 0.80093 0.73461 0.36839 0.0
H1752 H 0.83789 0.74389 0.36217 0.0
H1753 H 0.84135 0.74561 0.3856 0.0
H1754 H 0.85098 0.76616 0.37288 0.0
H1755 H 0.81758 0.82493 0.39852 0.0
H1756 H 0.82048 0.82012 0.42998 0.0
H1757 H 0.8233 0.75894 0.41543 0.0
C1758 C 0.81349 0.76851 0.34625 0.0
C1759 C 0.81055 0.78262 0.33506 0.0
C1760 C 0.81038 0.80209 0.34222 0.0
C1761 C 0.81336 0.80759 0.36021 0.0
C1762 C 0.8165 0.79339 0.37084 0.0
C1763 C 0.8166 0.77426 0.36411 0.0
C1764 C 0.81968 0.76166 0.37841 0.0
C1765 C 0.80239 0.7448 0.38061 0.0
C1766 C 0.8386 0.75387 0.37453 0.0
C1767 C 0.82096 0.7766 0.39433 0.0
C1768 C 0.81918 0.79484 0.38969 0.0
C1769 C 0.81912 0.81075 0.40229 0.0
C1770 C 0.8207 0.80786 0.42013 0.0
C1771 C 0.82224 0.78921 0.42521 0.0
C1772 C 0.8226 0.77349 0.41202 0.0
H1773 H 0.87386 0.36131 0.42107 0.0
H1774 H 0.81943 0.36857 0.40226 0.0
H1775 H 0.80286 0.35798 0.43044 0.0
H1776 H 0.85537 0.31785 0.44274 0.0
H1777 H 0.87116 0.32452 0.46082 0.0
H1778 H 0.87855 0.33344 0.43947 0.0
H1779 H 0.88419 0.36914 0.45401 0.0
H1780 H 0.87659 0.3603 0.47539 0.0
H1781 H 0.86481 0.37802 0.46698 0.0
H1782 H 0.79196 0.34494 0.46066 0.0
H1783 H 0.78796 0.32973 0.48925 0.0
H1784 H 0.84966 0.3318 0.488 0.0
C1785 C 0.85844 0.36061 0.42281 0.0
C1786 C 0.848 0.36585 0.4094 0.0
C1787 C 0.82783 0.3649 0.41239 0.0
C1788 C 0.81827 0.35885 0.42836 0.0
C1789 C 0.82903 0.35387 0.44133 0.0
C1790 C 0.84869 0.35469 0.43868 0.0
C1791 C 0.85692 0.34811 0.45445 0.0
C1792 C 0.86603 0.3299 0.44904 0.0
C1793 C 0.87149 0.3649 0.46322 0.0
C1794 C 0.83883 0.3432 0.46629 0.0
C1795 C 0.82285 0.34668 0.4586 0.0
C1796 C 0.80443 0.34236 0.46687 0.0
C1797 C 0.80229 0.33384 0.48318 0.0
C1798 C 0.81848 0.3297 0.49101 0.0
C1799 C 0.83697 0.33491 0.48252 0.0
H1800 H 0.16554 0.71193 0.70782 0.0
H1801 H 0.1484 0.64875 0.70794 0.0
H1802 H 0.11649 0.65285 0.7213 0.0
H1803 H 0.14185 0.72386 0.74951 0.0
H1804 H 0.13446 0.74531 0.74282 0.0
H1805 H 0.15578 0.73757 0.7325 0.0
H1806 H 0.14198 0.73614 0.70162 0.0
H1807 H 0.12063 0.74393 0.71185 0.0
H1808 H 0.11857 0.72154 0.69753 0.0
H1809 H 0.08677 0.66357 0.73544 0.0
H1810 H 0.06104 0.68018 0.74925 0.0
H1811 H 0.09691 0.73668 0.74054 0.0
C1812 C 0.15497 0.69897 0.71044 0.0
C1813 C 0.15957 0.67998 0.70685 0.0
C1814 C 0.14536 0.66343 0.71073 0.0
C1815 C 0.12713 0.66561 0.71825 0.0
C1816 C 0.12316 0.68446 0.72187 0.0
C1817 C 0.13662 0.70088 0.71807 0.0
C1818 C 0.1287 0.71948 0.72379 0.0
C1819 C 0.14093 0.73231 0.738 0.0
C1820 C 0.12739 0.73095 0.70774 0.0
C1821 C 0.10878 0.71092 0.73146 0.0
C1822 C 0.10593 0.69068 0.73015 0.0
C1823 C 0.08885 0.67942 0.73653 0.0
C1824 C 0.07432 0.68904 0.7445 0.0
C1825 C 0.07681 0.7098 0.74614 0.0
C1826 C 0.09435 0.72081 0.73938 0.0
H1827 H 0.85848 0.67698 0.69498 0.0
H1828 H 0.852 0.65805 0.6392 0.0
H1829 H 0.83241 0.62659 0.64724 0.0
H1830 H 0.86304 0.62957 0.70847 0.0
H1831 H 0.84983 0.63277 0.7294 0.0
H1832 H 0.86334 0.65384 0.71923 0.0
H1833 H 0.83255 0.66903 0.72053 0.0
H1834 H 0.81893 0.64797 0.73061 0.0
H1835 H 0.81124 0.65522 0.71053 0.0
H1836 H 0.81289 0.59737 0.66134 0.0
H1837 H 0.79613 0.572 0.68051 0.0
H1838 H 0.81589 0.60962 0.727 0.0
C1839 C 0.85317 0.66614 0.68443 0.0
C1840 C 0.85673 0.67011 0.66643 0.0
C1841 C 0.84923 0.65555 0.65309 0.0
C1842 C 0.83816 0.63757 0.65751 0.0
C1843 C 0.83476 0.63425 0.67535 0.0
C1844 C 0.84214 0.64806 0.6886 0.0
C1845 C 0.83638 0.6408 0.70676 0.0
C1846 C 0.85421 0.63914 0.71653 0.0
C1847 C 0.82404 0.65404 0.71775 0.0
C1848 C 0.82458 0.62077 0.70163 0.0
C1849 C 0.82376 0.6173 0.68346 0.0
C1850 C 0.81347 0.59991 0.67559 0.0
C1851 C 0.80388 0.58563 0.68659 0.0
C1852 C 0.80471 0.58875 0.70526 0.0
C1853 C 0.81518 0.60664 0.71279 0.0
H1854 H 0.9296 0.3448 0.72091 0.0
H1855 H 0.9431 0.40067 0.75214 0.0
H1856 H 0.96611 0.38764 0.76845 0.0
H1857 H 0.93291 0.31397 0.75647 0.0
H1858 H 0.94397 0.29647 0.74231 0.0
H1859 H 0.92798 0.30982 0.7333 0.0
H1860 H 0.95468 0.3223 0.70979 0.0
H1861 H 0.97071 0.30896 0.71871 0.0
H1862 H 0.97787 0.33497 0.71689 0.0
H1863 H 0.98792 0.36912 0.78115 0.0
H1864 H 1.00803 0.34641 0.78904 0.0
H1865 H 0.98146 0.30219 0.74958 0.0
C1866 C 0.93735 0.35423 0.73123 0.0
C1867 C 0.93452 0.37381 0.73529 0.0
C1868 C 0.94502 0.38567 0.74882 0.0
C1869 C 0.95811 0.37838 0.75819 0.0
C1870 C 0.96062 0.35912 0.75391 0.0
C1871 C 0.95061 0.34716 0.74075 0.0
C1872 C 0.95652 0.32714 0.73861 0.0
C1873 C 0.93932 0.31089 0.74293 0.0
C1874 C 0.96548 0.32311 0.71989 0.0
C1875 C 0.97149 0.32984 0.7525 0.0
C1876 C 0.9735 0.34839 0.76119 0.0
C1877 C 0.98653 0.35457 0.77439 0.0
C1878 C 0.99803 0.34158 0.77869 0.0
C1879 C 0.99658 0.32254 0.76983 0.0
C1880 C 0.98288 0.31657 0.75669 0.0
H1881 H 0.27471 0.37827 0.71527 0.0
H1882 H 0.23772 0.39475 0.67861 0.0
H1883 H 0.25769 0.42797 0.67916 0.0
H1884 H 0.27659 0.41741 0.74261 0.0
H1885 H 0.30123 0.42035 0.74859 0.0
H1886 H 0.28862 0.39664 0.74079 0.0
H1887 H 0.3152 0.39399 0.71587 0.0
H1888 H 0.32806 0.41782 0.72373 0.0
H1889 H 0.32173 0.41308 0.70093 0.0
H1890 H 0.276 0.46061 0.68924 0.0
H1891 H 0.28971 0.48953 0.70873 0.0
H1892 H 0.31465 0.45218 0.73934 0.0
C1893 C 0.27151 0.38859 0.70663 0.0
C1894 C 0.25493 0.38401 0.69673 0.0
C1895 C 0.25053 0.39804 0.68616 0.0
C1896 C 0.26187 0.41687 0.68631 0.0
C1897 C 0.27759 0.42136 0.69703 0.0
C1898 C 0.28254 0.4075 0.70687 0.0
C1899 C 0.29756 0.41679 0.71988 0.0
C1900 C 0.29056 0.41256 0.73908 0.0
C1901 C 0.31678 0.41002 0.71479 0.0
C1902 C 0.29901 0.43819 0.71693 0.0
C1903 C 0.288 0.44052 0.70323 0.0
C1904 C 0.28511 0.45899 0.69965 0.0
C1905 C 0.29294 0.47536 0.71081 0.0
C1906 C 0.30319 0.47304 0.72556 0.0
C1907 C 0.30701 0.45437 0.72806 0.0
H1908 H 0.14031 0.36211 0.35339 0.0
H1909 H 0.15244 0.30785 0.36956 0.0
H1910 H 0.12237 0.28969 0.35678 0.0
H1911 H 0.08879 0.35114 0.36161 0.0
H1912 H 0.08397 0.36253 0.34249 0.0
H1913 H 0.10609 0.37124 0.35347 0.0
H1914 H 0.12578 0.36576 0.3239 0.0
H1915 H 0.10373 0.35725 0.31281 0.0
H1916 H 0.12172 0.34197 0.31171 0.0
H1917 H 0.09084 0.27725 0.34109 0.0
H1918 H 0.06216 0.27196 0.32296 0.0
H1919 H 0.07139 0.3345 0.31749 0.0
C1920 C 0.13675 0.34639 0.35416 0.0
C1921 C 0.14878 0.33647 0.36256 0.0
C1922 C 0.14336 0.31588 0.36343 0.0
C1923 C 0.12631 0.3054 0.35616 0.0
C1924 C 0.11473 0.31569 0.34807 0.0
C1925 C 0.11981 0.33574 0.34701 0.0
C1926 C 0.10525 0.34336 0.33725 0.0
C1927 C 0.09545 0.35793 0.34944 0.0
C1928 C 0.11469 0.35262 0.32042 0.0
C1929 C 0.0913 0.32448 0.33278 0.0
C1930 C 0.09685 0.30863 0.33919 0.0
C1931 C 0.08633 0.28961 0.33611 0.0
C1932 C 0.07 0.28672 0.32589 0.0
C1933 C 0.06446 0.30278 0.31883 0.0
C1934 C 0.07514 0.32187 0.3227 0.0
H1935 H 0.21293 0.64903 0.3326 0.0
H1936 H 0.19708 0.61946 0.38064 0.0
H1937 H 0.20835 0.59 0.36617 0.0
H1938 H 0.20053 0.6064 0.30099 0.0
H1939 H 0.22096 0.6137 0.28597 0.0
H1940 H 0.21062 0.63204 0.2997 0.0
H1941 H 0.24386 0.64624 0.31242 0.0
H1942 H 0.2543 0.62805 0.29864 0.0
H1943 H 0.25659 0.63026 0.32227 0.0
H1944 H 0.22169 0.56348 0.34627 0.0
H1945 H 0.23888 0.54378 0.32401 0.0
H1946 H 0.24739 0.59099 0.28928 0.0
C1947 C 0.21168 0.63628 0.34001 0.0
C1948 C 0.204 0.63657 0.35778 0.0
C1949 C 0.20295 0.61966 0.36707 0.0
C1950 C 0.20922 0.60279 0.35891 0.0
C1951 C 0.21673 0.60297 0.3414 0.0
C1952 C 0.21819 0.61937 0.33213 0.0
C1953 C 0.22788 0.61617 0.31383 0.0
C1954 C 0.21418 0.61713 0.29926 0.0
C1955 C 0.24678 0.63106 0.31167 0.0
C1956 C 0.23171 0.59548 0.31428 0.0
C1957 C 0.22492 0.588 0.33021 0.0
C1958 C 0.22702 0.56923 0.33375 0.0
C1959 C 0.23672 0.55804 0.32094 0.0
C1960 C 0.24447 0.56566 0.30475 0.0
C1961 C 0.24157 0.58457 0.3014 0.0
H1962 H 0.89063 0.74551 0.33139 0.0
H1963 H 0.87575 0.79632 0.31062 0.0
H1964 H 0.90702 0.81587 0.31899 0.0
H1965 H 0.92258 0.77182 0.36679 0.0
H1966 H 0.9393 0.75523 0.36199 0.0
H1967 H 0.91398 0.74665 0.3589 0.0
H1968 H 0.9217 0.73478 0.32614 0.0
H1969 H 0.94691 0.74302 0.32929 0.0
H1970 H 0.93586 0.75191 0.31181 0.0
H1971 H 0.94196 0.82797 0.32366 0.0
H1972 H 0.97719 0.83065 0.32243 0.0
H1973 H 0.97 0.77171 0.33898 0.0
C1974 C 0.89378 0.7608 0.32873 0.0
C1975 C 0.88055 0.76927 0.32034 0.0
C1976 C 0.88533 0.78945 0.31736 0.0
C1977 C 0.90315 0.80073 0.32205 0.0
C1978 C 0.91615 0.79165 0.32959 0.0
C1979 C 0.91165 0.77211 0.33291 0.0
C1980 C 0.929 0.76492 0.33846 0.0
C1981 C 0.92604 0.75933 0.35768 0.0
C1982 C 0.93363 0.74766 0.32566 0.0
C1983 C 0.94427 0.78317 0.33684 0.0
C1984 C 0.9365 0.79862 0.33218 0.0
C1985 C 0.94815 0.81616 0.32775 0.0
C1986 C 0.96822 0.81758 0.32715 0.0
C1987 C 0.97642 0.80138 0.33061 0.0
C1988 C 0.96422 0.78446 0.33652 0.0
H1989 H 0.83237 0.4311 0.35014 0.0
H1990 H 0.89191 0.45366 0.33426 0.0
H1991 H 0.88183 0.48088 0.32103 0.0
H1992 H 0.81226 0.44179 0.31085 0.0
H1993 H 0.79099 0.4485 0.32231 0.0
H1994 H 0.80289 0.43117 0.33115 0.0
H1995 H 0.80607 0.45279 0.36089 0.0
H1996 H 0.79422 0.47023 0.35212 0.0
H1997 H 0.81766 0.47818 0.36095 0.0
H1998 H 0.86553 0.5054 0.30944 0.0
H1999 H 0.84392 0.52522 0.2991 0.0
H2000 H 0.79453 0.48647 0.32149 0.0
C2001 C 0.84327 0.44185 0.34398 0.0
C2002 C 0.86298 0.4404 0.34331 0.0
C2003 C 0.87678 0.45459 0.33495 0.0
C2004 C 0.87119 0.4701 0.32743 0.0
C2005 C 0.8517 0.47116 0.3283 0.0
C2006 C 0.83791 0.4574 0.33627 0.0
C2007 C 0.81787 0.46171 0.33484 0.0
C2008 C 0.80526 0.44479 0.32415 0.0
C2009 C 0.8084 0.46598 0.3533 0.0
C2010 C 0.82258 0.48001 0.32482 0.0
C2011 C 0.8422 0.48521 0.32127 0.0
C2012 C 0.85013 0.50143 0.31207 0.0
C2013 C 0.83768 0.51255 0.30614 0.0
C2014 C 0.81745 0.5074 0.30931 0.0
C2015 C 0.80989 0.49096 0.31895 0.0
H2016 H 0.1971 0.59662 0.73282 0.0
H2017 H 0.24752 0.64071 0.72158 0.0
H2018 H 0.268 0.62106 0.73419 0.0
H2019 H 0.21178 0.58387 0.77426 0.0
H2020 H 0.20221 0.55806 0.77015 0.0
H2021 H 0.1914 0.57584 0.7607 0.0
H2022 H 0.19634 0.55867 0.72935 0.0
H2023 H 0.20713 0.54083 0.73871 0.0
H2024 H 0.2201 0.55492 0.72149 0.0
H2025 H 0.28305 0.59662 0.74818 0.0
H2026 H 0.29178 0.56884 0.76134 0.0
H2027 H 0.23178 0.53966 0.76236 0.0
C2028 C 0.21245 0.60214 0.73309 0.0
C2029 C 0.2207 0.62021 0.72623 0.0
C2030 C 0.24086 0.6269 0.7267 0.0
C2031 C 0.25262 0.61585 0.73389 0.0
C2032 C 0.24405 0.59806 0.74049 0.0
C2033 C 0.22444 0.59118 0.74008 0.0
C2034 C 0.21897 0.57132 0.74758 0.0
C2035 C 0.20528 0.57234 0.76415 0.0
C2036 C 0.21011 0.5555 0.73344 0.0
C2037 C 0.23856 0.56811 0.75228 0.0
C2038 C 0.2528 0.58377 0.74817 0.0
C2039 C 0.27201 0.58422 0.75134 0.0
C2040 C 0.27685 0.56821 0.75876 0.0
C2041 C 0.26259 0.55173 0.76286 0.0
C2042 C 0.24314 0.55191 0.75959 0.0
H2043 H 0.20829 0.41203 0.38232 0.0
H2044 H 0.21218 0.37008 0.3368 0.0
H2045 H 0.23579 0.39501 0.32173 0.0
H2046 H 0.21039 0.4538 0.35696 0.0
H2047 H 0.22417 0.47087 0.37271 0.0
H2048 H 0.20821 0.44949 0.38012 0.0
H2049 H 0.23661 0.4394 0.39441 0.0
H2050 H 0.25271 0.46064 0.38686 0.0
H2051 H 0.25808 0.43651 0.38097 0.0
H2052 H 0.25969 0.42397 0.31211 0.0
H2053 H 0.279 0.45627 0.30655 0.0
H2054 H 0.25801 0.48061 0.35737 0.0
C2055 C 0.21415 0.40816 0.36917 0.0
C2056 C 0.20849 0.38913 0.36069 0.0
C2057 C 0.21627 0.3846 0.34344 0.0
C2058 C 0.22978 0.39861 0.33487 0.0
C2059 C 0.2352 0.41717 0.34364 0.0
C2060 C 0.22741 0.4221 0.36028 0.0
C2061 C 0.23497 0.44344 0.36633 0.0
C2062 C 0.21845 0.45508 0.36919 0.0
C2063 C 0.24626 0.44509 0.38314 0.0
C2064 C 0.24824 0.44973 0.35049 0.0
C2065 C 0.24834 0.43422 0.3377 0.0
C2066 C 0.25952 0.43627 0.32193 0.0
C2067 C 0.27041 0.45476 0.31887 0.0
C2068 C 0.26986 0.47123 0.33133 0.0
C2069 C 0.25889 0.46845 0.34756 0.0
H2070 H 0.12425 0.69218 0.35661 0.0
H2071 H 0.1618 0.70248 0.3095 0.0
H2072 H 0.1371 0.71658 0.29639 0.0
H2073 H 0.08056 0.67704 0.33324 0.0
H2074 H 0.06569 0.68824 0.34988 0.0
H2075 H 0.08671 0.68 0.35611 0.0
H2076 H 0.09973 0.71476 0.37057 0.0
H2077 H 0.07873 0.72309 0.36441 0.0
H2078 H 0.10244 0.73558 0.35761 0.0
H2079 H 0.1085 0.73015 0.28846 0.0
H2080 H 0.07709 0.73981 0.28539 0.0
H2081 H 0.0569 0.71887 0.3366 0.0
C2082 C 0.12731 0.69759 0.34362 0.0
C2083 C 0.1451 0.69647 0.33414 0.0
C2084 C 0.14836 0.70332 0.31702 0.0
C2085 C 0.13441 0.71138 0.30947 0.0
C2086 C 0.11702 0.71225 0.31906 0.0
C2087 C 0.1133 0.70537 0.33569 0.0
C2088 C 0.09301 0.70719 0.34275 0.0
C2089 C 0.08077 0.68691 0.34566 0.0
C2090 C 0.09352 0.72098 0.35985 0.0
C2091 C 0.08597 0.7162 0.32754 0.0
C2092 C 0.10015 0.71921 0.31411 0.0
C2093 C 0.09726 0.72776 0.29887 0.0
C2094 C 0.0794 0.73328 0.29725 0.0
C2095 C 0.06445 0.73 0.31065 0.0
C2096 C 0.0679 0.72132 0.32599 0.0
H2097 H 0.82659 0.70264 0.27326 0.0
H2098 H 0.86397 0.69951 0.31544 0.0
H2099 H 0.86367 0.66466 0.30599 0.0
H2100 H 0.79683 0.65607 0.27808 0.0
H2101 H 0.7935 0.65043 0.25472 0.0
H2102 H 0.79803 0.67557 0.26383 0.0
H2103 H 0.82728 0.683 0.24135 0.0
H2104 H 0.8229 0.65777 0.23233 0.0
H2105 H 0.84615 0.66877 0.24042 0.0
H2106 H 0.85736 0.62966 0.29368 0.0
H2107 H 0.84448 0.59662 0.27987 0.0
H2108 H 0.81119 0.62221 0.24571 0.0
C2109 C 0.83475 0.69467 0.28051 0.0
C2110 C 0.84547 0.70398 0.29501 0.0
C2111 C 0.85599 0.69292 0.30405 0.0
C2112 C 0.85586 0.67306 0.29883 0.0
C2113 C 0.84514 0.66437 0.28452 0.0
C2114 C 0.83472 0.67477 0.27552 0.0
C2115 C 0.82349 0.66162 0.26125 0.0
C2116 C 0.80168 0.66088 0.26469 0.0
C2117 C 0.83037 0.66819 0.24274 0.0
C2118 C 0.82899 0.64215 0.26388 0.0
C2119 C 0.8416 0.6441 0.27729 0.0
C2120 C 0.8477 0.62797 0.28298 0.0
C2121 C 0.84034 0.60928 0.27506 0.0
C2122 C 0.82709 0.60689 0.26156 0.0
C2123 C 0.82171 0.62362 0.25566 0.0
H2124 H 0.91604 0.38452 0.34967 0.0
H2125 H 0.88041 0.32946 0.36324 0.0
H2126 H 0.90356 0.31139 0.34644 0.0
H2127 H 0.92965 0.36775 0.30501 0.0
H2128 H 0.95389 0.38159 0.30546 0.0
H2129 H 0.9348 0.39038 0.31891 0.0
H2130 H 0.95398 0.39168 0.34693 0.0
H2131 H 0.97316 0.38295 0.33356 0.0
H2132 H 0.96204 0.36997 0.35216 0.0
H2133 H 0.93002 0.29914 0.32767 0.0
H2134 H 0.95851 0.29343 0.30895 0.0
H2135 H 0.97751 0.35626 0.30718 0.0
C2136 C 0.91304 0.36866 0.34907 0.0
C2137 C 0.89634 0.35846 0.35792 0.0
C2138 C 0.89318 0.33768 0.35689 0.0
C2139 C 0.90619 0.32725 0.34724 0.0
C2140 C 0.92238 0.33775 0.33862 0.0
C2141 C 0.92592 0.35798 0.33947 0.0
C2142 C 0.94446 0.36564 0.32896 0.0
C2143 C 0.94046 0.37701 0.31368 0.0
C2144 C 0.95929 0.37831 0.34113 0.0
C2145 C 0.95077 0.34652 0.32204 0.0
C2146 C 0.93777 0.33065 0.3278 0.0
C2147 C 0.94036 0.31147 0.3232 0.0
C2148 C 0.95673 0.30839 0.31261 0.0
C2149 C 0.97051 0.32437 0.30668 0.0
C2150 C 0.96728 0.34371 0.31138 0.0
H2151 H 0.8547 0.42848 0.68931 0.0
H2152 H 0.86694 0.41132 0.74022 0.0
H2153 H 0.85622 0.4405 0.75514 0.0
H2154 H 0.86813 0.48069 0.69866 0.0
H2155 H 0.84852 0.48643 0.68751 0.0
H2156 H 0.8579 0.4645 0.6804 0.0
H2157 H 0.82386 0.44342 0.68466 0.0
H2158 H 0.81434 0.46531 0.69155 0.0
H2159 H 0.81065 0.44547 0.70574 0.0
H2160 H 0.84487 0.47246 0.76494 0.0
H2161 H 0.82968 0.50196 0.76878 0.0
H2162 H 0.82244 0.4973 0.71218 0.0
C2163 C 0.85502 0.43073 0.7036 0.0
C2164 C 0.86234 0.41764 0.71337 0.0
C2165 C 0.86224 0.42132 0.73215 0.0
C2166 C 0.856 0.43789 0.74087 0.0
C2167 C 0.84945 0.45072 0.73083 0.0
C2168 C 0.84853 0.44714 0.71264 0.0
C2169 C 0.83994 0.46282 0.70512 0.0
C2170 C 0.85449 0.47429 0.69215 0.0
C2171 C 0.82108 0.45371 0.69624 0.0
C2172 C 0.83623 0.47568 0.7219 0.0
C2173 C 0.84206 0.4686 0.73657 0.0
C2174 C 0.84019 0.4781 0.75352 0.0
C2175 C 0.83169 0.49497 0.75559 0.0
C2176 C 0.82491 0.50205 0.74083 0.0
C2177 C 0.8275 0.49232 0.72376 0.0
H2178 H 0.17429 0.32481 0.71043 0.0
H2179 H 0.19967 0.38317 0.73243 0.0
H2180 H 0.16867 0.38661 0.74778 0.0
H2181 H 0.125 0.33334 0.70675 0.0
H2182 H 0.11418 0.30963 0.71397 0.0
H2183 H 0.13737 0.31292 0.70208 0.0
H2184 H 0.15199 0.29959 0.72771 0.0
H2185 H 0.12888 0.2962 0.73961 0.0
H2186 H 0.14957 0.31091 0.74992 0.0
H2187 H 0.13592 0.38281 0.76302 0.0
H2188 H 0.10481 0.37092 0.77877 0.0
H2189 H 0.10162 0.31418 0.74884 0.0
C2190 C 0.17339 0.3384 0.71835 0.0
C2191 C 0.18952 0.35381 0.71988 0.0
C2192 C 0.1875 0.37133 0.73045 0.0
C2193 C 0.16991 0.37342 0.73936 0.0
C2194 C 0.15445 0.35784 0.73776 0.0
C2195 C 0.15605 0.3406 0.72763 0.0
C2196 C 0.13796 0.32527 0.72971 0.0
C2197 C 0.12804 0.31999 0.71207 0.0
C2198 C 0.14237 0.30692 0.73719 0.0
C2199 C 0.1262 0.33639 0.74301 0.0
C2200 C 0.13579 0.35531 0.74718 0.0
C2201 C 0.12818 0.36809 0.75975 0.0
C2202 C 0.11049 0.36121 0.76861 0.0
C2203 C 0.10082 0.34163 0.76505 0.0
C2204 C 0.10864 0.32925 0.75181 0.0
H2205 H 0.92205 0.69928 0.67805 0.0
H2206 H 0.90791 0.75675 0.67474 0.0
H2207 H 0.9375 0.77207 0.6898 0.0
H2208 H 0.93824 0.70911 0.72175 0.0
H2209 H 0.95686 0.69458 0.7177 0.0
H2210 H 0.93555 0.68854 0.70523 0.0
H2211 H 0.95681 0.69087 0.67599 0.0
H2212 H 0.9782 0.69714 0.6884 0.0
H2213 H 0.97383 0.7131 0.67242 0.0
H2214 H 0.96852 0.78107 0.70656 0.0
H2215 H 0.99611 0.78239 0.72531 0.0
H2216 H 0.98846 0.71893 0.71869 0.0
C2217 C 0.925 0.71509 0.68054 0.0
C2218 C 0.9125 0.72673 0.67505 0.0
C2219 C 0.91731 0.74743 0.67844 0.0
C2220 C 0.9341 0.7563 0.68708 0.0
C2221 C 0.946 0.74434 0.69234 0.0
C2222 C 0.94153 0.72416 0.68929 0.0
C2223 C 0.95596 0.71442 0.69717 0.0
C2224 C 0.94606 0.70087 0.7113 0.0
C2225 C 0.96684 0.70322 0.68262 0.0
C2226 C 0.96911 0.73223 0.70538 0.0
C2227 C 0.96337 0.74941 0.70226 0.0
C2228 C 0.97317 0.76768 0.70899 0.0
C2229 C 0.98891 0.76833 0.71952 0.0
C2230 C 0.99448 0.75079 0.7234 0.0
C2231 C 0.9846 0.73261 0.71592 0.0
H2232 H 0.73697 0.23454 0.64329 0.0
H2233 H 0.72165 0.1747 0.62014 0.0
H2234 H 0.72955 0.18615 0.5902 0.0
H2235 H 0.71996 0.25886 0.60833 0.0
H2236 H 0.73996 0.27919 0.60922 0.0
H2237 H 0.73163 0.2667 0.62883 0.0
H2238 H 0.7659 0.26 0.63212 0.0
H2239 H 0.77435 0.27271 0.61271 0.0
H2240 H 0.77781 0.24788 0.61373 0.0
H2241 H 0.74044 0.2035 0.56313 0.0
H2242 H 0.75729 0.225 0.54072 0.0
H2243 H 0.76636 0.27395 0.58079 0.0
C2244 C 0.73514 0.22392 0.63187 0.0
C2245 C 0.72863 0.20371 0.63398 0.0
C2246 C 0.72671 0.1902 0.61879 0.0
C2247 C 0.73098 0.1966 0.60175 0.0
C2248 C 0.73728 0.2166 0.60009 0.0
C2249 C 0.73962 0.23006 0.61472 0.0
C2250 C 0.74817 0.25047 0.60924 0.0
C2251 C 0.73408 0.26464 0.6142 0.0
C2252 C 0.76772 0.25822 0.61744 0.0
C2253 C 0.75052 0.24632 0.58926 0.0
C2254 C 0.74381 0.22671 0.58431 0.0
C2255 C 0.74548 0.21893 0.5668 0.0
C2256 C 0.75493 0.23127 0.55413 0.0
C2257 C 0.76257 0.25121 0.55894 0.0
C2258 C 0.75992 0.25897 0.57666 0.0
H2259 H 0.32836 0.23313 0.62297 0.0
H2260 H 0.38745 0.226 0.61024 0.0
H2261 H 0.38714 0.24065 0.58201 0.0
H2262 H 0.31217 0.2246 0.57645 0.0
H2263 H 0.29735 0.24313 0.58013 0.0
H2264 H 0.30113 0.22945 0.59815 0.0
H2265 H 0.31359 0.26194 0.61674 0.0
H2266 H 0.30998 0.27568 0.59879 0.0
H2267 H 0.33338 0.27922 0.60783 0.0
H2268 H 0.38199 0.25942 0.55718 0.0
H2269 H 0.3726 0.28181 0.53759 0.0
H2270 H 0.31669 0.27712 0.56587 0.0
C2271 C 0.34104 0.23425 0.614 0.0
C2272 C 0.3579 0.2284 0.61875 0.0
C2273 C 0.37438 0.23041 0.6069 0.0
C2274 C 0.37431 0.23861 0.59076 0.0
C2275 C 0.35761 0.24464 0.58661 0.0
C2276 C 0.34123 0.24251 0.59783 0.0
C2277 C 0.32585 0.25187 0.59093 0.0
C2278 C 0.30807 0.23633 0.58613 0.0
C2279 C 0.32039 0.26814 0.60438 0.0
C2280 C 0.33642 0.26025 0.57448 0.0
C2281 C 0.3546 0.25559 0.57212 0.0
C2282 C 0.36768 0.26289 0.55871 0.0
C2283 C 0.36222 0.27565 0.54768 0.0
C2284 C 0.34387 0.28107 0.55011 0.0
C2285 C 0.33064 0.27287 0.56344 0.0
H2286 H 0.34771 0.84496 0.66798 0.0
H2287 H 0.34754 0.9061 0.66126 0.0
H2288 H 0.32881 0.89625 0.63481 0.0
H2289 H 0.35201 0.82944 0.62002 0.0
H2290 H 0.3364 0.80601 0.62207 0.0
H2291 H 0.35054 0.81762 0.64031 0.0
H2292 H 0.31955 0.8155 0.66082 0.0
H2293 H 0.30533 0.80397 0.64263 0.0
H2294 H 0.29986 0.82602 0.65464 0.0
H2295 H 0.3083 0.88034 0.61037 0.0
H2296 H 0.28876 0.85905 0.58797 0.0
H2297 H 0.30244 0.80767 0.60851 0.0
C2298 C 0.34395 0.85626 0.66078 0.0
C2299 C 0.34895 0.87638 0.66702 0.0
C2300 C 0.34362 0.89062 0.65713 0.0
C2301 C 0.33302 0.88517 0.64196 0.0
C2302 C 0.32789 0.86534 0.63647 0.0
C2303 C 0.33331 0.85104 0.64538 0.0
C2304 C 0.32552 0.83074 0.63653 0.0
C2305 C 0.34211 0.82033 0.6293 0.0
C2306 C 0.31175 0.81833 0.64943 0.0
C2307 C 0.31473 0.83595 0.62148 0.0
C2308 C 0.31633 0.85605 0.62182 0.0
C2309 C 0.30708 0.86459 0.60987 0.0
C2310 C 0.29589 0.85235 0.59724 0.0
C2311 C 0.29403 0.83169 0.59639 0.0
C2312 C 0.30377 0.82342 0.60866 0.0
H2313 H 0.7346 0.84522 0.6144 0.0
H2314 H 0.78452 0.87652 0.64176 0.0
H2315 H 0.80456 0.87502 0.61374 0.0
H2316 H 0.75877 0.81237 0.58719 0.0
H2317 H 0.74494 0.81233 0.56815 0.0
H2318 H 0.73447 0.81694 0.59008 0.0
H2319 H 0.72723 0.84981 0.58146 0.0
H2320 H 0.73772 0.8453 0.55948 0.0
H2321 H 0.74655 0.8677 0.57269 0.0
H2322 H 0.81938 0.86864 0.58286 0.0
H2323 H 0.82783 0.85706 0.55199 0.0
H2324 H 0.76791 0.83068 0.54511 0.0
C2325 C 0.7497 0.85189 0.61449 0.0
C2326 C 0.75806 0.86102 0.63021 0.0
C2327 C 0.77789 0.86948 0.62979 0.0
C2328 C 0.78935 0.86874 0.61396 0.0
C2329 C 0.7807 0.85955 0.59868 0.0
C2330 C 0.76132 0.85129 0.59883 0.0
C2331 C 0.75566 0.84163 0.58079 0.0
C2332 C 0.74802 0.81951 0.58161 0.0
C2333 C 0.74092 0.85172 0.57316 0.0
C2334 C 0.77493 0.84546 0.57054 0.0
C2335 C 0.78919 0.85593 0.581 0.0
C2336 C 0.80828 0.86057 0.57449 0.0
C2337 C 0.81294 0.85404 0.55691 0.0
C2338 C 0.79857 0.84289 0.54611 0.0
C2339 C 0.77929 0.83895 0.55303 0.0
H2340 H 0.71498 0.81294 0.38615 0.0
H2341 H 0.6981 0.86028 0.42131 0.0
H2342 H 0.70945 0.84689 0.44678 0.0
H2343 H 0.70415 0.77434 0.41717 0.0
H2344 H 0.72522 0.76413 0.40988 0.0
H2345 H 0.71386 0.77608 0.39465 0.0
H2346 H 0.74624 0.79949 0.38832 0.0
H2347 H 0.75768 0.78754 0.40342 0.0
H2348 H 0.75871 0.81367 0.40655 0.0
H2349 H 0.72395 0.82951 0.46811 0.0
H2350 H 0.74331 0.81115 0.48355 0.0
H2351 H 0.75228 0.77569 0.43451 0.0
C2352 C 0.71336 0.82022 0.39928 0.0
C2353 C 0.70538 0.83745 0.4019 0.0
C2354 C 0.70402 0.84696 0.41913 0.0
C2355 C 0.71036 0.83942 0.43366 0.0
C2356 C 0.71825 0.82247 0.4307 0.0
C2357 C 0.72 0.81308 0.41392 0.0
C2358 C 0.73066 0.79617 0.41419 0.0
C2359 C 0.7177 0.77651 0.40865 0.0
C2360 C 0.74943 0.79942 0.40243 0.0
C2361 C 0.73477 0.79766 0.43368 0.0
C2362 C 0.72723 0.81276 0.44298 0.0
C2363 C 0.72982 0.81756 0.461 0.0
C2364 C 0.74082 0.807 0.46967 0.0
C2365 C 0.74928 0.79188 0.46031 0.0
C2366 C 0.74581 0.78694 0.44214 0.0
H2367 H 0.74275 0.19438 0.39449 0.0
H2368 H 0.73847 0.25008 0.37535 0.0
H2369 H 0.75415 0.26751 0.4018 0.0
H2370 H 0.73376 0.2079 0.4407 0.0
H2371 H 0.75083 0.19467 0.4481 0.0
H2372 H 0.73924 0.18643 0.42766 0.0
H2373 H 0.77256 0.1881 0.41087 0.0
H2374 H 0.78427 0.19634 0.43127 0.0
H2375 H 0.7899 0.21069 0.41243 0.0
H2376 H 0.77008 0.27911 0.43055 0.0
H2377 H 0.78515 0.28396 0.45934 0.0
H2378 H 0.78003 0.22099 0.4599 0.0
C2379 C 0.74526 0.21026 0.39572 0.0
C2380 C 0.73917 0.22077 0.3827 0.0
C2381 C 0.74259 0.24156 0.38514 0.0
C2382 C 0.75166 0.25165 0.40011 0.0
C2383 C 0.75739 0.24085 0.41264 0.0
C2384 C 0.75438 0.22061 0.4106 0.0
C2385 C 0.76189 0.21255 0.42611 0.0
C2386 C 0.74545 0.19962 0.43624 0.0
C2387 C 0.77812 0.20125 0.41979 0.0
C2388 C 0.76955 0.23141 0.4372 0.0
C2389 C 0.76677 0.24755 0.42916 0.0
C2390 C 0.77231 0.26656 0.43695 0.0
C2391 C 0.78078 0.26917 0.4534 0.0
C2392 C 0.78377 0.2529 0.46202 0.0
C2393 C 0.77816 0.23376 0.45363 0.0
H2394 H 0.35948 0.24992 0.40765 0.0
H2395 H 0.37061 0.29598 0.37169 0.0
H2396 H 0.37194 0.32099 0.39734 0.0
H2397 H 0.32841 0.27195 0.4382 0.0
H2398 H 0.3369 0.26348 0.45736 0.0
H2399 H 0.33807 0.24964 0.43618 0.0
H2400 H 0.37476 0.25163 0.4386 0.0
H2401 H 0.3737 0.26557 0.45978 0.0
H2402 H 0.39016 0.27527 0.4422 0.0
H2403 H 0.37072 0.34081 0.42744 0.0
H2404 H 0.3654 0.35329 0.45876 0.0
H2405 H 0.35539 0.29378 0.47423 0.0
C2406 C 0.36235 0.26529 0.40519 0.0
C2407 C 0.365 0.27107 0.38779 0.0
C2408 C 0.36857 0.29127 0.38498 0.0
C2409 C 0.36942 0.30555 0.39946 0.0
C2410 C 0.3667 0.29931 0.41654 0.0
C2411 C 0.3632 0.27962 0.4194 0.0
C2412 C 0.3599 0.27653 0.43887 0.0
C2413 C 0.33962 0.26471 0.44288 0.0
C2414 C 0.37557 0.26667 0.44523 0.0
C2415 C 0.36179 0.29754 0.44659 0.0
C2416 C 0.3659 0.31055 0.4336 0.0
C2417 C 0.36765 0.33074 0.43771 0.0
C2418 C 0.36472 0.33771 0.45552 0.0
C2419 C 0.35993 0.32448 0.46887 0.0
C2420 C 0.35887 0.30422 0.46428 0.0
H2421 H 0.32565 0.80273 0.41568 0.0
H2422 H 0.34563 0.86225 0.43782 0.0
H2423 H 0.33875 0.85133 0.46809 0.0
H2424 H 0.28639 0.79117 0.44824 0.0
H2425 H 0.28921 0.76605 0.4485 0.0
H2426 H 0.29606 0.77866 0.42877 0.0
H2427 H 0.33031 0.77057 0.42877 0.0
H2428 H 0.32362 0.75815 0.44865 0.0
H2429 H 0.34417 0.77787 0.44811 0.0
H2430 H 0.33011 0.8336 0.49605 0.0
H2431 H 0.31712 0.81146 0.51932 0.0
H2432 H 0.30223 0.76358 0.47882 0.0
C2433 C 0.32859 0.81345 0.42691 0.0
C2434 C 0.33624 0.83336 0.4244 0.0
C2435 C 0.33964 0.84698 0.43943 0.0
C2436 C 0.33593 0.84087 0.45666 0.0
C2437 C 0.32865 0.82109 0.45867 0.0
C2438 C 0.32476 0.80764 0.44419 0.0
C2439 C 0.31625 0.78739 0.44994 0.0
C2440 C 0.29576 0.78042 0.44348 0.0
C2441 C 0.32938 0.77263 0.44348 0.0
C2442 C 0.316 0.79152 0.46992 0.0
C2443 C 0.32338 0.81099 0.4747 0.0
C2444 C 0.32431 0.81832 0.49244 0.0
C2445 C 0.31699 0.80557 0.50559 0.0
C2446 C 0.30868 0.7857 0.50099 0.0
C2447 C 0.30861 0.7786 0.48287 0.0
H2448 H 0.67012 0.17766 0.69545 0.0
H2449 H 0.70242 0.23619 0.68872 0.0
H2450 H 0.67715 0.25036 0.70675 0.0
H2451 H 0.62354 0.18929 0.69196 0.0
H2452 H 0.61175 0.17322 0.70828 0.0
H2453 H 0.63275 0.16765 0.69553 0.0
H2454 H 0.6496 0.1665 0.72451 0.0
H2455 H 0.62863 0.17205 0.73735 0.0
H2456 H 0.65186 0.18732 0.74077 0.0
H2457 H 0.64839 0.25813 0.72542 0.0
H2458 H 0.61784 0.25921 0.7426 0.0
H2459 H 0.60335 0.19555 0.73619 0.0
C2460 C 0.67197 0.19345 0.69797 0.0
C2461 C 0.68828 0.20585 0.69076 0.0
C2462 C 0.69001 0.22644 0.69406 0.0
C2463 C 0.67577 0.23461 0.70433 0.0
C2464 C 0.65982 0.22199 0.71115 0.0
C2465 C 0.65778 0.20186 0.70806 0.0
C2466 C 0.63889 0.19163 0.7164 0.0
C2467 C 0.62597 0.17975 0.7022 0.0
C2468 C 0.64247 0.1786 0.7306 0.0
C2469 C 0.63062 0.20916 0.72465 0.0
C2470 C 0.64298 0.22651 0.72154 0.0
C2471 C 0.63854 0.24463 0.72785 0.0
C2472 C 0.62098 0.24507 0.73753 0.0
C2473 C 0.60784 0.22749 0.74076 0.0
C2474 C 0.61293 0.20931 0.73419 0.0
H2475 H 0.34997 0.16285 0.6765 0.0
H2476 H 0.35686 0.20606 0.72175 0.0
H2477 H 0.33574 0.18261 0.7403 0.0
H2478 H 0.29919 0.14015 0.68777 0.0
H2479 H 0.30311 0.11581 0.68029 0.0
H2480 H 0.31691 0.13673 0.67007 0.0
H2481 H 0.34851 0.12612 0.67707 0.0
H2482 H 0.33484 0.10527 0.68739 0.0
H2483 H 0.3525 0.12252 0.69962 0.0
H2484 H 0.31645 0.15376 0.75452 0.0
H2485 H 0.29989 0.12144 0.76347 0.0
H2486 H 0.30568 0.09656 0.70919 0.0
C2487 C 0.34657 0.1675 0.69019 0.0
C2488 C 0.35491 0.18628 0.6977 0.0
C2489 C 0.35059 0.19172 0.71578 0.0
C2490 C 0.33858 0.17854 0.72639 0.0
C2491 C 0.33095 0.15996 0.71872 0.0
C2492 C 0.33468 0.15444 0.70102 0.0
C2493 C 0.32579 0.13312 0.69642 0.0
C2494 C 0.31033 0.13136 0.68283 0.0
C2495 C 0.34134 0.12105 0.68973 0.0
C2496 C 0.31686 0.12743 0.71437 0.0
C2497 C 0.31988 0.14319 0.727 0.0
C2498 C 0.31384 0.14135 0.74472 0.0
C2499 C 0.30457 0.1229 0.74971 0.0
C2500 C 0.30147 0.10645 0.73705 0.0
C2501 C 0.30753 0.10889 0.71911 0.0
H2502 H 0.43109 0.85458 0.71342 0.0
H2503 H 0.44273 0.91474 0.73667 0.0
H2504 H 0.47045 0.90804 0.75109 0.0
H2505 H 0.44552 0.83214 0.75123 0.0
H2506 H 0.45697 0.8145 0.73764 0.0
H2507 H 0.43714 0.8233 0.72953 0.0
H2508 H 0.45825 0.83418 0.70172 0.0
H2509 H 0.47812 0.82541 0.70975 0.0
H2510 H 0.48109 0.85048 0.70438 0.0
H2511 H 0.49716 0.89596 0.76259 0.0
H2512 H 0.52243 0.87901 0.77022 0.0
H2513 H 0.49573 0.82619 0.73961 0.0
C2514 C 0.4394 0.86622 0.72169 0.0
C2515 C 0.43459 0.88524 0.72397 0.0
C2516 C 0.44603 0.9001 0.73472 0.0
C2517 C 0.46184 0.89644 0.74303 0.0
C2518 C 0.46634 0.87777 0.7405 0.0
C2519 C 0.45559 0.86283 0.7301 0.0
C2520 C 0.46438 0.84433 0.72929 0.0
C2521 C 0.45015 0.82757 0.73741 0.0
C2522 C 0.47084 0.83824 0.71015 0.0
C2523 C 0.48168 0.85138 0.74074 0.0
C2524 C 0.48232 0.87072 0.74707 0.0
C2525 C 0.49686 0.88081 0.75768 0.0
C2526 C 0.5113 0.87104 0.76186 0.0
C2527 C 0.51138 0.85126 0.75545 0.0
C2528 C 0.49612 0.84125 0.74486 0.0
H2529 H 0.72087 0.90831 0.69021 0.0
H2530 H 0.70054 0.86573 0.72867 0.0
H2531 H 0.70707 0.89194 0.75297 0.0
H2532 H 0.75992 0.93562 0.71481 0.0
H2533 H 0.7571 0.95895 0.70801 0.0
H2534 H 0.75012 0.93691 0.69377 0.0
H2535 H 0.71584 0.94475 0.69309 0.0
H2536 H 0.72269 0.96675 0.70743 0.0
H2537 H 0.70215 0.94863 0.71364 0.0
H2538 H 0.71655 0.92285 0.77309 0.0
H2539 H 0.72951 0.9556 0.78739 0.0
H2540 H 0.74358 0.97767 0.73562 0.0
C2541 C 0.71794 0.90443 0.70373 0.0
C2542 C 0.71018 0.88495 0.70753 0.0
C2543 C 0.70627 0.88059 0.72543 0.0
C2544 C 0.70998 0.89536 0.73932 0.0
C2545 C 0.71757 0.91442 0.73509 0.0
C2546 C 0.72157 0.91895 0.71773 0.0
C2547 C 0.73009 0.94046 0.71672 0.0
C2548 C 0.75052 0.94313 0.70781 0.0
C2549 C 0.7169 0.95075 0.70715 0.0
C2550 C 0.73046 0.94729 0.73623 0.0
C2551 C 0.72306 0.93211 0.74663 0.0
C2552 C 0.72228 0.93487 0.76507 0.0
C2553 C 0.72956 0.95357 0.77308 0.0
C2554 C 0.73759 0.96924 0.76264 0.0
C2555 C 0.73772 0.96599 0.74398 0.0
H2556 H 0.62851 0.82808 0.34929 0.0
H2557 H 0.65842 0.83732 0.29803 0.0
H2558 H 0.62749 0.82801 0.28357 0.0
H2559 H 0.59333 0.7853 0.33364 0.0
H2560 H 0.57427 0.7921 0.34853 0.0
H2561 H 0.59893 0.79899 0.35458 0.0
H2562 H 0.59481 0.83533 0.35934 0.0
H2563 H 0.57028 0.8286 0.35288 0.0
H2564 H 0.58707 0.84667 0.34143 0.0
H2565 H 0.5931 0.81935 0.27482 0.0
H2566 H 0.55817 0.80745 0.27201 0.0
H2567 H 0.55089 0.80314 0.32883 0.0
C2568 C 0.6286 0.82773 0.33499 0.0
C2569 C 0.64586 0.83358 0.32481 0.0
C2570 C 0.64532 0.83315 0.30613 0.0
C2571 C 0.62784 0.82791 0.29778 0.0
C2572 C 0.611 0.82296 0.30828 0.0
C2573 C 0.61126 0.82245 0.32642 0.0
C2574 C 0.59114 0.81637 0.3346 0.0
C2575 C 0.58931 0.79704 0.34335 0.0
C2576 C 0.5855 0.83272 0.34784 0.0
C2577 C 0.57955 0.81363 0.31823 0.0
C2578 C 0.59124 0.81768 0.3032 0.0
C2579 C 0.58379 0.8161 0.28649 0.0
C2580 C 0.56391 0.80953 0.28505 0.0
C2581 C 0.55181 0.80447 0.30021 0.0
C2582 C 0.55976 0.80699 0.31701 0.0
H2583 H 0.72849 0.16801 0.30762 0.0
H2584 H 0.73758 0.15493 0.36083 0.0
H2585 H 0.7508 0.12603 0.34858 0.0
H2586 H 0.71277 0.11701 0.29128 0.0
H2587 H 0.72399 0.12037 0.26945 0.0
H2588 H 0.71585 0.14057 0.28241 0.0
H2589 H 0.75009 0.16146 0.27896 0.0
H2590 H 0.75839 0.14121 0.2662 0.0
H2591 H 0.77039 0.15238 0.2858 0.0
H2592 H 0.7642 0.0984 0.33036 0.0
H2593 H 0.77231 0.07247 0.30788 0.0
H2594 H 0.7527 0.10206 0.26689 0.0
C2595 C 0.73308 0.15902 0.31675 0.0
C2596 C 0.73233 0.16433 0.33528 0.0
C2597 C 0.73852 0.15185 0.34658 0.0
C2598 C 0.74601 0.1352 0.33975 0.0
C2599 C 0.74705 0.13074 0.32148 0.0
C2600 C 0.74042 0.14209 0.31015 0.0
C2601 C 0.74241 0.13352 0.29108 0.0
C2602 C 0.72258 0.12751 0.28309 0.0
C2603 C 0.75614 0.14801 0.27985 0.0
C2604 C 0.75115 0.11567 0.2935 0.0
C2605 C 0.75397 0.11444 0.31112 0.0
C2606 C 0.76198 0.09921 0.31652 0.0
C2607 C 0.76671 0.0846 0.30365 0.0
C2608 C 0.7632 0.08516 0.28561 0.0
C2609 C 0.75558 0.10114 0.28058 0.0
H2610 H 0.40474 0.21074 0.30094 0.0
H2611 H 0.38737 0.26484 0.2907 0.0
H2612 H 0.41553 0.27184 0.26951 0.0
H2613 H 0.45235 0.22939 0.303 0.0
H2614 H 0.46103 0.20809 0.29269 0.0
H2615 H 0.43765 0.20532 0.30402 0.0
H2616 H 0.4221 0.18744 0.27562 0.0
H2617 H 0.44552 0.19008 0.26416 0.0
H2618 H 0.42633 0.19909 0.25515 0.0
H2619 H 0.44773 0.27554 0.25363 0.0
H2620 H 0.48207 0.27615 0.24481 0.0
H2621 H 0.47865 0.21954 0.26501 0.0
C2622 C 0.40644 0.22366 0.29368 0.0
C2623 C 0.39376 0.23712 0.29719 0.0
C2624 C 0.39688 0.2543 0.28806 0.0
C2625 C 0.41273 0.2583 0.27594 0.0
C2626 C 0.42524 0.24493 0.27309 0.0
C2627 C 0.42221 0.22789 0.28165 0.0
C2628 C 0.43903 0.21722 0.27811 0.0
C2629 C 0.44804 0.21489 0.29548 0.0
C2630 C 0.43287 0.19728 0.26763 0.0
C2631 C 0.45242 0.23138 0.26688 0.0
C2632 C 0.44401 0.24708 0.26387 0.0
C2633 C 0.45427 0.26311 0.25553 0.0
C2634 C 0.47373 0.26337 0.25062 0.0
C2635 C 0.48273 0.24774 0.25407 0.0
C2636 C 0.47182 0.2313 0.26179 0.0
H2637 H 0.31391 0.90617 0.37155 0.0
H2638 H 0.36858 0.9134 0.34098 0.0
H2639 H 0.35886 0.9388 0.32504 0.0
H2640 H 0.28476 0.913 0.3361 0.0
H2641 H 0.26944 0.92667 0.3501 0.0
H2642 H 0.28044 0.90883 0.35924 0.0
H2643 H 0.29567 0.9354 0.38294 0.0
H2644 H 0.28469 0.95331 0.37388 0.0
H2645 H 0.31037 0.95777 0.37602 0.0
H2646 H 0.34351 0.96292 0.312 0.0
H2647 H 0.32366 0.98545 0.30323 0.0
H2648 H 0.27878 0.96393 0.34236 0.0
C2649 C 0.32379 0.91313 0.3615 0.0
C2650 C 0.34204 0.90778 0.35746 0.0
C2651 C 0.35456 0.91727 0.34428 0.0
C2652 C 0.34917 0.93171 0.33512 0.0
C2653 C 0.33116 0.93667 0.33932 0.0
C2654 C 0.31864 0.92779 0.35223 0.0
C2655 C 0.30022 0.93621 0.35415 0.0
C2656 C 0.28268 0.92022 0.34962 0.0
C2657 C 0.29759 0.94627 0.37286 0.0
C2658 C 0.30441 0.95111 0.34031 0.0
C2659 C 0.32233 0.95099 0.3319 0.0
C2660 C 0.32945 0.9632 0.31852 0.0
C2661 C 0.31802 0.97595 0.3136 0.0
C2662 C 0.29962 0.97657 0.32208 0.0
C2663 C 0.29279 0.96391 0.33564 0.0
H2664 H 0.73214 0.13069 0.7023 0.0
H2665 H 0.78004 0.13414 0.66312 0.0
H2666 H 0.79228 0.10859 0.67713 0.0
H2667 H 0.75839 0.1245 0.73908 0.0
H2668 H 0.73893 0.10764 0.74897 0.0
H2669 H 0.73376 0.12566 0.73545 0.0
H2670 H 0.71378 0.09809 0.71542 0.0
H2671 H 0.71892 0.07998 0.72887 0.0
H2672 H 0.72474 0.0781 0.70534 0.0
H2673 H 0.79986 0.0831 0.69641 0.0
H2674 H 0.80188 0.0603 0.7191 0.0
H2675 H 0.74872 0.07361 0.74505 0.0
C2676 C 0.74515 0.12602 0.69659 0.0
C2677 C 0.75516 0.13441 0.68158 0.0
C2678 C 0.77215 0.12788 0.6746 0.0
C2679 C 0.7792 0.11337 0.68246 0.0
C2680 C 0.76906 0.10543 0.6973 0.0
C2681 C 0.75236 0.11153 0.70426 0.0
C2682 C 0.74432 0.10097 0.72046 0.0
C2683 C 0.74383 0.11556 0.73696 0.0
C2684 C 0.72425 0.08855 0.71733 0.0
C2685 C 0.75914 0.08812 0.72164 0.0
C2686 C 0.77331 0.09082 0.70818 0.0
C2687 C 0.78875 0.08081 0.70694 0.0
C2688 C 0.78979 0.06786 0.71987 0.0
C2689 C 0.77546 0.06503 0.73385 0.0
C2690 C 0.7599 0.07526 0.73452 0.0
H2691 H 0.6777 0.90067 0.32796 0.0
H2692 H 0.73068 0.8783 0.32899 0.0
H2693 H 0.7483 0.90668 0.31351 0.0
H2694 H 0.68561 0.91597 0.28494 0.0
H2695 H 0.67507 0.9376 0.28981 0.0
H2696 H 0.6671 0.91669 0.30243 0.0
H2697 H 0.67504 0.93838 0.3316 0.0
H2698 H 0.68278 0.95945 0.3191 0.0
H2699 H 0.69885 0.95285 0.33389 0.0
H2700 H 0.75937 0.93624 0.29581 0.0
H2701 H 0.76379 0.96602 0.27984 0.0
H2702 H 0.70302 0.9681 0.28965 0.0
C2703 C 0.69307 0.90186 0.32511 0.0
C2704 C 0.70286 0.8873 0.32962 0.0
C2705 C 0.72297 0.88942 0.3258 0.0
C2706 C 0.73303 0.90539 0.3169 0.0
C2707 C 0.72274 0.91908 0.31205 0.0
C2708 C 0.70324 0.91759 0.31624 0.0
C2709 C 0.69535 0.93385 0.30913 0.0
C2710 C 0.67987 0.92552 0.29578 0.0
C2711 C 0.68755 0.94691 0.32434 0.0
C2712 C 0.71341 0.94466 0.30006 0.0
C2713 C 0.72906 0.93594 0.30187 0.0
C2714 C 0.74722 0.94322 0.29438 0.0
C2715 C 0.74953 0.96008 0.28513 0.0
C2716 C 0.73373 0.96951 0.28341 0.0
C2717 C 0.71542 0.96143 0.29085 0.0
H2718 H 0.66052 0.20727 0.29192 0.0
H2719 H 0.66548 0.24091 0.34298 0.0
H2720 H 0.64072 0.25909 0.33544 0.0
H2721 H 0.65429 0.2469 0.26692 0.0
H2722 H 0.63733 0.23155 0.25257 0.0
H2723 H 0.65527 0.22124 0.26218 0.0
H2724 H 0.62846 0.19517 0.27561 0.0
H2725 H 0.61045 0.20542 0.26603 0.0
H2726 H 0.60916 0.203 0.28953 0.0
H2727 H 0.61469 0.274 0.32167 0.0
H2728 H 0.59086 0.28358 0.30329 0.0
H2729 H 0.60338 0.24006 0.26152 0.0
C2730 C 0.65638 0.21844 0.30154 0.0
C2731 C 0.66504 0.22257 0.31807 0.0
C2732 C 0.65916 0.23739 0.33023 0.0
C2733 C 0.64505 0.24783 0.32604 0.0
C2734 C 0.63682 0.24341 0.3096 0.0
C2735 C 0.64234 0.22903 0.29755 0.0
C2736 C 0.63147 0.22707 0.28075 0.0
C2737 C 0.64542 0.23198 0.26465 0.0
C2738 C 0.61915 0.20644 0.27782 0.0
C2739 C 0.61893 0.2425 0.28516 0.0
C2740 C 0.62215 0.25184 0.30184 0.0
C2741 C 0.61212 0.2667 0.30859 0.0
C2742 C 0.59856 0.27208 0.29806 0.0
C2743 C 0.59506 0.26266 0.2809 0.0
C2744 C 0.60553 0.24766 0.27455 0.0
H2745 H 0.3341 0.18435 0.30578 0.0
H2746 H 0.35737 0.19236 0.35786 0.0
H2747 H 0.34675 0.15705 0.36132 0.0
H2748 H 0.29178 0.14509 0.31685 0.0
H2749 H 0.29353 0.1321 0.29527 0.0
H2750 H 0.30055 0.15843 0.2978 0.0
H2751 H 0.33415 0.15571 0.28303 0.0
H2752 H 0.32729 0.12943 0.28051 0.0
H2753 H 0.3485 0.14066 0.2921 0.0
H2754 H 0.33881 0.12066 0.35708 0.0
H2755 H 0.33063 0.08546 0.34657 0.0
H2756 H 0.3107 0.10088 0.29815 0.0
C2757 C 0.33649 0.17869 0.31807 0.0
C2758 C 0.3464 0.19103 0.33162 0.0
C2759 C 0.34949 0.18318 0.34747 0.0
C2760 C 0.34359 0.16315 0.34952 0.0
C2761 C 0.33433 0.15126 0.33572 0.0
C2762 C 0.33042 0.15875 0.32044 0.0
C2763 C 0.32124 0.14258 0.30723 0.0
C2764 C 0.30054 0.14468 0.30411 0.0
C2765 C 0.33354 0.14207 0.28969 0.0
C2766 C 0.32142 0.12481 0.31716 0.0
C2767 C 0.329 0.13015 0.33359 0.0
C2768 C 0.3324 0.11628 0.34446 0.0
C2769 C 0.32787 0.09641 0.33838 0.0
C2770 C 0.31988 0.09069 0.32174 0.0
C2771 C 0.3164 0.10503 0.31112 0.0
H2772 H 0.38967 0.81934 0.38538 0.0
H2773 H 0.3557 0.82562 0.34161 0.0
H2774 H 0.37723 0.80907 0.32096 0.0
H2775 H 0.43527 0.82832 0.3624 0.0
H2776 H 0.44503 0.81051 0.3729 0.0
H2777 H 0.42646 0.82206 0.38437 0.0
H2778 H 0.40532 0.78796 0.38853 0.0
H2779 H 0.42386 0.77629 0.3771 0.0
H2780 H 0.39976 0.77085 0.36943 0.0
H2781 H 0.40339 0.79328 0.30485 0.0
H2782 H 0.43189 0.77877 0.29456 0.0
H2783 H 0.44845 0.78211 0.34883 0.0
C2784 C 0.38653 0.81693 0.3715 0.0
C2785 C 0.37097 0.82384 0.36514 0.0
C2786 C 0.36765 0.8207 0.3468 0.0
C2787 C 0.37973 0.81119 0.33497 0.0
C2788 C 0.39505 0.80478 0.34167 0.0
C2789 C 0.39843 0.80742 0.35952 0.0
C2790 C 0.41621 0.79961 0.36322 0.0
C2791 C 0.43165 0.81611 0.37119 0.0
C2792 C 0.41097 0.78267 0.37528 0.0
C2793 C 0.42242 0.79237 0.34463 0.0
C2794 C 0.41001 0.79548 0.3324 0.0
C2795 C 0.41314 0.79066 0.31432 0.0
C2796 C 0.42942 0.78254 0.30859 0.0
C2797 C 0.44239 0.77925 0.32087 0.0
C2798 C 0.43867 0.78412 0.33915 0.0
H2799 H 0.34579 0.9364 0.69954 0.0
H2800 H 0.36454 0.91632 0.74666 0.0
H2801 H 0.35441 0.94443 0.76461 0.0
H2802 H 0.3585 0.98829 0.71121 0.0
H2803 H 0.33739 0.9937 0.70225 0.0
H2804 H 0.34738 0.97279 0.69296 0.0
H2805 H 0.31444 0.94999 0.69844 0.0
H2806 H 0.30431 0.97085 0.70756 0.0
H2807 H 0.30292 0.95012 0.7204 0.0
H2808 H 0.3413 0.97528 0.77775 0.0
H2809 H 0.32427 1.0034 0.7846 0.0
H2810 H 0.31258 1.00137 0.72911 0.0
C2811 C 0.34766 0.93765 0.71365 0.0
C2812 C 0.35615 0.92391 0.7215 0.0
C2813 C 0.3585 0.92667 0.74007 0.0
C2814 C 0.35267 0.94261 0.75047 0.0
C2815 C 0.34434 0.95578 0.74224 0.0
C2816 C 0.34171 0.95329 0.72424 0.0
C2817 C 0.33155 0.9688 0.71862 0.0
C2818 C 0.34448 0.98165 0.70548 0.0
C2819 C 0.31216 0.95938 0.7108 0.0
C2820 C 0.32869 0.98034 0.73626 0.0
C2821 C 0.33638 0.97286 0.74975 0.0
C2822 C 0.33525 0.98121 0.76723 0.0
C2823 C 0.32566 0.99727 0.77102 0.0
C2824 C 0.31709 1.00464 0.75743 0.0
C2825 C 0.31896 0.99613 0.73984 0.0
H2826 H 0.66985 0.81753 0.70554 0.0
H2827 H 0.65516 0.83586 0.65618 0.0
H2828 H 0.6215 0.81863 0.66117 0.0
H2829 H 0.63494 0.7684 0.70369 0.0
H2830 H 0.63009 0.77104 0.72734 0.0
H2831 H 0.65357 0.78099 0.71787 0.0
H2832 H 0.65094 0.81517 0.73359 0.0
H2833 H 0.62754 0.80532 0.74298 0.0
H2834 H 0.63057 0.82607 0.7299 0.0
H2835 H 0.58861 0.80623 0.67492 0.0
H2836 H 0.55996 0.79825 0.69534 0.0
H2837 H 0.59648 0.78606 0.7348 0.0
C2838 C 0.65966 0.81724 0.6955 0.0
C2839 C 0.66498 0.82784 0.68045 0.0
C2840 C 0.65133 0.82754 0.66766 0.0
C2841 C 0.63221 0.81781 0.67041 0.0
C2842 C 0.62718 0.80811 0.6858 0.0
C2843 C 0.64065 0.80741 0.69795 0.0
C2844 C 0.63131 0.79796 0.71431 0.0
C2845 C 0.63787 0.77843 0.71589 0.0
C2846 C 0.63532 0.81197 0.73117 0.0
C2847 C 0.61034 0.79461 0.71001 0.0
C2848 C 0.6082 0.80029 0.69341 0.0
C2849 C 0.5901 0.80113 0.68768 0.0
C2850 C 0.57389 0.7966 0.69937 0.0
C2851 C 0.57592 0.79127 0.71657 0.0
C2852 C 0.59433 0.78955 0.72158 0.0
H2853 H 0.42336 0.19984 0.70221 0.0
H2854 H 0.42313 0.25693 0.68404 0.0
H2855 H 0.4544 0.26984 0.69743 0.0
H2856 H 0.44237 0.21719 0.74399 0.0
H2857 H 0.45658 0.19831 0.74398 0.0
H2858 H 0.43482 0.19359 0.73214 0.0
H2859 H 0.45401 0.18397 0.70333 0.0
H2860 H 0.47585 0.1887 0.71508 0.0
H2861 H 0.47464 0.201 0.69547 0.0
H2862 H 0.48529 0.27675 0.7144 0.0
H2863 H 0.51272 0.27678 0.73298 0.0
H2864 H 0.49198 0.21502 0.7396 0.0
C2865 C 0.42984 0.21508 0.70106 0.0
C2866 C 0.42076 0.22739 0.69211 0.0
C2867 C 0.42991 0.24717 0.69069 0.0
C2868 C 0.44763 0.25465 0.69831 0.0
C2869 C 0.45607 0.24212 0.70721 0.0
C2870 C 0.44746 0.22273 0.70853 0.0
C2871 C 0.45915 0.21233 0.71907 0.0
C2872 C 0.44753 0.20493 0.73579 0.0
C2873 C 0.46634 0.19551 0.70754 0.0
C2874 C 0.47559 0.22893 0.72371 0.0
C2875 C 0.47368 0.24601 0.71674 0.0
C2876 C 0.48697 0.26339 0.7198 0.0
C2877 C 0.50251 0.26328 0.73036 0.0
C2878 C 0.50457 0.24591 0.73771 0.0
C2879 C 0.49095 0.22855 0.73413 0.0
H2880 H 0.69076 0.7614 0.1572 0.0
H2881 H 0.68982 0.69997 0.14045 0.0
H2882 H 0.70035 0.70859 0.11002 0.0
H2883 H 0.67442 0.77496 0.11585 0.0
H2884 H 0.69022 0.79855 0.11692 0.0
H2885 H 0.68108 0.78744 0.13704 0.0
H2886 H 0.71596 0.79032 0.14662 0.0
H2887 H 0.72519 0.80139 0.12654 0.0
H2888 H 0.73313 0.77971 0.132 0.0
H2889 H 0.71275 0.72394 0.08187 0.0
H2890 H 0.72661 0.74497 0.05805 0.0
H2891 H 0.72011 0.79667 0.0929 0.0
C2892 C 0.69238 0.74974 0.14703 0.0
C2893 C 0.68935 0.72997 0.15119 0.0
C2894 C 0.6921 0.71519 0.13759 0.0
C2895 C 0.698 0.71995 0.12025 0.0
C2896 C 0.70115 0.73958 0.11665 0.0
C2897 C 0.69843 0.75426 0.12963 0.0
C2898 C 0.70392 0.7743 0.12245 0.0
C2899 C 0.68636 0.78441 0.12311 0.0
C2900 C 0.72054 0.78718 0.1325 0.0
C2901 C 0.71036 0.76861 0.10347 0.0
C2902 C 0.70851 0.74848 0.1004 0.0
C2903 C 0.71417 0.73971 0.08411 0.0
C2904 C 0.72213 0.75179 0.07067 0.0
C2905 C 0.72448 0.7725 0.07352 0.0
C2906 C 0.71824 0.78092 0.09014 0.0
H2907 H 0.31701 0.72289 0.12658 0.0
H2908 H 0.32982 0.66948 0.09818 0.0
H2909 H 0.32093 0.68017 0.07025 0.0
H2910 H 0.27503 0.72354 0.10325 0.0
H2911 H 0.27899 0.74988 0.10333 0.0
H2912 H 0.28788 0.73878 0.12073 0.0
H2913 H 0.32227 0.75796 0.11378 0.0
H2914 H 0.31349 0.769 0.09624 0.0
H2915 H 0.33301 0.7557 0.0916 0.0
H2916 H 0.31045 0.69652 0.04546 0.0
H2917 H 0.29542 0.71521 0.02621 0.0
H2918 H 0.28745 0.75725 0.07089 0.0
C2919 C 0.31812 0.71358 0.11443 0.0
C2920 C 0.32434 0.69545 0.11444 0.0
C2921 C 0.32518 0.68344 0.09839 0.0
C2922 C 0.32026 0.68945 0.08247 0.0
C2923 C 0.31425 0.70742 0.08284 0.0
C2924 C 0.31288 0.71919 0.09844 0.0
C2925 C 0.3046 0.73709 0.09538 0.0
C2926 C 0.28549 0.73732 0.10632 0.0
C2927 C 0.31922 0.75606 0.09949 0.0
C2928 C 0.30143 0.73347 0.07568 0.0
C2929 C 0.30741 0.71644 0.06866 0.0
C2930 C 0.30573 0.70988 0.05081 0.0
C2931 C 0.29723 0.72068 0.03994 0.0
C2932 C 0.29023 0.73776 0.04697 0.0
C2933 C 0.29272 0.74434 0.06505 0.0
H2934 H 0.33364 0.35285 0.17835 0.0
H2935 H 0.39293 0.36706 0.15787 0.0
H2936 H 0.38307 0.35255 0.12815 0.0
H2937 H 0.32212 0.30635 0.15314 0.0
H2938 H 0.29781 0.30884 0.14969 0.0
H2939 H 0.30952 0.32091 0.16912 0.0
H2940 H 0.30296 0.35421 0.16097 0.0
H2941 H 0.29134 0.34224 0.14144 0.0
H2942 H 0.3112 0.3625 0.13949 0.0
H2943 H 0.3666 0.33627 0.10048 0.0
H2944 H 0.34546 0.31742 0.07786 0.0
H2945 H 0.2969 0.31346 0.11646 0.0
C2946 C 0.34453 0.35305 0.16758 0.0
C2947 C 0.36409 0.36119 0.17048 0.0
C2948 C 0.37791 0.36081 0.15605 0.0
C2949 C 0.37241 0.35272 0.13908 0.0
C2950 C 0.35302 0.34493 0.13667 0.0
C2951 C 0.33931 0.34489 0.15058 0.0
C2952 C 0.31955 0.33491 0.14464 0.0
C2953 C 0.3118 0.31667 0.15475 0.0
C2954 C 0.30543 0.34933 0.14676 0.0
C2955 C 0.32426 0.32929 0.12524 0.0
C2956 C 0.34361 0.33535 0.12086 0.0
C2957 C 0.35141 0.3315 0.10378 0.0
C2958 C 0.33924 0.32083 0.09097 0.0
C2959 C 0.31943 0.31396 0.09525 0.0
C2960 C 0.3119 0.31859 0.11262 0.0
H2961 H 0.77408 0.3452 0.16926 0.0
H2962 H 0.82988 0.37255 0.1884 0.0
H2963 H 0.84013 0.38392 0.15861 0.0
H2964 H 0.7909 0.32779 0.12725 0.0
H2965 H 0.77076 0.33201 0.11589 0.0
H2966 H 0.76774 0.32728 0.1389 0.0
H2967 H 0.75505 0.35982 0.14656 0.0
H2968 H 0.75807 0.3647 0.12355 0.0
H2969 H 0.76952 0.38251 0.14016 0.0
H2970 H 0.84443 0.39098 0.1262 0.0
H2971 H 0.84331 0.39087 0.09369 0.0
H2972 H 0.78423 0.35964 0.09661 0.0
C2973 C 0.7883 0.35398 0.16733 0.0
C2974 C 0.80108 0.35848 0.18119 0.0
C2975 C 0.81986 0.3692 0.17792 0.0
C2976 C 0.82573 0.37578 0.16112 0.0
C2977 C 0.81262 0.37139 0.14779 0.0
C2978 C 0.79433 0.36063 0.15073 0.0
C2979 C 0.78331 0.35682 0.13404 0.0
C2980 C 0.77787 0.33467 0.12871 0.0
C2981 C 0.76543 0.36655 0.13621 0.0
C2982 C 0.79834 0.36686 0.12112 0.0
C2983 C 0.8151 0.37536 0.12928 0.0
C2984 C 0.8313 0.38457 0.11972 0.0
C2985 C 0.8305 0.38458 0.10128 0.0
C2986 C 0.81367 0.37529 0.09263 0.0
C2987 C 0.79729 0.36684 0.10285 0.0
H2988 H 0.74686 0.39485 0.93122 0.0
H2989 H 0.70478 0.34151 0.92184 0.0
H2990 H 0.71636 0.32768 0.94708 0.0
H2991 H 0.78487 0.37176 0.94184 0.0
H2992 H 0.79392 0.3909 0.95846 0.0
H2993 H 0.78163 0.39656 0.94022 0.0
H2994 H 0.75754 0.41136 0.96233 0.0
H2995 H 0.76972 0.40567 0.98065 0.0
H2996 H 0.74425 0.39666 0.979 0.0
H2997 H 0.73341 0.31973 0.97366 0.0
H2998 H 0.75498 0.318 0.99762 0.0
H2999 H 0.78577 0.37656 0.9886 0.0
C3000 C 0.74001 0.38029 0.93453 0.0
C3001 C 0.7249 0.36929 0.92463 0.0
C3002 C 0.71638 0.35022 0.92927 0.0
C3003 C 0.72285 0.34227 0.94361 0.0
C3004 C 0.73785 0.35356 0.95313 0.0
C3005 C 0.74634 0.37215 0.94867 0.0
C3006 C 0.7626 0.38115 0.96048 0.0
C3007 C 0.78189 0.38533 0.9496 0.0
C3008 C 0.75826 0.39981 0.97125 0.0
C3009 C 0.76208 0.36474 0.97227 0.0
C3010 C 0.74765 0.34896 0.96799 0.0
C3011 C 0.74471 0.33205 0.97711 0.0
C3012 C 0.75698 0.3312 0.99074 0.0
C3013 C 0.77208 0.34712 0.99501 0.0
C3014 C 0.7744 0.36411 0.9857 0.0
H3015 H 0.71771 0.72493 0.90714 0.0
H3016 H 0.77397 0.71235 0.88893 0.0
H3017 H 0.78594 0.72352 0.91852 0.0
H3018 H 0.73577 0.76955 0.933 0.0
H3019 H 0.71686 0.76585 0.9502 0.0
H3020 H 0.71238 0.75554 0.92789 0.0
H3021 H 0.70156 0.72107 0.93931 0.0
H3022 H 0.70617 0.73127 0.96164 0.0
H3023 H 0.71761 0.71143 0.95204 0.0
H3024 H 0.79232 0.73727 0.95044 0.0
H3025 H 0.79267 0.75412 0.98075 0.0
H3026 H 0.73282 0.75881 0.97763 0.0
C3027 C 0.73257 0.72453 0.90927 0.0
C3028 C 0.7447 0.71736 0.8955 0.0
C3029 C 0.76407 0.71715 0.89918 0.0
C3030 C 0.77112 0.72363 0.91601 0.0
C3031 C 0.75876 0.73049 0.92921 0.0
C3032 C 0.73992 0.7311 0.92598 0.0
C3033 C 0.72984 0.73999 0.94218 0.0
C3034 C 0.72334 0.75885 0.93807 0.0
C3035 C 0.71279 0.72504 0.94921 0.0
C3036 C 0.74596 0.74442 0.95496 0.0
C3037 C 0.76251 0.73868 0.94734 0.0
C3038 C 0.77938 0.74171 0.95656 0.0
C3039 C 0.77943 0.75118 0.97384 0.0
C3040 C 0.76277 0.75769 0.98171 0.0
C3041 C 0.7458 0.75393 0.97211 0.0
H3042 H 0.32667 0.69229 0.87344 0.0
H3043 H 0.32239 0.74888 0.85636 0.0
H3044 H 0.29835 0.75307 0.88113 0.0
H3045 H 0.27622 0.67754 0.88888 0.0
H3046 H 0.28241 0.66637 0.9076 0.0
H3047 H 0.29768 0.66699 0.88755 0.0
H3048 H 0.32693 0.68435 0.9054 0.0
H3049 H 0.3118 0.68369 0.92547 0.0
H3050 H 0.32541 0.70675 0.91898 0.0
H3051 H 0.27604 0.75161 0.90844 0.0
H3052 H 0.25915 0.7461 0.93755 0.0
H3053 H 0.27933 0.69106 0.93738 0.0
C3054 C 0.32044 0.70543 0.8747 0.0
C3055 C 0.32614 0.7202 0.86289 0.0
C3056 C 0.31804 0.73737 0.86525 0.0
C3057 C 0.30435 0.73981 0.8792 0.0
C3058 C 0.29906 0.72496 0.89065 0.0
C3059 C 0.30696 0.70816 0.88862 0.0
C3060 C 0.30006 0.69515 0.90353 0.0
C3061 C 0.2884 0.67534 0.89646 0.0
C3062 C 0.31706 0.69233 0.91396 0.0
C3063 C 0.2873 0.70741 0.9145 0.0
C3064 C 0.28668 0.72439 0.90669 0.0
C3065 C 0.27641 0.73836 0.91466 0.0
C3066 C 0.26695 0.73513 0.93125 0.0
C3067 C 0.26803 0.71821 0.93985 0.0
C3068 C 0.27799 0.70398 0.93109 0.0
H3069 H 0.35701 0.30773 0.91772 0.0
H3070 H 0.41391 0.34024 0.92923 0.0
H3071 H 0.40913 0.33089 0.95999 0.0
H3072 H 0.33365 0.3185 0.96259 0.0
H3073 H 0.31901 0.29431 0.9624 0.0
H3074 H 0.32597 0.30546 0.94189 0.0
H3075 H 0.34061 0.27521 0.92961 0.0
H3076 H 0.334 0.26414 0.95017 0.0
H3077 H 0.35873 0.26788 0.94166 0.0
H3078 H 0.40004 0.31505 0.9881 0.0
H3079 H 0.38552 0.29657 1.01336 0.0
H3080 H 0.33411 0.2744 0.98442 0.0
C3081 C 0.36811 0.31339 0.92695 0.0
C3082 C 0.38574 0.32491 0.92126 0.0
C3083 C 0.40025 0.3316 0.93348 0.0
C3084 C 0.39769 0.32629 0.95093 0.0
C3085 C 0.38048 0.31433 0.95601 0.0
C3086 C 0.36577 0.30821 0.94454 0.0
C3087 C 0.3491 0.29467 0.95329 0.0
C3088 C 0.33085 0.30378 0.95515 0.0
C3089 C 0.34541 0.27427 0.94307 0.0
C3090 C 0.35698 0.29385 0.97124 0.0
C3091 C 0.37512 0.30528 0.97247 0.0
C3092 C 0.38574 0.30622 0.98739 0.0
C3093 C 0.37747 0.29549 1.00161 0.0
C3094 C 0.35871 0.28402 1.00088 0.0
C3095 C 0.34841 0.28319 0.98541 0.0
H3096 H 0.62845 0.72669 0.19072 0.0
H3097 H 0.66892 0.74534 0.23202 0.0
H3098 H 0.64225 0.75099 0.25337 0.0
H3099 H 0.5956 0.76203 0.20661 0.0
H3100 H 0.5744 0.74445 0.20066 0.0
H3101 H 0.59693 0.74396 0.18812 0.0
H3102 H 0.59432 0.70751 0.19389 0.0
H3103 H 0.57201 0.70796 0.20671 0.0
H3104 H 0.59182 0.70071 0.21638 0.0
H3105 H 0.61118 0.75013 0.27116 0.0
H3106 H 0.57746 0.74702 0.28347 0.0
H3107 H 0.55681 0.73097 0.23081 0.0
C3108 C 0.63173 0.7326 0.2041 0.0
C3109 C 0.65076 0.73549 0.20973 0.0
C3110 C 0.65444 0.74287 0.22746 0.0
C3111 C 0.63939 0.74614 0.23969 0.0
C3112 C 0.62071 0.74228 0.23396 0.0
C3113 C 0.61681 0.73611 0.21651 0.0
C3114 C 0.59528 0.73234 0.21408 0.0
C3115 C 0.59026 0.74654 0.20163 0.0
C3116 C 0.58793 0.71085 0.20737 0.0
C3117 C 0.58772 0.73677 0.23296 0.0
C3118 C 0.60268 0.74242 0.24421 0.0
C3119 C 0.59936 0.74604 0.26245 0.0
C3120 C 0.58025 0.74407 0.26935 0.0
C3121 C 0.56477 0.73873 0.25804 0.0
C3122 C 0.56854 0.73515 0.23963 0.0
H3123 H 0.34003 0.67277 0.21927 0.0
H3124 H 0.33517 0.63756 0.16894 0.0
H3125 H 0.32691 0.60741 0.18492 0.0
H3126 H 0.36292 0.6419 0.24092 0.0
H3127 H 0.3507 0.64583 0.26223 0.0
H3128 H 0.35444 0.66457 0.24694 0.0
H3129 H 0.31779 0.66466 0.24839 0.0
H3130 H 0.31394 0.64612 0.26391 0.0
H3131 H 0.30118 0.64197 0.24378 0.0
H3132 H 0.32187 0.58102 0.2067 0.0
H3133 H 0.31786 0.56077 0.2321 0.0
H3134 H 0.32596 0.61359 0.26813 0.0
C3135 C 0.33701 0.65872 0.21159 0.0
C3136 C 0.33827 0.65752 0.19282 0.0
C3137 C 0.33408 0.63886 0.18329 0.0
C3138 C 0.32954 0.62167 0.19228 0.0
C3139 C 0.3291 0.6234 0.21078 0.0
C3140 C 0.33248 0.6415 0.22031 0.0
C3141 C 0.33165 0.63946 0.24007 0.0
C3142 C 0.35108 0.64847 0.248 0.0
C3143 C 0.31516 0.64859 0.24959 0.0
C3144 C 0.32753 0.61734 0.24024 0.0
C3145 C 0.3261 0.60833 0.22323 0.0
C3146 C 0.32272 0.58797 0.22006 0.0
C3147 C 0.32042 0.57657 0.23463 0.0
C3148 C 0.32144 0.58546 0.25226 0.0
C3149 C 0.32523 0.6062 0.25494 0.0
H3150 H 0.43964 0.35174 0.21527 0.0
H3151 H 0.43322 0.38081 0.26785 0.0
H3152 H 0.46157 0.36881 0.27682 0.0
H3153 H 0.45401 0.30871 0.22914 0.0
H3154 H 0.4709 0.3066 0.21048 0.0
H3155 H 0.45021 0.31759 0.20838 0.0
H3156 H 0.47266 0.34888 0.19807 0.0
H3157 H 0.4934 0.33797 0.20025 0.0
H3158 H 0.49167 0.36143 0.21187 0.0
H3159 H 0.49115 0.35273 0.28013 0.0
H3160 H 0.51824 0.33438 0.27715 0.0
H3161 H 0.50522 0.31653 0.22236 0.0
C3162 C 0.44419 0.35563 0.22867 0.0
C3163 C 0.43411 0.36731 0.24086 0.0
C3164 C 0.44066 0.37194 0.25826 0.0
C3165 C 0.45679 0.36517 0.26348 0.0
C3166 C 0.46642 0.3537 0.25117 0.0
C3167 C 0.46031 0.34898 0.23411 0.0
C3168 C 0.47306 0.33637 0.22342 0.0
C3169 C 0.46134 0.31612 0.21751 0.0
C3170 C 0.4833 0.34679 0.20746 0.0
C3171 C 0.48728 0.33475 0.23704 0.0
C3172 C 0.48328 0.34477 0.25302 0.0
C3173 C 0.49441 0.34493 0.2676 0.0
C3174 C 0.50986 0.3345 0.2658 0.0
C3175 C 0.51415 0.32405 0.24952 0.0
C3176 C 0.50261 0.32442 0.23502 0.0
H3177 H 0.77971 0.41677 0.21821 0.0
H3178 H 0.7437 0.41628 0.17421 0.0
H3179 H 0.75243 0.45248 0.17521 0.0
H3180 H 0.76756 0.45739 0.24228 0.0
H3181 H 0.79118 0.46682 0.25028 0.0
H3182 H 0.78392 0.44098 0.24455 0.0
H3183 H 0.81382 0.44145 0.22267 0.0
H3184 H 0.82117 0.46739 0.22835 0.0
H3185 H 0.81795 0.45821 0.20554 0.0
H3186 H 0.76252 0.48901 0.1833 0.0
H3187 H 0.77203 0.5222 0.19831 0.0
H3188 H 0.80224 0.49809 0.23618 0.0
C3189 C 0.7741 0.42417 0.2084 0.0
C3190 C 0.76113 0.41366 0.19604 0.0
C3191 C 0.7536 0.42404 0.18386 0.0
C3192 C 0.75862 0.44457 0.18422 0.0
C3193 C 0.77131 0.45448 0.19674 0.0
C3194 C 0.779 0.44455 0.20854 0.0
C3195 C 0.79103 0.45854 0.22166 0.0
C3196 C 0.78293 0.45577 0.24081 0.0
C3197 C 0.81225 0.45626 0.21941 0.0
C3198 C 0.78839 0.47795 0.21581 0.0
C3199 C 0.77719 0.47538 0.20128 0.0
C3200 C 0.77157 0.4912 0.19449 0.0
C3201 C 0.77707 0.51002 0.20309 0.0
C3202 C 0.78796 0.51281 0.21839 0.0
C3203 C 0.79414 0.49657 0.2244 0.0
H3204 H 0.66356 0.33112 0.85295 0.0
H3205 H 0.64784 0.38701 0.84595 0.0
H3206 H 0.62101 0.36998 0.82791 0.0
H3207 H 0.65463 0.30948 0.80995 0.0
H3208 H 0.6448 0.28526 0.81656 0.0
H3209 H 0.66198 0.30164 0.82994 0.0
H3210 H 0.63795 0.29806 0.85734 0.0
H3211 H 0.62079 0.28143 0.84409 0.0
H3212 H 0.61403 0.30299 0.85595 0.0
H3213 H 0.59722 0.3469 0.80875 0.0
H3214 H 0.57682 0.31924 0.79205 0.0
H3215 H 0.60786 0.27868 0.81222 0.0
C3216 C 0.65419 0.33973 0.84799 0.0
C3217 C 0.65784 0.3604 0.85082 0.0
C3218 C 0.64543 0.37116 0.8438 0.0
C3219 C 0.63013 0.36163 0.83356 0.0
C3220 C 0.62729 0.34129 0.83056 0.0
C3221 C 0.63882 0.33044 0.83776 0.0
C3222 C 0.63301 0.3088 0.83218 0.0
C3223 C 0.64959 0.30084 0.82152 0.0
C3224 C 0.62602 0.29713 0.84835 0.0
C3225 C 0.61659 0.3092 0.82057 0.0
C3226 C 0.6135 0.32805 0.81975 0.0
C3227 C 0.59939 0.33204 0.80942 0.0
C3228 C 0.58795 0.31627 0.79991 0.0
C3229 C 0.59069 0.29681 0.80086 0.0
C3230 C 0.6053 0.29337 0.81128 0.0
H3231 H 0.74046 0.65161 0.85689 0.0
H3232 H 0.75848 0.69298 0.81713 0.0
H3233 H 0.77436 0.66851 0.79895 0.0
H3234 H 0.78266 0.62862 0.85268 0.0
H3235 H 0.76911 0.60429 0.8552 0.0
H3236 H 0.76004 0.62535 0.86554 0.0
H3237 H 0.72821 0.61398 0.84956 0.0
H3238 H 0.73711 0.59281 0.83932 0.0
H3239 H 0.72907 0.60923 0.82578 0.0
H3240 H 0.78876 0.63937 0.78517 0.0
H3241 H 0.79688 0.60692 0.77524 0.0
H3242 H 0.76785 0.58369 0.82305 0.0
C3243 C 0.74784 0.65551 0.84438 0.0
C3244 C 0.74831 0.67427 0.83846 0.0
C3245 C 0.75788 0.67871 0.8219 0.0
C3246 C 0.76705 0.66493 0.81154 0.0
C3247 C 0.76638 0.64659 0.81777 0.0
C3248 C 0.75677 0.64175 0.83369 0.0
C3249 C 0.7572 0.62063 0.83683 0.0
C3250 C 0.76789 0.61968 0.85356 0.0
C3251 C 0.73668 0.60844 0.83793 0.0
C3252 C 0.7685 0.61432 0.8202 0.0
C3253 C 0.77395 0.62961 0.80951 0.0
C3254 C 0.78452 0.6273 0.79345 0.0
C3255 C 0.7892 0.60881 0.78796 0.0
C3256 C 0.7831 0.59266 0.79834 0.0
C3257 C 0.77283 0.59568 0.8148 0.0
H3258 H 0.42071 0.70924 0.79189 0.0
H3259 H 0.4102 0.73285 0.846 0.0
H3260 H 0.44114 0.75592 0.84405 0.0
H3261 H 0.4709 0.71045 0.79504 0.0
H3262 H 0.4775 0.71725 0.77281 0.0
H3263 H 0.45391 0.70335 0.77793 0.0
H3264 H 0.43819 0.72981 0.76593 0.0
H3265 H 0.46173 0.74372 0.76065 0.0
H3266 H 0.44459 0.75502 0.7747 0.0
H3267 H 0.47349 0.77556 0.83675 0.0
H3268 H 0.50507 0.79128 0.82429 0.0
H3269 H 0.49533 0.75426 0.77519 0.0
C3270 C 0.42489 0.71928 0.80333 0.0
C3271 C 0.41292 0.71931 0.81906 0.0
C3272 C 0.41889 0.73279 0.83368 0.0
C3273 C 0.43653 0.74585 0.83276 0.0
C3274 C 0.44807 0.74522 0.81716 0.0
C3275 C 0.4425 0.73236 0.80268 0.0
C3276 C 0.45781 0.73443 0.78763 0.0
C3277 C 0.46548 0.71523 0.78309 0.0
C3278 C 0.45012 0.74115 0.77126 0.0
C3279 C 0.47293 0.75037 0.796 0.0
C3280 C 0.46695 0.7564 0.81301 0.0
C3281 C 0.47834 0.77099 0.82344 0.0
C3282 C 0.49626 0.77981 0.81623 0.0
C3283 C 0.50268 0.77397 0.79878 0.0
C3284 C 0.49087 0.75895 0.7886 0.0
H3285 H 0.34766 0.39715 0.87962 0.0
H3286 H 0.37192 0.36558 0.83421 0.0
H3287 H 0.36028 0.38628 0.81425 0.0
H3288 H 0.30487 0.40351 0.85921 0.0
H3289 H 0.30503 0.4278 0.86983 0.0
H3290 H 0.31505 0.41033 0.88052 0.0
H3291 H 0.34741 0.43486 0.88274 0.0
H3292 H 0.33749 0.4524 0.87207 0.0
H3293 H 0.35937 0.44481 0.86295 0.0
H3294 H 0.3461 0.41072 0.79919 0.0
H3295 H 0.33065 0.43683 0.79022 0.0
H3296 H 0.31606 0.45301 0.84547 0.0
C3297 C 0.35046 0.39458 0.86546 0.0
C3298 C 0.3607 0.37974 0.85849 0.0
C3299 C 0.36413 0.37684 0.8399 0.0
C3300 C 0.35756 0.38854 0.82844 0.0
C3301 C 0.34756 0.4031 0.83575 0.0
C3302 C 0.34403 0.40616 0.85384 0.0
C3303 C 0.33314 0.42292 0.85832 0.0
C3304 C 0.31335 0.4157 0.86751 0.0
C3305 C 0.34507 0.43974 0.86969 0.0
C3306 C 0.33111 0.42884 0.83993 0.0
C3307 C 0.33951 0.41721 0.8271 0.0
C3308 C 0.33953 0.41994 0.80915 0.0
C3309 C 0.3308 0.43495 0.80419 0.0
C3310 C 0.32213 0.44718 0.81708 0.0
C3311 C 0.32232 0.44391 0.83521 0.0
H3312 H 0.70777 0.64015 0.1906 0.0
H3313 H 0.72799 0.69203 0.22533 0.0
H3314 H 0.74095 0.67174 0.24476 0.0
H3315 H 0.69219 0.60831 0.22516 0.0
H3316 H 0.69941 0.58709 0.21308 0.0
H3317 H 0.69268 0.60577 0.20128 0.0
H3318 H 0.72554 0.6099 0.18337 0.0
H3319 H 0.73228 0.5911 0.195 0.0
H3320 H 0.7475 0.61499 0.19501 0.0
H3321 H 0.75182 0.64578 0.26039 0.0
H3322 H 0.75905 0.61584 0.27143 0.0
H3323 H 0.73039 0.58065 0.22742 0.0
C3324 C 0.71512 0.64721 0.2022 0.0
C3325 C 0.71695 0.66763 0.20645 0.0
C3326 C 0.72641 0.67639 0.22185 0.0
C3327 C 0.73383 0.66499 0.23296 0.0
C3328 C 0.73151 0.64483 0.22858 0.0
C3329 C 0.72235 0.63599 0.2136 0.0
C3330 C 0.72118 0.61395 0.21226 0.0
C3331 C 0.70011 0.60315 0.21299 0.0
C3332 C 0.73229 0.60709 0.19541 0.0
C3333 C 0.73111 0.61179 0.2288 0.0
C3334 C 0.7371 0.6298 0.23796 0.0
C3335 C 0.74708 0.63159 0.25339 0.0
C3336 C 0.75113 0.61453 0.25957 0.0
C3337 C 0.74506 0.59591 0.25044 0.0
C3338 C 0.73481 0.59461 0.23492 0.0
H3339 H 0.69181 0.42759 0.8462 0.0
H3340 H 0.7429 0.40295 0.8508 0.0
H3341 H 0.76189 0.42822 0.83259 0.0
H3342 H 0.70066 0.43765 0.80155 0.0
H3343 H 0.69165 0.46032 0.80411 0.0
H3344 H 0.68244 0.4414 0.81869 0.0
H3345 H 0.69164 0.46587 0.84598 0.0
H3346 H 0.70069 0.48495 0.83149 0.0
H3347 H 0.71605 0.47911 0.84735 0.0
H3348 H 0.77449 0.45429 0.81174 0.0
H3349 H 0.78055 0.48065 0.79162 0.0
H3350 H 0.72127 0.48886 0.80121 0.0
C3351 C 0.70705 0.42764 0.84353 0.0
C3352 C 0.71591 0.41333 0.84993 0.0
C3353 C 0.73589 0.41393 0.84623 0.0
C3354 C 0.74674 0.42814 0.8358 0.0
C3355 C 0.73742 0.44172 0.82933 0.0
C3356 C 0.71808 0.44174 0.83323 0.0
C3357 C 0.71139 0.4576 0.82428 0.0
C3358 C 0.6956 0.44871 0.81139 0.0
C3359 C 0.70455 0.47278 0.8381 0.0
C3360 C 0.72993 0.46629 0.81445 0.0
C3361 C 0.74476 0.45693 0.81755 0.0
C3362 C 0.76306 0.46194 0.80945 0.0
C3363 C 0.76637 0.47707 0.79806 0.0
C3364 C 0.75148 0.48718 0.79488 0.0
C3365 C 0.733 0.48153 0.80321 0.0
H3366 H 0.67434 0.74428 0.84483 0.0
H3367 H 0.69561 0.72445 0.79254 0.0
H3368 H 0.67139 0.73854 0.77895 0.0
H3369 H 0.62371 0.73517 0.83513 0.0
H3370 H 0.61847 0.75676 0.84811 0.0
H3371 H 0.6375 0.74515 0.85405 0.0
H3372 H 0.66161 0.77797 0.85246 0.0
H3373 H 0.64264 0.78967 0.84649 0.0
H3374 H 0.66435 0.79044 0.83245 0.0
H3375 H 0.64498 0.75442 0.77064 0.0
H3376 H 0.61798 0.77145 0.76814 0.0
H3377 H 0.61286 0.78172 0.82545 0.0
C3378 C 0.67386 0.74293 0.83054 0.0
C3379 C 0.68697 0.73319 0.81974 0.0
C3380 C 0.68581 0.7318 0.8011 0.0
C3381 C 0.67206 0.73977 0.79322 0.0
C3382 C 0.65941 0.74926 0.8041 0.0
C3383 C 0.66012 0.75095 0.82236 0.0
C3384 C 0.64469 0.76202 0.8308 0.0
C3385 C 0.63024 0.74899 0.84273 0.0
C3386 C 0.65387 0.78116 0.84117 0.0
C3387 C 0.63527 0.76617 0.81446 0.0
C3388 C 0.64404 0.75861 0.79923 0.0
C3389 C 0.63796 0.76035 0.78249 0.0
C3390 C 0.62246 0.76998 0.7812 0.0
C3391 C 0.61305 0.7779 0.79655 0.0
C3392 C 0.61974 0.776 0.81342 0.0
H3393 H 0.36595 0.63904 0.83596 0.0
H3394 H 0.38958 0.65527 0.78409 0.0
H3395 H 0.38513 0.62013 0.77314 0.0
H3396 H 0.38453 0.59213 0.83509 0.0
H3397 H 0.36275 0.58035 0.84634 0.0
H3398 H 0.37123 0.60634 0.85075 0.0
H3399 H 0.33824 0.61307 0.8427 0.0
H3400 H 0.3297 0.58721 0.83827 0.0
H3401 H 0.3291 0.60359 0.82141 0.0
H3402 H 0.37319 0.58377 0.76686 0.0
H3403 H 0.35491 0.54976 0.76576 0.0
H3404 H 0.33926 0.55786 0.82192 0.0
C3405 C 0.37054 0.63516 0.82238 0.0
C3406 C 0.37804 0.64976 0.81082 0.0
C3407 C 0.38395 0.64422 0.79317 0.0
C3408 C 0.38149 0.62433 0.78687 0.0
C3409 C 0.37339 0.61028 0.79849 0.0
C3410 C 0.36819 0.6155 0.81595 0.0
C3411 C 0.35794 0.59797 0.82531 0.0
C3412 C 0.36983 0.59396 0.84026 0.0
C3413 C 0.33755 0.60063 0.83232 0.0
C3414 C 0.3573 0.58216 0.81019 0.0
C3415 C 0.36658 0.5894 0.7949 0.0
C3416 C 0.36626 0.57784 0.77884 0.0
C3417 C 0.35582 0.55855 0.77834 0.0
C3418 C 0.34571 0.55115 0.79378 0.0
C3419 C 0.347 0.56299 0.80994 0.0
H3420 H 0.42058 0.30574 0.84283 0.0
H3421 H 0.44515 0.32114 0.89426 0.0
H3422 H 0.47234 0.30497 0.88399 0.0
H3423 H 0.43386 0.25905 0.83411 0.0
H3424 H 0.44028 0.26129 0.81089 0.0
H3425 H 0.42256 0.27435 0.82194 0.0
H3426 H 0.44237 0.30717 0.81218 0.0
H3427 H 0.46004 0.29419 0.80092 0.0
H3428 H 0.46732 0.31416 0.81738 0.0
H3429 H 0.49555 0.28515 0.86932 0.0
H3430 H 0.51601 0.26646 0.84945 0.0
H3431 H 0.47853 0.26581 0.8066 0.0
C3432 C 0.43181 0.30598 0.85183 0.0
C3433 C 0.43038 0.31434 0.86953 0.0
C3434 C 0.4455 0.31431 0.88084 0.0
C3435 C 0.46112 0.30526 0.87511 0.0
C3436 C 0.46176 0.29659 0.85786 0.0
C3437 C 0.44779 0.29721 0.84622 0.0
C3438 C 0.45231 0.28698 0.82826 0.0
C3439 C 0.4363 0.26937 0.82353 0.0
C3440 C 0.45572 0.30149 0.81383 0.0
C3441 C 0.47082 0.28033 0.83179 0.0
C3442 C 0.47585 0.2859 0.84903 0.0
C3443 C 0.4919 0.28086 0.85573 0.0
C3444 C 0.50333 0.2701 0.84442 0.0
C3445 C 0.49882 0.2647 0.82655 0.0
C3446 C 0.48232 0.26988 0.82019 0.0
H3447 H 0.37564 0.42963 0.23138 0.0
H3448 H 0.32524 0.38545 0.21934 0.0
H3449 H 0.30418 0.40874 0.23087 0.0
H3450 H 0.35469 0.45132 0.27258 0.0
H3451 H 0.36652 0.47591 0.26859 0.0
H3452 H 0.37751 0.45537 0.26009 0.0
H3453 H 0.37918 0.46695 0.22851 0.0
H3454 H 0.36792 0.48734 0.23687 0.0
H3455 H 0.35743 0.47036 0.21923 0.0
H3456 H 0.28825 0.43786 0.24256 0.0
H3457 H 0.27933 0.46916 0.25572 0.0
H3458 H 0.33993 0.49416 0.26026 0.0
C3459 C 0.36018 0.42473 0.23152 0.0
C3460 C 0.35218 0.40562 0.22435 0.0
C3461 C 0.3318 0.4 0.22458 0.0
C3462 C 0.31966 0.41317 0.23112 0.0
C3463 C 0.32798 0.43206 0.23754 0.0
C3464 C 0.34778 0.43777 0.23801 0.0
C3465 C 0.35301 0.459 0.24546 0.0
C3466 C 0.36355 0.46048 0.2627 0.0
C3467 C 0.3651 0.47165 0.23169 0.0
C3468 C 0.33315 0.46433 0.249 0.0
C3469 C 0.31885 0.44864 0.2443 0.0
C3470 C 0.29937 0.45022 0.24633 0.0
C3471 C 0.2944 0.46812 0.25369 0.0
C3472 C 0.30883 0.48424 0.25901 0.0
C3473 C 0.32845 0.4822 0.25636 0.0
H3474 H 0.70651 0.34185 0.22228 0.0
H3475 H 0.70508 0.36506 0.17151 0.0
H3476 H 0.67041 0.35043 0.17032 0.0
H3477 H 0.67335 0.29609 0.21327 0.0
H3478 H 0.66215 0.29639 0.23535 0.0
H3479 H 0.68696 0.30796 0.23176 0.0
H3480 H 0.67925 0.34062 0.2472 0.0
H3481 H 0.65443 0.32915 0.2508 0.0
H3482 H 0.6604 0.35109 0.23922 0.0
H3483 H 0.63594 0.33298 0.17468 0.0
H3484 H 0.60379 0.31587 0.18514 0.0
H3485 H 0.62765 0.30527 0.23355 0.0
C3486 C 0.69891 0.34366 0.21084 0.0
C3487 C 0.7084 0.35443 0.19691 0.0
C3488 C 0.69797 0.35686 0.18231 0.0
C3489 C 0.67835 0.34855 0.1815 0.0
C3490 C 0.66938 0.33804 0.19548 0.0
C3491 C 0.67928 0.3357 0.20994 0.0
C3492 C 0.66612 0.32446 0.22356 0.0
C3493 C 0.67253 0.30508 0.22613 0.0
C3494 C 0.66498 0.33709 0.24124 0.0
C3495 C 0.64724 0.32085 0.21452 0.0
C3496 C 0.64945 0.32861 0.19826 0.0
C3497 C 0.63404 0.32688 0.1874 0.0
C3498 C 0.61588 0.31708 0.1934 0.0
C3499 C 0.61326 0.30936 0.21017 0.0
C3500 C 0.6292 0.31126 0.22078 0.0
H3501 H 0.40243 0.69264 0.19015 0.0
H3502 H 0.37915 0.74553 0.18812 0.0
H3503 H 0.40794 0.76503 0.2024 0.0
H3504 H 0.41837 0.70335 0.23226 0.0
H3505 H 0.43966 0.69262 0.228 0.0
H3506 H 0.41904 0.68374 0.21505 0.0
H3507 H 0.44019 0.69059 0.18621 0.0
H3508 H 0.46095 0.69952 0.19912 0.0
H3509 H 0.45407 0.7148 0.18375 0.0
H3510 H 0.43764 0.77788 0.22041 0.0
H3511 H 0.46448 0.78251 0.24058 0.0
H3512 H 0.46715 0.72072 0.23084 0.0
C3513 C 0.4035 0.70838 0.19247 0.0
C3514 C 0.38855 0.71759 0.18811 0.0
C3515 C 0.39054 0.73822 0.19123 0.0
C3516 C 0.40682 0.74938 0.19935 0.0
C3517 C 0.42102 0.73968 0.20402 0.0
C3518 C 0.41951 0.71961 0.20054 0.0
C3519 C 0.43563 0.71225 0.20821 0.0
C3520 C 0.4277 0.69711 0.22168 0.0
C3521 C 0.44847 0.7038 0.19344 0.0
C3522 C 0.44614 0.73116 0.21716 0.0
C3523 C 0.43779 0.74694 0.21439 0.0
C3524 C 0.44444 0.76567 0.22241 0.0
C3525 C 0.45971 0.76818 0.23382 0.0
C3526 C 0.4679 0.75198 0.23724 0.0
C3527 C 0.46126 0.73341 0.22843 0.0
loop_
_geom_bond_atom_site_label_1
_geom_bond_atom_site_label_2
_geom_bond_distance
_geom_bond_site_symmetry_2
_ccdc_geom_bond_type
H0 C5 0.930 . S
H1 C8 0.930 . S
H2 C10 0.930 . S
H3 C4 1.016 . S
C4 H3 1.016 . S
C4 N11 1.286 . S
C5 H0 0.930 . S
C5 C6 1.397 . S
C5 C7 1.361 . S
C6 C5 1.397 . S
C6 C10 1.390 . S
C7 C5 1.361 . S
C7 C8 1.393 . S
C7 N11 1.413 . S
C8 H1 0.930 . S
C8 C7 1.393 . S
C8 C9 1.399 . S
C9 C8 1.399 . S
C9 C10 1.381 . S
C10 H2 0.930 . S
C10 C6 1.390 . S
C10 C9 1.381 . S
N11 C4 1.286 . S
N11 C7 1.413 . S
H12 C17 0.930 . S
H13 C20 0.930 . S
H14 C22 0.930 . S
H15 C16 1.016 . S
C16 H15 1.016 . S
C16 N23 1.286 . S
C17 H12 0.930 . S
C17 C18 1.397 . S
C17 C19 1.361 . S
C18 C17 1.397 . S
C18 C22 1.390 . S
C19 C17 1.361 . S
C19 C20 1.393 . S
C19 N23 1.413 . S
C20 H13 0.930 . S
C20 C19 1.393 . S
C20 C21 1.399 . S
C21 C20 1.399 . S
C21 C22 1.381 . S
C22 H14 0.930 . S
C22 C18 1.390 . S
C22 C21 1.381 . S
N23 C16 1.286 . S
N23 C19 1.413 . S
H24 C29 0.930 . S
H25 C32 0.930 . S
H26 C34 0.930 . S
H27 C28 1.016 . S
C28 H27 1.016 . S
C28 N35 1.286 . S
C29 H24 0.930 . S
C29 C30 1.397 . S
C29 C31 1.361 . S
C30 C29 1.397 . S
C30 C34 1.390 . S
C31 C29 1.361 . S
C31 C32 1.393 . S
C31 N35 1.413 . S
C32 H25 0.930 . S
C32 C31 1.393 . S
C32 C33 1.399 . S
C33 C32 1.399 . S
C33 C34 1.381 . S
C34 H26 0.930 . S
C34 C30 1.390 . S
C34 C33 1.381 . S
N35 C28 1.286 . S
N35 C31 1.413 . S
H36 C41 0.930 . S
H37 C44 0.930 . S
H38 C46 0.930 . S
H39 C40 1.016 . S
C40 H39 1.016 . S
C40 N47 1.286 . S
C41 H36 0.930 . S
C41 C42 1.397 . S
C41 C43 1.361 . S
C42 C41 1.397 . S
C42 C46 1.390 . S
C43 C41 1.361 . S
C43 C44 1.393 . S
C43 N47 1.413 . S
C44 H37 0.930 . S
C44 C43 1.393 . S
C44 C45 1.399 . S
C45 C44 1.399 . S
C45 C46 1.381 . S
C46 H38 0.930 . S
C46 C42 1.390 . S
C46 C45 1.381 . S
N47 C40 1.286 . S
N47 C43 1.413 . S
H48 C53 0.930 . S
H49 C56 0.930 . S
H50 C58 0.930 . S
H51 C52 1.016 . S
C52 H51 1.016 . S
C52 N59 1.286 . S
C53 H48 0.930 . S
C53 C54 1.397 . S
C53 C55 1.361 . S
C54 C53 1.397 . S
C54 C58 1.390 . S
C55 C53 1.361 . S
C55 C56 1.393 . S
C55 N59 1.413 . S
C56 H49 0.930 . S
C56 C55 1.393 . S
C56 C57 1.399 . S
C57 C56 1.399 . S
C57 C58 1.381 . S
C58 H50 0.930 . S
C58 C54 1.390 . S
C58 C57 1.381 . S
N59 C52 1.286 . S
N59 C55 1.413 . S
H60 C65 0.930 . S
H61 C68 0.930 . S
H62 C70 0.930 . S
H63 C64 1.016 . S
C64 H63 1.016 . S
C64 N71 1.286 . S
C65 H60 0.930 . S
C65 C66 1.397 . S
C65 C67 1.361 . S
C66 C65 1.397 . S
C66 C70 1.390 . S
C67 C65 1.361 . S
C67 C68 1.393 . S
C67 N71 1.413 . S
C68 H61 0.930 . S
C68 C67 1.393 . S
C68 C69 1.399 . S
C69 C68 1.399 . S
C69 C70 1.381 . S
C70 H62 0.930 . S
C70 C66 1.390 . S
C70 C69 1.381 . S
N71 C64 1.286 . S
N71 C67 1.413 . S
H72 C77 0.930 . S
H73 C80 0.930 . S
H74 C82 0.930 . S
H75 C76 1.016 . S
C76 H75 1.016 . S
C76 N83 1.286 . S
C77 H72 0.930 . S
C77 C78 1.397 . S
C77 C79 1.361 . S
C78 C77 1.397 . S
C78 C82 1.390 . S
C79 C77 1.361 . S
C79 C80 1.393 . S
C79 N83 1.413 . S
C80 H73 0.930 . S
C80 C79 1.393 . S
C80 C81 1.399 . S
C81 C80 1.399 . S
C81 C82 1.381 . S
C82 H74 0.930 . S
C82 C78 1.390 . S
C82 C81 1.381 . S
N83 C76 1.286 . S
N83 C79 1.413 . S
H84 C89 0.930 . S
H85 C92 0.930 . S
H86 C94 0.930 . S
H87 C88 1.016 . S
C88 H87 1.016 . S
C88 N95 1.286 . S
C89 H84 0.930 . S
C89 C90 1.397 . S
C89 C91 1.361 . S
C90 C89 1.397 . S
C90 C94 1.390 . S
C91 C89 1.361 . S
C91 C92 1.393 . S
C91 N95 1.413 . S
C92 H85 0.930 . S
C92 C91 1.393 . S
C92 C93 1.399 . S
C93 C92 1.399 . S
C93 C94 1.381 . S
C94 H86 0.930 . S
C94 C90 1.390 . S
C94 C93 1.381 . S
N95 C88 1.286 . S
N95 C91 1.413 . S
H96 C101 0.930 . S
H97 C104 0.930 . S
H98 C106 0.930 . S
H99 C100 1.016 . S
C100 H99 1.016 . S
C100 N107 1.286 . S
C101 H96 0.930 . S
C101 C102 1.397 . S
C101 C103 1.361 . S
C102 C101 1.397 . S
C102 C106 1.390 . S
C103 C101 1.361 . S
C103 C104 1.393 . S
C103 N107 1.413 . S
C104 H97 0.930 . S
C104 C103 1.393 . S
C104 C105 1.399 . S
C105 C104 1.399 . S
C105 C106 1.381 . S
C106 H98 0.930 . S
C106 C102 1.390 . S
C106 C105 1.381 . S
N107 C100 1.286 . S
N107 C103 1.413 . S
H108 C113 0.930 . S
H109 C116 0.930 . S
H110 C118 0.930 . S
H111 C112 1.016 . S
C112 H111 1.016 . S
C112 N119 1.286 . S
C113 H108 0.930 . S
C113 C114 1.397 . S
C113 C115 1.361 . S
C114 C113 1.397 . S
C114 C118 1.390 . S
C115 C113 1.361 . S
C115 C116 1.393 . S
C115 N119 1.413 . S
C116 H109 0.930 . S
C116 C115 1.393 . S
C116 C117 1.399 . S
C117 C116 1.399 . S
C117 C118 1.381 . S
C118 H110 0.930 . S
C118 C114 1.390 . S
C118 C117 1.381 . S
N119 C112 1.286 . S
N119 C115 1.413 . S
H120 C125 0.930 . S
H121 C128 0.930 . S
H122 C130 0.930 . S
H123 C124 1.016 . S
C124 H123 1.016 . S
C124 N131 1.286 . S
C125 H120 0.930 . S
C125 C126 1.397 . S
C125 C127 1.361 . S
C126 C125 1.397 . S
C126 C130 1.390 . S
C127 C125 1.361 . S
C127 C128 1.393 . S
C127 N131 1.413 . S
C128 H121 0.930 . S
C128 C127 1.393 . S
C128 C129 1.399 . S
C129 C128 1.399 . S
C129 C130 1.381 . S
C130 H122 0.930 . S
C130 C126 1.390 . S
C130 C129 1.381 . S
N131 C124 1.286 . S
N131 C127 1.413 . S
H132 C137 0.930 . S
H133 C140 0.930 . S
H134 C142 0.930 . S
H135 C136 1.016 . S
C136 H135 1.016 . S
C136 N143 1.286 . S
C137 H132 0.930 . S
C137 C138 1.397 . S
C137 C139 1.361 . S
C138 C137 1.397 . S
C138 C142 1.390 . S
C139 C137 1.361 . S
C139 C140 1.393 . S
C139 N143 1.413 . S
C140 H133 0.930 . S
C140 C139 1.393 . S
C140 C141 1.399 . S
C141 C140 1.399 . S
C141 C142 1.381 . S
C142 H134 0.930 . S
C142 C138 1.390 . S
C142 C141 1.381 . S
N143 C136 1.286 . S
N143 C139 1.413 . S
H144 C149 0.930 . S
H145 C152 0.930 . S
H146 C154 0.930 . S
H147 C148 1.016 . S
C148 H147 1.016 . S
C148 N155 1.286 . S
C149 H144 0.930 . S
C149 C150 1.397 . S
C149 C151 1.361 . S
C150 C149 1.397 . S
C150 C154 1.390 . S
C151 C149 1.361 . S
C151 C152 1.393 . S
C151 N155 1.413 . S
C152 H145 0.930 . S
C152 C151 1.393 . S
C152 C153 1.399 . S
C153 C152 1.399 . S
C153 C154 1.381 . S
C154 H146 0.930 . S
C154 C150 1.390 . S
C154 C153 1.381 . S
N155 C148 1.286 . S
N155 C151 1.413 . S
H156 C161 0.930 . S
H157 C164 0.930 . S
H158 C166 0.930 . S
H159 C160 1.016 . S
C160 H159 1.016 . S
C160 N167 1.286 . S
C161 H156 0.930 . S
C161 C162 1.397 . S
C161 C163 1.361 . S
C162 C161 1.397 . S
C162 C166 1.390 . S
C163 C161 1.361 . S
C163 C164 1.393 . S
C163 N167 1.413 . S
C164 H157 0.930 . S
C164 C163 1.393 . S
C164 C165 1.399 . S
C165 C164 1.399 . S
C165 C166 1.381 . S
C166 H158 0.930 . S
C166 C162 1.390 . S
C166 C165 1.381 . S
N167 C160 1.286 . S
N167 C163 1.413 . S
H168 C173 0.930 . S
H169 C176 0.930 . S
H170 C178 0.930 . S
H171 C172 1.016 . S
C172 H171 1.016 . S
C172 N179 1.286 . S
C173 H168 0.930 . S
C173 C174 1.397 . S
C173 C175 1.361 . S
C174 C173 1.397 . S
C174 C178 1.390 . S
C175 C173 1.361 . S
C175 C176 1.393 . S
C175 N179 1.413 . S
C176 H169 0.930 . S
C176 C175 1.393 . S
C176 C177 1.399 . S
C177 C176 1.399 . S
C177 C178 1.381 . S
C178 H170 0.930 . S
C178 C174 1.390 . S
C178 C177 1.381 . S
N179 C172 1.286 . S
N179 C175 1.413 . S
H180 C185 0.930 . S
H181 C188 0.930 . S
H182 C190 0.930 . S
H183 C184 1.016 . S
C184 H183 1.016 . S
C184 N191 1.286 . S
C185 H180 0.930 . S
C185 C186 1.397 . S
C185 C187 1.361 . S
C186 C185 1.397 . S
C186 C190 1.390 . S
C187 C185 1.361 . S
C187 C188 1.393 . S
C187 N191 1.413 . S
C188 H181 0.930 . S
C188 C187 1.393 . S
C188 C189 1.399 . S
C189 C188 1.399 . S
C189 C190 1.381 . S
C190 H182 0.930 . S
C190 C186 1.390 . S
C190 C189 1.381 . S
N191 C184 1.286 . S
N191 C187 1.413 . S
H192 C197 0.930 . S
H193 C200 0.930 . S
H194 C202 0.930 . S
H195 C196 1.016 . S
C196 H195 1.016 . S
C196 N203 1.286 . S
C197 H192 0.930 . S
C197 C198 1.397 . S
C197 C199 1.361 . S
C198 C197 1.397 . S
C198 C202 1.390 . S
C199 C197 1.361 . S
C199 C200 1.393 . S
C199 N203 1.413 . S
C200 H193 0.930 . S
C200 C199 1.393 . S
C200 C201 1.399 . S
C201 C200 1.399 . S
C201 C202 1.381 . S
C202 H194 0.930 . S
C202 C198 1.390 . S
C202 C201 1.381 . S
N203 C196 1.286 . S
N203 C199 1.413 . S
H204 C209 0.930 . S
H205 C212 0.930 . S
H206 C214 0.930 . S
H207 C208 1.016 . S
C208 H207 1.016 . S
C208 N215 1.286 . S
C209 H204 0.930 . S
C209 C210 1.397 . S
C209 C211 1.361 . S
C210 C209 1.397 . S
C210 C214 1.390 . S
C211 C209 1.361 . S
C211 C212 1.393 . S
C211 N215 1.413 . S
C212 H205 0.930 . S
C212 C211 1.393 . S
C212 C213 1.399 . S
C213 C212 1.399 . S
C213 C214 1.381 . S
C214 H206 0.930 . S
C214 C210 1.390 . S
C214 C213 1.381 . S
N215 C208 1.286 . S
N215 C211 1.413 . S
H216 C221 0.930 . S
H217 C224 0.930 . S
H218 C226 0.930 . S
H219 C220 1.016 . S
C220 H219 1.016 . S
C220 N227 1.286 . S
C221 H216 0.930 . S
C221 C222 1.397 . S
C221 C223 1.361 . S
C222 C221 1.397 . S
C222 C226 1.390 . S
C223 C221 1.361 . S
C223 C224 1.393 . S
C223 N227 1.413 . S
C224 H217 0.930 . S
C224 C223 1.393 . S
C224 C225 1.399 . S
C225 C224 1.399 . S
C225 C226 1.381 . S
C226 H218 0.930 . S
C226 C222 1.390 . S
C226 C225 1.381 . S
N227 C220 1.286 . S
N227 C223 1.413 . S
H228 C233 0.930 . S
H229 C236 0.930 . S
H230 C238 0.930 . S
H231 C232 1.016 . S
C232 H231 1.016 . S
C232 N239 1.286 . S
C233 H228 0.930 . S
C233 C234 1.397 . S
C233 C235 1.361 . S
C234 C233 1.397 . S
C234 C238 1.390 . S
C235 C233 1.361 . S
C235 C236 1.393 . S
C235 N239 1.413 . S
C236 H229 0.930 . S
C236 C235 1.393 . S
C236 C237 1.399 . S
C237 C236 1.399 . S
C237 C238 1.381 . S
C238 H230 0.930 . S
C238 C234 1.390 . S
C238 C237 1.381 . S
N239 C232 1.286 . S
N239 C235 1.413 . S
H240 C245 0.930 . S
H241 C248 0.930 . S
H242 C250 0.930 . S
H243 C244 1.016 . S
C244 H243 1.016 . S
C244 N251 1.286 . S
C245 H240 0.930 . S
C245 C246 1.397 . S
C245 C247 1.361 . S
C246 C245 1.397 . S
C246 C250 1.390 . S
C247 C245 1.361 . S
C247 C248 1.393 . S
C247 N251 1.413 . S
C248 H241 0.930 . S
C248 C247 1.393 . S
C248 C249 1.399 . S
C249 C248 1.399 . S
C249 C250 1.381 . S
C250 H242 0.930 . S
C250 C246 1.390 . S
C250 C249 1.381 . S
N251 C244 1.286 . S
N251 C247 1.413 . S
H252 C257 0.930 . S
H253 C260 0.930 . S
H254 C262 0.930 . S
H255 C256 1.016 . S
C256 H255 1.016 . S
C256 N263 1.286 . S
C257 H252 0.930 . S
C257 C258 1.397 . S
C257 C259 1.361 . S
C258 C257 1.397 . S
C258 C262 1.390 . S
C259 C257 1.361 . S
C259 C260 1.393 . S
C259 N263 1.413 . S
C260 H253 0.930 . S
C260 C259 1.393 . S
C260 C261 1.399 . S
C261 C260 1.399 . S
C261 C262 1.381 . S
C262 H254 0.930 . S
C262 C258 1.390 . S
C262 C261 1.381 . S
N263 C256 1.286 . S
N263 C259 1.413 . S
H264 C269 0.930 . S
H265 C272 0.930 . S
H266 C274 0.930 . S
H267 C268 1.016 . S
C268 H267 1.016 . S
C268 N275 1.286 . S
C269 H264 0.930 . S
C269 C270 1.397 . S
C269 C271 1.361 . S
C270 C269 1.397 . S
C270 C274 1.390 . S
C271 C269 1.361 . S
C271 C272 1.393 . S
C271 N275 1.413 . S
C272 H265 0.930 . S
C272 C271 1.393 . S
C272 C273 1.399 . S
C273 C272 1.399 . S
C273 C274 1.381 . S
C274 H266 0.930 . S
C274 C270 1.390 . S
C274 C273 1.381 . S
N275 C268 1.286 . S
N275 C271 1.413 . S
H276 C281 0.930 . S
H277 C284 0.930 . S
H278 C286 0.930 . S
H279 C280 1.016 . S
C280 H279 1.016 . S
C280 N287 1.286 . S
C281 H276 0.930 . S
C281 C282 1.397 . S
C281 C283 1.361 . S
C282 C281 1.397 . S
C282 C286 1.390 . S
C283 C281 1.361 . S
C283 C284 1.393 . S
C283 N287 1.413 . S
C284 H277 0.930 . S
C284 C283 1.393 . S
C284 C285 1.399 . S
C285 C284 1.399 . S
C285 C286 1.381 . S
C286 H278 0.930 . S
C286 C282 1.390 . S
C286 C285 1.381 . S
N287 C280 1.286 . S
N287 C283 1.413 . S
H288 C293 0.930 . S
H289 C296 0.930 . S
H290 C298 0.930 . S
H291 C292 1.016 . S
C292 H291 1.016 . S
C292 N299 1.286 . S
C293 H288 0.930 . S
C293 C294 1.397 . S
C293 C295 1.361 . S
C294 C293 1.397 . S
C294 C298 1.390 . S
C295 C293 1.361 . S
C295 C296 1.393 . S
C295 N299 1.413 . S
C296 H289 0.930 . S
C296 C295 1.393 . S
C296 C297 1.399 . S
C297 C296 1.399 . S
C297 C298 1.381 . S
C298 H290 0.930 . S
C298 C294 1.390 . S
C298 C297 1.381 . S
N299 C292 1.286 . S
N299 C295 1.413 . S
H300 C305 0.930 . S
H301 C308 0.930 . S
H302 C310 0.930 . S
H303 C304 1.016 . S
C304 H303 1.016 . S
C304 N311 1.286 . S
C305 H300 0.930 . S
C305 C306 1.397 . S
C305 C307 1.361 . S
C306 C305 1.397 . S
C306 C310 1.390 . S
C307 C305 1.361 . S
C307 C308 1.393 . S
C307 N311 1.413 . S
C308 H301 0.930 . S
C308 C307 1.393 . S
C308 C309 1.399 . S
C309 C308 1.399 . S
C309 C310 1.381 . S
C310 H302 0.930 . S
C310 C306 1.390 . S
C310 C309 1.381 . S
N311 C304 1.286 . S
N311 C307 1.413 . S
H312 C317 0.930 . S
H313 C320 0.930 . S
H314 C322 0.930 . S
H315 C316 1.016 . S
C316 H315 1.016 . S
C316 N323 1.286 . S
C317 H312 0.930 . S
C317 C318 1.397 . S
C317 C319 1.361 . S
C318 C317 1.397 . S
C318 C322 1.390 . S
C319 C317 1.361 . S
C319 C320 1.393 . S
C319 N323 1.413 . S
C320 H313 0.930 . S
C320 C319 1.393 . S
C320 C321 1.399 . S
C321 C320 1.399 . S
C321 C322 1.381 . S
C322 H314 0.930 . S
C322 C318 1.390 . S
C322 C321 1.381 . S
N323 C316 1.286 . S
N323 C319 1.413 . S
H324 C329 0.930 . S
H325 C332 0.930 . S
H326 C334 0.930 . S
H327 C328 1.016 . S
C328 H327 1.016 . S
C328 N335 1.286 . S
C329 H324 0.930 . S
C329 C330 1.397 . S
C329 C331 1.361 . S
C330 C329 1.397 . S
C330 C334 1.390 . S
C331 C329 1.361 . S
C331 C332 1.393 . S
C331 N335 1.413 . S
C332 H325 0.930 . S
C332 C331 1.393 . S
C332 C333 1.399 . S
C333 C332 1.399 . S
C333 C334 1.381 . S
C334 H326 0.930 . S
C334 C330 1.390 . S
C334 C333 1.381 . S
N335 C328 1.286 . S
N335 C331 1.413 . S
H336 C341 0.930 . S
H337 C344 0.930 . S
H338 C346 0.930 . S
H339 C340 1.016 . S
C340 H339 1.016 . S
C340 N347 1.286 . S
C341 H336 0.930 . S
C341 C342 1.397 . S
C341 C343 1.361 . S
C342 C341 1.397 . S
C342 C346 1.390 . S
C343 C341 1.361 . S
C343 C344 1.393 . S
C343 N347 1.413 . S
C344 H337 0.930 . S
C344 C343 1.393 . S
C344 C345 1.399 . S
C345 C344 1.399 . S
C345 C346 1.381 . S
C346 H338 0.930 . S
C346 C342 1.390 . S
C346 C345 1.381 . S
N347 C340 1.286 . S
N347 C343 1.413 . S
H348 C353 0.930 . S
H349 C356 0.930 . S
H350 C358 0.930 . S
H351 C352 1.016 . S
C352 H351 1.016 . S
C352 N359 1.286 . S
C353 H348 0.930 . S
C353 C354 1.397 . S
C353 C355 1.361 . S
C354 C353 1.397 . S
C354 C358 1.390 . S
C355 C353 1.361 . S
C355 C356 1.393 . S
C355 N359 1.413 . S
C356 H349 0.930 . S
C356 C355 1.393 . S
C356 C357 1.399 . S
C357 C356 1.399 . S
C357 C358 1.381 . S
C358 H350 0.930 . S
C358 C354 1.390 . S
C358 C357 1.381 . S
N359 C352 1.286 . S
N359 C355 1.413 . S
H360 C365 0.930 . S
H361 C368 0.930 . S
H362 C370 0.930 . S
H363 C364 1.016 . S
C364 H363 1.016 . S
C364 N371 1.286 . S
C365 H360 0.930 . S
C365 C366 1.397 . S
C365 C367 1.361 . S
C366 C365 1.397 . S
C366 C370 1.390 . S
C367 C365 1.361 . S
C367 C368 1.393 . S
C367 N371 1.413 . S
C368 H361 0.930 . S
C368 C367 1.393 . S
C368 C369 1.399 . S
C369 C368 1.399 . S
C369 C370 1.381 . S
C370 H362 0.930 . S
C370 C366 1.390 . S
C370 C369 1.381 . S
N371 C364 1.286 . S
N371 C367 1.413 . S
H372 C377 0.930 . S
H373 C380 0.930 . S
H374 C382 0.930 . S
H375 C376 1.016 . S
C376 H375 1.016 . S
C376 N383 1.286 . S
C377 H372 0.930 . S
C377 C378 1.397 . S
C377 C379 1.361 . S
C378 C377 1.397 . S
C378 C382 1.390 . S
C379 C377 1.361 . S
C379 C380 1.393 . S
C379 N383 1.413 . S
C380 H373 0.930 . S
C380 C379 1.393 . S
C380 C381 1.399 . S
C381 C380 1.399 . S
C381 C382 1.381 . S
C382 H374 0.930 . S
C382 C378 1.390 . S
C382 C381 1.381 . S
N383 C376 1.286 . S
N383 C379 1.413 . S
Cu384 N385 1.999 . S
Cu384 O390 1.974 1_554 S
Cu384 N395 1.985 . S
Cu384 O404 1.959 . S
N385 Cu384 1.999 . S
N385 C387 1.263 1_554 S
N385 C389 1.389 . S
N386 C387 1.358 . S
N386 C388 1.400 . S
C387 N385 1.263 1_556 S
C387 N386 1.358 . S
C387 H393 0.930 . S
C388 N386 1.400 . S
C388 C389 1.351 1_556 S
C388 H405 0.930 . S
C389 N385 1.389 . S
C389 C388 1.351 1_554 S
C389 H394 0.930 . S
O390 Cu384 1.974 1_556 S
O390 C400 1.282 . S
C391 O392 1.261 . S
C391 O404 1.251 . S
O392 C391 1.261 . S
H393 C387 0.930 . S
H394 C389 0.930 . S
N395 Cu384 1.985 . S
N395 C397 1.335 . S
N395 C398 1.390 . S
N396 C397 1.345 . S
N396 C399 1.336 . S
C397 N395 1.335 . S
C397 N396 1.345 . S
C397 H402 0.930 . S
C398 N395 1.390 . S
C398 C399 1.346 . S
C398 H403 0.930 . S
C399 N396 1.336 . S
C399 C398 1.346 . S
C399 H406 0.929 . S
C400 O390 1.282 . S
C400 O401 1.215 1_556 S
O401 C400 1.215 1_554 S
H402 C397 0.930 . S
H403 C398 0.930 . S
O404 Cu384 1.959 . S
O404 C391 1.251 . S
H405 C388 0.930 . S
H406 C399 0.929 . S
Cu407 N408 1.999 . S
Cu407 O413 1.974 . S
Cu407 N418 1.985 1_554 S
Cu407 O427 1.959 1_554 S
N408 Cu407 1.999 . S
N408 C410 1.263 . S
N408 C412 1.389 . S
N409 C410 1.358 . S
N409 C411 1.400 . S
C410 N408 1.263 . S
C410 N409 1.358 . S
C410 H416 0.930 . S
C411 N409 1.400 . S
C411 C412 1.351 . S
C411 H428 0.930 . S
C412 N408 1.389 . S
C412 C411 1.351 . S
C412 H417 0.930 . S
O413 Cu407 1.974 . S
O413 C423 1.282 . S
C414 O415 1.261 . S
C414 O427 1.251 . S
O415 C414 1.261 . S
H416 C410 0.930 . S
H417 C412 0.930 . S
N418 Cu407 1.985 1_556 S
N418 C420 1.335 . S
N418 C421 1.390 . S
N419 C420 1.345 . S
N419 C422 1.336 . S
C420 N418 1.335 . S
C420 N419 1.345 . S
C420 H425 0.930 . S
C421 N418 1.390 . S
C421 C422 1.346 . S
C421 H426 0.930 1_556 S
C422 N419 1.336 . S
C422 C421 1.346 . S
C422 H429 0.929 . S
C423 O413 1.282 . S
C423 O424 1.216 . S
O424 C423 1.216 . S
H425 C420 0.930 . S
H426 C421 0.930 1_554 S
O427 Cu407 1.959 1_556 S
O427 C414 1.251 . S
H428 C411 0.930 . S
H429 C422 0.929 . S
Cu430 N431 1.999 1_554 S
Cu430 O436 1.974 1_554 S
Cu430 N441 1.985 . S
Cu430 O450 1.959 . S
N431 Cu430 1.999 1_556 S
N431 C433 1.263 . S
N431 C435 1.389 . S
N432 C433 1.358 . S
N432 C434 1.400 . S
C433 N431 1.263 . S
C433 N432 1.358 . S
C433 H439 0.930 . S
C434 N432 1.400 . S
C434 C435 1.351 . S
C434 H451 0.930 . S
C435 N431 1.389 . S
C435 C434 1.351 . S
C435 H440 0.974 . S
O436 Cu430 1.974 1_556 S
O436 C446 1.282 . S
C437 O438 1.261 . S
C437 O450 1.251 . S
O438 C437 1.261 . S
H439 C433 0.930 . S
H440 C435 0.974 . S
N441 Cu430 1.985 . S
N441 C443 1.335 . S
N441 C444 1.390 . S
N442 C443 1.345 . S
N442 C445 1.336 . S
C443 N441 1.335 . S
C443 N442 1.345 . S
C443 H448 0.930 . S
C444 N441 1.390 . S
C444 C445 1.346 . S
C444 H449 0.930 . S
C445 N442 1.336 . S
C445 C444 1.346 . S
C445 H452 0.929 . S
C446 O436 1.282 . S
C446 O447 1.216 . S
O447 C446 1.216 . S
H448 C443 0.930 . S
H449 C444 0.930 . S
O450 Cu430 1.959 . S
O450 C437 1.251 . S
H451 C434 0.930 . S
H452 C445 0.929 . S
Cu453 N454 1.999 1_556 S
Cu453 O459 1.974 1_556 S
Cu453 N464 1.985 . S
Cu453 O473 1.959 . S
N454 Cu453 1.999 1_554 S
N454 C456 1.263 . S
N454 C458 1.389 . S
N455 C456 1.358 . S
N455 C457 1.400 . S
C456 N454 1.263 . S
C456 N455 1.358 . S
C456 H462 0.930 . S
C457 N455 1.400 . S
C457 C458 1.351 . S
C457 H474 0.930 . S
C458 N454 1.389 . S
C458 C457 1.351 . S
C458 H463 0.930 . S
O459 Cu453 1.974 1_554 S
O459 C469 1.282 . S
C460 O461 1.261 . S
C460 O473 1.251 . S
O461 C460 1.261 . S
H462 C456 0.930 . S
H463 C458 0.930 . S
N464 Cu453 1.985 . S
N464 C466 1.335 . S
N464 C467 1.390 . S
N465 C466 1.345 . S
N465 C468 1.336 . S
C466 N464 1.335 . S
C466 N465 1.345 . S
C466 H471 0.930 . S
C467 N464 1.390 . S
C467 C468 1.346 . S
C467 H472 0.930 . S
C468 N465 1.336 . S
C468 C467 1.346 . S
C468 H475 0.929 . S
C469 O459 1.282 . S
C469 O470 1.216 . S
O470 C469 1.216 . S
H471 C466 0.930 . S
H472 C467 0.930 . S
O473 Cu453 1.959 . S
O473 C460 1.251 . S
H474 C457 0.930 . S
H475 C468 0.929 . S
Cu476 N477 1.999 . S
Cu476 O482 1.974 . S
Cu476 N487 1.985 . S
Cu476 O496 1.959 . S
N477 Cu476 1.999 . S
N477 C479 1.263 . S
N477 C481 1.389 . S
N478 C479 1.358 . S
N478 C480 1.400 . S
C479 N477 1.263 . S
C479 N478 1.358 . S
C479 H485 0.930 . S
C480 N478 1.400 . S
C480 C481 1.351 . S
C480 H497 0.930 . S
C481 N477 1.389 . S
C481 C480 1.351 . S
C481 H486 0.930 . S
O482 Cu476 1.974 . S
O482 C492 1.282 . S
C483 O484 1.261 . S
C483 O496 1.251 1_655 S
O484 C483 1.261 . S
H485 C479 0.930 . S
H486 C481 0.930 . S
N487 Cu476 1.985 . S
N487 C489 1.335 1_455 S
N487 C490 1.390 . S
N488 C489 1.345 . S
N488 C491 1.336 . S
C489 N487 1.335 1_655 S
C489 N488 1.345 . S
C489 H494 0.930 . S
C490 N487 1.390 . S
C490 C491 1.346 1_455 S
C490 H495 0.930 . S
C491 N488 1.336 . S
C491 C490 1.346 1_655 S
C491 H498 0.929 . S
C492 O482 1.282 . S
C492 O493 1.216 . S
O493 C492 1.216 . S
H494 C489 0.930 . S
H495 C490 0.930 . S
O496 Cu476 1.959 . S
O496 C483 1.251 1_455 S
H497 C480 0.930 . S
H498 C491 0.929 . S
Cu499 N500 1.999 . S
Cu499 O505 1.974 . S
Cu499 N510 1.981 . S
Cu499 O519 1.959 1_545 S
N500 Cu499 1.999 . S
N500 C502 1.263 . S
N500 C504 1.389 . S
N501 C502 1.358 . S
N501 C503 1.400 . S
C502 N500 1.263 . S
C502 N501 1.358 . S
C502 H508 0.930 . S
C503 N501 1.400 . S
C503 C504 1.351 . S
C503 H520 0.930 . S
C504 N500 1.389 . S
C504 C503 1.351 . S
C504 H509 0.930 . S
O505 Cu499 1.974 . S
O505 C515 1.282 . S
C506 O507 1.261 1_565 S
C506 O519 1.251 . S
O507 C506 1.261 1_545 S
H508 C502 0.930 . S
H509 C504 0.930 . S
N510 Cu499 1.981 . S
N510 C512 1.341 1_545 S
N510 C513 1.389 . S
N511 C512 1.345 . S
N511 C514 1.336 . S
C512 N510 1.341 1_565 S
C512 N511 1.345 . S
C512 H517 0.930 . S
C513 N510 1.389 . S
C513 C514 1.346 1_545 S
C513 H518 0.930 . S
C514 N511 1.336 . S
C514 C513 1.346 1_565 S
C514 H521 0.929 . S
C515 O505 1.282 . S
C515 O516 1.216 . S
O516 C515 1.216 . S
H517 C512 0.930 . S
H518 C513 0.930 . S
O519 Cu499 1.959 1_565 S
O519 C506 1.251 . S
H520 C503 0.930 . S
H521 C514 0.929 . S
Cu522 N523 1.999 . S
Cu522 O528 1.974 . S
Cu522 N533 1.985 1_655 S
Cu522 O542 1.959 1_655 S
N523 Cu522 1.999 . S
N523 C525 1.263 . S
N523 C527 1.389 . S
N524 C525 1.358 . S
N524 C526 1.400 . S
C525 N523 1.263 . S
C525 N524 1.358 . S
C525 H531 0.930 . S
C526 N524 1.400 . S
C526 C527 1.351 . S
C526 H543 0.930 . S
C527 N523 1.389 . S
C527 C526 1.351 . S
C527 H532 0.930 1_655 S
O528 Cu522 1.974 . S
O528 C538 1.282 . S
C529 O530 1.261 . S
C529 O542 1.251 . S
O530 C529 1.261 . S
H531 C525 0.930 . S
H532 C527 0.930 1_455 S
N533 Cu522 1.985 1_455 S
N533 C535 1.335 . S
N533 C536 1.390 . S
N534 C535 1.345 . S
N534 C537 1.336 . S
C535 N533 1.335 . S
C535 N534 1.345 . S
C535 H540 0.930 . S
C536 N533 1.390 . S
C536 C537 1.346 . S
C536 H541 0.930 1_455 S
C537 N534 1.336 . S
C537 C536 1.346 . S
C537 H544 0.929 . S
C538 O528 1.282 . S
C538 O539 1.216 . S
O539 C538 1.216 . S
H540 C535 0.930 . S
H541 C536 0.930 1_655 S
O542 Cu522 1.959 1_455 S
O542 C529 1.251 . S
H543 C526 0.930 . S
H544 C537 0.929 . S
Cu545 N546 2.034 . S
Cu545 O551 2.014 . S
Cu545 N556 1.952 1_545 S
Cu545 O565 1.920 1_545 S
N546 Cu545 2.034 . S
N546 C548 1.263 . S
N546 C550 1.389 . S
N547 C548 1.358 . S
N547 C549 1.400 . S
C548 N546 1.263 . S
C548 N547 1.358 . S
C548 H554 0.930 . S
C549 N547 1.400 . S
C549 C550 1.351 . S
C549 H566 0.930 . S
C550 N546 1.389 . S
C550 C549 1.351 . S
C550 H555 0.930 . S
O551 Cu545 2.014 . S
O551 C561 1.282 . S
C552 O553 1.261 . S
C552 O565 1.251 . S
O553 C552 1.261 . S
H554 C548 0.930 . S
H555 C550 0.930 . S
N556 Cu545 1.952 1_565 S
N556 C558 1.335 . S
N556 C559 1.390 . S
N557 C558 1.345 . S
N557 C560 1.336 . S
C558 N556 1.335 . S
C558 N557 1.345 . S
C558 H563 0.930 . S
C559 N556 1.390 . S
C559 C560 1.346 . S
C559 H564 0.930 . S
C560 N557 1.336 . S
C560 C559 1.346 . S
C560 H567 0.929 . S
C561 O551 1.282 . S
C561 O562 1.216 . S
O562 C561 1.216 . S
H563 C558 0.930 . S
H564 C559 0.930 . S
O565 Cu545 1.920 1_565 S
O565 C552 1.251 . S
H566 C549 0.930 . S
H567 C560 0.929 . S
Cu568 N569 1.999 . S
Cu568 O574 1.974 . S
Cu568 N579 1.985 . S
Cu568 O588 1.959 . S
N569 Cu568 1.999 . S
N569 C571 1.263 . S
N569 C573 1.389 . S
N570 C571 1.358 . S
N570 C572 1.400 . S
C571 N569 1.263 . S
C571 N570 1.358 . S
C571 H577 0.930 . S
C572 N570 1.400 . S
C572 C573 1.351 . S
C572 H589 0.930 . S
C573 N569 1.389 . S
C573 C572 1.351 . S
C573 H578 0.930 . S
O574 Cu568 1.974 . S
O574 C584 1.282 . S
C575 O576 1.261 . S
C575 O588 1.251 1_655 S
O576 C575 1.261 . S
H577 C571 0.930 . S
H578 C573 0.930 . S
N579 Cu568 1.985 . S
N579 C581 1.335 1_455 S
N579 C582 1.390 . S
N580 C581 1.345 . S
N580 C583 1.336 . S
C581 N579 1.335 1_655 S
C581 N580 1.345 . S
C581 H586 0.930 . S
C582 N579 1.390 . S
C582 C583 1.346 1_455 S
C582 H587 0.930 . S
C583 N580 1.336 . S
C583 C582 1.346 1_655 S
C583 H590 0.929 . S
C584 O574 1.282 . S
C584 O585 1.216 . S
O585 C584 1.216 . S
H586 C581 0.930 . S
H587 C582 0.930 . S
O588 Cu568 1.959 . S
O588 C575 1.251 1_455 S
H589 C572 0.930 . S
H590 C583 0.929 . S
Cu591 N592 1.999 . S
Cu591 O597 1.974 . S
Cu591 N602 1.985 . S
Cu591 O611 1.959 . S
N592 Cu591 1.999 . S
N592 C594 1.263 . S
N592 C596 1.389 . S
N593 C594 1.358 . S
N593 C595 1.400 . S
C594 N592 1.263 . S
C594 N593 1.358 . S
C594 H600 0.930 . S
C595 N593 1.400 . S
C595 C596 1.351 . S
C595 H612 0.930 . S
C596 N592 1.389 . S
C596 C595 1.351 . S
C596 H601 0.930 . S
O597 Cu591 1.974 . S
O597 C607 1.282 . S
C598 O599 1.261 . S
C598 O611 1.251 . S
O599 C598 1.261 . S
H600 C594 0.930 . S
H601 C596 0.930 . S
N602 Cu591 1.985 . S
N602 C604 1.335 1_545 S
N602 C605 1.390 . S
N603 C604 1.345 . S
N603 C606 1.336 . S
C604 N602 1.335 1_565 S
C604 N603 1.345 . S
C604 H609 0.930 . S
C605 N602 1.390 . S
C605 C606 1.346 1_545 S
C605 H610 0.930 . S
C606 N603 1.336 . S
C606 C605 1.346 1_565 S
C606 H613 0.929 . S
C607 O597 1.282 . S
C607 O608 1.216 . S
O608 C607 1.216 . S
H609 C604 0.930 . S
H610 C605 0.930 . S
O611 Cu591 1.959 . S
O611 C598 1.251 . S
H612 C595 0.930 . S
H613 C606 0.929 . S
Cu614 N615 1.999 . S
Cu614 O620 1.974 . S
Cu614 N625 1.985 . S
Cu614 O634 1.959 . S
N615 Cu614 1.999 . S
N615 C617 1.263 . S
N615 C619 1.389 . S
N616 C617 1.358 . S
N616 C618 1.400 . S
C617 N615 1.263 . S
C617 N616 1.358 . S
C617 H623 0.930 . S
C618 N616 1.400 . S
C618 C619 1.351 . S
C618 H635 0.930 . S
C619 N615 1.389 . S
C619 C618 1.351 . S
C619 H624 0.930 . S
O620 Cu614 1.974 . S
O620 C630 1.282 . S
C621 O622 1.261 . S
C621 O634 1.251 . S
O622 C621 1.261 . S
H623 C617 0.930 . S
H624 C619 0.930 . S
N625 Cu614 1.985 . S
N625 C627 1.335 . S
N625 C628 1.390 . S
N626 C627 1.345 . S
N626 C629 1.336 . S
C627 N625 1.335 . S
C627 N626 1.345 . S
C627 H632 0.930 . S
C628 N625 1.390 . S
C628 C629 1.346 . S
C628 H633 0.930 . S
C629 N626 1.336 . S
C629 C628 1.346 . S
C629 H636 0.929 . S
C630 O620 1.282 . S
C630 O631 1.216 . S
O631 C630 1.216 . S
H632 C627 0.930 . S
H633 C628 0.930 . S
O634 Cu614 1.959 . S
O634 C621 1.251 . S
H635 C618 0.930 . S
H636 C629 0.929 . S
Cu637 N638 1.999 . S
Cu637 O643 1.974 . S
Cu637 N648 1.985 . S
Cu637 O657 1.959 . S
N638 Cu637 1.999 . S
N638 C640 1.263 . S
N638 C642 1.389 . S
N639 C640 1.358 . S
N639 C641 1.400 . S
C640 N638 1.263 . S
C640 N639 1.358 . S
C640 H646 0.930 . S
C641 N639 1.400 . S
C641 C642 1.351 . S
C641 H658 0.930 . S
C642 N638 1.389 . S
C642 C641 1.351 . S
C642 H647 0.930 . S
O643 Cu637 1.974 . S
O643 C653 1.282 . S
C644 O645 1.261 . S
C644 O657 1.251 . S
O645 C644 1.261 . S
H646 C640 0.930 . S
H647 C642 0.930 . S
N648 Cu637 1.985 . S
N648 C650 1.335 1_545 S
N648 C651 1.390 . S
N649 C650 1.345 . S
N649 C652 1.336 . S
C650 N648 1.335 1_565 S
C650 N649 1.345 . S
C650 H655 0.930 . S
C651 N648 1.390 . S
C651 C652 1.346 1_545 S
C651 H656 0.930 . S
C652 N649 1.336 . S
C652 C651 1.346 1_565 S
C652 H659 0.929 . S
C653 O643 1.282 . S
C653 O654 1.216 . S
O654 C653 1.216 . S
H655 C650 0.930 . S
H656 C651 0.930 . S
O657 Cu637 1.959 . S
O657 C644 1.251 . S
H658 C641 0.930 . S
H659 C652 0.929 . S
Cu660 N661 1.999 . S
Cu660 O666 1.974 . S
Cu660 N671 1.985 . S
Cu660 O680 1.959 . S
N661 Cu660 1.999 . S
N661 C663 1.263 . S
N661 C665 1.389 . S
N662 C663 1.358 . S
N662 C664 1.400 . S
C663 N661 1.263 . S
C663 N662 1.358 . S
C663 H669 0.930 . S
C664 N662 1.400 . S
C664 C665 1.351 . S
C664 H681 0.930 . S
C665 N661 1.389 . S
C665 C664 1.351 . S
C665 H670 0.930 . S
O666 Cu660 1.974 . S
O666 C676 1.282 . S
C667 O668 1.261 . S
C667 O680 1.251 . S
O668 C667 1.261 . S
H669 C663 0.930 . S
H670 C665 0.930 . S
N671 Cu660 1.985 . S
N671 C673 1.335 . S
N671 C674 1.390 . S
N672 C673 1.345 . S
N672 C675 1.336 . S
C673 N671 1.335 . S
C673 N672 1.345 . S
C673 H678 0.930 . S
C674 N671 1.390 . S
C674 C675 1.346 . S
C674 H679 0.930 . S
C675 N672 1.336 . S
C675 C674 1.346 . S
C675 H682 0.929 . S
C676 O666 1.282 . S
C676 O677 1.216 . S
O677 C676 1.216 . S
H678 C673 0.930 . S
H679 C674 0.930 . S
O680 Cu660 1.959 . S
O680 C667 1.251 . S
H681 C664 0.930 . S
H682 C675 0.929 . S
Cu683 N684 1.999 . S
Cu683 O689 1.974 . S
Cu683 N694 1.985 . S
Cu683 O703 1.959 . S
N684 Cu683 1.999 . S
N684 C686 1.263 . S
N684 C688 1.389 . S
N685 C686 1.358 . S
N685 C687 1.400 . S
C686 N684 1.263 . S
C686 N685 1.358 . S
C686 H692 0.930 . S
C687 N685 1.400 . S
C687 C688 1.351 . S
C687 H704 0.930 . S
C688 N684 1.389 . S
C688 C687 1.351 . S
C688 H693 0.930 . S
O689 Cu683 1.974 . S
O689 C699 1.282 . S
C690 O691 1.261 . S
C690 O703 1.251 . S
O691 C690 1.261 . S
H692 C686 0.930 . S
H693 C688 0.930 . S
N694 Cu683 1.985 . S
N694 C696 1.335 . S
N694 C697 1.390 . S
N695 C696 1.345 . S
N695 C698 1.336 . S
C696 N694 1.335 . S
C696 N695 1.345 . S
C696 H701 0.930 . S
C697 N694 1.390 . S
C697 C698 1.346 . S
C697 H702 0.930 . S
C698 N695 1.336 . S
C698 C697 1.346 . S
C698 H705 0.929 . S
C699 O689 1.282 . S
C699 O700 1.216 . S
O700 C699 1.216 . S
H701 C696 0.930 . S
H702 C697 0.930 . S
O703 Cu683 1.959 . S
O703 C690 1.251 . S
H704 C687 0.930 . S
H705 C698 0.929 . S
Cu706 N707 1.999 . S
Cu706 O712 1.974 . S
Cu706 N717 1.985 . S
Cu706 O726 1.959 . S
N707 Cu706 1.999 . S
N707 C709 1.263 . S
N707 C711 1.389 . S
N708 C709 1.358 . S
N708 C710 1.400 . S
C709 N707 1.263 . S
C709 N708 1.358 . S
C709 H715 0.930 . S
C710 N708 1.400 . S
C710 C711 1.351 . S
C710 H727 0.930 . S
C711 N707 1.389 . S
C711 C710 1.351 . S
C711 H716 0.930 . S
O712 Cu706 1.974 . S
O712 C722 1.282 . S
C713 O714 1.261 . S
C713 O726 1.251 . S
O714 C713 1.261 . S
H715 C709 0.930 . S
H716 C711 0.930 . S
N717 Cu706 1.985 . S
N717 C719 1.335 . S
N717 C720 1.390 . S
N718 C719 1.345 . S
N718 C721 1.336 . S
C719 N717 1.335 . S
C719 N718 1.345 . S
C719 H724 0.930 . S
C720 N717 1.390 . S
C720 C721 1.346 . S
C720 H725 0.930 . S
C721 N718 1.336 . S
C721 C720 1.346 . S
C721 H728 0.929 . S
C722 O712 1.282 . S
C722 O723 1.216 . S
O723 C722 1.216 . S
H724 C719 0.930 . S
H725 C720 0.930 . S
O726 Cu706 1.959 . S
O726 C713 1.251 . S
H727 C710 0.930 . S
H728 C721 0.929 . S
Cu729 N730 1.999 . S
Cu729 O735 1.974 . S
Cu729 N740 1.985 . S
Cu729 O749 1.959 . S
N730 Cu729 1.999 . S
N730 C732 1.263 . S
N730 C734 1.389 . S
N731 C732 1.358 . S
N731 C733 1.400 . S
C732 N730 1.263 . S
C732 N731 1.358 . S
C732 H738 0.930 . S
C733 N731 1.400 . S
C733 C734 1.351 . S
C733 H750 0.930 . S
C734 N730 1.389 . S
C734 C733 1.351 . S
C734 H739 0.930 . S
O735 Cu729 1.974 . S
O735 C745 1.282 . S
C736 O737 1.261 . S
C736 O749 1.251 . S
O737 C736 1.261 . S
H738 C732 0.930 . S
H739 C734 0.930 . S
N740 Cu729 1.985 . S
N740 C742 1.335 . S
N740 C743 1.390 . S
N741 C742 1.345 . S
N741 C744 1.336 . S
C742 N740 1.335 . S
C742 N741 1.345 . S
C742 H747 0.930 . S
C743 N740 1.390 . S
C743 C744 1.346 . S
C743 H748 0.930 . S
C744 N741 1.336 . S
C744 C743 1.346 . S
C744 H751 0.929 . S
C745 O735 1.282 . S
C745 O746 1.216 . S
O746 C745 1.216 . S
H747 C742 0.930 . S
H748 C743 0.930 . S
O749 Cu729 1.959 . S
O749 C736 1.251 . S
H750 C733 0.930 . S
H751 C744 0.929 . S
Cu752 N753 1.999 . S
Cu752 O758 1.974 . S
Cu752 N763 1.985 . S
Cu752 O772 1.959 . S
N753 Cu752 1.999 . S
N753 C755 1.263 . S
N753 C757 1.389 . S
N754 C755 1.358 . S
N754 C756 1.400 . S
C755 N753 1.263 . S
C755 N754 1.358 . S
C755 H761 0.930 . S
C756 N754 1.400 . S
C756 C757 1.351 . S
C756 H773 0.930 . S
C757 N753 1.389 . S
C757 C756 1.351 . S
C757 H762 0.930 . S
O758 Cu752 1.974 . S
O758 C768 1.282 . S
C759 O760 1.261 . S
C759 O772 1.251 . S
O760 C759 1.261 . S
H761 C755 0.930 . S
H762 C757 0.930 . S
N763 Cu752 1.985 . S
N763 C765 1.335 . S
N763 C766 1.390 . S
N764 C765 1.345 . S
N764 C767 1.336 . S
C765 N763 1.335 . S
C765 N764 1.345 . S
C765 H770 0.930 . S
C766 N763 1.390 . S
C766 C767 1.346 . S
C766 H771 0.930 . S
C767 N764 1.336 . S
C767 C766 1.346 . S
C767 H774 0.929 . S
C768 O758 1.282 . S
C768 O769 1.216 . S
O769 C768 1.216 . S
H770 C765 0.930 . S
H771 C766 0.930 . S
O772 Cu752 1.959 . S
O772 C759 1.251 . S
H773 C756 0.930 . S
H774 C767 0.929 . S
Cu775 N776 1.999 . S
Cu775 O781 1.974 . S
Cu775 N786 1.985 . S
Cu775 O795 1.959 . S
N776 Cu775 1.999 . S
N776 C778 1.263 . S
N776 C780 1.389 . S
N777 C778 1.358 . S
N777 C779 1.400 . S
C778 N776 1.263 . S
C778 N777 1.358 . S
C778 H784 0.930 . S
C779 N777 1.400 . S
C779 C780 1.351 . S
C779 H796 0.930 . S
C780 N776 1.389 . S
C780 C779 1.351 . S
C780 H785 0.930 . S
O781 Cu775 1.974 . S
O781 C791 1.282 . S
C782 O783 1.261 . S
C782 O795 1.251 . S
O783 C782 1.261 . S
H784 C778 0.930 . S
H785 C780 0.930 . S
N786 Cu775 1.985 . S
N786 C788 1.335 . S
N786 C789 1.390 . S
N787 C788 1.345 . S
N787 C790 1.336 . S
C788 N786 1.335 . S
C788 N787 1.345 . S
C788 H793 0.930 . S
C789 N786 1.390 . S
C789 C790 1.346 . S
C789 H794 0.930 . S
C790 N787 1.336 . S
C790 C789 1.346 . S
C790 H797 0.929 . S
C791 O781 1.282 . S
C791 O792 1.216 . S
O792 C791 1.216 . S
H793 C788 0.930 . S
H794 C789 0.930 . S
O795 Cu775 1.959 . S
O795 C782 1.251 . S
H796 C779 0.930 . S
H797 C790 0.929 . S
Cu798 N799 1.999 . S
Cu798 O804 1.974 . S
Cu798 N809 1.985 . S
Cu798 O818 1.959 . S
N799 Cu798 1.999 . S
N799 C801 1.263 . S
N799 C803 1.389 . S
N800 C801 1.358 . S
N800 C802 1.400 . S
C801 N799 1.263 . S
C801 N800 1.358 . S
C801 H807 0.930 . S
C802 N800 1.400 . S
C802 C803 1.351 . S
C802 H819 0.930 . S
C803 N799 1.389 . S
C803 C802 1.351 . S
C803 H808 0.930 . S
O804 Cu798 1.974 . S
O804 C814 1.282 . S
C805 O806 1.261 . S
C805 O818 1.251 . S
O806 C805 1.261 . S
H807 C801 0.930 . S
H808 C803 0.930 . S
N809 Cu798 1.985 . S
N809 C811 1.335 . S
N809 C812 1.390 . S
N810 C811 1.345 . S
N810 C813 1.336 . S
C811 N809 1.335 . S
C811 N810 1.345 . S
C811 H816 0.930 . S
C812 N809 1.390 . S
C812 C813 1.346 . S
C812 H817 0.930 . S
C813 N810 1.336 . S
C813 C812 1.346 . S
C813 H820 0.929 . S
C814 O804 1.282 . S
C814 O815 1.216 . S
O815 C814 1.216 . S
H816 C811 0.930 . S
H817 C812 0.930 . S
O818 Cu798 1.959 . S
O818 C805 1.251 . S
H819 C802 0.930 . S
H820 C813 0.929 . S
Cu821 N822 1.999 . S
Cu821 O827 1.974 . S
Cu821 N832 1.985 . S
Cu821 O841 1.959 . S
N822 Cu821 1.999 . S
N822 C824 1.263 . S
N822 C826 1.389 . S
N823 C824 1.358 . S
N823 C825 1.400 . S
C824 N822 1.263 . S
C824 N823 1.358 . S
C824 H830 0.930 . S
C825 N823 1.400 . S
C825 C826 1.351 . S
C825 H842 0.930 . S
C826 N822 1.389 . S
C826 C825 1.351 . S
C826 H831 0.930 . S
O827 Cu821 1.974 . S
O827 C837 1.282 . S
C828 O829 1.261 . S
C828 O841 1.251 . S
O829 C828 1.261 . S
H830 C824 0.930 . S
H831 C826 0.930 . S
N832 Cu821 1.985 . S
N832 C834 1.335 . S
N832 C835 1.390 . S
N833 C834 1.345 . S
N833 C836 1.336 . S
C834 N832 1.335 . S
C834 N833 1.345 . S
C834 H839 0.930 . S
C835 N832 1.390 . S
C835 C836 1.346 . S
C835 H840 0.930 . S
C836 N833 1.336 . S
C836 C835 1.346 . S
C836 H843 0.929 . S
C837 O827 1.282 . S
C837 O838 1.216 . S
O838 C837 1.216 . S
H839 C834 0.930 . S
H840 C835 0.930 . S
O841 Cu821 1.959 . S
O841 C828 1.251 . S
H842 C825 0.930 . S
H843 C836 0.929 . S
Cu844 N845 1.999 . S
Cu844 O850 1.974 . S
Cu844 N855 1.985 . S
Cu844 O864 1.959 . S
N845 Cu844 1.999 . S
N845 C847 1.263 . S
N845 C849 1.389 . S
N846 C847 1.358 . S
N846 C848 1.400 . S
C847 N845 1.263 . S
C847 N846 1.358 . S
C847 H853 0.930 . S
C848 N846 1.400 . S
C848 C849 1.351 . S
C848 H865 0.930 . S
C849 N845 1.389 . S
C849 C848 1.351 . S
C849 H854 0.930 . S
O850 Cu844 1.974 . S
O850 C860 1.282 . S
C851 O852 1.261 . S
C851 O864 1.251 . S
O852 C851 1.261 . S
H853 C847 0.930 . S
H854 C849 0.930 . S
N855 Cu844 1.985 . S
N855 C857 1.335 . S
N855 C858 1.390 . S
N856 C857 1.345 . S
N856 C859 1.336 . S
C857 N855 1.335 . S
C857 N856 1.345 . S
C857 H862 0.930 . S
C858 N855 1.390 . S
C858 C859 1.346 . S
C858 H863 0.930 . S
C859 N856 1.336 . S
C859 C858 1.346 . S
C859 H866 0.929 . S
C860 O850 1.282 . S
C860 O861 1.216 . S
O861 C860 1.216 . S
H862 C857 0.930 . S
H863 C858 0.930 . S
O864 Cu844 1.959 . S
O864 C851 1.251 . S
H865 C848 0.930 . S
H866 C859 0.929 . S
Cu867 N868 1.999 . S
Cu867 O873 1.974 . S
Cu867 N878 1.985 . S
Cu867 O887 1.959 . S
N868 Cu867 1.999 . S
N868 C870 1.263 . S
N868 C872 1.389 . S
N869 C870 1.358 . S
N869 C871 1.400 . S
C870 N868 1.263 . S
C870 N869 1.358 . S
C870 H876 0.930 . S
C871 N869 1.400 . S
C871 C872 1.351 . S
C871 H888 0.930 . S
C872 N868 1.389 . S
C872 C871 1.351 . S
C872 H877 0.930 . S
O873 Cu867 1.974 . S
O873 C883 1.282 . S
C874 O875 1.261 . S
C874 O887 1.251 . S
O875 C874 1.261 . S
H876 C870 0.930 . S
H877 C872 0.930 . S
N878 Cu867 1.985 . S
N878 C880 1.335 . S
N878 C881 1.390 . S
N879 C880 1.345 . S
N879 C882 1.336 . S
C880 N878 1.335 . S
C880 N879 1.345 . S
C880 H885 0.930 . S
C881 N878 1.390 . S
C881 C882 1.346 . S
C881 H886 0.930 . S
C882 N879 1.336 . S
C882 C881 1.346 . S
C882 H889 0.929 . S
C883 O873 1.282 . S
C883 O884 1.216 . S
O884 C883 1.216 . S
H885 C880 0.930 . S
H886 C881 0.930 . S
O887 Cu867 1.959 . S
O887 C874 1.251 . S
H888 C871 0.930 . S
H889 C882 0.929 . S
Cu890 N891 1.999 . S
Cu890 O896 1.974 . S
Cu890 N901 1.985 . S
Cu890 O910 1.959 . S
N891 Cu890 1.999 . S
N891 C893 1.263 . S
N891 C895 1.389 . S
N892 C893 1.358 . S
N892 C894 1.400 . S
C893 N891 1.263 . S
C893 N892 1.358 . S
C893 H899 0.930 . S
C894 N892 1.400 . S
C894 C895 1.351 . S
C894 H911 0.930 . S
C895 N891 1.389 . S
C895 C894 1.351 . S
C895 H900 0.930 . S
O896 Cu890 1.974 . S
O896 C906 1.282 . S
C897 O898 1.261 . S
C897 O910 1.251 . S
O898 C897 1.261 . S
H899 C893 0.930 . S
H900 C895 0.930 . S
N901 Cu890 1.985 . S
N901 C903 1.335 . S
N901 C904 1.390 . S
N902 C903 1.345 . S
N902 C905 1.336 . S
C903 N901 1.335 . S
C903 N902 1.345 . S
C903 H908 0.930 . S
C904 N901 1.390 . S
C904 C905 1.346 . S
C904 H909 0.930 . S
C905 N902 1.336 . S
C905 C904 1.346 . S
C905 H912 0.929 . S
C906 O896 1.282 . S
C906 O907 1.216 . S
O907 C906 1.216 . S
H908 C903 0.930 . S
H909 C904 0.930 . S
O910 Cu890 1.959 . S
O910 C897 1.251 . S
H911 C894 0.930 . S
H912 C905 0.929 . S
Cu913 N914 1.999 . S
Cu913 O919 1.974 . S
Cu913 N924 1.985 . S
Cu913 O933 1.959 . S
N914 Cu913 1.999 . S
N914 C916 1.263 . S
N914 C918 1.389 . S
N915 C916 1.358 . S
N915 C917 1.400 . S
C916 N914 1.263 . S
C916 N915 1.358 . S
C916 H922 0.930 . S
C917 N915 1.400 . S
C917 C918 1.351 . S
C917 H934 0.930 . S
C918 N914 1.389 . S
C918 C917 1.351 . S
C918 H923 0.930 . S
O919 Cu913 1.974 . S
O919 C929 1.282 . S
C920 O921 1.261 . S
C920 O933 1.251 . S
O921 C920 1.261 . S
H922 C916 0.930 . S
H923 C918 0.930 . S
N924 Cu913 1.985 . S
N924 C926 1.335 . S
N924 C927 1.390 . S
N925 C926 1.345 . S
N925 C928 1.336 . S
C926 N924 1.335 . S
C926 N925 1.345 . S
C926 H931 0.930 . S
C927 N924 1.390 . S
C927 C928 1.346 . S
C927 H932 0.930 . S
C928 N925 1.336 . S
C928 C927 1.346 . S
C928 H935 0.929 . S
C929 O919 1.282 . S
C929 O930 1.216 . S
O930 C929 1.216 . S
H931 C926 0.930 . S
H932 C927 0.930 . S
O933 Cu913 1.959 . S
O933 C920 1.251 . S
H934 C917 0.930 . S
H935 C928 0.929 . S
H936 C948 0.930 . S
H937 C950 0.930 . S
H938 C951 0.930 . S
H939 C955 0.959 . S
H940 C955 0.959 . S
H941 C955 0.961 . S
H942 C956 0.960 . S
H943 C956 0.961 . S
H944 C956 0.959 . S
H945 C959 0.929 . S
H946 C960 0.931 . S
H947 C962 0.930 . S
C948 H936 0.930 . S
C948 C949 1.399 . S
C948 C953 1.399 . S
C949 C948 1.399 . S
C949 C950 1.376 . S
C950 H937 0.930 . S
C950 C949 1.376 . S
C950 C951 1.388 . S
C951 H938 0.930 . S
C951 C950 1.388 . S
C951 C952 1.390 . S
C952 C951 1.390 . S
C952 C953 1.394 . S
C952 C958 1.465 . S
C953 C948 1.399 . S
C953 C952 1.394 . S
C953 C954 1.516 . S
C954 C953 1.516 . S
C954 C955 1.502 . S
C954 C956 1.561 . S
C954 C957 1.526 . S
C955 H939 0.959 . S
C955 H940 0.959 . S
C955 H941 0.961 . S
C955 C954 1.502 . S
C956 H942 0.960 . S
C956 H943 0.961 . S
C956 H944 0.959 . S
C956 C954 1.561 . S
C957 C954 1.526 . S
C957 C958 1.396 . S
C957 C962 1.390 . S
C958 C952 1.465 . S
C958 C957 1.396 . S
C958 C959 1.399 . S
C959 H945 0.929 . S
C959 C958 1.399 . S
C959 C960 1.385 . S
C960 H946 0.931 . S
C960 C959 1.385 . S
C960 C961 1.389 . S
C961 C960 1.389 . S
C961 C962 1.387 . S
C962 H947 0.930 . S
C962 C957 1.390 . S
C962 C961 1.387 . S
H963 C975 0.930 . S
H964 C977 0.930 . S
H965 C978 0.930 . S
H966 C982 0.959 . S
H967 C982 0.959 . S
H968 C982 0.961 . S
H969 C983 0.960 . S
H970 C983 0.961 . S
H971 C983 0.959 . S
H972 C986 0.929 . S
H973 C987 0.931 . S
H974 C989 0.930 . S
C975 H963 0.930 . S
C975 C976 1.399 . S
C975 C980 1.399 . S
C976 C975 1.399 . S
C976 C977 1.376 . S
C977 H964 0.930 . S
C977 C976 1.376 . S
C977 C978 1.388 . S
C978 H965 0.930 . S
C978 C977 1.388 . S
C978 C979 1.390 . S
C979 C978 1.390 . S
C979 C980 1.394 . S
C979 C985 1.465 . S
C980 C975 1.399 . S
C980 C979 1.394 . S
C980 C981 1.516 . S
C981 C980 1.516 . S
C981 C982 1.502 . S
C981 C983 1.561 . S
C981 C984 1.526 . S
C982 H966 0.959 . S
C982 H967 0.959 . S
C982 H968 0.961 . S
C982 C981 1.502 . S
C983 H969 0.960 . S
C983 H970 0.961 . S
C983 H971 0.959 . S
C983 C981 1.561 . S
C984 C981 1.526 . S
C984 C985 1.396 . S
C984 C989 1.390 . S
C985 C979 1.465 . S
C985 C984 1.396 . S
C985 C986 1.399 . S
C986 H972 0.929 . S
C986 C985 1.399 . S
C986 C987 1.385 . S
C987 H973 0.931 . S
C987 C986 1.385 . S
C987 C988 1.389 . S
C988 C987 1.389 . S
C988 C989 1.387 . S
C989 H974 0.930 . S
C989 C984 1.390 . S
C989 C988 1.387 . S
H990 C1002 0.930 . S
H991 C1004 0.930 . S
H992 C1005 0.930 . S
H993 C1009 0.959 . S
H994 C1009 0.959 . S
H995 C1009 0.961 . S
H996 C1010 0.960 . S
H997 C1010 0.961 . S
H998 C1010 0.959 . S
H999 C1013 0.929 . S
H1000 C1014 0.931 . S
H1001 C1016 0.930 . S
C1002 H990 0.930 . S
C1002 C1003 1.399 . S
C1002 C1007 1.399 . S
C1003 C1002 1.399 . S
C1003 C1004 1.376 . S
C1004 H991 0.930 . S
C1004 C1003 1.376 . S
C1004 C1005 1.388 . S
C1005 H992 0.930 . S
C1005 C1004 1.388 . S
C1005 C1006 1.390 . S
C1006 C1005 1.390 . S
C1006 C1007 1.394 . S
C1006 C1012 1.465 . S
C1007 C1002 1.399 . S
C1007 C1006 1.394 . S
C1007 C1008 1.516 . S
C1008 C1007 1.516 . S
C1008 C1009 1.502 . S
C1008 C1010 1.561 . S
C1008 C1011 1.526 . S
C1009 H993 0.959 . S
C1009 H994 0.959 . S
C1009 H995 0.961 . S
C1009 C1008 1.502 . S
C1010 H996 0.960 . S
C1010 H997 0.961 . S
C1010 H998 0.959 . S
C1010 C1008 1.561 . S
C1011 C1008 1.526 . S
C1011 C1012 1.396 . S
C1011 C1016 1.390 . S
C1012 C1006 1.465 . S
C1012 C1011 1.396 . S
C1012 C1013 1.399 . S
C1013 H999 0.929 . S
C1013 C1012 1.399 . S
C1013 C1014 1.385 . S
C1014 H1000 0.931 . S
C1014 C1013 1.385 . S
C1014 C1015 1.389 . S
C1015 C1014 1.389 . S
C1015 C1016 1.387 . S
C1016 H1001 0.930 . S
C1016 C1011 1.390 . S
C1016 C1015 1.387 . S
H1017 C1029 0.930 . S
H1018 C1031 0.930 . S
H1019 C1032 0.930 . S
H1020 C1036 0.959 . S
H1021 C1036 0.959 . S
H1022 C1036 0.961 . S
H1023 C1037 0.960 . S
H1024 C1037 0.961 . S
H1025 C1037 0.959 . S
H1026 C1040 0.929 . S
H1027 C1041 0.931 . S
H1028 C1043 0.930 . S
C1029 H1017 0.930 . S
C1029 C1030 1.399 . S
C1029 C1034 1.399 . S
C1030 C1029 1.399 . S
C1030 C1031 1.376 . S
C1031 H1018 0.930 . S
C1031 C1030 1.376 . S
C1031 C1032 1.388 . S
C1032 H1019 0.930 . S
C1032 C1031 1.388 . S
C1032 C1033 1.390 . S
C1033 C1032 1.390 . S
C1033 C1034 1.394 . S
C1033 C1039 1.465 . S
C1034 C1029 1.399 . S
C1034 C1033 1.394 . S
C1034 C1035 1.516 . S
C1035 C1034 1.516 . S
C1035 C1036 1.502 . S
C1035 C1037 1.561 . S
C1035 C1038 1.526 . S
C1036 H1020 0.959 . S
C1036 H1021 0.959 . S
C1036 H1022 0.961 . S
C1036 C1035 1.502 . S
C1037 H1023 0.960 . S
C1037 H1024 0.961 . S
C1037 H1025 0.959 . S
C1037 C1035 1.561 . S
C1038 C1035 1.526 . S
C1038 C1039 1.396 . S
C1038 C1043 1.390 . S
C1039 C1033 1.465 . S
C1039 C1038 1.396 . S
C1039 C1040 1.399 . S
C1040 H1026 0.929 . S
C1040 C1039 1.399 . S
C1040 C1041 1.385 . S
C1041 H1027 0.931 . S
C1041 C1040 1.385 . S
C1041 C1042 1.389 . S
C1042 C1041 1.389 . S
C1042 C1043 1.387 . S
C1043 H1028 0.930 . S
C1043 C1038 1.390 . S
C1043 C1042 1.387 . S
H1044 C1056 0.930 . S
H1045 C1058 0.930 . S
H1046 C1059 0.930 . S
H1047 C1063 0.959 . S
H1048 C1063 0.959 . S
H1049 C1063 0.961 . S
H1050 C1064 0.960 . S
H1051 C1064 0.961 . S
H1052 C1064 0.959 . S
H1053 C1067 0.929 . S
H1054 C1068 0.931 . S
H1055 C1070 0.930 . S
C1056 H1044 0.930 . S
C1056 C1057 1.399 . S
C1056 C1061 1.399 . S
C1057 C1056 1.399 . S
C1057 C1058 1.376 . S
C1058 H1045 0.930 . S
C1058 C1057 1.376 . S
C1058 C1059 1.388 . S
C1059 H1046 0.930 . S
C1059 C1058 1.388 . S
C1059 C1060 1.390 . S
C1060 C1059 1.390 . S
C1060 C1061 1.394 . S
C1060 C1066 1.465 . S
C1061 C1056 1.399 . S
C1061 C1060 1.394 . S
C1061 C1062 1.516 . S
C1062 C1061 1.516 . S
C1062 C1063 1.502 . S
C1062 C1064 1.561 . S
C1062 C1065 1.526 . S
C1063 H1047 0.959 . S
C1063 H1048 0.959 . S
C1063 H1049 0.961 . S
C1063 C1062 1.502 . S
C1064 H1050 0.960 . S
C1064 H1051 0.961 . S
C1064 H1052 0.959 . S
C1064 C1062 1.561 . S
C1065 C1062 1.526 . S
C1065 C1066 1.396 . S
C1065 C1070 1.390 . S
C1066 C1060 1.465 . S
C1066 C1065 1.396 . S
C1066 C1067 1.399 . S
C1067 H1053 0.929 . S
C1067 C1066 1.399 . S
C1067 C1068 1.385 . S
C1068 H1054 0.931 . S
C1068 C1067 1.385 . S
C1068 C1069 1.389 . S
C1069 C1068 1.389 . S
C1069 C1070 1.387 . S
C1070 H1055 0.930 . S
C1070 C1065 1.390 . S
C1070 C1069 1.387 . S
H1071 C1083 0.930 . S
H1072 C1085 0.930 . S
H1073 C1086 0.930 . S
H1074 C1090 0.959 . S
H1075 C1090 0.959 . S
H1076 C1090 0.961 . S
H1077 C1091 0.960 . S
H1078 C1091 0.961 . S
H1079 C1091 0.959 . S
H1080 C1094 0.929 . S
H1081 C1095 0.931 . S
H1082 C1097 0.930 . S
C1083 H1071 0.930 . S
C1083 C1084 1.399 . S
C1083 C1088 1.399 . S
C1084 C1083 1.399 . S
C1084 C1085 1.376 . S
C1085 H1072 0.930 . S
C1085 C1084 1.376 . S
C1085 C1086 1.388 . S
C1086 H1073 0.930 . S
C1086 C1085 1.388 . S
C1086 C1087 1.390 . S
C1087 C1086 1.390 . S
C1087 C1088 1.394 . S
C1087 C1093 1.465 . S
C1088 C1083 1.399 . S
C1088 C1087 1.394 . S
C1088 C1089 1.516 . S
C1089 C1088 1.516 . S
C1089 C1090 1.502 . S
C1089 C1091 1.561 . S
C1089 C1092 1.526 . S
C1090 H1074 0.959 . S
C1090 H1075 0.959 . S
C1090 H1076 0.961 . S
C1090 C1089 1.502 . S
C1091 H1077 0.960 . S
C1091 H1078 0.961 . S
C1091 H1079 0.959 . S
C1091 C1089 1.561 . S
C1092 C1089 1.526 . S
C1092 C1093 1.396 . S
C1092 C1097 1.390 . S
C1093 C1087 1.465 . S
C1093 C1092 1.396 . S
C1093 C1094 1.399 . S
C1094 H1080 0.929 . S
C1094 C1093 1.399 . S
C1094 C1095 1.385 . S
C1095 H1081 0.931 . S
C1095 C1094 1.385 . S
C1095 C1096 1.389 . S
C1096 C1095 1.389 . S
C1096 C1097 1.387 . S
C1097 H1082 0.930 . S
C1097 C1092 1.390 . S
C1097 C1096 1.387 . S
H1098 C1110 0.930 . S
H1099 C1112 0.930 . S
H1100 C1113 0.930 . S
H1101 C1117 0.959 . S
H1102 C1117 0.959 . S
H1103 C1117 0.961 . S
H1104 C1118 0.960 . S
H1105 C1118 0.961 . S
H1106 C1118 0.959 . S
H1107 C1121 0.929 . S
H1108 C1122 0.931 . S
H1109 C1124 0.930 . S
C1110 H1098 0.930 . S
C1110 C1111 1.399 . S
C1110 C1115 1.399 . S
C1111 C1110 1.399 . S
C1111 C1112 1.376 . S
C1112 H1099 0.930 . S
C1112 C1111 1.376 . S
C1112 C1113 1.388 . S
C1113 H1100 0.930 . S
C1113 C1112 1.388 . S
C1113 C1114 1.390 . S
C1114 C1113 1.390 . S
C1114 C1115 1.394 . S
C1114 C1120 1.465 . S
C1115 C1110 1.399 . S
C1115 C1114 1.394 . S
C1115 C1116 1.516 . S
C1116 C1115 1.516 . S
C1116 C1117 1.502 . S
C1116 C1118 1.561 . S
C1116 C1119 1.526 . S
C1117 H1101 0.959 . S
C1117 H1102 0.959 . S
C1117 H1103 0.961 . S
C1117 C1116 1.502 . S
C1118 H1104 0.960 . S
C1118 H1105 0.961 . S
C1118 H1106 0.959 . S
C1118 C1116 1.561 . S
C1119 C1116 1.526 . S
C1119 C1120 1.396 . S
C1119 C1124 1.390 . S
C1120 C1114 1.465 . S
C1120 C1119 1.396 . S
C1120 C1121 1.399 . S
C1121 H1107 0.929 . S
C1121 C1120 1.399 . S
C1121 C1122 1.385 . S
C1122 H1108 0.931 . S
C1122 C1121 1.385 . S
C1122 C1123 1.389 . S
C1123 C1122 1.389 . S
C1123 C1124 1.387 . S
C1124 H1109 0.930 . S
C1124 C1119 1.390 . S
C1124 C1123 1.387 . S
H1125 C1137 0.930 . S
H1126 C1139 0.930 . S
H1127 C1140 0.930 . S
H1128 C1144 0.959 . S
H1129 C1144 0.959 . S
H1130 C1144 0.961 . S
H1131 C1145 0.960 . S
H1132 C1145 0.961 . S
H1133 C1145 0.959 . S
H1134 C1148 0.929 . S
H1135 C1149 0.931 . S
H1136 C1151 0.930 . S
C1137 H1125 0.930 . S
C1137 C1138 1.399 . S
C1137 C1142 1.399 . S
C1138 C1137 1.399 . S
C1138 C1139 1.376 . S
C1139 H1126 0.930 . S
C1139 C1138 1.376 . S
C1139 C1140 1.388 . S
C1140 H1127 0.930 . S
C1140 C1139 1.388 . S
C1140 C1141 1.390 . S
C1141 C1140 1.390 . S
C1141 C1142 1.394 . S
C1141 C1147 1.465 . S
C1142 C1137 1.399 . S
C1142 C1141 1.394 . S
C1142 C1143 1.516 . S
C1143 C1142 1.516 . S
C1143 C1144 1.502 . S
C1143 C1145 1.561 . S
C1143 C1146 1.526 . S
C1144 H1128 0.959 . S
C1144 H1129 0.959 . S
C1144 H1130 0.961 . S
C1144 C1143 1.502 . S
C1145 H1131 0.960 . S
C1145 H1132 0.961 . S
C1145 H1133 0.959 . S
C1145 C1143 1.561 . S
C1146 C1143 1.526 . S
C1146 C1147 1.396 . S
C1146 C1151 1.390 . S
C1147 C1141 1.465 . S
C1147 C1146 1.396 . S
C1147 C1148 1.399 . S
C1148 H1134 0.929 . S
C1148 C1147 1.399 . S
C1148 C1149 1.385 . S
C1149 H1135 0.931 . S
C1149 C1148 1.385 . S
C1149 C1150 1.389 . S
C1150 C1149 1.389 . S
C1150 C1151 1.387 . S
C1151 H1136 0.930 . S
C1151 C1146 1.390 . S
C1151 C1150 1.387 . S
H1152 C1164 0.930 . S
H1153 C1166 0.930 . S
H1154 C1167 0.930 . S
H1155 C1171 0.959 . S
H1156 C1171 0.959 . S
H1157 C1171 0.961 . S
H1158 C1172 0.960 . S
H1159 C1172 0.961 . S
H1160 C1172 0.959 . S
H1161 C1175 0.929 . S
H1162 C1176 0.931 . S
H1163 C1178 0.930 . S
C1164 H1152 0.930 . S
C1164 C1165 1.399 . S
C1164 C1169 1.399 . S
C1165 C1164 1.399 . S
C1165 C1166 1.376 . S
C1166 H1153 0.930 . S
C1166 C1165 1.376 . S
C1166 C1167 1.388 . S
C1167 H1154 0.930 . S
C1167 C1166 1.388 . S
C1167 C1168 1.390 . S
C1168 C1167 1.390 . S
C1168 C1169 1.394 . S
C1168 C1174 1.465 . S
C1169 C1164 1.399 . S
C1169 C1168 1.394 . S
C1169 C1170 1.516 . S
C1170 C1169 1.516 . S
C1170 C1171 1.502 . S
C1170 C1172 1.561 . S
C1170 C1173 1.526 . S
C1171 H1155 0.959 . S
C1171 H1156 0.959 . S
C1171 H1157 0.961 . S
C1171 C1170 1.502 . S
C1172 H1158 0.960 . S
C1172 H1159 0.961 . S
C1172 H1160 0.959 . S
C1172 C1170 1.561 . S
C1173 C1170 1.526 . S
C1173 C1174 1.396 . S
C1173 C1178 1.390 . S
C1174 C1168 1.465 . S
C1174 C1173 1.396 . S
C1174 C1175 1.399 . S
C1175 H1161 0.929 . S
C1175 C1174 1.399 . S
C1175 C1176 1.385 . S
C1176 H1162 0.931 . S
C1176 C1175 1.385 . S
C1176 C1177 1.389 . S
C1177 C1176 1.389 . S
C1177 C1178 1.387 . S
C1178 H1163 0.930 . S
C1178 C1173 1.390 . S
C1178 C1177 1.387 . S
H1179 C1191 0.930 . S
H1180 C1193 0.930 . S
H1181 C1194 0.930 . S
H1182 C1198 0.959 . S
H1183 C1198 0.959 . S
H1184 C1198 0.961 . S
H1185 C1199 0.960 . S
H1186 C1199 0.961 . S
H1187 C1199 0.959 . S
H1188 C1202 0.929 . S
H1189 C1203 0.931 . S
H1190 C1205 0.930 . S
C1191 H1179 0.930 . S
C1191 C1192 1.399 . S
C1191 C1196 1.399 . S
C1192 C1191 1.399 . S
C1192 C1193 1.376 . S
C1193 H1180 0.930 . S
C1193 C1192 1.376 . S
C1193 C1194 1.388 . S
C1194 H1181 0.930 . S
C1194 C1193 1.388 . S
C1194 C1195 1.390 . S
C1195 C1194 1.390 . S
C1195 C1196 1.394 . S
C1195 C1201 1.465 . S
C1196 C1191 1.399 . S
C1196 C1195 1.394 . S
C1196 C1197 1.516 . S
C1197 C1196 1.516 . S
C1197 C1198 1.502 . S
C1197 C1199 1.561 . S
C1197 C1200 1.526 . S
C1198 H1182 0.959 . S
C1198 H1183 0.959 . S
C1198 H1184 0.961 . S
C1198 C1197 1.502 . S
C1199 H1185 0.960 . S
C1199 H1186 0.961 . S
C1199 H1187 0.959 . S
C1199 C1197 1.561 . S
C1200 C1197 1.526 . S
C1200 C1201 1.396 . S
C1200 C1205 1.390 . S
C1201 C1195 1.465 . S
C1201 C1200 1.396 . S
C1201 C1202 1.399 . S
C1202 H1188 0.929 . S
C1202 C1201 1.399 . S
C1202 C1203 1.385 . S
C1203 H1189 0.931 . S
C1203 C1202 1.385 . S
C1203 C1204 1.389 . S
C1204 C1203 1.389 . S
C1204 C1205 1.387 . S
C1205 H1190 0.930 . S
C1205 C1200 1.390 . S
C1205 C1204 1.387 . S
H1206 C1218 0.930 . S
H1207 C1220 0.930 . S
H1208 C1221 0.930 . S
H1209 C1225 0.959 . S
H1210 C1225 0.959 . S
H1211 C1225 0.961 . S
H1212 C1226 0.960 . S
H1213 C1226 0.961 . S
H1214 C1226 0.959 . S
H1215 C1229 0.929 . S
H1216 C1230 0.931 . S
H1217 C1232 0.930 . S
C1218 H1206 0.930 . S
C1218 C1219 1.399 . S
C1218 C1223 1.399 . S
C1219 C1218 1.399 . S
C1219 C1220 1.376 . S
C1220 H1207 0.930 . S
C1220 C1219 1.376 . S
C1220 C1221 1.388 . S
C1221 H1208 0.930 . S
C1221 C1220 1.388 . S
C1221 C1222 1.390 . S
C1222 C1221 1.390 . S
C1222 C1223 1.394 . S
C1222 C1228 1.465 . S
C1223 C1218 1.399 . S
C1223 C1222 1.394 . S
C1223 C1224 1.516 . S
C1224 C1223 1.516 . S
C1224 C1225 1.502 . S
C1224 C1226 1.561 . S
C1224 C1227 1.526 . S
C1225 H1209 0.959 . S
C1225 H1210 0.959 . S
C1225 H1211 0.961 . S
C1225 C1224 1.502 . S
C1226 H1212 0.960 . S
C1226 H1213 0.961 . S
C1226 H1214 0.959 . S
C1226 C1224 1.561 . S
C1227 C1224 1.526 . S
C1227 C1228 1.396 . S
C1227 C1232 1.390 . S
C1228 C1222 1.465 . S
C1228 C1227 1.396 . S
C1228 C1229 1.399 . S
C1229 H1215 0.929 . S
C1229 C1228 1.399 . S
C1229 C1230 1.385 . S
C1230 H1216 0.931 . S
C1230 C1229 1.385 . S
C1230 C1231 1.389 . S
C1231 C1230 1.389 . S
C1231 C1232 1.387 . S
C1232 H1217 0.930 . S
C1232 C1227 1.390 . S
C1232 C1231 1.387 . S
H1233 C1245 0.930 . S
H1234 C1247 0.930 . S
H1235 C1248 0.930 . S
H1236 C1252 0.959 . S
H1237 C1252 0.959 . S
H1238 C1252 0.961 . S
H1239 C1253 0.960 . S
H1240 C1253 0.961 . S
H1241 C1253 0.959 . S
H1242 C1256 0.929 . S
H1243 C1257 0.931 . S
H1244 C1259 0.930 . S
C1245 H1233 0.930 . S
C1245 C1246 1.399 . S
C1245 C1250 1.399 . S
C1246 C1245 1.399 . S
C1246 C1247 1.376 . S
C1247 H1234 0.930 . S
C1247 C1246 1.376 . S
C1247 C1248 1.388 . S
C1248 H1235 0.930 . S
C1248 C1247 1.388 . S
C1248 C1249 1.390 . S
C1249 C1248 1.390 . S
C1249 C1250 1.394 . S
C1249 C1255 1.465 . S
C1250 C1245 1.399 . S
C1250 C1249 1.394 . S
C1250 C1251 1.516 . S
C1251 C1250 1.516 . S
C1251 C1252 1.502 . S
C1251 C1253 1.561 . S
C1251 C1254 1.526 . S
C1252 H1236 0.959 . S
C1252 H1237 0.959 . S
C1252 H1238 0.961 . S
C1252 C1251 1.502 . S
C1253 H1239 0.960 . S
C1253 H1240 0.961 . S
C1253 H1241 0.959 . S
C1253 C1251 1.561 . S
C1254 C1251 1.526 . S
C1254 C1255 1.396 . S
C1254 C1259 1.390 . S
C1255 C1249 1.465 . S
C1255 C1254 1.396 . S
C1255 C1256 1.399 . S
C1256 H1242 0.929 . S
C1256 C1255 1.399 . S
C1256 C1257 1.385 . S
C1257 H1243 0.931 . S
C1257 C1256 1.385 . S
C1257 C1258 1.389 . S
C1258 C1257 1.389 . S
C1258 C1259 1.387 . S
C1259 H1244 0.930 . S
C1259 C1254 1.390 . S
C1259 C1258 1.387 . S
H1260 C1272 0.930 . S
H1261 C1274 0.930 . S
H1262 C1275 0.930 . S
H1263 C1279 0.959 . S
H1264 C1279 0.959 . S
H1265 C1279 0.961 . S
H1266 C1280 0.960 . S
H1267 C1280 0.961 . S
H1268 C1280 0.959 . S
H1269 C1283 0.929 . S
H1270 C1284 0.931 . S
H1271 C1286 0.930 . S
C1272 H1260 0.930 . S
C1272 C1273 1.399 . S
C1272 C1277 1.399 . S
C1273 C1272 1.399 . S
C1273 C1274 1.376 . S
C1274 H1261 0.930 . S
C1274 C1273 1.376 . S
C1274 C1275 1.388 . S
C1275 H1262 0.930 . S
C1275 C1274 1.388 . S
C1275 C1276 1.390 . S
C1276 C1275 1.390 . S
C1276 C1277 1.394 . S
C1276 C1282 1.465 . S
C1277 C1272 1.399 . S
C1277 C1276 1.394 . S
C1277 C1278 1.516 . S
C1278 C1277 1.516 . S
C1278 C1279 1.502 . S
C1278 C1280 1.561 . S
C1278 C1281 1.526 . S
C1279 H1263 0.959 . S
C1279 H1264 0.959 . S
C1279 H1265 0.961 . S
C1279 C1278 1.502 . S
C1280 H1266 0.960 . S
C1280 H1267 0.961 . S
C1280 H1268 0.959 . S
C1280 C1278 1.561 . S
C1281 C1278 1.526 . S
C1281 C1282 1.396 . S
C1281 C1286 1.390 . S
C1282 C1276 1.465 . S
C1282 C1281 1.396 . S
C1282 C1283 1.399 . S
C1283 H1269 0.929 . S
C1283 C1282 1.399 . S
C1283 C1284 1.385 . S
C1284 H1270 0.931 . S
C1284 C1283 1.385 . S
C1284 C1285 1.389 . S
C1285 C1284 1.389 . S
C1285 C1286 1.387 . S
C1286 H1271 0.930 . S
C1286 C1281 1.390 . S
C1286 C1285 1.387 . S
H1287 C1299 0.930 . S
H1288 C1301 0.930 . S
H1289 C1302 0.930 . S
H1290 C1306 0.959 . S
H1291 C1306 0.959 . S
H1292 C1306 0.961 . S
H1293 C1307 0.960 . S
H1294 C1307 0.961 . S
H1295 C1307 0.959 . S
H1296 C1310 0.929 . S
H1297 C1311 0.931 . S
H1298 C1313 0.930 . S
C1299 H1287 0.930 . S
C1299 C1300 1.399 . S
C1299 C1304 1.399 . S
C1300 C1299 1.399 . S
C1300 C1301 1.376 . S
C1301 H1288 0.930 . S
C1301 C1300 1.376 . S
C1301 C1302 1.388 . S
C1302 H1289 0.930 . S
C1302 C1301 1.388 . S
C1302 C1303 1.390 . S
C1303 C1302 1.390 . S
C1303 C1304 1.394 . S
C1303 C1309 1.465 . S
C1304 C1299 1.399 . S
C1304 C1303 1.394 . S
C1304 C1305 1.516 . S
C1305 C1304 1.516 . S
C1305 C1306 1.502 . S
C1305 C1307 1.561 . S
C1305 C1308 1.526 . S
C1306 H1290 0.959 . S
C1306 H1291 0.959 . S
C1306 H1292 0.961 . S
C1306 C1305 1.502 . S
C1307 H1293 0.960 . S
C1307 H1294 0.961 . S
C1307 H1295 0.959 . S
C1307 C1305 1.561 . S
C1308 C1305 1.526 . S
C1308 C1309 1.396 . S
C1308 C1313 1.390 . S
C1309 C1303 1.465 . S
C1309 C1308 1.396 . S
C1309 C1310 1.399 . S
C1310 H1296 0.929 . S
C1310 C1309 1.399 . S
C1310 C1311 1.385 . S
C1311 H1297 0.931 . S
C1311 C1310 1.385 . S
C1311 C1312 1.389 . S
C1312 C1311 1.389 . S
C1312 C1313 1.387 . S
C1313 H1298 0.930 . S
C1313 C1308 1.390 . S
C1313 C1312 1.387 . S
H1314 C1326 0.930 . S
H1315 C1328 0.930 . S
H1316 C1329 0.930 . S
H1317 C1333 0.959 . S
H1318 C1333 0.959 . S
H1319 C1333 0.961 . S
H1320 C1334 0.960 . S
H1321 C1334 0.961 . S
H1322 C1334 0.959 . S
H1323 C1337 0.929 . S
H1324 C1338 0.892 1_455 S
H1325 C1340 0.930 . S
C1326 H1314 0.930 . S
C1326 C1327 1.399 . S
C1326 C1331 1.399 . S
C1327 C1326 1.399 . S
C1327 C1328 1.376 . S
C1328 H1315 0.930 . S
C1328 C1327 1.376 . S
C1328 C1329 1.388 . S
C1329 H1316 0.930 . S
C1329 C1328 1.388 . S
C1329 C1330 1.390 . S
C1330 C1329 1.390 . S
C1330 C1331 1.394 . S
C1330 C1336 1.465 . S
C1331 C1326 1.399 . S
C1331 C1330 1.394 . S
C1331 C1332 1.516 . S
C1332 C1331 1.516 . S
C1332 C1333 1.502 . S
C1332 C1334 1.561 . S
C1332 C1335 1.526 . S
C1333 H1317 0.959 . S
C1333 H1318 0.959 . S
C1333 H1319 0.961 . S
C1333 C1332 1.502 . S
C1334 H1320 0.960 . S
C1334 H1321 0.961 . S
C1334 H1322 0.959 . S
C1334 C1332 1.561 . S
C1335 C1332 1.526 . S
C1335 C1336 1.396 . S
C1335 C1340 1.390 . S
C1336 C1330 1.465 . S
C1336 C1335 1.396 . S
C1336 C1337 1.399 . S
C1337 H1323 0.929 . S
C1337 C1336 1.399 . S
C1337 C1338 1.385 . S
C1338 H1324 0.892 1_655 S
C1338 C1337 1.385 . S
C1338 C1339 1.389 . S
C1339 C1338 1.389 . S
C1339 C1340 1.387 . S
C1340 H1325 0.930 . S
C1340 C1335 1.390 . S
C1340 C1339 1.387 . S
H1341 C1353 0.930 . S
H1342 C1355 0.930 . S
H1343 C1356 0.930 . S
H1344 C1360 0.959 . S
H1345 C1360 0.959 . S
H1346 C1360 0.961 . S
H1347 C1361 0.960 . S
H1348 C1361 0.961 . S
H1349 C1361 0.959 . S
H1350 C1364 0.929 . S
H1351 C1365 0.905 1_545 S
H1352 C1367 0.930 . S
C1353 H1341 0.930 . S
C1353 C1354 1.399 . S
C1353 C1358 1.399 . S
C1354 C1353 1.399 . S
C1354 C1355 1.376 . S
C1355 H1342 0.930 . S
C1355 C1354 1.376 . S
C1355 C1356 1.388 . S
C1356 H1343 0.930 . S
C1356 C1355 1.388 . S
C1356 C1357 1.390 . S
C1357 C1356 1.390 . S
C1357 C1358 1.394 . S
C1357 C1363 1.465 . S
C1358 C1353 1.399 . S
C1358 C1357 1.394 . S
C1358 C1359 1.516 . S
C1359 C1358 1.516 . S
C1359 C1360 1.502 . S
C1359 C1361 1.561 . S
C1359 C1362 1.526 . S
C1360 H1344 0.959 . S
C1360 H1345 0.959 . S
C1360 H1346 0.961 . S
C1360 C1359 1.502 . S
C1361 H1347 0.960 . S
C1361 H1348 0.961 . S
C1361 H1349 0.959 . S
C1361 C1359 1.561 . S
C1362 C1359 1.526 . S
C1362 C1363 1.396 . S
C1362 C1367 1.390 . S
C1363 C1357 1.465 . S
C1363 C1362 1.396 . S
C1363 C1364 1.399 . S
C1364 H1350 0.929 . S
C1364 C1363 1.399 . S
C1364 C1365 1.411 . S
C1365 H1351 0.905 1_565 S
C1365 C1364 1.411 . S
C1365 C1366 1.390 1_565 S
C1366 C1365 1.390 1_545 S
C1366 C1367 1.383 1_545 S
C1367 H1352 0.930 . S
C1367 C1362 1.390 . S
C1367 C1366 1.383 1_565 S
H1368 C1380 0.930 . S
H1369 C1382 0.930 . S
H1370 C1383 0.930 . S
H1371 C1387 0.959 . S
H1372 C1387 0.959 . S
H1373 C1387 0.961 . S
H1374 C1388 0.960 . S
H1375 C1388 0.961 . S
H1376 C1388 0.959 . S
H1377 C1391 0.929 . S
H1378 C1392 0.931 . S
H1379 C1394 0.930 . S
C1380 H1368 0.930 . S
C1380 C1381 1.399 . S
C1380 C1385 1.399 . S
C1381 C1380 1.399 . S
C1381 C1382 1.376 . S
C1382 H1369 0.930 . S
C1382 C1381 1.376 . S
C1382 C1383 1.388 . S
C1383 H1370 0.930 . S
C1383 C1382 1.388 . S
C1383 C1384 1.390 . S
C1384 C1383 1.390 . S
C1384 C1385 1.394 . S
C1384 C1390 1.465 . S
C1385 C1380 1.399 . S
C1385 C1384 1.394 . S
C1385 C1386 1.516 . S
C1386 C1385 1.516 . S
C1386 C1387 1.502 . S
C1386 C1388 1.561 . S
C1386 C1389 1.526 . S
C1387 H1371 0.959 . S
C1387 H1372 0.959 . S
C1387 H1373 0.961 . S
C1387 C1386 1.502 . S
C1388 H1374 0.960 . S
C1388 H1375 0.961 . S
C1388 H1376 0.959 . S
C1388 C1386 1.561 . S
C1389 C1386 1.526 . S
C1389 C1390 1.396 . S
C1389 C1394 1.390 . S
C1390 C1384 1.465 . S
C1390 C1389 1.396 . S
C1390 C1391 1.399 . S
C1391 H1377 0.929 . S
C1391 C1390 1.399 . S
C1391 C1392 1.385 . S
C1392 H1378 0.931 . S
C1392 C1391 1.385 . S
C1392 C1393 1.389 . S
C1393 C1392 1.389 . S
C1393 C1394 1.387 . S
C1394 H1379 0.930 . S
C1394 C1389 1.390 . S
C1394 C1393 1.387 . S
H1395 C1407 0.930 . S
H1396 C1409 0.930 . S
H1397 C1410 0.930 . S
H1398 C1414 0.959 . S
H1399 C1414 0.959 . S
H1400 C1414 0.961 . S
H1401 C1415 0.960 . S
H1402 C1415 0.961 . S
H1403 C1415 0.959 . S
H1404 C1418 0.929 . S
H1405 C1419 0.931 . S
H1406 C1421 0.930 . S
C1407 H1395 0.930 . S
C1407 C1408 1.399 . S
C1407 C1412 1.399 . S
C1408 C1407 1.399 . S
C1408 C1409 1.376 . S
C1409 H1396 0.930 . S
C1409 C1408 1.376 . S
C1409 C1410 1.388 . S
C1410 H1397 0.930 . S
C1410 C1409 1.388 . S
C1410 C1411 1.390 . S
C1411 C1410 1.390 . S
C1411 C1412 1.394 . S
C1411 C1417 1.465 . S
C1412 C1407 1.399 . S
C1412 C1411 1.394 . S
C1412 C1413 1.516 . S
C1413 C1412 1.516 . S
C1413 C1414 1.502 . S
C1413 C1415 1.561 . S
C1413 C1416 1.526 . S
C1414 H1398 0.959 . S
C1414 H1399 0.959 . S
C1414 H1400 0.961 . S
C1414 C1413 1.502 . S
C1415 H1401 0.960 . S
C1415 H1402 0.961 . S
C1415 H1403 0.959 . S
C1415 C1413 1.561 . S
C1416 C1413 1.526 . S
C1416 C1417 1.396 . S
C1416 C1421 1.390 . S
C1417 C1411 1.465 . S
C1417 C1416 1.396 . S
C1417 C1418 1.399 . S
C1418 H1404 0.929 . S
C1418 C1417 1.399 . S
C1418 C1419 1.385 . S
C1419 H1405 0.931 . S
C1419 C1418 1.385 . S
C1419 C1420 1.389 . S
C1420 C1419 1.389 . S
C1420 C1421 1.387 . S
C1421 H1406 0.930 . S
C1421 C1416 1.390 . S
C1421 C1420 1.387 . S
H1422 C1434 0.930 . S
H1423 C1436 0.930 . S
H1424 C1437 0.930 . S
H1425 C1441 0.959 . S
H1426 C1441 0.959 . S
H1427 C1441 0.961 . S
H1428 C1442 0.960 . S
H1429 C1442 0.961 . S
H1430 C1442 0.959 . S
H1431 C1445 0.929 . S
H1432 C1446 0.931 . S
H1433 C1448 0.930 . S
C1434 H1422 0.930 . S
C1434 C1435 1.399 . S
C1434 C1439 1.399 . S
C1435 C1434 1.399 . S
C1435 C1436 1.376 . S
C1436 H1423 0.930 . S
C1436 C1435 1.376 . S
C1436 C1437 1.388 . S
C1437 H1424 0.930 . S
C1437 C1436 1.388 . S
C1437 C1438 1.390 . S
C1438 C1437 1.390 . S
C1438 C1439 1.394 . S
C1438 C1444 1.465 . S
C1439 C1434 1.399 . S
C1439 C1438 1.394 . S
C1439 C1440 1.516 . S
C1440 C1439 1.516 . S
C1440 C1441 1.502 . S
C1440 C1442 1.561 . S
C1440 C1443 1.526 . S
C1441 H1425 0.959 . S
C1441 H1426 0.959 . S
C1441 H1427 0.961 . S
C1441 C1440 1.502 . S
C1442 H1428 0.960 . S
C1442 H1429 0.961 . S
C1442 H1430 0.959 . S
C1442 C1440 1.561 . S
C1443 C1440 1.526 . S
C1443 C1444 1.396 . S
C1443 C1448 1.390 . S
C1444 C1438 1.465 . S
C1444 C1443 1.396 . S
C1444 C1445 1.399 . S
C1445 H1431 0.929 . S
C1445 C1444 1.399 . S
C1445 C1446 1.385 . S
C1446 H1432 0.931 . S
C1446 C1445 1.385 . S
C1446 C1447 1.389 . S
C1447 C1446 1.389 . S
C1447 C1448 1.387 . S
C1448 H1433 0.930 . S
C1448 C1443 1.390 . S
C1448 C1447 1.387 . S
H1449 C1461 0.930 . S
H1450 C1463 0.930 . S
H1451 C1464 0.930 . S
H1452 C1468 0.959 . S
H1453 C1468 0.959 . S
H1454 C1468 0.961 . S
H1455 C1469 0.960 . S
H1456 C1469 0.961 . S
H1457 C1469 0.959 . S
H1458 C1472 0.929 . S
H1459 C1473 0.931 . S
H1460 C1475 0.930 . S
C1461 H1449 0.930 . S
C1461 C1462 1.399 . S
C1461 C1466 1.399 . S
C1462 C1461 1.399 . S
C1462 C1463 1.376 . S
C1463 H1450 0.930 . S
C1463 C1462 1.376 . S
C1463 C1464 1.388 . S
C1464 H1451 0.930 . S
C1464 C1463 1.388 . S
C1464 C1465 1.390 . S
C1465 C1464 1.390 . S
C1465 C1466 1.394 . S
C1465 C1471 1.465 . S
C1466 C1461 1.399 . S
C1466 C1465 1.394 . S
C1466 C1467 1.516 . S
C1467 C1466 1.516 . S
C1467 C1468 1.502 . S
C1467 C1469 1.561 . S
C1467 C1470 1.526 . S
C1468 H1452 0.959 . S
C1468 H1453 0.959 . S
C1468 H1454 0.961 . S
C1468 C1467 1.502 . S
C1469 H1455 0.960 . S
C1469 H1456 0.961 . S
C1469 H1457 0.959 . S
C1469 C1467 1.561 . S
C1470 C1467 1.526 . S
C1470 C1471 1.396 . S
C1470 C1475 1.390 . S
C1471 C1465 1.465 . S
C1471 C1470 1.396 . S
C1471 C1472 1.399 . S
C1472 H1458 0.929 . S
C1472 C1471 1.399 . S
C1472 C1473 1.385 . S
C1473 H1459 0.931 . S
C1473 C1472 1.385 . S
C1473 C1474 1.389 . S
C1474 C1473 1.389 . S
C1474 C1475 1.387 . S
C1475 H1460 0.930 . S
C1475 C1470 1.390 . S
C1475 C1474 1.387 . S
H1476 C1488 0.930 . S
H1477 C1490 0.930 . S
H1478 C1491 0.930 . S
H1479 C1495 0.959 . S
H1480 C1495 0.959 . S
H1481 C1495 0.961 . S
H1482 C1496 0.960 . S
H1483 C1496 0.961 . S
H1484 C1496 0.959 . S
H1485 C1499 0.929 . S
H1486 C1500 0.931 . S
H1487 C1502 0.930 . S
C1488 H1476 0.930 . S
C1488 C1489 1.399 . S
C1488 C1493 1.399 . S
C1489 C1488 1.399 . S
C1489 C1490 1.376 . S
C1490 H1477 0.930 . S
C1490 C1489 1.376 . S
C1490 C1491 1.388 . S
C1491 H1478 0.930 . S
C1491 C1490 1.388 . S
C1491 C1492 1.390 . S
C1492 C1491 1.390 . S
C1492 C1493 1.394 . S
C1492 C1498 1.465 . S
C1493 C1488 1.399 . S
C1493 C1492 1.394 . S
C1493 C1494 1.516 . S
C1494 C1493 1.516 . S
C1494 C1495 1.502 . S
C1494 C1496 1.561 . S
C1494 C1497 1.526 . S
C1495 H1479 0.959 . S
C1495 H1480 0.959 . S
C1495 H1481 0.961 . S
C1495 C1494 1.502 . S
C1496 H1482 0.960 . S
C1496 H1483 0.961 . S
C1496 H1484 0.959 . S
C1496 C1494 1.561 . S
C1497 C1494 1.526 . S
C1497 C1498 1.396 . S
C1497 C1502 1.390 . S
C1498 C1492 1.465 . S
C1498 C1497 1.396 . S
C1498 C1499 1.399 . S
C1499 H1485 0.929 . S
C1499 C1498 1.399 . S
C1499 C1500 1.385 . S
C1500 H1486 0.931 . S
C1500 C1499 1.385 . S
C1500 C1501 1.389 . S
C1501 C1500 1.389 . S
C1501 C1502 1.387 . S
C1502 H1487 0.930 . S
C1502 C1497 1.390 . S
C1502 C1501 1.387 . S
H1503 C1515 0.930 . S
H1504 C1517 0.930 . S
H1505 C1518 0.930 . S
H1506 C1522 0.959 . S
H1507 C1522 0.959 . S
H1508 C1522 0.961 . S
H1509 C1523 0.960 . S
H1510 C1523 0.961 . S
H1511 C1523 0.959 . S
H1512 C1526 0.929 . S
H1513 C1527 0.931 . S
H1514 C1529 0.930 . S
C1515 H1503 0.930 . S
C1515 C1516 1.399 . S
C1515 C1520 1.399 . S
C1516 C1515 1.399 . S
C1516 C1517 1.376 . S
C1517 H1504 0.930 . S
C1517 C1516 1.376 . S
C1517 C1518 1.388 . S
C1518 H1505 0.930 . S
C1518 C1517 1.388 . S
C1518 C1519 1.390 . S
C1519 C1518 1.390 . S
C1519 C1520 1.394 . S
C1519 C1525 1.465 . S
C1520 C1515 1.399 . S
C1520 C1519 1.394 . S
C1520 C1521 1.516 . S
C1521 C1520 1.516 . S
C1521 C1522 1.502 . S
C1521 C1523 1.561 . S
C1521 C1524 1.526 . S
C1522 H1506 0.959 . S
C1522 H1507 0.959 . S
C1522 H1508 0.961 . S
C1522 C1521 1.502 . S
C1523 H1509 0.960 . S
C1523 H1510 0.961 . S
C1523 H1511 0.959 . S
C1523 C1521 1.561 . S
C1524 C1521 1.526 . S
C1524 C1525 1.396 . S
C1524 C1529 1.390 . S
C1525 C1519 1.465 . S
C1525 C1524 1.396 . S
C1525 C1526 1.399 . S
C1526 H1512 0.929 . S
C1526 C1525 1.399 . S
C1526 C1527 1.385 . S
C1527 H1513 0.931 . S
C1527 C1526 1.385 . S
C1527 C1528 1.389 . S
C1528 C1527 1.389 . S
C1528 C1529 1.387 . S
C1529 H1514 0.930 . S
C1529 C1524 1.390 . S
C1529 C1528 1.387 . S
H1530 C1542 0.930 . S
H1531 C1544 0.930 . S
H1532 C1545 0.930 . S
H1533 C1549 0.959 . S
H1534 C1549 0.959 . S
H1535 C1549 0.961 . S
H1536 C1550 0.960 . S
H1537 C1550 0.961 . S
H1538 C1550 0.959 . S
H1539 C1553 0.929 . S
H1540 C1554 0.931 . S
H1541 C1556 0.930 . S
C1542 H1530 0.930 . S
C1542 C1543 1.399 . S
C1542 C1547 1.399 . S
C1543 C1542 1.399 . S
C1543 C1544 1.376 . S
C1544 H1531 0.930 . S
C1544 C1543 1.376 . S
C1544 C1545 1.388 . S
C1545 H1532 0.930 . S
C1545 C1544 1.388 . S
C1545 C1546 1.390 . S
C1546 C1545 1.390 . S
C1546 C1547 1.394 . S
C1546 C1552 1.465 . S
C1547 C1542 1.399 . S
C1547 C1546 1.394 . S
C1547 C1548 1.516 . S
C1548 C1547 1.516 . S
C1548 C1549 1.502 . S
C1548 C1550 1.561 . S
C1548 C1551 1.526 . S
C1549 H1533 0.959 . S
C1549 H1534 0.959 . S
C1549 H1535 0.961 . S
C1549 C1548 1.502 . S
C1550 H1536 0.960 . S
C1550 H1537 0.961 . S
C1550 H1538 0.959 . S
C1550 C1548 1.561 . S
C1551 C1548 1.526 . S
C1551 C1552 1.396 . S
C1551 C1556 1.390 . S
C1552 C1546 1.465 . S
C1552 C1551 1.396 . S
C1552 C1553 1.399 . S
C1553 H1539 0.929 . S
C1553 C1552 1.399 . S
C1553 C1554 1.385 . S
C1554 H1540 0.931 . S
C1554 C1553 1.385 . S
C1554 C1555 1.389 . S
C1555 C1554 1.389 . S
C1555 C1556 1.387 . S
C1556 H1541 0.930 . S
C1556 C1551 1.390 . S
C1556 C1555 1.387 . S
H1557 C1569 0.930 . S
H1558 C1571 0.930 . S
H1559 C1572 0.930 . S
H1560 C1576 0.959 . S
H1561 C1576 0.959 . S
H1562 C1576 0.961 . S
H1563 C1577 0.960 . S
H1564 C1577 0.961 . S
H1565 C1577 0.959 . S
H1566 C1580 0.929 . S
H1567 C1581 0.931 . S
H1568 C1583 0.930 . S
C1569 H1557 0.930 . S
C1569 C1570 1.399 . S
C1569 C1574 1.399 . S
C1570 C1569 1.399 . S
C1570 C1571 1.376 . S
C1571 H1558 0.930 . S
C1571 C1570 1.376 . S
C1571 C1572 1.388 . S
C1572 H1559 0.930 . S
C1572 C1571 1.388 . S
C1572 C1573 1.390 . S
C1573 C1572 1.390 . S
C1573 C1574 1.394 . S
C1573 C1579 1.465 . S
C1574 C1569 1.399 . S
C1574 C1573 1.394 . S
C1574 C1575 1.516 . S
C1575 C1574 1.516 . S
C1575 C1576 1.502 . S
C1575 C1577 1.561 . S
C1575 C1578 1.526 . S
C1576 H1560 0.959 . S
C1576 H1561 0.959 . S
C1576 H1562 0.961 . S
C1576 C1575 1.502 . S
C1577 H1563 0.960 . S
C1577 H1564 0.961 . S
C1577 H1565 0.959 . S
C1577 C1575 1.561 . S
C1578 C1575 1.526 . S
C1578 C1579 1.396 . S
C1578 C1583 1.390 . S
C1579 C1573 1.465 . S
C1579 C1578 1.396 . S
C1579 C1580 1.399 . S
C1580 H1566 0.929 . S
C1580 C1579 1.399 . S
C1580 C1581 1.385 . S
C1581 H1567 0.931 . S
C1581 C1580 1.385 . S
C1581 C1582 1.389 . S
C1582 C1581 1.389 . S
C1582 C1583 1.387 . S
C1583 H1568 0.930 . S
C1583 C1578 1.390 . S
C1583 C1582 1.387 . S
H1584 C1596 0.930 . S
H1585 C1598 0.930 . S
H1586 C1599 0.930 . S
H1587 C1603 0.959 . S
H1588 C1603 0.959 . S
H1589 C1603 0.961 . S
H1590 C1604 0.960 . S
H1591 C1604 0.961 . S
H1592 C1604 0.959 . S
H1593 C1607 0.929 . S
H1594 C1608 0.931 . S
H1595 C1610 0.930 . S
C1596 H1584 0.930 . S
C1596 C1597 1.399 . S
C1596 C1601 1.399 . S
C1597 C1596 1.399 . S
C1597 C1598 1.376 . S
C1598 H1585 0.930 . S
C1598 C1597 1.376 . S
C1598 C1599 1.388 . S
C1599 H1586 0.930 . S
C1599 C1598 1.388 . S
C1599 C1600 1.390 . S
C1600 C1599 1.390 . S
C1600 C1601 1.394 . S
C1600 C1606 1.465 . S
C1601 C1596 1.399 . S
C1601 C1600 1.394 . S
C1601 C1602 1.516 . S
C1602 C1601 1.516 . S
C1602 C1603 1.502 . S
C1602 C1604 1.561 . S
C1602 C1605 1.526 . S
C1603 H1587 0.959 . S
C1603 H1588 0.959 . S
C1603 H1589 0.961 . S
C1603 C1602 1.502 . S
C1604 H1590 0.960 . S
C1604 H1591 0.961 . S
C1604 H1592 0.959 . S
C1604 C1602 1.561 . S
C1605 C1602 1.526 . S
C1605 C1606 1.396 . S
C1605 C1610 1.390 . S
C1606 C1600 1.465 . S
C1606 C1605 1.396 . S
C1606 C1607 1.399 . S
C1607 H1593 0.929 . S
C1607 C1606 1.399 . S
C1607 C1608 1.385 . S
C1608 H1594 0.931 . S
C1608 C1607 1.385 . S
C1608 C1609 1.389 . S
C1609 C1608 1.389 . S
C1609 C1610 1.387 . S
C1610 H1595 0.930 . S
C1610 C1605 1.390 . S
C1610 C1609 1.387 . S
H1611 C1623 0.930 . S
H1612 C1625 0.930 . S
H1613 C1626 0.930 . S
H1614 C1630 0.959 . S
H1615 C1630 0.959 . S
H1616 C1630 0.961 . S
H1617 C1631 0.960 . S
H1618 C1631 0.961 . S
H1619 C1631 0.959 . S
H1620 C1634 0.929 . S
H1621 C1635 0.931 . S
H1622 C1637 0.930 . S
C1623 H1611 0.930 . S
C1623 C1624 1.399 . S
C1623 C1628 1.399 . S
C1624 C1623 1.399 . S
C1624 C1625 1.376 . S
C1625 H1612 0.930 . S
C1625 C1624 1.376 . S
C1625 C1626 1.388 . S
C1626 H1613 0.930 . S
C1626 C1625 1.388 . S
C1626 C1627 1.390 . S
C1627 C1626 1.390 . S
C1627 C1628 1.394 . S
C1627 C1633 1.465 . S
C1628 C1623 1.399 . S
C1628 C1627 1.394 . S
C1628 C1629 1.516 . S
C1629 C1628 1.516 . S
C1629 C1630 1.502 . S
C1629 C1631 1.561 . S
C1629 C1632 1.526 . S
C1630 H1614 0.959 . S
C1630 H1615 0.959 . S
C1630 H1616 0.961 . S
C1630 C1629 1.502 . S
C1631 H1617 0.960 . S
C1631 H1618 0.961 . S
C1631 H1619 0.959 . S
C1631 C1629 1.561 . S
C1632 C1629 1.526 . S
C1632 C1633 1.396 . S
C1632 C1637 1.390 . S
C1633 C1627 1.465 . S
C1633 C1632 1.396 . S
C1633 C1634 1.399 . S
C1634 H1620 0.929 . S
C1634 C1633 1.399 . S
C1634 C1635 1.385 . S
C1635 H1621 0.931 . S
C1635 C1634 1.385 . S
C1635 C1636 1.389 . S
C1636 C1635 1.389 . S
C1636 C1637 1.387 . S
C1637 H1622 0.930 . S
C1637 C1632 1.390 . S
C1637 C1636 1.387 . S
H1638 C1650 0.930 . S
H1639 C1652 0.930 . S
H1640 C1653 0.930 . S
H1641 C1657 0.959 . S
H1642 C1657 0.959 . S
H1643 C1657 0.961 . S
H1644 C1658 0.960 . S
H1645 C1658 0.961 . S
H1646 C1658 0.959 . S
H1647 C1661 0.929 . S
H1648 C1662 0.931 . S
H1649 C1664 0.930 . S
C1650 H1638 0.930 . S
C1650 C1651 1.399 . S
C1650 C1655 1.399 . S
C1651 C1650 1.399 . S
C1651 C1652 1.376 . S
C1652 H1639 0.930 . S
C1652 C1651 1.376 . S
C1652 C1653 1.388 . S
C1653 H1640 0.930 . S
C1653 C1652 1.388 . S
C1653 C1654 1.390 . S
C1654 C1653 1.390 . S
C1654 C1655 1.394 . S
C1654 C1660 1.465 . S
C1655 C1650 1.399 . S
C1655 C1654 1.394 . S
C1655 C1656 1.516 . S
C1656 C1655 1.516 . S
C1656 C1657 1.502 . S
C1656 C1658 1.561 . S
C1656 C1659 1.526 . S
C1657 H1641 0.959 . S
C1657 H1642 0.959 . S
C1657 H1643 0.961 . S
C1657 C1656 1.502 . S
C1658 H1644 0.960 . S
C1658 H1645 0.961 . S
C1658 H1646 0.959 . S
C1658 C1656 1.561 . S
C1659 C1656 1.526 . S
C1659 C1660 1.396 . S
C1659 C1664 1.390 . S
C1660 C1654 1.465 . S
C1660 C1659 1.396 . S
C1660 C1661 1.399 . S
C1661 H1647 0.929 . S
C1661 C1660 1.399 . S
C1661 C1662 1.385 . S
C1662 H1648 0.931 . S
C1662 C1661 1.385 . S
C1662 C1663 1.389 . S
C1663 C1662 1.389 . S
C1663 C1664 1.387 . S
C1664 H1649 0.930 . S
C1664 C1659 1.390 . S
C1664 C1663 1.387 . S
H1665 C1677 0.930 . S
H1666 C1679 0.930 . S
H1667 C1680 0.930 . S
H1668 C1684 0.959 . S
H1669 C1684 0.959 . S
H1670 C1684 0.961 . S
H1671 C1685 0.960 . S
H1672 C1685 0.961 . S
H1673 C1685 0.959 . S
H1674 C1688 0.929 . S
H1675 C1689 0.931 . S
H1676 C1691 0.930 . S
C1677 H1665 0.930 . S
C1677 C1678 1.399 . S
C1677 C1682 1.399 . S
C1678 C1677 1.399 . S
C1678 C1679 1.376 . S
C1679 H1666 0.930 . S
C1679 C1678 1.376 . S
C1679 C1680 1.388 . S
C1680 H1667 0.930 . S
C1680 C1679 1.388 . S
C1680 C1681 1.390 . S
C1681 C1680 1.390 . S
C1681 C1682 1.394 . S
C1681 C1687 1.465 . S
C1682 C1677 1.399 . S
C1682 C1681 1.394 . S
C1682 C1683 1.516 . S
C1683 C1682 1.516 . S
C1683 C1684 1.502 . S
C1683 C1685 1.561 . S
C1683 C1686 1.526 . S
C1684 H1668 0.959 . S
C1684 H1669 0.959 . S
C1684 H1670 0.961 . S
C1684 C1683 1.502 . S
C1685 H1671 0.960 . S
C1685 H1672 0.961 . S
C1685 H1673 0.959 . S
C1685 C1683 1.561 . S
C1686 C1683 1.526 . S
C1686 C1687 1.396 . S
C1686 C1691 1.390 . S
C1687 C1681 1.465 . S
C1687 C1686 1.396 . S
C1687 C1688 1.399 . S
C1688 H1674 0.929 . S
C1688 C1687 1.399 . S
C1688 C1689 1.385 . S
C1689 H1675 0.931 . S
C1689 C1688 1.385 . S
C1689 C1690 1.389 . S
C1690 C1689 1.389 . S
C1690 C1691 1.387 . S
C1691 H1676 0.930 . S
C1691 C1686 1.390 . S
C1691 C1690 1.387 . S
H1692 C1704 0.930 . S
H1693 C1706 0.930 . S
H1694 C1707 0.930 . S
H1695 C1711 0.959 . S
H1696 C1711 0.959 . S
H1697 C1711 0.961 . S
H1698 C1712 0.960 . S
H1699 C1712 0.961 . S
H1700 C1712 0.959 . S
H1701 C1715 0.929 . S
H1702 C1716 0.931 . S
H1703 C1718 0.930 . S
C1704 H1692 0.930 . S
C1704 C1705 1.399 . S
C1704 C1709 1.399 . S
C1705 C1704 1.399 . S
C1705 C1706 1.376 . S
C1706 H1693 0.930 . S
C1706 C1705 1.376 . S
C1706 C1707 1.388 . S
C1707 H1694 0.930 . S
C1707 C1706 1.388 . S
C1707 C1708 1.390 . S
C1708 C1707 1.390 . S
C1708 C1709 1.394 . S
C1708 C1714 1.465 . S
C1709 C1704 1.399 . S
C1709 C1708 1.394 . S
C1709 C1710 1.516 . S
C1710 C1709 1.516 . S
C1710 C1711 1.502 . S
C1710 C1712 1.561 . S
C1710 C1713 1.526 . S
C1711 H1695 0.959 . S
C1711 H1696 0.959 . S
C1711 H1697 0.961 . S
C1711 C1710 1.502 . S
C1712 H1698 0.960 . S
C1712 H1699 0.961 . S
C1712 H1700 0.959 . S
C1712 C1710 1.561 . S
C1713 C1710 1.526 . S
C1713 C1714 1.396 . S
C1713 C1718 1.390 . S
C1714 C1708 1.465 . S
C1714 C1713 1.396 . S
C1714 C1715 1.399 . S
C1715 H1701 0.929 . S
C1715 C1714 1.399 . S
C1715 C1716 1.385 . S
C1716 H1702 0.931 . S
C1716 C1715 1.385 . S
C1716 C1717 1.389 . S
C1717 C1716 1.389 . S
C1717 C1718 1.387 . S
C1718 H1703 0.930 . S
C1718 C1713 1.390 . S
C1718 C1717 1.387 . S
H1719 C1731 0.930 . S
H1720 C1733 0.930 . S
H1721 C1734 0.930 . S
H1722 C1738 0.959 . S
H1723 C1738 0.959 . S
H1724 C1738 0.961 . S
H1725 C1739 0.960 . S
H1726 C1739 0.961 . S
H1727 C1739 0.959 . S
H1728 C1742 0.929 . S
H1729 C1743 0.931 . S
H1730 C1745 0.930 . S
C1731 H1719 0.930 . S
C1731 C1732 1.399 . S
C1731 C1736 1.399 . S
C1732 C1731 1.399 . S
C1732 C1733 1.376 . S
C1733 H1720 0.930 . S
C1733 C1732 1.376 . S
C1733 C1734 1.388 . S
C1734 H1721 0.930 . S
C1734 C1733 1.388 . S
C1734 C1735 1.390 . S
C1735 C1734 1.390 . S
C1735 C1736 1.394 . S
C1735 C1741 1.465 . S
C1736 C1731 1.399 . S
C1736 C1735 1.394 . S
C1736 C1737 1.516 . S
C1737 C1736 1.516 . S
C1737 C1738 1.502 . S
C1737 C1739 1.561 . S
C1737 C1740 1.526 . S
C1738 H1722 0.959 . S
C1738 H1723 0.959 . S
C1738 H1724 0.961 . S
C1738 C1737 1.502 . S
C1739 H1725 0.960 . S
C1739 H1726 0.961 . S
C1739 H1727 0.959 . S
C1739 C1737 1.561 . S
C1740 C1737 1.526 . S
C1740 C1741 1.396 . S
C1740 C1745 1.390 . S
C1741 C1735 1.465 . S
C1741 C1740 1.396 . S
C1741 C1742 1.399 . S
C1742 H1728 0.929 . S
C1742 C1741 1.399 . S
C1742 C1743 1.385 . S
C1743 H1729 0.931 . S
C1743 C1742 1.385 . S
C1743 C1744 1.389 . S
C1744 C1743 1.389 . S
C1744 C1745 1.387 . S
C1745 H1730 0.930 . S
C1745 C1740 1.390 . S
C1745 C1744 1.387 . S
H1746 C1758 0.930 . S
H1747 C1760 0.930 . S
H1748 C1761 0.930 . S
H1749 C1765 0.959 . S
H1750 C1765 0.959 . S
H1751 C1765 0.961 . S
H1752 C1766 0.960 . S
H1753 C1766 0.961 . S
H1754 C1766 0.959 . S
H1755 C1769 0.929 . S
H1756 C1770 0.931 . S
H1757 C1772 0.930 . S
C1758 H1746 0.930 . S
C1758 C1759 1.399 . S
C1758 C1763 1.399 . S
C1759 C1758 1.399 . S
C1759 C1760 1.376 . S
C1760 H1747 0.930 . S
C1760 C1759 1.376 . S
C1760 C1761 1.388 . S
C1761 H1748 0.930 . S
C1761 C1760 1.388 . S
C1761 C1762 1.390 . S
C1762 C1761 1.390 . S
C1762 C1763 1.394 . S
C1762 C1768 1.465 . S
C1763 C1758 1.399 . S
C1763 C1762 1.394 . S
C1763 C1764 1.516 . S
C1764 C1763 1.516 . S
C1764 C1765 1.502 . S
C1764 C1766 1.561 . S
C1764 C1767 1.526 . S
C1765 H1749 0.959 . S
C1765 H1750 0.959 . S
C1765 H1751 0.961 . S
C1765 C1764 1.502 . S
C1766 H1752 0.960 . S
C1766 H1753 0.961 . S
C1766 H1754 0.959 . S
C1766 C1764 1.561 . S
C1767 C1764 1.526 . S
C1767 C1768 1.396 . S
C1767 C1772 1.390 . S
C1768 C1762 1.465 . S
C1768 C1767 1.396 . S
C1768 C1769 1.399 . S
C1769 H1755 0.929 . S
C1769 C1768 1.399 . S
C1769 C1770 1.385 . S
C1770 H1756 0.931 . S
C1770 C1769 1.385 . S
C1770 C1771 1.389 . S
C1771 C1770 1.389 . S
C1771 C1772 1.387 . S
C1772 H1757 0.930 . S
C1772 C1767 1.390 . S
C1772 C1771 1.387 . S
H1773 C1785 0.930 . S
H1774 C1787 0.930 . S
H1775 C1788 0.930 . S
H1776 C1792 0.959 . S
H1777 C1792 0.959 . S
H1778 C1792 0.961 . S
H1779 C1793 0.960 . S
H1780 C1793 0.961 . S
H1781 C1793 0.959 . S
H1782 C1796 0.929 . S
H1783 C1797 0.931 . S
H1784 C1799 0.930 . S
C1785 H1773 0.930 . S
C1785 C1786 1.399 . S
C1785 C1790 1.399 . S
C1786 C1785 1.399 . S
C1786 C1787 1.376 . S
C1787 H1774 0.930 . S
C1787 C1786 1.376 . S
C1787 C1788 1.388 . S
C1788 H1775 0.930 . S
C1788 C1787 1.388 . S
C1788 C1789 1.390 . S
C1789 C1788 1.390 . S
C1789 C1790 1.394 . S
C1789 C1795 1.465 . S
C1790 C1785 1.399 . S
C1790 C1789 1.394 . S
C1790 C1791 1.516 . S
C1791 C1790 1.516 . S
C1791 C1792 1.502 . S
C1791 C1793 1.561 . S
C1791 C1794 1.526 . S
C1792 H1776 0.959 . S
C1792 H1777 0.959 . S
C1792 H1778 0.961 . S
C1792 C1791 1.502 . S
C1793 H1779 0.960 . S
C1793 H1780 0.961 . S
C1793 H1781 0.959 . S
C1793 C1791 1.561 . S
C1794 C1791 1.526 . S
C1794 C1795 1.396 . S
C1794 C1799 1.390 . S
C1795 C1789 1.465 . S
C1795 C1794 1.396 . S
C1795 C1796 1.399 . S
C1796 H1782 0.929 . S
C1796 C1795 1.399 . S
C1796 C1797 1.385 . S
C1797 H1783 0.931 . S
C1797 C1796 1.385 . S
C1797 C1798 1.389 . S
C1798 C1797 1.389 . S
C1798 C1799 1.387 . S
C1799 H1784 0.930 . S
C1799 C1794 1.390 . S
C1799 C1798 1.387 . S
H1800 C1812 0.930 . S
H1801 C1814 0.930 . S
H1802 C1815 0.930 . S
H1803 C1819 0.959 . S
H1804 C1819 0.959 . S
H1805 C1819 0.961 . S
H1806 C1820 0.960 . S
H1807 C1820 0.961 . S
H1808 C1820 0.959 . S
H1809 C1823 0.929 . S
H1810 C1824 0.931 . S
H1811 C1826 0.930 . S
C1812 H1800 0.930 . S
C1812 C1813 1.399 . S
C1812 C1817 1.399 . S
C1813 C1812 1.399 . S
C1813 C1814 1.376 . S
C1814 H1801 0.930 . S
C1814 C1813 1.376 . S
C1814 C1815 1.388 . S
C1815 H1802 0.930 . S
C1815 C1814 1.388 . S
C1815 C1816 1.390 . S
C1816 C1815 1.390 . S
C1816 C1817 1.394 . S
C1816 C1822 1.465 . S
C1817 C1812 1.399 . S
C1817 C1816 1.394 . S
C1817 C1818 1.516 . S
C1818 C1817 1.516 . S
C1818 C1819 1.502 . S
C1818 C1820 1.561 . S
C1818 C1821 1.526 . S
C1819 H1803 0.959 . S
C1819 H1804 0.959 . S
C1819 H1805 0.961 . S
C1819 C1818 1.502 . S
C1820 H1806 0.960 . S
C1820 H1807 0.961 . S
C1820 H1808 0.959 . S
C1820 C1818 1.561 . S
C1821 C1818 1.526 . S
C1821 C1822 1.396 . S
C1821 C1826 1.390 . S
C1822 C1816 1.465 . S
C1822 C1821 1.396 . S
C1822 C1823 1.399 . S
C1823 H1809 0.929 . S
C1823 C1822 1.399 . S
C1823 C1824 1.385 . S
C1824 H1810 0.931 . S
C1824 C1823 1.385 . S
C1824 C1825 1.389 . S
C1825 C1824 1.389 . S
C1825 C1826 1.387 . S
C1826 H1811 0.930 . S
C1826 C1821 1.390 . S
C1826 C1825 1.387 . S
H1827 C1839 0.930 . S
H1828 C1841 0.930 . S
H1829 C1842 0.930 . S
H1830 C1846 0.959 . S
H1831 C1846 0.959 . S
H1832 C1846 0.961 . S
H1833 C1847 0.960 . S
H1834 C1847 0.961 . S
H1835 C1847 0.959 . S
H1836 C1850 0.929 . S
H1837 C1851 0.931 . S
H1838 C1853 0.930 . S
C1839 H1827 0.930 . S
C1839 C1840 1.399 . S
C1839 C1844 1.399 . S
C1840 C1839 1.399 . S
C1840 C1841 1.376 . S
C1841 H1828 0.930 . S
C1841 C1840 1.376 . S
C1841 C1842 1.388 . S
C1842 H1829 0.930 . S
C1842 C1841 1.388 . S
C1842 C1843 1.390 . S
C1843 C1842 1.390 . S
C1843 C1844 1.394 . S
C1843 C1849 1.465 . S
C1844 C1839 1.399 . S
C1844 C1843 1.394 . S
C1844 C1845 1.516 . S
C1845 C1844 1.516 . S
C1845 C1846 1.502 . S
C1845 C1847 1.561 . S
C1845 C1848 1.526 . S
C1846 H1830 0.959 . S
C1846 H1831 0.959 . S
C1846 H1832 0.961 . S
C1846 C1845 1.502 . S
C1847 H1833 0.960 . S
C1847 H1834 0.961 . S
C1847 H1835 0.959 . S
C1847 C1845 1.561 . S
C1848 C1845 1.526 . S
C1848 C1849 1.396 . S
C1848 C1853 1.390 . S
C1849 C1843 1.465 . S
C1849 C1848 1.396 . S
C1849 C1850 1.399 . S
C1850 H1836 0.929 . S
C1850 C1849 1.399 . S
C1850 C1851 1.385 . S
C1851 H1837 0.931 . S
C1851 C1850 1.385 . S
C1851 C1852 1.389 . S
C1852 C1851 1.389 . S
C1852 C1853 1.387 . S
C1853 H1838 0.930 . S
C1853 C1848 1.390 . S
C1853 C1852 1.387 . S
H1854 C1866 0.930 . S
H1855 C1868 0.930 . S
H1856 C1869 0.930 . S
H1857 C1873 0.959 . S
H1858 C1873 0.959 . S
H1859 C1873 0.961 . S
H1860 C1874 0.960 . S
H1861 C1874 0.959 1_455 S
H1862 C1874 0.959 . S
H1863 C1877 0.929 . S
H1864 C1878 0.931 . S
H1865 C1880 0.930 . S
C1866 H1854 0.930 . S
C1866 C1867 1.399 . S
C1866 C1871 1.399 . S
C1867 C1866 1.399 . S
C1867 C1868 1.376 . S
C1868 H1855 0.930 . S
C1868 C1867 1.376 . S
C1868 C1869 1.388 . S
C1869 H1856 0.930 . S
C1869 C1868 1.388 . S
C1869 C1870 1.390 . S
C1870 C1869 1.390 . S
C1870 C1871 1.394 . S
C1870 C1876 1.465 . S
C1871 C1866 1.399 . S
C1871 C1870 1.394 . S
C1871 C1872 1.516 . S
C1872 C1871 1.516 . S
C1872 C1873 1.502 . S
C1872 C1874 1.561 . S
C1872 C1875 1.526 . S
C1873 H1857 0.959 . S
C1873 H1858 0.959 . S
C1873 H1859 0.961 . S
C1873 C1872 1.502 . S
C1874 H1860 0.960 . S
C1874 H1861 0.959 1_655 S
C1874 H1862 0.959 . S
C1874 C1872 1.561 . S
C1875 C1872 1.526 . S
C1875 C1876 1.396 . S
C1875 C1880 1.390 . S
C1876 C1870 1.465 . S
C1876 C1875 1.396 . S
C1876 C1877 1.399 . S
C1877 H1863 0.929 . S
C1877 C1876 1.399 . S
C1877 C1878 1.385 . S
C1878 H1864 0.931 . S
C1878 C1877 1.385 . S
C1878 C1879 1.389 . S
C1879 C1878 1.389 . S
C1879 C1880 1.387 . S
C1880 H1865 0.930 . S
C1880 C1875 1.390 . S
C1880 C1879 1.387 . S
H1881 C1893 0.930 . S
H1882 C1895 0.930 . S
H1883 C1896 0.930 . S
H1884 C1900 0.959 . S
H1885 C1900 0.959 . S
H1886 C1900 0.961 . S
H1887 C1901 0.960 . S
H1888 C1901 0.961 . S
H1889 C1901 0.959 . S
H1890 C1904 0.929 . S
H1891 C1905 0.931 . S
H1892 C1907 0.930 . S
C1893 H1881 0.930 . S
C1893 C1894 1.399 . S
C1893 C1898 1.399 . S
C1894 C1893 1.399 . S
C1894 C1895 1.376 . S
C1895 H1882 0.930 . S
C1895 C1894 1.376 . S
C1895 C1896 1.388 . S
C1896 H1883 0.930 . S
C1896 C1895 1.388 . S
C1896 C1897 1.390 . S
C1897 C1896 1.390 . S
C1897 C1898 1.394 . S
C1897 C1903 1.465 . S
C1898 C1893 1.399 . S
C1898 C1897 1.394 . S
C1898 C1899 1.516 . S
C1899 C1898 1.516 . S
C1899 C1900 1.502 . S
C1899 C1901 1.561 . S
C1899 C1902 1.526 . S
C1900 H1884 0.959 . S
C1900 H1885 0.959 . S
C1900 H1886 0.961 . S
C1900 C1899 1.502 . S
C1901 H1887 0.960 . S
C1901 H1888 0.961 . S
C1901 H1889 0.959 . S
C1901 C1899 1.561 . S
C1902 C1899 1.526 . S
C1902 C1903 1.396 . S
C1902 C1907 1.390 . S
C1903 C1897 1.465 . S
C1903 C1902 1.396 . S
C1903 C1904 1.399 . S
C1904 H1890 0.929 . S
C1904 C1903 1.399 . S
C1904 C1905 1.385 . S
C1905 H1891 0.931 . S
C1905 C1904 1.385 . S
C1905 C1906 1.389 . S
C1906 C1905 1.389 . S
C1906 C1907 1.387 . S
C1907 H1892 0.930 . S
C1907 C1902 1.390 . S
C1907 C1906 1.387 . S
H1908 C1920 0.930 . S
H1909 C1922 0.930 . S
H1910 C1923 0.930 . S
H1911 C1927 0.959 . S
H1912 C1927 0.959 . S
H1913 C1927 0.961 . S
H1914 C1928 0.960 . S
H1915 C1928 0.961 . S
H1916 C1928 0.959 . S
H1917 C1931 0.929 . S
H1918 C1932 0.931 . S
H1919 C1934 0.930 . S
C1920 H1908 0.930 . S
C1920 C1921 1.399 . S
C1920 C1925 1.399 . S
C1921 C1920 1.399 . S
C1921 C1922 1.376 . S
C1922 H1909 0.930 . S
C1922 C1921 1.376 . S
C1922 C1923 1.388 . S
C1923 H1910 0.930 . S
C1923 C1922 1.388 . S
C1923 C1924 1.390 . S
C1924 C1923 1.390 . S
C1924 C1925 1.394 . S
C1924 C1930 1.465 . S
C1925 C1920 1.399 . S
C1925 C1924 1.394 . S
C1925 C1926 1.516 . S
C1926 C1925 1.516 . S
C1926 C1927 1.502 . S
C1926 C1928 1.561 . S
C1926 C1929 1.526 . S
C1927 H1911 0.959 . S
C1927 H1912 0.959 . S
C1927 H1913 0.961 . S
C1927 C1926 1.502 . S
C1928 H1914 0.960 . S
C1928 H1915 0.961 . S
C1928 H1916 0.959 . S
C1928 C1926 1.561 . S
C1929 C1926 1.526 . S
C1929 C1930 1.396 . S
C1929 C1934 1.390 . S
C1930 C1924 1.465 . S
C1930 C1929 1.396 . S
C1930 C1931 1.399 . S
C1931 H1917 0.929 . S
C1931 C1930 1.399 . S
C1931 C1932 1.385 . S
C1932 H1918 0.931 . S
C1932 C1931 1.385 . S
C1932 C1933 1.389 . S
C1933 C1932 1.389 . S
C1933 C1934 1.387 . S
C1934 H1919 0.930 . S
C1934 C1929 1.390 . S
C1934 C1933 1.387 . S
H1935 C1947 0.930 . S
H1936 C1949 0.930 . S
H1937 C1950 0.930 . S
H1938 C1954 0.959 . S
H1939 C1954 0.959 . S
H1940 C1954 0.961 . S
H1941 C1955 0.960 . S
H1942 C1955 0.961 . S
H1943 C1955 0.959 . S
H1944 C1958 0.929 . S
H1945 C1959 0.931 . S
H1946 C1961 0.930 . S
C1947 H1935 0.930 . S
C1947 C1948 1.399 . S
C1947 C1952 1.399 . S
C1948 C1947 1.399 . S
C1948 C1949 1.376 . S
C1949 H1936 0.930 . S
C1949 C1948 1.376 . S
C1949 C1950 1.388 . S
C1950 H1937 0.930 . S
C1950 C1949 1.388 . S
C1950 C1951 1.390 . S
C1951 C1950 1.390 . S
C1951 C1952 1.394 . S
C1951 C1957 1.465 . S
C1952 C1947 1.399 . S
C1952 C1951 1.394 . S
C1952 C1953 1.516 . S
C1953 C1952 1.516 . S
C1953 C1954 1.502 . S
C1953 C1955 1.561 . S
C1953 C1956 1.526 . S
C1954 H1938 0.959 . S
C1954 H1939 0.959 . S
C1954 H1940 0.961 . S
C1954 C1953 1.502 . S
C1955 H1941 0.960 . S
C1955 H1942 0.961 . S
C1955 H1943 0.959 . S
C1955 C1953 1.561 . S
C1956 C1953 1.526 . S
C1956 C1957 1.396 . S
C1956 C1961 1.390 . S
C1957 C1951 1.465 . S
C1957 C1956 1.396 . S
C1957 C1958 1.399 . S
C1958 H1944 0.929 . S
C1958 C1957 1.399 . S
C1958 C1959 1.385 . S
C1959 H1945 0.931 . S
C1959 C1958 1.385 . S
C1959 C1960 1.389 . S
C1960 C1959 1.389 . S
C1960 C1961 1.387 . S
C1961 H1946 0.930 . S
C1961 C1956 1.390 . S
C1961 C1960 1.387 . S
H1962 C1974 0.930 . S
H1963 C1976 0.930 . S
H1964 C1977 0.930 . S
H1965 C1981 0.959 . S
H1966 C1981 0.959 . S
H1967 C1981 0.961 . S
H1968 C1982 0.960 . S
H1969 C1982 0.961 . S
H1970 C1982 0.959 . S
H1971 C1985 0.929 . S
H1972 C1986 0.931 . S
H1973 C1988 0.930 . S
C1974 H1962 0.930 . S
C1974 C1975 1.399 . S
C1974 C1979 1.399 . S
C1975 C1974 1.399 . S
C1975 C1976 1.376 . S
C1976 H1963 0.930 . S
C1976 C1975 1.376 . S
C1976 C1977 1.388 . S
C1977 H1964 0.930 . S
C1977 C1976 1.388 . S
C1977 C1978 1.390 . S
C1978 C1977 1.390 . S
C1978 C1979 1.394 . S
C1978 C1984 1.465 . S
C1979 C1974 1.399 . S
C1979 C1978 1.394 . S
C1979 C1980 1.516 . S
C1980 C1979 1.516 . S
C1980 C1981 1.502 . S
C1980 C1982 1.561 . S
C1980 C1983 1.526 . S
C1981 H1965 0.959 . S
C1981 H1966 0.959 . S
C1981 H1967 0.961 . S
C1981 C1980 1.502 . S
C1982 H1968 0.960 . S
C1982 H1969 0.961 . S
C1982 H1970 0.959 . S
C1982 C1980 1.561 . S
C1983 C1980 1.526 . S
C1983 C1984 1.396 . S
C1983 C1988 1.390 . S
C1984 C1978 1.465 . S
C1984 C1983 1.396 . S
C1984 C1985 1.399 . S
C1985 H1971 0.929 . S
C1985 C1984 1.399 . S
C1985 C1986 1.385 . S
C1986 H1972 0.931 . S
C1986 C1985 1.385 . S
C1986 C1987 1.389 . S
C1987 C1986 1.389 . S
C1987 C1988 1.387 . S
C1988 H1973 0.930 . S
C1988 C1983 1.390 . S
C1988 C1987 1.387 . S
H1989 C2001 0.930 . S
H1990 C2003 0.930 . S
H1991 C2004 0.930 . S
H1992 C2008 0.959 . S
H1993 C2008 0.959 . S
H1994 C2008 0.961 . S
H1995 C2009 0.960 . S
H1996 C2009 0.961 . S
H1997 C2009 0.959 . S
H1998 C2012 0.929 . S
H1999 C2013 0.931 . S
H2000 C2015 0.930 . S
C2001 H1989 0.930 . S
C2001 C2002 1.399 . S
C2001 C2006 1.399 . S
C2002 C2001 1.399 . S
C2002 C2003 1.376 . S
C2003 H1990 0.930 . S
C2003 C2002 1.376 . S
C2003 C2004 1.388 . S
C2004 H1991 0.930 . S
C2004 C2003 1.388 . S
C2004 C2005 1.390 . S
C2005 C2004 1.390 . S
C2005 C2006 1.394 . S
C2005 C2011 1.465 . S
C2006 C2001 1.399 . S
C2006 C2005 1.394 . S
C2006 C2007 1.516 . S
C2007 C2006 1.516 . S
C2007 C2008 1.502 . S
C2007 C2009 1.561 . S
C2007 C2010 1.526 . S
C2008 H1992 0.959 . S
C2008 H1993 0.959 . S
C2008 H1994 0.961 . S
C2008 C2007 1.502 . S
C2009 H1995 0.960 . S
C2009 H1996 0.961 . S
C2009 H1997 0.959 . S
C2009 C2007 1.561 . S
C2010 C2007 1.526 . S
C2010 C2011 1.396 . S
C2010 C2015 1.390 . S
C2011 C2005 1.465 . S
C2011 C2010 1.396 . S
C2011 C2012 1.399 . S
C2012 H1998 0.929 . S
C2012 C2011 1.399 . S
C2012 C2013 1.385 . S
C2013 H1999 0.931 . S
C2013 C2012 1.385 . S
C2013 C2014 1.389 . S
C2014 C2013 1.389 . S
C2014 C2015 1.387 . S
C2015 H2000 0.930 . S
C2015 C2010 1.390 . S
C2015 C2014 1.387 . S
H2016 C2028 0.930 . S
H2017 C2030 0.930 . S
H2018 C2031 0.930 . S
H2019 C2035 0.959 . S
H2020 C2035 0.959 . S
H2021 C2035 0.961 . S
H2022 C2036 0.960 . S
H2023 C2036 0.961 . S
H2024 C2036 0.959 . S
H2025 C2039 0.929 . S
H2026 C2040 0.931 . S
H2027 C2042 0.930 . S
C2028 H2016 0.930 . S
C2028 C2029 1.399 . S
C2028 C2033 1.399 . S
C2029 C2028 1.399 . S
C2029 C2030 1.376 . S
C2030 H2017 0.930 . S
C2030 C2029 1.376 . S
C2030 C2031 1.388 . S
C2031 H2018 0.930 . S
C2031 C2030 1.388 . S
C2031 C2032 1.390 . S
C2032 C2031 1.390 . S
C2032 C2033 1.394 . S
C2032 C2038 1.465 . S
C2033 C2028 1.399 . S
C2033 C2032 1.394 . S
C2033 C2034 1.516 . S
C2034 C2033 1.516 . S
C2034 C2035 1.502 . S
C2034 C2036 1.561 . S
C2034 C2037 1.526 . S
C2035 H2019 0.959 . S
C2035 H2020 0.959 . S
C2035 H2021 0.961 . S
C2035 C2034 1.502 . S
C2036 H2022 0.960 . S
C2036 H2023 0.961 . S
C2036 H2024 0.959 . S
C2036 C2034 1.561 . S
C2037 C2034 1.526 . S
C2037 C2038 1.396 . S
C2037 C2042 1.390 . S
C2038 C2032 1.465 . S
C2038 C2037 1.396 . S
C2038 C2039 1.399 . S
C2039 H2025 0.929 . S
C2039 C2038 1.399 . S
C2039 C2040 1.385 . S
C2040 H2026 0.931 . S
C2040 C2039 1.385 . S
C2040 C2041 1.389 . S
C2041 C2040 1.389 . S
C2041 C2042 1.387 . S
C2042 H2027 0.930 . S
C2042 C2037 1.390 . S
C2042 C2041 1.387 . S
H2043 C2055 0.930 . S
H2044 C2057 0.930 . S
H2045 C2058 0.930 . S
H2046 C2062 0.959 . S
H2047 C2062 0.959 . S
H2048 C2062 0.961 . S
H2049 C2063 0.960 . S
H2050 C2063 0.961 . S
H2051 C2063 0.959 . S
H2052 C2066 0.929 . S
H2053 C2067 0.931 . S
H2054 C2069 0.930 . S
C2055 H2043 0.930 . S
C2055 C2056 1.399 . S
C2055 C2060 1.399 . S
C2056 C2055 1.399 . S
C2056 C2057 1.376 . S
C2057 H2044 0.930 . S
C2057 C2056 1.376 . S
C2057 C2058 1.388 . S
C2058 H2045 0.930 . S
C2058 C2057 1.388 . S
C2058 C2059 1.390 . S
C2059 C2058 1.390 . S
C2059 C2060 1.394 . S
C2059 C2065 1.465 . S
C2060 C2055 1.399 . S
C2060 C2059 1.394 . S
C2060 C2061 1.516 . S
C2061 C2060 1.516 . S
C2061 C2062 1.502 . S
C2061 C2063 1.561 . S
C2061 C2064 1.526 . S
C2062 H2046 0.959 . S
C2062 H2047 0.959 . S
C2062 H2048 0.961 . S
C2062 C2061 1.502 . S
C2063 H2049 0.960 . S
C2063 H2050 0.961 . S
C2063 H2051 0.959 . S
C2063 C2061 1.561 . S
C2064 C2061 1.526 . S
C2064 C2065 1.396 . S
C2064 C2069 1.390 . S
C2065 C2059 1.465 . S
C2065 C2064 1.396 . S
C2065 C2066 1.399 . S
C2066 H2052 0.929 . S
C2066 C2065 1.399 . S
C2066 C2067 1.385 . S
C2067 H2053 0.931 . S
C2067 C2066 1.385 . S
C2067 C2068 1.389 . S
C2068 C2067 1.389 . S
C2068 C2069 1.387 . S
C2069 H2054 0.930 . S
C2069 C2064 1.390 . S
C2069 C2068 1.387 . S
H2070 C2082 0.930 . S
H2071 C2084 0.930 . S
H2072 C2085 0.930 . S
H2073 C2089 0.959 . S
H2074 C2089 0.959 . S
H2075 C2089 0.961 . S
H2076 C2090 0.960 . S
H2077 C2090 0.961 . S
H2078 C2090 0.959 . S
H2079 C2093 0.929 . S
H2080 C2094 0.931 . S
H2081 C2096 0.930 . S
C2082 H2070 0.930 . S
C2082 C2083 1.399 . S
C2082 C2087 1.399 . S
C2083 C2082 1.399 . S
C2083 C2084 1.376 . S
C2084 H2071 0.930 . S
C2084 C2083 1.376 . S
C2084 C2085 1.388 . S
C2085 H2072 0.930 . S
C2085 C2084 1.388 . S
C2085 C2086 1.390 . S
C2086 C2085 1.390 . S
C2086 C2087 1.394 . S
C2086 C2092 1.465 . S
C2087 C2082 1.399 . S
C2087 C2086 1.394 . S
C2087 C2088 1.516 . S
C2088 C2087 1.516 . S
C2088 C2089 1.502 . S
C2088 C2090 1.561 . S
C2088 C2091 1.526 . S
C2089 H2073 0.959 . S
C2089 H2074 0.959 . S
C2089 H2075 0.961 . S
C2089 C2088 1.502 . S
C2090 H2076 0.960 . S
C2090 H2077 0.961 . S
C2090 H2078 0.959 . S
C2090 C2088 1.561 . S
C2091 C2088 1.526 . S
C2091 C2092 1.396 . S
C2091 C2096 1.390 . S
C2092 C2086 1.465 . S
C2092 C2091 1.396 . S
C2092 C2093 1.399 . S
C2093 H2079 0.929 . S
C2093 C2092 1.399 . S
C2093 C2094 1.385 . S
C2094 H2080 0.931 . S
C2094 C2093 1.385 . S
C2094 C2095 1.389 . S
C2095 C2094 1.389 . S
C2095 C2096 1.387 . S
C2096 H2081 0.930 . S
C2096 C2091 1.390 . S
C2096 C2095 1.387 . S
H2097 C2109 0.930 . S
H2098 C2111 0.930 . S
H2099 C2112 0.930 . S
H2100 C2116 0.959 . S
H2101 C2116 0.959 . S
H2102 C2116 0.961 . S
H2103 C2117 0.960 . S
H2104 C2117 0.961 . S
H2105 C2117 0.959 . S
H2106 C2120 0.929 . S
H2107 C2121 0.931 . S
H2108 C2123 0.930 . S
C2109 H2097 0.930 . S
C2109 C2110 1.399 . S
C2109 C2114 1.399 . S
C2110 C2109 1.399 . S
C2110 C2111 1.376 . S
C2111 H2098 0.930 . S
C2111 C2110 1.376 . S
C2111 C2112 1.388 . S
C2112 H2099 0.930 . S
C2112 C2111 1.388 . S
C2112 C2113 1.390 . S
C2113 C2112 1.390 . S
C2113 C2114 1.394 . S
C2113 C2119 1.465 . S
C2114 C2109 1.399 . S
C2114 C2113 1.394 . S
C2114 C2115 1.516 . S
C2115 C2114 1.516 . S
C2115 C2116 1.502 . S
C2115 C2117 1.561 . S
C2115 C2118 1.526 . S
C2116 H2100 0.959 . S
C2116 H2101 0.959 . S
C2116 H2102 0.961 . S
C2116 C2115 1.502 . S
C2117 H2103 0.960 . S
C2117 H2104 0.961 . S
C2117 H2105 0.959 . S
C2117 C2115 1.561 . S
C2118 C2115 1.526 . S
C2118 C2119 1.396 . S
C2118 C2123 1.390 . S
C2119 C2113 1.465 . S
C2119 C2118 1.396 . S
C2119 C2120 1.399 . S
C2120 H2106 0.929 . S
C2120 C2119 1.399 . S
C2120 C2121 1.385 . S
C2121 H2107 0.931 . S
C2121 C2120 1.385 . S
C2121 C2122 1.389 . S
C2122 C2121 1.389 . S
C2122 C2123 1.387 . S
C2123 H2108 0.930 . S
C2123 C2118 1.390 . S
C2123 C2122 1.387 . S
H2124 C2136 0.930 . S
H2125 C2138 0.930 . S
H2126 C2139 0.930 . S
H2127 C2143 0.959 . S
H2128 C2143 0.959 . S
H2129 C2143 0.961 . S
H2130 C2144 0.960 . S
H2131 C2144 0.961 . S
H2132 C2144 0.959 . S
H2133 C2147 0.929 . S
H2134 C2148 0.931 . S
H2135 C2150 0.930 . S
C2136 H2124 0.930 . S
C2136 C2137 1.399 . S
C2136 C2141 1.399 . S
C2137 C2136 1.399 . S
C2137 C2138 1.376 . S
C2138 H2125 0.930 . S
C2138 C2137 1.376 . S
C2138 C2139 1.388 . S
C2139 H2126 0.930 . S
C2139 C2138 1.388 . S
C2139 C2140 1.390 . S
C2140 C2139 1.390 . S
C2140 C2141 1.394 . S
C2140 C2146 1.465 . S
C2141 C2136 1.399 . S
C2141 C2140 1.394 . S
C2141 C2142 1.516 . S
C2142 C2141 1.516 . S
C2142 C2143 1.502 . S
C2142 C2144 1.561 . S
C2142 C2145 1.526 . S
C2143 H2127 0.959 . S
C2143 H2128 0.959 . S
C2143 H2129 0.961 . S
C2143 C2142 1.502 . S
C2144 H2130 0.960 . S
C2144 H2131 0.961 . S
C2144 H2132 0.959 . S
C2144 C2142 1.561 . S
C2145 C2142 1.526 . S
C2145 C2146 1.396 . S
C2145 C2150 1.390 . S
C2146 C2140 1.465 . S
C2146 C2145 1.396 . S
C2146 C2147 1.399 . S
C2147 H2133 0.929 . S
C2147 C2146 1.399 . S
C2147 C2148 1.385 . S
C2148 H2134 0.931 . S
C2148 C2147 1.385 . S
C2148 C2149 1.389 . S
C2149 C2148 1.389 . S
C2149 C2150 1.387 . S
C2150 H2135 0.930 . S
C2150 C2145 1.390 . S
C2150 C2149 1.387 . S
H2151 C2163 0.930 . S
H2152 C2165 0.930 . S
H2153 C2166 0.930 . S
H2154 C2170 0.959 . S
H2155 C2170 0.959 . S
H2156 C2170 0.961 . S
H2157 C2171 0.960 . S
H2158 C2171 0.961 . S
H2159 C2171 0.959 . S
H2160 C2174 0.929 . S
H2161 C2175 0.931 . S
H2162 C2177 0.930 . S
C2163 H2151 0.930 . S
C2163 C2164 1.399 . S
C2163 C2168 1.399 . S
C2164 C2163 1.399 . S
C2164 C2165 1.376 . S
C2165 H2152 0.930 . S
C2165 C2164 1.376 . S
C2165 C2166 1.388 . S
C2166 H2153 0.930 . S
C2166 C2165 1.388 . S
C2166 C2167 1.390 . S
C2167 C2166 1.390 . S
C2167 C2168 1.394 . S
C2167 C2173 1.465 . S
C2168 C2163 1.399 . S
C2168 C2167 1.394 . S
C2168 C2169 1.516 . S
C2169 C2168 1.516 . S
C2169 C2170 1.502 . S
C2169 C2171 1.561 . S
C2169 C2172 1.526 . S
C2170 H2154 0.959 . S
C2170 H2155 0.959 . S
C2170 H2156 0.961 . S
C2170 C2169 1.502 . S
C2171 H2157 0.960 . S
C2171 H2158 0.961 . S
C2171 H2159 0.959 . S
C2171 C2169 1.561 . S
C2172 C2169 1.526 . S
C2172 C2173 1.396 . S
C2172 C2177 1.390 . S
C2173 C2167 1.465 . S
C2173 C2172 1.396 . S
C2173 C2174 1.399 . S
C2174 H2160 0.929 . S
C2174 C2173 1.399 . S
C2174 C2175 1.385 . S
C2175 H2161 0.931 . S
C2175 C2174 1.385 . S
C2175 C2176 1.389 . S
C2176 C2175 1.389 . S
C2176 C2177 1.387 . S
C2177 H2162 0.930 . S
C2177 C2172 1.390 . S
C2177 C2176 1.387 . S
H2178 C2190 0.930 . S
H2179 C2192 0.930 . S
H2180 C2193 0.930 . S
H2181 C2197 0.959 . S
H2182 C2197 0.959 . S
H2183 C2197 0.961 . S
H2184 C2198 0.960 . S
H2185 C2198 0.961 . S
H2186 C2198 0.959 . S
H2187 C2201 0.929 . S
H2188 C2202 0.931 . S
H2189 C2204 0.930 . S
C2190 H2178 0.930 . S
C2190 C2191 1.399 . S
C2190 C2195 1.399 . S
C2191 C2190 1.399 . S
C2191 C2192 1.376 . S
C2192 H2179 0.930 . S
C2192 C2191 1.376 . S
C2192 C2193 1.388 . S
C2193 H2180 0.930 . S
C2193 C2192 1.388 . S
C2193 C2194 1.390 . S
C2194 C2193 1.390 . S
C2194 C2195 1.394 . S
C2194 C2200 1.465 . S
C2195 C2190 1.399 . S
C2195 C2194 1.394 . S
C2195 C2196 1.516 . S
C2196 C2195 1.516 . S
C2196 C2197 1.502 . S
C2196 C2198 1.561 . S
C2196 C2199 1.526 . S
C2197 H2181 0.959 . S
C2197 H2182 0.959 . S
C2197 H2183 0.961 . S
C2197 C2196 1.502 . S
C2198 H2184 0.960 . S
C2198 H2185 0.961 . S
C2198 H2186 0.959 . S
C2198 C2196 1.561 . S
C2199 C2196 1.526 . S
C2199 C2200 1.396 . S
C2199 C2204 1.390 . S
C2200 C2194 1.465 . S
C2200 C2199 1.396 . S
C2200 C2201 1.399 . S
C2201 H2187 0.929 . S
C2201 C2200 1.399 . S
C2201 C2202 1.385 . S
C2202 H2188 0.931 . S
C2202 C2201 1.385 . S
C2202 C2203 1.389 . S
C2203 C2202 1.389 . S
C2203 C2204 1.387 . S
C2204 H2189 0.930 . S
C2204 C2199 1.390 . S
C2204 C2203 1.387 . S
H2205 C2217 0.930 . S
H2206 C2219 0.930 . S
H2207 C2220 0.930 . S
H2208 C2224 0.959 . S
H2209 C2224 0.959 . S
H2210 C2224 0.961 . S
H2211 C2225 0.960 . S
H2212 C2225 0.961 . S
H2213 C2225 0.959 . S
H2214 C2228 0.929 . S
H2215 C2229 0.931 . S
H2216 C2231 0.930 . S
C2217 H2205 0.930 . S
C2217 C2218 1.399 . S
C2217 C2222 1.399 . S
C2218 C2217 1.399 . S
C2218 C2219 1.376 . S
C2219 H2206 0.930 . S
C2219 C2218 1.376 . S
C2219 C2220 1.388 . S
C2220 H2207 0.930 . S
C2220 C2219 1.388 . S
C2220 C2221 1.390 . S
C2221 C2220 1.390 . S
C2221 C2222 1.394 . S
C2221 C2227 1.465 . S
C2222 C2217 1.399 . S
C2222 C2221 1.394 . S
C2222 C2223 1.516 . S
C2223 C2222 1.516 . S
C2223 C2224 1.502 . S
C2223 C2225 1.561 . S
C2223 C2226 1.526 . S
C2224 H2208 0.959 . S
C2224 H2209 0.959 . S
C2224 H2210 0.961 . S
C2224 C2223 1.502 . S
C2225 H2211 0.960 . S
C2225 H2212 0.961 . S
C2225 H2213 0.959 . S
C2225 C2223 1.561 . S
C2226 C2223 1.526 . S
C2226 C2227 1.396 . S
C2226 C2231 1.390 . S
C2227 C2221 1.465 . S
C2227 C2226 1.396 . S
C2227 C2228 1.399 . S
C2228 H2214 0.929 . S
C2228 C2227 1.399 . S
C2228 C2229 1.385 . S
C2229 H2215 0.931 . S
C2229 C2228 1.385 . S
C2229 C2230 1.389 . S
C2230 C2229 1.389 . S
C2230 C2231 1.387 . S
C2231 H2216 0.930 . S
C2231 C2226 1.390 . S
C2231 C2230 1.387 . S
H2232 C2244 0.930 . S
H2233 C2246 0.930 . S
H2234 C2247 0.930 . S
H2235 C2251 0.959 . S
H2236 C2251 0.959 . S
H2237 C2251 0.961 . S
H2238 C2252 0.960 . S
H2239 C2252 0.961 . S
H2240 C2252 0.959 . S
H2241 C2255 0.929 . S
H2242 C2256 0.931 . S
H2243 C2258 0.930 . S
C2244 H2232 0.930 . S
C2244 C2245 1.399 . S
C2244 C2249 1.399 . S
C2245 C2244 1.399 . S
C2245 C2246 1.376 . S
C2246 H2233 0.930 . S
C2246 C2245 1.376 . S
C2246 C2247 1.388 . S
C2247 H2234 0.930 . S
C2247 C2246 1.388 . S
C2247 C2248 1.390 . S
C2248 C2247 1.390 . S
C2248 C2249 1.394 . S
C2248 C2254 1.465 . S
C2249 C2244 1.399 . S
C2249 C2248 1.394 . S
C2249 C2250 1.516 . S
C2250 C2249 1.516 . S
C2250 C2251 1.502 . S
C2250 C2252 1.561 . S
C2250 C2253 1.526 . S
C2251 H2235 0.959 . S
C2251 H2236 0.959 . S
C2251 H2237 0.961 . S
C2251 C2250 1.502 . S
C2252 H2238 0.960 . S
C2252 H2239 0.961 . S
C2252 H2240 0.959 . S
C2252 C2250 1.561 . S
C2253 C2250 1.526 . S
C2253 C2254 1.396 . S
C2253 C2258 1.390 . S
C2254 C2248 1.465 . S
C2254 C2253 1.396 . S
C2254 C2255 1.399 . S
C2255 H2241 0.929 . S
C2255 C2254 1.399 . S
C2255 C2256 1.385 . S
C2256 H2242 0.931 . S
C2256 C2255 1.385 . S
C2256 C2257 1.389 . S
C2257 C2256 1.389 . S
C2257 C2258 1.387 . S
C2258 H2243 0.930 . S
C2258 C2253 1.390 . S
C2258 C2257 1.387 . S
H2259 C2271 0.930 . S
H2260 C2273 0.930 . S
H2261 C2274 0.930 . S
H2262 C2278 0.959 . S
H2263 C2278 0.959 . S
H2264 C2278 0.961 . S
H2265 C2279 0.960 . S
H2266 C2279 0.961 . S
H2267 C2279 0.959 . S
H2268 C2282 0.929 . S
H2269 C2283 0.931 . S
H2270 C2285 0.930 . S
C2271 H2259 0.930 . S
C2271 C2272 1.399 . S
C2271 C2276 1.399 . S
C2272 C2271 1.399 . S
C2272 C2273 1.376 . S
C2273 H2260 0.930 . S
C2273 C2272 1.376 . S
C2273 C2274 1.388 . S
C2274 H2261 0.930 . S
C2274 C2273 1.388 . S
C2274 C2275 1.390 . S
C2275 C2274 1.390 . S
C2275 C2276 1.394 . S
C2275 C2281 1.465 . S
C2276 C2271 1.399 . S
C2276 C2275 1.394 . S
C2276 C2277 1.516 . S
C2277 C2276 1.516 . S
C2277 C2278 1.502 . S
C2277 C2279 1.561 . S
C2277 C2280 1.526 . S
C2278 H2262 0.959 . S
C2278 H2263 0.959 . S
C2278 H2264 0.961 . S
C2278 C2277 1.502 . S
C2279 H2265 0.960 . S
C2279 H2266 0.961 . S
C2279 H2267 0.959 . S
C2279 C2277 1.561 . S
C2280 C2277 1.526 . S
C2280 C2281 1.396 . S
C2280 C2285 1.390 . S
C2281 C2275 1.465 . S
C2281 C2280 1.396 . S
C2281 C2282 1.399 . S
C2282 H2268 0.929 . S
C2282 C2281 1.399 . S
C2282 C2283 1.385 . S
C2283 H2269 0.931 . S
C2283 C2282 1.385 . S
C2283 C2284 1.389 . S
C2284 C2283 1.389 . S
C2284 C2285 1.387 . S
C2285 H2270 0.930 . S
C2285 C2280 1.390 . S
C2285 C2284 1.387 . S
H2286 C2298 0.930 . S
H2287 C2300 0.930 . S
H2288 C2301 0.930 . S
H2289 C2305 0.959 . S
H2290 C2305 0.959 . S
H2291 C2305 0.961 . S
H2292 C2306 0.960 . S
H2293 C2306 0.961 . S
H2294 C2306 0.959 . S
H2295 C2309 0.929 . S
H2296 C2310 0.931 . S
H2297 C2312 0.930 . S
C2298 H2286 0.930 . S
C2298 C2299 1.399 . S
C2298 C2303 1.399 . S
C2299 C2298 1.399 . S
C2299 C2300 1.376 . S
C2300 H2287 0.930 . S
C2300 C2299 1.376 . S
C2300 C2301 1.388 . S
C2301 H2288 0.930 . S
C2301 C2300 1.388 . S
C2301 C2302 1.390 . S
C2302 C2301 1.390 . S
C2302 C2303 1.394 . S
C2302 C2308 1.465 . S
C2303 C2298 1.399 . S
C2303 C2302 1.394 . S
C2303 C2304 1.516 . S
C2304 C2303 1.516 . S
C2304 C2305 1.502 . S
C2304 C2306 1.561 . S
C2304 C2307 1.526 . S
C2305 H2289 0.959 . S
C2305 H2290 0.959 . S
C2305 H2291 0.961 . S
C2305 C2304 1.502 . S
C2306 H2292 0.960 . S
C2306 H2293 0.961 . S
C2306 H2294 0.959 . S
C2306 C2304 1.561 . S
C2307 C2304 1.526 . S
C2307 C2308 1.396 . S
C2307 C2312 1.390 . S
C2308 C2302 1.465 . S
C2308 C2307 1.396 . S
C2308 C2309 1.399 . S
C2309 H2295 0.929 . S
C2309 C2308 1.399 . S
C2309 C2310 1.385 . S
C2310 H2296 0.931 . S
C2310 C2309 1.385 . S
C2310 C2311 1.389 . S
C2311 C2310 1.389 . S
C2311 C2312 1.387 . S
C2312 H2297 0.930 . S
C2312 C2307 1.390 . S
C2312 C2311 1.387 . S
H2313 C2325 0.930 . S
H2314 C2327 0.930 . S
H2315 C2328 0.930 . S
H2316 C2332 0.959 . S
H2317 C2332 0.959 . S
H2318 C2332 0.961 . S
H2319 C2333 0.960 . S
H2320 C2333 0.961 . S
H2321 C2333 0.959 . S
H2322 C2336 0.929 . S
H2323 C2337 0.931 . S
H2324 C2339 0.930 . S
C2325 H2313 0.930 . S
C2325 C2326 1.399 . S
C2325 C2330 1.399 . S
C2326 C2325 1.399 . S
C2326 C2327 1.376 . S
C2327 H2314 0.930 . S
C2327 C2326 1.376 . S
C2327 C2328 1.388 . S
C2328 H2315 0.930 . S
C2328 C2327 1.388 . S
C2328 C2329 1.390 . S
C2329 C2328 1.390 . S
C2329 C2330 1.394 . S
C2329 C2335 1.465 . S
C2330 C2325 1.399 . S
C2330 C2329 1.394 . S
C2330 C2331 1.516 . S
C2331 C2330 1.516 . S
C2331 C2332 1.502 . S
C2331 C2333 1.561 . S
C2331 C2334 1.526 . S
C2332 H2316 0.959 . S
C2332 H2317 0.959 . S
C2332 H2318 0.961 . S
C2332 C2331 1.502 . S
C2333 H2319 0.960 . S
C2333 H2320 0.961 . S
C2333 H2321 0.959 . S
C2333 C2331 1.561 . S
C2334 C2331 1.526 . S
C2334 C2335 1.396 . S
C2334 C2339 1.390 . S
C2335 C2329 1.465 . S
C2335 C2334 1.396 . S
C2335 C2336 1.399 . S
C2336 H2322 0.929 . S
C2336 C2335 1.399 . S
C2336 C2337 1.385 . S
C2337 H2323 0.931 . S
C2337 C2336 1.385 . S
C2337 C2338 1.389 . S
C2338 C2337 1.389 . S
C2338 C2339 1.387 . S
C2339 H2324 0.930 . S
C2339 C2334 1.390 . S
C2339 C2338 1.387 . S
H2340 C2352 0.930 . S
H2341 C2354 0.930 . S
H2342 C2355 0.930 . S
H2343 C2359 0.959 . S
H2344 C2359 0.959 . S
H2345 C2359 0.961 . S
H2346 C2360 0.960 . S
H2347 C2360 0.961 . S
H2348 C2360 0.959 . S
H2349 C2363 0.929 . S
H2350 C2364 0.931 . S
H2351 C2366 0.930 . S
C2352 H2340 0.930 . S
C2352 C2353 1.399 . S
C2352 C2357 1.399 . S
C2353 C2352 1.399 . S
C2353 C2354 1.376 . S
C2354 H2341 0.930 . S
C2354 C2353 1.376 . S
C2354 C2355 1.388 . S
C2355 H2342 0.930 . S
C2355 C2354 1.388 . S
C2355 C2356 1.390 . S
C2356 C2355 1.390 . S
C2356 C2357 1.394 . S
C2356 C2362 1.465 . S
C2357 C2352 1.399 . S
C2357 C2356 1.394 . S
C2357 C2358 1.516 . S
C2358 C2357 1.516 . S
C2358 C2359 1.502 . S
C2358 C2360 1.561 . S
C2358 C2361 1.526 . S
C2359 H2343 0.959 . S
C2359 H2344 0.959 . S
C2359 H2345 0.961 . S
C2359 C2358 1.502 . S
C2360 H2346 0.960 . S
C2360 H2347 0.961 . S
C2360 H2348 0.959 . S
C2360 C2358 1.561 . S
C2361 C2358 1.526 . S
C2361 C2362 1.396 . S
C2361 C2366 1.390 . S
C2362 C2356 1.465 . S
C2362 C2361 1.396 . S
C2362 C2363 1.399 . S
C2363 H2349 0.929 . S
C2363 C2362 1.399 . S
C2363 C2364 1.385 . S
C2364 H2350 0.931 . S
C2364 C2363 1.385 . S
C2364 C2365 1.389 . S
C2365 C2364 1.389 . S
C2365 C2366 1.387 . S
C2366 H2351 0.930 . S
C2366 C2361 1.390 . S
C2366 C2365 1.387 . S
H2367 C2379 0.930 . S
H2368 C2381 0.930 . S
H2369 C2382 0.930 . S
H2370 C2386 0.959 . S
H2371 C2386 0.959 . S
H2372 C2386 0.961 . S
H2373 C2387 0.960 . S
H2374 C2387 0.961 . S
H2375 C2387 0.959 . S
H2376 C2390 0.929 . S
H2377 C2391 0.931 . S
H2378 C2393 0.930 . S
C2379 H2367 0.930 . S
C2379 C2380 1.399 . S
C2379 C2384 1.399 . S
C2380 C2379 1.399 . S
C2380 C2381 1.376 . S
C2381 H2368 0.930 . S
C2381 C2380 1.376 . S
C2381 C2382 1.388 . S
C2382 H2369 0.930 . S
C2382 C2381 1.388 . S
C2382 C2383 1.390 . S
C2383 C2382 1.390 . S
C2383 C2384 1.394 . S
C2383 C2389 1.465 . S
C2384 C2379 1.399 . S
C2384 C2383 1.394 . S
C2384 C2385 1.516 . S
C2385 C2384 1.516 . S
C2385 C2386 1.502 . S
C2385 C2387 1.561 . S
C2385 C2388 1.526 . S
C2386 H2370 0.959 . S
C2386 H2371 0.959 . S
C2386 H2372 0.961 . S
C2386 C2385 1.502 . S
C2387 H2373 0.960 . S
C2387 H2374 0.961 . S
C2387 H2375 0.959 . S
C2387 C2385 1.561 . S
C2388 C2385 1.526 . S
C2388 C2389 1.396 . S
C2388 C2393 1.390 . S
C2389 C2383 1.465 . S
C2389 C2388 1.396 . S
C2389 C2390 1.399 . S
C2390 H2376 0.929 . S
C2390 C2389 1.399 . S
C2390 C2391 1.385 . S
C2391 H2377 0.931 . S
C2391 C2390 1.385 . S
C2391 C2392 1.389 . S
C2392 C2391 1.389 . S
C2392 C2393 1.387 . S
C2393 H2378 0.930 . S
C2393 C2388 1.390 . S
C2393 C2392 1.387 . S
H2394 C2406 0.930 . S
H2395 C2408 0.930 . S
H2396 C2409 0.930 . S
H2397 C2413 0.959 . S
H2398 C2413 0.959 . S
H2399 C2413 0.961 . S
H2400 C2414 0.960 . S
H2401 C2414 0.961 . S
H2402 C2414 0.959 . S
H2403 C2417 0.929 . S
H2404 C2418 0.931 . S
H2405 C2420 0.930 . S
C2406 H2394 0.930 . S
C2406 C2407 1.399 . S
C2406 C2411 1.399 . S
C2407 C2406 1.399 . S
C2407 C2408 1.376 . S
C2408 H2395 0.930 . S
C2408 C2407 1.376 . S
C2408 C2409 1.388 . S
C2409 H2396 0.930 . S
C2409 C2408 1.388 . S
C2409 C2410 1.390 . S
C2410 C2409 1.390 . S
C2410 C2411 1.394 . S
C2410 C2416 1.465 . S
C2411 C2406 1.399 . S
C2411 C2410 1.394 . S
C2411 C2412 1.516 . S
C2412 C2411 1.516 . S
C2412 C2413 1.502 . S
C2412 C2414 1.561 . S
C2412 C2415 1.526 . S
C2413 H2397 0.959 . S
C2413 H2398 0.959 . S
C2413 H2399 0.961 . S
C2413 C2412 1.502 . S
C2414 H2400 0.960 . S
C2414 H2401 0.961 . S
C2414 H2402 0.959 . S
C2414 C2412 1.561 . S
C2415 C2412 1.526 . S
C2415 C2416 1.396 . S
C2415 C2420 1.390 . S
C2416 C2410 1.465 . S
C2416 C2415 1.396 . S
C2416 C2417 1.399 . S
C2417 H2403 0.929 . S
C2417 C2416 1.399 . S
C2417 C2418 1.385 . S
C2418 H2404 0.931 . S
C2418 C2417 1.385 . S
C2418 C2419 1.389 . S
C2419 C2418 1.389 . S
C2419 C2420 1.387 . S
C2420 H2405 0.930 . S
C2420 C2415 1.390 . S
C2420 C2419 1.387 . S
H2421 C2433 0.930 . S
H2422 C2435 0.930 . S
H2423 C2436 0.930 . S
H2424 C2440 0.959 . S
H2425 C2440 0.959 . S
H2426 C2440 0.961 . S
H2427 C2441 0.960 . S
H2428 C2441 0.961 . S
H2429 C2441 0.959 . S
H2430 C2444 0.929 . S
H2431 C2445 0.931 . S
H2432 C2447 0.930 . S
C2433 H2421 0.930 . S
C2433 C2434 1.399 . S
C2433 C2438 1.399 . S
C2434 C2433 1.399 . S
C2434 C2435 1.376 . S
C2435 H2422 0.930 . S
C2435 C2434 1.376 . S
C2435 C2436 1.388 . S
C2436 H2423 0.930 . S
C2436 C2435 1.388 . S
C2436 C2437 1.390 . S
C2437 C2436 1.390 . S
C2437 C2438 1.394 . S
C2437 C2443 1.465 . S
C2438 C2433 1.399 . S
C2438 C2437 1.394 . S
C2438 C2439 1.516 . S
C2439 C2438 1.516 . S
C2439 C2440 1.502 . S
C2439 C2441 1.561 . S
C2439 C2442 1.526 . S
C2440 H2424 0.959 . S
C2440 H2425 0.959 . S
C2440 H2426 0.961 . S
C2440 C2439 1.502 . S
C2441 H2427 0.960 . S
C2441 H2428 0.961 . S
C2441 H2429 0.959 . S
C2441 C2439 1.561 . S
C2442 C2439 1.526 . S
C2442 C2443 1.396 . S
C2442 C2447 1.390 . S
C2443 C2437 1.465 . S
C2443 C2442 1.396 . S
C2443 C2444 1.399 . S
C2444 H2430 0.929 . S
C2444 C2443 1.399 . S
C2444 C2445 1.385 . S
C2445 H2431 0.931 . S
C2445 C2444 1.385 . S
C2445 C2446 1.389 . S
C2446 C2445 1.389 . S
C2446 C2447 1.387 . S
C2447 H2432 0.930 . S
C2447 C2442 1.390 . S
C2447 C2446 1.387 . S
H2448 C2460 0.930 . S
H2449 C2462 0.930 . S
H2450 C2463 0.930 . S
H2451 C2467 0.959 . S
H2452 C2467 0.959 . S
H2453 C2467 0.961 . S
H2454 C2468 0.960 . S
H2455 C2468 0.961 . S
H2456 C2468 0.959 . S
H2457 C2471 0.929 . S
H2458 C2472 0.931 . S
H2459 C2474 0.930 . S
C2460 H2448 0.930 . S
C2460 C2461 1.399 . S
C2460 C2465 1.399 . S
C2461 C2460 1.399 . S
C2461 C2462 1.376 . S
C2462 H2449 0.930 . S
C2462 C2461 1.376 . S
C2462 C2463 1.388 . S
C2463 H2450 0.930 . S
C2463 C2462 1.388 . S
C2463 C2464 1.390 . S
C2464 C2463 1.390 . S
C2464 C2465 1.394 . S
C2464 C2470 1.465 . S
C2465 C2460 1.399 . S
C2465 C2464 1.394 . S
C2465 C2466 1.516 . S
C2466 C2465 1.516 . S
C2466 C2467 1.502 . S
C2466 C2468 1.561 . S
C2466 C2469 1.526 . S
C2467 H2451 0.959 . S
C2467 H2452 0.959 . S
C2467 H2453 0.961 . S
C2467 C2466 1.502 . S
C2468 H2454 0.960 . S
C2468 H2455 0.961 . S
C2468 H2456 0.959 . S
C2468 C2466 1.561 . S
C2469 C2466 1.526 . S
C2469 C2470 1.396 . S
C2469 C2474 1.390 . S
C2470 C2464 1.465 . S
C2470 C2469 1.396 . S
C2470 C2471 1.399 . S
C2471 H2457 0.929 . S
C2471 C2470 1.399 . S
C2471 C2472 1.385 . S
C2472 H2458 0.931 . S
C2472 C2471 1.385 . S
C2472 C2473 1.389 . S
C2473 C2472 1.389 . S
C2473 C2474 1.387 . S
C2474 H2459 0.930 . S
C2474 C2469 1.390 . S
C2474 C2473 1.387 . S
H2475 C2487 0.930 . S
H2476 C2489 0.930 . S
H2477 C2490 0.930 . S
H2478 C2494 0.959 . S
H2479 C2494 0.959 . S
H2480 C2494 0.961 . S
H2481 C2495 0.960 . S
H2482 C2495 0.961 . S
H2483 C2495 0.959 . S
H2484 C2498 0.929 . S
H2485 C2499 0.931 . S
H2486 C2501 0.930 . S
C2487 H2475 0.930 . S
C2487 C2488 1.399 . S
C2487 C2492 1.399 . S
C2488 C2487 1.399 . S
C2488 C2489 1.376 . S
C2489 H2476 0.930 . S
C2489 C2488 1.376 . S
C2489 C2490 1.388 . S
C2490 H2477 0.930 . S
C2490 C2489 1.388 . S
C2490 C2491 1.390 . S
C2491 C2490 1.390 . S
C2491 C2492 1.394 . S
C2491 C2497 1.465 . S
C2492 C2487 1.399 . S
C2492 C2491 1.394 . S
C2492 C2493 1.516 . S
C2493 C2492 1.516 . S
C2493 C2494 1.502 . S
C2493 C2495 1.561 . S
C2493 C2496 1.526 . S
C2494 H2478 0.959 . S
C2494 H2479 0.959 . S
C2494 H2480 0.961 . S
C2494 C2493 1.502 . S
C2495 H2481 0.960 . S
C2495 H2482 0.961 . S
C2495 H2483 0.959 . S
C2495 C2493 1.561 . S
C2496 C2493 1.526 . S
C2496 C2497 1.396 . S
C2496 C2501 1.390 . S
C2497 C2491 1.465 . S
C2497 C2496 1.396 . S
C2497 C2498 1.399 . S
C2498 H2484 0.929 . S
C2498 C2497 1.399 . S
C2498 C2499 1.385 . S
C2499 H2485 0.931 . S
C2499 C2498 1.385 . S
C2499 C2500 1.389 . S
C2500 C2499 1.389 . S
C2500 C2501 1.387 . S
C2501 H2486 0.930 . S
C2501 C2496 1.390 . S
C2501 C2500 1.387 . S
H2502 C2514 0.930 . S
H2503 C2516 0.930 . S
H2504 C2517 0.930 . S
H2505 C2521 0.959 . S
H2506 C2521 0.959 . S
H2507 C2521 0.961 . S
H2508 C2522 0.960 . S
H2509 C2522 0.961 . S
H2510 C2522 0.959 . S
H2511 C2525 0.929 . S
H2512 C2526 0.931 . S
H2513 C2528 0.930 . S
C2514 H2502 0.930 . S
C2514 C2515 1.399 . S
C2514 C2519 1.399 . S
C2515 C2514 1.399 . S
C2515 C2516 1.376 . S
C2516 H2503 0.930 . S
C2516 C2515 1.376 . S
C2516 C2517 1.388 . S
C2517 H2504 0.930 . S
C2517 C2516 1.388 . S
C2517 C2518 1.390 . S
C2518 C2517 1.390 . S
C2518 C2519 1.394 . S
C2518 C2524 1.465 . S
C2519 C2514 1.399 . S
C2519 C2518 1.394 . S
C2519 C2520 1.516 . S
C2520 C2519 1.516 . S
C2520 C2521 1.502 . S
C2520 C2522 1.561 . S
C2520 C2523 1.526 . S
C2521 H2505 0.959 . S
C2521 H2506 0.959 . S
C2521 H2507 0.961 . S
C2521 C2520 1.502 . S
C2522 H2508 0.960 . S
C2522 H2509 0.961 . S
C2522 H2510 0.959 . S
C2522 C2520 1.561 . S
C2523 C2520 1.526 . S
C2523 C2524 1.396 . S
C2523 C2528 1.390 . S
C2524 C2518 1.465 . S
C2524 C2523 1.396 . S
C2524 C2525 1.399 . S
C2525 H2511 0.929 . S
C2525 C2524 1.399 . S
C2525 C2526 1.385 . S
C2526 H2512 0.931 . S
C2526 C2525 1.385 . S
C2526 C2527 1.389 . S
C2527 C2526 1.389 . S
C2527 C2528 1.387 . S
C2528 H2513 0.930 . S
C2528 C2523 1.390 . S
C2528 C2527 1.387 . S
H2529 C2541 0.930 . S
H2530 C2543 0.930 . S
H2531 C2544 0.930 . S
H2532 C2548 0.959 . S
H2533 C2548 0.959 . S
H2534 C2548 0.961 . S
H2535 C2549 0.960 . S
H2536 C2549 0.961 . S
H2537 C2549 0.959 . S
H2538 C2552 0.929 . S
H2539 C2553 0.931 . S
H2540 C2555 0.930 . S
C2541 H2529 0.930 . S
C2541 C2542 1.399 . S
C2541 C2546 1.399 . S
C2542 C2541 1.399 . S
C2542 C2543 1.376 . S
C2543 H2530 0.930 . S
C2543 C2542 1.376 . S
C2543 C2544 1.388 . S
C2544 H2531 0.930 . S
C2544 C2543 1.388 . S
C2544 C2545 1.390 . S
C2545 C2544 1.390 . S
C2545 C2546 1.394 . S
C2545 C2551 1.465 . S
C2546 C2541 1.399 . S
C2546 C2545 1.394 . S
C2546 C2547 1.516 . S
C2547 C2546 1.516 . S
C2547 C2548 1.502 . S
C2547 C2549 1.561 . S
C2547 C2550 1.526 . S
C2548 H2532 0.959 . S
C2548 H2533 0.959 . S
C2548 H2534 0.961 . S
C2548 C2547 1.502 . S
C2549 H2535 0.960 . S
C2549 H2536 0.961 . S
C2549 H2537 0.959 . S
C2549 C2547 1.561 . S
C2550 C2547 1.526 . S
C2550 C2551 1.396 . S
C2550 C2555 1.390 . S
C2551 C2545 1.465 . S
C2551 C2550 1.396 . S
C2551 C2552 1.399 . S
C2552 H2538 0.929 . S
C2552 C2551 1.399 . S
C2552 C2553 1.385 . S
C2553 H2539 0.931 . S
C2553 C2552 1.385 . S
C2553 C2554 1.389 . S
C2554 C2553 1.389 . S
C2554 C2555 1.387 . S
C2555 H2540 0.930 . S
C2555 C2550 1.390 . S
C2555 C2554 1.387 . S
H2556 C2568 0.930 . S
H2557 C2570 0.930 . S
H2558 C2571 0.930 . S
H2559 C2575 0.959 . S
H2560 C2575 0.959 . S
H2561 C2575 0.961 . S
H2562 C2576 0.960 . S
H2563 C2576 0.961 . S
H2564 C2576 0.959 . S
H2565 C2579 0.929 . S
H2566 C2580 0.931 . S
H2567 C2582 0.930 . S
C2568 H2556 0.930 . S
C2568 C2569 1.399 . S
C2568 C2573 1.399 . S
C2569 C2568 1.399 . S
C2569 C2570 1.376 . S
C2570 H2557 0.930 . S
C2570 C2569 1.376 . S
C2570 C2571 1.388 . S
C2571 H2558 0.930 . S
C2571 C2570 1.388 . S
C2571 C2572 1.390 . S
C2572 C2571 1.390 . S
C2572 C2573 1.394 . S
C2572 C2578 1.465 . S
C2573 C2568 1.399 . S
C2573 C2572 1.394 . S
C2573 C2574 1.516 . S
C2574 C2573 1.516 . S
C2574 C2575 1.502 . S
C2574 C2576 1.561 . S
C2574 C2577 1.526 . S
C2575 H2559 0.959 . S
C2575 H2560 0.959 . S
C2575 H2561 0.961 . S
C2575 C2574 1.502 . S
C2576 H2562 0.960 . S
C2576 H2563 0.961 . S
C2576 H2564 0.959 . S
C2576 C2574 1.561 . S
C2577 C2574 1.526 . S
C2577 C2578 1.396 . S
C2577 C2582 1.390 . S
C2578 C2572 1.465 . S
C2578 C2577 1.396 . S
C2578 C2579 1.399 . S
C2579 H2565 0.929 . S
C2579 C2578 1.399 . S
C2579 C2580 1.385 . S
C2580 H2566 0.931 . S
C2580 C2579 1.385 . S
C2580 C2581 1.389 . S
C2581 C2580 1.389 . S
C2581 C2582 1.387 . S
C2582 H2567 0.930 . S
C2582 C2577 1.390 . S
C2582 C2581 1.387 . S
H2583 C2595 0.930 . S
H2584 C2597 0.930 . S
H2585 C2598 0.930 . S
H2586 C2602 0.959 . S
H2587 C2602 0.959 . S
H2588 C2602 0.961 . S
H2589 C2603 0.960 . S
H2590 C2603 0.961 . S
H2591 C2603 0.959 . S
H2592 C2606 0.929 . S
H2593 C2607 0.931 . S
H2594 C2609 0.930 . S
C2595 H2583 0.930 . S
C2595 C2596 1.399 . S
C2595 C2600 1.399 . S
C2596 C2595 1.399 . S
C2596 C2597 1.376 . S
C2597 H2584 0.930 . S
C2597 C2596 1.376 . S
C2597 C2598 1.388 . S
C2598 H2585 0.930 . S
C2598 C2597 1.388 . S
C2598 C2599 1.390 . S
C2599 C2598 1.390 . S
C2599 C2600 1.394 . S
C2599 C2605 1.465 . S
C2600 C2595 1.399 . S
C2600 C2599 1.394 . S
C2600 C2601 1.516 . S
C2601 C2600 1.516 . S
C2601 C2602 1.502 . S
C2601 C2603 1.561 . S
C2601 C2604 1.526 . S
C2602 H2586 0.959 . S
C2602 H2587 0.959 . S
C2602 H2588 0.961 . S
C2602 C2601 1.502 . S
C2603 H2589 0.960 . S
C2603 H2590 0.961 . S
C2603 H2591 0.959 . S
C2603 C2601 1.561 . S
C2604 C2601 1.526 . S
C2604 C2605 1.396 . S
C2604 C2609 1.390 . S
C2605 C2599 1.465 . S
C2605 C2604 1.396 . S
C2605 C2606 1.399 . S
C2606 H2592 0.929 . S
C2606 C2605 1.399 . S
C2606 C2607 1.385 . S
C2607 H2593 0.931 . S
C2607 C2606 1.385 . S
C2607 C2608 1.389 . S
C2608 C2607 1.389 . S
C2608 C2609 1.387 . S
C2609 H2594 0.930 . S
C2609 C2604 1.390 . S
C2609 C2608 1.387 . S
H2610 C2622 0.930 . S
H2611 C2624 0.930 . S
H2612 C2625 0.930 . S
H2613 C2629 0.959 . S
H2614 C2629 0.959 . S
H2615 C2629 0.961 . S
H2616 C2630 0.960 . S
H2617 C2630 0.961 . S
H2618 C2630 0.959 . S
H2619 C2633 0.929 . S
H2620 C2634 0.931 . S
H2621 C2636 0.930 . S
C2622 H2610 0.930 . S
C2622 C2623 1.399 . S
C2622 C2627 1.399 . S
C2623 C2622 1.399 . S
C2623 C2624 1.376 . S
C2624 H2611 0.930 . S
C2624 C2623 1.376 . S
C2624 C2625 1.388 . S
C2625 H2612 0.930 . S
C2625 C2624 1.388 . S
C2625 C2626 1.390 . S
C2626 C2625 1.390 . S
C2626 C2627 1.394 . S
C2626 C2632 1.465 . S
C2627 C2622 1.399 . S
C2627 C2626 1.394 . S
C2627 C2628 1.516 . S
C2628 C2627 1.516 . S
C2628 C2629 1.502 . S
C2628 C2630 1.561 . S
C2628 C2631 1.526 . S
C2629 H2613 0.959 . S
C2629 H2614 0.959 . S
C2629 H2615 0.961 . S
C2629 C2628 1.502 . S
C2630 H2616 0.960 . S
C2630 H2617 0.961 . S
C2630 H2618 0.959 . S
C2630 C2628 1.561 . S
C2631 C2628 1.526 . S
C2631 C2632 1.396 . S
C2631 C2636 1.390 . S
C2632 C2626 1.465 . S
C2632 C2631 1.396 . S
C2632 C2633 1.399 . S
C2633 H2619 0.929 . S
C2633 C2632 1.399 . S
C2633 C2634 1.385 . S
C2634 H2620 0.931 . S
C2634 C2633 1.385 . S
C2634 C2635 1.389 . S
C2635 C2634 1.389 . S
C2635 C2636 1.387 . S
C2636 H2621 0.930 . S
C2636 C2631 1.390 . S
C2636 C2635 1.387 . S
H2637 C2649 0.930 . S
H2638 C2651 0.930 . S
H2639 C2652 0.930 . S
H2640 C2656 0.959 . S
H2641 C2656 0.959 . S
H2642 C2656 0.961 . S
H2643 C2657 0.960 . S
H2644 C2657 0.961 . S
H2645 C2657 0.959 . S
H2646 C2660 0.929 . S
H2647 C2661 0.931 . S
H2648 C2663 0.930 . S
C2649 H2637 0.930 . S
C2649 C2650 1.399 . S
C2649 C2654 1.399 . S
C2650 C2649 1.399 . S
C2650 C2651 1.376 . S
C2651 H2638 0.930 . S
C2651 C2650 1.376 . S
C2651 C2652 1.388 . S
C2652 H2639 0.930 . S
C2652 C2651 1.388 . S
C2652 C2653 1.390 . S
C2653 C2652 1.390 . S
C2653 C2654 1.394 . S
C2653 C2659 1.465 . S
C2654 C2649 1.399 . S
C2654 C2653 1.394 . S
C2654 C2655 1.516 . S
C2655 C2654 1.516 . S
C2655 C2656 1.502 . S
C2655 C2657 1.561 . S
C2655 C2658 1.526 . S
C2656 H2640 0.959 . S
C2656 H2641 0.959 . S
C2656 H2642 0.961 . S
C2656 C2655 1.502 . S
C2657 H2643 0.960 . S
C2657 H2644 0.961 . S
C2657 H2645 0.959 . S
C2657 C2655 1.561 . S
C2658 C2655 1.526 . S
C2658 C2659 1.396 . S
C2658 C2663 1.390 . S
C2659 C2653 1.465 . S
C2659 C2658 1.396 . S
C2659 C2660 1.399 . S
C2660 H2646 0.929 . S
C2660 C2659 1.399 . S
C2660 C2661 1.385 . S
C2661 H2647 0.931 . S
C2661 C2660 1.385 . S
C2661 C2662 1.389 . S
C2662 C2661 1.389 . S
C2662 C2663 1.387 . S
C2663 H2648 0.930 . S
C2663 C2658 1.390 . S
C2663 C2662 1.387 . S
H2664 C2676 0.930 . S
H2665 C2678 0.930 . S
H2666 C2679 0.930 . S
H2667 C2683 0.959 . S
H2668 C2683 0.959 . S
H2669 C2683 0.961 . S
H2670 C2684 0.960 . S
H2671 C2684 0.961 . S
H2672 C2684 0.959 . S
H2673 C2687 0.929 . S
H2674 C2688 0.931 . S
H2675 C2690 0.930 . S
C2676 H2664 0.930 . S
C2676 C2677 1.399 . S
C2676 C2681 1.399 . S
C2677 C2676 1.399 . S
C2677 C2678 1.376 . S
C2678 H2665 0.930 . S
C2678 C2677 1.376 . S
C2678 C2679 1.388 . S
C2679 H2666 0.930 . S
C2679 C2678 1.388 . S
C2679 C2680 1.390 . S
C2680 C2679 1.390 . S
C2680 C2681 1.394 . S
C2680 C2686 1.465 . S
C2681 C2676 1.399 . S
C2681 C2680 1.394 . S
C2681 C2682 1.516 . S
C2682 C2681 1.516 . S
C2682 C2683 1.502 . S
C2682 C2684 1.561 . S
C2682 C2685 1.526 . S
C2683 H2667 0.959 . S
C2683 H2668 0.959 . S
C2683 H2669 0.961 . S
C2683 C2682 1.502 . S
C2684 H2670 0.960 . S
C2684 H2671 0.961 . S
C2684 H2672 0.959 . S
C2684 C2682 1.561 . S
C2685 C2682 1.526 . S
C2685 C2686 1.396 . S
C2685 C2690 1.390 . S
C2686 C2680 1.465 . S
C2686 C2685 1.396 . S
C2686 C2687 1.399 . S
C2687 H2673 0.929 . S
C2687 C2686 1.399 . S
C2687 C2688 1.385 . S
C2688 H2674 0.931 . S
C2688 C2687 1.385 . S
C2688 C2689 1.389 . S
C2689 C2688 1.389 . S
C2689 C2690 1.387 . S
C2690 H2675 0.930 . S
C2690 C2685 1.390 . S
C2690 C2689 1.387 . S
H2691 C2703 0.930 . S
H2692 C2705 0.930 . S
H2693 C2706 0.930 . S
H2694 C2710 0.959 . S
H2695 C2710 0.959 . S
H2696 C2710 0.961 . S
H2697 C2711 0.960 . S
H2698 C2711 0.961 . S
H2699 C2711 0.959 . S
H2700 C2714 0.929 . S
H2701 C2715 0.931 . S
H2702 C2717 0.930 . S
C2703 H2691 0.930 . S
C2703 C2704 1.399 . S
C2703 C2708 1.399 . S
C2704 C2703 1.399 . S
C2704 C2705 1.376 . S
C2705 H2692 0.930 . S
C2705 C2704 1.376 . S
C2705 C2706 1.388 . S
C2706 H2693 0.930 . S
C2706 C2705 1.388 . S
C2706 C2707 1.390 . S
C2707 C2706 1.390 . S
C2707 C2708 1.394 . S
C2707 C2713 1.465 . S
C2708 C2703 1.399 . S
C2708 C2707 1.394 . S
C2708 C2709 1.516 . S
C2709 C2708 1.516 . S
C2709 C2710 1.502 . S
C2709 C2711 1.561 . S
C2709 C2712 1.526 . S
C2710 H2694 0.959 . S
C2710 H2695 0.959 . S
C2710 H2696 0.961 . S
C2710 C2709 1.502 . S
C2711 H2697 0.960 . S
C2711 H2698 0.961 . S
C2711 H2699 0.959 . S
C2711 C2709 1.561 . S
C2712 C2709 1.526 . S
C2712 C2713 1.396 . S
C2712 C2717 1.390 . S
C2713 C2707 1.465 . S
C2713 C2712 1.396 . S
C2713 C2714 1.399 . S
C2714 H2700 0.929 . S
C2714 C2713 1.399 . S
C2714 C2715 1.385 . S
C2715 H2701 0.931 . S
C2715 C2714 1.385 . S
C2715 C2716 1.389 . S
C2716 C2715 1.389 . S
C2716 C2717 1.387 . S
C2717 H2702 0.930 . S
C2717 C2712 1.390 . S
C2717 C2716 1.387 . S
H2718 C2730 0.930 . S
H2719 C2732 0.930 . S
H2720 C2733 0.930 . S
H2721 C2737 0.959 . S
H2722 C2737 0.959 . S
H2723 C2737 0.961 . S
H2724 C2738 0.960 . S
H2725 C2738 0.961 . S
H2726 C2738 0.959 . S
H2727 C2741 0.929 . S
H2728 C2742 0.931 . S
H2729 C2744 0.930 . S
C2730 H2718 0.930 . S
C2730 C2731 1.399 . S
C2730 C2735 1.399 . S
C2731 C2730 1.399 . S
C2731 C2732 1.376 . S
C2732 H2719 0.930 . S
C2732 C2731 1.376 . S
C2732 C2733 1.388 . S
C2733 H2720 0.930 . S
C2733 C2732 1.388 . S
C2733 C2734 1.390 . S
C2734 C2733 1.390 . S
C2734 C2735 1.394 . S
C2734 C2740 1.465 . S
C2735 C2730 1.399 . S
C2735 C2734 1.394 . S
C2735 C2736 1.516 . S
C2736 C2735 1.516 . S
C2736 C2737 1.502 . S
C2736 C2738 1.561 . S
C2736 C2739 1.526 . S
C2737 H2721 0.959 . S
C2737 H2722 0.959 . S
C2737 H2723 0.961 . S
C2737 C2736 1.502 . S
C2738 H2724 0.960 . S
C2738 H2725 0.961 . S
C2738 H2726 0.959 . S
C2738 C2736 1.561 . S
C2739 C2736 1.526 . S
C2739 C2740 1.396 . S
C2739 C2744 1.390 . S
C2740 C2734 1.465 . S
C2740 C2739 1.396 . S
C2740 C2741 1.399 . S
C2741 H2727 0.929 . S
C2741 C2740 1.399 . S
C2741 C2742 1.385 . S
C2742 H2728 0.931 . S
C2742 C2741 1.385 . S
C2742 C2743 1.389 . S
C2743 C2742 1.389 . S
C2743 C2744 1.387 . S
C2744 H2729 0.930 . S
C2744 C2739 1.390 . S
C2744 C2743 1.387 . S
H2745 C2757 0.930 . S
H2746 C2759 0.930 . S
H2747 C2760 0.930 . S
H2748 C2764 0.959 . S
H2749 C2764 0.959 . S
H2750 C2764 0.961 . S
H2751 C2765 0.960 . S
H2752 C2765 0.961 . S
H2753 C2765 0.959 . S
H2754 C2768 0.929 . S
H2755 C2769 0.931 . S
H2756 C2771 0.930 . S
C2757 H2745 0.930 . S
C2757 C2758 1.399 . S
C2757 C2762 1.399 . S
C2758 C2757 1.399 . S
C2758 C2759 1.376 . S
C2759 H2746 0.930 . S
C2759 C2758 1.376 . S
C2759 C2760 1.388 . S
C2760 H2747 0.930 . S
C2760 C2759 1.388 . S
C2760 C2761 1.390 . S
C2761 C2760 1.390 . S
C2761 C2762 1.394 . S
C2761 C2767 1.465 . S
C2762 C2757 1.399 . S
C2762 C2761 1.394 . S
C2762 C2763 1.516 . S
C2763 C2762 1.516 . S
C2763 C2764 1.502 . S
C2763 C2765 1.561 . S
C2763 C2766 1.526 . S
C2764 H2748 0.959 . S
C2764 H2749 0.959 . S
C2764 H2750 0.961 . S
C2764 C2763 1.502 . S
C2765 H2751 0.960 . S
C2765 H2752 0.961 . S
C2765 H2753 0.959 . S
C2765 C2763 1.561 . S
C2766 C2763 1.526 . S
C2766 C2767 1.396 . S
C2766 C2771 1.390 . S
C2767 C2761 1.465 . S
C2767 C2766 1.396 . S
C2767 C2768 1.399 . S
C2768 H2754 0.929 . S
C2768 C2767 1.399 . S
C2768 C2769 1.385 . S
C2769 H2755 0.931 . S
C2769 C2768 1.385 . S
C2769 C2770 1.389 . S
C2770 C2769 1.389 . S
C2770 C2771 1.387 . S
C2771 H2756 0.930 . S
C2771 C2766 1.390 . S
C2771 C2770 1.387 . S
H2772 C2784 0.930 . S
H2773 C2786 0.930 . S
H2774 C2787 0.930 . S
H2775 C2791 0.959 . S
H2776 C2791 0.959 . S
H2777 C2791 0.961 . S
H2778 C2792 0.960 . S
H2779 C2792 0.961 . S
H2780 C2792 0.959 . S
H2781 C2795 0.929 . S
H2782 C2796 0.931 . S
H2783 C2798 0.930 . S
C2784 H2772 0.930 . S
C2784 C2785 1.399 . S
C2784 C2789 1.399 . S
C2785 C2784 1.399 . S
C2785 C2786 1.376 . S
C2786 H2773 0.930 . S
C2786 C2785 1.376 . S
C2786 C2787 1.388 . S
C2787 H2774 0.930 . S
C2787 C2786 1.388 . S
C2787 C2788 1.390 . S
C2788 C2787 1.390 . S
C2788 C2789 1.394 . S
C2788 C2794 1.465 . S
C2789 C2784 1.399 . S
C2789 C2788 1.394 . S
C2789 C2790 1.516 . S
C2790 C2789 1.516 . S
C2790 C2791 1.502 . S
C2790 C2792 1.561 . S
C2790 C2793 1.526 . S
C2791 H2775 0.959 . S
C2791 H2776 0.959 . S
C2791 H2777 0.961 . S
C2791 C2790 1.502 . S
C2792 H2778 0.960 . S
C2792 H2779 0.961 . S
C2792 H2780 0.959 . S
C2792 C2790 1.561 . S
C2793 C2790 1.526 . S
C2793 C2794 1.396 . S
C2793 C2798 1.390 . S
C2794 C2788 1.465 . S
C2794 C2793 1.396 . S
C2794 C2795 1.399 . S
C2795 H2781 0.929 . S
C2795 C2794 1.399 . S
C2795 C2796 1.385 . S
C2796 H2782 0.931 . S
C2796 C2795 1.385 . S
C2796 C2797 1.389 . S
C2797 C2796 1.389 . S
C2797 C2798 1.387 . S
C2798 H2783 0.930 . S
C2798 C2793 1.390 . S
C2798 C2797 1.387 . S
H2799 C2811 0.930 . S
H2800 C2813 0.930 . S
H2801 C2814 0.930 . S
H2802 C2818 0.959 . S
H2803 C2818 0.959 . S
H2804 C2818 0.961 . S
H2805 C2819 0.960 . S
H2806 C2819 0.961 . S
H2807 C2819 0.959 . S
H2808 C2822 0.929 . S
H2809 C2823 0.931 . S
H2810 C2825 0.930 . S
C2811 H2799 0.930 . S
C2811 C2812 1.399 . S
C2811 C2816 1.399 . S
C2812 C2811 1.399 . S
C2812 C2813 1.376 . S
C2813 H2800 0.930 . S
C2813 C2812 1.376 . S
C2813 C2814 1.388 . S
C2814 H2801 0.930 . S
C2814 C2813 1.388 . S
C2814 C2815 1.390 . S
C2815 C2814 1.390 . S
C2815 C2816 1.394 . S
C2815 C2821 1.465 . S
C2816 C2811 1.399 . S
C2816 C2815 1.394 . S
C2816 C2817 1.516 . S
C2817 C2816 1.516 . S
C2817 C2818 1.502 . S
C2817 C2819 1.561 . S
C2817 C2820 1.526 . S
C2818 H2802 0.959 . S
C2818 H2803 0.959 . S
C2818 H2804 0.961 . S
C2818 C2817 1.502 . S
C2819 H2805 0.960 . S
C2819 H2806 0.961 . S
C2819 H2807 0.959 . S
C2819 C2817 1.561 . S
C2820 C2817 1.526 . S
C2820 C2821 1.396 . S
C2820 C2825 1.390 . S
C2821 C2815 1.465 . S
C2821 C2820 1.396 . S
C2821 C2822 1.399 . S
C2822 H2808 0.929 . S
C2822 C2821 1.399 . S
C2822 C2823 1.385 . S
C2823 H2809 0.931 . S
C2823 C2822 1.385 . S
C2823 C2824 1.389 . S
C2824 C2823 1.389 . S
C2824 C2825 1.387 . S
C2825 H2810 0.930 . S
C2825 C2820 1.390 . S
C2825 C2824 1.387 . S
H2826 C2838 0.930 . S
H2827 C2840 0.930 . S
H2828 C2841 0.930 . S
H2829 C2845 0.959 . S
H2830 C2845 0.959 . S
H2831 C2845 0.961 . S
H2832 C2846 0.960 . S
H2833 C2846 0.961 . S
H2834 C2846 0.959 . S
H2835 C2849 0.929 . S
H2836 C2850 0.931 . S
H2837 C2852 0.930 . S
C2838 H2826 0.930 . S
C2838 C2839 1.399 . S
C2838 C2843 1.399 . S
C2839 C2838 1.399 . S
C2839 C2840 1.376 . S
C2840 H2827 0.930 . S
C2840 C2839 1.376 . S
C2840 C2841 1.388 . S
C2841 H2828 0.930 . S
C2841 C2840 1.388 . S
C2841 C2842 1.390 . S
C2842 C2841 1.390 . S
C2842 C2843 1.394 . S
C2842 C2848 1.465 . S
C2843 C2838 1.399 . S
C2843 C2842 1.394 . S
C2843 C2844 1.516 . S
C2844 C2843 1.516 . S
C2844 C2845 1.502 . S
C2844 C2846 1.561 . S
C2844 C2847 1.526 . S
C2845 H2829 0.959 . S
C2845 H2830 0.959 . S
C2845 H2831 0.961 . S
C2845 C2844 1.502 . S
C2846 H2832 0.960 . S
C2846 H2833 0.961 . S
C2846 H2834 0.959 . S
C2846 C2844 1.561 . S
C2847 C2844 1.526 . S
C2847 C2848 1.396 . S
C2847 C2852 1.390 . S
C2848 C2842 1.465 . S
C2848 C2847 1.396 . S
C2848 C2849 1.399 . S
C2849 H2835 0.929 . S
C2849 C2848 1.399 . S
C2849 C2850 1.385 . S
C2850 H2836 0.931 . S
C2850 C2849 1.385 . S
C2850 C2851 1.389 . S
C2851 C2850 1.389 . S
C2851 C2852 1.387 . S
C2852 H2837 0.930 . S
C2852 C2847 1.390 . S
C2852 C2851 1.387 . S
H2853 C2865 0.930 . S
H2854 C2867 0.930 . S
H2855 C2868 0.930 . S
H2856 C2872 0.959 . S
H2857 C2872 0.959 . S
H2858 C2872 0.961 . S
H2859 C2873 0.960 . S
H2860 C2873 0.961 . S
H2861 C2873 0.959 . S
H2862 C2876 0.929 . S
H2863 C2877 0.931 . S
H2864 C2879 0.930 . S
C2865 H2853 0.930 . S
C2865 C2866 1.399 . S
C2865 C2870 1.399 . S
C2866 C2865 1.399 . S
C2866 C2867 1.376 . S
C2867 H2854 0.930 . S
C2867 C2866 1.376 . S
C2867 C2868 1.388 . S
C2868 H2855 0.930 . S
C2868 C2867 1.388 . S
C2868 C2869 1.390 . S
C2869 C2868 1.390 . S
C2869 C2870 1.394 . S
C2869 C2875 1.465 . S
C2870 C2865 1.399 . S
C2870 C2869 1.394 . S
C2870 C2871 1.516 . S
C2871 C2870 1.516 . S
C2871 C2872 1.502 . S
C2871 C2873 1.561 . S
C2871 C2874 1.526 . S
C2872 H2856 0.959 . S
C2872 H2857 0.959 . S
C2872 H2858 0.961 . S
C2872 C2871 1.502 . S
C2873 H2859 0.960 . S
C2873 H2860 0.961 . S
C2873 H2861 0.959 . S
C2873 C2871 1.561 . S
C2874 C2871 1.526 . S
C2874 C2875 1.396 . S
C2874 C2879 1.390 . S
C2875 C2869 1.465 . S
C2875 C2874 1.396 . S
C2875 C2876 1.399 . S
C2876 H2862 0.929 . S
C2876 C2875 1.399 . S
C2876 C2877 1.385 . S
C2877 H2863 0.931 . S
C2877 C2876 1.385 . S
C2877 C2878 1.389 . S
C2878 C2877 1.389 . S
C2878 C2879 1.387 . S
C2879 H2864 0.930 . S
C2879 C2874 1.390 . S
C2879 C2878 1.387 . S
H2880 C2892 0.930 . S
H2881 C2894 0.930 . S
H2882 C2895 0.930 . S
H2883 C2899 0.959 . S
H2884 C2899 0.959 . S
H2885 C2899 0.961 . S
H2886 C2900 0.960 . S
H2887 C2900 0.961 . S
H2888 C2900 0.959 . S
H2889 C2903 0.929 . S
H2890 C2904 0.931 . S
H2891 C2906 0.930 . S
C2892 H2880 0.930 . S
C2892 C2893 1.399 . S
C2892 C2897 1.399 . S
C2893 C2892 1.399 . S
C2893 C2894 1.376 . S
C2894 H2881 0.930 . S
C2894 C2893 1.376 . S
C2894 C2895 1.388 . S
C2895 H2882 0.930 . S
C2895 C2894 1.388 . S
C2895 C2896 1.390 . S
C2896 C2895 1.390 . S
C2896 C2897 1.394 . S
C2896 C2902 1.465 . S
C2897 C2892 1.399 . S
C2897 C2896 1.394 . S
C2897 C2898 1.516 . S
C2898 C2897 1.516 . S
C2898 C2899 1.502 . S
C2898 C2900 1.561 . S
C2898 C2901 1.526 . S
C2899 H2883 0.959 . S
C2899 H2884 0.959 . S
C2899 H2885 0.961 . S
C2899 C2898 1.502 . S
C2900 H2886 0.960 . S
C2900 H2887 0.961 . S
C2900 H2888 0.959 . S
C2900 C2898 1.561 . S
C2901 C2898 1.526 . S
C2901 C2902 1.396 . S
C2901 C2906 1.390 . S
C2902 C2896 1.465 . S
C2902 C2901 1.396 . S
C2902 C2903 1.399 . S
C2903 H2889 0.929 . S
C2903 C2902 1.399 . S
C2903 C2904 1.385 . S
C2904 H2890 0.931 . S
C2904 C2903 1.385 . S
C2904 C2905 1.389 . S
C2905 C2904 1.389 . S
C2905 C2906 1.387 . S
C2906 H2891 0.930 . S
C2906 C2901 1.390 . S
C2906 C2905 1.387 . S
H2907 C2919 0.930 . S
H2908 C2921 0.930 . S
H2909 C2922 0.930 . S
H2910 C2926 0.959 . S
H2911 C2926 0.959 . S
H2912 C2926 0.961 . S
H2913 C2927 0.960 . S
H2914 C2927 0.961 . S
H2915 C2927 0.959 . S
H2916 C2930 0.929 . S
H2917 C2931 0.931 . S
H2918 C2933 0.930 . S
C2919 H2907 0.930 . S
C2919 C2920 1.399 . S
C2919 C2924 1.399 . S
C2920 C2919 1.399 . S
C2920 C2921 1.376 . S
C2921 H2908 0.930 . S
C2921 C2920 1.376 . S
C2921 C2922 1.388 . S
C2922 H2909 0.930 . S
C2922 C2921 1.388 . S
C2922 C2923 1.390 . S
C2923 C2922 1.390 . S
C2923 C2924 1.394 . S
C2923 C2929 1.465 . S
C2924 C2919 1.399 . S
C2924 C2923 1.394 . S
C2924 C2925 1.516 . S
C2925 C2924 1.516 . S
C2925 C2926 1.502 . S
C2925 C2927 1.561 . S
C2925 C2928 1.526 . S
C2926 H2910 0.959 . S
C2926 H2911 0.959 . S
C2926 H2912 0.961 . S
C2926 C2925 1.502 . S
C2927 H2913 0.960 . S
C2927 H2914 0.961 . S
C2927 H2915 0.959 . S
C2927 C2925 1.561 . S
C2928 C2925 1.526 . S
C2928 C2929 1.396 . S
C2928 C2933 1.390 . S
C2929 C2923 1.465 . S
C2929 C2928 1.396 . S
C2929 C2930 1.399 . S
C2930 H2916 0.929 . S
C2930 C2929 1.399 . S
C2930 C2931 1.385 . S
C2931 H2917 0.931 . S
C2931 C2930 1.385 . S
C2931 C2932 1.389 . S
C2932 C2931 1.389 . S
C2932 C2933 1.387 . S
C2933 H2918 0.930 . S
C2933 C2928 1.390 . S
C2933 C2932 1.387 . S
H2934 C2946 0.930 . S
H2935 C2948 0.930 . S
H2936 C2949 0.930 . S
H2937 C2953 0.959 . S
H2938 C2953 0.959 . S
H2939 C2953 0.961 . S
H2940 C2954 0.960 . S
H2941 C2954 0.961 . S
H2942 C2954 0.959 . S
H2943 C2957 0.929 . S
H2944 C2958 0.931 . S
H2945 C2960 0.930 . S
C2946 H2934 0.930 . S
C2946 C2947 1.399 . S
C2946 C2951 1.399 . S
C2947 C2946 1.399 . S
C2947 C2948 1.376 . S
C2948 H2935 0.930 . S
C2948 C2947 1.376 . S
C2948 C2949 1.388 . S
C2949 H2936 0.930 . S
C2949 C2948 1.388 . S
C2949 C2950 1.390 . S
C2950 C2949 1.390 . S
C2950 C2951 1.394 . S
C2950 C2956 1.465 . S
C2951 C2946 1.399 . S
C2951 C2950 1.394 . S
C2951 C2952 1.516 . S
C2952 C2951 1.516 . S
C2952 C2953 1.502 . S
C2952 C2954 1.561 . S
C2952 C2955 1.526 . S
C2953 H2937 0.959 . S
C2953 H2938 0.959 . S
C2953 H2939 0.961 . S
C2953 C2952 1.502 . S
C2954 H2940 0.960 . S
C2954 H2941 0.961 . S
C2954 H2942 0.959 . S
C2954 C2952 1.561 . S
C2955 C2952 1.526 . S
C2955 C2956 1.396 . S
C2955 C2960 1.390 . S
C2956 C2950 1.465 . S
C2956 C2955 1.396 . S
C2956 C2957 1.399 . S
C2957 H2943 0.929 . S
C2957 C2956 1.399 . S
C2957 C2958 1.385 . S
C2958 H2944 0.931 . S
C2958 C2957 1.385 . S
C2958 C2959 1.389 . S
C2959 C2958 1.389 . S
C2959 C2960 1.387 . S
C2960 H2945 0.930 . S
C2960 C2955 1.390 . S
C2960 C2959 1.387 . S
H2961 C2973 0.930 . S
H2962 C2975 0.930 . S
H2963 C2976 0.930 . S
H2964 C2980 0.959 . S
H2965 C2980 0.959 . S
H2966 C2980 0.961 . S
H2967 C2981 0.960 . S
H2968 C2981 0.961 . S
H2969 C2981 0.959 . S
H2970 C2984 0.929 . S
H2971 C2985 0.931 . S
H2972 C2987 0.930 . S
C2973 H2961 0.930 . S
C2973 C2974 1.399 . S
C2973 C2978 1.399 . S
C2974 C2973 1.399 . S
C2974 C2975 1.376 . S
C2975 H2962 0.930 . S
C2975 C2974 1.376 . S
C2975 C2976 1.388 . S
C2976 H2963 0.930 . S
C2976 C2975 1.388 . S
C2976 C2977 1.390 . S
C2977 C2976 1.390 . S
C2977 C2978 1.394 . S
C2977 C2983 1.465 . S
C2978 C2973 1.399 . S
C2978 C2977 1.394 . S
C2978 C2979 1.516 . S
C2979 C2978 1.516 . S
C2979 C2980 1.502 . S
C2979 C2981 1.561 . S
C2979 C2982 1.526 . S
C2980 H2964 0.959 . S
C2980 H2965 0.959 . S
C2980 H2966 0.961 . S
C2980 C2979 1.502 . S
C2981 H2967 0.960 . S
C2981 H2968 0.961 . S
C2981 H2969 0.959 . S
C2981 C2979 1.561 . S
C2982 C2979 1.526 . S
C2982 C2983 1.396 . S
C2982 C2987 1.390 . S
C2983 C2977 1.465 . S
C2983 C2982 1.396 . S
C2983 C2984 1.399 . S
C2984 H2970 0.929 . S
C2984 C2983 1.399 . S
C2984 C2985 1.385 . S
C2985 H2971 0.931 . S
C2985 C2984 1.385 . S
C2985 C2986 1.389 . S
C2986 C2985 1.389 . S
C2986 C2987 1.387 . S
C2987 H2972 0.930 . S
C2987 C2982 1.390 . S
C2987 C2986 1.387 . S
H2988 C3000 0.930 . S
H2989 C3002 0.930 . S
H2990 C3003 0.930 . S
H2991 C3007 0.959 . S
H2992 C3007 0.959 . S
H2993 C3007 0.961 . S
H2994 C3008 0.960 . S
H2995 C3008 0.961 . S
H2996 C3008 0.959 . S
H2997 C3011 0.929 . S
H2998 C3012 0.931 . S
H2999 C3014 0.930 . S
C3000 H2988 0.930 . S
C3000 C3001 1.399 . S
C3000 C3005 1.399 . S
C3001 C3000 1.399 . S
C3001 C3002 1.376 . S
C3002 H2989 0.930 . S
C3002 C3001 1.376 . S
C3002 C3003 1.388 . S
C3003 H2990 0.930 . S
C3003 C3002 1.388 . S
C3003 C3004 1.390 . S
C3004 C3003 1.390 . S
C3004 C3005 1.394 . S
C3004 C3010 1.465 . S
C3005 C3000 1.399 . S
C3005 C3004 1.394 . S
C3005 C3006 1.516 . S
C3006 C3005 1.516 . S
C3006 C3007 1.502 . S
C3006 C3008 1.561 . S
C3006 C3009 1.526 . S
C3007 H2991 0.959 . S
C3007 H2992 0.959 . S
C3007 H2993 0.961 . S
C3007 C3006 1.502 . S
C3008 H2994 0.960 . S
C3008 H2995 0.961 . S
C3008 H2996 0.959 . S
C3008 C3006 1.561 . S
C3009 C3006 1.526 . S
C3009 C3010 1.396 . S
C3009 C3014 1.390 . S
C3010 C3004 1.465 . S
C3010 C3009 1.396 . S
C3010 C3011 1.399 . S
C3011 H2997 0.929 . S
C3011 C3010 1.399 . S
C3011 C3012 1.385 . S
C3012 H2998 0.931 . S
C3012 C3011 1.385 . S
C3012 C3013 1.389 . S
C3013 C3012 1.389 . S
C3013 C3014 1.387 . S
C3014 H2999 0.930 . S
C3014 C3009 1.390 . S
C3014 C3013 1.387 . S
H3015 C3027 0.930 . S
H3016 C3029 0.930 . S
H3017 C3030 0.930 . S
H3018 C3034 0.959 . S
H3019 C3034 0.959 . S
H3020 C3034 0.961 . S
H3021 C3035 0.960 . S
H3022 C3035 0.961 . S
H3023 C3035 0.959 . S
H3024 C3038 0.929 . S
H3025 C3039 0.931 . S
H3026 C3041 0.930 . S
C3027 H3015 0.930 . S
C3027 C3028 1.399 . S
C3027 C3032 1.399 . S
C3028 C3027 1.399 . S
C3028 C3029 1.376 . S
C3029 H3016 0.930 . S
C3029 C3028 1.376 . S
C3029 C3030 1.388 . S
C3030 H3017 0.930 . S
C3030 C3029 1.388 . S
C3030 C3031 1.390 . S
C3031 C3030 1.390 . S
C3031 C3032 1.394 . S
C3031 C3037 1.465 . S
C3032 C3027 1.399 . S
C3032 C3031 1.394 . S
C3032 C3033 1.516 . S
C3033 C3032 1.516 . S
C3033 C3034 1.502 . S
C3033 C3035 1.561 . S
C3033 C3036 1.526 . S
C3034 H3018 0.959 . S
C3034 H3019 0.959 . S
C3034 H3020 0.961 . S
C3034 C3033 1.502 . S
C3035 H3021 0.960 . S
C3035 H3022 0.961 . S
C3035 H3023 0.959 . S
C3035 C3033 1.561 . S
C3036 C3033 1.526 . S
C3036 C3037 1.396 . S
C3036 C3041 1.390 . S
C3037 C3031 1.465 . S
C3037 C3036 1.396 . S
C3037 C3038 1.399 . S
C3038 H3024 0.929 . S
C3038 C3037 1.399 . S
C3038 C3039 1.385 . S
C3039 H3025 0.931 . S
C3039 C3038 1.385 . S
C3039 C3040 1.389 . S
C3040 C3039 1.389 . S
C3040 C3041 1.387 . S
C3041 H3026 0.930 . S
C3041 C3036 1.390 . S
C3041 C3040 1.387 . S
H3042 C3054 0.930 . S
H3043 C3056 0.930 . S
H3044 C3057 0.930 . S
H3045 C3061 0.959 . S
H3046 C3061 0.959 . S
H3047 C3061 0.961 . S
H3048 C3062 0.960 . S
H3049 C3062 0.961 . S
H3050 C3062 0.959 . S
H3051 C3065 0.929 . S
H3052 C3066 0.931 . S
H3053 C3068 0.930 . S
C3054 H3042 0.930 . S
C3054 C3055 1.399 . S
C3054 C3059 1.399 . S
C3055 C3054 1.399 . S
C3055 C3056 1.376 . S
C3056 H3043 0.930 . S
C3056 C3055 1.376 . S
C3056 C3057 1.388 . S
C3057 H3044 0.930 . S
C3057 C3056 1.388 . S
C3057 C3058 1.390 . S
C3058 C3057 1.390 . S
C3058 C3059 1.394 . S
C3058 C3064 1.465 . S
C3059 C3054 1.399 . S
C3059 C3058 1.394 . S
C3059 C3060 1.516 . S
C3060 C3059 1.516 . S
C3060 C3061 1.502 . S
C3060 C3062 1.561 . S
C3060 C3063 1.526 . S
C3061 H3045 0.959 . S
C3061 H3046 0.959 . S
C3061 H3047 0.961 . S
C3061 C3060 1.502 . S
C3062 H3048 0.960 . S
C3062 H3049 0.961 . S
C3062 H3050 0.959 . S
C3062 C3060 1.561 . S
C3063 C3060 1.526 . S
C3063 C3064 1.396 . S
C3063 C3068 1.390 . S
C3064 C3058 1.465 . S
C3064 C3063 1.396 . S
C3064 C3065 1.399 . S
C3065 H3051 0.929 . S
C3065 C3064 1.399 . S
C3065 C3066 1.385 . S
C3066 H3052 0.931 . S
C3066 C3065 1.385 . S
C3066 C3067 1.389 . S
C3067 C3066 1.389 . S
C3067 C3068 1.387 . S
C3068 H3053 0.930 . S
C3068 C3063 1.390 . S
C3068 C3067 1.387 . S
H3069 C3081 0.930 . S
H3070 C3083 0.930 . S
H3071 C3084 0.930 . S
H3072 C3088 0.959 . S
H3073 C3088 0.959 . S
H3074 C3088 0.961 . S
H3075 C3089 0.960 . S
H3076 C3089 0.961 . S
H3077 C3089 0.959 . S
H3078 C3092 0.929 . S
H3079 C3093 0.931 . S
H3080 C3095 0.930 . S
C3081 H3069 0.930 . S
C3081 C3082 1.399 . S
C3081 C3086 1.399 . S
C3082 C3081 1.399 . S
C3082 C3083 1.376 . S
C3083 H3070 0.930 . S
C3083 C3082 1.376 . S
C3083 C3084 1.388 . S
C3084 H3071 0.930 . S
C3084 C3083 1.388 . S
C3084 C3085 1.390 . S
C3085 C3084 1.390 . S
C3085 C3086 1.394 . S
C3085 C3091 1.465 . S
C3086 C3081 1.399 . S
C3086 C3085 1.394 . S
C3086 C3087 1.516 . S
C3087 C3086 1.516 . S
C3087 C3088 1.502 . S
C3087 C3089 1.561 . S
C3087 C3090 1.526 . S
C3088 H3072 0.959 . S
C3088 H3073 0.959 . S
C3088 H3074 0.961 . S
C3088 C3087 1.502 . S
C3089 H3075 0.960 . S
C3089 H3076 0.961 . S
C3089 H3077 0.959 . S
C3089 C3087 1.561 . S
C3090 C3087 1.526 . S
C3090 C3091 1.396 . S
C3090 C3095 1.390 . S
C3091 C3085 1.465 . S
C3091 C3090 1.396 . S
C3091 C3092 1.399 . S
C3092 H3078 0.929 . S
C3092 C3091 1.399 . S
C3092 C3093 1.385 . S
C3093 H3079 0.931 . S
C3093 C3092 1.385 . S
C3093 C3094 1.389 . S
C3094 C3093 1.389 . S
C3094 C3095 1.387 . S
C3095 H3080 0.930 . S
C3095 C3090 1.390 . S
C3095 C3094 1.387 . S
H3096 C3108 0.930 . S
H3097 C3110 0.930 . S
H3098 C3111 0.930 . S
H3099 C3115 0.959 . S
H3100 C3115 0.959 . S
H3101 C3115 0.961 . S
H3102 C3116 0.960 . S
H3103 C3116 0.961 . S
H3104 C3116 0.959 . S
H3105 C3119 0.929 . S
H3106 C3120 0.931 . S
H3107 C3122 0.930 . S
C3108 H3096 0.930 . S
C3108 C3109 1.399 . S
C3108 C3113 1.399 . S
C3109 C3108 1.399 . S
C3109 C3110 1.376 . S
C3110 H3097 0.930 . S
C3110 C3109 1.376 . S
C3110 C3111 1.388 . S
C3111 H3098 0.930 . S
C3111 C3110 1.388 . S
C3111 C3112 1.390 . S
C3112 C3111 1.390 . S
C3112 C3113 1.394 . S
C3112 C3118 1.465 . S
C3113 C3108 1.399 . S
C3113 C3112 1.394 . S
C3113 C3114 1.516 . S
C3114 C3113 1.516 . S
C3114 C3115 1.502 . S
C3114 C3116 1.561 . S
C3114 C3117 1.526 . S
C3115 H3099 0.959 . S
C3115 H3100 0.959 . S
C3115 H3101 0.961 . S
C3115 C3114 1.502 . S
C3116 H3102 0.960 . S
C3116 H3103 0.961 . S
C3116 H3104 0.959 . S
C3116 C3114 1.561 . S
C3117 C3114 1.526 . S
C3117 C3118 1.396 . S
C3117 C3122 1.390 . S
C3118 C3112 1.465 . S
C3118 C3117 1.396 . S
C3118 C3119 1.399 . S
C3119 H3105 0.929 . S
C3119 C3118 1.399 . S
C3119 C3120 1.385 . S
C3120 H3106 0.931 . S
C3120 C3119 1.385 . S
C3120 C3121 1.389 . S
C3121 C3120 1.389 . S
C3121 C3122 1.387 . S
C3122 H3107 0.930 . S
C3122 C3117 1.390 . S
C3122 C3121 1.387 . S
H3123 C3135 0.930 . S
H3124 C3137 0.930 . S
H3125 C3138 0.930 . S
H3126 C3142 0.959 . S
H3127 C3142 0.959 . S
H3128 C3142 0.961 . S
H3129 C3143 0.960 . S
H3130 C3143 0.961 . S
H3131 C3143 0.959 . S
H3132 C3146 0.929 . S
H3133 C3147 0.931 . S
H3134 C3149 0.930 . S
C3135 H3123 0.930 . S
C3135 C3136 1.399 . S
C3135 C3140 1.399 . S
C3136 C3135 1.399 . S
C3136 C3137 1.376 . S
C3137 H3124 0.930 . S
C3137 C3136 1.376 . S
C3137 C3138 1.388 . S
C3138 H3125 0.930 . S
C3138 C3137 1.388 . S
C3138 C3139 1.390 . S
C3139 C3138 1.390 . S
C3139 C3140 1.394 . S
C3139 C3145 1.465 . S
C3140 C3135 1.399 . S
C3140 C3139 1.394 . S
C3140 C3141 1.516 . S
C3141 C3140 1.516 . S
C3141 C3142 1.502 . S
C3141 C3143 1.561 . S
C3141 C3144 1.526 . S
C3142 H3126 0.959 . S
C3142 H3127 0.959 . S
C3142 H3128 0.961 . S
C3142 C3141 1.502 . S
C3143 H3129 0.960 . S
C3143 H3130 0.961 . S
C3143 H3131 0.959 . S
C3143 C3141 1.561 . S
C3144 C3141 1.526 . S
C3144 C3145 1.396 . S
C3144 C3149 1.390 . S
C3145 C3139 1.465 . S
C3145 C3144 1.396 . S
C3145 C3146 1.399 . S
C3146 H3132 0.929 . S
C3146 C3145 1.399 . S
C3146 C3147 1.385 . S
C3147 H3133 0.931 . S
C3147 C3146 1.385 . S
C3147 C3148 1.389 . S
C3148 C3147 1.389 . S
C3148 C3149 1.387 . S
C3149 H3134 0.930 . S
C3149 C3144 1.390 . S
C3149 C3148 1.387 . S
H3150 C3162 0.930 . S
H3151 C3164 0.930 . S
H3152 C3165 0.930 . S
H3153 C3169 0.959 . S
H3154 C3169 0.959 . S
H3155 C3169 0.961 . S
H3156 C3170 0.960 . S
H3157 C3170 0.961 . S
H3158 C3170 0.959 . S
H3159 C3173 0.929 . S
H3160 C3174 0.931 . S
H3161 C3176 0.930 . S
C3162 H3150 0.930 . S
C3162 C3163 1.399 . S
C3162 C3167 1.399 . S
C3163 C3162 1.399 . S
C3163 C3164 1.376 . S
C3164 H3151 0.930 . S
C3164 C3163 1.376 . S
C3164 C3165 1.388 . S
C3165 H3152 0.930 . S
C3165 C3164 1.388 . S
C3165 C3166 1.390 . S
C3166 C3165 1.390 . S
C3166 C3167 1.394 . S
C3166 C3172 1.465 . S
C3167 C3162 1.399 . S
C3167 C3166 1.394 . S
C3167 C3168 1.516 . S
C3168 C3167 1.516 . S
C3168 C3169 1.502 . S
C3168 C3170 1.561 . S
C3168 C3171 1.526 . S
C3169 H3153 0.959 . S
C3169 H3154 0.959 . S
C3169 H3155 0.961 . S
C3169 C3168 1.502 . S
C3170 H3156 0.960 . S
C3170 H3157 0.961 . S
C3170 H3158 0.959 . S
C3170 C3168 1.561 . S
C3171 C3168 1.526 . S
C3171 C3172 1.396 . S
C3171 C3176 1.390 . S
C3172 C3166 1.465 . S
C3172 C3171 1.396 . S
C3172 C3173 1.399 . S
C3173 H3159 0.929 . S
C3173 C3172 1.399 . S
C3173 C3174 1.385 . S
C3174 H3160 0.931 . S
C3174 C3173 1.385 . S
C3174 C3175 1.389 . S
C3175 C3174 1.389 . S
C3175 C3176 1.387 . S
C3176 H3161 0.930 . S
C3176 C3171 1.390 . S
C3176 C3175 1.387 . S
H3177 C3189 0.930 . S
H3178 C3191 0.930 . S
H3179 C3192 0.930 . S
H3180 C3196 0.959 . S
H3181 C3196 0.959 . S
H3182 C3196 0.961 . S
H3183 C3197 0.960 . S
H3184 C3197 0.961 . S
H3185 C3197 0.959 . S
H3186 C3200 0.929 . S
H3187 C3201 0.931 . S
H3188 C3203 0.930 . S
C3189 H3177 0.930 . S
C3189 C3190 1.399 . S
C3189 C3194 1.399 . S
C3190 C3189 1.399 . S
C3190 C3191 1.376 . S
C3191 H3178 0.930 . S
C3191 C3190 1.376 . S
C3191 C3192 1.388 . S
C3192 H3179 0.930 . S
C3192 C3191 1.388 . S
C3192 C3193 1.390 . S
C3193 C3192 1.390 . S
C3193 C3194 1.394 . S
C3193 C3199 1.465 . S
C3194 C3189 1.399 . S
C3194 C3193 1.394 . S
C3194 C3195 1.516 . S
C3195 C3194 1.516 . S
C3195 C3196 1.502 . S
C3195 C3197 1.561 . S
C3195 C3198 1.526 . S
C3196 H3180 0.959 . S
C3196 H3181 0.959 . S
C3196 H3182 0.961 . S
C3196 C3195 1.502 . S
C3197 H3183 0.960 . S
C3197 H3184 0.961 . S
C3197 H3185 0.959 . S
C3197 C3195 1.561 . S
C3198 C3195 1.526 . S
C3198 C3199 1.396 . S
C3198 C3203 1.390 . S
C3199 C3193 1.465 . S
C3199 C3198 1.396 . S
C3199 C3200 1.399 . S
C3200 H3186 0.929 . S
C3200 C3199 1.399 . S
C3200 C3201 1.385 . S
C3201 H3187 0.931 . S
C3201 C3200 1.385 . S
C3201 C3202 1.389 . S
C3202 C3201 1.389 . S
C3202 C3203 1.387 . S
C3203 H3188 0.930 . S
C3203 C3198 1.390 . S
C3203 C3202 1.387 . S
H3204 C3216 0.930 . S
H3205 C3218 0.930 . S
H3206 C3219 0.930 . S
H3207 C3223 0.959 . S
H3208 C3223 0.959 . S
H3209 C3223 0.961 . S
H3210 C3224 0.960 . S
H3211 C3224 0.961 . S
H3212 C3224 0.959 . S
H3213 C3227 0.929 . S
H3214 C3228 0.931 . S
H3215 C3230 0.930 . S
C3216 H3204 0.930 . S
C3216 C3217 1.399 . S
C3216 C3221 1.399 . S
C3217 C3216 1.399 . S
C3217 C3218 1.376 . S
C3218 H3205 0.930 . S
C3218 C3217 1.376 . S
C3218 C3219 1.388 . S
C3219 H3206 0.930 . S
C3219 C3218 1.388 . S
C3219 C3220 1.390 . S
C3220 C3219 1.390 . S
C3220 C3221 1.394 . S
C3220 C3226 1.465 . S
C3221 C3216 1.399 . S
C3221 C3220 1.394 . S
C3221 C3222 1.516 . S
C3222 C3221 1.516 . S
C3222 C3223 1.502 . S
C3222 C3224 1.561 . S
C3222 C3225 1.526 . S
C3223 H3207 0.959 . S
C3223 H3208 0.959 . S
C3223 H3209 0.961 . S
C3223 C3222 1.502 . S
C3224 H3210 0.960 . S
C3224 H3211 0.961 . S
C3224 H3212 0.959 . S
C3224 C3222 1.561 . S
C3225 C3222 1.526 . S
C3225 C3226 1.396 . S
C3225 C3230 1.390 . S
C3226 C3220 1.465 . S
C3226 C3225 1.396 . S
C3226 C3227 1.399 . S
C3227 H3213 0.929 . S
C3227 C3226 1.399 . S
C3227 C3228 1.385 . S
C3228 H3214 0.931 . S
C3228 C3227 1.385 . S
C3228 C3229 1.389 . S
C3229 C3228 1.389 . S
C3229 C3230 1.387 . S
C3230 H3215 0.930 . S
C3230 C3225 1.390 . S
C3230 C3229 1.387 . S
H3231 C3243 0.930 . S
H3232 C3245 0.930 . S
H3233 C3246 0.930 . S
H3234 C3250 0.959 . S
H3235 C3250 0.959 . S
H3236 C3250 0.961 . S
H3237 C3251 0.960 . S
H3238 C3251 0.961 . S
H3239 C3251 0.959 . S
H3240 C3254 0.929 . S
H3241 C3255 0.931 . S
H3242 C3257 0.930 . S
C3243 H3231 0.930 . S
C3243 C3244 1.399 . S
C3243 C3248 1.399 . S
C3244 C3243 1.399 . S
C3244 C3245 1.376 . S
C3245 H3232 0.930 . S
C3245 C3244 1.376 . S
C3245 C3246 1.388 . S
C3246 H3233 0.930 . S
C3246 C3245 1.388 . S
C3246 C3247 1.390 . S
C3247 C3246 1.390 . S
C3247 C3248 1.394 . S
C3247 C3253 1.465 . S
C3248 C3243 1.399 . S
C3248 C3247 1.394 . S
C3248 C3249 1.516 . S
C3249 C3248 1.516 . S
C3249 C3250 1.502 . S
C3249 C3251 1.561 . S
C3249 C3252 1.526 . S
C3250 H3234 0.959 . S
C3250 H3235 0.959 . S
C3250 H3236 0.961 . S
C3250 C3249 1.502 . S
C3251 H3237 0.960 . S
C3251 H3238 0.961 . S
C3251 H3239 0.959 . S
C3251 C3249 1.561 . S
C3252 C3249 1.526 . S
C3252 C3253 1.396 . S
C3252 C3257 1.390 . S
C3253 C3247 1.465 . S
C3253 C3252 1.396 . S
C3253 C3254 1.399 . S
C3254 H3240 0.929 . S
C3254 C3253 1.399 . S
C3254 C3255 1.385 . S
C3255 H3241 0.931 . S
C3255 C3254 1.385 . S
C3255 C3256 1.389 . S
C3256 C3255 1.389 . S
C3256 C3257 1.387 . S
C3257 H3242 0.930 . S
C3257 C3252 1.390 . S
C3257 C3256 1.387 . S
H3258 C3270 0.930 . S
H3259 C3272 0.930 . S
H3260 C3273 0.930 . S
H3261 C3277 0.959 . S
H3262 C3277 0.959 . S
H3263 C3277 0.961 . S
H3264 C3278 0.960 . S
H3265 C3278 0.961 . S
H3266 C3278 0.959 . S
H3267 C3281 0.929 . S
H3268 C3282 0.931 . S
H3269 C3284 0.930 . S
C3270 H3258 0.930 . S
C3270 C3271 1.399 . S
C3270 C3275 1.399 . S
C3271 C3270 1.399 . S
C3271 C3272 1.376 . S
C3272 H3259 0.930 . S
C3272 C3271 1.376 . S
C3272 C3273 1.388 . S
C3273 H3260 0.930 . S
C3273 C3272 1.388 . S
C3273 C3274 1.390 . S
C3274 C3273 1.390 . S
C3274 C3275 1.394 . S
C3274 C3280 1.465 . S
C3275 C3270 1.399 . S
C3275 C3274 1.394 . S
C3275 C3276 1.516 . S
C3276 C3275 1.516 . S
C3276 C3277 1.502 . S
C3276 C3278 1.561 . S
C3276 C3279 1.526 . S
C3277 H3261 0.959 . S
C3277 H3262 0.959 . S
C3277 H3263 0.961 . S
C3277 C3276 1.502 . S
C3278 H3264 0.960 . S
C3278 H3265 0.961 . S
C3278 H3266 0.959 . S
C3278 C3276 1.561 . S
C3279 C3276 1.526 . S
C3279 C3280 1.396 . S
C3279 C3284 1.390 . S
C3280 C3274 1.465 . S
C3280 C3279 1.396 . S
C3280 C3281 1.399 . S
C3281 H3267 0.929 . S
C3281 C3280 1.399 . S
C3281 C3282 1.385 . S
C3282 H3268 0.931 . S
C3282 C3281 1.385 . S
C3282 C3283 1.389 . S
C3283 C3282 1.389 . S
C3283 C3284 1.387 . S
C3284 H3269 0.930 . S
C3284 C3279 1.390 . S
C3284 C3283 1.387 . S
H3285 C3297 0.930 . S
H3286 C3299 0.930 . S
H3287 C3300 0.930 . S
H3288 C3304 0.959 . S
H3289 C3304 0.959 . S
H3290 C3304 0.961 . S
H3291 C3305 0.960 . S
H3292 C3305 0.961 . S
H3293 C3305 0.959 . S
H3294 C3308 0.929 . S
H3295 C3309 0.931 . S
H3296 C3311 0.930 . S
C3297 H3285 0.930 . S
C3297 C3298 1.399 . S
C3297 C3302 1.399 . S
C3298 C3297 1.399 . S
C3298 C3299 1.376 . S
C3299 H3286 0.930 . S
C3299 C3298 1.376 . S
C3299 C3300 1.388 . S
C3300 H3287 0.930 . S
C3300 C3299 1.388 . S
C3300 C3301 1.390 . S
C3301 C3300 1.390 . S
C3301 C3302 1.394 . S
C3301 C3307 1.465 . S
C3302 C3297 1.399 . S
C3302 C3301 1.394 . S
C3302 C3303 1.516 . S
C3303 C3302 1.516 . S
C3303 C3304 1.502 . S
C3303 C3305 1.561 . S
C3303 C3306 1.526 . S
C3304 H3288 0.959 . S
C3304 H3289 0.959 . S
C3304 H3290 0.961 . S
C3304 C3303 1.502 . S
C3305 H3291 0.960 . S
C3305 H3292 0.961 . S
C3305 H3293 0.959 . S
C3305 C3303 1.561 . S
C3306 C3303 1.526 . S
C3306 C3307 1.396 . S
C3306 C3311 1.390 . S
C3307 C3301 1.465 . S
C3307 C3306 1.396 . S
C3307 C3308 1.399 . S
C3308 H3294 0.929 . S
C3308 C3307 1.399 . S
C3308 C3309 1.385 . S
C3309 H3295 0.931 . S
C3309 C3308 1.385 . S
C3309 C3310 1.389 . S
C3310 C3309 1.389 . S
C3310 C3311 1.387 . S
C3311 H3296 0.930 . S
C3311 C3306 1.390 . S
C3311 C3310 1.387 . S
H3312 C3324 0.930 . S
H3313 C3326 0.930 . S
H3314 C3327 0.930 . S
H3315 C3331 0.959 . S
H3316 C3331 0.959 . S
H3317 C3331 0.961 . S
H3318 C3332 0.960 . S
H3319 C3332 0.961 . S
H3320 C3332 0.959 . S
H3321 C3335 0.929 . S
H3322 C3336 0.931 . S
H3323 C3338 0.930 . S
C3324 H3312 0.930 . S
C3324 C3325 1.399 . S
C3324 C3329 1.399 . S
C3325 C3324 1.399 . S
C3325 C3326 1.376 . S
C3326 H3313 0.930 . S
C3326 C3325 1.376 . S
C3326 C3327 1.388 . S
C3327 H3314 0.930 . S
C3327 C3326 1.388 . S
C3327 C3328 1.390 . S
C3328 C3327 1.390 . S
C3328 C3329 1.394 . S
C3328 C3334 1.465 . S
C3329 C3324 1.399 . S
C3329 C3328 1.394 . S
C3329 C3330 1.516 . S
C3330 C3329 1.516 . S
C3330 C3331 1.502 . S
C3330 C3332 1.561 . S
C3330 C3333 1.526 . S
C3331 H3315 0.959 . S
C3331 H3316 0.959 . S
C3331 H3317 0.961 . S
C3331 C3330 1.502 . S
C3332 H3318 0.960 . S
C3332 H3319 0.961 . S
C3332 H3320 0.959 . S
C3332 C3330 1.561 . S
C3333 C3330 1.526 . S
C3333 C3334 1.396 . S
C3333 C3338 1.390 . S
C3334 C3328 1.465 . S
C3334 C3333 1.396 . S
C3334 C3335 1.399 . S
C3335 H3321 0.929 . S
C3335 C3334 1.399 . S
C3335 C3336 1.385 . S
C3336 H3322 0.931 . S
C3336 C3335 1.385 . S
C3336 C3337 1.389 . S
C3337 C3336 1.389 . S
C3337 C3338 1.387 . S
C3338 H3323 0.930 . S
C3338 C3333 1.390 . S
C3338 C3337 1.387 . S
H3339 C3351 0.930 . S
H3340 C3353 0.930 . S
H3341 C3354 0.930 . S
H3342 C3358 0.959 . S
H3343 C3358 0.959 . S
H3344 C3358 0.961 . S
H3345 C3359 0.960 . S
H3346 C3359 0.961 . S
H3347 C3359 0.959 . S
H3348 C3362 0.929 . S
H3349 C3363 0.931 . S
H3350 C3365 0.930 . S
C3351 H3339 0.930 . S
C3351 C3352 1.399 . S
C3351 C3356 1.399 . S
C3352 C3351 1.399 . S
C3352 C3353 1.376 . S
C3353 H3340 0.930 . S
C3353 C3352 1.376 . S
C3353 C3354 1.388 . S
C3354 H3341 0.930 . S
C3354 C3353 1.388 . S
C3354 C3355 1.390 . S
C3355 C3354 1.390 . S
C3355 C3356 1.394 . S
C3355 C3361 1.465 . S
C3356 C3351 1.399 . S
C3356 C3355 1.394 . S
C3356 C3357 1.516 . S
C3357 C3356 1.516 . S
C3357 C3358 1.502 . S
C3357 C3359 1.561 . S
C3357 C3360 1.526 . S
C3358 H3342 0.959 . S
C3358 H3343 0.959 . S
C3358 H3344 0.961 . S
C3358 C3357 1.502 . S
C3359 H3345 0.960 . S
C3359 H3346 0.961 . S
C3359 H3347 0.959 . S
C3359 C3357 1.561 . S
C3360 C3357 1.526 . S
C3360 C3361 1.396 . S
C3360 C3365 1.390 . S
C3361 C3355 1.465 . S
C3361 C3360 1.396 . S
C3361 C3362 1.399 . S
C3362 H3348 0.929 . S
C3362 C3361 1.399 . S
C3362 C3363 1.385 . S
C3363 H3349 0.931 . S
C3363 C3362 1.385 . S
C3363 C3364 1.389 . S
C3364 C3363 1.389 . S
C3364 C3365 1.387 . S
C3365 H3350 0.930 . S
C3365 C3360 1.390 . S
C3365 C3364 1.387 . S
H3366 C3378 0.930 . S
H3367 C3380 0.930 . S
H3368 C3381 0.930 . S
H3369 C3385 0.959 . S
H3370 C3385 0.959 . S
H3371 C3385 0.961 . S
H3372 C3386 0.960 . S
H3373 C3386 0.961 . S
H3374 C3386 0.959 . S
H3375 C3389 0.929 . S
H3376 C3390 0.931 . S
H3377 C3392 0.930 . S
C3378 H3366 0.930 . S
C3378 C3379 1.399 . S
C3378 C3383 1.399 . S
C3379 C3378 1.399 . S
C3379 C3380 1.376 . S
C3380 H3367 0.930 . S
C3380 C3379 1.376 . S
C3380 C3381 1.388 . S
C3381 H3368 0.930 . S
C3381 C3380 1.388 . S
C3381 C3382 1.390 . S
C3382 C3381 1.390 . S
C3382 C3383 1.394 . S
C3382 C3388 1.465 . S
C3383 C3378 1.399 . S
C3383 C3382 1.394 . S
C3383 C3384 1.516 . S
C3384 C3383 1.516 . S
C3384 C3385 1.502 . S
C3384 C3386 1.561 . S
C3384 C3387 1.526 . S
C3385 H3369 0.959 . S
C3385 H3370 0.959 . S
C3385 H3371 0.961 . S
C3385 C3384 1.502 . S
C3386 H3372 0.960 . S
C3386 H3373 0.961 . S
C3386 H3374 0.959 . S
C3386 C3384 1.561 . S
C3387 C3384 1.526 . S
C3387 C3388 1.396 . S
C3387 C3392 1.390 . S
C3388 C3382 1.465 . S
C3388 C3387 1.396 . S
C3388 C3389 1.399 . S
C3389 H3375 0.929 . S
C3389 C3388 1.399 . S
C3389 C3390 1.385 . S
C3390 H3376 0.931 . S
C3390 C3389 1.385 . S
C3390 C3391 1.389 . S
C3391 C3390 1.389 . S
C3391 C3392 1.387 . S
C3392 H3377 0.930 . S
C3392 C3387 1.390 . S
C3392 C3391 1.387 . S
H3393 C3405 0.930 . S
H3394 C3407 0.930 . S
H3395 C3408 0.930 . S
H3396 C3412 0.959 . S
H3397 C3412 0.959 . S
H3398 C3412 0.961 . S
H3399 C3413 0.960 . S
H3400 C3413 0.961 . S
H3401 C3413 0.959 . S
H3402 C3416 0.929 . S
H3403 C3417 0.931 . S
H3404 C3419 0.930 . S
C3405 H3393 0.930 . S
C3405 C3406 1.399 . S
C3405 C3410 1.399 . S
C3406 C3405 1.399 . S
C3406 C3407 1.376 . S
C3407 H3394 0.930 . S
C3407 C3406 1.376 . S
C3407 C3408 1.388 . S
C3408 H3395 0.930 . S
C3408 C3407 1.388 . S
C3408 C3409 1.390 . S
C3409 C3408 1.390 . S
C3409 C3410 1.394 . S
C3409 C3415 1.465 . S
C3410 C3405 1.399 . S
C3410 C3409 1.394 . S
C3410 C3411 1.516 . S
C3411 C3410 1.516 . S
C3411 C3412 1.502 . S
C3411 C3413 1.561 . S
C3411 C3414 1.526 . S
C3412 H3396 0.959 . S
C3412 H3397 0.959 . S
C3412 H3398 0.961 . S
C3412 C3411 1.502 . S
C3413 H3399 0.960 . S
C3413 H3400 0.961 . S
C3413 H3401 0.959 . S
C3413 C3411 1.561 . S
C3414 C3411 1.526 . S
C3414 C3415 1.396 . S
C3414 C3419 1.390 . S
C3415 C3409 1.465 . S
C3415 C3414 1.396 . S
C3415 C3416 1.399 . S
C3416 H3402 0.929 . S
C3416 C3415 1.399 . S
C3416 C3417 1.385 . S
C3417 H3403 0.931 . S
C3417 C3416 1.385 . S
C3417 C3418 1.389 . S
C3418 C3417 1.389 . S
C3418 C3419 1.387 . S
C3419 H3404 0.930 . S
C3419 C3414 1.390 . S
C3419 C3418 1.387 . S
H3420 C3432 0.930 . S
H3421 C3434 0.930 . S
H3422 C3435 0.930 . S
H3423 C3439 0.959 . S
H3424 C3439 0.959 . S
H3425 C3439 0.961 . S
H3426 C3440 0.960 . S
H3427 C3440 0.961 . S
H3428 C3440 0.959 . S
H3429 C3443 0.929 . S
H3430 C3444 0.931 . S
H3431 C3446 0.930 . S
C3432 H3420 0.930 . S
C3432 C3433 1.399 . S
C3432 C3437 1.399 . S
C3433 C3432 1.399 . S
C3433 C3434 1.376 . S
C3434 H3421 0.930 . S
C3434 C3433 1.376 . S
C3434 C3435 1.388 . S
C3435 H3422 0.930 . S
C3435 C3434 1.388 . S
C3435 C3436 1.390 . S
C3436 C3435 1.390 . S
C3436 C3437 1.394 . S
C3436 C3442 1.465 . S
C3437 C3432 1.399 . S
C3437 C3436 1.394 . S
C3437 C3438 1.516 . S
C3438 C3437 1.516 . S
C3438 C3439 1.502 . S
C3438 C3440 1.561 . S
C3438 C3441 1.526 . S
C3439 H3423 0.959 . S
C3439 H3424 0.959 . S
C3439 H3425 0.961 . S
C3439 C3438 1.502 . S
C3440 H3426 0.960 . S
C3440 H3427 0.961 . S
C3440 H3428 0.959 . S
C3440 C3438 1.561 . S
C3441 C3438 1.526 . S
C3441 C3442 1.396 . S
C3441 C3446 1.390 . S
C3442 C3436 1.465 . S
C3442 C3441 1.396 . S
C3442 C3443 1.399 . S
C3443 H3429 0.929 . S
C3443 C3442 1.399 . S
C3443 C3444 1.385 . S
C3444 H3430 0.931 . S
C3444 C3443 1.385 . S
C3444 C3445 1.389 . S
C3445 C3444 1.389 . S
C3445 C3446 1.387 . S
C3446 H3431 0.930 . S
C3446 C3441 1.390 . S
C3446 C3445 1.387 . S
H3447 C3459 0.930 . S
H3448 C3461 0.930 . S
H3449 C3462 0.930 . S
H3450 C3466 0.959 . S
H3451 C3466 0.959 . S
H3452 C3466 0.961 . S
H3453 C3467 0.960 . S
H3454 C3467 0.961 . S
H3455 C3467 0.959 . S
H3456 C3470 0.929 . S
H3457 C3471 0.931 . S
H3458 C3473 0.930 . S
C3459 H3447 0.930 . S
C3459 C3460 1.399 . S
C3459 C3464 1.399 . S
C3460 C3459 1.399 . S
C3460 C3461 1.376 . S
C3461 H3448 0.930 . S
C3461 C3460 1.376 . S
C3461 C3462 1.388 . S
C3462 H3449 0.930 . S
C3462 C3461 1.388 . S
C3462 C3463 1.390 . S
C3463 C3462 1.390 . S
C3463 C3464 1.394 . S
C3463 C3469 1.465 . S
C3464 C3459 1.399 . S
C3464 C3463 1.394 . S
C3464 C3465 1.516 . S
C3465 C3464 1.516 . S
C3465 C3466 1.502 . S
C3465 C3467 1.561 . S
C3465 C3468 1.526 . S
C3466 H3450 0.959 . S
C3466 H3451 0.959 . S
C3466 H3452 0.961 . S
C3466 C3465 1.502 . S
C3467 H3453 0.960 . S
C3467 H3454 0.961 . S
C3467 H3455 0.959 . S
C3467 C3465 1.561 . S
C3468 C3465 1.526 . S
C3468 C3469 1.396 . S
C3468 C3473 1.390 . S
C3469 C3463 1.465 . S
C3469 C3468 1.396 . S
C3469 C3470 1.399 . S
C3470 H3456 0.929 . S
C3470 C3469 1.399 . S
C3470 C3471 1.385 . S
C3471 H3457 0.931 . S
C3471 C3470 1.385 . S
C3471 C3472 1.389 . S
C3472 C3471 1.389 . S
C3472 C3473 1.387 . S
C3473 H3458 0.930 . S
C3473 C3468 1.390 . S
C3473 C3472 1.387 . S
H3474 C3486 0.930 . S
H3475 C3488 0.930 . S
H3476 C3489 0.930 . S
H3477 C3493 0.959 . S
H3478 C3493 0.959 . S
H3479 C3493 0.961 . S
H3480 C3494 0.960 . S
H3481 C3494 0.961 . S
H3482 C3494 0.959 . S
H3483 C3497 0.929 . S
H3484 C3498 0.931 . S
H3485 C3500 0.930 . S
C3486 H3474 0.930 . S
C3486 C3487 1.399 . S
C3486 C3491 1.399 . S
C3487 C3486 1.399 . S
C3487 C3488 1.376 . S
C3488 H3475 0.930 . S
C3488 C3487 1.376 . S
C3488 C3489 1.388 . S
C3489 H3476 0.930 . S
C3489 C3488 1.388 . S
C3489 C3490 1.390 . S
C3490 C3489 1.390 . S
C3490 C3491 1.394 . S
C3490 C3496 1.465 . S
C3491 C3486 1.399 . S
C3491 C3490 1.394 . S
C3491 C3492 1.516 . S
C3492 C3491 1.516 . S
C3492 C3493 1.502 . S
C3492 C3494 1.561 . S
C3492 C3495 1.526 . S
C3493 H3477 0.959 . S
C3493 H3478 0.959 . S
C3493 H3479 0.961 . S
C3493 C3492 1.502 . S
C3494 H3480 0.960 . S
C3494 H3481 0.961 . S
C3494 H3482 0.959 . S
C3494 C3492 1.561 . S
C3495 C3492 1.526 . S
C3495 C3496 1.396 . S
C3495 C3500 1.390 . S
C3496 C3490 1.465 . S
C3496 C3495 1.396 . S
C3496 C3497 1.399 . S
C3497 H3483 0.929 . S
C3497 C3496 1.399 . S
C3497 C3498 1.385 . S
C3498 H3484 0.931 . S
C3498 C3497 1.385 . S
C3498 C3499 1.389 . S
C3499 C3498 1.389 . S
C3499 C3500 1.387 . S
C3500 H3485 0.930 . S
C3500 C3495 1.390 . S
C3500 C3499 1.387 . S
H3501 C3513 0.930 . S
H3502 C3515 0.930 . S
H3503 C3516 0.930 . S
H3504 C3520 0.959 . S
H3505 C3520 0.959 . S
H3506 C3520 0.961 . S
H3507 C3521 0.960 . S
H3508 C3521 0.961 . S
H3509 C3521 0.959 . S
H3510 C3524 0.929 . S
H3511 C3525 0.931 . S
H3512 C3527 0.930 . S
C3513 H3501 0.930 . S
C3513 C3514 1.399 . S
C3513 C3518 1.399 . S
C3514 C3513 1.399 . S
C3514 C3515 1.376 . S
C3515 H3502 0.930 . S
C3515 C3514 1.376 . S
C3515 C3516 1.388 . S
C3516 H3503 0.930 . S
C3516 C3515 1.388 . S
C3516 C3517 1.390 . S
C3517 C3516 1.390 . S
C3517 C3518 1.394 . S
C3517 C3523 1.465 . S
C3518 C3513 1.399 . S
C3518 C3517 1.394 . S
C3518 C3519 1.516 . S
C3519 C3518 1.516 . S
C3519 C3520 1.502 . S
C3519 C3521 1.561 . S
C3519 C3522 1.526 . S
C3520 H3504 0.959 . S
C3520 H3505 0.959 . S
C3520 H3506 0.961 . S
C3520 C3519 1.502 . S
C3521 H3507 0.960 . S
C3521 H3508 0.961 . S
C3521 H3509 0.959 . S
C3521 C3519 1.561 . S
C3522 C3519 1.526 . S
C3522 C3523 1.396 . S
C3522 C3527 1.390 . S
C3523 C3517 1.465 . S
C3523 C3522 1.396 . S
C3523 C3524 1.399 . S
C3524 H3510 0.929 . S
C3524 C3523 1.399 . S
C3524 C3525 1.385 . S
C3525 H3511 0.931 . S
C3525 C3524 1.385 . S
C3525 C3526 1.389 . S
C3526 C3525 1.389 . S
C3526 C3527 1.387 . S
C3527 H3512 0.930 . S
C3527 C3522 1.390 . S
C3527 C3526 1.387 . S
C961 N396 1.728 . S
C949 C9 1.767 . S
C988 C423 1.586 . S
C976 C16 1.585 . S
C1003 C30 1.825 . S
C1015 C437 1.840 . S
C1042 N455 0.751 . S
C1030 C40 0.757 . S
C1057 C52 1.517 . S
C1069 C460 1.526 . S
C1084 C66 1.800 . S
C1096 C400 1.805 . S
C1111 C76 0.704 . S
C1123 N419 0.671 . S
C1150 N432 1.780 . S
C1138 C90 1.781 . S
C1177 N478 1.753 . S
C1165 C6 1.805 . S
C1192 C21 1.646 . S
C1204 N501 1.648 . S
C1219 C28 1.673 . S
C1231 N524 1.648 . S
C1258 N557 1.153 . S
C1246 C45 1.182 . S
C1273 C54 1.564 . S
C1285 C584 1.564 . S
C1312 C607 2.037 . S
C1300 C69 2.039 . S
C1327 C81 0.986 . S
C1339 C630 0.992 1_655 S
C1366 C644 1.563 . S
C1354 C88 1.572 . S
C1381 C4 1.496 . S
C1393 C561 1.507 . S
C1408 C57 1.604 . S
C1420 N603 1.549 . S
C1447 N626 1.558 . S
C1435 C64 1.615 . S
C1462 C78 1.170 . S
C1474 N639 1.146 . S
C1501 N580 1.751 . S
C1489 C93 1.775 . S
C1528 C506 2.107 . S
C1516 C33 2.112 . S
C1543 C42 0.933 . S
C1555 C529 0.950 . S
C1582 C483 1.621 . S
C1570 C18 1.632 . S
C1609 C676 1.736 . S
C1597 C105 1.722 . S
C1624 C112 1.529 . S
C1636 C690 1.545 . S
C1651 C126 1.788 . S
C1663 N718 1.759 . S
C1690 N731 0.627 . S
C1678 C136 0.665 . S
C1705 C148 1.511 . S
C1717 C736 1.526 . S
C1732 C162 1.753 . S
C1744 N672 1.673 . S
C1759 C172 0.757 . S
C1771 N685 0.797 . S
C1786 C186 1.694 . S
C1798 C722 1.709 . S
C1825 N570 1.747 . S
C1813 C102 1.809 . S
C1840 C117 1.590 . S
C1852 N754 1.507 . S
C1879 N616 1.594 1_655 S
C1867 C124 1.591 . S
C1894 C141 1.160 . S
C1906 C791 1.179 . S
C1921 C150 1.660 . S
C1933 C492 1.670 . S
C1960 C805 2.093 . S
C1948 C165 2.074 . S
C1975 C177 1.096 . S
C1987 C538 1.091 . S
C2014 N823 1.419 . S
C2002 C184 1.481 . S
C2029 C100 1.502 . S
C2041 N787 1.520 . S
C2068 N800 1.562 . S
C2056 C153 1.571 . S
C2083 C160 1.589 . S
C2095 N534 1.599 . S
C2122 C828 0.964 . S
C2110 C174 0.951 . S
C2137 C189 1.776 . S
C2149 N488 1.706 . S
C2164 C129 2.014 . S
C2176 C759 2.042 . S
C2191 C138 1.082 . S
C2203 C621 1.078 . S
C2218 C114 1.685 . S
C2230 C575 1.687 . S
C2245 C201 1.805 . S
C2257 C713 1.807 . S
C2284 C745 1.483 . S
C2272 C208 1.500 . S
C2299 C222 1.800 . S
C2311 N662 1.738 . S
C2326 C232 0.669 . S
C2338 N695 0.667 . S
C2353 C244 1.517 . S
C2365 C699 1.516 . S
C2380 C258 1.866 . S
C2392 N708 1.845 . S
C2419 N741 0.609 . S
C2407 C268 0.587 . S
C2434 C282 1.794 . S
C2446 C667 1.790 . S
C2473 N856 1.810 . S
C2461 C198 1.809 . S
C2488 C213 1.531 . S
C2500 N593 1.541 . S
C2527 N879 1.492 . S
C2515 C220 1.516 . S
C2542 C237 1.242 . S
C2554 N649 1.165 . S
C2569 C246 1.624 . S
C2581 C897 1.625 . S
C2596 C261 2.135 . S
C2608 C515 2.124 . S
C2635 N915 1.034 . S
C2623 C273 1.008 . S
C2650 C280 1.565 . S
C2662 C552 1.546 . S
C2689 C653 1.553 . S
C2677 C196 1.556 . S
C2716 N511 1.599 . S
C2704 C249 1.587 . S
C2731 C256 1.728 . S
C2743 C920 1.758 . S
C2758 C270 0.987 . S
C2770 N547 0.956 . S
C2797 N892 1.808 . S
C2785 C285 1.835 . S
C2824 C598 2.013 1_565 S
C2812 C225 1.990 . S
C2851 C883 1.095 . S
C2839 C234 1.108 . S
C2878 C860 1.660 . S
C2866 C210 1.658 . S
C2893 C297 1.736 . S
C2905 N442 1.667 . S
C2920 C304 1.493 . S
C2932 C469 1.511 . S
C2959 C391 1.853 . S
C2947 C318 1.861 . S
C2986 N409 0.657 . S
C2974 C328 0.645 . S
C3013 C414 1.566 . S
C3001 C340 1.585 . S
C3040 C446 1.738 . S
C3028 C354 1.724 . S
C3067 N465 0.765 . S
C3055 C364 0.805 . S
C3082 C378 1.779 . S
C3094 N386 1.740 . S
C3109 C294 1.761 . S
C3121 N902 1.705 . S
C3148 N810 1.548 . S
C3136 C309 1.601 . S
C3175 C929 1.770 . S
C3163 C316 1.770 . S
C3202 C837 0.926 . S
C3190 C333 0.919 . S
C3217 C342 1.665 . S
C3229 C851 1.653 . S
C3256 C768 2.063 . S
C3244 C357 2.065 . S
C3283 C874 1.244 . S
C3271 C369 1.233 . S
C3298 C376 1.547 . S
C3310 N777 1.557 . S
C3337 N833 1.452 . S
C3325 C292 1.441 . S
C3364 N764 1.556 . S
C3352 C345 1.590 . S
C3391 N869 1.440 . S
C3379 C352 1.526 . S
C3406 C366 1.097 . S
C3418 C782 1.081 . S
C3433 C381 1.776 . S
C3445 N846 1.689 . S
C3460 C321 2.135 . S
C3472 C814 2.145 . S
C3487 C330 1.020 . S
C3499 N925 1.004 . S
C3526 C906 1.605 . S
C3514 C306 1.598 . S
