# Generated by pormake.
# Topology apo, (3,6)-cn, num edge types: 1
# Building blocks:
#     Node 0, Type 0, BuildingBlock: QEWDON_clean_linker_0, # of connection points: 3
#     Node 1, Type 0, BuildingBlock: QEWDON_clean_linker_0, # of connection points: 3
#     Node 2, Type 0, BuildingBlock: QEWDON_clean_linker_0, # of connection points: 3
#     Node 3, Type 0, BuildingBlock: QEWDON_clean_linker_0, # of connection points: 3
#     Node 4, Type 0, BuildingBlock: QEWDON_clean_linker_0, # of connection points: 3
#     Node 5, Type 0, BuildingBlock: QEWDON_clean_linker_0, # of connection points: 3
#     Node 6, Type 0, BuildingBlock: QEWDON_clean_linker_0, # of connection points: 3
#     Node 7, Type 0, BuildingBlock: QEWDON_clean_linker_0, # of connection points: 3
#     Node 8, Type 1, BuildingBlock: KUMBOL_clean_sbu_1, # of connection points: 6
#     Node 9, Type 1, BuildingBlock: KUMBOL_clean_sbu_1, # of connection points: 6
#     Node 10, Type 1, BuildingBlock: KUMBOL_clean_sbu_1, # of connection points: 6
#     Node 11, Type 1, BuildingBlock: KUMBOL_clean_sbu_1, # of connection points: 6
#     Edge 12, Type (0, 1), BuildingBlock: TEMPAE_clean_linker_10, # of connection points: 2
#     Edge 13, Type (0, 1), BuildingBlock: TEMPAE_clean_linker_10, # of connection points: 2
#     Edge 14, Type (0, 1), BuildingBlock: TEMPAE_clean_linker_10, # of connection points: 2
#     Edge 15, Type (0, 1), BuildingBlock: TEMPAE_clean_linker_10, # of connection points: 2
#     Edge 16, Type (0, 1), BuildingBlock: TEMPAE_clean_linker_10, # of connection points: 2
#     Edge 17, Type (0, 1), BuildingBlock: TEMPAE_clean_linker_10, # of connection points: 2
#     Edge 18, Type (0, 1), BuildingBlock: TEMPAE_clean_linker_10, # of connection points: 2
#     Edge 19, Type (0, 1), BuildingBlock: TEMPAE_clean_linker_10, # of connection points: 2
#     Edge 20, Type (0, 1), BuildingBlock: TEMPAE_clean_linker_10, # of connection points: 2
#     Edge 21, Type (0, 1), BuildingBlock: TEMPAE_clean_linker_10, # of connection points: 2
#     Edge 22, Type (0, 1), BuildingBlock: TEMPAE_clean_linker_10, # of connection points: 2
#     Edge 23, Type (0, 1), BuildingBlock: TEMPAE_clean_linker_10, # of connection points: 2
#     Edge 24, Type (0, 1), BuildingBlock: TEMPAE_clean_linker_10, # of connection points: 2
#     Edge 25, Type (0, 1), BuildingBlock: TEMPAE_clean_linker_10, # of connection points: 2
#     Edge 26, Type (0, 1), BuildingBlock: TEMPAE_clean_linker_10, # of connection points: 2
#     Edge 27, Type (0, 1), BuildingBlock: TEMPAE_clean_linker_10, # of connection points: 2
#     Edge 28, Type (0, 1), BuildingBlock: TEMPAE_clean_linker_10, # of connection points: 2
#     Edge 29, Type (0, 1), BuildingBlock: TEMPAE_clean_linker_10, # of connection points: 2
#     Edge 30, Type (0, 1), BuildingBlock: TEMPAE_clean_linker_10, # of connection points: 2
#     Edge 31, Type (0, 1), BuildingBlock: TEMPAE_clean_linker_10, # of connection points: 2
#     Edge 32, Type (0, 1), BuildingBlock: TEMPAE_clean_linker_10, # of connection points: 2
#     Edge 33, Type (0, 1), BuildingBlock: TEMPAE_clean_linker_10, # of connection points: 2
#     Edge 34, Type (0, 1), BuildingBlock: TEMPAE_clean_linker_10, # of connection points: 2
#     Edge 35, Type (0, 1), BuildingBlock: TEMPAE_clean_linker_10, # of connection points: 2
# Relax obj value: 0.074
# Max RMSD: 0.260
# Mean RMSD: 0.207
data_MOF--net-apo--node1-KUMBOL_clean_sbu_1--node2-QEWDON_clean_linker_0--edge1-TEMPAE_clean_linker_10
_symmetry_space_group_name_H-M    P1
_symmetry_Int_Tables_number       1
_symmetry_cell_setting            triclinic
loop_
_symmetry_equiv_pos_as_xyz
'x, y, z'
_cell_length_a     30.454826
_cell_length_b     43.811709
_cell_length_c     52.560991
_cell_angle_alpha  89.792281
_cell_angle_beta   89.952789
_cell_angle_gamma 90.342972
loop_
_atom_site_label
_atom_site_type_symbol
_atom_site_fract_x
_atom_site_fract_y
_atom_site_fract_z
_atom_type_partial_charge
H0 H 0.27084 0.39962 0.37687 0.0
C1 C 0.2866 0.39959 0.39534 0.0
C2 C 0.3259 0.41632 0.39913 0.0
C3 C 0.26656 0.38389 0.41573 0.0
H4 H 0.37372 0.43065 0.42716 0.0
C5 C 0.3449 0.41669 0.42361 0.0
C6 C 0.32551 0.40089 0.44403 0.0
C7 C 0.28681 0.38423 0.43976 0.0
C8 C 0.22203 0.36997 0.41346 0.0
H9 H 0.27166 0.37194 0.45544 0.0
C10 C 0.21146 0.34803 0.39474 0.0
C11 C 0.1697 0.33347 0.3948 0.0
C12 C 0.19011 0.37797 0.43153 0.0
H13 H 0.1971 0.39504 0.44586 0.0
C14 C 0.14918 0.36383 0.43169 0.0
H15 H 0.2358 0.34207 0.3806 0.0
C16 C 0.13922 0.34153 0.41381 0.0
H17 H 0.10761 0.33024 0.41529 0.0
H18 H 0.12523 0.36984 0.44603 0.0
H19 H 0.23714 0.10939 0.8732 0.0
C20 C 0.22095 0.11188 0.89142 0.0
C21 C 0.18262 0.09478 0.89702 0.0
C22 C 0.24064 0.13043 0.91009 0.0
H23 H 0.13391 0.08523 0.92611 0.0
C24 C 0.1639 0.09745 0.92145 0.0
C25 C 0.18398 0.115 0.94048 0.0
C26 C 0.22193 0.13184 0.93454 0.0
C27 C 0.28487 0.14386 0.90593 0.0
H28 H 0.2384 0.14473 0.94934 0.0
C29 C 0.29196 0.16951 0.89003 0.0
C30 C 0.33416 0.18302 0.88849 0.0
C31 C 0.32034 0.1314 0.91938 0.0
H32 H 0.31556 0.11171 0.93164 0.0
C33 C 0.36213 0.14425 0.91736 0.0
H34 H 0.26469 0.17953 0.87981 0.0
C35 C 0.36899 0.16999 0.90219 0.0
H36 H 0.40168 0.17983 0.90117 0.0
H37 H 0.38923 0.13446 0.92783 0.0
H38 H 0.75899 0.11704 0.65387 0.0
C39 C 0.77315 0.11824 0.63496 0.0
C40 C 0.80994 0.1003 0.62881 0.0
C41 C 0.75318 0.13662 0.61644 0.0
H42 H 0.85338 0.08634 0.59854 0.0
C43 C 0.82668 0.1013 0.60374 0.0
C44 C 0.80731 0.11993 0.58498 0.0
C45 C 0.7713 0.13805 0.59191 0.0
C46 C 0.7099 0.15096 0.62114 0.0
H47 H 0.75612 0.15286 0.57794 0.0
C48 C 0.70273 0.17126 0.6415 0.0
C49 C 0.66117 0.18495 0.6448 0.0
C50 C 0.67515 0.14415 0.60449 0.0
H51 H 0.67972 0.1284 0.58887 0.0
C52 C 0.63418 0.15742 0.60776 0.0
H53 H 0.72937 0.17658 0.65443 0.0
C54 C 0.62723 0.17776 0.62761 0.0
H55 H 0.5953 0.18835 0.62916 0.0
H56 H 0.60777 0.15213 0.59469 0.0
H57 H 0.74146 0.39007 0.15552 0.0
C58 C 0.72605 0.38835 0.13699 0.0
C59 C 0.68712 0.40447 0.13196 0.0
C60 C 0.74662 0.37153 0.11772 0.0
H61 H 0.63967 0.41652 0.10318 0.0
C62 C 0.66838 0.40295 0.1075 0.0
C63 C 0.68863 0.38625 0.088 0.0
C64 C 0.7273 0.3702 0.09349 0.0
C65 C 0.79115 0.35877 0.12159 0.0
H66 H 0.74334 0.35733 0.0786 0.0
C67 C 0.80083 0.33915 0.14216 0.0
C68 C 0.84362 0.32741 0.14519 0.0
C69 C 0.82463 0.36672 0.10434 0.0
H70 H 0.81815 0.38202 0.08856 0.0
C71 C 0.86688 0.35534 0.10736 0.0
H72 H 0.7752 0.33291 0.15555 0.0
C73 C 0.87635 0.33579 0.12753 0.0
H74 H 0.90927 0.32672 0.12901 0.0
H75 H 0.89236 0.36156 0.0939 0.0
H76 H 0.68269 0.64324 0.64914 0.0
C77 C 0.67833 0.63772 0.62925 0.0
C78 C 0.66374 0.60825 0.62186 0.0
C79 C 0.68524 0.6609 0.61098 0.0
H80 H 0.64459 0.58098 0.58909 0.0
C81 C 0.65769 0.60259 0.59562 0.0
C82 C 0.6668 0.62503 0.57732 0.0
C83 C 0.68041 0.65404 0.58504 0.0
C84 C 0.6905 0.69335 0.61862 0.0
H85 H 0.68564 0.67171 0.57083 0.0
C86 C 0.72502 0.7036 0.63447 0.0
C87 C 0.7284 0.73486 0.64093 0.0
C88 C 0.65971 0.71452 0.60951 0.0
H89 H 0.63276 0.7072 0.5975 0.0
C90 C 0.66301 0.74523 0.61587 0.0
H91 H 0.74894 0.6875 0.64161 0.0
C92 C 0.69703 0.75537 0.63138 0.0
H93 H 0.69911 0.7795 0.63572 0.0
H94 H 0.63912 0.76129 0.60866 0.0
H95 H 0.82281 0.87597 0.15646 0.0
C96 C 0.83118 0.88071 0.13683 0.0
C97 C 0.84993 0.90917 0.12972 0.0
C98 C 0.82505 0.85743 0.11876 0.0
H99 H 0.8773 0.93455 0.09778 0.0
C100 C 0.86062 0.9139 0.10381 0.0
C101 C 0.85242 0.89151 0.08535 0.0
C102 C 0.8349 0.86332 0.09306 0.0
C103 C 0.81398 0.82566 0.12666 0.0
H104 H 0.82946 0.84558 0.07906 0.0
C105 C 0.77601 0.81831 0.141 0.0
C106 C 0.76592 0.78746 0.14653 0.0
C107 C 0.84206 0.80205 0.11893 0.0
H108 H 0.87166 0.8071 0.10821 0.0
C109 C 0.83246 0.77175 0.12488 0.0
H110 H 0.75389 0.83618 0.14699 0.0
C111 C 0.79454 0.76445 0.13842 0.0
H112 H 0.7874 0.74069 0.14259 0.0
H113 H 0.85434 0.75382 0.11877 0.0
H114 H 0.19057 0.87193 0.36631 0.0
C115 C 0.18645 0.87432 0.38669 0.0
C116 C 0.17245 0.90232 0.3969 0.0
C117 C 0.19105 0.8486 0.40244 0.0
H118 H 0.15191 0.92554 0.43107 0.0
C119 C 0.164 0.90435 0.42325 0.0
C120 C 0.16884 0.87879 0.43928 0.0
C121 C 0.18357 0.85132 0.42866 0.0
C122 C 0.19583 0.8177 0.39146 0.0
H123 H 0.18753 0.83135 0.44066 0.0
C124 C 0.23171 0.80975 0.3759 0.0
C125 C 0.23506 0.77982 0.36623 0.0
C126 C 0.16342 0.79568 0.39701 0.0
H127 H 0.13539 0.80136 0.40876 0.0
C128 C 0.16659 0.76623 0.38745 0.0
H129 H 0.25683 0.8266 0.37153 0.0
C130 C 0.20213 0.75827 0.37226 0.0
H131 H 0.2042 0.73498 0.36553 0.0
H132 H 0.14153 0.74943 0.39195 0.0
H133 H 0.3375 0.65478 0.86352 0.0
C134 C 0.34089 0.64933 0.88356 0.0
C135 C 0.35587 0.62029 0.89093 0.0
C136 C 0.33356 0.672 0.90196 0.0
H137 H 0.37419 0.59149 0.92258 0.0
C138 C 0.36248 0.61382 0.91687 0.0
C139 C 0.35353 0.6358 0.93548 0.0
C140 C 0.33888 0.66471 0.92787 0.0
C141 C 0.32564 0.70425 0.89445 0.0
H142 H 0.33316 0.68202 0.94217 0.0
C143 C 0.29251 0.71249 0.87698 0.0
C144 C 0.28558 0.74354 0.87076 0.0
C145 C 0.35207 0.72723 0.90522 0.0
H146 H 0.37815 0.72153 0.91838 0.0
C147 C 0.34545 0.75776 0.89909 0.0
H148 H 0.2721 0.69492 0.86852 0.0
C149 C 0.31241 0.76592 0.88216 0.0
H150 H 0.30739 0.78996 0.87835 0.0
H151 H 0.36584 0.77523 0.90766 0.0
C152 C 0.89188 0.06871 0.28732 0.0
C153 C 0.90897 0.0176 0.30188 0.0
C154 C 0.92147 0.0483 0.29787 0.0
C155 C 0.86678 0.00772 0.29477 0.0
C156 C 0.84916 0.05907 0.28066 0.0
C157 C 0.83687 0.02843 0.28431 0.0
N158 N 0.9054 0.09787 0.28284 0.0
C159 C 0.87734 0.11891 0.27282 0.0
C160 C 0.82038 0.08041 0.27004 0.0
C161 C 0.83452 0.11047 0.26617 0.0
Gd162 Gd 0.0615 0.11865 0.23622 0.0
Gd163 Gd 0.97653 0.1105 0.2963 0.0
N164 N 0.96206 0.05858 0.30466 0.0
C165 C 0.93901 0.99785 0.31333 0.0
C166 C 0.98982 0.04003 0.31784 0.0
C167 C 0.97938 0.00923 0.32162 0.0
H168 H 0.01949 0.04901 0.32612 0.0
H169 H 1.00211 0.99437 0.3313 0.0
H170 H 0.04548 0.18795 0.21315 0.0
H171 H 0.88767 0.14231 0.27038 0.0
H172 H 0.08552 0.23727 0.20957 0.0
H173 H 0.93083 0.97405 0.31658 0.0
H174 H 0.85676 0.98417 0.29757 0.0
H175 H 0.14024 0.06618 0.25051 0.0
H176 H 0.78729 0.0739 0.26468 0.0
H177 H 0.81239 0.12718 0.25816 0.0
H178 H 0.22397 0.21786 0.25023 0.0
H179 H 0.80437 0.02051 0.27904 0.0
H180 H 0.25559 0.11453 0.27352 0.0
H181 H 0.21522 0.06594 0.26761 0.0
N182 N 0.13519 0.11477 0.25003 0.0
C183 C 0.15802 0.14151 0.25133 0.0
C184 C 0.15618 0.08774 0.25437 0.0
C185 C 0.22197 0.11488 0.2668 0.0
C186 C 0.19927 0.08742 0.26353 0.0
C187 C 0.20191 0.14232 0.25989 0.0
H188 H 0.25851 0.17131 0.26701 0.0
N189 N 0.09674 0.16613 0.23346 0.0
C190 C 0.13859 0.16784 0.24216 0.0
C191 C 0.14284 0.22079 0.22926 0.0
C192 C 0.16245 0.19548 0.24089 0.0
C193 C 0.07807 0.19021 0.22105 0.0
C194 C 0.10067 0.21801 0.21896 0.0
O195 O 0.9588 0.09064 0.25747 0.0
O196 O 0.0241 0.07431 0.2406 0.0
O197 O 0.03937 0.12603 0.1975 0.0
O198 O 0.10163 0.10435 0.20402 0.0
O199 O 0.04607 0.0931 0.30098 0.0
O200 O 0.06617 0.07607 0.2611 0.0
O201 O 0.05649 0.15757 0.26452 0.0
O202 O 0.04337 0.13226 0.30185 0.0
O203 O 0.96734 0.10383 0.33687 0.0
O204 O 0.94168 0.14431 0.31896 0.0
O205 O 0.99233 0.13709 0.23282 0.0
O206 O 0.96939 0.15344 0.27256 0.0
C207 C 0.98142 0.07133 0.24357 0.0
C208 C 0.06828 0.07463 0.28613 0.0
C209 C 0.06504 0.09358 0.16525 0.0
C210 C 0.07123 0.08376 0.11964 0.0
C211 C 0.02787 0.04994 0.14672 0.0
C212 C 0.03808 0.06778 0.16788 0.0
C213 C 0.04403 0.05795 0.1227 0.0
C214 C 0.08195 0.10137 0.14115 0.0
C215 C 0.0736 0.11365 0.18709 0.0
C216 C 0.20533 0.19672 0.25063 0.0
C217 C 0.22495 0.17021 0.26023 0.0
H218 H 0.16019 0.24238 0.22777 0.0
C219 C 0.05837 0.15617 0.28945 0.0
C220 C 0.97099 0.15635 0.24754 0.0
C221 C 0.90387 0.12425 0.35525 0.0
C222 C 0.8694 0.11728 0.39692 0.0
C223 C 0.82627 0.11163 0.35836 0.0
C224 C 0.86327 0.11826 0.34363 0.0
C225 C 0.82932 0.1109 0.38484 0.0
C226 C 0.90666 0.12413 0.38203 0.0
C227 C 0.94412 0.1283 0.33989 0.0
H228 H 0.00711 0.02998 0.14889 0.0
H229 H 0.02459 0.06181 0.18623 0.0
H230 H 0.03557 0.04384 0.10653 0.0
H231 H 0.10239 0.12158 0.13903 0.0
H232 H 0.79517 0.10685 0.3492 0.0
H233 H 0.8601 0.11838 0.32322 0.0
H234 H 0.80025 0.10562 0.39596 0.0
H235 H 0.93789 0.12859 0.39123 0.0
C236 C 0.63972 0.43684 0.78193 0.0
C237 C 0.63262 0.49191 0.78499 0.0
C238 C 0.61388 0.46242 0.78618 0.0
C239 C 0.67726 0.49537 0.77885 0.0
C240 C 0.68463 0.44024 0.77597 0.0
C241 C 0.70319 0.46962 0.77439 0.0
N242 N 0.62078 0.4087 0.78343 0.0
C243 C 0.64503 0.38302 0.77975 0.0
C244 C 0.70952 0.41399 0.77171 0.0
C245 C 0.68965 0.38526 0.7737 0.0
Gd246 Gd 0.45548 0.39742 0.73777 0.0
Gd247 Gd 0.54575 0.40738 0.79341 0.0
N248 N 0.57063 0.45834 0.79199 0.0
C249 C 0.60608 0.51701 0.79047 0.0
C250 C 0.54575 0.48252 0.79931 0.0
C251 C 0.56264 0.51223 0.79806 0.0
H252 H 0.51352 0.47903 0.80702 0.0
H253 H 0.5424 0.53138 0.80345 0.0
H254 H 0.48451 0.32356 0.73318 0.0
H255 H 0.63019 0.36077 0.78194 0.0
H256 H 0.45072 0.27288 0.7393 0.0
H257 H 0.61919 0.54004 0.78972 0.0
H258 H 0.69213 0.51785 0.77769 0.0
H259 H 0.37513 0.44848 0.74609 0.0
H260 H 0.74412 0.41564 0.76704 0.0
H261 H 0.70874 0.36482 0.77072 0.0
H262 H 0.30053 0.29463 0.75977 0.0
H263 H 0.73761 0.47267 0.76974 0.0
H264 H 0.25677 0.39944 0.76343 0.0
H265 H 0.29626 0.44838 0.75699 0.0
N266 N 0.3804 0.40011 0.74703 0.0
C267 C 0.35914 0.37291 0.74991 0.0
C268 C 0.35838 0.42699 0.74921 0.0
C269 C 0.29141 0.39933 0.75872 0.0
C270 C 0.31362 0.42702 0.75517 0.0
C271 C 0.31409 0.37181 0.75605 0.0
H272 H 0.25867 0.34214 0.76439 0.0
N273 N 0.42666 0.34785 0.74239 0.0
C274 C 0.38281 0.34602 0.74731 0.0
C275 C 0.38687 0.29095 0.74812 0.0
C276 C 0.36192 0.31749 0.75073 0.0
C277 C 0.45066 0.32208 0.73873 0.0
C278 C 0.43134 0.29327 0.74186 0.0
O279 O 0.56122 0.42837 0.75442 0.0
O280 O 0.49467 0.44118 0.73657 0.0
O281 O 0.46466 0.37904 0.69996 0.0
O282 O 0.41848 0.41561 0.70569 0.0
O283 O 0.47752 0.42751 0.79837 0.0
O284 O 0.45309 0.44231 0.75855 0.0
O285 O 0.4403 0.37884 0.77731 0.0
O286 O 0.50679 0.36331 0.79301 0.0
O287 O 0.5314 0.41752 0.83305 0.0
O288 O 0.58639 0.38888 0.82374 0.0
O289 O 0.52418 0.3786 0.73232 0.0
O290 O 0.55003 0.36328 0.77155 0.0
C291 C 0.53739 0.44483 0.73862 0.0
C292 C 0.45397 0.4453 0.78345 0.0
C293 C 0.45614 0.41393 0.66641 0.0
C294 C 0.45261 0.42536 0.62088 0.0
C295 C 0.51274 0.44512 0.6466 0.0
C296 C 0.49545 0.43055 0.66803 0.0
C297 C 0.49149 0.44266 0.62317 0.0
C298 C 0.43491 0.41115 0.64277 0.0
C299 C 0.43834 0.39847 0.68912 0.0
C300 C 0.31706 0.31634 0.7569 0.0
C301 C 0.29322 0.34341 0.75955 0.0
H302 H 0.37205 0.2686 0.75061 0.0
C303 C 0.46384 0.36088 0.79189 0.0
C304 C 0.54827 0.36052 0.74663 0.0
C305 C 0.59229 0.41893 0.86086 0.0
C306 C 0.61536 0.42637 0.90503 0.0
C307 C 0.64571 0.45826 0.87127 0.0
C308 C 0.62045 0.44272 0.8534 0.0
C309 C 0.64326 0.45021 0.89689 0.0
C310 C 0.58993 0.41065 0.88676 0.0
C311 C 0.5653 0.40283 0.84178 0.0
H312 H 0.54305 0.45796 0.6481 0.0
H313 H 0.51304 0.43182 0.68582 0.0
H314 H 0.50614 0.45361 0.60669 0.0
H315 H 0.4048 0.39792 0.64143 0.0
H316 H 0.66748 0.47652 0.86521 0.0
H317 H 0.62316 0.44927 0.83378 0.0
H318 H 0.66388 0.46233 0.91031 0.0
H319 H 0.56817 0.39229 0.89268 0.0
C320 C 0.85738 0.87126 0.77473 0.0
C321 C 0.85378 0.81721 0.78505 0.0
C322 C 0.87749 0.84488 0.78341 0.0
C323 C 0.8099 0.8162 0.777 0.0
C324 C 0.8129 0.87047 0.76723 0.0
C325 C 0.78956 0.84274 0.76801 0.0
N326 N 0.88036 0.89798 0.77518 0.0
C327 C 0.85955 0.92496 0.7704 0.0
C328 C 0.79267 0.89779 0.76017 0.0
C329 C 0.81594 0.92521 0.76212 0.0
Gd330 Gd 0.04177 0.90084 0.73101 0.0
Gd331 Gd 0.95398 0.8944 0.78875 0.0
N332 N 0.91997 0.84651 0.79108 0.0
C333 C 0.87465 0.79154 0.79528 0.0
C334 C 0.93987 0.82205 0.80226 0.0
C335 C 0.91776 0.79406 0.80415 0.0
H336 H 0.973 0.82416 0.80942 0.0
H337 H 0.93388 0.77452 0.81254 0.0
H338 H 1.0023 0.96141 0.69772 0.0
H339 H 0.87593 0.94652 0.77345 0.0
H340 H 0.0186 0.01618 0.69313 0.0
H341 H 0.85755 0.76986 0.79681 0.0
H342 H 0.79119 0.79512 0.778 0.0
H343 H 0.13102 0.86917 0.75594 0.0
H344 H 0.75863 0.89811 0.7542 0.0
H345 H 0.8 0.94663 0.75782 0.0
H346 H 0.15608 0.02937 0.73626 0.0
H347 H 0.75541 0.84171 0.76228 0.0
H348 H 0.22631 0.93976 0.76902 0.0
H349 H 0.20424 0.88533 0.77149 0.0
N350 N 0.11184 0.91406 0.74568 0.0
C351 C 0.12407 0.94377 0.74291 0.0
C352 C 0.14039 0.89295 0.75504 0.0
C353 C 0.19428 0.93276 0.76214 0.0
C354 C 0.18188 0.90202 0.76366 0.0
C355 C 0.16535 0.95406 0.75156 0.0
H356 H 0.20754 0.99361 0.75643 0.0
N357 N 0.05601 0.95287 0.72256 0.0
C358 C 0.09487 0.96388 0.73159 0.0
C359 C 0.0778 0.0141 0.7154 0.0
C360 C 0.10651 0.99489 0.72857 0.0
C361 C 0.03002 0.9709 0.70771 0.0
C362 C 0.03985 1.00188 0.70446 0.0
O363 O 0.95972 0.8565 0.75954 0.0
O364 O 0.97415 0.88194 0.72245 0.0
O365 O 0.06753 0.90788 0.69287 0.0
O366 O 0.06936 0.86298 0.70981 0.0
O367 O 0.02047 0.87256 0.79495 0.0
O368 O 0.04632 0.85806 0.75516 0.0
O369 O 0.05762 0.9178 0.77087 0.0
O370 O 0.99282 0.93797 0.78425 0.0
O371 O 0.97582 0.89052 0.82796 0.0
O372 O 0.91109 0.90762 0.81991 0.0
O373 O 0.97409 0.92036 0.72405 0.0
O374 O 0.95048 0.93687 0.7635 0.0
C375 C 0.95447 0.85972 0.73491 0.0
C376 C 0.04533 0.85544 0.78019 0.0
C377 C 0.0557 0.86659 0.6655 0.0
C378 C 0.05494 0.86439 0.61904 0.0
C379 C 0.99677 0.83991 0.64361 0.0
C380 C 0.01662 0.84941 0.66617 0.0
C381 C 0.01561 0.84745 0.62018 0.0
C382 C 0.07499 0.87378 0.64188 0.0
C383 C 0.07467 0.87905 0.6891 0.0
C384 C 0.14687 1.00554 0.73811 0.0
C385 C 0.17627 0.98516 0.74951 0.0
H386 H 0.08552 0.03806 0.71266 0.0
C387 C 0.03579 0.93898 0.78306 0.0
C388 C 0.95019 0.93845 0.73839 0.0
C389 C 0.94515 0.9243 0.85778 0.0
C390 C 0.9391 0.93763 0.90281 0.0
C391 C 0.9682 0.97438 0.87214 0.0
C392 C 0.96237 0.95335 0.85252 0.0
C393 C 0.95682 0.96662 0.89713 0.0
C394 C 0.93338 0.91655 0.88287 0.0
C395 C 0.93987 0.90162 0.83745 0.0
H396 H 0.96655 0.82678 0.6443 0.0
H397 H 1.00121 0.8436 0.6841 0.0
H398 H 0.99971 0.83973 0.60291 0.0
H399 H 0.1049 0.88731 0.64125 0.0
H400 H 0.98144 0.99683 0.86797 0.0
H401 H 0.97119 0.95967 0.83328 0.0
H402 H 0.96125 0.98347 0.91195 0.0
H403 H 0.92037 0.89395 0.88689 0.0
C404 C 0.63594 0.65903 0.28193 0.0
C405 C 0.61787 0.70761 0.30097 0.0
C406 C 0.60658 0.67719 0.29502 0.0
C407 C 0.65818 0.71974 0.29253 0.0
C408 C 0.67729 0.67058 0.27448 0.0
C409 C 0.68792 0.70121 0.27943 0.0
N410 N 0.62439 0.6297 0.27699 0.0
C411 C 0.65365 0.60991 0.26649 0.0
C412 C 0.7069 0.65083 0.26263 0.0
C413 C 0.69521 0.62025 0.2589 0.0
Gd414 Gd 0.46482 0.61161 0.23221 0.0
Gd415 Gd 0.55415 0.61411 0.28978 0.0
N416 N 0.56822 0.66455 0.30325 0.0
C417 C 0.58902 0.72455 0.316 0.0
C418 C 0.54196 0.68015 0.31974 0.0
C419 C 0.55131 0.71055 0.32581 0.0
H420 H 0.51397 0.6692 0.32856 0.0
H421 H 0.52974 0.72302 0.33837 0.0
H422 H 0.48186 0.54333 0.20689 0.0
H423 H 0.64447 0.5863 0.2636 0.0
H424 H 0.44575 0.49252 0.20556 0.0
H425 H 0.59644 0.74799 0.32097 0.0
H426 H 0.66722 0.74315 0.2967 0.0
H427 H 0.38688 0.66013 0.25343 0.0
H428 H 0.73901 0.65883 0.25661 0.0
H429 H 0.71811 0.60471 0.25011 0.0
H430 H 0.31344 0.50585 0.25417 0.0
H431 H 0.71941 0.71059 0.2737 0.0
H432 H 0.27917 0.60708 0.28178 0.0
H433 H 0.31513 0.65708 0.27471 0.0
N434 N 0.3944 0.61198 0.25097 0.0
C435 C 0.37343 0.5845 0.25258 0.0
C436 C 0.37291 0.638 0.25761 0.0
C437 C 0.31135 0.60814 0.27299 0.0
C438 C 0.33165 0.63643 0.26922 0.0
C439 C 0.33165 0.58176 0.26397 0.0
H440 H 0.27894 0.55048 0.27407 0.0
N441 N 0.43254 0.56292 0.23014 0.0
C442 C 0.39262 0.55933 0.24134 0.0
C443 C 0.3906 0.50649 0.2284 0.0
C444 C 0.37092 0.53084 0.24122 0.0
C445 C 0.45108 0.53972 0.21671 0.0
C446 C 0.43062 0.51106 0.21584 0.0
O447 O 0.57209 0.63166 0.25056 0.0
O448 O 0.5094 0.65327 0.23473 0.0
O449 O 0.4746 0.60636 0.19125 0.0
O450 O 0.42005 0.63239 0.20531 0.0
O451 O 0.4872 0.63552 0.29599 0.0
O452 O 0.4659 0.65416 0.25678 0.0
O453 O 0.4724 0.57266 0.2608 0.0
O454 O 0.48532 0.59799 0.29767 0.0
O455 O 0.5793 0.61386 0.32892 0.0
O456 O 0.57769 0.57194 0.3064 0.0
O457 O 0.53093 0.591 0.22367 0.0
O458 O 0.55841 0.57386 0.26252 0.0
C459 C 0.55224 0.65351 0.23801 0.0
C460 C 0.46702 0.65595 0.28179 0.0
C461 C 0.40843 0.60483 0.16749 0.0
C462 C 0.38368 0.59486 0.12391 0.0
C463 C 0.34387 0.57337 0.16006 0.0
C464 C 0.37318 0.58727 0.17676 0.0
C465 C 0.34883 0.57721 0.13388 0.0
C466 C 0.41369 0.60852 0.14102 0.0
C467 C 0.43842 0.62038 0.18542 0.0
C468 C 0.33033 0.52768 0.25366 0.0
C469 C 0.31078 0.55308 0.26508 0.0
H470 H 0.37497 0.48423 0.22785 0.0
C471 C 0.46814 0.57481 0.28557 0.0
C472 C 0.55425 0.57179 0.23748 0.0
C473 C 0.60722 0.56732 0.34918 0.0
C474 C 0.62712 0.56194 0.39418 0.0
C475 C 0.64372 0.52148 0.36407 0.0
C476 C 0.62486 0.53835 0.34444 0.0
C477 C 0.64498 0.53313 0.3887 0.0
C478 C 0.60853 0.5791 0.37413 0.0
C479 C 0.58771 0.58481 0.32793 0.0
H480 H 0.31664 0.56004 0.16745 0.0
H481 H 0.36765 0.58479 0.19693 0.0
H482 H 0.3245 0.56698 0.1215 0.0
H483 H 0.44086 0.62212 0.13385 0.0
H484 H 0.65758 0.49929 0.36015 0.0
H485 H 0.62444 0.52877 0.32547 0.0
H486 H 0.66048 0.51962 0.40343 0.0
H487 H 0.5944 0.60125 0.37799 0.0
C488 C 0.12256 0.94433 0.3828 0.0
C489 C 0.16199 0.92842 0.37971 0.0
C490 C 0.11108 0.96838 0.3665 0.0
C491 C 0.13954 0.97671 0.34622 0.0
C492 C 0.17973 0.96099 0.34314 0.0
C493 C 0.19036 0.9369 0.35982 0.0
C494 C 0.06766 0.98388 0.37113 0.0
C495 C 0.21164 0.96978 0.32235 0.0
C496 C 0.08732 0.01961 0.2909 0.0
C497 C 0.09331 0.04994 0.29849 0.0
C498 C 0.10324 0.99543 0.3059 0.0
C499 C 0.12721 1.00187 0.32839 0.0
C500 C 0.13584 0.03262 0.33507 0.0
C501 C 0.11817 0.05628 0.32026 0.0
C502 C 0.09152 0.96308 0.29873 0.0
C503 C 0.16117 0.04053 0.35883 0.0
H504 H 0.09994 0.93757 0.39777 0.0
H505 H 0.22106 0.92485 0.35743 0.0
H506 H 0.06438 1.00609 0.36121 0.0
H507 H 0.04086 0.96846 0.36471 0.0
H508 H 0.06275 0.98766 0.39182 0.0
H509 H 0.24201 0.95588 0.32289 0.0
H510 H 0.19591 0.96692 0.30347 0.0
H511 H 0.22081 0.99424 0.32418 0.0
H512 H 0.06734 0.01477 0.27431 0.0
H513 H 0.12263 0.0798 0.32613 0.0
H514 H 0.06874 0.95341 0.31321 0.0
H515 H 0.12127 0.94861 0.29855 0.0
H516 H 0.07543 0.96175 0.2798 0.0
H517 H 0.14105 0.03464 0.37579 0.0
H518 H 0.16974 0.06519 0.35968 0.0
H519 H 0.19184 0.02702 0.35989 0.0
C520 C 0.40969 0.58515 0.87083 0.0
C521 C 0.36709 0.59695 0.87169 0.0
C522 C 0.42054 0.56158 0.854 0.0
C523 C 0.38767 0.54897 0.83805 0.0
C524 C 0.34471 0.56124 0.83851 0.0
C525 C 0.33503 0.58538 0.85517 0.0
C526 C 0.46699 0.54966 0.85374 0.0
C527 C 0.30862 0.54808 0.82216 0.0
C528 C 0.42933 0.4996 0.78377 0.0
C529 C 0.43008 0.47078 0.7954 0.0
C530 C 0.41404 0.52526 0.79705 0.0
C531 C 0.39803 0.52174 0.82223 0.0
C532 C 0.39592 0.49222 0.83329 0.0
C533 C 0.41259 0.46719 0.81988 0.0
C534 C 0.41788 0.55635 0.78477 0.0
C535 C 0.37812 0.48727 0.85981 0.0
H536 H 0.43451 0.59431 0.88352 0.0
H537 H 0.30202 0.59446 0.85599 0.0
H538 H 0.46737 0.52572 0.86068 0.0
H539 H 0.48 0.54967 0.83402 0.0
H540 H 0.48936 0.56345 0.86587 0.0
H541 H 0.27771 0.56131 0.8236 0.0
H542 H 0.31905 0.54752 0.80194 0.0
H543 H 0.30182 0.52417 0.82807 0.0
H544 H 0.4434 0.50245 0.76494 0.0
H545 H 0.41295 0.44485 0.82882 0.0
H546 H 0.44416 0.56962 0.7944 0.0
H547 H 0.38688 0.56924 0.78697 0.0
H548 H 0.426 0.55487 0.76421 0.0
H549 H 0.40109 0.49734 0.87389 0.0
H550 H 0.37372 0.46266 0.86438 0.0
H551 H 0.34608 0.49889 0.86205 0.0
C552 C 0.65327 0.55283 0.63452 0.0
C553 C 0.65188 0.58395 0.64112 0.0
C554 C 0.6367 0.52999 0.65078 0.0
C555 C 0.62041 0.53798 0.67507 0.0
C556 C 0.62213 0.56889 0.68281 0.0
C557 C 0.6367 0.59152 0.66561 0.0
C558 C 0.63435 0.49761 0.64106 0.0
C559 C 0.60751 0.5782 0.70911 0.0
C560 C 0.53357 0.48833 0.70741 0.0
C561 C 0.559 0.46891 0.72272 0.0
C562 C 0.5532 0.51029 0.69144 0.0
C563 C 0.59937 0.51433 0.69176 0.0
C564 C 0.62523 0.49529 0.70753 0.0
C565 C 0.60484 0.47233 0.72222 0.0
C566 C 0.52453 0.52862 0.67371 0.0
C567 C 0.67443 0.49925 0.70899 0.0
H568 H 0.66648 0.54605 0.6163 0.0
H569 H 0.6348 0.61517 0.6713 0.0
H570 H 0.64096 0.48065 0.65626 0.0
H571 H 0.60075 0.49323 0.63376 0.0
H572 H 0.65783 0.49379 0.62522 0.0
H573 H 0.61671 0.60218 0.7135 0.0
H574 H 0.57133 0.57589 0.7107 0.0
H575 H 0.62226 0.56298 0.72368 0.0
H576 H 0.49814 0.48588 0.70734 0.0
H577 H 0.62503 0.45694 0.73315 0.0
H578 H 0.53619 0.52601 0.65382 0.0
H579 H 0.52673 0.5532 0.67849 0.0
H580 H 0.48952 0.52142 0.67465 0.0
H581 H 0.68914 0.5 0.68969 0.0
H582 H 0.69029 0.48061 0.71994 0.0
H583 H 0.68214 0.52132 0.71834 0.0
C584 C 0.8657 0.96408 0.14183 0.0
C585 C 0.86152 0.93322 0.14911 0.0
C586 C 0.8833 0.98609 0.15834 0.0
C587 C 0.8937 0.9779 0.18368 0.0
C588 C 0.8857 0.94762 0.19205 0.0
C589 C 0.87114 0.9255 0.17455 0.0
C590 C 0.89211 0.01792 0.14826 0.0
C591 C 0.8936 0.93824 0.21932 0.0
C592 C 0.98253 0.02298 0.21822 0.0
C593 C 0.9584 0.04649 0.22956 0.0
C594 C 0.96197 1.00076 0.20309 0.0
C595 C 0.91562 1.00057 0.20071 0.0
C596 C 0.8908 0.02319 0.21331 0.0
C597 C 0.91261 0.04647 0.22675 0.0
C598 C 0.99014 0.97809 0.18905 0.0
C599 C 0.84123 0.02254 0.21302 0.0
H600 H 0.85627 0.97124 0.12289 0.0
H601 H 0.86862 0.90205 0.1809 0.0
H602 H 0.86918 0.03428 0.15716 0.0
H603 H 0.92595 0.02534 0.15314 0.0
H604 H 0.88807 0.01939 0.12729 0.0
H605 H 0.87515 0.91709 0.22431 0.0
H606 H 0.92903 0.93373 0.22219 0.0
H607 H 0.88386 0.9566 0.23266 0.0
H608 H 0.01791 0.02251 0.22041 0.0
H609 H 0.89373 0.06492 0.2347 0.0
H610 H 0.98013 0.97673 0.16877 0.0
H611 H 0.98578 0.95507 0.19752 0.0
H612 H 0.02558 0.98419 0.18986 0.0
H613 H 0.82855 0.02092 0.19332 0.0
H614 H 0.82684 0.043 0.22215 0.0
H615 H 0.82953 1.00193 0.2234 0.0
C616 C 0.80134 0.06095 0.66354 0.0
C617 C 0.82889 0.07875 0.6479 0.0
C618 C 0.81864 0.03914 0.68042 0.0
C619 C 0.86463 0.03485 0.68168 0.0
C620 C 0.89268 0.05331 0.66647 0.0
C621 C 0.8745 0.075 0.6498 0.0
C622 C 0.78758 0.01991 0.69624 0.0
C623 C 0.9419 0.04963 0.66734 0.0
C624 C 0.91674 0.99072 0.73659 0.0
C625 C 0.92412 0.96227 0.7253 0.0
C626 C 0.89653 0.01446 0.72286 0.0
C627 C 0.8833 0.00952 0.69732 0.0
C628 C 0.88928 0.98042 0.68626 0.0
C629 C 0.90954 0.95721 0.70036 0.0
C630 C 0.89064 0.0451 0.73538 0.0
C631 C 0.87553 0.97402 0.65918 0.0
H632 H 0.76604 0.06333 0.66201 0.0
H633 H 0.89607 0.08892 0.63807 0.0
H634 H 0.78913 0.9958 0.68993 0.0
H635 H 0.79746 0.02042 0.71654 0.0
H636 H 0.75306 0.02775 0.69468 0.0
H637 H 0.95925 0.06622 0.65478 0.0
H638 H 0.95382 0.05274 0.6871 0.0
H639 H 0.95084 0.02619 0.6614 0.0
H640 H 0.92821 0.99477 0.75581 0.0
H641 H 0.91488 0.93516 0.69162 0.0
H642 H 0.85608 0.05267 0.73356 0.0
H643 H 0.9115 0.06239 0.72563 0.0
H644 H 0.89958 0.04461 0.75586 0.0
H645 H 0.84036 0.97962 0.65651 0.0
H646 H 0.88062 0.94979 0.65381 0.0
H647 H 0.89471 0.98871 0.64595 0.0
C648 C 0.62324 0.42708 0.15537 0.0
C649 C 0.66867 0.42575 0.15114 0.0
C650 C 0.60512 0.44932 0.1714 0.0
C651 C 0.63306 0.47097 0.18324 0.0
C652 C 0.67906 0.46909 0.17971 0.0
C653 C 0.69631 0.44645 0.16378 0.0
C654 C 0.55594 0.45033 0.17492 0.0
C655 C 0.70994 0.49192 0.19176 0.0
C656 C 0.58354 0.54833 0.19774 0.0
C657 C 0.57634 0.54647 0.22406 0.0
C658 C 0.60244 0.52408 0.18437 0.0
C659 C 0.61398 0.49705 0.19755 0.0
C660 C 0.60705 0.49504 0.22416 0.0
C661 C 0.58858 0.51988 0.23714 0.0
C662 C 0.60978 0.52733 0.15606 0.0
C663 C 0.61844 0.46648 0.23881 0.0
H664 H 0.60179 0.41098 0.14578 0.0
H665 H 0.73138 0.44584 0.16032 0.0
H666 H 0.5476 0.45118 0.19546 0.0
H667 H 0.54278 0.47135 0.16599 0.0
H668 H 0.53917 0.43028 0.16632 0.0
H669 H 0.74496 0.48594 0.18876 0.0
H670 H 0.70411 0.51489 0.18351 0.0
H671 H 0.70365 0.49347 0.2125 0.0
H672 H 0.57439 0.56885 0.1875 0.0
H673 H 0.58275 0.51817 0.25745 0.0
H674 H 0.59052 0.50972 0.14577 0.0
H675 H 0.64491 0.52361 0.15147 0.0
H676 H 0.60013 0.55017 0.14879 0.0
H677 H 0.59918 0.44688 0.23135 0.0
H678 H 0.61167 0.46872 0.25949 0.0
H679 H 0.65366 0.46101 0.23619 0.0
C680 C 0.39165 0.43832 0.37644 0.0
C681 C 0.34579 0.43553 0.37848 0.0
C682 C 0.41114 0.45954 0.35976 0.0
C683 C 0.38425 0.47818 0.34427 0.0
C684 C 0.33805 0.47427 0.34507 0.0
C685 C 0.31935 0.45315 0.36226 0.0
C686 C 0.46053 0.46293 0.35952 0.0
C687 C 0.3083 0.49331 0.32851 0.0
C688 C 0.431 0.55567 0.32503 0.0
C689 C 0.44617 0.55012 0.3003 0.0
C690 C 0.41043 0.53254 0.33938 0.0
C691 C 0.40447 0.50316 0.32869 0.0
C692 C 0.41944 0.4975 0.30364 0.0
C693 C 0.4406 0.52093 0.2899 0.0
C694 C 0.39557 0.53949 0.36615 0.0
C695 C 0.41312 0.46671 0.29133 0.0
H696 H 0.41247 0.42438 0.38843 0.0
H697 H 0.28394 0.45144 0.36374 0.0
H698 H 0.47326 0.46075 0.33984 0.0
H699 H 0.46983 0.486 0.36638 0.0
H700 H 0.47691 0.44567 0.37174 0.0
H701 H 0.27355 0.48556 0.32956 0.0
H702 H 0.31003 0.51752 0.33456 0.0
H703 H 0.31928 0.49245 0.30839 0.0
H704 H 0.4352 0.57817 0.33324 0.0
H705 H 0.45322 0.51628 0.27106 0.0
H706 H 0.41264 0.52427 0.37981 0.0
H707 H 0.35984 0.53498 0.36807 0.0
H708 H 0.40224 0.56356 0.37158 0.0
H709 H 0.42737 0.44851 0.30344 0.0
H710 H 0.42841 0.4656 0.27216 0.0
H711 H 0.37751 0.46174 0.28943 0.0
C712 C 0.14397 0.04518 0.88724 0.0
C713 C 0.16365 0.07238 0.87842 0.0
C714 C 0.12406 0.02442 0.87053 0.0
C715 C 0.12539 0.03005 0.84403 0.0
C716 C 0.14668 0.05668 0.83474 0.0
C717 C 0.16498 0.07775 0.85202 0.0
C718 C 0.10117 0.99654 0.88135 0.0
C719 C 0.14991 0.06298 0.80654 0.0
C720 C 0.10367 0.9592 0.80425 0.0
C721 C 0.05962 0.96306 0.79733 0.0
C722 C 0.12627 0.98164 0.81818 0.0
C723 C 0.10373 0.00806 0.82634 0.0
C724 C 0.0592 0.01208 0.81938 0.0
C725 C 0.03796 0.98981 0.8046 0.0
C726 C 0.17408 0.97687 0.82451 0.0
C727 C 0.03352 0.03943 0.82826 0.0
H728 H 0.14411 0.03984 0.90737 0.0
H729 H 0.17983 0.09858 0.84481 0.0
H730 H 0.06666 0.99564 0.87464 0.0
H731 H 0.11753 0.97554 0.87455 0.0
H732 H 0.10111 0.99628 0.90249 0.0
H733 H 0.17048 0.08339 0.80227 0.0
H734 H 0.16405 0.04299 0.79661 0.0
H735 H 0.11666 0.06668 0.79856 0.0
H736 H 0.12036 0.93834 0.79918 0.0
H737 H 0.004 0.99311 0.79913 0.0
H738 H 0.17877 0.97643 0.84542 0.0
H739 H 0.1939 0.99619 0.81691 0.0
H740 H 0.18697 0.95528 0.81649 0.0
H741 H 0.04919 0.06073 0.82117 0.0
H742 H 0.03374 0.04043 0.84936 0.0
H743 H 0.99888 0.03883 0.82167 0.0
C744 C 0.16123 0.08404 0.97829 0.0
C745 C 0.16783 0.11285 0.96715 0.0
C746 C 0.1464 0.08107 1.00347 0.0
C747 C 0.1372 0.10755 0.01785 0.0
C748 C 0.14378 0.13676 1.0067 0.0
C749 C 0.15951 0.13906 0.98154 0.0
C750 C 0.14063 0.0495 0.01468 0.0
C751 C 0.1336 0.16551 0.02122 0.0
C752 C 0.05896 0.09404 0.07328 0.0
C753 C 0.08792 0.09221 0.09395 0.0
C754 C 0.07438 0.10037 0.0486 0.0
C755 C 0.12 0.10436 0.04436 0.0
C756 C 0.14931 0.10314 0.06528 0.0
C757 C 0.13286 0.09737 0.08987 0.0
C758 C 0.0419 0.10203 0.02696 0.0
C759 C 0.19822 0.10672 0.06155 0.0
H760 H 0.16829 0.06373 0.96734 0.0
H761 H 0.16453 0.16134 0.97294 0.0
H762 H 0.16028 0.04735 0.03236 0.0
H763 H 0.10574 0.04565 0.01991 0.0
H764 H 0.15077 0.03128 1.00129 0.0
H765 H 0.14057 0.18645 1.0099 0.0
H766 H 0.09846 0.16551 0.02684 0.0
H767 H 0.1532 0.16635 0.03898 0.0
H768 H 0.02413 0.09042 0.07644 0.0
H769 H 0.15533 0.09579 0.1058 0.0
H770 H 0.04733 0.08275 0.01372 0.0
H771 H 0.04684 0.12344 0.01596 0.0
H772 H 0.00734 0.10105 0.03372 0.0
H773 H 0.21064 0.08767 0.04974 0.0
H774 H 0.21636 0.10681 0.07988 0.0
H775 H 0.20565 0.12824 0.0512 0.0
C776 C 0.38917 0.40121 0.47453 0.0
C777 C 0.34385 0.40349 0.47022 0.0
C778 C 0.4067 0.40417 0.49915 0.0
C779 C 0.37827 0.40974 0.51997 0.0
C780 C 0.33251 0.412 0.51574 0.0
C781 C 0.31588 0.40883 0.49097 0.0
C782 C 0.45566 0.40144 0.50289 0.0
C783 C 0.30111 0.41818 0.53734 0.0
C784 C 0.41816 0.39256 0.58718 0.0
C785 C 0.43167 0.42152 0.5955 0.0
C786 C 0.40077 0.38837 0.56265 0.0
C787 C 0.39643 0.41378 0.54611 0.0
C788 C 0.40936 0.44315 0.55458 0.0
C789 C 0.42694 0.44663 0.57911 0.0
C790 C 0.38765 0.35667 0.5543 0.0
C791 C 0.40481 0.47089 0.53767 0.0
H792 H 0.41092 0.39687 0.45863 0.0
H793 H 0.2809 0.41113 0.48775 0.0
H794 H 0.46903 0.42298 0.51086 0.0
H795 H 0.4628 0.38302 0.5168 0.0
H796 H 0.47318 0.39643 0.48485 0.0
H797 H 0.26637 0.41879 0.53094 0.0
H798 H 0.30436 0.40033 0.55223 0.0
H799 H 0.30934 0.44038 0.5463 0.0
H800 H 0.42226 0.37301 0.59963 0.0
H801 H 0.43691 0.46911 0.58553 0.0
H802 H 0.40702 0.35006 0.53732 0.0
H803 H 0.35253 0.35629 0.54871 0.0
H804 H 0.3928 0.33935 0.56947 0.0
H805 H 0.4245 0.46789 0.5201 0.0
H806 H 0.41577 0.49218 0.54724 0.0
H807 H 0.37007 0.47359 0.53178 0.0
C808 C 0.70234 0.39301 0.04133 0.0
C809 C 0.6724 0.38833 0.06129 0.0
C810 C 0.68804 0.39685 0.01618 0.0
C811 C 0.64254 0.3961 1.01069 0.0
C812 C 0.61206 0.39074 0.03062 0.0
C813 C 0.62734 0.38702 0.05572 0.0
C814 C 0.72171 0.40273 0.99558 0.0
C815 C 0.56333 0.3896 0.0255 0.0
C816 C 0.61442 0.44073 0.95108 0.0
C817 C 0.61449 0.41784 0.93247 0.0
C818 C 0.6209 0.43373 0.97685 0.0
C819 C 0.62737 0.40301 0.98432 0.0
C820 C 0.62438 0.37955 0.96589 0.0
C821 C 0.61801 0.38725 0.94014 0.0
C822 C 0.62362 0.45947 0.99584 0.0
C823 C 0.63064 0.3465 0.97311 0.0
H824 H 0.73714 0.39468 0.04547 0.0
H825 H 0.60402 0.38321 0.07101 0.0
H826 H 0.71751 0.38606 0.97992 0.0
H827 H 0.71686 0.42584 0.98738 0.0
H828 H 0.75591 0.40118 1.00278 0.0
H829 H 0.54418 0.38296 0.04267 0.0
H830 H 0.55199 0.41232 0.01896 0.0
H831 H 0.55606 0.37313 1.01006 0.0
H832 H 0.61081 0.46438 0.94533 0.0
H833 H 0.61818 0.36945 0.92587 0.0
H834 H 0.65789 0.46176 1.00277 0.0
H835 H 0.60257 0.4545 1.01259 0.0
H836 H 0.61349 0.48166 0.98747 0.0
H837 H 0.66567 0.34255 0.97781 0.0
H838 H 0.62113 0.33083 0.95746 0.0
H839 H 0.61105 0.34067 0.99027 0.0
C840 C 0.79112 0.12143 0.53804 0.0
C841 C 0.82209 0.11902 0.55777 0.0
C842 C 0.80385 0.12138 0.51239 0.0
C843 C 0.84865 0.1178 0.50596 0.0
C844 C 0.88014 0.11464 0.52562 0.0
C845 C 0.86658 0.11558 0.55127 0.0
C846 C 0.7691 0.12511 0.49212 0.0
C847 C 0.92808 0.11009 0.51954 0.0
C848 C 0.86279 0.08944 0.43826 0.0
C849 C 0.8715 0.11666 0.42508 0.0
C850 C 0.85849 0.08913 0.46488 0.0
C851 C 0.86174 0.11687 0.47856 0.0
C852 C 0.87237 0.14423 0.46535 0.0
C853 C 0.87753 0.14373 0.43874 0.0
C854 C 0.84821 0.05934 0.47819 0.0
C855 C 0.87535 0.17437 0.47906 0.0
H856 H 0.75651 0.12305 0.54256 0.0
H857 H 0.89094 0.11386 0.56621 0.0
H858 H 0.77777 0.14446 0.47936 0.0
H859 H 0.76738 0.10427 0.48023 0.0
H860 H 0.73604 0.1293 0.50029 0.0
H861 H 0.94838 0.1074 0.53695 0.0
H862 H 0.93209 0.08952 0.50752 0.0
H863 H 0.94083 0.12984 0.50846 0.0
H864 H 0.85819 0.06851 0.42761 0.0
H865 H 0.88391 0.16479 0.42845 0.0
H866 H 0.81361 0.05938 0.48481 0.0
H867 H 0.86935 0.05652 0.49521 0.0
H868 H 0.85285 0.0394 0.46549 0.0
H869 H 0.84223 0.18093 0.48587 0.0
H870 H 0.88823 0.19291 0.4666 0.0
H871 H 0.89682 0.17242 0.49601 0.0
C872 C 0.88663 0.87528 0.04397 0.0
C873 C 0.86409 0.89728 0.05818 0.0
C874 C 0.89884 0.88087 0.01856 0.0
C875 C 0.88804 0.90908 1.00695 0.0
C876 C 0.86485 0.93124 0.02111 0.0
C877 C 0.85331 0.92512 0.04653 0.0
C878 C 0.92386 0.85675 1.00422 0.0
C879 C 0.85235 0.96149 1.00942 0.0
C880 C 0.95414 0.93716 0.94982 0.0
C881 C 0.92648 0.92957 0.92943 0.0
C882 C 0.94228 0.93031 0.97506 0.0
C883 C 0.90159 0.91567 0.98015 0.0
C884 C 0.87362 0.90778 0.95964 0.0
C885 C 0.88646 0.91472 0.93455 0.0
C886 C 0.97327 0.93885 0.99633 0.0
C887 C 0.82982 0.8924 0.96423 0.0
H888 H 0.89557 0.85387 0.05293 0.0
H889 H 0.83551 0.9421 0.0573 0.0
H890 H 0.90581 0.85034 0.9867 0.0
H891 H 0.95629 0.86595 0.99824 0.0
H892 H 0.92916 0.83585 0.01582 0.0
H893 H 0.83348 0.97599 0.02278 0.0
H894 H 0.88234 0.97413 1.00347 0.0
H895 H 0.83227 0.95769 0.9921 0.0
H896 H 0.98536 0.94828 0.946 0.0
H897 H 0.86468 0.90908 0.91893 0.0
H898 H 0.98177 0.91828 1.00761 0.0
H899 H 0.95702 0.95508 1.00942 0.0
H900 H 0.00409 0.94952 0.98917 0.0
H901 H 0.83451 0.87072 0.97482 0.0
H902 H 0.81215 0.88737 0.94623 0.0
H903 H 0.80882 0.90723 0.97616 0.0
C904 C 0.61812 0.62185 0.53926 0.0
C905 C 0.65981 0.61852 0.55005 0.0
C906 C 0.61069 0.61476 0.51354 0.0
C907 C 0.64581 0.60388 0.49843 0.0
C908 C 0.68817 0.60093 0.50931 0.0
C909 C 0.69467 0.60836 0.53503 0.0
C910 C 0.56515 0.61838 0.50268 0.0
C911 C 0.72641 0.58923 0.49396 0.0
C912 C 0.62094 0.55366 0.44135 0.0
C913 C 0.62845 0.57364 0.42082 0.0
C914 C 0.62578 0.56336 0.46662 0.0
C915 C 0.63789 0.59398 0.47166 0.0
C916 C 0.64389 0.61463 0.45112 0.0
C917 C 0.63923 0.60421 0.42594 0.0
C918 C 0.61899 0.54057 0.48792 0.0
C919 C 0.65636 0.64754 0.45571 0.0
H920 H 0.59129 0.62977 0.55104 0.0
H921 H 0.72686 0.60583 0.54356 0.0
H922 H 0.56633 0.63287 0.48533 0.0
H923 H 0.55196 0.59577 0.49696 0.0
H924 H 0.54207 0.62875 0.51651 0.0
H925 H 0.75753 0.58931 0.50497 0.0
H926 H 0.71948 0.56555 0.48761 0.0
H927 H 0.73103 0.60341 0.47662 0.0
H928 H 0.61163 0.53017 0.43766 0.0
H929 H 0.64538 0.6198 0.41027 0.0
H930 H 0.59379 0.54898 0.50139 0.0
H931 H 0.64996 0.53786 0.49878 0.0
H932 H 0.60852 0.5178 0.48083 0.0
H933 H 0.63294 0.65812 0.46919 0.0
H934 H 0.65687 0.66119 0.43786 0.0
H935 H 0.68939 0.64873 0.46456 0.0
C936 C 0.32771 0.63468 0.98069 0.0
C937 C 0.3609 0.62908 0.96286 0.0
C938 C 0.33424 0.62877 1.00669 0.0
C939 C 0.37531 0.61759 0.01516 0.0
C940 C 0.40914 0.61222 0.99723 0.0
C941 C 0.40136 0.61773 0.97125 0.0
C942 C 0.29701 0.63423 0.02508 0.0
C943 C 0.45361 0.60088 1.00552 0.0
C944 C 0.39806 0.62863 0.0858 0.0
C945 C 0.38682 0.59986 0.09582 0.0
C946 C 0.39628 0.63438 0.05946 0.0
C947 C 0.38228 0.61098 0.04274 0.0
C948 C 0.37247 0.58162 0.0526 0.0
C949 C 0.37535 0.57635 0.07891 0.0
C950 C 0.40785 0.66583 0.04964 0.0
C951 C 0.35715 0.55607 0.0355 0.0
H952 H 0.29635 0.6433 0.97419 0.0
H953 H 0.42723 0.61373 0.95749 0.0
H954 H 0.2888 0.61274 0.03532 0.0
H955 H 0.30711 0.65122 0.03957 0.0
H956 H 0.26697 0.64263 0.0154 0.0
H957 H 0.47673 0.59854 0.98929 0.0
H958 H 0.46813 0.61687 0.01957 0.0
H959 H 0.45019 0.57838 0.01508 0.0
H960 H 0.40664 0.64706 0.09859 0.0
H961 H 0.36764 0.55383 0.08631 0.0
H962 H 0.3779 0.67709 0.04226 0.0
H963 H 0.43146 0.66424 0.03362 0.0
H964 H 0.42238 0.68052 0.06466 0.0
H965 H 0.32549 0.56235 0.02651 0.0
H966 H 0.35253 0.53423 0.046 0.0
H967 H 0.38116 0.55241 0.01995 0.0
C968 C 0.1622 0.90535 0.48176 0.0
C969 C 0.15458 0.87961 0.46649 0.0
C970 C 0.14795 0.9061 0.50726 0.0
C971 C 0.12602 0.88039 0.51782 0.0
C972 C 0.11846 0.85436 0.50255 0.0
C973 C 0.13229 0.85444 0.47711 0.0
C974 C 0.15605 0.93443 0.52285 0.0
C975 C 0.09536 0.82638 0.51302 0.0
C976 C 0.11898 0.86534 0.58903 0.0
C977 C 0.07481 0.87195 0.59396 0.0
C978 C 0.13678 0.86929 0.56453 0.0
C979 C 0.10991 0.88053 0.54463 0.0
C980 C 0.06597 0.88883 0.54992 0.0
C981 C 0.04886 0.88419 0.57445 0.0
C982 C 0.1836 0.85981 0.55965 0.0
C983 C 0.0364 0.90138 0.5294 0.0
H984 H 0.17953 0.92486 0.47385 0.0
H985 H 0.12494 0.83476 0.46541 0.0
H986 H 0.12434 0.94365 0.52973 0.0
H987 H 0.1759 0.92873 0.53988 0.0
H988 H 0.1734 0.95254 0.51185 0.0
H989 H 0.09374 0.80752 0.49898 0.0
H990 H 0.1126 0.81803 0.53026 0.0
H991 H 0.0614 0.83227 0.51876 0.0
H992 H 0.13905 0.85576 0.60406 0.0
H993 H 0.01485 0.88972 0.57833 0.0
H994 H 0.20175 0.87817 0.54946 0.0
H995 H 0.1838 0.83935 0.54726 0.0
H996 H 0.20136 0.85431 0.57752 0.0
H997 H 0.05312 0.92023 0.519 0.0
H998 H 0.00493 0.90998 0.5372 0.0
H999 H 0.02892 0.88322 0.51537 0.0
C1000 C 0.11344 0.30609 0.36815 0.0
C1001 C 0.15737 0.30916 0.37605 0.0
C1002 C 0.09931 0.28107 0.35369 0.0
C1003 C 0.13012 0.25907 0.34568 0.0
C1004 C 0.17504 0.26298 0.35199 0.0
C1005 C 0.18807 0.28771 0.36741 0.0
C1006 C 0.05106 0.27784 0.34748 0.0
C1007 C 0.20917 0.24073 0.34284 0.0
C1008 C 0.08484 0.17997 0.3302 0.0
C1009 C 0.07801 0.18208 0.30385 0.0
C1010 C 0.10253 0.20463 0.34398 0.0
C1011 C 0.1147 0.23187 0.33105 0.0
C1012 C 0.10856 0.23392 0.30442 0.0
C1013 C 0.08954 0.2093 0.29133 0.0
C1014 C 0.10691 0.20188 0.3725 0.0
C1015 C 0.12215 0.26209 0.28967 0.0
H1016 H 0.08956 0.32303 0.37372 0.0
H1017 H 0.22205 0.28962 0.37329 0.0
H1018 H 0.04625 0.27806 0.32657 0.0
H1019 H 0.03843 0.25562 0.35471 0.0
H1020 H 0.03108 0.2964 0.35588 0.0
H1021 H 0.24308 0.24835 0.34745 0.0
H1022 H 0.20341 0.21807 0.35175 0.0
H1023 H 0.20647 0.2377 0.32194 0.0
H1024 H 0.07576 0.15919 0.34019 0.0
H1025 H 0.08306 0.21167 0.27127 0.0
H1026 H 0.08634 0.21943 0.38185 0.0
H1027 H 0.14139 0.20618 0.3783 0.0
H1028 H 0.09671 0.17903 0.37966 0.0
H1029 H 0.11029 0.26158 0.2697 0.0
H1030 H 0.15852 0.26377 0.28945 0.0
H1031 H 0.10958 0.28305 0.29883 0.0
C1032 C 0.36087 0.23679 0.88588 0.0
C1033 C 0.34299 0.21126 0.87357 0.0
C1034 C 0.37662 0.26203 0.87202 0.0
C1035 C 0.37512 0.26162 0.8451 0.0
C1036 C 0.35529 0.23642 0.83257 0.0
C1037 C 0.33919 0.21155 0.847 0.0
C1038 C 0.39674 0.28856 0.88622 0.0
C1039 C 0.35307 0.2351 0.80392 0.0
C1040 C 0.3961 0.3372 0.81084 0.0
C1041 C 0.44119 0.33549 0.80547 0.0
C1042 C 0.37384 0.31308 0.82311 0.0
C1043 C 0.3972 0.28656 0.83027 0.0
C1044 C 0.44264 0.28458 0.82461 0.0
C1045 C 0.4641 0.3091 0.81241 0.0
C1046 C 0.32549 0.31622 0.82875 0.0
C1047 C 0.46876 0.25662 0.83165 0.0
H1048 H 0.36378 0.23656 0.90644 0.0
H1049 H 0.32574 0.19169 0.83748 0.0
H1050 H 0.43248 0.28976 0.88221 0.0
H1051 H 0.38216 0.31036 0.87966 0.0
H1052 H 0.39202 0.28655 0.90712 0.0
H1053 H 0.33472 0.21473 0.7971 0.0
H1054 H 0.33704 0.25588 0.79632 0.0
H1055 H 0.38679 0.23453 0.79593 0.0
H1056 H 0.37817 0.35758 0.80562 0.0
H1057 H 0.49879 0.30744 0.80804 0.0
H1058 H 0.32 0.31544 0.84962 0.0
H1059 H 0.30696 0.29687 0.82036 0.0
H1060 H 0.3118 0.33788 0.82118 0.0
H1061 H 0.46913 0.25378 0.85264 0.0
H1062 H 0.50322 0.25798 0.82477 0.0
H1063 H 0.45307 0.23592 0.82354 0.0
C1064 C 0.61193 0.20785 0.67773 0.0
C1065 C 0.65262 0.20782 0.66513 0.0
C1066 C 0.59943 0.23225 0.69326 0.0
C1067 C 0.6287 0.25708 0.69683 0.0
C1068 C 0.67121 0.25609 0.68587 0.0
C1069 C 0.68261 0.23153 0.67001 0.0
C1070 C 0.55374 0.23235 0.70449 0.0
C1071 C 0.70373 0.28177 0.68972 0.0
C1072 C 0.57265 0.33313 0.70741 0.0
C1073 C 0.57275 0.33546 0.73403 0.0
C1074 C 0.59202 0.30824 0.6951 0.0
C1075 C 0.61277 0.28523 0.70968 0.0
C1076 C 0.61473 0.28807 0.73648 0.0
C1077 C 0.59421 0.31293 0.74837 0.0
C1078 C 0.5886 0.30596 0.66649 0.0
C1079 C 0.63717 0.26433 0.75269 0.0
H1080 H 0.58896 0.18925 0.67457 0.0
H1081 H 0.71409 0.23177 0.66037 0.0
H1082 H 0.55513 0.23682 0.72522 0.0
H1083 H 0.53435 0.25098 0.69569 0.0
H1084 H 0.53609 0.21042 0.70137 0.0
H1085 H 0.73725 0.27551 0.68332 0.0
H1086 H 0.69305 0.3021 0.67876 0.0
H1087 H 0.70511 0.28839 0.71007 0.0
H1088 H 0.55628 0.35035 0.69607 0.0
H1089 H 0.59414 0.31424 0.76895 0.0
H1090 H 0.56886 0.28552 0.66135 0.0
H1091 H 0.62166 0.30314 0.65799 0.0
H1092 H 0.57301 0.32638 0.65785 0.0
H1093 H 0.6174 0.24298 0.75274 0.0
H1094 H 0.64134 0.27198 0.77267 0.0
H1095 H 0.6699 0.25878 0.74471 0.0
C1096 C 0.82758 0.27996 0.1707 0.0
C1097 C 0.85463 0.30534 0.16579 0.0
C1098 C 0.84167 0.25625 0.18682 0.0
C1099 C 0.88382 0.25796 0.19816 0.0
C1100 C 0.90988 0.2845 0.19464 0.0
C1101 C 0.89488 0.30788 0.17863 0.0
C1102 C 0.81265 0.22852 0.19036 0.0
C1103 C 0.95497 0.28734 0.20638 0.0
C1104 C 0.92194 0.20239 0.24946 0.0
C1105 C 0.94644 0.18154 0.2351 0.0
C1106 C 0.9 0.22684 0.23768 0.0
C1107 C 0.90312 0.23075 0.21097 0.0
C1108 C 0.92714 0.20948 0.19638 0.0
C1109 C 0.9482 0.18512 0.20857 0.0
C1110 C 0.87427 0.24882 0.25384 0.0
C1111 C 0.93165 0.21289 0.16788 0.0
H1112 H 0.7965 0.27778 0.16082 0.0
H1113 H 0.91556 0.32774 0.17532 0.0
H1114 H 0.8264 0.20913 0.17948 0.0
H1115 H 0.81155 0.22159 0.21068 0.0
H1116 H 0.77861 0.23261 0.18364 0.0
H1117 H 0.96925 0.31054 0.20384 0.0
H1118 H 0.95363 0.28201 0.22701 0.0
H1119 H 0.97737 0.2706 0.19744 0.0
H1120 H 0.92015 0.19981 0.26995 0.0
H1121 H 0.96679 0.16917 0.19719 0.0
H1122 H 0.84067 0.25165 0.24607 0.0
H1123 H 0.89037 0.2716 0.25342 0.0
H1124 H 0.87174 0.24112 0.27395 0.0
H1125 H 0.89873 0.21378 0.1589 0.0
H1126 H 0.95035 0.19387 0.15921 0.0
H1127 H 0.94876 0.23466 0.16331 0.0
C1128 C 0.80857 0.74187 0.6514 0.0
C1129 C 0.76431 0.74715 0.65722 0.0
C1130 C 0.84233 0.75774 0.66422 0.0
C1131 C 0.83149 0.7793 0.68327 0.0
C1132 C 0.78687 0.78361 0.68986 0.0
C1133 C 0.75402 0.76735 0.67694 0.0
C1134 C 0.88948 0.75235 0.65673 0.0
C1135 C 0.77348 0.80549 0.71051 0.0
C1136 C 0.91571 0.80923 0.73085 0.0
C1137 C 0.92539 0.83824 0.7209 0.0
C1138 C 0.88616 0.78941 0.71853 0.0
C1139 C 0.86624 0.79863 0.69542 0.0
C1140 C 0.87724 0.82747 0.68479 0.0
C1141 C 0.90656 0.84691 0.69766 0.0
C1142 C 0.87527 0.75905 0.73069 0.0
C1143 C 0.85666 0.83834 0.66029 0.0
H1144 H 0.81669 0.72642 0.63606 0.0
H1145 H 0.71986 0.77111 0.68179 0.0
H1146 H 0.90348 0.77344 0.64813 0.0
H1147 H 0.9094 0.74693 0.6738 0.0
H1148 H 0.89272 0.73343 0.64284 0.0
H1149 H 0.73779 0.81056 0.70999 0.0
H1150 H 0.78099 0.79495 0.72916 0.0
H1151 H 0.79197 0.82733 0.70913 0.0
H1152 H 0.93108 0.80202 0.74841 0.0
H1153 H 0.91398 0.86925 0.68977 0.0
H1154 H 0.87627 0.74049 0.7164 0.0
H1155 H 0.84144 0.75976 0.7385 0.0
H1156 H 0.89813 0.75338 0.74645 0.0
H1157 H 0.8612 0.8211 0.64513 0.0
H1158 H 0.87081 0.86042 0.65367 0.0
H1159 H 0.8208 0.84122 0.66311 0.0
C1160 C 0.72271 0.78017 0.18659 0.0
C1161 C 0.72538 0.77795 0.16007 0.0
C1162 C 0.69035 0.76386 0.20028 0.0
C1163 C 0.66025 0.74485 0.18704 0.0
C1164 C 0.66093 0.74451 0.16009 0.0
C1165 C 0.69363 0.76092 0.14696 0.0
C1166 C 0.69112 0.76499 0.22895 0.0
C1167 C 0.62944 0.72479 0.14514 0.0
C1168 C 0.62244 0.67054 0.21779 0.0
C1169 C 0.5793 0.67719 0.22508 0.0
C1170 C 0.64927 0.6926 0.20605 0.0
C1171 C 0.63247 0.72211 0.2011 0.0
C1172 C 0.58887 0.72905 0.20845 0.0
C1173 C 0.56271 0.70646 0.2203 0.0
C1174 C 0.69563 0.68417 0.1988 0.0
C1175 C 0.56995 0.7603 0.20377 0.0
H1176 H 0.74772 0.79293 0.19675 0.0
H1177 H 0.69608 0.75897 0.12645 0.0
H1178 H 0.65761 0.76308 0.23712 0.0
H1179 H 0.71064 0.74552 0.23617 0.0
H1180 H 0.7067 0.78639 0.23587 0.0
H1181 H 0.63049 0.73003 0.12445 0.0
H1182 H 0.63802 0.70042 0.14789 0.0
H1183 H 0.59534 0.72785 0.15207 0.0
H1184 H 0.63517 0.64783 0.22098 0.0
H1185 H 0.52945 0.71178 0.22606 0.0
H1186 H 0.71925 0.69932 0.20879 0.0
H1187 H 0.70063 0.68751 0.17806 0.0
H1188 H 0.70347 0.66011 0.20366 0.0
H1189 H 0.59091 0.77791 0.21293 0.0
H1190 H 0.53596 0.76237 0.21123 0.0
H1191 H 0.56966 0.76529 0.18306 0.0
C1192 C 0.26544 0.75163 0.32912 0.0
C1193 C 0.27295 0.76993 0.3505 0.0
C1194 C 0.29997 0.73674 0.3168 0.0
C1195 C 0.34341 0.74035 0.32595 0.0
C1196 C 0.35171 0.76084 0.34623 0.0
C1197 C 0.31629 0.77535 0.35837 0.0
C1198 C 0.28885 0.71508 0.2955 0.0
C1199 C 0.39767 0.76604 0.35606 0.0
C1200 C 0.41671 0.67135 0.31686 0.0
C1201 C 0.43894 0.67887 0.29434 0.0
C1202 C 0.3864 0.69154 0.32768 0.0
C1203 C 0.37891 0.72027 0.31603 0.0
C1204 C 0.40281 0.7285 0.29389 0.0
C1205 C 0.43221 0.70753 0.28312 0.0
C1206 C 0.36091 0.68149 0.35093 0.0
C1207 C 0.396 0.75894 0.28102 0.0
H1208 H 0.23204 0.74776 0.32269 0.0
H1209 H 0.32232 0.78951 0.37489 0.0
H1210 H 0.31511 0.71433 0.2809 0.0
H1211 H 0.2847 0.69186 0.30367 0.0
H1212 H 0.25755 0.72137 0.28604 0.0
H1213 H 0.39947 0.78576 0.36925 0.0
H1214 H 0.40888 0.74536 0.36636 0.0
H1215 H 0.42077 0.77005 0.34003 0.0
H1216 H 0.42156 0.64908 0.32543 0.0
H1217 H 0.44958 0.7134 0.26575 0.0
H1218 H 0.32549 0.67976 0.34616 0.0
H1219 H 0.36434 0.69865 0.36628 0.0
H1220 H 0.37197 0.65903 0.35831 0.0
H1221 H 0.36259 0.75968 0.27264 0.0
H1222 H 0.42036 0.7632 0.26564 0.0
H1223 H 0.3983 0.77767 0.29511 0.0
C1224 C 0.25688 0.77779 0.83635 0.0
C1225 C 0.24966 0.75347 0.85336 0.0
C1226 C 0.2221 0.79126 0.82302 0.0
C1227 C 0.17894 0.77976 0.82629 0.0
C1228 C 0.17179 0.75379 0.84195 0.0
C1229 C 0.20722 0.74103 0.85543 0.0
C1230 C 0.23127 0.81896 0.80659 0.0
C1231 C 0.12639 0.74046 0.84551 0.0
C1232 C 0.08909 0.83869 0.8179 0.0
C1233 C 0.07649 0.83413 0.79253 0.0
C1234 C 0.12143 0.82053 0.8293 0.0
C1235 C 0.14122 0.7968 0.81517 0.0
C1236 C 0.12727 0.7912 0.78991 0.0
C1237 C 0.09537 0.81012 0.7788 0.0
C1238 C 0.13575 0.82762 0.85616 0.0
C1239 C 0.14693 0.76579 0.77438 0.0
H1240 H 0.28974 0.78709 0.83415 0.0
H1241 H 0.20122 0.7223 0.86853 0.0
H1242 H 0.21744 0.81571 0.78728 0.0
H1243 H 0.21506 0.83922 0.81495 0.0
H1244 H 0.26696 0.82391 0.8048 0.0
H1245 H 0.12717 0.71795 0.85528 0.0
H1246 H 0.10628 0.75626 0.85707 0.0
H1247 H 0.10976 0.73776 0.82687 0.0
H1248 H 0.07488 0.85727 0.82863 0.0
H1249 H 0.08553 0.80629 0.75925 0.0
H1250 H 0.17067 0.83502 0.85613 0.0
H1251 H 0.13331 0.80687 0.86823 0.0
H1252 H 0.11575 0.84591 0.86494 0.0
H1253 H 0.18173 0.77126 0.76997 0.0
H1254 H 0.12912 0.76221 0.75618 0.0
H1255 H 0.14653 0.74413 0.78538 0.0
loop_
_geom_bond_atom_site_label_1
_geom_bond_atom_site_label_2
_geom_bond_distance
_geom_bond_site_symmetry_2
_ccdc_geom_bond_type
H0 C1 0.949 . S
C1 H0 0.949 . S
C1 C2 1.395 . S
C1 C3 1.391 . S
C2 C1 1.395 . S
C2 C5 1.390 . S
C3 C1 1.391 . S
C3 C7 1.387 . S
C3 C8 1.491 . S
H4 C5 0.950 . S
C5 C2 1.390 . S
C5 H4 0.950 . S
C5 C6 1.378 . S
C6 C5 1.378 . S
C6 C7 1.409 . S
C7 C3 1.387 . S
C7 C6 1.409 . S
C7 H9 0.951 . S
C8 C3 1.491 . S
C8 C10 1.382 . S
C8 C12 1.404 . S
H9 C7 0.951 . S
C10 C8 1.382 . S
C10 C11 1.390 . S
C10 H15 0.949 . S
C11 C10 1.390 . S
C11 C16 1.399 . S
C12 C8 1.404 . S
C12 H13 0.950 . S
C12 C14 1.375 . S
H13 C12 0.950 . S
C14 C12 1.375 . S
C14 C16 1.382 . S
C14 H18 0.950 . S
H15 C10 0.949 . S
C16 C11 1.399 . S
C16 C14 1.382 . S
C16 H17 0.952 . S
H17 C16 0.952 . S
H18 C14 0.950 . S
H19 C20 0.949 . S
C20 H19 0.949 . S
C20 C21 1.395 . S
C20 C22 1.391 . S
C21 C20 1.395 . S
C21 C24 1.390 . S
C22 C20 1.391 . S
C22 C26 1.387 . S
C22 C27 1.491 . S
H23 C24 0.950 . S
C24 C21 1.390 . S
C24 H23 0.950 . S
C24 C25 1.378 . S
C25 C24 1.378 . S
C25 C26 1.409 . S
C26 C22 1.387 . S
C26 C25 1.409 . S
C26 H28 0.951 . S
C27 C22 1.491 . S
C27 C29 1.382 . S
C27 C31 1.404 . S
H28 C26 0.951 . S
C29 C27 1.382 . S
C29 C30 1.390 . S
C29 H34 0.949 . S
C30 C29 1.390 . S
C30 C35 1.399 . S
C31 C27 1.404 . S
C31 H32 0.950 . S
C31 C33 1.375 . S
H32 C31 0.950 . S
C33 C31 1.375 . S
C33 C35 1.382 . S
C33 H37 0.950 . S
H34 C29 0.949 . S
C35 C30 1.399 . S
C35 C33 1.382 . S
C35 H36 0.952 . S
H36 C35 0.952 . S
H37 C33 0.950 . S
H38 C39 0.949 . S
C39 H38 0.949 . S
C39 C40 1.395 . S
C39 C41 1.391 . S
C40 C39 1.395 . S
C40 C43 1.390 . S
C41 C39 1.391 . S
C41 C45 1.387 . S
C41 C46 1.491 . S
H42 C43 0.950 . S
C43 C40 1.390 . S
C43 H42 0.950 . S
C43 C44 1.378 . S
C44 C43 1.378 . S
C44 C45 1.409 . S
C45 C41 1.387 . S
C45 C44 1.409 . S
C45 H47 0.951 . S
C46 C41 1.491 . S
C46 C48 1.382 . S
C46 C50 1.404 . S
H47 C45 0.951 . S
C48 C46 1.382 . S
C48 C49 1.390 . S
C48 H53 0.949 . S
C49 C48 1.390 . S
C49 C54 1.399 . S
C50 C46 1.404 . S
C50 H51 0.950 . S
C50 C52 1.375 . S
H51 C50 0.950 . S
C52 C50 1.375 . S
C52 C54 1.382 . S
C52 H56 0.950 . S
H53 C48 0.949 . S
C54 C49 1.399 . S
C54 C52 1.382 . S
C54 H55 0.952 . S
H55 C54 0.952 . S
H56 C52 0.950 . S
H57 C58 0.949 . S
C58 H57 0.949 . S
C58 C59 1.395 . S
C58 C60 1.391 . S
C59 C58 1.395 . S
C59 C62 1.390 . S
C60 C58 1.391 . S
C60 C64 1.387 . S
C60 C65 1.491 . S
H61 C62 0.950 . S
C62 C59 1.390 . S
C62 H61 0.950 . S
C62 C63 1.378 . S
C63 C62 1.378 . S
C63 C64 1.409 . S
C64 C60 1.387 . S
C64 C63 1.409 . S
C64 H66 0.951 . S
C65 C60 1.491 . S
C65 C67 1.382 . S
C65 C69 1.404 . S
H66 C64 0.951 . S
C67 C65 1.382 . S
C67 C68 1.390 . S
C67 H72 0.949 . S
C68 C67 1.390 . S
C68 C73 1.399 . S
C69 C65 1.404 . S
C69 H70 0.950 . S
C69 C71 1.375 . S
H70 C69 0.950 . S
C71 C69 1.375 . S
C71 C73 1.382 . S
C71 H75 0.950 . S
H72 C67 0.949 . S
C73 C68 1.399 . S
C73 C71 1.382 . S
C73 H74 0.952 . S
H74 C73 0.952 . S
H75 C71 0.950 . S
H76 C77 0.949 . S
C77 H76 0.949 . S
C77 C78 1.395 . S
C77 C79 1.391 . S
C78 C77 1.395 . S
C78 C81 1.390 . S
C79 C77 1.391 . S
C79 C83 1.387 . S
C79 C84 1.491 . S
H80 C81 0.950 . S
C81 C78 1.390 . S
C81 H80 0.950 . S
C81 C82 1.378 . S
C82 C81 1.378 . S
C82 C83 1.409 . S
C83 C79 1.387 . S
C83 C82 1.409 . S
C83 H85 0.951 . S
C84 C79 1.491 . S
C84 C86 1.382 . S
C84 C88 1.404 . S
H85 C83 0.951 . S
C86 C84 1.382 . S
C86 C87 1.390 . S
C86 H91 0.949 . S
C87 C86 1.390 . S
C87 C92 1.399 . S
C88 C84 1.404 . S
C88 H89 0.950 . S
C88 C90 1.375 . S
H89 C88 0.950 . S
C90 C88 1.375 . S
C90 C92 1.382 . S
C90 H94 0.950 . S
H91 C86 0.949 . S
C92 C87 1.399 . S
C92 C90 1.382 . S
C92 H93 0.952 . S
H93 C92 0.952 . S
H94 C90 0.950 . S
H95 C96 0.949 . S
C96 H95 0.949 . S
C96 C97 1.395 . S
C96 C98 1.391 . S
C97 C96 1.395 . S
C97 C100 1.390 . S
C98 C96 1.391 . S
C98 C102 1.387 . S
C98 C103 1.491 . S
H99 C100 0.950 . S
C100 C97 1.390 . S
C100 H99 0.950 . S
C100 C101 1.378 . S
C101 C100 1.378 . S
C101 C102 1.409 . S
C102 C98 1.387 . S
C102 C101 1.409 . S
C102 H104 0.951 . S
C103 C98 1.491 . S
C103 C105 1.382 . S
C103 C107 1.404 . S
H104 C102 0.951 . S
C105 C103 1.382 . S
C105 C106 1.390 . S
C105 H110 0.949 . S
C106 C105 1.390 . S
C106 C111 1.399 . S
C107 C103 1.404 . S
C107 H108 0.950 . S
C107 C109 1.375 . S
H108 C107 0.950 . S
C109 C107 1.375 . S
C109 C111 1.382 . S
C109 H113 0.950 . S
H110 C105 0.949 . S
C111 C106 1.399 . S
C111 C109 1.382 . S
C111 H112 0.952 . S
H112 C111 0.952 . S
H113 C109 0.950 . S
H114 C115 0.949 . S
C115 H114 0.949 . S
C115 C116 1.395 . S
C115 C117 1.391 . S
C116 C115 1.395 . S
C116 C119 1.390 . S
C117 C115 1.391 . S
C117 C121 1.387 . S
C117 C122 1.491 . S
H118 C119 0.950 . S
C119 C116 1.390 . S
C119 H118 0.950 . S
C119 C120 1.378 . S
C120 C119 1.378 . S
C120 C121 1.409 . S
C121 C117 1.387 . S
C121 C120 1.409 . S
C121 H123 0.951 . S
C122 C117 1.491 . S
C122 C124 1.382 . S
C122 C126 1.404 . S
H123 C121 0.951 . S
C124 C122 1.382 . S
C124 C125 1.390 . S
C124 H129 0.949 . S
C125 C124 1.390 . S
C125 C130 1.399 . S
C126 C122 1.404 . S
C126 H127 0.950 . S
C126 C128 1.375 . S
H127 C126 0.950 . S
C128 C126 1.375 . S
C128 C130 1.382 . S
C128 H132 0.950 . S
H129 C124 0.949 . S
C130 C125 1.399 . S
C130 C128 1.382 . S
C130 H131 0.952 . S
H131 C130 0.952 . S
H132 C128 0.950 . S
H133 C134 0.949 . S
C134 H133 0.949 . S
C134 C135 1.395 . S
C134 C136 1.391 . S
C135 C134 1.395 . S
C135 C138 1.390 . S
C136 C134 1.391 . S
C136 C140 1.387 . S
C136 C141 1.491 . S
H137 C138 0.950 . S
C138 C135 1.390 . S
C138 H137 0.950 . S
C138 C139 1.378 . S
C139 C138 1.378 . S
C139 C140 1.409 . S
C140 C136 1.387 . S
C140 C139 1.409 . S
C140 H142 0.951 . S
C141 C136 1.491 . S
C141 C143 1.382 . S
C141 C145 1.404 . S
H142 C140 0.951 . S
C143 C141 1.382 . S
C143 C144 1.390 . S
C143 H148 0.949 . S
C144 C143 1.390 . S
C144 C149 1.399 . S
C145 C141 1.404 . S
C145 H146 0.950 . S
C145 C147 1.375 . S
H146 C145 0.950 . S
C147 C145 1.375 . S
C147 C149 1.382 . S
C147 H151 0.950 . S
H148 C143 0.949 . S
C149 C144 1.399 . S
C149 C147 1.382 . S
C149 H150 0.952 . S
H150 C149 0.952 . S
H151 C147 0.950 . S
C152 C154 1.422 . S
C152 C156 1.415 . S
C152 N158 1.369 . S
C153 C154 1.421 . S
C153 C155 1.417 . S
C153 C165 1.422 1_545 S
C154 C152 1.422 . S
C154 C153 1.421 . S
C154 N164 1.359 . S
C155 C153 1.417 . S
C155 C157 1.329 . S
C155 H174 0.930 1_545 S
C156 C152 1.415 . S
C156 C157 1.437 . S
C156 C160 1.413 . S
C157 C155 1.329 . S
C157 C156 1.437 . S
C157 H179 0.929 . S
N158 C152 1.369 . S
N158 C159 1.338 . S
N158 Gd163 2.622 . S
C159 N158 1.338 . S
C159 C161 1.378 . S
C159 H171 0.929 . S
C160 C156 1.413 . S
C160 C161 1.348 . S
C160 H176 0.931 . S
C161 C159 1.378 . S
C161 C160 1.348 . S
C161 H177 0.930 . S
Gd162 N182 2.622 . S
Gd162 N189 2.570 . S
Gd162 O196 2.353 1_455 S
Gd162 O197 2.468 . S
Gd162 O198 2.427 . S
Gd162 O200 2.388 . S
Gd162 O201 2.386 . S
Gd162 O205 2.307 1_455 S
Gd162 C215 2.805 . S
Gd163 N158 2.622 . S
Gd163 N164 2.570 . S
Gd163 O195 2.386 . S
Gd163 O199 2.307 1_655 S
Gd163 O202 2.353 1_655 S
Gd163 O203 2.468 . S
Gd163 O204 2.427 . S
Gd163 O206 2.388 . S
Gd163 C227 2.805 . S
N164 C154 1.359 . S
N164 Gd163 2.570 . S
N164 C166 1.343 . S
C165 C153 1.422 1_565 S
C165 C167 1.321 . S
C165 H173 0.931 . S
C166 N164 1.343 . S
C166 C167 1.390 1_545 S
C166 H168 0.931 . S
C167 C165 1.321 . S
C167 C166 1.390 1_565 S
C167 H169 0.930 . S
H168 C166 0.931 . S
H169 C167 0.930 . S
H170 C193 0.931 . S
H171 C159 0.929 . S
H172 C194 0.930 . S
H173 C165 0.931 . S
H174 C155 0.930 1_565 S
H175 C184 0.929 . S
H176 C160 0.931 . S
H177 C161 0.930 . S
H178 C216 0.930 . S
H179 C157 0.929 . S
H180 C185 0.931 . S
H181 C186 0.930 . S
N182 Gd162 2.622 . S
N182 C183 1.369 . S
N182 C184 1.338 . S
C183 N182 1.369 . S
C183 C187 1.415 . S
C183 C190 1.422 . S
C184 H175 0.929 . S
C184 N182 1.338 . S
C184 C186 1.378 . S
C185 H180 0.931 . S
C185 C186 1.348 . S
C185 C187 1.413 . S
C186 H181 0.930 . S
C186 C184 1.378 . S
C186 C185 1.348 . S
C187 C183 1.415 . S
C187 C185 1.413 . S
C187 C217 1.437 . S
H188 C217 0.929 . S
N189 Gd162 2.570 . S
N189 C190 1.359 . S
N189 C193 1.343 . S
C190 C183 1.422 . S
C190 N189 1.359 . S
C190 C192 1.421 . S
C191 C192 1.422 . S
C191 C194 1.321 . S
C191 H218 0.931 . S
C192 C190 1.421 . S
C192 C191 1.422 . S
C192 C216 1.417 . S
C193 H170 0.931 . S
C193 N189 1.343 . S
C193 C194 1.390 . S
C194 H172 0.930 . S
C194 C191 1.321 . S
C194 C193 1.390 . S
O195 Gd163 2.386 . S
O195 C207 1.265 . S
O196 Gd162 2.353 1_655 S
O196 C207 1.242 . S
O197 Gd162 2.468 . S
O197 C215 1.263 . S
O198 Gd162 2.427 . S
O198 C215 1.252 . S
O199 Gd163 2.307 1_455 S
O199 C208 1.261 . S
O200 Gd162 2.388 . S
O200 C208 1.252 . S
O201 Gd162 2.386 . S
O201 C219 1.265 . S
O202 Gd163 2.353 1_455 S
O202 C219 1.242 . S
O203 Gd163 2.468 . S
O203 C227 1.263 . S
O204 Gd163 2.427 . S
O204 C227 1.252 . S
O205 Gd162 2.307 1_655 S
O205 C220 1.261 . S
O206 Gd163 2.388 . S
O206 C220 1.252 . S
C207 O195 1.265 . S
C207 O196 1.242 . S
C208 O199 1.261 . S
C208 O200 1.252 . S
C209 C212 1.394 . S
C209 C214 1.370 . S
C209 C215 1.500 . S
C210 C213 1.383 . S
C210 C214 1.395 . S
C211 C212 1.396 . S
C211 C213 1.365 . S
C211 H228 0.929 . S
C212 C209 1.394 . S
C212 C211 1.396 . S
C212 H229 0.930 . S
C213 C210 1.383 . S
C213 C211 1.365 . S
C213 H230 0.931 . S
C214 C209 1.370 . S
C214 C210 1.395 . S
C214 H231 0.930 . S
C215 Gd162 2.805 . S
C215 O197 1.263 . S
C215 O198 1.252 . S
C215 C209 1.500 . S
C216 H178 0.930 . S
C216 C192 1.417 . S
C216 C217 1.329 . S
C217 C187 1.437 . S
C217 H188 0.929 . S
C217 C216 1.329 . S
H218 C191 0.931 . S
C219 O201 1.265 . S
C219 O202 1.242 . S
C220 O205 1.261 . S
C220 O206 1.252 . S
C221 C224 1.394 . S
C221 C226 1.370 . S
C221 C227 1.500 . S
C222 C225 1.383 . S
C222 C226 1.395 . S
C223 C224 1.396 . S
C223 C225 1.365 . S
C223 H232 0.929 . S
C224 C221 1.394 . S
C224 C223 1.396 . S
C224 H233 0.930 . S
C225 C222 1.383 . S
C225 C223 1.365 . S
C225 H234 0.931 . S
C226 C221 1.370 . S
C226 C222 1.395 . S
C226 H235 0.930 . S
C227 Gd163 2.805 . S
C227 O203 1.263 . S
C227 O204 1.252 . S
C227 C221 1.500 . S
H228 C211 0.929 . S
H229 C212 0.930 . S
H230 C213 0.931 . S
H231 C214 0.930 . S
H232 C223 0.929 . S
H233 C224 0.930 . S
H234 C225 0.931 . S
H235 C226 0.930 . S
C236 C238 1.422 . S
C236 C240 1.415 . S
C236 N242 1.369 . S
C237 C238 1.421 . S
C237 C239 1.417 . S
C237 C249 1.422 . S
C238 C236 1.422 . S
C238 C237 1.421 . S
C238 N248 1.359 . S
C239 C237 1.417 . S
C239 C241 1.329 . S
C239 H258 0.930 . S
C240 C236 1.415 . S
C240 C241 1.437 . S
C240 C244 1.413 . S
C241 C239 1.329 . S
C241 C240 1.437 . S
C241 H263 0.929 . S
N242 C236 1.369 . S
N242 C243 1.338 . S
N242 Gd247 2.622 . S
C243 N242 1.338 . S
C243 C245 1.378 . S
C243 H255 0.929 . S
C244 C240 1.413 . S
C244 C245 1.348 . S
C244 H260 0.931 . S
C245 C243 1.378 . S
C245 C244 1.348 . S
C245 H261 0.930 . S
Gd246 N266 2.622 . S
Gd246 N273 2.570 . S
Gd246 O280 2.353 . S
Gd246 O281 2.468 . S
Gd246 O282 2.427 . S
Gd246 O284 2.388 . S
Gd246 O285 2.386 . S
Gd246 O289 2.307 . S
Gd246 C299 2.805 . S
Gd247 N242 2.622 . S
Gd247 N248 2.570 . S
Gd247 O279 2.386 . S
Gd247 O283 2.307 . S
Gd247 O286 2.353 . S
Gd247 O287 2.468 . S
Gd247 O288 2.427 . S
Gd247 O290 2.388 . S
Gd247 C311 2.805 . S
N248 C238 1.359 . S
N248 Gd247 2.570 . S
N248 C250 1.343 . S
C249 C237 1.422 . S
C249 C251 1.321 . S
C249 H257 0.931 . S
C250 N248 1.343 . S
C250 C251 1.390 . S
C250 H252 0.931 . S
C251 C249 1.321 . S
C251 C250 1.390 . S
C251 H253 0.930 . S
H252 C250 0.931 . S
H253 C251 0.930 . S
H254 C277 0.931 . S
H255 C243 0.929 . S
H256 C278 0.930 . S
H257 C249 0.931 . S
H258 C239 0.930 . S
H259 C268 0.929 . S
H260 C244 0.931 . S
H261 C245 0.930 . S
H262 C300 0.930 . S
H263 C241 0.929 . S
H264 C269 0.931 . S
H265 C270 0.930 . S
N266 Gd246 2.622 . S
N266 C267 1.369 . S
N266 C268 1.338 . S
C267 N266 1.369 . S
C267 C271 1.415 . S
C267 C274 1.422 . S
C268 H259 0.929 . S
C268 N266 1.338 . S
C268 C270 1.378 . S
C269 H264 0.931 . S
C269 C270 1.348 . S
C269 C271 1.413 . S
C270 H265 0.930 . S
C270 C268 1.378 . S
C270 C269 1.348 . S
C271 C267 1.415 . S
C271 C269 1.413 . S
C271 C301 1.437 . S
H272 C301 0.929 . S
N273 Gd246 2.570 . S
N273 C274 1.359 . S
N273 C277 1.343 . S
C274 C267 1.422 . S
C274 N273 1.359 . S
C274 C276 1.421 . S
C275 C276 1.422 . S
C275 C278 1.321 . S
C275 H302 0.931 . S
C276 C274 1.421 . S
C276 C275 1.422 . S
C276 C300 1.417 . S
C277 H254 0.931 . S
C277 N273 1.343 . S
C277 C278 1.390 . S
C278 H256 0.930 . S
C278 C275 1.321 . S
C278 C277 1.390 . S
O279 Gd247 2.386 . S
O279 C291 1.265 . S
O280 Gd246 2.353 . S
O280 C291 1.242 . S
O281 Gd246 2.468 . S
O281 C299 1.263 . S
O282 Gd246 2.427 . S
O282 C299 1.252 . S
O283 Gd247 2.307 . S
O283 C292 1.261 . S
O284 Gd246 2.388 . S
O284 C292 1.252 . S
O285 Gd246 2.386 . S
O285 C303 1.265 . S
O286 Gd247 2.353 . S
O286 C303 1.242 . S
O287 Gd247 2.468 . S
O287 C311 1.263 . S
O288 Gd247 2.427 . S
O288 C311 1.252 . S
O289 Gd246 2.307 . S
O289 C304 1.261 . S
O290 Gd247 2.388 . S
O290 C304 1.252 . S
C291 O279 1.265 . S
C291 O280 1.242 . S
C292 O283 1.261 . S
C292 O284 1.252 . S
C293 C296 1.394 . S
C293 C298 1.370 . S
C293 C299 1.500 . S
C294 C297 1.383 . S
C294 C298 1.395 . S
C295 C296 1.396 . S
C295 C297 1.365 . S
C295 H312 0.929 . S
C296 C293 1.394 . S
C296 C295 1.396 . S
C296 H313 0.930 . S
C297 C294 1.383 . S
C297 C295 1.365 . S
C297 H314 0.931 . S
C298 C293 1.370 . S
C298 C294 1.395 . S
C298 H315 0.930 . S
C299 Gd246 2.805 . S
C299 O281 1.263 . S
C299 O282 1.252 . S
C299 C293 1.500 . S
C300 H262 0.930 . S
C300 C276 1.417 . S
C300 C301 1.329 . S
C301 C271 1.437 . S
C301 H272 0.929 . S
C301 C300 1.329 . S
H302 C275 0.931 . S
C303 O285 1.265 . S
C303 O286 1.242 . S
C304 O289 1.261 . S
C304 O290 1.252 . S
C305 C308 1.394 . S
C305 C310 1.370 . S
C305 C311 1.500 . S
C306 C309 1.383 . S
C306 C310 1.395 . S
C307 C308 1.396 . S
C307 C309 1.365 . S
C307 H316 0.929 . S
C308 C305 1.394 . S
C308 C307 1.396 . S
C308 H317 0.930 . S
C309 C306 1.383 . S
C309 C307 1.365 . S
C309 H318 0.931 . S
C310 C305 1.370 . S
C310 C306 1.395 . S
C310 H319 0.930 . S
C311 Gd247 2.805 . S
C311 O287 1.263 . S
C311 O288 1.252 . S
C311 C305 1.500 . S
H312 C295 0.929 . S
H313 C296 0.930 . S
H314 C297 0.931 . S
H315 C298 0.930 . S
H316 C307 0.929 . S
H317 C308 0.930 . S
H318 C309 0.931 . S
H319 C310 0.930 . S
C320 C322 1.422 . S
C320 C324 1.415 . S
C320 N326 1.369 . S
C321 C322 1.421 . S
C321 C323 1.417 . S
C321 C333 1.422 . S
C322 C320 1.422 . S
C322 C321 1.421 . S
C322 N332 1.359 . S
C323 C321 1.417 . S
C323 C325 1.329 . S
C323 H342 0.930 . S
C324 C320 1.415 . S
C324 C325 1.437 . S
C324 C328 1.413 . S
C325 C323 1.329 . S
C325 C324 1.437 . S
C325 H347 0.929 . S
N326 C320 1.369 . S
N326 C327 1.338 . S
N326 Gd331 2.622 . S
C327 N326 1.338 . S
C327 C329 1.378 . S
C327 H339 0.929 . S
C328 C324 1.413 . S
C328 C329 1.348 . S
C328 H344 0.931 . S
C329 C327 1.378 . S
C329 C328 1.348 . S
C329 H345 0.930 . S
Gd330 N350 2.622 . S
Gd330 N357 2.570 . S
Gd330 O364 2.353 . S
Gd330 O365 2.468 . S
Gd330 O366 2.427 . S
Gd330 O368 2.388 . S
Gd330 O369 2.386 . S
Gd330 O373 2.325 . S
Gd330 C383 2.805 . S
Gd331 N326 2.622 . S
Gd331 N332 2.570 . S
Gd331 O363 2.386 . S
Gd331 O367 2.307 1_655 S
Gd331 O370 2.353 1_655 S
Gd331 O371 2.468 . S
Gd331 O372 2.427 . S
Gd331 O374 2.388 . S
Gd331 C395 2.805 . S
N332 C322 1.359 . S
N332 Gd331 2.570 . S
N332 C334 1.343 . S
C333 C321 1.422 . S
C333 C335 1.321 . S
C333 H341 0.931 . S
C334 N332 1.343 . S
C334 C335 1.390 . S
C334 H336 0.931 . S
C335 C333 1.321 . S
C335 C334 1.390 . S
C335 H337 0.930 . S
H336 C334 0.931 . S
H337 C335 0.930 . S
H338 C361 0.931 . S
H339 C327 0.929 . S
H340 C362 0.930 . S
H341 C333 0.931 . S
H342 C323 0.930 . S
H343 C352 0.929 . S
H344 C328 0.931 . S
H345 C329 0.930 . S
H346 C384 0.930 1_545 S
H347 C325 0.929 . S
H348 C353 0.931 . S
H349 C354 0.930 . S
N350 Gd330 2.622 . S
N350 C351 1.369 . S
N350 C352 1.338 . S
C351 N350 1.369 . S
C351 C355 1.415 . S
C351 C358 1.422 . S
C352 H343 0.929 . S
C352 N350 1.338 . S
C352 C354 1.378 . S
C353 H348 0.931 . S
C353 C354 1.348 . S
C353 C355 1.413 . S
C354 H349 0.930 . S
C354 C352 1.378 . S
C354 C353 1.348 . S
C355 C351 1.415 . S
C355 C353 1.413 . S
C355 C385 1.437 . S
H356 C385 0.929 . S
N357 Gd330 2.570 . S
N357 C358 1.359 . S
N357 C361 1.343 . S
C358 C351 1.422 . S
C358 N357 1.359 . S
C358 C360 1.421 . S
C359 C360 1.422 1_545 S
C359 C362 1.321 . S
C359 H386 0.931 . S
C360 C358 1.421 . S
C360 C359 1.422 1_565 S
C360 C384 1.417 . S
C361 H338 0.931 . S
C361 N357 1.343 . S
C361 C362 1.390 1_565 S
C362 H340 0.930 . S
C362 C359 1.321 . S
C362 C361 1.390 1_545 S
O363 Gd331 2.386 . S
O363 C375 1.265 . S
O364 Gd330 2.353 . S
O364 C375 1.242 1_455 S
O365 Gd330 2.468 . S
O365 C383 1.263 . S
O366 Gd330 2.427 . S
O366 C383 1.252 . S
O367 Gd331 2.307 1_455 S
O367 C376 1.261 . S
O368 Gd330 2.388 . S
O368 C376 1.252 . S
O369 Gd330 2.386 . S
O369 C387 1.265 . S
O370 Gd331 2.353 1_455 S
O370 C387 1.242 . S
O371 Gd331 2.468 . S
O371 C395 1.263 . S
O372 Gd331 2.427 . S
O372 C395 1.252 . S
O373 Gd330 2.325 . S
O373 C388 1.240 1_455 S
O374 Gd331 2.388 . S
O374 C388 1.252 . S
C375 O363 1.265 . S
C375 O364 1.242 1_655 S
C376 O367 1.261 . S
C376 O368 1.252 . S
C377 C380 1.394 . S
C377 C382 1.370 . S
C377 C383 1.500 . S
C378 C381 1.383 . S
C378 C382 1.395 . S
C379 C380 1.396 . S
C379 C381 1.365 . S
C379 H396 0.929 . S
C380 C377 1.394 . S
C380 C379 1.396 . S
C380 H397 0.930 . S
C381 C378 1.383 . S
C381 C379 1.365 . S
C381 H398 0.931 . S
C382 C377 1.370 . S
C382 C378 1.395 . S
C382 H399 0.930 . S
C383 Gd330 2.805 . S
C383 O365 1.263 . S
C383 O366 1.252 . S
C383 C377 1.500 . S
C384 H346 0.930 1_565 S
C384 C360 1.417 . S
C384 C385 1.329 . S
C385 C355 1.437 . S
C385 H356 0.929 . S
C385 C384 1.329 . S
H386 C359 0.931 . S
C387 O369 1.265 . S
C387 O370 1.242 . S
C388 O373 1.240 1_655 S
C388 O374 1.252 . S
C389 C392 1.394 . S
C389 C394 1.370 . S
C389 C395 1.500 . S
C390 C393 1.383 . S
C390 C394 1.395 . S
C391 C392 1.396 . S
C391 C393 1.365 . S
C391 H400 0.929 . S
C392 C389 1.394 . S
C392 C391 1.396 . S
C392 H401 0.930 . S
C393 C390 1.383 . S
C393 C391 1.365 . S
C393 H402 0.931 . S
C394 C389 1.370 . S
C394 C390 1.395 . S
C394 H403 0.930 . S
C395 Gd331 2.805 . S
C395 O371 1.263 . S
C395 O372 1.252 . S
C395 C389 1.500 . S
H396 C379 0.929 . S
H397 C380 0.930 . S
H398 C381 0.931 . S
H399 C382 0.930 . S
H400 C391 0.929 . S
H401 C392 0.930 . S
H402 C393 0.931 . S
H403 C394 0.930 . S
C404 C406 1.422 . S
C404 C408 1.415 . S
C404 N410 1.369 . S
C405 C406 1.421 . S
C405 C407 1.417 . S
C405 C417 1.422 . S
C406 C404 1.422 . S
C406 C405 1.421 . S
C406 N416 1.359 . S
C407 C405 1.417 . S
C407 C409 1.329 . S
C407 H426 0.930 . S
C408 C404 1.415 . S
C408 C409 1.437 . S
C408 C412 1.413 . S
C409 C407 1.329 . S
C409 C408 1.437 . S
C409 H431 0.929 . S
N410 C404 1.369 . S
N410 C411 1.338 . S
N410 Gd415 2.622 . S
C411 N410 1.338 . S
C411 C413 1.378 . S
C411 H423 0.929 . S
C412 C408 1.413 . S
C412 C413 1.348 . S
C412 H428 0.931 . S
C413 C411 1.378 . S
C413 C412 1.348 . S
C413 H429 0.930 . S
Gd414 N434 2.622 . S
Gd414 N441 2.570 . S
Gd414 O448 2.353 . S
Gd414 O449 2.468 . S
Gd414 O450 2.427 . S
Gd414 O452 2.388 . S
Gd414 O453 2.386 . S
Gd414 O457 2.307 . S
Gd414 C467 2.805 . S
Gd415 N410 2.622 . S
Gd415 N416 2.570 . S
Gd415 O447 2.386 . S
Gd415 O451 2.307 . S
Gd415 O454 2.353 . S
Gd415 O455 2.468 . S
Gd415 O456 2.427 . S
Gd415 O458 2.388 . S
Gd415 C479 2.805 . S
N416 C406 1.359 . S
N416 Gd415 2.570 . S
N416 C418 1.343 . S
C417 C405 1.422 . S
C417 C419 1.321 . S
C417 H425 0.931 . S
C418 N416 1.343 . S
C418 C419 1.390 . S
C418 H420 0.931 . S
C419 C417 1.321 . S
C419 C418 1.390 . S
C419 H421 0.930 . S
H420 C418 0.931 . S
H421 C419 0.930 . S
H422 C445 0.931 . S
H423 C411 0.929 . S
H424 C446 0.930 . S
H425 C417 0.931 . S
H426 C407 0.930 . S
H427 C436 0.929 . S
H428 C412 0.931 . S
H429 C413 0.930 . S
H430 C468 0.930 . S
H431 C409 0.929 . S
H432 C437 0.931 . S
H433 C438 0.930 . S
N434 Gd414 2.622 . S
N434 C435 1.369 . S
N434 C436 1.338 . S
C435 N434 1.369 . S
C435 C439 1.415 . S
C435 C442 1.422 . S
C436 H427 0.929 . S
C436 N434 1.338 . S
C436 C438 1.378 . S
C437 H432 0.931 . S
C437 C438 1.348 . S
C437 C439 1.413 . S
C438 H433 0.930 . S
C438 C436 1.378 . S
C438 C437 1.348 . S
C439 C435 1.415 . S
C439 C437 1.413 . S
C439 C469 1.437 . S
H440 C469 0.929 . S
N441 Gd414 2.570 . S
N441 C442 1.359 . S
N441 C445 1.343 . S
C442 C435 1.422 . S
C442 N441 1.359 . S
C442 C444 1.421 . S
C443 C444 1.422 . S
C443 C446 1.321 . S
C443 H470 0.931 . S
C444 C442 1.421 . S
C444 C443 1.422 . S
C444 C468 1.417 . S
C445 H422 0.931 . S
C445 N441 1.343 . S
C445 C446 1.390 . S
C446 H424 0.930 . S
C446 C443 1.321 . S
C446 C445 1.390 . S
O447 Gd415 2.386 . S
O447 C459 1.265 . S
O448 Gd414 2.353 . S
O448 C459 1.242 . S
O449 Gd414 2.468 . S
O449 C467 1.263 . S
O450 Gd414 2.427 . S
O450 C467 1.252 . S
O451 Gd415 2.307 . S
O451 C460 1.261 . S
O452 Gd414 2.388 . S
O452 C460 1.252 . S
O453 Gd414 2.386 . S
O453 C471 1.265 . S
O454 Gd415 2.353 . S
O454 C471 1.242 . S
O455 Gd415 2.468 . S
O455 C479 1.263 . S
O456 Gd415 2.427 . S
O456 C479 1.252 . S
O457 Gd414 2.307 . S
O457 C472 1.261 . S
O458 Gd415 2.388 . S
O458 C472 1.252 . S
C459 O447 1.265 . S
C459 O448 1.242 . S
C460 O451 1.261 . S
C460 O452 1.252 . S
C461 C464 1.394 . S
C461 C466 1.370 . S
C461 C467 1.500 . S
C462 C465 1.383 . S
C462 C466 1.395 . S
C463 C464 1.396 . S
C463 C465 1.365 . S
C463 H480 0.929 . S
C464 C461 1.394 . S
C464 C463 1.396 . S
C464 H481 0.930 . S
C465 C462 1.383 . S
C465 C463 1.365 . S
C465 H482 0.931 . S
C466 C461 1.370 . S
C466 C462 1.395 . S
C466 H483 0.930 . S
C467 Gd414 2.805 . S
C467 O449 1.263 . S
C467 O450 1.252 . S
C467 C461 1.500 . S
C468 H430 0.930 . S
C468 C444 1.417 . S
C468 C469 1.329 . S
C469 C439 1.437 . S
C469 H440 0.929 . S
C469 C468 1.329 . S
H470 C443 0.931 . S
C471 O453 1.265 . S
C471 O454 1.242 . S
C472 O457 1.261 . S
C472 O458 1.252 . S
C473 C476 1.394 . S
C473 C478 1.370 . S
C473 C479 1.500 . S
C474 C477 1.383 . S
C474 C478 1.395 . S
C475 C476 1.396 . S
C475 C477 1.365 . S
C475 H484 0.929 . S
C476 C473 1.394 . S
C476 C475 1.396 . S
C476 H485 0.930 . S
C477 C474 1.383 . S
C477 C475 1.365 . S
C477 H486 0.931 . S
C478 C473 1.370 . S
C478 C474 1.395 . S
C478 H487 0.930 . S
C479 Gd415 2.805 . S
C479 O455 1.263 . S
C479 O456 1.252 . S
C479 C473 1.500 . S
H480 C463 0.929 . S
H481 C464 0.930 . S
H482 C465 0.931 . S
H483 C466 0.930 . S
H484 C475 0.929 . S
H485 C476 0.930 . S
H486 C477 0.931 . S
H487 C478 0.930 . S
C488 C489 1.391 . S
C488 C490 1.394 . S
C488 H504 0.931 . S
C489 C488 1.391 . S
C489 C493 1.376 . S
C490 C488 1.394 . S
C490 C491 1.369 . S
C490 C494 1.531 . S
C491 C490 1.369 . S
C491 C492 1.410 . S
C491 C499 1.503 . S
C492 C491 1.410 . S
C492 C493 1.392 . S
C492 C495 1.511 . S
C493 C489 1.376 . S
C493 C492 1.392 . S
C493 H505 0.929 . S
C494 C490 1.531 . S
C494 H506 0.978 . S
C494 H507 0.962 . S
C494 H508 0.960 . S
C495 C492 1.511 . S
C495 H509 0.961 . S
C495 H510 0.961 . S
C495 H511 0.961 . S
C496 C497 1.370 1_565 S
C496 C498 1.363 . S
C496 H512 0.931 . S
C497 C496 1.370 1_545 S
C497 C501 1.408 . S
C498 C496 1.363 . S
C498 C499 1.370 . S
C498 C502 1.524 . S
C499 C491 1.503 . S
C499 C498 1.370 . S
C499 C500 1.403 1_565 S
C500 C499 1.403 1_545 S
C500 C501 1.404 . S
C500 C503 1.539 . S
C501 C497 1.408 . S
C501 C500 1.404 . S
C501 H513 0.930 . S
C502 C498 1.524 . S
C502 H514 0.956 . S
C502 H515 0.961 . S
C502 H516 0.961 . S
C503 C500 1.539 . S
C503 H517 0.958 . S
C503 H518 0.961 . S
C503 H519 0.960 1_545 S
H504 C488 0.931 . S
H505 C493 0.929 . S
H506 C494 0.978 . S
H507 C494 0.962 . S
H508 C494 0.960 . S
H509 C495 0.961 . S
H510 C495 0.961 . S
H511 C495 0.961 . S
H512 C496 0.931 . S
H513 C501 0.930 . S
H514 C502 0.956 . S
H515 C502 0.961 . S
H516 C502 0.961 . S
H517 C503 0.958 . S
H518 C503 0.961 . S
H519 C503 0.960 1_565 S
C520 C521 1.391 . S
C520 C522 1.394 . S
C520 H536 0.931 . S
C521 C520 1.391 . S
C521 C525 1.376 . S
C522 C520 1.394 . S
C522 C523 1.369 . S
C522 C526 1.531 . S
C523 C522 1.369 . S
C523 C524 1.410 . S
C523 C531 1.503 . S
C524 C523 1.410 . S
C524 C525 1.392 . S
C524 C527 1.511 . S
C525 C521 1.376 . S
C525 C524 1.392 . S
C525 H537 0.929 . S
C526 C522 1.531 . S
C526 H538 0.960 . S
C526 H539 0.962 . S
C526 H540 0.960 . S
C527 C524 1.511 . S
C527 H541 0.961 . S
C527 H542 0.961 . S
C527 H543 0.961 . S
C528 C529 1.370 . S
C528 C530 1.363 . S
C528 H544 0.931 . S
C529 C528 1.370 . S
C529 C533 1.408 . S
C530 C528 1.363 . S
C530 C531 1.370 . S
C530 C534 1.524 . S
C531 C523 1.503 . S
C531 C530 1.370 . S
C531 C532 1.403 . S
C532 C531 1.403 . S
C532 C533 1.404 . S
C532 C535 1.539 . S
C533 C529 1.408 . S
C533 C532 1.404 . S
C533 H545 0.930 . S
C534 C530 1.524 . S
C534 H546 0.956 . S
C534 H547 0.961 . S
C534 H548 0.961 . S
C535 C532 1.539 . S
C535 H549 0.958 . S
C535 H550 0.961 . S
C535 H551 0.960 . S
H536 C520 0.931 . S
H537 C525 0.929 . S
H538 C526 0.960 . S
H539 C526 0.962 . S
H540 C526 0.960 . S
H541 C527 0.961 . S
H542 C527 0.961 . S
H543 C527 0.961 . S
H544 C528 0.931 . S
H545 C533 0.930 . S
H546 C534 0.956 . S
H547 C534 0.961 . S
H548 C534 0.961 . S
H549 C535 0.958 . S
H550 C535 0.961 . S
H551 C535 0.960 . S
C552 C553 1.391 . S
C552 C554 1.394 . S
C552 H568 0.931 . S
C553 C552 1.391 . S
C553 C557 1.376 . S
C554 C552 1.394 . S
C554 C555 1.369 . S
C554 C558 1.531 . S
C555 C554 1.369 . S
C555 C556 1.410 . S
C555 C563 1.503 . S
C556 C555 1.410 . S
C556 C557 1.392 . S
C556 C559 1.511 . S
C557 C553 1.376 . S
C557 C556 1.392 . S
C557 H569 0.929 . S
C558 C554 1.531 . S
C558 H570 0.960 . S
C558 H571 0.962 . S
C558 H572 0.960 . S
C559 C556 1.511 . S
C559 H573 0.961 . S
C559 H574 0.961 . S
C559 H575 0.961 . S
C560 C561 1.370 . S
C560 C562 1.363 . S
C560 H576 0.931 . S
C561 C560 1.370 . S
C561 C565 1.408 . S
C562 C560 1.363 . S
C562 C563 1.370 . S
C562 C566 1.524 . S
C563 C555 1.503 . S
C563 C562 1.370 . S
C563 C564 1.403 . S
C564 C563 1.403 . S
C564 C565 1.404 . S
C564 C567 1.539 . S
C565 C561 1.408 . S
C565 C564 1.404 . S
C565 H577 0.930 . S
C566 C562 1.524 . S
C566 H578 0.956 . S
C566 H579 0.961 . S
C566 H580 0.961 . S
C567 C564 1.539 . S
C567 H581 0.958 . S
C567 H582 0.961 . S
C567 H583 0.960 . S
H568 C552 0.931 . S
H569 C557 0.929 . S
H570 C558 0.960 . S
H571 C558 0.962 . S
H572 C558 0.960 . S
H573 C559 0.961 . S
H574 C559 0.961 . S
H575 C559 0.961 . S
H576 C560 0.931 . S
H577 C565 0.930 . S
H578 C566 0.956 . S
H579 C566 0.961 . S
H580 C566 0.961 . S
H581 C567 0.958 . S
H582 C567 0.961 . S
H583 C567 0.960 . S
C584 C585 1.391 . S
C584 C586 1.394 . S
C584 H600 0.931 . S
C585 C584 1.391 . S
C585 C589 1.376 . S
C586 C584 1.394 . S
C586 C587 1.369 . S
C586 C590 1.531 . S
C587 C586 1.369 . S
C587 C588 1.410 . S
C587 C595 1.503 . S
C588 C587 1.410 . S
C588 C589 1.392 . S
C588 C591 1.511 . S
C589 C585 1.376 . S
C589 C588 1.392 . S
C589 H601 0.929 . S
C590 C586 1.531 . S
C590 H602 0.960 1_565 S
C590 H603 0.962 . S
C590 H604 0.960 . S
C591 C588 1.511 . S
C591 H605 0.961 . S
C591 H606 0.961 . S
C591 H607 0.961 . S
C592 C593 1.370 1_565 S
C592 C594 1.363 . S
C592 H608 0.931 . S
C593 C592 1.370 1_545 S
C593 C597 1.408 . S
C594 C592 1.363 . S
C594 C595 1.370 . S
C594 C598 1.524 . S
C595 C587 1.503 . S
C595 C594 1.370 . S
C595 C596 1.403 1_565 S
C596 C595 1.403 1_545 S
C596 C597 1.404 . S
C596 C599 1.539 . S
C597 C593 1.408 . S
C597 C596 1.404 . S
C597 H609 0.930 . S
C598 C594 1.524 . S
C598 H610 0.956 . S
C598 H611 0.961 . S
C598 H612 0.961 . S
C599 C596 1.539 . S
C599 H613 0.958 . S
C599 H614 0.961 . S
C599 H615 0.960 1_545 S
H600 C584 0.931 . S
H601 C589 0.929 . S
H602 C590 0.960 1_545 S
H603 C590 0.962 . S
H604 C590 0.960 . S
H605 C591 0.961 . S
H606 C591 0.961 . S
H607 C591 0.961 . S
H608 C592 0.931 . S
H609 C597 0.930 . S
H610 C598 0.956 . S
H611 C598 0.961 . S
H612 C598 0.961 . S
H613 C599 0.958 . S
H614 C599 0.961 . S
H615 C599 0.960 1_565 S
C616 C617 1.391 . S
C616 C618 1.394 . S
C616 H632 0.931 . S
C617 C616 1.391 . S
C617 C621 1.376 . S
C618 C616 1.394 . S
C618 C619 1.369 . S
C618 C622 1.531 . S
C619 C618 1.369 . S
C619 C620 1.410 . S
C619 C627 1.503 . S
C620 C619 1.410 . S
C620 C621 1.392 . S
C620 C623 1.511 . S
C621 C617 1.376 . S
C621 C620 1.392 . S
C621 H633 0.929 . S
C622 C618 1.531 . S
C622 H634 0.954 1_545 S
C622 H635 0.962 1_545 S
C622 H636 0.960 . S
C623 C620 1.511 . S
C623 H637 0.961 . S
C623 H638 0.961 . S
C623 H639 0.961 . S
C624 C625 1.370 . S
C624 C626 1.363 1_565 S
C624 H640 0.931 . S
C625 C624 1.370 . S
C625 C629 1.408 1_565 S
C626 C624 1.363 1_545 S
C626 C627 1.370 . S
C626 C630 1.524 . S
C627 C619 1.503 . S
C627 C626 1.370 . S
C627 C628 1.403 . S
C628 C627 1.403 . S
C628 C629 1.405 . S
C628 C631 1.539 . S
C629 C625 1.408 1_545 S
C629 C628 1.405 . S
C629 H641 0.929 1_545 S
C630 C626 1.524 . S
C630 H642 0.956 . S
C630 H643 0.961 . S
C630 H644 0.961 . S
C631 C628 1.539 . S
C631 H645 0.958 . S
C631 H646 0.965 . S
C631 H647 0.960 . S
H632 C616 0.931 . S
H633 C621 0.929 . S
H634 C622 0.954 1_565 S
H635 C622 0.962 1_565 S
H636 C622 0.960 . S
H637 C623 0.961 . S
H638 C623 0.961 . S
H639 C623 0.961 . S
H640 C624 0.931 . S
H641 C629 0.929 1_565 S
H642 C630 0.956 . S
H643 C630 0.961 . S
H644 C630 0.961 . S
H645 C631 0.958 . S
H646 C631 0.965 . S
H647 C631 0.960 . S
C648 C649 1.391 . S
C648 C650 1.394 . S
C648 H664 0.931 . S
C649 C648 1.391 . S
C649 C653 1.376 . S
C650 C648 1.394 . S
C650 C651 1.369 . S
C650 C654 1.531 . S
C651 C650 1.369 . S
C651 C652 1.410 . S
C651 C659 1.503 . S
C652 C651 1.410 . S
C652 C653 1.392 . S
C652 C655 1.511 . S
C653 C649 1.376 . S
C653 C652 1.392 . S
C653 H665 0.929 . S
C654 C650 1.531 . S
C654 H666 0.960 . S
C654 H667 0.962 . S
C654 H668 0.960 . S
C655 C652 1.511 . S
C655 H669 0.961 . S
C655 H670 0.961 . S
C655 H671 0.961 . S
C656 C657 1.370 . S
C656 C658 1.363 . S
C656 H672 0.931 . S
C657 C656 1.370 . S
C657 C661 1.408 . S
C658 C656 1.363 . S
C658 C659 1.370 . S
C658 C662 1.524 . S
C659 C651 1.503 . S
C659 C658 1.370 . S
C659 C660 1.403 . S
C660 C659 1.403 . S
C660 C661 1.404 . S
C660 C663 1.539 . S
C661 C657 1.408 . S
C661 C660 1.404 . S
C661 H673 0.930 . S
C662 C658 1.524 . S
C662 H674 0.956 . S
C662 H675 0.961 . S
C662 H676 0.961 . S
C663 C660 1.539 . S
C663 H677 0.958 . S
C663 H678 0.961 . S
C663 H679 0.960 . S
H664 C648 0.931 . S
H665 C653 0.929 . S
H666 C654 0.960 . S
H667 C654 0.962 . S
H668 C654 0.960 . S
H669 C655 0.961 . S
H670 C655 0.961 . S
H671 C655 0.961 . S
H672 C656 0.931 . S
H673 C661 0.930 . S
H674 C662 0.956 . S
H675 C662 0.961 . S
H676 C662 0.961 . S
H677 C663 0.958 . S
H678 C663 0.961 . S
H679 C663 0.960 . S
C680 C681 1.391 . S
C680 C682 1.394 . S
C680 H696 0.931 . S
C681 C680 1.391 . S
C681 C685 1.376 . S
C682 C680 1.394 . S
C682 C683 1.369 . S
C682 C686 1.531 . S
C683 C682 1.369 . S
C683 C684 1.410 . S
C683 C691 1.503 . S
C684 C683 1.410 . S
C684 C685 1.392 . S
C684 C687 1.511 . S
C685 C681 1.376 . S
C685 C684 1.392 . S
C685 H697 0.929 . S
C686 C682 1.531 . S
C686 H698 0.960 . S
C686 H699 0.962 . S
C686 H700 0.960 . S
C687 C684 1.511 . S
C687 H701 0.961 . S
C687 H702 0.961 . S
C687 H703 0.961 . S
C688 C689 1.370 . S
C688 C690 1.363 . S
C688 H704 0.931 . S
C689 C688 1.370 . S
C689 C693 1.408 . S
C690 C688 1.363 . S
C690 C691 1.370 . S
C690 C694 1.524 . S
C691 C683 1.503 . S
C691 C690 1.370 . S
C691 C692 1.403 . S
C692 C691 1.403 . S
C692 C693 1.404 . S
C692 C695 1.539 . S
C693 C689 1.408 . S
C693 C692 1.404 . S
C693 H705 0.930 . S
C694 C690 1.524 . S
C694 H706 0.956 . S
C694 H707 0.961 . S
C694 H708 0.961 . S
C695 C692 1.539 . S
C695 H709 0.958 . S
C695 H710 0.961 . S
C695 H711 0.960 . S
H696 C680 0.931 . S
H697 C685 0.929 . S
H698 C686 0.960 . S
H699 C686 0.962 . S
H700 C686 0.960 . S
H701 C687 0.961 . S
H702 C687 0.961 . S
H703 C687 0.961 . S
H704 C688 0.931 . S
H705 C693 0.930 . S
H706 C694 0.956 . S
H707 C694 0.961 . S
H708 C694 0.961 . S
H709 C695 0.958 . S
H710 C695 0.961 . S
H711 C695 0.960 . S
C712 C713 1.391 . S
C712 C714 1.394 . S
C712 H728 0.931 . S
C713 C712 1.391 . S
C713 C717 1.376 . S
C714 C712 1.394 . S
C714 C715 1.369 . S
C714 C718 1.531 . S
C715 C714 1.369 . S
C715 C716 1.410 . S
C715 C723 1.503 . S
C716 C715 1.410 . S
C716 C717 1.392 . S
C716 C719 1.511 . S
C717 C713 1.376 . S
C717 C716 1.392 . S
C717 H729 0.929 . S
C718 C714 1.531 . S
C718 H730 0.960 1_545 S
C718 H731 0.963 . S
C718 H732 0.960 1_545 S
C719 C716 1.511 . S
C719 H733 0.961 . S
C719 H734 0.961 . S
C719 H735 0.961 . S
C720 C721 1.370 1_545 S
C720 C722 1.363 . S
C720 H736 0.931 . S
C721 C720 1.370 1_565 S
C721 C725 1.408 . S
C722 C720 1.363 . S
C722 C723 1.370 . S
C722 C726 1.524 . S
C723 C715 1.503 . S
C723 C722 1.370 . S
C723 C724 1.403 . S
C724 C723 1.403 . S
C724 C725 1.404 1_545 S
C724 C727 1.539 . S
C725 C721 1.408 . S
C725 C724 1.404 1_565 S
C725 H737 0.930 . S
C726 C722 1.524 . S
C726 H738 0.956 . S
C726 H739 0.961 . S
C726 H740 0.961 . S
C727 C724 1.539 . S
C727 H741 0.958 1_545 S
C727 H742 0.961 . S
C727 H743 0.960 . S
H728 C712 0.931 . S
H729 C717 0.929 . S
H730 C718 0.960 1_565 S
H731 C718 0.963 . S
H732 C718 0.960 1_565 S
H733 C719 0.961 . S
H734 C719 0.961 . S
H735 C719 0.961 . S
H736 C720 0.931 . S
H737 C725 0.930 . S
H738 C726 0.956 . S
H739 C726 0.961 . S
H740 C726 0.961 . S
H741 C727 0.958 1_565 S
H742 C727 0.961 . S
H743 C727 0.960 . S
C744 C745 1.391 . S
C744 C746 1.394 . S
C744 H760 0.931 . S
C745 C744 1.391 . S
C745 C749 1.376 . S
C746 C744 1.394 . S
C746 C747 1.369 1_556 S
C746 C750 1.531 . S
C747 C746 1.369 1_554 S
C747 C748 1.410 . S
C747 C755 1.503 . S
C748 C747 1.410 . S
C748 C749 1.392 1_554 S
C748 C751 1.511 . S
C749 C745 1.376 . S
C749 C748 1.392 1_556 S
C749 H761 0.929 . S
C750 C746 1.531 . S
C750 H762 0.960 1_556 S
C750 H763 0.962 . S
C750 H764 0.960 . S
C751 C748 1.511 . S
C751 H765 0.961 . S
C751 H766 0.961 . S
C751 H767 0.961 . S
C752 C753 1.370 . S
C752 C754 1.363 . S
C752 H768 0.931 . S
C753 C752 1.370 . S
C753 C757 1.408 . S
C754 C752 1.363 . S
C754 C755 1.370 . S
C754 C758 1.524 . S
C755 C747 1.503 . S
C755 C754 1.370 . S
C755 C756 1.403 . S
C756 C755 1.403 . S
C756 C757 1.404 . S
C756 C759 1.539 . S
C757 C753 1.408 . S
C757 C756 1.404 . S
C757 H769 0.930 . S
C758 C754 1.524 . S
C758 H770 0.956 . S
C758 H771 0.961 . S
C758 H772 0.961 . S
C759 C756 1.539 . S
C759 H773 0.958 . S
C759 H774 0.961 . S
C759 H775 0.960 . S
H760 C744 0.931 . S
H761 C749 0.929 . S
H762 C750 0.960 1_554 S
H763 C750 0.962 . S
H764 C750 0.960 . S
H765 C751 0.961 . S
H766 C751 0.961 . S
H767 C751 0.961 . S
H768 C752 0.931 . S
H769 C757 0.930 . S
H770 C758 0.956 . S
H771 C758 0.961 . S
H772 C758 0.961 . S
H773 C759 0.958 . S
H774 C759 0.961 . S
H775 C759 0.960 . S
C776 C777 1.391 . S
C776 C778 1.394 . S
C776 H792 0.931 . S
C777 C776 1.391 . S
C777 C781 1.376 . S
C778 C776 1.394 . S
C778 C779 1.369 . S
C778 C782 1.531 . S
C779 C778 1.369 . S
C779 C780 1.410 . S
C779 C787 1.503 . S
C780 C779 1.410 . S
C780 C781 1.392 . S
C780 C783 1.511 . S
C781 C777 1.376 . S
C781 C780 1.392 . S
C781 H793 0.929 . S
C782 C778 1.531 . S
C782 H794 0.960 . S
C782 H795 0.962 . S
C782 H796 0.960 . S
C783 C780 1.511 . S
C783 H797 0.961 . S
C783 H798 0.961 . S
C783 H799 0.961 . S
C784 C785 1.370 . S
C784 C786 1.363 . S
C784 H800 0.931 . S
C785 C784 1.370 . S
C785 C789 1.408 . S
C786 C784 1.363 . S
C786 C787 1.370 . S
C786 C790 1.524 . S
C787 C779 1.503 . S
C787 C786 1.370 . S
C787 C788 1.403 . S
C788 C787 1.403 . S
C788 C789 1.404 . S
C788 C791 1.539 . S
C789 C785 1.408 . S
C789 C788 1.404 . S
C789 H801 0.930 . S
C790 C786 1.524 . S
C790 H802 0.956 . S
C790 H803 0.961 . S
C790 H804 0.961 . S
C791 C788 1.539 . S
C791 H805 0.958 . S
C791 H806 0.961 . S
C791 H807 0.960 . S
H792 C776 0.931 . S
H793 C781 0.929 . S
H794 C782 0.960 . S
H795 C782 0.962 . S
H796 C782 0.960 . S
H797 C783 0.961 . S
H798 C783 0.961 . S
H799 C783 0.961 . S
H800 C784 0.931 . S
H801 C789 0.930 . S
H802 C790 0.956 . S
H803 C790 0.961 . S
H804 C790 0.961 . S
H805 C791 0.958 . S
H806 C791 0.961 . S
H807 C791 0.960 . S
C808 C809 1.391 . S
C808 C810 1.394 1_554 S
C808 H824 0.931 . S
C809 C808 1.391 . S
C809 C813 1.376 . S
C810 C808 1.394 1_556 S
C810 C811 1.369 . S
C810 C814 1.531 . S
C811 C810 1.369 . S
C811 C812 1.410 1_556 S
C811 C819 1.503 . S
C812 C811 1.410 1_554 S
C812 C813 1.392 . S
C812 C815 1.511 1_554 S
C813 C809 1.376 . S
C813 C812 1.392 . S
C813 H825 0.929 . S
C814 C810 1.531 . S
C814 H826 0.960 . S
C814 H827 0.962 . S
C814 H828 0.960 . S
C815 C812 1.511 1_556 S
C815 H829 0.961 1_556 S
C815 H830 0.961 . S
C815 H831 0.961 . S
C816 C817 1.370 . S
C816 C818 1.363 . S
C816 H832 0.931 . S
C817 C816 1.370 . S
C817 C821 1.408 . S
C818 C816 1.363 . S
C818 C819 1.370 . S
C818 C822 1.524 . S
C819 C811 1.503 . S
C819 C818 1.370 . S
C819 C820 1.403 . S
C820 C819 1.403 . S
C820 C821 1.404 . S
C820 C823 1.539 . S
C821 C817 1.408 . S
C821 C820 1.404 . S
C821 H833 0.930 . S
C822 C818 1.524 . S
C822 H834 0.956 . S
C822 H835 0.957 1_556 S
C822 H836 0.961 . S
C823 C820 1.539 . S
C823 H837 0.958 . S
C823 H838 0.961 . S
C823 H839 0.960 . S
H824 C808 0.931 . S
H825 C813 0.929 . S
H826 C814 0.960 . S
H827 C814 0.962 . S
H828 C814 0.960 . S
H829 C815 0.961 1_554 S
H830 C815 0.961 . S
H831 C815 0.961 . S
H832 C816 0.931 . S
H833 C821 0.930 . S
H834 C822 0.956 . S
H835 C822 0.957 1_554 S
H836 C822 0.961 . S
H837 C823 0.958 . S
H838 C823 0.961 . S
H839 C823 0.960 . S
C840 C841 1.391 . S
C840 C842 1.394 . S
C840 H856 0.931 . S
C841 C840 1.391 . S
C841 C845 1.376 . S
C842 C840 1.394 . S
C842 C843 1.369 . S
C842 C846 1.531 . S
C843 C842 1.369 . S
C843 C844 1.410 . S
C843 C851 1.503 . S
C844 C843 1.410 . S
C844 C845 1.392 . S
C844 C847 1.511 . S
C845 C841 1.376 . S
C845 C844 1.392 . S
C845 H857 0.929 . S
C846 C842 1.531 . S
C846 H858 0.960 . S
C846 H859 0.962 . S
C846 H860 0.960 . S
C847 C844 1.511 . S
C847 H861 0.961 . S
C847 H862 0.961 . S
C847 H863 0.961 . S
C848 C849 1.370 . S
C848 C850 1.363 . S
C848 H864 0.931 . S
C849 C848 1.370 . S
C849 C853 1.408 . S
C850 C848 1.363 . S
C850 C851 1.370 . S
C850 C854 1.524 . S
C851 C843 1.503 . S
C851 C850 1.370 . S
C851 C852 1.403 . S
C852 C851 1.403 . S
C852 C853 1.404 . S
C852 C855 1.539 . S
C853 C849 1.408 . S
C853 C852 1.404 . S
C853 H865 0.930 . S
C854 C850 1.524 . S
C854 H866 0.956 . S
C854 H867 0.961 . S
C854 H868 0.961 . S
C855 C852 1.539 . S
C855 H869 0.958 . S
C855 H870 0.961 . S
C855 H871 0.960 . S
H856 C840 0.931 . S
H857 C845 0.929 . S
H858 C846 0.960 . S
H859 C846 0.962 . S
H860 C846 0.960 . S
H861 C847 0.961 . S
H862 C847 0.961 . S
H863 C847 0.961 . S
H864 C848 0.931 . S
H865 C853 0.930 . S
H866 C854 0.956 . S
H867 C854 0.961 . S
H868 C854 0.961 . S
H869 C855 0.958 . S
H870 C855 0.961 . S
H871 C855 0.960 . S
C872 C873 1.391 . S
C872 C874 1.394 1_554 S
C872 H888 0.931 . S
C873 C872 1.391 . S
C873 C877 1.376 . S
C874 C872 1.394 1_556 S
C874 C875 1.369 . S
C874 C878 1.531 . S
C875 C874 1.369 . S
C875 C876 1.410 1_556 S
C875 C883 1.503 . S
C876 C875 1.410 1_554 S
C876 C877 1.392 . S
C876 C879 1.511 1_554 S
C877 C873 1.376 . S
C877 C876 1.392 . S
C877 H889 0.929 . S
C878 C874 1.531 . S
C878 H890 0.960 . S
C878 H891 0.962 . S
C878 H892 0.960 . S
C879 C876 1.511 1_556 S
C879 H893 0.961 1_556 S
C879 H894 0.961 . S
C879 H895 0.961 . S
C880 C881 1.370 . S
C880 C882 1.363 . S
C880 H896 0.931 . S
C881 C880 1.370 . S
C881 C885 1.408 . S
C882 C880 1.363 . S
C882 C883 1.370 . S
C882 C886 1.524 . S
C883 C875 1.503 . S
C883 C882 1.370 . S
C883 C884 1.403 . S
C884 C883 1.403 . S
C884 C885 1.404 . S
C884 C887 1.539 . S
C885 C881 1.408 . S
C885 C884 1.404 . S
C885 H897 0.930 . S
C886 C882 1.524 . S
C886 H898 0.956 . S
C886 H899 0.961 . S
C886 H900 0.961 . S
C887 C884 1.539 . S
C887 H901 0.958 . S
C887 H902 0.961 . S
C887 H903 0.960 . S
H888 C872 0.931 . S
H889 C877 0.929 . S
H890 C878 0.960 . S
H891 C878 0.962 . S
H892 C878 0.960 . S
H893 C879 0.961 1_554 S
H894 C879 0.961 . S
H895 C879 0.961 . S
H896 C880 0.931 . S
H897 C885 0.930 . S
H898 C886 0.956 . S
H899 C886 0.961 . S
H900 C886 0.961 . S
H901 C887 0.958 . S
H902 C887 0.961 . S
H903 C887 0.960 . S
C904 C905 1.391 . S
C904 C906 1.394 . S
C904 H920 0.931 . S
C905 C904 1.391 . S
C905 C909 1.376 . S
C906 C904 1.394 . S
C906 C907 1.369 . S
C906 C910 1.531 . S
C907 C906 1.369 . S
C907 C908 1.410 . S
C907 C915 1.503 . S
C908 C907 1.410 . S
C908 C909 1.392 . S
C908 C911 1.511 . S
C909 C905 1.376 . S
C909 C908 1.392 . S
C909 H921 0.929 . S
C910 C906 1.531 . S
C910 H922 0.960 . S
C910 H923 0.962 . S
C910 H924 0.960 . S
C911 C908 1.511 . S
C911 H925 0.961 . S
C911 H926 0.961 . S
C911 H927 0.961 . S
C912 C913 1.370 . S
C912 C914 1.363 . S
C912 H928 0.931 . S
C913 C912 1.370 . S
C913 C917 1.408 . S
C914 C912 1.363 . S
C914 C915 1.370 . S
C914 C918 1.524 . S
C915 C907 1.503 . S
C915 C914 1.370 . S
C915 C916 1.403 . S
C916 C915 1.403 . S
C916 C917 1.404 . S
C916 C919 1.539 . S
C917 C913 1.408 . S
C917 C916 1.404 . S
C917 H929 0.930 . S
C918 C914 1.524 . S
C918 H930 0.956 . S
C918 H931 0.961 . S
C918 H932 0.961 . S
C919 C916 1.539 . S
C919 H933 0.958 . S
C919 H934 0.961 . S
C919 H935 0.960 . S
H920 C904 0.931 . S
H921 C909 0.929 . S
H922 C910 0.960 . S
H923 C910 0.962 . S
H924 C910 0.960 . S
H925 C911 0.961 . S
H926 C911 0.961 . S
H927 C911 0.961 . S
H928 C912 0.931 . S
H929 C917 0.930 . S
H930 C918 0.956 . S
H931 C918 0.961 . S
H932 C918 0.961 . S
H933 C919 0.958 . S
H934 C919 0.961 . S
H935 C919 0.960 . S
C936 C937 1.391 . S
C936 C938 1.394 1_556 S
C936 H952 0.931 . S
C937 C936 1.391 . S
C937 C941 1.376 . S
C938 C936 1.394 1_554 S
C938 C939 1.369 . S
C938 C942 1.531 . S
C939 C938 1.369 . S
C939 C940 1.410 1_554 S
C939 C947 1.503 . S
C940 C939 1.410 1_556 S
C940 C941 1.392 . S
C940 C943 1.511 . S
C941 C937 1.376 . S
C941 C940 1.392 . S
C941 H953 0.929 . S
C942 C938 1.531 . S
C942 H954 0.960 . S
C942 H955 0.962 . S
C942 H956 0.960 . S
C943 C940 1.511 . S
C943 H957 0.961 . S
C943 H958 0.961 1_556 S
C943 H959 0.961 . S
C944 C945 1.370 . S
C944 C946 1.363 . S
C944 H960 0.931 . S
C945 C944 1.370 . S
C945 C949 1.408 . S
C946 C944 1.363 . S
C946 C947 1.370 . S
C946 C950 1.524 . S
C947 C939 1.503 . S
C947 C946 1.370 . S
C947 C948 1.403 . S
C948 C947 1.403 . S
C948 C949 1.404 . S
C948 C951 1.539 . S
C949 C945 1.408 . S
C949 C948 1.404 . S
C949 H961 0.930 . S
C950 C946 1.524 . S
C950 H962 0.956 . S
C950 H963 0.961 . S
C950 H964 0.961 . S
C951 C948 1.539 . S
C951 H965 0.958 . S
C951 H966 0.961 . S
C951 H967 0.960 . S
H952 C936 0.931 . S
H953 C941 0.929 . S
H954 C942 0.960 . S
H955 C942 0.962 . S
H956 C942 0.960 . S
H957 C943 0.961 . S
H958 C943 0.961 1_554 S
H959 C943 0.961 . S
H960 C944 0.931 . S
H961 C949 0.930 . S
H962 C950 0.956 . S
H963 C950 0.961 . S
H964 C950 0.961 . S
H965 C951 0.958 . S
H966 C951 0.961 . S
H967 C951 0.960 . S
C968 C969 1.391 . S
C968 C970 1.394 . S
C968 H984 0.931 . S
C969 C968 1.391 . S
C969 C973 1.376 . S
C970 C968 1.394 . S
C970 C971 1.369 . S
C970 C974 1.531 . S
C971 C970 1.369 . S
C971 C972 1.410 . S
C971 C979 1.503 . S
C972 C971 1.410 . S
C972 C973 1.392 . S
C972 C975 1.511 . S
C973 C969 1.376 . S
C973 C972 1.392 . S
C973 H985 0.929 . S
C974 C970 1.531 . S
C974 H986 0.960 . S
C974 H987 0.962 . S
C974 H988 0.960 . S
C975 C972 1.511 . S
C975 H989 0.961 . S
C975 H990 0.961 . S
C975 H991 0.961 . S
C976 C977 1.370 . S
C976 C978 1.363 . S
C976 H992 0.931 . S
C977 C976 1.370 . S
C977 C981 1.408 . S
C978 C976 1.363 . S
C978 C979 1.370 . S
C978 C982 1.524 . S
C979 C971 1.503 . S
C979 C978 1.370 . S
C979 C980 1.403 . S
C980 C979 1.403 . S
C980 C981 1.404 . S
C980 C983 1.539 . S
C981 C977 1.408 . S
C981 C980 1.404 . S
C981 H993 0.930 . S
C982 C978 1.524 . S
C982 H994 0.956 . S
C982 H995 0.961 . S
C982 H996 0.961 . S
C983 C980 1.539 . S
C983 H997 0.958 . S
C983 H998 0.961 . S
C983 H999 0.960 . S
H984 C968 0.931 . S
H985 C973 0.929 . S
H986 C974 0.960 . S
H987 C974 0.962 . S
H988 C974 0.960 . S
H989 C975 0.961 . S
H990 C975 0.961 . S
H991 C975 0.961 . S
H992 C976 0.931 . S
H993 C981 0.930 . S
H994 C982 0.956 . S
H995 C982 0.961 . S
H996 C982 0.961 . S
H997 C983 0.958 . S
H998 C983 0.961 . S
H999 C983 0.960 . S
C1000 C1001 1.391 . S
C1000 C1002 1.394 . S
C1000 H1016 0.931 . S
C1001 C1000 1.391 . S
C1001 C1005 1.376 . S
C1002 C1000 1.394 . S
C1002 C1003 1.369 . S
C1002 C1006 1.531 . S
C1003 C1002 1.369 . S
C1003 C1004 1.410 . S
C1003 C1011 1.503 . S
C1004 C1003 1.410 . S
C1004 C1005 1.392 . S
C1004 C1007 1.511 . S
C1005 C1001 1.376 . S
C1005 C1004 1.392 . S
C1005 H1017 0.929 . S
C1006 C1002 1.531 . S
C1006 H1018 0.960 . S
C1006 H1019 0.962 . S
C1006 H1020 0.960 . S
C1007 C1004 1.511 . S
C1007 H1021 0.961 . S
C1007 H1022 0.961 . S
C1007 H1023 0.961 . S
C1008 C1009 1.370 . S
C1008 C1010 1.363 . S
C1008 H1024 0.931 . S
C1009 C1008 1.370 . S
C1009 C1013 1.408 . S
C1010 C1008 1.363 . S
C1010 C1011 1.370 . S
C1010 C1014 1.524 . S
C1011 C1003 1.503 . S
C1011 C1010 1.370 . S
C1011 C1012 1.403 . S
C1012 C1011 1.403 . S
C1012 C1013 1.404 . S
C1012 C1015 1.539 . S
C1013 C1009 1.408 . S
C1013 C1012 1.404 . S
C1013 H1025 0.930 . S
C1014 C1010 1.524 . S
C1014 H1026 0.956 . S
C1014 H1027 0.961 . S
C1014 H1028 0.961 . S
C1015 C1012 1.539 . S
C1015 H1029 0.958 . S
C1015 H1030 0.961 . S
C1015 H1031 0.960 . S
H1016 C1000 0.931 . S
H1017 C1005 0.929 . S
H1018 C1006 0.960 . S
H1019 C1006 0.962 . S
H1020 C1006 0.960 . S
H1021 C1007 0.961 . S
H1022 C1007 0.961 . S
H1023 C1007 0.961 . S
H1024 C1008 0.931 . S
H1025 C1013 0.930 . S
H1026 C1014 0.956 . S
H1027 C1014 0.961 . S
H1028 C1014 0.961 . S
H1029 C1015 0.958 . S
H1030 C1015 0.961 . S
H1031 C1015 0.960 . S
C1032 C1033 1.391 . S
C1032 C1034 1.394 . S
C1032 H1048 0.931 . S
C1033 C1032 1.391 . S
C1033 C1037 1.376 . S
C1034 C1032 1.394 . S
C1034 C1035 1.369 . S
C1034 C1038 1.531 . S
C1035 C1034 1.369 . S
C1035 C1036 1.410 . S
C1035 C1043 1.503 . S
C1036 C1035 1.410 . S
C1036 C1037 1.392 . S
C1036 C1039 1.511 . S
C1037 C1033 1.376 . S
C1037 C1036 1.392 . S
C1037 H1049 0.929 . S
C1038 C1034 1.531 . S
C1038 H1050 0.960 . S
C1038 H1051 0.962 . S
C1038 H1052 0.960 . S
C1039 C1036 1.511 . S
C1039 H1053 0.961 . S
C1039 H1054 0.961 . S
C1039 H1055 0.961 . S
C1040 C1041 1.370 . S
C1040 C1042 1.363 . S
C1040 H1056 0.931 . S
C1041 C1040 1.370 . S
C1041 C1045 1.408 . S
C1042 C1040 1.363 . S
C1042 C1043 1.370 . S
C1042 C1046 1.524 . S
C1043 C1035 1.503 . S
C1043 C1042 1.370 . S
C1043 C1044 1.403 . S
C1044 C1043 1.403 . S
C1044 C1045 1.404 . S
C1044 C1047 1.539 . S
C1045 C1041 1.408 . S
C1045 C1044 1.404 . S
C1045 H1057 0.930 . S
C1046 C1042 1.524 . S
C1046 H1058 0.956 . S
C1046 H1059 0.961 . S
C1046 H1060 0.961 . S
C1047 C1044 1.539 . S
C1047 H1061 0.958 . S
C1047 H1062 0.961 . S
C1047 H1063 0.960 . S
H1048 C1032 0.931 . S
H1049 C1037 0.929 . S
H1050 C1038 0.960 . S
H1051 C1038 0.962 . S
H1052 C1038 0.960 . S
H1053 C1039 0.961 . S
H1054 C1039 0.961 . S
H1055 C1039 0.961 . S
H1056 C1040 0.931 . S
H1057 C1045 0.930 . S
H1058 C1046 0.956 . S
H1059 C1046 0.961 . S
H1060 C1046 0.961 . S
H1061 C1047 0.958 . S
H1062 C1047 0.961 . S
H1063 C1047 0.960 . S
C1064 C1065 1.391 . S
C1064 C1066 1.394 . S
C1064 H1080 0.931 . S
C1065 C1064 1.391 . S
C1065 C1069 1.376 . S
C1066 C1064 1.394 . S
C1066 C1067 1.369 . S
C1066 C1070 1.531 . S
C1067 C1066 1.369 . S
C1067 C1068 1.410 . S
C1067 C1075 1.503 . S
C1068 C1067 1.410 . S
C1068 C1069 1.392 . S
C1068 C1071 1.511 . S
C1069 C1065 1.376 . S
C1069 C1068 1.392 . S
C1069 H1081 0.929 . S
C1070 C1066 1.531 . S
C1070 H1082 0.960 . S
C1070 H1083 0.962 . S
C1070 H1084 0.960 . S
C1071 C1068 1.511 . S
C1071 H1085 0.961 . S
C1071 H1086 0.961 . S
C1071 H1087 0.961 . S
C1072 C1073 1.370 . S
C1072 C1074 1.363 . S
C1072 H1088 0.931 . S
C1073 C1072 1.370 . S
C1073 C1077 1.408 . S
C1074 C1072 1.363 . S
C1074 C1075 1.370 . S
C1074 C1078 1.524 . S
C1075 C1067 1.503 . S
C1075 C1074 1.370 . S
C1075 C1076 1.403 . S
C1076 C1075 1.403 . S
C1076 C1077 1.404 . S
C1076 C1079 1.539 . S
C1077 C1073 1.408 . S
C1077 C1076 1.404 . S
C1077 H1089 0.930 . S
C1078 C1074 1.524 . S
C1078 H1090 0.956 . S
C1078 H1091 0.961 . S
C1078 H1092 0.961 . S
C1079 C1076 1.539 . S
C1079 H1093 0.958 . S
C1079 H1094 0.961 . S
C1079 H1095 0.960 . S
H1080 C1064 0.931 . S
H1081 C1069 0.929 . S
H1082 C1070 0.960 . S
H1083 C1070 0.962 . S
H1084 C1070 0.960 . S
H1085 C1071 0.961 . S
H1086 C1071 0.961 . S
H1087 C1071 0.961 . S
H1088 C1072 0.931 . S
H1089 C1077 0.930 . S
H1090 C1078 0.956 . S
H1091 C1078 0.961 . S
H1092 C1078 0.961 . S
H1093 C1079 0.958 . S
H1094 C1079 0.961 . S
H1095 C1079 0.960 . S
C1096 C1097 1.391 . S
C1096 C1098 1.394 . S
C1096 H1112 0.931 . S
C1097 C1096 1.391 . S
C1097 C1101 1.376 . S
C1098 C1096 1.394 . S
C1098 C1099 1.369 . S
C1098 C1102 1.531 . S
C1099 C1098 1.369 . S
C1099 C1100 1.410 . S
C1099 C1107 1.503 . S
C1100 C1099 1.410 . S
C1100 C1101 1.392 . S
C1100 C1103 1.511 . S
C1101 C1097 1.376 . S
C1101 C1100 1.392 . S
C1101 H1113 0.929 . S
C1102 C1098 1.531 . S
C1102 H1114 0.960 . S
C1102 H1115 0.962 . S
C1102 H1116 0.960 . S
C1103 C1100 1.511 . S
C1103 H1117 0.961 . S
C1103 H1118 0.961 . S
C1103 H1119 0.961 . S
C1104 C1105 1.370 . S
C1104 C1106 1.363 . S
C1104 H1120 0.931 . S
C1105 C1104 1.370 . S
C1105 C1109 1.408 . S
C1106 C1104 1.363 . S
C1106 C1107 1.370 . S
C1106 C1110 1.524 . S
C1107 C1099 1.503 . S
C1107 C1106 1.370 . S
C1107 C1108 1.403 . S
C1108 C1107 1.403 . S
C1108 C1109 1.404 . S
C1108 C1111 1.539 . S
C1109 C1105 1.408 . S
C1109 C1108 1.404 . S
C1109 H1121 0.939 . S
C1110 C1106 1.524 . S
C1110 H1122 0.956 . S
C1110 H1123 0.961 . S
C1110 H1124 0.961 . S
C1111 C1108 1.539 . S
C1111 H1125 0.958 . S
C1111 H1126 0.961 1_655 S
C1111 H1127 0.960 . S
H1112 C1096 0.931 . S
H1113 C1101 0.929 . S
H1114 C1102 0.960 . S
H1115 C1102 0.962 . S
H1116 C1102 0.960 . S
H1117 C1103 0.961 . S
H1118 C1103 0.961 . S
H1119 C1103 0.961 . S
H1120 C1104 0.931 . S
H1121 C1109 0.939 . S
H1122 C1110 0.956 . S
H1123 C1110 0.961 . S
H1124 C1110 0.961 . S
H1125 C1111 0.958 . S
H1126 C1111 0.961 1_455 S
H1127 C1111 0.960 . S
C1128 C1129 1.391 . S
C1128 C1130 1.394 . S
C1128 H1144 0.931 . S
C1129 C1128 1.391 . S
C1129 C1133 1.376 . S
C1130 C1128 1.394 . S
C1130 C1131 1.369 . S
C1130 C1134 1.531 . S
C1131 C1130 1.369 . S
C1131 C1132 1.410 . S
C1131 C1139 1.503 . S
C1132 C1131 1.410 . S
C1132 C1133 1.392 . S
C1132 C1135 1.511 . S
C1133 C1129 1.376 . S
C1133 C1132 1.392 . S
C1133 H1145 0.929 . S
C1134 C1130 1.531 . S
C1134 H1146 0.960 . S
C1134 H1147 0.962 . S
C1134 H1148 0.960 . S
C1135 C1132 1.511 . S
C1135 H1149 0.961 . S
C1135 H1150 0.961 . S
C1135 H1151 0.961 . S
C1136 C1137 1.370 . S
C1136 C1138 1.363 . S
C1136 H1152 0.931 . S
C1137 C1136 1.370 . S
C1137 C1141 1.408 . S
C1138 C1136 1.363 . S
C1138 C1139 1.370 . S
C1138 C1142 1.524 . S
C1139 C1131 1.503 . S
C1139 C1138 1.370 . S
C1139 C1140 1.403 . S
C1140 C1139 1.403 . S
C1140 C1141 1.404 . S
C1140 C1143 1.539 . S
C1141 C1137 1.408 . S
C1141 C1140 1.404 . S
C1141 H1153 0.930 . S
C1142 C1138 1.524 . S
C1142 H1154 0.956 . S
C1142 H1155 0.961 . S
C1142 H1156 0.961 . S
C1143 C1140 1.539 . S
C1143 H1157 0.958 . S
C1143 H1158 0.961 . S
C1143 H1159 0.960 . S
H1144 C1128 0.931 . S
H1145 C1133 0.929 . S
H1146 C1134 0.960 . S
H1147 C1134 0.962 . S
H1148 C1134 0.960 . S
H1149 C1135 0.961 . S
H1150 C1135 0.961 . S
H1151 C1135 0.961 . S
H1152 C1136 0.931 . S
H1153 C1141 0.930 . S
H1154 C1142 0.956 . S
H1155 C1142 0.961 . S
H1156 C1142 0.961 . S
H1157 C1143 0.958 . S
H1158 C1143 0.961 . S
H1159 C1143 0.960 . S
C1160 C1161 1.391 . S
C1160 C1162 1.394 . S
C1160 H1176 0.931 . S
C1161 C1160 1.391 . S
C1161 C1165 1.376 . S
C1162 C1160 1.394 . S
C1162 C1163 1.369 . S
C1162 C1166 1.531 . S
C1163 C1162 1.369 . S
C1163 C1164 1.410 . S
C1163 C1171 1.503 . S
C1164 C1163 1.410 . S
C1164 C1165 1.392 . S
C1164 C1167 1.511 . S
C1165 C1161 1.376 . S
C1165 C1164 1.392 . S
C1165 H1177 0.929 . S
C1166 C1162 1.531 . S
C1166 H1178 0.960 . S
C1166 H1179 0.962 . S
C1166 H1180 0.960 . S
C1167 C1164 1.511 . S
C1167 H1181 0.961 . S
C1167 H1182 0.961 . S
C1167 H1183 0.961 . S
C1168 C1169 1.370 . S
C1168 C1170 1.363 . S
C1168 H1184 0.931 . S
C1169 C1168 1.370 . S
C1169 C1173 1.408 . S
C1170 C1168 1.363 . S
C1170 C1171 1.370 . S
C1170 C1174 1.524 . S
C1171 C1163 1.503 . S
C1171 C1170 1.370 . S
C1171 C1172 1.403 . S
C1172 C1171 1.403 . S
C1172 C1173 1.404 . S
C1172 C1175 1.539 . S
C1173 C1169 1.408 . S
C1173 C1172 1.404 . S
C1173 H1185 0.930 . S
C1174 C1170 1.524 . S
C1174 H1186 0.956 . S
C1174 H1187 0.961 . S
C1174 H1188 0.961 . S
C1175 C1172 1.539 . S
C1175 H1189 0.958 . S
C1175 H1190 0.961 . S
C1175 H1191 0.960 . S
H1176 C1160 0.931 . S
H1177 C1165 0.929 . S
H1178 C1166 0.960 . S
H1179 C1166 0.962 . S
H1180 C1166 0.960 . S
H1181 C1167 0.961 . S
H1182 C1167 0.961 . S
H1183 C1167 0.961 . S
H1184 C1168 0.931 . S
H1185 C1173 0.930 . S
H1186 C1174 0.956 . S
H1187 C1174 0.961 . S
H1188 C1174 0.961 . S
H1189 C1175 0.958 . S
H1190 C1175 0.961 . S
H1191 C1175 0.960 . S
C1192 C1193 1.391 . S
C1192 C1194 1.394 . S
C1192 H1208 0.931 . S
C1193 C1192 1.391 . S
C1193 C1197 1.376 . S
C1194 C1192 1.394 . S
C1194 C1195 1.369 . S
C1194 C1198 1.531 . S
C1195 C1194 1.369 . S
C1195 C1196 1.410 . S
C1195 C1203 1.503 . S
C1196 C1195 1.410 . S
C1196 C1197 1.392 . S
C1196 C1199 1.511 . S
C1197 C1193 1.376 . S
C1197 C1196 1.392 . S
C1197 H1209 0.929 . S
C1198 C1194 1.531 . S
C1198 H1210 0.960 . S
C1198 H1211 0.962 . S
C1198 H1212 0.960 . S
C1199 C1196 1.511 . S
C1199 H1213 0.961 . S
C1199 H1214 0.961 . S
C1199 H1215 0.961 . S
C1200 C1201 1.370 . S
C1200 C1202 1.363 . S
C1200 H1216 0.931 . S
C1201 C1200 1.370 . S
C1201 C1205 1.408 . S
C1202 C1200 1.363 . S
C1202 C1203 1.370 . S
C1202 C1206 1.524 . S
C1203 C1195 1.503 . S
C1203 C1202 1.370 . S
C1203 C1204 1.403 . S
C1204 C1203 1.403 . S
C1204 C1205 1.404 . S
C1204 C1207 1.539 . S
C1205 C1201 1.408 . S
C1205 C1204 1.404 . S
C1205 H1217 0.930 . S
C1206 C1202 1.524 . S
C1206 H1218 0.956 . S
C1206 H1219 0.961 . S
C1206 H1220 0.961 . S
C1207 C1204 1.539 . S
C1207 H1221 0.958 . S
C1207 H1222 0.961 . S
C1207 H1223 0.960 . S
H1208 C1192 0.931 . S
H1209 C1197 0.929 . S
H1210 C1198 0.960 . S
H1211 C1198 0.962 . S
H1212 C1198 0.960 . S
H1213 C1199 0.961 . S
H1214 C1199 0.961 . S
H1215 C1199 0.961 . S
H1216 C1200 0.931 . S
H1217 C1205 0.930 . S
H1218 C1206 0.956 . S
H1219 C1206 0.961 . S
H1220 C1206 0.961 . S
H1221 C1207 0.958 . S
H1222 C1207 0.961 . S
H1223 C1207 0.960 . S
C1224 C1225 1.391 . S
C1224 C1226 1.394 . S
C1224 H1240 0.931 . S
C1225 C1224 1.391 . S
C1225 C1229 1.376 . S
C1226 C1224 1.394 . S
C1226 C1227 1.369 . S
C1226 C1230 1.531 . S
C1227 C1226 1.369 . S
C1227 C1228 1.410 . S
C1227 C1235 1.503 . S
C1228 C1227 1.410 . S
C1228 C1229 1.392 . S
C1228 C1231 1.511 . S
C1229 C1225 1.376 . S
C1229 C1228 1.392 . S
C1229 H1241 0.929 . S
C1230 C1226 1.531 . S
C1230 H1242 0.960 . S
C1230 H1243 0.962 . S
C1230 H1244 0.960 . S
C1231 C1228 1.511 . S
C1231 H1245 0.961 . S
C1231 H1246 0.961 . S
C1231 H1247 0.961 . S
C1232 C1233 1.370 . S
C1232 C1234 1.363 . S
C1232 H1248 0.931 . S
C1233 C1232 1.370 . S
C1233 C1237 1.408 . S
C1234 C1232 1.363 . S
C1234 C1235 1.370 . S
C1234 C1238 1.524 . S
C1235 C1227 1.503 . S
C1235 C1234 1.370 . S
C1235 C1236 1.403 . S
C1236 C1235 1.403 . S
C1236 C1237 1.404 . S
C1236 C1239 1.539 . S
C1237 C1233 1.408 . S
C1237 C1236 1.404 . S
C1237 H1249 0.930 . S
C1238 C1234 1.524 . S
C1238 H1250 0.956 . S
C1238 H1251 0.961 . S
C1238 H1252 0.961 . S
C1239 C1236 1.539 . S
C1239 H1253 0.958 . S
C1239 H1254 0.961 . S
C1239 H1255 0.960 . S
H1240 C1224 0.931 . S
H1241 C1229 0.929 . S
H1242 C1230 0.960 . S
H1243 C1230 0.962 . S
H1244 C1230 0.960 . S
H1245 C1231 0.961 . S
H1246 C1231 0.961 . S
H1247 C1231 0.961 . S
H1248 C1232 0.931 . S
H1249 C1237 0.930 . S
H1250 C1238 0.956 . S
H1251 C1238 0.961 . S
H1252 C1238 0.961 . S
H1253 C1239 0.958 . S
H1254 C1239 0.961 . S
H1255 C1239 0.960 . S
C489 C116 1.818 . S
C497 C208 1.808 . S
C529 C292 1.810 . S
C521 C135 1.814 . S
C561 C291 1.812 . S
C553 C78 1.819 . S
C585 C97 1.816 . S
C593 C207 1.811 . S
C625 C388 1.813 . S
C617 C40 1.800 . S
C657 C472 1.805 . S
C649 C59 1.813 . S
C681 C2 1.820 . S
C689 C471 1.815 . S
C713 C21 1.796 . S
C721 C387 1.815 . S
C753 C210 1.548 . S
C745 C25 1.740 . S
C785 C294 1.549 . S
C777 C6 1.739 . S
C817 C306 1.450 . S
C809 C63 1.744 . S
C849 C222 1.468 . S
C841 C44 1.738 . S
C881 C390 1.549 . S
C873 C101 1.743 . S
C905 C82 1.736 . S
C913 C474 1.573 . S
C945 C462 1.493 . S
C937 C139 1.732 . S
C969 C120 1.727 . S
C977 C378 1.491 . S
C1009 C219 1.523 . S
C1001 C11 1.480 . S
C1041 C303 1.526 . S
C1033 C30 1.441 . S
C1065 C49 1.467 . S
C1073 C304 1.478 . S
C1105 C220 1.490 . S
C1097 C68 1.405 . S
C1137 C375 1.522 . S
C1129 C87 1.367 . S
C1161 C106 1.410 . S
C1169 C459 1.523 . S
C1193 C125 1.427 . S
C1201 C460 1.491 . S
C1225 C144 1.440 . S
C1233 C376 1.486 . S
