# Generated by pormake.
# Topology zzz, (3,6)-cn, num edge types: 1
# Building blocks:
#     Node 0, Type 0, BuildingBlock: BETDIP_clean_linker_0, # of connection points: 3
#     Node 1, Type 0, BuildingBlock: BETDIP_clean_linker_0, # of connection points: 3
#     Node 2, Type 0, BuildingBlock: BETDIP_clean_linker_0, # of connection points: 3
#     Node 3, Type 0, BuildingBlock: BETDIP_clean_linker_0, # of connection points: 3
#     Node 4, Type 0, BuildingBlock: BETDIP_clean_linker_0, # of connection points: 3
#     Node 5, Type 0, BuildingBlock: BETDIP_clean_linker_0, # of connection points: 3
#     Node 6, Type 0, BuildingBlock: BETDIP_clean_linker_0, # of connection points: 3
#     Node 7, Type 0, BuildingBlock: BETDIP_clean_linker_0, # of connection points: 3
#     Node 8, Type 1, BuildingBlock: KUMBOL_clean_sbu_1, # of connection points: 6
#     Node 9, Type 1, BuildingBlock: KUMBOL_clean_sbu_1, # of connection points: 6
#     Node 10, Type 1, BuildingBlock: KUMBOL_clean_sbu_1, # of connection points: 6
#     Node 11, Type 1, BuildingBlock: KUMBOL_clean_sbu_1, # of connection points: 6
#     Edge 12, Type (0, 1), BuildingBlock: AJUNOK_clean_linker_0, # of connection points: 2
#     Edge 13, Type (0, 1), BuildingBlock: AJUNOK_clean_linker_0, # of connection points: 2
#     Edge 14, Type (0, 1), BuildingBlock: AJUNOK_clean_linker_0, # of connection points: 2
#     Edge 15, Type (0, 1), BuildingBlock: AJUNOK_clean_linker_0, # of connection points: 2
#     Edge 16, Type (0, 1), BuildingBlock: AJUNOK_clean_linker_0, # of connection points: 2
#     Edge 17, Type (0, 1), BuildingBlock: AJUNOK_clean_linker_0, # of connection points: 2
#     Edge 18, Type (0, 1), BuildingBlock: AJUNOK_clean_linker_0, # of connection points: 2
#     Edge 19, Type (0, 1), BuildingBlock: AJUNOK_clean_linker_0, # of connection points: 2
#     Edge 20, Type (0, 1), BuildingBlock: AJUNOK_clean_linker_0, # of connection points: 2
#     Edge 21, Type (0, 1), BuildingBlock: AJUNOK_clean_linker_0, # of connection points: 2
#     Edge 22, Type (0, 1), BuildingBlock: AJUNOK_clean_linker_0, # of connection points: 2
#     Edge 23, Type (0, 1), BuildingBlock: AJUNOK_clean_linker_0, # of connection points: 2
#     Edge 24, Type (0, 1), BuildingBlock: AJUNOK_clean_linker_0, # of connection points: 2
#     Edge 25, Type (0, 1), BuildingBlock: AJUNOK_clean_linker_0, # of connection points: 2
#     Edge 26, Type (0, 1), BuildingBlock: AJUNOK_clean_linker_0, # of connection points: 2
#     Edge 27, Type (0, 1), BuildingBlock: AJUNOK_clean_linker_0, # of connection points: 2
#     Edge 28, Type (0, 1), BuildingBlock: AJUNOK_clean_linker_0, # of connection points: 2
#     Edge 29, Type (0, 1), BuildingBlock: AJUNOK_clean_linker_0, # of connection points: 2
#     Edge 30, Type (0, 1), BuildingBlock: AJUNOK_clean_linker_0, # of connection points: 2
#     Edge 31, Type (0, 1), BuildingBlock: AJUNOK_clean_linker_0, # of connection points: 2
#     Edge 32, Type (0, 1), BuildingBlock: AJUNOK_clean_linker_0, # of connection points: 2
#     Edge 33, Type (0, 1), BuildingBlock: AJUNOK_clean_linker_0, # of connection points: 2
#     Edge 34, Type (0, 1), BuildingBlock: AJUNOK_clean_linker_0, # of connection points: 2
#     Edge 35, Type (0, 1), BuildingBlock: AJUNOK_clean_linker_0, # of connection points: 2
# Relax obj value: 0.244
# Max RMSD: 0.126
# Mean RMSD: 0.085
data_MOF--net-zzz--node1-KUMBOL_clean_sbu_1--node2-BETDIP_clean_linker_0--edge1-AJUNOK_clean_linker_0
_symmetry_space_group_name_H-M    P1
_symmetry_Int_Tables_number       1
_symmetry_cell_setting            triclinic
loop_
_symmetry_equiv_pos_as_xyz
'x, y, z'
_cell_length_a     36.437266
_cell_length_b     36.507895
_cell_length_c     11.426913
_cell_angle_alpha  90.492301
_cell_angle_beta   90.420237
_cell_angle_gamma 90.405804
loop_
_atom_site_label
_atom_site_type_symbol
_atom_site_fract_x
_atom_site_fract_y
_atom_site_fract_z
_atom_type_partial_charge
H0 H 0.78368 0.54735 0.54926 0.0
H1 H 0.76844 0.59906 0.21531 0.0
H2 H 0.87692 0.58197 0.35076 0.0
H3 H 0.71246 0.61419 0.32114 0.0
C4 C 0.70667 0.58505 0.31282 0.0
C5 C 0.79498 0.56027 0.47245 0.0
C6 C 0.83369 0.56749 0.46621 0.0
C7 C 0.771 0.57107 0.37865 0.0
C8 C 0.78639 0.58881 0.28249 0.0
C9 C 0.82414 0.58899 0.2639 0.0
C10 C 0.84741 0.58066 0.35976 0.0
N11 N 0.73244 0.56156 0.37185 0.0
H12 H 1.01995 0.79515 0.54158 0.0
H13 H 0.99771 0.7746 0.17466 0.0
H14 H 1.02118 0.8836 0.29458 0.0
H15 H 0.9595 0.72585 0.27849 0.0
C16 C 0.98706 0.71624 0.29752 0.0
C17 C 1.01603 0.80519 0.45356 0.0
C18 C 1.01894 0.84397 0.43152 0.0
C19 C 1.00858 0.77954 0.35904 0.0
C20 C 1.0037 0.79329 0.24632 0.0
C21 C 1.01027 0.82993 0.22164 0.0
C22 C 1.01646 0.85498 0.3143 0.0
N23 N 1.00967 0.74009 0.37056 0.0
H24 H 0.78456 0.05943 0.47298 0.0
H25 H 0.80371 0.99049 0.17036 0.0
H26 H 0.70168 0.98356 0.35232 0.0
H27 H 0.86355 0.98561 0.28835 0.0
C28 C 0.86656 1.0145 0.26808 0.0
C29 C 0.77593 0.03736 0.41502 0.0
C30 C 0.7396 1.02196 0.42553 0.0
C31 C 0.80079 1.02377 0.32703 0.0
C32 C 0.78739 0.99769 0.24596 0.0
C33 C 0.7515 0.98439 0.25191 0.0
C34 C 0.72956 0.99403 0.3477 0.0
N35 N 0.83757 0.03807 0.30973 0.0
H36 H 0.53301 0.79418 0.44691 0.0
H37 H 0.60146 0.82397 0.15875 0.0
H38 H 0.61827 0.72166 0.33238 0.0
H39 H 0.59565 0.88212 0.26287 0.0
C40 C 0.56681 0.88005 0.23823 0.0
C41 C 0.55584 0.78813 0.39 0.0
C42 C 0.57578 0.75456 0.40443 0.0
C43 C 0.56648 0.8142 0.30271 0.0
C44 C 0.59511 0.805 0.22731 0.0
C45 C 0.61226 0.77077 0.22958 0.0
C46 C 0.60429 0.74742 0.32476 0.0
N47 N 0.54731 0.84818 0.28077 0.0
H48 H 0.29665 0.52084 0.03954 0.0
H49 H 0.31946 0.50305 0.40586 0.0
H50 H 0.209 0.51964 0.29186 0.0
H51 H 0.36766 0.46276 0.29673 0.0
C52 C 0.37666 0.49065 0.2797 0.0
C53 C 0.28707 0.51664 0.1279 0.0
C54 C 0.24834 0.51806 0.15216 0.0
C55 C 0.31324 0.51034 0.22071 0.0
C56 C 0.30017 0.50592 0.33385 0.0
C57 C 0.26345 0.5108 0.35997 0.0
C58 C 0.23757 0.51537 0.26969 0.0
N59 N 0.35256 0.5125 0.20767 0.0
H60 H 0.06136 0.30474 0.04307 0.0
H61 H 0.99709 0.33755 0.3421 0.0
H62 H 0.98112 0.2312 0.19333 0.0
H63 H 1.0044 0.39587 0.18453 0.0
C64 C 0.03013 0.39367 0.23247 0.0
C65 C 0.04037 0.29859 0.10652 0.0
C66 C 1.02062 0.2641 0.09997 0.0
C67 C 0.03154 0.32576 0.19471 0.0
C68 C 1.00383 0.31774 0.27448 0.0
C69 C 0.98594 0.28404 0.27302 0.0
C70 C 0.99449 0.25775 0.18781 0.0
N71 N 0.05045 0.36049 0.20974 0.0
H72 H 0.27897 0.0968 0.03765 0.0
H73 H 0.24193 1.00365 0.23739 0.0
H74 H 0.34317 0.99835 0.05041 0.0
H75 H 0.18385 1.0276 0.1444 0.0
C76 C 0.1884 0.05202 0.19775 0.0
C77 C 0.28226 0.0687 0.06512 0.0
C78 C 0.31405 0.04853 0.02937 0.0
C79 C 0.25481 0.05193 0.13756 0.0
C80 C 0.26084 1.016 0.17624 0.0
C81 C 0.29251 0.99683 0.14584 0.0
C82 C 0.318 1.0128 0.07021 0.0
N83 N 0.22282 0.07107 0.18034 0.0
H84 H 0.51404 0.30323 0.04415 0.0
H85 H 0.58493 0.26235 0.31701 0.0
H86 H 0.60351 0.36923 0.18302 0.0
H87 H 0.56644 0.20571 0.16555 0.0
C88 C 0.54223 0.21101 0.21799 0.0
C89 C 0.53745 0.30715 0.10166 0.0
C90 C 0.55954 0.34001 0.09429 0.0
C91 C 0.54679 0.27863 0.18304 0.0
C92 C 0.57783 0.28328 0.25419 0.0
C93 C 0.59845 0.31539 0.25209 0.0
C94 C 0.58871 0.34348 0.1754 0.0
N95 N 0.52496 0.24604 0.20065 0.0
C96 C 0.13618 0.10586 0.93471 0.0
C97 C 0.11543 0.13444 0.11503 0.0
C98 C 0.10956 0.10978 1.02076 0.0
C99 C 0.14858 0.15412 0.12352 0.0
C100 C 0.16932 0.12604 0.94253 0.0
C101 C 0.17556 0.1497 0.03817 0.0
N102 N 0.12943 0.08286 0.84255 0.0
C103 C 0.15482 0.07868 0.75599 0.0
C104 C 0.19516 0.12211 0.85344 0.0
C105 C 0.1878 0.09842 0.75963 0.0
Gd106 Gd 0.99155 0.06175 0.65544 0.0
Gd107 Gd 0.07592 0.04683 0.85698 0.0
N108 N 0.0775 0.09054 1.01 0.0
C109 C 0.08767 0.1389 0.19763 0.0
C110 C 0.05064 0.09447 0.09173 0.0
C111 C 0.05511 0.11893 0.1856 0.0
H112 H 1.02586 0.07862 0.08695 0.0
H113 H 0.03354 0.12205 0.24945 0.0
H114 H 0.0318 0.06729 0.3855 0.0
H115 H 0.15064 0.05886 0.68669 0.0
H116 H 0.04037 1.02713 0.21454 0.0
H117 H 0.09111 0.15763 0.27101 0.0
H118 H 0.15346 0.1732 0.19517 0.0
H119 H 0.92204 1.02467 0.80607 0.0
H120 H 0.22091 0.13714 0.85643 0.0
H121 H 0.20784 0.09483 0.69108 0.0
H122 H 0.96043 0.92528 0.28259 0.0
H123 H 0.20091 0.16526 0.04576 0.0
H124 H 0.8835 0.92966 0.61965 0.0
H125 H 0.87976 0.97169 0.79 0.0
N126 N 0.95014 1.01206 0.64868 0.0
C127 C 0.95176 0.99011 0.55194 0.0
C128 C 0.92434 1.00607 0.73275 0.0
C129 C 0.90213 0.95286 0.62634 0.0
C130 C 0.90005 0.9764 0.72297 0.0
C131 C 0.92832 0.95938 0.53977 0.0
H132 H 0.91468 0.91181 0.43299 0.0
N133 N 0.99895 1.02874 0.47803 0.0
C134 C 0.9775 0.99809 0.46616 0.0
C135 C 1.00431 0.98508 0.27755 0.0
C136 C 0.98019 0.97514 0.36649 0.0
C137 C 1.01896 0.04063 0.3849 0.0
C138 C 1.02298 1.01844 0.28542 0.0
O139 O 0.0644 0.10757 0.81778 0.0
O140 O 1.00214 0.10812 0.78935 0.0
O141 O 0.97596 0.10704 0.54262 0.0
O142 O 0.93435 0.07306 0.6199 0.0
O143 O 1.01918 1.03017 0.93403 0.0
O144 O 0.97752 0.06868 0.84683 0.0
O145 O 1.00314 1.00277 0.71739 0.0
O146 O 0.0652 1.00072 0.72158 0.0
O147 O 0.08232 1.011 1.00576 0.0
O148 O 0.12856 1.02188 0.89396 0.0
O149 O 0.04804 0.0801 0.58156 0.0
O150 O 0.0871 0.03873 0.66425 0.0
C151 C 0.03289 0.12518 0.82066 0.0
C152 C 0.98659 0.04644 0.93177 0.0
C153 C 0.9227 0.13604 0.61391 0.0
C154 C 0.91088 0.20112 0.59762 0.0
C155 C 0.89222 0.16892 0.7717 0.0
C156 C 0.90633 0.13636 0.72532 0.0
C157 C 0.89497 0.20149 0.70879 0.0
C158 C 0.92407 0.16831 0.55008 0.0
C159 C 0.94123 0.10342 0.5669 0.0
C160 C 0.95812 0.94357 0.35714 0.0
C161 C 0.93199 0.93592 0.44277 0.0
H162 H 1.00744 0.96803 0.2002 0.0
C163 C 0.03351 0.98427 0.69988 0.0
C164 C 0.0796 0.06218 0.58128 0.0
C165 C 0.1232 0.96311 0.96704 0.0
C166 C 0.09832 0.90181 0.93669 0.0
C167 C 0.16143 0.9109 1.00618 0.0
C168 C 0.15657 0.94873 1.00545 0.0
C169 C 0.13224 0.88752 0.97587 0.0
C170 C 0.09579 0.93978 0.92278 0.0
C171 C 0.11585 1.0022 0.97817 0.0
H172 H 0.88016 0.16911 0.85797 0.0
H173 H 0.90517 0.11179 0.77771 0.0
H174 H 0.88553 0.2269 0.74741 0.0
H175 H 0.93758 0.16839 0.46566 0.0
H176 H 0.18701 0.89962 0.03778 0.0
H177 H 0.17842 0.9666 0.037 0.0
H178 H 0.13589 0.85868 0.99214 0.0
H179 H 0.07081 0.95159 0.8891 0.0
C180 C 0.53286 0.92711 0.69805 0.0
C181 C 0.47932 0.89819 0.78533 0.0
C182 C 0.49678 0.92908 0.73665 0.0
C183 C 0.49851 0.86522 0.79483 0.0
C184 C 0.55183 0.89358 0.70533 0.0
C185 C 0.53446 0.86284 0.75382 0.0
N186 N 0.54862 0.95715 0.64795 0.0
C187 C 0.58246 0.95424 0.59762 0.0
C188 C 0.58722 0.89147 0.65963 0.0
C189 C 0.60249 0.92186 0.60514 0.0
Gd190 Gd 0.54671 0.07969 0.85279 0.0
Gd191 Gd 0.50954 1.00856 0.62915 0.0
N192 N 0.47852 0.9612 0.72527 0.0
C193 C 0.44268 0.90104 0.82004 0.0
C194 C 0.44223 0.96352 0.75316 0.0
C195 C 0.42397 0.93378 0.80285 0.0
H196 H 0.42733 0.98823 0.7365 0.0
H197 H 0.39536 0.93602 0.8264 0.0
H198 H 0.64015 0.07887 0.84286 0.0
H199 H 0.59396 0.97584 0.54638 0.0
H200 H 0.68996 0.11948 0.7789 0.0
H201 H 0.42838 0.87791 0.8578 0.0
H202 H 0.48549 0.84112 0.83113 0.0
H203 H 0.47538 0.13373 0.90637 0.0
H204 H 0.60251 0.86617 0.66219 0.0
H205 H 0.62931 0.92006 0.56547 0.0
H206 H 0.63047 0.23374 0.70362 0.0
H207 H 0.54815 0.83673 0.75725 0.0
H208 H 0.5038 0.24324 0.80856 0.0
H209 H 0.45862 0.19887 0.88605 0.0
N210 N 0.52904 0.14114 0.83847 0.0
C211 C 0.55481 0.16533 0.80163 0.0
C212 C 0.49518 0.15287 0.87204 0.0
C213 C 0.51124 0.2147 0.81714 0.0
C214 C 0.48567 0.18974 0.86101 0.0
C215 C 0.54643 0.20271 0.78781 0.0
H216 H 0.56767 0.25574 0.73623 0.0
N217 N 0.59775 0.11738 0.80864 0.0
C218 C 0.59016 0.15292 0.78431 0.0
C219 C 0.6542 0.16498 0.74537 0.0
C220 C 0.61811 0.17764 0.75136 0.0
C221 C 0.63339 0.10591 0.81275 0.0
C222 C 0.66194 0.12913 0.77839 0.0
O223 O 0.50761 0.99794 0.82588 0.0
O224 O 0.56337 1.01975 0.86777 0.0
O225 O 0.52394 0.06877 1.02395 0.0
O226 O 0.57419 0.1005 1.00906 0.0
O227 O 0.46343 0.04607 0.6948 0.0
O228 O 0.48568 0.06619 0.87398 0.0
O229 O 0.51734 0.10418 0.6927 0.0
O230 O 0.52815 0.06237 0.54645 0.0
O231 O 0.46221 1.00667 0.51119 0.0
O232 O 0.51008 0.97442 0.47372 0.0
O233 O 0.59036 0.04437 0.7652 0.0
O234 O 0.56664 0.03308 0.58321 0.0
C235 C 0.53769 0.99536 0.88784 0.0
C236 C 0.4579 0.05912 0.80192 0.0
C237 C 0.57264 0.0526 0.14485 0.0
C238 C 0.62191 1.00759 0.15964 0.0
C239 C 0.5747 1.01153 0.30858 0.0
C240 C 0.55747 0.03963 0.24841 0.0
C241 C 0.60691 0.99609 0.26658 0.0
C242 C 0.60386 0.03547 0.09847 0.0
C243 C 0.55358 0.08055 0.07665 0.0
C244 C 0.60945 0.21447 0.7303 0.0
C245 C 0.57369 0.22701 0.74895 0.0
H246 H 0.67644 0.18306 0.72023 0.0
C247 C 0.52282 0.09651 0.58122 0.0
C248 C 0.59532 0.04003 0.65212 0.0
C249 C 0.45269 0.94628 0.4383 0.0
C250 C 0.39337 0.91862 0.39082 0.0
C251 C 0.44441 0.88 0.44444 0.0
C252 C 0.4669 0.911 0.45768 0.0
C253 C 0.40775 0.88368 0.40998 0.0
C254 C 0.41587 0.94971 0.40596 0.0
C255 C 0.47569 0.97964 0.45033 0.0
H256 H 0.56339 1.0019 0.38886 0.0
H257 H 0.53226 0.05104 0.28218 0.0
H258 H 0.6202 0.97558 0.31961 0.0
H259 H 0.6133 0.04345 1.01306 0.0
H260 H 0.45564 0.85303 0.45896 0.0
H261 H 0.4954 0.90719 0.48162 0.0
H262 H 0.39083 0.85946 0.39683 0.0
H263 H 0.40497 0.9767 0.38821 0.0
C264 C 0.4361 0.51766 0.90068 0.0
C265 C 0.44927 0.47788 0.06421 0.0
C266 C 0.46014 0.50534 0.98563 0.0
C267 C 0.41397 0.46244 0.05402 0.0
C268 C 0.40023 0.50309 0.8924 0.0
C269 C 0.38938 0.47523 0.96907 0.0
N270 N 0.44789 0.54378 0.82575 0.0
C271 C 0.42467 0.55766 0.74314 0.0
C272 C 0.3765 0.51669 0.80648 0.0
C273 C 0.38874 0.54426 0.73195 0.0
Gd274 Gd 0.5912 0.53578 0.64913 0.0
Gd275 Gd 0.5096 0.56246 0.84432 0.0
N276 N 0.49479 0.5192 0.98809 0.0
C277 C 0.47464 0.46592 0.14799 0.0
C278 C 0.51929 0.50854 0.07189 0.0
C279 C 0.50965 0.48169 0.15283 0.0
H280 H 0.54662 0.52004 0.07414 0.0
H281 H 0.5294 0.47278 0.21762 0.0
H282 H 0.54097 0.52403 0.39302 0.0
H283 H 0.43376 0.57933 0.68619 0.0
H284 H 0.52391 0.56272 0.22733 0.0
H285 H 0.46757 0.44441 0.20863 0.0
H286 H 0.40547 0.44052 0.11134 0.0
H287 H 0.6668 0.57378 0.76801 0.0
H288 H 0.34871 0.50624 0.79733 0.0
H289 H 0.37053 0.55518 0.66578 0.0
H290 H 0.61223 0.65833 0.23759 0.0
H291 H 0.36208 0.46335 0.96327 0.0
H292 H 0.70188 0.66101 0.54605 0.0
H293 H 0.71046 0.62398 0.72433 0.0
N294 N 0.63399 0.58272 0.61665 0.0
C295 C 0.62972 0.60154 0.51552 0.0
C296 C 0.66274 0.59016 0.69078 0.0
C297 C 0.68284 0.63891 0.5646 0.0
C298 C 0.68764 0.61825 0.66567 0.0
C299 C 0.65357 0.6308 0.48845 0.0
H300 H 0.66502 0.67403 0.36547 0.0
N301 N 0.57845 0.5633 0.4671 0.0
C302 C 0.60051 0.59237 0.44113 0.0
C303 C 0.56575 0.60281 0.26378 0.0
C304 C 0.59449 0.61286 0.33909 0.0
C305 C 0.55404 0.5504 0.38485 0.0
C306 C 0.54565 0.57119 0.28632 0.0
O307 O 0.51828 0.49968 0.82829 0.0
O308 O 0.57993 0.49442 0.79264 0.0
O309 O 0.60313 0.48719 0.54348 0.0
O310 O 0.64719 0.5204 0.61263 0.0
O311 O 0.56665 0.57066 0.93166 0.0
O312 O 0.61054 0.53563 0.83835 0.0
O313 O 0.58328 0.59707 0.69921 0.0
O314 O 0.52172 0.60142 0.69323 0.0
O315 O 0.52068 0.59966 0.98799 0.0
O316 O 0.46953 0.60415 0.89158 0.0
O317 O 0.5331 0.51464 0.59474 0.0
O318 O 0.49907 0.56348 0.64969 0.0
C319 C 0.54869 0.48001 0.82799 0.0
C320 C 0.59937 0.55504 0.92884 0.0
C321 C 0.65631 0.45716 0.61214 0.0
C322 C 0.67297 0.3933 0.58801 0.0
C323 C 0.68427 0.42404 0.77348 0.0
C324 C 0.66947 0.4563 0.72828 0.0
C325 C 0.68552 0.39232 0.70413 0.0
C326 C 0.6588 0.42587 0.54245 0.0
C327 C 0.63827 0.48965 0.56366 0.0
C328 C 0.6174 0.64252 0.31433 0.0
C329 C 0.64715 0.65133 0.38749 0.0
H330 H 0.5598 0.61851 0.18595 0.0
C331 C 0.55389 0.61667 0.67508 0.0
C332 C 0.50266 0.53407 0.58497 0.0
C333 C 0.50233 0.65901 0.93419 0.0
C334 C 0.54904 0.70741 0.91607 0.0
C335 C 0.48386 0.72128 0.89435 0.0
C336 C 0.47466 0.68475 0.91558 0.0
C337 C 0.52056 0.73276 0.89719 0.0
C338 C 0.53931 0.67022 0.92693 0.0
C339 C 0.49301 0.62051 0.96118 0.0
H340 H 0.69381 0.42336 0.86336 0.0
H341 H 0.66769 0.48021 0.78468 0.0
H342 H 0.69544 0.36704 0.74135 0.0
H343 H 0.64767 0.42629 0.45405 0.0
H344 H 0.46234 0.74114 0.88107 0.0
H345 H 0.44601 0.67668 0.91824 0.0
H346 H 0.52602 0.76182 0.89133 0.0
H347 H 0.56059 0.64991 0.93458 0.0
C348 C 0.09253 0.4518 1.00859 0.0
C349 C 0.11473 0.47793 0.19225 0.0
C350 C 0.09083 0.47908 0.09442 0.0
C351 C 0.13988 0.44918 0.20296 0.0
C352 C 0.11776 0.42287 1.01941 0.0
C353 C 0.14122 0.42162 0.11724 0.0
N354 N 0.07064 0.45445 0.91199 0.0
C355 C 0.07163 0.42849 0.82545 0.0
C356 C 0.11917 0.39637 0.9303 0.0
C357 C 0.09598 0.39919 0.83304 0.0
Gd358 Gd 0.05265 0.58737 0.72581 0.0
Gd359 Gd 1.02851 0.50259 0.91258 0.0
N360 N 0.06631 0.50688 0.0816 0.0
C361 C 0.11266 0.50567 0.27689 0.0
C362 C 0.06234 0.53219 0.16925 0.0
C363 C 0.08615 0.53272 0.26573 0.0
H364 H 0.04027 0.55138 0.16849 0.0
H365 H 0.08367 0.5537 0.33255 0.0
H366 H 0.03264 0.5496 0.46117 0.0
H367 H 0.05316 0.42989 0.75145 0.0
H368 H 0.98786 0.55778 0.30214 0.0
H369 H 0.13078 0.50597 0.35252 0.0
H370 H 0.15837 0.44796 0.27754 0.0
H371 H 0.04538 0.66233 0.89945 0.0
H372 H 0.13813 0.3737 0.9356 0.0
H373 H 0.0967 0.37867 0.76416 0.0
H374 H 0.92392 0.66708 0.40826 0.0
H375 H 0.16083 0.39965 0.12679 0.0
H376 H 0.96111 0.73032 0.75906 0.0
H377 H 1.00739 0.71768 0.91265 0.0
N378 N 1.01938 0.64229 0.74398 0.0
C379 C 0.99534 0.64965 0.65577 0.0
C380 C 1.02441 0.66674 0.83406 0.0
C381 C 0.97746 0.7057 0.75345 0.0
C382 C 1.0034 0.69858 0.84063 0.0
C383 C 0.97324 0.68123 0.65928 0.0
H384 H 0.93012 0.71119 0.57119 0.0
N385 N 1.01367 0.59463 0.56225 0.0
C386 C 0.99235 0.62512 0.56242 0.0
C387 C 0.9644 0.60604 0.37937 0.0
C388 C 0.96669 0.63128 0.47182 0.0
C389 C 1.01353 0.5717 0.46744 0.0
C390 C 0.98855 0.57666 0.37564 0.0
O391 O 0.08904 0.51028 0.85975 0.0
O392 O 0.09444 0.57197 0.86844 0.0
O393 O 0.09499 0.59157 0.59477 0.0
O394 O 0.08213 0.63866 0.70136 0.0
O395 O 1.0085 0.55912 0.98143 0.0
O396 O 0.05556 0.59579 0.92227 0.0
O397 O 0.99066 0.57886 0.75181 0.0
O398 O 0.98262 0.51729 0.78153 0.0
O399 O 0.99726 0.48626 0.064 0.0
O400 O 0.9989 0.45064 0.9129 0.0
O401 O 0.06301 0.53055 0.63585 0.0
O402 O 1.0223 0.4899 0.7196 0.0
C403 C 0.10915 0.53949 0.88431 0.0
C404 C 1.02739 0.59023 0.99075 0.0
C405 C 0.14436 0.62472 0.67947 0.0
C406 C 0.20056 0.59052 0.7108 0.0
C407 C 0.18975 0.6462 0.82193 0.0
C408 C 0.1558 0.65027 0.76541 0.0
C409 C 0.21192 0.61608 0.79622 0.0
C410 C 0.16777 0.59623 0.64952 0.0
C411 C 0.10631 0.62338 0.63468 0.0
C412 C 0.94398 0.66214 0.47669 0.0
C413 C 0.9475 0.68724 0.56953 0.0
H414 H 0.94468 0.60941 0.30927 0.0
C415 C 0.96983 0.54918 0.7463 0.0
C416 C 0.04389 0.49927 0.6331 0.0
C417 C 0.94259 0.45923 1.00223 0.0
C418 C 0.88841 0.49737 0.98594 0.0
C419 C 0.8826 0.4317 1.02186 0.0
C420 C 0.92078 0.42833 1.02222 0.0
C421 C 0.86646 0.46606 1.00664 0.0
C422 C 0.92624 0.49282 0.97751 0.0
C423 C 0.9825 0.45814 1.01033 0.0
H424 H 0.19846 0.66594 0.88784 0.0
H425 H 0.13821 0.6727 0.79103 0.0
H426 H 0.23784 0.61289 0.84186 0.0
H427 H 0.15999 0.57781 0.57848 0.0
H428 H 0.86553 0.40799 0.03911 0.0
H429 H 0.93317 0.40205 0.0399 0.0
H430 H 0.83712 0.46813 1.0183 0.0
H431 H 0.94353 0.51627 0.96038 0.0
C432 C 0.13513 1.02961 0.31656 0.0
C433 C 0.16071 0.05804 0.29506 0.0
C434 C 0.10891 0.03177 0.40667 0.0
C435 C 0.1052 0.06325 0.47737 0.0
H436 H 0.13596 1.00463 0.26473 0.0
H437 H 0.0914 1.00823 0.42156 0.0
S438 S 0.16487 0.14593 0.4608 0.0
N439 N 0.18108 0.11869 0.35725 0.0
N440 N 0.12997 0.12385 0.52018 0.0
C441 C 0.12998 0.09239 0.45606 0.0
C442 C 0.15798 0.08959 0.36672 0.0
C443 C 0.5545 0.15028 0.3117 0.0
C444 C 0.53407 0.18303 0.3125 0.0
C445 C 0.55047 0.12323 0.39821 0.0
C446 C 0.52579 0.12696 0.49168 0.0
H447 H 0.5744 0.14551 0.24334 0.0
H448 H 0.56762 0.09931 0.3929 0.0
S449 S 0.46515 0.20725 0.53756 0.0
N450 N 0.48787 0.21761 0.41742 0.0
N451 N 0.48009 0.16668 0.57917 0.0
C452 C 0.50511 0.15966 0.49474 0.0
C453 C 0.50917 0.1875 0.40559 0.0
C454 C 0.4315 0.47725 0.4085 0.0
C455 C 0.41047 0.50352 0.34742 0.0
C456 C 0.46188 0.48703 0.48054 0.0
C457 C 0.47238 0.52382 0.49839 0.0
H458 H 0.42417 0.44851 0.40131 0.0
H459 H 0.47646 0.46558 0.52592 0.0
S460 S 0.42831 0.60353 0.35494 0.0
N461 N 0.40407 0.56813 0.30604 0.0
N462 N 0.46004 0.58673 0.44308 0.0
C463 C 0.45205 0.55042 0.4363 0.0
C464 C 0.4215 0.54031 0.3608 0.0
C465 C 0.06809 0.42381 0.4028 0.0
C466 C 0.03605 0.42132 0.33237 0.0
C467 C 0.07143 0.44996 0.49645 0.0
C468 C 0.04291 0.4747 0.52464 0.0
H469 H 0.09062 0.40535 0.38628 0.0
H470 H 0.09602 0.4499 0.54976 0.0
S471 S 0.95293 0.47886 0.37109 0.0
N472 N 0.97526 0.44651 0.30012 0.0
N473 N 0.98106 0.49323 0.47585 0.0
C474 C 1.01083 0.47196 0.45572 0.0
C475 C 1.00765 0.44616 0.35994 0.0
C476 C 0.90997 0.06013 0.16261 0.0
C477 C 0.89731 1.02414 0.18359 0.0
C478 C 0.93932 0.0672 0.08365 0.0
C479 C 0.95794 0.03864 1.02415 0.0
H480 H 0.89715 0.08297 0.20699 0.0
H481 H 0.94755 0.09535 0.06899 0.0
S482 S 0.93229 0.94046 0.0348 0.0
N483 N 0.90389 0.96018 0.12741 0.0
N484 N 0.95898 0.97348 0.98538 0.0
C485 C 0.94524 1.00285 0.0437 0.0
C486 C 0.91511 0.99569 0.12146 0.0
C487 C 0.58325 0.91833 0.06382 0.0
C488 C 0.55553 0.90522 0.139 0.0
C489 C 0.57745 0.94727 0.98447 0.0
C490 C 0.54302 0.96406 0.97258 0.0
H491 H 0.61016 0.90606 0.06696 0.0
H492 H 0.6002 0.95643 0.9314 0.0
S493 S 0.45885 0.93625 0.13197 0.0
N494 N 0.49085 0.9091 0.18574 0.0
N495 N 0.47935 0.96236 0.03437 0.0
C496 C 0.51414 0.94944 0.04058 0.0
C497 C 0.52038 0.92029 0.12358 0.0
C498 C 0.65817 0.54311 0.21122 0.0
C499 C 0.68108 0.57452 0.21213 0.0
C500 C 0.63158 0.53689 0.12059 0.0
C501 C 0.62644 0.562 1.02797 0.0
H502 H 0.66016 0.52369 0.28204 0.0
H503 H 0.61476 0.51236 0.12357 0.0
S504 S 0.68144 0.64648 0.98391 0.0
N505 N 0.69803 0.62943 0.10647 0.0
N506 N 0.648 0.61846 0.9421 0.0
C507 C 0.64946 0.59302 1.02792 0.0
C508 C 0.67663 0.59906 0.11817 0.0
C509 C 0.97269 0.66425 0.15597 0.0
C510 C 0.99892 0.68236 0.22877 0.0
C511 C 0.98153 0.63359 0.08473 0.0
C512 C 1.01742 0.61969 0.07977 0.0
H513 H 0.94472 0.67406 0.1533 0.0
H514 H 0.96028 0.62161 0.02946 0.0
S515 S 0.09632 0.65486 0.25706 0.0
N516 N 0.06225 0.682 0.29517 0.0
N517 N 0.07924 0.62576 0.15897 0.0
C518 C 0.0439 0.6371 0.15319 0.0
C519 C 0.03465 0.66793 0.22789 0.0
C520 C 0.92609 0.25858 0.3382 0.0
C521 C 0.96031 0.27431 0.36728 0.0
C522 C 0.90615 0.23906 0.42131 0.0
C523 C 0.91996 0.23485 0.5354 0.0
H524 H 0.91634 0.2586 0.24838 0.0
H525 H 0.88207 0.22375 0.39284 0.0
S526 S 1.00488 0.27592 0.66011 0.0
N527 N 1.00459 0.28869 0.52176 0.0
N528 N 0.96673 0.25202 0.67814 0.0
C529 C 0.95165 0.25429 0.56926 0.0
C530 C 0.9721 0.27401 0.48469 0.0
C531 C 0.30699 0.96843 0.3362 0.0
C532 C 0.30416 0.96452 0.21381 0.0
C533 C 0.33287 0.94844 0.39941 0.0
C534 C 0.35637 0.92397 0.34194 0.0
H535 H 0.29291 0.99041 0.3812 0.0
H536 H 0.33771 0.95557 0.49053 0.0
S537 S 0.35182 0.89591 0.03022 0.0
N538 N 0.32034 0.92802 0.04318 0.0
N539 N 0.36967 0.89081 0.16233 0.0
C540 C 0.34947 0.91533 0.22401 0.0
C541 C 0.32301 0.93558 0.15961 0.0
C542 C 0.61779 0.31857 0.46107 0.0
C543 C 0.62698 0.32232 0.34231 0.0
C544 C 0.63799 0.33703 0.548 0.0
C545 C 0.66752 0.35986 0.51778 0.0
H546 H 0.59252 0.305 0.48594 0.0
H547 H 0.62728 0.33756 0.63626 0.0
S548 S 0.70899 0.3694 0.22498 0.0
N549 N 0.6727 0.34277 0.20295 0.0
N550 N 0.71017 0.37837 0.36694 0.0
C551 C 0.68049 0.35879 0.40259 0.0
C552 C 0.66012 0.33989 0.31419 0.0
C553 C 0.27364 0.5509 0.53278 0.0
C554 C 0.25433 0.52128 0.48079 0.0
C555 C 0.25883 0.57025 0.62663 0.0
C556 C 0.22423 0.56062 0.66959 0.0
H557 H 0.29814 0.56191 0.49254 0.0
H558 H 0.27198 0.59571 0.65341 0.0
S559 S 0.16972 0.4778 0.59038 0.0
N560 N 0.20432 0.47759 0.4979 0.0
N561 N 0.17626 0.51395 0.67597 0.0
C562 C 0.20832 0.5271 0.63281 0.0
C563 C 0.22319 0.50763 0.53636 0.0
C564 C 1.00949 0.87747 0.06822 0.0
C565 C 1.01774 0.84148 0.09968 0.0
C566 C 0.03229 0.89655 0.99248 0.0
C567 C 0.06375 0.87967 0.94477 0.0
H568 H 0.98915 0.89264 0.11656 0.0
H569 H 1.02793 0.92574 0.98829 0.0
S570 S 0.08113 0.77993 0.93832 0.0
N571 N 0.04874 0.78547 0.03705 0.0
N572 N 0.08928 0.8211 0.88529 0.0
C573 C 0.06484 0.84126 0.94734 0.0
C574 C 0.04245 0.82198 1.02815 0.0
C575 C 0.70466 0.94623 0.15719 0.0
C576 C 0.73181 0.97326 0.14348 0.0
C577 C 0.66767 0.95633 0.15091 0.0
C578 C 0.65759 0.99224 0.11889 0.0
H579 H 0.71138 0.92113 0.20221 0.0
H580 H 0.64779 0.93759 0.18687 0.0
S581 S 0.72124 0.06152 0.99305 0.0
N582 N 0.74791 1.02775 0.03553 0.0
N583 N 0.67908 0.04832 1.02435 0.0
C584 C 0.68511 1.0145 0.06885 0.0
C585 C 0.72246 1.00342 0.07465 0.0
C586 C 0.63246 0.71818 0.1089 0.0
C587 C 0.63062 0.75634 0.11981 0.0
C588 C 0.60764 0.70017 0.03308 0.0
C589 C 0.5868 0.72031 0.9512 0.0
H590 H 0.64726 0.70269 0.17356 0.0
H591 H 0.60299 0.67137 0.04674 0.0
S592 S 0.61565 0.8129 0.85675 0.0
N593 N 0.63563 0.8077 0.98571 0.0
N594 N 0.59156 0.77505 0.83086 0.0
C595 C 0.59969 0.756 0.92899 0.0
C596 C 0.62323 0.77369 1.01261 0.0
C597 C 0.87676 0.58945 0.12609 0.0
C598 C 0.83856 0.58782 0.1408 0.0
C599 C 0.89427 0.56198 0.06215 0.0
C600 C 0.87354 0.53505 1.00042 0.0
H601 H 0.89342 0.6072 0.18139 0.0
H602 H 0.92357 0.55966 0.07499 0.0
S603 S 0.77496 0.54246 0.92593 0.0
N604 N 0.78195 0.57286 0.03168 0.0
N605 N 0.81527 0.52359 0.90194 0.0
C606 C 0.8364 0.5424 0.9808 0.0
C607 C 0.81854 0.56909 0.05129 0.0
C608 C 0.9942 0.21125 0.97523 0.0
C609 C 1.02522 0.23293 1.00876 0.0
C610 C 0.997 0.17771 0.91281 0.0
C611 C 0.03097 0.16364 0.87582 0.0
H612 H 0.96695 0.21965 1.00081 0.0
H613 H 0.97203 0.16218 0.89637 0.0
S614 S 0.11982 0.21406 0.90667 0.0
N615 N 0.09078 0.24002 0.97974 0.0
N616 N 0.09576 0.17873 0.85595 0.0
C617 C 0.06191 0.18675 0.89708 0.0
C618 C 0.05911 0.22081 0.96378 0.0
C619 C 0.37867 0.07387 1.02155 0.0
C620 C 0.34655 0.06292 0.96046 0.0
C621 C 0.41368 0.07425 0.96805 0.0
C622 C 0.41898 0.06345 0.8499 0.0
H623 H 0.37715 0.07968 0.11452 0.0
H624 H 0.43713 0.08146 1.02249 0.0
S625 S 0.34343 0.03489 0.6472 0.0
N626 N 0.32239 0.04242 0.77268 0.0
N627 N 0.38724 0.04452 0.67099 0.0
C628 C 0.38667 0.05457 0.78566 0.0
C629 C 0.35098 0.05384 0.84096 0.0
C630 C 0.58577 0.39275 0.97393 0.0
C631 C 0.55448 0.37217 1.00885 0.0
C632 C 0.58331 0.42653 0.91535 0.0
C633 C 0.54943 0.44186 0.88247 0.0
H634 H 0.6131 0.38319 0.99458 0.0
H635 H 0.60862 0.44113 0.89794 0.0
S636 S 0.45935 0.39447 0.91561 0.0
N637 N 0.48831 0.36743 0.98478 0.0
N638 N 0.48398 0.42915 0.86597 0.0
C639 C 0.51796 0.4199 0.90437 0.0
C640 C 0.5204 0.38563 0.96819 0.0
C641 C 0.20132 0.49771 0.99574 0.0
C642 C 0.21782 0.52598 0.0636 0.0
C643 C 0.16712 0.50246 0.93646 0.0
C644 C 0.14717 0.53567 0.94185 0.0
H645 H 0.21409 0.47103 0.99269 0.0
H646 H 0.15594 0.47951 0.88706 0.0
S647 S 0.1776 0.618 0.1113 0.0
N648 N 0.2108 0.58829 0.1335 0.0
N649 N 0.14759 0.59728 1.02378 0.0
C650 C 0.16383 0.56427 1.00802 0.0
C651 C 0.19855 0.55939 0.0682 0.0
C652 C 0.0551 0.90067 0.50066 0.0
C653 C 1.02667 0.87475 0.52159 0.0
C654 C 0.05794 0.93469 0.56171 0.0
C655 C 0.03215 0.94556 0.64654 0.0
H656 H 0.07471 0.89527 0.43195 0.0
H657 H 0.07977 0.9534 0.53805 0.0
S658 S 0.95587 0.88623 0.75079 0.0
N659 N 0.97455 0.86153 0.64528 0.0
N660 N 0.97973 0.92487 0.75887 0.0
C661 C 1.0049 0.91913 0.67389 0.0
C662 C 1.00226 0.88413 0.61234 0.0
C663 C 0.67891 0.05473 0.44796 0.0
C664 C 0.70812 0.03549 0.50179 0.0
C665 C 0.64316 0.05641 0.49689 0.0
C666 C 0.63429 0.03921 0.60333 0.0
H667 H 0.68307 0.06656 0.3624 0.0
H668 H 0.62205 0.07074 0.44916 0.0
S669 S 0.69913 0.98306 0.77725 0.0
N670 N 0.72419 0.99719 0.66624 0.0
N671 N 0.65821 1.00154 0.75988 0.0
C672 C 0.66332 1.02063 0.65979 0.0
C673 C 0.69961 1.01842 0.60885 0.0
C674 C 0.5951 0.7084 0.56143 0.0
C675 C 0.56685 0.72421 0.4927 0.0
C676 C 0.59014 0.67522 0.62426 0.0
C677 C 0.55699 0.6549 0.61979 0.0
H678 H 0.62199 0.72123 0.56363 0.0
H679 H 0.61306 0.66487 0.67451 0.0
S680 S 0.47239 0.68623 0.46677 0.0
N681 N 0.50298 0.71818 0.43541 0.0
N682 N 0.49373 0.65641 0.55076 0.0
C683 C 0.52774 0.67167 0.55796 0.0
C684 C 0.53268 0.7058 0.49508 0.0
C685 C 0.88248 0.59118 0.60769 0.0
C686 C 0.86204 0.56106 0.56295 0.0
C687 C 0.91548 0.58684 0.67252 0.0
C688 C 0.93112 0.55214 0.69349 0.0
H689 H 0.87366 0.61874 0.5879 0.0
H690 H 0.92944 0.61131 0.70345 0.0
S691 S 0.88629 0.46365 0.61001 0.0
N692 N 0.85831 0.49476 0.55579 0.0
N693 N 0.9201 0.4865 0.6753 0.0
C694 C 0.90966 0.52158 0.65618 0.0
C695 C 0.87558 0.52605 0.59114 0.0
loop_
_geom_bond_atom_site_label_1
_geom_bond_atom_site_label_2
_geom_bond_distance
_geom_bond_site_symmetry_2
_ccdc_geom_bond_type
H0 C5 0.930 . S
H1 C8 0.930 . S
H2 C10 0.930 . S
H3 C4 1.016 . S
C4 H3 1.016 . S
C4 N11 1.286 . S
C5 H0 0.930 . S
C5 C6 1.397 . S
C5 C7 1.361 . S
C6 C5 1.397 . S
C6 C10 1.390 . S
C7 C5 1.361 . S
C7 C8 1.393 . S
C7 N11 1.413 . S
C8 H1 0.930 . S
C8 C7 1.393 . S
C8 C9 1.399 . S
C9 C8 1.399 . S
C9 C10 1.381 . S
C10 H2 0.930 . S
C10 C6 1.390 . S
C10 C9 1.381 . S
N11 C4 1.286 . S
N11 C7 1.413 . S
H12 C17 0.930 . S
H13 C20 0.930 . S
H14 C22 0.930 . S
H15 C16 1.016 . S
C16 H15 1.016 . S
C16 N23 1.279 1_655 S
C17 H12 0.930 . S
C17 C18 1.397 . S
C17 C19 1.361 . S
C18 C17 1.397 . S
C18 C22 1.390 . S
C19 C17 1.361 . S
C19 C20 1.393 . S
C19 N23 1.411 1_655 S
C20 H13 0.930 . S
C20 C19 1.393 . S
C20 C21 1.399 . S
C21 C20 1.399 . S
C21 C22 1.381 . S
C22 H14 0.930 . S
C22 C18 1.390 . S
C22 C21 1.381 . S
N23 C16 1.279 1_455 S
N23 C19 1.411 1_455 S
H24 C29 0.933 . S
H25 C32 0.930 . S
H26 C34 0.930 . S
H27 C28 1.016 . S
C28 H27 1.016 . S
C28 N35 1.286 1_565 S
C29 H24 0.933 . S
C29 C30 1.397 . S
C29 C31 1.361 . S
C30 C29 1.397 . S
C30 C34 1.390 . S
C31 C29 1.361 . S
C31 C32 1.393 . S
C31 N35 1.413 1_565 S
C32 H25 0.930 . S
C32 C31 1.393 . S
C32 C33 1.399 . S
C33 C32 1.399 . S
C33 C34 1.381 . S
C34 H26 0.930 . S
C34 C30 1.390 . S
C34 C33 1.381 . S
N35 C28 1.286 1_545 S
N35 C31 1.413 1_545 S
H36 C41 0.930 . S
H37 C44 0.930 . S
H38 C46 0.930 . S
H39 C40 1.016 . S
C40 H39 1.016 . S
C40 N47 1.286 . S
C41 H36 0.930 . S
C41 C42 1.397 . S
C41 C43 1.361 . S
C42 C41 1.397 . S
C42 C46 1.390 . S
C43 C41 1.361 . S
C43 C44 1.393 . S
C43 N47 1.413 . S
C44 H37 0.930 . S
C44 C43 1.393 . S
C44 C45 1.399 . S
C45 C44 1.399 . S
C45 C46 1.381 . S
C46 H38 0.930 . S
C46 C42 1.390 . S
C46 C45 1.381 . S
N47 C40 1.286 . S
N47 C43 1.413 . S
H48 C53 0.930 . S
H49 C56 0.930 . S
H50 C58 0.930 . S
H51 C52 1.016 . S
C52 H51 1.016 . S
C52 N59 1.286 . S
C53 H48 0.930 . S
C53 C54 1.397 . S
C53 C55 1.361 1_556 S
C54 C53 1.397 . S
C54 C58 1.390 1_556 S
C55 C53 1.361 1_554 S
C55 C56 1.393 . S
C55 N59 1.413 . S
C56 H49 0.930 . S
C56 C55 1.393 . S
C56 C57 1.399 . S
C57 C56 1.399 . S
C57 C58 1.381 . S
C58 H50 0.930 . S
C58 C54 1.390 1_554 S
C58 C57 1.381 . S
N59 C52 1.286 . S
N59 C55 1.413 . S
H60 C65 0.930 . S
H61 C68 0.930 . S
H62 C70 0.930 . S
H63 C64 1.016 . S
C64 H63 1.016 . S
C64 N71 1.286 . S
C65 H60 0.930 . S
C65 C66 1.397 . S
C65 C67 1.361 1_556 S
C66 C65 1.397 . S
C66 C70 1.390 1_556 S
C67 C65 1.361 1_554 S
C67 C68 1.393 . S
C67 N71 1.413 . S
C68 H61 0.930 . S
C68 C67 1.393 . S
C68 C69 1.399 . S
C69 C68 1.399 . S
C69 C70 1.381 . S
C70 H62 0.930 . S
C70 C66 1.390 1_554 S
C70 C69 1.381 . S
N71 C64 1.286 . S
N71 C67 1.413 . S
H72 C77 0.930 . S
H73 C80 0.930 . S
H74 C82 0.930 . S
H75 C76 1.016 . S
C76 H75 1.016 . S
C76 N83 1.286 . S
C77 H72 0.930 . S
C77 C78 1.397 . S
C77 C79 1.361 1_556 S
C78 C77 1.397 . S
C78 C82 1.390 1_556 S
C79 C77 1.361 1_554 S
C79 C80 1.393 . S
C79 N83 1.413 . S
C80 H73 0.930 . S
C80 C79 1.393 . S
C80 C81 1.399 . S
C81 C80 1.399 . S
C81 C82 1.381 . S
C82 H74 0.930 . S
C82 C78 1.390 1_554 S
C82 C81 1.381 . S
N83 C76 1.286 . S
N83 C79 1.413 . S
H84 C89 0.930 . S
H85 C92 0.930 . S
H86 C94 0.930 . S
H87 C88 1.016 . S
C88 H87 1.016 . S
C88 N95 1.286 . S
C89 H84 0.930 . S
C89 C90 1.397 . S
C89 C91 1.361 1_556 S
C90 C89 1.397 . S
C90 C94 1.390 1_556 S
C91 C89 1.361 1_554 S
C91 C92 1.393 . S
C91 N95 1.413 . S
C92 H85 0.930 . S
C92 C91 1.393 . S
C92 C93 1.399 . S
C93 C92 1.399 . S
C93 C94 1.381 . S
C94 H86 0.930 . S
C94 C90 1.390 1_554 S
C94 C93 1.381 . S
N95 C88 1.286 . S
N95 C91 1.413 . S
C96 C98 1.422 . S
C96 C100 1.415 . S
C96 N102 1.369 1_554 S
C97 C98 1.421 . S
C97 C99 1.417 . S
C97 C109 1.422 . S
C98 C96 1.422 . S
C98 C97 1.421 . S
C98 N108 1.359 . S
C99 C97 1.417 . S
C99 C101 1.329 . S
C99 H118 0.930 . S
C100 C96 1.415 . S
C100 C101 1.437 . S
C100 C104 1.413 1_554 S
C101 C99 1.329 . S
C101 C100 1.437 . S
C101 H123 0.929 . S
N102 C96 1.369 1_556 S
N102 C103 1.338 . S
N102 Gd107 2.622 1_545 S
C103 N102 1.338 . S
C103 C105 1.378 . S
C103 H115 0.929 1_545 S
C104 C100 1.413 1_556 S
C104 C105 1.348 . S
C104 H120 0.931 . S
C105 C103 1.378 . S
C105 C104 1.348 . S
C105 H121 0.930 . S
Gd106 N126 2.622 . S
Gd106 N133 2.570 . S
Gd106 O140 2.353 1_655 S
Gd106 O141 2.468 . S
Gd106 O142 2.427 . S
Gd106 O144 2.388 . S
Gd106 O145 2.386 1_545 S
Gd106 O149 2.307 1_655 S
Gd106 C159 2.805 . S
Gd107 N102 2.622 1_565 S
Gd107 N108 2.570 1_566 S
Gd107 O139 2.386 1_565 S
Gd107 O143 2.307 1_465 S
Gd107 O146 2.353 . S
Gd107 O147 2.468 . S
Gd107 O148 2.427 . S
Gd107 O150 2.388 . S
Gd107 C171 2.805 . S
N108 C98 1.359 . S
N108 Gd107 2.570 1_544 S
N108 C110 1.343 . S
C109 C97 1.422 . S
C109 C111 1.321 . S
C109 H117 0.931 . S
C110 N108 1.343 . S
C110 C111 1.390 . S
C110 H112 0.946 . S
C111 C109 1.321 . S
C111 C110 1.390 . S
C111 H113 0.930 . S
H112 C110 0.946 . S
H113 C111 0.930 . S
H114 C137 0.931 1_455 S
H115 C103 0.929 1_565 S
H116 C138 0.930 1_455 S
H117 C109 0.931 . S
H118 C99 0.930 . S
H119 C128 0.929 . S
H120 C104 0.931 . S
H121 C105 0.930 . S
H122 C160 0.930 . S
H123 C101 0.929 . S
H124 C129 0.931 . S
H125 C130 0.930 . S
N126 Gd106 2.622 . S
N126 C127 1.369 1_545 S
N126 C128 1.338 . S
C127 N126 1.369 1_565 S
C127 C131 1.415 . S
C127 C134 1.422 . S
C128 H119 0.929 . S
C128 N126 1.338 . S
C128 C130 1.378 . S
C129 H124 0.931 . S
C129 C130 1.348 1_565 S
C129 C131 1.413 . S
C130 H125 0.930 . S
C130 C128 1.378 . S
C130 C129 1.348 1_545 S
C131 C127 1.415 . S
C131 C129 1.413 . S
C131 C161 1.437 . S
H132 C161 0.929 . S
N133 Gd106 2.570 . S
N133 C134 1.359 1_545 S
N133 C137 1.343 . S
C134 C127 1.422 . S
C134 N133 1.359 1_565 S
C134 C136 1.421 . S
C135 C136 1.422 . S
C135 C138 1.321 . S
C135 H162 0.931 . S
C136 C134 1.421 . S
C136 C135 1.422 . S
C136 C160 1.417 . S
C137 H114 0.931 1_655 S
C137 N133 1.343 . S
C137 C138 1.390 1_545 S
C138 H116 0.930 1_655 S
C138 C135 1.321 . S
C138 C137 1.390 1_565 S
O139 Gd107 2.386 1_545 S
O139 C151 1.265 . S
O140 Gd106 2.353 1_455 S
O140 C151 1.242 . S
O141 Gd106 2.468 . S
O141 C159 1.263 . S
O142 Gd106 2.427 . S
O142 C159 1.252 . S
O143 Gd107 2.307 1_645 S
O143 C152 1.261 . S
O144 Gd106 2.388 . S
O144 C152 1.252 . S
O145 Gd106 2.386 1_565 S
O145 C163 1.265 . S
O146 Gd107 2.353 . S
O146 C163 1.242 1_455 S
O147 Gd107 2.468 . S
O147 C171 1.263 . S
O148 Gd107 2.427 . S
O148 C171 1.252 . S
O149 Gd106 2.307 1_455 S
O149 C164 1.261 . S
O150 Gd107 2.388 . S
O150 C164 1.252 1_565 S
C151 O139 1.265 . S
C151 O140 1.242 . S
C152 O143 1.261 . S
C152 O144 1.252 . S
C153 C156 1.394 . S
C153 C158 1.370 . S
C153 C159 1.500 . S
C154 C157 1.383 . S
C154 C158 1.395 . S
C155 C156 1.396 . S
C155 C157 1.365 . S
C155 H172 0.929 . S
C156 C153 1.394 . S
C156 C155 1.396 . S
C156 H173 0.930 . S
C157 C154 1.383 . S
C157 C155 1.365 . S
C157 H174 0.931 . S
C158 C153 1.370 . S
C158 C154 1.395 . S
C158 H175 0.930 1_655 S
C159 Gd106 2.805 . S
C159 O141 1.263 . S
C159 O142 1.252 . S
C159 C153 1.500 . S
C160 H122 0.930 . S
C160 C136 1.417 . S
C160 C161 1.329 . S
C161 C131 1.437 . S
C161 H132 0.929 . S
C161 C160 1.329 . S
H162 C135 0.931 . S
C163 O145 1.265 . S
C163 O146 1.242 1_655 S
C164 O149 1.261 . S
C164 O150 1.252 1_545 S
C165 C168 1.394 . S
C165 C170 1.370 . S
C165 C171 1.500 1_554 S
C166 C169 1.383 . S
C166 C170 1.395 . S
C167 C168 1.396 . S
C167 C169 1.365 . S
C167 H176 0.929 . S
C168 C165 1.394 . S
C168 C167 1.396 . S
C168 H177 0.930 1_554 S
C169 C166 1.383 . S
C169 C167 1.365 . S
C169 H178 0.931 . S
C170 C165 1.370 . S
C170 C166 1.395 . S
C170 H179 0.930 . S
C171 Gd107 2.805 . S
C171 O147 1.263 . S
C171 O148 1.252 . S
C171 C165 1.500 1_556 S
H172 C155 0.929 . S
H173 C156 0.930 . S
H174 C157 0.931 . S
H175 C158 0.930 1_455 S
H176 C167 0.929 . S
H177 C168 0.930 1_556 S
H178 C169 0.931 . S
H179 C170 0.930 . S
C180 C182 1.422 . S
C180 C184 1.415 . S
C180 N186 1.369 . S
C181 C182 1.421 . S
C181 C183 1.417 . S
C181 C193 1.422 . S
C182 C180 1.422 . S
C182 C181 1.421 . S
C182 N192 1.359 . S
C183 C181 1.417 . S
C183 C185 1.329 . S
C183 H202 0.930 . S
C184 C180 1.415 . S
C184 C185 1.437 . S
C184 C188 1.413 . S
C185 C183 1.329 . S
C185 C184 1.437 . S
C185 H207 0.929 . S
N186 C180 1.369 . S
N186 C187 1.338 . S
N186 Gd191 2.622 . S
C187 N186 1.338 . S
C187 C189 1.378 . S
C187 H199 0.929 . S
C188 C184 1.413 . S
C188 C189 1.348 . S
C188 H204 0.931 . S
C189 C187 1.378 . S
C189 C188 1.348 . S
C189 H205 0.930 . S
Gd190 N210 2.622 . S
Gd190 N217 2.570 . S
Gd190 O224 2.353 1_545 S
Gd190 O225 2.468 . S
Gd190 O226 2.427 1_556 S
Gd190 O228 2.388 . S
Gd190 O229 2.386 . S
Gd190 O233 2.307 . S
Gd190 C243 2.805 1_556 S
Gd191 N186 2.622 . S
Gd191 N192 2.570 . S
Gd191 O223 2.386 . S
Gd191 O227 2.307 1_565 S
Gd191 O230 2.353 1_565 S
Gd191 O231 2.468 . S
Gd191 O232 2.427 . S
Gd191 O234 2.388 . S
Gd191 C255 2.805 . S
N192 C182 1.359 . S
N192 Gd191 2.570 . S
N192 C194 1.343 . S
C193 C181 1.422 . S
C193 C195 1.321 . S
C193 H201 0.931 . S
C194 N192 1.343 . S
C194 C195 1.390 . S
C194 H196 0.931 . S
C195 C193 1.321 . S
C195 C194 1.390 . S
C195 H197 0.930 . S
H196 C194 0.931 . S
H197 C195 0.930 . S
H198 C221 0.931 . S
H199 C187 0.929 . S
H200 C222 0.930 . S
H201 C193 0.931 . S
H202 C183 0.930 . S
H203 C212 0.929 . S
H204 C188 0.931 . S
H205 C189 0.930 . S
H206 C244 0.930 . S
H207 C185 0.929 . S
H208 C213 0.931 1_554 S
H209 C214 0.930 . S
N210 Gd190 2.622 . S
N210 C211 1.369 . S
N210 C212 1.338 1_556 S
C211 N210 1.369 . S
C211 C215 1.415 . S
C211 C218 1.422 . S
C212 H203 0.929 . S
C212 N210 1.338 1_554 S
C212 C214 1.378 . S
C213 H208 0.931 1_556 S
C213 C214 1.348 1_556 S
C213 C215 1.413 . S
C214 H209 0.930 . S
C214 C212 1.378 . S
C214 C213 1.348 1_554 S
C215 C211 1.415 . S
C215 C213 1.413 . S
C215 C245 1.437 . S
H216 C245 0.929 . S
N217 Gd190 2.570 . S
N217 C218 1.359 . S
N217 C221 1.343 . S
C218 C211 1.422 . S
C218 N217 1.359 . S
C218 C220 1.421 . S
C219 C220 1.422 . S
C219 C222 1.321 . S
C219 H246 0.931 . S
C220 C218 1.421 . S
C220 C219 1.422 . S
C220 C244 1.417 . S
C221 H198 0.931 . S
C221 N217 1.343 . S
C221 C222 1.390 . S
C222 H200 0.930 . S
C222 C219 1.321 . S
C222 C221 1.390 . S
O223 Gd191 2.386 . S
O223 C235 1.265 . S
O224 Gd190 2.353 1_565 S
O224 C235 1.242 . S
O225 Gd190 2.468 . S
O225 C243 1.263 1_556 S
O226 Gd190 2.427 1_554 S
O226 C243 1.252 . S
O227 Gd191 2.307 1_545 S
O227 C236 1.261 . S
O228 Gd190 2.388 . S
O228 C236 1.252 . S
O229 Gd190 2.386 . S
O229 C247 1.265 . S
O230 Gd191 2.353 1_545 S
O230 C247 1.242 . S
O231 Gd191 2.468 . S
O231 C255 1.263 . S
O232 Gd191 2.427 . S
O232 C255 1.252 . S
O233 Gd190 2.307 . S
O233 C248 1.271 . S
O234 Gd191 2.388 . S
O234 C248 1.245 1_565 S
C235 O223 1.265 . S
C235 O224 1.242 . S
C236 O227 1.261 . S
C236 O228 1.252 . S
C237 C240 1.394 . S
C237 C242 1.370 . S
C237 C243 1.500 . S
C238 C241 1.383 . S
C238 C242 1.395 . S
C239 C240 1.396 . S
C239 C241 1.365 . S
C239 H256 0.929 . S
C240 C237 1.394 . S
C240 C239 1.396 . S
C240 H257 0.930 . S
C241 C238 1.383 . S
C241 C239 1.365 . S
C241 H258 0.931 . S
C242 C237 1.370 . S
C242 C238 1.395 . S
C242 H259 0.930 . S
C243 Gd190 2.805 1_554 S
C243 O225 1.263 1_554 S
C243 O226 1.252 . S
C243 C237 1.500 . S
C244 H206 0.930 . S
C244 C220 1.417 . S
C244 C245 1.329 . S
C245 C215 1.437 . S
C245 H216 0.929 . S
C245 C244 1.329 . S
H246 C219 0.931 . S
C247 O229 1.265 . S
C247 O230 1.242 . S
C248 O233 1.271 . S
C248 O234 1.245 1_545 S
C249 C252 1.394 . S
C249 C254 1.370 . S
C249 C255 1.500 . S
C250 C253 1.383 . S
C250 C254 1.395 . S
C251 C252 1.396 . S
C251 C253 1.365 . S
C251 H260 0.929 . S
C252 C249 1.394 . S
C252 C251 1.396 . S
C252 H261 0.930 . S
C253 C250 1.383 . S
C253 C251 1.365 . S
C253 H262 0.931 . S
C254 C249 1.370 . S
C254 C250 1.395 . S
C254 H263 0.930 1_565 S
C255 Gd191 2.805 . S
C255 O231 1.263 . S
C255 O232 1.252 . S
C255 C249 1.500 . S
H256 C239 0.929 . S
H257 C240 0.930 . S
H258 C241 0.931 . S
H259 C242 0.930 . S
H260 C251 0.929 . S
H261 C252 0.930 . S
H262 C253 0.931 . S
H263 C254 0.930 1_545 S
C264 C266 1.422 . S
C264 C268 1.415 . S
C264 N270 1.369 1_554 S
C265 C266 1.421 . S
C265 C267 1.417 . S
C265 C277 1.422 . S
C266 C264 1.422 . S
C266 C265 1.421 . S
C266 N276 1.359 . S
C267 C265 1.417 . S
C267 C269 1.329 . S
C267 H286 0.930 . S
C268 C264 1.415 . S
C268 C269 1.437 . S
C268 C272 1.413 1_554 S
C269 C267 1.329 . S
C269 C268 1.437 . S
C269 H291 0.929 . S
N270 C264 1.369 1_556 S
N270 C271 1.338 . S
N270 Gd275 2.622 . S
C271 N270 1.338 . S
C271 C273 1.378 . S
C271 H283 0.929 . S
C272 C268 1.413 1_556 S
C272 C273 1.348 . S
C272 H288 0.931 . S
C273 C271 1.378 . S
C273 C272 1.348 . S
C273 H289 0.930 . S
Gd274 N294 2.622 . S
Gd274 N301 2.570 . S
Gd274 O308 2.353 . S
Gd274 O309 2.468 . S
Gd274 O310 2.427 . S
Gd274 O312 2.388 . S
Gd274 O313 2.386 . S
Gd274 O317 2.307 . S
Gd274 C327 2.805 . S
Gd275 N270 2.622 . S
Gd275 N276 2.570 1_556 S
Gd275 O307 2.386 . S
Gd275 O311 2.307 . S
Gd275 O314 2.353 . S
Gd275 O315 2.468 . S
Gd275 O316 2.427 . S
Gd275 O318 2.388 . S
Gd275 C339 2.805 . S
N276 C266 1.359 . S
N276 Gd275 2.570 1_554 S
N276 C278 1.343 . S
C277 C265 1.422 . S
C277 C279 1.321 . S
C277 H285 0.931 . S
C278 N276 1.343 . S
C278 C279 1.390 . S
C278 H280 0.931 . S
C279 C277 1.321 . S
C279 C278 1.390 . S
C279 H281 0.930 . S
H280 C278 0.931 . S
H281 C279 0.930 . S
H282 C305 0.931 . S
H283 C271 0.929 . S
H284 C306 0.930 . S
H285 C277 0.931 . S
H286 C267 0.930 . S
H287 C296 0.929 . S
H288 C272 0.931 . S
H289 C273 0.930 . S
H290 C328 0.930 . S
H291 C269 0.929 . S
H292 C297 0.931 . S
H293 C298 0.930 . S
N294 Gd274 2.622 . S
N294 C295 1.369 . S
N294 C296 1.338 . S
C295 N294 1.369 . S
C295 C299 1.415 . S
C295 C302 1.422 . S
C296 H287 0.929 . S
C296 N294 1.338 . S
C296 C298 1.378 . S
C297 H292 0.931 . S
C297 C298 1.348 . S
C297 C299 1.413 . S
C298 H293 0.930 . S
C298 C296 1.378 . S
C298 C297 1.348 . S
C299 C295 1.415 . S
C299 C297 1.413 . S
C299 C329 1.437 . S
H300 C329 0.929 . S
N301 Gd274 2.570 . S
N301 C302 1.359 . S
N301 C305 1.343 . S
C302 C295 1.422 . S
C302 N301 1.359 . S
C302 C304 1.421 . S
C303 C304 1.422 . S
C303 C306 1.321 . S
C303 H330 0.931 . S
C304 C302 1.421 . S
C304 C303 1.422 . S
C304 C328 1.417 . S
C305 H282 0.931 . S
C305 N301 1.343 . S
C305 C306 1.390 . S
C306 H284 0.930 . S
C306 C303 1.321 . S
C306 C305 1.390 . S
O307 Gd275 2.386 . S
O307 C319 1.265 . S
O308 Gd274 2.353 . S
O308 C319 1.242 . S
O309 Gd274 2.468 . S
O309 C327 1.263 . S
O310 Gd274 2.427 . S
O310 C327 1.252 . S
O311 Gd275 2.307 . S
O311 C320 1.261 . S
O312 Gd274 2.388 . S
O312 C320 1.252 . S
O313 Gd274 2.386 . S
O313 C331 1.265 . S
O314 Gd275 2.353 . S
O314 C331 1.242 . S
O315 Gd275 2.468 . S
O315 C339 1.263 . S
O316 Gd275 2.427 . S
O316 C339 1.252 . S
O317 Gd274 2.307 . S
O317 C332 1.261 . S
O318 Gd275 2.388 . S
O318 C332 1.252 . S
C319 O307 1.265 . S
C319 O308 1.242 . S
C320 O311 1.261 . S
C320 O312 1.252 . S
C321 C324 1.394 . S
C321 C326 1.370 . S
C321 C327 1.500 . S
C322 C325 1.383 . S
C322 C326 1.395 . S
C323 C324 1.396 . S
C323 C325 1.365 . S
C323 H340 0.929 . S
C324 C321 1.394 . S
C324 C323 1.396 . S
C324 H341 0.930 . S
C325 C322 1.383 . S
C325 C323 1.365 . S
C325 H342 0.931 . S
C326 C321 1.370 . S
C326 C322 1.395 . S
C326 H343 0.930 . S
C327 Gd274 2.805 . S
C327 O309 1.263 . S
C327 O310 1.252 . S
C327 C321 1.500 . S
C328 H290 0.930 . S
C328 C304 1.417 . S
C328 C329 1.329 . S
C329 C299 1.437 . S
C329 H300 0.929 . S
C329 C328 1.329 . S
H330 C303 0.931 . S
C331 O313 1.265 . S
C331 O314 1.242 . S
C332 O317 1.261 . S
C332 O318 1.252 . S
C333 C336 1.394 . S
C333 C338 1.370 . S
C333 C339 1.500 1_554 S
C334 C337 1.383 . S
C334 C338 1.395 . S
C335 C336 1.396 . S
C335 C337 1.365 . S
C335 H344 0.929 . S
C336 C333 1.394 . S
C336 C335 1.396 . S
C336 H345 0.930 1_554 S
C337 C334 1.383 . S
C337 C335 1.365 . S
C337 H346 0.931 . S
C338 C333 1.370 . S
C338 C334 1.395 . S
C338 H347 0.930 . S
C339 Gd275 2.805 . S
C339 O315 1.263 . S
C339 O316 1.252 . S
C339 C333 1.500 1_556 S
H340 C323 0.929 . S
H341 C324 0.930 . S
H342 C325 0.931 . S
H343 C326 0.930 . S
H344 C335 0.929 . S
H345 C336 0.930 1_556 S
H346 C337 0.931 . S
H347 C338 0.930 . S
C348 C350 1.422 . S
C348 C352 1.415 . S
C348 N354 1.369 1_554 S
C349 C350 1.421 . S
C349 C351 1.417 . S
C349 C361 1.422 . S
C350 C348 1.422 . S
C350 C349 1.421 . S
C350 N360 1.359 . S
C351 C349 1.417 . S
C351 C353 1.329 . S
C351 H370 0.930 . S
C352 C348 1.415 . S
C352 C353 1.437 . S
C352 C356 1.413 1_554 S
C353 C351 1.329 . S
C353 C352 1.437 . S
C353 H375 0.929 . S
N354 C348 1.369 1_556 S
N354 C355 1.340 . S
N354 Gd359 2.622 1_455 S
C355 N354 1.340 . S
C355 C357 1.387 . S
C355 H367 0.918 1_455 S
C356 C352 1.413 1_556 S
C356 C357 1.348 . S
C356 H372 0.931 . S
C357 C355 1.387 . S
C357 C356 1.348 . S
C357 H373 0.930 . S
Gd358 N378 2.622 . S
Gd358 N385 2.570 . S
Gd358 O392 2.353 . S
Gd358 O393 2.468 . S
Gd358 O394 2.427 . S
Gd358 O396 2.388 . S
Gd358 O397 2.386 1_455 S
Gd358 O401 2.307 . S
Gd358 C411 2.805 . S
Gd359 N354 2.622 1_655 S
Gd359 N360 2.570 1_656 S
Gd359 O391 2.386 1_655 S
Gd359 O395 2.307 1_655 S
Gd359 O398 2.353 . S
Gd359 O399 2.468 . S
Gd359 O400 2.427 . S
Gd359 O402 2.388 . S
Gd359 C423 2.805 . S
N360 C350 1.359 . S
N360 Gd359 2.570 1_454 S
N360 C362 1.343 . S
C361 C349 1.422 . S
C361 C363 1.321 . S
C361 H369 0.931 . S
C362 N360 1.343 . S
C362 C363 1.390 . S
C362 H364 0.931 . S
C363 C361 1.321 . S
C363 C362 1.390 . S
C363 H365 0.930 . S
H364 C362 0.931 . S
H365 C363 0.930 . S
H366 C389 0.931 . S
H367 C355 0.918 1_655 S
H368 C390 0.930 . S
H369 C361 0.931 . S
H370 C351 0.930 . S
H371 C380 0.929 . S
H372 C356 0.931 . S
H373 C357 0.930 . S
H374 C412 0.930 . S
H375 C353 0.929 . S
H376 C381 0.931 . S
H377 C382 0.930 . S
N378 Gd358 2.622 . S
N378 C379 1.369 1_455 S
N378 C380 1.338 . S
C379 N378 1.369 1_655 S
C379 C383 1.415 . S
C379 C386 1.422 . S
C380 H371 0.929 . S
C380 N378 1.338 . S
C380 C382 1.378 . S
C381 H376 0.931 . S
C381 C382 1.348 1_655 S
C381 C383 1.413 . S
C382 H377 0.930 . S
C382 C380 1.378 . S
C382 C381 1.348 1_455 S
C383 C379 1.415 . S
C383 C381 1.413 . S
C383 C413 1.437 . S
H384 C413 0.929 . S
N385 Gd358 2.570 . S
N385 C386 1.359 1_455 S
N385 C389 1.343 . S
C386 C379 1.422 . S
C386 N385 1.359 1_655 S
C386 C388 1.421 . S
C387 C388 1.422 . S
C387 C390 1.321 . S
C387 H414 0.931 . S
C388 C386 1.421 . S
C388 C387 1.422 . S
C388 C412 1.417 . S
C389 H366 0.931 . S
C389 N385 1.343 . S
C389 C390 1.390 1_455 S
C390 H368 0.930 . S
C390 C387 1.321 . S
C390 C389 1.390 1_655 S
O391 Gd359 2.386 1_455 S
O391 C403 1.265 . S
O392 Gd358 2.353 . S
O392 C403 1.242 . S
O393 Gd358 2.468 . S
O393 C411 1.263 . S
O394 Gd358 2.427 . S
O394 C411 1.252 . S
O395 Gd359 2.307 1_455 S
O395 C404 1.261 . S
O396 Gd358 2.388 . S
O396 C404 1.252 . S
O397 Gd358 2.386 1_655 S
O397 C415 1.265 . S
O398 Gd359 2.353 . S
O398 C415 1.242 . S
O399 Gd359 2.468 . S
O399 C423 1.263 . S
O400 Gd359 2.427 . S
O400 C423 1.252 . S
O401 Gd358 2.307 . S
O401 C416 1.261 . S
O402 Gd359 2.388 . S
O402 C416 1.252 1_655 S
C403 O391 1.265 . S
C403 O392 1.242 . S
C404 O395 1.261 . S
C404 O396 1.252 . S
C405 C408 1.394 . S
C405 C410 1.370 . S
C405 C411 1.500 . S
C406 C409 1.383 . S
C406 C410 1.395 . S
C407 C408 1.396 . S
C407 C409 1.365 . S
C407 H424 0.929 . S
C408 C405 1.394 . S
C408 C407 1.396 . S
C408 H425 0.930 . S
C409 C406 1.383 . S
C409 C407 1.365 . S
C409 H426 0.931 . S
C410 C405 1.370 . S
C410 C406 1.395 . S
C410 H427 0.930 . S
C411 Gd358 2.805 . S
C411 O393 1.263 . S
C411 O394 1.252 . S
C411 C405 1.500 . S
C412 H374 0.930 . S
C412 C388 1.417 . S
C412 C413 1.329 . S
C413 C383 1.437 . S
C413 H384 0.929 . S
C413 C412 1.329 . S
H414 C387 0.931 . S
C415 O397 1.265 . S
C415 O398 1.242 . S
C416 O401 1.261 . S
C416 O402 1.252 1_455 S
C417 C420 1.394 . S
C417 C422 1.370 . S
C417 C423 1.500 1_554 S
C418 C421 1.383 . S
C418 C422 1.395 . S
C419 C420 1.396 . S
C419 C421 1.365 . S
C419 H428 0.929 . S
C420 C417 1.394 . S
C420 C419 1.396 . S
C420 H429 0.930 1_554 S
C421 C418 1.383 . S
C421 C419 1.365 . S
C421 H430 0.931 . S
C422 C417 1.370 . S
C422 C418 1.395 . S
C422 H431 0.930 . S
C423 Gd359 2.805 . S
C423 O399 1.263 . S
C423 O400 1.252 . S
C423 C417 1.500 1_556 S
H424 C407 0.929 . S
H425 C408 0.930 . S
H426 C409 0.931 . S
H427 C410 0.930 . S
H428 C419 0.929 . S
H429 C420 0.930 1_556 S
H430 C421 0.931 . S
H431 C422 0.930 . S
C432 C433 1.369 . S
C432 C434 1.419 1_545 S
C432 H436 0.930 1_545 S
C433 C432 1.369 . S
C433 C442 1.429 . S
C434 C432 1.419 1_565 S
C434 C435 1.363 1_565 S
C434 H437 0.929 . S
C435 C434 1.363 1_545 S
C435 C441 1.428 . S
H436 C432 0.930 1_565 S
H437 C434 0.929 . S
S438 N439 1.613 . S
S438 N440 1.610 . S
N439 S438 1.613 . S
N439 C442 1.350 . S
N440 S438 1.610 . S
N440 C441 1.351 . S
C441 C435 1.428 . S
C441 N440 1.351 . S
C441 C442 1.434 . S
C442 C433 1.429 . S
C442 N439 1.350 . S
C442 C441 1.434 . S
C443 C444 1.369 . S
C443 C445 1.419 . S
C443 H447 0.930 . S
C444 C443 1.369 . S
C444 C453 1.429 . S
C445 C443 1.419 . S
C445 C446 1.363 . S
C445 H448 0.929 . S
C446 C445 1.363 . S
C446 C452 1.428 . S
H447 C443 0.930 . S
H448 C445 0.929 . S
S449 N450 1.613 . S
S449 N451 1.610 . S
N450 S449 1.613 . S
N450 C453 1.350 . S
N451 S449 1.610 . S
N451 C452 1.351 . S
C452 C446 1.428 . S
C452 N451 1.351 . S
C452 C453 1.434 . S
C453 C444 1.429 . S
C453 N450 1.350 . S
C453 C452 1.434 . S
C454 C455 1.369 . S
C454 C456 1.419 . S
C454 H458 0.930 . S
C455 C454 1.369 . S
C455 C464 1.429 . S
C456 C454 1.419 . S
C456 C457 1.363 . S
C456 H459 0.929 . S
C457 C456 1.363 . S
C457 C463 1.428 . S
H458 C454 0.930 . S
H459 C456 0.929 . S
S460 N461 1.613 . S
S460 N462 1.610 . S
N461 S460 1.613 . S
N461 C464 1.350 . S
N462 S460 1.610 . S
N462 C463 1.351 . S
C463 C457 1.428 . S
C463 N462 1.351 . S
C463 C464 1.434 . S
C464 C455 1.429 . S
C464 N461 1.350 . S
C464 C463 1.434 . S
C465 C466 1.369 . S
C465 C467 1.419 . S
C465 H469 0.930 . S
C466 C465 1.369 . S
C466 C475 1.429 . S
C467 C465 1.419 . S
C467 C468 1.363 . S
C467 H470 0.929 . S
C468 C467 1.363 . S
C468 C474 1.428 . S
H469 C465 0.930 . S
H470 C467 0.929 . S
S471 N472 1.613 . S
S471 N473 1.610 . S
N472 S471 1.613 . S
N472 C475 1.350 . S
N473 S471 1.610 . S
N473 C474 1.351 . S
C474 C468 1.428 . S
C474 N473 1.351 . S
C474 C475 1.434 . S
C475 C466 1.429 . S
C475 N472 1.350 . S
C475 C474 1.434 . S
C476 C477 1.369 1_545 S
C476 C478 1.419 . S
C476 H480 0.930 . S
C477 C476 1.369 1_565 S
C477 C486 1.429 . S
C478 C476 1.419 . S
C478 C479 1.344 1_545 S
C478 H481 0.929 . S
C479 C478 1.344 1_565 S
C479 C485 1.451 . S
H480 C476 0.930 . S
H481 C478 0.929 . S
S482 N483 1.613 . S
S482 N484 1.610 . S
N483 S482 1.613 . S
N483 C486 1.350 . S
N484 S482 1.610 . S
N484 C485 1.351 . S
C485 C479 1.451 . S
C485 N484 1.351 . S
C485 C486 1.434 . S
C486 C477 1.429 . S
C486 N483 1.350 . S
C486 C485 1.434 . S
C487 C488 1.369 . S
C487 C489 1.419 . S
C487 H491 0.930 . S
C488 C487 1.369 . S
C488 C497 1.429 . S
C489 C487 1.419 . S
C489 C490 1.363 . S
C489 H492 0.929 1_554 S
C490 C489 1.363 . S
C490 C496 1.428 . S
H491 C487 0.930 . S
H492 C489 0.929 1_556 S
S493 N494 1.613 . S
S493 N495 1.610 . S
N494 S493 1.613 . S
N494 C497 1.350 . S
N495 S493 1.610 . S
N495 C496 1.351 . S
C496 C490 1.428 . S
C496 N495 1.351 . S
C496 C497 1.434 . S
C497 C488 1.429 . S
C497 N494 1.350 . S
C497 C496 1.434 . S
C498 C499 1.369 . S
C498 C500 1.419 . S
C498 H502 0.930 . S
C499 C498 1.369 . S
C499 C508 1.429 . S
C500 C498 1.419 . S
C500 C501 1.363 . S
C500 H503 0.929 . S
C501 C500 1.363 . S
C501 C507 1.428 . S
H502 C498 0.930 . S
H503 C500 0.929 . S
S504 N505 1.613 . S
S504 N506 1.610 1_554 S
N505 S504 1.613 . S
N505 C508 1.350 . S
N506 S504 1.610 1_556 S
N506 C507 1.351 1_556 S
C507 C501 1.428 . S
C507 N506 1.351 1_554 S
C507 C508 1.434 . S
C508 C499 1.429 . S
C508 N505 1.350 . S
C508 C507 1.434 . S
C509 C510 1.369 . S
C509 C511 1.419 . S
C509 H513 0.930 . S
C510 C509 1.369 . S
C510 C519 1.429 1_655 S
C511 C509 1.419 . S
C511 C512 1.363 . S
C511 H514 0.929 . S
C512 C511 1.363 . S
C512 C518 1.428 1_655 S
H513 C509 0.930 . S
H514 C511 0.929 . S
S515 N516 1.613 . S
S515 N517 1.610 . S
N516 S515 1.613 . S
N516 C519 1.350 . S
N517 S515 1.610 . S
N517 C518 1.351 . S
C518 C512 1.428 1_455 S
C518 N517 1.351 . S
C518 C519 1.434 . S
C519 C510 1.429 1_455 S
C519 N516 1.350 . S
C519 C518 1.434 . S
C520 C521 1.369 1_655 S
C520 C522 1.419 . S
C520 H524 0.930 . S
C521 C520 1.369 1_455 S
C521 C530 1.429 . S
C522 C520 1.419 . S
C522 C523 1.363 . S
C522 H525 0.929 . S
C523 C522 1.363 . S
C523 C529 1.428 1_655 S
H524 C520 0.930 . S
H525 C522 0.929 . S
S526 N527 1.613 . S
S526 N528 1.610 . S
N527 S526 1.613 . S
N527 C530 1.350 . S
N528 S526 1.610 . S
N528 C529 1.351 . S
C529 C523 1.428 1_455 S
C529 N528 1.351 . S
C529 C530 1.434 . S
C530 C521 1.429 . S
C530 N527 1.350 . S
C530 C529 1.434 . S
C531 C532 1.369 . S
C531 C533 1.419 . S
C531 H535 0.930 . S
C532 C531 1.369 . S
C532 C541 1.429 . S
C533 C531 1.419 . S
C533 C534 1.363 . S
C533 H536 0.929 . S
C534 C533 1.363 . S
C534 C540 1.428 1_545 S
H535 C531 0.930 . S
H536 C533 0.929 . S
S537 N538 1.613 1_556 S
S537 N539 1.610 1_556 S
N538 S537 1.613 1_554 S
N538 C541 1.350 1_565 S
N539 S537 1.610 1_554 S
N539 C540 1.351 . S
C540 C534 1.428 1_565 S
C540 N539 1.351 . S
C540 C541 1.434 1_565 S
C541 C532 1.429 . S
C541 N538 1.350 1_545 S
C541 C540 1.434 1_545 S
C542 C543 1.369 . S
C542 C544 1.419 . S
C542 H546 0.930 . S
C543 C542 1.369 . S
C543 C552 1.429 . S
C544 C542 1.419 . S
C544 C545 1.363 . S
C544 H547 0.929 . S
C545 C544 1.363 . S
C545 C551 1.428 . S
H546 C542 0.930 . S
H547 C544 0.929 . S
S548 N549 1.613 . S
S548 N550 1.610 . S
N549 S548 1.613 . S
N549 C552 1.350 . S
N550 S548 1.610 . S
N550 C551 1.351 . S
C551 C545 1.428 . S
C551 N550 1.351 . S
C551 C552 1.434 . S
C552 C543 1.429 . S
C552 N549 1.350 . S
C552 C551 1.434 . S
C553 C554 1.369 . S
C553 C555 1.419 . S
C553 H557 0.930 . S
C554 C553 1.369 . S
C554 C563 1.429 . S
C555 C553 1.419 . S
C555 C556 1.363 . S
C555 H558 0.929 . S
C556 C555 1.363 . S
C556 C562 1.428 . S
H557 C553 0.930 . S
H558 C555 0.929 . S
S559 N560 1.613 . S
S559 N561 1.610 . S
N560 S559 1.613 . S
N560 C563 1.350 . S
N561 S559 1.610 . S
N561 C562 1.351 . S
C562 C556 1.428 . S
C562 N561 1.351 . S
C562 C563 1.434 . S
C563 C554 1.429 . S
C563 N560 1.350 . S
C563 C562 1.434 . S
C564 C565 1.369 . S
C564 C566 1.419 . S
C564 H568 0.930 . S
C565 C564 1.369 . S
C565 C574 1.429 1_655 S
C566 C564 1.419 . S
C566 C567 1.363 1_655 S
C566 H569 0.929 . S
C567 C566 1.363 1_455 S
C567 C573 1.428 . S
H568 C564 0.930 . S
H569 C566 0.929 . S
S570 N571 1.613 . S
S570 N572 1.610 . S
N571 S570 1.613 . S
N571 C574 1.350 . S
N572 S570 1.610 . S
N572 C573 1.351 . S
C573 C567 1.428 . S
C573 N572 1.351 . S
C573 C574 1.434 . S
C574 C565 1.429 1_455 S
C574 N571 1.350 . S
C574 C573 1.434 . S
C575 C576 1.369 . S
C575 C577 1.419 1_565 S
C575 H579 0.930 . S
C576 C575 1.369 . S
C576 C585 1.429 1_565 S
C577 C575 1.419 1_545 S
C577 C578 1.363 . S
C577 H580 0.929 . S
C578 C577 1.363 . S
C578 C584 1.428 . S
H579 C575 0.930 . S
H580 C577 0.929 . S
S581 N582 1.613 . S
S581 N583 1.610 . S
N582 S581 1.613 . S
N582 C585 1.350 . S
N583 S581 1.610 . S
N583 C584 1.351 . S
C584 C578 1.428 . S
C584 N583 1.351 . S
C584 C585 1.434 . S
C585 C576 1.429 1_545 S
C585 N582 1.350 . S
C585 C584 1.434 . S
C586 C587 1.369 . S
C586 C588 1.419 . S
C586 H590 0.930 . S
C587 C586 1.369 . S
C587 C596 1.429 . S
C588 C586 1.419 . S
C588 C589 1.363 . S
C588 H591 0.929 . S
C589 C588 1.363 . S
C589 C595 1.428 . S
H590 C586 0.930 . S
H591 C588 0.929 . S
S592 N593 1.613 . S
S592 N594 1.610 . S
N593 S592 1.613 . S
N593 C596 1.350 . S
N594 S592 1.610 . S
N594 C595 1.351 . S
C595 C589 1.428 . S
C595 N594 1.351 . S
C595 C596 1.434 . S
C596 C587 1.429 . S
C596 N593 1.350 . S
C596 C595 1.434 . S
C597 C598 1.369 . S
C597 C599 1.419 . S
C597 H601 0.930 . S
C598 C597 1.369 . S
C598 C607 1.429 . S
C599 C597 1.419 . S
C599 C600 1.363 . S
C599 H602 0.929 . S
C600 C599 1.363 . S
C600 C606 1.428 . S
H601 C597 0.930 . S
H602 C599 0.929 . S
S603 N604 1.613 . S
S603 N605 1.610 . S
N604 S603 1.613 . S
N604 C607 1.350 . S
N605 S603 1.610 . S
N605 C606 1.351 . S
C606 C600 1.428 . S
C606 N605 1.351 . S
C606 C607 1.434 . S
C607 C598 1.429 . S
C607 N604 1.350 . S
C607 C606 1.434 . S
C608 C609 1.369 . S
C608 C610 1.419 . S
C608 H612 0.930 1_455 S
C609 C608 1.369 . S
C609 C618 1.429 . S
C610 C608 1.419 . S
C610 C611 1.363 . S
C610 H613 0.929 1_455 S
C611 C610 1.363 . S
C611 C617 1.428 . S
H612 C608 0.930 1_655 S
H613 C610 0.929 1_655 S
S614 N615 1.613 . S
S614 N616 1.610 . S
N615 S614 1.613 . S
N615 C618 1.350 . S
N616 S614 1.610 . S
N616 C617 1.351 . S
C617 C611 1.428 . S
C617 N616 1.351 . S
C617 C618 1.434 . S
C618 C609 1.429 . S
C618 N615 1.350 . S
C618 C617 1.434 . S
C619 C620 1.369 . S
C619 C621 1.419 . S
C619 H623 0.930 . S
C620 C619 1.369 . S
C620 C629 1.429 . S
C621 C619 1.419 . S
C621 C622 1.363 . S
C621 H624 0.929 . S
C622 C621 1.363 . S
C622 C628 1.428 . S
H623 C619 0.930 . S
H624 C621 0.929 . S
S625 N626 1.613 1_565 S
S625 N627 1.610 1_565 S
N626 S625 1.613 1_545 S
N626 C629 1.350 1_554 S
N627 S625 1.610 1_545 S
N627 C628 1.351 1_554 S
C628 C622 1.428 . S
C628 N627 1.351 1_556 S
C628 C629 1.434 . S
C629 C620 1.429 . S
C629 N626 1.350 1_556 S
C629 C628 1.434 . S
C630 C631 1.369 . S
C630 C632 1.419 . S
C630 H634 0.930 . S
C631 C630 1.369 . S
C631 C640 1.429 . S
C632 C630 1.419 . S
C632 C633 1.363 . S
C632 H635 0.929 . S
C633 C632 1.363 . S
C633 C639 1.428 . S
H634 C630 0.930 . S
H635 C632 0.929 . S
S636 N637 1.613 . S
S636 N638 1.610 . S
N637 S636 1.613 . S
N637 C640 1.350 . S
N638 S636 1.610 . S
N638 C639 1.351 . S
C639 C633 1.428 . S
C639 N638 1.351 . S
C639 C640 1.434 . S
C640 C631 1.429 . S
C640 N637 1.350 . S
C640 C639 1.434 . S
C641 C642 1.369 . S
C641 C643 1.419 . S
C641 H645 0.930 . S
C642 C641 1.369 . S
C642 C651 1.429 . S
C643 C641 1.419 . S
C643 C644 1.363 . S
C643 H646 0.929 . S
C644 C643 1.363 . S
C644 C650 1.428 . S
H645 C641 0.930 . S
H646 C643 0.929 . S
S647 N648 1.613 . S
S647 N649 1.610 . S
N648 S647 1.613 . S
N648 C651 1.350 . S
N649 S647 1.610 . S
N649 C650 1.351 . S
C650 C644 1.428 . S
C650 N649 1.351 . S
C650 C651 1.434 . S
C651 C642 1.429 . S
C651 N648 1.350 . S
C651 C650 1.434 . S
C652 C653 1.365 1_455 S
C652 C654 1.419 . S
C652 H656 0.934 . S
C653 C652 1.365 1_655 S
C653 C662 1.429 . S
C654 C652 1.419 . S
C654 C655 1.363 1_455 S
C654 H657 0.929 . S
C655 C654 1.363 1_655 S
C655 C661 1.428 . S
H656 C652 0.934 . S
H657 C654 0.929 . S
S658 N659 1.613 . S
S658 N660 1.610 . S
N659 S658 1.613 . S
N659 C662 1.350 . S
N660 S658 1.610 . S
N660 C661 1.351 . S
C661 C655 1.428 . S
C661 N660 1.351 . S
C661 C662 1.434 . S
C662 C653 1.429 . S
C662 N659 1.350 . S
C662 C661 1.434 . S
C663 C664 1.369 1_545 S
C663 C665 1.419 . S
C663 H667 0.930 . S
C664 C663 1.369 1_565 S
C664 C673 1.429 . S
C665 C663 1.419 . S
C665 C666 1.363 1_545 S
C665 H668 0.929 . S
C666 C665 1.363 1_565 S
C666 C672 1.428 . S
H667 C663 0.930 . S
H668 C665 0.929 . S
S669 N670 1.613 . S
S669 N671 1.610 . S
N670 S669 1.613 . S
N670 C673 1.350 . S
N671 S669 1.610 . S
N671 C672 1.351 . S
C672 C666 1.428 . S
C672 N671 1.351 . S
C672 C673 1.434 . S
C673 C664 1.429 . S
C673 N670 1.350 . S
C673 C672 1.434 . S
C674 C675 1.369 . S
C674 C676 1.419 . S
C674 H678 0.930 . S
C675 C674 1.369 . S
C675 C684 1.429 . S
C676 C674 1.419 . S
C676 C677 1.363 . S
C676 H679 0.929 . S
C677 C676 1.363 . S
C677 C683 1.428 . S
H678 C674 0.930 . S
H679 C676 0.929 . S
S680 N681 1.613 . S
S680 N682 1.610 . S
N681 S680 1.613 . S
N681 C684 1.350 . S
N682 S680 1.610 . S
N682 C683 1.351 . S
C683 C677 1.428 . S
C683 N682 1.351 . S
C683 C684 1.434 . S
C684 C675 1.429 . S
C684 N681 1.350 . S
C684 C683 1.434 . S
C685 C686 1.369 . S
C685 C687 1.419 . S
C685 H689 0.930 . S
C686 C685 1.369 . S
C686 C695 1.429 . S
C687 C685 1.419 . S
C687 C688 1.363 . S
C687 H690 0.929 . S
C688 C687 1.363 . S
C688 C694 1.428 . S
H689 C685 0.930 . S
H690 C687 0.929 . S
S691 N692 1.613 . S
S691 N693 1.610 . S
N692 S691 1.613 . S
N692 C695 1.350 . S
N693 S691 1.610 . S
N693 C694 1.351 . S
C694 C688 1.428 . S
C694 N693 1.351 . S
C694 C695 1.434 . S
C695 C686 1.429 . S
C695 N692 1.350 . S
C695 C694 1.434 . S
C433 C76 1.950 . S
C435 C164 2.187 . S
C446 C247 2.193 . S
C444 C88 1.946 . S
C457 C332 2.183 . S
C455 C52 1.955 . S
C468 C416 2.171 . S
C466 C64 1.946 . S
C479 C152 2.180 1_564 S
C477 C28 1.963 . S
C488 C40 1.965 . S
C490 C235 2.190 1_554 S
C499 C4 1.953 . S
C501 C320 2.187 1_554 S
C510 C16 1.943 . S
C512 C404 2.172 1_654 S
C523 C154 0.758 . S
C521 C69 0.756 . S
C534 C250 0.737 1_545 S
C532 C81 0.730 . S
C545 C322 0.755 . S
C543 C93 0.753 . S
C554 C57 0.745 . S
C556 C406 0.744 . S
C565 C21 0.743 . S
C567 C166 0.748 . S
C578 C238 0.746 . S
C576 C33 0.739 . S
C589 C334 0.754 . S
C587 C45 0.761 . S
C598 C9 0.732 . S
C600 C418 0.735 . S
C609 C66 2.045 . S
C611 C151 2.295 . S
C620 C78 2.040 . S
C622 C236 2.341 . S
C633 C319 2.313 . S
C631 C90 2.056 . S
C644 C403 2.317 . S
C642 C54 2.056 . S
C653 C18 2.031 . S
C655 C163 2.298 . S
C666 C248 2.340 1_565 S
C664 C30 2.039 . S
C677 C331 2.313 . S
C675 C42 2.050 . S
C686 C6 2.060 . S
C688 C415 2.315 . S
