# Generated by pormake.
# Topology eea, (3,6)-cn, num edge types: 1
# Building blocks:
#     Node 0, Type 0, BuildingBlock: ESEHIV_clean_linker_0, # of connection points: 3
#     Node 1, Type 0, BuildingBlock: ESEHIV_clean_linker_0, # of connection points: 3
#     Node 2, Type 0, BuildingBlock: ESEHIV_clean_linker_0, # of connection points: 3
#     Node 3, Type 0, BuildingBlock: ESEHIV_clean_linker_0, # of connection points: 3
#     Node 4, Type 0, BuildingBlock: ESEHIV_clean_linker_0, # of connection points: 3
#     Node 5, Type 0, BuildingBlock: ESEHIV_clean_linker_0, # of connection points: 3
#     Node 6, Type 0, BuildingBlock: ESEHIV_clean_linker_0, # of connection points: 3
#     Node 7, Type 0, BuildingBlock: ESEHIV_clean_linker_0, # of connection points: 3
#     Node 8, Type 0, BuildingBlock: ESEHIV_clean_linker_0, # of connection points: 3
#     Node 9, Type 0, BuildingBlock: ESEHIV_clean_linker_0, # of connection points: 3
#     Node 10, Type 0, BuildingBlock: ESEHIV_clean_linker_0, # of connection points: 3
#     Node 11, Type 0, BuildingBlock: ESEHIV_clean_linker_0, # of connection points: 3
#     Node 12, Type 0, BuildingBlock: ESEHIV_clean_linker_0, # of connection points: 3
#     Node 13, Type 0, BuildingBlock: ESEHIV_clean_linker_0, # of connection points: 3
#     Node 14, Type 0, BuildingBlock: ESEHIV_clean_linker_0, # of connection points: 3
#     Node 15, Type 0, BuildingBlock: ESEHIV_clean_linker_0, # of connection points: 3
#     Node 16, Type 0, BuildingBlock: ESEHIV_clean_linker_0, # of connection points: 3
#     Node 17, Type 0, BuildingBlock: ESEHIV_clean_linker_0, # of connection points: 3
#     Node 18, Type 1, BuildingBlock: CUWYAW_clean_sbu_0, # of connection points: 6
#     Node 19, Type 1, BuildingBlock: CUWYAW_clean_sbu_0, # of connection points: 6
#     Node 20, Type 1, BuildingBlock: CUWYAW_clean_sbu_0, # of connection points: 6
#     Node 21, Type 1, BuildingBlock: CUWYAW_clean_sbu_0, # of connection points: 6
#     Node 22, Type 1, BuildingBlock: CUWYAW_clean_sbu_0, # of connection points: 6
#     Node 23, Type 1, BuildingBlock: CUWYAW_clean_sbu_0, # of connection points: 6
#     Node 24, Type 1, BuildingBlock: CUWYAW_clean_sbu_0, # of connection points: 6
#     Node 25, Type 1, BuildingBlock: CUWYAW_clean_sbu_0, # of connection points: 6
#     Node 26, Type 1, BuildingBlock: CUWYAW_clean_sbu_0, # of connection points: 6
#     Edge 27, Type (0, 1), BuildingBlock: XUDNAN_clean_linker_2, # of connection points: 2
#     Edge 28, Type (0, 1), BuildingBlock: XUDNAN_clean_linker_2, # of connection points: 2
#     Edge 29, Type (0, 1), BuildingBlock: XUDNAN_clean_linker_2, # of connection points: 2
#     Edge 30, Type (0, 1), BuildingBlock: XUDNAN_clean_linker_2, # of connection points: 2
#     Edge 31, Type (0, 1), BuildingBlock: XUDNAN_clean_linker_2, # of connection points: 2
#     Edge 32, Type (0, 1), BuildingBlock: XUDNAN_clean_linker_2, # of connection points: 2
#     Edge 33, Type (0, 1), BuildingBlock: XUDNAN_clean_linker_2, # of connection points: 2
#     Edge 34, Type (0, 1), BuildingBlock: XUDNAN_clean_linker_2, # of connection points: 2
#     Edge 35, Type (0, 1), BuildingBlock: XUDNAN_clean_linker_2, # of connection points: 2
#     Edge 36, Type (0, 1), BuildingBlock: XUDNAN_clean_linker_2, # of connection points: 2
#     Edge 37, Type (0, 1), BuildingBlock: XUDNAN_clean_linker_2, # of connection points: 2
#     Edge 38, Type (0, 1), BuildingBlock: XUDNAN_clean_linker_2, # of connection points: 2
#     Edge 39, Type (0, 1), BuildingBlock: XUDNAN_clean_linker_2, # of connection points: 2
#     Edge 40, Type (0, 1), BuildingBlock: XUDNAN_clean_linker_2, # of connection points: 2
#     Edge 41, Type (0, 1), BuildingBlock: XUDNAN_clean_linker_2, # of connection points: 2
#     Edge 42, Type (0, 1), BuildingBlock: XUDNAN_clean_linker_2, # of connection points: 2
#     Edge 43, Type (0, 1), BuildingBlock: XUDNAN_clean_linker_2, # of connection points: 2
#     Edge 44, Type (0, 1), BuildingBlock: XUDNAN_clean_linker_2, # of connection points: 2
#     Edge 45, Type (0, 1), BuildingBlock: XUDNAN_clean_linker_2, # of connection points: 2
#     Edge 46, Type (0, 1), BuildingBlock: XUDNAN_clean_linker_2, # of connection points: 2
#     Edge 47, Type (0, 1), BuildingBlock: XUDNAN_clean_linker_2, # of connection points: 2
#     Edge 48, Type (0, 1), BuildingBlock: XUDNAN_clean_linker_2, # of connection points: 2
#     Edge 49, Type (0, 1), BuildingBlock: XUDNAN_clean_linker_2, # of connection points: 2
#     Edge 50, Type (0, 1), BuildingBlock: XUDNAN_clean_linker_2, # of connection points: 2
#     Edge 51, Type (0, 1), BuildingBlock: XUDNAN_clean_linker_2, # of connection points: 2
#     Edge 52, Type (0, 1), BuildingBlock: XUDNAN_clean_linker_2, # of connection points: 2
#     Edge 53, Type (0, 1), BuildingBlock: XUDNAN_clean_linker_2, # of connection points: 2
#     Edge 54, Type (0, 1), BuildingBlock: XUDNAN_clean_linker_2, # of connection points: 2
#     Edge 55, Type (0, 1), BuildingBlock: XUDNAN_clean_linker_2, # of connection points: 2
#     Edge 56, Type (0, 1), BuildingBlock: XUDNAN_clean_linker_2, # of connection points: 2
#     Edge 57, Type (0, 1), BuildingBlock: XUDNAN_clean_linker_2, # of connection points: 2
#     Edge 58, Type (0, 1), BuildingBlock: XUDNAN_clean_linker_2, # of connection points: 2
#     Edge 59, Type (0, 1), BuildingBlock: XUDNAN_clean_linker_2, # of connection points: 2
#     Edge 60, Type (0, 1), BuildingBlock: XUDNAN_clean_linker_2, # of connection points: 2
#     Edge 61, Type (0, 1), BuildingBlock: XUDNAN_clean_linker_2, # of connection points: 2
#     Edge 62, Type (0, 1), BuildingBlock: XUDNAN_clean_linker_2, # of connection points: 2
#     Edge 63, Type (0, 1), BuildingBlock: XUDNAN_clean_linker_2, # of connection points: 2
#     Edge 64, Type (0, 1), BuildingBlock: XUDNAN_clean_linker_2, # of connection points: 2
#     Edge 65, Type (0, 1), BuildingBlock: XUDNAN_clean_linker_2, # of connection points: 2
#     Edge 66, Type (0, 1), BuildingBlock: XUDNAN_clean_linker_2, # of connection points: 2
#     Edge 67, Type (0, 1), BuildingBlock: XUDNAN_clean_linker_2, # of connection points: 2
#     Edge 68, Type (0, 1), BuildingBlock: XUDNAN_clean_linker_2, # of connection points: 2
#     Edge 69, Type (0, 1), BuildingBlock: XUDNAN_clean_linker_2, # of connection points: 2
#     Edge 70, Type (0, 1), BuildingBlock: XUDNAN_clean_linker_2, # of connection points: 2
#     Edge 71, Type (0, 1), BuildingBlock: XUDNAN_clean_linker_2, # of connection points: 2
#     Edge 72, Type (0, 1), BuildingBlock: XUDNAN_clean_linker_2, # of connection points: 2
#     Edge 73, Type (0, 1), BuildingBlock: XUDNAN_clean_linker_2, # of connection points: 2
#     Edge 74, Type (0, 1), BuildingBlock: XUDNAN_clean_linker_2, # of connection points: 2
#     Edge 75, Type (0, 1), BuildingBlock: XUDNAN_clean_linker_2, # of connection points: 2
#     Edge 76, Type (0, 1), BuildingBlock: XUDNAN_clean_linker_2, # of connection points: 2
#     Edge 77, Type (0, 1), BuildingBlock: XUDNAN_clean_linker_2, # of connection points: 2
#     Edge 78, Type (0, 1), BuildingBlock: XUDNAN_clean_linker_2, # of connection points: 2
#     Edge 79, Type (0, 1), BuildingBlock: XUDNAN_clean_linker_2, # of connection points: 2
#     Edge 80, Type (0, 1), BuildingBlock: XUDNAN_clean_linker_2, # of connection points: 2
# Relax obj value: 0.035
# Max RMSD: 0.131
# Mean RMSD: 0.089
data_MOF--net-eea--node1-CUWYAW_clean_sbu_0--node2-ESEHIV_clean_linker_0--edge1-XUDNAN_clean_linker_2
_symmetry_space_group_name_H-M    P1
_symmetry_Int_Tables_number       1
_symmetry_cell_setting            triclinic
loop_
_symmetry_equiv_pos_as_xyz
'x, y, z'
_cell_length_a     47.615161
_cell_length_b     47.211171
_cell_length_c     73.028763
_cell_angle_alpha  93.330887
_cell_angle_beta   93.216715
_cell_angle_gamma 119.84335
loop_
_atom_site_label
_atom_site_type_symbol
_atom_site_fract_x
_atom_site_fract_y
_atom_site_fract_z
_atom_type_partial_charge
H0 H 0.23207 0.17746 0.43789 0.0
H1 H 0.2532 0.09878 0.43909 0.0
H2 H 0.20714 0.1094 0.38977 0.0
C3 C 0.23204 0.15646 0.43102 0.0
C4 C 0.21818 0.14542 0.41269 0.0
C5 C 0.24425 0.13937 0.44076 0.0
C6 C 0.24359 0.11189 0.43172 0.0
C7 C 0.23026 0.10086 0.41336 0.0
C8 C 0.21738 0.11764 0.40399 0.0
H9 H 0.85117 0.10619 0.44391 0.0
H10 H 0.93382 0.2 0.43765 0.0
H11 H 0.90019 0.12089 0.3946 0.0
C12 C 0.8708 0.12148 0.43593 0.0
C13 C 0.87304 0.10899 0.41849 0.0
C14 C 0.89292 0.15391 0.4431 0.0
C15 C 0.91707 0.17472 0.43234 0.0
C16 C 0.91935 0.16304 0.41465 0.0
C17 C 0.89758 0.13009 0.40796 0.0
H18 H 0.8488 0.75867 0.44576 0.0
H19 H 0.92946 0.74224 0.44288 0.0
H20 H 0.90437 0.78546 0.39901 0.0
C21 C 0.86896 0.76048 0.43868 0.0
C22 C 0.87493 0.77422 0.42177 0.0
C23 C 0.8881 0.7483 0.44627 0.0
C24 C 0.91381 0.75038 0.43671 0.0
C25 C 0.92001 0.76361 0.41958 0.0
C26 C 0.90014 0.77527 0.41217 0.0
H27 H 0.07147 0.24479 0.57271 0.0
H28 H 0.1701 0.26555 0.57406 0.0
H29 H 0.11574 0.22897 0.62094 0.0
C30 C 0.0926 0.24611 0.58004 0.0
C31 C 0.09032 0.23559 0.59778 0.0
C32 C 0.12144 0.25736 0.57148 0.0
C33 C 0.14816 0.25771 0.58088 0.0
C34 C 0.14671 0.24766 0.59878 0.0
C35 C 0.1176 0.237 0.60724 0.0
H36 H 0.75006 0.90212 0.57797 0.0
H37 H 0.76519 0.8205 0.58419 0.0
H38 H 0.8008 0.89917 0.62772 0.0
C39 C 0.75963 0.88981 0.58615 0.0
C40 C 0.77581 0.90429 0.60371 0.0
C41 C 0.75578 0.85972 0.57893 0.0
C42 C 0.76735 0.84335 0.5898 0.0
C43 C 0.7837 0.85753 0.60741 0.0
C44 C 0.78766 0.88789 0.6143 0.0
H45 H 0.08632 0.81861 0.57034 0.0
H46 H 0.17248 0.91315 0.58232 0.0
H47 H 0.09767 0.87884 0.61968 0.0
C48 C 0.10033 0.84124 0.57928 0.0
C49 C 0.08838 0.8456 0.59574 0.0
C50 C 0.13027 0.8657 0.57417 0.0
C51 C 0.1489 0.89483 0.58596 0.0
C52 C 0.13786 0.89949 0.60282 0.0
C53 C 0.10722 0.87493 0.60727 0.0
H54 H 0.86191 0.47945 0.77248 0.0
H55 H 0.88562 0.4031 0.76571 0.0
H56 H 0.86782 0.44389 0.71808 0.0
C57 C 0.8665 0.46334 0.76353 0.0
C58 C 0.86462 0.46467 0.74437 0.0
C59 C 0.87375 0.4409 0.77115 0.0
C60 C 0.87934 0.41985 0.75959 0.0
C61 C 0.87752 0.42068 0.74038 0.0
C62 C 0.87036 0.44348 0.73289 0.0
H63 H 0.50445 0.41694 0.76561 0.0
H64 H 0.58461 0.51578 0.77537 0.0
H65 H 0.57605 0.45462 0.72675 0.0
C66 C 0.52613 0.43705 0.76109 0.0
C67 C 0.53788 0.43226 0.74469 0.0
C68 C 0.54295 0.46699 0.77227 0.0
C69 C 0.5719 0.49258 0.76683 0.0
C70 C 0.58405 0.48855 0.75029 0.0
C71 C 0.56673 0.45825 0.73933 0.0
H72 H 0.50932 0.07307 0.78245 0.0
H73 H 0.60862 0.09786 0.77909 0.0
H74 H 0.55673 0.1149 0.7348 0.0
C75 C 0.53058 0.08239 0.77487 0.0
C76 C 0.52985 0.0945 0.75785 0.0
C77 C 0.55877 0.08343 0.78268 0.0
C78 C 0.58662 0.09631 0.77294 0.0
C79 C 0.58625 0.10768 0.75551 0.0
C80 C 0.55746 0.10617 0.74808 0.0
H81 H 0.74855 0.58568 0.90027 0.0
H82 H 0.82416 0.56118 0.89648 0.0
H83 H 0.78483 0.56022 0.94808 0.0
C84 C 0.76477 0.57829 0.90653 0.0
C85 C 0.76411 0.57334 0.92533 0.0
C86 C 0.78698 0.57479 0.89602 0.0
C87 C 0.80774 0.56514 0.90452 0.0
C88 C 0.80715 0.55995 0.92327 0.0
C89 C 0.78573 0.5647 0.93367 0.0
H90 H 0.47011 0.28592 0.91517 0.0
H91 H 0.45825 0.18934 0.9063 0.0
H92 H 0.47547 0.23607 0.96142 0.0
C93 C 0.46986 0.26485 0.92052 0.0
C94 C 0.4736 0.26411 0.93963 0.0
C95 C 0.46394 0.23783 0.90835 0.0
C96 C 0.46246 0.21015 0.91557 0.0
C97 C 0.4674 0.20967 0.9347 0.0
C98 C 0.47263 0.23664 0.94663 0.0
H99 H 0.74063 0.17213 0.89946 0.0
H100 H 0.83399 0.25818 0.91343 0.0
H101 H 0.76904 0.21694 0.95545 0.0
C102 C 0.75836 0.19088 0.9098 0.0
C103 C 0.75148 0.19083 0.92835 0.0
C104 C 0.78768 0.21578 0.90437 0.0
C105 C 0.81098 0.23983 0.91771 0.0
C106 C 0.8049 0.24031 0.93631 0.0
C107 C 0.77486 0.21581 0.9414 0.0
H108 H 0.5716 0.8387 0.11199 0.0
H109 H 0.57024 0.74832 0.09754 0.0
H110 H 0.55574 0.80082 0.05519 0.0
C111 C 0.57004 0.82048 0.1016 0.0
C112 C 0.56371 0.82298 0.08294 0.0
C113 C 0.57302 0.79388 0.10694 0.0
C114 C 0.56915 0.76943 0.09339 0.0
C115 C 0.56262 0.77146 0.07464 0.0
C116 C 0.56093 0.79892 0.06956 0.0
H117 H 0.17903 0.73637 0.09971 0.0
H118 H 0.2588 0.83523 0.11186 0.0
H119 H 0.23638 0.78652 0.05671 0.0
C120 C 0.19874 0.75839 0.09517 0.0
C121 C 0.20614 0.75823 0.07688 0.0
C122 C 0.21736 0.78631 0.10781 0.0
C123 C 0.24364 0.8144 0.10187 0.0
C124 C 0.25139 0.81482 0.08343 0.0
C125 C 0.23175 0.7867 0.07105 0.0
H126 H 0.18353 0.42455 0.10737 0.0
H127 H 0.28118 0.44133 0.11417 0.0
H128 H 0.24018 0.44451 0.06098 0.0
C129 C 0.2058 0.42932 0.10163 0.0
C130 C 0.20835 0.43305 0.08273 0.0
C131 C 0.23202 0.43238 0.11317 0.0
C132 C 0.26089 0.43926 0.10549 0.0
C133 C 0.26415 0.44393 0.08674 0.0
C134 C 0.23756 0.44012 0.07535 0.0
H135 H 0.40694 0.90926 0.23228 0.0
H136 H 0.50639 0.93024 0.23804 0.0
H137 H 0.44544 0.89145 0.28199 0.0
C138 C 0.42714 0.90982 0.24026 0.0
C139 C 0.42282 0.8992 0.25799 0.0
C140 C 0.45734 0.92163 0.23292 0.0
C141 C 0.48289 0.92104 0.24333 0.0
C142 C 0.47875 0.91036 0.26108 0.0
C143 C 0.4488 0.89988 0.26835 0.0
H144 H 0.09172 0.57517 0.24322 0.0
H145 H 0.11588 0.49907 0.24423 0.0
H146 H 0.15176 0.5746 0.28939 0.0
C147 C 0.10461 0.56469 0.2501 0.0
C148 C 0.12282 0.57951 0.26722 0.0
C149 C 0.10307 0.53662 0.24134 0.0
C150 C 0.11698 0.52083 0.2508 0.0
C151 C 0.13399 0.53416 0.26836 0.0
C152 C 0.13743 0.56382 0.27625 0.0
H153 H 0.40509 0.49082 0.23909 0.0
H154 H 0.49283 0.58299 0.23586 0.0
H155 H 0.45031 0.56076 0.28707 0.0
C156 C 0.4241 0.51456 0.24546 0.0
C157 C 0.42473 0.52312 0.26435 0.0
C158 C 0.44851 0.53614 0.23495 0.0
C159 C 0.4734 0.5665 0.2436 0.0
C160 C 0.4741 0.5756 0.26231 0.0
C161 C 0.44956 0.55394 0.27254 0.0
C162 C 0.54894 0.03553 0.05838 0.0
Eu163 Eu 0.52216 0.02237 0.02453 0.0
C164 C 0.53832 0.02478 0.07671 0.0
C165 C 0.53876 0.04729 0.09031 0.0
C166 C 0.52805 0.03758 0.10752 0.0
C167 C 0.51669 0.00508 0.11161 0.0
C168 C 0.51699 0.9827 0.09815 0.0
C169 C 0.52769 0.99243 0.08088 0.0
C170 C 0.50052 0.05509 1.00444 0.0
C171 C 0.44279 0.97033 0.02419 0.0
C172 C 0.45742 0.96649 0.95387 0.0
Eu173 Eu 0.48008 0.98347 0.98843 0.0
C174 C 0.4724 0.97888 0.93672 0.0
C175 C 0.50517 0.98847 0.9351 0.0
C176 C 0.51971 1.00156 0.91921 0.0
C177 C 0.50187 0.00541 0.90453 0.0
C178 C 0.46896 0.99555 0.90613 0.0
C179 C 0.45442 0.98248 0.92209 0.0
C180 C 0.50151 0.95162 0.00949 0.0
C181 C 0.55708 0.04102 0.98802 0.0
O182 O 0.54964 0.01417 0.04639 0.0
O183 O 0.53775 0.0529 0.05081 0.0
O184 O 0.52829 0.06938 0.01457 0.0
O185 O 0.48445 0.02485 0.00655 0.0
O186 O 0.4719 0.98795 0.03357 0.0
O187 O 0.43852 0.96696 0.00597 0.0
O188 O 0.45247 0.98663 0.96444 0.0
O189 O 0.46917 0.95128 0.96328 0.0
O190 O 0.47277 0.93758 1.00057 0.0
O191 O 0.5178 0.98129 0.00636 0.0
O192 O 0.52746 0.02305 0.97952 0.0
O193 O 0.56297 0.04196 0.00602 0.0
H194 H 0.54723 0.07246 0.08759 0.0
H195 H 0.52876 0.05565 0.11766 0.0
H196 H 0.50828 0.95745 0.10078 0.0
H197 H 0.52734 0.97454 0.07079 0.0
H198 H 0.51974 0.98614 0.9462 0.0
H199 H 0.54495 0.00852 0.91842 0.0
H200 H 0.45459 0.99855 0.89522 0.0
H201 H 0.42922 0.97552 0.92308 0.0
C202 C 0.01536 0.53912 0.05466 0.0
Eu203 Eu 1.00561 0.50925 0.02197 0.0
C204 C 0.02061 0.53266 0.0738 0.0
C205 C 0.9953 0.50842 0.08264 0.0
C206 C 1.00117 0.50254 0.10064 0.0
C207 C 0.03242 0.5208 0.11017 0.0
C208 C 0.05765 0.54491 0.10125 0.0
C209 C 0.05178 0.55084 0.08333 0.0
C210 C 0.96549 0.44465 0.0099 0.0
C211 C 0.04899 0.47302 0.01603 0.0
C212 C 0.01845 0.47452 0.94699 0.0
Eu213 Eu 0.01974 0.49162 0.98159 0.0
C214 C 0.99619 0.46563 0.93022 0.0
C215 C 0.00904 0.47227 0.9132 0.0
C216 C 0.98871 0.46631 0.89719 0.0
C217 C 0.95513 0.45344 0.89796 0.0
C218 C 0.94219 0.44631 0.91503 0.0
C219 C 0.96268 0.45268 0.93109 0.0
C220 C 0.0648 0.54976 0.99996 0.0
C221 C 0.96284 0.51048 0.98687 0.0
O222 O 0.03881 0.54469 0.04425 0.0
O223 O 0.98625 0.52085 0.04583 0.0
O224 O 0.96485 0.45711 0.02611 0.0
O225 O 0.9873 0.4669 1.00207 0.0
O226 O 0.04234 0.49206 0.02693 0.0
O227 O 0.03915 0.46575 0.9982 0.0
O228 O 0.00921 0.45361 0.95953 0.0
O229 O 0.03156 0.50511 0.95397 0.0
O230 O 0.07167 0.53159 0.98928 0.0
O231 O 0.03434 0.53723 0.99986 0.0
O232 O 0.97483 0.49552 0.97685 0.0
O233 O 0.97404 0.52279 1.00425 0.0
H234 H 0.97096 0.49397 0.07569 0.0
H235 H 0.9811 0.48405 0.10719 0.0
H236 H 0.08214 0.55908 0.10804 0.0
H237 H 0.07179 0.56955 0.07686 0.0
H238 H 0.03491 0.48252 0.91232 0.0
H239 H 0.99924 0.47163 0.88418 0.0
H240 H 0.91642 0.43655 0.91601 0.0
H241 H 0.95249 0.44788 0.94419 0.0
C242 C 0.4733 0.47678 0.95729 0.0
Eu243 Eu 0.49936 0.50626 0.99019 0.0
C244 C 0.48096 0.47972 0.93784 0.0
C245 C 0.46528 0.49071 0.92575 0.0
C246 C 0.47014 0.49146 0.90706 0.0
C247 C 0.49054 0.48087 0.89988 0.0
C248 C 0.50696 0.47066 0.91206 0.0
C249 C 0.50217 0.47 0.93084 0.0
C250 C 0.51436 0.56729 1.00289 0.0
C251 C 0.57984 0.5441 0.99197 0.0
C252 C 0.56355 0.54926 0.06091 0.0
Eu253 Eu 0.5404 0.52926 0.02648 0.0
C254 C 0.54865 0.54473 0.07859 0.0
C255 C 0.55386 0.52626 0.09133 0.0
C256 C 0.53837 0.51982 0.10754 0.0
C257 C 0.51736 0.53179 0.11145 0.0
C258 C 0.5127 0.55092 0.09889 0.0
C259 C 0.5282 0.55736 0.08264 0.0
C260 C 0.52115 0.46731 0.01217 0.0
C261 C 0.4626 0.50142 0.02555 0.0
O262 O 0.48924 0.46775 0.96846 0.0
O263 O 0.46861 0.49947 0.96519 0.0
O264 O 0.48766 0.54658 0.9929 0.0
O265 O 0.53378 0.55633 1.00432 0.0
O266 O 0.55135 0.52383 0.98242 0.0
O267 O 0.58177 0.55391 0.00949 0.0
O268 O 0.55865 0.56724 0.04964 0.0
O269 O 0.56119 0.52302 0.05229 0.0
O270 O 0.55078 0.48807 0.01882 0.0
O271 O 0.50363 0.48015 0.01303 0.0
O272 O 0.49203 0.52153 0.03365 0.0
O273 O 0.45829 0.4868 0.00879 0.0
H274 H 0.44873 0.49825 0.93069 0.0
H275 H 0.45756 0.50005 0.89818 0.0
H276 H 0.52264 0.46208 0.90699 0.0
H277 H 0.51455 0.46124 0.93976 0.0
H278 H 0.56968 0.51645 0.08863 0.0
H279 H 0.54303 0.50556 0.11708 0.0
H280 H 0.49654 0.56038 0.10142 0.0
H281 H 0.52374 0.57182 0.07316 0.0
C282 C 0.2108 0.35532 0.39533 0.0
Eu283 Eu 0.19145 0.35091 0.36061 0.0
C284 C 0.19606 0.34213 0.4123 0.0
C285 C 0.16383 0.33368 0.41458 0.0
C286 C 0.15084 0.32312 0.43122 0.0
C287 C 0.16984 0.32087 0.44591 0.0
C288 C 0.20182 0.32839 0.44331 0.0
C289 C 0.21477 0.3389 0.42664 0.0
C290 C 0.186 0.39704 0.343 0.0
C291 C 0.11164 0.30771 0.35311 0.0
C292 C 0.13948 0.32245 0.28638 0.0
Eu293 Eu 0.15833 0.3283 0.32121 0.0
C294 C 0.15311 0.33935 0.27007 0.0
C295 C 0.14514 0.32085 0.25297 0.0
C296 C 0.15818 0.33605 0.23728 0.0
C297 C 0.17932 0.37022 0.23835 0.0
C298 C 0.18742 0.38873 0.25561 0.0
C299 C 0.17453 0.37339 0.27137 0.0
C300 C 0.16407 0.28243 0.33904 0.0
C301 C 0.23736 0.37367 0.32823 0.0
O302 O 0.21071 0.33434 0.3828 0.0
O303 O 0.20354 0.376 0.38828 0.0
O304 O 0.21053 0.40351 0.35465 0.0
O305 O 0.16457 0.36706 0.3421 0.0
O306 O 0.13798 0.31712 0.36458 0.0
O307 O 0.11346 0.3133 0.3356 0.0
O308 O 0.13306 0.33852 0.29912 0.0
O309 O 0.15295 0.30652 0.29318 0.0
O310 O 0.13925 0.2759 0.32764 0.0
O311 O 0.18546 0.31235 0.33967 0.0
O312 O 0.21069 0.36505 0.31733 0.0
O313 O 0.23612 0.36644 0.34551 0.0
H314 H 0.14892 0.33586 0.40363 0.0
H315 H 0.126 0.31701 0.43264 0.0
H316 H 0.21726 0.32724 0.45436 0.0
H317 H 0.23966 0.3452 0.4251 0.0
H318 H 0.12896 0.2945 0.25177 0.0
H319 H 0.152 0.32087 0.22435 0.0
H320 H 0.20338 0.41509 0.25695 0.0
H321 H 0.18123 0.38812 0.28452 0.0
C322 C 0.63992 0.83677 0.39489 0.0
Eu323 Eu 0.65629 0.83689 0.36138 0.0
C324 C 0.65112 0.83383 0.41352 0.0
C325 C 0.62803 0.81671 0.42571 0.0
C326 C 0.63788 0.81304 0.44338 0.0
C327 C 0.67109 0.8266 0.4492 0.0
C328 C 0.69422 0.84366 0.43691 0.0
C329 C 0.6843 0.84708 0.41918 0.0
C330 C 0.62447 0.78433 0.33585 0.0
C331 C 0.71993 0.82754 0.36082 0.0
C332 C 0.69905 0.83509 0.2915 0.0
Eu333 Eu 0.68842 0.84215 0.32562 0.0
C334 C 0.68104 0.82778 0.27322 0.0
C335 C 0.69826 0.83791 0.25772 0.0
C336 C 0.68164 0.83084 0.24018 0.0
C337 C 0.64742 0.81342 0.23784 0.0
C338 C 0.6302 0.80359 0.25349 0.0
C339 C 0.64688 0.81082 0.27105 0.0
C340 C 0.72153 0.89529 0.35022 0.0
C341 C 0.63147 0.86161 0.32842 0.0
O342 O 0.65849 0.86361 0.38732 0.0
O343 O 0.62779 0.81044 0.38329 0.0
O344 O 0.60993 0.79571 0.34581 0.0
O345 O 0.65477 0.80052 0.34006 0.0
O346 O 0.70098 0.83441 0.37041 0.0
O347 O 0.71731 0.82488 0.34258 0.0
O348 O 0.68811 0.81128 0.30222 0.0
O349 O 0.70755 0.86355 0.30029 0.0
O350 O 0.73544 0.88587 0.33849 0.0
O351 O 0.69094 0.87863 0.34717 0.0
O352 O 0.6451 0.84921 0.31767 0.0
O353 O 0.63594 0.86364 0.34653 0.0
H354 H 0.6023 0.80618 0.42157 0.0
H355 H 0.61952 0.8001 0.4526 0.0
H356 H 0.71996 0.85408 0.44095 0.0
H357 H 0.70253 0.86001 0.40994 0.0
H358 H 0.72463 0.85107 0.25916 0.0
H359 H 0.69559 0.83841 0.22839 0.0
H360 H 0.60384 0.79047 0.25215 0.0
H361 H 0.63314 0.80304 0.28292 0.0
C362 C 0.13573 0.83271 0.28584 0.0
Eu363 Eu 0.15622 0.8386 0.32061 0.0
C364 C 0.14348 0.82334 0.26798 0.0
C365 C 0.13069 0.82816 0.25145 0.0
C366 C 0.1392 0.82083 0.23448 0.0
C367 C 0.16058 0.80838 0.23375 0.0
C368 C 0.17335 0.80366 0.25039 0.0
C369 C 0.16498 0.81121 0.2673 0.0
C370 C 0.1811 0.8956 0.3424 0.0
C371 C 0.2296 0.84901 0.32262 0.0
C372 C 0.21784 0.86062 0.39242 0.0
Eu373 Eu 0.19286 0.84263 0.35811 0.0
C374 C 0.20773 0.85719 0.4114 0.0
C375 C 0.22119 0.84499 0.42412 0.0
C376 C 0.21313 0.8426 0.44232 0.0
C377 C 0.19149 0.85254 0.44832 0.0
C378 C 0.17809 0.86492 0.43559 0.0
C379 C 0.18604 0.86714 0.41731 0.0
C380 C 0.16788 0.78422 0.33787 0.0
C381 C 0.11422 0.81867 0.35497 0.0
O382 O 0.12146 0.80952 0.29675 0.0
O383 O 0.15877 0.8601 0.29473 0.0
O384 O 0.15333 0.88221 0.3325 0.0
O385 O 0.195 0.8791 0.33987 0.0
O386 O 0.20039 0.83564 0.31354 0.0
O387 O 0.2348 0.85974 0.34032 0.0
O388 O 0.2106 0.87844 0.38222 0.0
O389 O 0.21444 0.83442 0.38305 0.0
O390 O 0.19333 0.79591 0.3498 0.0
O391 O 0.15497 0.80202 0.33867 0.0
O392 O 0.14169 0.82804 0.3654 0.0
O393 O 0.11255 0.81811 0.3368 0.0
H394 H 0.11426 0.8378 0.25168 0.0
H395 H 0.12874 0.82451 0.22192 0.0
H396 H 0.19026 0.79461 0.25039 0.0
H397 H 0.1756 0.8079 0.27983 0.0
H398 H 0.23823 0.8375 0.42001 0.0
H399 H 0.22426 0.83336 0.45179 0.0
H400 H 0.1611 0.87248 0.43968 0.0
H401 H 0.17525 0.87672 0.40785 0.0
C402 C 0.88539 0.67736 0.72144 0.0
Eu403 Eu 0.85867 0.67551 0.68899 0.0
C404 C 0.87225 0.66235 0.73839 0.0
C405 C 0.88689 0.68002 0.7556 0.0
C406 C 0.87314 0.66732 0.77176 0.0
C407 C 0.84439 0.63665 0.77101 0.0
C408 C 0.83008 0.61876 0.7537 0.0
C409 C 0.84383 0.63151 0.73756 0.0
C410 C 0.849 0.7218 0.67486 0.0
C411 C 0.77903 0.63691 0.69127 0.0
C412 C 0.7839 0.64708 0.62076 0.0
Eu413 Eu 0.81106 0.65151 0.65364 0.0
C414 C 0.79628 0.65517 0.60254 0.0
C415 C 0.82173 0.65043 0.59739 0.0
C416 C 0.83355 0.65831 0.58021 0.0
C417 C 0.82009 0.67096 0.56768 0.0
C418 C 0.79484 0.67607 0.573 0.0
C419 C 0.78309 0.66827 0.59027 0.0
C420 C 0.82036 0.60549 0.66872 0.0
C421 C 0.89118 0.69191 0.65155 0.0
O422 O 0.88261 0.6574 0.7073 0.0
O423 O 0.87836 0.69963 0.71679 0.0
O424 O 0.87649 0.72782 0.68327 0.0
O425 O 0.82718 0.69224 0.67549 0.0
O426 O 0.80853 0.64569 0.69877 0.0
O427 O 0.77349 0.64049 0.67381 0.0
O428 O 0.79288 0.67196 0.63311 0.0
O429 O 0.78518 0.62271 0.62764 0.0
O430 O 0.79273 0.59957 0.66063 0.0
O431 O 0.84206 0.63474 0.66731 0.0
O432 O 0.86131 0.68055 0.64365 0.0
O433 O 0.89702 0.68996 0.66921 0.0
H434 H 0.90861 0.704 0.75653 0.0
H435 H 0.88458 0.68202 0.78479 0.0
H436 H 0.80819 0.5949 0.75259 0.0
H437 H 0.83194 0.61751 0.72441 0.0
H438 H 0.83256 0.64064 0.60667 0.0
H439 H 0.85345 0.65466 0.5768 0.0
H440 H 0.78369 0.68549 0.56368 0.0
H441 H 0.76354 0.67227 0.59399 0.0
C442 C 0.32079 0.19014 0.72718 0.0
Eu443 Eu 0.32422 0.17211 0.69336 0.0
C444 C 0.34079 0.1982 0.7449 0.0
C445 C 0.32569 0.19141 0.76128 0.0
C446 C 0.34417 0.19847 0.77823 0.0
C447 C 0.37818 0.21254 0.77912 0.0
C448 C 0.39323 0.21919 0.76261 0.0
C449 C 0.37469 0.21197 0.74564 0.0
C450 C 0.28079 0.11533 0.67282 0.0
C451 C 0.37119 0.14031 0.69464 0.0
C452 C 0.35083 0.13972 0.6243 0.0
Eu453 Eu 0.34756 0.15812 0.65807 0.0
C454 C 0.34044 0.14412 0.60569 0.0
C455 C 0.36402 0.16413 0.59438 0.0
C456 C 0.35479 0.16931 0.57695 0.0
C457 C 0.32176 0.15429 0.57034 0.0
C458 C 0.29814 0.13393 0.58154 0.0
C459 C 0.30735 0.129 0.59907 0.0
C460 C 0.39248 0.21351 0.67852 0.0
C461 C 0.30191 0.19281 0.65765 0.0
O462 O 0.33329 0.21068 0.71469 0.0
O463 O 0.30641 0.15946 0.72029 0.0
O464 O 0.27254 0.13321 0.68274 0.0
O465 O 0.31095 0.12643 0.67567 0.0
O466 O 0.36231 0.15977 0.70294 0.0
O467 O 0.36464 0.13182 0.67667 0.0
O468 O 0.32803 0.12108 0.63443 0.0
O469 O 0.37432 0.16607 0.63383 0.0
O470 O 0.39916 0.19396 0.66894 0.0
O471 O 0.36242 0.20414 0.67605 0.0
O472 O 0.3154 0.17863 0.64827 0.0
O473 O 0.3036 0.19559 0.67575 0.0
H474 H 0.29955 0.1807 0.76097 0.0
H475 H 0.33186 0.19342 0.79068 0.0
H476 H 0.41931 0.22967 0.76279 0.0
H477 H 0.38684 0.21711 0.73312 0.0
H478 H 0.38968 0.1759 0.59907 0.0
H479 H 0.37356 0.18474 0.56853 0.0
H480 H 0.27248 0.12217 0.57685 0.0
H481 H 0.28851 0.11353 0.60742 0.0
C482 C 0.78608 0.14816 0.61827 0.0
Eu483 Eu 0.81511 0.16644 0.65154 0.0
C484 C 0.79863 0.15303 0.60001 0.0
C485 C 0.78459 0.16264 0.58609 0.0
C486 C 0.7975 0.16906 0.56906 0.0
C487 C 0.82458 0.16578 0.56567 0.0
C488 C 0.83851 0.15603 0.57963 0.0
C489 C 0.82578 0.1499 0.59665 0.0
C490 C 0.85164 0.22903 0.66805 0.0
C491 C 0.89031 0.18051 0.65603 0.0
C492 C 0.87351 0.18451 0.72635 0.0
Eu493 Eu 0.85063 0.1699 0.69185 0.0
C494 C 0.86282 0.19138 0.74375 0.0
C495 C 0.8723 0.18323 0.76022 0.0
C496 C 0.86164 0.18857 0.77684 0.0
C497 C 0.84141 0.20235 0.7773 0.0
C498 C 0.83185 0.21042 0.76073 0.0
C499 C 0.84225 0.20473 0.74407 0.0
C500 C 0.82523 0.1127 0.67037 0.0
C501 C 0.77645 0.15936 0.68756 0.0
O502 O 0.79178 0.12906 0.62823 0.0
O503 O 0.79069 0.17461 0.62793 0.0
O504 O 0.83655 0.22213 0.65166 0.0
O505 O 0.84675 0.20271 0.67385 0.0
O506 O 0.86288 0.17063 0.64541 0.0
O507 O 0.89311 0.18641 0.67428 0.0
O508 O 0.88164 0.2065 0.71444 0.0
O509 O 0.85615 0.1543 0.71861 0.0
O510 O 0.85004 0.12308 0.68262 0.0
O511 O 0.81325 0.13141 0.67118 0.0
O512 O 0.80216 0.1644 0.69838 0.0
O513 O 0.77496 0.15754 0.66933 0.0
H514 H 0.7638 0.16545 0.58844 0.0
H515 H 0.78609 0.17625 0.55849 0.0
H516 H 0.85962 0.15368 0.57751 0.0
H517 H 0.83745 0.14305 0.60722 0.0
H518 H 0.88794 0.17265 0.76022 0.0
H519 H 0.86969 0.18242 0.78939 0.0
H520 H 0.81605 0.22081 0.76063 0.0
H521 H 0.83419 0.21071 0.73147 0.0
H522 H 0.29029 0.81477 0.05659 0.0
H523 H 0.2795 0.88085 0.0958 0.0
H524 H 0.32767 0.9277 0.08531 0.0
H525 H 0.37651 0.85696 0.05883 0.0
H526 H 0.37751 0.84935 0.03447 0.0
H527 H 0.34346 0.82087 0.04588 0.0
H528 H 0.30395 0.827 0.02275 0.0
H529 H 0.33787 0.85546 0.01124 0.0
H530 H 0.31006 0.86728 0.01985 0.0
H531 H 0.379 0.96743 0.0711 0.0
H532 H 0.42557 0.99662 0.05257 0.0
H533 H 0.39735 0.90519 0.02005 0.0
C534 C 0.29733 0.83898 0.06286 0.0
C535 C 0.28056 0.84366 0.07713 0.0
C536 C 0.29193 0.87612 0.08513 0.0
C537 C 0.31922 0.90306 0.07914 0.0
C538 C 0.33471 0.89737 0.06492 0.0
C539 C 0.32385 0.86613 0.05674 0.0
C540 C 0.34386 0.86652 0.04122 0.0
C541 C 0.36137 0.84728 0.04536 0.0
C542 C 0.32267 0.85329 0.02267 0.0
C543 C 0.36778 0.90293 0.04191 0.0
C544 C 0.36252 0.92031 0.05589 0.0
C545 C 0.38293 0.95411 0.05993 0.0
C546 C 0.40926 0.97047 0.04937 0.0
C547 C 0.41438 0.95317 0.03469 0.0
C548 C 0.39331 0.91904 0.0309 0.0
H549 H 0.1735 0.46365 0.08987 0.0
H550 H 0.18295 0.39985 0.04857 0.0
H551 H 0.14032 0.40024 0.02781 0.0
H552 H 0.085 0.42898 0.08054 0.0
H553 H 0.08797 0.46852 0.08416 0.0
H554 H 0.11711 0.46087 0.09637 0.0
H555 H 0.16412 0.51124 0.08366 0.0
H556 H 0.13512 0.51891 0.07139 0.0
H557 H 0.16426 0.51363 0.05911 0.0
H558 H 0.0994 0.41011 0.01099 0.0
H559 H 0.06336 0.42943 0.99877 0.0
H560 H 0.08064 0.48738 0.05097 0.0
C561 C 0.16606 0.4492 0.07661 0.0
C562 C 0.18129 0.43151 0.07082 0.0
C563 C 0.17157 0.41359 0.0532 0.0
C564 C 0.14731 0.41354 0.04138 0.0
C565 C 0.13306 0.43155 0.04741 0.0
C566 C 0.14201 0.44904 0.06461 0.0
C567 C 0.12429 0.46798 0.06726 0.0
C568 C 0.10228 0.45585 0.08302 0.0
C569 C 0.14839 0.50514 0.07054 0.0
C570 C 0.1044 0.45884 0.04874 0.0
C571 C 0.10963 0.43757 0.03759 0.0
C572 C 0.09492 0.42656 0.01963 0.0
C573 C 0.07453 0.4378 0.01281 0.0
C574 C 0.06911 0.45997 0.02389 0.0
C575 C 0.08405 0.47029 0.04217 0.0
H576 H 0.58977 0.73133 0.07208 0.0
H577 H 0.51508 0.74706 0.04583 0.0
H578 H 0.4987 0.69965 0.02332 0.0
H579 H 0.6106 0.7022 0.03023 0.0
H580 H 0.61529 0.67131 0.04113 0.0
H581 H 0.62356 0.70841 0.05452 0.0
H582 H 0.58228 0.67386 0.07709 0.0
H583 H 0.57404 0.63675 0.06378 0.0
H584 H 0.54115 0.64397 0.06816 0.0
H585 H 0.48704 0.64888 1.00526 0.0
H586 H 0.48065 0.59656 0.99233 0.0
H587 H 0.56265 0.6121 0.02938 0.0
C588 C 0.57012 0.72494 0.06153 0.0
C589 C 0.55418 0.74351 0.0606 0.0
C590 C 0.52845 0.73407 0.04658 0.0
C591 C 0.51872 0.70693 0.03377 0.0
C592 C 0.53479 0.68921 0.03512 0.0
C593 C 0.5599 0.69766 0.04859 0.0
C594 C 0.57177 0.67314 0.04739 0.0
C595 C 0.60743 0.68977 0.04306 0.0
C596 C 0.56702 0.65592 0.06516 0.0
C597 C 0.54908 0.64949 0.03126 0.0
C598 C 0.52804 0.65944 0.02445 0.0
C599 C 0.50358 0.64098 0.01031 0.0
C600 C 0.50015 0.61126 1.00307 0.0
C601 C 0.52115 0.60028 0.00986 0.0
C602 C 0.54635 0.61996 0.02391 0.0
H603 H 0.84794 0.3051 0.93128 0.0
H604 H 0.81786 0.23636 0.97308 0.0
H605 H 0.85651 0.2809 0.99627 0.0
H606 H 0.93384 0.34792 0.94819 0.0
H607 H 0.94072 0.38741 0.94269 0.0
H608 H 0.91005 0.35073 0.92903 0.0
H609 H 0.86627 0.36615 0.9351 0.0
H610 H 0.89626 0.40326 0.94861 0.0
H611 H 0.86016 0.37461 0.95848 0.0
H612 H 0.89555 0.33385 0.01538 0.0
H613 H 0.93545 0.39062 0.02845 0.0
H614 H 0.94465 0.42287 0.97365 0.0
C615 C 0.84976 0.29898 0.94518 0.0
C616 C 0.82937 0.26695 0.95023 0.0
C617 C 0.83244 0.26069 0.96881 0.0
C618 C 0.85461 0.2858 0.98209 0.0
C619 C 0.87412 0.31695 0.97658 0.0
C620 C 0.87228 0.3235 0.95851 0.0
C621 C 0.89631 0.359 0.95612 0.0
C622 C 0.92172 0.3614 0.94324 0.0
C623 C 0.87869 0.37679 0.94917 0.0
C624 C 0.91145 0.37157 0.97577 0.0
C625 C 0.89815 0.34697 0.98739 0.0
C626 C 0.90659 0.35317 0.00638 0.0
C627 C 0.92915 0.38539 0.01368 0.0
C628 C 0.94335 0.41071 1.00196 0.0
C629 C 0.93465 0.40365 0.98278 0.0
H630 H 0.69757 0.54096 0.91862 0.0
H631 H 0.77793 0.61244 0.95719 0.0
H632 H 0.73907 0.61571 0.97705 0.0
H633 H 0.64285 0.57463 0.92441 0.0
H634 H 0.60691 0.53463 0.92319 0.0
H635 H 0.64093 0.54033 0.91098 0.0
H636 H 0.64312 0.49438 0.92765 0.0
H637 H 0.6092 0.48867 0.93992 0.0
H638 H 0.64676 0.4974 0.95249 0.0
H639 H 0.69243 0.60911 0.99344 0.0
H640 H 0.64045 0.59178 0.00639 0.0
H641 H 0.58902 0.5229 0.95787 0.0
C642 C 0.70684 0.55776 0.93107 0.0
C643 C 0.74066 0.57677 0.93637 0.0
C644 C 0.75209 0.59786 0.95294 0.0
C645 C 0.73023 0.59993 0.96423 0.0
C646 C 0.69702 0.58058 0.95879 0.0
C647 C 0.68525 0.55979 0.94266 0.0
C648 C 0.64831 0.53989 0.94082 0.0
C649 C 0.63391 0.54786 0.92384 0.0
C650 C 0.63614 0.5029 0.94019 0.0
C651 C 0.64127 0.55249 0.95856 0.0
C652 C 0.66978 0.57618 0.96857 0.0
C653 C 0.66991 0.59075 0.9857 0.0
C654 C 0.64016 0.58061 0.99295 0.0
C655 C 0.61054 0.55595 0.98317 0.0
C656 C 0.61117 0.54201 0.96562 0.0
H657 H 0.51363 0.21014 0.95879 0.0
H658 H 0.42013 0.14494 0.92801 0.0
H659 H 0.41818 0.09769 0.94233 0.0
H660 H 0.54437 0.15329 0.95509 0.0
H661 H 0.5658 0.16666 0.97784 0.0
H662 H 0.5597 0.19485 0.96492 0.0
H663 H 0.53215 0.2059 0.9919 0.0
H664 H 0.53801 0.17762 1.00484 0.0
H665 H 0.49781 0.1719 1.00037 0.0
H666 H 0.42516 0.05828 0.96187 0.0
H667 H 0.44256 0.02936 0.98288 0.0
H668 H 0.53312 0.12008 0.9991 0.0
C669 C 0.49281 0.18586 0.95505 0.0
C670 C 0.46693 0.18107 0.9424 0.0
C671 C 0.44023 0.14899 0.93764 0.0
C672 C 0.43889 0.1221 0.94575 0.0
C673 C 0.4647 0.12772 0.95835 0.0
C674 C 0.49137 0.15877 0.96276 0.0
C675 C 0.51612 0.15827 0.97649 0.0
C676 C 0.5484 0.16889 0.96808 0.0
C677 C 0.52131 0.17969 0.99446 0.0
C678 C 0.499 0.1222 0.97941 0.0
C679 C 0.4693 0.10496 0.96891 0.0
C680 C 0.44861 0.07147 0.96991 0.0
C681 C 0.45873 0.0552 0.98181 0.0
C682 C 0.48941 0.07232 0.99231 0.0
C683 C 0.50965 0.10626 0.99109 0.0
H684 H 0.73779 0.16086 0.96079 0.0
H685 H 0.69161 0.16547 0.90888 0.0
H686 H 0.63801 0.12668 0.91841 0.0
H687 H 0.68215 0.07486 0.96567 0.0
H688 H 0.68217 0.08134 0.99024 0.0
H689 H 0.71742 0.10811 0.97903 0.0
H690 H 0.71478 0.15847 0.99274 0.0
H691 H 0.67951 0.13187 1.00397 0.0
H692 H 0.67773 0.15973 0.98871 0.0
H693 H 0.58965 0.08985 0.93368 0.0
H694 H 0.54849 0.0557 0.9535 0.0
H695 H 0.62448 0.07498 0.99651 0.0
C696 C 0.71643 0.15377 0.95141 0.0
C697 C 0.71917 0.16616 0.93394 0.0
C698 C 0.69047 0.15591 0.9221 0.0
C699 C 0.65979 0.13406 0.92747 0.0
C700 C 0.65804 0.12269 0.94478 0.0
C701 C 0.68549 0.13209 0.95661 0.0
C702 C 0.67649 0.11672 0.97467 0.0
C703 C 0.69039 0.0939 0.97756 0.0
C704 C 0.6878 0.14329 0.99099 0.0
C705 C 0.63964 0.0974 0.97115 0.0
C706 C 0.62973 0.10123 0.95376 0.0
C707 C 0.59709 0.08635 0.94723 0.0
C708 C 0.57385 0.06682 0.95867 0.0
C709 C 0.5831 0.06213 0.97657 0.0
C710 C 0.61657 0.07789 0.98291 0.0
H711 H 0.85091 0.58531 0.95445 0.0
H712 H 0.80808 0.50539 0.91069 0.0
H713 H 0.8403 0.48247 0.92407 0.0
H714 H 0.93115 0.59635 0.95576 0.0
H715 H 0.93994 0.60581 0.9804 0.0
H716 H 0.91188 0.61495 0.96826 0.0
H717 H 0.86772 0.5806 0.98944 0.0
H718 H 0.89563 0.57121 1.00159 0.0
H719 H 0.85663 0.53847 0.99135 0.0
H720 H 0.87652 0.46841 0.94135 0.0
H721 H 0.91932 0.46596 0.96013 0.0
H722 H 0.94243 0.55622 0.99265 0.0
C723 C 0.84826 0.56285 0.94785 0.0
C724 C 0.82702 0.54696 0.93156 0.0
C725 C 0.82436 0.51792 0.92309 0.0
C726 C 0.84236 0.50464 0.93066 0.0
C727 C 0.8631 0.52082 0.94666 0.0
C728 C 0.86652 0.54944 0.95511 0.0
C729 C 0.89221 0.56276 0.97156 0.0
C730 C 0.92047 0.59699 0.96882 0.0
C731 C 0.87714 0.56328 0.98955 0.0
C732 C 0.90287 0.53728 0.97085 0.0
C733 C 0.88524 0.51316 0.95649 0.0
C734 C 0.89058 0.48719 0.9526 0.0
C735 C 0.91516 0.48617 0.96333 0.0
C736 C 0.93461 0.51115 0.97772 0.0
C737 C 0.92788 0.53672 0.98182 0.0
H738 H 0.5222 0.32872 0.94422 0.0
H739 H 0.43028 0.25962 0.96345 0.0
H740 H 0.4325 0.30428 0.98412 0.0
H741 H 0.55942 0.37483 0.98868 0.0
H742 H 0.58095 0.41388 0.97941 0.0
H743 H 0.57166 0.3768 0.96565 0.0
H744 H 0.54225 0.3908 0.93982 0.0
H745 H 0.55152 0.42792 0.95354 0.0
H746 H 0.50996 0.39843 0.94523 0.0
H747 H 0.44285 0.35676 1.001 0.0
H748 H 0.46378 0.41297 0.01588 0.0
H749 H 0.55178 0.44732 0.98838 0.0
C750 C 0.50265 0.32318 0.95284 0.0
C751 C 0.47599 0.29094 0.95232 0.0
C752 C 0.45088 0.28425 0.96379 0.0
C753 C 0.4519 0.30943 0.97548 0.0
C754 C 0.47847 0.34102 0.97571 0.0
C755 C 0.50364 0.34796 0.9649 0.0
C756 C 0.52989 0.38386 0.9683 0.0
C757 C 0.5624 0.38755 0.97597 0.0
C758 C 0.53361 0.40127 0.95067 0.0
C759 C 0.51552 0.39593 0.9827 0.0
C760 C 0.48555 0.37092 0.98649 0.0
C761 C 0.46653 0.37642 0.99841 0.0
C762 C 0.47853 0.40832 0.00677 0.0
C763 C 0.50956 0.43399 1.00354 0.0
C764 C 0.52834 0.42775 0.99141 0.0
H765 H 0.14003 0.71514 0.06894 0.0
H766 H 0.23487 0.73176 0.05656 0.0
H767 H 0.20862 0.68042 0.03585 0.0
H768 H 0.10136 0.62738 0.0688 0.0
H769 H 0.06273 0.61872 0.05773 0.0
H770 H 0.0882 0.65699 0.07174 0.0
H771 H 0.08802 0.68965 0.04459 0.0
H772 H 0.06197 0.65168 0.03046 0.0
H773 H 0.09998 0.68166 0.02278 0.0
H774 H 0.17317 0.62741 0.01735 0.0
H775 H 0.12985 0.57604 1.00046 0.0
H776 H 0.05681 0.59372 0.02292 0.0
C777 C 0.15515 0.70785 0.06184 0.0
C778 C 0.18949 0.72748 0.06425 0.0
C779 C 0.20854 0.7173 0.05471 0.0
C780 C 0.19388 0.68811 0.04301 0.0
C781 C 0.16007 0.66939 0.04086 0.0
C782 C 0.14083 0.67883 0.04985 0.0
C783 C 0.10496 0.65418 0.04471 0.0
C784 C 0.08832 0.63837 0.06176 0.0
C785 C 0.08772 0.67026 0.03506 0.0
C786 C 0.1072 0.62952 0.03146 0.0
C787 C 0.1393 0.63878 0.02965 0.0
C788 C 0.14792 0.61993 0.01856 0.0
C789 C 0.1231 0.59078 0.00902 0.0
C790 C 0.08997 0.58078 0.01044 0.0
C791 C 0.08193 0.60059 0.02171 0.0
H792 H 0.27919 0.42291 0.05439 0.0
H793 H 0.32191 0.49323 0.10302 0.0
H794 H 0.37601 0.51501 0.09199 0.0
H795 H 0.34548 0.40643 0.05166 0.0
H796 H 0.34333 0.40337 0.02684 0.0
H797 H 0.30729 0.39298 0.03823 0.0
H798 H 0.29895 0.43486 0.0208 0.0
H799 H 0.335 0.44542 0.00937 0.0
H800 H 0.33142 0.47697 0.02232 0.0
H801 H 0.42442 0.52967 0.07647 0.0
H802 H 0.46718 0.53639 0.05736 0.0
H803 H 0.39585 0.45656 0.01792 0.0
C804 C 0.3 0.44294 0.06263 0.0
C805 C 0.29643 0.45619 0.07968 0.0
C806 C 0.32416 0.48232 0.09012 0.0
C807 C 0.35495 0.49502 0.08391 0.0
C808 C 0.35772 0.48138 0.06719 0.0
C809 C 0.33123 0.45591 0.05665 0.0
C810 C 0.34167 0.44577 0.0393 0.0
C811 C 0.33399 0.41001 0.039 0.0
C812 C 0.32581 0.45108 0.02192 0.0
C813 C 0.37816 0.46961 0.04186 0.0
C814 C 0.3865 0.48986 0.05807 0.0
C815 C 0.4183 0.51392 0.06377 0.0
C816 C 0.44251 0.51739 0.05274 0.0
C817 C 0.43512 0.49678 0.03611 0.0
C818 C 0.40233 0.47265 0.03052 0.0
H819 H 0.59004 0.8659 0.05668 0.0
H820 H 0.51793 0.8349 0.09604 0.0
H821 H 0.49736 0.86926 0.08333 0.0
H822 H 0.60477 0.95217 0.05702 0.0
H823 H 0.61005 0.95298 0.03277 0.0
H824 H 0.62163 0.92921 0.04648 0.0
H825 H 0.58448 0.87744 0.02395 0.0
H826 H 0.57252 0.90089 0.01031 0.0
H827 H 0.542 0.8646 0.01938 0.0
H828 H 0.47813 0.89777 0.06266 0.0
H829 H 0.46652 0.92559 0.03818 0.0
H830 H 0.55425 0.94341 0.01405 0.0
C831 C 0.57054 0.86717 0.06292 0.0
C832 C 0.55565 0.848 0.0774 0.0
C833 C 0.52993 0.84982 0.08513 0.0
C834 C 0.51801 0.86914 0.07795 0.0
C835 C 0.53257 0.88703 0.0633 0.0
C836 C 0.55881 0.88692 0.05617 0.0
C837 C 0.56908 0.90728 0.03991 0.0
C838 C 0.60343 0.93719 0.04431 0.0
C839 C 0.56687 0.88629 0.02236 0.0
C840 C 0.54361 0.91759 0.03851 0.0
C841 C 0.5227 0.90549 0.05211 0.0
C842 C 0.49492 0.90828 0.05233 0.0
C843 C 0.48846 0.924 0.03837 0.0
C844 C 0.50999 0.93724 0.02464 0.0
C845 C 0.53808 0.93437 0.02482 0.0
H846 H 0.98479 0.20548 0.4241 0.0
H847 H 0.90925 0.17048 0.37858 0.0
H848 H 0.9498 0.20621 0.35846 0.0
H849 H 0.03079 0.28994 0.4126 0.0
H850 H 0.06992 0.29426 0.41895 0.0
H851 H 0.03519 0.26712 0.4304 0.0
H852 H 0.044 0.21845 0.42162 0.0
H853 H 0.07928 0.24542 0.41055 0.0
H854 H 0.04685 0.20858 0.39782 0.0
H855 H 0.99838 0.24438 0.34308 0.0
H856 H 0.05236 0.28052 0.33292 0.0
H857 H 0.09699 0.29014 0.38818 0.0
C858 C 0.9768 0.20568 0.40995 0.0
C859 C 0.94389 0.18526 0.40287 0.0
C860 C 0.93438 0.18577 0.38422 0.0
C861 C 0.95719 0.20611 0.37273 0.0
C862 C 0.98945 0.22577 0.38007 0.0
C863 C 0.99934 0.22566 0.39822 0.0
C864 C 0.03578 0.24819 0.4024 0.0
C865 C 0.04336 0.27655 0.41695 0.0
C866 C 0.05245 0.229 0.40845 0.0
C867 C 0.04485 0.26041 0.38368 0.0
C868 C 0.01767 0.24751 0.37109 0.0
C869 C 0.01986 0.25474 0.35283 0.0
C870 C 0.05069 0.27535 0.34719 0.0
C871 C 0.07906 0.28832 0.35973 0.0
C872 C 0.07588 0.28089 0.37826 0.0
H873 H 0.84393 0.76363 0.38679 0.0
H874 H 0.86113 0.81623 0.44074 0.0
H875 H 0.82596 0.83768 0.43005 0.0
H876 H 0.84088 0.82603 0.35984 0.0
H877 H 0.80866 0.796 0.34331 0.0
H878 H 0.8371 0.78641 0.35463 0.0
H879 H 0.78928 0.73497 0.36595 0.0
H880 H 0.76072 0.74443 0.35472 0.0
H881 H 0.76044 0.73944 0.37901 0.0
H882 H 0.78738 0.85093 0.4147 0.0
H883 H 0.74647 0.85567 0.39536 0.0
H884 H 0.75262 0.79476 0.35063 0.0
C885 C 0.84065 0.7801 0.39621 0.0
C886 C 0.8552 0.78829 0.41462 0.0
C887 C 0.84999 0.80947 0.42665 0.0
C888 C 0.83021 0.82191 0.42068 0.0
C889 C 0.81582 0.81301 0.4026 0.0
C890 C 0.82072 0.79268 0.39047 0.0
C891 C 0.80087 0.78586 0.37203 0.0
C892 C 0.82321 0.79939 0.35654 0.0
C893 C 0.77637 0.74898 0.36768 0.0
C894 C 0.78371 0.80513 0.37586 0.0
C895 C 0.79302 0.82069 0.39358 0.0
C896 C 0.77998 0.83902 0.40077 0.0
C897 C 0.75652 0.84135 0.38966 0.0
C898 C 0.74609 0.82539 0.3715 0.0
C899 C 0.76025 0.80739 0.3644 0.0
H900 H 0.17936 0.04954 0.39172 0.0
H901 H 0.27899 0.08583 0.4141 0.0
H902 H 0.27726 0.03675 0.39883 0.0
H903 H 0.15045 0.96409 0.39625 0.0
H904 H 0.12407 0.95006 0.37505 0.0
H905 H 0.13317 0.98786 0.3879 0.0
H906 H 0.1539 0.01896 0.35904 0.0
H907 H 0.14478 0.98125 0.34609 0.0
H908 H 0.18527 0.01635 0.34764 0.0
H909 H 0.26475 0.9839 0.3805 0.0
H910 H 0.24218 0.93137 0.36077 0.0
H911 H 0.15088 0.93008 0.35071 0.0
C912 C 0.2009 0.04729 0.3933 0.0
C913 C 0.22934 0.07152 0.40408 0.0
C914 C 0.25685 0.0674 0.40605 0.0
C915 C 0.25613 0.0397 0.39737 0.0
C916 C 0.22769 0.01628 0.38684 0.0
C917 C 0.20056 0.01978 0.38482 0.0
C918 C 0.173 0.99112 0.37279 0.0
C919 C 0.14343 0.97217 0.38365 0.0
C920 C 0.16371 1.00262 0.35536 0.0
C921 C 0.18894 0.97108 0.36821 0.0
C922 C 0.22046 0.98591 0.37646 0.0
C923 C 0.24005 0.97201 0.37404 0.0
C924 C 0.22705 0.9422 0.36286 0.0
C925 C 0.1948 0.92669 0.35434 0.0
C926 C 0.17562 0.94139 0.35709 0.0
H927 H 0.47096 0.62221 0.28503 0.0
H928 H 0.53902 0.59974 0.26005 0.0
H929 H 0.58496 0.65162 0.27535 0.0
H930 H 0.5167 0.71014 0.28135 0.0
H931 H 0.50631 0.72054 0.3031 0.0
H932 H 0.47876 0.68197 0.28987 0.0
H933 H 0.47925 0.65092 0.31791 0.0
H934 H 0.50676 0.68938 0.33122 0.0
H935 H 0.51754 0.65788 0.32854 0.0
H936 H 0.62347 0.70438 0.29463 0.0
H937 H 0.65182 0.75534 0.31581 0.0
H938 H 0.55885 0.74482 0.32723 0.0
C939 C 0.49555 0.62827 0.28281 0.0
C940 C 0.50149 0.60705 0.27134 0.0
C941 C 0.53397 0.61586 0.26863 0.0
C942 C 0.56019 0.64518 0.2773 0.0
C943 C 0.55352 0.66557 0.28852 0.0
C944 C 0.52202 0.65764 0.29121 0.0
C945 C 0.52156 0.68383 0.30399 0.0
C946 C 0.50484 0.70008 0.29397 0.0
C947 C 0.50532 0.66965 0.32145 0.0
C948 C 0.55773 0.70743 0.30832 0.0
C949 C 0.57574 0.69644 0.29925 0.0
C950 C 0.60963 0.71346 0.30161 0.0
C951 C 0.62554 0.74245 0.31359 0.0
C952 C 0.60755 0.75426 0.3229 0.0
C953 C 0.57323 0.73652 0.32014 0.0
H954 H 0.40978 0.92002 0.29076 0.0
H955 H 0.3641 0.8503 0.24218 0.0
H956 H 0.31074 0.8281 0.2547 0.0
H957 H 0.35977 0.86742 0.32409 0.0
H958 H 0.35742 0.89972 0.33706 0.0
H959 H 0.39247 0.9093 0.32484 0.0
H960 H 0.38355 0.95081 0.30737 0.0
H961 H 0.34861 0.9415 0.3196 0.0
H962 H 0.34466 0.93737 0.29476 0.0
H963 H 0.26314 0.81295 0.27231 0.0
H964 H 0.22206 0.80887 0.29244 0.0
H965 H 0.2967 0.89073 0.32927 0.0
C966 C 0.38848 0.89995 0.28287 0.0
C967 C 0.39091 0.88666 0.26554 0.0
C968 C 0.36261 0.86079 0.25543 0.0
C969 C 0.33231 0.84794 0.26249 0.0
C970 C 0.33069 0.86148 0.2796 0.0
C971 C 0.35785 0.88716 0.2896 0.0
C972 C 0.34882 0.89825 0.30717 0.0
C973 C 0.36562 0.89337 0.32431 0.0
C974 C 0.35689 0.93411 0.30722 0.0
C975 C 0.3123 0.87479 0.30544 0.0
C976 C 0.30264 0.8536 0.28951 0.0
C977 C 0.27035 0.82964 0.28471 0.0
C978 C 0.24711 0.82774 0.2962 0.0
C979 C 0.25594 0.84999 0.31223 0.0
C980 C 0.28917 0.87342 0.31712 0.0
H981 H 0.10591 0.46909 0.27434 0.0
H982 H 0.19587 0.56241 0.28523 0.0
H983 H 0.2198 0.53637 0.30397 0.0
H984 H 0.10484 0.44358 0.31855 0.0
H985 H 0.08895 0.40084 0.31103 0.0
H986 H 0.07984 0.42583 0.29695 0.0
H987 H 0.10298 0.41 0.26949 0.0
H988 H 0.11268 0.38517 0.28343 0.0
H989 H 0.144 0.41736 0.2721 0.0
H990 H 0.23284 0.50148 0.32299 0.0
H991 H 0.23412 0.45987 0.3414 0.0
H992 H 0.13536 0.38913 0.31897 0.0
C993 C 0.13085 0.48383 0.28039 0.0
C994 C 0.14907 0.51778 0.27836 0.0
C995 C 0.18143 0.53644 0.28674 0.0
C996 C 0.19528 0.52183 0.29731 0.0
C997 C 0.17649 0.48849 0.29934 0.0
C998 C 0.14502 0.46964 0.29109 0.0
C999 C 0.12955 0.43473 0.29635 0.0
C1000 C 0.09899 0.42574 0.30631 0.0
C1001 C 0.12185 0.41037 0.27933 0.0
C1002 C 0.15689 0.43723 0.3093 0.0
C1003 C 0.1839 0.46835 0.31058 0.0
C1004 C 0.21193 0.47697 0.32202 0.0
C1005 C 0.21236 0.45322 0.33248 0.0
C1006 C 0.18487 0.42131 0.33157 0.0
C1007 C 0.15684 0.41323 0.31977 0.0
H1008 H 0.35788 0.48552 0.2571 0.0
H1009 H 0.43764 0.50723 0.29785 0.0
H1010 H 0.39864 0.46977 0.31799 0.0
H1011 H 0.30265 0.48232 0.28917 0.0
H1012 H 0.26697 0.44898 0.27616 0.0
H1013 H 0.30114 0.47633 0.26444 0.0
H1014 H 0.30394 0.42679 0.24957 0.0
H1015 H 0.26976 0.39935 0.26129 0.0
H1016 H 0.30736 0.39882 0.26409 0.0
H1017 H 0.35122 0.43157 0.33428 0.0
H1018 H 0.29819 0.39547 0.34572 0.0
H1019 H 0.24892 0.39824 0.29452 0.0
C1020 C 0.36709 0.48204 0.27017 0.0
C1021 C 0.40082 0.49941 0.27594 0.0
C1022 C 0.41191 0.49451 0.29324 0.0
C1023 C 0.38996 0.47313 0.30474 0.0
C1024 C 0.3569 0.4567 0.29878 0.0
C1025 C 0.34542 0.46084 0.28191 0.0
C1026 C 0.30852 0.44102 0.27916 0.0
C1027 C 0.29398 0.46352 0.27712 0.0
C1028 C 0.29671 0.41494 0.26254 0.0
C1029 C 0.30121 0.42536 0.29716 0.0
C1030 C 0.32946 0.43462 0.30823 0.0
C1031 C 0.3289 0.42397 0.3257 0.0
C1032 C 0.29864 0.40347 0.33209 0.0
C1033 C 0.26932 0.39384 0.32105 0.0
C1034 C 0.27082 0.40486 0.30329 0.0
H1035 H 0.51471 0.88105 0.25264 0.0
H1036 H 0.50257 0.94015 0.29572 0.0
H1037 H 0.54298 0.9367 0.31668 0.0
H1038 H 0.51999 0.82634 0.28147 0.0
H1039 H 0.55034 0.82215 0.26986 0.0
H1040 H 0.5232 0.83202 0.25732 0.0
H1041 H 0.57247 0.88395 0.24743 0.0
H1042 H 0.59974 0.87403 0.25984 0.0
H1043 H 0.60319 0.91356 0.26478 0.0
H1044 H 0.58015 0.92329 0.33371 0.0
H1045 H 0.61411 0.90191 0.34612 0.0
H1046 H 0.60348 0.85086 0.29246 0.0
C1047 C 0.52127 0.89387 0.26635 0.0
C1048 C 0.50575 0.91104 0.2726 0.0
C1049 C 0.51424 0.92692 0.29073 0.0
C1050 C 0.53719 0.92515 0.30269 0.0
C1051 C 0.55147 0.9074 0.29633 0.0
C1052 C 0.5441 0.89215 0.27858 0.0
C1053 C 0.56168 0.87298 0.27577 0.0
C1054 C 0.53734 0.83619 0.27082 0.0
C1055 C 0.5857 0.88698 0.26108 0.0
C1056 C 0.57948 0.87939 0.29482 0.0
C1057 C 0.57326 0.89947 0.30634 0.0
C1058 C 0.58552 0.90782 0.32479 0.0
C1059 C 0.60467 0.89534 0.33173 0.0
C1060 C 0.61152 0.87467 0.32029 0.0
C1061 C 0.59892 0.86682 0.30151 0.0
H1062 H 0.13532 0.60571 0.30405 0.0
H1063 H 0.12285 0.62864 0.24829 0.0
H1064 H 0.12788 0.68023 0.2608 0.0
H1065 H 0.0973 0.64421 0.32762 0.0
H1066 H 0.12752 0.66136 0.34722 0.0
H1067 H 0.1193 0.62391 0.3343 0.0
H1068 H 0.18021 0.64995 0.32888 0.0
H1069 H 0.18866 0.68735 0.34194 0.0
H1070 H 0.19995 0.6883 0.31874 0.0
H1071 H 0.1323 0.72881 0.27913 0.0
H1072 H 0.14569 0.77547 0.30196 0.0
H1073 H 0.16524 0.72667 0.34492 0.0
C1074 C 0.13386 0.62142 0.29431 0.0
C1075 C 0.12739 0.61181 0.27506 0.0
C1076 C 0.12592 0.6339 0.26311 0.0
C1077 C 0.12917 0.66374 0.27006 0.0
C1078 C 0.13503 0.67201 0.289 0.0
C1079 C 0.13829 0.65199 0.30094 0.0
C1080 C 0.1477 0.66828 0.32056 0.0
C1081 C 0.12138 0.64824 0.33317 0.0
C1082 C 0.18112 0.6738 0.32796 0.0
C1083 C 0.14909 0.70049 0.3177 0.0
C1084 C 0.14087 0.7017 0.29943 0.0
C1085 C 0.13909 0.72828 0.29344 0.0
C1086 C 0.14652 0.75461 0.30645 0.0
C1087 C 0.15658 0.75468 0.32498 0.0
C1088 C 0.15779 0.72723 0.33072 0.0
H1089 H 0.84807 0.08308 0.38239 0.0
H1090 H 0.84444 0.05523 0.43833 0.0
H1091 H 0.80247 0.99877 0.42708 0.0
H1092 H 0.76435 0.03122 0.36638 0.0
H1093 H 0.77197 0.02025 0.3439 0.0
H1094 H 0.80058 0.0593 0.35633 0.0
H1095 H 0.84696 0.04601 0.35371 0.0
H1096 H 0.81858 0.00713 0.34107 0.0
H1097 H 0.84215 0.00853 0.36166 0.0
H1098 H 0.75943 0.94542 0.40997 0.0
H1099 H 0.72416 0.89741 0.38741 0.0
H1100 H 0.76027 0.95817 0.34258 0.0
C1101 C 0.83891 0.06519 0.39233 0.0
C1102 C 0.84933 0.07418 0.41138 0.0
C1103 C 0.83624 0.04959 0.42376 0.0
C1104 C 0.81247 0.01725 0.4175 0.0
C1105 C 0.80243 0.00951 0.39874 0.0
C1106 C 0.81572 0.03257 0.38628 0.0
C1107 C 0.80203 0.01736 0.3667 0.0
C1108 C 0.78364 0.03297 0.35781 0.0
C1109 C 0.82904 0.0199 0.35511 0.0
C1110 C 0.77892 0.98218 0.37015 0.0
C1111 C 0.77908 0.9783 0.38876 0.0
C1112 C 0.75919 0.94814 0.39536 0.0
C1113 C 0.73908 0.92111 0.38254 0.0
C1114 C 0.73949 0.92444 0.36348 0.0
C1115 C 0.75956 0.95527 0.35718 0.0
H1116 H 0.96141 0.81237 0.39888 0.0
H1117 H 0.94065 0.71865 0.41745 0.0
H1118 H 0.98736 0.72254 0.40255 0.0
H1119 H 0.98453 0.79808 0.35382 0.0
H1120 H 0.01588 0.84032 0.35358 0.0
H1121 H 0.98067 0.83033 0.36572 0.0
H1122 H 0.01818 0.86201 0.3956 0.0
H1123 H 0.05347 0.87198 0.38358 0.0
H1124 H 0.04753 0.85126 0.4042 0.0
H1125 H 0.03813 0.73789 0.38742 0.0
H1126 H 0.08782 0.76222 0.371 0.0
H1127 H 0.07351 0.84352 0.35982 0.0
C1128 C 0.96627 0.79235 0.3996 0.0
C1129 C 0.94733 0.76534 0.40961 0.0
C1130 C 0.95507 0.74 0.41031 0.0
C1131 C 0.98146 0.74182 0.40174 0.0
C1132 C 0.99973 0.7689 0.39223 0.0
C1133 C 0.99232 0.79355 0.39089 0.0
C1134 C 0.01596 0.81995 0.37975 0.0
C1135 C 0.99819 0.8223 0.36217 0.0
C1136 C 0.0349 0.85326 0.39149 0.0
C1137 C 0.03802 0.80642 0.37522 0.0
C1138 C 0.02827 0.77703 0.38269 0.0
C1139 C 0.04571 0.76061 0.38128 0.0
C1140 C 0.07384 0.77456 0.37198 0.0
C1141 C 0.08393 0.80429 0.364 0.0
C1142 C 0.06577 0.82038 0.36554 0.0
H1143 H 0.24601 0.21078 0.40712 0.0
H1144 H 0.15718 0.11677 0.39516 0.0
H1145 H 0.13297 0.1425 0.37637 0.0
H1146 H 0.20712 0.26212 0.40874 0.0
H1147 H 0.23893 0.29432 0.39769 0.0
H1148 H 0.24806 0.26928 0.41178 0.0
H1149 H 0.27215 0.25434 0.38432 0.0
H1150 H 0.26276 0.27908 0.37017 0.0
H1151 H 0.2474 0.23644 0.36265 0.0
H1152 H 0.11915 0.17733 0.35793 0.0
H1153 H 0.11689 0.21911 0.34015 0.0
H1154 H 0.2157 0.29031 0.36229 0.0
C1155 C 0.22126 0.19587 0.40081 0.0
C1156 C 0.20332 0.16185 0.40262 0.0
C1157 C 0.17126 0.14286 0.39388 0.0
C1158 C 0.15729 0.15727 0.38326 0.0
C1159 C 0.17575 0.19072 0.38145 0.0
C1160 C 0.20703 0.20986 0.38995 0.0
C1161 C 0.2222 0.24481 0.38473 0.0
C1162 C 0.2295 0.26906 0.40175 0.0
C1163 C 0.25294 0.2542 0.37488 0.0
C1164 C 0.19482 0.24203 0.37168 0.0
C1165 C 0.16809 0.21073 0.37026 0.0
C1166 C 0.13987 0.20196 0.35897 0.0
C1167 C 0.13887 0.22583 0.34888 0.0
C1168 C 0.16602 0.25798 0.34996 0.0
C1169 C 0.19439 0.26609 0.36146 0.0
H1170 H 0.59999 0.50712 0.71531 0.0
H1171 H 0.63963 0.53047 0.77274 0.0
H1172 H 0.69202 0.57355 0.76386 0.0
H1173 H 0.67172 0.51605 0.69717 0.0
H1174 H 0.66693 0.53358 0.67677 0.0
H1175 H 0.6317 0.50607 0.68771 0.0
H1176 H 0.61468 0.55031 0.69046 0.0
H1177 H 0.64999 0.57803 0.67961 0.0
H1178 H 0.64296 0.59044 0.70189 0.0
H1179 H 0.74095 0.61164 0.74886 0.0
H1180 H 0.78364 0.64223 0.72871 0.0
H1181 H 0.71344 0.59448 0.68061 0.0
C1182 C 0.61964 0.52129 0.72605 0.0
C1183 C 0.61539 0.51541 0.74481 0.0
C1184 C 0.64185 0.53479 0.75836 0.0
C1185 C 0.67184 0.55926 0.75343 0.0
C1186 C 0.67517 0.56423 0.73487 0.0
C1187 C 0.64985 0.54583 0.72137 0.0
C1188 C 0.6604 0.55535 0.70234 0.0
C1189 C 0.65752 0.52602 0.69029 0.0
C1190 C 0.64084 0.56937 0.69303 0.0
C1191 C 0.69573 0.58174 0.70727 0.0
C1192 C 0.7036 0.58646 0.72614 0.0
C1193 C 0.73499 0.60838 0.73409 0.0
C1194 C 0.75911 0.62564 0.72247 0.0
C1195 C 0.7519 0.62103 0.70304 0.0
C1196 C 0.7196 0.59905 0.69539 0.0
H1197 H 0.50335 0.08786 0.72176 0.0
H1198 H 0.49248 0.11009 0.77869 0.0
H1199 H 0.44733 0.11797 0.76826 0.0
H1200 H 0.49191 0.15054 0.70463 0.0
H1201 H 0.47018 0.12748 0.68299 0.0
H1202 H 0.49914 0.11913 0.69474 0.0
H1203 H 0.45468 0.05804 0.6944 0.0
H1204 H 0.42554 0.06623 0.68266 0.0
H1205 H 0.41708 0.04765 0.70405 0.0
H1206 H 0.40654 0.12738 0.75242 0.0
H1207 H 0.3731 0.14031 0.73174 0.0
H1208 H 0.41095 0.11567 0.68435 0.0
C1209 C 0.49142 0.0942 0.73207 0.0
C1210 C 0.50133 0.09759 0.75116 0.0
C1211 C 0.48488 0.10606 0.76407 0.0
C1212 C 0.45924 0.11091 0.75828 0.0
C1213 C 0.45035 0.1076 0.73948 0.0
C1214 C 0.46593 0.09965 0.72651 0.0
C1215 C 0.45298 0.10026 0.7071 0.0
C1216 C 0.48017 0.12588 0.69676 0.0
C1217 C 0.43659 0.066 0.69643 0.0
C1218 C 0.42816 0.11041 0.7113 0.0
C1219 C 0.42694 0.11405 0.73011 0.0
C1220 C 0.40707 0.12443 0.73766 0.0
C1221 C 0.38823 0.13183 0.72573 0.0
C1222 C 0.38938 0.12906 0.70637 0.0
C1223 C 0.40927 0.11767 0.69904 0.0
H1224 H 0.8579 0.35611 0.74498 0.0
H1225 H 0.90725 0.43143 0.70821 0.0
H1226 H 0.91231 0.39143 0.68748 0.0
H1227 H 0.90756 0.31622 0.73828 0.0
H1228 H 0.87346 0.27575 0.73948 0.0
H1229 H 0.87556 0.31062 0.75234 0.0
H1230 H 0.81921 0.29602 0.73677 0.0
H1231 H 0.81651 0.26076 0.72416 0.0
H1232 H 0.8123 0.29078 0.71196 0.0
H1233 H 0.90578 0.34212 0.66901 0.0
H1234 H 0.88841 0.28674 0.65422 0.0
H1235 H 0.84807 0.24443 0.70407 0.0
C1236 C 0.87059 0.36458 0.73284 0.0
C1237 C 0.88216 0.39709 0.72828 0.0
C1238 C 0.89773 0.40664 0.71193 0.0
C1239 C 0.9011 0.38418 0.70016 0.0
C1240 C 0.88929 0.35239 0.70507 0.0
C1241 C 0.8746 0.34264 0.7211 0.0
C1242 C 0.86242 0.30654 0.72269 0.0
C1243 C 0.88085 0.30203 0.73918 0.0
C1244 C 0.82542 0.28741 0.72395 0.0
C1245 C 0.8712 0.29714 0.7046 0.0
C1246 C 0.887 0.32408 0.69474 0.0
C1247 C 0.89428 0.32103 0.67678 0.0
C1248 C 0.88438 0.28956 0.6685 0.0
C1249 C 0.86783 0.26173 0.67826 0.0
C1250 C 0.86194 0.2656 0.69668 0.0
H1251 H 0.17967 0.96385 0.5956 0.0
H1252 H 0.14355 0.9026 0.64058 0.0
H1253 H 0.17491 0.95111 0.66293 0.0
H1254 H 0.26166 0.01567 0.61836 0.0
H1255 H 0.26689 0.05243 0.6092 0.0
H1256 H 0.24083 0.01304 0.59638 0.0
H1257 H 0.19301 0.02455 0.59521 0.0
H1258 H 0.21892 0.06401 0.60798 0.0
H1259 H 0.18115 0.03515 0.61638 0.0
H1260 H 0.20853 0.00619 0.68067 0.0
H1261 H 0.24606 0.06429 0.69255 0.0
H1262 H 0.26355 0.08988 0.63667 0.0
C1263 C 0.17853 0.9605 0.61013 0.0
C1264 C 0.1584 0.92919 0.61618 0.0
C1265 C 0.15779 0.92624 0.63542 0.0
C1266 C 0.1758 0.95369 0.64831 0.0
C1267 C 0.19487 0.98409 0.64188 0.0
C1268 C 0.19677 0.98769 0.62327 0.0
C1269 C 0.21995 0.02318 0.62015 0.0
C1270 C 0.24906 0.02625 0.61045 0.0
C1271 C 0.20218 0.03756 0.60929 0.0
C1272 C 0.23038 0.03888 0.6399 0.0
C1273 C 0.21545 0.01584 0.6522 0.0
C1274 C 0.22056 0.02442 0.67119 0.0
C1275 C 0.24175 0.05737 0.67782 0.0
C1276 C 0.2577 0.08118 0.6655 0.0
C1277 C 0.2519 0.07189 0.64632 0.0
H1278 H 0.07513 0.25224 0.63134 0.0
H1279 H 0.03344 0.18554 0.58133 0.0
H1280 H 0.97894 0.16235 0.59218 0.0
H1281 H 0.01944 0.19513 0.66261 0.0
H1282 H 0.01661 0.2269 0.67585 0.0
H1283 H 0.05314 0.23669 0.6651 0.0
H1284 H 0.0482 0.28105 0.6483 0.0
H1285 H 0.01163 0.27133 0.65893 0.0
H1286 H 0.01117 0.26977 0.63419 0.0
H1287 H 0.9294 0.14916 0.60661 0.0
H1288 H 0.88579 0.1455 0.62426 0.0
H1289 H 0.95714 0.22009 0.6659 0.0
C1290 C 0.05451 0.23234 0.62291 0.0
C1291 C 0.05838 0.2206 0.60548 0.0
C1292 C 0.03089 0.19493 0.59465 0.0
C1293 C 0.9999 0.18153 0.60073 0.0
C1294 C 0.9967 0.19399 0.61773 0.0
C1295 C 0.02309 0.2187 0.62877 0.0
C1296 C 0.01211 0.22855 0.646 0.0
C1297 C 0.02616 0.22138 0.66343 0.0
C1298 C 0.02133 0.26483 0.6469 0.0
C1299 C 0.97544 0.20591 0.64266 0.0
C1300 C 0.9674 0.18616 0.62628 0.0
C1301 C 0.93534 0.16425 0.61955 0.0
C1302 C 0.91067 0.16253 0.6297 0.0
C1303 C 0.91789 0.18253 0.6465 0.0
C1304 C 0.95085 0.20425 0.65322 0.0
H1305 H 0.75579 0.7935 0.61577 0.0
H1306 H 0.84617 0.88686 0.62299 0.0
H1307 H 0.8724 0.86201 0.64087 0.0
H1308 H 0.76237 0.7704 0.66117 0.0
H1309 H 0.74524 0.72744 0.65376 0.0
H1310 H 0.73364 0.75208 0.64093 0.0
H1311 H 0.75137 0.73527 0.61115 0.0
H1312 H 0.76254 0.71032 0.62397 0.0
H1313 H 0.79195 0.74153 0.61125 0.0
H1314 H 0.88917 0.82733 0.65734 0.0
H1315 H 0.89506 0.7852 0.67272 0.0
H1316 H 0.79306 0.71481 0.65685 0.0
C1317 C 0.78114 0.80856 0.62106 0.0
C1318 C 0.799 0.8421 0.61807 0.0
C1319 C 0.83202 0.86121 0.62531 0.0
C1320 C 0.84715 0.84729 0.63539 0.0
C1321 C 0.82887 0.81425 0.63821 0.0
C1322 C 0.79656 0.79511 0.63137 0.0
C1323 C 0.78234 0.76044 0.63688 0.0
C1324 C 0.75424 0.75211 0.6489 0.0
C1325 C 0.77142 0.73543 0.61979 0.0
C1326 C 0.8117 0.7632 0.64791 0.0
C1327 C 0.83833 0.79439 0.64829 0.0
C1328 C 0.86847 0.80286 0.65722 0.0
C1329 C 0.87155 0.77877 0.66594 0.0
C1330 C 0.84459 0.7467 0.66585 0.0
C1331 C 0.81419 0.73897 0.65689 0.0
H1332 H 0.07097 0.82548 0.63029 0.0
H1333 H 0.03256 0.80674 0.57275 0.0
H1334 H 0.97977 0.76302 0.58074 0.0
H1335 H 0.02773 0.74144 0.64157 0.0
H1336 H 0.01996 0.75184 0.66413 0.0
H1337 H 0.05554 0.78083 0.65396 0.0
H1338 H 0.03808 0.82458 0.65804 0.0
H1339 H 1.00261 0.79582 0.66836 0.0
H1340 H 0.99816 0.81495 0.6486 0.0
H1341 H 0.93083 0.72255 0.59474 0.0
H1342 H 0.8878 0.68952 0.61409 0.0
H1343 H 0.95641 0.73471 0.66299 0.0
C1344 C 0.05145 0.81233 0.61936 0.0
C1345 C 0.05624 0.8195 0.60081 0.0
C1346 C 0.02994 0.80139 0.58698 0.0
C1347 C 0.99973 0.77655 0.59139 0.0
C1348 C 0.99596 0.77006 0.60973 0.0
C1349 C 0.02097 0.7875 0.62354 0.0
C1350 C 0.00995 0.77629 0.64224 0.0
C1351 C 0.02946 0.76173 0.65099 0.0
C1352 C 0.01234 0.80459 0.65506 0.0
C1353 C 0.97476 0.74997 0.63677 0.0
C1354 C 0.96739 0.74674 0.61792 0.0
C1355 C 0.93635 0.72479 0.60952 0.0
C1356 C 0.912 0.70607 0.62068 0.0
C1357 C 0.91857 0.70929 0.6401 0.0
C1358 C 0.95062 0.73128 0.64819 0.0
H1359 H 0.14636 0.20288 0.62179 0.0
H1360 H 0.21198 0.29069 0.59681 0.0
H1361 H 0.25841 0.28538 0.60855 0.0
H1362 H 0.20152 0.22255 0.66383 0.0
H1363 H 0.18899 0.18009 0.66583 0.0
H1364 H 0.16081 0.19082 0.6554 0.0
H1365 H 0.15181 0.15238 0.62614 0.0
H1366 H 0.18031 0.1419 0.63636 0.0
H1367 H 0.18632 0.15832 0.61433 0.0
H1368 H 0.29732 0.26766 0.62056 0.0
H1369 H 0.3268 0.24341 0.63624 0.0
H1370 H 0.23721 0.17157 0.65642 0.0
C1371 C 0.17047 0.2215 0.61908 0.0
C1372 C 0.17514 0.24684 0.60797 0.0
C1373 C 0.20736 0.27037 0.60473 0.0
C1374 C 0.23404 0.26775 0.61146 0.0
C1375 C 0.22839 0.24196 0.62185 0.0
C1376 C 0.19752 0.21973 0.62605 0.0
C1377 C 0.19823 0.19472 0.63789 0.0
C1378 C 0.18671 0.1972 0.65687 0.0
C1379 C 0.17796 0.15977 0.62809 0.0
C1380 C 0.23423 0.20608 0.63943 0.0
C1381 C 0.25116 0.23312 0.62985 0.0
C1382 C 0.28444 0.24685 0.62837 0.0
C1383 C 0.30093 0.2329 0.63718 0.0
C1384 C 0.28416 0.20601 0.64755 0.0
C1385 C 0.25048 0.19244 0.64869 0.0
H1386 H 0.77118 0.9266 0.63859 0.0
H1387 H 0.7954 0.95729 0.58397 0.0
H1388 H 0.80672 0.01271 0.59472 0.0
H1389 H 0.7329 0.97522 0.64926 0.0
H1390 H 0.74929 0.98533 0.6731 0.0
H1391 H 0.74127 0.94728 0.661 0.0
H1392 H 0.80106 0.96249 0.66938 0.0
H1393 H 0.80921 1.00047 0.68157 0.0
H1394 H 0.83359 1.00095 0.66345 0.0
H1395 H 0.81953 0.06548 0.6116 0.0
H1396 H 0.83228 0.11239 0.63373 0.0
H1397 H 0.79855 0.04871 0.6774 0.0
C1398 C 0.7788 0.94499 0.6289 0.0
C1399 C 0.78207 0.93747 0.61037 0.0
C1400 C 0.79207 0.96222 0.59811 0.0
C1401 C 0.79872 0.99385 0.6041 0.0
C1402 C 0.79521 1.0004 0.62239 0.0
C1403 C 0.78549 0.97676 0.63464 0.0
C1404 C 0.78471 0.99075 0.65372 0.0
C1405 C 0.74997 0.97362 0.65961 0.0
C1406 C 0.80857 0.98854 0.66786 0.0
C1407 C 0.79598 0.02605 0.6503 0.0
C1408 C 0.80174 0.03093 0.63209 0.0
C1409 C 0.81414 0.06175 0.62576 0.0
C1410 C 0.82082 0.08831 0.63836 0.0
C1411 C 0.81453 0.08393 0.65694 0.0
C1412 C 0.8023 0.05243 0.66305 0.0
H1413 H 0.47171 0.39012 0.73648 0.0
H1414 H 0.56573 0.39976 0.72859 0.0
H1415 H 0.53829 0.34489 0.71138 0.0
H1416 H 0.43069 0.30326 0.74324 0.0
H1417 H 0.39266 0.29425 0.7312 0.0
H1418 H 0.41941 0.33448 0.74299 0.0
H1419 H 0.41991 0.36076 0.71271 0.0
H1420 H 0.3931 0.32063 0.70087 0.0
H1421 H 0.43145 0.34742 0.69229 0.0
H1422 H 0.50149 0.28926 0.69565 0.0
H1423 H 0.4572 0.23647 0.68074 0.0
H1424 H 0.38604 0.2616 0.69836 0.0
C1425 C 0.48653 0.38063 0.7312 0.0
C1426 C 0.52098 0.39947 0.7338 0.0
C1427 C 0.5394 0.38619 0.7265 0.0
C1428 C 0.52402 0.35488 0.71686 0.0
C1429 C 0.49015 0.337 0.71463 0.0
C1430 C 0.47153 0.34929 0.72153 0.0
C1431 C 0.43545 0.32486 0.71698 0.0
C1432 C 0.41857 0.31356 0.73466 0.0
C1433 C 0.41901 0.33928 0.705 0.0
C1434 C 0.43679 0.29715 0.70623 0.0
C1435 C 0.46866 0.30468 0.70526 0.0
C1436 C 0.47645 0.28312 0.69625 0.0
C1437 C 0.45105 0.25317 0.68782 0.0
C1438 C 0.41818 0.24501 0.68829 0.0
C1439 C 0.41094 0.26724 0.69774 0.0
H1440 H 0.63463 0.09098 0.75466 0.0
H1441 H 0.60621 0.15798 0.73305 0.0
H1442 H 0.65115 0.17767 0.71348 0.0
H1443 H 0.72292 0.15062 0.75662 0.0
H1444 H 0.73277 0.11914 0.75089 0.0
H1445 H 0.69802 0.10987 0.76332 0.0
H1446 H 0.66112 0.06217 0.73832 0.0
H1447 H 0.69566 0.0715 0.72572 0.0
H1448 H 0.66037 0.07044 0.71455 0.0
H1449 H 0.69564 0.1864 0.69391 0.0
H1450 H 0.74227 0.18943 0.67892 0.0
H1451 H 0.74716 0.12313 0.71593 0.0
C1452 C 0.63806 0.11021 0.74611 0.0
C1453 C 0.61584 0.12197 0.74512 0.0
C1454 C 0.62165 0.14723 0.7336 0.0
C1455 C 0.64749 0.159 0.72252 0.0
C1456 C 0.66819 0.1462 0.72346 0.0
C1457 C 0.66439 0.12303 0.7353 0.0
C1458 C 0.69081 0.11411 0.73393 0.0
C1459 C 0.71241 0.12403 0.75228 0.0
C1460 C 0.6761 0.07738 0.72776 0.0
C1461 C 0.70936 0.13519 0.71909 0.0
C1462 C 0.69565 0.15326 0.71314 0.0
C1463 C 0.707 0.17286 0.69868 0.0
C1464 C 0.73328 0.17427 0.69017 0.0
C1465 C 0.74827 0.15671 0.69639 0.0
C1466 C 0.7363 0.13711 0.71112 0.0
H1467 H 0.89725 0.51263 0.72157 0.0
H1468 H 0.80863 0.46522 0.74867 0.0
H1469 H 0.78886 0.49831 0.73338 0.0
H1470 H 0.90393 0.59478 0.72473 0.0
H1471 H 0.92011 0.60382 0.70274 0.0
H1472 H 0.92801 0.57773 0.71662 0.0
H1473 H 0.90399 0.53211 0.68928 0.0
H1474 H 0.89582 0.55796 0.6754 0.0
H1475 H 0.86331 0.51769 0.67891 0.0
H1476 H 0.7762 0.53149 0.71259 0.0
H1477 H 0.7735 0.56697 0.68985 0.0
H1478 H 0.87222 0.59708 0.67807 0.0
C1479 C 0.87388 0.50961 0.72439 0.0
C1480 C 0.85433 0.48644 0.73623 0.0
C1481 C 0.82392 0.48303 0.73971 0.0
C1482 C 0.81253 0.50165 0.73108 0.0
C1483 C 0.83216 0.52403 0.71931 0.0
C1484 C 0.86246 0.5286 0.71621 0.0
C1485 C 0.87854 0.5542 0.70283 0.0
C1486 C 0.90949 0.58442 0.7123 0.0
C1487 C 0.88583 0.5396 0.68559 0.0
C1488 C 0.85202 0.5623 0.69831 0.0
C1489 C 0.82547 0.54455 0.70798 0.0
C1490 C 0.79702 0.54593 0.70518 0.0
C1491 C 0.79565 0.56597 0.69217 0.0
C1492 C 0.82274 0.5848 0.68236 0.0
C1493 C 0.85139 0.58322 0.68562 0.0
H1494 H 0.4917 0.91597 0.20481 0.0
H1495 H 0.43519 0.96116 0.22043 0.0
H1496 H 0.44299 0.98562 0.19098 0.0
H1497 H 0.55087 0.98432 0.18276 0.0
H1498 H 0.55447 0.95907 0.16462 0.0
H1499 H 0.54369 0.94402 0.18676 0.0
H1500 H 0.49173 0.89272 0.17097 0.0
H1501 H 0.5023 0.90768 0.14879 0.0
H1502 H 0.46329 0.89792 0.15623 0.0
H1503 H 0.45718 0.00596 0.16023 0.0
H1504 H 0.47756 0.02148 0.13001 0.0
H1505 H 0.52641 0.96483 0.1341 0.0
C1506 C 0.48105 0.93108 0.20206 0.0
C1507 C 0.46244 0.93622 0.21494 0.0
C1508 C 0.44887 0.95613 0.2107 0.0
C1509 C 0.45335 0.97037 0.19403 0.0
C1510 C 0.4716 0.96469 0.18164 0.0
C1511 C 0.48531 0.9456 0.18541 0.0
C1512 C 0.50425 0.94391 0.16972 0.0
C1513 C 0.54047 0.95872 0.17637 0.0
C1514 C 0.4895 0.90845 0.16091 0.0
C1515 C 0.49911 0.96515 0.15665 0.0
C1516 C 0.48014 0.97679 0.16383 0.0
C1517 C 0.47216 0.99709 0.15447 0.0
C1518 C 0.48405 0.00595 0.13735 0.0
C1519 C 0.50383 0.99464 0.12968 0.0
C1520 C 0.51118 0.97372 0.13949 0.0
H1521 H 0.1125 0.57595 0.21378 0.0
H1522 H 0.06292 0.47361 0.22449 0.0
H1523 H 0.03945 0.45764 0.19181 0.0
H1524 H 0.04812 0.57163 0.18417 0.0
H1525 H 0.07516 0.60042 0.16942 0.0
H1526 H 0.08855 0.60303 0.19332 0.0
H1527 H 0.1382 0.59897 0.18385 0.0
H1528 H 0.12495 0.5963 0.15991 0.0
H1529 H 0.1317 0.56477 0.16824 0.0
H1530 H 0.02049 0.45376 0.15764 0.0
H1531 H 0.00908 0.46206 0.1255 0.0
H1532 H 0.0701 0.56736 0.1386 0.0
C1533 C 0.09647 0.55013 0.20937 0.0
C1534 C 0.08923 0.52603 0.22175 0.0
C1535 C 0.06884 0.49249 0.21523 0.0
C1536 C 0.05532 0.48324 0.19673 0.0
C1537 C 0.0626 0.50785 0.18499 0.0
C1538 C 0.08281 0.5406 0.19113 0.0
C1539 C 0.08685 0.56254 0.17604 0.0
C1540 C 0.07388 0.58576 0.18104 0.0
C1541 C 0.12254 0.58177 0.17176 0.0
C1542 C 0.06562 0.5371 0.16035 0.0
C1543 C 0.05182 0.50567 0.16568 0.0
C1544 C 0.03119 0.4783 0.15337 0.0
C1545 C 0.02468 0.48326 0.13517 0.0
C1546 C 0.03877 0.51536 0.12947 0.0
C1547 C 0.05935 0.54248 0.14237 0.0
H1548 H 0.4655 0.57507 0.2063 0.0
H1549 H 0.43581 0.47604 0.21928 0.0
H1550 H 0.44524 0.46258 0.18787 0.0
H1551 H 0.43361 0.55458 0.15706 0.0
H1552 H 0.46796 0.59095 0.15043 0.0
H1553 H 0.45427 0.59125 0.17292 0.0
H1554 H 0.51215 0.60997 0.18803 0.0
H1555 H 0.52596 0.60956 0.16565 0.0
H1556 H 0.53091 0.58582 0.18267 0.0
H1557 H 0.46382 0.4618 0.15627 0.0
H1558 H 0.48867 0.47331 0.12683 0.0
H1559 H 0.50837 0.57356 0.13507 0.0
C1560 C 0.46055 0.55039 0.2025 0.0
C1561 C 0.44981 0.5266 0.21532 0.0
C1562 C 0.44348 0.49456 0.20967 0.0
C1563 C 0.44897 0.48673 0.19186 0.0
C1564 C 0.46062 0.51113 0.17982 0.0
C1565 C 0.46609 0.54226 0.18486 0.0
C1566 C 0.4809 0.56477 0.16989 0.0
C1567 C 0.4578 0.57604 0.16211 0.0
C1568 C 0.51446 0.59426 0.17699 0.0
C1569 C 0.48381 0.54173 0.15583 0.0
C1570 C 0.47166 0.51081 0.16172 0.0
C1571 C 0.47312 0.48584 0.15146 0.0
C1572 C 0.48755 0.4927 0.13482 0.0
C1573 C 0.50055 0.52436 0.12862 0.0
C1574 C 0.49822 0.54899 0.13925 0.0
H1575 H 0.91687 0.48866 0.79732 0.0
H1576 H 0.83668 0.38845 0.78968 0.0
H1577 H 0.84464 0.38289 0.82281 0.0
H1578 H 0.9671 0.47287 0.82545 0.0
H1579 H 0.98528 0.51089 0.84015 0.0
H1580 H 0.96968 0.50905 0.81685 0.0
H1581 H 0.9326 0.53044 0.82862 0.0
H1582 H 0.9483 0.53259 0.85202 0.0
H1583 H 0.90508 0.50926 0.84546 0.0
H1584 H 0.86478 0.38655 0.85583 0.0
H1585 H 0.89725 0.39818 0.88584 0.0
H1586 H 0.96572 0.49528 0.87148 0.0
C1587 C 0.90041 0.466 0.80284 0.0
C1588 C 0.87582 0.43915 0.79122 0.0
C1589 C 0.85536 0.40934 0.79858 0.0
C1590 C 0.85966 0.40604 0.81732 0.0
C1591 C 0.88466 0.43274 0.82842 0.0
C1592 C 0.90472 0.46216 0.82145 0.0
C1593 C 0.93204 0.48575 0.83573 0.0
C1594 C 0.96549 0.49517 0.82915 0.0
C1595 C 0.92933 0.51632 0.84075 0.0
C1596 C 0.92481 0.46467 0.8516 0.0
C1597 C 0.89702 0.43444 0.84726 0.0
C1598 C 0.88636 0.41029 0.85948 0.0
C1599 C 0.90487 0.41709 0.87647 0.0
C1600 C 0.93393 0.44756 0.88089 0.0
C1601 C 0.94363 0.47173 0.86839 0.0
H1602 H 0.57598 0.48957 0.80692 0.0
H1603 H 0.48095 0.4521 0.77715 0.0
H1604 H 0.45799 0.45365 0.80644 0.0
H1605 H 0.54786 0.44349 0.84516 0.0
H1606 H 0.5771 0.47533 0.86219 0.0
H1607 H 0.58694 0.47388 0.83883 0.0
H1608 H 0.59932 0.53357 0.8369 0.0
H1609 H 0.58976 0.53527 0.86033 0.0
H1610 H 0.5689 0.54412 0.84216 0.0
H1611 H 0.44462 0.45624 0.83872 0.0
H1612 H 0.44143 0.46017 0.8722 0.0
H1613 H 0.54514 0.49626 0.88164 0.0
C1614 C 0.5505 0.48233 0.80659 0.0
C1615 C 0.53021 0.47084 0.78978 0.0
C1616 C 0.49684 0.46089 0.78989 0.0
C1617 C 0.48362 0.46176 0.80643 0.0
C1618 C 0.50408 0.4726 0.82279 0.0
C1619 C 0.53681 0.48281 0.82305 0.0
C1620 C 0.55299 0.49189 0.84267 0.0
C1621 C 0.56704 0.46982 0.84749 0.0
C1622 C 0.5793 0.52839 0.84569 0.0
C1623 C 0.52414 0.48485 0.85337 0.0
C1624 C 0.49626 0.47394 0.84158 0.0
C1625 C 0.46636 0.46513 0.8481 0.0
C1626 C 0.46485 0.46764 0.86718 0.0
C1627 C 0.49307 0.47888 0.87964 0.0
C1628 C 0.5231 0.48752 0.87253 0.0
H1629 H 0.51036 0.03034 0.79729 0.0
H1630 H 0.6075 0.11392 0.81119 0.0
H1631 H 0.60496 0.10103 0.84358 0.0
H1632 H 0.47771 0.04252 0.83671 0.0
H1633 H 0.45184 0.99956 0.83926 0.0
H1634 H 0.46285 0.0127 0.81681 0.0
H1635 H 0.48598 0.9736 0.81252 0.0
H1636 H 0.47474 0.96005 0.83491 0.0
H1637 H 0.51622 0.97626 0.82963 0.0
H1638 H 0.58959 0.0819 0.87511 0.0
H1639 H 0.56354 0.05727 0.90278 0.0
H1640 H 0.47597 0.98693 0.86823 0.0
C1641 C 0.5313 0.04579 0.80708 0.0
C1642 C 0.55919 0.07316 0.80161 0.0
C1643 C 0.58608 0.09252 0.8149 0.0
C1644 C 0.58476 0.08552 0.83339 0.0
C1645 C 0.55643 0.05901 0.83838 0.0
C1646 C 0.53028 0.0393 0.82556 0.0
C1647 C 0.50196 0.01344 0.83457 0.0
C1648 C 0.47182 0.01731 0.83166 0.0
C1649 C 0.49428 0.97878 0.82749 0.0
C1650 C 0.51596 0.02204 0.85456 0.0
C1651 C 0.5475 0.04822 0.85647 0.0
C1652 C 0.56506 0.06113 0.87372 0.0
C1653 C 0.55005 0.04688 0.88937 0.0
C1654 C 0.51769 0.02002 0.88776 0.0
C1655 C 0.50061 0.00754 0.87002 0.0
H1656 H 0.15034 0.24517 0.54272 0.0
H1657 H 0.09749 0.29472 0.55758 0.0
H1658 H 0.10168 0.3139 0.52658 0.0
H1659 H 0.20697 0.30768 0.51726 0.0
H1660 H 0.20815 0.27943 0.50005 0.0
H1661 H 0.19933 0.26799 0.52302 0.0
H1662 H 0.14553 0.21593 0.5098 0.0
H1663 H 0.15418 0.22724 0.48677 0.0
H1664 H 0.1164 0.22 0.495 0.0
H1665 H 0.11348 0.32952 0.49441 0.0
H1666 H 0.13277 0.34124 0.46362 0.0
H1667 H 0.17832 0.28184 0.46972 0.0
C1668 C 0.13975 0.26017 0.53951 0.0
C1669 C 0.12351 0.26837 0.55263 0.0
C1670 C 0.10962 0.28769 0.54771 0.0
C1671 C 0.11201 0.29883 0.53016 0.0
C1672 C 0.12834 0.29045 0.51764 0.0
C1673 C 0.14197 0.27157 0.52208 0.0
C1674 C 0.159 0.26678 0.50627 0.0
C1675 C 0.19553 0.28135 0.512 0.0
C1676 C 0.1428 0.23032 0.49903 0.0
C1677 C 0.1532 0.28633 0.49234 0.0
C1678 C 0.13526 0.29957 0.49912 0.0
C1679 C 0.12733 0.31906 0.4889 0.0
C1680 C 0.13824 0.3254 0.47135 0.0
C1681 C 0.15697 0.31237 0.46415 0.0
C1682 C 0.16427 0.29238 0.47483 0.0
H1683 H 0.76899 0.89383 0.54861 0.0
H1684 H 0.70983 0.79643 0.56574 0.0
H1685 H 0.68359 0.77617 0.53379 0.0
H1686 H 0.70806 0.89345 0.5188 0.0
H1687 H 0.73503 0.91577 0.50198 0.0
H1688 H 0.75056 0.92165 0.52577 0.0
H1689 H 0.79347 0.90646 0.51637 0.0
H1690 H 0.77806 0.90052 0.49251 0.0
H1691 H 0.78035 0.86795 0.50294 0.0
H1692 H 0.66106 0.76795 0.50035 0.0
H1693 H 0.64545 0.77189 0.4681 0.0
H1694 H 0.71977 0.87487 0.47332 0.0
C1695 C 0.75055 0.86819 0.54565 0.0
C1696 C 0.74124 0.8467 0.55966 0.0
C1697 C 0.7174 0.81324 0.55517 0.0
C1698 C 0.70235 0.80158 0.5371 0.0
C1699 C 0.71171 0.82365 0.52369 0.0
C1700 C 0.73546 0.8562 0.52775 0.0
C1701 C 0.74055 0.87522 0.51109 0.0
C1702 C 0.73309 0.90316 0.51463 0.0
C1703 C 0.77516 0.8883 0.50539 0.0
C1704 C 0.71547 0.84847 0.49704 0.0
C1705 C 0.69913 0.81886 0.50452 0.0
C1706 C 0.6739 0.79095 0.49433 0.0
C1707 C 0.6651 0.79346 0.47607 0.0
C1708 C 0.68151 0.82365 0.4682 0.0
C1709 C 0.70718 0.85134 0.47885 0.0
H1710 H 0.15184 0.9056 0.54593 0.0
H1711 H 0.13438 0.81204 0.56278 0.0
H1712 H 0.1492 0.79926 0.5328 0.0
H1713 H 0.11819 0.87642 0.49938 0.0
H1714 H 0.14751 0.91261 0.48967 0.0
H1715 H 0.13777 0.91573 0.5129 0.0
H1716 H 0.19867 0.94277 0.52491 0.0
H1717 H 0.20863 0.93999 0.50168 0.0
H1718 H 0.22088 0.92218 0.51939 0.0
H1719 H 0.16371 0.79546 0.50076 0.0
H1720 H 0.17751 0.80099 0.46863 0.0
H1721 H 0.18526 0.89678 0.47188 0.0
C1722 C 0.15172 0.88271 0.54337 0.0
C1723 C 0.14205 0.85981 0.55669 0.0
C1724 C 0.1416 0.82984 0.55274 0.0
C1725 C 0.15003 0.8224 0.53578 0.0
C1726 C 0.15881 0.84514 0.5228 0.0
C1727 C 0.15981 0.87473 0.52636 0.0
C1728 C 0.16892 0.89418 0.50968 0.0
C1729 C 0.14146 0.90007 0.50249 0.0
C1730 C 0.2012 0.92671 0.51419 0.0
C1731 C 0.17263 0.87079 0.49619 0.0
C1732 C 0.16685 0.84275 0.50413 0.0
C1733 C 0.16853 0.81741 0.49444 0.0
C1734 C 0.17652 0.82085 0.4762 0.0
C1735 C 0.18267 0.84937 0.46769 0.0
C1736 C 0.18051 0.87458 0.4779 0.0
H1737 H 0.61768 0.84122 0.13325 0.0
H1738 H 0.5405 0.73935 0.12531 0.0
H1739 H 0.5497 0.73378 0.15823 0.0
H1740 H 0.67081 0.82948 0.16418 0.0
H1741 H 0.68521 0.86765 0.17824 0.0
H1742 H 0.67162 0.86394 0.15426 0.0
H1743 H 0.63036 0.88179 0.16313 0.0
H1744 H 0.64382 0.88556 0.18715 0.0
H1745 H 0.60138 0.85958 0.17912 0.0
H1746 H 0.56773 0.73921 0.19195 0.0
H1747 H 0.59502 0.7545 0.22366 0.0
H1748 H 0.66061 0.85277 0.20954 0.0
C1749 C 0.60254 0.81785 0.1385 0.0
C1750 C 0.5784 0.7907 0.12675 0.0
C1751 C 0.55935 0.76036 0.13405 0.0
C1752 C 0.56425 0.75703 0.15274 0.0
C1753 C 0.58834 0.78425 0.16394 0.0
C1754 C 0.60725 0.81404 0.15709 0.0
C1755 C 0.63226 0.83914 0.1719 0.0
C1756 C 0.66703 0.85072 0.16684 0.0
C1757 C 0.6266 0.86824 0.17554 0.0
C1758 C 0.62462 0.81874 0.18811 0.0
C1759 C 0.59901 0.78724 0.18328 0.0
C1760 C 0.58773 0.76385 0.19591 0.0
C1761 C 0.60326 0.77281 0.21391 0.0
C1762 C 0.62993 0.80481 0.21908 0.0
C1763 C 0.64047 0.82804 0.20597 0.0
H1764 H 0.21116 0.83166 0.13018 0.0
H1765 H 0.20758 0.73799 0.12976 0.0
H1766 H 0.19357 0.734 0.1619 0.0
H1767 H 0.24575 0.86112 0.17795 0.0
H1768 H 0.22182 0.88037 0.18201 0.0
H1769 H 0.23288 0.87656 0.15918 0.0
H1770 H 0.17208 0.84643 0.14649 0.0
H1771 H 0.16082 0.84999 0.16928 0.0
H1772 H 0.14341 0.81022 0.15646 0.0
H1773 H 0.17909 0.73951 0.19381 0.0
H1774 H 0.16434 0.75383 0.22339 0.0
H1775 H 0.17652 0.84372 0.20339 0.0
C1776 C 0.20776 0.81052 0.13696 0.0
C1777 C 0.21037 0.78507 0.12746 0.0
C1778 C 0.20538 0.75759 0.13671 0.0
C1779 C 0.19755 0.75518 0.15499 0.0
C1780 C 0.19471 0.78041 0.16389 0.0
C1781 C 0.19964 0.80757 0.15522 0.0
C1782 C 0.19412 0.83072 0.16781 0.0
C1783 C 0.22551 0.86417 0.17199 0.0
C1784 C 0.16593 0.83455 0.15951 0.0
C1785 C 0.18517 0.81223 0.18483 0.0
C1786 C 0.18588 0.78338 0.18229 0.0
C1787 C 0.17856 0.7621 0.196 0.0
C1788 C 0.17034 0.77052 0.21279 0.0
C1789 C 0.16931 0.79992 0.21577 0.0
C1790 C 0.17679 0.82094 0.20151 0.0
H1791 H 0.17958 0.38908 0.13049 0.0
H1792 H 0.27937 0.46921 0.14152 0.0
H1793 H 0.27655 0.46298 0.17476 0.0
H1794 H 0.15015 0.41089 0.17097 0.0
H1795 H 0.12284 0.36869 0.17457 0.0
H1796 H 0.13269 0.37982 0.15163 0.0
H1797 H 0.15189 0.33738 0.14765 0.0
H1798 H 0.14226 0.32625 0.17058 0.0
H1799 H 0.18269 0.33963 0.16418 0.0
H1800 H 0.2636 0.44635 0.20679 0.0
H1801 H 0.24093 0.42138 0.23509 0.0
H1802 H 0.14852 0.35494 0.20323 0.0
C1803 C 0.20072 0.40566 0.13988 0.0
C1804 C 0.22979 0.42943 0.13329 0.0
C1805 C 0.25701 0.45032 0.14613 0.0
C1806 C 0.25559 0.44718 0.16508 0.0
C1807 C 0.22666 0.4233 0.17105 0.0
C1808 C 0.19964 0.40308 0.15885 0.0
C1809 C 0.17158 0.37921 0.16881 0.0
C1810 C 0.14261 0.38502 0.16635 0.0
C1811 C 0.16153 0.34351 0.16242 0.0
C1812 C 0.18721 0.38885 0.18848 0.0
C1813 C 0.21897 0.41433 0.18951 0.0
C1814 C 0.2386 0.42664 0.20618 0.0
C1815 C 0.22543 0.41241 0.22222 0.0
C1816 C 0.19287 0.38619 0.22147 0.0
C1817 C 0.17359 0.37464 0.20432 0.0
H1818 H 0.84156 0.60621 0.8776 0.0
H1819 H 0.73617 0.55771 0.8696 0.0
H1820 H 0.7392 0.56813 0.83679 0.0
H1821 H 0.85793 0.66892 0.8476 0.0
H1822 H 0.89243 0.66833 0.83905 0.0
H1823 H 0.88187 0.65727 0.8619 0.0
H1824 H 0.87847 0.60137 0.85386 0.0
H1825 H 0.88908 0.61228 0.831 0.0
H1826 H 0.85228 0.57487 0.83404 0.0
H1827 H 0.75398 0.58381 0.80463 0.0
H1828 H 0.77925 0.60409 0.77602 0.0
H1829 H 0.8748 0.64047 0.80503 0.0
C1830 C 0.81905 0.59748 0.86894 0.0
C1831 C 0.7886 0.58109 0.87624 0.0
C1832 C 0.75981 0.57065 0.86443 0.0
C1833 C 0.76127 0.57628 0.84574 0.0
C1834 C 0.7917 0.59237 0.83902 0.0
C1835 C 0.82006 0.60283 0.85029 0.0
C1836 C 0.8497 0.61962 0.83973 0.0
C1837 C 0.87177 0.65567 0.84754 0.0
C1838 C 0.86848 0.60091 0.83965 0.0
C1839 C 0.83362 0.61696 0.82073 0.0
C1840 C 0.80016 0.60118 0.82058 0.0
C1841 C 0.78016 0.59606 0.80459 0.0
C1842 C 0.79475 0.60748 0.78835 0.0
C1843 C 0.82907 0.62383 0.78819 0.0
C1844 C 0.84857 0.62842 0.80467 0.0
H1845 H 0.41481 0.19018 0.88394 0.0
H1846 H 0.50023 0.28726 0.8874 0.0
H1847 H 0.48924 0.29013 0.85427 0.0
H1848 H 0.42158 0.16232 0.8372 0.0
H1849 H 0.3782 0.14054 0.83115 0.0
H1850 H 0.39427 0.14513 0.85476 0.0
H1851 H 0.36041 0.17147 0.86487 0.0
H1852 H 0.34439 0.16714 0.84131 0.0
H1853 H 0.36482 0.20691 0.85435 0.0
H1854 H 0.46761 0.28346 0.82114 0.0
H1855 H 0.43612 0.26838 0.79062 0.0
H1856 H 0.36445 0.17576 0.80872 0.0
C1857 C 0.43153 0.21175 0.87761 0.0
C1858 C 0.45849 0.23845 0.88819 0.0
C1859 C 0.4794 0.26659 0.87954 0.0
C1860 C 0.47343 0.26837 0.86073 0.0
C1861 C 0.44639 0.24183 0.85075 0.0
C1862 C 0.42576 0.21404 0.85887 0.0
C1863 C 0.39743 0.18972 0.84529 0.0
C1864 C 0.39792 0.15752 0.8419 0.0
C1865 C 0.36484 0.18346 0.85185 0.0
C1866 C 0.40511 0.20836 0.82834 0.0
C1867 C 0.43363 0.23822 0.83173 0.0
C1868 C 0.44537 0.26002 0.81828 0.0
C1869 C 0.42739 0.25118 0.80096 0.0
C1870 C 0.39784 0.22088 0.79724 0.0
C1871 C 0.38681 0.19919 0.81116 0.0
H1872 H 0.78589 0.16905 0.87915 0.0
H1873 H 0.80329 0.26855 0.88534 0.0
H1874 H 0.81563 0.27473 0.8529 0.0
H1875 H 0.85096 0.18616 0.8519 0.0
H1876 H 0.82966 0.14784 0.83744 0.0
H1877 H 0.81938 0.15009 0.86062 0.0
H1878 H 0.75924 0.12768 0.84828 0.0
H1879 H 0.76935 0.12529 0.82504 0.0
H1880 H 0.74972 0.1483 0.83107 0.0
H1881 H 0.82773 0.27085 0.82022 0.0
H1882 H 0.84171 0.25819 0.78992 0.0
H1883 H 0.81835 0.16184 0.80502 0.0
C1884 C 0.79184 0.1919 0.87353 0.0
C1885 C 0.79352 0.2183 0.88464 0.0
C1886 C 0.80196 0.2481 0.87699 0.0
C1887 C 0.80885 0.25177 0.8586 0.0
C1888 C 0.80739 0.22547 0.84803 0.0
C1889 C 0.79925 0.19614 0.8552 0.0
C1890 C 0.80143 0.17251 0.84117 0.0
C1891 C 0.82688 0.16364 0.84821 0.0
C1892 C 0.76794 0.14162 0.83609 0.0
C1893 C 0.81246 0.19328 0.82513 0.0
C1894 C 0.81531 0.22357 0.82929 0.0
C1895 C 0.82545 0.24715 0.81676 0.0
C1896 C 0.83321 0.2397 0.79956 0.0
C1897 C 0.83113 0.20907 0.79511 0.0
C1898 C 0.82038 0.18554 0.80808 0.0
H1899 H 0.23153 0.09955 0.46859 0.0
H1900 H 0.28585 0.20152 0.45749 0.0
H1901 H 0.3097 0.21713 0.49003 0.0
H1902 H 0.21494 0.11428 0.51528 0.0
H1903 H 0.21957 0.08142 0.5235 0.0
H1904 H 0.20535 0.07887 0.49974 0.0
H1905 H 0.25198 0.07035 0.4893 0.0
H1906 H 0.26637 0.07291 0.51299 0.0
H1907 H 0.29349 0.10004 0.49763 0.0
H1908 H 0.33063 0.2207 0.52327 0.0
H1909 H 0.34521 0.21236 0.55476 0.0
H1910 H 0.27689 0.10794 0.54376 0.0
C1911 C 0.24838 0.12521 0.47301 0.0
C1912 C 0.25699 0.14934 0.46051 0.0
C1913 C 0.27876 0.18268 0.46688 0.0
C1914 C 0.29249 0.19173 0.4853 0.0
C1915 C 0.28392 0.16717 0.49717 0.0
C1916 C 0.26214 0.13462 0.49128 0.0
C1917 C 0.25757 0.11277 0.50655 0.0
C1918 C 0.22226 0.09585 0.51156 0.0
C1919 C 0.26799 0.08754 0.5013 0.0
C1920 C 0.28064 0.13801 0.52191 0.0
C1921 C 0.29558 0.16926 0.51626 0.0
C1922 C 0.31886 0.19638 0.52787 0.0
C1923 C 0.32713 0.19138 0.54568 0.0
C1924 C 0.31209 0.15953 0.55171 0.0
C1925 C 0.28839 0.13263 0.53965 0.0
H1926 H 0.88474 0.12284 0.47431 0.0
H1927 H 0.89258 0.21052 0.45368 0.0
H1928 H 0.87927 0.22543 0.48377 0.0
H1929 H 0.81674 0.10213 0.49776 0.0
H1930 H 0.82936 0.0872 0.51688 0.0
H1931 H 0.84341 0.08575 0.49468 0.0
H1932 H 0.90327 0.11914 0.50914 0.0
H1933 H 0.8894 0.12045 0.53146 0.0
H1934 H 0.91738 0.15804 0.52237 0.0
H1935 H 0.85886 0.227 0.51498 0.0
H1936 H 0.83689 0.21724 0.54538 0.0
H1937 H 0.84245 0.12826 0.54503 0.0
C1938 C 0.88418 0.14547 0.47623 0.0
C1939 C 0.88965 0.16557 0.46172 0.0
C1940 C 0.8888 0.19501 0.46472 0.0
C1941 C 0.88111 0.20354 0.48171 0.0
C1942 C 0.87475 0.18253 0.49555 0.0
C1943 C 0.87667 0.15432 0.49304 0.0
C1944 C 0.86714 0.13493 0.50962 0.0
C1945 C 0.8374 0.10048 0.50442 0.0
C1946 C 0.89602 0.13305 0.51868 0.0
C1947 C 0.85873 0.15617 0.52173 0.0
C1948 C 0.86336 0.18358 0.51345 0.0
C1949 C 0.85555 0.20584 0.52168 0.0
C1950 C 0.84286 0.19997 0.53886 0.0
C1951 C 0.83816 0.1721 0.54758 0.0
C1952 C 0.84635 0.15009 0.53886 0.0
H1953 H 0.86994 0.76816 0.4776 0.0
H1954 H 0.88904 0.693 0.45494 0.0
H1955 H 0.87502 0.66602 0.48366 0.0
H1956 H 0.90108 0.77259 0.52478 0.0
H1957 H 0.87013 0.77831 0.53459 0.0
H1958 H 0.88291 0.79248 0.51252 0.0
H1959 H 0.82321 0.75812 0.49797 0.0
H1960 H 0.81027 0.74377 0.51997 0.0
H1961 H 0.80061 0.71469 0.5002 0.0
H1962 H 0.85694 0.64596 0.51434 0.0
H1963 H 0.83704 0.63468 0.545 0.0
H1964 H 0.82966 0.72287 0.54796 0.0
C1965 C 0.87112 0.74598 0.47863 0.0
C1966 C 0.88073 0.7328 0.46395 0.0
C1967 C 0.88227 0.70392 0.46604 0.0
C1968 C 0.87414 0.68827 0.48227 0.0
C1969 C 0.86452 0.70177 0.49637 0.0
C1970 C 0.86307 0.73003 0.49475 0.0
C1971 C 0.85155 0.73919 0.51189 0.0
C1972 C 0.878 0.77262 0.52152 0.0
C1973 C 0.81951 0.73891 0.50722 0.0
C1974 C 0.84643 0.71146 0.52331 0.0
C1975 C 0.85415 0.69022 0.5141 0.0
C1976 C 0.85108 0.66257 0.52173 0.0
C1977 C 0.83991 0.65649 0.53925 0.0
C1978 C 0.83193 0.67796 0.54906 0.0
C1979 C 0.83527 0.7058 0.54085 0.0
loop_
_geom_bond_atom_site_label_1
_geom_bond_atom_site_label_2
_geom_bond_distance
_geom_bond_site_symmetry_2
_ccdc_geom_bond_type
H0 C3 0.931 . S
H1 C6 0.928 . S
H2 C8 0.930 . S
C3 H0 0.931 . S
C3 C4 1.413 . S
C3 C5 1.360 . S
C4 C3 1.413 . S
C4 C8 1.429 . S
C5 C3 1.360 . S
C5 C6 1.372 . S
C6 H1 0.928 . S
C6 C5 1.372 . S
C6 C7 1.404 . S
C7 C6 1.404 . S
C7 C8 1.391 . S
C8 H2 0.930 . S
C8 C4 1.429 . S
C8 C7 1.391 . S
H9 C12 0.931 . S
H10 C15 0.928 . S
H11 C17 0.930 . S
C12 H9 0.931 . S
C12 C13 1.413 . S
C12 C14 1.360 . S
C13 C12 1.413 . S
C13 C17 1.429 . S
C14 C12 1.360 . S
C14 C15 1.372 . S
C15 H10 0.928 . S
C15 C14 1.372 . S
C15 C16 1.404 . S
C16 C15 1.404 . S
C16 C17 1.391 . S
C17 H11 0.930 . S
C17 C13 1.429 . S
C17 C16 1.391 . S
H18 C21 0.931 . S
H19 C24 0.928 . S
H20 C26 0.930 . S
C21 H18 0.931 . S
C21 C22 1.413 . S
C21 C23 1.360 . S
C22 C21 1.413 . S
C22 C26 1.429 . S
C23 C21 1.360 . S
C23 C24 1.372 . S
C24 H19 0.928 . S
C24 C23 1.372 . S
C24 C25 1.404 . S
C25 C24 1.404 . S
C25 C26 1.391 . S
C26 H20 0.930 . S
C26 C22 1.429 . S
C26 C25 1.391 . S
H27 C30 0.931 . S
H28 C33 0.928 . S
H29 C35 0.930 . S
C30 H27 0.931 . S
C30 C31 1.413 . S
C30 C32 1.360 . S
C31 C30 1.413 . S
C31 C35 1.429 . S
C32 C30 1.360 . S
C32 C33 1.372 . S
C33 H28 0.928 . S
C33 C32 1.372 . S
C33 C34 1.404 . S
C34 C33 1.404 . S
C34 C35 1.391 . S
C35 H29 0.930 . S
C35 C31 1.429 . S
C35 C34 1.391 . S
H36 C39 0.931 . S
H37 C42 0.928 . S
H38 C44 0.930 . S
C39 H36 0.931 . S
C39 C40 1.413 . S
C39 C41 1.360 . S
C40 C39 1.413 . S
C40 C44 1.429 . S
C41 C39 1.360 . S
C41 C42 1.372 . S
C42 H37 0.928 . S
C42 C41 1.372 . S
C42 C43 1.404 . S
C43 C42 1.404 . S
C43 C44 1.391 . S
C44 H38 0.930 . S
C44 C40 1.429 . S
C44 C43 1.391 . S
H45 C48 0.931 . S
H46 C51 0.928 . S
H47 C53 0.930 . S
C48 H45 0.931 . S
C48 C49 1.413 . S
C48 C50 1.360 . S
C49 C48 1.413 . S
C49 C53 1.429 . S
C50 C48 1.360 . S
C50 C51 1.372 . S
C51 H46 0.928 . S
C51 C50 1.372 . S
C51 C52 1.404 . S
C52 C51 1.404 . S
C52 C53 1.391 . S
C53 H47 0.930 . S
C53 C49 1.429 . S
C53 C52 1.391 . S
H54 C57 0.931 . S
H55 C60 0.928 . S
H56 C62 0.930 . S
C57 H54 0.931 . S
C57 C58 1.413 . S
C57 C59 1.360 . S
C58 C57 1.413 . S
C58 C62 1.429 . S
C59 C57 1.360 . S
C59 C60 1.372 . S
C60 H55 0.928 . S
C60 C59 1.372 . S
C60 C61 1.404 . S
C61 C60 1.404 . S
C61 C62 1.391 . S
C62 H56 0.930 . S
C62 C58 1.429 . S
C62 C61 1.391 . S
H63 C66 0.931 . S
H64 C69 0.928 . S
H65 C71 0.930 . S
C66 H63 0.931 . S
C66 C67 1.413 . S
C66 C68 1.360 . S
C67 C66 1.413 . S
C67 C71 1.429 . S
C68 C66 1.360 . S
C68 C69 1.372 . S
C69 H64 0.928 . S
C69 C68 1.372 . S
C69 C70 1.404 . S
C70 C69 1.404 . S
C70 C71 1.391 . S
C71 H65 0.930 . S
C71 C67 1.429 . S
C71 C70 1.391 . S
H72 C75 0.931 . S
H73 C78 0.928 . S
H74 C80 0.930 . S
C75 H72 0.931 . S
C75 C76 1.413 . S
C75 C77 1.360 . S
C76 C75 1.413 . S
C76 C80 1.429 . S
C77 C75 1.360 . S
C77 C78 1.372 . S
C78 H73 0.928 . S
C78 C77 1.372 . S
C78 C79 1.404 . S
C79 C78 1.404 . S
C79 C80 1.391 . S
C80 H74 0.930 . S
C80 C76 1.429 . S
C80 C79 1.391 . S
H81 C84 0.931 . S
H82 C87 0.928 . S
H83 C89 0.930 . S
C84 H81 0.931 . S
C84 C85 1.413 . S
C84 C86 1.360 . S
C85 C84 1.413 . S
C85 C89 1.429 . S
C86 C84 1.360 . S
C86 C87 1.372 . S
C87 H82 0.928 . S
C87 C86 1.372 . S
C87 C88 1.404 . S
C88 C87 1.404 . S
C88 C89 1.391 . S
C89 H83 0.930 . S
C89 C85 1.429 . S
C89 C88 1.391 . S
H90 C93 0.931 . S
H91 C96 0.928 . S
H92 C98 0.930 . S
C93 H90 0.931 . S
C93 C94 1.413 . S
C93 C95 1.360 . S
C94 C93 1.413 . S
C94 C98 1.429 . S
C95 C93 1.360 . S
C95 C96 1.372 . S
C96 H91 0.928 . S
C96 C95 1.372 . S
C96 C97 1.404 . S
C97 C96 1.404 . S
C97 C98 1.391 . S
C98 H92 0.930 . S
C98 C94 1.429 . S
C98 C97 1.391 . S
H99 C102 0.931 . S
H100 C105 0.928 . S
H101 C107 0.930 . S
C102 H99 0.931 . S
C102 C103 1.413 . S
C102 C104 1.360 . S
C103 C102 1.413 . S
C103 C107 1.429 . S
C104 C102 1.360 . S
C104 C105 1.372 . S
C105 H100 0.928 . S
C105 C104 1.372 . S
C105 C106 1.404 . S
C106 C105 1.404 . S
C106 C107 1.391 . S
C107 H101 0.930 . S
C107 C103 1.429 . S
C107 C106 1.391 . S
H108 C111 0.931 . S
H109 C114 0.928 . S
H110 C116 0.930 . S
C111 H108 0.931 . S
C111 C112 1.413 . S
C111 C113 1.360 . S
C112 C111 1.413 . S
C112 C116 1.429 . S
C113 C111 1.360 . S
C113 C114 1.372 . S
C114 H109 0.928 . S
C114 C113 1.372 . S
C114 C115 1.404 . S
C115 C114 1.404 . S
C115 C116 1.391 . S
C116 H110 0.930 . S
C116 C112 1.429 . S
C116 C115 1.391 . S
H117 C120 0.931 . S
H118 C123 0.928 . S
H119 C125 0.930 . S
C120 H117 0.931 . S
C120 C121 1.413 . S
C120 C122 1.360 . S
C121 C120 1.413 . S
C121 C125 1.429 . S
C122 C120 1.360 . S
C122 C123 1.372 . S
C123 H118 0.928 . S
C123 C122 1.372 . S
C123 C124 1.404 . S
C124 C123 1.404 . S
C124 C125 1.391 . S
C125 H119 0.930 . S
C125 C121 1.429 . S
C125 C124 1.391 . S
H126 C129 0.931 . S
H127 C132 0.928 . S
H128 C134 0.930 . S
C129 H126 0.931 . S
C129 C130 1.413 . S
C129 C131 1.360 . S
C130 C129 1.413 . S
C130 C134 1.429 . S
C131 C129 1.360 . S
C131 C132 1.372 . S
C132 H127 0.928 . S
C132 C131 1.372 . S
C132 C133 1.404 . S
C133 C132 1.404 . S
C133 C134 1.391 . S
C134 H128 0.930 . S
C134 C130 1.429 . S
C134 C133 1.391 . S
H135 C138 0.931 . S
H136 C141 0.928 . S
H137 C143 0.930 . S
C138 H135 0.931 . S
C138 C139 1.413 . S
C138 C140 1.360 . S
C139 C138 1.413 . S
C139 C143 1.429 . S
C140 C138 1.360 . S
C140 C141 1.372 . S
C141 H136 0.928 . S
C141 C140 1.372 . S
C141 C142 1.404 . S
C142 C141 1.404 . S
C142 C143 1.391 . S
C143 H137 0.930 . S
C143 C139 1.429 . S
C143 C142 1.391 . S
H144 C147 0.931 . S
H145 C150 0.928 . S
H146 C152 0.930 . S
C147 H144 0.931 . S
C147 C148 1.413 . S
C147 C149 1.360 . S
C148 C147 1.413 . S
C148 C152 1.429 . S
C149 C147 1.360 . S
C149 C150 1.372 . S
C150 H145 0.928 . S
C150 C149 1.372 . S
C150 C151 1.404 . S
C151 C150 1.404 . S
C151 C152 1.391 . S
C152 H146 0.930 . S
C152 C148 1.429 . S
C152 C151 1.391 . S
H153 C156 0.931 . S
H154 C159 0.928 . S
H155 C161 0.930 . S
C156 H153 0.931 . S
C156 C157 1.413 . S
C156 C158 1.360 . S
C157 C156 1.413 . S
C157 C161 1.429 . S
C158 C156 1.360 . S
C158 C159 1.372 . S
C159 H154 0.928 . S
C159 C158 1.372 . S
C159 C160 1.404 . S
C160 C159 1.404 . S
C160 C161 1.391 . S
C161 H155 0.930 . S
C161 C157 1.429 . S
C161 C160 1.391 . S
C162 Eu163 2.835 . S
C162 C164 1.500 . S
C162 O182 1.257 1_545 S
C162 O183 1.260 . S
Eu163 C162 2.835 . S
Eu163 O182 2.473 1_545 S
Eu163 O183 2.480 . S
Eu163 O184 2.430 . S
Eu163 O185 2.670 1_554 S
Eu163 O186 2.394 1_545 S
Eu163 O191 2.355 1_545 S
Eu163 O193 2.374 . S
C164 C162 1.500 . S
C164 C165 1.377 . S
C164 C169 1.377 1_545 S
C165 C164 1.377 . S
C165 C166 1.395 . S
C165 H194 0.931 . S
C166 C165 1.395 . S
C166 C167 1.383 1_545 S
C166 H195 0.931 . S
C167 C166 1.383 1_565 S
C167 C168 1.394 . S
C168 C167 1.394 . S
C168 C169 1.378 . S
C168 H196 0.931 . S
C169 C164 1.377 1_565 S
C169 C168 1.378 . S
C169 H197 0.931 . S
C170 O184 1.259 1_556 S
C170 O185 1.270 . S
C171 O186 1.251 . S
C171 O187 1.251 1_554 S
C172 Eu173 2.835 . S
C172 C174 1.500 . S
C172 O188 1.257 1_565 S
C172 O189 1.260 . S
Eu173 C172 2.835 . S
Eu173 O185 2.355 1_565 S
Eu173 O187 2.374 . S
Eu173 O188 2.473 1_565 S
Eu173 O189 2.480 . S
Eu173 O190 2.430 . S
Eu173 O191 2.670 1_556 S
Eu173 O192 2.394 1_565 S
C174 C172 1.500 . S
C174 C175 1.377 . S
C174 C179 1.377 1_565 S
C175 C174 1.377 . S
C175 C176 1.395 . S
C175 H198 0.931 . S
C176 C175 1.395 . S
C176 C177 1.383 1_565 S
C176 H199 0.931 . S
C177 C176 1.383 1_545 S
C177 C178 1.394 . S
C178 C177 1.394 . S
C178 C179 1.378 . S
C178 H200 0.931 . S
C179 C174 1.377 1_545 S
C179 C178 1.378 . S
C179 H201 0.931 . S
C180 O190 1.259 1_554 S
C180 O191 1.270 . S
C181 O192 1.251 . S
C181 O193 1.251 1_556 S
O182 C162 1.257 1_565 S
O182 Eu163 2.473 1_565 S
O183 C162 1.260 . S
O183 Eu163 2.480 . S
O184 Eu163 2.430 . S
O184 C170 1.259 1_554 S
O185 Eu163 2.670 1_556 S
O185 C170 1.270 . S
O185 Eu173 2.355 1_545 S
O186 Eu163 2.394 1_565 S
O186 C171 1.251 . S
O187 C171 1.251 1_556 S
O187 Eu173 2.374 . S
O188 C172 1.257 1_545 S
O188 Eu173 2.473 1_545 S
O189 C172 1.260 . S
O189 Eu173 2.480 . S
O190 Eu173 2.430 . S
O190 C180 1.259 1_556 S
O191 Eu163 2.355 1_565 S
O191 Eu173 2.670 1_554 S
O191 C180 1.270 . S
O192 Eu173 2.394 1_545 S
O192 C181 1.251 . S
O193 Eu163 2.374 . S
O193 C181 1.251 1_554 S
H194 C165 0.931 . S
H195 C166 0.931 . S
H196 C168 0.931 . S
H197 C169 0.931 . S
H198 C175 0.931 . S
H199 C176 0.931 . S
H200 C178 0.931 . S
H201 C179 0.931 . S
C202 Eu203 2.835 . S
C202 C204 1.500 1_655 S
C202 O222 1.257 1_655 S
C202 O223 1.260 . S
Eu203 C202 2.835 . S
Eu203 O222 2.473 1_655 S
Eu203 O223 2.480 . S
Eu203 O224 2.430 . S
Eu203 O225 2.670 1_554 S
Eu203 O226 2.394 1_655 S
Eu203 O231 2.355 1_655 S
Eu203 O233 2.374 . S
C204 C202 1.500 1_455 S
C204 C205 1.377 1_455 S
C204 C209 1.377 . S
C205 C204 1.377 1_655 S
C205 C206 1.395 . S
C205 H234 0.931 . S
C206 C205 1.395 . S
C206 C207 1.383 1_655 S
C206 H235 0.931 . S
C207 C206 1.383 1_455 S
C207 C208 1.394 . S
C208 C207 1.394 . S
C208 C209 1.378 . S
C208 H236 0.931 . S
C209 C204 1.377 . S
C209 C208 1.378 . S
C209 H237 0.931 . S
C210 O224 1.259 1_556 S
C210 O225 1.270 . S
C211 O226 1.251 . S
C211 O227 1.251 . S
C212 Eu213 2.835 . S
C212 C214 1.500 1_455 S
C212 O228 1.257 1_455 S
C212 O229 1.260 . S
Eu213 C212 2.835 . S
Eu213 O225 2.355 1_455 S
Eu213 O227 2.374 1_556 S
Eu213 O228 2.473 1_455 S
Eu213 O229 2.480 . S
Eu213 O230 2.430 . S
Eu213 O231 2.670 1_556 S
Eu213 O232 2.394 1_455 S
C214 C212 1.500 1_655 S
C214 C215 1.377 1_655 S
C214 C219 1.377 . S
C215 C214 1.377 1_455 S
C215 C216 1.395 . S
C215 H238 0.931 . S
C216 C215 1.395 . S
C216 C217 1.383 1_455 S
C216 H239 0.931 . S
C217 C216 1.383 1_655 S
C217 C218 1.394 . S
C218 C217 1.394 . S
C218 C219 1.378 . S
C218 H240 0.931 . S
C219 C214 1.377 . S
C219 C218 1.378 . S
C219 H241 0.931 . S
C220 O230 1.259 1_554 S
C220 O231 1.270 . S
C221 O232 1.251 . S
C221 O233 1.251 1_556 S
O222 C202 1.257 1_455 S
O222 Eu203 2.473 1_455 S
O223 C202 1.260 . S
O223 Eu203 2.480 . S
O224 Eu203 2.430 . S
O224 C210 1.259 1_554 S
O225 Eu203 2.670 1_556 S
O225 C210 1.270 . S
O225 Eu213 2.355 1_655 S
O226 Eu203 2.394 1_455 S
O226 C211 1.251 . S
O227 C211 1.251 . S
O227 Eu213 2.374 1_554 S
O228 C212 1.257 1_655 S
O228 Eu213 2.473 1_655 S
O229 C212 1.260 . S
O229 Eu213 2.480 . S
O230 Eu213 2.430 . S
O230 C220 1.259 1_556 S
O231 Eu203 2.355 1_455 S
O231 Eu213 2.670 1_554 S
O231 C220 1.270 . S
O232 Eu213 2.394 1_655 S
O232 C221 1.251 . S
O233 Eu203 2.374 . S
O233 C221 1.251 1_554 S
H234 C205 0.931 . S
H235 C206 0.931 . S
H236 C208 0.931 . S
H237 C209 0.931 . S
H238 C215 0.931 . S
H239 C216 0.931 . S
H240 C218 0.931 . S
H241 C219 0.931 . S
C242 Eu243 2.835 . S
C242 C244 1.500 . S
C242 O262 1.257 . S
C242 O263 1.260 . S
Eu243 C242 2.835 . S
Eu243 O262 2.473 . S
Eu243 O263 2.480 . S
Eu243 O264 2.430 . S
Eu243 O265 2.670 1_556 S
Eu243 O266 2.394 . S
Eu243 O271 2.355 . S
Eu243 O273 2.414 . S
C244 C242 1.500 . S
C244 C245 1.377 . S
C244 C249 1.377 . S
C245 C244 1.377 . S
C245 C246 1.395 . S
C245 H274 0.931 . S
C246 C245 1.395 . S
C246 C247 1.383 . S
C246 H275 0.931 . S
C247 C246 1.383 . S
C247 C248 1.394 . S
C248 C247 1.394 . S
C248 C249 1.378 . S
C248 H276 0.931 . S
C249 C244 1.377 . S
C249 C248 1.378 . S
C249 H277 0.931 . S
C250 O264 1.259 1_554 S
C250 O265 1.270 . S
C251 O266 1.251 . S
C251 O267 1.251 1_556 S
C252 Eu253 2.835 . S
C252 C254 1.500 . S
C252 O268 1.257 . S
C252 O269 1.260 . S
Eu253 C252 2.835 . S
Eu253 O265 2.355 . S
Eu253 O267 2.374 . S
Eu253 O268 2.473 . S
Eu253 O269 2.480 . S
Eu253 O270 2.430 . S
Eu253 O271 2.670 1_554 S
Eu253 O272 2.394 . S
C254 C252 1.500 . S
C254 C255 1.377 . S
C254 C259 1.377 . S
C255 C254 1.377 . S
C255 C256 1.395 . S
C255 H278 0.931 . S
C256 C255 1.395 . S
C256 C257 1.383 . S
C256 H279 0.931 . S
C257 C256 1.383 . S
C257 C258 1.394 . S
C258 C257 1.394 . S
C258 C259 1.378 . S
C258 H280 0.931 . S
C259 C254 1.377 . S
C259 C258 1.378 . S
C259 H281 0.931 . S
C260 O270 1.259 1_556 S
C260 O271 1.270 . S
C261 O272 1.251 . S
C261 O273 1.200 1_554 S
O262 C242 1.257 . S
O262 Eu243 2.473 . S
O263 C242 1.260 . S
O263 Eu243 2.480 . S
O264 Eu243 2.430 . S
O264 C250 1.259 1_556 S
O265 Eu243 2.670 1_554 S
O265 C250 1.270 . S
O265 Eu253 2.355 . S
O266 Eu243 2.394 . S
O266 C251 1.251 . S
O267 C251 1.251 1_554 S
O267 Eu253 2.374 . S
O268 C252 1.257 . S
O268 Eu253 2.473 . S
O269 C252 1.260 . S
O269 Eu253 2.480 . S
O270 Eu253 2.430 . S
O270 C260 1.259 1_554 S
O271 Eu243 2.355 . S
O271 Eu253 2.670 1_556 S
O271 C260 1.270 . S
O272 Eu253 2.394 . S
O272 C261 1.251 . S
O273 Eu243 2.414 . S
O273 C261 1.200 1_556 S
H274 C245 0.931 . S
H275 C246 0.931 . S
H276 C248 0.931 . S
H277 C249 0.931 . S
H278 C255 0.931 . S
H279 C256 0.931 . S
H280 C258 0.931 . S
H281 C259 0.931 . S
C282 Eu283 2.835 . S
C282 C284 1.500 . S
C282 O302 1.257 . S
C282 O303 1.260 . S
Eu283 C282 2.835 . S
Eu283 O302 2.473 . S
Eu283 O303 2.480 . S
Eu283 O304 2.430 . S
Eu283 O305 2.670 . S
Eu283 O306 2.394 . S
Eu283 O311 2.355 . S
Eu283 O313 2.374 . S
C284 C282 1.500 . S
C284 C285 1.377 . S
C284 C289 1.377 . S
C285 C284 1.377 . S
C285 C286 1.395 . S
C285 H314 0.931 . S
C286 C285 1.395 . S
C286 C287 1.383 . S
C286 H315 0.931 . S
C287 C286 1.383 . S
C287 C288 1.394 . S
C288 C287 1.394 . S
C288 C289 1.378 . S
C288 H316 0.931 . S
C289 C284 1.377 . S
C289 C288 1.378 . S
C289 H317 0.931 . S
C290 O304 1.259 . S
C290 O305 1.270 . S
C291 O306 1.251 . S
C291 O307 1.251 . S
C292 Eu293 2.835 . S
C292 C294 1.500 . S
C292 O308 1.257 . S
C292 O309 1.260 . S
Eu293 C292 2.835 . S
Eu293 O305 2.355 . S
Eu293 O307 2.374 . S
Eu293 O308 2.473 . S
Eu293 O309 2.480 . S
Eu293 O310 2.430 . S
Eu293 O311 2.670 . S
Eu293 O312 2.394 . S
C294 C292 1.500 . S
C294 C295 1.377 . S
C294 C299 1.377 . S
C295 C294 1.377 . S
C295 C296 1.395 . S
C295 H318 0.931 . S
C296 C295 1.395 . S
C296 C297 1.383 . S
C296 H319 0.931 . S
C297 C296 1.383 . S
C297 C298 1.394 . S
C298 C297 1.394 . S
C298 C299 1.378 . S
C298 H320 0.931 . S
C299 C294 1.377 . S
C299 C298 1.378 . S
C299 H321 0.931 . S
C300 O310 1.259 . S
C300 O311 1.270 . S
C301 O312 1.251 . S
C301 O313 1.251 . S
O302 C282 1.257 . S
O302 Eu283 2.473 . S
O303 C282 1.260 . S
O303 Eu283 2.480 . S
O304 Eu283 2.430 . S
O304 C290 1.259 . S
O305 Eu283 2.670 . S
O305 C290 1.270 . S
O305 Eu293 2.355 . S
O306 Eu283 2.394 . S
O306 C291 1.251 . S
O307 C291 1.251 . S
O307 Eu293 2.374 . S
O308 C292 1.257 . S
O308 Eu293 2.473 . S
O309 C292 1.260 . S
O309 Eu293 2.480 . S
O310 Eu293 2.430 . S
O310 C300 1.259 . S
O311 Eu283 2.355 . S
O311 Eu293 2.670 . S
O311 C300 1.270 . S
O312 Eu293 2.394 . S
O312 C301 1.251 . S
O313 Eu283 2.374 . S
O313 C301 1.251 . S
H314 C285 0.931 . S
H315 C286 0.931 . S
H316 C288 0.931 . S
H317 C289 0.931 . S
H318 C295 0.931 . S
H319 C296 0.931 . S
H320 C298 0.931 . S
H321 C299 0.931 . S
C322 Eu323 2.835 . S
C322 C324 1.500 . S
C322 O342 1.257 . S
C322 O343 1.260 . S
Eu323 C322 2.835 . S
Eu323 O342 2.473 . S
Eu323 O343 2.480 . S
Eu323 O344 2.430 . S
Eu323 O345 2.670 . S
Eu323 O346 2.394 . S
Eu323 O351 2.355 . S
Eu323 O353 2.374 . S
C324 C322 1.500 . S
C324 C325 1.377 . S
C324 C329 1.377 . S
C325 C324 1.377 . S
C325 C326 1.395 . S
C325 H354 0.931 . S
C326 C325 1.395 . S
C326 C327 1.383 . S
C326 H355 0.931 . S
C327 C326 1.383 . S
C327 C328 1.394 . S
C328 C327 1.394 . S
C328 C329 1.378 . S
C328 H356 0.931 . S
C329 C324 1.377 . S
C329 C328 1.378 . S
C329 H357 0.931 . S
C330 O344 1.259 . S
C330 O345 1.270 . S
C331 O346 1.251 . S
C331 O347 1.251 . S
C332 Eu333 2.835 . S
C332 C334 1.500 . S
C332 O348 1.257 . S
C332 O349 1.260 . S
Eu333 C332 2.835 . S
Eu333 O345 2.355 . S
Eu333 O347 2.374 . S
Eu333 O348 2.473 . S
Eu333 O349 2.480 . S
Eu333 O350 2.430 . S
Eu333 O351 2.670 . S
Eu333 O352 2.394 . S
C334 C332 1.500 . S
C334 C335 1.377 . S
C334 C339 1.377 . S
C335 C334 1.377 . S
C335 C336 1.395 . S
C335 H358 0.931 . S
C336 C335 1.395 . S
C336 C337 1.383 . S
C336 H359 0.931 . S
C337 C336 1.383 . S
C337 C338 1.394 . S
C338 C337 1.394 . S
C338 C339 1.378 . S
C338 H360 0.931 . S
C339 C334 1.377 . S
C339 C338 1.378 . S
C339 H361 0.931 . S
C340 O350 1.259 . S
C340 O351 1.270 . S
C341 O352 1.251 . S
C341 O353 1.251 . S
O342 C322 1.257 . S
O342 Eu323 2.473 . S
O343 C322 1.260 . S
O343 Eu323 2.480 . S
O344 Eu323 2.430 . S
O344 C330 1.259 . S
O345 Eu323 2.670 . S
O345 C330 1.270 . S
O345 Eu333 2.355 . S
O346 Eu323 2.394 . S
O346 C331 1.251 . S
O347 C331 1.251 . S
O347 Eu333 2.374 . S
O348 C332 1.257 . S
O348 Eu333 2.473 . S
O349 C332 1.260 . S
O349 Eu333 2.480 . S
O350 Eu333 2.430 . S
O350 C340 1.259 . S
O351 Eu323 2.355 . S
O351 Eu333 2.670 . S
O351 C340 1.270 . S
O352 Eu333 2.394 . S
O352 C341 1.251 . S
O353 Eu323 2.374 . S
O353 C341 1.251 . S
H354 C325 0.931 . S
H355 C326 0.931 . S
H356 C328 0.931 . S
H357 C329 0.931 . S
H358 C335 0.931 . S
H359 C336 0.931 . S
H360 C338 0.931 . S
H361 C339 0.931 . S
C362 Eu363 2.835 . S
C362 C364 1.500 . S
C362 O382 1.257 . S
C362 O383 1.260 . S
Eu363 C362 2.835 . S
Eu363 O382 2.473 . S
Eu363 O383 2.480 . S
Eu363 O384 2.430 . S
Eu363 O385 2.670 . S
Eu363 O386 2.394 . S
Eu363 O391 2.355 . S
Eu363 O393 2.374 . S
C364 C362 1.500 . S
C364 C365 1.377 . S
C364 C369 1.377 . S
C365 C364 1.377 . S
C365 C366 1.395 . S
C365 H394 0.931 . S
C366 C365 1.395 . S
C366 C367 1.383 . S
C366 H395 0.931 . S
C367 C366 1.383 . S
C367 C368 1.394 . S
C368 C367 1.394 . S
C368 C369 1.378 . S
C368 H396 0.931 . S
C369 C364 1.377 . S
C369 C368 1.378 . S
C369 H397 0.931 . S
C370 O384 1.259 . S
C370 O385 1.270 . S
C371 O386 1.251 . S
C371 O387 1.251 . S
C372 Eu373 2.835 . S
C372 C374 1.500 . S
C372 O388 1.257 . S
C372 O389 1.260 . S
Eu373 C372 2.835 . S
Eu373 O385 2.355 . S
Eu373 O387 2.374 . S
Eu373 O388 2.473 . S
Eu373 O389 2.480 . S
Eu373 O390 2.430 . S
Eu373 O391 2.670 . S
Eu373 O392 2.394 . S
C374 C372 1.500 . S
C374 C375 1.377 . S
C374 C379 1.377 . S
C375 C374 1.377 . S
C375 C376 1.395 . S
C375 H398 0.931 . S
C376 C375 1.395 . S
C376 C377 1.383 . S
C376 H399 0.931 . S
C377 C376 1.383 . S
C377 C378 1.394 . S
C378 C377 1.394 . S
C378 C379 1.378 . S
C378 H400 0.931 . S
C379 C374 1.377 . S
C379 C378 1.378 . S
C379 H401 0.931 . S
C380 O390 1.259 . S
C380 O391 1.270 . S
C381 O392 1.251 . S
C381 O393 1.251 . S
O382 C362 1.257 . S
O382 Eu363 2.473 . S
O383 C362 1.260 . S
O383 Eu363 2.480 . S
O384 Eu363 2.430 . S
O384 C370 1.259 . S
O385 Eu363 2.670 . S
O385 C370 1.270 . S
O385 Eu373 2.355 . S
O386 Eu363 2.394 . S
O386 C371 1.251 . S
O387 C371 1.251 . S
O387 Eu373 2.374 . S
O388 C372 1.257 . S
O388 Eu373 2.473 . S
O389 C372 1.260 . S
O389 Eu373 2.480 . S
O390 Eu373 2.430 . S
O390 C380 1.259 . S
O391 Eu363 2.355 . S
O391 Eu373 2.670 . S
O391 C380 1.270 . S
O392 Eu373 2.394 . S
O392 C381 1.251 . S
O393 Eu363 2.374 . S
O393 C381 1.251 . S
H394 C365 0.931 . S
H395 C366 0.931 . S
H396 C368 0.931 . S
H397 C369 0.931 . S
H398 C375 0.931 . S
H399 C376 0.931 . S
H400 C378 0.931 . S
H401 C379 0.931 . S
C402 Eu403 2.835 . S
C402 C404 1.500 . S
C402 O422 1.257 . S
C402 O423 1.260 . S
Eu403 C402 2.835 . S
Eu403 O422 2.473 . S
Eu403 O423 2.480 . S
Eu403 O424 2.430 . S
Eu403 O425 2.670 . S
Eu403 O426 2.394 . S
Eu403 O431 2.355 . S
Eu403 O433 2.374 . S
C404 C402 1.500 . S
C404 C405 1.377 . S
C404 C409 1.377 . S
C405 C404 1.377 . S
C405 C406 1.395 . S
C405 H434 0.931 . S
C406 C405 1.395 . S
C406 C407 1.383 . S
C406 H435 0.931 . S
C407 C406 1.383 . S
C407 C408 1.394 . S
C408 C407 1.394 . S
C408 C409 1.378 . S
C408 H436 0.931 . S
C409 C404 1.377 . S
C409 C408 1.378 . S
C409 H437 0.931 . S
C410 O424 1.259 . S
C410 O425 1.270 . S
C411 O426 1.251 . S
C411 O427 1.251 . S
C412 Eu413 2.835 . S
C412 C414 1.500 . S
C412 O428 1.257 . S
C412 O429 1.260 . S
Eu413 C412 2.835 . S
Eu413 O425 2.355 . S
Eu413 O427 2.374 . S
Eu413 O428 2.473 . S
Eu413 O429 2.480 . S
Eu413 O430 2.430 . S
Eu413 O431 2.670 . S
Eu413 O432 2.394 . S
C414 C412 1.500 . S
C414 C415 1.377 . S
C414 C419 1.377 . S
C415 C414 1.377 . S
C415 C416 1.395 . S
C415 H438 0.931 . S
C416 C415 1.395 . S
C416 C417 1.383 . S
C416 H439 0.931 . S
C417 C416 1.383 . S
C417 C418 1.394 . S
C418 C417 1.394 . S
C418 C419 1.378 . S
C418 H440 0.931 . S
C419 C414 1.377 . S
C419 C418 1.378 . S
C419 H441 0.931 . S
C420 O430 1.259 . S
C420 O431 1.270 . S
C421 O432 1.251 . S
C421 O433 1.251 . S
O422 C402 1.257 . S
O422 Eu403 2.473 . S
O423 C402 1.260 . S
O423 Eu403 2.480 . S
O424 Eu403 2.430 . S
O424 C410 1.259 . S
O425 Eu403 2.670 . S
O425 C410 1.270 . S
O425 Eu413 2.355 . S
O426 Eu403 2.394 . S
O426 C411 1.251 . S
O427 C411 1.251 . S
O427 Eu413 2.374 . S
O428 C412 1.257 . S
O428 Eu413 2.473 . S
O429 C412 1.260 . S
O429 Eu413 2.480 . S
O430 Eu413 2.430 . S
O430 C420 1.259 . S
O431 Eu403 2.355 . S
O431 Eu413 2.670 . S
O431 C420 1.270 . S
O432 Eu413 2.394 . S
O432 C421 1.251 . S
O433 Eu403 2.374 . S
O433 C421 1.251 . S
H434 C405 0.931 . S
H435 C406 0.931 . S
H436 C408 0.931 . S
H437 C409 0.931 . S
H438 C415 0.931 . S
H439 C416 0.931 . S
H440 C418 0.931 . S
H441 C419 0.931 . S
C442 Eu443 2.835 . S
C442 C444 1.500 . S
C442 O462 1.257 . S
C442 O463 1.260 . S
Eu443 C442 2.835 . S
Eu443 O462 2.473 . S
Eu443 O463 2.480 . S
Eu443 O464 2.430 . S
Eu443 O465 2.670 . S
Eu443 O466 2.394 . S
Eu443 O471 2.355 . S
Eu443 O473 2.374 . S
C444 C442 1.500 . S
C444 C445 1.377 . S
C444 C449 1.377 . S
C445 C444 1.377 . S
C445 C446 1.395 . S
C445 H474 0.931 . S
C446 C445 1.395 . S
C446 C447 1.383 . S
C446 H475 0.931 . S
C447 C446 1.383 . S
C447 C448 1.394 . S
C448 C447 1.394 . S
C448 C449 1.378 . S
C448 H476 0.931 . S
C449 C444 1.377 . S
C449 C448 1.378 . S
C449 H477 0.931 . S
C450 O464 1.259 . S
C450 O465 1.270 . S
C451 O466 1.251 . S
C451 O467 1.251 . S
C452 Eu453 2.835 . S
C452 C454 1.500 . S
C452 O468 1.257 . S
C452 O469 1.260 . S
Eu453 C452 2.835 . S
Eu453 O465 2.355 . S
Eu453 O467 2.374 . S
Eu453 O468 2.473 . S
Eu453 O469 2.480 . S
Eu453 O470 2.430 . S
Eu453 O471 2.670 . S
Eu453 O472 2.394 . S
C454 C452 1.500 . S
C454 C455 1.377 . S
C454 C459 1.377 . S
C455 C454 1.377 . S
C455 C456 1.395 . S
C455 H478 0.931 . S
C456 C455 1.395 . S
C456 C457 1.383 . S
C456 H479 0.931 . S
C457 C456 1.383 . S
C457 C458 1.394 . S
C458 C457 1.394 . S
C458 C459 1.378 . S
C458 H480 0.931 . S
C459 C454 1.377 . S
C459 C458 1.378 . S
C459 H481 0.931 . S
C460 O470 1.259 . S
C460 O471 1.270 . S
C461 O472 1.251 . S
C461 O473 1.251 . S
O462 C442 1.257 . S
O462 Eu443 2.473 . S
O463 C442 1.260 . S
O463 Eu443 2.480 . S
O464 Eu443 2.430 . S
O464 C450 1.259 . S
O465 Eu443 2.670 . S
O465 C450 1.270 . S
O465 Eu453 2.355 . S
O466 Eu443 2.394 . S
O466 C451 1.251 . S
O467 C451 1.251 . S
O467 Eu453 2.374 . S
O468 C452 1.257 . S
O468 Eu453 2.473 . S
O469 C452 1.260 . S
O469 Eu453 2.480 . S
O470 Eu453 2.430 . S
O470 C460 1.259 . S
O471 Eu443 2.355 . S
O471 Eu453 2.670 . S
O471 C460 1.270 . S
O472 Eu453 2.394 . S
O472 C461 1.251 . S
O473 Eu443 2.374 . S
O473 C461 1.251 . S
H474 C445 0.931 . S
H475 C446 0.931 . S
H476 C448 0.931 . S
H477 C449 0.931 . S
H478 C455 0.931 . S
H479 C456 0.931 . S
H480 C458 0.931 . S
H481 C459 0.931 . S
C482 Eu483 2.835 . S
C482 C484 1.500 . S
C482 O502 1.257 . S
C482 O503 1.260 . S
Eu483 C482 2.835 . S
Eu483 O502 2.473 . S
Eu483 O503 2.480 . S
Eu483 O504 2.430 . S
Eu483 O505 2.670 . S
Eu483 O506 2.394 . S
Eu483 O511 2.355 . S
Eu483 O513 2.374 . S
C484 C482 1.500 . S
C484 C485 1.377 . S
C484 C489 1.377 . S
C485 C484 1.377 . S
C485 C486 1.395 . S
C485 H514 0.931 . S
C486 C485 1.395 . S
C486 C487 1.383 . S
C486 H515 0.931 . S
C487 C486 1.383 . S
C487 C488 1.394 . S
C488 C487 1.394 . S
C488 C489 1.378 . S
C488 H516 0.931 . S
C489 C484 1.377 . S
C489 C488 1.378 . S
C489 H517 0.931 . S
C490 O504 1.259 . S
C490 O505 1.270 . S
C491 O506 1.251 . S
C491 O507 1.251 . S
C492 Eu493 2.835 . S
C492 C494 1.500 . S
C492 O508 1.257 . S
C492 O509 1.260 . S
Eu493 C492 2.835 . S
Eu493 O505 2.355 . S
Eu493 O507 2.374 . S
Eu493 O508 2.473 . S
Eu493 O509 2.480 . S
Eu493 O510 2.430 . S
Eu493 O511 2.670 . S
Eu493 O512 2.394 . S
C494 C492 1.500 . S
C494 C495 1.377 . S
C494 C499 1.377 . S
C495 C494 1.377 . S
C495 C496 1.395 . S
C495 H518 0.931 . S
C496 C495 1.395 . S
C496 C497 1.383 . S
C496 H519 0.931 . S
C497 C496 1.383 . S
C497 C498 1.394 . S
C498 C497 1.394 . S
C498 C499 1.378 . S
C498 H520 0.931 . S
C499 C494 1.377 . S
C499 C498 1.378 . S
C499 H521 0.931 . S
C500 O510 1.259 . S
C500 O511 1.270 . S
C501 O512 1.251 . S
C501 O513 1.251 . S
O502 C482 1.257 . S
O502 Eu483 2.473 . S
O503 C482 1.260 . S
O503 Eu483 2.480 . S
O504 Eu483 2.430 . S
O504 C490 1.259 . S
O505 Eu483 2.670 . S
O505 C490 1.270 . S
O505 Eu493 2.355 . S
O506 Eu483 2.394 . S
O506 C491 1.251 . S
O507 C491 1.251 . S
O507 Eu493 2.374 . S
O508 C492 1.257 . S
O508 Eu493 2.473 . S
O509 C492 1.260 . S
O509 Eu493 2.480 . S
O510 Eu493 2.430 . S
O510 C500 1.259 . S
O511 Eu483 2.355 . S
O511 Eu493 2.670 . S
O511 C500 1.270 . S
O512 Eu493 2.394 . S
O512 C501 1.251 . S
O513 Eu483 2.374 . S
O513 C501 1.251 . S
H514 C485 0.931 . S
H515 C486 0.931 . S
H516 C488 0.931 . S
H517 C489 0.931 . S
H518 C495 0.931 . S
H519 C496 0.931 . S
H520 C498 0.931 . S
H521 C499 0.931 . S
H522 C534 0.930 . S
H523 C536 0.930 . S
H524 C537 0.930 . S
H525 C541 0.959 . S
H526 C541 0.959 . S
H527 C541 0.961 . S
H528 C542 0.960 . S
H529 C542 0.961 1_556 S
H530 C542 0.960 . S
H531 C545 0.929 . S
H532 C546 0.931 . S
H533 C548 0.930 . S
C534 H522 0.930 . S
C534 C535 1.399 . S
C534 C539 1.399 . S
C535 C534 1.399 . S
C535 C536 1.376 . S
C536 H523 0.930 . S
C536 C535 1.376 . S
C536 C537 1.388 . S
C537 H524 0.930 . S
C537 C536 1.388 . S
C537 C538 1.390 . S
C538 C537 1.390 . S
C538 C539 1.394 . S
C538 C544 1.465 . S
C539 C534 1.399 . S
C539 C538 1.394 . S
C539 C540 1.516 . S
C540 C539 1.516 . S
C540 C541 1.502 . S
C540 C542 1.561 . S
C540 C543 1.526 . S
C541 H525 0.959 . S
C541 H526 0.959 . S
C541 H527 0.961 . S
C541 C540 1.502 . S
C542 H528 0.960 . S
C542 H529 0.961 1_554 S
C542 H530 0.960 . S
C542 C540 1.561 . S
C543 C540 1.526 . S
C543 C544 1.396 . S
C543 C548 1.390 . S
C544 C538 1.465 . S
C544 C543 1.396 . S
C544 C545 1.399 . S
C545 H531 0.929 . S
C545 C544 1.399 . S
C545 C546 1.385 . S
C546 H532 0.931 . S
C546 C545 1.385 . S
C546 C547 1.389 . S
C547 C546 1.389 . S
C547 C548 1.387 . S
C548 H533 0.930 . S
C548 C543 1.390 . S
C548 C547 1.387 . S
H549 C561 0.930 . S
H550 C563 0.930 . S
H551 C564 0.930 . S
H552 C568 0.959 . S
H553 C568 0.959 . S
H554 C568 0.961 . S
H555 C569 0.960 . S
H556 C569 0.961 . S
H557 C569 0.959 . S
H558 C572 0.929 . S
H559 C573 0.931 . S
H560 C575 0.930 . S
C561 H549 0.930 . S
C561 C562 1.399 . S
C561 C566 1.399 . S
C562 C561 1.399 . S
C562 C563 1.376 . S
C563 H550 0.930 . S
C563 C562 1.376 . S
C563 C564 1.388 . S
C564 H551 0.930 . S
C564 C563 1.388 . S
C564 C565 1.390 . S
C565 C564 1.390 . S
C565 C566 1.394 . S
C565 C571 1.465 . S
C566 C561 1.399 . S
C566 C565 1.394 . S
C566 C567 1.516 . S
C567 C566 1.516 . S
C567 C568 1.502 . S
C567 C569 1.561 . S
C567 C570 1.526 . S
C568 H552 0.959 . S
C568 H553 0.959 . S
C568 H554 0.961 . S
C568 C567 1.502 . S
C569 H555 0.960 . S
C569 H556 0.961 . S
C569 H557 0.959 . S
C569 C567 1.561 . S
C570 C567 1.526 . S
C570 C571 1.396 . S
C570 C575 1.390 . S
C571 C565 1.465 . S
C571 C570 1.396 . S
C571 C572 1.399 . S
C572 H558 0.929 . S
C572 C571 1.399 . S
C572 C573 1.385 . S
C573 H559 0.931 . S
C573 C572 1.385 . S
C573 C574 1.389 . S
C574 C573 1.389 . S
C574 C575 1.387 . S
C575 H560 0.930 . S
C575 C570 1.390 . S
C575 C574 1.387 . S
H576 C588 0.930 . S
H577 C590 0.930 . S
H578 C591 0.930 . S
H579 C595 0.959 . S
H580 C595 0.959 . S
H581 C595 0.961 . S
H582 C596 0.960 . S
H583 C596 0.961 . S
H584 C596 0.959 . S
H585 C599 0.929 1_556 S
H586 C600 0.931 1_556 S
H587 C602 0.930 . S
C588 H576 0.930 . S
C588 C589 1.399 . S
C588 C593 1.399 . S
C589 C588 1.399 . S
C589 C590 1.376 . S
C590 H577 0.930 . S
C590 C589 1.376 . S
C590 C591 1.388 . S
C591 H578 0.930 . S
C591 C590 1.388 . S
C591 C592 1.390 . S
C592 C591 1.390 . S
C592 C593 1.394 . S
C592 C598 1.465 . S
C593 C588 1.399 . S
C593 C592 1.394 . S
C593 C594 1.516 . S
C594 C593 1.516 . S
C594 C595 1.502 . S
C594 C596 1.561 . S
C594 C597 1.526 . S
C595 H579 0.959 . S
C595 H580 0.959 . S
C595 H581 0.961 . S
C595 C594 1.502 . S
C596 H582 0.960 . S
C596 H583 0.961 . S
C596 H584 0.959 . S
C596 C594 1.561 . S
C597 C594 1.526 . S
C597 C598 1.396 . S
C597 C602 1.390 . S
C598 C592 1.465 . S
C598 C597 1.396 . S
C598 C599 1.399 . S
C599 H585 0.929 1_554 S
C599 C598 1.399 . S
C599 C600 1.385 . S
C600 H586 0.931 1_554 S
C600 C599 1.385 . S
C600 C601 1.389 . S
C601 C600 1.389 . S
C601 C602 1.387 . S
C602 H587 0.930 . S
C602 C597 1.390 . S
C602 C601 1.387 . S
H603 C615 0.930 . S
H604 C617 0.930 . S
H605 C618 0.930 . S
H606 C622 0.959 . S
H607 C622 0.959 . S
H608 C622 0.961 . S
H609 C623 0.960 . S
H610 C623 0.961 . S
H611 C623 0.959 . S
H612 C626 0.929 1_554 S
H613 C627 0.902 1_554 S
H614 C629 0.930 . S
C615 H603 0.930 . S
C615 C616 1.399 . S
C615 C620 1.399 . S
C616 C615 1.399 . S
C616 C617 1.376 . S
C617 H604 0.930 . S
C617 C616 1.376 . S
C617 C618 1.388 . S
C618 H605 0.930 . S
C618 C617 1.388 . S
C618 C619 1.390 . S
C619 C618 1.390 . S
C619 C620 1.394 . S
C619 C625 1.465 . S
C620 C615 1.399 . S
C620 C619 1.394 . S
C620 C621 1.516 . S
C621 C620 1.516 . S
C621 C622 1.502 . S
C621 C623 1.561 . S
C621 C624 1.526 . S
C622 H606 0.959 . S
C622 H607 0.959 . S
C622 H608 0.961 . S
C622 C621 1.502 . S
C623 H609 0.960 . S
C623 H610 0.961 . S
C623 H611 0.959 . S
C623 C621 1.561 . S
C624 C621 1.526 . S
C624 C625 1.396 . S
C624 C629 1.390 . S
C625 C619 1.465 . S
C625 C624 1.396 . S
C625 C626 1.399 . S
C626 H612 0.929 1_556 S
C626 C625 1.399 . S
C626 C627 1.387 . S
C627 H613 0.902 1_556 S
C627 C626 1.387 . S
C627 C628 1.416 . S
C628 C627 1.416 . S
C628 C629 1.387 . S
C629 H614 0.930 . S
C629 C624 1.390 . S
C629 C628 1.387 . S
H630 C642 0.930 . S
H631 C644 0.930 . S
H632 C645 0.930 . S
H633 C649 0.959 . S
H634 C649 0.959 . S
H635 C649 0.961 . S
H636 C650 0.960 . S
H637 C650 0.961 . S
H638 C650 0.959 . S
H639 C653 0.929 . S
H640 C654 0.931 . S
H641 C656 0.930 . S
C642 H630 0.930 . S
C642 C643 1.399 . S
C642 C647 1.399 . S
C643 C642 1.399 . S
C643 C644 1.376 . S
C644 H631 0.930 . S
C644 C643 1.376 . S
C644 C645 1.388 . S
C645 H632 0.930 . S
C645 C644 1.388 . S
C645 C646 1.390 . S
C646 C645 1.390 . S
C646 C647 1.394 . S
C646 C652 1.465 . S
C647 C642 1.399 . S
C647 C646 1.394 . S
C647 C648 1.516 . S
C648 C647 1.516 . S
C648 C649 1.502 . S
C648 C650 1.561 . S
C648 C651 1.526 . S
C649 H633 0.959 . S
C649 H634 0.959 . S
C649 H635 0.961 . S
C649 C648 1.502 . S
C650 H636 0.960 . S
C650 H637 0.961 . S
C650 H638 0.959 . S
C650 C648 1.561 . S
C651 C648 1.526 . S
C651 C652 1.396 . S
C651 C656 1.390 . S
C652 C646 1.465 . S
C652 C651 1.396 . S
C652 C653 1.399 . S
C653 H639 0.929 . S
C653 C652 1.399 . S
C653 C654 1.385 . S
C654 H640 0.931 . S
C654 C653 1.385 . S
C654 C655 1.389 . S
C655 C654 1.389 . S
C655 C656 1.387 . S
C656 H641 0.930 . S
C656 C651 1.390 . S
C656 C655 1.387 . S
H657 C669 0.930 . S
H658 C671 0.930 . S
H659 C672 0.930 . S
H660 C676 0.959 . S
H661 C676 0.959 1_554 S
H662 C676 0.961 . S
H663 C677 0.960 . S
H664 C677 0.961 . S
H665 C677 0.959 . S
H666 C680 0.929 . S
H667 C681 0.931 . S
H668 C683 0.930 1_554 S
C669 H657 0.930 . S
C669 C670 1.399 . S
C669 C674 1.399 . S
C670 C669 1.399 . S
C670 C671 1.376 . S
C671 H658 0.930 . S
C671 C670 1.376 . S
C671 C672 1.388 . S
C672 H659 0.930 . S
C672 C671 1.388 . S
C672 C673 1.390 . S
C673 C672 1.390 . S
C673 C674 1.394 . S
C673 C679 1.465 . S
C674 C669 1.399 . S
C674 C673 1.394 . S
C674 C675 1.516 . S
C675 C674 1.516 . S
C675 C676 1.502 . S
C675 C677 1.561 1_556 S
C675 C678 1.526 . S
C676 H660 0.959 . S
C676 H661 0.959 1_556 S
C676 H662 0.961 . S
C676 C675 1.502 . S
C677 H663 0.960 . S
C677 H664 0.961 . S
C677 H665 0.959 . S
C677 C675 1.561 1_554 S
C678 C675 1.526 . S
C678 C679 1.396 . S
C678 C683 1.390 . S
C679 C673 1.465 . S
C679 C678 1.396 . S
C679 C680 1.399 . S
C680 H666 0.929 . S
C680 C679 1.399 . S
C680 C681 1.385 . S
C681 H667 0.931 . S
C681 C680 1.385 . S
C681 C682 1.389 . S
C682 C681 1.389 . S
C682 C683 1.387 . S
C683 H668 0.930 1_556 S
C683 C678 1.390 . S
C683 C682 1.387 . S
H684 C696 0.930 . S
H685 C698 0.930 . S
H686 C699 0.930 . S
H687 C703 0.943 1_556 S
H688 C703 1.013 . S
H689 C703 0.969 . S
H690 C704 0.960 . S
H691 C704 0.961 1_554 S
H692 C704 0.959 . S
H693 C707 0.929 . S
H694 C708 0.931 . S
H695 C710 0.930 1_554 S
C696 H684 0.930 . S
C696 C697 1.399 . S
C696 C701 1.399 . S
C697 C696 1.399 . S
C697 C698 1.376 . S
C698 H685 0.930 . S
C698 C697 1.376 . S
C698 C699 1.388 . S
C699 H686 0.930 . S
C699 C698 1.388 . S
C699 C700 1.390 . S
C700 C699 1.390 . S
C700 C701 1.394 . S
C700 C706 1.465 . S
C701 C696 1.399 . S
C701 C700 1.394 . S
C701 C702 1.516 . S
C702 C701 1.516 . S
C702 C703 1.459 1_556 S
C702 C704 1.561 . S
C702 C705 1.526 . S
C703 H687 0.943 1_554 S
C703 H688 1.013 . S
C703 H689 0.969 . S
C703 C702 1.459 1_554 S
C704 H690 0.960 . S
C704 H691 0.961 1_556 S
C704 H692 0.959 . S
C704 C702 1.561 . S
C705 C702 1.526 . S
C705 C706 1.396 . S
C705 C710 1.390 . S
C706 C700 1.465 . S
C706 C705 1.396 . S
C706 C707 1.399 . S
C707 H693 0.929 . S
C707 C706 1.399 . S
C707 C708 1.385 . S
C708 H694 0.931 . S
C708 C707 1.385 . S
C708 C709 1.389 . S
C709 C708 1.389 . S
C709 C710 1.387 . S
C710 H695 0.930 1_556 S
C710 C705 1.390 . S
C710 C709 1.387 . S
H711 C723 0.930 . S
H712 C725 0.930 . S
H713 C726 0.930 . S
H714 C730 0.959 . S
H715 C730 0.959 . S
H716 C730 0.961 . S
H717 C731 0.960 . S
H718 C731 0.961 . S
H719 C731 0.959 . S
H720 C734 0.929 . S
H721 C735 0.931 . S
H722 C737 0.930 . S
C723 H711 0.930 . S
C723 C724 1.399 . S
C723 C728 1.399 . S
C724 C723 1.399 . S
C724 C725 1.376 . S
C725 H712 0.930 . S
C725 C724 1.376 . S
C725 C726 1.388 . S
C726 H713 0.930 . S
C726 C725 1.388 . S
C726 C727 1.390 . S
C727 C726 1.390 . S
C727 C728 1.394 . S
C727 C733 1.465 . S
C728 C723 1.399 . S
C728 C727 1.394 . S
C728 C729 1.516 . S
C729 C728 1.516 . S
C729 C730 1.502 . S
C729 C731 1.561 . S
C729 C732 1.526 . S
C730 H714 0.959 . S
C730 H715 0.959 . S
C730 H716 0.961 . S
C730 C729 1.502 . S
C731 H717 0.960 . S
C731 H718 0.961 . S
C731 H719 0.959 . S
C731 C729 1.561 . S
C732 C729 1.526 . S
C732 C733 1.396 . S
C732 C737 1.390 . S
C733 C727 1.465 . S
C733 C732 1.396 . S
C733 C734 1.399 . S
C734 H720 0.929 . S
C734 C733 1.399 . S
C734 C735 1.385 . S
C735 H721 0.931 . S
C735 C734 1.385 . S
C735 C736 1.389 . S
C736 C735 1.389 . S
C736 C737 1.387 . S
C737 H722 0.930 . S
C737 C732 1.390 . S
C737 C736 1.387 . S
H738 C750 0.930 . S
H739 C752 0.930 . S
H740 C753 0.930 . S
H741 C757 0.959 . S
H742 C757 0.959 . S
H743 C757 0.961 . S
H744 C758 0.960 . S
H745 C758 0.961 . S
H746 C758 0.959 . S
H747 C761 0.929 1_554 S
H748 C762 0.948 . S
H749 C764 0.930 . S
C750 H738 0.930 . S
C750 C751 1.399 . S
C750 C755 1.399 . S
C751 C750 1.399 . S
C751 C752 1.376 . S
C752 H739 0.930 . S
C752 C751 1.376 . S
C752 C753 1.388 . S
C753 H740 0.930 . S
C753 C752 1.388 . S
C753 C754 1.390 . S
C754 C753 1.390 . S
C754 C755 1.394 . S
C754 C760 1.465 . S
C755 C750 1.399 . S
C755 C754 1.394 . S
C755 C756 1.516 . S
C756 C755 1.516 . S
C756 C757 1.502 . S
C756 C758 1.561 . S
C756 C759 1.526 . S
C757 H741 0.959 . S
C757 H742 0.959 . S
C757 H743 0.961 . S
C757 C756 1.502 . S
C758 H744 0.960 . S
C758 H745 0.961 . S
C758 H746 0.959 . S
C758 C756 1.561 . S
C759 C756 1.526 . S
C759 C760 1.396 . S
C759 C764 1.390 . S
C760 C754 1.465 . S
C760 C759 1.396 . S
C760 C761 1.399 . S
C761 H747 0.929 1_556 S
C761 C760 1.399 . S
C761 C762 1.385 1_556 S
C762 H748 0.948 . S
C762 C761 1.385 1_554 S
C762 C763 1.373 1_554 S
C763 C762 1.373 1_556 S
C763 C764 1.387 . S
C764 H749 0.930 . S
C764 C759 1.390 . S
C764 C763 1.387 . S
H765 C777 0.930 . S
H766 C779 0.930 . S
H767 C780 0.930 . S
H768 C784 0.959 . S
H769 C784 0.959 1_556 S
H770 C784 0.961 . S
H771 C785 0.960 . S
H772 C785 0.961 . S
H773 C785 0.959 1_554 S
H774 C788 0.929 . S
H775 C789 0.931 . S
H776 C791 0.909 1_556 S
C777 H765 0.930 . S
C777 C778 1.399 . S
C777 C782 1.399 . S
C778 C777 1.399 . S
C778 C779 1.376 . S
C779 H766 0.930 . S
C779 C778 1.376 . S
C779 C780 1.388 . S
C780 H767 0.930 . S
C780 C779 1.388 . S
C780 C781 1.390 . S
C781 C780 1.390 . S
C781 C782 1.394 . S
C781 C787 1.465 . S
C782 C777 1.399 . S
C782 C781 1.394 . S
C782 C783 1.516 . S
C783 C782 1.516 . S
C783 C784 1.502 . S
C783 C785 1.561 1_554 S
C783 C786 1.526 . S
C784 H768 0.959 . S
C784 H769 0.959 1_554 S
C784 H770 0.961 . S
C784 C783 1.502 . S
C785 H771 0.960 . S
C785 H772 0.961 . S
C785 H773 0.959 1_556 S
C785 C783 1.561 1_556 S
C786 C783 1.526 . S
C786 C787 1.396 . S
C786 C791 1.390 . S
C787 C781 1.465 . S
C787 C786 1.396 . S
C787 C788 1.399 . S
C788 H774 0.929 . S
C788 C787 1.399 . S
C788 C789 1.385 . S
C789 H775 0.931 . S
C789 C788 1.385 . S
C789 C790 1.389 . S
C790 C789 1.389 . S
C790 C791 1.387 . S
C791 H776 0.909 1_554 S
C791 C786 1.390 . S
C791 C790 1.387 . S
H792 C804 0.930 . S
H793 C806 0.930 . S
H794 C807 0.930 . S
H795 C811 0.959 . S
H796 C811 0.959 . S
H797 C811 0.961 . S
H798 C812 0.960 . S
H799 C812 0.961 . S
H800 C812 0.959 . S
H801 C815 0.929 . S
H802 C816 0.931 . S
H803 C818 0.930 . S
C804 H792 0.930 . S
C804 C805 1.399 . S
C804 C809 1.399 . S
C805 C804 1.399 . S
C805 C806 1.376 . S
C806 H793 0.930 . S
C806 C805 1.376 . S
C806 C807 1.388 . S
C807 H794 0.930 . S
C807 C806 1.388 . S
C807 C808 1.390 . S
C808 C807 1.390 . S
C808 C809 1.394 . S
C808 C814 1.465 . S
C809 C804 1.399 . S
C809 C808 1.394 . S
C809 C810 1.516 . S
C810 C809 1.516 . S
C810 C811 1.502 . S
C810 C812 1.561 . S
C810 C813 1.526 . S
C811 H795 0.959 . S
C811 H796 0.959 . S
C811 H797 0.961 . S
C811 C810 1.502 . S
C812 H798 0.960 . S
C812 H799 0.961 . S
C812 H800 0.959 . S
C812 C810 1.561 . S
C813 C810 1.526 . S
C813 C814 1.396 . S
C813 C818 1.390 . S
C814 C808 1.465 . S
C814 C813 1.396 . S
C814 C815 1.399 . S
C815 H801 0.929 . S
C815 C814 1.399 . S
C815 C816 1.385 . S
C816 H802 0.931 . S
C816 C815 1.385 . S
C816 C817 1.389 . S
C817 C816 1.389 . S
C817 C818 1.387 . S
C818 H803 0.930 . S
C818 C813 1.390 . S
C818 C817 1.387 . S
H819 C831 0.930 . S
H820 C833 0.930 . S
H821 C834 0.930 . S
H822 C838 0.959 1_554 S
H823 C838 0.959 . S
H824 C838 0.961 . S
H825 C839 0.960 . S
H826 C839 0.961 . S
H827 C839 0.959 1_554 S
H828 C842 0.929 . S
H829 C843 0.931 . S
H830 C845 0.930 1_556 S
C831 H819 0.930 . S
C831 C832 1.399 . S
C831 C836 1.399 . S
C832 C831 1.399 . S
C832 C833 1.376 . S
C833 H820 0.930 . S
C833 C832 1.376 . S
C833 C834 1.388 . S
C834 H821 0.930 . S
C834 C833 1.388 . S
C834 C835 1.390 . S
C835 C834 1.390 . S
C835 C836 1.394 . S
C835 C841 1.465 . S
C836 C831 1.399 . S
C836 C835 1.394 . S
C836 C837 1.516 . S
C837 C836 1.516 . S
C837 C838 1.502 1_554 S
C837 C839 1.561 1_554 S
C837 C840 1.526 . S
C838 H822 0.959 1_556 S
C838 H823 0.959 . S
C838 H824 0.961 . S
C838 C837 1.502 1_556 S
C839 H825 0.960 . S
C839 H826 0.961 . S
C839 H827 0.959 1_556 S
C839 C837 1.561 1_556 S
C840 C837 1.526 . S
C840 C841 1.396 . S
C840 C845 1.390 . S
C841 C835 1.465 . S
C841 C840 1.396 . S
C841 C842 1.399 . S
C842 H828 0.929 . S
C842 C841 1.399 . S
C842 C843 1.385 . S
C843 H829 0.931 . S
C843 C842 1.385 . S
C843 C844 1.389 . S
C844 C843 1.389 . S
C844 C845 1.387 . S
C845 H830 0.930 1_554 S
C845 C840 1.390 . S
C845 C844 1.387 . S
H846 C858 0.930 . S
H847 C860 0.930 . S
H848 C861 0.930 . S
H849 C865 0.979 . S
H850 C865 0.986 . S
H851 C865 0.961 . S
H852 C866 0.960 . S
H853 C866 0.961 . S
H854 C866 0.959 . S
H855 C869 0.929 . S
H856 C870 0.931 . S
H857 C872 0.930 . S
C858 H846 0.930 . S
C858 C859 1.399 . S
C858 C863 1.399 . S
C859 C858 1.399 . S
C859 C860 1.376 . S
C860 H847 0.930 . S
C860 C859 1.376 . S
C860 C861 1.388 . S
C861 H848 0.930 . S
C861 C860 1.388 . S
C861 C862 1.390 . S
C862 C861 1.390 . S
C862 C863 1.394 . S
C862 C868 1.465 1_655 S
C863 C858 1.399 . S
C863 C862 1.394 . S
C863 C864 1.516 . S
C864 C863 1.516 . S
C864 C865 1.502 . S
C864 C866 1.561 . S
C864 C867 1.526 1_655 S
C865 H849 0.979 . S
C865 H850 0.986 . S
C865 H851 0.961 . S
C865 C864 1.502 . S
C866 H852 0.960 . S
C866 H853 0.961 . S
C866 H854 0.959 . S
C866 C864 1.561 . S
C867 C864 1.526 1_455 S
C867 C868 1.396 . S
C867 C872 1.390 . S
C868 C862 1.465 1_455 S
C868 C867 1.396 . S
C868 C869 1.399 . S
C869 H855 0.929 . S
C869 C868 1.399 . S
C869 C870 1.385 . S
C870 H856 0.931 . S
C870 C869 1.385 . S
C870 C871 1.389 . S
C871 C870 1.389 . S
C871 C872 1.387 . S
C872 H857 0.930 . S
C872 C867 1.390 . S
C872 C871 1.387 . S
H873 C885 0.930 . S
H874 C887 0.930 . S
H875 C888 0.930 . S
H876 C892 0.959 . S
H877 C892 0.959 . S
H878 C892 0.961 . S
H879 C893 0.960 . S
H880 C893 0.961 . S
H881 C893 0.959 . S
H882 C896 0.929 . S
H883 C897 0.931 . S
H884 C899 0.930 . S
C885 H873 0.930 . S
C885 C886 1.399 . S
C885 C890 1.399 . S
C886 C885 1.399 . S
C886 C887 1.376 . S
C887 H874 0.930 . S
C887 C886 1.376 . S
C887 C888 1.388 . S
C888 H875 0.930 . S
C888 C887 1.388 . S
C888 C889 1.390 . S
C889 C888 1.390 . S
C889 C890 1.394 . S
C889 C895 1.465 . S
C890 C885 1.399 . S
C890 C889 1.394 . S
C890 C891 1.516 . S
C891 C890 1.516 . S
C891 C892 1.502 . S
C891 C893 1.561 . S
C891 C894 1.526 . S
C892 H876 0.959 . S
C892 H877 0.959 . S
C892 H878 0.961 . S
C892 C891 1.502 . S
C893 H879 0.960 . S
C893 H880 0.961 . S
C893 H881 0.959 . S
C893 C891 1.561 . S
C894 C891 1.526 . S
C894 C895 1.396 . S
C894 C899 1.390 . S
C895 C889 1.465 . S
C895 C894 1.396 . S
C895 C896 1.399 . S
C896 H882 0.929 . S
C896 C895 1.399 . S
C896 C897 1.385 . S
C897 H883 0.931 . S
C897 C896 1.385 . S
C897 C898 1.389 . S
C898 C897 1.389 . S
C898 C899 1.387 . S
C899 H884 0.930 . S
C899 C894 1.390 . S
C899 C898 1.387 . S
H900 C912 0.930 . S
H901 C914 0.930 . S
H902 C915 0.930 . S
H903 C919 0.959 . S
H904 C919 0.959 1_565 S
H905 C919 0.961 . S
H906 C920 0.960 1_545 S
H907 C920 0.961 . S
H908 C920 0.959 . S
H909 C923 0.929 . S
H910 C924 0.931 . S
H911 C926 0.930 . S
C912 H900 0.930 . S
C912 C913 1.399 . S
C912 C917 1.399 . S
C913 C912 1.399 . S
C913 C914 1.376 . S
C914 H901 0.930 . S
C914 C913 1.376 . S
C914 C915 1.388 . S
C915 H902 0.930 . S
C915 C914 1.388 . S
C915 C916 1.390 . S
C916 C915 1.390 . S
C916 C917 1.394 . S
C916 C922 1.465 1_545 S
C917 C912 1.399 . S
C917 C916 1.394 . S
C917 C918 1.516 . S
C918 C917 1.516 . S
C918 C919 1.502 . S
C918 C920 1.561 1_545 S
C918 C921 1.526 1_545 S
C919 H903 0.959 . S
C919 H904 0.959 1_545 S
C919 H905 0.961 . S
C919 C918 1.502 . S
C920 H906 0.960 1_565 S
C920 H907 0.961 . S
C920 H908 0.959 . S
C920 C918 1.561 1_565 S
C921 C918 1.526 1_565 S
C921 C922 1.396 . S
C921 C926 1.390 . S
C922 C916 1.465 1_565 S
C922 C921 1.396 . S
C922 C923 1.399 . S
C923 H909 0.929 . S
C923 C922 1.399 . S
C923 C924 1.385 . S
C924 H910 0.931 . S
C924 C923 1.385 . S
C924 C925 1.389 . S
C925 C924 1.389 . S
C925 C926 1.387 . S
C926 H911 0.930 . S
C926 C921 1.390 . S
C926 C925 1.387 . S
H927 C939 0.930 . S
H928 C941 0.930 . S
H929 C942 0.930 . S
H930 C946 0.959 . S
H931 C946 0.959 . S
H932 C946 0.961 . S
H933 C947 0.960 . S
H934 C947 0.961 . S
H935 C947 0.959 . S
H936 C950 0.929 . S
H937 C951 0.931 . S
H938 C953 0.930 . S
C939 H927 0.930 . S
C939 C940 1.399 . S
C939 C944 1.399 . S
C940 C939 1.399 . S
C940 C941 1.376 . S
C941 H928 0.930 . S
C941 C940 1.376 . S
C941 C942 1.388 . S
C942 H929 0.930 . S
C942 C941 1.388 . S
C942 C943 1.390 . S
C943 C942 1.390 . S
C943 C944 1.394 . S
C943 C949 1.465 . S
C944 C939 1.399 . S
C944 C943 1.394 . S
C944 C945 1.516 . S
C945 C944 1.516 . S
C945 C946 1.502 . S
C945 C947 1.561 . S
C945 C948 1.526 . S
C946 H930 0.959 . S
C946 H931 0.959 . S
C946 H932 0.961 . S
C946 C945 1.502 . S
C947 H933 0.960 . S
C947 H934 0.961 . S
C947 H935 0.959 . S
C947 C945 1.561 . S
C948 C945 1.526 . S
C948 C949 1.396 . S
C948 C953 1.390 . S
C949 C943 1.465 . S
C949 C948 1.396 . S
C949 C950 1.399 . S
C950 H936 0.929 . S
C950 C949 1.399 . S
C950 C951 1.385 . S
C951 H937 0.931 . S
C951 C950 1.385 . S
C951 C952 1.389 . S
C952 C951 1.389 . S
C952 C953 1.387 . S
C953 H938 0.930 . S
C953 C948 1.390 . S
C953 C952 1.387 . S
H954 C966 0.930 . S
H955 C968 0.930 . S
H956 C969 0.930 . S
H957 C973 0.959 . S
H958 C973 0.959 . S
H959 C973 0.961 . S
H960 C974 0.960 . S
H961 C974 0.961 . S
H962 C974 0.959 . S
H963 C977 0.929 . S
H964 C978 0.931 . S
H965 C980 0.930 . S
C966 H954 0.930 . S
C966 C967 1.399 . S
C966 C971 1.399 . S
C967 C966 1.399 . S
C967 C968 1.376 . S
C968 H955 0.930 . S
C968 C967 1.376 . S
C968 C969 1.388 . S
C969 H956 0.930 . S
C969 C968 1.388 . S
C969 C970 1.390 . S
C970 C969 1.390 . S
C970 C971 1.394 . S
C970 C976 1.465 . S
C971 C966 1.399 . S
C971 C970 1.394 . S
C971 C972 1.516 . S
C972 C971 1.516 . S
C972 C973 1.502 . S
C972 C974 1.561 . S
C972 C975 1.526 . S
C973 H957 0.959 . S
C973 H958 0.959 . S
C973 H959 0.961 . S
C973 C972 1.502 . S
C974 H960 0.960 . S
C974 H961 0.961 . S
C974 H962 0.959 . S
C974 C972 1.561 . S
C975 C972 1.526 . S
C975 C976 1.396 . S
C975 C980 1.390 . S
C976 C970 1.465 . S
C976 C975 1.396 . S
C976 C977 1.399 . S
C977 H963 0.929 . S
C977 C976 1.399 . S
C977 C978 1.385 . S
C978 H964 0.931 . S
C978 C977 1.385 . S
C978 C979 1.389 . S
C979 C978 1.389 . S
C979 C980 1.387 . S
C980 H965 0.930 . S
C980 C975 1.390 . S
C980 C979 1.387 . S
H981 C993 0.930 . S
H982 C995 0.930 . S
H983 C996 0.930 . S
H984 C1000 0.959 . S
H985 C1000 0.959 . S
H986 C1000 0.961 . S
H987 C1001 0.960 . S
H988 C1001 0.961 . S
H989 C1001 0.959 . S
H990 C1004 0.929 . S
H991 C1005 0.931 . S
H992 C1007 0.930 . S
C993 H981 0.930 . S
C993 C994 1.399 . S
C993 C998 1.399 . S
C994 C993 1.399 . S
C994 C995 1.376 . S
C995 H982 0.930 . S
C995 C994 1.376 . S
C995 C996 1.388 . S
C996 H983 0.930 . S
C996 C995 1.388 . S
C996 C997 1.390 . S
C997 C996 1.390 . S
C997 C998 1.394 . S
C997 C1003 1.465 . S
C998 C993 1.399 . S
C998 C997 1.394 . S
C998 C999 1.516 . S
C999 C998 1.516 . S
C999 C1000 1.502 . S
C999 C1001 1.561 . S
C999 C1002 1.526 . S
C1000 H984 0.959 . S
C1000 H985 0.959 . S
C1000 H986 0.961 . S
C1000 C999 1.502 . S
C1001 H987 0.960 . S
C1001 H988 0.961 . S
C1001 H989 0.959 . S
C1001 C999 1.561 . S
C1002 C999 1.526 . S
C1002 C1003 1.396 . S
C1002 C1007 1.390 . S
C1003 C997 1.465 . S
C1003 C1002 1.396 . S
C1003 C1004 1.399 . S
C1004 H990 0.929 . S
C1004 C1003 1.399 . S
C1004 C1005 1.385 . S
C1005 H991 0.931 . S
C1005 C1004 1.385 . S
C1005 C1006 1.389 . S
C1006 C1005 1.389 . S
C1006 C1007 1.387 . S
C1007 H992 0.930 . S
C1007 C1002 1.390 . S
C1007 C1006 1.387 . S
H1008 C1020 0.930 . S
H1009 C1022 0.930 . S
H1010 C1023 0.930 . S
H1011 C1027 0.959 . S
H1012 C1027 0.959 . S
H1013 C1027 0.961 . S
H1014 C1028 0.960 . S
H1015 C1028 0.961 . S
H1016 C1028 0.959 . S
H1017 C1031 0.929 . S
H1018 C1032 0.931 . S
H1019 C1034 0.930 . S
C1020 H1008 0.930 . S
C1020 C1021 1.399 . S
C1020 C1025 1.399 . S
C1021 C1020 1.399 . S
C1021 C1022 1.376 . S
C1022 H1009 0.930 . S
C1022 C1021 1.376 . S
C1022 C1023 1.388 . S
C1023 H1010 0.930 . S
C1023 C1022 1.388 . S
C1023 C1024 1.390 . S
C1024 C1023 1.390 . S
C1024 C1025 1.394 . S
C1024 C1030 1.465 . S
C1025 C1020 1.399 . S
C1025 C1024 1.394 . S
C1025 C1026 1.516 . S
C1026 C1025 1.516 . S
C1026 C1027 1.502 . S
C1026 C1028 1.561 . S
C1026 C1029 1.526 . S
C1027 H1011 0.959 . S
C1027 H1012 0.959 . S
C1027 H1013 0.961 . S
C1027 C1026 1.502 . S
C1028 H1014 0.960 . S
C1028 H1015 0.961 . S
C1028 H1016 0.959 . S
C1028 C1026 1.561 . S
C1029 C1026 1.526 . S
C1029 C1030 1.396 . S
C1029 C1034 1.390 . S
C1030 C1024 1.465 . S
C1030 C1029 1.396 . S
C1030 C1031 1.399 . S
C1031 H1017 0.929 . S
C1031 C1030 1.399 . S
C1031 C1032 1.385 . S
C1032 H1018 0.931 . S
C1032 C1031 1.385 . S
C1032 C1033 1.389 . S
C1033 C1032 1.389 . S
C1033 C1034 1.387 . S
C1034 H1019 0.930 . S
C1034 C1029 1.390 . S
C1034 C1033 1.387 . S
H1035 C1047 0.930 . S
H1036 C1049 0.930 . S
H1037 C1050 0.930 . S
H1038 C1054 0.959 . S
H1039 C1054 0.959 . S
H1040 C1054 0.961 . S
H1041 C1055 0.960 . S
H1042 C1055 0.961 . S
H1043 C1055 0.959 . S
H1044 C1058 0.929 . S
H1045 C1059 0.931 . S
H1046 C1061 0.930 . S
C1047 H1035 0.930 . S
C1047 C1048 1.399 . S
C1047 C1052 1.399 . S
C1048 C1047 1.399 . S
C1048 C1049 1.376 . S
C1049 H1036 0.930 . S
C1049 C1048 1.376 . S
C1049 C1050 1.388 . S
C1050 H1037 0.930 . S
C1050 C1049 1.388 . S
C1050 C1051 1.390 . S
C1051 C1050 1.390 . S
C1051 C1052 1.394 . S
C1051 C1057 1.465 . S
C1052 C1047 1.399 . S
C1052 C1051 1.394 . S
C1052 C1053 1.516 . S
C1053 C1052 1.516 . S
C1053 C1054 1.502 . S
C1053 C1055 1.561 . S
C1053 C1056 1.526 . S
C1054 H1038 0.959 . S
C1054 H1039 0.959 . S
C1054 H1040 0.961 . S
C1054 C1053 1.502 . S
C1055 H1041 0.960 . S
C1055 H1042 0.961 . S
C1055 H1043 0.959 . S
C1055 C1053 1.561 . S
C1056 C1053 1.526 . S
C1056 C1057 1.396 . S
C1056 C1061 1.390 . S
C1057 C1051 1.465 . S
C1057 C1056 1.396 . S
C1057 C1058 1.399 . S
C1058 H1044 0.929 . S
C1058 C1057 1.399 . S
C1058 C1059 1.385 . S
C1059 H1045 0.931 . S
C1059 C1058 1.385 . S
C1059 C1060 1.389 . S
C1060 C1059 1.389 . S
C1060 C1061 1.387 . S
C1061 H1046 0.930 . S
C1061 C1056 1.390 . S
C1061 C1060 1.387 . S
H1062 C1074 0.930 . S
H1063 C1076 0.930 . S
H1064 C1077 0.930 . S
H1065 C1081 0.959 . S
H1066 C1081 0.959 . S
H1067 C1081 0.961 . S
H1068 C1082 0.960 . S
H1069 C1082 0.961 . S
H1070 C1082 0.959 . S
H1071 C1085 0.929 . S
H1072 C1086 0.931 . S
H1073 C1088 0.930 . S
C1074 H1062 0.930 . S
C1074 C1075 1.399 . S
C1074 C1079 1.399 . S
C1075 C1074 1.399 . S
C1075 C1076 1.376 . S
C1076 H1063 0.930 . S
C1076 C1075 1.376 . S
C1076 C1077 1.388 . S
C1077 H1064 0.930 . S
C1077 C1076 1.388 . S
C1077 C1078 1.390 . S
C1078 C1077 1.390 . S
C1078 C1079 1.394 . S
C1078 C1084 1.465 . S
C1079 C1074 1.399 . S
C1079 C1078 1.394 . S
C1079 C1080 1.516 . S
C1080 C1079 1.516 . S
C1080 C1081 1.502 . S
C1080 C1082 1.561 . S
C1080 C1083 1.526 . S
C1081 H1065 0.959 . S
C1081 H1066 0.959 . S
C1081 H1067 0.961 . S
C1081 C1080 1.502 . S
C1082 H1068 0.960 . S
C1082 H1069 0.961 . S
C1082 H1070 0.959 . S
C1082 C1080 1.561 . S
C1083 C1080 1.526 . S
C1083 C1084 1.396 . S
C1083 C1088 1.390 . S
C1084 C1078 1.465 . S
C1084 C1083 1.396 . S
C1084 C1085 1.399 . S
C1085 H1071 0.929 . S
C1085 C1084 1.399 . S
C1085 C1086 1.385 . S
C1086 H1072 0.931 . S
C1086 C1085 1.385 . S
C1086 C1087 1.389 . S
C1087 C1086 1.389 . S
C1087 C1088 1.387 . S
C1088 H1073 0.930 . S
C1088 C1083 1.390 . S
C1088 C1087 1.387 . S
H1089 C1101 0.930 . S
H1090 C1103 0.930 . S
H1091 C1104 0.930 . S
H1092 C1108 0.959 . S
H1093 C1108 0.959 . S
H1094 C1108 0.961 . S
H1095 C1109 0.960 . S
H1096 C1109 0.961 . S
H1097 C1109 0.959 . S
H1098 C1112 0.929 . S
H1099 C1113 0.931 . S
H1100 C1115 0.930 . S
C1101 H1089 0.930 . S
C1101 C1102 1.399 . S
C1101 C1106 1.399 . S
C1102 C1101 1.399 . S
C1102 C1103 1.376 . S
C1103 H1090 0.930 . S
C1103 C1102 1.376 . S
C1103 C1104 1.388 . S
C1104 H1091 0.930 . S
C1104 C1103 1.388 . S
C1104 C1105 1.390 . S
C1105 C1104 1.390 . S
C1105 C1106 1.394 . S
C1105 C1111 1.465 1_545 S
C1106 C1101 1.399 . S
C1106 C1105 1.394 . S
C1106 C1107 1.516 . S
C1107 C1106 1.516 . S
C1107 C1108 1.502 . S
C1107 C1109 1.561 . S
C1107 C1110 1.526 1_545 S
C1108 H1092 0.959 . S
C1108 H1093 0.959 . S
C1108 H1094 0.961 . S
C1108 C1107 1.502 . S
C1109 H1095 0.960 . S
C1109 H1096 0.961 . S
C1109 H1097 0.959 . S
C1109 C1107 1.561 . S
C1110 C1107 1.526 1_565 S
C1110 C1111 1.396 . S
C1110 C1115 1.390 . S
C1111 C1105 1.465 1_565 S
C1111 C1110 1.396 . S
C1111 C1112 1.399 . S
C1112 H1098 0.929 . S
C1112 C1111 1.399 . S
C1112 C1113 1.385 . S
C1113 H1099 0.931 . S
C1113 C1112 1.385 . S
C1113 C1114 1.389 . S
C1114 C1113 1.389 . S
C1114 C1115 1.387 . S
C1115 H1100 0.930 . S
C1115 C1110 1.390 . S
C1115 C1114 1.387 . S
H1116 C1128 0.930 . S
H1117 C1130 0.930 . S
H1118 C1131 0.930 . S
H1119 C1135 0.959 1_655 S
H1120 C1135 0.959 . S
H1121 C1135 0.961 1_655 S
H1122 C1136 0.960 . S
H1123 C1136 0.961 . S
H1124 C1136 0.959 . S
H1125 C1139 0.929 . S
H1126 C1140 0.931 . S
H1127 C1142 0.930 . S
C1128 H1116 0.930 . S
C1128 C1129 1.399 . S
C1128 C1133 1.399 . S
C1129 C1128 1.399 . S
C1129 C1130 1.376 . S
C1130 H1117 0.930 . S
C1130 C1129 1.376 . S
C1130 C1131 1.388 . S
C1131 H1118 0.930 . S
C1131 C1130 1.388 . S
C1131 C1132 1.390 . S
C1132 C1131 1.390 . S
C1132 C1133 1.394 . S
C1132 C1138 1.465 1_655 S
C1133 C1128 1.399 . S
C1133 C1132 1.394 . S
C1133 C1134 1.516 1_655 S
C1134 C1133 1.516 1_455 S
C1134 C1135 1.502 . S
C1134 C1136 1.561 . S
C1134 C1137 1.526 . S
C1135 H1119 0.959 1_455 S
C1135 H1120 0.959 . S
C1135 H1121 0.961 1_455 S
C1135 C1134 1.502 . S
C1136 H1122 0.960 . S
C1136 H1123 0.961 . S
C1136 H1124 0.959 . S
C1136 C1134 1.561 . S
C1137 C1134 1.526 . S
C1137 C1138 1.396 . S
C1137 C1142 1.390 . S
C1138 C1132 1.465 1_455 S
C1138 C1137 1.396 . S
C1138 C1139 1.399 . S
C1139 H1125 0.929 . S
C1139 C1138 1.399 . S
C1139 C1140 1.385 . S
C1140 H1126 0.931 . S
C1140 C1139 1.385 . S
C1140 C1141 1.389 . S
C1141 C1140 1.389 . S
C1141 C1142 1.387 . S
C1142 H1127 0.930 . S
C1142 C1137 1.390 . S
C1142 C1141 1.387 . S
H1143 C1155 0.930 . S
H1144 C1157 0.930 . S
H1145 C1158 0.930 . S
H1146 C1162 0.959 . S
H1147 C1162 0.959 . S
H1148 C1162 0.961 . S
H1149 C1163 0.960 . S
H1150 C1163 0.961 . S
H1151 C1163 0.959 . S
H1152 C1166 0.929 . S
H1153 C1167 0.931 . S
H1154 C1169 0.930 . S
C1155 H1143 0.930 . S
C1155 C1156 1.399 . S
C1155 C1160 1.399 . S
C1156 C1155 1.399 . S
C1156 C1157 1.376 . S
C1157 H1144 0.930 . S
C1157 C1156 1.376 . S
C1157 C1158 1.388 . S
C1158 H1145 0.930 . S
C1158 C1157 1.388 . S
C1158 C1159 1.390 . S
C1159 C1158 1.390 . S
C1159 C1160 1.394 . S
C1159 C1165 1.465 . S
C1160 C1155 1.399 . S
C1160 C1159 1.394 . S
C1160 C1161 1.516 . S
C1161 C1160 1.516 . S
C1161 C1162 1.502 . S
C1161 C1163 1.561 . S
C1161 C1164 1.526 . S
C1162 H1146 0.959 . S
C1162 H1147 0.959 . S
C1162 H1148 0.961 . S
C1162 C1161 1.502 . S
C1163 H1149 0.960 . S
C1163 H1150 0.961 . S
C1163 H1151 0.959 . S
C1163 C1161 1.561 . S
C1164 C1161 1.526 . S
C1164 C1165 1.396 . S
C1164 C1169 1.390 . S
C1165 C1159 1.465 . S
C1165 C1164 1.396 . S
C1165 C1166 1.399 . S
C1166 H1152 0.929 . S
C1166 C1165 1.399 . S
C1166 C1167 1.385 . S
C1167 H1153 0.931 . S
C1167 C1166 1.385 . S
C1167 C1168 1.389 . S
C1168 C1167 1.389 . S
C1168 C1169 1.387 . S
C1169 H1154 0.930 . S
C1169 C1164 1.390 . S
C1169 C1168 1.387 . S
H1170 C1182 0.930 . S
H1171 C1184 0.930 . S
H1172 C1185 0.930 . S
H1173 C1189 0.959 . S
H1174 C1189 0.959 . S
H1175 C1189 0.961 . S
H1176 C1190 0.960 . S
H1177 C1190 0.961 . S
H1178 C1190 0.959 . S
H1179 C1193 0.929 . S
H1180 C1194 0.931 . S
H1181 C1196 0.930 . S
C1182 H1170 0.930 . S
C1182 C1183 1.399 . S
C1182 C1187 1.399 . S
C1183 C1182 1.399 . S
C1183 C1184 1.376 . S
C1184 H1171 0.930 . S
C1184 C1183 1.376 . S
C1184 C1185 1.388 . S
C1185 H1172 0.930 . S
C1185 C1184 1.388 . S
C1185 C1186 1.390 . S
C1186 C1185 1.390 . S
C1186 C1187 1.394 . S
C1186 C1192 1.465 . S
C1187 C1182 1.399 . S
C1187 C1186 1.394 . S
C1187 C1188 1.516 . S
C1188 C1187 1.516 . S
C1188 C1189 1.502 . S
C1188 C1190 1.561 . S
C1188 C1191 1.526 . S
C1189 H1173 0.959 . S
C1189 H1174 0.959 . S
C1189 H1175 0.961 . S
C1189 C1188 1.502 . S
C1190 H1176 0.960 . S
C1190 H1177 0.961 . S
C1190 H1178 0.959 . S
C1190 C1188 1.561 . S
C1191 C1188 1.526 . S
C1191 C1192 1.396 . S
C1191 C1196 1.390 . S
C1192 C1186 1.465 . S
C1192 C1191 1.396 . S
C1192 C1193 1.399 . S
C1193 H1179 0.929 . S
C1193 C1192 1.399 . S
C1193 C1194 1.385 . S
C1194 H1180 0.931 . S
C1194 C1193 1.385 . S
C1194 C1195 1.389 . S
C1195 C1194 1.389 . S
C1195 C1196 1.387 . S
C1196 H1181 0.930 . S
C1196 C1191 1.390 . S
C1196 C1195 1.387 . S
H1197 C1209 0.930 . S
H1198 C1211 0.930 . S
H1199 C1212 0.930 . S
H1200 C1216 0.959 . S
H1201 C1216 0.959 . S
H1202 C1216 0.961 . S
H1203 C1217 0.960 . S
H1204 C1217 0.961 . S
H1205 C1217 0.959 . S
H1206 C1220 0.929 . S
H1207 C1221 0.931 . S
H1208 C1223 0.930 . S
C1209 H1197 0.930 . S
C1209 C1210 1.399 . S
C1209 C1214 1.399 . S
C1210 C1209 1.399 . S
C1210 C1211 1.376 . S
C1211 H1198 0.930 . S
C1211 C1210 1.376 . S
C1211 C1212 1.388 . S
C1212 H1199 0.930 . S
C1212 C1211 1.388 . S
C1212 C1213 1.390 . S
C1213 C1212 1.390 . S
C1213 C1214 1.394 . S
C1213 C1219 1.465 . S
C1214 C1209 1.399 . S
C1214 C1213 1.394 . S
C1214 C1215 1.516 . S
C1215 C1214 1.516 . S
C1215 C1216 1.502 . S
C1215 C1217 1.561 . S
C1215 C1218 1.526 . S
C1216 H1200 0.959 . S
C1216 H1201 0.959 . S
C1216 H1202 0.961 . S
C1216 C1215 1.502 . S
C1217 H1203 0.960 . S
C1217 H1204 0.961 . S
C1217 H1205 0.959 . S
C1217 C1215 1.561 . S
C1218 C1215 1.526 . S
C1218 C1219 1.396 . S
C1218 C1223 1.390 . S
C1219 C1213 1.465 . S
C1219 C1218 1.396 . S
C1219 C1220 1.399 . S
C1220 H1206 0.929 . S
C1220 C1219 1.399 . S
C1220 C1221 1.385 . S
C1221 H1207 0.931 . S
C1221 C1220 1.385 . S
C1221 C1222 1.389 . S
C1222 C1221 1.389 . S
C1222 C1223 1.387 . S
C1223 H1208 0.930 . S
C1223 C1218 1.390 . S
C1223 C1222 1.387 . S
H1224 C1236 0.930 . S
H1225 C1238 0.930 . S
H1226 C1239 0.930 . S
H1227 C1243 0.959 . S
H1228 C1243 0.959 . S
H1229 C1243 0.961 . S
H1230 C1244 0.960 . S
H1231 C1244 0.961 . S
H1232 C1244 0.959 . S
H1233 C1247 0.929 . S
H1234 C1248 0.931 . S
H1235 C1250 0.930 . S
C1236 H1224 0.930 . S
C1236 C1237 1.399 . S
C1236 C1241 1.399 . S
C1237 C1236 1.399 . S
C1237 C1238 1.376 . S
C1238 H1225 0.930 . S
C1238 C1237 1.376 . S
C1238 C1239 1.388 . S
C1239 H1226 0.930 . S
C1239 C1238 1.388 . S
C1239 C1240 1.390 . S
C1240 C1239 1.390 . S
C1240 C1241 1.394 . S
C1240 C1246 1.465 . S
C1241 C1236 1.399 . S
C1241 C1240 1.394 . S
C1241 C1242 1.516 . S
C1242 C1241 1.516 . S
C1242 C1243 1.502 . S
C1242 C1244 1.561 . S
C1242 C1245 1.526 . S
C1243 H1227 0.959 . S
C1243 H1228 0.959 . S
C1243 H1229 0.961 . S
C1243 C1242 1.502 . S
C1244 H1230 0.960 . S
C1244 H1231 0.961 . S
C1244 H1232 0.959 . S
C1244 C1242 1.561 . S
C1245 C1242 1.526 . S
C1245 C1246 1.396 . S
C1245 C1250 1.390 . S
C1246 C1240 1.465 . S
C1246 C1245 1.396 . S
C1246 C1247 1.399 . S
C1247 H1233 0.929 . S
C1247 C1246 1.399 . S
C1247 C1248 1.385 . S
C1248 H1234 0.931 . S
C1248 C1247 1.385 . S
C1248 C1249 1.389 . S
C1249 C1248 1.389 . S
C1249 C1250 1.387 . S
C1250 H1235 0.930 . S
C1250 C1245 1.390 . S
C1250 C1249 1.387 . S
H1251 C1263 0.930 . S
H1252 C1265 0.930 . S
H1253 C1266 0.930 . S
H1254 C1270 0.959 . S
H1255 C1270 0.959 . S
H1256 C1270 0.961 1_565 S
H1257 C1271 0.960 1_565 S
H1258 C1271 0.961 . S
H1259 C1271 0.959 . S
H1260 C1274 0.929 . S
H1261 C1275 0.931 . S
H1262 C1277 0.930 . S
C1263 H1251 0.930 . S
C1263 C1264 1.399 . S
C1263 C1268 1.399 . S
C1264 C1263 1.399 . S
C1264 C1265 1.376 . S
C1265 H1252 0.930 . S
C1265 C1264 1.376 . S
C1265 C1266 1.388 . S
C1266 H1253 0.930 . S
C1266 C1265 1.388 . S
C1266 C1267 1.390 . S
C1267 C1266 1.390 . S
C1267 C1268 1.394 . S
C1267 C1273 1.465 1_565 S
C1268 C1263 1.399 . S
C1268 C1267 1.394 . S
C1268 C1269 1.516 1_565 S
C1269 C1268 1.516 1_545 S
C1269 C1270 1.502 . S
C1269 C1271 1.561 . S
C1269 C1272 1.526 . S
C1270 H1254 0.959 . S
C1270 H1255 0.959 . S
C1270 H1256 0.961 1_545 S
C1270 C1269 1.502 . S
C1271 H1257 0.960 1_545 S
C1271 H1258 0.961 . S
C1271 H1259 0.959 . S
C1271 C1269 1.561 . S
C1272 C1269 1.526 . S
C1272 C1273 1.396 . S
C1272 C1277 1.390 . S
C1273 C1267 1.465 1_545 S
C1273 C1272 1.396 . S
C1273 C1274 1.399 . S
C1274 H1260 0.929 . S
C1274 C1273 1.399 . S
C1274 C1275 1.385 . S
C1275 H1261 0.931 . S
C1275 C1274 1.385 . S
C1275 C1276 1.389 . S
C1276 C1275 1.389 . S
C1276 C1277 1.387 . S
C1277 H1262 0.930 . S
C1277 C1272 1.390 . S
C1277 C1276 1.387 . S
H1278 C1290 0.930 . S
H1279 C1292 0.930 . S
H1280 C1293 0.930 1_655 S
H1281 C1297 0.959 . S
H1282 C1297 0.959 . S
H1283 C1297 0.961 . S
H1284 C1298 0.960 . S
H1285 C1298 0.961 1_655 S
H1286 C1298 0.959 1_655 S
H1287 C1301 0.929 . S
H1288 C1302 0.931 . S
H1289 C1304 0.930 . S
C1290 H1278 0.930 . S
C1290 C1291 1.399 . S
C1290 C1295 1.399 . S
C1291 C1290 1.399 . S
C1291 C1292 1.376 . S
C1292 H1279 0.930 . S
C1292 C1291 1.376 . S
C1292 C1293 1.388 . S
C1293 H1280 0.930 1_455 S
C1293 C1292 1.388 . S
C1293 C1294 1.390 1_455 S
C1294 C1293 1.390 1_655 S
C1294 C1295 1.394 1_655 S
C1294 C1300 1.465 . S
C1295 C1290 1.399 . S
C1295 C1294 1.394 1_455 S
C1295 C1296 1.516 . S
C1296 C1295 1.516 . S
C1296 C1297 1.502 . S
C1296 C1298 1.561 . S
C1296 C1299 1.526 1_455 S
C1297 H1281 0.959 . S
C1297 H1282 0.959 . S
C1297 H1283 0.961 . S
C1297 C1296 1.502 . S
C1298 H1284 0.960 . S
C1298 H1285 0.961 1_455 S
C1298 H1286 0.959 1_455 S
C1298 C1296 1.561 . S
C1299 C1296 1.526 1_655 S
C1299 C1300 1.396 . S
C1299 C1304 1.390 . S
C1300 C1294 1.465 . S
C1300 C1299 1.396 . S
C1300 C1301 1.399 . S
C1301 H1287 0.929 . S
C1301 C1300 1.399 . S
C1301 C1302 1.385 . S
C1302 H1288 0.931 . S
C1302 C1301 1.385 . S
C1302 C1303 1.389 . S
C1303 C1302 1.389 . S
C1303 C1304 1.387 . S
C1304 H1289 0.930 . S
C1304 C1299 1.390 . S
C1304 C1303 1.387 . S
H1305 C1317 0.930 . S
H1306 C1319 0.930 . S
H1307 C1320 0.930 . S
H1308 C1324 0.959 . S
H1309 C1324 0.959 . S
H1310 C1324 0.961 . S
H1311 C1325 0.960 . S
H1312 C1325 0.961 . S
H1313 C1325 0.959 . S
H1314 C1328 0.929 . S
H1315 C1329 0.931 . S
H1316 C1331 0.930 . S
C1317 H1305 0.930 . S
C1317 C1318 1.399 . S
C1317 C1322 1.399 . S
C1318 C1317 1.399 . S
C1318 C1319 1.376 . S
C1319 H1306 0.930 . S
C1319 C1318 1.376 . S
C1319 C1320 1.388 . S
C1320 H1307 0.930 . S
C1320 C1319 1.388 . S
C1320 C1321 1.390 . S
C1321 C1320 1.390 . S
C1321 C1322 1.394 . S
C1321 C1327 1.465 . S
C1322 C1317 1.399 . S
C1322 C1321 1.394 . S
C1322 C1323 1.516 . S
C1323 C1322 1.516 . S
C1323 C1324 1.502 . S
C1323 C1325 1.561 . S
C1323 C1326 1.526 . S
C1324 H1308 0.959 . S
C1324 H1309 0.959 . S
C1324 H1310 0.961 . S
C1324 C1323 1.502 . S
C1325 H1311 0.960 . S
C1325 H1312 0.961 . S
C1325 H1313 0.959 . S
C1325 C1323 1.561 . S
C1326 C1323 1.526 . S
C1326 C1327 1.396 . S
C1326 C1331 1.390 . S
C1327 C1321 1.465 . S
C1327 C1326 1.396 . S
C1327 C1328 1.399 . S
C1328 H1314 0.929 . S
C1328 C1327 1.399 . S
C1328 C1329 1.385 . S
C1329 H1315 0.931 . S
C1329 C1328 1.385 . S
C1329 C1330 1.389 . S
C1330 C1329 1.389 . S
C1330 C1331 1.387 . S
C1331 H1316 0.930 . S
C1331 C1326 1.390 . S
C1331 C1330 1.387 . S
H1332 C1344 0.930 . S
H1333 C1346 0.930 . S
H1334 C1347 0.930 . S
H1335 C1351 0.959 . S
H1336 C1351 0.959 . S
H1337 C1351 0.961 . S
H1338 C1352 0.960 . S
H1339 C1352 0.961 . S
H1340 C1352 0.959 . S
H1341 C1355 0.929 . S
H1342 C1356 0.931 . S
H1343 C1358 0.930 . S
C1344 H1332 0.930 . S
C1344 C1345 1.399 . S
C1344 C1349 1.399 . S
C1345 C1344 1.399 . S
C1345 C1346 1.376 . S
C1346 H1333 0.930 . S
C1346 C1345 1.376 . S
C1346 C1347 1.388 . S
C1347 H1334 0.930 . S
C1347 C1346 1.388 . S
C1347 C1348 1.390 . S
C1348 C1347 1.390 . S
C1348 C1349 1.394 . S
C1348 C1354 1.465 1_455 S
C1349 C1344 1.399 . S
C1349 C1348 1.394 . S
C1349 C1350 1.516 . S
C1350 C1349 1.516 . S
C1350 C1351 1.502 . S
C1350 C1352 1.561 . S
C1350 C1353 1.526 1_455 S
C1351 H1335 0.959 . S
C1351 H1336 0.959 . S
C1351 H1337 0.961 . S
C1351 C1350 1.502 . S
C1352 H1338 0.960 . S
C1352 H1339 0.961 . S
C1352 H1340 0.959 . S
C1352 C1350 1.561 . S
C1353 C1350 1.526 1_655 S
C1353 C1354 1.396 . S
C1353 C1358 1.390 . S
C1354 C1348 1.465 1_655 S
C1354 C1353 1.396 . S
C1354 C1355 1.399 . S
C1355 H1341 0.929 . S
C1355 C1354 1.399 . S
C1355 C1356 1.385 . S
C1356 H1342 0.931 . S
C1356 C1355 1.385 . S
C1356 C1357 1.389 . S
C1357 C1356 1.389 . S
C1357 C1358 1.387 . S
C1358 H1343 0.930 . S
C1358 C1353 1.390 . S
C1358 C1357 1.387 . S
H1359 C1371 0.930 . S
H1360 C1373 0.930 . S
H1361 C1374 0.930 . S
H1362 C1378 0.959 . S
H1363 C1378 0.959 . S
H1364 C1378 0.961 . S
H1365 C1379 0.960 . S
H1366 C1379 0.961 . S
H1367 C1379 0.959 . S
H1368 C1382 0.929 . S
H1369 C1383 0.931 . S
H1370 C1385 0.930 . S
C1371 H1359 0.930 . S
C1371 C1372 1.399 . S
C1371 C1376 1.399 . S
C1372 C1371 1.399 . S
C1372 C1373 1.376 . S
C1373 H1360 0.930 . S
C1373 C1372 1.376 . S
C1373 C1374 1.388 . S
C1374 H1361 0.930 . S
C1374 C1373 1.388 . S
C1374 C1375 1.390 . S
C1375 C1374 1.390 . S
C1375 C1376 1.394 . S
C1375 C1381 1.465 . S
C1376 C1371 1.399 . S
C1376 C1375 1.394 . S
C1376 C1377 1.516 . S
C1377 C1376 1.516 . S
C1377 C1378 1.502 . S
C1377 C1379 1.561 . S
C1377 C1380 1.526 . S
C1378 H1362 0.959 . S
C1378 H1363 0.959 . S
C1378 H1364 0.961 . S
C1378 C1377 1.502 . S
C1379 H1365 0.960 . S
C1379 H1366 0.961 . S
C1379 H1367 0.959 . S
C1379 C1377 1.561 . S
C1380 C1377 1.526 . S
C1380 C1381 1.396 . S
C1380 C1385 1.390 . S
C1381 C1375 1.465 . S
C1381 C1380 1.396 . S
C1381 C1382 1.399 . S
C1382 H1368 0.929 . S
C1382 C1381 1.399 . S
C1382 C1383 1.385 . S
C1383 H1369 0.931 . S
C1383 C1382 1.385 . S
C1383 C1384 1.389 . S
C1384 C1383 1.389 . S
C1384 C1385 1.387 . S
C1385 H1370 0.930 . S
C1385 C1380 1.390 . S
C1385 C1384 1.387 . S
H1386 C1398 0.930 . S
H1387 C1400 0.930 . S
H1388 C1401 0.930 . S
H1389 C1405 0.959 . S
H1390 C1405 0.959 . S
H1391 C1405 0.961 . S
H1392 C1406 0.960 . S
H1393 C1406 0.961 . S
H1394 C1406 0.959 . S
H1395 C1409 0.929 . S
H1396 C1410 0.931 . S
H1397 C1412 0.930 . S
C1398 H1386 0.930 . S
C1398 C1399 1.399 . S
C1398 C1403 1.399 . S
C1399 C1398 1.399 . S
C1399 C1400 1.376 . S
C1400 H1387 0.930 . S
C1400 C1399 1.376 . S
C1400 C1401 1.388 . S
C1401 H1388 0.930 . S
C1401 C1400 1.388 . S
C1401 C1402 1.390 . S
C1402 C1401 1.390 . S
C1402 C1403 1.394 . S
C1402 C1408 1.465 1_565 S
C1403 C1398 1.399 . S
C1403 C1402 1.394 . S
C1403 C1404 1.516 . S
C1404 C1403 1.516 . S
C1404 C1405 1.502 . S
C1404 C1406 1.561 . S
C1404 C1407 1.526 1_565 S
C1405 H1389 0.959 . S
C1405 H1390 0.959 . S
C1405 H1391 0.961 . S
C1405 C1404 1.502 . S
C1406 H1392 0.960 . S
C1406 H1393 0.961 . S
C1406 H1394 0.959 . S
C1406 C1404 1.561 . S
C1407 C1404 1.526 1_545 S
C1407 C1408 1.396 . S
C1407 C1412 1.390 . S
C1408 C1402 1.465 1_545 S
C1408 C1407 1.396 . S
C1408 C1409 1.399 . S
C1409 H1395 0.929 . S
C1409 C1408 1.399 . S
C1409 C1410 1.385 . S
C1410 H1396 0.931 . S
C1410 C1409 1.385 . S
C1410 C1411 1.389 . S
C1411 C1410 1.389 . S
C1411 C1412 1.387 . S
C1412 H1397 0.930 . S
C1412 C1407 1.390 . S
C1412 C1411 1.387 . S
H1413 C1425 0.930 . S
H1414 C1427 0.930 . S
H1415 C1428 0.930 . S
H1416 C1432 0.959 . S
H1417 C1432 0.959 . S
H1418 C1432 0.961 . S
H1419 C1433 0.960 . S
H1420 C1433 0.961 . S
H1421 C1433 0.959 . S
H1422 C1436 0.929 . S
H1423 C1437 0.931 . S
H1424 C1439 0.930 . S
C1425 H1413 0.930 . S
C1425 C1426 1.399 . S
C1425 C1430 1.399 . S
C1426 C1425 1.399 . S
C1426 C1427 1.376 . S
C1427 H1414 0.930 . S
C1427 C1426 1.376 . S
C1427 C1428 1.388 . S
C1428 H1415 0.930 . S
C1428 C1427 1.388 . S
C1428 C1429 1.390 . S
C1429 C1428 1.390 . S
C1429 C1430 1.394 . S
C1429 C1435 1.465 . S
C1430 C1425 1.399 . S
C1430 C1429 1.394 . S
C1430 C1431 1.516 . S
C1431 C1430 1.516 . S
C1431 C1432 1.502 . S
C1431 C1433 1.561 . S
C1431 C1434 1.526 . S
C1432 H1416 0.959 . S
C1432 H1417 0.959 . S
C1432 H1418 0.961 . S
C1432 C1431 1.502 . S
C1433 H1419 0.960 . S
C1433 H1420 0.961 . S
C1433 H1421 0.959 . S
C1433 C1431 1.561 . S
C1434 C1431 1.526 . S
C1434 C1435 1.396 . S
C1434 C1439 1.390 . S
C1435 C1429 1.465 . S
C1435 C1434 1.396 . S
C1435 C1436 1.399 . S
C1436 H1422 0.929 . S
C1436 C1435 1.399 . S
C1436 C1437 1.385 . S
C1437 H1423 0.931 . S
C1437 C1436 1.385 . S
C1437 C1438 1.389 . S
C1438 C1437 1.389 . S
C1438 C1439 1.387 . S
C1439 H1424 0.930 . S
C1439 C1434 1.390 . S
C1439 C1438 1.387 . S
H1440 C1452 0.930 . S
H1441 C1454 0.930 . S
H1442 C1455 0.930 . S
H1443 C1459 0.959 . S
H1444 C1459 0.959 . S
H1445 C1459 0.961 . S
H1446 C1460 0.960 . S
H1447 C1460 0.961 . S
H1448 C1460 0.959 . S
H1449 C1463 0.929 . S
H1450 C1464 0.931 . S
H1451 C1466 0.930 . S
C1452 H1440 0.930 . S
C1452 C1453 1.399 . S
C1452 C1457 1.399 . S
C1453 C1452 1.399 . S
C1453 C1454 1.376 . S
C1454 H1441 0.930 . S
C1454 C1453 1.376 . S
C1454 C1455 1.388 . S
C1455 H1442 0.930 . S
C1455 C1454 1.388 . S
C1455 C1456 1.390 . S
C1456 C1455 1.390 . S
C1456 C1457 1.394 . S
C1456 C1462 1.465 . S
C1457 C1452 1.399 . S
C1457 C1456 1.394 . S
C1457 C1458 1.516 . S
C1458 C1457 1.516 . S
C1458 C1459 1.502 . S
C1458 C1460 1.561 . S
C1458 C1461 1.526 . S
C1459 H1443 0.959 . S
C1459 H1444 0.959 . S
C1459 H1445 0.961 . S
C1459 C1458 1.502 . S
C1460 H1446 0.960 . S
C1460 H1447 0.961 . S
C1460 H1448 0.959 . S
C1460 C1458 1.561 . S
C1461 C1458 1.526 . S
C1461 C1462 1.396 . S
C1461 C1466 1.390 . S
C1462 C1456 1.465 . S
C1462 C1461 1.396 . S
C1462 C1463 1.399 . S
C1463 H1449 0.929 . S
C1463 C1462 1.399 . S
C1463 C1464 1.385 . S
C1464 H1450 0.931 . S
C1464 C1463 1.385 . S
C1464 C1465 1.389 . S
C1465 C1464 1.389 . S
C1465 C1466 1.387 . S
C1466 H1451 0.930 . S
C1466 C1461 1.390 . S
C1466 C1465 1.387 . S
H1467 C1479 0.930 . S
H1468 C1481 0.930 . S
H1469 C1482 0.930 . S
H1470 C1486 0.959 . S
H1471 C1486 0.959 . S
H1472 C1486 0.961 . S
H1473 C1487 0.960 . S
H1474 C1487 0.961 . S
H1475 C1487 0.959 . S
H1476 C1490 0.929 . S
H1477 C1491 0.931 . S
H1478 C1493 0.930 . S
C1479 H1467 0.930 . S
C1479 C1480 1.399 . S
C1479 C1484 1.399 . S
C1480 C1479 1.399 . S
C1480 C1481 1.376 . S
C1481 H1468 0.930 . S
C1481 C1480 1.376 . S
C1481 C1482 1.388 . S
C1482 H1469 0.930 . S
C1482 C1481 1.388 . S
C1482 C1483 1.390 . S
C1483 C1482 1.390 . S
C1483 C1484 1.394 . S
C1483 C1489 1.465 . S
C1484 C1479 1.399 . S
C1484 C1483 1.394 . S
C1484 C1485 1.516 . S
C1485 C1484 1.516 . S
C1485 C1486 1.502 . S
C1485 C1487 1.561 . S
C1485 C1488 1.526 . S
C1486 H1470 0.959 . S
C1486 H1471 0.959 . S
C1486 H1472 0.961 . S
C1486 C1485 1.502 . S
C1487 H1473 0.960 . S
C1487 H1474 0.961 . S
C1487 H1475 0.959 . S
C1487 C1485 1.561 . S
C1488 C1485 1.526 . S
C1488 C1489 1.396 . S
C1488 C1493 1.390 . S
C1489 C1483 1.465 . S
C1489 C1488 1.396 . S
C1489 C1490 1.399 . S
C1490 H1476 0.929 . S
C1490 C1489 1.399 . S
C1490 C1491 1.385 . S
C1491 H1477 0.931 . S
C1491 C1490 1.385 . S
C1491 C1492 1.389 . S
C1492 C1491 1.389 . S
C1492 C1493 1.387 . S
C1493 H1478 0.930 . S
C1493 C1488 1.390 . S
C1493 C1492 1.387 . S
H1494 C1506 0.930 . S
H1495 C1508 0.930 . S
H1496 C1509 0.930 . S
H1497 C1513 0.959 . S
H1498 C1513 0.959 . S
H1499 C1513 0.961 . S
H1500 C1514 0.960 . S
H1501 C1514 0.961 . S
H1502 C1514 0.959 . S
H1503 C1517 0.929 . S
H1504 C1518 0.931 . S
H1505 C1520 0.930 . S
C1506 H1494 0.930 . S
C1506 C1507 1.399 . S
C1506 C1511 1.399 . S
C1507 C1506 1.399 . S
C1507 C1508 1.376 . S
C1508 H1495 0.930 . S
C1508 C1507 1.376 . S
C1508 C1509 1.388 . S
C1509 H1496 0.930 . S
C1509 C1508 1.388 . S
C1509 C1510 1.390 . S
C1510 C1509 1.390 . S
C1510 C1511 1.394 . S
C1510 C1516 1.465 . S
C1511 C1506 1.399 . S
C1511 C1510 1.394 . S
C1511 C1512 1.516 . S
C1512 C1511 1.516 . S
C1512 C1513 1.502 . S
C1512 C1514 1.561 . S
C1512 C1515 1.526 . S
C1513 H1497 0.959 . S
C1513 H1498 0.959 . S
C1513 H1499 0.961 . S
C1513 C1512 1.502 . S
C1514 H1500 0.960 . S
C1514 H1501 0.961 . S
C1514 H1502 0.959 . S
C1514 C1512 1.561 . S
C1515 C1512 1.526 . S
C1515 C1516 1.396 . S
C1515 C1520 1.390 . S
C1516 C1510 1.465 . S
C1516 C1515 1.396 . S
C1516 C1517 1.399 1_565 S
C1517 H1503 0.929 . S
C1517 C1516 1.399 1_545 S
C1517 C1518 1.385 . S
C1518 H1504 0.931 . S
C1518 C1517 1.385 . S
C1518 C1519 1.389 1_545 S
C1519 C1518 1.389 1_565 S
C1519 C1520 1.387 . S
C1520 H1505 0.930 . S
C1520 C1515 1.390 . S
C1520 C1519 1.387 . S
H1521 C1533 0.930 . S
H1522 C1535 0.930 . S
H1523 C1536 0.930 . S
H1524 C1540 0.959 1_655 S
H1525 C1540 0.959 . S
H1526 C1540 0.961 . S
H1527 C1541 0.960 . S
H1528 C1541 0.961 . S
H1529 C1541 0.959 . S
H1530 C1544 0.929 . S
H1531 C1545 0.931 . S
H1532 C1547 0.930 . S
C1533 H1521 0.930 . S
C1533 C1534 1.399 . S
C1533 C1538 1.399 . S
C1534 C1533 1.399 . S
C1534 C1535 1.376 . S
C1535 H1522 0.930 . S
C1535 C1534 1.376 . S
C1535 C1536 1.388 . S
C1536 H1523 0.930 . S
C1536 C1535 1.388 . S
C1536 C1537 1.390 . S
C1537 C1536 1.390 . S
C1537 C1538 1.394 . S
C1537 C1543 1.465 . S
C1538 C1533 1.399 . S
C1538 C1537 1.394 . S
C1538 C1539 1.516 . S
C1539 C1538 1.516 . S
C1539 C1540 1.502 . S
C1539 C1541 1.561 . S
C1539 C1542 1.526 . S
C1540 H1524 0.959 1_455 S
C1540 H1525 0.959 . S
C1540 H1526 0.961 . S
C1540 C1539 1.502 . S
C1541 H1527 0.960 . S
C1541 H1528 0.961 . S
C1541 H1529 0.959 . S
C1541 C1539 1.561 . S
C1542 C1539 1.526 . S
C1542 C1543 1.396 . S
C1542 C1547 1.390 . S
C1543 C1537 1.465 . S
C1543 C1542 1.396 . S
C1543 C1544 1.399 . S
C1544 H1530 0.929 . S
C1544 C1543 1.399 . S
C1544 C1545 1.385 . S
C1545 H1531 0.931 . S
C1545 C1544 1.385 . S
C1545 C1546 1.389 . S
C1546 C1545 1.389 . S
C1546 C1547 1.387 . S
C1547 H1532 0.930 . S
C1547 C1542 1.390 . S
C1547 C1546 1.387 . S
H1548 C1560 0.930 . S
H1549 C1562 0.930 . S
H1550 C1563 0.930 . S
H1551 C1567 0.959 . S
H1552 C1567 0.959 . S
H1553 C1567 0.961 . S
H1554 C1568 0.960 . S
H1555 C1568 0.961 . S
H1556 C1568 0.959 . S
H1557 C1571 0.929 . S
H1558 C1572 0.931 . S
H1559 C1574 0.930 . S
C1560 H1548 0.930 . S
C1560 C1561 1.399 . S
C1560 C1565 1.399 . S
C1561 C1560 1.399 . S
C1561 C1562 1.376 . S
C1562 H1549 0.930 . S
C1562 C1561 1.376 . S
C1562 C1563 1.388 . S
C1563 H1550 0.930 . S
C1563 C1562 1.388 . S
C1563 C1564 1.390 . S
C1564 C1563 1.390 . S
C1564 C1565 1.394 . S
C1564 C1570 1.465 . S
C1565 C1560 1.399 . S
C1565 C1564 1.394 . S
C1565 C1566 1.516 . S
C1566 C1565 1.516 . S
C1566 C1567 1.502 . S
C1566 C1568 1.561 . S
C1566 C1569 1.526 . S
C1567 H1551 0.959 . S
C1567 H1552 0.959 . S
C1567 H1553 0.961 . S
C1567 C1566 1.502 . S
C1568 H1554 0.960 . S
C1568 H1555 0.961 . S
C1568 H1556 0.959 . S
C1568 C1566 1.561 . S
C1569 C1566 1.526 . S
C1569 C1570 1.396 . S
C1569 C1574 1.390 . S
C1570 C1564 1.465 . S
C1570 C1569 1.396 . S
C1570 C1571 1.399 . S
C1571 H1557 0.929 . S
C1571 C1570 1.399 . S
C1571 C1572 1.385 . S
C1572 H1558 0.931 . S
C1572 C1571 1.385 . S
C1572 C1573 1.389 . S
C1573 C1572 1.389 . S
C1573 C1574 1.387 . S
C1574 H1559 0.930 . S
C1574 C1569 1.390 . S
C1574 C1573 1.387 . S
H1575 C1587 0.930 . S
H1576 C1589 0.930 . S
H1577 C1590 0.930 . S
H1578 C1594 0.959 . S
H1579 C1594 0.959 . S
H1580 C1594 0.961 . S
H1581 C1595 0.960 . S
H1582 C1595 0.961 . S
H1583 C1595 0.959 . S
H1584 C1598 0.929 . S
H1585 C1599 0.931 . S
H1586 C1601 0.930 . S
C1587 H1575 0.930 . S
C1587 C1588 1.399 . S
C1587 C1592 1.399 . S
C1588 C1587 1.399 . S
C1588 C1589 1.376 . S
C1589 H1576 0.930 . S
C1589 C1588 1.376 . S
C1589 C1590 1.388 . S
C1590 H1577 0.930 . S
C1590 C1589 1.388 . S
C1590 C1591 1.390 . S
C1591 C1590 1.390 . S
C1591 C1592 1.394 . S
C1591 C1597 1.465 . S
C1592 C1587 1.399 . S
C1592 C1591 1.394 . S
C1592 C1593 1.516 . S
C1593 C1592 1.516 . S
C1593 C1594 1.502 1_655 S
C1593 C1595 1.561 . S
C1593 C1596 1.526 . S
C1594 H1578 0.959 . S
C1594 H1579 0.959 . S
C1594 H1580 0.961 . S
C1594 C1593 1.502 1_455 S
C1595 H1581 0.960 . S
C1595 H1582 0.961 . S
C1595 H1583 0.959 . S
C1595 C1593 1.561 . S
C1596 C1593 1.526 . S
C1596 C1597 1.396 . S
C1596 C1601 1.390 . S
C1597 C1591 1.465 . S
C1597 C1596 1.396 . S
C1597 C1598 1.399 . S
C1598 H1584 0.929 . S
C1598 C1597 1.399 . S
C1598 C1599 1.385 . S
C1599 H1585 0.931 . S
C1599 C1598 1.385 . S
C1599 C1600 1.389 . S
C1600 C1599 1.389 . S
C1600 C1601 1.387 . S
C1601 H1586 0.930 . S
C1601 C1596 1.390 . S
C1601 C1600 1.387 . S
H1602 C1614 0.930 . S
H1603 C1616 0.930 . S
H1604 C1617 0.930 . S
H1605 C1621 0.959 . S
H1606 C1621 0.959 . S
H1607 C1621 0.961 . S
H1608 C1622 0.960 . S
H1609 C1622 0.961 . S
H1610 C1622 0.959 . S
H1611 C1625 0.929 . S
H1612 C1626 0.931 . S
H1613 C1628 0.930 . S
C1614 H1602 0.930 . S
C1614 C1615 1.399 . S
C1614 C1619 1.399 . S
C1615 C1614 1.399 . S
C1615 C1616 1.376 . S
C1616 H1603 0.930 . S
C1616 C1615 1.376 . S
C1616 C1617 1.388 . S
C1617 H1604 0.930 . S
C1617 C1616 1.388 . S
C1617 C1618 1.390 . S
C1618 C1617 1.390 . S
C1618 C1619 1.394 . S
C1618 C1624 1.465 . S
C1619 C1614 1.399 . S
C1619 C1618 1.394 . S
C1619 C1620 1.516 . S
C1620 C1619 1.516 . S
C1620 C1621 1.502 . S
C1620 C1622 1.561 . S
C1620 C1623 1.526 . S
C1621 H1605 0.959 . S
C1621 H1606 0.959 . S
C1621 H1607 0.961 . S
C1621 C1620 1.502 . S
C1622 H1608 0.960 . S
C1622 H1609 0.961 . S
C1622 H1610 0.959 . S
C1622 C1620 1.561 . S
C1623 C1620 1.526 . S
C1623 C1624 1.396 . S
C1623 C1628 1.390 . S
C1624 C1618 1.465 . S
C1624 C1623 1.396 . S
C1624 C1625 1.399 . S
C1625 H1611 0.929 . S
C1625 C1624 1.399 . S
C1625 C1626 1.385 . S
C1626 H1612 0.931 . S
C1626 C1625 1.385 . S
C1626 C1627 1.389 . S
C1627 C1626 1.389 . S
C1627 C1628 1.387 . S
C1628 H1613 0.930 . S
C1628 C1623 1.390 . S
C1628 C1627 1.387 . S
H1629 C1641 0.930 . S
H1630 C1643 0.930 . S
H1631 C1644 0.930 . S
H1632 C1648 0.959 . S
H1633 C1648 0.959 . S
H1634 C1648 0.961 . S
H1635 C1649 0.960 . S
H1636 C1649 0.961 . S
H1637 C1649 0.959 . S
H1638 C1652 0.929 . S
H1639 C1653 0.931 . S
H1640 C1655 0.930 1_565 S
C1641 H1629 0.930 . S
C1641 C1642 1.399 . S
C1641 C1646 1.399 . S
C1642 C1641 1.399 . S
C1642 C1643 1.376 . S
C1643 H1630 0.930 . S
C1643 C1642 1.376 . S
C1643 C1644 1.388 . S
C1644 H1631 0.930 . S
C1644 C1643 1.388 . S
C1644 C1645 1.390 . S
C1645 C1644 1.390 . S
C1645 C1646 1.394 . S
C1645 C1651 1.465 . S
C1646 C1641 1.399 . S
C1646 C1645 1.394 . S
C1646 C1647 1.516 . S
C1647 C1646 1.516 . S
C1647 C1648 1.502 . S
C1647 C1649 1.561 1_545 S
C1647 C1650 1.526 . S
C1648 H1632 0.959 . S
C1648 H1633 0.959 . S
C1648 H1634 0.961 . S
C1648 C1647 1.502 . S
C1649 H1635 0.960 . S
C1649 H1636 0.961 . S
C1649 H1637 0.959 . S
C1649 C1647 1.561 1_565 S
C1650 C1647 1.526 . S
C1650 C1651 1.396 . S
C1650 C1655 1.390 . S
C1651 C1645 1.465 . S
C1651 C1650 1.396 . S
C1651 C1652 1.399 . S
C1652 H1638 0.929 . S
C1652 C1651 1.399 . S
C1652 C1653 1.385 . S
C1653 H1639 0.931 . S
C1653 C1652 1.385 . S
C1653 C1654 1.389 . S
C1654 C1653 1.389 . S
C1654 C1655 1.387 . S
C1655 H1640 0.930 1_545 S
C1655 C1650 1.390 . S
C1655 C1654 1.387 . S
H1656 C1668 0.930 . S
H1657 C1670 0.930 . S
H1658 C1671 0.930 . S
H1659 C1675 0.959 . S
H1660 C1675 0.959 . S
H1661 C1675 0.961 . S
H1662 C1676 0.960 . S
H1663 C1676 0.961 . S
H1664 C1676 0.959 . S
H1665 C1679 0.929 . S
H1666 C1680 0.931 . S
H1667 C1682 0.930 . S
C1668 H1656 0.930 . S
C1668 C1669 1.399 . S
C1668 C1673 1.399 . S
C1669 C1668 1.399 . S
C1669 C1670 1.376 . S
C1670 H1657 0.930 . S
C1670 C1669 1.376 . S
C1670 C1671 1.388 . S
C1671 H1658 0.930 . S
C1671 C1670 1.388 . S
C1671 C1672 1.390 . S
C1672 C1671 1.390 . S
C1672 C1673 1.394 . S
C1672 C1678 1.465 . S
C1673 C1668 1.399 . S
C1673 C1672 1.394 . S
C1673 C1674 1.516 . S
C1674 C1673 1.516 . S
C1674 C1675 1.502 . S
C1674 C1676 1.561 . S
C1674 C1677 1.526 . S
C1675 H1659 0.959 . S
C1675 H1660 0.959 . S
C1675 H1661 0.961 . S
C1675 C1674 1.502 . S
C1676 H1662 0.960 . S
C1676 H1663 0.961 . S
C1676 H1664 0.959 . S
C1676 C1674 1.561 . S
C1677 C1674 1.526 . S
C1677 C1678 1.396 . S
C1677 C1682 1.390 . S
C1678 C1672 1.465 . S
C1678 C1677 1.396 . S
C1678 C1679 1.399 . S
C1679 H1665 0.929 . S
C1679 C1678 1.399 . S
C1679 C1680 1.385 . S
C1680 H1666 0.931 . S
C1680 C1679 1.385 . S
C1680 C1681 1.389 . S
C1681 C1680 1.389 . S
C1681 C1682 1.387 . S
C1682 H1667 0.930 . S
C1682 C1677 1.390 . S
C1682 C1681 1.387 . S
H1683 C1695 0.930 . S
H1684 C1697 0.930 . S
H1685 C1698 0.930 . S
H1686 C1702 0.959 . S
H1687 C1702 0.959 . S
H1688 C1702 0.961 . S
H1689 C1703 0.960 . S
H1690 C1703 0.961 . S
H1691 C1703 0.959 . S
H1692 C1706 0.929 . S
H1693 C1707 0.931 . S
H1694 C1709 0.930 . S
C1695 H1683 0.930 . S
C1695 C1696 1.399 . S
C1695 C1700 1.399 . S
C1696 C1695 1.399 . S
C1696 C1697 1.376 . S
C1697 H1684 0.930 . S
C1697 C1696 1.376 . S
C1697 C1698 1.388 . S
C1698 H1685 0.930 . S
C1698 C1697 1.388 . S
C1698 C1699 1.390 . S
C1699 C1698 1.390 . S
C1699 C1700 1.394 . S
C1699 C1705 1.465 . S
C1700 C1695 1.399 . S
C1700 C1699 1.394 . S
C1700 C1701 1.516 . S
C1701 C1700 1.516 . S
C1701 C1702 1.502 . S
C1701 C1703 1.561 . S
C1701 C1704 1.526 . S
C1702 H1686 0.959 . S
C1702 H1687 0.959 . S
C1702 H1688 0.961 . S
C1702 C1701 1.502 . S
C1703 H1689 0.960 . S
C1703 H1690 0.961 . S
C1703 H1691 0.959 . S
C1703 C1701 1.561 . S
C1704 C1701 1.526 . S
C1704 C1705 1.396 . S
C1704 C1709 1.390 . S
C1705 C1699 1.465 . S
C1705 C1704 1.396 . S
C1705 C1706 1.399 . S
C1706 H1692 0.929 . S
C1706 C1705 1.399 . S
C1706 C1707 1.385 . S
C1707 H1693 0.931 . S
C1707 C1706 1.385 . S
C1707 C1708 1.389 . S
C1708 C1707 1.389 . S
C1708 C1709 1.387 . S
C1709 H1694 0.930 . S
C1709 C1704 1.390 . S
C1709 C1708 1.387 . S
H1710 C1722 0.930 . S
H1711 C1724 0.930 . S
H1712 C1725 0.930 . S
H1713 C1729 0.959 . S
H1714 C1729 0.959 . S
H1715 C1729 0.961 . S
H1716 C1730 0.960 . S
H1717 C1730 0.961 . S
H1718 C1730 0.959 . S
H1719 C1733 0.929 . S
H1720 C1734 0.931 . S
H1721 C1736 0.930 . S
C1722 H1710 0.930 . S
C1722 C1723 1.399 . S
C1722 C1727 1.399 . S
C1723 C1722 1.399 . S
C1723 C1724 1.376 . S
C1724 H1711 0.930 . S
C1724 C1723 1.376 . S
C1724 C1725 1.388 . S
C1725 H1712 0.930 . S
C1725 C1724 1.388 . S
C1725 C1726 1.390 . S
C1726 C1725 1.390 . S
C1726 C1727 1.394 . S
C1726 C1732 1.465 . S
C1727 C1722 1.399 . S
C1727 C1726 1.394 . S
C1727 C1728 1.516 . S
C1728 C1727 1.516 . S
C1728 C1729 1.502 . S
C1728 C1730 1.561 . S
C1728 C1731 1.526 . S
C1729 H1713 0.959 . S
C1729 H1714 0.959 . S
C1729 H1715 0.961 . S
C1729 C1728 1.502 . S
C1730 H1716 0.960 . S
C1730 H1717 0.961 . S
C1730 H1718 0.959 . S
C1730 C1728 1.561 . S
C1731 C1728 1.526 . S
C1731 C1732 1.396 . S
C1731 C1736 1.390 . S
C1732 C1726 1.465 . S
C1732 C1731 1.396 . S
C1732 C1733 1.399 . S
C1733 H1719 0.929 . S
C1733 C1732 1.399 . S
C1733 C1734 1.385 . S
C1734 H1720 0.931 . S
C1734 C1733 1.385 . S
C1734 C1735 1.389 . S
C1735 C1734 1.389 . S
C1735 C1736 1.387 . S
C1736 H1721 0.930 . S
C1736 C1731 1.390 . S
C1736 C1735 1.387 . S
H1737 C1749 0.930 . S
H1738 C1751 0.930 . S
H1739 C1752 0.930 . S
H1740 C1756 0.959 . S
H1741 C1756 0.959 . S
H1742 C1756 0.961 . S
H1743 C1757 0.960 . S
H1744 C1757 0.961 . S
H1745 C1757 0.959 . S
H1746 C1760 0.929 . S
H1747 C1761 0.931 . S
H1748 C1763 0.930 . S
C1749 H1737 0.930 . S
C1749 C1750 1.399 . S
C1749 C1754 1.399 . S
C1750 C1749 1.399 . S
C1750 C1751 1.376 . S
C1751 H1738 0.930 . S
C1751 C1750 1.376 . S
C1751 C1752 1.388 . S
C1752 H1739 0.930 . S
C1752 C1751 1.388 . S
C1752 C1753 1.390 . S
C1753 C1752 1.390 . S
C1753 C1754 1.394 . S
C1753 C1759 1.465 . S
C1754 C1749 1.399 . S
C1754 C1753 1.394 . S
C1754 C1755 1.516 . S
C1755 C1754 1.516 . S
C1755 C1756 1.502 . S
C1755 C1757 1.561 . S
C1755 C1758 1.526 . S
C1756 H1740 0.959 . S
C1756 H1741 0.959 . S
C1756 H1742 0.961 . S
C1756 C1755 1.502 . S
C1757 H1743 0.960 . S
C1757 H1744 0.961 . S
C1757 H1745 0.959 . S
C1757 C1755 1.561 . S
C1758 C1755 1.526 . S
C1758 C1759 1.396 . S
C1758 C1763 1.390 . S
C1759 C1753 1.465 . S
C1759 C1758 1.396 . S
C1759 C1760 1.399 . S
C1760 H1746 0.929 . S
C1760 C1759 1.399 . S
C1760 C1761 1.385 . S
C1761 H1747 0.931 . S
C1761 C1760 1.385 . S
C1761 C1762 1.389 . S
C1762 C1761 1.389 . S
C1762 C1763 1.387 . S
C1763 H1748 0.930 . S
C1763 C1758 1.390 . S
C1763 C1762 1.387 . S
H1764 C1776 0.930 . S
H1765 C1778 0.930 . S
H1766 C1779 0.930 . S
H1767 C1783 0.959 . S
H1768 C1783 0.959 . S
H1769 C1783 0.961 . S
H1770 C1784 0.960 . S
H1771 C1784 0.961 . S
H1772 C1784 0.959 . S
H1773 C1787 0.929 . S
H1774 C1788 0.931 . S
H1775 C1790 0.930 . S
C1776 H1764 0.930 . S
C1776 C1777 1.399 . S
C1776 C1781 1.399 . S
C1777 C1776 1.399 . S
C1777 C1778 1.376 . S
C1778 H1765 0.930 . S
C1778 C1777 1.376 . S
C1778 C1779 1.388 . S
C1779 H1766 0.930 . S
C1779 C1778 1.388 . S
C1779 C1780 1.390 . S
C1780 C1779 1.390 . S
C1780 C1781 1.394 . S
C1780 C1786 1.465 . S
C1781 C1776 1.399 . S
C1781 C1780 1.394 . S
C1781 C1782 1.516 . S
C1782 C1781 1.516 . S
C1782 C1783 1.502 . S
C1782 C1784 1.561 . S
C1782 C1785 1.526 . S
C1783 H1767 0.959 . S
C1783 H1768 0.959 . S
C1783 H1769 0.961 . S
C1783 C1782 1.502 . S
C1784 H1770 0.960 . S
C1784 H1771 0.961 . S
C1784 H1772 0.959 . S
C1784 C1782 1.561 . S
C1785 C1782 1.526 . S
C1785 C1786 1.396 . S
C1785 C1790 1.390 . S
C1786 C1780 1.465 . S
C1786 C1785 1.396 . S
C1786 C1787 1.399 . S
C1787 H1773 0.929 . S
C1787 C1786 1.399 . S
C1787 C1788 1.385 . S
C1788 H1774 0.931 . S
C1788 C1787 1.385 . S
C1788 C1789 1.389 . S
C1789 C1788 1.389 . S
C1789 C1790 1.387 . S
C1790 H1775 0.930 . S
C1790 C1785 1.390 . S
C1790 C1789 1.387 . S
H1791 C1803 0.930 . S
H1792 C1805 0.930 . S
H1793 C1806 0.930 . S
H1794 C1810 0.959 . S
H1795 C1810 0.959 . S
H1796 C1810 0.961 . S
H1797 C1811 0.960 . S
H1798 C1811 0.961 . S
H1799 C1811 0.959 . S
H1800 C1814 0.929 . S
H1801 C1815 0.931 . S
H1802 C1817 0.930 . S
C1803 H1791 0.930 . S
C1803 C1804 1.399 . S
C1803 C1808 1.399 . S
C1804 C1803 1.399 . S
C1804 C1805 1.376 . S
C1805 H1792 0.930 . S
C1805 C1804 1.376 . S
C1805 C1806 1.388 . S
C1806 H1793 0.930 . S
C1806 C1805 1.388 . S
C1806 C1807 1.390 . S
C1807 C1806 1.390 . S
C1807 C1808 1.394 . S
C1807 C1813 1.465 . S
C1808 C1803 1.399 . S
C1808 C1807 1.394 . S
C1808 C1809 1.516 . S
C1809 C1808 1.516 . S
C1809 C1810 1.502 . S
C1809 C1811 1.561 . S
C1809 C1812 1.526 . S
C1810 H1794 0.959 . S
C1810 H1795 0.959 . S
C1810 H1796 0.961 . S
C1810 C1809 1.502 . S
C1811 H1797 0.960 . S
C1811 H1798 0.961 . S
C1811 H1799 0.959 . S
C1811 C1809 1.561 . S
C1812 C1809 1.526 . S
C1812 C1813 1.396 . S
C1812 C1817 1.390 . S
C1813 C1807 1.465 . S
C1813 C1812 1.396 . S
C1813 C1814 1.399 . S
C1814 H1800 0.929 . S
C1814 C1813 1.399 . S
C1814 C1815 1.385 . S
C1815 H1801 0.931 . S
C1815 C1814 1.385 . S
C1815 C1816 1.389 . S
C1816 C1815 1.389 . S
C1816 C1817 1.387 . S
C1817 H1802 0.930 . S
C1817 C1812 1.390 . S
C1817 C1816 1.387 . S
H1818 C1830 0.930 . S
H1819 C1832 0.930 . S
H1820 C1833 0.930 . S
H1821 C1837 0.959 . S
H1822 C1837 0.959 . S
H1823 C1837 0.961 . S
H1824 C1838 0.960 . S
H1825 C1838 0.961 . S
H1826 C1838 0.959 . S
H1827 C1841 0.929 . S
H1828 C1842 0.931 . S
H1829 C1844 0.930 . S
C1830 H1818 0.930 . S
C1830 C1831 1.399 . S
C1830 C1835 1.399 . S
C1831 C1830 1.399 . S
C1831 C1832 1.376 . S
C1832 H1819 0.930 . S
C1832 C1831 1.376 . S
C1832 C1833 1.388 . S
C1833 H1820 0.930 . S
C1833 C1832 1.388 . S
C1833 C1834 1.390 . S
C1834 C1833 1.390 . S
C1834 C1835 1.394 . S
C1834 C1840 1.465 . S
C1835 C1830 1.399 . S
C1835 C1834 1.394 . S
C1835 C1836 1.516 . S
C1836 C1835 1.516 . S
C1836 C1837 1.502 . S
C1836 C1838 1.561 . S
C1836 C1839 1.526 . S
C1837 H1821 0.959 . S
C1837 H1822 0.959 . S
C1837 H1823 0.961 . S
C1837 C1836 1.502 . S
C1838 H1824 0.960 . S
C1838 H1825 0.961 . S
C1838 H1826 0.959 . S
C1838 C1836 1.561 . S
C1839 C1836 1.526 . S
C1839 C1840 1.396 . S
C1839 C1844 1.390 . S
C1840 C1834 1.465 . S
C1840 C1839 1.396 . S
C1840 C1841 1.399 . S
C1841 H1827 0.929 . S
C1841 C1840 1.399 . S
C1841 C1842 1.385 . S
C1842 H1828 0.931 . S
C1842 C1841 1.385 . S
C1842 C1843 1.389 . S
C1843 C1842 1.389 . S
C1843 C1844 1.387 . S
C1844 H1829 0.930 . S
C1844 C1839 1.390 . S
C1844 C1843 1.387 . S
H1845 C1857 0.930 . S
H1846 C1859 0.930 . S
H1847 C1860 0.930 . S
H1848 C1864 0.959 . S
H1849 C1864 0.959 . S
H1850 C1864 0.961 . S
H1851 C1865 0.960 . S
H1852 C1865 0.961 . S
H1853 C1865 0.959 . S
H1854 C1868 0.929 . S
H1855 C1869 0.931 . S
H1856 C1871 0.930 . S
C1857 H1845 0.930 . S
C1857 C1858 1.399 . S
C1857 C1862 1.399 . S
C1858 C1857 1.399 . S
C1858 C1859 1.376 . S
C1859 H1846 0.930 . S
C1859 C1858 1.376 . S
C1859 C1860 1.388 . S
C1860 H1847 0.930 . S
C1860 C1859 1.388 . S
C1860 C1861 1.390 . S
C1861 C1860 1.390 . S
C1861 C1862 1.394 . S
C1861 C1867 1.465 . S
C1862 C1857 1.399 . S
C1862 C1861 1.394 . S
C1862 C1863 1.516 . S
C1863 C1862 1.516 . S
C1863 C1864 1.502 . S
C1863 C1865 1.561 . S
C1863 C1866 1.526 . S
C1864 H1848 0.959 . S
C1864 H1849 0.959 . S
C1864 H1850 0.961 . S
C1864 C1863 1.502 . S
C1865 H1851 0.960 . S
C1865 H1852 0.961 . S
C1865 H1853 0.959 . S
C1865 C1863 1.561 . S
C1866 C1863 1.526 . S
C1866 C1867 1.396 . S
C1866 C1871 1.390 . S
C1867 C1861 1.465 . S
C1867 C1866 1.396 . S
C1867 C1868 1.399 . S
C1868 H1854 0.929 . S
C1868 C1867 1.399 . S
C1868 C1869 1.385 . S
C1869 H1855 0.931 . S
C1869 C1868 1.385 . S
C1869 C1870 1.389 . S
C1870 C1869 1.389 . S
C1870 C1871 1.387 . S
C1871 H1856 0.930 . S
C1871 C1866 1.390 . S
C1871 C1870 1.387 . S
H1872 C1884 0.930 . S
H1873 C1886 0.930 . S
H1874 C1887 0.930 . S
H1875 C1891 0.959 . S
H1876 C1891 0.959 . S
H1877 C1891 0.961 . S
H1878 C1892 0.960 . S
H1879 C1892 0.961 . S
H1880 C1892 0.959 . S
H1881 C1895 0.929 . S
H1882 C1896 0.931 . S
H1883 C1898 0.930 . S
C1884 H1872 0.930 . S
C1884 C1885 1.399 . S
C1884 C1889 1.399 . S
C1885 C1884 1.399 . S
C1885 C1886 1.376 . S
C1886 H1873 0.930 . S
C1886 C1885 1.376 . S
C1886 C1887 1.388 . S
C1887 H1874 0.930 . S
C1887 C1886 1.388 . S
C1887 C1888 1.390 . S
C1888 C1887 1.390 . S
C1888 C1889 1.394 . S
C1888 C1894 1.465 . S
C1889 C1884 1.399 . S
C1889 C1888 1.394 . S
C1889 C1890 1.516 . S
C1890 C1889 1.516 . S
C1890 C1891 1.502 . S
C1890 C1892 1.561 . S
C1890 C1893 1.526 . S
C1891 H1875 0.959 . S
C1891 H1876 0.959 . S
C1891 H1877 0.961 . S
C1891 C1890 1.502 . S
C1892 H1878 0.960 . S
C1892 H1879 0.961 . S
C1892 H1880 0.959 . S
C1892 C1890 1.561 . S
C1893 C1890 1.526 . S
C1893 C1894 1.396 . S
C1893 C1898 1.390 . S
C1894 C1888 1.465 . S
C1894 C1893 1.396 . S
C1894 C1895 1.399 . S
C1895 H1881 0.929 . S
C1895 C1894 1.399 . S
C1895 C1896 1.385 . S
C1896 H1882 0.931 . S
C1896 C1895 1.385 . S
C1896 C1897 1.389 . S
C1897 C1896 1.389 . S
C1897 C1898 1.387 . S
C1898 H1883 0.930 . S
C1898 C1893 1.390 . S
C1898 C1897 1.387 . S
H1899 C1911 0.930 . S
H1900 C1913 0.930 . S
H1901 C1914 0.930 . S
H1902 C1918 0.959 . S
H1903 C1918 0.959 . S
H1904 C1918 0.961 . S
H1905 C1919 0.960 . S
H1906 C1919 0.961 . S
H1907 C1919 0.959 . S
H1908 C1922 0.929 . S
H1909 C1923 0.931 . S
H1910 C1925 0.930 . S
C1911 H1899 0.930 . S
C1911 C1912 1.399 . S
C1911 C1916 1.399 . S
C1912 C1911 1.399 . S
C1912 C1913 1.376 . S
C1913 H1900 0.930 . S
C1913 C1912 1.376 . S
C1913 C1914 1.388 . S
C1914 H1901 0.930 . S
C1914 C1913 1.388 . S
C1914 C1915 1.390 . S
C1915 C1914 1.390 . S
C1915 C1916 1.394 . S
C1915 C1921 1.465 . S
C1916 C1911 1.399 . S
C1916 C1915 1.394 . S
C1916 C1917 1.516 . S
C1917 C1916 1.516 . S
C1917 C1918 1.502 . S
C1917 C1919 1.561 . S
C1917 C1920 1.526 . S
C1918 H1902 0.959 . S
C1918 H1903 0.959 . S
C1918 H1904 0.961 . S
C1918 C1917 1.502 . S
C1919 H1905 0.960 . S
C1919 H1906 0.961 . S
C1919 H1907 0.959 . S
C1919 C1917 1.561 . S
C1920 C1917 1.526 . S
C1920 C1921 1.396 . S
C1920 C1925 1.390 . S
C1921 C1915 1.465 . S
C1921 C1920 1.396 . S
C1921 C1922 1.399 . S
C1922 H1908 0.929 . S
C1922 C1921 1.399 . S
C1922 C1923 1.385 . S
C1923 H1909 0.931 . S
C1923 C1922 1.385 . S
C1923 C1924 1.389 . S
C1924 C1923 1.389 . S
C1924 C1925 1.387 . S
C1925 H1910 0.930 . S
C1925 C1920 1.390 . S
C1925 C1924 1.387 . S
H1926 C1938 0.930 . S
H1927 C1940 0.930 . S
H1928 C1941 0.930 . S
H1929 C1945 0.959 . S
H1930 C1945 0.959 . S
H1931 C1945 0.961 . S
H1932 C1946 0.960 . S
H1933 C1946 0.961 . S
H1934 C1946 0.959 . S
H1935 C1949 0.929 . S
H1936 C1950 0.931 . S
H1937 C1952 0.930 . S
C1938 H1926 0.930 . S
C1938 C1939 1.399 . S
C1938 C1943 1.399 . S
C1939 C1938 1.399 . S
C1939 C1940 1.376 . S
C1940 H1927 0.930 . S
C1940 C1939 1.376 . S
C1940 C1941 1.388 . S
C1941 H1928 0.930 . S
C1941 C1940 1.388 . S
C1941 C1942 1.390 . S
C1942 C1941 1.390 . S
C1942 C1943 1.394 . S
C1942 C1948 1.465 . S
C1943 C1938 1.399 . S
C1943 C1942 1.394 . S
C1943 C1944 1.516 . S
C1944 C1943 1.516 . S
C1944 C1945 1.502 . S
C1944 C1946 1.561 . S
C1944 C1947 1.526 . S
C1945 H1929 0.959 . S
C1945 H1930 0.959 . S
C1945 H1931 0.961 . S
C1945 C1944 1.502 . S
C1946 H1932 0.960 . S
C1946 H1933 0.961 . S
C1946 H1934 0.959 . S
C1946 C1944 1.561 . S
C1947 C1944 1.526 . S
C1947 C1948 1.396 . S
C1947 C1952 1.390 . S
C1948 C1942 1.465 . S
C1948 C1947 1.396 . S
C1948 C1949 1.399 . S
C1949 H1935 0.929 . S
C1949 C1948 1.399 . S
C1949 C1950 1.385 . S
C1950 H1936 0.931 . S
C1950 C1949 1.385 . S
C1950 C1951 1.389 . S
C1951 C1950 1.389 . S
C1951 C1952 1.387 . S
C1952 H1937 0.930 . S
C1952 C1947 1.390 . S
C1952 C1951 1.387 . S
H1953 C1965 0.930 . S
H1954 C1967 0.930 . S
H1955 C1968 0.930 . S
H1956 C1972 0.959 . S
H1957 C1972 0.959 . S
H1958 C1972 0.961 . S
H1959 C1973 0.960 . S
H1960 C1973 0.961 . S
H1961 C1973 0.959 . S
H1962 C1976 0.929 . S
H1963 C1977 0.931 . S
H1964 C1979 0.930 . S
C1965 H1953 0.930 . S
C1965 C1966 1.399 . S
C1965 C1970 1.399 . S
C1966 C1965 1.399 . S
C1966 C1967 1.376 . S
C1967 H1954 0.930 . S
C1967 C1966 1.376 . S
C1967 C1968 1.388 . S
C1968 H1955 0.930 . S
C1968 C1967 1.388 . S
C1968 C1969 1.390 . S
C1969 C1968 1.390 . S
C1969 C1970 1.394 . S
C1969 C1975 1.465 . S
C1970 C1965 1.399 . S
C1970 C1969 1.394 . S
C1970 C1971 1.516 . S
C1971 C1970 1.516 . S
C1971 C1972 1.502 . S
C1971 C1973 1.561 . S
C1971 C1974 1.526 . S
C1972 H1956 0.959 . S
C1972 H1957 0.959 . S
C1972 H1958 0.961 . S
C1972 C1971 1.502 . S
C1973 H1959 0.960 . S
C1973 H1960 0.961 . S
C1973 H1961 0.959 . S
C1973 C1971 1.561 . S
C1974 C1971 1.526 . S
C1974 C1975 1.396 . S
C1974 C1979 1.390 . S
C1975 C1969 1.465 . S
C1975 C1974 1.396 . S
C1975 C1976 1.399 . S
C1976 H1962 0.929 . S
C1976 C1975 1.399 . S
C1976 C1977 1.385 . S
C1977 H1963 0.931 . S
C1977 C1976 1.385 . S
C1977 C1978 1.389 . S
C1978 C1977 1.389 . S
C1978 C1979 1.387 . S
C1979 H1964 0.930 . S
C1979 C1974 1.390 . S
C1979 C1978 1.387 . S
C535 C124 1.563 . S
C547 C171 1.509 . S
C562 C130 1.711 . S
C574 C211 1.659 . S
C589 C115 1.551 . S
C601 C250 1.524 . S
C616 C106 1.468 . S
C628 C210 1.423 . S
C655 C251 1.403 . S
C643 C85 1.457 . S
C670 C97 1.325 . S
C682 C170 1.340 . S
C709 C181 1.564 . S
C697 C103 1.551 . S
C736 C221 1.677 . S
C724 C88 1.662 . S
C751 C94 1.583 . S
C763 C260 1.539 . S
C778 C121 1.446 . S
C790 C220 1.465 . S
C805 C133 1.396 . S
C817 C261 1.431 . S
C844 C180 1.356 . S
C832 C112 1.304 . S
C871 C291 1.518 . S
C859 C16 1.558 . S
C886 C22 1.692 . S
C898 C331 1.696 . S
C913 C7 1.566 . S
C925 C370 1.525 . S
C940 C160 1.486 . S
C952 C330 1.434 . S
C967 C139 1.443 . S
C979 C371 1.440 . S
C994 C151 1.289 . S
C1006 C290 1.293 . S
C1021 C157 1.587 . S
C1033 C301 1.523 . S
C1048 C142 1.688 . S
C1060 C341 1.641 . S
C1087 C380 1.561 . S
C1075 C148 1.530 . S
C1102 C13 1.445 . S
C1114 C340 1.463 . S
C1141 C381 1.383 . S
C1129 C25 1.431 . S
C1156 C4 1.311 . S
C1168 C300 1.324 . S
C1195 C411 1.546 . S
C1183 C70 1.536 . S
C1210 C76 1.693 . S
C1222 C451 1.694 . S
C1249 C490 1.523 . S
C1237 C61 1.555 . S
C1276 C450 1.425 . S
C1264 C52 1.476 . S
C1303 C491 1.451 . S
C1291 C31 1.433 . S
C1318 C43 1.289 . S
C1330 C410 1.293 . S
C1345 C49 1.552 . S
C1357 C421 1.562 . S
C1372 C34 1.665 . S
C1384 C461 1.662 . S
C1411 C500 1.562 . S
C1399 C40 1.531 . S
C1426 C67 1.460 . S
C1438 C460 1.431 . S
C1453 C79 1.405 . S
C1465 C501 1.422 . S
C1480 C58 1.308 . S
C1492 C420 1.359 . S
C1507 C140 1.400 . S
C1519 C167 1.409 . S
C1546 C207 1.729 . S
C1534 C149 1.709 . S
C1561 C158 1.549 . S
C1573 C257 1.547 . S
C1588 C59 1.727 . S
C1600 C217 1.731 . S
C1615 C68 1.528 . S
C1627 C247 1.523 . S
C1654 C177 1.401 . S
C1642 C77 1.396 . S
C1669 C32 1.402 . S
C1681 C287 1.408 . S
C1696 C41 1.715 . S
C1708 C327 1.726 . S
C1723 C50 1.549 . S
C1735 C377 1.547 . S
C1750 C113 1.723 . S
C1762 C337 1.737 . S
C1789 C367 1.520 . S
C1777 C122 1.521 . S
C1804 C131 1.395 . S
C1816 C297 1.383 . S
C1831 C86 1.400 . S
C1843 C407 1.373 . S
C1858 C95 1.722 . S
C1870 C447 1.710 . S
C1897 C497 1.538 . S
C1885 C104 1.531 . S
C1912 C5 1.748 . S
C1924 C457 1.739 . S
C1939 C14 1.521 . S
C1951 C487 1.526 . S
C1966 C23 1.406 . S
C1978 C417 1.394 . S
