# Generated by pormake.
# Topology ssc, (4,4)-cn, num edge types: 1
# Building blocks:
#     Node 0, Type 0, BuildingBlock: GALJAG_clean_sbu_0, # of connection points: 4
#     Node 1, Type 0, BuildingBlock: GALJAG_clean_sbu_0, # of connection points: 4
#     Node 2, Type 0, BuildingBlock: GALJAG_clean_sbu_0, # of connection points: 4
#     Node 3, Type 0, BuildingBlock: GALJAG_clean_sbu_0, # of connection points: 4
#     Node 4, Type 0, BuildingBlock: GALJAG_clean_sbu_0, # of connection points: 4
#     Node 5, Type 0, BuildingBlock: GALJAG_clean_sbu_0, # of connection points: 4
#     Node 6, Type 0, BuildingBlock: GALJAG_clean_sbu_0, # of connection points: 4
#     Node 7, Type 0, BuildingBlock: GALJAG_clean_sbu_0, # of connection points: 4
#     Node 8, Type 0, BuildingBlock: GALJAG_clean_sbu_0, # of connection points: 4
#     Node 9, Type 0, BuildingBlock: GALJAG_clean_sbu_0, # of connection points: 4
#     Node 10, Type 0, BuildingBlock: GALJAG_clean_sbu_0, # of connection points: 4
#     Node 11, Type 0, BuildingBlock: GALJAG_clean_sbu_0, # of connection points: 4
#     Node 12, Type 1, BuildingBlock: KUFVIS_clean_linker_0, # of connection points: 4
#     Node 13, Type 1, BuildingBlock: KUFVIS_clean_linker_0, # of connection points: 4
#     Node 14, Type 1, BuildingBlock: KUFVIS_clean_linker_0, # of connection points: 4
#     Node 15, Type 1, BuildingBlock: KUFVIS_clean_linker_0, # of connection points: 4
#     Node 16, Type 1, BuildingBlock: KUFVIS_clean_linker_0, # of connection points: 4
#     Node 17, Type 1, BuildingBlock: KUFVIS_clean_linker_0, # of connection points: 4
#     Node 18, Type 1, BuildingBlock: KUFVIS_clean_linker_0, # of connection points: 4
#     Node 19, Type 1, BuildingBlock: KUFVIS_clean_linker_0, # of connection points: 4
#     Node 20, Type 1, BuildingBlock: KUFVIS_clean_linker_0, # of connection points: 4
#     Node 21, Type 1, BuildingBlock: KUFVIS_clean_linker_0, # of connection points: 4
#     Node 22, Type 1, BuildingBlock: KUFVIS_clean_linker_0, # of connection points: 4
#     Node 23, Type 1, BuildingBlock: KUFVIS_clean_linker_0, # of connection points: 4
#     Edge 24, Type (0, 1), BuildingBlock: UVAHIK_clean_linker_0, # of connection points: 2
#     Edge 25, Type (0, 1), BuildingBlock: UVAHIK_clean_linker_0, # of connection points: 2
#     Edge 26, Type (0, 1), BuildingBlock: UVAHIK_clean_linker_0, # of connection points: 2
#     Edge 27, Type (0, 1), BuildingBlock: UVAHIK_clean_linker_0, # of connection points: 2
#     Edge 28, Type (0, 1), BuildingBlock: UVAHIK_clean_linker_0, # of connection points: 2
#     Edge 29, Type (0, 1), BuildingBlock: UVAHIK_clean_linker_0, # of connection points: 2
#     Edge 30, Type (0, 1), BuildingBlock: UVAHIK_clean_linker_0, # of connection points: 2
#     Edge 31, Type (0, 1), BuildingBlock: UVAHIK_clean_linker_0, # of connection points: 2
#     Edge 32, Type (0, 1), BuildingBlock: UVAHIK_clean_linker_0, # of connection points: 2
#     Edge 33, Type (0, 1), BuildingBlock: UVAHIK_clean_linker_0, # of connection points: 2
#     Edge 34, Type (0, 1), BuildingBlock: UVAHIK_clean_linker_0, # of connection points: 2
#     Edge 35, Type (0, 1), BuildingBlock: UVAHIK_clean_linker_0, # of connection points: 2
#     Edge 36, Type (0, 1), BuildingBlock: UVAHIK_clean_linker_0, # of connection points: 2
#     Edge 37, Type (0, 1), BuildingBlock: UVAHIK_clean_linker_0, # of connection points: 2
#     Edge 38, Type (0, 1), BuildingBlock: UVAHIK_clean_linker_0, # of connection points: 2
#     Edge 39, Type (0, 1), BuildingBlock: UVAHIK_clean_linker_0, # of connection points: 2
#     Edge 40, Type (0, 1), BuildingBlock: UVAHIK_clean_linker_0, # of connection points: 2
#     Edge 41, Type (0, 1), BuildingBlock: UVAHIK_clean_linker_0, # of connection points: 2
#     Edge 42, Type (0, 1), BuildingBlock: UVAHIK_clean_linker_0, # of connection points: 2
#     Edge 43, Type (0, 1), BuildingBlock: UVAHIK_clean_linker_0, # of connection points: 2
#     Edge 44, Type (0, 1), BuildingBlock: UVAHIK_clean_linker_0, # of connection points: 2
#     Edge 45, Type (0, 1), BuildingBlock: UVAHIK_clean_linker_0, # of connection points: 2
#     Edge 46, Type (0, 1), BuildingBlock: UVAHIK_clean_linker_0, # of connection points: 2
#     Edge 47, Type (0, 1), BuildingBlock: UVAHIK_clean_linker_0, # of connection points: 2
#     Edge 48, Type (0, 1), BuildingBlock: UVAHIK_clean_linker_0, # of connection points: 2
#     Edge 49, Type (0, 1), BuildingBlock: UVAHIK_clean_linker_0, # of connection points: 2
#     Edge 50, Type (0, 1), BuildingBlock: UVAHIK_clean_linker_0, # of connection points: 2
#     Edge 51, Type (0, 1), BuildingBlock: UVAHIK_clean_linker_0, # of connection points: 2
#     Edge 52, Type (0, 1), BuildingBlock: UVAHIK_clean_linker_0, # of connection points: 2
#     Edge 53, Type (0, 1), BuildingBlock: UVAHIK_clean_linker_0, # of connection points: 2
#     Edge 54, Type (0, 1), BuildingBlock: UVAHIK_clean_linker_0, # of connection points: 2
#     Edge 55, Type (0, 1), BuildingBlock: UVAHIK_clean_linker_0, # of connection points: 2
#     Edge 56, Type (0, 1), BuildingBlock: UVAHIK_clean_linker_0, # of connection points: 2
#     Edge 57, Type (0, 1), BuildingBlock: UVAHIK_clean_linker_0, # of connection points: 2
#     Edge 58, Type (0, 1), BuildingBlock: UVAHIK_clean_linker_0, # of connection points: 2
#     Edge 59, Type (0, 1), BuildingBlock: UVAHIK_clean_linker_0, # of connection points: 2
#     Edge 60, Type (0, 1), BuildingBlock: UVAHIK_clean_linker_0, # of connection points: 2
#     Edge 61, Type (0, 1), BuildingBlock: UVAHIK_clean_linker_0, # of connection points: 2
#     Edge 62, Type (0, 1), BuildingBlock: UVAHIK_clean_linker_0, # of connection points: 2
#     Edge 63, Type (0, 1), BuildingBlock: UVAHIK_clean_linker_0, # of connection points: 2
#     Edge 64, Type (0, 1), BuildingBlock: UVAHIK_clean_linker_0, # of connection points: 2
#     Edge 65, Type (0, 1), BuildingBlock: UVAHIK_clean_linker_0, # of connection points: 2
#     Edge 66, Type (0, 1), BuildingBlock: UVAHIK_clean_linker_0, # of connection points: 2
#     Edge 67, Type (0, 1), BuildingBlock: UVAHIK_clean_linker_0, # of connection points: 2
#     Edge 68, Type (0, 1), BuildingBlock: UVAHIK_clean_linker_0, # of connection points: 2
#     Edge 69, Type (0, 1), BuildingBlock: UVAHIK_clean_linker_0, # of connection points: 2
#     Edge 70, Type (0, 1), BuildingBlock: UVAHIK_clean_linker_0, # of connection points: 2
#     Edge 71, Type (0, 1), BuildingBlock: UVAHIK_clean_linker_0, # of connection points: 2
# Relax obj value: 0.073
# Max RMSD: 0.279
# Mean RMSD: 0.240
data_MOF--net-ssc--node1-GALJAG_clean_sbu_0--node2-KUFVIS_clean_linker_0--edge1-UVAHIK_clean_linker_0
_symmetry_space_group_name_H-M    P1
_symmetry_Int_Tables_number       1
_symmetry_cell_setting            triclinic
loop_
_symmetry_equiv_pos_as_xyz
'x, y, z'
_cell_length_a     40.208947
_cell_length_b     40.228843
_cell_length_c     40.188409
_cell_angle_alpha  89.957437
_cell_angle_beta   90.104106
_cell_angle_gamma 89.958391
loop_
_atom_site_label
_atom_site_type_symbol
_atom_site_fract_x
_atom_site_fract_y
_atom_site_fract_z
_atom_type_partial_charge
In0 In 0.99424 0.25436 0.12835 0.0
O1 O 0.02718 0.22858 0.16734 0.0
O2 O 0.04507 0.27314 0.14578 0.0
C3 C 0.00528 0.20307 0.08657 0.0
C4 C 0.93905 0.25863 0.16687 0.0
C5 C 0.98208 0.30666 0.08801 0.0
O6 O 0.01744 0.23162 0.08186 0.0
O7 O 0.98747 0.20045 0.11227 0.0
O8 O 0.97015 0.27813 0.08266 0.0
O9 O 1.00027 0.30872 0.11355 0.0
C10 C 0.05041 0.2495 0.16566 0.0
O11 O 0.96249 0.2793 0.16851 0.0
O12 O 0.94372 0.23536 0.14644 0.0
In13 In 0.02655 0.77997 0.36976 0.0
O14 O 0.99772 0.74796 0.40734 0.0
O15 O 0.05016 0.74283 0.40565 0.0
C16 C 0.97602 0.77583 0.32529 0.0
C17 C 0.02897 0.83506 0.40824 0.0
C18 C 0.07746 0.77649 0.32587 0.0
O19 O 0.99114 0.75045 0.33594 0.0
O20 O 0.98607 0.80292 0.33741 0.0
O21 O 0.06334 0.80354 0.33311 0.0
O22 O 0.06623 0.7515 0.34106 0.0
C23 C 0.02328 0.73394 0.41904 0.0
O24 O 0.05447 0.81792 0.40188 0.0
O25 O 0.00255 0.82455 0.39501 0.0
In26 In 0.49771 0.76073 0.62223 0.0
O27 O 0.51941 0.73305 0.5778 0.0
O28 O 0.49127 0.70523 0.61296 0.0
C29 C 0.55679 0.76088 0.65452 0.0
C30 C 0.48161 0.81042 0.57985 0.0
C31 C 0.44576 0.76531 0.66491 0.0
O32 O 0.53582 0.73782 0.65758 0.0
O33 O 0.54795 0.78415 0.6354 0.0
O34 O 0.47265 0.78073 0.66924 0.0
O35 O 0.44527 0.747 0.6395 0.0
C36 C 0.50806 0.70506 0.58642 0.0
O37 O 0.47365 0.78056 0.57463 0.0
O38 O 0.49811 0.81514 0.60614 0.0
In39 In 0.52809 0.29029 0.87686 0.0
O40 O 0.5701 0.31041 0.84398 0.0
O41 O 0.566 0.25816 0.85016 0.0
C42 C 0.52744 0.34591 0.9146 0.0
C43 C 0.4803 0.28805 0.82922 0.0
C44 C 0.52456 0.24455 0.92626 0.0
O45 O 0.55391 0.33037 0.90813 0.0
O46 O 0.50158 0.33348 0.90195 0.0
O47 O 0.49891 0.25788 0.9139 0.0
O48 O 0.55155 0.25427 0.91371 0.0
C49 C 0.58146 0.28202 0.837 0.0
O50 O 0.48985 0.26245 0.84469 0.0
O51 O 0.49458 0.31452 0.838 0.0
In52 In 0.12195 0.01831 0.23342 0.0
O53 O 0.14042 0.96653 0.21926 0.0
O54 O 0.16694 0.99216 0.25691 0.0
C55 C 0.0813 0.00732 0.28609 0.0
C56 C 0.15962 0.0738 0.2292 0.0
C57 C 0.08329 0.02664 0.1789 0.0
O58 O 0.07864 0.99151 0.25916 0.0
O59 O 0.10412 0.02872 0.28631 0.0
O60 O 0.08102 0.04515 0.20412 0.0
O61 O 0.10493 0.00408 0.18123 0.0
C62 C 0.16416 0.96609 0.23975 0.0
O63 O 0.16295 0.04973 0.20934 0.0
O64 O 0.13737 0.06983 0.25089 0.0
In65 In 0.26669 0.86842 0.51355 0.0
O66 O 0.24493 0.82126 0.4912 0.0
O67 O 0.28 0.84821 0.46218 0.0
C68 C 0.20989 0.90515 0.5159 0.0
C69 C 0.27467 0.82983 0.56796 0.0
C70 C 0.32083 0.90796 0.50591 0.0
O71 O 0.21583 0.88467 0.49302 0.0
O72 O 0.23256 0.9073 0.53746 0.0
O73 O 0.31769 0.88828 0.53004 0.0
O74 O 0.29673 0.90783 0.48584 0.0
C75 C 0.26111 0.82323 0.46438 0.0
O76 O 0.28732 0.82282 0.54014 0.0
O77 O 0.25812 0.8565 0.5685 0.0
In78 In 0.37554 0.98923 0.72674 0.0
O79 O 0.36346 0.9348 0.73818 0.0
O80 O 0.32842 0.96233 0.70989 0.0
C81 C 0.41375 0.98362 0.6716 0.0
C82 C 0.33246 0.04079 0.7305 0.0
C83 C 0.41832 0.99791 0.77842 0.0
O84 O 0.40931 0.95978 0.6915 0.0
O85 O 0.39897 0.01006 0.67953 0.0
O86 O 0.4211 0.01335 0.75129 0.0
O87 O 0.39371 0.97862 0.77973 0.0
C88 C 0.3358 0.93499 0.72337 0.0
O89 O 0.33741 0.02136 0.75471 0.0
O90 O 0.34932 0.03427 0.70492 0.0
In91 In 0.22342 0.12207 0.02189 0.0
O92 O 0.20464 0.14727 0.06945 0.0
O93 O 0.25609 0.13577 0.06604 0.0
C94 C 0.16393 0.09075 0.02214 0.0
C95 C 0.22688 0.17278 0.97705 0.0
C96 C 0.27 0.07457 0.00982 0.0
O97 O 0.18518 0.08692 0.045 0.0
O98 O 0.17241 0.11094 0.99965 0.0
O99 O 0.23973 0.07106 0.00254 0.0
O100 O 0.27701 0.10221 0.02279 0.0
C101 C 0.233 0.14858 0.08297 0.0
O102 O 0.22143 0.17704 0.00755 0.0
O103 O 0.23075 0.14283 0.96882 0.0
In104 In 0.76523 0.37138 0.01566 0.0
O105 O 0.76197 0.35739 0.07076 0.0
O106 O 0.77977 0.32077 0.03728 0.0
C107 C 0.81857 0.41275 0.01796 0.0
C108 C 0.76119 0.3312 0.96217 0.0
C109 C 0.7095 0.40934 0.01216 0.0
O110 O 0.80347 0.40348 0.04375 0.0
O111 O 0.80655 0.40158 0.99129 0.0
O112 O 0.73284 0.41153 0.99143 0.0
O113 O 0.71429 0.38832 0.03492 0.0
C114 C 0.7729 0.32825 0.06694 0.0
O115 O 0.73602 0.3384 0.97952 0.0
O116 O 0.7882 0.34357 0.97237 0.0
In117 In 0.87088 0.48115 0.23819 0.0
O118 O 0.83904 0.44175 0.21248 0.0
O119 O 0.84556 0.438 0.26478 0.0
C120 C 0.91122 0.4796 0.18455 0.0
C121 C 0.82287 0.52852 0.24089 0.0
C122 C 0.91806 0.48747 0.28595 0.0
O123 O 0.90522 0.45416 0.20186 0.0
O124 O 0.89704 0.50576 0.19438 0.0
O125 O 0.9087 0.5117 0.26831 0.0
O126 O 0.90333 0.46054 0.27978 0.0
C127 C 0.83291 0.4258 0.23879 0.0
O128 O 0.83441 0.51487 0.26672 0.0
O129 O 0.83556 0.51836 0.21413 0.0
In130 In 0.73109 0.62783 0.53514 0.0
O131 O 0.70399 0.66057 0.5731 0.0
O132 O 0.75617 0.65441 0.5783 0.0
C133 C 0.67918 0.58604 0.54428 0.0
C134 C 0.73291 0.67068 0.48291 0.0
C135 C 0.78245 0.58492 0.52686 0.0
O136 O 0.70794 0.58038 0.55536 0.0
O137 O 0.67623 0.61323 0.52892 0.0
O138 O 0.76313 0.5928 0.50334 0.0
O139 O 0.77642 0.59941 0.55401 0.0
C140 C 0.72994 0.66758 0.58931 0.0
O141 O 0.71582 0.6444 0.48269 0.0
O142 O 0.7497 0.67494 0.50908 0.0
In143 In 0.62573 0.47992 0.73959 0.0
O144 O 0.65153 0.43819 0.76903 0.0
O145 O 0.65304 0.43619 0.71636 0.0
C146 C 0.57717 0.48104 0.78614 0.0
C147 C 0.67589 0.52454 0.74436 0.0
C148 C 0.58887 0.49146 0.68428 0.0
O149 O 0.5823 0.45611 0.76784 0.0
O150 O 0.59629 0.50528 0.78077 0.0
O151 O 0.59868 0.51464 0.70299 0.0
O152 O 0.59744 0.46279 0.69363 0.0
C153 C 0.66118 0.42276 0.74352 0.0
O154 O 0.6682 0.5107 0.71728 0.0
O155 O 0.65842 0.51581 0.76886 0.0
H156 H 0.89464 0.29938 0.63173 0.0
H157 H 0.95203 0.21494 0.66317 0.0
H158 H 0.97486 0.26417 0.57048 0.0
H159 H 0.97033 0.1857 0.57198 0.0
H160 H 0.06931 0.15443 0.59785 0.0
H161 H 0.02416 0.23577 0.65026 0.0
C162 C 0.91456 0.28178 0.62711 0.0
C163 C 0.93354 0.28458 0.59804 0.0
C164 C 0.92108 0.25691 0.65063 0.0
C165 C 0.94686 0.23421 0.645 0.0
C166 C 0.96632 0.23678 0.61607 0.0
C167 C 0.95968 0.26202 0.59264 0.0
C168 C 0.99448 0.21388 0.61104 0.0
C169 C 0.99272 0.18876 0.58672 0.0
C170 C 0.01984 0.16735 0.58189 0.0
C171 C 0.04863 0.17146 0.60112 0.0
C172 C 0.05038 0.19585 0.6259 0.0
C173 C 0.02306 0.21687 0.63106 0.0
H174 H 0.94105 0.64871 0.89432 0.0
H175 H 0.01642 0.7133 0.93381 0.0
H176 H 0.97654 0.73064 0.83555 0.0
H177 H 0.04994 0.73249 0.84124 0.0
H178 H 0.07424 0.83335 0.86655 0.0
H179 H 0.99549 0.78289 0.91847 0.0
C180 C 0.95739 0.66996 0.89127 0.0
C181 C 0.95639 0.68835 0.86166 0.0
C182 C 0.97884 0.67878 0.91728 0.0
C183 C 0.99974 0.70641 0.91376 0.0
C184 C 0.99892 0.72516 0.88422 0.0
C185 C 0.97722 0.71609 0.85826 0.0
C186 C 0.02044 0.75451 0.88035 0.0
C187 C 0.04562 0.75451 0.85618 0.0
C188 C 0.06501 0.78298 0.8511 0.0
C189 C 0.05882 0.81153 0.87014 0.0
C190 C 0.03393 0.81181 0.89461 0.0
C191 C 0.01502 0.78295 0.8999 0.0
H192 H 0.3995 0.81311 0.11833 0.0
H193 H 0.44519 0.72904 0.16596 0.0
H194 H 0.48655 0.76899 0.07508 0.0
H195 H 0.48164 0.70068 0.07207 0.0
H196 H 0.56047 0.64892 0.12228 0.0
H197 H 0.51344 0.73213 0.16996 0.0
C198 C 0.41886 0.79428 0.11894 0.0
C199 C 0.44311 0.794 0.0941 0.0
C200 C 0.41934 0.77094 0.14472 0.0
C201 C 0.44479 0.74714 0.14597 0.0
C202 C 0.46893 0.74594 0.12059 0.0
C203 C 0.46793 0.76948 0.09454 0.0
C204 C 0.4946 0.71956 0.12095 0.0
C205 C 0.49772 0.69788 0.09357 0.0
C206 C 0.52154 0.67244 0.09414 0.0
C207 C 0.54196 0.66859 0.12205 0.0
C208 C 0.53921 0.68979 0.14948 0.0
C209 C 0.51557 0.71548 0.14887 0.0
H210 H 0.41824 0.1694 0.39068 0.0
H211 H 0.50559 0.21702 0.42946 0.0
H212 H 0.45767 0.25605 0.34173 0.0
H213 H 0.53196 0.24707 0.3396 0.0
H214 H 0.57784 0.33379 0.38235 0.0
H215 H 0.49174 0.29095 0.42869 0.0
C216 C 0.43644 0.18924 0.38929 0.0
C217 C 0.43477 0.21247 0.36322 0.0
C218 C 0.46194 0.19062 0.41306 0.0
C219 C 0.48562 0.21602 0.41131 0.0
C220 C 0.4838 0.23989 0.38587 0.0
C221 C 0.4585 0.23801 0.36177 0.0
C222 C 0.50897 0.26631 0.38415 0.0
C223 C 0.53274 0.2662 0.35858 0.0
C224 C 0.55756 0.29066 0.35764 0.0
C225 C 0.55845 0.31505 0.3826 0.0
C226 C 0.53477 0.31536 0.40813 0.0
C227 C 0.50994 0.291 0.40881 0.0
H228 H 0.59486 0.92582 0.33487 0.0
H229 H 0.6606 0.97636 0.26772 0.0
H230 H 0.56757 0.02177 0.29654 0.0
H231 H 0.57406 0.0277 0.23134 0.0
H232 H 0.63796 0.10747 0.20049 0.0
H233 H 0.67034 0.04086 0.27751 0.0
C234 C 0.60009 0.94698 0.31895 0.0
C235 C 0.57762 0.97356 0.31761 0.0
C236 C 0.63001 0.94791 0.30131 0.0
C237 C 0.63749 0.97569 0.28155 0.0
C238 C 0.6146 0.00218 0.27907 0.0
C239 C 0.58489 0.00112 0.29757 0.0
C240 C 0.62135 0.03099 0.25712 0.0
C241 C 0.59722 0.04127 0.23373 0.0
C242 C 0.60298 0.06906 0.21341 0.0
C243 C 0.63305 0.08628 0.21648 0.0
C244 C 0.65736 0.07617 0.23928 0.0
C245 C 0.65158 0.04852 0.25967 0.0
H246 H 0.19407 0.36556 0.39193 0.0
H247 H 0.23646 0.42327 0.4712 0.0
H248 H 0.27724 0.32689 0.44682 0.0
H249 H 0.27571 0.33191 0.51193 0.0
H250 H 0.35059 0.39192 0.55875 0.0
H251 H 0.30026 0.42863 0.47188 0.0
C252 C 0.21255 0.36855 0.41141 0.0
C253 C 0.23546 0.343 0.41724 0.0
C254 C 0.2128 0.39763 0.43052 0.0
C255 C 0.23634 0.40095 0.4561 0.0
C256 C 0.25979 0.37556 0.46216 0.0
C257 C 0.25926 0.34653 0.44252 0.0
C258 C 0.28501 0.37975 0.48874 0.0
C259 C 0.29018 0.35462 0.51274 0.0
C260 C 0.31401 0.35902 0.5379 0.0
C261 C 0.33218 0.3886 0.53924 0.0
C262 C 0.32716 0.41387 0.51581 0.0
C263 C 0.30381 0.40927 0.49034 0.0
H264 H 0.88662 0.08579 0.83505 0.0
H265 H 0.83957 0.04465 0.74822 0.0
H266 H 0.93096 0.00223 0.78551 0.0
H267 H 0.93077 0.01048 0.715 0.0
H268 H 0.88103 0.92813 0.66834 0.0
H269 H 0.83748 0.97516 0.75386 0.0
C270 C 0.88624 0.0677 0.81503 0.0
C271 C 0.91184 0.04419 0.81281 0.0
C272 C 0.86006 0.068 0.79195 0.0
C273 C 0.8598 0.04465 0.76611 0.0
C274 C 0.88537 0.02092 0.76364 0.0
C275 C 0.91139 0.02072 0.78709 0.0
C276 C 0.88422 0.99559 0.73721 0.0
C277 C 0.90996 0.9934 0.71372 0.0
C278 C 0.9089 0.96908 0.68873 0.0
C279 C 0.88184 0.94705 0.68752 0.0
C280 C 0.85597 0.94898 0.71086 0.0
C281 C 0.8573 0.97341 0.73567 0.0
H282 H 0.30926 0.62569 0.88999 0.0
H283 H 0.27249 0.57688 0.97768 0.0
H284 H 0.22434 0.66557 0.94101 0.0
H285 H 0.23611 0.66747 0.00965 0.0
H286 H 0.1594 0.61637 0.06362 0.0
H287 H 0.20216 0.57128 0.97669 0.0
C288 C 0.29116 0.62405 0.90992 0.0
C289 C 0.26593 0.64797 0.9122 0.0
C290 C 0.29393 0.59863 0.9336 0.0
C291 C 0.27043 0.59646 0.95923 0.0
C292 C 0.24539 0.62073 0.96213 0.0
C293 C 0.24348 0.64672 0.93878 0.0
C294 C 0.22176 0.61949 0.9901 0.0
C295 C 0.22001 0.64608 0.01275 0.0
C296 C 0.19745 0.6451 0.0393 0.0
C297 C 0.17686 0.61725 0.04309 0.0
C298 C 0.17843 0.59052 0.02075 0.0
C299 C 0.2009 0.59176 0.99416 0.0
H300 H 0.67254 0.86892 0.91191 0.0
H301 H 0.72126 0.92413 0.98931 0.0
H302 H 0.76837 0.83729 0.94733 0.0
H303 H 0.76945 0.83572 0.01671 0.0
H304 H 0.84908 0.8944 0.05708 0.0
H305 H 0.78831 0.93437 0.97865 0.0
C306 C 0.69332 0.87185 0.92893 0.0
C307 C 0.72032 0.84991 0.92707 0.0
C308 C 0.69349 0.89866 0.9511 0.0
C309 C 0.72101 0.90341 0.97207 0.0
C310 C 0.74776 0.88077 0.9714 0.0
C311 C 0.74746 0.85427 0.94855 0.0
C312 C 0.7759 0.8845 0.99476 0.0
C313 C 0.78395 0.85843 0.01683 0.0
C314 C 0.81055 0.86183 0.03921 0.0
C315 C 0.82879 0.89145 0.03947 0.0
C316 C 0.82086 0.91768 0.01795 0.0
C317 C 0.79449 0.91414 0.99539 0.0
H318 H 0.39295 0.55175 0.36187 0.0
H319 H 0.34753 0.51656 0.2717 0.0
H320 H 0.43801 0.47133 0.30774 0.0
H321 H 0.42971 0.49563 0.23158 0.0
H322 H 0.3841 0.41486 0.17839 0.0
H323 H 0.35269 0.4377 0.27806 0.0
C324 C 0.39243 0.5344 0.34121 0.0
C325 C 0.4181 0.51109 0.33779 0.0
C326 C 0.36703 0.53663 0.31744 0.0
C327 C 0.36699 0.51479 0.29034 0.0
C328 C 0.39226 0.49091 0.28704 0.0
C329 C 0.41805 0.48922 0.31065 0.0
C330 C 0.39181 0.46852 0.25817 0.0
C331 C 0.41232 0.47506 0.23071 0.0
C332 C 0.40916 0.45613 0.20158 0.0
C333 C 0.38597 0.43007 0.20058 0.0
C334 C 0.36575 0.42291 0.22813 0.0
C335 C 0.36874 0.44238 0.25691 0.0
H336 H 0.8376 0.13264 0.41957 0.0
H337 H 0.78932 0.07859 0.49804 0.0
H338 H 0.74476 0.16803 0.45903 0.0
H339 H 0.75296 0.16632 0.53059 0.0
H340 H 0.66902 0.11667 0.57394 0.0
H341 H 0.71684 0.07494 0.48782 0.0
C342 C 0.81716 0.1302 0.43697 0.0
C343 C 0.79114 0.15348 0.43641 0.0
C344 C 0.81668 0.10316 0.45899 0.0
C345 C 0.78968 0.09922 0.48066 0.0
C346 C 0.76398 0.1229 0.48103 0.0
C347 C 0.76463 0.1498 0.45871 0.0
C348 C 0.7376 0.12094 0.5063 0.0
C349 C 0.73541 0.14586 0.53067 0.0
C350 C 0.71066 0.14444 0.55509 0.0
C351 C 0.68818 0.11784 0.55501 0.0
C352 C 0.69023 0.0926 0.53099 0.0
C353 C 0.715 0.09429 0.50649 0.0
H354 H 0.09577 0.43518 0.84619 0.0
H355 H 0.15626 0.48409 0.77311 0.0
H356 H 0.06179 0.52637 0.802 0.0
H357 H 0.06868 0.53064 0.7348 0.0
H358 H 0.12948 0.61327 0.70479 0.0
H359 H 0.16269 0.54933 0.78357 0.0
C360 C 0.09928 0.45528 0.8285 0.0
C361 C 0.07515 0.48022 0.82576 0.0
C362 C 0.12852 0.45656 0.80978 0.0
C363 C 0.1335 0.48292 0.78748 0.0
C364 C 0.10925 0.50809 0.78424 0.0
C365 C 0.08014 0.50667 0.80363 0.0
C366 C 0.11492 0.53676 0.76189 0.0
C367 C 0.091 0.54548 0.73767 0.0
C368 C 0.09601 0.57328 0.71709 0.0
C369 C 0.12501 0.59216 0.721 0.0
C370 C 0.14901 0.58358 0.74471 0.0
C371 C 0.14407 0.55586 0.76514 0.0
C372 C 0.9629 0.32988 0.03356 0.0
C373 C 0.97673 0.33498 0.06522 0.0
C374 C 0.96137 0.35591 0.01057 0.0
C375 C 0.00565 0.43409 0.99236 0.0
H376 H 0.94677 0.43331 0.91585 0.0
C377 C 0.0444 0.50175 0.87495 0.0
C378 C 0.04648 0.47905 0.84854 0.0
C379 C 0.02441 0.49465 0.90252 0.0
C380 C 0.96323 0.43406 0.93721 0.0
H381 H 0.99748 0.37174 0.09863 0.0
H382 H 0.99383 0.41748 0.05889 0.0
H383 H 0.93246 0.4009 0.96515 0.0
H384 H 0.02729 0.4331 0.82835 0.0
H385 H 0.99212 0.42078 0.87605 0.0
H386 H 0.0368 0.46653 0.96424 0.0
C387 C 0.98506 0.39323 0.05141 0.0
C388 C 0.95519 0.41532 0.96539 0.0
C389 C 0.98705 0.36705 0.07422 0.0
C390 C 0.0258 0.45101 0.84842 0.0
C391 C 0.00563 0.44406 0.87574 0.0
C392 C 0.01344 0.45313 0.96442 0.0
C393 C 0.97325 0.38779 0.01889 0.0
C394 C 0.97721 0.41369 0.99262 0.0
C395 C 0.00615 0.46484 0.90386 0.0
C396 C 0.99315 0.45205 0.93593 0.0
H397 H 0.95468 0.30539 0.02595 0.0
H398 H 0.95257 0.35042 0.98571 0.0
H399 H 0.02344 0.43354 0.0126 0.0
H400 H 0.06042 0.52339 0.87561 0.0
H401 H 0.02503 0.51126 0.92372 0.0
C402 C 0.93337 0.80367 0.28969 0.0
C403 C 0.95 0.77448 0.29925 0.0
C404 C 0.91095 0.80342 0.26314 0.0
C405 C 0.89436 0.75886 0.18559 0.0
H406 H 0.81874 0.81865 0.1825 0.0
C407 C 0.79535 0.82525 0.08732 0.0
C408 C 0.81898 0.8358 0.06391 0.0
C409 C 0.80538 0.80728 0.11551 0.0
C410 C 0.83927 0.80121 0.18297 0.0
H411 H 0.95525 0.72179 0.28931 0.0
H412 H 0.91593 0.72132 0.24268 0.0
H413 H 0.84616 0.80761 0.23539 0.0
H414 H 0.87086 0.83349 0.04985 0.0
H415 H 0.88841 0.80236 0.09869 0.0
H416 H 0.88797 0.75316 0.13298 0.0
C417 C 0.92046 0.74447 0.25566 0.0
C418 C 0.85528 0.79523 0.21328 0.0
C419 C 0.94285 0.7447 0.28243 0.0
C420 C 0.85219 0.82568 0.06763 0.0
C421 C 0.86217 0.80765 0.09558 0.0
C422 C 0.87831 0.76481 0.15525 0.0
C423 C 0.90463 0.77396 0.24539 0.0
C424 C 0.88382 0.77505 0.21473 0.0
C425 C 0.83916 0.79943 0.12058 0.0
C426 C 0.85138 0.7871 0.15335 0.0
H427 H 0.93832 0.82701 0.30218 0.0
H428 H 0.89966 0.8267 0.25564 0.0
H429 H 0.91627 0.7432 0.18576 0.0
H430 H 0.76961 0.83289 0.08506 0.0
H431 H 0.78697 0.80094 0.13409 0.0
C432 C 0.50224 0.64365 0.57814 0.0
C433 C 0.51273 0.67473 0.5662 0.0
C434 C 0.50376 0.61554 0.55776 0.0
C435 C 0.53447 0.58441 0.47543 0.0
H436 H 0.45082 0.53671 0.47574 0.0
C437 C 0.46898 0.53778 0.35958 0.0
C438 C 0.44561 0.51208 0.36197 0.0
C439 C 0.48834 0.54643 0.38708 0.0
C440 C 0.47485 0.54884 0.47577 0.0
H441 H 0.53475 0.70046 0.52429 0.0
H442 H 0.53639 0.65184 0.48838 0.0
H443 H 0.46345 0.57464 0.52062 0.0
H444 H 0.4259 0.47325 0.39348 0.0
H445 H 0.46068 0.48768 0.44159 0.0
H446 H 0.54474 0.55991 0.42924 0.0
C447 C 0.52758 0.64882 0.51364 0.0
C448 C 0.48211 0.57078 0.50164 0.0
C449 C 0.52633 0.67684 0.53412 0.0
C450 C 0.44405 0.493 0.39113 0.0
C451 C 0.46362 0.50152 0.41868 0.0
C452 C 0.52719 0.56239 0.4495 0.0
C453 C 0.51548 0.61797 0.52488 0.0
C454 C 0.51139 0.58985 0.50114 0.0
C455 C 0.48448 0.52959 0.41753 0.0
C456 C 0.49664 0.54544 0.44867 0.0
H457 H 0.49208 0.64116 0.60297 0.0
H458 H 0.49481 0.59211 0.56744 0.0
H459 H 0.55764 0.59809 0.47469 0.0
H460 H 0.47016 0.55303 0.33737 0.0
H461 H 0.50389 0.56832 0.38529 0.0
C462 C 0.62112 0.30284 0.79368 0.0
C463 C 0.60888 0.27663 0.81324 0.0
C464 C 0.64337 0.29643 0.76773 0.0
C465 C 0.69529 0.22948 0.72904 0.0
H466 H 0.66443 0.26896 0.64651 0.0
C467 C 0.67731 0.18483 0.58818 0.0
C468 C 0.70818 0.17015 0.58128 0.0
C469 C 0.67357 0.20574 0.61554 0.0
C470 C 0.67358 0.25795 0.66937 0.0
H471 H 0.61234 0.22371 0.82289 0.0
H472 H 0.65064 0.21247 0.77774 0.0
H473 H 0.64416 0.29042 0.69925 0.0
H474 H 0.75977 0.16686 0.59657 0.0
H475 H 0.75317 0.2035 0.64496 0.0
H476 H 0.72303 0.19558 0.69884 0.0
C477 C 0.64341 0.23801 0.78227 0.0
C478 C 0.66224 0.27046 0.69968 0.0
C479 C 0.62112 0.24438 0.80801 0.0
C480 C 0.73572 0.17801 0.60137 0.0
C481 C 0.7319 0.19875 0.62908 0.0
C482 C 0.70664 0.21695 0.69866 0.0
C483 C 0.65393 0.26374 0.76106 0.0
C484 C 0.67186 0.25547 0.72983 0.0
C485 C 0.70059 0.21228 0.6368 0.0
C486 C 0.69477 0.23018 0.66851 0.0
H487 H 0.61232 0.32802 0.79736 0.0
H488 H 0.65123 0.31685 0.75207 0.0
H489 H 0.70378 0.21787 0.75185 0.0
H490 H 0.65576 0.17928 0.57293 0.0
H491 H 0.64903 0.2154 0.62101 0.0
C492 C 0.99232 0.7034 0.46391 0.0
C493 C 0.02223 0.71016 0.44716 0.0
C494 C 0.99206 0.68261 0.49191 0.0
C495 C 0.04294 0.62 0.53769 0.0
H496 H 0.99627 0.65268 0.6154 0.0
C497 C 0.06415 0.55917 0.66527 0.0
C498 C 0.07257 0.58232 0.69001 0.0
C499 C 0.04881 0.56972 0.63574 0.0
C500 C 0.00929 0.64307 0.59389 0.0
H501 H 0.07512 0.69972 0.44605 0.0
H502 H 0.07477 0.66386 0.49479 0.0
H503 H 0.98877 0.6805 0.56197 0.0
H504 H 0.069 0.63397 0.70471 0.0
H505 H 0.0425 0.65242 0.6535 0.0
H506 H 0.06502 0.58385 0.5699 0.0
C507 C 0.05139 0.67419 0.48622 0.0
C508 C 0.00475 0.65884 0.56315 0.0
C509 C 0.05165 0.695 0.45839 0.0
C510 C 0.06291 0.61564 0.68592 0.0
C511 C 0.04751 0.62615 0.65659 0.0
C512 C 0.04749 0.60426 0.56839 0.0
C513 C 0.02169 0.66802 0.5036 0.0
C514 C 0.02237 0.64816 0.53491 0.0
C515 C 0.04146 0.60359 0.63056 0.0
C516 C 0.03156 0.61626 0.59711 0.0
H517 H 0.96922 0.71468 0.45578 0.0
H518 H 0.96872 0.67816 0.50455 0.0
H519 H 0.05644 0.61075 0.51631 0.0
H520 H 0.07145 0.53336 0.66777 0.0
H521 H 0.04403 0.55162 0.61639 0.0
C522 C 0.60334 0.79186 0.68141 0.0
C523 C 0.58808 0.76151 0.67372 0.0
C524 C 0.62999 0.79294 0.70374 0.0
C525 C 0.6637 0.74291 0.77362 0.0
H526 H 0.72071 0.82008 0.78162 0.0
C527 C 0.74484 0.82416 0.87609 0.0
C528 C 0.72018 0.82423 0.90079 0.0
C529 C 0.73987 0.80656 0.84644 0.0
C530 C 0.70569 0.79784 0.77962 0.0
H531 H 0.59064 0.70816 0.68042 0.0
H532 H 0.63832 0.7097 0.71792 0.0
H533 H 0.69229 0.80941 0.72957 0.0
H534 H 0.67281 0.8036 0.91561 0.0
H535 H 0.66392 0.77316 0.86429 0.0
H536 H 0.67667 0.73183 0.82405 0.0
C537 C 0.62881 0.73295 0.70822 0.0
C538 C 0.6889 0.79195 0.74974 0.0
C539 C 0.6016 0.73199 0.68654 0.0
C540 C 0.69212 0.80394 0.89684 0.0
C541 C 0.68719 0.78633 0.8674 0.0
C542 C 0.68071 0.74864 0.80339 0.0
C543 C 0.64246 0.76357 0.71835 0.0
C544 C 0.66633 0.76538 0.74684 0.0
C545 C 0.71023 0.78868 0.84118 0.0
C546 C 0.70042 0.77719 0.80736 0.0
H547 H 0.59342 0.81499 0.67176 0.0
H548 H 0.6393 0.81712 0.71094 0.0
H549 H 0.6466 0.72218 0.77277 0.0
H550 H 0.76665 0.83977 0.87858 0.0
H551 H 0.75831 0.8085 0.82692 0.0
C552 C 0.49608 0.39167 0.94218 0.0
C553 C 0.52611 0.37447 0.93763 0.0
C554 C 0.49283 0.4148 0.96781 0.0
C555 C 0.52464 0.42526 0.05141 0.0
H556 H 0.46092 0.49762 0.05274 0.0
C557 C 0.46438 0.46529 0.17396 0.0
C558 C 0.42957 0.46333 0.17179 0.0
C559 C 0.48365 0.46695 0.145 0.0
C560 C 0.47905 0.47769 0.05276 0.0
H561 H 0.57726 0.37019 0.95427 0.0
H562 H 0.57155 0.4107 0.99933 0.0
H563 H 0.48287 0.47795 0.99958 0.0
H564 H 0.38746 0.46441 0.13813 0.0
H565 H 0.42084 0.46714 0.08777 0.0
H566 H 0.51952 0.42367 0.10428 0.0
C567 C 0.5504 0.40592 0.9833 0.0
C568 C 0.49158 0.46641 0.02236 0.0
C569 C 0.55368 0.38281 0.95748 0.0
C570 C 0.4143 0.46549 0.14043 0.0
C571 C 0.43345 0.46747 0.1116 0.0
C572 C 0.51223 0.43661 0.08177 0.0
C573 C 0.51952 0.42113 0.98957 0.0
C574 C 0.51324 0.43898 0.02129 0.0
C575 C 0.46837 0.46708 0.11346 0.0
C576 C 0.48801 0.46179 0.08265 0.0
H577 H 0.47452 0.38605 0.92699 0.0
H578 H 0.46863 0.42587 0.97198 0.0
H579 H 0.54114 0.40397 0.05154 0.0
H580 H 0.47672 0.46371 0.19789 0.0
H581 H 0.5105 0.46681 0.1472 0.0
C582 C 0.88927 0.2326 0.19313 0.0
C583 C 0.90924 0.26071 0.18819 0.0
C584 C 0.86351 0.23325 0.21636 0.0
C585 C 0.84228 0.2777 0.29369 0.0
H586 H 0.77562 0.20822 0.29556 0.0
C587 C 0.76466 0.18752 0.39106 0.0
C588 C 0.79199 0.18107 0.41194 0.0
C589 C 0.76783 0.2094 0.36409 0.0
C590 C 0.79342 0.22842 0.29554 0.0
H591 H 0.91593 0.31257 0.20103 0.0
H592 H 0.86996 0.31426 0.24059 0.0
H593 H 0.79978 0.22493 0.24299 0.0
H594 H 0.84292 0.19458 0.42301 0.0
H595 H 0.84884 0.23188 0.37608 0.0
H596 H 0.83611 0.28104 0.3464 0.0
C597 C 0.87502 0.29119 0.22769 0.0
C598 C 0.80769 0.23766 0.26525 0.0
C599 C 0.90133 0.2903 0.20495 0.0
C600 C 0.82161 0.19877 0.40701 0.0
C601 C 0.82478 0.22056 0.38026 0.0
C602 C 0.82758 0.26891 0.3239 0.0
C603 C 0.85661 0.26227 0.23477 0.0
C604 C 0.83409 0.26058 0.26426 0.0
C605 C 0.79836 0.22529 0.3577 0.0
C606 C 0.80486 0.24241 0.32549 0.0
H607 H 0.89467 0.20951 0.18038 0.0
H608 H 0.85048 0.21022 0.22121 0.0
H609 H 0.86216 0.2958 0.29423 0.0
H610 H 0.7415 0.1742 0.39437 0.0
H611 H 0.74688 0.21275 0.34745 0.0
C612 C 0.03434 0.97732 0.31394 0.0
C613 C 0.05855 0.00246 0.31453 0.0
C614 C 0.01078 0.97498 0.33942 0.0
C615 C 0.94951 0.99618 0.37704 0.0
H616 H 0.96347 0.03032 0.46618 0.0
C617 C 0.87738 0.09118 0.4618 0.0
C618 C 0.8447 0.07936 0.45863 0.0
C619 C 0.90433 0.07051 0.45477 0.0
C620 C 0.95919 0.02033 0.44152 0.0
H621 H 0.07837 0.04358 0.34317 0.0
H622 H 0.03684 0.04032 0.38685 0.0
H623 H 0.01124 0.01309 0.43282 0.0
H624 H 0.81437 0.03622 0.44811 0.0
H625 H 0.86169 0.9999 0.43519 0.0
H626 H 0.89775 0.00474 0.38506 0.0
C627 C 0.03621 0.02191 0.36723 0.0
C628 C 0.98653 0.01063 0.42232 0.0
C629 C 0.05987 0.02405 0.34192 0.0
C630 C 0.83941 0.04581 0.45073 0.0
C631 C 0.86643 0.02514 0.44326 0.0
C632 C 0.92224 0.00557 0.39629 0.0
C633 C 0.01075 0.99795 0.36584 0.0
C634 C 0.9821 1.00008 0.3892 0.0
C635 C 0.8991 0.03769 0.44398 0.0
C636 C 0.92689 0.0193 0.42809 0.0
H637 H 0.03302 0.96001 0.29335 0.0
H638 H 0.99193 0.95583 0.33784 0.0
H639 H 0.94499 0.98844 0.35163 0.0
H640 H 0.88199 0.11698 0.468 0.0
H641 H 0.9291 0.08108 0.45527 0.0
C642 C 0.26791 0.81809 0.62871 0.0
C643 C 0.27675 0.80718 0.59677 0.0
C644 C 0.26606 0.7955 0.65508 0.0
C645 C 0.2829 0.70745 0.67974 0.0
H646 H 0.20001 0.71757 0.72771 0.0
C647 C 0.20354 0.59917 0.72137 0.0
C648 C 0.17955 0.60363 0.74617 0.0
C649 C 0.22624 0.62439 0.71433 0.0
C650 C 0.22381 0.71462 0.71548 0.0
H651 H 0.29243 0.76463 0.56767 0.0
H652 H 0.2877 0.72503 0.61318 0.0
H653 H 0.21928 0.76207 0.69225 0.0
H654 H 0.16201 0.63611 0.78522 0.0
H655 H 0.20252 0.68011 0.77373 0.0
H656 H 0.28663 0.65928 0.7021 0.0
C657 C 0.28297 0.75104 0.61826 0.0
C658 C 0.23484 0.74028 0.69492 0.0
C659 C 0.28543 0.7737 0.59205 0.0
C660 C 0.18063 0.63215 0.76617 0.0
C661 C 0.20353 0.65741 0.75928 0.0
C662 C 0.27202 0.68186 0.7006 0.0
C663 C 0.27223 0.76149 0.64986 0.0
C664 C 0.26388 0.73655 0.67586 0.0
C665 C 0.2252 0.65463 0.73192 0.0
C666 C 0.24155 0.68453 0.71752 0.0
H667 H 0.26165 0.84391 0.63317 0.0
H668 H 0.25882 0.80447 0.67934 0.0
H669 H 0.30569 0.704 0.66586 0.0
H670 H 0.2027 0.57749 0.70539 0.0
H671 H 0.24227 0.62132 0.69293 0.0
C672 C 0.44215 0.97802 0.8324 0.0
C673 C 0.44336 1.00009 0.80535 0.0
C674 C 0.46788 0.97725 0.85582 0.0
C675 C 0.52119 0.98504 0.90854 0.0
H676 H 0.60908 0.98779 0.86917 0.0
C677 C 0.66934 0.9545 0.93859 0.0
C678 C 0.66506 0.92194 0.95033 0.0
C679 C 0.6417 0.97339 0.92883 0.0
C680 C 0.58484 0.98773 0.88088 0.0
H681 H 0.47138 0.04014 0.78273 0.0
H682 H 0.51598 0.03938 0.82401 0.0
H683 H 0.56111 0.00341 0.836 0.0
H684 H 0.62895 0.88446 0.96378 0.0
H685 H 0.58074 0.91737 0.94729 0.0
H686 H 0.54512 0.96733 0.95288 0.0
C687 C 0.49558 0.02205 0.82674 0.0
C688 C 0.55719 0.99671 0.86179 0.0
C689 C 0.46993 0.02262 0.80316 0.0
C690 C 0.63275 0.90963 0.95496 0.0
C691 C 0.60518 0.92855 0.94556 0.0
C692 C 0.54888 0.97582 0.92759 0.0
C693 C 0.49535 0.99873 0.85289 0.0
C694 C 0.52488 0.99449 0.87501 0.0
C695 C 0.60941 0.96003 0.93096 0.0
C696 C 0.58092 0.97611 0.91363 0.0
H697 H 0.42198 0.96034 0.83477 0.0
H698 H 0.46695 0.95864 0.87528 0.0
H699 H 0.49677 0.98372 0.91979 0.0
H700 H 0.69408 0.96434 0.93454 0.0
H701 H 0.64569 0.9977 0.91795 0.0
C702 C 0.27258 0.17323 0.12382 0.0
C703 C 0.23964 0.16773 0.11366 0.0
C704 C 0.27978 0.19665 0.14836 0.0
C705 C 0.24398 0.27428 0.18028 0.0
H706 H 0.32647 0.27538 0.23032 0.0
C707 C 0.32184 0.39098 0.19788 0.0
C708 C 0.34169 0.39504 0.22635 0.0
C709 C 0.30224 0.36267 0.19398 0.0
C710 C 0.30293 0.27543 0.21717 0.0
H711 H 0.18808 0.17975 0.12372 0.0
H712 H 0.20056 0.22011 0.16745 0.0
H713 H 0.3064 0.22353 0.20698 0.0
H714 H 0.35518 0.3736 0.27398 0.0
H715 H 0.32074 0.32379 0.26716 0.0
H716 H 0.24144 0.32667 0.18916 0.0
C717 C 0.22096 0.20717 0.15557 0.0
C718 C 0.2915 0.24562 0.20355 0.0
C719 C 0.21378 0.18388 0.13069 0.0
C720 C 0.34011 0.37107 0.25176 0.0
C721 C 0.32057 0.34252 0.24777 0.0
C722 C 0.25548 0.30415 0.19377 0.0
C723 C 0.25416 0.21498 0.16359 0.0
C724 C 0.26248 0.2448 0.18397 0.0
C725 C 0.30205 0.33766 0.21844 0.0
C726 C 0.28581 0.3053 0.21116 0.0
H727 H 0.29307 0.16098 0.11135 0.0
H728 H 0.30567 0.20193 0.15356 0.0
H729 H 0.22167 0.27489 0.16516 0.0
H730 H 0.32225 0.40929 0.17809 0.0
H731 H 0.28864 0.35962 0.1709 0.0
C732 C 0.04068 0.05767 0.1456 0.0
C733 C 0.06076 0.02946 0.14999 0.0
C734 C 0.0167 0.05854 0.12035 0.0
C735 C 0.98301 0.00896 0.04801 0.0
H736 H 0.89941 0.04612 0.0779 0.0
C737 C 0.84236 0.96467 0.05128 0.0
C738 C 0.84046 0.94858 0.02046 0.0
C739 C 0.86748 0.98762 0.05756 0.0
C740 C 0.92256 0.03563 0.06903 0.0
H741 H 0.07291 0.98082 0.13035 0.0
H742 H 0.03037 0.98141 0.0877 0.0
H743 H 0.94992 0.05911 0.1078 0.0
H744 H 0.86101 0.9459 0.97084 0.0
H745 H 0.90485 0.987 0.9814 0.0
H746 H 0.95502 0.98258 0.01146 0.0
C747 C 0.03333 0.00344 0.10284 0.0
C748 C 0.95184 0.04344 0.08602 0.0
C749 C 0.05766 0.00288 0.12764 0.0
C750 C 0.86206 0.95816 0.99481 0.0
C751 C 0.88733 0.98137 0.00104 0.0
C752 C 0.9536 1.00047 0.03151 0.0
C753 C 0.01182 0.03092 0.09935 0.0
C754 C 0.98228 0.02882 0.07681 0.0
C755 C 0.89135 0.99511 0.03307 0.0
C756 C 0.92273 0.01215 0.04312 0.0
H757 H 0.04294 0.07877 0.16219 0.0
H758 H 0.00134 0.0805 0.11809 0.0
H759 H 0.00603 0.99818 0.03939 0.0
H760 H 0.82594 0.95753 0.07142 0.0
H761 H 0.8697 0.99713 0.08265 0.0
C762 C 0.27418 0.80202 0.40733 0.0
C763 C 0.25997 0.79695 0.43881 0.0
C764 C 0.27616 0.77586 0.38451 0.0
C765 C 0.25008 0.68714 0.3706 0.0
H766 H 0.33637 0.68123 0.32815 0.0
C767 C 0.32363 0.56706 0.34947 0.0
C768 C 0.34225 0.56357 0.32021 0.0
C769 C 0.3049 0.59576 0.35495 0.0
C770 C 0.31185 0.68276 0.33918 0.0
H771 H 0.23541 0.76112 0.47063 0.0
H772 H 0.24015 0.71528 0.43177 0.0
H773 H 0.31985 0.73274 0.35474 0.0
H774 H 0.35491 0.58622 0.27303 0.0
H775 H 0.32266 0.63706 0.283 0.0
H776 H 0.24362 0.63594 0.35716 0.0
C777 C 0.24895 0.73948 0.42399 0.0
C778 C 0.30225 0.7124 0.35442 0.0
C779 C 0.24648 0.76574 0.44652 0.0
C780 C 0.34048 0.58836 0.29567 0.0
C781 C 0.32221 0.61739 0.30142 0.0
C782 C 0.25998 0.65729 0.35582 0.0
C783 C 0.26453 0.74394 0.39295 0.0
C784 C 0.27172 0.71466 0.37138 0.0
C785 C 0.30501 0.6217 0.33152 0.0
C786 C 0.29138 0.65456 0.34089 0.0
H787 H 0.28441 0.826 0.4006 0.0
H788 H 0.28764 0.78049 0.3606 0.0
H789 H 0.22601 0.68818 0.38258 0.0
H790 H 0.32479 0.54823 0.36873 0.0
H791 H 0.29219 0.59859 0.37853 0.0
C792 C 0.44141 0.00967 0.62251 0.0
C793 C 0.43659 0.98178 0.64292 0.0
C794 C 0.4664 0.00978 0.59842 0.0
C795 C 0.54756 0.96932 0.58396 0.0
H796 H 0.54993 0.035 0.51346 0.0
C797 C 0.64606 0.05699 0.50471 0.0
C798 C 0.6661 0.06485 0.53228 0.0
C799 C 0.619 0.03529 0.50831 0.0
C800 C 0.54978 0.01588 0.53242 0.0
H801 H 0.45232 0.93114 0.65239 0.0
H802 H 0.49587 0.93122 0.61051 0.0
H803 H 0.49677 0.0174 0.53593 0.0
H804 H 0.67556 0.05425 0.58423 0.0
H805 H 0.62862 0.01728 0.59082 0.0
H806 H 0.60048 0.96749 0.58022 0.0
C807 C 0.48073 0.95325 0.61318 0.0
C808 C 0.51918 0.0062 0.54581 0.0
C809 C 0.45569 0.95314 0.63725 0.0
C810 C 0.66028 0.04879 0.56268 0.0
C811 C 0.63347 0.02724 0.56628 0.0
C812 C 0.578 0.9784 0.5701 0.0
C813 C 0.48715 0.98189 0.59407 0.0
C814 C 0.51786 0.9846 0.57337 0.0
C815 C 0.61175 0.02101 0.53948 0.0
C816 C 0.57969 0.00359 0.5459 0.0
H817 H 0.42689 0.03209 0.62615 0.0
H818 H 0.47066 0.03259 0.58482 0.0
H819 H 0.54793 0.95236 0.60486 0.0
H820 H 0.6501 0.06911 0.48099 0.0
H821 H 0.60304 0.03076 0.48706 0.0
C822 C 0.22562 0.19504 0.91863 0.0
C823 C 0.22748 0.20071 0.95309 0.0
C824 C 0.22373 0.22183 0.89638 0.0
C825 C 0.23798 0.31263 0.88926 0.0
H826 H 0.16375 0.31111 0.82762 0.0
C827 C 0.17024 0.43004 0.84667 0.0
C828 C 0.15398 0.43083 0.81581 0.0
C829 C 0.18786 0.40183 0.85662 0.0
C830 C 0.18515 0.31179 0.844 0.0
H831 H 0.23006 0.23873 0.9912 0.0
H832 H 0.22706 0.28528 0.95254 0.0
H833 H 0.17846 0.26089 0.8582 0.0
H834 H 0.14447 0.40377 0.77033 0.0
H835 H 0.17587 0.35423 0.78742 0.0
H836 H 0.24408 0.36377 0.87588 0.0
C837 C 0.22712 0.26026 0.9426 0.0
C838 C 0.19351 0.28295 0.86163 0.0
C839 C 0.22857 0.23357 0.96479 0.0
C840 C 0.15725 0.40376 0.79409 0.0
C841 C 0.17486 0.37535 0.80407 0.0
C842 C 0.22978 0.34139 0.87149 0.0
C843 C 0.22419 0.25474 0.90819 0.0
C844 C 0.21925 0.2834 0.88532 0.0
C845 C 0.1894 0.37363 0.83597 0.0
C846 C 0.20247 0.34168 0.84955 0.0
H847 H 0.22473 0.16995 0.90893 0.0
H848 H 0.2216 0.21683 0.86998 0.0
H849 H 0.25834 0.31355 0.90693 0.0
H850 H 0.16755 0.45052 0.86397 0.0
H851 H 0.19826 0.40137 0.88149 0.0
C852 C 0.28636 0.01884 0.98761 0.0
C853 C 0.29463 0.04754 0.00567 0.0
C854 C 0.30822 0.99182 0.98646 0.0
C855 C 0.34463 0.93088 0.01048 0.0
H856 H 0.44058 0.93827 0.01679 0.0
C857 C 0.45239 0.85231 0.07656 0.0
C858 C 0.44142 0.82021 0.06851 0.0
C859 C 0.44074 0.87983 0.05873 0.0
C860 C 0.41382 0.93579 0.01487 0.0
H861 H 0.33284 0.07103 0.03557 0.0
H862 H 0.37056 0.02357 0.03451 0.0
H863 H 0.40721 0.9877 0.00469 0.0
H864 H 0.41174 0.79115 0.03438 0.0
H865 H 0.39189 0.83915 0.00253 0.0
H866 H 0.35095 0.87939 0.02161 0.0
C867 C 0.34753 0.02204 0.0206 0.0
C868 C 0.39466 0.96414 0.0081 0.0
C869 C 0.32579 0.04922 0.02142 0.0
C870 C 0.42093 0.81569 0.04062 0.0
C871 C 0.40926 0.8432 0.02275 0.0
C872 C 0.36372 0.90263 0.01704 0.0
C873 C 0.33871 0.99266 0.00372 0.0
C874 C 0.35972 0.96217 0.00662 0.0
C875 C 0.41764 0.87569 0.03272 0.0
C876 C 0.39849 0.90481 0.0201 0.0
H877 H 0.26265 0.01696 0.9749 0.0
H878 H 0.30085 0.96996 0.97259 0.0
H879 H 0.31782 0.92833 0.01019 0.0
H880 H 0.46763 0.85633 0.09845 0.0
H881 H 0.44752 0.90443 0.0673 0.0
C882 C 0.86176 0.4458 0.98848 0.0
C883 C 0.8473 0.43562 0.01852 0.0
C884 C 0.88713 0.46937 0.98831 0.0
C885 C 0.91824 0.53948 0.03757 0.0
H886 H 0.98099 0.54274 0.96453 0.0
C887 C 0.004 0.63475 0.95291 0.0
C888 C 0.97867 0.65815 0.94757 0.0
C889 C 0.99866 0.60782 0.97433 0.0
C890 C 0.96436 0.54218 0.98568 0.0
H891 H 0.84935 0.44062 0.0722 0.0
H892 H 0.89429 0.48174 0.07198 0.0
H893 H 0.95177 0.49158 0.97647 0.0
H894 H 0.92953 0.67403 0.96238 0.0
H895 H 0.92001 0.62739 0.99959 0.0
H896 H 0.93003 0.59072 0.04604 0.0
C897 C 0.88547 0.47192 0.04848 0.0
C898 C 0.94722 0.51279 0.99221 0.0
C899 C 0.85983 0.44834 0.04862 0.0
C900 C 0.94946 0.65632 0.96643 0.0
C901 C 0.94413 0.62956 0.98784 0.0
C902 C 0.9355 0.56898 0.03113 0.0
C903 C 0.89894 0.48322 0.01823 0.0
C904 C 0.92272 0.51153 0.01704 0.0
C905 C 0.96784 0.60395 0.99051 0.0
C906 C 0.95746 0.57113 0.00398 0.0
H907 H 0.85279 0.43633 0.96489 0.0
H908 H 0.89639 0.47775 0.96446 0.0
H909 H 0.89966 0.53947 0.05703 0.0
H910 H 0.02662 0.63565 0.93833 0.0
H911 H 0.0176 0.58875 0.97624 0.0
C912 C 0.78531 0.56834 0.21156 0.0
C913 C 0.79602 0.5537 0.24144 0.0
C914 C 0.75888 0.59083 0.21131 0.0
C915 C 0.68375 0.61295 0.25796 0.0
H916 H 0.68059 0.6838 0.19261 0.0
C917 C 0.58678 0.70856 0.18495 0.0
C918 C 0.56244 0.68469 0.17761 0.0
C919 C 0.6148 0.69981 0.20384 0.0
C920 C 0.68108 0.66473 0.21162 0.0
H921 H 0.78795 0.5518 0.29471 0.0
H922 H 0.74155 0.59134 0.29434 0.0
H923 H 0.73284 0.65551 0.20359 0.0
H924 H 0.54638 0.63419 0.18667 0.0
H925 H 0.59488 0.61879 0.2193 0.0
H926 H 0.63179 0.62181 0.26554 0.0
C927 C 0.75355 0.58517 0.27103 0.0
C928 C 0.71104 0.64812 0.21754 0.0
C929 C 0.78017 0.56263 0.27128 0.0
C930 C 0.56485 0.65304 0.19212 0.0
C931 C 0.5927 0.6443 0.21094 0.0
C932 C 0.65377 0.62969 0.25215 0.0
C933 C 0.74242 0.59934 0.24097 0.0
C934 C 0.71242 0.62108 0.2397 0.0
C935 C 0.61885 0.66704 0.21565 0.0
C936 C 0.65173 0.65485 0.22786 0.0
H937 H 0.79697 0.56196 0.18813 0.0
H938 H 0.75064 0.60069 0.18761 0.0
H939 H 0.68389 0.59229 0.27525 0.0
H940 H 0.58552 0.73308 0.17385 0.0
H941 H 0.6342 0.71812 0.2075 0.0
C942 C 0.66023 0.52811 0.55468 0.0
C943 C 0.65246 0.56095 0.54575 0.0
C944 C 0.63694 0.50281 0.55038 0.0
C945 C 0.56636 0.48465 0.49554 0.0
H946 H 0.57062 0.39983 0.54124 0.0
C947 C 0.51216 0.36536 0.43743 0.0
C948 C 0.53693 0.34096 0.43428 0.0
C949 C 0.51689 0.39236 0.45892 0.0
C950 C 0.56888 0.42348 0.52843 0.0
H951 H 0.61314 0.59376 0.52877 0.0
H952 H 0.5718 0.54951 0.52277 0.0
H953 H 0.59539 0.44887 0.56692 0.0
H954 H 0.58496 0.32427 0.45195 0.0
H955 H 0.59307 0.37092 0.48988 0.0
H956 H 0.5407 0.45893 0.45661 0.0
C957 C 0.59642 0.5432 0.53158 0.0
C958 C 0.58322 0.45153 0.54301 0.0
C959 C 0.61998 0.56852 0.53528 0.0
C960 C 0.56556 0.34285 0.45413 0.0
C961 C 0.57003 0.3694 0.47594 0.0
C962 C 0.55173 0.45665 0.48113 0.0
C963 C 0.60514 0.50984 0.53751 0.0
C964 C 0.58343 0.48216 0.52608 0.0
C965 C 0.54618 0.39488 0.47793 0.0
C966 C 0.55418 0.42551 0.49676 0.0
H967 H 0.68502 0.52154 0.563 0.0
H968 H 0.64481 0.47749 0.55504 0.0
H969 H 0.56626 0.50764 0.48154 0.0
H970 H 0.48998 0.36436 0.42212 0.0
H971 H 0.49816 0.41171 0.46 0.0
C972 C 0.21359 0.93829 0.26571 0.0
C973 C 0.18734 0.93768 0.24262 0.0
C974 C 0.23681 0.91241 0.26674 0.0
C975 C 0.25468 0.82694 0.23461 0.0
H976 H 0.34577 0.85838 0.23494 0.0
C977 C 0.35959 0.76849 0.15955 0.0
C978 C 0.39269 0.77258 0.16982 0.0
C979 C 0.33354 0.77983 0.17941 0.0
C980 C 0.32062 0.84881 0.2357 0.0
H981 H 0.16389 0.90881 0.20357 0.0
H982 H 0.20469 0.86413 0.20476 0.0
H983 H 0.30122 0.89635 0.24894 0.0
H984 H 0.42474 0.78905 0.20978 0.0
H985 H 0.37904 0.80875 0.24498 0.0
H986 H 0.27426 0.77976 0.2194 0.0
C987 C 0.20722 0.88425 0.22247 0.0
C988 C 0.29493 0.87072 0.2437 0.0
C989 C 0.18397 0.91007 0.22153 0.0
C990 C 0.39932 0.78542 0.20157 0.0
C991 C 0.3732 0.79696 0.22147 0.0
C992 C 0.28045 0.80499 0.2265 0.0
C993 C 0.23435 0.88542 0.24461 0.0
C994 C 0.26156 0.86041 0.24209 0.0
C995 C 0.34014 0.7958 0.20982 0.0
C996 C 0.31363 0.81604 0.2258 0.0
H997 H 0.2166 0.9591 0.28254 0.0
H998 H 0.25709 0.91387 0.28445 0.0
H999 H 0.22929 0.81798 0.23381 0.0
H1000 H 0.35404 0.75891 0.13496 0.0
H1001 H 0.3085 0.77875 0.16947 0.0
C1002 C 0.1565 0.92546 0.49048 0.0
C1003 C 0.17905 0.92518 0.51727 0.0
C1004 C 0.12802 0.94553 0.49147 0.0
C1005 C 0.07524 0.99439 0.55 0.0
H1006 H 0.05834 0.05059 0.47342 0.0
C1007 C 0.04256 0.13539 0.53424 0.0
C1008 C 0.01837 0.13858 0.55913 0.0
C1009 C 0.04956 0.10433 0.52047 0.0
C1010 C 0.06236 0.03473 0.49486 0.0
H1011 H 0.18905 0.945 0.56639 0.0
H1012 H 0.13966 0.97981 0.56822 0.0
H1013 H 0.09714 0.00416 0.46867 0.0
H1014 H 0.98022 0.1128 0.58688 0.0
H1015 H 0.9923 0.05823 0.56262 0.0
H1016 H 0.04238 0.0262 0.57686 0.0
C1017 C 0.1436 0.96439 0.54651 0.0
C1018 C 0.08448 0.00799 0.49212 0.0
C1019 C 0.17216 0.94468 0.54535 0.0
C1020 C 0.99882 0.11093 0.56749 0.0
C1021 C 0.00597 0.07969 0.55386 0.0
C1022 C 0.05316 0.02103 0.55273 0.0
C1023 C 0.12123 0.96526 0.51953 0.0
C1024 C 0.09245 0.98857 0.52016 0.0
C1025 C 0.03273 0.07579 0.53165 0.0
C1026 C 0.04775 0.04253 0.52565 0.0
H1027 H 0.16113 0.9106 0.4685 0.0
H1028 H 0.11135 0.9456 0.47028 0.0
H1029 H 0.0801 0.97934 0.57184 0.0
H1030 H 0.0581 0.15638 0.52766 0.0
H1031 H 0.07046 0.1023 0.50362 0.0
C1032 C 0.80622 0.37873 0.26922 0.0
C1033 C 0.81096 0.39642 0.2395 0.0
C1034 C 0.78212 0.35384 0.27117 0.0
C1035 C 0.7018 0.33486 0.23183 0.0
H1036 H 0.69964 0.27035 0.30346 0.0
C1037 C 0.60249 0.26276 0.32436 0.0
C1038 C 0.5831 0.29104 0.33116 0.0
C1039 C 0.62989 0.26497 0.30294 0.0
C1040 C 0.6998 0.28759 0.28275 0.0
H1041 H 0.79625 0.40012 0.18773 0.0
H1042 H 0.7539 0.35718 0.19116 0.0
H1043 H 0.75286 0.29137 0.28385 0.0
H1044 H 0.5755 0.34298 0.3193 0.0
H1045 H 0.623 0.34707 0.28244 0.0
H1046 H 0.64879 0.33148 0.23107 0.0
C1047 C 0.76857 0.36243 0.2131 0.0
C1048 C 0.73037 0.30003 0.2718 0.0
C1049 C 0.79284 0.38717 0.21111 0.0
C1050 C 0.59022 0.32089 0.31465 0.0
C1051 C 0.61729 0.32306 0.2932 0.0
C1052 C 0.67137 0.32209 0.24243 0.0
C1053 C 0.76206 0.34617 0.24344 0.0
C1054 C 0.73156 0.32553 0.2478 0.0
C1055 C 0.63802 0.29541 0.28771 0.0
C1056 C 0.66988 0.30014 0.26958 0.0
H1057 H 0.82013 0.38509 0.29143 0.0
H1058 H 0.77781 0.34235 0.29513 0.0
H1059 H 0.70139 0.35422 0.21314 0.0
H1060 H 0.59749 0.23945 0.33689 0.0
H1061 H 0.64527 0.2432 0.2991 0.0
C1062 C 0.72424 0.55572 0.72027 0.0
C1063 C 0.70352 0.54856 0.74748 0.0
C1064 C 0.75137 0.57722 0.72398 0.0
C1065 C 0.78751 0.64094 0.78046 0.0
H1066 H 0.8722 0.60826 0.74805 0.0
C1067 C 0.92961 0.64518 0.826 0.0
C1068 C 0.93245 0.67869 0.83532 0.0
C1069 C 0.90325 0.63462 0.80605 0.0
C1070 C 0.84872 0.61789 0.75706 0.0
H1071 H 0.69432 0.55901 0.79957 0.0
H1072 H 0.7416 0.59612 0.80613 0.0
H1073 H 0.82099 0.58009 0.73187 0.0
H1074 H 0.91132 0.72786 0.82929 0.0
H1075 H 0.8651 0.70943 0.79402 0.0
H1076 H 0.8153 0.67743 0.80731 0.0
C1077 C 0.73682 0.58553 0.78182 0.0
C1078 C 0.81933 0.60192 0.74753 0.0
C1079 C 0.70987 0.56399 0.77815 0.0
C1080 C 0.90971 0.70188 0.8224 0.0
C1081 C 0.88313 0.69127 0.80249 0.0
C1082 C 0.81688 0.65689 0.78998 0.0
C1083 C 0.75813 0.59212 0.75491 0.0
C1084 C 0.7885 0.61254 0.76012 0.0
C1085 C 0.87904 0.65734 0.79498 0.0
C1086 C 0.84792 0.6448 0.77936 0.0
H1087 H 0.71985 0.54428 0.69627 0.0
H1088 H 0.76719 0.58198 0.70272 0.0
H1089 H 0.76409 0.65008 0.79009 0.0
H1090 H 0.94699 0.62685 0.83543 0.0
H1091 H 0.90078 0.60829 0.80108 0.0
C1092 C 0.46285 0.83013 0.52391 0.0
C1093 C 0.47381 0.83745 0.55624 0.0
C1094 C 0.45957 0.85541 0.50029 0.0
C1095 C 0.49754 0.93622 0.4827 0.0
H1096 H 0.44528 0.92739 0.40205 0.0
C1097 C 0.54367 0.99682 0.36413 0.0
C1098 C 0.54803 0.97262 0.33936 0.0
C1099 C 0.52188 0.99097 0.39062 0.0
C1100 C 0.45989 0.93037 0.42451 0.0
H1101 H 0.48689 0.877 0.5902 0.0
H1102 H 0.48036 0.92145 0.54908 0.0
H1103 H 0.42895 0.89692 0.45198 0.0
H1104 H 0.53066 0.92532 0.32057 0.0
H1105 H 0.49283 0.91497 0.36653 0.0
H1106 H 0.52917 0.96861 0.45514 0.0
C1107 C 0.47528 0.89611 0.54172 0.0
C1108 C 0.45061 0.91286 0.45308 0.0
C1109 C 0.479 0.87074 0.56522 0.0
C1110 C 0.52777 0.94424 0.33953 0.0
C1111 C 0.50594 0.93847 0.36581 0.0
C1112 C 0.5066 0.95395 0.4543 0.0
C1113 C 0.46683 0.88863 0.50861 0.0
C1114 C 0.47052 0.91401 0.48188 0.0
C1115 C 0.50411 0.96089 0.39257 0.0
C1116 C 0.48896 0.94979 0.42437 0.0
H1117 H 0.45847 0.80466 0.51634 0.0
H1118 H 0.45339 0.84848 0.475 0.0
H1119 H 0.51361 0.93782 0.50428 0.0
H1120 H 0.55911 0.01888 0.36451 0.0
H1121 H 0.52061 0.00893 0.41066 0.0
C1122 C 0.44386 0.31711 0.78807 0.0
C1123 C 0.45526 0.28726 0.8022 0.0
C1124 C 0.42153 0.31673 0.76142 0.0
C1125 C 0.39511 0.26531 0.69116 0.0
H1126 H 0.3273 0.33339 0.68276 0.0
C1127 C 0.29754 0.32921 0.58978 0.0
C1128 C 0.32042 0.33383 0.56389 0.0
C1129 C 0.30753 0.31382 0.61946 0.0
C1130 C 0.34557 0.3137 0.68483 0.0
H1131 H 0.45175 0.23355 0.79987 0.0
H1132 H 0.41272 0.23287 0.75296 0.0
H1133 H 0.35656 0.32645 0.73536 0.0
H1134 H 0.37061 0.32401 0.54735 0.0
H1135 H 0.38807 0.29697 0.59871 0.0
H1136 H 0.38474 0.25322 0.64025 0.0
C1137 C 0.42117 0.25656 0.76255 0.0
C1138 C 0.36267 0.31004 0.71491 0.0
C1139 C 0.44339 0.25696 0.78947 0.0
C1140 C 0.35247 0.32032 0.56691 0.0
C1141 C 0.3624 0.30482 0.59639 0.0
C1142 C 0.37803 0.26902 0.66099 0.0
C1143 C 0.41014 0.28648 0.7481 0.0
C1144 C 0.3884 0.28657 0.71809 0.0
C1145 C 0.34055 0.30279 0.62361 0.0
C1146 C 0.3538 0.294 0.65713 0.0
H1147 H 0.45255 0.34087 0.79729 0.0
H1148 H 0.41399 0.34022 0.75057 0.0
H1149 H 0.41482 0.24701 0.69276 0.0
H1150 H 0.27282 0.33981 0.58809 0.0
H1151 H 0.28999 0.31225 0.63981 0.0
C1152 C 0.99878 0.14332 0.07068 0.0
C1153 C 0.00986 0.17546 0.06282 0.0
C1154 C 0.99998 0.11801 0.04691 0.0
C1155 C 0.02932 0.09836 0.96032 0.0
H1156 H 0.94611 0.04997 0.95626 0.0
C1157 C 0.95917 0.07212 0.84084 0.0
C1158 C 0.93819 0.04445 0.83834 0.0
C1159 C 0.97849 0.07695 0.86928 0.0
C1160 C 0.96991 0.06253 0.95725 0.0
H1161 H 0.03243 0.20593 0.02457 0.0
H1162 H 0.03327 0.1624 0.98277 0.0
H1163 H 0.96042 0.08016 0.00629 0.0
H1164 H 0.92215 0.99904 0.86226 0.0
H1165 H 0.95592 0.00755 0.91253 0.0
H1166 H 0.03741 0.0824 0.91013 0.0
C1167 C 0.02443 0.1562 0.00743 0.0
C1168 C 0.97822 0.07996 0.98612 0.0
C1169 C 0.02364 0.18139 0.03132 0.0
C1170 C 0.93847 0.0204 0.86366 0.0
C1171 C 0.95758 0.0254 0.8924 0.0
C1172 C 0.02085 0.08114 0.93133 0.0
C1173 C 0.0118 0.12434 0.01461 0.0
C1174 C 0.00723 0.09952 0.98742 0.0
C1175 C 0.97679 0.05442 0.89601 0.0
C1176 C 0.99027 0.06443 0.92893 0.0
H1177 H 0.98836 0.13795 0.09492 0.0
H1178 H 0.99063 0.09377 0.05353 0.0
H1179 H 0.05245 0.11212 0.96083 0.0
H1180 H 0.95901 0.09107 0.82166 0.0
H1181 H 0.99263 0.09977 0.87138 0.0
C1182 C 0.11773 0.74269 0.29297 0.0
C1183 C 0.10311 0.77366 0.2997 0.0
C1184 C 0.13859 0.73867 0.26555 0.0
C1185 C 0.14869 0.77252 0.1823 0.0
H1186 H 0.2177 0.70531 0.17788 0.0
C1187 C 0.22332 0.68358 0.08114 0.0
C1188 C 0.1951 0.6726 0.06367 0.0
C1189 C 0.21993 0.7055 0.10802 0.0
C1190 C 0.19903 0.72471 0.17858 0.0
H1191 H 0.1006 0.82526 0.28431 0.0
H1192 H 0.1372 0.81823 0.23621 0.0
H1193 H 0.19987 0.72636 0.23185 0.0
H1194 H 0.14171 0.67762 0.05881 0.0
H1195 H 0.13567 0.71559 0.10545 0.0
H1196 H 0.14701 0.77002 0.12913 0.0
C1197 C 0.1322 0.79698 0.252 0.0
C1198 C 0.18856 0.73652 0.20956 0.0
C1199 C 0.11133 0.80103 0.27957 0.0
C1200 C 0.16382 0.68556 0.07205 0.0
C1201 C 0.16045 0.70758 0.0986 0.0
C1202 C 0.15918 0.76074 0.15134 0.0
C1203 C 0.1453 0.76552 0.24415 0.0
C1204 C 0.16215 0.75935 0.21181 0.0
C1205 C 0.1883 0.71707 0.11756 0.0
C1206 C 0.18331 0.73552 0.14922 0.0
H1207 H 0.11199 0.72117 0.30811 0.0
H1208 H 0.14786 0.71399 0.26007 0.0
H1209 H 0.1283 0.7901 0.18306 0.0
H1210 H 0.24772 0.67385 0.07517 0.0
H1211 H 0.24187 0.71254 0.122 0.0
C1212 C 0.49371 0.21282 0.97043 0.0
C1213 C 0.52352 0.22 0.95368 0.0
C1214 C 0.49354 0.19079 0.99748 0.0
C1215 C 0.54377 0.12497 0.03884 0.0
H1216 H 0.50107 0.1553 0.11973 0.0
C1217 C 0.56829 0.0581 0.16267 0.0
C1218 C 0.57885 0.08002 0.18771 0.0
C1219 C 0.55188 0.07029 0.13437 0.0
C1220 C 0.51291 0.14632 0.09728 0.0
H1221 H 0.57629 0.20911 0.95154 0.0
H1222 H 0.57605 0.17099 0.9985 0.0
H1223 H 0.49231 0.18573 0.06787 0.0
H1224 H 0.57816 0.13118 0.20435 0.0
H1225 H 0.54973 0.15247 0.15528 0.0
H1226 H 0.56596 0.08677 0.06849 0.0
C1227 C 0.55272 0.18202 0.99071 0.0
C1228 C 0.50766 0.1636 0.06749 0.0
C1229 C 0.55292 0.20412 0.96394 0.0
C1230 C 0.57037 0.1138 0.18528 0.0
C1231 C 0.55387 0.12593 0.15721 0.0
C1232 C 0.54898 0.10768 0.06858 0.0
C1233 C 0.52313 0.1753 0.00804 0.0
C1234 C 0.52399 0.1538 0.03818 0.0
C1235 C 0.54557 0.10456 0.13081 0.0
C1236 C 0.53453 0.11882 0.0984 0.0
H1237 H 0.47065 0.22466 0.96302 0.0
H1238 H 0.47032 0.186 0.01021 0.0
H1239 H 0.55627 0.11646 0.01656 0.0
H1240 H 0.57464 0.03196 0.16392 0.0
H1241 H 0.54543 0.05312 0.11465 0.0
C1242 C 0.09029 0.21693 0.20102 0.0
C1243 C 0.08104 0.24705 0.1859 0.0
C1244 C 0.1184 0.2153 0.22161 0.0
C1245 C 0.19055 0.26678 0.25256 0.0
H1246 H 0.17587 0.21699 0.33369 0.0
C1247 C 0.20402 0.29435 0.39666 0.0
C1248 C 0.23337 0.31306 0.39614 0.0
C1249 C 0.19609 0.2734 0.37022 0.0
C1250 C 0.18052 0.23099 0.31115 0.0
H1251 H 0.09442 0.29876 0.17948 0.0
H1252 H 0.14187 0.29669 0.2166 0.0
H1253 H 0.14064 0.20693 0.28581 0.0
H1254 H 0.2791 0.3224 0.3695 0.0
H1255 H 0.26579 0.28488 0.3233 0.0
H1256 H 0.22831 0.29311 0.2789 0.0
C1257 C 0.12855 0.2738 0.21191 0.0
C1258 C 0.16049 0.2249 0.28334 0.0
C1259 C 0.10095 0.2752 0.19084 0.0
C1260 C 0.25638 0.30796 0.37045 0.0
C1261 C 0.2485 0.28682 0.34385 0.0
C1262 C 0.21023 0.27325 0.28049 0.0
C1263 C 0.13744 0.24397 0.22811 0.0
C1264 C 0.16396 0.24411 0.25426 0.0
C1265 C 0.21736 0.27076 0.34254 0.0
C1266 C 0.20412 0.2568 0.31079 0.0
H1267 H 0.07564 0.19467 0.19716 0.0
H1268 H 0.12475 0.19169 0.23291 0.0
H1269 H 0.19479 0.28129 0.23033 0.0
H1270 H 0.18582 0.29818 0.41616 0.0
H1271 H 0.17177 0.26188 0.37023 0.0
C1272 C 1.0002 0.88214 0.43657 0.0
C1273 C 0.02918 0.86331 0.43172 0.0
C1274 C 0.99839 0.9053 0.46235 0.0
C1275 C 0.03385 0.91602 0.54558 0.0
H1276 H 0.96859 0.98693 0.54825 0.0
C1277 C 0.94886 0.93489 0.65591 0.0
C1278 C 0.93566 0.96625 0.66356 0.0
C1279 C 0.97049 0.93096 0.62916 0.0
C1280 C 0.98745 0.96769 0.54802 0.0
H1281 H 0.07997 0.85584 0.44828 0.0
H1282 H 0.07678 0.89605 0.49354 0.0
H1283 H 0.98904 0.96716 0.49478 0.0
H1284 H 0.93623 0.0185 0.65047 0.0
H1285 H 0.97446 0.01166 0.60344 0.0
H1286 H 0.03202 0.91628 0.59872 0.0
C1287 C 0.05532 0.89287 0.47759 0.0
C1288 C 0.99888 0.95606 0.51729 0.0
C1289 C 0.05717 0.86981 0.45162 0.0
C1290 C 0.94608 0.99403 0.64507 0.0
C1291 C 0.96774 0.99007 0.61805 0.0
C1292 C 0.02273 0.92789 0.57622 0.0
C1293 C 0.02552 0.91009 0.48403 0.0
C1294 C 0.02071 0.92873 0.5157 0.0
C1295 C 0.97955 0.95831 0.60932 0.0
C1296 C 0.99795 0.95249 0.57777 0.0
H1297 H 0.9783 0.87788 0.42142 0.0
H1298 H 0.97486 0.91768 0.46659 0.0
H1299 H 0.05078 0.89508 0.54556 0.0
H1300 H 0.94152 0.91312 0.66997 0.0
H1301 H 0.97863 0.90605 0.62299 0.0
C1302 C 0.39002 0.74661 0.68476 0.0
C1303 C 0.41743 0.76791 0.68811 0.0
C1304 C 0.36444 0.74715 0.70818 0.0
C1305 C 0.3076 0.75764 0.75587 0.0
H1306 H 0.34097 0.75236 0.84616 0.0
C1307 C 0.2728 0.70761 0.8968 0.0
C1308 C 0.26491 0.67498 0.8874 0.0
C1309 C 0.28087 0.73124 0.87256 0.0
C1310 C 0.33086 0.75467 0.82126 0.0
H1311 H 0.43857 0.80799 0.71732 0.0
H1312 H 0.39344 0.80929 0.75803 0.0
H1313 H 0.37736 0.7716 0.80213 0.0
H1314 H 0.25582 0.64206 0.84583 0.0
H1315 H 0.26943 0.68323 0.80346 0.0
H1316 H 0.26177 0.73818 0.7749 0.0
C1317 C 0.3921 0.79172 0.73766 0.0
C1318 C 0.35182 0.7657 0.79592 0.0
C1319 C 0.41792 0.79097 0.71438 0.0
C1320 C 0.26188 0.66715 0.85353 0.0
C1321 C 0.2695 0.69082 0.82933 0.0
C1322 C 0.28669 0.74626 0.78117 0.0
C1323 C 0.36543 0.76926 0.73525 0.0
C1324 C 0.34094 0.76568 0.76268 0.0
C1325 C 0.28085 0.72254 0.83866 0.0
C1326 C 0.29866 0.7432 0.81387 0.0
H1327 H 0.3889 0.72862 0.66475 0.0
H1328 H 0.34481 0.72894 0.70604 0.0
H1329 H 0.29822 0.75874 0.73071 0.0
H1330 H 0.27536 0.71405 0.92285 0.0
H1331 H 0.28928 0.75558 0.8804 0.0
C1332 C 0.54735 0.51019 0.83205 0.0
C1333 C 0.55038 0.48234 0.81126 0.0
C1334 C 0.52084 0.5128 0.85426 0.0
C1335 C 0.46811 0.50869 0.90758 0.0
H1336 H 0.3822 0.49519 0.86578 0.0
C1337 C 0.35502 0.58958 0.93348 0.0
C1338 C 0.3229 0.57608 0.93222 0.0
C1339 C 0.38274 0.56961 0.92765 0.0
C1340 C 0.40588 0.49832 0.87826 0.0
H1341 H 0.52885 0.43464 0.7984 0.0
H1342 H 0.48217 0.43933 0.8372 0.0
H1343 H 0.43225 0.47497 0.83845 0.0
H1344 H 0.2943 0.53107 0.9254 0.0
H1345 H 0.34311 0.49583 0.9145 0.0
H1346 H 0.44177 0.53378 0.94646 0.0
C1347 C 0.50029 0.45922 0.83614 0.0
C1348 C 0.43464 0.48673 0.86257 0.0
C1349 C 0.527 0.45652 0.81399 0.0
C1350 C 0.31893 0.5419 0.92655 0.0
C1351 C 0.34677 0.52187 0.92022 0.0
C1352 C 0.43937 0.52034 0.92323 0.0
C1353 C 0.49663 0.48767 0.85614 0.0
C1354 C 0.46617 0.49311 0.87633 0.0
C1355 C 0.37892 0.53573 0.92002 0.0
C1356 C 0.40809 0.51655 0.908 0.0
H1357 H 0.56506 0.53043 0.83064 0.0
H1358 H 0.51855 0.53528 0.8689 0.0
H1359 H 0.49201 0.51331 0.91918 0.0
H1360 H 0.35858 0.61592 0.93785 0.0
H1361 H 0.40705 0.58119 0.92722 0.0
C1362 C 0.78381 0.27091 0.08842 0.0
C1363 C 0.776 0.30433 0.09472 0.0
C1364 C 0.78355 0.24758 0.1142 0.0
C1365 C 0.74233 0.23439 0.19439 0.0
H1366 H 0.79351 0.15269 0.19294 0.0
C1367 C 0.6916 0.12225 0.26209 0.0
C1368 C 0.6886 0.0952 0.24031 0.0
C1369 C 0.71434 0.1477 0.25528 0.0
C1370 C 0.7791 0.17543 0.19384 0.0
H1371 H 0.76404 0.34002 0.13321 0.0
H1372 H 0.76404 0.29919 0.17842 0.0
H1373 H 0.81086 0.19965 0.15863 0.0
H1374 H 0.70842 0.07172 0.19628 0.0
H1375 H 0.74783 0.1158 0.18412 0.0
H1376 H 0.70962 0.20994 0.22811 0.0
C1377 C 0.76968 0.291 0.15344 0.0
C1378 C 0.78897 0.2023 0.17407 0.0
C1379 C 0.76972 0.31432 0.1276 0.0
C1380 C 0.71078 0.09218 0.21365 0.0
C1381 C 0.73337 0.11757 0.20675 0.0
C1382 C 0.73245 0.20758 0.21407 0.0
C1383 C 0.77566 0.2572 0.14692 0.0
C1384 C 0.76982 0.23155 0.17298 0.0
C1385 C 0.73402 0.14656 0.22634 0.0
C1386 C 0.74981 0.17721 0.21286 0.0
H1387 H 0.78888 0.26249 0.06334 0.0
H1388 H 0.78785 0.22173 0.10808 0.0
H1389 H 0.72682 0.25642 0.19418 0.0
H1390 H 0.67437 0.12518 0.28258 0.0
H1391 H 0.71467 0.16939 0.27123 0.0
C1392 C 0.95467 0.46129 0.32872 0.0
C1393 C 0.94555 0.48955 0.31034 0.0
C1394 C 0.98263 0.4618 0.34931 0.0
C1395 C 0.06312 0.5037 0.357 0.0
H1396 H 0.06998 0.44676 0.43458 0.0
C1397 C 0.16653 0.4352 0.44907 0.0
C1398 C 0.18748 0.42356 0.4237 0.0
C1399 C 0.1383 0.45412 0.44119 0.0
C1400 C 0.06856 0.46344 0.41346 0.0
H1401 H 0.95767 0.54108 0.30027 0.0
H1402 H 0.00662 0.54209 0.33658 0.0
H1403 H 0.01554 0.45948 0.41142 0.0
H1404 H 0.19725 0.42499 0.37075 0.0
H1405 H 0.14817 0.45735 0.35691 0.0
H1406 H 0.1162 0.50721 0.35874 0.0
C1407 C 0.9923 0.51938 0.33472 0.0
C1408 C 0.03729 0.47036 0.39988 0.0
C1409 C 0.9642 0.51885 0.31406 0.0
C1410 C 0.18128 0.4334 0.39075 0.0
C1411 C 0.15325 0.45226 0.38289 0.0
C1412 C 0.09439 0.49696 0.37073 0.0
C1413 C 0.0022 0.49063 0.35212 0.0
C1414 C 0.03431 0.48932 0.3706 0.0
C1415 C 0.13068 0.4618 0.40783 0.0
C1416 C 0.09761 0.47551 0.39821 0.0
H1417 H 0.94079 0.43833 0.32642 0.0
H1418 H 0.98973 0.43901 0.36182 0.0
H1419 H 0.06183 0.51842 0.33447 0.0
H1420 H 0.17077 0.42793 0.47469 0.0
H1421 H 0.12169 0.46148 0.46105 0.0
C1422 C 0.76028 0.69822 0.63378 0.0
C1423 C 0.7304 0.69178 0.61691 0.0
C1424 C 0.76255 0.7247 0.65602 0.0
C1425 C 0.76235 0.78013 0.70608 0.0
H1426 H 0.72881 0.86003 0.66373 0.0
C1427 C 0.81801 0.90747 0.73809 0.0
C1428 C 0.82824 0.9247 0.70943 0.0
C1429 C 0.79532 0.88118 0.73562 0.0
C1430 C 0.73815 0.83797 0.67609 0.0
H1431 H 0.6786 0.70611 0.61223 0.0
H1432 H 0.68254 0.75258 0.6513 0.0
H1433 H 0.70926 0.80602 0.64503 0.0
H1434 H 0.8208 0.9298 0.65628 0.0
H1435 H 0.78202 0.88383 0.65176 0.0
H1436 H 0.79334 0.81199 0.7352 0.0
C1437 C 0.70435 0.73738 0.64694 0.0
C1438 C 0.72664 0.80694 0.66562 0.0
C1439 C 0.70207 0.71076 0.62463 0.0
C1440 C 0.81373 0.91663 0.6787 0.0
C1441 C 0.7911 0.89052 0.67624 0.0
C1442 C 0.77403 0.81117 0.7164 0.0
C1443 C 0.73497 0.74539 0.66193 0.0
C1444 C 0.73994 0.77761 0.67929 0.0
C1445 C 0.78233 0.8718 0.70448 0.0
C1446 C 0.7634 0.84033 0.70023 0.0
H1447 H 0.78245 0.68385 0.62855 0.0
H1448 H 0.78663 0.73024 0.66676 0.0
H1449 H 0.77247 0.75801 0.71768 0.0
H1450 H 0.82882 0.91317 0.76212 0.0
H1451 H 0.78883 0.86748 0.75789 0.0
C1452 C 0.55722 0.46966 0.63564 0.0
C1453 C 0.56776 0.49696 0.65461 0.0
C1454 C 0.53466 0.47391 0.60961 0.0
C1455 C 0.46636 0.52831 0.58511 0.0
H1456 H 0.46253 0.46508 0.51253 0.0
C1457 C 0.37005 0.45244 0.49272 0.0
C1458 C 0.34777 0.44416 0.51823 0.0
C1459 C 0.39658 0.47406 0.49914 0.0
C1460 C 0.46323 0.48373 0.53193 0.0
H1461 H 0.56457 0.55049 0.6599 0.0
H1462 H 0.52513 0.55803 0.61395 0.0
H1463 H 0.51388 0.47266 0.54274 0.0
H1464 H 0.33284 0.45491 0.56877 0.0
H1465 H 0.37893 0.49191 0.58026 0.0
H1466 H 0.41495 0.53817 0.57529 0.0
C1467 C 0.53401 0.53324 0.61961 0.0
C1468 C 0.49286 0.48787 0.54949 0.0
C1469 C 0.55661 0.52893 0.64586 0.0
C1470 C 0.34996 0.46078 0.54881 0.0
C1471 C 0.37636 0.48225 0.55525 0.0
C1472 C 0.43665 0.52432 0.56741 0.0
C1473 C 0.52221 0.50564 0.60165 0.0
C1474 C 0.49428 0.5087 0.57749 0.0
C1475 C 0.40119 0.48751 0.53118 0.0
C1476 C 0.43419 0.5004 0.54198 0.0
H1477 H 0.56549 0.44472 0.6416 0.0
H1478 H 0.52578 0.45195 0.59682 0.0
H1479 H 0.46652 0.54474 0.60644 0.0
H1480 H 0.36874 0.43996 0.46887 0.0
H1481 H 0.41483 0.47816 0.47983 0.0
C1482 C 0.78892 0.30177 0.91529 0.0
C1483 C 0.75964 0.3095 0.93256 0.0
C1484 C 0.78829 0.2797 0.88858 0.0
C1485 C 0.74095 0.20818 0.85895 0.0
H1486 H 0.80999 0.21008 0.79175 0.0
C1487 C 0.82594 0.11564 0.77038 0.0
C1488 C 0.83312 0.09269 0.79576 0.0
C1489 C 0.80495 0.14274 0.77668 0.0
C1490 C 0.78989 0.20922 0.80964 0.0
H1491 H 0.70634 0.30161 0.93433 0.0
H1492 H 0.70515 0.26294 0.8873 0.0
H1493 H 0.79596 0.2606 0.82168 0.0
H1494 H 0.82212 0.07819 0.8464 0.0
H1495 H 0.78589 0.1251 0.85756 0.0
H1496 H 0.73585 0.15641 0.84792 0.0
C1497 C 0.72871 0.27367 0.89476 0.0
C1498 C 0.7821 0.23821 0.82707 0.0
C1499 C 0.72938 0.29579 0.92167 0.0
C1500 C 0.81707 0.09573 0.82653 0.0
C1501 C 0.796 0.12248 0.83274 0.0
C1502 C 0.74859 0.17921 0.84139 0.0
C1503 C 0.7583 0.26486 0.8783 0.0
C1504 C 0.75913 0.2375 0.85341 0.0
C1505 C 0.79061 0.14702 0.80834 0.0
C1506 C 0.77473 0.17892 0.81818 0.0
H1507 H 0.81261 0.31204 0.92298 0.0
H1508 H 0.81171 0.2731 0.87708 0.0
H1509 H 0.7229 0.20666 0.87886 0.0
H1510 H 0.83811 0.11373 0.74643 0.0
H1511 H 0.80113 0.1611 0.75731 0.0
C1512 C 0.93964 0.50826 0.13745 0.0
C1513 C 0.93437 0.47927 0.1561 0.0
C1514 C 0.96398 0.50912 0.11278 0.0
C1515 C 0.04306 0.46787 0.09139 0.0
H1516 H 0.03994 0.53301 0.02034 0.0
C1517 C 0.13361 0.55234 1.0002 0.0
C1518 C 0.15574 0.56199 0.02548 0.0
C1519 C 0.10754 0.53035 0.00722 0.0
C1520 C 0.04125 0.514 0.0394 0.0
H1521 H 0.94904 0.42779 0.16229 0.0
H1522 H 0.99164 0.42921 0.11936 0.0
H1523 H 0.98918 0.51739 0.04876 0.0
H1524 H 0.17013 0.55412 0.07679 0.0
H1525 H 0.12489 0.5163 0.08925 0.0
H1526 H 0.09547 0.4652 0.08272 0.0
C1527 C 0.9772 0.45144 0.1238 0.0
C1528 C 0.01205 0.50537 0.05601 0.0
C1529 C 0.95274 0.45058 0.14846 0.0
C1530 C 0.15318 0.54722 0.05697 0.0
C1531 C 0.12737 0.52524 0.06395 0.0
C1532 C 0.07227 0.47631 0.07463 0.0
C1533 C 0.98365 0.48091 0.10608 0.0
C1534 C 0.01284 0.48367 0.08342 0.0
C1535 C 0.10341 0.51756 0.03959 0.0
C1536 C 0.072 0.50097 0.04982 0.0
H1537 H 0.92571 0.53075 0.14267 0.0
H1538 H 0.96844 0.5325 0.10025 0.0
H1539 H 0.04484 0.4509 0.11222 0.0
H1540 H 0.13514 0.56346 0.97569 0.0
H1541 H 0.08971 0.52465 0.98781 0.0
C1542 C 0.74659 0.72689 0.45979 0.0
C1543 C 0.73123 0.69576 0.45596 0.0
C1544 C 0.74193 0.75194 0.43605 0.0
C1545 C 0.68089 0.77775 0.37261 0.0
H1546 H 0.74677 0.84485 0.35148 0.0
C1547 C 0.64425 0.88858 0.29199 0.0
C1548 C 0.65306 0.9196 0.30521 0.0
C1549 C 0.65983 0.85963 0.3033 0.0
C1550 C 0.72811 0.8263 0.35714 0.0
H1551 H 0.70044 0.66585 0.42335 0.0
H1552 H 0.69279 0.70928 0.38162 0.0
H1553 H 0.76263 0.79654 0.38496 0.0
H1554 H 0.6859 0.9452 0.33922 0.0
H1555 H 0.71312 0.89461 0.35936 0.0
H1556 H 0.64614 0.80769 0.34583 0.0
C1557 C 0.70785 0.71466 0.40332 0.0
C1558 C 0.73716 0.79864 0.37638 0.0
C1559 C 0.71238 0.68968 0.42714 0.0
C1560 C 0.67922 0.92153 0.32824 0.0
C1561 C 0.69469 0.89251 0.33979 0.0
C1562 C 0.67189 0.80526 0.35342 0.0
C1563 C 0.72189 0.74639 0.40785 0.0
C1564 C 0.71351 0.77425 0.38478 0.0
C1565 C 0.68414 0.86109 0.3285 0.0
C1566 C 0.69521 0.83017 0.34579 0.0
H1567 H 0.76125 0.73234 0.48175 0.0
H1568 H 0.75285 0.77612 0.4406 0.0
H1569 H 0.6618 0.75992 0.37908 0.0
H1570 H 0.62383 0.88657 0.27448 0.0
H1571 H 0.65156 0.83593 0.29357 0.0
C1572 C 0.82605 0.54858 0.55229 0.0
C1573 C 0.80778 0.55832 0.5241 0.0
C1574 C 0.84684 0.52076 0.5512 0.0
C1575 C 0.85592 0.44181 0.5058 0.0
H1576 H 0.93247 0.43256 0.56384 0.0
C1577 C 0.9506 0.33538 0.56594 0.0
C1578 C 0.92604 0.31218 0.5747 0.0
C1579 C 0.94174 0.36529 0.55028 0.0
C1580 C 0.91161 0.43471 0.5469 0.0
H1581 H 0.79836 0.54759 0.4721 0.0
H1582 H 0.83519 0.49924 0.46997 0.0
H1583 H 0.90844 0.48728 0.55441 0.0
H1584 H 0.87355 0.30065 0.57156 0.0
H1585 H 0.85801 0.35248 0.54474 0.0
H1586 H 0.85895 0.38921 0.49847 0.0
C1587 C 0.83295 0.51275 0.49315 0.0
C1588 C 0.89748 0.46612 0.54187 0.0
C1589 C 0.81201 0.54059 0.49429 0.0
C1590 C 0.89295 0.31822 0.56522 0.0
C1591 C 0.88411 0.34792 0.5496 0.0
C1592 C 0.87018 0.41045 0.51063 0.0
C1593 C 0.85004 0.50201 0.52183 0.0
C1594 C 0.86868 0.4699 0.52228 0.0
C1595 C 0.90818 0.3724 0.54298 0.0
C1596 C 0.89741 0.40628 0.53228 0.0
H1597 H 0.82332 0.56168 0.57567 0.0
H1598 H 0.85911 0.51309 0.57395 0.0
H1599 H 0.83373 0.44361 0.4906 0.0
H1600 H 0.97628 0.33136 0.57308 0.0
H1601 H 0.96098 0.38337 0.54509 0.0
C1602 C 0.37264 0.93503 0.52799 0.0
C1603 C 0.34967 0.93032 0.50196 0.0
C1604 C 0.39789 0.95884 0.52509 0.0
C1605 C 0.44122 0.01276 0.46415 0.0
H1606 H 0.43802 0.08023 0.53285 0.0
C1607 C 0.43765 0.15706 0.45901 0.0
C1608 C 0.46456 0.16373 0.43791 0.0
C1609 C 0.43622 0.12719 0.47662 0.0
C1610 C 0.43987 0.06124 0.51384 0.0
H1611 H 0.33637 0.94515 0.45183 0.0
H1612 H 0.38016 0.98638 0.4467 0.0
H1613 H 0.41174 0.02622 0.54246 0.0
H1614 H 0.51219 0.14596 0.4203 0.0
H1615 H 0.50938 0.09308 0.45063 0.0
H1616 H 0.46756 0.04816 0.43473 0.0
C1617 C 0.37883 0.97184 0.46936 0.0
C1618 C 0.42494 0.03031 0.51935 0.0
C1619 C 0.35351 0.94842 0.47239 0.0
C1620 C 0.4913 0.14133 0.43665 0.0
C1621 C 0.48965 0.11114 0.45389 0.0
C1622 C 0.45674 0.04327 0.45892 0.0
C1623 C 0.4008 0.97791 0.49593 0.0
C1624 C 0.42406 0.00641 0.49386 0.0
C1625 C 0.46142 0.10324 0.47292 0.0
C1626 C 0.45464 0.06846 0.48299 0.0
H1627 H 0.3704 0.92118 0.551 0.0
H1628 H 0.41466 0.96286 0.54584 0.0
H1629 H 0.44056 0.99508 0.44396 0.0
H1630 H 0.41674 0.17403 0.46019 0.0
H1631 H 0.41398 0.12167 0.49074 0.0
C1632 C 0.28488 0.07102 0.75736 0.0
C1633 C 0.30743 0.06773 0.73089 0.0
C1634 C 0.25903 0.09434 0.75565 0.0
C1635 C 0.19377 0.1241 0.73079 0.0
H1636 H 0.20244 0.20766 0.68342 0.0
C1637 C 0.11192 0.19893 0.63223 0.0
C1638 C 0.08043 0.19733 0.64712 0.0
C1639 C 0.14055 0.19279 0.65089 0.0
C1640 C 0.19962 0.18454 0.69694 0.0
H1641 H 0.32166 0.08733 0.68271 0.0
H1642 H 0.2767 0.12753 0.67955 0.0
H1643 H 0.25228 0.17797 0.70155 0.0
H1644 H 0.05408 0.19024 0.69349 0.0
H1645 H 0.10438 0.1793 0.7264 0.0
H1646 H 0.14122 0.12983 0.72482 0.0
C1647 C 0.27896 0.11251 0.70181 0.0
C1648 C 0.22814 0.16748 0.70725 0.0
C1649 C 0.30461 0.0892 0.70347 0.0
C1650 C 0.07816 0.1918 0.68154 0.0
C1651 C 0.10687 0.18528 0.70024 0.0
C1652 C 0.16525 0.1412 0.72056 0.0
C1653 C 0.2554 0.11491 0.72752 0.0
C1654 C 0.22557 0.13637 0.72305 0.0
C1655 C 0.13828 0.18458 0.68483 0.0
C1656 C 0.1679 0.17092 0.70232 0.0
H1657 H 0.28654 0.05487 0.77888 0.0
H1658 H 0.24146 0.09577 0.776 0.0
H1659 H 0.19083 0.10011 0.74267 0.0
H1660 H 0.11422 0.20312 0.60569 0.0
H1661 H 0.16424 0.19213 0.63813 0.0
C1662 C 0.11603 0.06872 0.98934 0.0
C1663 C 0.13385 0.06981 0.01939 0.0
C1664 C 0.09211 0.04415 0.98397 0.0
C1665 C 0.039 0.99159 0.97737 0.0
H1666 H 0.07378 0.90613 0.00526 0.0
C1667 C 0.02725 0.84045 0.94975 0.0
C1668 C 0.02877 0.84222 0.91487 0.0
C1669 C 0.0281 0.86952 0.96888 0.0
C1670 C 0.063 0.92969 0.9979 0.0
H1671 H 0.1381 0.04844 0.06873 0.0
H1672 H 0.09552 0.00614 0.05976 0.0
H1673 H 0.09706 0.95648 0.02845 0.0
H1674 H 0.02925 0.8757 0.87261 0.0
H1675 H 0.03121 0.92621 0.90577 0.0
H1676 H 0.00609 0.96447 0.94539 0.0
C1677 C 0.10077 0.02355 0.03991 0.0
C1678 C 0.07643 0.95876 0.01126 0.0
C1679 C 0.12508 0.04787 0.04512 0.0
C1680 C 0.02857 0.87359 0.89948 0.0
C1681 C 0.02928 0.90258 0.91854 0.0
C1682 C 0.02554 0.96246 0.96397 0.0
C1683 C 0.08508 0.02043 0.00872 0.0
C1684 C 0.0656 0.99012 1.00013 0.0
C1685 C 0.03028 0.90088 0.95347 0.0
C1686 C 0.03842 0.9312 0.97304 0.0
H1687 H 0.12211 0.0854 0.96908 0.0
H1688 H 0.08095 0.0424 0.9595 0.0
H1689 H 0.02943 0.01529 0.96895 0.0
H1690 H 0.02735 0.8166 0.96227 0.0
H1691 H 0.02844 0.86739 0.99575 0.0
C1692 C 0.69244 0.37901 0.77551 0.0
C1693 C 0.68176 0.39235 0.74496 0.0
C1694 C 0.71452 0.35204 0.77626 0.0
C1695 C 0.75493 0.28859 0.7212 0.0
H1696 H 0.83082 0.30163 0.77916 0.0
C1697 C 0.89851 0.28356 0.70129 0.0
C1698 C 0.90005 0.25557 0.68062 0.0
C1699 C 0.87148 0.28822 0.72242 0.0
C1700 C 0.8096 0.29724 0.76312 0.0
H1701 H 0.68439 0.3869 0.69138 0.0
H1702 H 0.72313 0.34093 0.69251 0.0
H1703 H 0.78035 0.33376 0.78829 0.0
H1704 H 0.877 0.20859 0.66835 0.0
H1705 H 0.82963 0.21636 0.70589 0.0
H1706 H 0.78475 0.254 0.69448 0.0
C1707 C 0.71431 0.35056 0.71604 0.0
C1708 C 0.78048 0.31551 0.7685 0.0
C1709 C 0.69228 0.3773 0.71532 0.0
C1710 C 0.87625 0.23036 0.6842 0.0
C1711 C 0.84905 0.235 0.70543 0.0
C1712 C 0.78382 0.27017 0.71599 0.0
C1713 C 0.72631 0.33796 0.74647 0.0
C1714 C 0.75343 0.3127 0.74643 0.0
C1715 C 0.84532 0.26501 0.7231 0.0
C1716 C 0.81221 0.27569 0.73569 0.0
H1717 H 0.68443 0.38992 0.79878 0.0
H1718 H 0.72283 0.34266 0.80013 0.0
H1719 H 0.73456 0.28553 0.7039 0.0
H1720 H 0.91666 0.30331 0.69881 0.0
H1721 H 0.86956 0.31171 0.73542 0.0
C1722 C 0.67034 0.44598 0.98049 0.0
C1723 C 0.67952 0.43049 0.01044 0.0
C1724 C 0.64333 0.4679 0.97944 0.0
C1725 C 0.57384 0.50268 0.03192 0.0
H1726 H 0.58946 0.58123 0.97839 0.0
C1727 C 0.55668 0.64874 0.04964 0.0
C1728 C 0.52611 0.64903 0.06631 0.0
C1729 C 0.56655 0.62085 0.0316 0.0
C1730 C 0.58453 0.55941 0.99339 0.0
H1731 H 0.66708 0.42475 0.0625 0.0
H1732 H 0.62149 0.46427 0.06141 0.0
H1733 H 0.62428 0.53272 0.97078 0.0
H1734 H 0.48059 0.6219 0.0752 0.0
H1735 H 0.49737 0.57309 0.04278 0.0
H1736 H 0.53615 0.53059 0.0567 0.0
C1737 C 0.63405 0.45888 0.03825 0.0
C1738 C 0.60433 0.53123 0.98874 0.0
C1739 C 0.66054 0.43639 0.03906 0.0
C1740 C 0.50415 0.62228 0.06216 0.0
C1741 C 0.514 0.59422 0.04401 0.0
C1742 C 0.55435 0.53102 0.03688 0.0
C1743 C 0.62541 0.47553 0.00856 0.0
C1744 C 0.60019 0.50288 0.00892 0.0
C1745 C 0.54605 0.59253 0.02996 0.0
C1746 C 0.56046 0.56028 0.0187 0.0
H1747 H 0.68425 0.44139 0.9579 0.0
H1748 H 0.63701 0.47934 0.95589 0.0
H1749 H 0.56922 0.4812 0.0474 0.0
H1750 H 0.57414 0.66899 0.05294 0.0
H1751 H 0.59151 0.62055 0.02157 0.0
C1752 C 0.28012 0.91012 0.71193 0.0
C1753 C 0.31255 0.90657 0.72436 0.0
C1754 C 0.25651 0.88524 0.71707 0.0
C1755 C 0.2387 0.81795 0.77682 0.0
H1756 H 0.15963 0.80996 0.72207 0.0
C1757 C 0.11864 0.76044 0.82875 0.0
C1758 C 0.09231 0.78333 0.8265 0.0
C1759 C 0.14714 0.76454 0.80916 0.0
C1760 C 0.1817 0.81162 0.73748 0.0
H1761 H 0.34651 0.87309 0.74965 0.0
H1762 H 0.30543 0.8294 0.75821 0.0
H1763 H 0.20869 0.83753 0.69981 0.0
H1764 H 0.07384 0.82681 0.80068 0.0
H1765 H 0.12318 0.83386 0.76633 0.0
H1766 H 0.21115 0.79301 0.81486 0.0
C1767 C 0.29793 0.85165 0.7451 0.0
C1768 C 0.20977 0.82765 0.72486 0.0
C1769 C 0.32154 0.87669 0.74011 0.0
C1770 C 0.0939 0.80894 0.80288 0.0
C1771 C 0.12205 0.81277 0.78305 0.0
C1772 C 0.21067 0.8017 0.78934 0.0
C1773 C 0.26479 0.85603 0.73458 0.0
C1774 C 0.23809 0.83247 0.74493 0.0
C1775 C 0.14942 0.79128 0.78671 0.0
C1776 C 0.18134 0.7999 0.77039 0.0
H1777 H 0.27247 0.93284 0.69961 0.0
H1778 H 0.23126 0.88994 0.70894 0.0
H1779 H 0.25985 0.82119 0.7932 0.0
H1780 H 0.11795 0.74056 0.84693 0.0
H1781 H 0.16783 0.74758 0.8124 0.0
C1782 C 0.20534 0.10765 0.20381 0.0
C1783 C 0.1823 0.10267 0.22954 0.0
C1784 C 0.23053 0.13139 0.20718 0.0
C1785 C 0.26483 0.1957 0.26649 0.0
H1786 H 0.34853 0.15606 0.24014 0.0
C1787 C 0.40225 0.17714 0.32398 0.0
C1788 C 0.40886 0.20875 0.33715 0.0
C1789 C 0.37585 0.17232 0.30207 0.0
C1790 C 0.32538 0.16753 0.24772 0.0
H1791 H 0.16549 0.12073 0.27744 0.0
H1792 H 0.20994 0.16061 0.28417 0.0
H1793 H 0.2972 0.13459 0.21741 0.0
H1794 H 0.39402 0.26054 0.33636 0.0
H1795 H 0.34772 0.25219 0.29735 0.0
H1796 H 0.2932 0.22671 0.29914 0.0
C1797 C 0.20862 0.147 0.261 0.0
C1798 C 0.29575 0.15555 0.23419 0.0
C1799 C 0.18317 0.12373 0.25735 0.0
C1800 C 0.38943 0.23588 0.32659 0.0
C1801 C 0.36282 0.23104 0.30449 0.0
C1802 C 0.2945 0.20737 0.28046 0.0
C1803 C 0.23359 0.15011 0.23665 0.0
C1804 C 0.2649 0.16842 0.24455 0.0
C1805 C 0.35539 0.19903 0.29244 0.0
C1806 C 0.325 0.19232 0.27235 0.0
H1807 H 0.20478 0.09224 0.18172 0.0
H1808 H 0.24856 0.13381 0.18736 0.0
H1809 H 0.2417 0.20695 0.27422 0.0
H1810 H 0.4171 0.15585 0.33124 0.0
H1811 H 0.37069 0.14722 0.29384 0.0
loop_
_geom_bond_atom_site_label_1
_geom_bond_atom_site_label_2
_geom_bond_distance
_geom_bond_site_symmetry_2
_ccdc_geom_bond_type
In0 O1 2.294 . S
In0 O2 2.326 . S
In0 O6 2.266 . S
In0 O7 2.326 1_455 S
In0 O8 2.266 1_455 S
In0 O9 2.326 . S
In0 O11 2.294 1_455 S
In0 O12 2.326 1_455 S
O1 In0 2.294 . S
O1 C10 1.240 . S
O2 In0 2.326 . S
O2 C10 1.252 . S
C3 O6 1.252 1_655 S
C3 O7 1.260 . S
C4 O11 1.240 . S
C4 O12 1.252 . S
C5 O8 1.252 1_455 S
C5 O9 1.260 . S
O6 In0 2.266 . S
O6 C3 1.252 1_455 S
O7 In0 2.326 1_655 S
O7 C3 1.260 . S
O8 In0 2.266 1_655 S
O8 C5 1.252 1_655 S
O9 In0 2.326 . S
O9 C5 1.260 . S
C10 O1 1.240 . S
C10 O2 1.252 . S
O11 In0 2.294 1_655 S
O11 C4 1.240 . S
O12 In0 2.326 1_655 S
O12 C4 1.252 . S
In13 O14 2.292 1_455 S
In13 O15 2.330 . S
In13 O19 2.261 1_455 S
In13 O20 2.323 1_455 S
In13 O21 2.272 . S
In13 O22 2.328 . S
In13 O24 2.296 . S
In13 O25 2.323 1_455 S
O14 In13 2.292 1_655 S
O14 C23 1.240 1_655 S
O15 In13 2.330 . S
O15 C23 1.252 . S
C16 O19 1.252 . S
C16 O20 1.260 . S
C17 O24 1.240 1_655 S
C17 O25 1.252 . S
C18 O21 1.252 . S
C18 O22 1.260 . S
O19 In13 2.261 1_655 S
O19 C16 1.252 . S
O20 In13 2.323 1_655 S
O20 C16 1.260 . S
O21 In13 2.272 . S
O21 C18 1.252 . S
O22 In13 2.328 . S
O22 C18 1.260 . S
C23 O14 1.240 1_455 S
C23 O15 1.252 . S
O24 In13 2.296 . S
O24 C17 1.240 1_455 S
O25 In13 2.323 1_655 S
O25 C17 1.252 . S
In26 O27 2.294 . S
In26 O28 2.326 . S
In26 O32 2.266 . S
In26 O33 2.326 . S
In26 O34 2.266 . S
In26 O35 2.326 . S
In26 O37 2.294 . S
In26 O38 2.326 . S
O27 In26 2.294 . S
O27 C36 1.240 . S
O28 In26 2.326 . S
O28 C36 1.252 . S
C29 O32 1.252 . S
C29 O33 1.260 . S
C30 O37 1.240 . S
C30 O38 1.252 . S
C31 O34 1.252 . S
C31 O35 1.260 . S
O32 In26 2.266 . S
O32 C29 1.252 . S
O33 In26 2.326 . S
O33 C29 1.260 . S
O34 In26 2.266 . S
O34 C31 1.252 . S
O35 In26 2.326 . S
O35 C31 1.260 . S
C36 O27 1.240 . S
C36 O28 1.252 . S
O37 In26 2.294 . S
O37 C30 1.240 . S
O38 In26 2.326 . S
O38 C30 1.252 . S
In39 O40 2.294 . S
In39 O41 2.326 . S
In39 O45 2.266 . S
In39 O46 2.326 . S
In39 O47 2.266 . S
In39 O48 2.326 . S
In39 O50 2.294 . S
In39 O51 2.326 . S
O40 In39 2.294 . S
O40 C49 1.240 . S
O41 In39 2.326 . S
O41 C49 1.252 . S
C42 O45 1.252 . S
C42 O46 1.260 . S
C43 O50 1.240 . S
C43 O51 1.252 . S
C44 O47 1.252 . S
C44 O48 1.260 . S
O45 In39 2.266 . S
O45 C42 1.252 . S
O46 In39 2.326 . S
O46 C42 1.260 . S
O47 In39 2.266 . S
O47 C44 1.252 . S
O48 In39 2.326 . S
O48 C44 1.260 . S
C49 O40 1.240 . S
C49 O41 1.252 . S
O50 In39 2.294 . S
O50 C43 1.240 . S
O51 In39 2.326 . S
O51 C43 1.252 . S
In52 O53 2.269 1_545 S
In52 O54 2.315 1_545 S
In52 O58 2.257 1_545 S
In52 O59 2.343 . S
In52 O60 2.275 . S
In52 O61 2.309 1_545 S
In52 O63 2.319 . S
In52 O64 2.338 . S
O53 In52 2.269 1_565 S
O53 C62 1.240 . S
O54 In52 2.315 1_565 S
O54 C62 1.252 . S
C55 O58 1.252 1_545 S
C55 O59 1.260 . S
C56 O63 1.240 . S
C56 O64 1.252 . S
C57 O60 1.252 1_565 S
C57 O61 1.260 . S
O58 In52 2.257 1_565 S
O58 C55 1.252 1_565 S
O59 In52 2.343 . S
O59 C55 1.260 . S
O60 In52 2.275 . S
O60 C57 1.252 1_545 S
O61 In52 2.309 1_565 S
O61 C57 1.260 . S
C62 O53 1.240 . S
C62 O54 1.252 . S
O63 In52 2.319 . S
O63 C56 1.240 . S
O64 In52 2.338 . S
O64 C56 1.252 . S
In65 O66 2.294 . S
In65 O67 2.326 . S
In65 O71 2.266 . S
In65 O72 2.326 . S
In65 O73 2.266 . S
In65 O74 2.326 . S
In65 O76 2.294 . S
In65 O77 2.326 . S
O66 In65 2.294 . S
O66 C75 1.240 . S
O67 In65 2.326 . S
O67 C75 1.252 . S
C68 O71 1.252 . S
C68 O72 1.260 . S
C69 O76 1.240 . S
C69 O77 1.252 . S
C70 O73 1.252 . S
C70 O74 1.260 . S
O71 In65 2.266 . S
O71 C68 1.252 . S
O72 In65 2.326 . S
O72 C68 1.260 . S
O73 In65 2.266 . S
O73 C70 1.252 . S
O74 In65 2.326 . S
O74 C70 1.260 . S
C75 O66 1.240 . S
C75 O67 1.252 . S
O76 In65 2.294 . S
O76 C69 1.240 . S
O77 In65 2.326 . S
O77 C69 1.252 . S
In78 O79 2.288 1_545 S
In78 O80 2.324 1_545 S
In78 O84 2.264 1_545 S
In78 O85 2.330 . S
In78 O86 2.268 . S
In78 O87 2.321 1_545 S
In78 O89 2.300 . S
In78 O90 2.329 . S
O79 In78 2.288 1_565 S
O79 C88 1.240 . S
O80 In78 2.324 1_565 S
O80 C88 1.252 . S
C81 O84 1.252 1_545 S
C81 O85 1.260 . S
C82 O89 1.240 . S
C82 O90 1.252 . S
C83 O86 1.252 1_565 S
C83 O87 1.260 . S
O84 In78 2.264 1_565 S
O84 C81 1.252 1_565 S
O85 In78 2.330 . S
O85 C81 1.260 . S
O86 In78 2.268 . S
O86 C83 1.252 1_545 S
O87 In78 2.321 1_565 S
O87 C83 1.260 . S
C88 O79 1.240 . S
C88 O80 1.252 . S
O89 In78 2.300 . S
O89 C82 1.240 . S
O90 In78 2.329 . S
O90 C82 1.252 . S
In91 O92 2.294 . S
In91 O93 2.326 . S
In91 O97 2.266 . S
In91 O98 2.326 1_554 S
In91 O99 2.266 1_554 S
In91 O100 2.326 . S
In91 O102 2.294 1_554 S
In91 O103 2.326 1_554 S
O92 In91 2.294 . S
O92 C101 1.240 . S
O93 In91 2.326 . S
O93 C101 1.252 . S
C94 O97 1.252 1_556 S
C94 O98 1.260 . S
C95 O102 1.240 . S
C95 O103 1.252 . S
C96 O99 1.252 1_554 S
C96 O100 1.260 . S
O97 In91 2.266 . S
O97 C94 1.252 1_554 S
O98 In91 2.326 1_556 S
O98 C94 1.260 . S
O99 In91 2.266 1_556 S
O99 C96 1.252 1_556 S
O100 In91 2.326 . S
O100 C96 1.260 . S
C101 O92 1.240 . S
C101 O93 1.252 . S
O102 In91 2.294 1_556 S
O102 C95 1.240 . S
O103 In91 2.326 1_556 S
O103 C95 1.252 . S
In104 O105 2.294 . S
In104 O106 2.326 . S
In104 O110 2.266 . S
In104 O111 2.325 1_554 S
In104 O112 2.266 1_554 S
In104 O113 2.326 . S
In104 O115 2.294 1_554 S
In104 O116 2.326 1_554 S
O105 In104 2.294 . S
O105 C114 1.240 . S
O106 In104 2.326 . S
O106 C114 1.252 . S
C107 O110 1.252 1_556 S
C107 O111 1.260 . S
C108 O115 1.240 . S
C108 O116 1.252 . S
C109 O112 1.252 1_554 S
C109 O113 1.260 . S
O110 In104 2.266 . S
O110 C107 1.252 1_554 S
O111 In104 2.325 1_556 S
O111 C107 1.260 . S
O112 In104 2.266 1_556 S
O112 C109 1.252 1_556 S
O113 In104 2.326 . S
O113 C109 1.260 . S
C114 O105 1.240 . S
C114 O106 1.252 . S
O115 In104 2.294 1_556 S
O115 C108 1.240 . S
O116 In104 2.326 1_556 S
O116 C108 1.252 . S
In117 O118 2.294 . S
In117 O119 2.326 . S
In117 O123 2.266 . S
In117 O124 2.326 . S
In117 O125 2.266 . S
In117 O126 2.326 . S
In117 O128 2.294 . S
In117 O129 2.326 . S
O118 In117 2.294 . S
O118 C127 1.240 . S
O119 In117 2.326 . S
O119 C127 1.252 . S
C120 O123 1.252 . S
C120 O124 1.260 . S
C121 O128 1.240 . S
C121 O129 1.252 . S
C122 O125 1.252 . S
C122 O126 1.260 . S
O123 In117 2.266 . S
O123 C120 1.252 . S
O124 In117 2.326 . S
O124 C120 1.260 . S
O125 In117 2.266 . S
O125 C122 1.252 . S
O126 In117 2.326 . S
O126 C122 1.260 . S
C127 O118 1.240 . S
C127 O119 1.252 . S
O128 In117 2.294 . S
O128 C121 1.240 . S
O129 In117 2.326 . S
O129 C121 1.252 . S
In130 O131 2.294 . S
In130 O132 2.326 . S
In130 O136 2.266 . S
In130 O137 2.326 . S
In130 O138 2.266 . S
In130 O139 2.326 . S
In130 O141 2.294 . S
In130 O142 2.326 . S
O131 In130 2.294 . S
O131 C140 1.240 . S
O132 In130 2.326 . S
O132 C140 1.252 . S
C133 O136 1.252 . S
C133 O137 1.260 . S
C134 O141 1.240 . S
C134 O142 1.252 . S
C135 O138 1.252 . S
C135 O139 1.260 . S
O136 In130 2.266 . S
O136 C133 1.252 . S
O137 In130 2.326 . S
O137 C133 1.260 . S
O138 In130 2.266 . S
O138 C135 1.252 . S
O139 In130 2.326 . S
O139 C135 1.260 . S
C140 O131 1.240 . S
C140 O132 1.252 . S
O141 In130 2.294 . S
O141 C134 1.240 . S
O142 In130 2.326 . S
O142 C134 1.252 . S
In143 O144 2.294 . S
In143 O145 2.326 . S
In143 O149 2.266 . S
In143 O150 2.326 . S
In143 O151 2.266 . S
In143 O152 2.326 . S
In143 O154 2.294 . S
In143 O155 2.326 . S
O144 In143 2.294 . S
O144 C153 1.240 . S
O145 In143 2.326 . S
O145 C153 1.252 . S
C146 O149 1.252 . S
C146 O150 1.260 . S
C147 O154 1.240 . S
C147 O155 1.252 . S
C148 O151 1.252 . S
C148 O152 1.260 . S
O149 In143 2.266 . S
O149 C146 1.252 . S
O150 In143 2.326 . S
O150 C146 1.260 . S
O151 In143 2.266 . S
O151 C148 1.252 . S
O152 In143 2.326 . S
O152 C148 1.260 . S
C153 O144 1.240 . S
C153 O145 1.252 . S
O154 In143 2.294 . S
O154 C147 1.240 . S
O155 In143 2.326 . S
O155 C147 1.252 . S
H156 C162 0.930 . S
H157 C165 0.931 . S
H158 C167 0.931 . S
H159 C169 0.930 . S
H160 C171 0.930 . S
H161 C173 0.931 . S
C162 H156 0.930 . S
C162 C163 1.380 . S
C162 C164 1.394 . S
C163 C162 1.380 . S
C163 C167 1.382 . S
C164 C162 1.394 . S
C164 C165 1.400 . S
C165 H157 0.931 . S
C165 C164 1.400 . S
C165 C166 1.375 . S
C166 C165 1.375 . S
C166 C167 1.415 . S
C166 C168 1.501 1_655 S
C167 H158 0.931 . S
C167 C163 1.382 . S
C167 C166 1.415 . S
C168 C166 1.501 1_455 S
C168 C169 1.384 . S
C168 C173 1.408 . S
C169 H159 0.930 . S
C169 C168 1.384 . S
C169 C170 1.389 . S
C170 C169 1.389 . S
C170 C171 1.405 . S
C171 H160 0.930 . S
C171 C170 1.405 . S
C171 C172 1.364 . S
C172 C171 1.364 . S
C172 C173 1.400 . S
C173 H161 0.931 . S
C173 C168 1.408 . S
C173 C172 1.400 . S
H174 C180 0.930 . S
H175 C183 0.931 . S
H176 C185 0.931 . S
H177 C187 0.930 . S
H178 C189 0.930 . S
H179 C191 0.931 . S
C180 H174 0.930 . S
C180 C181 1.380 . S
C180 C182 1.394 . S
C181 C180 1.380 . S
C181 C185 1.382 . S
C182 C180 1.394 . S
C182 C183 1.400 . S
C183 H175 0.931 . S
C183 C182 1.400 . S
C183 C184 1.375 . S
C184 C183 1.375 . S
C184 C185 1.415 . S
C184 C186 1.501 1_655 S
C185 H176 0.931 . S
C185 C181 1.382 . S
C185 C184 1.415 . S
C186 C184 1.501 1_455 S
C186 C187 1.384 . S
C186 C191 1.408 . S
C187 H177 0.930 . S
C187 C186 1.384 . S
C187 C188 1.389 . S
C188 C187 1.389 . S
C188 C189 1.405 . S
C189 H178 0.930 . S
C189 C188 1.405 . S
C189 C190 1.364 . S
C190 C189 1.364 . S
C190 C191 1.400 . S
C191 H179 0.931 . S
C191 C186 1.408 . S
C191 C190 1.400 . S
H192 C198 0.930 . S
H193 C201 0.931 . S
H194 C203 0.931 . S
H195 C205 0.930 . S
H196 C207 0.930 . S
H197 C209 0.931 . S
C198 H192 0.930 . S
C198 C199 1.380 . S
C198 C200 1.394 . S
C199 C198 1.380 . S
C199 C203 1.382 . S
C200 C198 1.394 . S
C200 C201 1.400 . S
C201 H193 0.931 . S
C201 C200 1.400 . S
C201 C202 1.375 . S
C202 C201 1.375 . S
C202 C203 1.415 . S
C202 C204 1.501 . S
C203 H194 0.931 . S
C203 C199 1.382 . S
C203 C202 1.415 . S
C204 C202 1.501 . S
C204 C205 1.384 . S
C204 C209 1.408 . S
C205 H195 0.930 . S
C205 C204 1.384 . S
C205 C206 1.389 . S
C206 C205 1.389 . S
C206 C207 1.405 . S
C207 H196 0.930 . S
C207 C206 1.405 . S
C207 C208 1.364 . S
C208 C207 1.364 . S
C208 C209 1.400 . S
C209 H197 0.931 . S
C209 C204 1.408 . S
C209 C208 1.400 . S
H210 C216 0.930 . S
H211 C219 0.931 . S
H212 C221 0.931 . S
H213 C223 0.930 . S
H214 C225 0.930 . S
H215 C227 0.931 . S
C216 H210 0.930 . S
C216 C217 1.380 . S
C216 C218 1.394 . S
C217 C216 1.380 . S
C217 C221 1.382 . S
C218 C216 1.394 . S
C218 C219 1.400 . S
C219 H211 0.931 . S
C219 C218 1.400 . S
C219 C220 1.375 . S
C220 C219 1.375 . S
C220 C221 1.415 . S
C220 C222 1.501 . S
C221 H212 0.931 . S
C221 C217 1.382 . S
C221 C220 1.415 . S
C222 C220 1.501 . S
C222 C223 1.384 . S
C222 C227 1.408 . S
C223 H213 0.930 . S
C223 C222 1.384 . S
C223 C224 1.389 . S
C224 C223 1.389 . S
C224 C225 1.405 . S
C225 H214 0.930 . S
C225 C224 1.405 . S
C225 C226 1.364 . S
C226 C225 1.364 . S
C226 C227 1.400 . S
C227 H215 0.931 . S
C227 C222 1.408 . S
C227 C226 1.400 . S
H228 C234 0.930 . S
H229 C237 0.931 . S
H230 C239 0.931 . S
H231 C241 0.930 . S
H232 C243 0.930 . S
H233 C245 0.931 . S
C234 H228 0.930 . S
C234 C235 1.380 . S
C234 C236 1.394 . S
C235 C234 1.380 . S
C235 C239 1.382 . S
C236 C234 1.394 . S
C236 C237 1.400 . S
C237 H229 0.931 . S
C237 C236 1.400 . S
C237 C238 1.375 . S
C238 C237 1.375 . S
C238 C239 1.415 . S
C238 C240 1.501 1_565 S
C239 H230 0.931 . S
C239 C235 1.382 . S
C239 C238 1.415 . S
C240 C238 1.501 1_545 S
C240 C241 1.384 . S
C240 C245 1.408 . S
C241 H231 0.930 . S
C241 C240 1.384 . S
C241 C242 1.389 . S
C242 C241 1.389 . S
C242 C243 1.405 . S
C243 H232 0.930 . S
C243 C242 1.405 . S
C243 C244 1.364 . S
C244 C243 1.364 . S
C244 C245 1.400 . S
C245 H233 0.931 . S
C245 C240 1.408 . S
C245 C244 1.400 . S
H246 C252 0.930 . S
H247 C255 0.931 . S
H248 C257 0.931 . S
H249 C259 0.930 . S
H250 C261 0.930 . S
H251 C263 0.931 . S
C252 H246 0.930 . S
C252 C253 1.380 . S
C252 C254 1.394 . S
C253 C252 1.380 . S
C253 C257 1.382 . S
C254 C252 1.394 . S
C254 C255 1.400 . S
C255 H247 0.931 . S
C255 C254 1.400 . S
C255 C256 1.375 . S
C256 C255 1.375 . S
C256 C257 1.415 . S
C256 C258 1.501 . S
C257 H248 0.931 . S
C257 C253 1.382 . S
C257 C256 1.415 . S
C258 C256 1.501 . S
C258 C259 1.384 . S
C258 C263 1.408 . S
C259 H249 0.930 . S
C259 C258 1.384 . S
C259 C260 1.389 . S
C260 C259 1.389 . S
C260 C261 1.405 . S
C261 H250 0.930 . S
C261 C260 1.405 . S
C261 C262 1.364 . S
C262 C261 1.364 . S
C262 C263 1.400 . S
C263 H251 0.931 . S
C263 C258 1.408 . S
C263 C262 1.400 . S
H264 C270 0.930 . S
H265 C273 0.931 . S
H266 C275 0.931 . S
H267 C277 0.930 . S
H268 C279 0.930 . S
H269 C281 0.931 . S
C270 H264 0.930 . S
C270 C271 1.380 . S
C270 C272 1.394 . S
C271 C270 1.380 . S
C271 C275 1.382 . S
C272 C270 1.394 . S
C272 C273 1.400 . S
C273 H265 0.931 . S
C273 C272 1.400 . S
C273 C274 1.375 . S
C274 C273 1.375 . S
C274 C275 1.415 . S
C274 C276 1.501 1_545 S
C275 H266 0.931 . S
C275 C271 1.382 . S
C275 C274 1.415 . S
C276 C274 1.501 1_565 S
C276 C277 1.384 . S
C276 C281 1.408 . S
C277 H267 0.930 . S
C277 C276 1.384 . S
C277 C278 1.389 . S
C278 C277 1.389 . S
C278 C279 1.405 . S
C279 H268 0.930 . S
C279 C278 1.405 . S
C279 C280 1.364 . S
C280 C279 1.364 . S
C280 C281 1.400 . S
C281 H269 0.931 . S
C281 C276 1.408 . S
C281 C280 1.400 . S
H282 C288 0.930 . S
H283 C291 0.931 . S
H284 C293 0.931 . S
H285 C295 0.930 . S
H286 C297 0.930 . S
H287 C299 0.931 . S
C288 H282 0.930 . S
C288 C289 1.380 . S
C288 C290 1.394 . S
C289 C288 1.380 . S
C289 C293 1.382 . S
C290 C288 1.394 . S
C290 C291 1.400 . S
C291 H283 0.931 . S
C291 C290 1.400 . S
C291 C292 1.375 . S
C292 C291 1.375 . S
C292 C293 1.415 . S
C292 C294 1.501 1_556 S
C293 H284 0.931 . S
C293 C289 1.382 . S
C293 C292 1.415 . S
C294 C292 1.501 1_554 S
C294 C295 1.384 . S
C294 C299 1.408 . S
C295 H285 0.930 . S
C295 C294 1.384 . S
C295 C296 1.389 . S
C296 C295 1.389 . S
C296 C297 1.405 . S
C297 H286 0.930 . S
C297 C296 1.405 . S
C297 C298 1.364 . S
C298 C297 1.364 . S
C298 C299 1.400 . S
C299 H287 0.931 . S
C299 C294 1.408 . S
C299 C298 1.400 . S
H300 C306 0.930 . S
H301 C309 0.931 . S
H302 C311 0.931 . S
H303 C313 0.930 . S
H304 C315 0.930 . S
H305 C317 0.931 . S
C306 H300 0.930 . S
C306 C307 1.380 . S
C306 C308 1.394 . S
C307 C306 1.380 . S
C307 C311 1.382 . S
C308 C306 1.394 . S
C308 C309 1.400 . S
C309 H301 0.931 . S
C309 C308 1.400 . S
C309 C310 1.375 . S
C310 C309 1.375 . S
C310 C311 1.415 . S
C310 C312 1.501 1_556 S
C311 H302 0.931 . S
C311 C307 1.382 . S
C311 C310 1.415 . S
C312 C310 1.501 1_554 S
C312 C313 1.384 . S
C312 C317 1.408 . S
C313 H303 0.930 . S
C313 C312 1.384 . S
C313 C314 1.389 . S
C314 C313 1.389 . S
C314 C315 1.405 . S
C315 H304 0.930 . S
C315 C314 1.405 . S
C315 C316 1.364 . S
C316 C315 1.364 . S
C316 C317 1.400 . S
C317 H305 0.931 . S
C317 C312 1.408 . S
C317 C316 1.400 . S
H318 C324 0.930 . S
H319 C327 0.931 . S
H320 C329 0.931 . S
H321 C331 0.930 . S
H322 C333 0.930 . S
H323 C335 0.931 . S
C324 H318 0.930 . S
C324 C325 1.380 . S
C324 C326 1.394 . S
C325 C324 1.380 . S
C325 C329 1.382 . S
C326 C324 1.394 . S
C326 C327 1.400 . S
C327 H319 0.931 . S
C327 C326 1.400 . S
C327 C328 1.375 . S
C328 C327 1.375 . S
C328 C329 1.415 . S
C328 C330 1.501 . S
C329 H320 0.931 . S
C329 C325 1.382 . S
C329 C328 1.415 . S
C330 C328 1.501 . S
C330 C331 1.384 . S
C330 C335 1.408 . S
C331 H321 0.930 . S
C331 C330 1.384 . S
C331 C332 1.389 . S
C332 C331 1.389 . S
C332 C333 1.405 . S
C333 H322 0.930 . S
C333 C332 1.405 . S
C333 C334 1.364 . S
C334 C333 1.364 . S
C334 C335 1.400 . S
C335 H323 0.931 . S
C335 C330 1.408 . S
C335 C334 1.400 . S
H336 C342 0.930 . S
H337 C345 0.931 . S
H338 C347 0.931 . S
H339 C349 0.930 . S
H340 C351 0.930 . S
H341 C353 0.931 . S
C342 H336 0.930 . S
C342 C343 1.380 . S
C342 C344 1.394 . S
C343 C342 1.380 . S
C343 C347 1.382 . S
C344 C342 1.394 . S
C344 C345 1.400 . S
C345 H337 0.931 . S
C345 C344 1.400 . S
C345 C346 1.375 . S
C346 C345 1.375 . S
C346 C347 1.415 . S
C346 C348 1.501 . S
C347 H338 0.931 . S
C347 C343 1.382 . S
C347 C346 1.415 . S
C348 C346 1.501 . S
C348 C349 1.384 . S
C348 C353 1.408 . S
C349 H339 0.930 . S
C349 C348 1.384 . S
C349 C350 1.389 . S
C350 C349 1.389 . S
C350 C351 1.405 . S
C351 H340 0.930 . S
C351 C350 1.405 . S
C351 C352 1.364 . S
C352 C351 1.364 . S
C352 C353 1.400 . S
C353 H341 0.931 . S
C353 C348 1.408 . S
C353 C352 1.400 . S
H354 C360 0.930 . S
H355 C363 0.931 . S
H356 C365 0.931 . S
H357 C367 0.930 . S
H358 C369 0.930 . S
H359 C371 0.931 . S
C360 H354 0.930 . S
C360 C361 1.380 . S
C360 C362 1.394 . S
C361 C360 1.380 . S
C361 C365 1.382 . S
C362 C360 1.394 . S
C362 C363 1.400 . S
C363 H355 0.931 . S
C363 C362 1.400 . S
C363 C364 1.375 . S
C364 C363 1.375 . S
C364 C365 1.415 . S
C364 C366 1.501 . S
C365 H356 0.931 . S
C365 C361 1.382 . S
C365 C364 1.415 . S
C366 C364 1.501 . S
C366 C367 1.384 . S
C366 C371 1.408 . S
C367 H357 0.930 . S
C367 C366 1.384 . S
C367 C368 1.389 . S
C368 C367 1.389 . S
C368 C369 1.405 . S
C369 H358 0.930 . S
C369 C368 1.405 . S
C369 C370 1.364 . S
C370 C369 1.364 . S
C370 C371 1.400 . S
C371 H359 0.931 . S
C371 C366 1.408 . S
C371 C370 1.400 . S
C372 C373 1.349 . S
C372 C374 1.320 1_554 S
C372 H397 0.950 1_455 S
C373 C372 1.349 . S
C373 C389 1.349 . S
C374 C372 1.320 1_556 S
C374 C393 1.429 . S
C374 H398 0.945 1_455 S
C375 C392 1.574 . S
C375 C394 1.368 . S
C375 H399 0.949 . S
H376 C380 0.949 . S
C377 C378 1.349 . S
C377 C379 1.327 . S
C377 H400 0.950 . S
C378 C377 1.349 . S
C378 C390 1.349 . S
C379 C377 1.327 . S
C379 C395 1.429 . S
C379 H401 0.950 . S
C380 H376 0.949 . S
C380 C388 1.574 . S
C380 C396 1.368 . S
H381 C389 0.950 . S
H382 C387 0.950 . S
H383 C388 0.949 . S
H384 C390 0.950 . S
H385 C391 0.950 . S
H386 C392 0.949 . S
C387 H382 0.950 . S
C387 C389 1.327 . S
C387 C393 1.429 1_554 S
C388 C380 1.574 . S
C388 H383 0.949 . S
C388 C394 1.368 . S
C389 C373 1.349 . S
C389 H381 0.950 . S
C389 C387 1.327 . S
C390 C378 1.349 . S
C390 H384 0.950 . S
C390 C391 1.327 . S
C391 H385 0.950 . S
C391 C390 1.327 . S
C391 C395 1.429 . S
C392 C375 1.574 . S
C392 H386 0.949 . S
C392 C396 1.368 . S
C393 C374 1.429 . S
C393 C387 1.429 1_556 S
C393 C394 1.523 . S
C394 C375 1.368 . S
C394 C388 1.368 . S
C394 C393 1.523 . S
C395 C379 1.429 . S
C395 C391 1.429 . S
C395 C396 1.523 . S
C396 C380 1.368 . S
C396 C392 1.368 . S
C396 C395 1.523 . S
H397 C372 0.950 1_655 S
H398 C374 0.945 1_655 S
H399 C375 0.949 . S
H400 C377 0.950 . S
H401 C379 0.950 . S
C402 C403 1.349 . S
C402 C404 1.327 . S
C402 H427 0.950 . S
C403 C402 1.349 . S
C403 C419 1.349 . S
C404 C402 1.327 . S
C404 C423 1.429 . S
C404 H428 0.950 . S
C405 C422 1.574 . S
C405 C424 1.368 . S
C405 H429 0.949 . S
H406 C410 0.949 . S
C407 C408 1.349 . S
C407 C409 1.327 . S
C407 H430 0.950 . S
C408 C407 1.349 . S
C408 C420 1.349 . S
C409 C407 1.327 . S
C409 C425 1.429 . S
C409 H431 0.950 . S
C410 H406 0.949 . S
C410 C418 1.574 . S
C410 C426 1.368 . S
H411 C419 0.950 . S
H412 C417 0.950 . S
H413 C418 0.949 . S
H414 C420 0.950 . S
H415 C421 0.950 . S
H416 C422 0.949 . S
C417 H412 0.950 . S
C417 C419 1.327 . S
C417 C423 1.429 . S
C418 C410 1.574 . S
C418 H413 0.949 . S
C418 C424 1.368 . S
C419 C403 1.349 . S
C419 H411 0.950 . S
C419 C417 1.327 . S
C420 C408 1.349 . S
C420 H414 0.950 . S
C420 C421 1.327 . S
C421 H415 0.950 . S
C421 C420 1.327 . S
C421 C425 1.429 . S
C422 C405 1.574 . S
C422 H416 0.949 . S
C422 C426 1.368 . S
C423 C404 1.429 . S
C423 C417 1.429 . S
C423 C424 1.523 . S
C424 C405 1.368 . S
C424 C418 1.368 . S
C424 C423 1.523 . S
C425 C409 1.429 . S
C425 C421 1.429 . S
C425 C426 1.523 . S
C426 C410 1.368 . S
C426 C422 1.368 . S
C426 C425 1.523 . S
H427 C402 0.950 . S
H428 C404 0.950 . S
H429 C405 0.949 . S
H430 C407 0.950 . S
H431 C409 0.950 . S
C432 C433 1.349 . S
C432 C434 1.327 . S
C432 H457 0.950 . S
C433 C432 1.349 . S
C433 C449 1.349 . S
C434 C432 1.327 . S
C434 C453 1.429 . S
C434 H458 0.950 . S
C435 C452 1.574 . S
C435 C454 1.368 . S
C435 H459 0.949 . S
H436 C440 0.949 . S
C437 C438 1.349 . S
C437 C439 1.327 . S
C437 H460 0.950 . S
C438 C437 1.349 . S
C438 C450 1.349 . S
C439 C437 1.327 . S
C439 C455 1.429 . S
C439 H461 0.950 . S
C440 H436 0.949 . S
C440 C448 1.574 . S
C440 C456 1.368 . S
H441 C449 0.950 . S
H442 C447 0.950 . S
H443 C448 0.949 . S
H444 C450 0.950 . S
H445 C451 0.950 . S
H446 C452 0.949 . S
C447 H442 0.950 . S
C447 C449 1.327 . S
C447 C453 1.429 . S
C448 C440 1.574 . S
C448 H443 0.949 . S
C448 C454 1.368 . S
C449 C433 1.349 . S
C449 H441 0.950 . S
C449 C447 1.327 . S
C450 C438 1.349 . S
C450 H444 0.950 . S
C450 C451 1.327 . S
C451 H445 0.950 . S
C451 C450 1.327 . S
C451 C455 1.429 . S
C452 C435 1.574 . S
C452 H446 0.949 . S
C452 C456 1.368 . S
C453 C434 1.429 . S
C453 C447 1.429 . S
C453 C454 1.523 . S
C454 C435 1.368 . S
C454 C448 1.368 . S
C454 C453 1.523 . S
C455 C439 1.429 . S
C455 C451 1.429 . S
C455 C456 1.523 . S
C456 C440 1.368 . S
C456 C452 1.368 . S
C456 C455 1.523 . S
H457 C432 0.950 . S
H458 C434 0.950 . S
H459 C435 0.949 . S
H460 C437 0.950 . S
H461 C439 0.950 . S
C462 C463 1.349 . S
C462 C464 1.327 . S
C462 H487 0.950 . S
C463 C462 1.349 . S
C463 C479 1.349 . S
C464 C462 1.327 . S
C464 C483 1.429 . S
C464 H488 0.950 . S
C465 C482 1.574 . S
C465 C484 1.368 . S
C465 H489 0.949 . S
H466 C470 0.949 . S
C467 C468 1.349 . S
C467 C469 1.327 . S
C467 H490 0.950 . S
C468 C467 1.349 . S
C468 C480 1.349 . S
C469 C467 1.327 . S
C469 C485 1.429 . S
C469 H491 0.950 . S
C470 H466 0.949 . S
C470 C478 1.574 . S
C470 C486 1.368 . S
H471 C479 0.950 . S
H472 C477 0.950 . S
H473 C478 0.949 . S
H474 C480 0.950 . S
H475 C481 0.950 . S
H476 C482 0.949 . S
C477 H472 0.950 . S
C477 C479 1.327 . S
C477 C483 1.429 . S
C478 C470 1.574 . S
C478 H473 0.949 . S
C478 C484 1.368 . S
C479 C463 1.349 . S
C479 H471 0.950 . S
C479 C477 1.327 . S
C480 C468 1.349 . S
C480 H474 0.950 . S
C480 C481 1.327 . S
C481 H475 0.950 . S
C481 C480 1.327 . S
C481 C485 1.429 . S
C482 C465 1.574 . S
C482 H476 0.949 . S
C482 C486 1.368 . S
C483 C464 1.429 . S
C483 C477 1.429 . S
C483 C484 1.523 . S
C484 C465 1.368 . S
C484 C478 1.368 . S
C484 C483 1.523 . S
C485 C469 1.429 . S
C485 C481 1.429 . S
C485 C486 1.523 . S
C486 C470 1.368 . S
C486 C482 1.368 . S
C486 C485 1.523 . S
H487 C462 0.950 . S
H488 C464 0.950 . S
H489 C465 0.949 . S
H490 C467 0.950 . S
H491 C469 0.950 . S
C492 C493 1.349 . S
C492 C494 1.327 . S
C492 H517 0.950 . S
C493 C492 1.349 . S
C493 C509 1.349 . S
C494 C492 1.327 . S
C494 C513 1.429 . S
C494 H518 0.950 . S
C495 C512 1.574 . S
C495 C514 1.368 . S
C495 H519 0.949 . S
H496 C500 0.949 . S
C497 C498 1.349 . S
C497 C499 1.327 . S
C497 H520 0.950 . S
C498 C497 1.349 . S
C498 C510 1.349 . S
C499 C497 1.327 . S
C499 C515 1.429 . S
C499 H521 0.950 . S
C500 H496 0.949 . S
C500 C508 1.574 . S
C500 C516 1.368 . S
H501 C509 0.950 . S
H502 C507 0.950 . S
H503 C508 0.949 . S
H504 C510 0.950 . S
H505 C511 0.950 . S
H506 C512 0.949 . S
C507 H502 0.950 . S
C507 C509 1.327 . S
C507 C513 1.429 . S
C508 C500 1.574 . S
C508 H503 0.949 . S
C508 C514 1.368 . S
C509 C493 1.349 . S
C509 H501 0.950 . S
C509 C507 1.327 . S
C510 C498 1.349 . S
C510 H504 0.950 . S
C510 C511 1.327 . S
C511 H505 0.950 . S
C511 C510 1.327 . S
C511 C515 1.429 . S
C512 C495 1.574 . S
C512 H506 0.949 . S
C512 C516 1.368 . S
C513 C494 1.429 . S
C513 C507 1.429 . S
C513 C514 1.523 . S
C514 C495 1.368 . S
C514 C508 1.368 . S
C514 C513 1.523 . S
C515 C499 1.429 . S
C515 C511 1.429 . S
C515 C516 1.523 . S
C516 C500 1.368 . S
C516 C512 1.368 . S
C516 C515 1.523 . S
H517 C492 0.950 . S
H518 C494 0.950 . S
H519 C495 0.949 . S
H520 C497 0.950 . S
H521 C499 0.950 . S
C522 C523 1.349 . S
C522 C524 1.327 . S
C522 H547 0.950 . S
C523 C522 1.349 . S
C523 C539 1.349 . S
C524 C522 1.327 . S
C524 C543 1.429 . S
C524 H548 0.950 . S
C525 C542 1.574 . S
C525 C544 1.368 . S
C525 H549 0.949 . S
H526 C530 0.949 . S
C527 C528 1.349 . S
C527 C529 1.327 . S
C527 H550 0.950 . S
C528 C527 1.349 . S
C528 C540 1.349 . S
C529 C527 1.327 . S
C529 C545 1.429 . S
C529 H551 0.950 . S
C530 H526 0.949 . S
C530 C538 1.574 . S
C530 C546 1.368 . S
H531 C539 0.950 . S
H532 C537 0.950 . S
H533 C538 0.949 . S
H534 C540 0.950 . S
H535 C541 0.950 . S
H536 C542 0.949 . S
C537 H532 0.950 . S
C537 C539 1.327 . S
C537 C543 1.429 . S
C538 C530 1.574 . S
C538 H533 0.949 . S
C538 C544 1.368 . S
C539 C523 1.349 . S
C539 H531 0.950 . S
C539 C537 1.327 . S
C540 C528 1.349 . S
C540 H534 0.950 . S
C540 C541 1.327 . S
C541 H535 0.950 . S
C541 C540 1.327 . S
C541 C545 1.429 . S
C542 C525 1.574 . S
C542 H536 0.949 . S
C542 C546 1.368 . S
C543 C524 1.429 . S
C543 C537 1.429 . S
C543 C544 1.523 . S
C544 C525 1.368 . S
C544 C538 1.368 . S
C544 C543 1.523 . S
C545 C529 1.429 . S
C545 C541 1.429 . S
C545 C546 1.523 . S
C546 C530 1.368 . S
C546 C542 1.368 . S
C546 C545 1.523 . S
H547 C522 0.950 . S
H548 C524 0.950 . S
H549 C525 0.949 . S
H550 C527 0.950 . S
H551 C529 0.950 . S
C552 C553 1.349 . S
C552 C554 1.327 . S
C552 H577 0.950 . S
C553 C552 1.349 . S
C553 C569 1.349 . S
C554 C552 1.327 . S
C554 C573 1.429 1_556 S
C554 H578 0.950 . S
C555 C572 1.574 . S
C555 C574 1.368 . S
C555 H579 0.949 . S
H556 C560 0.949 . S
C557 C558 1.349 . S
C557 C559 1.327 . S
C557 H580 0.950 . S
C558 C557 1.349 . S
C558 C570 1.349 . S
C559 C557 1.327 . S
C559 C575 1.429 . S
C559 H581 0.950 . S
C560 H556 0.949 . S
C560 C568 1.574 . S
C560 C576 1.368 . S
H561 C569 0.950 . S
H562 C567 0.953 . S
H563 C568 0.949 . S
H564 C570 0.950 . S
H565 C571 0.950 . S
H566 C572 0.949 . S
C567 H562 0.953 . S
C567 C569 1.324 1_554 S
C567 C573 1.429 . S
C568 C560 1.574 . S
C568 H563 0.949 . S
C568 C574 1.368 . S
C569 C553 1.349 . S
C569 H561 0.950 . S
C569 C567 1.324 1_556 S
C570 C558 1.349 . S
C570 H564 0.950 . S
C570 C571 1.327 . S
C571 H565 0.950 . S
C571 C570 1.327 . S
C571 C575 1.429 . S
C572 C555 1.574 . S
C572 H566 0.949 . S
C572 C576 1.368 . S
C573 C554 1.429 1_554 S
C573 C567 1.429 . S
C573 C574 1.523 . S
C574 C555 1.368 . S
C574 C568 1.368 . S
C574 C573 1.523 . S
C575 C559 1.429 . S
C575 C571 1.429 . S
C575 C576 1.523 . S
C576 C560 1.368 . S
C576 C572 1.368 . S
C576 C575 1.523 . S
H577 C552 0.950 . S
H578 C554 0.950 . S
H579 C555 0.949 . S
H580 C557 0.950 . S
H581 C559 0.950 . S
C582 C583 1.349 . S
C582 C584 1.327 . S
C582 H607 0.950 . S
C583 C582 1.349 . S
C583 C599 1.349 . S
C584 C582 1.327 . S
C584 C603 1.429 . S
C584 H608 0.950 . S
C585 C602 1.574 . S
C585 C604 1.368 . S
C585 H609 0.949 . S
H586 C590 0.949 . S
C587 C588 1.349 . S
C587 C589 1.327 . S
C587 H610 0.950 . S
C588 C587 1.349 . S
C588 C600 1.349 . S
C589 C587 1.327 . S
C589 C605 1.429 . S
C589 H611 0.950 . S
C590 H586 0.949 . S
C590 C598 1.574 . S
C590 C606 1.368 . S
H591 C599 0.950 . S
H592 C597 0.950 . S
H593 C598 0.949 . S
H594 C600 0.950 . S
H595 C601 0.950 . S
H596 C602 0.949 . S
C597 H592 0.950 . S
C597 C599 1.327 . S
C597 C603 1.429 . S
C598 C590 1.574 . S
C598 H593 0.949 . S
C598 C604 1.368 . S
C599 C583 1.349 . S
C599 H591 0.950 . S
C599 C597 1.327 . S
C600 C588 1.349 . S
C600 H594 0.950 . S
C600 C601 1.327 . S
C601 H595 0.950 . S
C601 C600 1.327 . S
C601 C605 1.429 . S
C602 C585 1.574 . S
C602 H596 0.949 . S
C602 C606 1.368 . S
C603 C584 1.429 . S
C603 C597 1.429 . S
C603 C604 1.523 . S
C604 C585 1.368 . S
C604 C598 1.368 . S
C604 C603 1.523 . S
C605 C589 1.429 . S
C605 C601 1.429 . S
C605 C606 1.523 . S
C606 C590 1.368 . S
C606 C602 1.368 . S
C606 C605 1.523 . S
H607 C582 0.950 . S
H608 C584 0.950 . S
H609 C585 0.949 . S
H610 C587 0.950 . S
H611 C589 0.950 . S
C612 C613 1.349 1_565 S
C612 C614 1.327 . S
C612 H637 0.950 . S
C613 C612 1.349 1_545 S
C613 C629 1.349 . S
C614 C612 1.327 . S
C614 C633 1.429 1_465 S
C614 H638 0.950 . S
C615 C632 1.574 . S
C615 C634 1.368 . S
C615 H639 0.949 . S
H616 C620 0.949 . S
C617 C618 1.349 . S
C617 C619 1.327 . S
C617 H640 0.950 . S
C618 C617 1.349 . S
C618 C630 1.349 . S
C619 C617 1.327 . S
C619 C635 1.429 . S
C619 H641 0.950 . S
C620 H616 0.949 . S
C620 C628 1.574 . S
C620 C636 1.368 . S
H621 C629 0.950 . S
H622 C627 0.950 . S
H623 C628 0.949 1_565 S
H624 C630 0.950 . S
H625 C631 0.950 . S
H626 C632 0.949 . S
C627 H622 0.950 . S
C627 C629 1.327 . S
C627 C633 1.429 1_455 S
C628 C620 1.574 . S
C628 H623 0.949 1_545 S
C628 C634 1.368 . S
C629 C613 1.349 . S
C629 H621 0.950 . S
C629 C627 1.327 . S
C630 C618 1.349 . S
C630 H624 0.950 . S
C630 C631 1.327 . S
C631 H625 0.950 . S
C631 C630 1.327 . S
C631 C635 1.429 . S
C632 C615 1.574 . S
C632 H626 0.949 . S
C632 C636 1.368 . S
C633 C614 1.429 1_645 S
C633 C627 1.429 1_655 S
C633 C634 1.523 . S
C634 C615 1.368 . S
C634 C628 1.368 . S
C634 C633 1.523 . S
C635 C619 1.429 . S
C635 C631 1.429 . S
C635 C636 1.523 . S
C636 C620 1.368 . S
C636 C632 1.368 . S
C636 C635 1.523 . S
H637 C612 0.950 . S
H638 C614 0.950 . S
H639 C615 0.949 . S
H640 C617 0.950 . S
H641 C619 0.950 . S
C642 C643 1.349 . S
C642 C644 1.327 . S
C642 H667 0.950 . S
C643 C642 1.349 . S
C643 C659 1.349 . S
C644 C642 1.327 . S
C644 C663 1.429 . S
C644 H668 0.950 . S
C645 C662 1.574 . S
C645 C664 1.368 . S
C645 H669 0.949 . S
H646 C650 0.949 . S
C647 C648 1.349 . S
C647 C649 1.327 . S
C647 H670 0.950 . S
C648 C647 1.349 . S
C648 C660 1.349 . S
C649 C647 1.327 . S
C649 C665 1.429 . S
C649 H671 0.950 . S
C650 H646 0.949 . S
C650 C658 1.574 . S
C650 C666 1.368 . S
H651 C659 0.950 . S
H652 C657 0.950 . S
H653 C658 0.949 . S
H654 C660 0.950 . S
H655 C661 0.950 . S
H656 C662 0.949 . S
C657 H652 0.950 . S
C657 C659 1.327 . S
C657 C663 1.429 . S
C658 C650 1.574 . S
C658 H653 0.949 . S
C658 C664 1.368 . S
C659 C643 1.349 . S
C659 H651 0.950 . S
C659 C657 1.327 . S
C660 C648 1.349 . S
C660 H654 0.950 . S
C660 C661 1.327 . S
C661 H655 0.950 . S
C661 C660 1.327 . S
C661 C665 1.429 . S
C662 C645 1.574 . S
C662 H656 0.949 . S
C662 C666 1.368 . S
C663 C644 1.429 . S
C663 C657 1.429 . S
C663 C664 1.523 . S
C664 C645 1.368 . S
C664 C658 1.368 . S
C664 C663 1.523 . S
C665 C649 1.429 . S
C665 C661 1.429 . S
C665 C666 1.523 . S
C666 C650 1.368 . S
C666 C662 1.368 . S
C666 C665 1.523 . S
H667 C642 0.950 . S
H668 C644 0.950 . S
H669 C645 0.949 . S
H670 C647 0.950 . S
H671 C649 0.950 . S
C672 C673 1.349 . S
C672 C674 1.327 . S
C672 H697 0.950 . S
C673 C672 1.349 . S
C673 C689 1.349 1_565 S
C674 C672 1.327 . S
C674 C693 1.429 . S
C674 H698 0.950 . S
C675 C692 1.574 . S
C675 C694 1.368 . S
C675 H699 0.949 1_565 S
H676 C680 0.949 . S
C677 C678 1.349 . S
C677 C679 1.327 . S
C677 H700 0.950 . S
C678 C677 1.349 . S
C678 C690 1.349 . S
C679 C677 1.327 . S
C679 C695 1.429 . S
C679 H701 0.950 . S
C680 H676 0.949 . S
C680 C688 1.574 . S
C680 C696 1.368 . S
H681 C689 0.950 . S
H682 C687 0.950 . S
H683 C688 0.949 . S
H684 C690 0.950 . S
H685 C691 0.950 . S
H686 C692 0.949 . S
C687 H682 0.950 . S
C687 C689 1.327 . S
C687 C693 1.429 1_545 S
C688 C680 1.574 . S
C688 H683 0.949 . S
C688 C694 1.368 . S
C689 C673 1.349 1_545 S
C689 H681 0.950 . S
C689 C687 1.327 . S
C690 C678 1.349 . S
C690 H684 0.950 . S
C690 C691 1.327 . S
C691 H685 0.950 . S
C691 C690 1.327 . S
C691 C695 1.429 . S
C692 C675 1.574 . S
C692 H686 0.949 . S
C692 C696 1.368 . S
C693 C674 1.429 . S
C693 C687 1.429 1_565 S
C693 C694 1.523 . S
C694 C675 1.368 . S
C694 C688 1.368 . S
C694 C693 1.523 . S
C695 C679 1.429 . S
C695 C691 1.429 . S
C695 C696 1.523 . S
C696 C680 1.368 . S
C696 C692 1.368 . S
C696 C695 1.523 . S
H697 C672 0.950 . S
H698 C674 0.950 . S
H699 C675 0.949 1_545 S
H700 C677 0.950 . S
H701 C679 0.950 . S
C702 C703 1.349 . S
C702 C704 1.327 . S
C702 H727 0.950 . S
C703 C702 1.349 . S
C703 C719 1.349 . S
C704 C702 1.327 . S
C704 C723 1.429 . S
C704 H728 0.950 . S
C705 C722 1.574 . S
C705 C724 1.368 . S
C705 H729 0.949 . S
H706 C710 0.949 . S
C707 C708 1.349 . S
C707 C709 1.327 . S
C707 H730 0.950 . S
C708 C707 1.349 . S
C708 C720 1.349 . S
C709 C707 1.327 . S
C709 C725 1.429 . S
C709 H731 0.950 . S
C710 H706 0.949 . S
C710 C718 1.574 . S
C710 C726 1.368 . S
H711 C719 0.950 . S
H712 C717 0.950 . S
H713 C718 0.949 . S
H714 C720 0.950 . S
H715 C721 0.950 . S
H716 C722 0.949 . S
C717 H712 0.950 . S
C717 C719 1.327 . S
C717 C723 1.429 . S
C718 C710 1.574 . S
C718 H713 0.949 . S
C718 C724 1.368 . S
C719 C703 1.349 . S
C719 H711 0.950 . S
C719 C717 1.327 . S
C720 C708 1.349 . S
C720 H714 0.950 . S
C720 C721 1.327 . S
C721 H715 0.950 . S
C721 C720 1.327 . S
C721 C725 1.429 . S
C722 C705 1.574 . S
C722 H716 0.949 . S
C722 C726 1.368 . S
C723 C704 1.429 . S
C723 C717 1.429 . S
C723 C724 1.523 . S
C724 C705 1.368 . S
C724 C718 1.368 . S
C724 C723 1.523 . S
C725 C709 1.429 . S
C725 C721 1.429 . S
C725 C726 1.523 . S
C726 C710 1.368 . S
C726 C722 1.368 . S
C726 C725 1.523 . S
H727 C702 0.950 . S
H728 C704 0.950 . S
H729 C705 0.949 . S
H730 C707 0.950 . S
H731 C709 0.950 . S
C732 C733 1.349 1_545 S
C732 C734 1.323 1_545 S
C732 H757 0.950 . S
C733 C732 1.349 1_565 S
C733 C749 1.349 . S
C734 C732 1.323 1_565 S
C734 C753 1.444 1_455 S
C734 H758 0.938 1_565 S
C735 C752 1.574 . S
C735 C754 1.368 . S
C735 H759 0.949 . S
H736 C740 0.949 . S
C737 C738 1.349 . S
C737 C739 1.327 . S
C737 H760 0.950 . S
C738 C737 1.349 . S
C738 C750 1.349 . S
C739 C737 1.327 . S
C739 C755 1.429 . S
C739 H761 0.950 . S
C740 H736 0.949 . S
C740 C748 1.574 . S
C740 C756 1.368 . S
H741 C749 0.950 . S
H742 C747 0.950 1_655 S
H743 C748 0.949 1_545 S
H744 C750 0.950 . S
H745 C751 0.950 . S
H746 C752 0.949 . S
C747 H742 0.950 1_455 S
C747 C749 1.327 . S
C747 C753 1.429 1_455 S
C748 C740 1.574 . S
C748 H743 0.949 1_565 S
C748 C754 1.368 . S
C749 C733 1.349 . S
C749 H741 0.950 . S
C749 C747 1.327 . S
C750 C738 1.349 . S
C750 H744 0.950 . S
C750 C751 1.327 . S
C751 H745 0.950 . S
C751 C750 1.327 . S
C751 C755 1.429 . S
C752 C735 1.574 . S
C752 H746 0.949 . S
C752 C756 1.368 . S
C753 C734 1.444 1_655 S
C753 C747 1.429 1_655 S
C753 C754 1.523 . S
C754 C735 1.368 . S
C754 C748 1.368 . S
C754 C753 1.523 . S
C755 C739 1.429 . S
C755 C751 1.429 . S
C755 C756 1.523 . S
C756 C740 1.368 . S
C756 C752 1.368 . S
C756 C755 1.523 . S
H757 C732 0.950 . S
H758 C734 0.938 1_545 S
H759 C735 0.949 . S
H760 C737 0.950 . S
H761 C739 0.950 . S
C762 C763 1.349 . S
C762 C764 1.327 . S
C762 H787 0.950 . S
C763 C762 1.349 . S
C763 C779 1.349 . S
C764 C762 1.327 . S
C764 C783 1.429 . S
C764 H788 0.950 . S
C765 C782 1.574 . S
C765 C784 1.368 . S
C765 H789 0.949 . S
H766 C770 0.949 . S
C767 C768 1.349 . S
C767 C769 1.327 . S
C767 H790 0.950 . S
C768 C767 1.349 . S
C768 C780 1.349 . S
C769 C767 1.327 . S
C769 C785 1.429 . S
C769 H791 0.950 . S
C770 H766 0.949 . S
C770 C778 1.574 . S
C770 C786 1.368 . S
H771 C779 0.950 . S
H772 C777 0.950 . S
H773 C778 0.949 . S
H774 C780 0.950 . S
H775 C781 0.950 . S
H776 C782 0.949 . S
C777 H772 0.950 . S
C777 C779 1.327 . S
C777 C783 1.429 . S
C778 C770 1.574 . S
C778 H773 0.949 . S
C778 C784 1.368 . S
C779 C763 1.349 . S
C779 H771 0.950 . S
C779 C777 1.327 . S
C780 C768 1.349 . S
C780 H774 0.950 . S
C780 C781 1.327 . S
C781 H775 0.950 . S
C781 C780 1.327 . S
C781 C785 1.429 . S
C782 C765 1.574 . S
C782 H776 0.949 . S
C782 C786 1.368 . S
C783 C764 1.429 . S
C783 C777 1.429 . S
C783 C784 1.523 . S
C784 C765 1.368 . S
C784 C778 1.368 . S
C784 C783 1.523 . S
C785 C769 1.429 . S
C785 C781 1.429 . S
C785 C786 1.523 . S
C786 C770 1.368 . S
C786 C782 1.368 . S
C786 C785 1.523 . S
H787 C762 0.950 . S
H788 C764 0.950 . S
H789 C765 0.949 . S
H790 C767 0.950 . S
H791 C769 0.950 . S
C792 C793 1.349 . S
C792 C794 1.327 . S
C792 H817 0.950 . S
C793 C792 1.349 . S
C793 C809 1.349 . S
C794 C792 1.327 . S
C794 C813 1.429 . S
C794 H818 0.950 . S
C795 C812 1.574 . S
C795 C814 1.368 . S
C795 H819 0.949 . S
H796 C800 0.949 . S
C797 C798 1.349 . S
C797 C799 1.327 . S
C797 H820 0.950 . S
C798 C797 1.349 . S
C798 C810 1.349 . S
C799 C797 1.327 . S
C799 C815 1.429 . S
C799 H821 0.950 . S
C800 H796 0.949 . S
C800 C808 1.574 . S
C800 C816 1.368 . S
H801 C809 0.950 1_565 S
H802 C807 0.950 . S
H803 C808 0.949 . S
H804 C810 0.950 . S
H805 C811 0.950 . S
H806 C812 0.949 . S
C807 H802 0.950 . S
C807 C809 1.327 . S
C807 C813 1.429 . S
C808 C800 1.574 . S
C808 H803 0.949 . S
C808 C814 1.368 . S
C809 C793 1.349 . S
C809 H801 0.950 1_545 S
C809 C807 1.327 . S
C810 C798 1.349 . S
C810 H804 0.950 . S
C810 C811 1.327 . S
C811 H805 0.950 . S
C811 C810 1.327 . S
C811 C815 1.429 . S
C812 C795 1.574 . S
C812 H806 0.949 . S
C812 C816 1.368 . S
C813 C794 1.429 . S
C813 C807 1.429 . S
C813 C814 1.523 . S
C814 C795 1.368 . S
C814 C808 1.368 . S
C814 C813 1.523 . S
C815 C799 1.429 . S
C815 C811 1.429 . S
C815 C816 1.523 . S
C816 C800 1.368 . S
C816 C812 1.368 . S
C816 C815 1.523 . S
H817 C792 0.950 . S
H818 C794 0.950 . S
H819 C795 0.949 . S
H820 C797 0.950 . S
H821 C799 0.950 . S
C822 C823 1.349 . S
C822 C824 1.327 . S
C822 H847 0.950 . S
C823 C822 1.349 . S
C823 C839 1.349 . S
C824 C822 1.327 . S
C824 C843 1.429 . S
C824 H848 0.950 . S
C825 C842 1.574 . S
C825 C844 1.368 . S
C825 H849 0.949 . S
H826 C830 0.949 . S
C827 C828 1.349 . S
C827 C829 1.327 . S
C827 H850 0.950 . S
C828 C827 1.349 . S
C828 C840 1.349 . S
C829 C827 1.327 . S
C829 C845 1.429 . S
C829 H851 0.950 . S
C830 H826 0.949 . S
C830 C838 1.574 . S
C830 C846 1.368 . S
H831 C839 0.950 . S
H832 C837 0.950 . S
H833 C838 0.949 . S
H834 C840 0.950 . S
H835 C841 0.950 . S
H836 C842 0.949 . S
C837 H832 0.950 . S
C837 C839 1.327 . S
C837 C843 1.429 . S
C838 C830 1.574 . S
C838 H833 0.949 . S
C838 C844 1.368 . S
C839 C823 1.349 . S
C839 H831 0.950 . S
C839 C837 1.327 . S
C840 C828 1.349 . S
C840 H834 0.950 . S
C840 C841 1.327 . S
C841 H835 0.950 . S
C841 C840 1.327 . S
C841 C845 1.429 . S
C842 C825 1.574 . S
C842 H836 0.949 . S
C842 C846 1.368 . S
C843 C824 1.429 . S
C843 C837 1.429 . S
C843 C844 1.523 . S
C844 C825 1.368 . S
C844 C838 1.368 . S
C844 C843 1.523 . S
C845 C829 1.429 . S
C845 C841 1.429 . S
C845 C846 1.523 . S
C846 C830 1.368 . S
C846 C842 1.368 . S
C846 C845 1.523 . S
H847 C822 0.950 . S
H848 C824 0.950 . S
H849 C825 0.949 . S
H850 C827 0.950 . S
H851 C829 0.950 . S
C852 C853 1.349 1_556 S
C852 C854 1.327 . S
C852 H877 0.950 . S
C853 C852 1.349 1_554 S
C853 C869 1.349 . S
C854 C852 1.327 . S
C854 C873 1.429 1_546 S
C854 H878 0.934 1_545 S
C855 C872 1.574 . S
C855 C874 1.368 . S
C855 H879 0.949 . S
H856 C860 0.952 . S
C857 C858 1.349 . S
C857 C859 1.327 . S
C857 H880 0.950 . S
C858 C857 1.349 . S
C858 C870 1.349 . S
C859 C857 1.327 . S
C859 C875 1.429 . S
C859 H881 0.950 . S
C860 H856 0.952 . S
C860 C868 1.574 . S
C860 C876 1.368 . S
H861 C869 0.950 . S
H862 C867 0.950 . S
H863 C868 0.949 1_556 S
H864 C870 0.950 . S
H865 C871 0.950 . S
H866 C872 0.949 . S
C867 H862 0.950 . S
C867 C869 1.327 . S
C867 C873 1.429 1_545 S
C868 C860 1.574 . S
C868 H863 0.949 1_554 S
C868 C874 1.368 . S
C869 C853 1.349 . S
C869 H861 0.950 . S
C869 C867 1.327 . S
C870 C858 1.349 . S
C870 H864 0.950 . S
C870 C871 1.327 . S
C871 H865 0.950 . S
C871 C870 1.327 . S
C871 C875 1.429 . S
C872 C855 1.574 . S
C872 H866 0.949 . S
C872 C876 1.368 . S
C873 C854 1.429 1_564 S
C873 C867 1.429 1_565 S
C873 C874 1.523 . S
C874 C855 1.368 . S
C874 C868 1.368 . S
C874 C873 1.523 . S
C875 C859 1.429 . S
C875 C871 1.429 . S
C875 C876 1.523 . S
C876 C860 1.368 . S
C876 C872 1.368 . S
C876 C875 1.523 . S
H877 C852 0.950 . S
H878 C854 0.934 1_565 S
H879 C855 0.949 . S
H880 C857 0.950 . S
H881 C859 0.950 . S
C882 C883 1.349 . S
C882 C884 1.327 . S
C882 H907 0.950 . S
C883 C882 1.349 . S
C883 C899 1.349 1_556 S
C884 C882 1.327 . S
C884 C903 1.429 . S
C884 H908 0.950 . S
C885 C902 1.574 . S
C885 C904 1.368 . S
C885 H909 0.949 1_556 S
H886 C890 0.949 . S
C887 C888 1.349 . S
C887 C889 1.327 . S
C887 H910 0.950 . S
C888 C887 1.349 . S
C888 C900 1.349 . S
C889 C887 1.327 . S
C889 C905 1.429 . S
C889 H911 0.950 . S
C890 H886 0.949 . S
C890 C898 1.574 . S
C890 C906 1.368 . S
H891 C899 0.950 . S
H892 C897 0.950 . S
H893 C898 0.949 . S
H894 C900 0.950 . S
H895 C901 0.950 . S
H896 C902 0.949 . S
C897 H892 0.950 . S
C897 C899 1.327 . S
C897 C903 1.429 1_554 S
C898 C890 1.574 . S
C898 H893 0.949 . S
C898 C904 1.368 . S
C899 C883 1.349 1_554 S
C899 H891 0.950 . S
C899 C897 1.327 . S
C900 C888 1.349 . S
C900 H894 0.950 . S
C900 C901 1.327 . S
C901 H895 0.950 . S
C901 C900 1.327 . S
C901 C905 1.429 . S
C902 C885 1.574 . S
C902 H896 0.949 . S
C902 C906 1.368 . S
C903 C884 1.429 . S
C903 C897 1.429 1_556 S
C903 C904 1.523 . S
C904 C885 1.368 . S
C904 C898 1.368 . S
C904 C903 1.523 . S
C905 C889 1.429 . S
C905 C901 1.429 . S
C905 C906 1.523 . S
C906 C890 1.368 . S
C906 C902 1.368 . S
C906 C905 1.523 . S
H907 C882 0.950 . S
H908 C884 0.950 . S
H909 C885 0.949 1_554 S
H910 C887 0.950 . S
H911 C889 0.950 . S
C912 C913 1.349 . S
C912 C914 1.327 . S
C912 H937 0.950 . S
C913 C912 1.349 . S
C913 C929 1.349 . S
C914 C912 1.327 . S
C914 C933 1.429 . S
C914 H938 0.950 . S
C915 C932 1.574 . S
C915 C934 1.368 . S
C915 H939 0.949 . S
H916 C920 0.949 . S
C917 C918 1.349 . S
C917 C919 1.327 . S
C917 H940 0.950 . S
C918 C917 1.349 . S
C918 C930 1.349 . S
C919 C917 1.327 . S
C919 C935 1.429 . S
C919 H941 0.950 . S
C920 H916 0.949 . S
C920 C928 1.574 . S
C920 C936 1.368 . S
H921 C929 0.950 . S
H922 C927 0.950 . S
H923 C928 0.949 . S
H924 C930 0.950 . S
H925 C931 0.950 . S
H926 C932 0.949 . S
C927 H922 0.950 . S
C927 C929 1.327 . S
C927 C933 1.429 . S
C928 C920 1.574 . S
C928 H923 0.949 . S
C928 C934 1.368 . S
C929 C913 1.349 . S
C929 H921 0.950 . S
C929 C927 1.327 . S
C930 C918 1.349 . S
C930 H924 0.950 . S
C930 C931 1.327 . S
C931 H925 0.950 . S
C931 C930 1.327 . S
C931 C935 1.429 . S
C932 C915 1.574 . S
C932 H926 0.949 . S
C932 C936 1.368 . S
C933 C914 1.429 . S
C933 C927 1.429 . S
C933 C934 1.523 . S
C934 C915 1.368 . S
C934 C928 1.368 . S
C934 C933 1.523 . S
C935 C919 1.429 . S
C935 C931 1.429 . S
C935 C936 1.523 . S
C936 C920 1.368 . S
C936 C932 1.368 . S
C936 C935 1.523 . S
H937 C912 0.950 . S
H938 C914 0.950 . S
H939 C915 0.949 . S
H940 C917 0.950 . S
H941 C919 0.950 . S
C942 C943 1.349 . S
C942 C944 1.327 . S
C942 H967 0.950 . S
C943 C942 1.349 . S
C943 C959 1.349 . S
C944 C942 1.327 . S
C944 C963 1.429 . S
C944 H968 0.950 . S
C945 C962 1.574 . S
C945 C964 1.368 . S
C945 H969 0.949 . S
H946 C950 0.949 . S
C947 C948 1.349 . S
C947 C949 1.327 . S
C947 H970 0.950 . S
C948 C947 1.349 . S
C948 C960 1.349 . S
C949 C947 1.327 . S
C949 C965 1.429 . S
C949 H971 0.950 . S
C950 H946 0.949 . S
C950 C958 1.574 . S
C950 C966 1.368 . S
H951 C959 0.950 . S
H952 C957 0.950 . S
H953 C958 0.949 . S
H954 C960 0.950 . S
H955 C961 0.950 . S
H956 C962 0.949 . S
C957 H952 0.950 . S
C957 C959 1.327 . S
C957 C963 1.429 . S
C958 C950 1.574 . S
C958 H953 0.949 . S
C958 C964 1.368 . S
C959 C943 1.349 . S
C959 H951 0.950 . S
C959 C957 1.327 . S
C960 C948 1.349 . S
C960 H954 0.950 . S
C960 C961 1.327 . S
C961 H955 0.950 . S
C961 C960 1.327 . S
C961 C965 1.429 . S
C962 C945 1.574 . S
C962 H956 0.949 . S
C962 C966 1.368 . S
C963 C944 1.429 . S
C963 C957 1.429 . S
C963 C964 1.523 . S
C964 C945 1.368 . S
C964 C958 1.368 . S
C964 C963 1.523 . S
C965 C949 1.429 . S
C965 C961 1.429 . S
C965 C966 1.523 . S
C966 C950 1.368 . S
C966 C962 1.368 . S
C966 C965 1.523 . S
H967 C942 0.950 . S
H968 C944 0.950 . S
H969 C945 0.949 . S
H970 C947 0.950 . S
H971 C949 0.950 . S
C972 C973 1.349 . S
C972 C974 1.327 . S
C972 H997 0.950 . S
C973 C972 1.349 . S
C973 C989 1.349 . S
C974 C972 1.327 . S
C974 C993 1.429 . S
C974 H998 0.950 . S
C975 C992 1.574 . S
C975 C994 1.368 . S
C975 H999 0.949 . S
H976 C980 0.949 . S
C977 C978 1.349 . S
C977 C979 1.327 . S
C977 H1000 0.950 . S
C978 C977 1.349 . S
C978 C990 1.349 . S
C979 C977 1.327 . S
C979 C995 1.429 . S
C979 H1001 0.950 . S
C980 H976 0.949 . S
C980 C988 1.574 . S
C980 C996 1.368 . S
H981 C989 0.950 . S
H982 C987 0.950 . S
H983 C988 0.949 . S
H984 C990 0.950 . S
H985 C991 0.950 . S
H986 C992 0.949 . S
C987 H982 0.950 . S
C987 C989 1.327 . S
C987 C993 1.429 . S
C988 C980 1.574 . S
C988 H983 0.949 . S
C988 C994 1.368 . S
C989 C973 1.349 . S
C989 H981 0.950 . S
C989 C987 1.327 . S
C990 C978 1.349 . S
C990 H984 0.950 . S
C990 C991 1.327 . S
C991 H985 0.950 . S
C991 C990 1.327 . S
C991 C995 1.429 . S
C992 C975 1.574 . S
C992 H986 0.949 . S
C992 C996 1.368 . S
C993 C974 1.429 . S
C993 C987 1.429 . S
C993 C994 1.523 . S
C994 C975 1.368 . S
C994 C988 1.368 . S
C994 C993 1.523 . S
C995 C979 1.429 . S
C995 C991 1.429 . S
C995 C996 1.523 . S
C996 C980 1.368 . S
C996 C992 1.368 . S
C996 C995 1.523 . S
H997 C972 0.950 . S
H998 C974 0.950 . S
H999 C975 0.949 . S
H1000 C977 0.950 . S
H1001 C979 0.950 . S
C1002 C1003 1.349 . S
C1002 C1004 1.327 . S
C1002 H1027 0.950 . S
C1003 C1002 1.349 . S
C1003 C1019 1.349 . S
C1004 C1002 1.327 . S
C1004 C1023 1.429 1_565 S
C1004 H1028 0.950 . S
C1005 C1022 1.574 . S
C1005 C1024 1.368 . S
C1005 H1029 0.949 . S
H1006 C1010 0.949 . S
C1007 C1008 1.349 . S
C1007 C1009 1.327 . S
C1007 H1030 0.950 . S
C1008 C1007 1.349 . S
C1008 C1020 1.349 . S
C1009 C1007 1.327 . S
C1009 C1025 1.429 . S
C1009 H1031 0.950 . S
C1010 H1006 0.949 . S
C1010 C1018 1.574 . S
C1010 C1026 1.368 . S
H1011 C1019 0.950 . S
H1012 C1017 0.956 . S
H1013 C1018 0.949 . S
H1014 C1020 0.950 . S
H1015 C1021 0.950 . S
H1016 C1022 0.949 . S
C1017 H1012 0.956 . S
C1017 C1019 1.327 . S
C1017 C1023 1.429 1_565 S
C1018 C1010 1.574 . S
C1018 H1013 0.949 . S
C1018 C1024 1.368 . S
C1019 C1003 1.349 . S
C1019 H1011 0.950 . S
C1019 C1017 1.327 . S
C1020 C1008 1.349 . S
C1020 H1014 0.950 . S
C1020 C1021 1.327 . S
C1021 H1015 0.950 . S
C1021 C1020 1.327 . S
C1021 C1025 1.429 . S
C1022 C1005 1.574 . S
C1022 H1016 0.949 . S
C1022 C1026 1.368 . S
C1023 C1004 1.429 1_545 S
C1023 C1017 1.429 1_545 S
C1023 C1024 1.523 . S
C1024 C1005 1.368 . S
C1024 C1018 1.368 . S
C1024 C1023 1.523 . S
C1025 C1009 1.429 . S
C1025 C1021 1.429 . S
C1025 C1026 1.523 . S
C1026 C1010 1.368 . S
C1026 C1022 1.368 . S
C1026 C1025 1.523 . S
H1027 C1002 0.950 . S
H1028 C1004 0.950 . S
H1029 C1005 0.949 . S
H1030 C1007 0.950 . S
H1031 C1009 0.950 . S
C1032 C1033 1.349 . S
C1032 C1034 1.327 . S
C1032 H1057 0.950 . S
C1033 C1032 1.349 . S
C1033 C1049 1.349 . S
C1034 C1032 1.327 . S
C1034 C1053 1.429 . S
C1034 H1058 0.950 . S
C1035 C1052 1.574 . S
C1035 C1054 1.368 . S
C1035 H1059 0.949 . S
H1036 C1040 0.949 . S
C1037 C1038 1.349 . S
C1037 C1039 1.327 . S
C1037 H1060 0.950 . S
C1038 C1037 1.349 . S
C1038 C1050 1.349 . S
C1039 C1037 1.327 . S
C1039 C1055 1.429 . S
C1039 H1061 0.950 . S
C1040 H1036 0.949 . S
C1040 C1048 1.574 . S
C1040 C1056 1.368 . S
H1041 C1049 0.950 . S
H1042 C1047 0.950 . S
H1043 C1048 0.949 . S
H1044 C1050 0.950 . S
H1045 C1051 0.950 . S
H1046 C1052 0.949 . S
C1047 H1042 0.950 . S
C1047 C1049 1.327 . S
C1047 C1053 1.429 . S
C1048 C1040 1.574 . S
C1048 H1043 0.949 . S
C1048 C1054 1.368 . S
C1049 C1033 1.349 . S
C1049 H1041 0.950 . S
C1049 C1047 1.327 . S
C1050 C1038 1.349 . S
C1050 H1044 0.950 . S
C1050 C1051 1.327 . S
C1051 H1045 0.950 . S
C1051 C1050 1.327 . S
C1051 C1055 1.429 . S
C1052 C1035 1.574 . S
C1052 H1046 0.949 . S
C1052 C1056 1.368 . S
C1053 C1034 1.429 . S
C1053 C1047 1.429 . S
C1053 C1054 1.523 . S
C1054 C1035 1.368 . S
C1054 C1048 1.368 . S
C1054 C1053 1.523 . S
C1055 C1039 1.429 . S
C1055 C1051 1.429 . S
C1055 C1056 1.523 . S
C1056 C1040 1.368 . S
C1056 C1052 1.368 . S
C1056 C1055 1.523 . S
H1057 C1032 0.950 . S
H1058 C1034 0.950 . S
H1059 C1035 0.949 . S
H1060 C1037 0.950 . S
H1061 C1039 0.950 . S
C1062 C1063 1.349 . S
C1062 C1064 1.327 . S
C1062 H1087 0.950 . S
C1063 C1062 1.349 . S
C1063 C1079 1.349 . S
C1064 C1062 1.327 . S
C1064 C1083 1.429 . S
C1064 H1088 0.950 . S
C1065 C1082 1.574 . S
C1065 C1084 1.368 . S
C1065 H1089 0.949 . S
H1066 C1070 0.949 . S
C1067 C1068 1.349 . S
C1067 C1069 1.327 . S
C1067 H1090 0.950 . S
C1068 C1067 1.349 . S
C1068 C1080 1.349 . S
C1069 C1067 1.327 . S
C1069 C1085 1.429 . S
C1069 H1091 0.950 . S
C1070 H1066 0.949 . S
C1070 C1078 1.574 . S
C1070 C1086 1.368 . S
H1071 C1079 0.950 . S
H1072 C1077 0.950 . S
H1073 C1078 0.949 . S
H1074 C1080 0.950 . S
H1075 C1081 0.950 . S
H1076 C1082 0.949 . S
C1077 H1072 0.950 . S
C1077 C1079 1.327 . S
C1077 C1083 1.429 . S
C1078 C1070 1.574 . S
C1078 H1073 0.949 . S
C1078 C1084 1.368 . S
C1079 C1063 1.349 . S
C1079 H1071 0.950 . S
C1079 C1077 1.327 . S
C1080 C1068 1.349 . S
C1080 H1074 0.950 . S
C1080 C1081 1.327 . S
C1081 H1075 0.950 . S
C1081 C1080 1.327 . S
C1081 C1085 1.429 . S
C1082 C1065 1.574 . S
C1082 H1076 0.949 . S
C1082 C1086 1.368 . S
C1083 C1064 1.429 . S
C1083 C1077 1.429 . S
C1083 C1084 1.523 . S
C1084 C1065 1.368 . S
C1084 C1078 1.368 . S
C1084 C1083 1.523 . S
C1085 C1069 1.429 . S
C1085 C1081 1.429 . S
C1085 C1086 1.523 . S
C1086 C1070 1.368 . S
C1086 C1082 1.368 . S
C1086 C1085 1.523 . S
H1087 C1062 0.950 . S
H1088 C1064 0.950 . S
H1089 C1065 0.949 . S
H1090 C1067 0.950 . S
H1091 C1069 0.950 . S
C1092 C1093 1.349 . S
C1092 C1094 1.327 . S
C1092 H1117 0.950 . S
C1093 C1092 1.349 . S
C1093 C1109 1.349 . S
C1094 C1092 1.327 . S
C1094 C1113 1.429 . S
C1094 H1118 0.950 . S
C1095 C1112 1.574 . S
C1095 C1114 1.368 . S
C1095 H1119 0.949 . S
H1096 C1100 0.949 . S
C1097 C1098 1.349 . S
C1097 C1099 1.327 . S
C1097 H1120 0.950 . S
C1098 C1097 1.349 . S
C1098 C1110 1.349 . S
C1099 C1097 1.327 . S
C1099 C1115 1.429 . S
C1099 H1121 0.950 . S
C1100 H1096 0.949 . S
C1100 C1108 1.574 . S
C1100 C1116 1.368 . S
H1101 C1109 0.950 . S
H1102 C1107 0.950 . S
H1103 C1108 0.949 . S
H1104 C1110 0.950 . S
H1105 C1111 0.950 . S
H1106 C1112 0.949 . S
C1107 H1102 0.950 . S
C1107 C1109 1.327 . S
C1107 C1113 1.429 . S
C1108 C1100 1.574 . S
C1108 H1103 0.949 . S
C1108 C1114 1.368 . S
C1109 C1093 1.349 . S
C1109 H1101 0.950 . S
C1109 C1107 1.327 . S
C1110 C1098 1.349 . S
C1110 H1104 0.950 . S
C1110 C1111 1.327 . S
C1111 H1105 0.950 . S
C1111 C1110 1.327 . S
C1111 C1115 1.429 . S
C1112 C1095 1.574 . S
C1112 H1106 0.949 . S
C1112 C1116 1.368 . S
C1113 C1094 1.429 . S
C1113 C1107 1.429 . S
C1113 C1114 1.523 . S
C1114 C1095 1.368 . S
C1114 C1108 1.368 . S
C1114 C1113 1.523 . S
C1115 C1099 1.429 . S
C1115 C1111 1.429 . S
C1115 C1116 1.523 . S
C1116 C1100 1.368 . S
C1116 C1112 1.368 . S
C1116 C1115 1.523 . S
H1117 C1092 0.950 . S
H1118 C1094 0.950 . S
H1119 C1095 0.949 . S
H1120 C1097 0.950 . S
H1121 C1099 0.950 . S
C1122 C1123 1.349 . S
C1122 C1124 1.327 . S
C1122 H1147 0.950 . S
C1123 C1122 1.349 . S
C1123 C1139 1.349 . S
C1124 C1122 1.327 . S
C1124 C1143 1.429 . S
C1124 H1148 0.950 . S
C1125 C1142 1.574 . S
C1125 C1144 1.368 . S
C1125 H1149 0.949 . S
H1126 C1130 0.949 . S
C1127 C1128 1.349 . S
C1127 C1129 1.327 . S
C1127 H1150 0.950 . S
C1128 C1127 1.349 . S
C1128 C1140 1.349 . S
C1129 C1127 1.327 . S
C1129 C1145 1.429 . S
C1129 H1151 0.950 . S
C1130 H1126 0.949 . S
C1130 C1138 1.574 . S
C1130 C1146 1.368 . S
H1131 C1139 0.950 . S
H1132 C1137 0.950 . S
H1133 C1138 0.949 . S
H1134 C1140 0.950 . S
H1135 C1141 0.950 . S
H1136 C1142 0.949 . S
C1137 H1132 0.950 . S
C1137 C1139 1.327 . S
C1137 C1143 1.429 . S
C1138 C1130 1.574 . S
C1138 H1133 0.949 . S
C1138 C1144 1.368 . S
C1139 C1123 1.349 . S
C1139 H1131 0.950 . S
C1139 C1137 1.327 . S
C1140 C1128 1.349 . S
C1140 H1134 0.950 . S
C1140 C1141 1.327 . S
C1141 H1135 0.950 . S
C1141 C1140 1.327 . S
C1141 C1145 1.429 . S
C1142 C1125 1.574 . S
C1142 H1136 0.949 . S
C1142 C1146 1.368 . S
C1143 C1124 1.429 . S
C1143 C1137 1.429 . S
C1143 C1144 1.523 . S
C1144 C1125 1.368 . S
C1144 C1138 1.368 . S
C1144 C1143 1.523 . S
C1145 C1129 1.429 . S
C1145 C1141 1.429 . S
C1145 C1146 1.523 . S
C1146 C1130 1.368 . S
C1146 C1142 1.368 . S
C1146 C1145 1.523 . S
H1147 C1122 0.950 . S
H1148 C1124 0.950 . S
H1149 C1125 0.949 . S
H1150 C1127 0.950 . S
H1151 C1129 0.950 . S
C1152 C1153 1.349 . S
C1152 C1154 1.327 . S
C1152 H1177 0.950 . S
C1153 C1152 1.349 . S
C1153 C1169 1.349 1_655 S
C1154 C1152 1.327 . S
C1154 C1173 1.429 1_554 S
C1154 H1178 0.950 . S
C1155 C1172 1.574 . S
C1155 C1174 1.368 . S
C1155 H1179 0.949 1_655 S
H1156 C1160 0.949 . S
C1157 C1158 1.349 . S
C1157 C1159 1.327 . S
C1157 H1180 0.950 . S
C1158 C1157 1.349 . S
C1158 C1170 1.349 . S
C1159 C1157 1.327 . S
C1159 C1175 1.429 . S
C1159 H1181 0.950 . S
C1160 H1156 0.949 . S
C1160 C1168 1.574 . S
C1160 C1176 1.368 . S
H1161 C1169 0.950 . S
H1162 C1167 0.950 1_456 S
H1163 C1168 0.949 . S
H1164 C1170 0.950 . S
H1165 C1171 0.950 . S
H1166 C1172 0.949 . S
C1167 H1162 0.950 1_654 S
C1167 C1169 1.327 1_655 S
C1167 C1173 1.429 1_554 S
C1168 C1160 1.574 . S
C1168 H1163 0.949 . S
C1168 C1174 1.368 . S
C1169 C1153 1.349 1_455 S
C1169 H1161 0.950 . S
C1169 C1167 1.327 1_455 S
C1170 C1158 1.349 . S
C1170 H1164 0.950 . S
C1170 C1171 1.327 . S
C1171 H1165 0.950 . S
C1171 C1170 1.327 . S
C1171 C1175 1.429 . S
C1172 C1155 1.574 . S
C1172 H1166 0.949 . S
C1172 C1176 1.368 . S
C1173 C1154 1.429 1_556 S
C1173 C1167 1.429 1_556 S
C1173 C1174 1.523 . S
C1174 C1155 1.368 . S
C1174 C1168 1.368 . S
C1174 C1173 1.523 . S
C1175 C1159 1.429 . S
C1175 C1171 1.429 . S
C1175 C1176 1.523 . S
C1176 C1160 1.368 . S
C1176 C1172 1.368 . S
C1176 C1175 1.523 . S
H1177 C1152 0.950 . S
H1178 C1154 0.950 . S
H1179 C1155 0.949 1_455 S
H1180 C1157 0.950 . S
H1181 C1159 0.950 . S
C1182 C1183 1.349 . S
C1182 C1184 1.327 . S
C1182 H1207 0.950 . S
C1183 C1182 1.349 . S
C1183 C1199 1.349 . S
C1184 C1182 1.327 . S
C1184 C1203 1.429 . S
C1184 H1208 0.950 . S
C1185 C1202 1.574 . S
C1185 C1204 1.368 . S
C1185 H1209 0.949 . S
H1186 C1190 0.949 . S
C1187 C1188 1.349 . S
C1187 C1189 1.327 . S
C1187 H1210 0.950 . S
C1188 C1187 1.349 . S
C1188 C1200 1.349 . S
C1189 C1187 1.327 . S
C1189 C1205 1.429 . S
C1189 H1211 0.950 . S
C1190 H1186 0.949 . S
C1190 C1198 1.574 . S
C1190 C1206 1.368 . S
H1191 C1199 0.950 . S
H1192 C1197 0.950 . S
H1193 C1198 0.949 . S
H1194 C1200 0.950 . S
H1195 C1201 0.950 . S
H1196 C1202 0.949 . S
C1197 H1192 0.950 . S
C1197 C1199 1.327 . S
C1197 C1203 1.429 . S
C1198 C1190 1.574 . S
C1198 H1193 0.949 . S
C1198 C1204 1.368 . S
C1199 C1183 1.349 . S
C1199 H1191 0.950 . S
C1199 C1197 1.327 . S
C1200 C1188 1.349 . S
C1200 H1194 0.950 . S
C1200 C1201 1.327 . S
C1201 H1195 0.950 . S
C1201 C1200 1.327 . S
C1201 C1205 1.429 . S
C1202 C1185 1.574 . S
C1202 H1196 0.949 . S
C1202 C1206 1.368 . S
C1203 C1184 1.429 . S
C1203 C1197 1.429 . S
C1203 C1204 1.523 . S
C1204 C1185 1.368 . S
C1204 C1198 1.368 . S
C1204 C1203 1.523 . S
C1205 C1189 1.429 . S
C1205 C1201 1.429 . S
C1205 C1206 1.523 . S
C1206 C1190 1.368 . S
C1206 C1202 1.368 . S
C1206 C1205 1.523 . S
H1207 C1182 0.950 . S
H1208 C1184 0.950 . S
H1209 C1185 0.949 . S
H1210 C1187 0.950 . S
H1211 C1189 0.950 . S
C1212 C1213 1.349 . S
C1212 C1214 1.327 1_556 S
C1212 H1237 0.950 . S
C1213 C1212 1.349 . S
C1213 C1229 1.349 . S
C1214 C1212 1.327 1_554 S
C1214 C1233 1.429 . S
C1214 H1238 0.950 . S
C1215 C1232 1.574 . S
C1215 C1234 1.368 . S
C1215 H1239 0.949 . S
H1216 C1220 0.949 . S
C1217 C1218 1.349 . S
C1217 C1219 1.327 . S
C1217 H1240 0.950 . S
C1218 C1217 1.349 . S
C1218 C1230 1.349 . S
C1219 C1217 1.327 . S
C1219 C1235 1.429 . S
C1219 H1241 0.950 . S
C1220 H1216 0.949 . S
C1220 C1228 1.574 . S
C1220 C1236 1.368 . S
H1221 C1229 0.950 . S
H1222 C1227 0.950 . S
H1223 C1228 0.949 . S
H1224 C1230 0.950 . S
H1225 C1231 0.950 . S
H1226 C1232 0.949 . S
C1227 H1222 0.950 . S
C1227 C1229 1.327 . S
C1227 C1233 1.429 1_556 S
C1228 C1220 1.574 . S
C1228 H1223 0.949 . S
C1228 C1234 1.368 . S
C1229 C1213 1.349 . S
C1229 H1221 0.950 . S
C1229 C1227 1.327 . S
C1230 C1218 1.349 . S
C1230 H1224 0.950 . S
C1230 C1231 1.327 . S
C1231 H1225 0.950 . S
C1231 C1230 1.327 . S
C1231 C1235 1.429 . S
C1232 C1215 1.574 . S
C1232 H1226 0.949 . S
C1232 C1236 1.368 . S
C1233 C1214 1.429 . S
C1233 C1227 1.429 1_554 S
C1233 C1234 1.523 . S
C1234 C1215 1.368 . S
C1234 C1228 1.368 . S
C1234 C1233 1.523 . S
C1235 C1219 1.429 . S
C1235 C1231 1.429 . S
C1235 C1236 1.523 . S
C1236 C1220 1.368 . S
C1236 C1232 1.368 . S
C1236 C1235 1.523 . S
H1237 C1212 0.950 . S
H1238 C1214 0.950 . S
H1239 C1215 0.949 . S
H1240 C1217 0.950 . S
H1241 C1219 0.950 . S
C1242 C1243 1.349 . S
C1242 C1244 1.327 . S
C1242 H1267 0.950 . S
C1243 C1242 1.349 . S
C1243 C1259 1.349 . S
C1244 C1242 1.327 . S
C1244 C1263 1.429 . S
C1244 H1268 0.950 . S
C1245 C1262 1.574 . S
C1245 C1264 1.368 . S
C1245 H1269 0.949 . S
H1246 C1250 0.949 . S
C1247 C1248 1.349 . S
C1247 C1249 1.327 . S
C1247 H1270 0.950 . S
C1248 C1247 1.349 . S
C1248 C1260 1.349 . S
C1249 C1247 1.327 . S
C1249 C1265 1.429 . S
C1249 H1271 0.950 . S
C1250 H1246 0.949 . S
C1250 C1258 1.574 . S
C1250 C1266 1.368 . S
H1251 C1259 0.950 . S
H1252 C1257 0.950 . S
H1253 C1258 0.949 . S
H1254 C1260 0.950 . S
H1255 C1261 0.950 . S
H1256 C1262 0.949 . S
C1257 H1252 0.950 . S
C1257 C1259 1.327 . S
C1257 C1263 1.429 . S
C1258 C1250 1.574 . S
C1258 H1253 0.949 . S
C1258 C1264 1.368 . S
C1259 C1243 1.349 . S
C1259 H1251 0.950 . S
C1259 C1257 1.327 . S
C1260 C1248 1.349 . S
C1260 H1254 0.950 . S
C1260 C1261 1.327 . S
C1261 H1255 0.950 . S
C1261 C1260 1.327 . S
C1261 C1265 1.429 . S
C1262 C1245 1.574 . S
C1262 H1256 0.949 . S
C1262 C1266 1.368 . S
C1263 C1244 1.429 . S
C1263 C1257 1.429 . S
C1263 C1264 1.523 . S
C1264 C1245 1.368 . S
C1264 C1258 1.368 . S
C1264 C1263 1.523 . S
C1265 C1249 1.429 . S
C1265 C1261 1.429 . S
C1265 C1266 1.523 . S
C1266 C1250 1.368 . S
C1266 C1262 1.368 . S
C1266 C1265 1.523 . S
H1267 C1242 0.950 . S
H1268 C1244 0.950 . S
H1269 C1245 0.949 . S
H1270 C1247 0.950 . S
H1271 C1249 0.950 . S
C1272 C1273 1.349 . S
C1272 C1274 1.327 . S
C1272 H1297 0.950 . S
C1273 C1272 1.349 . S
C1273 C1289 1.349 . S
C1274 C1272 1.327 . S
C1274 C1293 1.429 . S
C1274 H1298 0.950 . S
C1275 C1292 1.574 . S
C1275 C1294 1.368 . S
C1275 H1299 0.949 . S
H1276 C1280 0.949 . S
C1277 C1278 1.349 . S
C1277 C1279 1.327 . S
C1277 H1300 0.950 . S
C1278 C1277 1.349 . S
C1278 C1290 1.349 . S
C1279 C1277 1.327 . S
C1279 C1295 1.429 . S
C1279 H1301 0.950 . S
C1280 H1276 0.949 . S
C1280 C1288 1.574 . S
C1280 C1296 1.368 . S
H1281 C1289 0.950 1_455 S
H1282 C1287 0.950 . S
H1283 C1288 0.949 . S
H1284 C1290 0.950 . S
H1285 C1291 0.950 . S
H1286 C1292 0.949 . S
C1287 H1282 0.950 . S
C1287 C1289 1.327 . S
C1287 C1293 1.429 . S
C1288 C1280 1.574 . S
C1288 H1283 0.949 . S
C1288 C1294 1.368 . S
C1289 C1273 1.349 . S
C1289 H1281 0.950 1_655 S
C1289 C1287 1.327 . S
C1290 C1278 1.349 . S
C1290 H1284 0.950 . S
C1290 C1291 1.327 . S
C1291 H1285 0.950 . S
C1291 C1290 1.327 . S
C1291 C1295 1.429 . S
C1292 C1275 1.574 . S
C1292 H1286 0.949 . S
C1292 C1296 1.368 . S
C1293 C1274 1.429 . S
C1293 C1287 1.429 . S
C1293 C1294 1.523 . S
C1294 C1275 1.368 . S
C1294 C1288 1.368 . S
C1294 C1293 1.523 . S
C1295 C1279 1.429 . S
C1295 C1291 1.429 . S
C1295 C1296 1.523 . S
C1296 C1280 1.368 . S
C1296 C1292 1.368 . S
C1296 C1295 1.523 . S
H1297 C1272 0.950 . S
H1298 C1274 0.950 . S
H1299 C1275 0.949 . S
H1300 C1277 0.950 . S
H1301 C1279 0.950 . S
C1302 C1303 1.349 . S
C1302 C1304 1.327 . S
C1302 H1327 0.950 . S
C1303 C1302 1.349 . S
C1303 C1319 1.349 . S
C1304 C1302 1.327 . S
C1304 C1323 1.429 . S
C1304 H1328 0.950 . S
C1305 C1322 1.574 . S
C1305 C1324 1.368 . S
C1305 H1329 0.949 . S
H1306 C1310 0.949 . S
C1307 C1308 1.349 . S
C1307 C1309 1.327 . S
C1307 H1330 0.950 . S
C1308 C1307 1.349 . S
C1308 C1320 1.349 . S
C1309 C1307 1.327 . S
C1309 C1325 1.429 . S
C1309 H1331 0.950 . S
C1310 H1306 0.949 . S
C1310 C1318 1.574 . S
C1310 C1326 1.368 . S
H1311 C1319 0.950 . S
H1312 C1317 0.950 . S
H1313 C1318 0.949 . S
H1314 C1320 0.950 . S
H1315 C1321 0.950 . S
H1316 C1322 0.949 . S
C1317 H1312 0.950 . S
C1317 C1319 1.327 . S
C1317 C1323 1.429 . S
C1318 C1310 1.574 . S
C1318 H1313 0.949 . S
C1318 C1324 1.368 . S
C1319 C1303 1.349 . S
C1319 H1311 0.950 . S
C1319 C1317 1.327 . S
C1320 C1308 1.349 . S
C1320 H1314 0.950 . S
C1320 C1321 1.327 . S
C1321 H1315 0.950 . S
C1321 C1320 1.327 . S
C1321 C1325 1.429 . S
C1322 C1305 1.574 . S
C1322 H1316 0.949 . S
C1322 C1326 1.368 . S
C1323 C1304 1.429 . S
C1323 C1317 1.429 . S
C1323 C1324 1.523 . S
C1324 C1305 1.368 . S
C1324 C1318 1.368 . S
C1324 C1323 1.523 . S
C1325 C1309 1.429 . S
C1325 C1321 1.429 . S
C1325 C1326 1.523 . S
C1326 C1310 1.368 . S
C1326 C1322 1.368 . S
C1326 C1325 1.523 . S
H1327 C1302 0.950 . S
H1328 C1304 0.950 . S
H1329 C1305 0.949 . S
H1330 C1307 0.950 . S
H1331 C1309 0.950 . S
C1332 C1333 1.349 . S
C1332 C1334 1.327 . S
C1332 H1357 0.950 . S
C1333 C1332 1.349 . S
C1333 C1349 1.349 . S
C1334 C1332 1.327 . S
C1334 C1353 1.429 . S
C1334 H1358 0.950 . S
C1335 C1352 1.574 . S
C1335 C1354 1.368 . S
C1335 H1359 0.949 . S
H1336 C1340 0.949 . S
C1337 C1338 1.349 . S
C1337 C1339 1.327 . S
C1337 H1360 0.950 . S
C1338 C1337 1.349 . S
C1338 C1350 1.349 . S
C1339 C1337 1.327 . S
C1339 C1355 1.429 . S
C1339 H1361 0.950 . S
C1340 H1336 0.949 . S
C1340 C1348 1.574 . S
C1340 C1356 1.368 . S
H1341 C1349 0.950 . S
H1342 C1347 0.950 . S
H1343 C1348 0.949 . S
H1344 C1350 0.950 . S
H1345 C1351 0.950 . S
H1346 C1352 0.949 . S
C1347 H1342 0.950 . S
C1347 C1349 1.327 . S
C1347 C1353 1.429 . S
C1348 C1340 1.574 . S
C1348 H1343 0.949 . S
C1348 C1354 1.368 . S
C1349 C1333 1.349 . S
C1349 H1341 0.950 . S
C1349 C1347 1.327 . S
C1350 C1338 1.349 . S
C1350 H1344 0.950 . S
C1350 C1351 1.327 . S
C1351 H1345 0.950 . S
C1351 C1350 1.327 . S
C1351 C1355 1.429 . S
C1352 C1335 1.574 . S
C1352 H1346 0.949 . S
C1352 C1356 1.368 . S
C1353 C1334 1.429 . S
C1353 C1347 1.429 . S
C1353 C1354 1.523 . S
C1354 C1335 1.368 . S
C1354 C1348 1.368 . S
C1354 C1353 1.523 . S
C1355 C1339 1.429 . S
C1355 C1351 1.429 . S
C1355 C1356 1.523 . S
C1356 C1340 1.368 . S
C1356 C1352 1.368 . S
C1356 C1355 1.523 . S
H1357 C1332 0.950 . S
H1358 C1334 0.950 . S
H1359 C1335 0.949 . S
H1360 C1337 0.950 . S
H1361 C1339 0.950 . S
C1362 C1363 1.349 . S
C1362 C1364 1.327 . S
C1362 H1387 0.950 . S
C1363 C1362 1.349 . S
C1363 C1379 1.349 . S
C1364 C1362 1.327 . S
C1364 C1383 1.429 . S
C1364 H1388 0.950 . S
C1365 C1382 1.574 . S
C1365 C1384 1.368 . S
C1365 H1389 0.949 . S
H1366 C1370 0.949 . S
C1367 C1368 1.349 . S
C1367 C1369 1.327 . S
C1367 H1390 0.950 . S
C1368 C1367 1.349 . S
C1368 C1380 1.349 . S
C1369 C1367 1.327 . S
C1369 C1385 1.429 . S
C1369 H1391 0.950 . S
C1370 H1366 0.949 . S
C1370 C1378 1.574 . S
C1370 C1386 1.368 . S
H1371 C1379 0.950 . S
H1372 C1377 0.950 . S
H1373 C1378 0.949 . S
H1374 C1380 0.950 . S
H1375 C1381 0.950 . S
H1376 C1382 0.949 . S
C1377 H1372 0.950 . S
C1377 C1379 1.327 . S
C1377 C1383 1.429 . S
C1378 C1370 1.574 . S
C1378 H1373 0.949 . S
C1378 C1384 1.368 . S
C1379 C1363 1.349 . S
C1379 H1371 0.950 . S
C1379 C1377 1.327 . S
C1380 C1368 1.349 . S
C1380 H1374 0.950 . S
C1380 C1381 1.327 . S
C1381 H1375 0.950 . S
C1381 C1380 1.327 . S
C1381 C1385 1.429 . S
C1382 C1365 1.574 . S
C1382 H1376 0.949 . S
C1382 C1386 1.368 . S
C1383 C1364 1.429 . S
C1383 C1377 1.429 . S
C1383 C1384 1.523 . S
C1384 C1365 1.368 . S
C1384 C1378 1.368 . S
C1384 C1383 1.523 . S
C1385 C1369 1.429 . S
C1385 C1381 1.429 . S
C1385 C1386 1.523 . S
C1386 C1370 1.368 . S
C1386 C1382 1.368 . S
C1386 C1385 1.523 . S
H1387 C1362 0.950 . S
H1388 C1364 0.950 . S
H1389 C1365 0.949 . S
H1390 C1367 0.950 . S
H1391 C1369 0.950 . S
C1392 C1393 1.349 . S
C1392 C1394 1.327 . S
C1392 H1417 0.950 . S
C1393 C1392 1.349 . S
C1393 C1409 1.349 . S
C1394 C1392 1.327 . S
C1394 C1413 1.429 1_655 S
C1394 H1418 0.950 1_655 S
C1395 C1412 1.574 . S
C1395 C1414 1.368 . S
C1395 H1419 0.949 . S
H1396 C1400 0.949 . S
C1397 C1398 1.349 . S
C1397 C1399 1.327 . S
C1397 H1420 0.950 . S
C1398 C1397 1.349 . S
C1398 C1410 1.349 . S
C1399 C1397 1.327 . S
C1399 C1415 1.429 . S
C1399 H1421 0.950 . S
C1400 H1396 0.949 . S
C1400 C1408 1.574 . S
C1400 C1416 1.368 . S
H1401 C1409 0.950 . S
H1402 C1407 0.950 . S
H1403 C1408 0.949 . S
H1404 C1410 0.950 . S
H1405 C1411 0.950 . S
H1406 C1412 0.949 . S
C1407 H1402 0.950 . S
C1407 C1409 1.327 . S
C1407 C1413 1.429 1_655 S
C1408 C1400 1.574 . S
C1408 H1403 0.949 . S
C1408 C1414 1.368 . S
C1409 C1393 1.349 . S
C1409 H1401 0.950 . S
C1409 C1407 1.327 . S
C1410 C1398 1.349 . S
C1410 H1404 0.950 . S
C1410 C1411 1.327 . S
C1411 H1405 0.950 . S
C1411 C1410 1.327 . S
C1411 C1415 1.429 . S
C1412 C1395 1.574 . S
C1412 H1406 0.949 . S
C1412 C1416 1.368 . S
C1413 C1394 1.429 1_455 S
C1413 C1407 1.429 1_455 S
C1413 C1414 1.523 . S
C1414 C1395 1.368 . S
C1414 C1408 1.368 . S
C1414 C1413 1.523 . S
C1415 C1399 1.429 . S
C1415 C1411 1.429 . S
C1415 C1416 1.523 . S
C1416 C1400 1.368 . S
C1416 C1412 1.368 . S
C1416 C1415 1.523 . S
H1417 C1392 0.950 . S
H1418 C1394 0.950 1_455 S
H1419 C1395 0.949 . S
H1420 C1397 0.950 . S
H1421 C1399 0.950 . S
C1422 C1423 1.349 . S
C1422 C1424 1.327 . S
C1422 H1447 0.950 . S
C1423 C1422 1.349 . S
C1423 C1439 1.349 . S
C1424 C1422 1.327 . S
C1424 C1443 1.429 . S
C1424 H1448 0.950 . S
C1425 C1442 1.574 . S
C1425 C1444 1.368 . S
C1425 H1449 0.949 . S
H1426 C1430 0.949 . S
C1427 C1428 1.349 . S
C1427 C1429 1.327 . S
C1427 H1450 0.950 . S
C1428 C1427 1.349 . S
C1428 C1440 1.349 . S
C1429 C1427 1.327 . S
C1429 C1445 1.429 . S
C1429 H1451 0.950 . S
C1430 H1426 0.949 . S
C1430 C1438 1.574 . S
C1430 C1446 1.368 . S
H1431 C1439 0.950 . S
H1432 C1437 0.950 . S
H1433 C1438 0.949 . S
H1434 C1440 0.950 . S
H1435 C1441 0.950 . S
H1436 C1442 0.949 . S
C1437 H1432 0.950 . S
C1437 C1439 1.327 . S
C1437 C1443 1.429 . S
C1438 C1430 1.574 . S
C1438 H1433 0.949 . S
C1438 C1444 1.368 . S
C1439 C1423 1.349 . S
C1439 H1431 0.950 . S
C1439 C1437 1.327 . S
C1440 C1428 1.349 . S
C1440 H1434 0.950 . S
C1440 C1441 1.327 . S
C1441 H1435 0.950 . S
C1441 C1440 1.327 . S
C1441 C1445 1.429 . S
C1442 C1425 1.574 . S
C1442 H1436 0.949 . S
C1442 C1446 1.368 . S
C1443 C1424 1.429 . S
C1443 C1437 1.429 . S
C1443 C1444 1.523 . S
C1444 C1425 1.368 . S
C1444 C1438 1.368 . S
C1444 C1443 1.523 . S
C1445 C1429 1.429 . S
C1445 C1441 1.429 . S
C1445 C1446 1.523 . S
C1446 C1430 1.368 . S
C1446 C1442 1.368 . S
C1446 C1445 1.523 . S
H1447 C1422 0.950 . S
H1448 C1424 0.950 . S
H1449 C1425 0.949 . S
H1450 C1427 0.950 . S
H1451 C1429 0.950 . S
C1452 C1453 1.349 . S
C1452 C1454 1.327 . S
C1452 H1477 0.950 . S
C1453 C1452 1.349 . S
C1453 C1469 1.349 . S
C1454 C1452 1.327 . S
C1454 C1473 1.429 . S
C1454 H1478 0.950 . S
C1455 C1472 1.574 . S
C1455 C1474 1.368 . S
C1455 H1479 0.949 . S
H1456 C1460 0.949 . S
C1457 C1458 1.349 . S
C1457 C1459 1.327 . S
C1457 H1480 0.950 . S
C1458 C1457 1.349 . S
C1458 C1470 1.349 . S
C1459 C1457 1.327 . S
C1459 C1475 1.429 . S
C1459 H1481 0.950 . S
C1460 H1456 0.949 . S
C1460 C1468 1.574 . S
C1460 C1476 1.368 . S
H1461 C1469 0.950 . S
H1462 C1467 0.950 . S
H1463 C1468 0.949 . S
H1464 C1470 0.950 . S
H1465 C1471 0.950 . S
H1466 C1472 0.949 . S
C1467 H1462 0.950 . S
C1467 C1469 1.327 . S
C1467 C1473 1.429 . S
C1468 C1460 1.574 . S
C1468 H1463 0.949 . S
C1468 C1474 1.368 . S
C1469 C1453 1.349 . S
C1469 H1461 0.950 . S
C1469 C1467 1.327 . S
C1470 C1458 1.349 . S
C1470 H1464 0.950 . S
C1470 C1471 1.327 . S
C1471 H1465 0.950 . S
C1471 C1470 1.327 . S
C1471 C1475 1.429 . S
C1472 C1455 1.574 . S
C1472 H1466 0.949 . S
C1472 C1476 1.368 . S
C1473 C1454 1.429 . S
C1473 C1467 1.429 . S
C1473 C1474 1.523 . S
C1474 C1455 1.368 . S
C1474 C1468 1.368 . S
C1474 C1473 1.523 . S
C1475 C1459 1.429 . S
C1475 C1471 1.429 . S
C1475 C1476 1.523 . S
C1476 C1460 1.368 . S
C1476 C1472 1.368 . S
C1476 C1475 1.523 . S
H1477 C1452 0.950 . S
H1478 C1454 0.950 . S
H1479 C1455 0.949 . S
H1480 C1457 0.950 . S
H1481 C1459 0.950 . S
C1482 C1483 1.349 . S
C1482 C1484 1.327 . S
C1482 H1507 0.950 . S
C1483 C1482 1.349 . S
C1483 C1499 1.349 . S
C1484 C1482 1.327 . S
C1484 C1503 1.429 . S
C1484 H1508 0.950 . S
C1485 C1502 1.574 . S
C1485 C1504 1.368 . S
C1485 H1509 0.949 . S
H1486 C1490 0.949 . S
C1487 C1488 1.349 . S
C1487 C1489 1.327 . S
C1487 H1510 0.950 . S
C1488 C1487 1.349 . S
C1488 C1500 1.349 . S
C1489 C1487 1.327 . S
C1489 C1505 1.429 . S
C1489 H1511 0.950 . S
C1490 H1486 0.949 . S
C1490 C1498 1.574 . S
C1490 C1506 1.368 . S
H1491 C1499 0.950 . S
H1492 C1497 0.950 . S
H1493 C1498 0.949 . S
H1494 C1500 0.950 . S
H1495 C1501 0.950 . S
H1496 C1502 0.949 . S
C1497 H1492 0.950 . S
C1497 C1499 1.327 . S
C1497 C1503 1.429 . S
C1498 C1490 1.574 . S
C1498 H1493 0.949 . S
C1498 C1504 1.368 . S
C1499 C1483 1.349 . S
C1499 H1491 0.950 . S
C1499 C1497 1.327 . S
C1500 C1488 1.349 . S
C1500 H1494 0.950 . S
C1500 C1501 1.327 . S
C1501 H1495 0.950 . S
C1501 C1500 1.327 . S
C1501 C1505 1.429 . S
C1502 C1485 1.574 . S
C1502 H1496 0.949 . S
C1502 C1506 1.368 . S
C1503 C1484 1.429 . S
C1503 C1497 1.429 . S
C1503 C1504 1.523 . S
C1504 C1485 1.368 . S
C1504 C1498 1.368 . S
C1504 C1503 1.523 . S
C1505 C1489 1.429 . S
C1505 C1501 1.429 . S
C1505 C1506 1.523 . S
C1506 C1490 1.368 . S
C1506 C1502 1.368 . S
C1506 C1505 1.523 . S
H1507 C1482 0.950 . S
H1508 C1484 0.950 . S
H1509 C1485 0.949 . S
H1510 C1487 0.950 . S
H1511 C1489 0.950 . S
C1512 C1513 1.349 . S
C1512 C1514 1.327 . S
C1512 H1537 0.950 . S
C1513 C1512 1.349 . S
C1513 C1529 1.349 . S
C1514 C1512 1.327 . S
C1514 C1533 1.429 1_655 S
C1514 H1538 0.950 1_655 S
C1515 C1532 1.574 . S
C1515 C1534 1.368 . S
C1515 H1539 0.949 . S
H1516 C1520 0.949 . S
C1517 C1518 1.349 . S
C1517 C1519 1.327 . S
C1517 H1540 0.950 . S
C1518 C1517 1.349 . S
C1518 C1530 1.349 . S
C1519 C1517 1.327 . S
C1519 C1535 1.429 . S
C1519 H1541 0.950 . S
C1520 H1516 0.949 . S
C1520 C1528 1.574 . S
C1520 C1536 1.368 . S
H1521 C1529 0.950 . S
H1522 C1527 0.950 . S
H1523 C1528 0.949 . S
H1524 C1530 0.950 . S
H1525 C1531 0.950 . S
H1526 C1532 0.949 . S
C1527 H1522 0.950 . S
C1527 C1529 1.327 . S
C1527 C1533 1.429 1_655 S
C1528 C1520 1.574 . S
C1528 H1523 0.949 . S
C1528 C1534 1.368 . S
C1529 C1513 1.349 . S
C1529 H1521 0.950 . S
C1529 C1527 1.327 . S
C1530 C1518 1.349 . S
C1530 H1524 0.950 . S
C1530 C1531 1.327 . S
C1531 H1525 0.950 . S
C1531 C1530 1.327 . S
C1531 C1535 1.429 . S
C1532 C1515 1.574 . S
C1532 H1526 0.949 . S
C1532 C1536 1.368 . S
C1533 C1514 1.429 1_455 S
C1533 C1527 1.429 1_455 S
C1533 C1534 1.523 . S
C1534 C1515 1.368 . S
C1534 C1528 1.368 . S
C1534 C1533 1.523 . S
C1535 C1519 1.429 . S
C1535 C1531 1.429 . S
C1535 C1536 1.523 . S
C1536 C1520 1.368 . S
C1536 C1532 1.368 . S
C1536 C1535 1.523 . S
H1537 C1512 0.950 . S
H1538 C1514 0.950 1_455 S
H1539 C1515 0.949 . S
H1540 C1517 0.950 . S
H1541 C1519 0.950 . S
C1542 C1543 1.349 . S
C1542 C1544 1.327 . S
C1542 H1567 0.950 . S
C1543 C1542 1.349 . S
C1543 C1559 1.349 . S
C1544 C1542 1.327 . S
C1544 C1563 1.429 . S
C1544 H1568 0.950 . S
C1545 C1562 1.574 . S
C1545 C1564 1.368 . S
C1545 H1569 0.949 . S
H1546 C1550 0.949 . S
C1547 C1548 1.349 . S
C1547 C1549 1.327 . S
C1547 H1570 0.950 . S
C1548 C1547 1.349 . S
C1548 C1560 1.349 . S
C1549 C1547 1.327 . S
C1549 C1565 1.429 . S
C1549 H1571 0.950 . S
C1550 H1546 0.949 . S
C1550 C1558 1.574 . S
C1550 C1566 1.368 . S
H1551 C1559 0.950 . S
H1552 C1557 0.950 . S
H1553 C1558 0.949 . S
H1554 C1560 0.950 . S
H1555 C1561 0.950 . S
H1556 C1562 0.949 . S
C1557 H1552 0.950 . S
C1557 C1559 1.327 . S
C1557 C1563 1.429 . S
C1558 C1550 1.574 . S
C1558 H1553 0.949 . S
C1558 C1564 1.368 . S
C1559 C1543 1.349 . S
C1559 H1551 0.950 . S
C1559 C1557 1.327 . S
C1560 C1548 1.349 . S
C1560 H1554 0.950 . S
C1560 C1561 1.327 . S
C1561 H1555 0.950 . S
C1561 C1560 1.327 . S
C1561 C1565 1.429 . S
C1562 C1545 1.574 . S
C1562 H1556 0.949 . S
C1562 C1566 1.368 . S
C1563 C1544 1.429 . S
C1563 C1557 1.429 . S
C1563 C1564 1.523 . S
C1564 C1545 1.368 . S
C1564 C1558 1.368 . S
C1564 C1563 1.523 . S
C1565 C1549 1.429 . S
C1565 C1561 1.429 . S
C1565 C1566 1.523 . S
C1566 C1550 1.368 . S
C1566 C1562 1.368 . S
C1566 C1565 1.523 . S
H1567 C1542 0.950 . S
H1568 C1544 0.950 . S
H1569 C1545 0.949 . S
H1570 C1547 0.950 . S
H1571 C1549 0.950 . S
C1572 C1573 1.349 . S
C1572 C1574 1.327 . S
C1572 H1597 0.950 . S
C1573 C1572 1.349 . S
C1573 C1589 1.349 . S
C1574 C1572 1.327 . S
C1574 C1593 1.429 . S
C1574 H1598 0.950 . S
C1575 C1592 1.574 . S
C1575 C1594 1.368 . S
C1575 H1599 0.949 . S
H1576 C1580 0.949 . S
C1577 C1578 1.349 . S
C1577 C1579 1.327 . S
C1577 H1600 0.950 . S
C1578 C1577 1.349 . S
C1578 C1590 1.349 . S
C1579 C1577 1.327 . S
C1579 C1595 1.429 . S
C1579 H1601 0.950 . S
C1580 H1576 0.949 . S
C1580 C1588 1.574 . S
C1580 C1596 1.368 . S
H1581 C1589 0.950 . S
H1582 C1587 0.950 . S
H1583 C1588 0.949 . S
H1584 C1590 0.950 . S
H1585 C1591 0.950 . S
H1586 C1592 0.949 . S
C1587 H1582 0.950 . S
C1587 C1589 1.327 . S
C1587 C1593 1.429 . S
C1588 C1580 1.574 . S
C1588 H1583 0.949 . S
C1588 C1594 1.368 . S
C1589 C1573 1.349 . S
C1589 H1581 0.950 . S
C1589 C1587 1.327 . S
C1590 C1578 1.349 . S
C1590 H1584 0.950 . S
C1590 C1591 1.327 . S
C1591 H1585 0.950 . S
C1591 C1590 1.327 . S
C1591 C1595 1.429 . S
C1592 C1575 1.574 . S
C1592 H1586 0.949 . S
C1592 C1596 1.368 . S
C1593 C1574 1.429 . S
C1593 C1587 1.429 . S
C1593 C1594 1.523 . S
C1594 C1575 1.368 . S
C1594 C1588 1.368 . S
C1594 C1593 1.523 . S
C1595 C1579 1.429 . S
C1595 C1591 1.429 . S
C1595 C1596 1.523 . S
C1596 C1580 1.368 . S
C1596 C1592 1.368 . S
C1596 C1595 1.523 . S
H1597 C1572 0.950 . S
H1598 C1574 0.950 . S
H1599 C1575 0.949 . S
H1600 C1577 0.950 . S
H1601 C1579 0.950 . S
C1602 C1603 1.349 . S
C1602 C1604 1.327 . S
C1602 H1627 0.950 . S
C1603 C1602 1.349 . S
C1603 C1619 1.349 . S
C1604 C1602 1.327 . S
C1604 C1623 1.429 1_565 S
C1604 H1628 0.950 . S
C1605 C1622 1.574 . S
C1605 C1624 1.368 . S
C1605 H1629 0.949 . S
H1606 C1610 0.949 . S
C1607 C1608 1.349 . S
C1607 C1609 1.327 . S
C1607 H1630 0.950 . S
C1608 C1607 1.349 . S
C1608 C1620 1.349 . S
C1609 C1607 1.327 . S
C1609 C1625 1.429 . S
C1609 H1631 0.950 . S
C1610 H1606 0.949 . S
C1610 C1618 1.574 . S
C1610 C1626 1.368 . S
H1611 C1619 0.950 . S
H1612 C1617 0.950 . S
H1613 C1618 0.949 . S
H1614 C1620 0.950 . S
H1615 C1621 0.950 . S
H1616 C1622 0.949 . S
C1617 H1612 0.950 . S
C1617 C1619 1.327 . S
C1617 C1623 1.429 1_565 S
C1618 C1610 1.574 . S
C1618 H1613 0.949 . S
C1618 C1624 1.368 . S
C1619 C1603 1.349 . S
C1619 H1611 0.950 . S
C1619 C1617 1.327 . S
C1620 C1608 1.349 . S
C1620 H1614 0.950 . S
C1620 C1621 1.327 . S
C1621 H1615 0.950 . S
C1621 C1620 1.327 . S
C1621 C1625 1.429 . S
C1622 C1605 1.574 . S
C1622 H1616 0.949 . S
C1622 C1626 1.368 . S
C1623 C1604 1.429 1_545 S
C1623 C1617 1.429 1_545 S
C1623 C1624 1.523 . S
C1624 C1605 1.368 . S
C1624 C1618 1.368 . S
C1624 C1623 1.523 . S
C1625 C1609 1.429 . S
C1625 C1621 1.429 . S
C1625 C1626 1.523 . S
C1626 C1610 1.368 . S
C1626 C1622 1.368 . S
C1626 C1625 1.523 . S
H1627 C1602 0.950 . S
H1628 C1604 0.950 . S
H1629 C1605 0.949 . S
H1630 C1607 0.950 . S
H1631 C1609 0.950 . S
C1632 C1633 1.349 . S
C1632 C1634 1.327 . S
C1632 H1657 0.950 . S
C1633 C1632 1.349 . S
C1633 C1649 1.349 . S
C1634 C1632 1.327 . S
C1634 C1653 1.429 . S
C1634 H1658 0.950 . S
C1635 C1652 1.574 . S
C1635 C1654 1.368 . S
C1635 H1659 0.949 . S
H1636 C1640 0.949 . S
C1637 C1638 1.349 . S
C1637 C1639 1.327 . S
C1637 H1660 0.950 . S
C1638 C1637 1.349 . S
C1638 C1650 1.349 . S
C1639 C1637 1.327 . S
C1639 C1655 1.429 . S
C1639 H1661 0.950 . S
C1640 H1636 0.949 . S
C1640 C1648 1.574 . S
C1640 C1656 1.368 . S
H1641 C1649 0.950 . S
H1642 C1647 0.950 . S
H1643 C1648 0.949 . S
H1644 C1650 0.950 . S
H1645 C1651 0.950 . S
H1646 C1652 0.949 . S
C1647 H1642 0.950 . S
C1647 C1649 1.327 . S
C1647 C1653 1.429 . S
C1648 C1640 1.574 . S
C1648 H1643 0.949 . S
C1648 C1654 1.368 . S
C1649 C1633 1.349 . S
C1649 H1641 0.950 . S
C1649 C1647 1.327 . S
C1650 C1638 1.349 . S
C1650 H1644 0.950 . S
C1650 C1651 1.327 . S
C1651 H1645 0.950 . S
C1651 C1650 1.327 . S
C1651 C1655 1.429 . S
C1652 C1635 1.574 . S
C1652 H1646 0.949 . S
C1652 C1656 1.368 . S
C1653 C1634 1.429 . S
C1653 C1647 1.429 . S
C1653 C1654 1.523 . S
C1654 C1635 1.368 . S
C1654 C1648 1.368 . S
C1654 C1653 1.523 . S
C1655 C1639 1.429 . S
C1655 C1651 1.429 . S
C1655 C1656 1.523 . S
C1656 C1640 1.368 . S
C1656 C1652 1.368 . S
C1656 C1655 1.523 . S
H1657 C1632 0.950 . S
H1658 C1634 0.950 . S
H1659 C1635 0.949 . S
H1660 C1637 0.950 . S
H1661 C1639 0.950 . S
C1662 C1663 1.349 . S
C1662 C1664 1.327 . S
C1662 H1687 0.950 . S
C1663 C1662 1.349 . S
C1663 C1679 1.349 1_556 S
C1664 C1662 1.327 . S
C1664 C1683 1.429 1_545 S
C1664 H1688 0.950 . S
C1665 C1682 1.574 . S
C1665 C1684 1.368 . S
C1665 H1689 0.949 1_556 S
H1666 C1670 0.949 . S
C1667 C1668 1.349 . S
C1667 C1669 1.327 . S
C1667 H1690 0.950 . S
C1668 C1667 1.349 . S
C1668 C1680 1.349 . S
C1669 C1667 1.327 . S
C1669 C1685 1.429 . S
C1669 H1691 0.950 . S
C1670 H1666 0.949 . S
C1670 C1678 1.574 . S
C1670 C1686 1.368 . S
H1671 C1679 0.950 . S
H1672 C1677 0.950 . S
H1673 C1678 0.949 . S
H1674 C1680 0.950 . S
H1675 C1681 0.950 . S
H1676 C1682 0.949 . S
C1677 H1672 0.950 . S
C1677 C1679 1.327 . S
C1677 C1683 1.429 1_544 S
C1678 C1670 1.574 . S
C1678 H1673 0.949 . S
C1678 C1684 1.368 . S
C1679 C1663 1.349 1_554 S
C1679 H1671 0.950 . S
C1679 C1677 1.327 . S
C1680 C1668 1.349 . S
C1680 H1674 0.950 . S
C1680 C1681 1.327 . S
C1681 H1675 0.950 . S
C1681 C1680 1.327 . S
C1681 C1685 1.429 . S
C1682 C1665 1.574 . S
C1682 H1676 0.949 . S
C1682 C1686 1.368 . S
C1683 C1664 1.429 1_565 S
C1683 C1677 1.429 1_566 S
C1683 C1684 1.523 . S
C1684 C1665 1.368 . S
C1684 C1678 1.368 . S
C1684 C1683 1.523 . S
C1685 C1669 1.429 . S
C1685 C1681 1.429 . S
C1685 C1686 1.523 . S
C1686 C1670 1.368 . S
C1686 C1682 1.368 . S
C1686 C1685 1.523 . S
H1687 C1662 0.950 . S
H1688 C1664 0.950 . S
H1689 C1665 0.949 1_554 S
H1690 C1667 0.950 . S
H1691 C1669 0.950 . S
C1692 C1693 1.349 . S
C1692 C1694 1.327 . S
C1692 H1717 0.950 . S
C1693 C1692 1.349 . S
C1693 C1709 1.349 . S
C1694 C1692 1.327 . S
C1694 C1713 1.429 . S
C1694 H1718 0.950 . S
C1695 C1712 1.574 . S
C1695 C1714 1.368 . S
C1695 H1719 0.949 . S
H1696 C1700 0.949 . S
C1697 C1698 1.349 . S
C1697 C1699 1.327 . S
C1697 H1720 0.950 . S
C1698 C1697 1.349 . S
C1698 C1710 1.349 . S
C1699 C1697 1.327 . S
C1699 C1715 1.429 . S
C1699 H1721 0.950 . S
C1700 H1696 0.949 . S
C1700 C1708 1.574 . S
C1700 C1716 1.368 . S
H1701 C1709 0.950 . S
H1702 C1707 0.950 . S
H1703 C1708 0.949 . S
H1704 C1710 0.950 . S
H1705 C1711 0.950 . S
H1706 C1712 0.949 . S
C1707 H1702 0.950 . S
C1707 C1709 1.327 . S
C1707 C1713 1.429 . S
C1708 C1700 1.574 . S
C1708 H1703 0.949 . S
C1708 C1714 1.368 . S
C1709 C1693 1.349 . S
C1709 H1701 0.950 . S
C1709 C1707 1.327 . S
C1710 C1698 1.349 . S
C1710 H1704 0.950 . S
C1710 C1711 1.327 . S
C1711 H1705 0.950 . S
C1711 C1710 1.327 . S
C1711 C1715 1.429 . S
C1712 C1695 1.574 . S
C1712 H1706 0.949 . S
C1712 C1716 1.368 . S
C1713 C1694 1.429 . S
C1713 C1707 1.429 . S
C1713 C1714 1.523 . S
C1714 C1695 1.368 . S
C1714 C1708 1.368 . S
C1714 C1713 1.523 . S
C1715 C1699 1.429 . S
C1715 C1711 1.429 . S
C1715 C1716 1.523 . S
C1716 C1700 1.368 . S
C1716 C1712 1.368 . S
C1716 C1715 1.523 . S
H1717 C1692 0.950 . S
H1718 C1694 0.950 . S
H1719 C1695 0.949 . S
H1720 C1697 0.950 . S
H1721 C1699 0.950 . S
C1722 C1723 1.349 1_556 S
C1722 C1724 1.327 1_556 S
C1722 H1747 0.950 . S
C1723 C1722 1.349 1_554 S
C1723 C1739 1.349 . S
C1724 C1722 1.327 1_554 S
C1724 C1743 1.429 . S
C1724 H1748 0.950 1_554 S
C1725 C1742 1.574 . S
C1725 C1744 1.368 . S
C1725 H1749 0.949 . S
H1726 C1730 0.949 . S
C1727 C1728 1.349 . S
C1727 C1729 1.327 . S
C1727 H1750 0.950 . S
C1728 C1727 1.349 . S
C1728 C1740 1.349 . S
C1729 C1727 1.327 . S
C1729 C1745 1.429 . S
C1729 H1751 0.950 . S
C1730 H1726 0.949 . S
C1730 C1738 1.574 . S
C1730 C1746 1.368 . S
H1731 C1739 0.950 . S
H1732 C1737 0.950 . S
H1733 C1738 0.949 1_556 S
H1734 C1740 0.950 . S
H1735 C1741 0.950 . S
H1736 C1742 0.949 . S
C1737 H1732 0.950 . S
C1737 C1739 1.327 . S
C1737 C1743 1.429 . S
C1738 C1730 1.574 . S
C1738 H1733 0.949 1_554 S
C1738 C1744 1.368 . S
C1739 C1723 1.349 . S
C1739 H1731 0.950 . S
C1739 C1737 1.327 . S
C1740 C1728 1.349 . S
C1740 H1734 0.950 . S
C1740 C1741 1.327 . S
C1741 H1735 0.950 . S
C1741 C1740 1.327 . S
C1741 C1745 1.429 . S
C1742 C1725 1.574 . S
C1742 H1736 0.949 . S
C1742 C1746 1.368 . S
C1743 C1724 1.429 . S
C1743 C1737 1.429 . S
C1743 C1744 1.523 . S
C1744 C1725 1.368 . S
C1744 C1738 1.368 . S
C1744 C1743 1.523 . S
C1745 C1729 1.429 . S
C1745 C1741 1.429 . S
C1745 C1746 1.523 . S
C1746 C1730 1.368 . S
C1746 C1742 1.368 . S
C1746 C1745 1.523 . S
H1747 C1722 0.950 . S
H1748 C1724 0.950 1_556 S
H1749 C1725 0.949 . S
H1750 C1727 0.950 . S
H1751 C1729 0.950 . S
C1752 C1753 1.349 . S
C1752 C1754 1.327 . S
C1752 H1777 0.950 . S
C1753 C1752 1.349 . S
C1753 C1769 1.349 . S
C1754 C1752 1.327 . S
C1754 C1773 1.429 . S
C1754 H1778 0.950 . S
C1755 C1772 1.574 . S
C1755 C1774 1.368 . S
C1755 H1779 0.949 . S
H1756 C1760 0.949 . S
C1757 C1758 1.349 . S
C1757 C1759 1.327 . S
C1757 H1780 0.950 . S
C1758 C1757 1.349 . S
C1758 C1770 1.349 . S
C1759 C1757 1.327 . S
C1759 C1775 1.429 . S
C1759 H1781 0.950 . S
C1760 H1756 0.949 . S
C1760 C1768 1.574 . S
C1760 C1776 1.368 . S
H1761 C1769 0.950 . S
H1762 C1767 0.950 . S
H1763 C1768 0.949 . S
H1764 C1770 0.950 . S
H1765 C1771 0.950 . S
H1766 C1772 0.949 . S
C1767 H1762 0.950 . S
C1767 C1769 1.327 . S
C1767 C1773 1.429 . S
C1768 C1760 1.574 . S
C1768 H1763 0.949 . S
C1768 C1774 1.368 . S
C1769 C1753 1.349 . S
C1769 H1761 0.950 . S
C1769 C1767 1.327 . S
C1770 C1758 1.349 . S
C1770 H1764 0.950 . S
C1770 C1771 1.327 . S
C1771 H1765 0.950 . S
C1771 C1770 1.327 . S
C1771 C1775 1.429 . S
C1772 C1755 1.574 . S
C1772 H1766 0.949 . S
C1772 C1776 1.368 . S
C1773 C1754 1.429 . S
C1773 C1767 1.429 . S
C1773 C1774 1.523 . S
C1774 C1755 1.368 . S
C1774 C1768 1.368 . S
C1774 C1773 1.523 . S
C1775 C1759 1.429 . S
C1775 C1771 1.429 . S
C1775 C1776 1.523 . S
C1776 C1760 1.368 . S
C1776 C1772 1.368 . S
C1776 C1775 1.523 . S
H1777 C1752 0.950 . S
H1778 C1754 0.950 . S
H1779 C1755 0.949 . S
H1780 C1757 0.950 . S
H1781 C1759 0.950 . S
C1782 C1783 1.349 . S
C1782 C1784 1.327 . S
C1782 H1807 0.950 . S
C1783 C1782 1.349 . S
C1783 C1799 1.349 . S
C1784 C1782 1.327 . S
C1784 C1803 1.429 . S
C1784 H1808 0.950 . S
C1785 C1802 1.574 . S
C1785 C1804 1.368 . S
C1785 H1809 0.949 . S
H1786 C1790 0.949 . S
C1787 C1788 1.349 . S
C1787 C1789 1.327 . S
C1787 H1810 0.950 . S
C1788 C1787 1.349 . S
C1788 C1800 1.349 . S
C1789 C1787 1.327 . S
C1789 C1805 1.429 . S
C1789 H1811 0.950 . S
C1790 H1786 0.949 . S
C1790 C1798 1.574 . S
C1790 C1806 1.368 . S
H1791 C1799 0.950 . S
H1792 C1797 0.950 . S
H1793 C1798 0.949 . S
H1794 C1800 0.950 . S
H1795 C1801 0.950 . S
H1796 C1802 0.949 . S
C1797 H1792 0.950 . S
C1797 C1799 1.327 . S
C1797 C1803 1.429 . S
C1798 C1790 1.574 . S
C1798 H1793 0.949 . S
C1798 C1804 1.368 . S
C1799 C1783 1.349 . S
C1799 H1791 0.950 . S
C1799 C1797 1.327 . S
C1800 C1788 1.349 . S
C1800 H1794 0.950 . S
C1800 C1801 1.327 . S
C1801 H1795 0.950 . S
C1801 C1800 1.327 . S
C1801 C1805 1.429 . S
C1802 C1785 1.574 . S
C1802 H1796 0.949 . S
C1802 C1806 1.368 . S
C1803 C1784 1.429 . S
C1803 C1797 1.429 . S
C1803 C1804 1.523 . S
C1804 C1785 1.368 . S
C1804 C1798 1.368 . S
C1804 C1803 1.523 . S
C1805 C1789 1.429 . S
C1805 C1801 1.429 . S
C1805 C1806 1.523 . S
C1806 C1790 1.368 . S
C1806 C1802 1.368 . S
C1806 C1805 1.523 . S
H1807 C1782 0.950 . S
H1808 C1784 0.950 . S
H1809 C1785 0.949 . S
H1810 C1787 0.950 . S
H1811 C1789 0.950 . S
C378 C361 1.030 . S
C373 C5 1.106 . S
C403 C16 1.124 . S
C408 C314 1.046 . S
C433 C36 1.092 . S
C438 C325 1.019 . S
C468 C350 1.043 . S
C463 C49 1.118 . S
C493 C23 1.095 . S
C498 C368 1.017 . S
C528 C307 1.048 . S
C523 C29 1.122 . S
C558 C332 1.025 . S
C553 C42 1.105 . S
C588 C343 1.045 . S
C583 C4 1.117 . S
C613 C55 1.101 . S
C618 C344 1.025 . S
C648 C370 1.053 . S
C643 C69 1.119 . S
C678 C308 1.028 . S
C673 C83 1.102 . S
C708 C334 1.045 . S
C703 C101 1.108 . S
C733 C57 1.103 . S
C738 C316 1.035 . S
C763 C75 1.118 . S
C768 C326 1.047 . S
C793 C81 1.103 . S
C798 C352 1.033 . S
C828 C362 1.041 . S
C823 C95 1.113 . S
C858 C199 1.022 . S
C853 C96 1.096 . S
C888 C182 1.021 . S
C883 C107 1.095 . S
C918 C208 1.047 . S
C913 C121 1.113 . S
C948 C226 1.034 . S
C943 C133 1.106 . S
C973 C62 1.112 . S
C978 C200 1.041 . S
C1003 C68 1.108 . S
C1008 C170 1.028 . S
C1033 C127 1.116 . S
C1038 C224 1.041 . S
C1063 C147 1.111 . S
C1068 C181 1.040 . S
C1098 C235 1.021 . S
C1093 C30 1.095 . S
C1128 C260 1.044 . S
C1123 C43 1.119 . S
C1153 C3 1.104 . S
C1158 C271 1.030 . S
C1183 C18 1.123 . S
C1188 C296 1.045 . S
C1218 C242 1.026 . S
C1213 C44 1.106 . S
C1248 C253 1.046 . S
C1243 C10 1.116 . S
C1273 C17 1.093 . S
C1278 C278 1.015 . S
C1308 C289 1.047 . S
C1303 C31 1.121 . S
C1333 C146 1.102 . S
C1338 C290 1.028 . S
C1363 C114 1.109 . S
C1368 C244 1.044 . S
C1398 C254 1.025 . S
C1393 C122 1.101 . S
C1423 C140 1.120 . S
C1428 C280 1.053 . S
C1458 C262 1.032 . S
C1453 C148 1.102 . S
C1483 C108 1.109 . S
C1488 C272 1.039 . S
C1518 C298 1.036 . S
C1513 C120 1.105 . S
C1548 C236 1.048 . S
C1543 C134 1.119 . S
C1578 C163 1.030 . S
C1573 C135 1.106 . S
C1608 C218 1.028 . S
C1603 C70 1.104 . S
C1633 C82 1.116 . S
C1638 C172 1.050 . S
C1668 C190 1.027 . S
C1663 C94 1.098 . S
C1698 C164 1.045 . S
C1693 C153 1.116 . S
C1723 C109 1.100 . S
C1728 C206 1.021 . S
C1753 C88 1.113 . S
C1758 C188 1.038 . S
C1783 C56 1.114 . S
C1788 C217 1.044 . S
