# Generated by pormake.
# Topology pyr, (3,6)-cn, num edge types: 1
# Building blocks:
#     Node 0, Type 0, BuildingBlock: QEWDON_clean_linker_0, # of connection points: 3
#     Node 1, Type 0, BuildingBlock: QEWDON_clean_linker_0, # of connection points: 3
#     Node 2, Type 0, BuildingBlock: QEWDON_clean_linker_0, # of connection points: 3
#     Node 3, Type 0, BuildingBlock: QEWDON_clean_linker_0, # of connection points: 3
#     Node 4, Type 0, BuildingBlock: QEWDON_clean_linker_0, # of connection points: 3
#     Node 5, Type 0, BuildingBlock: QEWDON_clean_linker_0, # of connection points: 3
#     Node 6, Type 0, BuildingBlock: QEWDON_clean_linker_0, # of connection points: 3
#     Node 7, Type 0, BuildingBlock: QEWDON_clean_linker_0, # of connection points: 3
#     Node 8, Type 1, BuildingBlock: GEDQOX_clean_sbu_0, # of connection points: 6
#     Node 9, Type 1, BuildingBlock: GEDQOX_clean_sbu_0, # of connection points: 6
#     Node 10, Type 1, BuildingBlock: GEDQOX_clean_sbu_0, # of connection points: 6
#     Node 11, Type 1, BuildingBlock: GEDQOX_clean_sbu_0, # of connection points: 6
#     Edge 12, Type (0, 1), BuildingBlock: EZIPEK_clean_linker_0, # of connection points: 2
#     Edge 13, Type (0, 1), BuildingBlock: EZIPEK_clean_linker_0, # of connection points: 2
#     Edge 14, Type (0, 1), BuildingBlock: EZIPEK_clean_linker_0, # of connection points: 2
#     Edge 15, Type (0, 1), BuildingBlock: EZIPEK_clean_linker_0, # of connection points: 2
#     Edge 16, Type (0, 1), BuildingBlock: EZIPEK_clean_linker_0, # of connection points: 2
#     Edge 17, Type (0, 1), BuildingBlock: EZIPEK_clean_linker_0, # of connection points: 2
#     Edge 18, Type (0, 1), BuildingBlock: EZIPEK_clean_linker_0, # of connection points: 2
#     Edge 19, Type (0, 1), BuildingBlock: EZIPEK_clean_linker_0, # of connection points: 2
#     Edge 20, Type (0, 1), BuildingBlock: EZIPEK_clean_linker_0, # of connection points: 2
#     Edge 21, Type (0, 1), BuildingBlock: EZIPEK_clean_linker_0, # of connection points: 2
#     Edge 22, Type (0, 1), BuildingBlock: EZIPEK_clean_linker_0, # of connection points: 2
#     Edge 23, Type (0, 1), BuildingBlock: EZIPEK_clean_linker_0, # of connection points: 2
#     Edge 24, Type (0, 1), BuildingBlock: EZIPEK_clean_linker_0, # of connection points: 2
#     Edge 25, Type (0, 1), BuildingBlock: EZIPEK_clean_linker_0, # of connection points: 2
#     Edge 26, Type (0, 1), BuildingBlock: EZIPEK_clean_linker_0, # of connection points: 2
#     Edge 27, Type (0, 1), BuildingBlock: EZIPEK_clean_linker_0, # of connection points: 2
#     Edge 28, Type (0, 1), BuildingBlock: EZIPEK_clean_linker_0, # of connection points: 2
#     Edge 29, Type (0, 1), BuildingBlock: EZIPEK_clean_linker_0, # of connection points: 2
#     Edge 30, Type (0, 1), BuildingBlock: EZIPEK_clean_linker_0, # of connection points: 2
#     Edge 31, Type (0, 1), BuildingBlock: EZIPEK_clean_linker_0, # of connection points: 2
#     Edge 32, Type (0, 1), BuildingBlock: EZIPEK_clean_linker_0, # of connection points: 2
#     Edge 33, Type (0, 1), BuildingBlock: EZIPEK_clean_linker_0, # of connection points: 2
#     Edge 34, Type (0, 1), BuildingBlock: EZIPEK_clean_linker_0, # of connection points: 2
#     Edge 35, Type (0, 1), BuildingBlock: EZIPEK_clean_linker_0, # of connection points: 2
# Relax obj value: 0.295
# Max RMSD: 0.287
# Mean RMSD: 0.207
data_MOF--net-pyr--node1-GEDQOX_clean_sbu_0--node2-QEWDON_clean_linker_0--edge1-EZIPEK_clean_linker_0
_symmetry_space_group_name_H-M    P1
_symmetry_Int_Tables_number       1
_symmetry_cell_setting            triclinic
loop_
_symmetry_equiv_pos_as_xyz
'x, y, z'
_cell_length_a     29.18134
_cell_length_b     29.241955
_cell_length_c     28.656885
_cell_angle_alpha  90.304099
_cell_angle_beta   92.945846
_cell_angle_gamma 96.098515
loop_
_atom_site_label
_atom_site_type_symbol
_atom_site_fract_x
_atom_site_fract_y
_atom_site_fract_z
_atom_type_partial_charge
H0 H 0.31362 0.22979 0.19014 0.0
C1 C 0.29508 0.21045 0.21666 0.0
C2 C 0.31172 0.16747 0.23199 0.0
C3 C 0.2568 0.23045 0.23637 0.0
H4 H 0.2979 0.11266 0.28287 0.0
C5 C 0.28706 0.14491 0.27045 0.0
C6 C 0.24938 0.1633 0.29387 0.0
C7 C 0.23602 0.20609 0.27519 0.0
C8 C 0.24795 0.28269 0.2282 0.0
H9 H 0.20965 0.222 0.29266 0.0
C10 C 0.22106 0.30501 0.19074 0.0
C11 C 0.2158 0.3552 0.19135 0.0
C12 C 0.26804 0.31223 0.26406 0.0
H13 H 0.28814 0.29868 0.29265 0.0
C14 C 0.26301 0.3591 0.26492 0.0
H15 H 0.20474 0.28404 0.16208 0.0
C16 C 0.23767 0.37981 0.22996 0.0
H17 H 0.23535 0.41643 0.23324 0.0
H18 H 0.27923 0.38006 0.29369 0.0
H19 H 0.40103 0.8447 0.91745 0.0
C20 C 0.42295 0.8309 0.89264 0.0
C21 C 0.46981 0.84801 0.89236 0.0
C22 C 0.40383 0.79726 0.86027 0.0
H23 H 0.53417 0.84272 0.85876 0.0
C24 C 0.49797 0.83 0.85933 0.0
C25 C 0.47875 0.79564 0.82681 0.0
C26 C 0.43174 0.78 0.82759 0.0
C27 C 0.35403 0.78149 0.85873 0.0
H28 H 0.41673 0.754 0.8025 0.0
C29 C 0.327 0.78707 0.81772 0.0
C30 C 0.27971 0.77198 0.81521 0.0
C31 C 0.33341 0.76053 0.89751 0.0
H32 H 0.35379 0.75594 0.92949 0.0
C33 C 0.28641 0.74451 0.89478 0.0
H34 H 0.3426 0.80391 0.78789 0.0
C35 C 0.25957 0.75 0.85372 0.0
H36 H 0.22312 0.73793 0.85218 0.0
H37 H 0.27072 0.72794 0.92459 0.0
H38 H 0.83626 0.57137 0.94575 0.0
C39 C 0.81901 0.53732 0.95152 0.0
C40 C 0.84523 0.50041 0.96045 0.0
C41 C 0.7708 0.5295 0.94617 0.0
H42 H 0.84273 0.42725 0.97242 0.0
C43 C 0.82275 0.45601 0.96603 0.0
C44 C 0.7745 0.44865 0.9633 0.0
C45 C 0.74869 0.48528 0.95277 0.0
C46 C 0.74392 0.56553 0.92708 0.0
H47 H 0.71138 0.47912 0.94862 0.0
C48 C 0.72079 0.55826 0.8832 0.0
C49 C 0.69576 0.59209 0.86323 0.0
C50 C 0.74204 0.60713 0.95113 0.0
H51 H 0.76008 0.61337 0.98493 0.0
C52 C 0.71633 0.64073 0.93163 0.0
H53 H 0.72312 0.52658 0.86399 0.0
C54 C 0.69319 0.63332 0.88779 0.0
H55 H 0.67398 0.65984 0.8727 0.0
H56 H 0.71464 0.67271 0.95034 0.0
H57 H 0.9284 0.96642 0.28056 0.0
C58 C 0.90336 0.94096 0.29485 0.0
C59 C 0.90575 0.93151 0.34295 0.0
C60 C 0.86912 0.91645 0.26525 0.0
H61 H 0.87522 0.89154 0.39845 0.0
C62 C 0.8736 0.89852 0.36127 0.0
C63 C 0.83927 0.87458 0.33222 0.0
C64 C 0.83715 0.88322 0.28427 0.0
C65 C 0.86727 0.9234 0.21417 0.0
H66 H 0.81051 0.86424 0.26191 0.0
C67 C 0.86835 0.88543 0.18438 0.0
C68 C 0.86344 0.88997 0.13578 0.0
C69 C 0.86185 0.96662 0.19482 0.0
H70 H 0.86072 0.99637 0.21724 0.0
C71 C 0.85624 0.97122 0.14625 0.0
H72 H 0.87302 0.85202 0.19911 0.0
C73 C 0.85657 0.93296 0.11671 0.0
H74 H 0.85209 0.93688 0.07924 0.0
H75 H 0.85133 1.00445 0.1315 0.0
H76 H 0.91952 0.85248 0.94419 0.0
C77 C 0.93503 0.86904 0.91427 0.0
C78 C 0.97488 0.85031 0.89618 0.0
C79 C 0.91318 0.90683 0.89332 0.0
H80 H 1.02225 0.85833 0.83951 0.0
C81 C 0.99286 0.87176 0.8541 0.0
C82 C 0.9734 0.90948 0.82987 0.0
C83 C 0.93352 0.92551 0.85096 0.0
C84 C 0.86196 0.91645 0.90558 0.0
H85 H 0.91664 0.95199 0.83282 0.0
C86 C 0.84382 0.94312 0.94416 0.0
C87 C 0.79336 0.94708 0.94841 0.0
C88 C 0.82801 0.89532 0.87375 0.0
H89 H 0.838 0.87523 0.84478 0.0
C90 C 0.781 0.89855 0.87781 0.0
H91 H 0.86815 0.96043 0.96988 0.0
C92 C 0.7643 0.92343 0.91377 0.0
H93 H 0.72729 0.92441 0.91421 0.0
H94 H 0.75662 0.88121 0.85209 0.0
H95 H 0.74719 0.3237 0.42783 0.0
C96 C 0.73436 0.30044 0.39946 0.0
C97 C 0.75973 0.26373 0.3882 0.0
C98 C 0.69354 0.30766 0.37317 0.0
H99 H 0.76594 0.20845 0.33958 0.0
C100 C 0.74526 0.23533 0.34926 0.0
C101 C 0.70344 0.24013 0.32403 0.0
C102 C 0.67722 0.27523 0.33762 0.0
C103 C 0.66948 0.35037 0.37913 0.0
H104 H 0.64443 0.27808 0.31896 0.0
C105 C 0.66755 0.37346 0.42279 0.0
C106 C 0.6444 0.41371 0.42556 0.0
C107 C 0.64893 0.36939 0.33907 0.0
H108 H 0.65124 0.35463 0.30466 0.0
C109 C 0.62578 0.4084 0.34211 0.0
H110 H 0.68358 0.36047 0.4542 0.0
C111 C 0.62333 0.43025 0.3849 0.0
H112 H 0.60553 0.4609 0.38621 0.0
H113 H 0.6101 0.42215 0.3109 0.0
H114 H 0.43247 0.62121 0.27017 0.0
C115 C 0.39935 0.62477 0.25238 0.0
C116 C 0.39676 0.65859 0.21843 0.0
C117 C 0.35916 0.59944 0.26706 0.0
H118 H 0.35233 0.69072 0.16932 0.0
C119 C 0.35439 0.66387 0.19508 0.0
C120 C 0.31446 0.63545 0.20536 0.0
C121 C 0.31686 0.60338 0.24194 0.0
C122 C 0.36185 0.57335 0.31149 0.0
H123 H 0.28555 0.58362 0.25226 0.0
C124 C 0.39048 0.5923 0.34947 0.0
C125 C 0.39713 0.56729 0.39046 0.0
C126 C 0.33757 0.52968 0.31632 0.0
H127 H 0.31525 0.51418 0.28788 0.0
C128 C 0.34312 0.50502 0.35767 0.0
H129 H 0.40861 0.62647 0.34708 0.0
C130 C 0.37313 0.52341 0.3944 0.0
H131 H 0.37787 0.50343 0.42566 0.0
H132 H 0.3247 0.47115 0.36093 0.0
H133 H 0.35305 0.25481 0.82145 0.0
C134 C 0.33631 0.22587 0.80097 0.0
C135 C 0.3377 0.22711 0.75253 0.0
C136 C 0.30732 0.19182 0.82212 0.0
H137 H 0.31536 0.19436 0.68794 0.0
C138 C 0.31609 0.19041 0.72546 0.0
C139 C 0.29278 0.15139 0.74619 0.0
C140 C 0.28576 0.15481 0.79474 0.0
C141 C 0.29274 0.20019 0.87007 0.0
H142 H 0.26062 0.13159 0.8113 0.0
C143 C 0.28279 0.24452 0.88225 0.0
C144 C 0.2653 0.2535 0.92547 0.0
C145 C 0.2855 0.16459 0.90247 0.0
H146 H 0.29277 0.13003 0.89402 0.0
C147 C 0.26852 0.1735 0.94611 0.0
H148 H 0.28665 0.27217 0.85722 0.0
C149 C 0.25802 0.2177 0.95752 0.0
H150 H 0.24397 0.22392 0.99095 0.0
H151 H 0.26289 0.14592 0.97088 0.0
Nd152 Nd 0.11842 0.99496 0.54898 0.0
Nd153 Nd 0.07506 0.07356 0.55528 0.0
C154 C 0.15394 0.91759 0.53263 0.0
C155 C 0.17349 0.88565 0.56626 0.0
C156 C 0.14829 0.84344 0.57641 0.0
C157 C 0.16223 0.81731 0.61435 0.0
C158 C 0.20161 0.83305 0.64238 0.0
C159 C 0.22826 0.87363 0.63072 0.0
C160 C 0.21447 0.89967 0.59297 0.0
C161 C 0.16166 0.04913 0.62027 0.0
C162 C 0.05315 0.99271 0.64269 0.0
C163 C 1.02754 0.14489 0.56982 0.0
C164 C 0.99398 0.16932 0.5415 0.0
C165 C 0.97359 0.20579 0.5612 0.0
C166 C 0.93752 0.22519 0.53679 0.0
C167 C 0.9209 0.20802 0.49249 0.0
C168 C 0.94219 0.17245 0.47224 0.0
C169 C 0.97853 0.15347 0.49641 0.0
C170 C 1.03618 1.01735 0.48303 0.0
C171 C 0.14896 0.07845 0.46837 0.0
O172 O 0.10947 0.91987 0.5336 0.0
O173 O 0.1771 0.95813 0.5292 0.0
O174 O 0.15246 1.00508 0.62155 0.0
O175 O 0.14807 0.06482 0.58137 0.0
O176 O 0.0762 0.96738 0.61498 0.0
O177 O 0.05099 0.03621 0.62804 0.0
O178 O 0.07051 0.1494 0.55822 0.0
O179 O 1.01332 0.10251 0.57986 0.0
O180 O 1.04622 0.06101 0.48022 0.0
O181 O 1.046 1.00388 0.52365 0.0
O182 O 0.1253 0.10377 0.49572 0.0
O183 O 0.14859 0.03404 0.48022 0.0
H184 H 0.11663 0.83181 0.55643 0.0
H185 H 0.14133 0.78597 0.62305 0.0
H186 H 0.25879 0.88614 0.65209 0.0
H187 H 0.23484 0.9319 0.58627 0.0
H188 H 0.98465 0.21839 0.59603 0.0
H189 H 0.92153 0.25255 0.55307 0.0
H190 H 0.92997 0.15868 0.43815 0.0
H191 H 0.99358 0.12549 0.48038 0.0
Nd192 Nd 0.55932 0.03576 0.13054 0.0
Nd193 Nd 0.56641 0.08615 0.07129 0.0
C194 C 0.54065 0.96237 0.18279 0.0
C195 C 0.53302 0.91187 0.17913 0.0
C196 C 0.56966 0.88415 0.18216 0.0
C197 C 0.56041 0.83617 0.18378 0.0
C198 C 0.51455 0.81594 0.18259 0.0
C199 C 0.47832 0.84347 0.17722 0.0
C200 C 0.4874 0.89091 0.17584 0.0
C201 C 0.48714 0.09411 0.14818 0.0
C202 C 0.52228 0.99407 1.03157 0.0
C203 C 0.56573 0.16302 1.02256 0.0
C204 C 0.59871 0.20223 1.01045 0.0
C205 C 0.58891 0.2469 1.02123 0.0
C206 C 0.62031 0.2847 1.01199 0.0
C207 C 0.66191 0.27833 0.99175 0.0
C208 C 0.67175 0.23381 0.98048 0.0
C209 C 0.64026 0.19592 0.98968 0.0
C210 C 0.64143 0.03333 0.05001 0.0
C211 C 0.62353 0.11874 0.17022 0.0
O212 O 0.58232 0.98297 0.18004 0.0
O213 O 0.50963 0.9843 0.16098 0.0
O214 O 0.52344 0.08899 0.17493 0.0
O215 O 0.49534 0.07498 0.10876 0.0
O216 O 0.54851 0.98498 0.06777 0.0
O217 O 0.51339 0.03671 1.02833 0.0
O218 O 0.55619 0.16007 0.06642 0.0
O219 O 0.5702 0.12311 1.00391 0.0
O220 O 0.61223 0.0498 1.02075 0.0
O221 O 0.62993 0.04417 0.09181 0.0
O222 O 0.6136 0.13058 0.12699 0.0
O223 O 0.60726 0.0778 0.18265 0.0
H224 H 0.60516 0.89947 0.18488 0.0
H225 H 0.58866 0.81512 0.18824 0.0
H226 H 0.44275 0.82825 0.17646 0.0
H227 H 0.45843 0.91126 0.17378 0.0
H228 H 0.5571 0.25249 0.03726 0.0
H229 H 0.61236 0.31894 1.02089 0.0
H230 H 0.70382 0.22849 0.96485 0.0
H231 H 0.64855 0.16184 0.98084 0.0
Nd232 Nd 0.52709 0.58807 0.6261 0.0
Nd233 Nd 0.60766 0.64845 0.60121 0.0
C234 C 0.44683 0.54037 0.63773 0.0
C235 C 0.43274 0.49273 0.65058 0.0
C236 C 0.39244 0.46939 0.62963 0.0
C237 C 0.37826 0.42431 0.6424 0.0
C238 C 0.40414 0.40241 0.67652 0.0
C239 C 0.44513 0.42529 0.69654 0.0
C240 C 0.45956 0.47012 0.68341 0.0
C241 C 0.60451 0.57243 0.68129 0.0
C242 C 0.54412 0.68657 0.68043 0.0
C243 C 0.67714 0.71019 0.58332 0.0
C244 C 0.69834 0.72789 0.54101 0.0
C245 C 0.68402 0.70823 0.49712 0.0
C246 C 0.70289 0.72677 0.45665 0.0
C247 C 0.73606 0.76515 0.45991 0.0
C248 C 0.75057 0.78449 0.50379 0.0
C249 C 0.73179 0.76591 0.54419 0.0
C250 C 0.53598 0.63928 0.53231 0.0
C251 C 0.60244 0.54561 0.56369 0.0
O252 O 0.46933 0.56631 0.67048 0.0
O253 O 0.46436 0.54604 0.5968 0.0
O254 O 0.57313 0.54071 0.66573 0.0
O255 O 0.59361 0.61113 0.66842 0.0
O256 O 0.51261 0.65266 0.66718 0.0
O257 O 0.58547 0.69014 0.66342 0.0
O258 O 0.68242 0.66745 0.59341 0.0
O259 O 0.63514 0.72039 0.5884 0.0
O260 O 0.57871 0.63547 0.52534 0.0
O261 O 0.53229 0.64578 0.57523 0.0
O262 O 0.63177 0.57827 0.58358 0.0
O263 O 0.55764 0.54648 0.5682 0.0
H264 H 0.3717 0.48624 0.60388 0.0
H265 H 0.34649 0.40693 0.62675 0.0
H266 H 0.46537 0.40875 0.72295 0.0
H267 H 0.49122 0.48732 0.69947 0.0
H268 H 0.65796 0.679 0.49416 0.0
H269 H 0.69138 0.71165 0.42292 0.0
H270 H 0.77617 0.8142 0.50664 0.0
H271 H 0.74295 0.78152 0.57782 0.0
Nd272 Nd 0.05621 0.59401 0.0721 0.0
Nd273 Nd 0.1236 0.5965 1.00447 0.0
C274 C 0.97666 0.59807 0.11066 0.0
C275 C 0.94387 0.63313 0.10516 0.0
C276 C 0.92277 0.64182 0.06113 0.0
C277 C 0.90035 0.68145 0.05424 0.0
C278 C 0.8993 0.71297 0.09109 0.0
C279 C 0.91727 0.70265 0.13565 0.0
C280 C 0.93916 0.66295 0.14271 0.0
C281 C 0.13867 0.63462 0.1091 0.0
C282 C 0.05809 0.68256 0.99147 0.0
C283 C 0.19504 0.58083 0.95668 0.0
C284 C 0.20615 0.53408 0.94678 0.0
C285 C 0.25097 0.52489 0.93738 0.0
C286 C 0.26127 0.47922 0.93414 0.0
C287 C 0.22699 0.44265 0.9412 0.0
C288 C 0.1823 0.45211 0.95047 0.0
C289 C 0.1719 0.49733 0.95283 0.0
C290 C 1.04132 0.54687 0.97535 0.0
C291 C 0.12424 0.5095 0.08629 0.0
O292 O 0.9812 0.57234 0.0741 0.0
O293 O 1.01633 0.61235 0.13198 0.0
O294 O 0.11038 0.60626 0.13109 0.0
O295 O 0.12283 0.64257 0.06796 0.0
O296 O 1.03517 0.6574 1.02362 0.0
O297 O 0.09863 0.66879 0.98074 0.0
O298 O 0.19876 0.59188 1.00094 0.0
O299 O 0.15646 0.59151 0.93663 0.0
O300 O 0.06292 0.57833 0.95083 0.0
O301 O 0.0625 0.54449 1.01442 0.0
O302 O 0.14503 0.53299 0.05178 0.0
O303 O 0.08507 0.52455 0.0996 0.0
H304 H 0.92557 0.6194 1.03144 0.0
H305 H 0.88608 0.68876 1.01978 0.0
H306 H 0.91616 0.72646 0.16458 0.0
H307 H 0.95486 0.65699 0.17692 0.0
H308 H 0.27796 0.55281 0.93347 0.0
H309 H 0.29597 0.47236 0.92689 0.0
H310 H 0.15549 0.42439 0.95604 0.0
H311 H 0.13719 0.50365 0.96072 0.0
C312 C 0.17426 0.1323 0.34044 0.0
C313 C 0.22392 0.13951 0.33841 0.0
C314 C 0.22436 0.10174 0.41911 0.0
C315 C 0.17506 0.09955 0.42326 0.0
N316 N 0.10486 0.12061 0.38568 0.0
N317 N 0.29473 0.13739 0.38487 0.0
C318 C 0.15098 0.11752 0.38329 0.0
C319 C 0.24824 0.12549 0.38027 0.0
N320 N 0.14835 0.13669 0.30001 0.0
N321 N 0.24936 0.08089 0.45271 0.0
H322 H 0.31292 0.15603 0.35962 0.0
H323 H 0.31436 0.13334 0.41566 0.0
H324 H 0.2344 0.06507 0.48153 0.0
H325 H 0.28394 0.07592 0.44993 0.0
H326 H 0.11288 0.12742 0.29674 0.0
H327 H 0.16301 0.14447 0.26822 0.0
H328 H 0.0859 0.13836 0.3614 0.0
H329 H 0.08628 0.10848 0.41396 0.0
C330 C 0.49803 0.93138 0.9124 0.0
C331 C 0.4877 0.88526 0.92702 0.0
C332 C 0.49238 0.91229 1.00879 0.0
C333 C 0.50767 0.95776 0.99473 0.0
N334 N 0.53448 1.00765 0.93224 0.0
N335 N 0.48455 0.83081 0.98985 0.0
C336 C 0.51303 0.96659 0.94626 0.0
C337 C 0.48795 0.87548 0.9755 0.0
N338 N 0.49196 0.94209 0.86629 0.0
N339 N 0.47963 0.90448 0.05353 0.0
H340 H 0.48185 0.80306 0.96646 0.0
H341 H 0.48911 0.8215 1.02469 0.0
H342 H 0.47928 0.93081 0.07813 0.0
H343 H 0.46432 0.87287 0.06465 0.0
H344 H 0.49359 0.9758 0.85439 0.0
H345 H 0.48145 0.91752 0.84034 0.0
H346 H 0.54394 1.01367 0.89806 0.0
H347 H 0.54697 0.03429 0.95513 0.0
C348 C 0.69575 0.6076 0.77724 0.0
C349 C 0.67459 0.58457 0.81529 0.0
C350 C 0.62107 0.5384 0.7606 0.0
C351 C 0.63543 0.56804 0.72387 0.0
N352 N 0.6915 0.62544 0.69474 0.0
N353 N 0.61446 0.53062 0.84407 0.0
C354 C 0.67451 0.60098 0.73159 0.0
C355 C 0.63656 0.55056 0.80721 0.0
N356 N 0.73694 0.63434 0.78454 0.0
N357 N 0.59491 0.49756 0.75114 0.0
H358 H 0.62463 0.53882 0.87881 0.0
H359 H 0.58358 0.50921 0.8401 0.0
H360 H 0.58847 0.48427 0.7174 0.0
H361 H 0.58607 0.4735 0.77672 0.0
H362 H 0.75643 0.64868 0.75784 0.0
H363 H 0.75365 0.63977 0.81746 0.0
H364 H 0.71522 0.65464 0.69795 0.0
H365 H 0.68121 0.61577 0.66047 0.0
C366 C 0.90703 0.8412 0.08524 0.0
C367 C 0.86538 0.84844 0.10626 0.0
C368 C 0.8387 0.76632 0.09964 0.0
C369 C 0.8824 0.75858 0.08381 0.0
N370 N 0.95163 0.78781 0.04686 0.0
N371 N 0.78664 0.8219 0.12059 0.0
C372 C 0.91416 0.79595 0.07113 0.0
C373 C 0.82929 0.81216 0.10858 0.0
N374 N 0.94109 0.8768 0.08226 0.0
N375 N 0.8075 0.72955 0.10844 0.0
H376 H 0.77958 0.8554 0.12777 0.0
H377 H 0.75766 0.79786 0.11999 0.0
H378 H 0.81308 0.69588 0.09999 0.0
H379 H 0.77691 0.73201 0.12494 0.0
H380 H 0.97438 0.8728 0.07276 0.0
H381 H 0.93669 0.91055 0.09131 0.0
H382 H 0.97388 0.81365 1.0327 0.0
H383 H 0.95818 0.7548 0.03722 0.0
C384 C 0.36175 0.14384 0.15939 0.0
C385 C 0.35599 0.14759 0.20923 0.0
C386 C 0.43013 0.10824 0.21683 0.0
C387 C 0.43984 0.11065 0.16773 0.0
N388 N 0.41257 0.13907 0.09394 0.0
N389 N 0.39696 0.14217 0.28376 0.0
C390 C 0.40475 0.13081 0.13976 0.0
C391 C 0.39378 0.13218 0.23709 0.0
N392 N 0.32499 0.15044 0.1298 0.0
N393 N 0.45363 0.08024 0.24499 0.0
H394 H 0.37399 0.16152 0.29961 0.0
H395 H 0.4256 0.13632 0.30529 0.0
H396 H 0.47587 0.05813 0.2323 0.0
H397 H 0.44568 0.07376 0.27955 0.0
H398 H 0.32429 0.14394 0.09399 0.0
H399 H 0.2933 0.1574 0.14176 0.0
H400 H 0.39195 0.15813 0.07256 0.0
H401 H 0.44208 0.13036 0.07853 0.0
C402 C 0.25875 0.75711 0.73025 0.0
C403 C 0.25173 0.7809 0.77215 0.0
C404 C 0.20004 0.82839 0.7291 0.0
C405 C 0.21336 0.80998 0.68662 0.0
N406 N 0.25584 0.75773 0.64544 0.0
N407 N 0.21849 0.84163 0.8117 0.0
C408 C 0.2424 0.77411 0.68678 0.0
C409 C 0.22249 0.81675 0.77184 0.0
N410 N 0.28078 0.71813 0.7323 0.0
N411 N 0.16603 0.85719 0.72841 0.0
H412 H 0.23433 0.83438 0.84384 0.0
H413 H 0.20223 0.87163 0.81234 0.0
H414 H 0.14926 0.86682 0.69754 0.0
H415 H 0.15148 0.86811 0.75841 0.0
H416 H 0.28352 0.69683 0.70358 0.0
H417 H 0.29285 0.70482 0.76378 0.0
H418 H 0.28129 0.73556 0.64314 0.0
H419 H 0.24318 0.7684 0.61303 0.0
C420 C 0.91884 0.52333 0.92023 0.0
C421 C 0.89641 0.50758 0.96096 0.0
C422 C 0.97124 0.49715 0.99862 0.0
C423 C 0.99352 0.52435 0.96408 0.0
N424 N 0.9893 0.55473 0.88581 0.0
N425 N 0.90247 0.48437 0.04176 0.0
C426 C 0.96759 0.53494 0.92286 0.0
C427 C 0.92291 0.49556 1.00094 0.0
N428 N 0.89397 0.52465 0.87856 0.0
N429 N 0.99587 0.4711 1.02781 0.0
H430 H 0.86723 0.48489 0.04582 0.0
H431 H 0.92144 0.47928 0.0728 0.0
H432 H 1.03038 0.46707 1.0228 0.0
H433 H 0.98038 0.4484 0.05173 0.0
H434 H 0.9088 0.53173 0.84678 0.0
H435 H 0.85865 0.51429 0.87481 0.0
H436 H 0.97215 0.5707 0.85871 0.0
H437 H 1.02444 0.55403 0.88154 0.0
C438 C 0.76409 0.85498 0.36919 0.0
C439 C 0.80559 0.84064 0.35342 0.0
C440 C 0.79567 0.77075 0.39986 0.0
C441 C 0.75554 0.78634 0.41759 0.0
N442 N 0.6944 0.83544 0.4108 0.0
N443 N 0.85472 0.78079 0.3429 0.0
C444 C 0.73725 0.82586 0.3992 0.0
C445 C 0.81915 0.79686 0.36503 0.0
N446 N 0.75189 0.8975 0.35758 0.0
N447 N 0.81248 0.73237 0.41808 0.0
H448 H 0.87242 0.79959 0.31732 0.0
H449 H 0.86411 0.74761 0.34677 0.0
H450 H 0.79519 0.71165 0.44254 0.0
H451 H 0.84444 0.72211 0.41076 0.0
H452 H 0.72524 0.91247 0.3725 0.0
H453 H 0.76998 0.91903 0.33435 0.0
H454 H 0.67721 0.86139 0.39544 0.0
H455 H 0.67421 0.81473 0.4331 0.0
C456 C 0.21653 0.42491 0.1335 0.0
C457 C 0.19033 0.38712 0.15523 0.0
C458 C 0.11988 0.42592 0.12703 0.0
C459 C 0.14657 0.46667 0.11045 0.0
N460 N 0.22382 0.50563 0.11085 0.0
N461 N 0.11473 0.35748 0.17678 0.0
C462 C 0.19584 0.46582 0.11687 0.0
C463 C 0.14136 0.38947 0.15279 0.0
N464 N 0.2624 0.4219 0.12871 0.0
N465 N 0.07347 0.4206 0.11692 0.0
H466 H 0.12843 0.33015 0.19384 0.0
H467 H 0.08004 0.35975 0.18226 0.0
H468 H 0.05648 0.44489 0.09857 0.0
H469 H 0.05257 0.39026 0.12277 0.0
H470 H 0.28321 0.44523 0.10958 0.0
H471 H 0.27832 0.3932 0.13969 0.0
H472 H 0.25914 0.50918 0.11946 0.0
H473 H 0.21124 0.53691 0.10328 0.0
C474 C 0.7466 0.38421 1.01563 0.0
C475 C 0.75044 0.40214 0.96992 0.0
C476 C 0.69806 0.33735 0.93777 0.0
C477 C 0.69534 0.31875 0.98328 0.0
N478 N 0.72422 0.3183 0.06357 0.0
N479 N 0.73868 0.39162 0.88653 0.0
C480 C 0.72201 0.34026 1.02163 0.0
C481 C 0.72893 0.37731 0.93063 0.0
N482 N 0.76458 0.41009 0.05344 0.0
N483 N 0.66977 0.31796 0.90185 0.0
H484 H 0.76125 0.42077 0.88013 0.0
H485 H 0.72774 0.37254 0.85647 0.0
H486 H 0.64719 0.28823 0.90556 0.0
H487 H 0.66625 0.33303 0.8692 0.0
H488 H 0.75832 0.40119 0.08784 0.0
H489 H 0.78308 0.44239 0.05052 0.0
H490 H 0.74672 0.32997 0.09151 0.0
H491 H 0.70643 0.28608 0.06916 0.0
C492 C 0.92855 0.99156 0.40432 0.0
C493 C 0.94128 0.95582 0.3757 0.0
C494 C 1.01665 0.95923 0.4185 0.0
C495 C 1.00234 0.99242 0.4493 0.0
N496 N 0.94198 0.03376 0.47758 0.0
N497 N 0.99449 0.90113 0.35839 0.0
C498 C 0.9575 1.00685 0.44387 0.0
C499 C 0.98461 0.93841 0.3835 0.0
N500 N 0.889 1.01124 0.3932 0.0
N501 N 0.06121 0.94865 0.42187 0.0
H502 H 0.97256 0.88605 0.33138 0.0
H503 H 1.02301 0.8834 0.36606 0.0
H504 H 0.08501 0.96204 0.44813 0.0
H505 H 0.0754 0.92886 0.39718 0.0
H506 H 0.88017 0.04059 0.40978 0.0
H507 H 0.86691 1.00066 0.36448 0.0
H508 H 0.90818 0.04204 0.47793 0.0
H509 H 0.96176 0.04422 0.50787 0.0
C510 C 0.53091 0.7372 0.80182 0.0
C511 C 0.5059 0.7751 0.79048 0.0
C512 C 0.50938 0.75736 0.7066 0.0
C513 C 0.53397 0.71921 0.71794 0.0
N514 N 0.57695 0.67849 0.77527 0.0
N515 N 0.48044 0.82765 0.73298 0.0
C516 C 0.54776 0.71114 0.76527 0.0
C517 C 0.49824 0.78723 0.743 0.0
N518 N 0.5364 0.72462 0.84747 0.0
N519 N 0.49552 0.7642 0.6611 0.0
H520 H 0.47239 0.85012 0.75903 0.0
H521 H 0.47746 0.84094 0.69948 0.0
H522 H 0.50455 0.74407 0.63355 0.0
H523 H 0.47307 0.78805 0.65075 0.0
H524 H 0.54899 0.6941 0.85796 0.0
H525 H 0.52599 0.74376 0.87509 0.0
H526 H 0.59222 0.67403 0.80834 0.0
H527 H 0.58887 0.65795 0.74967 0.0
C528 C 1.01437 0.9778 0.7783 0.0
C529 C 0.99355 0.93106 0.78171 0.0
C530 C 1.01201 0.92429 0.69527 0.0
C531 C 1.03107 0.97202 0.69091 0.0
N532 N 1.04116 0.045 0.73258 0.0
N533 N 0.96735 0.86275 0.73744 0.0
C534 C 1.02924 0.99864 0.73371 0.0
C535 C 0.99164 0.90537 0.73845 0.0
N536 N 1.02255 1.00254 0.81897 0.0
N537 N 1.0121 0.89602 0.65726 0.0
H538 H 0.95226 0.8481 0.76681 0.0
H539 H 0.95856 0.84347 0.70708 0.0
H540 H 1.01751 0.9081 0.62371 0.0
H541 H 1.00765 0.86029 0.65907 0.0
H542 H 1.04294 0.03398 0.82172 0.0
H543 H 1.01257 0.98948 0.85113 0.0
H544 H 1.03409 0.06744 0.75895 0.0
H545 H 0.05532 0.06199 0.70417 0.0
C546 C 0.67289 0.22852 0.23948 0.0
C547 C 0.68712 0.20926 0.28265 0.0
C548 C 0.67365 0.13309 0.24486 0.0
C549 C 0.64944 0.15134 0.20596 0.0
N550 N 0.61771 0.21901 0.17389 0.0
N551 N 0.69035 0.13999 0.32811 0.0
C552 C 0.64693 0.19985 0.20501 0.0
C553 C 0.68464 0.16058 0.28587 0.0
N554 N 0.68474 0.27398 0.23071 0.0
N555 N 0.68768 0.09011 0.24245 0.0
H556 H 0.69485 0.15831 0.3596 0.0
H557 H 0.68507 0.10442 0.33211 0.0
H558 H 0.68442 0.07052 0.21171 0.0
H559 H 0.70809 0.0769 0.26899 0.0
H560 H 0.67819 0.28849 0.1982 0.0
H561 H 0.70587 0.29556 0.25382 0.0
H562 H 0.61274 0.25378 0.17511 0.0
H563 H 0.59398 0.20008 0.15115 0.0
C564 C 0.47837 0.59528 0.41762 0.0
C565 C 0.43128 0.58692 0.42787 0.0
C566 C 0.44993 0.62093 0.50639 0.0
C567 C 0.49735 0.62923 0.49551 0.0
N568 N 0.54884 0.64499 0.43275 0.0
N569 N 0.37025 0.60071 0.47792 0.0
C570 C 0.5093 0.62258 0.44872 0.0
C571 C 0.41645 0.60207 0.47125 0.0
N572 N 0.49403 0.57646 0.37851 0.0
N573 N 0.43632 0.63182 0.54957 0.0
H574 H 0.34492 0.58748 0.45303 0.0
H575 H 0.35672 0.61577 0.50642 0.0
H576 H 0.45594 0.65453 0.57258 0.0
H577 H 0.40479 0.6189 0.5623 0.0
H578 H 0.52899 0.5781 0.37201 0.0
H579 H 0.47274 0.55526 0.35517 0.0
H580 H 0.55731 0.64371 0.3979 0.0
H581 H 0.56923 0.67036 0.45235 0.0
C582 C 0.21782 0.31714 0.90431 0.0
C583 C 0.25215 0.30035 0.93446 0.0
C584 C 0.2662 0.37583 0.97319 0.0
C585 C 0.23695 0.394 0.93844 0.0
N586 N 0.19138 0.38349 0.86569 0.0
N587 N 0.31391 0.3153 0.99373 0.0
C588 C 0.21446 0.36505 0.90253 0.0
C589 C 0.27761 0.33003 0.9681 0.0
N590 N 0.18791 0.2871 0.87789 0.0
N591 N 0.28195 0.40172 1.01169 0.0
H592 H 0.32347 0.28208 0.99102 0.0
H593 H 0.33677 0.33713 1.01493 0.0
H594 H 0.27391 0.43522 1.01694 0.0
H595 H 0.29945 0.38853 0.04032 0.0
H596 H 0.15953 0.29709 0.8585 0.0
H597 H 0.18865 0.25153 0.87926 0.0
H598 H 0.17843 0.36442 0.8362 0.0
H599 H 0.1892 0.41871 0.86236 0.0
C600 C 0.75271 1.01966 0.97545 0.0
C601 C 0.76536 0.97423 0.9849 0.0
C602 C 0.70005 0.96871 0.04208 0.0
C603 C 0.68798 1.01444 1.0329 0.0
N604 N 0.71304 0.08611 0.99707 0.0
N605 N 0.75264 0.90865 0.03406 0.0
C606 C 0.71747 0.04031 1.0013 0.0
C607 C 0.73939 0.95014 1.02052 0.0
N608 N 0.77334 0.04308 0.93975 0.0
N609 N 0.6723 0.94169 0.0701 0.0
H610 H 0.78039 0.89486 1.01967 0.0
H611 H 0.73906 0.88979 0.06171 0.0
H612 H 0.64513 0.9541 0.08684 0.0
H613 H 0.6743 0.90672 0.07489 0.0
H614 H 0.76234 0.0731 0.92579 0.0
H615 H 0.80012 0.03078 0.92226 0.0
H616 H 0.73544 0.10882 0.97897 0.0
H617 H 0.68976 0.10233 1.0161 0.0
C618 C 0.79524 0.21873 0.45277 0.0
C619 C 0.80083 0.25314 0.41805 0.0
C620 C 0.8852 0.25898 0.43277 0.0
C621 C 0.87953 0.22529 0.46819 0.0
N622 N 0.82956 0.17737 0.51662 0.0
N623 N 0.84964 0.31061 0.3789 0.0
C624 C 0.83459 0.20656 0.47964 0.0
C625 C 0.84546 0.27472 0.40932 0.0
N626 N 0.75228 0.19665 0.45898 0.0
N627 N 0.92873 0.27504 0.42083 0.0
H628 H 0.82141 0.32208 0.36039 0.0
H629 H 0.88038 0.33111 0.37412 0.0
H630 H 0.95843 0.26576 0.43853 0.0
H631 H 0.93577 0.29557 0.392 0.0
H632 H 0.74619 0.16734 0.47911 0.0
H633 H 0.72238 0.20614 0.44186 0.0
H634 H 0.798 0.16662 0.53048 0.0
H635 H 0.85742 0.16593 0.53575 0.0
C636 C 0.26541 0.63927 0.13032 0.0
C637 C 0.26974 0.6426 0.17996 0.0
C638 C 0.18876 0.65808 0.18086 0.0
C639 C 0.18449 0.65244 0.13148 0.0
N640 N 0.22477 0.66402 0.06086 0.0
N641 N 0.23991 0.67127 0.25025 0.0
C642 C 0.22471 0.65148 0.10653 0.0
C643 C 0.23267 0.65692 0.20473 0.0
N644 N 0.29889 0.62231 0.10578 0.0
N645 N 0.15069 0.6648 0.20477 0.0
H646 H 0.27207 0.67284 0.26815 0.0
H647 H 0.21536 0.68587 0.2689 0.0
H648 H 0.11968 0.67162 0.18777 0.0
H649 H 0.14967 0.66282 0.24098 0.0
H650 H 0.29493 0.61567 0.06992 0.0
H651 H 0.32824 0.6105 0.12178 0.0
H652 H 0.25469 0.66743 0.04221 0.0
H653 H 0.19625 0.67639 0.04377 0.0
C654 C 0.32794 0.30891 0.73464 0.0
C655 C 0.35394 0.27092 0.73016 0.0
C656 C 0.40941 0.3176 0.68425 0.0
C657 C 0.38653 0.35678 0.69401 0.0
N658 N 0.32934 0.39158 0.73626 0.0
N659 N 0.42186 0.23944 0.70532 0.0
C660 C 0.3472 0.35299 0.72132 0.0
C661 C 0.39536 0.27524 0.70607 0.0
N662 N 0.28428 0.30265 0.75043 0.0
N663 N 0.4437 0.32068 0.65331 0.0
H664 H 0.41226 0.20779 0.7206 0.0
H665 H 0.45484 0.24215 0.69267 0.0
H666 H 0.4547 0.3512 0.63659 0.0
H667 H 0.45855 0.29231 0.64124 0.0
H668 H 0.2622 0.32842 0.74998 0.0
H669 H 0.26826 0.27058 0.75952 0.0
H670 H 0.30391 0.39081 0.76056 0.0
H671 H 0.34287 0.42483 0.72802 0.0
C672 C 0.97195 0.76165 0.92098 0.0
C673 C 0.99658 0.80705 0.92047 0.0
C674 C 0.06253 0.7708 0.96365 0.0
C675 C 1.03696 0.72589 0.96658 0.0
N676 N 0.96372 0.68181 0.9483 0.0
N677 N 0.06492 0.85386 0.94867 0.0
C678 C 0.99061 0.72277 0.9455 0.0
C679 C 1.04189 0.81083 0.94357 0.0
N680 N 0.93095 0.7547 0.89543 0.0
N681 N 0.10742 0.77577 0.98046 0.0
H682 H 0.05168 0.88303 0.93502 0.0
H683 H 0.09509 0.86147 0.96944 0.0
H684 H 0.12242 0.75003 0.9988 0.0
H685 H 0.13062 0.80434 0.97421 0.0
H686 H 0.91286 0.72255 0.88875 0.0
H687 H 0.9166 0.78103 0.87735 0.0
H688 H 0.92826 0.67773 0.94078 0.0
H689 H 0.9765 0.65182 0.96023 0.0
C690 C 0.45596 0.69628 0.16638 0.0
C691 C 0.4373 0.69232 0.21115 0.0
C692 C 0.49202 0.7566 0.23969 0.0
C693 C 0.50223 0.767 0.1931 0.0
N694 N 0.4968 0.7467 0.11158 0.0
N695 N 0.43407 0.72284 0.2897 0.0
C696 C 0.48579 0.73622 0.15629 0.0
C697 C 0.45506 0.72289 0.24809 0.0
N698 N 0.44494 0.66208 0.13381 0.0
N699 N 0.51612 0.78075 0.2756 0.0
H700 H 0.40461 0.70117 0.29672 0.0
H701 H 0.44298 0.74766 0.31573 0.0
H702 H 0.543 0.80627 0.26996 0.0
H703 H 0.51273 0.77212 0.31058 0.0
H704 H 0.46016 0.66139 0.10177 0.0
H705 H 0.42345 0.63228 0.14065 0.0
H706 H 0.48156 0.72876 0.0823 0.0
H707 H 0.52024 0.77486 0.10401 0.0
C708 C 0.23438 0.08021 0.73166 0.0
C709 C 0.26899 0.11261 0.7153 0.0
C710 C 0.24135 0.09218 0.63486 0.0
C711 C 0.19914 0.07165 0.65225 0.0
N712 N 0.1569 0.04409 0.71917 0.0
N713 N 0.32205 0.11768 0.65391 0.0
C714 C 0.19617 0.06481 0.70122 0.0
C715 C 0.27767 0.10975 0.66723 0.0
N716 N 0.24193 0.058 0.77258 0.0
N717 N 0.24745 0.09434 0.58797 0.0
H718 H 0.34963 0.12478 0.67849 0.0
H719 H 0.33199 0.11194 0.62018 0.0
H720 H 0.22495 0.07689 0.56301 0.0
H721 H 0.27471 0.11459 0.57374 0.0
H722 H 0.21937 0.03083 0.7841 0.0
H723 H 0.27406 0.06233 0.79081 0.0
H724 H 0.15231 0.04249 0.75502 0.0
H725 H 0.12787 0.03182 0.69847 0.0
C726 C 0.60924 0.42965 0.50243 0.0
C727 C 0.64292 0.44171 0.46939 0.0
C728 C 0.65223 0.52121 0.4994 0.0
C729 C 0.61937 0.50919 0.53364 0.0
N730 N 0.57691 0.44852 0.57557 0.0
N731 N 0.70597 0.49469 0.44603 0.0
C732 C 0.60105 0.46227 0.53758 0.0
C733 C 0.66781 0.48603 0.47156 0.0
N734 N 0.58366 0.38776 0.49907 0.0
N735 N 0.66588 0.56632 0.49034 0.0
H736 H 0.71795 0.46946 0.42532 0.0
H737 H 0.72818 0.52501 0.44931 0.0
H738 H 0.65348 0.59371 0.50715 0.0
H739 H 0.68581 0.57677 0.4624 0.0
H740 H 0.55476 0.37904 0.51835 0.0
H741 H 0.58985 0.36261 0.47491 0.0
H742 H 0.56626 0.4142 0.58247 0.0
H743 H 0.57178 0.47087 0.60282 0.0
loop_
_geom_bond_atom_site_label_1
_geom_bond_atom_site_label_2
_geom_bond_distance
_geom_bond_site_symmetry_2
_ccdc_geom_bond_type
H0 C1 0.949 . S
C1 H0 0.949 . S
C1 C2 1.395 . S
C1 C3 1.391 . S
C2 C1 1.395 . S
C2 C5 1.390 . S
C3 C1 1.391 . S
C3 C7 1.387 . S
C3 C8 1.491 . S
H4 C5 0.950 . S
C5 C2 1.390 . S
C5 H4 0.950 . S
C5 C6 1.378 . S
C6 C5 1.378 . S
C6 C7 1.409 . S
C7 C3 1.387 . S
C7 C6 1.409 . S
C7 H9 0.951 . S
C8 C3 1.491 . S
C8 C10 1.382 . S
C8 C12 1.404 . S
H9 C7 0.951 . S
C10 C8 1.382 . S
C10 C11 1.390 . S
C10 H15 0.949 . S
C11 C10 1.390 . S
C11 C16 1.399 . S
C12 C8 1.404 . S
C12 H13 0.950 . S
C12 C14 1.375 . S
H13 C12 0.950 . S
C14 C12 1.375 . S
C14 C16 1.382 . S
C14 H18 0.950 . S
H15 C10 0.949 . S
C16 C11 1.399 . S
C16 C14 1.382 . S
C16 H17 0.952 . S
H17 C16 0.952 . S
H18 C14 0.950 . S
H19 C20 0.949 . S
C20 H19 0.949 . S
C20 C21 1.395 . S
C20 C22 1.391 . S
C21 C20 1.395 . S
C21 C24 1.390 . S
C22 C20 1.391 . S
C22 C26 1.387 . S
C22 C27 1.491 . S
H23 C24 0.950 . S
C24 C21 1.390 . S
C24 H23 0.950 . S
C24 C25 1.378 . S
C25 C24 1.378 . S
C25 C26 1.409 . S
C26 C22 1.387 . S
C26 C25 1.409 . S
C26 H28 0.951 . S
C27 C22 1.491 . S
C27 C29 1.382 . S
C27 C31 1.404 . S
H28 C26 0.951 . S
C29 C27 1.382 . S
C29 C30 1.390 . S
C29 H34 0.949 . S
C30 C29 1.390 . S
C30 C35 1.399 . S
C31 C27 1.404 . S
C31 H32 0.950 . S
C31 C33 1.375 . S
H32 C31 0.950 . S
C33 C31 1.375 . S
C33 C35 1.382 . S
C33 H37 0.950 . S
H34 C29 0.949 . S
C35 C30 1.399 . S
C35 C33 1.382 . S
C35 H36 0.952 . S
H36 C35 0.952 . S
H37 C33 0.950 . S
H38 C39 0.949 . S
C39 H38 0.949 . S
C39 C40 1.395 . S
C39 C41 1.391 . S
C40 C39 1.395 . S
C40 C43 1.390 . S
C41 C39 1.391 . S
C41 C45 1.387 . S
C41 C46 1.491 . S
H42 C43 0.950 . S
C43 C40 1.390 . S
C43 H42 0.950 . S
C43 C44 1.378 . S
C44 C43 1.378 . S
C44 C45 1.409 . S
C45 C41 1.387 . S
C45 C44 1.409 . S
C45 H47 0.951 . S
C46 C41 1.491 . S
C46 C48 1.382 . S
C46 C50 1.404 . S
H47 C45 0.951 . S
C48 C46 1.382 . S
C48 C49 1.390 . S
C48 H53 0.949 . S
C49 C48 1.390 . S
C49 C54 1.399 . S
C50 C46 1.404 . S
C50 H51 0.950 . S
C50 C52 1.375 . S
H51 C50 0.950 . S
C52 C50 1.375 . S
C52 C54 1.382 . S
C52 H56 0.950 . S
H53 C48 0.949 . S
C54 C49 1.399 . S
C54 C52 1.382 . S
C54 H55 0.952 . S
H55 C54 0.952 . S
H56 C52 0.950 . S
H57 C58 0.949 . S
C58 H57 0.949 . S
C58 C59 1.395 . S
C58 C60 1.391 . S
C59 C58 1.395 . S
C59 C62 1.390 . S
C60 C58 1.391 . S
C60 C64 1.387 . S
C60 C65 1.491 . S
H61 C62 0.950 . S
C62 C59 1.390 . S
C62 H61 0.950 . S
C62 C63 1.378 . S
C63 C62 1.378 . S
C63 C64 1.409 . S
C64 C60 1.387 . S
C64 C63 1.409 . S
C64 H66 0.951 . S
C65 C60 1.491 . S
C65 C67 1.382 . S
C65 C69 1.404 . S
H66 C64 0.951 . S
C67 C65 1.382 . S
C67 C68 1.390 . S
C67 H72 0.949 . S
C68 C67 1.390 . S
C68 C73 1.399 . S
C69 C65 1.404 . S
C69 H70 0.950 . S
C69 C71 1.375 . S
H70 C69 0.950 . S
C71 C69 1.375 . S
C71 C73 1.382 . S
C71 H75 0.950 . S
H72 C67 0.949 . S
C73 C68 1.399 . S
C73 C71 1.382 . S
C73 H74 0.952 . S
H74 C73 0.952 . S
H75 C71 0.950 . S
H76 C77 0.949 . S
C77 H76 0.949 . S
C77 C78 1.395 . S
C77 C79 1.391 . S
C78 C77 1.395 . S
C78 C81 1.390 . S
C79 C77 1.391 . S
C79 C83 1.387 . S
C79 C84 1.491 . S
H80 C81 0.950 . S
C81 C78 1.390 . S
C81 H80 0.950 . S
C81 C82 1.378 . S
C82 C81 1.378 . S
C82 C83 1.409 . S
C83 C79 1.387 . S
C83 C82 1.409 . S
C83 H85 0.951 . S
C84 C79 1.491 . S
C84 C86 1.382 . S
C84 C88 1.404 . S
H85 C83 0.951 . S
C86 C84 1.382 . S
C86 C87 1.390 . S
C86 H91 0.949 . S
C87 C86 1.390 . S
C87 C92 1.399 . S
C88 C84 1.404 . S
C88 H89 0.950 . S
C88 C90 1.375 . S
H89 C88 0.950 . S
C90 C88 1.375 . S
C90 C92 1.382 . S
C90 H94 0.950 . S
H91 C86 0.949 . S
C92 C87 1.399 . S
C92 C90 1.382 . S
C92 H93 0.952 . S
H93 C92 0.952 . S
H94 C90 0.950 . S
H95 C96 0.949 . S
C96 H95 0.949 . S
C96 C97 1.395 . S
C96 C98 1.391 . S
C97 C96 1.395 . S
C97 C100 1.390 . S
C98 C96 1.391 . S
C98 C102 1.387 . S
C98 C103 1.491 . S
H99 C100 0.950 . S
C100 C97 1.390 . S
C100 H99 0.950 . S
C100 C101 1.378 . S
C101 C100 1.378 . S
C101 C102 1.409 . S
C102 C98 1.387 . S
C102 C101 1.409 . S
C102 H104 0.951 . S
C103 C98 1.491 . S
C103 C105 1.382 . S
C103 C107 1.404 . S
H104 C102 0.951 . S
C105 C103 1.382 . S
C105 C106 1.390 . S
C105 H110 0.949 . S
C106 C105 1.390 . S
C106 C111 1.399 . S
C107 C103 1.404 . S
C107 H108 0.950 . S
C107 C109 1.375 . S
H108 C107 0.950 . S
C109 C107 1.375 . S
C109 C111 1.382 . S
C109 H113 0.950 . S
H110 C105 0.949 . S
C111 C106 1.399 . S
C111 C109 1.382 . S
C111 H112 0.952 . S
H112 C111 0.952 . S
H113 C109 0.950 . S
H114 C115 0.949 . S
C115 H114 0.949 . S
C115 C116 1.395 . S
C115 C117 1.391 . S
C116 C115 1.395 . S
C116 C119 1.390 . S
C117 C115 1.391 . S
C117 C121 1.387 . S
C117 C122 1.491 . S
H118 C119 0.950 . S
C119 C116 1.390 . S
C119 H118 0.950 . S
C119 C120 1.378 . S
C120 C119 1.378 . S
C120 C121 1.409 . S
C121 C117 1.387 . S
C121 C120 1.409 . S
C121 H123 0.951 . S
C122 C117 1.491 . S
C122 C124 1.382 . S
C122 C126 1.404 . S
H123 C121 0.951 . S
C124 C122 1.382 . S
C124 C125 1.390 . S
C124 H129 0.949 . S
C125 C124 1.390 . S
C125 C130 1.399 . S
C126 C122 1.404 . S
C126 H127 0.950 . S
C126 C128 1.375 . S
H127 C126 0.950 . S
C128 C126 1.375 . S
C128 C130 1.382 . S
C128 H132 0.950 . S
H129 C124 0.949 . S
C130 C125 1.399 . S
C130 C128 1.382 . S
C130 H131 0.952 . S
H131 C130 0.952 . S
H132 C128 0.950 . S
H133 C134 0.949 . S
C134 H133 0.949 . S
C134 C135 1.395 . S
C134 C136 1.391 . S
C135 C134 1.395 . S
C135 C138 1.390 . S
C136 C134 1.391 . S
C136 C140 1.387 . S
C136 C141 1.491 . S
H137 C138 0.950 . S
C138 C135 1.390 . S
C138 H137 0.950 . S
C138 C139 1.378 . S
C139 C138 1.378 . S
C139 C140 1.409 . S
C140 C136 1.387 . S
C140 C139 1.409 . S
C140 H142 0.951 . S
C141 C136 1.491 . S
C141 C143 1.382 . S
C141 C145 1.404 . S
H142 C140 0.951 . S
C143 C141 1.382 . S
C143 C144 1.390 . S
C143 H148 0.949 . S
C144 C143 1.390 . S
C144 C149 1.399 . S
C145 C141 1.404 . S
C145 H146 0.950 . S
C145 C147 1.375 . S
H146 C145 0.950 . S
C147 C145 1.375 . S
C147 C149 1.382 . S
C147 H151 0.950 . S
H148 C143 0.949 . S
C149 C144 1.399 . S
C149 C147 1.382 . S
C149 H150 0.952 . S
H150 C149 0.952 . S
H151 C147 0.950 . S
Nd152 C154 2.836 . S
Nd152 O172 2.500 . S
Nd152 O173 2.492 . S
Nd152 O174 2.487 1_565 S
Nd152 O175 2.682 1_565 S
Nd152 O176 2.410 . S
Nd152 O181 2.414 1_455 S
Nd152 O183 2.424 1_565 S
Nd153 C163 2.836 . S
Nd153 O175 2.414 1_655 S
Nd153 O177 2.424 1_545 S
Nd153 O178 2.500 . S
Nd153 O179 2.492 . S
Nd153 O180 2.487 1_545 S
Nd153 O181 2.682 1_545 S
Nd153 O182 2.410 . S
C154 Nd152 2.836 . S
C154 C155 1.498 . S
C154 O172 1.258 . S
C154 O173 1.239 . S
C155 C154 1.498 . S
C155 C156 1.366 . S
C155 C160 1.407 . S
C156 C155 1.366 . S
C156 C157 1.392 . S
C156 H184 0.930 . S
C157 C156 1.392 . S
C157 C158 1.398 . S
C157 H185 0.929 . S
C158 C157 1.398 . S
C158 C159 1.352 . S
C159 C158 1.352 . S
C159 C160 1.384 . S
C159 H186 0.930 . S
C160 C155 1.407 . S
C160 C159 1.384 . S
C160 H187 0.929 . S
C161 O174 1.241 . S
C161 O175 1.273 . S
C162 O176 1.251 1_655 S
C162 O177 1.268 . S
C163 Nd153 2.836 . S
C163 C164 1.498 . S
C163 O178 1.258 . S
C163 O179 1.239 . S
C164 C163 1.498 . S
C164 C165 1.366 . S
C164 C169 1.407 . S
C165 C164 1.366 . S
C165 C166 1.392 . S
C165 H188 0.930 . S
C166 C165 1.392 . S
C166 C167 1.398 . S
C166 H189 0.929 . S
C167 C166 1.398 . S
C167 C168 1.352 . S
C168 C167 1.352 . S
C168 C169 1.384 . S
C168 H190 0.930 . S
C169 C164 1.407 . S
C169 C168 1.384 . S
C169 H191 0.929 . S
C170 O180 1.241 . S
C170 O181 1.273 . S
C171 O182 1.251 1_455 S
C171 O183 1.268 . S
O172 Nd152 2.500 . S
O172 C154 1.258 . S
O173 Nd152 2.492 . S
O173 C154 1.239 . S
O174 Nd152 2.487 1_545 S
O174 C161 1.241 . S
O175 Nd152 2.682 1_545 S
O175 Nd153 2.414 1_455 S
O175 C161 1.273 . S
O176 Nd152 2.410 . S
O176 C162 1.251 1_455 S
O177 Nd153 2.424 1_565 S
O177 C162 1.268 . S
O178 Nd153 2.500 . S
O178 C163 1.258 . S
O179 Nd153 2.492 . S
O179 C163 1.239 . S
O180 Nd153 2.487 1_565 S
O180 C170 1.241 . S
O181 Nd152 2.414 1_655 S
O181 Nd153 2.682 1_565 S
O181 C170 1.273 . S
O182 Nd153 2.410 . S
O182 C171 1.251 1_655 S
O183 Nd152 2.424 1_545 S
O183 C171 1.268 . S
H184 C156 0.930 . S
H185 C157 0.929 . S
H186 C159 0.930 . S
H187 C160 0.929 . S
H188 C165 0.930 . S
H189 C166 0.929 . S
H190 C168 0.930 . S
H191 C169 0.929 . S
Nd192 C194 2.836 . S
Nd192 O212 2.500 . S
Nd192 O213 2.492 . S
Nd192 O214 2.487 1_565 S
Nd192 O215 2.682 1_565 S
Nd192 O216 2.410 . S
Nd192 O221 2.414 1_565 S
Nd192 O223 2.424 1_565 S
Nd193 C203 2.836 . S
Nd193 O215 2.414 . S
Nd193 O217 2.424 1_544 S
Nd193 O218 2.500 . S
Nd193 O219 2.492 1_554 S
Nd193 O220 2.487 . S
Nd193 O221 2.682 . S
Nd193 O222 2.410 . S
C194 Nd192 2.836 . S
C194 C195 1.498 . S
C194 O212 1.258 . S
C194 O213 1.239 . S
C195 C194 1.498 . S
C195 C196 1.366 . S
C195 C200 1.407 . S
C196 C195 1.366 . S
C196 C197 1.392 . S
C196 H224 0.930 . S
C197 C196 1.392 . S
C197 C198 1.398 . S
C197 H225 0.929 . S
C198 C197 1.398 . S
C198 C199 1.352 . S
C199 C198 1.352 . S
C199 C200 1.384 . S
C199 H226 0.930 . S
C200 C195 1.407 . S
C200 C199 1.384 . S
C200 H227 0.929 . S
C201 O214 1.241 . S
C201 O215 1.273 . S
C202 O216 1.251 . S
C202 O217 1.268 1_554 S
C203 Nd193 2.836 . S
C203 C204 1.496 1_554 S
C203 O218 1.258 . S
C203 O219 1.239 1_554 S
C204 C203 1.496 1_556 S
C204 C205 1.361 1_556 S
C204 C209 1.415 . S
C205 C204 1.361 1_554 S
C205 C206 1.392 . S
C205 H228 0.930 . S
C206 C205 1.392 . S
C206 C207 1.398 1_554 S
C206 H229 0.929 . S
C207 C206 1.398 1_556 S
C207 C208 1.352 . S
C208 C207 1.352 . S
C208 C209 1.384 . S
C208 H230 0.930 . S
C209 C204 1.415 . S
C209 C208 1.384 . S
C209 H231 0.929 . S
C210 O220 1.241 . S
C210 O221 1.273 . S
C211 O222 1.251 . S
C211 O223 1.268 . S
O212 Nd192 2.500 . S
O212 C194 1.258 . S
O213 Nd192 2.492 . S
O213 C194 1.239 . S
O214 Nd192 2.487 1_545 S
O214 C201 1.241 . S
O215 Nd192 2.682 1_545 S
O215 Nd193 2.414 . S
O215 C201 1.273 . S
O216 Nd192 2.410 . S
O216 C202 1.251 . S
O217 Nd193 2.424 1_566 S
O217 C202 1.268 1_556 S
O218 Nd193 2.500 . S
O218 C203 1.258 . S
O219 Nd193 2.492 1_556 S
O219 C203 1.239 1_556 S
O220 Nd193 2.487 . S
O220 C210 1.241 . S
O221 Nd192 2.414 1_545 S
O221 Nd193 2.682 . S
O221 C210 1.273 . S
O222 Nd193 2.410 . S
O222 C211 1.251 . S
O223 Nd192 2.424 1_545 S
O223 C211 1.268 . S
H224 C196 0.930 . S
H225 C197 0.929 . S
H226 C199 0.930 . S
H227 C200 0.929 . S
H228 C205 0.930 . S
H229 C206 0.929 . S
H230 C208 0.930 . S
H231 C209 0.929 . S
Nd232 C234 2.836 . S
Nd232 O252 2.500 . S
Nd232 O253 2.492 . S
Nd232 O254 2.487 . S
Nd232 O255 2.682 . S
Nd232 O256 2.410 . S
Nd232 O261 2.414 . S
Nd232 O263 2.424 . S
Nd233 C243 2.836 . S
Nd233 O255 2.414 . S
Nd233 O257 2.424 . S
Nd233 O258 2.500 . S
Nd233 O259 2.492 . S
Nd233 O260 2.487 . S
Nd233 O261 2.682 . S
Nd233 O262 2.410 . S
C234 Nd232 2.836 . S
C234 C235 1.498 . S
C234 O252 1.258 . S
C234 O253 1.239 . S
C235 C234 1.498 . S
C235 C236 1.366 . S
C235 C240 1.407 . S
C236 C235 1.366 . S
C236 C237 1.392 . S
C236 H264 0.930 . S
C237 C236 1.392 . S
C237 C238 1.398 . S
C237 H265 0.929 . S
C238 C237 1.398 . S
C238 C239 1.352 . S
C239 C238 1.352 . S
C239 C240 1.384 . S
C239 H266 0.930 . S
C240 C235 1.407 . S
C240 C239 1.384 . S
C240 H267 0.929 . S
C241 O254 1.241 . S
C241 O255 1.273 . S
C242 O256 1.251 . S
C242 O257 1.268 . S
C243 Nd233 2.836 . S
C243 C244 1.498 . S
C243 O258 1.258 . S
C243 O259 1.239 . S
C244 C243 1.498 . S
C244 C245 1.366 . S
C244 C249 1.407 . S
C245 C244 1.366 . S
C245 C246 1.392 . S
C245 H268 0.930 . S
C246 C245 1.392 . S
C246 C247 1.398 . S
C246 H269 0.929 . S
C247 C246 1.398 . S
C247 C248 1.352 . S
C248 C247 1.352 . S
C248 C249 1.384 . S
C248 H270 0.930 . S
C249 C244 1.407 . S
C249 C248 1.384 . S
C249 H271 0.929 . S
C250 O260 1.241 . S
C250 O261 1.273 . S
C251 O262 1.251 . S
C251 O263 1.268 . S
O252 Nd232 2.500 . S
O252 C234 1.258 . S
O253 Nd232 2.492 . S
O253 C234 1.239 . S
O254 Nd232 2.487 . S
O254 C241 1.241 . S
O255 Nd232 2.682 . S
O255 Nd233 2.414 . S
O255 C241 1.273 . S
O256 Nd232 2.410 . S
O256 C242 1.251 . S
O257 Nd233 2.424 . S
O257 C242 1.268 . S
O258 Nd233 2.500 . S
O258 C243 1.258 . S
O259 Nd233 2.492 . S
O259 C243 1.239 . S
O260 Nd233 2.487 . S
O260 C250 1.241 . S
O261 Nd232 2.414 . S
O261 Nd233 2.682 . S
O261 C250 1.273 . S
O262 Nd233 2.410 . S
O262 C251 1.251 . S
O263 Nd232 2.424 . S
O263 C251 1.268 . S
H264 C236 0.930 . S
H265 C237 0.929 . S
H266 C239 0.930 . S
H267 C240 0.929 . S
H268 C245 0.930 . S
H269 C246 0.929 . S
H270 C248 0.930 . S
H271 C249 0.929 . S
Nd272 C274 2.836 1_455 S
Nd272 O292 2.500 1_455 S
Nd272 O293 2.492 . S
Nd272 O294 2.487 . S
Nd272 O295 2.682 . S
Nd272 O296 2.410 . S
Nd272 O301 2.414 1_454 S
Nd272 O303 2.424 . S
Nd273 C283 2.836 . S
Nd273 O295 2.414 1_556 S
Nd273 O297 2.424 . S
Nd273 O298 2.500 . S
Nd273 O299 2.492 . S
Nd273 O300 2.487 1_455 S
Nd273 O301 2.682 1_455 S
Nd273 O302 2.410 . S
C274 Nd272 2.836 1_655 S
C274 C275 1.498 . S
C274 O292 1.258 . S
C274 O293 1.239 1_655 S
C275 C274 1.498 . S
C275 C276 1.366 . S
C275 C280 1.408 1_655 S
C276 C275 1.366 . S
C276 C277 1.392 . S
C276 H304 0.930 . S
C277 C276 1.392 . S
C277 C278 1.398 . S
C277 H305 0.929 . S
C278 C277 1.398 . S
C278 C279 1.352 . S
C279 C278 1.352 . S
C279 C280 1.385 1_655 S
C279 H306 0.930 . S
C280 C275 1.408 1_455 S
C280 C279 1.385 1_455 S
C280 H307 0.927 . S
C281 O294 1.241 . S
C281 O295 1.273 . S
C282 O296 1.251 . S
C282 O297 1.268 1_554 S
C283 Nd273 2.836 . S
C283 C284 1.498 . S
C283 O298 1.258 . S
C283 O299 1.239 . S
C284 C283 1.498 . S
C284 C285 1.366 . S
C284 C289 1.407 . S
C285 C284 1.366 . S
C285 C286 1.392 . S
C285 H308 0.930 . S
C286 C285 1.392 . S
C286 C287 1.398 . S
C286 H309 0.929 . S
C287 C286 1.398 . S
C287 C288 1.352 . S
C288 C287 1.352 . S
C288 C289 1.384 . S
C288 H310 0.930 . S
C289 C284 1.407 . S
C289 C288 1.384 . S
C289 H311 0.929 . S
C290 O300 1.241 . S
C290 O301 1.273 . S
C291 O302 1.251 1_554 S
C291 O303 1.268 . S
O292 Nd272 2.500 1_655 S
O292 C274 1.258 . S
O293 Nd272 2.492 . S
O293 C274 1.239 1_455 S
O294 Nd272 2.487 . S
O294 C281 1.241 . S
O295 Nd272 2.682 . S
O295 Nd273 2.414 1_554 S
O295 C281 1.273 . S
O296 Nd272 2.410 . S
O296 C282 1.251 . S
O297 Nd273 2.424 . S
O297 C282 1.268 1_556 S
O298 Nd273 2.500 . S
O298 C283 1.258 . S
O299 Nd273 2.492 . S
O299 C283 1.239 . S
O300 Nd273 2.487 1_655 S
O300 C290 1.241 . S
O301 Nd272 2.414 1_656 S
O301 Nd273 2.682 1_655 S
O301 C290 1.273 . S
O302 Nd273 2.410 . S
O302 C291 1.251 1_556 S
O303 Nd272 2.424 . S
O303 C291 1.268 . S
H304 C276 0.930 . S
H305 C277 0.929 . S
H306 C279 0.930 . S
H307 C280 0.927 . S
H308 C285 0.930 . S
H309 C286 0.929 . S
H310 C288 0.930 . S
H311 C289 0.929 . S
C312 C313 1.363 . S
C312 C318 1.379 . S
C312 N320 1.356 . S
C313 C312 1.363 . S
C313 C319 1.363 . S
C314 C315 1.363 . S
C314 C319 1.379 . S
C314 N321 1.356 . S
C315 C314 1.363 . S
C315 C318 1.363 . S
N316 C318 1.356 . S
N316 H328 0.984 1_455 S
N316 H329 0.985 . S
N317 C319 1.356 . S
N317 H322 0.984 . S
N317 H323 0.985 . S
C318 C312 1.379 . S
C318 C315 1.363 . S
C318 N316 1.356 . S
C319 C313 1.363 . S
C319 C314 1.379 . S
C319 N317 1.356 . S
N320 C312 1.356 . S
N320 H326 0.984 . S
N320 H327 0.984 . S
N321 C314 1.356 . S
N321 H324 0.984 . S
N321 H325 0.985 . S
H322 N317 0.984 . S
H323 N317 0.985 . S
H324 N321 0.984 . S
H325 N321 0.985 . S
H326 N320 0.984 . S
H327 N320 0.984 . S
H328 N316 0.984 1_655 S
H329 N316 0.985 . S
C330 C331 1.363 . S
C330 C336 1.379 . S
C330 N338 1.356 . S
C331 C330 1.363 . S
C331 C337 1.363 . S
C332 C333 1.363 . S
C332 C337 1.379 . S
C332 N339 1.356 1_556 S
C333 C332 1.363 . S
C333 C336 1.363 . S
N334 C336 1.356 . S
N334 H346 0.984 . S
N334 H347 0.985 . S
N335 C337 1.356 . S
N335 H340 0.984 . S
N335 H341 0.985 . S
C336 C330 1.379 . S
C336 C333 1.363 . S
C336 N334 1.356 . S
C337 C331 1.363 . S
C337 C332 1.379 . S
C337 N335 1.356 . S
N338 C330 1.356 . S
N338 H344 0.984 . S
N338 H345 0.984 . S
N339 C332 1.356 1_554 S
N339 H342 0.984 . S
N339 H343 0.985 . S
H340 N335 0.984 . S
H341 N335 0.985 . S
H342 N339 0.984 . S
H343 N339 0.985 . S
H344 N338 0.984 . S
H345 N338 0.984 . S
H346 N334 0.984 . S
H347 N334 0.985 . S
C348 C349 1.363 . S
C348 C354 1.379 . S
C348 N356 1.356 . S
C349 C348 1.363 . S
C349 C355 1.363 . S
C350 C351 1.363 . S
C350 C355 1.379 . S
C350 N357 1.356 . S
C351 C350 1.363 . S
C351 C354 1.363 . S
N352 C354 1.356 . S
N352 H364 0.984 . S
N352 H365 0.985 . S
N353 C355 1.356 . S
N353 H358 0.984 . S
N353 H359 0.985 . S
C354 C348 1.379 . S
C354 C351 1.363 . S
C354 N352 1.356 . S
C355 C349 1.363 . S
C355 C350 1.379 . S
C355 N353 1.356 . S
N356 C348 1.356 . S
N356 H362 0.984 . S
N356 H363 0.984 . S
N357 C350 1.356 . S
N357 H360 0.984 . S
N357 H361 0.985 . S
H358 N353 0.984 . S
H359 N353 0.985 . S
H360 N357 0.984 . S
H361 N357 0.985 . S
H362 N356 0.984 . S
H363 N356 0.984 . S
H364 N352 0.984 . S
H365 N352 0.985 . S
C366 C367 1.363 . S
C366 C372 1.379 . S
C366 N374 1.356 . S
C367 C366 1.363 . S
C367 C373 1.363 . S
C368 C369 1.363 . S
C368 C373 1.379 . S
C368 N375 1.356 . S
C369 C368 1.363 . S
C369 C372 1.363 . S
N370 C372 1.356 . S
N370 H382 0.984 . S
N370 H383 0.985 . S
N371 C373 1.346 1_455 S
N371 H376 0.979 . S
N371 H377 1.001 . S
C372 C366 1.379 . S
C372 C369 1.363 . S
C372 N370 1.356 . S
C373 C367 1.363 . S
C373 C368 1.379 . S
C373 N371 1.346 1_655 S
N374 C366 1.356 . S
N374 H380 0.984 . S
N374 H381 0.984 . S
N375 C368 1.356 . S
N375 H378 0.984 . S
N375 H379 0.985 . S
H376 N371 0.979 . S
H377 N371 1.001 . S
H378 N375 0.984 . S
H379 N375 0.985 . S
H380 N374 0.984 . S
H381 N374 0.984 . S
H382 N370 0.984 . S
H383 N370 0.985 . S
C384 C385 1.363 . S
C384 C390 1.379 . S
C384 N392 1.356 . S
C385 C384 1.363 . S
C385 C391 1.363 . S
C386 C387 1.363 . S
C386 C391 1.379 . S
C386 N393 1.356 . S
C387 C386 1.363 . S
C387 C390 1.363 . S
N388 C390 1.356 . S
N388 H400 0.984 . S
N388 H401 0.985 . S
N389 C391 1.356 . S
N389 H394 0.984 . S
N389 H395 0.985 . S
C390 C384 1.379 . S
C390 C387 1.363 . S
C390 N388 1.356 . S
C391 C385 1.363 . S
C391 C386 1.379 . S
C391 N389 1.356 . S
N392 C384 1.356 . S
N392 H398 0.984 . S
N392 H399 0.984 . S
N393 C386 1.356 . S
N393 H396 0.984 . S
N393 H397 0.985 . S
H394 N389 0.984 . S
H395 N389 0.985 . S
H396 N393 0.984 . S
H397 N393 0.985 . S
H398 N392 0.984 . S
H399 N392 0.984 . S
H400 N388 0.984 . S
H401 N388 0.985 . S
C402 C403 1.363 . S
C402 C408 1.379 . S
C402 N410 1.356 . S
C403 C402 1.363 . S
C403 C409 1.363 . S
C404 C405 1.363 . S
C404 C409 1.379 . S
C404 N411 1.356 . S
C405 C404 1.363 . S
C405 C408 1.363 . S
N406 C408 1.356 . S
N406 H418 0.984 . S
N406 H419 0.985 . S
N407 C409 1.356 . S
N407 H412 0.984 . S
N407 H413 0.985 . S
C408 C402 1.379 . S
C408 C405 1.363 . S
C408 N406 1.356 . S
C409 C403 1.363 . S
C409 C404 1.379 . S
C409 N407 1.356 . S
N410 C402 1.356 . S
N410 H416 0.984 . S
N410 H417 0.984 . S
N411 C404 1.356 . S
N411 H414 0.984 . S
N411 H415 0.985 . S
H412 N407 0.984 . S
H413 N407 0.985 . S
H414 N411 0.984 . S
H415 N411 0.985 . S
H416 N410 0.984 . S
H417 N410 0.984 . S
H418 N406 0.984 . S
H419 N406 0.985 . S
C420 C421 1.363 . S
C420 C426 1.379 . S
C420 N428 1.356 . S
C421 C420 1.363 . S
C421 C427 1.363 . S
C422 C423 1.363 . S
C422 C427 1.379 . S
C422 N429 1.356 . S
C423 C422 1.363 . S
C423 C426 1.363 . S
N424 C426 1.356 . S
N424 H436 0.984 . S
N424 H437 0.985 . S
N425 C427 1.356 . S
N425 H430 0.984 . S
N425 H431 0.985 . S
C426 C420 1.379 . S
C426 C423 1.363 . S
C426 N424 1.356 . S
C427 C421 1.363 . S
C427 C422 1.379 . S
C427 N425 1.356 . S
N428 C420 1.356 . S
N428 H434 0.984 . S
N428 H435 0.984 . S
N429 C422 1.356 . S
N429 H432 0.984 . S
N429 H433 0.985 1_556 S
H430 N425 0.984 . S
H431 N425 0.985 . S
H432 N429 0.984 . S
H433 N429 0.985 1_554 S
H434 N428 0.984 . S
H435 N428 0.984 . S
H436 N424 0.984 . S
H437 N424 0.985 . S
C438 C439 1.363 . S
C438 C444 1.379 . S
C438 N446 1.356 . S
C439 C438 1.363 . S
C439 C445 1.363 . S
C440 C441 1.363 . S
C440 C445 1.379 . S
C440 N447 1.356 . S
C441 C440 1.363 . S
C441 C444 1.363 . S
N442 C444 1.356 . S
N442 H454 0.984 . S
N442 H455 0.985 . S
N443 C445 1.356 . S
N443 H448 0.984 . S
N443 H449 0.985 . S
C444 C438 1.379 . S
C444 C441 1.363 . S
C444 N442 1.356 . S
C445 C439 1.363 . S
C445 C440 1.379 . S
C445 N443 1.356 . S
N446 C438 1.356 . S
N446 H452 0.984 . S
N446 H453 0.984 . S
N447 C440 1.356 . S
N447 H450 0.984 . S
N447 H451 0.985 . S
H448 N443 0.984 . S
H449 N443 0.985 . S
H450 N447 0.984 . S
H451 N447 0.985 . S
H452 N446 0.984 . S
H453 N446 0.984 . S
H454 N442 0.984 . S
H455 N442 0.985 . S
C456 C457 1.363 . S
C456 C462 1.379 . S
C456 N464 1.356 . S
C457 C456 1.363 . S
C457 C463 1.363 . S
C458 C459 1.363 . S
C458 C463 1.379 . S
C458 N465 1.356 1_554 S
C459 C458 1.363 . S
C459 C462 1.363 . S
N460 C462 1.356 . S
N460 H472 0.984 . S
N460 H473 0.985 . S
N461 C463 1.356 . S
N461 H466 0.984 . S
N461 H467 0.985 1_554 S
C462 C456 1.379 . S
C462 C459 1.363 . S
C462 N460 1.356 . S
C463 C457 1.363 . S
C463 C458 1.379 . S
C463 N461 1.356 . S
N464 C456 1.356 . S
N464 H470 0.984 . S
N464 H471 0.984 . S
N465 C458 1.356 1_556 S
N465 H468 0.984 . S
N465 H469 0.985 . S
H466 N461 0.984 . S
H467 N461 0.985 1_556 S
H468 N465 0.984 . S
H469 N465 0.985 . S
H470 N464 0.984 . S
H471 N464 0.984 . S
H472 N460 0.984 . S
H473 N460 0.985 . S
C474 C475 1.363 . S
C474 C480 1.379 . S
C474 N482 1.356 . S
C475 C474 1.363 . S
C475 C481 1.363 . S
C476 C477 1.363 . S
C476 C481 1.379 . S
C476 N483 1.356 . S
C477 C476 1.363 . S
C477 C480 1.363 . S
N478 C480 1.356 1_554 S
N478 H490 0.984 . S
N478 H491 0.985 . S
N479 C481 1.356 . S
N479 H484 0.984 . S
N479 H485 0.985 . S
C480 C474 1.379 . S
C480 C477 1.363 . S
C480 N478 1.356 1_556 S
C481 C475 1.363 . S
C481 C476 1.379 . S
C481 N479 1.356 . S
N482 C474 1.356 . S
N482 H488 0.984 1_556 S
N482 H489 0.984 . S
N483 C476 1.356 . S
N483 H486 0.984 . S
N483 H487 0.985 . S
H484 N479 0.984 . S
H485 N479 0.985 . S
H486 N483 0.984 . S
H487 N483 0.985 . S
H488 N482 0.984 1_554 S
H489 N482 0.984 . S
H490 N478 0.984 . S
H491 N478 0.985 . S
C492 C493 1.363 . S
C492 C498 1.379 . S
C492 N500 1.356 . S
C493 C492 1.363 . S
C493 C499 1.363 . S
C494 C495 1.363 . S
C494 C499 1.379 . S
C494 N501 1.377 . S
C495 C494 1.363 . S
C495 C498 1.363 . S
N496 C498 1.356 . S
N496 H508 0.984 . S
N496 H509 0.985 . S
N497 C499 1.356 . S
N497 H502 0.984 . S
N497 H503 0.985 . S
C498 C492 1.379 . S
C498 C495 1.363 . S
C498 N496 1.356 . S
C499 C493 1.363 . S
C499 C494 1.379 . S
C499 N497 1.356 . S
N500 C492 1.356 . S
N500 H506 0.984 . S
N500 H507 0.984 . S
N501 C494 1.377 . S
N501 H504 0.976 1_655 S
N501 H505 0.972 1_655 S
H502 N497 0.984 . S
H503 N497 0.985 . S
H504 N501 0.976 1_455 S
H505 N501 0.972 1_455 S
H506 N500 0.984 . S
H507 N500 0.984 . S
H508 N496 0.984 . S
H509 N496 0.985 . S
C510 C511 1.363 . S
C510 C516 1.379 . S
C510 N518 1.356 . S
C511 C510 1.363 . S
C511 C517 1.363 . S
C512 C513 1.363 . S
C512 C517 1.379 . S
C512 N519 1.356 . S
C513 C512 1.363 . S
C513 C516 1.363 . S
N514 C516 1.356 . S
N514 H526 0.984 . S
N514 H527 0.985 . S
N515 C517 1.356 . S
N515 H520 0.984 . S
N515 H521 0.985 . S
C516 C510 1.379 . S
C516 C513 1.363 . S
C516 N514 1.356 . S
C517 C511 1.363 . S
C517 C512 1.379 . S
C517 N515 1.356 . S
N518 C510 1.356 . S
N518 H524 0.984 . S
N518 H525 0.984 . S
N519 C512 1.356 . S
N519 H522 0.984 . S
N519 H523 0.985 . S
H520 N515 0.984 . S
H521 N515 0.985 . S
H522 N519 0.984 . S
H523 N519 0.985 . S
H524 N518 0.984 . S
H525 N518 0.984 . S
H526 N514 0.984 . S
H527 N514 0.985 . S
C528 C529 1.363 . S
C528 C534 1.379 . S
C528 N536 1.356 . S
C529 C528 1.363 . S
C529 C535 1.363 . S
C530 C531 1.363 . S
C530 C535 1.379 . S
C530 N537 1.356 . S
C531 C530 1.363 . S
C531 C534 1.363 . S
N532 C534 1.356 . S
N532 H544 0.984 1_565 S
N532 H545 0.985 . S
N533 C535 1.356 . S
N533 H538 0.984 . S
N533 H539 0.985 . S
C534 C528 1.379 . S
C534 C531 1.363 . S
C534 N532 1.356 . S
C535 C529 1.363 . S
C535 C530 1.379 . S
C535 N533 1.356 . S
N536 C528 1.356 . S
N536 H542 0.984 . S
N536 H543 0.984 . S
N537 C530 1.356 . S
N537 H540 0.984 . S
N537 H541 0.985 . S
H538 N533 0.984 . S
H539 N533 0.985 . S
H540 N537 0.984 . S
H541 N537 0.985 . S
H542 N536 0.984 . S
H543 N536 0.984 . S
H544 N532 0.984 1_545 S
H545 N532 0.985 . S
C546 C547 1.363 . S
C546 C552 1.379 . S
C546 N554 1.356 . S
C547 C546 1.363 . S
C547 C553 1.363 . S
C548 C549 1.363 . S
C548 C553 1.379 . S
C548 N555 1.356 . S
C549 C548 1.363 . S
C549 C552 1.363 . S
N550 C552 1.356 . S
N550 H562 0.984 . S
N550 H563 0.985 . S
N551 C553 1.356 . S
N551 H556 0.984 . S
N551 H557 0.985 . S
C552 C546 1.379 . S
C552 C549 1.363 . S
C552 N550 1.356 . S
C553 C547 1.363 . S
C553 C548 1.379 . S
C553 N551 1.356 . S
N554 C546 1.356 . S
N554 H560 0.984 . S
N554 H561 0.984 . S
N555 C548 1.356 . S
N555 H558 0.984 . S
N555 H559 0.985 . S
H556 N551 0.984 . S
H557 N551 0.985 . S
H558 N555 0.984 . S
H559 N555 0.985 . S
H560 N554 0.984 . S
H561 N554 0.984 . S
H562 N550 0.984 . S
H563 N550 0.985 . S
C564 C565 1.363 . S
C564 C570 1.379 . S
C564 N572 1.356 . S
C565 C564 1.363 . S
C565 C571 1.363 . S
C566 C567 1.363 . S
C566 C571 1.379 . S
C566 N573 1.356 . S
C567 C566 1.363 . S
C567 C570 1.363 . S
N568 C570 1.356 . S
N568 H580 0.984 . S
N568 H581 0.985 . S
N569 C571 1.356 . S
N569 H574 0.984 . S
N569 H575 0.985 . S
C570 C564 1.379 . S
C570 C567 1.363 . S
C570 N568 1.356 . S
C571 C565 1.363 . S
C571 C566 1.379 . S
C571 N569 1.356 . S
N572 C564 1.356 . S
N572 H578 0.984 . S
N572 H579 0.984 . S
N573 C566 1.356 . S
N573 H576 0.984 . S
N573 H577 0.985 . S
H574 N569 0.984 . S
H575 N569 0.985 . S
H576 N573 0.984 . S
H577 N573 0.985 . S
H578 N572 0.984 . S
H579 N572 0.984 . S
H580 N568 0.984 . S
H581 N568 0.985 . S
C582 C583 1.363 . S
C582 C588 1.379 . S
C582 N590 1.356 . S
C583 C582 1.363 . S
C583 C589 1.363 . S
C584 C585 1.363 . S
C584 C589 1.379 . S
C584 N591 1.356 . S
C585 C584 1.363 . S
C585 C588 1.363 . S
N586 C588 1.356 . S
N586 H598 0.984 . S
N586 H599 0.985 . S
N587 C589 1.356 . S
N587 H592 0.984 . S
N587 H593 0.985 . S
C588 C582 1.379 . S
C588 C585 1.363 . S
C588 N586 1.356 . S
C589 C583 1.363 . S
C589 C584 1.379 . S
C589 N587 1.356 . S
N590 C582 1.356 . S
N590 H596 0.984 . S
N590 H597 0.984 . S
N591 C584 1.356 . S
N591 H594 0.984 . S
N591 H595 0.985 . S
H592 N587 0.984 . S
H593 N587 0.985 . S
H594 N591 0.984 . S
H595 N591 0.985 . S
H596 N590 0.984 . S
H597 N590 0.984 . S
H598 N586 0.984 . S
H599 N586 0.985 . S
C600 C601 1.363 . S
C600 C606 1.379 1_566 S
C600 N608 1.356 1_565 S
C601 C600 1.363 . S
C601 C607 1.363 1_556 S
C602 C603 1.363 . S
C602 C607 1.379 . S
C602 N609 1.356 . S
C603 C602 1.363 . S
C603 C606 1.363 1_565 S
N604 C606 1.356 . S
N604 H616 0.984 . S
N604 H617 0.985 . S
N605 C607 1.356 1_556 S
N605 H610 0.984 . S
N605 H611 0.985 1_556 S
C606 C600 1.379 1_544 S
C606 C603 1.363 1_545 S
C606 N604 1.356 . S
C607 C601 1.363 1_554 S
C607 C602 1.379 . S
C607 N605 1.356 1_554 S
N608 C600 1.356 1_545 S
N608 H614 0.984 . S
N608 H615 0.984 1_545 S
N609 C602 1.356 . S
N609 H612 0.984 . S
N609 H613 0.985 . S
H610 N605 0.984 . S
H611 N605 0.985 1_554 S
H612 N609 0.984 . S
H613 N609 0.985 . S
H614 N608 0.984 . S
H615 N608 0.984 1_565 S
H616 N604 0.984 . S
H617 N604 0.985 . S
C618 C619 1.363 . S
C618 C624 1.379 . S
C618 N626 1.356 . S
C619 C618 1.363 . S
C619 C625 1.363 . S
C620 C621 1.363 . S
C620 C625 1.379 . S
C620 N627 1.356 . S
C621 C620 1.363 . S
C621 C624 1.363 . S
N622 C624 1.356 . S
N622 H634 0.984 . S
N622 H635 0.985 . S
N623 C625 1.356 . S
N623 H628 0.984 . S
N623 H629 0.985 . S
C624 C618 1.379 . S
C624 C621 1.363 . S
C624 N622 1.356 . S
C625 C619 1.363 . S
C625 C620 1.379 . S
C625 N623 1.356 . S
N626 C618 1.356 . S
N626 H632 0.984 . S
N626 H633 0.984 . S
N627 C620 1.356 . S
N627 H630 0.984 . S
N627 H631 0.985 . S
H628 N623 0.984 . S
H629 N623 0.985 . S
H630 N627 0.984 . S
H631 N627 0.985 . S
H632 N626 0.984 . S
H633 N626 0.984 . S
H634 N622 0.984 . S
H635 N622 0.985 . S
C636 C637 1.363 . S
C636 C642 1.379 . S
C636 N644 1.356 . S
C637 C636 1.363 . S
C637 C643 1.363 . S
C638 C639 1.363 . S
C638 C643 1.379 . S
C638 N645 1.356 . S
C639 C638 1.363 . S
C639 C642 1.363 . S
N640 C642 1.356 . S
N640 H652 0.984 . S
N640 H653 0.985 . S
N641 C643 1.356 . S
N641 H646 0.984 . S
N641 H647 0.985 . S
C642 C636 1.379 . S
C642 C639 1.363 . S
C642 N640 1.356 . S
C643 C637 1.363 . S
C643 C638 1.379 . S
C643 N641 1.356 . S
N644 C636 1.356 . S
N644 H650 0.984 . S
N644 H651 0.984 . S
N645 C638 1.356 . S
N645 H648 0.984 . S
N645 H649 0.985 . S
H646 N641 0.984 . S
H647 N641 0.985 . S
H648 N645 0.984 . S
H649 N645 0.985 . S
H650 N644 0.984 . S
H651 N644 0.984 . S
H652 N640 0.984 . S
H653 N640 0.985 . S
C654 C655 1.363 . S
C654 C660 1.379 . S
C654 N662 1.356 . S
C655 C654 1.363 . S
C655 C661 1.363 . S
C656 C657 1.363 . S
C656 C661 1.379 . S
C656 N663 1.356 . S
C657 C656 1.363 . S
C657 C660 1.363 . S
N658 C660 1.356 . S
N658 H670 0.984 . S
N658 H671 0.985 . S
N659 C661 1.356 . S
N659 H664 0.984 . S
N659 H665 0.985 . S
C660 C654 1.379 . S
C660 C657 1.363 . S
C660 N658 1.356 . S
C661 C655 1.363 . S
C661 C656 1.379 . S
C661 N659 1.356 . S
N662 C654 1.356 . S
N662 H668 0.984 . S
N662 H669 0.984 . S
N663 C656 1.356 . S
N663 H666 0.984 . S
N663 H667 0.985 . S
H664 N659 0.984 . S
H665 N659 0.985 . S
H666 N663 0.984 . S
H667 N663 0.985 . S
H668 N662 0.984 . S
H669 N662 0.984 . S
H670 N658 0.984 . S
H671 N658 0.985 . S
C672 C673 1.363 . S
C672 C678 1.379 . S
C672 N680 1.356 . S
C673 C672 1.363 . S
C673 C679 1.363 . S
C674 C675 1.363 1_455 S
C674 C679 1.379 1_455 S
C674 N681 1.356 . S
C675 C674 1.363 1_655 S
C675 C678 1.363 . S
N676 C678 1.356 1_554 S
N676 H688 0.984 . S
N676 H689 0.985 . S
N677 C679 1.356 . S
N677 H682 0.984 . S
N677 H683 0.985 1_655 S
C678 C672 1.379 . S
C678 C675 1.363 . S
C678 N676 1.356 1_556 S
C679 C673 1.363 . S
C679 C674 1.379 1_655 S
C679 N677 1.356 . S
N680 C672 1.356 . S
N680 H686 0.984 . S
N680 H687 0.984 . S
N681 C674 1.356 . S
N681 H684 0.984 . S
N681 H685 0.985 . S
H682 N677 0.984 . S
H683 N677 0.985 1_455 S
H684 N681 0.984 . S
H685 N681 0.985 . S
H686 N680 0.984 . S
H687 N680 0.984 . S
H688 N676 0.984 . S
H689 N676 0.985 . S
C690 C691 1.363 . S
C690 C696 1.379 . S
C690 N698 1.356 . S
C691 C690 1.363 . S
C691 C697 1.363 . S
C692 C693 1.363 . S
C692 C697 1.379 . S
C692 N699 1.356 . S
C693 C692 1.363 . S
C693 C696 1.363 . S
N694 C696 1.356 . S
N694 H706 0.984 . S
N694 H707 0.985 . S
N695 C697 1.356 . S
N695 H700 0.984 . S
N695 H701 0.985 . S
C696 C690 1.379 . S
C696 C693 1.363 . S
C696 N694 1.356 . S
C697 C691 1.363 . S
C697 C692 1.379 . S
C697 N695 1.356 . S
N698 C690 1.356 . S
N698 H704 0.984 . S
N698 H705 0.984 . S
N699 C692 1.356 . S
N699 H702 0.984 . S
N699 H703 0.985 . S
H700 N695 0.984 . S
H701 N695 0.985 . S
H702 N699 0.984 . S
H703 N699 0.985 . S
H704 N698 0.984 . S
H705 N698 0.984 . S
H706 N694 0.984 . S
H707 N694 0.985 . S
C708 C709 1.363 . S
C708 C714 1.379 . S
C708 N716 1.356 . S
C709 C708 1.363 . S
C709 C715 1.363 . S
C710 C711 1.363 . S
C710 C715 1.379 . S
C710 N717 1.356 . S
C711 C710 1.363 . S
C711 C714 1.363 . S
N712 C714 1.356 . S
N712 H724 0.984 1_455 S
N712 H725 0.985 1_455 S
N713 C715 1.356 . S
N713 H718 0.984 . S
N713 H719 0.985 . S
C714 C708 1.379 . S
C714 C711 1.363 . S
C714 N712 1.356 . S
C715 C709 1.363 . S
C715 C710 1.379 . S
C715 N713 1.356 . S
N716 C708 1.356 . S
N716 H722 0.984 . S
N716 H723 0.984 . S
N717 C710 1.356 . S
N717 H720 0.984 . S
N717 H721 0.985 . S
H718 N713 0.984 . S
H719 N713 0.985 . S
H720 N717 0.984 . S
H721 N717 0.985 . S
H722 N716 0.984 . S
H723 N716 0.984 . S
H724 N712 0.984 1_655 S
H725 N712 0.985 1_655 S
C726 C727 1.363 . S
C726 C732 1.379 . S
C726 N734 1.356 . S
C727 C726 1.363 . S
C727 C733 1.363 . S
C728 C729 1.363 . S
C728 C733 1.379 . S
C728 N735 1.356 . S
C729 C728 1.363 . S
C729 C732 1.363 . S
N730 C732 1.356 . S
N730 H742 0.984 . S
N730 H743 0.985 . S
N731 C733 1.356 . S
N731 H736 0.984 . S
N731 H737 0.985 . S
C732 C726 1.379 . S
C732 C729 1.363 . S
C732 N730 1.356 . S
C733 C727 1.363 . S
C733 C728 1.379 . S
C733 N731 1.356 . S
N734 C726 1.356 . S
N734 H740 0.984 . S
N734 H741 0.984 . S
N735 C728 1.356 . S
N735 H738 0.984 . S
N735 H739 0.985 . S
H736 N731 0.984 . S
H737 N731 0.985 . S
H738 N735 0.984 . S
H739 N735 0.985 . S
H740 N734 0.984 . S
H741 N734 0.984 . S
H742 N730 0.984 . S
H743 N730 0.985 . S
C313 C6 3.200 . S
C315 C171 3.155 . S
C331 C21 2.555 . S
C333 C202 2.625 1_556 S
C351 C241 1.001 . S
C349 C49 0.920 . S
C367 C68 0.759 . S
C369 C278 0.784 . S
C387 C201 3.443 . S
C385 C2 3.514 . S
C405 C158 1.146 . S
C403 C30 1.092 . S
C423 C290 1.243 . S
C421 C40 1.224 . S
C441 C247 1.249 . S
C439 C63 1.243 . S
C457 C11 2.245 . S
C459 C291 2.510 . S
C477 C207 1.534 . S
C475 C44 1.538 . S
C493 C59 1.387 . S
C495 C170 1.528 . S
C511 C25 2.540 . S
C513 C242 2.585 . S
C531 C162 3.140 . S
C529 C82 3.192 . S
C547 C101 2.180 . S
C549 C211 2.289 . S
C565 C125 1.404 . S
C567 C250 1.384 . S
C583 C144 0.879 . S
C585 C287 0.846 . S
C601 C87 2.497 . S
C603 C210 2.559 1_565 S
C621 C167 1.710 . S
C619 C97 1.660 . S
C639 C281 1.273 . S
C637 C120 1.381 . S
C657 C238 1.340 . S
C655 C135 1.394 . S
C673 C78 2.721 . S
C675 C282 2.715 1_656 S
C693 C198 1.361 . S
C691 C116 1.393 . S
C711 C161 0.660 . S
C709 C139 0.595 . S
C727 C106 1.969 . S
C729 C251 2.291 . S
