# Generated by pormake.
# Topology pyr, (3,6)-cn, num edge types: 1
# Building blocks:
#     Node 0, Type 0, BuildingBlock: INOVEN_clean_linker_0, # of connection points: 3
#     Node 1, Type 0, BuildingBlock: INOVEN_clean_linker_0, # of connection points: 3
#     Node 2, Type 0, BuildingBlock: INOVEN_clean_linker_0, # of connection points: 3
#     Node 3, Type 0, BuildingBlock: INOVEN_clean_linker_0, # of connection points: 3
#     Node 4, Type 0, BuildingBlock: INOVEN_clean_linker_0, # of connection points: 3
#     Node 5, Type 0, BuildingBlock: INOVEN_clean_linker_0, # of connection points: 3
#     Node 6, Type 0, BuildingBlock: INOVEN_clean_linker_0, # of connection points: 3
#     Node 7, Type 0, BuildingBlock: INOVEN_clean_linker_0, # of connection points: 3
#     Node 8, Type 1, BuildingBlock: FUNLAD_clean_sbu_0, # of connection points: 6
#     Node 9, Type 1, BuildingBlock: FUNLAD_clean_sbu_0, # of connection points: 6
#     Node 10, Type 1, BuildingBlock: FUNLAD_clean_sbu_0, # of connection points: 6
#     Node 11, Type 1, BuildingBlock: FUNLAD_clean_sbu_0, # of connection points: 6
#     Edge 12, Type (0, 1), BuildingBlock: EZIPEK_clean_linker_0, # of connection points: 2
#     Edge 13, Type (0, 1), BuildingBlock: EZIPEK_clean_linker_0, # of connection points: 2
#     Edge 14, Type (0, 1), BuildingBlock: EZIPEK_clean_linker_0, # of connection points: 2
#     Edge 15, Type (0, 1), BuildingBlock: EZIPEK_clean_linker_0, # of connection points: 2
#     Edge 16, Type (0, 1), BuildingBlock: EZIPEK_clean_linker_0, # of connection points: 2
#     Edge 17, Type (0, 1), BuildingBlock: EZIPEK_clean_linker_0, # of connection points: 2
#     Edge 18, Type (0, 1), BuildingBlock: EZIPEK_clean_linker_0, # of connection points: 2
#     Edge 19, Type (0, 1), BuildingBlock: EZIPEK_clean_linker_0, # of connection points: 2
#     Edge 20, Type (0, 1), BuildingBlock: EZIPEK_clean_linker_0, # of connection points: 2
#     Edge 21, Type (0, 1), BuildingBlock: EZIPEK_clean_linker_0, # of connection points: 2
#     Edge 22, Type (0, 1), BuildingBlock: EZIPEK_clean_linker_0, # of connection points: 2
#     Edge 23, Type (0, 1), BuildingBlock: EZIPEK_clean_linker_0, # of connection points: 2
#     Edge 24, Type (0, 1), BuildingBlock: EZIPEK_clean_linker_0, # of connection points: 2
#     Edge 25, Type (0, 1), BuildingBlock: EZIPEK_clean_linker_0, # of connection points: 2
#     Edge 26, Type (0, 1), BuildingBlock: EZIPEK_clean_linker_0, # of connection points: 2
#     Edge 27, Type (0, 1), BuildingBlock: EZIPEK_clean_linker_0, # of connection points: 2
#     Edge 28, Type (0, 1), BuildingBlock: EZIPEK_clean_linker_0, # of connection points: 2
#     Edge 29, Type (0, 1), BuildingBlock: EZIPEK_clean_linker_0, # of connection points: 2
#     Edge 30, Type (0, 1), BuildingBlock: EZIPEK_clean_linker_0, # of connection points: 2
#     Edge 31, Type (0, 1), BuildingBlock: EZIPEK_clean_linker_0, # of connection points: 2
#     Edge 32, Type (0, 1), BuildingBlock: EZIPEK_clean_linker_0, # of connection points: 2
#     Edge 33, Type (0, 1), BuildingBlock: EZIPEK_clean_linker_0, # of connection points: 2
#     Edge 34, Type (0, 1), BuildingBlock: EZIPEK_clean_linker_0, # of connection points: 2
#     Edge 35, Type (0, 1), BuildingBlock: EZIPEK_clean_linker_0, # of connection points: 2
# Relax obj value: 0.287
# Max RMSD: 0.214
# Mean RMSD: 0.132
data_MOF--net-pry--node1-FUNLAD_clean_sbu_0--node2-INOVEN_clean_linker_0--edge1-EZIPEK_clean_linker_0
_symmetry_space_group_name_H-M    P1
_symmetry_Int_Tables_number       1
_symmetry_cell_setting            triclinic
loop_
_symmetry_equiv_pos_as_xyz
'x, y, z'
_cell_length_a     24.448591
_cell_length_b     26.728465
_cell_length_c     28.065839
_cell_angle_alpha  89.812027
_cell_angle_beta   91.181275
_cell_angle_gamma 85.920803
loop_
_atom_site_label
_atom_site_type_symbol
_atom_site_fract_x
_atom_site_fract_y
_atom_site_fract_z
_atom_type_partial_charge
H0 H 0.07826 0.25414 0.27405 0.0
H1 H 0.20248 0.13104 0.27511 0.0
H2 H 0.19617 0.24011 0.16177 0.0
N3 N 0.10948 0.29855 0.19407 0.0
N4 N 0.13178 0.32041 0.16079 0.0
C5 C 0.11307 0.23407 0.25777 0.0
C6 C 0.13744 0.19 0.27998 0.0
C7 C 0.13405 0.25298 0.21518 0.0
C8 C 0.17942 0.22638 0.19437 0.0
C9 C 0.20407 0.18227 0.21546 0.0
C10 C 0.18308 0.16453 0.25838 0.0
H11 H 0.38881 0.88554 0.68232 0.0
H12 H 0.49139 0.88292 0.80933 0.0
H13 H 0.36376 1.00166 0.7862 0.0
N14 N 0.32821 0.96522 0.70083 0.0
N15 N 0.30244 1.00639 0.70752 0.0
C16 C 0.4009 0.90209 0.71585 0.0
C17 C 0.44385 0.87869 0.74306 0.0
C18 C 0.37242 0.94595 0.73065 0.0
C19 C 0.38657 0.96786 0.77442 0.0
C20 C 0.42948 0.94581 0.80365 0.0
C21 C 0.45857 0.90079 0.78746 0.0
H22 H 0.57309 0.46501 0.0606 0.0
H23 H 0.72027 0.46976 0.14782 0.0
H24 H 0.6871 0.57325 1.03147 0.0
N25 N 0.6011 0.52721 0.99838 0.0
N26 N 0.63113 0.5327 0.96382 0.0
C27 C 0.60909 0.48355 0.07219 0.0
C28 C 0.6437 0.4624 0.10863 0.0
C29 C 0.62473 0.52268 1.04441 0.0
C30 C 0.67336 0.54482 0.05525 0.0
C31 C 0.70861 0.52503 0.09142 0.0
C32 C 0.69267 0.48519 0.12001 0.0
H33 H 0.86972 0.55927 0.49556 0.0
H34 H 0.84914 0.69595 0.57529 0.0
H35 H 1.00401 0.65288 0.51542 0.0
N36 N 0.95893 0.59095 0.45421 0.0
N37 N 0.99494 0.6158 0.43649 0.0
C38 C 0.8879 0.59002 0.51359 0.0
C39 C 0.85492 0.62288 0.5423 0.0
C40 C 0.94062 0.60263 0.50099 0.0
C41 C 0.96352 0.64245 0.52484 0.0
C42 C 0.92936 0.67806 0.54788 0.0
C43 C 0.87607 0.66729 0.55884 0.0
H44 H 0.85371 1.00559 0.82686 0.0
H45 H 0.99368 0.89679 0.83179 0.0
H46 H 0.8744 0.90144 0.94309 0.0
N47 N 0.81249 0.98131 0.9082 0.0
N48 N 0.80206 0.97653 0.95126 0.0
C49 C 0.87796 0.97495 0.84418 0.0
C50 C 0.92697 0.9554 0.82344 0.0
C51 C 0.86045 0.95746 0.88793 0.0
C52 C 0.88947 0.91631 0.91025 0.0
C53 C 0.93654 0.89273 0.88997 0.0
C54 C 0.95642 0.91353 0.84701 0.0
H55 H 0.57296 0.25057 0.34266 0.0
H56 H 0.70604 0.13588 0.35254 0.0
H57 H 0.69342 0.25336 0.45687 0.0
N58 N 0.60273 0.30387 0.4181 0.0
N59 N 0.61852 0.32492 0.4552 0.0
C60 C 0.60938 0.23409 0.36094 0.0
C61 C 0.63642 0.18986 0.3429 0.0
C62 C 0.62947 0.25762 0.40201 0.0
C63 C 0.67706 0.23578 0.42544 0.0
C64 C 0.70499 0.192 0.40788 0.0
C65 C 0.68452 0.16937 0.36645 0.0
H66 H 0.5184 0.62673 0.11403 0.0
H67 H 0.39131 0.68901 1.01975 0.0
H68 H 0.36233 0.56403 0.10922 0.0
N69 N 0.45131 0.58179 0.164 0.0
N70 N 0.41395 0.5964 0.19131 0.0
C71 C 0.47986 0.62239 0.0951 0.0
C72 C 0.45891 0.66161 0.06536 0.0
C73 C 0.44375 0.59003 0.11446 0.0
C74 C 0.39129 0.58766 0.09329 0.0
C75 C 0.3732 0.6217 0.05699 0.0
C76 C 0.40762 0.65861 1.04277 0.0
H77 H 0.02306 0.52695 0.55995 0.0
H78 H 0.18859 0.47388 0.54125 0.0
H79 H 0.15042 0.62329 0.5895 0.0
N80 N 0.04903 0.6001 0.61098 0.0
N81 N 0.06608 0.62805 0.64242 0.0
C82 C 0.06538 0.53561 0.55537 0.0
C83 C 0.10438 0.49671 0.54626 0.0
C84 C 0.08248 0.57965 0.57459 0.0
C85 C 0.13786 0.59014 0.57161 0.0
C86 C 0.17743 0.55496 0.55209 0.0
C87 C 0.15991 0.5062 0.544 0.0
C88 C 0.0548 0.11423 0.46096 0.0
N89 N 0.02374 0.1968 0.58419 0.0
C90 C 0.07412 0.21172 0.5732 0.0
C91 C 0.08359 0.2621 0.57186 0.0
C92 C 0.04083 0.29757 0.58156 0.0
C93 C 0.98997 0.28194 0.59555 0.0
C94 C 0.98215 0.23055 0.59654 0.0
Zn95 Zn 1.01235 0.12519 0.56484 0.0
C96 C 0.90642 0.11855 0.50995 0.0
N97 N 0.99843 0.97986 0.51378 0.0
C98 C 0.04255 0.94793 0.50383 0.0
C99 C 0.94813 0.96311 0.52143 0.0
C100 C 0.94141 0.91218 0.52252 0.0
C101 C 0.98695 0.87857 0.51607 0.0
C102 C 0.03768 0.89627 0.50494 0.0
Zn103 Zn 1.00762 0.05051 0.53419 0.0
O104 O 0.04504 0.14475 0.49503 0.0
C105 C 0.11237 0.0591 0.58986 0.0
O106 O 0.04478 0.06856 0.46708 0.0
H107 H 0.91404 0.98897 0.53058 0.0
H108 H 0.1062 0.18499 0.56162 0.0
H109 H 0.08218 0.96231 0.4983 0.0
O110 O 0.09135 0.10353 0.59268 0.0
O111 O 0.08693 1.02712 0.56634 0.0
H112 H 0.94218 0.21794 0.60416 0.0
O113 O 0.97133 1.03076 0.60153 0.0
O114 O 0.98218 0.1027 0.63531 0.0
O115 O 0.92848 0.07483 0.50244 0.0
O116 O 0.93122 0.14786 0.5372 0.0
C117 C 0.96998 0.05703 0.63926 0.0
H118 H 0.12318 0.27342 0.56096 0.0
H119 H 0.95634 0.30906 0.60331 0.0
H120 H 0.90179 0.89903 0.53095 0.0
H121 H 0.07325 0.87056 0.49945 0.0
C122 C 0.60625 0.05784 1.04021 0.0
N123 N 0.50615 0.19259 0.05415 0.0
C124 C 0.54236 0.21354 1.02519 0.0
C125 C 0.56211 0.26017 1.03691 0.0
C126 C 0.54608 0.28389 0.07975 0.0
C127 C 0.50613 0.26297 0.1067 0.0
C128 C 0.4854 0.21838 0.09243 0.0
Zn129 Zn 0.50307 0.11602 0.06325 0.0
C130 C 0.463 0.05164 0.98648 0.0
N131 N 0.50322 0.96628 0.10825 0.0
C132 C 0.55122 0.93938 0.11935 0.0
C133 C 0.45722 0.94361 0.09529 0.0
C134 C 0.45912 0.8919 0.09046 0.0
C135 C 0.50884 0.86374 0.09872 0.0
C136 C 0.55512 0.88738 0.11439 0.0
Zn137 Zn 0.50295 1.03984 0.09374 0.0
O138 O 0.58352 0.1018 1.03446 0.0
C139 C 0.54924 0.10065 0.16835 0.0
O140 O 0.58229 1.02637 0.06478 0.0
H141 H 0.41997 0.96589 0.08561 0.0
H142 H 0.55979 0.19234 0.99573 0.0
H143 H 0.58731 0.95841 0.12924 0.0
O144 O 0.53869 0.13067 0.13362 0.0
O145 O 0.53879 0.05506 0.16294 0.0
H146 H 0.45844 0.20162 0.11659 0.0
O147 O 0.42207 0.05426 0.12404 0.0
O148 O 0.42111 0.12864 0.09131 0.0
O149 O 0.46978 1.02304 1.02289 0.0
O150 O 0.47023 0.09839 0.99183 0.0
C151 C 0.39802 0.09754 0.11711 0.0
H152 H 0.59307 0.27534 1.01511 0.0
H153 H 0.49333 0.27937 0.14031 0.0
H154 H 0.4227 0.87412 0.07881 0.0
H155 H 0.59372 0.866 0.12167 0.0
C156 C 0.53376 0.51091 0.53975 0.0
N157 N 0.53923 0.55564 0.67956 0.0
C158 C 0.517 0.51454 0.69763 0.0
C159 C 0.52829 0.50027 0.74485 0.0
C160 C 0.5624 0.52907 0.77248 0.0
C161 C 0.58628 0.56986 0.75249 0.0
C162 C 0.574 0.58264 0.70563 0.0
Zn163 Zn 0.51835 0.58369 0.61547 0.0
C164 C 0.6205 0.62014 0.56799 0.0
N165 N 0.48212 0.64853 0.48047 0.0
C166 C 0.44578 0.61721 0.46142 0.0
C167 C 0.50753 0.6809 0.45212 0.0
C168 C 0.49769 0.68101 0.40252 0.0
C169 C 0.46177 0.64732 0.383 0.0
C170 C 0.43456 0.61656 0.41309 0.0
Zn171 Zn 0.50542 0.62705 0.5489 0.0
O172 O 0.5327 0.51149 0.58486 0.0
C173 C 0.40316 0.58884 0.59317 0.0
O174 O 0.52375 0.55205 0.5172 0.0
H175 H 0.53777 0.70415 0.46736 0.0
H176 H 0.48935 0.49393 0.67593 0.0
H177 H 0.42855 0.58882 0.48258 0.0
O178 O 0.43418 0.56967 0.62618 0.0
O179 O 0.42357 0.61373 0.56061 0.0
H180 H 0.59065 0.61536 0.69063 0.0
O181 O 0.4899 0.70116 0.58303 0.0
O182 O 0.50516 0.65669 0.6483 0.0
O183 O 0.58689 0.6413 0.53792 0.0
O184 O 0.60254 0.59595 0.6028 0.0
C185 C 0.4938 0.69922 0.62868 0.0
H186 H 0.50959 0.46848 0.76001 0.0
H187 H 0.61284 0.59246 0.77346 0.0
H188 H 0.51962 0.70502 0.37963 0.0
H189 H 0.40724 0.58977 0.3989 0.0
C190 C 1.00222 0.7081 1.00059 0.0
N191 N 0.03517 0.64035 0.14184 0.0
C192 C 0.06408 0.67517 0.16479 0.0
C193 C 0.06542 0.67669 0.21497 0.0
C194 C 0.03737 0.64152 0.24063 0.0
C195 C 1.00863 0.60636 0.21606 0.0
C196 C 1.00786 0.60656 0.16693 0.0
Zn197 Zn 0.03249 0.62474 0.07005 0.0
C198 C 0.92109 0.59069 1.04704 0.0
N199 N 0.02031 0.57403 0.92832 0.0
C200 C 0.97404 0.59454 0.90587 0.0
C201 C 0.06502 0.5572 0.90338 0.0
C202 C 0.06603 0.56536 0.85426 0.0
C203 C 0.02056 0.59072 0.83146 0.0
C204 C 0.97337 0.60345 0.85714 0.0
Zn205 Zn 0.02701 0.59121 0.99834 0.0
O206 O 1.01072 0.70386 1.04576 0.0
C207 C 0.1402 0.62067 1.02532 0.0
O208 O 1.00624 0.66817 0.97602 0.0
H209 H 0.10149 0.54151 0.92193 0.0
H210 H 0.08638 0.70116 0.14443 0.0
H211 H 0.93946 0.60904 0.92617 0.0
O212 O 0.11627 0.63443 0.06338 0.0
O213 O 0.11229 0.60352 0.99109 0.0
H214 H 0.9858 0.57845 0.14911 0.0
O215 O 0.04797 0.51391 1.01987 0.0
O216 O 0.0547 0.54615 0.09087 0.0
O217 O 0.94294 0.5777 1.00797 0.0
O218 O 0.94856 0.61376 0.07734 0.0
C219 C 0.05807 0.50753 0.0643 0.0
H220 H 0.08757 0.70475 0.23339 0.0
H221 H 0.98628 0.57907 0.23489 0.0
H222 H 0.10293 0.55499 0.83484 0.0
H223 H 0.9378 0.62312 0.84022 0.0
C224 C 0.14401 0.17887 0.37035 0.0
C225 C 0.11589 0.17072 0.32644 0.0
C226 C 0.04596 0.128 0.37089 0.0
C227 C 0.07651 0.13249 0.41429 0.0
N228 N 0.15972 0.1551 0.45354 0.0
N229 N 0.04438 0.13073 0.28419 0.0
C230 C 0.12688 0.15618 0.41348 0.0
C231 C 0.06805 0.14335 0.3266 0.0
N232 N 0.18645 0.20952 0.37109 0.0
N233 N 0.99449 0.11118 0.37211 0.0
H234 H 0.0587 0.14183 0.2513 0.0
H235 H 1.01344 0.10601 0.28137 0.0
H236 H 0.97667 0.09981 0.40341 0.0
H237 H 0.9675 0.11258 0.34287 0.0
H238 H 0.20476 0.22175 0.40236 0.0
H239 H 0.20052 0.22621 0.34045 0.0
H240 H 0.19945 0.16679 0.4542 0.0
H241 H 0.14931 0.13812 0.48529 0.0
C242 C 0.40783 0.96254 0.89114 0.0
C243 C 0.44134 0.97063 0.85133 0.0
C244 C 0.48933 1.03264 0.89954 0.0
C245 C 0.45254 1.02782 0.938 0.0
N246 N 0.37083 0.99332 0.96633 0.0
N247 N 0.50892 1.01918 0.81561 0.0
C248 C 0.41029 0.99396 0.93257 0.0
C249 C 0.48055 1.00741 0.85507 0.0
N250 N 0.37404 0.92396 0.88968 0.0
N251 N 0.53476 0.05901 0.9061 0.0
H252 H 0.50547 1.0003 0.78333 0.0
H253 H 0.53288 0.04981 0.81391 0.0
H254 H 0.54354 0.07759 0.93758 0.0
H255 H 0.56651 0.05871 0.88193 0.0
H256 H 0.35288 0.91218 0.91902 0.0
H257 H 0.3709 0.9007 0.8601 0.0
H258 H 0.33584 0.97352 0.96268 0.0
H259 H 0.37021 1.01667 0.99606 0.0
C260 C 0.63955 0.49555 0.88598 0.0
C261 C 0.61103 0.52959 0.91667 0.0
C262 C 0.54029 0.54871 0.85582 0.0
C263 C 0.57235 0.51947 0.82334 0.0
N264 N 0.65221 0.46547 0.8053 0.0
N265 N 0.54014 0.59486 0.92982 0.0
C266 C 0.62167 0.49237 0.83793 0.0
C267 C 0.56244 0.5575 0.90168 0.0
N268 N 0.68319 0.46573 0.90349 0.0
N269 N 0.48934 0.56875 0.84223 0.0
H270 H 0.55822 0.60454 0.96215 0.0
H271 H 0.50736 0.61958 0.91906 0.0
H272 H 0.47244 0.56318 0.80839 0.0
H273 H 0.46203 0.58682 0.86561 0.0
H274 H 0.70269 0.43645 0.88453 0.0
H275 H 0.69792 0.46837 0.93851 0.0
H276 H 0.69179 0.44977 0.81215 0.0
H277 H 0.63847 0.46041 0.7703 0.0
C278 C 0.96569 0.64494 0.35687 0.0
C279 C 1.00485 0.61792 0.38698 0.0
C280 C 0.07083 0.61342 0.32229 0.0
C281 C 0.0323 0.64218 0.29305 0.0
N282 N 0.94893 0.69515 0.28523 0.0
N283 N 0.09706 0.58415 0.40224 0.0
C284 C 0.98155 0.66109 0.31138 0.0
C285 C 0.05832 0.60467 0.3708 0.0
N286 N 0.91321 0.6552 0.37168 0.0
N287 N 0.11836 0.59327 0.30321 0.0
H288 H 0.0879 0.57556 0.4374 0.0
H289 H 0.13844 0.57818 0.39435 0.0
H290 H 0.12949 0.60083 0.26836 0.0
H291 H 0.14539 0.56744 0.32107 0.0
H292 H 0.88139 0.66993 0.34948 0.0
H293 H 0.89984 0.64531 0.40507 0.0
H294 H 0.91393 0.71443 0.2983 0.0
H295 H 0.95993 0.70792 0.25182 0.0
C296 C 0.24909 0.11704 0.1601 0.0
C297 C 0.2542 0.15664 0.19336 0.0
C298 C 0.35412 0.151 0.18184 0.0
C299 C 0.34841 0.1152 0.14491 0.0
N300 N 0.29042 0.06586 0.0967 0.0
N301 N 0.31082 0.21426 0.2334 0.0
C302 C 0.29586 0.09832 0.13375 0.0
C303 C 0.30659 0.17426 0.2036 0.0
N304 N 0.19947 0.09714 0.15403 0.0
N305 N 0.40539 0.16145 0.19744 0.0
H306 H 0.27771 0.23063 0.25201 0.0
H307 H 0.34627 0.23333 0.23751 0.0
H308 H 0.44107 0.14523 0.18265 0.0
H309 H 0.41294 0.18257 0.22765 0.0
H310 H 0.19359 0.06511 0.13414 0.0
H311 H 0.16443 0.11076 0.17176 0.0
H312 H 0.25286 0.05597 0.08297 0.0
H313 H 0.32383 0.05089 0.07756 0.0
C314 C 0.20803 1.04037 0.69838 0.0
C315 C 0.25724 1.02265 0.67703 0.0
C316 C 0.21247 1.02881 0.59757 0.0
C317 C 0.16223 0.04433 0.61938 0.0
N318 N 0.10987 0.0575 0.69092 0.0
N319 N 0.31136 1.01227 0.60674 0.0
C320 C 0.15953 0.04863 0.66991 0.0
C321 C 0.26088 1.0197 0.6266 0.0
N322 N 0.20826 0.04977 0.74624 0.0
N323 N 0.2137 1.02272 0.54923 0.0
H324 H 0.3476 1.01016 0.62715 0.0
H325 H 0.31824 1.01308 0.57033 0.0
H326 H 0.17975 1.0315 0.52687 0.0
H327 H 0.24724 1.00659 0.53123 0.0
H328 H 0.17555 0.06784 0.76394 0.0
H329 H 0.2433 0.043 0.76785 0.0
H330 H 0.1039 0.05549 0.72745 0.0
H331 H 0.07332 0.06262 0.67151 0.0
C332 C 0.80439 0.50617 0.06354 0.0
C333 C 0.76638 0.53816 0.08884 0.0
C334 C 0.82745 0.60657 0.08222 0.0
C335 C 0.86738 0.57309 0.06071 0.0
N336 N 0.89938 0.48675 1.04563 0.0
N337 N 0.74567 0.61567 0.13006 0.0
C338 C 0.85765 0.52158 0.05585 0.0
C339 C 0.77951 0.58733 0.10103 0.0
N340 N 0.78891 0.46248 1.0439 0.0
N341 N 0.83373 0.65697 0.08232 0.0
H342 H 0.71027 0.60221 0.14407 0.0
H343 H 0.75533 0.65023 0.1437 0.0
H344 H 0.86687 0.67278 0.06676 0.0
H345 H 0.80351 0.68353 0.09348 0.0
H346 H 0.81367 0.44096 1.02079 0.0
H347 H 0.74959 0.45024 1.04647 0.0
H348 H 0.89482 0.44827 1.04656 0.0
H349 H 0.93986 0.49549 1.04171 0.0
C350 C 0.77328 0.61985 0.59484 0.0
C351 C 0.79519 0.61715 0.54837 0.0
C352 C 0.70274 0.60909 0.51554 0.0
C353 C 0.68041 0.62011 0.56095 0.0
N354 N 0.69534 0.648 0.64165 0.0
N355 N 0.77686 0.62346 0.46316 0.0
C356 C 0.71591 0.6287 0.60016 0.0
C357 C 0.75896 0.61563 0.50818 0.0
N358 N 0.80719 0.61364 0.63395 0.0
N359 N 0.67129 0.59059 0.47979 0.0
H360 H 0.8167 0.63201 0.45583 0.0
H361 H 0.75028 0.6272 0.43363 0.0
H362 H 0.63069 0.58226 0.48411 0.0
H363 H 0.68767 0.57796 0.44762 0.0
H364 H 0.79279 0.61088 0.66849 0.0
H365 H 0.84933 0.60607 0.63116 0.0
H366 H 0.72017 0.65884 0.66986 0.0
H367 H 0.6539 0.65895 0.64558 0.0
C368 C 0.07459 0.40312 0.1591 0.0
C369 C 0.10995 0.36584 0.13708 0.0
C370 C 0.11208 0.42094 0.06602 0.0
C371 C 0.07259 0.45607 0.08634 0.0
N372 N 1.00344 0.46968 0.14599 0.0
N373 N 0.15528 0.33614 0.06651 0.0
C374 C 0.05004 0.44381 0.13102 0.0
C375 C 0.12633 0.37403 0.08959 0.0
N376 N 0.06713 0.4024 0.20714 0.0
N377 N 0.13822 0.43274 1.02541 0.0
H378 H 0.16749 0.30194 0.08291 0.0
H379 H 0.16315 0.33696 1.03019 0.0
H380 H 0.12853 0.46521 1.00578 0.0
H381 H 0.17243 0.41177 1.01283 0.0
H382 H 0.0453 0.43135 0.22491 0.0
H383 H 0.08865 0.37708 0.23008 0.0
H384 H 0.98283 0.45977 0.17639 0.0
H385 H 0.98157 0.49645 0.12465 0.0
C386 C 0.57388 0.40903 0.13784 0.0
C387 C 0.62958 0.41226 0.12664 0.0
C388 C 0.6329 0.32342 0.10452 0.0
C389 C 0.57481 0.32702 0.09949 0.0
N390 N 0.4895 0.37791 0.10839 0.0
N391 N 0.71509 0.36808 0.10383 0.0
C392 C 0.54479 0.37066 0.11647 0.0
C393 C 0.66043 0.36785 0.11233 0.0
N394 N 0.54792 0.44613 0.16391 0.0
N395 N 0.6616 0.27769 0.10343 0.0
H396 H 0.73859 0.39729 0.11372 0.0
H397 H 0.73692 0.33894 0.08633 0.0
H398 H 0.64251 0.2441 0.10064 0.0
H399 H 0.70356 0.27283 0.11102 0.0
H400 H 0.50769 0.44455 0.17511 0.0
H401 H 0.56914 0.4756 0.17776 0.0
H402 H 0.46706 0.41124 0.11676 0.0
H403 H 0.46714 0.35321 0.08855 0.0
C404 C 0.9325 0.75344 0.49656 0.0
C405 C 0.94232 0.73076 0.54217 0.0
C406 C 0.98763 0.8041 0.56989 0.0
C407 C 0.98038 0.825 0.5234 0.0
N408 N 0.95743 0.81626 0.44029 0.0
N409 N 0.98104 0.73172 0.6215 0.0
C410 C 0.95651 0.79848 0.486 0.0
C411 C 0.97063 0.75526 0.5787 0.0
N412 N 0.89857 0.73282 0.46388 0.0
N413 N 1.00925 0.83171 0.60562 0.0
H414 H 0.96489 0.69782 0.62983 0.0
H415 H 1.00666 0.74471 0.64807 0.0
H416 H 0.02464 0.86651 0.59955 0.0
H417 H 1.01042 0.82123 0.64138 0.0
H418 H 0.88539 0.75051 0.43215 0.0
H419 H 0.87903 0.7002 0.47023 0.0
H420 H 0.94598 0.79582 0.41063 0.0
H421 H 0.97481 0.84955 0.43154 0.0
C422 C 0.50396 0.83206 0.68236 0.0
C423 C 0.46944 0.83028 0.72253 0.0
C424 C 0.44974 0.74383 0.70031 0.0
C425 C 0.48507 0.74508 0.66036 0.0
N426 N 0.55633 0.78667 0.62139 0.0
N427 N 0.41986 0.78053 0.77562 0.0
C428 C 0.5152 0.7882 0.6537 0.0
C429 C 0.44612 0.78465 0.73345 0.0
N430 N 0.52483 0.87646 0.67076 0.0
N431 N 0.41681 0.70495 0.70526 0.0
H432 H 0.4161 0.80984 0.80005 0.0
H433 H 0.40675 0.74693 0.78853 0.0
H434 H 0.41667 0.67489 0.6818 0.0
H435 H 0.38578 0.70454 0.73007 0.0
H436 H 0.54411 0.88266 0.63875 0.0
H437 H 0.52041 0.90802 0.69254 0.0
H438 H 0.58354 0.81468 0.61822 0.0
H439 H 0.56665 0.75526 0.60064 0.0
C440 C 0.94223 1.03431 0.77388 0.0
C441 C 0.94482 0.98074 0.77751 0.0
C442 C 0.977 0.97911 0.6946 0.0
C443 C 0.96177 1.03154 0.68762 0.0
N444 N 0.91868 0.10639 0.72307 0.0
N445 N 0.95364 0.90292 0.73367 0.0
C446 C 0.94133 0.05847 0.72803 0.0
C447 C 0.95901 0.95332 0.73568 0.0
N448 N 0.94235 0.06253 0.81431 0.0
N449 N 1.01211 0.95395 0.66434 0.0
H450 H 0.93753 0.88279 0.76128 0.0
H451 H 0.95946 0.88255 0.70231 0.0
H452 H 0.03262 0.97154 0.63756 0.0
H453 H 0.02749 0.91715 0.67103 0.0
H454 H 0.94484 0.10131 0.81365 0.0
H455 H 0.94679 0.04651 0.84825 0.0
H456 H 0.89941 0.12578 0.75098 0.0
H457 H 0.91293 0.12438 0.6902 0.0
C458 C 0.57295 0.13148 0.30156 0.0
C459 C 0.61496 0.16544 0.29855 0.0
C460 C 0.6199 0.14944 0.21218 0.0
C461 C 0.57373 0.11985 0.2141 0.0
N462 N 0.50124 0.08883 0.26076 0.0
N463 N 0.67335 0.2122 0.24977 0.0
C464 C 0.54911 0.11219 0.25892 0.0
C465 C 0.63691 0.17597 0.25345 0.0
N466 N 0.55633 0.11693 0.34536 0.0
N467 N 0.64939 0.15024 0.17139 0.0
H468 H 0.68779 0.23152 0.27917 0.0
H469 H 0.6858 0.22599 0.21728 0.0
H470 H 0.64006 0.12934 0.14142 0.0
H471 H 0.68637 0.16705 0.16888 0.0
H472 H 0.53061 0.08802 0.35037 0.0
H473 H 0.57179 0.13105 0.37713 0.0
H474 H 0.47784 0.0876 0.29126 0.0
H475 H 0.4821 0.07429 0.2309 0.0
C476 C 0.46694 0.57884 0.26635 0.0
C477 C 0.42293 0.60444 0.24081 0.0
C478 C 0.40645 0.66167 0.30796 0.0
C479 C 0.45417 0.63942 0.33124 0.0
N480 N 0.53412 0.58114 0.33085 0.0
N481 N 0.35085 0.67012 0.23534 0.0
C482 C 0.48599 0.59951 0.30963 0.0
C483 C 0.39232 0.64549 0.26145 0.0
N484 N 0.48744 0.53299 0.25105 0.0
N485 N 0.37403 0.69729 0.33099 0.0
H486 H 0.33794 0.65749 0.20207 0.0
H487 H 0.33094 0.70405 0.24534 0.0
H488 H 0.38507 0.71203 0.36392 0.0
H489 H 0.33531 0.71076 0.31867 0.0
H490 H 0.5169 0.51041 0.26994 0.0
H491 H 0.46958 0.51479 0.22252 0.0
H492 H 0.56161 0.55526 0.31468 0.0
H493 H 0.54892 0.59512 0.36292 0.0
C494 C 0.9961 0.60343 0.69827 0.0
C495 C 0.0387 0.63448 0.68649 0.0
C496 C 0.0553 0.64926 0.77117 0.0
C497 C 0.02373 0.60817 0.78179 0.0
N498 N 0.96496 0.54443 0.75541 0.0
N499 N 0.10465 0.69173 0.71056 0.0
C500 C 0.99376 0.58506 0.7454 0.0
C501 C 0.06595 0.65991 0.72279 0.0
N502 N 0.95763 0.59229 0.66484 0.0
N503 N 0.07476 0.67786 0.80715 0.0
H504 H 0.11115 0.70108 0.67505 0.0
H505 H 0.13118 0.70718 0.73503 0.0
H506 H 0.0675 0.67098 0.84301 0.0
H507 H 0.0941 0.71075 0.80135 0.0
H508 H 0.92472 0.57112 0.67236 0.0
H509 H 0.95471 0.6096 0.63147 0.0
H510 H 0.94764 0.52271 0.72913 0.0
H511 H 0.96227 0.52978 0.7897 0.0
C512 C 0.70468 0.97312 0.9678 0.0
C513 C 0.75283 0.99912 0.97031 0.0
C514 C 0.70558 0.06553 1.0177 0.0
C515 C 0.65634 1.0403 1.01368 0.0
N516 N 0.60613 0.97662 0.97449 0.0
N517 N 0.79919 0.0721 0.99129 0.0
C518 C 0.65508 0.99588 0.98576 0.0
C519 C 0.75318 0.0461 0.99331 0.0
N520 N 0.70694 0.92583 0.94928 0.0
N521 N 0.70764 0.10656 1.04642 0.0
H522 H 0.83468 0.05773 0.97461 0.0
H523 H 0.80116 0.10883 1.00303 0.0
H524 H 0.67368 0.12236 0.06411 0.0
H525 H 0.74361 0.12338 0.05508 0.0
H526 H 0.67497 0.90221 0.95137 0.0
H527 H 0.74266 0.90875 0.93502 0.0
H528 H 0.60213 0.94755 0.95034 0.0
H529 H 0.56849 0.99295 0.9852 0.0
C530 C 0.80679 0.19481 0.42536 0.0
C531 C 0.75716 0.17133 0.43243 0.0
C532 C 0.80464 0.11471 0.49223 0.0
C533 C 0.85475 0.13675 0.48358 0.0
N534 N 0.90579 0.19189 0.43615 0.0
N535 N 0.70973 0.10519 0.46812 0.0
C536 C 0.85636 0.17536 0.44869 0.0
C537 C 0.75648 0.13001 0.46446 0.0
N538 N 0.80643 0.23628 0.39664 0.0
N539 N 0.8026 0.08065 0.52851 0.0
H540 H 0.6732 0.11659 0.4501 0.0
H541 H 0.70781 0.07148 0.48644 0.0
H542 H 0.83684 0.06874 0.54946 0.0
H543 H 0.76652 0.06688 0.54038 0.0
H544 H 0.83897 0.25924 0.39482 0.0
H545 H 0.77219 0.24965 0.37639 0.0
H546 H 0.9109 0.21535 0.40716 0.0
H547 H 0.94292 0.17897 0.4523 0.0
C548 C 0.2785 0.66609 0.05508 0.0
C549 C 0.31454 0.62479 1.04138 0.0
C550 C 0.23628 0.58188 1.00997 0.0
C551 C 0.20055 0.62407 1.02244 0.0
N552 N 0.19098 0.71211 1.04075 0.0
N553 N 0.32962 0.54988 0.99466 0.0
C554 C 0.2229 0.66809 1.0397 0.0
C555 C 0.29397 0.58483 1.01506 0.0
N556 N 0.29613 0.702 0.08512 0.0
N557 N 0.21564 0.53795 0.99616 0.0
H558 H 0.37212 0.55108 0.99775 0.0
H559 H 0.31717 0.52273 0.97102 0.0
H560 H 0.17409 0.5338 0.99102 0.0
H561 H 0.23971 0.50442 0.99291 0.0
H562 H 0.26967 0.72962 0.10012 0.0
H563 H 0.33598 0.70159 0.09882 0.0
H564 H 0.20637 0.74644 0.04917 0.0
H565 H 0.15067 0.71496 1.02759 0.0
C566 C 0.25409 0.61495 0.56077 0.0
C567 C 0.23769 0.56601 0.55167 0.0
C568 C 0.33146 0.53176 0.56925 0.0
C569 C 0.34473 0.57902 0.58728 0.0
N570 N 0.31805 0.66637 0.60082 0.0
N571 N 0.27566 0.49351 0.51009 0.0
C572 C 0.30578 0.62089 0.58314 0.0
C573 C 0.28016 0.52775 0.54562 0.0
N574 N 0.224 0.65538 0.54169 0.0
N575 N 0.36822 0.49097 0.57298 0.0
H576 H 0.2432 0.49673 0.48524 0.0
H577 H 0.30757 0.46758 0.50095 0.0
H578 H 0.40697 0.49226 0.58893 0.0
H579 H 0.35809 0.45501 0.56351 0.0
H580 H 0.23645 0.69184 0.54304 0.0
H581 H 0.19019 0.65108 0.51909 0.0
H582 H 0.28917 0.69685 0.60301 0.0
H583 H 0.35582 0.67219 0.61699 0.0
C584 C 0.99987 0.84591 0.95227 0.0
C585 C 0.96055 0.84459 0.91417 0.0
C586 C 0.94236 0.75854 0.9395 0.0
C587 C 0.98543 0.75757 0.97473 0.0
N588 N 0.06009 0.79997 1.01 0.0
N589 N 0.90178 0.79548 0.86656 0.0
C590 C 1.01543 0.8013 0.97992 0.0
C591 C 0.93445 0.79943 0.90625 0.0
N592 N 0.02144 0.89036 0.96297 0.0
N593 N 0.90631 0.72171 0.93966 0.0
H594 H 0.89488 0.82454 0.84176 0.0
H595 H 0.88614 0.76196 0.85583 0.0
H596 H 0.90777 0.69342 0.96544 0.0
H597 H 0.87114 0.72251 0.91802 0.0
H598 H 0.04492 0.89596 0.99361 0.0
H599 H 1.01306 0.92265 0.94234 0.0
H600 H 0.08763 0.82793 1.01116 0.0
H601 H 0.07176 0.76931 1.03174 0.0
C602 C 0.4705 0.7344 0.11963 0.0
C603 C 0.47875 0.71205 0.074 0.0
C604 C 0.51661 0.78872 1.04559 0.0
C605 C 0.51047 0.80918 0.09193 0.0
N606 N 0.49726 0.79693 0.17571 0.0
N607 N 0.5164 0.71468 0.99558 0.0
C608 C 0.49334 0.78009 0.12991 0.0
C609 C 0.50428 0.73816 1.03756 0.0
N610 N 0.43689 0.71446 0.15187 0.0
N611 N 0.53222 0.81829 1.0092 0.0
H612 H 0.50589 0.6783 0.98853 0.0
H613 H 0.53963 0.72985 0.96919 0.0
H614 H 0.54385 0.8547 1.01468 0.0
H615 H 0.5315 0.80768 0.97355 0.0
H616 H 0.42546 0.73225 0.18348 0.0
H617 H 0.41465 0.68363 0.14469 0.0
H618 H 0.49027 0.77474 0.20527 0.0
H619 H 0.51299 0.83111 0.18431 0.0
C620 C 0.09085 0.42637 0.60244 0.0
C621 C 0.08842 0.44525 0.55488 0.0
C622 C 0.04314 0.37159 0.52761 0.0
C623 C 0.05019 0.35085 0.57418 0.0
N624 N 0.08442 0.35507 0.65504 0.0
N625 N 0.06649 0.43597 0.47162 0.0
C626 C 0.07476 0.37744 0.61145 0.0
C627 C 0.06553 0.41794 0.51724 0.0
N628 N 0.10709 0.45581 0.63921 0.0
N629 N 1.01466 0.34691 0.49363 0.0
H630 H 0.0822 0.47014 0.46324 0.0
H631 H 0.05529 0.41593 0.44168 0.0
H632 H 0.99825 0.31261 0.50007 0.0
H633 H 1.00368 0.36177 0.4602 0.0
H634 H 0.10273 0.44682 0.67498 0.0
H635 H 0.1218 0.49109 0.63443 0.0
H636 H 0.1088 0.36953 0.68177 0.0
H637 H 0.07049 0.32025 0.66374 0.0
C638 C 0.6322 0.40616 0.49109 0.0
C639 C 0.59535 0.37222 0.47249 0.0
C640 C 0.51788 0.43273 0.49155 0.0
C641 C 0.55468 0.46428 0.51441 0.0
N642 N 0.64704 0.47892 0.53982 0.0
N643 N 0.50213 0.34857 0.46464 0.0
C644 C 0.61193 0.45036 0.51519 0.0
C645 C 0.53777 0.38432 0.47477 0.0
N646 N 0.68717 0.39636 0.48449 0.0
N647 N 0.46386 0.44894 0.48601 0.0
H648 H 0.51499 0.31184 0.45586 0.0
H649 H 0.46009 0.35364 0.47001 0.0
H650 H 0.44804 0.48359 0.49857 0.0
H651 H 0.43593 0.43005 0.46558 0.0
H652 H 0.71642 0.42181 0.4921 0.0
H653 H 0.70327 0.36397 0.46764 0.0
H654 H 0.68817 0.46797 0.54664 0.0
H655 H 0.63438 0.51252 0.55622 0.0
loop_
_geom_bond_atom_site_label_1
_geom_bond_atom_site_label_2
_geom_bond_distance
_geom_bond_site_symmetry_2
_ccdc_geom_bond_type
H0 C5 0.929 . S
H1 C10 0.931 . S
H2 C8 0.930 . S
N3 N4 1.234 . S
N3 C7 1.453 . S
N4 N3 1.234 . S
C5 H0 0.929 . S
C5 C6 1.373 . S
C5 C7 1.368 . S
C6 C5 1.373 . S
C6 C10 1.397 . S
C7 N3 1.453 . S
C7 C5 1.368 . S
C7 C8 1.373 . S
C8 H2 0.930 . S
C8 C7 1.373 . S
C8 C9 1.371 . S
C9 C8 1.371 . S
C9 C10 1.383 . S
C10 H1 0.931 . S
C10 C6 1.397 . S
C10 C9 1.383 . S
H11 C16 0.929 . S
H12 C21 0.931 . S
H13 C19 0.930 . S
N14 N15 1.234 . S
N14 C18 1.453 . S
N15 N14 1.234 . S
C16 H11 0.929 . S
C16 C17 1.373 . S
C16 C18 1.368 . S
C17 C16 1.373 . S
C17 C21 1.397 . S
C18 N14 1.453 . S
C18 C16 1.368 . S
C18 C19 1.373 . S
C19 H13 0.930 . S
C19 C18 1.373 . S
C19 C20 1.371 . S
C20 C19 1.371 . S
C20 C21 1.383 . S
C21 H12 0.931 . S
C21 C17 1.397 . S
C21 C20 1.383 . S
H22 C27 0.929 . S
H23 C32 0.931 1_554 S
H24 C30 0.930 . S
N25 N26 1.234 . S
N25 C29 1.453 . S
N26 N25 1.234 . S
C27 H22 0.929 . S
C27 C28 1.373 . S
C27 C29 1.368 . S
C28 C27 1.373 . S
C28 C32 1.397 . S
C29 N25 1.453 . S
C29 C27 1.368 . S
C29 C30 1.373 . S
C30 H24 0.930 . S
C30 C29 1.373 . S
C30 C31 1.371 . S
C31 C30 1.371 . S
C31 C32 1.383 . S
C32 H23 0.931 1_556 S
C32 C28 1.397 . S
C32 C31 1.383 . S
H33 C38 0.929 . S
H34 C43 0.931 . S
H35 C41 0.930 . S
N36 N37 1.234 . S
N36 C40 1.453 . S
N37 N36 1.234 . S
C38 H33 0.929 . S
C38 C39 1.373 . S
C38 C40 1.368 . S
C39 C38 1.373 . S
C39 C43 1.397 . S
C40 N36 1.453 . S
C40 C38 1.368 . S
C40 C41 1.373 . S
C41 H35 0.930 . S
C41 C40 1.373 . S
C41 C42 1.371 . S
C42 C41 1.371 . S
C42 C43 1.383 . S
C43 H34 0.931 . S
C43 C39 1.397 . S
C43 C42 1.383 . S
H44 C49 0.929 . S
H45 C54 0.931 . S
H46 C52 0.930 . S
N47 N48 1.234 . S
N47 C51 1.453 . S
N48 N47 1.234 . S
C49 H44 0.929 . S
C49 C50 1.373 . S
C49 C51 1.368 . S
C50 C49 1.373 . S
C50 C54 1.397 . S
C51 N47 1.453 . S
C51 C49 1.368 . S
C51 C52 1.373 . S
C52 H46 0.930 . S
C52 C51 1.373 . S
C52 C53 1.371 . S
C53 C52 1.371 . S
C53 C54 1.383 . S
C54 H45 0.931 . S
C54 C50 1.397 . S
C54 C53 1.383 . S
H55 C60 0.929 . S
H56 C65 0.931 . S
H57 C63 0.930 . S
N58 N59 1.234 . S
N58 C62 1.453 . S
N59 N58 1.234 . S
C60 H55 0.929 . S
C60 C61 1.373 . S
C60 C62 1.368 . S
C61 C60 1.373 . S
C61 C65 1.397 . S
C62 N58 1.453 . S
C62 C60 1.368 . S
C62 C63 1.373 . S
C63 H57 0.930 . S
C63 C62 1.373 . S
C63 C64 1.371 . S
C64 C63 1.371 . S
C64 C65 1.383 . S
C65 H56 0.931 . S
C65 C61 1.397 . S
C65 C64 1.383 . S
H66 C71 0.929 . S
H67 C76 0.931 . S
H68 C74 0.930 . S
N69 N70 1.234 . S
N69 C73 1.453 . S
N70 N69 1.234 . S
C71 H66 0.929 . S
C71 C72 1.373 . S
C71 C73 1.368 . S
C72 C71 1.373 . S
C72 C76 1.397 . S
C73 N69 1.453 . S
C73 C71 1.368 . S
C73 C74 1.373 . S
C74 H68 0.930 . S
C74 C73 1.373 . S
C74 C75 1.371 . S
C75 C74 1.371 . S
C75 C76 1.383 . S
C76 H67 0.931 . S
C76 C72 1.397 . S
C76 C75 1.383 . S
H77 C82 0.929 . S
H78 C87 0.931 . S
H79 C85 0.930 . S
N80 N81 1.234 . S
N80 C84 1.453 . S
N81 N80 1.234 . S
C82 H77 0.929 . S
C82 C83 1.373 . S
C82 C84 1.368 . S
C83 C82 1.373 . S
C83 C87 1.397 . S
C84 N80 1.453 . S
C84 C82 1.368 . S
C84 C85 1.373 . S
C85 H79 0.930 . S
C85 C84 1.373 . S
C85 C86 1.371 . S
C86 C85 1.371 . S
C86 C87 1.383 . S
C87 H78 0.931 . S
C87 C83 1.397 . S
C87 C86 1.383 . S
C88 O104 1.251 . S
C88 O106 1.254 . S
N89 C90 1.333 . S
N89 C94 1.307 . S
N89 Zn95 2.020 . S
C90 N89 1.333 . S
C90 C91 1.379 . S
C90 H108 0.952 . S
C91 C90 1.379 . S
C91 C92 1.390 . S
C91 H118 0.949 . S
C92 C91 1.390 . S
C92 C93 1.357 . S
C93 C92 1.357 . S
C93 C94 1.370 . S
C93 H119 0.950 . S
C94 N89 1.307 . S
C94 C93 1.370 . S
C94 H112 0.948 1_455 S
Zn95 N89 2.020 . S
Zn95 O104 2.039 . S
Zn95 O110 2.034 . S
Zn95 O114 2.025 1_455 S
Zn95 O116 2.024 1_455 S
C96 O115 1.246 . S
C96 O116 1.249 . S
N97 C98 1.307 . S
N97 C99 1.333 . S
N97 Zn103 2.020 . S
C98 N97 1.307 . S
C98 C102 1.370 . S
C98 H109 0.948 1_655 S
C99 N97 1.333 . S
C99 C100 1.379 . S
C99 H107 0.952 . S
C100 C99 1.379 . S
C100 C101 1.390 . S
C100 H120 0.949 . S
C101 C100 1.390 . S
C101 C102 1.357 . S
C102 C98 1.370 . S
C102 C101 1.357 . S
C102 H121 0.950 . S
Zn103 N97 2.020 . S
Zn103 O106 2.025 1_665 S
Zn103 O111 2.024 1_655 S
Zn103 O113 2.039 . S
Zn103 O115 2.034 1_565 S
O104 C88 1.251 . S
O104 Zn95 2.039 . S
C105 O110 1.246 . S
C105 O111 1.249 1_545 S
O106 C88 1.254 . S
O106 Zn103 2.025 1_445 S
H107 C99 0.952 . S
H108 C90 0.952 . S
H109 C98 0.948 1_455 S
O110 Zn95 2.034 . S
O110 C105 1.246 . S
O111 Zn103 2.024 1_455 S
O111 C105 1.249 1_565 S
H112 C94 0.948 1_655 S
O113 Zn103 2.039 . S
O113 C117 1.251 1_565 S
O114 Zn95 2.025 1_655 S
O114 C117 1.254 . S
O115 C96 1.246 . S
O115 Zn103 2.034 1_545 S
O116 Zn95 2.024 1_655 S
O116 C96 1.249 . S
C117 O113 1.251 1_545 S
C117 O114 1.254 . S
H118 C91 0.949 . S
H119 C93 0.950 . S
H120 C100 0.949 . S
H121 C102 0.950 . S
C122 O138 1.251 . S
C122 O140 1.254 1_546 S
N123 C124 1.333 . S
N123 C128 1.307 . S
N123 Zn129 2.020 1_556 S
C124 N123 1.333 . S
C124 C125 1.379 . S
C124 H142 0.956 . S
C125 C124 1.379 . S
C125 C126 1.390 . S
C125 H152 0.949 . S
C126 C125 1.390 . S
C126 C127 1.357 . S
C127 C126 1.357 . S
C127 C128 1.370 . S
C127 H153 0.950 . S
C128 N123 1.307 . S
C128 C127 1.370 . S
C128 H146 0.948 . S
Zn129 N123 2.020 1_554 S
Zn129 O138 2.039 1_554 S
Zn129 O144 2.034 . S
Zn129 O148 2.025 . S
Zn129 O150 2.024 1_554 S
C130 O149 1.246 1_545 S
C130 O150 1.249 . S
N131 C132 1.307 . S
N131 C133 1.333 . S
N131 Zn137 2.020 . S
C132 N131 1.307 . S
C132 C136 1.370 . S
C132 H143 0.948 . S
C133 N131 1.333 . S
C133 C134 1.379 . S
C133 H141 0.952 . S
C134 C133 1.379 . S
C134 C135 1.390 . S
C134 H154 0.949 . S
C135 C134 1.390 . S
C135 C136 1.357 . S
C136 C132 1.370 . S
C136 C135 1.357 . S
C136 H155 0.950 . S
Zn137 N131 2.020 . S
Zn137 O140 2.025 . S
Zn137 O145 2.024 1_565 S
Zn137 O147 2.039 1_565 S
Zn137 O149 2.034 1_554 S
O138 C122 1.251 . S
O138 Zn129 2.039 1_556 S
C139 O144 1.246 . S
C139 O145 1.249 . S
O140 C122 1.254 1_564 S
O140 Zn137 2.025 . S
H141 C133 0.952 . S
H142 C124 0.956 . S
H143 C132 0.948 . S
O144 Zn129 2.034 . S
O144 C139 1.246 . S
O145 Zn137 2.024 1_545 S
O145 C139 1.249 . S
H146 C128 0.948 . S
O147 Zn137 2.039 1_545 S
O147 C151 1.251 . S
O148 Zn129 2.025 . S
O148 C151 1.254 . S
O149 C130 1.246 1_565 S
O149 Zn137 2.034 1_556 S
O150 Zn129 2.024 1_556 S
O150 C130 1.249 . S
C151 O147 1.251 . S
C151 O148 1.254 . S
H152 C125 0.949 . S
H153 C127 0.950 . S
H154 C134 0.949 . S
H155 C136 0.950 . S
C156 O172 1.251 . S
C156 O174 1.254 . S
N157 C158 1.333 . S
N157 C162 1.307 . S
N157 Zn163 2.020 . S
C158 N157 1.333 . S
C158 C159 1.379 . S
C158 H176 0.952 . S
C159 C158 1.379 . S
C159 C160 1.390 . S
C159 H186 0.949 . S
C160 C159 1.390 . S
C160 C161 1.357 . S
C161 C160 1.357 . S
C161 C162 1.370 . S
C161 H187 0.950 . S
C162 N157 1.307 . S
C162 C161 1.370 . S
C162 H180 0.948 . S
Zn163 N157 2.020 . S
Zn163 O172 2.039 . S
Zn163 O178 2.034 . S
Zn163 O182 2.025 . S
Zn163 O184 2.024 . S
C164 O183 1.246 . S
C164 O184 1.249 . S
N165 C166 1.307 . S
N165 C167 1.333 . S
N165 Zn171 2.020 . S
C166 N165 1.307 . S
C166 C170 1.370 . S
C166 H177 0.948 . S
C167 N165 1.333 . S
C167 C168 1.379 . S
C167 H175 0.952 . S
C168 C167 1.379 . S
C168 C169 1.390 . S
C168 H188 0.949 . S
C169 C168 1.390 . S
C169 C170 1.357 . S
C170 C166 1.370 . S
C170 C169 1.357 . S
C170 H189 0.950 . S
Zn171 N165 2.020 . S
Zn171 O174 2.025 . S
Zn171 O179 2.024 . S
Zn171 O181 2.039 . S
Zn171 O183 2.034 . S
O172 C156 1.251 . S
O172 Zn163 2.039 . S
C173 O178 1.246 . S
C173 O179 1.249 . S
O174 C156 1.254 . S
O174 Zn171 2.025 . S
H175 C167 0.952 . S
H176 C158 0.952 . S
H177 C166 0.948 . S
O178 Zn163 2.034 . S
O178 C173 1.246 . S
O179 Zn171 2.024 . S
O179 C173 1.249 . S
H180 C162 0.948 . S
O181 Zn171 2.039 . S
O181 C185 1.251 . S
O182 Zn163 2.025 . S
O182 C185 1.254 . S
O183 C164 1.246 . S
O183 Zn171 2.034 . S
O184 Zn163 2.024 . S
O184 C164 1.249 . S
C185 O181 1.251 . S
C185 O182 1.254 . S
H186 C159 0.949 . S
H187 C161 0.950 . S
H188 C168 0.949 . S
H189 C170 0.950 . S
C190 O206 1.251 1_556 S
C190 O208 1.254 1_655 S
N191 C192 1.333 . S
N191 C196 1.307 . S
N191 Zn197 2.020 . S
C192 N191 1.333 . S
C192 C193 1.379 . S
C192 H210 0.952 . S
C193 C192 1.379 . S
C193 C194 1.390 . S
C193 H220 0.949 . S
C194 C193 1.390 . S
C194 C195 1.357 . S
C195 C194 1.357 . S
C195 C196 1.370 . S
C195 H221 0.950 . S
C196 N191 1.307 . S
C196 C195 1.370 . S
C196 H214 0.948 . S
Zn197 N191 2.020 . S
Zn197 O206 2.039 . S
Zn197 O212 2.034 1_655 S
Zn197 O216 2.025 1_655 S
Zn197 O218 2.024 . S
C198 O217 1.246 . S
C198 O218 1.249 1_556 S
N199 C200 1.307 . S
N199 C201 1.333 . S
N199 Zn205 2.020 . S
C200 N199 1.307 . S
C200 C204 1.370 . S
C200 H211 0.948 . S
C201 N199 1.333 . S
C201 C202 1.379 . S
C201 H209 0.952 . S
C202 C201 1.379 . S
C202 C203 1.390 . S
C202 H222 0.949 . S
C203 C202 1.390 . S
C203 C204 1.357 . S
C204 C200 1.370 . S
C204 C203 1.357 . S
C204 H223 0.950 . S
Zn205 N199 2.020 . S
Zn205 O208 2.025 . S
Zn205 O213 2.024 . S
Zn205 O215 2.039 . S
Zn205 O217 2.034 1_455 S
O206 C190 1.251 1_554 S
O206 Zn197 2.039 . S
C207 O212 1.246 . S
C207 O213 1.249 1_554 S
O208 C190 1.254 1_455 S
O208 Zn205 2.025 . S
H209 C201 0.952 . S
H210 C192 0.952 . S
H211 C200 0.948 . S
O212 Zn197 2.034 1_455 S
O212 C207 1.246 . S
O213 Zn205 2.024 . S
O213 C207 1.249 1_556 S
H214 C196 0.948 . S
O215 Zn205 2.039 . S
O215 C219 1.251 1_556 S
O216 Zn197 2.025 1_455 S
O216 C219 1.254 . S
O217 C198 1.246 . S
O217 Zn205 2.034 1_655 S
O218 Zn197 2.024 . S
O218 C198 1.249 1_554 S
C219 O215 1.251 1_554 S
C219 O216 1.254 . S
H220 C193 0.949 . S
H221 C195 0.950 . S
H222 C202 0.949 . S
H223 C204 0.950 . S
C224 C225 1.363 . S
C224 C230 1.379 . S
C224 N232 1.356 . S
C225 C224 1.363 . S
C225 C231 1.363 . S
C226 C227 1.363 . S
C226 C231 1.379 . S
C226 N233 1.356 . S
C227 C226 1.363 . S
C227 C230 1.363 . S
N228 C230 1.356 . S
N228 H240 0.984 . S
N228 H241 0.985 . S
N229 C231 1.356 . S
N229 H234 0.984 . S
N229 H235 0.985 . S
C230 C224 1.379 . S
C230 C227 1.363 . S
C230 N228 1.356 . S
C231 C225 1.363 . S
C231 C226 1.379 . S
C231 N229 1.356 . S
N232 C224 1.356 . S
N232 H238 0.984 . S
N232 H239 0.984 . S
N233 C226 1.356 . S
N233 H236 0.984 . S
N233 H237 0.985 1_545 S
H234 N229 0.984 . S
H235 N229 0.985 . S
H236 N233 0.984 . S
H237 N233 0.985 1_565 S
H238 N232 0.984 . S
H239 N232 0.984 . S
H240 N228 0.984 . S
H241 N228 0.985 . S
C242 C243 1.363 . S
C242 C248 1.379 . S
C242 N250 1.356 . S
C243 C242 1.363 . S
C243 C249 1.363 1_565 S
C244 C245 1.363 1_545 S
C244 C249 1.379 . S
C244 N251 1.356 . S
C245 C244 1.363 1_565 S
C245 C248 1.363 . S
N246 C248 1.356 . S
N246 H258 0.984 . S
N246 H259 0.985 . S
N247 C249 1.356 . S
N247 H252 0.984 1_545 S
N247 H253 0.985 . S
C248 C242 1.379 . S
C248 C245 1.363 . S
C248 N246 1.356 . S
C249 C243 1.363 1_545 S
C249 C244 1.379 . S
C249 N247 1.356 . S
N250 C242 1.356 . S
N250 H256 0.984 . S
N250 H257 0.984 . S
N251 C244 1.356 . S
N251 H254 0.984 . S
N251 H255 0.985 . S
H252 N247 0.984 1_565 S
H253 N247 0.985 . S
H254 N251 0.984 . S
H255 N251 0.985 . S
H256 N250 0.984 . S
H257 N250 0.984 . S
H258 N246 0.984 . S
H259 N246 0.985 . S
C260 C261 1.363 . S
C260 C266 1.379 . S
C260 N268 1.356 . S
C261 C260 1.363 . S
C261 C267 1.363 . S
C262 C263 1.363 . S
C262 C267 1.379 . S
C262 N269 1.356 . S
C263 C262 1.363 . S
C263 C266 1.363 . S
N264 C266 1.356 . S
N264 H276 0.984 . S
N264 H277 0.985 . S
N265 C267 1.356 . S
N265 H270 0.984 . S
N265 H271 0.985 . S
C266 C260 1.379 . S
C266 C263 1.363 . S
C266 N264 1.356 . S
C267 C261 1.363 . S
C267 C262 1.379 . S
C267 N265 1.356 . S
N268 C260 1.356 . S
N268 H274 0.984 . S
N268 H275 0.984 . S
N269 C262 1.356 . S
N269 H272 0.984 . S
N269 H273 0.985 . S
H270 N265 0.984 . S
H271 N265 0.985 . S
H272 N269 0.984 . S
H273 N269 0.985 . S
H274 N268 0.984 . S
H275 N268 0.984 . S
H276 N264 0.984 . S
H277 N264 0.985 . S
C278 C279 1.363 . S
C278 C284 1.379 . S
C278 N286 1.356 . S
C279 C278 1.363 . S
C279 C285 1.363 . S
C280 C281 1.363 . S
C280 C285 1.379 . S
C280 N287 1.356 . S
C281 C280 1.363 . S
C281 C284 1.363 . S
N282 C284 1.356 . S
N282 H294 0.984 . S
N282 H295 0.985 . S
N283 C285 1.356 . S
N283 H288 0.984 . S
N283 H289 0.985 . S
C284 C278 1.379 . S
C284 C281 1.363 . S
C284 N282 1.356 . S
C285 C279 1.363 . S
C285 C280 1.379 . S
C285 N283 1.356 . S
N286 C278 1.356 . S
N286 H292 0.984 . S
N286 H293 0.984 . S
N287 C280 1.356 . S
N287 H290 0.984 . S
N287 H291 0.985 . S
H288 N283 0.984 . S
H289 N283 0.985 . S
H290 N287 0.984 . S
H291 N287 0.985 . S
H292 N286 0.984 . S
H293 N286 0.984 . S
H294 N282 0.984 . S
H295 N282 0.985 . S
C296 C297 1.363 . S
C296 C302 1.379 . S
C296 N304 1.356 . S
C297 C296 1.363 . S
C297 C303 1.363 . S
C298 C299 1.363 . S
C298 C303 1.379 . S
C298 N305 1.356 . S
C299 C298 1.363 . S
C299 C302 1.363 . S
N300 C302 1.356 . S
N300 H312 0.984 1_554 S
N300 H313 0.985 . S
N301 C303 1.356 . S
N301 H306 0.984 . S
N301 H307 0.985 . S
C302 C296 1.379 . S
C302 C299 1.363 . S
C302 N300 1.356 . S
C303 C297 1.363 . S
C303 C298 1.379 . S
C303 N301 1.356 . S
N304 C296 1.356 . S
N304 H310 0.984 . S
N304 H311 0.984 . S
N305 C298 1.356 . S
N305 H308 0.984 . S
N305 H309 0.985 . S
H306 N301 0.984 . S
H307 N301 0.985 . S
H308 N305 0.984 . S
H309 N305 0.985 . S
H310 N304 0.984 . S
H311 N304 0.984 . S
H312 N300 0.984 1_556 S
H313 N300 0.985 . S
C314 C315 1.363 1_545 S
C314 C320 1.379 . S
C314 N322 1.356 . S
C315 C314 1.363 1_565 S
C315 C321 1.363 . S
C316 C317 1.363 . S
C316 C321 1.379 . S
C316 N323 1.356 . S
C317 C316 1.363 . S
C317 C320 1.363 1_565 S
N318 C320 1.356 . S
N318 H330 0.984 . S
N318 H331 0.985 . S
N319 C321 1.356 . S
N319 H324 0.984 . S
N319 H325 0.985 . S
C320 C314 1.379 . S
C320 C317 1.363 1_545 S
C320 N318 1.356 . S
C321 C315 1.363 . S
C321 C316 1.379 . S
C321 N319 1.356 . S
N322 C314 1.356 . S
N322 H328 0.984 . S
N322 H329 0.984 . S
N323 C316 1.356 . S
N323 H326 0.984 . S
N323 H327 0.985 . S
H324 N319 0.984 . S
H325 N319 0.985 . S
H326 N323 0.984 . S
H327 N323 0.985 . S
H328 N322 0.984 . S
H329 N322 0.984 . S
H330 N318 0.984 . S
H331 N318 0.985 . S
C332 C333 1.363 . S
C332 C338 1.379 . S
C332 N340 1.356 . S
C333 C332 1.363 . S
C333 C339 1.381 . S
C334 C335 1.362 . S
C334 C339 1.379 . S
C334 N341 1.357 1_556 S
C335 C334 1.362 . S
C335 C338 1.363 . S
N336 C338 1.356 . S
N336 H348 0.984 . S
N336 H349 0.985 . S
N337 C339 1.342 1_554 S
N337 H342 0.984 . S
N337 H343 0.985 . S
C338 C332 1.379 . S
C338 C335 1.363 . S
C338 N336 1.356 . S
C339 C333 1.381 . S
C339 C334 1.379 . S
C339 N337 1.342 1_556 S
N340 C332 1.356 . S
N340 H346 0.984 . S
N340 H347 0.984 . S
N341 C334 1.357 1_554 S
N341 H344 0.984 . S
N341 H345 0.985 . S
H342 N337 0.984 . S
H343 N337 0.985 . S
H344 N341 0.984 . S
H345 N341 0.985 . S
H346 N340 0.984 . S
H347 N340 0.984 . S
H348 N336 0.984 . S
H349 N336 0.985 . S
C350 C351 1.363 . S
C350 C356 1.379 . S
C350 N358 1.356 . S
C351 C350 1.363 . S
C351 C357 1.363 . S
C352 C353 1.363 . S
C352 C357 1.379 . S
C352 N359 1.356 . S
C353 C352 1.363 . S
C353 C356 1.363 . S
N354 C356 1.356 . S
N354 H366 0.984 . S
N354 H367 0.985 . S
N355 C357 1.356 . S
N355 H360 0.984 . S
N355 H361 0.985 . S
C356 C350 1.379 . S
C356 C353 1.363 . S
C356 N354 1.356 . S
C357 C351 1.363 . S
C357 C352 1.379 . S
C357 N355 1.356 . S
N358 C350 1.356 . S
N358 H364 0.984 . S
N358 H365 0.984 . S
N359 C352 1.356 . S
N359 H362 0.984 . S
N359 H363 0.985 . S
H360 N355 0.984 . S
H361 N355 0.985 . S
H362 N359 0.984 . S
H363 N359 0.985 . S
H364 N358 0.984 . S
H365 N358 0.984 . S
H366 N354 0.984 . S
H367 N354 0.985 . S
C368 C369 1.363 . S
C368 C374 1.379 . S
C368 N376 1.356 . S
C369 C368 1.363 . S
C369 C375 1.363 . S
C370 C371 1.363 . S
C370 C375 1.379 . S
C370 N377 1.356 1_554 S
C371 C370 1.363 . S
C371 C374 1.363 . S
N372 C374 1.356 . S
N372 H384 0.984 1_455 S
N372 H385 0.985 . S
N373 C375 1.356 . S
N373 H378 0.984 . S
N373 H379 0.985 1_554 S
C374 C368 1.379 . S
C374 C371 1.363 . S
C374 N372 1.356 . S
C375 C369 1.363 . S
C375 C370 1.379 . S
C375 N373 1.356 . S
N376 C368 1.356 . S
N376 H382 0.979 1_455 S
N376 H383 0.984 . S
N377 C370 1.356 1_556 S
N377 H380 0.984 . S
N377 H381 0.985 . S
H378 N373 0.984 . S
H379 N373 0.985 1_556 S
H380 N377 0.984 . S
H381 N377 0.985 . S
H382 N376 0.979 1_655 S
H383 N376 0.984 . S
H384 N372 0.984 1_655 S
H385 N372 0.985 . S
C386 C387 1.363 . S
C386 C392 1.379 . S
C386 N394 1.356 . S
C387 C386 1.363 . S
C387 C393 1.363 . S
C388 C389 1.363 . S
C388 C393 1.379 . S
C388 N395 1.356 1_556 S
C389 C388 1.363 . S
C389 C392 1.363 . S
N390 C392 1.356 . S
N390 H402 0.984 . S
N390 H403 0.985 . S
N391 C393 1.356 1_554 S
N391 H396 0.984 . S
N391 H397 0.985 . S
C392 C386 1.379 . S
C392 C389 1.363 . S
C392 N390 1.356 . S
C393 C387 1.363 . S
C393 C388 1.379 . S
C393 N391 1.356 1_556 S
N394 C386 1.356 . S
N394 H400 0.984 . S
N394 H401 0.984 . S
N395 C388 1.356 1_554 S
N395 H398 0.984 1_554 S
N395 H399 0.985 . S
H396 N391 0.984 . S
H397 N391 0.985 . S
H398 N395 0.984 1_556 S
H399 N395 0.985 . S
H400 N394 0.984 . S
H401 N394 0.984 . S
H402 N390 0.984 . S
H403 N390 0.985 . S
C404 C405 1.363 . S
C404 C410 1.379 . S
C404 N412 1.356 . S
C405 C404 1.363 . S
C405 C411 1.363 . S
C406 C407 1.363 . S
C406 C411 1.379 . S
C406 N413 1.356 . S
C407 C406 1.363 . S
C407 C410 1.363 . S
N408 C410 1.356 . S
N408 H420 0.984 . S
N408 H421 0.985 . S
N409 C411 1.356 . S
N409 H414 0.984 . S
N409 H415 0.985 . S
C410 C404 1.379 . S
C410 C407 1.363 . S
C410 N408 1.356 . S
C411 C405 1.363 . S
C411 C406 1.379 . S
C411 N409 1.356 . S
N412 C404 1.356 . S
N412 H418 0.984 . S
N412 H419 0.984 . S
N413 C406 1.356 . S
N413 H416 0.984 . S
N413 H417 0.985 . S
H414 N409 0.984 . S
H415 N409 0.985 . S
H416 N413 0.984 . S
H417 N413 0.985 . S
H418 N412 0.984 . S
H419 N412 0.984 . S
H420 N408 0.984 . S
H421 N408 0.985 . S
C422 C423 1.363 . S
C422 C428 1.379 . S
C422 N430 1.356 . S
C423 C422 1.363 . S
C423 C429 1.363 . S
C424 C425 1.363 . S
C424 C429 1.379 . S
C424 N431 1.356 . S
C425 C424 1.363 . S
C425 C428 1.363 . S
N426 C428 1.356 . S
N426 H438 0.984 . S
N426 H439 0.985 . S
N427 C429 1.356 . S
N427 H432 0.984 . S
N427 H433 0.985 . S
C428 C422 1.379 . S
C428 C425 1.363 . S
C428 N426 1.356 . S
C429 C423 1.363 . S
C429 C424 1.379 . S
C429 N427 1.356 . S
N430 C422 1.356 . S
N430 H436 0.984 . S
N430 H437 0.984 . S
N431 C424 1.356 . S
N431 H434 0.984 . S
N431 H435 0.985 . S
H432 N427 0.984 . S
H433 N427 0.985 . S
H434 N431 0.984 . S
H435 N431 0.985 . S
H436 N430 0.984 . S
H437 N430 0.984 . S
H438 N426 0.984 . S
H439 N426 0.985 . S
C440 C441 1.349 1_545 S
C440 C446 1.384 . S
C440 N448 1.362 . S
C441 C440 1.349 1_565 S
C441 C447 1.363 . S
C442 C443 1.363 . S
C442 C447 1.379 . S
C442 N449 1.356 . S
C443 C442 1.363 . S
C443 C446 1.363 1_565 S
N444 C446 1.356 . S
N444 H456 0.984 . S
N444 H457 0.985 . S
N445 C447 1.356 . S
N445 H450 0.984 . S
N445 H451 0.985 . S
C446 C440 1.384 . S
C446 C443 1.363 1_545 S
C446 N444 1.356 . S
C447 C441 1.363 . S
C447 C442 1.379 . S
C447 N445 1.356 . S
N448 C440 1.362 . S
N448 H454 0.984 . S
N448 H455 0.984 1_545 S
N449 C442 1.356 . S
N449 H452 0.984 . S
N449 H453 0.985 1_655 S
H450 N445 0.984 . S
H451 N445 0.985 . S
H452 N449 0.984 . S
H453 N449 0.985 1_455 S
H454 N448 0.984 . S
H455 N448 0.984 1_565 S
H456 N444 0.984 . S
H457 N444 0.985 . S
C458 C459 1.363 . S
C458 C464 1.379 . S
C458 N466 1.356 . S
C459 C458 1.363 . S
C459 C465 1.363 . S
C460 C461 1.363 . S
C460 C465 1.379 . S
C460 N467 1.356 . S
C461 C460 1.363 . S
C461 C464 1.363 . S
N462 C464 1.356 . S
N462 H474 0.984 . S
N462 H475 0.985 . S
N463 C465 1.356 . S
N463 H468 0.984 . S
N463 H469 0.985 . S
C464 C458 1.379 . S
C464 C461 1.363 . S
C464 N462 1.356 . S
C465 C459 1.363 . S
C465 C460 1.379 . S
C465 N463 1.356 . S
N466 C458 1.356 . S
N466 H472 0.984 . S
N466 H473 0.984 . S
N467 C460 1.356 . S
N467 H470 0.984 . S
N467 H471 0.985 . S
H468 N463 0.984 . S
H469 N463 0.985 . S
H470 N467 0.984 . S
H471 N467 0.985 . S
H472 N466 0.984 . S
H473 N466 0.984 . S
H474 N462 0.984 . S
H475 N462 0.985 . S
C476 C477 1.363 . S
C476 C482 1.379 . S
C476 N484 1.356 . S
C477 C476 1.363 . S
C477 C483 1.363 . S
C478 C479 1.363 . S
C478 C483 1.379 . S
C478 N485 1.356 . S
C479 C478 1.363 . S
C479 C482 1.363 . S
N480 C482 1.356 . S
N480 H492 0.984 . S
N480 H493 0.985 . S
N481 C483 1.356 . S
N481 H486 0.984 . S
N481 H487 0.985 . S
C482 C476 1.379 . S
C482 C479 1.363 . S
C482 N480 1.356 . S
C483 C477 1.363 . S
C483 C478 1.379 . S
C483 N481 1.356 . S
N484 C476 1.356 . S
N484 H490 0.984 . S
N484 H491 0.984 . S
N485 C478 1.356 . S
N485 H488 0.984 . S
N485 H489 0.985 . S
H486 N481 0.984 . S
H487 N481 0.985 . S
H488 N485 0.984 . S
H489 N485 0.985 . S
H490 N484 0.984 . S
H491 N484 0.984 . S
H492 N480 0.984 . S
H493 N480 0.985 . S
C494 C495 1.363 . S
C494 C500 1.379 . S
C494 N502 1.356 . S
C495 C494 1.363 . S
C495 C501 1.363 . S
C496 C497 1.363 . S
C496 C501 1.379 . S
C496 N503 1.356 . S
C497 C496 1.363 . S
C497 C500 1.363 . S
N498 C500 1.356 . S
N498 H510 0.984 . S
N498 H511 0.985 . S
N499 C501 1.356 . S
N499 H504 0.984 . S
N499 H505 0.985 . S
C500 C494 1.379 . S
C500 C497 1.363 . S
C500 N498 1.356 . S
C501 C495 1.363 . S
C501 C496 1.379 . S
C501 N499 1.356 . S
N502 C494 1.356 . S
N502 H508 0.984 . S
N502 H509 0.984 . S
N503 C496 1.356 . S
N503 H506 0.984 . S
N503 H507 0.985 . S
H504 N499 0.984 . S
H505 N499 0.985 . S
H506 N503 0.984 . S
H507 N503 0.985 . S
H508 N502 0.984 . S
H509 N502 0.984 . S
H510 N498 0.984 . S
H511 N498 0.985 . S
C512 C513 1.363 . S
C512 C518 1.379 . S
C512 N520 1.356 . S
C513 C512 1.363 . S
C513 C519 1.363 1_565 S
C514 C515 1.363 1_545 S
C514 C519 1.379 . S
C514 N521 1.356 . S
C515 C514 1.363 1_565 S
C515 C518 1.363 . S
N516 C518 1.356 . S
N516 H528 0.984 . S
N516 H529 0.985 . S
N517 C519 1.356 . S
N517 H522 0.984 . S
N517 H523 0.985 . S
C518 C512 1.379 . S
C518 C515 1.363 . S
C518 N516 1.356 . S
C519 C513 1.363 1_545 S
C519 C514 1.379 . S
C519 N517 1.356 . S
N520 C512 1.356 . S
N520 H526 0.984 . S
N520 H527 0.984 . S
N521 C514 1.356 . S
N521 H524 0.984 . S
N521 H525 0.985 . S
H522 N517 0.984 . S
H523 N517 0.985 . S
H524 N521 0.984 . S
H525 N521 0.985 . S
H526 N520 0.984 . S
H527 N520 0.984 . S
H528 N516 0.984 . S
H529 N516 0.985 . S
C530 C531 1.363 . S
C530 C536 1.379 . S
C530 N538 1.356 . S
C531 C530 1.363 . S
C531 C537 1.363 . S
C532 C533 1.363 . S
C532 C537 1.379 . S
C532 N539 1.356 . S
C533 C532 1.363 . S
C533 C536 1.363 . S
N534 C536 1.356 . S
N534 H546 0.984 . S
N534 H547 0.985 . S
N535 C537 1.356 . S
N535 H540 0.984 . S
N535 H541 0.985 . S
C536 C530 1.379 . S
C536 C533 1.363 . S
C536 N534 1.356 . S
C537 C531 1.363 . S
C537 C532 1.379 . S
C537 N535 1.356 . S
N538 C530 1.356 . S
N538 H544 0.984 . S
N538 H545 0.984 . S
N539 C532 1.356 . S
N539 H542 0.984 . S
N539 H543 0.985 1_545 S
H540 N535 0.984 . S
H541 N535 0.985 . S
H542 N539 0.984 . S
H543 N539 0.985 1_565 S
H544 N538 0.984 . S
H545 N538 0.984 . S
H546 N534 0.984 . S
H547 N534 0.985 . S
C548 C549 1.363 . S
C548 C554 1.379 . S
C548 N556 1.356 . S
C549 C548 1.363 . S
C549 C555 1.363 . S
C550 C551 1.363 . S
C550 C555 1.379 . S
C550 N557 1.356 . S
C551 C550 1.363 . S
C551 C554 1.363 . S
N552 C554 1.356 . S
N552 H564 0.984 . S
N552 H565 0.985 . S
N553 C555 1.356 . S
N553 H558 0.984 . S
N553 H559 0.985 . S
C554 C548 1.379 . S
C554 C551 1.363 . S
C554 N552 1.356 . S
C555 C549 1.363 . S
C555 C550 1.379 . S
C555 N553 1.356 . S
N556 C548 1.356 . S
N556 H562 0.984 . S
N556 H563 0.984 . S
N557 C550 1.356 . S
N557 H560 0.984 . S
N557 H561 0.985 1_554 S
H558 N553 0.984 . S
H559 N553 0.985 . S
H560 N557 0.984 . S
H561 N557 0.985 1_556 S
H562 N556 0.984 . S
H563 N556 0.984 . S
H564 N552 0.984 . S
H565 N552 0.985 . S
C566 C567 1.363 . S
C566 C572 1.379 . S
C566 N574 1.356 . S
C567 C566 1.363 . S
C567 C573 1.363 . S
C568 C569 1.363 . S
C568 C573 1.379 . S
C568 N575 1.356 . S
C569 C568 1.363 . S
C569 C572 1.363 . S
N570 C572 1.356 . S
N570 H582 0.984 . S
N570 H583 0.985 . S
N571 C573 1.356 . S
N571 H576 0.984 . S
N571 H577 0.985 . S
C572 C566 1.379 . S
C572 C569 1.363 . S
C572 N570 1.356 . S
C573 C567 1.363 . S
C573 C568 1.379 . S
C573 N571 1.356 . S
N574 C566 1.356 . S
N574 H580 0.984 . S
N574 H581 0.984 . S
N575 C568 1.356 . S
N575 H578 0.984 . S
N575 H579 0.985 . S
H576 N571 0.984 . S
H577 N571 0.985 . S
H578 N575 0.984 . S
H579 N575 0.985 . S
H580 N574 0.984 . S
H581 N574 0.984 . S
H582 N570 0.984 . S
H583 N570 0.985 . S
C584 C585 1.363 . S
C584 C590 1.379 . S
C584 N592 1.356 . S
C585 C584 1.363 . S
C585 C591 1.363 . S
C586 C587 1.363 . S
C586 C591 1.379 . S
C586 N593 1.356 . S
C587 C586 1.363 . S
C587 C590 1.363 . S
N588 C590 1.356 1_454 S
N588 H600 0.984 . S
N588 H601 0.985 . S
N589 C591 1.356 . S
N589 H594 0.984 . S
N589 H595 0.985 . S
C590 C584 1.379 . S
C590 C587 1.363 . S
C590 N588 1.356 1_656 S
C591 C585 1.363 . S
C591 C586 1.379 . S
C591 N589 1.356 . S
N592 C584 1.356 . S
N592 H598 0.984 . S
N592 H599 0.984 . S
N593 C586 1.356 . S
N593 H596 0.984 . S
N593 H597 0.985 . S
H594 N589 0.984 . S
H595 N589 0.985 . S
H596 N593 0.984 . S
H597 N593 0.985 . S
H598 N592 0.984 . S
H599 N592 0.984 . S
H600 N588 0.984 . S
H601 N588 0.985 . S
C602 C603 1.363 . S
C602 C608 1.379 . S
C602 N610 1.356 . S
C603 C602 1.363 . S
C603 C609 1.363 . S
C604 C605 1.363 . S
C604 C609 1.379 . S
C604 N611 1.356 . S
C605 C604 1.363 . S
C605 C608 1.363 . S
N606 C608 1.356 . S
N606 H618 0.984 . S
N606 H619 0.985 . S
N607 C609 1.356 . S
N607 H612 0.984 . S
N607 H613 0.985 . S
C608 C602 1.379 . S
C608 C605 1.363 . S
C608 N606 1.356 . S
C609 C603 1.363 . S
C609 C604 1.379 . S
C609 N607 1.356 . S
N610 C602 1.356 . S
N610 H616 0.984 . S
N610 H617 0.984 . S
N611 C604 1.356 . S
N611 H614 0.984 . S
N611 H615 0.985 . S
H612 N607 0.984 . S
H613 N607 0.985 . S
H614 N611 0.984 . S
H615 N611 0.985 . S
H616 N610 0.984 . S
H617 N610 0.984 . S
H618 N606 0.984 . S
H619 N606 0.985 . S
C620 C621 1.363 . S
C620 C626 1.379 . S
C620 N628 1.356 . S
C621 C620 1.363 . S
C621 C627 1.363 . S
C622 C623 1.363 . S
C622 C627 1.379 . S
C622 N629 1.356 . S
C623 C622 1.363 . S
C623 C626 1.363 . S
N624 C626 1.356 . S
N624 H636 0.984 . S
N624 H637 0.985 . S
N625 C627 1.356 . S
N625 H630 0.984 . S
N625 H631 0.985 . S
C626 C620 1.379 . S
C626 C623 1.363 . S
C626 N624 1.356 . S
C627 C621 1.363 . S
C627 C622 1.379 . S
C627 N625 1.356 . S
N628 C620 1.356 . S
N628 H634 0.984 . S
N628 H635 0.984 . S
N629 C622 1.356 . S
N629 H632 0.984 . S
N629 H633 0.985 . S
H630 N625 0.984 . S
H631 N625 0.985 . S
H632 N629 0.984 . S
H633 N629 0.985 . S
H634 N628 0.984 . S
H635 N628 0.984 . S
H636 N624 0.984 . S
H637 N624 0.985 . S
C638 C639 1.363 . S
C638 C644 1.379 . S
C638 N646 1.356 . S
C639 C638 1.363 . S
C639 C645 1.363 . S
C640 C641 1.363 . S
C640 C645 1.379 . S
C640 N647 1.356 . S
C641 C640 1.363 . S
C641 C644 1.363 . S
N642 C644 1.356 . S
N642 H654 0.984 . S
N642 H655 0.985 . S
N643 C645 1.356 . S
N643 H648 0.984 . S
N643 H649 0.985 . S
C644 C638 1.379 . S
C644 C641 1.363 . S
C644 N642 1.356 . S
C645 C639 1.363 . S
C645 C640 1.379 . S
C645 N643 1.356 . S
N646 C638 1.356 . S
N646 H652 0.984 . S
N646 H653 0.984 . S
N647 C640 1.356 . S
N647 H650 0.984 . S
N647 H651 0.985 . S
H648 N643 0.984 . S
H649 N643 0.985 . S
H650 N647 0.984 . S
H651 N647 0.985 . S
H652 N646 0.984 . S
H653 N646 0.984 . S
H654 N642 0.984 . S
H655 N642 0.985 . S
C225 C6 2.491 . S
C227 C88 2.497 . S
C243 C20 2.581 . S
C245 C130 2.588 1_565 S
C263 C160 0.817 . S
C261 N26 0.818 . S
C279 N37 0.999 . S
C281 C194 1.026 . S
C299 C151 2.178 . S
C297 C9 2.170 . S
C317 C105 1.694 1_565 S
C315 N15 1.682 . S
C335 C198 1.175 . S
C333 C31 1.165 . S
C353 C164 1.182 . S
C351 C39 1.167 . S
C369 N4 2.185 . S
C371 C219 2.212 . S
C389 C126 1.266 . S
C387 C28 1.228 . S
C405 C42 1.067 . S
C407 C101 1.078 . S
C423 C17 2.331 . S
C425 C185 2.347 . S
C443 C117 2.592 1_565 S
C441 C50 2.581 . S
C459 C61 2.371 . S
C461 C139 2.396 . S
C477 N70 1.010 . S
C479 C169 1.011 . S
C495 N81 0.887 . S
C497 C203 0.892 . S
C513 N48 1.692 . S
C515 C122 1.718 1_565 S
C533 C96 2.132 . S
C531 C64 2.115 . S
C551 C207 1.081 . S
C549 C75 1.057 . S
C569 C173 1.196 . S
C567 C86 1.185 . S
C585 C53 2.469 . S
C587 C190 2.466 . S
C605 C135 1.045 . S
C603 C72 1.032 . S
C623 C92 1.224 . S
C621 C83 1.192 . S
C639 N59 2.144 . S
C641 C156 2.159 . S
