# Generated by pormake.
# Topology zzz, (3,6)-cn, num edge types: 1
# Building blocks:
#     Node 0, Type 0, BuildingBlock: BELTOD_clean_linker_0, # of connection points: 3
#     Node 1, Type 0, BuildingBlock: BELTOD_clean_linker_0, # of connection points: 3
#     Node 2, Type 0, BuildingBlock: BELTOD_clean_linker_0, # of connection points: 3
#     Node 3, Type 0, BuildingBlock: BELTOD_clean_linker_0, # of connection points: 3
#     Node 4, Type 0, BuildingBlock: BELTOD_clean_linker_0, # of connection points: 3
#     Node 5, Type 0, BuildingBlock: BELTOD_clean_linker_0, # of connection points: 3
#     Node 6, Type 0, BuildingBlock: BELTOD_clean_linker_0, # of connection points: 3
#     Node 7, Type 0, BuildingBlock: BELTOD_clean_linker_0, # of connection points: 3
#     Node 8, Type 1, BuildingBlock: BETDIP_clean_sbu_0, # of connection points: 6
#     Node 9, Type 1, BuildingBlock: BETDIP_clean_sbu_0, # of connection points: 6
#     Node 10, Type 1, BuildingBlock: BETDIP_clean_sbu_0, # of connection points: 6
#     Node 11, Type 1, BuildingBlock: BETDIP_clean_sbu_0, # of connection points: 6
#     Edge 12, Type (0, 1), BuildingBlock: MIFKUJ_clean_linker_0, # of connection points: 2
#     Edge 13, Type (0, 1), BuildingBlock: MIFKUJ_clean_linker_0, # of connection points: 2
#     Edge 14, Type (0, 1), BuildingBlock: MIFKUJ_clean_linker_0, # of connection points: 2
#     Edge 15, Type (0, 1), BuildingBlock: MIFKUJ_clean_linker_0, # of connection points: 2
#     Edge 16, Type (0, 1), BuildingBlock: MIFKUJ_clean_linker_0, # of connection points: 2
#     Edge 17, Type (0, 1), BuildingBlock: MIFKUJ_clean_linker_0, # of connection points: 2
#     Edge 18, Type (0, 1), BuildingBlock: MIFKUJ_clean_linker_0, # of connection points: 2
#     Edge 19, Type (0, 1), BuildingBlock: MIFKUJ_clean_linker_0, # of connection points: 2
#     Edge 20, Type (0, 1), BuildingBlock: MIFKUJ_clean_linker_0, # of connection points: 2
#     Edge 21, Type (0, 1), BuildingBlock: MIFKUJ_clean_linker_0, # of connection points: 2
#     Edge 22, Type (0, 1), BuildingBlock: MIFKUJ_clean_linker_0, # of connection points: 2
#     Edge 23, Type (0, 1), BuildingBlock: MIFKUJ_clean_linker_0, # of connection points: 2
#     Edge 24, Type (0, 1), BuildingBlock: MIFKUJ_clean_linker_0, # of connection points: 2
#     Edge 25, Type (0, 1), BuildingBlock: MIFKUJ_clean_linker_0, # of connection points: 2
#     Edge 26, Type (0, 1), BuildingBlock: MIFKUJ_clean_linker_0, # of connection points: 2
#     Edge 27, Type (0, 1), BuildingBlock: MIFKUJ_clean_linker_0, # of connection points: 2
#     Edge 28, Type (0, 1), BuildingBlock: MIFKUJ_clean_linker_0, # of connection points: 2
#     Edge 29, Type (0, 1), BuildingBlock: MIFKUJ_clean_linker_0, # of connection points: 2
#     Edge 30, Type (0, 1), BuildingBlock: MIFKUJ_clean_linker_0, # of connection points: 2
#     Edge 31, Type (0, 1), BuildingBlock: MIFKUJ_clean_linker_0, # of connection points: 2
#     Edge 32, Type (0, 1), BuildingBlock: MIFKUJ_clean_linker_0, # of connection points: 2
#     Edge 33, Type (0, 1), BuildingBlock: MIFKUJ_clean_linker_0, # of connection points: 2
#     Edge 34, Type (0, 1), BuildingBlock: MIFKUJ_clean_linker_0, # of connection points: 2
#     Edge 35, Type (0, 1), BuildingBlock: MIFKUJ_clean_linker_0, # of connection points: 2
# Relax obj value: 0.390
# Max RMSD: 0.254
# Mean RMSD: 0.231
data_MOF--net-zzz--node1-BETDIP_clean_sbu_0--node2-BELTOD_clean_linker_0--edge1-MIFKUJ_clean_linker_0
_symmetry_space_group_name_H-M    P1
_symmetry_Int_Tables_number       1
_symmetry_cell_setting            triclinic
loop_
_symmetry_equiv_pos_as_xyz
'x, y, z'
_cell_length_a     70.754888
_cell_length_b     70.756282
_cell_length_c     21.692162
_cell_angle_alpha  89.922275
_cell_angle_beta   89.95865
_cell_angle_gamma 89.984857
loop_
_atom_site_label
_atom_site_type_symbol
_atom_site_fract_x
_atom_site_fract_y
_atom_site_fract_z
_atom_type_partial_charge
P0 P 0.71913 0.47672 0.35981 0.0
H1 H 0.73726 0.46749 0.47596 0.0
H2 H 0.76715 0.47644 0.5189 0.0
H3 H 0.77117 0.52227 0.38705 0.0
H4 H 0.74173 0.51174 0.34022 0.0
H5 H 0.68168 0.46228 0.33637 0.0
H6 H 0.65583 0.47274 0.27205 0.0
H7 H 0.6848 0.52548 0.23851 0.0
H8 H 0.71099 0.51479 0.30408 0.0
H9 H 0.74117 0.44206 0.34915 0.0
H10 H 0.72874 0.49085 0.23679 0.0
O11 O 0.71123 0.45873 0.4026 0.0
H12 H 0.7648 0.43186 0.27388 0.0
H13 H 0.75232 0.48096 0.16236 0.0
C14 C 0.73672 0.48914 0.40534 0.0
C15 C 0.74416 0.47987 0.45715 0.0
C16 C 0.76158 0.48513 0.48214 0.0
C17 C 0.77216 0.50016 0.4569 0.0
C18 C 0.76396 0.51033 0.40748 0.0
C19 C 0.74666 0.50467 0.38137 0.0
C20 C 0.69835 0.48778 0.32627 0.0
C21 C 0.68235 0.4764 0.31717 0.0
C22 C 0.66744 0.48241 0.27991 0.0
C23 C 0.66812 0.49998 0.24975 0.0
C24 C 0.68385 0.51179 0.26062 0.0
C25 C 0.6988 0.50576 0.29874 0.0
C26 C 0.73287 0.46699 0.298 0.0
C27 C 0.74308 0.45026 0.30744 0.0
C28 C 0.75668 0.44454 0.26469 0.0
C29 C 0.7604 0.45561 0.21219 0.0
C30 C 0.74954 0.47192 0.20166 0.0
C31 C 0.736 0.47762 0.24442 0.0
P32 P 0.02701 0.71957 0.31345 0.0
H33 H 0.0204 0.72809 0.44393 0.0
H34 H 0.0114 0.75736 0.49572 0.0
H35 H 0.99685 0.78202 0.31971 0.0
H36 H 0.00535 0.75249 0.26859 0.0
H37 H 0.04036 0.68124 0.30055 0.0
H38 H 0.02934 0.65469 0.24054 0.0
H39 H 0.97718 0.68433 0.20277 0.0
H40 H 0.98875 0.71142 0.26295 0.0
H41 H 0.05791 0.7465 0.30148 0.0
H42 H 0.01984 0.71701 0.17947 0.0
O43 O 0.04433 0.713 0.36113 0.0
H44 H 0.06991 0.76479 0.21386 0.0
H45 H 0.03189 0.73491 0.09261 0.0
C46 C 0.01377 0.73806 0.35218 0.0
C47 C 0.01469 0.73956 0.4166 0.0
C48 C 0.00979 0.75649 0.44616 0.0
C49 C 0.00384 0.77235 0.41195 0.0
C50 C 1.00136 0.7702 0.34784 0.0
C51 C 0.00621 0.75322 0.31836 0.0
C52 C 0.01527 0.69826 0.28752 0.0
C53 C 0.02623 0.68185 0.28154 0.0
C54 C 0.01986 0.66655 0.24674 0.0
C55 C 1.00231 0.6672 0.21637 0.0
C56 C 0.99084 0.68333 0.22498 0.0
C57 C 0.99728 0.69873 0.26028 0.0
C58 C 0.03806 0.7303 0.24729 0.0
C59 C 0.0525 0.74359 0.25577 0.0
C60 C 0.0594 0.75396 0.20568 0.0
C61 C 0.05179 0.75126 0.14649 0.0
C62 C 0.03791 0.73735 0.13781 0.0
C63 C 0.03104 0.72703 0.18777 0.0
P64 P 0.78554 0.0297 0.32541 0.0
H65 H 0.77079 0.03904 0.44758 0.0
H66 H 0.74108 0.03193 0.49763 0.0
H67 H 0.72897 0.99025 0.35737 0.0
H68 H 0.7584 0.99856 0.30505 0.0
H69 H 0.82595 0.03713 0.32907 0.0
H70 H 0.85194 0.02401 0.27088 0.0
H71 H 0.81617 0.97808 0.21095 0.0
H72 H 0.78976 0.9918 0.26868 0.0
H73 H 0.75047 0.0501 0.30488 0.0
H74 H 0.79599 0.02833 0.19261 0.0
O75 O 0.79349 0.04885 0.36198 0.0
H76 H 0.7332 0.05885 0.21181 0.0
H77 H 0.77858 0.03679 0.09973 0.0
C78 C 0.7671 0.01922 0.37262 0.0
C79 C 0.76204 0.028 0.4282 0.0
C80 C 0.74485 0.02384 0.45716 0.0
C81 C 0.73222 0.01058 0.43172 0.0
C82 C 0.73797 1.00086 0.37802 0.0
C83 C 0.75511 0.00527 0.34855 0.0
C84 C 0.80579 0.01544 0.30399 0.0
C85 C 0.82374 0.02384 0.3055 0.0
C86 C 0.83875 0.01626 0.27178 0.0
C87 C 0.83624 1.00002 0.23534 0.0
C88 C 0.81859 0.99076 0.23764 0.0
C89 C 0.80351 0.99841 0.27166 0.0
C90 C 0.77422 0.03796 0.25606 0.0
C91 C 0.75682 0.0473 0.26037 0.0
C92 C 0.74705 0.05246 0.20715 0.0
C93 C 0.75458 0.04842 0.14864 0.0
C94 C 0.77243 0.03988 0.14433 0.0
C95 C 0.78229 0.0349 0.19768 0.0
P96 P 0.46779 0.78465 0.32753 0.0
H97 H 0.46068 0.76993 0.45116 0.0
H98 H 0.47058 0.74122 0.50188 0.0
H99 H 0.51255 0.7322 0.35977 0.0
H100 H 0.50147 0.76064 0.30673 0.0
H101 H 0.45254 0.82238 0.31353 0.0
H102 H 0.46285 0.8495 0.25422 0.0
H103 H 0.51675 0.82257 0.22233 0.0
H104 H 0.50652 0.79547 0.28508 0.0
H105 H 0.43582 0.76003 0.29965 0.0
H106 H 0.48526 0.78083 0.20475 0.0
O107 O 0.44793 0.79032 0.36486 0.0
H108 H 0.42787 0.74078 0.20972 0.0
H109 H 0.47708 0.76233 0.11484 0.0
C110 C 0.48032 0.76764 0.37494 0.0
C111 C 0.47235 0.76211 0.43139 0.0
C112 C 0.47815 0.74549 0.46082 0.0
C113 C 0.49232 0.73394 0.43508 0.0
C114 C 0.50128 0.74031 0.38061 0.0
C115 C 0.49522 0.75688 0.35064 0.0
C116 C 0.47869 0.80672 0.30389 0.0
C117 C 0.46687 0.82246 0.29601 0.0
C118 C 0.4727 0.83795 0.261 0.0
C119 C 0.49041 0.83802 0.23169 0.0
C120 C 0.50296 0.82298 0.24397 0.0
C121 C 0.49715 0.80747 0.28009 0.0
C122 C 0.46093 0.77221 0.25878 0.0
C123 C 0.44471 0.76083 0.25908 0.0
C124 C 0.44013 0.74992 0.20753 0.0
C125 C 0.45182 0.7501 0.15506 0.0
C126 C 0.46785 0.76179 0.15466 0.0
C127 C 0.47246 0.77257 0.20619 0.0
P128 P 0.288 0.46646 0.03825 0.0
H129 H 0.28127 0.47018 0.90479 0.0
H130 H 0.2536 0.48073 0.84738 0.0
H131 H 0.22931 0.5023 0.01635 0.0
H132 H 0.2576 0.49294 0.07189 0.0
H133 H 0.32746 0.45475 0.04442 0.0
H134 H 0.35335 0.46448 0.11058 0.0
H135 H 0.32045 0.51223 0.1726 0.0
H136 H 0.29432 0.50226 0.10554 0.0
H137 H 0.25194 0.44678 0.04274 0.0
H138 H 0.2938 0.46527 0.17428 0.0
O139 O 0.29477 0.44812 0.99524 0.0
H140 H 0.22893 0.44349 0.12607 0.0
H141 H 0.27081 0.46251 0.25674 0.0
C142 C 0.27153 0.48053 0.99298 0.0
C143 C 0.27029 0.47782 0.92904 0.0
C144 C 0.25415 0.48357 0.89634 0.0
C145 C 0.23863 0.49189 0.92697 0.0
C146 C 0.24074 0.49603 0.99029 0.0
C147 C 0.25707 0.49065 0.02256 0.0
C148 C 0.30893 0.47788 0.0691 0.0
C149 C 0.32598 0.46774 0.07025 0.0
C150 C 0.34087 0.47331 0.10859 0.0
C151 C 0.33902 0.48907 0.14761 0.0
C152 C 0.32232 0.4999 0.14371 0.0
C153 C 0.30745 0.49441 0.10458 0.0
C154 C 0.2743 0.45718 0.1016 0.0
C155 C 0.25637 0.44963 0.08961 0.0
C156 C 0.24321 0.44781 0.1372 0.0
C157 C 0.24794 0.45331 0.1975 0.0
C158 C 0.2667 0.45834 0.21063 0.0
C159 C 0.27982 0.46021 0.16296 0.0
P160 P 0.05076 0.28368 0.02884 0.0
H161 H 0.05977 0.26893 0.90629 0.0
H162 H 0.0499 0.23981 0.85601 0.0
H163 H 0.00441 0.23383 0.98711 0.0
H164 H 0.01448 0.26311 0.03797 0.0
H165 H 0.0714 0.31651 0.06838 0.0
H166 H 0.06254 0.34435 0.12548 0.0
H167 H 0.00353 0.33048 0.10056 0.0
H168 H 0.01282 0.30183 0.04387 0.0
H169 H 0.0728 0.25047 0.06164 0.0
H170 H 0.03068 0.28588 0.14764 0.0
O171 O 0.07273 0.28597 1.0017 0.0
H172 H 0.0702 0.22807 0.14732 0.0
H173 H 0.02782 0.26365 0.23167 0.0
C174 C 0.03794 0.26837 0.97628 0.0
C175 C 0.04723 0.26185 0.92314 0.0
C176 C 0.04171 0.24497 0.8947 0.0
C177 C 0.02663 0.23423 0.91832 0.0
C178 C 0.01611 0.24173 0.96775 0.0
C179 C 0.02176 0.25862 0.99657 0.0
C180 C 0.04282 0.30714 0.05053 0.0
C181 C 0.0565 0.31972 0.07291 0.0
C182 C 0.05135 0.3358 0.10606 0.0
C183 C 0.03225 0.33989 0.11821 0.0
C184 C 0.0184 0.32777 0.09286 0.0
C185 C 0.02365 0.31152 0.05937 0.0
C186 C 0.05216 0.26999 0.09843 0.0
C187 C 0.06343 0.25372 0.09968 0.0
C188 C 0.06181 0.24087 0.14832 0.0
C189 C 0.04877 0.2441 0.19612 0.0
C190 C 0.03823 0.26091 0.19616 0.0
C191 C 0.03984 0.27368 0.14761 0.0
P192 P 0.227 0.04403 0.08555 0.0
H193 H 0.24211 0.06375 0.97752 0.0
H194 H 0.26829 0.05587 0.90946 0.0
H195 H 0.26803 0.99868 0.97918 0.0
H196 H 0.24135 0.00662 0.04651 0.0
H197 H 0.19276 0.06705 0.09217 0.0
H198 H 0.16278 0.06094 0.14336 0.0
H199 H 0.17656 1.00163 0.15469 0.0
H200 H 0.20683 0.00785 0.10295 0.0
H201 H 0.26673 0.03489 0.11007 0.0
H202 H 0.21446 0.03615 0.21301 0.0
O203 O 0.22882 0.06754 0.08774 0.0
H204 H 0.28265 0.02076 0.19817 0.0
H205 H 0.23047 0.02199 0.30144 0.0
C206 C 0.23985 0.03588 0.01805 0.0
C207 C 0.24716 0.04932 0.97683 0.0
C208 C 0.2624 0.04484 0.93833 0.0
C209 C 0.27077 0.0268 0.94016 0.0
C210 C 0.26207 0.01275 0.97662 0.0
C211 C 0.24666 0.01724 0.01496 0.0
C212 C 0.20223 0.03794 0.09392 0.0
C213 C 0.18914 0.05258 0.10325 0.0
C214 C 0.172 0.04911 0.13329 0.0
C215 C 0.16749 0.03089 0.15452 0.0
C216 C 0.17963 0.01584 0.13901 0.0
C217 C 0.19689 0.01936 0.10885 0.0
C218 C 0.23908 0.03545 0.15322 0.0
C219 C 0.25854 0.03183 0.15103 0.0
C220 C 0.26767 0.02379 0.20153 0.0
C221 C 0.25761 0.01973 0.25581 0.0
C222 C 0.23844 0.02466 0.25969 0.0
C223 C 0.22927 0.03259 0.20882 0.0
P224 P 0.45852 0.22118 0.02529 0.0
H225 H 0.45376 0.23608 0.90081 0.0
H226 H 0.46564 0.26465 0.85368 0.0
H227 H 0.5075 0.26949 0.99792 0.0
H228 H 0.49467 0.24115 0.04686 0.0
H229 H 0.43833 0.18889 0.07117 0.0
H230 H 0.44665 0.16312 0.1401 0.0
H231 H 0.50503 0.18071 0.13551 0.0
H232 H 0.49653 0.20679 0.06515 0.0
H233 H 0.42839 0.24927 0.03444 0.0
H234 H 0.47439 0.22893 0.14671 0.0
O235 O 0.43929 0.21544 0.98487 0.0
H236 H 0.42379 0.2757 0.1054 0.0
H237 H 0.47043 0.25537 0.21595 0.0
C238 C 0.47334 0.23615 0.97743 0.0
C239 C 0.46596 0.24279 0.92137 0.0
C240 C 0.47284 0.25937 0.8942 0.0
C241 C 0.48743 0.26984 0.92213 0.0
C242 C 0.49594 0.26221 0.97554 0.0
C243 C 0.48889 0.24564 0.00304 0.0
C244 C 0.46681 0.1997 0.06205 0.0
C245 C 0.45305 0.18698 0.08326 0.0
C246 C 0.45778 0.17233 0.12344 0.0
C247 C 0.47645 0.17 0.14399 0.0
C248 C 0.49052 0.18212 0.12032 0.0
C249 C 0.4857 0.19699 0.07994 0.0
C250 C 0.45152 0.23696 0.08581 0.0
C251 C 0.43708 0.25013 0.0754 0.0
C252 C 0.43462 0.26535 0.11564 0.0
C253 C 0.44681 0.26776 0.16624 0.0
C254 C 0.46052 0.25384 0.17829 0.0
C255 C 0.46286 0.23863 0.13839 0.0
Tb256 Tb 0.01431 0.99617 0.74765 0.0
Tb257 Tb 0.98971 0.00616 0.64254 0.0
C258 C 0.02748 0.9804 0.84171 0.0
C259 C 0.03518 0.96145 0.85229 0.0
C260 C 0.03084 0.95196 0.90716 0.0
C261 C 0.03642 0.93322 0.91541 0.0
C262 C 0.04652 0.92377 0.86896 0.0
C263 C 0.05128 0.93341 0.8146 0.0
C264 C 0.0455 0.9521 0.80606 0.0
C265 C 0.03278 0.00736 0.64841 0.0
C266 C 0.99943 0.9635 0.65479 0.0
C267 C 0.978 0.02282 0.54838 0.0
C268 C 0.98307 0.04192 0.52778 0.0
C269 C 1.00091 0.04931 0.54276 0.0
C270 C 0.00506 0.0682 0.53145 0.0
C271 C 0.99163 0.08005 0.50351 0.0
C272 C 0.97392 0.07249 0.48702 0.0
C273 C 0.96963 0.05357 0.49951 0.0
C274 C 0.97128 0.99512 0.74175 0.0
C275 C 0.00509 0.0384 0.7339 0.0
O276 O 0.00941 0.98087 0.82884 0.0
O277 O 0.03742 0.99153 0.80598 0.0
O278 O 0.01826 0.99705 0.64995 0.0
O279 O 0.03823 0.01068 0.70437 0.0
O280 O 0.00862 0.96817 0.70599 0.0
O281 O 0.99128 0.9764 0.61963 0.0
O282 O 0.99179 0.01048 0.54726 0.0
O283 O 0.96842 0.02218 0.59996 0.0
O284 O 0.98582 0.00542 0.74018 0.0
O285 O 0.96578 0.99176 0.68572 0.0
O286 O 0.99981 0.03374 0.67735 0.0
O287 O 0.00911 0.02522 0.77491 0.0
H288 H 0.02274 0.95891 0.94299 0.0
H289 H 0.03272 0.92605 0.9579 0.0
H290 H 0.0589 0.92631 0.778 0.0
H291 H 0.04871 0.95908 0.76282 0.0
H292 H 0.01153 0.04061 0.56484 0.0
H293 H 0.01872 0.07357 0.54559 0.0
H294 H 0.96338 0.08117 0.46445 0.0
H295 H 0.95576 0.04814 0.48809 0.0
Tb296 Tb 0.50492 0.0173 0.73889 0.0
Tb297 Tb 0.49671 0.99056 0.63935 0.0
C298 C 0.52033 0.03326 0.8286 0.0
C299 C 0.54049 0.03621 0.84314 0.0
C300 C 0.55226 0.02093 0.85885 0.0
C301 C 0.57159 0.02368 0.86757 0.0
C302 C 0.5796 0.04173 0.86053 0.0
C303 C 0.56778 0.05701 0.84518 0.0
C304 C 0.54842 0.05429 0.83694 0.0
C305 C 0.4933 0.0334 0.63584 0.0
C306 C 0.53863 1.00197 0.65193 0.0
C307 C 0.48073 0.97516 0.54975 0.0
C308 C 0.46039 0.97497 0.53565 0.0
C309 C 0.44961 0.9915 0.54319 0.0
C310 C 0.42999 0.99083 0.5398 0.0
C311 C 0.4207 0.97366 0.52866 0.0
C312 C 0.43147 0.95722 0.5189 0.0
C313 C 0.4512 0.95787 0.5227 0.0
C314 C 0.5085 0.97447 0.74202 0.0
C315 C 0.4631 0.00624 0.72664 0.0
O316 O 0.5142 0.0158 0.83043 0.0
O317 O 0.51406 0.04241 0.78035 0.0
O318 O 0.5045 0.0196 0.64048 0.0
O319 O 0.48878 0.03911 0.69067 0.0
O320 O 0.5334 0.00966 0.705 0.0
O321 O 0.52604 0.9947 0.61382 0.0
O322 O 0.48908 0.99165 0.54608 0.0
O323 O 0.48546 0.96595 0.59972 0.0
O324 O 0.4972 0.98823 0.73759 0.0
O325 O 0.51293 0.96874 0.68705 0.0
O326 O 0.46829 0.99854 0.67356 0.0
O327 O 0.47569 0.0133 0.76498 0.0
H328 H 0.54662 0.00678 0.86385 0.0
H329 H 0.58021 0.01167 0.88056 0.0
H330 H 0.57352 0.07106 0.83881 0.0
H331 H 0.53969 0.06628 0.82453 0.0
H332 H 0.45627 0.0049 0.55368 0.0
H333 H 0.42207 0.00379 0.54625 0.0
H334 H 0.42462 0.9438 0.5102 0.0
H335 H 0.45925 0.94493 0.51753 0.0
Tb336 Tb 0.49158 0.50806 0.75118 0.0
Tb337 Tb 0.51644 0.49902 0.64749 0.0
C338 C 0.47767 0.52237 0.84657 0.0
C339 C 0.4689 0.54081 0.85764 0.0
C340 C 0.47165 0.54977 0.91439 0.0
C341 C 0.46574 0.5684 0.92267 0.0
C342 C 0.45692 0.57828 0.87433 0.0
C343 C 0.45351 0.56904 0.81824 0.0
C344 C 0.45961 0.55046 0.80975 0.0
C345 C 0.47291 0.49835 0.65016 0.0
C346 C 0.50627 0.54159 0.66285 0.0
C347 C 0.53103 0.48485 0.55267 0.0
C348 C 0.52633 0.46815 0.51494 0.0
C349 C 0.51129 0.46879 0.47268 0.0
C350 C 0.50584 0.4526 0.44095 0.0
C351 C 0.51539 0.43543 0.45025 0.0
C352 C 0.53086 0.43491 0.49087 0.0
C353 C 0.53631 0.45115 0.52281 0.0
C354 C 0.53449 0.50916 0.74913 0.0
C355 C 0.50033 0.46613 0.73143 0.0
O356 O 0.49568 0.52309 0.83316 0.0
O357 O 0.46838 0.51082 0.81058 0.0
O358 O 0.48776 0.5082 0.6527 0.0
O359 O 0.46742 0.49475 0.7059 0.0
O360 O 0.49775 0.53655 0.71478 0.0
O361 O 0.51388 0.52888 0.62589 0.0
O362 O 0.5188 0.49871 0.55147 0.0
O363 O 0.53719 0.48151 0.60848 0.0
O364 O 0.5201 0.49878 0.74557 0.0
O365 O 0.53996 0.5133 0.6938 0.0
O366 O 0.50409 0.47145 0.67411 0.0
O367 O 0.49796 0.47895 0.77481 0.0
H368 H 0.47896 0.54259 0.95153 0.0
H369 H 0.4684 0.57526 0.96645 0.0
H370 H 0.44691 0.57646 0.78021 0.0
H371 H 0.45765 0.54386 0.76516 0.0
H372 H 0.50339 0.48169 0.46497 0.0
H373 H 0.49376 0.45346 0.41053 0.0
H374 H 0.53867 0.42194 0.4983 0.0
H375 H 0.54809 0.4503 0.55455 0.0
Tb376 Tb 0.00387 0.49074 0.7215 0.0
Tb377 Tb 0.01252 0.51617 0.61731 0.0
C378 C 0.99017 0.47589 0.81664 0.0
C379 C 0.97095 0.47201 0.8385 0.0
C380 C 0.95608 0.48463 0.82635 0.0
C381 C 0.93794 0.48088 0.84845 0.0
C382 C 0.9344 0.46445 0.88308 0.0
C383 C 0.94927 0.45167 0.89396 0.0
C384 C 0.9674 0.45545 0.87185 0.0
C385 C 0.01461 0.47336 0.61933 0.0
C386 C 0.97018 0.50631 0.63472 0.0
C387 C 0.02852 0.52965 0.52446 0.0
C388 C 0.04795 0.52582 0.50398 0.0
C389 C 0.05561 0.50764 0.5118 0.0
C390 C 0.07482 0.50448 0.50287 0.0
C391 C 0.08678 0.51939 0.48567 0.0
C392 C 0.07905 0.53743 0.47545 0.0
C393 C 0.05974 0.54065 0.48501 0.0
C394 C 1.00152 0.5337 0.71837 0.0
C395 C 0.04571 0.50062 0.70446 0.0
O396 O 0.99491 0.49372 0.8128 0.0
O397 O 0.99569 0.46615 0.76874 0.0
O398 O 0.00387 0.48749 0.62343 0.0
O399 O 0.01926 0.46796 0.67445 0.0
O400 O 0.97544 0.49841 0.68758 0.0
O401 O 0.98272 0.51329 0.59564 0.0
O402 O 0.01683 0.51531 0.52176 0.0
O403 O 0.0273 0.53872 0.57683 0.0
O404 O 0.01229 0.51953 0.71514 0.0
O405 O 0.99751 0.53933 0.66294 0.0
O406 O 0.04058 0.50571 0.6481 0.0
O407 O 0.03295 0.49633 0.74638 0.0
H408 H 0.9585 0.49753 0.80057 0.0
H409 H 0.92683 0.4911 0.83993 0.0
H410 H 0.94689 0.43878 0.91981 0.0
H411 H 0.97869 0.44549 0.88117 0.0
H412 H 0.04688 0.49593 0.52689 0.0
H413 H 0.08035 0.49036 0.50983 0.0
H414 H 0.08802 0.54913 0.46197 0.0
H415 H 0.05415 0.55481 0.47959 0.0
H416 H 0.15978 0.05214 0.25584 0.0
H417 H 0.13517 0.04735 0.33335 0.0
H418 H 0.11475 0.99885 0.2337 0.0
H419 H 0.13971 0.00343 0.15568 0.0
H420 H 0.08543 0.02776 0.28349 0.0
H421 H 0.13751 0.98756 0.34463 0.0
H422 H 0.17107 0.98099 0.36642 0.0
H423 H 0.17111 0.02361 0.50714 0.0
H424 H 0.1376 0.03065 0.48545 0.0
H425 H 0.02811 0.99307 0.53197 0.0
H426 H 0.04929 0.99681 0.44331 0.0
H427 H 0.0855 0.03291 0.55147 0.0
H428 H 0.06456 0.02887 0.64034 0.0
H429 H 0.10632 0.00862 0.4928 0.0
H430 H 0.05645 0.05044 0.43403 0.0
H431 H 0.02353 0.05991 0.4133 0.0
H432 H 0.0195 0.01785 0.2715 0.0
H433 H 0.05241 0.00805 0.29153 0.0
C434 C 0.1499 0.04059 0.24974 0.0
C435 C 0.15164 0.02824 0.19923 0.0
C436 C 0.13588 0.03785 0.2943 0.0
C437 C 0.12309 0.02279 0.28928 0.0
C438 C 0.12443 0.01063 0.23826 0.0
C439 C 0.13873 0.01319 0.19396 0.0
C440 C 0.1091 0.0194 0.33946 0.0
C441 C 0.08989 0.02323 0.329 0.0
C442 C 0.11502 0.01412 0.39934 0.0
C443 C 0.1351 0.00975 0.413 0.0
C444 C 0.14472 0.99564 0.37985 0.0
C445 C 0.16372 0.99181 0.39225 0.0
C446 C 0.17323 1.00191 0.43803 0.0
C447 C 0.16373 0.01582 0.47164 0.0
C448 C 0.14473 0.01972 0.45935 0.0
C449 C 0.04049 1.00195 0.53656 0.0
C450 C 0.0447 0.01065 0.59314 0.0
C451 C 0.05259 0.00413 0.48576 0.0
C452 C 0.06903 0.01524 0.49028 0.0
C453 C 0.073 0.02419 0.54663 0.0
C454 C 0.06098 0.02193 0.59742 0.0
C455 C 0.08248 0.01702 0.43731 0.0
C456 C 0.10169 0.01297 0.44728 0.0
C457 C 0.07656 0.02241 0.37733 0.0
C458 C 0.05683 0.02838 0.36471 0.0
C459 C 0.04851 0.04312 0.3987 0.0
C460 C 0.02985 0.04856 0.38707 0.0
C461 C 0.01939 0.03942 0.3414 0.0
C462 C 0.02761 0.02489 0.30697 0.0
C463 C 0.04628 0.01941 0.31833 0.0
H464 H 0.00493 0.04363 0.33256 0.0
H465 H 0.18795 0.99892 0.44755 0.0
H466 H 0.50479 0.1432 0.14843 0.0
H467 H 0.50979 0.11894 0.22839 0.0
H468 H 0.46227 0.14078 0.33045 0.0
H469 H 0.45726 0.16484 0.25133 0.0
H470 H 0.49285 0.13357 0.40514 0.0
H471 H 0.45758 0.10168 0.24449 0.0
H472 H 0.45233 0.09024 0.13855 0.0
H473 H 0.50358 0.05785 0.14764 0.0
H474 H 0.50927 0.06932 0.25343 0.0
H475 H 0.46973 0.06338 0.61977 0.0
H476 H 0.46856 0.08533 0.53273 0.0
H477 H 0.51184 0.05318 0.4398 0.0
H478 H 0.51258 0.03078 0.52633 0.0
H479 H 0.48716 0.06522 0.35785 0.0
H480 H 0.52212 0.09489 0.51822 0.0
H481 H 0.52861 0.10622 0.62353 0.0
H482 H 0.48038 0.14295 0.61422 0.0
H483 H 0.47343 0.13164 0.50913 0.0
C484 C 0.49553 0.14286 0.18819 0.0
C485 C 0.48053 0.15583 0.19328 0.0
C486 C 0.49832 0.12894 0.23365 0.0
C487 C 0.48629 0.12791 0.2853 0.0
C488 C 0.4717 0.14122 0.2911 0.0
C489 C 0.46879 0.15491 0.24559 0.0
C490 C 0.48859 0.113 0.33353 0.0
C491 C 0.49147 0.11863 0.39484 0.0
C492 C 0.4874 0.09345 0.32003 0.0
C493 C 0.48396 0.08654 0.25656 0.0
C494 C 0.46781 0.09225 0.2237 0.0
C495 C 0.46474 0.08574 0.16372 0.0
C496 C 0.47764 0.07337 0.1363 0.0
C497 C 0.49362 0.06746 0.16889 0.0
C498 C 0.49677 0.07395 0.22886 0.0
C499 C 0.47887 0.06088 0.58053 0.0
C500 C 0.49138 0.04547 0.58017 0.0
C501 C 0.47829 0.07353 0.53086 0.0
C502 C 0.49047 0.07128 0.48009 0.0
C503 C 0.5024 0.05537 0.47847 0.0
C504 C 0.50282 0.04257 0.52798 0.0
C505 C 0.49101 0.0858 0.42987 0.0
C506 C 0.48872 0.08013 0.36823 0.0
C507 C 0.49298 0.10535 0.4429 0.0
C508 C 0.49717 0.1123 0.50596 0.0
C509 C 0.51282 0.1053 0.53877 0.0
C510 C 0.5166 0.11173 0.59841 0.0
C511 C 0.50489 0.12527 0.6256 0.0
C512 C 0.48942 0.13245 0.59312 0.0
C513 C 0.48557 0.12605 0.53349 0.0
H514 H 0.50783 0.13023 0.67178 0.0
H515 H 0.47524 0.06834 0.08988 0.0
H516 H 0.33377 0.49913 0.2686 0.0
H517 H 0.35755 0.50208 0.34959 0.0
H518 H 0.40154 0.49027 0.21742 0.0
H519 H 0.37776 0.48719 0.13617 0.0
H520 H 0.40765 0.4702 0.31641 0.0
H521 H 0.39455 0.53541 0.28087 0.0
H522 H 0.37502 0.56402 0.26843 0.0
H523 H 0.35437 0.55785 0.45354 0.0
H524 H 0.37359 0.52903 0.46684 0.0
H525 H 0.48185 0.50323 0.52794 0.0
H526 H 0.46032 0.50199 0.43893 0.0
H527 H 0.41353 0.49108 0.56111 0.0
H528 H 0.43503 0.49138 0.64956 0.0
H529 H 0.41058 0.52355 0.4642 0.0
H530 H 0.42352 0.45731 0.49616 0.0
H531 H 0.44341 0.4289 0.50627 0.0
H532 H 0.46511 0.43768 0.32357 0.0
H533 H 0.44582 0.46654 0.31319 0.0
C534 C 0.34852 0.49756 0.25635 0.0
C535 C 0.35377 0.49297 0.19554 0.0
C536 C 0.36217 0.49921 0.30293 0.0
C537 C 0.38148 0.49655 0.28993 0.0
C538 C 0.38679 0.49233 0.229 0.0
C539 C 0.37314 0.49059 0.18245 0.0
C540 C 0.39599 0.49738 0.34026 0.0
C541 C 0.40846 0.48206 0.34795 0.0
C542 C 0.397 0.51265 0.38245 0.0
C543 C 0.38538 0.52995 0.37463 0.0
C544 C 0.38573 0.54006 0.31876 0.0
C545 C 0.37474 0.55633 0.31159 0.0
C546 C 0.36343 0.56272 0.36011 0.0
C547 C 0.36312 0.55287 0.41597 0.0
C548 C 0.37408 0.53657 0.42337 0.0
C549 C 0.46703 0.50032 0.53564 0.0
C550 C 0.46019 0.49727 0.59573 0.0
C551 C 0.45474 0.49968 0.48482 0.0
C552 C 0.43531 0.49645 0.4934 0.0
C553 C 0.42845 0.49359 0.55341 0.0
C554 C 0.44079 0.49371 0.60389 0.0
C555 C 0.422 0.49637 0.44017 0.0
C556 C 0.40981 0.51183 0.4321 0.0
C557 C 0.42137 0.48132 0.39738 0.0
C558 C 0.43347 0.46431 0.40434 0.0
C559 C 0.43283 0.45343 0.45863 0.0
C560 C 0.44395 0.4372 0.46434 0.0
C561 C 0.45558 0.43152 0.41573 0.0
C562 C 0.45616 0.44212 0.36135 0.0
C563 C 0.44518 0.45846 0.3556 0.0
H564 H 0.46404 0.41886 0.42016 0.0
H565 H 0.35493 0.57533 0.35447 0.0
H566 H 0.00359 0.34144 0.20454 0.0
H567 H 0.99804 0.3657 0.28248 0.0
H568 H 0.04523 0.39775 0.21206 0.0
H569 H 0.04989 0.37441 0.13135 0.0
H570 H 0.01711 0.3757 0.37406 0.0
H571 H 0.04341 0.44351 0.24757 0.0
H572 H 0.04282 0.45734 0.14312 0.0
H573 H 0.9937 0.42444 0.09883 0.0
H574 H 0.99385 0.41059 0.2032 0.0
H575 H 0.03835 0.44341 0.60136 0.0
H576 H 0.04001 0.42244 0.5118 0.0
H577 H 0.9962 0.45487 0.42242 0.0
H578 H 0.99519 0.47635 0.51078 0.0
H579 H 0.0192 0.44494 0.33925 0.0
H580 H 0.98793 0.41065 0.49808 0.0
H581 H 0.98332 0.39696 0.60162 0.0
H582 H 0.0331 0.36297 0.57859 0.0
H583 H 0.03816 0.37665 0.47519 0.0
C584 C 0.01244 0.35392 0.20424 0.0
C585 C 0.02728 0.35576 0.1613 0.0
C586 C 0.0094 0.36773 0.24964 0.0
C587 C 0.02115 0.38375 0.25365 0.0
C588 C 0.03567 0.38582 0.20989 0.0
C589 C 0.03852 0.3722 0.16398 0.0
C590 C 0.01895 0.39766 0.30541 0.0
C591 C 0.01751 0.39083 0.36614 0.0
C592 C 0.01905 0.41752 0.29585 0.0
C593 C 0.01877 0.42589 0.23307 0.0
C594 C 0.03244 0.43928 0.21563 0.0
C595 C 0.0322 0.44711 0.15641 0.0
C596 C 0.01827 0.44173 0.11431 0.0
C597 C 0.00452 0.42855 0.1314 0.0
C598 C 0.0047 0.42068 0.19055 0.0
C599 C 0.02919 0.44613 0.56236 0.0
C600 C 0.01653 0.46143 0.56336 0.0
C601 C 0.03003 0.43404 0.51123 0.0
C602 C 0.01789 0.43667 0.46047 0.0
C603 C 0.00568 0.45237 0.46077 0.0
C604 C 0.00507 0.46465 0.51146 0.0
C605 C 0.01771 0.42294 0.40777 0.0
C606 C 0.01875 0.42981 0.34698 0.0
C607 C 0.01652 0.40312 0.41706 0.0
C608 C 0.01351 0.3948 0.47912 0.0
C609 C 0.99796 0.40035 0.51527 0.0
C610 C 0.99526 0.39258 0.57391 0.0
C611 C 0.00793 0.37914 0.59673 0.0
C612 C 0.02331 0.3734 0.56088 0.0
C613 C 0.02609 0.38114 0.50223 0.0
H614 H 0.00582 0.37314 0.64214 0.0
H615 H 0.0181 0.4478 0.06849 0.0
H616 H 0.87491 1.00083 0.25091 0.0
H617 H 0.89921 0.99677 0.17191 0.0
H618 H 0.85646 0.98183 0.03933 0.0
H619 H 0.83194 0.98649 0.11729 0.0
H620 H 0.89044 0.9596 0.03047 0.0
H621 H 0.87088 0.02507 0.03997 0.0
H622 H 0.86483 0.05528 0.09296 0.0
H623 H 0.92308 0.05822 0.14759 0.0
H624 H 0.9294 0.02784 0.09572 0.0
H625 H 0.93638 0.97891 0.7467 0.0
H626 H 0.91523 0.97652 0.83544 0.0
H627 H 0.95757 1.00258 0.95043 0.0
H628 H 0.97856 0.00556 0.86094 0.0
H629 H 0.92516 0.018 0.97362 0.0
H630 H 0.94604 0.95426 0.95998 0.0
H631 H 0.95294 0.92378 0.90981 0.0
H632 H 0.89411 0.91674 0.86721 0.0
H633 H 0.88688 0.94733 0.91631 0.0
C634 C 0.8706 0.9966 0.20508 0.0
C635 C 0.85133 0.99424 0.19062 0.0
C636 C 0.88457 0.99419 0.16 0.0
C637 C 0.87965 0.98921 0.09948 0.0
C638 C 0.8606 0.98565 0.08574 0.0
C639 C 0.84658 0.98823 0.13066 0.0
C640 C 0.89414 0.98919 0.04957 0.0
C641 C 0.89794 0.97237 0.01758 0.0
C642 C 0.90431 0.00574 0.03388 0.0
C643 C 0.90056 0.02409 0.06456 0.0
C644 C 0.88236 0.03208 0.06372 0.0
C645 C 0.87889 0.04924 0.09348 0.0
C646 C 0.89355 0.05864 0.12378 0.0
C647 C 0.91173 0.05091 0.12421 0.0
C648 C 0.91526 0.03372 0.09462 0.0
C649 C 0.94125 0.98399 0.79101 0.0
C650 C 0.95914 0.99241 0.79684 0.0
C651 C 0.92917 0.98251 0.84194 0.0
C652 C 0.93481 0.98914 0.90018 0.0
C653 C 0.95284 0.99732 0.90618 0.0
C654 C 0.96488 0.99894 0.85506 0.0
C655 C 0.92155 0.98838 0.95386 0.0
C656 C 0.91788 0.00511 0.9866 0.0
C657 C 0.91169 0.97167 0.9706 0.0
C658 C 0.91594 0.95318 0.9414 0.0
C659 C 0.93458 0.94628 0.93953 0.0
C660 C 0.93856 0.92897 0.91133 0.0
C661 C 0.92398 0.91835 0.88522 0.0
C662 C 0.90539 0.92499 0.88741 0.0
C663 C 0.90134 0.94231 0.91548 0.0
H664 H 0.92709 0.90496 0.86338 0.0
H665 H 0.89083 0.07193 0.14678 0.0
H666 H 0.52399 0.85698 0.2093 0.0
H667 H 0.53017 0.88092 0.12942 0.0
H668 H 0.47254 0.8761 0.06682 0.0
H669 H 0.46648 0.85206 0.1445 0.0
H670 H 0.49533 0.8764 0.97161 0.0
H671 H 0.48764 0.91363 0.15563 0.0
H672 H 0.49487 0.92364 0.26188 0.0
H673 H 0.55153 0.93772 0.20761 0.0
H674 H 0.54469 0.92755 0.10114 0.0
H675 H 0.49224 0.9794 0.85568 0.0
H676 H 0.49246 0.95716 0.94261 0.0
H677 H 0.52955 0.92016 0.84099 0.0
H678 H 0.52917 0.94219 0.75392 0.0
H679 H 0.51852 0.94093 0.01901 0.0
H680 H 0.51542 0.87479 0.86405 0.0
H681 H 0.50509 0.8658 0.75946 0.0
H682 H 0.46466 0.91107 0.75934 0.0
H683 H 0.47456 0.92015 0.86419 0.0
C684 C 0.51268 0.86101 0.17834 0.0
C685 C 0.49466 0.85273 0.18406 0.0
C686 C 0.51619 0.87479 0.13294 0.0
C687 C 0.50177 0.88049 0.09224 0.0
C688 C 0.48391 0.87204 0.09756 0.0
C689 C 0.48041 0.85839 0.14267 0.0
C690 C 0.50503 0.89504 0.04337 0.0
C691 C 0.50056 0.89045 0.9821 0.0
C692 C 0.51159 0.91351 0.05672 0.0
C693 C 0.51572 0.91962 0.12063 0.0
C694 C 0.50169 0.91871 0.16649 0.0
C695 C 0.50571 0.92444 0.22672 0.0
C696 C 0.52367 0.93126 0.24153 0.0
C697 C 0.53763 0.9324 0.19609 0.0
C698 C 0.53369 0.92667 0.1358 0.0
C699 C 0.50064 0.96664 0.85227 0.0
C700 C 0.51051 0.96243 0.79769 0.0
C701 C 0.50081 0.95396 0.90206 0.0
C702 C 0.51079 0.93681 0.89813 0.0
C703 C 0.5215 0.93313 0.84487 0.0
C704 C 0.5213 0.94576 0.79513 0.0
C705 C 0.50888 0.9222 0.94747 0.0
C706 C 0.51357 0.92678 0.0086 0.0
C707 C 0.50216 0.90378 0.93433 0.0
C708 C 0.49589 0.89827 0.87164 0.0
C709 C 0.50428 0.88278 0.84175 0.0
C710 C 0.49851 0.87767 0.78243 0.0
C711 C 0.48428 0.8879 0.75269 0.0
C712 C 0.47573 0.9032 0.78232 0.0
C713 C 0.48143 0.90834 0.84167 0.0
H714 H 0.47984 0.88394 0.70675 0.0
H715 H 0.52675 0.9357 0.28818 0.0
H716 H 0.67232 0.51685 0.13623 0.0
H717 H 0.64831 0.5211 0.05627 0.0
H718 H 0.60597 0.49809 0.17812 0.0
H719 H 0.62983 0.494 0.25844 0.0
H720 H 0.60431 0.48135 0.06771 0.0
H721 H 0.60654 0.5452 0.14038 0.0
H722 H 0.62164 0.57534 0.16895 0.0
H723 H 0.64214 0.58202 0.98384 0.0
H724 H 0.62738 0.55177 0.95435 0.0
H725 H 0.52677 0.49781 0.8673 0.0
H726 H 0.54782 0.49901 0.9569 0.0
H727 H 0.59108 0.52496 0.84493 0.0
H728 H 0.56984 0.52438 0.75603 0.0
H729 H 0.59132 0.54075 0.95368 0.0
H730 H 0.59071 0.47638 0.88208 0.0
H731 H 0.57575 0.44626 0.85239 0.0
H732 H 0.55278 0.44034 0.03467 0.0
H733 H 0.56738 0.47059 0.06519 0.0
C734 C 0.65783 0.51311 0.14664 0.0
C735 C 0.6531 0.505 0.20393 0.0
C736 C 0.64408 0.51548 0.10065 0.0
C737 C 0.62525 0.50991 0.11094 0.0
C738 C 0.62039 0.50238 0.16874 0.0
C739 C 0.63409 0.50003 0.21469 0.0
C740 C 0.61085 0.51101 0.06061 0.0
C741 C 0.60127 0.49443 0.04348 0.0
C742 C 0.60714 0.52792 0.02775 0.0
C743 C 0.616 0.54613 0.04531 0.0
C744 C 0.6144 0.55302 0.10588 0.0
C745 C 0.62287 0.57014 0.12222 0.0
C746 C 0.63289 0.58057 0.07828 0.0
C747 C 0.6344 0.57392 0.01785 0.0
C748 C 0.62597 0.55679 1.00128 0.0
C749 C 0.54071 0.50393 0.86202 0.0
C750 C 0.54669 0.51089 0.80451 0.0
C751 C 0.55281 0.5045 0.91319 0.0
C752 C 0.57127 0.51175 0.9077 0.0
C753 C 0.57699 0.51924 0.85061 0.0
C754 C 0.56483 0.51885 0.79966 0.0
C755 C 0.58483 0.51108 0.96062 0.0
C756 C 0.59429 0.5277 0.97814 0.0
C757 C 0.58853 0.49417 0.9937 0.0
C758 C 0.57998 0.47584 0.97572 0.0
C759 C 0.58237 0.46871 0.91572 0.0
C760 C 0.57396 0.45161 0.89875 0.0
C761 C 0.56327 0.44142 0.94156 0.0
C762 C 0.56103 0.44827 1.00152 0.0
C763 C 0.56939 0.46538 0.01869 0.0
H764 H 0.55674 0.4282 0.92831 0.0
H765 H 0.63943 0.59382 0.09102 0.0
H766 H 0.00886 0.62896 0.22686 0.0
H767 H 0.00562 0.6049 0.14698 0.0
H768 H 0.98049 0.64596 0.02525 0.0
H769 H 0.9843 0.6704 0.1041 0.0
H770 H 0.96321 0.60832 0.02111 0.0
H771 H 0.0243 0.63851 0.00673 0.0
H772 H 0.0548 0.64961 0.04798 0.0
H773 H 0.06957 0.59272 0.09753 0.0
H774 H 0.03899 0.58132 0.05747 0.0
H775 H 0.9807 0.56594 0.72894 0.0
H776 H 0.97766 0.58658 0.81881 0.0
H777 H 0.01265 0.54855 0.92447 0.0
H778 H 0.01599 0.52801 0.8341 0.0
H779 H 0.02408 0.58361 0.94086 0.0
H780 H 0.96461 0.55249 0.95043 0.0
H781 H 0.93405 0.54059 0.91208 0.0
H782 H 0.9159 0.59739 0.87523 0.0
H783 H 0.94647 0.60964 0.91242 0.0
C784 C 1.00256 0.63295 0.18326 0.0
C785 C 0.99713 0.65181 0.17194 0.0
C786 C 1.00062 0.61909 0.1377 0.0
C787 C 0.99301 0.62364 0.07982 0.0
C788 C 0.98639 0.6421 0.06959 0.0
C789 C 0.98851 0.65607 0.115 0.0
C790 C 0.99349 0.60959 0.02864 0.0
C791 C 0.97649 0.60304 0.00302 0.0
C792 C 0.01082 0.6023 0.00615 0.0
C793 C 0.02927 0.6091 0.02974 0.0
C794 C 0.03398 0.62839 0.02692 0.0
C795 C 0.05129 0.63473 0.05 0.0
C796 C 0.06409 0.62188 0.07553 0.0
C797 C 0.05962 0.60266 0.07785 0.0
C798 C 0.04231 0.59625 0.05495 0.0
C799 C 0.98761 0.56189 0.7715 0.0
C800 C 0.99858 0.54535 0.77443 0.0
C801 C 0.98578 0.57366 0.82305 0.0
C802 C 0.99478 0.5691 0.87891 0.0
C803 C 0.00554 0.55241 0.88208 0.0
C804 C 0.00737 0.54062 0.83046 0.0
C805 C 0.99376 0.58225 0.93275 0.0
C806 C 0.01072 0.58871 0.95894 0.0
C807 C 0.97637 0.58928 0.956 0.0
C808 C 0.95792 0.58198 0.93372 0.0
C809 C 0.95417 0.56245 0.93367 0.0
C810 C 0.93683 0.55564 0.91222 0.0
C811 C 0.92306 0.56823 0.89112 0.0
C812 C 0.92659 0.58766 0.89153 0.0
C813 C 0.94391 0.59455 0.91285 0.0
H814 H 0.90964 0.56294 0.87463 0.0
H815 H 0.07749 0.62682 0.09336 0.0
H816 H 0.04465 0.20647 0.17419 0.0
H817 H 0.033 0.18244 0.24525 0.0
H818 H 0.0299 0.22395 0.39046 0.0
H819 H 0.04228 0.24803 0.31998 0.0
H820 H 0.04268 0.19101 0.43348 0.0
H821 H 0.99106 0.212 0.31307 0.0
H822 H 0.97298 0.22013 0.21965 0.0
H823 H 0.97513 0.16226 0.16073 0.0
H824 H 0.99382 0.15391 0.25241 0.0
H825 H 0.96852 0.1111 0.51352 0.0
H826 H 0.97599 0.14378 0.48494 0.0
H827 H 0.03289 0.12706 0.43914 0.0
H828 H 0.02539 0.09442 0.46424 0.0
H829 H 0.98711 0.15353 0.36645 0.0
H830 H 0.06177 0.16115 0.47689 0.0
H831 H 0.07723 0.15729 0.57818 0.0
H832 H 0.02351 0.16319 0.66851 0.0
H833 H 0.00777 0.16658 0.56806 0.0
C834 C 0.04198 0.21041 0.22164 0.0
C835 C 0.04434 0.22915 0.24153 0.0
C836 C 0.03505 0.19673 0.26191 0.0
C837 C 0.03018 0.20158 0.32254 0.0
C838 C 0.0334 0.22002 0.34356 0.0
C839 C 0.0404 0.23373 0.30329 0.0
C840 C 0.02145 0.18733 0.36332 0.0
C841 C 0.03048 0.18287 0.41896 0.0
C842 C 0.00503 0.17729 0.34555 0.0
C843 C 0.994 0.18235 0.28959 0.0
C844 C 0.98791 0.20104 0.27979 0.0
C845 C 0.97755 0.20571 0.22704 0.0
C846 C 0.97299 0.19175 0.18404 0.0
C847 C 0.97877 0.1731 0.19375 0.0
C848 C 0.98927 0.1684 0.24609 0.0
C849 C 0.98261 0.11439 0.49727 0.0
C850 C 0.99631 0.10011 0.49076 0.0
C851 C 0.98691 0.13308 0.48186 0.0
C852 C 0.00505 0.1378 0.46091 0.0
C853 C 0.01892 0.12374 0.45655 0.0
C854 C 0.01457 0.10505 0.4708 0.0
C855 C 0.00898 0.15659 0.43453 0.0
C856 C 0.9991 0.1619 0.38135 0.0
C857 C 0.02429 0.16767 0.45513 0.0
C858 C 0.03361 0.16405 0.51505 0.0
C859 C 0.05327 0.16146 0.51845 0.0
C860 C 0.06209 0.15933 0.57572 0.0
C861 C 0.05139 0.16006 0.62984 0.0
C862 C 0.03183 0.16259 0.62673 0.0
C863 C 0.02292 0.1644 0.56962 0.0
H864 H 0.05827 0.15862 0.67414 0.0
H865 H 0.96492 0.19537 0.14333 0.0
H866 H 0.28029 0.98887 0.25076 0.0
H867 H 0.3004 0.97643 0.33224 0.0
H868 H 0.27697 0.01685 0.46013 0.0
H869 H 0.25696 0.02967 0.3777 0.0
H870 H 0.31408 0.01976 0.45296 0.0
H871 H 0.27243 0.96921 0.48941 0.0
H872 H 0.25052 0.94324 0.46469 0.0
H873 H 0.29549 0.91277 0.37651 0.0
H874 H 0.31763 0.93866 0.39977 0.0
H875 H 0.39606 0.99028 0.60846 0.0
H876 H 0.36184 0.99351 0.5968 0.0
H877 H 0.36413 0.9596 0.43167 0.0
H878 H 0.39829 0.95615 0.4438 0.0
H879 H 0.33171 0.95311 0.49461 0.0
H880 H 0.36803 0.00788 0.42476 0.0
H881 H 0.38945 0.03517 0.4359 0.0
H882 H 0.35398 0.05786 0.57846 0.0
H883 H 0.33242 0.03057 0.56849 0.0
C884 C 0.2792 0.99489 0.29653 0.0
C885 C 0.26735 0.01041 0.30783 0.0
C886 C 0.29048 0.98758 0.34337 0.0
C887 C 0.29006 0.99558 0.40252 0.0
C888 C 0.27738 0.01038 0.41492 0.0
C889 C 0.26599 0.01768 0.36791 0.0
C890 C 0.30523 0.99069 0.44668 0.0
C891 C 0.31756 0.00522 0.4642 0.0
C892 C 0.30993 0.9717 0.4603 0.0
C893 C 0.29672 0.95594 0.44641 0.0
C894 C 0.27764 0.95702 0.46446 0.0
C895 C 0.26518 0.9423 0.45072 0.0
C896 C 0.27161 0.92636 0.41906 0.0
C897 C 0.29054 0.92511 0.40114 0.0
C898 C 0.30307 0.9398 0.41474 0.0
C899 C 0.38917 0.98327 0.57035 0.0
C900 C 0.39981 0.9732 0.52655 0.0
C901 C 0.36965 0.98505 0.56385 0.0
C902 C 0.36051 0.97702 0.51289 0.0
C903 C 0.37092 0.96587 0.47147 0.0
C904 C 0.39043 0.96394 0.47829 0.0
C905 C 0.34079 0.98212 0.49767 0.0
C906 C 0.32772 0.96766 0.48578 0.0
C907 C 0.33541 1.00118 0.48844 0.0
C908 C 0.34876 0.01713 0.49636 0.0
C909 C 0.36491 0.0186 0.4589 0.0
C910 C 0.37703 0.03409 0.46482 0.0
C911 C 0.37301 0.04828 0.50758 0.0
C912 C 0.357 0.0469 0.5451 0.0
C913 C 0.34485 0.03141 0.53943 0.0
H914 H 0.38232 0.06034 0.51174 0.0
H915 H 0.26193 0.91498 0.40844 0.0
H916 H 0.45339 0.27304 0.28973 0.0
H917 H 0.46197 0.30263 0.33977 0.0
H918 H 0.44939 0.3331 0.17228 0.0
H919 H 0.44209 0.3035 0.12066 0.0
H920 H 0.4831 0.34122 0.20869 0.0
H921 H 0.42286 0.33795 0.31024 0.0
H922 H 0.3975 0.32312 0.37154 0.0
H923 H 0.43547 0.31674 0.5245 0.0
H924 H 0.46113 0.3313 0.46386 0.0
H925 H 0.50264 0.43157 0.33199 0.0
H926 H 0.48809 0.40381 0.28571 0.0
H927 H 0.49913 0.37185 0.45154 0.0
H928 H 0.51241 0.40002 0.49979 0.0
H929 H 0.46497 0.36525 0.41501 0.0
H930 H 0.5255 0.3666 0.31292 0.0
H931 H 0.55137 0.38064 0.25184 0.0
H932 H 0.51333 0.38971 0.10045 0.0
H933 H 0.48719 0.37602 0.16107 0.0
C934 C 0.45221 0.28607 0.26375 0.0
C935 C 0.44729 0.28582 0.20093 0.0
C936 C 0.4569 0.30302 0.29269 0.0
C937 C 0.45631 0.32011 0.25977 0.0
C938 C 0.44998 0.32007 0.19849 0.0
C939 C 0.44558 0.3031 0.16923 0.0
C940 C 0.46447 0.33754 0.2865 0.0
C941 C 0.47886 0.34669 0.25334 0.0
C942 C 0.45942 0.34427 0.34564 0.0
C943 C 0.44396 0.33559 0.38229 0.0
C944 C 0.42584 0.33326 0.35679 0.0
C945 C 0.4114 0.32493 0.39146 0.0
C946 C 0.41488 0.31896 0.45182 0.0
C947 C 0.43279 0.32136 0.47772 0.0
C948 C 0.44728 0.32968 0.44325 0.0
C949 C 0.50193 0.41864 0.35867 0.0
C950 C 0.50861 0.41801 0.41964 0.0
C951 C 0.49381 0.40271 0.33187 0.0
C952 C 0.49272 0.38567 0.36486 0.0
C953 C 0.49982 0.38486 0.42521 0.0
C954 C 0.50764 0.40089 0.45245 0.0
C955 C 0.4836 0.36886 0.33721 0.0
C956 C 0.46909 0.35983 0.37022 0.0
C957 C 0.4886 0.36214 0.27802 0.0
C958 C 0.50435 0.37042 0.24169 0.0
C959 C 0.52263 0.37172 0.26678 0.0
C960 C 0.53734 0.37961 0.23223 0.0
C961 C 0.53399 0.38611 0.17236 0.0
C962 C 0.51592 0.3847 0.14685 0.0
C963 C 0.50115 0.37687 0.18126 0.0
H964 H 0.5454 0.3922 0.14569 0.0
H965 H 0.40369 0.3125 0.47857 0.0
H966 H 0.24705 0.4448 0.3215 0.0
H967 H 0.22388 0.45634 0.39753 0.0
H968 H 0.1926 0.48352 0.25171 0.0
H969 H 0.21536 0.47214 0.17626 0.0
H970 H 0.20341 0.50728 0.35789 0.0
H971 H 0.17547 0.44561 0.30335 0.0
H972 H 0.17618 0.41078 0.29904 0.0
H973 H 0.18458 0.4083 0.49494 0.0
H974 H 0.18416 0.44316 0.5002 0.0
H975 H 0.10896 0.52978 0.38894 0.0
H976 H 0.14137 0.51987 0.36852 0.0
H977 H 0.14309 0.49085 0.54369 0.0
H978 H 0.11041 0.50053 0.56366 0.0
H979 H 0.15389 0.46804 0.45711 0.0
H980 H 0.17201 0.52911 0.51507 0.0
H981 H 0.1716 0.56382 0.5226 0.0
H982 H 0.18291 0.56833 0.32866 0.0
H983 H 0.1832 0.53362 0.31972 0.0
C984 C 0.23504 0.45299 0.30583 0.0
C985 C 0.23289 0.45742 0.24295 0.0
C986 C 0.22193 0.4596 0.34915 0.0
C987 C 0.20673 0.4709 0.32997 0.0
C988 C 0.20434 0.47489 0.26723 0.0
C989 C 0.21721 0.46815 0.22411 0.0
C990 C 0.19323 0.47907 0.37432 0.0
C991 C 0.19257 0.4988 0.38004 0.0
C992 C 0.17979 0.46784 0.40542 0.0
C993 C 0.18008 0.44695 0.40204 0.0
C994 C 0.17768 0.43764 0.34538 0.0
C995 C 0.17797 0.4179 0.34279 0.0
C996 C 0.1805 0.40734 0.39664 0.0
C997 C 0.18268 0.4165 0.45323 0.0
C998 C 0.18241 0.43624 0.45605 0.0
C999 C 0.11642 0.5217 0.42371 0.0
C1000 C 0.1072 0.51578 0.47757 0.0
C1001 C 0.13498 0.51609 0.41222 0.0
C1002 C 0.14475 0.50474 0.45488 0.0
C1003 C 0.13584 0.49959 0.51018 0.0
C1004 C 0.1172 0.50507 0.52143 0.0
C1005 C 0.16325 0.49648 0.43758 0.0
C1006 C 0.16498 0.47669 0.43714 0.0
C1007 C 0.17782 0.5077 0.41193 0.0
C1008 C 0.17767 0.52867 0.4168 0.0
C1009 C 0.17437 0.53747 0.47395 0.0
C1010 C 0.17415 0.55717 0.47848 0.0
C1011 C 0.17723 0.56828 0.42615 0.0
C1012 C 0.18056 0.5597 0.36919 0.0
C1013 C 0.18081 0.54 0.36442 0.0
H1014 H 0.17704 0.58353 0.42973 0.0
H1015 H 0.18072 0.39205 0.39455 0.0
H1016 H 0.0273 0.76897 0.06989 0.0
H1017 H 0.03408 0.79379 0.99599 0.0
H1018 H 0.09374 0.78857 0.03436 0.0
H1019 H 0.08684 0.76378 0.11042 0.0
H1020 H 0.08436 0.82316 0.0428 0.0
H1021 H 0.07448 0.77843 0.88659 0.0
H1022 H 0.05975 0.75204 0.83029 0.0
H1023 H 0.00931 0.78487 0.80474 0.0
H1024 H 0.02357 0.81135 0.86175 0.0
H1025 H 0.08109 0.90714 0.85407 0.0
H1026 H 0.08937 0.87397 0.87496 0.0
H1027 H 0.03124 0.8623 0.92154 0.0
H1028 H 0.02297 0.89526 0.90112 0.0
H1029 H 0.05021 0.83362 0.84602 0.0
H1030 H 0.05846 0.87247 0.03312 0.0
H1031 H 0.0733 0.89879 0.08971 0.0
H1032 H 0.12828 0.87581 0.05189 0.0
H1033 H 0.11372 0.84947 0.99435 0.0
C1034 C 0.04192 0.77269 0.06137 0.0
C1035 C 0.05656 0.76441 0.09574 0.0
C1036 C 0.04582 0.78685 0.01868 0.0
C1037 C 0.06448 0.79286 0.00851 0.0
C1038 C 0.07925 0.78408 0.04109 0.0
C1039 C 0.07531 0.77 0.08458 0.0
C1040 C 0.06791 0.81003 0.97082 0.0
C1041 C 0.07745 0.82518 0.99865 0.0
C1042 C 0.05888 0.81281 0.91319 0.0
C1043 C 0.05014 0.79691 0.87866 0.0
C1044 C 0.0602 0.78 0.86933 0.0
C1045 C 0.05193 0.76502 0.83723 0.0
C1046 C 0.03361 0.76678 0.81397 0.0
C1047 C 0.02352 0.78353 0.82272 0.0
C1048 C 0.03171 0.79856 0.85483 0.0
C1049 C 0.07009 0.89736 0.86791 0.0
C1050 C 0.05145 0.90366 0.87671 0.0
C1051 C 0.07482 0.87851 0.87967 0.0
C1052 C 0.06087 0.86579 0.89948 0.0
C1053 C 0.04214 0.87193 0.9058 0.0
C1054 C 0.03747 0.89074 0.89478 0.0
C1055 C 0.06576 0.84653 0.91985 0.0
C1056 C 0.05778 0.83115 0.88874 0.0
C1057 C 0.07635 0.84344 0.97405 0.0
C1058 C 0.08504 0.85919 0.00881 0.0
C1059 C 0.07372 0.87314 0.03645 0.0
C1060 C 0.08207 0.88803 0.06876 0.0
C1061 C 0.10172 0.88901 0.0742 0.0
C1062 C 0.11306 0.87506 0.04749 0.0
C1063 C 0.10477 0.86015 0.01503 0.0
H1064 H 0.10817 0.90055 0.09926 0.0
H1065 H 0.02723 0.75516 0.78913 0.0
H1066 H 0.73489 0.08007 0.11679 0.0
H1067 H 0.7091 0.08176 0.04204 0.0
H1068 H 0.72148 0.02497 0.98245 0.0
H1069 H 0.74743 0.02325 0.05674 0.0
H1070 H 0.70468 0.04873 0.88746 0.0
H1071 H 0.6942 0.02681 0.09467 0.0
H1072 H 0.69816 0.02901 0.20738 0.0
H1073 H 0.66875 0.0821 0.20804 0.0
H1074 H 0.66495 0.08037 0.095 0.0
H1075 H 0.6092 0.01863 0.82819 0.0
H1076 H 0.64235 0.02207 0.8578 0.0
H1077 H 0.62951 0.07533 0.94502 0.0
H1078 H 0.59629 0.07149 0.91901 0.0
H1079 H 0.64775 0.05291 0.02075 0.0
H1080 H 0.65528 0.07116 0.80655 0.0
H1081 H 0.65211 0.06613 0.69454 0.0
H1082 H 0.68663 0.01636 0.70709 0.0
H1083 H 0.68974 0.0209 0.81919 0.0
C1084 C 0.73251 0.06821 0.08624 0.0
C1085 C 0.74284 0.05141 0.09321 0.0
C1086 C 0.7179 0.06923 0.04333 0.0
C1087 C 0.71325 0.05336 0.00766 0.0
C1088 C 0.72491 0.03735 0.00953 0.0
C1089 C 0.73967 0.03638 0.05218 0.0
C1090 C 0.69424 0.052 0.98007 0.0
C1091 C 0.69218 0.0496 0.91627 0.0
C1092 C 0.67803 0.05287 0.01813 0.0
C1093 C 0.67948 0.05356 0.08637 0.0
C1094 C 0.68865 0.03899 0.11884 0.0
C1095 C 0.69088 0.04015 0.18274 0.0
C1096 C 0.68379 0.05573 0.21479 0.0
C1097 C 0.67429 0.07008 0.18308 0.0
C1098 C 0.67208 0.06901 0.1191 0.0
C1099 C 0.61345 0.03107 0.85374 0.0
C1100 C 0.60005 0.0447 0.8718 0.0
C1101 C 0.63245 0.03314 0.86981 0.0
C1102 C 0.63841 0.04901 0.90329 0.0
C1103 C 0.6252 0.06298 0.91907 0.0
C1104 C 0.60622 0.06083 0.9037 0.0
C1105 C 0.65793 0.05032 0.92734 0.0
C1106 C 0.66014 0.05237 0.99124 0.0
C1107 C 0.67413 0.04873 0.88922 0.0
C1108 C 0.67264 0.04631 0.82142 0.0
C1109 C 0.66212 0.05909 0.78546 0.0
C1110 C 0.66034 0.05633 0.7219 0.0
C1111 C 0.66915 0.04093 0.69364 0.0
C1112 C 0.67985 0.02832 0.72887 0.0
C1113 C 0.68162 0.03097 0.79245 0.0
H1114 H 0.66766 0.03878 0.64448 0.0
H1115 H 0.68565 0.05666 0.26421 0.0
H1116 H 0.47776 0.72889 0.09375 0.0
H1117 H 0.47211 0.70495 0.01601 0.0
H1118 H 0.41231 0.71692 0.02176 0.0
H1119 H 0.41794 0.74115 0.10046 0.0
H1120 H 0.41821 0.68082 0.03538 0.0
H1121 H 0.43842 0.72527 0.88851 0.0
H1122 H 0.45766 0.75039 0.84092 0.0
H1123 H 0.50551 0.71313 0.83458 0.0
H1124 H 0.48673 0.68788 0.8832 0.0
H1125 H 0.4234 0.59627 0.85138 0.0
H1126 H 0.41607 0.62982 0.86968 0.0
H1127 H 0.47341 0.63906 0.93016 0.0
H1128 H 0.4807 0.60579 0.91232 0.0
H1129 H 0.45914 0.66828 0.85423 0.0
H1130 H 0.44064 0.62967 0.03383 0.0
H1131 H 0.42183 0.60449 0.08319 0.0
H1132 H 0.37058 0.63171 0.02507 0.0
H1133 H 0.38914 0.65694 0.97471 0.0
C1134 C 0.46345 0.72687 0.07731 0.0
C1135 C 0.4483 0.73696 0.10318 0.0
C1136 C 0.46023 0.71318 0.03253 0.0
C1137 C 0.44181 0.70935 0.01211 0.0
C1138 C 0.42666 0.71976 0.0365 0.0
C1139 C 0.42987 0.73349 0.08166 0.0
C1140 C 0.4385 0.69274 0.97201 0.0
C1141 C 0.42668 0.67835 0.99445 0.0
C1142 C 0.44959 0.68944 0.91868 0.0
C1143 C 0.4611 0.70464 0.88971 0.0
C1144 C 0.45308 0.72245 0.87743 0.0
C1145 C 0.46392 0.73673 0.8502 0.0
C1146 C 0.48279 0.73336 0.83475 0.0
C1147 C 0.49088 0.71571 0.84651 0.0
C1148 C 0.48013 0.7014 0.87384 0.0
C1149 C 0.43442 0.60559 0.86792 0.0
C1150 C 0.45251 0.59852 0.88138 0.0
C1151 C 0.43024 0.62466 0.87819 0.0
C1152 C 0.44422 0.63683 0.90124 0.0
C1153 C 0.46248 0.62989 0.91205 0.0
C1154 C 0.46657 0.61089 0.90255 0.0
C1155 C 0.43978 0.65637 0.92004 0.0
C1156 C 0.4501 0.67119 0.89351 0.0
C1157 C 0.42735 0.66013 0.96951 0.0
C1158 C 0.41625 0.64501 0.99985 0.0
C1159 C 0.42536 0.63019 0.03118 0.0
C1160 C 0.41475 0.61593 0.0594 0.0
C1161 C 0.39502 0.61646 0.05708 0.0
C1162 C 0.38586 0.63129 0.02668 0.0
C1163 C 0.39641 0.64556 0.99829 0.0
H1164 H 0.38682 0.60541 0.07898 0.0
H1165 H 0.49114 0.74443 0.81362 0.0
H1166 H 0.76276 0.45763 0.08626 0.0
H1167 H 0.79154 0.45647 0.02376 0.0
H1168 H 0.82424 0.44366 0.18641 0.0
H1169 H 0.79571 0.4454 0.24927 0.0
H1170 H 0.83846 0.47317 0.12482 0.0
H1171 H 0.81687 0.41059 0.07431 0.0
H1172 H 0.79408 0.38684 0.0372 0.0
H1173 H 0.79221 0.4142 0.8605 0.0
H1174 H 0.81481 0.43828 0.89685 0.0
H1175 H 0.92662 0.45203 0.99911 0.0
H1176 H 0.89572 0.4482 0.0472 0.0
H1177 H 0.86863 0.4663 0.87908 0.0
H1178 H 0.89965 0.46977 0.82977 0.0
H1179 H 0.85073 0.43499 0.93723 0.0
H1180 H 0.87211 0.49726 0.98625 0.0
H1181 H 0.89513 0.52102 0.0217 0.0
H1182 H 0.8971 0.49452 0.19976 0.0
H1183 H 0.87417 0.47049 0.16526 0.0
C1184 C 0.77606 0.45432 0.10847 0.0
C1185 C 0.77699 0.45164 0.17264 0.0
C1186 C 0.79245 0.45353 0.07269 0.0
C1187 C 0.80999 0.44995 0.10052 0.0
C1188 C 0.81082 0.44643 0.16411 0.0
C1189 C 0.79447 0.44724 0.19985 0.0
C1190 C 0.82768 0.45148 0.06462 0.0
C1191 C 0.84123 0.46462 0.0843 0.0
C1192 C 0.83095 0.44083 0.01048 0.0
C1193 C 0.81739 0.42635 0.98853 0.0
C1194 C 0.81148 0.41164 0.02772 0.0
C1195 C 0.79862 0.3981 0.00678 0.0
C1196 C 0.79166 0.39904 0.94659 0.0
C1197 C 0.79759 0.41351 0.90714 0.0
C1198 C 0.81044 0.42709 0.92787 0.0
C1199 C 0.91411 0.45486 0.9719 0.0
C1200 C 0.91555 0.46119 0.91066 0.0
C1201 C 0.89648 0.4528 0.9996 0.0
C1202 C 0.87998 0.45712 0.96675 0.0
C1203 C 0.88126 0.46291 0.90505 0.0
C1204 C 0.89895 0.46503 0.87722 0.0
C1205 C 0.86153 0.45636 0.99835 0.0
C1206 C 0.84785 0.44351 0.97771 0.0
C1207 C 0.85804 0.46733 0.05153 0.0
C1208 C 0.87154 0.48198 0.07297 0.0
C1209 C 0.87752 0.49644 0.03288 0.0
C1210 C 0.89052 0.50998 0.05285 0.0
C1211 C 0.89757 0.50928 0.11296 0.0
C1212 C 0.89158 0.49506 0.15328 0.0
C1213 C 0.87856 0.4815 0.13358 0.0
H1214 H 0.90766 0.51975 0.12831 0.0
H1215 H 0.78171 0.38855 0.93046 0.0
H1216 H 0.99292 0.21709 0.8872 0.0
H1217 H 0.98798 0.1845 0.85211 0.0
H1218 H 0.0479 0.17398 0.86658 0.0
H1219 H 0.05288 0.20661 0.89888 0.0
H1220 H 0.03722 0.15699 0.77201 0.0
H1221 H 0.01289 0.1589 0.97672 0.0
H1222 H 0.9932 0.17073 0.06199 0.0
H1223 H 0.94297 0.15578 0.96228 0.0
H1224 H 0.96241 0.14429 0.87558 0.0
H1225 H 0.02267 0.05412 0.8343 0.0
H1226 H 0.02476 0.08768 0.86192 0.0
H1227 H 0.99139 0.10227 0.70279 0.0
H1228 H 0.98982 0.06888 0.67345 0.0
H1229 H 0.9883 0.11647 0.86886 0.0
H1230 H 0.01634 0.12008 0.65401 0.0
H1231 H 0.03849 0.10737 0.57667 0.0
H1232 H 0.08381 0.11041 0.70768 0.0
H1233 H 0.06179 0.12274 0.78636 0.0
C1234 C 0.00502 0.20781 0.88265 0.0
C1235 C 0.0233 0.21453 0.89561 0.0
C1236 C 1.00219 0.1891 0.86288 0.0
C1237 C 0.01752 0.17645 0.85739 0.0
C1238 C 0.03578 0.18327 0.86996 0.0
C1239 C 0.03863 0.20202 0.88851 0.0
C1240 C 0.01469 0.15614 0.83904 0.0
C1241 C 0.02637 0.14831 0.79311 0.0
C1242 C 1.00083 0.14435 0.86691 0.0
C1243 C 0.9891 0.15093 0.91937 0.0
C1244 C 0.99764 0.15824 0.9728 0.0
C1245 C 0.98652 0.16489 0.02141 0.0
C1246 C 0.96682 0.16403 0.01757 0.0
C1247 C 0.95822 0.15647 0.96514 0.0
C1248 C 0.96929 0.14991 0.91621 0.0
C1249 C 0.01582 0.06446 0.805 0.0
C1250 C 0.00619 0.05876 0.75137 0.0
C1251 C 0.01701 0.08364 0.82095 0.0
C1252 C 0.00842 0.09752 0.78409 0.0
C1253 C 0.99841 0.09186 0.73137 0.0
C1254 C 0.9975 0.07273 0.71473 0.0
C1255 C 0.01023 0.11791 0.80039 0.0
C1256 C 0.99869 0.1255 0.84683 0.0
C1257 C 0.02424 0.12948 0.7734 0.0
C1258 C 0.03738 0.12197 0.72632 0.0
C1259 C 0.03094 0.11766 0.6667 0.0
C1260 C 0.04348 0.11063 0.62251 0.0
C1261 C 0.06251 0.10799 0.6373 0.0
C1262 C 0.06905 0.1124 0.69634 0.0
C1263 C 0.05655 0.11939 0.74076 0.0
H1264 H 0.07221 0.10261 0.60293 0.0
H1265 H 0.95822 0.16919 0.05522 0.0
H1266 H 0.28327 0.99509 0.87746 0.0
H1267 H 0.31462 0.98963 0.83231 0.0
H1268 H 0.33217 0.04519 0.89043 0.0
H1269 H 0.30106 0.05075 0.93475 0.0
H1270 H 0.34544 0.03926 0.78056 0.0
H1271 H 0.34436 0.00311 0.96942 0.0
H1272 H 0.33224 0.97906 0.04175 0.0
H1273 H 0.34097 0.93584 0.90587 0.0
H1274 H 0.35292 0.9597 0.83243 0.0
H1275 H 0.44538 0.03124 0.80321 0.0
H1276 H 0.41179 0.03254 0.83048 0.0
H1277 H 0.40117 0.98343 0.71854 0.0
H1278 H 0.4347 0.98253 0.68869 0.0
H1279 H 0.38356 0.98364 0.84358 0.0
H1280 H 0.38942 0.02072 0.66075 0.0
H1281 H 0.40454 0.04519 0.59697 0.0
H1282 H 0.38727 0.08784 0.72588 0.0
H1283 H 0.37303 0.06342 0.79252 0.0
C1284 C 0.29381 0.00615 0.8805 0.0
C1285 C 0.28949 0.02341 0.90955 0.0
C1286 C 0.31178 0.003 0.85471 0.0
C1287 C 0.32598 0.01692 0.85826 0.0
C1288 C 0.32155 0.03422 0.88649 0.0
C1289 C 0.30363 0.03741 0.91176 0.0
C1290 C 0.34557 0.01357 0.8341 0.0
C1291 C 0.35375 0.02713 0.79476 0.0
C1292 C 0.35647 0.99755 0.85116 0.0
C1293 C 0.34931 0.98321 0.89522 0.0
C1294 C 0.34356 0.9885 0.95482 0.0
C1295 C 0.33674 0.9749 0.99603 0.0
C1296 C 0.33578 0.95594 0.97834 0.0
C1297 C 0.34168 0.95054 0.91945 0.0
C1298 C 0.34848 0.96408 0.87803 0.0
C1299 C 0.43591 0.02073 0.78425 0.0
C1300 C 0.44272 0.00684 0.74356 0.0
C1301 C 0.41671 0.02148 0.79993 0.0
C1302 C 0.40393 0.00813 0.77634 0.0
C1303 C 0.41075 0.99393 0.73699 0.0
C1304 C 0.4299 0.99348 0.71985 0.0
C1305 C 0.3834 0.00952 0.79152 0.0
C1306 C 0.3751 0.99562 0.82893 0.0
C1307 C 0.37245 0.02531 0.77323 0.0
C1308 C 0.38036 0.04015 0.73212 0.0
C1309 C 0.38906 0.03526 0.67602 0.0
C1310 C 0.39752 0.04914 0.63939 0.0
C1311 C 0.39683 0.06808 0.65724 0.0
C1312 C 0.38779 0.07316 0.71208 0.0
C1313 C 0.37963 0.05927 0.74953 0.0
H1314 H 0.40327 0.07882 0.62855 0.0
H1315 H 0.33051 0.94544 0.01032 0.0
H1316 H 0.49871 0.30096 0.98944 0.0
H1317 H 0.50308 0.33329 0.95399 0.0
H1318 H 0.48983 0.31626 0.76823 0.0
H1319 H 0.48694 0.28352 0.80235 0.0
H1320 H 0.51511 0.34249 0.76207 0.0
H1321 H 0.45625 0.33726 0.87077 0.0
H1322 H 0.4358 0.32893 0.95885 0.0
H1323 H 0.46598 0.36792 0.07388 0.0
H1324 H 0.48685 0.37626 0.98675 0.0
H1325 H 0.49366 0.43573 0.65555 0.0
H1326 H 0.49194 0.40229 0.68438 0.0
H1327 H 0.50437 0.41688 0.87319 0.0
H1328 H 0.50503 0.45028 0.84513 0.0
H1329 H 0.47896 0.39153 0.87504 0.0
H1330 H 0.53816 0.39643 0.76273 0.0
H1331 H 0.55725 0.40498 0.67161 0.0
H1332 H 0.52483 0.36682 0.56005 0.0
H1333 H 0.50543 0.35818 0.65039 0.0
C1334 C 0.49722 0.30384 0.94068 0.0
C1335 C 0.49222 0.28936 0.89915 0.0
C1336 C 0.49942 0.32255 0.92054 0.0
C1337 C 0.4962 0.3275 0.85858 0.0
C1338 C 0.49216 0.31299 0.81642 0.0
C1339 C 0.49029 0.2942 0.83632 0.0
C1340 C 0.49631 0.34781 0.83832 0.0
C1341 C 0.50705 0.35315 0.78652 0.0
C1342 C 0.48596 0.36195 0.87013 0.0
C1343 C 0.4732 0.35727 0.92233 0.0
C1344 C 0.45858 0.344 0.91493 0.0
C1345 C 0.44693 0.33926 0.9647 0.0
C1346 C 0.44964 0.34785 0.02198 0.0
C1347 C 0.46395 0.36124 0.02954 0.0
C1348 C 0.47568 0.366 0.97996 0.0
C1349 C 0.496 0.43178 0.7032 0.0
C1350 C 0.49946 0.44571 0.748 0.0
C1351 C 0.49516 0.41259 0.71968 0.0
C1352 C 0.49838 0.4068 0.78101 0.0
C1353 C 0.5018 0.42079 0.82563 0.0
C1354 C 0.50221 0.43996 0.80946 0.0
C1355 C 0.49801 0.38632 0.79938 0.0
C1356 C 0.48712 0.38091 0.85074 0.0
C1357 C 0.50812 0.37214 0.76689 0.0
C1358 C 0.52028 0.37675 0.71322 0.0
C1359 C 0.53511 0.38987 0.71875 0.0
C1360 C 0.54596 0.39475 0.66723 0.0
C1361 C 0.54222 0.38648 0.61005 0.0
C1362 C 0.52771 0.37321 0.60437 0.0
C1363 C 0.5168 0.3683 0.65572 0.0
H1364 H 0.55058 0.39034 0.57017 0.0
H1365 H 0.44061 0.34416 0.06044 0.0
H1366 H 0.22313 0.47124 0.83103 0.0
H1367 H 0.19184 0.47425 0.78493 0.0
H1368 H 0.17933 0.5209 0.90539 0.0
H1369 H 0.21102 0.51894 0.94938 0.0
H1370 H 0.15259 0.48807 0.90551 0.0
H1371 H 0.18494 0.53107 0.76531 0.0
H1372 H 0.2086 0.53997 0.68698 0.0
H1373 H 0.18791 0.49657 0.56641 0.0
H1374 H 0.16432 0.48721 0.64441 0.0
H1375 H 0.06122 0.5129 0.81148 0.0
H1376 H 0.09439 0.51266 0.84199 0.0
H1377 H 0.10917 0.48612 0.66941 0.0
H1378 H 0.07599 0.48802 0.63667 0.0
H1379 H 0.13575 0.5073 0.69262 0.0
H1380 H 0.10599 0.46192 0.82008 0.0
H1381 H 0.0826 0.44854 0.89228 0.0
H1382 H 0.09909 0.48877 0.03015 0.0
H1383 H 0.12241 0.50257 0.95847 0.0
C1384 C 0.21409 0.48259 0.84679 0.0
C1385 C 0.21994 0.4948 0.89466 0.0
C1386 C 0.19604 0.48416 0.82042 0.0
C1387 C 0.18319 0.49778 0.84165 0.0
C1388 C 0.18898 0.51023 0.88832 0.0
C1389 C 0.20715 0.50893 0.91391 0.0
C1390 C 0.16328 0.49813 0.81872 0.0
C1391 C 0.14885 0.49254 0.85922 0.0
C1392 C 0.15848 0.50292 0.75726 0.0
C1393 C 0.17302 0.50828 0.71113 0.0
C1394 C 0.18561 0.52324 0.7225 0.0
C1395 C 0.19897 0.52841 0.67803 0.0
C1396 C 0.19981 0.51879 0.62187 0.0
C1397 C 0.1873 0.50396 0.61004 0.0
C1398 C 0.17392 0.49874 0.65433 0.0
C1399 C 0.07158 0.50707 0.77999 0.0
C1400 C 0.066 0.50034 0.72191 0.0
C1401 C 0.0906 0.50674 0.7977 0.0
C1402 C 0.10451 0.49882 0.75906 0.0
C1403 C 0.09891 0.49231 0.70044 0.0
C1404 C 0.0799 0.4933 0.68174 0.0
C1405 C 0.12478 0.49752 0.77983 0.0
C1406 C 0.13934 0.5028 0.73897 0.0
C1407 C 0.12983 0.49164 0.84029 0.0
C1408 C 0.11583 0.4834 0.88366 0.0
C1409 C 0.10454 0.468 0.86565 0.0
C1410 C 0.09131 0.46033 0.9065 0.0
C1411 C 0.08933 0.46783 0.9657 0.0
C1412 C 0.10062 0.48299 0.98424 0.0
C1413 C 0.11386 0.49073 0.94354 0.0
H1414 H 0.07907 0.46187 0.99727 0.0
H1415 H 0.2101 0.52287 0.5874 0.0
H1416 H 0.97751 0.80031 0.38847 0.0
H1417 H 0.9759 0.83205 0.43298 0.0
H1418 H 0.02403 0.81944 0.54766 0.0
H1419 H 0.02581 0.78782 0.50331 0.0
H1420 H 0.99867 0.83868 0.61239 0.0
H1421 H 0.02815 0.84614 0.41478 0.0
H1422 H 0.03095 0.84302 0.30192 0.0
H1423 H 0.98017 0.87544 0.27791 0.0
H1424 H 0.97692 0.87853 0.39073 0.0
H1425 H 0.02153 0.93395 0.69519 0.0
H1426 H 0.0217 0.90132 0.658 0.0
H1427 H 0.97619 0.91454 0.53287 0.0
H1428 H 0.9765 0.94729 0.56807 0.0
H1429 H 1.00019 0.89458 0.47443 0.0
H1430 H 0.97197 0.88823 0.67575 0.0
H1431 H 0.97015 0.89088 0.78896 0.0
H1432 H 0.01937 0.85578 0.80706 0.0
H1433 H 0.02183 0.85342 0.69412 0.0
C1434 C 0.98779 0.80426 0.42309 0.0
C1435 C 1.0018 0.79136 0.44203 0.0
C1436 C 0.98685 0.82247 0.4486 0.0
C1437 C 1.0 0.82835 0.49331 0.0
C1438 C 0.01367 0.81534 0.51345 0.0
C1439 C 0.0146 0.79714 0.48809 0.0
C1440 C 0.99983 0.84811 0.51814 0.0
C1441 C 0.99919 0.85092 0.58225 0.0
C1442 C 1.00023 0.86417 0.47905 0.0
C1443 C 1.00219 0.8624 0.41121 0.0
C1444 C 0.0175 0.85248 0.38544 0.0
C1445 C 0.01919 0.85074 0.32149 0.0
C1446 C 0.00572 0.85899 0.28278 0.0
C1447 C 0.99057 0.86904 0.30796 0.0
C1448 C 0.98881 0.8708 0.3719 0.0
C1449 C 0.01148 0.92989 0.65998 0.0
C1450 C 0.999 0.94333 0.63469 0.0
C1451 C 0.01152 0.91113 0.63888 0.0
C1452 C 0.99877 0.90519 0.59295 0.0
C1453 C 0.98621 0.91861 0.56817 0.0
C1454 C 0.98636 0.9374 0.58853 0.0
C1455 C 0.99883 0.88528 0.569 0.0
C1456 C 0.99954 0.88241 0.50484 0.0
C1457 C 0.99859 0.86918 0.60822 0.0
C1458 C 0.9972 0.87083 0.67631 0.0
C1459 C 0.98254 0.88128 0.70384 0.0
C1460 C 0.9814 0.88274 0.76803 0.0
C1461 C 0.9947 0.87361 0.80523 0.0
C1462 C 0.00916 0.86299 0.77831 0.0
C1463 C 0.01044 0.8616 0.71419 0.0
H1464 H 0.99376 0.8747 0.8549 0.0
H1465 H 0.00705 0.85763 0.23327 0.0
H1466 H 0.69894 1.00192 0.37132 0.0
H1467 H 0.66723 0.99983 0.41363 0.0
H1468 H 0.68875 0.01321 0.59426 0.0
H1469 H 0.72079 0.01355 0.55355 0.0
H1470 H 0.66247 0.99074 0.61216 0.0
H1471 H 0.66485 0.04678 0.49338 0.0
H1472 H 0.67009 0.06783 0.40427 0.0
H1473 H 0.62907 0.03685 0.2994 0.0
H1474 H 0.62376 0.01543 0.38758 0.0
H1475 H 0.56895 0.015 0.71899 0.0
H1476 H 0.60211 0.01664 0.68714 0.0
H1477 H 0.58769 0.99152 0.51237 0.0
H1478 H 0.55453 0.98995 0.54356 0.0
H1479 H 0.61055 0.0224 0.49842 0.0
H1480 H 0.61057 0.96548 0.62702 0.0
H1481 H 0.60428 0.94876 0.72483 0.0
H1482 H 0.64055 0.98741 0.82096 0.0
H1483 H 0.64681 0.0045 0.72385 0.0
C1484 C 0.69714 0.00398 0.42038 0.0
C1485 C 0.71274 0.00808 0.45853 0.0
C1486 C 0.67877 0.00318 0.44448 0.0
C1487 C 0.67527 0.00701 0.50712 0.0
C1488 C 0.69083 0.01046 0.54572 0.0
C1489 C 0.70927 0.01087 0.52195 0.0
C1490 C 0.65545 0.00746 0.53203 0.0
C1491 C 0.65124 0.99789 0.58738 0.0
C1492 C 0.64053 0.01687 0.50071 0.0
C1493 C 0.64402 0.0294 0.44697 0.0
C1494 C 0.65708 0.04434 0.45112 0.0
C1495 C 0.66003 0.05636 0.40082 0.0
C1496 C 0.6499 0.05368 0.34627 0.0
C1497 C 0.63688 0.03891 0.34173 0.0
C1498 C 0.63389 0.02683 0.39185 0.0
C1499 C 0.57281 0.00971 0.67387 0.0
C1500 C 0.55898 1.00229 0.63393 0.0
C1501 C 0.59184 0.01061 0.65578 0.0
C1502 C 0.5975 0.00408 0.5974 0.0
C1503 C 0.58372 0.99666 0.5576 0.0
C1504 C 0.56473 0.9957 0.57567 0.0
C1505 C 0.61765 0.00523 0.57688 0.0
C1506 C 0.62188 0.01524 0.52273 0.0
C1507 C 0.63262 0.99676 0.61025 0.0
C1508 C 0.62915 0.98626 0.66827 0.0
C1509 C 0.61717 0.97042 0.66907 0.0
C1510 C 0.61358 0.9609 0.72438 0.0
C1511 C 0.622 0.96703 0.77908 0.0
C1512 C 0.63405 0.98267 0.77856 0.0
C1513 C 0.63765 0.99225 0.7234 0.0
H1514 H 0.61919 0.95966 0.82186 0.0
H1515 H 0.65206 0.06311 0.3076 0.0
H1516 H 0.49032 0.72254 0.55726 0.0
H1517 H 0.49289 0.69072 0.59855 0.0
H1518 H 0.50785 0.66984 0.41829 0.0
H1519 H 0.50344 0.70129 0.37529 0.0
H1520 H 0.48482 0.64667 0.46374 0.0
H1521 H 0.54058 0.6757 0.55038 0.0
H1522 H 0.55826 0.69972 0.60915 0.0
H1523 H 0.52578 0.68679 0.77111 0.0
H1524 H 0.50779 0.66282 0.71315 0.0
H1525 H 0.51885 0.55678 0.554 0.0
H1526 H 0.51738 0.58967 0.5202 0.0
H1527 H 0.492 0.60544 0.69338 0.0
H1528 H 0.49339 0.57244 0.7278 0.0
H1529 H 0.5196 0.63102 0.65558 0.0
H1530 H 0.46476 0.60148 0.56996 0.0
H1531 H 0.44729 0.57714 0.51209 0.0
H1532 H 0.47839 0.59104 0.34816 0.0
H1533 H 0.49627 0.61529 0.40531 0.0
C1534 C 0.49398 0.71124 0.5259 0.0
C1535 C 0.49651 0.7148 0.46238 0.0
C1536 C 0.49581 0.69294 0.55009 0.0
C1537 C 0.50087 0.67767 0.51204 0.0
C1538 C 0.50395 0.68125 0.44901 0.0
C1539 C 0.5017 0.69946 0.42449 0.0
C1540 C 0.5021 0.65788 0.53694 0.0
C1541 C 0.49274 0.64331 0.50512 0.0
C1542 C 0.51183 0.6533 0.59227 0.0
C1543 C 0.52275 0.66758 0.62728 0.0
C1544 C 0.53716 0.67805 0.59844 0.0
C1545 C 0.54724 0.69164 0.63162 0.0
C1546 C 0.54312 0.69481 0.69378 0.0
C1547 C 0.52895 0.68434 0.72296 0.0
C1548 C 0.51883 0.67073 0.68999 0.0
C1549 C 0.51303 0.5672 0.58522 0.0
C1550 C 0.50619 0.56185 0.64366 0.0
C1551 C 0.51214 0.58605 0.56564 0.0
C1552 C 0.50441 0.60007 0.60391 0.0
C1553 C 0.49801 0.5949 0.66294 0.0
C1554 C 0.49878 0.57599 0.68249 0.0
C1555 C 0.50269 0.61998 0.58153 0.0
C1556 C 0.51182 0.6345 0.614 0.0
C1557 C 0.49282 0.62454 0.52673 0.0
C1558 C 0.48198 0.61008 0.49208 0.0
C1559 C 0.46798 0.59925 0.52168 0.0
C1560 C 0.45798 0.58548 0.489 0.0
C1561 C 0.46176 0.58251 0.42653 0.0
C1562 C 0.4755 0.59334 0.39657 0.0
C1563 C 0.48556 0.60711 0.42908 0.0
H1564 H 0.45401 0.57184 0.4013 0.0
H1565 H 0.55093 0.70535 0.71937 0.0
H1566 H 0.80219 0.5165 0.39326 0.0
H1567 H 0.83467 0.52014 0.42623 0.0
H1568 H 0.8212 0.49397 0.60047 0.0
H1569 H 0.78819 0.49276 0.57162 0.0
H1570 H 0.84603 0.51632 0.62499 0.0
H1571 H 0.84398 0.47015 0.4634 0.0
H1572 H 0.83638 0.45765 0.36019 0.0
H1573 H 0.87051 0.50082 0.27657 0.0
H1574 H 0.87828 0.5136 0.37924 0.0
H1575 H 0.94074 0.48853 0.69356 0.0
H1576 H 0.90737 0.48843 0.66498 0.0
H1577 H 0.91957 0.52483 0.51038 0.0
H1578 H 0.95311 0.5246 0.5378 0.0
H1579 H 0.8959 0.49725 0.47684 0.0
H1580 H 0.89831 0.54135 0.65003 0.0
H1581 H 0.90701 0.54916 0.75718 0.0
H1582 H 0.87247 0.50358 0.82373 0.0
H1583 H 0.86366 0.49544 0.71694 0.0
C1584 C 0.80579 0.51197 0.43939 0.0
C1585 C 0.7921 0.50392 0.47884 0.0
C1586 C 0.82473 0.51366 0.45777 0.0
C1587 C 0.83088 0.50657 0.51505 0.0
C1588 C 0.81716 0.49932 0.55557 0.0
C1589 C 0.7981 0.49829 0.53822 0.0
C1590 C 0.85148 0.50644 0.5325 0.0
C1591 C 0.85681 0.51192 0.59249 0.0
C1592 C 0.86592 0.5008 0.49075 0.0
C1593 C 0.86158 0.49292 0.42898 0.0
C1594 C 0.84984 0.47699 0.42297 0.0
C1595 C 0.84552 0.46984 0.36456 0.0
C1596 C 0.85296 0.47843 0.31182 0.0
C1597 C 0.86481 0.49414 0.31742 0.0
C1598 C 0.8692 0.50132 0.37571 0.0
C1599 C 0.93636 0.49663 0.65366 0.0
C1600 C 0.9497 0.50668 0.61828 0.0
C1601 C 0.91718 0.49659 0.63741 0.0
C1602 C 0.91076 0.50687 0.58595 0.0
C1603 C 0.92408 0.51682 0.55035 0.0
C1604 C 0.94329 0.51673 0.56626 0.0
C1605 C 0.89026 0.50715 0.56877 0.0
C1606 C 0.88501 0.50168 0.50895 0.0
C1607 C 0.87588 0.51218 0.61123 0.0
C1608 C 0.88037 0.51776 0.6755 0.0
C1609 C 0.89254 0.53303 0.68754 0.0
C1610 C 0.89751 0.5375 0.7482 0.0
C1611 C 0.89031 0.52686 0.79722 0.0
C1612 C 0.87801 0.51183 0.78572 0.0
C1613 C 0.87298 0.50732 0.72516 0.0
H1614 H 0.89425 0.53026 0.84411 0.0
H1615 H 0.84956 0.47292 0.26663 0.0
loop_
_geom_bond_atom_site_label_1
_geom_bond_atom_site_label_2
_geom_bond_distance
_geom_bond_site_symmetry_2
_ccdc_geom_bond_type
P0 O11 1.490 . S
P0 C14 1.812 . S
P0 C20 1.803 . S
P0 C26 1.819 . S
H1 C15 0.941 . S
H2 C16 0.939 . S
H3 C18 0.940 . S
H4 C19 0.940 . S
H5 C21 0.939 . S
H6 C22 0.942 . S
H7 C24 0.940 . S
H8 C25 0.939 . S
H9 C27 0.941 . S
H10 C31 0.939 . S
O11 P0 1.490 . S
H12 C28 0.939 . S
H13 C30 0.940 . S
C14 P0 1.812 . S
C14 C15 1.389 . S
C14 C19 1.391 . S
C15 H1 0.941 . S
C15 C14 1.389 . S
C15 C16 1.397 . S
C16 H2 0.939 . S
C16 C15 1.397 . S
C16 C17 1.378 . S
C17 C16 1.378 . S
C17 C18 1.378 . S
C18 H3 0.940 . S
C18 C17 1.378 . S
C18 C19 1.396 . S
C19 H4 0.940 . S
C19 C14 1.391 . S
C19 C18 1.396 . S
C20 P0 1.803 . S
C20 C21 1.378 . S
C20 C25 1.400 . S
C21 H5 0.939 . S
C21 C20 1.378 . S
C21 C22 1.361 . S
C22 H6 0.942 . S
C22 C21 1.361 . S
C22 C23 1.369 . S
C23 C22 1.369 . S
C23 C24 1.404 . S
C24 H7 0.940 . S
C24 C23 1.404 . S
C24 C25 1.389 . S
C25 H8 0.939 . S
C25 C20 1.400 . S
C25 C24 1.389 . S
C26 P0 1.819 . S
C26 C27 1.391 . S
C26 C31 1.391 . S
C27 H9 0.941 . S
C27 C26 1.391 . S
C27 C28 1.396 . S
C28 H12 0.939 . S
C28 C27 1.396 . S
C28 C29 1.397 . S
C29 C28 1.397 . S
C29 C30 1.385 . S
C30 H13 0.940 . S
C30 C29 1.385 . S
C30 C31 1.388 . S
C31 H10 0.939 . S
C31 C26 1.391 . S
C31 C30 1.388 . S
P32 O43 1.490 . S
P32 C46 1.812 . S
P32 C52 1.803 . S
P32 C58 1.819 . S
H33 C47 0.941 . S
H34 C48 0.939 . S
H35 C50 0.940 . S
H36 C51 0.950 . S
H37 C53 0.939 . S
H38 C54 0.942 . S
H39 C56 0.940 . S
H40 C57 0.959 . S
H41 C59 0.941 . S
H42 C63 0.929 1_655 S
O43 P32 1.490 . S
H44 C60 0.939 . S
H45 C62 0.940 . S
C46 P32 1.812 . S
C46 C47 1.389 . S
C46 C51 1.375 1_455 S
C47 H33 0.941 . S
C47 C46 1.389 . S
C47 C48 1.397 . S
C48 H34 0.939 . S
C48 C47 1.397 . S
C48 C49 1.378 . S
C49 C48 1.378 . S
C49 C50 1.378 1_455 S
C50 H35 0.940 . S
C50 C49 1.378 1_655 S
C50 C51 1.403 . S
C51 H36 0.950 . S
C51 C46 1.375 1_655 S
C51 C50 1.403 . S
C52 P32 1.803 . S
C52 C53 1.378 . S
C52 C57 1.368 1_455 S
C53 H37 0.939 . S
C53 C52 1.378 . S
C53 C54 1.361 . S
C54 H38 0.942 . S
C54 C53 1.361 . S
C54 C55 1.369 . S
C55 C54 1.369 . S
C55 C56 1.404 1_455 S
C56 H39 0.940 . S
C56 C55 1.404 1_655 S
C56 C57 1.402 . S
C57 H40 0.959 . S
C57 C52 1.368 1_655 S
C57 C56 1.402 . S
C58 P32 1.819 . S
C58 C59 1.391 . S
C58 C63 1.391 . S
C59 H41 0.941 . S
C59 C58 1.391 . S
C59 C60 1.396 . S
C60 H44 0.939 . S
C60 C59 1.396 . S
C60 C61 1.397 . S
C61 C60 1.397 . S
C61 C62 1.385 1_455 S
C62 H45 0.940 . S
C62 C61 1.385 1_655 S
C62 C63 1.388 1_655 S
C63 H42 0.929 1_455 S
C63 C58 1.391 . S
C63 C62 1.388 1_455 S
P64 O75 1.490 . S
P64 C78 1.812 . S
P64 C84 1.803 . S
P64 C90 1.819 . S
H65 C79 0.941 . S
H66 C80 0.939 . S
H67 C82 0.940 . S
H68 C83 0.950 . S
H69 C85 0.939 . S
H70 C86 0.942 . S
H71 C88 0.940 . S
H72 C89 0.959 . S
H73 C91 0.941 . S
H74 C95 0.929 1_565 S
O75 P64 1.490 . S
H76 C92 0.939 . S
H77 C94 0.940 . S
C78 P64 1.812 . S
C78 C79 1.389 . S
C78 C83 1.375 1_545 S
C79 H65 0.941 . S
C79 C78 1.389 . S
C79 C80 1.397 . S
C80 H66 0.939 . S
C80 C79 1.397 . S
C80 C81 1.378 . S
C81 C80 1.378 . S
C81 C82 1.378 1_545 S
C82 H67 0.940 . S
C82 C81 1.378 1_565 S
C82 C83 1.403 . S
C83 H68 0.950 . S
C83 C78 1.375 1_565 S
C83 C82 1.403 . S
C84 P64 1.803 . S
C84 C85 1.378 . S
C84 C89 1.368 1_545 S
C85 H69 0.939 . S
C85 C84 1.378 . S
C85 C86 1.361 . S
C86 H70 0.942 . S
C86 C85 1.361 . S
C86 C87 1.369 . S
C87 C86 1.369 . S
C87 C88 1.404 1_545 S
C88 H71 0.940 . S
C88 C87 1.404 1_565 S
C88 C89 1.402 . S
C89 H72 0.959 . S
C89 C84 1.368 1_565 S
C89 C88 1.402 . S
C90 P64 1.819 . S
C90 C91 1.391 . S
C90 C95 1.391 . S
C91 H73 0.941 . S
C91 C90 1.391 . S
C91 C92 1.396 . S
C92 H76 0.939 . S
C92 C91 1.396 . S
C92 C93 1.397 . S
C93 C92 1.397 . S
C93 C94 1.385 1_545 S
C94 H77 0.940 . S
C94 C93 1.385 1_565 S
C94 C95 1.388 1_565 S
C95 H74 0.929 1_545 S
C95 C90 1.391 . S
C95 C94 1.388 1_545 S
P96 O107 1.490 . S
P96 C110 1.812 . S
P96 C116 1.803 . S
P96 C122 1.819 . S
H97 C111 0.941 . S
H98 C112 0.939 . S
H99 C114 0.940 . S
H100 C115 0.940 . S
H101 C117 0.939 . S
H102 C118 0.942 . S
H103 C120 0.940 . S
H104 C121 0.939 . S
H105 C123 0.941 . S
H106 C127 0.939 . S
O107 P96 1.490 . S
H108 C124 0.939 . S
H109 C126 0.940 . S
C110 P96 1.812 . S
C110 C111 1.389 . S
C110 C115 1.391 . S
C111 H97 0.941 . S
C111 C110 1.389 . S
C111 C112 1.397 . S
C112 H98 0.939 . S
C112 C111 1.397 . S
C112 C113 1.378 . S
C113 C112 1.378 . S
C113 C114 1.378 . S
C114 H99 0.940 . S
C114 C113 1.378 . S
C114 C115 1.396 . S
C115 H100 0.940 . S
C115 C110 1.391 . S
C115 C114 1.396 . S
C116 P96 1.803 . S
C116 C117 1.378 . S
C116 C121 1.400 . S
C117 H101 0.939 . S
C117 C116 1.378 . S
C117 C118 1.361 . S
C118 H102 0.942 . S
C118 C117 1.361 . S
C118 C119 1.369 . S
C119 C118 1.369 . S
C119 C120 1.404 . S
C120 H103 0.940 . S
C120 C119 1.404 . S
C120 C121 1.389 . S
C121 H104 0.939 . S
C121 C116 1.400 . S
C121 C120 1.389 . S
C122 P96 1.819 . S
C122 C123 1.391 . S
C122 C127 1.391 . S
C123 H105 0.941 . S
C123 C122 1.391 . S
C123 C124 1.396 . S
C124 H108 0.939 . S
C124 C123 1.396 . S
C124 C125 1.397 . S
C125 C124 1.397 . S
C125 C126 1.385 . S
C126 H109 0.940 . S
C126 C125 1.385 . S
C126 C127 1.388 . S
C127 H106 0.939 . S
C127 C122 1.391 . S
C127 C126 1.388 . S
P128 O139 1.490 . S
P128 C142 1.812 1_554 S
P128 C148 1.803 . S
P128 C154 1.819 . S
H129 C143 0.941 . S
H130 C144 0.939 . S
H131 C146 0.940 . S
H132 C147 0.940 1_554 S
H133 C149 0.939 . S
H134 C150 0.942 . S
H135 C152 0.940 . S
H136 C153 0.939 . S
H137 C155 0.941 . S
H138 C159 0.939 . S
O139 P128 1.490 . S
H140 C156 0.939 . S
H141 C158 0.940 . S
C142 P128 1.812 1_556 S
C142 C143 1.389 . S
C142 C147 1.391 . S
C143 H129 0.941 . S
C143 C142 1.389 . S
C143 C144 1.397 . S
C144 H130 0.939 . S
C144 C143 1.397 . S
C144 C145 1.378 . S
C145 C144 1.378 . S
C145 C146 1.378 . S
C146 H131 0.940 . S
C146 C145 1.378 . S
C146 C147 1.396 . S
C147 H132 0.940 1_556 S
C147 C142 1.391 . S
C147 C146 1.396 . S
C148 P128 1.803 . S
C148 C149 1.378 . S
C148 C153 1.400 . S
C149 H133 0.939 . S
C149 C148 1.378 . S
C149 C150 1.361 . S
C150 H134 0.942 . S
C150 C149 1.361 . S
C150 C151 1.369 . S
C151 C150 1.369 . S
C151 C152 1.404 . S
C152 H135 0.940 . S
C152 C151 1.404 . S
C152 C153 1.389 . S
C153 H136 0.939 . S
C153 C148 1.400 . S
C153 C152 1.389 . S
C154 P128 1.819 . S
C154 C155 1.391 . S
C154 C159 1.391 . S
C155 H137 0.941 . S
C155 C154 1.391 . S
C155 C156 1.396 . S
C156 H140 0.939 . S
C156 C155 1.396 . S
C156 C157 1.397 . S
C157 C156 1.397 . S
C157 C158 1.385 . S
C158 H141 0.940 . S
C158 C157 1.385 . S
C158 C159 1.388 . S
C159 H138 0.939 . S
C159 C154 1.391 . S
C159 C158 1.388 . S
P160 O171 1.490 . S
P160 C174 1.812 1_554 S
P160 C180 1.803 . S
P160 C186 1.819 . S
H161 C175 0.941 . S
H162 C176 0.939 . S
H163 C178 0.940 . S
H164 C179 0.942 1_554 S
H165 C181 0.939 . S
H166 C182 0.942 . S
H167 C184 0.940 . S
H168 C185 0.951 . S
H169 C187 0.941 . S
H170 C191 0.934 1_655 S
O171 P160 1.490 . S
H172 C188 0.939 . S
H173 C190 0.940 . S
C174 P160 1.812 1_556 S
C174 C175 1.389 . S
C174 C179 1.388 1_455 S
C175 H161 0.941 . S
C175 C174 1.389 . S
C175 C176 1.397 . S
C176 H162 0.939 . S
C176 C175 1.397 . S
C176 C177 1.378 . S
C177 C176 1.378 . S
C177 C178 1.378 1_455 S
C178 H163 0.940 . S
C178 C177 1.378 1_655 S
C178 C179 1.398 . S
C179 H164 0.942 1_556 S
C179 C174 1.388 1_655 S
C179 C178 1.398 . S
C180 P160 1.803 . S
C180 C181 1.378 . S
C180 C185 1.381 1_455 S
C181 H165 0.939 . S
C181 C180 1.378 . S
C181 C182 1.361 . S
C182 H166 0.942 . S
C182 C181 1.361 . S
C182 C183 1.369 . S
C183 C182 1.369 . S
C183 C184 1.404 1_455 S
C184 H167 0.940 . S
C184 C183 1.404 1_655 S
C184 C185 1.396 . S
C185 H168 0.951 . S
C185 C180 1.381 1_655 S
C185 C184 1.396 . S
C186 P160 1.819 . S
C186 C187 1.391 . S
C186 C191 1.391 . S
C187 H169 0.941 . S
C187 C186 1.391 . S
C187 C188 1.396 . S
C188 H172 0.939 . S
C188 C187 1.396 . S
C188 C189 1.397 . S
C189 C188 1.397 . S
C189 C190 1.385 1_455 S
C190 H173 0.940 . S
C190 C189 1.385 1_655 S
C190 C191 1.388 1_655 S
C191 H170 0.934 1_455 S
C191 C186 1.391 . S
C191 C190 1.388 1_455 S
P192 O203 1.490 . S
P192 C206 1.812 1_554 S
P192 C212 1.803 . S
P192 C218 1.819 . S
H193 C207 0.941 . S
H194 C208 0.939 . S
H195 C210 0.940 . S
H196 C211 0.942 1_554 S
H197 C213 0.939 . S
H198 C214 0.942 . S
H199 C216 0.940 . S
H200 C217 0.951 . S
H201 C219 0.941 . S
H202 C223 0.934 1_565 S
O203 P192 1.490 . S
H204 C220 0.939 . S
H205 C222 0.940 . S
C206 P192 1.812 1_556 S
C206 C207 1.389 . S
C206 C211 1.388 1_545 S
C207 H193 0.941 . S
C207 C206 1.389 . S
C207 C208 1.397 . S
C208 H194 0.939 . S
C208 C207 1.397 . S
C208 C209 1.378 . S
C209 C208 1.378 . S
C209 C210 1.378 1_545 S
C210 H195 0.940 . S
C210 C209 1.378 1_565 S
C210 C211 1.398 . S
C211 H196 0.942 1_556 S
C211 C206 1.388 1_565 S
C211 C210 1.398 . S
C212 P192 1.803 . S
C212 C213 1.378 . S
C212 C217 1.381 1_545 S
C213 H197 0.939 . S
C213 C212 1.378 . S
C213 C214 1.361 . S
C214 H198 0.942 . S
C214 C213 1.361 . S
C214 C215 1.369 . S
C215 C214 1.369 . S
C215 C216 1.404 1_545 S
C216 H199 0.940 . S
C216 C215 1.404 1_565 S
C216 C217 1.396 . S
C217 H200 0.951 . S
C217 C212 1.381 1_565 S
C217 C216 1.396 . S
C218 P192 1.819 . S
C218 C219 1.391 . S
C218 C223 1.391 . S
C219 H201 0.941 . S
C219 C218 1.391 . S
C219 C220 1.396 . S
C220 H204 0.939 . S
C220 C219 1.396 . S
C220 C221 1.397 . S
C221 C220 1.397 . S
C221 C222 1.385 1_545 S
C222 H205 0.940 . S
C222 C221 1.385 1_565 S
C222 C223 1.388 1_565 S
C223 H202 0.934 1_545 S
C223 C218 1.391 . S
C223 C222 1.388 1_545 S
P224 O235 1.490 . S
P224 C238 1.812 1_554 S
P224 C244 1.803 . S
P224 C250 1.819 . S
H225 C239 0.941 . S
H226 C240 0.939 . S
H227 C242 0.940 . S
H228 C243 0.940 1_554 S
H229 C245 0.939 . S
H230 C246 0.942 . S
H231 C248 0.940 . S
H232 C249 0.939 . S
H233 C251 0.941 . S
H234 C255 0.939 . S
O235 P224 1.490 . S
H236 C252 0.939 . S
H237 C254 0.940 . S
C238 P224 1.812 1_556 S
C238 C239 1.389 . S
C238 C243 1.391 . S
C239 H225 0.941 . S
C239 C238 1.389 . S
C239 C240 1.397 . S
C240 H226 0.939 . S
C240 C239 1.397 . S
C240 C241 1.378 . S
C241 C240 1.378 . S
C241 C242 1.378 . S
C242 H227 0.940 . S
C242 C241 1.378 . S
C242 C243 1.396 . S
C243 H228 0.940 1_556 S
C243 C238 1.391 . S
C243 C242 1.396 . S
C244 P224 1.803 . S
C244 C245 1.378 . S
C244 C249 1.400 . S
C245 H229 0.939 . S
C245 C244 1.378 . S
C245 C246 1.361 . S
C246 H230 0.942 . S
C246 C245 1.361 . S
C246 C247 1.369 . S
C247 C246 1.369 . S
C247 C248 1.404 . S
C248 H231 0.940 . S
C248 C247 1.404 . S
C248 C249 1.389 . S
C249 H232 0.939 . S
C249 C244 1.400 . S
C249 C248 1.389 . S
C250 P224 1.819 . S
C250 C251 1.391 . S
C250 C255 1.391 . S
C251 H233 0.941 . S
C251 C250 1.391 . S
C251 C252 1.396 . S
C252 H236 0.939 . S
C252 C251 1.396 . S
C252 C253 1.397 . S
C253 C252 1.397 . S
C253 C254 1.385 . S
C254 H237 0.940 . S
C254 C253 1.385 . S
C254 C255 1.388 . S
C255 H234 0.939 . S
C255 C250 1.391 . S
C255 C254 1.388 . S
Tb256 C258 2.809 . S
Tb256 O276 2.484 . S
Tb256 O277 2.440 . S
Tb256 O278 2.658 1_565 S
Tb256 O279 2.409 . S
Tb256 O280 2.378 . S
Tb256 O284 2.325 1_455 S
Tb256 O287 2.341 1_565 S
Tb257 C267 2.809 . S
Tb257 O278 2.325 1_655 S
Tb257 O281 2.341 1_545 S
Tb257 O282 2.484 . S
Tb257 O283 2.440 . S
Tb257 O284 2.658 1_545 S
Tb257 O285 2.409 . S
Tb257 O286 2.378 . S
C258 Tb256 2.809 . S
C258 C259 1.514 . S
C258 O276 1.248 . S
C258 O277 1.266 . S
C259 C258 1.514 . S
C259 C260 1.359 . S
C259 C264 1.348 . S
C260 C259 1.359 . S
C260 C261 1.380 . S
C260 H288 0.929 1_455 S
C261 C260 1.380 . S
C261 C262 1.347 . S
C261 H289 0.931 1_455 S
C262 C261 1.347 . S
C262 C263 1.369 . S
C263 C262 1.369 . S
C263 C264 1.408 . S
C263 H290 0.930 . S
C264 C259 1.348 . S
C264 C263 1.408 . S
C264 H291 0.930 . S
C265 O278 1.262 1_565 S
C265 O279 1.281 . S
C266 O280 1.236 1_655 S
C266 O281 1.266 . S
C267 Tb257 2.809 . S
C267 C268 1.514 . S
C267 O282 1.248 . S
C267 O283 1.266 . S
C268 C267 1.514 . S
C268 C269 1.359 . S
C268 C273 1.348 . S
C269 C268 1.359 . S
C269 C270 1.380 . S
C269 H292 0.929 1_655 S
C270 C269 1.380 . S
C270 C271 1.347 . S
C270 H293 0.931 1_655 S
C271 C270 1.347 . S
C271 C272 1.369 . S
C272 C271 1.369 . S
C272 C273 1.408 . S
C272 H294 0.930 . S
C273 C268 1.348 . S
C273 C272 1.408 . S
C273 H295 0.930 . S
C274 O284 1.281 1_545 S
C274 O285 1.254 . S
C275 O286 1.236 1_455 S
C275 O287 1.266 . S
O276 Tb256 2.484 . S
O276 C258 1.248 . S
O277 Tb256 2.440 . S
O277 C258 1.266 . S
O278 Tb256 2.658 1_545 S
O278 Tb257 2.325 1_455 S
O278 C265 1.262 1_545 S
O279 Tb256 2.409 . S
O279 C265 1.281 . S
O280 Tb256 2.378 . S
O280 C266 1.236 1_455 S
O281 Tb257 2.341 1_565 S
O281 C266 1.266 . S
O282 Tb257 2.484 . S
O282 C267 1.248 . S
O283 Tb257 2.440 . S
O283 C267 1.266 . S
O284 Tb256 2.325 1_655 S
O284 Tb257 2.658 1_565 S
O284 C274 1.281 1_565 S
O285 Tb257 2.409 . S
O285 C274 1.254 . S
O286 Tb257 2.378 . S
O286 C275 1.236 1_655 S
O287 Tb256 2.341 1_545 S
O287 C275 1.266 . S
H288 C260 0.929 1_655 S
H289 C261 0.931 1_655 S
H290 C263 0.930 . S
H291 C264 0.930 . S
H292 C269 0.929 1_455 S
H293 C270 0.931 1_455 S
H294 C272 0.930 . S
H295 C273 0.930 . S
Tb296 C298 2.809 . S
Tb296 O316 2.484 . S
Tb296 O317 2.440 . S
Tb296 O318 2.658 . S
Tb296 O319 2.409 . S
Tb296 O320 2.378 . S
Tb296 O324 2.325 1_545 S
Tb296 O327 2.341 . S
Tb297 C307 2.809 . S
Tb297 O318 2.325 1_565 S
Tb297 O321 2.341 . S
Tb297 O322 2.510 . S
Tb297 O323 2.440 . S
Tb297 O324 2.658 . S
Tb297 O325 2.409 . S
Tb297 O326 2.378 . S
C298 Tb296 2.809 . S
C298 C299 1.514 . S
C298 O316 1.248 . S
C298 O317 1.266 . S
C299 C298 1.514 . S
C299 C300 1.359 . S
C299 C304 1.348 . S
C300 C299 1.359 . S
C300 C301 1.380 . S
C300 H328 0.929 1_545 S
C301 C300 1.380 . S
C301 C302 1.347 . S
C301 H329 0.931 1_545 S
C302 C301 1.347 . S
C302 C303 1.369 . S
C303 C302 1.369 . S
C303 C304 1.408 . S
C303 H330 0.930 . S
C304 C299 1.348 . S
C304 C303 1.408 . S
C304 H331 0.930 . S
C305 O318 1.281 . S
C305 O319 1.254 . S
C306 O320 1.236 1_565 S
C306 O321 1.266 . S
C307 Tb297 2.809 . S
C307 C308 1.514 . S
C307 O322 1.306 . S
C307 O323 1.266 . S
C308 C307 1.514 . S
C308 C309 1.359 . S
C308 C313 1.348 . S
C309 C308 1.359 . S
C309 C310 1.380 . S
C309 H332 0.929 1_565 S
C310 C309 1.380 . S
C310 C311 1.347 . S
C310 H333 0.931 1_565 S
C311 C310 1.347 . S
C311 C312 1.369 . S
C312 C311 1.369 . S
C312 C313 1.408 . S
C312 H334 0.930 . S
C313 C308 1.348 . S
C313 C312 1.408 . S
C313 H335 0.930 . S
C314 O324 1.281 . S
C314 O325 1.254 . S
C315 O326 1.236 1_545 S
C315 O327 1.266 . S
O316 Tb296 2.484 . S
O316 C298 1.248 . S
O317 Tb296 2.440 . S
O317 C298 1.266 . S
O318 Tb296 2.658 . S
O318 Tb297 2.325 1_545 S
O318 C305 1.281 . S
O319 Tb296 2.409 . S
O319 C305 1.254 . S
O320 Tb296 2.378 . S
O320 C306 1.236 1_545 S
O321 Tb297 2.341 . S
O321 C306 1.266 . S
O322 Tb297 2.510 . S
O322 C307 1.306 . S
O323 Tb297 2.440 . S
O323 C307 1.266 . S
O324 Tb296 2.325 1_565 S
O324 Tb297 2.658 . S
O324 C314 1.281 . S
O325 Tb297 2.409 . S
O325 C314 1.254 . S
O326 Tb297 2.378 . S
O326 C315 1.236 1_565 S
O327 Tb296 2.341 . S
O327 C315 1.266 . S
H328 C300 0.929 1_565 S
H329 C301 0.931 1_565 S
H330 C303 0.930 . S
H331 C304 0.930 . S
H332 C309 0.929 1_545 S
H333 C310 0.931 1_545 S
H334 C312 0.930 . S
H335 C313 0.930 . S
Tb336 C338 2.809 . S
Tb336 O356 2.484 . S
Tb336 O357 2.440 . S
Tb336 O358 2.658 . S
Tb336 O359 2.409 . S
Tb336 O360 2.378 . S
Tb336 O364 2.325 . S
Tb336 O367 2.341 . S
Tb337 C347 2.809 . S
Tb337 O358 2.325 . S
Tb337 O361 2.341 . S
Tb337 O362 2.484 . S
Tb337 O363 2.440 . S
Tb337 O364 2.658 . S
Tb337 O365 2.409 . S
Tb337 O366 2.378 . S
C338 Tb336 2.809 . S
C338 C339 1.514 . S
C338 O356 1.248 . S
C338 O357 1.266 . S
C339 C338 1.514 . S
C339 C340 1.359 . S
C339 C344 1.348 . S
C340 C339 1.359 . S
C340 C341 1.380 . S
C340 H368 0.929 . S
C341 C340 1.380 . S
C341 C342 1.347 . S
C341 H369 0.931 . S
C342 C341 1.347 . S
C342 C343 1.369 . S
C343 C342 1.369 . S
C343 C344 1.408 . S
C343 H370 0.930 . S
C344 C339 1.348 . S
C344 C343 1.408 . S
C344 H371 0.930 . S
C345 O358 1.281 . S
C345 O359 1.254 . S
C346 O360 1.236 . S
C346 O361 1.266 . S
C347 Tb337 2.809 . S
C347 C348 1.514 . S
C347 O362 1.248 . S
C347 O363 1.266 . S
C348 C347 1.514 . S
C348 C349 1.359 . S
C348 C353 1.348 . S
C349 C348 1.359 . S
C349 C350 1.380 . S
C349 H372 0.929 . S
C350 C349 1.380 . S
C350 C351 1.347 . S
C350 H373 0.931 . S
C351 C350 1.347 . S
C351 C352 1.369 . S
C352 C351 1.369 . S
C352 C353 1.408 . S
C352 H374 0.930 . S
C353 C348 1.348 . S
C353 C352 1.408 . S
C353 H375 0.930 . S
C354 O364 1.281 . S
C354 O365 1.254 . S
C355 O366 1.236 . S
C355 O367 1.266 . S
O356 Tb336 2.484 . S
O356 C338 1.248 . S
O357 Tb336 2.440 . S
O357 C338 1.266 . S
O358 Tb336 2.658 . S
O358 Tb337 2.325 . S
O358 C345 1.281 . S
O359 Tb336 2.409 . S
O359 C345 1.254 . S
O360 Tb336 2.378 . S
O360 C346 1.236 . S
O361 Tb337 2.341 . S
O361 C346 1.266 . S
O362 Tb337 2.484 . S
O362 C347 1.248 . S
O363 Tb337 2.440 . S
O363 C347 1.266 . S
O364 Tb336 2.325 . S
O364 Tb337 2.658 . S
O364 C354 1.281 . S
O365 Tb337 2.409 . S
O365 C354 1.254 . S
O366 Tb337 2.378 . S
O366 C355 1.236 . S
O367 Tb336 2.341 . S
O367 C355 1.266 . S
H368 C340 0.929 . S
H369 C341 0.931 . S
H370 C343 0.930 . S
H371 C344 0.930 . S
H372 C349 0.929 . S
H373 C350 0.931 . S
H374 C352 0.930 . S
H375 C353 0.930 . S
Tb376 C378 2.809 . S
Tb376 O396 2.484 . S
Tb376 O397 2.440 . S
Tb376 O398 2.658 1_655 S
Tb376 O399 2.409 . S
Tb376 O400 2.378 . S
Tb376 O404 2.325 . S
Tb376 O407 2.341 1_655 S
Tb377 C387 2.809 . S
Tb377 O398 2.325 . S
Tb377 O401 2.341 1_455 S
Tb377 O402 2.484 . S
Tb377 O403 2.440 . S
Tb377 O404 2.658 1_455 S
Tb377 O405 2.409 . S
Tb377 O406 2.378 . S
C378 Tb376 2.809 . S
C378 C379 1.514 . S
C378 O396 1.248 . S
C378 O397 1.266 . S
C379 C378 1.514 . S
C379 C380 1.359 . S
C379 C384 1.348 . S
C380 C379 1.359 . S
C380 C381 1.380 . S
C380 H408 0.929 . S
C381 C380 1.380 . S
C381 C382 1.347 . S
C381 H409 0.931 . S
C382 C381 1.347 . S
C382 C383 1.369 . S
C383 C382 1.369 . S
C383 C384 1.408 . S
C383 H410 0.930 . S
C384 C379 1.348 . S
C384 C383 1.408 . S
C384 H411 0.930 . S
C385 O398 1.271 1_655 S
C385 O399 1.268 . S
C386 O400 1.236 . S
C386 O401 1.266 . S
C387 Tb377 2.809 . S
C387 C388 1.514 . S
C387 O402 1.248 . S
C387 O403 1.266 . S
C388 C387 1.514 . S
C388 C389 1.359 . S
C388 C393 1.348 . S
C389 C388 1.359 . S
C389 C390 1.380 . S
C389 H412 0.929 . S
C390 C389 1.380 . S
C390 C391 1.347 . S
C390 H413 0.931 . S
C391 C390 1.347 . S
C391 C392 1.369 . S
C392 C391 1.369 . S
C392 C393 1.408 . S
C392 H414 0.930 . S
C393 C388 1.348 . S
C393 C392 1.408 . S
C393 H415 0.930 . S
C394 O404 1.266 1_455 S
C394 O405 1.275 . S
C395 O406 1.236 . S
C395 O407 1.266 . S
O396 Tb376 2.484 . S
O396 C378 1.248 . S
O397 Tb376 2.440 . S
O397 C378 1.266 . S
O398 Tb376 2.658 1_455 S
O398 Tb377 2.325 . S
O398 C385 1.271 1_455 S
O399 Tb376 2.409 . S
O399 C385 1.268 . S
O400 Tb376 2.378 . S
O400 C386 1.236 . S
O401 Tb377 2.341 1_655 S
O401 C386 1.266 . S
O402 Tb377 2.484 . S
O402 C387 1.248 . S
O403 Tb377 2.440 . S
O403 C387 1.266 . S
O404 Tb376 2.325 . S
O404 Tb377 2.658 1_655 S
O404 C394 1.266 1_655 S
O405 Tb377 2.409 . S
O405 C394 1.275 . S
O406 Tb377 2.378 . S
O406 C395 1.236 . S
O407 Tb376 2.341 1_455 S
O407 C395 1.266 . S
H408 C380 0.929 . S
H409 C381 0.931 . S
H410 C383 0.930 . S
H411 C384 0.930 . S
H412 C389 0.929 . S
H413 C390 0.931 . S
H414 C392 0.930 . S
H415 C393 0.930 . S
H416 C434 0.951 . S
H417 C436 0.951 . S
H418 C438 0.950 . S
H419 C439 0.950 . S
H420 C441 0.950 . S
H421 C444 0.950 . S
H422 C445 0.950 . S
H423 C447 0.950 . S
H424 C448 0.950 . S
H425 C449 0.951 . S
H426 C451 0.951 . S
H427 C453 0.950 . S
H428 C454 0.950 . S
H429 C456 0.950 . S
H430 C459 0.950 . S
H431 C460 0.950 . S
H432 C462 0.950 . S
H433 C463 0.950 . S
C434 H416 0.951 . S
C434 C435 1.367 . S
C434 C436 1.388 . S
C435 C434 1.367 . S
C435 C439 1.383 1_545 S
C436 H417 0.951 . S
C436 C434 1.388 . S
C436 C437 1.350 1_545 S
C437 C436 1.350 1_565 S
C437 C438 1.429 . S
C437 C440 1.499 . S
C438 H418 0.950 . S
C438 C437 1.429 . S
C438 C439 1.374 . S
C439 H419 0.950 . S
C439 C435 1.383 1_565 S
C439 C438 1.374 . S
C440 C437 1.499 . S
C440 C441 1.351 1_565 S
C440 C442 1.410 . S
C441 H420 0.950 . S
C441 C440 1.351 1_545 S
C441 C457 1.377 . S
C442 C440 1.410 . S
C442 C443 1.524 . S
C442 C456 1.377 . S
C443 C442 1.524 . S
C443 C444 1.397 . S
C443 C448 1.363 . S
C444 H421 0.950 . S
C444 C443 1.397 . S
C444 C445 1.334 . S
C445 H422 0.950 . S
C445 C444 1.334 . S
C445 C446 1.287 . S
C446 C445 1.287 . S
C446 C447 1.524 . S
C446 H465 0.913 . S
C447 H423 0.950 . S
C447 C446 1.524 . S
C447 C448 1.415 . S
C448 H424 0.950 . S
C448 C443 1.363 . S
C448 C447 1.415 . S
C449 H425 0.951 . S
C449 C450 1.356 1_565 S
C449 C451 1.388 . S
C450 C449 1.356 1_545 S
C450 C454 1.396 . S
C451 H426 0.951 . S
C451 C449 1.388 . S
C451 C452 1.366 1_565 S
C452 C451 1.366 1_545 S
C452 C453 1.414 . S
C452 C455 1.499 . S
C453 H427 0.950 . S
C453 C452 1.414 . S
C453 C454 1.374 . S
C454 H428 0.950 . S
C454 C450 1.396 . S
C454 C453 1.374 . S
C455 C452 1.499 . S
C455 C456 1.373 1_545 S
C455 C457 1.389 . S
C456 H429 0.950 . S
C456 C442 1.377 . S
C456 C455 1.373 1_565 S
C457 C441 1.377 . S
C457 C455 1.389 . S
C457 C458 1.524 . S
C458 C457 1.524 . S
C458 C459 1.397 . S
C458 C463 1.363 . S
C459 H430 0.950 . S
C459 C458 1.397 . S
C459 C460 1.334 . S
C460 H431 0.950 . S
C460 C459 1.334 . S
C460 C461 1.287 . S
C461 C460 1.287 . S
C461 C462 1.524 . S
C461 H464 0.999 . S
C462 H432 0.950 . S
C462 C461 1.524 . S
C462 C463 1.415 . S
C463 H433 0.950 . S
C463 C458 1.363 . S
C463 C462 1.415 . S
H464 C461 0.999 . S
H465 C446 0.913 . S
H466 C484 0.951 . S
H467 C486 0.951 . S
H468 C488 0.950 . S
H469 C489 0.950 . S
H470 C491 0.950 . S
H471 C494 0.950 . S
H472 C495 0.950 . S
H473 C497 0.950 . S
H474 C498 0.950 . S
H475 C499 0.951 . S
H476 C501 0.951 . S
H477 C503 0.950 . S
H478 C504 0.950 . S
H479 C506 0.950 . S
H480 C509 0.950 . S
H481 C510 0.950 . S
H482 C512 0.950 . S
H483 C513 0.950 . S
C484 H466 0.951 . S
C484 C485 1.366 . S
C484 C486 1.388 . S
C485 C484 1.366 . S
C485 C489 1.385 . S
C486 H467 0.951 . S
C486 C484 1.388 . S
C486 C487 1.366 . S
C487 C486 1.366 . S
C487 C488 1.414 . S
C487 C490 1.499 . S
C488 H468 0.950 . S
C488 C487 1.414 . S
C488 C489 1.374 . S
C489 H469 0.950 . S
C489 C485 1.385 . S
C489 C488 1.374 . S
C490 C487 1.499 . S
C490 C491 1.373 . S
C490 C492 1.389 . S
C491 H470 0.950 . S
C491 C490 1.373 . S
C491 C507 1.377 . S
C492 C490 1.389 . S
C492 C493 1.524 . S
C492 C506 1.377 . S
C493 C492 1.524 . S
C493 C494 1.397 . S
C493 C498 1.363 . S
C494 H471 0.950 . S
C494 C493 1.397 . S
C494 C495 1.334 . S
C495 H472 0.950 . S
C495 C494 1.334 . S
C495 C496 1.287 . S
C496 C495 1.287 . S
C496 C497 1.524 . S
C496 H515 0.913 . S
C497 H473 0.950 . S
C497 C496 1.524 . S
C497 C498 1.415 . S
C498 H474 0.950 . S
C498 C493 1.363 . S
C498 C497 1.415 . S
C499 H475 0.951 . S
C499 C500 1.366 . S
C499 C501 1.388 . S
C500 C499 1.366 . S
C500 C504 1.385 . S
C501 H476 0.951 . S
C501 C499 1.388 . S
C501 C502 1.366 . S
C502 C501 1.366 . S
C502 C503 1.414 . S
C502 C505 1.499 . S
C503 H477 0.950 . S
C503 C502 1.414 . S
C503 C504 1.374 . S
C504 H478 0.950 . S
C504 C500 1.385 . S
C504 C503 1.374 . S
C505 C502 1.499 . S
C505 C506 1.373 . S
C505 C507 1.389 . S
C506 H479 0.950 . S
C506 C492 1.377 . S
C506 C505 1.373 . S
C507 C491 1.377 . S
C507 C505 1.389 . S
C507 C508 1.524 . S
C508 C507 1.524 . S
C508 C509 1.397 . S
C508 C513 1.363 . S
C509 H480 0.950 . S
C509 C508 1.397 . S
C509 C510 1.334 . S
C510 H481 0.950 . S
C510 C509 1.334 . S
C510 C511 1.287 . S
C511 C510 1.287 . S
C511 C512 1.524 . S
C511 H514 0.999 . S
C512 H482 0.950 . S
C512 C511 1.524 . S
C512 C513 1.415 . S
C513 H483 0.950 . S
C513 C508 1.363 . S
C513 C512 1.415 . S
H514 C511 0.999 . S
H515 C496 0.913 . S
H516 C534 0.951 . S
H517 C536 0.951 . S
H518 C538 0.950 . S
H519 C539 0.950 . S
H520 C541 0.950 . S
H521 C544 0.950 . S
H522 C545 0.950 . S
H523 C547 0.950 . S
H524 C548 0.950 . S
H525 C549 0.951 . S
H526 C551 0.951 . S
H527 C553 0.950 . S
H528 C554 0.950 . S
H529 C556 0.950 . S
H530 C559 0.950 . S
H531 C560 0.950 . S
H532 C562 0.950 . S
H533 C563 0.950 . S
C534 H516 0.951 . S
C534 C535 1.366 . S
C534 C536 1.388 . S
C535 C534 1.366 . S
C535 C539 1.385 . S
C536 H517 0.951 . S
C536 C534 1.388 . S
C536 C537 1.366 . S
C537 C536 1.366 . S
C537 C538 1.414 . S
C537 C540 1.499 . S
C538 H518 0.950 . S
C538 C537 1.414 . S
C538 C539 1.374 . S
C539 H519 0.950 . S
C539 C535 1.385 . S
C539 C538 1.374 . S
C540 C537 1.499 . S
C540 C541 1.373 . S
C540 C542 1.389 . S
C541 H520 0.950 . S
C541 C540 1.373 . S
C541 C557 1.377 . S
C542 C540 1.389 . S
C542 C543 1.524 . S
C542 C556 1.377 . S
C543 C542 1.524 . S
C543 C544 1.397 . S
C543 C548 1.363 . S
C544 H521 0.950 . S
C544 C543 1.397 . S
C544 C545 1.334 . S
C545 H522 0.950 . S
C545 C544 1.334 . S
C545 C546 1.287 . S
C546 C545 1.287 . S
C546 C547 1.524 . S
C546 H565 0.913 . S
C547 H523 0.950 . S
C547 C546 1.524 . S
C547 C548 1.415 . S
C548 H524 0.950 . S
C548 C543 1.363 . S
C548 C547 1.415 . S
C549 H525 0.951 . S
C549 C550 1.366 . S
C549 C551 1.388 . S
C550 C549 1.366 . S
C550 C554 1.385 . S
C551 H526 0.951 . S
C551 C549 1.388 . S
C551 C552 1.366 . S
C552 C551 1.366 . S
C552 C553 1.414 . S
C552 C555 1.499 . S
C553 H527 0.950 . S
C553 C552 1.414 . S
C553 C554 1.374 . S
C554 H528 0.950 . S
C554 C550 1.385 . S
C554 C553 1.374 . S
C555 C552 1.499 . S
C555 C556 1.373 . S
C555 C557 1.389 . S
C556 H529 0.950 . S
C556 C542 1.377 . S
C556 C555 1.373 . S
C557 C541 1.377 . S
C557 C555 1.389 . S
C557 C558 1.524 . S
C558 C557 1.524 . S
C558 C559 1.397 . S
C558 C563 1.363 . S
C559 H530 0.950 . S
C559 C558 1.397 . S
C559 C560 1.334 . S
C560 H531 0.950 . S
C560 C559 1.334 . S
C560 C561 1.287 . S
C561 C560 1.287 . S
C561 C562 1.524 . S
C561 H564 0.999 . S
C562 H532 0.950 . S
C562 C561 1.524 . S
C562 C563 1.415 . S
C563 H533 0.950 . S
C563 C558 1.363 . S
C563 C562 1.415 . S
H564 C561 0.999 . S
H565 C546 0.913 . S
H566 C584 0.951 . S
H567 C586 0.951 . S
H568 C588 0.950 . S
H569 C589 0.950 . S
H570 C591 0.950 . S
H571 C594 0.950 1_455 S
H572 C595 0.950 1_455 S
H573 C597 0.950 . S
H574 C598 0.950 . S
H575 C599 0.951 . S
H576 C601 0.951 . S
H577 C603 0.950 . S
H578 C604 0.950 . S
H579 C606 0.950 . S
H580 C609 0.950 1_655 S
H581 C610 0.929 1_655 S
H582 C612 0.950 . S
H583 C613 0.950 . S
C584 H566 0.951 . S
C584 C585 1.362 1_655 S
C584 C586 1.388 . S
C585 C584 1.362 1_455 S
C585 C589 1.389 . S
C586 H567 0.951 . S
C586 C584 1.388 . S
C586 C587 1.335 1_655 S
C587 C586 1.335 1_455 S
C587 C588 1.444 . S
C587 C590 1.500 . S
C588 H568 0.950 . S
C588 C587 1.444 . S
C588 C589 1.374 . S
C589 H569 0.950 . S
C589 C585 1.389 . S
C589 C588 1.374 . S
C590 C587 1.500 . S
C590 C591 1.373 . S
C590 C592 1.389 1_455 S
C591 H570 0.950 . S
C591 C590 1.373 . S
C591 C607 1.377 . S
C592 C590 1.389 1_655 S
C592 C593 1.524 . S
C592 C606 1.377 . S
C593 C592 1.524 . S
C593 C594 1.397 . S
C593 C598 1.363 . S
C594 H571 0.950 1_655 S
C594 C593 1.397 . S
C594 C595 1.334 . S
C595 H572 0.950 1_655 S
C595 C594 1.334 . S
C595 C596 1.287 . S
C596 C595 1.287 . S
C596 C597 1.524 . S
C596 H615 0.913 . S
C597 H573 0.950 . S
C597 C596 1.524 . S
C597 C598 1.415 . S
C598 H574 0.950 . S
C598 C593 1.363 . S
C598 C597 1.415 . S
C599 H575 0.951 . S
C599 C600 1.412 . S
C599 C601 1.388 . S
C600 C599 1.412 . S
C600 C604 1.338 1_455 S
C601 H576 0.951 . S
C601 C599 1.388 . S
C601 C602 1.385 . S
C602 C601 1.385 . S
C602 C603 1.395 1_455 S
C602 C605 1.498 1_455 S
C603 H577 0.950 . S
C603 C602 1.395 1_655 S
C603 C604 1.374 . S
C604 H578 0.950 . S
C604 C600 1.338 1_655 S
C604 C603 1.374 . S
C605 C602 1.498 1_655 S
C605 C606 1.377 . S
C605 C607 1.385 1_655 S
C606 H579 0.950 . S
C606 C592 1.377 . S
C606 C605 1.377 . S
C607 C591 1.377 . S
C607 C605 1.385 1_455 S
C607 C608 1.524 . S
C608 C607 1.524 . S
C608 C609 1.397 . S
C608 C613 1.363 . S
C609 H580 0.950 1_455 S
C609 C608 1.397 . S
C609 C610 1.334 . S
C610 H581 0.929 1_455 S
C610 C609 1.334 . S
C610 C611 1.287 . S
C611 C610 1.287 . S
C611 C612 1.524 . S
C611 H614 0.999 . S
C612 H582 0.950 . S
C612 C611 1.524 . S
C612 C613 1.415 . S
C613 H583 0.950 . S
C613 C608 1.363 . S
C613 C612 1.415 . S
H614 C611 0.999 . S
H615 C596 0.913 . S
H616 C634 0.951 . S
H617 C636 0.951 . S
H618 C638 0.950 . S
H619 C639 0.950 . S
H620 C641 0.950 . S
H621 C644 0.950 . S
H622 C645 0.950 . S
H623 C647 0.950 . S
H624 C648 0.950 . S
H625 C649 0.951 . S
H626 C651 0.951 . S
H627 C653 0.950 . S
H628 C654 0.950 . S
H629 C656 0.950 . S
H630 C659 0.950 . S
H631 C660 0.950 . S
H632 C662 0.950 . S
H633 C663 0.950 . S
C634 H616 0.951 . S
C634 C635 1.365 . S
C634 C636 1.388 . S
C635 C634 1.365 . S
C635 C639 1.385 1_545 S
C636 H617 0.951 . S
C636 C634 1.388 . S
C636 C637 1.376 . S
C637 C636 1.376 . S
C637 C638 1.403 1_545 S
C637 C640 1.499 . S
C638 H618 0.950 . S
C638 C637 1.403 1_565 S
C638 C639 1.374 . S
C639 H619 0.950 . S
C639 C635 1.385 1_565 S
C639 C638 1.374 . S
C640 C637 1.499 . S
C640 C641 1.332 1_545 S
C640 C642 1.429 . S
C641 H620 0.950 . S
C641 C640 1.332 1_565 S
C641 C657 1.377 1_554 S
C642 C640 1.429 . S
C642 C643 1.524 . S
C642 C656 1.377 1_554 S
C643 C642 1.524 . S
C643 C644 1.397 . S
C643 C648 1.363 . S
C644 H621 0.950 . S
C644 C643 1.397 . S
C644 C645 1.334 . S
C645 H622 0.950 . S
C645 C644 1.334 . S
C645 C646 1.287 . S
C646 C645 1.287 . S
C646 C647 1.524 . S
C646 H665 0.913 . S
C647 H623 0.950 . S
C647 C646 1.524 . S
C647 C648 1.415 . S
C648 H624 0.950 . S
C648 C643 1.363 . S
C648 C647 1.415 . S
C649 H625 0.951 . S
C649 C650 1.368 . S
C649 C651 1.388 . S
C650 C649 1.368 . S
C650 C654 1.382 1_565 S
C651 H626 0.951 . S
C651 C649 1.388 . S
C651 C652 1.366 . S
C652 C651 1.366 . S
C652 C653 1.414 1_565 S
C652 C655 1.499 . S
C653 H627 0.950 . S
C653 C652 1.414 1_545 S
C653 C654 1.374 . S
C654 H628 0.950 . S
C654 C650 1.382 1_545 S
C654 C653 1.374 . S
C655 C652 1.499 . S
C655 C656 1.373 1_565 S
C655 C657 1.389 . S
C656 H629 0.950 . S
C656 C642 1.377 1_556 S
C656 C655 1.373 1_545 S
C657 C641 1.377 1_556 S
C657 C655 1.389 . S
C657 C658 1.524 . S
C658 C657 1.524 . S
C658 C659 1.397 . S
C658 C663 1.363 . S
C659 H630 0.950 . S
C659 C658 1.397 . S
C659 C660 1.334 . S
C660 H631 0.950 . S
C660 C659 1.334 . S
C660 C661 1.287 . S
C661 C660 1.287 . S
C661 C662 1.524 . S
C661 H664 0.999 . S
C662 H632 0.950 . S
C662 C661 1.524 . S
C662 C663 1.415 . S
C663 H633 0.950 . S
C663 C658 1.363 . S
C663 C662 1.415 . S
H664 C661 0.999 . S
H665 C646 0.913 . S
H666 C684 0.951 . S
H667 C686 0.951 . S
H668 C688 0.950 . S
H669 C689 0.950 . S
H670 C691 0.950 . S
H671 C694 0.950 . S
H672 C695 0.950 . S
H673 C697 0.950 . S
H674 C698 0.950 . S
H675 C699 0.951 . S
H676 C701 0.951 . S
H677 C703 0.950 . S
H678 C704 0.950 . S
H679 C706 0.950 . S
H680 C709 0.950 . S
H681 C710 0.950 . S
H682 C712 0.950 . S
H683 C713 0.950 . S
C684 H666 0.951 . S
C684 C685 1.366 . S
C684 C686 1.388 . S
C685 C684 1.366 . S
C685 C689 1.385 . S
C686 H667 0.951 . S
C686 C684 1.388 . S
C686 C687 1.366 . S
C687 C686 1.366 . S
C687 C688 1.414 . S
C687 C690 1.499 . S
C688 H668 0.950 . S
C688 C687 1.414 . S
C688 C689 1.374 . S
C689 H669 0.950 . S
C689 C685 1.385 . S
C689 C688 1.374 . S
C690 C687 1.499 . S
C690 C691 1.373 . S
C690 C692 1.389 . S
C691 H670 0.950 . S
C691 C690 1.373 . S
C691 C707 1.377 1_554 S
C692 C690 1.389 . S
C692 C693 1.524 . S
C692 C706 1.377 . S
C693 C692 1.524 . S
C693 C694 1.397 . S
C693 C698 1.363 . S
C694 H671 0.950 . S
C694 C693 1.397 . S
C694 C695 1.334 . S
C695 H672 0.950 . S
C695 C694 1.334 . S
C695 C696 1.287 . S
C696 C695 1.287 . S
C696 C697 1.524 . S
C696 H715 0.913 . S
C697 H673 0.950 . S
C697 C696 1.524 . S
C697 C698 1.415 . S
C698 H674 0.950 . S
C698 C693 1.363 . S
C698 C697 1.415 . S
C699 H675 0.951 . S
C699 C700 1.366 . S
C699 C701 1.388 . S
C700 C699 1.366 . S
C700 C704 1.385 . S
C701 H676 0.951 . S
C701 C699 1.388 . S
C701 C702 1.366 . S
C702 C701 1.366 . S
C702 C703 1.414 . S
C702 C705 1.499 . S
C703 H677 0.950 . S
C703 C702 1.414 . S
C703 C704 1.374 . S
C704 H678 0.950 . S
C704 C700 1.385 . S
C704 C703 1.374 . S
C705 C702 1.499 . S
C705 C706 1.373 1_556 S
C705 C707 1.389 . S
C706 H679 0.950 . S
C706 C692 1.377 . S
C706 C705 1.373 1_554 S
C707 C691 1.377 1_556 S
C707 C705 1.389 . S
C707 C708 1.524 . S
C708 C707 1.524 . S
C708 C709 1.397 . S
C708 C713 1.363 . S
C709 H680 0.950 . S
C709 C708 1.397 . S
C709 C710 1.334 . S
C710 H681 0.950 . S
C710 C709 1.334 . S
C710 C711 1.287 . S
C711 C710 1.287 . S
C711 C712 1.524 . S
C711 H714 0.999 . S
C712 H682 0.950 . S
C712 C711 1.524 . S
C712 C713 1.415 . S
C713 H683 0.950 . S
C713 C708 1.363 . S
C713 C712 1.415 . S
H714 C711 0.999 . S
H715 C696 0.913 . S
H716 C734 0.951 . S
H717 C736 0.951 . S
H718 C738 0.950 . S
H719 C739 0.950 . S
H720 C741 0.950 . S
H721 C744 0.950 . S
H722 C745 0.950 . S
H723 C747 0.950 . S
H724 C748 0.950 . S
H725 C749 0.951 . S
H726 C751 0.951 . S
H727 C753 0.950 . S
H728 C754 0.950 . S
H729 C756 0.950 . S
H730 C759 0.950 . S
H731 C760 0.950 . S
H732 C762 0.950 . S
H733 C763 0.950 . S
C734 H716 0.951 . S
C734 C735 1.366 . S
C734 C736 1.388 . S
C735 C734 1.366 . S
C735 C739 1.385 . S
C736 H717 0.951 . S
C736 C734 1.388 . S
C736 C737 1.366 . S
C737 C736 1.366 . S
C737 C738 1.414 . S
C737 C740 1.499 . S
C738 H718 0.950 . S
C738 C737 1.414 . S
C738 C739 1.374 . S
C739 H719 0.950 . S
C739 C735 1.385 . S
C739 C738 1.374 . S
C740 C737 1.499 . S
C740 C741 1.373 . S
C740 C742 1.389 . S
C741 H720 0.950 . S
C741 C740 1.373 . S
C741 C757 1.377 . S
C742 C740 1.389 . S
C742 C743 1.524 . S
C742 C756 1.377 1_554 S
C743 C742 1.524 . S
C743 C744 1.397 . S
C743 C748 1.363 1_554 S
C744 H721 0.950 . S
C744 C743 1.397 . S
C744 C745 1.334 . S
C745 H722 0.950 . S
C745 C744 1.334 . S
C745 C746 1.287 . S
C746 C745 1.287 . S
C746 C747 1.524 1_554 S
C746 H765 0.913 . S
C747 H723 0.950 . S
C747 C746 1.524 1_556 S
C747 C748 1.415 . S
C748 H724 0.950 . S
C748 C743 1.363 1_556 S
C748 C747 1.415 . S
C749 H725 0.951 . S
C749 C750 1.366 . S
C749 C751 1.388 . S
C750 C749 1.366 . S
C750 C754 1.385 . S
C751 H726 0.951 . S
C751 C749 1.388 . S
C751 C752 1.366 . S
C752 C751 1.366 . S
C752 C753 1.414 . S
C752 C755 1.499 . S
C753 H727 0.950 . S
C753 C752 1.414 . S
C753 C754 1.374 . S
C754 H728 0.950 . S
C754 C750 1.385 . S
C754 C753 1.374 . S
C755 C752 1.499 . S
C755 C756 1.373 . S
C755 C757 1.389 1_556 S
C756 H729 0.950 . S
C756 C742 1.377 1_556 S
C756 C755 1.373 . S
C757 C741 1.377 . S
C757 C755 1.389 1_554 S
C757 C758 1.524 . S
C758 C757 1.524 . S
C758 C759 1.397 1_554 S
C758 C763 1.363 . S
C759 H730 0.950 . S
C759 C758 1.397 1_556 S
C759 C760 1.334 . S
C760 H731 0.950 . S
C760 C759 1.334 . S
C760 C761 1.287 . S
C761 C760 1.287 . S
C761 C762 1.524 1_556 S
C761 H764 0.999 . S
C762 H732 0.950 . S
C762 C761 1.524 1_554 S
C762 C763 1.415 . S
C763 H733 0.950 . S
C763 C758 1.363 . S
C763 C762 1.415 . S
H764 C761 0.999 . S
H765 C746 0.913 . S
H766 C784 0.951 . S
H767 C786 0.951 . S
H768 C788 0.950 . S
H769 C789 0.950 . S
H770 C791 0.950 . S
H771 C794 0.950 . S
H772 C795 0.950 . S
H773 C797 0.949 1_556 S
H774 C798 0.950 . S
H775 C799 0.951 . S
H776 C801 0.951 . S
H777 C803 0.950 . S
H778 C804 0.950 . S
H779 C806 0.950 . S
H780 C809 0.950 . S
H781 C810 0.950 . S
H782 C812 0.950 . S
H783 C813 0.950 . S
C784 H766 0.951 . S
C784 C785 1.361 1_455 S
C784 C786 1.388 . S
C785 C784 1.361 1_655 S
C785 C789 1.390 . S
C786 H767 0.951 . S
C786 C784 1.388 . S
C786 C787 1.366 1_455 S
C787 C786 1.366 1_655 S
C787 C788 1.414 . S
C787 C790 1.498 . S
C788 H768 0.950 . S
C788 C787 1.414 . S
C788 C789 1.374 . S
C789 H769 0.950 . S
C789 C785 1.390 . S
C789 C788 1.374 . S
C790 C787 1.498 . S
C790 C791 1.405 . S
C790 C792 1.358 1_655 S
C791 H770 0.950 . S
C791 C790 1.405 . S
C791 C807 1.377 . S
C792 C790 1.358 1_455 S
C792 C793 1.524 . S
C792 C806 1.377 1_554 S
C793 C792 1.524 . S
C793 C794 1.397 . S
C793 C798 1.363 . S
C794 H771 0.950 . S
C794 C793 1.397 . S
C794 C795 1.334 . S
C795 H772 0.950 . S
C795 C794 1.334 . S
C795 C796 1.287 . S
C796 C795 1.287 . S
C796 C797 1.524 . S
C796 H815 0.913 . S
C797 H773 0.949 1_554 S
C797 C796 1.524 . S
C797 C798 1.415 . S
C798 H774 0.950 . S
C798 C793 1.363 . S
C798 C797 1.415 . S
C799 H775 0.951 . S
C799 C800 1.410 . S
C799 C801 1.388 . S
C800 C799 1.410 . S
C800 C804 1.341 1_655 S
C801 H776 0.951 . S
C801 C799 1.388 . S
C801 C802 1.415 . S
C802 C801 1.415 . S
C802 C803 1.365 1_655 S
C802 C805 1.498 . S
C803 H777 0.950 . S
C803 C802 1.365 1_455 S
C803 C804 1.374 . S
C804 H778 0.950 . S
C804 C800 1.341 1_455 S
C804 C803 1.374 . S
C805 C802 1.498 . S
C805 C806 1.361 1_655 S
C805 C807 1.401 1_556 S
C806 H779 0.950 . S
C806 C792 1.377 1_556 S
C806 C805 1.361 1_455 S
C807 C791 1.377 . S
C807 C805 1.401 1_554 S
C807 C808 1.524 . S
C808 C807 1.524 . S
C808 C809 1.397 . S
C808 C813 1.363 . S
C809 H780 0.950 . S
C809 C808 1.397 . S
C809 C810 1.334 . S
C810 H781 0.950 . S
C810 C809 1.334 . S
C810 C811 1.287 . S
C811 C810 1.287 . S
C811 C812 1.524 . S
C811 H814 0.999 . S
C812 H782 0.950 . S
C812 C811 1.524 . S
C812 C813 1.415 . S
C813 H783 0.950 . S
C813 C808 1.363 . S
C813 C812 1.415 . S
H814 C811 0.999 . S
H815 C796 0.913 . S
H816 C834 0.951 . S
H817 C836 0.946 1_455 S
H818 C838 0.950 . S
H819 C839 0.950 . S
H820 C841 0.950 1_455 S
H821 C844 0.950 . S
H822 C845 0.950 . S
H823 C847 0.950 . S
H824 C848 0.950 . S
H825 C849 0.951 . S
H826 C851 0.951 . S
H827 C853 0.950 . S
H828 C854 0.950 . S
H829 C856 0.950 . S
H830 C859 0.950 . S
H831 C860 0.950 . S
H832 C862 0.950 . S
H833 C863 0.952 . S
C834 H816 0.951 . S
C834 C835 1.366 . S
C834 C836 1.382 1_455 S
C835 C834 1.366 . S
C835 C839 1.385 1_455 S
C836 H817 0.946 1_655 S
C836 C834 1.382 1_655 S
C836 C837 1.375 . S
C837 C836 1.375 . S
C837 C838 1.414 . S
C837 C840 1.499 . S
C838 H818 0.950 . S
C838 C837 1.414 . S
C838 C839 1.374 . S
C839 H819 0.950 . S
C839 C835 1.385 1_655 S
C839 C838 1.374 . S
C840 C837 1.499 . S
C840 C841 1.373 . S
C840 C842 1.389 . S
C841 H820 0.950 1_655 S
C841 C840 1.373 . S
C841 C857 1.377 . S
C842 C840 1.389 . S
C842 C843 1.524 . S
C842 C856 1.377 . S
C843 C842 1.524 . S
C843 C844 1.397 . S
C843 C848 1.363 . S
C844 H821 0.950 . S
C844 C843 1.397 . S
C844 C845 1.334 . S
C845 H822 0.950 . S
C845 C844 1.334 . S
C845 C846 1.287 . S
C846 C845 1.287 . S
C846 C847 1.524 . S
C846 H865 0.913 . S
C847 H823 0.950 . S
C847 C846 1.524 . S
C847 C848 1.415 . S
C848 H824 0.950 . S
C848 C843 1.363 . S
C848 C847 1.415 . S
C849 H825 0.951 . S
C849 C850 1.366 . S
C849 C851 1.388 . S
C850 C849 1.366 . S
C850 C854 1.385 . S
C851 H826 0.951 . S
C851 C849 1.388 . S
C851 C852 1.366 . S
C852 C851 1.366 . S
C852 C853 1.414 . S
C852 C855 1.499 . S
C853 H827 0.950 . S
C853 C852 1.414 . S
C853 C854 1.374 . S
C854 H828 0.950 . S
C854 C850 1.385 . S
C854 C853 1.374 . S
C855 C852 1.499 . S
C855 C856 1.373 . S
C855 C857 1.389 . S
C856 H829 0.950 . S
C856 C842 1.377 . S
C856 C855 1.373 . S
C857 C841 1.377 . S
C857 C855 1.389 . S
C857 C858 1.524 1_655 S
C858 C857 1.524 1_455 S
C858 C859 1.397 . S
C858 C863 1.363 . S
C859 H830 0.950 . S
C859 C858 1.397 . S
C859 C860 1.334 . S
C860 H831 0.950 . S
C860 C859 1.334 . S
C860 C861 1.287 . S
C861 C860 1.287 . S
C861 C862 1.524 . S
C861 H864 0.999 . S
C862 H832 0.950 . S
C862 C861 1.524 . S
C862 C863 1.415 . S
C863 H833 0.952 . S
C863 C858 1.363 . S
C863 C862 1.415 . S
H864 C861 0.999 . S
H865 C846 0.913 . S
H866 C884 0.951 . S
H867 C886 0.951 . S
H868 C888 0.950 . S
H869 C889 0.950 . S
H870 C891 0.950 . S
H871 C894 0.950 . S
H872 C895 0.950 . S
H873 C897 0.950 . S
H874 C898 0.950 . S
H875 C899 0.951 . S
H876 C901 0.951 . S
H877 C903 0.950 . S
H878 C904 0.950 . S
H879 C906 0.950 . S
H880 C909 0.950 . S
H881 C910 0.950 . S
H882 C912 0.950 . S
H883 C913 0.950 . S
C884 H866 0.951 . S
C884 C885 1.366 1_565 S
C884 C886 1.388 . S
C885 C884 1.366 1_545 S
C885 C889 1.385 . S
C886 H867 0.951 . S
C886 C884 1.388 . S
C886 C887 1.366 . S
C887 C886 1.366 . S
C887 C888 1.414 1_565 S
C887 C890 1.499 . S
C888 H868 0.950 . S
C888 C887 1.414 1_545 S
C888 C889 1.374 . S
C889 H869 0.950 . S
C889 C885 1.385 . S
C889 C888 1.374 . S
C890 C887 1.499 . S
C890 C891 1.373 1_565 S
C890 C892 1.389 . S
C891 H870 0.950 . S
C891 C890 1.373 1_545 S
C891 C907 1.377 . S
C892 C890 1.389 . S
C892 C893 1.524 . S
C892 C906 1.377 . S
C893 C892 1.524 . S
C893 C894 1.397 . S
C893 C898 1.363 . S
C894 H871 0.950 . S
C894 C893 1.397 . S
C894 C895 1.334 . S
C895 H872 0.950 . S
C895 C894 1.334 . S
C895 C896 1.287 . S
C896 C895 1.287 . S
C896 C897 1.524 . S
C896 H915 0.913 . S
C897 H873 0.950 . S
C897 C896 1.524 . S
C897 C898 1.415 . S
C898 H874 0.950 . S
C898 C893 1.363 . S
C898 C897 1.415 . S
C899 H875 0.951 . S
C899 C900 1.366 . S
C899 C901 1.388 . S
C900 C899 1.366 . S
C900 C904 1.385 . S
C901 H876 0.951 . S
C901 C899 1.388 . S
C901 C902 1.366 . S
C902 C901 1.366 . S
C902 C903 1.414 . S
C902 C905 1.499 . S
C903 H877 0.950 . S
C903 C902 1.414 . S
C903 C904 1.374 . S
C904 H878 0.950 . S
C904 C900 1.385 . S
C904 C903 1.374 . S
C905 C902 1.499 . S
C905 C906 1.373 . S
C905 C907 1.389 1_565 S
C906 H879 0.950 . S
C906 C892 1.377 . S
C906 C905 1.373 . S
C907 C891 1.377 . S
C907 C905 1.389 1_545 S
C907 C908 1.524 . S
C908 C907 1.524 . S
C908 C909 1.397 . S
C908 C913 1.363 . S
C909 H880 0.950 . S
C909 C908 1.397 . S
C909 C910 1.334 . S
C910 H881 0.950 . S
C910 C909 1.334 . S
C910 C911 1.287 . S
C911 C910 1.287 . S
C911 C912 1.524 . S
C911 H914 0.999 . S
C912 H882 0.950 . S
C912 C911 1.524 . S
C912 C913 1.415 . S
C913 H883 0.950 . S
C913 C908 1.363 . S
C913 C912 1.415 . S
H914 C911 0.999 . S
H915 C896 0.913 . S
H916 C934 0.951 . S
H917 C936 0.951 . S
H918 C938 0.950 . S
H919 C939 0.950 . S
H920 C941 0.950 . S
H921 C944 0.950 . S
H922 C945 0.950 . S
H923 C947 0.950 . S
H924 C948 0.950 . S
H925 C949 0.951 . S
H926 C951 0.951 . S
H927 C953 0.950 . S
H928 C954 0.950 . S
H929 C956 0.950 . S
H930 C959 0.950 . S
H931 C960 0.950 . S
H932 C962 0.950 . S
H933 C963 0.950 . S
C934 H916 0.951 . S
C934 C935 1.366 . S
C934 C936 1.388 . S
C935 C934 1.366 . S
C935 C939 1.385 . S
C936 H917 0.951 . S
C936 C934 1.388 . S
C936 C937 1.366 . S
C937 C936 1.366 . S
C937 C938 1.414 . S
C937 C940 1.499 . S
C938 H918 0.950 . S
C938 C937 1.414 . S
C938 C939 1.374 . S
C939 H919 0.950 . S
C939 C935 1.385 . S
C939 C938 1.374 . S
C940 C937 1.499 . S
C940 C941 1.373 . S
C940 C942 1.389 . S
C941 H920 0.950 . S
C941 C940 1.373 . S
C941 C957 1.377 . S
C942 C940 1.389 . S
C942 C943 1.524 . S
C942 C956 1.377 . S
C943 C942 1.524 . S
C943 C944 1.397 . S
C943 C948 1.363 . S
C944 H921 0.950 . S
C944 C943 1.397 . S
C944 C945 1.334 . S
C945 H922 0.950 . S
C945 C944 1.334 . S
C945 C946 1.287 . S
C946 C945 1.287 . S
C946 C947 1.524 . S
C946 H965 0.913 . S
C947 H923 0.950 . S
C947 C946 1.524 . S
C947 C948 1.415 . S
C948 H924 0.950 . S
C948 C943 1.363 . S
C948 C947 1.415 . S
C949 H925 0.951 . S
C949 C950 1.366 . S
C949 C951 1.388 . S
C950 C949 1.366 . S
C950 C954 1.385 . S
C951 H926 0.951 . S
C951 C949 1.388 . S
C951 C952 1.366 . S
C952 C951 1.366 . S
C952 C953 1.414 . S
C952 C955 1.499 . S
C953 H927 0.950 . S
C953 C952 1.414 . S
C953 C954 1.374 . S
C954 H928 0.950 . S
C954 C950 1.385 . S
C954 C953 1.374 . S
C955 C952 1.499 . S
C955 C956 1.373 . S
C955 C957 1.389 . S
C956 H929 0.950 . S
C956 C942 1.377 . S
C956 C955 1.373 . S
C957 C941 1.377 . S
C957 C955 1.389 . S
C957 C958 1.524 . S
C958 C957 1.524 . S
C958 C959 1.397 . S
C958 C963 1.363 . S
C959 H930 0.950 . S
C959 C958 1.397 . S
C959 C960 1.334 . S
C960 H931 0.950 . S
C960 C959 1.334 . S
C960 C961 1.287 . S
C961 C960 1.287 . S
C961 C962 1.524 . S
C961 H964 0.999 . S
C962 H932 0.950 . S
C962 C961 1.524 . S
C962 C963 1.415 . S
C963 H933 0.950 . S
C963 C958 1.363 . S
C963 C962 1.415 . S
H964 C961 0.999 . S
H965 C946 0.913 . S
H966 C984 0.951 . S
H967 C986 0.951 . S
H968 C988 0.950 . S
H969 C989 0.950 . S
H970 C991 0.950 . S
H971 C994 0.950 . S
H972 C995 0.950 . S
H973 C997 0.950 . S
H974 C998 0.950 . S
H975 C999 0.951 . S
H976 C1001 0.951 . S
H977 C1003 0.950 . S
H978 C1004 0.950 . S
H979 C1006 0.950 . S
H980 C1009 0.950 . S
H981 C1010 0.950 . S
H982 C1012 0.950 . S
H983 C1013 0.950 . S
C984 H966 0.951 . S
C984 C985 1.366 . S
C984 C986 1.388 . S
C985 C984 1.366 . S
C985 C989 1.385 . S
C986 H967 0.951 . S
C986 C984 1.388 . S
C986 C987 1.366 . S
C987 C986 1.366 . S
C987 C988 1.414 . S
C987 C990 1.499 . S
C988 H968 0.950 . S
C988 C987 1.414 . S
C988 C989 1.374 . S
C989 H969 0.950 . S
C989 C985 1.385 . S
C989 C988 1.374 . S
C990 C987 1.499 . S
C990 C991 1.373 . S
C990 C992 1.389 . S
C991 H970 0.950 . S
C991 C990 1.373 . S
C991 C1007 1.377 . S
C992 C990 1.389 . S
C992 C993 1.524 . S
C992 C1006 1.377 . S
C993 C992 1.524 . S
C993 C994 1.397 . S
C993 C998 1.363 . S
C994 H971 0.950 . S
C994 C993 1.397 . S
C994 C995 1.334 . S
C995 H972 0.950 . S
C995 C994 1.334 . S
C995 C996 1.287 . S
C996 C995 1.287 . S
C996 C997 1.524 . S
C996 H1015 0.913 . S
C997 H973 0.950 . S
C997 C996 1.524 . S
C997 C998 1.415 . S
C998 H974 0.950 . S
C998 C993 1.363 . S
C998 C997 1.415 . S
C999 H975 0.951 . S
C999 C1000 1.366 . S
C999 C1001 1.388 . S
C1000 C999 1.366 . S
C1000 C1004 1.385 . S
C1001 H976 0.951 . S
C1001 C999 1.388 . S
C1001 C1002 1.366 . S
C1002 C1001 1.366 . S
C1002 C1003 1.414 . S
C1002 C1005 1.499 . S
C1003 H977 0.950 . S
C1003 C1002 1.414 . S
C1003 C1004 1.374 . S
C1004 H978 0.950 . S
C1004 C1000 1.385 . S
C1004 C1003 1.374 . S
C1005 C1002 1.499 . S
C1005 C1006 1.373 . S
C1005 C1007 1.389 . S
C1006 H979 0.950 . S
C1006 C992 1.377 . S
C1006 C1005 1.373 . S
C1007 C991 1.377 . S
C1007 C1005 1.389 . S
C1007 C1008 1.524 . S
C1008 C1007 1.524 . S
C1008 C1009 1.397 . S
C1008 C1013 1.363 . S
C1009 H980 0.950 . S
C1009 C1008 1.397 . S
C1009 C1010 1.334 . S
C1010 H981 0.950 . S
C1010 C1009 1.334 . S
C1010 C1011 1.287 . S
C1011 C1010 1.287 . S
C1011 C1012 1.524 . S
C1011 H1014 0.999 . S
C1012 H982 0.950 . S
C1012 C1011 1.524 . S
C1012 C1013 1.415 . S
C1013 H983 0.950 . S
C1013 C1008 1.363 . S
C1013 C1012 1.415 . S
H1014 C1011 0.999 . S
H1015 C996 0.913 . S
H1016 C1034 0.951 . S
H1017 C1036 0.951 . S
H1018 C1038 0.950 . S
H1019 C1039 0.950 . S
H1020 C1041 0.950 . S
H1021 C1044 0.950 1_455 S
H1022 C1045 0.950 . S
H1023 C1047 0.950 . S
H1024 C1048 0.950 . S
H1025 C1049 0.951 . S
H1026 C1051 0.951 . S
H1027 C1053 0.950 1_655 S
H1028 C1054 0.950 1_655 S
H1029 C1056 0.950 1_655 S
H1030 C1059 0.950 . S
H1031 C1060 0.950 . S
H1032 C1062 0.950 . S
H1033 C1063 0.950 . S
C1034 H1016 0.951 . S
C1034 C1035 1.366 . S
C1034 C1036 1.388 . S
C1035 C1034 1.366 . S
C1035 C1039 1.385 1_655 S
C1036 H1017 0.951 . S
C1036 C1034 1.388 . S
C1036 C1037 1.366 1_655 S
C1037 C1036 1.366 1_455 S
C1037 C1038 1.414 . S
C1037 C1040 1.499 . S
C1038 H1018 0.950 . S
C1038 C1037 1.414 . S
C1038 C1039 1.374 . S
C1039 H1019 0.950 . S
C1039 C1035 1.385 1_455 S
C1039 C1038 1.374 . S
C1040 C1037 1.499 . S
C1040 C1041 1.373 . S
C1040 C1042 1.392 1_455 S
C1041 H1020 0.950 . S
C1041 C1040 1.373 . S
C1041 C1057 1.377 . S
C1042 C1040 1.392 1_655 S
C1042 C1043 1.522 1_554 S
C1042 C1056 1.377 1_654 S
C1043 C1042 1.522 1_556 S
C1043 C1044 1.397 . S
C1043 C1048 1.363 . S
C1044 H1021 0.950 1_655 S
C1044 C1043 1.397 . S
C1044 C1045 1.334 . S
C1045 H1022 0.950 . S
C1045 C1044 1.334 . S
C1045 C1046 1.287 . S
C1046 C1045 1.287 . S
C1046 C1047 1.524 . S
C1046 H1065 0.913 . S
C1047 H1023 0.950 . S
C1047 C1046 1.524 . S
C1047 C1048 1.415 . S
C1048 H1024 0.950 . S
C1048 C1043 1.363 . S
C1048 C1047 1.415 . S
C1049 H1025 0.951 . S
C1049 C1050 1.366 . S
C1049 C1051 1.388 . S
C1050 C1049 1.366 . S
C1050 C1054 1.385 . S
C1051 H1026 0.951 . S
C1051 C1049 1.388 . S
C1051 C1052 1.366 . S
C1052 C1051 1.366 . S
C1052 C1053 1.414 . S
C1052 C1055 1.499 . S
C1053 H1027 0.950 1_455 S
C1053 C1052 1.414 . S
C1053 C1054 1.374 . S
C1054 H1028 0.950 1_455 S
C1054 C1050 1.385 . S
C1054 C1053 1.374 . S
C1055 C1052 1.499 . S
C1055 C1056 1.373 . S
C1055 C1057 1.389 1_556 S
C1056 H1029 0.950 1_455 S
C1056 C1042 1.377 1_456 S
C1056 C1055 1.373 . S
C1057 C1041 1.377 . S
C1057 C1055 1.389 1_554 S
C1057 C1058 1.524 . S
C1058 C1057 1.524 . S
C1058 C1059 1.397 . S
C1058 C1063 1.363 . S
C1059 H1030 0.950 . S
C1059 C1058 1.397 . S
C1059 C1060 1.334 . S
C1060 H1031 0.950 . S
C1060 C1059 1.334 . S
C1060 C1061 1.287 . S
C1061 C1060 1.287 . S
C1061 C1062 1.524 . S
C1061 H1064 0.999 . S
C1062 H1032 0.950 . S
C1062 C1061 1.524 . S
C1062 C1063 1.415 . S
C1063 H1033 0.950 . S
C1063 C1058 1.363 . S
C1063 C1062 1.415 . S
H1064 C1061 0.999 . S
H1065 C1046 0.913 . S
H1066 C1084 0.951 . S
H1067 C1086 0.951 . S
H1068 C1088 0.950 . S
H1069 C1089 0.950 . S
H1070 C1091 0.950 1_566 S
H1071 C1094 0.950 1_565 S
H1072 C1095 0.950 1_565 S
H1073 C1097 0.950 . S
H1074 C1098 0.950 . S
H1075 C1099 0.951 1_565 S
H1076 C1101 0.951 1_565 S
H1077 C1103 0.950 . S
H1078 C1104 0.950 . S
H1079 C1106 0.950 . S
H1080 C1109 0.950 . S
H1081 C1110 0.950 . S
H1082 C1112 0.950 . S
H1083 C1113 0.950 . S
C1084 H1066 0.951 . S
C1084 C1085 1.366 1_545 S
C1084 C1086 1.388 . S
C1085 C1084 1.366 1_565 S
C1085 C1089 1.385 . S
C1086 H1067 0.951 . S
C1086 C1084 1.388 . S
C1086 C1087 1.366 . S
C1087 C1086 1.366 . S
C1087 C1088 1.414 1_545 S
C1087 C1090 1.499 . S
C1088 H1068 0.950 . S
C1088 C1087 1.414 1_565 S
C1088 C1089 1.374 . S
C1089 H1069 0.950 . S
C1089 C1085 1.385 . S
C1089 C1088 1.374 . S
C1090 C1087 1.499 . S
C1090 C1091 1.373 . S
C1090 C1092 1.389 . S
C1091 H1070 0.950 1_544 S
C1091 C1090 1.373 . S
C1091 C1107 1.377 1_554 S
C1092 C1090 1.389 . S
C1092 C1093 1.524 . S
C1092 C1106 1.377 . S
C1093 C1092 1.524 . S
C1093 C1094 1.397 . S
C1093 C1098 1.363 . S
C1094 H1071 0.950 1_545 S
C1094 C1093 1.397 . S
C1094 C1095 1.334 . S
C1095 H1072 0.950 1_545 S
C1095 C1094 1.334 . S
C1095 C1096 1.287 . S
C1096 C1095 1.287 . S
C1096 C1097 1.524 . S
C1096 H1115 0.913 . S
C1097 H1073 0.950 . S
C1097 C1096 1.524 . S
C1097 C1098 1.415 . S
C1098 H1074 0.950 . S
C1098 C1093 1.363 . S
C1098 C1097 1.415 . S
C1099 H1075 0.951 1_545 S
C1099 C1100 1.366 . S
C1099 C1101 1.388 . S
C1100 C1099 1.366 . S
C1100 C1104 1.385 . S
C1101 H1076 0.951 1_545 S
C1101 C1099 1.388 . S
C1101 C1102 1.366 . S
C1102 C1101 1.366 . S
C1102 C1103 1.414 . S
C1102 C1105 1.499 . S
C1103 H1077 0.950 . S
C1103 C1102 1.414 . S
C1103 C1104 1.374 . S
C1104 H1078 0.950 . S
C1104 C1100 1.385 . S
C1104 C1103 1.374 . S
C1105 C1102 1.499 . S
C1105 C1106 1.373 1_556 S
C1105 C1107 1.389 . S
C1106 H1079 0.950 . S
C1106 C1092 1.377 . S
C1106 C1105 1.373 1_554 S
C1107 C1091 1.377 1_556 S
C1107 C1105 1.389 . S
C1107 C1108 1.524 . S
C1108 C1107 1.524 . S
C1108 C1109 1.397 . S
C1108 C1113 1.363 1_545 S
C1109 H1080 0.950 . S
C1109 C1108 1.397 . S
C1109 C1110 1.334 . S
C1110 H1081 0.950 . S
C1110 C1109 1.334 . S
C1110 C1111 1.287 . S
C1111 C1110 1.287 . S
C1111 C1112 1.523 1_545 S
C1111 H1114 0.999 1_545 S
C1112 H1082 0.950 . S
C1112 C1111 1.523 1_565 S
C1112 C1113 1.415 . S
C1113 H1083 0.950 . S
C1113 C1108 1.363 1_565 S
C1113 C1112 1.415 . S
H1114 C1111 0.999 1_565 S
H1115 C1096 0.913 . S
H1116 C1134 0.951 . S
H1117 C1136 0.951 . S
H1118 C1138 0.950 . S
H1119 C1139 0.950 . S
H1120 C1141 0.950 . S
H1121 C1144 0.950 . S
H1122 C1145 0.950 . S
H1123 C1147 0.950 . S
H1124 C1148 0.950 . S
H1125 C1149 0.951 . S
H1126 C1151 0.951 . S
H1127 C1153 0.950 . S
H1128 C1154 0.950 . S
H1129 C1156 0.950 . S
H1130 C1159 0.950 . S
H1131 C1160 0.950 . S
H1132 C1162 0.950 . S
H1133 C1163 0.950 . S
C1134 H1116 0.951 . S
C1134 C1135 1.366 . S
C1134 C1136 1.388 . S
C1135 C1134 1.366 . S
C1135 C1139 1.385 . S
C1136 H1117 0.951 . S
C1136 C1134 1.388 . S
C1136 C1137 1.366 . S
C1137 C1136 1.366 . S
C1137 C1138 1.414 . S
C1137 C1140 1.499 . S
C1138 H1118 0.950 . S
C1138 C1137 1.414 . S
C1138 C1139 1.374 . S
C1139 H1119 0.950 . S
C1139 C1135 1.385 . S
C1139 C1138 1.374 . S
C1140 C1137 1.499 . S
C1140 C1141 1.373 . S
C1140 C1142 1.389 . S
C1141 H1120 0.950 . S
C1141 C1140 1.373 . S
C1141 C1157 1.377 . S
C1142 C1140 1.389 . S
C1142 C1143 1.524 1_554 S
C1142 C1156 1.377 1_554 S
C1143 C1142 1.524 1_556 S
C1143 C1144 1.397 . S
C1143 C1148 1.363 . S
C1144 H1121 0.950 . S
C1144 C1143 1.397 . S
C1144 C1145 1.334 . S
C1145 H1122 0.950 . S
C1145 C1144 1.334 . S
C1145 C1146 1.287 . S
C1146 C1145 1.287 . S
C1146 C1147 1.524 . S
C1146 H1165 0.913 . S
C1147 H1123 0.950 . S
C1147 C1146 1.524 . S
C1147 C1148 1.415 . S
C1148 H1124 0.950 . S
C1148 C1143 1.363 . S
C1148 C1147 1.415 . S
C1149 H1125 0.951 . S
C1149 C1150 1.366 . S
C1149 C1151 1.388 . S
C1150 C1149 1.366 . S
C1150 C1154 1.385 . S
C1151 H1126 0.951 . S
C1151 C1149 1.388 . S
C1151 C1152 1.366 . S
C1152 C1151 1.366 . S
C1152 C1153 1.414 . S
C1152 C1155 1.499 . S
C1153 H1127 0.950 . S
C1153 C1152 1.414 . S
C1153 C1154 1.374 . S
C1154 H1128 0.950 . S
C1154 C1150 1.385 . S
C1154 C1153 1.374 . S
C1155 C1152 1.499 . S
C1155 C1156 1.373 . S
C1155 C1157 1.389 1_556 S
C1156 H1129 0.950 . S
C1156 C1142 1.377 1_556 S
C1156 C1155 1.373 . S
C1157 C1141 1.377 . S
C1157 C1155 1.389 1_554 S
C1157 C1158 1.524 . S
C1158 C1157 1.524 . S
C1158 C1159 1.397 . S
C1158 C1163 1.363 . S
C1159 H1130 0.950 . S
C1159 C1158 1.397 . S
C1159 C1160 1.334 . S
C1160 H1131 0.950 . S
C1160 C1159 1.334 . S
C1160 C1161 1.287 . S
C1161 C1160 1.287 . S
C1161 C1162 1.524 . S
C1161 H1164 0.999 . S
C1162 H1132 0.950 . S
C1162 C1161 1.524 . S
C1162 C1163 1.415 . S
C1163 H1133 0.950 . S
C1163 C1158 1.363 . S
C1163 C1162 1.415 . S
H1164 C1161 0.999 . S
H1165 C1146 0.913 . S
H1166 C1184 0.951 . S
H1167 C1186 0.951 . S
H1168 C1188 0.950 . S
H1169 C1189 0.950 . S
H1170 C1191 0.950 . S
H1171 C1194 0.950 . S
H1172 C1195 0.950 1_554 S
H1173 C1197 0.950 . S
H1174 C1198 0.950 . S
H1175 C1199 0.951 . S
H1176 C1201 0.951 1_554 S
H1177 C1203 0.950 . S
H1178 C1204 0.950 . S
H1179 C1206 0.950 . S
H1180 C1209 0.950 . S
H1181 C1210 0.950 . S
H1182 C1212 0.950 . S
H1183 C1213 0.950 . S
C1184 H1166 0.951 . S
C1184 C1185 1.366 . S
C1184 C1186 1.388 . S
C1185 C1184 1.366 . S
C1185 C1189 1.385 . S
C1186 H1167 0.951 . S
C1186 C1184 1.388 . S
C1186 C1187 1.366 . S
C1187 C1186 1.366 . S
C1187 C1188 1.414 . S
C1187 C1190 1.499 . S
C1188 H1168 0.950 . S
C1188 C1187 1.414 . S
C1188 C1189 1.374 . S
C1189 H1169 0.950 . S
C1189 C1185 1.385 . S
C1189 C1188 1.374 . S
C1190 C1187 1.499 . S
C1190 C1191 1.373 . S
C1190 C1192 1.389 . S
C1191 H1170 0.950 . S
C1191 C1190 1.373 . S
C1191 C1207 1.377 . S
C1192 C1190 1.389 . S
C1192 C1193 1.524 1_554 S
C1192 C1206 1.377 1_554 S
C1193 C1192 1.524 1_556 S
C1193 C1194 1.397 1_556 S
C1193 C1198 1.363 . S
C1194 H1171 0.950 . S
C1194 C1193 1.397 1_554 S
C1194 C1195 1.334 1_554 S
C1195 H1172 0.950 1_556 S
C1195 C1194 1.334 1_556 S
C1195 C1196 1.287 . S
C1196 C1195 1.287 . S
C1196 C1197 1.524 . S
C1196 H1215 0.913 . S
C1197 H1173 0.950 . S
C1197 C1196 1.524 . S
C1197 C1198 1.415 . S
C1198 H1174 0.950 . S
C1198 C1193 1.363 . S
C1198 C1197 1.415 . S
C1199 H1175 0.951 . S
C1199 C1200 1.366 . S
C1199 C1201 1.388 . S
C1200 C1199 1.366 . S
C1200 C1204 1.385 . S
C1201 H1176 0.951 1_556 S
C1201 C1199 1.388 . S
C1201 C1202 1.366 . S
C1202 C1201 1.366 . S
C1202 C1203 1.414 . S
C1202 C1205 1.499 . S
C1203 H1177 0.950 . S
C1203 C1202 1.414 . S
C1203 C1204 1.374 . S
C1204 H1178 0.950 . S
C1204 C1200 1.385 . S
C1204 C1203 1.374 . S
C1205 C1202 1.499 . S
C1205 C1206 1.373 . S
C1205 C1207 1.389 1_556 S
C1206 H1179 0.950 . S
C1206 C1192 1.377 1_556 S
C1206 C1205 1.373 . S
C1207 C1191 1.377 . S
C1207 C1205 1.389 1_554 S
C1207 C1208 1.524 . S
C1208 C1207 1.524 . S
C1208 C1209 1.397 . S
C1208 C1213 1.363 . S
C1209 H1180 0.950 . S
C1209 C1208 1.397 . S
C1209 C1210 1.334 . S
C1210 H1181 0.950 . S
C1210 C1209 1.334 . S
C1210 C1211 1.287 . S
C1211 C1210 1.287 . S
C1211 C1212 1.524 . S
C1211 H1214 0.999 . S
C1212 H1182 0.950 . S
C1212 C1211 1.524 . S
C1212 C1213 1.415 . S
C1213 H1183 0.950 . S
C1213 C1208 1.363 . S
C1213 C1212 1.415 . S
H1214 C1211 0.999 . S
H1215 C1196 0.913 . S
H1216 C1234 0.951 . S
H1217 C1236 0.951 . S
H1218 C1238 0.950 . S
H1219 C1239 0.950 . S
H1220 C1241 0.950 . S
H1221 C1244 0.950 1_455 S
H1222 C1245 0.950 1_554 S
H1223 C1247 0.950 . S
H1224 C1248 0.950 . S
H1225 C1249 0.951 . S
H1226 C1251 0.951 . S
H1227 C1253 0.950 . S
H1228 C1254 0.950 . S
H1229 C1256 0.950 . S
H1230 C1259 0.950 . S
H1231 C1260 0.950 . S
H1232 C1262 0.950 . S
H1233 C1263 0.950 . S
C1234 H1216 0.951 . S
C1234 C1235 1.366 1_655 S
C1234 C1236 1.388 . S
C1235 C1234 1.366 1_455 S
C1235 C1239 1.385 . S
C1236 H1217 0.951 . S
C1236 C1234 1.388 . S
C1236 C1237 1.366 1_655 S
C1237 C1236 1.366 1_455 S
C1237 C1238 1.414 . S
C1237 C1240 1.499 . S
C1238 H1218 0.950 . S
C1238 C1237 1.414 . S
C1238 C1239 1.374 . S
C1239 H1219 0.950 . S
C1239 C1235 1.385 . S
C1239 C1238 1.374 . S
C1240 C1237 1.499 . S
C1240 C1241 1.373 . S
C1240 C1242 1.389 1_455 S
C1241 H1220 0.950 . S
C1241 C1240 1.373 . S
C1241 C1257 1.377 . S
C1242 C1240 1.389 1_655 S
C1242 C1243 1.524 . S
C1242 C1256 1.377 . S
C1243 C1242 1.524 . S
C1243 C1244 1.397 . S
C1243 C1248 1.363 . S
C1244 H1221 0.950 1_655 S
C1244 C1243 1.397 . S
C1244 C1245 1.334 . S
C1245 H1222 0.950 1_556 S
C1245 C1244 1.334 . S
C1245 C1246 1.287 1_556 S
C1246 C1245 1.287 1_554 S
C1246 C1247 1.524 1_554 S
C1246 H1265 0.913 . S
C1247 H1223 0.950 . S
C1247 C1246 1.524 1_556 S
C1247 C1248 1.415 . S
C1248 H1224 0.950 . S
C1248 C1243 1.363 . S
C1248 C1247 1.415 . S
C1249 H1225 0.951 . S
C1249 C1250 1.366 . S
C1249 C1251 1.388 . S
C1250 C1249 1.366 . S
C1250 C1254 1.385 1_455 S
C1251 H1226 0.951 . S
C1251 C1249 1.388 . S
C1251 C1252 1.366 . S
C1252 C1251 1.366 . S
C1252 C1253 1.414 1_455 S
C1252 C1255 1.499 . S
C1253 H1227 0.950 . S
C1253 C1252 1.414 1_655 S
C1253 C1254 1.374 . S
C1254 H1228 0.950 . S
C1254 C1250 1.385 1_655 S
C1254 C1253 1.374 . S
C1255 C1252 1.499 . S
C1255 C1256 1.373 1_455 S
C1255 C1257 1.389 . S
C1256 H1229 0.950 . S
C1256 C1242 1.377 . S
C1256 C1255 1.373 1_655 S
C1257 C1241 1.377 . S
C1257 C1255 1.389 . S
C1257 C1258 1.524 . S
C1258 C1257 1.524 . S
C1258 C1259 1.397 . S
C1258 C1263 1.363 . S
C1259 H1230 0.950 . S
C1259 C1258 1.397 . S
C1259 C1260 1.334 . S
C1260 H1231 0.950 . S
C1260 C1259 1.334 . S
C1260 C1261 1.287 . S
C1261 C1260 1.287 . S
C1261 C1262 1.524 . S
C1261 H1264 0.999 . S
C1262 H1232 0.950 . S
C1262 C1261 1.524 . S
C1262 C1263 1.415 . S
C1263 H1233 0.950 . S
C1263 C1258 1.363 . S
C1263 C1262 1.415 . S
H1264 C1261 0.999 . S
H1265 C1246 0.913 . S
H1266 C1284 0.951 . S
H1267 C1286 0.951 . S
H1268 C1288 0.950 . S
H1269 C1289 0.950 . S
H1270 C1291 0.950 . S
H1271 C1294 0.950 . S
H1272 C1295 0.950 . S
H1273 C1297 0.950 . S
H1274 C1298 0.950 . S
H1275 C1299 0.951 . S
H1276 C1301 0.951 . S
H1277 C1303 0.950 . S
H1278 C1304 0.950 . S
H1279 C1306 0.950 . S
H1280 C1309 0.950 . S
H1281 C1310 0.950 . S
H1282 C1312 0.950 . S
H1283 C1313 0.950 . S
C1284 H1266 0.951 . S
C1284 C1285 1.366 1_565 S
C1284 C1286 1.388 . S
C1285 C1284 1.366 1_545 S
C1285 C1289 1.385 . S
C1286 H1267 0.951 . S
C1286 C1284 1.388 . S
C1286 C1287 1.366 1_565 S
C1287 C1286 1.366 1_545 S
C1287 C1288 1.414 . S
C1287 C1290 1.499 . S
C1288 H1268 0.950 . S
C1288 C1287 1.414 . S
C1288 C1289 1.374 . S
C1289 H1269 0.950 . S
C1289 C1285 1.385 . S
C1289 C1288 1.374 . S
C1290 C1287 1.499 . S
C1290 C1291 1.373 . S
C1290 C1292 1.389 1_545 S
C1291 H1270 0.950 . S
C1291 C1290 1.373 . S
C1291 C1307 1.377 . S
C1292 C1290 1.389 1_565 S
C1292 C1293 1.524 . S
C1292 C1306 1.377 . S
C1293 C1292 1.524 . S
C1293 C1294 1.397 . S
C1293 C1298 1.363 . S
C1294 H1271 0.950 . S
C1294 C1293 1.397 . S
C1294 C1295 1.334 . S
C1295 H1272 0.950 . S
C1295 C1294 1.334 . S
C1295 C1296 1.287 . S
C1296 C1295 1.287 . S
C1296 C1297 1.524 . S
C1296 H1315 0.913 . S
C1297 H1273 0.950 . S
C1297 C1296 1.524 . S
C1297 C1298 1.415 . S
C1298 H1274 0.950 . S
C1298 C1293 1.363 . S
C1298 C1297 1.415 . S
C1299 H1275 0.951 . S
C1299 C1300 1.366 . S
C1299 C1301 1.388 . S
C1300 C1299 1.366 . S
C1300 C1304 1.385 1_545 S
C1301 H1276 0.951 . S
C1301 C1299 1.388 . S
C1301 C1302 1.366 . S
C1302 C1301 1.366 . S
C1302 C1303 1.414 1_545 S
C1302 C1305 1.499 . S
C1303 H1277 0.950 . S
C1303 C1302 1.414 1_565 S
C1303 C1304 1.374 . S
C1304 H1278 0.950 . S
C1304 C1300 1.385 1_565 S
C1304 C1303 1.374 . S
C1305 C1302 1.499 . S
C1305 C1306 1.373 1_545 S
C1305 C1307 1.389 . S
C1306 H1279 0.950 . S
C1306 C1292 1.377 . S
C1306 C1305 1.373 1_565 S
C1307 C1291 1.377 . S
C1307 C1305 1.389 . S
C1307 C1308 1.524 . S
C1308 C1307 1.524 . S
C1308 C1309 1.397 . S
C1308 C1313 1.363 . S
C1309 H1280 0.950 . S
C1309 C1308 1.397 . S
C1309 C1310 1.334 . S
C1310 H1281 0.950 . S
C1310 C1309 1.334 . S
C1310 C1311 1.287 . S
C1311 C1310 1.287 . S
C1311 C1312 1.524 . S
C1311 H1314 0.999 . S
C1312 H1282 0.950 . S
C1312 C1311 1.524 . S
C1312 C1313 1.415 . S
C1313 H1283 0.950 . S
C1313 C1308 1.363 . S
C1313 C1312 1.415 . S
H1314 C1311 0.999 . S
H1315 C1296 0.913 . S
H1316 C1334 0.951 . S
H1317 C1336 0.951 . S
H1318 C1338 0.950 . S
H1319 C1339 0.950 . S
H1320 C1341 0.950 . S
H1321 C1344 0.950 . S
H1322 C1345 0.950 . S
H1323 C1347 0.950 . S
H1324 C1348 0.950 . S
H1325 C1349 0.951 . S
H1326 C1351 0.951 . S
H1327 C1353 0.950 . S
H1328 C1354 0.950 . S
H1329 C1356 0.950 . S
H1330 C1359 0.950 . S
H1331 C1360 0.950 . S
H1332 C1362 0.950 . S
H1333 C1363 0.950 . S
C1334 H1316 0.951 . S
C1334 C1335 1.366 . S
C1334 C1336 1.388 . S
C1335 C1334 1.366 . S
C1335 C1339 1.385 . S
C1336 H1317 0.951 . S
C1336 C1334 1.388 . S
C1336 C1337 1.366 . S
C1337 C1336 1.366 . S
C1337 C1338 1.414 . S
C1337 C1340 1.499 . S
C1338 H1318 0.950 . S
C1338 C1337 1.414 . S
C1338 C1339 1.374 . S
C1339 H1319 0.950 . S
C1339 C1335 1.385 . S
C1339 C1338 1.374 . S
C1340 C1337 1.499 . S
C1340 C1341 1.373 . S
C1340 C1342 1.389 . S
C1341 H1320 0.950 . S
C1341 C1340 1.373 . S
C1341 C1357 1.377 . S
C1342 C1340 1.389 . S
C1342 C1343 1.524 . S
C1342 C1356 1.377 . S
C1343 C1342 1.524 . S
C1343 C1344 1.397 . S
C1343 C1348 1.363 . S
C1344 H1321 0.950 . S
C1344 C1343 1.397 . S
C1344 C1345 1.334 . S
C1345 H1322 0.950 . S
C1345 C1344 1.334 . S
C1345 C1346 1.289 . S
C1346 C1345 1.289 . S
C1346 C1347 1.523 1_556 S
C1346 H1365 0.911 1_556 S
C1347 H1323 0.950 . S
C1347 C1346 1.523 1_554 S
C1347 C1348 1.415 1_554 S
C1348 H1324 0.950 . S
C1348 C1343 1.363 . S
C1348 C1347 1.415 1_556 S
C1349 H1325 0.951 . S
C1349 C1350 1.366 . S
C1349 C1351 1.388 . S
C1350 C1349 1.366 . S
C1350 C1354 1.385 . S
C1351 H1326 0.951 . S
C1351 C1349 1.388 . S
C1351 C1352 1.366 . S
C1352 C1351 1.366 . S
C1352 C1353 1.414 . S
C1352 C1355 1.499 . S
C1353 H1327 0.950 . S
C1353 C1352 1.414 . S
C1353 C1354 1.374 . S
C1354 H1328 0.950 . S
C1354 C1350 1.385 . S
C1354 C1353 1.374 . S
C1355 C1352 1.499 . S
C1355 C1356 1.373 . S
C1355 C1357 1.389 . S
C1356 H1329 0.950 . S
C1356 C1342 1.377 . S
C1356 C1355 1.373 . S
C1357 C1341 1.377 . S
C1357 C1355 1.389 . S
C1357 C1358 1.524 . S
C1358 C1357 1.524 . S
C1358 C1359 1.397 . S
C1358 C1363 1.363 . S
C1359 H1330 0.950 . S
C1359 C1358 1.397 . S
C1359 C1360 1.334 . S
C1360 H1331 0.950 . S
C1360 C1359 1.334 . S
C1360 C1361 1.287 . S
C1361 C1360 1.287 . S
C1361 C1362 1.524 . S
C1361 H1364 0.999 . S
C1362 H1332 0.950 . S
C1362 C1361 1.524 . S
C1362 C1363 1.415 . S
C1363 H1333 0.950 . S
C1363 C1358 1.363 . S
C1363 C1362 1.415 . S
H1364 C1361 0.999 . S
H1365 C1346 0.911 1_554 S
H1366 C1384 0.951 . S
H1367 C1386 0.951 . S
H1368 C1388 0.950 . S
H1369 C1389 0.950 . S
H1370 C1391 0.950 . S
H1371 C1394 0.950 . S
H1372 C1395 0.950 . S
H1373 C1397 0.950 . S
H1374 C1398 0.950 . S
H1375 C1399 0.951 . S
H1376 C1401 0.951 . S
H1377 C1403 0.950 . S
H1378 C1404 0.950 . S
H1379 C1406 0.950 . S
H1380 C1409 0.950 . S
H1381 C1410 0.950 . S
H1382 C1412 0.950 1_554 S
H1383 C1413 0.950 . S
C1384 H1366 0.951 . S
C1384 C1385 1.366 . S
C1384 C1386 1.388 . S
C1385 C1384 1.366 . S
C1385 C1389 1.385 . S
C1386 H1367 0.951 . S
C1386 C1384 1.388 . S
C1386 C1387 1.366 . S
C1387 C1386 1.366 . S
C1387 C1388 1.414 . S
C1387 C1390 1.499 . S
C1388 H1368 0.950 . S
C1388 C1387 1.414 . S
C1388 C1389 1.374 . S
C1389 H1369 0.950 . S
C1389 C1385 1.385 . S
C1389 C1388 1.374 . S
C1390 C1387 1.499 . S
C1390 C1391 1.373 . S
C1390 C1392 1.389 . S
C1391 H1370 0.950 . S
C1391 C1390 1.373 . S
C1391 C1407 1.377 . S
C1392 C1390 1.389 . S
C1392 C1393 1.524 . S
C1392 C1406 1.377 . S
C1393 C1392 1.524 . S
C1393 C1394 1.397 . S
C1393 C1398 1.363 . S
C1394 H1371 0.950 . S
C1394 C1393 1.397 . S
C1394 C1395 1.334 . S
C1395 H1372 0.950 . S
C1395 C1394 1.334 . S
C1395 C1396 1.287 . S
C1396 C1395 1.287 . S
C1396 C1397 1.524 . S
C1396 H1415 0.913 . S
C1397 H1373 0.950 . S
C1397 C1396 1.524 . S
C1397 C1398 1.415 . S
C1398 H1374 0.950 . S
C1398 C1393 1.363 . S
C1398 C1397 1.415 . S
C1399 H1375 0.951 . S
C1399 C1400 1.366 . S
C1399 C1401 1.388 . S
C1400 C1399 1.366 . S
C1400 C1404 1.385 . S
C1401 H1376 0.951 . S
C1401 C1399 1.388 . S
C1401 C1402 1.366 . S
C1402 C1401 1.366 . S
C1402 C1403 1.414 . S
C1402 C1405 1.499 . S
C1403 H1377 0.950 . S
C1403 C1402 1.414 . S
C1403 C1404 1.374 . S
C1404 H1378 0.950 . S
C1404 C1400 1.385 . S
C1404 C1403 1.374 . S
C1405 C1402 1.499 . S
C1405 C1406 1.373 . S
C1405 C1407 1.389 . S
C1406 H1379 0.950 . S
C1406 C1392 1.377 . S
C1406 C1405 1.373 . S
C1407 C1391 1.377 . S
C1407 C1405 1.389 . S
C1407 C1408 1.524 . S
C1408 C1407 1.524 . S
C1408 C1409 1.397 . S
C1408 C1413 1.363 . S
C1409 H1380 0.950 . S
C1409 C1408 1.397 . S
C1409 C1410 1.334 . S
C1410 H1381 0.950 . S
C1410 C1409 1.334 . S
C1410 C1411 1.287 . S
C1411 C1410 1.287 . S
C1411 C1412 1.524 . S
C1411 H1414 0.999 1_556 S
C1412 H1382 0.950 1_556 S
C1412 C1411 1.524 . S
C1412 C1413 1.415 . S
C1413 H1383 0.950 . S
C1413 C1408 1.363 . S
C1413 C1412 1.415 . S
H1414 C1411 0.999 1_554 S
H1415 C1396 0.913 . S
H1416 C1434 0.951 . S
H1417 C1436 0.951 . S
H1418 C1438 0.950 . S
H1419 C1439 0.950 . S
H1420 C1441 0.950 . S
H1421 C1444 0.950 . S
H1422 C1445 0.962 . S
H1423 C1447 0.950 . S
H1424 C1448 0.950 . S
H1425 C1449 0.951 . S
H1426 C1451 0.951 . S
H1427 C1453 0.950 . S
H1428 C1454 0.950 . S
H1429 C1456 0.950 . S
H1430 C1459 0.950 . S
H1431 C1460 0.950 . S
H1432 C1462 0.950 . S
H1433 C1463 0.950 . S
C1434 H1416 0.951 . S
C1434 C1435 1.366 . S
C1434 C1436 1.388 . S
C1435 C1434 1.366 . S
C1435 C1439 1.385 1_655 S
C1436 H1417 0.951 . S
C1436 C1434 1.388 . S
C1436 C1437 1.366 . S
C1437 C1436 1.366 . S
C1437 C1438 1.414 1_655 S
C1437 C1440 1.499 . S
C1438 H1418 0.950 . S
C1438 C1437 1.414 1_455 S
C1438 C1439 1.374 . S
C1439 H1419 0.950 . S
C1439 C1435 1.385 1_455 S
C1439 C1438 1.374 . S
C1440 C1437 1.499 . S
C1440 C1441 1.373 1_655 S
C1440 C1442 1.389 . S
C1441 H1420 0.950 . S
C1441 C1440 1.373 1_455 S
C1441 C1457 1.376 . S
C1442 C1440 1.389 . S
C1442 C1443 1.524 . S
C1442 C1456 1.377 . S
C1443 C1442 1.524 . S
C1443 C1444 1.397 1_655 S
C1443 C1448 1.363 . S
C1444 H1421 0.950 . S
C1444 C1443 1.397 1_455 S
C1444 C1445 1.336 . S
C1445 H1422 0.962 . S
C1445 C1444 1.336 . S
C1445 C1446 1.273 1_455 S
C1446 C1445 1.273 1_655 S
C1446 C1447 1.524 . S
C1446 H1465 0.913 . S
C1447 H1423 0.950 . S
C1447 C1446 1.524 . S
C1447 C1448 1.415 . S
C1448 H1424 0.950 . S
C1448 C1443 1.363 . S
C1448 C1447 1.415 . S
C1449 H1425 0.951 . S
C1449 C1450 1.366 1_455 S
C1449 C1451 1.388 . S
C1450 C1449 1.366 1_655 S
C1450 C1454 1.385 . S
C1451 H1426 0.951 . S
C1451 C1449 1.388 . S
C1451 C1452 1.366 1_455 S
C1452 C1451 1.366 1_655 S
C1452 C1453 1.414 . S
C1452 C1455 1.499 . S
C1453 H1427 0.950 . S
C1453 C1452 1.414 . S
C1453 C1454 1.374 . S
C1454 H1428 0.950 . S
C1454 C1450 1.385 . S
C1454 C1453 1.374 . S
C1455 C1452 1.499 . S
C1455 C1456 1.373 . S
C1455 C1457 1.390 1_655 S
C1456 H1429 0.950 . S
C1456 C1442 1.377 . S
C1456 C1455 1.373 . S
C1457 C1441 1.376 . S
C1457 C1455 1.390 1_455 S
C1457 C1458 1.524 . S
C1458 C1457 1.524 . S
C1458 C1459 1.397 1_455 S
C1458 C1463 1.363 . S
C1459 H1430 0.950 . S
C1459 C1458 1.397 1_655 S
C1459 C1460 1.334 . S
C1460 H1431 0.950 . S
C1460 C1459 1.334 . S
C1460 C1461 1.287 1_655 S
C1461 C1460 1.287 1_455 S
C1461 C1462 1.524 . S
C1461 H1464 0.999 . S
C1462 H1432 0.950 . S
C1462 C1461 1.524 . S
C1462 C1463 1.415 . S
C1463 H1433 0.950 . S
C1463 C1458 1.363 . S
C1463 C1462 1.415 . S
H1464 C1461 0.999 . S
H1465 C1446 0.913 . S
H1466 C1484 0.956 . S
H1467 C1486 0.952 . S
H1468 C1488 0.950 . S
H1469 C1489 0.950 . S
H1470 C1491 0.950 . S
H1471 C1494 0.950 . S
H1472 C1495 0.950 . S
H1473 C1497 0.950 . S
H1474 C1498 0.950 . S
H1475 C1499 0.951 . S
H1476 C1501 0.951 . S
H1477 C1503 0.950 . S
H1478 C1504 0.950 . S
H1479 C1506 0.950 . S
H1480 C1509 0.950 . S
H1481 C1510 0.950 . S
H1482 C1512 0.950 . S
H1483 C1513 0.950 . S
C1484 H1466 0.956 . S
C1484 C1485 1.361 1_545 S
C1484 C1486 1.388 . S
C1485 C1484 1.361 1_565 S
C1485 C1489 1.392 . S
C1486 H1467 0.952 . S
C1486 C1484 1.388 . S
C1486 C1487 1.364 1_545 S
C1487 C1486 1.364 1_565 S
C1487 C1488 1.414 . S
C1487 C1490 1.499 . S
C1488 H1468 0.950 . S
C1488 C1487 1.414 . S
C1488 C1489 1.374 . S
C1489 H1469 0.950 . S
C1489 C1485 1.392 . S
C1489 C1488 1.374 . S
C1490 C1487 1.499 . S
C1490 C1491 1.373 . S
C1490 C1492 1.389 1_565 S
C1491 H1470 0.950 . S
C1491 C1490 1.373 . S
C1491 C1507 1.377 . S
C1492 C1490 1.389 1_545 S
C1492 C1493 1.524 . S
C1492 C1506 1.377 . S
C1493 C1492 1.524 . S
C1493 C1494 1.397 . S
C1493 C1498 1.363 . S
C1494 H1471 0.950 . S
C1494 C1493 1.397 . S
C1494 C1495 1.334 . S
C1495 H1472 0.950 . S
C1495 C1494 1.334 . S
C1495 C1496 1.287 . S
C1496 C1495 1.287 . S
C1496 C1497 1.524 . S
C1496 H1515 0.913 . S
C1497 H1473 0.950 . S
C1497 C1496 1.524 . S
C1497 C1498 1.415 . S
C1498 H1474 0.950 . S
C1498 C1493 1.363 . S
C1498 C1497 1.415 . S
C1499 H1475 0.951 . S
C1499 C1500 1.366 . S
C1499 C1501 1.388 . S
C1500 C1499 1.366 . S
C1500 C1504 1.385 . S
C1501 H1476 0.951 . S
C1501 C1499 1.388 . S
C1501 C1502 1.366 . S
C1502 C1501 1.366 . S
C1502 C1503 1.414 . S
C1502 C1505 1.499 . S
C1503 H1477 0.950 . S
C1503 C1502 1.414 . S
C1503 C1504 1.374 . S
C1504 H1478 0.950 . S
C1504 C1500 1.385 . S
C1504 C1503 1.374 . S
C1505 C1502 1.499 . S
C1505 C1506 1.373 1_565 S
C1505 C1507 1.389 . S
C1506 H1479 0.950 . S
C1506 C1492 1.377 . S
C1506 C1505 1.373 1_545 S
C1507 C1491 1.377 . S
C1507 C1505 1.389 . S
C1507 C1508 1.524 . S
C1508 C1507 1.524 . S
C1508 C1509 1.397 . S
C1508 C1513 1.363 . S
C1509 H1480 0.950 . S
C1509 C1508 1.397 . S
C1509 C1510 1.334 . S
C1510 H1481 0.950 . S
C1510 C1509 1.334 . S
C1510 C1511 1.287 . S
C1511 C1510 1.287 . S
C1511 C1512 1.524 . S
C1511 H1514 0.999 . S
C1512 H1482 0.950 . S
C1512 C1511 1.524 . S
C1512 C1513 1.415 . S
C1513 H1483 0.950 . S
C1513 C1508 1.363 . S
C1513 C1512 1.415 . S
H1514 C1511 0.999 . S
H1515 C1496 0.913 . S
H1516 C1534 0.951 . S
H1517 C1536 0.951 . S
H1518 C1538 0.950 . S
H1519 C1539 0.950 . S
H1520 C1541 0.950 . S
H1521 C1544 0.950 . S
H1522 C1545 0.950 . S
H1523 C1547 0.950 . S
H1524 C1548 0.950 . S
H1525 C1549 0.951 . S
H1526 C1551 0.951 . S
H1527 C1553 0.950 . S
H1528 C1554 0.950 . S
H1529 C1556 0.950 . S
H1530 C1559 0.950 . S
H1531 C1560 0.950 . S
H1532 C1562 0.950 . S
H1533 C1563 0.950 . S
C1534 H1516 0.951 . S
C1534 C1535 1.366 . S
C1534 C1536 1.388 . S
C1535 C1534 1.366 . S
C1535 C1539 1.385 . S
C1536 H1517 0.951 . S
C1536 C1534 1.388 . S
C1536 C1537 1.366 . S
C1537 C1536 1.366 . S
C1537 C1538 1.414 . S
C1537 C1540 1.499 . S
C1538 H1518 0.950 . S
C1538 C1537 1.414 . S
C1538 C1539 1.374 . S
C1539 H1519 0.950 . S
C1539 C1535 1.385 . S
C1539 C1538 1.374 . S
C1540 C1537 1.499 . S
C1540 C1541 1.373 . S
C1540 C1542 1.389 . S
C1541 H1520 0.950 . S
C1541 C1540 1.373 . S
C1541 C1557 1.377 . S
C1542 C1540 1.389 . S
C1542 C1543 1.524 . S
C1542 C1556 1.377 . S
C1543 C1542 1.524 . S
C1543 C1544 1.397 . S
C1543 C1548 1.363 . S
C1544 H1521 0.950 . S
C1544 C1543 1.397 . S
C1544 C1545 1.334 . S
C1545 H1522 0.950 . S
C1545 C1544 1.334 . S
C1545 C1546 1.287 . S
C1546 C1545 1.287 . S
C1546 C1547 1.524 . S
C1546 H1565 0.913 . S
C1547 H1523 0.950 . S
C1547 C1546 1.524 . S
C1547 C1548 1.415 . S
C1548 H1524 0.950 . S
C1548 C1543 1.363 . S
C1548 C1547 1.415 . S
C1549 H1525 0.951 . S
C1549 C1550 1.366 . S
C1549 C1551 1.388 . S
C1550 C1549 1.366 . S
C1550 C1554 1.385 . S
C1551 H1526 0.951 . S
C1551 C1549 1.388 . S
C1551 C1552 1.366 . S
C1552 C1551 1.366 . S
C1552 C1553 1.414 . S
C1552 C1555 1.499 . S
C1553 H1527 0.950 . S
C1553 C1552 1.414 . S
C1553 C1554 1.374 . S
C1554 H1528 0.950 . S
C1554 C1550 1.385 . S
C1554 C1553 1.374 . S
C1555 C1552 1.499 . S
C1555 C1556 1.373 . S
C1555 C1557 1.389 . S
C1556 H1529 0.950 . S
C1556 C1542 1.377 . S
C1556 C1555 1.373 . S
C1557 C1541 1.377 . S
C1557 C1555 1.389 . S
C1557 C1558 1.524 . S
C1558 C1557 1.524 . S
C1558 C1559 1.397 . S
C1558 C1563 1.363 . S
C1559 H1530 0.950 . S
C1559 C1558 1.397 . S
C1559 C1560 1.334 . S
C1560 H1531 0.950 . S
C1560 C1559 1.334 . S
C1560 C1561 1.287 . S
C1561 C1560 1.287 . S
C1561 C1562 1.524 . S
C1561 H1564 0.999 . S
C1562 H1532 0.950 . S
C1562 C1561 1.524 . S
C1562 C1563 1.415 . S
C1563 H1533 0.950 . S
C1563 C1558 1.363 . S
C1563 C1562 1.415 . S
H1564 C1561 0.999 . S
H1565 C1546 0.913 . S
H1566 C1584 0.951 . S
H1567 C1586 0.951 . S
H1568 C1588 0.950 . S
H1569 C1589 0.950 . S
H1570 C1591 0.950 . S
H1571 C1594 0.950 . S
H1572 C1595 0.950 . S
H1573 C1597 0.950 . S
H1574 C1598 0.950 . S
H1575 C1599 0.951 . S
H1576 C1601 0.951 . S
H1577 C1603 0.950 . S
H1578 C1604 0.950 . S
H1579 C1606 0.950 . S
H1580 C1609 0.950 . S
H1581 C1610 0.950 . S
H1582 C1612 0.950 . S
H1583 C1613 0.950 . S
C1584 H1566 0.951 . S
C1584 C1585 1.366 . S
C1584 C1586 1.388 . S
C1585 C1584 1.366 . S
C1585 C1589 1.385 . S
C1586 H1567 0.951 . S
C1586 C1584 1.388 . S
C1586 C1587 1.366 . S
C1587 C1586 1.366 . S
C1587 C1588 1.414 . S
C1587 C1590 1.499 . S
C1588 H1568 0.950 . S
C1588 C1587 1.414 . S
C1588 C1589 1.374 . S
C1589 H1569 0.950 . S
C1589 C1585 1.385 . S
C1589 C1588 1.374 . S
C1590 C1587 1.499 . S
C1590 C1591 1.373 . S
C1590 C1592 1.389 . S
C1591 H1570 0.950 . S
C1591 C1590 1.373 . S
C1591 C1607 1.377 . S
C1592 C1590 1.389 . S
C1592 C1593 1.524 . S
C1592 C1606 1.377 . S
C1593 C1592 1.524 . S
C1593 C1594 1.397 . S
C1593 C1598 1.363 . S
C1594 H1571 0.950 . S
C1594 C1593 1.397 . S
C1594 C1595 1.334 . S
C1595 H1572 0.950 . S
C1595 C1594 1.334 . S
C1595 C1596 1.287 . S
C1596 C1595 1.287 . S
C1596 C1597 1.524 . S
C1596 H1615 0.913 . S
C1597 H1573 0.950 . S
C1597 C1596 1.524 . S
C1597 C1598 1.415 . S
C1598 H1574 0.950 . S
C1598 C1593 1.363 . S
C1598 C1597 1.415 . S
C1599 H1575 0.951 . S
C1599 C1600 1.366 . S
C1599 C1601 1.388 . S
C1600 C1599 1.366 . S
C1600 C1604 1.385 . S
C1601 H1576 0.951 . S
C1601 C1599 1.388 . S
C1601 C1602 1.366 . S
C1602 C1601 1.366 . S
C1602 C1603 1.414 . S
C1602 C1605 1.499 . S
C1603 H1577 0.950 . S
C1603 C1602 1.414 . S
C1603 C1604 1.374 . S
C1604 H1578 0.950 . S
C1604 C1600 1.385 . S
C1604 C1603 1.374 . S
C1605 C1602 1.499 . S
C1605 C1606 1.373 . S
C1605 C1607 1.389 . S
C1606 H1579 0.950 . S
C1606 C1592 1.377 . S
C1606 C1605 1.373 . S
C1607 C1591 1.377 . S
C1607 C1605 1.389 . S
C1607 C1608 1.524 . S
C1608 C1607 1.524 . S
C1608 C1609 1.397 . S
C1608 C1613 1.363 . S
C1609 H1580 0.950 . S
C1609 C1608 1.397 . S
C1609 C1610 1.334 . S
C1610 H1581 0.950 . S
C1610 C1609 1.334 . S
C1610 C1611 1.287 . S
C1611 C1610 1.287 . S
C1611 C1612 1.524 . S
C1611 H1614 0.999 . S
C1612 H1582 0.950 . S
C1612 C1611 1.524 . S
C1612 C1613 1.415 . S
C1613 H1583 0.950 . S
C1613 C1608 1.363 . S
C1613 C1612 1.415 . S
H1614 C1611 0.999 . S
H1615 C1596 0.913 . S
C435 C215 1.797 . S
C450 C265 1.900 1_545 S
C500 C305 1.916 . S
C485 C247 1.796 . S
C550 C345 1.919 . S
C535 C151 1.805 . S
C600 C385 1.907 1_455 S
C585 C183 1.800 . S
C650 C274 1.906 1_565 S
C635 C87 1.800 . S
C685 C119 1.811 . S
C700 C314 1.921 . S
C735 C23 1.815 . S
C750 C354 1.919 . S
C785 C55 1.801 1_655 S
C800 C394 1.907 1_655 S
C850 C271 0.267 . S
C835 C189 0.242 . S
C900 C311 0.270 . S
C885 C221 0.251 . S
C950 C351 0.267 . S
C935 C253 0.267 . S
C985 C157 0.259 . S
C1000 C391 0.258 . S
C1035 C61 0.424 1_655 S
C1050 C262 0.258 . S
C1100 C302 0.267 . S
C1085 C93 0.411 1_565 S
C1150 C342 0.267 . S
C1135 C125 0.410 . S
C1185 C29 0.414 . S
C1200 C382 0.270 . S
C1235 C177 2.262 . S
C1250 C275 2.491 . S
C1285 C209 2.238 . S
C1300 C315 2.473 . S
C1350 C355 2.460 . S
C1335 C241 2.222 . S
C1400 C395 2.485 . S
C1385 C145 2.238 . S
C1435 C49 2.278 1_655 S
C1450 C266 2.506 . S
C1500 C306 2.473 . S
C1485 C81 2.245 1_565 S
C1550 C346 2.460 . S
C1535 C113 2.245 . S
C1585 C17 2.269 . S
C1600 C386 2.491 . S
