# Generated by pormake.
# Topology ptr, (4,4)-cn, num edge types: 1
# Building blocks:
#     Node 0, Type 0, BuildingBlock: QUQFOY_clean_sbu_3, # of connection points: 4
#     Node 1, Type 0, BuildingBlock: QUQFOY_clean_sbu_3, # of connection points: 4
#     Node 2, Type 0, BuildingBlock: QUQFOY_clean_sbu_3, # of connection points: 4
#     Node 3, Type 0, BuildingBlock: QUQFOY_clean_sbu_3, # of connection points: 4
#     Node 4, Type 0, BuildingBlock: QUQFOY_clean_sbu_3, # of connection points: 4
#     Node 5, Type 0, BuildingBlock: QUQFOY_clean_sbu_3, # of connection points: 4
#     Node 6, Type 0, BuildingBlock: QUQFOY_clean_sbu_3, # of connection points: 4
#     Node 7, Type 0, BuildingBlock: QUQFOY_clean_sbu_3, # of connection points: 4
#     Node 8, Type 0, BuildingBlock: QUQFOY_clean_sbu_3, # of connection points: 4
#     Node 9, Type 0, BuildingBlock: QUQFOY_clean_sbu_3, # of connection points: 4
#     Node 10, Type 0, BuildingBlock: QUQFOY_clean_sbu_3, # of connection points: 4
#     Node 11, Type 0, BuildingBlock: QUQFOY_clean_sbu_3, # of connection points: 4
#     Node 12, Type 0, BuildingBlock: QUQFOY_clean_sbu_3, # of connection points: 4
#     Node 13, Type 0, BuildingBlock: QUQFOY_clean_sbu_3, # of connection points: 4
#     Node 14, Type 0, BuildingBlock: QUQFOY_clean_sbu_3, # of connection points: 4
#     Node 15, Type 0, BuildingBlock: QUQFOY_clean_sbu_3, # of connection points: 4
#     Node 16, Type 0, BuildingBlock: QUQFOY_clean_sbu_3, # of connection points: 4
#     Node 17, Type 0, BuildingBlock: QUQFOY_clean_sbu_3, # of connection points: 4
#     Node 18, Type 1, BuildingBlock: KUFVIS_clean_linker_0, # of connection points: 4
#     Node 19, Type 1, BuildingBlock: KUFVIS_clean_linker_0, # of connection points: 4
#     Node 20, Type 1, BuildingBlock: KUFVIS_clean_linker_0, # of connection points: 4
#     Node 21, Type 1, BuildingBlock: KUFVIS_clean_linker_0, # of connection points: 4
#     Node 22, Type 1, BuildingBlock: KUFVIS_clean_linker_0, # of connection points: 4
#     Node 23, Type 1, BuildingBlock: KUFVIS_clean_linker_0, # of connection points: 4
#     Node 24, Type 1, BuildingBlock: KUFVIS_clean_linker_0, # of connection points: 4
#     Node 25, Type 1, BuildingBlock: KUFVIS_clean_linker_0, # of connection points: 4
#     Node 26, Type 1, BuildingBlock: KUFVIS_clean_linker_0, # of connection points: 4
#     Node 27, Type 1, BuildingBlock: KUFVIS_clean_linker_0, # of connection points: 4
#     Node 28, Type 1, BuildingBlock: KUFVIS_clean_linker_0, # of connection points: 4
#     Node 29, Type 1, BuildingBlock: KUFVIS_clean_linker_0, # of connection points: 4
#     Node 30, Type 1, BuildingBlock: KUFVIS_clean_linker_0, # of connection points: 4
#     Node 31, Type 1, BuildingBlock: KUFVIS_clean_linker_0, # of connection points: 4
#     Node 32, Type 1, BuildingBlock: KUFVIS_clean_linker_0, # of connection points: 4
#     Node 33, Type 1, BuildingBlock: KUFVIS_clean_linker_0, # of connection points: 4
#     Node 34, Type 1, BuildingBlock: KUFVIS_clean_linker_0, # of connection points: 4
#     Node 35, Type 1, BuildingBlock: KUFVIS_clean_linker_0, # of connection points: 4
#     Edge 36, Type (0, 1), BuildingBlock: ZUJKAS_clean_linker_0, # of connection points: 2
#     Edge 37, Type (0, 1), BuildingBlock: ZUJKAS_clean_linker_0, # of connection points: 2
#     Edge 38, Type (0, 1), BuildingBlock: ZUJKAS_clean_linker_0, # of connection points: 2
#     Edge 39, Type (0, 1), BuildingBlock: ZUJKAS_clean_linker_0, # of connection points: 2
#     Edge 40, Type (0, 1), BuildingBlock: ZUJKAS_clean_linker_0, # of connection points: 2
#     Edge 41, Type (0, 1), BuildingBlock: ZUJKAS_clean_linker_0, # of connection points: 2
#     Edge 42, Type (0, 1), BuildingBlock: ZUJKAS_clean_linker_0, # of connection points: 2
#     Edge 43, Type (0, 1), BuildingBlock: ZUJKAS_clean_linker_0, # of connection points: 2
#     Edge 44, Type (0, 1), BuildingBlock: ZUJKAS_clean_linker_0, # of connection points: 2
#     Edge 45, Type (0, 1), BuildingBlock: ZUJKAS_clean_linker_0, # of connection points: 2
#     Edge 46, Type (0, 1), BuildingBlock: ZUJKAS_clean_linker_0, # of connection points: 2
#     Edge 47, Type (0, 1), BuildingBlock: ZUJKAS_clean_linker_0, # of connection points: 2
#     Edge 48, Type (0, 1), BuildingBlock: ZUJKAS_clean_linker_0, # of connection points: 2
#     Edge 49, Type (0, 1), BuildingBlock: ZUJKAS_clean_linker_0, # of connection points: 2
#     Edge 50, Type (0, 1), BuildingBlock: ZUJKAS_clean_linker_0, # of connection points: 2
#     Edge 51, Type (0, 1), BuildingBlock: ZUJKAS_clean_linker_0, # of connection points: 2
#     Edge 52, Type (0, 1), BuildingBlock: ZUJKAS_clean_linker_0, # of connection points: 2
#     Edge 53, Type (0, 1), BuildingBlock: ZUJKAS_clean_linker_0, # of connection points: 2
#     Edge 54, Type (0, 1), BuildingBlock: ZUJKAS_clean_linker_0, # of connection points: 2
#     Edge 55, Type (0, 1), BuildingBlock: ZUJKAS_clean_linker_0, # of connection points: 2
#     Edge 56, Type (0, 1), BuildingBlock: ZUJKAS_clean_linker_0, # of connection points: 2
#     Edge 57, Type (0, 1), BuildingBlock: ZUJKAS_clean_linker_0, # of connection points: 2
#     Edge 58, Type (0, 1), BuildingBlock: ZUJKAS_clean_linker_0, # of connection points: 2
#     Edge 59, Type (0, 1), BuildingBlock: ZUJKAS_clean_linker_0, # of connection points: 2
#     Edge 60, Type (0, 1), BuildingBlock: ZUJKAS_clean_linker_0, # of connection points: 2
#     Edge 61, Type (0, 1), BuildingBlock: ZUJKAS_clean_linker_0, # of connection points: 2
#     Edge 62, Type (0, 1), BuildingBlock: ZUJKAS_clean_linker_0, # of connection points: 2
#     Edge 63, Type (0, 1), BuildingBlock: ZUJKAS_clean_linker_0, # of connection points: 2
#     Edge 64, Type (0, 1), BuildingBlock: ZUJKAS_clean_linker_0, # of connection points: 2
#     Edge 65, Type (0, 1), BuildingBlock: ZUJKAS_clean_linker_0, # of connection points: 2
#     Edge 66, Type (0, 1), BuildingBlock: ZUJKAS_clean_linker_0, # of connection points: 2
#     Edge 67, Type (0, 1), BuildingBlock: ZUJKAS_clean_linker_0, # of connection points: 2
#     Edge 68, Type (0, 1), BuildingBlock: ZUJKAS_clean_linker_0, # of connection points: 2
#     Edge 69, Type (0, 1), BuildingBlock: ZUJKAS_clean_linker_0, # of connection points: 2
#     Edge 70, Type (0, 1), BuildingBlock: ZUJKAS_clean_linker_0, # of connection points: 2
#     Edge 71, Type (0, 1), BuildingBlock: ZUJKAS_clean_linker_0, # of connection points: 2
#     Edge 72, Type (0, 1), BuildingBlock: ZUJKAS_clean_linker_0, # of connection points: 2
#     Edge 73, Type (0, 1), BuildingBlock: ZUJKAS_clean_linker_0, # of connection points: 2
#     Edge 74, Type (0, 1), BuildingBlock: ZUJKAS_clean_linker_0, # of connection points: 2
#     Edge 75, Type (0, 1), BuildingBlock: ZUJKAS_clean_linker_0, # of connection points: 2
#     Edge 76, Type (0, 1), BuildingBlock: ZUJKAS_clean_linker_0, # of connection points: 2
#     Edge 77, Type (0, 1), BuildingBlock: ZUJKAS_clean_linker_0, # of connection points: 2
#     Edge 78, Type (0, 1), BuildingBlock: ZUJKAS_clean_linker_0, # of connection points: 2
#     Edge 79, Type (0, 1), BuildingBlock: ZUJKAS_clean_linker_0, # of connection points: 2
#     Edge 80, Type (0, 1), BuildingBlock: ZUJKAS_clean_linker_0, # of connection points: 2
#     Edge 81, Type (0, 1), BuildingBlock: ZUJKAS_clean_linker_0, # of connection points: 2
#     Edge 82, Type (0, 1), BuildingBlock: ZUJKAS_clean_linker_0, # of connection points: 2
#     Edge 83, Type (0, 1), BuildingBlock: ZUJKAS_clean_linker_0, # of connection points: 2
#     Edge 84, Type (0, 1), BuildingBlock: ZUJKAS_clean_linker_0, # of connection points: 2
#     Edge 85, Type (0, 1), BuildingBlock: ZUJKAS_clean_linker_0, # of connection points: 2
#     Edge 86, Type (0, 1), BuildingBlock: ZUJKAS_clean_linker_0, # of connection points: 2
#     Edge 87, Type (0, 1), BuildingBlock: ZUJKAS_clean_linker_0, # of connection points: 2
#     Edge 88, Type (0, 1), BuildingBlock: ZUJKAS_clean_linker_0, # of connection points: 2
#     Edge 89, Type (0, 1), BuildingBlock: ZUJKAS_clean_linker_0, # of connection points: 2
#     Edge 90, Type (0, 1), BuildingBlock: ZUJKAS_clean_linker_0, # of connection points: 2
#     Edge 91, Type (0, 1), BuildingBlock: ZUJKAS_clean_linker_0, # of connection points: 2
#     Edge 92, Type (0, 1), BuildingBlock: ZUJKAS_clean_linker_0, # of connection points: 2
#     Edge 93, Type (0, 1), BuildingBlock: ZUJKAS_clean_linker_0, # of connection points: 2
#     Edge 94, Type (0, 1), BuildingBlock: ZUJKAS_clean_linker_0, # of connection points: 2
#     Edge 95, Type (0, 1), BuildingBlock: ZUJKAS_clean_linker_0, # of connection points: 2
#     Edge 96, Type (0, 1), BuildingBlock: ZUJKAS_clean_linker_0, # of connection points: 2
#     Edge 97, Type (0, 1), BuildingBlock: ZUJKAS_clean_linker_0, # of connection points: 2
#     Edge 98, Type (0, 1), BuildingBlock: ZUJKAS_clean_linker_0, # of connection points: 2
#     Edge 99, Type (0, 1), BuildingBlock: ZUJKAS_clean_linker_0, # of connection points: 2
#     Edge 100, Type (0, 1), BuildingBlock: ZUJKAS_clean_linker_0, # of connection points: 2
#     Edge 101, Type (0, 1), BuildingBlock: ZUJKAS_clean_linker_0, # of connection points: 2
#     Edge 102, Type (0, 1), BuildingBlock: ZUJKAS_clean_linker_0, # of connection points: 2
#     Edge 103, Type (0, 1), BuildingBlock: ZUJKAS_clean_linker_0, # of connection points: 2
#     Edge 104, Type (0, 1), BuildingBlock: ZUJKAS_clean_linker_0, # of connection points: 2
#     Edge 105, Type (0, 1), BuildingBlock: ZUJKAS_clean_linker_0, # of connection points: 2
#     Edge 106, Type (0, 1), BuildingBlock: ZUJKAS_clean_linker_0, # of connection points: 2
#     Edge 107, Type (0, 1), BuildingBlock: ZUJKAS_clean_linker_0, # of connection points: 2
# Relax obj value: 0.043
# Max RMSD: 0.105
# Mean RMSD: 0.078
data_MOF--net-ptr--node1-QUQFOY_clean_sbu_3--node2-KUFVIS_clean_linker_0--edge1-ZUJKAS_clean_linker_0
_symmetry_space_group_name_H-M    P1
_symmetry_Int_Tables_number       1
_symmetry_cell_setting            triclinic
loop_
_symmetry_equiv_pos_as_xyz
'x, y, z'
_cell_length_a     102.52337
_cell_length_b     102.97152
_cell_length_c     64.158568
_cell_angle_alpha  90.218814
_cell_angle_beta   89.726938
_cell_angle_gamma 120.4466
loop_
_atom_site_label
_atom_site_type_symbol
_atom_site_fract_x
_atom_site_fract_y
_atom_site_fract_z
_atom_type_partial_charge
C0 C 0.96587 0.32654 0.01064 0.0
O1 O 0.96005 0.3338 0.01843 0.0
Cd2 Cd 0.97346 0.35925 0.03056 0.0
O3 O 0.98024 0.33266 0.00918 0.0
Cd4 Cd 0.0033 0.35749 0.01889 0.0
C5 C 0.99391 0.37766 0.98648 0.0
O6 O 0.99374 0.36202 0.05157 0.0
O7 O 0.01413 0.38085 0.03955 0.0
O8 O 0.01545 0.34381 0.03185 0.0
C9 C 0.0042 0.37558 0.05383 0.0
O10 O 0.98364 0.37509 -0.00019 0.0
C11 C 0.02777 0.35137 0.02184 0.0
O12 O 0.00227 0.37183 0.98855 0.0
O13 O 0.02865 0.3616 0.00988 0.0
C14 C 0.6417 0.67846 0.01249 0.0
O15 O 0.628 0.67062 0.00673 0.0
Cd16 Cd 0.61588 0.64523 0.99405 0.0
O17 O 0.6504 0.67295 0.01181 0.0
Cd18 Cd 0.64877 0.64872 0.00064 0.0
C19 C 0.6207 0.62631 0.03472 0.0
O20 O 0.633 0.64423 0.96983 0.0
O21 O 0.63648 0.62606 0.97831 0.0
O22 O 0.67451 0.66331 0.9864 0.0
C23 C 0.63049 0.63109 0.96595 0.0
O24 O 0.61189 0.62846 0.02319 0.0
C25 C 0.67982 0.65638 0.99633 0.0
O26 O 0.63491 0.63319 0.03113 0.0
O27 O 0.67074 0.64593 0.00845 0.0
C28 C 0.33058 0.96777 0.01056 0.0
O29 O 0.33849 0.96235 0.00373 0.0
Cd30 Cd 0.36404 0.97633 0.99166 0.0
O31 O 0.33613 0.98202 0.01148 0.0
Cd32 Cd 0.36068 0.00531 0.00224 0.0
C33 C 0.38241 0.99808 0.03467 0.0
O34 O 0.36546 0.9957 0.97017 0.0
O35 O 0.38412 0.01657 0.98121 0.0
O36 O 0.34793 0.01768 0.98728 0.0
C37 C 0.37888 0.00638 0.96735 0.0
O38 O 0.38031 0.98774 0.02182 0.0
C39 C 0.35388 0.02909 -0.00076 0.0
O40 O 0.37575 0.0056 0.03229 0.0
O41 O 0.36279 0.02934 0.01314 0.0
C42 C 0.96636 0.64031 0.00748 0.0
O43 O 0.96113 0.6271 0.01467 0.0
Cd44 Cd 0.97614 0.61679 0.02695 0.0
O45 O 0.98062 0.64937 0.00648 0.0
Cd46 Cd 0.00456 0.6498 0.0155 0.0
C47 C 0.99769 0.62063 0.98339 0.0
O48 O 0.99601 0.63533 0.048 0.0
O49 O 0.01759 0.63985 0.03617 0.0
O50 O 0.01508 0.67562 0.02826 0.0
C51 C 0.0075 0.63387 0.05016 0.0
O52 O 0.98766 0.61225 -0.00336 0.0
C53 C 0.02698 0.68131 0.01712 0.0
O54 O 0.00485 0.63494 0.98535 0.0
O55 O 0.02842 0.67238 0.00487 0.0
C56 C 0.32747 0.36215 0.00536 0.0
O57 O 0.33462 0.37517 -0.00279 0.0
Cd58 Cd 0.36079 0.38754 0.98719 0.0
O59 O 0.33399 0.35453 0.00812 0.0
Cd60 Cd 0.35872 0.35605 0.00118 0.0
C61 C 0.37762 0.38625 0.03328 0.0
O62 O 0.36428 0.36961 0.96826 0.0
O63 O 0.38226 0.36703 0.98081 0.0
O64 O 0.34305 0.32997 0.99028 0.0
C65 C 0.37771 0.37218 0.96646 0.0
O66 O 0.3753 0.39364 0.01935 0.0
C67 C 0.35016 0.32489 0.00026 0.0
O68 O 0.37214 0.37206 0.03148 0.0
O69 O 0.36134 0.3343 0.01114 0.0
C70 C 0.68149 0.03519 0.00808 0.0
O71 O 0.67461 0.04147 0.01573 0.0
Cd72 Cd 0.64832 0.02874 0.02532 0.0
O73 O 0.67458 0.0209 0.00575 0.0
Cd74 Cd 0.6489 0.99846 0.01332 0.0
C75 C 0.63117 0.00997 0.9796 0.0
O76 O 0.64264 0.00718 0.04556 0.0
O77 O 0.62449 0.98734 0.03107 0.0
O78 O 0.66067 0.98559 0.02959 0.0
C79 C 0.62889 0.99668 0.04601 0.0
O80 O 0.63391 0.02011 0.99315 0.0
C81 C 0.65471 0.97401 0.01796 0.0
O82 O 0.63606 1.00085 0.98201 0.0
O83 O 0.64618 0.97382 0.00347 0.0
C84 C 0.63356 0.66119 0.34091 0.0
O85 O 0.62786 0.66865 0.34845 0.0
Cd86 Cd 0.64145 0.6939 0.36143 0.0
O87 O 0.64791 0.66694 0.34012 0.0
Cd88 Cd 0.67134 0.69101 0.35079 0.0
C89 C 0.66364 0.71261 0.31848 0.0
O90 O 0.66105 0.69543 0.38261 0.0
O91 O 0.68259 0.71381 0.37284 0.0
O92 O 0.68207 0.67618 0.36428 0.0
C93 C 0.67183 0.7087 0.38593 0.0
O94 O 0.65304 0.71005 0.33124 0.0
C95 C 0.69445 0.68301 0.35425 0.0
O96 O 0.67162 0.7064 0.32087 0.0
O97 O 0.6961 0.69349 0.34215 0.0
C98 C 0.30715 0.00966 0.35043 0.0
O99 O 0.2933 0.00204 0.3453 0.0
Cd100 Cd 0.28046 0.97699 0.33159 0.0
O101 O 0.31567 0.00399 0.34877 0.0
Cd102 Cd 0.31277 0.97927 0.33682 0.0
C103 C 0.28475 0.95696 0.37104 0.0
O104 O 0.29695 0.97579 0.3065 0.0
O105 O 0.29887 0.95662 0.31469 0.0
O106 O 0.33777 0.99138 0.32003 0.0
C107 C 0.29363 0.96243 0.30235 0.0
O108 O 0.27608 0.95957 0.35992 0.0
C109 C 0.34299 0.98469 0.33073 0.0
O110 O 0.29891 0.96354 0.36722 0.0
O111 O 0.33428 0.97568 0.34464 0.0
C112 C 1.00015 0.30363 0.34881 0.0
O113 O 0.00799 0.29802 0.34245 0.0
Cd114 Cd 0.03303 0.31118 0.32856 0.0
O115 O 0.00556 0.31787 0.34846 0.0
Cd116 Cd 0.02995 0.34072 0.33714 0.0
C117 C 0.05269 0.33479 0.36945 0.0
O118 O 0.03309 0.32927 0.30582 0.0
O119 O 0.0523 0.35066 0.3138 0.0
O120 O 0.01617 0.35255 0.32357 0.0
C121 C 0.04633 0.33963 0.30126 0.0
O122 O 0.05041 0.32406 0.35724 0.0
C123 C 0.02383 0.36493 0.33326 0.0
O124 O 0.04572 0.342 0.36688 0.0
O125 O 0.0341 0.36593 0.34531 0.0
C126 C 0.63352 0.9725 0.33827 0.0
O127 O 0.62822 0.95908 0.34469 0.0
Cd128 Cd 0.64306 0.9485 0.35655 0.0
O129 O 0.64779 0.98163 0.33793 0.0
Cd130 Cd 0.67158 0.98195 0.34773 0.0
C131 C 0.6661 0.95407 0.31398 0.0
O132 O 0.66184 0.96649 0.37934 0.0
O133 O 0.68406 0.97184 0.36918 0.0
O134 O 0.68064 0.00744 0.36076 0.0
C135 C 0.67343 0.96534 0.38233 0.0
O136 O 0.65566 0.94519 0.32641 0.0
C137 C 0.69335 0.0135 0.35153 0.0
O138 O 0.67309 0.9683 0.31692 0.0
O139 O 0.69596 0.00493 0.34015 0.0
C140 C 0.99636 0.69894 0.34186 0.0
O141 O 0.00411 0.71208 0.33425 0.0
Cd142 Cd 0.02985 0.72348 0.3226 0.0
O143 O 0.00207 0.69049 0.34366 0.0
Cd144 Cd 0.02634 0.69117 0.33576 0.0
C145 C 0.04706 0.72136 0.36756 0.0
O146 O 0.03183 0.7049 0.303 0.0
O147 O 0.04956 0.70161 0.31469 0.0
O148 O 0.01136 0.66498 0.32427 0.0
C149 C 0.04502 0.70698 0.30062 0.0
O150 O 0.04517 0.72918 0.35387 0.0
C151 C 0.01825 0.66008 0.33519 0.0
O152 O 0.0407 0.70707 0.36572 0.0
O153 O 0.02876 0.66958 0.34688 0.0
C154 C 0.34756 0.37114 0.33712 0.0
O155 O 0.34069 0.37748 0.3446 0.0
Cd156 Cd 0.31469 0.36437 0.35543 0.0
O157 O 0.34082 0.35681 0.33566 0.0
Cd158 Cd 0.31581 0.33412 0.34489 0.0
C159 C 0.29675 0.34388 0.31097 0.0
O160 O 0.31069 0.34385 0.37693 0.0
O161 O 0.29221 0.32307 0.36513 0.0
O162 O 0.33068 0.32391 0.35931 0.0
C163 C 0.2971 0.33322 0.37902 0.0
O164 O 0.29964 0.3544 0.32394 0.0
C165 C 0.3239 0.3113 0.35001 0.0
O166 O 0.30189 0.33501 0.31376 0.0
O167 O 0.31326 0.30915 0.33778 0.0
C168 C 0.30212 0.9967 0.66893 0.0
O169 O 0.29634 0.00445 0.67498 0.0
Cd170 Cd 0.30947 0.02965 0.68806 0.0
O171 O 0.31646 0.00229 0.66936 0.0
Cd172 Cd 0.33926 0.02697 0.6804 0.0
C173 C 0.33323 0.04917 0.64708 0.0
O174 O 0.328 0.03124 0.71157 0.0
O175 O 0.34931 0.04996 0.70179 0.0
O176 O 0.35124 0.01392 0.69615 0.0
C177 C 0.33852 0.04464 0.71484 0.0
O178 O 0.32224 0.04662 0.65905 0.0
C179 C 0.36362 0.02098 0.68615 0.0
O180 O 0.34078 0.04256 0.65003 0.0
O181 O 0.36458 0.03055 0.67287 0.0
C182 C 0.97498 0.34414 0.68115 0.0
O183 O 0.96128 0.33623 0.67546 0.0
Cd184 Cd 0.94881 0.31092 0.66281 0.0
O185 O 0.98374 0.33869 0.68059 0.0
Cd186 Cd 0.98159 0.31411 0.66949 0.0
C187 C 0.95329 0.29158 0.70325 0.0
O188 O 0.96593 0.30989 0.63885 0.0
O189 O 0.96823 0.29109 0.64782 0.0
O190 O 0.00649 0.32629 0.65254 0.0
C191 C 0.96285 0.29656 0.63513 0.0
O192 O 0.94461 0.29393 0.69172 0.0
C193 C 0.01209 0.32025 0.66384 0.0
O194 O 0.96752 0.29838 0.69979 0.0
O195 O 0.00366 0.31158 0.67822 0.0
C196 C 0.66243 0.63658 0.67343 0.0
O197 O 0.6699 0.63114 0.66513 0.0
Cd198 Cd 0.6958 0.64523 0.65437 0.0
O199 O 0.66853 0.65077 0.67629 0.0
Cd200 Cd 0.6934 0.67429 0.66939 0.0
C201 C 0.71276 0.6632 0.70053 0.0
O202 O 0.69916 0.66678 0.63623 0.0
O203 O 0.71744 0.68677 0.65006 0.0
O204 O 0.68054 0.68697 0.65613 0.0
C205 C 0.71273 0.67752 0.635 0.0
O206 O 0.71048 0.6536 0.68632 0.0
C207 C 0.68656 0.6981 0.66855 0.0
O208 O 0.70716 0.67177 0.69918 0.0
O209 O 0.69558 0.69805 0.68205 0.0
C210 C 0.29747 0.3062 0.67943 0.0
O211 O 0.29212 0.29343 0.68812 0.0
Cd212 Cd 0.30682 0.28247 0.69915 0.0
O213 O 0.3117 0.31451 0.67651 0.0
Cd214 Cd 0.33551 0.31427 0.68418 0.0
C215 C 0.32553 0.28373 0.65342 0.0
O216 O 0.32808 0.30115 0.71781 0.0
O217 O 0.34865 0.30411 0.7042 0.0
O218 O 0.34581 0.34019 0.6958 0.0
C219 C 0.33928 0.29914 0.71918 0.0
O220 O 0.31619 0.27631 0.66794 0.0
C221 C 0.358 0.3458 0.68533 0.0
O222 O 0.3334 0.2981 0.65408 0.0
O223 O 0.35977 0.33677 0.67369 0.0
C224 C 0.66296 0.02942 0.67107 0.0
O225 O 0.67041 0.04248 0.6631 0.0
Cd226 Cd 0.69649 0.05438 0.65265 0.0
O227 O 0.66914 0.02146 0.67364 0.0
Cd228 Cd 0.69374 0.02272 0.66665 0.0
C229 C 0.71353 0.05315 0.69835 0.0
O230 O 0.69951 0.03619 0.63356 0.0
O231 O 0.71724 0.03328 0.64627 0.0
O232 O 0.67897 0.99655 0.65528 0.0
C233 C 0.71282 0.03844 0.63178 0.0
O234 O 0.71148 0.0607 0.68439 0.0
C235 C 0.68558 0.99162 0.66671 0.0
O236 O 0.70755 0.03889 0.69667 0.0
O237 O 0.69597 1.00114 0.67855 0.0
C238 C 0.0115 0.70093 0.6676 0.0
O239 O 0.00441 0.70764 0.67254 0.0
Cd240 Cd 0.97876 0.69596 0.68436 0.0
O241 O 0.00491 0.68657 0.66855 0.0
Cd242 Cd 0.97915 0.66512 0.67919 0.0
C243 C 0.95853 0.67214 0.64399 0.0
O244 O 0.97564 0.67765 0.70943 0.0
O245 O 0.95603 0.6568 0.70037 0.0
O246 O 0.99028 0.65208 0.69717 0.0
C247 C 0.96197 0.6678 0.71297 0.0
O248 O 0.96176 0.68363 0.65517 0.0
C249 C 0.98372 0.64006 0.68648 0.0
O250 O 0.9642 0.66389 0.64808 0.0
O251 O 0.97513 0.63966 0.67197 0.0
H252 H 0.21206 0.3282 0.12722 0.0
H253 H 0.17287 0.32166 0.09471 0.0
H254 H 0.17761 0.33097 0.16123 0.0
H255 H 0.15311 0.31817 0.16138 0.0
H256 H 0.11739 0.32022 0.13066 0.0
H257 H 0.1573 0.33062 0.09604 0.0
C258 C 0.2012 0.32764 0.12753 0.0
C259 C 0.19553 0.32956 0.14637 0.0
C260 C 0.19317 0.32508 0.109 0.0
C261 C 0.17902 0.32412 0.10921 0.0
C262 C 0.17285 0.32594 0.12806 0.0
C263 C 0.18148 0.32887 0.14658 0.0
C264 C 0.15745 0.32448 0.12856 0.0
C265 C 0.14891 0.32045 0.14727 0.0
C266 C 0.13461 0.31909 0.14808 0.0
C267 C 0.12835 0.32103 0.12992 0.0
C268 C 0.13634 0.3249 0.11109 0.0
C269 C 0.15103 0.32701 0.11052 0.0
H270 H 0.68104 0.88664 0.1346 0.0
H271 H 0.67319 0.84644 0.10353 0.0
H272 H 0.69337 0.85768 0.16515 0.0
H273 H 0.68293 0.8334 0.16868 0.0
H274 H 0.68717 0.79937 0.13649 0.0
H275 H 0.68462 0.83316 0.10106 0.0
C276 C 0.68182 0.87652 0.13444 0.0
C277 C 0.68748 0.87298 0.15189 0.0
C278 C 0.67682 0.86709 0.11696 0.0
C279 C 0.67757 0.85381 0.11692 0.0
C280 C 0.68338 0.84993 0.13438 0.0
C281 C 0.68844 0.85986 0.15171 0.0
C282 C 0.6841 0.83564 0.1348 0.0
C283 C 0.68419 0.82891 0.15404 0.0
C284 C 0.68589 0.81621 0.15468 0.0
C285 C 0.68667 0.80964 0.136 0.0
C286 C 0.68582 0.81547 0.11673 0.0
C287 C 0.68475 0.82856 0.11613 0.0
H288 H 0.20423 0.89157 0.12897 0.0
H289 H 0.17605 0.85117 0.09453 0.0
H290 H 0.16744 0.8543 0.16004 0.0
H291 H 0.15894 0.82994 0.15913 0.0
H292 H 0.12234 0.79352 0.1266 0.0
H293 H 0.15079 0.83477 0.09407 0.0
C294 C 0.1943 0.88038 0.12827 0.0
C295 C 0.18628 0.87373 0.14657 0.0
C296 C 0.19055 0.8724 0.10945 0.0
C297 C 0.17842 0.85744 0.10896 0.0
C298 C 0.1697 0.8506 0.12707 0.0
C299 C 0.17381 0.85903 0.14583 0.0
C300 C 0.15669 0.83465 0.12666 0.0
C301 C 0.15251 0.82569 0.14489 0.0
C302 C 0.14013 0.81094 0.14489 0.0
C303 C 0.13197 0.80493 0.12656 0.0
C304 C 0.13583 0.8134 0.10824 0.0
C305 C 0.14819 0.82823 0.10824 0.0
H306 H 0.33044 0.12123 0.88551 0.0
H307 H 0.33968 0.16031 0.92097 0.0
H308 H 0.32378 0.15497 0.85728 0.0
H309 H 0.33834 0.18001 0.85758 0.0
H310 H 0.33544 0.21385 0.89276 0.0
H311 H 0.32753 0.17366 0.92359 0.0
C312 C 0.33059 0.13182 0.88669 0.0
C313 C 0.32673 0.13728 0.86931 0.0
C314 C 0.33521 0.14001 0.90531 0.0
C315 C 0.33564 0.15386 0.9067 0.0
C316 C 0.33165 0.15961 0.8894 0.0
C317 C 0.32711 0.15106 0.87076 0.0
C318 C 0.3327 0.17468 0.89043 0.0
C319 C 0.33608 0.18367 0.8723 0.0
C320 C 0.33706 0.19776 0.8731 0.0
C321 C 0.33478 0.203 0.89208 0.0
C322 C 0.3315 0.19442 0.91021 0.0
C323 C 0.33041 0.18028 0.90946 0.0
H324 H 0.79941 0.11497 0.88418 0.0
H325 H 0.83693 0.14914 0.91835 0.0
H326 H 0.83372 0.15317 0.85144 0.0
H327 H 0.85803 0.16583 0.8519 0.0
H328 H 0.89254 0.20448 0.88339 0.0
H329 H 0.85262 0.17365 0.91711 0.0
C330 C 0.81017 0.12549 0.88428 0.0
C331 C 0.81617 0.13316 0.86559 0.0
C332 C 0.81741 0.13142 0.90324 0.0
C333 C 0.83127 0.14512 0.90354 0.0
C334 C 0.83779 0.15317 0.8848 0.0
C335 C 0.82966 0.14716 0.86599 0.0
C336 C 0.85305 0.16752 0.88462 0.0
C337 C 0.86186 0.17236 0.86609 0.0
C338 C 0.87596 0.18572 0.86556 0.0
C339 C 0.88178 0.19398 0.88388 0.0
C340 C 0.87357 0.18952 0.90253 0.0
C341 C 0.85906 0.17653 0.90277 0.0
H342 H 0.79352 0.67507 0.88511 0.0
H343 H 0.8327 0.68307 0.9193 0.0
H344 H 0.82909 0.67324 0.85298 0.0
H345 H 0.85359 0.68675 0.85338 0.0
H346 H 0.88899 0.6849 0.88548 0.0
H347 H 0.8484 0.67402 0.91866 0.0
C348 C 0.80453 0.67596 0.88544 0.0
C349 C 0.81068 0.67415 0.86699 0.0
C350 C 0.81233 0.67899 0.90429 0.0
C351 C 0.82666 0.68028 0.90467 0.0
C352 C 0.83324 0.67851 0.88614 0.0
C353 C 0.82487 0.67524 0.86738 0.0
C354 C 0.84878 0.68032 0.88614 0.0
C355 C 0.85764 0.68449 0.86766 0.0
C356 C 0.87201 0.68595 0.86731 0.0
C357 C 0.87799 0.68402 0.88576 0.0
C358 C 0.86964 0.67998 0.90429 0.0
C359 C 0.85493 0.67778 0.90439 0.0
H360 H 0.87278 0.65149 0.4639 0.0
H361 H 0.84343 0.66235 0.43088 0.0
H362 H 0.83515 0.64929 0.49604 0.0
H363 H 0.82365 0.66205 0.49642 0.0
H364 H 0.78577 0.65864 0.46406 0.0
H365 H 0.81883 0.65362 0.42968 0.0
C366 C 0.86266 0.65235 0.4637 0.0
C367 C 0.85457 0.65028 0.48214 0.0
C368 C 0.8585 0.65642 0.44521 0.0
C369 C 0.84602 0.65857 0.44514 0.0
C370 C 0.83712 0.6559 0.46333 0.0
C371 C 0.84164 0.6517 0.4818 0.0
C372 C 0.82319 0.65736 0.46314 0.0
C373 C 0.81758 0.66003 0.48192 0.0
C374 C 0.80386 0.65992 0.48233 0.0
C375 C 0.7961 0.65814 0.46377 0.0
C376 C 0.80165 0.65628 0.44478 0.0
C377 C 0.81508 0.65571 0.44444 0.0
H378 H 0.34338 0.21862 0.46469 0.0
H379 H 0.35281 0.18772 0.43294 0.0
H380 H 0.34187 0.18226 0.49893 0.0
H381 H 0.35676 0.17275 0.49985 0.0
H382 H 0.35716 0.13594 0.46946 0.0
H383 H 0.34422 0.16298 0.43469 0.0
C384 C 0.3444 0.20863 0.46518 0.0
C385 C 0.3424 0.20109 0.48404 0.0
C386 C 0.34777 0.20363 0.4468 0.0
C387 C 0.34967 0.19105 0.44724 0.0
C388 C 0.34793 0.18321 0.46615 0.0
C389 C 0.344 0.18831 0.4844 0.0
C390 C 0.35041 0.16998 0.46701 0.0
C391 C 0.3549 0.16618 0.48583 0.0
C392 C 0.35723 0.15387 0.48679 0.0
C393 C 0.35569 0.14565 0.46869 0.0
C394 C 0.35122 0.14902 0.4499 0.0
C395 C 0.34827 0.16094 0.44915 0.0
H396 H 0.87217 0.22485 0.46498 0.0
H397 H 0.84528 0.18486 0.4291 0.0
H398 H 0.83577 0.18639 0.49469 0.0
H399 H 0.82786 0.16214 0.4928 0.0
H400 H 0.79249 0.12577 0.45841 0.0
H401 H 0.82001 0.16813 0.42806 0.0
C402 C 0.86245 0.21354 0.46386 0.0
C403 C 0.85436 0.20638 0.48191 0.0
C404 C 0.85912 0.20593 0.44478 0.0
C405 C 0.8473 0.19085 0.44373 0.0
C406 C 0.83847 0.1835 0.46157 0.0
C407 C 0.84219 0.19154 0.48065 0.0
C408 C 0.82581 0.1674 0.46052 0.0
C409 C 0.8217 0.15803 0.47834 0.0
C410 C 0.80968 0.14308 0.47766 0.0
C411 C 0.80194 0.13727 0.45897 0.0
C412 C 0.80576 0.14619 0.44113 0.0
C413 C 0.81756 0.16126 0.44187 0.0
H414 H 1.00155 0.45838 0.22587 0.0
H415 H 0.00964 0.49878 0.25636 0.0
H416 H 0.9942 0.48979 0.19214 0.0
H417 H 0.0049 0.5142 0.19002 0.0
H418 H 0.99811 0.54697 0.22129 0.0
H419 H 0.99817 0.512 0.25708 0.0
C420 C 1.00145 0.46887 0.22541 0.0
C421 C 0.99777 0.47334 0.20692 0.0
C422 C 0.00549 0.47791 0.24318 0.0
C423 C 0.00597 0.49177 0.24256 0.0
C424 C 1.00182 0.49644 0.2242 0.0
C425 C 0.99775 0.48695 0.2064 0.0
C426 C 1.00143 0.51087 0.22361 0.0
C427 C 0.00269 0.51823 0.20443 0.0
C428 C 1.0009 0.53085 0.20355 0.0
C429 C 0.99882 0.53682 0.22198 0.0
C430 C 0.99823 0.5303 0.2413 0.0
C431 C 0.99933 0.51724 0.24208 0.0
H432 H 0.46372 0.45387 0.21536 0.0
H433 H 0.50418 0.48411 0.24835 0.0
H434 H 0.49988 0.49056 0.18243 0.0
H435 H 0.52454 0.50055 0.18234 0.0
H436 H 0.56049 0.53847 0.21354 0.0
H437 H 0.52004 0.50913 0.24743 0.0
C438 C 0.475 0.46374 0.21534 0.0
C439 C 0.48107 0.47161 0.19681 0.0
C440 C 0.48321 0.46833 0.23387 0.0
C441 C 0.49789 0.48099 0.23392 0.0
C442 C 0.50439 0.48921 0.21532 0.0
C443 C 0.49565 0.48435 0.19683 0.0
C444 C 0.52014 0.50275 0.21505 0.0
C445 C 0.52885 0.5071 0.19647 0.0
C446 C 0.54332 0.52001 0.19582 0.0
C447 C 0.54949 0.52825 0.2141 0.0
C448 C 0.54128 0.52424 0.23278 0.0
C449 C 0.52651 0.51169 0.23312 0.0
H450 H 0.4597 0.00746 0.21573 0.0
H451 H 0.48788 0.99507 0.24908 0.0
H452 H 0.50035 0.01406 0.187 0.0
H453 H 0.50963 0.99863 0.18506 0.0
H454 H 0.54509 0.99777 0.21877 0.0
H455 H 0.51358 0.00592 0.25197 0.0
C456 C 0.46995 0.00685 0.21654 0.0
C457 C 0.47969 0.01132 0.19936 0.0
C458 C 0.47287 1.00109 0.23447 0.0
C459 C 0.48599 0.99998 0.23537 0.0
C460 C 0.4961 0.00447 0.21819 0.0
C461 C 0.49279 0.01027 0.2003 0.0
C462 C 0.50974 0.00263 0.21848 0.0
C463 C 0.51531 0.99984 0.19974 0.0
C464 C 0.52803 0.9981 0.1998 0.0
C465 C 0.53519 0.99901 0.21865 0.0
C466 C 0.52995 0.00168 0.23736 0.0
C467 C 0.51729 0.00355 0.23736 0.0
H468 H 0.54568 0.9923 0.79636 0.0
H469 H 0.51131 0.99468 0.76211 0.0
H470 H 0.5141 1.00021 0.8294 0.0
H471 H 0.48994 0.99096 0.82806 0.0
H472 H 0.45852 0.99925 0.79594 0.0
H473 H 0.49784 0.00567 0.76344 0.0
C474 C 0.53572 0.99344 0.79627 0.0
C475 C 0.53015 0.99558 0.81507 0.0
C476 C 0.52921 0.99356 0.77727 0.0
C477 C 0.51645 0.99525 0.777 0.0
C478 C 0.51034 0.99726 0.79579 0.0
C479 C 0.5178 0.99795 0.81474 0.0
C480 C 0.4961 0.99821 0.79575 0.0
C481 C 0.487 0.99456 0.81394 0.0
C482 C 0.4736 0.99509 0.81409 0.0
C483 C 0.46887 0.99879 0.79586 0.0
C484 C 0.47746 0.00236 0.77764 0.0
C485 C 0.49117 0.00236 0.7776 0.0
H486 H 0.00784 0.55038 0.80284 0.0
H487 H 1.00029 0.51044 0.77121 0.0
H488 H 0.02006 0.52124 0.83308 0.0
H489 H 0.00925 0.49676 0.83618 0.0
H490 H 0.01508 0.46376 0.8037 0.0
H491 H 0.01245 0.49766 0.76866 0.0
C492 C 0.00863 0.54026 0.80256 0.0
C493 C 0.01424 0.53662 0.81995 0.0
C494 C 0.0037 0.53096 0.78496 0.0
C495 C 0.00453 0.51771 0.78472 0.0
C496 C 0.01027 0.51373 0.80217 0.0
C497 C 0.0152 0.52351 0.81966 0.0
C498 C 0.01113 0.49952 0.80239 0.0
C499 C 0.01092 0.49255 0.82154 0.0
C500 C 0.0129 0.48002 0.82208 0.0
C501 C 0.01429 0.47388 0.80335 0.0
C502 C 0.01376 0.47996 0.78415 0.0
C503 C 0.01234 0.49285 0.78365 0.0
H504 H 0.54017 0.55611 0.79529 0.0
H505 H 0.51014 0.51673 0.7605 0.0
H506 H 0.5029 0.51971 0.82673 0.0
H507 H 0.49024 0.49566 0.82592 0.0
H508 H 0.45243 0.46167 0.79229 0.0
H509 H 0.48602 0.50027 0.75933 0.0
C510 C 0.52999 0.54509 0.79476 0.0
C511 C 0.52217 0.53849 0.81318 0.0
C512 C 0.52546 0.53739 0.77579 0.0
C513 C 0.51294 0.52268 0.77521 0.0
C514 C 0.50427 0.51588 0.79343 0.0
C515 C 0.50915 0.52413 0.81239 0.0
C516 C 0.4902 0.50045 0.79278 0.0
C517 C 0.48432 0.49185 0.81128 0.0
C518 C 0.47046 0.47823 0.81126 0.0
C519 C 0.46288 0.47248 0.79247 0.0
C520 C 0.46872 0.4802 0.77379 0.0
C521 C 0.48219 0.49425 0.77391 0.0
H522 H 0.66601 0.78932 0.555 0.0
H523 H 0.67417 0.82895 0.58811 0.0
H524 H 0.65848 0.82167 0.52414 0.0
H525 H 0.67221 0.84669 0.52325 0.0
H526 H 0.66861 0.88095 0.55604 0.0
H527 H 0.66192 0.84205 0.58942 0.0
C528 C 0.6659 0.7998 0.55543 0.0
C529 C 0.66192 0.80465 0.53753 0.0
C530 C 0.67024 0.80845 0.57367 0.0
C531 C 0.67033 0.82215 0.57411 0.0
C532 C 0.66622 0.82731 0.55624 0.0
C533 C 0.66194 0.81828 0.53802 0.0
C534 C 0.66683 0.8422 0.5563 0.0
C535 C 0.66986 0.85062 0.53766 0.0
C536 C 0.67045 0.86452 0.53757 0.0
C537 C 0.66806 0.87014 0.55613 0.0
C538 C 0.6651 0.86217 0.57481 0.0
C539 C 0.6645 0.84822 0.57491 0.0
H540 H 0.13305 0.78107 0.55404 0.0
H541 H 0.17075 0.81507 0.5882 0.0
H542 H 0.16763 0.81903 0.52127 0.0
H543 H 0.19193 0.83111 0.52176 0.0
H544 H 0.22628 0.87042 0.55231 0.0
H545 H 0.18664 0.83976 0.58665 0.0
C546 C 0.14387 0.79152 0.55412 0.0
C547 C 0.14994 0.79914 0.53543 0.0
C548 C 0.15113 0.79742 0.57308 0.0
C549 C 0.1651 0.81102 0.5734 0.0
C550 C 0.17169 0.819 0.55463 0.0
C551 C 0.16353 0.81304 0.53582 0.0
C552 C 0.18702 0.83324 0.55434 0.0
C553 C 0.19578 0.83786 0.53577 0.0
C554 C 0.20977 0.85133 0.53487 0.0
C555 C 0.21563 0.85983 0.55301 0.0
C556 C 0.20751 0.85553 0.57174 0.0
C557 C 0.19306 0.84248 0.57229 0.0
H558 H 0.13062 0.34655 0.55097 0.0
H559 H 0.1605 0.33627 0.584 0.0
H560 H 0.17242 0.35658 0.52252 0.0
H561 H 0.18444 0.34409 0.52003 0.0
H562 H 0.22171 0.34714 0.55371 0.0
H563 H 0.18563 0.34726 0.58752 0.0
C564 C 0.14125 0.34667 0.55176 0.0
C565 C 0.1511 0.35194 0.53473 0.0
C566 C 0.14462 0.34112 0.56953 0.0
C567 C 0.15828 0.34101 0.57039 0.0
C568 C 0.16858 0.34641 0.55337 0.0
C569 C 0.16478 0.35199 0.53567 0.0
C570 C 0.18313 0.34611 0.55372 0.0
C571 C 0.18996 0.34534 0.53484 0.0
C572 C 0.20409 0.34626 0.53479 0.0
C573 C 0.21112 0.34712 0.55373 0.0
C574 C 0.20434 0.34709 0.57272 0.0
C575 C 0.19045 0.34676 0.57271 0.0
H576 H 0.98362 0.36768 0.08554 0.0
H577 H 0.98098 0.38451 0.11011 0.0
H578 H 0.01961 0.42278 0.08225 0.0
H579 H 0.02238 0.40609 0.05768 0.0
H580 H 0.00396 0.40609 0.13877 0.0
H581 H 0.98498 0.43311 0.08094 0.0
H582 H 0.98396 0.41532 0.07608 0.0
H583 H 1.00177 0.4326 0.07423 0.0
C584 C 0.99159 0.37967 0.0847 0.0
C585 C 0.00318 0.38555 0.06963 0.0
C586 C 0.99005 0.38926 0.09871 0.0
C587 C 0.99994 0.40489 0.09772 0.0
C588 C 0.0117 0.41077 0.08299 0.0
H589 H 0.01218 0.48182 0.16933 0.0
H590 H 0.01159 0.46499 0.14164 0.0
C591 C 0.01332 0.4012 0.06908 0.0
C592 C 0.9982 0.41503 0.11243 0.0
H593 H 0.98995 0.44325 0.11513 0.0
C594 C 1.00081 0.41416 0.13366 0.0
C595 C 0.9942 0.4256 0.10562 0.0
C596 C 0.99094 0.42671 0.083 0.0
C597 C 0.9998 0.42378 0.14828 0.0
C598 C 0.99564 0.43428 0.14154 0.0
C599 C 0.99304 0.43515 0.12027 0.0
C600 C 0.99426 0.44459 0.15642 0.0
C601 C 0.00365 0.42291 0.17073 0.0
C602 C 0.98415 0.43877 0.17329 0.0
C603 C 0.98453 0.44832 0.18908 0.0
C604 C 0.99485 0.46389 0.1881 0.0
C605 C 0.00406 0.46986 0.17036 0.0
C606 C 0.00379 0.46026 0.15462 0.0
H607 H 0.01047 0.41734 0.17224 0.0
H608 H 0.01006 0.43431 0.17783 0.0
H609 H 0.99304 0.41621 0.17975 0.0
H610 H 0.97642 0.42676 0.1747 0.0
H611 H 0.97725 0.44347 0.20256 0.0
H612 H 0.59096 0.60955 0.04608 0.0
H613 H 0.57964 0.58962 0.07212 0.0
H614 H 0.62372 0.59677 0.08734 0.0
H615 H 0.63527 0.61691 0.0613 0.0
H616 H 0.58138 0.56276 0.07352 0.0
H617 H 0.60546 0.5984 0.14431 0.0
H618 H 0.60513 0.6062 0.1193 0.0
H619 H 0.61874 0.60053 0.12431 0.0
C620 C 0.59832 0.60703 0.05505 0.0
C621 C 0.61407 0.61491 0.05161 0.0
C622 C 0.5918 0.59556 0.06988 0.0
C623 C 0.60083 0.59176 0.08171 0.0
C624 C 0.61656 0.59966 0.07853 0.0
H625 H 0.57314 0.53021 0.18736 0.0
H626 H 0.58779 0.54569 0.15767 0.0
C627 C 0.62313 0.61115 0.06363 0.0
C628 C 0.59362 0.57941 0.09719 0.0
H629 H 0.58996 0.57233 0.14943 0.0
C630 C 0.58331 0.5648 0.09013 0.0
C631 C 0.59623 0.58211 0.1188 0.0
C632 C 0.6069 0.59766 0.12726 0.0
C633 C 0.57539 0.55283 0.10415 0.0
C634 C 0.57763 0.55563 0.12582 0.0
C635 C 0.58827 0.57017 0.13282 0.0
C636 C 0.56846 0.54401 0.14166 0.0
C637 C 0.56475 0.53732 0.09561 0.0
C638 C 0.55265 0.5375 0.14221 0.0
C639 C 0.54425 0.52855 0.15909 0.0
C640 C 0.55154 0.52615 0.17585 0.0
C641 C 0.56724 0.53193 0.17467 0.0
C642 C 0.57561 0.54079 0.15775 0.0
H643 H 0.56801 0.53601 0.07954 0.0
H644 H 0.56449 0.52843 0.10564 0.0
H645 H 0.55315 0.53558 0.09495 0.0
H646 H 0.5469 0.54007 0.13024 0.0
H647 H 0.53222 0.52445 0.15973 0.0
H648 H 0.39877 0.98456 0.04347 0.0
H649 H 0.41769 0.9912 0.07058 0.0
H650 H 0.41034 0.02678 0.09176 0.0
H651 H 0.3912 0.02016 0.06461 0.0
H652 H 0.44482 0.01981 0.07703 0.0
H653 H 0.40535 0.0017 0.14482 0.0
H654 H 0.39884 0.99576 0.1185 0.0
H655 H 0.4044 0.01453 0.1268 0.0
C656 C 0.40106 0.99375 0.05392 0.0
C657 C 0.39338 0.00178 0.05188 0.0
C658 C 0.41195 0.99757 0.06937 0.0
C659 C 0.41537 0.00942 0.0832 0.0
C660 C 0.40774 0.01747 0.08134 0.0
H661 H 0.47067 0.03194 0.19499 0.0
H662 H 0.45734 0.03458 0.16522 0.0
C663 C 0.39681 0.01368 0.06582 0.0
C664 C 0.4269 0.01318 0.09955 0.0
H665 H 0.43107 0.01138 0.15197 0.0
C666 C 0.44187 0.0181 0.09345 0.0
C667 C 0.42302 0.01099 0.12093 0.0
C668 C 0.40702 0.00536 0.12827 0.0
C669 C 0.45304 0.02068 0.10818 0.0
C670 C 0.44903 0.01797 0.12951 0.0
C671 C 0.43415 0.01349 0.13562 0.0
C672 C 0.45967 0.01867 0.14571 0.0
C673 C 0.46899 0.02628 0.10074 0.0
C674 C 0.46588 0.00926 0.14438 0.0
C675 C 0.47362 0.00786 0.16132 0.0
C676 C 0.47507 0.01567 0.17996 0.0
C677 C 0.46967 0.02578 0.1808 0.0
C678 C 0.46204 0.02726 0.16383 0.0
H679 H 0.4713 0.0325 0.0858 0.0
H680 H 0.47742 0.03378 0.11246 0.0
H681 H 0.47055 0.0165 0.09802 0.0
H682 H 0.46392 0.00227 0.13077 0.0
H683 H 0.47747 0.99982 0.16038 0.0
H684 H 0.40946 0.02475 0.96256 0.0
H685 H 0.42601 0.02169 0.93782 0.0
H686 H 0.38735 0.9824 0.91197 0.0
H687 H 0.37073 0.98534 0.93658 0.0
H688 H 0.42863 0.9946 0.9331 0.0
H689 H 0.4098 0.01023 0.86114 0.0
H690 H 0.40669 0.01531 0.88689 0.0
H691 H 0.39494 0.99643 0.87742 0.0
C692 C 0.40446 0.01554 0.95147 0.0
C693 C 0.38878 0.0053 0.95147 0.0
C694 C 0.41394 0.01378 0.93745 0.0
C695 C 0.40786 0.00187 0.92307 0.0
C696 C 0.39221 0.99174 0.92285 0.0
H697 H 0.44356 0.97552 0.81986 0.0
H698 H 0.42781 0.97565 0.84856 0.0
C699 C 0.38275 0.99345 0.93691 0.0
C700 C 0.41789 0.99985 0.90844 0.0
H701 H 0.42606 1.00043 0.85678 0.0
C702 C 0.42814 0.99591 0.9164 0.0
C703 C 0.41715 0.00154 0.88672 0.0
C704 C 0.40665 0.00623 0.87745 0.0
C705 C 0.43751 0.99329 0.9031 0.0
C706 C 0.43675 0.99497 0.88134 0.0
C707 C 0.42654 0.99902 0.87346 0.0
C708 C 0.44656 0.9929 0.86627 0.0
C709 C 0.44784 0.98844 0.91241 0.0
C710 C 0.46238 0.00216 0.86708 0.0
C711 C 0.4714 0.00194 0.85079 0.0
C712 C 0.46469 0.99265 0.83337 0.0
C713 C 0.44897 0.98278 0.83317 0.0
C714 C 0.43999 0.98289 0.84949 0.0
H715 H 0.44395 0.98347 0.92815 0.0
H716 H 0.4486 0.98007 0.90228 0.0
H717 H 0.45936 0.99841 0.914 0.0
H718 H 0.46768 0.01019 0.87963 0.0
H719 H 0.48348 0.0098 0.85112 0.0
H720 H 0.9765 0.38971 0.97597 0.0
H721 H 0.98115 0.40806 0.94883 0.0
H722 H 0.02175 0.40822 0.93057 0.0
H723 H 0.01709 0.38959 0.95765 0.0
H724 H 0.00576 0.43684 0.94461 0.0
H725 H 0.99984 0.40186 0.87518 0.0
H726 H 0.99363 0.39389 0.90083 0.0
H727 H 0.01336 0.40321 0.89404 0.0
C728 C 0.98638 0.39351 0.96611 0.0
C729 C 0.99641 0.38811 0.969 0.0
C730 C 0.98903 0.40406 0.95061 0.0
C731 C 1.00172 0.40945 0.93757 0.0
C732 C 0.01174 0.40403 0.94024 0.0
H733 H 0.03342 0.47225 0.83413 0.0
H734 H 0.03157 0.45641 0.86361 0.0
C735 C 0.00907 0.3934 0.95576 0.0
C736 C 0.00455 0.42099 0.92157 0.0
H737 H 0.00776 0.42744 0.86913 0.0
C738 C 0.0062 0.43479 0.92809 0.0
C739 C 0.00509 0.4183 0.90004 0.0
C740 C 0.00276 0.40347 0.89202 0.0
C741 C 0.00852 0.44603 0.91368 0.0
C742 C 0.00898 0.4433 0.89216 0.0
C743 C 0.00743 0.42954 0.88565 0.0
C744 C 0.01098 0.45445 0.87597 0.0
C745 C 0.01069 0.4608 0.92164 0.0
C746 C 1.0002 0.45891 0.87338 0.0
C747 C 1.00127 0.46805 0.85654 0.0
C748 C 0.01305 0.4727 0.84192 0.0
C749 C 0.02416 0.46874 0.8451 0.0
C750 C 0.02311 0.45969 0.86191 0.0
H751 H 0.014 0.46262 0.93833 0.0
H752 H 0.01946 0.4704 0.91243 0.0
H753 H 0.99989 0.46076 0.92012 0.0
H754 H 0.99059 0.45479 0.88384 0.0
H755 H 0.99246 0.47077 0.85432 0.0
H756 H 0.61486 0.63847 0.93866 0.0
H757 H 0.59441 0.62159 0.91527 0.0
H758 H 0.59889 0.58424 0.93597 0.0
H759 H 0.61957 0.6011 0.95904 0.0
H760 H 0.59624 0.58446 0.89405 0.0
H761 H 0.55123 0.59127 0.93148 0.0
H762 H 0.5673 0.60881 0.92353 0.0
H763 H 0.5694 0.59778 0.94349 0.0
C764 C 0.61153 0.62668 0.93817 0.0
C765 C 0.61881 0.62112 0.95077 0.0
C766 C 0.59973 0.617 0.92496 0.0
C767 C 0.59485 0.60157 0.92425 0.0
C768 C 0.60235 0.59607 0.93641 0.0
H769 H 0.52779 0.52702 0.84802 0.0
H770 H 0.54393 0.54141 0.87746 0.0
C771 C 0.61421 0.60574 0.94955 0.0
C772 C 0.58224 0.59122 0.91037 0.0
H773 H 0.54525 0.57876 0.89846 0.0
C774 C 0.58505 0.58309 0.89517 0.0
C775 C 0.56761 0.5894 0.91188 0.0
C776 C 0.56363 0.59716 0.92861 0.0
C777 C 0.57381 0.57358 0.88103 0.0
C778 C 0.5593 0.57201 0.88228 0.0
C779 C 0.55638 0.57996 0.89762 0.0
C780 C 0.54738 0.56285 0.86687 0.0
C781 C 0.57767 0.56565 0.8644 0.0
C782 C 0.54335 0.57004 0.85186 0.0
C783 C 0.53411 0.56186 0.83514 0.0
C784 C 0.52868 0.54633 0.83322 0.0
C785 C 0.53174 0.53895 0.84918 0.0
C786 C 0.54106 0.54717 0.86587 0.0
H787 H 0.59004 0.57008 0.86333 0.0
H788 H 0.57199 0.55346 0.86808 0.0
H789 H 0.57356 0.56685 0.84895 0.0
H790 H 0.54805 0.58212 0.85244 0.0
H791 H 0.53185 0.56781 0.82312 0.0
H792 H 0.98621 0.59056 0.97695 0.0
H793 H 0.99318 0.57844 0.95002 0.0
H794 H 0.02483 0.62181 0.92402 0.0
H795 H 0.01793 0.6342 0.9511 0.0
H796 H 0.00463 0.59901 0.89465 0.0
H797 H 0.03357 0.57828 0.94597 0.0
H798 H 0.01519 0.57397 0.955 0.0
H799 H 0.03023 0.59327 0.95355 0.0
C800 C 0.99466 0.5976 0.96555 0.0
C801 C 1.00154 0.6134 0.96626 0.0
C802 C 0.99871 0.59062 0.95025 0.0
C803 C 0.00973 0.59924 0.93531 0.0
C804 C 0.01642 0.61499 0.9356 0.0
H805 H 0.03305 0.56702 0.82268 0.0
H806 H 0.03456 0.5834 0.85151 0.0
C807 C 0.01243 0.62203 0.95103 0.0
C808 C 0.0137 0.59162 0.91898 0.0
H809 H 0.02706 0.56752 0.91188 0.0
C810 C 0.00975 0.59231 0.8983 0.0
C811 C 0.02029 0.58282 0.9239 0.0
C812 C 0.0252 0.58211 0.94578 0.0
C813 C 0.01158 0.58389 0.88251 0.0
C814 C 0.01792 0.57484 0.88748 0.0
C815 C 0.02224 0.57447 0.90809 0.0
C816 C 0.01932 0.56507 0.87165 0.0
C817 C 0.00603 0.58421 0.86086 0.0
C818 C 0.01114 0.54934 0.87401 0.0
C819 C 0.01048 0.53997 0.8577 0.0
C820 C 0.01796 0.54621 0.83879 0.0
C821 C 0.02709 0.56195 0.83708 0.0
C822 C 0.02785 0.5713 0.85344 0.0
H823 H 0.99825 0.58875 0.86085 0.0
H824 H 0.01585 0.59155 0.85077 0.0
H825 H 1.00006 0.57275 0.85389 0.0
H826 H 0.00456 0.5443 0.88801 0.0
H827 H 0.0033 0.52788 0.85935 0.0
H828 H 0.40754 0.38112 0.961 0.0
H829 H 0.42568 0.40059 0.93737 0.0
H830 H 0.39019 0.40705 0.91323 0.0
H831 H 0.37201 0.38773 0.93695 0.0
H832 H 0.42569 0.40247 0.89382 0.0
H833 H 0.42282 0.44966 0.93098 0.0
H834 H 0.41555 0.43155 0.94338 0.0
H835 H 0.40466 0.43416 0.92369 0.0
C836 C 0.40358 0.38664 0.95059 0.0
C837 C 0.38836 0.38296 0.95093 0.0
C838 C 0.41397 0.39777 0.93714 0.0
C839 C 0.40934 0.40547 0.9239 0.0
C840 C 0.39406 0.40148 0.9237 0.0
H841 H 0.44168 0.46772 0.82444 0.0
H842 H 0.42875 0.45108 0.85389 0.0
C843 C 0.38366 0.39035 0.93713 0.0
C844 C 0.42043 0.41757 0.91009 0.0
H845 H 0.43484 0.45459 0.8976 0.0
C846 C 0.42787 0.41392 0.89479 0.0
C847 C 0.42332 0.43252 0.91156 0.0
C848 C 0.41629 0.43728 0.92841 0.0
C849 C 0.43755 0.42466 0.88018 0.0
C850 C 0.43999 0.43945 0.88117 0.0
C851 C 0.43295 0.44323 0.89693 0.0
C852 C 0.44849 0.45068 0.86471 0.0
C853 C 0.4445 0.41991 0.86319 0.0
C854 C 0.46402 0.45633 0.86142 0.0
C855 C 0.47146 0.46589 0.84453 0.0
C856 C 0.46343 0.46983 0.83074 0.0
C857 C 0.44808 0.4647 0.83471 0.0
C858 C 0.4407 0.45525 0.85155 0.0
H859 H 0.43954 0.4075 0.86266 0.0
H860 H 0.44295 0.42376 0.84774 0.0
H861 H 0.45684 0.4252 0.86598 0.0
H862 H 0.47026 0.45309 0.87162 0.0
H863 H 0.4833 0.4697 0.84178 0.0
H864 H 0.61836 0.98722 0.95033 0.0
H865 H 0.60071 0.9843 0.92247 0.0
H866 H 0.604 0.02618 0.94081 0.0
H867 H 0.62164 0.0293 0.96829 0.0
H868 H 0.57244 0.98263 0.92728 0.0
H869 H 0.61119 0.03133 0.87798 0.0
H870 H 0.61794 0.02379 0.8978 0.0
H871 H 0.61104 0.03616 0.90486 0.0
C872 C 0.6155 0.99591 0.94822 0.0
C873 C 0.62148 0.00851 0.96155 0.0
C874 C 0.60536 0.99419 0.93236 0.0
C875 C 0.60117 0.00511 0.92941 0.0
C876 C 0.60727 0.01775 0.94252 0.0
H877 H 0.54081 0.01676 0.84627 0.0
H878 H 0.55688 0.01847 0.87572 0.0
C879 C 0.61733 0.01946 0.95833 0.0
C880 C 0.58994 0.00311 0.91329 0.0
H881 H 0.58489 0.01988 0.87071 0.0
C882 C 0.57518 0.99071 0.91481 0.0
C883 C 0.5935 0.01372 0.89713 0.0
C884 C 0.60931 0.02693 0.89417 0.0
C885 C 0.56381 0.98878 0.90082 0.0
C886 C 0.56737 0.99944 0.88472 0.0
C887 C 0.58214 0.01181 0.88319 0.0
C888 C 0.5562 0.99758 0.86857 0.0
C889 C 0.54802 0.97553 0.90363 0.0
C890 C 0.55033 0.98518 0.85502 0.0
C891 C 0.54118 0.98419 0.83832 0.0
C892 C 0.53776 0.99561 0.83474 0.0
C893 C 0.54314 0.00773 0.84879 0.0
C894 C 0.55238 0.00876 0.8655 0.0
H895 H 0.54613 0.97099 0.91974 0.0
H896 H 0.53938 0.97867 0.90011 0.0
H897 H 0.54634 0.9664 0.89276 0.0
H898 H 0.55331 0.97655 0.85684 0.0
H899 H 0.53717 0.9747 0.82774 0.0
H900 H 0.63386 0.01767 0.07607 0.0
H901 H 0.61538 0.01751 0.10058 0.0
H902 H 0.58089 0.97491 0.07556 0.0
H903 H 0.59918 0.97512 0.05079 0.0
H904 H 0.5709 0.99504 0.08044 0.0
H905 H 0.59871 0.99172 0.1526 0.0
H906 H 0.61079 0.00736 0.13614 0.0
H907 H 0.60393 0.98844 0.12706 0.0
C908 C 0.62237 0.00822 0.0759 0.0
C909 C 0.61801 0.99637 0.06157 0.0
C910 C 0.61183 0.00812 0.08994 0.0
C911 C 0.59679 0.99611 0.09007 0.0
C912 C 0.59243 0.98429 0.07576 0.0
H913 H 0.53372 0.97556 0.19153 0.0
H914 H 0.54898 0.97439 0.16297 0.0
C915 C 0.60292 0.9844 0.06167 0.0
C916 C 0.58555 0.99584 0.105 0.0
H917 H 0.57809 0.99577 0.15689 0.0
C918 C 0.57244 0.99517 0.09717 0.0
C919 C 0.58748 0.99582 0.12681 0.0
C920 C 0.60091 0.99573 0.1362 0.0
C921 C 0.56126 0.99459 0.11058 0.0
C922 C 0.56339 0.99495 0.13238 0.0
C923 C 0.57648 0.99555 0.14017 0.0
C924 C 0.5522 0.99448 0.14761 0.0
C925 C 0.54716 0.9933 0.10128 0.0
C926 C 0.54849 0.0059 0.14811 0.0
C927 C 0.53958 0.00646 0.16432 0.0
C928 C 0.53444 0.99574 0.18039 0.0
C929 C 0.53754 0.98394 0.17929 0.0
C930 C 0.54631 0.98331 0.16305 0.0
H931 H 0.54537 0.98903 0.085 0.0
H932 H 0.537 0.98567 0.11068 0.0
H933 H 0.54829 0.00459 0.10105 0.0
H934 H 0.55313 0.01481 0.1366 0.0
H935 H 0.53752 0.01578 0.16501 0.0
H936 H 0.98589 0.6167 0.07909 0.0
H937 H 0.98587 0.59813 0.10286 0.0
H938 H 0.02961 0.60851 0.07948 0.0
H939 H 0.02984 0.62721 0.05592 0.0
H940 H 0.98765 0.57258 0.09176 0.0
H941 H 0.03559 0.61121 0.1427 0.0
H942 H 0.02629 0.61781 0.12552 0.0
H943 H 0.03975 0.61314 0.11528 0.0
C944 C 0.99559 0.61517 0.0792 0.0
C945 C 0.00789 0.62347 0.06568 0.0
C946 C 0.99553 0.60451 0.09272 0.0
C947 C 0.00779 0.60203 0.09306 0.0
C948 C 0.02015 0.61041 0.07973 0.0
H949 H 0.02298 0.54203 0.17342 0.0
H950 H 0.02489 0.5579 0.1436 0.0
C951 C 0.02022 0.62107 0.06623 0.0
C952 C 0.00741 0.59033 0.10689 0.0
H953 H 0.02499 0.58512 0.14839 0.0
C954 C 0.99583 0.57531 0.10412 0.0
C955 C 0.01818 0.5939 0.12286 0.0
C956 C 0.0306 0.6099 0.12695 0.0
C957 C 0.99463 0.56378 0.11705 0.0
C958 C 0.00516 0.56741 0.13336 0.0
C959 C 0.01698 0.58236 0.13578 0.0
C960 C 0.00327 0.55623 0.14938 0.0
C961 C 0.98209 0.54782 0.11316 0.0
C962 C 0.99042 0.5499 0.16226 0.0
C963 C 0.98935 0.54093 0.17916 0.0
C964 C 1.00112 0.53814 0.18358 0.0
C965 C 0.0137 0.54391 0.17018 0.0
C966 C 0.01483 0.55301 0.15327 0.0
H967 H 0.97816 0.54618 0.09674 0.0
H968 H 0.98577 0.53962 0.11676 0.0
H969 H 0.97231 0.54531 0.12335 0.0
H970 H 0.98151 0.55245 0.15982 0.0
H971 H 0.97954 0.53662 0.1893 0.0
H972 H 0.39128 0.37667 0.06109 0.0
H973 H 0.40957 0.39165 0.08823 0.0
H974 H 0.40476 0.42973 0.0727 0.0
H975 H 0.38682 0.41503 0.04537 0.0
H976 H 0.43426 0.43758 0.07573 0.0
H977 H 0.40218 0.40426 0.1449 0.0
H978 H 0.40509 0.39351 0.12526 0.0
H979 H 0.39358 0.40164 0.11961 0.0
C980 C 0.39397 0.38817 0.06365 0.0
C981 C 0.38756 0.39464 0.05107 0.0
C982 C 0.40441 0.39672 0.07919 0.0
C983 C 0.40845 0.41179 0.08261 0.0
C984 C 0.40185 0.41814 0.07031 0.0
H985 H 0.45244 0.46593 0.19084 0.0
H986 H 0.43565 0.45243 0.16168 0.0
C987 C 0.39154 0.40968 0.05473 0.0
C988 C 0.41985 0.42118 0.09853 0.0
H989 H 0.42732 0.42398 0.15064 0.0
C990 C 0.43275 0.43462 0.09213 0.0
C991 C 0.4178 0.41737 0.11992 0.0
C992 C 0.40386 0.40349 0.12792 0.0
C993 C 0.44361 0.44438 0.10654 0.0
C994 C 0.44167 0.44045 0.12788 0.0
C995 C 0.42882 0.42697 0.13425 0.0
C996 C 0.45252 0.45027 0.14409 0.0
C997 C 0.45682 0.459 0.09884 0.0
C998 C 0.46773 0.45393 0.14363 0.0
C999 C 0.47741 0.46185 0.16019 0.0
C1000 C 0.47194 0.466 0.17756 0.0
C1001 C 0.45691 0.46284 0.17759 0.0
C1002 C 0.44731 0.45508 0.16101 0.0
H1003 H 0.45453 0.46217 0.08332 0.0
H1004 H 0.45957 0.46833 0.10996 0.0
H1005 H 0.4669 0.45773 0.0973 0.0
H1006 H 0.47194 0.45009 0.13093 0.0
H1007 H 0.48889 0.46397 0.15998 0.0
H1008 H 0.64902 0.70137 0.41412 0.0
H1009 H 0.64586 0.71838 0.43757 0.0
H1010 H 0.68784 0.75577 0.41518 0.0
H1011 H 0.69126 0.7388 0.39204 0.0
H1012 H 0.68561 0.75592 0.45717 0.0
H1013 H 0.63291 0.74825 0.42181 0.0
H1014 H 0.63146 0.7309 0.42988 0.0
H1015 H 0.64439 0.74176 0.40934 0.0
C1016 C 0.65762 0.7132 0.41425 0.0
C1017 C 0.67037 0.71874 0.40116 0.0
C1018 C 0.65571 0.72294 0.42751 0.0
C1019 C 0.66643 0.73842 0.42776 0.0
C1020 C 0.67935 0.7439 0.41509 0.0
H1021 H 0.6757 0.81473 0.49982 0.0
H1022 H 0.67577 0.79917 0.47076 0.0
C1023 C 0.68131 0.73417 0.40191 0.0
C1024 C 0.66445 0.74885 0.44169 0.0
H1025 H 0.64027 0.76143 0.4543 0.0
C1026 C 0.67577 0.75723 0.45639 0.0
C1027 C 0.65161 0.75058 0.44062 0.0
C1028 C 0.63946 0.74251 0.42443 0.0
C1029 C 0.67442 0.76699 0.47038 0.0
C1030 C 0.66147 0.76849 0.46956 0.0
C1031 C 0.6502 0.76025 0.45479 0.0
C1032 C 0.65927 0.77803 0.48479 0.0
C1033 C 0.68667 0.77537 0.48635 0.0
C1034 C 0.64946 0.77129 0.50175 0.0
C1035 C 0.64942 0.78012 0.5183 0.0
C1036 C 0.65911 0.79584 0.51806 0.0
C1037 C 0.66803 0.80266 0.50029 0.0
C1038 C 0.66816 0.7938 0.48379 0.0
H1039 H 0.69504 0.77155 0.4866 0.0
H1040 H 0.69274 0.78759 0.48273 0.0
H1041 H 0.68163 0.77388 0.50215 0.0
H1042 H 0.64253 0.75914 0.50276 0.0
H1043 H 0.64243 0.77461 0.53182 0.0
H1044 H 0.29908 0.94757 0.39812 0.0
H1045 H 0.28735 0.92794 0.42485 0.0
H1046 H 0.2434 0.92061 0.40825 0.0
H1047 H 0.25495 0.94027 0.38195 0.0
H1048 H 0.24803 0.92289 0.45027 0.0
H1049 H 0.26294 0.88235 0.4163 0.0
H1050 H 0.27869 0.90097 0.42073 0.0
H1051 H 0.26462 0.89811 0.40179 0.0
C1052 C 0.28693 0.9418 0.4002 0.0
C1053 C 0.27798 0.94552 0.38785 0.0
C1054 C 0.28022 0.93048 0.41534 0.0
C1055 C 0.26446 0.92262 0.41828 0.0
C1056 C 0.25557 0.92646 0.40617 0.0
H1057 H 0.19739 0.85368 0.49857 0.0
H1058 H 0.21096 0.86964 0.46868 0.0
C1059 C 0.26223 0.93775 0.39114 0.0
C1060 C 0.25711 0.91073 0.43441 0.0
H1061 H 0.25063 0.87606 0.44923 0.0
C1062 C 0.24858 0.91265 0.45 0.0
C1063 C 0.25787 0.89737 0.43405 0.0
C1064 C 0.26641 0.89445 0.41724 0.0
C1065 C 0.24081 0.90162 0.46524 0.0
C1066 C 0.24141 0.8882 0.46475 0.0
C1067 C 0.25012 0.88632 0.44941 0.0
C1068 C 0.23321 0.87624 0.48046 0.0
C1069 C 0.2321 0.90444 0.48192 0.0
C1070 C 0.24123 0.87404 0.49635 0.0
C1071 C 0.23351 0.86487 0.51338 0.0
C1072 C 0.21764 0.85772 0.51474 0.0
C1073 C 0.2096 0.85894 0.49792 0.0
C1074 C 0.21734 0.86816 0.48092 0.0
H1075 H 0.23514 0.91644 0.48248 0.0
H1076 H 0.21981 0.89747 0.47868 0.0
H1077 H 0.23421 0.9012 0.49748 0.0
H1078 H 0.25349 0.88014 0.49619 0.0
H1079 H 0.23999 0.86403 0.52605 0.0
H1080 H 0.05987 0.35592 0.4004 0.0
H1081 H 0.07936 0.36345 0.42731 0.0
H1082 H 0.09085 0.33138 0.40314 0.0
H1083 H 0.07155 0.32379 0.37636 0.0
H1084 H 0.08128 0.34396 0.45762 0.0
H1085 H 0.13209 0.37123 0.40677 0.0
H1086 H 0.11382 0.36791 0.39855 0.0
H1087 H 0.11781 0.35281 0.39823 0.0
C1088 C 0.06656 0.35049 0.40079 0.0
C1089 C 0.06413 0.33925 0.38619 0.0
C1090 C 0.07771 0.35484 0.41613 0.0
C1091 C 0.08672 0.34818 0.41692 0.0
C1092 C 0.08424 0.3369 0.4025 0.0
H1093 H 0.14939 0.34086 0.49562 0.0
H1094 H 0.13517 0.34259 0.46621 0.0
C1095 C 0.07308 0.33248 0.3873 0.0
C1096 C 0.0982 0.3523 0.43347 0.0
H1097 H 0.13573 0.36508 0.44136 0.0
C1098 C 0.09322 0.34881 0.45417 0.0
C1099 C 0.11374 0.35854 0.42882 0.0
C1100 C 0.11975 0.36298 0.40691 0.0
C1101 C 0.10327 0.35072 0.47026 0.0
C1102 C 0.1188 0.35667 0.46557 0.0
C1103 C 0.12385 0.36057 0.44493 0.0
C1104 C 0.12969 0.35793 0.48173 0.0
C1105 C 0.097 0.34562 0.49196 0.0
C1106 C 0.13204 0.36664 0.49971 0.0
C1107 C 0.14007 0.3656 0.51652 0.0
C1108 C 0.14609 0.35602 0.51547 0.0
C1109 C 0.14494 0.34839 0.49676 0.0
C1110 C 0.13676 0.34932 0.48001 0.0
H1111 H 0.08451 0.33813 0.49191 0.0
H1112 H 0.10209 0.33951 0.4994 0.0
H1113 H 0.09973 0.35561 0.50167 0.0
H1114 H 0.12701 0.37366 0.50114 0.0
H1115 H 0.14092 0.37168 0.53074 0.0
H1116 H 0.07661 0.3574 0.29314 0.0
H1117 H 0.09186 0.35219 0.26872 0.0
H1118 H 0.05195 0.31112 0.24966 0.0
H1119 H 0.03662 0.31624 0.2739 0.0
H1120 H 0.09445 0.32517 0.26806 0.0
H1121 H 0.0715 0.334 0.19454 0.0
H1122 H 0.06951 0.34114 0.21937 0.0
H1123 H 0.05759 0.32155 0.21306 0.0
C1124 C 0.07106 0.34735 0.28358 0.0
C1125 C 0.0554 0.33725 0.28538 0.0
C1126 C 0.07979 0.34435 0.26974 0.0
C1127 C 0.073 0.33132 0.25737 0.0
C1128 C 0.05736 0.32133 0.25894 0.0
H1129 H 0.10527 0.29846 0.15729 0.0
H1130 H 0.09043 0.29955 0.18653 0.0
C1131 C 0.04863 0.32427 0.2728 0.0
C1132 C 0.08226 0.32803 0.24296 0.0
H1133 H 0.08782 0.32419 0.19144 0.0
C1134 C 0.09306 0.32497 0.25129 0.0
C1135 C 0.08032 0.32773 0.22116 0.0
C1136 C 0.0692 0.33139 0.21141 0.0
C1137 C 0.10188 0.3214 0.2383 0.0
C1138 C 0.09999 0.32117 0.21646 0.0
C1139 C 0.08916 0.32423 0.2082 0.0
C1140 C 0.10947 0.31845 0.2016 0.0
C1141 C 0.11292 0.31766 0.24808 0.0
C1142 C 0.12519 0.32831 0.20084 0.0
C1143 C 0.13371 0.32758 0.18426 0.0
C1144 C 0.12656 0.31714 0.16807 0.0
C1145 C 0.11102 0.30662 0.1696 0.0
C1146 C 0.10254 0.30727 0.18624 0.0
H1147 H 0.10976 0.31383 0.26446 0.0
H1148 H 0.11358 0.30876 0.23913 0.0
H1149 H 0.12434 0.3279 0.24822 0.0
H1150 H 0.13073 0.33722 0.21226 0.0
H1151 H 0.14564 0.33595 0.18326 0.0
H1152 H 0.6474 0.72588 0.30765 0.0
H1153 H 0.65324 0.74477 0.28087 0.0
H1154 H 0.69329 0.74346 0.26383 0.0
H1155 H 0.68743 0.72429 0.29059 0.0
H1156 H 0.67876 0.77325 0.27741 0.0
H1157 H 0.6722 0.73813 0.20783 0.0
H1158 H 0.6654 0.7301 0.23331 0.0
H1159 H 0.68519 0.73884 0.22712 0.0
C1160 C 0.65742 0.72948 0.29815 0.0
C1161 C 0.66693 0.72348 0.30127 0.0
C1162 C 0.66075 0.74034 0.28286 0.0
C1163 C 0.67362 0.74546 0.27025 0.0
C1164 C 0.68315 0.73949 0.27318 0.0
H1165 H 0.70622 0.80806 0.16625 0.0
H1166 H 0.70448 0.79237 0.19585 0.0
C1167 C 0.6798 0.72855 0.2885 0.0
C1168 C 0.67707 0.75723 0.25433 0.0
H1169 H 0.68054 0.76378 0.20191 0.0
C1170 C 0.67918 0.7712 0.26089 0.0
C1171 C 0.67761 0.75453 0.2328 0.0
C1172 C 0.67486 0.73956 0.22474 0.0
C1173 C 0.68186 0.78257 0.24651 0.0
C1174 C 0.68221 0.7798 0.22498 0.0
C1175 C 0.6803 0.7659 0.21844 0.0
C1176 C 0.6843 0.79099 0.20879 0.0
C1177 C 0.68448 0.7975 0.25452 0.0
C1178 C 0.67373 0.79576 0.20648 0.0
C1179 C 0.67475 0.80482 0.18957 0.0
C1180 C 0.68625 0.80909 0.1746 0.0
C1181 C 0.69719 0.80486 0.1775 0.0
C1182 C 0.6962 0.79588 0.19438 0.0
H1183 H 0.68801 0.7993 0.27112 0.0
H1184 H 0.69326 0.80698 0.24515 0.0
H1185 H 0.6738 0.79771 0.25334 0.0
H1186 H 0.66429 0.7919 0.21718 0.0
H1187 H 0.66607 0.80775 0.18757 0.0
H1188 H 0.27993 0.97182 0.27473 0.0
H1189 H 0.25947 0.95632 0.25044 0.0
H1190 H 0.26029 0.91683 0.27046 0.0
H1191 H 0.28074 0.93221 0.29483 0.0
H1192 H 0.25985 0.93746 0.21763 0.0
H1193 H 0.21516 0.90507 0.27663 0.0
H1194 H 0.23228 0.92251 0.28273 0.0
H1195 H 0.23268 0.90535 0.28022 0.0
C1196 C 0.27579 0.95984 0.27393 0.0
C1197 C 0.28193 0.95323 0.28674 0.0
C1198 C 0.26408 0.95101 0.26009 0.0
C1199 C 0.2582 0.93541 0.25895 0.0
C1200 C 0.26447 0.92881 0.27142 0.0
H1201 H 0.19309 0.86316 0.18122 0.0
H1202 H 0.20929 0.87829 0.21012 0.0
C1203 C 0.27624 0.93764 0.2852 0.0
C1204 C 0.24583 0.92613 0.24419 0.0
H1205 H 0.20913 0.89733 0.24138 0.0
C1206 C 0.24872 0.92875 0.22279 0.0
C1207 C 0.23137 0.91474 0.25104 0.0
C1208 C 0.22757 0.91177 0.27391 0.0
C1209 C 0.23765 0.92007 0.20798 0.0
C1210 C 0.22313 0.90871 0.21478 0.0
C1211 C 0.22021 0.9061 0.23622 0.0
C1212 C 0.2111 0.89911 0.19971 0.0
C1213 C 0.24178 0.92283 0.18515 0.0
C1214 C 0.20605 0.90563 0.18501 0.0
C1215 C 0.19686 0.89703 0.16849 0.0
C1216 C 0.19239 0.88173 0.16659 0.0
C1217 C 0.19629 0.87491 0.1824 0.0
C1218 C 0.20561 0.88356 0.19883 0.0
H1219 H 0.25424 0.92912 0.18273 0.0
H1220 H 0.23688 0.91205 0.17638 0.0
H1221 H 0.23722 0.92964 0.17847 0.0
H1222 H 0.20985 0.91754 0.18571 0.0
H1223 H 0.19391 0.90252 0.15656 0.0
H1224 H 0.68822 0.96888 0.28421 0.0
H1225 H 0.69632 0.95754 0.25712 0.0
H1226 H 0.66257 0.91322 0.2779 0.0
H1227 H 0.65441 0.9243 0.30487 0.0
H1228 H 0.69319 0.91825 0.27212 0.0
H1229 H 0.67161 0.93492 0.2038 0.0
H1230 H 0.6833 0.94943 0.22215 0.0
H1231 H 0.66491 0.93461 0.22999 0.0
C1232 C 0.68244 0.95672 0.28291 0.0
C1233 C 0.67062 0.94752 0.2967 0.0
C1234 C 0.6871 0.95028 0.26744 0.0
C1235 C 0.68001 0.93455 0.26552 0.0
C1236 C 0.66821 0.92538 0.27917 0.0
H1237 H 0.67702 0.86418 0.19143 0.0
H1238 H 0.67817 0.88039 0.22019 0.0
C1239 C 0.66352 0.93177 0.29453 0.0
C1240 C 0.68475 0.92746 0.24935 0.0
H1241 H 0.68283 0.92035 0.19717 0.0
C1242 C 0.69108 0.91881 0.25569 0.0
C1243 C 0.68205 0.9283 0.22797 0.0
C1244 C 0.67502 0.93723 0.22044 0.0
C1245 C 0.69454 0.91072 0.24119 0.0
C1246 C 0.69124 0.91103 0.21988 0.0
C1247 C 0.68538 0.92011 0.21351 0.0
C1248 C 0.69275 0.90132 0.20401 0.0
C1249 C 0.70169 0.90194 0.24888 0.0
C1250 C 0.70071 0.90763 0.18541 0.0
C1251 C 0.69993 0.89837 0.16891 0.0
C1252 C 0.69119 0.88261 0.17071 0.0
C1253 C 0.68403 0.87629 0.18977 0.0
C1254 C 0.6847 0.88556 0.20622 0.0
H1255 H 0.70815 0.9069 0.26347 0.0
H1256 H 0.69266 0.89023 0.25239 0.0
H1257 H 0.7094 0.90157 0.23701 0.0
H1258 H 0.70698 0.91974 0.18332 0.0
H1259 H 0.70557 0.90352 0.15437 0.0
H1260 H 0.07371 0.71315 0.29193 0.0
H1261 H 0.09164 0.73152 0.26702 0.0
H1262 H 0.05827 0.74299 0.24883 0.0
H1263 H 0.04016 0.72442 0.27339 0.0
H1264 H 0.0725 0.73942 0.21554 0.0
H1265 H 0.11485 0.77703 0.27365 0.0
H1266 H 0.11048 0.75783 0.27525 0.0
H1267 H 0.09605 0.76238 0.28088 0.0
C1268 C 0.07017 0.71956 0.28257 0.0
C1269 C 0.05554 0.71738 0.28467 0.0
C1270 C 0.08049 0.73014 0.26849 0.0
C1271 C 0.07641 0.73886 0.25643 0.0
C1272 C 0.06169 0.73646 0.25813 0.0
H1273 H 0.13282 0.81852 0.1821 0.0
H1274 H 0.11844 0.80122 0.21063 0.0
C1275 C 0.05134 0.72582 0.27213 0.0
C1276 C 0.08733 0.7502 0.24157 0.0
H1277 H 0.12224 0.78193 0.23795 0.0
C1278 C 0.08336 0.74873 0.22045 0.0
C1279 C 0.1014 0.76247 0.24807 0.0
C1280 C 0.10592 0.76515 0.27072 0.0
C1281 C 0.09314 0.75905 0.20558 0.0
C1282 C 0.10747 0.77097 0.21194 0.0
C1283 C 0.11136 0.77264 0.2331 0.0
C1284 C 0.1183 0.78197 0.19672 0.0
C1285 C 0.08791 0.75725 0.18324 0.0
C1286 C 0.12365 0.77705 0.18009 0.0
C1287 C 0.13176 0.78685 0.16384 0.0
C1288 C 0.13485 0.80179 0.16412 0.0
C1289 C 0.13064 0.80707 0.18162 0.0
C1290 C 0.12238 0.79719 0.19783 0.0
H1291 H 0.07541 0.7501 0.182 0.0
H1292 H 0.09148 0.76835 0.17605 0.0
H1293 H 0.09301 0.75174 0.17413 0.0
H1294 H 0.12092 0.76543 0.17919 0.0
H1295 H 0.13501 0.78257 0.15055 0.0
H1296 H 0.28168 0.31926 0.28502 0.0
H1297 H 0.2633 0.31546 0.2578 0.0
H1298 H 0.27072 0.35997 0.2695 0.0
H1299 H 0.28871 0.36373 0.29679 0.0
H1300 H 0.24076 0.33907 0.2678 0.0
H1301 H 0.2708 0.33306 0.19947 0.0
H1302 H 0.26728 0.32012 0.22037 0.0
H1303 H 0.27988 0.33995 0.22436 0.0
C1304 C 0.27952 0.3283 0.2816 0.0
C1305 C 0.28669 0.3418 0.29311 0.0
C1306 C 0.26903 0.32612 0.26601 0.0
C1307 C 0.26568 0.33748 0.2615 0.0
C1308 C 0.27305 0.35103 0.27273 0.0
H1309 H 0.22515 0.35039 0.15269 0.0
H1310 H 0.24112 0.35184 0.18182 0.0
C1311 C 0.2834 0.35316 0.28832 0.0
C1312 C 0.25429 0.33533 0.24549 0.0
H1313 H 0.24663 0.3298 0.19342 0.0
C1314 C 0.24201 0.33698 0.25154 0.0
C1315 C 0.25599 0.33273 0.22425 0.0
C1316 C 0.26926 0.33148 0.21661 0.0
C1317 C 0.23153 0.33635 0.23691 0.0
C1318 C 0.2332 0.3337 0.21569 0.0
C1319 C 0.24534 0.3318 0.2097 0.0
C1320 C 0.22299 0.33359 0.19918 0.0
C1321 C 0.2191 0.33908 0.24423 0.0
C1322 C 0.20737 0.32308 0.19944 0.0
C1323 C 0.19816 0.32237 0.18285 0.0
C1324 C 0.20448 0.332 0.16562 0.0
C1325 C 0.22 0.34282 0.16576 0.0
C1326 C 0.22914 0.3436 0.18235 0.0
H1327 H 0.22163 0.34464 0.25975 0.0
H1328 H 0.21732 0.34619 0.23296 0.0
H1329 H 0.20839 0.32812 0.24557 0.0
H1330 H 0.2024 0.31506 0.21205 0.0
H1331 H 0.18628 0.31379 0.18297 0.0
H1332 H 0.30385 0.35472 0.40895 0.0
H1333 H 0.28638 0.35638 0.43348 0.0
H1334 H 0.24952 0.31515 0.40859 0.0
H1335 H 0.26692 0.31326 0.38429 0.0
H1336 H 0.2609 0.35834 0.42418 0.0
H1337 H 0.24516 0.30721 0.47113 0.0
H1338 H 0.26125 0.31542 0.45373 0.0
H1339 H 0.24247 0.30392 0.44356 0.0
C1340 C 0.29207 0.34592 0.40886 0.0
C1341 C 0.2868 0.33384 0.39475 0.0
C1342 C 0.28209 0.34691 0.42283 0.0
C1343 C 0.26668 0.33581 0.42302 0.0
C1344 C 0.26141 0.32369 0.40901 0.0
H1345 H 0.19237 0.32591 0.50269 0.0
H1346 H 0.20637 0.32359 0.47304 0.0
C1347 C 0.27138 0.32268 0.39507 0.0
C1348 C 0.25607 0.33716 0.43745 0.0
H1349 H 0.23174 0.31985 0.4781 0.0
C1350 C 0.25452 0.34992 0.43596 0.0
C1351 C 0.24767 0.32612 0.45272 0.0
C1352 C 0.24927 0.31245 0.45557 0.0
C1353 C 0.24484 0.35196 0.4494 0.0
C1354 C 0.23666 0.34105 0.46489 0.0
C1355 C 0.23796 0.32815 0.4661 0.0
C1356 C 0.22768 0.34337 0.48112 0.0
C1357 C 0.24345 0.36577 0.44689 0.0
C1358 C 0.23499 0.35534 0.49526 0.0
C1359 C 0.22706 0.35665 0.5121 0.0
C1360 C 0.21167 0.346 0.51517 0.0
C1361 C 0.20418 0.33435 0.50055 0.0
C1362 C 0.21217 0.33297 0.48372 0.0
H1363 H 0.24674 0.37055 0.43095 0.0
H1364 H 0.23171 0.36315 0.4501 0.0
H1365 H 0.2511 0.37452 0.45812 0.0
H1366 H 0.24698 0.36334 0.49378 0.0
H1367 H 0.23309 0.36575 0.52314 0.0
H1368 H 0.6507 0.94678 0.40907 0.0
H1369 H 0.65076 0.92881 0.4339 0.0
H1370 H 0.69661 0.94257 0.41623 0.0
H1371 H 0.69658 0.9604 0.39119 0.0
H1372 H 0.67774 0.91132 0.41804 0.0
H1373 H 0.67282 0.93891 0.48978 0.0
H1374 H 0.65833 0.93455 0.47081 0.0
H1375 H 0.67768 0.94819 0.46477 0.0
C1376 C 0.66084 0.94607 0.4106 0.0
C1377 C 0.67366 0.95508 0.39824 0.0
C1378 C 0.66086 0.93581 0.42481 0.0
C1379 C 0.67374 0.93446 0.42706 0.0
C1380 C 0.68655 0.94344 0.41476 0.0
H1381 H 0.69218 0.89368 0.53124 0.0
H1382 H 0.69377 0.91 0.50255 0.0
C1383 C 0.68653 0.95367 0.40052 0.0
C1384 C 0.67388 0.92364 0.44212 0.0
H1385 H 0.67079 0.91513 0.49391 0.0
C1386 C 0.67625 0.91214 0.43465 0.0
C1387 C 0.67209 0.92484 0.46378 0.0
C1388 C 0.67022 0.93736 0.47284 0.0
C1389 C 0.67676 0.90174 0.44827 0.0
C1390 C 0.67466 0.90278 0.46988 0.0
C1391 C 0.67235 0.91431 0.47732 0.0
C1392 C 0.67509 0.89229 0.4853 0.0
C1393 C 0.67984 0.88995 0.43947 0.0
C1394 C 0.66437 0.87679 0.4848 0.0
C1395 C 0.66356 0.8674 0.50113 0.0
C1396 C 0.67332 0.87344 0.51827 0.0
C1397 C 0.68452 0.88878 0.51819 0.0
C1398 C 0.68539 0.8981 0.50186 0.0
H1399 H 0.68498 0.89302 0.42367 0.0
H1400 H 0.68751 0.88825 0.44981 0.0
H1401 H 0.66902 0.87908 0.43823 0.0
H1402 H 0.65613 0.87211 0.47237 0.0
H1403 H 0.65471 0.85566 0.50101 0.0
H1404 H 0.06085 0.75128 0.37722 0.0
H1405 H 0.07924 0.76478 0.40466 0.0
H1406 H 0.07524 0.72315 0.42551 0.0
H1407 H 0.05686 0.70946 0.39783 0.0
H1408 H 0.07617 0.76077 0.44799 0.0
H1409 H 0.12113 0.75105 0.41657 0.0
H1410 H 0.10503 0.74791 0.40129 0.0
H1411 H 0.10304 0.73432 0.42042 0.0
C1412 C 0.06382 0.74493 0.38763 0.0
C1413 C 0.05742 0.72926 0.38521 0.0
C1414 C 0.07435 0.75269 0.40332 0.0
C1415 C 0.07879 0.74501 0.41687 0.0
C1416 C 0.07217 0.72933 0.41492 0.0
H1417 H 0.1382 0.77017 0.5224 0.0
H1418 H 0.12165 0.75789 0.49262 0.0
C1419 C 0.06159 0.72151 0.3992 0.0
C1420 C 0.09026 0.7535 0.43312 0.0
H1421 H 0.12562 0.76293 0.44961 0.0
C1422 C 0.08702 0.76131 0.44831 0.0
C1423 C 0.1044 0.75421 0.43342 0.0
C1424 C 0.10872 0.74655 0.41697 0.0
C1425 C 0.0974 0.76954 0.46412 0.0
C1426 C 0.11153 0.77021 0.46448 0.0
C1427 C 0.11481 0.76246 0.44921 0.0
C1428 C 0.12266 0.77814 0.48132 0.0
C1429 C 0.09298 0.77705 0.48068 0.0
C1430 C 0.12914 0.79373 0.48444 0.0
C1431 C 0.13859 0.80079 0.50155 0.0
C1432 C 0.1417 0.79235 0.51574 0.0
C1433 C 0.13581 0.77691 0.51189 0.0
C1434 C 0.12641 0.76989 0.49485 0.0
H1435 H 0.0806 0.77271 0.48079 0.0
H1436 H 0.09637 0.77535 0.49638 0.0
H1437 H 0.09886 0.78935 0.47762 0.0
H1438 H 0.1266 0.80035 0.47393 0.0
H1439 H 0.14295 0.81269 0.50414 0.0
H1440 H 0.31604 0.03664 0.74377 0.0
H1441 H 0.3124 0.05329 0.76736 0.0
H1442 H 0.35299 0.09157 0.74329 0.0
H1443 H 0.35692 0.07498 0.72006 0.0
H1444 H 0.35178 0.09206 0.78515 0.0
H1445 H 0.29718 0.08149 0.75286 0.0
H1446 H 0.29676 0.06461 0.76087 0.0
H1447 H 0.30889 0.07556 0.7397 0.0
C1448 C 0.32421 0.0486 0.74356 0.0
C1449 C 0.33674 0.0545 0.73001 0.0
C1450 C 0.32203 0.05812 0.75688 0.0
C1451 C 0.33222 0.07373 0.75672 0.0
C1452 C 0.3449 0.07959 0.74353 0.0
H1453 H 0.34044 0.14842 0.83184 0.0
H1454 H 0.34063 0.13367 0.80182 0.0
C1455 C 0.34715 0.07008 0.73031 0.0
C1456 C 0.33002 0.08391 0.77087 0.0
H1457 H 0.30485 0.09487 0.78522 0.0
C1458 C 0.34159 0.09279 0.78499 0.0
C1459 C 0.31672 0.08487 0.77062 0.0
C1460 C 0.30424 0.07624 0.75506 0.0
C1461 C 0.34005 0.10229 0.79927 0.0
C1462 C 0.32665 0.10303 0.79928 0.0
C1463 C 0.31513 0.09429 0.78506 0.0
C1464 C 0.32421 0.11215 0.81498 0.0
C1465 C 0.35259 0.11113 0.81469 0.0
C1466 C 0.3143 0.10494 0.8317 0.0
C1467 C 0.31415 0.11332 0.84877 0.0
C1468 C 0.32385 0.12903 0.84931 0.0
C1469 C 0.33278 0.13634 0.83174 0.0
C1470 C 0.33299 0.12793 0.81469 0.0
H1471 H 0.36114 0.10753 0.81473 0.0
H1472 H 0.35841 0.12327 0.81061 0.0
H1473 H 0.34791 0.10986 0.83068 0.0
H1474 H 0.30742 0.09277 0.83215 0.0
H1475 H 0.30713 0.10743 0.86211 0.0
H1476 H 0.96769 0.28297 0.73137 0.0
H1477 H 0.9559 0.26282 0.75742 0.0
H1478 H 0.91178 0.25395 0.73882 0.0
H1479 H 0.92332 0.27391 0.71288 0.0
H1480 H 0.93589 0.25996 0.79093 0.0
H1481 H 0.90842 0.2122 0.73534 0.0
H1482 H 0.92366 0.23061 0.72784 0.0
H1483 H 0.9047 0.22718 0.73036 0.0
C1484 C 0.95548 0.27676 0.73286 0.0
C1485 C 0.94647 0.28006 0.71995 0.0
C1486 C 0.94877 0.26523 0.7477 0.0
C1487 C 0.93296 0.2567 0.74972 0.0
C1488 C 0.92398 0.26017 0.73718 0.0
H1489 H 0.86487 0.1902 0.82948 0.0
H1490 H 0.87964 0.20624 0.80022 0.0
C1491 C 0.93064 0.2717 0.72246 0.0
C1492 C 0.92573 0.24449 0.76539 0.0
H1493 H 0.90018 0.20692 0.77076 0.0
C1494 C 0.92825 0.24832 0.78657 0.0
C1495 C 0.91571 0.22934 0.75959 0.0
C1496 C 0.91303 0.22451 0.73704 0.0
C1497 C 0.92053 0.23752 0.80215 0.0
C1498 C 0.91029 0.22239 0.79637 0.0
C1499 C 0.90804 0.2185 0.77517 0.0
C1500 C 0.90124 0.2107 0.81216 0.0
C1501 C 0.9229 0.24258 0.82464 0.0
C1502 C 0.90838 0.20721 0.82796 0.0
C1503 C 0.89998 0.19809 0.84468 0.0
C1504 C 0.88425 0.19213 0.84573 0.0
C1505 C 0.87695 0.19456 0.829 0.0
C1506 C 0.88539 0.2038 0.81235 0.0
H1507 H 0.92824 0.255 0.82608 0.0
H1508 H 0.912 0.2372 0.8333 0.0
H1509 H 0.93048 0.23924 0.83218 0.0
H1510 H 0.92055 0.21209 0.82785 0.0
H1511 H 0.90586 0.19627 0.85729 0.0
H1512 H 0.72658 0.68642 0.72877 0.0
H1513 H 0.74482 0.68957 0.7558 0.0
H1514 H 0.73942 0.64646 0.73935 0.0
H1515 H 0.72157 0.64339 0.71216 0.0
H1516 H 0.74236 0.67319 0.78987 0.0
H1517 H 0.78479 0.67318 0.73635 0.0
H1518 H 0.76913 0.67493 0.72722 0.0
H1519 H 0.76652 0.65667 0.73309 0.0
C1520 C 0.72925 0.67759 0.73098 0.0
C1521 C 0.72273 0.66472 0.71817 0.0
C1522 C 0.73971 0.67943 0.74637 0.0
C1523 C 0.7438 0.66843 0.7492 0.0
C1524 C 0.73683 0.65532 0.73699 0.0
H1525 H 0.7816 0.65257 0.85883 0.0
H1526 H 0.76614 0.65158 0.82925 0.0
C1527 C 0.72651 0.65354 0.72156 0.0
C1528 C 0.75505 0.67037 0.76523 0.0
H1529 H 0.78737 0.66908 0.77254 0.0
C1530 C 0.75228 0.67244 0.78605 0.0
C1531 C 0.76817 0.6697 0.7602 0.0
C1532 C 0.77243 0.66867 0.73797 0.0
C1533 C 0.76192 0.67323 0.80209 0.0
C1534 C 0.77446 0.6715 0.79721 0.0
C1535 C 0.7776 0.67009 0.7763 0.0
C1536 C 0.78429 0.67101 0.8137 0.0
C1537 C 0.75862 0.67601 0.82409 0.0
C1538 C 0.79987 0.68161 0.81404 0.0
C1539 C 0.80879 0.682 0.83076 0.0
C1540 C 0.80224 0.67181 0.84735 0.0
C1541 C 0.78688 0.66062 0.84629 0.0
C1542 C 0.77802 0.66015 0.82953 0.0
H1543 H 0.75175 0.68158 0.82431 0.0
H1544 H 0.75207 0.66507 0.83228 0.0
H1545 H 0.76923 0.68314 0.83288 0.0
H1546 H 0.80497 0.68999 0.80185 0.0
H1547 H 0.82059 0.69079 0.83131 0.0
H1548 H 0.74301 0.69771 0.63094 0.0
H1549 H 0.76072 0.69672 0.60612 0.0
H1550 H 0.72413 0.65633 0.57897 0.0
H1551 H 0.70635 0.6573 0.60351 0.0
H1552 H 0.76713 0.67335 0.60109 0.0
H1553 H 0.74454 0.68325 0.52835 0.0
H1554 H 0.73986 0.68724 0.55384 0.0
H1555 H 0.73028 0.66828 0.54388 0.0
C1556 C 0.73871 0.68871 0.61952 0.0
C1557 C 0.72327 0.67761 0.61911 0.0
C1558 C 0.74885 0.68814 0.60542 0.0
C1559 C 0.7437 0.67655 0.5906 0.0
C1560 C 0.72828 0.66553 0.59006 0.0
H1561 H 0.77562 0.64121 0.49696 0.0
H1562 H 0.76267 0.64603 0.52538 0.0
C1563 C 0.71814 0.66608 0.60412 0.0
C1564 C 0.75445 0.6756 0.57609 0.0
H1565 H 0.76105 0.67335 0.52444 0.0
C1566 C 0.76596 0.67355 0.58432 0.0
C1567 C 0.75293 0.67596 0.55425 0.0
C1568 C 0.74133 0.67895 0.54453 0.0
C1569 C 0.77554 0.67111 0.5712 0.0
C1570 C 0.77357 0.67085 0.54941 0.0
C1571 C 0.76242 0.67344 0.5412 0.0
C1572 C 0.78228 0.66708 0.53466 0.0
C1573 C 0.78728 0.66823 0.58064 0.0
C1574 C 0.79773 0.67712 0.53093 0.0
C1575 C 0.80519 0.67434 0.51469 0.0
C1576 C 0.7972 0.66158 0.50195 0.0
C1577 C 0.78198 0.65117 0.50652 0.0
C1578 C 0.77459 0.65391 0.5227 0.0
H1579 H 0.78598 0.66678 0.59782 0.0
H1580 H 0.78654 0.658 0.57365 0.0
H1581 H 0.79873 0.67789 0.57721 0.0
H1582 H 0.80379 0.68743 0.53989 0.0
H1583 H 0.81689 0.68257 0.51131 0.0
H1584 H 0.35706 0.05949 0.61932 0.0
H1585 H 0.36501 0.07985 0.59374 0.0
H1586 H 0.32754 0.08532 0.6119 0.0
H1587 H 0.31955 0.0652 0.63734 0.0
H1588 H 0.34816 0.08203 0.55999 0.0
H1589 H 0.36433 0.12825 0.61702 0.0
H1590 H 0.36195 0.11021 0.62416 0.0
H1591 H 0.34571 0.11238 0.62123 0.0
C1592 C 0.35049 0.06499 0.61781 0.0
C1593 C 0.3377 0.06072 0.63049 0.0
C1594 C 0.35508 0.07666 0.60325 0.0
C1595 C 0.34706 0.08432 0.60128 0.0
C1596 C 0.33412 0.07982 0.61352 0.0
H1597 H 0.34063 0.14756 0.52254 0.0
H1598 H 0.34046 0.13213 0.55167 0.0
C1599 C 0.3295 0.06819 0.62797 0.0
C1600 C 0.35179 0.09671 0.58599 0.0
H1601 H 0.36117 0.13354 0.58171 0.0
C1602 C 0.35125 0.09336 0.5647 0.0
C1603 C 0.35574 0.11146 0.59223 0.0
C1604 C 0.35712 0.11587 0.61491 0.0
C1605 C 0.35387 0.10417 0.54944 0.0
C1606 C 0.35748 0.11885 0.55566 0.0
C1607 C 0.35842 0.12231 0.57697 0.0
C1608 C 0.35941 0.1304 0.54019 0.0
C1609 C 0.35205 0.09956 0.52678 0.0
C1610 C 0.37066 0.13526 0.52476 0.0
C1611 C 0.37077 0.14406 0.50814 0.0
C1612 C 0.35972 0.14828 0.50681 0.0
C1613 C 0.34934 0.14456 0.52326 0.0
C1614 C 0.34917 0.13566 0.53982 0.0
H1615 H 0.34592 0.08712 0.52488 0.0
H1616 H 0.34581 0.10405 0.51818 0.0
H1617 H 0.36339 0.1042 0.51952 0.0
H1618 H 0.37891 0.13165 0.52502 0.0
H1619 H 0.37897 0.14687 0.49573 0.0
H1620 H 0.94852 0.30512 0.60742 0.0
H1621 H 0.92783 0.28901 0.58384 0.0
H1622 H 0.92974 0.25025 0.6047 0.0
H1623 H 0.95042 0.26628 0.62843 0.0
H1624 H 0.92794 0.27008 0.55148 0.0
H1625 H 0.88459 0.2376 0.61202 0.0
H1626 H 0.90167 0.2552 0.61757 0.0
H1627 H 0.90231 0.23816 0.6149 0.0
C1628 C 0.94458 0.29318 0.60696 0.0
C1629 C 0.95108 0.28697 0.61984 0.0
C1630 C 0.93273 0.28399 0.59352 0.0
C1631 C 0.92708 0.26842 0.59283 0.0
C1632 C 0.93374 0.26221 0.60533 0.0
H1633 H 0.86173 0.19563 0.51581 0.0
H1634 H 0.87805 0.21066 0.54469 0.0
C1635 C 0.94564 0.2714 0.61874 0.0
C1636 C 0.91453 0.25878 0.57852 0.0
H1637 H 0.87795 0.22959 0.57696 0.0
C1638 C 0.91698 0.26129 0.55704 0.0
C1639 C 0.90028 0.24727 0.58587 0.0
C1640 C 0.89694 0.24442 0.60885 0.0
C1641 C 0.90566 0.25243 0.54262 0.0
C1642 C 0.89134 0.24099 0.54992 0.0
C1643 C 0.88888 0.23844 0.57143 0.0
C1644 C 0.87907 0.2313 0.53524 0.0
C1645 C 0.90929 0.25514 0.51964 0.0
C1646 C 0.8735 0.23772 0.52117 0.0
C1647 C 0.86423 0.22919 0.50469 0.0
C1648 C 0.86021 0.21404 0.50219 0.0
C1649 C 0.86456 0.20725 0.51748 0.0
C1650 C 0.87396 0.21584 0.53389 0.0
H1651 H 0.92168 0.26162 0.51672 0.0
H1652 H 0.90438 0.24433 0.51096 0.0
H1653 H 0.90437 0.26173 0.5133 0.0
H1654 H 0.87703 0.24956 0.52225 0.0
H1655 H 0.86094 0.23465 0.49316 0.0
H1656 H 0.33958 0.29432 0.61541 0.0
H1657 H 0.34198 0.27961 0.58697 0.0
H1658 H 0.31882 0.23942 0.62441 0.0
H1659 H 0.31596 0.25379 0.65238 0.0
H1660 H 0.35573 0.26313 0.58467 0.0
H1661 H 0.29432 0.22555 0.57197 0.0
H1662 H 0.30179 0.24225 0.58793 0.0
H1663 H 0.29958 0.22504 0.59843 0.0
C1664 C 0.33493 0.28233 0.61749 0.0
C1665 C 0.32738 0.27521 0.63606 0.0
C1666 C 0.33633 0.27395 0.60126 0.0
C1667 C 0.33026 0.25833 0.60336 0.0
C1668 C 0.32316 0.25134 0.62213 0.0
H1669 H 0.35445 0.20437 0.52324 0.0
H1670 H 0.35123 0.21739 0.55317 0.0
C1671 C 0.3216 0.25963 0.63818 0.0
C1672 C 0.33147 0.24927 0.58615 0.0
H1673 H 0.31054 0.21804 0.55608 0.0
C1674 C 0.34585 0.25332 0.57832 0.0
C1675 C 0.31856 0.23656 0.57768 0.0
C1676 C 0.30269 0.23218 0.58428 0.0
C1677 C 0.34769 0.24491 0.56246 0.0
C1678 C 0.33481 0.23184 0.55461 0.0
C1679 C 0.32043 0.2279 0.56231 0.0
C1680 C 0.33585 0.22267 0.53741 0.0
C1681 C 0.36336 0.25039 0.55389 0.0
C1682 C 0.32756 0.22046 0.51908 0.0
C1683 C 0.32907 0.21271 0.50223 0.0
C1684 C 0.33903 0.20708 0.50321 0.0
C1685 C 0.34672 0.20858 0.52197 0.0
C1686 C 0.34508 0.21624 0.53896 0.0
H1687 H 0.37117 0.26248 0.5575 0.0
H1688 H 0.36805 0.24384 0.56105 0.0
H1689 H 0.3631 0.24885 0.53672 0.0
H1690 H 0.32021 0.22511 0.51756 0.0
H1691 H 0.32272 0.21147 0.48818 0.0
H1692 H 0.74157 0.04452 0.62389 0.0
H1693 H 0.75977 0.06267 0.59902 0.0
H1694 H 0.72662 0.07402 0.57921 0.0
H1695 H 0.70824 0.05564 0.60372 0.0
H1696 H 0.74132 0.07047 0.54656 0.0
H1697 H 0.78288 0.10814 0.60542 0.0
H1698 H 0.77853 0.08896 0.60721 0.0
H1699 H 0.764 0.09347 0.61229 0.0
C1700 C 0.73814 0.05084 0.61418 0.0
C1701 C 0.72349 0.04869 0.61582 0.0
C1702 C 0.7486 0.06131 0.60012 0.0
C1703 C 0.74467 0.06995 0.58761 0.0
C1704 C 0.72993 0.06756 0.58884 0.0
H1705 H 0.80188 0.15006 0.51494 0.0
H1706 H 0.78719 0.13238 0.54291 0.0
C1707 C 0.71943 0.05702 0.60281 0.0
C1708 C 0.7558 0.08127 0.5729 0.0
H1709 H 0.79068 0.11309 0.56991 0.0
C1710 C 0.7521 0.07979 0.55167 0.0
C1711 C 0.76977 0.09356 0.57965 0.0
C1712 C 0.774 0.09625 0.6024 0.0
C1713 C 0.76204 0.09017 0.53696 0.0
C1714 C 0.77626 0.10214 0.54358 0.0
C1715 C 0.77989 0.10376 0.56485 0.0
C1716 C 0.7872 0.11331 0.5286 0.0
C1717 C 0.75706 0.08839 0.5145 0.0
C1718 C 0.79274 0.10863 0.51192 0.0
C1719 C 0.80104 0.11866 0.49597 0.0
C1720 C 0.80414 0.13361 0.4966 0.0
C1721 C 0.79971 0.13862 0.51417 0.0
C1722 C 0.79126 0.12852 0.53007 0.0
H1723 H 0.74458 0.08119 0.513 0.0
H1724 H 0.76064 0.09949 0.5073 0.0
H1725 H 0.76231 0.08295 0.50557 0.0
H1726 H 0.79005 0.09703 0.51077 0.0
H1727 H 0.80446 0.11457 0.48264 0.0
H1728 H 0.94738 0.64784 0.6172 0.0
H1729 H 0.92763 0.64057 0.59073 0.0
H1730 H 0.92437 0.67962 0.60606 0.0
H1731 H 0.94392 0.68695 0.6324 0.0
H1732 H 0.89583 0.6516 0.60414 0.0
H1733 H 0.93179 0.66175 0.53384 0.0
H1734 H 0.9327 0.65008 0.5539 0.0
H1735 H 0.93972 0.66966 0.559 0.0
C1736 C 0.94256 0.65495 0.61481 0.0
C1737 C 0.94731 0.66801 0.62693 0.0
C1738 C 0.93128 0.65078 0.59967 0.0
C1739 C 0.92458 0.6596 0.59639 0.0
C1740 C 0.92937 0.67265 0.60836 0.0
H1741 H 0.85996 0.66578 0.51869 0.0
H1742 H 0.87526 0.66586 0.5479 0.0
C1743 C 0.94062 0.67684 0.62338 0.0
C1744 C 0.91246 0.6553 0.58069 0.0
H1745 H 0.90604 0.65311 0.52831 0.0
C1746 C 0.89801 0.65182 0.58755 0.0
C1747 C 0.91532 0.65553 0.55909 0.0
C1748 C 0.93073 0.65954 0.55088 0.0
C1749 C 0.88636 0.6487 0.57335 0.0
C1750 C 0.88936 0.64943 0.5517 0.0
C1751 C 0.90372 0.65253 0.54489 0.0
C1752 C 0.87813 0.6478 0.53572 0.0
C1753 C 0.87096 0.64457 0.58172 0.0
C1754 C 0.87446 0.63753 0.51922 0.0
C1755 C 0.86581 0.63757 0.50246 0.0
C1756 C 0.86065 0.64788 0.50183 0.0
C1757 C 0.86356 0.65755 0.51891 0.0
C1758 C 0.87233 0.65759 0.53563 0.0
H1759 H 0.86911 0.63964 0.59758 0.0
H1760 H 0.87014 0.65489 0.58283 0.0
H1761 H 0.8618 0.63641 0.57135 0.0
H1762 H 0.87878 0.62987 0.51892 0.0
H1763 H 0.86371 0.62997 0.48952 0.0
H1764 H 0.97159 0.69106 0.7407 0.0
H1765 H 0.95619 0.69599 0.76514 0.0
H1766 H 0.91621 0.65551 0.74471 0.0
H1767 H 0.93151 0.6505 0.72014 0.0
H1768 H 0.91348 0.68224 0.74701 0.0
H1769 H 0.93654 0.67222 0.81951 0.0
H1770 H 0.95041 0.68515 0.80135 0.0
H1771 H 0.9387 0.66568 0.79429 0.0
C1772 C 0.95954 0.68314 0.7415 0.0
C1773 C 0.95278 0.67035 0.72855 0.0
C1774 C 0.95076 0.68597 0.75549 0.0
C1775 C 0.93509 0.67606 0.75682 0.0
C1776 C 0.9283 0.66329 0.74392 0.0
H1777 H 0.86154 0.66953 0.83158 0.0
H1778 H 0.8768 0.66867 0.80274 0.0
C1779 C 0.93707 0.66041 0.72997 0.0
C1780 C 0.92577 0.67905 0.77163 0.0
H1781 H 0.9199 0.68157 0.82348 0.0
C1782 C 0.91485 0.6821 0.76374 0.0
C1783 C 0.92764 0.67888 0.79341 0.0
C1784 C 0.93886 0.67519 0.80274 0.0
C1785 C 0.90584 0.68518 0.77712 0.0
C1786 C 0.90763 0.68491 0.79894 0.0
C1787 C 0.9186 0.68189 0.80676 0.0
C1788 C 0.89798 0.68717 0.81416 0.0
C1789 C 0.8947 0.68896 0.76775 0.0
C1790 C 0.90472 0.698 0.82999 0.0
C1791 C 0.89603 0.69842 0.84654 0.0
C1792 C 0.88042 0.68801 0.84756 0.0
C1793 C 0.8735 0.67784 0.83101 0.0
C1794 C 0.88223 0.67734 0.81451 0.0
H1795 H 0.89793 0.69324 0.75157 0.0
H1796 H 0.88337 0.67862 0.76719 0.0
H1797 H 0.89382 0.69753 0.77723 0.0
H1798 H 0.91684 0.7057 0.83005 0.0
H1799 H 0.90164 0.70638 0.85911 0.0
H1800 H 0.31798 0.28228 0.74861 0.0
H1801 H 0.31868 0.26476 0.77361 0.0
H1802 H 0.36302 0.27629 0.75127 0.0
H1803 H 0.36227 0.29359 0.72594 0.0
H1804 H 0.34421 0.2458 0.75498 0.0
H1805 H 0.34263 0.27471 0.82725 0.0
H1806 H 0.32726 0.27026 0.80985 0.0
H1807 H 0.34634 0.28353 0.80197 0.0
C1808 C 0.32794 0.28121 0.74917 0.0
C1809 C 0.34009 0.28937 0.73537 0.0
C1810 C 0.32835 0.27122 0.7635 0.0
C1811 C 0.34099 0.26935 0.76448 0.0
C1812 C 0.35317 0.27757 0.7508 0.0
H1813 H 0.35896 0.22701 0.86781 0.0
H1814 H 0.36095 0.24392 0.83971 0.0
C1815 C 0.35273 0.28749 0.73641 0.0
C1816 C 0.34141 0.25859 0.77943 0.0
H1817 H 0.33928 0.25029 0.83121 0.0
C1818 C 0.3432 0.24681 0.77167 0.0
C1819 C 0.34027 0.26002 0.8012 0.0
C1820 C 0.33916 0.27289 0.81061 0.0
C1821 C 0.3437 0.2363 0.78508 0.0
C1822 C 0.34209 0.23747 0.80681 0.0
C1823 C 0.34044 0.24935 0.81455 0.0
C1824 C 0.3422 0.22667 0.82199 0.0
C1825 C 0.34623 0.22425 0.77589 0.0
C1826 C 0.33129 0.21124 0.82108 0.0
C1827 C 0.33029 0.20151 0.83703 0.0
C1828 C 0.34002 0.20713 0.85426 0.0
C1829 C 0.35133 0.22242 0.85467 0.0
C1830 C 0.35243 0.23208 0.83868 0.0
H1831 H 0.35152 0.22744 0.76018 0.0
H1832 H 0.35355 0.22195 0.7861 0.0
H1833 H 0.33517 0.21368 0.77425 0.0
H1834 H 0.32308 0.20685 0.8086 0.0
H1835 H 0.32134 0.18981 0.83654 0.0
H1836 H 0.72652 0.08307 0.70771 0.0
H1837 H 0.74484 0.09712 0.73501 0.0
H1838 H 0.7421 0.05618 0.75647 0.0
H1839 H 0.72379 0.04195 0.72896 0.0
H1840 H 0.74221 0.09353 0.77843 0.0
H1841 H 0.78776 0.08483 0.74684 0.0
H1842 H 0.77142 0.08115 0.73174 0.0
H1843 H 0.76993 0.06786 0.75104 0.0
C1844 C 0.72974 0.07699 0.71824 0.0
C1845 C 0.72373 0.06136 0.71603 0.0
C1846 C 0.74023 0.08507 0.73385 0.0
C1847 C 0.74503 0.07774 0.74751 0.0
C1848 C 0.73877 0.06209 0.74579 0.0
H1849 H 0.80488 0.10427 0.85253 0.0
H1850 H 0.78836 0.09177 0.8228 0.0
C1851 C 0.72821 0.05396 0.73017 0.0
C1852 C 0.75654 0.08656 0.76358 0.0
H1853 H 0.79216 0.09678 0.77984 0.0
C1854 C 0.75316 0.09432 0.7787 0.0
C1855 C 0.77084 0.08761 0.7638 0.0
C1856 C 0.77532 0.08004 0.7474 0.0
C1857 C 0.76355 0.10277 0.79441 0.0
C1858 C 0.77782 0.10373 0.79472 0.0
C1859 C 0.78125 0.09608 0.77949 0.0
C1860 C 0.78894 0.11183 0.81153 0.0
C1861 C 0.75898 0.11019 0.81092 0.0
C1862 C 0.79518 0.12739 0.81466 0.0
C1863 C 0.80462 0.13458 0.83173 0.0
C1864 C 0.80796 0.12629 0.84589 0.0
C1865 C 0.80232 0.11089 0.84204 0.0
C1866 C 0.79293 0.10375 0.82503 0.0
H1867 H 0.74657 0.10566 0.81106 0.0
H1868 H 0.76247 0.10862 0.82662 0.0
H1869 H 0.76469 0.12246 0.80779 0.0
H1870 H 0.79246 0.13389 0.80416 0.0
H1871 H 0.8088 0.14645 0.83433 0.0
H1872 H 0.02774 0.32831 0.04282 0.0
H1873 H 0.04934 0.32512 0.05026 0.0
H1874 H 0.07864 0.36548 0.01569 0.0
H1875 H 0.05703 0.36873 0.00798 0.0
H1876 H 0.07257 0.32493 0.01907 0.0
H1877 H 0.09557 0.37094 0.07833 0.0
H1878 H 0.07586 0.36119 0.07099 0.0
H1879 H 0.08992 0.37428 0.0533 0.0
C1880 C 0.03874 0.33645 0.0366 0.0
C1881 C 0.04066 0.34882 0.02487 0.0
C1882 C 0.05106 0.33458 0.04084 0.0
C1883 C 0.06558 0.3451 0.03362 0.0
C1884 C 0.06752 0.35726 0.02146 0.0
H1885 H 0.14687 0.35015 0.08678 0.0
H1886 H 0.13176 0.35584 0.06283 0.0
C1887 C 0.05515 0.35908 0.01705 0.0
C1888 C 0.07872 0.34363 0.03979 0.0
H1889 H 0.10752 0.35677 0.07502 0.0
C1890 C 0.08035 0.332 0.0311 0.0
C1891 C 0.08895 0.35297 0.05531 0.0
C1892 C 0.08757 0.36555 0.06518 0.0
C1893 C 0.09171 0.3292 0.03799 0.0
C1894 C 0.1014 0.33797 0.05444 0.0
C1895 C 0.10016 0.35004 0.06242 0.0
C1896 C 0.11159 0.33381 0.06532 0.0
C1897 C 0.0931 0.31678 0.02764 0.0
C1898 C 0.1055 0.31944 0.07419 0.0
C1899 C 0.11413 0.31617 0.0876 0.0
C1900 C 0.12903 0.32725 0.0927 0.0
C1901 C 0.1355 0.34135 0.08288 0.0
C1902 C 0.12682 0.34463 0.06936 0.0
H1903 H 0.08952 0.31542 0.01107 0.0
H1904 H 0.10487 0.31897 0.02829 0.0
H1905 H 0.08553 0.30597 0.03567 0.0
H1906 H 0.09372 0.311 0.07187 0.0
H1907 H 0.10883 0.30524 0.09509 0.0
H1908 H 0.62657 0.69395 0.01355 0.0
H1909 H 0.63575 0.71961 0.02568 0.0
H1910 H 0.67895 0.72432 0.04034 0.0
H1911 H 0.66992 0.69862 0.02786 0.0
H1912 H 0.64516 0.73034 0.0649 0.0
H1913 H 0.69146 0.76308 0.00834 0.0
H1914 H 0.67728 0.74357 0.00415 0.0
H1915 H 0.69286 0.74845 0.02142 0.0
C1916 C 0.63807 0.70043 0.01922 0.0
C1917 C 0.6475 0.69417 0.01972 0.0
C1918 C 0.64331 0.71514 0.02611 0.0
C1919 C 0.65811 0.72399 0.03363 0.0
C1920 C 0.6676 0.71783 0.03415 0.0
H1921 H 0.70468 0.80543 0.10452 0.0
H1922 H 0.69831 0.78444 0.08071 0.0
C1923 C 0.66237 0.70309 0.02718 0.0
C1924 C 0.66314 0.73924 0.0422 0.0
H1925 H 0.68997 0.77655 0.03773 0.0
C1926 C 0.65486 0.74046 0.05881 0.0
C1927 C 0.67584 0.75243 0.03428 0.0
C1928 C 0.68481 0.7519 0.01594 0.0
C1929 C 0.65912 0.75442 0.06806 0.0
C1930 C 0.67186 0.76761 0.06023 0.0
C1931 C 0.68012 0.76645 0.04354 0.0
C1932 C 0.67732 0.78244 0.07043 0.0
C1933 C 0.65026 0.75483 0.08667 0.0
C1934 C 0.6681 0.78891 0.07151 0.0
C1935 C 0.67174 0.80095 0.08511 0.0
C1936 C 0.68464 0.80665 0.09777 0.0
C1937 C 0.69463 0.80118 0.09499 0.0
C1938 C 0.691 0.78918 0.08142 0.0
H1939 H 0.64279 0.74344 0.09331 0.0
H1940 H 0.65799 0.76223 0.09909 0.0
H1941 H 0.64304 0.75945 0.08183 0.0
H1942 H 0.6576 0.78401 0.06288 0.0
H1943 H 0.66382 0.80489 0.08703 0.0
H1944 H 0.30992 0.97465 0.02686 0.0
H1945 H 0.28409 0.95695 0.03883 0.0
H1946 H 0.28965 0.91959 0.02126 0.0
H1947 H 0.31536 0.93703 0.00949 0.0
H1948 H 0.25865 0.93256 0.01658 0.0
H1949 H 0.2778 0.91247 0.08362 0.0
H1950 H 0.29031 0.92961 0.06975 0.0
H1951 H 0.28551 0.91165 0.05878 0.0
C1952 C 0.30564 0.96267 0.02553 0.0
C1953 C 0.3148 0.95729 0.01739 0.0
C1954 C 0.29087 0.95258 0.0323 0.0
C1955 C 0.28505 0.93698 0.03114 0.0
C1956 C 0.29401 0.93159 0.02257 0.0
H1957 H 0.20461 0.8612 0.08525 0.0
H1958 H 0.22615 0.87573 0.0618 0.0
C1959 C 0.30873 0.94161 0.01583 0.0
C1960 C 0.26978 0.92627 0.03939 0.0
H1961 H 0.25158 0.89982 0.0772 0.0
C1962 C 0.25707 0.92538 0.02983 0.0
C1963 C 0.26777 0.91688 0.05659 0.0
C1964 C 0.28105 0.91773 0.06794 0.0
C1965 C 0.24235 0.91526 0.03699 0.0
C1966 C 0.24036 0.90599 0.05436 0.0
C1967 C 0.25309 0.9068 0.06373 0.0
C1968 C 0.2254 0.89632 0.06438 0.0
C1969 C 0.22908 0.91451 0.02579 0.0
C1970 C 0.2175 0.90289 0.07295 0.0
C1971 C 0.20516 0.89459 0.08617 0.0
C1972 C 0.20059 0.8796 0.09123 0.0
C1973 C 0.20778 0.87267 0.08143 0.0
C1974 C 0.22015 0.881 0.06817 0.0
H1975 H 0.23196 0.91827 0.00935 0.0
H1976 H 0.21912 0.90291 0.02598 0.0
H1977 H 0.22589 0.92212 0.03367 0.0
H1978 H 0.22148 0.91474 0.07062 0.0
H1979 H 0.19981 0.90019 0.09355 0.0
H1980 H 0.33892 0.03308 0.96723 0.0
H1981 H 0.3363 0.0549 0.96031 0.0
H1982 H 0.3596 0.07556 0.01759 0.0
H1983 H 0.36275 0.05386 0.02428 0.0
H1984 H 0.32284 0.06777 0.98056 0.0
H1985 H 0.38482 0.10812 0.97621 0.0
H1986 H 0.37703 0.08803 0.97742 0.0
H1987 H 0.37802 0.09839 0.00056 0.0
C1988 C 0.34344 0.04222 0.97844 0.0
C1989 C 0.35118 0.0418 0.99621 0.0
C1990 C 0.34191 0.0547 0.97448 0.0
C1991 C 0.34798 0.06702 0.98823 0.0
C1992 C 0.35515 0.06637 0.00648 0.0
H1993 H 0.32524 0.13511 0.94594 0.0
H1994 H 0.32928 0.11991 0.97184 0.0
C1995 C 0.35685 0.05392 0.01035 0.0
C1996 C 0.34711 0.08059 0.98276 0.0
H1997 H 0.36884 0.11744 0.96818 0.0
C1998 C 0.33287 0.07871 0.97813 0.0
C1999 C 0.36023 0.09486 0.97959 0.0
C2000 C 0.37591 0.09752 0.98353 0.0
C2001 C 0.33144 0.09036 0.9692 0.0
C2002 C 0.34461 0.10448 0.96537 0.0
C2003 C 0.35876 0.10665 0.97125 0.0
C2004 C 0.34421 0.11608 0.95207 0.0
C2005 C 0.31593 0.08705 0.96255 0.0
C2006 C 0.35209 0.11988 0.93306 0.0
C2007 C 0.35003 0.12871 0.91857 0.0
C2008 C 0.33997 0.1339 0.92269 0.0
C2009 C 0.33302 0.13119 0.94238 0.0
C2010 C 0.33517 0.12236 0.95704 0.0
H2011 H 0.30739 0.07484 0.96337 0.0
H2012 H 0.31213 0.09311 0.97298 0.0
H2013 H 0.31624 0.09095 0.94635 0.0
H2014 H 0.35921 0.11529 0.92888 0.0
H2015 H 0.35568 0.13081 0.9036 0.0
H2016 H 0.93498 0.31105 0.01005 0.0
H2017 H 0.91802 0.28577 -0.00328 0.0
H2018 H 0.95634 0.2812 0.98043 0.0
H2019 H 0.97354 0.30661 0.99387 0.0
H2020 H 0.9178 0.27623 0.9554 0.0
H2021 H 0.92783 0.24169 0.01224 0.0
H2022 H 0.933 0.26097 0.01739 0.0
H2023 H 0.94456 0.25693 0.00059 0.0
C2024 C 0.93987 0.30468 0.00379 0.0
C2025 C 0.95568 0.31092 0.00304 0.0
C2026 C 0.93012 0.29019 0.99619 0.0
C2027 C 0.93589 0.28152 0.98782 0.0
C2028 C 0.95164 0.2876 0.98718 0.0
H2029 H 0.90154 0.19968 0.91867 0.0
H2030 H 0.91527 0.22102 0.94227 0.0
C2031 C 0.96145 0.30217 0.99474 0.0
C2032 C 0.92539 0.26654 0.97859 0.0
H2033 H 0.91308 0.22897 0.98247 0.0
C2034 C 0.91665 0.26587 0.96142 0.0
C2035 C 0.92395 0.25306 0.98648 0.0
C2036 C 0.93273 0.2531 0.0053 0.0
C2037 C 0.90686 0.25216 0.95146 0.0
C2038 C 0.90544 0.23864 0.95926 0.0
C2039 C 0.91405 0.23929 0.97664 0.0
C2040 C 0.89618 0.22401 0.94832 0.0
C2041 C 0.89866 0.2524 0.93211 0.0
C2042 C 0.88062 0.21801 0.9448 0.0
C2043 C 0.87273 0.20579 0.93118 0.0
C2044 C 0.88029 0.19938 0.92104 0.0
C2045 C 0.89547 0.20451 0.92616 0.0
C2046 C 0.90333 0.2167 0.93965 0.0
H2047 H 0.9036 0.26393 0.92558 0.0
H2048 H 0.89898 0.24491 0.91987 0.0
H2049 H 0.88664 0.24831 0.93605 0.0
H2050 H 0.87477 0.22326 0.95174 0.0
H2051 H 0.86105 0.20208 0.92748 0.0
H2052 H 0.69342 0.64149 0.01213 0.0
H2053 H 0.71917 0.64668 0.0053 0.0
H2054 H 0.72774 0.68449 0.96689 0.0
H2055 H 0.7021 0.67943 0.97365 0.0
H2056 H 0.73058 0.64654 0.9656 0.0
H2057 H 0.76569 0.70196 0.00368 0.0
H2058 H 0.74588 0.68972 0.00972 0.0
H2059 H 0.75148 0.70135 0.9868 0.0
C2060 C 0.70085 0.65103 0.00245 0.0
C2061 C 0.6957 0.66004 0.99341 0.0
C2062 C 0.71557 0.65399 -0.00141 0.0
C2063 C 0.72546 0.66611 0.98586 0.0
C2064 C 0.72043 0.67528 0.97714 0.0
H2065 H 0.80244 0.69861 0.91066 0.0
H2066 H 0.78305 0.69564 0.93557 0.0
C2067 C 0.70571 0.67229 0.98089 0.0
C2068 C 0.74052 0.66839 0.98001 0.0
H2069 H 0.77814 0.69493 0.97797 0.0
C2070 C 0.74104 0.65699 0.96866 0.0
C2071 C 0.75413 0.68204 0.98401 0.0
C2072 C 0.75433 0.69442 -0.0031 0.0
C2073 C 0.75464 0.65922 0.96003 0.0
C2074 C 0.76821 0.67312 0.96333 0.0
C2075 C 0.76778 0.68426 0.97553 0.0
C2076 C 0.78236 0.67695 0.95189 0.0
C2077 C 0.75415 0.64703 0.94629 0.0
C2078 C 0.78917 0.66808 0.95362 0.0
C2079 C 0.8003 0.66977 0.93929 0.0
C2080 C 0.8048 0.68042 0.9232 0.0
C2081 C 0.79913 0.69031 0.92293 0.0
C2082 C 0.78802 0.68859 0.93714 0.0
H2083 H 0.74238 0.63829 0.94219 0.0
H2084 H 0.76057 0.6519 0.93162 0.0
H2085 H 0.7594 0.64141 0.95459 0.0
H2086 H 0.78521 0.65925 0.96521 0.0
H2087 H 0.80445 0.66197 0.93975 0.0
H2088 H 0.93559 0.62306 0.00341 0.0
H2089 H 0.91821 0.6307 0.99002 0.0
H2090 H 0.95545 0.67607 0.98198 0.0
H2091 H 0.973 0.66847 0.99491 0.0
H2092 H 0.91101 0.65185 0.0031 0.0
H2093 H 0.93697 0.66594 0.92426 0.0
H2094 H 0.94144 0.65583 0.94311 0.0
H2095 H 0.95013 0.67598 0.9448 0.0
C2096 C 0.94012 0.63468 -0.00121 0.0
C2097 C 0.95574 0.64511 3e-05 0.0
C2098 C 0.93014 0.63903 0.9912 0.0
C2099 C 0.93554 0.65389 0.98467 0.0
C2100 C 0.95106 0.66445 0.98648 0.0
H2101 H 0.89593 0.69988 0.92303 0.0
H2102 H 0.91102 0.69383 0.94614 0.0
C2103 C 0.96108 0.66009 0.99395 0.0
C2104 C 0.92499 0.65823 0.97554 0.0
H2105 H 0.91828 0.67236 0.93145 0.0
C2106 C 0.91258 0.65632 0.98742 0.0
C2107 C 0.92697 0.66394 0.95501 0.0
C2108 C 0.9395 0.66542 0.94096 0.0
C2109 C 0.90227 0.66025 0.97945 0.0
C2110 C 0.9044 0.66614 0.95906 0.0
C2111 C 0.91676 0.66798 0.94718 0.0
C2112 C 0.89394 0.67031 0.9493 0.0
C2113 C 0.88932 0.65831 0.99294 0.0
C2114 C 0.87906 0.65922 0.94414 0.0
C2115 C 0.87036 0.6627 0.93102 0.0
C2116 C 0.87649 0.67729 0.92282 0.0
C2117 C 0.89093 0.68859 0.92929 0.0
C2118 C 0.89957 0.68513 0.94239 0.0
H2119 H 0.89109 0.65678 0.00962 0.0
H2120 H 0.88778 0.66819 0.9915 0.0
H2121 H 0.87873 0.6482 0.98771 0.0
H2122 H 0.87457 0.64766 0.94902 0.0
H2123 H 0.85936 0.65376 0.92594 0.0
H2124 H 0.36721 0.31213 0.01014 0.0
H2125 H 0.36155 0.28652 0.00167 0.0
H2126 H 0.31807 0.276 0.97759 0.0
H2127 H 0.32379 0.30159 0.98541 0.0
H2128 H 0.3382 0.2568 0.01107 0.0
H2129 H 0.33894 0.27017 0.92721 0.0
H2130 H 0.34551 0.28442 0.94724 0.0
H2131 H 0.32558 0.2727 0.94223 0.0
C2132 C 0.35637 0.30428 0.00329 0.0
C2133 C 0.34605 0.30894 -0.00189 0.0
C2134 C 0.35314 0.28965 -0.00149 0.0
C2135 C 0.33952 0.27947 0.9886 0.0
C2136 C 0.32878 0.28379 0.9848 0.0
H2137 H 0.30718 0.19653 0.92121 0.0
H2138 H 0.30753 0.21524 0.94521 0.0
C2139 C 0.33207 0.29842 0.98932 0.0
C2140 C 0.33702 0.26484 0.98059 0.0
H2141 H 0.33109 0.24494 0.93552 0.0
C2142 C 0.33664 0.25417 0.99457 0.0
C2143 C 0.33517 0.26152 0.95901 0.0
C2144 C 0.33646 0.27285 0.94301 0.0
C2145 C 0.33412 0.24011 0.9875 0.0
C2146 C 0.33199 0.23675 0.96598 0.0
C2147 C 0.33248 0.24746 0.95207 0.0
C2148 C 0.32996 0.22256 0.95697 0.0
C2149 C 0.33359 0.22889 0.003 0.0
C2150 C 0.34214 0.21995 0.95643 0.0
C2151 C 0.34188 0.20916 0.94282 0.0
C2152 C 0.32945 0.20091 0.92961 0.0
C2153 C 0.31673 0.20257 0.93157 0.0
C2154 C 0.31698 0.21331 0.94517 0.0
H2155 H 0.33225 0.23184 0.01923 0.0
H2156 H 0.32413 0.21739 -0.00063 0.0
H2157 H 0.34429 0.22869 0.00202 0.0
H2158 H 0.35237 0.22716 0.96508 0.0
H2159 H 0.35194 0.2083 0.94115 0.0
H2160 H 0.69999 0.02618 0.98993 0.0
H2161 H 0.72607 0.04219 0.97771 0.0
H2162 H 0.72531 0.08165 -0.00142 0.0
H2163 H 0.69943 0.06582 0.01106 0.0
H2164 H 0.73555 0.06398 0.94774 0.0
H2165 H 0.76561 0.08973 0.02146 0.0
H2166 H 0.74686 0.07331 0.02087 0.0
H2167 H 0.74946 0.09182 0.01752 0.0
C2168 C 0.70543 0.03825 0.99215 0.0
C2169 C 0.69756 0.04468 0.0015 0.0
C2170 C 0.72035 0.04739 0.98518 0.0
C2171 C 0.72777 0.06312 0.98755 0.0
C2172 C 0.72 0.06954 -0.00295 0.0
H2173 H 0.80447 0.14011 0.93306 0.0
H2174 H 0.78397 0.12308 0.95663 0.0
C2175 C 0.70511 0.06044 0.00402 0.0
C2176 C 0.74312 0.07292 0.97853 0.0
H2177 H 0.77882 0.10167 0.98988 0.0
C2178 C 0.74507 0.07206 0.95701 0.0
C2179 C 0.75552 0.08356 0.99061 0.0
C2180 C 0.75433 0.08459 0.01393 0.0
C2181 C 0.75887 0.08184 0.94713 0.0
C2182 C 0.77121 0.09262 0.95914 0.0
C2183 C 0.76937 0.09337 0.98072 0.0
C2184 C 0.78581 0.10356 0.94915 0.0
C2185 C 0.75993 0.08091 0.92373 0.0
C2186 C 0.79425 0.09846 0.93821 0.0
C2187 C 0.80593 0.10816 0.92481 0.0
C2188 C 0.80949 0.12316 0.92239 0.0
C2189 C 0.80209 0.12866 0.93495 0.0
C2190 C 0.79031 0.11891 0.94827 0.0
H2191 H 0.74859 0.07439 0.9164 0.0
H2192 H 0.76597 0.09234 0.91672 0.0
H2193 H 0.76637 0.07522 0.91989 0.0
H2194 H 0.79111 0.08672 0.9389 0.0
H2195 H 0.81137 0.10364 0.9151 0.0
H2196 H 0.67073 0.97119 0.04959 0.0
H2197 H 0.67358 0.94971 0.05776 0.0
H2198 H 0.64728 0.92619 0.00364 0.0
H2199 H 0.64402 0.94768 0.99559 0.0
H2200 H 0.63808 0.90807 0.0367 0.0
H2201 H 0.70019 0.93578 0.03262 0.0
H2202 H 0.69485 0.94606 0.04981 0.0
H2203 H 0.69007 0.94451 0.02254 0.0
C2204 C 0.66568 0.96154 0.03923 0.0
C2205 C 0.65719 0.96121 0.02187 0.0
C2206 C 0.66743 0.94927 0.04386 0.0
C2207 C 0.66096 0.93641 0.03108 0.0
C2208 C 0.65252 0.93604 0.01363 0.0
H2209 H 0.68658 0.87193 0.07636 0.0
H2210 H 0.68104 0.88574 0.04999 0.0
C2211 C 0.65068 0.94833 0.00903 0.0
C2212 C 0.66224 0.92311 0.03697 0.0
H2213 H 0.68764 0.91362 0.05476 0.0
C2214 C 0.64894 0.9092 0.04024 0.0
C2215 C 0.67639 0.92434 0.04105 0.0
C2216 C 0.69117 0.93845 0.03607 0.0
C2217 C 0.64938 0.89693 0.04902 0.0
C2218 C 0.66345 0.89871 0.05521 0.0
C2219 C 0.6768 0.91223 0.05038 0.0
C2220 C 0.66454 0.88764 0.06894 0.0
C2221 C 0.6347 0.88227 0.0519 0.0
C2222 C 0.65678 0.88365 0.08807 0.0
C2223 C 0.6598 0.87565 0.10292 0.0
C2224 C 0.67081 0.87163 0.09915 0.0
C2225 C 0.67791 0.87473 0.07954 0.0
C2226 C 0.67484 0.88274 0.06457 0.0
H2227 H 0.62656 0.88063 0.03935 0.0
H2228 H 0.63645 0.87248 0.05195 0.0
H2229 H 0.62947 0.88257 0.06694 0.0
H2230 H 0.64911 0.88758 0.09218 0.0
H2231 H 0.65423 0.87348 0.11797 0.0
H2232 H 0.02576 0.70309 0.03997 0.0
H2233 H 0.04605 0.72899 0.04588 0.0
H2234 H 0.07543 0.72193 0.00506 0.0
H2235 H 0.05514 0.69588 -0.00089 0.0
H2236 H 0.08782 0.73335 0.04397 0.0
H2237 H 0.06503 0.76704 0.00988 0.0
H2238 H 0.05187 0.75259 0.02712 0.0
H2239 H 0.05763 0.74743 0.00346 0.0
C2240 C 0.03646 0.70709 0.03198 0.0
C2241 C 0.03884 0.6974 0.0191 0.0
C2242 C 0.04802 0.72196 0.03524 0.0
C2243 C 0.06219 0.72749 0.02566 0.0
C2244 C 0.06453 0.71794 0.01245 0.0
H2245 H 0.14511 0.80754 0.07119 0.0
H2246 H 0.12861 0.78873 0.0453 0.0
C2247 C 0.05293 0.70306 0.00908 0.0
C2248 C 0.07493 0.74264 0.03129 0.0
H2249 H 0.0848 0.77961 0.0354 0.0
C2250 C 0.08736 0.74354 0.04168 0.0
C2251 C 0.07427 0.75591 0.02831 0.0
C2252 C 0.06155 0.75575 0.01639 0.0
C2253 C 0.09864 0.75713 0.05046 0.0
C2254 C 0.09765 0.7703 0.0483 0.0
C2255 C 0.0856 0.76955 0.03696 0.0
C2256 C 0.10774 0.78423 0.06023 0.0
C2257 C 0.11093 0.757 0.06319 0.0
C2258 C 0.10149 0.78876 0.07616 0.0
C2259 C 0.11085 0.79959 0.09066 0.0
C2260 C 0.12664 0.80611 0.08947 0.0
C2261 C 0.13297 0.80272 0.07234 0.0
C2262 C 0.12356 0.79185 0.05774 0.0
H2263 H 0.10851 0.74538 0.06634 0.0
H2264 H 0.12181 0.76305 0.05458 0.0
H2265 H 0.11235 0.76282 0.07834 0.0
H2266 H 0.08934 0.78311 0.07834 0.0
H2267 H 0.10572 0.80203 0.10377 0.0
H2268 H 0.30842 0.33462 0.02297 0.0
H2269 H 0.28227 0.32468 0.03447 0.0
H2270 H 0.28415 0.36544 0.01403 0.0
H2271 H 0.31018 0.3754 0.00225 0.0
H2272 H 0.27316 0.33748 0.06442 0.0
H2273 H 0.24378 0.33309 0.99019 0.0
H2274 H 0.26235 0.33515 0.99111 0.0
H2275 H 0.26018 0.35131 0.99438 0.0
C2276 C 0.30324 0.34142 0.02071 0.0
C2277 C 0.31144 0.35583 0.01171 0.0
C2278 C 0.28827 0.33569 0.02724 0.0
C2279 C 0.28117 0.3442 0.02477 0.0
C2280 C 0.28926 0.35851 0.01561 0.0
H2281 H 0.20607 0.34622 0.07877 0.0
H2282 H 0.22591 0.34879 0.05468 0.0
C2283 C 0.30422 0.36425 0.00907 0.0
C2284 C 0.26583 0.33874 0.03351 0.0
H2285 H 0.23038 0.33179 0.02159 0.0
C2286 C 0.26374 0.33601 0.055 0.0
C2287 C 0.25359 0.33694 0.0212 0.0
C2288 C 0.25501 0.33914 -0.0021 0.0
C2289 C 0.24994 0.33205 0.06468 0.0
C2290 C 0.23774 0.33045 0.05245 0.0
C2291 C 0.23972 0.33294 0.03088 0.0
C2292 C 0.22327 0.32712 0.06228 0.0
C2293 C 0.24873 0.33022 0.08809 0.0
C2294 C 0.21459 0.31369 0.07342 0.0
C2295 C 0.20333 0.31225 0.08716 0.0
C2296 C 0.20043 0.32411 0.08964 0.0
C2297 C 0.20797 0.33685 0.07682 0.0
C2298 C 0.21934 0.33835 0.06318 0.0
H2299 H 0.26 0.33495 0.09555 0.0
H2300 H 0.24287 0.33582 0.09494 0.0
H2301 H 0.24203 0.31805 0.09197 0.0
H2302 H 0.21734 0.30483 0.07272 0.0
H2303 H 0.19776 0.30242 0.09711 0.0
H2304 H 0.6931 0.66018 0.3775 0.0
H2305 H 0.71349 0.65509 0.38466 0.0
H2306 H 0.7436 0.69217 0.34519 0.0
H2307 H 0.72323 0.69742 0.33797 0.0
H2308 H 0.73229 0.64903 0.35684 0.0
H2309 H 0.76509 0.70191 0.40267 0.0
H2310 H 0.74542 0.69434 0.39628 0.0
H2311 H 0.75973 0.70376 0.3767 0.0
C2312 C 0.70402 0.66721 0.3702 0.0
C2313 C 0.70656 0.67929 0.35727 0.0
C2314 C 0.71566 0.66425 0.37428 0.0
C2315 C 0.73012 0.67334 0.36565 0.0
C2316 C 0.73259 0.68512 0.35222 0.0
H2317 H 0.81162 0.67579 0.41193 0.0
H2318 H 0.79552 0.67935 0.38712 0.0
C2319 C 0.72091 0.68807 0.34806 0.0
C2320 C 0.74266 0.67081 0.37159 0.0
H2321 H 0.77481 0.6857 0.40086 0.0
C2322 C 0.7417 0.65711 0.36626 0.0
C2323 C 0.75498 0.6814 0.38377 0.0
C2324 C 0.75642 0.69615 0.39037 0.0
C2325 C 0.75253 0.65357 0.3732 0.0
C2326 C 0.76446 0.66386 0.38623 0.0
C2327 C 0.76574 0.67782 0.39081 0.0
C2328 C 0.77465 0.65981 0.39734 0.0
C2329 C 0.75099 0.63878 0.36662 0.0
C2330 C 0.76843 0.64731 0.41073 0.0
C2331 C 0.77762 0.6452 0.42468 0.0
C2332 C 0.79322 0.65561 0.42568 0.0
C2333 C 0.79967 0.66746 0.41122 0.0
C2334 C 0.79044 0.66958 0.3972 0.0
H2335 H 0.74542 0.63516 0.35117 0.0
H2336 H 0.76216 0.6395 0.3658 0.0
H2337 H 0.74379 0.62996 0.37808 0.0
H2338 H 0.7563 0.6398 0.41159 0.0
H2339 H 0.77235 0.6361 0.43587 0.0
H2340 H 0.33662 0.03082 0.36 0.0
H2341 H 0.34628 0.05667 0.37235 0.0
H2342 H 0.30113 0.04971 0.37078 0.0
H2343 H 0.29145 0.0241 0.35813 0.0
H2344 H 0.32223 0.07709 0.35396 0.0
H2345 H 0.34106 0.06843 0.43111 0.0
H2346 H 0.34907 0.06405 0.40912 0.0
H2347 H 0.32907 0.05297 0.41409 0.0
C2348 C 0.32875 0.03478 0.36233 0.0
C2349 C 0.31324 0.02531 0.35817 0.0
C2350 C 0.33428 0.04955 0.36945 0.0
C2351 C 0.32439 0.05507 0.37274 0.0
C2352 C 0.30897 0.04571 0.36838 0.0
H2353 H 0.32504 0.1317 0.42838 0.0
H2354 H 0.31942 0.11006 0.4061 0.0
C2355 C 0.30345 0.03102 0.3612 0.0
C2356 C 0.32993 0.07052 0.38095 0.0
H2357 H 0.34613 0.09291 0.42353 0.0
C2358 C 0.32752 0.08059 0.36914 0.0
C2359 C 0.33678 0.07505 0.40078 0.0
C2360 C 0.33905 0.06455 0.41463 0.0
C2361 C 0.33178 0.09506 0.37663 0.0
C2362 C 0.33846 0.0995 0.39655 0.0
C2363 C 0.34108 0.08952 0.40819 0.0
C2364 C 0.34234 0.11417 0.40619 0.0
C2365 C 0.32918 0.10549 0.36313 0.0
C2366 C 0.35714 0.12391 0.41317 0.0
C2367 C 0.36032 0.13621 0.42586 0.0
C2368 C 0.34876 0.139 0.43186 0.0
C2369 C 0.33419 0.12994 0.42366 0.0
C2370 C 0.33098 0.11755 0.41098 0.0
H2371 H 0.328 0.10217 0.34645 0.0
H2372 H 0.31857 0.10502 0.36812 0.0
H2373 H 0.3386 0.11731 0.36469 0.0
H2374 H 0.36607 0.12152 0.40971 0.0
H2375 H 0.37163 0.14299 0.43212 0.0
H2376 H 0.97929 0.31075 0.36378 0.0
H2377 H 0.95347 0.2932 0.37606 0.0
H2378 H 0.9597 0.25568 0.36232 0.0
H2379 H 0.98536 0.27294 0.35033 0.0
H2380 H 0.92847 0.26822 0.35458 0.0
H2381 H 0.94697 0.24989 0.42412 0.0
H2382 H 0.95959 0.26667 0.40964 0.0
H2383 H 0.95512 0.24846 0.4 0.0
C2384 C 0.97517 0.29876 0.36343 0.0
C2385 C 0.98448 0.29329 0.35624 0.0
C2386 C 0.96041 0.28877 0.37037 0.0
C2387 C 0.95477 0.27317 0.37032 0.0
C2388 C 0.96393 0.26769 0.3628 0.0
H2389 H 0.87442 0.19589 0.42106 0.0
H2390 H 0.89641 0.21139 0.39877 0.0
C2391 C 0.97861 0.27761 0.35592 0.0
C2392 C 0.93942 0.26252 0.37842 0.0
H2393 H 0.92089 0.23613 0.41618 0.0
C2394 C 0.92677 0.26122 0.36808 0.0
C2395 C 0.93727 0.25337 0.39598 0.0
C2396 C 0.95044 0.25472 0.40822 0.0
C2397 C 0.91198 0.25083 0.37471 0.0
C2398 C 0.90985 0.24168 0.39227 0.0
C2399 C 0.92252 0.24299 0.40254 0.0
C2400 C 0.89471 0.23145 0.40143 0.0
C2401 C 0.89878 0.2496 0.36272 0.0
C2402 C 0.88613 0.23741 0.40961 0.0
C2403 C 0.87356 0.22856 0.42219 0.0
C2404 C 0.86939 0.21363 0.42694 0.0
C2405 C 0.87727 0.20731 0.41744 0.0
C2406 C 0.88989 0.21619 0.40486 0.0
H2407 H 0.90204 0.25371 0.34647 0.0
H2408 H 0.88921 0.23779 0.36229 0.0
H2409 H 0.89481 0.25663 0.37047 0.0
H2410 H 0.88976 0.2492 0.40753 0.0
H2411 H 0.86769 0.2337 0.4294 0.0
H2412 H 0.04007 0.39352 0.34927 0.0
H2413 H 0.03787 0.41541 0.34008 0.0
H2414 H 1.0004 0.3875 0.29966 0.0
H2415 H 0.00261 0.36565 0.30854 0.0
H2416 H 0.02327 0.41306 0.28039 0.0
H2417 H 0.00656 0.42776 0.35542 0.0
H2418 H 0.02291 0.42565 0.35647 0.0
H2419 H 0.00472 0.4096 0.3507 0.0
C2420 C 0.0312 0.392 0.33868 0.0
C2421 C 0.02154 0.37784 0.32959 0.0
C2422 C 0.02992 0.40451 0.33353 0.0
C2423 C 0.01889 0.40307 0.31932 0.0
C2424 C 0.00896 0.38886 0.31071 0.0
H2425 H 0.98594 0.4581 0.27138 0.0
H2426 H 0.99086 0.4418 0.29372 0.0
C2427 C 0.01024 0.37638 0.31582 0.0
C2428 C 0.01844 0.41649 0.31194 0.0
H2429 H 0.01195 0.4446 0.32721 0.0
C2430 C 0.02086 0.41999 0.29065 0.0
C2431 C 0.01523 0.42547 0.32536 0.0
C2432 C 0.01208 0.42192 0.34824 0.0
C2433 C 0.02002 0.43211 0.28233 0.0
C2434 C 0.01693 0.44119 0.29573 0.0
C2435 C 0.01455 0.43776 0.31706 0.0
C2436 C 0.01488 0.45341 0.28723 0.0
C2437 C 0.02194 0.4348 0.2591 0.0
C2438 C 0.02691 0.46587 0.27723 0.0
C2439 C 0.02411 0.47523 0.26458 0.0
C2440 C 0.00928 0.47231 0.26197 0.0
C2441 C 0.9975 0.46074 0.27355 0.0
C2442 C 1.0003 0.45138 0.28619 0.0
H2443 H 0.02143 0.42514 0.25056 0.0
H2444 H 0.01306 0.43685 0.25282 0.0
H2445 H 0.03311 0.44494 0.25589 0.0
H2446 H 0.03826 0.46765 0.27793 0.0
H2447 H 0.03329 0.48389 0.25543 0.0
H2448 H 0.64104 0.64137 0.32336 0.0
H2449 H 0.62373 0.61617 0.30935 0.0
H2450 H 0.58558 0.62075 0.32666 0.0
H2451 H 0.60265 0.64585 0.34049 0.0
H2452 H 0.59882 0.58996 0.32954 0.0
H2453 H 0.57996 0.61123 0.26355 0.0
H2454 H 0.59679 0.62325 0.2784 0.0
H2455 H 0.57846 0.61789 0.28887 0.0
C2456 C 0.62897 0.63702 0.3242 0.0
C2457 C 0.62327 0.64573 0.3329 0.0
C2458 C 0.6191 0.6226 0.31625 0.0
C2459 C 0.60339 0.61669 0.31674 0.0
C2460 C 0.59767 0.62519 0.32583 0.0
H2461 H 0.52924 0.53764 0.25678 0.0
H2462 H 0.54307 0.5587 0.28111 0.0
C2463 C 0.60748 0.63956 0.33378 0.0
C2464 C 0.59293 0.60177 0.30737 0.0
H2465 H 0.56747 0.58491 0.26798 0.0
C2466 C 0.59195 0.58882 0.31608 0.0
C2467 C 0.58391 0.60033 0.28991 0.0
C2468 C 0.58486 0.6139 0.27947 0.0
C2469 C 0.58213 0.57443 0.30781 0.0
C2470 C 0.57328 0.57301 0.29014 0.0
C2471 C 0.57414 0.58597 0.28164 0.0
C2472 C 0.56404 0.55848 0.279 0.0
C2473 C 0.58125 0.56088 0.31817 0.0
C2474 C 0.57107 0.55106 0.27027 0.0
C2475 C 0.56318 0.53902 0.25654 0.0
C2476 C 0.54813 0.53422 0.25112 0.0
C2477 C 0.54076 0.54099 0.26088 0.0
C2478 C 0.54869 0.55309 0.27464 0.0
H2479 H 0.58451 0.56314 0.33486 0.0
H2480 H 0.56968 0.55089 0.3171 0.0
H2481 H 0.58924 0.55816 0.31032 0.0
H2482 H 0.58295 0.55517 0.273 0.0
H2483 H 0.56913 0.53402 0.24918 0.0
H2484 H 0.35789 0.97331 0.35264 0.0
H2485 H 0.38244 0.97583 0.34442 0.0
H2486 H 0.3866 0.00269 0.29062 0.0
H2487 H 0.36238 1.00059 0.29906 0.0
H2488 H 0.39064 0.96618 0.31142 0.0
H2489 H 0.42776 0.02786 0.3154 0.0
H2490 H 0.40867 0.01841 0.32547 0.0
H2491 H 0.41224 0.02302 0.29817 0.0
C2492 C 0.36415 0.97994 0.33923 0.0
C2493 C 0.35821 0.98682 0.32656 0.0
C2494 C 0.37818 0.98135 0.33454 0.0
C2495 C 0.38656 0.98969 0.31712 0.0
C2496 C 0.38062 0.99658 0.30451 0.0
H2497 H 0.44305 0.98042 0.23184 0.0
H2498 H 0.42326 0.9764 0.25657 0.0
C2499 C 0.36668 0.99527 0.30926 0.0
C2500 C 0.40094 0.99036 0.31114 0.0
H2501 H 0.43685 0.01457 0.29402 0.0
C2502 C 0.40083 0.97679 0.30801 0.0
C2503 C 0.41444 0.00416 0.30718 0.0
C2504 C 0.41584 0.01917 0.31198 0.0
C2505 C 0.41344 0.97663 0.29961 0.0
C2506 C 0.42638 0.99038 0.29368 0.0
C2507 C 0.42689 0.00399 0.29825 0.0
C2508 C 0.43864 0.9909 0.2805 0.0
C2509 C 0.41262 0.96168 0.29684 0.0
C2510 C 0.454 1.00033 0.28564 0.0
C2511 C 0.4654 0.00274 0.27131 0.0
C2512 C 0.46158 0.99586 0.25159 0.0
C2513 C 0.44629 0.98578 0.24701 0.0
C2514 C 0.43496 0.9834 0.26123 0.0
H2515 H 0.40539 0.95358 0.30908 0.0
H2516 H 0.40742 0.95679 0.28154 0.0
H2517 H 0.42401 0.96289 0.29742 0.0
H2518 H 0.45712 0.00633 0.30035 0.0
H2519 H 0.47709 0.01071 0.27509 0.0
H2520 H 0.64047 1.00033 0.32359 0.0
H2521 H 0.62288 0.00832 0.31204 0.0
H2522 H 0.58519 0.96406 0.32542 0.0
H2523 H 0.60259 0.95602 0.33721 0.0
H2524 H 0.60255 0.99636 0.27978 0.0
H2525 H 0.57201 0.99108 0.35358 0.0
H2526 H 0.58972 0.99128 0.35272 0.0
H2527 H 0.57227 0.97428 0.3468 0.0
C2528 C 0.62843 0.99232 0.32423 0.0
C2529 C 0.62297 0.97753 0.33137 0.0
C2530 C 0.61839 0.99692 0.31765 0.0
C2531 C 0.6027 0.98688 0.31825 0.0
C2532 C 0.59722 0.97213 0.32534 0.0
H2533 H 0.52315 0.97876 0.26398 0.0
H2534 H 0.54123 0.97699 0.28701 0.0
C2535 C 0.60722 0.96751 0.33189 0.0
C2536 C 0.59207 0.99144 0.31009 0.0
H2537 H 0.56038 0.99302 0.3223 0.0
C2538 C 0.59347 0.99586 0.28916 0.0
C2539 C 0.58019 0.99072 0.32234 0.0
C2540 C 0.57851 0.98672 0.34517 0.0
C2541 C 0.58299 0.99898 0.27989 0.0
C2542 C 0.57092 0.99796 0.29202 0.0
C2543 C 0.56967 0.99385 0.31307 0.0
C2544 C 0.55899 1.00014 0.2825 0.0
C2545 C 0.58455 0.00271 0.25694 0.0
C2546 C 0.56267 0.01398 0.27341 0.0
C2547 C 0.55234 0.01499 0.26036 0.0
C2548 C 0.53812 0.00225 0.2565 0.0
C2549 C 0.53393 0.9888 0.26714 0.0
C2550 C 0.54429 0.98777 0.28013 0.0
H2551 H 0.59252 0.99997 0.249 0.0
H2552 H 0.5734 0.99647 0.24904 0.0
H2553 H 0.58893 0.01494 0.25499 0.0
H2554 H 0.5739 0.0237 0.27525 0.0
H2555 H 0.55589 0.02537 0.25197 0.0
H2556 H 0.99479 0.63702 0.31424 0.0
H2557 H 0.99047 0.61173 0.30797 0.0
H2558 H 0.02946 0.62201 0.3452 0.0
H2559 H 0.0339 0.64744 0.35156 0.0
H2560 H 0.02968 0.61109 0.30524 0.0
H2561 H 0.97495 0.57396 0.34439 0.0
H2562 H 0.97453 0.58784 0.328 0.0
H2563 H 0.98657 0.59376 0.35055 0.0
C2564 C 0.00231 0.63384 0.32141 0.0
C2565 C 0.01472 0.64426 0.33336 0.0
C2566 C 0.99974 0.61932 0.31794 0.0
C2567 C 0.00951 0.6149 0.32636 0.0
C2568 C 0.0217 0.62514 0.33873 0.0
H2569 H 0.01635 0.53878 0.27582 0.0
H2570 H 0.01893 0.55737 0.30207 0.0
C2571 C 0.02422 0.63966 0.34234 0.0
C2572 C 0.00788 0.60023 0.32022 0.0
H2573 H 0.98227 0.56253 0.31745 0.0
C2574 C 0.01947 0.60041 0.30829 0.0
C2575 C 0.99453 0.58634 0.32419 0.0
C2576 C 0.98199 0.5854 0.33766 0.0
C2577 C 0.01766 0.58723 0.299 0.0
C2578 C 0.00402 0.57338 0.30221 0.0
C2579 C 0.99274 0.5731 0.31506 0.0
C2580 C 1.0005 0.55967 0.29005 0.0
C2581 C 0.02997 0.58847 0.28465 0.0
C2582 C 0.98855 0.55392 0.27573 0.0
C2583 C 0.98691 0.54317 0.26105 0.0
C2584 C 0.99722 0.53798 0.26035 0.0
C2585 C 0.00826 0.5426 0.27599 0.0
C2586 C 0.00985 0.55335 0.29081 0.0
H2587 H 0.0384 0.60036 0.28083 0.0
H2588 H 0.03602 0.58341 0.29231 0.0
H2589 H 0.02508 0.58229 0.26986 0.0
H2590 H 0.9811 0.5585 0.27495 0.0
H2591 H 0.97819 0.53966 0.24931 0.0
H2592 H 0.36482 0.40191 0.33664 0.0
H2593 H 0.39071 0.4175 0.32392 0.0
H2594 H 0.3926 0.37759 0.3093 0.0
H2595 H 0.36655 0.36182 0.3217 0.0
H2596 H 0.41806 0.41963 0.33581 0.0
H2597 H 0.40324 0.40013 0.25382 0.0
H2598 H 0.38908 0.39643 0.27338 0.0
H2599 H 0.3982 0.38544 0.27261 0.0
C2600 C 0.37071 0.39639 0.33074 0.0
C2601 C 0.3635 0.38057 0.33001 0.0
C2602 C 0.38556 0.40536 0.32355 0.0
C2603 C 0.39354 0.39873 0.31542 0.0
C2604 C 0.38657 0.38295 0.31517 0.0
H2605 H 0.47698 0.44018 0.24356 0.0
H2606 H 0.45711 0.42284 0.26749 0.0
C2607 C 0.37167 0.37395 0.32232 0.0
C2608 C 0.40893 0.4084 0.30656 0.0
H2609 H 0.42881 0.41728 0.2609 0.0
C2610 C 0.42047 0.41907 0.31946 0.0
C2611 C 0.41205 0.40767 0.28522 0.0
C2612 C 0.39999 0.39691 0.27036 0.0
C2613 C 0.43501 0.42907 0.31156 0.0
C2614 C 0.43802 0.42852 0.29014 0.0
C2615 C 0.42656 0.41763 0.27737 0.0
C2616 C 0.45252 0.43966 0.28005 0.0
C2617 C 0.44701 0.4401 0.32621 0.0
C2618 C 0.45707 0.45504 0.27988 0.0
C2619 C 0.46859 0.465 0.26642 0.0
C2620 C 0.47564 0.45968 0.25287 0.0
C2621 C 0.4719 0.44457 0.25419 0.0
C2622 C 0.46046 0.43465 0.26771 0.0
H2623 H 0.44459 0.43602 0.34257 0.0
H2624 H 0.45838 0.44216 0.32176 0.0
H2625 H 0.44724 0.45098 0.32559 0.0
H2626 H 0.45091 0.45913 0.28887 0.0
H2627 H 0.47102 0.47651 0.26524 0.0
H2628 H 0.34812 0.31452 0.37176 0.0
H2629 H 0.35376 0.29501 0.3815 0.0
H2630 H 0.31431 0.26191 0.34818 0.0
H2631 H 0.30874 0.28154 0.33798 0.0
H2632 H 0.33533 0.27084 0.4054 0.0
H2633 H 0.34598 0.25132 0.32983 0.0
H2634 H 0.34597 0.26879 0.33245 0.0
H2635 H 0.3284 0.25117 0.33131 0.0
C2636 C 0.34074 0.30314 0.36621 0.0
C2637 C 0.32794 0.29958 0.35414 0.0
C2638 C 0.344 0.29199 0.37179 0.0
C2639 C 0.33456 0.277 0.36544 0.0
C2640 C 0.32196 0.27344 0.35291 0.0
H2641 H 0.32653 0.19535 0.41659 0.0
H2642 H 0.32411 0.21277 0.39303 0.0
C2643 C 0.31872 0.28466 0.3472 0.0
C2644 C 0.33721 0.26504 0.3737 0.0
H2645 H 0.34443 0.23711 0.35992 0.0
C2646 C 0.33739 0.26354 0.39541 0.0
C2647 C 0.33978 0.2554 0.36068 0.0
C2648 C 0.34016 0.25679 0.33727 0.0
C2649 C 0.34005 0.25273 0.40447 0.0
C2650 C 0.3428 0.24322 0.39151 0.0
C2651 C 0.34242 0.2445 0.36978 0.0
C2652 C 0.34596 0.23191 0.40074 0.0
C2653 C 0.33977 0.25146 0.42794 0.0
C2654 C 0.3594 0.23671 0.4119 0.0
C2655 C 0.36079 0.22679 0.42525 0.0
C2656 C 0.34884 0.21189 0.42747 0.0
C2657 C 0.33602 0.2067 0.41476 0.0
C2658 C 0.33459 0.21666 0.40143 0.0
H2659 H 0.33467 0.25757 0.43551 0.0
H2660 H 0.33332 0.23947 0.43283 0.0
H2661 H 0.35153 0.25635 0.43373 0.0
H2662 H 0.36829 0.24844 0.41158 0.0
H2663 H 0.37064 0.2311 0.43521 0.0
H2664 H 0.72354 0.02804 0.34177 0.0
H2665 H 0.74286 0.05385 0.35113 0.0
H2666 H 0.70834 0.06118 0.3775 0.0
H2667 H 0.68908 0.03531 0.36884 0.0
H2668 H 0.74809 0.08242 0.34263 0.0
H2669 H 0.73588 0.06926 0.42674 0.0
H2670 H 0.72824 0.05488 0.40688 0.0
H2671 H 0.71966 0.06609 0.4121 0.0
C2672 C 0.72006 0.0352 0.34941 0.0
C2673 C 0.70482 0.02957 0.35487 0.0
C2674 C 0.73111 0.04996 0.3547 0.0
C2675 C 0.72709 0.05934 0.36542 0.0
C2676 C 0.71176 0.05402 0.36972 0.0
H2677 H 0.77883 0.1435 0.43179 0.0
H2678 H 0.75966 0.12426 0.40888 0.0
C2679 C 0.70075 0.03924 0.36468 0.0
C2680 C 0.73897 0.0743 0.37328 0.0
H2681 H 0.75309 0.09459 0.41809 0.0
C2682 C 0.74918 0.08511 0.35912 0.0
C2683 C 0.74049 0.07776 0.39484 0.0
C2684 C 0.7306 0.06635 0.41105 0.0
C2685 C 0.76074 0.09934 0.36596 0.0
C2686 C 0.7621 0.10278 0.38747 0.0
C2687 C 0.75187 0.092 0.40156 0.0
C2688 C 0.77454 0.11703 0.39622 0.0
C2689 C 0.77136 0.11062 0.35022 0.0
C2690 C 0.78944 0.1198 0.39596 0.0
C2691 C 0.80041 0.13085 0.40897 0.0
C2692 C 0.79661 0.13927 0.42231 0.0
C2693 C 0.78208 0.13738 0.42124 0.0
C2694 C 0.77112 0.12632 0.40829 0.0
H2695 H 0.76677 0.10769 0.33415 0.0
H2696 H 0.77364 0.12211 0.35408 0.0
H2697 H 0.7823 0.11085 0.35055 0.0
H2698 H 0.79226 0.11256 0.38712 0.0
H2699 H 0.81143 0.13185 0.41 0.0
H2700 H 0.98199 0.71514 0.34511 0.0
H2701 H 0.9565 0.7066 0.35819 0.0
H2702 H 0.94938 0.66197 0.36706 0.0
H2703 H 0.97504 0.67049 0.35447 0.0
H2704 H 0.92822 0.68458 0.34527 0.0
H2705 H 0.94042 0.67206 0.4245 0.0
H2706 H 0.95511 0.68239 0.40553 0.0
H2707 H 0.94389 0.66218 0.40416 0.0
C2708 C 0.97502 0.70349 0.34982 0.0
C2709 C 0.98064 0.69354 0.34896 0.0
C2710 C 0.96042 0.69862 0.35723 0.0
C2711 C 0.95112 0.68372 0.36392 0.0
C2712 C 0.95649 0.67361 0.36242 0.0
H2713 H 0.86487 0.63662 0.42667 0.0
H2714 H 0.88602 0.64273 0.40307 0.0
C2715 C 0.97115 0.6785 0.35516 0.0
C2716 C 0.93601 0.67891 0.37303 0.0
H2717 H 0.91505 0.66491 0.41742 0.0
C2718 C 0.92531 0.68027 0.36104 0.0
C2719 C 0.9323 0.67343 0.39368 0.0
C2720 C 0.94357 0.67255 0.40781 0.0
C2721 C 0.91092 0.67606 0.36909 0.0
C2722 C 0.90721 0.67043 0.38963 0.0
C2723 C 0.9179 0.66909 0.40157 0.0
C2724 C 0.89247 0.66611 0.39952 0.0
C2725 C 0.89971 0.67746 0.35556 0.0
C2726 C 0.8887 0.6771 0.40463 0.0
C2727 C 0.87653 0.67359 0.41805 0.0
C2728 C 0.86811 0.65909 0.4266 0.0
C2729 C 0.87119 0.64786 0.42017 0.0
C2730 C 0.88328 0.65134 0.40677 0.0
H2731 H 0.90305 0.67889 0.33886 0.0
H2732 H 0.88824 0.66738 0.35723 0.0
H2733 H 0.89906 0.68744 0.36059 0.0
H2734 H 0.89581 0.68863 0.39947 0.0
H2735 H 0.8745 0.68247 0.42305 0.0
H2736 H 0.39228 0.03607 0.66956 0.0
H2737 H 0.41408 0.0338 0.67963 0.0
H2738 H 0.38604 0.99867 0.7231 0.0
H2739 H 0.3643 1.00099 0.71336 0.0
H2740 H 0.41222 0.02118 0.74075 0.0
H2741 H 0.42516 0.00147 0.66702 0.0
H2742 H 0.42388 0.01818 0.66474 0.0
H2743 H 0.40734 1.00063 0.67157 0.0
C2744 C 0.39071 0.02771 0.68105 0.0
C2745 C 0.37653 0.01872 0.69067 0.0
C2746 C 0.40318 0.02638 0.68671 0.0
C2747 C 0.40168 0.01596 0.70198 0.0
C2748 C 0.38746 0.00676 0.71124 0.0
H2749 H 0.45708 0.98277 0.75 0.0
H2750 H 0.44032 0.98752 0.72828 0.0
C2751 C 0.37503 0.00809 0.70563 0.0
C2752 C 0.41506 0.01532 0.70951 0.0
H2753 H 0.4425 0.0075 0.69482 0.0
C2754 C 0.41887 0.01825 0.73067 0.0
C2755 C 0.42368 0.0114 0.69638 0.0
C2756 C 0.41978 0.00761 0.67369 0.0
C2757 C 0.43094 0.01726 0.73912 0.0
C2758 C 0.4397 0.01352 0.72598 0.0
C2759 C 0.43594 0.01061 0.70478 0.0
C2760 C 0.45197 0.01146 0.73458 0.0
C2761 C 0.4339 0.01975 0.76225 0.0
C2762 C 0.46461 0.02348 0.74429 0.0
C2763 C 0.47424 0.02077 0.75659 0.0
C2764 C 0.47146 0.00604 0.75911 0.0
C2765 C 0.45964 0.99426 0.74787 0.0
C2766 C 0.45001 0.99696 0.73561 0.0
H2767 H 0.4243 0.01947 0.77076 0.0
H2768 H 0.43601 0.01107 0.769 0.0
H2769 H 0.44412 0.03094 0.7649 0.0
H2770 H 0.46641 0.03478 0.74355 0.0
H2771 H 0.48307 0.02996 0.76549 0.0
H2772 H 0.00246 0.36411 0.69895 0.0
H2773 H 0.01081 0.38966 0.71175 0.0
H2774 H 0.96873 0.38534 0.6916 0.0
H2775 H 0.96022 0.35991 0.67918 0.0
H2776 H 0.01412 0.41585 0.69148 0.0
H2777 H 0.97025 0.39548 0.7535 0.0
H2778 H 0.97487 0.38308 0.73957 0.0
H2779 H 0.96276 0.38893 0.72791 0.0
C2780 C 0.995 0.36861 0.69724 0.0
C2781 C 0.98058 0.35985 0.68829 0.0
C2782 C 0.99981 0.38323 0.7045 0.0
C2783 C 0.99028 0.3893 0.70293 0.0
C2784 C 0.97614 0.38077 0.69336 0.0
H2785 H 0.99187 0.46814 0.7544 0.0
H2786 H 0.98718 0.44769 0.73027 0.0
C2787 C 0.97131 0.36621 0.68624 0.0
C2788 C 0.9948 0.40434 0.71181 0.0
H2789 H 0.98415 0.42177 0.74774 0.0
C2790 C 0.00761 0.41717 0.70381 0.0
C2791 C 0.98628 0.40604 0.72789 0.0
C2792 C 0.97286 0.39265 0.73788 0.0
C2793 C 0.01198 0.43169 0.7113 0.0
C2794 C 0.0034 0.43336 0.7273 0.0
C2795 C 0.99059 0.42051 0.73523 0.0
C2796 C 0.00798 0.44806 0.73742 0.0
C2797 C 0.02564 0.44512 0.70187 0.0
C2798 C 0.02153 0.45551 0.74871 0.0
C2799 C 0.02424 0.46721 0.76237 0.0
C2800 C 0.01341 0.47162 0.76506 0.0
C2801 C 1.00049 0.4651 0.7524 0.0
C2802 C 0.99775 0.45333 0.73876 0.0
H2803 H 0.02817 0.44255 0.68604 0.0
H2804 H 0.02398 0.45495 0.70089 0.0
H2805 H 0.03563 0.44828 0.71185 0.0
H2806 H 0.02947 0.4515 0.74825 0.0
H2807 H 0.03423 0.47199 0.7721 0.0
H2808 H 0.64151 0.64374 0.68756 0.0
H2809 H 0.61574 0.62639 0.69982 0.0
H2810 H 0.62192 0.58867 0.6873 0.0
H2811 H 0.64746 0.60582 0.67454 0.0
H2812 H 0.5939 0.5829 0.67532 0.0
H2813 H 0.60651 0.60574 0.75593 0.0
H2814 H 0.60998 0.6196 0.73646 0.0
H2815 H 0.62112 0.6106 0.73666 0.0
C2816 C 0.63737 0.63175 0.68737 0.0
C2817 C 0.64662 0.6262 0.68024 0.0
C2818 C 0.62266 0.62185 0.69445 0.0
C2819 C 0.617 0.60625 0.69483 0.0
C2820 C 0.62605 0.60066 0.68721 0.0
H2821 H 0.54141 0.52846 0.75142 0.0
H2822 H 0.56234 0.5447 0.72786 0.0
C2823 C 0.64069 0.61052 0.67997 0.0
C2824 C 0.60186 0.59571 0.70378 0.0
H2825 H 0.5812 0.58731 0.7487 0.0
C2826 C 0.59109 0.58387 0.69135 0.0
C2827 C 0.59827 0.59691 0.72476 0.0
C2828 C 0.60961 0.6088 0.73931 0.0
C2829 C 0.57677 0.57329 0.69932 0.0
C2830 C 0.57321 0.57458 0.72023 0.0
C2831 C 0.58393 0.58645 0.73258 0.0
C2832 C 0.55865 0.56359 0.73011 0.0
C2833 C 0.56552 0.5609 0.68534 0.0
C2834 C 0.54937 0.56865 0.7386 0.0
C2835 C 0.5375 0.55942 0.75197 0.0
C2836 C 0.53472 0.54498 0.75715 0.0
C2837 C 0.54321 0.53945 0.74738 0.0
C2838 C 0.55516 0.54874 0.73397 0.0
H2839 H 0.56865 0.56338 0.66862 0.0
H2840 H 0.56514 0.55023 0.68928 0.0
H2841 H 0.554 0.55915 0.68771 0.0
H2842 H 0.5519 0.58007 0.73587 0.0
H2843 H 0.53114 0.56394 0.75944 0.0
H2844 H 0.6973 0.72342 0.69307 0.0
H2845 H 0.69426 0.7453 0.68734 0.0
H2846 H 0.66739 0.72376 0.63275 0.0
H2847 H 0.66998 0.70186 0.63871 0.0
H2848 H 0.70395 0.76419 0.65589 0.0
H2849 H 0.64211 0.73861 0.65903 0.0
H2850 H 0.65142 0.72883 0.66824 0.0
H2851 H 0.64676 0.72823 0.64103 0.0
C2852 C 0.69051 0.72326 0.68008 0.0
C2853 C 0.68383 0.71087 0.66639 0.0
C2854 C 0.68879 0.73577 0.67681 0.0
C2855 C 0.68033 0.73609 0.65984 0.0
C2856 C 0.67355 0.72364 0.64634 0.0
H2857 H 0.69134 0.80005 0.57395 0.0
H2858 H 0.69493 0.78533 0.60043 0.0
C2859 C 0.67516 0.71113 0.64967 0.0
C2860 C 0.67968 0.74986 0.65486 0.0
H2861 H 0.65554 0.76088 0.63679 0.0
C2862 C 0.69332 0.76355 0.6522 0.0
C2863 C 0.66586 0.74929 0.65063 0.0
C2864 C 0.65073 0.73547 0.65514 0.0
C2865 C 0.69356 0.7762 0.64363 0.0
C2866 C 0.67984 0.77501 0.63699 0.0
C2867 C 0.66612 0.76178 0.64147 0.0
C2868 C 0.67954 0.78627 0.62282 0.0
C2869 C 0.70858 0.79058 0.64126 0.0
C2870 C 0.66972 0.79186 0.62646 0.0
C2871 C 0.6675 0.8002 0.61106 0.0
C2872 C 0.67497 0.80291 0.59177 0.0
C2873 C 0.68545 0.79811 0.5887 0.0
C2874 C 0.68762 0.7898 0.60396 0.0
H2875 H 0.71631 0.79186 0.65421 0.0
H2876 H 0.71404 0.79012 0.62652 0.0
H2877 H 0.70727 0.80063 0.64095 0.0
H2878 H 0.66327 0.78919 0.64082 0.0
H2879 H 0.65926 0.80366 0.61371 0.0
H2880 H 0.27142 0.98228 0.66473 0.0
H2881 H 0.25431 0.9566 0.65301 0.0
H2882 H 0.29208 0.94965 0.64463 0.0
H2883 H 0.30944 0.97547 0.65658 0.0
H2884 H 0.25477 0.94433 0.61433 0.0
H2885 H 0.26168 0.91255 0.67889 0.0
H2886 H 0.2676 0.93228 0.681 0.0
H2887 H 0.27897 0.92654 0.66676 0.0
C2888 C 0.27617 0.97533 0.66051 0.0
C2889 C 0.29187 0.981 0.66164 0.0
C2890 C 0.26632 0.96061 0.65382 0.0
C2891 C 0.27187 0.95112 0.64823 0.0
C2892 C 0.28752 0.95668 0.64927 0.0
H2893 H 0.23492 0.86493 0.58918 0.0
H2894 H 0.24932 0.88733 0.61084 0.0
C2895 C 0.29744 0.97149 0.65594 0.0
C2896 C 0.26125 0.93571 0.64031 0.0
H2897 H 0.24724 0.89828 0.64976 0.0
C2898 C 0.25303 0.93425 0.62216 0.0
C2899 C 0.25902 0.92259 0.65055 0.0
C2900 C 0.26717 0.92348 0.67048 0.0
C2901 C 0.24293 0.92007 0.61363 0.0
C2902 C 0.24068 0.9069 0.62384 0.0
C2903 C 0.24883 0.90835 0.6421 0.0
C2904 C 0.2309 0.89169 0.61468 0.0
C2905 C 0.23523 0.91935 0.5933 0.0
C2906 C 0.21547 0.88614 0.61072 0.0
C2907 C 0.20719 0.87327 0.59832 0.0
C2908 C 0.21424 0.86578 0.58985 0.0
C2909 C 0.22924 0.87053 0.59554 0.0
C2910 C 0.23748 0.88335 0.60786 0.0
H2911 H 0.24071 0.93041 0.58523 0.0
H2912 H 0.23532 0.91087 0.58265 0.0
H2913 H 0.22327 0.91599 0.59643 0.0
H2914 H 0.21008 0.89224 0.6162 0.0
H2915 H 0.19569 0.86991 0.59404 0.0
H2916 H 0.03049 0.33461 0.63065 0.0
H2917 H 0.05488 0.33707 0.62231 0.0
H2918 H 0.05314 0.31427 0.67944 0.0
H2919 H 0.02837 0.31131 0.68756 0.0
H2920 H 0.0817 0.35081 0.64138 0.0
H2921 H 0.06028 0.28929 0.63764 0.0
H2922 H 0.04779 0.2968 0.6394 0.0
H2923 H 0.05744 0.29592 0.6622 0.0
C2924 C 0.03528 0.33014 0.64149 0.0
C2925 C 0.02742 0.32265 0.65969 0.0
C2926 C 0.04927 0.33157 0.63672 0.0
C2927 C 0.05577 0.32563 0.65005 0.0
C2928 C 0.0482 0.31862 0.66863 0.0
H2929 H 0.14842 0.35037 0.61035 0.0
H2930 H 0.12807 0.34551 0.6352 0.0
C2931 C 0.03409 0.31703 0.67333 0.0
C2932 C 0.07033 0.32668 0.64404 0.0
H2933 H 0.08605 0.30547 0.63026 0.0
C2934 C 0.08273 0.34091 0.63917 0.0
C2935 C 0.07164 0.31374 0.64109 0.0
C2936 C 0.05857 0.29806 0.64517 0.0
C2937 C 0.09609 0.34253 0.6305 0.0
C2938 C 0.0973 0.32957 0.62719 0.0
C2939 C 0.08518 0.3154 0.633 0.0
C2940 C 0.10994 0.33022 0.61478 0.0
C2941 C 0.10834 0.35802 0.62372 0.0
C2942 C 0.10659 0.32233 0.59583 0.0
C2943 C 0.11814 0.32485 0.58194 0.0
C2944 C 0.1333 0.33534 0.58665 0.0
C2945 C 0.13682 0.34221 0.60639 0.0
C2946 C 0.12519 0.33961 0.62043 0.0
H2947 H 0.10438 0.36626 0.62374 0.0
H2948 H 0.11804 0.36221 0.63458 0.0
H2949 H 0.11244 0.35764 0.6078 0.0
H2950 H 0.09496 0.31495 0.59113 0.0
H2951 H 0.11515 0.31936 0.56685 0.0
H2952 H 0.26678 0.29198 0.68494 0.0
H2953 H 0.24944 0.30004 0.67284 0.0
H2954 H 0.28688 0.34004 0.64623 0.0
H2955 H 0.30442 0.33219 0.65855 0.0
H2956 H 0.26568 0.34529 0.66794 0.0
H2957 H 0.23746 0.29795 0.61154 0.0
H2958 H 0.23774 0.29239 0.63796 0.0
H2959 H 0.2552 0.30292 0.6238 0.0
C2960 C 0.27138 0.30251 0.67655 0.0
C2961 C 0.28702 0.31136 0.67256 0.0
C2962 C 0.26142 0.30708 0.6696 0.0
C2963 C 0.26684 0.32052 0.65837 0.0
C2964 C 0.28246 0.32959 0.65482 0.0
H2965 H 0.23342 0.3658 0.58486 0.0
H2966 H 0.2475 0.36 0.61007 0.0
C2967 C 0.29246 0.32506 0.66181 0.0
C2968 C 0.25617 0.32489 0.64978 0.0
H2969 H 0.2275 0.31401 0.61477 0.0
C2970 C 0.25728 0.33843 0.65638 0.0
C2971 C 0.24519 0.3159 0.63475 0.0
C2972 C 0.24385 0.30154 0.62642 0.0
C2973 C 0.24772 0.34326 0.64826 0.0
C2974 C 0.23694 0.33441 0.63292 0.0
C2975 C 0.23564 0.32072 0.62669 0.0
C2976 C 0.22791 0.33969 0.62149 0.0
C2977 C 0.24925 0.35777 0.65618 0.0
C2978 C 0.21211 0.33045 0.61986 0.0
C2979 C 0.20403 0.33376 0.60537 0.0
C2980 C 0.21167 0.34626 0.59214 0.0
C2981 C 0.22726 0.35613 0.59497 0.0
C2982 C 0.23531 0.35285 0.60945 0.0
H2983 H 0.25396 0.36038 0.67222 0.0
H2984 H 0.25715 0.36715 0.6459 0.0
H2985 H 0.23819 0.3573 0.65621 0.0
H2986 H 0.20617 0.32019 0.62892 0.0
H2987 H 0.19206 0.32587 0.60331 0.0
H2988 H 0.66236 0.96869 0.64533 0.0
H2989 H 0.65754 0.94314 0.64011 0.0
H2990 H 0.69541 0.95288 0.6795 0.0
H2991 H 0.70039 0.97861 0.68476 0.0
H2992 H 0.69636 0.9414 0.64073 0.0
H2993 H 0.64015 0.90558 0.67677 0.0
H2994 H 0.64049 0.91942 0.65953 0.0
H2995 H 0.65189 0.92539 0.68272 0.0
C2996 C 0.66953 0.96535 0.65318 0.0
C2997 C 0.68179 0.9757 0.66541 0.0
C2998 C 0.66667 0.95067 0.65033 0.0
C2999 C 0.67595 0.94601 0.65968 0.0
C3000 C 0.688 0.9562 0.67232 0.0
H3001 H 0.68116 0.86852 0.61109 0.0
H3002 H 0.6833 0.88668 0.63781 0.0
C3003 C 0.69083 0.97089 0.67529 0.0
C3004 C 0.67407 0.93113 0.65417 0.0
H3005 H 0.64756 0.89374 0.65034 0.0
C3006 C 0.68584 0.9309 0.64327 0.0
C3007 C 0.66032 0.91747 0.65749 0.0
C3008 C 0.64755 0.91693 0.66995 0.0
C3009 C 0.68385 0.91758 0.63422 0.0
C3010 C 0.6698 0.90402 0.63661 0.0
C3011 C 0.65833 0.9041 0.64856 0.0
C3012 C 0.66615 0.89036 0.62424 0.0
C3013 C 0.69644 0.91841 0.62089 0.0
C3014 C 0.65498 0.88553 0.60882 0.0
C3015 C 0.65359 0.87505 0.59384 0.0
C3016 C 0.66336 0.86922 0.594 0.0
C3017 C 0.67348 0.87285 0.61066 0.0
C3018 C 0.67484 0.88335 0.62575 0.0
H3019 H 0.70547 0.93021 0.61776 0.0
H3020 H 0.70166 0.91269 0.62902 0.0
H3021 H 0.69197 0.91264 0.60573 0.0
H3022 H 0.64807 0.89069 0.60741 0.0
H3023 H 0.64564 0.87235 0.58121 0.0
H3024 H 0.03076 0.69117 0.65444 0.0
H3025 H 0.05742 0.70674 0.64407 0.0
H3026 H 0.05535 0.74691 0.6558 0.0
H3027 H 0.02895 0.73161 0.66624 0.0
H3028 H 0.06909 0.72772 0.61172 0.0
H3029 H 0.09367 0.75579 0.68697 0.0
H3030 H 0.07518 0.73908 0.68505 0.0
H3031 H 0.07767 0.7573 0.67933 0.0
C3032 C 0.03601 0.70332 0.65492 0.0
C3033 C 0.02767 0.7101 0.66122 0.0
C3034 C 0.05126 0.7122 0.64904 0.0
C3035 C 0.05848 0.72801 0.64958 0.0
C3036 C 0.05016 0.73476 0.65577 0.0
H3037 H 0.13627 0.80532 0.60071 0.0
H3038 H 0.11503 0.78767 0.62271 0.0
C3039 C 0.03497 0.72594 0.66156 0.0
C3040 C 0.07439 0.73755 0.64236 0.0
H3041 H 0.10882 0.76727 0.65647 0.0
C3042 C 0.07786 0.73618 0.62159 0.0
C3043 C 0.08581 0.74866 0.65525 0.0
C3044 C 0.08296 0.75023 0.67795 0.0
C3045 C 0.09218 0.74607 0.61306 0.0
C3046 C 0.1035 0.75744 0.6258 0.0
C3047 C 0.10017 0.75854 0.64675 0.0
C3048 C 0.11842 0.76886 0.61705 0.0
C3049 C 0.0948 0.74472 0.59016 0.0
C3050 C 0.128 0.76443 0.60778 0.0
C3051 C 0.14013 0.77451 0.59527 0.0
C3052 C 0.14302 0.78924 0.59214 0.0
C3053 C 0.13445 0.79412 0.60323 0.0
C3054 C 0.12223 0.78399 0.61563 0.0
H3055 H 0.08403 0.73763 0.58167 0.0
H3056 H 0.10088 0.75599 0.58269 0.0
H3057 H 0.10186 0.73943 0.5884 0.0
H3058 H 0.12544 0.75288 0.60897 0.0
H3059 H 0.14645 0.77044 0.5866 0.0
H3060 H 0.9987 0.63696 0.71934 0.0
H3061 H 1.00108 0.61527 0.72829 0.0
H3062 H 0.97577 0.59193 0.67343 0.0
H3063 H 0.97295 0.61356 0.66466 0.0
H3064 H 0.96596 0.57364 0.70606 0.0
H3065 H 0.02817 0.60152 0.70451 0.0
H3066 H 0.02234 0.61149 0.72152 0.0
H3067 H 0.01824 0.61033 0.69405 0.0
C3068 C 0.99375 0.62729 0.70903 0.0
C3069 C 0.9857 0.62704 0.69121 0.0
C3070 C 0.99522 0.6149 0.7141 0.0
C3071 C 0.98892 0.60204 0.7013 0.0
C3072 C 0.98086 0.60175 0.68346 0.0
H3073 H 0.01406 0.53681 0.74468 0.0
H3074 H 0.00883 0.55125 0.71898 0.0
C3075 C 0.97927 0.61413 0.67845 0.0
C3076 C 0.99009 0.5887 0.70733 0.0
H3077 H 0.01517 0.57886 0.72539 0.0
C3078 C 0.97675 0.57472 0.70992 0.0
C3079 C 0.00416 0.58987 0.71183 0.0
C3080 C 0.01903 0.60408 0.70759 0.0
C3081 C 0.97704 0.56225 0.71828 0.0
C3082 C 0.99099 0.5639 0.72476 0.0
C3083 C 0.00441 0.57756 0.72075 0.0
C3084 C 0.99187 0.55242 0.73786 0.0
C3085 C 0.96232 0.54752 0.72032 0.0
C3086 C 0.98373 0.54777 0.75667 0.0
C3087 C 0.98656 0.5394 0.7711 0.0
C3088 C 0.99776 0.53564 0.76725 0.0
C3089 C 0.00522 0.53938 0.74789 0.0
C3090 C 0.00233 0.54775 0.73332 0.0
H3091 H 0.95441 0.5462 0.70761 0.0
H3092 H 0.9641 0.53774 0.71993 0.0
H3093 H 0.95682 0.5474 0.7353 0.0
H3094 H 0.97592 0.5515 0.76092 0.0
H3095 H 0.98074 0.53677 0.78599 0.0
H3096 H 0.35546 0.36779 0.70534 0.0
H3097 H 0.37548 0.3935 0.71294 0.0
H3098 H 0.40752 0.38589 0.67927 0.0
H3099 H 0.38739 0.36012 0.67121 0.0
H3100 H 0.40018 0.39991 0.736 0.0
H3101 H 0.41846 0.42774 0.65879 0.0
H3102 H 0.40078 0.41033 0.66258 0.0
H3103 H 0.41823 0.41023 0.66095 0.0
C3104 C 0.3667 0.37164 0.69922 0.0
C3105 C 0.36984 0.36187 0.68774 0.0
C3106 C 0.37814 0.38637 0.70356 0.0
C3107 C 0.393 0.3917 0.69655 0.0
C3108 C 0.39609 0.38215 0.68449 0.0
H3109 H 0.47646 0.46621 0.74446 0.0
H3110 H 0.45854 0.44589 0.72147 0.0
C3111 C 0.38459 0.36739 0.68 0.0
C3112 C 0.40536 0.40661 0.70388 0.0
H3113 H 0.4336 0.44136 0.68798 0.0
C3114 C 0.40741 0.40897 0.72546 0.0
C3115 C 0.41491 0.41841 0.69012 0.0
C3116 C 0.41295 0.41666 0.66682 0.0
C3117 C 0.41868 0.42274 0.73369 0.0
C3118 C 0.42811 0.43459 0.72 0.0
C3119 C 0.42628 0.43226 0.69839 0.0
C3120 C 0.43986 0.44936 0.72839 0.0
C3121 C 0.42051 0.4245 0.75706 0.0
C3122 C 0.43549 0.45855 0.73887 0.0
C3123 C 0.44569 0.47012 0.75192 0.0
C3124 C 0.46043 0.47275 0.75451 0.0
C3125 C 0.46525 0.46459 0.74234 0.0
C3126 C 0.455 0.45293 0.72933 0.0
H3127 H 0.41418 0.41352 0.76527 0.0
H3128 H 0.43263 0.42996 0.76141 0.0
H3129 H 0.41617 0.43183 0.76265 0.0
H3130 H 0.42384 0.45593 0.73837 0.0
H3131 H 0.44167 0.4761 0.76145 0.0
H3132 H 0.6434 0.002 0.68859 0.0
H3133 H 0.6175 0.9928 0.70064 0.0
H3134 H 0.62062 0.03426 0.68086 0.0
H3135 H 0.6464 0.04348 0.66852 0.0
H3136 H 0.60942 0.00617 0.73112 0.0
H3137 H 0.57953 0.00283 0.65774 0.0
H3138 H 0.59784 0.00426 0.6581 0.0
H3139 H 0.59633 0.02077 0.66183 0.0
C3140 C 0.63854 0.00911 0.68658 0.0
C3141 C 0.64702 0.0235 0.67761 0.0
C3142 C 0.62371 0.00381 0.69344 0.0
C3143 C 0.61703 0.01274 0.69134 0.0
C3144 C 0.62539 0.02702 0.68217 0.0
H3145 H 0.54244 0.01529 0.7477 0.0
H3146 H 0.56231 0.01824 0.72337 0.0
C3147 C 0.64021 0.03233 0.6753 0.0
C3148 C 0.60188 0.00772 0.70047 0.0
H3149 H 0.56656 0.00154 0.68952 0.0
C3150 C 0.59999 0.00495 0.72197 0.0
C3151 C 0.58964 0.00627 0.68852 0.0
C3152 C 0.59085 0.00855 0.66523 0.0
C3153 C 0.58635 1.00122 0.73199 0.0
C3154 C 0.57412 0.99989 0.7201 0.0
C3155 C 0.57592 0.00249 0.69854 0.0
C3156 C 0.55973 0.9965 0.73026 0.0
C3157 C 0.58534 0.99927 0.75538 0.0
C3158 C 0.55108 0.98292 0.74109 0.0
C3159 C 0.53981 0.98127 0.75498 0.0
C3160 C 0.53689 0.99308 0.75798 0.0
C3161 C 0.54439 0.00598 0.74544 0.0
C3162 C 0.55578 0.0077 0.73166 0.0
H3163 H 0.59667 0.00391 0.76261 0.0
H3164 H 0.57959 0.00488 0.76254 0.0
H3165 H 0.57863 0.98709 0.75915 0.0
H3166 H 0.55382 0.97407 0.73997 0.0
H3167 H 0.5342 0.97124 0.76457 0.0
loop_
_geom_bond_atom_site_label_1
_geom_bond_atom_site_label_2
_geom_bond_distance
_geom_bond_site_symmetry_2
_ccdc_geom_bond_type
C0 O1 1.306 1_556 S
C0 O3 1.160 . S
O1 C0 1.306 1_554 S
O1 Cd2 2.228 . S
Cd2 O1 2.228 . S
Cd2 O6 2.273 . S
Cd2 O10 2.277 1_554 S
O3 C0 1.160 . S
O3 Cd4 2.203 1_656 S
Cd4 O3 2.203 1_454 S
Cd4 O6 2.411 1_455 S
Cd4 O7 2.333 . S
Cd4 O8 2.352 . S
Cd4 O12 2.277 1_554 S
Cd4 O13 2.356 . S
C5 O10 1.209 1_455 S
C5 O12 1.226 . S
O6 Cd2 2.273 . S
O6 Cd4 2.411 1_655 S
O6 C9 1.320 1_655 S
O7 Cd4 2.333 . S
O7 C9 1.214 . S
O8 Cd4 2.352 . S
O8 C11 1.258 . S
C9 O6 1.320 1_455 S
C9 O7 1.214 . S
O10 Cd2 2.277 1_556 S
O10 C5 1.209 1_655 S
C11 O8 1.258 . S
C11 O13 1.282 . S
O12 Cd4 2.277 1_556 S
O12 C5 1.226 . S
O13 Cd4 2.356 . S
O13 C11 1.282 . S
C14 O15 1.306 . S
C14 O17 1.160 . S
O15 C14 1.306 . S
O15 Cd16 2.228 . S
Cd16 O15 2.228 . S
Cd16 O20 2.273 1_554 S
Cd16 O24 2.277 . S
O17 C14 1.160 . S
O17 Cd18 2.203 . S
Cd18 O17 2.203 . S
Cd18 O20 2.411 1_554 S
Cd18 O21 2.333 1_554 S
Cd18 O22 2.352 1_554 S
Cd18 O26 2.277 . S
Cd18 O27 2.356 . S
C19 O24 1.209 . S
C19 O26 1.226 . S
O20 Cd16 2.273 1_556 S
O20 Cd18 2.411 1_556 S
O20 C23 1.320 . S
O21 Cd18 2.333 1_556 S
O21 C23 1.214 . S
O22 Cd18 2.352 1_556 S
O22 C25 1.258 . S
C23 O20 1.320 . S
C23 O21 1.214 . S
O24 Cd16 2.277 . S
O24 C19 1.209 . S
C25 O22 1.258 . S
C25 O27 1.282 1_556 S
O26 Cd18 2.277 . S
O26 C19 1.226 . S
O27 Cd18 2.356 . S
O27 C25 1.282 1_554 S
C28 O29 1.306 . S
C28 O31 1.160 . S
O29 C28 1.306 . S
O29 Cd30 2.228 . S
Cd30 O29 2.228 . S
Cd30 O34 2.273 1_554 S
Cd30 O38 2.277 . S
O31 C28 1.160 . S
O31 Cd32 2.203 1_565 S
Cd32 O31 2.203 1_545 S
Cd32 O34 2.411 1_544 S
Cd32 O35 2.333 1_554 S
Cd32 O36 2.352 1_554 S
Cd32 O40 2.277 . S
Cd32 O41 2.356 . S
C33 O38 1.209 1_545 S
C33 O40 1.226 . S
O34 Cd30 2.273 1_556 S
O34 Cd32 2.411 1_566 S
O34 C37 1.320 1_565 S
O35 Cd32 2.333 1_556 S
O35 C37 1.214 . S
O36 Cd32 2.352 1_556 S
O36 C39 1.258 . S
C37 O34 1.320 1_545 S
C37 O35 1.214 . S
O38 Cd30 2.277 . S
O38 C33 1.209 1_565 S
C39 O36 1.258 . S
C39 O41 1.282 1_556 S
O40 Cd32 2.277 . S
O40 C33 1.226 . S
O41 Cd32 2.356 . S
O41 C39 1.282 1_554 S
C42 O43 1.306 1_556 S
C42 O45 1.160 . S
O43 C42 1.306 1_554 S
O43 Cd44 2.228 . S
Cd44 O43 2.228 . S
Cd44 O48 2.273 . S
Cd44 O52 2.277 1_554 S
O45 C42 1.160 . S
O45 Cd46 2.203 1_656 S
Cd46 O45 2.203 1_454 S
Cd46 O48 2.411 1_455 S
Cd46 O49 2.333 . S
Cd46 O50 2.352 . S
Cd46 O54 2.277 1_554 S
Cd46 O55 2.356 . S
C47 O52 1.209 1_455 S
C47 O54 1.226 . S
O48 Cd44 2.273 . S
O48 Cd46 2.411 1_655 S
O48 C51 1.320 1_655 S
O49 Cd46 2.333 . S
O49 C51 1.214 . S
O50 Cd46 2.352 . S
O50 C53 1.258 . S
C51 O48 1.320 1_455 S
C51 O49 1.214 . S
O52 Cd44 2.277 1_556 S
O52 C47 1.209 1_655 S
C53 O50 1.258 . S
C53 O55 1.282 . S
O54 Cd46 2.277 1_556 S
O54 C47 1.226 . S
O55 Cd46 2.356 . S
O55 C53 1.282 . S
C56 O57 1.306 . S
C56 O59 1.160 . S
O57 C56 1.306 . S
O57 Cd58 2.228 . S
Cd58 O57 2.228 . S
Cd58 O62 2.273 1_554 S
Cd58 O66 2.277 . S
O59 C56 1.160 . S
O59 Cd60 2.203 . S
Cd60 O59 2.203 . S
Cd60 O62 2.411 1_554 S
Cd60 O63 2.333 1_554 S
Cd60 O64 2.352 1_554 S
Cd60 O68 2.277 . S
Cd60 O69 2.356 . S
C61 O66 1.209 . S
C61 O68 1.226 . S
O62 Cd58 2.273 1_556 S
O62 Cd60 2.411 1_556 S
O62 C65 1.320 . S
O63 Cd60 2.333 1_556 S
O63 C65 1.214 . S
O64 Cd60 2.352 1_556 S
O64 C67 1.258 . S
C65 O62 1.320 . S
C65 O63 1.214 . S
O66 Cd58 2.277 . S
O66 C61 1.209 . S
C67 O64 1.258 . S
C67 O69 1.282 1_556 S
O68 Cd60 2.277 . S
O68 C61 1.226 . S
O69 Cd60 2.356 . S
O69 C67 1.282 1_554 S
C70 O71 1.306 1_556 S
C70 O73 1.160 . S
O71 C70 1.306 1_554 S
O71 Cd72 2.228 . S
Cd72 O71 2.228 . S
Cd72 O76 2.273 . S
Cd72 O80 2.277 1_554 S
O73 C70 1.160 . S
O73 Cd74 2.203 1_546 S
Cd74 O73 2.203 1_564 S
Cd74 O76 2.411 1_565 S
Cd74 O77 2.333 . S
Cd74 O78 2.352 . S
Cd74 O82 2.277 1_554 S
Cd74 O83 2.356 . S
C75 O80 1.177 1_565 S
C75 O82 1.270 . S
O76 Cd72 2.273 . S
O76 Cd74 2.411 1_545 S
O76 C79 1.343 . S
O77 Cd74 2.333 . S
O77 C79 1.165 1_565 S
O78 Cd74 2.352 . S
O78 C81 1.258 . S
C79 O76 1.343 . S
C79 O77 1.165 1_545 S
O80 Cd72 2.277 1_556 S
O80 C75 1.177 1_545 S
C81 O78 1.258 . S
C81 O83 1.282 . S
O82 Cd74 2.277 1_556 S
O82 C75 1.270 . S
O83 Cd74 2.356 . S
O83 C81 1.282 . S
C84 O85 1.306 . S
C84 O87 1.160 . S
O85 C84 1.306 . S
O85 Cd86 2.228 . S
Cd86 O85 2.228 . S
Cd86 O90 2.273 . S
Cd86 O94 2.277 . S
O87 C84 1.160 . S
O87 Cd88 2.203 . S
Cd88 O87 2.203 . S
Cd88 O90 2.411 . S
Cd88 O91 2.333 . S
Cd88 O92 2.352 . S
Cd88 O96 2.277 . S
Cd88 O97 2.356 . S
C89 O94 1.209 . S
C89 O96 1.226 . S
O90 Cd86 2.273 . S
O90 Cd88 2.411 . S
O90 C93 1.320 . S
O91 Cd88 2.333 . S
O91 C93 1.214 . S
O92 Cd88 2.352 . S
O92 C95 1.258 . S
C93 O90 1.320 . S
C93 O91 1.214 . S
O94 Cd86 2.277 . S
O94 C89 1.209 . S
C95 O92 1.258 . S
C95 O97 1.282 . S
O96 Cd88 2.277 . S
O96 C89 1.226 . S
O97 Cd88 2.356 . S
O97 C95 1.282 . S
C98 O99 1.306 . S
C98 O101 1.160 . S
O99 C98 1.306 . S
O99 Cd100 2.228 1_545 S
Cd100 O99 2.228 1_565 S
Cd100 O104 2.273 . S
Cd100 O108 2.277 . S
O101 C98 1.160 . S
O101 Cd102 2.203 1_545 S
Cd102 O101 2.203 1_565 S
Cd102 O104 2.411 . S
Cd102 O105 2.333 . S
Cd102 O106 2.352 . S
Cd102 O110 2.277 . S
Cd102 O111 2.356 . S
C103 O108 1.209 . S
C103 O110 1.226 . S
O104 Cd100 2.273 . S
O104 Cd102 2.411 . S
O104 C107 1.320 . S
O105 Cd102 2.333 . S
O105 C107 1.214 . S
O106 Cd102 2.352 . S
O106 C109 1.258 . S
C107 O104 1.320 . S
C107 O105 1.214 . S
O108 Cd100 2.277 . S
O108 C103 1.209 . S
C109 O106 1.258 . S
C109 O111 1.282 . S
O110 Cd102 2.277 . S
O110 C103 1.226 . S
O111 Cd102 2.356 . S
O111 C109 1.282 . S
C112 O113 1.269 1_655 S
C112 O115 1.160 1_655 S
O113 C112 1.269 1_455 S
O113 Cd114 2.281 . S
Cd114 O113 2.281 . S
Cd114 O118 2.273 . S
Cd114 O122 2.277 . S
O115 C112 1.160 1_455 S
O115 Cd116 2.203 . S
Cd116 O115 2.203 . S
Cd116 O118 2.411 . S
Cd116 O119 2.333 . S
Cd116 O120 2.352 . S
Cd116 O124 2.277 . S
Cd116 O125 2.356 . S
C117 O122 1.209 . S
C117 O124 1.226 . S
O118 Cd114 2.273 . S
O118 Cd116 2.411 . S
O118 C121 1.320 . S
O119 Cd116 2.333 . S
O119 C121 1.214 . S
O120 Cd116 2.352 . S
O120 C123 1.258 . S
C121 O118 1.320 . S
C121 O119 1.214 . S
O122 Cd114 2.277 . S
O122 C117 1.209 . S
C123 O120 1.258 . S
C123 O125 1.282 . S
O124 Cd116 2.277 . S
O124 C117 1.226 . S
O125 Cd116 2.356 . S
O125 C123 1.282 . S
C126 O127 1.306 . S
C126 O129 1.160 . S
O127 C126 1.306 . S
O127 Cd128 2.228 . S
Cd128 O127 2.228 . S
Cd128 O132 2.273 . S
Cd128 O136 2.277 . S
O129 C126 1.160 . S
O129 Cd130 2.203 . S
Cd130 O129 2.203 . S
Cd130 O132 2.411 . S
Cd130 O133 2.333 . S
Cd130 O134 2.352 1_565 S
Cd130 O138 2.277 . S
Cd130 O139 2.356 1_565 S
C131 O136 1.209 . S
C131 O138 1.226 . S
O132 Cd128 2.273 . S
O132 Cd130 2.411 . S
O132 C135 1.320 . S
O133 Cd130 2.333 . S
O133 C135 1.214 . S
O134 Cd130 2.352 1_545 S
O134 C137 1.258 . S
C135 O132 1.320 . S
C135 O133 1.214 . S
O136 Cd128 2.277 . S
O136 C131 1.209 . S
C137 O134 1.258 . S
C137 O139 1.282 . S
O138 Cd130 2.277 . S
O138 C131 1.226 . S
O139 Cd130 2.356 1_545 S
O139 C137 1.282 . S
C140 O141 1.306 . S
C140 O143 1.160 . S
O141 C140 1.306 . S
O141 Cd142 2.228 1_655 S
Cd142 O141 2.228 1_455 S
Cd142 O146 2.273 . S
Cd142 O150 2.277 . S
O143 C140 1.160 . S
O143 Cd144 2.203 1_655 S
Cd144 O143 2.203 1_455 S
Cd144 O146 2.411 . S
Cd144 O147 2.333 . S
Cd144 O148 2.352 . S
Cd144 O152 2.277 . S
Cd144 O153 2.356 . S
C145 O150 1.209 . S
C145 O152 1.226 . S
O146 Cd142 2.273 . S
O146 Cd144 2.411 . S
O146 C149 1.320 . S
O147 Cd144 2.333 . S
O147 C149 1.214 . S
O148 Cd144 2.352 . S
O148 C151 1.258 . S
C149 O146 1.320 . S
C149 O147 1.214 . S
O150 Cd142 2.277 . S
O150 C145 1.209 . S
C151 O148 1.258 . S
C151 O153 1.282 . S
O152 Cd144 2.277 . S
O152 C145 1.226 . S
O153 Cd144 2.356 . S
O153 C151 1.282 . S
C154 O155 1.306 . S
C154 O157 1.160 . S
O155 C154 1.306 . S
O155 Cd156 2.228 . S
Cd156 O155 2.228 . S
Cd156 O160 2.273 . S
Cd156 O164 2.277 . S
O157 C154 1.160 . S
O157 Cd158 2.203 . S
Cd158 O157 2.203 . S
Cd158 O160 2.411 . S
Cd158 O161 2.333 . S
Cd158 O162 2.352 . S
Cd158 O166 2.277 . S
Cd158 O167 2.356 . S
C159 O164 1.209 . S
C159 O166 1.226 . S
O160 Cd156 2.273 . S
O160 Cd158 2.411 . S
O160 C163 1.320 . S
O161 Cd158 2.333 . S
O161 C163 1.214 . S
O162 Cd158 2.352 . S
O162 C165 1.258 . S
C163 O160 1.320 . S
C163 O161 1.214 . S
O164 Cd156 2.277 . S
O164 C159 1.209 . S
C165 O162 1.258 . S
C165 O167 1.282 . S
O166 Cd158 2.277 . S
O166 C159 1.226 . S
O167 Cd158 2.356 . S
O167 C165 1.282 . S
C168 O169 1.306 . S
C168 O171 1.160 . S
O169 C168 1.306 . S
O169 Cd170 2.228 1_565 S
Cd170 O169 2.228 1_545 S
Cd170 O174 2.273 . S
Cd170 O178 2.277 . S
O171 C168 1.160 . S
O171 Cd172 2.182 1_565 S
Cd172 O171 2.182 1_545 S
Cd172 O174 2.411 . S
Cd172 O175 2.333 . S
Cd172 O176 2.352 . S
Cd172 O180 2.277 . S
Cd172 O181 2.356 . S
C173 O178 1.209 . S
C173 O180 1.226 . S
O174 Cd170 2.273 . S
O174 Cd172 2.411 . S
O174 C177 1.320 . S
O175 Cd172 2.333 . S
O175 C177 1.214 . S
O176 Cd172 2.352 . S
O176 C179 1.258 . S
C177 O174 1.320 . S
C177 O175 1.214 . S
O178 Cd170 2.277 . S
O178 C173 1.209 . S
C179 O176 1.258 . S
C179 O181 1.282 . S
O180 Cd172 2.277 . S
O180 C173 1.226 . S
O181 Cd172 2.356 . S
O181 C179 1.282 . S
C182 O183 1.306 . S
C182 O185 1.160 . S
O183 C182 1.306 . S
O183 Cd184 2.228 . S
Cd184 O183 2.228 . S
Cd184 O188 2.273 . S
Cd184 O192 2.277 . S
O185 C182 1.160 . S
O185 Cd186 2.203 . S
Cd186 O185 2.203 . S
Cd186 O188 2.411 . S
Cd186 O189 2.333 . S
Cd186 O190 2.352 1_655 S
Cd186 O194 2.277 . S
Cd186 O195 2.356 1_655 S
C187 O192 1.209 . S
C187 O194 1.226 . S
O188 Cd184 2.273 . S
O188 Cd186 2.411 . S
O188 C191 1.320 . S
O189 Cd186 2.333 . S
O189 C191 1.214 . S
O190 Cd186 2.352 1_455 S
O190 C193 1.258 . S
C191 O188 1.320 . S
C191 O189 1.214 . S
O192 Cd184 2.277 . S
O192 C187 1.209 . S
C193 O190 1.258 . S
C193 O195 1.282 . S
O194 Cd186 2.277 . S
O194 C187 1.226 . S
O195 Cd186 2.356 1_455 S
O195 C193 1.282 . S
C196 O197 1.306 . S
C196 O199 1.160 . S
O197 C196 1.306 . S
O197 Cd198 2.228 . S
Cd198 O197 2.228 . S
Cd198 O202 2.273 . S
Cd198 O206 2.277 . S
O199 C196 1.160 . S
O199 Cd200 2.203 . S
Cd200 O199 2.203 . S
Cd200 O202 2.411 . S
Cd200 O203 2.333 . S
Cd200 O204 2.352 . S
Cd200 O208 2.277 . S
Cd200 O209 2.356 . S
C201 O206 1.209 . S
C201 O208 1.226 . S
O202 Cd198 2.273 . S
O202 Cd200 2.411 . S
O202 C205 1.320 . S
O203 Cd200 2.333 . S
O203 C205 1.214 . S
O204 Cd200 2.352 . S
O204 C207 1.258 . S
C205 O202 1.320 . S
C205 O203 1.214 . S
O206 Cd198 2.277 . S
O206 C201 1.209 . S
C207 O204 1.258 . S
C207 O209 1.282 . S
O208 Cd200 2.277 . S
O208 C201 1.226 . S
O209 Cd200 2.356 . S
O209 C207 1.282 . S
C210 O211 1.306 . S
C210 O213 1.160 . S
O211 C210 1.306 . S
O211 Cd212 2.228 . S
Cd212 O211 2.228 . S
Cd212 O216 2.273 . S
Cd212 O220 2.277 . S
O213 C210 1.160 . S
O213 Cd214 2.203 . S
Cd214 O213 2.203 . S
Cd214 O216 2.411 . S
Cd214 O217 2.333 . S
Cd214 O218 2.352 . S
Cd214 O222 2.277 . S
Cd214 O223 2.356 . S
C215 O220 1.209 . S
C215 O222 1.226 . S
O216 Cd212 2.273 . S
O216 Cd214 2.411 . S
O216 C219 1.320 . S
O217 Cd214 2.333 . S
O217 C219 1.214 . S
O218 Cd214 2.352 . S
O218 C221 1.258 . S
C219 O216 1.320 . S
C219 O217 1.214 . S
O220 Cd212 2.277 . S
O220 C215 1.209 . S
C221 O218 1.258 . S
C221 O223 1.282 . S
O222 Cd214 2.277 . S
O222 C215 1.226 . S
O223 Cd214 2.356 . S
O223 C221 1.282 . S
C224 O225 1.306 . S
C224 O227 1.160 . S
O225 C224 1.306 . S
O225 Cd226 2.228 . S
Cd226 O225 2.228 . S
Cd226 O230 2.273 . S
Cd226 O234 2.277 . S
O227 C224 1.160 . S
O227 Cd228 2.203 . S
Cd228 O227 2.203 . S
Cd228 O230 2.411 . S
Cd228 O231 2.333 . S
Cd228 O232 2.352 1_545 S
Cd228 O236 2.277 . S
Cd228 O237 2.356 1_545 S
C229 O234 1.209 . S
C229 O236 1.226 . S
O230 Cd226 2.273 . S
O230 Cd228 2.411 . S
O230 C233 1.320 . S
O231 Cd228 2.333 . S
O231 C233 1.214 . S
O232 Cd228 2.352 1_565 S
O232 C235 1.258 . S
C233 O230 1.320 . S
C233 O231 1.214 . S
O234 Cd226 2.277 . S
O234 C229 1.209 . S
C235 O232 1.258 . S
C235 O237 1.282 . S
O236 Cd228 2.277 . S
O236 C229 1.226 . S
O237 Cd228 2.356 1_565 S
O237 C235 1.282 . S
C238 O239 1.306 . S
C238 O241 1.160 . S
O239 C238 1.306 . S
O239 Cd240 2.228 1_455 S
Cd240 O239 2.228 1_655 S
Cd240 O244 2.273 . S
Cd240 O248 2.277 . S
O241 C238 1.160 . S
O241 Cd242 2.203 1_455 S
Cd242 O241 2.203 1_655 S
Cd242 O244 2.411 . S
Cd242 O245 2.333 . S
Cd242 O246 2.352 . S
Cd242 O250 2.277 . S
Cd242 O251 2.356 . S
C243 O248 1.209 . S
C243 O250 1.226 . S
O244 Cd240 2.273 . S
O244 Cd242 2.411 . S
O244 C247 1.320 . S
O245 Cd242 2.333 . S
O245 C247 1.214 . S
O246 Cd242 2.352 . S
O246 C249 1.258 . S
C247 O244 1.320 . S
C247 O245 1.214 . S
O248 Cd240 2.277 . S
O248 C243 1.209 . S
C249 O246 1.258 . S
C249 O251 1.282 . S
O250 Cd242 2.277 . S
O250 C243 1.226 . S
O251 Cd242 2.356 . S
O251 C249 1.282 . S
H252 C258 0.930 . S
H253 C261 0.931 . S
H254 C263 0.931 . S
H255 C265 0.930 . S
H256 C267 0.930 . S
H257 C269 0.931 . S
C258 H252 0.930 . S
C258 C259 1.380 . S
C258 C260 1.394 . S
C259 C258 1.380 . S
C259 C263 1.382 . S
C260 C258 1.394 . S
C260 C261 1.400 . S
C261 H253 0.931 . S
C261 C260 1.400 . S
C261 C262 1.375 . S
C262 C261 1.375 . S
C262 C263 1.415 . S
C262 C264 1.501 . S
C263 H254 0.931 . S
C263 C259 1.382 . S
C263 C262 1.415 . S
C264 C262 1.501 . S
C264 C265 1.384 . S
C264 C269 1.408 . S
C265 H255 0.930 . S
C265 C264 1.384 . S
C265 C266 1.389 . S
C266 C265 1.389 . S
C266 C267 1.405 . S
C267 H256 0.930 . S
C267 C266 1.405 . S
C267 C268 1.364 . S
C268 C267 1.364 . S
C268 C269 1.400 . S
C269 H257 0.931 . S
C269 C264 1.408 . S
C269 C268 1.400 . S
H270 C276 0.930 . S
H271 C279 0.931 . S
H272 C281 0.931 . S
H273 C283 0.930 . S
H274 C285 0.930 . S
H275 C287 0.931 . S
C276 H270 0.930 . S
C276 C277 1.380 . S
C276 C278 1.394 . S
C277 C276 1.380 . S
C277 C281 1.382 . S
C278 C276 1.394 . S
C278 C279 1.400 . S
C279 H271 0.931 . S
C279 C278 1.400 . S
C279 C280 1.375 . S
C280 C279 1.375 . S
C280 C281 1.415 . S
C280 C282 1.501 . S
C281 H272 0.931 . S
C281 C277 1.382 . S
C281 C280 1.415 . S
C282 C280 1.501 . S
C282 C283 1.384 . S
C282 C287 1.408 . S
C283 H273 0.930 . S
C283 C282 1.384 . S
C283 C284 1.389 . S
C284 C283 1.389 . S
C284 C285 1.405 . S
C285 H274 0.930 . S
C285 C284 1.405 . S
C285 C286 1.364 . S
C286 C285 1.364 . S
C286 C287 1.400 . S
C287 H275 0.931 . S
C287 C282 1.408 . S
C287 C286 1.400 . S
H288 C294 0.930 . S
H289 C297 0.931 . S
H290 C299 0.931 . S
H291 C301 0.930 . S
H292 C303 0.930 . S
H293 C305 0.931 . S
C294 H288 0.930 . S
C294 C295 1.380 . S
C294 C296 1.394 . S
C295 C294 1.380 . S
C295 C299 1.382 . S
C296 C294 1.394 . S
C296 C297 1.400 . S
C297 H289 0.931 . S
C297 C296 1.400 . S
C297 C298 1.375 . S
C298 C297 1.375 . S
C298 C299 1.415 . S
C298 C300 1.501 . S
C299 H290 0.931 . S
C299 C295 1.382 . S
C299 C298 1.415 . S
C300 C298 1.501 . S
C300 C301 1.384 . S
C300 C305 1.408 . S
C301 H291 0.930 . S
C301 C300 1.384 . S
C301 C302 1.389 . S
C302 C301 1.389 . S
C302 C303 1.405 . S
C303 H292 0.930 . S
C303 C302 1.405 . S
C303 C304 1.364 . S
C304 C303 1.364 . S
C304 C305 1.400 . S
C305 H293 0.931 . S
C305 C300 1.408 . S
C305 C304 1.400 . S
H306 C312 0.930 . S
H307 C315 0.931 . S
H308 C317 0.931 . S
H309 C319 0.930 . S
H310 C321 0.930 . S
H311 C323 0.931 . S
C312 H306 0.930 . S
C312 C313 1.380 . S
C312 C314 1.394 . S
C313 C312 1.380 . S
C313 C317 1.382 . S
C314 C312 1.394 . S
C314 C315 1.400 . S
C315 H307 0.931 . S
C315 C314 1.400 . S
C315 C316 1.375 . S
C316 C315 1.375 . S
C316 C317 1.415 . S
C316 C318 1.501 . S
C317 H308 0.931 . S
C317 C313 1.382 . S
C317 C316 1.415 . S
C318 C316 1.501 . S
C318 C319 1.384 . S
C318 C323 1.408 . S
C319 H309 0.930 . S
C319 C318 1.384 . S
C319 C320 1.389 . S
C320 C319 1.389 . S
C320 C321 1.405 . S
C321 H310 0.930 . S
C321 C320 1.405 . S
C321 C322 1.364 . S
C322 C321 1.364 . S
C322 C323 1.400 . S
C323 H311 0.931 . S
C323 C318 1.408 . S
C323 C322 1.400 . S
H324 C330 0.930 . S
H325 C333 0.931 . S
H326 C335 0.931 . S
H327 C337 0.930 . S
H328 C339 0.930 . S
H329 C341 0.931 . S
C330 H324 0.930 . S
C330 C331 1.380 . S
C330 C332 1.394 . S
C331 C330 1.380 . S
C331 C335 1.382 . S
C332 C330 1.394 . S
C332 C333 1.400 . S
C333 H325 0.931 . S
C333 C332 1.400 . S
C333 C334 1.375 . S
C334 C333 1.375 . S
C334 C335 1.415 . S
C334 C336 1.501 . S
C335 H326 0.931 . S
C335 C331 1.382 . S
C335 C334 1.415 . S
C336 C334 1.501 . S
C336 C337 1.384 . S
C336 C341 1.408 . S
C337 H327 0.930 . S
C337 C336 1.384 . S
C337 C338 1.389 . S
C338 C337 1.389 . S
C338 C339 1.405 . S
C339 H328 0.930 . S
C339 C338 1.405 . S
C339 C340 1.364 . S
C340 C339 1.364 . S
C340 C341 1.400 . S
C341 H329 0.931 . S
C341 C336 1.408 . S
C341 C340 1.400 . S
H342 C348 0.930 . S
H343 C351 0.931 . S
H344 C353 0.931 . S
H345 C355 0.930 . S
H346 C357 0.930 . S
H347 C359 0.931 . S
C348 H342 0.930 . S
C348 C349 1.380 . S
C348 C350 1.394 . S
C349 C348 1.380 . S
C349 C353 1.382 . S
C350 C348 1.394 . S
C350 C351 1.400 . S
C351 H343 0.931 . S
C351 C350 1.400 . S
C351 C352 1.375 . S
C352 C351 1.375 . S
C352 C353 1.415 . S
C352 C354 1.501 . S
C353 H344 0.931 . S
C353 C349 1.382 . S
C353 C352 1.415 . S
C354 C352 1.501 . S
C354 C355 1.384 . S
C354 C359 1.408 . S
C355 H345 0.930 . S
C355 C354 1.384 . S
C355 C356 1.389 . S
C356 C355 1.389 . S
C356 C357 1.405 . S
C357 H346 0.930 . S
C357 C356 1.405 . S
C357 C358 1.364 . S
C358 C357 1.364 . S
C358 C359 1.400 . S
C359 H347 0.931 . S
C359 C354 1.408 . S
C359 C358 1.400 . S
H360 C366 0.930 . S
H361 C369 0.931 . S
H362 C371 0.931 . S
H363 C373 0.930 . S
H364 C375 0.930 . S
H365 C377 0.931 . S
C366 H360 0.930 . S
C366 C367 1.380 . S
C366 C368 1.394 . S
C367 C366 1.380 . S
C367 C371 1.382 . S
C368 C366 1.394 . S
C368 C369 1.400 . S
C369 H361 0.931 . S
C369 C368 1.400 . S
C369 C370 1.375 . S
C370 C369 1.375 . S
C370 C371 1.415 . S
C370 C372 1.501 . S
C371 H362 0.931 . S
C371 C367 1.382 . S
C371 C370 1.415 . S
C372 C370 1.501 . S
C372 C373 1.384 . S
C372 C377 1.408 . S
C373 H363 0.930 . S
C373 C372 1.384 . S
C373 C374 1.389 . S
C374 C373 1.389 . S
C374 C375 1.405 . S
C375 H364 0.930 . S
C375 C374 1.405 . S
C375 C376 1.364 . S
C376 C375 1.364 . S
C376 C377 1.400 . S
C377 H365 0.931 . S
C377 C372 1.408 . S
C377 C376 1.400 . S
H378 C384 0.930 . S
H379 C387 0.931 . S
H380 C389 0.931 . S
H381 C391 0.930 . S
H382 C393 0.930 . S
H383 C395 0.931 . S
C384 H378 0.930 . S
C384 C385 1.380 . S
C384 C386 1.394 . S
C385 C384 1.380 . S
C385 C389 1.382 . S
C386 C384 1.394 . S
C386 C387 1.400 . S
C387 H379 0.931 . S
C387 C386 1.400 . S
C387 C388 1.375 . S
C388 C387 1.375 . S
C388 C389 1.415 . S
C388 C390 1.501 . S
C389 H380 0.931 . S
C389 C385 1.382 . S
C389 C388 1.415 . S
C390 C388 1.501 . S
C390 C391 1.384 . S
C390 C395 1.408 . S
C391 H381 0.930 . S
C391 C390 1.384 . S
C391 C392 1.389 . S
C392 C391 1.389 . S
C392 C393 1.405 . S
C393 H382 0.930 . S
C393 C392 1.405 . S
C393 C394 1.364 . S
C394 C393 1.364 . S
C394 C395 1.400 . S
C395 H383 0.931 . S
C395 C390 1.408 . S
C395 C394 1.400 . S
H396 C402 0.930 . S
H397 C405 0.931 . S
H398 C407 0.931 . S
H399 C409 0.930 . S
H400 C411 0.930 . S
H401 C413 0.931 . S
C402 H396 0.930 . S
C402 C403 1.380 . S
C402 C404 1.394 . S
C403 C402 1.380 . S
C403 C407 1.382 . S
C404 C402 1.394 . S
C404 C405 1.400 . S
C405 H397 0.931 . S
C405 C404 1.400 . S
C405 C406 1.375 . S
C406 C405 1.375 . S
C406 C407 1.415 . S
C406 C408 1.501 . S
C407 H398 0.931 . S
C407 C403 1.382 . S
C407 C406 1.415 . S
C408 C406 1.501 . S
C408 C409 1.384 . S
C408 C413 1.408 . S
C409 H399 0.930 . S
C409 C408 1.384 . S
C409 C410 1.389 . S
C410 C409 1.389 . S
C410 C411 1.405 . S
C411 H400 0.930 . S
C411 C410 1.405 . S
C411 C412 1.364 . S
C412 C411 1.364 . S
C412 C413 1.400 . S
C413 H401 0.931 . S
C413 C408 1.408 . S
C413 C412 1.400 . S
H414 C420 0.967 . S
H415 C423 0.931 . S
H416 C425 0.931 . S
H417 C427 0.930 . S
H418 C429 0.892 . S
H419 C431 0.938 1_655 S
C420 H414 0.967 . S
C420 C421 1.382 . S
C420 C422 1.395 1_655 S
C421 C420 1.382 . S
C421 C425 1.382 . S
C422 C420 1.395 1_455 S
C422 C423 1.400 . S
C423 H415 0.931 . S
C423 C422 1.400 . S
C423 C424 1.375 . S
C424 C423 1.375 . S
C424 C425 1.415 1_455 S
C424 C426 1.501 . S
C425 H416 0.931 . S
C425 C421 1.382 . S
C425 C424 1.415 1_655 S
C426 C424 1.501 . S
C426 C427 1.384 . S
C426 C431 1.419 . S
C427 H417 0.930 . S
C427 C426 1.384 . S
C427 C428 1.389 . S
C428 C427 1.389 . S
C428 C429 1.429 . S
C429 H418 0.892 . S
C429 C428 1.429 . S
C429 C430 1.381 . S
C430 C429 1.381 . S
C430 C431 1.391 . S
C431 H419 0.938 1_455 S
C431 C426 1.419 . S
C431 C430 1.391 . S
H432 C438 0.930 . S
H433 C441 0.931 . S
H434 C443 0.931 . S
H435 C445 0.930 . S
H436 C447 0.930 . S
H437 C449 0.931 . S
C438 H432 0.930 . S
C438 C439 1.380 . S
C438 C440 1.394 . S
C439 C438 1.380 . S
C439 C443 1.382 . S
C440 C438 1.394 . S
C440 C441 1.400 . S
C441 H433 0.931 . S
C441 C440 1.400 . S
C441 C442 1.375 . S
C442 C441 1.375 . S
C442 C443 1.415 . S
C442 C444 1.501 . S
C443 H434 0.931 . S
C443 C439 1.382 . S
C443 C442 1.415 . S
C444 C442 1.501 . S
C444 C445 1.384 . S
C444 C449 1.408 . S
C445 H435 0.930 . S
C445 C444 1.384 . S
C445 C446 1.389 . S
C446 C445 1.389 . S
C446 C447 1.405 . S
C447 H436 0.930 . S
C447 C446 1.405 . S
C447 C448 1.364 . S
C448 C447 1.364 . S
C448 C449 1.400 . S
C449 H437 0.931 . S
C449 C444 1.408 . S
C449 C448 1.400 . S
H450 C456 0.956 . S
H451 C459 0.931 . S
H452 C461 0.931 . S
H453 C463 0.930 . S
H454 C465 0.930 . S
H455 C467 0.915 . S
C456 H450 0.956 . S
C456 C457 1.374 . S
C456 C458 1.376 1_545 S
C457 C456 1.374 . S
C457 C461 1.382 . S
C458 C456 1.376 1_565 S
C458 C459 1.400 . S
C459 H451 0.931 . S
C459 C458 1.400 . S
C459 C460 1.375 . S
C460 C459 1.375 . S
C460 C461 1.415 1_565 S
C460 C462 1.501 . S
C461 H452 0.931 . S
C461 C457 1.382 . S
C461 C460 1.415 1_545 S
C462 C460 1.501 . S
C462 C463 1.384 . S
C462 C467 1.398 . S
C463 H453 0.930 . S
C463 C462 1.384 . S
C463 C464 1.389 . S
C464 C463 1.389 . S
C464 C465 1.405 . S
C465 H454 0.930 . S
C465 C464 1.405 . S
C465 C466 1.379 . S
C466 C465 1.379 . S
C466 C467 1.402 . S
C467 H455 0.915 . S
C467 C462 1.398 . S
C467 C466 1.402 . S
H468 C474 0.919 . S
H469 C477 0.931 . S
H470 C479 0.928 1_545 S
H471 C481 0.930 . S
H472 C483 0.904 . S
H473 C485 0.931 . S
C474 H468 0.919 . S
C474 C475 1.381 . S
C474 C476 1.415 1_545 S
C475 C474 1.381 . S
C475 C479 1.396 1_545 S
C476 C474 1.415 1_565 S
C476 C477 1.370 . S
C477 H469 0.931 . S
C477 C476 1.370 . S
C477 C478 1.375 . S
C478 C477 1.375 . S
C478 C479 1.413 . S
C478 C480 1.501 . S
C479 H470 0.928 1_565 S
C479 C475 1.396 1_565 S
C479 C478 1.413 . S
C480 C478 1.501 . S
C480 C481 1.384 . S
C480 C485 1.408 1_565 S
C481 H471 0.930 . S
C481 C480 1.384 . S
C481 C482 1.389 . S
C482 C481 1.389 . S
C482 C483 1.427 . S
C483 H472 0.904 . S
C483 C482 1.427 . S
C483 C484 1.372 1_565 S
C484 C483 1.372 1_545 S
C484 C485 1.400 . S
C485 H473 0.931 . S
C485 C480 1.408 1_545 S
C485 C484 1.400 . S
H486 C492 0.959 . S
H487 C495 0.931 . S
H488 C497 0.933 1_655 S
H489 C499 0.930 . S
H490 C501 0.978 . S
H491 C503 0.931 . S
C492 H486 0.959 . S
C492 C493 1.378 . S
C492 C494 1.367 1_655 S
C493 C492 1.378 . S
C493 C497 1.361 1_655 S
C494 C492 1.367 1_455 S
C494 C495 1.428 . S
C495 H487 0.931 . S
C495 C494 1.428 . S
C495 C496 1.375 . S
C496 C495 1.375 . S
C496 C497 1.414 . S
C496 C498 1.501 . S
C497 H488 0.933 1_455 S
C497 C493 1.361 1_455 S
C497 C496 1.414 . S
C498 C496 1.501 . S
C498 C499 1.384 . S
C498 C503 1.408 1_455 S
C499 H489 0.930 . S
C499 C498 1.384 . S
C499 C500 1.389 . S
C500 C499 1.389 . S
C500 C501 1.396 . S
C501 H490 0.978 . S
C501 C500 1.396 . S
C501 C502 1.332 1_455 S
C502 C501 1.332 1_655 S
C502 C503 1.400 . S
C503 H491 0.931 . S
C503 C498 1.408 1_655 S
C503 C502 1.400 . S
H504 C510 0.930 . S
H505 C513 0.931 . S
H506 C515 0.931 . S
H507 C517 0.930 . S
H508 C519 0.930 . S
H509 C521 0.931 . S
C510 H504 0.930 . S
C510 C511 1.380 . S
C510 C512 1.394 . S
C511 C510 1.380 . S
C511 C515 1.382 . S
C512 C510 1.394 . S
C512 C513 1.400 . S
C513 H505 0.931 . S
C513 C512 1.400 . S
C513 C514 1.375 . S
C514 C513 1.375 . S
C514 C515 1.415 . S
C514 C516 1.501 . S
C515 H506 0.931 . S
C515 C511 1.382 . S
C515 C514 1.415 . S
C516 C514 1.501 . S
C516 C517 1.384 . S
C516 C521 1.408 . S
C517 H507 0.930 . S
C517 C516 1.384 . S
C517 C518 1.389 . S
C518 C517 1.389 . S
C518 C519 1.405 . S
C519 H508 0.930 . S
C519 C518 1.405 . S
C519 C520 1.364 . S
C520 C519 1.364 . S
C520 C521 1.400 . S
C521 H509 0.931 . S
C521 C516 1.408 . S
C521 C520 1.400 . S
H522 C528 0.930 . S
H523 C531 0.931 . S
H524 C533 0.931 . S
H525 C535 0.930 . S
H526 C537 0.930 . S
H527 C539 0.931 . S
C528 H522 0.930 . S
C528 C529 1.380 . S
C528 C530 1.394 . S
C529 C528 1.380 . S
C529 C533 1.382 . S
C530 C528 1.394 . S
C530 C531 1.400 . S
C531 H523 0.931 . S
C531 C530 1.400 . S
C531 C532 1.375 . S
C532 C531 1.375 . S
C532 C533 1.415 . S
C532 C534 1.501 . S
C533 H524 0.931 . S
C533 C529 1.382 . S
C533 C532 1.415 . S
C534 C532 1.501 . S
C534 C535 1.384 . S
C534 C539 1.408 . S
C535 H525 0.930 . S
C535 C534 1.384 . S
C535 C536 1.389 . S
C536 C535 1.389 . S
C536 C537 1.405 . S
C537 H526 0.930 . S
C537 C536 1.405 . S
C537 C538 1.364 . S
C538 C537 1.364 . S
C538 C539 1.400 . S
C539 H527 0.931 . S
C539 C534 1.408 . S
C539 C538 1.400 . S
H540 C546 0.930 . S
H541 C549 0.931 . S
H542 C551 0.931 . S
H543 C553 0.930 . S
H544 C555 0.930 . S
H545 C557 0.931 . S
C546 H540 0.930 . S
C546 C547 1.380 . S
C546 C548 1.394 . S
C547 C546 1.380 . S
C547 C551 1.382 . S
C548 C546 1.394 . S
C548 C549 1.400 . S
C549 H541 0.931 . S
C549 C548 1.400 . S
C549 C550 1.375 . S
C550 C549 1.375 . S
C550 C551 1.415 . S
C550 C552 1.501 . S
C551 H542 0.931 . S
C551 C547 1.382 . S
C551 C550 1.415 . S
C552 C550 1.501 . S
C552 C553 1.384 . S
C552 C557 1.408 . S
C553 H543 0.930 . S
C553 C552 1.384 . S
C553 C554 1.389 . S
C554 C553 1.389 . S
C554 C555 1.405 . S
C555 H544 0.930 . S
C555 C554 1.405 . S
C555 C556 1.364 . S
C556 C555 1.364 . S
C556 C557 1.400 . S
C557 H545 0.931 . S
C557 C552 1.408 . S
C557 C556 1.400 . S
H558 C564 0.930 . S
H559 C567 0.931 . S
H560 C569 0.931 . S
H561 C571 0.930 . S
H562 C573 0.930 . S
H563 C575 0.931 . S
C564 H558 0.930 . S
C564 C565 1.380 . S
C564 C566 1.394 . S
C565 C564 1.380 . S
C565 C569 1.382 . S
C566 C564 1.394 . S
C566 C567 1.400 . S
C567 H559 0.931 . S
C567 C566 1.400 . S
C567 C568 1.375 . S
C568 C567 1.375 . S
C568 C569 1.415 . S
C568 C570 1.501 . S
C569 H560 0.931 . S
C569 C565 1.382 . S
C569 C568 1.415 . S
C570 C568 1.501 . S
C570 C571 1.384 . S
C570 C575 1.408 . S
C571 H561 0.930 . S
C571 C570 1.384 . S
C571 C572 1.389 . S
C572 C571 1.389 . S
C572 C573 1.405 . S
C573 H562 0.930 . S
C573 C572 1.405 . S
C573 C574 1.364 . S
C574 C573 1.364 . S
C574 C575 1.400 . S
C575 H563 0.931 . S
C575 C570 1.408 . S
C575 C574 1.400 . S
H576 C584 0.929 . S
H577 C586 0.930 . S
H578 C588 0.930 . S
H579 C591 0.929 . S
H580 C594 0.930 . S
H581 C596 0.929 . S
H582 C596 0.960 . S
H583 C596 0.960 1_455 S
C584 H576 0.929 . S
C584 C585 1.428 . S
C584 C586 1.384 . S
C585 C584 1.428 . S
C585 C591 1.370 1_655 S
C586 H577 0.930 . S
C586 C584 1.384 . S
C586 C587 1.372 . S
C587 C586 1.372 . S
C587 C588 1.400 1_655 S
C587 C592 1.490 . S
C588 H578 0.930 . S
C588 C587 1.400 1_455 S
C588 C591 1.386 . S
H589 C605 0.930 . S
H590 C606 0.931 . S
C591 H579 0.929 . S
C591 C585 1.370 1_455 S
C591 C588 1.386 . S
C592 C587 1.490 . S
C592 C594 1.395 . S
C592 C595 1.403 . S
H593 C599 0.930 . S
C594 H580 0.930 . S
C594 C592 1.395 . S
C594 C597 1.403 . S
C595 C592 1.403 . S
C595 C596 1.524 . S
C595 C599 1.400 . S
C596 H581 0.929 . S
C596 H582 0.960 . S
C596 H583 0.960 1_655 S
C596 C595 1.524 . S
C597 C594 1.403 . S
C597 C598 1.392 . S
C597 C601 1.495 . S
C598 C597 1.392 . S
C598 C599 1.385 . S
C598 C600 1.478 . S
C599 H593 0.930 . S
C599 C595 1.400 . S
C599 C598 1.385 . S
C600 C598 1.478 . S
C600 C602 1.381 . S
C600 C606 1.383 1_655 S
C601 C597 1.495 . S
C601 H607 0.959 . S
C601 H608 0.961 1_655 S
C601 H609 0.960 . S
C602 C600 1.381 . S
C602 C603 1.394 . S
C602 H610 0.930 . S
C603 C602 1.394 . S
C603 C604 1.383 . S
C603 H611 0.929 . S
C604 C603 1.383 . S
C604 C605 1.377 1_655 S
C605 H589 0.930 . S
C605 C604 1.377 1_455 S
C605 C606 1.379 . S
C606 H590 0.931 . S
C606 C600 1.383 1_455 S
C606 C605 1.379 . S
H607 C601 0.959 . S
H608 C601 0.961 1_455 S
H609 C601 0.960 . S
H610 C602 0.930 . S
H611 C603 0.929 . S
H612 C620 0.929 . S
H613 C622 0.930 . S
H614 C624 0.930 . S
H615 C627 0.929 . S
H616 C630 0.930 . S
H617 C632 0.960 . S
H618 C632 0.960 . S
H619 C632 0.960 . S
C620 H612 0.929 . S
C620 C621 1.377 . S
C620 C622 1.384 . S
C621 C620 1.377 . S
C621 C627 1.390 . S
C622 H613 0.930 . S
C622 C620 1.384 . S
C622 C623 1.372 . S
C623 C622 1.372 . S
C623 C624 1.400 . S
C623 C628 1.490 . S
C624 H614 0.930 . S
C624 C623 1.400 . S
C624 C627 1.386 . S
H625 C641 0.930 . S
H626 C642 0.931 . S
C627 H615 0.929 . S
C627 C621 1.390 . S
C627 C624 1.386 . S
C628 C623 1.490 . S
C628 C630 1.395 . S
C628 C631 1.403 . S
H629 C635 0.930 . S
C630 H616 0.930 . S
C630 C628 1.395 . S
C630 C633 1.403 . S
C631 C628 1.403 . S
C631 C632 1.524 . S
C631 C635 1.400 . S
C632 H617 0.960 . S
C632 H618 0.960 . S
C632 H619 0.960 . S
C632 C631 1.524 . S
C633 C630 1.403 . S
C633 C634 1.392 . S
C633 C637 1.495 . S
C634 C633 1.392 . S
C634 C635 1.385 . S
C634 C636 1.478 . S
C635 H629 0.930 . S
C635 C631 1.400 . S
C635 C634 1.385 . S
C636 C634 1.478 . S
C636 C638 1.381 . S
C636 C642 1.383 . S
C637 C633 1.495 . S
C637 H643 0.959 . S
C637 H644 0.961 . S
C637 H645 0.960 . S
C638 C636 1.381 . S
C638 C639 1.394 . S
C638 H646 0.930 . S
C639 C638 1.394 . S
C639 C640 1.383 . S
C639 H647 0.929 . S
C640 C639 1.383 . S
C640 C641 1.377 . S
C641 H625 0.930 . S
C641 C640 1.377 . S
C641 C642 1.379 . S
C642 H626 0.931 . S
C642 C636 1.383 . S
C642 C641 1.379 . S
H643 C637 0.959 . S
H644 C637 0.961 . S
H645 C637 0.960 . S
H646 C638 0.930 . S
H647 C639 0.929 . S
H648 C656 0.929 . S
H649 C658 0.930 . S
H650 C660 0.930 . S
H651 C663 0.929 . S
H652 C666 0.932 . S
H653 C668 0.960 . S
H654 C668 0.960 . S
H655 C668 0.960 . S
C656 H648 0.929 . S
C656 C657 1.377 1_565 S
C656 C658 1.384 . S
C657 C656 1.377 1_545 S
C657 C663 1.390 . S
C658 H649 0.930 . S
C658 C656 1.384 . S
C658 C659 1.372 1_565 S
C659 C658 1.372 1_545 S
C659 C660 1.400 . S
C659 C664 1.490 . S
C660 H650 0.930 . S
C660 C659 1.400 . S
C660 C663 1.386 . S
H661 C677 0.930 . S
H662 C678 0.931 . S
C663 H651 0.929 . S
C663 C657 1.390 . S
C663 C660 1.386 . S
C664 C659 1.490 . S
C664 C666 1.390 1_545 S
C664 C667 1.403 . S
H665 C671 0.930 . S
C666 H652 0.932 . S
C666 C664 1.390 1_565 S
C666 C669 1.391 . S
C667 C664 1.403 . S
C667 C668 1.524 . S
C667 C671 1.400 . S
C668 H653 0.960 . S
C668 H654 0.960 . S
C668 H655 0.960 . S
C668 C667 1.524 . S
C669 C666 1.391 . S
C669 C670 1.385 1_565 S
C669 C673 1.518 . S
C670 C669 1.385 1_545 S
C670 C671 1.385 . S
C670 C672 1.478 . S
C671 H665 0.930 . S
C671 C667 1.400 . S
C671 C670 1.385 . S
C672 C670 1.478 . S
C672 C674 1.381 1_545 S
C672 C678 1.383 . S
C673 C669 1.518 . S
C673 H679 0.959 . S
C673 H680 0.961 1_565 S
C673 H681 0.960 . S
C674 C672 1.381 1_565 S
C674 C675 1.394 . S
C674 H682 0.930 . S
C675 C674 1.394 . S
C675 C676 1.383 1_565 S
C675 H683 0.929 . S
C676 C675 1.383 1_545 S
C676 C677 1.377 . S
C677 H661 0.930 . S
C677 C676 1.377 . S
C677 C678 1.379 . S
C678 H662 0.931 . S
C678 C672 1.383 . S
C678 C677 1.379 . S
H679 C673 0.959 . S
H680 C673 0.961 1_545 S
H681 C673 0.960 . S
H682 C674 0.930 . S
H683 C675 0.929 . S
H684 C692 0.929 . S
H685 C694 0.930 . S
H686 C696 0.930 . S
H687 C699 0.929 . S
H688 C702 0.930 . S
H689 C704 0.960 . S
H690 C704 0.960 . S
H691 C704 0.960 1_565 S
C692 H684 0.929 . S
C692 C693 1.394 . S
C692 C694 1.384 . S
C693 C692 1.394 . S
C693 C699 1.348 1_545 S
C694 H685 0.930 . S
C694 C692 1.384 . S
C694 C695 1.389 . S
C695 C694 1.389 . S
C695 C696 1.394 1_545 S
C695 C700 1.475 1_545 S
C696 H686 0.930 . S
C696 C695 1.394 1_565 S
C696 C699 1.386 . S
H697 C713 0.930 . S
H698 C714 0.931 . S
C699 H687 0.929 . S
C699 C693 1.348 1_565 S
C699 C696 1.386 . S
C700 C695 1.475 1_565 S
C700 C702 1.400 . S
C700 C703 1.394 1_565 S
H701 C707 0.927 . S
C702 H688 0.930 . S
C702 C700 1.400 . S
C702 C705 1.403 . S
C703 C700 1.394 1_545 S
C703 C704 1.578 . S
C703 C707 1.356 . S
C704 H689 0.960 . S
C704 H690 0.960 . S
C704 H691 0.960 1_545 S
C704 C703 1.578 . S
C705 C702 1.403 . S
C705 C706 1.392 . S
C705 C709 1.495 . S
C706 C705 1.392 . S
C706 C707 1.390 1_565 S
C706 C708 1.478 . S
C707 H701 0.927 . S
C707 C703 1.356 . S
C707 C706 1.390 1_545 S
C708 C706 1.478 . S
C708 C710 1.381 1_565 S
C708 C714 1.383 . S
C709 C705 1.495 . S
C709 H715 0.959 . S
C709 H716 0.961 . S
C709 H717 0.960 1_565 S
C710 C708 1.381 1_545 S
C710 C711 1.394 . S
C710 H718 0.930 . S
C711 C710 1.394 . S
C711 C712 1.383 1_545 S
C711 H719 0.929 . S
C712 C711 1.383 1_565 S
C712 C713 1.377 . S
C713 H697 0.930 . S
C713 C712 1.377 . S
C713 C714 1.379 . S
C714 H698 0.931 . S
C714 C708 1.383 . S
C714 C713 1.379 . S
H715 C709 0.959 . S
H716 C709 0.961 . S
H717 C709 0.960 1_545 S
H718 C710 0.930 . S
H719 C711 0.929 . S
H720 C728 0.929 . S
H721 C730 0.930 . S
H722 C732 0.930 . S
H723 C735 0.929 . S
H724 C738 0.930 . S
H725 C740 0.960 . S
H726 C740 0.960 . S
H727 C740 0.960 . S
C728 H720 0.929 . S
C728 C729 1.377 1_655 S
C728 C730 1.384 . S
C729 C728 1.377 1_455 S
C729 C735 1.390 . S
C730 H721 0.930 . S
C730 C728 1.384 . S
C730 C731 1.372 1_655 S
C731 C730 1.372 1_455 S
C731 C732 1.400 . S
C731 C736 1.490 . S
C732 H722 0.930 . S
C732 C731 1.400 . S
C732 C735 1.386 . S
H733 C749 0.930 . S
H734 C750 0.931 . S
C735 H723 0.929 . S
C735 C729 1.390 . S
C735 C732 1.386 . S
C736 C731 1.490 . S
C736 C738 1.395 1_455 S
C736 C739 1.403 . S
H737 C743 0.930 . S
C738 H724 0.930 . S
C738 C736 1.395 1_655 S
C738 C741 1.403 . S
C739 C736 1.403 . S
C739 C740 1.524 . S
C739 C743 1.400 . S
C740 H725 0.960 . S
C740 H726 0.960 . S
C740 H727 0.960 . S
C740 C739 1.524 . S
C741 C738 1.403 . S
C741 C742 1.350 1_655 S
C741 C745 1.495 . S
C742 C741 1.350 1_455 S
C742 C743 1.464 . S
C742 C744 1.448 . S
C743 H737 0.930 . S
C743 C739 1.400 . S
C743 C742 1.464 . S
C744 C742 1.448 . S
C744 C746 1.381 1_455 S
C744 C750 1.383 . S
C745 C741 1.495 . S
C745 H751 0.959 . S
C745 H752 0.961 . S
C745 H753 0.960 . S
C746 C744 1.381 1_655 S
C746 C747 1.394 . S
C746 H754 0.930 . S
C747 C746 1.394 . S
C747 C748 1.383 1_655 S
C747 H755 0.929 . S
C748 C747 1.383 1_455 S
C748 C749 1.377 . S
C749 H733 0.930 . S
C749 C748 1.377 . S
C749 C750 1.379 . S
C750 H734 0.931 . S
C750 C744 1.383 . S
C750 C749 1.379 . S
H751 C745 0.959 . S
H752 C745 0.961 . S
H753 C745 0.960 . S
H754 C746 0.930 . S
H755 C747 0.929 . S
H756 C764 0.929 . S
H757 C766 0.930 . S
H758 C768 0.930 . S
H759 C771 0.929 . S
H760 C774 0.930 . S
H761 C776 0.960 . S
H762 C776 0.960 . S
H763 C776 0.960 . S
C764 H756 0.929 . S
C764 C765 1.377 . S
C764 C766 1.384 . S
C765 C764 1.377 . S
C765 C771 1.390 . S
C766 H757 0.930 . S
C766 C764 1.384 . S
C766 C767 1.372 . S
C767 C766 1.372 . S
C767 C768 1.400 . S
C767 C772 1.490 . S
C768 H758 0.930 . S
C768 C767 1.400 . S
C768 C771 1.386 . S
H769 C785 0.930 . S
H770 C786 0.931 . S
C771 H759 0.929 . S
C771 C765 1.390 . S
C771 C768 1.386 . S
C772 C767 1.490 . S
C772 C774 1.395 . S
C772 C775 1.403 . S
H773 C779 0.930 . S
C774 H760 0.930 . S
C774 C772 1.395 . S
C774 C777 1.403 . S
C775 C772 1.403 . S
C775 C776 1.524 . S
C775 C779 1.400 . S
C776 H761 0.960 . S
C776 H762 0.960 . S
C776 H763 0.960 . S
C776 C775 1.524 . S
C777 C774 1.403 . S
C777 C778 1.392 . S
C777 C781 1.495 . S
C778 C777 1.392 . S
C778 C779 1.385 . S
C778 C780 1.478 . S
C779 H773 0.930 . S
C779 C775 1.400 . S
C779 C778 1.385 . S
C780 C778 1.478 . S
C780 C782 1.381 . S
C780 C786 1.383 . S
C781 C777 1.495 . S
C781 H787 0.959 . S
C781 H788 0.961 . S
C781 H789 0.960 . S
C782 C780 1.381 . S
C782 C783 1.394 . S
C782 H790 0.930 . S
C783 C782 1.394 . S
C783 C784 1.383 . S
C783 H791 0.929 . S
C784 C783 1.383 . S
C784 C785 1.377 . S
C785 H769 0.930 . S
C785 C784 1.377 . S
C785 C786 1.379 . S
C786 H770 0.931 . S
C786 C780 1.383 . S
C786 C785 1.379 . S
H787 C781 0.959 . S
H788 C781 0.961 . S
H789 C781 0.960 . S
H790 C782 0.930 . S
H791 C783 0.929 . S
H792 C800 0.929 . S
H793 C802 0.930 . S
H794 C804 0.930 . S
H795 C807 0.929 . S
H796 C810 0.930 . S
H797 C812 0.960 . S
H798 C812 0.960 . S
H799 C812 0.966 . S
C800 H792 0.929 . S
C800 C801 1.377 1_655 S
C800 C802 1.384 . S
C801 C800 1.377 1_455 S
C801 C807 1.390 . S
C802 H793 0.930 . S
C802 C800 1.384 . S
C802 C803 1.372 1_655 S
C803 C802 1.372 1_455 S
C803 C804 1.400 . S
C803 C808 1.490 . S
C804 H794 0.930 . S
C804 C803 1.400 . S
C804 C807 1.386 . S
H805 C821 0.930 . S
H806 C822 0.931 . S
C807 H795 0.929 . S
C807 C801 1.390 . S
C807 C804 1.386 . S
C808 C803 1.490 . S
C808 C810 1.395 . S
C808 C811 1.403 1_455 S
H809 C815 0.930 . S
C810 H796 0.930 . S
C810 C808 1.395 . S
C810 C813 1.403 . S
C811 C808 1.403 1_655 S
C811 C812 1.524 . S
C811 C815 1.400 . S
C812 H797 0.960 . S
C812 H798 0.960 . S
C812 H799 0.966 . S
C812 C811 1.524 . S
C813 C810 1.403 . S
C813 C814 1.392 . S
C813 C817 1.495 . S
C814 C813 1.392 . S
C814 C815 1.385 1_455 S
C814 C816 1.478 . S
C815 H809 0.930 . S
C815 C811 1.400 . S
C815 C814 1.385 1_655 S
C816 C814 1.478 . S
C816 C818 1.381 1_455 S
C816 C822 1.383 . S
C817 C813 1.495 . S
C817 H823 0.959 . S
C817 H824 0.961 . S
C817 H825 0.960 . S
C818 C816 1.381 1_655 S
C818 C819 1.394 . S
C818 H826 0.930 . S
C819 C818 1.394 . S
C819 C820 1.391 1_655 S
C819 H827 0.929 . S
C820 C819 1.391 1_455 S
C820 C821 1.372 . S
C821 H805 0.930 . S
C821 C820 1.372 . S
C821 C822 1.379 . S
C822 H806 0.931 . S
C822 C816 1.383 . S
C822 C821 1.379 . S
H823 C817 0.959 . S
H824 C817 0.961 . S
H825 C817 0.960 . S
H826 C818 0.930 . S
H827 C819 0.929 . S
H828 C836 0.929 . S
H829 C838 0.930 . S
H830 C840 0.930 . S
H831 C843 0.929 . S
H832 C846 0.930 . S
H833 C848 0.960 . S
H834 C848 0.960 . S
H835 C848 0.960 . S
C836 H828 0.929 . S
C836 C837 1.377 . S
C836 C838 1.384 . S
C837 C836 1.377 . S
C837 C843 1.390 . S
C838 H829 0.930 . S
C838 C836 1.384 . S
C838 C839 1.372 . S
C839 C838 1.372 . S
C839 C840 1.400 . S
C839 C844 1.490 . S
C840 H830 0.930 . S
C840 C839 1.400 . S
C840 C843 1.386 . S
H841 C857 0.930 . S
H842 C858 0.931 . S
C843 H831 0.929 . S
C843 C837 1.390 . S
C843 C840 1.386 . S
C844 C839 1.490 . S
C844 C846 1.395 . S
C844 C847 1.403 . S
H845 C851 0.930 . S
C846 H832 0.930 . S
C846 C844 1.395 . S
C846 C849 1.403 . S
C847 C844 1.403 . S
C847 C848 1.524 . S
C847 C851 1.400 . S
C848 H833 0.960 . S
C848 H834 0.960 . S
C848 H835 0.960 . S
C848 C847 1.524 . S
C849 C846 1.403 . S
C849 C850 1.392 . S
C849 C853 1.495 . S
C850 C849 1.392 . S
C850 C851 1.385 . S
C850 C852 1.478 . S
C851 H845 0.930 . S
C851 C847 1.400 . S
C851 C850 1.385 . S
C852 C850 1.478 . S
C852 C854 1.381 . S
C852 C858 1.383 . S
C853 C849 1.495 . S
C853 H859 0.959 . S
C853 H860 0.961 . S
C853 H861 0.960 . S
C854 C852 1.381 . S
C854 C855 1.394 . S
C854 H862 0.930 . S
C855 C854 1.394 . S
C855 C856 1.383 . S
C855 H863 0.929 . S
C856 C855 1.383 . S
C856 C857 1.377 . S
C857 H841 0.930 . S
C857 C856 1.377 . S
C857 C858 1.379 . S
C858 H842 0.931 . S
C858 C852 1.383 . S
C858 C857 1.379 . S
H859 C853 0.959 . S
H860 C853 0.961 . S
H861 C853 0.960 . S
H862 C854 0.930 . S
H863 C855 0.929 . S
H864 C872 0.929 . S
H865 C874 0.930 . S
H866 C876 0.930 . S
H867 C879 0.929 . S
H868 C882 0.930 . S
H869 C884 0.960 . S
H870 C884 1.014 . S
H871 C884 0.960 . S
C872 H864 0.929 . S
C872 C873 1.377 . S
C872 C874 1.384 . S
C873 C872 1.377 . S
C873 C879 1.390 1_565 S
C874 H865 0.930 . S
C874 C872 1.384 . S
C874 C875 1.372 . S
C875 C874 1.372 . S
C875 C876 1.400 1_565 S
C875 C880 1.490 . S
C876 H866 0.930 . S
C876 C875 1.400 1_545 S
C876 C879 1.386 . S
H877 C893 0.930 . S
H878 C894 0.931 . S
C879 H867 0.929 . S
C879 C873 1.390 1_545 S
C879 C876 1.386 . S
C880 C875 1.490 . S
C880 C882 1.395 . S
C880 C883 1.403 1_565 S
H881 C887 0.930 . S
C882 H868 0.930 . S
C882 C880 1.395 . S
C882 C885 1.403 . S
C883 C880 1.403 1_545 S
C883 C884 1.524 . S
C883 C887 1.400 . S
C884 H869 0.960 . S
C884 H870 1.014 . S
C884 H871 0.960 . S
C884 C883 1.524 . S
C885 C882 1.403 . S
C885 C886 1.392 . S
C885 C889 1.495 . S
C886 C885 1.392 . S
C886 C887 1.385 1_565 S
C886 C888 1.478 . S
C887 H881 0.930 . S
C887 C883 1.400 . S
C887 C886 1.385 1_545 S
C888 C886 1.478 . S
C888 C890 1.381 . S
C888 C894 1.383 1_565 S
C889 C885 1.495 . S
C889 H895 0.959 . S
C889 H896 0.961 . S
C889 H897 0.960 . S
C890 C888 1.381 . S
C890 C891 1.394 . S
C890 H898 0.930 . S
C891 C890 1.394 . S
C891 C892 1.383 1_565 S
C891 H899 0.929 . S
C892 C891 1.383 1_545 S
C892 C893 1.377 . S
C893 H877 0.930 . S
C893 C892 1.377 . S
C893 C894 1.379 . S
C894 H878 0.931 . S
C894 C888 1.383 1_545 S
C894 C893 1.379 . S
H895 C889 0.959 . S
H896 C889 0.961 . S
H897 C889 0.960 . S
H898 C890 0.930 . S
H899 C891 0.929 . S
H900 C908 0.929 . S
H901 C910 0.930 . S
H902 C912 0.930 . S
H903 C915 0.929 . S
H904 C918 0.930 . S
H905 C920 0.960 . S
H906 C920 0.960 1_545 S
H907 C920 0.960 . S
C908 H900 0.929 . S
C908 C909 1.377 . S
C908 C910 1.384 . S
C909 C908 1.377 . S
C909 C915 1.390 1_545 S
C910 H901 0.930 . S
C910 C908 1.384 . S
C910 C911 1.372 . S
C911 C910 1.372 . S
C911 C912 1.400 1_545 S
C911 C916 1.490 . S
C912 H902 0.930 . S
C912 C911 1.400 1_565 S
C912 C915 1.386 . S
H913 C929 0.930 . S
H914 C930 0.931 . S
C915 H903 0.929 . S
C915 C909 1.390 1_565 S
C915 C912 1.386 . S
C916 C911 1.490 . S
C916 C918 1.395 . S
C916 C919 1.389 1_545 S
H917 C923 0.930 . S
C918 H904 0.930 . S
C918 C916 1.395 . S
C918 C921 1.403 . S
C919 C916 1.389 1_565 S
C919 C920 1.566 . S
C919 C923 1.373 . S
C920 H905 0.960 . S
C920 H906 0.960 1_565 S
C920 H907 0.960 . S
C920 C919 1.566 . S
C921 C918 1.403 . S
C921 C922 1.392 . S
C921 C925 1.495 . S
C922 C921 1.392 . S
C922 C923 1.385 1_545 S
C922 C924 1.449 . S
C923 H917 0.930 . S
C923 C919 1.373 . S
C923 C922 1.385 1_565 S
C924 C922 1.449 . S
C924 C926 1.464 . S
C924 C930 1.332 1_545 S
C925 C921 1.495 . S
C925 H931 0.959 . S
C925 H932 0.933 1_545 S
C925 H933 0.960 . S
C926 C924 1.464 . S
C926 C927 1.394 . S
C926 H934 0.930 . S
C927 C926 1.394 . S
C927 C928 1.370 1_545 S
C927 H935 0.929 . S
C928 C927 1.370 1_565 S
C928 C929 1.398 . S
C929 H913 0.930 . S
C929 C928 1.398 . S
C929 C930 1.379 . S
C930 H914 0.931 . S
C930 C924 1.332 1_565 S
C930 C929 1.379 . S
H931 C925 0.959 . S
H932 C925 0.933 1_565 S
H933 C925 0.960 . S
H934 C926 0.930 . S
H935 C927 0.929 . S
H936 C944 0.929 . S
H937 C946 0.930 . S
H938 C948 0.930 . S
H939 C951 0.929 . S
H940 C954 0.930 . S
H941 C956 0.960 . S
H942 C956 0.960 . S
H943 C956 0.960 . S
C944 H936 0.929 . S
C944 C945 1.396 . S
C944 C946 1.384 . S
C945 C944 1.396 . S
C945 C951 1.354 1_655 S
C946 H937 0.930 . S
C946 C944 1.384 . S
C946 C947 1.419 . S
C947 C946 1.419 . S
C947 C948 1.376 1_655 S
C947 C952 1.469 . S
C948 H938 0.930 . S
C948 C947 1.376 1_455 S
C948 C951 1.386 . S
H949 C965 0.930 . S
H950 C966 0.931 . S
C951 H939 0.929 . S
C951 C945 1.354 1_455 S
C951 C948 1.386 . S
C952 C947 1.469 . S
C952 C954 1.395 . S
C952 C955 1.403 1_655 S
H953 C959 0.930 . S
C954 H940 0.930 . S
C954 C952 1.395 . S
C954 C957 1.403 . S
C955 C952 1.403 1_455 S
C955 C956 1.524 . S
C955 C959 1.400 . S
C956 H941 0.960 . S
C956 H942 0.960 . S
C956 H943 0.960 . S
C956 C955 1.524 . S
C957 C954 1.403 . S
C957 C958 1.392 . S
C957 C961 1.495 . S
C958 C957 1.392 . S
C958 C959 1.385 1_655 S
C958 C960 1.478 . S
C959 H953 0.930 . S
C959 C955 1.400 . S
C959 C958 1.385 1_455 S
C960 C958 1.478 . S
C960 C962 1.381 . S
C960 C966 1.383 1_655 S
C961 C957 1.495 . S
C961 H967 0.959 . S
C961 H968 0.961 . S
C961 H969 0.960 . S
C962 C960 1.381 . S
C962 C963 1.394 . S
C962 H970 0.930 . S
C963 C962 1.394 . S
C963 C964 1.433 . S
C963 H971 0.929 . S
C964 C963 1.433 . S
C964 C965 1.358 1_655 S
C965 H949 0.930 . S
C965 C964 1.358 1_455 S
C965 C966 1.379 . S
C966 H950 0.931 . S
C966 C960 1.383 1_455 S
C966 C965 1.379 . S
H967 C961 0.959 . S
H968 C961 0.961 . S
H969 C961 0.960 . S
H970 C962 0.930 . S
H971 C963 0.929 . S
H972 C980 0.929 . S
H973 C982 0.930 . S
H974 C984 0.930 . S
H975 C987 0.929 . S
H976 C990 0.930 . S
H977 C992 0.960 . S
H978 C992 0.960 . S
H979 C992 0.960 . S
C980 H972 0.929 . S
C980 C981 1.377 . S
C980 C982 1.384 . S
C981 C980 1.377 . S
C981 C987 1.390 . S
C982 H973 0.930 . S
C982 C980 1.384 . S
C982 C983 1.372 . S
C983 C982 1.372 . S
C983 C984 1.400 . S
C983 C988 1.490 . S
C984 H974 0.930 . S
C984 C983 1.400 . S
C984 C987 1.386 . S
H985 C1001 0.930 . S
H986 C1002 0.931 . S
C987 H975 0.929 . S
C987 C981 1.390 . S
C987 C984 1.386 . S
C988 C983 1.490 . S
C988 C990 1.395 . S
C988 C991 1.403 . S
H989 C995 0.930 . S
C990 H976 0.930 . S
C990 C988 1.395 . S
C990 C993 1.403 . S
C991 C988 1.403 . S
C991 C992 1.524 . S
C991 C995 1.400 . S
C992 H977 0.960 . S
C992 H978 0.960 . S
C992 H979 0.960 . S
C992 C991 1.524 . S
C993 C990 1.403 . S
C993 C994 1.392 . S
C993 C997 1.495 . S
C994 C993 1.392 . S
C994 C995 1.385 . S
C994 C996 1.478 . S
C995 H989 0.930 . S
C995 C991 1.400 . S
C995 C994 1.385 . S
C996 C994 1.478 . S
C996 C998 1.381 . S
C996 C1002 1.383 . S
C997 C993 1.495 . S
C997 H1003 0.959 . S
C997 H1004 0.961 . S
C997 H1005 0.960 . S
C998 C996 1.381 . S
C998 C999 1.394 . S
C998 H1006 0.930 . S
C999 C998 1.394 . S
C999 C1000 1.383 . S
C999 H1007 0.929 . S
C1000 C999 1.383 . S
C1000 C1001 1.377 . S
C1001 H985 0.930 . S
C1001 C1000 1.377 . S
C1001 C1002 1.379 . S
C1002 H986 0.931 . S
C1002 C996 1.383 . S
C1002 C1001 1.379 . S
H1003 C997 0.959 . S
H1004 C997 0.961 . S
H1005 C997 0.960 . S
H1006 C998 0.930 . S
H1007 C999 0.929 . S
H1008 C1016 0.929 . S
H1009 C1018 0.930 . S
H1010 C1020 0.930 . S
H1011 C1023 0.929 . S
H1012 C1026 0.930 . S
H1013 C1028 0.960 . S
H1014 C1028 0.960 . S
H1015 C1028 0.960 . S
C1016 H1008 0.929 . S
C1016 C1017 1.377 . S
C1016 C1018 1.384 . S
C1017 C1016 1.377 . S
C1017 C1023 1.390 . S
C1018 H1009 0.930 . S
C1018 C1016 1.384 . S
C1018 C1019 1.372 . S
C1019 C1018 1.372 . S
C1019 C1020 1.400 . S
C1019 C1024 1.490 . S
C1020 H1010 0.930 . S
C1020 C1019 1.400 . S
C1020 C1023 1.386 . S
H1021 C1037 0.930 . S
H1022 C1038 0.931 . S
C1023 H1011 0.929 . S
C1023 C1017 1.390 . S
C1023 C1020 1.386 . S
C1024 C1019 1.490 . S
C1024 C1026 1.395 . S
C1024 C1027 1.403 . S
H1025 C1031 0.930 . S
C1026 H1012 0.930 . S
C1026 C1024 1.395 . S
C1026 C1029 1.403 . S
C1027 C1024 1.403 . S
C1027 C1028 1.524 . S
C1027 C1031 1.400 . S
C1028 H1013 0.960 . S
C1028 H1014 0.960 . S
C1028 H1015 0.960 . S
C1028 C1027 1.524 . S
C1029 C1026 1.403 . S
C1029 C1030 1.392 . S
C1029 C1033 1.495 . S
C1030 C1029 1.392 . S
C1030 C1031 1.385 . S
C1030 C1032 1.478 . S
C1031 H1025 0.930 . S
C1031 C1027 1.400 . S
C1031 C1030 1.385 . S
C1032 C1030 1.478 . S
C1032 C1034 1.381 . S
C1032 C1038 1.383 . S
C1033 C1029 1.495 . S
C1033 H1039 0.959 . S
C1033 H1040 0.961 . S
C1033 H1041 0.960 . S
C1034 C1032 1.381 . S
C1034 C1035 1.394 . S
C1034 H1042 0.930 . S
C1035 C1034 1.394 . S
C1035 C1036 1.383 . S
C1035 H1043 0.929 . S
C1036 C1035 1.383 . S
C1036 C1037 1.377 . S
C1037 H1021 0.930 . S
C1037 C1036 1.377 . S
C1037 C1038 1.379 . S
C1038 H1022 0.931 . S
C1038 C1032 1.383 . S
C1038 C1037 1.379 . S
H1039 C1033 0.959 . S
H1040 C1033 0.961 . S
H1041 C1033 0.960 . S
H1042 C1034 0.930 . S
H1043 C1035 0.929 . S
H1044 C1052 0.929 . S
H1045 C1054 0.930 . S
H1046 C1056 0.930 . S
H1047 C1059 0.929 . S
H1048 C1062 0.930 . S
H1049 C1064 0.960 . S
H1050 C1064 0.960 . S
H1051 C1064 0.960 . S
C1052 H1044 0.929 . S
C1052 C1053 1.377 . S
C1052 C1054 1.384 . S
C1053 C1052 1.377 . S
C1053 C1059 1.390 . S
C1054 H1045 0.930 . S
C1054 C1052 1.384 . S
C1054 C1055 1.372 . S
C1055 C1054 1.372 . S
C1055 C1056 1.400 . S
C1055 C1060 1.490 . S
C1056 H1046 0.930 . S
C1056 C1055 1.400 . S
C1056 C1059 1.386 . S
H1057 C1073 0.930 . S
H1058 C1074 0.931 . S
C1059 H1047 0.929 . S
C1059 C1053 1.390 . S
C1059 C1056 1.386 . S
C1060 C1055 1.490 . S
C1060 C1062 1.395 . S
C1060 C1063 1.403 . S
H1061 C1067 0.930 . S
C1062 H1048 0.930 . S
C1062 C1060 1.395 . S
C1062 C1065 1.403 . S
C1063 C1060 1.403 . S
C1063 C1064 1.524 . S
C1063 C1067 1.400 . S
C1064 H1049 0.960 . S
C1064 H1050 0.960 . S
C1064 H1051 0.960 . S
C1064 C1063 1.524 . S
C1065 C1062 1.403 . S
C1065 C1066 1.392 . S
C1065 C1069 1.495 . S
C1066 C1065 1.392 . S
C1066 C1067 1.385 . S
C1066 C1068 1.478 . S
C1067 H1061 0.930 . S
C1067 C1063 1.400 . S
C1067 C1066 1.385 . S
C1068 C1066 1.478 . S
C1068 C1070 1.381 . S
C1068 C1074 1.383 . S
C1069 C1065 1.495 . S
C1069 H1075 0.959 . S
C1069 H1076 0.961 . S
C1069 H1077 0.960 . S
C1070 C1068 1.381 . S
C1070 C1071 1.394 . S
C1070 H1078 0.930 . S
C1071 C1070 1.394 . S
C1071 C1072 1.383 . S
C1071 H1079 0.929 . S
C1072 C1071 1.383 . S
C1072 C1073 1.377 . S
C1073 H1057 0.930 . S
C1073 C1072 1.377 . S
C1073 C1074 1.379 . S
C1074 H1058 0.931 . S
C1074 C1068 1.383 . S
C1074 C1073 1.379 . S
H1075 C1069 0.959 . S
H1076 C1069 0.961 . S
H1077 C1069 0.960 . S
H1078 C1070 0.930 . S
H1079 C1071 0.929 . S
H1080 C1088 0.929 . S
H1081 C1090 0.930 . S
H1082 C1092 0.930 . S
H1083 C1095 0.929 . S
H1084 C1098 0.930 . S
H1085 C1100 0.960 . S
H1086 C1100 0.960 . S
H1087 C1100 0.960 . S
C1088 H1080 0.929 . S
C1088 C1089 1.377 . S
C1088 C1090 1.384 . S
C1089 C1088 1.377 . S
C1089 C1095 1.390 . S
C1090 H1081 0.930 . S
C1090 C1088 1.384 . S
C1090 C1091 1.372 . S
C1091 C1090 1.372 . S
C1091 C1092 1.400 . S
C1091 C1096 1.490 . S
C1092 H1082 0.930 . S
C1092 C1091 1.400 . S
C1092 C1095 1.386 . S
H1093 C1109 0.930 . S
H1094 C1110 0.931 . S
C1095 H1083 0.929 . S
C1095 C1089 1.390 . S
C1095 C1092 1.386 . S
C1096 C1091 1.490 . S
C1096 C1098 1.395 . S
C1096 C1099 1.403 . S
H1097 C1103 0.930 . S
C1098 H1084 0.930 . S
C1098 C1096 1.395 . S
C1098 C1101 1.403 . S
C1099 C1096 1.403 . S
C1099 C1100 1.524 . S
C1099 C1103 1.400 . S
C1100 H1085 0.960 . S
C1100 H1086 0.960 . S
C1100 H1087 0.960 . S
C1100 C1099 1.524 . S
C1101 C1098 1.403 . S
C1101 C1102 1.392 . S
C1101 C1105 1.495 . S
C1102 C1101 1.392 . S
C1102 C1103 1.385 . S
C1102 C1104 1.478 . S
C1103 H1097 0.930 . S
C1103 C1099 1.400 . S
C1103 C1102 1.385 . S
C1104 C1102 1.478 . S
C1104 C1106 1.381 . S
C1104 C1110 1.383 . S
C1105 C1101 1.495 . S
C1105 H1111 0.959 . S
C1105 H1112 0.961 . S
C1105 H1113 0.960 . S
C1106 C1104 1.381 . S
C1106 C1107 1.394 . S
C1106 H1114 0.930 . S
C1107 C1106 1.394 . S
C1107 C1108 1.383 . S
C1107 H1115 0.929 . S
C1108 C1107 1.383 . S
C1108 C1109 1.377 . S
C1109 H1093 0.930 . S
C1109 C1108 1.377 . S
C1109 C1110 1.379 . S
C1110 H1094 0.931 . S
C1110 C1104 1.383 . S
C1110 C1109 1.379 . S
H1111 C1105 0.959 . S
H1112 C1105 0.961 . S
H1113 C1105 0.960 . S
H1114 C1106 0.930 . S
H1115 C1107 0.929 . S
H1116 C1124 0.929 . S
H1117 C1126 0.930 . S
H1118 C1128 0.930 . S
H1119 C1131 0.929 . S
H1120 C1134 0.930 . S
H1121 C1136 0.960 . S
H1122 C1136 0.960 . S
H1123 C1136 0.960 . S
C1124 H1116 0.929 . S
C1124 C1125 1.377 . S
C1124 C1126 1.384 . S
C1125 C1124 1.377 . S
C1125 C1131 1.390 . S
C1126 H1117 0.930 . S
C1126 C1124 1.384 . S
C1126 C1127 1.372 . S
C1127 C1126 1.372 . S
C1127 C1128 1.400 . S
C1127 C1132 1.490 . S
C1128 H1118 0.930 . S
C1128 C1127 1.400 . S
C1128 C1131 1.386 . S
H1129 C1145 0.930 . S
H1130 C1146 0.931 . S
C1131 H1119 0.929 . S
C1131 C1125 1.390 . S
C1131 C1128 1.386 . S
C1132 C1127 1.490 . S
C1132 C1134 1.395 . S
C1132 C1135 1.403 . S
H1133 C1139 0.930 . S
C1134 H1120 0.930 . S
C1134 C1132 1.395 . S
C1134 C1137 1.403 . S
C1135 C1132 1.403 . S
C1135 C1136 1.524 . S
C1135 C1139 1.400 . S
C1136 H1121 0.960 . S
C1136 H1122 0.960 . S
C1136 H1123 0.960 . S
C1136 C1135 1.524 . S
C1137 C1134 1.403 . S
C1137 C1138 1.392 . S
C1137 C1141 1.495 . S
C1138 C1137 1.392 . S
C1138 C1139 1.385 . S
C1138 C1140 1.478 . S
C1139 H1133 0.930 . S
C1139 C1135 1.400 . S
C1139 C1138 1.385 . S
C1140 C1138 1.478 . S
C1140 C1142 1.381 . S
C1140 C1146 1.383 . S
C1141 C1137 1.495 . S
C1141 H1147 0.959 . S
C1141 H1148 0.961 . S
C1141 H1149 0.960 . S
C1142 C1140 1.381 . S
C1142 C1143 1.394 . S
C1142 H1150 0.930 . S
C1143 C1142 1.394 . S
C1143 C1144 1.383 . S
C1143 H1151 0.929 . S
C1144 C1143 1.383 . S
C1144 C1145 1.377 . S
C1145 H1129 0.930 . S
C1145 C1144 1.377 . S
C1145 C1146 1.379 . S
C1146 H1130 0.931 . S
C1146 C1140 1.383 . S
C1146 C1145 1.379 . S
H1147 C1141 0.959 . S
H1148 C1141 0.961 . S
H1149 C1141 0.960 . S
H1150 C1142 0.930 . S
H1151 C1143 0.929 . S
H1152 C1160 0.929 . S
H1153 C1162 0.930 . S
H1154 C1164 0.930 . S
H1155 C1167 0.929 . S
H1156 C1170 0.930 . S
H1157 C1172 0.960 . S
H1158 C1172 0.960 . S
H1159 C1172 0.960 . S
C1160 H1152 0.929 . S
C1160 C1161 1.377 . S
C1160 C1162 1.384 . S
C1161 C1160 1.377 . S
C1161 C1167 1.390 . S
C1162 H1153 0.930 . S
C1162 C1160 1.384 . S
C1162 C1163 1.372 . S
C1163 C1162 1.372 . S
C1163 C1164 1.400 . S
C1163 C1168 1.490 . S
C1164 H1154 0.930 . S
C1164 C1163 1.400 . S
C1164 C1167 1.386 . S
H1165 C1181 0.930 . S
H1166 C1182 0.931 . S
C1167 H1155 0.929 . S
C1167 C1161 1.390 . S
C1167 C1164 1.386 . S
C1168 C1163 1.490 . S
C1168 C1170 1.395 . S
C1168 C1171 1.403 . S
H1169 C1175 0.930 . S
C1170 H1156 0.930 . S
C1170 C1168 1.395 . S
C1170 C1173 1.403 . S
C1171 C1168 1.403 . S
C1171 C1172 1.524 . S
C1171 C1175 1.400 . S
C1172 H1157 0.960 . S
C1172 H1158 0.960 . S
C1172 H1159 0.960 . S
C1172 C1171 1.524 . S
C1173 C1170 1.403 . S
C1173 C1174 1.392 . S
C1173 C1177 1.495 . S
C1174 C1173 1.392 . S
C1174 C1175 1.385 . S
C1174 C1176 1.478 . S
C1175 H1169 0.930 . S
C1175 C1171 1.400 . S
C1175 C1174 1.385 . S
C1176 C1174 1.478 . S
C1176 C1178 1.381 . S
C1176 C1182 1.383 . S
C1177 C1173 1.495 . S
C1177 H1183 0.959 . S
C1177 H1184 0.961 . S
C1177 H1185 0.960 . S
C1178 C1176 1.381 . S
C1178 C1179 1.394 . S
C1178 H1186 0.930 . S
C1179 C1178 1.394 . S
C1179 C1180 1.383 . S
C1179 H1187 0.929 . S
C1180 C1179 1.383 . S
C1180 C1181 1.377 . S
C1181 H1165 0.930 . S
C1181 C1180 1.377 . S
C1181 C1182 1.379 . S
C1182 H1166 0.931 . S
C1182 C1176 1.383 . S
C1182 C1181 1.379 . S
H1183 C1177 0.959 . S
H1184 C1177 0.961 . S
H1185 C1177 0.960 . S
H1186 C1178 0.930 . S
H1187 C1179 0.929 . S
H1188 C1196 0.929 . S
H1189 C1198 0.930 . S
H1190 C1200 0.930 . S
H1191 C1203 0.929 . S
H1192 C1206 0.930 . S
H1193 C1208 0.960 . S
H1194 C1208 0.960 . S
H1195 C1208 0.960 . S
C1196 H1188 0.929 . S
C1196 C1197 1.377 . S
C1196 C1198 1.384 . S
C1197 C1196 1.377 . S
C1197 C1203 1.390 . S
C1198 H1189 0.930 . S
C1198 C1196 1.384 . S
C1198 C1199 1.372 . S
C1199 C1198 1.372 . S
C1199 C1200 1.400 . S
C1199 C1204 1.490 . S
C1200 H1190 0.930 . S
C1200 C1199 1.400 . S
C1200 C1203 1.386 . S
H1201 C1217 0.930 . S
H1202 C1218 0.931 . S
C1203 H1191 0.929 . S
C1203 C1197 1.390 . S
C1203 C1200 1.386 . S
C1204 C1199 1.490 . S
C1204 C1206 1.395 . S
C1204 C1207 1.403 . S
H1205 C1211 0.930 . S
C1206 H1192 0.930 . S
C1206 C1204 1.395 . S
C1206 C1209 1.403 . S
C1207 C1204 1.403 . S
C1207 C1208 1.524 . S
C1207 C1211 1.400 . S
C1208 H1193 0.960 . S
C1208 H1194 0.960 . S
C1208 H1195 0.960 . S
C1208 C1207 1.524 . S
C1209 C1206 1.403 . S
C1209 C1210 1.392 . S
C1209 C1213 1.495 . S
C1210 C1209 1.392 . S
C1210 C1211 1.385 . S
C1210 C1212 1.478 . S
C1211 H1205 0.930 . S
C1211 C1207 1.400 . S
C1211 C1210 1.385 . S
C1212 C1210 1.478 . S
C1212 C1214 1.381 . S
C1212 C1218 1.383 . S
C1213 C1209 1.495 . S
C1213 H1219 0.959 . S
C1213 H1220 0.961 . S
C1213 H1221 0.960 . S
C1214 C1212 1.381 . S
C1214 C1215 1.394 . S
C1214 H1222 0.930 . S
C1215 C1214 1.394 . S
C1215 C1216 1.383 . S
C1215 H1223 0.929 . S
C1216 C1215 1.383 . S
C1216 C1217 1.377 . S
C1217 H1201 0.930 . S
C1217 C1216 1.377 . S
C1217 C1218 1.379 . S
C1218 H1202 0.931 . S
C1218 C1212 1.383 . S
C1218 C1217 1.379 . S
H1219 C1213 0.959 . S
H1220 C1213 0.961 . S
H1221 C1213 0.960 . S
H1222 C1214 0.930 . S
H1223 C1215 0.929 . S
H1224 C1232 0.929 . S
H1225 C1234 0.930 . S
H1226 C1236 0.930 . S
H1227 C1239 0.929 . S
H1228 C1242 0.930 . S
H1229 C1244 0.960 . S
H1230 C1244 0.960 . S
H1231 C1244 0.960 . S
C1232 H1224 0.929 . S
C1232 C1233 1.377 . S
C1232 C1234 1.384 . S
C1233 C1232 1.377 . S
C1233 C1239 1.390 . S
C1234 H1225 0.930 . S
C1234 C1232 1.384 . S
C1234 C1235 1.372 . S
C1235 C1234 1.372 . S
C1235 C1236 1.400 . S
C1235 C1240 1.490 . S
C1236 H1226 0.930 . S
C1236 C1235 1.400 . S
C1236 C1239 1.386 . S
H1237 C1253 0.930 . S
H1238 C1254 0.931 . S
C1239 H1227 0.929 . S
C1239 C1233 1.390 . S
C1239 C1236 1.386 . S
C1240 C1235 1.490 . S
C1240 C1242 1.395 . S
C1240 C1243 1.403 . S
H1241 C1247 0.930 . S
C1242 H1228 0.930 . S
C1242 C1240 1.395 . S
C1242 C1245 1.403 . S
C1243 C1240 1.403 . S
C1243 C1244 1.524 . S
C1243 C1247 1.400 . S
C1244 H1229 0.960 . S
C1244 H1230 0.960 . S
C1244 H1231 0.960 . S
C1244 C1243 1.524 . S
C1245 C1242 1.403 . S
C1245 C1246 1.392 . S
C1245 C1249 1.495 . S
C1246 C1245 1.392 . S
C1246 C1247 1.385 . S
C1246 C1248 1.478 . S
C1247 H1241 0.930 . S
C1247 C1243 1.400 . S
C1247 C1246 1.385 . S
C1248 C1246 1.478 . S
C1248 C1250 1.381 . S
C1248 C1254 1.383 . S
C1249 C1245 1.495 . S
C1249 H1255 0.959 . S
C1249 H1256 0.961 . S
C1249 H1257 0.960 . S
C1250 C1248 1.381 . S
C1250 C1251 1.394 . S
C1250 H1258 0.930 . S
C1251 C1250 1.394 . S
C1251 C1252 1.383 . S
C1251 H1259 0.929 . S
C1252 C1251 1.383 . S
C1252 C1253 1.377 . S
C1253 H1237 0.930 . S
C1253 C1252 1.377 . S
C1253 C1254 1.379 . S
C1254 H1238 0.931 . S
C1254 C1248 1.383 . S
C1254 C1253 1.379 . S
H1255 C1249 0.959 . S
H1256 C1249 0.961 . S
H1257 C1249 0.960 . S
H1258 C1250 0.930 . S
H1259 C1251 0.929 . S
H1260 C1268 0.929 . S
H1261 C1270 0.930 . S
H1262 C1272 0.930 . S
H1263 C1275 0.929 . S
H1264 C1278 0.930 . S
H1265 C1280 0.960 . S
H1266 C1280 0.960 . S
H1267 C1280 0.960 . S
C1268 H1260 0.929 . S
C1268 C1269 1.377 . S
C1268 C1270 1.384 . S
C1269 C1268 1.377 . S
C1269 C1275 1.390 . S
C1270 H1261 0.930 . S
C1270 C1268 1.384 . S
C1270 C1271 1.372 . S
C1271 C1270 1.372 . S
C1271 C1272 1.400 . S
C1271 C1276 1.490 . S
C1272 H1262 0.930 . S
C1272 C1271 1.400 . S
C1272 C1275 1.386 . S
H1273 C1289 0.930 . S
H1274 C1290 0.931 . S
C1275 H1263 0.929 . S
C1275 C1269 1.390 . S
C1275 C1272 1.386 . S
C1276 C1271 1.490 . S
C1276 C1278 1.395 . S
C1276 C1279 1.403 . S
H1277 C1283 0.930 . S
C1278 H1264 0.930 . S
C1278 C1276 1.395 . S
C1278 C1281 1.403 . S
C1279 C1276 1.403 . S
C1279 C1280 1.524 . S
C1279 C1283 1.400 . S
C1280 H1265 0.960 . S
C1280 H1266 0.960 . S
C1280 H1267 0.960 . S
C1280 C1279 1.524 . S
C1281 C1278 1.403 . S
C1281 C1282 1.392 . S
C1281 C1285 1.495 . S
C1282 C1281 1.392 . S
C1282 C1283 1.385 . S
C1282 C1284 1.478 . S
C1283 H1277 0.930 . S
C1283 C1279 1.400 . S
C1283 C1282 1.385 . S
C1284 C1282 1.478 . S
C1284 C1286 1.381 . S
C1284 C1290 1.383 . S
C1285 C1281 1.495 . S
C1285 H1291 0.959 . S
C1285 H1292 0.961 . S
C1285 H1293 0.960 . S
C1286 C1284 1.381 . S
C1286 C1287 1.394 . S
C1286 H1294 0.930 . S
C1287 C1286 1.394 . S
C1287 C1288 1.383 . S
C1287 H1295 0.929 . S
C1288 C1287 1.383 . S
C1288 C1289 1.377 . S
C1289 H1273 0.930 . S
C1289 C1288 1.377 . S
C1289 C1290 1.379 . S
C1290 H1274 0.931 . S
C1290 C1284 1.383 . S
C1290 C1289 1.379 . S
H1291 C1285 0.959 . S
H1292 C1285 0.961 . S
H1293 C1285 0.960 . S
H1294 C1286 0.930 . S
H1295 C1287 0.929 . S
H1296 C1304 0.929 . S
H1297 C1306 0.930 . S
H1298 C1308 0.930 . S
H1299 C1311 0.929 . S
H1300 C1314 0.930 . S
H1301 C1316 0.960 . S
H1302 C1316 0.960 . S
H1303 C1316 0.960 . S
C1304 H1296 0.929 . S
C1304 C1305 1.377 . S
C1304 C1306 1.384 . S
C1305 C1304 1.377 . S
C1305 C1311 1.390 . S
C1306 H1297 0.930 . S
C1306 C1304 1.384 . S
C1306 C1307 1.372 . S
C1307 C1306 1.372 . S
C1307 C1308 1.400 . S
C1307 C1312 1.490 . S
C1308 H1298 0.930 . S
C1308 C1307 1.400 . S
C1308 C1311 1.386 . S
H1309 C1325 0.930 . S
H1310 C1326 0.931 . S
C1311 H1299 0.929 . S
C1311 C1305 1.390 . S
C1311 C1308 1.386 . S
C1312 C1307 1.490 . S
C1312 C1314 1.395 . S
C1312 C1315 1.403 . S
H1313 C1319 0.930 . S
C1314 H1300 0.930 . S
C1314 C1312 1.395 . S
C1314 C1317 1.403 . S
C1315 C1312 1.403 . S
C1315 C1316 1.524 . S
C1315 C1319 1.400 . S
C1316 H1301 0.960 . S
C1316 H1302 0.960 . S
C1316 H1303 0.960 . S
C1316 C1315 1.524 . S
C1317 C1314 1.403 . S
C1317 C1318 1.392 . S
C1317 C1321 1.495 . S
C1318 C1317 1.392 . S
C1318 C1319 1.385 . S
C1318 C1320 1.478 . S
C1319 H1313 0.930 . S
C1319 C1315 1.400 . S
C1319 C1318 1.385 . S
C1320 C1318 1.478 . S
C1320 C1322 1.381 . S
C1320 C1326 1.383 . S
C1321 C1317 1.495 . S
C1321 H1327 0.959 . S
C1321 H1328 0.961 . S
C1321 H1329 0.960 . S
C1322 C1320 1.381 . S
C1322 C1323 1.394 . S
C1322 H1330 0.930 . S
C1323 C1322 1.394 . S
C1323 C1324 1.383 . S
C1323 H1331 0.929 . S
C1324 C1323 1.383 . S
C1324 C1325 1.377 . S
C1325 H1309 0.930 . S
C1325 C1324 1.377 . S
C1325 C1326 1.379 . S
C1326 H1310 0.931 . S
C1326 C1320 1.383 . S
C1326 C1325 1.379 . S
H1327 C1321 0.959 . S
H1328 C1321 0.961 . S
H1329 C1321 0.960 . S
H1330 C1322 0.930 . S
H1331 C1323 0.929 . S
H1332 C1340 0.929 . S
H1333 C1342 0.930 . S
H1334 C1344 0.930 . S
H1335 C1347 0.929 . S
H1336 C1350 0.930 . S
H1337 C1352 0.960 . S
H1338 C1352 0.960 . S
H1339 C1352 0.960 . S
C1340 H1332 0.929 . S
C1340 C1341 1.377 . S
C1340 C1342 1.384 . S
C1341 C1340 1.377 . S
C1341 C1347 1.390 . S
C1342 H1333 0.930 . S
C1342 C1340 1.384 . S
C1342 C1343 1.372 . S
C1343 C1342 1.372 . S
C1343 C1344 1.400 . S
C1343 C1348 1.490 . S
C1344 H1334 0.930 . S
C1344 C1343 1.400 . S
C1344 C1347 1.386 . S
H1345 C1361 0.930 . S
H1346 C1362 0.931 . S
C1347 H1335 0.929 . S
C1347 C1341 1.390 . S
C1347 C1344 1.386 . S
C1348 C1343 1.490 . S
C1348 C1350 1.395 . S
C1348 C1351 1.403 . S
H1349 C1355 0.930 . S
C1350 H1336 0.930 . S
C1350 C1348 1.395 . S
C1350 C1353 1.403 . S
C1351 C1348 1.403 . S
C1351 C1352 1.524 . S
C1351 C1355 1.400 . S
C1352 H1337 0.960 . S
C1352 H1338 0.960 . S
C1352 H1339 0.960 . S
C1352 C1351 1.524 . S
C1353 C1350 1.403 . S
C1353 C1354 1.392 . S
C1353 C1357 1.495 . S
C1354 C1353 1.392 . S
C1354 C1355 1.385 . S
C1354 C1356 1.478 . S
C1355 H1349 0.930 . S
C1355 C1351 1.400 . S
C1355 C1354 1.385 . S
C1356 C1354 1.478 . S
C1356 C1358 1.381 . S
C1356 C1362 1.383 . S
C1357 C1353 1.495 . S
C1357 H1363 0.959 . S
C1357 H1364 0.961 . S
C1357 H1365 0.960 . S
C1358 C1356 1.381 . S
C1358 C1359 1.394 . S
C1358 H1366 0.930 . S
C1359 C1358 1.394 . S
C1359 C1360 1.383 . S
C1359 H1367 0.929 . S
C1360 C1359 1.383 . S
C1360 C1361 1.377 . S
C1361 H1345 0.930 . S
C1361 C1360 1.377 . S
C1361 C1362 1.379 . S
C1362 H1346 0.931 . S
C1362 C1356 1.383 . S
C1362 C1361 1.379 . S
H1363 C1357 0.959 . S
H1364 C1357 0.961 . S
H1365 C1357 0.960 . S
H1366 C1358 0.930 . S
H1367 C1359 0.929 . S
H1368 C1376 0.929 . S
H1369 C1378 0.930 . S
H1370 C1380 0.930 . S
H1371 C1383 0.929 . S
H1372 C1386 0.930 . S
H1373 C1388 0.960 . S
H1374 C1388 0.960 . S
H1375 C1388 0.960 . S
C1376 H1368 0.929 . S
C1376 C1377 1.377 . S
C1376 C1378 1.384 . S
C1377 C1376 1.377 . S
C1377 C1383 1.390 . S
C1378 H1369 0.930 . S
C1378 C1376 1.384 . S
C1378 C1379 1.372 . S
C1379 C1378 1.372 . S
C1379 C1380 1.400 . S
C1379 C1384 1.490 . S
C1380 H1370 0.930 . S
C1380 C1379 1.400 . S
C1380 C1383 1.386 . S
H1381 C1397 0.930 . S
H1382 C1398 0.931 . S
C1383 H1371 0.929 . S
C1383 C1377 1.390 . S
C1383 C1380 1.386 . S
C1384 C1379 1.490 . S
C1384 C1386 1.395 . S
C1384 C1387 1.403 . S
H1385 C1391 0.930 . S
C1386 H1372 0.930 . S
C1386 C1384 1.395 . S
C1386 C1389 1.403 . S
C1387 C1384 1.403 . S
C1387 C1388 1.524 . S
C1387 C1391 1.400 . S
C1388 H1373 0.960 . S
C1388 H1374 0.960 . S
C1388 H1375 0.960 . S
C1388 C1387 1.524 . S
C1389 C1386 1.403 . S
C1389 C1390 1.392 . S
C1389 C1393 1.495 . S
C1390 C1389 1.392 . S
C1390 C1391 1.385 . S
C1390 C1392 1.478 . S
C1391 H1385 0.930 . S
C1391 C1387 1.400 . S
C1391 C1390 1.385 . S
C1392 C1390 1.478 . S
C1392 C1394 1.381 . S
C1392 C1398 1.383 . S
C1393 C1389 1.495 . S
C1393 H1399 0.959 . S
C1393 H1400 0.961 . S
C1393 H1401 0.960 . S
C1394 C1392 1.381 . S
C1394 C1395 1.394 . S
C1394 H1402 0.930 . S
C1395 C1394 1.394 . S
C1395 C1396 1.383 . S
C1395 H1403 0.929 . S
C1396 C1395 1.383 . S
C1396 C1397 1.377 . S
C1397 H1381 0.930 . S
C1397 C1396 1.377 . S
C1397 C1398 1.379 . S
C1398 H1382 0.931 . S
C1398 C1392 1.383 . S
C1398 C1397 1.379 . S
H1399 C1393 0.959 . S
H1400 C1393 0.961 . S
H1401 C1393 0.960 . S
H1402 C1394 0.930 . S
H1403 C1395 0.929 . S
H1404 C1412 0.929 . S
H1405 C1414 0.930 . S
H1406 C1416 0.930 . S
H1407 C1419 0.929 . S
H1408 C1422 0.930 . S
H1409 C1424 0.960 . S
H1410 C1424 0.960 . S
H1411 C1424 0.960 . S
C1412 H1404 0.929 . S
C1412 C1413 1.377 . S
C1412 C1414 1.384 . S
C1413 C1412 1.377 . S
C1413 C1419 1.390 . S
C1414 H1405 0.930 . S
C1414 C1412 1.384 . S
C1414 C1415 1.372 . S
C1415 C1414 1.372 . S
C1415 C1416 1.400 . S
C1415 C1420 1.490 . S
C1416 H1406 0.930 . S
C1416 C1415 1.400 . S
C1416 C1419 1.386 . S
H1417 C1433 0.930 . S
H1418 C1434 0.931 . S
C1419 H1407 0.929 . S
C1419 C1413 1.390 . S
C1419 C1416 1.386 . S
C1420 C1415 1.490 . S
C1420 C1422 1.395 . S
C1420 C1423 1.403 . S
H1421 C1427 0.930 . S
C1422 H1408 0.930 . S
C1422 C1420 1.395 . S
C1422 C1425 1.403 . S
C1423 C1420 1.403 . S
C1423 C1424 1.524 . S
C1423 C1427 1.400 . S
C1424 H1409 0.960 . S
C1424 H1410 0.960 . S
C1424 H1411 0.960 . S
C1424 C1423 1.524 . S
C1425 C1422 1.403 . S
C1425 C1426 1.392 . S
C1425 C1429 1.495 . S
C1426 C1425 1.392 . S
C1426 C1427 1.385 . S
C1426 C1428 1.478 . S
C1427 H1421 0.930 . S
C1427 C1423 1.400 . S
C1427 C1426 1.385 . S
C1428 C1426 1.478 . S
C1428 C1430 1.381 . S
C1428 C1434 1.383 . S
C1429 C1425 1.495 . S
C1429 H1435 0.959 . S
C1429 H1436 0.961 . S
C1429 H1437 0.960 . S
C1430 C1428 1.381 . S
C1430 C1431 1.394 . S
C1430 H1438 0.930 . S
C1431 C1430 1.394 . S
C1431 C1432 1.383 . S
C1431 H1439 0.929 . S
C1432 C1431 1.383 . S
C1432 C1433 1.377 . S
C1433 H1417 0.930 . S
C1433 C1432 1.377 . S
C1433 C1434 1.379 . S
C1434 H1418 0.931 . S
C1434 C1428 1.383 . S
C1434 C1433 1.379 . S
H1435 C1429 0.959 . S
H1436 C1429 0.961 . S
H1437 C1429 0.960 . S
H1438 C1430 0.930 . S
H1439 C1431 0.929 . S
H1440 C1448 0.929 . S
H1441 C1450 0.930 . S
H1442 C1452 0.930 . S
H1443 C1455 0.929 . S
H1444 C1458 0.930 . S
H1445 C1460 0.960 . S
H1446 C1460 0.960 . S
H1447 C1460 0.960 . S
C1448 H1440 0.929 . S
C1448 C1449 1.377 . S
C1448 C1450 1.384 . S
C1449 C1448 1.377 . S
C1449 C1455 1.390 . S
C1450 H1441 0.930 . S
C1450 C1448 1.384 . S
C1450 C1451 1.372 . S
C1451 C1450 1.372 . S
C1451 C1452 1.400 . S
C1451 C1456 1.490 . S
C1452 H1442 0.930 . S
C1452 C1451 1.400 . S
C1452 C1455 1.386 . S
H1453 C1469 0.930 . S
H1454 C1470 0.931 . S
C1455 H1443 0.929 . S
C1455 C1449 1.390 . S
C1455 C1452 1.386 . S
C1456 C1451 1.490 . S
C1456 C1458 1.395 . S
C1456 C1459 1.403 . S
H1457 C1463 0.930 . S
C1458 H1444 0.930 . S
C1458 C1456 1.395 . S
C1458 C1461 1.403 . S
C1459 C1456 1.403 . S
C1459 C1460 1.524 . S
C1459 C1463 1.400 . S
C1460 H1445 0.960 . S
C1460 H1446 0.960 . S
C1460 H1447 0.960 . S
C1460 C1459 1.524 . S
C1461 C1458 1.403 . S
C1461 C1462 1.392 . S
C1461 C1465 1.495 . S
C1462 C1461 1.392 . S
C1462 C1463 1.385 . S
C1462 C1464 1.478 . S
C1463 H1457 0.930 . S
C1463 C1459 1.400 . S
C1463 C1462 1.385 . S
C1464 C1462 1.478 . S
C1464 C1466 1.381 . S
C1464 C1470 1.383 . S
C1465 C1461 1.495 . S
C1465 H1471 0.959 . S
C1465 H1472 0.961 . S
C1465 H1473 0.960 . S
C1466 C1464 1.381 . S
C1466 C1467 1.394 . S
C1466 H1474 0.930 . S
C1467 C1466 1.394 . S
C1467 C1468 1.383 . S
C1467 H1475 0.929 . S
C1468 C1467 1.383 . S
C1468 C1469 1.377 . S
C1469 H1453 0.930 . S
C1469 C1468 1.377 . S
C1469 C1470 1.379 . S
C1470 H1454 0.931 . S
C1470 C1464 1.383 . S
C1470 C1469 1.379 . S
H1471 C1465 0.959 . S
H1472 C1465 0.961 . S
H1473 C1465 0.960 . S
H1474 C1466 0.930 . S
H1475 C1467 0.929 . S
H1476 C1484 0.929 . S
H1477 C1486 0.930 . S
H1478 C1488 0.930 . S
H1479 C1491 0.929 . S
H1480 C1494 0.930 . S
H1481 C1496 0.960 . S
H1482 C1496 0.960 . S
H1483 C1496 0.960 . S
C1484 H1476 0.929 . S
C1484 C1485 1.377 . S
C1484 C1486 1.384 . S
C1485 C1484 1.377 . S
C1485 C1491 1.390 . S
C1486 H1477 0.930 . S
C1486 C1484 1.384 . S
C1486 C1487 1.372 . S
C1487 C1486 1.372 . S
C1487 C1488 1.400 . S
C1487 C1492 1.490 . S
C1488 H1478 0.930 . S
C1488 C1487 1.400 . S
C1488 C1491 1.386 . S
H1489 C1505 0.930 . S
H1490 C1506 0.931 . S
C1491 H1479 0.929 . S
C1491 C1485 1.390 . S
C1491 C1488 1.386 . S
C1492 C1487 1.490 . S
C1492 C1494 1.395 . S
C1492 C1495 1.403 . S
H1493 C1499 0.930 . S
C1494 H1480 0.930 . S
C1494 C1492 1.395 . S
C1494 C1497 1.403 . S
C1495 C1492 1.403 . S
C1495 C1496 1.524 . S
C1495 C1499 1.400 . S
C1496 H1481 0.960 . S
C1496 H1482 0.960 . S
C1496 H1483 0.960 . S
C1496 C1495 1.524 . S
C1497 C1494 1.403 . S
C1497 C1498 1.392 . S
C1497 C1501 1.495 . S
C1498 C1497 1.392 . S
C1498 C1499 1.385 . S
C1498 C1500 1.478 . S
C1499 H1493 0.930 . S
C1499 C1495 1.400 . S
C1499 C1498 1.385 . S
C1500 C1498 1.478 . S
C1500 C1502 1.381 . S
C1500 C1506 1.383 . S
C1501 C1497 1.495 . S
C1501 H1507 0.959 . S
C1501 H1508 0.961 . S
C1501 H1509 0.960 . S
C1502 C1500 1.381 . S
C1502 C1503 1.394 . S
C1502 H1510 0.930 . S
C1503 C1502 1.394 . S
C1503 C1504 1.383 . S
C1503 H1511 0.929 . S
C1504 C1503 1.383 . S
C1504 C1505 1.377 . S
C1505 H1489 0.930 . S
C1505 C1504 1.377 . S
C1505 C1506 1.379 . S
C1506 H1490 0.931 . S
C1506 C1500 1.383 . S
C1506 C1505 1.379 . S
H1507 C1501 0.959 . S
H1508 C1501 0.961 . S
H1509 C1501 0.960 . S
H1510 C1502 0.930 . S
H1511 C1503 0.929 . S
H1512 C1520 0.929 . S
H1513 C1522 0.930 . S
H1514 C1524 0.930 . S
H1515 C1527 0.929 . S
H1516 C1530 0.930 . S
H1517 C1532 0.960 . S
H1518 C1532 0.960 . S
H1519 C1532 0.960 . S
C1520 H1512 0.929 . S
C1520 C1521 1.377 . S
C1520 C1522 1.384 . S
C1521 C1520 1.377 . S
C1521 C1527 1.390 . S
C1522 H1513 0.930 . S
C1522 C1520 1.384 . S
C1522 C1523 1.372 . S
C1523 C1522 1.372 . S
C1523 C1524 1.400 . S
C1523 C1528 1.490 . S
C1524 H1514 0.930 . S
C1524 C1523 1.400 . S
C1524 C1527 1.386 . S
H1525 C1541 0.930 . S
H1526 C1542 0.931 . S
C1527 H1515 0.929 . S
C1527 C1521 1.390 . S
C1527 C1524 1.386 . S
C1528 C1523 1.490 . S
C1528 C1530 1.395 . S
C1528 C1531 1.403 . S
H1529 C1535 0.930 . S
C1530 H1516 0.930 . S
C1530 C1528 1.395 . S
C1530 C1533 1.403 . S
C1531 C1528 1.403 . S
C1531 C1532 1.524 . S
C1531 C1535 1.400 . S
C1532 H1517 0.960 . S
C1532 H1518 0.960 . S
C1532 H1519 0.960 . S
C1532 C1531 1.524 . S
C1533 C1530 1.403 . S
C1533 C1534 1.392 . S
C1533 C1537 1.495 . S
C1534 C1533 1.392 . S
C1534 C1535 1.385 . S
C1534 C1536 1.478 . S
C1535 H1529 0.930 . S
C1535 C1531 1.400 . S
C1535 C1534 1.385 . S
C1536 C1534 1.478 . S
C1536 C1538 1.381 . S
C1536 C1542 1.383 . S
C1537 C1533 1.495 . S
C1537 H1543 0.959 . S
C1537 H1544 0.961 . S
C1537 H1545 0.960 . S
C1538 C1536 1.381 . S
C1538 C1539 1.394 . S
C1538 H1546 0.930 . S
C1539 C1538 1.394 . S
C1539 C1540 1.383 . S
C1539 H1547 0.929 . S
C1540 C1539 1.383 . S
C1540 C1541 1.377 . S
C1541 H1525 0.930 . S
C1541 C1540 1.377 . S
C1541 C1542 1.379 . S
C1542 H1526 0.931 . S
C1542 C1536 1.383 . S
C1542 C1541 1.379 . S
H1543 C1537 0.959 . S
H1544 C1537 0.961 . S
H1545 C1537 0.960 . S
H1546 C1538 0.930 . S
H1547 C1539 0.929 . S
H1548 C1556 0.929 . S
H1549 C1558 0.930 . S
H1550 C1560 0.930 . S
H1551 C1563 0.929 . S
H1552 C1566 0.930 . S
H1553 C1568 0.960 . S
H1554 C1568 0.960 . S
H1555 C1568 0.960 . S
C1556 H1548 0.929 . S
C1556 C1557 1.377 . S
C1556 C1558 1.384 . S
C1557 C1556 1.377 . S
C1557 C1563 1.390 . S
C1558 H1549 0.930 . S
C1558 C1556 1.384 . S
C1558 C1559 1.372 . S
C1559 C1558 1.372 . S
C1559 C1560 1.400 . S
C1559 C1564 1.490 . S
C1560 H1550 0.930 . S
C1560 C1559 1.400 . S
C1560 C1563 1.386 . S
H1561 C1577 0.930 . S
H1562 C1578 0.931 . S
C1563 H1551 0.929 . S
C1563 C1557 1.390 . S
C1563 C1560 1.386 . S
C1564 C1559 1.490 . S
C1564 C1566 1.395 . S
C1564 C1567 1.403 . S
H1565 C1571 0.930 . S
C1566 H1552 0.930 . S
C1566 C1564 1.395 . S
C1566 C1569 1.403 . S
C1567 C1564 1.403 . S
C1567 C1568 1.524 . S
C1567 C1571 1.400 . S
C1568 H1553 0.960 . S
C1568 H1554 0.960 . S
C1568 H1555 0.960 . S
C1568 C1567 1.524 . S
C1569 C1566 1.403 . S
C1569 C1570 1.392 . S
C1569 C1573 1.495 . S
C1570 C1569 1.392 . S
C1570 C1571 1.385 . S
C1570 C1572 1.478 . S
C1571 H1565 0.930 . S
C1571 C1567 1.400 . S
C1571 C1570 1.385 . S
C1572 C1570 1.478 . S
C1572 C1574 1.381 . S
C1572 C1578 1.383 . S
C1573 C1569 1.495 . S
C1573 H1579 0.959 . S
C1573 H1580 0.961 . S
C1573 H1581 0.960 . S
C1574 C1572 1.381 . S
C1574 C1575 1.394 . S
C1574 H1582 0.930 . S
C1575 C1574 1.394 . S
C1575 C1576 1.383 . S
C1575 H1583 0.929 . S
C1576 C1575 1.383 . S
C1576 C1577 1.377 . S
C1577 H1561 0.930 . S
C1577 C1576 1.377 . S
C1577 C1578 1.379 . S
C1578 H1562 0.931 . S
C1578 C1572 1.383 . S
C1578 C1577 1.379 . S
H1579 C1573 0.959 . S
H1580 C1573 0.961 . S
H1581 C1573 0.960 . S
H1582 C1574 0.930 . S
H1583 C1575 0.929 . S
H1584 C1592 0.929 . S
H1585 C1594 0.930 . S
H1586 C1596 0.930 . S
H1587 C1599 0.929 . S
H1588 C1602 0.930 . S
H1589 C1604 0.960 . S
H1590 C1604 0.960 . S
H1591 C1604 0.960 . S
C1592 H1584 0.929 . S
C1592 C1593 1.377 . S
C1592 C1594 1.384 . S
C1593 C1592 1.377 . S
C1593 C1599 1.390 . S
C1594 H1585 0.930 . S
C1594 C1592 1.384 . S
C1594 C1595 1.372 . S
C1595 C1594 1.372 . S
C1595 C1596 1.400 . S
C1595 C1600 1.490 . S
C1596 H1586 0.930 . S
C1596 C1595 1.400 . S
C1596 C1599 1.386 . S
H1597 C1613 0.930 . S
H1598 C1614 0.931 . S
C1599 H1587 0.929 . S
C1599 C1593 1.390 . S
C1599 C1596 1.386 . S
C1600 C1595 1.490 . S
C1600 C1602 1.395 . S
C1600 C1603 1.403 . S
H1601 C1607 0.930 . S
C1602 H1588 0.930 . S
C1602 C1600 1.395 . S
C1602 C1605 1.403 . S
C1603 C1600 1.403 . S
C1603 C1604 1.524 . S
C1603 C1607 1.400 . S
C1604 H1589 0.960 . S
C1604 H1590 0.960 . S
C1604 H1591 0.960 . S
C1604 C1603 1.524 . S
C1605 C1602 1.403 . S
C1605 C1606 1.392 . S
C1605 C1609 1.495 . S
C1606 C1605 1.392 . S
C1606 C1607 1.385 . S
C1606 C1608 1.478 . S
C1607 H1601 0.930 . S
C1607 C1603 1.400 . S
C1607 C1606 1.385 . S
C1608 C1606 1.478 . S
C1608 C1610 1.381 . S
C1608 C1614 1.383 . S
C1609 C1605 1.495 . S
C1609 H1615 0.959 . S
C1609 H1616 0.961 . S
C1609 H1617 0.960 . S
C1610 C1608 1.381 . S
C1610 C1611 1.394 . S
C1610 H1618 0.930 . S
C1611 C1610 1.394 . S
C1611 C1612 1.383 . S
C1611 H1619 0.929 . S
C1612 C1611 1.383 . S
C1612 C1613 1.377 . S
C1613 H1597 0.930 . S
C1613 C1612 1.377 . S
C1613 C1614 1.379 . S
C1614 H1598 0.931 . S
C1614 C1608 1.383 . S
C1614 C1613 1.379 . S
H1615 C1609 0.959 . S
H1616 C1609 0.961 . S
H1617 C1609 0.960 . S
H1618 C1610 0.930 . S
H1619 C1611 0.929 . S
H1620 C1628 0.929 . S
H1621 C1630 0.930 . S
H1622 C1632 0.930 . S
H1623 C1635 0.929 . S
H1624 C1638 0.930 . S
H1625 C1640 0.960 . S
H1626 C1640 0.960 . S
H1627 C1640 0.960 . S
C1628 H1620 0.929 . S
C1628 C1629 1.377 . S
C1628 C1630 1.384 . S
C1629 C1628 1.377 . S
C1629 C1635 1.390 . S
C1630 H1621 0.930 . S
C1630 C1628 1.384 . S
C1630 C1631 1.372 . S
C1631 C1630 1.372 . S
C1631 C1632 1.400 . S
C1631 C1636 1.490 . S
C1632 H1622 0.930 . S
C1632 C1631 1.400 . S
C1632 C1635 1.386 . S
H1633 C1649 0.930 . S
H1634 C1650 0.931 . S
C1635 H1623 0.929 . S
C1635 C1629 1.390 . S
C1635 C1632 1.386 . S
C1636 C1631 1.490 . S
C1636 C1638 1.395 . S
C1636 C1639 1.403 . S
H1637 C1643 0.930 . S
C1638 H1624 0.930 . S
C1638 C1636 1.395 . S
C1638 C1641 1.403 . S
C1639 C1636 1.403 . S
C1639 C1640 1.524 . S
C1639 C1643 1.400 . S
C1640 H1625 0.960 . S
C1640 H1626 0.960 . S
C1640 H1627 0.960 . S
C1640 C1639 1.524 . S
C1641 C1638 1.403 . S
C1641 C1642 1.392 . S
C1641 C1645 1.495 . S
C1642 C1641 1.392 . S
C1642 C1643 1.385 . S
C1642 C1644 1.478 . S
C1643 H1637 0.930 . S
C1643 C1639 1.400 . S
C1643 C1642 1.385 . S
C1644 C1642 1.478 . S
C1644 C1646 1.381 . S
C1644 C1650 1.383 . S
C1645 C1641 1.495 . S
C1645 H1651 0.959 . S
C1645 H1652 0.961 . S
C1645 H1653 0.960 . S
C1646 C1644 1.381 . S
C1646 C1647 1.394 . S
C1646 H1654 0.930 . S
C1647 C1646 1.394 . S
C1647 C1648 1.383 . S
C1647 H1655 0.929 . S
C1648 C1647 1.383 . S
C1648 C1649 1.377 . S
C1649 H1633 0.930 . S
C1649 C1648 1.377 . S
C1649 C1650 1.379 . S
C1650 H1634 0.931 . S
C1650 C1644 1.383 . S
C1650 C1649 1.379 . S
H1651 C1645 0.959 . S
H1652 C1645 0.961 . S
H1653 C1645 0.960 . S
H1654 C1646 0.930 . S
H1655 C1647 0.929 . S
H1656 C1664 0.929 . S
H1657 C1666 0.930 . S
H1658 C1668 0.930 . S
H1659 C1671 0.929 . S
H1660 C1674 0.930 . S
H1661 C1676 0.960 . S
H1662 C1676 0.960 . S
H1663 C1676 0.960 . S
C1664 H1656 0.929 . S
C1664 C1665 1.377 . S
C1664 C1666 1.384 . S
C1665 C1664 1.377 . S
C1665 C1671 1.390 . S
C1666 H1657 0.930 . S
C1666 C1664 1.384 . S
C1666 C1667 1.372 . S
C1667 C1666 1.372 . S
C1667 C1668 1.400 . S
C1667 C1672 1.490 . S
C1668 H1658 0.930 . S
C1668 C1667 1.400 . S
C1668 C1671 1.386 . S
H1669 C1685 0.930 . S
H1670 C1686 0.931 . S
C1671 H1659 0.929 . S
C1671 C1665 1.390 . S
C1671 C1668 1.386 . S
C1672 C1667 1.490 . S
C1672 C1674 1.395 . S
C1672 C1675 1.403 . S
H1673 C1679 0.930 . S
C1674 H1660 0.930 . S
C1674 C1672 1.395 . S
C1674 C1677 1.403 . S
C1675 C1672 1.403 . S
C1675 C1676 1.524 . S
C1675 C1679 1.400 . S
C1676 H1661 0.960 . S
C1676 H1662 0.960 . S
C1676 H1663 0.960 . S
C1676 C1675 1.524 . S
C1677 C1674 1.403 . S
C1677 C1678 1.392 . S
C1677 C1681 1.495 . S
C1678 C1677 1.392 . S
C1678 C1679 1.385 . S
C1678 C1680 1.478 . S
C1679 H1673 0.930 . S
C1679 C1675 1.400 . S
C1679 C1678 1.385 . S
C1680 C1678 1.478 . S
C1680 C1682 1.381 . S
C1680 C1686 1.383 . S
C1681 C1677 1.495 . S
C1681 H1687 0.959 . S
C1681 H1688 0.961 . S
C1681 H1689 0.960 . S
C1682 C1680 1.381 . S
C1682 C1683 1.394 . S
C1682 H1690 0.930 . S
C1683 C1682 1.394 . S
C1683 C1684 1.383 . S
C1683 H1691 0.929 . S
C1684 C1683 1.383 . S
C1684 C1685 1.377 . S
C1685 H1669 0.930 . S
C1685 C1684 1.377 . S
C1685 C1686 1.379 . S
C1686 H1670 0.931 . S
C1686 C1680 1.383 . S
C1686 C1685 1.379 . S
H1687 C1681 0.959 . S
H1688 C1681 0.961 . S
H1689 C1681 0.960 . S
H1690 C1682 0.930 . S
H1691 C1683 0.929 . S
H1692 C1700 0.929 . S
H1693 C1702 0.930 . S
H1694 C1704 0.930 . S
H1695 C1707 0.929 . S
H1696 C1710 0.930 . S
H1697 C1712 0.960 . S
H1698 C1712 0.960 . S
H1699 C1712 0.960 . S
C1700 H1692 0.929 . S
C1700 C1701 1.377 . S
C1700 C1702 1.384 . S
C1701 C1700 1.377 . S
C1701 C1707 1.390 . S
C1702 H1693 0.930 . S
C1702 C1700 1.384 . S
C1702 C1703 1.372 . S
C1703 C1702 1.372 . S
C1703 C1704 1.400 . S
C1703 C1708 1.490 . S
C1704 H1694 0.930 . S
C1704 C1703 1.400 . S
C1704 C1707 1.386 . S
H1705 C1721 0.930 . S
H1706 C1722 0.931 . S
C1707 H1695 0.929 . S
C1707 C1701 1.390 . S
C1707 C1704 1.386 . S
C1708 C1703 1.490 . S
C1708 C1710 1.395 . S
C1708 C1711 1.403 . S
H1709 C1715 0.930 . S
C1710 H1696 0.930 . S
C1710 C1708 1.395 . S
C1710 C1713 1.403 . S
C1711 C1708 1.403 . S
C1711 C1712 1.524 . S
C1711 C1715 1.400 . S
C1712 H1697 0.960 . S
C1712 H1698 0.960 . S
C1712 H1699 0.960 . S
C1712 C1711 1.524 . S
C1713 C1710 1.403 . S
C1713 C1714 1.392 . S
C1713 C1717 1.495 . S
C1714 C1713 1.392 . S
C1714 C1715 1.385 . S
C1714 C1716 1.478 . S
C1715 H1709 0.930 . S
C1715 C1711 1.400 . S
C1715 C1714 1.385 . S
C1716 C1714 1.478 . S
C1716 C1718 1.381 . S
C1716 C1722 1.383 . S
C1717 C1713 1.495 . S
C1717 H1723 0.959 . S
C1717 H1724 0.961 . S
C1717 H1725 0.960 . S
C1718 C1716 1.381 . S
C1718 C1719 1.394 . S
C1718 H1726 0.930 . S
C1719 C1718 1.394 . S
C1719 C1720 1.383 . S
C1719 H1727 0.929 . S
C1720 C1719 1.383 . S
C1720 C1721 1.377 . S
C1721 H1705 0.930 . S
C1721 C1720 1.377 . S
C1721 C1722 1.379 . S
C1722 H1706 0.931 . S
C1722 C1716 1.383 . S
C1722 C1721 1.379 . S
H1723 C1717 0.959 . S
H1724 C1717 0.961 . S
H1725 C1717 0.960 . S
H1726 C1718 0.930 . S
H1727 C1719 0.929 . S
H1728 C1736 0.929 . S
H1729 C1738 0.930 . S
H1730 C1740 0.930 . S
H1731 C1743 0.929 . S
H1732 C1746 0.930 . S
H1733 C1748 0.960 . S
H1734 C1748 0.960 . S
H1735 C1748 0.960 . S
C1736 H1728 0.929 . S
C1736 C1737 1.377 . S
C1736 C1738 1.384 . S
C1737 C1736 1.377 . S
C1737 C1743 1.390 . S
C1738 H1729 0.930 . S
C1738 C1736 1.384 . S
C1738 C1739 1.372 . S
C1739 C1738 1.372 . S
C1739 C1740 1.400 . S
C1739 C1744 1.490 . S
C1740 H1730 0.930 . S
C1740 C1739 1.400 . S
C1740 C1743 1.386 . S
H1741 C1757 0.930 . S
H1742 C1758 0.931 . S
C1743 H1731 0.929 . S
C1743 C1737 1.390 . S
C1743 C1740 1.386 . S
C1744 C1739 1.490 . S
C1744 C1746 1.395 . S
C1744 C1747 1.403 . S
H1745 C1751 0.930 . S
C1746 H1732 0.930 . S
C1746 C1744 1.395 . S
C1746 C1749 1.403 . S
C1747 C1744 1.403 . S
C1747 C1748 1.524 . S
C1747 C1751 1.400 . S
C1748 H1733 0.960 . S
C1748 H1734 0.960 . S
C1748 H1735 0.960 . S
C1748 C1747 1.524 . S
C1749 C1746 1.403 . S
C1749 C1750 1.392 . S
C1749 C1753 1.495 . S
C1750 C1749 1.392 . S
C1750 C1751 1.385 . S
C1750 C1752 1.478 . S
C1751 H1745 0.930 . S
C1751 C1747 1.400 . S
C1751 C1750 1.385 . S
C1752 C1750 1.478 . S
C1752 C1754 1.381 . S
C1752 C1758 1.383 . S
C1753 C1749 1.495 . S
C1753 H1759 0.959 . S
C1753 H1760 0.961 . S
C1753 H1761 0.960 . S
C1754 C1752 1.381 . S
C1754 C1755 1.394 . S
C1754 H1762 0.930 . S
C1755 C1754 1.394 . S
C1755 C1756 1.383 . S
C1755 H1763 0.929 . S
C1756 C1755 1.383 . S
C1756 C1757 1.377 . S
C1757 H1741 0.930 . S
C1757 C1756 1.377 . S
C1757 C1758 1.379 . S
C1758 H1742 0.931 . S
C1758 C1752 1.383 . S
C1758 C1757 1.379 . S
H1759 C1753 0.959 . S
H1760 C1753 0.961 . S
H1761 C1753 0.960 . S
H1762 C1754 0.930 . S
H1763 C1755 0.929 . S
H1764 C1772 0.929 . S
H1765 C1774 0.930 . S
H1766 C1776 0.930 . S
H1767 C1779 0.929 . S
H1768 C1782 0.930 . S
H1769 C1784 0.960 . S
H1770 C1784 0.960 . S
H1771 C1784 0.960 . S
C1772 H1764 0.929 . S
C1772 C1773 1.377 . S
C1772 C1774 1.384 . S
C1773 C1772 1.377 . S
C1773 C1779 1.390 . S
C1774 H1765 0.930 . S
C1774 C1772 1.384 . S
C1774 C1775 1.372 . S
C1775 C1774 1.372 . S
C1775 C1776 1.400 . S
C1775 C1780 1.490 . S
C1776 H1766 0.930 . S
C1776 C1775 1.400 . S
C1776 C1779 1.386 . S
H1777 C1793 0.930 . S
H1778 C1794 0.931 . S
C1779 H1767 0.929 . S
C1779 C1773 1.390 . S
C1779 C1776 1.386 . S
C1780 C1775 1.490 . S
C1780 C1782 1.395 . S
C1780 C1783 1.403 . S
H1781 C1787 0.930 . S
C1782 H1768 0.930 . S
C1782 C1780 1.395 . S
C1782 C1785 1.403 . S
C1783 C1780 1.403 . S
C1783 C1784 1.524 . S
C1783 C1787 1.400 . S
C1784 H1769 0.960 . S
C1784 H1770 0.960 . S
C1784 H1771 0.960 . S
C1784 C1783 1.524 . S
C1785 C1782 1.403 . S
C1785 C1786 1.392 . S
C1785 C1789 1.495 . S
C1786 C1785 1.392 . S
C1786 C1787 1.385 . S
C1786 C1788 1.478 . S
C1787 H1781 0.930 . S
C1787 C1783 1.400 . S
C1787 C1786 1.385 . S
C1788 C1786 1.478 . S
C1788 C1790 1.381 . S
C1788 C1794 1.383 . S
C1789 C1785 1.495 . S
C1789 H1795 0.959 . S
C1789 H1796 0.961 . S
C1789 H1797 0.960 . S
C1790 C1788 1.381 . S
C1790 C1791 1.394 . S
C1790 H1798 0.930 . S
C1791 C1790 1.394 . S
C1791 C1792 1.383 . S
C1791 H1799 0.929 . S
C1792 C1791 1.383 . S
C1792 C1793 1.377 . S
C1793 H1777 0.930 . S
C1793 C1792 1.377 . S
C1793 C1794 1.379 . S
C1794 H1778 0.931 . S
C1794 C1788 1.383 . S
C1794 C1793 1.379 . S
H1795 C1789 0.959 . S
H1796 C1789 0.961 . S
H1797 C1789 0.960 . S
H1798 C1790 0.930 . S
H1799 C1791 0.929 . S
H1800 C1808 0.929 . S
H1801 C1810 0.930 . S
H1802 C1812 0.930 . S
H1803 C1815 0.929 . S
H1804 C1818 0.930 . S
H1805 C1820 0.960 . S
H1806 C1820 0.960 . S
H1807 C1820 0.960 . S
C1808 H1800 0.929 . S
C1808 C1809 1.377 . S
C1808 C1810 1.384 . S
C1809 C1808 1.377 . S
C1809 C1815 1.390 . S
C1810 H1801 0.930 . S
C1810 C1808 1.384 . S
C1810 C1811 1.372 . S
C1811 C1810 1.372 . S
C1811 C1812 1.400 . S
C1811 C1816 1.490 . S
C1812 H1802 0.930 . S
C1812 C1811 1.400 . S
C1812 C1815 1.386 . S
H1813 C1829 0.930 . S
H1814 C1830 0.931 . S
C1815 H1803 0.929 . S
C1815 C1809 1.390 . S
C1815 C1812 1.386 . S
C1816 C1811 1.490 . S
C1816 C1818 1.395 . S
C1816 C1819 1.403 . S
H1817 C1823 0.930 . S
C1818 H1804 0.930 . S
C1818 C1816 1.395 . S
C1818 C1821 1.403 . S
C1819 C1816 1.403 . S
C1819 C1820 1.524 . S
C1819 C1823 1.400 . S
C1820 H1805 0.960 . S
C1820 H1806 0.960 . S
C1820 H1807 0.960 . S
C1820 C1819 1.524 . S
C1821 C1818 1.403 . S
C1821 C1822 1.392 . S
C1821 C1825 1.495 . S
C1822 C1821 1.392 . S
C1822 C1823 1.385 . S
C1822 C1824 1.478 . S
C1823 H1817 0.930 . S
C1823 C1819 1.400 . S
C1823 C1822 1.385 . S
C1824 C1822 1.478 . S
C1824 C1826 1.381 . S
C1824 C1830 1.383 . S
C1825 C1821 1.495 . S
C1825 H1831 0.959 . S
C1825 H1832 0.961 . S
C1825 H1833 0.960 . S
C1826 C1824 1.381 . S
C1826 C1827 1.394 . S
C1826 H1834 0.930 . S
C1827 C1826 1.394 . S
C1827 C1828 1.383 . S
C1827 H1835 0.929 . S
C1828 C1827 1.383 . S
C1828 C1829 1.377 . S
C1829 H1813 0.930 . S
C1829 C1828 1.377 . S
C1829 C1830 1.379 . S
C1830 H1814 0.931 . S
C1830 C1824 1.383 . S
C1830 C1829 1.379 . S
H1831 C1825 0.959 . S
H1832 C1825 0.961 . S
H1833 C1825 0.960 . S
H1834 C1826 0.930 . S
H1835 C1827 0.929 . S
H1836 C1844 0.929 . S
H1837 C1846 0.930 . S
H1838 C1848 0.930 . S
H1839 C1851 0.929 . S
H1840 C1854 0.930 . S
H1841 C1856 0.960 . S
H1842 C1856 0.960 . S
H1843 C1856 0.960 . S
C1844 H1836 0.929 . S
C1844 C1845 1.377 . S
C1844 C1846 1.384 . S
C1845 C1844 1.377 . S
C1845 C1851 1.390 . S
C1846 H1837 0.930 . S
C1846 C1844 1.384 . S
C1846 C1847 1.372 . S
C1847 C1846 1.372 . S
C1847 C1848 1.400 . S
C1847 C1852 1.490 . S
C1848 H1838 0.930 . S
C1848 C1847 1.400 . S
C1848 C1851 1.386 . S
H1849 C1865 0.930 . S
H1850 C1866 0.931 . S
C1851 H1839 0.929 . S
C1851 C1845 1.390 . S
C1851 C1848 1.386 . S
C1852 C1847 1.490 . S
C1852 C1854 1.395 . S
C1852 C1855 1.403 . S
H1853 C1859 0.930 . S
C1854 H1840 0.930 . S
C1854 C1852 1.395 . S
C1854 C1857 1.403 . S
C1855 C1852 1.403 . S
C1855 C1856 1.524 . S
C1855 C1859 1.400 . S
C1856 H1841 0.960 . S
C1856 H1842 0.960 . S
C1856 H1843 0.960 . S
C1856 C1855 1.524 . S
C1857 C1854 1.403 . S
C1857 C1858 1.392 . S
C1857 C1861 1.495 . S
C1858 C1857 1.392 . S
C1858 C1859 1.385 . S
C1858 C1860 1.478 . S
C1859 H1853 0.930 . S
C1859 C1855 1.400 . S
C1859 C1858 1.385 . S
C1860 C1858 1.478 . S
C1860 C1862 1.381 . S
C1860 C1866 1.383 . S
C1861 C1857 1.495 . S
C1861 H1867 0.959 . S
C1861 H1868 0.961 . S
C1861 H1869 0.960 . S
C1862 C1860 1.381 . S
C1862 C1863 1.394 . S
C1862 H1870 0.930 . S
C1863 C1862 1.394 . S
C1863 C1864 1.383 . S
C1863 H1871 0.929 . S
C1864 C1863 1.383 . S
C1864 C1865 1.377 . S
C1865 H1849 0.930 . S
C1865 C1864 1.377 . S
C1865 C1866 1.379 . S
C1866 H1850 0.931 . S
C1866 C1860 1.383 . S
C1866 C1865 1.379 . S
H1867 C1861 0.959 . S
H1868 C1861 0.961 . S
H1869 C1861 0.960 . S
H1870 C1862 0.930 . S
H1871 C1863 0.929 . S
H1872 C1880 0.929 . S
H1873 C1882 0.930 . S
H1874 C1884 0.930 . S
H1875 C1887 0.929 . S
H1876 C1890 0.930 . S
H1877 C1892 0.960 . S
H1878 C1892 0.960 . S
H1879 C1892 0.960 . S
C1880 H1872 0.929 . S
C1880 C1881 1.377 . S
C1880 C1882 1.384 . S
C1881 C1880 1.377 . S
C1881 C1887 1.390 . S
C1882 H1873 0.930 . S
C1882 C1880 1.384 . S
C1882 C1883 1.372 . S
C1883 C1882 1.372 . S
C1883 C1884 1.400 . S
C1883 C1888 1.490 . S
C1884 H1874 0.930 . S
C1884 C1883 1.400 . S
C1884 C1887 1.386 . S
H1885 C1901 0.930 . S
H1886 C1902 0.931 . S
C1887 H1875 0.929 . S
C1887 C1881 1.390 . S
C1887 C1884 1.386 . S
C1888 C1883 1.490 . S
C1888 C1890 1.395 . S
C1888 C1891 1.403 . S
H1889 C1895 0.930 . S
C1890 H1876 0.930 . S
C1890 C1888 1.395 . S
C1890 C1893 1.403 . S
C1891 C1888 1.403 . S
C1891 C1892 1.524 . S
C1891 C1895 1.400 . S
C1892 H1877 0.960 . S
C1892 H1878 0.960 . S
C1892 H1879 0.960 . S
C1892 C1891 1.524 . S
C1893 C1890 1.403 . S
C1893 C1894 1.392 . S
C1893 C1897 1.495 . S
C1894 C1893 1.392 . S
C1894 C1895 1.385 . S
C1894 C1896 1.478 . S
C1895 H1889 0.930 . S
C1895 C1891 1.400 . S
C1895 C1894 1.385 . S
C1896 C1894 1.478 . S
C1896 C1898 1.381 . S
C1896 C1902 1.383 . S
C1897 C1893 1.495 . S
C1897 H1903 0.959 . S
C1897 H1904 0.961 . S
C1897 H1905 0.960 . S
C1898 C1896 1.381 . S
C1898 C1899 1.394 . S
C1898 H1906 0.930 . S
C1899 C1898 1.394 . S
C1899 C1900 1.383 . S
C1899 H1907 0.929 . S
C1900 C1899 1.383 . S
C1900 C1901 1.377 . S
C1901 H1885 0.930 . S
C1901 C1900 1.377 . S
C1901 C1902 1.379 . S
C1902 H1886 0.931 . S
C1902 C1896 1.383 . S
C1902 C1901 1.379 . S
H1903 C1897 0.959 . S
H1904 C1897 0.961 . S
H1905 C1897 0.960 . S
H1906 C1898 0.930 . S
H1907 C1899 0.929 . S
H1908 C1916 0.929 . S
H1909 C1918 0.930 . S
H1910 C1920 0.930 . S
H1911 C1923 0.929 . S
H1912 C1926 0.930 . S
H1913 C1928 0.960 . S
H1914 C1928 0.960 . S
H1915 C1928 0.960 . S
C1916 H1908 0.929 . S
C1916 C1917 1.377 . S
C1916 C1918 1.384 . S
C1917 C1916 1.377 . S
C1917 C1923 1.390 . S
C1918 H1909 0.930 . S
C1918 C1916 1.384 . S
C1918 C1919 1.372 . S
C1919 C1918 1.372 . S
C1919 C1920 1.400 . S
C1919 C1924 1.490 . S
C1920 H1910 0.930 . S
C1920 C1919 1.400 . S
C1920 C1923 1.386 . S
H1921 C1937 0.930 . S
H1922 C1938 0.931 . S
C1923 H1911 0.929 . S
C1923 C1917 1.390 . S
C1923 C1920 1.386 . S
C1924 C1919 1.490 . S
C1924 C1926 1.395 . S
C1924 C1927 1.403 . S
H1925 C1931 0.930 . S
C1926 H1912 0.930 . S
C1926 C1924 1.395 . S
C1926 C1929 1.403 . S
C1927 C1924 1.403 . S
C1927 C1928 1.524 . S
C1927 C1931 1.400 . S
C1928 H1913 0.960 . S
C1928 H1914 0.960 . S
C1928 H1915 0.960 . S
C1928 C1927 1.524 . S
C1929 C1926 1.403 . S
C1929 C1930 1.392 . S
C1929 C1933 1.495 . S
C1930 C1929 1.392 . S
C1930 C1931 1.385 . S
C1930 C1932 1.478 . S
C1931 H1925 0.930 . S
C1931 C1927 1.400 . S
C1931 C1930 1.385 . S
C1932 C1930 1.478 . S
C1932 C1934 1.381 . S
C1932 C1938 1.383 . S
C1933 C1929 1.495 . S
C1933 H1939 0.959 . S
C1933 H1940 0.961 . S
C1933 H1941 0.960 . S
C1934 C1932 1.381 . S
C1934 C1935 1.394 . S
C1934 H1942 0.930 . S
C1935 C1934 1.394 . S
C1935 C1936 1.383 . S
C1935 H1943 0.929 . S
C1936 C1935 1.383 . S
C1936 C1937 1.377 . S
C1937 H1921 0.930 . S
C1937 C1936 1.377 . S
C1937 C1938 1.379 . S
C1938 H1922 0.931 . S
C1938 C1932 1.383 . S
C1938 C1937 1.379 . S
H1939 C1933 0.959 . S
H1940 C1933 0.961 . S
H1941 C1933 0.960 . S
H1942 C1934 0.930 . S
H1943 C1935 0.929 . S
H1944 C1952 0.929 . S
H1945 C1954 0.930 . S
H1946 C1956 0.930 . S
H1947 C1959 0.929 . S
H1948 C1962 0.930 . S
H1949 C1964 0.960 . S
H1950 C1964 0.960 . S
H1951 C1964 0.960 . S
C1952 H1944 0.929 . S
C1952 C1953 1.377 . S
C1952 C1954 1.384 . S
C1953 C1952 1.377 . S
C1953 C1959 1.390 . S
C1954 H1945 0.930 . S
C1954 C1952 1.384 . S
C1954 C1955 1.372 . S
C1955 C1954 1.372 . S
C1955 C1956 1.400 . S
C1955 C1960 1.490 . S
C1956 H1946 0.930 . S
C1956 C1955 1.400 . S
C1956 C1959 1.386 . S
H1957 C1973 0.930 . S
H1958 C1974 0.931 . S
C1959 H1947 0.929 . S
C1959 C1953 1.390 . S
C1959 C1956 1.386 . S
C1960 C1955 1.490 . S
C1960 C1962 1.395 . S
C1960 C1963 1.403 . S
H1961 C1967 0.930 . S
C1962 H1948 0.930 . S
C1962 C1960 1.395 . S
C1962 C1965 1.403 . S
C1963 C1960 1.403 . S
C1963 C1964 1.524 . S
C1963 C1967 1.400 . S
C1964 H1949 0.960 . S
C1964 H1950 0.960 . S
C1964 H1951 0.960 . S
C1964 C1963 1.524 . S
C1965 C1962 1.403 . S
C1965 C1966 1.392 . S
C1965 C1969 1.495 . S
C1966 C1965 1.392 . S
C1966 C1967 1.385 . S
C1966 C1968 1.478 . S
C1967 H1961 0.930 . S
C1967 C1963 1.400 . S
C1967 C1966 1.385 . S
C1968 C1966 1.478 . S
C1968 C1970 1.381 . S
C1968 C1974 1.383 . S
C1969 C1965 1.495 . S
C1969 H1975 0.959 . S
C1969 H1976 0.961 . S
C1969 H1977 0.960 . S
C1970 C1968 1.381 . S
C1970 C1971 1.394 . S
C1970 H1978 0.930 . S
C1971 C1970 1.394 . S
C1971 C1972 1.383 . S
C1971 H1979 0.929 . S
C1972 C1971 1.383 . S
C1972 C1973 1.377 . S
C1973 H1957 0.930 . S
C1973 C1972 1.377 . S
C1973 C1974 1.379 . S
C1974 H1958 0.931 . S
C1974 C1968 1.383 . S
C1974 C1973 1.379 . S
H1975 C1969 0.959 . S
H1976 C1969 0.961 . S
H1977 C1969 0.960 . S
H1978 C1970 0.930 . S
H1979 C1971 0.929 . S
H1980 C1988 0.929 . S
H1981 C1990 0.930 . S
H1982 C1992 0.930 . S
H1983 C1995 0.929 1_554 S
H1984 C1998 0.930 . S
H1985 C2000 0.960 . S
H1986 C2000 0.960 . S
H1987 C2000 0.960 . S
C1988 H1980 0.929 . S
C1988 C1989 1.377 . S
C1988 C1990 1.384 . S
C1989 C1988 1.377 . S
C1989 C1995 1.390 . S
C1990 H1981 0.930 . S
C1990 C1988 1.384 . S
C1990 C1991 1.372 . S
C1991 C1990 1.372 . S
C1991 C1992 1.400 . S
C1991 C1996 1.490 . S
C1992 H1982 0.930 . S
C1992 C1991 1.400 . S
C1992 C1995 1.386 . S
H1993 C2009 0.930 . S
H1994 C2010 0.931 . S
C1995 H1983 0.929 1_556 S
C1995 C1989 1.390 . S
C1995 C1992 1.386 . S
C1996 C1991 1.490 . S
C1996 C1998 1.395 . S
C1996 C1999 1.403 . S
H1997 C2003 0.930 . S
C1998 H1984 0.930 . S
C1998 C1996 1.395 . S
C1998 C2001 1.403 . S
C1999 C1996 1.403 . S
C1999 C2000 1.524 . S
C1999 C2003 1.400 . S
C2000 H1985 0.960 . S
C2000 H1986 0.960 . S
C2000 H1987 0.960 . S
C2000 C1999 1.524 . S
C2001 C1998 1.403 . S
C2001 C2002 1.392 . S
C2001 C2005 1.495 . S
C2002 C2001 1.392 . S
C2002 C2003 1.385 . S
C2002 C2004 1.478 . S
C2003 H1997 0.930 . S
C2003 C1999 1.400 . S
C2003 C2002 1.385 . S
C2004 C2002 1.478 . S
C2004 C2006 1.381 . S
C2004 C2010 1.383 . S
C2005 C2001 1.495 . S
C2005 H2011 0.959 . S
C2005 H2012 0.961 . S
C2005 H2013 0.960 . S
C2006 C2004 1.381 . S
C2006 C2007 1.394 . S
C2006 H2014 0.930 . S
C2007 C2006 1.394 . S
C2007 C2008 1.383 . S
C2007 H2015 0.929 . S
C2008 C2007 1.383 . S
C2008 C2009 1.377 . S
C2009 H1993 0.930 . S
C2009 C2008 1.377 . S
C2009 C2010 1.379 . S
C2010 H1994 0.931 . S
C2010 C2004 1.383 . S
C2010 C2009 1.379 . S
H2011 C2005 0.959 . S
H2012 C2005 0.961 . S
H2013 C2005 0.960 . S
H2014 C2006 0.930 . S
H2015 C2007 0.929 . S
H2016 C2024 0.927 1_554 S
H2017 C2026 0.930 . S
H2018 C2028 0.930 . S
H2019 C2031 0.929 . S
H2020 C2034 0.930 . S
H2021 C2036 0.960 . S
H2022 C2036 0.960 . S
H2023 C2036 0.960 . S
C2024 H2016 0.927 1_556 S
C2024 C2025 1.377 . S
C2024 C2026 1.384 . S
C2025 C2024 1.377 . S
C2025 C2031 1.390 . S
C2026 H2017 0.930 . S
C2026 C2024 1.384 . S
C2026 C2027 1.372 . S
C2027 C2026 1.372 . S
C2027 C2028 1.400 . S
C2027 C2032 1.490 . S
C2028 H2018 0.930 . S
C2028 C2027 1.400 . S
C2028 C2031 1.386 . S
H2029 C2045 0.930 . S
H2030 C2046 0.931 . S
C2031 H2019 0.929 . S
C2031 C2025 1.390 . S
C2031 C2028 1.386 . S
C2032 C2027 1.490 . S
C2032 C2034 1.395 . S
C2032 C2035 1.403 . S
H2033 C2039 0.930 . S
C2034 H2020 0.930 . S
C2034 C2032 1.395 . S
C2034 C2037 1.403 . S
C2035 C2032 1.403 . S
C2035 C2036 1.524 . S
C2035 C2039 1.400 . S
C2036 H2021 0.960 . S
C2036 H2022 0.960 . S
C2036 H2023 0.960 . S
C2036 C2035 1.524 . S
C2037 C2034 1.403 . S
C2037 C2038 1.392 . S
C2037 C2041 1.495 . S
C2038 C2037 1.392 . S
C2038 C2039 1.385 . S
C2038 C2040 1.478 . S
C2039 H2033 0.930 . S
C2039 C2035 1.400 . S
C2039 C2038 1.385 . S
C2040 C2038 1.478 . S
C2040 C2042 1.381 . S
C2040 C2046 1.383 . S
C2041 C2037 1.495 . S
C2041 H2047 0.959 . S
C2041 H2048 0.961 . S
C2041 H2049 0.960 . S
C2042 C2040 1.381 . S
C2042 C2043 1.394 . S
C2042 H2050 0.930 . S
C2043 C2042 1.394 . S
C2043 C2044 1.383 . S
C2043 H2051 0.929 . S
C2044 C2043 1.383 . S
C2044 C2045 1.377 . S
C2045 H2029 0.930 . S
C2045 C2044 1.377 . S
C2045 C2046 1.379 . S
C2046 H2030 0.931 . S
C2046 C2040 1.383 . S
C2046 C2045 1.379 . S
H2047 C2041 0.959 . S
H2048 C2041 0.961 . S
H2049 C2041 0.960 . S
H2050 C2042 0.930 . S
H2051 C2043 0.929 . S
H2052 C2060 0.929 . S
H2053 C2062 0.930 . S
H2054 C2064 0.930 . S
H2055 C2067 0.929 . S
H2056 C2070 0.930 . S
H2057 C2072 0.960 . S
H2058 C2072 0.960 . S
H2059 C2072 0.960 . S
C2060 H2052 0.929 . S
C2060 C2061 1.377 . S
C2060 C2062 1.384 . S
C2061 C2060 1.377 . S
C2061 C2067 1.390 . S
C2062 H2053 0.930 . S
C2062 C2060 1.384 . S
C2062 C2063 1.372 . S
C2063 C2062 1.372 . S
C2063 C2064 1.400 . S
C2063 C2068 1.490 . S
C2064 H2054 0.930 . S
C2064 C2063 1.400 . S
C2064 C2067 1.386 . S
H2065 C2081 0.930 . S
H2066 C2082 0.931 . S
C2067 H2055 0.929 . S
C2067 C2061 1.390 . S
C2067 C2064 1.386 . S
C2068 C2063 1.490 . S
C2068 C2070 1.395 . S
C2068 C2071 1.403 . S
H2069 C2075 0.930 . S
C2070 H2056 0.930 . S
C2070 C2068 1.395 . S
C2070 C2073 1.403 . S
C2071 C2068 1.403 . S
C2071 C2072 1.524 . S
C2071 C2075 1.400 . S
C2072 H2057 0.960 . S
C2072 H2058 0.960 . S
C2072 H2059 0.960 . S
C2072 C2071 1.524 . S
C2073 C2070 1.403 . S
C2073 C2074 1.392 . S
C2073 C2077 1.495 . S
C2074 C2073 1.392 . S
C2074 C2075 1.385 . S
C2074 C2076 1.478 . S
C2075 H2069 0.930 . S
C2075 C2071 1.400 . S
C2075 C2074 1.385 . S
C2076 C2074 1.478 . S
C2076 C2078 1.381 . S
C2076 C2082 1.383 . S
C2077 C2073 1.495 . S
C2077 H2083 0.959 . S
C2077 H2084 0.961 . S
C2077 H2085 0.960 . S
C2078 C2076 1.381 . S
C2078 C2079 1.394 . S
C2078 H2086 0.930 . S
C2079 C2078 1.394 . S
C2079 C2080 1.383 . S
C2079 H2087 0.929 . S
C2080 C2079 1.383 . S
C2080 C2081 1.377 . S
C2081 H2065 0.930 . S
C2081 C2080 1.377 . S
C2081 C2082 1.379 . S
C2082 H2066 0.931 . S
C2082 C2076 1.383 . S
C2082 C2081 1.379 . S
H2083 C2077 0.959 . S
H2084 C2077 0.961 . S
H2085 C2077 0.960 . S
H2086 C2078 0.930 . S
H2087 C2079 0.929 . S
H2088 C2096 0.929 . S
H2089 C2098 0.930 . S
H2090 C2100 0.930 . S
H2091 C2103 0.929 1_554 S
H2092 C2106 0.930 . S
H2093 C2108 0.960 . S
H2094 C2108 0.960 . S
H2095 C2108 0.960 . S
C2096 H2088 0.929 . S
C2096 C2097 1.377 . S
C2096 C2098 1.384 . S
C2097 C2096 1.377 . S
C2097 C2103 1.390 . S
C2098 H2089 0.930 . S
C2098 C2096 1.384 . S
C2098 C2099 1.372 . S
C2099 C2098 1.372 . S
C2099 C2100 1.400 . S
C2099 C2104 1.490 . S
C2100 H2090 0.930 . S
C2100 C2099 1.400 . S
C2100 C2103 1.386 . S
H2101 C2117 0.930 . S
H2102 C2118 0.931 . S
C2103 H2091 0.929 1_556 S
C2103 C2097 1.390 . S
C2103 C2100 1.386 . S
C2104 C2099 1.490 . S
C2104 C2106 1.395 . S
C2104 C2107 1.403 . S
H2105 C2111 0.930 . S
C2106 H2092 0.930 . S
C2106 C2104 1.395 . S
C2106 C2109 1.403 . S
C2107 C2104 1.403 . S
C2107 C2108 1.524 . S
C2107 C2111 1.400 . S
C2108 H2093 0.960 . S
C2108 H2094 0.960 . S
C2108 H2095 0.960 . S
C2108 C2107 1.524 . S
C2109 C2106 1.403 . S
C2109 C2110 1.392 . S
C2109 C2113 1.495 . S
C2110 C2109 1.392 . S
C2110 C2111 1.385 . S
C2110 C2112 1.478 . S
C2111 H2105 0.930 . S
C2111 C2107 1.400 . S
C2111 C2110 1.385 . S
C2112 C2110 1.478 . S
C2112 C2114 1.381 . S
C2112 C2118 1.383 . S
C2113 C2109 1.495 . S
C2113 H2119 0.959 . S
C2113 H2120 0.961 . S
C2113 H2121 0.960 . S
C2114 C2112 1.381 . S
C2114 C2115 1.394 . S
C2114 H2122 0.930 . S
C2115 C2114 1.394 . S
C2115 C2116 1.383 . S
C2115 H2123 0.929 . S
C2116 C2115 1.383 . S
C2116 C2117 1.377 . S
C2117 H2101 0.930 . S
C2117 C2116 1.377 . S
C2117 C2118 1.379 . S
C2118 H2102 0.931 . S
C2118 C2112 1.383 . S
C2118 C2117 1.379 . S
H2119 C2113 0.959 . S
H2120 C2113 0.961 . S
H2121 C2113 0.960 . S
H2122 C2114 0.930 . S
H2123 C2115 0.929 . S
H2124 C2132 0.929 . S
H2125 C2134 0.930 . S
H2126 C2136 0.930 . S
H2127 C2139 0.929 . S
H2128 C2142 0.930 . S
H2129 C2144 0.960 . S
H2130 C2144 0.960 . S
H2131 C2144 0.960 . S
C2132 H2124 0.929 . S
C2132 C2133 1.377 . S
C2132 C2134 1.384 . S
C2133 C2132 1.377 . S
C2133 C2139 1.390 . S
C2134 H2125 0.930 . S
C2134 C2132 1.384 . S
C2134 C2135 1.372 . S
C2135 C2134 1.372 . S
C2135 C2136 1.400 . S
C2135 C2140 1.490 . S
C2136 H2126 0.930 . S
C2136 C2135 1.400 . S
C2136 C2139 1.386 . S
H2137 C2153 0.930 . S
H2138 C2154 0.931 . S
C2139 H2127 0.929 . S
C2139 C2133 1.390 . S
C2139 C2136 1.386 . S
C2140 C2135 1.490 . S
C2140 C2142 1.395 . S
C2140 C2143 1.403 . S
H2141 C2147 0.930 . S
C2142 H2128 0.930 . S
C2142 C2140 1.395 . S
C2142 C2145 1.403 . S
C2143 C2140 1.403 . S
C2143 C2144 1.524 . S
C2143 C2147 1.400 . S
C2144 H2129 0.960 . S
C2144 H2130 0.960 . S
C2144 H2131 0.960 . S
C2144 C2143 1.524 . S
C2145 C2142 1.403 . S
C2145 C2146 1.392 . S
C2145 C2149 1.495 . S
C2146 C2145 1.392 . S
C2146 C2147 1.385 . S
C2146 C2148 1.478 . S
C2147 H2141 0.930 . S
C2147 C2143 1.400 . S
C2147 C2146 1.385 . S
C2148 C2146 1.478 . S
C2148 C2150 1.381 . S
C2148 C2154 1.383 . S
C2149 C2145 1.495 . S
C2149 H2155 0.959 . S
C2149 H2156 0.961 . S
C2149 H2157 0.960 . S
C2150 C2148 1.381 . S
C2150 C2151 1.394 . S
C2150 H2158 0.930 . S
C2151 C2150 1.394 . S
C2151 C2152 1.383 . S
C2151 H2159 0.929 . S
C2152 C2151 1.383 . S
C2152 C2153 1.377 . S
C2153 H2137 0.930 . S
C2153 C2152 1.377 . S
C2153 C2154 1.379 . S
C2154 H2138 0.931 . S
C2154 C2148 1.383 . S
C2154 C2153 1.379 . S
H2155 C2149 0.959 . S
H2156 C2149 0.961 . S
H2157 C2149 0.960 . S
H2158 C2150 0.930 . S
H2159 C2151 0.929 . S
H2160 C2168 0.929 . S
H2161 C2170 0.930 . S
H2162 C2172 0.930 . S
H2163 C2175 0.929 1_554 S
H2164 C2178 0.930 . S
H2165 C2180 0.960 . S
H2166 C2180 0.960 . S
H2167 C2180 0.960 1_554 S
C2168 H2160 0.929 . S
C2168 C2169 1.377 . S
C2168 C2170 1.384 . S
C2169 C2168 1.377 . S
C2169 C2175 1.390 . S
C2170 H2161 0.930 . S
C2170 C2168 1.384 . S
C2170 C2171 1.372 . S
C2171 C2170 1.372 . S
C2171 C2172 1.400 . S
C2171 C2176 1.490 . S
C2172 H2162 0.930 . S
C2172 C2171 1.400 . S
C2172 C2175 1.386 . S
H2173 C2189 0.930 . S
H2174 C2190 0.931 . S
C2175 H2163 0.929 1_556 S
C2175 C2169 1.390 . S
C2175 C2172 1.386 . S
C2176 C2171 1.490 . S
C2176 C2178 1.395 . S
C2176 C2179 1.403 . S
H2177 C2183 0.930 . S
C2178 H2164 0.930 . S
C2178 C2176 1.395 . S
C2178 C2181 1.403 . S
C2179 C2176 1.403 . S
C2179 C2180 1.524 . S
C2179 C2183 1.400 . S
C2180 H2165 0.960 . S
C2180 H2166 0.960 . S
C2180 H2167 0.960 1_556 S
C2180 C2179 1.524 . S
C2181 C2178 1.403 . S
C2181 C2182 1.392 . S
C2181 C2185 1.495 . S
C2182 C2181 1.392 . S
C2182 C2183 1.385 . S
C2182 C2184 1.478 . S
C2183 H2177 0.930 . S
C2183 C2179 1.400 . S
C2183 C2182 1.385 . S
C2184 C2182 1.478 . S
C2184 C2186 1.381 . S
C2184 C2190 1.383 . S
C2185 C2181 1.495 . S
C2185 H2191 0.959 . S
C2185 H2192 0.961 . S
C2185 H2193 0.960 . S
C2186 C2184 1.381 . S
C2186 C2187 1.394 . S
C2186 H2194 0.930 . S
C2187 C2186 1.394 . S
C2187 C2188 1.383 . S
C2187 H2195 0.929 . S
C2188 C2187 1.383 . S
C2188 C2189 1.377 . S
C2189 H2173 0.930 . S
C2189 C2188 1.377 . S
C2189 C2190 1.379 . S
C2190 H2174 0.931 . S
C2190 C2184 1.383 . S
C2190 C2189 1.379 . S
H2191 C2185 0.959 . S
H2192 C2185 0.961 . S
H2193 C2185 0.960 . S
H2194 C2186 0.930 . S
H2195 C2187 0.929 . S
H2196 C2204 0.929 . S
H2197 C2206 0.930 . S
H2198 C2208 0.930 . S
H2199 C2211 0.929 . S
H2200 C2214 0.930 . S
H2201 C2216 0.960 . S
H2202 C2216 0.960 . S
H2203 C2216 0.960 . S
C2204 H2196 0.929 . S
C2204 C2205 1.377 . S
C2204 C2206 1.384 . S
C2205 C2204 1.377 . S
C2205 C2211 1.390 . S
C2206 H2197 0.930 . S
C2206 C2204 1.384 . S
C2206 C2207 1.372 . S
C2207 C2206 1.372 . S
C2207 C2208 1.400 . S
C2207 C2212 1.490 . S
C2208 H2198 0.930 . S
C2208 C2207 1.400 . S
C2208 C2211 1.386 . S
H2209 C2225 0.930 . S
H2210 C2226 0.931 . S
C2211 H2199 0.929 . S
C2211 C2205 1.390 . S
C2211 C2208 1.386 . S
C2212 C2207 1.490 . S
C2212 C2214 1.395 . S
C2212 C2215 1.403 . S
H2213 C2219 0.930 . S
C2214 H2200 0.930 . S
C2214 C2212 1.395 . S
C2214 C2217 1.403 . S
C2215 C2212 1.403 . S
C2215 C2216 1.524 . S
C2215 C2219 1.400 . S
C2216 H2201 0.960 . S
C2216 H2202 0.960 . S
C2216 H2203 0.960 . S
C2216 C2215 1.524 . S
C2217 C2214 1.403 . S
C2217 C2218 1.392 . S
C2217 C2221 1.495 . S
C2218 C2217 1.392 . S
C2218 C2219 1.385 . S
C2218 C2220 1.478 . S
C2219 H2213 0.930 . S
C2219 C2215 1.400 . S
C2219 C2218 1.385 . S
C2220 C2218 1.478 . S
C2220 C2222 1.381 . S
C2220 C2226 1.383 . S
C2221 C2217 1.495 . S
C2221 H2227 0.959 . S
C2221 H2228 0.961 . S
C2221 H2229 0.960 . S
C2222 C2220 1.381 . S
C2222 C2223 1.394 . S
C2222 H2230 0.930 . S
C2223 C2222 1.394 . S
C2223 C2224 1.383 . S
C2223 H2231 0.929 . S
C2224 C2223 1.383 . S
C2224 C2225 1.377 . S
C2225 H2209 0.930 . S
C2225 C2224 1.377 . S
C2225 C2226 1.379 . S
C2226 H2210 0.931 . S
C2226 C2220 1.383 . S
C2226 C2225 1.379 . S
H2227 C2221 0.959 . S
H2228 C2221 0.961 . S
H2229 C2221 0.960 . S
H2230 C2222 0.930 . S
H2231 C2223 0.929 . S
H2232 C2240 0.929 . S
H2233 C2242 0.930 . S
H2234 C2244 0.930 . S
H2235 C2247 0.929 . S
H2236 C2250 0.930 . S
H2237 C2252 0.960 . S
H2238 C2252 0.960 . S
H2239 C2252 0.960 . S
C2240 H2232 0.929 . S
C2240 C2241 1.377 . S
C2240 C2242 1.384 . S
C2241 C2240 1.377 . S
C2241 C2247 1.390 . S
C2242 H2233 0.930 . S
C2242 C2240 1.384 . S
C2242 C2243 1.372 . S
C2243 C2242 1.372 . S
C2243 C2244 1.400 . S
C2243 C2248 1.490 . S
C2244 H2234 0.930 . S
C2244 C2243 1.400 . S
C2244 C2247 1.386 . S
H2245 C2261 0.930 . S
H2246 C2262 0.931 . S
C2247 H2235 0.929 . S
C2247 C2241 1.390 . S
C2247 C2244 1.386 . S
C2248 C2243 1.490 . S
C2248 C2250 1.395 . S
C2248 C2251 1.403 . S
H2249 C2255 0.930 . S
C2250 H2236 0.930 . S
C2250 C2248 1.395 . S
C2250 C2253 1.403 . S
C2251 C2248 1.403 . S
C2251 C2252 1.524 . S
C2251 C2255 1.400 . S
C2252 H2237 0.960 . S
C2252 H2238 0.960 . S
C2252 H2239 0.960 . S
C2252 C2251 1.524 . S
C2253 C2250 1.403 . S
C2253 C2254 1.392 . S
C2253 C2257 1.495 . S
C2254 C2253 1.392 . S
C2254 C2255 1.385 . S
C2254 C2256 1.478 . S
C2255 H2249 0.930 . S
C2255 C2251 1.400 . S
C2255 C2254 1.385 . S
C2256 C2254 1.478 . S
C2256 C2258 1.381 . S
C2256 C2262 1.383 . S
C2257 C2253 1.495 . S
C2257 H2263 0.959 . S
C2257 H2264 0.961 . S
C2257 H2265 0.960 . S
C2258 C2256 1.381 . S
C2258 C2259 1.394 . S
C2258 H2266 0.930 . S
C2259 C2258 1.394 . S
C2259 C2260 1.383 . S
C2259 H2267 0.929 . S
C2260 C2259 1.383 . S
C2260 C2261 1.377 . S
C2261 H2245 0.930 . S
C2261 C2260 1.377 . S
C2261 C2262 1.379 . S
C2262 H2246 0.931 . S
C2262 C2256 1.383 . S
C2262 C2261 1.379 . S
H2263 C2257 0.959 . S
H2264 C2257 0.961 . S
H2265 C2257 0.960 . S
H2266 C2258 0.930 . S
H2267 C2259 0.929 . S
H2268 C2276 0.929 . S
H2269 C2278 0.930 . S
H2270 C2280 0.930 . S
H2271 C2283 0.929 . S
H2272 C2286 0.930 . S
H2273 C2288 0.960 . S
H2274 C2288 0.960 . S
H2275 C2288 0.960 . S
C2276 H2268 0.929 . S
C2276 C2277 1.377 . S
C2276 C2278 1.384 . S
C2277 C2276 1.377 . S
C2277 C2283 1.390 . S
C2278 H2269 0.930 . S
C2278 C2276 1.384 . S
C2278 C2279 1.372 . S
C2279 C2278 1.372 . S
C2279 C2280 1.400 . S
C2279 C2284 1.490 . S
C2280 H2270 0.930 . S
C2280 C2279 1.400 . S
C2280 C2283 1.386 . S
H2281 C2297 0.930 . S
H2282 C2298 0.931 . S
C2283 H2271 0.929 . S
C2283 C2277 1.390 . S
C2283 C2280 1.386 . S
C2284 C2279 1.490 . S
C2284 C2286 1.395 . S
C2284 C2287 1.403 . S
H2285 C2291 0.930 . S
C2286 H2272 0.930 . S
C2286 C2284 1.395 . S
C2286 C2289 1.403 . S
C2287 C2284 1.403 . S
C2287 C2288 1.524 . S
C2287 C2291 1.400 . S
C2288 H2273 0.960 . S
C2288 H2274 0.960 . S
C2288 H2275 0.960 . S
C2288 C2287 1.524 . S
C2289 C2286 1.403 . S
C2289 C2290 1.392 . S
C2289 C2293 1.495 . S
C2290 C2289 1.392 . S
C2290 C2291 1.385 . S
C2290 C2292 1.478 . S
C2291 H2285 0.930 . S
C2291 C2287 1.400 . S
C2291 C2290 1.385 . S
C2292 C2290 1.478 . S
C2292 C2294 1.381 . S
C2292 C2298 1.383 . S
C2293 C2289 1.495 . S
C2293 H2299 0.959 . S
C2293 H2300 0.961 . S
C2293 H2301 0.960 . S
C2294 C2292 1.381 . S
C2294 C2295 1.394 . S
C2294 H2302 0.930 . S
C2295 C2294 1.394 . S
C2295 C2296 1.383 . S
C2295 H2303 0.929 . S
C2296 C2295 1.383 . S
C2296 C2297 1.377 . S
C2297 H2281 0.930 . S
C2297 C2296 1.377 . S
C2297 C2298 1.379 . S
C2298 H2282 0.931 . S
C2298 C2292 1.383 . S
C2298 C2297 1.379 . S
H2299 C2293 0.959 . S
H2300 C2293 0.961 . S
H2301 C2293 0.960 . S
H2302 C2294 0.930 . S
H2303 C2295 0.929 . S
H2304 C2312 0.929 . S
H2305 C2314 0.930 . S
H2306 C2316 0.930 . S
H2307 C2319 0.929 . S
H2308 C2322 0.930 . S
H2309 C2324 0.960 . S
H2310 C2324 0.960 . S
H2311 C2324 0.960 . S
C2312 H2304 0.929 . S
C2312 C2313 1.377 . S
C2312 C2314 1.384 . S
C2313 C2312 1.377 . S
C2313 C2319 1.390 . S
C2314 H2305 0.930 . S
C2314 C2312 1.384 . S
C2314 C2315 1.372 . S
C2315 C2314 1.372 . S
C2315 C2316 1.400 . S
C2315 C2320 1.490 . S
C2316 H2306 0.930 . S
C2316 C2315 1.400 . S
C2316 C2319 1.386 . S
H2317 C2333 0.930 . S
H2318 C2334 0.931 . S
C2319 H2307 0.929 . S
C2319 C2313 1.390 . S
C2319 C2316 1.386 . S
C2320 C2315 1.490 . S
C2320 C2322 1.395 . S
C2320 C2323 1.403 . S
H2321 C2327 0.930 . S
C2322 H2308 0.930 . S
C2322 C2320 1.395 . S
C2322 C2325 1.403 . S
C2323 C2320 1.403 . S
C2323 C2324 1.524 . S
C2323 C2327 1.400 . S
C2324 H2309 0.960 . S
C2324 H2310 0.960 . S
C2324 H2311 0.960 . S
C2324 C2323 1.524 . S
C2325 C2322 1.403 . S
C2325 C2326 1.392 . S
C2325 C2329 1.495 . S
C2326 C2325 1.392 . S
C2326 C2327 1.385 . S
C2326 C2328 1.478 . S
C2327 H2321 0.930 . S
C2327 C2323 1.400 . S
C2327 C2326 1.385 . S
C2328 C2326 1.478 . S
C2328 C2330 1.381 . S
C2328 C2334 1.383 . S
C2329 C2325 1.495 . S
C2329 H2335 0.959 . S
C2329 H2336 0.961 . S
C2329 H2337 0.960 . S
C2330 C2328 1.381 . S
C2330 C2331 1.394 . S
C2330 H2338 0.930 . S
C2331 C2330 1.394 . S
C2331 C2332 1.383 . S
C2331 H2339 0.929 . S
C2332 C2331 1.383 . S
C2332 C2333 1.377 . S
C2333 H2317 0.930 . S
C2333 C2332 1.377 . S
C2333 C2334 1.379 . S
C2334 H2318 0.931 . S
C2334 C2328 1.383 . S
C2334 C2333 1.379 . S
H2335 C2329 0.959 . S
H2336 C2329 0.961 . S
H2337 C2329 0.960 . S
H2338 C2330 0.930 . S
H2339 C2331 0.929 . S
H2340 C2348 0.929 . S
H2341 C2350 0.930 . S
H2342 C2352 0.930 . S
H2343 C2355 0.929 . S
H2344 C2358 0.930 . S
H2345 C2360 0.960 . S
H2346 C2360 0.960 . S
H2347 C2360 0.960 . S
C2348 H2340 0.929 . S
C2348 C2349 1.377 . S
C2348 C2350 1.384 . S
C2349 C2348 1.377 . S
C2349 C2355 1.390 . S
C2350 H2341 0.930 . S
C2350 C2348 1.384 . S
C2350 C2351 1.372 . S
C2351 C2350 1.372 . S
C2351 C2352 1.400 . S
C2351 C2356 1.490 . S
C2352 H2342 0.930 . S
C2352 C2351 1.400 . S
C2352 C2355 1.386 . S
H2353 C2369 0.930 . S
H2354 C2370 0.931 . S
C2355 H2343 0.929 . S
C2355 C2349 1.390 . S
C2355 C2352 1.386 . S
C2356 C2351 1.490 . S
C2356 C2358 1.395 . S
C2356 C2359 1.403 . S
H2357 C2363 0.930 . S
C2358 H2344 0.930 . S
C2358 C2356 1.395 . S
C2358 C2361 1.403 . S
C2359 C2356 1.403 . S
C2359 C2360 1.524 . S
C2359 C2363 1.400 . S
C2360 H2345 0.960 . S
C2360 H2346 0.960 . S
C2360 H2347 0.960 . S
C2360 C2359 1.524 . S
C2361 C2358 1.403 . S
C2361 C2362 1.392 . S
C2361 C2365 1.495 . S
C2362 C2361 1.392 . S
C2362 C2363 1.385 . S
C2362 C2364 1.478 . S
C2363 H2357 0.930 . S
C2363 C2359 1.400 . S
C2363 C2362 1.385 . S
C2364 C2362 1.478 . S
C2364 C2366 1.381 . S
C2364 C2370 1.383 . S
C2365 C2361 1.495 . S
C2365 H2371 0.959 . S
C2365 H2372 0.961 . S
C2365 H2373 0.960 . S
C2366 C2364 1.381 . S
C2366 C2367 1.394 . S
C2366 H2374 0.930 . S
C2367 C2366 1.394 . S
C2367 C2368 1.383 . S
C2367 H2375 0.929 . S
C2368 C2367 1.383 . S
C2368 C2369 1.377 . S
C2369 H2353 0.930 . S
C2369 C2368 1.377 . S
C2369 C2370 1.379 . S
C2370 H2354 0.931 . S
C2370 C2364 1.383 . S
C2370 C2369 1.379 . S
H2371 C2365 0.959 . S
H2372 C2365 0.961 . S
H2373 C2365 0.960 . S
H2374 C2366 0.930 . S
H2375 C2367 0.929 . S
H2376 C2384 0.929 . S
H2377 C2386 0.930 . S
H2378 C2388 0.930 . S
H2379 C2391 0.929 . S
H2380 C2394 0.930 . S
H2381 C2396 0.960 . S
H2382 C2396 0.960 . S
H2383 C2396 0.960 . S
C2384 H2376 0.929 . S
C2384 C2385 1.377 . S
C2384 C2386 1.384 . S
C2385 C2384 1.377 . S
C2385 C2391 1.390 . S
C2386 H2377 0.930 . S
C2386 C2384 1.384 . S
C2386 C2387 1.372 . S
C2387 C2386 1.372 . S
C2387 C2388 1.400 . S
C2387 C2392 1.490 . S
C2388 H2378 0.930 . S
C2388 C2387 1.400 . S
C2388 C2391 1.386 . S
H2389 C2405 0.930 . S
H2390 C2406 0.931 . S
C2391 H2379 0.929 . S
C2391 C2385 1.390 . S
C2391 C2388 1.386 . S
C2392 C2387 1.490 . S
C2392 C2394 1.395 . S
C2392 C2395 1.403 . S
H2393 C2399 0.930 . S
C2394 H2380 0.930 . S
C2394 C2392 1.395 . S
C2394 C2397 1.403 . S
C2395 C2392 1.403 . S
C2395 C2396 1.524 . S
C2395 C2399 1.400 . S
C2396 H2381 0.960 . S
C2396 H2382 0.960 . S
C2396 H2383 0.960 . S
C2396 C2395 1.524 . S
C2397 C2394 1.403 . S
C2397 C2398 1.392 . S
C2397 C2401 1.495 . S
C2398 C2397 1.392 . S
C2398 C2399 1.385 . S
C2398 C2400 1.478 . S
C2399 H2393 0.930 . S
C2399 C2395 1.400 . S
C2399 C2398 1.385 . S
C2400 C2398 1.478 . S
C2400 C2402 1.381 . S
C2400 C2406 1.383 . S
C2401 C2397 1.495 . S
C2401 H2407 0.959 . S
C2401 H2408 0.961 . S
C2401 H2409 0.960 . S
C2402 C2400 1.381 . S
C2402 C2403 1.394 . S
C2402 H2410 0.930 . S
C2403 C2402 1.394 . S
C2403 C2404 1.383 . S
C2403 H2411 0.929 . S
C2404 C2403 1.383 . S
C2404 C2405 1.377 . S
C2405 H2389 0.930 . S
C2405 C2404 1.377 . S
C2405 C2406 1.379 . S
C2406 H2390 0.931 . S
C2406 C2400 1.383 . S
C2406 C2405 1.379 . S
H2407 C2401 0.959 . S
H2408 C2401 0.961 . S
H2409 C2401 0.960 . S
H2410 C2402 0.930 . S
H2411 C2403 0.929 . S
H2412 C2420 0.929 . S
H2413 C2422 0.930 . S
H2414 C2424 0.930 1_655 S
H2415 C2427 0.929 1_655 S
H2416 C2430 0.930 . S
H2417 C2432 0.960 . S
H2418 C2432 0.960 . S
H2419 C2432 0.960 . S
C2420 H2412 0.929 . S
C2420 C2421 1.377 . S
C2420 C2422 1.384 . S
C2421 C2420 1.377 . S
C2421 C2427 1.390 . S
C2422 H2413 0.930 . S
C2422 C2420 1.384 . S
C2422 C2423 1.372 . S
C2423 C2422 1.372 . S
C2423 C2424 1.400 . S
C2423 C2428 1.490 . S
C2424 H2414 0.930 1_455 S
C2424 C2423 1.400 . S
C2424 C2427 1.386 . S
H2425 C2441 0.930 . S
H2426 C2442 0.931 . S
C2427 H2415 0.929 1_455 S
C2427 C2421 1.390 . S
C2427 C2424 1.386 . S
C2428 C2423 1.490 . S
C2428 C2430 1.395 . S
C2428 C2431 1.403 . S
H2429 C2435 0.930 . S
C2430 H2416 0.930 . S
C2430 C2428 1.395 . S
C2430 C2433 1.403 . S
C2431 C2428 1.403 . S
C2431 C2432 1.524 . S
C2431 C2435 1.400 . S
C2432 H2417 0.960 . S
C2432 H2418 0.960 . S
C2432 H2419 0.960 . S
C2432 C2431 1.524 . S
C2433 C2430 1.403 . S
C2433 C2434 1.392 . S
C2433 C2437 1.495 . S
C2434 C2433 1.392 . S
C2434 C2435 1.385 . S
C2434 C2436 1.478 . S
C2435 H2429 0.930 . S
C2435 C2431 1.400 . S
C2435 C2434 1.385 . S
C2436 C2434 1.478 . S
C2436 C2438 1.381 . S
C2436 C2442 1.383 1_455 S
C2437 C2433 1.495 . S
C2437 H2443 0.959 . S
C2437 H2444 0.961 1_455 S
C2437 H2445 0.960 . S
C2438 C2436 1.381 . S
C2438 C2439 1.394 . S
C2438 H2446 0.930 . S
C2439 C2438 1.394 . S
C2439 C2440 1.383 . S
C2439 H2447 0.929 . S
C2440 C2439 1.383 . S
C2440 C2441 1.377 1_455 S
C2441 H2425 0.930 . S
C2441 C2440 1.377 1_655 S
C2441 C2442 1.379 . S
C2442 H2426 0.931 . S
C2442 C2436 1.383 1_655 S
C2442 C2441 1.379 . S
H2443 C2437 0.959 . S
H2444 C2437 0.961 1_655 S
H2445 C2437 0.960 . S
H2446 C2438 0.930 . S
H2447 C2439 0.929 . S
H2448 C2456 0.929 . S
H2449 C2458 0.930 . S
H2450 C2460 0.930 . S
H2451 C2463 0.929 . S
H2452 C2466 0.930 . S
H2453 C2468 0.960 . S
H2454 C2468 0.960 . S
H2455 C2468 0.960 . S
C2456 H2448 0.929 . S
C2456 C2457 1.377 . S
C2456 C2458 1.384 . S
C2457 C2456 1.377 . S
C2457 C2463 1.390 . S
C2458 H2449 0.930 . S
C2458 C2456 1.384 . S
C2458 C2459 1.372 . S
C2459 C2458 1.372 . S
C2459 C2460 1.400 . S
C2459 C2464 1.490 . S
C2460 H2450 0.930 . S
C2460 C2459 1.400 . S
C2460 C2463 1.386 . S
H2461 C2477 0.930 . S
H2462 C2478 0.931 . S
C2463 H2451 0.929 . S
C2463 C2457 1.390 . S
C2463 C2460 1.386 . S
C2464 C2459 1.490 . S
C2464 C2466 1.395 . S
C2464 C2467 1.403 . S
H2465 C2471 0.930 . S
C2466 H2452 0.930 . S
C2466 C2464 1.395 . S
C2466 C2469 1.403 . S
C2467 C2464 1.403 . S
C2467 C2468 1.524 . S
C2467 C2471 1.400 . S
C2468 H2453 0.960 . S
C2468 H2454 0.960 . S
C2468 H2455 0.960 . S
C2468 C2467 1.524 . S
C2469 C2466 1.403 . S
C2469 C2470 1.392 . S
C2469 C2473 1.495 . S
C2470 C2469 1.392 . S
C2470 C2471 1.385 . S
C2470 C2472 1.478 . S
C2471 H2465 0.930 . S
C2471 C2467 1.400 . S
C2471 C2470 1.385 . S
C2472 C2470 1.478 . S
C2472 C2474 1.381 . S
C2472 C2478 1.383 . S
C2473 C2469 1.495 . S
C2473 H2479 0.959 . S
C2473 H2480 0.961 . S
C2473 H2481 0.960 . S
C2474 C2472 1.381 . S
C2474 C2475 1.394 . S
C2474 H2482 0.930 . S
C2475 C2474 1.394 . S
C2475 C2476 1.383 . S
C2475 H2483 0.929 . S
C2476 C2475 1.383 . S
C2476 C2477 1.377 . S
C2477 H2461 0.930 . S
C2477 C2476 1.377 . S
C2477 C2478 1.379 . S
C2478 H2462 0.931 . S
C2478 C2472 1.383 . S
C2478 C2477 1.379 . S
H2479 C2473 0.959 . S
H2480 C2473 0.961 . S
H2481 C2473 0.960 . S
H2482 C2474 0.930 . S
H2483 C2475 0.929 . S
H2484 C2492 0.929 . S
H2485 C2494 0.930 . S
H2486 C2496 0.930 . S
H2487 C2499 0.929 . S
H2488 C2502 0.930 . S
H2489 C2504 0.960 . S
H2490 C2504 0.960 . S
H2491 C2504 0.960 . S
C2492 H2484 0.929 . S
C2492 C2493 1.377 . S
C2492 C2494 1.384 . S
C2493 C2492 1.377 . S
C2493 C2499 1.390 . S
C2494 H2485 0.930 . S
C2494 C2492 1.384 . S
C2494 C2495 1.372 . S
C2495 C2494 1.372 . S
C2495 C2496 1.400 . S
C2495 C2500 1.490 . S
C2496 H2486 0.930 . S
C2496 C2495 1.400 . S
C2496 C2499 1.386 . S
H2497 C2513 0.930 . S
H2498 C2514 0.931 . S
C2499 H2487 0.929 . S
C2499 C2493 1.390 . S
C2499 C2496 1.386 . S
C2500 C2495 1.490 . S
C2500 C2502 1.395 . S
C2500 C2503 1.403 1_565 S
H2501 C2507 0.930 . S
C2502 H2488 0.930 . S
C2502 C2500 1.395 . S
C2502 C2505 1.403 . S
C2503 C2500 1.403 1_545 S
C2503 C2504 1.524 . S
C2503 C2507 1.400 . S
C2504 H2489 0.960 . S
C2504 H2490 0.960 . S
C2504 H2491 0.960 . S
C2504 C2503 1.524 . S
C2505 C2502 1.403 . S
C2505 C2506 1.392 . S
C2505 C2509 1.495 . S
C2506 C2505 1.392 . S
C2506 C2507 1.385 1_565 S
C2506 C2508 1.478 . S
C2507 H2501 0.930 . S
C2507 C2503 1.400 . S
C2507 C2506 1.385 1_545 S
C2508 C2506 1.478 . S
C2508 C2510 1.381 . S
C2508 C2514 1.383 . S
C2509 C2505 1.495 . S
C2509 H2515 0.959 . S
C2509 H2516 0.961 . S
C2509 H2517 0.960 . S
C2510 C2508 1.381 . S
C2510 C2511 1.394 . S
C2510 H2518 0.930 . S
C2511 C2510 1.394 . S
C2511 C2512 1.383 . S
C2511 H2519 0.929 . S
C2512 C2511 1.383 . S
C2512 C2513 1.377 . S
C2513 H2497 0.930 . S
C2513 C2512 1.377 . S
C2513 C2514 1.379 . S
C2514 H2498 0.931 . S
C2514 C2508 1.383 . S
C2514 C2513 1.379 . S
H2515 C2509 0.959 . S
H2516 C2509 0.961 . S
H2517 C2509 0.960 . S
H2518 C2510 0.930 . S
H2519 C2511 0.929 . S
H2520 C2528 0.929 1_545 S
H2521 C2530 0.930 1_545 S
H2522 C2532 0.930 . S
H2523 C2535 0.929 . S
H2524 C2538 0.930 . S
H2525 C2540 0.960 . S
H2526 C2540 0.960 . S
H2527 C2540 1.014 . S
C2528 H2520 0.929 1_565 S
C2528 C2529 1.377 . S
C2528 C2530 1.384 . S
C2529 C2528 1.377 . S
C2529 C2535 1.390 . S
C2530 H2521 0.930 1_565 S
C2530 C2528 1.384 . S
C2530 C2531 1.372 . S
C2531 C2530 1.372 . S
C2531 C2532 1.400 . S
C2531 C2536 1.490 . S
C2532 H2522 0.930 . S
C2532 C2531 1.400 . S
C2532 C2535 1.386 . S
H2533 C2549 0.930 . S
H2534 C2550 0.931 . S
C2535 H2523 0.929 . S
C2535 C2529 1.390 . S
C2535 C2532 1.386 . S
C2536 C2531 1.490 . S
C2536 C2538 1.395 . S
C2536 C2539 1.366 1_565 S
H2537 C2543 0.982 . S
C2538 H2524 0.930 . S
C2538 C2536 1.395 . S
C2538 C2541 1.403 . S
C2539 C2536 1.366 1_545 S
C2539 C2540 1.541 . S
C2539 C2543 1.391 . S
C2540 H2525 0.960 . S
C2540 H2526 0.960 . S
C2540 H2527 1.014 . S
C2540 C2539 1.541 . S
C2541 C2538 1.403 . S
C2541 C2542 1.392 . S
C2541 C2545 1.495 . S
C2542 C2541 1.392 . S
C2542 C2543 1.369 1_565 S
C2542 C2544 1.478 . S
C2543 H2537 0.982 . S
C2543 C2539 1.391 . S
C2543 C2542 1.369 1_545 S
C2544 C2542 1.478 . S
C2544 C2546 1.381 1_565 S
C2544 C2550 1.383 . S
C2545 C2541 1.495 . S
C2545 H2551 0.959 . S
C2545 H2552 0.961 . S
C2545 H2553 0.960 . S
C2546 C2544 1.381 1_545 S
C2546 C2547 1.394 . S
C2546 H2554 0.930 . S
C2547 C2546 1.394 . S
C2547 C2548 1.383 1_545 S
C2547 H2555 0.929 . S
C2548 C2547 1.383 1_565 S
C2548 C2549 1.377 . S
C2549 H2533 0.930 . S
C2549 C2548 1.377 . S
C2549 C2550 1.379 . S
C2550 H2534 0.931 . S
C2550 C2544 1.383 . S
C2550 C2549 1.379 . S
H2551 C2545 0.959 . S
H2552 C2545 0.961 . S
H2553 C2545 0.960 . S
H2554 C2546 0.930 . S
H2555 C2547 0.929 . S
H2556 C2564 0.929 1_655 S
H2557 C2566 0.930 1_655 S
H2558 C2568 0.930 . S
H2559 C2571 0.929 . S
H2560 C2574 0.930 . S
H2561 C2576 0.960 . S
H2562 C2576 0.960 . S
H2563 C2576 0.986 . S
C2564 H2556 0.929 1_455 S
C2564 C2565 1.377 . S
C2564 C2566 1.384 . S
C2565 C2564 1.377 . S
C2565 C2571 1.390 . S
C2566 H2557 0.930 1_455 S
C2566 C2564 1.384 . S
C2566 C2567 1.372 . S
C2567 C2566 1.372 . S
C2567 C2568 1.400 . S
C2567 C2572 1.490 . S
C2568 H2558 0.930 . S
C2568 C2567 1.400 . S
C2568 C2571 1.386 . S
H2569 C2585 0.930 . S
H2570 C2586 0.931 . S
C2571 H2559 0.929 . S
C2571 C2565 1.390 . S
C2571 C2568 1.386 . S
C2572 C2567 1.490 . S
C2572 C2574 1.395 . S
C2572 C2575 1.404 1_455 S
H2573 C2579 0.930 . S
C2574 H2560 0.930 . S
C2574 C2572 1.395 . S
C2574 C2577 1.403 . S
C2575 C2572 1.404 1_655 S
C2575 C2576 1.540 . S
C2575 C2579 1.412 . S
C2576 H2561 0.960 . S
C2576 H2562 0.960 . S
C2576 H2563 0.986 . S
C2576 C2575 1.540 . S
C2577 C2574 1.403 . S
C2577 C2578 1.392 . S
C2577 C2581 1.495 . S
C2578 C2577 1.392 . S
C2578 C2579 1.361 1_455 S
C2578 C2580 1.478 . S
C2579 H2573 0.930 . S
C2579 C2575 1.412 . S
C2579 C2578 1.361 1_655 S
C2580 C2578 1.478 . S
C2580 C2582 1.381 1_455 S
C2580 C2586 1.383 . S
C2581 C2577 1.495 . S
C2581 H2587 0.959 . S
C2581 H2588 0.961 . S
C2581 H2589 0.960 . S
C2582 C2580 1.381 1_655 S
C2582 C2583 1.394 . S
C2582 H2590 0.930 . S
C2583 C2582 1.394 . S
C2583 C2584 1.332 1_655 S
C2583 H2591 0.929 . S
C2584 C2583 1.332 1_455 S
C2584 C2585 1.405 . S
C2585 H2569 0.930 . S
C2585 C2584 1.405 . S
C2585 C2586 1.379 . S
C2586 H2570 0.931 . S
C2586 C2580 1.383 . S
C2586 C2585 1.379 . S
H2587 C2581 0.959 . S
H2588 C2581 0.961 . S
H2589 C2581 0.960 . S
H2590 C2582 0.930 . S
H2591 C2583 0.929 . S
H2592 C2600 0.929 . S
H2593 C2602 0.930 . S
H2594 C2604 0.930 . S
H2595 C2607 0.929 . S
H2596 C2610 0.930 . S
H2597 C2612 0.960 . S
H2598 C2612 0.960 . S
H2599 C2612 0.960 . S
C2600 H2592 0.929 . S
C2600 C2601 1.377 . S
C2600 C2602 1.384 . S
C2601 C2600 1.377 . S
C2601 C2607 1.390 . S
C2602 H2593 0.930 . S
C2602 C2600 1.384 . S
C2602 C2603 1.372 . S
C2603 C2602 1.372 . S
C2603 C2604 1.400 . S
C2603 C2608 1.490 . S
C2604 H2594 0.930 . S
C2604 C2603 1.400 . S
C2604 C2607 1.386 . S
H2605 C2621 0.930 . S
H2606 C2622 0.931 . S
C2607 H2595 0.929 . S
C2607 C2601 1.390 . S
C2607 C2604 1.386 . S
C2608 C2603 1.490 . S
C2608 C2610 1.395 . S
C2608 C2611 1.403 . S
H2609 C2615 0.930 . S
C2610 H2596 0.930 . S
C2610 C2608 1.395 . S
C2610 C2613 1.403 . S
C2611 C2608 1.403 . S
C2611 C2612 1.524 . S
C2611 C2615 1.400 . S
C2612 H2597 0.960 . S
C2612 H2598 0.960 . S
C2612 H2599 0.960 . S
C2612 C2611 1.524 . S
C2613 C2610 1.403 . S
C2613 C2614 1.392 . S
C2613 C2617 1.495 . S
C2614 C2613 1.392 . S
C2614 C2615 1.385 . S
C2614 C2616 1.478 . S
C2615 H2609 0.930 . S
C2615 C2611 1.400 . S
C2615 C2614 1.385 . S
C2616 C2614 1.478 . S
C2616 C2618 1.381 . S
C2616 C2622 1.383 . S
C2617 C2613 1.495 . S
C2617 H2623 0.959 . S
C2617 H2624 0.961 . S
C2617 H2625 0.960 . S
C2618 C2616 1.381 . S
C2618 C2619 1.394 . S
C2618 H2626 0.930 . S
C2619 C2618 1.394 . S
C2619 C2620 1.383 . S
C2619 H2627 0.929 . S
C2620 C2619 1.383 . S
C2620 C2621 1.377 . S
C2621 H2605 0.930 . S
C2621 C2620 1.377 . S
C2621 C2622 1.379 . S
C2622 H2606 0.931 . S
C2622 C2616 1.383 . S
C2622 C2621 1.379 . S
H2623 C2617 0.959 . S
H2624 C2617 0.961 . S
H2625 C2617 0.960 . S
H2626 C2618 0.930 . S
H2627 C2619 0.929 . S
H2628 C2636 0.929 . S
H2629 C2638 0.930 . S
H2630 C2640 0.930 . S
H2631 C2643 0.929 . S
H2632 C2646 0.930 . S
H2633 C2648 0.960 . S
H2634 C2648 0.960 . S
H2635 C2648 0.960 . S
C2636 H2628 0.929 . S
C2636 C2637 1.377 . S
C2636 C2638 1.384 . S
C2637 C2636 1.377 . S
C2637 C2643 1.390 . S
C2638 H2629 0.930 . S
C2638 C2636 1.384 . S
C2638 C2639 1.372 . S
C2639 C2638 1.372 . S
C2639 C2640 1.400 . S
C2639 C2644 1.490 . S
C2640 H2630 0.930 . S
C2640 C2639 1.400 . S
C2640 C2643 1.386 . S
H2641 C2657 0.930 . S
H2642 C2658 0.931 . S
C2643 H2631 0.929 . S
C2643 C2637 1.390 . S
C2643 C2640 1.386 . S
C2644 C2639 1.490 . S
C2644 C2646 1.395 . S
C2644 C2647 1.403 . S
H2645 C2651 0.930 . S
C2646 H2632 0.930 . S
C2646 C2644 1.395 . S
C2646 C2649 1.403 . S
C2647 C2644 1.403 . S
C2647 C2648 1.524 . S
C2647 C2651 1.400 . S
C2648 H2633 0.960 . S
C2648 H2634 0.960 . S
C2648 H2635 0.960 . S
C2648 C2647 1.524 . S
C2649 C2646 1.403 . S
C2649 C2650 1.392 . S
C2649 C2653 1.495 . S
C2650 C2649 1.392 . S
C2650 C2651 1.385 . S
C2650 C2652 1.478 . S
C2651 H2645 0.930 . S
C2651 C2647 1.400 . S
C2651 C2650 1.385 . S
C2652 C2650 1.478 . S
C2652 C2654 1.381 . S
C2652 C2658 1.383 . S
C2653 C2649 1.495 . S
C2653 H2659 0.959 . S
C2653 H2660 0.961 . S
C2653 H2661 0.960 . S
C2654 C2652 1.381 . S
C2654 C2655 1.394 . S
C2654 H2662 0.930 . S
C2655 C2654 1.394 . S
C2655 C2656 1.383 . S
C2655 H2663 0.929 . S
C2656 C2655 1.383 . S
C2656 C2657 1.377 . S
C2657 H2641 0.930 . S
C2657 C2656 1.377 . S
C2657 C2658 1.379 . S
C2658 H2642 0.931 . S
C2658 C2652 1.383 . S
C2658 C2657 1.379 . S
H2659 C2653 0.959 . S
H2660 C2653 0.961 . S
H2661 C2653 0.960 . S
H2662 C2654 0.930 . S
H2663 C2655 0.929 . S
H2664 C2672 0.929 . S
H2665 C2674 0.930 . S
H2666 C2676 0.930 . S
H2667 C2679 0.929 . S
H2668 C2682 0.930 . S
H2669 C2684 0.960 . S
H2670 C2684 0.960 . S
H2671 C2684 0.960 . S
C2672 H2664 0.929 . S
C2672 C2673 1.377 . S
C2672 C2674 1.384 . S
C2673 C2672 1.377 . S
C2673 C2679 1.390 . S
C2674 H2665 0.930 . S
C2674 C2672 1.384 . S
C2674 C2675 1.372 . S
C2675 C2674 1.372 . S
C2675 C2676 1.400 . S
C2675 C2680 1.490 . S
C2676 H2666 0.930 . S
C2676 C2675 1.400 . S
C2676 C2679 1.386 . S
H2677 C2693 0.930 . S
H2678 C2694 0.931 . S
C2679 H2667 0.929 . S
C2679 C2673 1.390 . S
C2679 C2676 1.386 . S
C2680 C2675 1.490 . S
C2680 C2682 1.395 . S
C2680 C2683 1.403 . S
H2681 C2687 0.930 . S
C2682 H2668 0.930 . S
C2682 C2680 1.395 . S
C2682 C2685 1.403 . S
C2683 C2680 1.403 . S
C2683 C2684 1.524 . S
C2683 C2687 1.400 . S
C2684 H2669 0.960 . S
C2684 H2670 0.960 . S
C2684 H2671 0.960 . S
C2684 C2683 1.524 . S
C2685 C2682 1.403 . S
C2685 C2686 1.392 . S
C2685 C2689 1.495 . S
C2686 C2685 1.392 . S
C2686 C2687 1.385 . S
C2686 C2688 1.478 . S
C2687 H2681 0.930 . S
C2687 C2683 1.400 . S
C2687 C2686 1.385 . S
C2688 C2686 1.478 . S
C2688 C2690 1.381 . S
C2688 C2694 1.383 . S
C2689 C2685 1.495 . S
C2689 H2695 0.959 . S
C2689 H2696 0.961 . S
C2689 H2697 0.960 . S
C2690 C2688 1.381 . S
C2690 C2691 1.394 . S
C2690 H2698 0.930 . S
C2691 C2690 1.394 . S
C2691 C2692 1.383 . S
C2691 H2699 0.929 . S
C2692 C2691 1.383 . S
C2692 C2693 1.377 . S
C2693 H2677 0.930 . S
C2693 C2692 1.377 . S
C2693 C2694 1.379 . S
C2694 H2678 0.931 . S
C2694 C2688 1.383 . S
C2694 C2693 1.379 . S
H2695 C2689 0.959 . S
H2696 C2689 0.961 . S
H2697 C2689 0.960 . S
H2698 C2690 0.930 . S
H2699 C2691 0.929 . S
H2700 C2708 0.929 . S
H2701 C2710 0.930 . S
H2702 C2712 0.930 . S
H2703 C2715 0.929 . S
H2704 C2718 0.930 . S
H2705 C2720 0.960 . S
H2706 C2720 0.960 . S
H2707 C2720 0.960 . S
C2708 H2700 0.929 . S
C2708 C2709 1.377 . S
C2708 C2710 1.384 . S
C2709 C2708 1.377 . S
C2709 C2715 1.390 . S
C2710 H2701 0.930 . S
C2710 C2708 1.384 . S
C2710 C2711 1.372 . S
C2711 C2710 1.372 . S
C2711 C2712 1.400 . S
C2711 C2716 1.490 . S
C2712 H2702 0.930 . S
C2712 C2711 1.400 . S
C2712 C2715 1.386 . S
H2713 C2729 0.930 . S
H2714 C2730 0.931 . S
C2715 H2703 0.929 . S
C2715 C2709 1.390 . S
C2715 C2712 1.386 . S
C2716 C2711 1.490 . S
C2716 C2718 1.395 . S
C2716 C2719 1.403 . S
H2717 C2723 0.930 . S
C2718 H2704 0.930 . S
C2718 C2716 1.395 . S
C2718 C2721 1.403 . S
C2719 C2716 1.403 . S
C2719 C2720 1.524 . S
C2719 C2723 1.400 . S
C2720 H2705 0.960 . S
C2720 H2706 0.960 . S
C2720 H2707 0.960 . S
C2720 C2719 1.524 . S
C2721 C2718 1.403 . S
C2721 C2722 1.392 . S
C2721 C2725 1.495 . S
C2722 C2721 1.392 . S
C2722 C2723 1.385 . S
C2722 C2724 1.478 . S
C2723 H2717 0.930 . S
C2723 C2719 1.400 . S
C2723 C2722 1.385 . S
C2724 C2722 1.478 . S
C2724 C2726 1.381 . S
C2724 C2730 1.383 . S
C2725 C2721 1.495 . S
C2725 H2731 0.959 . S
C2725 H2732 0.961 . S
C2725 H2733 0.960 . S
C2726 C2724 1.381 . S
C2726 C2727 1.394 . S
C2726 H2734 0.930 . S
C2727 C2726 1.394 . S
C2727 C2728 1.383 . S
C2727 H2735 0.929 . S
C2728 C2727 1.383 . S
C2728 C2729 1.377 . S
C2729 H2713 0.930 . S
C2729 C2728 1.377 . S
C2729 C2730 1.379 . S
C2730 H2714 0.931 . S
C2730 C2724 1.383 . S
C2730 C2729 1.379 . S
H2731 C2725 0.959 . S
H2732 C2725 0.961 . S
H2733 C2725 0.960 . S
H2734 C2726 0.930 . S
H2735 C2727 0.929 . S
H2736 C2744 0.929 . S
H2737 C2746 0.930 . S
H2738 C2748 0.851 1_565 S
H2739 C2751 0.929 1_565 S
H2740 C2754 0.930 . S
H2741 C2756 0.960 . S
H2742 C2756 0.960 . S
H2743 C2756 0.960 . S
C2744 H2736 0.929 . S
C2744 C2745 1.377 . S
C2744 C2746 1.384 . S
C2745 C2744 1.377 . S
C2745 C2751 1.390 . S
C2746 H2737 0.930 . S
C2746 C2744 1.384 . S
C2746 C2747 1.372 . S
C2747 C2746 1.372 . S
C2747 C2748 1.436 . S
C2747 C2752 1.490 . S
C2748 H2738 0.851 1_545 S
C2748 C2747 1.436 . S
C2748 C2751 1.432 . S
H2749 C2765 0.930 . S
H2750 C2766 0.931 . S
C2751 H2739 0.929 1_545 S
C2751 C2745 1.390 . S
C2751 C2748 1.432 . S
C2752 C2747 1.490 . S
C2752 C2754 1.395 . S
C2752 C2755 1.403 . S
H2753 C2759 0.930 . S
C2754 H2740 0.930 . S
C2754 C2752 1.395 . S
C2754 C2757 1.403 . S
C2755 C2752 1.403 . S
C2755 C2756 1.524 . S
C2755 C2759 1.400 . S
C2756 H2741 0.960 . S
C2756 H2742 0.960 . S
C2756 H2743 0.960 . S
C2756 C2755 1.524 . S
C2757 C2754 1.403 . S
C2757 C2758 1.392 . S
C2757 C2761 1.495 1_545 S
C2758 C2757 1.392 . S
C2758 C2759 1.385 . S
C2758 C2760 1.478 . S
C2759 H2753 0.930 . S
C2759 C2755 1.400 . S
C2759 C2758 1.385 . S
C2760 C2758 1.478 . S
C2760 C2762 1.381 . S
C2760 C2766 1.383 1_545 S
C2761 C2757 1.495 1_565 S
C2761 H2767 0.959 . S
C2761 H2768 0.961 . S
C2761 H2769 0.960 1_565 S
C2762 C2760 1.381 . S
C2762 C2763 1.394 . S
C2762 H2770 0.930 . S
C2763 C2762 1.394 . S
C2763 C2764 1.383 . S
C2763 H2771 0.929 . S
C2764 C2763 1.383 . S
C2764 C2765 1.377 1_545 S
C2765 H2749 0.930 . S
C2765 C2764 1.377 1_565 S
C2765 C2766 1.379 . S
C2766 H2750 0.931 . S
C2766 C2760 1.383 1_565 S
C2766 C2765 1.379 . S
H2767 C2761 0.959 . S
H2768 C2761 0.961 . S
H2769 C2761 0.960 1_545 S
H2770 C2762 0.930 . S
H2771 C2763 0.929 . S
H2772 C2780 0.929 1_455 S
H2773 C2782 0.930 1_455 S
H2774 C2784 0.930 . S
H2775 C2787 0.929 . S
H2776 C2790 0.930 . S
H2777 C2792 0.960 . S
H2778 C2792 0.960 . S
H2779 C2792 0.960 . S
C2780 H2772 0.929 1_655 S
C2780 C2781 1.377 . S
C2780 C2782 1.384 . S
C2781 C2780 1.377 . S
C2781 C2787 1.390 . S
C2782 H2773 0.930 1_655 S
C2782 C2780 1.384 . S
C2782 C2783 1.372 . S
C2783 C2782 1.372 . S
C2783 C2784 1.400 . S
C2783 C2788 1.490 . S
C2784 H2774 0.930 . S
C2784 C2783 1.400 . S
C2784 C2787 1.386 . S
H2785 C2801 0.930 . S
H2786 C2802 0.931 . S
C2787 H2775 0.929 . S
C2787 C2781 1.390 . S
C2787 C2784 1.386 . S
C2788 C2783 1.490 . S
C2788 C2790 1.395 1_655 S
C2788 C2791 1.403 . S
H2789 C2795 0.930 . S
C2790 H2776 0.930 . S
C2790 C2788 1.395 1_455 S
C2790 C2793 1.403 . S
C2791 C2788 1.403 . S
C2791 C2792 1.524 . S
C2791 C2795 1.400 . S
C2792 H2777 0.960 . S
C2792 H2778 0.960 . S
C2792 H2779 0.960 . S
C2792 C2791 1.524 . S
C2793 C2790 1.403 . S
C2793 C2794 1.392 1_455 S
C2793 C2797 1.495 . S
C2794 C2793 1.392 1_655 S
C2794 C2795 1.385 . S
C2794 C2796 1.478 . S
C2795 H2789 0.930 . S
C2795 C2791 1.400 . S
C2795 C2794 1.385 . S
C2796 C2794 1.478 . S
C2796 C2798 1.381 1_655 S
C2796 C2802 1.383 . S
C2797 C2793 1.495 . S
C2797 H2803 0.959 . S
C2797 H2804 0.961 . S
C2797 H2805 0.960 . S
C2798 C2796 1.381 1_455 S
C2798 C2799 1.394 . S
C2798 H2806 0.930 . S
C2799 C2798 1.394 . S
C2799 C2800 1.383 1_455 S
C2799 H2807 0.929 . S
C2800 C2799 1.383 1_655 S
C2800 C2801 1.377 . S
C2801 H2785 0.930 . S
C2801 C2800 1.377 . S
C2801 C2802 1.379 . S
C2802 H2786 0.931 . S
C2802 C2796 1.383 . S
C2802 C2801 1.379 . S
H2803 C2797 0.959 . S
H2804 C2797 0.961 . S
H2805 C2797 0.960 . S
H2806 C2798 0.930 . S
H2807 C2799 0.929 . S
H2808 C2816 0.929 . S
H2809 C2818 0.930 . S
H2810 C2820 0.930 . S
H2811 C2823 0.929 . S
H2812 C2826 0.930 . S
H2813 C2828 0.960 . S
H2814 C2828 0.960 . S
H2815 C2828 0.960 . S
C2816 H2808 0.929 . S
C2816 C2817 1.377 . S
C2816 C2818 1.384 . S
C2817 C2816 1.377 . S
C2817 C2823 1.390 . S
C2818 H2809 0.930 . S
C2818 C2816 1.384 . S
C2818 C2819 1.372 . S
C2819 C2818 1.372 . S
C2819 C2820 1.400 . S
C2819 C2824 1.490 . S
C2820 H2810 0.930 . S
C2820 C2819 1.400 . S
C2820 C2823 1.386 . S
H2821 C2837 0.930 . S
H2822 C2838 0.931 . S
C2823 H2811 0.929 . S
C2823 C2817 1.390 . S
C2823 C2820 1.386 . S
C2824 C2819 1.490 . S
C2824 C2826 1.395 . S
C2824 C2827 1.403 . S
H2825 C2831 0.930 . S
C2826 H2812 0.930 . S
C2826 C2824 1.395 . S
C2826 C2829 1.403 . S
C2827 C2824 1.403 . S
C2827 C2828 1.524 . S
C2827 C2831 1.400 . S
C2828 H2813 0.960 . S
C2828 H2814 0.960 . S
C2828 H2815 0.960 . S
C2828 C2827 1.524 . S
C2829 C2826 1.403 . S
C2829 C2830 1.392 . S
C2829 C2833 1.495 . S
C2830 C2829 1.392 . S
C2830 C2831 1.385 . S
C2830 C2832 1.478 . S
C2831 H2825 0.930 . S
C2831 C2827 1.400 . S
C2831 C2830 1.385 . S
C2832 C2830 1.478 . S
C2832 C2834 1.381 . S
C2832 C2838 1.383 . S
C2833 C2829 1.495 . S
C2833 H2839 0.959 . S
C2833 H2840 0.961 . S
C2833 H2841 0.960 . S
C2834 C2832 1.381 . S
C2834 C2835 1.394 . S
C2834 H2842 0.930 . S
C2835 C2834 1.394 . S
C2835 C2836 1.383 . S
C2835 H2843 0.929 . S
C2836 C2835 1.383 . S
C2836 C2837 1.377 . S
C2837 H2821 0.930 . S
C2837 C2836 1.377 . S
C2837 C2838 1.379 . S
C2838 H2822 0.931 . S
C2838 C2832 1.383 . S
C2838 C2837 1.379 . S
H2839 C2833 0.959 . S
H2840 C2833 0.961 . S
H2841 C2833 0.960 . S
H2842 C2834 0.930 . S
H2843 C2835 0.929 . S
H2844 C2852 0.929 . S
H2845 C2854 0.930 . S
H2846 C2856 0.930 . S
H2847 C2859 0.929 . S
H2848 C2862 0.930 . S
H2849 C2864 0.960 . S
H2850 C2864 0.960 . S
H2851 C2864 0.960 . S
C2852 H2844 0.929 . S
C2852 C2853 1.377 . S
C2852 C2854 1.384 . S
C2853 C2852 1.377 . S
C2853 C2859 1.390 . S
C2854 H2845 0.930 . S
C2854 C2852 1.384 . S
C2854 C2855 1.372 . S
C2855 C2854 1.372 . S
C2855 C2856 1.400 . S
C2855 C2860 1.490 . S
C2856 H2846 0.930 . S
C2856 C2855 1.400 . S
C2856 C2859 1.386 . S
H2857 C2873 0.930 . S
H2858 C2874 0.931 . S
C2859 H2847 0.929 . S
C2859 C2853 1.390 . S
C2859 C2856 1.386 . S
C2860 C2855 1.490 . S
C2860 C2862 1.395 . S
C2860 C2863 1.403 . S
H2861 C2867 0.930 . S
C2862 H2848 0.930 . S
C2862 C2860 1.395 . S
C2862 C2865 1.403 . S
C2863 C2860 1.403 . S
C2863 C2864 1.524 . S
C2863 C2867 1.400 . S
C2864 H2849 0.960 . S
C2864 H2850 0.960 . S
C2864 H2851 0.960 . S
C2864 C2863 1.524 . S
C2865 C2862 1.403 . S
C2865 C2866 1.392 . S
C2865 C2869 1.495 . S
C2866 C2865 1.392 . S
C2866 C2867 1.385 . S
C2866 C2868 1.478 . S
C2867 H2861 0.930 . S
C2867 C2863 1.400 . S
C2867 C2866 1.385 . S
C2868 C2866 1.478 . S
C2868 C2870 1.381 . S
C2868 C2874 1.383 . S
C2869 C2865 1.495 . S
C2869 H2875 0.959 . S
C2869 H2876 0.961 . S
C2869 H2877 0.960 . S
C2870 C2868 1.381 . S
C2870 C2871 1.394 . S
C2870 H2878 0.930 . S
C2871 C2870 1.394 . S
C2871 C2872 1.383 . S
C2871 H2879 0.929 . S
C2872 C2871 1.383 . S
C2872 C2873 1.377 . S
C2873 H2857 0.930 . S
C2873 C2872 1.377 . S
C2873 C2874 1.379 . S
C2874 H2858 0.931 . S
C2874 C2868 1.383 . S
C2874 C2873 1.379 . S
H2875 C2869 0.959 . S
H2876 C2869 0.961 . S
H2877 C2869 0.960 . S
H2878 C2870 0.930 . S
H2879 C2871 0.929 . S
H2880 C2888 0.929 . S
H2881 C2890 0.930 . S
H2882 C2892 0.930 . S
H2883 C2895 0.929 . S
H2884 C2898 0.930 . S
H2885 C2900 0.960 . S
H2886 C2900 0.960 . S
H2887 C2900 0.960 . S
C2888 H2880 0.929 . S
C2888 C2889 1.377 . S
C2888 C2890 1.384 . S
C2889 C2888 1.377 . S
C2889 C2895 1.390 . S
C2890 H2881 0.930 . S
C2890 C2888 1.384 . S
C2890 C2891 1.372 . S
C2891 C2890 1.372 . S
C2891 C2892 1.400 . S
C2891 C2896 1.490 . S
C2892 H2882 0.930 . S
C2892 C2891 1.400 . S
C2892 C2895 1.386 . S
H2893 C2909 0.930 . S
H2894 C2910 0.931 . S
C2895 H2883 0.929 . S
C2895 C2889 1.390 . S
C2895 C2892 1.386 . S
C2896 C2891 1.490 . S
C2896 C2898 1.395 . S
C2896 C2899 1.403 . S
H2897 C2903 0.930 . S
C2898 H2884 0.930 . S
C2898 C2896 1.395 . S
C2898 C2901 1.403 . S
C2899 C2896 1.403 . S
C2899 C2900 1.524 . S
C2899 C2903 1.400 . S
C2900 H2885 0.960 . S
C2900 H2886 0.960 . S
C2900 H2887 0.960 . S
C2900 C2899 1.524 . S
C2901 C2898 1.403 . S
C2901 C2902 1.392 . S
C2901 C2905 1.495 . S
C2902 C2901 1.392 . S
C2902 C2903 1.385 . S
C2902 C2904 1.478 . S
C2903 H2897 0.930 . S
C2903 C2899 1.400 . S
C2903 C2902 1.385 . S
C2904 C2902 1.478 . S
C2904 C2906 1.381 . S
C2904 C2910 1.383 . S
C2905 C2901 1.495 . S
C2905 H2911 0.959 . S
C2905 H2912 0.961 . S
C2905 H2913 0.960 . S
C2906 C2904 1.381 . S
C2906 C2907 1.394 . S
C2906 H2914 0.930 . S
C2907 C2906 1.394 . S
C2907 C2908 1.383 . S
C2907 H2915 0.929 . S
C2908 C2907 1.383 . S
C2908 C2909 1.377 . S
C2909 H2893 0.930 . S
C2909 C2908 1.377 . S
C2909 C2910 1.379 . S
C2910 H2894 0.931 . S
C2910 C2904 1.383 . S
C2910 C2909 1.379 . S
H2911 C2905 0.959 . S
H2912 C2905 0.961 . S
H2913 C2905 0.960 . S
H2914 C2906 0.930 . S
H2915 C2907 0.929 . S
H2916 C2924 0.929 . S
H2917 C2926 0.930 . S
H2918 C2928 0.930 . S
H2919 C2931 0.929 . S
H2920 C2934 0.930 . S
H2921 C2936 0.960 . S
H2922 C2936 0.960 . S
H2923 C2936 0.960 . S
C2924 H2916 0.929 . S
C2924 C2925 1.377 . S
C2924 C2926 1.384 . S
C2925 C2924 1.377 . S
C2925 C2931 1.390 . S
C2926 H2917 0.930 . S
C2926 C2924 1.384 . S
C2926 C2927 1.372 . S
C2927 C2926 1.372 . S
C2927 C2928 1.400 . S
C2927 C2932 1.490 . S
C2928 H2918 0.930 . S
C2928 C2927 1.400 . S
C2928 C2931 1.386 . S
H2929 C2945 0.930 . S
H2930 C2946 0.931 . S
C2931 H2919 0.929 . S
C2931 C2925 1.390 . S
C2931 C2928 1.386 . S
C2932 C2927 1.490 . S
C2932 C2934 1.395 . S
C2932 C2935 1.403 . S
H2933 C2939 0.930 . S
C2934 H2920 0.930 . S
C2934 C2932 1.395 . S
C2934 C2937 1.403 . S
C2935 C2932 1.403 . S
C2935 C2936 1.524 . S
C2935 C2939 1.400 . S
C2936 H2921 0.960 . S
C2936 H2922 0.960 . S
C2936 H2923 0.960 . S
C2936 C2935 1.524 . S
C2937 C2934 1.403 . S
C2937 C2938 1.392 . S
C2937 C2941 1.495 . S
C2938 C2937 1.392 . S
C2938 C2939 1.385 . S
C2938 C2940 1.478 . S
C2939 H2933 0.930 . S
C2939 C2935 1.400 . S
C2939 C2938 1.385 . S
C2940 C2938 1.478 . S
C2940 C2942 1.381 . S
C2940 C2946 1.383 . S
C2941 C2937 1.495 . S
C2941 H2947 0.959 . S
C2941 H2948 0.961 . S
C2941 H2949 0.960 . S
C2942 C2940 1.381 . S
C2942 C2943 1.394 . S
C2942 H2950 0.930 . S
C2943 C2942 1.394 . S
C2943 C2944 1.383 . S
C2943 H2951 0.929 . S
C2944 C2943 1.383 . S
C2944 C2945 1.377 . S
C2945 H2929 0.930 . S
C2945 C2944 1.377 . S
C2945 C2946 1.379 . S
C2946 H2930 0.931 . S
C2946 C2940 1.383 . S
C2946 C2945 1.379 . S
H2947 C2941 0.959 . S
H2948 C2941 0.961 . S
H2949 C2941 0.960 . S
H2950 C2942 0.930 . S
H2951 C2943 0.929 . S
H2952 C2960 0.929 . S
H2953 C2962 0.930 . S
H2954 C2964 0.930 . S
H2955 C2967 0.929 . S
H2956 C2970 0.930 . S
H2957 C2972 0.960 . S
H2958 C2972 0.960 . S
H2959 C2972 0.960 . S
C2960 H2952 0.929 . S
C2960 C2961 1.377 . S
C2960 C2962 1.384 . S
C2961 C2960 1.377 . S
C2961 C2967 1.390 . S
C2962 H2953 0.930 . S
C2962 C2960 1.384 . S
C2962 C2963 1.372 . S
C2963 C2962 1.372 . S
C2963 C2964 1.400 . S
C2963 C2968 1.490 . S
C2964 H2954 0.930 . S
C2964 C2963 1.400 . S
C2964 C2967 1.386 . S
H2965 C2981 0.930 . S
H2966 C2982 0.931 . S
C2967 H2955 0.929 . S
C2967 C2961 1.390 . S
C2967 C2964 1.386 . S
C2968 C2963 1.490 . S
C2968 C2970 1.395 . S
C2968 C2971 1.403 . S
H2969 C2975 0.930 . S
C2970 H2956 0.930 . S
C2970 C2968 1.395 . S
C2970 C2973 1.403 . S
C2971 C2968 1.403 . S
C2971 C2972 1.524 . S
C2971 C2975 1.400 . S
C2972 H2957 0.960 . S
C2972 H2958 0.960 . S
C2972 H2959 0.960 . S
C2972 C2971 1.524 . S
C2973 C2970 1.403 . S
C2973 C2974 1.392 . S
C2973 C2977 1.495 . S
C2974 C2973 1.392 . S
C2974 C2975 1.385 . S
C2974 C2976 1.478 . S
C2975 H2969 0.930 . S
C2975 C2971 1.400 . S
C2975 C2974 1.385 . S
C2976 C2974 1.478 . S
C2976 C2978 1.381 . S
C2976 C2982 1.383 . S
C2977 C2973 1.495 . S
C2977 H2983 0.959 . S
C2977 H2984 0.961 . S
C2977 H2985 0.960 . S
C2978 C2976 1.381 . S
C2978 C2979 1.394 . S
C2978 H2986 0.930 . S
C2979 C2978 1.394 . S
C2979 C2980 1.383 . S
C2979 H2987 0.929 . S
C2980 C2979 1.383 . S
C2980 C2981 1.377 . S
C2981 H2965 0.930 . S
C2981 C2980 1.377 . S
C2981 C2982 1.379 . S
C2982 H2966 0.931 . S
C2982 C2976 1.383 . S
C2982 C2981 1.379 . S
H2983 C2977 0.959 . S
H2984 C2977 0.961 . S
H2985 C2977 0.960 . S
H2986 C2978 0.930 . S
H2987 C2979 0.929 . S
H2988 C2996 0.929 . S
H2989 C2998 0.930 . S
H2990 C3000 0.930 . S
H2991 C3003 0.929 . S
H2992 C3006 0.930 . S
H2993 C3008 0.960 . S
H2994 C3008 0.960 . S
H2995 C3008 0.960 . S
C2996 H2988 0.929 . S
C2996 C2997 1.377 . S
C2996 C2998 1.384 . S
C2997 C2996 1.377 . S
C2997 C3003 1.390 . S
C2998 H2989 0.930 . S
C2998 C2996 1.384 . S
C2998 C2999 1.372 . S
C2999 C2998 1.372 . S
C2999 C3000 1.400 . S
C2999 C3004 1.490 . S
C3000 H2990 0.930 . S
C3000 C2999 1.400 . S
C3000 C3003 1.386 . S
H3001 C3017 0.930 . S
H3002 C3018 0.931 . S
C3003 H2991 0.929 . S
C3003 C2997 1.390 . S
C3003 C3000 1.386 . S
C3004 C2999 1.490 . S
C3004 C3006 1.395 . S
C3004 C3007 1.403 . S
H3005 C3011 0.930 . S
C3006 H2992 0.930 . S
C3006 C3004 1.395 . S
C3006 C3009 1.403 . S
C3007 C3004 1.403 . S
C3007 C3008 1.524 . S
C3007 C3011 1.400 . S
C3008 H2993 0.960 . S
C3008 H2994 0.960 . S
C3008 H2995 0.960 . S
C3008 C3007 1.524 . S
C3009 C3006 1.403 . S
C3009 C3010 1.392 . S
C3009 C3013 1.495 . S
C3010 C3009 1.392 . S
C3010 C3011 1.385 . S
C3010 C3012 1.478 . S
C3011 H3005 0.930 . S
C3011 C3007 1.400 . S
C3011 C3010 1.385 . S
C3012 C3010 1.478 . S
C3012 C3014 1.381 . S
C3012 C3018 1.383 . S
C3013 C3009 1.495 . S
C3013 H3019 0.959 . S
C3013 H3020 0.961 . S
C3013 H3021 0.960 . S
C3014 C3012 1.381 . S
C3014 C3015 1.394 . S
C3014 H3022 0.930 . S
C3015 C3014 1.394 . S
C3015 C3016 1.383 . S
C3015 H3023 0.929 . S
C3016 C3015 1.383 . S
C3016 C3017 1.377 . S
C3017 H3001 0.930 . S
C3017 C3016 1.377 . S
C3017 C3018 1.379 . S
C3018 H3002 0.931 . S
C3018 C3012 1.383 . S
C3018 C3017 1.379 . S
H3019 C3013 0.959 . S
H3020 C3013 0.961 . S
H3021 C3013 0.960 . S
H3022 C3014 0.930 . S
H3023 C3015 0.929 . S
H3024 C3032 0.929 . S
H3025 C3034 0.930 . S
H3026 C3036 0.930 . S
H3027 C3039 0.929 . S
H3028 C3042 0.930 . S
H3029 C3044 0.960 . S
H3030 C3044 0.960 . S
H3031 C3044 0.960 . S
C3032 H3024 0.929 . S
C3032 C3033 1.377 . S
C3032 C3034 1.384 . S
C3033 C3032 1.377 . S
C3033 C3039 1.390 . S
C3034 H3025 0.930 . S
C3034 C3032 1.384 . S
C3034 C3035 1.372 . S
C3035 C3034 1.372 . S
C3035 C3036 1.400 . S
C3035 C3040 1.490 . S
C3036 H3026 0.930 . S
C3036 C3035 1.400 . S
C3036 C3039 1.386 . S
H3037 C3053 0.930 . S
H3038 C3054 0.931 . S
C3039 H3027 0.929 . S
C3039 C3033 1.390 . S
C3039 C3036 1.386 . S
C3040 C3035 1.490 . S
C3040 C3042 1.395 . S
C3040 C3043 1.403 . S
H3041 C3047 0.930 . S
C3042 H3028 0.930 . S
C3042 C3040 1.395 . S
C3042 C3045 1.403 . S
C3043 C3040 1.403 . S
C3043 C3044 1.524 . S
C3043 C3047 1.400 . S
C3044 H3029 0.960 . S
C3044 H3030 0.960 . S
C3044 H3031 0.960 . S
C3044 C3043 1.524 . S
C3045 C3042 1.403 . S
C3045 C3046 1.392 . S
C3045 C3049 1.495 . S
C3046 C3045 1.392 . S
C3046 C3047 1.385 . S
C3046 C3048 1.478 . S
C3047 H3041 0.930 . S
C3047 C3043 1.400 . S
C3047 C3046 1.385 . S
C3048 C3046 1.478 . S
C3048 C3050 1.381 . S
C3048 C3054 1.383 . S
C3049 C3045 1.495 . S
C3049 H3055 0.959 . S
C3049 H3056 0.961 . S
C3049 H3057 0.960 . S
C3050 C3048 1.381 . S
C3050 C3051 1.394 . S
C3050 H3058 0.930 . S
C3051 C3050 1.394 . S
C3051 C3052 1.383 . S
C3051 H3059 0.929 . S
C3052 C3051 1.383 . S
C3052 C3053 1.377 . S
C3053 H3037 0.930 . S
C3053 C3052 1.377 . S
C3053 C3054 1.379 . S
C3054 H3038 0.931 . S
C3054 C3048 1.383 . S
C3054 C3053 1.379 . S
H3055 C3049 0.959 . S
H3056 C3049 0.961 . S
H3057 C3049 0.960 . S
H3058 C3050 0.930 . S
H3059 C3051 0.929 . S
H3060 C3068 0.929 . S
H3061 C3070 0.930 . S
H3062 C3072 0.888 1_455 S
H3063 C3075 0.929 . S
H3064 C3078 0.930 . S
H3065 C3080 0.960 . S
H3066 C3080 0.960 . S
H3067 C3080 0.960 . S
C3068 H3060 0.929 . S
C3068 C3069 1.377 . S
C3068 C3070 1.384 . S
C3069 C3068 1.377 . S
C3069 C3075 1.390 . S
C3070 H3061 0.930 . S
C3070 C3068 1.384 . S
C3070 C3071 1.372 . S
C3071 C3070 1.372 . S
C3071 C3072 1.400 . S
C3071 C3076 1.490 . S
C3072 H3062 0.888 1_655 S
C3072 C3071 1.400 . S
C3072 C3075 1.386 . S
H3073 C3089 0.944 . S
H3074 C3090 0.933 . S
C3075 H3063 0.929 . S
C3075 C3069 1.390 . S
C3075 C3072 1.386 . S
C3076 C3071 1.490 . S
C3076 C3078 1.395 . S
C3076 C3079 1.403 1_655 S
H3077 C3083 0.930 . S
C3078 H3064 0.930 . S
C3078 C3076 1.395 . S
C3078 C3081 1.403 . S
C3079 C3076 1.403 1_455 S
C3079 C3080 1.524 . S
C3079 C3083 1.400 . S
C3080 H3065 0.960 . S
C3080 H3066 0.960 . S
C3080 H3067 0.960 . S
C3080 C3079 1.524 . S
C3081 C3078 1.403 . S
C3081 C3082 1.392 . S
C3081 C3085 1.495 . S
C3082 C3081 1.392 . S
C3082 C3083 1.385 1_655 S
C3082 C3084 1.478 . S
C3083 H3077 0.930 . S
C3083 C3079 1.400 . S
C3083 C3082 1.385 1_455 S
C3084 C3082 1.478 . S
C3084 C3086 1.381 . S
C3084 C3090 1.383 . S
C3085 C3081 1.495 . S
C3085 H3091 0.959 . S
C3085 H3092 0.961 . S
C3085 H3093 0.960 . S
C3086 C3084 1.381 . S
C3086 C3087 1.394 . S
C3086 H3094 0.930 . S
C3087 C3086 1.394 . S
C3087 C3088 1.383 . S
C3087 H3095 0.929 . S
C3088 C3087 1.383 . S
C3088 C3089 1.377 1_655 S
C3089 H3073 0.944 . S
C3089 C3088 1.377 1_455 S
C3089 C3090 1.366 1_455 S
C3090 H3074 0.933 . S
C3090 C3084 1.383 . S
C3090 C3089 1.366 1_655 S
H3091 C3085 0.959 . S
H3092 C3085 0.961 . S
H3093 C3085 0.960 . S
H3094 C3086 0.930 . S
H3095 C3087 0.929 . S
H3096 C3104 0.929 . S
H3097 C3106 0.930 . S
H3098 C3108 0.930 . S
H3099 C3111 0.929 . S
H3100 C3114 0.930 . S
H3101 C3116 0.960 . S
H3102 C3116 0.960 . S
H3103 C3116 0.960 . S
C3104 H3096 0.929 . S
C3104 C3105 1.377 . S
C3104 C3106 1.384 . S
C3105 C3104 1.377 . S
C3105 C3111 1.390 . S
C3106 H3097 0.930 . S
C3106 C3104 1.384 . S
C3106 C3107 1.372 . S
C3107 C3106 1.372 . S
C3107 C3108 1.400 . S
C3107 C3112 1.490 . S
C3108 H3098 0.930 . S
C3108 C3107 1.400 . S
C3108 C3111 1.386 . S
H3109 C3125 0.930 . S
H3110 C3126 0.931 . S
C3111 H3099 0.929 . S
C3111 C3105 1.390 . S
C3111 C3108 1.386 . S
C3112 C3107 1.490 . S
C3112 C3114 1.395 . S
C3112 C3115 1.403 . S
H3113 C3119 0.930 . S
C3114 H3100 0.930 . S
C3114 C3112 1.395 . S
C3114 C3117 1.403 . S
C3115 C3112 1.403 . S
C3115 C3116 1.524 . S
C3115 C3119 1.400 . S
C3116 H3101 0.960 . S
C3116 H3102 0.960 . S
C3116 H3103 0.960 . S
C3116 C3115 1.524 . S
C3117 C3114 1.403 . S
C3117 C3118 1.392 . S
C3117 C3121 1.495 . S
C3118 C3117 1.392 . S
C3118 C3119 1.385 . S
C3118 C3120 1.478 . S
C3119 H3113 0.930 . S
C3119 C3115 1.400 . S
C3119 C3118 1.385 . S
C3120 C3118 1.478 . S
C3120 C3122 1.381 . S
C3120 C3126 1.383 . S
C3121 C3117 1.495 . S
C3121 H3127 0.959 . S
C3121 H3128 0.961 . S
C3121 H3129 0.960 . S
C3122 C3120 1.381 . S
C3122 C3123 1.394 . S
C3122 H3130 0.930 . S
C3123 C3122 1.394 . S
C3123 C3124 1.383 . S
C3123 H3131 0.929 . S
C3124 C3123 1.383 . S
C3124 C3125 1.377 . S
C3125 H3109 0.930 . S
C3125 C3124 1.377 . S
C3125 C3126 1.379 . S
C3126 H3110 0.931 . S
C3126 C3120 1.383 . S
C3126 C3125 1.379 . S
H3127 C3121 0.959 . S
H3128 C3121 0.961 . S
H3129 C3121 0.960 . S
H3130 C3122 0.930 . S
H3131 C3123 0.929 . S
H3132 C3140 0.929 . S
H3133 C3142 0.930 . S
H3134 C3144 0.930 . S
H3135 C3147 0.929 . S
H3136 C3150 0.930 . S
H3137 C3152 0.960 . S
H3138 C3152 0.960 . S
H3139 C3152 0.960 . S
C3140 H3132 0.929 . S
C3140 C3141 1.377 1_565 S
C3140 C3142 1.384 . S
C3141 C3140 1.377 1_545 S
C3141 C3147 1.390 . S
C3142 H3133 0.930 . S
C3142 C3140 1.384 . S
C3142 C3143 1.372 1_565 S
C3143 C3142 1.372 1_545 S
C3143 C3144 1.400 . S
C3143 C3148 1.490 . S
C3144 H3134 0.930 . S
C3144 C3143 1.400 . S
C3144 C3147 1.386 . S
H3145 C3161 0.930 . S
H3146 C3162 0.931 . S
C3147 H3135 0.929 . S
C3147 C3141 1.390 . S
C3147 C3144 1.386 . S
C3148 C3143 1.490 . S
C3148 C3150 1.395 1_545 S
C3148 C3151 1.403 . S
H3149 C3155 0.930 . S
C3150 H3136 0.930 . S
C3150 C3148 1.395 1_565 S
C3150 C3153 1.403 . S
C3151 C3148 1.403 . S
C3151 C3152 1.524 . S
C3151 C3155 1.400 . S
C3152 H3137 0.960 . S
C3152 H3138 0.960 . S
C3152 H3139 0.960 . S
C3152 C3151 1.524 . S
C3153 C3150 1.403 . S
C3153 C3154 1.392 1_565 S
C3153 C3157 1.495 . S
C3154 C3153 1.392 1_545 S
C3154 C3155 1.385 . S
C3154 C3156 1.478 . S
C3155 H3149 0.930 . S
C3155 C3151 1.400 . S
C3155 C3154 1.385 . S
C3156 C3154 1.478 . S
C3156 C3158 1.381 1_545 S
C3156 C3162 1.383 . S
C3157 C3153 1.495 . S
C3157 H3163 0.959 . S
C3157 H3164 0.961 . S
C3157 H3165 0.960 . S
C3158 C3156 1.381 1_565 S
C3158 C3159 1.394 . S
C3158 H3166 0.930 . S
C3159 C3158 1.394 . S
C3159 C3160 1.417 . S
C3159 H3167 0.929 . S
C3160 C3159 1.417 . S
C3160 C3161 1.359 1_565 S
C3161 H3145 0.930 . S
C3161 C3160 1.359 1_545 S
C3161 C3162 1.379 . S
C3162 H3146 0.931 . S
C3162 C3156 1.383 . S
C3162 C3161 1.379 . S
H3163 C3157 0.959 . S
H3164 C3157 0.961 . S
H3165 C3157 0.960 . S
H3166 C3158 0.930 . S
H3167 C3159 0.929 . S
C585 C9 1.509 1_655 S
C604 C421 1.489 . S
C621 C19 1.564 . S
C640 C446 1.556 . S
C676 C457 1.560 . S
C657 C33 1.575 . S
C693 C37 1.579 . S
C712 C482 1.543 . S
C729 C5 1.529 . S
C748 C500 1.517 . S
C765 C23 1.591 . S
C784 C511 1.528 . S
C801 C47 1.539 . S
C820 C493 1.506 1_455 S
C856 C518 1.541 . S
C837 C65 1.578 . S
C892 C475 1.520 . S
C873 C75 1.520 . S
C909 C79 1.514 . S
C928 C464 1.476 . S
C964 C428 1.512 1_655 S
C945 C51 1.566 1_655 S
C981 C61 1.559 . S
C1000 C439 1.552 . S
C1017 C93 1.659 . S
C1036 C529 1.592 . S
C1053 C103 1.609 . S
C1072 C554 1.567 . S
C1108 C565 1.590 . S
C1089 C117 1.638 . S
C1125 C121 1.610 . S
C1144 C266 1.589 . S
C1161 C89 1.613 . S
C1180 C284 1.602 . S
C1197 C107 1.619 . S
C1216 C295 1.560 . S
C1233 C131 1.573 . S
C1252 C277 1.561 . S
C1269 C149 1.598 . S
C1288 C302 1.562 . S
C1324 C259 1.568 . S
C1305 C159 1.578 . S
C1360 C572 1.581 . S
C1341 C163 1.592 . S
C1396 C536 1.602 . S
C1377 C135 1.619 . S
C1432 C547 1.561 . S
C1413 C145 1.597 . S
C1449 C177 1.610 . S
C1468 C313 1.544 . S
C1485 C187 1.586 . S
C1504 C338 1.541 . S
C1521 C201 1.641 . S
C1540 C349 1.597 . S
C1557 C205 1.660 . S
C1576 C374 1.640 . S
C1612 C392 1.568 . S
C1593 C173 1.610 . S
C1648 C403 1.598 . S
C1629 C191 1.642 . S
C1684 C385 1.600 . S
C1665 C215 1.627 . S
C1720 C410 1.585 . S
C1701 C233 1.626 . S
C1737 C243 1.571 . S
C1756 C367 1.563 . S
C1792 C356 1.524 . S
C1773 C247 1.536 . S
C1809 C219 1.624 . S
C1828 C320 1.609 . S
C1864 C331 1.552 . S
C1845 C229 1.585 . S
C1900 C268 1.439 . S
C1881 C11 1.491 . S
C1917 C14 1.444 . S
C1936 C286 1.352 . S
C1972 C296 1.482 . S
C1953 C28 1.534 . S
C2008 C314 1.449 . S
C1989 C39 1.530 . S
C2044 C340 1.414 . S
C2025 C0 1.494 . S
C2080 C350 1.321 . S
C2061 C25 1.412 . S
C2097 C42 1.573 . S
C2116 C358 1.475 . S
C2133 C67 1.490 . S
C2152 C322 1.413 . S
C2169 C70 1.476 . S
C2188 C332 1.369 . S
C2205 C81 1.507 . S
C2224 C278 1.423 . S
C2260 C304 1.420 . S
C2241 C53 1.546 . S
C2277 C56 1.504 . S
C2296 C260 1.403 . S
C2332 C376 1.427 . S
C2313 C95 1.479 . S
C2349 C98 1.533 . S
C2368 C394 1.488 . S
C2385 C112 1.593 . S
C2404 C404 1.535 . S
C2440 C422 1.360 . S
C2421 C123 1.441 . S
C2457 C84 1.496 . S
C2476 C448 1.458 . S
C2493 C109 1.398 . S
C2512 C458 1.352 . S
C2529 C126 1.487 . S
C2548 C466 1.403 . S
C2565 C151 1.443 . S
C2584 C430 1.363 . S
C2620 C440 1.444 . S
C2601 C154 1.494 . S
C2637 C165 1.482 . S
C2656 C386 1.401 . S
C2673 C137 1.585 . S
C2692 C412 1.525 . S
C2728 C368 1.538 . S
C2709 C140 1.586 . S
C2764 C484 1.336 . S
C2745 C179 1.424 . S
C2781 C182 1.425 . S
C2800 C502 1.364 . S
C2817 C196 1.538 . S
C2836 C512 1.489 . S
C2872 C530 1.443 . S
C2853 C207 1.516 . S
C2908 C556 1.443 . S
C2889 C168 1.539 . S
C2925 C193 1.506 . S
C2944 C566 1.431 . S
C2961 C210 1.567 . S
C2980 C574 1.509 . S
C2997 C235 1.576 . S
C3016 C538 1.458 . S
C3052 C548 1.463 . S
C3033 C238 1.540 . S
C3088 C494 1.311 1_655 S
C3069 C249 1.393 . S
C3124 C520 1.427 . S
C3105 C221 1.537 . S
C3141 C224 1.463 . S
C3160 C476 1.393 . S
